# Generated by pormake.
# Topology unb, (4)-cn, num edge types: 1
# Building blocks:
#     Node 0, Type 0, BuildingBlock: QUQFOY_clean_sbu_3, # of connection points: 4
#     Node 1, Type 0, BuildingBlock: QUQFOY_clean_sbu_3, # of connection points: 4
#     Node 2, Type 0, BuildingBlock: QUQFOY_clean_sbu_3, # of connection points: 4
#     Node 3, Type 0, BuildingBlock: QUQFOY_clean_sbu_3, # of connection points: 4
#     Node 4, Type 0, BuildingBlock: QUQFOY_clean_sbu_3, # of connection points: 4
#     Node 5, Type 0, BuildingBlock: QUQFOY_clean_sbu_3, # of connection points: 4
#     Node 6, Type 0, BuildingBlock: QUQFOY_clean_sbu_3, # of connection points: 4
#     Node 7, Type 0, BuildingBlock: QUQFOY_clean_sbu_3, # of connection points: 4
#     Node 8, Type 0, BuildingBlock: QUQFOY_clean_sbu_3, # of connection points: 4
#     Node 9, Type 0, BuildingBlock: QUQFOY_clean_sbu_3, # of connection points: 4
#     Node 10, Type 0, BuildingBlock: QUQFOY_clean_sbu_3, # of connection points: 4
#     Node 11, Type 0, BuildingBlock: QUQFOY_clean_sbu_3, # of connection points: 4
#     Node 12, Type 0, BuildingBlock: QUQFOY_clean_sbu_3, # of connection points: 4
#     Node 13, Type 0, BuildingBlock: QUQFOY_clean_sbu_3, # of connection points: 4
#     Node 14, Type 0, BuildingBlock: QUQFOY_clean_sbu_3, # of connection points: 4
#     Node 15, Type 0, BuildingBlock: QUQFOY_clean_sbu_3, # of connection points: 4
#     Node 16, Type 0, BuildingBlock: QUQFOY_clean_sbu_3, # of connection points: 4
#     Node 17, Type 0, BuildingBlock: QUQFOY_clean_sbu_3, # of connection points: 4
#     Edge 18, Type (0, 0), BuildingBlock: XUDNAN_clean_linker_2, # of connection points: 2
#     Edge 19, Type (0, 0), BuildingBlock: XUDNAN_clean_linker_2, # of connection points: 2
#     Edge 20, Type (0, 0), BuildingBlock: XUDNAN_clean_linker_2, # of connection points: 2
#     Edge 21, Type (0, 0), BuildingBlock: XUDNAN_clean_linker_2, # of connection points: 2
#     Edge 22, Type (0, 0), BuildingBlock: XUDNAN_clean_linker_2, # of connection points: 2
#     Edge 23, Type (0, 0), BuildingBlock: XUDNAN_clean_linker_2, # of connection points: 2
#     Edge 24, Type (0, 0), BuildingBlock: XUDNAN_clean_linker_2, # of connection points: 2
#     Edge 25, Type (0, 0), BuildingBlock: XUDNAN_clean_linker_2, # of connection points: 2
#     Edge 26, Type (0, 0), BuildingBlock: XUDNAN_clean_linker_2, # of connection points: 2
#     Edge 27, Type (0, 0), BuildingBlock: XUDNAN_clean_linker_2, # of connection points: 2
#     Edge 28, Type (0, 0), BuildingBlock: XUDNAN_clean_linker_2, # of connection points: 2
#     Edge 29, Type (0, 0), BuildingBlock: XUDNAN_clean_linker_2, # of connection points: 2
#     Edge 30, Type (0, 0), BuildingBlock: XUDNAN_clean_linker_2, # of connection points: 2
#     Edge 31, Type (0, 0), BuildingBlock: XUDNAN_clean_linker_2, # of connection points: 2
#     Edge 32, Type (0, 0), BuildingBlock: XUDNAN_clean_linker_2, # of connection points: 2
#     Edge 33, Type (0, 0), BuildingBlock: XUDNAN_clean_linker_2, # of connection points: 2
#     Edge 34, Type (0, 0), BuildingBlock: XUDNAN_clean_linker_2, # of connection points: 2
#     Edge 35, Type (0, 0), BuildingBlock: XUDNAN_clean_linker_2, # of connection points: 2
#     Edge 36, Type (0, 0), BuildingBlock: XUDNAN_clean_linker_2, # of connection points: 2
#     Edge 37, Type (0, 0), BuildingBlock: XUDNAN_clean_linker_2, # of connection points: 2
#     Edge 38, Type (0, 0), BuildingBlock: XUDNAN_clean_linker_2, # of connection points: 2
#     Edge 39, Type (0, 0), BuildingBlock: XUDNAN_clean_linker_2, # of connection points: 2
#     Edge 40, Type (0, 0), BuildingBlock: XUDNAN_clean_linker_2, # of connection points: 2
#     Edge 41, Type (0, 0), BuildingBlock: XUDNAN_clean_linker_2, # of connection points: 2
#     Edge 42, Type (0, 0), BuildingBlock: XUDNAN_clean_linker_2, # of connection points: 2
#     Edge 43, Type (0, 0), BuildingBlock: XUDNAN_clean_linker_2, # of connection points: 2
#     Edge 44, Type (0, 0), BuildingBlock: XUDNAN_clean_linker_2, # of connection points: 2
#     Edge 45, Type (0, 0), BuildingBlock: XUDNAN_clean_linker_2, # of connection points: 2
#     Edge 46, Type (0, 0), BuildingBlock: XUDNAN_clean_linker_2, # of connection points: 2
#     Edge 47, Type (0, 0), BuildingBlock: XUDNAN_clean_linker_2, # of connection points: 2
#     Edge 48, Type (0, 0), BuildingBlock: XUDNAN_clean_linker_2, # of connection points: 2
#     Edge 49, Type (0, 0), BuildingBlock: XUDNAN_clean_linker_2, # of connection points: 2
#     Edge 50, Type (0, 0), BuildingBlock: XUDNAN_clean_linker_2, # of connection points: 2
#     Edge 51, Type (0, 0), BuildingBlock: XUDNAN_clean_linker_2, # of connection points: 2
#     Edge 52, Type (0, 0), BuildingBlock: XUDNAN_clean_linker_2, # of connection points: 2
#     Edge 53, Type (0, 0), BuildingBlock: XUDNAN_clean_linker_2, # of connection points: 2
# Relax obj value: 0.085
# Max RMSD: 0.073
# Mean RMSD: 0.073
data_MOF--net-unb--node1-QUQFOY_clean_sbu_3--edge1-XUDNAN_clean_linker_2
_symmetry_space_group_name_H-M    P1
_symmetry_Int_Tables_number       1
_symmetry_cell_setting            triclinic
loop_
_symmetry_equiv_pos_as_xyz
'x, y, z'
_cell_length_a     63.839896
_cell_length_b     63.75526
_cell_length_c     28.352269
_cell_angle_alpha  89.822476
_cell_angle_beta   90.141904
_cell_angle_gamma 120.01235
loop_
_atom_site_label
_atom_site_type_symbol
_atom_site_fract_x
_atom_site_fract_y
_atom_site_fract_z
_atom_type_partial_charge
C0 C 0.0732 0.21552 0.03422 0.0
O1 O 0.08085 0.20144 0.02158 0.0
Cd2 Cd 0.12221 0.21443 0.00425 0.0
O3 O 0.0879 0.23715 0.04757 0.0
Cd4 Cd 0.13204 0.26454 0.06381 0.0
C5 C 0.13301 0.2669 0.94419 0.0
O6 O 0.1464 0.23616 0.06883 0.0
O7 O 0.17375 0.27306 0.05486 0.0
O8 O 0.12798 0.2712 0.14766 0.0
C9 C 0.16836 0.25112 0.05926 0.0
O10 O 0.1295 0.24536 0.94541 0.0
C11 C 0.13697 0.294 0.14406 0.0
O12 O 0.13445 0.27846 0.98195 0.0
O13 O 0.14301 0.30302 0.10285 0.0
C14 C 0.76042 0.85741 0.02801 0.0
O15 O 0.77041 0.87717 0.00495 0.0
Cd16 Cd 0.75564 0.90455 -0.00585 0.0
O17 O 0.7416 0.85125 0.0531 0.0
Cd18 Cd 0.71536 0.86845 0.07715 0.0
C19 C 0.69736 0.86159 0.96138 0.0
O20 O 0.74498 0.91053 0.07038 0.0
O21 O 0.70847 0.90345 0.07439 0.0
O22 O 0.71289 0.86056 0.16321 0.0
C23 C 0.73072 0.9189 0.06937 0.0
O24 O 0.71797 0.87951 0.95045 0.0
C25 C 0.69038 0.84516 0.16277 0.0
O26 O 0.69241 0.85388 0.00378 0.0
O27 O 0.67983 0.8406 0.12295 0.0
C28 C 0.12346 0.90945 0.04376 0.0
O29 O 0.10161 0.90223 0.03255 0.0
Cd30 Cd 0.07147 0.86101 0.01799 0.0
O31 O 0.13006 0.89445 0.05688 0.0
Cd32 Cd 0.11246 0.85032 0.0744 0.0
C33 C 0.11009 0.84759 0.95442 0.0
O34 O 0.07012 0.83696 0.08195 0.0
O35 O 0.07862 0.80884 0.06862 0.0
O36 O 0.1241 0.85491 0.15761 0.0
C37 C 0.06251 0.81479 0.07303 0.0
O38 O 0.09253 0.85171 0.95738 0.0
C39 C 0.13751 0.84552 0.15408 0.0
O40 O 0.12122 0.84651 -0.00885 0.0
O41 O 0.14002 0.83907 0.11298 0.0
C42 C 0.21256 0.07862 0.94041 0.0
O43 O 0.20328 0.08897 0.9636 0.0
Cd44 Cd 0.21811 0.1312 0.97265 0.0
O45 O 0.23112 0.09078 0.91426 0.0
Cd46 Cd 0.25786 0.13421 0.88937 0.0
C47 C 0.27636 0.14636 0.00493 0.0
O48 O 0.22863 0.14722 0.8959 0.0
O49 O 0.2653 0.17627 0.89033 0.0
O50 O 0.26029 0.12896 0.80328 0.0
C51 C 0.24318 0.16983 0.89585 0.0
O52 O 0.2559 0.14399 0.0157 0.0
C53 C 0.28274 0.13583 0.80374 0.0
O54 O 0.28109 0.14309 0.96276 0.0
O55 O 0.29323 0.14144 0.84364 0.0
C56 C 0.90343 0.13334 0.93584 0.0
O57 O 0.89347 0.11356 0.95881 0.0
Cd58 Cd 0.85127 0.08693 0.97115 0.0
O59 O 0.89082 0.13992 0.91144 0.0
Cd60 Cd 0.84715 0.12365 0.88996 0.0
C61 C 0.83931 0.13177 0.00654 0.0
O62 O 0.83289 0.08099 0.89643 0.0
O63 O 0.80481 0.09014 0.89612 0.0
O64 O 0.85145 0.13196 0.80403 0.0
C65 C 0.81052 0.07379 0.89947 0.0
O66 O 0.84079 0.11303 0.01657 0.0
C67 C 0.84357 0.14675 0.8056 0.0
O68 O 0.84183 0.1396 0.96427 0.0
O69 O 0.838 0.15099 0.84605 0.0
C70 C 0.84785 0.77482 0.93371 0.0
O71 O 0.86774 0.78562 0.95615 0.0
Cd72 Cd 0.89553 0.77142 0.96964 0.0
O73 O 0.8419 0.75556 0.91026 0.0
Cd74 Cd 0.85946 0.72944 0.88924 0.0
C75 C 0.85224 0.714 0.00616 0.0
O76 O 0.90192 0.75847 0.8961 0.0
O77 O 0.8932 0.72129 0.89516 0.0
O78 O 0.85148 0.72544 0.8035 0.0
C79 C 0.90929 0.7434 0.89934 0.0
O80 O 0.87047 0.73465 0.01566 0.0
C81 C 0.83698 0.70269 0.80512 0.0
O82 O 0.84434 0.70827 0.96405 0.0
O83 O 0.83269 0.69279 0.84562 0.0
C84 C 0.74684 0.55613 0.36318 0.0
O85 O 0.75517 0.54278 0.34942 0.0
Cd86 Cd 0.79686 0.55747 0.33565 0.0
O87 O 0.76079 0.57707 0.38067 0.0
Cd88 Cd 0.80406 0.6035 0.40629 0.0
C89 C 0.80714 0.61322 0.28958 0.0
O90 O 0.81721 0.57431 0.40624 0.0
O91 O 0.84601 0.61125 0.40142 0.0
O92 O 0.79065 0.6003 0.48724 0.0
C93 C 0.83963 0.58893 0.40109 0.0
O94 O 0.80392 0.59184 0.28655 0.0
C95 C 0.80197 0.62285 0.49607 0.0
O96 O 0.80821 0.62304 0.32941 0.0
O97 O 0.81416 0.63695 0.4624 0.0
C98 C 0.43001 0.17953 0.36405 0.0
O99 O 0.44462 0.20135 0.3526 0.0
Cd100 Cd 0.43457 0.2318 0.34402 0.0
O101 O 0.40892 0.17324 0.38008 0.0
Cd102 Cd 0.38531 0.19388 0.4059 0.0
C103 C 0.37831 0.19459 0.28885 0.0
O104 O 0.41899 0.23306 0.41741 0.0
O105 O 0.3866 0.23404 0.40327 0.0
O106 O 0.38396 0.17843 0.48469 0.0
C107 C 0.40918 0.24582 0.41134 0.0
O108 O 0.40055 0.21108 0.28964 0.0
C109 C 0.36191 0.17136 0.49333 0.0
O110 O 0.36703 0.18412 0.3267 0.0
O111 O 0.34981 0.17385 0.46018 0.0
C112 C 0.79036 0.2424 0.36439 0.0
O113 O 0.76889 0.23377 0.34908 0.0
Cd114 Cd 0.74306 0.19182 0.33311 0.0
O115 O 0.79755 0.22856 0.38181 0.0
Cd116 Cd 0.78182 0.1851 0.40531 0.0
C117 C 0.78943 0.18283 0.28857 0.0
O118 O 0.73902 0.17025 0.40266 0.0
O119 O 0.74904 0.14274 0.39889 0.0
O120 O 0.7909 0.19717 0.48737 0.0
C121 C 0.73237 0.14805 0.39725 0.0
O122 O 0.77109 0.18569 0.28479 0.0
C123 C 0.80259 0.18627 0.49585 0.0
O124 O 0.79801 0.18183 0.32875 0.0
O125 O 0.80536 0.17505 0.46151 0.0
C126 C 0.87562 0.41263 0.26569 0.0
O127 O 0.86282 0.42135 0.28063 0.0
Cd128 Cd 0.87927 0.46335 0.29653 0.0
O129 O 0.89668 0.42641 0.24854 0.0
Cd130 Cd 0.92456 0.4698 0.22502 0.0
C131 C 0.9344 0.47175 0.34171 0.0
O132 O 0.89684 0.48489 0.22702 0.0
O133 O 0.93436 0.51229 0.23162 0.0
O134 O 0.92127 0.45757 0.14311 0.0
C135 C 0.91241 0.50707 0.23265 0.0
O136 O 0.91328 0.46907 0.34527 0.0
C137 C 0.94383 0.46828 0.13462 0.0
O138 O 0.94398 0.47278 0.30161 0.0
O139 O 0.95794 0.4795 0.16889 0.0
C140 C 0.57718 0.47124 0.26943 0.0
O141 O 0.56981 0.45232 0.29452 0.0
Cd142 Cd 0.53003 0.42123 0.30951 0.0
O143 O 0.56251 0.47497 0.2448 0.0
Cd144 Cd 0.51749 0.45146 0.22704 0.0
C145 C 0.50811 0.45856 0.34338 0.0
O146 O 0.51378 0.41276 0.23279 0.0
O147 O 0.47936 0.4106 0.23554 0.0
O148 O 0.52026 0.45987 0.14118 0.0
C149 C 0.49121 0.39952 0.23741 0.0
O150 O 0.51352 0.44245 0.35446 0.0
C151 C 0.50808 0.47068 0.14292 0.0
O152 O 0.50903 0.4653 0.30068 0.0
O153 O 0.5005 0.47243 0.18328 0.0
C154 C 0.51594 0.09711 0.25837 0.0
O155 O 0.53763 0.11103 0.2716 0.0
Cd156 Cd 0.56809 0.10049 0.28553 0.0
O157 O 0.50914 0.07574 0.24357 0.0
Cd158 Cd 0.52725 0.04945 0.22734 0.0
C159 C 0.52924 0.04795 0.34764 0.0
O160 O 0.5696 0.07878 0.22048 0.0
O161 O 0.56143 0.04222 0.23372 0.0
O162 O 0.51625 0.04232 0.14364 0.0
C163 C 0.57742 0.06437 0.22924 0.0
O164 O 0.54702 0.06956 0.34528 0.0
C165 C 0.50272 0.0195 0.14746 0.0
O166 O 0.51808 0.03624 0.31056 0.0
O167 O 0.49991 0.01062 0.1888 0.0
C168 C 0.39856 0.88971 0.68685 0.0
O169 O 0.40538 0.87914 0.65798 0.0
Cd170 Cd 0.44398 0.88343 0.64916 0.0
O171 O 0.41308 0.90449 0.71772 0.0
Cd172 Cd 0.45696 0.92216 0.74194 0.0
C173 C 0.47253 0.94557 0.63062 0.0
O174 O 0.45723 0.88578 0.72714 0.0
O175 O 0.49289 0.91589 0.7367 0.0
O176 O 0.44572 0.91779 0.82531 0.0
C177 C 0.4797 0.89358 0.7271 0.0
O178 O 0.46526 0.92402 0.61666 0.0
C179 C 0.46045 0.93954 0.83701 0.0
O180 O 0.47086 0.95015 0.67387 0.0
O181 O 0.47362 0.95362 0.80426 0.0
C182 C 0.09678 0.51754 0.69774 0.0
O183 O 0.10729 0.53739 0.67502 0.0
Cd184 Cd 0.09229 0.56447 0.66104 0.0
O185 O 0.07744 0.51136 0.72107 0.0
Cd186 Cd 0.05093 0.52868 0.74119 0.0
C187 C 0.03533 0.52041 0.62448 0.0
O188 O 0.0798 0.57139 0.7348 0.0
O189 O 0.04259 0.56234 0.73316 0.0
O190 O 0.0467 0.52066 0.82714 0.0
C191 C 0.06468 0.57864 0.73068 0.0
O192 O 0.05578 0.53887 0.61471 0.0
C193 C 0.02397 0.50619 0.82536 0.0
O194 O 0.02976 0.51272 0.66676 0.0
O195 O 0.01421 0.502 0.78478 0.0
C196 C 0.45871 0.56813 0.70133 0.0
O197 O 0.43724 0.56004 0.68644 0.0
Cd198 Cd 0.40947 0.51854 0.67097 0.0
O199 O 0.46541 0.55385 0.71851 0.0
Cd200 Cd 0.44765 0.50997 0.74128 0.0
C201 C 0.45379 0.50698 0.62424 0.0
O202 O 0.40527 0.49682 0.74001 0.0
O203 O 0.41356 0.46818 0.73356 0.0
O204 O 0.45571 0.52134 0.82342 0.0
C205 C 0.39759 0.47448 0.73341 0.0
O206 O 0.43587 0.51056 0.62169 0.0
C207 C 0.46707 0.5102 0.83265 0.0
O208 O 0.4628 0.50591 0.66391 0.0
O209 O 0.47032 0.49919 0.79849 0.0
C210 C 0.54389 0.73807 0.60254 0.0
O211 O 0.52928 0.74516 0.61434 0.0
Cd212 Cd 0.53908 0.78567 0.62231 0.0
O213 O 0.5649 0.75299 0.58624 0.0
Cd214 Cd 0.58826 0.79731 0.56072 0.0
C215 C 0.59543 0.80538 0.67755 0.0
O216 O 0.55441 0.8026 0.54863 0.0
O217 O 0.58682 0.83596 0.56307 0.0
O218 O 0.58976 0.78355 0.48196 0.0
C219 C 0.56431 0.82521 0.55435 0.0
O220 O 0.57316 0.79948 0.67669 0.0
C221 C 0.61178 0.7987 0.47337 0.0
O222 O 0.60668 0.8061 0.63981 0.0
O223 O 0.62381 0.81319 0.5066 0.0
C224 C 0.22687 0.80413 0.62591 0.0
O225 O 0.2171 0.7851 0.65112 0.0
Cd226 Cd 0.17624 0.75307 0.6504 0.0
O227 O 0.21518 0.80776 0.59333 0.0
Cd228 Cd 0.17308 0.78659 0.5596 0.0
C229 C 0.15596 0.79373 0.66955 0.0
O230 O 0.16387 0.74543 0.57116 0.0
O231 O 0.13301 0.74944 0.55713 0.0
O232 O 0.18738 0.79479 0.47786 0.0
C233 C 0.14112 0.7354 0.56685 0.0
O234 O 0.15922 0.77643 0.68276 0.0
C235 C 0.17534 0.80492 0.46584 0.0
O236 O 0.16027 0.80173 0.62721 0.0
O237 O 0.1627 0.80719 0.49786 0.0
C238 C 0.18209 0.4328 0.603 0.0
O239 O 0.20207 0.44317 0.62516 0.0
Cd240 Cd 0.22848 0.42725 0.63514 0.0
O241 O 0.17617 0.41417 0.57743 0.0
Cd242 Cd 0.19432 0.38948 0.54823 0.0
C243 C 0.1834 0.36778 0.66003 0.0
O244 O 0.23651 0.41862 0.55913 0.0
O245 O 0.22866 0.38189 0.55195 0.0
O246 O 0.18776 0.39542 0.46539 0.0
C247 C 0.24435 0.40389 0.55923 0.0
O248 O 0.20124 0.3882 0.67221 0.0
C249 C 0.17644 0.37309 0.45454 0.0
O250 O 0.17635 0.36335 0.61717 0.0
O251 O 0.17277 0.35814 0.48769 0.0
H252 H 0.15609 0.32686 0.41863 0.0
H253 H 0.18043 0.40131 0.37841 0.0
H254 H 0.17075 0.38876 0.29526 0.0
H255 H 0.18034 0.31252 0.32011 0.0
H256 H 0.15558 0.28192 0.31417 0.0
H257 H 0.1627 0.29637 0.37101 0.0
H258 H 0.11875 0.28803 0.37886 0.0
H259 H 0.11147 0.27349 0.32201 0.0
H260 H 0.10629 0.29834 0.33323 0.0
H261 H 0.16097 0.36865 0.21576 0.0
H262 H 0.15133 0.3423 0.14591 0.0
H263 H 0.13296 0.2808 0.23749 0.0
C264 C 0.15906 0.34047 0.39244 0.0
C265 C 0.16895 0.36508 0.40516 0.0
C266 C 0.17282 0.38235 0.36965 0.0
C267 C 0.16735 0.37539 0.32226 0.0
C268 C 0.15794 0.35106 0.31083 0.0
C269 C 0.15372 0.33383 0.34489 0.0
C270 C 0.1444 0.30905 0.32291 0.0
C271 C 0.1618 0.29941 0.33263 0.0
C272 C 0.1187 0.29117 0.34029 0.0
C273 C 0.14439 0.31512 0.27114 0.0
C274 C 0.15218 0.33944 0.26497 0.0
C275 C 0.15463 0.34953 0.22021 0.0
C276 C 0.14913 0.33442 0.18071 0.0
C277 C 0.14124 0.30945 0.18614 0.0
C278 C 0.13866 0.29974 0.23211 0.0
H279 H 0.65627 0.83329 0.43753 0.0
H280 H 0.59003 0.76738 0.40068 0.0
H281 H 0.60423 0.77104 0.31891 0.0
H282 H 0.661 0.86511 0.33261 0.0
H283 H 0.69345 0.87963 0.32775 0.0
H284 H 0.67929 0.871 0.38481 0.0
H285 H 0.70026 0.84582 0.40049 0.0
H286 H 0.71461 0.8545 0.34351 0.0
H287 H 0.69654 0.8229 0.35882 0.0
H288 H 0.62327 0.7835 0.23997 0.0
H289 H 0.64735 0.80307 0.16873 0.0
H290 H 0.7023 0.86038 0.25505 0.0
C291 C 0.64499 0.81939 0.41245 0.0
C292 C 0.62202 0.8 0.42571 0.0
C293 C 0.60768 0.78239 0.39158 0.0
C294 C 0.6156 0.78428 0.34493 0.0
C295 C 0.63802 0.80381 0.33273 0.0
C296 C 0.65268 0.82097 0.36545 0.0
C297 C 0.67557 0.84067 0.34221 0.0
C298 C 0.67742 0.86557 0.34714 0.0
C299 C 0.69808 0.84098 0.36247 0.0
C300 C 0.67116 0.83213 0.29128 0.0
C301 C 0.64936 0.8108 0.2868 0.0
C302 C 0.64055 0.80001 0.24308 0.0
C303 C 0.65431 0.81132 0.20278 0.0
C304 C 0.67678 0.83312 0.20632 0.0
C305 C 0.68538 0.84351 0.25133 0.0
H306 H 0.14978 0.82538 0.42877 0.0
H307 H 0.20012 0.80125 0.39062 0.0
H308 H 0.19777 0.81119 0.30725 0.0
H309 H 0.11185 0.8016 0.32914 0.0
H310 H 0.1062 0.82649 0.32296 0.0
H311 H 0.11313 0.81908 0.38005 0.0
H312 H 0.14881 0.86301 0.38894 0.0
H313 H 0.14195 0.87057 0.33185 0.0
H314 H 0.17184 0.87561 0.34403 0.0
H315 H 0.1877 0.82107 0.22704 0.0
H316 H 0.17132 0.83097 0.15665 0.0
H317 H 0.12818 0.84939 0.24713 0.0
C318 C 0.16057 0.82249 0.403 0.0
C319 C 0.1752 0.81258 0.41636 0.0
C320 C 0.18885 0.80888 0.38137 0.0
C321 C 0.18764 0.81449 0.33386 0.0
C322 C 0.1728 0.82392 0.3218 0.0
C323 C 0.15962 0.82804 0.3554 0.0
C324 C 0.1444 0.83752 0.33292 0.0
C325 C 0.11729 0.82013 0.3418 0.0
C326 C 0.15222 0.8632 0.35048 0.0
C327 C 0.15077 0.83772 0.28137 0.0
C328 C 0.16724 0.82988 0.2757 0.0
C329 C 0.175 0.8275 0.23112 0.0
C330 C 0.16558 0.83314 0.19132 0.0
C331 C 0.14861 0.84113 0.19631 0.0
C332 C 0.14136 0.84364 0.24209 0.0
H333 H 0.31736 0.161 0.52939 0.0
H334 H 0.3837 0.16143 0.56567 0.0
H335 H 0.36937 0.15 0.64722 0.0
H336 H 0.31233 0.18695 0.63545 0.0
H337 H 0.27988 0.16883 0.63991 0.0
H338 H 0.29419 0.17507 0.58295 0.0
H339 H 0.27339 0.12909 0.56576 0.0
H340 H 0.2589 0.1227 0.62265 0.0
H341 H 0.27709 0.10947 0.60666 0.0
H342 H 0.35006 0.14231 0.7261 0.0
H343 H 0.32578 0.13686 0.79737 0.0
H344 H 0.27095 0.13994 0.71165 0.0
C345 C 0.32864 0.15823 0.5543 0.0
C346 C 0.35167 0.16207 0.54092 0.0
C347 C 0.36601 0.15859 0.57485 0.0
C348 C 0.35802 0.15206 0.62138 0.0
C349 C 0.33553 0.14889 0.63368 0.0
C350 C 0.32089 0.15163 0.60118 0.0
C351 C 0.29791 0.14806 0.62453 0.0
C352 C 0.29598 0.1711 0.62047 0.0
C353 C 0.27549 0.12601 0.60365 0.0
C354 C 0.30222 0.14338 0.67525 0.0
C355 C 0.32405 0.14393 0.67956 0.0
C356 C 0.33277 0.14149 0.72311 0.0
C357 C 0.31887 0.13848 0.76344 0.0
C358 C 0.29638 0.13775 0.76009 0.0
C359 C 0.28788 0.14001 0.71523 0.0
H360 H 0.81999 0.15738 0.53094 0.0
H361 H 0.80461 0.21405 0.57047 0.0
H362 H 0.8161 0.2118 0.65254 0.0
H363 H 0.7958 0.12191 0.63369 0.0
H364 H 0.81827 0.11277 0.63833 0.0
H365 H 0.81096 0.12015 0.58156 0.0
H366 H 0.85605 0.15207 0.5683 0.0
H367 H 0.86352 0.14472 0.62504 0.0
H368 H 0.87179 0.17556 0.61148 0.0
H369 H 0.82619 0.20163 0.73103 0.0
H370 H 0.83471 0.18433 0.80139 0.0
H371 H 0.84395 0.13422 0.71253 0.0
C372 C 0.81947 0.16961 0.55672 0.0
C373 C 0.8115 0.18599 0.54413 0.0
C374 C 0.81068 0.20139 0.57913 0.0
C375 C 0.81722 0.20029 0.6259 0.0
C376 C 0.8246 0.18371 0.63732 0.0
C377 C 0.82586 0.16868 0.60383 0.0
C378 C 0.83321 0.15164 0.62624 0.0
C379 C 0.81338 0.12505 0.61956 0.0
C380 C 0.85759 0.15628 0.60659 0.0
C381 C 0.83547 0.1592 0.67759 0.0
C382 C 0.83053 0.17783 0.68302 0.0
C383 C 0.83035 0.18722 0.7272 0.0
C384 C 0.83517 0.17722 0.767 0.0
C385 C 0.84015 0.15802 0.76255 0.0
C386 C 0.84053 0.1491 0.71706 0.0
H387 H 0.85041 0.71586 0.71255 0.0
H388 H 0.79974 0.65609 0.80044 0.0
H389 H 0.78348 0.63032 0.72992 0.0
H390 H 0.81033 0.70218 0.60949 0.0
H391 H 0.83448 0.71039 0.56777 0.0
H392 H 0.84081 0.72494 0.62457 0.0
H393 H 0.87287 0.7122 0.64057 0.0
H394 H 0.86662 0.69758 0.58393 0.0
H395 H 0.86426 0.68067 0.63667 0.0
H396 H 0.77442 0.61022 0.65146 0.0
H397 H 0.77339 0.59672 0.56976 0.0
H398 H 0.83009 0.66911 0.53147 0.0
C399 C 0.8356 0.69748 0.7168 0.0
C400 C 0.82623 0.68803 0.76203 0.0
C401 C 0.80717 0.66375 0.7662 0.0
C402 C 0.79776 0.64898 0.72632 0.0
C403 C 0.8076 0.6587 0.68239 0.0
C404 C 0.82608 0.68238 0.67727 0.0
C405 C 0.83433 0.68781 0.62626 0.0
C406 C 0.8297 0.7075 0.60582 0.0
C407 C 0.8611 0.69498 0.62161 0.0
C408 C 0.81785 0.66339 0.60375 0.0
C409 C 0.80247 0.64695 0.6368 0.0
C410 C 0.78622 0.62297 0.62515 0.0
C411 C 0.78581 0.61547 0.57859 0.0
C412 C 0.80158 0.63185 0.54407 0.0
C413 C 0.81762 0.65622 0.55687 0.0
H414 H -0.00984 0.49643 0.0997 0.0
H415 H 0.91766 0.44077 0.05995 0.0
H416 H 0.93118 0.44271 0.97796 0.0
H417 H 0.00201 0.53201 -0.00313 0.0
H418 H 0.03344 0.5405 -0.00757 0.0
H419 H 0.01882 0.53341 0.04912 0.0
H420 H 0.03109 0.50079 0.06263 0.0
H421 H 0.04584 0.50784 0.00597 0.0
H422 H 0.02284 0.47719 0.01952 0.0
H423 H 0.95135 0.4525 0.89956 0.0
H424 H 0.97721 0.46934 0.82932 0.0
H425 H 0.03706 0.51864 0.91842 0.0
C426 C 0.97726 0.48436 0.07389 0.0
C427 C 0.95285 0.46836 0.08638 0.0
C428 C 0.93644 0.45314 0.05136 0.0
C429 C 0.94395 0.45407 0.00463 0.0
C430 C 0.96798 0.47028 -0.00671 0.0
C431 C 0.98445 0.48511 0.02683 0.0
C432 C 0.00892 0.50175 0.00453 0.0
C433 C 0.01621 0.5285 0.01113 0.0
C434 C 0.02832 0.49657 0.02435 0.0
C435 C 0.00345 0.49421 0.95319 0.0
C436 C 0.97973 0.47593 0.94767 0.0
C437 C 0.97003 0.46664 0.90346 0.0
C438 C 0.98486 0.47637 0.86373 0.0
C439 C 0.00921 0.49521 0.86831 0.0
C440 C 0.01863 0.50404 0.91381 0.0
H441 H 0.51191 0.4611 0.04932 0.0
H442 H 0.49191 0.5029 0.1403 0.0
H443 H 0.48186 0.51926 0.07047 0.0
H444 H 0.53781 0.50556 0.95365 0.0
H445 H 0.5258 0.483 0.90782 0.0
H446 H 0.53304 0.47563 0.96474 0.0
H447 H 0.48932 0.43949 0.97224 0.0
H448 H 0.48197 0.44673 0.91536 0.0
H449 H 0.46418 0.44473 0.96624 0.0
H450 H 0.47275 0.5302 -0.00802 0.0
H451 H 0.46325 0.53373 0.90922 0.0
H452 H 0.48795 0.48423 0.86738 0.0
C453 C 0.50568 0.47391 0.05444 0.0
C454 C 0.50283 0.48083 0.10033 0.0
C455 C 0.49426 0.49734 0.10558 0.0
C456 C 0.48857 0.50681 0.0661 0.0
C457 C 0.49142 0.49954 0.02146 0.0
C458 C 0.49965 0.48339 0.01527 0.0
C459 C 0.49981 0.47767 0.96332 0.0
C460 C 0.52566 0.48596 0.94639 0.0
C461 C 0.48281 0.45054 0.95374 0.0
C462 C 0.49016 0.49295 0.94146 0.0
C463 C 0.48569 0.50556 0.97575 0.0
C464 C 0.47626 0.52049 0.96476 0.0
C465 C 0.47092 0.52237 0.91753 0.0
C466 C 0.47487 0.5093 0.88164 0.0
C467 C 0.48489 0.49458 0.89388 0.0
H468 H 0.51311 0.0321 0.05406 0.0
H469 H 0.46785 0.97153 0.14576 0.0
H470 H 0.45101 0.94502 0.07607 0.0
H471 H 0.47009 0.01587 0.95704 0.0
H472 H 0.49308 0.02532 0.91226 0.0
H473 H 0.50047 0.03987 0.96909 0.0
H474 H 0.53474 0.02966 0.97891 0.0
H475 H 0.52743 0.01504 0.92221 0.0
H476 H 0.52778 -0.00136 0.97384 0.0
H477 H 0.43997 0.92481 -0.00334 0.0
H478 H 0.43609 0.91204 0.91356 0.0
H479 H 0.48931 0.98547 0.87313 0.0
C480 C 0.49942 0.01333 0.05947 0.0
C481 C 0.49167 0.00392 0.10544 0.0
C482 C 0.47401 0.97916 0.11095 0.0
C483 C 0.46432 0.96397 0.07155 0.0
C484 C 0.47254 0.97376 0.0268 0.0
C485 C 0.48972 -0.00214 0.02053 0.0
C486 C 0.49621 0.00358 0.96879 0.0
C487 C 0.48956 0.02227 0.95074 0.0
C488 C 0.52314 0.01223 0.96047 0.0
C489 C 0.48013 0.97889 0.94697 0.0
C490 C 0.4665 0.962 0.98106 0.0
C491 C 0.4505 0.9379 0.96967 0.0
C492 C 0.44843 0.93082 0.92229 0.0
C493 C 0.46238 0.94771 0.88669 0.0
C494 C 0.47836 0.97211 0.89941 0.0
H495 H 0.15765 0.31535 0.92216 0.0
H496 H 0.11402 0.24393 0.861 0.0
H497 H 0.11976 0.26225 0.78195 0.0
H498 H 0.13852 0.34808 0.84181 0.0
H499 H 0.1684 0.37429 0.83901 0.0
H500 H 0.15876 0.35578 0.89143 0.0
H501 H 0.19605 0.34996 0.88544 0.0
H502 H 0.20574 0.36835 0.83298 0.0
H503 H 0.20117 0.33807 0.83181 0.0
H504 H 0.13182 0.28802 0.70914 0.0
H505 H 0.15088 0.31943 0.64737 0.0
H506 H 0.18788 0.37377 0.75576 0.0
C507 C 0.14895 0.30365 0.89221 0.0
C508 C 0.13529 0.27827 0.89765 0.0
C509 C 0.1246 0.26345 0.85755 0.0
C510 C 0.12764 0.27368 0.81254 0.0
C511 C 0.14155 0.29873 0.80819 0.0
C512 C 0.1521 0.31354 0.84687 0.0
C513 C 0.16765 0.33973 0.83208 0.0
C514 C 0.15773 0.35539 0.85228 0.0
C515 C 0.19422 0.34959 0.84642 0.0
C516 C 0.16448 0.33724 0.77908 0.0
C517 C 0.1491 0.31351 0.76603 0.0
C518 C 0.14381 0.30671 0.71888 0.0
C519 C 0.15472 0.32466 0.68407 0.0
C520 C 0.17093 0.34903 0.69668 0.0
C521 C 0.17563 0.3553 0.74489 0.0
H522 H 0.64408 0.83385 0.6984 0.0
H523 H 0.57374 0.78756 0.76184 0.0
H524 H 0.59251 0.79571 0.84047 0.0
H525 H 0.6791 0.81847 0.77931 0.0
H526 H 0.70434 0.84898 0.78148 0.0
H527 H 0.68574 0.83837 0.72934 0.0
H528 H 0.67771 0.87431 0.73484 0.0
H529 H 0.69623 0.88498 0.78702 0.0
H530 H 0.66546 0.87891 0.78852 0.0
H531 H 0.61816 0.8091 0.91209 0.0
H532 H 0.64942 0.8285 0.9735 0.0
H533 H 0.70325 0.86755 0.86517 0.0
C534 C 0.63274 0.82526 0.72885 0.0
C535 C 0.60747 0.81005 0.72401 0.0
C536 C 0.59313 0.79938 0.76471 0.0
C537 C 0.60361 0.80379 0.80956 0.0
C538 C 0.62847 0.81906 0.81328 0.0
C539 C 0.6429 0.82975 0.77421 0.0
C540 C 0.66899 0.8464 0.78869 0.0
C541 C 0.68551 0.83752 0.76851 0.0
C542 C 0.67759 0.87271 0.77389 0.0
C543 C 0.66681 0.84344 0.84187 0.0
C544 C 0.64331 0.82739 0.85514 0.0
C545 C 0.63668 0.8217 0.90223 0.0
C546 C 0.65458 0.83282 0.93685 0.0
C547 C 0.67878 0.8496 0.92425 0.0
C548 C 0.6849 0.85488 0.87601 0.0
H549 H 0.13447 0.82374 0.93124 0.0
H550 H 0.10142 0.86282 0.87045 0.0
H551 H 0.11104 0.85489 0.79062 0.0
H552 H 0.18299 0.84245 0.84445 0.0
H553 H 0.18098 0.81322 0.84417 0.0
H554 H 0.17326 0.82374 0.89664 0.0
H555 H 0.13109 0.78481 0.89772 0.0
H556 H 0.13863 0.77426 0.84516 0.0
H557 H 0.11191 0.77707 0.8464 0.0
H558 H 0.12326 0.84167 0.71699 0.0
H559 H 0.136 0.82282 0.6555 0.0
H560 H 0.15928 0.79115 0.76493 0.0
C561 C 0.12961 0.83095 0.90116 0.0
C562 C 0.1173 0.84397 0.90704 0.0
C563 C 0.11084 0.85274 0.86675 0.0
C564 C 0.11629 0.84841 0.82125 0.0
C565 C 0.12809 0.83518 0.81659 0.0
C566 C 0.13464 0.82653 0.85543 0.0
C567 C 0.14595 0.81165 0.84069 0.0
C568 C 0.17236 0.82348 0.85748 0.0
C569 C 0.13099 0.78539 0.85855 0.0
C570 C 0.14443 0.81304 0.78761 0.0
C571 C 0.13438 0.82693 0.77429 0.0
C572 C 0.13118 0.83075 0.72696 0.0
C573 C 0.13844 0.81999 0.69232 0.0
C574 C 0.14841 0.80537 0.7054 0.0
C575 C 0.15146 0.802 0.75372 0.0
H576 H 0.32967 0.17387 0.26769 0.0
H577 H 0.40016 0.19835 0.20486 0.0
H578 H 0.38144 0.18708 0.12626 0.0
H579 H 0.29507 0.12285 0.18835 0.0
H580 H 0.26963 0.12774 0.18535 0.0
H581 H 0.28824 0.13626 0.23754 0.0
H582 H 0.29584 0.18006 0.2302 0.0
H583 H 0.2773 0.17168 0.17799 0.0
H584 H 0.30796 0.19661 0.17603 0.0
H585 H 0.35572 0.17399 0.0545 0.0
H586 H 0.32437 0.16145 -0.00704 0.0
H587 H 0.27053 0.14685 0.10091 0.0
C588 C 0.34106 0.17658 0.2374 0.0
C589 C 0.36635 0.18694 0.24239 0.0
C590 C 0.38075 0.19056 0.20186 0.0
C591 C 0.3703 0.18411 0.15704 0.0
C592 C 0.34541 0.17422 0.15315 0.0
C593 C 0.33093 0.17055 0.19206 0.0
C594 C 0.30481 0.16074 0.17744 0.0
C595 C 0.28848 0.13539 0.19842 0.0
C596 C 0.29597 0.17833 0.19123 0.0
C597 C 0.30701 0.15965 0.12437 0.0
C598 C 0.33056 0.16727 0.11125 0.0
C599 C 0.33717 0.16796 0.06425 0.0
C600 C 0.31923 0.16077 0.02956 0.0
C601 C 0.295 0.15324 0.04202 0.0
C602 C 0.2889 0.15262 0.09017 0.0
H603 H 0.83506 0.12183 0.10165 0.0
H604 H 0.83254 0.17074 -0.00238 0.0
H605 H 0.82324 0.19138 0.0605 0.0
H606 H 0.78604 0.11462 0.17002 0.0
H607 H 0.79911 0.11391 0.22601 0.0
H608 H 0.80749 0.10411 0.17349 0.0
H609 H 0.85265 0.13497 0.18959 0.0
H610 H 0.84438 0.14493 0.24219 0.0
H611 H 0.86208 0.16655 0.1971 0.0
H612 H 0.81067 0.20425 0.13216 0.0
H613 H 0.79585 0.20898 0.20936 0.0
H614 H 0.80782 0.15301 0.26845 0.0
C615 C 0.8328 0.13704 0.0921 0.0
C616 C 0.83453 0.14464 0.04461 0.0
C617 C 0.83134 0.16457 0.03368 0.0
C618 C 0.82613 0.17648 0.06916 0.0
C619 C 0.82438 0.16841 0.11545 0.0
C620 C 0.82771 0.14924 0.12713 0.0
C621 C 0.8237 0.14351 0.1794 0.0
C622 C 0.80284 0.1175 0.18769 0.0
C623 C 0.8471 0.14775 0.20349 0.0
C624 C 0.81697 0.16207 0.19502 0.0
C625 C 0.81762 0.17631 0.15748 0.0
C626 C 0.81045 0.19352 0.162 0.0
C627 C 0.80201 0.19601 0.20587 0.0
C628 C 0.80097 0.18151 0.24471 0.0
C629 C 0.80899 0.16466 0.23949 0.0
H630 H 0.86315 0.72007 0.1008 0.0
H631 H 0.81424 0.66766 -0.00142 0.0
H632 H 0.79532 0.63745 0.062 0.0
H633 H 0.87327 0.67951 0.16759 0.0
H634 H 0.87408 0.69294 0.22391 0.0
H635 H 0.88259 0.71122 0.1713 0.0
H636 H 0.85067 0.72382 0.18964 0.0
H637 H 0.84203 0.70555 0.24239 0.0
H638 H 0.81955 0.70076 0.19861 0.0
H639 H 0.7843 0.612 0.13373 0.0
H640 H 0.78104 0.5927 0.21088 0.0
H641 H 0.83585 0.6616 0.26823 0.0
C642 C 0.84828 0.70234 0.09178 0.0
C643 C 0.8402 0.69626 0.04463 0.0
C644 C 0.82076 0.67279 0.03438 0.0
C645 C 0.80983 0.6555 0.07017 0.0
C646 C 0.8184 0.66203 0.11607 0.0
C647 C 0.83707 0.68488 0.12712 0.0
C648 C 0.84352 0.6868 0.17905 0.0
C649 C 0.86993 0.69298 0.18583 0.0
C650 C 0.83864 0.70533 0.20388 0.0
C651 C 0.82594 0.66123 0.19517 0.0
C652 C 0.81159 0.64733 0.15817 0.0
C653 C 0.79515 0.62274 0.16316 0.0
C654 C 0.79352 0.61195 0.20699 0.0
C655 C 0.8081 0.62576 0.24534 0.0
C656 C 0.82421 0.6508 0.23962 0.0
H657 H 0.98271 0.5008 0.36221 0.0
H658 H 0.91436 0.4456 0.42071 0.0
H659 H 0.93385 0.44969 0.49792 0.0
H660 H 0.02266 0.48587 0.4334 0.0
H661 H 0.04526 0.51728 0.44092 0.0
H662 H 0.02686 0.50767 0.3884 0.0
H663 H 0.01354 0.53928 0.40455 0.0
H664 H 0.03171 0.54884 0.45722 0.0
H665 H -0.00012 0.53883 0.46041 0.0
H666 H 0.95931 0.46185 0.5697 0.0
H667 H -0.01065 0.48191 0.63285 0.0
H668 H 0.04121 0.5305 0.52941 0.0
C669 C 0.97211 0.48917 0.39105 0.0
C670 C 0.94715 0.47274 0.38566 0.0
C671 C 0.93356 0.45826 0.42432 0.0
C672 C 0.94447 0.46038 0.4682 0.0
C673 C 0.96895 0.47717 0.47289 0.0
C674 C 0.98268 0.49135 0.4355 0.0
C675 C 0.00809 0.50953 0.45141 0.0
C676 C 0.02682 0.50479 0.42708 0.0
C677 C 0.01361 0.53566 0.4429 0.0
C678 C 0.00626 0.50365 0.50361 0.0
C679 C 0.98362 0.48471 0.51503 0.0
C680 C 0.97721 0.47655 0.56122 0.0
C681 C -0.0056 0.48813 0.59686 0.0
C682 C 0.01767 0.5078 0.58619 0.0
C683 C 0.02364 0.51548 0.53878 0.0
H684 H 0.47526 0.47964 0.6049 0.0
H685 H 0.45551 0.52957 0.54232 0.0
H686 H 0.46941 0.52421 0.46481 0.0
H687 H 0.52902 0.49668 0.53042 0.0
H688 H 0.52283 0.4659 0.52581 0.0
H689 H 0.51372 0.47552 0.57774 0.0
H690 H 0.46961 0.44076 0.56568 0.0
H691 H 0.47854 0.43117 0.51357 0.0
H692 H 0.45463 0.43837 0.5103 0.0
H693 H 0.48258 0.51175 0.39371 0.0
H694 H 0.49472 0.49286 0.3321 0.0
H695 H 0.50525 0.45 0.43911 0.0
C696 C 0.47439 0.48979 0.575 0.0
C697 C 0.46441 0.50507 0.5795 0.0
C698 C 0.46304 0.5177 0.53951 0.0
C699 C 0.47096 0.51487 0.49538 0.0
C700 C 0.48014 0.49924 0.49171 0.0
C701 C 0.48198 0.48692 0.53029 0.0
C702 C 0.49108 0.47003 0.51565 0.0
C703 C 0.51563 0.47749 0.53878 0.0
C704 C 0.47234 0.44352 0.52697 0.0
C705 C 0.49365 0.47458 0.46288 0.0
C706 C 0.48744 0.49166 0.45003 0.0
C707 C 0.48769 0.49848 0.40326 0.0
C708 C 0.49456 0.48757 0.36852 0.0
C709 C 0.50095 0.46993 0.38067 0.0
C710 C 0.50052 0.46344 0.42861 0.0
H711 H 0.46985 0.94049 0.53489 0.0
H712 H 0.49704 -0.00514 0.64541 0.0
H713 H 0.51355 0.0271 0.58457 0.0
H714 H 0.51943 0.97075 0.45635 0.0
H715 H 0.50095 0.9613 0.40394 0.0
H716 H 0.49094 0.94272 0.45617 0.0
H717 H 0.45095 0.94391 0.45495 0.0
H718 H 0.46083 0.96252 0.40271 0.0
H719 H 0.45209 0.97274 0.4543 0.0
H720 H 0.52847 0.05308 0.51166 0.0
H721 H 0.53981 0.07122 0.43237 0.0
H722 H 0.5016 -0.00045 0.36977 0.0
C723 C 0.47927 0.95916 0.54651 0.0
C724 C 0.48228 0.96517 0.59499 0.0
C725 C 0.49454 0.98985 0.6085 0.0
C726 C 0.50396 0.00825 0.57422 0.0
C727 C 0.50072 0.0016 0.52676 0.0
C728 C 0.48855 0.97765 0.51294 0.0
C729 C 0.48756 0.97524 0.45976 0.0
C730 C 0.5005 0.96171 0.44309 0.0
C731 C 0.46129 0.96287 0.44189 0.0
C732 C 0.50137 0.00164 0.44563 0.0
C733 C 0.50883 0.01654 0.4848 0.0
C734 C 0.52259 0.04161 0.48076 0.0
C735 C 0.52899 0.05171 0.43552 0.0
C736 C 0.52153 0.03678 0.39483 0.0
C737 C 0.50736 0.01143 0.40012 0.0
H738 H 0.15689 0.2049 0.03541 0.0
H739 H 0.21628 0.27917 0.03729 0.0
H740 H 0.2419 0.26665 -0.00546 0.0
H741 H 0.19339 0.17571 0.0492 0.0
H742 H 0.17451 0.15128 0.00985 0.0
H743 H 0.16167 0.16595 0.0437 0.0
H744 H 0.14581 0.1751 0.96656 0.0
H745 H 0.15892 0.1608 0.93241 0.0
H746 H 0.16679 0.19162 0.91979 0.0
H747 H 0.26043 0.24627 0.94828 0.0
H748 H 0.2712 0.21905 0.90625 0.0
H749 H 0.19912 0.15855 0.93252 0.0
C750 C 0.17542 0.21847 0.02766 0.0
C751 C 0.18462 0.24301 0.03983 0.0
C752 C 0.20888 0.26025 0.02843 0.0
C753 C 0.22354 0.25333 0.00402 0.0
C754 C 0.21366 0.22912 -0.00882 0.0
C755 C 0.19022 0.21192 0.00296 0.0
C756 C 0.18369 0.18726 -0.01628 0.0
C757 C 0.17799 0.16898 0.02402 0.0
C758 C 0.16255 0.17817 0.94853 0.0
C759 C 0.20707 0.1933 0.95911 0.0
C760 C 0.22415 0.21752 0.96386 0.0
C761 C 0.24721 0.22726 0.94441 0.0
C762 C 0.25313 0.21169 0.92042 0.0
C763 C 0.23601 0.1867 0.91597 0.0
C764 C 0.21258 0.17759 0.935 0.0
H765 H 0.82094 0.03942 0.93093 0.0
H766 H 0.76209 0.05463 0.91725 0.0
H767 H 0.73525 0.01705 0.96126 0.0
H768 H 0.78464 0.97399 0.91935 0.0
H769 H 0.80236 0.9686 0.96214 0.0
H770 H 0.81622 -0.00407 0.92736 0.0
H771 H 0.83014 0.02141 0.00404 0.0
H772 H 0.81601 -0.00583 0.03907 0.0
H773 H 0.808 0.01726 0.04794 0.0
H774 H 0.71526 0.97826 0.00938 0.0
H775 H 0.70317 0.94026 0.05321 0.0
H776 H 0.77572 0.95166 0.03671 0.0
C777 C 0.80231 0.0347 0.9365 0.0
C778 C 0.79359 0.04994 0.92052 0.0
C779 C 0.76914 0.04319 0.92902 0.0
C780 C 0.75379 0.02194 0.95415 0.0
C781 C 0.76319 0.00768 0.97055 0.0
C782 C 0.78683 0.0137 0.96171 0.0
C783 C 0.79271 -0.00436 -0.01614 0.0
C784 C 0.79937 0.98277 0.94591 0.0
C785 C 0.81291 0.00785 0.02093 0.0
C786 C 0.7687 0.9785 0.00667 0.0
C787 C 0.75187 0.98571 -0.00134 0.0
C788 C 0.7283 0.97245 0.01584 0.0
C789 C 0.72163 0.95096 0.04087 0.0
C790 C 0.7385 0.94301 0.04851 0.0
C791 C 0.76242 0.95728 0.03179 0.0
H792 H 0.94219 0.78731 0.93711 0.0
H793 H 0.92917 0.71452 0.91307 0.0
H794 H 0.96598 0.72428 0.9586 0.0
H795 H 0.00764 0.81805 0.92947 0.0
H796 H 0.01191 0.83932 0.9754 0.0
H797 H 0.98511 0.82673 0.93927 0.0
H798 H 0.95859 0.81176 0.01457 0.0
H799 H 0.98532 0.82397 0.05089 0.0
H800 H 0.96262 0.79241 0.05563 0.0
H801 H 0.00376 0.74174 0.00788 0.0
H802 H 0.04147 0.7666 0.05263 0.0
H803 H 0.02884 0.82744 0.04691 0.0
C804 C 0.94724 0.77351 0.94083 0.0
C805 C 0.93283 0.75015 0.92144 0.0
C806 C 0.93997 0.73255 0.92752 0.0
C807 C 0.96078 0.73788 0.95351 0.0
C808 C 0.97417 0.76086 0.97329 0.0
C809 C 0.96782 0.77845 0.96694 0.0
C810 C 0.9852 0.80165 -0.00777 0.0
C811 C -0.00176 0.82267 0.95699 0.0
C812 C 0.97214 0.8078 0.0306 0.0
C813 C 0.00239 0.79439 0.01366 0.0
C814 C -0.00432 0.77077 0.00239 0.0
C815 C 0.00917 0.76024 0.017 0.0
C816 C 0.0305 0.77447 0.04257 0.0
C817 C 0.03809 0.79894 0.05333 0.0
C818 C 0.02346 0.80876 0.03962 0.0
H819 H 0.85751 0.82098 0.95006 0.0
H820 H 0.79855 0.74702 0.93596 0.0
H821 H 0.76968 0.7597 0.96272 0.0
H822 H 0.83736 0.83614 0.05269 0.0
H823 H 0.8464 0.86663 0.03454 0.0
H824 H 0.86232 0.85204 0.0125 0.0
H825 H 0.85387 0.85946 0.92636 0.0
H826 H 0.83844 0.87461 0.94812 0.0
H827 H 0.82321 0.84943 0.90818 0.0
H828 H 0.74799 0.78011 -0.00155 0.0
H829 H 0.73395 0.80792 0.0255 0.0
H830 H 0.80691 0.86865 0.01126 0.0
C831 C 0.83845 0.80754 0.9518 0.0
C832 C 0.83021 0.78304 0.94095 0.0
C833 C 0.80517 0.76595 0.94362 0.0
C834 C 0.7887 0.77293 0.95927 0.0
C835 C 0.79757 0.79712 0.97127 0.0
C836 C 0.82177 0.81427 0.96646 0.0
C837 C 0.82665 0.83919 0.98053 0.0
C838 C 0.84422 0.84907 0.02256 0.0
C839 C 0.83609 0.8567 0.93828 0.0
C840 C 0.80147 0.83337 -0.00541 0.0
C841 C 0.78498 0.80896 -0.01024 0.0
C842 C 0.7607 0.79929 0.0019 0.0
C843 C 0.75294 0.81515 0.01771 0.0
C844 C 0.76937 0.84037 0.02042 0.0
C845 C 0.79397 0.84943 0.00944 0.0
H846 H 0.11617 0.94807 0.03562 0.0
H847 H 0.17195 0.92825 0.02775 0.0
H848 H 0.20073 0.96909 -0.00287 0.0
H849 H 0.13082 0.98215 0.93123 0.0
H850 H 0.125 0.00508 0.95414 0.0
H851 H 0.10916 0.97485 0.97802 0.0
H852 H 0.12431 0.99146 0.06213 0.0
H853 H 0.13971 0.0218 0.03868 0.0
H854 H 0.15626 0.01084 0.07241 0.0
H855 H 0.2223 0.01122 0.96045 0.0
H856 H 0.23677 0.05327 0.93342 0.0
H857 H 0.16697 0.04524 0.96815 0.0
C858 C 0.13456 0.95244 0.02829 0.0
C859 C 0.14181 0.93498 0.0341 0.0
C860 C 0.16605 0.94142 0.02403 0.0
C861 C 0.18246 0.96449 0.00618 0.0
C862 C 0.17442 0.98097 -0.00079 0.0
C863 C 0.15119 0.97539 0.01101 0.0
C864 C 0.147 -0.00372 0.00058 0.0
C865 C 0.1268 0.98915 0.9638 0.0
C866 C 0.14151 0.00565 0.04616 0.0
C867 C 0.17141 0.01443 0.98058 0.0
C868 C 0.18694 0.00523 0.9795 0.0
C869 C 0.21035 0.01867 0.96153 0.0
C870 C 0.21833 0.04243 0.94581 0.0
C871 C 0.203 0.05249 0.94875 0.0
C872 C 0.17913 0.03806 0.96559 0.0
H873 H 0.93753 0.12157 0.96138 0.0
H874 H 0.92809 0.18289 0.92905 0.0
H875 H 0.97008 0.21083 0.95517 0.0
H876 H 0.9723 0.14494 0.06464 0.0
H877 H -0.00797 0.13293 0.05317 0.0
H878 H 0.96166 0.11776 0.03015 0.0
H879 H 0.97794 0.12071 0.94527 0.0
H880 H 0.00832 0.13535 0.96816 0.0
H881 H 0.00036 0.1498 0.92239 0.0
H882 H 0.01219 0.23179 -0.00895 0.0
H883 H 0.05332 0.24447 0.02043 0.0
H884 H 0.03521 0.1692 0.02621 0.0
C885 C 0.94441 0.14089 0.95908 0.0
C886 C 0.92957 0.15009 0.9432 0.0
C887 C 0.93923 0.17547 0.94065 0.0
C888 C 0.96296 0.19146 0.95588 0.0
C889 C 0.97681 0.18172 0.97294 0.0
C890 C 0.96806 0.15704 0.97352 0.0
C891 C -0.01333 0.15113 -0.00742 0.0
C892 C 0.97761 0.13578 0.03782 0.0
C893 C -0.00625 0.13851 0.95485 0.0
C894 C 0.00727 0.17634 0.00302 0.0
C895 C 0.00115 0.19375 -0.0079 0.0
C896 C 0.01723 0.21832 -0.00062 0.0
C897 C 0.04047 0.22533 0.01656 0.0
C898 C 0.04747 0.20782 0.02564 0.0
C899 C 0.0304 0.18301 0.01964 0.0
H900 H 0.82694 0.54327 0.37144 0.0
H901 H 0.88823 0.61622 0.38283 0.0
H902 H 0.91354 0.60351 0.33928 0.0
H903 H 0.86042 0.51119 0.38292 0.0
H904 H 0.84175 0.48843 0.34045 0.0
H905 H 0.82922 0.50309 0.37527 0.0
H906 H 0.81615 0.51576 0.29865 0.0
H907 H 0.82895 0.50146 0.26358 0.0
H908 H 0.83853 0.53298 0.25441 0.0
H909 H 0.93172 0.58292 0.29213 0.0
H910 H 0.94186 0.55562 0.2486 0.0
H911 H 0.86794 0.49687 0.26537 0.0
C912 C 0.84578 0.55652 0.36549 0.0
C913 C 0.85564 0.58074 0.38068 0.0
C914 C 0.88032 0.59755 0.37167 0.0
C915 C 0.8948 0.59052 0.34681 0.0
C916 C 0.88428 0.56666 0.33106 0.0
C917 C 0.86037 0.5499 0.34033 0.0
C918 C 0.85318 0.5256 0.31839 0.0
C919 C 0.84571 0.50592 0.35653 0.0
C920 C 0.83301 0.51855 0.28157 0.0
C921 C 0.87679 0.53128 0.29529 0.0
C922 C 0.89453 0.55503 0.30304 0.0
C923 C 0.91796 0.56429 0.28583 0.0
C924 C 0.92352 0.54868 0.26099 0.0
C925 C 0.90569 0.52415 0.25342 0.0
C926 C 0.88193 0.51556 0.27017 0.0
H927 H 0.44361 0.36608 0.26171 0.0
H928 H 0.5173 0.37928 0.26839 0.0
H929 H 0.50409 0.34414 0.32013 0.0
H930 H 0.42552 0.34416 0.37971 0.0
H931 H 0.39571 0.32005 0.36429 0.0
H932 H 0.41042 0.34695 0.32827 0.0
H933 H 0.40542 0.32099 0.25445 0.0
H934 H 0.39023 0.294 0.29005 0.0
H935 H 0.41643 0.29989 0.25598 0.0
H936 H 0.48469 0.3105 0.37568 0.0
H937 H 0.45796 0.27251 0.4169 0.0
H938 H 0.39526 0.27642 0.36899 0.0
C939 C 0.45685 0.36138 0.27373 0.0
C940 C 0.48162 0.37586 0.26172 0.0
C941 C 0.49832 0.36883 0.27753 0.0
C942 C 0.49105 0.34893 0.30729 0.0
C943 C 0.46685 0.33569 0.32004 0.0
C944 C 0.44976 0.34093 0.30263 0.0
C945 C 0.4246 0.32222 0.31949 0.0
C946 C 0.41341 0.33406 0.34974 0.0
C947 C 0.4082 0.30846 0.27749 0.0
C948 C 0.43047 0.30589 0.34917 0.0
C949 C 0.45508 0.31456 0.34973 0.0
C950 C 0.46532 0.30324 0.37503 0.0
C951 C 0.44993 0.2817 0.39856 0.0
C952 C 0.42447 0.27125 0.39573 0.0
C953 C 0.41463 0.28394 0.37185 0.0
H954 H 0.61072 0.11077 0.25547 0.0
H955 H 0.59916 0.03772 0.24856 0.0
H956 H 0.63741 0.05106 0.2918 0.0
H957 H 0.67662 0.14287 0.24409 0.0
H958 H 0.68071 0.16607 0.28536 0.0
H959 H 0.65355 0.1511 0.25034 0.0
H960 H 0.62781 0.1393 0.32666 0.0
H961 H 0.65488 0.15389 0.36196 0.0
H962 H 0.63289 0.12248 0.37208 0.0
H963 H 0.67592 0.07193 0.33903 0.0
H964 H 0.71317 0.09943 0.38295 0.0
H965 H 0.69837 0.15828 0.36213 0.0
C966 C 0.61642 0.09766 0.26225 0.0
C967 C 0.60197 0.0732 0.24853 0.0
C968 C 0.60999 0.05657 0.2586 0.0
C969 C 0.63163 0.06395 0.2833 0.0
C970 C 0.64499 0.08799 0.29781 0.0
C971 C 0.63781 0.10465 0.28736 0.0
C972 C 0.65495 0.12916 0.30857 0.0
C973 C 0.66718 0.14844 0.26977 0.0
C974 C 0.64184 0.13664 0.34444 0.0
C975 C 0.67285 0.12368 0.33272 0.0
C976 C 0.66683 0.09985 0.32599 0.0
C977 C 0.68084 0.09064 0.34448 0.0
C978 C 0.70189 0.10636 0.36954 0.0
C979 C 0.70865 0.13097 0.3761 0.0
C980 C 0.69363 0.13953 0.35807 0.0
H981 H 0.52521 0.14234 0.28225 0.0
H982 H 0.46609 0.06947 0.25631 0.0
H983 H 0.43697 0.08174 0.28387 0.0
H984 H 0.50265 0.15194 0.38793 0.0
H985 H 0.51317 0.18348 0.37636 0.0
H986 H 0.52898 0.16933 0.35165 0.0
H987 H 0.52376 0.18208 0.26741 0.0
H988 H 0.50846 0.19677 0.29197 0.0
H989 H 0.49396 0.17413 0.24681 0.0
H990 H 0.41454 0.10235 0.31916 0.0
H991 H 0.40116 0.13023 0.34971 0.0
H992 H 0.4759 0.18835 0.35321 0.0
C993 C 0.50613 0.12896 0.28159 0.0
C994 C 0.49797 0.10494 0.26702 0.0
C995 C 0.47279 0.08806 0.26692 0.0
C996 C 0.45613 0.09481 0.28291 0.0
C997 C 0.46497 0.11848 0.29872 0.0
C998 C 0.4894 0.13532 0.29746 0.0
C999 C 0.49461 0.15951 0.31665 0.0
C1000 C 0.51081 0.16646 0.36076 0.0
C1001 C 0.50585 0.17928 0.27843 0.0
C1002 C 0.46931 0.15378 0.32904 0.0
C1003 C 0.45234 0.13005 0.31881 0.0
C1004 C 0.42772 0.12097 0.32718 0.0
C1005 C 0.42029 0.13685 0.34495 0.0
C1006 C 0.43747 0.16145 0.35384 0.0
C1007 C 0.46227 0.16966 0.34673 0.0
H1008 H 0.78025 0.27867 0.34735 0.0
H1009 H 0.83983 0.2645 0.35987 0.0
H1010 H 0.86816 0.30618 0.33251 0.0
H1011 H 0.7996 0.31359 0.2434 0.0
H1012 H 0.79016 0.33471 0.26117 0.0
H1013 H 0.77472 0.30422 0.28384 0.0
H1014 H 0.78325 0.32041 0.36962 0.0
H1015 H 0.79825 0.35095 0.34722 0.0
H1016 H 0.81388 0.34146 0.38733 0.0
H1017 H 0.8894 0.34863 0.29775 0.0
H1018 H 0.90282 0.39031 0.27026 0.0
H1019 H 0.82925 0.37653 0.28299 0.0
C1020 C 0.79931 0.28442 0.34505 0.0
C1021 C 0.80783 0.26833 0.35575 0.0
C1022 C 0.83292 0.27658 0.35228 0.0
C1023 C 0.84911 0.30015 0.33635 0.0
C1024 C 0.83994 0.31527 0.32458 0.0
C1025 C 0.8157 0.30787 0.32973 0.0
C1026 C 0.8104 0.32762 0.31526 0.0
C1027 C 0.79267 0.31954 0.27343 0.0
C1028 C 0.80089 0.33558 0.35737 0.0
C1029 C 0.83541 0.34725 0.30074 0.0
C1030 C 0.85219 0.33974 0.30585 0.0
C1031 C 0.87644 0.35475 0.29396 0.0
C1032 C 0.88385 0.37832 0.27794 0.0
C1033 C 0.86709 0.38669 0.27447 0.0
C1034 C 0.84251 0.3707 0.28528 0.0
H1035 H 0.61411 0.46234 0.27742 0.0
H1036 H 0.59819 0.52087 0.27222 0.0
H1037 H 0.64042 0.54982 0.29669 0.0
H1038 H 0.64869 0.48006 0.37862 0.0
H1039 H 0.67016 0.47137 0.3594 0.0
H1040 H 0.63985 0.45604 0.33626 0.0
H1041 H 0.65622 0.46654 0.25072 0.0
H1042 H 0.68664 0.48131 0.27349 0.0
H1043 H 0.67712 0.4976 0.2352 0.0
H1044 H 0.68357 0.57116 0.33081 0.0
H1045 H 0.7249 0.58392 0.35974 0.0
H1046 H 0.71103 0.51049 0.34154 0.0
C1047 C 0.61969 0.48137 0.2802 0.0
C1048 C 0.60306 0.48949 0.27279 0.0
C1049 C 0.61087 0.51444 0.27706 0.0
C1050 C 0.6347 0.5309 0.29141 0.0
C1051 C 0.65036 0.52202 0.30061 0.0
C1052 C 0.64324 0.49789 0.29406 0.0
C1053 C 0.66298 0.49249 0.30736 0.0
C1054 C 0.65492 0.4739 0.34781 0.0
C1055 C 0.67123 0.484 0.26412 0.0
C1056 C 0.6823 0.51725 0.32344 0.0
C1057 C 0.6748 0.53412 0.31954 0.0
C1058 C 0.68965 0.55811 0.3335 0.0
C1059 C 0.713 0.56513 0.35036 0.0
C1060 C 0.72121 0.5482 0.35289 0.0
C1061 C 0.70538 0.52391 0.33995 0.0
H1062 H 0.57762 0.86779 0.60288 0.0
H1063 H 0.51621 0.80523 0.5395 0.0
H1064 H 0.48857 0.81627 0.57757 0.0
H1065 H 0.55152 0.86487 0.71191 0.0
H1066 H 0.56377 0.89696 0.71979 0.0
H1067 H 0.57964 0.88611 0.68403 0.0
H1068 H 0.57916 0.91154 0.61307 0.0
H1069 H 0.5638 0.92296 0.64895 0.0
H1070 H 0.55082 0.90839 0.59355 0.0
H1071 H 0.46747 0.82965 0.63084 0.0
H1072 H 0.45324 0.84997 0.68434 0.0
H1073 H 0.52753 0.90639 0.71017 0.0
C1074 C 0.55842 0.85689 0.59585 0.0
C1075 C 0.54906 0.83554 0.56839 0.0
C1076 C 0.52379 0.82159 0.56049 0.0
C1077 C 0.50791 0.82764 0.58213 0.0
C1078 C 0.51756 0.84798 0.61092 0.0
C1079 C 0.54219 0.86287 0.61684 0.0
C1080 C 0.54745 0.88349 0.65043 0.0
C1081 C 0.56143 0.8828 0.69412 0.0
C1082 C 0.56112 0.90805 0.62497 0.0
C1083 C 0.52191 0.87736 0.66322 0.0
C1084 C 0.50508 0.85661 0.64026 0.0
C1085 C 0.4804 0.84627 0.64815 0.0
C1086 C 0.47253 0.85793 0.67895 0.0
C1087 C 0.48922 0.88005 0.70093 0.0
C1088 C 0.51432 0.88966 0.69354 0.0
H1089 H 0.15422 0.70395 0.60441 0.0
H1090 H 0.09173 0.71178 0.5746 0.0
H1091 H 0.06548 0.67309 0.61563 0.0
H1092 H 0.12379 0.63854 0.58957 0.0
H1093 H 0.1405 0.63458 0.63671 0.0
H1094 H 0.15401 0.66237 0.60335 0.0
H1095 H 0.16175 0.68661 0.68091 0.0
H1096 H 0.14794 0.65887 0.71446 0.0
H1097 H 0.13674 0.67971 0.71962 0.0
H1098 H 0.04633 0.63438 0.66287 0.0
H1099 H 0.03514 0.59671 0.7068 0.0
H1100 H 0.11023 0.61436 0.7057 0.0
C1101 C 0.13497 0.69739 0.60591 0.0
C1102 C 0.12502 0.7109 0.58626 0.0
C1103 C 0.09975 0.70172 0.58927 0.0
C1104 C 0.08471 0.67982 0.6127 0.0
C1105 C 0.09521 0.66729 0.63277 0.0
C1106 C 0.11971 0.67559 0.62913 0.0
C1107 C 0.12649 0.65876 0.65395 0.0
C1108 C 0.1368 0.64792 0.61879 0.0
C1109 C 0.14428 0.67177 0.69465 0.0
C1110 C 0.10199 0.63972 0.67226 0.0
C1111 C 0.08419 0.64502 0.65985 0.0
C1112 C 0.0601 0.63001 0.67266 0.0
C1113 C 0.05394 0.6087 0.6978 0.0
C1114 C 0.0718 0.60258 0.70974 0.0
C1115 C 0.09617 0.61857 0.69736 0.0
H1116 H 0.36395 0.48697 0.70705 0.0
H1117 H 0.37741 0.42663 0.70925 0.0
H1118 H 0.33991 0.40204 0.66354 0.0
H1119 H 0.29822 0.45129 0.71647 0.0
H1120 H 0.2937 0.47095 0.67716 0.0
H1121 H 0.32068 0.48298 0.71269 0.0
H1122 H 0.34684 0.49943 0.63719 0.0
H1123 H 0.31995 0.48714 0.60137 0.0
H1124 H 0.34264 0.47887 0.58984 0.0
H1125 H 0.30181 0.38471 0.61438 0.0
H1126 H 0.26465 0.37511 0.57013 0.0
H1127 H 0.27707 0.44732 0.59867 0.0
C1128 C 0.35884 0.46845 0.69866 0.0
C1129 C 0.37359 0.45869 0.71184 0.0
C1130 C 0.36634 0.43445 0.69968 0.0
C1131 C 0.34513 0.42039 0.67356 0.0
C1132 C 0.33141 0.43084 0.65988 0.0
C1133 C 0.33786 0.45424 0.67239 0.0
C1134 C 0.32036 0.46145 0.65232 0.0
C1135 C 0.30747 0.46699 0.69202 0.0
C1136 C 0.33322 0.48299 0.61815 0.0
C1137 C 0.30308 0.43847 0.62638 0.0
C1138 C 0.30974 0.42101 0.63114 0.0
C1139 C 0.29639 0.39823 0.61051 0.0
C1140 C 0.27538 0.39298 0.58527 0.0
C1141 C 0.26798 0.41046 0.58082 0.0
C1142 C 0.2823 0.4336 0.60112 0.0
H1143 H 0.19235 0.47904 0.6199 0.0
H1144 H 0.13278 0.40529 0.6078 0.0
H1145 H 0.10446 0.41852 0.63562 0.0
H1146 H 0.17329 0.49533 0.72314 0.0
H1147 H 0.18254 0.52574 0.7041 0.0
H1148 H 0.198 0.51065 0.68221 0.0
H1149 H 0.1891 0.51754 0.59603 0.0
H1150 H 0.17411 0.53315 0.61763 0.0
H1151 H 0.15838 0.50768 0.57852 0.0
H1152 H 0.08339 0.43965 0.6712 0.0
H1153 H 0.06991 0.46805 0.69717 0.0
H1154 H 0.14312 0.52811 0.68098 0.0
C1155 C 0.17328 0.46575 0.62247 0.0
C1156 C 0.16468 0.44116 0.61178 0.0
C1157 C 0.13964 0.42427 0.61539 0.0
C1158 C 0.1235 0.43157 0.63162 0.0
C1159 C 0.13271 0.45588 0.64326 0.0
C1160 C 0.15692 0.4728 0.63767 0.0
C1161 C 0.16218 0.49792 0.65106 0.0
C1162 C 0.18006 0.50799 0.69259 0.0
C1163 C 0.17148 0.51508 0.60826 0.0
C1164 C 0.13719 0.49251 0.66562 0.0
C1165 C 0.12048 0.46811 0.66164 0.0
C1166 C 0.09629 0.45882 0.67405 0.0
C1167 C 0.08885 0.47503 0.68924 0.0
C1168 C 0.1055 0.50023 0.69109 0.0
C1169 C 0.13002 0.50892 0.6799 0.0
H1170 H 0.44913 0.60416 0.67982 0.0
H1171 H 0.50851 0.59047 0.70221 0.0
H1172 H 0.53745 0.63236 0.67624 0.0
H1173 H 0.47126 0.6384 0.57585 0.0
H1174 H 0.46073 0.65911 0.58996 0.0
H1175 H 0.44507 0.62869 0.61287 0.0
H1176 H 0.45058 0.64509 0.69832 0.0
H1177 H 0.46579 0.67556 0.67559 0.0
H1178 H 0.48046 0.66662 0.71912 0.0
H1179 H 0.55963 0.67588 0.64284 0.0
H1180 H 0.57283 0.71757 0.61445 0.0
H1181 H 0.49807 0.70083 0.61414 0.0
C1182 C 0.46824 0.60998 0.67993 0.0
C1183 C 0.47654 0.59402 0.69307 0.0
C1184 C 0.50174 0.60245 0.69267 0.0
C1185 C 0.51829 0.62615 0.67759 0.0
C1186 C 0.50932 0.64114 0.66333 0.0
C1187 C 0.48487 0.63339 0.66514 0.0
C1188 C 0.47956 0.65269 0.64799 0.0
C1189 C 0.46319 0.6442 0.60406 0.0
C1190 C 0.46846 0.66045 0.68762 0.0
C1191 C 0.5048 0.67255 0.6359 0.0
C1192 C 0.52183 0.66569 0.64463 0.0
C1193 C 0.54641 0.68142 0.63605 0.0
C1194 C 0.55373 0.70497 0.61953 0.0
C1195 C 0.53649 0.71245 0.61213 0.0
C1196 C 0.51174 0.69574 0.61955 0.0
H1197 H 0.26801 0.82309 0.57259 0.0
H1198 H 0.24044 0.82669 0.70986 0.0
H1199 H 0.28203 0.85485 0.73741 0.0
H1200 H 0.31582 0.81845 0.6151 0.0
H1201 H 0.33705 0.83602 0.56942 0.0
H1202 H 0.30515 0.82054 0.5573 0.0
H1203 H 0.30833 0.86099 0.5308 0.0
H1204 H 0.34037 0.87663 0.54272 0.0
H1205 H 0.32142 0.88661 0.57012 0.0
H1206 H 0.32665 0.87848 0.75302 0.0
H1207 H 0.37069 0.89345 0.75661 0.0
H1208 H 0.369 0.8727 0.61043 0.0
C1209 C 0.27082 0.83057 0.6078 0.0
C1210 C 0.25126 0.82328 0.63898 0.0
C1211 C 0.25539 0.83249 0.68548 0.0
C1212 C 0.27888 0.84852 0.70132 0.0
C1213 C 0.29802 0.85498 0.67024 0.0
C1214 C 0.29426 0.84628 0.62443 0.0
C1215 C 0.31798 0.8533 0.6003 0.0
C1216 C 0.31905 0.83074 0.58465 0.0
C1217 C 0.32228 0.8704 0.55851 0.0
C1218 C 0.3355 0.86642 0.64018 0.0
C1219 C 0.32375 0.86777 0.67987 0.0
C1220 C 0.33612 0.87784 0.72194 0.0
C1221 C 0.3611 0.8863 0.72372 0.0
C1222 C 0.37318 0.88412 0.68393 0.0
C1223 C 0.36023 0.87457 0.64149 0.0
loop_
_geom_bond_atom_site_label_1
_geom_bond_atom_site_label_2
_geom_bond_distance
_geom_bond_site_symmetry_2
_ccdc_geom_bond_type
C0 O1 1.306 . S
C0 O3 1.160 . S
O1 C0 1.306 . S
O1 Cd2 2.228 1_554 S
Cd2 O1 2.228 1_556 S
Cd2 O6 2.273 1_556 S
Cd2 O10 2.277 . S
O3 C0 1.160 . S
O3 Cd4 2.203 . S
Cd4 O3 2.203 . S
Cd4 O6 2.411 . S
Cd4 O7 2.333 . S
Cd4 O8 2.352 . S
Cd4 O12 2.277 . S
Cd4 O13 2.356 . S
C5 O10 1.209 . S
C5 O12 1.226 1_556 S
O6 Cd2 2.273 1_554 S
O6 Cd4 2.411 . S
O6 C9 1.320 . S
O7 Cd4 2.333 . S
O7 C9 1.214 . S
O8 Cd4 2.352 . S
O8 C11 1.258 . S
C9 O6 1.320 . S
C9 O7 1.214 . S
O10 Cd2 2.277 . S
O10 C5 1.209 . S
C11 O8 1.258 . S
C11 O13 1.282 . S
O12 Cd4 2.277 . S
O12 C5 1.226 1_554 S
O13 Cd4 2.356 . S
O13 C11 1.282 . S
C14 O15 1.306 . S
C14 O17 1.160 . S
O15 C14 1.306 . S
O15 Cd16 2.228 1_554 S
Cd16 O15 2.228 1_556 S
Cd16 O20 2.273 1_556 S
Cd16 O24 2.277 . S
O17 C14 1.160 . S
O17 Cd18 2.203 . S
Cd18 O17 2.203 . S
Cd18 O20 2.411 . S
Cd18 O21 2.333 . S
Cd18 O22 2.352 . S
Cd18 O26 2.277 . S
Cd18 O27 2.356 . S
C19 O24 1.209 . S
C19 O26 1.226 1_556 S
O20 Cd16 2.273 1_554 S
O20 Cd18 2.411 . S
O20 C23 1.320 . S
O21 Cd18 2.333 . S
O21 C23 1.214 . S
O22 Cd18 2.352 . S
O22 C25 1.258 . S
C23 O20 1.320 . S
C23 O21 1.214 . S
O24 Cd16 2.277 . S
O24 C19 1.209 . S
C25 O22 1.258 . S
C25 O27 1.282 . S
O26 Cd18 2.277 . S
O26 C19 1.226 1_554 S
O27 Cd18 2.356 . S
O27 C25 1.282 . S
C28 O29 1.306 . S
C28 O31 1.160 . S
O29 C28 1.306 . S
O29 Cd30 2.228 1_554 S
Cd30 O29 2.228 1_556 S
Cd30 O34 2.273 1_556 S
Cd30 O38 2.277 . S
O31 C28 1.160 . S
O31 Cd32 2.203 . S
Cd32 O31 2.203 . S
Cd32 O34 2.411 . S
Cd32 O35 2.333 . S
Cd32 O36 2.352 . S
Cd32 O40 2.277 . S
Cd32 O41 2.356 . S
C33 O38 1.209 . S
C33 O40 1.226 1_556 S
O34 Cd30 2.273 1_554 S
O34 Cd32 2.411 . S
O34 C37 1.320 . S
O35 Cd32 2.333 . S
O35 C37 1.214 . S
O36 Cd32 2.352 . S
O36 C39 1.258 . S
C37 O34 1.320 . S
C37 O35 1.214 . S
O38 Cd30 2.277 . S
O38 C33 1.209 . S
C39 O36 1.258 . S
C39 O41 1.282 . S
O40 Cd32 2.277 . S
O40 C33 1.226 1_554 S
O41 Cd32 2.356 . S
O41 C39 1.282 . S
C42 O43 1.306 . S
C42 O45 1.160 . S
O43 C42 1.306 . S
O43 Cd44 2.228 1_556 S
Cd44 O43 2.228 1_554 S
Cd44 O48 2.273 1_554 S
Cd44 O52 2.277 . S
O45 C42 1.160 . S
O45 Cd46 2.203 . S
Cd46 O45 2.203 . S
Cd46 O48 2.411 . S
Cd46 O49 2.333 . S
Cd46 O50 2.352 . S
Cd46 O54 2.277 . S
Cd46 O55 2.356 . S
C47 O52 1.209 . S
C47 O54 1.226 1_554 S
O48 Cd44 2.273 1_556 S
O48 Cd46 2.411 . S
O48 C51 1.320 . S
O49 Cd46 2.333 . S
O49 C51 1.214 . S
O50 Cd46 2.352 . S
O50 C53 1.258 . S
C51 O48 1.320 . S
C51 O49 1.214 . S
O52 Cd44 2.277 . S
O52 C47 1.209 . S
C53 O50 1.258 . S
C53 O55 1.282 . S
O54 Cd46 2.277 . S
O54 C47 1.226 1_556 S
O55 Cd46 2.356 . S
O55 C53 1.282 . S
C56 O57 1.306 . S
C56 O59 1.160 . S
O57 C56 1.306 . S
O57 Cd58 2.228 1_556 S
Cd58 O57 2.228 1_554 S
Cd58 O62 2.273 1_554 S
Cd58 O66 2.277 . S
O59 C56 1.160 . S
O59 Cd60 2.203 . S
Cd60 O59 2.203 . S
Cd60 O62 2.411 . S
Cd60 O63 2.333 . S
Cd60 O64 2.352 . S
Cd60 O68 2.277 . S
Cd60 O69 2.356 . S
C61 O66 1.209 . S
C61 O68 1.226 1_554 S
O62 Cd58 2.273 1_556 S
O62 Cd60 2.411 . S
O62 C65 1.320 . S
O63 Cd60 2.333 . S
O63 C65 1.214 . S
O64 Cd60 2.352 . S
O64 C67 1.258 . S
C65 O62 1.320 . S
C65 O63 1.214 . S
O66 Cd58 2.277 . S
O66 C61 1.209 . S
C67 O64 1.258 . S
C67 O69 1.282 . S
O68 Cd60 2.277 . S
O68 C61 1.226 1_556 S
O69 Cd60 2.356 . S
O69 C67 1.282 . S
C70 O71 1.306 . S
C70 O73 1.160 . S
O71 C70 1.306 . S
O71 Cd72 2.228 1_556 S
Cd72 O71 2.228 1_554 S
Cd72 O76 2.273 1_554 S
Cd72 O80 2.277 . S
O73 C70 1.160 . S
O73 Cd74 2.203 . S
Cd74 O73 2.203 . S
Cd74 O76 2.411 . S
Cd74 O77 2.333 . S
Cd74 O78 2.352 . S
Cd74 O82 2.277 . S
Cd74 O83 2.356 . S
C75 O80 1.209 . S
C75 O82 1.226 1_554 S
O76 Cd72 2.273 1_556 S
O76 Cd74 2.411 . S
O76 C79 1.320 . S
O77 Cd74 2.333 . S
O77 C79 1.214 . S
O78 Cd74 2.352 . S
O78 C81 1.258 . S
C79 O76 1.320 . S
C79 O77 1.214 . S
O80 Cd72 2.277 . S
O80 C75 1.209 . S
C81 O78 1.258 . S
C81 O83 1.282 . S
O82 Cd74 2.277 . S
O82 C75 1.226 1_556 S
O83 Cd74 2.356 . S
O83 C81 1.282 . S
C84 O85 1.306 . S
C84 O87 1.160 . S
O85 C84 1.306 . S
O85 Cd86 2.228 . S
Cd86 O85 2.228 . S
Cd86 O90 2.273 . S
Cd86 O94 2.277 . S
O87 C84 1.160 . S
O87 Cd88 2.203 . S
Cd88 O87 2.203 . S
Cd88 O90 2.411 . S
Cd88 O91 2.333 . S
Cd88 O92 2.352 . S
Cd88 O96 2.277 . S
Cd88 O97 2.356 . S
C89 O94 1.209 . S
C89 O96 1.226 . S
O90 Cd86 2.273 . S
O90 Cd88 2.411 . S
O90 C93 1.320 . S
O91 Cd88 2.333 . S
O91 C93 1.214 . S
O92 Cd88 2.352 . S
O92 C95 1.258 . S
C93 O90 1.320 . S
C93 O91 1.214 . S
O94 Cd86 2.277 . S
O94 C89 1.209 . S
C95 O92 1.258 . S
C95 O97 1.282 . S
O96 Cd88 2.277 . S
O96 C89 1.226 . S
O97 Cd88 2.356 . S
O97 C95 1.282 . S
C98 O99 1.306 . S
C98 O101 1.160 . S
O99 C98 1.306 . S
O99 Cd100 2.228 . S
Cd100 O99 2.228 . S
Cd100 O104 2.273 . S
Cd100 O108 2.277 . S
O101 C98 1.160 . S
O101 Cd102 2.203 . S
Cd102 O101 2.203 . S
Cd102 O104 2.411 . S
Cd102 O105 2.333 . S
Cd102 O106 2.352 . S
Cd102 O110 2.277 . S
Cd102 O111 2.356 . S
C103 O108 1.209 . S
C103 O110 1.226 . S
O104 Cd100 2.273 . S
O104 Cd102 2.411 . S
O104 C107 1.320 . S
O105 Cd102 2.333 . S
O105 C107 1.214 . S
O106 Cd102 2.352 . S
O106 C109 1.258 . S
C107 O104 1.320 . S
C107 O105 1.214 . S
O108 Cd100 2.277 . S
O108 C103 1.209 . S
C109 O106 1.258 . S
C109 O111 1.282 . S
O110 Cd102 2.277 . S
O110 C103 1.226 . S
O111 Cd102 2.356 . S
O111 C109 1.282 . S
C112 O113 1.306 . S
C112 O115 1.160 . S
O113 C112 1.306 . S
O113 Cd114 2.228 . S
Cd114 O113 2.228 . S
Cd114 O118 2.273 . S
Cd114 O122 2.277 . S
O115 C112 1.160 . S
O115 Cd116 2.203 . S
Cd116 O115 2.203 . S
Cd116 O118 2.411 . S
Cd116 O119 2.333 . S
Cd116 O120 2.352 . S
Cd116 O124 2.277 . S
Cd116 O125 2.356 . S
C117 O122 1.209 . S
C117 O124 1.226 . S
O118 Cd114 2.273 . S
O118 Cd116 2.411 . S
O118 C121 1.320 . S
O119 Cd116 2.333 . S
O119 C121 1.214 . S
O120 Cd116 2.352 . S
O120 C123 1.258 . S
C121 O118 1.320 . S
C121 O119 1.214 . S
O122 Cd114 2.277 . S
O122 C117 1.209 . S
C123 O120 1.258 . S
C123 O125 1.282 . S
O124 Cd116 2.277 . S
O124 C117 1.226 . S
O125 Cd116 2.356 . S
O125 C123 1.282 . S
C126 O127 1.306 . S
C126 O129 1.160 . S
O127 C126 1.306 . S
O127 Cd128 2.228 . S
Cd128 O127 2.228 . S
Cd128 O132 2.273 . S
Cd128 O136 2.277 . S
O129 C126 1.160 . S
O129 Cd130 2.203 . S
Cd130 O129 2.203 . S
Cd130 O132 2.411 . S
Cd130 O133 2.333 . S
Cd130 O134 2.352 . S
Cd130 O138 2.277 . S
Cd130 O139 2.356 . S
C131 O136 1.209 . S
C131 O138 1.226 . S
O132 Cd128 2.273 . S
O132 Cd130 2.411 . S
O132 C135 1.320 . S
O133 Cd130 2.333 . S
O133 C135 1.214 . S
O134 Cd130 2.352 . S
O134 C137 1.258 . S
C135 O132 1.320 . S
C135 O133 1.214 . S
O136 Cd128 2.277 . S
O136 C131 1.209 . S
C137 O134 1.258 . S
C137 O139 1.282 . S
O138 Cd130 2.277 . S
O138 C131 1.226 . S
O139 Cd130 2.356 . S
O139 C137 1.282 . S
C140 O141 1.306 . S
C140 O143 1.160 . S
O141 C140 1.306 . S
O141 Cd142 2.228 . S
Cd142 O141 2.228 . S
Cd142 O146 2.273 . S
Cd142 O150 2.277 . S
O143 C140 1.160 . S
O143 Cd144 2.203 . S
Cd144 O143 2.203 . S
Cd144 O146 2.411 . S
Cd144 O147 2.333 . S
Cd144 O148 2.352 . S
Cd144 O152 2.277 . S
Cd144 O153 2.356 . S
C145 O150 1.209 . S
C145 O152 1.226 . S
O146 Cd142 2.273 . S
O146 Cd144 2.411 . S
O146 C149 1.320 . S
O147 Cd144 2.333 . S
O147 C149 1.214 . S
O148 Cd144 2.352 . S
O148 C151 1.258 . S
C149 O146 1.320 . S
C149 O147 1.214 . S
O150 Cd142 2.277 . S
O150 C145 1.209 . S
C151 O148 1.258 . S
C151 O153 1.282 . S
O152 Cd144 2.277 . S
O152 C145 1.226 . S
O153 Cd144 2.356 . S
O153 C151 1.282 . S
C154 O155 1.306 . S
C154 O157 1.160 . S
O155 C154 1.306 . S
O155 Cd156 2.228 . S
Cd156 O155 2.228 . S
Cd156 O160 2.273 . S
Cd156 O164 2.277 . S
O157 C154 1.160 . S
O157 Cd158 2.203 . S
Cd158 O157 2.203 . S
Cd158 O160 2.411 . S
Cd158 O161 2.333 . S
Cd158 O162 2.352 . S
Cd158 O166 2.277 . S
Cd158 O167 2.356 . S
C159 O164 1.209 . S
C159 O166 1.226 . S
O160 Cd156 2.273 . S
O160 Cd158 2.411 . S
O160 C163 1.320 . S
O161 Cd158 2.333 . S
O161 C163 1.214 . S
O162 Cd158 2.352 . S
O162 C165 1.258 . S
C163 O160 1.320 . S
C163 O161 1.214 . S
O164 Cd156 2.277 . S
O164 C159 1.209 . S
C165 O162 1.258 . S
C165 O167 1.282 . S
O166 Cd158 2.277 . S
O166 C159 1.226 . S
O167 Cd158 2.356 . S
O167 C165 1.282 . S
C168 O169 1.306 . S
C168 O171 1.160 . S
O169 C168 1.306 . S
O169 Cd170 2.228 . S
Cd170 O169 2.228 . S
Cd170 O174 2.273 . S
Cd170 O178 2.277 . S
O171 C168 1.160 . S
O171 Cd172 2.203 . S
Cd172 O171 2.203 . S
Cd172 O174 2.411 . S
Cd172 O175 2.333 . S
Cd172 O176 2.352 . S
Cd172 O180 2.277 . S
Cd172 O181 2.356 . S
C173 O178 1.209 . S
C173 O180 1.226 . S
O174 Cd170 2.273 . S
O174 Cd172 2.411 . S
O174 C177 1.320 . S
O175 Cd172 2.333 . S
O175 C177 1.214 . S
O176 Cd172 2.352 . S
O176 C179 1.258 . S
C177 O174 1.320 . S
C177 O175 1.214 . S
O178 Cd170 2.277 . S
O178 C173 1.209 . S
C179 O176 1.258 . S
C179 O181 1.282 . S
O180 Cd172 2.277 . S
O180 C173 1.226 . S
O181 Cd172 2.356 . S
O181 C179 1.282 . S
C182 O183 1.306 . S
C182 O185 1.160 . S
O183 C182 1.306 . S
O183 Cd184 2.228 . S
Cd184 O183 2.228 . S
Cd184 O188 2.273 . S
Cd184 O192 2.277 . S
O185 C182 1.160 . S
O185 Cd186 2.203 . S
Cd186 O185 2.203 . S
Cd186 O188 2.411 . S
Cd186 O189 2.333 . S
Cd186 O190 2.352 . S
Cd186 O194 2.277 . S
Cd186 O195 2.356 . S
C187 O192 1.209 . S
C187 O194 1.226 . S
O188 Cd184 2.273 . S
O188 Cd186 2.411 . S
O188 C191 1.320 . S
O189 Cd186 2.333 . S
O189 C191 1.214 . S
O190 Cd186 2.352 . S
O190 C193 1.258 . S
C191 O188 1.320 . S
C191 O189 1.214 . S
O192 Cd184 2.277 . S
O192 C187 1.209 . S
C193 O190 1.258 . S
C193 O195 1.282 . S
O194 Cd186 2.277 . S
O194 C187 1.226 . S
O195 Cd186 2.356 . S
O195 C193 1.282 . S
C196 O197 1.306 . S
C196 O199 1.160 . S
O197 C196 1.306 . S
O197 Cd198 2.228 . S
Cd198 O197 2.228 . S
Cd198 O202 2.273 . S
Cd198 O206 2.277 . S
O199 C196 1.160 . S
O199 Cd200 2.203 . S
Cd200 O199 2.203 . S
Cd200 O202 2.411 . S
Cd200 O203 2.333 . S
Cd200 O204 2.352 . S
Cd200 O208 2.277 . S
Cd200 O209 2.356 . S
C201 O206 1.209 . S
C201 O208 1.226 . S
O202 Cd198 2.273 . S
O202 Cd200 2.411 . S
O202 C205 1.320 . S
O203 Cd200 2.333 . S
O203 C205 1.214 . S
O204 Cd200 2.352 . S
O204 C207 1.258 . S
C205 O202 1.320 . S
C205 O203 1.214 . S
O206 Cd198 2.277 . S
O206 C201 1.209 . S
C207 O204 1.258 . S
C207 O209 1.282 . S
O208 Cd200 2.277 . S
O208 C201 1.226 . S
O209 Cd200 2.356 . S
O209 C207 1.282 . S
C210 O211 1.306 . S
C210 O213 1.160 . S
O211 C210 1.306 . S
O211 Cd212 2.228 . S
Cd212 O211 2.228 . S
Cd212 O216 2.273 . S
Cd212 O220 2.277 . S
O213 C210 1.160 . S
O213 Cd214 2.203 . S
Cd214 O213 2.203 . S
Cd214 O216 2.411 . S
Cd214 O217 2.333 . S
Cd214 O218 2.352 . S
Cd214 O222 2.277 . S
Cd214 O223 2.356 . S
C215 O220 1.209 . S
C215 O222 1.226 . S
O216 Cd212 2.273 . S
O216 Cd214 2.411 . S
O216 C219 1.320 . S
O217 Cd214 2.333 . S
O217 C219 1.214 . S
O218 Cd214 2.352 . S
O218 C221 1.258 . S
C219 O216 1.320 . S
C219 O217 1.214 . S
O220 Cd212 2.277 . S
O220 C215 1.209 . S
C221 O218 1.258 . S
C221 O223 1.282 . S
O222 Cd214 2.277 . S
O222 C215 1.226 . S
O223 Cd214 2.356 . S
O223 C221 1.282 . S
C224 O225 1.306 . S
C224 O227 1.160 . S
O225 C224 1.306 . S
O225 Cd226 2.228 . S
Cd226 O225 2.228 . S
Cd226 O230 2.273 . S
Cd226 O234 2.277 . S
O227 C224 1.160 . S
O227 Cd228 2.203 . S
Cd228 O227 2.203 . S
Cd228 O230 2.411 . S
Cd228 O231 2.333 . S
Cd228 O232 2.352 . S
Cd228 O236 2.277 . S
Cd228 O237 2.356 . S
C229 O234 1.209 . S
C229 O236 1.226 . S
O230 Cd226 2.273 . S
O230 Cd228 2.411 . S
O230 C233 1.320 . S
O231 Cd228 2.333 . S
O231 C233 1.214 . S
O232 Cd228 2.352 . S
O232 C235 1.258 . S
C233 O230 1.320 . S
C233 O231 1.214 . S
O234 Cd226 2.277 . S
O234 C229 1.209 . S
C235 O232 1.258 . S
C235 O237 1.282 . S
O236 Cd228 2.277 . S
O236 C229 1.226 . S
O237 Cd228 2.356 . S
O237 C235 1.282 . S
C238 O239 1.306 . S
C238 O241 1.160 . S
O239 C238 1.306 . S
O239 Cd240 2.228 . S
Cd240 O239 2.228 . S
Cd240 O244 2.273 . S
Cd240 O248 2.277 . S
O241 C238 1.160 . S
O241 Cd242 2.203 . S
Cd242 O241 2.203 . S
Cd242 O244 2.411 . S
Cd242 O245 2.333 . S
Cd242 O246 2.352 . S
Cd242 O250 2.277 . S
Cd242 O251 2.356 . S
C243 O248 1.209 . S
C243 O250 1.226 . S
O244 Cd240 2.273 . S
O244 Cd242 2.411 . S
O244 C247 1.320 . S
O245 Cd242 2.333 . S
O245 C247 1.214 . S
O246 Cd242 2.352 . S
O246 C249 1.258 . S
C247 O244 1.320 . S
C247 O245 1.214 . S
O248 Cd240 2.277 . S
O248 C243 1.209 . S
C249 O246 1.258 . S
C249 O251 1.282 . S
O250 Cd242 2.277 . S
O250 C243 1.226 . S
O251 Cd242 2.356 . S
O251 C249 1.282 . S
H252 C264 0.930 . S
H253 C266 0.930 . S
H254 C267 0.930 . S
H255 C271 0.959 . S
H256 C271 0.959 . S
H257 C271 0.961 . S
H258 C272 0.960 . S
H259 C272 0.961 . S
H260 C272 0.959 . S
H261 C275 0.929 . S
H262 C276 0.931 . S
H263 C278 0.930 . S
C264 H252 0.930 . S
C264 C265 1.399 . S
C264 C269 1.399 . S
C265 C264 1.399 . S
C265 C266 1.376 . S
C266 H253 0.930 . S
C266 C265 1.376 . S
C266 C267 1.388 . S
C267 H254 0.930 . S
C267 C266 1.388 . S
C267 C268 1.390 . S
C268 C267 1.390 . S
C268 C269 1.394 . S
C268 C274 1.465 . S
C269 C264 1.399 . S
C269 C268 1.394 . S
C269 C270 1.516 . S
C270 C269 1.516 . S
C270 C271 1.502 . S
C270 C272 1.561 . S
C270 C273 1.526 . S
C271 H255 0.959 . S
C271 H256 0.959 . S
C271 H257 0.961 . S
C271 C270 1.502 . S
C272 H258 0.960 . S
C272 H259 0.961 . S
C272 H260 0.959 . S
C272 C270 1.561 . S
C273 C270 1.526 . S
C273 C274 1.396 . S
C273 C278 1.390 . S
C274 C268 1.465 . S
C274 C273 1.396 . S
C274 C275 1.399 . S
C275 H261 0.929 . S
C275 C274 1.399 . S
C275 C276 1.385 . S
C276 H262 0.931 . S
C276 C275 1.385 . S
C276 C277 1.389 . S
C277 C276 1.389 . S
C277 C278 1.387 . S
C278 H263 0.930 . S
C278 C273 1.390 . S
C278 C277 1.387 . S
H279 C291 0.930 . S
H280 C293 0.930 . S
H281 C294 0.930 . S
H282 C298 0.959 . S
H283 C298 0.959 . S
H284 C298 0.961 . S
H285 C299 0.960 . S
H286 C299 0.961 . S
H287 C299 0.959 . S
H288 C302 0.929 . S
H289 C303 0.931 . S
H290 C305 0.930 . S
C291 H279 0.930 . S
C291 C292 1.399 . S
C291 C296 1.399 . S
C292 C291 1.399 . S
C292 C293 1.376 . S
C293 H280 0.930 . S
C293 C292 1.376 . S
C293 C294 1.388 . S
C294 H281 0.930 . S
C294 C293 1.388 . S
C294 C295 1.390 . S
C295 C294 1.390 . S
C295 C296 1.394 . S
C295 C301 1.465 . S
C296 C291 1.399 . S
C296 C295 1.394 . S
C296 C297 1.516 . S
C297 C296 1.516 . S
C297 C298 1.502 . S
C297 C299 1.561 . S
C297 C300 1.526 . S
C298 H282 0.959 . S
C298 H283 0.959 . S
C298 H284 0.961 . S
C298 C297 1.502 . S
C299 H285 0.960 . S
C299 H286 0.961 . S
C299 H287 0.959 . S
C299 C297 1.561 . S
C300 C297 1.526 . S
C300 C301 1.396 . S
C300 C305 1.390 . S
C301 C295 1.465 . S
C301 C300 1.396 . S
C301 C302 1.399 . S
C302 H288 0.929 . S
C302 C301 1.399 . S
C302 C303 1.385 . S
C303 H289 0.931 . S
C303 C302 1.385 . S
C303 C304 1.389 . S
C304 C303 1.389 . S
C304 C305 1.387 . S
C305 H290 0.930 . S
C305 C300 1.390 . S
C305 C304 1.387 . S
H306 C318 0.930 . S
H307 C320 0.930 . S
H308 C321 0.930 . S
H309 C325 0.959 . S
H310 C325 0.959 . S
H311 C325 0.961 . S
H312 C326 0.960 . S
H313 C326 0.961 . S
H314 C326 0.959 . S
H315 C329 0.929 . S
H316 C330 0.931 . S
H317 C332 0.930 . S
C318 H306 0.930 . S
C318 C319 1.399 . S
C318 C323 1.399 . S
C319 C318 1.399 . S
C319 C320 1.376 . S
C320 H307 0.930 . S
C320 C319 1.376 . S
C320 C321 1.388 . S
C321 H308 0.930 . S
C321 C320 1.388 . S
C321 C322 1.390 . S
C322 C321 1.390 . S
C322 C323 1.394 . S
C322 C328 1.465 . S
C323 C318 1.399 . S
C323 C322 1.394 . S
C323 C324 1.516 . S
C324 C323 1.516 . S
C324 C325 1.502 . S
C324 C326 1.561 . S
C324 C327 1.526 . S
C325 H309 0.959 . S
C325 H310 0.959 . S
C325 H311 0.961 . S
C325 C324 1.502 . S
C326 H312 0.960 . S
C326 H313 0.961 . S
C326 H314 0.959 . S
C326 C324 1.561 . S
C327 C324 1.526 . S
C327 C328 1.396 . S
C327 C332 1.390 . S
C328 C322 1.465 . S
C328 C327 1.396 . S
C328 C329 1.399 . S
C329 H315 0.929 . S
C329 C328 1.399 . S
C329 C330 1.385 . S
C330 H316 0.931 . S
C330 C329 1.385 . S
C330 C331 1.389 . S
C331 C330 1.389 . S
C331 C332 1.387 . S
C332 H317 0.930 . S
C332 C327 1.390 . S
C332 C331 1.387 . S
H333 C345 0.930 . S
H334 C347 0.930 . S
H335 C348 0.930 . S
H336 C352 0.959 . S
H337 C352 0.959 . S
H338 C352 0.961 . S
H339 C353 0.960 . S
H340 C353 0.961 . S
H341 C353 0.959 . S
H342 C356 0.929 . S
H343 C357 0.931 . S
H344 C359 0.930 . S
C345 H333 0.930 . S
C345 C346 1.399 . S
C345 C350 1.399 . S
C346 C345 1.399 . S
C346 C347 1.376 . S
C347 H334 0.930 . S
C347 C346 1.376 . S
C347 C348 1.388 . S
C348 H335 0.930 . S
C348 C347 1.388 . S
C348 C349 1.390 . S
C349 C348 1.390 . S
C349 C350 1.394 . S
C349 C355 1.465 . S
C350 C345 1.399 . S
C350 C349 1.394 . S
C350 C351 1.516 . S
C351 C350 1.516 . S
C351 C352 1.502 . S
C351 C353 1.561 . S
C351 C354 1.526 . S
C352 H336 0.959 . S
C352 H337 0.959 . S
C352 H338 0.961 . S
C352 C351 1.502 . S
C353 H339 0.960 . S
C353 H340 0.961 . S
C353 H341 0.959 . S
C353 C351 1.561 . S
C354 C351 1.526 . S
C354 C355 1.396 . S
C354 C359 1.390 . S
C355 C349 1.465 . S
C355 C354 1.396 . S
C355 C356 1.399 . S
C356 H342 0.929 . S
C356 C355 1.399 . S
C356 C357 1.385 . S
C357 H343 0.931 . S
C357 C356 1.385 . S
C357 C358 1.389 . S
C358 C357 1.389 . S
C358 C359 1.387 . S
C359 H344 0.930 . S
C359 C354 1.390 . S
C359 C358 1.387 . S
H360 C372 0.930 . S
H361 C374 0.930 . S
H362 C375 0.930 . S
H363 C379 0.959 . S
H364 C379 0.959 . S
H365 C379 0.961 . S
H366 C380 0.960 . S
H367 C380 0.961 . S
H368 C380 0.959 . S
H369 C383 0.929 . S
H370 C384 0.931 . S
H371 C386 0.930 . S
C372 H360 0.930 . S
C372 C373 1.399 . S
C372 C377 1.399 . S
C373 C372 1.399 . S
C373 C374 1.376 . S
C374 H361 0.930 . S
C374 C373 1.376 . S
C374 C375 1.388 . S
C375 H362 0.930 . S
C375 C374 1.388 . S
C375 C376 1.390 . S
C376 C375 1.390 . S
C376 C377 1.394 . S
C376 C382 1.465 . S
C377 C372 1.399 . S
C377 C376 1.394 . S
C377 C378 1.516 . S
C378 C377 1.516 . S
C378 C379 1.502 . S
C378 C380 1.561 . S
C378 C381 1.526 . S
C379 H363 0.959 . S
C379 H364 0.959 . S
C379 H365 0.961 . S
C379 C378 1.502 . S
C380 H366 0.960 . S
C380 H367 0.961 . S
C380 H368 0.959 . S
C380 C378 1.561 . S
C381 C378 1.526 . S
C381 C382 1.396 . S
C381 C386 1.390 . S
C382 C376 1.465 . S
C382 C381 1.396 . S
C382 C383 1.399 . S
C383 H369 0.929 . S
C383 C382 1.399 . S
C383 C384 1.385 . S
C384 H370 0.931 . S
C384 C383 1.385 . S
C384 C385 1.389 . S
C385 C384 1.389 . S
C385 C386 1.387 . S
C386 H371 0.930 . S
C386 C381 1.390 . S
C386 C385 1.387 . S
H387 C399 0.930 . S
H388 C401 0.930 . S
H389 C402 0.930 . S
H390 C406 0.959 . S
H391 C406 0.959 . S
H392 C406 0.961 . S
H393 C407 0.960 . S
H394 C407 0.961 . S
H395 C407 0.959 . S
H396 C410 0.929 . S
H397 C411 0.931 . S
H398 C413 0.930 . S
C399 H387 0.930 . S
C399 C400 1.399 . S
C399 C404 1.399 . S
C400 C399 1.399 . S
C400 C401 1.376 . S
C401 H388 0.930 . S
C401 C400 1.376 . S
C401 C402 1.388 . S
C402 H389 0.930 . S
C402 C401 1.388 . S
C402 C403 1.390 . S
C403 C402 1.390 . S
C403 C404 1.394 . S
C403 C409 1.465 . S
C404 C399 1.399 . S
C404 C403 1.394 . S
C404 C405 1.516 . S
C405 C404 1.516 . S
C405 C406 1.502 . S
C405 C407 1.561 . S
C405 C408 1.526 . S
C406 H390 0.959 . S
C406 H391 0.959 . S
C406 H392 0.961 . S
C406 C405 1.502 . S
C407 H393 0.960 . S
C407 H394 0.961 . S
C407 H395 0.959 . S
C407 C405 1.561 . S
C408 C405 1.526 . S
C408 C409 1.396 . S
C408 C413 1.390 . S
C409 C403 1.465 . S
C409 C408 1.396 . S
C409 C410 1.399 . S
C410 H396 0.929 . S
C410 C409 1.399 . S
C410 C411 1.385 . S
C411 H397 0.931 . S
C411 C410 1.385 . S
C411 C412 1.389 . S
C412 C411 1.389 . S
C412 C413 1.387 . S
C413 H398 0.930 . S
C413 C408 1.390 . S
C413 C412 1.387 . S
H414 C426 0.930 1_455 S
H415 C428 0.930 . S
H416 C429 0.930 . S
H417 C433 0.959 . S
H418 C433 0.959 . S
H419 C433 0.961 . S
H420 C434 0.960 . S
H421 C434 0.961 . S
H422 C434 0.959 . S
H423 C437 0.929 . S
H424 C438 0.952 . S
H425 C440 0.930 . S
C426 H414 0.930 1_655 S
C426 C427 1.399 . S
C426 C431 1.392 1_655 S
C427 C426 1.399 . S
C427 C428 1.376 . S
C428 H415 0.930 . S
C428 C427 1.376 . S
C428 C429 1.388 . S
C429 H416 0.930 . S
C429 C428 1.388 . S
C429 C430 1.390 . S
C430 C429 1.390 . S
C430 C431 1.356 1_655 S
C430 C436 1.465 1_554 S
C431 C426 1.392 1_455 S
C431 C430 1.356 1_455 S
C431 C432 1.559 . S
C432 C431 1.559 . S
C432 C433 1.502 . S
C432 C434 1.561 . S
C432 C435 1.526 1_554 S
C433 H417 0.959 . S
C433 H418 0.959 . S
C433 H419 0.961 . S
C433 C432 1.502 . S
C434 H420 0.960 . S
C434 H421 0.961 . S
C434 H422 0.959 . S
C434 C432 1.561 . S
C435 C432 1.526 1_556 S
C435 C436 1.396 1_455 S
C435 C440 1.390 . S
C436 C430 1.465 1_556 S
C436 C435 1.396 1_655 S
C436 C437 1.399 . S
C437 H423 0.929 . S
C437 C436 1.399 . S
C437 C438 1.409 . S
C438 H424 0.952 . S
C438 C437 1.409 . S
C438 C439 1.345 1_655 S
C439 C438 1.345 1_455 S
C439 C440 1.387 . S
C440 H425 0.930 . S
C440 C435 1.390 . S
C440 C439 1.387 . S
H441 C453 0.930 . S
H442 C455 0.930 . S
H443 C456 0.930 . S
H444 C460 0.959 . S
H445 C460 0.959 . S
H446 C460 0.961 . S
H447 C461 0.960 . S
H448 C461 0.961 . S
H449 C461 0.959 . S
H450 C464 0.929 . S
H451 C465 0.931 . S
H452 C467 0.930 . S
C453 H441 0.930 . S
C453 C454 1.399 . S
C453 C458 1.399 . S
C454 C453 1.399 . S
C454 C455 1.376 . S
C455 H442 0.930 . S
C455 C454 1.376 . S
C455 C456 1.388 . S
C456 H443 0.930 . S
C456 C455 1.388 . S
C456 C457 1.390 . S
C457 C456 1.390 . S
C457 C458 1.394 . S
C457 C463 1.465 1_554 S
C458 C453 1.399 . S
C458 C457 1.394 . S
C458 C459 1.516 1_554 S
C459 C458 1.516 1_556 S
C459 C460 1.502 . S
C459 C461 1.561 . S
C459 C462 1.526 . S
C460 H444 0.959 . S
C460 H445 0.959 . S
C460 H446 0.961 . S
C460 C459 1.502 . S
C461 H447 0.960 . S
C461 H448 0.961 . S
C461 H449 0.959 . S
C461 C459 1.561 . S
C462 C459 1.526 . S
C462 C463 1.396 . S
C462 C467 1.390 . S
C463 C457 1.465 1_556 S
C463 C462 1.396 . S
C463 C464 1.399 . S
C464 H450 0.929 . S
C464 C463 1.399 . S
C464 C465 1.385 . S
C465 H451 0.931 . S
C465 C464 1.385 . S
C465 C466 1.389 . S
C466 C465 1.389 . S
C466 C467 1.387 . S
C467 H452 0.930 . S
C467 C462 1.390 . S
C467 C466 1.387 . S
H468 C480 0.930 . S
H469 C482 0.942 . S
H470 C483 0.930 . S
H471 C487 0.959 . S
H472 C487 0.959 . S
H473 C487 0.961 . S
H474 C488 0.960 . S
H475 C488 0.961 . S
H476 C488 0.959 . S
H477 C491 0.929 . S
H478 C492 0.931 . S
H479 C494 0.930 1_545 S
C480 H468 0.930 . S
C480 C481 1.399 . S
C480 C485 1.399 . S
C481 C480 1.399 . S
C481 C482 1.352 1_545 S
C482 H469 0.942 . S
C482 C481 1.352 1_565 S
C482 C483 1.402 . S
C483 H470 0.930 . S
C483 C482 1.402 . S
C483 C484 1.390 . S
C484 C483 1.390 . S
C484 C485 1.394 1_565 S
C484 C490 1.465 1_554 S
C485 C480 1.399 . S
C485 C484 1.394 1_545 S
C485 C486 1.516 1_554 S
C486 C485 1.516 1_556 S
C486 C487 1.502 . S
C486 C488 1.561 . S
C486 C489 1.526 . S
C487 H471 0.959 . S
C487 H472 0.959 . S
C487 H473 0.961 . S
C487 C486 1.502 . S
C488 H474 0.960 . S
C488 H475 0.961 . S
C488 H476 0.959 . S
C488 C486 1.561 . S
C489 C486 1.526 . S
C489 C490 1.396 1_545 S
C489 C494 1.390 1_545 S
C490 C484 1.465 1_556 S
C490 C489 1.396 1_565 S
C490 C491 1.399 . S
C491 H477 0.929 . S
C491 C490 1.399 . S
C491 C492 1.385 . S
C492 H478 0.931 . S
C492 C491 1.385 . S
C492 C493 1.389 . S
C493 C492 1.389 . S
C493 C494 1.387 . S
C494 H479 0.930 1_565 S
C494 C489 1.390 1_565 S
C494 C493 1.387 . S
H495 C507 0.930 . S
H496 C509 0.930 . S
H497 C510 0.930 . S
H498 C514 0.959 . S
H499 C514 0.959 . S
H500 C514 0.961 . S
H501 C515 0.960 . S
H502 C515 0.961 . S
H503 C515 0.959 . S
H504 C518 0.929 . S
H505 C519 0.931 . S
H506 C521 0.930 . S
C507 H495 0.930 . S
C507 C508 1.399 . S
C507 C512 1.399 . S
C508 C507 1.399 . S
C508 C509 1.376 . S
C509 H496 0.930 . S
C509 C508 1.376 . S
C509 C510 1.388 . S
C510 H497 0.930 . S
C510 C509 1.388 . S
C510 C511 1.390 . S
C511 C510 1.390 . S
C511 C512 1.394 . S
C511 C517 1.465 . S
C512 C507 1.399 . S
C512 C511 1.394 . S
C512 C513 1.516 . S
C513 C512 1.516 . S
C513 C514 1.502 . S
C513 C515 1.561 . S
C513 C516 1.526 . S
C514 H498 0.959 . S
C514 H499 0.959 . S
C514 H500 0.961 . S
C514 C513 1.502 . S
C515 H501 0.960 . S
C515 H502 0.961 . S
C515 H503 0.959 . S
C515 C513 1.561 . S
C516 C513 1.526 . S
C516 C517 1.396 . S
C516 C521 1.390 . S
C517 C511 1.465 . S
C517 C516 1.396 . S
C517 C518 1.399 . S
C518 H504 0.929 . S
C518 C517 1.399 . S
C518 C519 1.385 . S
C519 H505 0.931 . S
C519 C518 1.385 . S
C519 C520 1.389 . S
C520 C519 1.389 . S
C520 C521 1.387 . S
C521 H506 0.930 . S
C521 C516 1.390 . S
C521 C520 1.387 . S
H522 C534 0.930 . S
H523 C536 0.930 . S
H524 C537 0.930 . S
H525 C541 0.959 . S
H526 C541 0.959 . S
H527 C541 0.961 . S
H528 C542 0.960 . S
H529 C542 0.961 . S
H530 C542 0.959 . S
H531 C545 0.929 . S
H532 C546 0.931 . S
H533 C548 0.930 . S
C534 H522 0.930 . S
C534 C535 1.399 . S
C534 C539 1.399 . S
C535 C534 1.399 . S
C535 C536 1.376 . S
C536 H523 0.930 . S
C536 C535 1.376 . S
C536 C537 1.388 . S
C537 H524 0.930 . S
C537 C536 1.388 . S
C537 C538 1.390 . S
C538 C537 1.390 . S
C538 C539 1.394 . S
C538 C544 1.465 . S
C539 C534 1.399 . S
C539 C538 1.394 . S
C539 C540 1.516 . S
C540 C539 1.516 . S
C540 C541 1.502 . S
C540 C542 1.561 . S
C540 C543 1.526 . S
C541 H525 0.959 . S
C541 H526 0.959 . S
C541 H527 0.961 . S
C541 C540 1.502 . S
C542 H528 0.960 . S
C542 H529 0.961 . S
C542 H530 0.959 . S
C542 C540 1.561 . S
C543 C540 1.526 . S
C543 C544 1.396 . S
C543 C548 1.390 . S
C544 C538 1.465 . S
C544 C543 1.396 . S
C544 C545 1.399 . S
C545 H531 0.929 . S
C545 C544 1.399 . S
C545 C546 1.385 . S
C546 H532 0.931 . S
C546 C545 1.385 . S
C546 C547 1.389 . S
C547 C546 1.389 . S
C547 C548 1.387 . S
C548 H533 0.930 . S
C548 C543 1.390 . S
C548 C547 1.387 . S
H549 C561 0.930 . S
H550 C563 0.930 . S
H551 C564 0.930 . S
H552 C568 0.959 . S
H553 C568 0.959 . S
H554 C568 0.961 . S
H555 C569 0.960 . S
H556 C569 0.961 . S
H557 C569 0.959 . S
H558 C572 0.929 . S
H559 C573 0.931 . S
H560 C575 0.930 . S
C561 H549 0.930 . S
C561 C562 1.399 . S
C561 C566 1.399 . S
C562 C561 1.399 . S
C562 C563 1.376 . S
C563 H550 0.930 . S
C563 C562 1.376 . S
C563 C564 1.388 . S
C564 H551 0.930 . S
C564 C563 1.388 . S
C564 C565 1.390 . S
C565 C564 1.390 . S
C565 C566 1.394 . S
C565 C571 1.465 . S
C566 C561 1.399 . S
C566 C565 1.394 . S
C566 C567 1.516 . S
C567 C566 1.516 . S
C567 C568 1.502 . S
C567 C569 1.561 . S
C567 C570 1.526 . S
C568 H552 0.959 . S
C568 H553 0.959 . S
C568 H554 0.961 . S
C568 C567 1.502 . S
C569 H555 0.960 . S
C569 H556 0.961 . S
C569 H557 0.959 . S
C569 C567 1.561 . S
C570 C567 1.526 . S
C570 C571 1.396 . S
C570 C575 1.390 . S
C571 C565 1.465 . S
C571 C570 1.396 . S
C571 C572 1.399 . S
C572 H558 0.929 . S
C572 C571 1.399 . S
C572 C573 1.385 . S
C573 H559 0.931 . S
C573 C572 1.385 . S
C573 C574 1.389 . S
C574 C573 1.389 . S
C574 C575 1.387 . S
C575 H560 0.930 . S
C575 C570 1.390 . S
C575 C574 1.387 . S
H576 C588 0.930 . S
H577 C590 0.930 . S
H578 C591 0.930 . S
H579 C595 0.959 . S
H580 C595 0.959 . S
H581 C595 0.961 . S
H582 C596 0.960 . S
H583 C596 0.961 . S
H584 C596 0.959 . S
H585 C599 0.929 . S
H586 C600 0.931 . S
H587 C602 0.930 . S
C588 H576 0.930 . S
C588 C589 1.399 . S
C588 C593 1.399 . S
C589 C588 1.399 . S
C589 C590 1.376 . S
C590 H577 0.930 . S
C590 C589 1.376 . S
C590 C591 1.388 . S
C591 H578 0.930 . S
C591 C590 1.388 . S
C591 C592 1.390 . S
C592 C591 1.390 . S
C592 C593 1.394 . S
C592 C598 1.465 . S
C593 C588 1.399 . S
C593 C592 1.394 . S
C593 C594 1.516 . S
C594 C593 1.516 . S
C594 C595 1.502 . S
C594 C596 1.561 . S
C594 C597 1.526 . S
C595 H579 0.959 . S
C595 H580 0.959 . S
C595 H581 0.961 . S
C595 C594 1.502 . S
C596 H582 0.960 . S
C596 H583 0.961 . S
C596 H584 0.959 . S
C596 C594 1.561 . S
C597 C594 1.526 . S
C597 C598 1.396 . S
C597 C602 1.390 . S
C598 C592 1.465 . S
C598 C597 1.396 . S
C598 C599 1.399 . S
C599 H585 0.929 . S
C599 C598 1.399 . S
C599 C600 1.385 . S
C600 H586 0.931 . S
C600 C599 1.385 . S
C600 C601 1.389 . S
C601 C600 1.389 . S
C601 C602 1.387 . S
C602 H587 0.930 . S
C602 C597 1.390 . S
C602 C601 1.387 . S
H603 C615 0.930 . S
H604 C617 0.930 . S
H605 C618 0.930 . S
H606 C622 0.959 . S
H607 C622 0.959 . S
H608 C622 0.961 . S
H609 C623 0.960 . S
H610 C623 0.961 . S
H611 C623 0.959 . S
H612 C626 0.929 . S
H613 C627 0.931 . S
H614 C629 0.930 . S
C615 H603 0.930 . S
C615 C616 1.399 . S
C615 C620 1.399 . S
C616 C615 1.399 . S
C616 C617 1.376 . S
C617 H604 0.930 . S
C617 C616 1.376 . S
C617 C618 1.388 . S
C618 H605 0.930 . S
C618 C617 1.388 . S
C618 C619 1.390 . S
C619 C618 1.390 . S
C619 C620 1.394 . S
C619 C625 1.465 . S
C620 C615 1.399 . S
C620 C619 1.394 . S
C620 C621 1.516 . S
C621 C620 1.516 . S
C621 C622 1.502 . S
C621 C623 1.561 . S
C621 C624 1.526 . S
C622 H606 0.959 . S
C622 H607 0.959 . S
C622 H608 0.961 . S
C622 C621 1.502 . S
C623 H609 0.960 . S
C623 H610 0.961 . S
C623 H611 0.959 . S
C623 C621 1.561 . S
C624 C621 1.526 . S
C624 C625 1.396 . S
C624 C629 1.390 . S
C625 C619 1.465 . S
C625 C624 1.396 . S
C625 C626 1.399 . S
C626 H612 0.929 . S
C626 C625 1.399 . S
C626 C627 1.385 . S
C627 H613 0.931 . S
C627 C626 1.385 . S
C627 C628 1.389 . S
C628 C627 1.389 . S
C628 C629 1.387 . S
C629 H614 0.930 . S
C629 C624 1.390 . S
C629 C628 1.387 . S
H630 C642 0.930 . S
H631 C644 0.930 . S
H632 C645 0.930 . S
H633 C649 0.959 . S
H634 C649 0.959 . S
H635 C649 0.961 . S
H636 C650 0.960 . S
H637 C650 0.961 . S
H638 C650 0.959 . S
H639 C653 0.929 . S
H640 C654 0.931 . S
H641 C656 0.930 . S
C642 H630 0.930 . S
C642 C643 1.399 . S
C642 C647 1.399 . S
C643 C642 1.399 . S
C643 C644 1.376 . S
C644 H631 0.930 . S
C644 C643 1.376 . S
C644 C645 1.388 . S
C645 H632 0.930 . S
C645 C644 1.388 . S
C645 C646 1.390 . S
C646 C645 1.390 . S
C646 C647 1.394 . S
C646 C652 1.465 . S
C647 C642 1.399 . S
C647 C646 1.394 . S
C647 C648 1.516 . S
C648 C647 1.516 . S
C648 C649 1.502 . S
C648 C650 1.561 . S
C648 C651 1.526 . S
C649 H633 0.959 . S
C649 H634 0.959 . S
C649 H635 0.961 . S
C649 C648 1.502 . S
C650 H636 0.960 . S
C650 H637 0.961 . S
C650 H638 0.959 . S
C650 C648 1.561 . S
C651 C648 1.526 . S
C651 C652 1.396 . S
C651 C656 1.390 . S
C652 C646 1.465 . S
C652 C651 1.396 . S
C652 C653 1.399 . S
C653 H639 0.929 . S
C653 C652 1.399 . S
C653 C654 1.385 . S
C654 H640 0.931 . S
C654 C653 1.385 . S
C654 C655 1.389 . S
C655 C654 1.389 . S
C655 C656 1.387 . S
C656 H641 0.930 . S
C656 C651 1.390 . S
C656 C655 1.387 . S
H657 C669 0.930 1_455 S
H658 C671 0.930 . S
H659 C672 0.930 . S
H660 C676 0.959 . S
H661 C676 0.959 . S
H662 C676 0.961 . S
H663 C677 0.960 . S
H664 C677 0.961 . S
H665 C677 1.005 . S
H666 C680 0.929 . S
H667 C681 0.931 1_655 S
H668 C683 0.930 . S
C669 H657 0.930 1_655 S
C669 C670 1.399 . S
C669 C674 1.406 . S
C670 C669 1.399 . S
C670 C671 1.376 . S
C671 H658 0.930 . S
C671 C670 1.376 . S
C671 C672 1.388 . S
C672 H659 0.930 . S
C672 C671 1.388 . S
C672 C673 1.390 . S
C673 C672 1.390 . S
C673 C674 1.402 . S
C673 C679 1.465 . S
C674 C669 1.406 . S
C674 C673 1.402 . S
C674 C675 1.503 1_655 S
C675 C674 1.503 1_455 S
C675 C676 1.502 . S
C675 C677 1.561 . S
C675 C678 1.526 . S
C676 H660 0.959 . S
C676 H661 0.959 . S
C676 H662 0.961 . S
C676 C675 1.502 . S
C677 H663 0.960 . S
C677 H664 0.961 . S
C677 H665 1.005 . S
C677 C675 1.561 . S
C678 C675 1.526 . S
C678 C679 1.396 1_455 S
C678 C683 1.390 . S
C679 C673 1.465 . S
C679 C678 1.396 1_655 S
C679 C680 1.399 . S
C680 H666 0.929 . S
C680 C679 1.399 . S
C680 C681 1.385 1_655 S
C681 H667 0.931 1_455 S
C681 C680 1.385 1_455 S
C681 C682 1.389 . S
C682 C681 1.389 . S
C682 C683 1.387 . S
C683 H668 0.930 . S
C683 C678 1.390 . S
C683 C682 1.387 . S
H684 C696 0.930 . S
H685 C698 0.930 . S
H686 C699 0.930 . S
H687 C703 0.959 . S
H688 C703 0.959 . S
H689 C703 0.961 . S
H690 C704 0.960 . S
H691 C704 0.961 . S
H692 C704 0.959 . S
H693 C707 0.929 . S
H694 C708 0.931 . S
H695 C710 0.930 . S
C696 H684 0.930 . S
C696 C697 1.399 . S
C696 C701 1.399 . S
C697 C696 1.399 . S
C697 C698 1.376 . S
C698 H685 0.930 . S
C698 C697 1.376 . S
C698 C699 1.388 . S
C699 H686 0.930 . S
C699 C698 1.388 . S
C699 C700 1.390 . S
C700 C699 1.390 . S
C700 C701 1.394 . S
C700 C706 1.465 . S
C701 C696 1.399 . S
C701 C700 1.394 . S
C701 C702 1.516 . S
C702 C701 1.516 . S
C702 C703 1.502 . S
C702 C704 1.561 . S
C702 C705 1.526 . S
C703 H687 0.959 . S
C703 H688 0.959 . S
C703 H689 0.961 . S
C703 C702 1.502 . S
C704 H690 0.960 . S
C704 H691 0.961 . S
C704 H692 0.959 . S
C704 C702 1.561 . S
C705 C702 1.526 . S
C705 C706 1.396 . S
C705 C710 1.390 . S
C706 C700 1.465 . S
C706 C705 1.396 . S
C706 C707 1.399 . S
C707 H693 0.929 . S
C707 C706 1.399 . S
C707 C708 1.385 . S
C708 H694 0.931 . S
C708 C707 1.385 . S
C708 C709 1.389 . S
C709 C708 1.389 . S
C709 C710 1.387 . S
C710 H695 0.930 . S
C710 C705 1.390 . S
C710 C709 1.387 . S
H711 C723 0.930 . S
H712 C725 0.930 . S
H713 C726 0.930 . S
H714 C730 0.959 . S
H715 C730 0.959 . S
H716 C730 0.961 . S
H717 C731 0.960 . S
H718 C731 0.961 . S
H719 C731 0.959 . S
H720 C734 0.929 . S
H721 C735 0.931 . S
H722 C737 0.930 1_565 S
C723 H711 0.930 . S
C723 C724 1.399 . S
C723 C728 1.399 . S
C724 C723 1.399 . S
C724 C725 1.376 1_565 S
C725 H712 0.930 . S
C725 C724 1.376 1_545 S
C725 C726 1.388 . S
C726 H713 0.930 . S
C726 C725 1.388 . S
C726 C727 1.390 . S
C727 C726 1.390 . S
C727 C728 1.394 1_545 S
C727 C733 1.465 . S
C728 C723 1.399 . S
C728 C727 1.394 1_565 S
C728 C729 1.516 . S
C729 C728 1.516 . S
C729 C730 1.502 . S
C729 C731 1.561 . S
C729 C732 1.526 . S
C730 H714 0.959 . S
C730 H715 0.959 . S
C730 H716 0.961 . S
C730 C729 1.502 . S
C731 H717 0.960 . S
C731 H718 0.961 . S
C731 H719 0.959 . S
C731 C729 1.561 . S
C732 C729 1.526 . S
C732 C733 1.396 1_565 S
C732 C737 1.390 1_565 S
C733 C727 1.465 . S
C733 C732 1.396 1_545 S
C733 C734 1.399 . S
C734 H720 0.929 . S
C734 C733 1.399 . S
C734 C735 1.385 . S
C735 H721 0.931 . S
C735 C734 1.385 . S
C735 C736 1.389 . S
C736 C735 1.389 . S
C736 C737 1.387 . S
C737 H722 0.930 1_545 S
C737 C732 1.390 1_545 S
C737 C736 1.387 . S
H738 C750 0.930 . S
H739 C752 0.930 . S
H740 C753 0.930 . S
H741 C757 0.959 . S
H742 C757 0.959 . S
H743 C757 0.961 . S
H744 C758 0.960 . S
H745 C758 0.961 . S
H746 C758 0.959 . S
H747 C761 0.929 . S
H748 C762 0.931 . S
H749 C764 0.930 . S
C750 H738 0.930 . S
C750 C751 1.399 1_556 S
C750 C755 1.399 . S
C751 C750 1.399 1_554 S
C751 C752 1.376 . S
C752 H739 0.930 . S
C752 C751 1.376 . S
C752 C753 1.388 . S
C753 H740 0.930 . S
C753 C752 1.388 . S
C753 C754 1.390 . S
C754 C753 1.390 . S
C754 C755 1.394 1_554 S
C754 C760 1.465 . S
C755 C750 1.399 . S
C755 C754 1.394 1_556 S
C755 C756 1.516 . S
C756 C755 1.516 . S
C756 C757 1.502 . S
C756 C758 1.561 . S
C756 C759 1.526 . S
C757 H741 0.959 . S
C757 H742 0.959 . S
C757 H743 0.961 . S
C757 C756 1.502 . S
C758 H744 0.960 . S
C758 H745 0.961 . S
C758 H746 0.959 . S
C758 C756 1.561 . S
C759 C756 1.526 . S
C759 C760 1.396 1_556 S
C759 C764 1.390 . S
C760 C754 1.465 . S
C760 C759 1.396 1_554 S
C760 C761 1.399 . S
C761 H747 0.929 . S
C761 C760 1.399 . S
C761 C762 1.385 . S
C762 H748 0.931 . S
C762 C761 1.385 . S
C762 C763 1.389 1_554 S
C763 C762 1.389 1_556 S
C763 C764 1.387 . S
C764 H749 0.930 . S
C764 C759 1.390 . S
C764 C763 1.387 . S
H765 C777 0.930 . S
H766 C779 0.935 . S
H767 C780 0.930 . S
H768 C784 0.959 . S
H769 C784 0.959 . S
H770 C784 0.961 1_545 S
H771 C785 0.953 1_556 S
H772 C785 0.960 1_566 S
H773 C785 0.975 . S
H774 C788 0.929 . S
H775 C789 0.931 . S
H776 C791 0.930 1_556 S
C777 H765 0.930 . S
C777 C778 1.399 . S
C777 C782 1.399 . S
C778 C777 1.399 . S
C778 C779 1.364 1_556 S
C779 H766 0.935 . S
C779 C778 1.364 1_554 S
C779 C780 1.396 . S
C780 H767 0.930 . S
C780 C779 1.396 . S
C780 C781 1.390 . S
C781 C780 1.390 . S
C781 C782 1.394 1_554 S
C781 C787 1.465 1_545 S
C782 C777 1.399 . S
C782 C781 1.394 1_556 S
C782 C783 1.516 1_545 S
C783 C782 1.516 1_565 S
C783 C784 1.502 . S
C783 C785 1.553 1_566 S
C783 C786 1.526 1_556 S
C784 H768 0.959 . S
C784 H769 0.959 . S
C784 H770 0.961 1_565 S
C784 C783 1.502 . S
C785 H771 0.953 1_554 S
C785 H772 0.960 1_544 S
C785 H773 0.975 . S
C785 C783 1.553 1_544 S
C786 C783 1.526 1_554 S
C786 C787 1.396 . S
C786 C791 1.390 . S
C787 C781 1.465 1_565 S
C787 C786 1.396 . S
C787 C788 1.399 . S
C788 H774 0.929 . S
C788 C787 1.399 . S
C788 C789 1.385 . S
C789 H775 0.931 . S
C789 C788 1.385 . S
C789 C790 1.389 . S
C790 C789 1.389 . S
C790 C791 1.387 . S
C791 H776 0.930 1_554 S
C791 C786 1.390 . S
C791 C790 1.387 . S
H792 C804 0.930 . S
H793 C806 0.930 . S
H794 C807 0.930 . S
H795 C811 0.959 . S
H796 C811 0.959 . S
H797 C811 0.961 . S
H798 C812 0.960 . S
H799 C812 0.961 . S
H800 C812 0.959 . S
H801 C815 0.929 . S
H802 C816 0.931 . S
H803 C818 0.930 . S
C804 H792 0.930 . S
C804 C805 1.399 . S
C804 C809 1.399 . S
C805 C804 1.399 . S
C805 C806 1.376 1_556 S
C806 H793 0.930 . S
C806 C805 1.376 1_554 S
C806 C807 1.388 . S
C807 H794 0.930 . S
C807 C806 1.388 . S
C807 C808 1.390 . S
C808 C807 1.390 . S
C808 C809 1.394 1_554 S
C808 C814 1.465 1_655 S
C809 C804 1.399 . S
C809 C808 1.394 1_556 S
C809 C810 1.516 1_655 S
C810 C809 1.516 1_455 S
C810 C811 1.502 . S
C810 C812 1.561 . S
C810 C813 1.526 . S
C811 H795 0.959 . S
C811 H796 0.959 . S
C811 H797 0.961 . S
C811 C810 1.502 . S
C812 H798 0.960 . S
C812 H799 0.961 . S
C812 H800 0.959 . S
C812 C810 1.561 . S
C813 C810 1.526 . S
C813 C814 1.396 1_556 S
C813 C818 1.390 . S
C814 C808 1.465 1_455 S
C814 C813 1.396 1_554 S
C814 C815 1.399 . S
C815 H801 0.929 . S
C815 C814 1.399 . S
C815 C816 1.385 . S
C816 H802 0.931 . S
C816 C815 1.385 . S
C816 C817 1.389 . S
C817 C816 1.389 . S
C817 C818 1.387 1_554 S
C818 H803 0.930 . S
C818 C813 1.390 . S
C818 C817 1.387 1_556 S
H819 C831 0.930 . S
H820 C833 0.930 . S
H821 C834 0.930 . S
H822 C838 0.959 . S
H823 C838 0.959 . S
H824 C838 0.961 . S
H825 C839 0.960 . S
H826 C839 0.961 . S
H827 C839 0.959 . S
H828 C842 0.929 . S
H829 C843 0.931 . S
H830 C845 0.930 . S
C831 H819 0.930 . S
C831 C832 1.399 . S
C831 C836 1.399 . S
C832 C831 1.399 . S
C832 C833 1.376 . S
C833 H820 0.930 . S
C833 C832 1.376 . S
C833 C834 1.388 . S
C834 H821 0.930 . S
C834 C833 1.388 . S
C834 C835 1.390 . S
C835 C834 1.390 . S
C835 C836 1.394 . S
C835 C841 1.465 1_556 S
C836 C831 1.399 . S
C836 C835 1.394 . S
C836 C837 1.516 . S
C837 C836 1.516 . S
C837 C838 1.502 1_556 S
C837 C839 1.561 . S
C837 C840 1.526 1_556 S
C838 H822 0.959 . S
C838 H823 0.959 . S
C838 H824 0.961 . S
C838 C837 1.502 1_554 S
C839 H825 0.960 . S
C839 H826 0.961 . S
C839 H827 0.959 . S
C839 C837 1.561 . S
C840 C837 1.526 1_554 S
C840 C841 1.396 . S
C840 C845 1.390 . S
C841 C835 1.465 1_554 S
C841 C840 1.396 . S
C841 C842 1.399 . S
C842 H828 0.929 . S
C842 C841 1.399 . S
C842 C843 1.385 . S
C843 H829 0.931 . S
C843 C842 1.385 . S
C843 C844 1.389 . S
C844 C843 1.389 . S
C844 C845 1.387 . S
C845 H830 0.930 . S
C845 C840 1.390 . S
C845 C844 1.387 . S
H846 C858 0.930 . S
H847 C860 0.930 . S
H848 C861 0.930 . S
H849 C865 0.959 . S
H850 C865 0.959 . S
H851 C865 0.961 1_565 S
H852 C866 0.960 . S
H853 C866 0.961 . S
H854 C866 0.959 . S
H855 C869 0.929 . S
H856 C870 0.931 . S
H857 C872 0.930 . S
C858 H846 0.930 . S
C858 C859 1.399 . S
C858 C863 1.399 . S
C859 C858 1.399 . S
C859 C860 1.376 1_554 S
C860 H847 0.930 . S
C860 C859 1.376 1_556 S
C860 C861 1.388 . S
C861 H848 0.930 . S
C861 C860 1.388 . S
C861 C862 1.390 . S
C862 C861 1.390 . S
C862 C863 1.394 1_556 S
C862 C868 1.465 1_565 S
C863 C858 1.399 . S
C863 C862 1.394 1_554 S
C863 C864 1.516 1_565 S
C864 C863 1.516 1_545 S
C864 C865 1.502 . S
C864 C866 1.561 . S
C864 C867 1.526 . S
C865 H849 0.959 . S
C865 H850 0.959 . S
C865 H851 0.961 1_545 S
C865 C864 1.502 . S
C866 H852 0.960 . S
C866 H853 0.961 . S
C866 H854 0.959 . S
C866 C864 1.561 . S
C867 C864 1.526 . S
C867 C868 1.396 1_554 S
C867 C872 1.390 . S
C868 C862 1.465 1_545 S
C868 C867 1.396 1_556 S
C868 C869 1.399 . S
C869 H855 0.929 . S
C869 C868 1.399 . S
C869 C870 1.385 . S
C870 H856 0.931 . S
C870 C869 1.385 . S
C870 C871 1.389 . S
C871 C870 1.389 . S
C871 C872 1.387 1_556 S
C872 H857 0.930 . S
C872 C867 1.390 . S
C872 C871 1.387 1_554 S
H873 C885 0.930 . S
H874 C887 0.930 . S
H875 C888 0.930 . S
H876 C892 0.959 . S
H877 C892 0.959 . S
H878 C892 0.961 . S
H879 C893 0.960 . S
H880 C893 0.961 1_455 S
H881 C893 0.959 . S
H882 C896 0.929 . S
H883 C897 0.931 . S
H884 C899 0.930 . S
C885 H873 0.930 . S
C885 C886 1.399 1_554 S
C885 C890 1.399 . S
C886 C885 1.399 1_556 S
C886 C887 1.376 . S
C887 H874 0.930 . S
C887 C886 1.376 . S
C887 C888 1.388 . S
C888 H875 0.930 . S
C888 C887 1.388 . S
C888 C889 1.390 . S
C889 C888 1.390 . S
C889 C890 1.394 1_556 S
C889 C895 1.465 1_655 S
C890 C885 1.399 . S
C890 C889 1.394 1_554 S
C890 C891 1.516 . S
C891 C890 1.516 . S
C891 C892 1.502 . S
C891 C893 1.561 . S
C891 C894 1.526 1_655 S
C892 H876 0.959 . S
C892 H877 0.959 . S
C892 H878 0.961 . S
C892 C891 1.502 . S
C893 H879 0.960 . S
C893 H880 0.961 1_655 S
C893 H881 0.959 . S
C893 C891 1.561 . S
C894 C891 1.526 1_455 S
C894 C895 1.396 1_554 S
C894 C899 1.390 . S
C895 C889 1.465 1_455 S
C895 C894 1.396 1_556 S
C895 C896 1.399 . S
C896 H882 0.929 . S
C896 C895 1.399 . S
C896 C897 1.385 . S
C897 H883 0.931 . S
C897 C896 1.385 . S
C897 C898 1.389 1_556 S
C898 C897 1.389 1_554 S
C898 C899 1.387 . S
C899 H884 0.930 . S
C899 C894 1.390 . S
C899 C898 1.387 . S
H900 C912 0.930 . S
H901 C914 0.930 . S
H902 C915 0.930 . S
H903 C919 0.959 . S
H904 C919 0.959 . S
H905 C919 0.961 . S
H906 C920 0.960 . S
H907 C920 0.961 . S
H908 C920 0.959 . S
H909 C923 0.929 . S
H910 C924 0.931 . S
H911 C926 0.930 . S
C912 H900 0.930 . S
C912 C913 1.399 . S
C912 C917 1.399 . S
C913 C912 1.399 . S
C913 C914 1.376 . S
C914 H901 0.930 . S
C914 C913 1.376 . S
C914 C915 1.388 . S
C915 H902 0.930 . S
C915 C914 1.388 . S
C915 C916 1.390 . S
C916 C915 1.390 . S
C916 C917 1.394 . S
C916 C922 1.465 . S
C917 C912 1.399 . S
C917 C916 1.394 . S
C917 C918 1.516 . S
C918 C917 1.516 . S
C918 C919 1.502 . S
C918 C920 1.561 . S
C918 C921 1.526 . S
C919 H903 0.959 . S
C919 H904 0.959 . S
C919 H905 0.961 . S
C919 C918 1.502 . S
C920 H906 0.960 . S
C920 H907 0.961 . S
C920 H908 0.959 . S
C920 C918 1.561 . S
C921 C918 1.526 . S
C921 C922 1.396 . S
C921 C926 1.390 . S
C922 C916 1.465 . S
C922 C921 1.396 . S
C922 C923 1.399 . S
C923 H909 0.929 . S
C923 C922 1.399 . S
C923 C924 1.385 . S
C924 H910 0.931 . S
C924 C923 1.385 . S
C924 C925 1.389 . S
C925 C924 1.389 . S
C925 C926 1.387 . S
C926 H911 0.930 . S
C926 C921 1.390 . S
C926 C925 1.387 . S
H927 C939 0.930 . S
H928 C941 0.930 . S
H929 C942 0.930 . S
H930 C946 0.959 . S
H931 C946 0.959 . S
H932 C946 0.961 . S
H933 C947 0.960 . S
H934 C947 0.961 . S
H935 C947 0.959 . S
H936 C950 0.929 . S
H937 C951 0.931 . S
H938 C953 0.930 . S
C939 H927 0.930 . S
C939 C940 1.399 . S
C939 C944 1.399 . S
C940 C939 1.399 . S
C940 C941 1.376 . S
C941 H928 0.930 . S
C941 C940 1.376 . S
C941 C942 1.388 . S
C942 H929 0.930 . S
C942 C941 1.388 . S
C942 C943 1.390 . S
C943 C942 1.390 . S
C943 C944 1.394 . S
C943 C949 1.465 . S
C944 C939 1.399 . S
C944 C943 1.394 . S
C944 C945 1.516 . S
C945 C944 1.516 . S
C945 C946 1.502 . S
C945 C947 1.561 . S
C945 C948 1.526 . S
C946 H930 0.959 . S
C946 H931 0.959 . S
C946 H932 0.961 . S
C946 C945 1.502 . S
C947 H933 0.960 . S
C947 H934 0.961 . S
C947 H935 0.959 . S
C947 C945 1.561 . S
C948 C945 1.526 . S
C948 C949 1.396 . S
C948 C953 1.390 . S
C949 C943 1.465 . S
C949 C948 1.396 . S
C949 C950 1.399 . S
C950 H936 0.929 . S
C950 C949 1.399 . S
C950 C951 1.385 . S
C951 H937 0.931 . S
C951 C950 1.385 . S
C951 C952 1.389 . S
C952 C951 1.389 . S
C952 C953 1.387 . S
C953 H938 0.930 . S
C953 C948 1.390 . S
C953 C952 1.387 . S
H954 C966 0.930 . S
H955 C968 0.930 . S
H956 C969 0.930 . S
H957 C973 0.959 . S
H958 C973 0.959 . S
H959 C973 0.961 . S
H960 C974 0.960 . S
H961 C974 0.961 . S
H962 C974 0.959 . S
H963 C977 0.929 . S
H964 C978 0.931 . S
H965 C980 0.930 . S
C966 H954 0.930 . S
C966 C967 1.399 . S
C966 C971 1.399 . S
C967 C966 1.399 . S
C967 C968 1.376 . S
C968 H955 0.930 . S
C968 C967 1.376 . S
C968 C969 1.388 . S
C969 H956 0.930 . S
C969 C968 1.388 . S
C969 C970 1.390 . S
C970 C969 1.390 . S
C970 C971 1.394 . S
C970 C976 1.465 . S
C971 C966 1.399 . S
C971 C970 1.394 . S
C971 C972 1.516 . S
C972 C971 1.516 . S
C972 C973 1.502 . S
C972 C974 1.561 . S
C972 C975 1.526 . S
C973 H957 0.959 . S
C973 H958 0.959 . S
C973 H959 0.961 . S
C973 C972 1.502 . S
C974 H960 0.960 . S
C974 H961 0.961 . S
C974 H962 0.959 . S
C974 C972 1.561 . S
C975 C972 1.526 . S
C975 C976 1.396 . S
C975 C980 1.390 . S
C976 C970 1.465 . S
C976 C975 1.396 . S
C976 C977 1.399 . S
C977 H963 0.929 . S
C977 C976 1.399 . S
C977 C978 1.385 . S
C978 H964 0.931 . S
C978 C977 1.385 . S
C978 C979 1.389 . S
C979 C978 1.389 . S
C979 C980 1.387 . S
C980 H965 0.930 . S
C980 C975 1.390 . S
C980 C979 1.387 . S
H981 C993 0.930 . S
H982 C995 0.930 . S
H983 C996 0.930 . S
H984 C1000 0.959 . S
H985 C1000 0.959 . S
H986 C1000 0.961 . S
H987 C1001 0.960 . S
H988 C1001 0.961 . S
H989 C1001 0.959 . S
H990 C1004 0.929 . S
H991 C1005 0.931 . S
H992 C1007 0.930 . S
C993 H981 0.930 . S
C993 C994 1.399 . S
C993 C998 1.399 . S
C994 C993 1.399 . S
C994 C995 1.376 . S
C995 H982 0.930 . S
C995 C994 1.376 . S
C995 C996 1.388 . S
C996 H983 0.930 . S
C996 C995 1.388 . S
C996 C997 1.390 . S
C997 C996 1.390 . S
C997 C998 1.394 . S
C997 C1003 1.465 . S
C998 C993 1.399 . S
C998 C997 1.394 . S
C998 C999 1.516 . S
C999 C998 1.516 . S
C999 C1000 1.502 . S
C999 C1001 1.561 . S
C999 C1002 1.526 . S
C1000 H984 0.959 . S
C1000 H985 0.959 . S
C1000 H986 0.961 . S
C1000 C999 1.502 . S
C1001 H987 0.960 . S
C1001 H988 0.961 . S
C1001 H989 0.959 . S
C1001 C999 1.561 . S
C1002 C999 1.526 . S
C1002 C1003 1.396 . S
C1002 C1007 1.390 . S
C1003 C997 1.465 . S
C1003 C1002 1.396 . S
C1003 C1004 1.399 . S
C1004 H990 0.929 . S
C1004 C1003 1.399 . S
C1004 C1005 1.385 . S
C1005 H991 0.931 . S
C1005 C1004 1.385 . S
C1005 C1006 1.389 . S
C1006 C1005 1.389 . S
C1006 C1007 1.387 . S
C1007 H992 0.930 . S
C1007 C1002 1.390 . S
C1007 C1006 1.387 . S
H1008 C1020 0.930 . S
H1009 C1022 0.930 . S
H1010 C1023 0.930 . S
H1011 C1027 0.959 . S
H1012 C1027 0.959 . S
H1013 C1027 0.961 . S
H1014 C1028 0.960 . S
H1015 C1028 0.961 . S
H1016 C1028 0.959 . S
H1017 C1031 0.929 . S
H1018 C1032 0.931 . S
H1019 C1034 0.930 . S
C1020 H1008 0.930 . S
C1020 C1021 1.399 . S
C1020 C1025 1.399 . S
C1021 C1020 1.399 . S
C1021 C1022 1.376 . S
C1022 H1009 0.930 . S
C1022 C1021 1.376 . S
C1022 C1023 1.388 . S
C1023 H1010 0.930 . S
C1023 C1022 1.388 . S
C1023 C1024 1.390 . S
C1024 C1023 1.390 . S
C1024 C1025 1.394 . S
C1024 C1030 1.465 . S
C1025 C1020 1.399 . S
C1025 C1024 1.394 . S
C1025 C1026 1.516 . S
C1026 C1025 1.516 . S
C1026 C1027 1.502 . S
C1026 C1028 1.561 . S
C1026 C1029 1.526 . S
C1027 H1011 0.959 . S
C1027 H1012 0.959 . S
C1027 H1013 0.961 . S
C1027 C1026 1.502 . S
C1028 H1014 0.960 . S
C1028 H1015 0.961 . S
C1028 H1016 0.959 . S
C1028 C1026 1.561 . S
C1029 C1026 1.526 . S
C1029 C1030 1.396 . S
C1029 C1034 1.390 . S
C1030 C1024 1.465 . S
C1030 C1029 1.396 . S
C1030 C1031 1.399 . S
C1031 H1017 0.929 . S
C1031 C1030 1.399 . S
C1031 C1032 1.385 . S
C1032 H1018 0.931 . S
C1032 C1031 1.385 . S
C1032 C1033 1.389 . S
C1033 C1032 1.389 . S
C1033 C1034 1.387 . S
C1034 H1019 0.930 . S
C1034 C1029 1.390 . S
C1034 C1033 1.387 . S
H1035 C1047 0.930 . S
H1036 C1049 0.930 . S
H1037 C1050 0.930 . S
H1038 C1054 0.959 . S
H1039 C1054 0.959 . S
H1040 C1054 0.961 . S
H1041 C1055 0.960 . S
H1042 C1055 0.961 . S
H1043 C1055 0.959 . S
H1044 C1058 0.929 . S
H1045 C1059 0.931 . S
H1046 C1061 0.930 . S
C1047 H1035 0.930 . S
C1047 C1048 1.399 . S
C1047 C1052 1.399 . S
C1048 C1047 1.399 . S
C1048 C1049 1.376 . S
C1049 H1036 0.930 . S
C1049 C1048 1.376 . S
C1049 C1050 1.388 . S
C1050 H1037 0.930 . S
C1050 C1049 1.388 . S
C1050 C1051 1.390 . S
C1051 C1050 1.390 . S
C1051 C1052 1.394 . S
C1051 C1057 1.465 . S
C1052 C1047 1.399 . S
C1052 C1051 1.394 . S
C1052 C1053 1.516 . S
C1053 C1052 1.516 . S
C1053 C1054 1.502 . S
C1053 C1055 1.561 . S
C1053 C1056 1.526 . S
C1054 H1038 0.959 . S
C1054 H1039 0.959 . S
C1054 H1040 0.961 . S
C1054 C1053 1.502 . S
C1055 H1041 0.960 . S
C1055 H1042 0.961 . S
C1055 H1043 0.959 . S
C1055 C1053 1.561 . S
C1056 C1053 1.526 . S
C1056 C1057 1.396 . S
C1056 C1061 1.390 . S
C1057 C1051 1.465 . S
C1057 C1056 1.396 . S
C1057 C1058 1.399 . S
C1058 H1044 0.929 . S
C1058 C1057 1.399 . S
C1058 C1059 1.385 . S
C1059 H1045 0.931 . S
C1059 C1058 1.385 . S
C1059 C1060 1.389 . S
C1060 C1059 1.389 . S
C1060 C1061 1.387 . S
C1061 H1046 0.930 . S
C1061 C1056 1.390 . S
C1061 C1060 1.387 . S
H1062 C1074 0.930 . S
H1063 C1076 0.930 . S
H1064 C1077 0.930 . S
H1065 C1081 0.959 . S
H1066 C1081 0.959 . S
H1067 C1081 0.961 . S
H1068 C1082 0.960 . S
H1069 C1082 0.961 . S
H1070 C1082 0.959 . S
H1071 C1085 0.929 . S
H1072 C1086 0.931 . S
H1073 C1088 0.930 . S
C1074 H1062 0.930 . S
C1074 C1075 1.399 . S
C1074 C1079 1.399 . S
C1075 C1074 1.399 . S
C1075 C1076 1.376 . S
C1076 H1063 0.930 . S
C1076 C1075 1.376 . S
C1076 C1077 1.388 . S
C1077 H1064 0.930 . S
C1077 C1076 1.388 . S
C1077 C1078 1.390 . S
C1078 C1077 1.390 . S
C1078 C1079 1.394 . S
C1078 C1084 1.465 . S
C1079 C1074 1.399 . S
C1079 C1078 1.394 . S
C1079 C1080 1.516 . S
C1080 C1079 1.516 . S
C1080 C1081 1.502 . S
C1080 C1082 1.561 . S
C1080 C1083 1.526 . S
C1081 H1065 0.959 . S
C1081 H1066 0.959 . S
C1081 H1067 0.961 . S
C1081 C1080 1.502 . S
C1082 H1068 0.960 . S
C1082 H1069 0.961 . S
C1082 H1070 0.959 . S
C1082 C1080 1.561 . S
C1083 C1080 1.526 . S
C1083 C1084 1.396 . S
C1083 C1088 1.390 . S
C1084 C1078 1.465 . S
C1084 C1083 1.396 . S
C1084 C1085 1.399 . S
C1085 H1071 0.929 . S
C1085 C1084 1.399 . S
C1085 C1086 1.385 . S
C1086 H1072 0.931 . S
C1086 C1085 1.385 . S
C1086 C1087 1.389 . S
C1087 C1086 1.389 . S
C1087 C1088 1.387 . S
C1088 H1073 0.930 . S
C1088 C1083 1.390 . S
C1088 C1087 1.387 . S
H1089 C1101 0.930 . S
H1090 C1103 0.930 . S
H1091 C1104 0.930 . S
H1092 C1108 0.959 . S
H1093 C1108 0.959 . S
H1094 C1108 0.961 . S
H1095 C1109 0.960 . S
H1096 C1109 0.961 . S
H1097 C1109 0.959 . S
H1098 C1112 0.929 . S
H1099 C1113 0.931 . S
H1100 C1115 0.930 . S
C1101 H1089 0.930 . S
C1101 C1102 1.399 . S
C1101 C1106 1.399 . S
C1102 C1101 1.399 . S
C1102 C1103 1.376 . S
C1103 H1090 0.930 . S
C1103 C1102 1.376 . S
C1103 C1104 1.388 . S
C1104 H1091 0.930 . S
C1104 C1103 1.388 . S
C1104 C1105 1.390 . S
C1105 C1104 1.390 . S
C1105 C1106 1.394 . S
C1105 C1111 1.465 . S
C1106 C1101 1.399 . S
C1106 C1105 1.394 . S
C1106 C1107 1.516 . S
C1107 C1106 1.516 . S
C1107 C1108 1.502 . S
C1107 C1109 1.561 . S
C1107 C1110 1.526 . S
C1108 H1092 0.959 . S
C1108 H1093 0.959 . S
C1108 H1094 0.961 . S
C1108 C1107 1.502 . S
C1109 H1095 0.960 . S
C1109 H1096 0.961 . S
C1109 H1097 0.959 . S
C1109 C1107 1.561 . S
C1110 C1107 1.526 . S
C1110 C1111 1.396 . S
C1110 C1115 1.390 . S
C1111 C1105 1.465 . S
C1111 C1110 1.396 . S
C1111 C1112 1.399 . S
C1112 H1098 0.929 . S
C1112 C1111 1.399 . S
C1112 C1113 1.385 . S
C1113 H1099 0.931 . S
C1113 C1112 1.385 . S
C1113 C1114 1.389 . S
C1114 C1113 1.389 . S
C1114 C1115 1.387 . S
C1115 H1100 0.930 . S
C1115 C1110 1.390 . S
C1115 C1114 1.387 . S
H1116 C1128 0.930 . S
H1117 C1130 0.930 . S
H1118 C1131 0.930 . S
H1119 C1135 0.959 . S
H1120 C1135 0.959 . S
H1121 C1135 0.961 . S
H1122 C1136 0.960 . S
H1123 C1136 0.961 . S
H1124 C1136 0.959 . S
H1125 C1139 0.929 . S
H1126 C1140 0.931 . S
H1127 C1142 0.930 . S
C1128 H1116 0.930 . S
C1128 C1129 1.399 . S
C1128 C1133 1.399 . S
C1129 C1128 1.399 . S
C1129 C1130 1.376 . S
C1130 H1117 0.930 . S
C1130 C1129 1.376 . S
C1130 C1131 1.388 . S
C1131 H1118 0.930 . S
C1131 C1130 1.388 . S
C1131 C1132 1.390 . S
C1132 C1131 1.390 . S
C1132 C1133 1.394 . S
C1132 C1138 1.465 . S
C1133 C1128 1.399 . S
C1133 C1132 1.394 . S
C1133 C1134 1.516 . S
C1134 C1133 1.516 . S
C1134 C1135 1.502 . S
C1134 C1136 1.561 . S
C1134 C1137 1.526 . S
C1135 H1119 0.959 . S
C1135 H1120 0.959 . S
C1135 H1121 0.961 . S
C1135 C1134 1.502 . S
C1136 H1122 0.960 . S
C1136 H1123 0.961 . S
C1136 H1124 0.959 . S
C1136 C1134 1.561 . S
C1137 C1134 1.526 . S
C1137 C1138 1.396 . S
C1137 C1142 1.390 . S
C1138 C1132 1.465 . S
C1138 C1137 1.396 . S
C1138 C1139 1.399 . S
C1139 H1125 0.929 . S
C1139 C1138 1.399 . S
C1139 C1140 1.385 . S
C1140 H1126 0.931 . S
C1140 C1139 1.385 . S
C1140 C1141 1.389 . S
C1141 C1140 1.389 . S
C1141 C1142 1.387 . S
C1142 H1127 0.930 . S
C1142 C1137 1.390 . S
C1142 C1141 1.387 . S
H1143 C1155 0.930 . S
H1144 C1157 0.930 . S
H1145 C1158 0.930 . S
H1146 C1162 0.959 . S
H1147 C1162 0.959 . S
H1148 C1162 0.961 . S
H1149 C1163 0.960 . S
H1150 C1163 0.961 . S
H1151 C1163 0.959 . S
H1152 C1166 0.929 . S
H1153 C1167 0.931 . S
H1154 C1169 0.930 . S
C1155 H1143 0.930 . S
C1155 C1156 1.399 . S
C1155 C1160 1.399 . S
C1156 C1155 1.399 . S
C1156 C1157 1.376 . S
C1157 H1144 0.930 . S
C1157 C1156 1.376 . S
C1157 C1158 1.388 . S
C1158 H1145 0.930 . S
C1158 C1157 1.388 . S
C1158 C1159 1.390 . S
C1159 C1158 1.390 . S
C1159 C1160 1.394 . S
C1159 C1165 1.465 . S
C1160 C1155 1.399 . S
C1160 C1159 1.394 . S
C1160 C1161 1.516 . S
C1161 C1160 1.516 . S
C1161 C1162 1.502 . S
C1161 C1163 1.561 . S
C1161 C1164 1.526 . S
C1162 H1146 0.959 . S
C1162 H1147 0.959 . S
C1162 H1148 0.961 . S
C1162 C1161 1.502 . S
C1163 H1149 0.960 . S
C1163 H1150 0.961 . S
C1163 H1151 0.959 . S
C1163 C1161 1.561 . S
C1164 C1161 1.526 . S
C1164 C1165 1.396 . S
C1164 C1169 1.390 . S
C1165 C1159 1.465 . S
C1165 C1164 1.396 . S
C1165 C1166 1.399 . S
C1166 H1152 0.929 . S
C1166 C1165 1.399 . S
C1166 C1167 1.385 . S
C1167 H1153 0.931 . S
C1167 C1166 1.385 . S
C1167 C1168 1.389 . S
C1168 C1167 1.389 . S
C1168 C1169 1.387 . S
C1169 H1154 0.930 . S
C1169 C1164 1.390 . S
C1169 C1168 1.387 . S
H1170 C1182 0.930 . S
H1171 C1184 0.930 . S
H1172 C1185 0.930 . S
H1173 C1189 0.959 . S
H1174 C1189 0.959 . S
H1175 C1189 0.961 . S
H1176 C1190 0.960 . S
H1177 C1190 0.961 . S
H1178 C1190 0.959 . S
H1179 C1193 0.929 . S
H1180 C1194 0.931 . S
H1181 C1196 0.930 . S
C1182 H1170 0.930 . S
C1182 C1183 1.399 . S
C1182 C1187 1.399 . S
C1183 C1182 1.399 . S
C1183 C1184 1.376 . S
C1184 H1171 0.930 . S
C1184 C1183 1.376 . S
C1184 C1185 1.388 . S
C1185 H1172 0.930 . S
C1185 C1184 1.388 . S
C1185 C1186 1.390 . S
C1186 C1185 1.390 . S
C1186 C1187 1.394 . S
C1186 C1192 1.465 . S
C1187 C1182 1.399 . S
C1187 C1186 1.394 . S
C1187 C1188 1.516 . S
C1188 C1187 1.516 . S
C1188 C1189 1.502 . S
C1188 C1190 1.561 . S
C1188 C1191 1.526 . S
C1189 H1173 0.959 . S
C1189 H1174 0.959 . S
C1189 H1175 0.961 . S
C1189 C1188 1.502 . S
C1190 H1176 0.960 . S
C1190 H1177 0.961 . S
C1190 H1178 0.959 . S
C1190 C1188 1.561 . S
C1191 C1188 1.526 . S
C1191 C1192 1.396 . S
C1191 C1196 1.390 . S
C1192 C1186 1.465 . S
C1192 C1191 1.396 . S
C1192 C1193 1.399 . S
C1193 H1179 0.929 . S
C1193 C1192 1.399 . S
C1193 C1194 1.385 . S
C1194 H1180 0.931 . S
C1194 C1193 1.385 . S
C1194 C1195 1.389 . S
C1195 C1194 1.389 . S
C1195 C1196 1.387 . S
C1196 H1181 0.930 . S
C1196 C1191 1.390 . S
C1196 C1195 1.387 . S
H1197 C1209 0.930 . S
H1198 C1211 0.930 . S
H1199 C1212 0.930 . S
H1200 C1216 0.959 . S
H1201 C1216 0.959 . S
H1202 C1216 0.961 . S
H1203 C1217 0.960 . S
H1204 C1217 0.961 . S
H1205 C1217 0.959 . S
H1206 C1220 0.929 . S
H1207 C1221 0.931 . S
H1208 C1223 0.930 . S
C1209 H1197 0.930 . S
C1209 C1210 1.399 . S
C1209 C1214 1.399 . S
C1210 C1209 1.399 . S
C1210 C1211 1.376 . S
C1211 H1198 0.930 . S
C1211 C1210 1.376 . S
C1211 C1212 1.388 . S
C1212 H1199 0.930 . S
C1212 C1211 1.388 . S
C1212 C1213 1.390 . S
C1213 C1212 1.390 . S
C1213 C1214 1.394 . S
C1213 C1219 1.465 . S
C1214 C1209 1.399 . S
C1214 C1213 1.394 . S
C1214 C1215 1.516 . S
C1215 C1214 1.516 . S
C1215 C1216 1.502 . S
C1215 C1217 1.561 . S
C1215 C1218 1.526 . S
C1216 H1200 0.959 . S
C1216 H1201 0.959 . S
C1216 H1202 0.961 . S
C1216 C1215 1.502 . S
C1217 H1203 0.960 . S
C1217 H1204 0.961 . S
C1217 H1205 0.959 . S
C1217 C1215 1.561 . S
C1218 C1215 1.526 . S
C1218 C1219 1.396 . S
C1218 C1223 1.390 . S
C1219 C1213 1.465 . S
C1219 C1218 1.396 . S
C1219 C1220 1.399 . S
C1220 H1206 0.929 . S
C1220 C1219 1.399 . S
C1220 C1221 1.385 . S
C1221 H1207 0.931 . S
C1221 C1220 1.385 . S
C1221 C1222 1.389 . S
C1222 C1221 1.389 . S
C1222 C1223 1.387 . S
C1223 H1208 0.930 . S
C1223 C1218 1.390 . S
C1223 C1222 1.387 . S
C265 C249 1.819 . S
C277 C11 1.803 . S
C292 C221 1.810 . S
C304 C25 1.813 . S
C319 C235 1.822 . S
C331 C39 1.800 . S
C346 C109 1.815 . S
C358 C53 1.808 . S
C373 C123 1.807 . S
C385 C67 1.815 . S
C400 C81 1.803 . S
C412 C95 1.817 . S
C427 C137 1.822 . S
C439 C193 1.799 . S
C454 C151 1.799 . S
C466 C207 1.820 . S
C481 C165 1.800 . S
C493 C179 1.820 . S
C508 C5 0.548 . S
C520 C243 0.590 . S
C535 C215 0.536 . S
C547 C19 0.597 . S
C562 C33 0.584 . S
C574 C229 0.556 . S
C589 C103 0.551 . S
C601 C47 0.587 . S
C616 C61 0.568 . S
C628 C117 0.560 . S
C643 C75 0.583 . S
C655 C89 0.546 . S
C670 C131 0.536 . S
C682 C187 0.594 . S
C697 C201 0.542 . S
C709 C145 0.587 . S
C724 C173 0.593 . S
C736 C159 0.537 . S
C751 C9 1.669 . S
C763 C51 1.655 . S
C778 C65 1.655 . S
C790 C23 1.667 . S
C805 C79 1.658 . S
C817 C37 1.672 . S
C832 C70 1.648 . S
C844 C14 1.641 . S
C859 C28 1.627 . S
C871 C42 1.655 . S
C886 C56 1.654 . S
C898 C0 1.613 . S
C913 C93 1.666 . S
C925 C135 1.656 . S
C940 C149 1.667 . S
C952 C107 1.668 . S
C967 C163 1.655 . S
C979 C121 1.669 . S
C994 C154 1.653 . S
C1006 C98 1.611 . S
C1021 C112 1.626 . S
C1033 C126 1.655 . S
C1048 C140 1.613 . S
C1060 C84 1.654 . S
C1075 C219 1.671 . S
C1087 C177 1.661 . S
C1102 C233 1.662 . S
C1114 C191 1.658 . S
C1129 C205 1.665 . S
C1141 C247 1.656 . S
C1156 C238 1.615 . S
C1168 C182 1.655 . S
C1183 C196 1.617 . S
C1195 C210 1.655 . S
C1210 C224 1.606 . S
C1222 C168 1.646 . S
