# Generated by pormake.
# Topology uka, (4)-cn, num edge types: 1
# Building blocks:
#     Node 0, Type 0, BuildingBlock: AZAVOO_clean_sbu_0, # of connection points: 4
#     Node 1, Type 0, BuildingBlock: AZAVOO_clean_sbu_0, # of connection points: 4
#     Node 2, Type 0, BuildingBlock: AZAVOO_clean_sbu_0, # of connection points: 4
#     Node 3, Type 0, BuildingBlock: AZAVOO_clean_sbu_0, # of connection points: 4
#     Node 4, Type 0, BuildingBlock: AZAVOO_clean_sbu_0, # of connection points: 4
#     Node 5, Type 0, BuildingBlock: AZAVOO_clean_sbu_0, # of connection points: 4
#     Node 6, Type 0, BuildingBlock: AZAVOO_clean_sbu_0, # of connection points: 4
#     Node 7, Type 0, BuildingBlock: AZAVOO_clean_sbu_0, # of connection points: 4
#     Node 8, Type 0, BuildingBlock: AZAVOO_clean_sbu_0, # of connection points: 4
#     Node 9, Type 0, BuildingBlock: AZAVOO_clean_sbu_0, # of connection points: 4
#     Node 10, Type 0, BuildingBlock: AZAVOO_clean_sbu_0, # of connection points: 4
#     Node 11, Type 0, BuildingBlock: AZAVOO_clean_sbu_0, # of connection points: 4
#     Node 12, Type 0, BuildingBlock: AZAVOO_clean_sbu_0, # of connection points: 4
#     Node 13, Type 0, BuildingBlock: AZAVOO_clean_sbu_0, # of connection points: 4
#     Node 14, Type 0, BuildingBlock: AZAVOO_clean_sbu_0, # of connection points: 4
#     Node 15, Type 0, BuildingBlock: AZAVOO_clean_sbu_0, # of connection points: 4
#     Node 16, Type 0, BuildingBlock: AZAVOO_clean_sbu_0, # of connection points: 4
#     Node 17, Type 0, BuildingBlock: AZAVOO_clean_sbu_0, # of connection points: 4
#     Node 18, Type 0, BuildingBlock: AZAVOO_clean_sbu_0, # of connection points: 4
#     Node 19, Type 0, BuildingBlock: AZAVOO_clean_sbu_0, # of connection points: 4
#     Node 20, Type 0, BuildingBlock: AZAVOO_clean_sbu_0, # of connection points: 4
#     Node 21, Type 0, BuildingBlock: AZAVOO_clean_sbu_0, # of connection points: 4
#     Node 22, Type 0, BuildingBlock: AZAVOO_clean_sbu_0, # of connection points: 4
#     Node 23, Type 0, BuildingBlock: AZAVOO_clean_sbu_0, # of connection points: 4
#     Node 24, Type 0, BuildingBlock: AZAVOO_clean_sbu_0, # of connection points: 4
#     Node 25, Type 0, BuildingBlock: AZAVOO_clean_sbu_0, # of connection points: 4
#     Node 26, Type 0, BuildingBlock: AZAVOO_clean_sbu_0, # of connection points: 4
#     Node 27, Type 0, BuildingBlock: AZAVOO_clean_sbu_0, # of connection points: 4
#     Node 28, Type 0, BuildingBlock: AZAVOO_clean_sbu_0, # of connection points: 4
#     Node 29, Type 0, BuildingBlock: AZAVOO_clean_sbu_0, # of connection points: 4
#     Node 30, Type 0, BuildingBlock: AZAVOO_clean_sbu_0, # of connection points: 4
#     Node 31, Type 0, BuildingBlock: AZAVOO_clean_sbu_0, # of connection points: 4
#     Edge 32, Type (0, 0), BuildingBlock: KIFKEQ_clean_linker_1, # of connection points: 2
#     Edge 33, Type (0, 0), BuildingBlock: KIFKEQ_clean_linker_1, # of connection points: 2
#     Edge 34, Type (0, 0), BuildingBlock: KIFKEQ_clean_linker_1, # of connection points: 2
#     Edge 35, Type (0, 0), BuildingBlock: KIFKEQ_clean_linker_1, # of connection points: 2
#     Edge 36, Type (0, 0), BuildingBlock: KIFKEQ_clean_linker_1, # of connection points: 2
#     Edge 37, Type (0, 0), BuildingBlock: KIFKEQ_clean_linker_1, # of connection points: 2
#     Edge 38, Type (0, 0), BuildingBlock: KIFKEQ_clean_linker_1, # of connection points: 2
#     Edge 39, Type (0, 0), BuildingBlock: KIFKEQ_clean_linker_1, # of connection points: 2
#     Edge 40, Type (0, 0), BuildingBlock: KIFKEQ_clean_linker_1, # of connection points: 2
#     Edge 41, Type (0, 0), BuildingBlock: KIFKEQ_clean_linker_1, # of connection points: 2
#     Edge 42, Type (0, 0), BuildingBlock: KIFKEQ_clean_linker_1, # of connection points: 2
#     Edge 43, Type (0, 0), BuildingBlock: KIFKEQ_clean_linker_1, # of connection points: 2
#     Edge 44, Type (0, 0), BuildingBlock: KIFKEQ_clean_linker_1, # of connection points: 2
#     Edge 45, Type (0, 0), BuildingBlock: KIFKEQ_clean_linker_1, # of connection points: 2
#     Edge 46, Type (0, 0), BuildingBlock: KIFKEQ_clean_linker_1, # of connection points: 2
#     Edge 47, Type (0, 0), BuildingBlock: KIFKEQ_clean_linker_1, # of connection points: 2
#     Edge 48, Type (0, 0), BuildingBlock: KIFKEQ_clean_linker_1, # of connection points: 2
#     Edge 49, Type (0, 0), BuildingBlock: KIFKEQ_clean_linker_1, # of connection points: 2
#     Edge 50, Type (0, 0), BuildingBlock: KIFKEQ_clean_linker_1, # of connection points: 2
#     Edge 51, Type (0, 0), BuildingBlock: KIFKEQ_clean_linker_1, # of connection points: 2
#     Edge 52, Type (0, 0), BuildingBlock: KIFKEQ_clean_linker_1, # of connection points: 2
#     Edge 53, Type (0, 0), BuildingBlock: KIFKEQ_clean_linker_1, # of connection points: 2
#     Edge 54, Type (0, 0), BuildingBlock: KIFKEQ_clean_linker_1, # of connection points: 2
#     Edge 55, Type (0, 0), BuildingBlock: KIFKEQ_clean_linker_1, # of connection points: 2
#     Edge 56, Type (0, 0), BuildingBlock: KIFKEQ_clean_linker_1, # of connection points: 2
#     Edge 57, Type (0, 0), BuildingBlock: KIFKEQ_clean_linker_1, # of connection points: 2
#     Edge 58, Type (0, 0), BuildingBlock: KIFKEQ_clean_linker_1, # of connection points: 2
#     Edge 59, Type (0, 0), BuildingBlock: KIFKEQ_clean_linker_1, # of connection points: 2
#     Edge 60, Type (0, 0), BuildingBlock: KIFKEQ_clean_linker_1, # of connection points: 2
#     Edge 61, Type (0, 0), BuildingBlock: KIFKEQ_clean_linker_1, # of connection points: 2
#     Edge 62, Type (0, 0), BuildingBlock: KIFKEQ_clean_linker_1, # of connection points: 2
#     Edge 63, Type (0, 0), BuildingBlock: KIFKEQ_clean_linker_1, # of connection points: 2
#     Edge 64, Type (0, 0), BuildingBlock: KIFKEQ_clean_linker_1, # of connection points: 2
#     Edge 65, Type (0, 0), BuildingBlock: KIFKEQ_clean_linker_1, # of connection points: 2
#     Edge 66, Type (0, 0), BuildingBlock: KIFKEQ_clean_linker_1, # of connection points: 2
#     Edge 67, Type (0, 0), BuildingBlock: KIFKEQ_clean_linker_1, # of connection points: 2
#     Edge 68, Type (0, 0), BuildingBlock: KIFKEQ_clean_linker_1, # of connection points: 2
#     Edge 69, Type (0, 0), BuildingBlock: KIFKEQ_clean_linker_1, # of connection points: 2
#     Edge 70, Type (0, 0), BuildingBlock: KIFKEQ_clean_linker_1, # of connection points: 2
#     Edge 71, Type (0, 0), BuildingBlock: KIFKEQ_clean_linker_1, # of connection points: 2
#     Edge 72, Type (0, 0), BuildingBlock: KIFKEQ_clean_linker_1, # of connection points: 2
#     Edge 73, Type (0, 0), BuildingBlock: KIFKEQ_clean_linker_1, # of connection points: 2
#     Edge 74, Type (0, 0), BuildingBlock: KIFKEQ_clean_linker_1, # of connection points: 2
#     Edge 75, Type (0, 0), BuildingBlock: KIFKEQ_clean_linker_1, # of connection points: 2
#     Edge 76, Type (0, 0), BuildingBlock: KIFKEQ_clean_linker_1, # of connection points: 2
#     Edge 77, Type (0, 0), BuildingBlock: KIFKEQ_clean_linker_1, # of connection points: 2
#     Edge 78, Type (0, 0), BuildingBlock: KIFKEQ_clean_linker_1, # of connection points: 2
#     Edge 79, Type (0, 0), BuildingBlock: KIFKEQ_clean_linker_1, # of connection points: 2
#     Edge 80, Type (0, 0), BuildingBlock: KIFKEQ_clean_linker_1, # of connection points: 2
#     Edge 81, Type (0, 0), BuildingBlock: KIFKEQ_clean_linker_1, # of connection points: 2
#     Edge 82, Type (0, 0), BuildingBlock: KIFKEQ_clean_linker_1, # of connection points: 2
#     Edge 83, Type (0, 0), BuildingBlock: KIFKEQ_clean_linker_1, # of connection points: 2
#     Edge 84, Type (0, 0), BuildingBlock: KIFKEQ_clean_linker_1, # of connection points: 2
#     Edge 85, Type (0, 0), BuildingBlock: KIFKEQ_clean_linker_1, # of connection points: 2
#     Edge 86, Type (0, 0), BuildingBlock: KIFKEQ_clean_linker_1, # of connection points: 2
#     Edge 87, Type (0, 0), BuildingBlock: KIFKEQ_clean_linker_1, # of connection points: 2
#     Edge 88, Type (0, 0), BuildingBlock: KIFKEQ_clean_linker_1, # of connection points: 2
#     Edge 89, Type (0, 0), BuildingBlock: KIFKEQ_clean_linker_1, # of connection points: 2
#     Edge 90, Type (0, 0), BuildingBlock: KIFKEQ_clean_linker_1, # of connection points: 2
#     Edge 91, Type (0, 0), BuildingBlock: KIFKEQ_clean_linker_1, # of connection points: 2
#     Edge 92, Type (0, 0), BuildingBlock: KIFKEQ_clean_linker_1, # of connection points: 2
#     Edge 93, Type (0, 0), BuildingBlock: KIFKEQ_clean_linker_1, # of connection points: 2
#     Edge 94, Type (0, 0), BuildingBlock: KIFKEQ_clean_linker_1, # of connection points: 2
#     Edge 95, Type (0, 0), BuildingBlock: KIFKEQ_clean_linker_1, # of connection points: 2
# Relax obj value: 0.272
# Max RMSD: 0.259
# Mean RMSD: 0.247
data_MOF--net-uka--node1-AZAVOO_clean_sbu_0--edge1-KIFKEQ_clean_linker_1
_symmetry_space_group_name_H-M    P1
_symmetry_Int_Tables_number       1
_symmetry_cell_setting            triclinic
loop_
_symmetry_equiv_pos_as_xyz
'x, y, z'
_cell_length_a     62.84003
_cell_length_b     60.674287
_cell_length_c     43.445874
_cell_angle_alpha  89.786215
_cell_angle_beta   90.064897
_cell_angle_gamma 90.187211
loop_
_atom_site_label
_atom_site_type_symbol
_atom_site_fract_x
_atom_site_fract_y
_atom_site_fract_z
_atom_type_partial_charge
Mg0 Mg 0.10025 0.2553 0.24815 0.0
O1 O 0.08527 0.22152 0.26185 0.0
O2 O 0.05031 0.22783 0.266 0.0
Mg3 Mg 0.04278 0.26372 0.25653 0.0
C4 C 0.06628 0.21494 0.26754 0.0
C5 C 0.14392 0.23198 0.25602 0.0
O6 O 0.13677 0.23129 0.28441 0.0
O7 O 0.08772 0.25393 0.19837 0.0
O8 O 0.05315 0.26029 0.20656 0.0
O9 O 0.10394 0.26298 0.29811 0.0
O10 O 0.07552 0.27147 0.27071 0.0
C11 C 0.06877 0.25683 0.18852 0.0
C12 C 0.08477 0.27064 0.29716 0.0
O13 O 0.13187 0.23947 0.23492 0.0
Mg14 Mg -0.00522 0.84048 0.51322 0.0
O15 O 0.97378 0.84008 0.55676 0.0
O16 O -0.00573 0.85214 0.59533 0.0
Mg17 Mg 0.02766 0.85991 0.57756 0.0
C18 C 0.97649 0.84497 0.58512 0.0
C19 C 0.97311 0.8232 0.45816 0.0
O20 O -0.0062 0.821 0.45495 0.0
O21 O -0.00779 0.87821 0.50969 0.0
O22 O 0.01472 0.88781 0.54731 0.0
O23 O 0.00581 0.8065 0.52395 0.0
O24 O 0.02208 0.83653 0.54027 0.0
C25 C 0.00249 0.89283 0.52487 0.0
C26 C 0.02065 0.81537 0.54048 0.0
O27 O 0.96631 0.83327 0.48181 0.0
Mg28 Mg 0.36249 0.70273 0.7484 0.0
O29 O 0.38036 0.73412 0.76474 0.0
O30 O 0.41396 0.72357 0.77331 0.0
Mg31 Mg 0.41791 0.68708 0.76294 0.0
C32 C 0.39948 0.73827 0.77321 0.0
C33 C 0.32156 0.73075 0.75368 0.0
O34 O 0.32825 0.7308 0.78234 0.0
O35 O 0.37764 0.70349 0.7001 0.0
O36 O 0.41081 0.69311 0.71203 0.0
O37 O 0.35607 0.69489 0.79798 0.0
O38 O 0.38392 0.68296 0.77195 0.0
C39 C 0.3967 0.69871 0.69238 0.0
C40 C 0.37403 0.68453 0.7977 0.0
O41 O 0.33339 0.72235 0.73313 0.0
Mg42 Mg 0.46765 0.11512 0.01473 0.0
O43 O 0.48942 0.11706 0.05764 0.0
O44 O 0.47043 0.10366 0.09708 0.0
Mg45 Mg 0.43728 0.09377 0.0807 0.0
C46 C 0.48755 0.11196 0.08614 0.0
C47 C 0.48843 0.13397 0.9591 0.0
O48 O 0.46778 0.1368 0.95641 0.0
O49 O 0.47217 0.07777 0.01197 0.0
O50 O 0.45185 0.06634 0.05124 0.0
O51 O 0.4547 0.14842 0.02434 0.0
O52 O 0.44107 0.11757 0.04317 0.0
C53 C 0.46384 0.06236 0.02818 0.0
C54 C 0.44108 0.13877 0.04218 0.0
O55 O 0.49529 0.1233 0.98232 0.0
Mg56 Mg 0.09736 0.70264 0.23295 0.0
O57 O 0.08259 0.73628 0.21863 0.0
O58 O 0.0477 0.72974 0.21327 0.0
Mg59 Mg 0.04002 0.6938 0.22258 0.0
C60 C 0.0637 0.74272 0.21223 0.0
C61 C 0.14029 0.72713 0.22531 0.0
O62 O 0.13221 0.72893 0.19752 0.0
O63 O 0.08412 0.70393 0.28235 0.0
O64 O 0.04971 0.69726 0.27291 0.0
O65 O 0.10187 0.69503 0.18328 0.0
O66 O 0.07296 0.68629 0.20949 0.0
C67 C 0.06502 0.70082 0.29153 0.0
C68 C 0.08267 0.68731 0.18341 0.0
O69 O 0.12894 0.71865 0.24653 0.0
Mg70 Mg 0.4658 0.8414 0.4559 0.0
O71 O 0.4873 0.84114 0.41275 0.0
O72 O 0.46756 0.85416 0.37393 0.0
Mg73 Mg 0.43447 0.86297 0.39139 0.0
C74 C 0.485 0.84636 0.38437 0.0
C75 C 0.48648 0.82409 0.5118 0.0
O76 O 0.46572 0.8224 0.51485 0.0
O77 O 0.46923 0.8787 0.4605 0.0
O78 O 0.44857 0.89035 0.42178 0.0
O79 O 0.45417 0.80798 0.44455 0.0
O80 O 0.43874 0.83853 0.42819 0.0
C81 C 0.46051 0.89419 0.44501 0.0
C82 C 0.4397 0.81732 0.42783 0.0
O83 O 0.49371 0.83354 0.48781 0.0
Mg84 Mg 0.36001 0.25251 0.73057 0.0
O85 O 0.37842 0.22134 0.71509 0.0
O86 O 0.41206 0.23242 0.70777 0.0
Mg87 Mg 0.41556 0.26899 0.71811 0.0
C88 C 0.39772 0.21747 0.70739 0.0
C89 C 0.31928 0.22419 0.72324 0.0
O90 O 0.32669 0.2242 0.69498 0.0
O91 O 0.37434 0.25203 0.7795 0.0
O92 O 0.40759 0.26299 0.76874 0.0
O93 O 0.35436 0.26028 0.68078 0.0
O94 O 0.38171 0.27256 0.70779 0.0
C95 C 0.39323 0.25718 0.78788 0.0
C96 C 0.37223 0.27089 0.68169 0.0
O97 O 0.33065 0.23257 0.74447 0.0
Mg98 Mg -0.00251 0.11294 0.96254 0.0
O99 O 0.97626 0.11474 0.91918 0.0
O100 O -0.00404 0.1028 0.87985 0.0
Mg101 Mg 0.02889 0.09316 0.89727 0.0
C102 C 0.97857 0.11038 0.89059 0.0
C103 C 0.97632 0.13007 0.01788 0.0
O104 O -0.00296 0.13183 0.02138 0.0
O105 O -0.00647 0.07554 0.96508 0.0
O106 O 0.01423 0.06507 0.92591 0.0
O107 O 0.00952 0.14655 0.95295 0.0
O108 O 0.02473 0.11633 0.93539 0.0
C109 C 0.00213 0.06054 0.94871 0.0
C110 C 0.02393 0.13755 0.93593 0.0
O111 O 0.96934 0.1204 -0.00602 0.0
Mg112 Mg 0.84718 0.75516 0.75804 0.0
O113 O 0.85641 0.73578 0.71453 0.0
O114 O 0.84827 0.75625 0.67327 0.0
Mg115 Mg 0.83161 0.78711 0.68981 0.0
C116 C 0.85615 0.73891 0.68541 0.0
C117 C 0.87068 0.71449 0.78418 0.0
O118 O 0.88393 0.72172 0.76303 0.0
O119 O 0.81237 0.74588 0.7508 0.0
O120 O 0.8044 0.76544 0.70866 0.0
O121 O 0.87872 0.77139 0.75666 0.0
O122 O 0.85052 0.78452 0.73245 0.0
C123 C 0.79929 0.75179 0.72987 0.0
C124 C 0.87083 0.7852 0.73699 0.0
O125 O 0.85314 0.72455 0.78797 0.0
Mg126 Mg -0.00542 0.10636 0.48955 0.0
O127 O 0.01059 0.11216 0.44237 0.0
O128 O -0.01194 0.10077 0.40592 0.0
Mg129 Mg 0.9581 0.08735 0.42931 0.0
C130 C 0.00578 0.10931 0.41405 0.0
C131 C 0.02877 0.10923 0.54185 0.0
O132 O 0.0142 0.09747 0.55613 0.0
O133 O 0.00065 0.06923 0.48726 0.0
O134 O 0.97705 0.05911 0.45132 0.0
O135 O 0.97972 0.1394 0.48512 0.0
O136 O 0.96458 0.10848 0.46928 0.0
C137 C -0.00855 0.05443 0.47105 0.0
C138 C 0.96434 0.12967 0.47066 0.0
O139 O 0.026 0.11407 0.51364 0.0
Mg140 Mg 0.61677 0.2025 0.25871 0.0
O141 O 0.60631 0.22238 0.21623 0.0
O142 O 0.61624 0.20405 0.17398 0.0
Mg143 Mg 0.63318 0.17289 0.18927 0.0
C144 C 0.6073 0.2204 0.18699 0.0
C145 C 0.60478 0.22972 0.31694 0.0
O146 O 0.60491 0.20968 0.32852 0.0
O147 O 0.65134 0.21303 0.25168 0.0
O148 O 0.66 0.19438 0.20927 0.0
O149 O 0.58577 0.1854 0.25706 0.0
O150 O 0.61418 0.17369 0.23205 0.0
C151 C 0.6647 0.20774 0.2309 0.0
C152 C 0.5939 0.17236 0.23673 0.0
O153 O 0.60992 0.23245 0.28888 0.0
Mg154 Mg 0.47562 0.85005 -0.009 0.0
O155 O 0.4579 0.84321 0.9452 0.0
O156 O 0.47956 0.8547 0.9076 0.0
Mg157 Mg 0.51025 0.86859 0.92814 0.0
C158 C 0.46213 0.84594 0.91662 0.0
C159 C 0.45138 0.83737 0.04696 0.0
O160 O 0.47164 0.83865 0.05434 0.0
O161 O 0.46896 0.88716 0.98769 0.0
O162 O 0.49231 0.89683 0.95123 0.0
O163 O 0.49087 0.81703 0.98708 0.0
O164 O 0.5048 0.84784 0.96867 0.0
C165 C 0.47827 0.90183 0.97124 0.0
C166 C 0.50555 0.82672 0.97108 0.0
O167 O 0.44596 0.84258 0.01968 0.0
Mg168 Mg 0.84869 0.20503 0.72406 0.0
O169 O 0.85763 0.22264 0.76886 0.0
O170 O 0.8488 0.2009 0.80854 0.0
Mg171 Mg 0.83285 0.17016 0.78926 0.0
C172 C 0.85687 0.21864 0.79773 0.0
C173 C 0.84735 0.24182 0.67145 0.0
O174 O 0.83313 0.22862 0.65909 0.0
O175 O 0.81384 0.21386 0.7316 0.0
O176 O 0.80535 0.19131 0.77045 0.0
O177 O 0.88028 0.18915 0.72459 0.0
O178 O 0.85205 0.17464 0.74727 0.0
C179 C 0.80033 0.2061 0.75074 0.0
C180 C 0.8724 0.17445 0.743 0.0
O181 O 0.85532 0.23688 0.69748 0.0
Mg182 Mg 0.47121 0.10525 0.48907 0.0
O183 O 0.45536 0.11215 0.53604 0.0
O184 O 0.47787 0.1007 0.57252 0.0
Mg185 Mg 0.50758 0.08652 0.54966 0.0
C186 C 0.46032 0.10954 0.56438 0.0
C187 C 0.44176 0.11453 0.43483 0.0
O188 O 0.45994 0.10938 0.42184 0.0
O189 O 0.46422 0.06824 0.4928 0.0
O190 O 0.48857 0.05836 0.52774 0.0
O191 O 0.48702 0.13811 0.4919 0.0
O192 O 0.50124 0.10719 0.50919 0.0
C193 C 0.47386 0.05349 0.50861 0.0
C194 C 0.50217 0.12831 0.50674 0.0
O195 O 0.44023 0.11298 0.46394 0.0
Mg196 Mg 0.61412 0.75358 0.21705 0.0
O197 O 0.60539 0.73653 0.26256 0.0
O198 O 0.61422 0.75894 0.30134 0.0
Mg199 Mg 0.63012 0.78939 0.28093 0.0
C200 C 0.60617 0.74101 0.29126 0.0
C201 C 0.61448 0.71677 0.16489 0.0
O202 O 0.62792 0.73039 0.15154 0.0
O203 O 0.64911 0.74493 0.2247 0.0
O204 O 0.65749 0.768 0.26277 0.0
O205 O 0.58247 0.7694 0.21731 0.0
O206 O 0.61076 0.78426 0.23926 0.0
C207 C 0.6626 0.75301 0.2436 0.0
C208 C 0.59039 0.78431 0.23522 0.0
O209 O 0.60735 0.72139 0.19147 0.0
Mg210 Mg -0.00594 0.84744 0.98588 0.0
O211 O 0.01005 0.8425 0.03331 0.0
O212 O -0.01332 0.85317 0.06896 0.0
Mg213 Mg 0.95625 0.86483 0.04508 0.0
C214 C 0.0048 0.84539 0.06144 0.0
C215 C 0.02409 0.83998 0.93214 0.0
O216 O 0.00586 0.84494 0.91902 0.0
O217 O -0.00108 0.88486 0.98817 0.0
O218 O 0.97396 0.8937 0.02259 0.0
O219 O 0.98038 0.81366 -0.0096 0.0
O220 O 0.96411 0.84398 0.00568 0.0
C221 C -0.0115 0.89919 0.00351 0.0
C222 C 0.96461 0.82281 0.00456 0.0
O223 O 0.02546 0.84114 0.96129 0.0
Mg224 Mg 0.59761 0.75296 0.74306 0.0
O225 O 0.58307 0.71889 0.75604 0.0
O226 O 0.5484 0.72532 0.764 0.0
Mg227 Mg 0.54083 0.76161 0.75766 0.0
C228 C 0.56431 0.7123 0.76317 0.0
C229 C 0.64211 0.72862 0.74396 0.0
O230 O 0.62937 0.73744 0.72355 0.0
O231 O 0.58262 0.75317 0.69474 0.0
O232 O 0.54857 0.75949 0.7065 0.0
O233 O 0.6043 0.7586 0.79278 0.0
O234 O 0.57426 0.76787 0.76959 0.0
C235 C 0.5633 0.75643 0.68684 0.0
C236 C 0.58501 0.76585 0.79473 0.0
O237 O 0.62925 0.73736 0.72476 0.0
Mg238 Mg 0.49633 0.33877 0.0148 0.0
O239 O 0.47572 0.33935 0.05865 0.0
O240 O 0.49695 0.35025 0.09706 0.0
Mg241 Mg 0.5303 0.35737 0.07847 0.0
C242 C 0.47885 0.34381 0.08706 0.0
C243 C 0.47387 0.32204 0.96018 0.0
O244 O 0.49447 0.31917 0.95687 0.0
O245 O 0.49502 0.37655 0.01077 0.0
O246 O 0.51764 0.38554 0.04855 0.0
O247 O 0.50621 0.30456 0.0268 0.0
O248 O 0.52375 0.33444 0.0411 0.0
C249 C 0.50556 0.39091 0.02609 0.0
C250 C 0.52148 0.31341 0.04251 0.0
O251 O 0.46742 0.33226 0.98392 0.0
Mg252 Mg 0.867 0.20401 0.24518 0.0
O253 O 0.88102 0.23822 0.25843 0.0
O254 O 0.91598 0.23269 0.26445 0.0
Mg255 Mg 0.92433 0.19684 0.25667 0.0
C256 C 0.89975 0.24525 0.2648 0.0
C257 C 0.82195 0.22793 0.24844 0.0
O258 O 0.83452 0.21936 0.22775 0.0
O259 O 0.88066 0.2049 0.19607 0.0
O260 O 0.91513 0.19934 0.20607 0.0
O261 O 0.86212 0.19703 0.29515 0.0
O262 O 0.89139 0.18871 0.26965 0.0
C263 C 0.89984 0.20223 0.18718 0.0
C264 C 0.88144 0.18969 0.29553 0.0
O265 O 0.83464 0.21943 0.22891 0.0
Mg266 Mg 0.96681 0.6145 0.52014 0.0
O267 O -0.01117 0.61485 0.56256 0.0
O268 O 0.96945 0.60269 0.60231 0.0
Mg269 Mg 0.93563 0.59495 0.58619 0.0
C270 C -0.01308 0.60992 0.59108 0.0
C271 C -0.01234 0.63213 0.46435 0.0
O272 O 0.967 0.63504 0.46194 0.0
O273 O 0.96926 0.57688 0.51682 0.0
O274 O 0.94774 0.56701 0.55552 0.0
O275 O 0.9562 0.64845 0.53102 0.0
O276 O 0.94022 0.61849 0.5485 0.0
C277 C 0.95943 0.56215 0.5325 0.0
C278 C 0.94177 0.63965 0.54839 0.0
O279 O -0.00538 0.62155 0.48757 0.0
Mg280 Mg 0.60106 0.20374 0.72837 0.0
O281 O 0.58597 0.23743 0.71519 0.0
O282 O 0.55118 0.23047 0.70884 0.0
Mg283 Mg 0.54395 0.19413 0.71615 0.0
C284 C 0.56702 0.2437 0.70874 0.0
C285 C 0.64416 0.22848 0.72378 0.0
O286 O 0.63693 0.23057 0.69554 0.0
O287 O 0.58702 0.2039 0.77738 0.0
O288 O 0.55283 0.19685 0.76684 0.0
O289 O 0.60659 0.19729 0.67844 0.0
O290 O 0.57715 0.18814 0.70323 0.0
C291 C 0.56786 0.20037 0.78595 0.0
C292 C 0.58729 0.18987 0.67757 0.0
O293 O 0.63222 0.21965 0.74403 0.0
Mg294 Mg 0.9698 0.3421 0.96147 0.0
O295 O -0.00948 0.34073 0.91774 0.0
O296 O 0.97005 0.35235 0.87886 0.0
Mg297 Mg 0.93687 0.36072 0.89676 0.0
C298 C -0.01224 0.34515 0.8892 0.0
C299 C -0.00834 0.32513 0.01635 0.0
O300 O 0.971 0.32261 0.01959 0.0
O301 O 0.9729 0.37975 0.96336 0.0
O302 O 0.9503 0.38907 0.9257 0.0
O303 O 0.95827 0.30806 0.9525 0.0
O304 O 0.94227 0.33792 0.93505 0.0
C305 C 0.96275 0.39426 0.9478 0.0
C306 C 0.94342 0.31675 0.93583 0.0
O307 O -0.00161 0.33531 -0.00737 0.0
Mg308 Mg 0.86408 0.75131 0.22935 0.0
O309 O 0.87585 0.71656 0.21519 0.0
O310 O 0.91128 0.71929 0.2108 0.0
Mg311 Mg 0.92201 0.75445 0.21972 0.0
C312 C 0.89407 0.70816 0.20944 0.0
C313 C 0.81942 0.73012 0.22189 0.0
O314 O 0.82718 0.72797 0.19401 0.0
O315 O 0.87696 0.74909 0.27898 0.0
O316 O 0.91182 0.75262 0.27001 0.0
O317 O 0.86049 0.7592 0.17954 0.0
O318 O 0.88994 0.76523 0.20602 0.0
C319 C 0.89616 0.75069 0.28847 0.0
C320 C 0.88029 0.76507 0.17983 0.0
O321 O 0.83134 0.73793 0.24292 0.0
Mg322 Mg 0.49635 0.61834 0.46161 0.0
O323 O 0.47489 0.619 0.41844 0.0
O324 O 0.49506 0.60763 0.37927 0.0
Mg325 Mg 0.52866 0.60007 0.39628 0.0
C326 C 0.47735 0.61446 0.38993 0.0
C327 C 0.47509 0.6336 0.51814 0.0
O328 O 0.4958 0.63547 0.52165 0.0
O329 O 0.49414 0.58059 0.4643 0.0
O330 O 0.51619 0.57159 0.42599 0.0
O331 O 0.50711 0.65258 0.4515 0.0
O332 O 0.52333 0.62287 0.43431 0.0
C333 C 0.50424 0.56621 0.44858 0.0
C334 C 0.52185 0.64401 0.43461 0.0
O335 O 0.46815 0.62465 0.49365 0.0
Mg336 Mg 0.34873 0.25161 0.25568 0.0
O337 O 0.35766 0.23331 0.21128 0.0
O338 O 0.35025 0.25569 0.17159 0.0
Mg339 Mg 0.33411 0.28645 0.18999 0.0
C340 C 0.35762 0.2377 0.18248 0.0
C341 C 0.35642 0.22185 0.31246 0.0
O342 O 0.35444 0.24138 0.32508 0.0
O343 O 0.31381 0.2434 0.24766 0.0
O344 O 0.306 0.26563 0.20822 0.0
O345 O 0.38071 0.26704 0.25542 0.0
O346 O 0.35283 0.2818 0.23232 0.0
C347 C 0.30058 0.2511 0.22811 0.0
C348 C 0.37315 0.28179 0.23685 0.0
O349 O 0.35395 0.22008 0.28353 0.0
Mg350 Mg 0.49509 0.60398 0.98645 0.0
O351 O 0.51098 0.6103 0.93922 0.0
O352 O 0.48972 0.59631 0.90295 0.0
Mg353 Mg 0.46069 0.58093 0.92616 0.0
C354 C 0.50667 0.60643 0.91098 0.0
C355 C 0.52884 0.61033 0.03909 0.0
O356 O 0.51538 0.59725 0.05346 0.0
O357 O 0.50417 0.56734 0.98545 0.0
O358 O 0.48162 0.55506 0.9494 0.0
O359 O 0.47699 0.63545 0.98092 0.0
O360 O 0.46523 0.60293 0.96569 0.0
C361 C 0.49618 0.55171 0.96938 0.0
C362 C 0.46265 0.62393 0.96678 0.0
O363 O 0.52559 0.61489 0.01089 0.0
Mg364 Mg 0.11852 0.70476 0.75306 0.0
O365 O 0.10812 0.72278 0.70894 0.0
O366 O 0.11691 0.70164 0.66886 0.0
Mg367 Mg 0.13396 0.67118 0.68693 0.0
C368 C 0.10851 0.71899 0.68002 0.0
C369 C 0.1098 0.73381 0.80992 0.0
O370 O 0.11187 0.71418 0.82244 0.0
O371 O 0.1529 0.71468 0.74414 0.0
O372 O 0.16147 0.69293 0.70477 0.0
O373 O 0.0873 0.68792 0.75385 0.0
O374 O 0.11533 0.67465 0.72959 0.0
C375 C 0.16635 0.70767 0.72452 0.0
C376 C 0.09511 0.67369 0.73487 0.0
O377 O 0.11249 0.73587 0.78106 0.0
Mg378 Mg 0.96764 0.34928 0.49075 0.0
O379 O 0.95183 0.34481 0.44311 0.0
O380 O 0.97452 0.35738 0.40756 0.0
Mg381 Mg 0.00423 0.37039 0.43189 0.0
C382 C 0.9568 0.34852 0.41502 0.0
C383 C 0.93306 0.34584 0.54233 0.0
O384 O 0.94706 0.3584 0.55642 0.0
O385 O 0.96125 0.38639 0.49017 0.0
O386 O -0.01519 0.3977 0.45483 0.0
O387 O -0.01725 0.31652 0.48477 0.0
O388 O -0.0023 0.34804 0.47068 0.0
C389 C 0.97031 0.4017 0.4746 0.0
C390 C -0.00191 0.32684 0.47096 0.0
O391 O 0.93627 0.34066 0.5144 0.0
Mg392 Mg 0.3456 0.70279 0.21843 0.0
O393 O 0.35318 0.72213 0.2626 0.0
O394 O 0.34486 0.70114 0.30329 0.0
Mg395 Mg 0.33007 0.66938 0.2855 0.0
C396 C 0.35231 0.7189 0.29166 0.0
C397 C 0.36719 0.74587 0.19489 0.0
O398 O 0.37862 0.74135 0.21941 0.0
O399 O 0.31038 0.71084 0.22483 0.0
O400 O 0.30239 0.68939 0.26509 0.0
O401 O 0.37767 0.6879 0.22068 0.0
O402 O 0.34967 0.67344 0.24392 0.0
C403 C 0.29704 0.70339 0.24446 0.0
C404 C 0.37003 0.67362 0.23993 0.0
O405 O 0.3515 0.73344 0.18822 0.0
Mg406 Mg 0.97072 0.60762 0.98494 0.0
O407 O 0.95449 0.61204 0.03246 0.0
O408 O 0.9783 0.60151 0.06784 0.0
Mg409 Mg 0.00789 0.58817 0.04405 0.0
C410 C 0.96018 0.60943 0.06054 0.0
C411 C 0.93859 0.60964 0.93155 0.0
O412 O 0.95381 0.59739 0.92002 0.0
O413 O 0.96507 0.57042 0.98611 0.0
O414 O -0.01128 0.5601 0.02187 0.0
O415 O -0.01493 0.6409 -0.00948 0.0
O416 O 0.00069 0.60994 0.00512 0.0
C417 C 0.97432 0.55552 0.0021 0.0
C418 C 0.00055 0.63114 0.00468 0.0
O419 O 0.93972 0.61514 0.95971 0.0
Mg420 Mg 0.11505 0.24996 0.7206 0.0
O421 O 0.10662 0.23222 0.76564 0.0
O422 O 0.11611 0.25369 0.80509 0.0
Mg423 Mg 0.13196 0.28442 0.78537 0.0
C424 C 0.10784 0.23603 0.79448 0.0
C425 C 0.11605 0.21259 0.66891 0.0
O426 O 0.13103 0.22497 0.65669 0.0
O427 O 0.14989 0.2407 0.72746 0.0
O428 O 0.15895 0.26289 0.76622 0.0
O429 O 0.08359 0.26613 0.72183 0.0
O430 O 0.11221 0.28029 0.74383 0.0
C431 C 0.16364 0.24813 0.74647 0.0
C432 C 0.09182 0.28071 0.73999 0.0
O433 O 0.10778 0.21826 0.69436 0.0
Mg434 Mg 0.49195 0.35343 0.49065 0.0
O435 O 0.50926 0.34691 0.53677 0.0
O436 O 0.48937 0.36101 0.57438 0.0
Mg437 Mg 0.4598 0.37661 0.55305 0.0
C438 C 0.5059 0.35076 0.56527 0.0
C439 C 0.51954 0.33976 0.43538 0.0
O440 O 0.50151 0.3453 0.42213 0.0
O441 O 0.50142 0.39 0.49108 0.0
O442 O 0.48015 0.40248 0.52842 0.0
O443 O 0.47376 0.32204 0.4971 0.0
O444 O 0.46281 0.35454 0.5133 0.0
C445 C 0.49409 0.40571 0.5075 0.0
C446 C 0.45999 0.33355 0.51221 0.0
O447 O 0.52149 0.34253 0.46424 0.0
H448 H 0.04009 0.13695 0.42097 0.0
H449 H 0.00361 0.10233 0.3519 0.0
H450 H 0.05882 0.1571 0.38065 0.0
H451 H 0.02274 0.12208 0.31158 0.0
H452 H 0.03033 0.19037 0.26273 0.0
H453 H 0.01981 0.15973 0.29536 0.0
H454 H 0.08253 0.15888 0.33626 0.0
H455 H 0.09298 0.19008 0.30356 0.0
C456 C 0.03645 0.13318 0.39719 0.0
C457 C 0.02003 0.11831 0.38975 0.0
C458 C 0.04732 0.14467 0.37399 0.0
C459 C 0.0421 0.14145 0.34281 0.0
C460 C 0.02687 0.12529 0.33536 0.0
C461 C 0.01592 0.11392 0.35852 0.0
C462 C 0.04209 0.18324 0.27803 0.0
C463 C 0.06241 0.19277 0.28076 0.0
C464 C 0.03609 0.16555 0.29673 0.0
C465 C 0.05023 0.15695 0.31879 0.0
C466 C 0.07116 0.16533 0.31981 0.0
C467 C 0.07724 0.18302 0.30083 0.0
H468 H 0.01939 0.77077 0.54824 0.0
H469 H 0.05342 0.82911 0.57738 0.0
H470 H 0.04189 0.74827 0.58149 0.0
H471 H 0.07576 0.80657 0.61082 0.0
H472 H 0.09155 0.75947 0.69318 0.0
H473 H 0.07111 0.78329 0.65879 0.0
H474 H 0.08025 0.73716 0.58458 0.0
H475 H 0.10057 0.71329 0.61873 0.0
C476 C 0.03165 0.7788 0.56172 0.0
C477 C 0.03447 0.80176 0.56039 0.0
C478 C 0.04459 0.7659 0.58065 0.0
C479 C 0.06054 0.7757 0.59874 0.0
C480 C 0.06342 0.79864 0.59738 0.0
C481 C 0.05059 0.81153 0.57823 0.0
C482 C 0.08936 0.75448 0.66947 0.0
C483 C 0.09764 0.73442 0.65878 0.0
C484 C 0.07772 0.76817 0.64978 0.0
C485 C 0.07399 0.76196 0.61911 0.0
C486 C 0.08266 0.74219 0.60823 0.0
C487 C 0.09442 0.72861 0.62779 0.0
H488 H 0.46467 0.85071 0.8541 0.0
H489 H 0.42732 0.81898 0.92515 0.0
H490 H 0.44594 0.82947 0.81511 0.0
H491 H 0.4087 0.79757 0.88593 0.0
H492 H 0.37365 0.76548 0.80669 0.0
H493 H 0.38506 0.79642 0.83904 0.0
H494 H 0.4491 0.78973 0.8044 0.0
H495 H 0.43778 0.75904 0.77244 0.0
C496 C 0.4522 0.8395 0.86144 0.0
C497 C 0.44779 0.83631 0.89291 0.0
C498 C 0.44149 0.82729 0.83901 0.0
C499 C 0.42605 0.8116 0.84743 0.0
C500 C 0.42044 0.80961 0.87866 0.0
C501 C 0.4312 0.82183 0.90118 0.0
C502 C 0.39 0.7711 0.80535 0.0
C503 C 0.40485 0.75982 0.78711 0.0
C504 C 0.39657 0.78865 0.82409 0.0
C505 C 0.418 0.79545 0.82443 0.0
C506 C 0.43244 0.78509 0.80451 0.0
C507 C 0.42597 0.76742 0.78624 0.0
H508 H 0.37915 0.24806 0.13047 0.0
H509 H 0.35982 0.19277 0.18673 0.0
H510 H 0.39845 0.22354 0.09676 0.0
H511 H 0.37788 0.1677 0.15164 0.0
H512 H 0.43191 0.13179 0.10271 0.0
H513 H 0.41071 0.15507 0.13627 0.0
H514 H 0.39658 0.19778 0.05885 0.0
H515 H 0.41913 0.17525 0.02622 0.0
C516 C 0.37865 0.23052 0.13518 0.0
C517 C 0.36796 0.22228 0.16112 0.0
C518 C 0.38962 0.21635 0.11568 0.0
C519 C 0.38971 0.19346 0.12115 0.0
C520 C 0.37857 0.18521 0.14689 0.0
C521 C 0.36804 0.19952 0.1669 0.0
C522 C 0.42409 0.14608 0.09299 0.0
C523 C 0.42709 0.15183 0.06202 0.0
C524 C 0.41182 0.15943 0.11215 0.0
C525 C 0.40189 0.17851 0.10049 0.0
C526 C 0.40439 0.18366 0.06904 0.0
C527 C 0.41716 0.17067 0.05018 0.0
H528 H 0.09094 0.76733 0.17662 0.0
H529 H 0.02777 0.76723 0.21554 0.0
H530 H 0.08098 0.79806 0.14285 0.0
H531 H 0.01774 0.7974 0.18186 0.0
H532 H 0.0021 0.85363 0.1232 0.0
H533 H 0.0209 0.83483 0.16464 0.0
H534 H 0.05784 0.79903 0.0977 0.0
H535 H 0.03945 0.81825 0.05624 0.0
C536 C 0.07518 0.77436 0.17872 0.0
C537 C 0.06007 0.76477 0.19855 0.0
C538 C 0.06939 0.79177 0.15912 0.0
C539 C 0.04846 0.80004 0.15929 0.0
C540 C 0.03403 0.79166 0.18114 0.0
C541 C 0.03975 0.77424 0.20045 0.0
C542 C 0.01455 0.84209 0.11728 0.0
C543 C 0.01899 0.83719 0.08632 0.0
C544 C 0.0253 0.83126 0.14109 0.0
C545 C 0.04065 0.81512 0.13458 0.0
C546 C 0.04623 0.81145 0.10365 0.0
C547 C 0.03557 0.82241 0.07979 0.0
H548 H 0.35797 0.71554 0.35383 0.0
H549 H 0.36859 0.75961 0.27681 0.0
H550 H 0.37751 0.74054 0.38721 0.0
H551 H 0.38841 0.78448 0.31038 0.0
H552 H 0.40809 0.83171 0.38911 0.0
H553 H 0.38485 0.80924 0.3567 0.0
H554 H 0.41596 0.7504 0.38992 0.0
H555 H 0.43916 0.77271 0.42214 0.0
C556 C 0.36426 0.73065 0.34403 0.0
C557 C 0.36192 0.73542 0.31251 0.0
C558 C 0.37557 0.7449 0.36316 0.0
C559 C 0.38469 0.76428 0.35128 0.0
C560 C 0.38149 0.76966 0.32015 0.0
C561 C 0.37024 0.75533 0.30091 0.0
C562 C 0.41005 0.81401 0.38936 0.0
C563 C 0.42556 0.804 0.40805 0.0
C564 C 0.39673 0.80116 0.37082 0.0
C565 C 0.39854 0.7781 0.37095 0.0
C566 C 0.414 0.76813 0.38972 0.0
C567 C 0.42738 0.78094 0.40802 0.0
H568 H 0.37223 0.18876 0.67536 0.0
H569 H 0.43663 0.19812 0.70761 0.0
H570 H 0.38405 0.15775 0.64369 0.0
H571 H 0.44838 0.16747 0.67617 0.0
H572 H 0.42454 0.135 0.557 0.0
H573 H 0.40639 0.15644 0.59635 0.0
H574 H 0.44685 0.12785 0.66615 0.0
H575 H 0.46519 0.10662 0.62691 0.0
C576 C 0.38876 0.1838 0.67639 0.0
C577 C 0.40353 0.19594 0.69385 0.0
C578 C 0.39556 0.1662 0.65803 0.0
C579 C 0.41719 0.16023 0.65721 0.0
C580 C 0.43159 0.17144 0.67641 0.0
C581 C 0.42487 0.18912 0.69437 0.0
C582 C 0.42929 0.1329 0.5808 0.0
C583 C 0.44661 0.11932 0.58863 0.0
C584 C 0.41878 0.14513 0.60343 0.0
C585 C 0.42535 0.14407 0.63437 0.0
C586 C 0.44164 0.12932 0.64245 0.0
C587 C 0.45212 0.11709 0.6199 0.0
H588 H 0.09077 0.19547 0.78176 0.0
H589 H 0.10295 0.24061 0.85664 0.0
H590 H 0.07205 0.17087 0.81712 0.0
H591 H 0.0844 0.21589 0.89184 0.0
H592 H 0.02408 0.18226 0.93069 0.0
H593 H 0.04632 0.20501 0.89746 0.0
H594 H 0.07774 0.14673 0.86362 0.0
H595 H 0.05552 0.12385 0.89703 0.0
C596 C 0.08967 0.20005 0.80577 0.0
C597 C 0.09822 0.22011 0.8163 0.0
C598 C 0.07905 0.18589 0.82603 0.0
C599 C 0.07666 0.19157 0.85714 0.0
C600 C 0.08577 0.21126 0.86787 0.0
C601 C 0.0965 0.22535 0.8477 0.0
C602 C 0.03577 0.17426 0.91627 0.0
C603 C 0.03788 0.15122 0.91626 0.0
C604 C 0.04859 0.18732 0.89737 0.0
C605 C 0.06374 0.17762 0.87799 0.0
C606 C 0.06602 0.1546 0.87814 0.0
C607 C 0.05328 0.14152 0.89724 0.0
H608 H 0.97712 0.85191 0.64725 0.0
H609 H 0.93651 0.82817 0.57401 0.0
H610 H 0.95047 0.84106 0.68494 0.0
H611 H 0.90985 0.8172 0.61204 0.0
H612 H 0.86033 0.81358 0.68967 0.0
H613 H 0.88458 0.83106 0.65297 0.0
H614 H 0.93818 0.80426 0.70263 0.0
H615 H 0.91412 0.78657 0.73889 0.0
C616 C 0.96243 0.84459 0.63908 0.0
C617 C 0.95911 0.8407 0.60752 0.0
C618 C 0.94718 0.83831 0.66077 0.0
C619 C 0.92817 0.82809 0.65149 0.0
C620 C 0.92431 0.82517 0.61988 0.0
C621 C 0.93965 0.83136 0.5981 0.0
C622 C 0.87725 0.8114 0.69278 0.0
C623 C 0.88522 0.79831 0.71695 0.0
C624 C 0.89114 0.82145 0.67175 0.0
C625 C 0.91327 0.81894 0.67482 0.0
C626 C 0.92122 0.80667 0.69977 0.0
C627 C 0.90738 0.79646 0.72053 0.0
H628 H 0.96942 0.1711 0.44734 0.0
H629 H 0.92532 0.11636 0.45081 0.0
H630 H 0.9472 0.18898 0.40833 0.0
H631 H 0.90293 0.13454 0.41228 0.0
H632 H 0.86367 0.18565 0.35287 0.0
H633 H 0.88152 0.17431 0.40067 0.0
H634 H 0.94101 0.16947 0.35182 0.0
H635 H 0.92337 0.17965 0.30433 0.0
C636 C 0.95468 0.16322 0.44046 0.0
C637 C 0.94916 0.14227 0.45178 0.0
C638 C 0.94202 0.17343 0.4182 0.0
C639 C 0.92346 0.16305 0.4075 0.0
C640 C 0.9171 0.14289 0.42046 0.0
C641 C 0.92997 0.13247 0.44227 0.0
C642 C 0.88058 0.1823 0.35241 0.0
C643 C 0.89212 0.18378 0.32473 0.0
C644 C 0.89073 0.17588 0.37971 0.0
C645 C 0.91262 0.17142 0.37978 0.0
C646 C 0.92418 0.17329 0.35236 0.0
C647 C 0.914 0.17913 0.32508 0.0
H648 H 0.52614 0.13174 0.07387 0.0
H649 H 0.48888 0.10353 0.14791 0.0
H650 H 0.5532 0.14317 0.11111 0.0
H651 H 0.51588 0.11481 0.18472 0.0
H652 H 0.60457 0.14649 0.18698 0.0
H653 H 0.58026 0.12933 0.15013 0.0
H654 H 0.52672 0.15162 0.2037 0.0
H655 H 0.55079 0.16894 0.24012 0.0
C656 C 0.52382 0.12771 0.09795 0.0
C657 C 0.50517 0.11694 0.10786 0.0
C658 C 0.53938 0.13416 0.11925 0.0
C659 C 0.53655 0.13005 0.15086 0.0
C660 C 0.51836 0.11849 0.16057 0.0
C661 C 0.5029 0.11198 0.13937 0.0
C662 C 0.58764 0.14773 0.19092 0.0
C663 C 0.57967 0.15943 0.2163 0.0
C664 C 0.57373 0.13789 0.16978 0.0
C665 C 0.55159 0.13922 0.17394 0.0
C666 C 0.54369 0.15013 0.19997 0.0
C667 C 0.55754 0.16014 0.22083 0.0
H668 H 0.54223 0.84157 0.94516 0.0
H669 H 0.50267 0.78352 0.95396 0.0
H670 H 0.56385 0.82297 0.90676 0.0
H671 H 0.52449 0.76479 0.91556 0.0
H672 H 0.54332 0.76167 0.81121 0.0
H673 H 0.52683 0.77291 0.85907 0.0
H674 H 0.58843 0.7913 0.89515 0.0
H675 H 0.60501 0.78023 0.84658 0.0
C676 C 0.53841 0.82468 0.93927 0.0
C677 C 0.52059 0.81409 0.95213 0.0
C678 C 0.55091 0.81396 0.91751 0.0
C679 C 0.54573 0.79251 0.90804 0.0
C680 C 0.52869 0.78142 0.92229 0.0
C681 C 0.51628 0.79209 0.94432 0.0
C682 C 0.55337 0.76816 0.82919 0.0
C683 C 0.57536 0.77064 0.82485 0.0
C684 C 0.54396 0.77422 0.85689 0.0
C685 C 0.55635 0.78302 0.8808 0.0
C686 C 0.57851 0.78467 0.87698 0.0
C687 C 0.58797 0.77833 0.84928 0.0
H688 H 0.86203 0.14477 0.78892 0.0
H689 H 0.91565 0.17315 0.74059 0.0
H690 H 0.88643 0.12644 0.82454 0.0
H691 H 0.93984 0.15461 0.77573 0.0
H692 H 0.939 0.12745 0.90305 0.0
H693 H 0.91218 0.13954 0.86591 0.0
H694 H 0.95189 0.1172 0.79135 0.0
H695 H 0.97869 0.10522 0.82812 0.0
C696 C 0.87894 0.14707 0.78576 0.0
C697 C 0.88682 0.16079 0.76219 0.0
C698 C 0.89291 0.13654 0.80618 0.0
C699 C 0.91503 0.13919 0.80303 0.0
C700 C 0.92289 0.15209 0.77863 0.0
C701 C 0.90897 0.16279 0.75852 0.0
C702 C 0.94191 0.12486 0.87876 0.0
C703 C 0.96115 0.11558 0.86863 0.0
C704 C 0.92648 0.13168 0.85751 0.0
C705 C 0.93003 0.12947 0.82572 0.0
C706 C 0.94884 0.11938 0.81568 0.0
C707 C 0.96417 0.11246 0.83684 0.0
H708 H 0.54551 0.19513 0.66247 0.0
H709 H 0.60576 0.17388 0.62562 0.0
H710 H 0.52768 0.18353 0.61569 0.0
H711 H 0.58785 0.16249 0.57806 0.0
H712 H 0.53912 0.11299 0.53121 0.0
H713 H 0.56216 0.13159 0.56803 0.0
H714 H 0.52427 0.19057 0.55939 0.0
H715 H 0.50098 0.17182 0.52268 0.0
C716 C 0.55495 0.18794 0.6444 0.0
C717 C 0.5769 0.18479 0.64804 0.0
C718 C 0.54478 0.18168 0.61729 0.0
C719 C 0.55637 0.17205 0.59327 0.0
C720 C 0.57853 0.16975 0.59634 0.0
C721 C 0.58875 0.17627 0.62346 0.0
C722 C 0.5359 0.13004 0.5368 0.0
C723 C 0.51805 0.14084 0.52455 0.0
C724 C 0.54923 0.14075 0.55765 0.0
C725 C 0.54488 0.16245 0.56676 0.0
C726 C 0.52783 0.17374 0.55297 0.0
C727 C 0.51456 0.16305 0.53191 0.0
H728 H 0.60093 0.81437 0.28033 0.0
H729 H 0.54709 0.78519 0.23358 0.0
H730 H 0.57676 0.83229 0.31639 0.0
H731 H 0.5231 0.80346 0.26906 0.0
H732 H 0.52486 0.82962 0.39614 0.0
H733 H 0.5515 0.8182 0.35847 0.0
H734 H 0.51103 0.84109 0.28474 0.0
H735 H 0.48446 0.85247 0.32202 0.0
C736 C 0.58402 0.8118 0.2776 0.0
C737 C 0.57603 0.79793 0.2544 0.0
C738 C 0.57018 0.82212 0.29826 0.0
C739 C 0.54806 0.81915 0.29567 0.0
C740 C 0.54006 0.80619 0.27154 0.0
C741 C 0.55386 0.79566 0.25123 0.0
C742 C 0.52176 0.8325 0.37193 0.0
C743 C 0.50237 0.84176 0.36217 0.0
C744 C 0.53707 0.82606 0.35038 0.0
C745 C 0.53324 0.82859 0.31867 0.0
C746 C 0.5143 0.83868 0.30901 0.0
C747 C 0.4991 0.84526 0.33047 0.0
H748 H 0.92272 0.7737 0.17238 0.0
H749 H 0.86363 0.76843 0.12184 0.0
H750 H 0.94137 0.78283 0.12513 0.0
H751 H 0.88244 0.77846 0.07442 0.0
H752 H 0.92464 0.83412 0.02164 0.0
H753 H 0.90261 0.81613 0.0607 0.0
H754 H 0.94961 0.76487 0.07061 0.0
H755 H 0.97156 0.78265 0.03105 0.0
C756 C 0.91372 0.77414 0.15122 0.0
C757 C 0.8917 0.77013 0.15093 0.0
C758 C 0.92446 0.77933 0.1241 0.0
C759 C 0.91333 0.78108 0.09622 0.0
C760 C 0.89134 0.77704 0.09571 0.0
C761 C 0.88063 0.77138 0.12282 0.0
C762 C 0.92999 0.8187 0.03161 0.0
C763 C 0.94981 0.80981 0.02358 0.0
C764 C 0.91735 0.80838 0.05378 0.0
C765 C 0.92454 0.78923 0.06862 0.0
C766 C 0.94382 0.77967 0.05942 0.0
C767 C 0.95629 0.78977 0.03677 0.0
H768 H 0.5047 0.59861 0.84903 0.0
H769 H 0.53998 0.6355 0.91714 0.0
H770 H 0.52319 0.61842 0.80817 0.0
H771 H 0.55817 0.65558 0.87618 0.0
H772 H 0.59181 0.68771 0.79796 0.0
H773 H 0.58209 0.65652 0.83114 0.0
H774 H 0.51894 0.65638 0.79171 0.0
H775 H 0.52868 0.68718 0.75874 0.0
C776 C 0.51662 0.61071 0.85535 0.0
C777 C 0.52055 0.61572 0.88645 0.0
C778 C 0.52721 0.62209 0.83186 0.0
C779 C 0.54196 0.6388 0.83885 0.0
C780 C 0.54703 0.6427 0.86993 0.0
C781 C 0.53647 0.63126 0.89347 0.0
C782 C 0.57614 0.6804 0.79559 0.0
C783 C 0.56095 0.68993 0.7759 0.0
C784 C 0.57049 0.66273 0.81485 0.0
C785 C 0.54965 0.65414 0.81441 0.0
C786 C 0.53516 0.66243 0.7926 0.0
C787 C 0.54072 0.68016 0.77369 0.0
H788 H 0.61796 0.23318 0.1289 0.0
H789 H 0.5714 0.2434 0.20053 0.0
H790 H 0.59743 0.25695 0.09424 0.0
H791 H 0.55062 0.26664 0.16542 0.0
H792 H 0.51123 0.27435 0.07005 0.0
H793 H 0.53286 0.25341 0.10691 0.0
H794 H 0.58302 0.30182 0.09907 0.0
H795 H 0.56124 0.32315 0.06293 0.0
C796 C 0.60346 0.24066 0.13726 0.0
C797 C 0.59625 0.23654 0.16735 0.0
C798 C 0.59179 0.25421 0.1175 0.0
C799 C 0.57252 0.26337 0.12732 0.0
C800 C 0.56546 0.25961 0.1575 0.0
C801 C 0.57739 0.2465 0.17753 0.0
C802 C 0.52688 0.28047 0.07618 0.0
C803 C 0.53463 0.3003 0.06371 0.0
C804 C 0.53912 0.26861 0.09733 0.0
C805 C 0.55944 0.27619 0.10568 0.0
C806 C 0.56734 0.29579 0.09287 0.0
C807 C 0.55491 0.30791 0.07231 0.0
H808 H 0.93509 0.27085 0.26084 0.0
H809 H 0.87197 0.2692 0.29984 0.0
H810 H 0.94457 0.30125 0.29427 0.0
H811 H 0.88137 0.30012 0.33337 0.0
H812 H 0.92271 0.32036 0.42004 0.0
H813 H 0.90458 0.30111 0.37846 0.0
H814 H 0.94078 0.33852 0.31173 0.0
H815 H 0.9593 0.35739 0.3533 0.0
C816 C 0.92299 0.27754 0.27585 0.0
C817 C 0.90286 0.2675 0.27791 0.0
C818 C 0.92839 0.29509 0.29503 0.0
C819 C 0.91383 0.30299 0.31689 0.0
C820 C 0.89305 0.2942 0.3171 0.0
C821 C 0.88757 0.27667 0.29763 0.0
C822 C 0.92648 0.32486 0.39651 0.0
C823 C 0.94278 0.34013 0.39007 0.0
C824 C 0.91596 0.31389 0.37259 0.0
C825 C 0.92142 0.31803 0.34168 0.0
C826 C 0.93648 0.33461 0.33527 0.0
C827 C 0.94708 0.34547 0.35915 0.0
H828 H 0.86255 0.74231 0.62346 0.0
H829 H 0.87369 0.69902 0.70115 0.0
H830 H 0.88241 0.7175 0.5905 0.0
H831 H 0.89369 0.6742 0.66784 0.0
H832 H 0.91032 0.6262 0.58799 0.0
H833 H 0.88853 0.64922 0.62136 0.0
H834 H 0.92101 0.70722 0.58741 0.0
H835 H 0.94292 0.68431 0.55428 0.0
C836 C 0.86907 0.72743 0.63351 0.0
C837 C 0.86661 0.72274 0.66505 0.0
C838 C 0.88056 0.7133 0.61461 0.0
C839 C 0.88974 0.69408 0.6267 0.0
C840 C 0.88669 0.6889 0.65794 0.0
C841 C 0.8753 0.70315 0.67699 0.0
C842 C 0.91296 0.64382 0.58783 0.0
C843 C 0.92847 0.65341 0.56865 0.0
C844 C 0.90047 0.65698 0.60694 0.0
C845 C 0.90307 0.67996 0.60689 0.0
C846 C 0.91851 0.68954 0.58764 0.0
C847 C 0.93111 0.6764 0.56878 0.0
H848 H 0.53889 0.32183 0.5568 0.0
H849 H 0.50553 0.35783 0.62747 0.0
H850 H 0.55798 0.30126 0.59638 0.0
H851 H 0.52489 0.33752 0.66691 0.0
H852 H 0.53132 0.26827 0.71457 0.0
H853 H 0.52078 0.29921 0.68246 0.0
H854 H 0.58304 0.29999 0.64038 0.0
H855 H 0.59358 0.26868 0.67275 0.0
C856 C 0.53599 0.32577 0.58072 0.0
C857 C 0.52035 0.34121 0.58888 0.0
C858 C 0.54706 0.31405 0.60346 0.0
C859 C 0.54277 0.31756 0.63485 0.0
C860 C 0.5283 0.33416 0.64296 0.0
C861 C 0.51722 0.34583 0.62028 0.0
C862 C 0.54299 0.2755 0.69919 0.0
C863 C 0.56322 0.26599 0.69606 0.0
C864 C 0.53698 0.29331 0.68079 0.0
C865 C 0.55099 0.30195 0.65855 0.0
C866 C 0.57182 0.29353 0.65705 0.0
C867 C 0.57794 0.27579 0.67583 0.0
H868 H 0.9442 0.27205 0.9299 0.0
H869 H 0.91042 0.33004 0.8991 0.0
H870 H 0.92147 0.24916 0.89758 0.0
H871 H 0.88778 0.30709 0.86665 0.0
H872 H 0.87301 0.25963 0.78482 0.0
H873 H 0.89263 0.28388 0.81944 0.0
H874 H 0.88339 0.23746 0.89386 0.0
H875 H 0.8639 0.21309 0.85938 0.0
C876 C 0.93191 0.27992 0.9163 0.0
C877 C 0.92928 0.3029 0.91679 0.0
C878 C 0.91882 0.26679 0.89793 0.0
C879 C 0.90289 0.27638 0.8796 0.0
C880 C 0.90011 0.29932 0.8803 0.0
C881 C 0.9131 0.31244 0.89885 0.0
C882 C 0.87497 0.25466 0.80863 0.0
C883 C 0.86699 0.23435 0.81926 0.0
C884 C 0.88613 0.26861 0.82847 0.0
C885 C 0.88963 0.26245 0.85925 0.0
C886 C 0.88114 0.24247 0.87012 0.0
C887 C 0.86987 0.22859 0.85038 0.0
H888 H 0.97259 0.6215 0.11793 0.0
H889 H 0.91702 0.6173 0.05973 0.0
H890 H 0.95216 0.64008 0.15678 0.0
H891 H 0.89578 0.63472 0.09987 0.0
H892 H 0.87654 0.697 0.15508 0.0
H893 H 0.88942 0.66847 0.12086 0.0
H894 H 0.92792 0.64204 0.19494 0.0
H895 H 0.91633 0.67207 0.22798 0.0
C896 C 0.95576 0.62398 0.1138 0.0
C897 C 0.94649 0.61802 0.08558 0.0
C898 C 0.94384 0.63454 0.1364 0.0
C899 C 0.92208 0.63908 0.13188 0.0
C900 C 0.91254 0.63202 0.10417 0.0
C901 C 0.92466 0.62186 0.08115 0.0
C902 C 0.88717 0.68456 0.16425 0.0
C903 C 0.89546 0.68664 0.19409 0.0
C904 C 0.89467 0.66812 0.14457 0.0
C905 C 0.91033 0.6531 0.15458 0.0
C906 C 0.9166 0.65376 0.18578 0.0
C907 C 0.90963 0.67068 0.20508 0.0
H908 H 0.59037 0.69965 0.28026 0.0
H909 H 0.59889 0.74777 0.35251 0.0
H910 H 0.57103 0.67586 0.31601 0.0
H911 H 0.57968 0.72387 0.38811 0.0
H912 H 0.51986 0.68857 0.4265 0.0
H913 H 0.54181 0.71139 0.39273 0.0
H914 H 0.57668 0.65375 0.36429 0.0
H915 H 0.55488 0.63091 0.39816 0.0
C916 C 0.58832 0.70507 0.3038 0.0
C917 C 0.59611 0.72567 0.31346 0.0
C918 C 0.57732 0.6914 0.32428 0.0
C919 C 0.57376 0.69811 0.35475 0.0
C920 C 0.58197 0.71843 0.36463 0.0
C921 C 0.5931 0.73203 0.34425 0.0
C922 C 0.53225 0.68077 0.41313 0.0
C923 C 0.53546 0.65789 0.41473 0.0
C924 C 0.54487 0.69385 0.39392 0.0
C925 C 0.56089 0.6843 0.37586 0.0
C926 C 0.56425 0.66148 0.37768 0.0
C927 C 0.55173 0.64841 0.39705 0.0
H928 H 0.43808 0.32925 0.07607 0.0
H929 H 0.48062 0.34846 0.14962 0.0
H930 H 0.41162 0.31782 0.11408 0.0
H931 H 0.45414 0.33714 0.18734 0.0
H932 H 0.36311 0.31265 0.19252 0.0
H933 H 0.3875 0.33091 0.15677 0.0
H934 H 0.44073 0.30011 0.20256 0.0
H935 H 0.4165 0.28163 0.23785 0.0
C936 C 0.44169 0.33137 0.10026 0.0
C937 C 0.46162 0.33956 0.10971 0.0
C938 C 0.42647 0.32491 0.12204 0.0
C939 C 0.43089 0.3264 0.1537 0.0
C940 C 0.4504 0.33551 0.16311 0.0
C941 C 0.46554 0.34208 0.14141 0.0
C942 C 0.37999 0.30975 0.19498 0.0
C943 C 0.38777 0.29531 0.21772 0.0
C944 C 0.39395 0.32026 0.17451 0.0
C945 C 0.41601 0.31685 0.17674 0.0
C946 C 0.42383 0.30323 0.20038 0.0
C947 C 0.4099 0.29257 0.22057 0.0
H948 H 0.45796 0.66773 0.95229 0.0
H949 H 0.42863 0.60379 0.94021 0.0
H950 H 0.43291 0.68347 0.91489 0.0
H951 H 0.40423 0.61944 0.90249 0.0
H952 H 0.40151 0.65065 0.80216 0.0
H953 H 0.41963 0.63714 0.84807 0.0
H954 H 0.38796 0.68623 0.90295 0.0
H955 H 0.36917 0.69958 0.85672 0.0
C956 C 0.44597 0.65715 0.94214 0.0
C957 C 0.4456 0.63442 0.94854 0.0
C958 C 0.43163 0.66618 0.92091 0.0
C959 C 0.4169 0.65253 0.90581 0.0
C960 C 0.41561 0.63018 0.91378 0.0
C961 C 0.4297 0.62124 0.93515 0.0
C962 C 0.39825 0.65846 0.82403 0.0
C963 C 0.38393 0.67607 0.82602 0.0
C964 C 0.40855 0.65069 0.85024 0.0
C965 C 0.40505 0.66065 0.87884 0.0
C966 C 0.39079 0.67834 0.88102 0.0
C967 C 0.38004 0.68584 0.85474 0.0
H968 H 0.05203 0.67065 0.73962 0.0
H969 H 0.10518 0.64489 0.68816 0.0
H970 H 0.02752 0.65163 0.7055 0.0
H971 H 0.08046 0.62601 0.65363 0.0
H972 H -0.01185 0.603 0.6533 0.0
H973 H 0.01565 0.61447 0.68933 0.0
H974 H 0.05383 0.63871 0.61384 0.0
H975 H 0.02636 0.62709 0.5775 0.0
C976 C 0.05854 0.66074 0.72123 0.0
C977 C 0.08063 0.65966 0.71636 0.0
C978 C 0.04445 0.64974 0.70172 0.0
C979 C 0.05205 0.63744 0.67674 0.0
C980 C 0.07415 0.63563 0.67246 0.0
C981 C 0.0883 0.64648 0.69226 0.0
C982 C 0.0025 0.6105 0.64422 0.0
C983 C 0.00488 0.61436 0.61244 0.0
C984 C 0.01823 0.61714 0.66495 0.0
C985 C 0.03679 0.62769 0.65446 0.0
C986 C 0.03974 0.63049 0.6226 0.0
C987 C 0.02393 0.62394 0.6018 0.0
H988 H -0.00701 0.28667 0.44407 0.0
H989 H 0.03746 0.3407 0.45354 0.0
H990 H 0.01581 0.27032 0.40467 0.0
H991 H 0.06047 0.32397 0.41469 0.0
H992 H 0.1005 0.27238 0.35594 0.0
H993 H 0.08136 0.28313 0.40276 0.0
H994 H 0.02426 0.29292 0.34937 0.0
H995 H 0.04329 0.2834 0.30277 0.0
C996 C 0.00792 0.29469 0.43839 0.0
C997 C 0.01344 0.31501 0.45159 0.0
C998 C 0.02089 0.28536 0.4159 0.0
C999 C 0.03978 0.29596 0.40689 0.0
C1000 C 0.04603 0.31547 0.42157 0.0
C1001 C 0.03284 0.32505 0.44358 0.0
C1002 C 0.08385 0.27676 0.35423 0.0
C1003 C 0.07336 0.27673 0.32559 0.0
C1004 C 0.07297 0.28283 0.38097 0.0
C1005 C 0.05135 0.28842 0.37948 0.0
C1006 C 0.04085 0.28821 0.35104 0.0
C1007 C 0.05179 0.2827 0.32434 0.0
H1008 H 0.47739 0.60804 0.32769 0.0
H1009 H 0.4374 0.63076 0.40197 0.0
H1010 H 0.45034 0.61887 0.29062 0.0
H1011 H 0.41032 0.64172 0.36453 0.0
H1012 H 0.36008 0.64498 0.28732 0.0
H1013 H 0.38472 0.62776 0.32366 0.0
H1014 H 0.43775 0.65574 0.27376 0.0
H1015 H 0.41331 0.67316 0.23788 0.0
C1016 C 0.46276 0.61513 0.33622 0.0
C1017 C 0.45973 0.61874 0.36789 0.0
C1018 C 0.44728 0.6214 0.31488 0.0
C1019 C 0.42831 0.63134 0.32462 0.0
C1020 C 0.42474 0.63398 0.35634 0.0
C1021 C 0.44032 0.62779 0.37777 0.0
C1022 C 0.37696 0.64748 0.28408 0.0
C1023 C 0.38465 0.66079 0.25993 0.0
C1024 C 0.39107 0.63758 0.30491 0.0
C1025 C 0.41316 0.64048 0.30165 0.0
C1026 C 0.42083 0.65303 0.27677 0.0
C1027 C 0.40677 0.66309 0.25623 0.0
H1028 H 0.04026 0.61902 0.02252 0.0
H1029 H -0.00647 0.67055 0.03262 0.0
H1030 H 0.06195 0.63595 0.06289 0.0
H1031 H 0.01505 0.68714 0.07351 0.0
H1032 H 0.04118 0.67474 0.17565 0.0
H1033 H 0.02314 0.66551 0.12797 0.0
H1034 H 0.08148 0.67568 0.07762 0.0
H1035 H 0.09962 0.686 0.12548 0.0
C1036 C 0.03489 0.63422 0.03293 0.0
C1037 C 0.01523 0.64347 0.02465 0.0
C1038 C 0.04731 0.64391 0.05585 0.0
C1039 C 0.04003 0.66272 0.07117 0.0
C1040 C 0.02091 0.67261 0.06186 0.0
C1041 C 0.00869 0.66319 0.03847 0.0
C1042 C 0.05015 0.67554 0.15452 0.0
C1043 C 0.07178 0.68144 0.15441 0.0
C1044 C 0.03977 0.67024 0.12719 0.0
C1045 C 0.05092 0.67022 0.09928 0.0
C1046 C 0.07259 0.67582 0.09897 0.0
C1047 C 0.0829 0.68163 0.12631 0.0
H1048 H 0.10299 0.31026 0.78542 0.0
H1049 H 0.04857 0.28253 0.73839 0.0
H1050 H 0.07918 0.32895 0.82122 0.0
H1051 H 0.02495 0.30138 0.77374 0.0
H1052 H 0.02761 0.32843 0.90083 0.0
H1053 H 0.05394 0.31637 0.86319 0.0
H1054 H 0.01321 0.33866 0.78938 0.0
H1055 H -0.01313 0.35058 0.8267 0.0
C1056 C 0.08602 0.30818 0.78258 0.0
C1057 C 0.07775 0.29454 0.75932 0.0
C1058 C 0.07238 0.31892 0.8031 0.0
C1059 C 0.0502 0.31654 0.8004 0.0
C1060 C 0.04196 0.30371 0.77629 0.0
C1061 C 0.05554 0.29282 0.75607 0.0
C1062 C 0.02438 0.33104 0.8766 0.0
C1063 C 0.00497 0.34026 0.86686 0.0
C1064 C 0.03953 0.32423 0.85505 0.0
C1065 C 0.03554 0.32639 0.82333 0.0
C1066 C 0.0166 0.3365 0.81366 0.0
C1067 C 0.00153 0.3434 0.83513 0.0
H1068 H 0.42734 0.35373 0.54177 0.0
H1069 H 0.45479 0.28958 0.52538 0.0
H1070 H 0.40353 0.33765 0.57996 0.0
H1071 H 0.4303 0.27343 0.56328 0.0
H1072 H 0.36728 0.25675 0.62222 0.0
H1073 H 0.3861 0.27078 0.57644 0.0
H1074 H 0.41858 0.31865 0.63292 0.0
H1075 H 0.40038 0.30448 0.67839 0.0
C1076 C 0.42815 0.33616 0.54605 0.0
C1077 C 0.44335 0.32301 0.53122 0.0
C1078 C 0.4144 0.32699 0.56771 0.0
C1079 C 0.41531 0.30443 0.57456 0.0
C1080 C 0.42934 0.29089 0.55817 0.0
C1081 C 0.44335 0.30015 0.53665 0.0
C1082 C 0.37837 0.27034 0.62467 0.0
C1083 C 0.38242 0.27959 0.65371 0.0
C1084 C 0.38913 0.27824 0.59864 0.0
C1085 C 0.4036 0.2958 0.60137 0.0
C1086 C 0.40734 0.3052 0.63032 0.0
C1087 C 0.397 0.29705 0.65628 0.0
H1088 H 0.26724 0.26695 0.19435 0.0
H1089 H 0.2827 0.21879 0.26439 0.0
H1090 H 0.22986 0.25765 0.19914 0.0
H1091 H 0.24513 0.20892 0.26848 0.0
H1092 H 0.17555 0.22437 0.29784 0.0
H1093 H 0.21367 0.22513 0.28879 0.0
H1094 H 0.20243 0.23129 0.19097 0.0
H1095 H 0.16417 0.23135 0.2002 0.0
C1096 C 0.26272 0.2541 0.21045 0.0
C1097 C 0.27802 0.2438 0.22922 0.0
C1098 C 0.24121 0.2486 0.21301 0.0
C1099 C 0.23438 0.23252 0.23424 0.0
C1100 C 0.24977 0.22161 0.25221 0.0
C1101 C 0.27133 0.22721 0.24977 0.0
C1102 C 0.18117 0.22551 0.27433 0.0
C1103 C 0.1668 0.22816 0.24979 0.0
C1104 C 0.20311 0.22583 0.26911 0.0
C1105 C 0.21121 0.22861 0.23917 0.0
C1106 C 0.19677 0.22967 0.2144 0.0
C1107 C 0.17482 0.22954 0.21966 0.0
H1108 H 0.97236 0.91346 0.48894 0.0
H1109 H 0.03027 0.92548 0.54001 0.0
H1110 H 0.97085 0.95252 0.47515 0.0
H1111 H 0.02932 0.96397 0.52526 0.0
H1112 H 0.00874 0.03587 0.52276 0.0
H1113 H 0.01127 -0.00317 0.53517 0.0
H1114 H -0.0131 -0.01947 0.44493 0.0
H1115 H -0.01646 0.0196 0.4331 0.0
C1116 C -0.01518 0.92438 0.49702 0.0
C1117 C 0.00129 0.91637 0.5158 0.0
C1118 C -0.01592 0.94676 0.48896 0.0
C1119 C -5e-05 0.96152 0.49916 0.0
C1120 C 0.01656 0.9533 0.51752 0.0
C1121 C 0.01714 0.93111 0.52588 0.0
C1122 C 0.0042 0.02394 0.50544 0.0
C1123 C -0.00411 0.03085 0.477 0.0
C1124 C 0.00566 0.0015 0.51251 0.0
C1125 C -0.00087 -0.01459 0.49114 0.0
C1126 C -0.0084 -0.00761 0.46224 0.0
C1127 C -0.01011 0.01482 0.45533 0.0
H1128 H 0.30196 0.73196 0.69732 0.0
H1129 H 0.28971 0.73934 0.79457 0.0
H1130 H 0.26377 0.73165 0.6873 0.0
H1131 H 0.2517 0.73816 0.78477 0.0
H1132 H 0.18274 0.74115 0.75985 0.0
H1133 H 0.21982 0.75288 0.76373 0.0
H1134 H 0.23722 0.7044 0.69565 0.0
H1135 H 0.2003 0.69327 0.69105 0.0
C1136 C 0.29114 0.73387 0.71651 0.0
C1137 C 0.29889 0.7353 0.74679 0.0
C1138 C 0.26923 0.73351 0.7108 0.0
C1139 C 0.2546 0.73438 0.73528 0.0
C1140 C 0.26241 0.73755 0.76529 0.0
C1141 C 0.2843 0.73811 0.77095 0.0
C1142 C 0.19446 0.73319 0.74545 0.0
C1143 C 0.18853 0.71611 0.72535 0.0
C1144 C 0.21575 0.73987 0.74775 0.0
C1145 C 0.2316 0.72955 0.73011 0.0
C1146 C 0.22549 0.71303 0.70925 0.0
C1147 C 0.20425 0.70646 0.70681 0.0
H1148 H 0.45858 0.02587 0.06416 0.0
H1149 H 0.47549 0.04614 0.97195 0.0
H1150 H 0.46107 -0.01256 0.04906 0.0
H1151 H 0.4771 0.00763 0.95636 0.0
H1152 H 0.50043 0.93683 0.94807 0.0
H1153 H 0.49714 0.97533 0.96142 0.0
H1154 H 0.44378 0.95966 0.02039 0.0
H1155 H 0.44773 0.92067 0.008 0.0
C1156 C 0.46279 0.0221 0.04059 0.0
C1157 C 0.4669 0.03906 0.01927 0.0
C1158 C 0.46398 3e-05 0.03183 0.0
C1159 C 0.46906 -0.00568 0.00138 0.0
C1160 C 0.4734 0.01133 0.98011 0.0
C1161 C 0.47248 0.03345 -0.01099 0.0
C1162 C 0.48784 0.94152 0.96371 0.0
C1163 C 0.47439 0.92555 0.97709 0.0
C1164 C 0.48589 0.96374 0.97126 0.0
C1165 C 0.47027 0.97072 -0.00787 0.0
C1166 C 0.4563 0.95485 0.00472 0.0
C1167 C 0.45842 0.9325 -0.00259 0.0
H1168 H 0.1624 0.72631 0.2797 0.0
H1169 H 0.17064 0.73504 0.18169 0.0
H1170 H 0.20091 0.72505 0.28623 0.0
H1171 H 0.20898 0.73288 0.18799 0.0
H1172 H 0.2793 0.73605 0.20863 0.0
H1173 H 0.24196 0.74706 0.20645 0.0
H1174 H 0.22666 0.69786 0.27523 0.0
H1175 H 0.26374 0.68746 0.27813 0.0
C1176 C 0.17242 0.72824 0.2596 0.0
C1177 C 0.16343 0.73045 0.23014 0.0
C1178 C 0.19451 0.72734 0.26328 0.0
C1179 C 0.20811 0.72838 0.23756 0.0
C1180 C 0.1991 0.73212 0.20837 0.0
C1181 C 0.17703 0.73325 0.20473 0.0
C1182 C 0.26796 0.72772 0.22342 0.0
C1183 C 0.27455 0.71078 0.24343 0.0
C1184 C 0.24653 0.734 0.22213 0.0
C1185 C 0.23122 0.72341 0.24071 0.0
C1186 C 0.23797 0.70675 0.26104 0.0
C1187 C 0.25931 0.7006 0.26246 0.0
H1188 H 0.47226 0.90921 0.50189 0.0
H1189 H 0.45389 0.93149 0.41116 0.0
H1190 H 0.47327 0.94726 0.51953 0.0
H1191 H 0.4558 0.96953 0.4283 0.0
H1192 H 0.44257 0.03497 0.47254 0.0
H1193 H 0.4386 -0.00378 0.45878 0.0
H1194 H 0.49284 -0.01997 0.51575 0.0
H1195 H 0.49616 0.01827 0.5305 0.0
C1196 C 0.46878 0.92226 0.48558 0.0
C1197 C 0.46301 0.91732 0.45513 0.0
C1198 C 0.46936 0.94412 0.49568 0.0
C1199 C 0.46449 0.96158 0.47542 0.0
C1200 C 0.45914 0.95657 0.44479 0.0
C1201 C 0.45828 0.93473 0.43484 0.0
C1202 C 0.45342 0.02306 0.48246 0.0
C1203 C 0.46971 0.02981 0.50255 0.0
C1204 C 0.4513 0.00085 0.47435 0.0
C1205 C 0.46555 -0.01507 0.48587 0.0
C1206 C 0.48139 -0.00834 0.50668 0.0
C1207 C 0.48335 0.01374 0.51505 0.0
H1208 H 0.18025 0.2153 0.71025 0.0
H1209 H 0.19747 0.2624 0.7805 0.0
H1210 H 0.21731 0.20344 0.70729 0.0
H1211 H 0.23427 0.25114 0.77685 0.0
H1212 H 0.29827 0.22262 0.77845 0.0
H1213 H 0.25987 0.2233 0.78633 0.0
H1214 H 0.25012 0.21781 0.68815 0.0
H1215 H 0.28835 0.21626 0.68046 0.0
C1216 C 0.19189 0.22308 0.72511 0.0
C1217 C 0.18586 0.23993 0.74545 0.0
C1218 C 0.21315 0.21632 0.72336 0.0
C1219 C 0.22885 0.2263 0.74184 0.0
C1220 C 0.22264 0.24273 0.76268 0.0
C1221 C 0.20146 0.24939 0.76454 0.0
C1222 C 0.28791 0.22101 0.75864 0.0
C1223 C 0.29639 0.21977 0.72879 0.0
C1224 C 0.26588 0.22158 0.76311 0.0
C1225 C 0.25186 0.22115 0.73782 0.0
C1226 C 0.26036 0.21812 0.70821 0.0
C1227 C 0.28237 0.21733 0.70377 0.0
H1228 H -0.01088 0.04336 0.00399 0.0
H1229 H 0.00903 0.0246 0.91264 0.0
H1230 H -0.01253 0.00463 0.0189 0.0
H1231 H 0.00658 -0.01406 0.92707 0.0
H1232 H 0.01983 0.91908 0.96888 0.0
H1233 H 0.02349 0.95825 0.95689 0.0
H1234 H 0.96771 0.97207 0.0116 0.0
H1235 H 0.96461 0.93338 0.02453 0.0
C1236 C -0.00719 0.03096 0.98696 0.0
C1237 C -0.00079 0.03706 0.95715 0.0
C1238 C -0.00813 0.00873 -0.00452 0.0
C1239 C -0.00297 -0.00792 0.97426 0.0
C1240 C 0.00298 -0.00174 0.94426 0.0
C1241 C 0.00417 0.02046 0.93587 0.0
C1242 C 0.00851 0.93054 0.97859 0.0
C1243 C -0.00806 0.92303 -0.00236 0.0
C1244 C 0.01048 0.95299 0.97152 0.0
C1245 C -0.0042 0.96838 0.9831 0.0
C1246 C 0.97951 0.96084 0.00261 0.0
C1247 C 0.97768 0.93852 0.00991 0.0
H1248 H 0.77309 0.74482 0.68101 0.0
H1249 H 0.77572 0.73976 0.78004 0.0
H1250 H 0.73574 0.7342 0.68184 0.0
H1251 H 0.73798 0.73049 0.78127 0.0
H1252 H 0.67094 0.70574 0.77687 0.0
H1253 H 0.70968 0.70651 0.77182 0.0
H1254 H 0.70368 0.75049 0.69366 0.0
H1255 H 0.66532 0.74859 0.69778 0.0
C1256 C 0.76561 0.74144 0.70299 0.0
C1257 C 0.77722 0.74333 0.73048 0.0
C1258 C 0.74414 0.73549 0.70353 0.0
C1259 C 0.73357 0.73183 0.73165 0.0
C1260 C 0.7455 0.73289 0.75911 0.0
C1261 C 0.76715 0.73836 0.75849 0.0
C1262 C 0.67802 0.7151 0.7582 0.0
C1263 C 0.66514 0.72698 0.73772 0.0
C1264 C 0.70021 0.71578 0.75548 0.0
C1265 C 0.70999 0.72872 0.73247 0.0
C1266 C 0.69691 0.73999 0.71133 0.0
C1267 C 0.67479 0.73901 0.71377 0.0
H1268 H 0.68788 0.21828 0.28204 0.0
H1269 H 0.69112 0.2165 0.18288 0.0
H1270 H 0.72572 0.22706 0.28439 0.0
H1271 H 0.72857 0.22665 0.18489 0.0
H1272 H 0.79849 0.20993 0.20107 0.0
H1273 H 0.76014 0.20914 0.19632 0.0
H1274 H 0.75468 0.25061 0.27673 0.0
H1275 H 0.79341 0.25026 0.28234 0.0
C1276 C 0.69661 0.22035 0.26072 0.0
C1277 C 0.68668 0.21638 0.23231 0.0
C1278 C 0.71831 0.22552 0.262 0.0
C1279 C 0.73045 0.22728 0.23482 0.0
C1280 C 0.72001 0.22478 0.20635 0.0
C1281 C 0.69848 0.21911 0.20514 0.0
C1282 C 0.78916 0.21919 0.21747 0.0
C1283 C 0.79894 0.23018 0.24217 0.0
C1284 C 0.76704 0.21887 0.21466 0.0
C1285 C 0.75409 0.22977 0.23618 0.0
C1286 C 0.76403 0.24166 0.26004 0.0
C1287 C 0.78622 0.24169 0.26311 0.0
H1288 H 0.66451 0.22718 0.77957 0.0
H1289 H 0.67576 0.2374 0.68247 0.0
H1290 H 0.70279 0.2265 0.78868 0.0
H1291 H 0.71388 0.23582 0.6913 0.0
H1292 H 0.78324 0.23953 0.71574 0.0
H1293 H 0.74592 0.25032 0.71217 0.0
H1294 H 0.72946 0.20008 0.77891 0.0
H1295 H 0.76656 0.18992 0.78326 0.0
C1296 C 0.67514 0.22955 0.76022 0.0
C1297 C 0.66707 0.23203 0.73025 0.0
C1298 C 0.69711 0.22899 0.76539 0.0
C1299 C 0.7115 0.23065 0.74065 0.0
C1300 C 0.70337 0.23461 0.71097 0.0
C1301 C 0.68142 0.2354 0.70587 0.0
C1302 C 0.77166 0.23096 0.72987 0.0
C1303 C 0.77793 0.21375 0.74962 0.0
C1304 C 0.75023 0.2371 0.72775 0.0
C1305 C 0.73458 0.22607 0.7452 0.0
C1306 C 0.74102 0.20927 0.76553 0.0
C1307 C 0.76237 0.20326 0.7678 0.0
H1308 H 0.78841 0.72256 0.17911 0.0
H1309 H 0.798 0.73152 0.27675 0.0
H1310 H 0.75015 0.72444 0.18641 0.0
H1311 H 0.75957 0.73253 0.28429 0.0
H1312 H 0.69593 0.76907 0.27708 0.0
H1313 H 0.7331 0.75915 0.27371 0.0
H1314 H 0.71774 0.70953 0.20602 0.0
H1315 H 0.6803 0.72005 0.20865 0.0
C1316 C 0.78234 0.7244 0.20228 0.0
C1317 C 0.79629 0.72726 0.22729 0.0
C1318 C 0.76032 0.72535 0.2065 0.0
C1319 C 0.75169 0.72897 0.23589 0.0
C1320 C 0.76565 0.73027 0.26121 0.0
C1321 C 0.7877 0.72954 0.25694 0.0
C1322 C 0.70036 0.75591 0.2616 0.0
C1323 C 0.68506 0.74551 0.24292 0.0
C1324 C 0.72176 0.75005 0.25989 0.0
C1325 C 0.72853 0.73348 0.23963 0.0
C1326 C 0.71316 0.72256 0.2216 0.0
C1327 C 0.69166 0.72854 0.22318 0.0
H1328 H 0.47769 0.41175 0.98675 0.0
H1329 H 0.53238 0.42354 0.04492 0.0
H1330 H 0.47741 0.45072 0.97243 0.0
H1331 H 0.53261 0.46199 0.02979 0.0
H1332 H 0.5114 0.53425 0.02321 0.0
H1333 H 0.51397 0.49529 0.03659 0.0
H1334 H 0.49622 0.47784 0.94361 0.0
H1335 H 0.49291 0.51672 0.93069 0.0
C1336 C 0.48969 0.42259 -0.00366 0.0
C1337 C 0.50493 0.41451 0.01713 0.0
C1338 C 0.48967 0.44491 0.98796 0.0
C1339 C 0.50503 0.45956 -8e-05 0.0
C1340 C 0.52032 0.45135 0.02052 0.0
C1341 C 0.52021 0.42919 0.02912 0.0
C1342 C 0.50847 0.52208 0.00551 0.0
C1343 C 0.50185 0.52854 0.97598 0.0
C1344 C 0.50989 0.4997 0.01315 0.0
C1345 C 0.50498 0.48334 -0.00872 0.0
C1346 C 0.49954 0.48993 0.96127 0.0
C1347 C 0.49788 0.51224 0.95376 0.0
H1348 H 0.95382 0.41897 0.52746 0.0
H1349 H 0.97673 0.43725 0.43719 0.0
H1350 H 0.95116 0.45775 0.54107 0.0
H1351 H 0.97321 0.47603 0.4502 0.0
H1352 H -0.0113 0.54212 0.49494 0.0
H1353 H -0.01004 0.50333 0.48033 0.0
H1354 H 0.93292 0.49085 0.53326 0.0
H1355 H 0.93227 0.52914 0.54886 0.0
C1356 C 0.9578 0.43129 0.51028 0.0
C1357 C 0.96556 0.42505 0.48132 0.0
C1358 C 0.95627 0.45357 0.51804 0.0
C1359 C 0.96217 0.47013 0.49684 0.0
C1360 C 0.96904 0.4638 0.4674 0.0
C1361 C 0.97085 0.44154 0.45981 0.0
C1362 C 0.9765 0.53103 0.50349 0.0
C1363 C 0.96051 0.5387 0.52325 0.0
C1364 C 0.9771 0.50881 0.49494 0.0
C1365 C 0.96152 0.49385 0.50561 0.0
C1366 C 0.94543 0.50169 0.52507 0.0
C1367 C 0.94501 0.52375 0.53393 0.0
H1368 H -0.007 0.41481 0.98352 0.0
H1369 H 0.93551 0.42708 0.93164 0.0
H1370 H -0.00526 0.45379 -0.00281 0.0
H1371 H 0.93665 0.46552 0.94633 0.0
H1372 H 0.95732 0.53747 0.94999 0.0
H1373 H 0.95479 0.49856 0.93709 0.0
H1374 H 0.97863 0.48138 0.02743 0.0
H1375 H 0.98202 0.52033 0.03973 0.0
C1376 C 0.98069 0.42578 0.97519 0.0
C1377 C 0.96425 0.41785 0.95629 0.0
C1378 C 0.98156 0.44811 0.98321 0.0
C1379 C 0.96582 0.46291 0.97285 0.0
C1380 C 0.9493 0.45481 0.95422 0.0
C1381 C 0.9486 0.43265 0.94589 0.0
C1382 C 0.96175 0.52537 0.96722 0.0
C1383 C 0.96992 0.53199 -0.00418 0.0
C1384 C 0.9603 0.503 0.95986 0.0
C1385 C 0.96667 0.48671 0.98113 0.0
C1386 C 0.97407 0.4934 0.01019 0.0
C1387 C 0.97579 0.51576 0.01738 0.0
H1388 H 0.50821 0.42269 0.45274 0.0
H1389 H 0.49185 0.4411 0.54567 0.0
H1390 H 0.51084 0.46151 0.43858 0.0
H1391 H 0.49524 0.47984 0.53193 0.0
H1392 H 0.47674 0.5457 0.48884 0.0
H1393 H 0.47616 0.50681 0.50346 0.0
H1394 H 0.52994 0.49479 0.44396 0.0
H1395 H 0.52998 0.5332 0.42852 0.0
C1396 C 0.50575 0.43502 0.47034 0.0
C1397 C 0.49973 0.42884 0.50025 0.0
C1398 C 0.50721 0.45732 0.46224 0.0
C1399 C 0.50294 0.47389 0.48401 0.0
C1400 C 0.49806 0.46759 0.51435 0.0
C1401 C 0.49637 0.44535 0.52232 0.0
C1402 C 0.48835 0.53471 0.47881 0.0
C1403 C 0.5033 0.54259 0.4574 0.0
C1404 C 0.48816 0.51243 0.48737 0.0
C1405 C 0.50307 0.4976 0.47497 0.0
C1406 C 0.51801 0.50557 0.45362 0.0
C1407 C 0.51805 0.52771 0.44485 0.0
H1408 H 0.9808 0.30539 0.07007 0.0
H1409 H 0.03533 0.3201 0.01299 0.0
H1410 H 0.00321 0.28521 0.1054 0.0
H1411 H 0.0581 0.29931 0.04878 0.0
H1412 H 0.08819 0.28554 0.14931 0.0
H1413 H 0.07184 0.30086 0.10276 0.0
H1414 H 0.02272 0.25098 0.10748 0.0
H1415 H 0.03855 0.23647 0.15458 0.0
C1416 C -0.00237 0.30427 0.06497 0.0
C1417 C 0.00622 0.31431 0.03858 0.0
C1418 C 0.0105 0.29242 0.08513 0.0
C1419 C 0.0324 0.29013 0.07956 0.0
C1420 C 0.04125 0.30064 0.05359 0.0
C1421 C 0.02824 0.31259 0.03319 0.0
C1422 C 0.07445 0.27731 0.13952 0.0
C1423 C 0.06452 0.25992 0.15547 0.0
C1424 C 0.065 0.28615 0.11296 0.0
C1425 C 0.04561 0.27756 0.10198 0.0
C1426 C 0.0373 0.2584 0.1159 0.0
C1427 C 0.0465 0.24985 0.1426 0.0
H1428 H 0.87641 0.77927 0.32728 0.0
H1429 H 0.92759 0.73226 0.3224 0.0
H1430 H 0.89283 0.79587 0.37284 0.0
H1431 H 0.94354 0.7481 0.36844 0.0
H1432 H -0.01594 0.80414 0.40424 0.0
H1433 H 0.96195 0.78319 0.36938 0.0
H1434 H 0.90712 0.79524 0.42671 0.0
H1435 H 0.92957 0.81679 0.46203 0.0
C1436 C 0.89056 0.77177 0.33692 0.0
C1437 C 0.90085 0.75459 0.32128 0.0
C1438 C 0.90005 0.78136 0.36291 0.0
C1439 C 0.91985 0.77374 0.37368 0.0
C1440 C 0.92863 0.7548 0.36016 0.0
C1441 C 0.91936 0.74549 0.33404 0.0
C1442 C 0.9673 0.80243 0.40958 0.0
C1443 C 0.95864 0.81208 0.43607 0.0
C1444 C 0.95461 0.79015 0.38968 0.0
C1445 C 0.93283 0.78701 0.39562 0.0
C1446 C 0.92389 0.79721 0.42162 0.0
C1447 C 0.93671 0.80959 0.44175 0.0
H1448 H 0.37708 0.67356 0.64898 0.0
H1449 H 0.43058 0.71693 0.66362 0.0
H1450 H 0.39418 0.65896 0.60274 0.0
H1451 H 0.44724 0.70327 0.61684 0.0
H1452 H 0.48593 0.64876 0.57456 0.0
H1453 H 0.46406 0.66817 0.61121 0.0
H1454 H 0.40979 0.66191 0.55067 0.0
H1455 H 0.43194 0.6418 0.51367 0.0
C1456 C 0.39198 0.68076 0.64138 0.0
C1457 C 0.40259 0.6963 0.65978 0.0
C1458 C 0.40185 0.67231 0.61499 0.0
C1459 C 0.42239 0.67947 0.60661 0.0
C1460 C 0.43174 0.69688 0.62319 0.0
C1461 C 0.42208 0.70498 0.64972 0.0
C1462 C 0.46934 0.65142 0.56892 0.0
C1463 C 0.46074 0.64379 0.54108 0.0
C1464 C 0.4568 0.66284 0.58987 0.0
C1465 C 0.43525 0.66715 0.5836 0.0
C1466 C 0.42637 0.65898 0.55612 0.0
C1467 C 0.43902 0.64742 0.535 0.0
H1468 H 0.58605 0.17156 0.82619 0.0
H1469 H 0.53675 0.22047 0.81808 0.0
H1470 H 0.56885 0.15666 0.87238 0.0
H1471 H 0.52009 0.20647 0.86487 0.0
H1472 H 0.47742 0.15382 0.90547 0.0
H1473 H 0.49999 0.17319 0.86932 0.0
H1474 H 0.55507 0.15851 0.9253 0.0
H1475 H 0.53218 0.13843 0.96172 0.0
C1476 C 0.57215 0.17982 0.83525 0.0
C1477 C 0.56264 0.1971 0.81867 0.0
C1478 C 0.5622 0.17122 0.86161 0.0
C1479 C 0.54273 0.17995 0.87181 0.0
C1480 C 0.5347 0.1989 0.85709 0.0
C1481 C 0.54439 0.20717 0.83056 0.0
C1482 C 0.49433 0.15465 0.91024 0.0
C1483 C 0.50295 0.14461 0.93659 0.0
C1484 C 0.5073 0.16604 0.8896 0.0
C1485 C 0.52933 0.1679 0.8947 0.0
C1486 C 0.53815 0.15747 0.92075 0.0
C1487 C 0.52506 0.14595 0.94155 0.0
H1488 H 0.97638 0.65151 0.41055 0.0
H1489 H 0.03133 0.63745 0.46707 0.0
H1490 H -0.00145 0.67163 0.37468 0.0
H1491 H 0.05382 0.65825 0.43089 0.0
H1492 H 0.08429 0.67256 0.33146 0.0
H1493 H 0.06767 0.65704 0.37768 0.0
H1494 H 0.0178 0.7057 0.37123 0.0
H1495 H 0.03389 0.72035 0.3244 0.0
C1496 C -0.00675 0.65277 0.41541 0.0
C1497 C 0.00204 0.64292 0.44179 0.0
C1498 C 0.00599 0.66459 0.39494 0.0
C1499 C 0.02794 0.66708 0.40024 0.0
C1500 C 0.03695 0.65676 0.42623 0.0
C1501 C 0.02409 0.6448 0.44688 0.0
C1502 C 0.07028 0.68047 0.34077 0.0
C1503 C 0.06028 0.69758 0.32442 0.0
C1504 C 0.06067 0.6715 0.36715 0.0
C1505 C 0.04104 0.67968 0.3776 0.0
C1506 C 0.03255 0.69854 0.36322 0.0
C1507 C 0.04191 0.7072 0.33668 0.0
H1508 H 0.58282 0.78337 0.64515 0.0
H1509 H 0.53009 0.73841 0.65629 0.0
H1510 H 0.56619 0.79853 0.59868 0.0
H1511 H 0.51395 0.75265 0.60928 0.0
H1512 H 0.47486 0.80719 0.56705 0.0
H1513 H 0.49644 0.78743 0.60395 0.0
H1514 H 0.55164 0.79613 0.54589 0.0
H1515 H 0.52977 0.8166 0.50865 0.0
C1516 C 0.56819 0.77603 0.63678 0.0
C1517 C 0.55761 0.75987 0.65429 0.0
C1518 C 0.5586 0.78476 0.61025 0.0
C1519 C 0.53842 0.77725 0.6008 0.0
C1520 C 0.52916 0.7593 0.61649 0.0
C1521 C 0.53851 0.75092 0.64318 0.0
C1522 C 0.49159 0.80497 0.562 0.0
C1523 C 0.50055 0.81342 0.5348 0.0
C1524 C 0.50397 0.79337 0.58308 0.0
C1525 C 0.52571 0.78968 0.57758 0.0
C1526 C 0.53492 0.79858 0.55073 0.0
C1527 C 0.52242 0.81034 0.52947 0.0
H1528 H 0.42508 0.23708 0.81874 0.0
H1529 H 0.37476 0.28452 0.82937 0.0
H1530 H 0.44207 0.25068 0.86545 0.0
H1531 H 0.39225 0.29904 0.87549 0.0
H1532 H 0.43022 0.31662 0.96427 0.0
H1533 H 0.40707 0.29666 0.92813 0.0
H1534 H 0.46132 0.28461 0.86961 0.0
H1535 H 0.48412 0.30388 0.90539 0.0
C1536 C 0.41728 0.24991 0.8318 0.0
C1537 C 0.39862 0.2597 0.82065 0.0
C1538 C 0.42714 0.25798 0.85827 0.0
C1539 C 0.4189 0.27646 0.87365 0.0
C1540 C 0.39906 0.28484 0.8642 0.0
C1541 C 0.38896 0.27644 0.8379 0.0
C1542 C 0.43709 0.30974 0.94358 0.0
C1543 C 0.45905 0.31174 0.93781 0.0
C1544 C 0.42386 0.29826 0.92295 0.0
C1545 C 0.4324 0.28855 0.8963 0.0
C1546 C 0.45425 0.29117 0.89036 0.0
C1547 C 0.46735 0.3025 0.9108 0.0
H1548 H 0.87977 0.17448 0.14741 0.0
H1549 H 0.93198 0.22048 0.15447 0.0
H1550 H 0.89617 0.15816 0.10178 0.0
H1551 H 0.94792 0.20496 0.10831 0.0
H1552 H -0.01261 0.14847 0.07229 0.0
H1553 H 0.96551 0.16959 0.10705 0.0
H1554 H 0.91088 0.15913 0.04838 0.0
H1555 H 0.93305 0.13741 0.01323 0.0
C1556 C 0.89417 0.18184 0.13822 0.0
C1557 C 0.90474 0.19861 0.15446 0.0
C1558 C 0.90364 0.17241 0.11219 0.0
C1559 C 0.92368 0.17982 0.10202 0.0
C1560 C 0.93279 0.19843 0.11615 0.0
C1561 C 0.92355 0.20755 0.14232 0.0
C1562 C 0.97072 0.15058 0.06665 0.0
C1563 C 0.96202 0.14132 0.03986 0.0
C1564 C 0.95818 0.16295 0.08648 0.0
C1565 C 0.93653 0.16656 0.08012 0.0
C1566 C 0.92754 0.15678 0.05379 0.0
C1567 C 0.94021 0.1443 0.03375 0.0
H1568 H 0.93175 0.60131 0.87061 0.0
H1569 H 0.91087 0.64307 0.94496 0.0
H1570 H 0.9117 0.6237 0.83415 0.0
H1571 H 0.89122 0.66578 0.90837 0.0
H1572 H 0.8501 0.69854 0.83552 0.0
H1573 H 0.86247 0.66979 0.87088 0.0
H1574 H 0.91813 0.66028 0.81422 0.0
H1575 H 0.90568 0.68849 0.77888 0.0
C1576 C 0.92262 0.61507 0.87927 0.0
C1577 C 0.92317 0.62057 0.91065 0.0
C1578 C 0.91123 0.628 0.85832 0.0
C1579 C 0.90017 0.64679 0.86823 0.0
C1580 C 0.89948 0.65138 0.89993 0.0
C1581 C 0.91083 0.63838 0.92093 0.0
C1582 C 0.86484 0.69008 0.83046 0.0
C1583 C 0.87697 0.69591 0.80447 0.0
C1584 C 0.87197 0.67369 0.85079 0.0
C1585 C 0.89129 0.6627 0.84543 0.0
C1586 C 0.90301 0.66811 0.81888 0.0
C1587 C 0.89595 0.68448 0.7987 0.0
H1588 H 0.12922 0.19568 0.61363 0.0
H1589 H 0.08213 0.1868 0.68504 0.0
H1590 H 0.11185 0.16707 0.58314 0.0
H1591 H 0.06444 0.15892 0.65432 0.0
H1592 H 0.04037 0.10155 0.60165 0.0
H1593 H 0.06499 0.12308 0.63292 0.0
H1594 H 0.08003 0.16359 0.55379 0.0
H1595 H 0.05608 0.1416 0.52239 0.0
C1596 C 0.11527 0.18753 0.62293 0.0
C1597 C 0.10699 0.19368 0.65168 0.0
C1598 C 0.10522 0.17121 0.60536 0.0
C1599 C 0.08662 0.16073 0.61609 0.0
C1600 C 0.07888 0.16633 0.6454 0.0
C1601 C 0.08897 0.18251 0.66299 0.0
C1602 C 0.04924 0.1148 0.59081 0.0
C1603 C 0.04607 0.11999 0.5596 0.0
C1604 C 0.06326 0.12726 0.6088 0.0
C1605 C 0.0743 0.14534 0.59607 0.0
C1606 C 0.072 0.14971 0.56441 0.0
C1607 C 0.05813 0.13713 0.54638 0.0
H1608 H 0.52033 0.33201 0.37354 0.0
H1609 H 0.55547 0.31945 0.45731 0.0
H1610 H 0.54406 0.30764 0.34556 0.0
H1611 H 0.57946 0.29523 0.42909 0.0
H1612 H 0.59298 0.22942 0.37745 0.0
H1613 H 0.57551 0.25867 0.40603 0.0
H1614 H 0.58023 0.30159 0.32677 0.0
H1615 H 0.59748 0.27218 0.29794 0.0
C1616 C 0.53335 0.32435 0.3859 0.0
C1617 C 0.53586 0.32754 0.41774 0.0
C1618 C 0.54706 0.31046 0.36979 0.0
C1619 C 0.56359 0.29934 0.38512 0.0
C1620 C 0.5667 0.30331 0.41669 0.0
C1621 C 0.55303 0.31731 0.43281 0.0
C1622 C 0.59054 0.24517 0.3662 0.0
C1623 C 0.59647 0.24837 0.33531 0.0
C1624 C 0.58064 0.26202 0.38268 0.0
C1625 C 0.57637 0.28246 0.36866 0.0
C1626 C 0.58305 0.28595 0.33813 0.0
C1627 C 0.59303 0.26911 0.32166 0.0
H1628 H 0.40853 0.82897 0.03916 0.0
H1629 H 0.45963 0.82396 0.1054 0.0
H1630 H 0.38455 0.81044 0.07548 0.0
H1631 H 0.43624 0.805 0.1408 0.0
H1632 H 0.39025 0.78226 0.20939 0.0
H1633 H 0.40719 0.80819 0.17422 0.0
H1634 H 0.37858 0.7744 0.09704 0.0
H1635 H 0.36078 0.74908 0.1326 0.0
C1636 C 0.41459 0.82409 0.0615 0.0
C1637 C 0.43601 0.82793 0.06933 0.0
C1638 C 0.4009 0.81333 0.08224 0.0
C1639 C 0.40837 0.80622 0.1112 0.0
C1640 C 0.42968 0.81059 0.11909 0.0
C1641 C 0.44323 0.82136 0.09855 0.0
C1642 C 0.38726 0.78065 0.18493 0.0
C1643 C 0.37441 0.7635 0.17371 0.0
C1644 C 0.3971 0.79541 0.16471 0.0
C1645 C 0.39471 0.79312 0.13266 0.0
C1646 C 0.38075 0.77677 0.12153 0.0
C1647 C 0.37058 0.76219 0.1419 0.0
H1648 H 0.92062 0.35408 0.60151 0.0
H1649 H 0.90701 0.31223 0.52366 0.0
H1650 H 0.89632 0.33229 0.6331 0.0
H1651 H 0.88338 0.29 0.5554 0.0
H1652 H 0.83439 0.25745 0.61516 0.0
H1653 H 0.85133 0.28607 0.58396 0.0
H1654 H 0.89754 0.29688 0.65615 0.0
H1655 H 0.88025 0.26897 0.68755 0.0
C1656 C 0.91228 0.34037 0.59104 0.0
C1657 C 0.91594 0.33478 0.56014 0.0
C1658 C 0.89844 0.32776 0.60922 0.0
C1659 C 0.88807 0.30914 0.59701 0.0
C1660 C 0.89088 0.30431 0.56562 0.0
C1661 C 0.90456 0.31703 0.54738 0.0
C1662 C 0.84798 0.26619 0.62452 0.0
C1663 C 0.85605 0.26077 0.65377 0.0
C1664 C 0.85778 0.28252 0.60655 0.0
C1665 C 0.87594 0.29373 0.61735 0.0
C1666 C 0.88344 0.28888 0.64714 0.0
C1667 C 0.87358 0.27269 0.66513 0.0
H1668 H 0.36505 0.22101 0.37405 0.0
H1669 H 0.36522 0.17988 0.29307 0.0
H1670 H 0.38203 0.19174 0.40337 0.0
H1671 H 0.38181 0.15029 0.32271 0.0
H1672 H 0.4412 0.12154 0.3728 0.0
H1673 H 0.41689 0.14465 0.34368 0.0
H1674 H 0.37958 0.15534 0.42572 0.0
H1675 H 0.40432 0.13254 0.45517 0.0
C1676 C 0.36835 0.20556 0.36262 0.0
C1677 C 0.364 0.2029 0.3311 0.0
C1678 C 0.37796 0.18867 0.37953 0.0
C1679 C 0.38343 0.16867 0.36538 0.0
C1680 C 0.37811 0.16561 0.33422 0.0
C1681 C 0.3685 0.18253 0.31726 0.0
C1682 C 0.42764 0.12851 0.38459 0.0
C1683 C 0.42488 0.1254 0.41642 0.0
C1684 C 0.41357 0.14168 0.36779 0.0
C1685 C 0.39636 0.15205 0.38238 0.0
C1686 C 0.39288 0.1479 0.41388 0.0
C1687 C 0.40699 0.1347 0.43072 0.0
H1688 H 0.55368 0.64474 0.01952 0.0
H1689 H 0.54152 0.60323 0.09859 0.0
H1690 H 0.57697 0.66783 0.05046 0.0
H1691 H 0.56549 0.62587 0.12938 0.0
H1692 H 0.58203 0.68937 0.18241 0.0
H1693 H 0.56439 0.66128 0.15189 0.0
H1694 H 0.60926 0.67242 0.07807 0.0
H1695 H 0.62649 0.70121 0.10835 0.0
C1696 C 0.55634 0.64024 0.04336 0.0
C1697 C 0.54552 0.62226 0.05665 0.0
C1698 C 0.56984 0.65345 0.06114 0.0
C1699 C 0.57302 0.64891 0.0926 0.0
C1700 C 0.56309 0.63018 0.10542 0.0
C1701 C 0.54944 0.61708 0.0877 0.0
C1702 C 0.58832 0.68569 0.15981 0.0
C1703 C 0.60557 0.69773 0.14773 0.0
C1704 C 0.57826 0.66941 0.14231 0.0
C1705 C 0.58527 0.66458 0.11234 0.0
C1706 C 0.60315 0.67595 0.10081 0.0
C1707 C 0.61314 0.69237 0.11826 0.0
H1708 H 0.10123 0.77599 0.79079 0.0
H1709 H 0.10058 0.73398 0.87131 0.0
H1710 H 0.08462 0.80537 0.82045 0.0
H1711 H 0.08358 0.76304 0.90064 0.0
H1712 H 0.06143 0.82175 0.95278 0.0
H1713 H 0.08624 0.7992 0.9234 0.0
H1714 H 0.04946 0.81108 0.84094 0.0
H1715 H 0.02508 0.83394 0.87 0.0
C1716 C 0.09776 0.77309 0.81488 0.0
C1717 C 0.10205 0.75255 0.82859 0.0
C1718 C 0.08814 0.7899 0.83184 0.0
C1719 C 0.0826 0.78654 0.86289 0.0
C1720 C 0.08783 0.76634 0.87691 0.0
C1721 C 0.09745 0.74957 0.85998 0.0
C1722 C 0.05891 0.81992 0.92825 0.0
C1723 C 0.04112 0.82945 0.91381 0.0
C1724 C 0.07304 0.80686 0.91145 0.0
C1725 C 0.06972 0.80308 0.87986 0.0
C1726 C 0.05265 0.81374 0.86514 0.0
C1727 C 0.03856 0.82678 0.8819 0.0
loop_
_geom_bond_atom_site_label_1
_geom_bond_atom_site_label_2
_geom_bond_distance
_geom_bond_site_symmetry_2
_ccdc_geom_bond_type
Mg0 O1 2.028 . S
Mg0 O7 1.986 . S
Mg0 O9 2.114 . S
Mg0 O10 2.251 . S
Mg0 O13 2.010 . S
O1 Mg0 2.028 . S
O1 C4 1.250 . S
O2 Mg3 2.028 . S
O2 C4 1.248 . S
Mg3 O2 2.028 . S
Mg3 O8 2.032 . S
Mg3 O10 2.079 . S
C4 O1 1.250 . S
C4 O2 1.248 . S
C5 O6 1.264 . S
C5 O13 1.249 . S
O6 C5 1.264 . S
O7 Mg0 1.986 . S
O7 C11 1.246 . S
O8 Mg3 2.032 . S
O8 C11 1.259 . S
O9 Mg0 2.114 . S
O9 C12 1.252 . S
O10 Mg0 2.251 . S
O10 Mg3 2.079 . S
O10 C12 1.273 . S
C11 O7 1.246 . S
C11 O8 1.259 . S
C12 O9 1.252 . S
C12 O10 1.273 . S
O13 Mg0 2.010 . S
O13 C5 1.249 . S
Mg14 O15 2.028 1_455 S
Mg14 O21 1.986 1_455 S
Mg14 O23 2.114 . S
Mg14 O24 2.251 . S
Mg14 O27 2.010 1_455 S
O15 Mg14 2.028 1_655 S
O15 C18 1.250 . S
O16 Mg17 2.028 1_655 S
O16 C18 1.248 . S
Mg17 O16 2.028 1_455 S
Mg17 O22 2.032 . S
Mg17 O24 2.079 . S
C18 O15 1.250 . S
C18 O16 1.248 . S
C19 O20 1.264 . S
C19 O27 1.249 . S
O20 C19 1.264 . S
O21 Mg14 1.986 1_655 S
O21 C25 1.252 . S
O22 Mg17 2.032 . S
O22 C25 1.254 1_455 S
O23 Mg14 2.114 . S
O23 C26 1.252 . S
O24 Mg14 2.251 . S
O24 Mg17 2.079 . S
O24 C26 1.273 . S
C25 O21 1.252 . S
C25 O22 1.254 1_655 S
C26 O23 1.252 . S
C26 O24 1.273 . S
O27 Mg14 2.010 1_655 S
O27 C19 1.249 . S
Mg28 O29 2.028 . S
Mg28 O35 1.986 . S
Mg28 O37 2.114 . S
Mg28 O38 2.251 . S
Mg28 O41 2.010 . S
O29 Mg28 2.028 . S
O29 C32 1.250 . S
O30 Mg31 2.028 . S
O30 C32 1.248 . S
Mg31 O30 2.028 . S
Mg31 O36 2.032 . S
Mg31 O38 2.079 . S
C32 O29 1.250 . S
C32 O30 1.248 . S
C33 O34 1.264 . S
C33 O41 1.249 . S
O34 C33 1.264 . S
O35 Mg28 1.986 . S
O35 C39 1.246 . S
O36 Mg31 2.032 . S
O36 C39 1.259 . S
O37 Mg28 2.114 . S
O37 C40 1.252 . S
O38 Mg28 2.251 . S
O38 Mg31 2.079 . S
O38 C40 1.273 . S
C39 O35 1.246 . S
C39 O36 1.259 . S
C40 O37 1.252 . S
C40 O38 1.273 . S
O41 Mg28 2.010 . S
O41 C33 1.249 . S
Mg42 O43 2.028 . S
Mg42 O49 1.986 . S
Mg42 O51 2.114 . S
Mg42 O52 2.251 . S
Mg42 O55 2.010 1_554 S
O43 Mg42 2.028 . S
O43 C46 1.250 . S
O44 Mg45 2.028 . S
O44 C46 1.248 . S
Mg45 O44 2.028 . S
Mg45 O50 2.032 . S
Mg45 O52 2.079 . S
C46 O43 1.250 . S
C46 O44 1.248 . S
C47 O48 1.264 . S
C47 O55 1.249 . S
O48 C47 1.264 . S
O49 Mg42 1.986 . S
O49 C53 1.246 . S
O50 Mg45 2.032 . S
O50 C53 1.259 . S
O51 Mg42 2.114 . S
O51 C54 1.252 . S
O52 Mg42 2.251 . S
O52 Mg45 2.079 . S
O52 C54 1.273 . S
C53 O49 1.246 . S
C53 O50 1.259 . S
C54 O51 1.252 . S
C54 O52 1.273 . S
O55 Mg42 2.010 1_556 S
O55 C47 1.249 . S
Mg56 O57 2.028 . S
Mg56 O63 1.986 . S
Mg56 O65 2.114 . S
Mg56 O66 2.251 . S
Mg56 O69 2.010 . S
O57 Mg56 2.028 . S
O57 C60 1.250 . S
O58 Mg59 2.028 . S
O58 C60 1.248 . S
Mg59 O58 2.028 . S
Mg59 O64 2.032 . S
Mg59 O66 2.079 . S
C60 O57 1.250 . S
C60 O58 1.248 . S
C61 O62 1.264 . S
C61 O69 1.249 . S
O62 C61 1.264 . S
O63 Mg56 1.986 . S
O63 C67 1.246 . S
O64 Mg59 2.032 . S
O64 C67 1.259 . S
O65 Mg56 2.114 . S
O65 C68 1.252 . S
O66 Mg56 2.251 . S
O66 Mg59 2.079 . S
O66 C68 1.273 . S
C67 O63 1.246 . S
C67 O64 1.259 . S
C68 O65 1.252 . S
C68 O66 1.273 . S
O69 Mg56 2.010 . S
O69 C61 1.249 . S
Mg70 O71 2.028 . S
Mg70 O77 1.986 . S
Mg70 O79 2.114 . S
Mg70 O80 2.251 . S
Mg70 O83 2.010 . S
O71 Mg70 2.028 . S
O71 C74 1.250 . S
O72 Mg73 2.028 . S
O72 C74 1.248 . S
Mg73 O72 2.028 . S
Mg73 O78 2.032 . S
Mg73 O80 2.079 . S
C74 O71 1.250 . S
C74 O72 1.248 . S
C75 O76 1.264 . S
C75 O83 1.249 . S
O76 C75 1.264 . S
O77 Mg70 1.986 . S
O77 C81 1.246 . S
O78 Mg73 2.032 . S
O78 C81 1.259 . S
O79 Mg70 2.114 . S
O79 C82 1.252 . S
O80 Mg70 2.251 . S
O80 Mg73 2.079 . S
O80 C82 1.273 . S
C81 O77 1.246 . S
C81 O78 1.259 . S
C82 O79 1.252 . S
C82 O80 1.273 . S
O83 Mg70 2.010 . S
O83 C75 1.249 . S
Mg84 O85 2.028 . S
Mg84 O91 1.986 . S
Mg84 O93 2.114 . S
Mg84 O94 2.251 . S
Mg84 O97 2.010 . S
O85 Mg84 2.028 . S
O85 C88 1.250 . S
O86 Mg87 2.028 . S
O86 C88 1.248 . S
Mg87 O86 2.028 . S
Mg87 O92 2.032 . S
Mg87 O94 2.079 . S
C88 O85 1.250 . S
C88 O86 1.248 . S
C89 O90 1.264 . S
C89 O97 1.249 . S
O90 C89 1.264 . S
O91 Mg84 1.986 . S
O91 C95 1.246 . S
O92 Mg87 2.032 . S
O92 C95 1.259 . S
O93 Mg84 2.114 . S
O93 C96 1.252 . S
O94 Mg84 2.251 . S
O94 Mg87 2.079 . S
O94 C96 1.273 . S
C95 O91 1.246 . S
C95 O92 1.259 . S
C96 O93 1.252 . S
C96 O94 1.273 . S
O97 Mg84 2.010 . S
O97 C89 1.249 . S
Mg98 O99 2.028 1_455 S
Mg98 O105 1.986 1_455 S
Mg98 O107 2.114 . S
Mg98 O108 2.251 . S
Mg98 O111 2.010 1_456 S
O99 Mg98 2.028 1_655 S
O99 C102 1.250 . S
O100 Mg101 2.028 1_655 S
O100 C102 1.248 . S
Mg101 O100 2.028 1_455 S
Mg101 O106 2.032 . S
Mg101 O108 2.079 . S
C102 O99 1.250 . S
C102 O100 1.248 . S
C103 O104 1.264 . S
C103 O111 1.249 . S
O104 C103 1.264 . S
O105 Mg98 1.986 1_655 S
O105 C109 1.252 . S
O106 Mg101 2.032 . S
O106 C109 1.254 1_455 S
O107 Mg98 2.114 . S
O107 C110 1.252 . S
O108 Mg98 2.251 . S
O108 Mg101 2.079 . S
O108 C110 1.273 . S
C109 O105 1.252 . S
C109 O106 1.254 1_655 S
C110 O107 1.252 . S
C110 O108 1.273 . S
O111 Mg98 2.010 1_654 S
O111 C103 1.249 . S
Mg112 O113 2.028 . S
Mg112 O119 1.986 . S
Mg112 O121 2.114 . S
Mg112 O122 2.251 . S
Mg112 O125 2.010 . S
O113 Mg112 2.028 . S
O113 C116 1.250 . S
O114 Mg115 2.028 . S
O114 C116 1.248 . S
Mg115 O114 2.028 . S
Mg115 O120 2.032 . S
Mg115 O122 2.079 . S
C116 O113 1.250 . S
C116 O114 1.248 . S
C117 O118 1.264 . S
C117 O125 1.249 . S
O118 C117 1.264 . S
O119 Mg112 1.986 . S
O119 C123 1.246 . S
O120 Mg115 2.032 . S
O120 C123 1.259 . S
O121 Mg112 2.114 . S
O121 C124 1.252 . S
O122 Mg112 2.251 . S
O122 Mg115 2.079 . S
O122 C124 1.273 . S
C123 O119 1.246 . S
C123 O120 1.259 . S
C124 O121 1.252 . S
C124 O122 1.273 . S
O125 Mg112 2.010 . S
O125 C117 1.249 . S
Mg126 O127 2.028 . S
Mg126 O133 1.986 . S
Mg126 O135 2.114 1_455 S
Mg126 O136 2.251 1_455 S
Mg126 O139 2.010 . S
O127 Mg126 2.028 . S
O127 C130 1.250 . S
O128 Mg129 2.028 . S
O128 C130 1.248 . S
Mg129 O128 2.028 . S
Mg129 O134 2.032 . S
Mg129 O136 2.079 1_455 S
C130 O127 1.250 . S
C130 O128 1.248 . S
C131 O132 1.264 . S
C131 O139 1.249 . S
O132 C131 1.264 . S
O133 Mg126 1.986 . S
O133 C137 1.246 . S
O134 Mg129 2.032 . S
O134 C137 1.259 . S
O135 Mg126 2.114 1_655 S
O135 C138 1.252 . S
O136 Mg126 2.251 1_655 S
O136 Mg129 2.079 1_655 S
O136 C138 1.273 . S
C137 O133 1.246 . S
C137 O134 1.259 . S
C138 O135 1.252 . S
C138 O136 1.273 . S
O139 Mg126 2.010 . S
O139 C131 1.249 . S
Mg140 O141 2.028 . S
Mg140 O147 1.986 . S
Mg140 O149 2.114 . S
Mg140 O150 2.251 . S
Mg140 O153 2.010 . S
O141 Mg140 2.028 . S
O141 C144 1.250 . S
O142 Mg143 2.028 . S
O142 C144 1.248 . S
Mg143 O142 2.028 . S
Mg143 O148 2.032 . S
Mg143 O150 2.079 . S
C144 O141 1.250 . S
C144 O142 1.248 . S
C145 O146 1.264 . S
C145 O153 1.249 . S
O146 C145 1.264 . S
O147 Mg140 1.986 . S
O147 C151 1.246 . S
O148 Mg143 2.032 . S
O148 C151 1.259 . S
O149 Mg140 2.114 . S
O149 C152 1.252 . S
O150 Mg140 2.251 . S
O150 Mg143 2.079 . S
O150 C152 1.273 . S
C151 O147 1.246 . S
C151 O148 1.259 . S
C152 O149 1.252 . S
C152 O150 1.273 . S
O153 Mg140 2.010 . S
O153 C145 1.249 . S
Mg154 O155 2.028 . S
Mg154 O161 1.986 . S
Mg154 O163 2.114 . S
Mg154 O164 2.251 . S
Mg154 O167 2.010 1_556 S
O155 Mg154 2.028 . S
O155 C158 1.250 . S
O156 Mg157 2.028 . S
O156 C158 1.248 . S
Mg157 O156 2.028 . S
Mg157 O162 2.032 . S
Mg157 O164 2.079 . S
C158 O155 1.250 . S
C158 O156 1.248 . S
C159 O160 1.264 . S
C159 O167 1.249 . S
O160 C159 1.264 . S
O161 Mg154 1.986 . S
O161 C165 1.246 . S
O162 Mg157 2.032 . S
O162 C165 1.259 . S
O163 Mg154 2.114 . S
O163 C166 1.252 . S
O164 Mg154 2.251 . S
O164 Mg157 2.079 . S
O164 C166 1.273 . S
C165 O161 1.246 . S
C165 O162 1.259 . S
C166 O163 1.252 . S
C166 O164 1.273 . S
O167 Mg154 2.010 1_554 S
O167 C159 1.249 . S
Mg168 O169 2.028 . S
Mg168 O175 1.986 . S
Mg168 O177 2.114 . S
Mg168 O178 2.251 . S
Mg168 O181 2.010 . S
O169 Mg168 2.028 . S
O169 C172 1.250 . S
O170 Mg171 2.028 . S
O170 C172 1.248 . S
Mg171 O170 2.028 . S
Mg171 O176 2.032 . S
Mg171 O178 2.079 . S
C172 O169 1.250 . S
C172 O170 1.248 . S
C173 O174 1.264 . S
C173 O181 1.249 . S
O174 C173 1.264 . S
O175 Mg168 1.986 . S
O175 C179 1.246 . S
O176 Mg171 2.032 . S
O176 C179 1.259 . S
O177 Mg168 2.114 . S
O177 C180 1.252 . S
O178 Mg168 2.251 . S
O178 Mg171 2.079 . S
O178 C180 1.273 . S
C179 O175 1.246 . S
C179 O176 1.259 . S
C180 O177 1.252 . S
C180 O178 1.273 . S
O181 Mg168 2.010 . S
O181 C173 1.249 . S
Mg182 O183 2.028 . S
Mg182 O189 1.986 . S
Mg182 O191 2.114 . S
Mg182 O192 2.251 . S
Mg182 O195 2.010 . S
O183 Mg182 2.028 . S
O183 C186 1.250 . S
O184 Mg185 2.028 . S
O184 C186 1.248 . S
Mg185 O184 2.028 . S
Mg185 O190 2.032 . S
Mg185 O192 2.079 . S
C186 O183 1.250 . S
C186 O184 1.248 . S
C187 O188 1.264 . S
C187 O195 1.249 . S
O188 C187 1.264 . S
O189 Mg182 1.986 . S
O189 C193 1.246 . S
O190 Mg185 2.032 . S
O190 C193 1.259 . S
O191 Mg182 2.114 . S
O191 C194 1.252 . S
O192 Mg182 2.251 . S
O192 Mg185 2.079 . S
O192 C194 1.273 . S
C193 O189 1.246 . S
C193 O190 1.259 . S
C194 O191 1.252 . S
C194 O192 1.273 . S
O195 Mg182 2.010 . S
O195 C187 1.249 . S
Mg196 O197 2.028 . S
Mg196 O203 1.986 . S
Mg196 O205 2.114 . S
Mg196 O206 2.251 . S
Mg196 O209 2.010 . S
O197 Mg196 2.028 . S
O197 C200 1.250 . S
O198 Mg199 2.028 . S
O198 C200 1.248 . S
Mg199 O198 2.028 . S
Mg199 O204 2.032 . S
Mg199 O206 2.079 . S
C200 O197 1.250 . S
C200 O198 1.248 . S
C201 O202 1.264 . S
C201 O209 1.249 . S
O202 C201 1.264 . S
O203 Mg196 1.986 . S
O203 C207 1.246 . S
O204 Mg199 2.032 . S
O204 C207 1.259 . S
O205 Mg196 2.114 . S
O205 C208 1.252 . S
O206 Mg196 2.251 . S
O206 Mg199 2.079 . S
O206 C208 1.273 . S
C207 O203 1.246 . S
C207 O204 1.259 . S
C208 O205 1.252 . S
C208 O206 1.273 . S
O209 Mg196 2.010 . S
O209 C201 1.249 . S
Mg210 O211 2.028 . S
Mg210 O217 1.986 . S
Mg210 O219 2.114 1_455 S
Mg210 O220 2.251 1_455 S
Mg210 O223 2.010 1_554 S
O211 Mg210 2.028 . S
O211 C214 1.250 . S
O212 Mg213 2.028 . S
O212 C214 1.248 . S
Mg213 O212 2.028 . S
Mg213 O218 2.032 . S
Mg213 O220 2.079 1_455 S
C214 O211 1.250 . S
C214 O212 1.248 . S
C215 O216 1.264 . S
C215 O223 1.249 . S
O216 C215 1.264 . S
O217 Mg210 1.986 . S
O217 C221 1.246 . S
O218 Mg213 2.032 . S
O218 C221 1.259 . S
O219 Mg210 2.114 1_655 S
O219 C222 1.252 . S
O220 Mg210 2.251 1_655 S
O220 Mg213 2.079 1_655 S
O220 C222 1.273 . S
C221 O217 1.246 . S
C221 O218 1.259 . S
C222 O219 1.252 . S
C222 O220 1.273 . S
O223 Mg210 2.010 1_556 S
O223 C215 1.249 . S
Mg224 O225 2.028 . S
Mg224 O231 1.986 . S
Mg224 O233 2.114 . S
Mg224 O234 2.251 . S
Mg224 O237 2.010 . S
O225 Mg224 2.028 . S
O225 C228 1.250 . S
O226 Mg227 2.028 . S
O226 C228 1.248 . S
Mg227 O226 2.028 . S
Mg227 O232 2.032 . S
Mg227 O234 2.079 . S
C228 O225 1.250 . S
C228 O226 1.248 . S
C229 O230 1.264 . S
C229 O237 1.249 . S
O230 C229 1.264 . S
O231 Mg224 1.986 . S
O231 C235 1.246 . S
O232 Mg227 2.032 . S
O232 C235 1.259 . S
O233 Mg224 2.114 . S
O233 C236 1.252 . S
O234 Mg224 2.251 . S
O234 Mg227 2.079 . S
O234 C236 1.273 . S
C235 O231 1.246 . S
C235 O232 1.259 . S
C236 O233 1.252 . S
C236 O234 1.273 . S
O237 Mg224 2.010 . S
O237 C229 1.249 . S
Mg238 O239 2.028 . S
Mg238 O245 1.986 . S
Mg238 O247 2.114 . S
Mg238 O248 2.251 . S
Mg238 O251 2.010 1_554 S
O239 Mg238 2.028 . S
O239 C242 1.250 . S
O240 Mg241 2.028 . S
O240 C242 1.248 . S
Mg241 O240 2.028 . S
Mg241 O246 2.032 . S
Mg241 O248 2.079 . S
C242 O239 1.250 . S
C242 O240 1.248 . S
C243 O244 1.264 . S
C243 O251 1.249 . S
O244 C243 1.264 . S
O245 Mg238 1.986 . S
O245 C249 1.246 . S
O246 Mg241 2.032 . S
O246 C249 1.259 . S
O247 Mg238 2.114 . S
O247 C250 1.252 . S
O248 Mg238 2.251 . S
O248 Mg241 2.079 . S
O248 C250 1.273 . S
C249 O245 1.246 . S
C249 O246 1.259 . S
C250 O247 1.252 . S
C250 O248 1.273 . S
O251 Mg238 2.010 1_556 S
O251 C243 1.249 . S
Mg252 O253 2.028 . S
Mg252 O259 1.986 . S
Mg252 O261 2.114 . S
Mg252 O262 2.251 . S
Mg252 O265 2.010 . S
O253 Mg252 2.028 . S
O253 C256 1.250 . S
O254 Mg255 2.028 . S
O254 C256 1.248 . S
Mg255 O254 2.028 . S
Mg255 O260 2.032 . S
Mg255 O262 2.079 . S
C256 O253 1.250 . S
C256 O254 1.248 . S
C257 O258 1.264 . S
C257 O265 1.249 . S
O258 C257 1.264 . S
O259 Mg252 1.986 . S
O259 C263 1.246 . S
O260 Mg255 2.032 . S
O260 C263 1.259 . S
O261 Mg252 2.114 . S
O261 C264 1.252 . S
O262 Mg252 2.251 . S
O262 Mg255 2.079 . S
O262 C264 1.273 . S
C263 O259 1.246 . S
C263 O260 1.259 . S
C264 O261 1.252 . S
C264 O262 1.273 . S
O265 Mg252 2.010 . S
O265 C257 1.249 . S
Mg266 O267 2.028 1_655 S
Mg266 O273 1.986 1_655 S
Mg266 O275 2.114 . S
Mg266 O276 2.251 . S
Mg266 O279 2.010 1_655 S
O267 Mg266 2.028 1_455 S
O267 C270 1.250 . S
O268 Mg269 2.028 1_455 S
O268 C270 1.248 . S
Mg269 O268 2.028 1_655 S
Mg269 O274 2.032 . S
Mg269 O276 2.079 . S
C270 O267 1.250 . S
C270 O268 1.248 . S
C271 O272 1.264 . S
C271 O279 1.249 . S
O272 C271 1.264 . S
O273 Mg266 1.986 1_455 S
O273 C277 1.252 . S
O274 Mg269 2.032 . S
O274 C277 1.254 1_655 S
O275 Mg266 2.114 . S
O275 C278 1.252 . S
O276 Mg266 2.251 . S
O276 Mg269 2.079 . S
O276 C278 1.273 . S
C277 O273 1.252 . S
C277 O274 1.254 1_455 S
C278 O275 1.252 . S
C278 O276 1.273 . S
O279 Mg266 2.010 1_455 S
O279 C271 1.249 . S
Mg280 O281 2.028 . S
Mg280 O287 1.986 . S
Mg280 O289 2.114 . S
Mg280 O290 2.251 . S
Mg280 O293 2.010 . S
O281 Mg280 2.028 . S
O281 C284 1.250 . S
O282 Mg283 2.028 . S
O282 C284 1.248 . S
Mg283 O282 2.028 . S
Mg283 O288 2.032 . S
Mg283 O290 2.079 . S
C284 O281 1.250 . S
C284 O282 1.248 . S
C285 O286 1.264 . S
C285 O293 1.249 . S
O286 C285 1.264 . S
O287 Mg280 1.986 . S
O287 C291 1.246 . S
O288 Mg283 2.032 . S
O288 C291 1.259 . S
O289 Mg280 2.114 . S
O289 C292 1.252 . S
O290 Mg280 2.251 . S
O290 Mg283 2.079 . S
O290 C292 1.273 . S
C291 O287 1.246 . S
C291 O288 1.259 . S
C292 O289 1.252 . S
C292 O290 1.273 . S
O293 Mg280 2.010 . S
O293 C285 1.249 . S
Mg294 O295 2.028 1_655 S
Mg294 O301 1.986 1_655 S
Mg294 O303 2.114 . S
Mg294 O304 2.251 . S
Mg294 O307 2.010 1_656 S
O295 Mg294 2.028 1_455 S
O295 C298 1.250 . S
O296 Mg297 2.028 1_455 S
O296 C298 1.248 . S
Mg297 O296 2.028 1_655 S
Mg297 O302 2.032 . S
Mg297 O304 2.079 . S
C298 O295 1.250 . S
C298 O296 1.248 . S
C299 O300 1.264 . S
C299 O307 1.249 . S
O300 C299 1.264 . S
O301 Mg294 1.986 1_455 S
O301 C305 1.252 . S
O302 Mg297 2.032 . S
O302 C305 1.254 1_655 S
O303 Mg294 2.114 . S
O303 C306 1.252 . S
O304 Mg294 2.251 . S
O304 Mg297 2.079 . S
O304 C306 1.273 . S
C305 O301 1.252 . S
C305 O302 1.254 1_455 S
C306 O303 1.252 . S
C306 O304 1.273 . S
O307 Mg294 2.010 1_454 S
O307 C299 1.249 . S
Mg308 O309 2.028 . S
Mg308 O315 1.986 . S
Mg308 O317 2.114 . S
Mg308 O318 2.251 . S
Mg308 O321 2.010 . S
O309 Mg308 2.028 . S
O309 C312 1.250 . S
O310 Mg311 2.028 . S
O310 C312 1.248 . S
Mg311 O310 2.028 . S
Mg311 O316 2.032 . S
Mg311 O318 2.079 . S
C312 O309 1.250 . S
C312 O310 1.248 . S
C313 O314 1.264 . S
C313 O321 1.249 . S
O314 C313 1.264 . S
O315 Mg308 1.986 . S
O315 C319 1.246 . S
O316 Mg311 2.032 . S
O316 C319 1.259 . S
O317 Mg308 2.114 . S
O317 C320 1.252 . S
O318 Mg308 2.251 . S
O318 Mg311 2.079 . S
O318 C320 1.273 . S
C319 O315 1.246 . S
C319 O316 1.259 . S
C320 O317 1.252 . S
C320 O318 1.273 . S
O321 Mg308 2.010 . S
O321 C313 1.249 . S
Mg322 O323 2.028 . S
Mg322 O329 1.986 . S
Mg322 O331 2.114 . S
Mg322 O332 2.251 . S
Mg322 O335 2.010 . S
O323 Mg322 2.028 . S
O323 C326 1.250 . S
O324 Mg325 2.028 . S
O324 C326 1.248 . S
Mg325 O324 2.028 . S
Mg325 O330 2.032 . S
Mg325 O332 2.079 . S
C326 O323 1.250 . S
C326 O324 1.248 . S
C327 O328 1.264 . S
C327 O335 1.249 . S
O328 C327 1.264 . S
O329 Mg322 1.986 . S
O329 C333 1.246 . S
O330 Mg325 2.032 . S
O330 C333 1.259 . S
O331 Mg322 2.114 . S
O331 C334 1.252 . S
O332 Mg322 2.251 . S
O332 Mg325 2.079 . S
O332 C334 1.273 . S
C333 O329 1.246 . S
C333 O330 1.259 . S
C334 O331 1.252 . S
C334 O332 1.273 . S
O335 Mg322 2.010 . S
O335 C327 1.249 . S
Mg336 O337 2.028 . S
Mg336 O343 1.986 . S
Mg336 O345 2.114 . S
Mg336 O346 2.251 . S
Mg336 O349 2.010 . S
O337 Mg336 2.028 . S
O337 C340 1.250 . S
O338 Mg339 2.028 . S
O338 C340 1.248 . S
Mg339 O338 2.028 . S
Mg339 O344 2.032 . S
Mg339 O346 2.079 . S
C340 O337 1.250 . S
C340 O338 1.248 . S
C341 O342 1.264 . S
C341 O349 1.249 . S
O342 C341 1.264 . S
O343 Mg336 1.986 . S
O343 C347 1.246 . S
O344 Mg339 2.032 . S
O344 C347 1.259 . S
O345 Mg336 2.114 . S
O345 C348 1.252 . S
O346 Mg336 2.251 . S
O346 Mg339 2.079 . S
O346 C348 1.273 . S
C347 O343 1.246 . S
C347 O344 1.259 . S
C348 O345 1.252 . S
C348 O346 1.273 . S
O349 Mg336 2.010 . S
O349 C341 1.249 . S
Mg350 O351 2.028 . S
Mg350 O357 1.986 . S
Mg350 O359 2.114 . S
Mg350 O360 2.251 . S
Mg350 O363 2.010 1_556 S
O351 Mg350 2.028 . S
O351 C354 1.250 . S
O352 Mg353 2.028 . S
O352 C354 1.248 . S
Mg353 O352 2.028 . S
Mg353 O358 2.032 . S
Mg353 O360 2.079 . S
C354 O351 1.250 . S
C354 O352 1.248 . S
C355 O356 1.264 . S
C355 O363 1.249 . S
O356 C355 1.264 . S
O357 Mg350 1.986 . S
O357 C361 1.246 . S
O358 Mg353 2.032 . S
O358 C361 1.259 . S
O359 Mg350 2.114 . S
O359 C362 1.252 . S
O360 Mg350 2.251 . S
O360 Mg353 2.079 . S
O360 C362 1.273 . S
C361 O357 1.246 . S
C361 O358 1.259 . S
C362 O359 1.252 . S
C362 O360 1.273 . S
O363 Mg350 2.010 1_554 S
O363 C355 1.249 . S
Mg364 O365 2.028 . S
Mg364 O371 1.986 . S
Mg364 O373 2.114 . S
Mg364 O374 2.251 . S
Mg364 O377 2.010 . S
O365 Mg364 2.028 . S
O365 C368 1.250 . S
O366 Mg367 2.028 . S
O366 C368 1.248 . S
Mg367 O366 2.028 . S
Mg367 O372 2.032 . S
Mg367 O374 2.079 . S
C368 O365 1.250 . S
C368 O366 1.248 . S
C369 O370 1.264 . S
C369 O377 1.249 . S
O370 C369 1.264 . S
O371 Mg364 1.986 . S
O371 C375 1.246 . S
O372 Mg367 2.032 . S
O372 C375 1.259 . S
O373 Mg364 2.114 . S
O373 C376 1.252 . S
O374 Mg364 2.251 . S
O374 Mg367 2.079 . S
O374 C376 1.273 . S
C375 O371 1.246 . S
C375 O372 1.259 . S
C376 O373 1.252 . S
C376 O374 1.273 . S
O377 Mg364 2.010 . S
O377 C369 1.249 . S
Mg378 O379 2.028 . S
Mg378 O385 1.986 . S
Mg378 O387 2.114 1_655 S
Mg378 O388 2.251 1_655 S
Mg378 O391 2.010 . S
O379 Mg378 2.028 . S
O379 C382 1.250 . S
O380 Mg381 2.028 . S
O380 C382 1.248 . S
Mg381 O380 2.028 . S
Mg381 O386 2.032 . S
Mg381 O388 2.079 1_655 S
C382 O379 1.250 . S
C382 O380 1.248 . S
C383 O384 1.264 . S
C383 O391 1.249 . S
O384 C383 1.264 . S
O385 Mg378 1.986 . S
O385 C389 1.246 . S
O386 Mg381 2.032 . S
O386 C389 1.259 . S
O387 Mg378 2.114 1_455 S
O387 C390 1.252 . S
O388 Mg378 2.251 1_455 S
O388 Mg381 2.079 1_455 S
O388 C390 1.273 . S
C389 O385 1.246 . S
C389 O386 1.259 . S
C390 O387 1.252 . S
C390 O388 1.273 . S
O391 Mg378 2.010 . S
O391 C383 1.249 . S
Mg392 O393 2.028 . S
Mg392 O399 1.986 . S
Mg392 O401 2.114 . S
Mg392 O402 2.251 . S
Mg392 O405 2.010 . S
O393 Mg392 2.028 . S
O393 C396 1.250 . S
O394 Mg395 2.028 . S
O394 C396 1.248 . S
Mg395 O394 2.028 . S
Mg395 O400 2.032 . S
Mg395 O402 2.079 . S
C396 O393 1.250 . S
C396 O394 1.248 . S
C397 O398 1.264 . S
C397 O405 1.249 . S
O398 C397 1.264 . S
O399 Mg392 1.986 . S
O399 C403 1.246 . S
O400 Mg395 2.032 . S
O400 C403 1.259 . S
O401 Mg392 2.114 . S
O401 C404 1.252 . S
O402 Mg392 2.251 . S
O402 Mg395 2.079 . S
O402 C404 1.273 . S
C403 O399 1.246 . S
C403 O400 1.259 . S
C404 O401 1.252 . S
C404 O402 1.273 . S
O405 Mg392 2.010 . S
O405 C397 1.249 . S
Mg406 O407 2.028 . S
Mg406 O413 1.986 . S
Mg406 O415 2.114 1_655 S
Mg406 O416 2.251 1_655 S
Mg406 O419 2.010 1_554 S
O407 Mg406 2.028 . S
O407 C410 1.250 . S
O408 Mg409 2.028 . S
O408 C410 1.248 . S
Mg409 O408 2.028 . S
Mg409 O414 2.032 . S
Mg409 O416 2.079 1_655 S
C410 O407 1.250 . S
C410 O408 1.248 . S
C411 O412 1.264 . S
C411 O419 1.249 . S
O412 C411 1.264 . S
O413 Mg406 1.986 . S
O413 C417 1.246 . S
O414 Mg409 2.032 . S
O414 C417 1.259 . S
O415 Mg406 2.114 1_455 S
O415 C418 1.252 . S
O416 Mg406 2.251 1_455 S
O416 Mg409 2.079 1_455 S
O416 C418 1.273 . S
C417 O413 1.246 . S
C417 O414 1.259 . S
C418 O415 1.252 . S
C418 O416 1.273 . S
O419 Mg406 2.010 1_556 S
O419 C411 1.249 . S
Mg420 O421 2.028 . S
Mg420 O427 1.986 . S
Mg420 O429 2.114 . S
Mg420 O430 2.251 . S
Mg420 O433 2.010 . S
O421 Mg420 2.028 . S
O421 C424 1.250 . S
O422 Mg423 2.028 . S
O422 C424 1.248 . S
Mg423 O422 2.028 . S
Mg423 O428 2.032 . S
Mg423 O430 2.079 . S
C424 O421 1.250 . S
C424 O422 1.248 . S
C425 O426 1.264 . S
C425 O433 1.249 . S
O426 C425 1.264 . S
O427 Mg420 1.986 . S
O427 C431 1.246 . S
O428 Mg423 2.032 . S
O428 C431 1.259 . S
O429 Mg420 2.114 . S
O429 C432 1.252 . S
O430 Mg420 2.251 . S
O430 Mg423 2.079 . S
O430 C432 1.273 . S
C431 O427 1.246 . S
C431 O428 1.259 . S
C432 O429 1.252 . S
C432 O430 1.273 . S
O433 Mg420 2.010 . S
O433 C425 1.249 . S
Mg434 O435 2.028 . S
Mg434 O441 1.986 . S
Mg434 O443 2.114 . S
Mg434 O444 2.251 . S
Mg434 O447 2.010 . S
O435 Mg434 2.028 . S
O435 C438 1.250 . S
O436 Mg437 2.028 . S
O436 C438 1.248 . S
Mg437 O436 2.028 . S
Mg437 O442 2.032 . S
Mg437 O444 2.079 . S
C438 O435 1.250 . S
C438 O436 1.248 . S
C439 O440 1.264 . S
C439 O447 1.249 . S
O440 C439 1.264 . S
O441 Mg434 1.986 . S
O441 C445 1.246 . S
O442 Mg437 2.032 . S
O442 C445 1.259 . S
O443 Mg434 2.114 . S
O443 C446 1.252 . S
O444 Mg434 2.251 . S
O444 Mg437 2.079 . S
O444 C446 1.273 . S
C445 O441 1.246 . S
C445 O442 1.259 . S
C446 O443 1.252 . S
C446 O444 1.273 . S
O447 Mg434 2.010 . S
O447 C439 1.249 . S
H448 C456 0.950 . S
H449 C461 0.950 . S
H450 C458 0.950 . S
H451 C460 0.950 . S
H452 C462 0.950 . S
H453 C464 0.950 . S
H454 C466 0.950 . S
H455 C467 0.950 . S
C456 H448 0.950 . S
C456 C457 1.386 . S
C456 C458 1.391 . S
C457 C456 1.386 . S
C457 C461 1.393 . S
C458 H450 0.950 . S
C458 C456 1.391 . S
C458 C459 1.400 . S
C459 C458 1.400 . S
C459 C460 1.398 . S
C459 C465 1.491 . S
C460 H451 0.950 . S
C460 C459 1.398 . S
C460 C461 1.391 . S
C461 H449 0.950 . S
C461 C457 1.393 . S
C461 C460 1.391 . S
C462 H452 0.950 . S
C462 C463 1.386 . S
C462 C464 1.391 . S
C463 C462 1.386 . S
C463 C467 1.393 . S
C464 H453 0.950 . S
C464 C462 1.391 . S
C464 C465 1.400 . S
C465 C459 1.491 . S
C465 C464 1.400 . S
C465 C466 1.398 . S
C466 H454 0.950 . S
C466 C465 1.398 . S
C466 C467 1.391 . S
C467 H455 0.950 . S
C467 C463 1.393 . S
C467 C466 1.391 . S
H468 C476 0.950 . S
H469 C481 0.950 . S
H470 C478 0.950 . S
H471 C480 0.950 . S
H472 C482 0.950 . S
H473 C484 0.950 . S
H474 C486 0.950 . S
H475 C487 0.950 . S
C476 H468 0.950 . S
C476 C477 1.386 . S
C476 C478 1.391 . S
C477 C476 1.386 . S
C477 C481 1.393 . S
C478 H470 0.950 . S
C478 C476 1.391 . S
C478 C479 1.400 . S
C479 C478 1.400 . S
C479 C480 1.398 . S
C479 C485 1.491 . S
C480 H471 0.950 . S
C480 C479 1.398 . S
C480 C481 1.391 . S
C481 H469 0.950 . S
C481 C477 1.393 . S
C481 C480 1.391 . S
C482 H472 0.950 . S
C482 C483 1.386 . S
C482 C484 1.391 . S
C483 C482 1.386 . S
C483 C487 1.393 . S
C484 H473 0.950 . S
C484 C482 1.391 . S
C484 C485 1.400 . S
C485 C479 1.491 . S
C485 C484 1.400 . S
C485 C486 1.398 . S
C486 H474 0.950 . S
C486 C485 1.398 . S
C486 C487 1.391 . S
C487 H475 0.950 . S
C487 C483 1.393 . S
C487 C486 1.391 . S
H488 C496 0.950 . S
H489 C501 0.950 . S
H490 C498 0.950 . S
H491 C500 0.950 . S
H492 C502 0.950 . S
H493 C504 0.950 . S
H494 C506 0.950 . S
H495 C507 0.950 . S
C496 H488 0.950 . S
C496 C497 1.386 . S
C496 C498 1.391 . S
C497 C496 1.386 . S
C497 C501 1.393 . S
C498 H490 0.950 . S
C498 C496 1.391 . S
C498 C499 1.400 . S
C499 C498 1.400 . S
C499 C500 1.398 . S
C499 C505 1.491 . S
C500 H491 0.950 . S
C500 C499 1.398 . S
C500 C501 1.391 . S
C501 H489 0.950 . S
C501 C497 1.393 . S
C501 C500 1.391 . S
C502 H492 0.950 . S
C502 C503 1.386 . S
C502 C504 1.391 . S
C503 C502 1.386 . S
C503 C507 1.393 . S
C504 H493 0.950 . S
C504 C502 1.391 . S
C504 C505 1.400 . S
C505 C499 1.491 . S
C505 C504 1.400 . S
C505 C506 1.398 . S
C506 H494 0.950 . S
C506 C505 1.398 . S
C506 C507 1.391 . S
C507 H495 0.950 . S
C507 C503 1.393 . S
C507 C506 1.391 . S
H508 C516 0.950 . S
H509 C521 0.950 . S
H510 C518 0.950 . S
H511 C520 0.950 . S
H512 C522 0.950 . S
H513 C524 0.950 . S
H514 C526 0.950 . S
H515 C527 0.950 . S
C516 H508 0.950 . S
C516 C517 1.386 . S
C516 C518 1.391 . S
C517 C516 1.386 . S
C517 C521 1.393 . S
C518 H510 0.950 . S
C518 C516 1.391 . S
C518 C519 1.400 . S
C519 C518 1.400 . S
C519 C520 1.398 . S
C519 C525 1.491 . S
C520 H511 0.950 . S
C520 C519 1.398 . S
C520 C521 1.391 . S
C521 H509 0.950 . S
C521 C517 1.393 . S
C521 C520 1.391 . S
C522 H512 0.950 . S
C522 C523 1.386 . S
C522 C524 1.391 . S
C523 C522 1.386 . S
C523 C527 1.393 . S
C524 H513 0.950 . S
C524 C522 1.391 . S
C524 C525 1.400 . S
C525 C519 1.491 . S
C525 C524 1.400 . S
C525 C526 1.398 . S
C526 H514 0.950 . S
C526 C525 1.398 . S
C526 C527 1.391 . S
C527 H515 0.950 . S
C527 C523 1.393 . S
C527 C526 1.391 . S
H528 C536 0.950 . S
H529 C541 0.950 . S
H530 C538 0.950 . S
H531 C540 0.950 . S
H532 C542 0.950 . S
H533 C544 0.950 . S
H534 C546 0.950 . S
H535 C547 0.950 . S
C536 H528 0.950 . S
C536 C537 1.386 . S
C536 C538 1.391 . S
C537 C536 1.386 . S
C537 C541 1.393 . S
C538 H530 0.950 . S
C538 C536 1.391 . S
C538 C539 1.400 . S
C539 C538 1.400 . S
C539 C540 1.398 . S
C539 C545 1.491 . S
C540 H531 0.950 . S
C540 C539 1.398 . S
C540 C541 1.391 . S
C541 H529 0.950 . S
C541 C537 1.393 . S
C541 C540 1.391 . S
C542 H532 0.950 . S
C542 C543 1.386 . S
C542 C544 1.391 . S
C543 C542 1.386 . S
C543 C547 1.393 . S
C544 H533 0.950 . S
C544 C542 1.391 . S
C544 C545 1.400 . S
C545 C539 1.491 . S
C545 C544 1.400 . S
C545 C546 1.398 . S
C546 H534 0.950 . S
C546 C545 1.398 . S
C546 C547 1.391 . S
C547 H535 0.950 . S
C547 C543 1.393 . S
C547 C546 1.391 . S
H548 C556 0.950 . S
H549 C561 0.950 . S
H550 C558 0.950 . S
H551 C560 0.950 . S
H552 C562 0.950 . S
H553 C564 0.950 . S
H554 C566 0.950 . S
H555 C567 0.950 . S
C556 H548 0.950 . S
C556 C557 1.386 . S
C556 C558 1.391 . S
C557 C556 1.386 . S
C557 C561 1.393 . S
C558 H550 0.950 . S
C558 C556 1.391 . S
C558 C559 1.400 . S
C559 C558 1.400 . S
C559 C560 1.398 . S
C559 C565 1.491 . S
C560 H551 0.950 . S
C560 C559 1.398 . S
C560 C561 1.391 . S
C561 H549 0.950 . S
C561 C557 1.393 . S
C561 C560 1.391 . S
C562 H552 0.950 . S
C562 C563 1.386 . S
C562 C564 1.391 . S
C563 C562 1.386 . S
C563 C567 1.393 . S
C564 H553 0.950 . S
C564 C562 1.391 . S
C564 C565 1.400 . S
C565 C559 1.491 . S
C565 C564 1.400 . S
C565 C566 1.398 . S
C566 H554 0.950 . S
C566 C565 1.398 . S
C566 C567 1.391 . S
C567 H555 0.950 . S
C567 C563 1.393 . S
C567 C566 1.391 . S
H568 C576 0.950 . S
H569 C581 0.950 . S
H570 C578 0.950 . S
H571 C580 0.950 . S
H572 C582 0.950 . S
H573 C584 0.950 . S
H574 C586 0.950 . S
H575 C587 0.950 . S
C576 H568 0.950 . S
C576 C577 1.386 . S
C576 C578 1.391 . S
C577 C576 1.386 . S
C577 C581 1.393 . S
C578 H570 0.950 . S
C578 C576 1.391 . S
C578 C579 1.400 . S
C579 C578 1.400 . S
C579 C580 1.398 . S
C579 C585 1.491 . S
C580 H571 0.950 . S
C580 C579 1.398 . S
C580 C581 1.391 . S
C581 H569 0.950 . S
C581 C577 1.393 . S
C581 C580 1.391 . S
C582 H572 0.950 . S
C582 C583 1.386 . S
C582 C584 1.391 . S
C583 C582 1.386 . S
C583 C587 1.393 . S
C584 H573 0.950 . S
C584 C582 1.391 . S
C584 C585 1.400 . S
C585 C579 1.491 . S
C585 C584 1.400 . S
C585 C586 1.398 . S
C586 H574 0.950 . S
C586 C585 1.398 . S
C586 C587 1.391 . S
C587 H575 0.950 . S
C587 C583 1.393 . S
C587 C586 1.391 . S
H588 C596 0.950 . S
H589 C601 0.950 . S
H590 C598 0.950 . S
H591 C600 0.950 . S
H592 C602 0.950 . S
H593 C604 0.950 . S
H594 C606 0.950 . S
H595 C607 0.950 . S
C596 H588 0.950 . S
C596 C597 1.386 . S
C596 C598 1.391 . S
C597 C596 1.386 . S
C597 C601 1.393 . S
C598 H590 0.950 . S
C598 C596 1.391 . S
C598 C599 1.400 . S
C599 C598 1.400 . S
C599 C600 1.398 . S
C599 C605 1.491 . S
C600 H591 0.950 . S
C600 C599 1.398 . S
C600 C601 1.391 . S
C601 H589 0.950 . S
C601 C597 1.393 . S
C601 C600 1.391 . S
C602 H592 0.950 . S
C602 C603 1.386 . S
C602 C604 1.391 . S
C603 C602 1.386 . S
C603 C607 1.393 . S
C604 H593 0.950 . S
C604 C602 1.391 . S
C604 C605 1.400 . S
C605 C599 1.491 . S
C605 C604 1.400 . S
C605 C606 1.398 . S
C606 H594 0.950 . S
C606 C605 1.398 . S
C606 C607 1.391 . S
C607 H595 0.950 . S
C607 C603 1.393 . S
C607 C606 1.391 . S
H608 C616 0.950 . S
H609 C621 0.950 . S
H610 C618 0.950 . S
H611 C620 0.950 . S
H612 C622 0.950 . S
H613 C624 0.950 . S
H614 C626 0.950 . S
H615 C627 0.950 . S
C616 H608 0.950 . S
C616 C617 1.386 . S
C616 C618 1.391 . S
C617 C616 1.386 . S
C617 C621 1.393 . S
C618 H610 0.950 . S
C618 C616 1.391 . S
C618 C619 1.400 . S
C619 C618 1.400 . S
C619 C620 1.398 . S
C619 C625 1.491 . S
C620 H611 0.950 . S
C620 C619 1.398 . S
C620 C621 1.391 . S
C621 H609 0.950 . S
C621 C617 1.393 . S
C621 C620 1.391 . S
C622 H612 0.950 . S
C622 C623 1.386 . S
C622 C624 1.391 . S
C623 C622 1.386 . S
C623 C627 1.393 . S
C624 H613 0.950 . S
C624 C622 1.391 . S
C624 C625 1.400 . S
C625 C619 1.491 . S
C625 C624 1.400 . S
C625 C626 1.398 . S
C626 H614 0.950 . S
C626 C625 1.398 . S
C626 C627 1.391 . S
C627 H615 0.950 . S
C627 C623 1.393 . S
C627 C626 1.391 . S
H628 C636 0.950 . S
H629 C641 0.950 . S
H630 C638 0.950 . S
H631 C640 0.950 . S
H632 C642 0.950 . S
H633 C644 0.950 . S
H634 C646 0.950 . S
H635 C647 0.950 . S
C636 H628 0.950 . S
C636 C637 1.386 . S
C636 C638 1.391 . S
C637 C636 1.386 . S
C637 C641 1.393 . S
C638 H630 0.950 . S
C638 C636 1.391 . S
C638 C639 1.400 . S
C639 C638 1.400 . S
C639 C640 1.398 . S
C639 C645 1.491 . S
C640 H631 0.950 . S
C640 C639 1.398 . S
C640 C641 1.391 . S
C641 H629 0.950 . S
C641 C637 1.393 . S
C641 C640 1.391 . S
C642 H632 0.950 . S
C642 C643 1.386 . S
C642 C644 1.391 . S
C643 C642 1.386 . S
C643 C647 1.393 . S
C644 H633 0.950 . S
C644 C642 1.391 . S
C644 C645 1.400 . S
C645 C639 1.491 . S
C645 C644 1.400 . S
C645 C646 1.398 . S
C646 H634 0.950 . S
C646 C645 1.398 . S
C646 C647 1.391 . S
C647 H635 0.950 . S
C647 C643 1.393 . S
C647 C646 1.391 . S
H648 C656 0.950 . S
H649 C661 0.950 . S
H650 C658 0.950 . S
H651 C660 0.950 . S
H652 C662 0.950 . S
H653 C664 0.950 . S
H654 C666 0.950 . S
H655 C667 0.950 . S
C656 H648 0.950 . S
C656 C657 1.386 . S
C656 C658 1.391 . S
C657 C656 1.386 . S
C657 C661 1.393 . S
C658 H650 0.950 . S
C658 C656 1.391 . S
C658 C659 1.400 . S
C659 C658 1.400 . S
C659 C660 1.398 . S
C659 C665 1.491 . S
C660 H651 0.950 . S
C660 C659 1.398 . S
C660 C661 1.391 . S
C661 H649 0.950 . S
C661 C657 1.393 . S
C661 C660 1.391 . S
C662 H652 0.950 . S
C662 C663 1.386 . S
C662 C664 1.391 . S
C663 C662 1.386 . S
C663 C667 1.393 . S
C664 H653 0.950 . S
C664 C662 1.391 . S
C664 C665 1.400 . S
C665 C659 1.491 . S
C665 C664 1.400 . S
C665 C666 1.398 . S
C666 H654 0.950 . S
C666 C665 1.398 . S
C666 C667 1.391 . S
C667 H655 0.950 . S
C667 C663 1.393 . S
C667 C666 1.391 . S
H668 C676 0.950 . S
H669 C681 0.950 . S
H670 C678 0.950 . S
H671 C680 0.950 . S
H672 C682 0.950 . S
H673 C684 0.950 . S
H674 C686 0.950 . S
H675 C687 0.950 . S
C676 H668 0.950 . S
C676 C677 1.386 . S
C676 C678 1.391 . S
C677 C676 1.386 . S
C677 C681 1.393 . S
C678 H670 0.950 . S
C678 C676 1.391 . S
C678 C679 1.400 . S
C679 C678 1.400 . S
C679 C680 1.398 . S
C679 C685 1.491 . S
C680 H671 0.950 . S
C680 C679 1.398 . S
C680 C681 1.391 . S
C681 H669 0.950 . S
C681 C677 1.393 . S
C681 C680 1.391 . S
C682 H672 0.950 . S
C682 C683 1.386 . S
C682 C684 1.391 . S
C683 C682 1.386 . S
C683 C687 1.393 . S
C684 H673 0.950 . S
C684 C682 1.391 . S
C684 C685 1.400 . S
C685 C679 1.491 . S
C685 C684 1.400 . S
C685 C686 1.398 . S
C686 H674 0.950 . S
C686 C685 1.398 . S
C686 C687 1.391 . S
C687 H675 0.950 . S
C687 C683 1.393 . S
C687 C686 1.391 . S
H688 C696 0.950 . S
H689 C701 0.950 . S
H690 C698 0.950 . S
H691 C700 0.950 . S
H692 C702 0.950 . S
H693 C704 0.950 . S
H694 C706 0.950 . S
H695 C707 0.950 . S
C696 H688 0.950 . S
C696 C697 1.386 . S
C696 C698 1.391 . S
C697 C696 1.386 . S
C697 C701 1.393 . S
C698 H690 0.950 . S
C698 C696 1.391 . S
C698 C699 1.400 . S
C699 C698 1.400 . S
C699 C700 1.398 . S
C699 C705 1.491 . S
C700 H691 0.950 . S
C700 C699 1.398 . S
C700 C701 1.391 . S
C701 H689 0.950 . S
C701 C697 1.393 . S
C701 C700 1.391 . S
C702 H692 0.950 . S
C702 C703 1.386 . S
C702 C704 1.391 . S
C703 C702 1.386 . S
C703 C707 1.393 . S
C704 H693 0.950 . S
C704 C702 1.391 . S
C704 C705 1.400 . S
C705 C699 1.491 . S
C705 C704 1.400 . S
C705 C706 1.398 . S
C706 H694 0.950 . S
C706 C705 1.398 . S
C706 C707 1.391 . S
C707 H695 0.950 . S
C707 C703 1.393 . S
C707 C706 1.391 . S
H708 C716 0.950 . S
H709 C721 0.950 . S
H710 C718 0.950 . S
H711 C720 0.950 . S
H712 C722 0.950 . S
H713 C724 0.950 . S
H714 C726 0.950 . S
H715 C727 0.950 . S
C716 H708 0.950 . S
C716 C717 1.386 . S
C716 C718 1.391 . S
C717 C716 1.386 . S
C717 C721 1.393 . S
C718 H710 0.950 . S
C718 C716 1.391 . S
C718 C719 1.400 . S
C719 C718 1.400 . S
C719 C720 1.398 . S
C719 C725 1.491 . S
C720 H711 0.950 . S
C720 C719 1.398 . S
C720 C721 1.391 . S
C721 H709 0.950 . S
C721 C717 1.393 . S
C721 C720 1.391 . S
C722 H712 0.950 . S
C722 C723 1.386 . S
C722 C724 1.391 . S
C723 C722 1.386 . S
C723 C727 1.393 . S
C724 H713 0.950 . S
C724 C722 1.391 . S
C724 C725 1.400 . S
C725 C719 1.491 . S
C725 C724 1.400 . S
C725 C726 1.398 . S
C726 H714 0.950 . S
C726 C725 1.398 . S
C726 C727 1.391 . S
C727 H715 0.950 . S
C727 C723 1.393 . S
C727 C726 1.391 . S
H728 C736 0.950 . S
H729 C741 0.950 . S
H730 C738 0.950 . S
H731 C740 0.950 . S
H732 C742 0.950 . S
H733 C744 0.950 . S
H734 C746 0.950 . S
H735 C747 0.950 . S
C736 H728 0.950 . S
C736 C737 1.386 . S
C736 C738 1.391 . S
C737 C736 1.386 . S
C737 C741 1.393 . S
C738 H730 0.950 . S
C738 C736 1.391 . S
C738 C739 1.400 . S
C739 C738 1.400 . S
C739 C740 1.398 . S
C739 C745 1.491 . S
C740 H731 0.950 . S
C740 C739 1.398 . S
C740 C741 1.391 . S
C741 H729 0.950 . S
C741 C737 1.393 . S
C741 C740 1.391 . S
C742 H732 0.950 . S
C742 C743 1.386 . S
C742 C744 1.391 . S
C743 C742 1.386 . S
C743 C747 1.393 . S
C744 H733 0.950 . S
C744 C742 1.391 . S
C744 C745 1.400 . S
C745 C739 1.491 . S
C745 C744 1.400 . S
C745 C746 1.398 . S
C746 H734 0.950 . S
C746 C745 1.398 . S
C746 C747 1.391 . S
C747 H735 0.950 . S
C747 C743 1.393 . S
C747 C746 1.391 . S
H748 C756 0.950 . S
H749 C761 0.950 . S
H750 C758 0.950 . S
H751 C760 0.950 . S
H752 C762 0.950 . S
H753 C764 0.950 . S
H754 C766 0.950 . S
H755 C767 0.950 . S
C756 H748 0.950 . S
C756 C757 1.386 . S
C756 C758 1.391 . S
C757 C756 1.386 . S
C757 C761 1.393 . S
C758 H750 0.950 . S
C758 C756 1.391 . S
C758 C759 1.400 . S
C759 C758 1.400 . S
C759 C760 1.398 . S
C759 C765 1.491 . S
C760 H751 0.950 . S
C760 C759 1.398 . S
C760 C761 1.391 . S
C761 H749 0.950 . S
C761 C757 1.393 . S
C761 C760 1.391 . S
C762 H752 0.950 . S
C762 C763 1.386 . S
C762 C764 1.391 . S
C763 C762 1.386 . S
C763 C767 1.393 . S
C764 H753 0.950 . S
C764 C762 1.391 . S
C764 C765 1.400 . S
C765 C759 1.491 . S
C765 C764 1.400 . S
C765 C766 1.398 . S
C766 H754 0.950 . S
C766 C765 1.398 . S
C766 C767 1.391 . S
C767 H755 0.950 . S
C767 C763 1.393 . S
C767 C766 1.391 . S
H768 C776 0.950 . S
H769 C781 0.950 . S
H770 C778 0.950 . S
H771 C780 0.950 . S
H772 C782 0.950 . S
H773 C784 0.950 . S
H774 C786 0.950 . S
H775 C787 0.950 . S
C776 H768 0.950 . S
C776 C777 1.386 . S
C776 C778 1.391 . S
C777 C776 1.386 . S
C777 C781 1.393 . S
C778 H770 0.950 . S
C778 C776 1.391 . S
C778 C779 1.400 . S
C779 C778 1.400 . S
C779 C780 1.398 . S
C779 C785 1.491 . S
C780 H771 0.950 . S
C780 C779 1.398 . S
C780 C781 1.391 . S
C781 H769 0.950 . S
C781 C777 1.393 . S
C781 C780 1.391 . S
C782 H772 0.950 . S
C782 C783 1.386 . S
C782 C784 1.391 . S
C783 C782 1.386 . S
C783 C787 1.393 . S
C784 H773 0.950 . S
C784 C782 1.391 . S
C784 C785 1.400 . S
C785 C779 1.491 . S
C785 C784 1.400 . S
C785 C786 1.398 . S
C786 H774 0.950 . S
C786 C785 1.398 . S
C786 C787 1.391 . S
C787 H775 0.950 . S
C787 C783 1.393 . S
C787 C786 1.391 . S
H788 C796 0.950 . S
H789 C801 0.950 . S
H790 C798 0.950 . S
H791 C800 0.950 . S
H792 C802 0.950 . S
H793 C804 0.950 . S
H794 C806 0.950 . S
H795 C807 0.950 . S
C796 H788 0.950 . S
C796 C797 1.386 . S
C796 C798 1.391 . S
C797 C796 1.386 . S
C797 C801 1.393 . S
C798 H790 0.950 . S
C798 C796 1.391 . S
C798 C799 1.400 . S
C799 C798 1.400 . S
C799 C800 1.398 . S
C799 C805 1.491 . S
C800 H791 0.950 . S
C800 C799 1.398 . S
C800 C801 1.391 . S
C801 H789 0.950 . S
C801 C797 1.393 . S
C801 C800 1.391 . S
C802 H792 0.950 . S
C802 C803 1.386 . S
C802 C804 1.391 . S
C803 C802 1.386 . S
C803 C807 1.393 . S
C804 H793 0.950 . S
C804 C802 1.391 . S
C804 C805 1.400 . S
C805 C799 1.491 . S
C805 C804 1.400 . S
C805 C806 1.398 . S
C806 H794 0.950 . S
C806 C805 1.398 . S
C806 C807 1.391 . S
C807 H795 0.950 . S
C807 C803 1.393 . S
C807 C806 1.391 . S
H808 C816 0.950 . S
H809 C821 0.950 . S
H810 C818 0.950 . S
H811 C820 0.950 . S
H812 C822 0.950 . S
H813 C824 0.950 . S
H814 C826 0.950 . S
H815 C827 0.950 . S
C816 H808 0.950 . S
C816 C817 1.386 . S
C816 C818 1.391 . S
C817 C816 1.386 . S
C817 C821 1.393 . S
C818 H810 0.950 . S
C818 C816 1.391 . S
C818 C819 1.400 . S
C819 C818 1.400 . S
C819 C820 1.398 . S
C819 C825 1.491 . S
C820 H811 0.950 . S
C820 C819 1.398 . S
C820 C821 1.391 . S
C821 H809 0.950 . S
C821 C817 1.393 . S
C821 C820 1.391 . S
C822 H812 0.950 . S
C822 C823 1.386 . S
C822 C824 1.391 . S
C823 C822 1.386 . S
C823 C827 1.393 . S
C824 H813 0.950 . S
C824 C822 1.391 . S
C824 C825 1.400 . S
C825 C819 1.491 . S
C825 C824 1.400 . S
C825 C826 1.398 . S
C826 H814 0.950 . S
C826 C825 1.398 . S
C826 C827 1.391 . S
C827 H815 0.950 . S
C827 C823 1.393 . S
C827 C826 1.391 . S
H828 C836 0.950 . S
H829 C841 0.950 . S
H830 C838 0.950 . S
H831 C840 0.950 . S
H832 C842 0.950 . S
H833 C844 0.950 . S
H834 C846 0.950 . S
H835 C847 0.950 . S
C836 H828 0.950 . S
C836 C837 1.386 . S
C836 C838 1.391 . S
C837 C836 1.386 . S
C837 C841 1.393 . S
C838 H830 0.950 . S
C838 C836 1.391 . S
C838 C839 1.400 . S
C839 C838 1.400 . S
C839 C840 1.398 . S
C839 C845 1.491 . S
C840 H831 0.950 . S
C840 C839 1.398 . S
C840 C841 1.391 . S
C841 H829 0.950 . S
C841 C837 1.393 . S
C841 C840 1.391 . S
C842 H832 0.950 . S
C842 C843 1.386 . S
C842 C844 1.391 . S
C843 C842 1.386 . S
C843 C847 1.393 . S
C844 H833 0.950 . S
C844 C842 1.391 . S
C844 C845 1.400 . S
C845 C839 1.491 . S
C845 C844 1.400 . S
C845 C846 1.398 . S
C846 H834 0.950 . S
C846 C845 1.398 . S
C846 C847 1.391 . S
C847 H835 0.950 . S
C847 C843 1.393 . S
C847 C846 1.391 . S
H848 C856 0.950 . S
H849 C861 0.950 . S
H850 C858 0.950 . S
H851 C860 0.950 . S
H852 C862 0.950 . S
H853 C864 0.950 . S
H854 C866 0.950 . S
H855 C867 0.950 . S
C856 H848 0.950 . S
C856 C857 1.386 . S
C856 C858 1.391 . S
C857 C856 1.386 . S
C857 C861 1.393 . S
C858 H850 0.950 . S
C858 C856 1.391 . S
C858 C859 1.400 . S
C859 C858 1.400 . S
C859 C860 1.398 . S
C859 C865 1.491 . S
C860 H851 0.950 . S
C860 C859 1.398 . S
C860 C861 1.391 . S
C861 H849 0.950 . S
C861 C857 1.393 . S
C861 C860 1.391 . S
C862 H852 0.950 . S
C862 C863 1.386 . S
C862 C864 1.391 . S
C863 C862 1.386 . S
C863 C867 1.393 . S
C864 H853 0.950 . S
C864 C862 1.391 . S
C864 C865 1.400 . S
C865 C859 1.491 . S
C865 C864 1.400 . S
C865 C866 1.398 . S
C866 H854 0.950 . S
C866 C865 1.398 . S
C866 C867 1.391 . S
C867 H855 0.950 . S
C867 C863 1.393 . S
C867 C866 1.391 . S
H868 C876 0.950 . S
H869 C881 0.950 . S
H870 C878 0.950 . S
H871 C880 0.950 . S
H872 C882 0.950 . S
H873 C884 0.950 . S
H874 C886 0.950 . S
H875 C887 0.950 . S
C876 H868 0.950 . S
C876 C877 1.386 . S
C876 C878 1.391 . S
C877 C876 1.386 . S
C877 C881 1.393 . S
C878 H870 0.950 . S
C878 C876 1.391 . S
C878 C879 1.400 . S
C879 C878 1.400 . S
C879 C880 1.398 . S
C879 C885 1.491 . S
C880 H871 0.950 . S
C880 C879 1.398 . S
C880 C881 1.391 . S
C881 H869 0.950 . S
C881 C877 1.393 . S
C881 C880 1.391 . S
C882 H872 0.950 . S
C882 C883 1.386 . S
C882 C884 1.391 . S
C883 C882 1.386 . S
C883 C887 1.393 . S
C884 H873 0.950 . S
C884 C882 1.391 . S
C884 C885 1.400 . S
C885 C879 1.491 . S
C885 C884 1.400 . S
C885 C886 1.398 . S
C886 H874 0.950 . S
C886 C885 1.398 . S
C886 C887 1.391 . S
C887 H875 0.950 . S
C887 C883 1.393 . S
C887 C886 1.391 . S
H888 C896 0.950 . S
H889 C901 0.950 . S
H890 C898 0.950 . S
H891 C900 0.950 . S
H892 C902 0.950 . S
H893 C904 0.950 . S
H894 C906 0.950 . S
H895 C907 0.950 . S
C896 H888 0.950 . S
C896 C897 1.386 . S
C896 C898 1.391 . S
C897 C896 1.386 . S
C897 C901 1.393 . S
C898 H890 0.950 . S
C898 C896 1.391 . S
C898 C899 1.400 . S
C899 C898 1.400 . S
C899 C900 1.398 . S
C899 C905 1.491 . S
C900 H891 0.950 . S
C900 C899 1.398 . S
C900 C901 1.391 . S
C901 H889 0.950 . S
C901 C897 1.393 . S
C901 C900 1.391 . S
C902 H892 0.950 . S
C902 C903 1.386 . S
C902 C904 1.391 . S
C903 C902 1.386 . S
C903 C907 1.393 . S
C904 H893 0.950 . S
C904 C902 1.391 . S
C904 C905 1.400 . S
C905 C899 1.491 . S
C905 C904 1.400 . S
C905 C906 1.398 . S
C906 H894 0.950 . S
C906 C905 1.398 . S
C906 C907 1.391 . S
C907 H895 0.950 . S
C907 C903 1.393 . S
C907 C906 1.391 . S
H908 C916 0.950 . S
H909 C921 0.950 . S
H910 C918 0.950 . S
H911 C920 0.950 . S
H912 C922 0.950 . S
H913 C924 0.950 . S
H914 C926 0.950 . S
H915 C927 0.950 . S
C916 H908 0.950 . S
C916 C917 1.386 . S
C916 C918 1.391 . S
C917 C916 1.386 . S
C917 C921 1.393 . S
C918 H910 0.950 . S
C918 C916 1.391 . S
C918 C919 1.400 . S
C919 C918 1.400 . S
C919 C920 1.398 . S
C919 C925 1.491 . S
C920 H911 0.950 . S
C920 C919 1.398 . S
C920 C921 1.391 . S
C921 H909 0.950 . S
C921 C917 1.393 . S
C921 C920 1.391 . S
C922 H912 0.950 . S
C922 C923 1.386 . S
C922 C924 1.391 . S
C923 C922 1.386 . S
C923 C927 1.393 . S
C924 H913 0.950 . S
C924 C922 1.391 . S
C924 C925 1.400 . S
C925 C919 1.491 . S
C925 C924 1.400 . S
C925 C926 1.398 . S
C926 H914 0.950 . S
C926 C925 1.398 . S
C926 C927 1.391 . S
C927 H915 0.950 . S
C927 C923 1.393 . S
C927 C926 1.391 . S
H928 C936 0.950 . S
H929 C941 0.950 . S
H930 C938 0.950 . S
H931 C940 0.950 . S
H932 C942 0.950 . S
H933 C944 0.950 . S
H934 C946 0.950 . S
H935 C947 0.950 . S
C936 H928 0.950 . S
C936 C937 1.386 . S
C936 C938 1.391 . S
C937 C936 1.386 . S
C937 C941 1.393 . S
C938 H930 0.950 . S
C938 C936 1.391 . S
C938 C939 1.400 . S
C939 C938 1.400 . S
C939 C940 1.398 . S
C939 C945 1.491 . S
C940 H931 0.950 . S
C940 C939 1.398 . S
C940 C941 1.391 . S
C941 H929 0.950 . S
C941 C937 1.393 . S
C941 C940 1.391 . S
C942 H932 0.950 . S
C942 C943 1.386 . S
C942 C944 1.391 . S
C943 C942 1.386 . S
C943 C947 1.393 . S
C944 H933 0.950 . S
C944 C942 1.391 . S
C944 C945 1.400 . S
C945 C939 1.491 . S
C945 C944 1.400 . S
C945 C946 1.398 . S
C946 H934 0.950 . S
C946 C945 1.398 . S
C946 C947 1.391 . S
C947 H935 0.950 . S
C947 C943 1.393 . S
C947 C946 1.391 . S
H948 C956 0.950 . S
H949 C961 0.950 . S
H950 C958 0.950 . S
H951 C960 0.950 . S
H952 C962 0.950 . S
H953 C964 0.950 . S
H954 C966 0.950 . S
H955 C967 0.950 . S
C956 H948 0.950 . S
C956 C957 1.386 . S
C956 C958 1.391 . S
C957 C956 1.386 . S
C957 C961 1.393 . S
C958 H950 0.950 . S
C958 C956 1.391 . S
C958 C959 1.400 . S
C959 C958 1.400 . S
C959 C960 1.398 . S
C959 C965 1.491 . S
C960 H951 0.950 . S
C960 C959 1.398 . S
C960 C961 1.391 . S
C961 H949 0.950 . S
C961 C957 1.393 . S
C961 C960 1.391 . S
C962 H952 0.950 . S
C962 C963 1.386 . S
C962 C964 1.391 . S
C963 C962 1.386 . S
C963 C967 1.393 . S
C964 H953 0.950 . S
C964 C962 1.391 . S
C964 C965 1.400 . S
C965 C959 1.491 . S
C965 C964 1.400 . S
C965 C966 1.398 . S
C966 H954 0.950 . S
C966 C965 1.398 . S
C966 C967 1.391 . S
C967 H955 0.950 . S
C967 C963 1.393 . S
C967 C966 1.391 . S
H968 C976 0.950 . S
H969 C981 0.950 . S
H970 C978 0.950 . S
H971 C980 0.950 . S
H972 C982 0.950 . S
H973 C984 0.950 . S
H974 C986 0.950 . S
H975 C987 0.950 . S
C976 H968 0.950 . S
C976 C977 1.386 . S
C976 C978 1.391 . S
C977 C976 1.386 . S
C977 C981 1.393 . S
C978 H970 0.950 . S
C978 C976 1.391 . S
C978 C979 1.400 . S
C979 C978 1.400 . S
C979 C980 1.398 . S
C979 C985 1.491 . S
C980 H971 0.950 . S
C980 C979 1.398 . S
C980 C981 1.391 . S
C981 H969 0.950 . S
C981 C977 1.393 . S
C981 C980 1.391 . S
C982 H972 0.950 . S
C982 C983 1.386 . S
C982 C984 1.391 . S
C983 C982 1.386 . S
C983 C987 1.393 . S
C984 H973 0.950 . S
C984 C982 1.391 . S
C984 C985 1.400 . S
C985 C979 1.491 . S
C985 C984 1.400 . S
C985 C986 1.398 . S
C986 H974 0.950 . S
C986 C985 1.398 . S
C986 C987 1.391 . S
C987 H975 0.950 . S
C987 C983 1.393 . S
C987 C986 1.391 . S
H988 C996 0.950 . S
H989 C1001 0.950 . S
H990 C998 0.950 . S
H991 C1000 0.950 . S
H992 C1002 0.950 . S
H993 C1004 0.950 . S
H994 C1006 0.950 . S
H995 C1007 0.950 . S
C996 H988 0.950 . S
C996 C997 1.386 . S
C996 C998 1.391 . S
C997 C996 1.386 . S
C997 C1001 1.393 . S
C998 H990 0.950 . S
C998 C996 1.391 . S
C998 C999 1.400 . S
C999 C998 1.400 . S
C999 C1000 1.398 . S
C999 C1005 1.491 . S
C1000 H991 0.950 . S
C1000 C999 1.398 . S
C1000 C1001 1.391 . S
C1001 H989 0.950 . S
C1001 C997 1.393 . S
C1001 C1000 1.391 . S
C1002 H992 0.950 . S
C1002 C1003 1.386 . S
C1002 C1004 1.391 . S
C1003 C1002 1.386 . S
C1003 C1007 1.393 . S
C1004 H993 0.950 . S
C1004 C1002 1.391 . S
C1004 C1005 1.400 . S
C1005 C999 1.491 . S
C1005 C1004 1.400 . S
C1005 C1006 1.398 . S
C1006 H994 0.950 . S
C1006 C1005 1.398 . S
C1006 C1007 1.391 . S
C1007 H995 0.950 . S
C1007 C1003 1.393 . S
C1007 C1006 1.391 . S
H1008 C1016 0.950 . S
H1009 C1021 0.950 . S
H1010 C1018 0.950 . S
H1011 C1020 0.950 . S
H1012 C1022 0.950 . S
H1013 C1024 0.950 . S
H1014 C1026 0.950 . S
H1015 C1027 0.950 . S
C1016 H1008 0.950 . S
C1016 C1017 1.386 . S
C1016 C1018 1.391 . S
C1017 C1016 1.386 . S
C1017 C1021 1.393 . S
C1018 H1010 0.950 . S
C1018 C1016 1.391 . S
C1018 C1019 1.400 . S
C1019 C1018 1.400 . S
C1019 C1020 1.398 . S
C1019 C1025 1.491 . S
C1020 H1011 0.950 . S
C1020 C1019 1.398 . S
C1020 C1021 1.391 . S
C1021 H1009 0.950 . S
C1021 C1017 1.393 . S
C1021 C1020 1.391 . S
C1022 H1012 0.950 . S
C1022 C1023 1.386 . S
C1022 C1024 1.391 . S
C1023 C1022 1.386 . S
C1023 C1027 1.393 . S
C1024 H1013 0.950 . S
C1024 C1022 1.391 . S
C1024 C1025 1.400 . S
C1025 C1019 1.491 . S
C1025 C1024 1.400 . S
C1025 C1026 1.398 . S
C1026 H1014 0.950 . S
C1026 C1025 1.398 . S
C1026 C1027 1.391 . S
C1027 H1015 0.950 . S
C1027 C1023 1.393 . S
C1027 C1026 1.391 . S
H1028 C1036 0.950 . S
H1029 C1041 0.950 . S
H1030 C1038 0.950 . S
H1031 C1040 0.950 . S
H1032 C1042 0.950 . S
H1033 C1044 0.950 . S
H1034 C1046 0.950 . S
H1035 C1047 0.950 . S
C1036 H1028 0.950 . S
C1036 C1037 1.386 . S
C1036 C1038 1.391 . S
C1037 C1036 1.386 . S
C1037 C1041 1.393 . S
C1038 H1030 0.950 . S
C1038 C1036 1.391 . S
C1038 C1039 1.400 . S
C1039 C1038 1.400 . S
C1039 C1040 1.398 . S
C1039 C1045 1.491 . S
C1040 H1031 0.950 . S
C1040 C1039 1.398 . S
C1040 C1041 1.391 . S
C1041 H1029 0.950 . S
C1041 C1037 1.393 . S
C1041 C1040 1.391 . S
C1042 H1032 0.950 . S
C1042 C1043 1.386 . S
C1042 C1044 1.391 . S
C1043 C1042 1.386 . S
C1043 C1047 1.393 . S
C1044 H1033 0.950 . S
C1044 C1042 1.391 . S
C1044 C1045 1.400 . S
C1045 C1039 1.491 . S
C1045 C1044 1.400 . S
C1045 C1046 1.398 . S
C1046 H1034 0.950 . S
C1046 C1045 1.398 . S
C1046 C1047 1.391 . S
C1047 H1035 0.950 . S
C1047 C1043 1.393 . S
C1047 C1046 1.391 . S
H1048 C1056 0.950 . S
H1049 C1061 0.950 . S
H1050 C1058 0.950 . S
H1051 C1060 0.950 . S
H1052 C1062 0.950 . S
H1053 C1064 0.950 . S
H1054 C1066 0.950 . S
H1055 C1067 0.950 . S
C1056 H1048 0.950 . S
C1056 C1057 1.386 . S
C1056 C1058 1.391 . S
C1057 C1056 1.386 . S
C1057 C1061 1.393 . S
C1058 H1050 0.950 . S
C1058 C1056 1.391 . S
C1058 C1059 1.400 . S
C1059 C1058 1.400 . S
C1059 C1060 1.398 . S
C1059 C1065 1.491 . S
C1060 H1051 0.950 . S
C1060 C1059 1.398 . S
C1060 C1061 1.391 . S
C1061 H1049 0.950 . S
C1061 C1057 1.393 . S
C1061 C1060 1.391 . S
C1062 H1052 0.950 . S
C1062 C1063 1.386 . S
C1062 C1064 1.391 . S
C1063 C1062 1.386 . S
C1063 C1067 1.393 . S
C1064 H1053 0.950 . S
C1064 C1062 1.391 . S
C1064 C1065 1.400 . S
C1065 C1059 1.491 . S
C1065 C1064 1.400 . S
C1065 C1066 1.398 . S
C1066 H1054 0.950 . S
C1066 C1065 1.398 . S
C1066 C1067 1.391 . S
C1067 H1055 0.950 . S
C1067 C1063 1.393 . S
C1067 C1066 1.391 . S
H1068 C1076 0.950 . S
H1069 C1081 0.950 . S
H1070 C1078 0.950 . S
H1071 C1080 0.950 . S
H1072 C1082 0.950 . S
H1073 C1084 0.950 . S
H1074 C1086 0.950 . S
H1075 C1087 0.950 . S
C1076 H1068 0.950 . S
C1076 C1077 1.386 . S
C1076 C1078 1.391 . S
C1077 C1076 1.386 . S
C1077 C1081 1.393 . S
C1078 H1070 0.950 . S
C1078 C1076 1.391 . S
C1078 C1079 1.400 . S
C1079 C1078 1.400 . S
C1079 C1080 1.398 . S
C1079 C1085 1.491 . S
C1080 H1071 0.950 . S
C1080 C1079 1.398 . S
C1080 C1081 1.391 . S
C1081 H1069 0.950 . S
C1081 C1077 1.393 . S
C1081 C1080 1.391 . S
C1082 H1072 0.950 . S
C1082 C1083 1.386 . S
C1082 C1084 1.391 . S
C1083 C1082 1.386 . S
C1083 C1087 1.393 . S
C1084 H1073 0.950 . S
C1084 C1082 1.391 . S
C1084 C1085 1.400 . S
C1085 C1079 1.491 . S
C1085 C1084 1.400 . S
C1085 C1086 1.398 . S
C1086 H1074 0.950 . S
C1086 C1085 1.398 . S
C1086 C1087 1.391 . S
C1087 H1075 0.950 . S
C1087 C1083 1.393 . S
C1087 C1086 1.391 . S
H1088 C1096 0.950 . S
H1089 C1101 0.950 . S
H1090 C1098 0.950 . S
H1091 C1100 0.950 . S
H1092 C1102 0.950 . S
H1093 C1104 0.950 . S
H1094 C1106 0.950 . S
H1095 C1107 0.950 . S
C1096 H1088 0.950 . S
C1096 C1097 1.386 . S
C1096 C1098 1.391 . S
C1097 C1096 1.386 . S
C1097 C1101 1.393 . S
C1098 H1090 0.950 . S
C1098 C1096 1.391 . S
C1098 C1099 1.400 . S
C1099 C1098 1.400 . S
C1099 C1100 1.398 . S
C1099 C1105 1.491 . S
C1100 H1091 0.950 . S
C1100 C1099 1.398 . S
C1100 C1101 1.391 . S
C1101 H1089 0.950 . S
C1101 C1097 1.393 . S
C1101 C1100 1.391 . S
C1102 H1092 0.950 . S
C1102 C1103 1.386 . S
C1102 C1104 1.391 . S
C1103 C1102 1.386 . S
C1103 C1107 1.393 . S
C1104 H1093 0.950 . S
C1104 C1102 1.391 . S
C1104 C1105 1.400 . S
C1105 C1099 1.491 . S
C1105 C1104 1.400 . S
C1105 C1106 1.398 . S
C1106 H1094 0.950 . S
C1106 C1105 1.398 . S
C1106 C1107 1.391 . S
C1107 H1095 0.950 . S
C1107 C1103 1.393 . S
C1107 C1106 1.391 . S
H1108 C1116 0.950 . S
H1109 C1121 0.950 1_655 S
H1110 C1118 0.950 . S
H1111 C1120 0.950 . S
H1112 C1122 0.950 . S
H1113 C1124 0.950 . S
H1114 C1126 0.950 . S
H1115 C1127 0.950 . S
C1116 H1108 0.950 . S
C1116 C1117 1.384 1_455 S
C1116 C1118 1.391 . S
C1117 C1116 1.384 1_655 S
C1117 C1121 1.393 1_655 S
C1118 H1110 0.950 . S
C1118 C1116 1.391 . S
C1118 C1119 1.400 . S
C1119 C1118 1.400 . S
C1119 C1120 1.398 . S
C1119 C1125 1.491 1_565 S
C1120 H1111 0.950 . S
C1120 C1119 1.398 . S
C1120 C1121 1.390 . S
C1121 H1109 0.950 1_455 S
C1121 C1117 1.393 1_455 S
C1121 C1120 1.390 . S
C1122 H1112 0.950 . S
C1122 C1123 1.386 . S
C1122 C1124 1.391 . S
C1123 C1122 1.386 . S
C1123 C1127 1.393 . S
C1124 H1113 0.950 . S
C1124 C1122 1.391 . S
C1124 C1125 1.400 . S
C1125 C1119 1.491 1_545 S
C1125 C1124 1.400 . S
C1125 C1126 1.398 . S
C1126 H1114 0.950 . S
C1126 C1125 1.398 . S
C1126 C1127 1.391 . S
C1127 H1115 0.950 . S
C1127 C1123 1.393 . S
C1127 C1126 1.391 . S
H1128 C1136 0.950 . S
H1129 C1141 0.950 . S
H1130 C1138 0.950 . S
H1131 C1140 0.950 . S
H1132 C1142 0.950 . S
H1133 C1144 0.950 . S
H1134 C1146 0.950 . S
H1135 C1147 0.950 . S
C1136 H1128 0.950 . S
C1136 C1137 1.386 . S
C1136 C1138 1.391 . S
C1137 C1136 1.386 . S
C1137 C1141 1.393 . S
C1138 H1130 0.950 . S
C1138 C1136 1.391 . S
C1138 C1139 1.400 . S
C1139 C1138 1.400 . S
C1139 C1140 1.398 . S
C1139 C1145 1.491 . S
C1140 H1131 0.950 . S
C1140 C1139 1.398 . S
C1140 C1141 1.391 . S
C1141 H1129 0.950 . S
C1141 C1137 1.393 . S
C1141 C1140 1.391 . S
C1142 H1132 0.950 . S
C1142 C1143 1.386 . S
C1142 C1144 1.391 . S
C1143 C1142 1.386 . S
C1143 C1147 1.393 . S
C1144 H1133 0.950 . S
C1144 C1142 1.391 . S
C1144 C1145 1.400 . S
C1145 C1139 1.491 . S
C1145 C1144 1.400 . S
C1145 C1146 1.398 . S
C1146 H1134 0.950 . S
C1146 C1145 1.398 . S
C1146 C1147 1.391 . S
C1147 H1135 0.950 . S
C1147 C1143 1.393 . S
C1147 C1146 1.391 . S
H1148 C1156 0.950 . S
H1149 C1161 0.950 . S
H1150 C1158 0.950 . S
H1151 C1160 0.950 . S
H1152 C1162 0.950 . S
H1153 C1164 0.950 . S
H1154 C1166 0.950 . S
H1155 C1167 0.950 . S
C1156 H1148 0.950 . S
C1156 C1157 1.386 . S
C1156 C1158 1.391 . S
C1157 C1156 1.386 . S
C1157 C1161 1.393 1_554 S
C1158 H1150 0.950 . S
C1158 C1156 1.391 . S
C1158 C1159 1.400 . S
C1159 C1158 1.400 . S
C1159 C1160 1.398 1_554 S
C1159 C1165 1.491 1_544 S
C1160 H1151 0.950 . S
C1160 C1159 1.398 1_556 S
C1160 C1161 1.391 . S
C1161 H1149 0.950 . S
C1161 C1157 1.393 1_556 S
C1161 C1160 1.391 . S
C1162 H1152 0.950 . S
C1162 C1163 1.386 . S
C1162 C1164 1.391 . S
C1163 C1162 1.386 . S
C1163 C1167 1.393 1_556 S
C1164 H1153 0.950 . S
C1164 C1162 1.391 . S
C1164 C1165 1.400 . S
C1165 C1159 1.491 1_566 S
C1165 C1164 1.400 . S
C1165 C1166 1.398 1_556 S
C1166 H1154 0.950 . S
C1166 C1165 1.398 1_554 S
C1166 C1167 1.391 . S
C1167 H1155 0.950 . S
C1167 C1163 1.393 1_554 S
C1167 C1166 1.391 . S
H1168 C1176 0.950 . S
H1169 C1181 0.950 . S
H1170 C1178 0.950 . S
H1171 C1180 0.950 . S
H1172 C1182 0.950 . S
H1173 C1184 0.950 . S
H1174 C1186 0.950 . S
H1175 C1187 0.950 . S
C1176 H1168 0.950 . S
C1176 C1177 1.386 . S
C1176 C1178 1.391 . S
C1177 C1176 1.386 . S
C1177 C1181 1.393 . S
C1178 H1170 0.950 . S
C1178 C1176 1.391 . S
C1178 C1179 1.400 . S
C1179 C1178 1.400 . S
C1179 C1180 1.398 . S
C1179 C1185 1.491 . S
C1180 H1171 0.950 . S
C1180 C1179 1.398 . S
C1180 C1181 1.391 . S
C1181 H1169 0.950 . S
C1181 C1177 1.393 . S
C1181 C1180 1.391 . S
C1182 H1172 0.950 . S
C1182 C1183 1.386 . S
C1182 C1184 1.391 . S
C1183 C1182 1.386 . S
C1183 C1187 1.393 . S
C1184 H1173 0.950 . S
C1184 C1182 1.391 . S
C1184 C1185 1.400 . S
C1185 C1179 1.491 . S
C1185 C1184 1.400 . S
C1185 C1186 1.398 . S
C1186 H1174 0.950 . S
C1186 C1185 1.398 . S
C1186 C1187 1.391 . S
C1187 H1175 0.950 . S
C1187 C1183 1.393 . S
C1187 C1186 1.391 . S
H1188 C1196 0.950 . S
H1189 C1201 0.950 . S
H1190 C1198 0.950 . S
H1191 C1200 0.950 . S
H1192 C1202 0.950 . S
H1193 C1204 0.950 . S
H1194 C1206 0.950 . S
H1195 C1207 0.950 . S
C1196 H1188 0.950 . S
C1196 C1197 1.386 . S
C1196 C1198 1.391 . S
C1197 C1196 1.386 . S
C1197 C1201 1.393 . S
C1198 H1190 0.950 . S
C1198 C1196 1.391 . S
C1198 C1199 1.400 . S
C1199 C1198 1.400 . S
C1199 C1200 1.398 . S
C1199 C1205 1.491 1_565 S
C1200 H1191 0.950 . S
C1200 C1199 1.398 . S
C1200 C1201 1.391 . S
C1201 H1189 0.950 . S
C1201 C1197 1.393 . S
C1201 C1200 1.391 . S
C1202 H1192 0.950 . S
C1202 C1203 1.386 . S
C1202 C1204 1.391 . S
C1203 C1202 1.386 . S
C1203 C1207 1.393 . S
C1204 H1193 0.950 . S
C1204 C1202 1.391 . S
C1204 C1205 1.400 . S
C1205 C1199 1.491 1_545 S
C1205 C1204 1.400 . S
C1205 C1206 1.398 . S
C1206 H1194 0.950 . S
C1206 C1205 1.398 . S
C1206 C1207 1.391 . S
C1207 H1195 0.950 . S
C1207 C1203 1.393 . S
C1207 C1206 1.391 . S
H1208 C1216 0.950 . S
H1209 C1221 0.950 . S
H1210 C1218 0.950 . S
H1211 C1220 0.950 . S
H1212 C1222 0.950 . S
H1213 C1224 0.950 . S
H1214 C1226 0.950 . S
H1215 C1227 0.950 . S
C1216 H1208 0.950 . S
C1216 C1217 1.386 . S
C1216 C1218 1.391 . S
C1217 C1216 1.386 . S
C1217 C1221 1.393 . S
C1218 H1210 0.950 . S
C1218 C1216 1.391 . S
C1218 C1219 1.400 . S
C1219 C1218 1.400 . S
C1219 C1220 1.398 . S
C1219 C1225 1.491 . S
C1220 H1211 0.950 . S
C1220 C1219 1.398 . S
C1220 C1221 1.391 . S
C1221 H1209 0.950 . S
C1221 C1217 1.393 . S
C1221 C1220 1.391 . S
C1222 H1212 0.950 . S
C1222 C1223 1.386 . S
C1222 C1224 1.391 . S
C1223 C1222 1.386 . S
C1223 C1227 1.393 . S
C1224 H1213 0.950 . S
C1224 C1222 1.391 . S
C1224 C1225 1.400 . S
C1225 C1219 1.491 . S
C1225 C1224 1.400 . S
C1225 C1226 1.398 . S
C1226 H1214 0.950 . S
C1226 C1225 1.398 . S
C1226 C1227 1.391 . S
C1227 H1215 0.950 . S
C1227 C1223 1.393 . S
C1227 C1226 1.391 . S
H1228 C1236 0.950 . S
H1229 C1241 0.950 . S
H1230 C1238 0.950 . S
H1231 C1240 0.950 . S
H1232 C1242 0.950 . S
H1233 C1244 0.950 1_655 S
H1234 C1246 0.950 . S
H1235 C1247 0.950 . S
C1236 H1228 0.950 . S
C1236 C1237 1.381 1_454 S
C1236 C1238 1.391 . S
C1237 C1236 1.381 1_656 S
C1237 C1241 1.396 . S
C1238 H1230 0.950 . S
C1238 C1236 1.391 . S
C1238 C1239 1.400 1_554 S
C1239 C1238 1.400 1_556 S
C1239 C1240 1.398 1_455 S
C1239 C1245 1.491 1_546 S
C1240 H1231 0.950 . S
C1240 C1239 1.398 1_655 S
C1240 C1241 1.391 . S
C1241 H1229 0.950 . S
C1241 C1237 1.396 . S
C1241 C1240 1.391 . S
C1242 H1232 0.950 . S
C1242 C1243 1.386 1_556 S
C1242 C1244 1.391 . S
C1243 C1242 1.386 1_554 S
C1243 C1247 1.393 . S
C1244 H1233 0.950 1_455 S
C1244 C1242 1.391 . S
C1244 C1245 1.400 1_556 S
C1245 C1239 1.491 1_564 S
C1245 C1244 1.400 1_554 S
C1245 C1246 1.398 . S
C1246 H1234 0.950 . S
C1246 C1245 1.398 . S
C1246 C1247 1.391 . S
C1247 H1235 0.950 . S
C1247 C1243 1.393 . S
C1247 C1246 1.391 . S
H1248 C1256 0.950 . S
H1249 C1261 0.950 . S
H1250 C1258 0.950 . S
H1251 C1260 0.950 . S
H1252 C1262 0.950 . S
H1253 C1264 0.950 . S
H1254 C1266 0.950 . S
H1255 C1267 0.950 . S
C1256 H1248 0.950 . S
C1256 C1257 1.386 . S
C1256 C1258 1.391 . S
C1257 C1256 1.386 . S
C1257 C1261 1.393 . S
C1258 H1250 0.950 . S
C1258 C1256 1.391 . S
C1258 C1259 1.400 . S
C1259 C1258 1.400 . S
C1259 C1260 1.398 . S
C1259 C1265 1.491 . S
C1260 H1251 0.950 . S
C1260 C1259 1.398 . S
C1260 C1261 1.391 . S
C1261 H1249 0.950 . S
C1261 C1257 1.393 . S
C1261 C1260 1.391 . S
C1262 H1252 0.950 . S
C1262 C1263 1.386 . S
C1262 C1264 1.391 . S
C1263 C1262 1.386 . S
C1263 C1267 1.393 . S
C1264 H1253 0.950 . S
C1264 C1262 1.391 . S
C1264 C1265 1.400 . S
C1265 C1259 1.491 . S
C1265 C1264 1.400 . S
C1265 C1266 1.398 . S
C1266 H1254 0.950 . S
C1266 C1265 1.398 . S
C1266 C1267 1.391 . S
C1267 H1255 0.950 . S
C1267 C1263 1.393 . S
C1267 C1266 1.391 . S
H1268 C1276 0.950 . S
H1269 C1281 0.950 . S
H1270 C1278 0.950 . S
H1271 C1280 0.950 . S
H1272 C1282 0.950 . S
H1273 C1284 0.950 . S
H1274 C1286 0.950 . S
H1275 C1287 0.950 . S
C1276 H1268 0.950 . S
C1276 C1277 1.386 . S
C1276 C1278 1.391 . S
C1277 C1276 1.386 . S
C1277 C1281 1.393 . S
C1278 H1270 0.950 . S
C1278 C1276 1.391 . S
C1278 C1279 1.400 . S
C1279 C1278 1.400 . S
C1279 C1280 1.398 . S
C1279 C1285 1.491 . S
C1280 H1271 0.950 . S
C1280 C1279 1.398 . S
C1280 C1281 1.391 . S
C1281 H1269 0.950 . S
C1281 C1277 1.393 . S
C1281 C1280 1.391 . S
C1282 H1272 0.950 . S
C1282 C1283 1.386 . S
C1282 C1284 1.391 . S
C1283 C1282 1.386 . S
C1283 C1287 1.393 . S
C1284 H1273 0.950 . S
C1284 C1282 1.391 . S
C1284 C1285 1.400 . S
C1285 C1279 1.491 . S
C1285 C1284 1.400 . S
C1285 C1286 1.398 . S
C1286 H1274 0.950 . S
C1286 C1285 1.398 . S
C1286 C1287 1.391 . S
C1287 H1275 0.950 . S
C1287 C1283 1.393 . S
C1287 C1286 1.391 . S
H1288 C1296 0.950 . S
H1289 C1301 0.950 . S
H1290 C1298 0.950 . S
H1291 C1300 0.950 . S
H1292 C1302 0.950 . S
H1293 C1304 0.950 . S
H1294 C1306 0.950 . S
H1295 C1307 0.950 . S
C1296 H1288 0.950 . S
C1296 C1297 1.386 . S
C1296 C1298 1.391 . S
C1297 C1296 1.386 . S
C1297 C1301 1.393 . S
C1298 H1290 0.950 . S
C1298 C1296 1.391 . S
C1298 C1299 1.400 . S
C1299 C1298 1.400 . S
C1299 C1300 1.398 . S
C1299 C1305 1.491 . S
C1300 H1291 0.950 . S
C1300 C1299 1.398 . S
C1300 C1301 1.391 . S
C1301 H1289 0.950 . S
C1301 C1297 1.393 . S
C1301 C1300 1.391 . S
C1302 H1292 0.950 . S
C1302 C1303 1.386 . S
C1302 C1304 1.391 . S
C1303 C1302 1.386 . S
C1303 C1307 1.393 . S
C1304 H1293 0.950 . S
C1304 C1302 1.391 . S
C1304 C1305 1.400 . S
C1305 C1299 1.491 . S
C1305 C1304 1.400 . S
C1305 C1306 1.398 . S
C1306 H1294 0.950 . S
C1306 C1305 1.398 . S
C1306 C1307 1.391 . S
C1307 H1295 0.950 . S
C1307 C1303 1.393 . S
C1307 C1306 1.391 . S
H1308 C1316 0.950 . S
H1309 C1321 0.950 . S
H1310 C1318 0.950 . S
H1311 C1320 0.950 . S
H1312 C1322 0.950 . S
H1313 C1324 0.950 . S
H1314 C1326 0.950 . S
H1315 C1327 0.950 . S
C1316 H1308 0.950 . S
C1316 C1317 1.386 . S
C1316 C1318 1.391 . S
C1317 C1316 1.386 . S
C1317 C1321 1.393 . S
C1318 H1310 0.950 . S
C1318 C1316 1.391 . S
C1318 C1319 1.400 . S
C1319 C1318 1.400 . S
C1319 C1320 1.398 . S
C1319 C1325 1.491 . S
C1320 H1311 0.950 . S
C1320 C1319 1.398 . S
C1320 C1321 1.391 . S
C1321 H1309 0.950 . S
C1321 C1317 1.393 . S
C1321 C1320 1.391 . S
C1322 H1312 0.950 . S
C1322 C1323 1.386 . S
C1322 C1324 1.391 . S
C1323 C1322 1.386 . S
C1323 C1327 1.393 . S
C1324 H1313 0.950 . S
C1324 C1322 1.391 . S
C1324 C1325 1.400 . S
C1325 C1319 1.491 . S
C1325 C1324 1.400 . S
C1325 C1326 1.398 . S
C1326 H1314 0.950 . S
C1326 C1325 1.398 . S
C1326 C1327 1.391 . S
C1327 H1315 0.950 . S
C1327 C1323 1.393 . S
C1327 C1326 1.391 . S
H1328 C1336 0.950 . S
H1329 C1341 0.950 . S
H1330 C1338 0.950 . S
H1331 C1340 0.950 . S
H1332 C1342 0.950 1_554 S
H1333 C1344 0.950 . S
H1334 C1346 0.950 . S
H1335 C1347 0.950 . S
C1336 H1328 0.950 . S
C1336 C1337 1.386 1_556 S
C1336 C1338 1.391 . S
C1337 C1336 1.386 1_554 S
C1337 C1341 1.393 . S
C1338 H1330 0.950 . S
C1338 C1336 1.391 . S
C1338 C1339 1.400 1_556 S
C1339 C1338 1.400 1_554 S
C1339 C1340 1.398 . S
C1339 C1345 1.491 1_554 S
C1340 H1331 0.950 . S
C1340 C1339 1.398 . S
C1340 C1341 1.391 . S
C1341 H1329 0.950 . S
C1341 C1337 1.393 . S
C1341 C1340 1.391 . S
C1342 H1332 0.950 1_556 S
C1342 C1343 1.386 . S
C1342 C1344 1.391 1_556 S
C1343 C1342 1.386 . S
C1343 C1347 1.393 . S
C1344 H1333 0.950 . S
C1344 C1342 1.391 1_554 S
C1344 C1345 1.400 1_554 S
C1345 C1339 1.491 1_556 S
C1345 C1344 1.400 1_556 S
C1345 C1346 1.398 . S
C1346 H1334 0.950 . S
C1346 C1345 1.398 . S
C1346 C1347 1.391 . S
C1347 H1335 0.950 . S
C1347 C1343 1.393 . S
C1347 C1346 1.391 . S
H1348 C1356 0.950 . S
H1349 C1361 0.950 . S
H1350 C1358 0.950 . S
H1351 C1360 0.950 . S
H1352 C1362 0.950 . S
H1353 C1364 0.950 . S
H1354 C1366 0.950 . S
H1355 C1367 0.950 . S
C1356 H1348 0.950 . S
C1356 C1357 1.386 . S
C1356 C1358 1.391 . S
C1357 C1356 1.386 . S
C1357 C1361 1.393 1_655 S
C1358 H1350 0.950 . S
C1358 C1356 1.391 . S
C1358 C1359 1.400 . S
C1359 C1358 1.400 . S
C1359 C1360 1.398 1_655 S
C1359 C1365 1.491 . S
C1360 H1351 0.950 . S
C1360 C1359 1.398 1_455 S
C1360 C1361 1.391 . S
C1361 H1349 0.950 . S
C1361 C1357 1.393 1_455 S
C1361 C1360 1.391 . S
C1362 H1352 0.950 . S
C1362 C1363 1.353 1_455 S
C1362 C1364 1.391 . S
C1363 C1362 1.353 1_655 S
C1363 C1367 1.433 . S
C1364 H1353 0.950 . S
C1364 C1362 1.391 . S
C1364 C1365 1.400 1_455 S
C1365 C1359 1.491 . S
C1365 C1364 1.400 1_655 S
C1365 C1366 1.398 . S
C1366 H1354 0.950 . S
C1366 C1365 1.398 . S
C1366 C1367 1.391 . S
C1367 H1355 0.950 . S
C1367 C1363 1.433 . S
C1367 C1366 1.391 . S
H1368 C1376 0.945 1_554 S
H1369 C1381 0.950 . S
H1370 C1378 0.950 . S
H1371 C1380 0.950 . S
H1372 C1382 0.950 . S
H1373 C1384 0.950 1_556 S
H1374 C1386 0.950 . S
H1375 C1387 0.950 . S
C1376 H1368 0.945 1_556 S
C1376 C1377 1.383 . S
C1376 C1378 1.391 1_556 S
C1377 C1376 1.383 . S
C1377 C1381 1.395 1_655 S
C1378 H1370 0.950 . S
C1378 C1376 1.391 1_554 S
C1378 C1379 1.400 1_554 S
C1379 C1378 1.400 1_556 S
C1379 C1380 1.398 1_655 S
C1379 C1385 1.491 1_556 S
C1380 H1371 0.950 . S
C1380 C1379 1.398 1_455 S
C1380 C1381 1.391 . S
C1381 H1369 0.950 . S
C1381 C1377 1.395 1_455 S
C1381 C1380 1.391 . S
C1382 H1372 0.950 . S
C1382 C1383 1.386 1_455 S
C1382 C1384 1.391 . S
C1383 C1382 1.386 1_655 S
C1383 C1387 1.393 . S
C1384 H1373 0.950 1_554 S
C1384 C1382 1.391 . S
C1384 C1385 1.400 1_455 S
C1385 C1379 1.491 1_554 S
C1385 C1384 1.400 1_655 S
C1385 C1386 1.398 . S
C1386 H1374 0.950 . S
C1386 C1385 1.398 . S
C1386 C1387 1.391 . S
C1387 H1375 0.950 . S
C1387 C1383 1.393 . S
C1387 C1386 1.391 . S
H1388 C1396 0.950 . S
H1389 C1401 0.950 . S
H1390 C1398 0.950 . S
H1391 C1400 0.950 . S
H1392 C1402 0.950 . S
H1393 C1404 0.950 . S
H1394 C1406 0.950 . S
H1395 C1407 0.950 . S
C1396 H1388 0.950 . S
C1396 C1397 1.386 . S
C1396 C1398 1.391 . S
C1397 C1396 1.386 . S
C1397 C1401 1.393 . S
C1398 H1390 0.950 . S
C1398 C1396 1.391 . S
C1398 C1399 1.400 . S
C1399 C1398 1.400 . S
C1399 C1400 1.398 . S
C1399 C1405 1.491 . S
C1400 H1391 0.950 . S
C1400 C1399 1.398 . S
C1400 C1401 1.391 . S
C1401 H1389 0.950 . S
C1401 C1397 1.393 . S
C1401 C1400 1.391 . S
C1402 H1392 0.950 . S
C1402 C1403 1.386 . S
C1402 C1404 1.391 . S
C1403 C1402 1.386 . S
C1403 C1407 1.393 . S
C1404 H1393 0.950 . S
C1404 C1402 1.391 . S
C1404 C1405 1.400 . S
C1405 C1399 1.491 . S
C1405 C1404 1.400 . S
C1405 C1406 1.398 . S
C1406 H1394 0.950 . S
C1406 C1405 1.398 . S
C1406 C1407 1.391 . S
C1407 H1395 0.950 . S
C1407 C1403 1.393 . S
C1407 C1406 1.391 . S
H1408 C1416 0.950 . S
H1409 C1421 0.950 . S
H1410 C1418 0.950 . S
H1411 C1420 0.950 . S
H1412 C1422 0.950 . S
H1413 C1424 0.950 . S
H1414 C1426 0.950 . S
H1415 C1427 0.950 . S
C1416 H1408 0.950 . S
C1416 C1417 1.386 . S
C1416 C1418 1.391 . S
C1417 C1416 1.386 . S
C1417 C1421 1.393 . S
C1418 H1410 0.950 . S
C1418 C1416 1.391 . S
C1418 C1419 1.400 . S
C1419 C1418 1.400 . S
C1419 C1420 1.398 . S
C1419 C1425 1.491 . S
C1420 H1411 0.950 . S
C1420 C1419 1.398 . S
C1420 C1421 1.391 . S
C1421 H1409 0.950 . S
C1421 C1417 1.393 . S
C1421 C1420 1.391 . S
C1422 H1412 0.950 . S
C1422 C1423 1.386 . S
C1422 C1424 1.391 . S
C1423 C1422 1.386 . S
C1423 C1427 1.393 . S
C1424 H1413 0.950 . S
C1424 C1422 1.391 . S
C1424 C1425 1.400 . S
C1425 C1419 1.491 . S
C1425 C1424 1.400 . S
C1425 C1426 1.398 . S
C1426 H1414 0.950 . S
C1426 C1425 1.398 . S
C1426 C1427 1.391 . S
C1427 H1415 0.950 . S
C1427 C1423 1.393 . S
C1427 C1426 1.391 . S
H1428 C1436 0.950 . S
H1429 C1441 0.950 . S
H1430 C1438 0.950 . S
H1431 C1440 0.950 . S
H1432 C1442 0.950 . S
H1433 C1444 0.950 . S
H1434 C1446 0.950 . S
H1435 C1447 0.950 . S
C1436 H1428 0.950 . S
C1436 C1437 1.386 . S
C1436 C1438 1.391 . S
C1437 C1436 1.386 . S
C1437 C1441 1.393 . S
C1438 H1430 0.950 . S
C1438 C1436 1.391 . S
C1438 C1439 1.400 . S
C1439 C1438 1.400 . S
C1439 C1440 1.398 . S
C1439 C1445 1.491 . S
C1440 H1431 0.950 . S
C1440 C1439 1.398 . S
C1440 C1441 1.391 . S
C1441 H1429 0.950 . S
C1441 C1437 1.393 . S
C1441 C1440 1.391 . S
C1442 H1432 0.950 . S
C1442 C1443 1.386 . S
C1442 C1444 1.391 . S
C1443 C1442 1.386 . S
C1443 C1447 1.393 . S
C1444 H1433 0.950 . S
C1444 C1442 1.391 . S
C1444 C1445 1.400 . S
C1445 C1439 1.491 . S
C1445 C1444 1.400 . S
C1445 C1446 1.398 . S
C1446 H1434 0.950 . S
C1446 C1445 1.398 . S
C1446 C1447 1.391 . S
C1447 H1435 0.950 . S
C1447 C1443 1.393 . S
C1447 C1446 1.391 . S
H1448 C1456 0.950 . S
H1449 C1461 0.950 . S
H1450 C1458 0.950 . S
H1451 C1460 0.950 . S
H1452 C1462 0.950 . S
H1453 C1464 0.950 . S
H1454 C1466 0.950 . S
H1455 C1467 0.950 . S
C1456 H1448 0.950 . S
C1456 C1457 1.386 . S
C1456 C1458 1.391 . S
C1457 C1456 1.386 . S
C1457 C1461 1.393 . S
C1458 H1450 0.950 . S
C1458 C1456 1.391 . S
C1458 C1459 1.400 . S
C1459 C1458 1.400 . S
C1459 C1460 1.398 . S
C1459 C1465 1.491 . S
C1460 H1451 0.950 . S
C1460 C1459 1.398 . S
C1460 C1461 1.391 . S
C1461 H1449 0.950 . S
C1461 C1457 1.393 . S
C1461 C1460 1.391 . S
C1462 H1452 0.950 . S
C1462 C1463 1.386 . S
C1462 C1464 1.391 . S
C1463 C1462 1.386 . S
C1463 C1467 1.393 . S
C1464 H1453 0.950 . S
C1464 C1462 1.391 . S
C1464 C1465 1.400 . S
C1465 C1459 1.491 . S
C1465 C1464 1.400 . S
C1465 C1466 1.398 . S
C1466 H1454 0.950 . S
C1466 C1465 1.398 . S
C1466 C1467 1.391 . S
C1467 H1455 0.950 . S
C1467 C1463 1.393 . S
C1467 C1466 1.391 . S
H1468 C1476 0.950 . S
H1469 C1481 0.950 . S
H1470 C1478 0.950 . S
H1471 C1480 0.950 . S
H1472 C1482 0.950 . S
H1473 C1484 0.950 . S
H1474 C1486 0.950 . S
H1475 C1487 0.950 . S
C1476 H1468 0.950 . S
C1476 C1477 1.386 . S
C1476 C1478 1.391 . S
C1477 C1476 1.386 . S
C1477 C1481 1.393 . S
C1478 H1470 0.950 . S
C1478 C1476 1.391 . S
C1478 C1479 1.400 . S
C1479 C1478 1.400 . S
C1479 C1480 1.398 . S
C1479 C1485 1.491 . S
C1480 H1471 0.950 . S
C1480 C1479 1.398 . S
C1480 C1481 1.391 . S
C1481 H1469 0.950 . S
C1481 C1477 1.393 . S
C1481 C1480 1.391 . S
C1482 H1472 0.950 . S
C1482 C1483 1.386 . S
C1482 C1484 1.391 . S
C1483 C1482 1.386 . S
C1483 C1487 1.393 . S
C1484 H1473 0.950 . S
C1484 C1482 1.391 . S
C1484 C1485 1.400 . S
C1485 C1479 1.491 . S
C1485 C1484 1.400 . S
C1485 C1486 1.398 . S
C1486 H1474 0.950 . S
C1486 C1485 1.398 . S
C1486 C1487 1.391 . S
C1487 H1475 0.950 . S
C1487 C1483 1.393 . S
C1487 C1486 1.391 . S
H1488 C1496 0.950 . S
H1489 C1501 0.950 . S
H1490 C1498 0.950 . S
H1491 C1500 0.950 . S
H1492 C1502 0.950 . S
H1493 C1504 0.950 . S
H1494 C1506 0.950 . S
H1495 C1507 0.950 . S
C1496 H1488 0.950 . S
C1496 C1497 1.386 . S
C1496 C1498 1.391 . S
C1497 C1496 1.386 . S
C1497 C1501 1.393 . S
C1498 H1490 0.950 . S
C1498 C1496 1.391 . S
C1498 C1499 1.400 . S
C1499 C1498 1.400 . S
C1499 C1500 1.398 . S
C1499 C1505 1.491 . S
C1500 H1491 0.950 . S
C1500 C1499 1.398 . S
C1500 C1501 1.391 . S
C1501 H1489 0.950 . S
C1501 C1497 1.393 . S
C1501 C1500 1.391 . S
C1502 H1492 0.950 . S
C1502 C1503 1.386 . S
C1502 C1504 1.391 . S
C1503 C1502 1.386 . S
C1503 C1507 1.393 . S
C1504 H1493 0.950 . S
C1504 C1502 1.391 . S
C1504 C1505 1.400 . S
C1505 C1499 1.491 . S
C1505 C1504 1.400 . S
C1505 C1506 1.398 . S
C1506 H1494 0.950 . S
C1506 C1505 1.398 . S
C1506 C1507 1.391 . S
C1507 H1495 0.950 . S
C1507 C1503 1.393 . S
C1507 C1506 1.391 . S
H1508 C1516 0.950 . S
H1509 C1521 0.950 . S
H1510 C1518 0.950 . S
H1511 C1520 0.950 . S
H1512 C1522 0.950 . S
H1513 C1524 0.950 . S
H1514 C1526 0.950 . S
H1515 C1527 0.950 . S
C1516 H1508 0.950 . S
C1516 C1517 1.386 . S
C1516 C1518 1.391 . S
C1517 C1516 1.386 . S
C1517 C1521 1.393 . S
C1518 H1510 0.950 . S
C1518 C1516 1.391 . S
C1518 C1519 1.400 . S
C1519 C1518 1.400 . S
C1519 C1520 1.398 . S
C1519 C1525 1.491 . S
C1520 H1511 0.950 . S
C1520 C1519 1.398 . S
C1520 C1521 1.391 . S
C1521 H1509 0.950 . S
C1521 C1517 1.393 . S
C1521 C1520 1.391 . S
C1522 H1512 0.950 . S
C1522 C1523 1.386 . S
C1522 C1524 1.391 . S
C1523 C1522 1.386 . S
C1523 C1527 1.393 . S
C1524 H1513 0.950 . S
C1524 C1522 1.391 . S
C1524 C1525 1.400 . S
C1525 C1519 1.491 . S
C1525 C1524 1.400 . S
C1525 C1526 1.398 . S
C1526 H1514 0.950 . S
C1526 C1525 1.398 . S
C1526 C1527 1.391 . S
C1527 H1515 0.950 . S
C1527 C1523 1.393 . S
C1527 C1526 1.391 . S
H1528 C1536 0.950 . S
H1529 C1541 0.950 . S
H1530 C1538 0.950 . S
H1531 C1540 0.950 . S
H1532 C1542 0.950 . S
H1533 C1544 0.950 . S
H1534 C1546 0.950 . S
H1535 C1547 0.950 . S
C1536 H1528 0.950 . S
C1536 C1537 1.386 . S
C1536 C1538 1.391 . S
C1537 C1536 1.386 . S
C1537 C1541 1.393 . S
C1538 H1530 0.950 . S
C1538 C1536 1.391 . S
C1538 C1539 1.400 . S
C1539 C1538 1.400 . S
C1539 C1540 1.398 . S
C1539 C1545 1.491 . S
C1540 H1531 0.950 . S
C1540 C1539 1.398 . S
C1540 C1541 1.391 . S
C1541 H1529 0.950 . S
C1541 C1537 1.393 . S
C1541 C1540 1.391 . S
C1542 H1532 0.950 . S
C1542 C1543 1.386 . S
C1542 C1544 1.391 . S
C1543 C1542 1.386 . S
C1543 C1547 1.393 . S
C1544 H1533 0.950 . S
C1544 C1542 1.391 . S
C1544 C1545 1.400 . S
C1545 C1539 1.491 . S
C1545 C1544 1.400 . S
C1545 C1546 1.398 . S
C1546 H1534 0.950 . S
C1546 C1545 1.398 . S
C1546 C1547 1.391 . S
C1547 H1535 0.950 . S
C1547 C1543 1.393 . S
C1547 C1546 1.391 . S
H1548 C1556 0.950 . S
H1549 C1561 0.950 . S
H1550 C1558 0.950 . S
H1551 C1560 0.950 . S
H1552 C1562 0.950 . S
H1553 C1564 0.950 . S
H1554 C1566 0.950 . S
H1555 C1567 0.950 . S
C1556 H1548 0.950 . S
C1556 C1557 1.386 . S
C1556 C1558 1.391 . S
C1557 C1556 1.386 . S
C1557 C1561 1.393 . S
C1558 H1550 0.950 . S
C1558 C1556 1.391 . S
C1558 C1559 1.400 . S
C1559 C1558 1.400 . S
C1559 C1560 1.398 . S
C1559 C1565 1.491 . S
C1560 H1551 0.950 . S
C1560 C1559 1.398 . S
C1560 C1561 1.391 . S
C1561 H1549 0.950 . S
C1561 C1557 1.393 . S
C1561 C1560 1.391 . S
C1562 H1552 0.950 . S
C1562 C1563 1.386 . S
C1562 C1564 1.391 . S
C1563 C1562 1.386 . S
C1563 C1567 1.393 . S
C1564 H1553 0.950 . S
C1564 C1562 1.391 . S
C1564 C1565 1.400 . S
C1565 C1559 1.491 . S
C1565 C1564 1.400 . S
C1565 C1566 1.398 . S
C1566 H1554 0.950 . S
C1566 C1565 1.398 . S
C1566 C1567 1.391 . S
C1567 H1555 0.950 . S
C1567 C1563 1.393 . S
C1567 C1566 1.391 . S
H1568 C1576 0.950 . S
H1569 C1581 0.950 . S
H1570 C1578 0.950 . S
H1571 C1580 0.950 . S
H1572 C1582 0.950 . S
H1573 C1584 0.950 . S
H1574 C1586 0.950 . S
H1575 C1587 0.950 . S
C1576 H1568 0.950 . S
C1576 C1577 1.386 . S
C1576 C1578 1.391 . S
C1577 C1576 1.386 . S
C1577 C1581 1.393 . S
C1578 H1570 0.950 . S
C1578 C1576 1.391 . S
C1578 C1579 1.400 . S
C1579 C1578 1.400 . S
C1579 C1580 1.398 . S
C1579 C1585 1.491 . S
C1580 H1571 0.950 . S
C1580 C1579 1.398 . S
C1580 C1581 1.391 . S
C1581 H1569 0.950 . S
C1581 C1577 1.393 . S
C1581 C1580 1.391 . S
C1582 H1572 0.950 . S
C1582 C1583 1.386 . S
C1582 C1584 1.391 . S
C1583 C1582 1.386 . S
C1583 C1587 1.393 . S
C1584 H1573 0.950 . S
C1584 C1582 1.391 . S
C1584 C1585 1.400 . S
C1585 C1579 1.491 . S
C1585 C1584 1.400 . S
C1585 C1586 1.398 . S
C1586 H1574 0.950 . S
C1586 C1585 1.398 . S
C1586 C1587 1.391 . S
C1587 H1575 0.950 . S
C1587 C1583 1.393 . S
C1587 C1586 1.391 . S
H1588 C1596 0.950 . S
H1589 C1601 0.950 . S
H1590 C1598 0.950 . S
H1591 C1600 0.950 . S
H1592 C1602 0.950 . S
H1593 C1604 0.950 . S
H1594 C1606 0.950 . S
H1595 C1607 0.950 . S
C1596 H1588 0.950 . S
C1596 C1597 1.386 . S
C1596 C1598 1.391 . S
C1597 C1596 1.386 . S
C1597 C1601 1.393 . S
C1598 H1590 0.950 . S
C1598 C1596 1.391 . S
C1598 C1599 1.400 . S
C1599 C1598 1.400 . S
C1599 C1600 1.398 . S
C1599 C1605 1.491 . S
C1600 H1591 0.950 . S
C1600 C1599 1.398 . S
C1600 C1601 1.391 . S
C1601 H1589 0.950 . S
C1601 C1597 1.393 . S
C1601 C1600 1.391 . S
C1602 H1592 0.950 . S
C1602 C1603 1.386 . S
C1602 C1604 1.391 . S
C1603 C1602 1.386 . S
C1603 C1607 1.393 . S
C1604 H1593 0.950 . S
C1604 C1602 1.391 . S
C1604 C1605 1.400 . S
C1605 C1599 1.491 . S
C1605 C1604 1.400 . S
C1605 C1606 1.398 . S
C1606 H1594 0.950 . S
C1606 C1605 1.398 . S
C1606 C1607 1.391 . S
C1607 H1595 0.950 . S
C1607 C1603 1.393 . S
C1607 C1606 1.391 . S
H1608 C1616 0.950 . S
H1609 C1621 0.950 . S
H1610 C1618 0.950 . S
H1611 C1620 0.950 . S
H1612 C1622 0.950 . S
H1613 C1624 0.950 . S
H1614 C1626 0.950 . S
H1615 C1627 0.950 . S
C1616 H1608 0.950 . S
C1616 C1617 1.386 . S
C1616 C1618 1.391 . S
C1617 C1616 1.386 . S
C1617 C1621 1.393 . S
C1618 H1610 0.950 . S
C1618 C1616 1.391 . S
C1618 C1619 1.400 . S
C1619 C1618 1.400 . S
C1619 C1620 1.398 . S
C1619 C1625 1.491 . S
C1620 H1611 0.950 . S
C1620 C1619 1.398 . S
C1620 C1621 1.391 . S
C1621 H1609 0.950 . S
C1621 C1617 1.393 . S
C1621 C1620 1.391 . S
C1622 H1612 0.950 . S
C1622 C1623 1.386 . S
C1622 C1624 1.391 . S
C1623 C1622 1.386 . S
C1623 C1627 1.393 . S
C1624 H1613 0.950 . S
C1624 C1622 1.391 . S
C1624 C1625 1.400 . S
C1625 C1619 1.491 . S
C1625 C1624 1.400 . S
C1625 C1626 1.398 . S
C1626 H1614 0.950 . S
C1626 C1625 1.398 . S
C1626 C1627 1.391 . S
C1627 H1615 0.950 . S
C1627 C1623 1.393 . S
C1627 C1626 1.391 . S
H1628 C1636 0.950 . S
H1629 C1641 0.950 . S
H1630 C1638 0.950 . S
H1631 C1640 0.950 . S
H1632 C1642 0.950 . S
H1633 C1644 0.950 . S
H1634 C1646 0.950 . S
H1635 C1647 0.950 . S
C1636 H1628 0.950 . S
C1636 C1637 1.386 . S
C1636 C1638 1.391 . S
C1637 C1636 1.386 . S
C1637 C1641 1.393 . S
C1638 H1630 0.950 . S
C1638 C1636 1.391 . S
C1638 C1639 1.400 . S
C1639 C1638 1.400 . S
C1639 C1640 1.398 . S
C1639 C1645 1.491 . S
C1640 H1631 0.950 . S
C1640 C1639 1.398 . S
C1640 C1641 1.391 . S
C1641 H1629 0.950 . S
C1641 C1637 1.393 . S
C1641 C1640 1.391 . S
C1642 H1632 0.950 . S
C1642 C1643 1.386 . S
C1642 C1644 1.391 . S
C1643 C1642 1.386 . S
C1643 C1647 1.393 . S
C1644 H1633 0.950 . S
C1644 C1642 1.391 . S
C1644 C1645 1.400 . S
C1645 C1639 1.491 . S
C1645 C1644 1.400 . S
C1645 C1646 1.398 . S
C1646 H1634 0.950 . S
C1646 C1645 1.398 . S
C1646 C1647 1.391 . S
C1647 H1635 0.950 . S
C1647 C1643 1.393 . S
C1647 C1646 1.391 . S
H1648 C1656 0.950 . S
H1649 C1661 0.950 . S
H1650 C1658 0.950 . S
H1651 C1660 0.950 . S
H1652 C1662 0.950 . S
H1653 C1664 0.950 . S
H1654 C1666 0.950 . S
H1655 C1667 0.950 . S
C1656 H1648 0.950 . S
C1656 C1657 1.386 . S
C1656 C1658 1.391 . S
C1657 C1656 1.386 . S
C1657 C1661 1.393 . S
C1658 H1650 0.950 . S
C1658 C1656 1.391 . S
C1658 C1659 1.400 . S
C1659 C1658 1.400 . S
C1659 C1660 1.398 . S
C1659 C1665 1.491 . S
C1660 H1651 0.950 . S
C1660 C1659 1.398 . S
C1660 C1661 1.391 . S
C1661 H1649 0.950 . S
C1661 C1657 1.393 . S
C1661 C1660 1.391 . S
C1662 H1652 0.950 . S
C1662 C1663 1.386 . S
C1662 C1664 1.391 . S
C1663 C1662 1.386 . S
C1663 C1667 1.393 . S
C1664 H1653 0.950 . S
C1664 C1662 1.391 . S
C1664 C1665 1.400 . S
C1665 C1659 1.491 . S
C1665 C1664 1.400 . S
C1665 C1666 1.398 . S
C1666 H1654 0.950 . S
C1666 C1665 1.398 . S
C1666 C1667 1.391 . S
C1667 H1655 0.950 . S
C1667 C1663 1.393 . S
C1667 C1666 1.391 . S
H1668 C1676 0.950 . S
H1669 C1681 0.950 . S
H1670 C1678 0.950 . S
H1671 C1680 0.950 . S
H1672 C1682 0.950 . S
H1673 C1684 0.950 . S
H1674 C1686 0.950 . S
H1675 C1687 0.950 . S
C1676 H1668 0.950 . S
C1676 C1677 1.386 . S
C1676 C1678 1.391 . S
C1677 C1676 1.386 . S
C1677 C1681 1.393 . S
C1678 H1670 0.950 . S
C1678 C1676 1.391 . S
C1678 C1679 1.400 . S
C1679 C1678 1.400 . S
C1679 C1680 1.398 . S
C1679 C1685 1.491 . S
C1680 H1671 0.950 . S
C1680 C1679 1.398 . S
C1680 C1681 1.391 . S
C1681 H1669 0.950 . S
C1681 C1677 1.393 . S
C1681 C1680 1.391 . S
C1682 H1672 0.950 . S
C1682 C1683 1.386 . S
C1682 C1684 1.391 . S
C1683 C1682 1.386 . S
C1683 C1687 1.393 . S
C1684 H1673 0.950 . S
C1684 C1682 1.391 . S
C1684 C1685 1.400 . S
C1685 C1679 1.491 . S
C1685 C1684 1.400 . S
C1685 C1686 1.398 . S
C1686 H1674 0.950 . S
C1686 C1685 1.398 . S
C1686 C1687 1.391 . S
C1687 H1675 0.950 . S
C1687 C1683 1.393 . S
C1687 C1686 1.391 . S
H1688 C1696 0.950 . S
H1689 C1701 0.950 . S
H1690 C1698 0.950 . S
H1691 C1700 0.950 . S
H1692 C1702 0.950 . S
H1693 C1704 0.950 . S
H1694 C1706 0.950 . S
H1695 C1707 0.950 . S
C1696 H1688 0.950 . S
C1696 C1697 1.386 . S
C1696 C1698 1.391 . S
C1697 C1696 1.386 . S
C1697 C1701 1.393 . S
C1698 H1690 0.950 . S
C1698 C1696 1.391 . S
C1698 C1699 1.400 . S
C1699 C1698 1.400 . S
C1699 C1700 1.398 . S
C1699 C1705 1.491 . S
C1700 H1691 0.950 . S
C1700 C1699 1.398 . S
C1700 C1701 1.391 . S
C1701 H1689 0.950 . S
C1701 C1697 1.393 . S
C1701 C1700 1.391 . S
C1702 H1692 0.950 . S
C1702 C1703 1.386 . S
C1702 C1704 1.391 . S
C1703 C1702 1.386 . S
C1703 C1707 1.393 . S
C1704 H1693 0.950 . S
C1704 C1702 1.391 . S
C1704 C1705 1.400 . S
C1705 C1699 1.491 . S
C1705 C1704 1.400 . S
C1705 C1706 1.398 . S
C1706 H1694 0.950 . S
C1706 C1705 1.398 . S
C1706 C1707 1.391 . S
C1707 H1695 0.950 . S
C1707 C1703 1.393 . S
C1707 C1706 1.391 . S
H1708 C1716 0.950 . S
H1709 C1721 0.950 . S
H1710 C1718 0.950 . S
H1711 C1720 0.950 . S
H1712 C1722 0.950 . S
H1713 C1724 0.950 . S
H1714 C1726 0.950 . S
H1715 C1727 0.950 . S
C1716 H1708 0.950 . S
C1716 C1717 1.386 . S
C1716 C1718 1.391 . S
C1717 C1716 1.386 . S
C1717 C1721 1.393 . S
C1718 H1710 0.950 . S
C1718 C1716 1.391 . S
C1718 C1719 1.400 . S
C1719 C1718 1.400 . S
C1719 C1720 1.398 . S
C1719 C1725 1.491 . S
C1720 H1711 0.950 . S
C1720 C1719 1.398 . S
C1720 C1721 1.391 . S
C1721 H1709 0.950 . S
C1721 C1717 1.393 . S
C1721 C1720 1.391 . S
C1722 H1712 0.950 . S
C1722 C1723 1.386 . S
C1722 C1724 1.391 . S
C1723 C1722 1.386 . S
C1723 C1727 1.393 . S
C1724 H1713 0.950 . S
C1724 C1722 1.391 . S
C1724 C1725 1.400 . S
C1725 C1719 1.491 . S
C1725 C1724 1.400 . S
C1725 C1726 1.398 . S
C1726 H1714 0.950 . S
C1726 C1725 1.398 . S
C1726 C1727 1.391 . S
C1727 H1715 0.950 . S
C1727 C1723 1.393 . S
C1727 C1726 1.391 . S
C457 C130 1.002 . S
C463 C4 0.939 . S
C477 C26 1.049 . S
C483 C368 1.007 . S
C497 C158 0.973 . S
C503 C32 0.978 . S
C517 C340 1.030 . S
C523 C54 1.063 . S
C537 C60 0.950 . S
C543 C214 1.017 . S
C557 C396 1.016 . S
C563 C82 1.059 . S
C577 C88 0.945 . S
C583 C186 0.989 . S
C597 C424 1.039 . S
C603 C110 1.040 . S
C617 C18 0.929 . S
C623 C124 0.905 . S
C637 C138 0.953 . S
C643 C264 0.944 . S
C657 C46 0.904 . S
C663 C152 0.895 . S
C677 C166 0.944 . S
C683 C236 0.966 . S
C697 C180 0.934 . S
C703 C102 0.927 . S
C717 C292 0.954 . S
C723 C194 0.939 . S
C737 C208 0.927 . S
C743 C74 0.933 . S
C757 C320 0.945 . S
C763 C222 0.951 . S
C777 C354 0.975 . S
C783 C228 0.985 . S
C797 C144 1.006 . S
C803 C250 1.042 . S
C817 C256 0.994 . S
C823 C382 0.982 . S
C837 C116 1.018 . S
C843 C278 1.059 . S
C857 C438 1.009 . S
C863 C284 0.940 . S
C877 C306 1.050 . S
C883 C172 1.007 . S
C897 C410 0.997 . S
C903 C312 0.994 . S
C917 C200 1.036 . S
C923 C334 1.038 . S
C937 C242 0.896 . S
C943 C348 0.898 . S
C957 C362 0.936 . S
C963 C40 0.962 . S
C977 C376 0.900 . S
C983 C270 0.893 . S
C997 C390 0.963 . S
C1003 C12 0.944 . S
C1017 C326 0.918 . S
C1023 C404 0.897 . S
C1037 C418 0.958 . S
C1043 C68 0.957 . S
C1057 C432 0.921 . S
C1063 C298 0.934 . S
C1077 C446 0.963 . S
C1083 C96 0.944 . S
C1097 C347 1.234 . S
C1103 C5 0.976 . S
C1117 C25 1.269 . S
C1123 C137 1.269 . S
C1137 C33 0.982 . S
C1143 C375 1.232 . S
C1157 C53 1.262 . S
C1163 C165 1.260 . S
C1177 C61 0.992 . S
C1183 C403 1.230 . S
C1197 C81 1.264 . S
C1203 C193 1.263 . S
C1217 C431 1.230 . S
C1223 C89 1.045 . S
C1237 C109 1.270 . S
C1243 C221 1.270 . S
C1257 C123 1.228 . S
C1263 C229 1.012 . S
C1277 C151 1.236 . S
C1283 C257 1.007 . S
C1297 C285 0.993 . S
C1303 C179 1.230 . S
C1317 C313 1.041 . S
C1323 C207 1.232 . S
C1337 C249 1.265 . S
C1343 C361 1.264 . S
C1357 C389 1.264 . S
C1363 C277 1.263 1_655 S
C1377 C305 1.270 1_655 S
C1383 C417 1.270 . S
C1397 C445 1.267 . S
C1403 C333 1.269 . S
C1417 C299 1.381 . S
C1423 C11 1.404 . S
C1437 C319 1.429 . S
C1443 C19 1.358 . S
C1457 C39 1.427 . S
C1463 C327 1.360 . S
C1477 C291 1.430 . S
C1483 C47 1.356 . S
C1497 C271 1.379 . S
C1503 C67 1.412 . S
C1517 C235 1.426 . S
C1523 C75 1.361 . S
C1537 C95 1.406 . S
C1543 C243 1.376 . S
C1557 C263 1.415 . S
C1563 C103 1.376 . S
C1577 C411 1.279 . S
C1583 C117 1.284 . S
C1597 C425 1.307 . S
C1603 C131 1.273 . S
C1617 C439 1.294 . S
C1623 C145 1.307 . S
C1637 C159 1.289 . S
C1643 C397 1.313 . S
C1657 C383 1.284 . S
C1663 C173 1.290 . S
C1677 C341 1.308 . S
C1683 C187 1.275 . S
C1697 C355 1.262 . S
C1703 C201 1.299 . S
C1717 C369 1.295 . S
C1723 C215 1.288 . S
