# Generated by pormake.
# Topology ecf, (8)-cn, num edge types: 1
# Building blocks:
#     Node 0, Type 0, BuildingBlock: TAGTUT_clean_sbu_3, # of connection points: 8
#     Node 1, Type 0, BuildingBlock: TAGTUT_clean_sbu_3, # of connection points: 8
#     Node 2, Type 0, BuildingBlock: TAGTUT_clean_sbu_3, # of connection points: 8
#     Node 3, Type 0, BuildingBlock: TAGTUT_clean_sbu_3, # of connection points: 8
#     Node 4, Type 0, BuildingBlock: TAGTUT_clean_sbu_3, # of connection points: 8
#     Node 5, Type 0, BuildingBlock: TAGTUT_clean_sbu_3, # of connection points: 8
#     Edge 6, Type (0, 0), BuildingBlock: XIVTED_clean_linker_0, # of connection points: 2
#     Edge 7, Type (0, 0), BuildingBlock: XIVTED_clean_linker_0, # of connection points: 2
#     Edge 8, Type (0, 0), BuildingBlock: XIVTED_clean_linker_0, # of connection points: 2
#     Edge 9, Type (0, 0), BuildingBlock: XIVTED_clean_linker_0, # of connection points: 2
#     Edge 10, Type (0, 0), BuildingBlock: XIVTED_clean_linker_0, # of connection points: 2
#     Edge 11, Type (0, 0), BuildingBlock: XIVTED_clean_linker_0, # of connection points: 2
#     Edge 12, Type (0, 0), BuildingBlock: XIVTED_clean_linker_0, # of connection points: 2
#     Edge 13, Type (0, 0), BuildingBlock: XIVTED_clean_linker_0, # of connection points: 2
#     Edge 14, Type (0, 0), BuildingBlock: XIVTED_clean_linker_0, # of connection points: 2
#     Edge 15, Type (0, 0), BuildingBlock: XIVTED_clean_linker_0, # of connection points: 2
#     Edge 16, Type (0, 0), BuildingBlock: XIVTED_clean_linker_0, # of connection points: 2
#     Edge 17, Type (0, 0), BuildingBlock: XIVTED_clean_linker_0, # of connection points: 2
#     Edge 18, Type (0, 0), BuildingBlock: XIVTED_clean_linker_0, # of connection points: 2
#     Edge 19, Type (0, 0), BuildingBlock: XIVTED_clean_linker_0, # of connection points: 2
#     Edge 20, Type (0, 0), BuildingBlock: XIVTED_clean_linker_0, # of connection points: 2
#     Edge 21, Type (0, 0), BuildingBlock: XIVTED_clean_linker_0, # of connection points: 2
#     Edge 22, Type (0, 0), BuildingBlock: XIVTED_clean_linker_0, # of connection points: 2
#     Edge 23, Type (0, 0), BuildingBlock: XIVTED_clean_linker_0, # of connection points: 2
#     Edge 24, Type (0, 0), BuildingBlock: XIVTED_clean_linker_0, # of connection points: 2
#     Edge 25, Type (0, 0), BuildingBlock: XIVTED_clean_linker_0, # of connection points: 2
#     Edge 26, Type (0, 0), BuildingBlock: XIVTED_clean_linker_0, # of connection points: 2
#     Edge 27, Type (0, 0), BuildingBlock: XIVTED_clean_linker_0, # of connection points: 2
#     Edge 28, Type (0, 0), BuildingBlock: XIVTED_clean_linker_0, # of connection points: 2
#     Edge 29, Type (0, 0), BuildingBlock: XIVTED_clean_linker_0, # of connection points: 2
# Relax obj value: 0.240
# Max RMSD: 0.185
# Mean RMSD: 0.185
data_MOF--net-ecf--node1-TAGTUT_clean_sbu_3--edge1-XIVTED_clean_linker_0
_symmetry_space_group_name_H-M    P1
_symmetry_Int_Tables_number       1
_symmetry_cell_setting            triclinic
loop_
_symmetry_equiv_pos_as_xyz
'x, y, z'
_cell_length_a     33.724993
_cell_length_b     33.685368
_cell_length_c     26.983178
_cell_angle_alpha  90.095577
_cell_angle_beta   89.98536
_cell_angle_gamma 119.9867
loop_
_atom_site_label
_atom_site_type_symbol
_atom_site_fract_x
_atom_site_fract_y
_atom_site_fract_z
_atom_type_partial_charge
C0 C 0.14654 0.32615 0.16396 0.0
C1 C 0.02729 0.24543 0.30994 0.0
C2 C 0.1498 0.32492 0.39872 0.0
Mg3 Mg 0.26242 0.37901 0.17706 0.0
Mg4 Mg 0.31795 0.35577 0.26475 0.0
O5 O 0.26714 0.36068 0.24656 0.0
Mg6 Mg 0.20248 0.3186 0.26136 0.0
O7 O 0.13516 0.28194 0.27381 0.0
Mg8 Mg 0.12556 0.33707 0.28137 0.0
Mg9 Mg 0.11739 0.24411 0.32898 0.0
C10 C 0.26275 0.30875 0.36261 0.0
O11 O 0.20429 0.2526 0.25081 0.0
O12 O 0.33802 0.43762 0.1867 0.0
O13 O 0.15309 0.20832 0.3091 0.0
O14 O 0.28798 0.3309 0.14801 0.0
O15 O 0.37013 0.4254 0.2536 0.0
O16 O 0.32239 0.31451 0.20937 0.0
O17 O 0.19949 0.38467 0.27213 0.0
O18 O 0.24008 0.42611 0.20795 0.0
C19 C 0.21375 0.42007 0.24444 0.0
C20 C 0.37107 0.45086 0.21795 0.0
O21 O 0.22615 0.30804 0.34566 0.0
O22 O 0.05002 0.2857 0.29177 0.0
O23 O 0.29937 0.32497 0.33676 0.0
O24 O 0.13828 0.34446 0.36577 0.0
O25 O 0.04579 0.22276 0.3263 0.0
O26 O 0.14671 0.28631 0.39114 0.0
O27 O 0.18176 0.32201 0.17687 0.0
O28 O 0.12153 0.33109 0.19662 0.0
C29 C 0.30926 0.311 0.16464 0.0
C30 C 0.18513 0.21656 0.27795 0.0
C31 C 0.79177 0.22242 0.72992 0.0
C32 C 0.91699 0.38031 0.7083 0.0
C33 C 0.00213 0.31864 0.67295 0.0
Mg34 Mg 0.78505 0.13551 0.77419 0.0
Mg35 Mg 0.866 0.13304 0.83703 0.0
O36 O 0.85044 0.1463 0.77544 0.0
Mg37 Mg 0.88133 0.21319 0.76007 0.0
O38 O 0.90402 0.27738 0.74267 0.0
Mg39 Mg 0.88641 0.27115 0.67101 0.0
Mg40 Mg 0.95679 0.3301 0.76446 0.0
C41 C 0.96472 0.19788 0.79135 0.0
O42 O 0.91024 0.23889 0.84571 0.0
O43 O 0.762 0.06053 0.78927 0.0
O44 O 0.96545 0.31279 0.83847 0.0
O45 O 0.78209 0.14971 0.85676 0.0
O46 O 0.81766 0.06063 0.83568 0.0
O47 O 0.84708 0.16433 0.89299 0.0
O48 O 0.86288 0.19052 0.67447 0.0
O49 O 0.79324 0.12946 0.69105 0.0
C50 C 0.82473 0.15445 0.65993 0.0
C51 C 0.77861 0.0398 0.81392 0.0
O52 O 0.9501 0.21548 0.75899 0.0
O53 O 0.90136 0.34739 0.67638 0.0
O54 O 0.9386 0.16799 0.82336 0.0
O55 O 0.96273 0.29463 0.65237 0.0
O56 O 0.93825 0.37999 0.74736 0.0
O57 O 0.00752 0.33649 0.71564 0.0
O58 O 0.81152 0.20946 0.76134 0.0
O59 O 0.81409 0.24829 0.69376 0.0
C60 C 0.80947 0.16432 0.89357 0.0
C61 C 0.94464 0.27602 0.86403 0.0
C62 C 0.65936 0.82063 0.16129 0.0
C63 C 0.73602 0.78043 0.31188 0.0
C64 C 0.64846 0.81696 0.396 0.0
Mg65 Mg 0.60496 0.88254 0.17355 0.0
Mg66 Mg 0.6261 0.96001 0.26248 0.0
O67 O 0.62156 0.90445 0.24378 0.0
Mg68 Mg 0.66326 0.88174 0.26002 0.0
O69 O 0.69987 0.85128 0.27425 0.0
Mg70 Mg 0.64511 0.78603 0.27759 0.0
Mg71 Mg 0.733 0.86974 0.33331 0.0
C72 C 0.67078 0.95067 0.36162 0.0
O73 O 0.72915 0.94978 0.25308 0.0
O74 O 0.54564 0.89882 0.18219 0.0
O75 O 0.76925 0.94187 0.31566 0.0
O76 O 0.6531 0.95677 0.14644 0.0
O77 O 0.5567 0.9423 0.24977 0.0
O78 O 0.66823 0.00675 0.20854 0.0
O79 O 0.59732 0.81215 0.26738 0.0
O80 O 0.55747 0.81238 0.20219 0.0
C81 C 0.56263 0.79149 0.23864 0.0
C82 C 0.5318 0.91807 0.21359 0.0
O83 O 0.67127 0.91455 0.34486 0.0
O84 O 0.69721 0.76297 0.29008 0.0
O85 O 0.65549 0.97159 0.3352 0.0
O86 O 0.63306 0.78773 0.36081 0.0
O87 O 0.75608 0.8206 0.33134 0.0
O88 O 0.68658 0.85385 0.39266 0.0
O89 O 0.66252 0.8595 0.17488 0.0
O90 O 0.65428 0.79032 0.19342 0.0
C91 C 0.6725 -0.00226 0.16379 0.0
C92 C 0.76313 0.96623 0.28324 0.0
C93 C 0.7614 0.5662 0.72995 0.0
C94 C 0.60161 0.5317 0.70863 0.0
C95 C 0.65998 0.67425 0.66531 0.0
Mg96 Mg 0.84793 0.64916 0.77144 0.0
Mg97 Mg 0.84855 0.73301 0.83187 0.0
O98 O 0.8353 0.70265 0.77113 0.0
Mg99 Mg 0.76839 0.66493 0.75687 0.0
O100 O 0.70421 0.62202 0.74061 0.0
Mg101 Mg 0.70963 0.60803 0.66933 0.0
Mg102 Mg 0.65263 0.62474 0.76108 0.0
C103 C 0.7814 0.7636 0.78541 0.0
O104 O 0.74375 0.66959 0.84259 0.0
O105 O 0.92234 0.70266 0.78541 0.0
O106 O 0.67025 0.6519 0.83477 0.0
O107 O 0.83536 0.63397 0.85444 0.0
O108 O 0.92105 0.75859 0.83021 0.0
O109 O 0.81941 0.68413 0.88921 0.0
O110 O 0.78964 0.66731 0.67111 0.0
O111 O 0.85236 0.66157 0.68797 0.0
C112 C 0.82632 0.66637 0.65673 0.0
C113 C 0.94246 0.74059 0.8092 0.0
O114 O 0.76408 0.73051 0.75391 0.0
O115 O 0.63474 0.54688 0.67725 0.0
O116 O 0.81192 0.76888 0.81737 0.0
O117 O 0.68161 0.65569 0.6461 0.0
O118 O 0.60178 0.55549 0.74574 0.0
O119 O 0.64708 0.66855 0.71021 0.0
O120 O 0.77443 0.59985 0.7602 0.0
O121 O 0.7346 0.56109 0.69425 0.0
C122 C 0.82078 0.6472 0.89091 0.0
C123 C 0.70684 0.6675 0.86059 0.0
C124 C 0.16541 0.8356 0.16207 0.0
C125 C 0.20677 0.95613 0.30743 0.0
C126 C 0.1636 0.83332 0.39666 0.0
Mg127 Mg 0.10167 0.71971 0.17536 0.0
Mg128 Mg 0.02399 0.66467 0.26389 0.0
O129 O 0.07949 0.71542 0.24521 0.0
Mg130 Mg 0.10262 0.78028 0.26013 0.0
O131 O 0.13411 0.84783 0.27248 0.0
Mg132 Mg 0.19867 0.85696 0.27896 0.0
Mg133 Mg 0.11533 0.86646 0.32803 0.0
C134 C 0.03306 0.72036 0.36171 0.0
O135 O 0.0349 0.77918 0.251 0.0
O136 O 0.08423 0.64373 0.18463 0.0
O137 O 0.04378 0.83133 0.3093 0.0
O138 O 0.02775 0.69511 0.14763 0.0
O139 O 0.04085 0.61221 0.25224 0.0
O140 O 0.97785 0.66069 0.20969 0.0
O141 O 0.17138 0.78267 0.26974 0.0
O142 O 0.17135 0.74165 0.2053 0.0
C143 C 0.19206 0.76811 0.24167 0.0
C144 C 0.06478 0.61089 0.21617 0.0
O145 O 0.06896 0.75694 0.34469 0.0
O146 O 0.22377 0.93294 0.28905 0.0
O147 O 0.01256 0.68364 0.33591 0.0
O148 O 0.19438 0.84465 0.36343 0.0
O149 O 0.1659 0.938 0.32449 0.0
O150 O 0.12832 0.83683 0.38961 0.0
O151 O 0.12606 0.80061 0.17544 0.0
O152 O 0.19576 0.86068 0.19435 0.0
C153 C 0.98686 0.67421 0.16506 0.0
C154 C 0.01904 0.79906 0.27869 0.0
C155 C 0.41543 0.19052 0.72893 0.0
C156 C 0.45112 0.06743 0.7045 0.0
C157 C 0.30493 0.98 0.67033 0.0
Mg158 Mg 0.33395 0.19461 0.77462 0.0
Mg159 Mg 0.2528 0.11137 0.83785 0.0
O160 O 0.28074 0.1284 0.77578 0.0
Mg161 Mg 0.31825 0.09948 0.75922 0.0
O162 O 0.36075 0.07835 0.74084 0.0
Mg163 Mg 0.37092 0.096 0.66918 0.0
Mg164 Mg 0.36163 0.02586 0.7618 0.0
C165 C 0.22186 0.01358 0.79071 0.0
O166 O 0.31636 0.07083 0.84455 0.0
O167 O 0.28029 0.21493 0.79133 0.0
O168 O 0.33567 0.01619 0.83602 0.0
O169 O 0.35188 0.1981 0.85686 0.0
O170 O 0.22636 0.15779 0.83782 0.0
O171 O 0.30366 0.13247 0.89342 0.0
O172 O 0.31285 0.11785 0.67407 0.0
O173 O 0.3193 0.18653 0.69153 0.0
C174 C 0.31375 0.15554 0.66001 0.0
C175 C 0.24318 0.19697 0.81651 0.0
O176 O 0.25332 0.02976 0.75753 0.0
O177 O 0.43309 0.08256 0.67305 0.0
O178 O 0.21747 0.03844 0.82402 0.0
O179 O 0.31922 0.01935 0.6501 0.0
O180 O 0.43015 0.04591 0.74369 0.0
O181 O 0.31793 0.97483 0.71274 0.0
O182 O 0.38307 0.17031 0.76062 0.0
O183 O 0.41921 0.16848 0.6925 0.0
C184 C 0.34027 0.17101 0.89379 0.0
C185 C 0.31948 0.03648 0.86223 0.0
H186 H 0.14794 0.41654 0.30915 0.0
H187 H 0.11265 0.59438 0.14518 0.0
H188 H 0.228 0.48824 0.18049 0.0
H189 H 0.04655 0.54534 0.28694 0.0
H190 H 0.14659 0.54581 0.15322 0.0
H191 H 0.10478 0.45705 0.29968 0.0
C192 C 0.15656 0.44068 0.2791 0.0
C193 C 0.19121 0.44823 0.24514 0.0
C194 C 0.12439 0.54536 0.18248 0.0
C195 C 0.14197 0.49431 0.23398 0.0
C196 C 0.10466 0.57288 0.17769 0.0
C197 C 0.07719 0.57452 0.21573 0.0
C198 C 0.11683 0.51931 0.2257 0.0
C199 C 0.0678 0.54546 0.25681 0.0
C200 C 0.13185 0.46371 0.27366 0.0
C201 C 0.20138 0.4807 0.20745 0.0
N202 N 0.08806 0.5194 0.26102 0.0
N203 N 0.17674 0.50214 0.20277 0.0
H204 H 0.51326 0.12529 0.63577 0.0
H205 H 0.72815 0.16164 0.79633 0.0
H206 H 0.50192 0.04485 0.76514 0.0
H207 H 0.73949 0.23029 0.65758 0.0
H208 H 0.64508 0.11828 0.78566 0.0
H209 H 0.59645 0.16173 0.64114 0.0
C210 C 0.52812 0.1146 0.66473 0.0
C211 C 0.5004 0.08228 0.70037 0.0
C212 C 0.66586 0.14278 0.75752 0.0
C213 C 0.59575 0.12468 0.7074 0.0
C214 C 0.71334 0.16766 0.7637 0.0
C215 C 0.74113 0.19936 0.72764 0.0
C216 C 0.64598 0.14993 0.71515 0.0
C217 C 0.71968 0.20619 0.68645 0.0
C218 C 0.57571 0.13573 0.66804 0.0
C219 C 0.52181 0.06991 0.73708 0.0
N220 N 0.67352 0.18166 0.68133 0.0
N221 N 0.56817 0.09152 0.74 0.0
H222 H 0.43804 0.49794 0.28767 0.0
H223 H 0.4947 0.73859 0.17384 0.0
H224 H 0.38607 0.51551 0.14803 0.0
H225 H 0.56457 0.72833 0.30317 0.0
H226 H 0.45389 0.65615 0.16641 0.0
H227 H 0.48665 0.58121 0.29409 0.0
C228 C 0.43743 0.51914 0.25789 0.0
C229 C 0.4074 0.49962 0.21749 0.0
C230 C 0.47822 0.67173 0.19641 0.0
C231 C 0.46231 0.59478 0.22521 0.0
C232 C 0.50148 0.71908 0.20101 0.0
C233 C 0.53391 0.74086 0.23887 0.0
C234 C 0.48686 0.64534 0.2301 0.0
C235 C 0.54053 0.71323 0.27298 0.0
C236 C 0.46498 0.5667 0.26183 0.0
C237 C 0.40819 0.52887 0.18012 0.0
N238 N 0.51725 0.66677 0.26773 0.0
N239 N 0.43476 0.57491 0.18518 0.0
H240 H 0.94246 0.45488 0.76862 0.0
H241 H 0.74824 0.5007 0.6621 0.0
H242 H 0.85804 0.38512 0.64162 0.0
H243 H 0.8279 0.56859 0.79249 0.0
H244 H 0.79109 0.46112 0.65248 0.0
H245 H 0.90625 0.50191 0.77384 0.0
C246 C 0.9169 0.44992 0.74123 0.0
C247 C 0.90295 0.41548 0.70489 0.0
C248 C 0.79937 0.48471 0.68321 0.0
C249 C 0.86089 0.46894 0.71132 0.0
C250 C 0.77466 0.50729 0.68903 0.0
C251 C 0.78466 0.53868 0.72803 0.0
C252 C 0.83448 0.49312 0.71668 0.0
C253 C 0.81928 0.54529 0.76157 0.0
C254 C 0.89602 0.47665 0.74454 0.0
C255 C 0.86983 0.41099 0.67039 0.0
N256 N 0.84305 0.52277 0.75506 0.0
N257 N 0.84962 0.43704 0.67481 0.0
H258 H 0.25454 0.83266 0.30716 0.0
H259 H 0.46773 0.86879 0.14274 0.0
H260 H 0.24559 0.75503 0.17578 0.0
H261 H 0.48397 0.93648 0.28359 0.0
H262 H 0.38518 0.83432 0.15048 0.0
H263 H 0.33807 0.87578 0.29759 0.0
C264 C 0.26992 0.82457 0.27648 0.0
C265 C 0.24269 0.79057 0.24187 0.0
C266 C 0.40676 0.85699 0.17959 0.0
C267 C 0.33793 0.83976 0.23062 0.0
C268 C 0.45403 0.87701 0.17497 0.0
C269 C 0.48293 0.90513 0.21285 0.0
C270 C 0.38806 0.8649 0.22248 0.0
C271 C 0.46302 0.91476 0.25359 0.0
C272 C 0.31759 0.84926 0.27098 0.0
C273 C 0.2648 0.78107 0.20333 0.0
N274 N 0.41673 0.89422 0.25763 0.0
N275 N 0.31088 0.80566 0.19866 0.0
H276 H 0.47554 0.24284 0.65696 0.0
H277 H 0.5322 0.48295 0.77495 0.0
H278 H 0.41741 0.25426 0.79527 0.0
H279 H 0.59085 0.46795 0.63873 0.0
H280 H 0.48459 0.39968 0.77979 0.0
H281 H 0.51484 0.32539 0.6485 0.0
C282 C 0.4711 0.26264 0.68587 0.0
C283 C 0.44266 0.24121 0.72688 0.0
C284 C 0.50754 0.41469 0.74861 0.0
C285 C 0.48779 0.33661 0.71694 0.0
C286 C 0.53455 0.46229 0.74555 0.0
C287 C 0.5661 0.48262 0.70662 0.0
C288 C 0.51209 0.38722 0.7125 0.0
C289 C 0.56741 0.45396 0.66965 0.0
C290 C 0.49348 0.30999 0.68075 0.0
C291 C 0.43853 0.26908 0.76287 0.0
N292 N 0.54117 0.40776 0.67379 0.0
N293 N 0.46083 0.31542 0.75704 0.0
H294 H 0.23365 0.2002 0.20635 0.0
H295 H 0.23297 0.01522 0.38437 0.0
H296 H 0.18749 0.17062 0.35812 0.0
H297 H 0.2403 0.00865 0.22541 0.0
H298 H 0.25547 0.09604 0.37802 0.0
H299 H 0.26785 0.15077 0.21565 0.0
C300 C 0.23098 0.18356 0.24151 0.0
C301 C 0.20632 0.1879 0.28097 0.0
C302 C 0.2534 0.07734 0.34449 0.0
C303 C 0.24692 0.13422 0.29254 0.0
C304 C 0.24064 0.03142 0.34826 0.0
C305 C 0.23363 0.00576 0.30524 0.0
C306 C 0.25633 0.09633 0.29733 0.0
C307 C 0.24459 0.02778 0.25921 0.0
C308 C 0.25096 0.1561 0.24699 0.0
C309 C 0.20488 0.16702 0.32623 0.0
N310 N 0.25391 0.0718 0.25616 0.0
N311 N 0.22465 0.14097 0.33063 0.0
H312 H 0.0326 0.24081 0.72122 0.0
H313 H 0.20049 0.20753 0.89603 0.0
H314 H 0.0092 0.19798 0.87433 0.0
H315 H 0.22688 0.23992 0.74072 0.0
H316 H 0.14326 0.2314 0.89407 0.0
H317 H 0.11387 0.26432 0.73195 0.0
C318 C 0.04465 0.23683 0.75706 0.0
C319 C 0.01405 0.21588 0.79643 0.0
C320 C 0.16199 0.23407 0.86044 0.0
C321 C 0.10607 0.2436 0.80932 0.0
C322 C 0.19453 0.2204 0.86171 0.0
C323 C 0.21696 0.22061 0.81817 0.0
C324 C 0.15056 0.24591 0.81481 0.0
C325 C 0.20929 0.23858 0.77479 0.0
C326 C 0.0909 0.25056 0.7633 0.0
C327 C 0.03129 0.21258 0.84249 0.0
N328 N 0.17549 0.24927 0.77373 0.0
N329 N 0.07598 0.22584 0.84747 0.0
H330 H 0.97033 0.21256 0.38836 0.0
H331 H 0.78067 0.03166 0.21219 0.0
H332 H 0.97279 0.22732 0.22965 0.0
H333 H 0.80886 0.01403 0.3642 0.0
H334 H 0.83125 0.11497 0.22183 0.0
H335 H 0.88896 0.15584 0.38395 0.0
C336 C 0.95315 0.20446 0.35275 0.0
C337 C 0.97772 0.22286 0.30915 0.0
C338 C 0.82536 0.09264 0.25318 0.0
C339 C 0.88644 0.15686 0.30333 0.0
C340 C 0.79719 0.04532 0.24752 0.0
C341 C 0.79211 0.01604 0.28691 0.0
C342 C 0.84745 0.11015 0.29876 0.0
C343 C 0.81294 0.03519 0.33236 0.0
C344 C 0.90692 0.17226 0.35008 0.0
C345 C 0.9545 0.21257 0.26384 0.0
N346 N 0.83986 0.08093 0.33687 0.0
N347 N 0.91009 0.17874 0.26175 0.0
H348 H 0.76246 0.98392 0.89237 0.0
H349 H 0.73949 0.78846 0.71388 0.0
H350 H 0.73908 0.98314 0.73523 0.0
H351 H 0.7779 0.80616 0.86837 0.0
H352 H 0.71383 0.84482 0.72416 0.0
H353 H 0.73836 0.90272 0.88818 0.0
C354 C 0.75139 0.96617 0.85716 0.0
C355 C 0.75385 0.98989 0.81387 0.0
C356 C 0.72701 0.83543 0.7559 0.0
C357 C 0.72863 0.89822 0.80806 0.0
C358 C 0.74191 0.8037 0.74994 0.0
C359 C 0.76213 0.79395 0.78995 0.0
C360 C 0.73205 0.85659 0.80229 0.0
C361 C 0.76368 0.8136 0.83618 0.0
C362 C 0.73765 0.91993 0.8546 0.0
C363 C 0.73828 0.96568 0.7692 0.0
N364 N 0.74926 0.84419 0.84091 0.0
N365 N 0.72764 0.92118 0.76703 0.0
H366 H 0.7741 0.76115 0.3895 0.0
H367 H 0.95203 0.75044 0.20888 0.0
H368 H 0.75376 0.74344 0.23156 0.0
H369 H 0.97323 0.79876 0.36021 0.0
H370 H 0.86902 0.71877 0.22035 0.0
H371 H 0.83293 0.73944 0.38359 0.0
C372 C 0.7815 0.7516 0.35376 0.0
C373 C 0.76066 0.75529 0.31075 0.0
C374 C 0.89208 0.73564 0.25109 0.0
C375 C 0.82905 0.73324 0.30312 0.0
C376 C 0.9392 0.75412 0.24439 0.0
C377 C 0.96938 0.77873 0.28306 0.0
C378 C 0.87573 0.7412 0.29704 0.0
C379 C 0.95134 0.78144 0.32884 0.0
C380 C 0.81495 0.73926 0.35023 0.0
C381 C 0.77022 0.74174 0.26531 0.0
N382 N 0.90584 0.7632 0.33439 0.0
N383 N 0.80515 0.73278 0.26227 0.0
H384 H 0.18988 0.96583 0.87518 0.0
H385 H 0.00124 0.74991 0.73496 0.0
H386 H 0.18912 0.9486 0.71674 0.0
H387 H -0.00374 0.78765 0.88668 0.0
H388 H 0.08345 0.80599 0.73293 0.0
H389 H 0.13572 0.88501 0.88411 0.0
C390 C 0.17846 0.94481 0.8422 0.0
C391 C 0.19261 0.96396 0.79506 0.0
C392 C 0.06455 0.80097 0.76702 0.0
C393 C 0.12905 0.87165 0.80475 0.0
C394 C 0.01786 0.76917 0.76819 0.0
C395 C -0.0077 0.76572 0.81058 0.0
C396 C 0.08513 0.82871 0.8087 0.0
C397 C 0.01488 0.79062 0.85289 0.0
C398 C 0.14764 0.89856 0.8473 0.0
C399 C 0.17776 0.93505 0.75361 0.0
N400 N 0.06004 0.82159 0.85066 0.0
N401 N 0.14543 0.89023 0.75925 0.0
H402 H 0.33692 0.33756 0.07068 0.0
H403 H 0.32251 0.12591 0.98262 0.0
H404 H 0.32425 0.23976 0.18166 0.0
H405 H 0.41466 0.2552 0.91303 0.0
H406 H 0.33682 0.16497 0.06199 0.0
H407 H 0.37307 0.30802 1.0155 0.0
C408 C 0.34127 0.30939 0.08306 0.0
C409 C 0.32645 0.28998 0.1299 0.0
C410 C 0.35545 0.18453 0.02974 0.0
C411 C 0.36872 0.25674 0.06773 0.0
C412 C 0.34712 0.16226 0.98428 0.0
C413 C 0.36469 0.18819 0.94092 0.0
C414 C 0.38057 0.23255 0.03071 0.0
C415 C 0.39814 0.23451 0.9454 0.0
C416 C 0.36302 0.29335 0.05219 0.0
C417 C 0.33435 0.25471 0.14512 0.0
N418 N 0.40369 0.25583 0.9895 0.0
N419 N 0.35412 0.23833 0.11353 0.0
H420 H 0.08164 0.39956 0.66873 0.0
H421 H 0.15283 0.40266 0.43447 0.0
H422 H 0.01653 0.25917 0.61865 0.0
H423 H 0.17451 0.29153 0.47775 0.0
H424 H 0.1432 0.41542 0.52138 0.0
H425 H 0.14827 0.4174 0.61656 0.0
C426 C 0.0819 0.37241 0.6474 0.0
C427 C 0.04341 0.32822 0.64618 0.0
C428 C 0.15225 0.38965 0.51201 0.0
C429 C 0.11913 0.34786 0.58913 0.0
C430 C 0.15715 0.38198 0.46231 0.0
C431 C 0.16134 0.34404 0.44898 0.0
C432 C 0.15019 0.35824 0.54749 0.0
C433 C 0.16858 0.31951 0.48647 0.0
C434 C 0.11987 0.38256 0.61832 0.0
C435 C 0.04517 0.29392 0.619 0.0
N436 N 0.16065 0.32566 0.53422 0.0
N437 N 0.0825 0.3046 0.59108 0.0
H438 H 0.64467 6e-05 0.0709 0.0
H439 H 0.85612 0.19205 0.98157 0.0
H440 H 0.74436 0.08359 0.18134 0.0
H441 H 0.72711 0.15842 0.91365 0.0
H442 H 0.81829 0.1702 0.06164 0.0
H443 H 0.67396 0.06615 1.01659 0.0
C444 C 0.67323 0.03234 0.08332 0.0
C445 C 0.69331 0.03633 0.12966 0.0
C446 C 0.79859 0.16948 0.02959 0.0
C447 C 0.72635 0.11235 0.06847 0.0
C448 C 0.82013 0.18167 0.98372 0.0
C449 C 0.79369 0.17326 0.94072 0.0
C450 C 0.75072 0.14812 0.03134 0.0
C451 C 0.74802 0.1624 0.94578 0.0
C452 C 0.68913 0.07039 0.05298 0.0
C453 C 0.72897 0.07922 0.14508 0.0
N454 N 0.72729 0.14824 0.99034 0.0
N455 N 0.74529 0.1156 0.1139 0.0
H456 H 0.62235 0.64554 0.57538 0.0
H457 H 0.67594 0.86485 0.48335 0.0
H458 H 0.65428 0.75077 0.68482 0.0
H459 H 0.56524 0.7425 0.4179 0.0
H460 H 0.65366 0.82928 0.56448 0.0
H461 H 0.59007 0.68041 0.52245 0.0
C462 C 0.62287 0.67639 0.58787 0.0
C463 C 0.64257 0.69667 0.63316 0.0
C464 C 0.63294 0.81089 0.53268 0.0
C465 C 0.60528 0.73651 0.5735 0.0
C466 C 0.64598 0.83103 0.48619 0.0
C467 C 0.62463 0.80486 0.4438 0.0
C468 C 0.59952 0.76437 0.53569 0.0
C469 C 0.58456 0.76249 0.44966 0.0
C470 C 0.60338 0.69565 0.55838 0.0
C471 C 0.64067 0.73533 0.64908 0.0
N472 N 0.5741 0.74264 0.49492 0.0
N473 N 0.62357 0.75505 0.61845 0.0
H474 H 0.79145 0.66631 0.97764 0.0
H475 H 0.90115 0.65841 0.18694 0.0
H476 H 0.83194 0.57433 0.91371 0.0
H477 H 0.98369 0.65168 0.06847 0.0
H478 H 0.83474 0.62579 0.13098 0.0
H479 H 0.81318 0.6527 0.05889 0.0
C480 C 0.80324 0.64182 0.98094 0.0
C481 C 0.81319 0.62395 0.93877 0.0
C482 C 0.8674 0.63131 0.11764 0.0
C483 C 0.83768 0.60824 0.03098 0.0
C484 C 0.90524 0.65035 0.14907 0.0
C485 C 0.94803 0.65897 0.13147 0.0
C486 C 0.87269 0.62026 0.06894 0.0
C487 C 0.95162 0.64695 0.08284 0.0
C488 C 0.81523 0.63369 0.02754 0.0
C489 C 0.82629 0.59086 0.9452 0.0
N490 N 0.91433 0.62815 0.05322 0.0
N491 N 0.84009 0.58545 0.99049 0.0
H492 H 0.31466 0.90597 0.65619 0.0
H493 H 0.10463 0.80599 0.47506 0.0
H494 H 0.2249 0.9597 0.62586 0.0
H495 H 0.23894 0.8317 0.43252 0.0
H496 H 0.12824 0.81622 0.56151 0.0
H497 H 0.26608 0.83892 0.60418 0.0
C498 C 0.28412 0.90297 0.63932 0.0
C499 C 0.27406 0.93851 0.64342 0.0
C500 C 0.15172 0.81747 0.53329 0.0
C501 C 0.21797 0.86186 0.58734 0.0
C502 C 0.1386 0.81224 0.48391 0.0
C503 C 0.17115 0.82138 0.44667 0.0
C504 C 0.19737 0.83188 0.54478 0.0
C505 C 0.2137 0.82692 0.46022 0.0
C506 C 0.25636 0.86468 0.61054 0.0
C507 C 0.23417 0.93336 0.622 0.0
N508 N 0.22627 0.8336 0.50855 0.0
N509 N 0.20756 0.89569 0.59436 0.0
H510 H 0.63209 0.64102 0.91932 0.0
H511 H 0.73957 0.85777 0.10619 0.0
H512 H 0.7756 0.74192 0.91503 0.0
H513 H 0.59794 0.75232 0.10184 0.0
H514 H 0.75498 0.82038 0.03562 0.0
H515 H 0.62158 0.68242 0.98711 0.0
C516 C 0.66186 0.67164 0.93308 0.0
C517 C 0.7049 0.68764 0.91041 0.0
C518 C 0.72032 0.80598 0.04932 0.0
C519 C 0.69251 0.73713 0.98932 0.0
C520 C 0.71126 0.82797 0.08908 0.0
C521 C 0.66684 0.80946 0.10917 0.0
C522 C 0.68486 0.76452 0.02957 0.0
C523 C 0.63233 0.76904 0.08686 0.0
C524 C 0.65561 0.69576 0.97189 0.0
C525 C 0.74174 0.72784 0.93086 0.0
N526 N 0.64203 0.74821 0.04894 0.0
N527 N 0.73466 0.75133 0.96857 0.0
H528 H 0.02865 0.79032 0.41514 0.0
H529 H 0.82321 0.60506 0.58887 0.0
H530 H 0.97987 0.64523 0.41825 0.0
H531 H 0.87922 0.74984 0.61051 0.0
H532 H 0.87599 0.6212 0.51957 0.0
H533 H 0.97399 0.77932 0.48253 0.0
C534 C 0.0074 0.75641 0.43044 0.0
C535 C 0.00937 0.71876 0.41025 0.0
C536 C 0.87629 0.64971 0.53849 0.0
C537 C 0.94529 0.70555 0.48695 0.0
C538 C 0.84517 0.64034 0.57761 0.0
C539 C 0.84488 0.67591 0.60466 0.0
C540 C 0.90871 0.69533 0.52601 0.0
C541 C 0.87656 0.72113 0.58965 0.0
C542 C 0.97563 0.75 0.46865 0.0
C543 C 0.98 0.67556 0.43181 0.0
N544 N 0.90709 0.72952 0.55178 0.0
N545 N 0.94949 0.67028 0.46803 0.0
H546 H 0.2528 0.04015 0.92263 0.0
H547 H 0.22474 0.83145 0.09657 0.0
H548 H 0.33675 0.97712 0.91423 0.0
H549 H 0.13782 0.89 0.11382 0.0
H550 H 0.26261 0.88291 0.02656 0.0
H551 H 0.20997 0.98779 0.99171 0.0
C552 C 0.26309 0.01628 0.9357 0.0
C553 C 0.29876 0.0135 0.91155 0.0
C554 C 0.23458 0.88408 0.04469 0.0
C555 C 0.24871 0.95212 0.9906 0.0
C556 C 0.21219 0.85378 0.08428 0.0
C557 C 0.17636 0.85449 0.11017 0.0
C558 C 0.22222 0.91682 0.03076 0.0
C559 C 0.1638 0.88657 0.09387 0.0
C560 C 0.23805 0.98576 0.9749 0.0
C561 C 0.30951 0.9809 0.9306 0.0
N562 N 0.18664 0.91636 0.05568 0.0
N563 N 0.28474 0.95182 0.96807 0.0
H564 H 0.23179 0.11894 0.60816 0.0
H565 H 0.33714 0.3351 0.42172 0.0
H566 H 0.37434 0.22076 0.59736 0.0
H567 H 0.19456 0.23175 0.41437 0.0
H568 H 0.34821 0.29312 0.48827 0.0
H569 H 0.21535 0.1557 0.53792 0.0
C570 C 0.26 0.1477 0.58965 0.0
C571 C 0.305 0.16536 0.60785 0.0
C572 C 0.31426 0.27935 0.47266 0.0
C573 C 0.28588 0.2098 0.52873 0.0
C574 C 0.30768 0.30378 0.43457 0.0
C575 C 0.26472 0.28741 0.41152 0.0
C576 C 0.27778 0.23728 0.48905 0.0
C577 C 0.22829 0.24623 0.43067 0.0
C578 C 0.2504 0.16936 0.55007 0.0
C579 C 0.33945 0.2046 0.58384 0.0
N580 N 0.23567 0.22254 0.46784 0.0
N581 N 0.32922 0.22527 0.54627 0.0
H582 H 0.14369 0.38913 0.10345 0.0
H583 H 0.94749 0.20612 0.91868 0.0
H584 H 0.099 0.24531 0.11049 0.0
H585 H -0.00373 0.3512 0.9218 0.0
H586 H 0.00065 0.21692 0.98752 0.0
H587 H 0.09183 0.37429 0.03356 0.0
C588 C 0.12434 0.35455 0.08895 0.0
C589 C 0.12762 0.31888 0.11202 0.0
C590 C -0.00066 0.24629 0.97335 0.0
C591 C 0.06478 0.30062 0.03256 0.0
C592 C 0.96842 0.24 0.93427 0.0
C593 C 0.96697 0.27771 0.91356 0.0
C594 C 0.02915 0.29064 0.99236 0.0
C595 C -0.00422 0.32083 0.93571 0.0
C596 C 0.09379 0.34582 0.04941 0.0
C597 C 0.09932 0.2743 0.09283 0.0
N598 N 0.02535 0.32597 0.97303 0.0
N599 N 0.06915 0.26644 0.05468 0.0
H600 H 0.85933 0.10637 0.60974 0.0
H601 H 0.64655 0.00195 0.41852 0.0
H602 H 0.76163 0.15223 0.59557 0.0
H603 H 0.74501 0.95605 0.41632 0.0
H604 H 0.68882 0.05476 0.48527 0.0
H605 H 0.82213 0.0532 0.53944 0.0
C606 C 0.83145 0.10694 0.59047 0.0
C607 C 0.8151 0.13574 0.60775 0.0
C608 C 0.70144 0.03317 0.47075 0.0
C609 C 0.77005 0.07222 0.52851 0.0
C610 C 0.67683 0.00229 0.43252 0.0
C611 C 0.6918 0.97392 0.41078 0.0
C612 C 0.74227 0.03682 0.48865 0.0
C613 C 0.73162 0.97672 0.43151 0.0
C614 C 0.8095 0.07569 0.55085 0.0
C615 C 0.77684 0.13235 0.58278 0.0
N616 N 0.75554 0.00772 0.46877 0.0
N617 N 0.75586 0.10145 0.54517 0.0
loop_
_geom_bond_atom_site_label_1
_geom_bond_atom_site_label_2
_geom_bond_distance
_geom_bond_site_symmetry_2
_ccdc_geom_bond_type
C0 O27 1.312 . S
C0 O28 1.208 . S
C1 O22 1.331 . S
C1 O25 1.244 1_655 S
C2 O24 1.264 . S
C2 O26 1.273 . S
Mg3 O5 1.936 . S
Mg3 O12 2.081 . S
Mg3 O14 2.023 . S
Mg3 O18 2.031 . S
Mg3 O27 2.291 . S
Mg4 O5 1.963 . S
Mg4 O15 1.942 . S
Mg4 O16 1.955 . S
Mg4 O23 1.986 . S
O5 Mg3 1.936 . S
O5 Mg4 1.963 . S
O5 Mg6 1.915 . S
Mg6 O5 1.915 . S
Mg6 O7 1.915 . S
Mg6 O11 2.013 . S
Mg6 O17 2.114 . S
Mg6 O21 2.013 . S
Mg6 O27 2.114 . S
O7 Mg6 1.915 . S
O7 Mg8 1.936 . S
O7 Mg9 1.963 . S
Mg8 O7 1.936 . S
Mg8 O17 2.291 . S
Mg8 O22 2.081 1_455 S
Mg8 O24 2.023 . S
Mg8 O28 2.031 . S
Mg9 O7 1.963 . S
Mg9 O13 1.986 . S
Mg9 O25 1.942 . S
Mg9 O26 1.955 . S
C10 O21 1.191 . S
C10 O23 1.307 . S
O11 Mg6 2.013 . S
O11 C30 1.191 . S
O12 Mg3 2.081 . S
O12 C20 1.331 . S
O13 Mg9 1.986 . S
O13 C30 1.307 . S
O14 Mg3 2.023 . S
O14 C29 1.264 . S
O15 Mg4 1.942 . S
O15 C20 1.244 . S
O16 Mg4 1.955 . S
O16 C29 1.273 . S
O17 Mg6 2.114 . S
O17 Mg8 2.291 . S
O17 C19 1.312 . S
O18 Mg3 2.031 . S
O18 C19 1.208 . S
C19 O17 1.312 . S
C19 O18 1.208 . S
C20 O12 1.331 . S
C20 O15 1.244 . S
O21 Mg6 2.013 . S
O21 C10 1.191 . S
O22 C1 1.331 . S
O22 Mg8 2.081 1_655 S
O23 Mg4 1.986 . S
O23 C10 1.307 . S
O24 C2 1.264 . S
O24 Mg8 2.023 . S
O25 C1 1.244 1_455 S
O25 Mg9 1.942 . S
O26 C2 1.273 . S
O26 Mg9 1.955 . S
O27 C0 1.312 . S
O27 Mg3 2.291 . S
O27 Mg6 2.114 . S
O28 C0 1.208 . S
O28 Mg8 2.031 . S
C29 O14 1.264 . S
C29 O16 1.273 . S
C30 O11 1.191 . S
C30 O13 1.307 . S
C31 O58 1.312 . S
C31 O59 1.208 . S
C32 O53 1.331 . S
C32 O56 1.244 . S
C33 O55 1.264 . S
C33 O57 1.273 . S
Mg34 O36 1.936 . S
Mg34 O43 2.081 1_545 S
Mg34 O45 2.023 . S
Mg34 O49 2.031 . S
Mg34 O58 2.291 . S
Mg35 O36 1.963 . S
Mg35 O46 1.942 . S
Mg35 O47 1.955 . S
Mg35 O54 1.986 . S
O36 Mg34 1.936 . S
O36 Mg35 1.963 . S
O36 Mg37 1.915 . S
Mg37 O36 1.915 . S
Mg37 O38 1.915 . S
Mg37 O42 2.013 . S
Mg37 O48 2.114 . S
Mg37 O52 2.013 . S
Mg37 O58 2.114 . S
O38 Mg37 1.915 . S
O38 Mg39 1.936 . S
O38 Mg40 1.963 . S
Mg39 O38 1.936 . S
Mg39 O48 2.291 . S
Mg39 O53 2.081 . S
Mg39 O55 2.023 . S
Mg39 O59 2.031 . S
Mg40 O38 1.963 . S
Mg40 O44 1.986 . S
Mg40 O56 1.942 . S
Mg40 O57 1.955 . S
C41 O52 1.191 . S
C41 O54 1.307 . S
O42 Mg37 2.013 . S
O42 C61 1.191 . S
O43 Mg34 2.081 1_565 S
O43 C51 1.331 . S
O44 Mg40 1.986 . S
O44 C61 1.307 . S
O45 Mg34 2.023 . S
O45 C60 1.264 . S
O46 Mg35 1.942 . S
O46 C51 1.244 1_545 S
O47 Mg35 1.955 . S
O47 C60 1.273 . S
O48 Mg37 2.114 . S
O48 Mg39 2.291 . S
O48 C50 1.312 . S
O49 Mg34 2.031 . S
O49 C50 1.208 . S
C50 O48 1.312 . S
C50 O49 1.208 . S
C51 O43 1.331 . S
C51 O46 1.244 1_565 S
O52 Mg37 2.013 . S
O52 C41 1.191 . S
O53 C32 1.331 . S
O53 Mg39 2.081 . S
O54 Mg35 1.986 . S
O54 C41 1.307 . S
O55 C33 1.264 . S
O55 Mg39 2.023 . S
O56 C32 1.244 . S
O56 Mg40 1.942 . S
O57 C33 1.273 . S
O57 Mg40 1.955 . S
O58 C31 1.312 . S
O58 Mg34 2.291 . S
O58 Mg37 2.114 . S
O59 C31 1.208 . S
O59 Mg39 2.031 . S
C60 O45 1.264 . S
C60 O47 1.273 . S
C61 O42 1.191 . S
C61 O44 1.307 . S
C62 O89 1.312 . S
C62 O90 1.208 . S
C63 O84 1.331 . S
C63 O87 1.244 . S
C64 O86 1.264 . S
C64 O88 1.273 . S
Mg65 O67 1.936 . S
Mg65 O74 2.081 . S
Mg65 O76 2.023 . S
Mg65 O80 2.031 . S
Mg65 O89 2.291 . S
Mg66 O67 1.963 . S
Mg66 O77 1.942 . S
Mg66 O78 1.955 . S
Mg66 O85 1.986 . S
O67 Mg65 1.936 . S
O67 Mg66 1.963 . S
O67 Mg68 1.915 . S
Mg68 O67 1.915 . S
Mg68 O69 1.915 . S
Mg68 O73 2.013 . S
Mg68 O79 2.114 . S
Mg68 O83 2.013 . S
Mg68 O89 2.114 . S
O69 Mg68 1.915 . S
O69 Mg70 1.936 . S
O69 Mg71 1.963 . S
Mg70 O69 1.936 . S
Mg70 O79 2.291 . S
Mg70 O84 2.081 . S
Mg70 O86 2.023 . S
Mg70 O90 2.031 . S
Mg71 O69 1.963 . S
Mg71 O75 1.986 . S
Mg71 O87 1.942 . S
Mg71 O88 1.955 . S
C72 O83 1.191 . S
C72 O85 1.307 . S
O73 Mg68 2.013 . S
O73 C92 1.191 . S
O74 Mg65 2.081 . S
O74 C82 1.331 . S
O75 Mg71 1.986 . S
O75 C92 1.307 . S
O76 Mg65 2.023 . S
O76 C91 1.264 . S
O77 Mg66 1.942 . S
O77 C82 1.244 . S
O78 Mg66 1.955 . S
O78 C91 1.273 . S
O79 Mg68 2.114 . S
O79 Mg70 2.291 . S
O79 C81 1.312 . S
O80 Mg65 2.031 . S
O80 C81 1.208 . S
C81 O79 1.312 . S
C81 O80 1.208 . S
C82 O74 1.331 . S
C82 O77 1.244 . S
O83 Mg68 2.013 . S
O83 C72 1.191 . S
O84 C63 1.331 . S
O84 Mg70 2.081 . S
O85 Mg66 1.986 . S
O85 C72 1.307 . S
O86 C64 1.264 . S
O86 Mg70 2.023 . S
O87 C63 1.244 . S
O87 Mg71 1.942 . S
O88 C64 1.273 . S
O88 Mg71 1.955 . S
O89 C62 1.312 . S
O89 Mg65 2.291 . S
O89 Mg68 2.114 . S
O90 C62 1.208 . S
O90 Mg70 2.031 . S
C91 O76 1.264 . S
C91 O78 1.273 . S
C92 O73 1.191 . S
C92 O75 1.307 . S
C93 O120 1.312 . S
C93 O121 1.208 . S
C94 O115 1.331 . S
C94 O118 1.244 . S
C95 O117 1.264 . S
C95 O119 1.273 . S
Mg96 O98 1.936 . S
Mg96 O105 2.081 1_655 S
Mg96 O107 2.023 . S
Mg96 O111 2.031 . S
Mg96 O120 2.291 . S
Mg97 O98 1.963 . S
Mg97 O108 1.942 . S
Mg97 O109 1.955 . S
Mg97 O116 1.986 . S
O98 Mg96 1.936 . S
O98 Mg97 1.963 . S
O98 Mg99 1.915 . S
Mg99 O98 1.915 . S
Mg99 O100 1.915 . S
Mg99 O104 2.013 . S
Mg99 O110 2.114 . S
Mg99 O114 2.013 . S
Mg99 O120 2.114 . S
O100 Mg99 1.915 . S
O100 Mg101 1.936 . S
O100 Mg102 1.963 . S
Mg101 O100 1.936 . S
Mg101 O110 2.291 . S
Mg101 O115 2.081 . S
Mg101 O117 2.023 . S
Mg101 O121 2.031 . S
Mg102 O100 1.963 . S
Mg102 O106 1.986 . S
Mg102 O118 1.942 . S
Mg102 O119 1.955 . S
C103 O114 1.191 . S
C103 O116 1.307 . S
O104 Mg99 2.013 . S
O104 C123 1.191 . S
O105 Mg96 2.081 1_455 S
O105 C113 1.331 . S
O106 Mg102 1.986 . S
O106 C123 1.307 . S
O107 Mg96 2.023 . S
O107 C122 1.264 . S
O108 Mg97 1.942 . S
O108 C113 1.244 1_655 S
O109 Mg97 1.955 . S
O109 C122 1.273 . S
O110 Mg99 2.114 . S
O110 Mg101 2.291 . S
O110 C112 1.312 . S
O111 Mg96 2.031 . S
O111 C112 1.208 . S
C112 O110 1.312 . S
C112 O111 1.208 . S
C113 O105 1.331 . S
C113 O108 1.244 1_455 S
O114 Mg99 2.013 . S
O114 C103 1.191 . S
O115 C94 1.331 . S
O115 Mg101 2.081 . S
O116 Mg97 1.986 . S
O116 C103 1.307 . S
O117 C95 1.264 . S
O117 Mg101 2.023 . S
O118 C94 1.244 . S
O118 Mg102 1.942 . S
O119 C95 1.273 . S
O119 Mg102 1.955 . S
O120 C93 1.312 . S
O120 Mg96 2.291 . S
O120 Mg99 2.114 . S
O121 C93 1.208 . S
O121 Mg101 2.031 . S
C122 O107 1.264 . S
C122 O109 1.273 . S
C123 O104 1.191 . S
C123 O106 1.307 . S
C124 O151 1.312 . S
C124 O152 1.208 . S
C125 O146 1.331 . S
C125 O149 1.244 1_545 S
C126 O148 1.264 . S
C126 O150 1.273 . S
Mg127 O129 1.936 . S
Mg127 O136 2.081 . S
Mg127 O138 2.023 . S
Mg127 O142 2.031 . S
Mg127 O151 2.291 . S
Mg128 O129 1.963 . S
Mg128 O139 1.942 . S
Mg128 O140 1.955 . S
Mg128 O147 1.986 . S
O129 Mg127 1.936 . S
O129 Mg128 1.963 . S
O129 Mg130 1.915 . S
Mg130 O129 1.915 . S
Mg130 O131 1.915 . S
Mg130 O135 2.013 . S
Mg130 O141 2.114 . S
Mg130 O145 2.013 . S
Mg130 O151 2.114 . S
O131 Mg130 1.915 . S
O131 Mg132 1.936 . S
O131 Mg133 1.963 . S
Mg132 O131 1.936 . S
Mg132 O141 2.291 . S
Mg132 O146 2.081 1_565 S
Mg132 O148 2.023 . S
Mg132 O152 2.031 . S
Mg133 O131 1.963 . S
Mg133 O137 1.986 . S
Mg133 O149 1.942 . S
Mg133 O150 1.955 . S
C134 O145 1.191 . S
C134 O147 1.307 . S
O135 Mg130 2.013 . S
O135 C154 1.191 . S
O136 Mg127 2.081 . S
O136 C144 1.331 . S
O137 Mg133 1.986 . S
O137 C154 1.307 . S
O138 Mg127 2.023 . S
O138 C153 1.264 . S
O139 Mg128 1.942 . S
O139 C144 1.244 . S
O140 Mg128 1.955 . S
O140 C153 1.273 . S
O141 Mg130 2.114 . S
O141 Mg132 2.291 . S
O141 C143 1.312 . S
O142 Mg127 2.031 . S
O142 C143 1.208 . S
C143 O141 1.312 . S
C143 O142 1.208 . S
C144 O136 1.331 . S
C144 O139 1.244 . S
O145 Mg130 2.013 . S
O145 C134 1.191 . S
O146 C125 1.331 . S
O146 Mg132 2.081 1_545 S
O147 Mg128 1.986 . S
O147 C134 1.307 . S
O148 C126 1.264 . S
O148 Mg132 2.023 . S
O149 C125 1.244 1_565 S
O149 Mg133 1.942 . S
O150 C126 1.273 . S
O150 Mg133 1.955 . S
O151 C124 1.312 . S
O151 Mg127 2.291 . S
O151 Mg130 2.114 . S
O152 C124 1.208 . S
O152 Mg132 2.031 . S
C153 O138 1.264 . S
C153 O140 1.273 . S
C154 O135 1.191 . S
C154 O137 1.307 . S
C155 O182 1.312 . S
C155 O183 1.208 . S
C156 O177 1.331 . S
C156 O180 1.244 . S
C157 O179 1.264 . S
C157 O181 1.273 . S
Mg158 O160 1.936 . S
Mg158 O167 2.081 . S
Mg158 O169 2.023 . S
Mg158 O173 2.031 . S
Mg158 O182 2.291 . S
Mg159 O160 1.963 . S
Mg159 O170 1.942 . S
Mg159 O171 1.955 . S
Mg159 O178 1.986 . S
O160 Mg158 1.936 . S
O160 Mg159 1.963 . S
O160 Mg161 1.915 . S
Mg161 O160 1.915 . S
Mg161 O162 1.915 . S
Mg161 O166 2.013 . S
Mg161 O172 2.114 . S
Mg161 O176 2.013 . S
Mg161 O182 2.114 . S
O162 Mg161 1.915 . S
O162 Mg163 1.936 . S
O162 Mg164 1.963 . S
Mg163 O162 1.936 . S
Mg163 O172 2.291 . S
Mg163 O177 2.081 . S
Mg163 O179 2.023 . S
Mg163 O183 2.031 . S
Mg164 O162 1.963 . S
Mg164 O168 1.986 . S
Mg164 O180 1.942 . S
Mg164 O181 1.955 . S
C165 O176 1.191 . S
C165 O178 1.307 . S
O166 Mg161 2.013 . S
O166 C185 1.191 . S
O167 Mg158 2.081 . S
O167 C175 1.331 . S
O168 Mg164 1.986 . S
O168 C185 1.307 . S
O169 Mg158 2.023 . S
O169 C184 1.264 . S
O170 Mg159 1.942 . S
O170 C175 1.244 . S
O171 Mg159 1.955 . S
O171 C184 1.273 . S
O172 Mg161 2.114 . S
O172 Mg163 2.291 . S
O172 C174 1.312 . S
O173 Mg158 2.031 . S
O173 C174 1.208 . S
C174 O172 1.312 . S
C174 O173 1.208 . S
C175 O167 1.331 . S
C175 O170 1.244 . S
O176 Mg161 2.013 . S
O176 C165 1.191 . S
O177 C156 1.331 . S
O177 Mg163 2.081 . S
O178 Mg159 1.986 . S
O178 C165 1.307 . S
O179 C157 1.264 . S
O179 Mg163 2.023 . S
O180 C156 1.244 . S
O180 Mg164 1.942 . S
O181 C157 1.273 . S
O181 Mg164 1.955 . S
O182 C155 1.312 . S
O182 Mg158 2.291 . S
O182 Mg161 2.114 . S
O183 C155 1.208 . S
O183 Mg163 2.031 . S
C184 O169 1.264 . S
C184 O171 1.273 . S
C185 O166 1.191 . S
C185 O168 1.307 . S
H186 C192 0.930 . S
H187 C196 0.930 . S
H188 C201 0.929 . S
H189 C199 0.929 . S
H190 C194 0.929 . S
H191 C200 0.929 . S
C192 H186 0.930 . S
C192 C193 1.367 . S
C192 C200 1.378 . S
C193 C192 1.367 . S
C193 C201 1.433 . S
C194 H190 0.929 . S
C194 C196 1.378 . S
C194 C198 1.350 . S
C195 C198 1.463 . S
C195 C200 1.350 . S
C195 N203 1.427 . S
C196 H187 0.930 . S
C196 C194 1.378 . S
C196 C197 1.367 . S
C197 C196 1.367 . S
C197 C199 1.433 . S
C198 C194 1.350 . S
C198 C195 1.463 . S
C198 N202 1.427 . S
C199 H189 0.929 . S
C199 C197 1.433 . S
C199 N202 1.384 . S
C200 H191 0.929 . S
C200 C192 1.378 . S
C200 C195 1.350 . S
C201 H188 0.929 . S
C201 C193 1.433 . S
C201 N203 1.384 . S
N202 C198 1.427 . S
N202 C199 1.384 . S
N203 C195 1.427 . S
N203 C201 1.384 . S
H204 C210 0.930 . S
H205 C214 0.930 . S
H206 C219 0.929 . S
H207 C217 0.929 . S
H208 C212 0.929 . S
H209 C218 0.929 . S
C210 H204 0.930 . S
C210 C211 1.367 . S
C210 C218 1.378 . S
C211 C210 1.367 . S
C211 C219 1.433 . S
C212 H208 0.929 . S
C212 C214 1.378 . S
C212 C216 1.350 . S
C213 C216 1.463 . S
C213 C218 1.350 . S
C213 N221 1.427 . S
C214 H205 0.930 . S
C214 C212 1.378 . S
C214 C215 1.367 . S
C215 C214 1.367 . S
C215 C217 1.433 . S
C216 C212 1.350 . S
C216 C213 1.463 . S
C216 N220 1.427 . S
C217 H207 0.929 . S
C217 C215 1.433 . S
C217 N220 1.384 . S
C218 H209 0.929 . S
C218 C210 1.378 . S
C218 C213 1.350 . S
C219 H206 0.929 . S
C219 C211 1.433 . S
C219 N221 1.384 . S
N220 C216 1.427 . S
N220 C217 1.384 . S
N221 C213 1.427 . S
N221 C219 1.384 . S
H222 C228 0.930 . S
H223 C232 0.930 . S
H224 C237 0.929 . S
H225 C235 0.929 . S
H226 C230 0.929 . S
H227 C236 0.929 . S
C228 H222 0.930 . S
C228 C229 1.367 . S
C228 C236 1.378 . S
C229 C228 1.367 . S
C229 C237 1.433 . S
C230 H226 0.929 . S
C230 C232 1.378 . S
C230 C234 1.350 . S
C231 C234 1.463 . S
C231 C236 1.350 . S
C231 N239 1.427 . S
C232 H223 0.930 . S
C232 C230 1.378 . S
C232 C233 1.367 . S
C233 C232 1.367 . S
C233 C235 1.433 . S
C234 C230 1.350 . S
C234 C231 1.463 . S
C234 N238 1.427 . S
C235 H225 0.929 . S
C235 C233 1.433 . S
C235 N238 1.384 . S
C236 H227 0.929 . S
C236 C228 1.378 . S
C236 C231 1.350 . S
C237 H224 0.929 . S
C237 C229 1.433 . S
C237 N239 1.384 . S
N238 C234 1.427 . S
N238 C235 1.384 . S
N239 C231 1.427 . S
N239 C237 1.384 . S
H240 C246 0.930 . S
H241 C250 0.930 . S
H242 C255 0.929 . S
H243 C253 0.929 . S
H244 C248 0.929 . S
H245 C254 0.929 . S
C246 H240 0.930 . S
C246 C247 1.367 . S
C246 C254 1.378 . S
C247 C246 1.367 . S
C247 C255 1.433 . S
C248 H244 0.929 . S
C248 C250 1.378 . S
C248 C252 1.350 . S
C249 C252 1.463 . S
C249 C254 1.350 . S
C249 N257 1.427 . S
C250 H241 0.930 . S
C250 C248 1.378 . S
C250 C251 1.367 . S
C251 C250 1.367 . S
C251 C253 1.433 . S
C252 C248 1.350 . S
C252 C249 1.463 . S
C252 N256 1.427 . S
C253 H243 0.929 . S
C253 C251 1.433 . S
C253 N256 1.384 . S
C254 H245 0.929 . S
C254 C246 1.378 . S
C254 C249 1.350 . S
C255 H242 0.929 . S
C255 C247 1.433 . S
C255 N257 1.384 . S
N256 C252 1.427 . S
N256 C253 1.384 . S
N257 C249 1.427 . S
N257 C255 1.384 . S
H258 C264 0.930 . S
H259 C268 0.930 . S
H260 C273 0.929 . S
H261 C271 0.929 . S
H262 C266 0.929 . S
H263 C272 0.929 . S
C264 H258 0.930 . S
C264 C265 1.367 . S
C264 C272 1.378 . S
C265 C264 1.367 . S
C265 C273 1.433 . S
C266 H262 0.929 . S
C266 C268 1.378 . S
C266 C270 1.350 . S
C267 C270 1.463 . S
C267 C272 1.350 . S
C267 N275 1.427 . S
C268 H259 0.930 . S
C268 C266 1.378 . S
C268 C269 1.367 . S
C269 C268 1.367 . S
C269 C271 1.433 . S
C270 C266 1.350 . S
C270 C267 1.463 . S
C270 N274 1.427 . S
C271 H261 0.929 . S
C271 C269 1.433 . S
C271 N274 1.384 . S
C272 H263 0.929 . S
C272 C264 1.378 . S
C272 C267 1.350 . S
C273 H260 0.929 . S
C273 C265 1.433 . S
C273 N275 1.384 . S
N274 C270 1.427 . S
N274 C271 1.384 . S
N275 C267 1.427 . S
N275 C273 1.384 . S
H276 C282 0.930 . S
H277 C286 0.930 . S
H278 C291 0.929 . S
H279 C289 0.929 . S
H280 C284 0.929 . S
H281 C290 0.929 . S
C282 H276 0.930 . S
C282 C283 1.367 . S
C282 C290 1.378 . S
C283 C282 1.367 . S
C283 C291 1.433 . S
C284 H280 0.929 . S
C284 C286 1.378 . S
C284 C288 1.350 . S
C285 C288 1.463 . S
C285 C290 1.350 . S
C285 N293 1.427 . S
C286 H277 0.930 . S
C286 C284 1.378 . S
C286 C287 1.367 . S
C287 C286 1.367 . S
C287 C289 1.433 . S
C288 C284 1.350 . S
C288 C285 1.463 . S
C288 N292 1.427 . S
C289 H279 0.929 . S
C289 C287 1.433 . S
C289 N292 1.384 . S
C290 H281 0.929 . S
C290 C282 1.378 . S
C290 C285 1.350 . S
C291 H278 0.929 . S
C291 C283 1.433 . S
C291 N293 1.384 . S
N292 C288 1.427 . S
N292 C289 1.384 . S
N293 C285 1.427 . S
N293 C291 1.384 . S
H294 C300 0.930 . S
H295 C304 0.930 . S
H296 C309 0.929 . S
H297 C307 0.929 . S
H298 C302 0.929 . S
H299 C308 0.929 . S
C300 H294 0.930 . S
C300 C301 1.367 . S
C300 C308 1.378 . S
C301 C300 1.367 . S
C301 C309 1.433 . S
C302 H298 0.929 . S
C302 C304 1.378 . S
C302 C306 1.350 . S
C303 C306 1.463 . S
C303 C308 1.350 . S
C303 N311 1.427 . S
C304 H295 0.930 . S
C304 C302 1.378 . S
C304 C305 1.367 . S
C305 C304 1.367 . S
C305 C307 1.433 . S
C306 C302 1.350 . S
C306 C303 1.463 . S
C306 N310 1.427 . S
C307 H297 0.929 . S
C307 C305 1.433 . S
C307 N310 1.384 . S
C308 H299 0.929 . S
C308 C300 1.378 . S
C308 C303 1.350 . S
C309 H296 0.929 . S
C309 C301 1.433 . S
C309 N311 1.384 . S
N310 C306 1.427 . S
N310 C307 1.384 . S
N311 C303 1.427 . S
N311 C309 1.384 . S
H312 C318 0.930 . S
H313 C322 0.930 . S
H314 C327 0.929 . S
H315 C325 0.929 . S
H316 C320 0.929 . S
H317 C326 0.929 . S
C318 H312 0.930 . S
C318 C319 1.367 . S
C318 C326 1.378 1_655 S
C319 C318 1.367 . S
C319 C327 1.433 . S
C320 H316 0.929 . S
C320 C322 1.378 . S
C320 C324 1.350 . S
C321 C324 1.463 . S
C321 C326 1.350 . S
C321 N329 1.423 1_455 S
C322 H313 0.930 . S
C322 C320 1.378 . S
C322 C323 1.367 . S
C323 C322 1.367 . S
C323 C325 1.433 . S
C324 C320 1.350 . S
C324 C321 1.463 . S
C324 N328 1.427 . S
C325 H315 0.929 . S
C325 C323 1.433 . S
C325 N328 1.384 . S
C326 H317 0.929 . S
C326 C318 1.378 1_455 S
C326 C321 1.350 . S
C327 H314 0.929 . S
C327 C319 1.433 . S
C327 N329 1.394 . S
N328 C324 1.427 . S
N328 C325 1.384 . S
N329 C321 1.423 1_655 S
N329 C327 1.394 . S
H330 C336 0.930 . S
H331 C340 0.930 . S
H332 C345 0.929 1_455 S
H333 C343 0.929 . S
H334 C338 0.929 . S
H335 C344 0.929 . S
C336 H330 0.930 . S
C336 C337 1.367 . S
C336 C344 1.378 . S
C337 C336 1.367 . S
C337 C345 1.433 . S
C338 H334 0.929 . S
C338 C340 1.378 1_545 S
C338 C342 1.350 . S
C339 C342 1.463 . S
C339 C344 1.350 . S
C339 N347 1.427 . S
C340 H331 0.930 . S
C340 C338 1.378 1_565 S
C340 C341 1.367 . S
C341 C340 1.367 . S
C341 C343 1.433 . S
C342 C338 1.350 . S
C342 C339 1.463 . S
C342 N346 1.427 . S
C343 H333 0.929 . S
C343 C341 1.433 . S
C343 N346 1.384 1_565 S
C344 H335 0.929 . S
C344 C336 1.378 . S
C344 C339 1.350 . S
C345 H332 0.929 1_655 S
C345 C337 1.433 . S
C345 N347 1.384 . S
N346 C342 1.427 . S
N346 C343 1.384 1_545 S
N347 C339 1.427 . S
N347 C345 1.384 . S
H348 C354 0.930 . S
H349 C358 0.930 . S
H350 C363 0.945 . S
H351 C361 0.929 . S
H352 C356 0.929 . S
H353 C362 0.929 . S
C354 H348 0.930 . S
C354 C355 1.367 . S
C354 C362 1.378 . S
C355 C354 1.367 . S
C355 C363 1.433 . S
C356 H352 0.929 . S
C356 C358 1.378 . S
C356 C360 1.350 . S
C357 C360 1.463 . S
C357 C362 1.350 . S
C357 N365 1.427 . S
C358 H349 0.930 . S
C358 C356 1.378 . S
C358 C359 1.367 . S
C359 C358 1.367 . S
C359 C361 1.433 . S
C360 C356 1.350 . S
C360 C357 1.463 . S
C360 N364 1.427 . S
C361 H351 0.929 . S
C361 C359 1.433 . S
C361 N364 1.384 . S
C362 H353 0.929 . S
C362 C354 1.378 . S
C362 C357 1.350 . S
C363 H350 0.945 . S
C363 C355 1.433 . S
C363 N365 1.384 . S
N364 C360 1.427 . S
N364 C361 1.384 . S
N365 C357 1.427 . S
N365 C363 1.384 . S
H366 C372 0.930 . S
H367 C376 0.930 . S
H368 C381 0.929 . S
H369 C379 0.929 . S
H370 C374 0.929 . S
H371 C380 0.929 . S
C372 H366 0.930 . S
C372 C373 1.367 . S
C372 C380 1.378 . S
C373 C372 1.367 . S
C373 C381 1.433 . S
C374 H370 0.929 . S
C374 C376 1.378 1_655 S
C374 C378 1.350 . S
C375 C378 1.463 . S
C375 C380 1.350 . S
C375 N383 1.427 . S
C376 H367 0.930 . S
C376 C374 1.378 1_455 S
C376 C377 1.367 . S
C377 C376 1.367 . S
C377 C379 1.433 . S
C378 C374 1.350 . S
C378 C375 1.463 . S
C378 N382 1.427 . S
C379 H369 0.929 . S
C379 C377 1.433 . S
C379 N382 1.384 1_455 S
C380 H371 0.929 . S
C380 C372 1.378 . S
C380 C375 1.350 . S
C381 H368 0.929 . S
C381 C373 1.433 . S
C381 N383 1.384 . S
N382 C378 1.427 . S
N382 C379 1.384 1_655 S
N383 C375 1.427 . S
N383 C381 1.384 . S
H384 C390 0.930 . S
H385 C394 0.930 1_655 S
H386 C399 0.929 . S
H387 C397 0.929 . S
H388 C392 0.929 . S
H389 C398 0.929 . S
C390 H384 0.930 . S
C390 C391 1.367 . S
C390 C398 1.378 1_545 S
C391 C390 1.367 . S
C391 C399 1.433 . S
C392 H388 0.929 . S
C392 C394 1.378 . S
C392 C396 1.350 . S
C393 C396 1.463 . S
C393 C398 1.350 . S
C393 N401 1.427 1_565 S
C394 H385 0.930 1_455 S
C394 C392 1.378 . S
C394 C395 1.367 . S
C395 C394 1.367 . S
C395 C397 1.433 . S
C396 C392 1.350 . S
C396 C393 1.463 . S
C396 N400 1.427 . S
C397 H387 0.929 . S
C397 C395 1.433 . S
C397 N400 1.384 . S
C398 H389 0.929 . S
C398 C390 1.378 1_565 S
C398 C393 1.350 . S
C399 H386 0.929 . S
C399 C391 1.433 . S
C399 N401 1.384 . S
N400 C396 1.427 . S
N400 C397 1.384 . S
N401 C393 1.427 1_545 S
N401 C399 1.384 . S
H402 C408 0.930 . S
H403 C412 0.930 . S
H404 C417 0.929 . S
H405 C415 0.929 . S
H406 C410 0.929 1_554 S
H407 C416 0.929 1_556 S
C408 H402 0.930 . S
C408 C409 1.367 . S
C408 C416 1.378 . S
C409 C408 1.367 . S
C409 C417 1.433 . S
C410 H406 0.929 1_556 S
C410 C412 1.378 . S
C410 C414 1.350 . S
C411 C414 1.463 1_554 S
C411 C416 1.350 . S
C411 N419 1.427 . S
C412 H403 0.930 . S
C412 C410 1.378 . S
C412 C413 1.367 . S
C413 C412 1.367 . S
C413 C415 1.433 . S
C414 C410 1.350 . S
C414 C411 1.463 1_556 S
C414 N418 1.427 . S
C415 H405 0.929 . S
C415 C413 1.433 . S
C415 N418 1.384 . S
C416 H407 0.929 1_554 S
C416 C408 1.378 . S
C416 C411 1.350 . S
C417 H404 0.929 . S
C417 C409 1.433 . S
C417 N419 1.384 . S
N418 C414 1.427 . S
N418 C415 1.384 . S
N419 C411 1.427 . S
N419 C417 1.384 . S
H420 C426 0.930 . S
H421 C430 0.930 1_655 S
H422 C435 0.929 . S
H423 C433 0.929 . S
H424 C428 0.929 . S
H425 C434 0.929 1_455 S
C426 H420 0.930 . S
C426 C427 1.367 . S
C426 C434 1.378 . S
C427 C426 1.367 . S
C427 C435 1.433 . S
C428 H424 0.929 . S
C428 C430 1.378 1_655 S
C428 C432 1.350 . S
C429 C432 1.463 . S
C429 C434 1.350 . S
C429 N437 1.427 . S
C430 H421 0.930 1_455 S
C430 C428 1.378 1_455 S
C430 C431 1.367 . S
C431 C430 1.367 . S
C431 C433 1.433 . S
C432 C428 1.350 . S
C432 C429 1.463 . S
C432 N436 1.427 1_655 S
C433 H423 0.929 . S
C433 C431 1.433 . S
C433 N436 1.384 . S
C434 H425 0.929 1_655 S
C434 C426 1.378 . S
C434 C429 1.350 . S
C435 H422 0.929 . S
C435 C427 1.433 . S
C435 N437 1.384 . S
N436 C432 1.427 1_455 S
N436 C433 1.384 . S
N437 C429 1.427 . S
N437 C435 1.384 . S
H438 C444 0.930 . S
H439 C448 0.930 . S
H440 C453 0.929 . S
H441 C451 0.929 1_565 S
H442 C446 0.929 1_554 S
H443 C452 0.929 1_556 S
C444 H438 0.930 . S
C444 C445 1.367 . S
C444 C452 1.378 . S
C445 C444 1.367 . S
C445 C453 1.433 . S
C446 H442 0.929 1_556 S
C446 C448 1.378 . S
C446 C450 1.350 1_545 S
C447 C450 1.463 1_554 S
C447 C452 1.350 . S
C447 N455 1.427 . S
C448 H439 0.930 . S
C448 C446 1.378 . S
C448 C449 1.367 . S
C449 C448 1.367 . S
C449 C451 1.433 . S
C450 C446 1.350 1_565 S
C450 C447 1.463 1_556 S
C450 N454 1.427 . S
C451 H441 0.929 1_545 S
C451 C449 1.433 . S
C451 N454 1.384 1_545 S
C452 H443 0.929 1_554 S
C452 C444 1.378 . S
C452 C447 1.350 . S
C453 H440 0.929 . S
C453 C445 1.433 . S
C453 N455 1.384 . S
N454 C450 1.427 . S
N454 C451 1.384 1_565 S
N455 C447 1.427 . S
N455 C453 1.384 . S
H456 C462 0.930 . S
H457 C466 0.930 . S
H458 C471 0.929 . S
H459 C469 0.929 . S
H460 C464 0.929 . S
H461 C470 0.929 . S
C462 H456 0.930 . S
C462 C463 1.367 . S
C462 C470 1.378 . S
C463 C462 1.367 . S
C463 C471 1.433 . S
C464 H460 0.929 . S
C464 C466 1.378 . S
C464 C468 1.350 . S
C465 C468 1.463 . S
C465 C470 1.350 . S
C465 N473 1.427 . S
C466 H457 0.930 . S
C466 C464 1.378 . S
C466 C467 1.367 . S
C467 C466 1.367 . S
C467 C469 1.433 . S
C468 C464 1.350 . S
C468 C465 1.463 . S
C468 N472 1.427 . S
C469 H459 0.929 . S
C469 C467 1.433 . S
C469 N472 1.384 . S
C470 H461 0.929 . S
C470 C462 1.378 . S
C470 C465 1.350 . S
C471 H458 0.929 . S
C471 C463 1.433 . S
C471 N473 1.384 . S
N472 C468 1.427 . S
N472 C469 1.384 . S
N473 C465 1.427 . S
N473 C471 1.384 . S
H474 C480 0.930 . S
H475 C484 0.930 . S
H476 C489 0.929 . S
H477 C487 0.929 . S
H478 C482 0.929 . S
H479 C488 0.928 1_455 S
C480 H474 0.930 . S
C480 C481 1.367 . S
C480 C488 1.380 . S
C481 C480 1.367 . S
C481 C489 1.433 . S
C482 H478 0.929 . S
C482 C484 1.378 . S
C482 C486 1.350 . S
C483 C486 1.463 1_556 S
C483 C488 1.348 1_455 S
C483 N491 1.427 1_455 S
C484 H475 0.930 . S
C484 C482 1.378 . S
C484 C485 1.367 . S
C485 C484 1.367 . S
C485 C487 1.433 . S
C486 C482 1.350 . S
C486 C483 1.463 1_554 S
C486 N490 1.427 . S
C487 H477 0.929 . S
C487 C485 1.433 . S
C487 N490 1.384 . S
C488 H479 0.928 1_655 S
C488 C480 1.380 . S
C488 C483 1.348 1_655 S
C489 H476 0.929 . S
C489 C481 1.433 . S
C489 N491 1.384 . S
N490 C486 1.427 . S
N490 C487 1.384 . S
N491 C483 1.427 1_655 S
N491 C489 1.384 . S
H492 C498 0.930 . S
H493 C502 0.930 . S
H494 C507 0.929 . S
H495 C505 0.929 . S
H496 C500 0.913 1_545 S
H497 C506 0.929 . S
C498 H492 0.930 . S
C498 C499 1.367 . S
C498 C506 1.378 . S
C499 C498 1.367 . S
C499 C507 1.433 . S
C500 H496 0.913 1_565 S
C500 C502 1.387 . S
C500 C504 1.357 1_565 S
C501 C504 1.463 . S
C501 C506 1.350 . S
C501 N509 1.427 . S
C502 H493 0.930 . S
C502 C500 1.387 . S
C502 C503 1.367 . S
C503 C502 1.367 . S
C503 C505 1.433 . S
C504 C500 1.357 1_545 S
C504 C501 1.463 . S
C504 N508 1.427 1_545 S
C505 H495 0.929 . S
C505 C503 1.433 . S
C505 N508 1.384 . S
C506 H497 0.929 . S
C506 C498 1.378 . S
C506 C501 1.350 . S
C507 H494 0.929 . S
C507 C499 1.433 . S
C507 N509 1.384 . S
N508 C504 1.427 1_565 S
N508 C505 1.384 . S
N509 C501 1.427 . S
N509 C507 1.384 . S
H510 C516 0.930 . S
H511 C520 0.930 . S
H512 C525 0.929 . S
H513 C523 0.929 . S
H514 C518 0.929 1_556 S
H515 C524 0.929 1_554 S
C516 H510 0.930 . S
C516 C517 1.367 . S
C516 C524 1.378 . S
C517 C516 1.367 . S
C517 C525 1.433 . S
C518 H514 0.929 1_554 S
C518 C520 1.378 . S
C518 C522 1.350 . S
C519 C522 1.463 1_556 S
C519 C524 1.350 . S
C519 N527 1.427 . S
C520 H511 0.930 . S
C520 C518 1.378 . S
C520 C521 1.367 . S
C521 C520 1.367 . S
C521 C523 1.433 . S
C522 C518 1.350 . S
C522 C519 1.463 1_554 S
C522 N526 1.427 . S
C523 H513 0.929 . S
C523 C521 1.433 . S
C523 N526 1.384 . S
C524 H515 0.929 1_556 S
C524 C516 1.378 . S
C524 C519 1.350 . S
C525 H512 0.929 . S
C525 C517 1.433 . S
C525 N527 1.384 . S
N526 C522 1.427 . S
N526 C523 1.384 . S
N527 C519 1.427 . S
N527 C525 1.384 . S
H528 C534 0.930 . S
H529 C538 0.930 1_455 S
H530 C543 0.929 . S
H531 C541 0.929 . S
H532 C536 0.929 . S
H533 C542 0.929 1_655 S
C534 H528 0.930 . S
C534 C535 1.367 . S
C534 C542 1.378 . S
C535 C534 1.367 . S
C535 C543 1.433 . S
C536 H532 0.929 . S
C536 C538 1.378 1_455 S
C536 C540 1.350 . S
C537 C540 1.463 . S
C537 C542 1.350 . S
C537 N545 1.427 . S
C538 H529 0.930 1_655 S
C538 C536 1.378 1_655 S
C538 C539 1.367 . S
C539 C538 1.367 . S
C539 C541 1.433 . S
C540 C536 1.350 . S
C540 C537 1.463 . S
C540 N544 1.427 1_455 S
C541 H531 0.929 . S
C541 C539 1.433 . S
C541 N544 1.384 . S
C542 H533 0.929 1_455 S
C542 C534 1.378 . S
C542 C537 1.350 . S
C543 H530 0.929 . S
C543 C535 1.433 . S
C543 N545 1.384 . S
N544 C540 1.427 1_655 S
N544 C541 1.384 . S
N545 C537 1.427 . S
N545 C543 1.384 . S
H546 C552 0.930 . S
H547 C556 0.930 . S
H548 C561 0.929 . S
H549 C559 0.929 . S
H550 C554 0.929 1_556 S
H551 C560 0.929 1_554 S
C552 H546 0.930 . S
C552 C553 1.367 . S
C552 C560 1.378 . S
C553 C552 1.367 . S
C553 C561 1.433 . S
C554 H550 0.929 1_554 S
C554 C556 1.378 . S
C554 C558 1.350 1_565 S
C555 C558 1.463 1_556 S
C555 C560 1.350 . S
C555 N563 1.427 . S
C556 H547 0.930 . S
C556 C554 1.378 . S
C556 C557 1.367 . S
C557 C556 1.367 . S
C557 C559 1.433 . S
C558 C554 1.350 1_545 S
C558 C555 1.463 1_554 S
C558 N562 1.427 . S
C559 H549 0.929 . S
C559 C557 1.433 . S
C559 N562 1.384 1_565 S
C560 H551 0.929 1_556 S
C560 C552 1.378 . S
C560 C555 1.350 . S
C561 H548 0.929 . S
C561 C553 1.433 . S
C561 N563 1.384 . S
N562 C558 1.427 . S
N562 C559 1.384 1_545 S
N563 C555 1.427 . S
N563 C561 1.384 . S
H564 C570 0.930 . S
H565 C574 0.930 . S
H566 C579 0.929 . S
H567 C577 0.929 . S
H568 C572 0.929 . S
H569 C578 0.929 . S
C570 H564 0.930 . S
C570 C571 1.367 . S
C570 C578 1.378 . S
C571 C570 1.367 . S
C571 C579 1.433 . S
C572 H568 0.929 . S
C572 C574 1.378 . S
C572 C576 1.350 . S
C573 C576 1.463 . S
C573 C578 1.350 . S
C573 N581 1.427 . S
C574 H565 0.930 . S
C574 C572 1.378 . S
C574 C575 1.367 . S
C575 C574 1.367 . S
C575 C577 1.433 . S
C576 C572 1.350 . S
C576 C573 1.463 . S
C576 N580 1.427 . S
C577 H567 0.929 . S
C577 C575 1.433 . S
C577 N580 1.384 . S
C578 H569 0.929 . S
C578 C570 1.378 . S
C578 C573 1.350 . S
C579 H566 0.929 . S
C579 C571 1.433 . S
C579 N581 1.384 . S
N580 C576 1.427 . S
N580 C577 1.384 . S
N581 C573 1.427 . S
N581 C579 1.384 . S
H582 C588 0.930 1_655 S
H583 C592 0.930 . S
H584 C597 0.929 . S
H585 C595 0.929 . S
H586 C590 0.929 1_455 S
H587 C596 0.929 . S
C588 H582 0.930 1_455 S
C588 C589 1.367 . S
C588 C596 1.378 1_455 S
C589 C588 1.367 . S
C589 C597 1.433 . S
C590 H586 0.929 1_655 S
C590 C592 1.378 . S
C590 C594 1.350 . S
C591 C594 1.463 1_554 S
C591 C596 1.350 . S
C591 N599 1.427 1_655 S
C592 H583 0.930 . S
C592 C590 1.378 . S
C592 C593 1.367 . S
C593 C592 1.367 . S
C593 C595 1.433 . S
C594 C590 1.350 . S
C594 C591 1.463 1_556 S
C594 N598 1.427 . S
C595 H585 0.929 . S
C595 C593 1.433 . S
C595 N598 1.384 . S
C596 H587 0.929 . S
C596 C588 1.378 1_655 S
C596 C591 1.350 . S
C597 H584 0.929 . S
C597 C589 1.433 . S
C597 N599 1.384 . S
N598 C594 1.427 . S
N598 C595 1.384 . S
N599 C591 1.427 1_455 S
N599 C597 1.384 . S
H600 C606 0.930 . S
H601 C610 0.930 . S
H602 C615 0.929 . S
H603 C613 0.929 . S
H604 C608 0.929 . S
H605 C614 0.929 . S
C606 H600 0.930 . S
C606 C607 1.367 . S
C606 C614 1.378 . S
C607 C606 1.367 . S
C607 C615 1.433 . S
C608 H604 0.929 . S
C608 C610 1.378 . S
C608 C612 1.350 . S
C609 C612 1.463 . S
C609 C614 1.350 1_565 S
C609 N617 1.427 . S
C610 H601 0.930 . S
C610 C608 1.378 . S
C610 C611 1.367 . S
C611 C610 1.367 . S
C611 C613 1.433 . S
C612 C608 1.350 . S
C612 C609 1.463 . S
C612 N616 1.427 . S
C613 H603 0.929 . S
C613 C611 1.433 . S
C613 N616 1.384 . S
C614 H605 0.929 . S
C614 C606 1.378 . S
C614 C609 1.350 1_545 S
C615 H602 0.929 . S
C615 C607 1.433 . S
C615 N617 1.384 1_545 S
N616 C612 1.427 . S
N616 C613 1.384 . S
N617 C609 1.427 . S
N617 C615 1.384 1_565 S
C193 C19 1.204 . S
C197 C144 1.275 . S
C211 C156 1.283 . S
C215 C31 1.182 . S
C229 C20 1.279 . S
C233 C81 1.180 . S
C247 C32 1.283 . S
C251 C93 1.182 . S
C265 C143 1.198 . S
C269 C82 1.284 . S
C283 C155 1.183 . S
C287 C94 1.283 . S
C301 C30 1.053 . S
C305 C125 1.061 . S
C319 C41 1.051 . S
C323 C175 1.060 . S
C337 C1 1.069 . S
C341 C92 1.047 . S
C355 C51 1.068 . S
C359 C103 1.049 . S
C373 C63 1.065 . S
C377 C154 1.052 . S
C391 C165 1.042 . S
C395 C113 1.063 . S
C409 C29 1.014 . S
C413 C184 0.988 . S
C427 C33 1.013 . S
C431 C2 0.971 . S
C445 C91 1.015 . S
C449 C60 0.992 . S
C463 C95 1.014 . S
C467 C64 0.988 . S
C481 C122 0.972 . S
C485 C153 1.013 . S
C499 C157 1.013 . S
C503 C126 0.972 . S
C517 C123 2.254 . S
C521 C62 2.289 . S
C535 C134 2.243 . S
C539 C112 2.280 . S
C553 C185 2.251 . S
C557 C124 2.286 . S
C571 C174 2.282 . S
C575 C10 2.245 . S
C589 C0 2.280 . S
C593 C61 2.243 . S
C607 C50 2.288 . S
C611 C72 2.253 . S
