# Generated by pormake.
# Topology rkf, (6)-cn, num edge types: 1
# Building blocks:
#     Node 0, Type 0, BuildingBlock: BETFAJ_clean_sbu_0, # of connection points: 6
#     Node 1, Type 0, BuildingBlock: BETFAJ_clean_sbu_0, # of connection points: 6
#     Node 2, Type 0, BuildingBlock: BETFAJ_clean_sbu_0, # of connection points: 6
#     Node 3, Type 0, BuildingBlock: BETFAJ_clean_sbu_0, # of connection points: 6
#     Node 4, Type 0, BuildingBlock: BETFAJ_clean_sbu_0, # of connection points: 6
#     Node 5, Type 0, BuildingBlock: BETFAJ_clean_sbu_0, # of connection points: 6
#     Edge 6, Type (0, 0), BuildingBlock: FUNLAD_clean_linker_0, # of connection points: 2
#     Edge 7, Type (0, 0), BuildingBlock: FUNLAD_clean_linker_0, # of connection points: 2
#     Edge 8, Type (0, 0), BuildingBlock: FUNLAD_clean_linker_0, # of connection points: 2
#     Edge 9, Type (0, 0), BuildingBlock: FUNLAD_clean_linker_0, # of connection points: 2
#     Edge 10, Type (0, 0), BuildingBlock: FUNLAD_clean_linker_0, # of connection points: 2
#     Edge 11, Type (0, 0), BuildingBlock: FUNLAD_clean_linker_0, # of connection points: 2
#     Edge 12, Type (0, 0), BuildingBlock: FUNLAD_clean_linker_0, # of connection points: 2
#     Edge 13, Type (0, 0), BuildingBlock: FUNLAD_clean_linker_0, # of connection points: 2
#     Edge 14, Type (0, 0), BuildingBlock: FUNLAD_clean_linker_0, # of connection points: 2
#     Edge 15, Type (0, 0), BuildingBlock: FUNLAD_clean_linker_0, # of connection points: 2
#     Edge 16, Type (0, 0), BuildingBlock: FUNLAD_clean_linker_0, # of connection points: 2
#     Edge 17, Type (0, 0), BuildingBlock: FUNLAD_clean_linker_0, # of connection points: 2
#     Edge 18, Type (0, 0), BuildingBlock: FUNLAD_clean_linker_0, # of connection points: 2
#     Edge 19, Type (0, 0), BuildingBlock: FUNLAD_clean_linker_0, # of connection points: 2
#     Edge 20, Type (0, 0), BuildingBlock: FUNLAD_clean_linker_0, # of connection points: 2
#     Edge 21, Type (0, 0), BuildingBlock: FUNLAD_clean_linker_0, # of connection points: 2
#     Edge 22, Type (0, 0), BuildingBlock: FUNLAD_clean_linker_0, # of connection points: 2
#     Edge 23, Type (0, 0), BuildingBlock: FUNLAD_clean_linker_0, # of connection points: 2
# Relax obj value: 0.605
# Max RMSD: 0.247
# Mean RMSD: 0.247
data_MOF--net-rkf--node1-BETFAJ_clean_sbu_0--edge1-FUNLAD_clean_linker_0
_symmetry_space_group_name_H-M    P1
_symmetry_Int_Tables_number       1
_symmetry_cell_setting            triclinic
loop_
_symmetry_equiv_pos_as_xyz
'x, y, z'
_cell_length_a     28.600162
_cell_length_b     28.369066
_cell_length_c     52.821816
_cell_angle_alpha  89.94361
_cell_angle_beta   90.185754
_cell_angle_gamma 119.75385
loop_
_atom_site_label
_atom_site_type_symbol
_atom_site_fract_x
_atom_site_fract_y
_atom_site_fract_z
_atom_type_partial_charge
Sm0 Sm 0.30125 0.0838 0.13549 0.0
Sm1 Sm 0.32927 0.19541 0.11862 0.0
C2 C 0.29467 0.98818 0.14239 0.0
C3 C 0.27738 0.94589 0.16179 0.0
C4 C 0.26592 0.89357 0.15485 0.0
C5 C 0.24644 0.85187 0.17277 0.0
C6 C 0.23827 0.86202 0.19794 0.0
C7 C 0.25032 0.91484 0.20483 0.0
C8 C 0.26959 0.95642 0.18687 0.0
C9 C 0.22274 0.10625 0.14757 0.0
C10 C 0.32407 0.17119 0.18092 0.0
C11 C 0.35163 0.29646 1.11024 0.0
C12 C 0.38337 0.33856 1.09144 0.0
C13 C 0.36255 0.36978 1.08108 0.0
C14 C 0.38956 0.4062 1.06146 0.0
C15 C 0.43814 0.41223 1.05186 0.0
C16 C 0.46017 0.38264 1.06316 0.0
C17 C 0.43287 0.34589 1.08265 0.0
C18 C 0.41093 0.17031 0.11426 0.0
C19 C 0.28691 0.10522 1.07361 0.0
O20 O 0.33829 0.03442 0.14717 0.0
O21 O 0.25631 -0.00586 0.13209 0.0
O22 O 0.24819 0.1211 0.12671 0.0
O23 O 0.23335 0.07356 0.16029 0.0
O24 O 0.32445 0.1256 0.17536 0.0
O25 O 0.32058 0.20116 0.16248 0.0
O26 O 0.30779 0.25417 1.10182 0.0
O27 O 0.37877 0.28361 0.12605 0.0
O28 O 0.37973 0.16 0.13256 0.0
O29 O 0.40091 0.19644 1.09694 0.0
O30 O 0.2945 0.15375 1.07976 0.0
O31 O 0.29264 0.07477 1.09111 0.0
H32 H 0.27148 0.88482 0.13548 0.0
H33 H 0.23783 0.81174 0.16694 0.0
H34 H 0.24357 0.92371 0.22398 0.0
H35 H 0.27762 -0.00347 0.19244 0.0
H36 H 0.32437 0.36459 1.08758 0.0
H37 H 0.3708 0.42746 1.05296 0.0
H38 H 0.49773 0.38671 1.05645 0.0
H39 H 0.4498 0.32218 1.09036 0.0
Sm40 Sm 0.28403 0.31802 0.46369 0.0
Sm41 Sm 0.20967 0.35877 0.44558 0.0
C42 C 0.36804 0.30412 0.47085 0.0
C43 C 0.40046 0.3013 0.49163 0.0
C44 C 0.43335 0.27844 0.4874 0.0
C45 C 0.46338 0.27409 0.50725 0.0
C46 C 0.46095 0.29274 0.53159 0.0
C47 C 0.42839 0.31636 0.53558 0.0
C48 C 0.39828 0.3205 0.51576 0.0
C49 C 0.1785 0.24647 0.47168 0.0
C50 C 0.22755 0.35079 0.5084 0.0
C51 C 0.13417 0.38539 0.43756 0.0
C52 C 0.11619 0.41002 0.41791 0.0
C53 C 0.06715 0.3776 0.4054 0.0
C54 C 0.05015 0.39923 0.3861 0.0
C55 C 0.08157 0.45406 0.37899 0.0
C56 C 0.12969 0.48712 0.39224 0.0
C57 C 0.14687 0.46533 0.41152 0.0
C58 C 0.31776 0.43304 0.44293 0.0
C59 C 0.25268 0.30872 0.40145 0.0
O60 O 0.37212 0.35157 0.46685 0.0
O61 O 0.31855 0.26381 0.46917 0.0
O62 O 0.19623 0.27467 0.45173 0.0
O63 O 0.217 0.25094 0.48641 0.0
O64 O 0.26959 0.34435 0.50343 0.0
O65 O 0.19735 0.35251 0.48961 0.0
O66 O 0.12732 0.33706 0.43275 0.0
O67 O 0.17973 0.41707 0.44909 0.0
O68 O 0.29419 0.40112 0.46097 0.0
O69 O 0.28374 0.42802 0.42536 0.0
O70 O 0.2176 0.32512 0.40659 0.0
O71 O 0.28323 0.3059 0.41969 0.0
H72 H 0.43537 0.26348 0.4688 0.0
H73 H 0.48817 0.25584 0.50361 0.0
H74 H 0.42478 0.33005 0.55423 0.0
H75 H 0.37274 0.33796 0.51933 0.0
H76 H 0.04243 0.33504 0.41016 0.0
H77 H 0.01339 0.37218 0.37605 0.0
H78 H 0.15456 0.52959 0.38742 0.0
H79 H 0.18456 0.49165 0.42108 0.0
Sm80 Sm 0.0734 0.26244 0.79618 0.0
Sm81 Sm 0.96482 0.23704 0.7818 0.0
C82 C 0.17896 0.30986 0.8034 0.0
C83 C 0.21965 0.34454 0.82196 0.0
C84 C 0.20459 0.35795 0.84488 0.0
C85 C 0.24394 0.39121 0.86237 0.0
C86 C 0.29895 0.41164 0.85716 0.0
C87 C 0.31368 0.39861 0.83394 0.0
C88 C 0.27427 0.36532 0.81648 0.0
C89 C 0.0108 0.15809 0.77625 0.0
C90 C -0.01073 0.21474 0.84191 0.0
C91 C 0.85994 0.19455 0.77388 0.0
C92 C 0.82236 0.18111 0.75273 0.0
C93 C 0.84141 0.19328 0.72786 0.0
C94 C 0.80512 0.1766 0.70767 0.0
C95 C 0.74921 0.14743 0.71206 0.0
C96 C 0.73043 0.13701 0.73714 0.0
C97 C 0.76685 0.1538 0.75734 0.0
C98 C 0.03019 0.34452 0.79173 0.0
C99 C 0.05312 0.27992 0.73547 0.0
O100 O 0.15553 0.33244 0.79105 0.0
O101 O 0.14538 0.26003 0.8104 0.0
O102 O 0.01348 0.20108 0.76883 0.0
O103 O 0.04327 0.16933 0.79539 0.0
O104 O 0.04065 0.24703 0.83684 0.0
O105 O 0.95334 0.20052 0.8233 0.0
O106 O 0.88382 0.16553 0.77571 0.0
O107 O 0.89245 0.24618 0.77803 0.0
O108 O 0.02794 0.30691 0.80568 0.0
O109 O -0.00263 0.32575 0.77268 0.0
O110 O 0.0005 0.25171 0.74036 0.0
O111 O 0.08777 0.29385 0.7545 0.0
H112 H 0.16245 0.34231 0.8493 0.0
H113 H 0.23119 0.39972 0.88024 0.0
H114 H 0.35566 0.41405 0.82929 0.0
H115 H 0.28643 0.35563 0.79872 0.0
H116 H 0.88428 0.21424 0.72406 0.0
H117 H 0.82096 0.18436 0.68859 0.0
H118 H 0.68766 0.11489 0.7411 0.0
H119 H 0.75169 0.14433 0.77653 0.0
Sm120 Sm 0.86554 0.06617 0.12672 0.0
Sm121 Sm 0.78593 0.94889 0.11625 0.0
C122 C 0.91277 0.17308 0.13087 0.0
C123 C 0.9372 0.21712 0.14949 0.0
C124 C 0.96771 0.27082 0.14104 0.0
C125 C -0.01403 0.31391 0.15819 0.0
C126 C 0.97355 0.3038 0.18405 0.0
C127 C 0.94419 0.24972 0.19252 0.0
C128 C 0.92621 0.20669 0.17537 0.0
C129 C 0.90824 -0.00124 0.12944 0.0
C130 C 0.8253 0.98525 0.17605 0.0
C131 C 0.72858 0.84461 1.10463 0.0
C132 C 0.7245 0.80244 1.08702 0.0
C133 C 0.73464 0.76175 1.09605 0.0
C134 C 0.73062 0.72098 1.07991 0.0
C135 C 0.71576 0.71979 1.05447 0.0
C136 C 0.70448 0.75985 1.04556 0.0
C137 C 0.70881 0.80083 1.06168 0.0
C138 C 0.74036 0.01031 0.13089 0.0
C139 C 0.84643 0.03079 1.06645 0.0
O140 O 0.86083 0.14044 0.13322 0.0
O141 O 0.93919 0.1479 0.12496 0.0
O142 O 0.87517 -0.00447 0.11281 0.0
O143 O 0.92258 0.04031 0.14428 0.0
O144 O 0.84248 0.03599 0.16856 0.0
O145 O 0.80585 0.94548 0.15908 0.0
O146 O 0.76921 0.86437 0.1205 0.0
O147 O 0.71707 0.88116 1.09617 0.0
O148 O 0.77812 0.0241 0.11537 0.0
O149 O 0.72466 0.96187 0.13924 0.0
O150 O 0.81104 0.98066 1.07414 0.0
O151 O 0.87293 0.06985 1.08316 0.0
H152 H 0.97614 0.27949 0.12106 0.0
H153 H 0.00837 0.35511 0.15113 0.0
H154 H 0.93491 0.24069 0.21241 0.0
H155 H 0.90263 0.16538 0.1822 0.0
H156 H 0.74594 0.7616 0.11564 0.0
H157 H 0.73927 0.69048 1.08729 0.0
H158 H 0.6938 0.76046 1.02592 0.0
H159 H 0.70034 0.83139 1.05421 0.0
Sm160 Sm 0.88137 0.87539 0.46135 0.0
Sm161 Sm 0.91156 0.7917 0.45085 0.0
C162 C 0.8304 0.92784 0.47484 0.0
C163 C 0.79933 0.93266 0.49572 0.0
C164 C 0.75128 0.93236 0.49005 0.0
C165 C 0.71997 0.93583 0.50935 0.0
C166 C 0.73633 0.93992 0.53474 0.0
C167 C 0.78455 0.93996 0.54037 0.0
C168 C 0.81572 0.93614 0.52102 0.0
C169 C -0.00897 0.91724 0.4548 0.0
C170 C 0.919 0.82874 0.51102 0.0
C171 C 0.95327 0.73122 0.43591 0.0
C172 C 0.95912 0.70661 0.41262 0.0
C173 C 0.95257 0.72471 0.38891 0.0
C174 C 0.96272 0.7043 0.36685 0.0
C175 C 0.97935 0.66518 0.36812 0.0
C176 C 0.98353 0.64549 0.39199 0.0
C177 C 0.97354 0.66615 0.41407 0.0
C178 C 0.80526 0.74974 0.46262 0.0
C179 C 0.88944 0.85631 0.40143 0.0
O180 O 0.80723 0.88139 0.46288 0.0
O181 O 0.88228 0.94781 0.47801 0.0
O182 O 0.95911 0.87478 0.46643 0.0
O183 O 0.96365 0.93793 0.44462 0.0
O184 O 0.89083 0.85192 0.50322 0.0
O185 O 0.9359 0.8059 0.49403 0.0
O186 O 0.98066 0.7843 0.43701 0.0
O187 O 0.90449 0.71086 0.44483 0.0
O188 O 0.83158 0.78904 0.44777 0.0
O189 O 0.83497 0.73094 0.47164 0.0
O190 O 0.90547 0.82154 0.40906 0.0
O191 O 0.87639 0.88182 0.41831 0.0
H192 H 0.73783 0.92922 0.4706 0.0
H193 H 0.68279 0.93498 0.50437 0.0
H194 H 0.79876 0.94393 0.55971 0.0
H195 H 0.85254 0.93607 0.52583 0.0
H196 H 0.94132 0.75586 0.38746 0.0
H197 H 0.96 0.7212 0.34888 0.0
H198 H -0.00433 0.61502 0.39363 0.0
H199 H 0.97837 0.6515 0.4323 0.0
Sm200 Sm 0.07638 0.88053 0.79936 0.0
Sm201 Sm 0.18763 0.91804 0.78564 0.0
C202 C 0.97825 0.8278 0.8186 0.0
C203 C 0.95117 0.78932 0.83944 0.0
C204 C 0.90845 0.7373 0.83378 0.0
C205 C 0.88322 0.69908 0.85294 0.0
C206 C 0.89984 0.71234 0.87825 0.0
C207 C 0.94287 0.76455 0.88386 0.0
C208 C 0.96849 0.80258 0.86463 0.0
C209 C 0.12566 0.98258 0.77771 0.0
C210 C 0.16787 0.94179 0.84382 0.0
C211 C 0.28628 0.96014 0.76683 0.0
C212 C 0.32457 0.00803 0.75239 0.0
C213 C 0.33095 0.05953 0.75727 0.0
C214 C 0.36699 0.1043 0.74298 0.0
C215 C 0.39668 0.09822 0.72331 0.0
C216 C 0.39036 0.0465 0.71871 0.0
C217 C 0.35479 0.00192 0.7332 0.0
C218 C 0.1393 0.81658 0.80797 0.0
C219 C 0.0933 0.87397 0.73922 0.0
O220 O -0.00547 0.80902 0.80012 0.0
O221 O 0.01279 0.87833 0.82433 0.0
O222 O 0.1474 0.9663 0.79343 0.0
O223 O 0.07547 0.94672 0.77431 0.0
O224 O 0.11842 0.90149 0.83932 0.0
O225 O 0.20163 0.96266 0.82453 0.0
O226 O 0.27612 0.96853 0.78992 0.0
O227 O 0.24331 0.92459 0.75473 0.0
O228 O 0.11804 0.83202 0.79141 0.0
O229 O 0.1879 0.85447 0.81255 0.0
O230 O 0.14524 0.90398 0.7452 0.0
O231 O 0.05755 0.85335 0.75755 0.0
H232 H 0.89477 0.72606 0.81442 0.0
H233 H 0.85071 0.65915 0.84789 0.0
H234 H 0.95608 0.7766 0.90319 0.0
H235 H 0.00164 0.84228 0.86954 0.0
H236 H 0.30784 0.06514 0.77198 0.0
H237 H 0.37125 0.14357 0.74724 0.0
H238 H 0.41159 0.03996 0.7034 0.0
H239 H 0.35019 0.9624 0.72914 0.0
C240 C 0.97754 0.97334 0.12587 0.0
C241 C 0.92555 0.95874 0.13396 0.0
C242 C 0.01349 0.97095 0.14305 0.0
C243 C -0.00239 0.95781 0.16844 0.0
C244 C 0.94276 0.92932 0.17409 0.0
C245 C 0.9062 0.92754 0.15611 0.0
C246 C 0.03481 -0.00411 0.18737 0.0
C247 C 0.03644 0.04439 0.18878 0.0
C248 C 0.08719 0.092 0.18095 0.0
C249 C 0.09361 0.10433 0.1549 0.0
C250 C 0.14266 0.1184 0.14317 0.0
C251 C 0.18499 0.12197 0.15791 0.0
H252 H 0.12854 0.09911 0.21616 0.0
C253 C 0.18157 0.12269 0.18448 0.0
C254 C 0.13264 0.10765 0.19604 0.0
H255 H 0.21388 0.12581 0.1963 0.0
H256 H -0.00676 -0.00408 1.10845 0.0
H257 H 0.0558 0.99118 0.1381 0.0
H258 H 0.92922 0.91662 0.19332 0.0
H259 H 0.86489 0.91056 0.16172 0.0
H260 H 0.07198 -0.00532 0.1899 0.0
H261 H 8e-05 0.0459 0.18416 0.0
H262 H 0.05868 0.09333 0.14304 0.0
H263 H 0.14457 0.11817 0.1227 0.0
C264 C 0.0729 0.00739 0.4584 0.0
C265 C 0.04288 0.95391 0.46709 0.0
C266 C 0.09767 0.04935 0.47598 0.0
C267 C 0.0892 0.03736 0.50197 0.0
C268 C 0.07044 0.98424 0.51016 0.0
C269 C 0.04988 0.94245 0.4924 0.0
C270 C 0.08108 0.07497 0.51788 0.0
C271 C 0.03469 0.07595 0.51401 0.0
C272 C 0.04048 0.1267 0.50358 0.0
C273 C 0.04095 0.13027 0.47696 0.0
C274 C 0.08302 0.17551 0.46504 0.0
C275 C 0.12228 0.21702 0.48002 0.0
H276 H 0.0695 0.17244 0.53821 0.0
C277 C 0.11235 0.2187 0.50595 0.0
C278 C 0.0704 0.174 0.5177 0.0
H279 H 0.14167 0.25023 0.51793 0.0
H280 H 0.07005 0.01728 0.43884 0.0
H281 H 0.11448 0.09078 0.4694 0.0
H282 H 0.06509 0.9744 0.53015 0.0
H283 H 0.03022 0.9012 0.49938 0.0
H284 H 0.11777 0.11249 0.52244 0.0
H285 H -0.00058 0.03879 0.50762 0.0
H286 H 0.01671 0.09428 0.46567 0.0
H287 H 0.08944 0.17369 0.44495 0.0
C288 C 0.14743 0.07617 0.76742 0.0
C289 C 0.15399 0.03152 0.76204 0.0
C290 C 0.14874 0.10969 0.74772 0.0
C291 C 0.15207 0.09546 0.72254 0.0
C292 C 0.16923 0.05793 0.7179 0.0
C293 C 0.17156 0.02696 0.73785 0.0
C294 C 0.11738 0.10192 0.70376 0.0
C295 C 0.06636 0.05988 0.70255 0.0
C296 C 0.02727 0.06485 0.71889 0.0
C297 C 0.02152 0.0461 0.74402 0.0
C298 C 0.01077 0.07303 0.76335 0.0
C299 C 0.00211 0.11619 0.75732 0.0
H300 H 0.0137 0.11618 0.69326 0.0
C301 C -0.00381 0.12614 0.73164 0.0
C302 C 0.01032 0.10179 0.71254 0.0
H303 H -0.01266 0.15767 0.72624 0.0
H304 H 0.13451 0.08098 0.78603 0.0
H305 H 0.13648 0.13946 0.75172 0.0
H306 H 0.17346 0.04737 0.69866 0.0
H307 H 0.18052 -0.00468 0.7335 0.0
H308 H 0.12263 0.14264 0.7034 0.0
H309 H 0.06132 0.01924 0.70235 0.0
H310 H 0.03355 0.01666 0.74915 0.0
H311 H 0.01437 0.06366 0.7829 0.0
C312 C 0.45866 0.49098 1.02315 0.0
C313 C 0.4615 0.44378 1.02826 0.0
C314 C 0.4681 0.51271 0.99872 0.0
C315 C 0.48055 0.48752 0.97901 0.0
C316 C 0.48997 0.44471 0.98483 0.0
C317 C 0.48012 0.4227 1.00916 0.0
C318 C 0.47489 0.49789 0.95197 0.0
C319 C 0.43465 0.50626 0.9442 0.0
C320 C 0.40921 0.49118 0.91868 0.0
C321 C 0.36987 0.50524 0.91251 0.0
C322 C 0.3358 0.48166 0.89172 0.0
C323 C 0.34028 0.44335 0.87663 0.0
H324 H 0.44487 0.4425 0.90657 0.0
C325 C 0.38199 0.43209 0.88171 0.0
C326 C 0.41603 0.45558 0.9025 0.0
H327 H 0.38624 0.40238 0.87058 0.0
H328 H 0.44624 0.50935 1.03768 0.0
H329 H 0.46263 0.54721 0.99502 0.0
H330 H 0.5001 0.42491 0.97003 0.0
H331 H 0.48286 0.38643 1.01231 0.0
H332 H 0.49657 0.48744 0.93835 0.0
H333 H 0.41347 0.51681 0.95812 0.0
H334 H 0.36355 0.53241 0.92459 0.0
H335 H 0.30467 0.49195 0.888 0.0
C336 C 0.10637 0.506 0.33817 0.0
C337 C 0.06676 0.47413 0.35602 0.0
C338 C 0.0916 0.51221 0.3137 0.0
C339 C 0.03696 0.48579 0.30658 0.0
C340 C -0.00237 0.46078 0.32538 0.0
C341 C 0.01236 0.45492 0.3499 0.0
C342 C 0.01952 0.47424 0.2797 0.0
C343 C 0.04938 0.46647 0.26226 0.0
C344 C 0.02619 0.43065 0.23982 0.0
C345 C 0.06106 0.43366 0.22043 0.0
C346 C 0.04348 0.39361 0.20171 0.0
C347 C -0.00923 0.34931 0.20221 0.0
H348 H 0.94461 0.38279 0.2544 0.0
C349 C 0.95511 0.34755 0.22089 0.0
C350 C 0.97254 0.38769 0.23952 0.0
H351 H 0.91401 0.31424 0.22152 0.0
H352 H 0.14874 0.52224 0.34231 0.0
H353 H 0.1231 0.5343 0.3 0.0
H354 H 0.9552 0.44121 0.32058 0.0
H355 H 0.98093 0.43194 0.36353 0.0
H356 H 0.97761 0.4612 0.27557 0.0
H357 H 0.09148 0.48005 0.26612 0.0
H358 H 0.10274 0.46584 0.22039 0.0
H359 H 0.07192 0.39595 0.18758 0.0
C360 C 0.67084 0.06818 0.69135 0.0
C361 C 0.71162 0.12292 0.69043 0.0
C362 C 0.64455 0.04094 0.66921 0.0
C363 C 0.65927 0.06792 0.64576 0.0
C364 C 0.69487 0.12416 0.64542 0.0
C365 C 0.721 0.15143 0.66754 0.0
C366 C 0.6463 0.03825 0.6213 0.0
C367 C 0.64158 0.98863 0.61945 0.0
C368 C 0.65575 0.96919 0.59616 0.0
C369 C 0.67457 0.93219 0.59896 0.0
C370 C 0.69876 0.92092 0.57875 0.0
C371 C 0.70444 0.94624 0.55522 0.0
H372 H 0.64144 0.01803 0.56875 0.0
C373 C 0.68176 0.9799 0.55183 0.0
C374 C 0.65729 0.99098 0.57203 0.0
H375 H 0.68508 -0.00019 0.53388 0.0
H376 H 0.66216 0.04516 0.70876 0.0
H377 H 0.6154 -0.00192 0.67036 0.0
H378 H 0.70612 0.14624 0.62768 0.0
H379 H 0.75111 0.19405 0.66642 0.0
H380 H 0.65306 0.06251 0.6044 0.0
H381 H 0.63802 0.96603 0.63662 0.0
H382 H 0.67329 0.91414 0.61722 0.0
H383 H 0.71439 0.89353 0.58178 0.0
C384 C 0.76023 0.67079 1.0363 0.0
C385 C 0.71619 0.67977 1.03665 0.0
C386 C 0.76649 0.64196 1.01647 0.0
C387 C 0.72854 0.62131 0.99657 0.0
C388 C 0.68193 0.62589 0.99836 0.0
C389 C 0.67587 0.65497 1.01814 0.0
C390 C 0.74097 0.60577 0.97166 0.0
C391 C 0.78493 0.60117 0.96716 0.0
C392 C 0.81257 0.61627 0.94227 0.0
C393 C 0.86906 0.64279 0.94209 0.0
C394 C 0.89768 0.67121 0.92068 0.0
C395 C 0.87027 0.67354 0.899 0.0
H396 H 0.74166 0.59103 0.91861 0.0
C397 C 0.81376 0.64198 0.89827 0.0
C398 C 0.78518 0.61315 0.91961 0.0
H399 H 0.79121 0.64224 0.88182 0.0
H400 H 0.79202 0.68952 1.05031 0.0
H401 H 0.80326 0.64004 1.01607 0.0
H402 H 0.65186 0.61024 0.98345 0.0
H403 H 0.64092 0.66037 1.01826 0.0
H404 H 0.71814 0.60827 0.95578 0.0
H405 H 0.80741 0.59759 0.98289 0.0
H406 H 0.89126 0.64508 0.95915 0.0
H407 H 0.94126 0.69351 0.92156 0.0
C408 C 0.04553 0.64706 0.34517 0.0
C409 C -0.00208 0.65015 0.34481 0.0
C410 C 0.07047 0.64661 0.32254 0.0
C411 C 0.04864 0.65018 0.29918 0.0
C412 C -0.0023 0.64612 0.29884 0.0
C413 C 0.97257 0.64618 0.32144 0.0
C414 C 0.08085 0.66691 0.27552 0.0
C415 C 0.13456 0.70102 0.27596 0.0
C416 C 0.16469 0.7374 0.25453 0.0
C417 C 0.21099 0.78701 0.26021 0.0
C418 C 0.23595 0.82673 0.24165 0.0
C419 C 0.21548 0.81754 0.21686 0.0
H420 H 0.11172 0.68841 0.22396 0.0
C421 C 0.17136 0.76653 0.21068 0.0
C422 C 0.14622 0.72673 0.22932 0.0
H423 H 0.15483 0.75814 0.19168 0.0
H424 H 0.06591 0.64929 0.36281 0.0
H425 H 0.10845 0.64697 0.32348 0.0
H426 H 0.97932 0.64751 0.28109 0.0
H427 H 0.93492 0.64657 0.32054 0.0
H428 H 0.05871 0.66045 0.25795 0.0
H429 H 0.15574 0.71024 0.29396 0.0
H430 H 0.22652 0.79621 0.2794 0.0
H431 H 0.27062 0.86517 0.24684 0.0
C432 C 0.47867 0.14993 0.69596 0.0
C433 C 0.43095 0.14444 0.70637 0.0
C434 C 0.50627 0.18843 0.67712 0.0
C435 C 0.48679 0.22237 0.66852 0.0
C436 C 0.4418 0.21989 0.68034 0.0
C437 C 0.41383 0.18104 0.69888 0.0
C438 C 0.50806 0.2564 0.64559 0.0
C439 C 0.52365 0.23946 0.62512 0.0
C440 C 0.5208 0.25874 0.59938 0.0
C441 C 0.50147 0.22083 0.57955 0.0
C442 C 0.48518 0.23311 0.55673 0.0
C443 C 0.48848 0.28381 0.55332 0.0
H444 H 0.54614 0.34218 0.6096 0.0
C445 C 0.51311 0.32366 0.57218 0.0
C446 C 0.52937 0.31135 0.595 0.0
H447 H 0.51759 0.36362 0.56973 0.0
H448 H 0.49387 0.12345 0.70184 0.0
H449 H 0.54183 0.1905 0.66884 0.0
H450 H 0.42608 0.24572 0.67407 0.0
H451 H 0.3771 0.17787 0.70625 0.0
H452 H 0.49973 0.28968 0.6437 0.0
H453 H 0.52705 0.20305 0.62643 0.0
H454 H 0.49493 0.18015 0.58238 0.0
H455 H 0.46647 0.20156 0.54254 0.0
C456 C 0.46271 0.1323 0.13539 0.0
C457 C 0.45509 0.1575 0.11416 0.0
C458 C 0.5034 0.11883 0.13585 0.0
C459 C 0.53851 0.13117 0.11514 0.0
C460 C 0.5308 0.15647 1.09384 0.0
C461 C 0.48952 0.16962 1.09333 0.0
C462 C 0.58182 0.11626 0.11463 0.0
C463 C 0.59894 0.10101 0.13531 0.0
C464 C 0.63785 0.08076 0.13433 0.0
C465 C 0.63294 0.04183 0.15217 0.0
C466 C 0.66706 0.01979 0.15136 0.0
C467 C 0.70759 0.03711 0.13299 0.0
H468 H 0.68541 0.13041 1.1028 0.0
C469 C 0.71422 0.07782 0.11581 0.0
C470 C 0.67947 0.0993 0.11635 0.0
H471 H 0.74547 0.09216 1.1015 0.0
H472 H 0.43685 0.12258 0.15182 0.0
H473 H 0.50601 0.0979 0.1524 0.0
H474 H 0.55674 0.16606 1.07748 0.0
H475 H 0.48448 0.18895 1.07671 0.0
H476 H 0.59914 0.11657 1.09634 0.0
H477 H 0.58206 0.10016 0.15372 0.0
H478 H 0.6016 0.02729 0.16639 0.0
H479 H 0.6613 0.98874 0.1649 0.0
C480 C 0.40703 0.47957 0.46463 0.0
C481 C 0.37529 0.47486 0.44344 0.0
C482 C 0.4614 0.51915 0.46548 0.0
C483 C 0.48523 0.55569 0.44521 0.0
C484 C 0.45343 0.55046 0.4239 0.0
C485 C 0.39894 0.51055 0.42301 0.0
C486 C 0.54333 0.59803 0.44512 0.0
C487 C 0.57407 0.61562 0.46619 0.0
C488 C 0.63306 0.65356 0.46563 0.0
C489 C 0.66526 0.64796 0.48413 0.0
C490 C 0.72123 0.68029 0.48344 0.0
C491 C 0.74606 0.71974 0.46452 0.0
H492 H 0.63397 0.70096 0.43311 0.0
C493 C 0.71387 0.7275 0.44675 0.0
C494 C 0.65777 0.69446 0.44719 0.0
H495 H 0.73213 0.75801 0.43205 0.0
H496 H 0.38984 0.45246 0.48067 0.0
H497 H 0.4844 0.51999 0.48191 0.0
H498 H 0.47072 0.5775 0.40787 0.0
H499 H 0.37543 0.50767 0.40641 0.0
H500 H 0.56147 0.61447 0.42687 0.0
H501 H 0.55665 0.59954 0.48454 0.0
H502 H 0.6472 0.61721 0.49871 0.0
H503 H 0.7451 0.67382 0.49748 0.0
C504 C 0.05364 0.42264 0.82123 0.0
C505 C 0.05788 0.40294 0.79749 0.0
C506 C 0.06652 0.47713 0.82391 0.0
C507 C 0.08422 0.51241 0.80283 0.0
C508 C 0.09211 0.49304 0.77973 0.0
C509 C 0.07892 0.43902 0.77707 0.0
C510 C 0.09025 0.56768 0.80292 0.0
C511 C 0.09253 0.5963 0.82366 0.0
C512 C 0.09901 0.65148 0.82135 0.0
C513 C 0.13466 0.693 0.83757 0.0
C514 C 0.14609 0.74649 0.83377 0.0
C515 C 0.1211 0.7592 0.81404 0.0
H516 H 0.04286 0.6322 0.7901 0.0
C517 C 0.08248 0.71709 0.79895 0.0
C518 C 0.07175 0.66372 0.80247 0.0
H519 H 0.06234 0.72568 0.78373 0.0
H520 H 0.03654 0.39517 0.83712 0.0
H521 H 0.05951 0.49024 0.84201 0.0
H522 H 0.10603 0.51911 0.76323 0.0
H523 H 0.08228 0.42461 0.75853 0.0
H524 H 0.09382 0.58639 0.78451 0.0
H525 H 0.09392 0.58139 0.84241 0.0
H526 H 0.15563 0.6845 0.85243 0.0
H527 H 0.17569 0.77822 0.84583 0.0
C528 C 0.3133 0.23068 0.21412 0.0
C529 C 0.32079 0.1862 0.20825 0.0
C530 C 0.30612 0.24273 0.23934 0.0
C531 C 0.30627 0.21081 0.25985 0.0
C532 C 0.31462 0.16692 0.25397 0.0
C533 C 0.32137 0.15462 0.22874 0.0
C534 C 0.29972 0.22241 0.28748 0.0
C535 C 0.27932 0.25423 0.29576 0.0
C536 C 0.27219 0.26575 0.32332 0.0
C537 C 0.23998 0.28939 0.32885 0.0
C538 C 0.23312 0.30256 0.35387 0.0
C539 C 0.25877 0.29329 0.37456 0.0
H540 H 0.32345 0.23881 0.34108 0.0
C541 C 0.2911 0.26967 0.36912 0.0
C542 C 0.2976 0.25602 0.34405 0.0
H543 H 0.31179 0.26175 0.38431 0.0
H544 H 0.31225 0.25615 0.1991 0.0
H545 H 0.301 0.27752 0.24258 0.0
H546 H 0.3154 0.14138 0.26903 0.0
H547 H 0.32656 0.11988 0.22532 0.0
H548 H 0.31083 0.2019 0.30159 0.0
H549 H 0.26526 0.27205 0.28159 0.0
H550 H 0.21981 0.29792 0.31362 0.0
H551 H 0.20805 0.32069 0.35692 0.0
C552 C 0.22913 0.3337 0.55622 0.0
C553 C 0.20835 0.3489 0.5354 0.0
C554 C 0.20566 0.32546 0.58065 0.0
C555 C 0.1604 0.33205 0.5851 0.0
C556 C 0.14056 0.34809 0.56432 0.0
C557 C 0.164 0.35652 0.54012 0.0
C558 C 0.13105 0.32103 0.61039 0.0
C559 C 0.15083 0.31714 0.63331 0.0
C560 C 0.12285 0.30861 0.65881 0.0
C561 C 0.1545 0.32169 0.68091 0.0
C562 C 0.13169 0.31352 0.70518 0.0
C563 C 0.07569 0.29099 0.70873 0.0
H564 H 0.0402 0.27484 0.6458 0.0
C565 C 0.04342 0.27756 0.68668 0.0
C566 C 0.06662 0.28649 0.6621 0.0
H567 H 0.00018 0.25966 0.68838 0.0
H568 H 0.26257 0.32648 0.55352 0.0
H569 H 0.22226 0.31241 0.59574 0.0
H570 H 0.10599 0.35364 0.56669 0.0
H571 H 0.14612 0.36777 0.52485 0.0
H572 H 0.09179 0.31822 0.61003 0.0
H573 H 0.19136 0.32316 0.63387 0.0
H574 H 0.19767 0.33848 0.67947 0.0
H575 H 0.15852 0.32429 0.72132 0.0
C576 C 0.91993 0.153 0.87528 0.0
C577 C 0.97277 0.1937 0.8688 0.0
C578 C 0.90626 0.13336 0.90052 0.0
C579 C 0.945 0.15403 0.92024 0.0
C580 C -0.00256 0.19482 0.91359 0.0
C581 C 0.01108 0.21395 0.88856 0.0
C582 C 0.93359 0.13686 0.94799 0.0
C583 C 0.88937 0.09241 0.95768 0.0
C584 C 0.88014 0.07691 0.98575 0.0
C585 C 0.83971 0.02422 0.99305 0.0
C586 C 0.82896 0.00862 1.01886 0.0
C587 C 0.85794 0.04534 1.03851 0.0
H588 H 0.93981 0.15473 1.00137 0.0
C589 C 0.89829 0.09801 1.03119 0.0
C590 C 0.90916 0.11348 1.00549 0.0
H591 H 0.92169 0.12805 1.04544 0.0
H592 H 0.88902 0.13603 0.86079 0.0
H593 H 0.86521 0.10253 0.90449 0.0
H594 H 0.0286 0.21225 0.92796 0.0
H595 H 0.05216 0.24514 0.88476 0.0
H596 H 0.96532 0.16239 0.96114 0.0
H597 H 0.85876 0.06492 0.94452 0.0
H598 H 0.81606 -0.0053 0.97865 0.0
H599 H 0.79749 0.96785 1.02337 0.0
C600 C 0.81963 0.9202 0.21153 0.0
C601 C 0.8324 0.97298 0.20355 0.0
C602 C 0.82911 0.90937 0.23674 0.0
C603 C 0.85145 0.9509 0.25521 0.0
C604 C 0.86356 0.00339 0.24723 0.0
C605 C 0.85465 0.0143 0.22203 0.0
C606 C 0.86093 0.94187 0.28298 0.0
C607 C 0.8619 0.89767 0.29297 0.0
C608 C 0.87122 0.88945 0.32091 0.0
C609 C 0.88262 0.84789 0.32787 0.0
C610 C 0.8896 0.83745 0.35354 0.0
C611 C 0.88485 0.86781 0.3735 0.0
H612 H 0.85762 0.95192 0.33709 0.0
C613 C 0.87366 0.90949 0.3665 0.0
C614 C 0.86709 0.92015 0.34092 0.0
H615 H 0.86945 0.93416 0.38097 0.0
H616 H 0.80238 0.88681 0.19817 0.0
H617 H 0.81815 0.86816 0.24169 0.0
H618 H 0.88049 0.03671 0.26063 0.0
H619 H 0.86549 0.05549 0.21705 0.0
H620 H 0.86909 0.97501 0.29574 0.0
H621 H 0.85676 0.8658 0.28001 0.0
H622 H 0.88598 0.82292 0.31329 0.0
H623 H 0.89791 0.80498 0.35772 0.0
C624 C 0.95589 0.80155 0.54974 0.0
C625 C 0.9383 0.83545 0.53851 0.0
C626 C 0.9767 0.81041 0.5749 0.0
C627 C 0.98216 0.8545 0.58965 0.0
C628 C 0.96491 0.88842 0.57827 0.0
C629 C 0.94283 0.87873 0.55351 0.0
C630 C 0.00847 0.86882 0.61598 0.0
C631 C 0.00678 0.83267 0.63364 0.0
C632 C 0.03009 0.84636 0.66055 0.0
C633 C 0.00379 0.80863 0.6802 0.0
C634 C 0.02433 0.81789 0.70522 0.0
C635 C 0.0734 0.86451 0.71177 0.0
H636 H 0.10131 0.92352 0.65258 0.0
C637 C 0.10058 0.90211 0.69204 0.0
C638 C 0.07898 0.89361 0.667 0.0
H639 H 0.13827 0.93865 0.69597 0.0
H640 H 0.9538 0.76808 0.53899 0.0
H641 H -0.00989 0.78362 0.58245 0.0
H642 H 0.96866 0.92307 0.58863 0.0
H643 H 0.93081 0.90652 0.5458 0.0
H644 H 0.02743 0.91122 0.62157 0.0
H645 H 0.98375 0.78982 0.62887 0.0
H646 H 0.96647 0.77157 0.67625 0.0
H647 H 0.00172 0.78775 0.71953 0.0
C648 C 0.15292 0.93899 0.89201 0.0
C649 C 0.18507 0.96467 0.87051 0.0
C650 C 0.16895 0.96112 0.91674 0.0
C651 C 0.21759 0.01029 0.92096 0.0
C652 C 0.24931 0.03586 0.89941 0.0
C653 C 0.23375 0.01343 0.87484 0.0
C654 C 0.23594 0.0377 0.9469 0.0
C655 C 0.21999 0.01263 0.96991 0.0
C656 C 0.23972 0.0392 0.99592 0.0
C657 C 0.23427 0.00605 1.01693 0.0
C658 C 0.25007 0.02755 1.04159 0.0
C659 C 0.27115 0.08332 1.04668 0.0
H660 H 0.26565 0.12262 0.98555 0.0
C661 C 0.27632 0.11681 1.02575 0.0
C662 C 0.26131 0.09529 1.00082 0.0
H663 H 0.29221 0.15991 1.02859 0.0
H664 H 0.11504 0.90157 0.88975 0.0
H665 H 0.14242 0.94007 0.9324 0.0
H666 H 0.28679 0.07377 0.90155 0.0
H667 H 0.25984 0.03499 0.8591 0.0
H668 H 0.26619 0.08046 0.94682 0.0
H669 H 0.1926 0.96911 0.96993 0.0
H670 H 0.21764 0.96277 1.01427 0.0
H671 H 0.24493 -0.0001 1.05686 0.0
loop_
_geom_bond_atom_site_label_1
_geom_bond_atom_site_label_2
_geom_bond_distance
_geom_bond_site_symmetry_2
_ccdc_geom_bond_type
Sm0 C2 2.846 . S
Sm0 O20 2.543 . S
Sm0 O21 2.450 . S
Sm0 O22 2.681 . S
Sm0 O23 2.464 . S
Sm0 O24 2.396 . S
Sm0 O28 2.386 . S
Sm0 O31 2.408 1_554 S
Sm1 C11 2.846 . S
Sm1 O22 2.386 1_556 S
Sm1 O25 2.408 1_556 S
Sm1 O26 2.543 . S
Sm1 O27 2.450 . S
Sm1 O28 2.681 1_556 S
Sm1 O29 2.464 1_556 S
Sm1 O30 2.396 . S
C2 Sm0 2.846 . S
C2 C3 1.506 . S
C2 O20 1.261 . S
C2 O21 1.242 . S
C3 C2 1.506 . S
C3 C4 1.358 . S
C3 C8 1.382 . S
C4 C3 1.358 . S
C4 C5 1.385 . S
C4 H32 0.930 . S
C5 C4 1.385 . S
C5 C6 1.395 . S
C5 H33 0.929 . S
C6 C5 1.395 . S
C6 C7 1.335 . S
C7 C6 1.335 . S
C7 C8 1.398 . S
C7 H34 0.930 1_545 S
C8 C3 1.382 . S
C8 C7 1.398 . S
C8 H35 0.929 . S
C9 O22 1.271 . S
C9 O23 1.251 . S
C10 O24 1.252 . S
C10 O25 1.272 . S
C11 Sm1 2.846 . S
C11 C12 1.506 . S
C11 O26 1.261 . S
C11 O27 1.242 . S
C12 C11 1.506 . S
C12 C13 1.358 . S
C12 C17 1.382 . S
C13 C12 1.358 . S
C13 C14 1.385 . S
C13 H36 0.930 . S
C14 C13 1.385 . S
C14 C15 1.395 . S
C14 H37 0.929 . S
C15 C14 1.395 . S
C15 C16 1.335 . S
C16 C15 1.335 . S
C16 C17 1.398 . S
C16 H38 0.930 . S
C17 C12 1.382 . S
C17 C16 1.398 . S
C17 H39 0.929 . S
C18 O28 1.271 . S
C18 O29 1.251 . S
C19 O30 1.252 . S
C19 O31 1.272 . S
O20 Sm0 2.543 . S
O20 C2 1.261 . S
O21 Sm0 2.450 . S
O21 C2 1.242 . S
O22 Sm0 2.681 . S
O22 Sm1 2.386 1_554 S
O22 C9 1.271 . S
O23 Sm0 2.464 . S
O23 C9 1.251 . S
O24 Sm0 2.396 . S
O24 C10 1.252 . S
O25 Sm1 2.408 1_554 S
O25 C10 1.272 . S
O26 Sm1 2.543 . S
O26 C11 1.261 . S
O27 Sm1 2.450 . S
O27 C11 1.242 . S
O28 Sm0 2.386 . S
O28 Sm1 2.681 1_554 S
O28 C18 1.271 . S
O29 Sm1 2.464 1_554 S
O29 C18 1.251 . S
O30 Sm1 2.396 . S
O30 C19 1.252 . S
O31 Sm0 2.408 1_556 S
O31 C19 1.272 . S
H32 C4 0.930 . S
H33 C5 0.929 . S
H34 C7 0.930 1_565 S
H35 C8 0.929 . S
H36 C13 0.930 . S
H37 C14 0.929 . S
H38 C16 0.930 . S
H39 C17 0.929 . S
Sm40 C42 2.846 . S
Sm40 O60 2.543 . S
Sm40 O61 2.450 . S
Sm40 O62 2.681 . S
Sm40 O63 2.464 . S
Sm40 O64 2.396 . S
Sm40 O68 2.386 . S
Sm40 O71 2.408 . S
Sm41 C51 2.846 . S
Sm41 O62 2.386 . S
Sm41 O65 2.408 . S
Sm41 O66 2.543 . S
Sm41 O67 2.450 . S
Sm41 O68 2.681 . S
Sm41 O69 2.464 . S
Sm41 O70 2.396 . S
C42 Sm40 2.846 . S
C42 C43 1.506 . S
C42 O60 1.261 . S
C42 O61 1.242 . S
C43 C42 1.506 . S
C43 C44 1.358 . S
C43 C48 1.382 . S
C44 C43 1.358 . S
C44 C45 1.385 . S
C44 H72 0.930 . S
C45 C44 1.385 . S
C45 C46 1.395 . S
C45 H73 0.929 . S
C46 C45 1.395 . S
C46 C47 1.335 . S
C47 C46 1.335 . S
C47 C48 1.398 . S
C47 H74 0.930 . S
C48 C43 1.382 . S
C48 C47 1.398 . S
C48 H75 0.929 . S
C49 O62 1.271 . S
C49 O63 1.251 . S
C50 O64 1.252 . S
C50 O65 1.272 . S
C51 Sm41 2.846 . S
C51 C52 1.506 . S
C51 O66 1.261 . S
C51 O67 1.242 . S
C52 C51 1.506 . S
C52 C53 1.358 . S
C52 C57 1.382 . S
C53 C52 1.358 . S
C53 C54 1.385 . S
C53 H76 0.930 . S
C54 C53 1.385 . S
C54 C55 1.395 . S
C54 H77 0.929 . S
C55 C54 1.395 . S
C55 C56 1.335 . S
C56 C55 1.335 . S
C56 C57 1.398 . S
C56 H78 0.930 . S
C57 C52 1.382 . S
C57 C56 1.398 . S
C57 H79 0.929 . S
C58 O68 1.271 . S
C58 O69 1.251 . S
C59 O70 1.252 . S
C59 O71 1.272 . S
O60 Sm40 2.543 . S
O60 C42 1.261 . S
O61 Sm40 2.450 . S
O61 C42 1.242 . S
O62 Sm40 2.681 . S
O62 Sm41 2.386 . S
O62 C49 1.271 . S
O63 Sm40 2.464 . S
O63 C49 1.251 . S
O64 Sm40 2.396 . S
O64 C50 1.252 . S
O65 Sm41 2.408 . S
O65 C50 1.272 . S
O66 Sm41 2.543 . S
O66 C51 1.261 . S
O67 Sm41 2.450 . S
O67 C51 1.242 . S
O68 Sm40 2.386 . S
O68 Sm41 2.681 . S
O68 C58 1.271 . S
O69 Sm41 2.464 . S
O69 C58 1.251 . S
O70 Sm41 2.396 . S
O70 C59 1.252 . S
O71 Sm40 2.408 . S
O71 C59 1.272 . S
H72 C44 0.930 . S
H73 C45 0.929 . S
H74 C47 0.930 . S
H75 C48 0.929 . S
H76 C53 0.930 . S
H77 C54 0.929 . S
H78 C56 0.930 . S
H79 C57 0.929 . S
Sm80 C82 2.846 . S
Sm80 O100 2.543 . S
Sm80 O101 2.450 . S
Sm80 O102 2.681 1_455 S
Sm80 O103 2.464 . S
Sm80 O104 2.396 1_455 S
Sm80 O108 2.386 . S
Sm80 O111 2.408 . S
Sm81 C91 2.846 . S
Sm81 O102 2.386 . S
Sm81 O105 2.408 . S
Sm81 O106 2.543 . S
Sm81 O107 2.450 . S
Sm81 O108 2.681 1_655 S
Sm81 O109 2.464 . S
Sm81 O110 2.396 1_655 S
C82 Sm80 2.846 . S
C82 C83 1.506 . S
C82 O100 1.261 . S
C82 O101 1.242 . S
C83 C82 1.506 . S
C83 C84 1.358 . S
C83 C88 1.382 . S
C84 C83 1.358 . S
C84 C85 1.385 . S
C84 H112 0.930 . S
C85 C84 1.385 . S
C85 C86 1.395 . S
C85 H113 0.929 . S
C86 C85 1.395 . S
C86 C87 1.335 . S
C87 C86 1.335 . S
C87 C88 1.398 . S
C87 H114 0.930 . S
C88 C83 1.382 . S
C88 C87 1.398 . S
C88 H115 0.929 . S
C89 O102 1.271 1_455 S
C89 O103 1.251 . S
C90 O104 1.252 . S
C90 O105 1.272 . S
C91 Sm81 2.846 . S
C91 C92 1.506 . S
C91 O106 1.261 . S
C91 O107 1.242 . S
C92 C91 1.506 . S
C92 C93 1.358 . S
C92 C97 1.382 . S
C93 C92 1.358 . S
C93 C94 1.385 . S
C93 H116 0.930 . S
C94 C93 1.385 . S
C94 C95 1.395 . S
C94 H117 0.929 . S
C95 C94 1.395 . S
C95 C96 1.335 . S
C96 C95 1.335 . S
C96 C97 1.398 . S
C96 H118 0.930 . S
C97 C92 1.382 . S
C97 C96 1.398 . S
C97 H119 0.929 . S
C98 O108 1.271 1_655 S
C98 O109 1.251 . S
C99 O110 1.252 . S
C99 O111 1.272 . S
O100 Sm80 2.543 . S
O100 C82 1.261 . S
O101 Sm80 2.450 . S
O101 C82 1.242 . S
O102 Sm80 2.681 1_655 S
O102 Sm81 2.386 . S
O102 C89 1.271 1_655 S
O103 Sm80 2.464 . S
O103 C89 1.251 . S
O104 Sm80 2.396 1_655 S
O104 C90 1.252 . S
O105 Sm81 2.408 . S
O105 C90 1.272 . S
O106 Sm81 2.543 . S
O106 C91 1.261 . S
O107 Sm81 2.450 . S
O107 C91 1.242 . S
O108 Sm80 2.386 . S
O108 Sm81 2.681 1_455 S
O108 C98 1.271 1_455 S
O109 Sm81 2.464 . S
O109 C98 1.251 . S
O110 Sm81 2.396 1_455 S
O110 C99 1.252 . S
O111 Sm80 2.408 . S
O111 C99 1.272 . S
H112 C84 0.930 . S
H113 C85 0.929 . S
H114 C87 0.930 . S
H115 C88 0.929 . S
H116 C93 0.930 . S
H117 C94 0.929 . S
H118 C96 0.930 . S
H119 C97 0.929 . S
Sm120 C122 2.846 . S
Sm120 O140 2.543 . S
Sm120 O141 2.450 . S
Sm120 O142 2.668 1_545 S
Sm120 O143 2.464 . S
Sm120 O144 2.396 1_545 S
Sm120 O148 2.386 . S
Sm120 O151 2.408 1_554 S
Sm121 C131 2.846 . S
Sm121 O142 2.391 1_556 S
Sm121 O145 2.408 1_556 S
Sm121 O146 2.543 . S
Sm121 O147 2.450 . S
Sm121 O148 2.681 1_566 S
Sm121 O149 2.464 1_556 S
Sm121 O150 2.396 1_565 S
C122 Sm120 2.846 . S
C122 C123 1.506 . S
C122 O140 1.261 . S
C122 O141 1.242 . S
C123 C122 1.506 . S
C123 C124 1.358 . S
C123 C128 1.382 . S
C124 C123 1.358 . S
C124 C125 1.385 . S
C124 H152 0.930 . S
C125 C124 1.385 . S
C125 C126 1.395 . S
C125 H153 0.929 . S
C126 C125 1.395 . S
C126 C127 1.335 . S
C127 C126 1.335 . S
C127 C128 1.398 . S
C127 H154 0.930 . S
C128 C123 1.382 . S
C128 C127 1.398 . S
C128 H155 0.929 . S
C129 O142 1.272 1_545 S
C129 O143 1.251 . S
C130 O144 1.252 . S
C130 O145 1.272 . S
C131 Sm121 2.846 . S
C131 C132 1.506 . S
C131 O146 1.261 . S
C131 O147 1.242 . S
C132 C131 1.506 . S
C132 C133 1.358 . S
C132 C137 1.382 . S
C133 C132 1.358 . S
C133 C134 1.385 . S
C133 H156 0.930 . S
C134 C133 1.385 . S
C134 C135 1.395 . S
C134 H157 0.929 . S
C135 C134 1.395 . S
C135 C136 1.335 . S
C136 C135 1.335 . S
C136 C137 1.398 . S
C136 H158 0.930 . S
C137 C132 1.382 . S
C137 C136 1.398 . S
C137 H159 0.929 . S
C138 O148 1.271 1_565 S
C138 O149 1.251 . S
C139 O150 1.252 . S
C139 O151 1.272 . S
O140 Sm120 2.543 . S
O140 C122 1.261 . S
O141 Sm120 2.450 . S
O141 C122 1.242 . S
O142 Sm120 2.668 1_565 S
O142 Sm121 2.391 1_554 S
O142 C129 1.272 1_565 S
O143 Sm120 2.464 . S
O143 C129 1.251 . S
O144 Sm120 2.396 1_565 S
O144 C130 1.252 . S
O145 Sm121 2.408 1_554 S
O145 C130 1.272 . S
O146 Sm121 2.543 . S
O146 C131 1.261 . S
O147 Sm121 2.450 . S
O147 C131 1.242 . S
O148 Sm120 2.386 . S
O148 Sm121 2.681 1_544 S
O148 C138 1.271 1_545 S
O149 Sm121 2.464 1_554 S
O149 C138 1.251 . S
O150 Sm121 2.396 1_545 S
O150 C139 1.252 . S
O151 Sm120 2.408 1_556 S
O151 C139 1.272 . S
H152 C124 0.930 . S
H153 C125 0.929 . S
H154 C127 0.930 . S
H155 C128 0.929 . S
H156 C133 0.930 . S
H157 C134 0.929 . S
H158 C136 0.930 . S
H159 C137 0.929 . S
Sm160 C162 2.846 . S
Sm160 O180 2.543 . S
Sm160 O181 2.450 . S
Sm160 O182 2.681 . S
Sm160 O183 2.464 . S
Sm160 O184 2.396 . S
Sm160 O188 2.386 . S
Sm160 O191 2.408 . S
Sm161 C171 2.846 . S
Sm161 O182 2.386 . S
Sm161 O185 2.408 . S
Sm161 O186 2.543 . S
Sm161 O187 2.450 . S
Sm161 O188 2.681 . S
Sm161 O189 2.464 . S
Sm161 O190 2.396 . S
C162 Sm160 2.846 . S
C162 C163 1.506 . S
C162 O180 1.261 . S
C162 O181 1.242 . S
C163 C162 1.506 . S
C163 C164 1.358 . S
C163 C168 1.382 . S
C164 C163 1.358 . S
C164 C165 1.385 . S
C164 H192 0.930 . S
C165 C164 1.385 . S
C165 C166 1.395 . S
C165 H193 0.929 . S
C166 C165 1.395 . S
C166 C167 1.335 . S
C167 C166 1.335 . S
C167 C168 1.398 . S
C167 H194 0.930 . S
C168 C163 1.382 . S
C168 C167 1.398 . S
C168 H195 0.929 . S
C169 O182 1.271 . S
C169 O183 1.251 . S
C170 O184 1.252 . S
C170 O185 1.272 . S
C171 Sm161 2.846 . S
C171 C172 1.506 . S
C171 O186 1.261 . S
C171 O187 1.242 . S
C172 C171 1.506 . S
C172 C173 1.358 1_655 S
C172 C177 1.382 . S
C173 C172 1.358 1_455 S
C173 C174 1.385 . S
C173 H196 0.930 . S
C174 C173 1.385 . S
C174 C175 1.395 . S
C174 H197 0.929 . S
C175 C174 1.395 . S
C175 C176 1.335 1_455 S
C176 C175 1.335 1_655 S
C176 C177 1.398 . S
C176 H198 0.930 . S
C177 C172 1.382 . S
C177 C176 1.398 . S
C177 H199 0.929 . S
C178 O188 1.271 . S
C178 O189 1.251 . S
C179 O190 1.252 . S
C179 O191 1.272 . S
O180 Sm160 2.543 . S
O180 C162 1.261 . S
O181 Sm160 2.450 . S
O181 C162 1.242 . S
O182 Sm160 2.681 . S
O182 Sm161 2.386 . S
O182 C169 1.271 . S
O183 Sm160 2.464 . S
O183 C169 1.251 . S
O184 Sm160 2.396 . S
O184 C170 1.252 . S
O185 Sm161 2.408 . S
O185 C170 1.272 . S
O186 Sm161 2.543 . S
O186 C171 1.261 . S
O187 Sm161 2.450 . S
O187 C171 1.242 . S
O188 Sm160 2.386 . S
O188 Sm161 2.681 . S
O188 C178 1.271 . S
O189 Sm161 2.464 . S
O189 C178 1.251 . S
O190 Sm161 2.396 . S
O190 C179 1.252 . S
O191 Sm160 2.408 . S
O191 C179 1.272 . S
H192 C164 0.930 . S
H193 C165 0.929 . S
H194 C167 0.930 . S
H195 C168 0.929 . S
H196 C173 0.930 . S
H197 C174 0.929 . S
H198 C176 0.930 . S
H199 C177 0.929 . S
Sm200 C202 2.846 . S
Sm200 O220 2.543 . S
Sm200 O221 2.450 . S
Sm200 O222 2.681 . S
Sm200 O223 2.464 . S
Sm200 O224 2.396 . S
Sm200 O228 2.386 . S
Sm200 O231 2.408 . S
Sm201 C211 2.846 . S
Sm201 O222 2.386 . S
Sm201 O225 2.408 . S
Sm201 O226 2.543 . S
Sm201 O227 2.450 . S
Sm201 O228 2.681 . S
Sm201 O229 2.464 . S
Sm201 O230 2.396 . S
C202 Sm200 2.846 . S
C202 C203 1.506 . S
C202 O220 1.261 . S
C202 O221 1.242 . S
C203 C202 1.506 . S
C203 C204 1.358 . S
C203 C208 1.382 . S
C204 C203 1.358 . S
C204 C205 1.385 . S
C204 H232 0.930 . S
C205 C204 1.385 . S
C205 C206 1.395 . S
C205 H233 0.929 . S
C206 C205 1.395 . S
C206 C207 1.335 . S
C207 C206 1.335 . S
C207 C208 1.398 . S
C207 H234 0.930 1_455 S
C208 C203 1.382 . S
C208 C207 1.398 . S
C208 H235 0.929 . S
C209 O222 1.271 . S
C209 O223 1.251 . S
C210 O224 1.252 . S
C210 O225 1.272 . S
C211 Sm201 2.846 . S
C211 C212 1.506 . S
C211 O226 1.261 . S
C211 O227 1.242 . S
C212 C211 1.506 . S
C212 C213 1.358 1_565 S
C212 C217 1.382 . S
C213 C212 1.358 1_545 S
C213 C214 1.385 . S
C213 H236 0.930 . S
C214 C213 1.385 . S
C214 C215 1.395 . S
C214 H237 0.929 . S
C215 C214 1.395 . S
C215 C216 1.335 1_545 S
C216 C215 1.335 1_565 S
C216 C217 1.398 . S
C216 H238 0.930 . S
C217 C212 1.382 . S
C217 C216 1.398 . S
C217 H239 0.929 . S
C218 O228 1.271 . S
C218 O229 1.251 . S
C219 O230 1.252 . S
C219 O231 1.272 . S
O220 Sm200 2.543 . S
O220 C202 1.261 . S
O221 Sm200 2.450 . S
O221 C202 1.242 . S
O222 Sm200 2.681 . S
O222 Sm201 2.386 . S
O222 C209 1.271 . S
O223 Sm200 2.464 . S
O223 C209 1.251 . S
O224 Sm200 2.396 . S
O224 C210 1.252 . S
O225 Sm201 2.408 . S
O225 C210 1.272 . S
O226 Sm201 2.543 . S
O226 C211 1.261 . S
O227 Sm201 2.450 . S
O227 C211 1.242 . S
O228 Sm200 2.386 . S
O228 Sm201 2.681 . S
O228 C218 1.271 . S
O229 Sm201 2.464 . S
O229 C218 1.251 . S
O230 Sm201 2.396 . S
O230 C219 1.252 . S
O231 Sm200 2.408 . S
O231 C219 1.272 . S
H232 C204 0.930 . S
H233 C205 0.929 . S
H234 C207 0.930 1_655 S
H235 C208 0.929 . S
H236 C213 0.930 . S
H237 C214 0.929 . S
H238 C216 0.930 . S
H239 C217 0.929 . S
C240 C241 1.386 1_546 S
C240 C242 1.383 . S
C240 H256 0.951 . S
C241 C240 1.386 1_564 S
C241 C245 1.381 . S
C242 C240 1.383 . S
C242 C243 1.402 1_656 S
C242 H257 0.951 1_655 S
C243 C242 1.402 1_454 S
C243 C244 1.375 1_455 S
C243 C246 1.481 . S
C244 C243 1.375 1_655 S
C244 C245 1.366 1_545 S
C244 H258 0.951 . S
C245 C241 1.381 . S
C245 C244 1.366 1_565 S
C245 H259 0.952 . S
C246 C243 1.481 . S
C246 C247 1.297 . S
C246 H260 0.950 . S
C247 C246 1.297 . S
C247 C248 1.479 . S
C247 H261 0.950 1_554 S
C248 C247 1.479 . S
C248 C249 1.375 1_554 S
C248 C254 1.404 . S
C249 C248 1.375 1_556 S
C249 C250 1.369 . S
C249 H262 0.950 . S
C250 C249 1.369 . S
C250 C251 1.392 1_556 S
C250 H263 0.951 . S
C251 C250 1.392 1_554 S
C251 C253 1.384 . S
H252 C254 0.949 . S
C253 C251 1.384 . S
C253 C254 1.385 . S
C253 H255 0.950 . S
C254 C248 1.404 . S
C254 H252 0.949 . S
C254 C253 1.385 . S
H255 C253 0.950 . S
H256 C240 0.951 . S
H257 C242 0.951 1_455 S
H258 C244 0.951 . S
H259 C245 0.952 . S
H260 C246 0.950 . S
H261 C247 0.950 1_556 S
H262 C249 0.950 . S
H263 C250 0.951 . S
C264 C265 1.386 . S
C264 C266 1.383 1_655 S
C264 H280 0.951 . S
C265 C264 1.386 . S
C265 C269 1.383 1_655 S
C266 C264 1.383 1_455 S
C266 C267 1.402 1_565 S
C266 H281 0.951 1_465 S
C267 C266 1.402 1_545 S
C267 C268 1.375 1_545 S
C267 C270 1.481 . S
C268 C267 1.375 1_565 S
C268 C269 1.367 . S
C268 H282 0.951 . S
C269 C265 1.383 1_455 S
C269 C268 1.367 . S
C269 H283 0.950 . S
C270 C267 1.481 . S
C270 C271 1.297 . S
C270 H284 0.950 . S
C271 C270 1.297 . S
C271 C272 1.479 . S
C271 H285 0.950 . S
C272 C271 1.479 . S
C272 C273 1.375 . S
C272 C278 1.404 . S
C273 C272 1.375 . S
C273 C274 1.369 . S
C273 H286 0.950 . S
C274 C273 1.369 . S
C274 C275 1.392 . S
C274 H287 0.951 . S
C275 C274 1.392 . S
C275 C277 1.384 . S
H276 C278 0.949 . S
C277 C275 1.384 . S
C277 C278 1.385 . S
C277 H279 0.950 . S
C278 C272 1.404 . S
C278 H276 0.949 . S
C278 C277 1.385 . S
H279 C277 0.950 . S
H280 C264 0.951 . S
H281 C266 0.951 1_645 S
H282 C268 0.951 . S
H283 C269 0.950 . S
H284 C270 0.950 . S
H285 C271 0.950 . S
H286 C273 0.950 . S
H287 C274 0.951 . S
C288 C289 1.386 1_545 S
C288 C290 1.383 . S
C288 H304 0.951 . S
C289 C288 1.386 1_565 S
C289 C293 1.383 . S
C290 C288 1.383 . S
C290 C291 1.402 . S
C290 H305 0.951 . S
C291 C290 1.402 . S
C291 C292 1.375 . S
C291 C294 1.481 . S
C292 C291 1.375 . S
C292 C293 1.367 1_545 S
C292 H306 0.953 1_545 S
C293 C289 1.383 . S
C293 C292 1.367 1_565 S
C293 H307 0.950 . S
C294 C291 1.481 . S
C294 C295 1.297 . S
C294 H308 0.950 . S
C295 C294 1.297 . S
C295 C296 1.479 . S
C295 H309 0.950 . S
C296 C295 1.479 . S
C296 C297 1.375 . S
C296 C302 1.404 . S
C297 C296 1.375 . S
C297 C298 1.369 . S
C297 H310 0.950 . S
C298 C297 1.369 . S
C298 C299 1.392 1_455 S
C298 H311 0.951 . S
C299 C298 1.392 1_655 S
C299 C301 1.384 . S
H300 C302 0.949 . S
C301 C299 1.384 . S
C301 C302 1.385 1_655 S
C301 H303 0.950 . S
C302 C296 1.404 . S
C302 H300 0.949 . S
C302 C301 1.385 1_455 S
H303 C301 0.950 . S
H304 C288 0.951 . S
H305 C290 0.951 . S
H306 C292 0.953 1_565 S
H307 C293 0.950 . S
H308 C294 0.950 . S
H309 C295 0.950 . S
H310 C297 0.950 . S
H311 C298 0.951 . S
C312 C313 1.386 . S
C312 C314 1.383 . S
C312 H328 0.951 . S
C313 C312 1.386 . S
C313 C317 1.383 . S
C314 C312 1.383 . S
C314 C315 1.402 . S
C314 H329 0.951 . S
C315 C314 1.402 . S
C315 C316 1.375 . S
C315 C318 1.481 . S
C316 C315 1.375 . S
C316 C317 1.367 . S
C316 H330 0.951 . S
C317 C313 1.383 . S
C317 C316 1.367 . S
C317 H331 0.950 . S
C318 C315 1.481 . S
C318 C319 1.297 . S
C318 H332 0.950 . S
C319 C318 1.297 . S
C319 C320 1.479 . S
C319 H333 0.950 . S
C320 C319 1.479 . S
C320 C321 1.375 . S
C320 C326 1.404 . S
C321 C320 1.375 . S
C321 C322 1.369 . S
C321 H334 0.950 . S
C322 C321 1.369 . S
C322 C323 1.392 . S
C322 H335 0.951 . S
C323 C322 1.392 . S
C323 C325 1.384 . S
H324 C326 0.949 . S
C325 C323 1.384 . S
C325 C326 1.385 . S
C325 H327 0.950 . S
C326 C320 1.404 . S
C326 H324 0.949 . S
C326 C325 1.385 . S
H327 C325 0.950 . S
H328 C312 0.951 . S
H329 C314 0.951 . S
H330 C316 0.951 . S
H331 C317 0.950 . S
H332 C318 0.950 . S
H333 C319 0.950 . S
H334 C321 0.950 . S
H335 C322 0.951 . S
C336 C337 1.386 . S
C336 C338 1.383 . S
C336 H352 0.951 . S
C337 C336 1.386 . S
C337 C341 1.383 . S
C338 C336 1.383 . S
C338 C339 1.402 . S
C338 H353 0.951 . S
C339 C338 1.402 . S
C339 C340 1.375 . S
C339 C342 1.481 . S
C340 C339 1.375 . S
C340 C341 1.367 . S
C340 H354 0.951 . S
C341 C337 1.383 . S
C341 C340 1.367 . S
C341 H355 0.950 . S
C342 C339 1.481 . S
C342 C343 1.297 . S
C342 H356 0.950 . S
C343 C342 1.297 . S
C343 C344 1.479 1_455 S
C343 H357 0.950 . S
C344 C343 1.479 1_655 S
C344 C345 1.375 . S
C344 C350 1.404 . S
C345 C344 1.375 . S
C345 C346 1.369 . S
C345 H358 0.950 . S
C346 C345 1.369 . S
C346 C347 1.392 . S
C346 H359 0.951 . S
C347 C346 1.392 . S
C347 C349 1.384 . S
H348 C350 0.949 . S
C349 C347 1.384 . S
C349 C350 1.385 . S
C349 H351 0.950 . S
C350 C344 1.404 . S
C350 H348 0.949 . S
C350 C349 1.385 . S
H351 C349 0.950 . S
H352 C336 0.951 . S
H353 C338 0.951 . S
H354 C340 0.951 . S
H355 C341 0.950 . S
H356 C342 0.950 . S
H357 C343 0.950 . S
H358 C345 0.950 . S
H359 C346 0.951 . S
C360 C361 1.386 . S
C360 C362 1.383 . S
C360 H376 0.951 . S
C361 C360 1.386 . S
C361 C365 1.383 . S
C362 C360 1.383 . S
C362 C363 1.402 . S
C362 H377 0.951 . S
C363 C362 1.402 . S
C363 C364 1.375 . S
C363 C366 1.481 . S
C364 C363 1.375 . S
C364 C365 1.367 . S
C364 H378 0.951 . S
C365 C361 1.383 . S
C365 C364 1.367 . S
C365 H379 0.950 . S
C366 C363 1.481 . S
C366 C367 1.297 1_545 S
C366 H380 0.950 . S
C367 C366 1.297 1_565 S
C367 C368 1.479 . S
C367 H381 0.950 . S
C368 C367 1.479 . S
C368 C369 1.375 . S
C368 C374 1.404 . S
C369 C368 1.375 . S
C369 C370 1.369 . S
C369 H382 0.950 . S
C370 C369 1.369 . S
C370 C371 1.392 . S
C370 H383 0.951 . S
C371 C370 1.392 . S
C371 C373 1.384 . S
H372 C374 0.949 . S
C373 C371 1.384 . S
C373 C374 1.385 . S
C373 H375 0.950 . S
C374 C368 1.404 . S
C374 H372 0.949 . S
C374 C373 1.385 . S
H375 C373 0.950 . S
H376 C360 0.951 . S
H377 C362 0.951 . S
H378 C364 0.951 . S
H379 C365 0.950 . S
H380 C366 0.950 . S
H381 C367 0.950 . S
H382 C369 0.950 . S
H383 C370 0.951 . S
C384 C385 1.386 . S
C384 C386 1.383 . S
C384 H400 0.951 . S
C385 C384 1.386 . S
C385 C389 1.383 . S
C386 C384 1.383 . S
C386 C387 1.402 . S
C386 H401 0.951 . S
C387 C386 1.402 . S
C387 C388 1.375 . S
C387 C390 1.481 . S
C388 C387 1.375 . S
C388 C389 1.367 . S
C388 H402 0.951 . S
C389 C385 1.383 . S
C389 C388 1.367 . S
C389 H403 0.950 . S
C390 C387 1.481 . S
C390 C391 1.297 . S
C390 H404 0.950 . S
C391 C390 1.297 . S
C391 C392 1.479 . S
C391 H405 0.950 . S
C392 C391 1.479 . S
C392 C393 1.375 . S
C392 C398 1.404 . S
C393 C392 1.375 . S
C393 C394 1.369 1_655 S
C393 H406 0.950 . S
C394 C393 1.369 1_455 S
C394 C395 1.392 . S
C394 H407 0.951 . S
C395 C394 1.392 . S
C395 C397 1.384 1_455 S
H396 C398 0.949 . S
C397 C395 1.384 1_655 S
C397 C398 1.385 . S
C397 H399 0.950 . S
C398 C392 1.404 . S
C398 H396 0.949 . S
C398 C397 1.385 . S
H399 C397 0.950 . S
H400 C384 0.951 . S
H401 C386 0.951 . S
H402 C388 0.951 . S
H403 C389 0.950 . S
H404 C390 0.950 . S
H405 C391 0.950 . S
H406 C393 0.950 . S
H407 C394 0.951 . S
C408 C409 1.386 . S
C408 C410 1.383 . S
C408 H424 0.951 . S
C409 C408 1.386 . S
C409 C413 1.383 1_455 S
C410 C408 1.383 . S
C410 C411 1.402 . S
C410 H425 0.951 . S
C411 C410 1.402 . S
C411 C412 1.375 . S
C411 C414 1.481 . S
C412 C411 1.375 . S
C412 C413 1.367 1_455 S
C412 H426 0.951 . S
C413 C409 1.383 1_655 S
C413 C412 1.367 1_655 S
C413 H427 0.950 . S
C414 C411 1.481 . S
C414 C415 1.297 . S
C414 H428 0.950 . S
C415 C414 1.297 . S
C415 C416 1.479 . S
C415 H429 0.950 . S
C416 C415 1.479 . S
C416 C417 1.375 . S
C416 C422 1.404 . S
C417 C416 1.375 . S
C417 C418 1.369 . S
C417 H430 0.950 . S
C418 C417 1.369 . S
C418 C419 1.392 1_565 S
C418 H431 0.951 1_565 S
C419 C418 1.392 1_545 S
C419 C421 1.384 1_545 S
H420 C422 0.949 . S
C421 C419 1.384 1_565 S
C421 C422 1.385 . S
C421 H423 0.950 . S
C422 C416 1.404 . S
C422 H420 0.949 . S
C422 C421 1.385 . S
H423 C421 0.950 . S
H424 C408 0.951 . S
H425 C410 0.951 . S
H426 C412 0.951 . S
H427 C413 0.950 . S
H428 C414 0.950 . S
H429 C415 0.950 . S
H430 C417 0.950 . S
H431 C418 0.951 1_545 S
C432 C433 1.386 . S
C432 C434 1.383 . S
C432 H448 0.951 . S
C433 C432 1.386 . S
C433 C437 1.383 . S
C434 C432 1.383 . S
C434 C435 1.402 . S
C434 H449 0.951 . S
C435 C434 1.402 . S
C435 C436 1.375 . S
C435 C438 1.481 . S
C436 C435 1.375 . S
C436 C437 1.367 . S
C436 H450 0.951 . S
C437 C433 1.383 . S
C437 C436 1.367 . S
C437 H451 0.950 1_545 S
C438 C435 1.481 . S
C438 C439 1.297 . S
C438 H452 0.950 . S
C439 C438 1.297 . S
C439 C440 1.479 . S
C439 H453 0.950 . S
C440 C439 1.479 . S
C440 C441 1.375 . S
C440 C446 1.404 . S
C441 C440 1.375 . S
C441 C442 1.369 . S
C441 H454 0.950 . S
C442 C441 1.369 . S
C442 C443 1.392 . S
C442 H455 0.951 . S
C443 C442 1.392 . S
C443 C445 1.384 . S
H444 C446 0.949 . S
C445 C443 1.384 . S
C445 C446 1.385 . S
C445 H447 0.950 . S
C446 C440 1.404 . S
C446 H444 0.949 . S
C446 C445 1.385 . S
H447 C445 0.950 . S
H448 C432 0.951 . S
H449 C434 0.951 . S
H450 C436 0.951 . S
H451 C437 0.950 1_565 S
H452 C438 0.950 . S
H453 C439 0.950 . S
H454 C441 0.950 . S
H455 C442 0.951 . S
C456 C457 1.386 . S
C456 C458 1.383 . S
C456 H472 0.951 . S
C457 C456 1.386 . S
C457 C461 1.383 1_554 S
C458 C456 1.383 . S
C458 C459 1.402 . S
C458 H473 0.951 . S
C459 C458 1.402 . S
C459 C460 1.375 1_554 S
C459 C462 1.481 . S
C460 C459 1.375 1_556 S
C460 C461 1.367 . S
C460 H474 0.951 . S
C461 C457 1.383 1_556 S
C461 C460 1.367 . S
C461 H475 0.950 . S
C462 C459 1.481 . S
C462 C463 1.297 . S
C462 H476 0.950 1_554 S
C463 C462 1.297 . S
C463 C464 1.479 . S
C463 H477 0.950 . S
C464 C463 1.479 . S
C464 C465 1.365 1_545 S
C464 C470 1.404 1_554 S
C465 C464 1.365 1_565 S
C465 C466 1.382 . S
C465 H478 0.948 . S
C466 C465 1.382 . S
C466 C467 1.392 . S
C466 H479 0.951 . S
C467 C466 1.392 . S
C467 C469 1.384 1_564 S
H468 C470 0.949 . S
C469 C467 1.384 1_546 S
C469 C470 1.385 . S
C469 H471 0.950 . S
C470 C464 1.404 1_556 S
C470 H468 0.949 . S
C470 C469 1.385 . S
H471 C469 0.950 . S
H472 C456 0.951 . S
H473 C458 0.951 . S
H474 C460 0.951 . S
H475 C461 0.950 . S
H476 C462 0.950 1_556 S
H477 C463 0.950 . S
H478 C465 0.948 . S
H479 C466 0.951 . S
C480 C481 1.386 . S
C480 C482 1.383 . S
C480 H496 0.951 . S
C481 C480 1.386 . S
C481 C485 1.383 . S
C482 C480 1.383 . S
C482 C483 1.402 . S
C482 H497 0.951 . S
C483 C482 1.402 . S
C483 C484 1.375 . S
C483 C486 1.481 . S
C484 C483 1.375 . S
C484 C485 1.367 . S
C484 H498 0.951 . S
C485 C481 1.383 . S
C485 C484 1.367 . S
C485 H499 0.950 . S
C486 C483 1.481 . S
C486 C487 1.297 . S
C486 H500 0.950 . S
C487 C486 1.297 . S
C487 C488 1.479 . S
C487 H501 0.950 . S
C488 C487 1.479 . S
C488 C489 1.375 . S
C488 C494 1.404 . S
C489 C488 1.375 . S
C489 C490 1.369 . S
C489 H502 0.950 . S
C490 C489 1.369 . S
C490 C491 1.392 . S
C490 H503 0.951 . S
C491 C490 1.392 . S
C491 C493 1.384 . S
H492 C494 0.949 . S
C493 C491 1.384 . S
C493 C494 1.385 . S
C493 H495 0.950 . S
C494 C488 1.404 . S
C494 H492 0.949 . S
C494 C493 1.385 . S
H495 C493 0.950 . S
H496 C480 0.951 . S
H497 C482 0.951 . S
H498 C484 0.951 . S
H499 C485 0.950 . S
H500 C486 0.950 . S
H501 C487 0.950 . S
H502 C489 0.950 . S
H503 C490 0.951 . S
C504 C505 1.386 1_455 S
C504 C506 1.383 . S
C504 H520 0.951 . S
C505 C504 1.386 1_655 S
C505 C509 1.383 . S
C506 C504 1.383 . S
C506 C507 1.402 . S
C506 H521 0.951 . S
C507 C506 1.402 . S
C507 C508 1.374 1_455 S
C507 C510 1.481 . S
C508 C507 1.374 1_655 S
C508 C509 1.367 . S
C508 H522 0.952 . S
C509 C505 1.383 . S
C509 C508 1.367 . S
C509 H523 0.950 . S
C510 C507 1.481 . S
C510 C511 1.297 . S
C510 H524 0.950 . S
C511 C510 1.297 . S
C511 C512 1.479 . S
C511 H525 0.950 . S
C512 C511 1.479 . S
C512 C513 1.375 . S
C512 C518 1.404 . S
C513 C512 1.375 . S
C513 C514 1.369 . S
C513 H526 0.950 . S
C514 C513 1.369 . S
C514 C515 1.392 . S
C514 H527 0.951 . S
C515 C514 1.392 . S
C515 C517 1.384 . S
H516 C518 0.949 . S
C517 C515 1.384 . S
C517 C518 1.385 . S
C517 H519 0.950 . S
C518 C512 1.404 . S
C518 H516 0.949 . S
C518 C517 1.385 . S
H519 C517 0.950 . S
H520 C504 0.951 . S
H521 C506 0.951 . S
H522 C508 0.952 . S
H523 C509 0.950 . S
H524 C510 0.950 . S
H525 C511 0.950 . S
H526 C513 0.950 . S
H527 C514 0.951 . S
C528 C529 1.386 . S
C528 C530 1.383 . S
C528 H544 0.951 . S
C529 C528 1.386 . S
C529 C533 1.383 . S
C530 C528 1.383 . S
C530 C531 1.402 . S
C530 H545 0.951 . S
C531 C530 1.402 . S
C531 C532 1.375 . S
C531 C534 1.481 . S
C532 C531 1.375 . S
C532 C533 1.367 . S
C532 H546 0.951 . S
C533 C529 1.383 . S
C533 C532 1.367 . S
C533 H547 0.950 . S
C534 C531 1.481 . S
C534 C535 1.297 . S
C534 H548 0.950 . S
C535 C534 1.297 . S
C535 C536 1.479 . S
C535 H549 0.950 . S
C536 C535 1.479 . S
C536 C537 1.375 . S
C536 C542 1.404 . S
C537 C536 1.375 . S
C537 C538 1.369 . S
C537 H550 0.950 . S
C538 C537 1.369 . S
C538 C539 1.392 . S
C538 H551 0.951 . S
C539 C538 1.392 . S
C539 C541 1.384 . S
H540 C542 0.949 . S
C541 C539 1.384 . S
C541 C542 1.385 . S
C541 H543 0.950 . S
C542 C536 1.404 . S
C542 H540 0.949 . S
C542 C541 1.385 . S
H543 C541 0.950 . S
H544 C528 0.951 . S
H545 C530 0.951 . S
H546 C532 0.951 . S
H547 C533 0.950 . S
H548 C534 0.950 . S
H549 C535 0.950 . S
H550 C537 0.950 . S
H551 C538 0.951 . S
C552 C553 1.386 . S
C552 C554 1.383 . S
C552 H568 0.951 . S
C553 C552 1.386 . S
C553 C557 1.383 . S
C554 C552 1.383 . S
C554 C555 1.402 . S
C554 H569 0.951 . S
C555 C554 1.402 . S
C555 C556 1.375 . S
C555 C558 1.481 . S
C556 C555 1.375 . S
C556 C557 1.367 . S
C556 H570 0.951 . S
C557 C553 1.383 . S
C557 C556 1.367 . S
C557 H571 0.950 . S
C558 C555 1.481 . S
C558 C559 1.297 . S
C558 H572 0.950 . S
C559 C558 1.297 . S
C559 C560 1.479 . S
C559 H573 0.950 . S
C560 C559 1.479 . S
C560 C561 1.375 . S
C560 C566 1.404 . S
C561 C560 1.375 . S
C561 C562 1.369 . S
C561 H574 0.950 . S
C562 C561 1.369 . S
C562 C563 1.392 . S
C562 H575 0.951 . S
C563 C562 1.392 . S
C563 C565 1.384 . S
H564 C566 0.949 . S
C565 C563 1.384 . S
C565 C566 1.385 . S
C565 H567 0.950 . S
C566 C560 1.404 . S
C566 H564 0.949 . S
C566 C565 1.385 . S
H567 C565 0.950 . S
H568 C552 0.951 . S
H569 C554 0.951 . S
H570 C556 0.951 . S
H571 C557 0.950 . S
H572 C558 0.950 . S
H573 C559 0.950 . S
H574 C561 0.950 . S
H575 C562 0.951 . S
C576 C577 1.386 . S
C576 C578 1.383 . S
C576 H592 0.951 . S
C577 C576 1.386 . S
C577 C581 1.383 . S
C578 C576 1.383 . S
C578 C579 1.402 . S
C578 H593 0.951 . S
C579 C578 1.402 . S
C579 C580 1.375 . S
C579 C582 1.481 . S
C580 C579 1.375 . S
C580 C581 1.367 . S
C580 H594 0.951 1_655 S
C581 C577 1.383 . S
C581 C580 1.367 . S
C581 H595 0.950 1_655 S
C582 C579 1.481 . S
C582 C583 1.297 . S
C582 H596 0.950 . S
C583 C582 1.297 . S
C583 C584 1.479 . S
C583 H597 0.950 . S
C584 C583 1.479 . S
C584 C585 1.375 . S
C584 C590 1.404 . S
C585 C584 1.375 . S
C585 C586 1.369 . S
C585 H598 0.950 . S
C586 C585 1.369 . S
C586 C587 1.392 . S
C586 H599 0.951 . S
C587 C586 1.392 . S
C587 C589 1.384 . S
H588 C590 0.949 . S
C589 C587 1.384 . S
C589 C590 1.385 . S
C589 H591 0.950 . S
C590 C584 1.404 . S
C590 H588 0.949 . S
C590 C589 1.385 . S
H591 C589 0.950 . S
H592 C576 0.951 . S
H593 C578 0.951 . S
H594 C580 0.951 1_455 S
H595 C581 0.950 1_455 S
H596 C582 0.950 . S
H597 C583 0.950 . S
H598 C585 0.950 . S
H599 C586 0.951 . S
C600 C601 1.386 . S
C600 C602 1.383 . S
C600 H616 0.951 . S
C601 C600 1.386 . S
C601 C605 1.383 . S
C602 C600 1.383 . S
C602 C603 1.402 . S
C602 H617 0.951 . S
C603 C602 1.402 . S
C603 C604 1.375 . S
C603 C606 1.481 . S
C604 C603 1.375 . S
C604 C605 1.367 . S
C604 H618 0.951 . S
C605 C601 1.383 . S
C605 C604 1.367 . S
C605 H619 0.950 . S
C606 C603 1.481 . S
C606 C607 1.297 . S
C606 H620 0.950 . S
C607 C606 1.297 . S
C607 C608 1.479 . S
C607 H621 0.950 . S
C608 C607 1.479 . S
C608 C609 1.375 . S
C608 C614 1.404 . S
C609 C608 1.375 . S
C609 C610 1.369 . S
C609 H622 0.950 . S
C610 C609 1.369 . S
C610 C611 1.392 . S
C610 H623 0.951 . S
C611 C610 1.392 . S
C611 C613 1.384 . S
H612 C614 0.949 . S
C613 C611 1.384 . S
C613 C614 1.385 . S
C613 H615 0.950 . S
C614 C608 1.404 . S
C614 H612 0.949 . S
C614 C613 1.385 . S
H615 C613 0.950 . S
H616 C600 0.951 . S
H617 C602 0.951 . S
H618 C604 0.951 . S
H619 C605 0.950 . S
H620 C606 0.950 . S
H621 C607 0.950 . S
H622 C609 0.950 . S
H623 C610 0.951 . S
C624 C625 1.386 . S
C624 C626 1.383 1_655 S
C624 H640 0.951 . S
C625 C624 1.386 . S
C625 C629 1.383 . S
C626 C624 1.383 1_455 S
C626 C627 1.402 . S
C626 H641 0.951 . S
C627 C626 1.402 . S
C627 C628 1.375 . S
C627 C630 1.481 . S
C628 C627 1.375 . S
C628 C629 1.367 1_455 S
C628 H642 0.951 . S
C629 C625 1.383 . S
C629 C628 1.367 1_655 S
C629 H643 0.950 . S
C630 C627 1.481 . S
C630 C631 1.297 . S
C630 H644 0.950 . S
C631 C630 1.297 . S
C631 C632 1.479 . S
C631 H645 0.950 . S
C632 C631 1.479 . S
C632 C633 1.375 . S
C632 C638 1.404 . S
C633 C632 1.375 . S
C633 C634 1.369 . S
C633 H646 0.950 . S
C634 C633 1.369 . S
C634 C635 1.392 . S
C634 H647 0.951 . S
C635 C634 1.392 . S
C635 C637 1.384 . S
H636 C638 0.949 . S
C637 C635 1.384 . S
C637 C638 1.385 . S
C637 H639 0.950 . S
C638 C632 1.404 . S
C638 H636 0.949 . S
C638 C637 1.385 . S
H639 C637 0.950 . S
H640 C624 0.951 . S
H641 C626 0.951 . S
H642 C628 0.951 . S
H643 C629 0.950 . S
H644 C630 0.950 . S
H645 C631 0.950 . S
H646 C633 0.950 . S
H647 C634 0.951 . S
C648 C649 1.386 . S
C648 C650 1.383 . S
C648 H664 0.951 . S
C649 C648 1.386 . S
C649 C653 1.383 . S
C650 C648 1.383 . S
C650 C651 1.405 1_565 S
C650 H665 0.951 . S
C651 C650 1.405 1_545 S
C651 C652 1.370 . S
C651 C654 1.484 . S
C652 C651 1.370 . S
C652 C653 1.367 1_545 S
C652 H666 0.951 . S
C653 C649 1.383 . S
C653 C652 1.367 1_565 S
C653 H667 0.950 1_565 S
C654 C651 1.484 . S
C654 C655 1.297 . S
C654 H668 0.950 . S
C655 C654 1.297 . S
C655 C656 1.479 . S
C655 H669 0.950 1_545 S
C656 C655 1.479 . S
C656 C657 1.375 . S
C656 C662 1.404 . S
C657 C656 1.375 . S
C657 C658 1.369 . S
C657 H670 0.950 . S
C658 C657 1.369 . S
C658 C659 1.392 . S
C658 H671 0.951 . S
C659 C658 1.392 . S
C659 C661 1.384 . S
H660 C662 0.949 . S
C661 C659 1.384 . S
C661 C662 1.385 . S
C661 H663 0.950 . S
C662 C656 1.404 . S
C662 H660 0.949 . S
C662 C661 1.385 . S
H663 C661 0.950 . S
H664 C648 0.951 . S
H665 C650 0.951 . S
H666 C652 0.951 . S
H667 C653 0.950 1_545 S
H668 C654 0.950 . S
H669 C655 0.950 1_565 S
H670 C657 0.950 . S
H671 C658 0.951 . S
C241 C129 0.743 1_565 S
C251 C9 0.944 . S
C265 C169 0.803 . S
C275 C49 0.873 . S
C289 C209 0.837 . S
C299 C89 0.742 1_655 S
C313 C15 0.691 . S
C323 C86 0.526 . S
C337 C55 0.545 . S
C347 C126 0.514 . S
C361 C95 0.729 . S
C371 C166 0.740 . S
C385 C135 0.568 . S
C395 C206 0.687 . S
C409 C175 0.736 . S
C419 C6 0.662 . S
C433 C215 0.633 . S
C443 C46 0.461 . S
C457 C18 1.067 . S
C467 C138 1.087 . S
C481 C58 1.068 . S
C491 C178 1.098 . S
C505 C98 1.071 . S
C515 C218 1.076 . S
C529 C10 3.955 . S
C539 C59 4.008 . S
C553 C50 3.968 . S
C563 C99 4.003 . S
C577 C90 3.950 . S
C587 C139 4.002 . S
C601 C130 3.955 . S
C611 C179 4.007 . S
C625 C170 3.949 . S
C635 C219 3.998 . S
C649 C210 3.968 . S
C659 C19 4.005 . S
