# Generated by pormake.
# Topology gme, (4)-cn, num edge types: 1
# Building blocks:
#     Node 0, Type 0, BuildingBlock: ICAMEG_clean_sbu_1, # of connection points: 4
#     Node 1, Type 0, BuildingBlock: ICAMEG_clean_sbu_1, # of connection points: 4
#     Node 2, Type 0, BuildingBlock: ICAMEG_clean_sbu_1, # of connection points: 4
#     Node 3, Type 0, BuildingBlock: ICAMEG_clean_sbu_1, # of connection points: 4
#     Node 4, Type 0, BuildingBlock: ICAMEG_clean_sbu_1, # of connection points: 4
#     Node 5, Type 0, BuildingBlock: ICAMEG_clean_sbu_1, # of connection points: 4
#     Node 6, Type 0, BuildingBlock: ICAMEG_clean_sbu_1, # of connection points: 4
#     Node 7, Type 0, BuildingBlock: ICAMEG_clean_sbu_1, # of connection points: 4
#     Node 8, Type 0, BuildingBlock: ICAMEG_clean_sbu_1, # of connection points: 4
#     Node 9, Type 0, BuildingBlock: ICAMEG_clean_sbu_1, # of connection points: 4
#     Node 10, Type 0, BuildingBlock: ICAMEG_clean_sbu_1, # of connection points: 4
#     Node 11, Type 0, BuildingBlock: ICAMEG_clean_sbu_1, # of connection points: 4
#     Node 12, Type 0, BuildingBlock: ICAMEG_clean_sbu_1, # of connection points: 4
#     Node 13, Type 0, BuildingBlock: ICAMEG_clean_sbu_1, # of connection points: 4
#     Node 14, Type 0, BuildingBlock: ICAMEG_clean_sbu_1, # of connection points: 4
#     Node 15, Type 0, BuildingBlock: ICAMEG_clean_sbu_1, # of connection points: 4
#     Node 16, Type 0, BuildingBlock: ICAMEG_clean_sbu_1, # of connection points: 4
#     Node 17, Type 0, BuildingBlock: ICAMEG_clean_sbu_1, # of connection points: 4
#     Node 18, Type 0, BuildingBlock: ICAMEG_clean_sbu_1, # of connection points: 4
#     Node 19, Type 0, BuildingBlock: ICAMEG_clean_sbu_1, # of connection points: 4
#     Node 20, Type 0, BuildingBlock: ICAMEG_clean_sbu_1, # of connection points: 4
#     Node 21, Type 0, BuildingBlock: ICAMEG_clean_sbu_1, # of connection points: 4
#     Node 22, Type 0, BuildingBlock: ICAMEG_clean_sbu_1, # of connection points: 4
#     Node 23, Type 0, BuildingBlock: ICAMEG_clean_sbu_1, # of connection points: 4
#     Edge 24, Type (0, 0), BuildingBlock: CIFDUS_clean_linker_0, # of connection points: 2
#     Edge 25, Type (0, 0), BuildingBlock: CIFDUS_clean_linker_0, # of connection points: 2
#     Edge 26, Type (0, 0), BuildingBlock: CIFDUS_clean_linker_0, # of connection points: 2
#     Edge 27, Type (0, 0), BuildingBlock: CIFDUS_clean_linker_0, # of connection points: 2
#     Edge 28, Type (0, 0), BuildingBlock: CIFDUS_clean_linker_0, # of connection points: 2
#     Edge 29, Type (0, 0), BuildingBlock: CIFDUS_clean_linker_0, # of connection points: 2
#     Edge 30, Type (0, 0), BuildingBlock: CIFDUS_clean_linker_0, # of connection points: 2
#     Edge 31, Type (0, 0), BuildingBlock: CIFDUS_clean_linker_0, # of connection points: 2
#     Edge 32, Type (0, 0), BuildingBlock: CIFDUS_clean_linker_0, # of connection points: 2
#     Edge 33, Type (0, 0), BuildingBlock: CIFDUS_clean_linker_0, # of connection points: 2
#     Edge 34, Type (0, 0), BuildingBlock: CIFDUS_clean_linker_0, # of connection points: 2
#     Edge 35, Type (0, 0), BuildingBlock: CIFDUS_clean_linker_0, # of connection points: 2
#     Edge 36, Type (0, 0), BuildingBlock: CIFDUS_clean_linker_0, # of connection points: 2
#     Edge 37, Type (0, 0), BuildingBlock: CIFDUS_clean_linker_0, # of connection points: 2
#     Edge 38, Type (0, 0), BuildingBlock: CIFDUS_clean_linker_0, # of connection points: 2
#     Edge 39, Type (0, 0), BuildingBlock: CIFDUS_clean_linker_0, # of connection points: 2
#     Edge 40, Type (0, 0), BuildingBlock: CIFDUS_clean_linker_0, # of connection points: 2
#     Edge 41, Type (0, 0), BuildingBlock: CIFDUS_clean_linker_0, # of connection points: 2
#     Edge 42, Type (0, 0), BuildingBlock: CIFDUS_clean_linker_0, # of connection points: 2
#     Edge 43, Type (0, 0), BuildingBlock: CIFDUS_clean_linker_0, # of connection points: 2
#     Edge 44, Type (0, 0), BuildingBlock: CIFDUS_clean_linker_0, # of connection points: 2
#     Edge 45, Type (0, 0), BuildingBlock: CIFDUS_clean_linker_0, # of connection points: 2
#     Edge 46, Type (0, 0), BuildingBlock: CIFDUS_clean_linker_0, # of connection points: 2
#     Edge 47, Type (0, 0), BuildingBlock: CIFDUS_clean_linker_0, # of connection points: 2
#     Edge 48, Type (0, 0), BuildingBlock: CIFDUS_clean_linker_0, # of connection points: 2
#     Edge 49, Type (0, 0), BuildingBlock: CIFDUS_clean_linker_0, # of connection points: 2
#     Edge 50, Type (0, 0), BuildingBlock: CIFDUS_clean_linker_0, # of connection points: 2
#     Edge 51, Type (0, 0), BuildingBlock: CIFDUS_clean_linker_0, # of connection points: 2
#     Edge 52, Type (0, 0), BuildingBlock: CIFDUS_clean_linker_0, # of connection points: 2
#     Edge 53, Type (0, 0), BuildingBlock: CIFDUS_clean_linker_0, # of connection points: 2
#     Edge 54, Type (0, 0), BuildingBlock: CIFDUS_clean_linker_0, # of connection points: 2
#     Edge 55, Type (0, 0), BuildingBlock: CIFDUS_clean_linker_0, # of connection points: 2
#     Edge 56, Type (0, 0), BuildingBlock: CIFDUS_clean_linker_0, # of connection points: 2
#     Edge 57, Type (0, 0), BuildingBlock: CIFDUS_clean_linker_0, # of connection points: 2
#     Edge 58, Type (0, 0), BuildingBlock: CIFDUS_clean_linker_0, # of connection points: 2
#     Edge 59, Type (0, 0), BuildingBlock: CIFDUS_clean_linker_0, # of connection points: 2
#     Edge 60, Type (0, 0), BuildingBlock: CIFDUS_clean_linker_0, # of connection points: 2
#     Edge 61, Type (0, 0), BuildingBlock: CIFDUS_clean_linker_0, # of connection points: 2
#     Edge 62, Type (0, 0), BuildingBlock: CIFDUS_clean_linker_0, # of connection points: 2
#     Edge 63, Type (0, 0), BuildingBlock: CIFDUS_clean_linker_0, # of connection points: 2
#     Edge 64, Type (0, 0), BuildingBlock: CIFDUS_clean_linker_0, # of connection points: 2
#     Edge 65, Type (0, 0), BuildingBlock: CIFDUS_clean_linker_0, # of connection points: 2
#     Edge 66, Type (0, 0), BuildingBlock: CIFDUS_clean_linker_0, # of connection points: 2
#     Edge 67, Type (0, 0), BuildingBlock: CIFDUS_clean_linker_0, # of connection points: 2
#     Edge 68, Type (0, 0), BuildingBlock: CIFDUS_clean_linker_0, # of connection points: 2
#     Edge 69, Type (0, 0), BuildingBlock: CIFDUS_clean_linker_0, # of connection points: 2
#     Edge 70, Type (0, 0), BuildingBlock: CIFDUS_clean_linker_0, # of connection points: 2
#     Edge 71, Type (0, 0), BuildingBlock: CIFDUS_clean_linker_0, # of connection points: 2
# Relax obj value: 0.062
# Max RMSD: 0.064
# Mean RMSD: 0.064
data_MOF--net-gme--node1-ICAMEG_clean_sbu_1--edge1-CIFDUS_clean_linker_0
_symmetry_space_group_name_H-M    P1
_symmetry_Int_Tables_number       1
_symmetry_cell_setting            triclinic
loop_
_symmetry_equiv_pos_as_xyz
'x, y, z'
_cell_length_a     52.279624
_cell_length_b     52.258461
_cell_length_c     53.006143
_cell_angle_alpha  89.992255
_cell_angle_beta   90.013683
_cell_angle_gamma 120.00232
loop_
_atom_site_label
_atom_site_type_symbol
_atom_site_fract_x
_atom_site_fract_y
_atom_site_fract_z
_atom_type_partial_charge
Co0 Co 0.43158 0.09865 0.12451 0.0
Co1 Co 0.38686 0.0228 0.129 0.0
O2 O 0.39675 0.06143 0.1153 0.0
C3 C 0.38365 0.11073 0.13846 0.0
O4 O 0.37129 0.08615 0.15161 0.0
C5 C 0.39431 0.01886 0.07455 0.0
O6 O 0.41822 0.04475 0.07705 0.0
O7 O 0.42826 0.03096 0.12565 0.0
O8 O 0.45695 0.08023 0.12353 0.0
H9 H 0.39924 0.95268 0.18569 0.0
H10 H 0.39477 0.09695 0.08132 0.0
O11 O 0.40706 0.11824 0.1258 0.0
H12 H 0.49369 0.13047 0.04571 0.0
H13 H 0.49787 0.20911 0.12148 0.0
H14 H 0.48185 0.11613 0.1596 0.0
H15 H 0.48446 0.12021 0.09123 0.0
H16 H 0.45467 0.16143 0.10948 0.0
O17 O 0.37839 0.00592 0.0938 0.0
H18 H 0.412 0.0015 0.16842 0.0
H19 H 0.33943 0.96125 0.11779 0.0
H20 H 0.52552 0.16328 0.17193 0.0
H21 H 0.40309 0.10718 0.03571 0.0
H22 H 0.53373 0.21021 0.15283 0.0
H23 H 0.45281 0.12393 0.01762 0.0
O24 O 0.42404 0.08893 0.16102 0.0
H25 H 0.29351 0.01855 0.0993 0.0
H26 H 0.34251 0.99963 0.17052 0.0
H27 H 0.29148 0.98983 0.17554 0.0
H28 H 0.26662 0.99923 0.13973 0.0
H29 H 0.34462 0.02828 0.09518 0.0
H30 H 0.32603 0.91196 0.13434 0.0
H31 H 0.35598 0.90748 0.16861 0.0
O32 O 0.39563 0.03946 0.16407 0.0
C33 C 0.45348 0.05431 0.12416 0.0
C34 C 0.38597 0.95435 0.17081 0.0
C35 C 0.3449 0.9315 0.14196 0.0
N36 N 0.37634 0.9842 0.14227 0.0
C37 C 0.39303 0.98193 0.16101 0.0
C38 C 0.35263 0.95944 0.13263 0.0
C39 C 0.36171 0.929 0.1612 0.0
C40 C 0.41655 0.10456 0.07362 0.0
N41 N 0.43913 0.10811 0.08893 0.0
C42 C 0.4211 0.1102 0.04777 0.0
C43 C 0.44899 0.11955 0.03763 0.0
C44 C 0.47193 0.1232 0.05338 0.0
C45 C 0.46657 0.11732 0.07913 0.0
C46 C 0.49458 0.1888 0.12988 0.0
C47 C 0.48541 0.13643 0.15106 0.0
C48 C 0.47014 0.16174 0.1232 0.0
N49 N 0.4659 0.136 0.13366 0.0
C50 C 0.51012 0.16307 0.15818 0.0
C51 C 0.5147 0.1894 0.14747 0.0
C52 C 0.41013 0.0652 0.17392 0.0
C53 C 0.30408 0.01429 0.11502 0.0
C54 C 0.33187 0.00386 0.15489 0.0
C55 C 0.30295 0.99821 0.15782 0.0
C56 C 0.28902 0.00348 0.13772 0.0
N57 N 0.34645 0.01436 0.13253 0.0
C58 C 0.33297 0.01965 0.11276 0.0
Co59 Co 0.32315 0.42658 0.64064 0.0
Co60 Co 0.3652 0.39352 0.63025 0.0
O61 O 0.33125 0.39857 0.62316 0.0
C62 C 0.2613 0.38775 0.6573 0.0
O63 O 0.27064 0.39471 0.68065 0.0
C64 C 0.36949 0.40788 0.57608 0.0
O65 O 0.36474 0.42932 0.58277 0.0
O66 O 0.39295 0.43693 0.62901 0.0
O67 O 0.36596 0.45699 0.64185 0.0
H68 H 0.45907 0.41488 0.67408 0.0
H69 H 0.29168 0.3992 0.59291 0.0
O70 O 0.27985 0.39678 0.63919 0.0
H71 H 0.34527 0.5065 0.5768 0.0
H72 H 0.26678 0.47995 0.65691 0.0
H73 H 0.3491 0.46615 0.68474 0.0
H74 H 0.34814 0.48699 0.61839 0.0
H75 H 0.27833 0.44577 0.63424 0.0
O76 O 0.37087 0.3911 0.59287 0.0
H77 H 0.41592 0.42083 0.66559 0.0
H78 H 0.38678 0.35521 0.60844 0.0
H79 H 0.33838 0.50064 0.7079 0.0
H80 H 0.28784 0.41781 0.55116 0.0
H81 H 0.29693 0.5077 0.69402 0.0
H82 H 0.31488 0.47181 0.54284 0.0
O83 O 0.32694 0.41089 0.67373 0.0
H84 H 0.2823 0.29674 0.59861 0.0
H85 H 0.35583 0.34569 0.6662 0.0
H86 H 0.32151 0.29193 0.66833 0.0
H87 H 0.28447 0.2671 0.63431 0.0
H88 H 0.31689 0.35051 0.59734 0.0
H89 H 0.42974 0.3487 0.61616 0.0
H90 H 0.46618 0.37859 0.64926 0.0
O91 O 0.36007 0.39598 0.66768 0.0
C92 C 0.39047 0.45904 0.63564 0.0
C93 C 0.44329 0.40165 0.65967 0.0
C94 C 0.42685 0.36453 0.62714 0.0
N95 N 0.39875 0.3882 0.63671 0.0
C96 C 0.41877 0.40486 0.65484 0.0
C97 C 0.40261 0.36835 0.62282 0.0
C98 C 0.44728 0.38131 0.64572 0.0
C99 C 0.3032 0.42275 0.58956 0.0
N100 N 0.31999 0.44197 0.60814 0.0
C101 C 0.30106 0.43315 0.56583 0.0
C102 C 0.31629 0.46345 0.56116 0.0
C103 C 0.33337 0.48292 0.58019 0.0
C104 C 0.33501 0.47173 0.60369 0.0
C105 C 0.28492 0.4771 0.66312 0.0
C106 C 0.3311 0.46918 0.67853 0.0
C107 C 0.29157 0.45777 0.65036 0.0
N108 N 0.31443 0.45401 0.65812 0.0
C109 C 0.32511 0.48871 0.69173 0.0
C110 C 0.30184 0.49266 0.68394 0.0
C111 C 0.34372 0.40154 0.68199 0.0
C112 C 0.29838 0.3073 0.61351 0.0
C113 C 0.33968 0.33507 0.65139 0.0
C114 C 0.32036 0.30461 0.65266 0.0
C115 C 0.29959 0.29069 0.63356 0.0
N116 N 0.33844 0.35119 0.6316 0.0
C117 C 0.31807 0.33772 0.61286 0.0
Co118 Co 0.90048 0.32806 0.13856 0.0
Co119 Co 0.97584 0.3601 0.12792 0.0
O120 O 0.93452 0.32979 0.1215 0.0
C121 C 0.88836 0.26482 0.13775 0.0
O122 O 0.91325 0.272 0.12624 0.0
C123 C 0.96617 0.36513 0.07365 0.0
O124 O 0.94073 0.36243 0.08019 0.0
O125 O 0.96648 0.39266 0.12677 0.0
O126 O 0.91813 0.3716 0.13521 0.0
H127 H 0.05801 0.44894 0.17087 0.0
H128 H 0.89203 0.29122 0.0927 0.0
O129 O 0.8811 0.28412 0.14306 0.0
H130 H 0.84572 0.35077 0.07226 0.0
H131 H 0.79246 0.28484 0.15881 0.0
H132 H 0.89368 0.36445 0.17798 0.0
H133 H 0.86882 0.35537 0.11376 0.0
H134 H 0.83514 0.28763 0.13643 0.0
O135 O 0.98349 0.36483 0.09048 0.0
H136 H 0.00617 0.41085 0.16297 0.0
H137 H 0.0333 0.37315 0.10529 0.0
H138 H 0.8516 0.36267 0.20061 0.0
H139 H 0.86885 0.28561 0.05121 0.0
H140 H 0.80056 0.32263 0.19108 0.0
H141 H 0.84553 0.3156 0.04064 0.0
O142 O 0.91974 0.33303 0.17186 0.0
H143 H 0.97664 0.27035 0.09485 0.0
H144 H 0.00868 0.34314 0.16393 0.0
H145 H 0.02109 0.30344 0.16559 0.0
H146 H 0.00513 0.26675 0.13082 0.0
H147 H 0.96429 0.31013 0.09414 0.0
H148 H 0.08542 0.41098 0.11241 0.0
H149 H 0.09805 0.44916 0.14547 0.0
O150 O 0.9688 0.35613 0.1654 0.0
C151 C 0.94317 0.39411 0.13047 0.0
C152 C 0.0528 0.43236 0.15647 0.0
C153 C 0.06818 0.41108 0.12363 0.0
N154 N 0.01676 0.38967 0.13384 0.0
C155 C 0.0235 0.41069 0.15197 0.0
C156 C 0.03863 0.38975 0.11966 0.0
C157 C 0.07525 0.43249 0.14219 0.0
C158 C 0.88148 0.30392 0.0886 0.0
N159 N 0.8814 0.3232 0.10597 0.0
C160 C 0.86857 0.30084 0.0649 0.0
C161 C 0.85556 0.31772 0.05895 0.0
C162 C 0.85568 0.33746 0.07667 0.0
C163 C 0.86884 0.33998 0.10016 0.0
C164 C 0.81459 0.30244 0.16308 0.0
C165 C 0.87151 0.3471 0.17358 0.0
C166 C 0.83886 0.3041 0.15051 0.0
N167 N 0.86687 0.32634 0.15574 0.0
C168 C 0.84778 0.34615 0.18652 0.0
C169 C 0.81915 0.32366 0.18118 0.0
C170 C 0.94624 0.34486 0.17992 0.0
C171 C 0.98375 0.28623 0.1101 0.0
C172 C 0.00137 0.32708 0.14886 0.0
C173 C 0.00861 0.30474 0.14984 0.0
C174 C -0.00031 0.28419 0.13031 0.0
N175 N 0.98569 0.32891 0.12899 0.0
C176 C 0.97693 0.30888 0.10975 0.0
Co177 Co 0.57514 0.9098 0.64017 0.0
Co178 Co 0.60907 0.98558 0.63504 0.0
O179 O 0.60378 0.94723 0.62473 0.0
C180 C 0.61253 0.88385 0.65296 0.0
O181 O 0.60666 0.88546 0.6768 0.0
C182 C 0.59797 0.98245 0.58001 0.0
O183 O 0.57614 0.95548 0.58382 0.0
O184 O 0.56581 0.97061 0.63269 0.0
O185 O 0.54563 0.92307 0.64405 0.0
H186 H 0.58655 0.05376 0.68484 0.0
H187 H 0.60184 0.9092 0.59097 0.0
O188 O 0.6039 0.89522 0.63605 0.0
H189 H 0.49463 0.85993 0.57517 0.0
H190 H 0.519 0.79882 0.64884 0.0
H191 H 0.53603 0.89307 0.68488 0.0
H192 H 0.51458 0.878 0.61769 0.0
H193 H 0.55395 0.84618 0.62873 0.0
O194 O 0.61353 0.99798 0.59858 0.0
H195 H 0.5804 0.00554 0.67226 0.0
H196 H 0.64912 0.04757 0.61826 0.0
H197 H 0.50078 0.8462 0.70555 0.0
H198 H 0.58278 0.89108 0.54822 0.0
H199 H 0.49211 0.79862 0.68754 0.0
H200 H 0.52882 0.86636 0.54008 0.0
O201 O 0.59122 0.92594 0.67412 0.0
H202 H 0.70671 0.0012 0.60412 0.0
H203 H 0.65534 0.0196 0.67368 0.0
H204 H 0.70878 0.0379 0.67707 0.0
H205 H 0.73484 0.02881 0.64208 0.0
H206 H 0.65321 0.98306 0.60162 0.0
H207 H 0.65587 0.09623 0.6301 0.0
H208 H 0.62452 0.09953 0.66369 0.0
O209 O 0.60478 0.97402 0.67174 0.0
C210 C 0.54366 0.94583 0.63884 0.0
C211 C 0.60042 0.05261 0.67024 0.0
C212 C 0.6393 0.07645 0.63949 0.0
N213 N 0.61455 0.02379 0.64471 0.0
C214 C 0.5971 0.02539 0.66309 0.0
C215 C 0.63534 0.04884 0.63283 0.0
C216 C 0.6217 0.07829 0.65834 0.0
C217 C 0.5783 0.89813 0.58766 0.0
N218 N 0.55936 0.89458 0.60687 0.0
C219 C 0.56765 0.88805 0.56338 0.0
C220 C 0.53738 0.87424 0.55881 0.0
C221 C 0.51819 0.87066 0.57848 0.0
C222 C 0.52963 0.88105 0.60252 0.0
C223 C 0.52257 0.81939 0.65686 0.0
C224 C 0.53231 0.87246 0.67689 0.0
C225 C 0.54235 0.84629 0.64557 0.0
N226 N 0.54703 0.87239 0.65561 0.0
C227 C 0.51235 0.84599 0.68868 0.0
C228 C 0.5075 0.8193 0.67857 0.0
C229 C 0.59972 0.95105 0.68431 0.0
C230 C 0.69561 0.00536 0.61947 0.0
C231 C 0.66648 0.01542 0.65843 0.0
C232 C 0.69677 0.02591 0.66043 0.0
C233 C 0.71138 0.02082 0.64078 0.0
N234 N 0.6512 0.00037 0.63742 0.0
C235 C 0.66534 0.99521 0.61812 0.0
Co236 Co 0.66529 0.57367 0.14125 0.0
Co237 Co 0.63725 0.62123 0.13579 0.0
O238 O 0.66599 0.60864 0.1271 0.0
C239 C 0.7302 0.62152 0.14406 0.0
O240 O 0.72604 0.64258 0.13514 0.0
C241 C 0.63118 0.61095 0.0806 0.0
O242 O 0.6334 0.58742 0.08489 0.0
O243 O 0.60285 0.58018 0.13309 0.0
O244 O 0.62188 0.55047 0.13755 0.0
H245 H 0.5516 0.61673 0.18271 0.0
H246 H 0.70401 0.60476 0.09732 0.0
O247 O 0.70898 0.59511 0.14627 0.0
H248 H 0.63852 0.50251 0.06872 0.0
H249 H 0.70149 0.50145 0.15354 0.0
H250 H 0.62704 0.52826 0.17851 0.0
H251 H 0.63469 0.51744 0.11201 0.0
H252 H 0.70209 0.54503 0.135 0.0
O253 O 0.63228 0.62733 0.09892 0.0
H254 H 0.5874 0.60082 0.17178 0.0
H255 H 0.62722 0.6694 0.11737 0.0
H256 H 0.62543 0.4843 0.1973 0.0
H257 H 0.70884 0.59071 0.05401 0.0
H258 H 0.66286 0.47065 0.18484 0.0
H259 H 0.67585 0.53926 0.03938 0.0
O260 O 0.66134 0.58575 0.17585 0.0
H261 H 0.73003 0.71057 0.10552 0.0
H262 H 0.6571 0.66893 0.17442 0.0
H263 H 0.69905 0.71978 0.17809 0.0
H264 H 0.73583 0.74096 0.14343 0.0
H265 H 0.68796 0.65967 0.10279 0.0
H266 H 0.5917 0.68591 0.12755 0.0
H267 H 0.55362 0.65957 0.16051 0.0
O268 O 0.64149 0.61516 0.17273 0.0
C269 C 0.60011 0.5546 0.13456 0.0
C270 C 0.56815 0.62845 0.16837 0.0
C271 C 0.59063 0.66725 0.13739 0.0
N272 N 0.6095 0.63431 0.14411 0.0
C273 C 0.58853 0.61959 0.16216 0.0
C274 C 0.61064 0.65777 0.13167 0.0
C275 C 0.56928 0.65247 0.15589 0.0
C276 C 0.68994 0.58224 0.09133 0.0
N277 N 0.66939 0.5619 0.10739 0.0
C278 C 0.69262 0.57444 0.06667 0.0
C279 C 0.67406 0.5456 0.05845 0.0
C280 C 0.65309 0.52498 0.0749 0.0
C281 C 0.65101 0.53358 0.0994 0.0
C282 C 0.68501 0.50711 0.15907 0.0
C283 C 0.64326 0.52233 0.17285 0.0
C284 C 0.68527 0.5318 0.14868 0.0
N285 N 0.66443 0.53902 0.15549 0.0
C286 C 0.6423 0.49747 0.18361 0.0
C287 C 0.66333 0.48985 0.17663 0.0
C288 C 0.65158 0.60148 0.18567 0.0
C289 C 0.71412 0.70162 0.12073 0.0
C290 C 0.67313 0.6779 0.15935 0.0
C291 C 0.69678 0.70676 0.16148 0.0
C292 C 0.71739 0.71864 0.14202 0.0
N293 N 0.67008 0.66135 0.13839 0.0
C294 C 0.69018 0.67285 0.11923 0.0
Co295 Co 0.09955 0.66966 0.63094 0.0
Co296 Co 0.02331 0.63087 0.63378 0.0
O297 O 0.06081 0.66256 0.62048 0.0
C298 C 0.11061 0.73061 0.64274 0.0
O299 O 0.09 0.72009 0.66016 0.0
C300 C 0.02065 0.62055 0.57891 0.0
O301 O 0.04734 0.62446 0.58133 0.0
O302 O 0.03593 0.60076 0.62997 0.0
O303 O 0.0853 0.62661 0.63246 0.0
H304 H 0.95853 0.54406 0.68896 0.0
H305 H 0.09436 0.69922 0.58509 0.0
O306 O 0.11546 0.71329 0.62928 0.0
H307 H 0.1379 0.63968 0.55605 0.0
H308 H 0.21075 0.72325 0.62918 0.0
H309 H 0.12108 0.64362 0.66937 0.0
H310 H 0.12637 0.64056 0.60104 0.0
H311 H 0.16137 0.7127 0.6154 0.0
O312 O 0.00689 0.62184 0.59834 0.0
H313 H 0.00589 0.58401 0.67243 0.0
H314 H 0.96027 0.61064 0.62219 0.0
H315 H 0.17005 0.65324 0.68356 0.0
H316 H 0.10582 0.6992 0.53995 0.0
H317 H 0.21532 0.69332 0.66342 0.0
H318 H 0.1276 0.66916 0.52516 0.0
O319 O 0.08883 0.66883 0.66703 0.0
H320 H 0.0087 0.7144 0.60528 0.0
H321 H 0.9957 0.64696 0.67545 0.0
H322 H 0.98033 0.6842 0.68094 0.0
H323 H 0.98672 0.7182 0.64566 0.0
H324 H 0.024 0.67699 0.60068 0.0
H325 H 0.9124 0.57082 0.63801 0.0
H326 H 0.91135 0.53727 0.67171 0.0
O327 O 0.03942 0.6395 0.66926 0.0
C328 C 0.06101 0.60229 0.63109 0.0
C329 C 0.9587 0.55859 0.67433 0.0
C330 C 0.93281 0.57359 0.64571 0.0
N331 N 0.98581 0.59975 0.64652 0.0
C332 C 0.98544 0.5813 0.66496 0.0
C333 C 0.95997 0.59605 0.63678 0.0
C334 C 0.93223 0.55478 0.66462 0.0
C335 C 0.10417 0.68637 0.57884 0.0
N336 N 0.10978 0.67 0.5957 0.0
C337 C 0.11049 0.68634 0.55324 0.0
C338 C 0.12266 0.66944 0.54495 0.0
C339 C 0.12841 0.65287 0.56227 0.0
C340 C 0.12177 0.65339 0.58772 0.0
C341 C 0.19119 0.70567 0.63805 0.0
C342 C 0.14068 0.66096 0.66038 0.0
C343 C 0.16316 0.69963 0.63036 0.0
N344 N 0.13834 0.6774 0.64143 0.0
C345 C 0.16834 0.66636 0.66855 0.0
C346 C 0.19374 0.68887 0.65727 0.0
C347 C 0.0648 0.65512 0.67956 0.0
C348 C 0.00573 0.69966 0.62077 0.0
C349 C 0.99867 0.66175 0.66005 0.0
C350 C 0.98985 0.68275 0.66325 0.0
C351 C 0.99343 0.7018 0.64344 0.0
N352 N 0.01061 0.65972 0.63772 0.0
C353 C 0.01427 0.67838 0.61825 0.0
Co354 Co 0.90156 0.57025 0.37246 0.0
Co355 Co 0.978 0.60889 0.37762 0.0
O356 O 0.9385 0.60237 0.38629 0.0
C357 C 0.89314 0.62406 0.36956 0.0
O358 O 0.91868 0.64261 0.37978 0.0
C359 C 0.97384 0.60022 0.43322 0.0
O360 O 0.94651 0.57892 0.42984 0.0
O361 O 0.96519 0.56601 0.38119 0.0
O362 O 0.91601 0.54204 0.37697 0.0
H363 H 0.05039 0.58921 0.33154 0.0
H364 H 0.90094 0.6059 0.41624 0.0
O365 O 0.88497 0.59686 0.36669 0.0
H366 H 0.84855 0.50261 0.4455 0.0
H367 H 0.79128 0.5111 0.36005 0.0
H368 H 0.88732 0.52169 0.33625 0.0
H369 H 0.86806 0.51474 0.4022 0.0
H370 H 0.83753 0.55084 0.37837 0.0
O371 O 0.98955 0.61472 0.41434 0.0
H372 H 0.00098 0.58104 0.34243 0.0
H373 H 0.03897 0.6516 0.3952 0.0
H374 H 0.84155 0.48142 0.31769 0.0
H375 H 0.88145 0.59477 0.45951 0.0
H376 H 0.7931 0.47595 0.32956 0.0
H377 H 0.8551 0.54279 0.4745 0.0
O378 O 0.91794 0.57967 0.33769 0.0
H379 H 0.98944 0.7059 0.40574 0.0
H380 H 0.01092 0.65449 0.3382 0.0
H381 H 0.02721 0.70741 0.33346 0.0
H382 H 0.01656 0.73349 0.36743 0.0
H383 H 0.97324 0.65289 0.40957 0.0
H384 H 0.08877 0.66039 0.38503 0.0
H385 H 0.09472 0.62913 0.35292 0.0
O386 O 0.96743 0.60316 0.34081 0.0
C387 C 0.94023 0.54231 0.38016 0.0
C388 C 0.0481 0.60304 0.3455 0.0
C389 C 0.06963 0.64296 0.37555 0.0
N390 N 0.01713 0.61596 0.36928 0.0
C391 C 0.02019 0.59857 0.35169 0.0
C392 C 0.04138 0.63784 0.38127 0.0
C393 C 0.07295 0.62542 0.35753 0.0
C394 C 0.88907 0.58321 0.42233 0.0
N395 N 0.8853 0.56101 0.40642 0.0
C396 C 0.87826 0.57704 0.447 0.0
C397 C 0.86355 0.54789 0.45542 0.0
C398 C 0.85988 0.52535 0.43917 0.0
C399 C 0.87104 0.53237 0.41465 0.0
C400 C 0.81225 0.5132 0.35478 0.0
C401 C 0.86629 0.5193 0.34167 0.0
C402 C 0.83853 0.5357 0.36505 0.0
N403 N 0.8651 0.53842 0.35856 0.0
C404 C 0.84047 0.49652 0.33103 0.0
C405 C 0.81329 0.49349 0.33768 0.0
C406 C 0.94365 0.59212 0.32784 0.0
C407 C 0.99426 0.69479 0.39083 0.0
C408 C 0.00601 0.66562 0.35298 0.0
C409 C 0.01539 0.69562 0.35023 0.0
C410 C 0.00944 0.71025 0.36931 0.0
N411 N 0.99116 0.65062 0.37416 0.0
C412 C 0.98524 0.66481 0.39294 0.0
Co413 Co 0.32132 0.9005 0.86825 0.0
Co414 Co 0.36257 0.97636 0.8743 0.0
O415 O 0.32955 0.93766 0.884 0.0
C416 C 0.25854 0.87498 0.85362 0.0
O417 O 0.26699 0.87684 0.83004 0.0
C418 C 0.36989 0.9725 0.92924 0.0
O419 O 0.36417 0.94532 0.92554 0.0
O420 O 0.39112 0.96167 0.87647 0.0
O421 O 0.36423 0.91394 0.86551 0.0
H422 H 0.45356 0.04588 0.82548 0.0
H423 H 0.29213 0.89886 0.91668 0.0
O424 O 0.27783 0.88585 0.87114 0.0
H425 H 0.3498 0.84962 0.93402 0.0
H426 H 0.2668 0.7897 0.85814 0.0
H427 H 0.34549 0.88455 0.82428 0.0
H428 H 0.34946 0.8685 0.89148 0.0
H429 H 0.27838 0.83673 0.87847 0.0
O430 O 0.37017 0.98818 0.91072 0.0
H431 H 0.41161 0.9973 0.83741 0.0
H432 H 0.38386 0.03801 0.89183 0.0
H433 H 0.33473 0.83802 0.80342 0.0
H434 H 0.29154 0.87994 0.95942 0.0
H435 H 0.2951 0.79016 0.82034 0.0
H436 H 0.32063 0.85523 0.96834 0.0
O437 O 0.32256 0.91717 0.83428 0.0
H438 H 0.27965 0.99043 0.90542 0.0
H439 H 0.3504 0.01102 0.83622 0.0
H440 H 0.31492 0.02894 0.8331 0.0
H441 H 0.27928 0.01875 0.86792 0.0
H442 H 0.31534 0.97267 0.90765 0.0
H443 H 0.42564 0.087 0.88064 0.0
H444 H 0.46077 0.09116 0.84716 0.0
O445 O 0.35574 0.96554 0.83766 0.0
C446 C 0.38881 0.93694 0.87063 0.0
C447 C 0.43834 0.04437 0.84003 0.0
C448 C 0.4227 0.06744 0.87101 0.0
N449 N 0.39519 0.01486 0.86514 0.0
C450 C 0.41451 0.01693 0.84681 0.0
C451 C 0.39912 0.03964 0.87731 0.0
C452 C 0.44239 0.06976 0.85223 0.0
C453 C 0.30455 0.8878 0.92032 0.0
N454 N 0.32069 0.88468 0.90155 0.0
C455 C 0.30425 0.87727 0.9446 0.0
C456 C 0.32063 0.86346 0.94961 0.0
C457 C 0.33702 0.86033 0.93037 0.0
C458 C 0.33683 0.87117 0.90632 0.0
C459 C 0.28414 0.81041 0.8506 0.0
C460 C 0.32828 0.86381 0.8318 0.0
C461 C 0.29079 0.83712 0.86203 0.0
N462 N 0.31263 0.86338 0.85259 0.0
C463 C 0.32226 0.83753 0.8199 0.0
C464 C 0.30002 0.81069 0.82939 0.0
C465 C 0.33872 0.94269 0.82465 0.0
C466 C 0.29511 0.99506 0.89015 0.0
C467 C 0.33485 0.00634 0.85138 0.0
C468 C 0.31487 0.01663 0.84954 0.0
C469 C 0.29489 0.01092 0.86909 0.0
N470 N 0.33499 0.99089 0.87214 0.0
C471 C 0.31542 0.98513 0.89134 0.0
Co472 Co 0.43154 0.33488 0.37359 0.0
Co473 Co 0.38937 0.36826 0.38263 0.0
O474 O 0.3998 0.3379 0.39004 0.0
C475 C 0.3987 0.27331 0.35432 0.0
O476 O 0.40654 0.28416 0.33148 0.0
C477 C 0.40428 0.37477 0.43674 0.0
O478 O 0.4274 0.37284 0.43005 0.0
O479 O 0.43148 0.40031 0.38366 0.0
O480 O 0.4581 0.37866 0.37428 0.0
H481 H 0.39766 0.45677 0.33771 0.0
H482 H 0.40367 0.29975 0.41973 0.0
O483 O 0.4055 0.29068 0.37319 0.0
H484 H 0.50914 0.36234 0.44082 0.0
H485 H 0.49603 0.29 0.35852 0.0
H486 H 0.47302 0.36667 0.33179 0.0
H487 H 0.49075 0.36456 0.39852 0.0
H488 H 0.45685 0.29505 0.37984 0.0
O489 O 0.38622 0.3737 0.41998 0.0
H490 H 0.41062 0.41831 0.34671 0.0
H491 H 0.34544 0.38263 0.40424 0.0
H492 H 0.51247 0.36248 0.31003 0.0
H493 H 0.42121 0.29653 0.46216 0.0
H494 H 0.52418 0.32391 0.32337 0.0
H495 H 0.47427 0.32808 0.47298 0.0
O496 O 0.41656 0.33805 0.33993 0.0
H497 H 0.2988 0.27822 0.41513 0.0
H498 H 0.33963 0.35194 0.34673 0.0
H499 H 0.28747 0.31234 0.34492 0.0
H500 H 0.26671 0.27518 0.37934 0.0
H501 H 0.35092 0.31804 0.41607 0.0
H502 H 0.33193 0.42085 0.39602 0.0
H503 H 0.35805 0.4582 0.36247 0.0
O504 O 0.39259 0.36338 0.34527 0.0
C505 C 0.45597 0.40143 0.37914 0.0
C506 C 0.38605 0.44056 0.35231 0.0
C507 C 0.34919 0.42043 0.38507 0.0
N508 N 0.37863 0.39812 0.37582 0.0
C509 C 0.39323 0.41868 0.35744 0.0
C510 C 0.35697 0.39888 0.38967 0.0
C511 C 0.36384 0.44136 0.36623 0.0
C512 C 0.42686 0.31329 0.42418 0.0
N513 N 0.44617 0.33223 0.4066 0.0
C514 C 0.43664 0.31147 0.44828 0.0
C515 C 0.4664 0.32922 0.45436 0.0
C516 C 0.48597 0.34847 0.43634 0.0
C517 C 0.4754 0.34971 0.41243 0.0
C518 C 0.49117 0.30693 0.35256 0.0
C519 C 0.47808 0.34991 0.33777 0.0
C520 C 0.469 0.30989 0.36455 0.0
N521 N 0.46274 0.33122 0.35713 0.0
C522 C 0.5004 0.34762 0.32535 0.0
C523 C 0.50695 0.32596 0.33284 0.0
C524 C 0.40281 0.35061 0.33128 0.0
C525 C 0.30757 0.29432 0.40005 0.0
C526 C 0.33079 0.33576 0.36171 0.0
C527 C 0.30122 0.31344 0.36062 0.0
C528 C 0.28958 0.29261 0.37995 0.0
N529 N 0.34825 0.33736 0.38155 0.0
C530 C 0.33704 0.31696 0.40052 0.0
Co531 Co 0.11163 0.4302 0.88 0.0
Co532 Co 0.03535 0.39247 0.88185 0.0
O533 O 0.07392 0.399 0.89264 0.0
C534 C 0.11847 0.37814 0.86723 0.0
O535 O 0.09545 0.36773 0.85221 0.0
C536 C 0.03899 0.40419 0.93627 0.0
O537 O 0.06511 0.42676 0.93112 0.0
O538 O 0.04831 0.43535 0.88402 0.0
O539 O 0.09764 0.4593 0.88029 0.0
H540 H 0.96522 0.41086 0.83066 0.0
H541 H 0.11053 0.39623 0.92521 0.0
O542 O 0.12683 0.4019 0.87963 0.0
H543 H 0.15795 0.50005 0.95311 0.0
H544 H 0.22265 0.48635 0.8742 0.0
H545 H 0.13019 0.47731 0.84138 0.0
H546 H 0.14151 0.48668 0.90904 0.0
H547 H 0.17443 0.44824 0.89086 0.0
O548 O 0.02274 0.3876 0.91841 0.0
H549 H 0.01409 0.41925 0.84389 0.0
H550 H 0.97376 0.35074 0.8983 0.0
H551 H 0.17796 0.51594 0.82436 0.0
H552 H 0.12704 0.40869 0.96936 0.0
H553 H 0.22463 0.52062 0.84078 0.0
H554 H 0.15083 0.46091 0.98359 0.0
O555 O 0.09766 0.41973 0.8447 0.0
H556 H 0.0235 0.29621 0.91278 0.0
H557 H 0.0038 0.34614 0.84279 0.0
H558 H 0.98791 0.2932 0.83913 0.0
H559 H 0.99768 0.26787 0.87433 0.0
H560 H 0.03922 0.34918 0.91556 0.0
H561 H 0.92445 0.34175 0.88582 0.0
H562 H 0.91998 0.37186 0.85169 0.0
O563 O 0.04799 0.39766 0.84538 0.0
C564 C 0.07322 0.45903 0.88223 0.0
C565 C 0.96688 0.39752 0.84549 0.0
C566 C 0.944 0.35876 0.87648 0.0
N567 N 0.99671 0.38534 0.87169 0.0
C568 C 0.99447 0.40211 0.85301 0.0
C569 C 0.97196 0.36399 0.88351 0.0
C570 C 0.9415 0.37566 0.85732 0.0
C571 C 0.12117 0.41905 0.93119 0.0
N572 N 0.12519 0.44071 0.91453 0.0
C573 C 0.13037 0.42596 0.95623 0.0
C574 C 0.14367 0.45526 0.96421 0.0
C575 C 0.14764 0.47722 0.94713 0.0
C576 C 0.1382 0.4695 0.92221 0.0
C577 C 0.20247 0.48459 0.86695 0.0
C578 C 0.15041 0.47937 0.84877 0.0
C579 C 0.17509 0.46302 0.87628 0.0
N580 N 0.14952 0.46073 0.86726 0.0
C581 C 0.17739 0.50122 0.839 0.0
C582 C 0.20357 0.50381 0.8482 0.0
C583 C 0.07262 0.40808 0.83363 0.0
C584 C 0.01904 0.30698 0.89735 0.0
C585 C 0.00822 0.3353 0.85815 0.0
C586 C 0.99911 0.3053 0.85599 0.0
C587 C 0.00459 0.2911 0.87575 0.0
N588 N 0.02228 0.35068 0.87943 0.0
C589 C 0.02781 0.33694 0.89885 0.0
Co590 Co 0.67025 0.10283 0.38093 0.0
Co591 Co 0.63019 0.02639 0.37882 0.0
O592 O 0.66236 0.0639 0.3917 0.0
C593 C 0.7324 0.12884 0.36389 0.0
O594 O 0.72316 0.12909 0.34092 0.0
C595 C 0.61974 0.02558 0.43355 0.0
O596 O 0.62457 0.05255 0.43045 0.0
O597 O 0.60093 0.04014 0.38164 0.0
O598 O 0.62737 0.08963 0.38016 0.0
H599 H 0.54304 0.96155 0.32398 0.0
H600 H 0.70044 0.09758 0.42635 0.0
O601 O 0.71382 0.11715 0.38185 0.0
H602 H 0.64367 0.14384 0.45608 0.0
H603 H 0.72546 0.2142 0.38181 0.0
H604 H 0.64472 0.1247 0.34235 0.0
H605 H 0.64308 0.13135 0.41115 0.0
H606 H 0.71408 0.16469 0.39607 0.0
O607 O 0.62062 0.011 0.41455 0.0
H608 H 0.58368 0.00893 0.33984 0.0
H609 H 0.60846 0.96337 0.39188 0.0
H610 H 0.65521 0.17378 0.32763 0.0
H611 H 0.70187 0.10999 0.47141 0.0
H612 H 0.69587 0.21898 0.34737 0.0
H613 H 0.67323 0.13316 0.48656 0.0
O614 O 0.66779 0.09093 0.34507 0.0
H615 H 0.71153 0.00952 0.40955 0.0
H616 H 0.64554 0.99684 0.33829 0.0
H617 H 0.6816 0.97975 0.33409 0.0
H618 H 0.71484 0.98597 0.36993 0.0
H619 H 0.67533 0.02654 0.41285 0.0
H620 H 0.56795 0.9155 0.37674 0.0
H621 H 0.53498 0.9144 0.34248 0.0
O622 O 0.63925 0.04146 0.34303 0.0
C623 C 0.60286 0.06543 0.38097 0.0
C624 C 0.55732 0.96174 0.33886 0.0
C625 C 0.57127 0.93589 0.36849 0.0
N626 N 0.59854 0.98887 0.3666 0.0
C627 C 0.58042 0.98848 0.34785 0.0
C628 C 0.59413 0.96305 0.37702 0.0
C629 C 0.55279 0.93529 0.34926 0.0
C630 C 0.68822 0.10802 0.43273 0.0
N631 N 0.67186 0.11391 0.41609 0.0
C632 C 0.68901 0.11486 0.45829 0.0
C633 C 0.67289 0.12781 0.46679 0.0
C634 C 0.65627 0.13378 0.4497 0.0
C635 C 0.65598 0.1266 0.42429 0.0
C636 C 0.70766 0.19468 0.37307 0.0
C637 C 0.66236 0.14426 0.35112 0.0
C638 C 0.70114 0.16658 0.38105 0.0
N639 N 0.6787 0.14181 0.37009 0.0
C640 C 0.66823 0.17199 0.34268 0.0
C641 C 0.69105 0.19734 0.35375 0.0
C642 C 0.6544 0.06684 0.33264 0.0
C643 C 0.69712 0.00663 0.39383 0.0
C644 C 0.66004 0.99976 0.35392 0.0
C645 C 0.68035 0.98997 0.35146 0.0
C646 C 0.69899 0.99344 0.37158 0.0
N647 N 0.65826 0.01256 0.37584 0.0
C648 C 0.67652 0.01614 0.39561 0.0
Co649 Co 0.57744 0.66736 0.87346 0.0
Co650 Co 0.62363 0.63804 0.87813 0.0
O651 O 0.61131 0.66644 0.88789 0.0
C652 C 0.62147 0.73091 0.8616 0.0
O653 O 0.63489 0.72299 0.84505 0.0
C654 C 0.61331 0.63004 0.93306 0.0
O655 O 0.58899 0.6308 0.92876 0.0
O656 O 0.58256 0.604 0.88094 0.0
O657 O 0.5538 0.62347 0.87261 0.0
H658 H 0.61785 0.55286 0.82938 0.0
H659 H 0.60501 0.70116 0.9202 0.0
O660 O 0.59982 0.71158 0.87446 0.0
H661 H 0.50163 0.63083 0.943 0.0
H662 H 0.50693 0.70608 0.86442 0.0
H663 H 0.53477 0.63472 0.83249 0.0
H664 H 0.5194 0.63244 0.89963 0.0
H665 H 0.54883 0.70359 0.8831 0.0
O666 O 0.6303 0.63258 0.91476 0.0
H667 H 0.60238 0.58869 0.8415 0.0
H668 H 0.67186 0.62744 0.89519 0.0
H669 H 0.49255 0.63629 0.81342 0.0
H670 H 0.58806 0.70052 0.96374 0.0
H671 H 0.47839 0.67218 0.82938 0.0
H672 H 0.53607 0.66506 0.97541 0.0
O673 O 0.59174 0.66728 0.83872 0.0
H674 H 0.71295 0.73131 0.90763 0.0
H675 H 0.67086 0.65786 0.83911 0.0
H676 H 0.72151 0.70007 0.83497 0.0
H677 H 0.74289 0.73712 0.86943 0.0
H678 H 0.66229 0.68887 0.9109 0.0
H679 H 0.68794 0.59187 0.88382 0.0
H680 H 0.66092 0.55432 0.85062 0.0
O681 O 0.61691 0.64281 0.84144 0.0
C682 C 0.55738 0.60148 0.87682 0.0
C683 C 0.62986 0.56918 0.84382 0.0
C684 C 0.66918 0.59105 0.8744 0.0
N685 N 0.63635 0.61026 0.86887 0.0
C686 C 0.62126 0.58957 0.8507 0.0
C687 C 0.65993 0.61108 0.88079 0.0
C688 C 0.65401 0.56999 0.85576 0.0
C689 C 0.58226 0.6859 0.92506 0.0
N690 N 0.56321 0.66691 0.90737 0.0
C691 C 0.57283 0.68555 0.94977 0.0
C692 C 0.54366 0.66561 0.95632 0.0
C693 C 0.52434 0.64638 0.93815 0.0
C694 C 0.53456 0.64732 0.91363 0.0
C695 C 0.51285 0.6903 0.85733 0.0
C696 C 0.52863 0.65027 0.83966 0.0
C697 C 0.53659 0.68883 0.8678 0.0
N698 N 0.54411 0.66887 0.85902 0.0
C699 C 0.50475 0.65111 0.82873 0.0
C700 C 0.49684 0.67127 0.83768 0.0
C701 C 0.60544 0.65534 0.82867 0.0
C702 C 0.7039 0.71527 0.89252 0.0
C703 C 0.67997 0.67395 0.85414 0.0
C704 C 0.70869 0.69776 0.85172 0.0
C705 C 0.72068 0.71853 0.87106 0.0
N706 N 0.6637 0.67085 0.87528 0.0
C707 C 0.67527 0.69116 0.8943 0.0
Co708 Co 0.56021 0.89271 0.87941 0.0
Co709 Co 0.60952 0.96755 0.88327 0.0
O710 O 0.59439 0.92669 0.89418 0.0
C711 C 0.60423 0.87224 0.87343 0.0
O712 O 0.62048 0.89471 0.85857 0.0
C713 C 0.59622 0.96641 0.93729 0.0
O714 O 0.5708 0.94313 0.93162 0.0
O715 O 0.56939 0.96313 0.884 0.0
O716 O 0.53881 0.91514 0.87578 0.0
H717 H 0.612 0.04891 0.83091 0.0
H718 H 0.58361 0.88561 0.92827 0.0
O719 O 0.58049 0.86901 0.8831 0.0
H720 H 0.48053 0.85904 0.94543 0.0
H721 H 0.48544 0.78442 0.8714 0.0
H722 H 0.52068 0.88387 0.83613 0.0
H723 H 0.50136 0.87373 0.90267 0.0
H724 H 0.52787 0.82804 0.89048 0.0
O725 O 0.61511 0.98015 0.91989 0.0
H726 H 0.59285 0.99725 0.84426 0.0
H727 H 0.65914 0.02532 0.90073 0.0
H728 H 0.478 0.84088 0.81661 0.0
H729 H 0.5635 0.87056 0.97123 0.0
H730 H 0.46012 0.79071 0.83425 0.0
H731 H 0.51165 0.8573 0.98006 0.0
O732 O 0.57697 0.90551 0.84515 0.0
H733 H 0.6939 0.95796 0.91772 0.0
H734 H 0.65857 0.99173 0.84578 0.0
H735 H 0.70808 0.99688 0.84403 0.0
H736 H 0.72606 0.97999 0.88021 0.0
H737 H 0.64445 0.95303 0.9186 0.0
H738 H 0.67885 0.07733 0.88816 0.0
H739 H 0.6553 0.08937 0.85294 0.0
O740 O 0.60379 0.95522 0.8466 0.0
C741 C 0.54383 0.9414 0.87913 0.0
C742 C 0.62251 0.04394 0.84623 0.0
C743 C 0.66001 0.05989 0.87839 0.0
N744 N 0.62504 0.0083 0.87309 0.0
C745 C 0.61183 0.01473 0.85381 0.0
C746 C 0.64872 0.03042 0.88545 0.0
C747 C 0.64679 0.06663 0.85861 0.0
C748 C 0.56091 0.87951 0.93189 0.0
N749 N 0.54365 0.88042 0.91295 0.0
C750 C 0.54969 0.87113 0.95628 0.0
C751 C 0.52061 0.86375 0.96123 0.0
C752 C 0.50315 0.86476 0.94182 0.0
C753 C 0.51511 0.87319 0.91765 0.0
C754 C 0.49298 0.80617 0.86357 0.0
C755 C 0.5129 0.86213 0.84402 0.0
C756 C 0.51703 0.83095 0.87427 0.0
N757 N 0.52657 0.85851 0.86456 0.0
C758 C 0.48878 0.83786 0.83284 0.0
C759 C 0.47878 0.80972 0.84274 0.0
C760 C 0.59205 0.93068 0.83454 0.0
C761 C 0.68634 0.96548 0.90186 0.0
C762 C 0.66621 0.98425 0.86157 0.0
C763 C 0.69428 0.98728 0.86049 0.0
C764 C 0.70437 0.97781 0.8808 0.0
N765 N 0.64871 0.97224 0.88234 0.0
C766 C 0.65841 0.96283 0.90229 0.0
Co767 Co 0.6857 0.5716 0.38088 0.0
Co768 Co 0.64731 0.60968 0.38488 0.0
O769 O 0.67949 0.60268 0.39485 0.0
C770 C 0.74665 0.62662 0.38253 0.0
O771 O 0.73666 0.64338 0.39139 0.0
C772 C 0.63994 0.5973 0.43952 0.0
O773 O 0.64424 0.57518 0.43438 0.0
O774 O 0.61732 0.56681 0.3864 0.0
O775 O 0.64252 0.54279 0.38203 0.0
H776 H 0.55843 0.59266 0.33495 0.0
H777 H 0.71832 0.60413 0.42719 0.0
O778 O 0.72945 0.59915 0.37842 0.0
H779 H 0.66372 0.49911 0.45151 0.0
H780 H 0.73887 0.51417 0.3705 0.0
H781 H 0.6554 0.52558 0.3417 0.0
H782 H 0.66035 0.51424 0.40818 0.0
H783 H 0.73002 0.5523 0.38915 0.0
O784 O 0.63967 0.61359 0.42167 0.0
H785 H 0.59894 0.58388 0.34716 0.0
H786 H 0.62767 0.65112 0.40284 0.0
H787 H 0.66324 0.48694 0.32274 0.0
H788 H 0.72263 0.58996 0.47055 0.0
H789 H 0.70526 0.48108 0.33712 0.0
H790 H 0.69511 0.53709 0.48304 0.0
O791 O 0.68173 0.58321 0.34621 0.0
H792 H 0.72966 0.70589 0.4182 0.0
H793 H 0.66269 0.65682 0.34644 0.0
H794 H 0.69906 0.71004 0.34397 0.0
H795 H 0.7328 0.73495 0.38006 0.0
H796 H 0.6933 0.65261 0.41972 0.0
H797 H 0.58733 0.66049 0.39138 0.0
H798 H 0.55243 0.63121 0.35714 0.0
O799 O 0.6544 0.60548 0.34804 0.0
C800 C 0.61843 0.54311 0.38423 0.0
C801 C 0.57355 0.60564 0.34984 0.0
C802 C 0.58975 0.64368 0.38154 0.0
N803 N 0.61577 0.61714 0.37554 0.0
C804 C 0.59658 0.60083 0.35678 0.0
C805 C 0.61251 0.63824 0.38798 0.0
C806 C 0.57018 0.62725 0.36232 0.0
C807 C 0.70673 0.58107 0.43221 0.0
N808 N 0.68954 0.56006 0.41492 0.0
C809 C 0.70907 0.57317 0.45692 0.0
C810 C 0.69356 0.54352 0.46394 0.0
C811 C 0.67594 0.52221 0.44627 0.0
C812 C 0.67411 0.53093 0.42174 0.0
C813 C 0.72043 0.51644 0.36413 0.0
C814 C 0.67356 0.52298 0.34822 0.0
C815 C 0.71533 0.53803 0.37459 0.0
N816 N 0.69203 0.54097 0.36669 0.0
C817 C 0.67796 0.50114 0.33735 0.0
C818 C 0.70156 0.49788 0.3454 0.0
C819 C 0.66845 0.59529 0.33572 0.0
C820 C 0.71505 0.69529 0.40236 0.0
C821 C 0.6775 0.66741 0.36213 0.0
C822 C 0.69795 0.6976 0.36067 0.0
C823 C 0.71684 0.71158 0.38094 0.0
N824 N 0.67591 0.65158 0.38319 0.0
C825 C 0.69431 0.66515 0.40316 0.0
Co826 Co 0.09652 0.66777 0.87408 0.0
Co827 Co 0.02091 0.6352 0.88176 0.0
O828 O 0.06158 0.66573 0.88919 0.0
C829 C 0.10714 0.72734 0.85865 0.0
O830 O 0.08244 0.71494 0.84569 0.0
C831 C 0.02846 0.63054 0.9364 0.0
O832 O 0.05386 0.63282 0.93044 0.0
O833 O 0.03057 0.60293 0.88437 0.0
O834 O 0.07919 0.6242 0.8769 0.0
H835 H 0.94112 0.54554 0.83776 0.0
H836 H 0.10327 0.70587 0.91794 0.0
O837 O 0.11511 0.71172 0.87119 0.0
H838 H 0.14557 0.64459 0.94523 0.0
H839 H 0.20597 0.71308 0.85995 0.0
H840 H 0.10701 0.63267 0.83577 0.0
H841 H 0.12551 0.63965 0.90227 0.0
H842 H 0.16132 0.70905 0.87956 0.0
O843 O 0.01167 0.63092 0.91906 0.0
H844 H 0.99248 0.58404 0.84691 0.0
H845 H 0.9624 0.62191 0.90201 0.0
H846 H 0.15109 0.63571 0.81587 0.0
H847 H 0.12338 0.71175 0.96099 0.0
H848 H 0.20101 0.67616 0.82794 0.0
H849 H 0.1446 0.68087 0.97492 0.0
O850 O 0.07923 0.66252 0.83972 0.0
H851 H 0.02082 0.7268 0.9104 0.0
H852 H 0.98858 0.65072 0.84404 0.0
H853 H 0.97675 0.6907 0.84002 0.0
H854 H 0.99284 0.72906 0.8734 0.0
H855 H 0.03238 0.68656 0.91355 0.0
H856 H 0.91072 0.58367 0.89363 0.0
H857 H 0.89983 0.5452 0.86123 0.0
O858 O 0.02981 0.63881 0.84454 0.0
C859 C 0.05404 0.60161 0.88124 0.0
C860 C 0.94558 0.56224 0.85186 0.0
C861 C 0.92852 0.58362 0.88325 0.0
N862 N 0.98037 0.60531 0.87481 0.0
C863 C 0.9746 0.58414 0.85706 0.0
C864 C 0.95781 0.60517 0.88795 0.0
C865 C 0.92242 0.56205 0.86506 0.0
C866 C 0.11277 0.69259 0.92377 0.0
N867 N 0.1133 0.67251 0.90758 0.0
C868 C 0.124 0.69592 0.94821 0.0
C869 C 0.13586 0.67855 0.95602 0.0
C870 C 0.13638 0.65817 0.93938 0.0
C871 C 0.12492 0.65542 0.9151 0.0
C872 C 0.18434 0.69531 0.85458 0.0
C873 C 0.12867 0.65021 0.84126 0.0
C874 C 0.15897 0.69295 0.86559 0.0
N875 N 0.13159 0.67049 0.85897 0.0
C876 C 0.15354 0.65187 0.82987 0.0
C877 C 0.18154 0.67459 0.83662 0.0
C878 C 0.05305 0.65013 0.83076 0.0
C879 C 0.01362 0.71017 0.89577 0.0
C880 C 0.99575 0.66739 0.85859 0.0
C881 C 0.98892 0.68993 0.85624 0.0
C882 C 0.99795 0.71144 0.87499 0.0
N883 N 0.01102 0.66624 0.87908 0.0
C884 C 0.02002 0.68728 0.89749 0.0
Co885 Co 0.42242 0.09583 0.36928 0.0
Co886 Co 0.37668 0.02007 0.37427 0.0
O887 O 0.38785 0.06085 0.38282 0.0
C888 C 0.37987 0.11418 0.34984 0.0
O889 O 0.37011 0.09344 0.33255 0.0
C890 C 0.38483 0.0236 0.42949 0.0
O891 O 0.4082 0.04966 0.42585 0.0
O892 O 0.41791 0.02803 0.37857 0.0
O893 O 0.447 0.07677 0.37263 0.0
H894 H 0.38616 0.94078 0.32894 0.0
H895 H 0.3897 0.10219 0.41224 0.0
O896 O 0.39888 0.11646 0.36608 0.0
H897 H 0.4911 0.13939 0.4435 0.0
H898 H 0.49098 0.20533 0.35919 0.0
H899 H 0.46947 0.10608 0.33262 0.0
H900 H 0.47786 0.12157 0.39975 0.0
H901 H 0.4482 0.16077 0.37671 0.0
O902 O 0.3691 0.0086 0.41082 0.0
H903 H 0.40012 0.99206 0.33971 0.0
H904 H 0.32868 0.9611 0.39141 0.0
H905 H 0.51266 0.15006 0.31482 0.0
H906 H 0.40207 0.12009 0.45607 0.0
H907 H 0.52363 0.20014 0.32809 0.0
H908 H 0.45306 0.13873 0.47199 0.0
O909 O 0.41197 0.08017 0.33423 0.0
H910 H 0.28524 0.02211 0.4 0.0
H911 H 0.3308 0.99094 0.33435 0.0
H912 H 0.27984 0.98106 0.32851 0.0
H913 H 0.2567 0.99661 0.36152 0.0
H914 H 0.33625 0.03177 0.40496 0.0
H915 H 0.31409 0.90947 0.38137 0.0
H916 H 0.34287 0.89906 0.34985 0.0
O917 O 0.38439 0.03072 0.33776 0.0
C918 C 0.44327 0.0511 0.37659 0.0
C919 C 0.37339 0.94503 0.34264 0.0
C920 C 0.33296 0.92746 0.3721 0.0
N921 N 0.36509 0.97955 0.36601 0.0
C922 C 0.38113 0.97402 0.34876 0.0
C923 C 0.34136 0.95673 0.37774 0.0
C924 C 0.34911 0.92163 0.3544 0.0
C925 C 0.41202 0.11057 0.41895 0.0
N926 N 0.43305 0.1109 0.40342 0.0
C927 C 0.41886 0.12055 0.44382 0.0
C928 C 0.44746 0.13097 0.45275 0.0
C929 C 0.46881 0.13131 0.43678 0.0
C930 C 0.46116 0.12112 0.41204 0.0
C931 C 0.48646 0.18363 0.3533 0.0
C932 C 0.47421 0.12779 0.33862 0.0
C933 C 0.46223 0.15831 0.36311 0.0
N934 N 0.45646 0.13083 0.35583 0.0
C935 C 0.49865 0.15261 0.32842 0.0
C936 C 0.50478 0.1807 0.33586 0.0
C937 C 0.39778 0.05431 0.32463 0.0
C938 C 0.29505 0.01517 0.3855 0.0
C939 C 0.32093 0.9979 0.34874 0.0
C940 C 0.29204 0.99217 0.34536 0.0
C941 C 0.27907 0.00089 0.3639 0.0
N942 N 0.33642 0.01181 0.37003 0.0
C943 C 0.32389 0.0205 0.38825 0.0
Co944 Co 0.32995 0.42875 0.88144 0.0
Co945 Co 0.36789 0.39059 0.87859 0.0
O946 O 0.33748 0.39773 0.89274 0.0
C947 C 0.26734 0.37961 0.87364 0.0
O948 O 0.27495 0.36985 0.85384 0.0
C949 C 0.38104 0.40121 0.93281 0.0
O950 O 0.37793 0.4244 0.92965 0.0
O951 O 0.39844 0.43327 0.88046 0.0
O952 O 0.37288 0.45702 0.87679 0.0
H953 H 0.45112 0.40833 0.82052 0.0
H954 H 0.3043 0.39832 0.92994 0.0
O955 O 0.28662 0.40143 0.88638 0.0
H956 H 0.36684 0.50363 0.95174 0.0
H957 H 0.27679 0.48681 0.88297 0.0
H958 H 0.35272 0.47294 0.8401 0.0
H959 H 0.36212 0.4871 0.90755 0.0
H960 H 0.28856 0.44921 0.89798 0.0
O961 O 0.37859 0.38493 0.91394 0.0
H962 H 0.41256 0.41734 0.83792 0.0
H963 H 0.38801 0.34782 0.89078 0.0
H964 H 0.34187 0.51104 0.82464 0.0
H965 H 0.30807 0.41397 0.97432 0.0
H966 H 0.30362 0.51811 0.8461 0.0
H967 H 0.33965 0.46694 0.98548 0.0
O968 O 0.32758 0.41579 0.84595 0.0
H969 H 0.28534 0.29456 0.91187 0.0
H970 H 0.34898 0.34461 0.83854 0.0
H971 H 0.31108 0.29189 0.83544 0.0
H972 H 0.279 0.2665 0.87232 0.0
H973 H 0.32335 0.34732 0.91408 0.0
H974 H 0.42648 0.3382 0.87411 0.0
H975 H 0.45827 0.36851 0.83866 0.0
O976 O 0.35745 0.39637 0.84317 0.0
C977 C 0.39712 0.45682 0.87793 0.0
C978 C 0.43734 0.39491 0.83591 0.0
C979 C 0.42354 0.35557 0.86602 0.0
N980 N 0.39792 0.38295 0.86518 0.0
C981 C 0.41542 0.39985 0.84578 0.0
C982 C 0.40184 0.36116 0.87541 0.0
C983 C 0.44136 0.37258 0.84612 0.0
C984 C 0.31778 0.42147 0.93459 0.0
N985 N 0.33286 0.44178 0.91614 0.0
C986 C 0.31993 0.43018 0.95978 0.0
C987 C 0.33771 0.45989 0.96603 0.0
C988 C 0.353 0.48048 0.94711 0.0
C989 C 0.35031 0.47098 0.92212 0.0
C990 C 0.29357 0.48399 0.87351 0.0
C991 C 0.33624 0.47608 0.84968 0.0
C992 C 0.3003 0.4627 0.8819 0.0
N993 N 0.32151 0.45906 0.87006 0.0
C994 C 0.33011 0.49761 0.84079 0.0
C995 C 0.30863 0.50155 0.85282 0.0
C996 C 0.34076 0.40507 0.83321 0.0
C997 C 0.29923 0.30536 0.8957 0.0
C998 C 0.33502 0.33375 0.85463 0.0
C999 C 0.31365 0.30387 0.85279 0.0
C1000 C 0.29567 0.28964 0.87349 0.0
N1001 N 0.33847 0.34898 0.87652 0.0
C1002 C 0.32086 0.33521 0.89686 0.0
Co1003 Co 0.9057 0.32974 0.38028 0.0
Co1004 Co 0.98125 0.35834 0.37693 0.0
O1005 O 0.94189 0.33029 0.38984 0.0
C1006 C 0.89012 0.26856 0.36582 0.0
O1007 O 0.91388 0.27939 0.35167 0.0
C1008 C 0.98343 0.368 0.43163 0.0
O1009 O 0.95829 0.36741 0.42838 0.0
O1010 O 0.97477 0.39269 0.38047 0.0
O1011 O 0.92569 0.37359 0.38154 0.0
H1012 H 0.05502 0.44076 0.32215 0.0
H1013 H 0.90469 0.29322 0.42347 0.0
O1014 O 0.88444 0.28557 0.37887 0.0
H1015 H 0.87406 0.36117 0.45855 0.0
H1016 H 0.79588 0.29002 0.38173 0.0
H1017 H 0.89099 0.36448 0.34493 0.0
H1018 H 0.8855 0.3625 0.41327 0.0
H1019 H 0.84227 0.29207 0.3944 0.0
O1020 O 0.99695 0.36528 0.41264 0.0
H1021 H 0.00525 0.40568 0.33822 0.0
H1022 H 0.04162 0.36986 0.38939 0.0
H1023 H 0.84516 0.36341 0.33193 0.0
H1024 H 0.89307 0.29086 0.46881 0.0
H1025 H 0.79716 0.32596 0.35037 0.0
H1026 H 0.8778 0.32513 0.48665 0.0
O1027 O 0.91613 0.33191 0.34401 0.0
H1028 H 0.98085 0.26653 0.40577 0.0
H1029 H 0.00404 0.33666 0.33552 0.0
H1030 H 0.01205 0.29429 0.33023 0.0
H1031 H 0.0005 0.25891 0.36554 0.0
H1032 H 0.97295 0.30906 0.41018 0.0
H1033 H 0.09184 0.40473 0.37404 0.0
H1034 H 0.09875 0.44042 0.34011 0.0
O1035 O 0.96553 0.35183 0.34133 0.0
C1036 C 0.95194 0.39548 0.38151 0.0
C1037 C 0.05229 0.42525 0.33689 0.0
C1038 C 0.07296 0.40506 0.36604 0.0
N1039 N 0.02056 0.38562 0.36457 0.0
C1040 C 0.02416 0.40528 0.346 0.0
C1041 C 0.0445 0.38542 0.37469 0.0
C1042 C 0.07682 0.42507 0.34699 0.0
C1043 C 0.89769 0.30795 0.43104 0.0
N1044 N 0.89565 0.32788 0.41572 0.0
C1045 C 0.89126 0.30659 0.45674 0.0
C1046 C 0.88274 0.32586 0.46675 0.0
C1047 C 0.88068 0.34611 0.451 0.0
C1048 C 0.88726 0.34682 0.42538 0.0
C1049 C 0.81667 0.30649 0.37362 0.0
C1050 C 0.87022 0.34827 0.35318 0.0
C1051 C 0.84301 0.30773 0.38068 0.0
N1052 N 0.86935 0.32856 0.37059 0.0
C1053 C 0.84433 0.34771 0.34569 0.0
C1054 C 0.8174 0.32667 0.35602 0.0
C1055 C 0.93992 0.3413 0.33127 0.0
C1056 C 0.98605 0.28183 0.39027 0.0
C1057 C 0.99887 0.3213 0.35095 0.0
C1058 C 0.00351 0.29739 0.34786 0.0
C1059 C 0.99704 0.27755 0.36768 0.0
N1060 N 0.98819 0.3254 0.37319 0.0
C1061 C 0.98171 0.30601 0.39269 0.0
Co1062 Co 0.09161 0.42148 0.63817 0.0
Co1063 Co 0.0159 0.37594 0.63406 0.0
O1064 O 0.05646 0.38704 0.62502 0.0
C1065 C 0.10566 0.37519 0.65478 0.0
O1066 O 0.08179 0.36291 0.66882 0.0
C1067 C 0.01974 0.38473 0.57892 0.0
O1068 O 0.04533 0.40849 0.58312 0.0
O1069 O 0.02382 0.41722 0.63019 0.0
O1070 O 0.07269 0.44627 0.63529 0.0
H1071 H 0.93698 0.38494 0.68049 0.0
H1072 H 0.09729 0.38862 0.59498 0.0
O1073 O 0.11182 0.39762 0.64114 0.0
H1074 H 0.13409 0.49 0.56373 0.0
H1075 H 0.2013 0.4895 0.64719 0.0
H1076 H 0.10269 0.46865 0.675 0.0
H1077 H 0.11696 0.47688 0.60766 0.0
H1078 H 0.15633 0.44684 0.63003 0.0
O1079 O 0.00438 0.36865 0.59735 0.0
H1080 H 0.98818 0.39901 0.66932 0.0
H1081 H 0.95688 0.32821 0.61689 0.0
H1082 H 0.14708 0.51173 0.69245 0.0
H1083 H 0.11449 0.40086 0.55097 0.0
H1084 H 0.19683 0.52237 0.67855 0.0
H1085 H 0.13291 0.45183 0.53505 0.0
O1086 O 0.07655 0.41094 0.67328 0.0
H1087 H 0.01782 0.28462 0.60749 0.0
H1088 H 0.9872 0.32987 0.67386 0.0
H1089 H 0.97751 0.27892 0.6794 0.0
H1090 H 0.99279 0.25594 0.64603 0.0
H1091 H 0.02729 0.33561 0.60282 0.0
H1092 H 0.90533 0.3135 0.62734 0.0
H1093 H 0.89514 0.3419 0.65942 0.0
O1094 O 0.02698 0.38345 0.67074 0.0
C1095 C 0.04693 0.44258 0.63195 0.0
C1096 C 0.94114 0.37233 0.66655 0.0
C1097 C 0.92338 0.33226 0.63668 0.0
N1098 N 0.97548 0.3643 0.64264 0.0
C1099 C 0.97008 0.38014 0.6602 0.0
C1100 C 0.9526 0.34072 0.63081 0.0
C1101 C 0.91767 0.3482 0.65469 0.0
C1102 C 0.1056 0.41094 0.58827 0.0
N1103 N 0.1062 0.43203 0.6039 0.0
C1104 C 0.11518 0.4177 0.5633 0.0
C1105 C 0.12547 0.4463 0.55437 0.0
C1106 C 0.12611 0.46771 0.57045 0.0
C1107 C 0.11631 0.46014 0.59529 0.0
C1108 C 0.17974 0.48514 0.65334 0.0
C1109 C 0.12425 0.47327 0.66872 0.0
C1110 C 0.1542 0.46099 0.64373 0.0
N1111 N 0.1269 0.45541 0.65135 0.0
C1112 C 0.14931 0.49763 0.67872 0.0
C1113 C 0.17722 0.50357 0.67094 0.0
C1114 C 0.05099 0.39678 0.68341 0.0
C1115 C 0.01098 0.29436 0.62214 0.0
C1116 C 0.99401 0.32006 0.6593 0.0
C1117 C 0.9884 0.29118 0.66251 0.0
C1118 C 0.99697 0.27829 0.64378 0.0
N1119 N 0.00766 0.33563 0.63797 0.0
C1120 C 0.0162 0.32318 0.61955 0.0
Co1121 Co 0.67885 0.10418 0.13945 0.0
Co1122 Co 0.63967 0.02839 0.12957 0.0
O1123 O 0.67384 0.06794 0.12411 0.0
C1124 C 0.73485 0.12681 0.16731 0.0
O1125 O 0.71932 0.12396 0.18764 0.0
C1126 C 0.63988 0.03921 0.07469 0.0
O1127 O 0.64632 0.06615 0.08061 0.0
O1128 O 0.61111 0.04303 0.12641 0.0
O1129 O 0.63682 0.09195 0.133 0.0
H1130 H 0.54352 0.95378 0.16902 0.0
H1131 H 0.72007 0.10834 0.09919 0.0
O1132 O 0.72171 0.11762 0.14613 0.0
H1133 H 0.67217 0.16235 0.06645 0.0
H1134 H 0.732 0.21391 0.15599 0.0
H1135 H 0.64419 0.11784 0.17571 0.0
H1136 H 0.65994 0.13986 0.1088 0.0
H1137 H 0.72495 0.16817 0.13611 0.0
O1138 O 0.6364 0.02079 0.09205 0.0
H1139 H 0.58661 0.00342 0.16231 0.0
H1140 H 0.62068 0.96907 0.10751 0.0
H1141 H 0.65032 0.16307 0.19595 0.0
H1142 H 0.73323 0.1308 0.05684 0.0
H1143 H 0.6945 0.21154 0.18614 0.0
H1144 H 0.70911 0.15793 0.04017 0.0
O1145 O 0.66755 0.0845 0.17302 0.0
H1146 H 0.72573 0.01713 0.10285 0.0
H1147 H 0.64758 0.98992 0.16659 0.0
H1148 H 0.68253 0.97146 0.17094 0.0
H1149 H 0.72188 0.98498 0.13887 0.0
H1150 H 0.69047 0.03533 0.09936 0.0
H1151 H 0.57785 0.91908 0.11347 0.0
H1152 H 0.53895 0.91119 0.14448 0.0
O1153 O 0.64218 0.03532 0.16702 0.0
C1154 C 0.61281 0.06814 0.12843 0.0
C1155 C 0.56038 0.95692 0.15552 0.0
C1156 C 0.57963 0.93745 0.12431 0.0
N1157 N 0.60623 0.98907 0.13469 0.0
C1158 C 0.58486 0.98495 0.1517 0.0
C1159 C 0.60379 0.96581 0.12098 0.0
C1160 C 0.55781 0.93304 0.14172 0.0
C1161 C 0.70973 0.1204 0.09219 0.0
N1162 N 0.68937 0.1229 0.10652 0.0
C1163 C 0.71717 0.13295 0.06814 0.0
C1164 C 0.70359 0.14813 0.05878 0.0
C1165 C 0.68284 0.15059 0.07351 0.0
C1166 C 0.67593 0.13773 0.09745 0.0
C1167 C 0.71263 0.19293 0.16039 0.0
C1168 C 0.66342 0.13886 0.17127 0.0
C1169 C 0.7085 0.16695 0.14918 0.0
N1170 N 0.68412 0.14034 0.15469 0.0
C1171 C 0.66679 0.16439 0.18281 0.0
C1172 C 0.69159 0.19158 0.17731 0.0
C1173 C 0.65349 0.05805 0.18134 0.0
C1174 C 0.70863 0.01103 0.11692 0.0
C1175 C 0.66475 0.99603 0.15263 0.0
C1176 C 0.68442 0.98544 0.15516 0.0
C1177 C 0.70648 0.99302 0.13715 0.0
N1178 N 0.66693 0.01359 0.13268 0.0
C1179 C 0.68856 0.0212 0.115 0.0
Co1180 Co 0.56644 0.67469 0.63179 0.0
Co1181 Co 0.61308 0.64566 0.6298 0.0
O1182 O 0.60092 0.6738 0.6191 0.0
C1183 C 0.61452 0.73514 0.64455 0.0
O1184 O 0.62831 0.72337 0.6562 0.0
C1185 C 0.60155 0.63631 0.57524 0.0
O1186 O 0.57741 0.63714 0.5802 0.0
O1187 O 0.57198 0.61164 0.62788 0.0
O1188 O 0.54203 0.63074 0.63065 0.0
H1189 H 0.60797 0.56242 0.68118 0.0
H1190 H 0.59828 0.71128 0.58738 0.0
O1191 O 0.59007 0.71888 0.63332 0.0
H1192 H 0.49673 0.64404 0.55787 0.0
H1193 H 0.49755 0.71559 0.63805 0.0
H1194 H 0.52012 0.64034 0.66978 0.0
H1195 H 0.51074 0.64232 0.60201 0.0
H1196 H 0.54031 0.71297 0.62158 0.0
O1197 O 0.61906 0.63892 0.59317 0.0
H1198 H 0.59242 0.59787 0.66796 0.0
H1199 H 0.66068 0.63402 0.61305 0.0
H1200 H 0.47696 0.64197 0.68659 0.0
H1201 H 0.58513 0.71398 0.54314 0.0
H1202 H 0.46545 0.67981 0.67071 0.0
H1203 H 0.53406 0.68009 0.52811 0.0
O1204 O 0.57767 0.67229 0.6671 0.0
H1205 H 0.70227 0.73759 0.59806 0.0
H1206 H 0.6607 0.66677 0.66851 0.0
H1207 H 0.71146 0.70901 0.67175 0.0
H1208 H 0.73258 0.74474 0.63632 0.0
H1209 H 0.65153 0.69516 0.5957 0.0
H1210 H 0.67681 0.59879 0.62551 0.0
H1211 H 0.65045 0.56275 0.65989 0.0
O1212 O 0.60676 0.65188 0.66638 0.0
C1213 C 0.54638 0.60887 0.6291 0.0
C1214 C 0.61969 0.57809 0.66624 0.0
C1215 C 0.65831 0.59847 0.63497 0.0
N1216 N 0.62579 0.61812 0.63991 0.0
C1217 C 0.61105 0.59826 0.65873 0.0
C1218 C 0.64904 0.61831 0.62796 0.0
C1219 C 0.64351 0.57826 0.65426 0.0
C1220 C 0.57593 0.6967 0.58104 0.0
N1221 N 0.55527 0.67678 0.59728 0.0
C1222 C 0.56864 0.69824 0.55595 0.0
C1223 C 0.54 0.67919 0.54752 0.0
C1224 C 0.51905 0.65893 0.5642 0.0
C1225 C 0.52713 0.65802 0.58916 0.0
C1226 C 0.50228 0.69894 0.64506 0.0
C1227 C 0.5151 0.65671 0.66263 0.0
C1228 C 0.52648 0.69737 0.63583 0.0
N1229 N 0.5325 0.67631 0.64452 0.0
C1230 C 0.4907 0.6576 0.67228 0.0
C1231 C 0.48428 0.67886 0.66338 0.0
C1232 C 0.5928 0.66257 0.67817 0.0
C1233 C 0.69334 0.72212 0.61359 0.0
C1234 C 0.66971 0.68228 0.65305 0.0
C1235 C 0.69848 0.70611 0.65497 0.0
C1236 C 0.71032 0.72614 0.63508 0.0
N1237 N 0.65325 0.67843 0.63187 0.0
C1238 C 0.66467 0.69801 0.61232 0.0
Co1239 Co 0.88375 0.56411 0.13163 0.0
Co1240 Co 0.96025 0.60269 0.12846 0.0
O1241 O 0.92111 0.59569 0.11833 0.0
C1242 C 0.87778 0.61906 0.13188 0.0
O1243 O 0.90499 0.63636 0.12427 0.0
C1244 C 0.95543 0.59073 0.07385 0.0
O1245 O 0.92923 0.56836 0.07914 0.0
O1246 O 0.94766 0.55989 0.12655 0.0
O1247 O 0.89834 0.53554 0.1298 0.0
H1248 H 0.03201 0.58562 0.1785 0.0
H1249 H 0.88392 0.59803 0.08633 0.0
O1250 O 0.86731 0.59136 0.13469 0.0
H1251 H 0.83467 0.49394 0.05924 0.0
H1252 H 0.77305 0.50567 0.14073 0.0
H1253 H 0.86781 0.51705 0.16983 0.0
H1254 H 0.85252 0.50763 0.10292 0.0
H1255 H 0.82016 0.54464 0.12296 0.0
O1256 O 0.97204 0.6071 0.09165 0.0
H1257 H 0.98272 0.57669 0.16608 0.0
H1258 H 0.02138 0.64451 0.11091 0.0
H1259 H 0.8212 0.47758 0.18791 0.0
H1260 H 0.86606 0.58529 0.04264 0.0
H1261 H 0.77338 0.47172 0.17336 0.0
H1262 H 0.84132 0.53291 0.02877 0.0
O1263 O 0.89884 0.57477 0.16651 0.0
H1264 H 0.97393 0.69916 0.09596 0.0
H1265 H 0.99141 0.64934 0.16737 0.0
H1266 H 0.00798 0.70247 0.17034 0.0
H1267 H 0.99936 0.72776 0.13442 0.0
H1268 H 0.95727 0.64596 0.09395 0.0
H1269 H 0.07108 0.65403 0.12258 0.0
H1270 H 0.07662 0.62453 0.15667 0.0
O1271 O 0.94852 0.59791 0.16526 0.0
C1272 C 0.92286 0.53606 0.12795 0.0
C1273 C 0.02989 0.59869 0.16368 0.0
C1274 C 0.05182 0.63705 0.13226 0.0
N1275 N 0.99923 0.61023 0.13795 0.0
C1276 C 0.00205 0.5938 0.15662 0.0
C1277 C 0.02362 0.63153 0.1257 0.0
C1278 C 0.05491 0.6205 0.1514 0.0
C1279 C 0.87272 0.57516 0.08067 0.0
N1280 N 0.86888 0.5536 0.09737 0.0
C1281 C 0.86283 0.56808 0.0558 0.0
C1282 C 0.84902 0.5387 0.04801 0.0
C1283 C 0.8453 0.51683 0.06509 0.0
C1284 C 0.85549 0.52474 0.0898 0.0
C1285 C 0.79374 0.50794 0.14716 0.0
C1286 C 0.84707 0.51447 0.16325 0.0
C1287 C 0.82049 0.52999 0.1372 0.0
N1288 N 0.8467 0.53292 0.14517 0.0
C1289 C 0.82076 0.49215 0.17362 0.0
C1290 C 0.79394 0.4889 0.16547 0.0
C1291 C 0.92402 0.58708 0.17731 0.0
C1292 C 0.97785 0.6884 0.11173 0.0
C1293 C 0.98729 0.6601 0.15176 0.0
C1294 C 0.99687 0.69024 0.1535 0.0
C1295 C 0.99207 0.70442 0.13333 0.0
N1296 N 0.97333 0.64453 0.13052 0.0
C1297 C 0.9686 0.6583 0.11065 0.0
Co1298 Co 0.32718 0.89858 0.62604 0.0
Co1299 Co 0.35165 0.9733 0.62882 0.0
O1300 O 0.32688 0.93384 0.61458 0.0
C1301 C 0.26272 0.87761 0.63143 0.0
O1302 O 0.2687 0.89907 0.64743 0.0
C1303 C 0.36596 0.97889 0.57492 0.0
O1304 O 0.36767 0.95487 0.5779 0.0
O1305 O 0.38776 0.96963 0.62702 0.0
O1306 O 0.37087 0.92102 0.63072 0.0
H1307 H 0.4276 0.0485 0.6874 0.0
H1308 H 0.29795 0.89667 0.57755 0.0
O1309 O 0.28339 0.87499 0.62132 0.0
H1310 H 0.37628 0.87411 0.55581 0.0
H1311 H 0.29477 0.7902 0.6243 0.0
H1312 H 0.35688 0.88526 0.66745 0.0
H1313 H 0.3684 0.88327 0.59999 0.0
H1314 H 0.29595 0.83555 0.60953 0.0
O1315 O 0.36005 0.99028 0.59372 0.0
H1316 H 0.39634 0.99865 0.66962 0.0
H1317 H 0.35946 0.03252 0.61702 0.0
H1318 H 0.35659 0.84051 0.68268 0.0
H1319 H 0.30482 0.88724 0.53317 0.0
H1320 H 0.32535 0.79255 0.66106 0.0
H1321 H 0.34433 0.87604 0.52204 0.0
O1322 O 0.32196 0.90713 0.66154 0.0
H1323 H 0.25843 0.96626 0.59529 0.0
H1324 H 0.32459 0.9922 0.66888 0.0
H1325 H 0.27965 0.99621 0.6719 0.0
H1326 H 0.24625 0.98325 0.6349 0.0
H1327 H 0.3035 0.96236 0.59315 0.0
H1328 H 0.39052 0.0828 0.63405 0.0
H1329 H 0.4248 0.091 0.66957 0.0
O1330 O 0.34377 0.95669 0.66398 0.0
C1331 C 0.39188 0.94772 0.6296 0.0
C1332 C 0.41268 0.0452 0.67198 0.0
C1333 C 0.3919 0.06446 0.64201 0.0
N1334 N 0.37593 0.01267 0.64247 0.0
C1335 C 0.39487 0.01701 0.66189 0.0
C1336 C 0.37442 0.03596 0.63241 0.0
C1337 C 0.41112 0.06904 0.66195 0.0
C1338 C 0.31493 0.89142 0.5729 0.0
N1339 N 0.33265 0.8904 0.59136 0.0
C1340 C 0.31881 0.88624 0.54772 0.0
C1341 C 0.34102 0.88001 0.54149 0.0
C1342 C 0.35898 0.87897 0.56042 0.0
C1343 C 0.35447 0.88426 0.5854 0.0
C1344 C 0.30853 0.81099 0.63383 0.0
C1345 C 0.34341 0.86451 0.65783 0.0
C1346 C 0.30926 0.83673 0.62559 0.0
N1347 N 0.3267 0.86308 0.63747 0.0
C1348 C 0.34326 0.83923 0.66659 0.0
C1349 C 0.3257 0.81232 0.65446 0.0
C1350 C 0.33118 0.93101 0.67407 0.0
C1351 C 0.27286 0.97205 0.61152 0.0
C1352 C 0.31012 0.98644 0.65272 0.0
C1353 C 0.28474 0.98881 0.65453 0.0
C1354 C 0.26601 0.98155 0.63376 0.0
N1355 N 0.31673 0.97721 0.63081 0.0
C1356 C 0.29845 0.96997 0.61039 0.0
Co1357 Co 0.42672 0.32706 0.13234 0.0
Co1358 Co 0.38909 0.36583 0.13362 0.0
O1359 O 0.39556 0.33435 0.1208 0.0
C1360 C 0.39159 0.26397 0.14708 0.0
O1361 O 0.39996 0.27221 0.17045 0.0
C1362 C 0.39961 0.37679 0.07908 0.0
O1363 O 0.42208 0.37258 0.08251 0.0
O1364 O 0.43187 0.39586 0.13125 0.0
O1365 O 0.45551 0.37014 0.13457 0.0
H1366 H 0.40846 0.45196 0.18867 0.0
H1367 H 0.39402 0.29803 0.08549 0.0
O1368 O 0.39845 0.28338 0.12984 0.0
H1369 H 0.49825 0.35818 0.05968 0.0
H1370 H 0.48564 0.27468 0.13226 0.0
H1371 H 0.47184 0.35187 0.1728 0.0
H1372 H 0.48387 0.35675 0.10418 0.0
H1373 H 0.44733 0.28527 0.117 0.0
O1374 O 0.3836 0.37539 0.09782 0.0
H1375 H 0.41662 0.41218 0.17294 0.0
H1376 H 0.34697 0.3863 0.11999 0.0
H1377 H 0.51056 0.34214 0.18855 0.0
H1378 H 0.4075 0.29854 0.04083 0.0
H1379 H 0.51763 0.30326 0.16826 0.0
H1380 H 0.45992 0.3289 0.02766 0.0
O1381 O 0.41519 0.32768 0.16791 0.0
H1382 H 0.29223 0.28326 0.10176 0.0
H1383 H 0.34342 0.34915 0.17365 0.0
H1384 H 0.29047 0.31218 0.17723 0.0
H1385 H 0.2645 0.27897 0.14108 0.0
H1386 H 0.34524 0.32038 0.09908 0.0
H1387 H 0.3382 0.42597 0.13499 0.0
H1388 H 0.369 0.45905 0.16964 0.0
O1389 O 0.39489 0.3568 0.16951 0.0
C1390 C 0.45541 0.39443 0.1331 0.0
C1391 C 0.39482 0.43763 0.17362 0.0
C1392 C 0.35542 0.42306 0.14347 0.0
N1393 N 0.38212 0.3968 0.14574 0.0
C1394 C 0.39928 0.41501 0.1647 0.0
C1395 C 0.36052 0.40069 0.13502 0.0
C1396 C 0.3727 0.44161 0.16292 0.0
C1397 C 0.41694 0.31098 0.07997 0.0
N1398 N 0.43814 0.32719 0.09747 0.0
C1399 C 0.42442 0.3113 0.05463 0.0
C1400 C 0.45382 0.32838 0.04724 0.0
C1401 C 0.47533 0.34484 0.0652 0.0
C1402 C 0.46704 0.34401 0.09036 0.0
C1403 C 0.48281 0.2917 0.14124 0.0
C1404 C 0.47486 0.335 0.1638 0.0
C1405 C 0.46112 0.29777 0.13271 0.0
N1406 N 0.45738 0.31921 0.14397 0.0
C1407 C 0.4968 0.32956 0.17283 0.0
C1408 C 0.50074 0.30774 0.16144 0.0
C1409 C 0.40445 0.34118 0.18012 0.0
C1410 C 0.30329 0.29764 0.11763 0.0
C1411 C 0.33231 0.33468 0.15788 0.0
C1412 C 0.30231 0.31384 0.16 0.0
C1413 C 0.28775 0.29523 0.1397 0.0
N1414 N 0.34736 0.33699 0.13613 0.0
C1415 C 0.33327 0.31876 0.11619 0.0
H1416 H 0.42373 0.09838 0.28969 0.0
H1417 H 0.36977 0.00354 0.29657 0.0
H1418 H 0.36879 0.99857 0.25081 0.0
H1419 H 0.38346 0.02096 0.20877 0.0
H1420 H 0.43755 0.11583 0.20206 0.0
H1421 H 0.43818 0.12074 0.24776 0.0
C1422 C 0.41168 0.07659 0.28125 0.0
C1423 C 0.39684 0.05142 0.29671 0.0
C1424 C 0.41123 0.0738 0.25487 0.0
C1425 C 0.3814 0.02338 0.28527 0.0
C1426 C 0.38083 0.02047 0.25904 0.0
C1427 C 0.39539 0.04274 0.21725 0.0
C1428 C 0.41042 0.06793 0.20183 0.0
C1429 C 0.39571 0.04551 0.24364 0.0
C1430 C 0.42576 0.09596 0.21331 0.0
C1431 C 0.42615 0.09885 0.23952 0.0
H1432 H 0.31386 0.41275 0.71832 0.0
H1433 H 0.37701 0.38323 0.70853 0.0
H1434 H 0.38101 0.38063 0.75433 0.0
H1435 H 0.36781 0.38852 0.79737 0.0
H1436 H 0.30465 0.41835 0.806 0.0
H1437 H 0.29947 0.4188 0.76053 0.0
C1438 C 0.32836 0.40549 0.72605 0.0
C1439 C 0.34509 0.39822 0.70979 0.0
C1440 C 0.33067 0.40416 0.75235 0.0
C1441 C 0.36382 0.38898 0.72045 0.0
C1442 C 0.36617 0.38752 0.7467 0.0
C1443 C 0.35277 0.39494 0.78933 0.0
C1444 C 0.33679 0.40351 0.80532 0.0
C1445 C 0.34988 0.39532 0.76288 0.0
C1446 C 0.3174 0.41175 0.79439 0.0
C1447 C 0.31437 0.41204 0.76827 0.0
H1448 H 0.90397 0.32381 0.21629 0.0
H1449 H 0.9986 0.36851 0.20642 0.0
H1450 H 0.00523 0.37107 0.25226 0.0
H1451 H 0.98395 0.36122 0.29538 0.0
H1452 H 0.889 0.31668 0.30387 0.0
H1453 H 0.883 0.31358 0.25843 0.0
C1454 C 0.92614 0.33409 0.22401 0.0
C1455 C 0.95072 0.34594 0.20774 0.0
C1456 C 0.92982 0.3356 0.2503 0.0
C1457 C 0.9792 0.35915 0.21837 0.0
C1458 C 0.98304 0.36066 0.24464 0.0
C1459 C 0.96195 0.35078 0.2873 0.0
C1460 C 0.93703 0.3393 0.30328 0.0
C1461 C 0.95847 0.34905 0.26083 0.0
C1462 C 0.9087 0.32585 0.29229 0.0
C1463 C 0.90515 0.32401 0.26619 0.0
H1464 H 0.58755 0.90667 0.71758 0.0
H1465 H 0.61803 0.00015 0.71436 0.0
H1466 H 0.61999 0.00263 0.76045 0.0
H1467 H 0.61091 0.97766 0.80191 0.0
H1468 H 0.57958 0.8839 0.80405 0.0
H1469 H 0.58039 0.8824 0.75827 0.0
C1470 C 0.59489 0.92773 0.72682 0.0
C1471 C 0.6026 0.95316 0.71232 0.0
C1472 C 0.59576 0.92899 0.75329 0.0
C1473 C 0.61192 0.98015 0.7249 0.0
C1474 C 0.61303 0.9816 0.75132 0.0
C1475 C 0.60453 0.95696 0.79237 0.0
C1476 C 0.59505 0.93093 0.8066 0.0
C1477 C 0.60471 0.95608 0.76576 0.0
C1478 C 0.58678 0.9043 0.79377 0.0
C1479 C 0.58722 0.90336 0.76749 0.0
H1480 H 0.64171 0.61661 0.30367 0.0
H1481 H 0.69625 0.57593 0.30413 0.0
H1482 H 0.69579 0.57465 0.25848 0.0
H1483 H 0.67951 0.58373 0.21835 0.0
H1484 H 0.62554 0.6248 0.21621 0.0
H1485 H 0.62636 0.62728 0.26241 0.0
C1486 C 0.65362 0.60762 0.29379 0.0
C1487 C 0.66889 0.59632 0.30761 0.0
C1488 C 0.65336 0.60687 0.26714 0.0
C1489 C 0.6842 0.58477 0.29429 0.0
C1490 C 0.68398 0.58396 0.26803 0.0
C1491 C 0.66784 0.59324 0.22786 0.0
C1492 C 0.65232 0.60387 0.21369 0.0
C1493 C 0.66849 0.59471 0.25429 0.0
C1494 C 0.63765 0.61638 0.22656 0.0
C1495 C 0.63809 0.61778 0.25302 0.0
H1496 H 0.01976 0.63121 0.7144 0.0
H1497 H 0.11476 0.68428 0.70813 0.0
H1498 H 0.11916 0.68759 0.75379 0.0
H1499 H 0.09668 0.67512 0.79555 0.0
H1500 H 0.00187 0.62235 0.80277 0.0
H1501 H 0.99697 0.61943 0.75681 0.0
C1502 C 0.04144 0.64357 0.72299 0.0
C1503 C 0.06685 0.65741 0.7076 0.0
C1504 C 0.04395 0.64548 0.74951 0.0
C1505 C 0.09472 0.67334 0.71926 0.0
C1506 C 0.09734 0.67528 0.74548 0.0
C1507 C 0.07486 0.66296 0.78719 0.0
C1508 C 0.04971 0.64891 0.80279 0.0
C1509 C 0.07216 0.66136 0.76079 0.0
C1510 C 0.02168 0.63341 0.79137 0.0
C1511 C 0.01883 0.63169 0.76503 0.0
H1512 H 0.9711 0.60581 0.21017 0.0
H1513 H 0.87648 0.56972 0.2081 0.0
H1514 H 0.87457 0.56825 0.25374 0.0
H1515 H 0.89882 0.57611 0.29437 0.0
H1516 H 0.99323 0.61234 0.29797 0.0
H1517 H 0.99594 0.61477 0.25184 0.0
C1518 C 0.9501 0.59777 0.2197 0.0
C1519 C 0.92402 0.58784 0.20543 0.0
C1520 C 0.94897 0.59685 0.24634 0.0
C1521 C 0.89701 0.57746 0.2183 0.0
C1522 C 0.89579 0.57655 0.24455 0.0
C1523 C 0.92009 0.58456 0.28519 0.0
C1524 C 0.94574 0.59391 0.2998 0.0
C1525 C 0.92153 0.58599 0.25875 0.0
C1526 C 0.97305 0.60492 0.28732 0.0
C1527 C 0.97463 0.60633 0.26089 0.0
H1528 H 0.31089 0.89888 0.78984 0.0
H1529 H 0.36641 0.99355 0.79661 0.0
H1530 H 0.36775 0.9984 0.7508 0.0
H1531 H 0.35471 0.9757 0.70874 0.0
H1532 H 0.30023 0.88086 0.70224 0.0
H1533 H 0.2969 0.87636 0.748 0.0
C1534 C 0.32312 0.92064 0.78139 0.0
C1535 C 0.33847 0.94578 0.79681 0.0
C1536 C 0.32409 0.92331 0.755 0.0
C1537 C 0.35434 0.97375 0.78533 0.0
C1538 C 0.35516 0.97658 0.75908 0.0
C1539 C 0.34192 0.95404 0.71728 0.0
C1540 C 0.32784 0.92868 0.70193 0.0
C1541 C 0.34033 0.95149 0.74371 0.0
C1542 C 0.31143 0.90081 0.71347 0.0
C1543 C 0.3095 0.89816 0.7397 0.0
H1544 H 0.42178 0.3263 0.29584 0.0
H1545 H 0.37613 0.37557 0.3036 0.0
H1546 H 0.37192 0.37663 0.25764 0.0
H1547 H 0.38218 0.36422 0.21498 0.0
H1548 H 0.42759 0.31439 0.2088 0.0
H1549 H 0.43047 0.31275 0.25431 0.0
C1550 C 0.41063 0.3371 0.28766 0.0
C1551 C 0.39923 0.35074 0.30338 0.0
C1552 C 0.40818 0.33753 0.26133 0.0
C1553 C 0.38512 0.36481 0.2921 0.0
C1554 C 0.38271 0.36544 0.26576 0.0
C1555 C 0.39255 0.35286 0.22358 0.0
C1556 C 0.40455 0.33941 0.20819 0.0
C1557 C 0.39429 0.35196 0.25013 0.0
C1558 C 0.41795 0.32485 0.21987 0.0
C1559 C 0.41975 0.32393 0.24604 0.0
H1560 H 0.09681 0.41725 0.71644 0.0
H1561 H 0.00159 0.37369 0.71367 0.0
H1562 H -0.00037 0.3729 0.7598 0.0
H1563 H 0.02519 0.38532 0.80111 0.0
H1564 H 0.12056 0.4287 0.80268 0.0
H1565 H 0.12195 0.42867 0.75696 0.0
C1566 C 0.07553 0.40755 0.72581 0.0
C1567 C 0.04941 0.39566 0.71145 0.0
C1568 C 0.07453 0.40711 0.75227 0.0
C1569 C 0.02212 0.38304 0.72414 0.0
C1570 C 0.02096 0.3826 0.75057 0.0
C1571 C 0.04627 0.3947 0.79147 0.0
C1572 C 0.07269 0.40703 0.80556 0.0
C1573 C 0.04706 0.39467 0.76487 0.0
C1574 C 0.09979 0.41904 0.79257 0.0
C1575 C 0.10069 0.41909 0.7663 0.0
H1576 H 0.63444 0.02208 0.29732 0.0
H1577 H 0.678 0.11716 0.30451 0.0
H1578 H 0.68084 0.12234 0.25904 0.0
H1579 H 0.67111 0.10068 0.21725 0.0
H1580 H 0.62873 0.00601 0.20848 0.0
H1581 H 0.62501 6e-05 0.2544 0.0
C1582 C 0.6446 0.04392 0.28895 0.0
C1583 C 0.6561 0.06914 0.3046 0.0
C1584 C 0.64632 0.04694 0.26242 0.0
C1585 C 0.66912 0.09726 0.29322 0.0
C1586 C 0.67072 0.10034 0.26708 0.0
C1587 C 0.66124 0.07866 0.22521 0.0
C1588 C 0.6505 0.05389 0.20922 0.0
C1589 C 0.65945 0.07541 0.25152 0.0
C1590 C 0.63732 0.02557 0.2202 0.0
C1591 C 0.63521 0.02213 0.24652 0.0
H1592 H 0.61895 0.64164 0.7111 0.0
H1593 H 0.56945 0.6876 0.70875 0.0
H1594 H 0.56983 0.68998 0.75443 0.0
H1595 H 0.58295 0.67843 0.79519 0.0
H1596 H 0.632 0.63219 0.79876 0.0
H1597 H 0.63308 0.63075 0.75267 0.0
C1598 C 0.60834 0.65226 0.72056 0.0
C1599 C 0.59412 0.6643 0.70624 0.0
C1600 C 0.60849 0.65356 0.74717 0.0
C1601 C 0.5805 0.67798 0.71902 0.0
C1602 C 0.58068 0.67942 0.74528 0.0
C1603 C 0.59404 0.66811 0.78601 0.0
C1604 C 0.60734 0.65543 0.80062 0.0
C1605 C 0.59444 0.66718 0.75955 0.0
C1606 C 0.62154 0.64217 0.78814 0.0
C1607 C 0.62214 0.64128 0.76171 0.0
H1608 H 0.38635 0.15023 0.1042 0.0
H1609 H 0.36102 0.12124 0.18092 0.0
H1610 H 0.35719 0.16516 0.18978 0.0
H1611 H 0.36877 0.21531 0.17731 0.0
H1612 H 0.39296 0.24338 0.10009 0.0
H1613 H 0.3889 0.19611 0.08974 0.0
C1614 C 0.37928 0.15323 0.12267 0.0
C1615 C 0.37434 0.13286 0.14197 0.0
C1616 C 0.3772 0.1785 0.12761 0.0
C1617 C 0.36489 0.13667 0.16576 0.0
C1618 C 0.36295 0.1619 0.17089 0.0
C1619 C 0.37247 0.2108 0.15809 0.0
C1620 C 0.38175 0.2331 0.13967 0.0
C1621 C 0.3702 0.18351 0.15221 0.0
C1622 C 0.386 0.22676 0.11474 0.0
C1623 C 0.38388 0.19975 0.10879 0.0
H1624 H 0.14326 0.3769 0.61914 0.0
H1625 H 0.1199 0.35582 0.69742 0.0
H1626 H 0.16512 0.3538 0.70469 0.0
H1627 H 0.21468 0.3657 0.68999 0.0
H1628 H 0.2371 0.38606 0.61128 0.0
H1629 H 0.18869 0.3801 0.60294 0.0
C1630 C 0.14778 0.37116 0.63764 0.0
C1631 C 0.12859 0.36686 0.65779 0.0
C1632 C 0.17379 0.3702 0.64167 0.0
C1633 C 0.13438 0.35915 0.68162 0.0
C1634 C 0.16035 0.35825 0.68582 0.0
C1635 C 0.20873 0.36816 0.67091 0.0
C1636 C 0.2298 0.37693 0.65144 0.0
C1637 C 0.18076 0.36487 0.66618 0.0
C1638 C 0.22153 0.37959 0.62673 0.0
C1639 C 0.19383 0.37635 0.62191 0.0
H1640 H 0.85842 0.23977 0.18023 0.0
H1641 H 0.86692 0.22109 0.10256 0.0
H1642 H 0.82085 0.17349 0.10559 0.0
H1643 H 0.77464 0.1413 0.12876 0.0
H1644 H 0.76758 0.16021 0.20699 0.0
H1645 H 0.81689 0.20317 0.20549 0.0
C1646 C 0.85056 0.22478 0.16424 0.0
C1647 C 0.86572 0.23368 0.14122 0.0
C1648 C 0.8242 0.19767 0.16616 0.0
C1649 C 0.85558 0.21438 0.12052 0.0
C1650 C 0.82914 0.18735 0.12221 0.0
C1651 C 0.78417 0.15439 0.14565 0.0
C1652 C 0.76709 0.14784 0.16777 0.0
C1653 C 0.81269 0.17931 0.14469 0.0
C1654 C 0.77997 0.16484 0.18958 0.0
C1655 C 0.8082 0.18958 0.18875 0.0
H1656 H 0.61008 0.7712 0.61059 0.0
H1657 H 0.64022 0.76942 0.68591 0.0
H1658 H 0.64631 0.81822 0.69441 0.0
H1659 H 0.63588 0.85768 0.68224 0.0
H1660 H 0.60715 0.8597 0.60624 0.0
H1661 H 0.60837 0.81495 0.59604 0.0
C1662 C 0.61862 0.78186 0.62865 0.0
C1663 C 0.62434 0.76674 0.64771 0.0
C1664 C 0.62212 0.80985 0.63334 0.0
C1665 C 0.6357 0.78075 0.67096 0.0
C1666 C 0.63898 0.80853 0.67587 0.0
C1667 C 0.63058 0.84872 0.66328 0.0
C1668 C 0.62085 0.86174 0.64524 0.0
C1669 C 0.63122 0.8228 0.65749 0.0
C1670 C 0.6145 0.8501 0.62062 0.0
C1671 C 0.61497 0.82432 0.61477 0.0
H1672 H 0.78205 0.65698 0.11902 0.0
H1673 H 0.74449 0.59621 0.18135 0.0
H1674 H 0.7894 0.59345 0.18527 0.0
H1675 H 0.83555 0.60182 0.16687 0.0
H1676 H 0.87392 0.66125 0.10399 0.0
H1677 H 0.83287 0.67148 0.10454 0.0
C1678 C 0.78419 0.64393 0.13391 0.0
C1679 C 0.75997 0.62657 0.14971 0.0
C1680 C 0.81 0.64185 0.13568 0.0
C1681 C 0.76281 0.60954 0.16884 0.0
C1682 C 0.78841 0.60784 0.17104 0.0
C1683 C 0.83521 0.61749 0.15362 0.0
C1684 C 0.85733 0.63048 0.13523 0.0
C1685 C 0.81155 0.62286 0.1539 0.0
C1686 C 0.85701 0.65102 0.11833 0.0
C1687 C 0.83344 0.65667 0.11855 0.0
H1688 H 0.21496 0.85922 0.66254 0.0
H1689 H 0.24185 0.84225 0.5904 0.0
H1690 H 0.19438 0.79712 0.58581 0.0
H1691 H 0.14864 0.75923 0.60474 0.0
H1692 H 0.1221 0.77365 0.67798 0.0
H1693 H 0.16555 0.82328 0.67939 0.0
C1694 C 0.21009 0.84598 0.64557 0.0
C1695 C 0.23199 0.85386 0.62697 0.0
C1696 C 0.1829 0.81947 0.64333 0.0
C1697 C 0.22547 0.83646 0.60512 0.0
C1698 C 0.19834 0.81062 0.60247 0.0
C1699 C 0.15203 0.7734 0.62086 0.0
C1700 C 0.13242 0.76258 0.6414 0.0
C1701 C 0.1774 0.80138 0.62187 0.0
C1702 C 0.1369 0.78139 0.66194 0.0
C1703 C 0.1619 0.8097 0.66284 0.0
H1704 H 0.87794 0.65828 0.39773 0.0
H1705 H 0.85743 0.60725 0.3292 0.0
H1706 H 0.81117 0.60749 0.32515 0.0
H1707 H 0.77291 0.61419 0.34505 0.0
H1708 H 0.79142 0.66389 0.41403 0.0
H1709 H 0.84217 0.67264 0.4139 0.0
C1710 C 0.86381 0.64826 0.38146 0.0
C1711 C 0.87087 0.63261 0.36385 0.0
C1712 C 0.83665 0.64774 0.37963 0.0
C1713 C 0.85229 0.61932 0.34299 0.0
C1714 C 0.82575 0.61926 0.34076 0.0
C1715 C 0.78835 0.62758 0.35969 0.0
C1716 C 0.77858 0.63811 0.37965 0.0
C1717 C 0.8171 0.63213 0.35959 0.0
C1718 C 0.79864 0.65563 0.39845 0.0
C1719 C 0.82754 0.66042 0.39846 0.0
H1720 H 0.14523 0.76388 0.89373 0.0
H1721 H 0.11786 0.76133 0.81662 0.0
H1722 H 0.1612 0.80994 0.8089 0.0
H1723 H 0.21057 0.84913 0.82251 0.0
H1724 H 0.23706 0.8515 0.90007 0.0
H1725 H 0.19012 0.80739 0.90927 0.0
C1726 C 0.14844 0.77435 0.87541 0.0
C1727 C 0.12872 0.75904 0.85568 0.0
C1728 C 0.17337 0.80213 0.87113 0.0
C1729 C 0.13279 0.7728 0.8321 0.0
C1730 C 0.15768 0.80047 0.82764 0.0
C1731 C 0.20579 0.8404 0.84156 0.0
C1732 C 0.22761 0.8533 0.8604 0.0
C1733 C 0.17871 0.81479 0.84676 0.0
C1734 C 0.22086 0.84196 0.8851 0.0
C1735 C 0.19403 0.81656 0.89039 0.0
H1736 H 0.38349 0.15127 0.3871 0.0
H1737 H 0.36311 0.13275 0.30802 0.0
H1738 H 0.36382 0.1796 0.30288 0.0
H1739 H 0.37706 0.2287 0.31974 0.0
H1740 H 0.39716 0.24665 0.399 0.0
H1741 H 0.38935 0.19707 0.40518 0.0
C1742 C 0.3786 0.15722 0.36884 0.0
C1743 C 0.37364 0.13877 0.34791 0.0
C1744 C 0.37931 0.18426 0.36598 0.0
C1745 C 0.367 0.14656 0.32444 0.0
C1746 C 0.36764 0.17348 0.32144 0.0
C1747 C 0.3792 0.22157 0.33845 0.0
C1748 C 0.38815 0.24157 0.35876 0.0
C1749 C 0.37482 0.19296 0.3419 0.0
C1750 C 0.39043 0.23183 0.38297 0.0
C1751 C 0.38612 0.20348 0.38653 0.0
H1752 H 0.22065 0.35398 0.84104 0.0
H1753 H 0.24398 0.38406 0.91791 0.0
H1754 H 0.1964 0.38102 0.92401 0.0
H1755 H 0.15276 0.37888 0.90529 0.0
H1756 H 0.12949 0.35079 0.82813 0.0
H1757 H 0.17202 0.3433 0.82449 0.0
C1758 C 0.21491 0.35894 0.85934 0.0
C1759 C 0.23601 0.36975 0.87884 0.0
C1760 C 0.18768 0.3579 0.86256 0.0
C1761 C 0.22827 0.3761 0.90248 0.0
C1762 C 0.20111 0.37447 0.90598 0.0
C1763 C 0.15659 0.37038 0.88788 0.0
C1764 C 0.13843 0.36584 0.8669 0.0
C1765 C 0.18133 0.36683 0.8858 0.0
C1766 C 0.14327 0.35447 0.84454 0.0
C1767 C 0.16774 0.35046 0.84239 0.0
H1768 H 0.77922 0.15123 0.33168 0.0
H1769 H 0.75639 0.15151 0.40992 0.0
H1770 H 0.80552 0.19308 0.41823 0.0
H1771 H 0.85183 0.23413 0.4018 0.0
H1772 H 0.87543 0.23377 0.32393 0.0
H1773 H 0.8294 0.18719 0.31704 0.0
C1774 C 0.78525 0.15996 0.35067 0.0
C1775 C 0.76396 0.14865 0.37 0.0
C1776 C 0.81359 0.18404 0.35534 0.0
C1777 C 0.77223 0.15988 0.39461 0.0
C1778 C 0.8003 0.18382 0.39938 0.0
C1779 C 0.84718 0.22341 0.38349 0.0
C1780 C 0.86668 0.23743 0.36331 0.0
C1781 C 0.82068 0.19681 0.37968 0.0
C1782 C 0.86071 0.22331 0.33975 0.0
C1783 C 0.83428 0.19683 0.33576 0.0
H1784 H 0.6037 0.75481 0.89791 0.0
H1785 H 0.65324 0.77654 0.82845 0.0
H1786 H 0.65551 0.82452 0.82747 0.0
H1787 H 0.63778 0.85744 0.84374 0.0
H1788 H 0.58611 0.83331 0.91218 0.0
H1789 H 0.59044 0.78925 0.91617 0.0
C1790 C 0.61537 0.77016 0.88268 0.0
C1791 C 0.62793 0.76191 0.8631 0.0
C1792 C 0.61594 0.79723 0.88194 0.0
C1793 C 0.64331 0.78228 0.84374 0.0
C1794 C 0.64444 0.80965 0.84309 0.0
C1795 C 0.62801 0.84282 0.85976 0.0
C1796 C 0.61138 0.84849 0.87748 0.0
C1797 C 0.63001 0.81698 0.86169 0.0
C1798 C 0.59874 0.82929 0.89812 0.0
C1799 C 0.60118 0.80406 0.90043 0.0
H1800 H 0.35276 0.94337 0.97417 0.0
H1801 H 0.40167 0.03062 0.9417 0.0
H1802 H 0.41353 0.05247 0.98378 0.0
H1803 H 0.41052 0.04692 0.02966 0.0
H1804 H 0.35934 0.96031 0.06273 0.0
H1805 H 0.34767 0.93805 0.02056 0.0
C1806 C 0.36607 0.96715 0.97637 0.0
C1807 C 0.37652 0.98535 0.95488 0.0
C1808 C 0.37232 0.97966 1.00068 0.0
C1809 C 0.39336 0.01615 0.95794 0.0
C1810 C 0.40019 0.02866 0.98199 0.0
C1811 C 0.39683 0.02315 0.02766 0.0
C1812 C 0.38602 0.00524 0.04925 0.0
C1813 C 0.38987 0.01064 1.00346 0.0
C1814 C 0.36791 0.97455 0.04636 0.0
C1815 C 0.36133 0.96182 0.02227 0.0
H1816 H 0.37333 0.39891 0.45725 0.0
H1817 H 0.42426 0.35755 0.47699 0.0
H1818 H 0.41701 0.36292 0.52177 0.0
H1819 H 0.39703 0.38028 0.55552 0.0
H1820 H 0.34913 0.42482 0.53583 0.0
H1821 H 0.35433 0.41734 0.49104 0.0
C1822 C 0.3827 0.39097 0.47138 0.0
C1823 C 0.39922 0.37778 0.4638 0.0
C1824 C 0.37906 0.39479 0.49717 0.0
C1825 C 0.41153 0.36789 0.48232 0.0
C1826 C 0.40737 0.37091 0.50796 0.0
C1827 C 0.38765 0.38823 0.54141 0.0
C1828 C 0.37267 0.40302 0.549 0.0
C1829 C 0.39131 0.38446 0.51563 0.0
C1830 C 0.36088 0.41348 0.53049 0.0
C1831 C 0.36379 0.40916 0.50485 0.0
H1832 H 0.98272 0.37434 0.95502 0.0
H1833 H 0.07432 0.41976 0.97746 0.0
H1834 H 0.06001 0.41038 0.02171 0.0
H1835 H 0.02161 0.39049 0.05432 0.0
H1836 H 0.92991 0.34831 0.03255 0.0
H1837 H 0.94401 0.35517 0.98798 0.0
C1838 C 0.99947 0.38202 0.96963 0.0
C1839 C 0.02953 0.39765 0.96294 0.0
C1840 C 0.99107 0.37723 0.99523 0.0
C1841 C 0.05103 0.40776 0.98208 0.0
C1842 C 0.04288 0.40239 0.00743 0.0
C1843 C 0.00472 0.38266 0.03981 0.0
C1844 C 0.97479 0.36885 0.04672 0.0
C1845 C 0.01299 0.38732 0.01426 0.0
C1846 C 0.95315 0.35912 0.02771 0.0
C1847 C 0.96118 0.36299 1.00221 0.0
H1848 H 0.6339 0.05494 0.47814 0.0
H1849 H 0.59256 0.9671 0.44663 0.0
H1850 H 0.58165 0.94592 0.48917 0.0
H1851 H 0.58349 0.95246 0.53541 0.0
H1852 H 0.62751 0.04056 0.56656 0.0
H1853 H 0.63776 0.06152 0.52408 0.0
C1854 C 0.62245 0.03114 0.48056 0.0
C1855 C 0.61382 0.01261 0.45923 0.0
C1856 C 0.61673 0.01917 0.50503 0.0
C1857 C 0.59942 0.98184 0.46272 0.0
C1858 C 0.59312 0.96973 0.48704 0.0
C1859 C 0.59526 0.97624 0.53288 0.0
C1860 C 0.60451 0.99492 0.55415 0.0
C1861 C 0.60158 0.98818 0.50834 0.0
C1862 C 0.62014 0.02569 0.55055 0.0
C1863 C 0.62597 0.0377 0.52625 0.0
H1864 H 0.64891 0.59709 0.03704 0.0
H1865 H 0.60351 0.64089 0.06564 0.0
H1866 H 0.59383 0.65052 0.02252 0.0
H1867 H 0.59721 0.64542 0.97663 0.0
H1868 H 0.64575 0.60491 0.94796 0.0
H1869 H 0.65538 0.59517 0.9911 0.0
C1870 C 0.63692 0.60877 0.03379 0.0
C1871 C 0.62668 0.61802 0.05448 0.0
C1872 C 0.632 0.6148 0.00894 0.0
C1873 C 0.61161 0.63355 0.05003 0.0
C1874 C 0.606 0.63899 0.02538 0.0
C1875 C 0.60993 0.63449 0.97985 0.0
C1876 C 0.62051 0.62563 0.95915 0.0
C1877 C 0.61591 0.62954 1.0047 0.0
C1878 C 0.63737 0.61194 0.96359 0.0
C1879 C 0.6428 0.60629 0.98824 0.0
H1880 H 0.04877 0.63443 0.53376 0.0
H1881 H 0.96193 0.59495 0.56699 0.0
H1882 H 0.93965 0.5849 0.52487 0.0
H1883 H 0.94493 0.58672 0.47844 0.0
H1884 H 0.0322 0.62881 0.4457 0.0
H1885 H 0.05417 0.63851 0.48774 0.0
C1886 C 0.02495 0.62358 0.53181 0.0
C1887 C 0.00702 0.6152 0.5535 0.0
C1888 C 0.01237 0.61835 0.50759 0.0
C1889 C 0.97623 0.60159 0.55061 0.0
C1890 C 0.96348 0.59579 0.52653 0.0
C1891 C 0.96875 0.598 0.48053 0.0
C1892 C 0.98688 0.60684 0.45892 0.0
C1893 C 0.98133 0.60396 0.50486 0.0
C1894 C 0.01772 0.62179 0.46197 0.0
C1895 C 0.03033 0.62729 0.48603 0.0
H1896 H 0.63349 0.02159 0.95613 0.0
H1897 H 0.5736 0.93161 0.97859 0.0
H1898 H 0.58307 0.94572 0.02292 0.0
H1899 H 0.60719 0.98379 0.05555 0.0
H1900 H 0.66397 0.07456 0.03352 0.0
H1901 H 0.65698 0.0601 0.98903 0.0
C1902 C 0.62268 0.00511 0.97077 0.0
C1903 C 0.60294 0.97558 0.96405 0.0
C1904 C 0.6276 0.01355 0.99638 0.0
C1905 C 0.58882 0.95451 0.98322 0.0
C1906 C 0.59424 0.96254 0.00862 0.0
C1907 C 0.61817 0.00036 0.04101 0.0
C1908 C 0.63615 0.03017 0.04783 0.0
C1909 C 0.61342 0.99201 0.01545 0.0
C1910 C 0.64994 0.05146 0.02875 0.0
C1911 C 0.64598 0.0432 1.0033 0.0
H1912 H 0.61329 0.62712 0.45733 0.0
H1913 H 0.65855 0.58141 0.48157 0.0
H1914 H 0.6525 0.59098 0.52564 0.0
H1915 H 0.63304 0.61121 0.55762 0.0
H1916 H 0.58445 0.65345 0.53326 0.0
H1917 H 0.59318 0.64656 0.4892 0.0
C1918 C 0.62192 0.61938 0.47227 0.0
C1919 C 0.63636 0.60361 0.46615 0.0
C1920 C 0.61774 0.62434 0.49766 0.0
C1921 C 0.6472 0.59348 0.48575 0.0
C1922 C 0.64381 0.599 0.51099 0.0
C1923 C 0.62459 0.61906 0.54263 0.0
C1924 C 0.60822 0.63289 0.5487 0.0
C1925 C 0.62896 0.61425 0.51722 0.0
C1926 C 0.59705 0.64264 0.52909 0.0
C1927 C 0.60204 0.63873 0.50386 0.0
H1928 H 0.01153 0.62164 0.05494 0.0
H1929 H 0.91991 0.57431 0.03258 0.0
H1930 H 0.93415 0.58394 0.98828 0.0
H1931 H 0.97266 0.60454 0.95554 0.0
H1932 H 0.06435 0.64868 0.97758 0.0
H1933 H 0.05016 0.64171 0.02206 0.0
C1934 C 0.99473 0.61357 0.04035 0.0
C1935 C 0.96472 0.59729 0.04709 0.0
C1936 C 0.0031 0.61858 0.01475 0.0
C1937 C 0.94319 0.58676 0.02794 0.0
C1938 C 0.9513 0.5923 1.00256 0.0
C1939 C 0.9895 0.61281 0.97011 0.0
C1940 C 0.01949 0.62717 0.96326 0.0
C1941 C 0.98118 0.60802 0.99569 0.0
C1942 C 0.04108 0.63745 0.98234 0.0
C1943 C 0.03299 0.63349 0.00781 0.0
H1944 H 0.35268 0.95015 0.53036 0.0
H1945 H 0.38845 0.03705 0.56279 0.0
H1946 H 0.39768 0.05883 0.52044 0.0
H1947 H 0.39669 0.05301 0.47411 0.0
H1948 H 0.35719 0.96546 0.44215 0.0
H1949 H 0.34814 0.94399 0.48442 0.0
C1950 C 0.36248 0.97385 0.52813 0.0
C1951 C 0.37022 0.99205 0.54956 0.0
C1952 C 0.36701 0.98604 0.50384 0.0
C1953 C 0.38238 0.02266 0.54649 0.0
C1954 C 0.38771 0.03508 0.52232 0.0
C1955 C 0.38603 0.02923 0.47647 0.0
C1956 C 0.37783 0.01083 0.45511 0.0
C1957 C 0.3803 0.01699 0.50085 0.0
C1958 C 0.36365 0.98005 0.45834 0.0
C1959 C 0.35856 0.96777 0.48248 0.0
H1960 H 0.41418 0.36167 0.03461 0.0
H1961 H 0.37002 0.40552 0.06584 0.0
H1962 H 0.36091 0.41738 0.02328 0.0
H1963 H 0.36622 0.41594 0.97728 0.0
H1964 H 0.40723 0.36909 0.94592 0.0
H1965 H 0.41687 0.35769 0.9885 0.0
C1966 C 0.40257 0.37384 0.0321 0.0
C1967 C 0.39303 0.38296 0.05335 0.0
C1968 C 0.3969 0.38004 0.00758 0.0
C1969 C 0.3776 0.39828 0.04979 0.0
C1970 C 0.37246 0.40512 0.02547 0.0
C1971 C 0.3773 0.40326 0.97976 0.0
C1972 C 0.38628 0.39362 0.95848 0.0
C1973 C 0.38215 0.39625 1.00425 0.0
C1974 C 0.40017 0.3768 0.962 0.0
C1975 C 0.40572 0.37033 0.98633 0.0
H1976 H 0.05176 0.39889 0.53558 0.0
H1977 H 0.96233 0.35386 0.56373 0.0
H1978 H 0.94337 0.34445 0.52053 0.0
H1979 H 0.95219 0.35075 0.47492 0.0
H1980 H 0.04126 0.39273 0.44628 0.0
H1981 H 0.0605 0.4015 0.48957 0.0
C1982 C 0.02812 0.38693 0.53221 0.0
C1983 C 0.00844 0.37735 0.55279 0.0
C1984 C 0.01738 0.38112 0.5073 0.0
C1985 C 0.9779 0.36147 0.54821 0.0
C1986 C 0.96705 0.35616 0.52352 0.0
C1987 C 0.97582 0.36172 0.47815 0.0
C1988 C 0.99532 0.3714 0.45749 0.0
C1989 C 0.98658 0.36616 0.50296 0.0
C1990 C 0.02585 0.38513 0.46191 0.0
C1991 C 0.03682 0.39022 0.48663 0.0
H1992 H 0.51064 0.09867 0.12311 0.0
H1993 H 0.45684 0.00348 0.12361 0.0
H1994 H 0.50135 0.99927 0.12392 0.0
H1995 H 0.55562 0.02272 0.12541 0.0
H1996 H 0.60856 0.11805 0.12603 0.0
H1997 H 0.56419 0.12187 0.12383 0.0
C1998 C 0.50849 0.07692 0.12316 0.0
C1999 C 0.48031 0.05145 0.12336 0.0
C2000 C 0.53407 0.07463 0.12357 0.0
C2001 C 0.47819 0.02352 0.12347 0.0
C2002 C 0.50365 0.02107 0.12367 0.0
C2003 C 0.55749 0.04434 0.12488 0.0
C2004 C 0.58554 0.07002 0.12586 0.0
C2005 C 0.53173 0.04649 0.1239 0.0
C2006 C 0.5874 0.09784 0.1253 0.0
C2007 C 0.56198 0.10011 0.12406 0.0
H2008 H 0.48937 0.59343 0.63856 0.0
H2009 H 0.54443 0.55631 0.6195 0.0
H2010 H 0.50117 0.5067 0.61985 0.0
H2011 H 0.44764 0.47385 0.62565 0.0
H2012 H 0.39345 0.51169 0.6459 0.0
H2013 H 0.43656 0.56092 0.64503 0.0
C2014 C 0.49202 0.57456 0.63439 0.0
C2015 C 0.52019 0.57872 0.62892 0.0
C2016 C 0.46718 0.54613 0.63488 0.0
C2017 C 0.52305 0.55385 0.62377 0.0
C2018 C 0.49831 0.52544 0.62397 0.0
C2019 C 0.44522 0.49284 0.62987 0.0
C2020 C 0.41716 0.48889 0.63565 0.0
C2021 C 0.47024 0.5213 0.62953 0.0
C2022 C 0.41462 0.51387 0.64123 0.0
C2023 C 0.43931 0.54215 0.64076 0.0
H2024 H 0.89769 0.40508 0.13329 0.0
H2025 H 0.99243 0.44895 0.12439 0.0
H2026 H 0.99459 0.49676 0.12242 0.0
H2027 H 0.96947 0.52612 0.12373 0.0
H2028 H 0.8745 0.48103 0.13212 0.0
H2029 H 0.87275 0.43375 0.1336 0.0
C2030 C 0.91889 0.425 0.13082 0.0
C2031 C 0.94484 0.42327 0.12897 0.0
C2032 C 0.91997 0.4523 0.12958 0.0
C2033 C 0.97205 0.44951 0.12583 0.0
C2034 C 0.97332 0.4769 0.12471 0.0
C2035 C 0.94837 0.50596 0.12578 0.0
C2036 C 0.92219 0.50733 0.12782 0.0
C2037 C 0.9474 0.47857 0.12661 0.0
C2038 C 0.89506 0.48086 0.13047 0.0
C2039 C 0.89398 0.45369 0.13137 0.0
H2040 H 0.40897 0.90823 0.64212 0.0
H2041 H 0.44387 0.99942 0.62061 0.0
H2042 H 0.49409 0.00725 0.62204 0.0
H2043 H 0.52798 0.98765 0.62847 0.0
H2044 H 0.49173 0.89635 0.6507 0.0
H2045 H 0.44226 0.88935 0.64991 0.0
C2046 C 0.42747 0.92989 0.63772 0.0
C2047 C 0.42253 0.95313 0.6311 0.0
C2048 C 0.45616 0.93426 0.63867 0.0
C2049 C 0.44696 0.98108 0.62573 0.0
C2050 C 0.4757 0.98558 0.62652 0.0
C2051 C 0.50928 0.96625 0.63321 0.0
C2052 C 0.51377 0.94255 0.63939 0.0
C2053 C 0.48057 0.96225 0.63283 0.0
C2054 C 0.48916 0.91502 0.64565 0.0
C2055 C 0.46073 0.91092 0.64523 0.0
H2056 H 0.58722 0.4977 0.13717 0.0
H2057 H 0.54592 0.55108 0.12892 0.0
H2058 H 0.49726 0.50617 0.12761 0.0
H2059 H 0.4666 0.45156 0.12927 0.0
H2060 H 0.50974 0.39977 0.13774 0.0
H2061 H 0.55756 0.44452 0.13848 0.0
C2062 C 0.56771 0.49977 0.13498 0.0
C2063 C 0.57037 0.52787 0.13309 0.0
C2064 C 0.54005 0.47409 0.13432 0.0
C2065 C 0.54461 0.52978 0.13036 0.0
C2066 C 0.51677 0.5041 0.12965 0.0
C2067 C 0.48646 0.45006 0.13124 0.0
C2068 C 0.48438 0.42217 0.1334 0.0
C2069 C 0.51423 0.47609 0.13169 0.0
C2070 C 0.51044 0.42076 0.13598 0.0
C2071 C 0.53792 0.4464 0.13642 0.0
H2072 H 0.09106 0.49972 0.63329 0.0
H2073 H 0.99619 0.44589 0.62741 0.0
H2074 H 0.99199 0.49045 0.62634 0.0
H2075 H 0.01542 0.54492 0.62783 0.0
H2076 H 0.11052 0.59754 0.63383 0.0
H2077 H 0.1142 0.55312 0.63407 0.0
C2078 C 0.06938 0.49755 0.63167 0.0
C2079 C 0.04401 0.46937 0.63042 0.0
C2080 C 0.0671 0.52312 0.63114 0.0
C2081 C 0.01616 0.46725 0.62836 0.0
C2082 C 0.01372 0.49275 0.62779 0.0
C2083 C 0.03695 0.54668 0.62912 0.0
C2084 C 0.0626 0.57471 0.6308 0.0
C2085 C 0.03906 0.52085 0.62928 0.0
C2086 C 0.09031 0.57643 0.63248 0.0
C2087 C 0.09252 0.55098 0.63264 0.0
H2088 H 0.98578 0.53019 0.381 0.0
H2089 H 0.89055 0.48843 0.38377 0.0
H2090 H 0.88629 0.44022 0.38534 0.0
H2091 H 0.9087 0.40947 0.38451 0.0
H2092 H 0.00357 0.44929 0.38081 0.0
H2093 H 0.00869 0.49851 0.38107 0.0
C2094 C 0.96413 0.51055 0.38213 0.0
C2095 C 0.93859 0.5132 0.38231 0.0
C2096 C 0.96165 0.48243 0.38276 0.0
C2097 C 0.9107 0.48738 0.38365 0.0
C2098 C 0.90814 0.45961 0.3845 0.0
C2099 C 0.9306 0.42881 0.38387 0.0
C2100 C 0.95567 0.42554 0.38262 0.0
C2101 C 0.93338 0.45686 0.38385 0.0
C2102 C 0.98382 0.45106 0.3818 0.0
C2103 C 0.98678 0.47924 0.38191 0.0
H2104 H 0.48753 0.90158 0.86601 0.0
H2105 H 0.54247 0.9924 0.88921 0.0
H2106 H 0.49955 0.99938 0.88819 0.0
H2107 H 0.44599 0.97914 0.88161 0.0
H2108 H 0.39218 0.88808 0.85827 0.0
H2109 H 0.43521 0.88198 0.85851 0.0
C2110 C 0.4903 0.92299 0.87086 0.0
C2111 C 0.51826 0.94636 0.87782 0.0
C2112 C 0.46565 0.92684 0.87027 0.0
C2113 C 0.52123 0.97395 0.88383 0.0
C2114 C 0.49667 0.97796 0.88328 0.0
C2115 C 0.44368 0.95799 0.87653 0.0
C2116 C 0.41568 0.93411 0.87011 0.0
C2117 C 0.46869 0.95448 0.87667 0.0
C2118 C 0.41326 0.90689 0.86346 0.0
C2119 C 0.43792 0.9033 0.86355 0.0
H2120 H 0.51246 0.41227 0.37555 0.0
H2121 H 0.46183 0.45627 0.38554 0.0
H2122 H 0.50748 0.50387 0.38834 0.0
H2123 H 0.56186 0.53304 0.38797 0.0
H2124 H 0.61181 0.48815 0.3787 0.0
H2125 H 0.56623 0.44095 0.37586 0.0
C2126 C 0.51126 0.43218 0.37839 0.0
C2127 C 0.48361 0.43052 0.38038 0.0
C2128 C 0.53753 0.45943 0.38023 0.0
C2129 C 0.48273 0.45676 0.38398 0.0
C2130 C 0.50886 0.48404 0.38561 0.0
C2131 C 0.56282 0.51295 0.38544 0.0
C2132 C 0.59039 0.51435 0.38358 0.0
C2133 C 0.53641 0.48564 0.38381 0.0
C2134 C 0.59105 0.48795 0.38025 0.0
C2135 C 0.56494 0.46083 0.37856 0.0
H2136 H 0.02698 0.46939 0.88679 0.0
H2137 H 0.12185 0.5139 0.87783 0.0
H2138 H 0.12401 0.56142 0.87702 0.0
H2139 H 0.09941 0.59045 0.87819 0.0
H2140 H 0.0047 0.54692 0.88732 0.0
H2141 H 0.00223 0.49897 0.88873 0.0
C2142 C 0.04815 0.48947 0.88474 0.0
C2143 C 0.07418 0.48788 0.88237 0.0
C2144 C 0.04935 0.51696 0.88427 0.0
C2145 C 0.1014 0.51425 0.87971 0.0
C2146 C 0.10272 0.54154 0.87922 0.0
C2147 C 0.07816 0.57057 0.88058 0.0
C2148 C 0.0523 0.57243 0.88265 0.0
C2149 C 0.07687 0.54315 0.88139 0.0
C2150 C 0.02501 0.54625 0.88571 0.0
C2151 C 0.02356 0.51878 0.88649 0.0
H2152 H 0.54557 0.01993 0.38338 0.0
H2153 H 0.5983 0.11511 0.37825 0.0
H2154 H 0.55381 0.11872 0.37688 0.0
H2155 H 0.50036 0.09539 0.37627 0.0
H2156 H 0.4466 0.00042 0.38153 0.0
H2157 H 0.49119 0.99637 0.38374 0.0
C2158 C 0.54735 0.04147 0.38205 0.0
C2159 C 0.5754 0.06717 0.3809 0.0
C2160 C 0.52153 0.04352 0.38125 0.0
C2161 C 0.57716 0.09489 0.37919 0.0
C2162 C 0.55168 0.09705 0.37837 0.0
C2163 C 0.49821 0.07373 0.378 0.0
C2164 C 0.47005 0.04827 0.37873 0.0
C2165 C 0.52381 0.07155 0.37927 0.0
C2166 C 0.46795 0.02044 0.38097 0.0
C2167 C 0.49345 0.01809 0.3822 0.0
H2168 H 0.50079 0.58838 0.86963 0.0
H2169 H 0.5534 0.54751 0.88493 0.0
H2170 H 0.50851 0.49893 0.88625 0.0
H2171 H 0.45408 0.46824 0.8836 0.0
H2172 H 0.40272 0.5107 0.86887 0.0
H2173 H 0.44755 0.55845 0.86687 0.0
C2174 C 0.50265 0.56896 0.8733 0.0
C2175 C 0.53055 0.57174 0.87729 0.0
C2176 C 0.47691 0.54129 0.87417 0.0
C2177 C 0.53225 0.54611 0.88186 0.0
C2178 C 0.50658 0.51831 0.88262 0.0
C2179 C 0.4527 0.48792 0.87992 0.0
C2180 C 0.42491 0.48569 0.87646 0.0
C2181 C 0.47874 0.51564 0.87889 0.0
C2182 C 0.42364 0.51154 0.8717 0.0
C2183 C 0.44932 0.53898 0.87053 0.0
loop_
_geom_bond_atom_site_label_1
_geom_bond_atom_site_label_2
_geom_bond_distance
_geom_bond_site_symmetry_2
_ccdc_geom_bond_type
Co0 O2 2.143 . S
Co0 O8 2.074 . S
Co0 O11 2.093 . S
Co0 O24 2.097 . S
Co0 N41 2.151 . S
Co0 N49 2.214 . S
Co1 O2 2.160 . S
Co1 O7 2.058 . S
Co1 O17 2.060 . S
Co1 O32 2.037 . S
Co1 N36 2.145 1_545 S
Co1 N57 2.257 . S
O2 Co0 2.143 . S
O2 Co1 2.160 . S
C3 O4 1.278 . S
C3 O11 1.224 . S
O4 C3 1.278 . S
C5 O6 1.245 . S
C5 O17 1.246 . S
O6 C5 1.245 . S
O7 Co1 2.058 . S
O7 C33 1.269 . S
O8 Co0 2.074 . S
O8 C33 1.257 . S
H9 C34 0.930 . S
H10 C40 0.930 . S
O11 Co0 2.093 . S
O11 C3 1.224 . S
H12 C44 0.929 . S
H13 C46 0.930 . S
H14 C47 0.930 . S
H15 C45 0.929 . S
H16 C48 0.928 . S
O17 Co1 2.060 . S
O17 C5 1.246 . S
H18 C37 0.929 . S
H19 C38 0.929 . S
H20 C50 0.931 . S
H21 C42 0.929 . S
H22 C51 0.930 . S
H23 C43 0.931 . S
O24 Co0 2.097 . S
O24 C52 1.214 . S
H25 C53 0.929 . S
H26 C54 0.929 . S
H27 C55 0.930 . S
H28 C56 0.929 . S
H29 C58 0.930 . S
H30 C35 0.930 . S
H31 C39 0.930 . S
O32 Co1 2.037 . S
O32 C52 1.234 . S
C33 O7 1.269 . S
C33 O8 1.257 . S
C34 H9 0.930 . S
C34 C37 1.388 . S
C34 C39 1.418 . S
C35 H30 0.930 . S
C35 C38 1.404 . S
C35 C39 1.353 . S
N36 Co1 2.145 1_565 S
N36 C37 1.397 . S
N36 C38 1.334 . S
C37 H18 0.929 . S
C37 C34 1.388 . S
C37 N36 1.397 . S
C38 H19 0.929 . S
C38 C35 1.404 . S
C38 N36 1.334 . S
C39 H31 0.930 . S
C39 C34 1.418 . S
C39 C35 1.353 . S
C40 H10 0.930 . S
C40 N41 1.330 . S
C40 C42 1.446 . S
N41 Co0 2.151 . S
N41 C40 1.330 . S
N41 C45 1.418 . S
C42 H21 0.929 . S
C42 C40 1.446 . S
C42 C43 1.332 . S
C43 H23 0.931 . S
C43 C42 1.332 . S
C43 C44 1.267 . S
C44 H12 0.929 . S
C44 C43 1.267 . S
C44 C45 1.251 . S
C45 H15 0.929 . S
C45 N41 1.418 . S
C45 C44 1.251 . S
C46 H13 0.930 . S
C46 C48 1.406 . S
C46 C51 1.261 . S
C47 H14 0.930 . S
C47 N49 1.325 . S
C47 C50 1.357 . S
C48 H16 0.928 . S
C48 C46 1.406 . S
C48 N49 1.261 . S
N49 Co0 2.214 . S
N49 C47 1.325 . S
N49 C48 1.261 . S
C50 H20 0.931 . S
C50 C47 1.357 . S
C50 C51 1.312 . S
C51 H22 0.930 . S
C51 C46 1.261 . S
C51 C50 1.312 . S
C52 O24 1.214 . S
C52 O32 1.234 . S
C53 H25 0.929 . S
C53 C56 1.391 1_545 S
C53 C58 1.391 . S
C54 H26 0.929 . S
C54 C55 1.390 . S
C54 N57 1.391 1_565 S
C55 H27 0.930 . S
C55 C54 1.390 . S
C55 C56 1.392 . S
C56 H28 0.929 . S
C56 C53 1.391 1_565 S
C56 C55 1.392 . S
N57 Co1 2.257 . S
N57 C54 1.391 1_545 S
N57 C58 1.388 . S
C58 H29 0.930 . S
C58 C53 1.391 . S
C58 N57 1.388 . S
Co59 O61 2.143 . S
Co59 O67 2.074 . S
Co59 O70 2.093 . S
Co59 O83 2.097 . S
Co59 N100 2.151 . S
Co59 N108 2.214 . S
Co60 O61 2.160 . S
Co60 O66 2.058 . S
Co60 O76 2.057 . S
Co60 O91 2.037 . S
Co60 N95 2.145 . S
Co60 N116 2.257 . S
O61 Co59 2.143 . S
O61 Co60 2.160 . S
C62 O63 1.278 . S
C62 O70 1.224 . S
O63 C62 1.278 . S
C64 O65 1.245 . S
C64 O76 1.232 . S
O65 C64 1.245 . S
O66 Co60 2.058 . S
O66 C92 1.269 . S
O67 Co59 2.074 . S
O67 C92 1.257 . S
H68 C93 0.930 . S
H69 C99 0.930 . S
O70 Co59 2.093 . S
O70 C62 1.224 . S
H71 C103 0.929 . S
H72 C105 0.930 . S
H73 C106 0.930 . S
H74 C104 0.929 . S
H75 C107 0.928 . S
O76 Co60 2.057 . S
O76 C64 1.232 . S
H77 C96 0.929 . S
H78 C97 0.929 . S
H79 C109 0.931 . S
H80 C101 0.929 . S
H81 C110 0.930 . S
H82 C102 0.931 . S
O83 Co59 2.097 . S
O83 C111 1.214 . S
H84 C112 0.929 . S
H85 C113 0.929 . S
H86 C114 0.930 . S
H87 C115 0.929 . S
H88 C117 0.930 . S
H89 C94 0.930 . S
H90 C98 0.930 . S
O91 Co60 2.037 . S
O91 C111 1.234 . S
C92 O66 1.269 . S
C92 O67 1.257 . S
C93 H68 0.930 . S
C93 C96 1.388 . S
C93 C98 1.418 . S
C94 H89 0.930 . S
C94 C97 1.404 . S
C94 C98 1.353 . S
N95 Co60 2.145 . S
N95 C96 1.397 . S
N95 C97 1.334 . S
C96 H77 0.929 . S
C96 C93 1.388 . S
C96 N95 1.397 . S
C97 H78 0.929 . S
C97 C94 1.404 . S
C97 N95 1.334 . S
C98 H90 0.930 . S
C98 C93 1.418 . S
C98 C94 1.353 . S
C99 H69 0.930 . S
C99 N100 1.330 . S
C99 C101 1.446 . S
N100 Co59 2.151 . S
N100 C99 1.330 . S
N100 C104 1.418 . S
C101 H80 0.929 . S
C101 C99 1.446 . S
C101 C102 1.332 . S
C102 H82 0.931 . S
C102 C101 1.332 . S
C102 C103 1.267 . S
C103 H71 0.929 . S
C103 C102 1.267 . S
C103 C104 1.251 . S
C104 H74 0.929 . S
C104 N100 1.418 . S
C104 C103 1.251 . S
C105 H72 0.930 . S
C105 C107 1.406 . S
C105 C110 1.261 . S
C106 H73 0.930 . S
C106 N108 1.325 . S
C106 C109 1.357 . S
C107 H75 0.928 . S
C107 C105 1.406 . S
C107 N108 1.261 . S
N108 Co59 2.214 . S
N108 C106 1.325 . S
N108 C107 1.261 . S
C109 H79 0.931 . S
C109 C106 1.357 . S
C109 C110 1.312 . S
C110 H81 0.930 . S
C110 C105 1.261 . S
C110 C109 1.312 . S
C111 O83 1.214 . S
C111 O91 1.234 . S
C112 H84 0.929 . S
C112 C115 1.391 . S
C112 C117 1.391 . S
C113 H85 0.929 . S
C113 C114 1.390 . S
C113 N116 1.391 . S
C114 H86 0.930 . S
C114 C113 1.390 . S
C114 C115 1.392 . S
C115 H87 0.929 . S
C115 C112 1.391 . S
C115 C114 1.392 . S
N116 Co60 2.257 . S
N116 C113 1.391 . S
N116 C117 1.388 . S
C117 H88 0.930 . S
C117 C112 1.391 . S
C117 N116 1.388 . S
Co118 O120 2.143 . S
Co118 O126 2.074 . S
Co118 O129 2.093 . S
Co118 O142 2.097 . S
Co118 N159 2.151 . S
Co118 N167 2.214 . S
Co119 O120 2.160 . S
Co119 O125 2.058 . S
Co119 O135 2.065 . S
Co119 O150 2.037 . S
Co119 N154 2.145 1_655 S
Co119 N175 2.257 . S
O120 Co118 2.143 . S
O120 Co119 2.160 . S
C121 O122 1.278 . S
C121 O129 1.224 . S
O122 C121 1.278 . S
C123 O124 1.245 . S
C123 O135 1.245 . S
O124 C123 1.245 . S
O125 Co119 2.058 . S
O125 C151 1.269 . S
O126 Co118 2.074 . S
O126 C151 1.257 . S
H127 C152 0.930 . S
H128 C158 0.930 . S
O129 Co118 2.093 . S
O129 C121 1.224 . S
H130 C162 0.929 . S
H131 C164 0.930 . S
H132 C165 0.930 . S
H133 C163 0.929 . S
H134 C166 0.928 . S
O135 Co119 2.065 . S
O135 C123 1.245 . S
H136 C155 0.929 . S
H137 C156 0.929 . S
H138 C168 0.931 . S
H139 C160 0.929 . S
H140 C169 0.930 . S
H141 C161 0.931 . S
O142 Co118 2.097 . S
O142 C170 1.214 . S
H143 C171 0.929 . S
H144 C172 0.929 . S
H145 C173 0.930 . S
H146 C174 0.929 . S
H147 C176 0.930 . S
H148 C153 0.930 . S
H149 C157 0.930 . S
O150 Co119 2.037 . S
O150 C170 1.234 . S
C151 O125 1.269 . S
C151 O126 1.257 . S
C152 H127 0.930 . S
C152 C155 1.388 . S
C152 C157 1.418 . S
C153 H148 0.930 . S
C153 C156 1.404 . S
C153 C157 1.353 . S
N154 Co119 2.145 1_455 S
N154 C155 1.397 . S
N154 C156 1.334 . S
C155 H136 0.929 . S
C155 C152 1.388 . S
C155 N154 1.397 . S
C156 H137 0.929 . S
C156 C153 1.404 . S
C156 N154 1.334 . S
C157 H149 0.930 . S
C157 C152 1.418 . S
C157 C153 1.353 . S
C158 H128 0.930 . S
C158 N159 1.330 . S
C158 C160 1.446 . S
N159 Co118 2.151 . S
N159 C158 1.330 . S
N159 C163 1.418 . S
C160 H139 0.929 . S
C160 C158 1.446 . S
C160 C161 1.332 . S
C161 H141 0.931 . S
C161 C160 1.332 . S
C161 C162 1.267 . S
C162 H130 0.929 . S
C162 C161 1.267 . S
C162 C163 1.251 . S
C163 H133 0.929 . S
C163 N159 1.418 . S
C163 C162 1.251 . S
C164 H131 0.930 . S
C164 C166 1.406 . S
C164 C169 1.261 . S
C165 H132 0.930 . S
C165 N167 1.325 . S
C165 C168 1.357 . S
C166 H134 0.928 . S
C166 C164 1.406 . S
C166 N167 1.261 . S
N167 Co118 2.214 . S
N167 C165 1.325 . S
N167 C166 1.261 . S
C168 H138 0.931 . S
C168 C165 1.357 . S
C168 C169 1.312 . S
C169 H140 0.930 . S
C169 C164 1.261 . S
C169 C168 1.312 . S
C170 O142 1.214 . S
C170 O150 1.234 . S
C171 H143 0.929 . S
C171 C174 1.391 1_655 S
C171 C176 1.391 . S
C172 H144 0.929 . S
C172 C173 1.390 . S
C172 N175 1.391 1_455 S
C173 H145 0.930 . S
C173 C172 1.390 . S
C173 C174 1.392 . S
C174 H146 0.929 . S
C174 C171 1.391 1_455 S
C174 C173 1.392 . S
N175 Co119 2.257 . S
N175 C172 1.391 1_655 S
N175 C176 1.388 . S
C176 H147 0.930 . S
C176 C171 1.391 . S
C176 N175 1.388 . S
Co177 O179 2.143 . S
Co177 O185 2.074 . S
Co177 O188 2.093 . S
Co177 O201 2.097 . S
Co177 N218 2.151 . S
Co177 N226 2.214 . S
Co178 O179 2.160 . S
Co178 O184 2.058 . S
Co178 O194 2.060 . S
Co178 O209 2.037 . S
Co178 N213 2.145 1_565 S
Co178 N234 2.257 . S
O179 Co177 2.143 . S
O179 Co178 2.160 . S
C180 O181 1.278 . S
C180 O188 1.224 . S
O181 C180 1.278 . S
C182 O183 1.245 . S
C182 O194 1.246 . S
O183 C182 1.245 . S
O184 Co178 2.058 . S
O184 C210 1.269 . S
O185 Co177 2.074 . S
O185 C210 1.257 . S
H186 C211 0.930 . S
H187 C217 0.930 . S
O188 Co177 2.093 . S
O188 C180 1.224 . S
H189 C221 0.929 . S
H190 C223 0.930 . S
H191 C224 0.930 . S
H192 C222 0.929 . S
H193 C225 0.928 . S
O194 Co178 2.060 . S
O194 C182 1.246 . S
H195 C214 0.929 . S
H196 C215 0.929 . S
H197 C227 0.931 . S
H198 C219 0.929 . S
H199 C228 0.930 . S
H200 C220 0.931 . S
O201 Co177 2.097 . S
O201 C229 1.214 . S
H202 C230 0.929 . S
H203 C231 0.929 . S
H204 C232 0.930 . S
H205 C233 0.929 . S
H206 C235 0.930 . S
H207 C212 0.930 . S
H208 C216 0.930 . S
O209 Co178 2.037 . S
O209 C229 1.234 . S
C210 O184 1.269 . S
C210 O185 1.257 . S
C211 H186 0.930 . S
C211 C214 1.388 . S
C211 C216 1.418 . S
C212 H207 0.930 . S
C212 C215 1.404 . S
C212 C216 1.353 . S
N213 Co178 2.145 1_545 S
N213 C214 1.397 . S
N213 C215 1.334 . S
C214 H195 0.929 . S
C214 C211 1.388 . S
C214 N213 1.397 . S
C215 H196 0.929 . S
C215 C212 1.404 . S
C215 N213 1.334 . S
C216 H208 0.930 . S
C216 C211 1.418 . S
C216 C212 1.353 . S
C217 H187 0.930 . S
C217 N218 1.330 . S
C217 C219 1.446 . S
N218 Co177 2.151 . S
N218 C217 1.330 . S
N218 C222 1.418 . S
C219 H198 0.929 . S
C219 C217 1.446 . S
C219 C220 1.332 . S
C220 H200 0.931 . S
C220 C219 1.332 . S
C220 C221 1.267 . S
C221 H189 0.929 . S
C221 C220 1.267 . S
C221 C222 1.251 . S
C222 H192 0.929 . S
C222 N218 1.418 . S
C222 C221 1.251 . S
C223 H190 0.930 . S
C223 C225 1.406 . S
C223 C228 1.261 . S
C224 H191 0.930 . S
C224 N226 1.325 . S
C224 C227 1.357 . S
C225 H193 0.928 . S
C225 C223 1.406 . S
C225 N226 1.261 . S
N226 Co177 2.214 . S
N226 C224 1.325 . S
N226 C225 1.261 . S
C227 H197 0.931 . S
C227 C224 1.357 . S
C227 C228 1.312 . S
C228 H199 0.930 . S
C228 C223 1.261 . S
C228 C227 1.312 . S
C229 O201 1.214 . S
C229 O209 1.234 . S
C230 H202 0.929 . S
C230 C233 1.391 1_565 S
C230 C235 1.391 . S
C231 H203 0.929 . S
C231 C232 1.390 . S
C231 N234 1.391 1_545 S
C232 H204 0.930 . S
C232 C231 1.390 . S
C232 C233 1.392 . S
C233 H205 0.929 . S
C233 C230 1.391 1_545 S
C233 C232 1.392 . S
N234 Co178 2.257 . S
N234 C231 1.391 1_565 S
N234 C235 1.388 . S
C235 H206 0.930 . S
C235 C230 1.391 . S
C235 N234 1.388 . S
Co236 O238 2.143 . S
Co236 O244 2.074 . S
Co236 O247 2.093 . S
Co236 O260 2.097 . S
Co236 N277 2.151 . S
Co236 N285 2.214 . S
Co237 O238 2.160 . S
Co237 O243 2.058 . S
Co237 O253 2.057 . S
Co237 O268 2.037 . S
Co237 N272 2.145 . S
Co237 N293 2.257 . S
O238 Co236 2.143 . S
O238 Co237 2.160 . S
C239 O240 1.278 . S
C239 O247 1.224 . S
O240 C239 1.278 . S
C241 O242 1.245 . S
C241 O253 1.232 . S
O242 C241 1.245 . S
O243 Co237 2.058 . S
O243 C269 1.269 . S
O244 Co236 2.074 . S
O244 C269 1.257 . S
H245 C270 0.930 . S
H246 C276 0.930 . S
O247 Co236 2.093 . S
O247 C239 1.224 . S
H248 C280 0.929 . S
H249 C282 0.930 . S
H250 C283 0.930 . S
H251 C281 0.929 . S
H252 C284 0.928 . S
O253 Co237 2.057 . S
O253 C241 1.232 . S
H254 C273 0.929 . S
H255 C274 0.929 . S
H256 C286 0.931 . S
H257 C278 0.929 . S
H258 C287 0.930 . S
H259 C279 0.931 . S
O260 Co236 2.097 . S
O260 C288 1.214 . S
H261 C289 0.929 . S
H262 C290 0.929 . S
H263 C291 0.930 . S
H264 C292 0.929 . S
H265 C294 0.930 . S
H266 C271 0.930 . S
H267 C275 0.930 . S
O268 Co237 2.037 . S
O268 C288 1.234 . S
C269 O243 1.269 . S
C269 O244 1.257 . S
C270 H245 0.930 . S
C270 C273 1.388 . S
C270 C275 1.418 . S
C271 H266 0.930 . S
C271 C274 1.404 . S
C271 C275 1.353 . S
N272 Co237 2.145 . S
N272 C273 1.397 . S
N272 C274 1.334 . S
C273 H254 0.929 . S
C273 C270 1.388 . S
C273 N272 1.397 . S
C274 H255 0.929 . S
C274 C271 1.404 . S
C274 N272 1.334 . S
C275 H267 0.930 . S
C275 C270 1.418 . S
C275 C271 1.353 . S
C276 H246 0.930 . S
C276 N277 1.330 . S
C276 C278 1.446 . S
N277 Co236 2.151 . S
N277 C276 1.330 . S
N277 C281 1.418 . S
C278 H257 0.929 . S
C278 C276 1.446 . S
C278 C279 1.332 . S
C279 H259 0.931 . S
C279 C278 1.332 . S
C279 C280 1.267 . S
C280 H248 0.929 . S
C280 C279 1.267 . S
C280 C281 1.251 . S
C281 H251 0.929 . S
C281 N277 1.418 . S
C281 C280 1.251 . S
C282 H249 0.930 . S
C282 C284 1.406 . S
C282 C287 1.261 . S
C283 H250 0.930 . S
C283 N285 1.325 . S
C283 C286 1.357 . S
C284 H252 0.928 . S
C284 C282 1.406 . S
C284 N285 1.261 . S
N285 Co236 2.214 . S
N285 C283 1.325 . S
N285 C284 1.261 . S
C286 H256 0.931 . S
C286 C283 1.357 . S
C286 C287 1.312 . S
C287 H258 0.930 . S
C287 C282 1.261 . S
C287 C286 1.312 . S
C288 O260 1.214 . S
C288 O268 1.234 . S
C289 H261 0.929 . S
C289 C292 1.391 . S
C289 C294 1.391 . S
C290 H262 0.929 . S
C290 C291 1.390 . S
C290 N293 1.391 . S
C291 H263 0.930 . S
C291 C290 1.390 . S
C291 C292 1.392 . S
C292 H264 0.929 . S
C292 C289 1.391 . S
C292 C291 1.392 . S
N293 Co237 2.257 . S
N293 C290 1.391 . S
N293 C294 1.388 . S
C294 H265 0.930 . S
C294 C289 1.391 . S
C294 N293 1.388 . S
Co295 O297 2.143 . S
Co295 O303 2.074 . S
Co295 O306 2.093 . S
Co295 O319 2.097 . S
Co295 N336 2.151 . S
Co295 N344 2.214 . S
Co296 O297 2.160 . S
Co296 O302 2.058 . S
Co296 O312 2.065 . S
Co296 O327 2.037 . S
Co296 N331 2.145 1_455 S
Co296 N352 2.257 . S
O297 Co295 2.143 . S
O297 Co296 2.160 . S
C298 O299 1.278 . S
C298 O306 1.224 . S
O299 C298 1.278 . S
C300 O301 1.245 . S
C300 O312 1.245 . S
O301 C300 1.245 . S
O302 Co296 2.058 . S
O302 C328 1.269 . S
O303 Co295 2.074 . S
O303 C328 1.257 . S
H304 C329 0.930 . S
H305 C335 0.930 . S
O306 Co295 2.093 . S
O306 C298 1.224 . S
H307 C339 0.929 . S
H308 C341 0.930 . S
H309 C342 0.930 . S
H310 C340 0.929 . S
H311 C343 0.928 . S
O312 Co296 2.065 . S
O312 C300 1.245 . S
H313 C332 0.929 . S
H314 C333 0.929 . S
H315 C345 0.931 . S
H316 C337 0.929 . S
H317 C346 0.930 . S
H318 C338 0.931 . S
O319 Co295 2.097 . S
O319 C347 1.214 . S
H320 C348 0.929 . S
H321 C349 0.929 . S
H322 C350 0.930 . S
H323 C351 0.929 . S
H324 C353 0.930 . S
H325 C330 0.930 . S
H326 C334 0.930 . S
O327 Co296 2.037 . S
O327 C347 1.234 . S
C328 O302 1.269 . S
C328 O303 1.257 . S
C329 H304 0.930 . S
C329 C332 1.388 . S
C329 C334 1.418 . S
C330 H325 0.930 . S
C330 C333 1.404 . S
C330 C334 1.353 . S
N331 Co296 2.145 1_655 S
N331 C332 1.397 . S
N331 C333 1.334 . S
C332 H313 0.929 . S
C332 C329 1.388 . S
C332 N331 1.397 . S
C333 H314 0.929 . S
C333 C330 1.404 . S
C333 N331 1.334 . S
C334 H326 0.930 . S
C334 C329 1.418 . S
C334 C330 1.353 . S
C335 H305 0.930 . S
C335 N336 1.330 . S
C335 C337 1.446 . S
N336 Co295 2.151 . S
N336 C335 1.330 . S
N336 C340 1.418 . S
C337 H316 0.929 . S
C337 C335 1.446 . S
C337 C338 1.332 . S
C338 H318 0.931 . S
C338 C337 1.332 . S
C338 C339 1.267 . S
C339 H307 0.929 . S
C339 C338 1.267 . S
C339 C340 1.251 . S
C340 H310 0.929 . S
C340 N336 1.418 . S
C340 C339 1.251 . S
C341 H308 0.930 . S
C341 C343 1.406 . S
C341 C346 1.261 . S
C342 H309 0.930 . S
C342 N344 1.325 . S
C342 C345 1.357 . S
C343 H311 0.928 . S
C343 C341 1.406 . S
C343 N344 1.261 . S
N344 Co295 2.214 . S
N344 C342 1.325 . S
N344 C343 1.261 . S
C345 H315 0.931 . S
C345 C342 1.357 . S
C345 C346 1.312 . S
C346 H317 0.930 . S
C346 C341 1.261 . S
C346 C345 1.312 . S
C347 O319 1.214 . S
C347 O327 1.234 . S
C348 H320 0.929 . S
C348 C351 1.391 1_455 S
C348 C353 1.391 . S
C349 H321 0.929 . S
C349 C350 1.390 . S
C349 N352 1.391 1_655 S
C350 H322 0.930 . S
C350 C349 1.390 . S
C350 C351 1.392 . S
C351 H323 0.929 . S
C351 C348 1.391 1_655 S
C351 C350 1.392 . S
N352 Co296 2.257 . S
N352 C349 1.391 1_455 S
N352 C353 1.388 . S
C353 H324 0.930 . S
C353 C348 1.391 . S
C353 N352 1.388 . S
Co354 O356 2.143 . S
Co354 O362 2.074 . S
Co354 O365 2.093 . S
Co354 O378 2.097 . S
Co354 N395 2.151 . S
Co354 N403 2.214 . S
Co355 O356 2.160 . S
Co355 O361 2.058 . S
Co355 O371 2.060 . S
Co355 O386 2.037 . S
Co355 N390 2.145 1_655 S
Co355 N411 2.257 . S
O356 Co354 2.143 . S
O356 Co355 2.160 . S
C357 O358 1.278 . S
C357 O365 1.224 . S
O358 C357 1.278 . S
C359 O360 1.245 . S
C359 O371 1.246 . S
O360 C359 1.245 . S
O361 Co355 2.058 . S
O361 C387 1.269 . S
O362 Co354 2.074 . S
O362 C387 1.257 . S
H363 C388 0.930 . S
H364 C394 0.930 . S
O365 Co354 2.093 . S
O365 C357 1.224 . S
H366 C398 0.929 . S
H367 C400 0.930 . S
H368 C401 0.930 . S
H369 C399 0.929 . S
H370 C402 0.928 . S
O371 Co355 2.060 . S
O371 C359 1.246 . S
H372 C391 0.929 . S
H373 C392 0.929 . S
H374 C404 0.931 . S
H375 C396 0.929 . S
H376 C405 0.930 . S
H377 C397 0.931 . S
O378 Co354 2.097 . S
O378 C406 1.214 . S
H379 C407 0.929 . S
H380 C408 0.929 . S
H381 C409 0.930 . S
H382 C410 0.929 . S
H383 C412 0.930 . S
H384 C389 0.930 . S
H385 C393 0.930 . S
O386 Co355 2.037 . S
O386 C406 1.234 . S
C387 O361 1.269 . S
C387 O362 1.257 . S
C388 H363 0.930 . S
C388 C391 1.388 . S
C388 C393 1.418 . S
C389 H384 0.930 . S
C389 C392 1.404 . S
C389 C393 1.353 . S
N390 Co355 2.145 1_455 S
N390 C391 1.397 . S
N390 C392 1.334 . S
C391 H372 0.929 . S
C391 C388 1.388 . S
C391 N390 1.397 . S
C392 H373 0.929 . S
C392 C389 1.404 . S
C392 N390 1.334 . S
C393 H385 0.930 . S
C393 C388 1.418 . S
C393 C389 1.353 . S
C394 H364 0.930 . S
C394 N395 1.330 . S
C394 C396 1.446 . S
N395 Co354 2.151 . S
N395 C394 1.330 . S
N395 C399 1.418 . S
C396 H375 0.929 . S
C396 C394 1.446 . S
C396 C397 1.332 . S
C397 H377 0.931 . S
C397 C396 1.332 . S
C397 C398 1.267 . S
C398 H366 0.929 . S
C398 C397 1.267 . S
C398 C399 1.251 . S
C399 H369 0.929 . S
C399 N395 1.418 . S
C399 C398 1.251 . S
C400 H367 0.930 . S
C400 C402 1.406 . S
C400 C405 1.261 . S
C401 H368 0.930 . S
C401 N403 1.325 . S
C401 C404 1.357 . S
C402 H370 0.928 . S
C402 C400 1.406 . S
C402 N403 1.261 . S
N403 Co354 2.214 . S
N403 C401 1.325 . S
N403 C402 1.261 . S
C404 H374 0.931 . S
C404 C401 1.357 . S
C404 C405 1.312 . S
C405 H376 0.930 . S
C405 C400 1.261 . S
C405 C404 1.312 . S
C406 O378 1.214 . S
C406 O386 1.234 . S
C407 H379 0.929 . S
C407 C410 1.391 1_655 S
C407 C412 1.391 . S
C408 H380 0.929 . S
C408 C409 1.390 . S
C408 N411 1.391 1_455 S
C409 H381 0.930 . S
C409 C408 1.390 . S
C409 C410 1.392 . S
C410 H382 0.929 . S
C410 C407 1.391 1_455 S
C410 C409 1.392 . S
N411 Co355 2.257 . S
N411 C408 1.391 1_655 S
N411 C412 1.388 . S
C412 H383 0.930 . S
C412 C407 1.391 . S
C412 N411 1.388 . S
Co413 O415 2.143 . S
Co413 O421 2.074 . S
Co413 O424 2.093 . S
Co413 O437 2.097 . S
Co413 N454 2.151 . S
Co413 N462 2.214 . S
Co414 O415 2.160 . S
Co414 O420 2.058 . S
Co414 O430 2.065 . S
Co414 O445 2.037 . S
Co414 N449 2.145 1_565 S
Co414 N470 2.257 . S
O415 Co413 2.143 . S
O415 Co414 2.160 . S
C416 O417 1.278 . S
C416 O424 1.224 . S
O417 C416 1.278 . S
C418 O419 1.245 . S
C418 O430 1.245 . S
O419 C418 1.245 . S
O420 Co414 2.058 . S
O420 C446 1.269 . S
O421 Co413 2.074 . S
O421 C446 1.257 . S
H422 C447 0.930 . S
H423 C453 0.930 . S
O424 Co413 2.093 . S
O424 C416 1.224 . S
H425 C457 0.929 . S
H426 C459 0.930 . S
H427 C460 0.930 . S
H428 C458 0.929 . S
H429 C461 0.928 . S
O430 Co414 2.065 . S
O430 C418 1.245 . S
H431 C450 0.929 . S
H432 C451 0.929 . S
H433 C463 0.931 . S
H434 C455 0.929 . S
H435 C464 0.930 . S
H436 C456 0.931 . S
O437 Co413 2.097 . S
O437 C465 1.214 . S
H438 C466 0.929 . S
H439 C467 0.929 . S
H440 C468 0.930 . S
H441 C469 0.929 . S
H442 C471 0.930 . S
H443 C448 0.930 . S
H444 C452 0.930 . S
O445 Co414 2.037 . S
O445 C465 1.234 . S
C446 O420 1.269 . S
C446 O421 1.257 . S
C447 H422 0.930 . S
C447 C450 1.388 . S
C447 C452 1.418 . S
C448 H443 0.930 . S
C448 C451 1.404 . S
C448 C452 1.353 . S
N449 Co414 2.145 1_545 S
N449 C450 1.397 . S
N449 C451 1.334 . S
C450 H431 0.929 . S
C450 C447 1.388 . S
C450 N449 1.397 . S
C451 H432 0.929 . S
C451 C448 1.404 . S
C451 N449 1.334 . S
C452 H444 0.930 . S
C452 C447 1.418 . S
C452 C448 1.353 . S
C453 H423 0.930 . S
C453 N454 1.330 . S
C453 C455 1.446 . S
N454 Co413 2.151 . S
N454 C453 1.330 . S
N454 C458 1.418 . S
C455 H434 0.929 . S
C455 C453 1.446 . S
C455 C456 1.332 . S
C456 H436 0.931 . S
C456 C455 1.332 . S
C456 C457 1.267 . S
C457 H425 0.929 . S
C457 C456 1.267 . S
C457 C458 1.251 . S
C458 H428 0.929 . S
C458 N454 1.418 . S
C458 C457 1.251 . S
C459 H426 0.930 . S
C459 C461 1.406 . S
C459 C464 1.261 . S
C460 H427 0.930 . S
C460 N462 1.325 . S
C460 C463 1.357 . S
C461 H429 0.928 . S
C461 C459 1.406 . S
C461 N462 1.261 . S
N462 Co413 2.214 . S
N462 C460 1.325 . S
N462 C461 1.261 . S
C463 H433 0.931 . S
C463 C460 1.357 . S
C463 C464 1.312 . S
C464 H435 0.930 . S
C464 C459 1.261 . S
C464 C463 1.312 . S
C465 O437 1.214 . S
C465 O445 1.234 . S
C466 H438 0.929 . S
C466 C469 1.391 1_565 S
C466 C471 1.391 . S
C467 H439 0.929 . S
C467 C468 1.390 . S
C467 N470 1.391 1_545 S
C468 H440 0.930 . S
C468 C467 1.390 . S
C468 C469 1.392 . S
C469 H441 0.929 . S
C469 C466 1.391 1_545 S
C469 C468 1.392 . S
N470 Co414 2.257 . S
N470 C467 1.391 1_565 S
N470 C471 1.388 . S
C471 H442 0.930 . S
C471 C466 1.391 . S
C471 N470 1.388 . S
Co472 O474 2.143 . S
Co472 O480 2.074 . S
Co472 O483 2.093 . S
Co472 O496 2.097 . S
Co472 N513 2.151 . S
Co472 N521 2.214 . S
Co473 O474 2.160 . S
Co473 O479 2.058 . S
Co473 O489 2.057 . S
Co473 O504 2.037 . S
Co473 N508 2.145 . S
Co473 N529 2.257 . S
O474 Co472 2.143 . S
O474 Co473 2.160 . S
C475 O476 1.278 . S
C475 O483 1.224 . S
O476 C475 1.278 . S
C477 O478 1.245 . S
C477 O489 1.232 . S
O478 C477 1.245 . S
O479 Co473 2.058 . S
O479 C505 1.269 . S
O480 Co472 2.074 . S
O480 C505 1.257 . S
H481 C506 0.930 . S
H482 C512 0.930 . S
O483 Co472 2.093 . S
O483 C475 1.224 . S
H484 C516 0.929 . S
H485 C518 0.930 . S
H486 C519 0.930 . S
H487 C517 0.929 . S
H488 C520 0.928 . S
O489 Co473 2.057 . S
O489 C477 1.232 . S
H490 C509 0.929 . S
H491 C510 0.929 . S
H492 C522 0.931 . S
H493 C514 0.929 . S
H494 C523 0.930 . S
H495 C515 0.931 . S
O496 Co472 2.097 . S
O496 C524 1.214 . S
H497 C525 0.929 . S
H498 C526 0.929 . S
H499 C527 0.930 . S
H500 C528 0.929 . S
H501 C530 0.930 . S
H502 C507 0.930 . S
H503 C511 0.930 . S
O504 Co473 2.037 . S
O504 C524 1.234 . S
C505 O479 1.269 . S
C505 O480 1.257 . S
C506 H481 0.930 . S
C506 C509 1.388 . S
C506 C511 1.418 . S
C507 H502 0.930 . S
C507 C510 1.404 . S
C507 C511 1.353 . S
N508 Co473 2.145 . S
N508 C509 1.397 . S
N508 C510 1.334 . S
C509 H490 0.929 . S
C509 C506 1.388 . S
C509 N508 1.397 . S
C510 H491 0.929 . S
C510 C507 1.404 . S
C510 N508 1.334 . S
C511 H503 0.930 . S
C511 C506 1.418 . S
C511 C507 1.353 . S
C512 H482 0.930 . S
C512 N513 1.330 . S
C512 C514 1.446 . S
N513 Co472 2.151 . S
N513 C512 1.330 . S
N513 C517 1.418 . S
C514 H493 0.929 . S
C514 C512 1.446 . S
C514 C515 1.332 . S
C515 H495 0.931 . S
C515 C514 1.332 . S
C515 C516 1.267 . S
C516 H484 0.929 . S
C516 C515 1.267 . S
C516 C517 1.251 . S
C517 H487 0.929 . S
C517 N513 1.418 . S
C517 C516 1.251 . S
C518 H485 0.930 . S
C518 C520 1.406 . S
C518 C523 1.261 . S
C519 H486 0.930 . S
C519 N521 1.325 . S
C519 C522 1.357 . S
C520 H488 0.928 . S
C520 C518 1.406 . S
C520 N521 1.261 . S
N521 Co472 2.214 . S
N521 C519 1.325 . S
N521 C520 1.261 . S
C522 H492 0.931 . S
C522 C519 1.357 . S
C522 C523 1.312 . S
C523 H494 0.930 . S
C523 C518 1.261 . S
C523 C522 1.312 . S
C524 O496 1.214 . S
C524 O504 1.234 . S
C525 H497 0.929 . S
C525 C528 1.391 . S
C525 C530 1.391 . S
C526 H498 0.929 . S
C526 C527 1.390 . S
C526 N529 1.391 . S
C527 H499 0.930 . S
C527 C526 1.390 . S
C527 C528 1.392 . S
C528 H500 0.929 . S
C528 C525 1.391 . S
C528 C527 1.392 . S
N529 Co473 2.257 . S
N529 C526 1.391 . S
N529 C530 1.388 . S
C530 H501 0.930 . S
C530 C525 1.391 . S
C530 N529 1.388 . S
Co531 O533 2.143 . S
Co531 O539 2.074 . S
Co531 O542 2.093 . S
Co531 O555 2.097 . S
Co531 N572 2.151 . S
Co531 N580 2.214 . S
Co532 O533 2.160 . S
Co532 O538 2.058 . S
Co532 O548 2.060 . S
Co532 O563 2.037 . S
Co532 N567 2.145 1_455 S
Co532 N588 2.257 . S
O533 Co531 2.143 . S
O533 Co532 2.160 . S
C534 O535 1.278 . S
C534 O542 1.224 . S
O535 C534 1.278 . S
C536 O537 1.245 . S
C536 O548 1.246 . S
O537 C536 1.245 . S
O538 Co532 2.058 . S
O538 C564 1.269 . S
O539 Co531 2.074 . S
O539 C564 1.257 . S
H540 C565 0.930 . S
H541 C571 0.930 . S
O542 Co531 2.093 . S
O542 C534 1.224 . S
H543 C575 0.929 . S
H544 C577 0.930 . S
H545 C578 0.930 . S
H546 C576 0.929 . S
H547 C579 0.928 . S
O548 Co532 2.060 . S
O548 C536 1.246 . S
H549 C568 0.929 . S
H550 C569 0.929 . S
H551 C581 0.931 . S
H552 C573 0.929 . S
H553 C582 0.930 . S
H554 C574 0.931 . S
O555 Co531 2.097 . S
O555 C583 1.214 . S
H556 C584 0.929 . S
H557 C585 0.929 . S
H558 C586 0.930 . S
H559 C587 0.929 . S
H560 C589 0.930 . S
H561 C566 0.930 . S
H562 C570 0.930 . S
O563 Co532 2.037 . S
O563 C583 1.234 . S
C564 O538 1.269 . S
C564 O539 1.257 . S
C565 H540 0.930 . S
C565 C568 1.388 . S
C565 C570 1.418 . S
C566 H561 0.930 . S
C566 C569 1.404 . S
C566 C570 1.353 . S
N567 Co532 2.145 1_655 S
N567 C568 1.397 . S
N567 C569 1.334 . S
C568 H549 0.929 . S
C568 C565 1.388 . S
C568 N567 1.397 . S
C569 H550 0.929 . S
C569 C566 1.404 . S
C569 N567 1.334 . S
C570 H562 0.930 . S
C570 C565 1.418 . S
C570 C566 1.353 . S
C571 H541 0.930 . S
C571 N572 1.330 . S
C571 C573 1.446 . S
N572 Co531 2.151 . S
N572 C571 1.330 . S
N572 C576 1.418 . S
C573 H552 0.929 . S
C573 C571 1.446 . S
C573 C574 1.332 . S
C574 H554 0.931 . S
C574 C573 1.332 . S
C574 C575 1.267 . S
C575 H543 0.929 . S
C575 C574 1.267 . S
C575 C576 1.251 . S
C576 H546 0.929 . S
C576 N572 1.418 . S
C576 C575 1.251 . S
C577 H544 0.930 . S
C577 C579 1.406 . S
C577 C582 1.261 . S
C578 H545 0.930 . S
C578 N580 1.325 . S
C578 C581 1.357 . S
C579 H547 0.928 . S
C579 C577 1.406 . S
C579 N580 1.261 . S
N580 Co531 2.214 . S
N580 C578 1.325 . S
N580 C579 1.261 . S
C581 H551 0.931 . S
C581 C578 1.357 . S
C581 C582 1.312 . S
C582 H553 0.930 . S
C582 C577 1.261 . S
C582 C581 1.312 . S
C583 O555 1.214 . S
C583 O563 1.234 . S
C584 H556 0.929 . S
C584 C587 1.391 1_455 S
C584 C589 1.391 . S
C585 H557 0.929 . S
C585 C586 1.390 . S
C585 N588 1.391 1_655 S
C586 H558 0.930 . S
C586 C585 1.390 . S
C586 C587 1.392 . S
C587 H559 0.929 . S
C587 C584 1.391 1_655 S
C587 C586 1.392 . S
N588 Co532 2.257 . S
N588 C585 1.391 1_455 S
N588 C589 1.388 . S
C589 H560 0.930 . S
C589 C584 1.391 . S
C589 N588 1.388 . S
Co590 O592 2.143 . S
Co590 O598 2.074 . S
Co590 O601 2.093 . S
Co590 O614 2.097 . S
Co590 N631 2.151 . S
Co590 N639 2.214 . S
Co591 O592 2.160 . S
Co591 O597 2.058 . S
Co591 O607 2.065 . S
Co591 O622 2.037 . S
Co591 N626 2.145 1_545 S
Co591 N647 2.257 . S
O592 Co590 2.143 . S
O592 Co591 2.160 . S
C593 O594 1.278 . S
C593 O601 1.224 . S
O594 C593 1.278 . S
C595 O596 1.245 . S
C595 O607 1.245 . S
O596 C595 1.245 . S
O597 Co591 2.058 . S
O597 C623 1.269 . S
O598 Co590 2.074 . S
O598 C623 1.257 . S
H599 C624 0.930 . S
H600 C630 0.930 . S
O601 Co590 2.093 . S
O601 C593 1.224 . S
H602 C634 0.929 . S
H603 C636 0.930 . S
H604 C637 0.930 . S
H605 C635 0.929 . S
H606 C638 0.928 . S
O607 Co591 2.065 . S
O607 C595 1.245 . S
H608 C627 0.929 . S
H609 C628 0.929 . S
H610 C640 0.931 . S
H611 C632 0.929 . S
H612 C641 0.930 . S
H613 C633 0.931 . S
O614 Co590 2.097 . S
O614 C642 1.214 . S
H615 C643 0.929 . S
H616 C644 0.929 . S
H617 C645 0.930 . S
H618 C646 0.929 . S
H619 C648 0.930 . S
H620 C625 0.930 . S
H621 C629 0.930 . S
O622 Co591 2.037 . S
O622 C642 1.234 . S
C623 O597 1.269 . S
C623 O598 1.257 . S
C624 H599 0.930 . S
C624 C627 1.388 . S
C624 C629 1.418 . S
C625 H620 0.930 . S
C625 C628 1.404 . S
C625 C629 1.353 . S
N626 Co591 2.145 1_565 S
N626 C627 1.397 . S
N626 C628 1.334 . S
C627 H608 0.929 . S
C627 C624 1.388 . S
C627 N626 1.397 . S
C628 H609 0.929 . S
C628 C625 1.404 . S
C628 N626 1.334 . S
C629 H621 0.930 . S
C629 C624 1.418 . S
C629 C625 1.353 . S
C630 H600 0.930 . S
C630 N631 1.330 . S
C630 C632 1.446 . S
N631 Co590 2.151 . S
N631 C630 1.330 . S
N631 C635 1.418 . S
C632 H611 0.929 . S
C632 C630 1.446 . S
C632 C633 1.332 . S
C633 H613 0.931 . S
C633 C632 1.332 . S
C633 C634 1.267 . S
C634 H602 0.929 . S
C634 C633 1.267 . S
C634 C635 1.251 . S
C635 H605 0.929 . S
C635 N631 1.418 . S
C635 C634 1.251 . S
C636 H603 0.930 . S
C636 C638 1.406 . S
C636 C641 1.261 . S
C637 H604 0.930 . S
C637 N639 1.325 . S
C637 C640 1.357 . S
C638 H606 0.928 . S
C638 C636 1.406 . S
C638 N639 1.261 . S
N639 Co590 2.214 . S
N639 C637 1.325 . S
N639 C638 1.261 . S
C640 H610 0.931 . S
C640 C637 1.357 . S
C640 C641 1.312 . S
C641 H612 0.930 . S
C641 C636 1.261 . S
C641 C640 1.312 . S
C642 O614 1.214 . S
C642 O622 1.234 . S
C643 H615 0.929 . S
C643 C646 1.391 1_545 S
C643 C648 1.391 . S
C644 H616 0.929 . S
C644 C645 1.390 . S
C644 N647 1.391 1_565 S
C645 H617 0.930 . S
C645 C644 1.390 . S
C645 C646 1.392 . S
C646 H618 0.929 . S
C646 C643 1.391 1_565 S
C646 C645 1.392 . S
N647 Co591 2.257 . S
N647 C644 1.391 1_545 S
N647 C648 1.388 . S
C648 H619 0.930 . S
C648 C643 1.391 . S
C648 N647 1.388 . S
Co649 O651 2.143 . S
Co649 O657 2.074 . S
Co649 O660 2.093 . S
Co649 O673 2.097 . S
Co649 N690 2.151 . S
Co649 N698 2.214 . S
Co650 O651 2.160 . S
Co650 O656 2.058 . S
Co650 O666 2.057 . S
Co650 O681 2.037 . S
Co650 N685 2.145 . S
Co650 N706 2.257 . S
O651 Co649 2.143 . S
O651 Co650 2.160 . S
C652 O653 1.278 . S
C652 O660 1.224 . S
O653 C652 1.278 . S
C654 O655 1.245 . S
C654 O666 1.232 . S
O655 C654 1.245 . S
O656 Co650 2.058 . S
O656 C682 1.269 . S
O657 Co649 2.074 . S
O657 C682 1.257 . S
H658 C683 0.930 . S
H659 C689 0.930 . S
O660 Co649 2.093 . S
O660 C652 1.224 . S
H661 C693 0.929 . S
H662 C695 0.930 . S
H663 C696 0.930 . S
H664 C694 0.929 . S
H665 C697 0.928 . S
O666 Co650 2.057 . S
O666 C654 1.232 . S
H667 C686 0.929 . S
H668 C687 0.929 . S
H669 C699 0.931 . S
H670 C691 0.929 . S
H671 C700 0.930 . S
H672 C692 0.931 . S
O673 Co649 2.097 . S
O673 C701 1.214 . S
H674 C702 0.929 . S
H675 C703 0.929 . S
H676 C704 0.930 . S
H677 C705 0.929 . S
H678 C707 0.930 . S
H679 C684 0.930 . S
H680 C688 0.930 . S
O681 Co650 2.037 . S
O681 C701 1.234 . S
C682 O656 1.269 . S
C682 O657 1.257 . S
C683 H658 0.930 . S
C683 C686 1.388 . S
C683 C688 1.418 . S
C684 H679 0.930 . S
C684 C687 1.404 . S
C684 C688 1.353 . S
N685 Co650 2.145 . S
N685 C686 1.397 . S
N685 C687 1.334 . S
C686 H667 0.929 . S
C686 C683 1.388 . S
C686 N685 1.397 . S
C687 H668 0.929 . S
C687 C684 1.404 . S
C687 N685 1.334 . S
C688 H680 0.930 . S
C688 C683 1.418 . S
C688 C684 1.353 . S
C689 H659 0.930 . S
C689 N690 1.330 . S
C689 C691 1.446 . S
N690 Co649 2.151 . S
N690 C689 1.330 . S
N690 C694 1.418 . S
C691 H670 0.929 . S
C691 C689 1.446 . S
C691 C692 1.332 . S
C692 H672 0.931 . S
C692 C691 1.332 . S
C692 C693 1.267 . S
C693 H661 0.929 . S
C693 C692 1.267 . S
C693 C694 1.251 . S
C694 H664 0.929 . S
C694 N690 1.418 . S
C694 C693 1.251 . S
C695 H662 0.930 . S
C695 C697 1.406 . S
C695 C700 1.261 . S
C696 H663 0.930 . S
C696 N698 1.325 . S
C696 C699 1.357 . S
C697 H665 0.928 . S
C697 C695 1.406 . S
C697 N698 1.261 . S
N698 Co649 2.214 . S
N698 C696 1.325 . S
N698 C697 1.261 . S
C699 H669 0.931 . S
C699 C696 1.357 . S
C699 C700 1.312 . S
C700 H671 0.930 . S
C700 C695 1.261 . S
C700 C699 1.312 . S
C701 O673 1.214 . S
C701 O681 1.234 . S
C702 H674 0.929 . S
C702 C705 1.391 . S
C702 C707 1.391 . S
C703 H675 0.929 . S
C703 C704 1.390 . S
C703 N706 1.391 . S
C704 H676 0.930 . S
C704 C703 1.390 . S
C704 C705 1.392 . S
C705 H677 0.929 . S
C705 C702 1.391 . S
C705 C704 1.392 . S
N706 Co650 2.257 . S
N706 C703 1.391 . S
N706 C707 1.388 . S
C707 H678 0.930 . S
C707 C702 1.391 . S
C707 N706 1.388 . S
Co708 O710 2.143 . S
Co708 O716 2.074 . S
Co708 O719 2.093 . S
Co708 O732 2.097 . S
Co708 N749 2.151 . S
Co708 N757 2.214 . S
Co709 O710 2.160 . S
Co709 O715 2.058 . S
Co709 O725 2.060 . S
Co709 O740 2.037 . S
Co709 N744 2.145 1_565 S
Co709 N765 2.257 . S
O710 Co708 2.143 . S
O710 Co709 2.160 . S
C711 O712 1.278 . S
C711 O719 1.224 . S
O712 C711 1.278 . S
C713 O714 1.245 . S
C713 O725 1.246 . S
O714 C713 1.245 . S
O715 Co709 2.058 . S
O715 C741 1.269 . S
O716 Co708 2.074 . S
O716 C741 1.257 . S
H717 C742 0.930 . S
H718 C748 0.930 . S
O719 Co708 2.093 . S
O719 C711 1.224 . S
H720 C752 0.929 . S
H721 C754 0.930 . S
H722 C755 0.930 . S
H723 C753 0.929 . S
H724 C756 0.928 . S
O725 Co709 2.060 . S
O725 C713 1.246 . S
H726 C745 0.929 . S
H727 C746 0.929 . S
H728 C758 0.931 . S
H729 C750 0.929 . S
H730 C759 0.930 . S
H731 C751 0.931 . S
O732 Co708 2.097 . S
O732 C760 1.214 . S
H733 C761 0.929 . S
H734 C762 0.929 . S
H735 C763 0.930 . S
H736 C764 0.929 . S
H737 C766 0.930 . S
H738 C743 0.930 . S
H739 C747 0.930 . S
O740 Co709 2.037 . S
O740 C760 1.234 . S
C741 O715 1.269 . S
C741 O716 1.257 . S
C742 H717 0.930 . S
C742 C745 1.388 . S
C742 C747 1.418 . S
C743 H738 0.930 . S
C743 C746 1.404 . S
C743 C747 1.353 . S
N744 Co709 2.145 1_545 S
N744 C745 1.397 . S
N744 C746 1.334 . S
C745 H726 0.929 . S
C745 C742 1.388 . S
C745 N744 1.397 . S
C746 H727 0.929 . S
C746 C743 1.404 . S
C746 N744 1.334 . S
C747 H739 0.930 . S
C747 C742 1.418 . S
C747 C743 1.353 . S
C748 H718 0.930 . S
C748 N749 1.330 . S
C748 C750 1.446 . S
N749 Co708 2.151 . S
N749 C748 1.330 . S
N749 C753 1.418 . S
C750 H729 0.929 . S
C750 C748 1.446 . S
C750 C751 1.332 . S
C751 H731 0.931 . S
C751 C750 1.332 . S
C751 C752 1.267 . S
C752 H720 0.929 . S
C752 C751 1.267 . S
C752 C753 1.251 . S
C753 H723 0.929 . S
C753 N749 1.418 . S
C753 C752 1.251 . S
C754 H721 0.930 . S
C754 C756 1.406 . S
C754 C759 1.261 . S
C755 H722 0.930 . S
C755 N757 1.325 . S
C755 C758 1.357 . S
C756 H724 0.928 . S
C756 C754 1.406 . S
C756 N757 1.261 . S
N757 Co708 2.214 . S
N757 C755 1.325 . S
N757 C756 1.261 . S
C758 H728 0.931 . S
C758 C755 1.357 . S
C758 C759 1.312 . S
C759 H730 0.930 . S
C759 C754 1.261 . S
C759 C758 1.312 . S
C760 O732 1.214 . S
C760 O740 1.234 . S
C761 H733 0.929 . S
C761 C764 1.391 1_565 S
C761 C766 1.391 . S
C762 H734 0.929 . S
C762 C763 1.390 . S
C762 N765 1.391 1_545 S
C763 H735 0.930 . S
C763 C762 1.390 . S
C763 C764 1.392 . S
C764 H736 0.929 . S
C764 C761 1.391 1_545 S
C764 C763 1.392 . S
N765 Co709 2.257 . S
N765 C762 1.391 1_565 S
N765 C766 1.388 . S
C766 H737 0.930 . S
C766 C761 1.391 . S
C766 N765 1.388 . S
Co767 O769 2.143 . S
Co767 O775 2.074 . S
Co767 O778 2.093 . S
Co767 O791 2.097 . S
Co767 N808 2.151 . S
Co767 N816 2.214 . S
Co768 O769 2.160 . S
Co768 O774 2.058 . S
Co768 O784 2.057 . S
Co768 O799 2.037 . S
Co768 N803 2.145 . S
Co768 N824 2.257 . S
O769 Co767 2.143 . S
O769 Co768 2.160 . S
C770 O771 1.278 . S
C770 O778 1.224 . S
O771 C770 1.278 . S
C772 O773 1.245 . S
C772 O784 1.232 . S
O773 C772 1.245 . S
O774 Co768 2.058 . S
O774 C800 1.269 . S
O775 Co767 2.074 . S
O775 C800 1.257 . S
H776 C801 0.930 . S
H777 C807 0.930 . S
O778 Co767 2.093 . S
O778 C770 1.224 . S
H779 C811 0.929 . S
H780 C813 0.930 . S
H781 C814 0.930 . S
H782 C812 0.929 . S
H783 C815 0.928 . S
O784 Co768 2.057 . S
O784 C772 1.232 . S
H785 C804 0.929 . S
H786 C805 0.929 . S
H787 C817 0.931 . S
H788 C809 0.929 . S
H789 C818 0.930 . S
H790 C810 0.931 . S
O791 Co767 2.097 . S
O791 C819 1.214 . S
H792 C820 0.929 . S
H793 C821 0.929 . S
H794 C822 0.930 . S
H795 C823 0.929 . S
H796 C825 0.930 . S
H797 C802 0.930 . S
H798 C806 0.930 . S
O799 Co768 2.037 . S
O799 C819 1.234 . S
C800 O774 1.269 . S
C800 O775 1.257 . S
C801 H776 0.930 . S
C801 C804 1.388 . S
C801 C806 1.418 . S
C802 H797 0.930 . S
C802 C805 1.404 . S
C802 C806 1.353 . S
N803 Co768 2.145 . S
N803 C804 1.397 . S
N803 C805 1.334 . S
C804 H785 0.929 . S
C804 C801 1.388 . S
C804 N803 1.397 . S
C805 H786 0.929 . S
C805 C802 1.404 . S
C805 N803 1.334 . S
C806 H798 0.930 . S
C806 C801 1.418 . S
C806 C802 1.353 . S
C807 H777 0.930 . S
C807 N808 1.330 . S
C807 C809 1.446 . S
N808 Co767 2.151 . S
N808 C807 1.330 . S
N808 C812 1.418 . S
C809 H788 0.929 . S
C809 C807 1.446 . S
C809 C810 1.332 . S
C810 H790 0.931 . S
C810 C809 1.332 . S
C810 C811 1.267 . S
C811 H779 0.929 . S
C811 C810 1.267 . S
C811 C812 1.251 . S
C812 H782 0.929 . S
C812 N808 1.418 . S
C812 C811 1.251 . S
C813 H780 0.930 . S
C813 C815 1.406 . S
C813 C818 1.261 . S
C814 H781 0.930 . S
C814 N816 1.325 . S
C814 C817 1.357 . S
C815 H783 0.928 . S
C815 C813 1.406 . S
C815 N816 1.261 . S
N816 Co767 2.214 . S
N816 C814 1.325 . S
N816 C815 1.261 . S
C817 H787 0.931 . S
C817 C814 1.357 . S
C817 C818 1.312 . S
C818 H789 0.930 . S
C818 C813 1.261 . S
C818 C817 1.312 . S
C819 O791 1.214 . S
C819 O799 1.234 . S
C820 H792 0.929 . S
C820 C823 1.391 . S
C820 C825 1.391 . S
C821 H793 0.929 . S
C821 C822 1.390 . S
C821 N824 1.391 . S
C822 H794 0.930 . S
C822 C821 1.390 . S
C822 C823 1.392 . S
C823 H795 0.929 . S
C823 C820 1.391 . S
C823 C822 1.392 . S
N824 Co768 2.257 . S
N824 C821 1.391 . S
N824 C825 1.388 . S
C825 H796 0.930 . S
C825 C820 1.391 . S
C825 N824 1.388 . S
Co826 O828 2.143 . S
Co826 O834 2.074 . S
Co826 O837 2.093 . S
Co826 O850 2.097 . S
Co826 N867 2.151 . S
Co826 N875 2.214 . S
Co827 O828 2.160 . S
Co827 O833 2.058 . S
Co827 O843 2.065 . S
Co827 O858 2.037 . S
Co827 N862 2.145 1_455 S
Co827 N883 2.257 . S
O828 Co826 2.143 . S
O828 Co827 2.160 . S
C829 O830 1.278 . S
C829 O837 1.224 . S
O830 C829 1.278 . S
C831 O832 1.245 . S
C831 O843 1.245 . S
O832 C831 1.245 . S
O833 Co827 2.058 . S
O833 C859 1.269 . S
O834 Co826 2.074 . S
O834 C859 1.257 . S
H835 C860 0.930 . S
H836 C866 0.930 . S
O837 Co826 2.093 . S
O837 C829 1.224 . S
H838 C870 0.929 . S
H839 C872 0.930 . S
H840 C873 0.930 . S
H841 C871 0.929 . S
H842 C874 0.928 . S
O843 Co827 2.065 . S
O843 C831 1.245 . S
H844 C863 0.929 . S
H845 C864 0.929 . S
H846 C876 0.931 . S
H847 C868 0.929 . S
H848 C877 0.930 . S
H849 C869 0.931 . S
O850 Co826 2.097 . S
O850 C878 1.214 . S
H851 C879 0.929 . S
H852 C880 0.929 . S
H853 C881 0.930 . S
H854 C882 0.929 . S
H855 C884 0.930 . S
H856 C861 0.930 . S
H857 C865 0.930 . S
O858 Co827 2.037 . S
O858 C878 1.234 . S
C859 O833 1.269 . S
C859 O834 1.257 . S
C860 H835 0.930 . S
C860 C863 1.388 . S
C860 C865 1.418 . S
C861 H856 0.930 . S
C861 C864 1.404 . S
C861 C865 1.353 . S
N862 Co827 2.145 1_655 S
N862 C863 1.397 . S
N862 C864 1.334 . S
C863 H844 0.929 . S
C863 C860 1.388 . S
C863 N862 1.397 . S
C864 H845 0.929 . S
C864 C861 1.404 . S
C864 N862 1.334 . S
C865 H857 0.930 . S
C865 C860 1.418 . S
C865 C861 1.353 . S
C866 H836 0.930 . S
C866 N867 1.330 . S
C866 C868 1.446 . S
N867 Co826 2.151 . S
N867 C866 1.330 . S
N867 C871 1.418 . S
C868 H847 0.929 . S
C868 C866 1.446 . S
C868 C869 1.332 . S
C869 H849 0.931 . S
C869 C868 1.332 . S
C869 C870 1.267 . S
C870 H838 0.929 . S
C870 C869 1.267 . S
C870 C871 1.251 . S
C871 H841 0.929 . S
C871 N867 1.418 . S
C871 C870 1.251 . S
C872 H839 0.930 . S
C872 C874 1.406 . S
C872 C877 1.261 . S
C873 H840 0.930 . S
C873 N875 1.325 . S
C873 C876 1.357 . S
C874 H842 0.928 . S
C874 C872 1.406 . S
C874 N875 1.261 . S
N875 Co826 2.214 . S
N875 C873 1.325 . S
N875 C874 1.261 . S
C876 H846 0.931 . S
C876 C873 1.357 . S
C876 C877 1.312 . S
C877 H848 0.930 . S
C877 C872 1.261 . S
C877 C876 1.312 . S
C878 O850 1.214 . S
C878 O858 1.234 . S
C879 H851 0.929 . S
C879 C882 1.391 1_455 S
C879 C884 1.391 . S
C880 H852 0.929 . S
C880 C881 1.390 . S
C880 N883 1.391 1_655 S
C881 H853 0.930 . S
C881 C880 1.390 . S
C881 C882 1.392 . S
C882 H854 0.929 . S
C882 C879 1.391 1_655 S
C882 C881 1.392 . S
N883 Co827 2.257 . S
N883 C880 1.391 1_455 S
N883 C884 1.388 . S
C884 H855 0.930 . S
C884 C879 1.391 . S
C884 N883 1.388 . S
Co885 O887 2.143 . S
Co885 O893 2.074 . S
Co885 O896 2.093 . S
Co885 O909 2.097 . S
Co885 N926 2.151 . S
Co885 N934 2.214 . S
Co886 O887 2.160 . S
Co886 O892 2.058 . S
Co886 O902 2.060 . S
Co886 O917 2.037 . S
Co886 N921 2.145 1_545 S
Co886 N942 2.257 . S
O887 Co885 2.143 . S
O887 Co886 2.160 . S
C888 O889 1.278 . S
C888 O896 1.224 . S
O889 C888 1.278 . S
C890 O891 1.245 . S
C890 O902 1.246 . S
O891 C890 1.245 . S
O892 Co886 2.058 . S
O892 C918 1.269 . S
O893 Co885 2.074 . S
O893 C918 1.257 . S
H894 C919 0.930 . S
H895 C925 0.930 . S
O896 Co885 2.093 . S
O896 C888 1.224 . S
H897 C929 0.929 . S
H898 C931 0.930 . S
H899 C932 0.930 . S
H900 C930 0.929 . S
H901 C933 0.928 . S
O902 Co886 2.060 . S
O902 C890 1.246 . S
H903 C922 0.929 . S
H904 C923 0.929 . S
H905 C935 0.931 . S
H906 C927 0.929 . S
H907 C936 0.930 . S
H908 C928 0.931 . S
O909 Co885 2.097 . S
O909 C937 1.214 . S
H910 C938 0.929 . S
H911 C939 0.929 . S
H912 C940 0.930 . S
H913 C941 0.929 . S
H914 C943 0.930 . S
H915 C920 0.930 . S
H916 C924 0.930 . S
O917 Co886 2.037 . S
O917 C937 1.234 . S
C918 O892 1.269 . S
C918 O893 1.257 . S
C919 H894 0.930 . S
C919 C922 1.388 . S
C919 C924 1.418 . S
C920 H915 0.930 . S
C920 C923 1.404 . S
C920 C924 1.353 . S
N921 Co886 2.145 1_565 S
N921 C922 1.397 . S
N921 C923 1.334 . S
C922 H903 0.929 . S
C922 C919 1.388 . S
C922 N921 1.397 . S
C923 H904 0.929 . S
C923 C920 1.404 . S
C923 N921 1.334 . S
C924 H916 0.930 . S
C924 C919 1.418 . S
C924 C920 1.353 . S
C925 H895 0.930 . S
C925 N926 1.330 . S
C925 C927 1.446 . S
N926 Co885 2.151 . S
N926 C925 1.330 . S
N926 C930 1.418 . S
C927 H906 0.929 . S
C927 C925 1.446 . S
C927 C928 1.332 . S
C928 H908 0.931 . S
C928 C927 1.332 . S
C928 C929 1.267 . S
C929 H897 0.929 . S
C929 C928 1.267 . S
C929 C930 1.251 . S
C930 H900 0.929 . S
C930 N926 1.418 . S
C930 C929 1.251 . S
C931 H898 0.930 . S
C931 C933 1.406 . S
C931 C936 1.261 . S
C932 H899 0.930 . S
C932 N934 1.325 . S
C932 C935 1.357 . S
C933 H901 0.928 . S
C933 C931 1.406 . S
C933 N934 1.261 . S
N934 Co885 2.214 . S
N934 C932 1.325 . S
N934 C933 1.261 . S
C935 H905 0.931 . S
C935 C932 1.357 . S
C935 C936 1.312 . S
C936 H907 0.930 . S
C936 C931 1.261 . S
C936 C935 1.312 . S
C937 O909 1.214 . S
C937 O917 1.234 . S
C938 H910 0.929 . S
C938 C941 1.391 1_545 S
C938 C943 1.391 . S
C939 H911 0.929 . S
C939 C940 1.390 . S
C939 N942 1.391 1_565 S
C940 H912 0.930 . S
C940 C939 1.390 . S
C940 C941 1.392 . S
C941 H913 0.929 . S
C941 C938 1.391 1_565 S
C941 C940 1.392 . S
N942 Co886 2.257 . S
N942 C939 1.391 1_545 S
N942 C943 1.388 . S
C943 H914 0.930 . S
C943 C938 1.391 . S
C943 N942 1.388 . S
Co944 O946 2.143 . S
Co944 O952 2.074 . S
Co944 O955 2.093 . S
Co944 O968 2.097 . S
Co944 N985 2.151 . S
Co944 N993 2.214 . S
Co945 O946 2.160 . S
Co945 O951 2.058 . S
Co945 O961 2.057 . S
Co945 O976 2.037 . S
Co945 N980 2.145 . S
Co945 N1001 2.257 . S
O946 Co944 2.143 . S
O946 Co945 2.160 . S
C947 O948 1.278 . S
C947 O955 1.224 . S
O948 C947 1.278 . S
C949 O950 1.245 . S
C949 O961 1.232 . S
O950 C949 1.245 . S
O951 Co945 2.058 . S
O951 C977 1.269 . S
O952 Co944 2.074 . S
O952 C977 1.257 . S
H953 C978 0.930 . S
H954 C984 0.930 . S
O955 Co944 2.093 . S
O955 C947 1.224 . S
H956 C988 0.929 . S
H957 C990 0.930 . S
H958 C991 0.930 . S
H959 C989 0.929 . S
H960 C992 0.928 . S
O961 Co945 2.057 . S
O961 C949 1.232 . S
H962 C981 0.929 . S
H963 C982 0.929 . S
H964 C994 0.931 . S
H965 C986 0.929 . S
H966 C995 0.930 . S
H967 C987 0.931 . S
O968 Co944 2.097 . S
O968 C996 1.214 . S
H969 C997 0.929 . S
H970 C998 0.929 . S
H971 C999 0.930 . S
H972 C1000 0.929 . S
H973 C1002 0.930 . S
H974 C979 0.930 . S
H975 C983 0.930 . S
O976 Co945 2.037 . S
O976 C996 1.234 . S
C977 O951 1.269 . S
C977 O952 1.257 . S
C978 H953 0.930 . S
C978 C981 1.388 . S
C978 C983 1.418 . S
C979 H974 0.930 . S
C979 C982 1.404 . S
C979 C983 1.353 . S
N980 Co945 2.145 . S
N980 C981 1.397 . S
N980 C982 1.334 . S
C981 H962 0.929 . S
C981 C978 1.388 . S
C981 N980 1.397 . S
C982 H963 0.929 . S
C982 C979 1.404 . S
C982 N980 1.334 . S
C983 H975 0.930 . S
C983 C978 1.418 . S
C983 C979 1.353 . S
C984 H954 0.930 . S
C984 N985 1.330 . S
C984 C986 1.446 . S
N985 Co944 2.151 . S
N985 C984 1.330 . S
N985 C989 1.418 . S
C986 H965 0.929 . S
C986 C984 1.446 . S
C986 C987 1.332 . S
C987 H967 0.931 . S
C987 C986 1.332 . S
C987 C988 1.267 . S
C988 H956 0.929 . S
C988 C987 1.267 . S
C988 C989 1.251 . S
C989 H959 0.929 . S
C989 N985 1.418 . S
C989 C988 1.251 . S
C990 H957 0.930 . S
C990 C992 1.406 . S
C990 C995 1.261 . S
C991 H958 0.930 . S
C991 N993 1.325 . S
C991 C994 1.357 . S
C992 H960 0.928 . S
C992 C990 1.406 . S
C992 N993 1.261 . S
N993 Co944 2.214 . S
N993 C991 1.325 . S
N993 C992 1.261 . S
C994 H964 0.931 . S
C994 C991 1.357 . S
C994 C995 1.312 . S
C995 H966 0.930 . S
C995 C990 1.261 . S
C995 C994 1.312 . S
C996 O968 1.214 . S
C996 O976 1.234 . S
C997 H969 0.929 . S
C997 C1000 1.391 . S
C997 C1002 1.391 . S
C998 H970 0.929 . S
C998 C999 1.390 . S
C998 N1001 1.391 . S
C999 H971 0.930 . S
C999 C998 1.390 . S
C999 C1000 1.392 . S
C1000 H972 0.929 . S
C1000 C997 1.391 . S
C1000 C999 1.392 . S
N1001 Co945 2.257 . S
N1001 C998 1.391 . S
N1001 C1002 1.388 . S
C1002 H973 0.930 . S
C1002 C997 1.391 . S
C1002 N1001 1.388 . S
Co1003 O1005 2.143 . S
Co1003 O1011 2.074 . S
Co1003 O1014 2.093 . S
Co1003 O1027 2.097 . S
Co1003 N1044 2.151 . S
Co1003 N1052 2.214 . S
Co1004 O1005 2.160 . S
Co1004 O1010 2.058 . S
Co1004 O1020 2.065 . S
Co1004 O1035 2.037 . S
Co1004 N1039 2.145 1_655 S
Co1004 N1060 2.257 . S
O1005 Co1003 2.143 . S
O1005 Co1004 2.160 . S
C1006 O1007 1.278 . S
C1006 O1014 1.224 . S
O1007 C1006 1.278 . S
C1008 O1009 1.245 . S
C1008 O1020 1.245 . S
O1009 C1008 1.245 . S
O1010 Co1004 2.058 . S
O1010 C1036 1.269 . S
O1011 Co1003 2.074 . S
O1011 C1036 1.257 . S
H1012 C1037 0.930 . S
H1013 C1043 0.930 . S
O1014 Co1003 2.093 . S
O1014 C1006 1.224 . S
H1015 C1047 0.929 . S
H1016 C1049 0.930 . S
H1017 C1050 0.930 . S
H1018 C1048 0.929 . S
H1019 C1051 0.928 . S
O1020 Co1004 2.065 . S
O1020 C1008 1.245 . S
H1021 C1040 0.929 . S
H1022 C1041 0.929 . S
H1023 C1053 0.931 . S
H1024 C1045 0.929 . S
H1025 C1054 0.930 . S
H1026 C1046 0.931 . S
O1027 Co1003 2.097 . S
O1027 C1055 1.214 . S
H1028 C1056 0.929 . S
H1029 C1057 0.929 . S
H1030 C1058 0.930 . S
H1031 C1059 0.929 . S
H1032 C1061 0.930 . S
H1033 C1038 0.930 . S
H1034 C1042 0.930 . S
O1035 Co1004 2.037 . S
O1035 C1055 1.234 . S
C1036 O1010 1.269 . S
C1036 O1011 1.257 . S
C1037 H1012 0.930 . S
C1037 C1040 1.388 . S
C1037 C1042 1.418 . S
C1038 H1033 0.930 . S
C1038 C1041 1.404 . S
C1038 C1042 1.353 . S
N1039 Co1004 2.145 1_455 S
N1039 C1040 1.397 . S
N1039 C1041 1.334 . S
C1040 H1021 0.929 . S
C1040 C1037 1.388 . S
C1040 N1039 1.397 . S
C1041 H1022 0.929 . S
C1041 C1038 1.404 . S
C1041 N1039 1.334 . S
C1042 H1034 0.930 . S
C1042 C1037 1.418 . S
C1042 C1038 1.353 . S
C1043 H1013 0.930 . S
C1043 N1044 1.330 . S
C1043 C1045 1.446 . S
N1044 Co1003 2.151 . S
N1044 C1043 1.330 . S
N1044 C1048 1.418 . S
C1045 H1024 0.929 . S
C1045 C1043 1.446 . S
C1045 C1046 1.332 . S
C1046 H1026 0.931 . S
C1046 C1045 1.332 . S
C1046 C1047 1.267 . S
C1047 H1015 0.929 . S
C1047 C1046 1.267 . S
C1047 C1048 1.251 . S
C1048 H1018 0.929 . S
C1048 N1044 1.418 . S
C1048 C1047 1.251 . S
C1049 H1016 0.930 . S
C1049 C1051 1.406 . S
C1049 C1054 1.261 . S
C1050 H1017 0.930 . S
C1050 N1052 1.325 . S
C1050 C1053 1.357 . S
C1051 H1019 0.928 . S
C1051 C1049 1.406 . S
C1051 N1052 1.261 . S
N1052 Co1003 2.214 . S
N1052 C1050 1.325 . S
N1052 C1051 1.261 . S
C1053 H1023 0.931 . S
C1053 C1050 1.357 . S
C1053 C1054 1.312 . S
C1054 H1025 0.930 . S
C1054 C1049 1.261 . S
C1054 C1053 1.312 . S
C1055 O1027 1.214 . S
C1055 O1035 1.234 . S
C1056 H1028 0.929 . S
C1056 C1059 1.391 1_655 S
C1056 C1061 1.391 . S
C1057 H1029 0.929 . S
C1057 C1058 1.390 . S
C1057 N1060 1.391 1_455 S
C1058 H1030 0.930 . S
C1058 C1057 1.390 . S
C1058 C1059 1.392 . S
C1059 H1031 0.929 . S
C1059 C1056 1.391 1_455 S
C1059 C1058 1.392 . S
N1060 Co1004 2.257 . S
N1060 C1057 1.391 1_655 S
N1060 C1061 1.388 . S
C1061 H1032 0.930 . S
C1061 C1056 1.391 . S
C1061 N1060 1.388 . S
Co1062 O1064 2.143 . S
Co1062 O1070 2.074 . S
Co1062 O1073 2.093 . S
Co1062 O1086 2.097 . S
Co1062 N1103 2.151 . S
Co1062 N1111 2.214 . S
Co1063 O1064 2.160 . S
Co1063 O1069 2.058 . S
Co1063 O1079 2.060 . S
Co1063 O1094 2.037 . S
Co1063 N1098 2.145 1_455 S
Co1063 N1119 2.257 . S
O1064 Co1062 2.143 . S
O1064 Co1063 2.160 . S
C1065 O1066 1.278 . S
C1065 O1073 1.224 . S
O1066 C1065 1.278 . S
C1067 O1068 1.245 . S
C1067 O1079 1.246 . S
O1068 C1067 1.245 . S
O1069 Co1063 2.058 . S
O1069 C1095 1.269 . S
O1070 Co1062 2.074 . S
O1070 C1095 1.257 . S
H1071 C1096 0.930 . S
H1072 C1102 0.930 . S
O1073 Co1062 2.093 . S
O1073 C1065 1.224 . S
H1074 C1106 0.929 . S
H1075 C1108 0.930 . S
H1076 C1109 0.930 . S
H1077 C1107 0.929 . S
H1078 C1110 0.928 . S
O1079 Co1063 2.060 . S
O1079 C1067 1.246 . S
H1080 C1099 0.929 . S
H1081 C1100 0.929 . S
H1082 C1112 0.931 . S
H1083 C1104 0.929 . S
H1084 C1113 0.930 . S
H1085 C1105 0.931 . S
O1086 Co1062 2.097 . S
O1086 C1114 1.214 . S
H1087 C1115 0.929 . S
H1088 C1116 0.929 . S
H1089 C1117 0.930 . S
H1090 C1118 0.929 . S
H1091 C1120 0.930 . S
H1092 C1097 0.930 . S
H1093 C1101 0.930 . S
O1094 Co1063 2.037 . S
O1094 C1114 1.234 . S
C1095 O1069 1.269 . S
C1095 O1070 1.257 . S
C1096 H1071 0.930 . S
C1096 C1099 1.388 . S
C1096 C1101 1.418 . S
C1097 H1092 0.930 . S
C1097 C1100 1.404 . S
C1097 C1101 1.353 . S
N1098 Co1063 2.145 1_655 S
N1098 C1099 1.397 . S
N1098 C1100 1.334 . S
C1099 H1080 0.929 . S
C1099 C1096 1.388 . S
C1099 N1098 1.397 . S
C1100 H1081 0.929 . S
C1100 C1097 1.404 . S
C1100 N1098 1.334 . S
C1101 H1093 0.930 . S
C1101 C1096 1.418 . S
C1101 C1097 1.353 . S
C1102 H1072 0.930 . S
C1102 N1103 1.330 . S
C1102 C1104 1.446 . S
N1103 Co1062 2.151 . S
N1103 C1102 1.330 . S
N1103 C1107 1.418 . S
C1104 H1083 0.929 . S
C1104 C1102 1.446 . S
C1104 C1105 1.332 . S
C1105 H1085 0.931 . S
C1105 C1104 1.332 . S
C1105 C1106 1.267 . S
C1106 H1074 0.929 . S
C1106 C1105 1.267 . S
C1106 C1107 1.251 . S
C1107 H1077 0.929 . S
C1107 N1103 1.418 . S
C1107 C1106 1.251 . S
C1108 H1075 0.930 . S
C1108 C1110 1.406 . S
C1108 C1113 1.261 . S
C1109 H1076 0.930 . S
C1109 N1111 1.325 . S
C1109 C1112 1.357 . S
C1110 H1078 0.928 . S
C1110 C1108 1.406 . S
C1110 N1111 1.261 . S
N1111 Co1062 2.214 . S
N1111 C1109 1.325 . S
N1111 C1110 1.261 . S
C1112 H1082 0.931 . S
C1112 C1109 1.357 . S
C1112 C1113 1.312 . S
C1113 H1084 0.930 . S
C1113 C1108 1.261 . S
C1113 C1112 1.312 . S
C1114 O1086 1.214 . S
C1114 O1094 1.234 . S
C1115 H1087 0.929 . S
C1115 C1118 1.391 1_455 S
C1115 C1120 1.391 . S
C1116 H1088 0.929 . S
C1116 C1117 1.390 . S
C1116 N1119 1.391 1_655 S
C1117 H1089 0.930 . S
C1117 C1116 1.390 . S
C1117 C1118 1.392 . S
C1118 H1090 0.929 . S
C1118 C1115 1.391 1_655 S
C1118 C1117 1.392 . S
N1119 Co1063 2.257 . S
N1119 C1116 1.391 1_455 S
N1119 C1120 1.388 . S
C1120 H1091 0.930 . S
C1120 C1115 1.391 . S
C1120 N1119 1.388 . S
Co1121 O1123 2.143 . S
Co1121 O1129 2.074 . S
Co1121 O1132 2.093 . S
Co1121 O1145 2.097 . S
Co1121 N1162 2.151 . S
Co1121 N1170 2.214 . S
Co1122 O1123 2.160 . S
Co1122 O1128 2.058 . S
Co1122 O1138 2.065 . S
Co1122 O1153 2.037 . S
Co1122 N1157 2.145 1_545 S
Co1122 N1178 2.257 . S
O1123 Co1121 2.143 . S
O1123 Co1122 2.160 . S
C1124 O1125 1.278 . S
C1124 O1132 1.224 . S
O1125 C1124 1.278 . S
C1126 O1127 1.245 . S
C1126 O1138 1.245 . S
O1127 C1126 1.245 . S
O1128 Co1122 2.058 . S
O1128 C1154 1.269 . S
O1129 Co1121 2.074 . S
O1129 C1154 1.257 . S
H1130 C1155 0.930 . S
H1131 C1161 0.930 . S
O1132 Co1121 2.093 . S
O1132 C1124 1.224 . S
H1133 C1165 0.929 . S
H1134 C1167 0.930 . S
H1135 C1168 0.930 . S
H1136 C1166 0.929 . S
H1137 C1169 0.928 . S
O1138 Co1122 2.065 . S
O1138 C1126 1.245 . S
H1139 C1158 0.929 . S
H1140 C1159 0.929 . S
H1141 C1171 0.931 . S
H1142 C1163 0.929 . S
H1143 C1172 0.930 . S
H1144 C1164 0.931 . S
O1145 Co1121 2.097 . S
O1145 C1173 1.214 . S
H1146 C1174 0.929 . S
H1147 C1175 0.929 . S
H1148 C1176 0.930 . S
H1149 C1177 0.929 . S
H1150 C1179 0.930 . S
H1151 C1156 0.930 . S
H1152 C1160 0.930 . S
O1153 Co1122 2.037 . S
O1153 C1173 1.234 . S
C1154 O1128 1.269 . S
C1154 O1129 1.257 . S
C1155 H1130 0.930 . S
C1155 C1158 1.388 . S
C1155 C1160 1.418 . S
C1156 H1151 0.930 . S
C1156 C1159 1.404 . S
C1156 C1160 1.353 . S
N1157 Co1122 2.145 1_565 S
N1157 C1158 1.397 . S
N1157 C1159 1.334 . S
C1158 H1139 0.929 . S
C1158 C1155 1.388 . S
C1158 N1157 1.397 . S
C1159 H1140 0.929 . S
C1159 C1156 1.404 . S
C1159 N1157 1.334 . S
C1160 H1152 0.930 . S
C1160 C1155 1.418 . S
C1160 C1156 1.353 . S
C1161 H1131 0.930 . S
C1161 N1162 1.330 . S
C1161 C1163 1.446 . S
N1162 Co1121 2.151 . S
N1162 C1161 1.330 . S
N1162 C1166 1.418 . S
C1163 H1142 0.929 . S
C1163 C1161 1.446 . S
C1163 C1164 1.332 . S
C1164 H1144 0.931 . S
C1164 C1163 1.332 . S
C1164 C1165 1.267 . S
C1165 H1133 0.929 . S
C1165 C1164 1.267 . S
C1165 C1166 1.251 . S
C1166 H1136 0.929 . S
C1166 N1162 1.418 . S
C1166 C1165 1.251 . S
C1167 H1134 0.930 . S
C1167 C1169 1.406 . S
C1167 C1172 1.261 . S
C1168 H1135 0.930 . S
C1168 N1170 1.325 . S
C1168 C1171 1.357 . S
C1169 H1137 0.928 . S
C1169 C1167 1.406 . S
C1169 N1170 1.261 . S
N1170 Co1121 2.214 . S
N1170 C1168 1.325 . S
N1170 C1169 1.261 . S
C1171 H1141 0.931 . S
C1171 C1168 1.357 . S
C1171 C1172 1.312 . S
C1172 H1143 0.930 . S
C1172 C1167 1.261 . S
C1172 C1171 1.312 . S
C1173 O1145 1.214 . S
C1173 O1153 1.234 . S
C1174 H1146 0.929 . S
C1174 C1177 1.391 1_545 S
C1174 C1179 1.391 . S
C1175 H1147 0.929 . S
C1175 C1176 1.390 . S
C1175 N1178 1.391 1_565 S
C1176 H1148 0.930 . S
C1176 C1175 1.390 . S
C1176 C1177 1.392 . S
C1177 H1149 0.929 . S
C1177 C1174 1.391 1_565 S
C1177 C1176 1.392 . S
N1178 Co1122 2.257 . S
N1178 C1175 1.391 1_545 S
N1178 C1179 1.388 . S
C1179 H1150 0.930 . S
C1179 C1174 1.391 . S
C1179 N1178 1.388 . S
Co1180 O1182 2.143 . S
Co1180 O1188 2.074 . S
Co1180 O1191 2.093 . S
Co1180 O1204 2.097 . S
Co1180 N1221 2.151 . S
Co1180 N1229 2.214 . S
Co1181 O1182 2.160 . S
Co1181 O1187 2.058 . S
Co1181 O1197 2.057 . S
Co1181 O1212 2.037 . S
Co1181 N1216 2.145 . S
Co1181 N1237 2.257 . S
O1182 Co1180 2.143 . S
O1182 Co1181 2.160 . S
C1183 O1184 1.278 . S
C1183 O1191 1.224 . S
O1184 C1183 1.278 . S
C1185 O1186 1.245 . S
C1185 O1197 1.232 . S
O1186 C1185 1.245 . S
O1187 Co1181 2.058 . S
O1187 C1213 1.269 . S
O1188 Co1180 2.074 . S
O1188 C1213 1.257 . S
H1189 C1214 0.930 . S
H1190 C1220 0.930 . S
O1191 Co1180 2.093 . S
O1191 C1183 1.224 . S
H1192 C1224 0.929 . S
H1193 C1226 0.930 . S
H1194 C1227 0.930 . S
H1195 C1225 0.929 . S
H1196 C1228 0.928 . S
O1197 Co1181 2.057 . S
O1197 C1185 1.232 . S
H1198 C1217 0.929 . S
H1199 C1218 0.929 . S
H1200 C1230 0.931 . S
H1201 C1222 0.929 . S
H1202 C1231 0.930 . S
H1203 C1223 0.931 . S
O1204 Co1180 2.097 . S
O1204 C1232 1.214 . S
H1205 C1233 0.929 . S
H1206 C1234 0.929 . S
H1207 C1235 0.930 . S
H1208 C1236 0.929 . S
H1209 C1238 0.930 . S
H1210 C1215 0.930 . S
H1211 C1219 0.930 . S
O1212 Co1181 2.037 . S
O1212 C1232 1.234 . S
C1213 O1187 1.269 . S
C1213 O1188 1.257 . S
C1214 H1189 0.930 . S
C1214 C1217 1.388 . S
C1214 C1219 1.418 . S
C1215 H1210 0.930 . S
C1215 C1218 1.404 . S
C1215 C1219 1.353 . S
N1216 Co1181 2.145 . S
N1216 C1217 1.397 . S
N1216 C1218 1.334 . S
C1217 H1198 0.929 . S
C1217 C1214 1.388 . S
C1217 N1216 1.397 . S
C1218 H1199 0.929 . S
C1218 C1215 1.404 . S
C1218 N1216 1.334 . S
C1219 H1211 0.930 . S
C1219 C1214 1.418 . S
C1219 C1215 1.353 . S
C1220 H1190 0.930 . S
C1220 N1221 1.330 . S
C1220 C1222 1.446 . S
N1221 Co1180 2.151 . S
N1221 C1220 1.330 . S
N1221 C1225 1.418 . S
C1222 H1201 0.929 . S
C1222 C1220 1.446 . S
C1222 C1223 1.332 . S
C1223 H1203 0.931 . S
C1223 C1222 1.332 . S
C1223 C1224 1.267 . S
C1224 H1192 0.929 . S
C1224 C1223 1.267 . S
C1224 C1225 1.251 . S
C1225 H1195 0.929 . S
C1225 N1221 1.418 . S
C1225 C1224 1.251 . S
C1226 H1193 0.930 . S
C1226 C1228 1.406 . S
C1226 C1231 1.261 . S
C1227 H1194 0.930 . S
C1227 N1229 1.325 . S
C1227 C1230 1.357 . S
C1228 H1196 0.928 . S
C1228 C1226 1.406 . S
C1228 N1229 1.261 . S
N1229 Co1180 2.214 . S
N1229 C1227 1.325 . S
N1229 C1228 1.261 . S
C1230 H1200 0.931 . S
C1230 C1227 1.357 . S
C1230 C1231 1.312 . S
C1231 H1202 0.930 . S
C1231 C1226 1.261 . S
C1231 C1230 1.312 . S
C1232 O1204 1.214 . S
C1232 O1212 1.234 . S
C1233 H1205 0.929 . S
C1233 C1236 1.391 . S
C1233 C1238 1.391 . S
C1234 H1206 0.929 . S
C1234 C1235 1.390 . S
C1234 N1237 1.391 . S
C1235 H1207 0.930 . S
C1235 C1234 1.390 . S
C1235 C1236 1.392 . S
C1236 H1208 0.929 . S
C1236 C1233 1.391 . S
C1236 C1235 1.392 . S
N1237 Co1181 2.257 . S
N1237 C1234 1.391 . S
N1237 C1238 1.388 . S
C1238 H1209 0.930 . S
C1238 C1233 1.391 . S
C1238 N1237 1.388 . S
Co1239 O1241 2.143 . S
Co1239 O1247 2.074 . S
Co1239 O1250 2.093 . S
Co1239 O1263 2.097 . S
Co1239 N1280 2.151 . S
Co1239 N1288 2.214 . S
Co1240 O1241 2.160 . S
Co1240 O1246 2.058 . S
Co1240 O1256 2.060 . S
Co1240 O1271 2.037 . S
Co1240 N1275 2.145 1_655 S
Co1240 N1296 2.257 . S
O1241 Co1239 2.143 . S
O1241 Co1240 2.160 . S
C1242 O1243 1.278 . S
C1242 O1250 1.224 . S
O1243 C1242 1.278 . S
C1244 O1245 1.245 . S
C1244 O1256 1.246 . S
O1245 C1244 1.245 . S
O1246 Co1240 2.058 . S
O1246 C1272 1.269 . S
O1247 Co1239 2.074 . S
O1247 C1272 1.257 . S
H1248 C1273 0.930 . S
H1249 C1279 0.930 . S
O1250 Co1239 2.093 . S
O1250 C1242 1.224 . S
H1251 C1283 0.929 . S
H1252 C1285 0.930 . S
H1253 C1286 0.930 . S
H1254 C1284 0.929 . S
H1255 C1287 0.928 . S
O1256 Co1240 2.060 . S
O1256 C1244 1.246 . S
H1257 C1276 0.929 . S
H1258 C1277 0.929 . S
H1259 C1289 0.931 . S
H1260 C1281 0.929 . S
H1261 C1290 0.930 . S
H1262 C1282 0.931 . S
O1263 Co1239 2.097 . S
O1263 C1291 1.214 . S
H1264 C1292 0.929 . S
H1265 C1293 0.929 . S
H1266 C1294 0.930 . S
H1267 C1295 0.929 . S
H1268 C1297 0.930 . S
H1269 C1274 0.930 . S
H1270 C1278 0.930 . S
O1271 Co1240 2.037 . S
O1271 C1291 1.234 . S
C1272 O1246 1.269 . S
C1272 O1247 1.257 . S
C1273 H1248 0.930 . S
C1273 C1276 1.388 . S
C1273 C1278 1.418 . S
C1274 H1269 0.930 . S
C1274 C1277 1.404 . S
C1274 C1278 1.353 . S
N1275 Co1240 2.145 1_455 S
N1275 C1276 1.397 . S
N1275 C1277 1.334 . S
C1276 H1257 0.929 . S
C1276 C1273 1.388 . S
C1276 N1275 1.397 . S
C1277 H1258 0.929 . S
C1277 C1274 1.404 . S
C1277 N1275 1.334 . S
C1278 H1270 0.930 . S
C1278 C1273 1.418 . S
C1278 C1274 1.353 . S
C1279 H1249 0.930 . S
C1279 N1280 1.330 . S
C1279 C1281 1.446 . S
N1280 Co1239 2.151 . S
N1280 C1279 1.330 . S
N1280 C1284 1.418 . S
C1281 H1260 0.929 . S
C1281 C1279 1.446 . S
C1281 C1282 1.332 . S
C1282 H1262 0.931 . S
C1282 C1281 1.332 . S
C1282 C1283 1.267 . S
C1283 H1251 0.929 . S
C1283 C1282 1.267 . S
C1283 C1284 1.251 . S
C1284 H1254 0.929 . S
C1284 N1280 1.418 . S
C1284 C1283 1.251 . S
C1285 H1252 0.930 . S
C1285 C1287 1.406 . S
C1285 C1290 1.261 . S
C1286 H1253 0.930 . S
C1286 N1288 1.325 . S
C1286 C1289 1.357 . S
C1287 H1255 0.928 . S
C1287 C1285 1.406 . S
C1287 N1288 1.261 . S
N1288 Co1239 2.214 . S
N1288 C1286 1.325 . S
N1288 C1287 1.261 . S
C1289 H1259 0.931 . S
C1289 C1286 1.357 . S
C1289 C1290 1.312 . S
C1290 H1261 0.930 . S
C1290 C1285 1.261 . S
C1290 C1289 1.312 . S
C1291 O1263 1.214 . S
C1291 O1271 1.234 . S
C1292 H1264 0.929 . S
C1292 C1295 1.391 1_655 S
C1292 C1297 1.391 . S
C1293 H1265 0.929 . S
C1293 C1294 1.390 . S
C1293 N1296 1.391 1_455 S
C1294 H1266 0.930 . S
C1294 C1293 1.390 . S
C1294 C1295 1.392 . S
C1295 H1267 0.929 . S
C1295 C1292 1.391 1_455 S
C1295 C1294 1.392 . S
N1296 Co1240 2.257 . S
N1296 C1293 1.391 1_655 S
N1296 C1297 1.388 . S
C1297 H1268 0.930 . S
C1297 C1292 1.391 . S
C1297 N1296 1.388 . S
Co1298 O1300 2.143 . S
Co1298 O1306 2.074 . S
Co1298 O1309 2.093 . S
Co1298 O1322 2.097 . S
Co1298 N1339 2.151 . S
Co1298 N1347 2.214 . S
Co1299 O1300 2.160 . S
Co1299 O1305 2.058 . S
Co1299 O1315 2.065 . S
Co1299 O1330 2.037 . S
Co1299 N1334 2.145 1_565 S
Co1299 N1355 2.257 . S
O1300 Co1298 2.143 . S
O1300 Co1299 2.160 . S
C1301 O1302 1.278 . S
C1301 O1309 1.224 . S
O1302 C1301 1.278 . S
C1303 O1304 1.245 . S
C1303 O1315 1.245 . S
O1304 C1303 1.245 . S
O1305 Co1299 2.058 . S
O1305 C1331 1.269 . S
O1306 Co1298 2.074 . S
O1306 C1331 1.257 . S
H1307 C1332 0.930 . S
H1308 C1338 0.930 . S
O1309 Co1298 2.093 . S
O1309 C1301 1.224 . S
H1310 C1342 0.929 . S
H1311 C1344 0.930 . S
H1312 C1345 0.930 . S
H1313 C1343 0.929 . S
H1314 C1346 0.928 . S
O1315 Co1299 2.065 . S
O1315 C1303 1.245 . S
H1316 C1335 0.929 . S
H1317 C1336 0.929 . S
H1318 C1348 0.931 . S
H1319 C1340 0.929 . S
H1320 C1349 0.930 . S
H1321 C1341 0.931 . S
O1322 Co1298 2.097 . S
O1322 C1350 1.214 . S
H1323 C1351 0.929 . S
H1324 C1352 0.929 . S
H1325 C1353 0.930 . S
H1326 C1354 0.929 . S
H1327 C1356 0.930 . S
H1328 C1333 0.930 . S
H1329 C1337 0.930 . S
O1330 Co1299 2.037 . S
O1330 C1350 1.234 . S
C1331 O1305 1.269 . S
C1331 O1306 1.257 . S
C1332 H1307 0.930 . S
C1332 C1335 1.388 . S
C1332 C1337 1.418 . S
C1333 H1328 0.930 . S
C1333 C1336 1.404 . S
C1333 C1337 1.353 . S
N1334 Co1299 2.145 1_545 S
N1334 C1335 1.397 . S
N1334 C1336 1.334 . S
C1335 H1316 0.929 . S
C1335 C1332 1.388 . S
C1335 N1334 1.397 . S
C1336 H1317 0.929 . S
C1336 C1333 1.404 . S
C1336 N1334 1.334 . S
C1337 H1329 0.930 . S
C1337 C1332 1.418 . S
C1337 C1333 1.353 . S
C1338 H1308 0.930 . S
C1338 N1339 1.330 . S
C1338 C1340 1.446 . S
N1339 Co1298 2.151 . S
N1339 C1338 1.330 . S
N1339 C1343 1.418 . S
C1340 H1319 0.929 . S
C1340 C1338 1.446 . S
C1340 C1341 1.332 . S
C1341 H1321 0.931 . S
C1341 C1340 1.332 . S
C1341 C1342 1.267 . S
C1342 H1310 0.929 . S
C1342 C1341 1.267 . S
C1342 C1343 1.251 . S
C1343 H1313 0.929 . S
C1343 N1339 1.418 . S
C1343 C1342 1.251 . S
C1344 H1311 0.930 . S
C1344 C1346 1.406 . S
C1344 C1349 1.261 . S
C1345 H1312 0.930 . S
C1345 N1347 1.325 . S
C1345 C1348 1.357 . S
C1346 H1314 0.928 . S
C1346 C1344 1.406 . S
C1346 N1347 1.261 . S
N1347 Co1298 2.214 . S
N1347 C1345 1.325 . S
N1347 C1346 1.261 . S
C1348 H1318 0.931 . S
C1348 C1345 1.357 . S
C1348 C1349 1.312 . S
C1349 H1320 0.930 . S
C1349 C1344 1.261 . S
C1349 C1348 1.312 . S
C1350 O1322 1.214 . S
C1350 O1330 1.234 . S
C1351 H1323 0.929 . S
C1351 C1354 1.391 1_565 S
C1351 C1356 1.391 . S
C1352 H1324 0.929 . S
C1352 C1353 1.390 . S
C1352 N1355 1.391 1_545 S
C1353 H1325 0.930 . S
C1353 C1352 1.390 . S
C1353 C1354 1.392 . S
C1354 H1326 0.929 . S
C1354 C1351 1.391 1_545 S
C1354 C1353 1.392 . S
N1355 Co1299 2.257 . S
N1355 C1352 1.391 1_565 S
N1355 C1356 1.388 . S
C1356 H1327 0.930 . S
C1356 C1351 1.391 . S
C1356 N1355 1.388 . S
Co1357 O1359 2.143 . S
Co1357 O1365 2.074 . S
Co1357 O1368 2.093 . S
Co1357 O1381 2.097 . S
Co1357 N1398 2.151 . S
Co1357 N1406 2.214 . S
Co1358 O1359 2.160 . S
Co1358 O1364 2.058 . S
Co1358 O1374 2.057 . S
Co1358 O1389 2.037 . S
Co1358 N1393 2.145 . S
Co1358 N1414 2.257 . S
O1359 Co1357 2.143 . S
O1359 Co1358 2.160 . S
C1360 O1361 1.278 . S
C1360 O1368 1.224 . S
O1361 C1360 1.278 . S
C1362 O1363 1.245 . S
C1362 O1374 1.232 . S
O1363 C1362 1.245 . S
O1364 Co1358 2.058 . S
O1364 C1390 1.269 . S
O1365 Co1357 2.074 . S
O1365 C1390 1.257 . S
H1366 C1391 0.930 . S
H1367 C1397 0.930 . S
O1368 Co1357 2.093 . S
O1368 C1360 1.224 . S
H1369 C1401 0.929 . S
H1370 C1403 0.930 . S
H1371 C1404 0.930 . S
H1372 C1402 0.929 . S
H1373 C1405 0.928 . S
O1374 Co1358 2.057 . S
O1374 C1362 1.232 . S
H1375 C1394 0.929 . S
H1376 C1395 0.929 . S
H1377 C1407 0.931 . S
H1378 C1399 0.929 . S
H1379 C1408 0.930 . S
H1380 C1400 0.931 . S
O1381 Co1357 2.097 . S
O1381 C1409 1.214 . S
H1382 C1410 0.929 . S
H1383 C1411 0.929 . S
H1384 C1412 0.930 . S
H1385 C1413 0.929 . S
H1386 C1415 0.930 . S
H1387 C1392 0.930 . S
H1388 C1396 0.930 . S
O1389 Co1358 2.037 . S
O1389 C1409 1.234 . S
C1390 O1364 1.269 . S
C1390 O1365 1.257 . S
C1391 H1366 0.930 . S
C1391 C1394 1.388 . S
C1391 C1396 1.418 . S
C1392 H1387 0.930 . S
C1392 C1395 1.404 . S
C1392 C1396 1.353 . S
N1393 Co1358 2.145 . S
N1393 C1394 1.397 . S
N1393 C1395 1.334 . S
C1394 H1375 0.929 . S
C1394 C1391 1.388 . S
C1394 N1393 1.397 . S
C1395 H1376 0.929 . S
C1395 C1392 1.404 . S
C1395 N1393 1.334 . S
C1396 H1388 0.930 . S
C1396 C1391 1.418 . S
C1396 C1392 1.353 . S
C1397 H1367 0.930 . S
C1397 N1398 1.330 . S
C1397 C1399 1.446 . S
N1398 Co1357 2.151 . S
N1398 C1397 1.330 . S
N1398 C1402 1.418 . S
C1399 H1378 0.929 . S
C1399 C1397 1.446 . S
C1399 C1400 1.332 . S
C1400 H1380 0.931 . S
C1400 C1399 1.332 . S
C1400 C1401 1.267 . S
C1401 H1369 0.929 . S
C1401 C1400 1.267 . S
C1401 C1402 1.251 . S
C1402 H1372 0.929 . S
C1402 N1398 1.418 . S
C1402 C1401 1.251 . S
C1403 H1370 0.930 . S
C1403 C1405 1.406 . S
C1403 C1408 1.261 . S
C1404 H1371 0.930 . S
C1404 N1406 1.325 . S
C1404 C1407 1.357 . S
C1405 H1373 0.928 . S
C1405 C1403 1.406 . S
C1405 N1406 1.261 . S
N1406 Co1357 2.214 . S
N1406 C1404 1.325 . S
N1406 C1405 1.261 . S
C1407 H1377 0.931 . S
C1407 C1404 1.357 . S
C1407 C1408 1.312 . S
C1408 H1379 0.930 . S
C1408 C1403 1.261 . S
C1408 C1407 1.312 . S
C1409 O1381 1.214 . S
C1409 O1389 1.234 . S
C1410 H1382 0.929 . S
C1410 C1413 1.391 . S
C1410 C1415 1.391 . S
C1411 H1383 0.929 . S
C1411 C1412 1.390 . S
C1411 N1414 1.391 . S
C1412 H1384 0.930 . S
C1412 C1411 1.390 . S
C1412 C1413 1.392 . S
C1413 H1385 0.929 . S
C1413 C1410 1.391 . S
C1413 C1412 1.392 . S
N1414 Co1358 2.257 . S
N1414 C1411 1.391 . S
N1414 C1415 1.388 . S
C1415 H1386 0.930 . S
C1415 C1410 1.391 . S
C1415 N1414 1.388 . S
H1416 C1422 0.930 . S
H1417 C1425 0.930 1_565 S
H1418 C1426 0.930 . S
H1419 C1427 0.930 1_565 S
H1420 C1430 0.930 . S
H1421 C1431 0.930 . S
C1422 H1416 0.930 . S
C1422 C1423 1.355 . S
C1422 C1424 1.415 . S
C1423 C1422 1.355 . S
C1423 C1425 1.419 . S
C1424 C1422 1.415 . S
C1424 C1429 1.425 . S
C1424 C1431 1.409 . S
C1425 H1417 0.930 1_545 S
C1425 C1423 1.419 . S
C1425 C1426 1.362 1_545 S
C1426 H1418 0.930 . S
C1426 C1425 1.362 1_565 S
C1426 C1429 1.409 1_565 S
C1427 H1419 0.930 1_545 S
C1427 C1428 1.355 . S
C1427 C1429 1.415 . S
C1428 C1427 1.355 . S
C1428 C1430 1.419 . S
C1429 C1424 1.425 . S
C1429 C1426 1.409 1_545 S
C1429 C1427 1.415 . S
C1430 H1420 0.930 . S
C1430 C1428 1.419 . S
C1430 C1431 1.362 . S
C1431 H1421 0.930 . S
C1431 C1424 1.409 . S
C1431 C1430 1.362 . S
H1432 C1438 0.930 . S
H1433 C1441 0.930 . S
H1434 C1442 0.930 . S
H1435 C1443 0.930 . S
H1436 C1446 0.930 . S
H1437 C1447 0.930 . S
C1438 H1432 0.930 . S
C1438 C1439 1.355 . S
C1438 C1440 1.415 . S
C1439 C1438 1.355 . S
C1439 C1441 1.419 . S
C1440 C1438 1.415 . S
C1440 C1445 1.425 . S
C1440 C1447 1.409 . S
C1441 H1433 0.930 . S
C1441 C1439 1.419 . S
C1441 C1442 1.362 . S
C1442 H1434 0.930 . S
C1442 C1441 1.362 . S
C1442 C1445 1.409 . S
C1443 H1435 0.930 . S
C1443 C1444 1.355 . S
C1443 C1445 1.415 . S
C1444 C1443 1.355 . S
C1444 C1446 1.419 . S
C1445 C1440 1.425 . S
C1445 C1442 1.409 . S
C1445 C1443 1.415 . S
C1446 H1436 0.930 . S
C1446 C1444 1.419 . S
C1446 C1447 1.362 . S
C1447 H1437 0.930 . S
C1447 C1440 1.409 . S
C1447 C1446 1.362 . S
H1448 C1454 0.930 . S
H1449 C1457 0.930 1_455 S
H1450 C1458 0.930 1_455 S
H1451 C1459 0.942 . S
H1452 C1462 0.930 . S
H1453 C1463 0.930 . S
C1454 H1448 0.930 . S
C1454 C1455 1.355 . S
C1454 C1456 1.415 . S
C1455 C1454 1.355 . S
C1455 C1457 1.419 . S
C1456 C1454 1.415 . S
C1456 C1461 1.425 . S
C1456 C1463 1.409 . S
C1457 H1449 0.930 1_655 S
C1457 C1455 1.419 . S
C1457 C1458 1.362 . S
C1458 H1450 0.930 1_655 S
C1458 C1457 1.362 . S
C1458 C1461 1.409 . S
C1459 H1451 0.942 . S
C1459 C1460 1.355 . S
C1459 C1461 1.415 . S
C1460 C1459 1.355 . S
C1460 C1462 1.419 . S
C1461 C1456 1.425 . S
C1461 C1458 1.409 . S
C1461 C1459 1.415 . S
C1462 H1452 0.930 . S
C1462 C1460 1.419 . S
C1462 C1463 1.362 . S
C1463 H1453 0.930 . S
C1463 C1456 1.409 . S
C1463 C1462 1.362 . S
H1464 C1470 0.930 . S
H1465 C1473 0.930 . S
H1466 C1474 0.930 . S
H1467 C1475 0.930 . S
H1468 C1478 0.930 . S
H1469 C1479 0.930 . S
C1470 H1464 0.930 . S
C1470 C1471 1.355 . S
C1470 C1472 1.415 . S
C1471 C1470 1.355 . S
C1471 C1473 1.419 . S
C1472 C1470 1.415 . S
C1472 C1477 1.425 . S
C1472 C1479 1.409 . S
C1473 H1465 0.930 . S
C1473 C1471 1.419 . S
C1473 C1474 1.362 . S
C1474 H1466 0.930 . S
C1474 C1473 1.362 . S
C1474 C1477 1.409 . S
C1475 H1467 0.930 . S
C1475 C1476 1.355 . S
C1475 C1477 1.415 . S
C1476 C1475 1.355 . S
C1476 C1478 1.419 . S
C1477 C1472 1.425 . S
C1477 C1474 1.409 . S
C1477 C1475 1.415 . S
C1478 H1468 0.930 . S
C1478 C1476 1.419 . S
C1478 C1479 1.362 . S
C1479 H1469 0.930 . S
C1479 C1472 1.409 . S
C1479 C1478 1.362 . S
H1480 C1486 0.930 . S
H1481 C1489 0.930 . S
H1482 C1490 0.930 . S
H1483 C1491 0.930 . S
H1484 C1494 0.930 . S
H1485 C1495 0.930 . S
C1486 H1480 0.930 . S
C1486 C1487 1.355 . S
C1486 C1488 1.415 . S
C1487 C1486 1.355 . S
C1487 C1489 1.419 . S
C1488 C1486 1.415 . S
C1488 C1493 1.425 . S
C1488 C1495 1.409 . S
C1489 H1481 0.930 . S
C1489 C1487 1.419 . S
C1489 C1490 1.362 . S
C1490 H1482 0.930 . S
C1490 C1489 1.362 . S
C1490 C1493 1.409 . S
C1491 H1483 0.930 . S
C1491 C1492 1.355 . S
C1491 C1493 1.415 . S
C1492 C1491 1.355 . S
C1492 C1494 1.419 . S
C1493 C1488 1.425 . S
C1493 C1490 1.409 . S
C1493 C1491 1.415 . S
C1494 H1484 0.930 . S
C1494 C1492 1.419 . S
C1494 C1495 1.362 . S
C1495 H1485 0.930 . S
C1495 C1488 1.409 . S
C1495 C1494 1.362 . S
H1496 C1502 0.930 . S
H1497 C1505 0.930 . S
H1498 C1506 0.930 . S
H1499 C1507 0.930 . S
H1500 C1510 0.930 . S
H1501 C1511 0.930 . S
C1502 H1496 0.930 . S
C1502 C1503 1.355 . S
C1502 C1504 1.415 . S
C1503 C1502 1.355 . S
C1503 C1505 1.419 . S
C1504 C1502 1.415 . S
C1504 C1509 1.425 . S
C1504 C1511 1.409 . S
C1505 H1497 0.930 . S
C1505 C1503 1.419 . S
C1505 C1506 1.362 . S
C1506 H1498 0.930 . S
C1506 C1505 1.362 . S
C1506 C1509 1.409 . S
C1507 H1499 0.930 . S
C1507 C1508 1.355 . S
C1507 C1509 1.415 . S
C1508 C1507 1.355 . S
C1508 C1510 1.419 . S
C1509 C1504 1.425 . S
C1509 C1506 1.409 . S
C1509 C1507 1.415 . S
C1510 H1500 0.930 . S
C1510 C1508 1.419 . S
C1510 C1511 1.362 . S
C1511 H1501 0.930 . S
C1511 C1504 1.409 . S
C1511 C1510 1.362 . S
H1512 C1518 0.930 . S
H1513 C1521 0.930 . S
H1514 C1522 0.930 . S
H1515 C1523 0.930 . S
H1516 C1526 0.930 . S
H1517 C1527 0.930 . S
C1518 H1512 0.930 . S
C1518 C1519 1.355 . S
C1518 C1520 1.415 . S
C1519 C1518 1.355 . S
C1519 C1521 1.419 . S
C1520 C1518 1.415 . S
C1520 C1525 1.425 . S
C1520 C1527 1.409 . S
C1521 H1513 0.930 . S
C1521 C1519 1.419 . S
C1521 C1522 1.362 . S
C1522 H1514 0.930 . S
C1522 C1521 1.362 . S
C1522 C1525 1.409 . S
C1523 H1515 0.930 . S
C1523 C1524 1.355 . S
C1523 C1525 1.415 . S
C1524 C1523 1.355 . S
C1524 C1526 1.419 . S
C1525 C1520 1.425 . S
C1525 C1522 1.409 . S
C1525 C1523 1.415 . S
C1526 H1516 0.930 . S
C1526 C1524 1.419 . S
C1526 C1527 1.362 . S
C1527 H1517 0.930 . S
C1527 C1520 1.409 . S
C1527 C1526 1.362 . S
H1528 C1534 0.930 . S
H1529 C1537 0.930 1_545 S
H1530 C1538 0.930 . S
H1531 C1539 0.930 1_545 S
H1532 C1542 0.930 . S
H1533 C1543 0.930 . S
C1534 H1528 0.930 . S
C1534 C1535 1.355 . S
C1534 C1536 1.415 . S
C1535 C1534 1.355 . S
C1535 C1537 1.419 . S
C1536 C1534 1.415 . S
C1536 C1541 1.425 . S
C1536 C1543 1.409 . S
C1537 H1529 0.930 1_565 S
C1537 C1535 1.419 . S
C1537 C1538 1.362 1_565 S
C1538 H1530 0.930 . S
C1538 C1537 1.362 1_545 S
C1538 C1541 1.409 1_545 S
C1539 H1531 0.930 1_565 S
C1539 C1540 1.355 . S
C1539 C1541 1.415 . S
C1540 C1539 1.355 . S
C1540 C1542 1.419 . S
C1541 C1536 1.425 . S
C1541 C1538 1.409 1_565 S
C1541 C1539 1.415 . S
C1542 H1532 0.930 . S
C1542 C1540 1.419 . S
C1542 C1543 1.362 . S
C1543 H1533 0.930 . S
C1543 C1536 1.409 . S
C1543 C1542 1.362 . S
H1544 C1550 0.930 . S
H1545 C1553 0.930 . S
H1546 C1554 0.930 . S
H1547 C1555 0.930 . S
H1548 C1558 0.930 . S
H1549 C1559 0.930 . S
C1550 H1544 0.930 . S
C1550 C1551 1.355 . S
C1550 C1552 1.415 . S
C1551 C1550 1.355 . S
C1551 C1553 1.419 . S
C1552 C1550 1.415 . S
C1552 C1557 1.425 . S
C1552 C1559 1.409 . S
C1553 H1545 0.930 . S
C1553 C1551 1.419 . S
C1553 C1554 1.362 . S
C1554 H1546 0.930 . S
C1554 C1553 1.362 . S
C1554 C1557 1.409 . S
C1555 H1547 0.930 . S
C1555 C1556 1.355 . S
C1555 C1557 1.415 . S
C1556 C1555 1.355 . S
C1556 C1558 1.419 . S
C1557 C1552 1.425 . S
C1557 C1554 1.409 . S
C1557 C1555 1.415 . S
C1558 H1548 0.930 . S
C1558 C1556 1.419 . S
C1558 C1559 1.362 . S
C1559 H1549 0.930 . S
C1559 C1552 1.409 . S
C1559 C1558 1.362 . S
H1560 C1566 0.930 . S
H1561 C1569 0.930 1_655 S
H1562 C1570 0.930 1_655 S
H1563 C1571 0.933 . S
H1564 C1574 0.930 . S
H1565 C1575 0.930 . S
C1566 H1560 0.930 . S
C1566 C1567 1.355 . S
C1566 C1568 1.415 . S
C1567 C1566 1.355 . S
C1567 C1569 1.419 . S
C1568 C1566 1.415 . S
C1568 C1573 1.425 . S
C1568 C1575 1.409 . S
C1569 H1561 0.930 1_455 S
C1569 C1567 1.419 . S
C1569 C1570 1.362 . S
C1570 H1562 0.930 1_455 S
C1570 C1569 1.362 . S
C1570 C1573 1.409 . S
C1571 H1563 0.933 . S
C1571 C1572 1.355 . S
C1571 C1573 1.415 . S
C1572 C1571 1.355 . S
C1572 C1574 1.419 . S
C1573 C1568 1.425 . S
C1573 C1570 1.409 . S
C1573 C1571 1.415 . S
C1574 H1564 0.930 . S
C1574 C1572 1.419 . S
C1574 C1575 1.362 . S
C1575 H1565 0.930 . S
C1575 C1568 1.409 . S
C1575 C1574 1.362 . S
H1576 C1582 0.930 . S
H1577 C1585 0.930 . S
H1578 C1586 0.930 . S
H1579 C1587 0.930 . S
H1580 C1590 0.930 1_565 S
H1581 C1591 0.930 1_565 S
C1582 H1576 0.930 . S
C1582 C1583 1.355 . S
C1582 C1584 1.415 . S
C1583 C1582 1.355 . S
C1583 C1585 1.419 . S
C1584 C1582 1.415 . S
C1584 C1589 1.425 . S
C1584 C1591 1.409 . S
C1585 H1577 0.930 . S
C1585 C1583 1.419 . S
C1585 C1586 1.362 . S
C1586 H1578 0.930 . S
C1586 C1585 1.362 . S
C1586 C1589 1.409 . S
C1587 H1579 0.930 . S
C1587 C1588 1.355 . S
C1587 C1589 1.415 . S
C1588 C1587 1.355 . S
C1588 C1590 1.419 . S
C1589 C1584 1.425 . S
C1589 C1586 1.409 . S
C1589 C1587 1.415 . S
C1590 H1580 0.930 1_545 S
C1590 C1588 1.419 . S
C1590 C1591 1.362 . S
C1591 H1581 0.930 1_545 S
C1591 C1584 1.409 . S
C1591 C1590 1.362 . S
H1592 C1598 0.930 . S
H1593 C1601 0.930 . S
H1594 C1602 0.930 . S
H1595 C1603 0.930 . S
H1596 C1606 0.930 . S
H1597 C1607 0.930 . S
C1598 H1592 0.930 . S
C1598 C1599 1.355 . S
C1598 C1600 1.415 . S
C1599 C1598 1.355 . S
C1599 C1601 1.419 . S
C1600 C1598 1.415 . S
C1600 C1605 1.425 . S
C1600 C1607 1.409 . S
C1601 H1593 0.930 . S
C1601 C1599 1.419 . S
C1601 C1602 1.362 . S
C1602 H1594 0.930 . S
C1602 C1601 1.362 . S
C1602 C1605 1.409 . S
C1603 H1595 0.930 . S
C1603 C1604 1.355 . S
C1603 C1605 1.415 . S
C1604 C1603 1.355 . S
C1604 C1606 1.419 . S
C1605 C1600 1.425 . S
C1605 C1602 1.409 . S
C1605 C1603 1.415 . S
C1606 H1596 0.930 . S
C1606 C1604 1.419 . S
C1606 C1607 1.362 . S
C1607 H1597 0.930 . S
C1607 C1600 1.409 . S
C1607 C1606 1.362 . S
H1608 C1614 0.930 . S
H1609 C1617 0.930 . S
H1610 C1618 0.930 . S
H1611 C1619 0.930 . S
H1612 C1622 0.930 . S
H1613 C1623 0.930 . S
C1614 H1608 0.930 . S
C1614 C1615 1.355 . S
C1614 C1616 1.415 . S
C1615 C1614 1.355 . S
C1615 C1617 1.419 . S
C1616 C1614 1.415 . S
C1616 C1621 1.425 . S
C1616 C1623 1.409 . S
C1617 H1609 0.930 . S
C1617 C1615 1.419 . S
C1617 C1618 1.362 . S
C1618 H1610 0.930 . S
C1618 C1617 1.362 . S
C1618 C1621 1.409 . S
C1619 H1611 0.930 . S
C1619 C1620 1.355 . S
C1619 C1621 1.415 . S
C1620 C1619 1.355 . S
C1620 C1622 1.419 . S
C1621 C1616 1.425 . S
C1621 C1618 1.409 . S
C1621 C1619 1.415 . S
C1622 H1612 0.930 . S
C1622 C1620 1.419 . S
C1622 C1623 1.362 . S
C1623 H1613 0.930 . S
C1623 C1616 1.409 . S
C1623 C1622 1.362 . S
H1624 C1630 0.930 . S
H1625 C1633 0.930 . S
H1626 C1634 0.930 . S
H1627 C1635 0.930 . S
H1628 C1638 0.930 . S
H1629 C1639 0.930 . S
C1630 H1624 0.930 . S
C1630 C1631 1.355 . S
C1630 C1632 1.415 . S
C1631 C1630 1.355 . S
C1631 C1633 1.419 . S
C1632 C1630 1.415 . S
C1632 C1637 1.425 . S
C1632 C1639 1.409 . S
C1633 H1625 0.930 . S
C1633 C1631 1.419 . S
C1633 C1634 1.362 . S
C1634 H1626 0.930 . S
C1634 C1633 1.362 . S
C1634 C1637 1.409 . S
C1635 H1627 0.930 . S
C1635 C1636 1.355 . S
C1635 C1637 1.415 . S
C1636 C1635 1.355 . S
C1636 C1638 1.419 . S
C1637 C1632 1.425 . S
C1637 C1634 1.409 . S
C1637 C1635 1.415 . S
C1638 H1628 0.930 . S
C1638 C1636 1.419 . S
C1638 C1639 1.362 . S
C1639 H1629 0.930 . S
C1639 C1632 1.409 . S
C1639 C1638 1.362 . S
H1640 C1646 0.930 . S
H1641 C1649 0.930 . S
H1642 C1650 0.930 . S
H1643 C1651 0.930 . S
H1644 C1654 0.930 . S
H1645 C1655 0.930 . S
C1646 H1640 0.930 . S
C1646 C1647 1.355 . S
C1646 C1648 1.415 . S
C1647 C1646 1.355 . S
C1647 C1649 1.419 . S
C1648 C1646 1.415 . S
C1648 C1653 1.425 . S
C1648 C1655 1.409 . S
C1649 H1641 0.930 . S
C1649 C1647 1.419 . S
C1649 C1650 1.362 . S
C1650 H1642 0.930 . S
C1650 C1649 1.362 . S
C1650 C1653 1.409 . S
C1651 H1643 0.930 . S
C1651 C1652 1.355 . S
C1651 C1653 1.415 . S
C1652 C1651 1.355 . S
C1652 C1654 1.419 . S
C1653 C1648 1.425 . S
C1653 C1650 1.409 . S
C1653 C1651 1.415 . S
C1654 H1644 0.930 . S
C1654 C1652 1.419 . S
C1654 C1655 1.362 . S
C1655 H1645 0.930 . S
C1655 C1648 1.409 . S
C1655 C1654 1.362 . S
H1656 C1662 0.930 . S
H1657 C1665 0.930 . S
H1658 C1666 0.930 . S
H1659 C1667 0.930 . S
H1660 C1670 0.930 . S
H1661 C1671 0.930 . S
C1662 H1656 0.930 . S
C1662 C1663 1.355 . S
C1662 C1664 1.415 . S
C1663 C1662 1.355 . S
C1663 C1665 1.419 . S
C1664 C1662 1.415 . S
C1664 C1669 1.425 . S
C1664 C1671 1.409 . S
C1665 H1657 0.930 . S
C1665 C1663 1.419 . S
C1665 C1666 1.362 . S
C1666 H1658 0.930 . S
C1666 C1665 1.362 . S
C1666 C1669 1.409 . S
C1667 H1659 0.930 . S
C1667 C1668 1.355 . S
C1667 C1669 1.415 . S
C1668 C1667 1.355 . S
C1668 C1670 1.419 . S
C1669 C1664 1.425 . S
C1669 C1666 1.409 . S
C1669 C1667 1.415 . S
C1670 H1660 0.930 . S
C1670 C1668 1.419 . S
C1670 C1671 1.362 . S
C1671 H1661 0.930 . S
C1671 C1664 1.409 . S
C1671 C1670 1.362 . S
H1672 C1678 0.930 . S
H1673 C1681 0.930 . S
H1674 C1682 0.930 . S
H1675 C1683 0.930 . S
H1676 C1686 0.930 . S
H1677 C1687 0.930 . S
C1678 H1672 0.930 . S
C1678 C1679 1.355 . S
C1678 C1680 1.415 . S
C1679 C1678 1.355 . S
C1679 C1681 1.419 . S
C1680 C1678 1.415 . S
C1680 C1685 1.425 . S
C1680 C1687 1.409 . S
C1681 H1673 0.930 . S
C1681 C1679 1.419 . S
C1681 C1682 1.362 . S
C1682 H1674 0.930 . S
C1682 C1681 1.362 . S
C1682 C1685 1.409 . S
C1683 H1675 0.930 . S
C1683 C1684 1.355 . S
C1683 C1685 1.415 . S
C1684 C1683 1.355 . S
C1684 C1686 1.419 . S
C1685 C1680 1.425 . S
C1685 C1682 1.409 . S
C1685 C1683 1.415 . S
C1686 H1676 0.930 . S
C1686 C1684 1.419 . S
C1686 C1687 1.362 . S
C1687 H1677 0.930 . S
C1687 C1680 1.409 . S
C1687 C1686 1.362 . S
H1688 C1694 0.930 . S
H1689 C1697 0.930 . S
H1690 C1698 0.930 . S
H1691 C1699 0.930 . S
H1692 C1702 0.930 . S
H1693 C1703 0.930 . S
C1694 H1688 0.930 . S
C1694 C1695 1.355 . S
C1694 C1696 1.415 . S
C1695 C1694 1.355 . S
C1695 C1697 1.419 . S
C1696 C1694 1.415 . S
C1696 C1701 1.425 . S
C1696 C1703 1.409 . S
C1697 H1689 0.930 . S
C1697 C1695 1.419 . S
C1697 C1698 1.362 . S
C1698 H1690 0.930 . S
C1698 C1697 1.362 . S
C1698 C1701 1.409 . S
C1699 H1691 0.930 . S
C1699 C1700 1.355 . S
C1699 C1701 1.415 . S
C1700 C1699 1.355 . S
C1700 C1702 1.419 . S
C1701 C1696 1.425 . S
C1701 C1698 1.409 . S
C1701 C1699 1.415 . S
C1702 H1692 0.930 . S
C1702 C1700 1.419 . S
C1702 C1703 1.362 . S
C1703 H1693 0.930 . S
C1703 C1696 1.409 . S
C1703 C1702 1.362 . S
H1704 C1710 0.930 . S
H1705 C1713 0.930 . S
H1706 C1714 0.930 . S
H1707 C1715 0.930 . S
H1708 C1718 0.930 . S
H1709 C1719 0.930 . S
C1710 H1704 0.930 . S
C1710 C1711 1.355 . S
C1710 C1712 1.415 . S
C1711 C1710 1.355 . S
C1711 C1713 1.419 . S
C1712 C1710 1.415 . S
C1712 C1717 1.425 . S
C1712 C1719 1.409 . S
C1713 H1705 0.930 . S
C1713 C1711 1.419 . S
C1713 C1714 1.362 . S
C1714 H1706 0.930 . S
C1714 C1713 1.362 . S
C1714 C1717 1.409 . S
C1715 H1707 0.930 . S
C1715 C1716 1.355 . S
C1715 C1717 1.415 . S
C1716 C1715 1.355 . S
C1716 C1718 1.419 . S
C1717 C1712 1.425 . S
C1717 C1714 1.409 . S
C1717 C1715 1.415 . S
C1718 H1708 0.930 . S
C1718 C1716 1.419 . S
C1718 C1719 1.362 . S
C1719 H1709 0.930 . S
C1719 C1712 1.409 . S
C1719 C1718 1.362 . S
H1720 C1726 0.930 . S
H1721 C1729 0.930 . S
H1722 C1730 0.930 . S
H1723 C1731 0.930 . S
H1724 C1734 0.930 . S
H1725 C1735 0.930 . S
C1726 H1720 0.930 . S
C1726 C1727 1.355 . S
C1726 C1728 1.415 . S
C1727 C1726 1.355 . S
C1727 C1729 1.419 . S
C1728 C1726 1.415 . S
C1728 C1733 1.425 . S
C1728 C1735 1.409 . S
C1729 H1721 0.930 . S
C1729 C1727 1.419 . S
C1729 C1730 1.362 . S
C1730 H1722 0.930 . S
C1730 C1729 1.362 . S
C1730 C1733 1.409 . S
C1731 H1723 0.930 . S
C1731 C1732 1.355 . S
C1731 C1733 1.415 . S
C1732 C1731 1.355 . S
C1732 C1734 1.419 . S
C1733 C1728 1.425 . S
C1733 C1730 1.409 . S
C1733 C1731 1.415 . S
C1734 H1724 0.930 . S
C1734 C1732 1.419 . S
C1734 C1735 1.362 . S
C1735 H1725 0.930 . S
C1735 C1728 1.409 . S
C1735 C1734 1.362 . S
H1736 C1742 0.930 . S
H1737 C1745 0.930 . S
H1738 C1746 0.930 . S
H1739 C1747 0.930 . S
H1740 C1750 0.930 . S
H1741 C1751 0.930 . S
C1742 H1736 0.930 . S
C1742 C1743 1.355 . S
C1742 C1744 1.415 . S
C1743 C1742 1.355 . S
C1743 C1745 1.419 . S
C1744 C1742 1.415 . S
C1744 C1749 1.425 . S
C1744 C1751 1.409 . S
C1745 H1737 0.930 . S
C1745 C1743 1.419 . S
C1745 C1746 1.362 . S
C1746 H1738 0.930 . S
C1746 C1745 1.362 . S
C1746 C1749 1.409 . S
C1747 H1739 0.930 . S
C1747 C1748 1.355 . S
C1747 C1749 1.415 . S
C1748 C1747 1.355 . S
C1748 C1750 1.419 . S
C1749 C1744 1.425 . S
C1749 C1746 1.409 . S
C1749 C1747 1.415 . S
C1750 H1740 0.930 . S
C1750 C1748 1.419 . S
C1750 C1751 1.362 . S
C1751 H1741 0.930 . S
C1751 C1744 1.409 . S
C1751 C1750 1.362 . S
H1752 C1758 0.930 . S
H1753 C1761 0.930 . S
H1754 C1762 0.930 . S
H1755 C1763 0.930 . S
H1756 C1766 0.930 . S
H1757 C1767 0.930 . S
C1758 H1752 0.930 . S
C1758 C1759 1.355 . S
C1758 C1760 1.415 . S
C1759 C1758 1.355 . S
C1759 C1761 1.419 . S
C1760 C1758 1.415 . S
C1760 C1765 1.425 . S
C1760 C1767 1.409 . S
C1761 H1753 0.930 . S
C1761 C1759 1.419 . S
C1761 C1762 1.362 . S
C1762 H1754 0.930 . S
C1762 C1761 1.362 . S
C1762 C1765 1.409 . S
C1763 H1755 0.930 . S
C1763 C1764 1.355 . S
C1763 C1765 1.415 . S
C1764 C1763 1.355 . S
C1764 C1766 1.419 . S
C1765 C1760 1.425 . S
C1765 C1762 1.409 . S
C1765 C1763 1.415 . S
C1766 H1756 0.930 . S
C1766 C1764 1.419 . S
C1766 C1767 1.362 . S
C1767 H1757 0.930 . S
C1767 C1760 1.409 . S
C1767 C1766 1.362 . S
H1768 C1774 0.930 . S
H1769 C1777 0.930 . S
H1770 C1778 0.930 . S
H1771 C1779 0.930 . S
H1772 C1782 0.930 . S
H1773 C1783 0.930 . S
C1774 H1768 0.930 . S
C1774 C1775 1.355 . S
C1774 C1776 1.415 . S
C1775 C1774 1.355 . S
C1775 C1777 1.419 . S
C1776 C1774 1.415 . S
C1776 C1781 1.425 . S
C1776 C1783 1.409 . S
C1777 H1769 0.930 . S
C1777 C1775 1.419 . S
C1777 C1778 1.362 . S
C1778 H1770 0.930 . S
C1778 C1777 1.362 . S
C1778 C1781 1.409 . S
C1779 H1771 0.930 . S
C1779 C1780 1.355 . S
C1779 C1781 1.415 . S
C1780 C1779 1.355 . S
C1780 C1782 1.419 . S
C1781 C1776 1.425 . S
C1781 C1778 1.409 . S
C1781 C1779 1.415 . S
C1782 H1772 0.930 . S
C1782 C1780 1.419 . S
C1782 C1783 1.362 . S
C1783 H1773 0.930 . S
C1783 C1776 1.409 . S
C1783 C1782 1.362 . S
H1784 C1790 0.930 . S
H1785 C1793 0.930 . S
H1786 C1794 0.930 . S
H1787 C1795 0.930 . S
H1788 C1798 0.930 . S
H1789 C1799 0.930 . S
C1790 H1784 0.930 . S
C1790 C1791 1.355 . S
C1790 C1792 1.415 . S
C1791 C1790 1.355 . S
C1791 C1793 1.419 . S
C1792 C1790 1.415 . S
C1792 C1797 1.425 . S
C1792 C1799 1.409 . S
C1793 H1785 0.930 . S
C1793 C1791 1.419 . S
C1793 C1794 1.362 . S
C1794 H1786 0.930 . S
C1794 C1793 1.362 . S
C1794 C1797 1.409 . S
C1795 H1787 0.930 . S
C1795 C1796 1.355 . S
C1795 C1797 1.415 . S
C1796 C1795 1.355 . S
C1796 C1798 1.419 . S
C1797 C1792 1.425 . S
C1797 C1794 1.409 . S
C1797 C1795 1.415 . S
C1798 H1788 0.930 . S
C1798 C1796 1.419 . S
C1798 C1799 1.362 . S
C1799 H1789 0.930 . S
C1799 C1792 1.409 . S
C1799 C1798 1.362 . S
H1800 C1806 0.930 . S
H1801 C1809 0.930 . S
H1802 C1810 0.930 . S
H1803 C1811 0.930 . S
H1804 C1814 0.930 . S
H1805 C1815 0.930 . S
C1806 H1800 0.930 . S
C1806 C1807 1.355 . S
C1806 C1808 1.415 . S
C1807 C1806 1.355 . S
C1807 C1809 1.419 1_565 S
C1808 C1806 1.415 . S
C1808 C1813 1.425 1_566 S
C1808 C1815 1.409 1_556 S
C1809 H1801 0.930 . S
C1809 C1807 1.419 1_545 S
C1809 C1810 1.362 . S
C1810 H1802 0.930 . S
C1810 C1809 1.362 . S
C1810 C1813 1.409 1_556 S
C1811 H1803 0.930 . S
C1811 C1812 1.355 . S
C1811 C1813 1.415 . S
C1812 C1811 1.355 . S
C1812 C1814 1.419 1_545 S
C1813 C1808 1.425 1_544 S
C1813 C1810 1.409 1_554 S
C1813 C1811 1.415 . S
C1814 H1804 0.930 . S
C1814 C1812 1.419 1_565 S
C1814 C1815 1.362 . S
C1815 H1805 0.930 . S
C1815 C1808 1.409 1_554 S
C1815 C1814 1.362 . S
H1816 C1822 0.930 . S
H1817 C1825 0.930 . S
H1818 C1826 0.930 . S
H1819 C1827 0.930 . S
H1820 C1830 0.930 . S
H1821 C1831 0.930 . S
C1822 H1816 0.930 . S
C1822 C1823 1.355 . S
C1822 C1824 1.415 . S
C1823 C1822 1.355 . S
C1823 C1825 1.419 . S
C1824 C1822 1.415 . S
C1824 C1829 1.425 . S
C1824 C1831 1.409 . S
C1825 H1817 0.930 . S
C1825 C1823 1.419 . S
C1825 C1826 1.362 . S
C1826 H1818 0.930 . S
C1826 C1825 1.362 . S
C1826 C1829 1.409 . S
C1827 H1819 0.930 . S
C1827 C1828 1.355 . S
C1827 C1829 1.415 . S
C1828 C1827 1.355 . S
C1828 C1830 1.419 . S
C1829 C1824 1.425 . S
C1829 C1826 1.409 . S
C1829 C1827 1.415 . S
C1830 H1820 0.930 . S
C1830 C1828 1.419 . S
C1830 C1831 1.362 . S
C1831 H1821 0.930 . S
C1831 C1824 1.409 . S
C1831 C1830 1.362 . S
H1832 C1838 0.930 . S
H1833 C1841 0.930 . S
H1834 C1842 0.930 . S
H1835 C1843 0.930 . S
H1836 C1846 0.930 . S
H1837 C1847 0.930 . S
C1838 H1832 0.930 . S
C1838 C1839 1.355 1_655 S
C1838 C1840 1.415 . S
C1839 C1838 1.355 1_455 S
C1839 C1841 1.419 . S
C1840 C1838 1.415 . S
C1840 C1845 1.425 1_656 S
C1840 C1847 1.409 1_556 S
C1841 H1833 0.930 . S
C1841 C1839 1.419 . S
C1841 C1842 1.362 . S
C1842 H1834 0.930 . S
C1842 C1841 1.362 . S
C1842 C1845 1.409 1_556 S
C1843 H1835 0.930 . S
C1843 C1844 1.355 1_455 S
C1843 C1845 1.415 . S
C1844 C1843 1.355 1_655 S
C1844 C1846 1.419 . S
C1845 C1840 1.425 1_454 S
C1845 C1842 1.409 1_554 S
C1845 C1843 1.415 . S
C1846 H1836 0.930 . S
C1846 C1844 1.419 . S
C1846 C1847 1.362 . S
C1847 H1837 0.930 . S
C1847 C1840 1.409 1_554 S
C1847 C1846 1.362 . S
H1848 C1854 0.930 . S
H1849 C1857 0.930 . S
H1850 C1858 0.930 . S
H1851 C1859 0.930 . S
H1852 C1862 0.930 . S
H1853 C1863 0.930 . S
C1854 H1848 0.930 . S
C1854 C1855 1.355 . S
C1854 C1856 1.415 . S
C1855 C1854 1.355 . S
C1855 C1857 1.419 1_545 S
C1856 C1854 1.415 . S
C1856 C1861 1.425 1_545 S
C1856 C1863 1.409 . S
C1857 H1849 0.930 . S
C1857 C1855 1.419 1_565 S
C1857 C1858 1.362 . S
C1858 H1850 0.930 . S
C1858 C1857 1.362 . S
C1858 C1861 1.409 . S
C1859 H1851 0.930 . S
C1859 C1860 1.355 . S
C1859 C1861 1.415 . S
C1860 C1859 1.355 . S
C1860 C1862 1.419 1_565 S
C1861 C1856 1.425 1_565 S
C1861 C1858 1.409 . S
C1861 C1859 1.415 . S
C1862 H1852 0.930 . S
C1862 C1860 1.419 1_545 S
C1862 C1863 1.362 . S
C1863 H1853 0.930 . S
C1863 C1856 1.409 . S
C1863 C1862 1.362 . S
H1864 C1870 0.930 . S
H1865 C1873 0.930 . S
H1866 C1874 0.930 . S
H1867 C1875 0.930 . S
H1868 C1878 0.930 . S
H1869 C1879 0.930 . S
C1870 H1864 0.930 . S
C1870 C1871 1.355 . S
C1870 C1872 1.415 . S
C1871 C1870 1.355 . S
C1871 C1873 1.419 . S
C1872 C1870 1.415 . S
C1872 C1877 1.425 1_554 S
C1872 C1879 1.409 1_554 S
C1873 H1865 0.930 . S
C1873 C1871 1.419 . S
C1873 C1874 1.362 . S
C1874 H1866 0.930 . S
C1874 C1873 1.362 . S
C1874 C1877 1.409 1_554 S
C1875 H1867 0.930 . S
C1875 C1876 1.355 . S
C1875 C1877 1.415 . S
C1876 C1875 1.355 . S
C1876 C1878 1.419 . S
C1877 C1872 1.425 1_556 S
C1877 C1874 1.409 1_556 S
C1877 C1875 1.415 . S
C1878 H1868 0.930 . S
C1878 C1876 1.419 . S
C1878 C1879 1.362 . S
C1879 H1869 0.930 . S
C1879 C1872 1.409 1_556 S
C1879 C1878 1.362 . S
H1880 C1886 0.930 . S
H1881 C1889 0.930 . S
H1882 C1890 0.930 . S
H1883 C1891 0.930 . S
H1884 C1894 0.930 . S
H1885 C1895 0.930 . S
C1886 H1880 0.930 . S
C1886 C1887 1.355 . S
C1886 C1888 1.415 . S
C1887 C1886 1.355 . S
C1887 C1889 1.419 1_455 S
C1888 C1886 1.415 . S
C1888 C1893 1.425 1_455 S
C1888 C1895 1.409 . S
C1889 H1881 0.930 . S
C1889 C1887 1.419 1_655 S
C1889 C1890 1.362 . S
C1890 H1882 0.930 . S
C1890 C1889 1.362 . S
C1890 C1893 1.409 . S
C1891 H1883 0.930 . S
C1891 C1892 1.355 . S
C1891 C1893 1.415 . S
C1892 C1891 1.355 . S
C1892 C1894 1.419 1_655 S
C1893 C1888 1.425 1_655 S
C1893 C1890 1.409 . S
C1893 C1891 1.415 . S
C1894 H1884 0.930 . S
C1894 C1892 1.419 1_455 S
C1894 C1895 1.362 . S
C1895 H1885 0.930 . S
C1895 C1888 1.409 . S
C1895 C1894 1.362 . S
H1896 C1902 0.930 . S
H1897 C1905 0.930 . S
H1898 C1906 0.930 . S
H1899 C1907 0.930 . S
H1900 C1910 0.930 . S
H1901 C1911 0.930 . S
C1902 H1896 0.930 . S
C1902 C1903 1.355 1_545 S
C1902 C1904 1.415 . S
C1903 C1902 1.355 1_565 S
C1903 C1905 1.419 . S
C1904 C1902 1.415 . S
C1904 C1909 1.425 1_546 S
C1904 C1911 1.409 1_556 S
C1905 H1897 0.930 . S
C1905 C1903 1.419 . S
C1905 C1906 1.362 . S
C1906 H1898 0.930 . S
C1906 C1905 1.362 . S
C1906 C1909 1.409 1_556 S
C1907 H1899 0.930 . S
C1907 C1908 1.355 1_565 S
C1907 C1909 1.415 . S
C1908 C1907 1.355 1_545 S
C1908 C1910 1.419 . S
C1909 C1904 1.425 1_564 S
C1909 C1906 1.409 1_554 S
C1909 C1907 1.415 . S
C1910 H1900 0.930 . S
C1910 C1908 1.419 . S
C1910 C1911 1.362 . S
C1911 H1901 0.930 . S
C1911 C1904 1.409 1_554 S
C1911 C1910 1.362 . S
H1912 C1918 0.930 . S
H1913 C1921 0.930 . S
H1914 C1922 0.930 . S
H1915 C1923 0.930 . S
H1916 C1926 0.930 . S
H1917 C1927 0.930 . S
C1918 H1912 0.930 . S
C1918 C1919 1.355 . S
C1918 C1920 1.415 . S
C1919 C1918 1.355 . S
C1919 C1921 1.419 . S
C1920 C1918 1.415 . S
C1920 C1925 1.425 . S
C1920 C1927 1.409 . S
C1921 H1913 0.930 . S
C1921 C1919 1.419 . S
C1921 C1922 1.362 . S
C1922 H1914 0.930 . S
C1922 C1921 1.362 . S
C1922 C1925 1.409 . S
C1923 H1915 0.930 . S
C1923 C1924 1.355 . S
C1923 C1925 1.415 . S
C1924 C1923 1.355 . S
C1924 C1926 1.419 . S
C1925 C1920 1.425 . S
C1925 C1922 1.409 . S
C1925 C1923 1.415 . S
C1926 H1916 0.930 . S
C1926 C1924 1.419 . S
C1926 C1927 1.362 . S
C1927 H1917 0.930 . S
C1927 C1920 1.409 . S
C1927 C1926 1.362 . S
H1928 C1934 0.930 . S
H1929 C1937 0.930 . S
H1930 C1938 0.930 . S
H1931 C1939 0.930 . S
H1932 C1942 0.930 . S
H1933 C1943 0.930 . S
C1934 H1928 0.930 . S
C1934 C1935 1.355 1_455 S
C1934 C1936 1.415 . S
C1935 C1934 1.355 1_655 S
C1935 C1937 1.419 . S
C1936 C1934 1.415 . S
C1936 C1941 1.425 1_454 S
C1936 C1943 1.409 1_554 S
C1937 H1929 0.930 . S
C1937 C1935 1.419 . S
C1937 C1938 1.362 . S
C1938 H1930 0.930 . S
C1938 C1937 1.362 . S
C1938 C1941 1.409 1_554 S
C1939 H1931 0.930 . S
C1939 C1940 1.355 1_655 S
C1939 C1941 1.415 . S
C1940 C1939 1.355 1_455 S
C1940 C1942 1.419 . S
C1941 C1936 1.425 1_656 S
C1941 C1938 1.409 1_556 S
C1941 C1939 1.415 . S
C1942 H1932 0.930 . S
C1942 C1940 1.419 . S
C1942 C1943 1.362 . S
C1943 H1933 0.930 . S
C1943 C1936 1.409 1_556 S
C1943 C1942 1.362 . S
H1944 C1950 0.930 . S
H1945 C1953 0.930 . S
H1946 C1954 0.930 . S
H1947 C1955 0.930 . S
H1948 C1958 0.930 . S
H1949 C1959 0.930 . S
C1950 H1944 0.930 . S
C1950 C1951 1.355 . S
C1950 C1952 1.415 . S
C1951 C1950 1.355 . S
C1951 C1953 1.419 1_565 S
C1952 C1950 1.415 . S
C1952 C1957 1.425 1_565 S
C1952 C1959 1.409 . S
C1953 H1945 0.930 . S
C1953 C1951 1.419 1_545 S
C1953 C1954 1.362 . S
C1954 H1946 0.930 . S
C1954 C1953 1.362 . S
C1954 C1957 1.409 . S
C1955 H1947 0.930 . S
C1955 C1956 1.355 . S
C1955 C1957 1.415 . S
C1956 C1955 1.355 . S
C1956 C1958 1.419 1_545 S
C1957 C1952 1.425 1_545 S
C1957 C1954 1.409 . S
C1957 C1955 1.415 . S
C1958 H1948 0.930 . S
C1958 C1956 1.419 1_565 S
C1958 C1959 1.362 . S
C1959 H1949 0.930 . S
C1959 C1952 1.409 . S
C1959 C1958 1.362 . S
H1960 C1966 0.930 . S
H1961 C1969 0.930 . S
H1962 C1970 0.930 . S
H1963 C1971 0.930 . S
H1964 C1974 0.930 . S
H1965 C1975 0.930 . S
C1966 H1960 0.930 . S
C1966 C1967 1.355 . S
C1966 C1968 1.415 . S
C1967 C1966 1.355 . S
C1967 C1969 1.419 . S
C1968 C1966 1.415 . S
C1968 C1973 1.425 1_554 S
C1968 C1975 1.409 1_554 S
C1969 H1961 0.930 . S
C1969 C1967 1.419 . S
C1969 C1970 1.362 . S
C1970 H1962 0.930 . S
C1970 C1969 1.362 . S
C1970 C1973 1.409 1_554 S
C1971 H1963 0.930 . S
C1971 C1972 1.355 . S
C1971 C1973 1.415 . S
C1972 C1971 1.355 . S
C1972 C1974 1.419 . S
C1973 C1968 1.425 1_556 S
C1973 C1970 1.409 1_556 S
C1973 C1971 1.415 . S
C1974 H1964 0.930 . S
C1974 C1972 1.419 . S
C1974 C1975 1.362 . S
C1975 H1965 0.930 . S
C1975 C1968 1.409 1_556 S
C1975 C1974 1.362 . S
H1976 C1982 0.930 . S
H1977 C1985 0.930 . S
H1978 C1986 0.930 . S
H1979 C1987 0.930 . S
H1980 C1990 0.930 . S
H1981 C1991 0.930 . S
C1982 H1976 0.930 . S
C1982 C1983 1.355 . S
C1982 C1984 1.415 . S
C1983 C1982 1.355 . S
C1983 C1985 1.419 1_455 S
C1984 C1982 1.415 . S
C1984 C1989 1.425 1_455 S
C1984 C1991 1.409 . S
C1985 H1977 0.930 . S
C1985 C1983 1.419 1_655 S
C1985 C1986 1.362 . S
C1986 H1978 0.930 . S
C1986 C1985 1.362 . S
C1986 C1989 1.409 . S
C1987 H1979 0.930 . S
C1987 C1988 1.355 . S
C1987 C1989 1.415 . S
C1988 C1987 1.355 . S
C1988 C1990 1.419 1_655 S
C1989 C1984 1.425 1_655 S
C1989 C1986 1.409 . S
C1989 C1987 1.415 . S
C1990 H1980 0.930 . S
C1990 C1988 1.419 1_455 S
C1990 C1991 1.362 . S
C1991 H1981 0.930 . S
C1991 C1984 1.409 . S
C1991 C1990 1.362 . S
H1992 C1998 0.930 . S
H1993 C2001 0.930 1_565 S
H1994 C2002 0.930 . S
H1995 C2003 0.930 1_565 S
H1996 C2006 0.930 . S
H1997 C2007 0.930 . S
C1998 H1992 0.930 . S
C1998 C1999 1.355 . S
C1998 C2000 1.415 . S
C1999 C1998 1.355 . S
C1999 C2001 1.419 . S
C2000 C1998 1.415 . S
C2000 C2005 1.425 . S
C2000 C2007 1.409 . S
C2001 H1993 0.930 1_545 S
C2001 C1999 1.419 . S
C2001 C2002 1.362 1_545 S
C2002 H1994 0.930 . S
C2002 C2001 1.362 1_565 S
C2002 C2005 1.409 1_565 S
C2003 H1995 0.930 1_545 S
C2003 C2004 1.355 . S
C2003 C2005 1.415 . S
C2004 C2003 1.355 . S
C2004 C2006 1.419 . S
C2005 C2000 1.425 . S
C2005 C2002 1.409 1_545 S
C2005 C2003 1.415 . S
C2006 H1996 0.930 . S
C2006 C2004 1.419 . S
C2006 C2007 1.362 . S
C2007 H1997 0.930 . S
C2007 C2000 1.409 . S
C2007 C2006 1.362 . S
H2008 C2014 0.930 . S
H2009 C2017 0.930 . S
H2010 C2018 0.930 . S
H2011 C2019 0.930 . S
H2012 C2022 0.930 . S
H2013 C2023 0.930 . S
C2014 H2008 0.930 . S
C2014 C2015 1.355 . S
C2014 C2016 1.415 . S
C2015 C2014 1.355 . S
C2015 C2017 1.419 . S
C2016 C2014 1.415 . S
C2016 C2021 1.425 . S
C2016 C2023 1.409 . S
C2017 H2009 0.930 . S
C2017 C2015 1.419 . S
C2017 C2018 1.362 . S
C2018 H2010 0.930 . S
C2018 C2017 1.362 . S
C2018 C2021 1.409 . S
C2019 H2011 0.930 . S
C2019 C2020 1.355 . S
C2019 C2021 1.415 . S
C2020 C2019 1.355 . S
C2020 C2022 1.419 . S
C2021 C2016 1.425 . S
C2021 C2018 1.409 . S
C2021 C2019 1.415 . S
C2022 H2012 0.930 . S
C2022 C2020 1.419 . S
C2022 C2023 1.362 . S
C2023 H2013 0.930 . S
C2023 C2016 1.409 . S
C2023 C2022 1.362 . S
H2024 C2030 0.930 . S
H2025 C2033 0.930 1_455 S
H2026 C2034 0.935 . S
H2027 C2035 0.908 1_455 S
H2028 C2038 0.930 . S
H2029 C2039 0.930 . S
C2030 H2024 0.930 . S
C2030 C2031 1.355 . S
C2030 C2032 1.415 . S
C2031 C2030 1.355 . S
C2031 C2033 1.419 . S
C2032 C2030 1.415 . S
C2032 C2037 1.425 . S
C2032 C2039 1.409 . S
C2033 H2025 0.930 1_655 S
C2033 C2031 1.419 . S
C2033 C2034 1.365 1_655 S
C2034 H2026 0.935 . S
C2034 C2033 1.365 1_455 S
C2034 C2037 1.401 1_455 S
C2035 H2027 0.908 1_655 S
C2035 C2036 1.355 . S
C2035 C2037 1.415 . S
C2036 C2035 1.355 . S
C2036 C2038 1.419 . S
C2037 C2032 1.425 . S
C2037 C2034 1.401 1_655 S
C2037 C2035 1.415 . S
C2038 H2028 0.930 . S
C2038 C2036 1.419 . S
C2038 C2039 1.362 . S
C2039 H2029 0.930 . S
C2039 C2032 1.409 . S
C2039 C2038 1.362 . S
H2040 C2046 0.930 . S
H2041 C2049 0.930 . S
H2042 C2050 0.930 1_545 S
H2043 C2051 0.930 . S
H2044 C2054 0.930 . S
H2045 C2055 0.930 . S
C2046 H2040 0.930 . S
C2046 C2047 1.355 . S
C2046 C2048 1.415 . S
C2047 C2046 1.355 . S
C2047 C2049 1.419 . S
C2048 C2046 1.415 . S
C2048 C2053 1.425 . S
C2048 C2055 1.409 . S
C2049 H2041 0.930 . S
C2049 C2047 1.419 . S
C2049 C2050 1.362 . S
C2050 H2042 0.930 1_565 S
C2050 C2049 1.362 . S
C2050 C2053 1.409 . S
C2051 H2043 0.930 . S
C2051 C2052 1.355 . S
C2051 C2053 1.415 . S
C2052 C2051 1.355 . S
C2052 C2054 1.419 . S
C2053 C2048 1.425 . S
C2053 C2050 1.409 . S
C2053 C2051 1.415 . S
C2054 H2044 0.930 . S
C2054 C2052 1.419 . S
C2054 C2055 1.362 . S
C2055 H2045 0.930 . S
C2055 C2048 1.409 . S
C2055 C2054 1.362 . S
H2056 C2062 0.930 . S
H2057 C2065 0.930 . S
H2058 C2066 0.930 . S
H2059 C2067 0.930 . S
H2060 C2070 0.930 . S
H2061 C2071 0.930 . S
C2062 H2056 0.930 . S
C2062 C2063 1.355 . S
C2062 C2064 1.415 . S
C2063 C2062 1.355 . S
C2063 C2065 1.419 . S
C2064 C2062 1.415 . S
C2064 C2069 1.425 . S
C2064 C2071 1.409 . S
C2065 H2057 0.930 . S
C2065 C2063 1.419 . S
C2065 C2066 1.362 . S
C2066 H2058 0.930 . S
C2066 C2065 1.362 . S
C2066 C2069 1.409 . S
C2067 H2059 0.930 . S
C2067 C2068 1.355 . S
C2067 C2069 1.415 . S
C2068 C2067 1.355 . S
C2068 C2070 1.419 . S
C2069 C2064 1.425 . S
C2069 C2066 1.409 . S
C2069 C2067 1.415 . S
C2070 H2060 0.930 . S
C2070 C2068 1.419 . S
C2070 C2071 1.362 . S
C2071 H2061 0.930 . S
C2071 C2064 1.409 . S
C2071 C2070 1.362 . S
H2072 C2078 0.930 . S
H2073 C2081 0.930 1_655 S
H2074 C2082 0.930 1_655 S
H2075 C2083 0.932 . S
H2076 C2086 0.930 . S
H2077 C2087 0.930 . S
C2078 H2072 0.930 . S
C2078 C2079 1.355 . S
C2078 C2080 1.415 . S
C2079 C2078 1.355 . S
C2079 C2081 1.419 . S
C2080 C2078 1.415 . S
C2080 C2085 1.425 . S
C2080 C2087 1.409 . S
C2081 H2073 0.930 1_455 S
C2081 C2079 1.419 . S
C2081 C2082 1.362 . S
C2082 H2074 0.930 1_455 S
C2082 C2081 1.362 . S
C2082 C2085 1.409 . S
C2083 H2075 0.932 . S
C2083 C2084 1.355 . S
C2083 C2085 1.415 . S
C2084 C2083 1.355 . S
C2084 C2086 1.419 . S
C2085 C2080 1.425 . S
C2085 C2082 1.409 . S
C2085 C2083 1.415 . S
C2086 H2076 0.930 . S
C2086 C2084 1.419 . S
C2086 C2087 1.362 . S
C2087 H2077 0.930 . S
C2087 C2080 1.409 . S
C2087 C2086 1.362 . S
H2088 C2094 0.918 1_455 S
H2089 C2097 0.930 . S
H2090 C2098 0.930 . S
H2091 C2099 0.930 . S
H2092 C2102 0.930 1_455 S
H2093 C2103 0.927 . S
C2094 H2088 0.918 1_655 S
C2094 C2095 1.355 . S
C2094 C2096 1.415 . S
C2095 C2094 1.355 . S
C2095 C2097 1.419 . S
C2096 C2094 1.415 . S
C2096 C2101 1.425 . S
C2096 C2103 1.414 1_655 S
C2097 H2089 0.930 . S
C2097 C2095 1.419 . S
C2097 C2098 1.362 . S
C2098 H2090 0.930 . S
C2098 C2097 1.362 . S
C2098 C2101 1.409 . S
C2099 H2091 0.930 . S
C2099 C2100 1.355 . S
C2099 C2101 1.415 . S
C2100 C2099 1.355 . S
C2100 C2102 1.419 . S
C2101 C2096 1.425 . S
C2101 C2098 1.409 . S
C2101 C2099 1.415 . S
C2102 H2092 0.930 1_655 S
C2102 C2100 1.419 . S
C2102 C2103 1.361 1_655 S
C2103 H2093 0.927 . S
C2103 C2096 1.414 1_455 S
C2103 C2102 1.361 1_455 S
H2104 C2110 0.930 . S
H2105 C2113 0.930 . S
H2106 C2114 0.930 . S
H2107 C2115 0.930 . S
H2108 C2118 0.930 . S
H2109 C2119 0.930 . S
C2110 H2104 0.930 . S
C2110 C2111 1.355 . S
C2110 C2112 1.415 . S
C2111 C2110 1.355 . S
C2111 C2113 1.419 . S
C2112 C2110 1.415 . S
C2112 C2117 1.425 . S
C2112 C2119 1.409 . S
C2113 H2105 0.930 . S
C2113 C2111 1.419 . S
C2113 C2114 1.362 . S
C2114 H2106 0.930 . S
C2114 C2113 1.362 . S
C2114 C2117 1.409 . S
C2115 H2107 0.930 . S
C2115 C2116 1.355 . S
C2115 C2117 1.415 . S
C2116 C2115 1.355 . S
C2116 C2118 1.419 . S
C2117 C2112 1.425 . S
C2117 C2114 1.409 . S
C2117 C2115 1.415 . S
C2118 H2108 0.930 . S
C2118 C2116 1.419 . S
C2118 C2119 1.362 . S
C2119 H2109 0.930 . S
C2119 C2112 1.409 . S
C2119 C2118 1.362 . S
H2120 C2126 0.930 . S
H2121 C2129 0.930 . S
H2122 C2130 0.930 . S
H2123 C2131 0.930 . S
H2124 C2134 0.930 . S
H2125 C2135 0.930 . S
C2126 H2120 0.930 . S
C2126 C2127 1.355 . S
C2126 C2128 1.415 . S
C2127 C2126 1.355 . S
C2127 C2129 1.419 . S
C2128 C2126 1.415 . S
C2128 C2133 1.425 . S
C2128 C2135 1.409 . S
C2129 H2121 0.930 . S
C2129 C2127 1.419 . S
C2129 C2130 1.362 . S
C2130 H2122 0.930 . S
C2130 C2129 1.362 . S
C2130 C2133 1.409 . S
C2131 H2123 0.930 . S
C2131 C2132 1.355 . S
C2131 C2133 1.415 . S
C2132 C2131 1.355 . S
C2132 C2134 1.419 . S
C2133 C2128 1.425 . S
C2133 C2130 1.409 . S
C2133 C2131 1.415 . S
C2134 H2124 0.930 . S
C2134 C2132 1.419 . S
C2134 C2135 1.362 . S
C2135 H2125 0.930 . S
C2135 C2128 1.409 . S
C2135 C2134 1.362 . S
H2136 C2142 0.903 1_655 S
H2137 C2145 0.930 . S
H2138 C2146 0.930 . S
H2139 C2147 0.930 . S
H2140 C2150 0.930 1_655 S
H2141 C2151 0.903 1_655 S
C2142 H2136 0.903 1_455 S
C2142 C2143 1.355 . S
C2142 C2144 1.415 . S
C2143 C2142 1.355 . S
C2143 C2145 1.419 . S
C2144 C2142 1.415 . S
C2144 C2149 1.425 . S
C2144 C2151 1.453 . S
C2145 H2137 0.930 . S
C2145 C2143 1.419 . S
C2145 C2146 1.362 . S
C2146 H2138 0.930 . S
C2146 C2145 1.362 . S
C2146 C2149 1.409 . S
C2147 H2139 0.930 . S
C2147 C2148 1.355 . S
C2147 C2149 1.415 . S
C2148 C2147 1.355 . S
C2148 C2150 1.419 . S
C2149 C2144 1.425 . S
C2149 C2146 1.409 . S
C2149 C2147 1.415 . S
C2150 H2140 0.930 1_455 S
C2150 C2148 1.419 . S
C2150 C2151 1.347 . S
C2151 H2141 0.903 1_455 S
C2151 C2144 1.453 . S
C2151 C2150 1.347 . S
H2152 C2158 0.919 1_565 S
H2153 C2161 0.930 . S
H2154 C2162 0.930 . S
H2155 C2163 0.930 . S
H2156 C2166 0.930 1_565 S
H2157 C2167 0.930 1_565 S
C2158 H2152 0.919 1_545 S
C2158 C2159 1.355 . S
C2158 C2160 1.415 . S
C2159 C2158 1.355 . S
C2159 C2161 1.419 . S
C2160 C2158 1.415 . S
C2160 C2165 1.425 . S
C2160 C2167 1.409 . S
C2161 H2153 0.930 . S
C2161 C2159 1.419 . S
C2161 C2162 1.362 . S
C2162 H2154 0.930 . S
C2162 C2161 1.362 . S
C2162 C2165 1.409 . S
C2163 H2155 0.930 . S
C2163 C2164 1.355 . S
C2163 C2165 1.415 . S
C2164 C2163 1.355 . S
C2164 C2166 1.419 . S
C2165 C2160 1.425 . S
C2165 C2162 1.409 . S
C2165 C2163 1.415 . S
C2166 H2156 0.930 1_545 S
C2166 C2164 1.419 . S
C2166 C2167 1.362 . S
C2167 H2157 0.930 1_545 S
C2167 C2160 1.409 . S
C2167 C2166 1.362 . S
H2168 C2174 0.930 . S
H2169 C2177 0.930 . S
H2170 C2178 0.930 . S
H2171 C2179 0.930 . S
H2172 C2182 0.930 . S
H2173 C2183 0.930 . S
C2174 H2168 0.930 . S
C2174 C2175 1.355 . S
C2174 C2176 1.415 . S
C2175 C2174 1.355 . S
C2175 C2177 1.419 . S
C2176 C2174 1.415 . S
C2176 C2181 1.425 . S
C2176 C2183 1.409 . S
C2177 H2169 0.930 . S
C2177 C2175 1.419 . S
C2177 C2178 1.362 . S
C2178 H2170 0.930 . S
C2178 C2177 1.362 . S
C2178 C2181 1.409 . S
C2179 H2171 0.930 . S
C2179 C2180 1.355 . S
C2179 C2181 1.415 . S
C2180 C2179 1.355 . S
C2180 C2182 1.419 . S
C2181 C2176 1.425 . S
C2181 C2178 1.409 . S
C2181 C2179 1.415 . S
C2182 H2172 0.930 . S
C2182 C2180 1.419 . S
C2182 C2183 1.362 . S
C2183 H2173 0.930 . S
C2183 C2176 1.409 . S
C2183 C2182 1.362 . S
C1423 C937 1.337 . S
C1428 C52 1.302 . S
C1439 C111 1.338 . S
C1444 C996 1.302 . S
C1455 C170 1.331 . S
C1460 C1055 1.309 . S
C1471 C229 1.307 . S
C1476 C760 1.333 . S
C1487 C819 1.317 . S
C1492 C288 1.322 . S
C1503 C347 1.325 . S
C1508 C878 1.315 . S
C1519 C1291 1.323 . S
C1524 C406 1.317 . S
C1535 C465 1.337 . S
C1540 C1350 1.303 . S
C1551 C524 1.309 . S
C1556 C1409 1.331 . S
C1567 C1114 1.332 . S
C1572 C583 1.308 . S
C1583 C642 1.310 . S
C1588 C1173 1.330 . S
C1599 C1232 1.309 . S
C1604 C701 1.331 . S
C1615 C3 1.704 . S
C1620 C1360 1.705 . S
C1631 C1065 1.719 . S
C1636 C62 1.690 . S
C1647 C121 1.714 . S
C1652 C1124 1.695 . S
C1663 C1183 1.722 . S
C1668 C180 1.687 . S
C1679 C239 1.690 . S
C1684 C1242 1.719 . S
C1695 C1301 1.709 . S
C1700 C298 1.700 . S
C1711 C357 1.694 . S
C1716 C770 1.715 . S
C1727 C829 1.720 . S
C1732 C416 1.689 . S
C1743 C888 1.715 . S
C1748 C475 1.694 . S
C1759 C947 1.696 . S
C1764 C534 1.713 . S
C1775 C593 1.692 . S
C1780 C1006 1.716 . S
C1791 C652 1.701 . S
C1796 C711 1.708 . S
C1807 C418 1.432 . S
C1812 C5 1.400 . S
C1823 C477 1.381 . S
C1828 C64 1.399 . S
C1839 C536 1.392 . S
C1844 C123 1.382 . S
C1855 C595 1.437 . S
C1860 C182 1.413 . S
C1871 C241 1.424 . S
C1876 C654 1.436 . S
C1887 C300 1.432 . S
C1892 C359 1.401 . S
C1903 C713 1.383 . S
C1908 C1126 1.391 . S
C1919 C772 1.386 . S
C1924 C1185 1.386 . S
C1935 C1244 1.408 . S
C1940 C831 1.382 . S
C1951 C1303 1.437 . S
C1956 C890 1.422 . S
C1967 C1362 1.426 . S
C1972 C949 1.436 . S
C1983 C1067 1.437 . S
C1988 C1008 1.414 . S
C1999 C33 1.803 . S
C2004 C1154 1.792 . S
C2015 C1213 1.802 . S
C2020 C92 1.793 . S
C2031 C151 1.804 . S
C2036 C1272 1.791 . S
C2047 C1331 1.802 . S
C2052 C210 1.793 . S
C2063 C269 1.800 . S
C2068 C1390 1.795 . S
C2079 C1095 1.805 . S
C2084 C328 1.791 . S
C2095 C387 1.791 . S
C2100 C1036 1.804 . S
C2111 C741 1.794 . S
C2116 C446 1.801 . S
C2127 C505 1.804 . S
C2132 C800 1.791 . S
C2143 C564 1.794 . S
C2148 C859 1.801 . S
C2159 C623 1.794 . S
C2164 C918 1.801 . S
C2175 C682 1.798 . S
C2180 C977 1.797 . S
