# Generated by pormake.
# Topology wio, (6)-cn, num edge types: 1
# Building blocks:
#     Node 0, Type 0, BuildingBlock: PAMTUU_clean_sbu_0, # of connection points: 6
#     Node 1, Type 0, BuildingBlock: PAMTUU_clean_sbu_0, # of connection points: 6
#     Node 2, Type 0, BuildingBlock: PAMTUU_clean_sbu_0, # of connection points: 6
#     Node 3, Type 0, BuildingBlock: PAMTUU_clean_sbu_0, # of connection points: 6
#     Node 4, Type 0, BuildingBlock: PAMTUU_clean_sbu_0, # of connection points: 6
#     Node 5, Type 0, BuildingBlock: PAMTUU_clean_sbu_0, # of connection points: 6
#     Node 6, Type 0, BuildingBlock: PAMTUU_clean_sbu_0, # of connection points: 6
#     Node 7, Type 0, BuildingBlock: PAMTUU_clean_sbu_0, # of connection points: 6
#     Node 8, Type 0, BuildingBlock: PAMTUU_clean_sbu_0, # of connection points: 6
#     Node 9, Type 0, BuildingBlock: PAMTUU_clean_sbu_0, # of connection points: 6
#     Node 10, Type 0, BuildingBlock: PAMTUU_clean_sbu_0, # of connection points: 6
#     Node 11, Type 0, BuildingBlock: PAMTUU_clean_sbu_0, # of connection points: 6
#     Node 12, Type 0, BuildingBlock: PAMTUU_clean_sbu_0, # of connection points: 6
#     Node 13, Type 0, BuildingBlock: PAMTUU_clean_sbu_0, # of connection points: 6
#     Node 14, Type 0, BuildingBlock: PAMTUU_clean_sbu_0, # of connection points: 6
#     Node 15, Type 0, BuildingBlock: PAMTUU_clean_sbu_0, # of connection points: 6
#     Node 16, Type 0, BuildingBlock: PAMTUU_clean_sbu_0, # of connection points: 6
#     Node 17, Type 0, BuildingBlock: PAMTUU_clean_sbu_0, # of connection points: 6
#     Node 18, Type 0, BuildingBlock: PAMTUU_clean_sbu_0, # of connection points: 6
#     Node 19, Type 0, BuildingBlock: PAMTUU_clean_sbu_0, # of connection points: 6
#     Node 20, Type 0, BuildingBlock: PAMTUU_clean_sbu_0, # of connection points: 6
#     Node 21, Type 0, BuildingBlock: PAMTUU_clean_sbu_0, # of connection points: 6
#     Node 22, Type 0, BuildingBlock: PAMTUU_clean_sbu_0, # of connection points: 6
#     Node 23, Type 0, BuildingBlock: PAMTUU_clean_sbu_0, # of connection points: 6
#     Node 24, Type 0, BuildingBlock: PAMTUU_clean_sbu_0, # of connection points: 6
#     Node 25, Type 0, BuildingBlock: PAMTUU_clean_sbu_0, # of connection points: 6
#     Node 26, Type 0, BuildingBlock: PAMTUU_clean_sbu_0, # of connection points: 6
#     Node 27, Type 0, BuildingBlock: PAMTUU_clean_sbu_0, # of connection points: 6
#     Node 28, Type 0, BuildingBlock: PAMTUU_clean_sbu_0, # of connection points: 6
#     Node 29, Type 0, BuildingBlock: PAMTUU_clean_sbu_0, # of connection points: 6
#     Node 30, Type 0, BuildingBlock: PAMTUU_clean_sbu_0, # of connection points: 6
#     Node 31, Type 0, BuildingBlock: PAMTUU_clean_sbu_0, # of connection points: 6
#     Edge 32, Type (0, 0), BuildingBlock: AJUNOK_clean_linker_0, # of connection points: 2
#     Edge 33, Type (0, 0), BuildingBlock: AJUNOK_clean_linker_0, # of connection points: 2
#     Edge 34, Type (0, 0), BuildingBlock: AJUNOK_clean_linker_0, # of connection points: 2
#     Edge 35, Type (0, 0), BuildingBlock: AJUNOK_clean_linker_0, # of connection points: 2
#     Edge 36, Type (0, 0), BuildingBlock: AJUNOK_clean_linker_0, # of connection points: 2
#     Edge 37, Type (0, 0), BuildingBlock: AJUNOK_clean_linker_0, # of connection points: 2
#     Edge 38, Type (0, 0), BuildingBlock: AJUNOK_clean_linker_0, # of connection points: 2
#     Edge 39, Type (0, 0), BuildingBlock: AJUNOK_clean_linker_0, # of connection points: 2
#     Edge 40, Type (0, 0), BuildingBlock: AJUNOK_clean_linker_0, # of connection points: 2
#     Edge 41, Type (0, 0), BuildingBlock: AJUNOK_clean_linker_0, # of connection points: 2
#     Edge 42, Type (0, 0), BuildingBlock: AJUNOK_clean_linker_0, # of connection points: 2
#     Edge 43, Type (0, 0), BuildingBlock: AJUNOK_clean_linker_0, # of connection points: 2
#     Edge 44, Type (0, 0), BuildingBlock: AJUNOK_clean_linker_0, # of connection points: 2
#     Edge 45, Type (0, 0), BuildingBlock: AJUNOK_clean_linker_0, # of connection points: 2
#     Edge 46, Type (0, 0), BuildingBlock: AJUNOK_clean_linker_0, # of connection points: 2
#     Edge 47, Type (0, 0), BuildingBlock: AJUNOK_clean_linker_0, # of connection points: 2
#     Edge 48, Type (0, 0), BuildingBlock: AJUNOK_clean_linker_0, # of connection points: 2
#     Edge 49, Type (0, 0), BuildingBlock: AJUNOK_clean_linker_0, # of connection points: 2
#     Edge 50, Type (0, 0), BuildingBlock: AJUNOK_clean_linker_0, # of connection points: 2
#     Edge 51, Type (0, 0), BuildingBlock: AJUNOK_clean_linker_0, # of connection points: 2
#     Edge 52, Type (0, 0), BuildingBlock: AJUNOK_clean_linker_0, # of connection points: 2
#     Edge 53, Type (0, 0), BuildingBlock: AJUNOK_clean_linker_0, # of connection points: 2
#     Edge 54, Type (0, 0), BuildingBlock: AJUNOK_clean_linker_0, # of connection points: 2
#     Edge 55, Type (0, 0), BuildingBlock: AJUNOK_clean_linker_0, # of connection points: 2
#     Edge 56, Type (0, 0), BuildingBlock: AJUNOK_clean_linker_0, # of connection points: 2
#     Edge 57, Type (0, 0), BuildingBlock: AJUNOK_clean_linker_0, # of connection points: 2
#     Edge 58, Type (0, 0), BuildingBlock: AJUNOK_clean_linker_0, # of connection points: 2
#     Edge 59, Type (0, 0), BuildingBlock: AJUNOK_clean_linker_0, # of connection points: 2
#     Edge 60, Type (0, 0), BuildingBlock: AJUNOK_clean_linker_0, # of connection points: 2
#     Edge 61, Type (0, 0), BuildingBlock: AJUNOK_clean_linker_0, # of connection points: 2
#     Edge 62, Type (0, 0), BuildingBlock: AJUNOK_clean_linker_0, # of connection points: 2
#     Edge 63, Type (0, 0), BuildingBlock: AJUNOK_clean_linker_0, # of connection points: 2
#     Edge 64, Type (0, 0), BuildingBlock: AJUNOK_clean_linker_0, # of connection points: 2
#     Edge 65, Type (0, 0), BuildingBlock: AJUNOK_clean_linker_0, # of connection points: 2
#     Edge 66, Type (0, 0), BuildingBlock: AJUNOK_clean_linker_0, # of connection points: 2
#     Edge 67, Type (0, 0), BuildingBlock: AJUNOK_clean_linker_0, # of connection points: 2
#     Edge 68, Type (0, 0), BuildingBlock: AJUNOK_clean_linker_0, # of connection points: 2
#     Edge 69, Type (0, 0), BuildingBlock: AJUNOK_clean_linker_0, # of connection points: 2
#     Edge 70, Type (0, 0), BuildingBlock: AJUNOK_clean_linker_0, # of connection points: 2
#     Edge 71, Type (0, 0), BuildingBlock: AJUNOK_clean_linker_0, # of connection points: 2
#     Edge 72, Type (0, 0), BuildingBlock: AJUNOK_clean_linker_0, # of connection points: 2
#     Edge 73, Type (0, 0), BuildingBlock: AJUNOK_clean_linker_0, # of connection points: 2
#     Edge 74, Type (0, 0), BuildingBlock: AJUNOK_clean_linker_0, # of connection points: 2
#     Edge 75, Type (0, 0), BuildingBlock: AJUNOK_clean_linker_0, # of connection points: 2
#     Edge 76, Type (0, 0), BuildingBlock: AJUNOK_clean_linker_0, # of connection points: 2
#     Edge 77, Type (0, 0), BuildingBlock: AJUNOK_clean_linker_0, # of connection points: 2
#     Edge 78, Type (0, 0), BuildingBlock: AJUNOK_clean_linker_0, # of connection points: 2
#     Edge 79, Type (0, 0), BuildingBlock: AJUNOK_clean_linker_0, # of connection points: 2
#     Edge 80, Type (0, 0), BuildingBlock: AJUNOK_clean_linker_0, # of connection points: 2
#     Edge 81, Type (0, 0), BuildingBlock: AJUNOK_clean_linker_0, # of connection points: 2
#     Edge 82, Type (0, 0), BuildingBlock: AJUNOK_clean_linker_0, # of connection points: 2
#     Edge 83, Type (0, 0), BuildingBlock: AJUNOK_clean_linker_0, # of connection points: 2
#     Edge 84, Type (0, 0), BuildingBlock: AJUNOK_clean_linker_0, # of connection points: 2
#     Edge 85, Type (0, 0), BuildingBlock: AJUNOK_clean_linker_0, # of connection points: 2
#     Edge 86, Type (0, 0), BuildingBlock: AJUNOK_clean_linker_0, # of connection points: 2
#     Edge 87, Type (0, 0), BuildingBlock: AJUNOK_clean_linker_0, # of connection points: 2
#     Edge 88, Type (0, 0), BuildingBlock: AJUNOK_clean_linker_0, # of connection points: 2
#     Edge 89, Type (0, 0), BuildingBlock: AJUNOK_clean_linker_0, # of connection points: 2
#     Edge 90, Type (0, 0), BuildingBlock: AJUNOK_clean_linker_0, # of connection points: 2
#     Edge 91, Type (0, 0), BuildingBlock: AJUNOK_clean_linker_0, # of connection points: 2
#     Edge 92, Type (0, 0), BuildingBlock: AJUNOK_clean_linker_0, # of connection points: 2
#     Edge 93, Type (0, 0), BuildingBlock: AJUNOK_clean_linker_0, # of connection points: 2
#     Edge 94, Type (0, 0), BuildingBlock: AJUNOK_clean_linker_0, # of connection points: 2
#     Edge 95, Type (0, 0), BuildingBlock: AJUNOK_clean_linker_0, # of connection points: 2
#     Edge 96, Type (0, 0), BuildingBlock: AJUNOK_clean_linker_0, # of connection points: 2
#     Edge 97, Type (0, 0), BuildingBlock: AJUNOK_clean_linker_0, # of connection points: 2
#     Edge 98, Type (0, 0), BuildingBlock: AJUNOK_clean_linker_0, # of connection points: 2
#     Edge 99, Type (0, 0), BuildingBlock: AJUNOK_clean_linker_0, # of connection points: 2
#     Edge 100, Type (0, 0), BuildingBlock: AJUNOK_clean_linker_0, # of connection points: 2
#     Edge 101, Type (0, 0), BuildingBlock: AJUNOK_clean_linker_0, # of connection points: 2
#     Edge 102, Type (0, 0), BuildingBlock: AJUNOK_clean_linker_0, # of connection points: 2
#     Edge 103, Type (0, 0), BuildingBlock: AJUNOK_clean_linker_0, # of connection points: 2
#     Edge 104, Type (0, 0), BuildingBlock: AJUNOK_clean_linker_0, # of connection points: 2
#     Edge 105, Type (0, 0), BuildingBlock: AJUNOK_clean_linker_0, # of connection points: 2
#     Edge 106, Type (0, 0), BuildingBlock: AJUNOK_clean_linker_0, # of connection points: 2
#     Edge 107, Type (0, 0), BuildingBlock: AJUNOK_clean_linker_0, # of connection points: 2
#     Edge 108, Type (0, 0), BuildingBlock: AJUNOK_clean_linker_0, # of connection points: 2
#     Edge 109, Type (0, 0), BuildingBlock: AJUNOK_clean_linker_0, # of connection points: 2
#     Edge 110, Type (0, 0), BuildingBlock: AJUNOK_clean_linker_0, # of connection points: 2
#     Edge 111, Type (0, 0), BuildingBlock: AJUNOK_clean_linker_0, # of connection points: 2
#     Edge 112, Type (0, 0), BuildingBlock: AJUNOK_clean_linker_0, # of connection points: 2
#     Edge 113, Type (0, 0), BuildingBlock: AJUNOK_clean_linker_0, # of connection points: 2
#     Edge 114, Type (0, 0), BuildingBlock: AJUNOK_clean_linker_0, # of connection points: 2
#     Edge 115, Type (0, 0), BuildingBlock: AJUNOK_clean_linker_0, # of connection points: 2
#     Edge 116, Type (0, 0), BuildingBlock: AJUNOK_clean_linker_0, # of connection points: 2
#     Edge 117, Type (0, 0), BuildingBlock: AJUNOK_clean_linker_0, # of connection points: 2
#     Edge 118, Type (0, 0), BuildingBlock: AJUNOK_clean_linker_0, # of connection points: 2
#     Edge 119, Type (0, 0), BuildingBlock: AJUNOK_clean_linker_0, # of connection points: 2
#     Edge 120, Type (0, 0), BuildingBlock: AJUNOK_clean_linker_0, # of connection points: 2
#     Edge 121, Type (0, 0), BuildingBlock: AJUNOK_clean_linker_0, # of connection points: 2
#     Edge 122, Type (0, 0), BuildingBlock: AJUNOK_clean_linker_0, # of connection points: 2
#     Edge 123, Type (0, 0), BuildingBlock: AJUNOK_clean_linker_0, # of connection points: 2
#     Edge 124, Type (0, 0), BuildingBlock: AJUNOK_clean_linker_0, # of connection points: 2
#     Edge 125, Type (0, 0), BuildingBlock: AJUNOK_clean_linker_0, # of connection points: 2
#     Edge 126, Type (0, 0), BuildingBlock: AJUNOK_clean_linker_0, # of connection points: 2
#     Edge 127, Type (0, 0), BuildingBlock: AJUNOK_clean_linker_0, # of connection points: 2
# Relax obj value: 0.205
# Max RMSD: 0.251
# Mean RMSD: 0.251
data_MOF--net-wio--node1-PAMTUU_clean_sbu_0--edge1-AJUNOK_clean_linker_0
_symmetry_space_group_name_H-M    P1
_symmetry_Int_Tables_number       1
_symmetry_cell_setting            triclinic
loop_
_symmetry_equiv_pos_as_xyz
'x, y, z'
_cell_length_a     48.89936
_cell_length_b     48.887593
_cell_length_c     42.092667
_cell_angle_alpha  89.987747
_cell_angle_beta   89.995855
_cell_angle_gamma 90.041703
loop_
_atom_site_label
_atom_site_type_symbol
_atom_site_fract_x
_atom_site_fract_y
_atom_site_fract_z
_atom_type_partial_charge
Tb0 Tb 0.09589 0.12129 0.30223 0.0
Tb1 Tb 0.16322 0.12125 0.29408 0.0
C2 C 0.12907 0.0673 0.28478 0.0
C3 C 0.02789 0.12576 0.34081 0.0
C4 C 0.99684 0.12964 0.39737 0.0
C5 C 0.99116 0.10919 0.37482 0.0
C6 C 1.00653 0.10729 0.34685 0.0
C7 C 0.0336 0.14624 0.36331 0.0
C8 C 0.0181 0.14827 0.39122 0.0
C9 C 0.04482 0.12226 0.31194 0.0
O10 O 0.11153 0.11122 0.34925 0.0
O11 O 0.15555 0.09792 0.33693 0.0
O12 O 0.15392 0.15019 0.33154 0.0
O13 O 0.11021 0.16153 0.31765 0.0
O14 O 0.20137 0.10197 0.28919 0.0
O15 O 0.19828 0.14589 0.2918 0.0
O16 O 0.14669 0.14076 0.25157 0.0
O17 O 0.10368 0.12219 0.25089 0.0
O18 O 0.10754 0.07868 0.29792 0.0
O19 O 0.15033 0.08169 0.27512 0.0
C20 C 0.13438 0.09829 0.35621 0.0
O21 O 0.05883 0.14329 0.30197 0.0
O22 O 0.05932 0.10001 0.3111 0.0
C23 C 0.13276 0.16645 0.33361 0.0
C24 C 0.23408 0.12781 0.26142 0.0
C25 C 0.27227 0.13149 0.21179 0.0
C26 C 0.28114 0.13083 0.24349 0.0
C27 C 0.26212 0.12892 0.26816 0.0
C28 C 0.22508 0.12929 0.22986 0.0
C29 C 0.24407 0.13119 0.2052 0.0
C30 C 0.2145 0.12511 0.28752 0.0
C31 C 0.12454 0.13352 0.23604 0.0
H32 H 0.97455 0.09488 0.37861 0.0
H33 H 1.00181 0.09125 0.32995 0.0
H34 H 0.05011 0.16058 0.35944 0.0
H35 H 0.02289 0.16426 0.40815 0.0
H36 H 0.30276 0.13098 0.24909 0.0
H37 H 0.26931 0.12796 0.29249 0.0
H38 H 0.20343 0.12872 0.22434 0.0
H39 H 0.23676 0.1321 0.18092 0.0
Tb40 Tb 0.14379 0.84532 0.5508 0.0
Tb41 Tb 0.1478 0.91243 0.54349 0.0
C42 C 0.19955 0.87543 0.53442 0.0
C43 C 0.13729 0.77728 0.58925 0.0
C44 C 0.13565 0.7441 0.64437 0.0
C45 C 0.1528 0.76719 0.64301 0.0
C46 C 0.15359 0.78364 0.61576 0.0
C47 C 0.11982 0.75453 0.59074 0.0
C48 C 0.11894 0.73815 0.61805 0.0
C49 C 0.13792 0.79443 0.56026 0.0
O50 O 0.15606 0.85967 0.59783 0.0
O51 O 0.17077 0.90353 0.58616 0.0
O52 O 0.11922 0.9042 0.58156 0.0
O53 O 0.10422 0.863 0.56368 0.0
O54 O 0.16929 0.94924 0.53718 0.0
O55 O 0.12544 0.94901 0.54268 0.0
O56 O 0.12599 0.8972 0.50193 0.0
O57 O 0.14264 0.85352 0.49953 0.0
O58 O 0.18726 0.85461 0.54814 0.0
O59 O 0.18587 0.89672 0.52359 0.0
C60 C 0.16971 0.88212 0.60505 0.0
O61 O 0.11765 0.81136 0.55673 0.0
O62 O 0.16111 0.806 0.55325 0.0
C63 C 0.10105 0.88462 0.58179 0.0
C64 C 0.14425 0.98368 0.51113 0.0
C65 C 0.13875 0.02248 0.46233 0.0
C66 C 0.13741 0.03063 0.49427 0.0
C67 C 0.14016 0.01132 0.51851 0.0
C68 C 0.14525 0.97536 0.47928 0.0
C69 C 0.14265 0.99468 0.45502 0.0
C70 C 0.14701 0.96384 0.53697 0.0
C71 C 0.13174 0.87504 0.4856 0.0
H72 H 0.16557 0.77257 0.66307 0.0
H73 H 0.16701 0.80127 0.6154 0.0
H74 H 0.10693 0.74936 0.57069 0.0
H75 H 0.10557 0.72047 0.61836 0.0
H76 H 0.1348 0.05198 0.50045 0.0
H77 H 0.13925 0.01799 0.54304 0.0
H78 H 0.14815 0.954 0.47324 0.0
H79 H 0.14366 0.98795 0.43052 0.0
Tb80 Tb 0.42072 0.89448 0.80221 0.0
Tb81 Tb 0.35339 0.89457 0.79471 0.0
C82 C 0.38745 0.9488 0.78671 0.0
C83 C 0.48944 0.88876 0.83932 0.0
C84 C 0.52286 0.88676 0.89407 0.0
C85 C 0.53377 0.89466 0.86454 0.0
C86 C 0.51723 0.89559 0.83743 0.0
C87 C 0.47847 0.88058 0.86873 0.0
C88 C 0.49514 0.8793 0.89583 0.0
C89 C 0.47197 0.89159 0.81089 0.0
O90 O 0.40577 0.90583 0.84933 0.0
O91 O 0.36092 0.91707 0.83784 0.0
O92 O 0.36288 0.86638 0.83284 0.0
O93 O 0.40538 0.85426 0.81596 0.0
O94 O 0.31547 0.91408 0.78896 0.0
O95 O 0.31814 0.87018 0.79281 0.0
O96 O 0.37026 0.87406 0.75324 0.0
O97 O 0.41243 0.89412 0.75094 0.0
O98 O 0.4092 0.93718 0.79912 0.0
O99 O 0.36629 0.93448 0.7766 0.0
C100 C 0.38246 0.91795 0.85644 0.0
O101 O 0.45664 0.87074 0.80359 0.0
O102 O 0.45846 0.91439 0.8087 0.0
C103 C 0.38399 0.85001 0.83409 0.0
C104 C 0.28267 0.88806 0.76169 0.0
C105 C 0.24459 0.8832 0.71208 0.0
C106 C 0.23564 0.88584 0.74363 0.0
C107 C 0.2546 0.88822 0.76827 0.0
C108 C 0.29176 0.88517 0.73029 0.0
C109 C 0.27281 0.88279 0.70562 0.0
C110 C 0.30215 0.89103 0.78782 0.0
C111 C 0.39179 0.88174 0.73689 0.0
H112 H 0.55513 0.9003 0.8625 0.0
H113 H 0.52606 0.90206 0.81504 0.0
H114 H 0.45696 0.87564 0.87081 0.0
H115 H 0.48621 0.87326 0.91832 0.0
H116 H 0.21403 0.88675 0.74915 0.0
H117 H 0.24735 0.8905 0.79246 0.0
H118 H 0.31343 0.88496 0.72489 0.0
H119 H 0.28019 0.88075 0.68146 0.0
Tb120 Tb 0.37436 0.16986 0.05282 0.0
Tb121 Tb 0.37233 0.10292 0.04429 0.0
C122 C 0.31911 0.13842 1.03657 0.0
C123 C 0.37916 0.23737 0.09258 0.0
C124 C 0.37978 0.26951 0.14846 0.0
C125 C 0.39582 0.27684 0.12206 0.0
C126 C 0.39544 0.26095 0.09436 0.0
C127 C 0.36358 0.22963 0.11919 0.0
C128 C 0.36382 0.2456 0.14682 0.0
C129 C 0.37922 0.2207 0.06327 0.0
O130 O 0.36178 0.1548 0.09956 0.0
O131 O 0.34933 0.11051 0.08712 0.0
O132 O 0.40073 0.11171 0.0824 0.0
O133 O 0.41456 0.15315 0.06439 0.0
O134 O 0.35183 0.0654 1.0393 0.0
O135 O 0.39586 0.06717 0.0427 0.0
O136 O 0.39215 0.11891 1.00159 0.0
O137 O 0.3753 0.16266 1.00134 0.0
O138 O 0.33116 0.15959 0.04988 0.0
O139 O 0.33306 0.11722 1.02591 0.0
C140 C 0.34888 0.13176 0.10617 0.0
O141 O 0.39979 0.20414 0.05991 0.0
O142 O 0.35633 0.20886 0.05556 0.0
C143 C 0.41838 0.13173 0.08256 0.0
C144 C 0.37666 0.03082 1.01274 0.0
C145 C 0.37954 0.9905 0.96532 0.0
C146 C 0.40192 1.00782 0.97078 0.0
C147 C 0.40049 0.02792 0.99429 0.0
C148 C 0.35467 0.01286 1.00783 0.0
C149 C 0.35605 0.99294 0.98422 0.0
C150 C 0.37459 0.05161 1.03792 0.0
C151 C 0.38585 0.1415 0.98629 0.0
H152 H 0.40824 0.29519 0.12262 0.0
H153 H 0.40781 0.26715 0.07425 0.0
H154 H 0.35116 0.21128 0.1186 0.0
H155 H 0.35157 0.23922 0.16695 0.0
H156 H 0.42014 1.00631 0.95625 0.0
H157 H 0.41791 0.04128 0.99776 0.0
H158 H 0.33628 0.01441 1.0221 0.0
H159 H 0.33863 0.97962 0.98041 0.0
Tb160 Tb 0.09706 0.89297 0.27959 0.0
Tb161 Tb 0.164 0.89528 0.28929 0.0
C162 C 0.12811 0.94823 0.29564 0.0
C163 C 0.02962 0.88675 0.23944 0.0
C164 C 0.99709 0.88521 0.18386 0.0
C165 C 0.02109 0.90108 0.18489 0.0
C166 C 0.03725 0.90179 0.21238 0.0
C167 C 1.00599 0.87049 0.23826 0.0
C168 C 0.98992 0.86966 0.21072 0.0
C169 C 0.04636 0.88726 0.2687 0.0
O170 O 0.1126 0.90518 0.23296 0.0
O171 O 0.15687 0.91755 0.24581 0.0
O172 O 0.15587 0.86663 0.25112 0.0
O173 O 0.11469 0.85287 0.26968 0.0
O174 O 0.20097 0.91659 0.29531 0.0
O175 O 0.20015 0.87249 0.29282 0.0
O176 O 0.14705 0.87492 0.33107 0.0
O177 O 0.1039 0.89308 0.33109 0.0
O178 O 0.10728 0.93617 0.28168 0.0
O179 O 0.14878 0.93424 0.30749 0.0
C180 C 0.13578 0.91789 0.22649 0.0
O181 O 0.06325 0.86698 0.27232 0.0
O182 O 0.05784 0.91042 0.27612 0.0
C183 C 0.1356 0.8492 0.25072 0.0
C184 C 0.23487 0.89266 0.32348 0.0
C185 C 0.27379 0.88804 0.37223 0.0
C186 C 0.28177 0.89634 0.34168 0.0
C187 C 0.26242 0.89854 0.31744 0.0
C188 C 0.22666 0.88493 0.35412 0.0
C189 C 0.24603 0.88263 0.37837 0.0
C190 C 0.2152 0.89416 0.29733 0.0
C191 C 0.12469 0.88201 0.34629 0.0
H192 H 0.0274 0.91291 0.16439 0.0
H193 H 0.05564 0.91416 0.21252 0.0
H194 H 0.99988 0.85852 0.25873 0.0
H195 H 0.97152 0.8573 0.21065 0.0
H196 H 0.30303 0.90068 0.33645 0.0
H197 H 0.269 0.90459 0.29388 0.0
H198 H 0.20538 0.88053 0.35918 0.0
H199 H 0.23933 0.87674 0.40193 0.0
Tb200 Tb 0.37462 0.84462 0.53212 0.0
Tb201 Tb 0.37127 0.91191 0.539 0.0
C202 C 0.31872 0.8753 0.54627 0.0
C203 C 0.3822 0.77649 0.49433 0.0
C204 C 0.3842 0.74323 0.43944 0.0
C205 C 0.39687 0.73478 0.46779 0.0
C206 C 0.39576 0.75122 0.49504 0.0
C207 C 0.37025 0.78533 0.46578 0.0
C208 C 0.37106 0.76879 0.43865 0.0
C209 C 0.38111 0.79371 0.52316 0.0
O210 O 0.36266 0.85873 0.48504 0.0
O211 O 0.34957 0.90352 0.49512 0.0
O212 O 0.40033 0.90314 0.50159 0.0
O213 O 0.41453 0.8625 0.52146 0.0
O214 O 0.35037 0.94914 0.54466 0.0
O215 O 0.39435 0.94804 0.54079 0.0
O216 O 0.39144 0.89626 0.58168 0.0
O217 O 0.37406 0.85279 0.58315 0.0
O218 O 0.33121 0.85421 0.53338 0.0
O219 O 0.33232 0.89664 0.55721 0.0
C220 C 0.35004 0.88155 0.47705 0.0
O221 O 0.40111 0.81097 0.52666 0.0
O222 O 0.35771 0.80508 0.52961 0.0
C223 C 0.41809 0.88322 0.50212 0.0
C224 C 0.37544 0.98284 0.57203 0.0
C225 C 0.37991 0.021 0.62169 0.0
C226 C 0.38086 0.02973 0.58994 0.0
C227 C 0.37856 0.01074 0.56526 0.0
C228 C 0.3752 0.97393 0.60368 0.0
C229 C 0.37745 0.9929 0.62836 0.0
C230 C 0.37295 0.96329 0.54583 0.0
C231 C 0.38465 0.87415 0.59765 0.0
H232 H 0.40713 0.71517 0.46903 0.0
H233 H 0.40538 0.74415 0.51672 0.0
H234 H 0.36024 0.80499 0.46449 0.0
H235 H 0.3615 0.77601 0.417 0.0
H236 H 0.38272 0.05126 0.58426 0.0
H237 H 0.37901 0.01786 0.54089 0.0
H238 H 0.37315 0.95238 0.60925 0.0
H239 H 0.3771 0.98565 0.65268 0.0
Tb240 Tb 0.42311 0.1209 0.78135 0.0
Tb241 Tb 0.35548 0.12315 0.78847 0.0
C242 C 0.38807 0.06792 0.79819 0.0
C243 C 0.49304 0.12549 0.74603 0.0
C244 C 0.52619 0.12969 0.69085 0.0
C245 C 0.52882 0.10733 0.71171 0.0
C246 C 0.51233 0.10518 0.73879 0.0
C247 C 0.4912 0.14849 0.72609 0.0
C248 C 0.50756 0.15055 0.6988 0.0
C249 C 0.47455 0.12161 0.77366 0.0
O250 O 0.40798 0.10851 0.73459 0.0
O251 O 0.36241 0.09994 0.74565 0.0
O252 O 0.36536 0.15119 0.75023 0.0
O253 O 0.41003 0.16046 0.76281 0.0
O254 O 0.31689 0.10485 0.79377 0.0
O255 O 0.32105 0.14865 0.79071 0.0
O256 O 0.37258 0.14324 0.83014 0.0
O257 O 0.4143 0.1224 0.83266 0.0
O258 O 0.41047 0.07874 0.78639 0.0
O259 O 0.36684 0.08283 0.8069 0.0
C260 C 0.38408 0.09752 0.72741 0.0
O261 O 0.46037 0.14258 0.78342 0.0
O262 O 0.45974 0.09952 0.77313 0.0
C263 C 0.3876 0.16576 0.74681 0.0
C264 C 0.28507 0.13151 0.82168 0.0
C265 C 0.24736 0.13514 0.87178 0.0
C266 C 0.2382 0.13463 0.8402 0.0
C267 C 0.25698 0.13275 0.81528 0.0
C268 C 0.29438 0.13297 0.85312 0.0
C269 C 0.27562 0.13485 0.87803 0.0
C270 C 0.30435 0.12829 0.79536 0.0
C271 C 0.39385 0.13518 0.84663 0.0
H272 H 0.54374 0.09143 0.70724 0.0
H273 H 0.51448 0.08742 0.75401 0.0
H274 H 0.4769 0.16476 0.73134 0.0
H275 H 0.50527 0.16826 0.6836 0.0
H276 H 0.21653 0.13477 0.83486 0.0
H277 H 0.24956 0.13177 0.79105 0.0
H278 H 0.31606 0.13224 0.85838 0.0
H279 H 0.28316 0.13565 0.90222 0.0
Tb280 Tb 0.14501 0.17047 1.03152 0.0
Tb281 Tb 0.1467 0.10336 1.03823 0.0
C282 C 0.19988 0.13865 0.04796 0.0
C283 C 0.13882 0.23809 0.99269 0.0
C284 C 0.1363 0.27043 0.93699 0.0
C285 C 0.15209 0.24639 0.93772 0.0
C286 C 0.15329 0.23035 0.96525 0.0
C287 C 0.12259 0.26173 0.99181 0.0
C288 C 0.12127 0.27772 0.9642 0.0
C289 C 0.14005 0.22141 1.02198 0.0
O290 O 0.15787 0.1562 0.98456 0.0
O291 O 0.1702 0.11164 0.99591 0.0
O292 O 0.11896 0.11271 0.99957 0.0
O293 O 0.10509 0.15377 1.01857 0.0
O294 O 0.16704 0.06575 0.04317 0.0
O295 O 0.12303 0.06762 1.03963 0.0
O296 O 0.12572 0.11914 0.08014 0.0
O297 O 0.14387 0.16223 0.08279 0.0
O298 O 0.18811 0.16017 1.03512 0.0
O299 O 0.18569 0.11731 0.05784 0.0
C300 C 0.17087 0.13333 0.9775 0.0
O301 O 0.11952 0.205 1.02679 0.0
O302 O 0.16318 0.20936 1.02804 0.0
C303 C 0.10166 0.13306 0.99922 0.0
C304 C 0.14204 0.03155 0.07032 0.0
C305 C 0.13893 0.99168 0.11838 0.0
C306 C 0.11691 0.00949 0.11317 0.0
C307 C 0.11846 0.02939 0.08937 0.0
C308 C 0.16371 0.01321 0.07513 0.0
C309 C 0.16223 0.99353 0.09905 0.0
C310 C 0.14421 0.05204 0.04473 0.0
C311 C 0.13228 0.141 0.09663 0.0
H312 H 0.1635 0.23999 0.91696 0.0
H313 H 0.16564 0.21197 0.96513 0.0
H314 H 0.11105 0.26793 1.01256 0.0
H315 H 0.10897 0.29613 0.96434 0.0
H316 H 0.09886 1.00848 0.12805 0.0
H317 H 0.10133 0.04312 0.08611 0.0
H318 H 0.18191 0.01424 0.06049 0.0
H319 H 0.17939 0.97987 0.10267 0.0
Tb320 Tb 0.85139 0.89802 0.78713 0.0
Tb321 Tb 0.91839 0.89489 0.77797 0.0
C322 C 0.87932 0.85111 0.74911 0.0
C323 C 0.78035 0.89369 0.82048 0.0
C324 C 0.74164 0.88827 0.86939 0.0
C325 C 0.73448 0.8821 0.83792 0.0
C326 C 0.75373 0.88482 0.81362 0.0
C327 C 0.78773 0.89953 0.85194 0.0
C328 C 0.76843 0.89697 0.87623 0.0
C329 C 0.80012 0.89631 0.79454 0.0
O330 O 0.86761 0.87796 0.82956 0.0
O331 O 0.91131 0.89487 0.82949 0.0
O332 O 0.90856 0.93823 0.77955 0.0
O333 O 0.86666 0.93715 0.8047 0.0
O334 O 0.95252 0.86909 0.77169 0.0
O335 O 0.95746 0.91265 0.77437 0.0
O336 O 0.90299 0.90619 0.731 0.0
O337 O 0.85898 0.91994 0.74327 0.0
O338 O 0.85942 0.86888 0.74959 0.0
O339 O 0.90106 0.85481 0.76683 0.0
C340 C 0.8902 0.88441 0.84474 0.0
O341 O 0.81428 0.91888 0.79347 0.0
O342 O 0.81529 0.87489 0.78934 0.0
C343 C 0.88781 0.95068 0.7932 0.0
C344 C 0.98651 0.88863 0.73879 0.0
C345 C 0.02046 0.88684 0.68428 0.0
C346 C 0.99808 0.90488 0.68571 0.0
C347 C 0.98126 0.90575 0.71266 0.0
C348 C 0.00849 0.87024 0.73716 0.0
C349 C 0.02525 0.86929 0.71016 0.0
C350 C 0.96923 0.8895 0.7677 0.0
C351 C 0.88003 0.91897 0.7238 0.0
H352 H 0.71387 0.87571 0.83205 0.0
H353 H 0.74781 0.88014 0.78942 0.0
H354 H 0.8083 0.90615 0.85765 0.0
H355 H 0.77441 0.90174 0.90038 0.0
H356 H 0.99359 0.91835 0.66597 0.0
H357 H 0.96425 0.91993 0.71311 0.0
H358 H 0.01284 0.85673 0.75693 0.0
H359 H 0.04237 0.85524 0.70982 0.0
Tb360 Tb 0.87513 0.10548 0.53752 0.0
Tb361 Tb 0.87229 0.17289 0.53338 0.0
C362 C 0.9195 0.1398 0.50194 0.0
C363 C 0.87815 0.03357 0.56821 0.0
C364 C 0.87687 0.99341 0.61612 0.0
C365 C 0.87916 0.98582 0.58403 0.0
C366 C 0.87988 1.00579 0.56027 0.0
C367 C 0.87514 0.04124 0.60011 0.0
C368 C 0.8745 0.02131 0.62388 0.0
C369 C 0.88123 0.05427 0.54324 0.0
O370 O 0.87167 0.12014 0.58602 0.0
O371 O 0.89125 0.16232 0.57933 0.0
O372 O 0.8338 0.16041 0.55527 0.0
O373 O 0.83178 0.11568 0.538 0.0
O374 O 0.89496 0.20956 0.53272 0.0
O375 O 0.85096 0.21 0.52913 0.0
O376 O 0.85046 0.1579 0.49173 0.0
O377 O 0.86616 0.1134 0.48793 0.0
O378 O 0.91531 0.12076 0.52333 0.0
O379 O 0.90219 0.15993 0.49867 0.0
C380 C 0.88368 0.14186 0.59777 0.0
O381 O 0.85894 0.06572 0.53283 0.0
O382 O 0.9005 0.0722 0.54798 0.0
C383 C 0.8198 0.13816 0.54809 0.0
C384 C 0.87557 0.24138 0.49696 0.0
C385 C 0.88093 0.27401 0.44165 0.0
C386 C 0.86505 0.25002 0.44122 0.0
C387 C 0.86256 0.23377 0.46849 0.0
C388 C 0.89145 0.26531 0.49745 0.0
C389 C 0.89412 0.28147 0.47008 0.0
C390 C 0.87343 0.22413 0.52582 0.0
C391 C 0.85235 0.13435 0.47667 0.0
H392 H 0.88042 0.96447 0.57732 0.0
H393 H 0.88219 0.99956 0.53571 0.0
H394 H 0.87385 0.06264 0.60665 0.0
H395 H 0.87276 0.02773 0.64843 0.0
H396 H 0.85469 0.24373 0.41967 0.0
H397 H 0.85044 0.21526 0.46729 0.0
H398 H 0.90177 0.27153 0.51905 0.0
H399 H 0.90611 0.30007 0.47132 0.0
Tb400 Tb 0.66526 0.12035 0.29026 0.0
Tb401 Tb 0.59856 0.12644 0.28101 0.0
C402 C 0.63959 0.16734 0.25087 0.0
C403 C 0.7365 0.12116 0.32386 0.0
C404 C 0.77589 0.12429 0.37231 0.0
C405 C 0.78272 0.13149 0.34103 0.0
C406 C 0.76316 0.12981 0.31696 0.0
C407 C 0.7294 0.11441 0.35519 0.0
C408 C 0.74904 0.11589 0.37928 0.0
C409 C 0.71651 0.11953 0.29799 0.0
O410 O 0.64989 0.14292 0.33117 0.0
O411 O 0.60561 0.12772 0.33254 0.0
O412 O 0.60625 0.08279 0.28442 0.0
O413 O 0.64791 0.08283 0.31004 0.0
O414 O 0.5666 0.15379 0.27041 0.0
O415 O 0.5581 0.11161 0.28053 0.0
O416 O 0.613 0.11154 0.23489 0.0
O417 O 0.65677 0.09734 0.2477 0.0
O418 O 0.65831 0.14832 0.25116 0.0
O419 O 0.61847 0.16533 0.26991 0.0
C420 C 0.62725 0.13796 0.34695 0.0
O421 O 0.70123 0.0977 0.29699 0.0
O422 O 0.70249 0.14169 0.29255 0.0
C423 C 0.62617 0.06988 0.29909 0.0
C424 C 0.53077 0.13347 0.24146 0.0
C425 C 0.49754 0.13282 0.18639 0.0
C426 C 0.5212 0.11649 0.18817 0.0
C427 C 0.5377 0.11686 0.21542 0.0
C428 C 0.50738 0.14998 0.23959 0.0
C429 C 0.49097 0.14973 0.21231 0.0
C430 C 0.54817 0.13463 0.27016 0.0
C431 C 0.63545 0.0975 0.22872 0.0
H432 H 0.80327 0.13807 0.33518 0.0
H433 H 0.76888 0.13523 0.29289 0.0
H434 H 0.70877 0.10801 0.36098 0.0
H435 H 0.74321 0.11072 0.40338 0.0
H436 H 0.52705 0.1036 0.16839 0.0
H437 H 0.55589 0.10424 0.21611 0.0
H438 H 0.5018 0.16312 0.25927 0.0
H439 H 0.47285 0.16245 0.21169 0.0
Tb440 Tb 0.64647 0.9139 1.03909 0.0
Tb441 Tb 0.6424 0.84697 1.03161 0.0
C442 C 0.59973 0.88606 1.00012 0.0
C443 C 0.64126 0.98449 0.0721 0.0
C444 C 0.6354 0.02171 0.1224 0.0
C445 C 0.64082 0.03118 0.09155 0.0
C446 C 0.64378 0.01264 0.06654 0.0
C447 C 0.63498 0.975 0.10266 0.0
C448 C 0.63194 0.99351 0.12764 0.0
C449 C 0.64514 0.96528 0.04585 0.0
O450 O 0.62515 0.89845 0.08093 0.0
O451 O 0.64241 0.85508 0.08297 0.0
O452 O 0.68577 0.8562 1.03419 0.0
O453 O 0.68555 0.89895 0.05723 0.0
O454 O 0.61705 0.81218 1.02928 0.0
O455 O 0.66068 0.80834 1.02577 0.0
O456 O 0.65383 0.86145 0.98436 0.0
O457 O 0.66884 0.90516 0.99592 0.0
O458 O 0.61774 0.90579 1.00112 0.0
O459 O 0.60285 0.86416 1.01781 0.0
C460 C 0.63151 0.87645 0.09721 0.0
O461 O 0.66751 0.95084 0.04655 0.0
O462 O 0.62395 0.95035 1.03878 0.0
C463 C 0.6986 0.87693 0.04734 0.0
C464 C 0.63455 0.77885 0.99376 0.0
C465 C 0.6324 0.74616 0.93835 0.0
C466 C 0.64219 0.73537 0.96717 0.0
C467 C 0.6432 0.75154 0.99458 0.0
C468 C 0.62472 0.78978 0.96504 0.0
C469 C 0.62355 0.77353 0.93758 0.0
C470 C 0.63734 0.79595 1.02252 0.0
C471 C 0.66742 0.88386 0.97687 0.0
H472 H 0.64365 0.05282 0.08702 0.0
H473 H 0.64845 0.02023 0.04297 0.0
H474 H 0.63276 0.9533 0.10723 0.0
H475 H 0.62736 0.98577 0.15117 0.0
H476 H 0.64908 0.71435 0.96851 0.0
H477 H 0.65105 0.74277 1.0164 0.0
H478 H 0.6183 0.81096 0.96374 0.0
H479 H 0.61633 0.78253 0.91562 0.0
Tb480 Tb 0.85377 0.12252 0.79434 0.0
Tb481 Tb 0.92128 0.1242 0.80182 0.0
C482 C 0.88359 0.16707 0.83492 0.0
C483 C 0.78221 0.12691 0.7619 0.0
C484 C 0.74196 0.13209 0.71448 0.0
C485 C 0.76724 0.14554 0.7113 0.0
C486 C 0.78726 0.14294 0.73483 0.0
C487 C 0.75712 0.11328 0.76493 0.0
C488 C 0.73718 0.11574 0.74135 0.0
C489 C 0.80243 0.12454 0.78759 0.0
O490 O 0.86969 0.14359 0.75276 0.0
O491 O 0.91333 0.1265 0.75051 0.0
O492 O 0.9108 0.08132 0.79604 0.0
O493 O 0.86799 0.08425 0.77336 0.0
O494 O 0.95666 0.14873 0.80399 0.0
O495 O 0.95943 0.10506 0.80818 0.0
O496 O 0.90635 0.11106 0.84844 0.0
O497 O 0.86215 0.09815 0.83589 0.0
O498 O 0.86292 0.1501 0.83336 0.0
O499 O 0.90493 0.16373 0.81649 0.0
C500 C 0.8918 0.1374 0.73657 0.0
O501 O 0.81632 0.10184 0.78876 0.0
O502 O 0.81785 0.14584 0.79279 0.0
C503 C 0.8893 0.06986 0.7828 0.0
C504 C 0.99005 0.13091 0.8392 0.0
C505 C 0.02392 0.1334 0.89366 0.0
C506 C 0.03404 0.12331 0.86465 0.0
C507 C 0.0173 0.12215 0.83772 0.0
C508 C 0.97978 0.14108 0.86808 0.0
C509 C 0.99661 0.14242 0.89506 0.0
C510 C 0.97244 0.12813 0.81085 0.0
C511 C 0.8836 0.0975 0.85465 0.0
H512 H 0.77162 0.15777 0.69045 0.0
H513 H 0.80659 0.15348 0.73191 0.0
H514 H 0.7529 0.10081 0.78565 0.0
H515 H 0.7179 0.10509 0.74422 0.0
H516 H 0.055 0.11632 0.86279 0.0
H517 H 0.02558 0.11411 0.81575 0.0
H518 H 0.95868 0.14763 0.86988 0.0
H519 H 0.9881 0.14991 0.91716 0.0
Tb520 Tb 0.64803 0.10755 0.5443 0.0
Tb521 Tb 0.64453 0.17485 0.55217 0.0
C522 C 0.60077 0.1359 0.58282 0.0
C523 C 0.64589 0.03597 0.51147 0.0
C524 C 0.64144 0.99653 0.46304 0.0
C525 C 0.63835 0.98896 0.49502 0.0
C526 C 0.64054 0.00856 0.51904 0.0
C527 C 0.64887 0.04371 0.47959 0.0
C528 C 0.64678 0.02409 0.45554 0.0
C529 C 0.64768 0.05612 0.53719 0.0
O530 O 0.62763 0.12314 0.50184 0.0
O531 O 0.64503 0.16659 0.501 0.0
O532 O 0.68767 0.16477 0.55215 0.0
O533 O 0.68701 0.12333 0.52649 0.0
O534 O 0.61995 0.21019 0.55314 0.0
O535 O 0.66356 0.21305 0.5584 0.0
O536 O 0.65442 0.16021 0.59964 0.0
O537 O 0.66876 0.11605 0.5889 0.0
O538 O 0.61761 0.11517 0.58072 0.0
O539 O 0.60493 0.15861 0.56689 0.0
C540 C 0.63426 0.14544 0.48621 0.0
O541 O 0.66986 0.07086 0.53848 0.0
O542 O 0.62587 0.07084 0.54183 0.0
C543 C 0.70046 0.14421 0.53875 0.0
C544 C 0.63717 0.24324 0.58905 0.0
C545 C 0.63404 0.2762 0.64407 0.0
C546 C 0.64265 0.28733 0.61491 0.0
C547 C 0.64412 0.27101 0.58766 0.0
C548 C 0.62855 0.23197 0.61811 0.0
C549 C 0.62687 0.24836 0.64538 0.0
C550 C 0.64044 0.226 0.56054 0.0
C551 C 0.66728 0.13756 0.60769 0.0
H552 H 0.63469 0.96782 0.50147 0.0
H553 H 0.63814 1.0023 0.54358 0.0
H554 H 0.6528 0.06486 0.47335 0.0
H555 H 0.64917 0.03044 0.43103 0.0
H556 H 0.64827 0.30872 0.61323 0.0
H557 H 0.65103 0.28003 0.56555 0.0
H558 H 0.62352 0.21044 0.6198 0.0
H559 H 0.62059 0.23914 0.66762 0.0
Tb560 Tb 0.66536 0.89943 0.29371 0.0
Tb561 Tb 0.59875 0.89379 0.30379 0.0
C562 C 0.63939 0.85156 0.33195 0.0
C563 C 0.73689 0.89667 0.26028 0.0
C564 C 0.77739 0.88934 0.2136 0.0
C565 C 0.75173 0.87661 0.21042 0.0
C566 C 0.73157 0.88029 0.23359 0.0
C567 C 0.76239 0.90946 0.26339 0.0
C568 C 0.78246 0.90592 0.24018 0.0
C569 C 0.71662 0.90003 0.2857 0.0
O570 O 0.64949 0.87837 0.25176 0.0
O571 O 0.60533 0.89394 0.25223 0.0
O572 O 0.60666 0.93747 0.3021 0.0
O573 O 0.64852 0.93821 0.27686 0.0
O574 O 0.56624 0.86651 0.31257 0.0
O575 O 0.55866 0.90938 0.30592 0.0
O576 O 0.61402 0.9066 0.35036 0.0
O577 O 0.65752 0.92148 0.33736 0.0
O578 O 0.6585 0.87023 0.33168 0.0
O579 O 0.61789 0.85435 0.31366 0.0
C580 C 0.6266 0.88408 0.2368 0.0
O581 O 0.70132 0.92179 0.28447 0.0
O582 O 0.70261 0.87834 0.29338 0.0
C583 C 0.62669 0.95078 0.2881 0.0
C584 C 0.53102 0.88581 0.34364 0.0
C585 C 0.49793 0.88394 0.39885 0.0
C586 C 0.51646 0.90558 0.39403 0.0
C587 C 0.53296 0.90644 0.36681 0.0
C588 C 0.51249 0.86426 0.34837 0.0
C589 C 0.4961 0.86333 0.37564 0.0
C590 C 0.54833 0.88605 0.31475 0.0
C591 C 0.63664 0.92023 0.35706 0.0
H592 H 0.74713 0.86422 0.18976 0.0
H593 H 0.7119 0.87037 0.2307 0.0
H594 H 0.76682 0.92212 0.28389 0.0
H595 H 0.80203 0.91604 0.24304 0.0
H596 H 0.51825 0.92182 0.41141 0.0
H597 H 0.54717 0.92326 0.36391 0.0
H598 H 0.51059 0.84814 0.33084 0.0
H599 H 0.48157 0.84674 0.37822 0.0
Tb600 Tb 0.87048 0.91326 0.04349 0.0
Tb601 Tb 0.87398 0.84605 0.0497 0.0
C602 C 0.91793 0.88445 0.0802 0.0
C603 C 0.87578 0.98398 1.01093 0.0
C604 C 0.88185 0.02137 0.96077 0.0
C605 C 0.87806 0.03079 0.99196 0.0
C606 C 0.875 0.01217 1.0169 0.0
C607 C 0.88041 0.97449 0.97998 0.0
C608 C 0.88354 0.99307 0.95507 0.0
C609 C 0.87202 0.9647 1.03717 0.0
O610 O 0.89099 0.89821 1.00091 0.0
O611 O 0.87369 0.85479 0.99844 0.0
O612 O 0.83073 0.85579 0.04897 0.0
O613 O 0.8309 0.89865 1.02627 0.0
O614 O 0.89903 0.8111 0.05215 0.0
O615 O 0.85533 0.80741 0.05436 0.0
O616 O 0.86362 0.86003 0.09744 0.0
O617 O 0.84934 0.90434 0.08751 0.0
O618 O 0.90033 0.90455 0.08012 0.0
O619 O 0.91396 0.86267 0.06258 0.0
C620 C 0.88454 0.87633 0.98442 0.0
O621 O 0.84956 0.95036 1.03674 0.0
O622 O 0.89319 0.94964 0.04383 0.0
C623 C 0.81783 0.87669 1.03635 0.0
C624 C 0.88069 0.77768 0.087 0.0
C625 C 0.88247 0.74469 0.14224 0.0
C626 C 0.872 0.73432 0.11352 0.0
C627 C 0.8712 0.75063 0.08619 0.0
C628 C 0.89106 0.78822 0.11568 0.0
C629 C 0.89205 0.77182 0.14302 0.0
C630 C 0.87852 0.79492 0.05824 0.0
C631 C 0.85079 0.88261 0.1059 0.0
H632 H 0.87663 0.05249 0.99686 0.0
H633 H 0.87165 0.01975 1.04077 0.0
H634 H 0.88132 0.95275 0.97508 0.0
H635 H 0.88688 0.98533 0.93126 0.0
H636 H 0.86452 0.71349 0.11219 0.0
H637 H 0.86293 0.74216 0.06442 0.0
H638 H 0.89812 0.8092 0.11701 0.0
H639 H 0.89981 0.78051 0.16491 0.0
Tb640 Tb 0.59563 0.62395 0.80207 0.0
Tb641 Tb 0.66292 0.62337 0.79418 0.0
C642 C 0.62853 0.56928 0.78808 0.0
C643 C 0.52689 0.62816 0.84026 0.0
C644 C 0.4923 0.6311 0.89426 0.0
C645 C 0.49848 0.60575 0.88027 0.0
C646 C 0.51545 0.60431 0.85351 0.0
C647 C 0.52097 0.65349 0.85454 0.0
C648 C 0.50399 0.65492 0.88129 0.0
C649 C 0.5445 0.62651 0.81147 0.0
O650 O 0.61058 0.61376 0.84948 0.0
O651 O 0.6555 0.60214 0.83849 0.0
O652 O 0.65352 0.65274 0.83117 0.0
O653 O 0.61096 0.66458 0.81435 0.0
O654 O 0.70077 0.60351 0.78932 0.0
O655 O 0.69829 0.64752 0.79146 0.0
O656 O 0.64645 0.64245 0.75132 0.0
O657 O 0.60351 0.62374 0.75077 0.0
O658 O 0.60712 0.58117 0.80086 0.0
O659 O 0.64962 0.58328 0.77723 0.0
C660 C 0.63411 0.60248 0.85744 0.0
O661 O 0.55972 0.64763 0.80481 0.0
O662 O 0.55785 0.60382 0.8072 0.0
C663 C 0.63249 0.66924 0.83214 0.0
C664 C 0.73403 0.6287 0.76155 0.0
C665 C 0.77273 0.63306 0.71246 0.0
C666 C 0.78125 0.63188 0.74428 0.0
C667 C 0.76199 0.62975 0.76866 0.0
C668 C 0.72536 0.63002 0.72985 0.0
C669 C 0.7446 0.63214 0.70546 0.0
C670 C 0.71422 0.62646 0.78747 0.0
C671 C 0.62433 0.63502 0.73582 0.0
H672 H 0.48965 0.58708 0.88959 0.0
H673 H 0.51941 0.58447 0.84301 0.0
H674 H 0.52931 0.67229 0.84498 0.0
H675 H 0.49993 0.67473 0.89181 0.0
H676 H 0.8028 0.63201 0.75027 0.0
H677 H 0.76894 0.62872 0.79308 0.0
H678 H 0.70378 0.62933 0.72403 0.0
H679 H 0.73753 0.63305 0.68108 0.0
Tb680 Tb 0.64137 0.35033 0.05458 0.0
Tb681 Tb 0.64795 0.41705 0.04533 0.0
C682 C 0.69853 0.37796 1.03972 0.0
C683 C 0.63604 0.282 0.09358 0.0
C684 C 0.63915 0.24699 0.14711 0.0
C685 C 0.64562 0.23731 0.11653 0.0
C686 C 0.64407 0.25463 0.09007 0.0
C687 C 0.6297 0.29183 0.12413 0.0
C688 C 0.63106 0.27443 0.1506 0.0
C689 C 0.63395 0.29978 0.06518 0.0
O690 O 0.65408 0.36497 0.10144 0.0
O691 O 0.66902 0.40871 0.08946 0.0
O692 O 0.61855 0.41033 0.08301 0.0
O693 O 0.60218 0.36995 0.06467 0.0
O694 O 0.67114 0.45266 1.03724 0.0
O695 O 0.62747 0.45463 0.04434 0.0
O696 O 0.62585 0.40194 1.0039 0.0
O697 O 0.64064 0.35751 1.00298 0.0
O698 O 0.68503 0.35842 0.05435 0.0
O699 O 0.68602 0.39942 1.02755 0.0
C700 C 0.66716 0.38774 0.10893 0.0
O701 O 0.61461 0.31804 0.06549 0.0
O702 O 0.65666 0.30994 0.0542 0.0
C703 C 0.59973 0.39136 0.08323 0.0
C704 C 0.64727 0.48848 1.01202 0.0
C705 C 0.64204 0.52852 0.96449 0.0
C706 C 0.65522 0.53471 0.99325 0.0
C707 C 0.6578 0.51481 1.01683 0.0
C708 C 0.63404 0.48218 0.98335 0.0
C709 C 0.63133 0.50214 0.95977 0.0
C710 C 0.6496 0.46831 1.03764 0.0
C711 C 0.63061 0.37914 0.98833 0.0
H712 H 0.65149 0.21617 0.11299 0.0
H713 H 0.64896 0.24658 0.06677 0.0
H714 H 0.62355 0.31291 0.12752 0.0
H715 H 0.62602 0.28247 0.17385 0.0
H716 H 0.66337 0.55498 0.99754 0.0
H717 H 0.6679 0.52001 1.03893 0.0
H718 H 0.62578 0.46191 0.97928 0.0
H719 H 0.62123 0.49689 0.93768 0.0
Tb720 Tb 0.92035 0.39568 0.30301 0.0
Tb721 Tb 0.85302 0.3954 0.29597 0.0
C722 C 0.88677 0.44953 0.28628 0.0
C723 C 0.98953 0.38854 0.33804 0.0
C724 C 0.02398 0.38247 0.3914 0.0
C725 C 0.03509 0.38639 0.3609 0.0
C726 C 0.01799 0.38942 0.33446 0.0
C727 C 0.97832 0.38432 0.36837 0.0
C728 C 0.9954 0.38145 0.39488 0.0
C729 C 0.97173 0.3937 0.31046 0.0
O730 O 0.90555 0.40572 0.3504 0.0
O731 O 0.86109 0.41827 0.33907 0.0
O732 O 0.86269 0.36649 0.3334 0.0
O733 O 0.90601 0.35538 0.31799 0.0
O734 O 0.81473 0.41459 0.2935 0.0
O735 O 0.81811 0.37061 0.29172 0.0
O736 O 0.86942 0.37617 0.25317 0.0
O737 O 0.91185 0.39582 0.25196 0.0
O738 O 0.90852 0.43827 0.29912 0.0
O739 O 0.86561 0.43495 0.27668 0.0
C740 C 0.88256 0.41816 0.35793 0.0
O741 O 0.95706 0.3732 0.30041 0.0
O742 O 0.95735 0.41601 0.31198 0.0
C743 C 0.88417 0.35062 0.33525 0.0
C744 C 0.7816 0.39056 0.26391 0.0
C745 C 0.74187 0.38929 0.21572 0.0
C746 C 0.73628 0.3778 0.24557 0.0
C747 C 0.75601 0.37855 0.26956 0.0
C748 C 0.78752 0.40142 0.23385 0.0
C749 C 0.76774 0.40084 0.20992 0.0
C750 C 0.80174 0.39154 0.28967 0.0
C751 C 0.89121 0.38402 0.23735 0.0
H752 H 0.05701 0.38775 0.35759 0.0
H753 H 0.02701 0.39293 0.3113 0.0
H754 H 0.95637 0.38358 0.37157 0.0
H755 H 0.9863 0.37841 0.41808 0.0
H756 H 0.7165 0.36875 0.25049 0.0
H757 H 0.75123 0.36993 0.29262 0.0
H758 H 0.80733 0.41046 0.22897 0.0
H759 H 0.77262 0.4094 0.18686 0.0
Tb760 Tb 0.87282 0.67187 0.5506 0.0
Tb761 Tb 0.86977 0.60472 0.54403 0.0
C762 C 0.81731 0.64085 0.53576 0.0
C763 C 0.87834 0.7399 0.589 0.0
C764 C 0.87894 0.77269 0.64445 0.0
C765 C 0.86115 0.75016 0.64201 0.0
C766 C 0.86089 0.73389 0.61461 0.0
C767 C 0.89644 0.76207 0.59158 0.0
C768 C 0.89679 0.77828 0.61905 0.0
C769 C 0.87852 0.72277 0.56 0.0
O770 O 0.86082 0.65776 0.59792 0.0
O771 O 0.84732 0.61336 0.58709 0.0
O772 O 0.8985 0.61385 0.58172 0.0
O773 O 0.9128 0.65446 0.56181 0.0
O774 O 0.84879 0.56748 0.53921 0.0
O775 O 0.89283 0.56859 0.54241 0.0
O776 O 0.89043 0.62008 0.50169 0.0
O777 O 0.87325 0.66357 0.49932 0.0
O778 O 0.82953 0.66189 0.54909 0.0
O779 O 0.83112 0.61969 0.52481 0.0
C780 C 0.84791 0.63499 0.60566 0.0
O781 O 0.89882 0.70577 0.55743 0.0
O782 O 0.85553 0.71128 0.55192 0.0
C783 C 0.91621 0.63386 0.58133 0.0
C784 C 0.87345 0.53323 0.51236 0.0
C785 C 0.87794 0.49397 0.46396 0.0
C786 C 0.88218 0.48653 0.49578 0.0
C787 C 0.87993 0.50607 0.51983 0.0
C788 C 0.86947 0.54085 0.48058 0.0
C789 C 0.87156 0.52128 0.45653 0.0
C790 C 0.87133 0.55331 0.53801 0.0
C791 C 0.8841 0.64206 0.48531 0.0
H792 H 0.84748 0.74506 0.66135 0.0
H793 H 0.84701 0.71664 0.61346 0.0
H794 H 0.91028 0.76691 0.57228 0.0
H795 H 0.91068 0.79552 0.62018 0.0
H796 H 0.88676 0.46555 0.50209 0.0
H797 H 0.88313 0.49995 0.54429 0.0
H798 H 0.86469 0.56184 0.47445 0.0
H799 H 0.86832 0.52747 0.4321 0.0
Tb800 Tb 0.59526 0.39596 0.78213 0.0
Tb801 Tb 0.66228 0.39681 0.79123 0.0
C802 C 0.62758 0.45036 0.80069 0.0
C803 C 0.52787 0.38774 0.74237 0.0
C804 C 0.49474 0.38164 0.68763 0.0
C805 C 0.48708 0.36958 0.71667 0.0
C806 C 0.50349 0.37263 0.74376 0.0
C807 C 0.5359 0.39926 0.7132 0.0
C808 C 0.51941 0.3964 0.68618 0.0
C809 C 0.54439 0.39177 0.77149 0.0
O810 O 0.61105 0.40833 0.73566 0.0
O811 O 0.655 0.42121 0.74922 0.0
O812 O 0.65322 0.36951 0.75209 0.0
O813 O 0.61151 0.35588 0.76933 0.0
O814 O 0.70037 0.41599 0.79689 0.0
O815 O 0.69727 0.37206 0.79334 0.0
O816 O 0.64522 0.37701 0.83338 0.0
O817 O 0.60233 0.39577 0.83362 0.0
O818 O 0.60601 0.43878 0.78767 0.0
O819 O 0.64892 0.43609 0.81036 0.0
C820 C 0.6339 0.42183 0.72987 0.0
O821 O 0.55974 0.37139 0.78027 0.0
O822 O 0.5574 0.4149 0.77381 0.0
C823 C 0.63278 0.35233 0.7509 0.0
C824 C 0.73348 0.38968 0.82356 0.0
C825 C 0.7728 0.38438 0.87179 0.0
C826 C 0.78001 0.37983 0.83996 0.0
C827 C 0.76044 0.38249 0.816 0.0
C828 C 0.72604 0.39378 0.85536 0.0
C829 C 0.74563 0.39125 0.87932 0.0
C830 C 0.7135 0.39282 0.79795 0.0
C831 C 0.62306 0.38451 0.84876 0.0
H832 H 0.46799 0.35848 0.71867 0.0
H833 H 0.4969 0.36355 0.76596 0.0
H834 H 0.55474 0.41083 0.71137 0.0
H835 H 0.52587 0.40585 0.66414 0.0
H836 H 0.80089 0.3749 0.83356 0.0
H837 H 0.76642 0.37922 0.7915 0.0
H838 H 0.70521 0.39914 0.86156 0.0
H839 H 0.73961 0.39477 0.90375 0.0
Tb840 Tb 0.87288 0.34557 1.03319 0.0
Tb841 Tb 0.8703 0.4129 1.03921 0.0
C842 C 0.8177 0.37688 0.04952 0.0
C843 C 0.88001 0.27692 0.99654 0.0
C844 C 0.88258 0.24358 0.94168 0.0
C845 C 0.87242 0.23316 0.97052 0.0
C846 C 0.87122 0.24965 0.99767 0.0
C847 C 0.89017 0.28749 0.96779 0.0
C848 C 0.89156 0.27092 0.94062 0.0
C849 C 0.87705 0.29438 1.02497 0.0
O850 O 0.86194 0.35964 0.98565 0.0
O851 O 0.84764 0.4037 0.99641 0.0
O852 O 0.89914 0.40358 1.00158 0.0
O853 O 0.91281 0.36212 1.02012 0.0
O854 O 0.84969 0.45037 0.04389 0.0
O855 O 0.89367 0.44889 1.0406 0.0
O856 O 0.89111 0.39752 0.08134 0.0
O857 O 0.87315 0.3544 0.08432 0.0
O858 O 0.82983 0.35573 1.03643 0.0
O859 O 0.83133 0.3988 0.0587 0.0
C860 C 0.84861 0.38209 0.97782 0.0
O861 O 0.89755 0.31029 1.03198 0.0
O862 O 0.85392 0.30725 1.02746 0.0
C863 C 0.91647 0.3832 1.00131 0.0
C864 C 0.87468 0.48445 0.07074 0.0
C865 C 0.87902 0.52374 0.11925 0.0
C866 C 0.88094 0.53161 0.08725 0.0
C867 C 0.87877 0.51207 0.06316 0.0
C868 C 0.87308 0.47641 0.10266 0.0
C869 C 0.87512 0.49596 0.12677 0.0
C870 C 0.87235 0.46437 0.04504 0.0
C871 C 0.88444 0.37584 0.09803 0.0
H872 H 0.86543 0.21217 0.97208 0.0
H873 H 0.86311 0.24116 1.01951 0.0
H874 H 0.89667 0.30864 0.96623 0.0
H875 H 0.89906 0.27966 0.91863 0.0
H876 H 0.88353 0.55292 0.08086 0.0
H877 H 0.88009 0.51854 1.03859 0.0
H878 H 0.87014 0.45509 0.10887 0.0
H879 H 0.87367 0.48941 0.1513 0.0
Tb880 Tb 0.91909 0.62346 0.27978 0.0
Tb881 Tb 0.85193 0.62238 0.28721 0.0
C882 C 0.88647 0.56876 0.29543 0.0
C883 C 0.98789 0.62887 0.24284 0.0
C884 C 0.02131 0.62938 0.18808 0.0
C885 C 0.0314 0.61952 0.2172 0.0
C886 C 0.01483 0.61926 0.24429 0.0
C887 C 0.97778 0.63915 0.21392 0.0
C888 C 0.99446 0.63959 0.18679 0.0
C889 C 0.97029 0.62666 0.27121 0.0
O890 O 0.90432 0.61296 0.23245 0.0
O891 O 0.86004 0.5997 0.24394 0.0
O892 O 0.86136 0.65121 0.2496 0.0
O893 O 0.90342 0.66385 0.26718 0.0
O894 O 0.81403 0.6025 0.29142 0.0
O895 O 0.81656 0.64653 0.29004 0.0
O896 O 0.86812 0.64171 0.33015 0.0
O897 O 0.91115 0.62333 0.33097 0.0
O898 O 0.90786 0.58055 0.28234 0.0
O899 O 0.86535 0.58293 0.30584 0.0
C900 C 0.88148 0.60014 0.225 0.0
O901 O 0.95477 0.64754 0.27774 0.0
O902 O 0.95701 0.60378 0.27414 0.0
C903 C 0.88217 0.66802 0.24881 0.0
C904 C 0.78078 0.62735 0.31968 0.0
C905 C 0.74209 0.63144 0.36883 0.0
C906 C 0.73412 0.63513 0.33708 0.0
C907 C 0.75337 0.6331 0.31267 0.0
C908 C 0.78891 0.62384 0.35135 0.0
C909 C 0.76965 0.62576 0.37576 0.0
C910 C 0.8006 0.62542 0.2937 0.0
C911 C 0.89023 0.63444 0.34579 0.0
H912 H 0.05215 0.61193 0.219 0.0
H913 H 0.02298 0.6112 0.26632 0.0
H914 H 0.95692 0.64645 0.21221 0.0
H915 H 0.98618 0.64728 0.16465 0.0
H916 H 0.71294 0.6391 0.3311 0.0
H917 H 0.74683 0.63588 0.28828 0.0
H918 H 0.81008 0.61956 0.35712 0.0
H919 H 0.77628 0.62291 0.4001 0.0
Tb920 Tb 0.64324 0.6724 0.53103 0.0
Tb921 Tb 0.64542 0.60515 0.53831 0.0
C922 C 0.69822 0.64089 0.54695 0.0
C923 C 0.63834 0.74075 0.49266 0.0
C924 C 0.63928 0.77388 0.43745 0.0
C925 C 0.64905 0.7839 0.46667 0.0
C926 C 0.6486 0.7675 0.49394 0.0
C927 C 0.62829 0.73067 0.46359 0.0
C928 C 0.62858 0.74717 0.43628 0.0
C929 C 0.63915 0.72347 0.52153 0.0
O930 O 0.6547 0.65768 0.48389 0.0
O931 O 0.66807 0.61335 0.4951 0.0
O932 O 0.61694 0.61403 0.50025 0.0
O933 O 0.60331 0.6557 0.51808 0.0
O934 O 0.66598 0.5678 0.54463 0.0
O935 O 0.62209 0.56918 0.54011 0.0
O936 O 0.62409 0.62123 0.57977 0.0
O937 O 0.64243 0.66419 0.58237 0.0
O938 O 0.68632 0.66193 0.53333 0.0
O939 O 0.68414 0.61983 0.55776 0.0
C940 C 0.66753 0.63487 0.47629 0.0
O941 O 0.61839 0.70732 0.52636 0.0
O942 O 0.66212 0.711 0.52704 0.0
C943 C 0.59975 0.6345 0.49944 0.0
C944 C 0.64048 0.53478 0.57248 0.0
C945 C 0.63601 0.49769 0.62329 0.0
C946 C 0.6395 0.4881 0.59211 0.0
C947 C 0.64177 0.50656 0.56688 0.0
C948 C 0.63634 0.54445 0.60346 0.0
C949 C 0.63401 0.52602 0.62869 0.0
C950 C 0.6433 0.55384 0.5458 0.0
C951 C 0.63087 0.64297 0.5963 0.0
H952 H 0.65696 0.80455 0.46847 0.0
H953 H 0.65645 0.77569 0.51605 0.0
H954 H 0.62045 0.70998 0.46194 0.0
H955 H 0.62094 0.7389 0.41413 0.0
H956 H 0.64117 0.46638 0.58738 0.0
H957 H 0.64482 0.49881 0.54302 0.0
H958 H 0.63509 0.56621 0.60812 0.0
H959 H 0.63085 0.53391 0.65245 0.0
Tb960 Tb 0.3507 0.39653 0.28704 0.0
Tb961 Tb 0.41793 0.39228 0.27987 0.0
C962 C 0.37875 0.34858 0.25193 0.0
C963 C 0.27997 0.39272 0.32007 0.0
C964 C 0.24233 0.38784 0.37013 0.0
C965 C 0.2331 0.38939 0.33861 0.0
C966 C 0.25185 0.39189 0.31372 0.0
C967 C 0.28931 0.39046 0.35144 0.0
C968 C 0.2706 0.38797 0.37631 0.0
C969 C 0.29934 0.39539 0.29377 0.0
O970 O 0.36582 0.3768 0.33033 0.0
O971 O 0.41013 0.39216 0.33111 0.0
O972 O 0.40868 0.43584 0.27953 0.0
O973 O 0.36658 0.43553 0.30418 0.0
O974 O 0.45037 0.36585 0.2684 0.0
O975 O 0.4583 0.40739 0.28226 0.0
O976 O 0.40393 0.40525 0.23296 0.0
O977 O 0.35878 0.4174 0.24253 0.0
O978 O 0.35945 0.3669 0.25035 0.0
O979 O 0.39958 0.35225 0.27104 0.0
C980 C 0.38845 0.38247 0.34593 0.0
O981 O 0.31375 0.41783 0.29301 0.0
O982 O 0.31432 0.37389 0.28828 0.0
C983 C 0.3878 0.44875 0.2924 0.0
C984 C 0.48713 0.38761 0.24261 0.0
C985 C 0.52115 0.39024 0.18813 0.0
C986 C 0.52241 0.36771 0.20888 0.0
C987 C 0.50558 0.36642 0.23579 0.0
C988 C 0.48579 0.41013 0.22195 0.0
C989 C 0.50247 0.41137 0.19491 0.0
C990 C 0.46867 0.38507 0.27039 0.0
C991 C 0.38083 0.41723 0.22458 0.0
H992 H 0.21142 0.38938 0.33334 0.0
H993 H 0.24441 0.39339 0.28954 0.0
H994 H 0.31102 0.39075 0.35665 0.0
H995 H 0.27819 0.38638 0.40042 0.0
H996 H 0.53665 0.35118 0.20451 0.0
H997 H 0.50691 0.34876 0.25127 0.0
H998 H 0.47175 0.4267 0.22664 0.0
H999 H 0.50056 0.42877 0.17914 0.0
Tb1000 Tb 0.36879 0.60518 1.03919 0.0
Tb1001 Tb 0.37126 0.67282 1.03206 0.0
C1002 C 0.41474 0.63457 0.99937 0.0
C1003 C 0.36974 0.53379 0.072 0.0
C1004 C 0.37366 0.49421 0.12024 0.0
C1005 C 0.36446 0.48687 0.08983 0.0
C1006 C 0.36262 0.50654 0.06584 0.0
C1007 C 0.37825 0.54139 0.10258 0.0
C1008 C 0.38021 0.52171 0.12655 0.0
C1009 C 0.36886 0.55377 0.04604 0.0
O1010 O 0.38949 0.62071 0.08144 0.0
O1011 O 0.3715 0.66385 0.08302 0.0
O1012 O 0.32835 0.66235 1.03412 0.0
O1013 O 0.32968 0.61987 0.05772 0.0
O1014 O 0.3951 0.7087 1.03367 0.0
O1015 O 0.3518 0.71069 1.02516 0.0
O1016 O 0.36033 0.65866 0.98468 0.0
O1017 O 0.34746 0.61404 0.99527 0.0
O1018 O 0.39874 0.61322 1.00219 0.0
O1019 O 0.41044 0.65728 1.01524 0.0
C1020 C 0.38279 0.64279 0.09738 0.0
O1021 O 0.34674 0.56845 0.04389 0.0
O1022 O 0.39081 0.56849 0.04203 0.0
C1023 C 0.31609 0.6414 0.04741 0.0
C1024 C 0.37891 0.74227 0.99731 0.0
C1025 C 0.38285 0.77526 0.94221 0.0
C1026 C 0.36578 0.78288 0.96766 0.0
C1027 C 0.3638 0.76652 0.99484 0.0
C1028 C 0.39637 0.73481 0.97228 0.0
C1029 C 0.39821 0.75105 0.94492 0.0
C1030 C 0.3747 0.72418 1.02503 0.0
C1031 C 0.34805 0.63567 0.97664 0.0
H1032 H 0.35924 0.46583 0.08447 0.0
H1033 H 0.35595 0.5004 0.04235 0.0
H1034 H 0.38361 0.56243 0.10778 0.0
H1035 H 0.38684 0.52795 0.15001 0.0
H1036 H 0.35386 0.80152 0.96651 0.0
H1037 H 0.35012 0.77264 1.01381 0.0
H1038 H 0.40828 0.71624 0.97371 0.0
H1039 H 0.41119 0.74431 0.92562 0.0
Tb1040 Tb 0.16187 0.62042 0.78974 0.0
Tb1041 Tb 0.09475 0.6227 0.78036 0.0
C1042 C 0.13344 0.66597 0.74938 0.0
C1043 C 0.23324 0.62635 0.82214 0.0
C1044 C 0.27271 0.63181 0.87022 0.0
C1045 C 0.27976 0.63661 0.83839 0.0
C1046 C 0.26012 0.63387 0.8145 0.0
C1047 C 0.22597 0.62199 0.85395 0.0
C1048 C 0.24564 0.62458 0.87783 0.0
C1049 C 0.21319 0.62319 0.79657 0.0
O1050 O 0.1453 0.64057 0.83183 0.0
O1051 O 0.10193 0.6229 0.83181 0.0
O1052 O 0.10468 0.57972 0.78565 0.0
O1053 O 0.14785 0.5809 0.80788 0.0
O1054 O 0.0592 0.64704 0.77921 0.0
O1055 O 0.05691 0.60362 0.77189 0.0
O1056 O 0.11036 0.61056 0.73385 0.0
O1057 O 0.15403 0.59676 0.74734 0.0
O1058 O 0.15361 0.64851 0.75107 0.0
O1059 O 0.11125 0.66242 0.7664 0.0
C1060 C 0.12284 0.63372 0.84702 0.0
O1061 O 0.19942 0.60037 0.7961 0.0
O1062 O 0.19756 0.64426 0.79129 0.0
C1063 C 0.12578 0.56746 0.79872 0.0
C1064 C 0.02633 0.63053 0.74236 0.0
C1065 C 0.99318 0.6339 0.68741 0.0
C1066 C 0.98264 0.62345 0.71605 0.0
C1067 C 0.99903 0.62185 0.74323 0.0
C1068 C 0.03699 0.6412 0.7139 0.0
C1069 C 0.0205 0.64299 0.68667 0.0
C1070 C 0.0437 0.62663 0.7707 0.0
C1071 C 0.13297 0.59677 0.72795 0.0
H1072 H 0.30056 0.64185 0.83193 0.0
H1073 H 0.26597 0.63736 0.79 0.0
H1074 H 0.20522 0.61639 0.86023 0.0
H1075 H 0.23974 0.62089 0.90228 0.0
H1076 H 0.96166 0.6164 0.71739 0.0
H1077 H 0.99048 0.61338 0.76485 0.0
H1078 H 0.05815 0.64769 0.7126 0.0
H1079 H 0.0293 0.65076 0.66485 0.0
Tb1080 Tb 0.14256 0.41269 0.53841 0.0
Tb1081 Tb 0.14462 0.345 0.53151 0.0
C1082 C 0.09942 0.38041 0.49805 0.0
C1083 C 0.135 0.48317 0.57153 0.0
C1084 C 0.13206 0.52074 0.62185 0.0
C1085 C 0.13499 0.53002 0.59048 0.0
C1086 C 0.13651 0.51131 0.56547 0.0
C1087 C 0.1313 0.47382 0.60272 0.0
C1088 C 0.12971 0.4925 0.62772 0.0
C1089 C 0.13774 0.46386 0.54519 0.0
O1090 O 0.12272 0.3956 0.58025 0.0
O1091 O 0.14364 0.35388 0.58274 0.0
O1092 O 0.1868 0.35778 0.53545 0.0
O1093 O 0.18298 0.40124 0.55643 0.0
O1094 O 0.12265 0.30791 0.53298 0.0
O1095 O 0.16587 0.3082 0.52377 0.0
O1096 O 0.15634 0.36001 0.48447 0.0
O1097 O 0.1652 0.4056 0.49525 0.0
O1098 O 0.11432 0.40253 0.5005 0.0
O1099 O 0.10469 0.3583 0.51458 0.0
C1100 C 0.13086 0.37433 0.5967 0.0
O1101 O 0.1611 0.45123 0.54318 0.0
O1102 O 0.11724 0.44723 0.54094 0.0
C1103 C 0.1978 0.38011 0.54721 0.0
C1104 C 0.14008 0.2753 0.49588 0.0
C1105 C 0.13679 0.24223 0.44064 0.0
C1106 C 0.15723 0.23771 0.4636 0.0
C1107 C 0.15893 0.25414 0.49076 0.0
C1108 C 0.11899 0.27927 0.47363 0.0
C1109 C 0.11736 0.26289 0.4463 0.0
C1110 C 0.14366 0.29358 0.5237 0.0
C1111 C 0.16733 0.38386 0.47708 0.0
H1112 H 0.1369 0.55167 0.58542 0.0
H1113 H 0.13929 0.51878 0.54144 0.0
H1114 H 0.12996 0.45211 0.60772 0.0
H1115 H 0.12696 0.48489 0.65168 0.0
H1116 H 0.17196 0.22138 0.46065 0.0
H1117 H 0.17522 0.25048 0.50768 0.0
H1118 H 0.10395 0.29521 0.47713 0.0
H1119 H 0.10119 0.26673 0.4293 0.0
Tb1120 Tb 0.35427 0.62143 0.29378 0.0
Tb1121 Tb 0.42163 0.62154 0.30122 0.0
C1122 C 0.38462 0.66543 0.33446 0.0
C1123 C 0.28364 0.62892 0.26065 0.0
C1124 C 0.24596 0.63384 0.21056 0.0
C1125 C 0.23675 0.62957 0.24175 0.0
C1126 C 0.25551 0.62708 0.26663 0.0
C1127 C 0.29292 0.63406 0.2297 0.0
C1128 C 0.27418 0.63662 0.20483 0.0
C1129 C 0.303 0.62523 0.28685 0.0
O1130 O 0.37114 0.64321 0.25321 0.0
O1131 O 0.41303 0.62283 0.25001 0.0
O1132 O 0.41053 0.57894 0.295 0.0
O1133 O 0.36745 0.58262 0.27301 0.0
O1134 O 0.45806 0.64459 0.29994 0.0
O1135 O 0.45885 0.60154 0.31019 0.0
O1136 O 0.4064 0.60945 0.34793 0.0
O1137 O 0.3621 0.59696 0.33549 0.0
O1138 O 0.36368 0.64884 0.33269 0.0
O1139 O 0.40667 0.66128 0.31734 0.0
C1140 C 0.3924 0.63558 0.23642 0.0
O1141 O 0.31625 0.60213 0.28734 0.0
O1142 O 0.31906 0.64588 0.29266 0.0
C1143 C 0.38877 0.56793 0.28188 0.0
C1144 C 0.49047 0.62879 0.33767 0.0
C1145 C 0.52373 0.63326 0.3924 0.0
C1146 C 0.53437 0.62277 0.36384 0.0
C1147 C 0.51792 0.62063 0.33675 0.0
C1148 C 0.47974 0.63951 0.36605 0.0
C1149 C 0.49629 0.64187 0.39316 0.0
C1150 C 0.4729 0.6241 0.30967 0.0
C1151 C 0.38349 0.59629 0.35436 0.0
H1152 H 0.21513 0.62727 0.24671 0.0
H1153 H 0.24808 0.62325 0.29048 0.0
H1154 H 0.3146 0.63572 0.22476 0.0
H1155 H 0.28175 0.64034 0.18103 0.0
H1156 H 0.55545 0.61605 0.36254 0.0
H1157 H 0.52652 0.61209 0.3152 0.0
H1158 H 0.45845 0.64549 0.36741 0.0
H1159 H 0.48742 0.64964 0.41494 0.0
Tb1160 Tb 0.14552 0.60238 0.04409 0.0
Tb1161 Tb 0.14107 0.66938 0.05219 0.0
C1162 C 0.09906 0.62979 0.08311 0.0
C1163 C 0.14083 0.5311 1.01179 0.0
C1164 C 0.13515 0.49205 0.9633 0.0
C1165 C 0.13349 0.48411 0.99528 0.0
C1166 C 0.13634 0.50355 1.01937 0.0
C1167 C 0.14194 0.53924 0.97988 0.0
C1168 C 0.13924 0.51979 0.95577 0.0
C1169 C 0.14425 0.55099 1.03748 0.0
O1170 O 0.12392 0.61784 1.0025 0.0
O1171 O 0.14012 0.66174 1.00075 0.0
O1172 O 0.18434 0.66057 0.04848 0.0
O1173 O 0.18425 0.61784 1.0253 0.0
O1174 O 0.11493 0.70311 0.0584 0.0
O1175 O 0.15835 0.70881 0.05521 0.0
O1176 O 0.15494 0.65491 0.09879 0.0
O1177 O 0.16887 0.61096 0.08644 0.0
O1178 O 0.1176 0.61058 0.08286 0.0
O1179 O 0.10172 0.6512 0.06464 0.0
C1180 C 0.12954 0.6402 0.98648 0.0
O1181 O 0.16661 0.56549 1.037 0.0
O1182 O 0.1229 0.5659 0.04384 0.0
C1183 C 0.1972 0.63998 1.0351 0.0
C1184 C 0.13455 0.73756 0.0907 0.0
C1185 C 0.13446 0.77124 0.1454 0.0
C1186 C 0.14258 0.7817 0.11571 0.0
C1187 C 0.14254 0.76505 0.08865 0.0
C1188 C 0.12665 0.7269 0.12036 0.0
C1189 C 0.12652 0.74362 0.14745 0.0
C1190 C 0.13508 0.72024 0.06192 0.0
C1191 C 0.16892 0.63245 0.10519 0.0
H1192 H 0.13071 0.46282 1.00162 0.0
H1193 H 0.13535 0.49702 0.04395 0.0
H1194 H 0.14514 0.56052 0.97368 0.0
H1195 H 0.1405 0.52637 0.93123 0.0
H1196 H 0.14873 0.80289 0.11338 0.0
H1197 H 0.14883 0.77364 0.06607 0.0
H1198 H 0.12069 0.70564 0.1226 0.0
H1199 H 0.12062 0.73485 0.17006 0.0
Tb1200 Tb 0.16243 0.39572 0.7943 0.0
Tb1201 Tb 0.09535 0.39215 0.80256 0.0
C1202 C 0.13424 0.3485 0.83224 0.0
C1203 C 0.23329 0.3915 0.76129 0.0
C1204 C 0.2713 0.38716 0.71156 0.0
C1205 C 0.28022 0.3873 0.74324 0.0
C1206 C 0.26129 0.38953 0.76797 0.0
C1207 C 0.22421 0.39057 0.72973 0.0
C1208 C 0.24312 0.38838 0.70501 0.0
C1209 C 0.2138 0.39423 0.78746 0.0
O1210 O 0.14673 0.37569 0.75166 0.0
O1211 O 0.10299 0.39235 0.75121 0.0
O1212 O 0.10516 0.43539 0.80078 0.0
O1213 O 0.1476 0.43519 0.77699 0.0
O1214 O 0.06042 0.36709 0.80568 0.0
O1215 O 0.05686 0.4108 0.80811 0.0
O1216 O 0.11028 0.40285 0.84981 0.0
O1217 O 0.15403 0.41757 0.83795 0.0
O1218 O 0.15429 0.36619 0.83151 0.0
O1219 O 0.11221 0.35225 0.81502 0.0
C1220 C 0.12425 0.38201 0.73622 0.0
O1221 O 0.19955 0.41673 0.78815 0.0
O1222 O 0.19866 0.37283 0.79294 0.0
C1223 C 0.1258 0.44826 0.78751 0.0
C1224 C 0.02706 0.38537 0.8406 0.0
C1225 C 0.99388 0.38349 0.89562 0.0
C1226 C 0.98355 0.39374 0.86679 0.0
C1227 C 0.99995 0.39459 0.83957 0.0
C1228 C 0.03758 0.37519 0.86937 0.0
C1229 C 0.02108 0.37416 0.89662 0.0
C1230 C 0.04432 0.3876 0.81189 0.0
C1231 C 0.13283 0.41625 0.85716 0.0
H1232 H 0.30184 0.38643 0.7488 0.0
H1233 H 0.26852 0.39002 0.7923 0.0
H1234 H 0.20259 0.39175 0.72425 0.0
H1235 H 0.23576 0.3879 0.68073 0.0
H1236 H 0.96266 0.401 0.86529 0.0
H1237 H 0.99151 0.40269 0.8177 0.0
H1238 H 0.0586 0.36831 0.87083 0.0
H1239 H 0.02974 0.36658 0.91861 0.0
Tb1240 Tb 0.37221 0.41294 0.54418 0.0
Tb1241 Tb 0.37008 0.34569 0.55123 0.0
C1242 C 0.41573 0.38072 0.58371 0.0
C1243 C 0.38082 0.48323 0.51115 0.0
C1244 C 0.38391 0.52073 0.46083 0.0
C1245 C 0.38359 0.53003 0.49237 0.0
C1246 C 0.38197 0.51134 0.5174 0.0
C1247 C 0.38202 0.47379 0.47974 0.0
C1248 C 0.38363 0.49244 0.45472 0.0
C1249 C 0.37787 0.46402 0.53754 0.0
O1250 O 0.39122 0.39576 0.50179 0.0
O1251 O 0.37001 0.35413 0.4999 0.0
O1252 O 0.32786 0.35817 0.5467 0.0
O1253 O 0.33157 0.40194 0.52648 0.0
O1254 O 0.39215 0.30865 0.54934 0.0
O1255 O 0.34928 0.30898 0.56043 0.0
O1256 O 0.35892 0.3609 0.59835 0.0
O1257 O 0.34902 0.40605 0.58697 0.0
O1258 O 0.40025 0.40249 0.58221 0.0
O1259 O 0.41064 0.35928 0.56596 0.0
C1260 C 0.38267 0.37448 0.48558 0.0
O1261 O 0.3543 0.45174 0.53966 0.0
O1262 O 0.39811 0.44709 0.54164 0.0
C1263 C 0.31682 0.38058 0.53522 0.0
C1264 C 0.37631 0.27684 0.58755 0.0
C1265 C 0.38299 0.24247 0.64102 0.0
C1266 C 0.38382 0.23166 0.61004 0.0
C1267 C 0.38052 0.2487 0.58358 0.0
C1268 C 0.37572 0.28779 0.61842 0.0
C1269 C 0.37889 0.27073 0.64493 0.0
C1270 C 0.37145 0.29436 0.55955 0.0
C1271 C 0.34729 0.38448 0.60544 0.0
H1272 H 0.38376 0.55173 0.49758 0.0
H1273 H 0.38117 0.51885 0.5416 0.0
H1274 H 0.38134 0.45207 0.47461 0.0
H1275 H 0.3843 0.48482 0.43057 0.0
H1276 H 0.38645 0.2099 0.60629 0.0
H1277 H 0.38086 0.23983 0.55999 0.0
H1278 H 0.37252 0.30949 0.62203 0.0
H1279 H 0.37821 0.27962 0.66849 0.0
C1280 C 0.31351 0.15035 0.18379 0.0
C1281 C 0.29238 0.13087 0.18555 0.0
C1282 C 0.33218 0.15026 0.15842 0.0
C1283 C 0.33059 0.13038 0.13427 0.0
H1284 H 0.31524 0.16611 0.20178 0.0
H1285 H 0.34777 0.166 0.15762 0.0
S1286 S 0.27942 0.07406 0.12927 0.0
N1287 N 0.27143 0.09069 0.16206 0.0
N1288 N 0.30613 0.09026 0.11446 0.0
C1289 C 0.30978 0.11039 0.13636 0.0
C1290 C 0.29077 0.11071 0.16196 0.0
C1291 C 0.15764 0.0626 0.38877 0.0
C1292 C 0.13578 0.08116 0.38526 0.0
C1293 C 0.15838 0.04388 0.41382 0.0
C1294 C 0.13746 0.04304 0.4366 0.0
H1295 H 0.1741 0.06191 0.37157 0.0
H1296 H 0.17548 0.02984 0.41533 0.0
S1297 S 0.07589 0.08724 0.43914 0.0
N1298 N 0.0928 0.09769 0.40741 0.0
N1299 N 0.09442 0.06235 0.45467 0.0
C1300 C 0.11576 0.06174 0.43401 0.0
C1301 C 0.11486 0.08081 0.40829 0.0
C1302 C 0.22781 0.9008 0.66019 0.0
C1303 C 0.22462 0.88257 0.68568 0.0
C1304 C 0.20942 0.9009 0.63483 0.0
C1305 C 0.18713 0.88263 0.63378 0.0
H1306 H 0.24466 0.91521 0.65988 0.0
H1307 H 0.21319 0.91509 0.61554 0.0
S1308 S 0.1696 0.83091 0.69502 0.0
N1309 N 0.19754 0.84584 0.7087 0.0
N1310 N 0.16269 0.84606 0.66088 0.0
C1311 C 0.18354 0.86439 0.65929 0.0
C1312 C 0.2023 0.8644 0.68531 0.0
C1313 C 0.40045 0.93338 0.90935 0.0
C1314 C 0.38075 0.93545 0.88507 0.0
C1315 C 0.39997 0.95116 0.93553 0.0
C1316 C 0.37974 0.97143 0.93823 0.0
H1317 H 0.41643 0.91809 0.90806 0.0
H1318 H 0.41546 0.94906 0.95377 0.0
S1319 S 0.32508 0.98723 0.8802 0.0
N1320 N 0.34135 0.96079 0.86489 0.0
N1321 N 0.34065 0.99375 0.91412 0.0
C1322 C 0.36016 0.97392 0.91415 0.0
C1323 C 0.3606 0.95603 0.88755 0.0
C1324 C 0.33083 0.90553 0.4298 0.0
C1325 C 0.33288 0.88171 0.44833 0.0
C1326 C 0.31211 0.90718 0.40466 0.0
C1327 C 0.29445 0.88526 0.3977 0.0
H1328 H 0.3435 0.92315 0.43508 0.0
H1329 H 0.31087 0.92602 0.39118 0.0
S1330 S 0.29155 0.81851 0.4394 0.0
N1331 N 0.31558 0.83585 0.45821 0.0
N1332 N 0.28056 0.83887 0.41081 0.0
C1333 C 0.29653 0.86123 0.41582 0.0
C1334 C 0.31574 0.85946 0.44117 0.0
C1335 C 0.40124 0.0608 0.65014 0.0
C1336 C 0.38022 0.04123 0.64785 0.0
C1337 C 0.40213 0.07944 0.67554 0.0
C1338 C 0.38178 0.07939 0.69922 0.0
H1339 H 0.41743 0.06129 0.63258 0.0
H1340 H 0.41902 0.09376 0.67675 0.0
S1341 S 0.32152 0.03282 0.70265 0.0
N1342 N 0.33808 0.02354 0.67028 0.0
N1343 N 0.33949 0.05816 0.71794 0.0
C1344 C 0.36025 0.06022 0.69656 0.0
C1345 C 0.35955 0.04124 0.67092 0.0
C1346 C 0.18754 0.1528 0.92572 0.0
C1347 C 0.18925 0.13258 0.94947 0.0
C1348 C 0.2062 0.15343 0.90037 0.0
C1349 C 0.22746 0.13414 0.89822 0.0
H1350 H 0.17181 0.16836 0.92679 0.0
H1351 H 0.20433 0.1694 0.88265 0.0
S1352 S 0.24081 0.07663 0.95342 0.0
N1353 N 0.21399 0.09239 0.96854 0.0
N1354 N 0.24869 0.09381 0.92096 0.0
C1355 C 0.22923 0.11367 0.92145 0.0
C1356 C 0.21022 0.11282 0.94703 0.0
C1357 C 0.11771 0.93415 0.17385 0.0
C1358 C 0.13758 0.93572 0.19803 0.0
C1359 C 0.11816 0.95229 0.14797 0.0
C1360 C 0.13855 0.97246 0.1454 0.0
H1361 H 0.10159 0.91898 0.175 0.0
H1362 H 0.10255 0.95052 0.12983 0.0
S1363 S 0.19378 0.98702 0.20315 0.0
N1364 N 0.17738 0.96051 0.21818 0.0
N1365 N 0.17802 0.99411 0.16951 0.0
C1366 C 0.1583 0.97447 0.16936 0.0
C1367 C 0.15789 0.9562 0.19567 0.0
C1368 C 0.71696 0.9097 0.9146 0.0
C1369 C 0.72102 0.88685 0.89504 0.0
C1370 C 0.69862 0.9088 0.94 0.0
C1371 C 0.68369 0.88488 0.94712 0.0
H1372 H 0.72827 0.92843 0.91037 0.0
H1373 H 0.69675 0.92694 0.9546 0.0
S1374 S 0.68645 0.81957 0.90209 0.0
N1375 N 0.70824 0.83984 0.8835 0.0
N1376 N 0.67367 0.83792 0.93148 0.0
C1377 C 0.68699 0.86204 0.92706 0.0
C1378 C 0.70567 0.86307 0.90098 0.0
C1379 C 0.85713 0.97357 0.66571 0.0
C1380 C 0.87701 0.9725 0.64169 0.0
C1381 C 0.85774 0.9554 0.69135 0.0
C1382 C 0.87839 0.93542 0.6942 0.0
H1383 H 0.84109 0.98884 0.6649 0.0
H1384 H 0.84229 0.95774 0.70959 0.0
S1385 S 0.93461 0.9233 0.63664 0.0
N1386 N 0.91752 0.94941 0.62165 0.0
N1387 N 0.91852 0.91488 0.66972 0.0
C1388 C 0.89797 0.93357 0.66979 0.0
C1389 C 0.8973 0.95215 0.64356 0.0
C1390 C 0.8109 0.15046 0.40308 0.0
C1391 C 0.79675 0.12585 0.39767 0.0
C1392 C 0.8297 0.15282 0.42806 0.0
C1393 C 0.83541 0.13047 0.44802 0.0
H1394 H 0.80679 0.16825 0.38848 0.0
H1395 H 0.83952 0.17239 0.43208 0.0
S1396 S 0.80446 0.06125 0.44285 0.0
N1397 N 0.79018 0.07854 0.41353 0.0
N1398 N 0.82571 0.08278 0.46031 0.0
C1399 C 0.82199 0.10549 0.4422 0.0
C1400 C 0.80256 0.10325 0.4171 0.0
C1401 C 0.61872 0.06445 0.1492 0.0
C1402 C 0.63541 0.04101 0.14945 0.0
C1403 C 0.61882 0.08287 0.17483 0.0
C1404 C 0.63605 0.0787 0.20116 0.0
H1405 H 0.60528 0.06837 0.12926 0.0
H1406 H 0.60542 0.1005 0.17394 0.0
S1407 S 0.68376 0.02024 0.21281 0.0
N1408 N 0.66965 0.01467 0.17783 0.0
N1409 N 0.67001 0.04892 0.22585 0.0
C1410 C 0.65295 0.0553 0.20142 0.0
C1411 C 0.65258 0.03655 0.1756 0.0
C1412 C 0.71015 0.11032 0.67561 0.0
C1413 C 0.72097 0.13421 0.68924 0.0
C1414 C 0.69178 0.11165 0.65014 0.0
C1415 C 0.68327 0.13694 0.63757 0.0
H1416 H 0.71665 0.0904 0.68399 0.0
H1417 H 0.68472 0.09264 0.63976 0.0
S1418 S 0.704 0.20558 0.66689 0.0
N1419 N 0.72072 0.1839 0.68986 0.0
N1420 N 0.68606 0.18657 0.64206 0.0
C1421 C 0.69306 0.16106 0.65197 0.0
C1422 C 0.71202 0.15965 0.67771 0.0
C1423 C 0.66128 0.97423 0.41507 0.0
C1424 C 0.64011 0.97568 0.43751 0.0
C1425 C 0.66037 0.95543 0.39009 0.0
C1426 C 0.63811 0.93734 0.38623 0.0
H1427 H 0.6787 0.98786 0.41677 0.0
H1428 H 0.67709 0.9557 0.37321 0.0
S1429 S 0.5777 0.93255 0.43946 0.0
N1430 N 0.5965 0.95721 0.45503 0.0
N1431 N 0.59468 0.92166 0.408 0.0
C1432 C 0.61703 0.93816 0.40903 0.0
C1433 C 0.61806 0.95735 0.43466 0.0
C1434 C 0.82756 0.90873 0.14898 0.0
C1435 C 0.83531 0.88331 0.13611 0.0
C1436 C 0.80951 0.91038 0.17467 0.0
C1437 C 0.79829 0.88669 0.18834 0.0
H1438 H 0.83491 0.92764 0.13859 0.0
H1439 H 0.80349 0.93042 0.18315 0.0
S1440 S 0.81359 0.81505 0.16555 0.0
N1441 N 0.83163 0.83375 0.14047 0.0
N1442 N 0.79757 0.83699 0.18886 0.0
C1443 C 0.80662 0.86109 0.17666 0.0
C1444 C 0.82525 0.85936 0.1506 0.0
C1445 C 0.90054 0.0818 0.90804 0.0
C1446 C 0.88247 0.07871 0.88226 0.0
C1447 C 0.90018 0.06332 0.93362 0.0
C1448 C 0.88211 0.0409 0.93392 0.0
H1449 H 0.91501 0.09858 0.9085 0.0
H1450 H 0.91438 0.06634 0.95306 0.0
S1451 S 0.83081 0.02336 0.8724 0.0
N1452 N 0.84602 0.05112 0.85883 0.0
N1453 N 0.84548 0.01684 0.90685 0.0
C1454 C 0.86397 0.0376 0.90842 0.0
C1455 C 0.86411 0.05639 0.88261 0.0
C1456 C 0.79078 0.61479 0.66148 0.0
C1457 C 0.79304 0.63373 0.68638 0.0
C1458 C 0.80921 0.61496 0.63616 0.0
C1459 C 0.83064 0.63422 0.63454 0.0
H1460 H 0.77457 0.59966 0.66153 0.0
H1461 H 0.80608 0.60021 0.61729 0.0
S1462 S 0.84578 0.68787 0.69434 0.0
N1463 N 0.81848 0.67204 0.70839 0.0
N1464 N 0.85342 0.67234 0.66064 0.0
C1465 C 0.8334 0.65309 0.65955 0.0
C1466 C 0.81458 0.6528 0.68554 0.0
C1467 C 0.61259 0.57431 0.90023 0.0
C1468 C 0.63605 0.5869 0.88747 0.0
C1469 C 0.61461 0.5557 0.92547 0.0
C1470 C 0.64008 0.54936 0.9391 0.0
H1471 H 0.59267 0.57788 0.88975 0.0
H1472 H 0.59617 0.5459 0.93413 0.0
S1473 S 0.70741 0.57788 0.91575 0.0
N1474 N 0.68539 0.59264 0.89148 0.0
N1475 N 0.68905 0.55766 0.93884 0.0
C1476 C 0.66352 0.56254 0.9274 0.0
C1477 C 0.66153 0.58131 0.9016 0.0
C1478 C 0.68974 0.36476 0.15527 0.0
C1479 C 0.683 0.389 0.13894 0.0
C1480 C 0.70823 0.36506 0.18077 0.0
C1481 C 0.72068 0.38955 0.19066 0.0
H1482 H 0.6816 0.34525 0.14756 0.0
H1483 H 0.7136 0.34587 0.19204 0.0
S1484 S 0.70715 0.459 0.1592 0.0
N1485 N 0.68815 0.4386 0.13708 0.0
N1486 N 0.72302 0.43885 0.18467 0.0
C1487 C 0.71308 0.41403 0.17574 0.0
C1488 C 0.69418 0.41384 0.15 0.0
C1489 C 0.85714 0.47034 0.41752 0.0
C1490 C 0.87923 0.47317 0.43852 0.0
C1491 C 0.85803 0.45158 0.39251 0.0
C1492 C 0.8812 0.43501 0.38724 0.0
H1493 H 0.83904 0.48288 0.42035 0.0
H1494 H 0.84058 0.45072 0.37669 0.0
S1495 S 0.94434 0.43438 0.43638 0.0
N1496 N 0.9247 0.45771 0.45322 0.0
N1497 N 0.92658 0.42232 0.4061 0.0
C1498 C 0.90325 0.43723 0.40866 0.0
C1499 C 0.90222 0.45633 0.43431 0.0
C1500 C 0.79651 0.40605 0.91748 0.0
C1501 C 0.79377 0.38356 0.89708 0.0
C1502 C 0.81524 0.40573 0.9425 0.0
C1503 C 0.83189 0.38274 0.9484 0.0
H1504 H 0.78389 0.42405 0.91422 0.0
H1505 H 0.81598 0.42351 0.95782 0.0
S1506 S 0.83314 0.31882 0.90069 0.0
N1507 N 0.80966 0.33798 0.88335 0.0
N1508 N 0.845 0.33715 0.93063 0.0
C1509 C 0.82989 0.36031 0.9275 0.0
C1510 C 0.81081 0.36077 0.90178 0.0
C1511 C 0.85885 0.56413 0.19221 0.0
C1512 C 0.88048 0.58296 0.19593 0.0
C1513 C 0.85858 0.54526 0.16728 0.0
C1514 C 0.87976 0.54453 0.14481 0.0
H1515 H 0.84222 0.56331 0.20919 0.0
H1516 H 0.84165 0.53101 0.16564 0.0
S1517 S 0.94081 0.58956 0.1428 0.0
N1518 N 0.92346 0.59995 0.17422 0.0
N1519 N 0.92276 0.56434 0.12722 0.0
C1520 C 0.9012 0.56355 0.14758 0.0
C1521 C 0.90162 0.58276 0.17317 0.0
C1522 C 0.72013 0.61072 0.41646 0.0
C1523 C 0.72163 0.63243 0.39473 0.0
C1524 C 0.70176 0.61132 0.44187 0.0
C1525 C 0.68421 0.6338 0.44683 0.0
H1526 H 0.73341 0.59312 0.41388 0.0
H1527 H 0.70195 0.5942 0.45821 0.0
S1528 S 0.67993 0.69578 0.39595 0.0
N1529 N 0.70387 0.67687 0.37914 0.0
N1530 N 0.66916 0.67815 0.427 0.0
C1531 C 0.68511 0.65548 0.42477 0.0
C1532 C 0.70383 0.65475 0.39871 0.0
C1533 C 0.61769 0.4371 0.67603 0.0
C1534 C 0.63537 0.44048 0.70212 0.0
C1535 C 0.6181 0.45552 0.6504 0.0
C1536 C 0.63583 0.47823 0.65029 0.0
H1537 H 0.60344 0.42013 0.67537 0.0
H1538 H 0.60416 0.45224 0.63076 0.0
S1539 S 0.68603 0.4966 0.71273 0.0
N1540 N 0.67109 0.4686 0.72608 0.0
N1541 N 0.67172 0.50287 0.67801 0.0
C1542 C 0.65359 0.48182 0.67612 0.0
C1543 C 0.65341 0.46304 0.70199 0.0
C1544 C 0.18338 0.36692 0.42387 0.0
C1545 C 0.18525 0.38602 0.44879 0.0
C1546 C 0.20161 0.36782 0.39808 0.0
C1547 C 0.22255 0.38754 0.3967 0.0
H1548 H 0.16788 0.35108 0.42436 0.0
H1549 H 0.19969 0.35265 0.37945 0.0
S1550 S 0.23617 0.44241 0.45532 0.0
N1551 N 0.20982 0.42552 0.46998 0.0
N1552 N 0.24365 0.42703 0.42156 0.0
C1553 C 0.22443 0.40691 0.42115 0.0
C1554 C 0.20588 0.4062 0.44717 0.0
C1555 C 0.35615 0.43727 0.17812 0.0
C1556 C 0.38045 0.43432 0.19566 0.0
C1557 C 0.35431 0.45618 0.15314 0.0
C1558 C 0.37654 0.47318 0.14533 0.0
H1559 H 0.33827 0.42522 0.18412 0.0
H1560 H 0.3351 0.45814 0.14052 0.0
S1561 S 0.44471 0.47345 0.1838 0.0
N1562 N 0.42723 0.4499 0.20325 0.0
N1563 N 0.42377 0.48533 0.15632 0.0
C1564 C 0.40106 0.47011 0.16229 0.0
C1565 C 0.40304 0.45068 0.18743 0.0
C1566 C 0.29689 0.61047 0.91584 0.0
C1567 C 0.29372 0.63294 0.89546 0.0
C1568 C 0.31553 0.61118 0.94095 0.0
C1569 C 0.33164 0.63454 0.947 0.0
H1570 H 0.28463 0.59222 0.91252 0.0
H1571 H 0.31659 0.59341 0.95628 0.0
S1572 S 0.33173 0.69853 0.89932 0.0
N1573 N 0.30875 0.67885 0.88183 0.0
N1574 N 0.34382 0.68046 0.92933 0.0
C1575 C 0.32926 0.65694 0.92608 0.0
C1576 C 0.3103 0.65607 0.90025 0.0
C1577 C 0.11587 0.58182 0.67445 0.0
C1578 C 0.13402 0.57829 0.70008 0.0
C1579 C 0.11549 0.5633 0.64897 0.0
C1580 C 0.13288 0.54039 0.64855 0.0
H1581 H 0.10178 0.59891 0.67412 0.0
H1582 H 0.10114 0.56663 0.62974 0.0
S1583 S 0.1843 0.52174 0.70951 0.0
N1584 N 0.17 0.54995 0.72312 0.0
N1585 N 0.16914 0.51549 0.67527 0.0
C1586 C 0.15123 0.53673 0.6738 0.0
C1587 C 0.15184 0.5556 0.69954 0.0
C1588 C 0.18429 0.64988 0.15854 0.0
C1589 C 0.18793 0.63204 0.13265 0.0
C1590 C 0.20303 0.65034 0.18386 0.0
C1591 C 0.22631 0.63341 0.18377 0.0
H1592 H 0.16685 0.66353 0.15929 0.0
H1593 H 0.19951 0.6643 0.20343 0.0
S1594 S 0.24563 0.58329 0.12165 0.0
N1595 N 0.21698 0.5971 0.10864 0.0
N1596 N 0.25183 0.59817 0.15607 0.0
C1597 C 0.2302 0.61557 0.1581 0.0
C1598 C 0.21111 0.61483 0.13259 0.0
C1599 C 0.15558 0.45164 0.89062 0.0
C1600 C 0.13373 0.43314 0.88644 0.0
C1601 C 0.15581 0.4704 0.91563 0.0
C1602 C 0.13438 0.47132 0.93773 0.0
H1603 H 0.17244 0.45232 0.87396 0.0
H1604 H 0.1729 0.48442 0.9176 0.0
S1605 S 0.07283 0.42698 0.93875 0.0
N1606 N 0.09034 0.41655 0.90747 0.0
N1607 N 0.09103 0.45192 0.95473 0.0
C1608 C 0.11276 0.45255 0.93463 0.0
C1609 C 0.11237 0.43346 0.90892 0.0
C1610 C 0.33015 0.36636 0.65769 0.0
C1611 C 0.32927 0.38643 0.63371 0.0
C1612 C 0.31164 0.36689 0.68321 0.0
C1613 C 0.29138 0.38723 0.68528 0.0
H1614 H 0.34503 0.34999 0.65663 0.0
H1615 H 0.31277 0.35096 0.70105 0.0
S1616 S 0.28057 0.44488 0.62956 0.0
N1617 N 0.30646 0.42767 0.6144 0.0
N1618 N 0.27206 0.42839 0.66228 0.0
C1619 C 0.29052 0.4076 0.66188 0.0
C1620 C 0.30937 0.40728 0.63613 0.0
C1621 C 0.40254 0.56158 0.4321 0.0
C1622 C 0.38306 0.54049 0.4343 0.0
C1623 C 0.40227 0.58 0.40652 0.0
C1624 C 0.38225 0.57817 0.38256 0.0
H1625 H 0.41841 0.56349 0.44992 0.0
H1626 H 0.41799 0.59559 0.40542 0.0
S1627 S 0.32583 0.52709 0.37876 0.0
N1628 N 0.34269 0.51936 0.41148 0.0
N1629 N 0.34196 0.55363 0.36341 0.0
C1630 C 0.36225 0.55742 0.38507 0.0
C1631 C 0.36273 0.53866 0.41092 0.0
C1632 C 0.1107 0.21401 0.40054 0.0
C1633 C 0.13567 0.22519 0.41113 0.0
C1634 C 0.10963 0.19619 0.3743 0.0
C1635 C 0.1335 0.18868 0.35776 0.0
H1636 H 0.09195 0.21824 0.41331 0.0
H1637 H 0.09015 0.1873 0.36789 0.0
S1638 S 0.20333 0.21556 0.37266 0.0
N1639 N 0.1843 0.23002 0.40034 0.0
N1640 N 0.18238 0.19606 0.35184 0.0
C1641 C 0.15835 0.20078 0.3671 0.0
C1642 C 0.15941 0.21911 0.39355 0.0
C1643 C 0.06591 0.86166 0.61648 0.0
C1644 C 0.07836 0.88585 0.6054 0.0
C1645 C 0.04693 0.86215 0.64162 0.0
C1646 C 0.03935 0.88687 0.65639 0.0
H1647 H 0.07157 0.84205 0.60646 0.0
H1648 H 0.03829 0.84298 0.64975 0.0
S1649 S 0.06501 0.95603 0.63552 0.0
N1650 N 0.08083 0.93538 0.61055 0.0
N1651 N 0.04541 0.93618 0.65763 0.0
C1652 C 0.05103 0.91125 0.64493 0.0
C1653 C 0.07045 0.91076 0.61953 0.0
C1654 C 0.35974 0.8202 0.87339 0.0
C1655 C 0.38441 0.82827 0.85888 0.0
C1656 C 0.35948 0.80257 0.89966 0.0
C1657 C 0.38389 0.79236 0.91283 0.0
H1658 H 0.34037 0.82797 0.86477 0.0
H1659 H 0.33993 0.79714 0.90999 0.0
S1660 S 0.45409 0.80687 0.88364 0.0
N1661 N 0.43398 0.82392 0.85915 0.0
N1662 N 0.43352 0.79144 0.90908 0.0
C1663 C 0.40872 0.79965 0.89809 0.0
C1664 C 0.40897 0.81743 0.87103 0.0
C1665 C 0.45211 0.15607 0.11775 0.0
C1666 C 0.44095 0.13137 0.10635 0.0
C1667 C 0.47075 0.15635 0.1432 0.0
C1668 C 0.47931 0.13194 0.15797 0.0
H1669 H 0.44562 0.17544 0.10779 0.0
H1670 H 0.4783 0.17587 0.15166 0.0
S1671 S 0.4574 0.06175 0.13613 0.0
N1672 N 0.44082 0.08176 0.11109 0.0
N1673 N 0.47578 0.08239 0.15868 0.0
C1674 C 0.46905 0.10709 0.1461 0.0
C1675 C 0.4499 0.10679 0.12041 0.0
C1676 C 0.15839 0.82346 0.20648 0.0
C1677 C 0.1354 0.82704 0.22629 0.0
C1678 C 0.15803 0.80505 0.18091 0.0
C1679 C 0.13474 0.78923 0.17404 0.0
H1680 H 0.17676 0.83542 0.21024 0.0
H1681 H 0.17612 0.80337 0.16618 0.0
S1682 S 0.06917 0.7903 0.21838 0.0
N1683 N 0.08866 0.8126 0.23726 0.0
N1684 N 0.08812 0.77807 0.18919 0.0
C1685 C 0.11183 0.79198 0.194 0.0
C1686 C 0.11212 0.81084 0.22008 0.0
C1687 C 0.46465 0.90724 0.43523 0.0
C1688 C 0.47955 0.88365 0.42717 0.0
C1689 C 0.44564 0.90707 0.46019 0.0
C1690 C 0.44077 0.88334 0.4784 0.0
H1691 H 0.46701 0.92581 0.42144 0.0
H1692 H 0.43422 0.92564 0.46473 0.0
S1693 S 0.47628 0.81671 0.46863 0.0
N1694 N 0.48956 0.83637 0.44069 0.0
N1695 N 0.45374 0.83591 0.48749 0.0
C1696 C 0.45632 0.85985 0.47136 0.0
C1697 C 0.47564 0.86002 0.44577 0.0
C1698 C 0.36565 0.22445 0.69328 0.0
C1699 C 0.38562 0.22412 0.66915 0.0
C1700 C 0.36668 0.20589 0.71881 0.0
C1701 C 0.38811 0.18686 0.72156 0.0
H1702 H 0.34862 0.23856 0.69187 0.0
H1703 H 0.35048 0.20626 0.73636 0.0
S1704 S 0.44522 0.17746 0.66471 0.0
N1705 N 0.42741 0.20309 0.6498 0.0
N1706 N 0.42936 0.16842 0.69774 0.0
C1707 C 0.4084 0.18664 0.69794 0.0
C1708 C 0.40716 0.20521 0.67175 0.0
C1709 C 0.07494 0.10976 0.95617 0.0
C1710 C 0.07959 0.13334 0.97469 0.0
C1711 C 0.05655 0.1099 0.9306 0.0
C1712 C 0.04184 0.13357 0.92237 0.0
H1713 H 0.086 0.09103 0.96101 0.0
H1714 H 0.05402 0.0913 0.91691 0.0
S1715 S 0.04605 0.20079 0.96299 0.0
N1716 N 0.06742 0.1811 0.98298 0.0
N1717 N 0.03287 0.18123 0.93489 0.0
C1718 C 0.04565 0.15713 0.94106 0.0
C1719 C 0.06449 0.15705 0.96717 0.0
C1720 C 0.90295 0.81681 0.71398 0.0
C1721 C 0.87852 0.82868 0.72513 0.0
C1722 C 0.9029 0.7984 0.68827 0.0
C1723 C 0.87842 0.79087 0.67295 0.0
H1724 H 0.9224 0.82253 0.72435 0.0
H1725 H 0.92225 0.79023 0.6801 0.0
S1726 S 0.80878 0.81506 0.6938 0.0
N1727 N 0.82901 0.83056 0.71951 0.0
N1728 N 0.82905 0.79627 0.67132 0.0
C1729 C 0.8538 0.80191 0.6845 0.0
C1730 C 0.85383 0.82072 0.71051 0.0
C1731 C 0.96727 0.15744 0.43367 0.0
C1732 C 0.97969 0.13228 0.42644 0.0
C1733 C 0.9488 0.15987 0.45902 0.0
C1734 C 0.94217 0.13731 0.47845 0.0
H1735 H 0.97101 0.17516 0.41883 0.0
H1736 H 0.93909 0.17951 0.46283 0.0
S1737 S 0.97151 0.06751 0.47138 0.0
N1738 N 0.98584 0.08486 0.4421 0.0
N1739 N 0.95118 0.08932 0.4898 0.0
C1740 C 0.95555 0.11233 0.47241 0.0
C1741 C 0.97421 0.10983 0.44637 0.0
C1742 C 0.61793 0.2255 0.19566 0.0
C1743 C 0.6405 0.22829 0.17512 0.0
C1744 C 0.61811 0.20646 0.22076 0.0
C1745 C 0.64093 0.18953 0.22647 0.0
H1746 H 0.59964 0.23751 0.19168 0.0
H1747 H 0.59987 0.20449 0.23519 0.0
S1748 S 0.70647 0.19135 0.18163 0.0
N1749 N 0.68707 0.21426 0.16373 0.0
N1750 N 0.68763 0.17867 0.21066 0.0
C1751 C 0.66408 0.19306 0.20683 0.0
C1752 C 0.66379 0.21233 0.18125 0.0
C1753 C 0.54449 0.86366 0.94136 0.0
C1754 C 0.54036 0.88737 0.923 0.0
C1755 C 0.56288 0.86357 0.96713 0.0
C1756 C 0.57764 0.88728 0.97565 0.0
H1757 H 0.53416 0.84481 0.93506 0.0
H1758 H 0.56621 0.84454 0.97972 0.0
S1759 S 0.57111 0.95556 0.93736 0.0
N1760 N 0.5505 0.93562 0.91667 0.0
N1761 N 0.58461 0.93581 0.96503 0.0
C1762 C 0.57248 0.91146 0.95831 0.0
C1763 C 0.554 0.9114 0.93204 0.0
C1764 C 0.85949 0.21133 0.9039 0.0
C1765 C 0.88309 0.2259 0.91281 0.0
C1766 C 0.85968 0.19323 0.87803 0.0
C1767 C 0.88352 0.18875 0.85993 0.0
H1768 H 0.84071 0.21378 0.91725 0.0
H1769 H 0.84099 0.18228 0.87262 0.0
S1770 S 0.95094 0.22192 0.87367 0.0
N1771 N 0.93097 0.23482 0.90153 0.0
N1772 N 0.93148 0.20088 0.85289 0.0
C1773 C 0.90719 0.20368 0.86822 0.0
C1774 C 0.90693 0.2222 0.89461 0.0
C1775 C 0.55551 0.15635 0.65229 0.0
C1776 C 0.54312 0.13144 0.66123 0.0
C1777 C 0.57292 0.15801 0.62575 0.0
C1778 C 0.5789 0.13478 0.60728 0.0
H1779 H 0.55254 0.17455 0.66654 0.0
H1780 H 0.58276 0.17737 0.6206 0.0
S1781 S 0.54891 0.06566 0.61752 0.0
N1782 N 0.53567 0.08379 0.64681 0.0
N1783 N 0.56924 0.08674 0.59797 0.0
C1784 C 0.56583 0.11007 0.61508 0.0
C1785 C 0.54777 0.10844 0.64175 0.0
C1786 C 0.61675 0.81458 0.36452 0.0
C1787 C 0.64055 0.82922 0.35615 0.0
C1788 C 0.61665 0.79602 0.39013 0.0
C1789 C 0.64031 0.79146 0.40846 0.0
H1790 H 0.59774 0.81818 0.352 0.0
H1791 H 0.59766 0.78595 0.39637 0.0
S1792 S 0.70883 0.82156 0.39395 0.0
N1793 N 0.68911 0.83562 0.36663 0.0
N1794 N 0.68876 0.80093 0.41448 0.0
C1795 C 0.66451 0.80489 0.3994 0.0
C1796 C 0.66467 0.82368 0.37335 0.0
C1797 C 0.95123 0.86057 0.11627 0.0
C1798 C 0.94068 0.8851 0.10371 0.0
C1799 C 0.96985 0.86074 0.14175 0.0
C1800 C 0.97898 0.88545 0.15534 0.0
H1801 H 0.94424 0.84102 0.10725 0.0
H1802 H 0.97689 0.84137 0.15118 0.0
S1803 S 0.95876 0.9553 0.13018 0.0
N1804 N 0.94172 0.93482 0.10608 0.0
N1805 N 0.97663 0.93506 0.15371 0.0
C1806 C 0.96934 0.9101 0.14229 0.0
C1807 C 0.95022 0.90994 0.11659 0.0
C1808 C 0.65604 0.69624 0.87476 0.0
C1809 C 0.63233 0.6915 0.85648 0.0
C1810 C 0.65596 0.71438 0.90056 0.0
C1811 C 0.63224 0.7288 0.90921 0.0
H1812 H 0.67481 0.68532 0.8697 0.0
H1813 H 0.67461 0.71688 0.91415 0.0
S1814 S 0.56487 0.72478 0.86898 0.0
N1815 N 0.58449 0.70362 0.84862 0.0
N1816 N 0.58452 0.73776 0.89711 0.0
C1817 C 0.60861 0.72509 0.89063 0.0
C1818 C 0.6086 0.70646 0.86432 0.0
C1819 C 0.5617 0.3692 0.11444 0.0
C1820 C 0.57764 0.39252 0.10773 0.0
C1821 C 0.54318 0.36879 0.14002 0.0
C1822 C 0.53966 0.39172 0.1599 0.0
H1823 H 0.56409 0.35076 0.10046 0.0
H1824 H 0.53169 0.35022 0.14446 0.0
S1825 S 0.57574 0.45822 0.15225 0.0
N1826 N 0.58781 0.43958 0.12274 0.0
N1827 N 0.5535 0.43851 0.17085 0.0
C1828 C 0.55492 0.41539 0.153 0.0
C1829 C 0.57376 0.41585 0.12698 0.0
C1830 C 0.85939 0.31855 0.37177 0.0
C1831 C 0.88435 0.32871 0.35988 0.0
C1832 C 0.85858 0.30032 0.39754 0.0
C1833 C 0.88267 0.29181 0.41291 0.0
H1834 H 0.84019 0.3251 0.36143 0.0
H1835 H 0.83883 0.29354 0.40617 0.0
S1836 S 0.95344 0.31133 0.39047 0.0
N1837 N 0.93393 0.32792 0.3649 0.0
N1838 N 0.93231 0.29393 0.4135 0.0
C1839 C 0.90782 0.30126 0.40088 0.0
C1840 C 0.90869 0.31957 0.37431 0.0
C1841 C 0.9433 0.61029 0.62374 0.0
C1842 C 0.93843 0.63406 0.60565 0.0
C1843 C 0.96148 0.61036 0.6495 0.0
C1844 C 0.97573 0.63416 0.65834 0.0
H1845 H 0.93252 0.59147 0.61847 0.0
H1846 H 0.96415 0.59163 0.6629 0.0
S1847 S 0.97094 0.70184 0.61886 0.0
N1848 N 0.95 0.6821 0.59828 0.0
N1849 N 0.98418 0.6821 0.64674 0.0
C1850 C 0.9718 0.6579 0.64 0.0
C1851 C 0.95317 0.65789 0.61369 0.0
C1852 C 0.65657 0.32693 0.70724 0.0
C1853 C 0.63296 0.33058 0.72602 0.0
C1854 C 0.6568 0.30896 0.6813 0.0
C1855 C 0.63353 0.29365 0.67306 0.0
H1856 H 0.675 0.33849 0.7121 0.0
H1857 H 0.67534 0.30722 0.66735 0.0
S1858 S 0.56655 0.29496 0.71438 0.0
N1859 N 0.58566 0.31674 0.73457 0.0
N1860 N 0.58631 0.28284 0.68585 0.0
C1861 C 0.61 0.29638 0.69201 0.0
C1862 C 0.60966 0.31486 0.71845 0.0
C1863 C 0.94374 0.40697 0.95908 0.0
C1864 C 0.93865 0.3831 0.97694 0.0
C1865 C 0.96205 0.407 0.93343 0.0
C1866 C 0.97622 0.3832 0.9245 0.0
H1867 H 0.93304 0.42581 0.96447 0.0
H1868 H 0.9649 0.4258 0.9202 0.0
S1869 S 0.97073 0.31522 0.96318 0.0
N1870 N 0.94987 0.33493 0.98386 0.0
N1871 N 0.98423 0.33511 0.9356 0.0
C1872 C 0.972 0.35934 0.94254 0.0
C1873 C 0.95326 0.35925 0.96873 0.0
C1874 C 0.85874 0.71334 0.1805 0.0
C1875 C 0.88268 0.72718 0.17128 0.0
C1876 C 0.85862 0.69527 0.20639 0.0
C1877 C 0.88249 0.69005 0.22421 0.0
H1878 H 0.83994 0.71629 0.16733 0.0
H1879 H 0.83967 0.68484 0.21198 0.0
S1880 S 0.95068 0.72129 0.20976 0.0
N1881 N 0.93088 0.73477 0.1821 0.0
N1882 N 0.9308 0.7008 0.23076 0.0
C1883 C 0.90648 0.70431 0.21569 0.0
C1884 C 0.90654 0.72285 0.18928 0.0
C1885 C 0.57322 0.61048 0.45684 0.0
C1886 C 0.5779 0.63445 0.47467 0.0
C1887 C 0.55533 0.61026 0.43082 0.0
C1888 C 0.54115 0.63393 0.42147 0.0
H1889 H 0.58392 0.59172 0.46253 0.0
H1890 H 0.55277 0.59138 0.41766 0.0
S1891 S 0.54556 0.70204 0.45995 0.0
N1892 N 0.56629 0.68257 0.48111 0.0
N1893 N 0.53259 0.68198 0.4322 0.0
C1894 C 0.54493 0.65788 0.43947 0.0
C1895 C 0.56329 0.65818 0.46602 0.0
C1896 C 0.40347 0.2961 0.19168 0.0
C1897 C 0.37903 0.28743 0.17709 0.0
C1898 C 0.4032 0.31467 0.21722 0.0
C1899 C 0.37849 0.32562 0.22875 0.0
H1900 H 0.42298 0.28878 0.18296 0.0
H1901 H 0.42256 0.3214 0.22699 0.0
S1902 S 0.30884 0.30868 0.19957 0.0
N1903 N 0.32945 0.29049 0.17681 0.0
N1904 N 0.32888 0.32537 0.22448 0.0
C1905 C 0.3539 0.31647 0.21493 0.0
C1906 C 0.35417 0.29739 0.18922 0.0
C1907 C 0.47584 0.61529 0.94806 0.0
C1908 C 0.47294 0.63274 0.92157 0.0
C1909 C 0.45722 0.61614 0.97357 0.0
C1910 C 0.43526 0.63467 0.97358 0.0
H1911 H 0.49263 0.60087 0.94906 0.0
H1912 H 0.45999 0.60226 0.99337 0.0
S1913 S 0.41639 0.682 0.90839 0.0
N1914 N 0.44486 0.66733 0.896 0.0
N1915 N 0.41022 0.66898 0.94386 0.0
C1916 C 0.43184 0.65179 0.9471 0.0
C1917 C 0.45061 0.65086 0.92114 0.0
C1918 C 0.1108 0.71772 0.68695 0.0
C1919 C 0.13561 0.72581 0.67276 0.0
C1920 C 0.1103 0.69936 0.71269 0.0
C1921 C 0.13459 0.68805 0.725 0.0
H1922 H 0.09157 0.72549 0.67791 0.0
H1923 H 0.09064 0.69329 0.72225 0.0
S1924 S 0.20501 0.70313 0.69677 0.0
N1925 N 0.1851 0.72148 0.67336 0.0
N1926 N 0.18427 0.68718 0.72157 0.0
C1927 C 0.15957 0.69647 0.71143 0.0
C1928 C 0.16006 0.71528 0.68541 0.0
C1929 C 0.03849 0.39773 0.44587 0.0
C1930 C 0.04222 0.38027 0.41958 0.0
C1931 C 0.05678 0.3974 0.47168 0.0
C1932 C 0.0789 0.3791 0.4724 0.0
H1933 H 0.02185 0.41235 0.44602 0.0
H1934 H 0.05375 0.4117 0.49102 0.0
S1935 S 0.09775 0.32936 0.40972 0.0
N1936 N 0.06978 0.3442 0.39611 0.0
N1937 N 0.10386 0.34351 0.44463 0.0
C1938 C 0.08258 0.36128 0.44661 0.0
C1939 C 0.0643 0.36187 0.42019 0.0
C1940 C 0.40873 0.71443 0.39896 0.0
C1941 C 0.38409 0.72504 0.41108 0.0
C1942 C 0.40886 0.6962 0.37311 0.0
C1943 C 0.3843 0.68745 0.35885 0.0
H1944 H 0.42804 0.72014 0.40969 0.0
H1945 H 0.42829 0.68818 0.36504 0.0
S1946 S 0.31436 0.70987 0.38124 0.0
N1947 N 0.33461 0.72612 0.40632 0.0
N1948 N 0.33473 0.69168 0.35818 0.0
C1949 C 0.35958 0.69836 0.37042 0.0
C1950 C 0.3595 0.71718 0.39639 0.0
C1951 C 0.06251 0.65254 0.11599 0.0
C1952 C 0.07678 0.62864 0.10723 0.0
C1953 C 0.04387 0.6525 0.14147 0.0
C1954 C 0.0389 0.62861 0.15923 0.0
H1955 H 0.06649 0.67168 0.10387 0.0
H1956 H 0.03406 0.67153 0.14808 0.0
S1957 S 0.06793 0.55988 0.14354 0.0
N1958 N 0.08239 0.57981 0.11668 0.0
N1959 N 0.04757 0.57994 0.16438 0.0
C1960 C 0.05197 0.60436 0.14979 0.0
C1961 C 0.07082 0.60432 0.12387 0.0
C1962 C 0.11079 0.31573 0.86937 0.0
C1963 C 0.13517 0.3261 0.85616 0.0
C1964 C 0.11128 0.29742 0.89514 0.0
C1965 C 0.13615 0.28841 0.90838 0.0
H1966 H 0.09115 0.32264 0.8606 0.0
H1967 H 0.09204 0.29048 0.90504 0.0
S1968 S 0.20567 0.3083 0.88161 0.0
N1969 N 0.1849 0.32507 0.85762 0.0
N1970 N 0.18573 0.29071 0.9058 0.0
C1971 C 0.16064 0.2979 0.89473 0.0
C1972 C 0.16016 0.31671 0.86873 0.0
C1973 C 0.46859 0.40464 0.6439 0.0
C1974 C 0.47625 0.38035 0.65948 0.0
C1975 C 0.44964 0.40443 0.61884 0.0
C1976 C 0.4379 0.37986 0.60791 0.0
H1977 H 0.47663 0.42413 0.65183 0.0
H1978 H 0.44385 0.42377 0.60824 0.0
S1979 S 0.45209 0.31042 0.63967 0.0
N1980 N 0.47134 0.33091 0.66147 0.0
N1981 N 0.43595 0.33041 0.61421 0.0
C1982 C 0.44604 0.35529 0.62262 0.0
C1983 C 0.46508 0.35557 0.64847 0.0
C1984 C 0.10537 0.02201 0.2851 0.0
C1985 C 0.13003 0.03688 0.28489 0.0
C1986 C 0.10502 0.99357 0.28938 0.0
C1987 C 0.12929 0.97866 0.2942 0.0
H1988 H 0.08601 0.03247 0.28215 0.0
H1989 H 0.08543 0.98321 0.28901 0.0
S1990 S 0.19949 1.00774 0.29571 0.0
N1991 N 0.17951 0.03449 0.28979 0.0
N1992 N 0.1789 0.98102 0.29798 0.0
C1993 C 0.15418 0.99323 0.29401 0.0
C1994 C 0.15455 0.02227 0.28921 0.0
C1995 C 0.24499 0.85171 0.53517 0.0
C1996 C 0.22996 0.87624 0.53551 0.0
C1997 C 0.2735 0.85161 0.53934 0.0
C1998 C 0.28821 0.87597 0.54481 0.0
H1999 H 0.23463 0.83235 0.53163 0.0
H2000 H 0.28406 0.83216 0.5383 0.0
S2001 S 0.2583 0.94573 0.54911 0.0
N2002 N 0.23184 0.92557 0.54232 0.0
N2003 N 0.28523 0.92542 0.55057 0.0
C2004 C 0.27334 0.90066 0.54559 0.0
C2005 C 0.24433 0.90079 0.54078 0.0
C2006 C 0.41085 0.994 0.79174 0.0
C2007 C 0.38632 0.97927 0.78792 0.0
C2008 C 0.41093 0.02233 0.79647 0.0
C2009 C 0.38647 0.03747 0.79786 0.0
H2010 H 0.43038 0.98356 0.79115 0.0
H2011 H 0.43053 0.03249 0.79878 0.0
S2012 S 0.31643 0.0089 0.78994 0.0
N2013 N 0.33666 0.98202 0.78642 0.0
N2014 N 0.33682 0.03547 0.79517 0.0
C2015 C 0.36167 0.02308 0.79441 0.0
C2016 C 0.36159 0.99403 0.78933 0.0
C2017 C 0.24537 0.16212 0.04498 0.0
C2018 C 0.23036 0.13759 0.04716 0.0
C2019 C 0.27382 0.16208 1.04064 0.0
C2020 C 0.28863 0.13752 1.03764 0.0
H2021 H 0.23504 0.18166 0.04658 0.0
H2022 H 0.2843 0.1816 1.03962 0.0
S2023 S 0.25923 0.06751 1.04132 0.0
N2024 N 0.23261 0.08789 0.04591 0.0
N2025 N 0.28601 0.08783 1.03736 0.0
C2026 C 0.27392 0.11277 1.03955 0.0
C2027 C 0.24489 0.1128 0.04451 0.0
C2028 C 0.91242 0.02423 0.78637 0.0
C2029 C 0.88809 0.03937 0.78287 0.0
C2030 C 0.91203 0.99574 0.79044 0.0
C2031 C 0.88728 0.98109 0.79185 0.0
H2032 H 0.93207 0.03447 0.78615 0.0
H2033 H 0.93137 0.98511 0.79265 0.0
S2034 S 0.81774 0.0106 0.7832 0.0
N2035 N 0.8384 0.03723 0.78045 0.0
N2036 N 0.83772 0.98377 0.78845 0.0
C2037 C 0.86275 0.99586 0.78828 0.0
C2038 C 0.86315 0.0249 0.78361 0.0
C2039 C 0.74603 0.12372 0.52398 0.0
C2040 C 0.73096 0.14337 0.541 0.0
C2041 C 0.77459 0.12178 0.52711 0.0
C2042 C 0.78936 0.13936 0.54744 0.0
H2043 H 0.73574 0.10974 0.50799 0.0
H2044 H 0.7852 0.10665 0.51292 0.0
S2045 S 0.75971 0.19302 0.59929 0.0
N2046 N 0.73319 0.17996 0.5804 0.0
N2047 N 0.78661 0.17621 0.58593 0.0
C2048 C 0.77459 0.15882 0.56495 0.0
C2049 C 0.74551 0.16084 0.56183 0.0
C2050 C 0.65047 0.02461 0.2971 0.0
C2051 C 0.62579 0.03941 0.29855 0.0
C2052 C 0.65064 0.99612 0.29233 0.0
C2053 C 0.62612 0.9812 0.28932 0.0
H2054 H 0.66989 0.03518 0.29878 0.0
H2055 H 0.67015 0.98567 0.29164 0.0
S2056 S 0.55594 0.01004 0.29206 0.0
N2057 N 0.57614 0.0368 0.2968 0.0
N2058 N 0.57647 0.98343 0.28843 0.0
C2059 C 0.60131 0.99571 0.29108 0.0
C2060 C 0.60114 0.02471 0.29554 0.0
C2061 C 0.74398 0.90119 0.04403 0.0
C2062 C 0.72907 0.87661 0.04666 0.0
C2063 C 0.77252 0.90111 1.03941 0.0
C2064 C 0.78735 0.87645 1.03752 0.0
H2065 H 0.73347 0.92068 0.04481 0.0
H2066 H 0.78307 0.92056 1.03791 0.0
S2067 S 0.75806 0.80645 0.04327 0.0
N2068 N 0.73147 0.82692 0.04723 0.0
N2069 N 0.78474 0.82675 1.03863 0.0
C2070 C 0.77265 0.85176 1.04025 0.0
C2071 C 0.74367 0.85184 0.04479 0.0
C2072 C 0.60483 0.52408 0.79017 0.0
C2073 C 0.62948 0.53891 0.78958 0.0
C2074 C 0.60449 0.49573 0.795 0.0
C2075 C 0.62877 0.48083 0.79993 0.0
H2076 H 0.58548 0.53449 0.78688 0.0
H2077 H 0.58488 0.4854 0.79466 0.0
S2078 S 0.69888 0.51013 0.80199 0.0
N2079 N 0.67891 0.53673 0.79522 0.0
N2080 N 0.67835 0.48338 0.80444 0.0
C2081 C 0.65364 0.49546 0.79988 0.0
C2082 C 0.65399 0.52443 0.79454 0.0
C2083 C 0.77277 0.40164 0.04526 0.0
C2084 C 0.78726 0.37702 0.04958 0.0
C2085 C 0.74422 0.40174 1.0409 0.0
C2086 C 0.72898 0.37725 1.04101 0.0
H2087 H 0.78363 0.42094 0.04438 0.0
H2088 H 0.73399 0.42122 1.03794 0.0
S2089 S 0.75708 0.30731 0.052 0.0
N2090 N 0.78406 0.32753 0.05405 0.0
N2091 N 0.7307 0.32772 0.0461 0.0
C2092 C 0.74323 0.35255 0.04563 0.0
C2093 C 0.77224 0.35244 0.04983 0.0
C2094 C 0.91002 0.52349 0.29191 0.0
C2095 C 0.88546 0.53831 0.29471 0.0
C2096 C 0.91006 0.49502 0.28804 0.0
C2097 C 0.88554 0.47997 0.28635 0.0
H2098 H 0.92954 0.53397 0.29271 0.0
H2099 H 0.92962 0.48471 0.28652 0.0
S2100 S 0.81549 0.50884 0.29177 0.0
N2101 N 0.83578 0.53571 0.29503 0.0
N2102 N 0.83587 0.48214 0.28777 0.0
C2103 C 0.86075 0.49448 0.28879 0.0
C2104 C 0.86071 0.52359 0.29308 0.0
C2105 C 0.74357 0.66453 0.54363 0.0
C2106 C 0.72866 0.63997 0.5462 0.0
C2107 C 0.77203 0.66453 0.53946 0.0
C2108 C 0.78688 0.63996 0.53702 0.0
H2109 H 0.73314 0.68406 0.54478 0.0
H2110 H 0.78248 0.68404 0.53806 0.0
S2111 S 0.75776 0.56992 0.54215 0.0
N2112 N 0.73103 0.59028 0.54603 0.0
N2113 N 0.78448 0.59027 0.53797 0.0
C2114 C 0.77228 0.61519 0.53946 0.0
C2115 C 0.74325 0.6152 0.54418 0.0
C2116 C 0.41189 0.52224 0.2815 0.0
C2117 C 0.38745 0.53749 0.28131 0.0
C2118 C 0.41176 0.49374 0.28552 0.0
C2119 C 0.38723 0.47919 0.2902 0.0
H2120 H 0.43142 0.53246 0.27884 0.0
H2121 H 0.43117 0.48308 0.28526 0.0
S2122 S 0.31744 0.50922 0.29077 0.0
N2123 N 0.33788 0.53571 0.28536 0.0
N2124 N 0.33761 0.48224 0.29325 0.0
C2125 C 0.36256 0.49412 0.28974 0.0
C2126 C 0.36268 0.52318 0.28513 0.0
C2127 C 0.27124 0.61634 0.04301 0.0
C2128 C 0.28568 0.64111 0.04651 0.0
C2129 C 0.24279 0.61608 1.03771 0.0
C2130 C 0.22765 0.64056 1.036 0.0
H2131 H 0.28205 0.59702 0.04365 0.0
H2132 H 0.23253 0.59651 1.03573 0.0
S2133 S 0.25577 0.71089 0.04379 0.0
N2134 N 0.28255 0.69073 0.04807 0.0
N2135 N 0.22951 0.69028 1.03802 0.0
C2136 C 0.24193 0.66542 1.03948 0.0
C2137 C 0.27076 0.66568 0.0448 0.0
C2138 C 0.1502 0.49371 0.78998 0.0
C2139 C 0.12556 0.47876 0.78875 0.0
C2140 C 0.15028 0.52223 0.79489 0.0
C2141 C 0.12571 0.53698 0.79848 0.0
H2142 H 0.16963 0.48328 0.7877 0.0
H2143 H 0.16972 0.53287 0.79501 0.0
S2144 S 0.05563 0.5076 0.79726 0.0
N2145 N 0.07591 0.4811 0.79157 0.0
N2146 N 0.0761 0.53426 0.80086 0.0
C2147 C 0.10099 0.52222 0.7974 0.0
C2148 C 0.1009 0.4933 0.79249 0.0
C2149 C 0.24322 0.35726 0.54306 0.0
C2150 C 0.22824 0.38169 0.5463 0.0
C2151 C 0.27148 0.3574 0.53807 0.0
C2152 C 0.28638 0.38198 0.53597 0.0
H2153 H 0.23301 0.3376 0.54417 0.0
H2154 H 0.28176 0.33785 0.53609 0.0
S2155 S 0.25723 0.45186 0.54275 0.0
N2156 N 0.23055 0.4314 0.54684 0.0
N2157 N 0.28395 0.43166 0.53772 0.0
C2158 C 0.27179 0.4067 0.53906 0.0
C2159 C 0.24276 0.40655 0.54433 0.0
C2160 C 0.14342 0.15777 0.15208 0.0
C2161 C 0.12782 0.14074 0.13201 0.0
C2162 C 0.14177 0.15575 0.18549 0.0
C2163 C 0.12403 0.13697 0.20053 0.0
H2164 H 0.15782 0.17218 0.14195 0.0
H2165 H 0.15485 0.16883 0.19966 0.0
S2166 S 0.07785 0.08827 0.15906 0.0
N2167 N 0.09341 0.10479 0.13001 0.0
N2168 N 0.09001 0.10139 0.19233 0.0
C2169 C 0.10767 0.12041 0.18075 0.0
C2170 C 0.10965 0.12217 0.14674 0.0
C2171 C 0.14222 0.85744 0.43038 0.0
C2172 C 0.12735 0.87528 0.45024 0.0
C2173 C 0.14075 0.85932 0.39697 0.0
C2174 C 0.1239 0.87875 0.38175 0.0
H2175 H 0.15593 0.84248 0.44068 0.0
H2176 H 0.15326 0.84561 0.38293 0.0
S2177 S 0.07999 0.92979 0.42255 0.0
N2178 N 0.09466 0.91278 0.45181 0.0
N2179 N 0.09157 0.91589 0.38945 0.0
C2180 C 0.10826 0.89615 0.40129 0.0
C2181 C 0.11008 0.89454 0.43531 0.0
C2182 C 0.40802 0.89402 0.68158 0.0
C2183 C 0.3917 0.87756 0.70154 0.0
C2184 C 0.40601 0.89245 0.64817 0.0
C2185 C 0.38797 0.87399 0.63312 0.0
H2186 H 0.42182 0.90895 0.69179 0.0
H2187 H 0.41853 0.9061 0.63403 0.0
S2188 S 0.34128 0.82561 0.67435 0.0
N2189 N 0.35724 0.84166 0.70344 0.0
N2190 N 0.3538 0.83851 0.64116 0.0
C2191 C 0.37211 0.85688 0.6528 0.0
C2192 C 0.37387 0.85872 0.68678 0.0
C2193 C 0.41008 0.12295 0.90211 0.0
C2194 C 0.3936 0.13923 0.88214 0.0
C2195 C 0.40791 0.12425 0.93556 0.0
C2196 C 0.38951 0.14226 0.95077 0.0
H2197 H 0.42417 0.10832 0.89185 0.0
H2198 H 0.42058 0.1107 0.94962 0.0
S2199 S 0.34225 0.19009 0.9097 0.0
N2200 N 0.35857 0.17455 0.88052 0.0
N2201 N 0.35485 0.17719 0.94284 0.0
C2202 C 0.37351 0.15925 0.93111 0.0
C2203 C 0.37544 0.15767 0.89707 0.0
C2204 C 0.87377 0.86191 0.89557 0.0
C2205 C 0.89107 0.88095 0.88027 0.0
C2206 C 0.87265 0.85973 0.92902 0.0
C2207 C 0.88835 0.87687 0.94889 0.0
H2208 H 0.86068 0.84871 0.88157 0.0
H2209 H 0.85861 0.84508 0.93937 0.0
S2210 S 0.93713 0.93015 0.92106 0.0
N2211 N 0.92465 0.917 0.88797 0.0
N2212 N 0.92229 0.91328 0.95034 0.0
C2213 C 0.90602 0.89574 0.93387 0.0
C2214 C 0.90746 0.89766 0.89982 0.0
C2215 C 0.86554 0.13725 0.68542 0.0
C2216 C 0.89076 0.14064 0.70119 0.0
C2217 C 0.86356 0.13827 0.65213 0.0
C2218 C 0.88654 0.14354 0.63298 0.0
H2219 H 0.84716 0.13282 0.69884 0.0
H2220 H 0.8438 0.13469 0.64122 0.0
S2221 S 0.95725 0.15483 0.66192 0.0
N2222 N 0.93933 0.14974 0.69471 0.0
N2223 N 0.93532 0.15271 0.63214 0.0
C2224 C 0.91178 0.14775 0.64826 0.0
C2225 C 0.91398 0.14599 0.6823 0.0
C2226 C 0.6123 0.12798 0.4356 0.0
C2227 C 0.63085 0.1459 0.45072 0.0
C2228 C 0.61028 0.1265 0.40218 0.0
C2229 C 0.62713 0.14244 0.38225 0.0
H2230 H 0.59941 0.11467 0.44971 0.0
H2231 H 0.59611 0.11194 0.39191 0.0
S2232 S 0.67876 0.1931 0.40953 0.0
N2233 N 0.66587 0.18056 0.44273 0.0
N2234 N 0.6625 0.17739 0.38039 0.0
C2235 C 0.64542 0.16079 0.39705 0.0
C2236 C 0.64714 0.16263 0.43105 0.0
C2237 C 0.64402 0.85988 0.15237 0.0
C2238 C 0.62783 0.87672 0.13271 0.0
C2239 C 0.64312 0.86199 0.18583 0.0
C2240 C 0.62554 0.88061 0.20131 0.0
H2241 H 0.6583 0.84559 0.14185 0.0
H2242 H 0.65659 0.84907 0.19969 0.0
S2243 S 0.57817 0.92886 0.16108 0.0
N2244 N 0.59315 0.91237 0.13162 0.0
N2245 N 0.59115 0.91592 0.19402 0.0
C2246 C 0.60864 0.89699 0.18197 0.0
C2247 C 0.60988 0.89517 0.14791 0.0
C2248 C 0.64107 0.65747 0.68515 0.0
C2249 C 0.62369 0.63842 0.7003 0.0
C2250 C 0.64237 0.65966 0.65172 0.0
C2251 C 0.62676 0.64254 0.63175 0.0
H2252 H 0.65408 0.67068 0.69923 0.0
H2253 H 0.6565 0.67429 0.64149 0.0
S2254 S 0.57778 0.58928 0.65917 0.0
N2255 N 0.59012 0.60239 0.69235 0.0
N2256 N 0.59278 0.60617 0.63002 0.0
C2257 C 0.60898 0.62368 0.64662 0.0
C2258 C 0.60738 0.62172 0.68064 0.0
C2259 C 0.63971 0.3626 0.89981 0.0
C2260 C 0.62241 0.38152 0.88435 0.0
C2261 C 0.64128 0.36106 0.93328 0.0
C2262 C 0.62607 0.37876 0.95296 0.0
H2263 H 0.6525 0.34904 0.88592 0.0
H2264 H 0.65536 0.34653 0.94375 0.0
S2265 S 0.57725 0.43174 0.92475 0.0
N2266 N 0.58916 0.4179 0.89177 0.0
N2267 N 0.59242 0.41536 0.95416 0.0
C2268 C 0.60832 0.39743 0.93782 0.0
C2269 C 0.6064 0.3987 0.90377 0.0
C2270 C 0.87343 0.35893 0.15346 0.0
C2271 C 0.8885 0.3765 0.13343 0.0
C2272 C 0.87479 0.36114 0.18686 0.0
C2273 C 0.89167 0.38068 0.20188 0.0
H2274 H 0.85973 0.34387 0.1433 0.0
H2275 H 0.86224 0.34755 0.20103 0.0
S2276 S 0.93596 0.43121 0.16057 0.0
N2277 N 0.92134 0.4139 0.1315 0.0
N2278 N 0.92414 0.4177 0.19379 0.0
C2279 C 0.90741 0.39788 0.18216 0.0
C2280 C 0.90575 0.3959 0.14818 0.0
C2281 C 0.87348 0.65669 0.39657 0.0
C2282 C 0.89082 0.63772 0.38131 0.0
C2283 C 0.8723 0.6588 0.43001 0.0
C2284 C 0.88799 0.64165 0.44985 0.0
H2285 H 0.86043 0.66992 0.38256 0.0
H2286 H 0.85823 0.6734 0.44036 0.0
S2287 S 0.93688 0.58854 0.42211 0.0
N2288 N 0.92446 0.60174 0.38903 0.0
N2289 N 0.92192 0.6053 0.45137 0.0
C2290 C 0.90568 0.62283 0.43488 0.0
C2291 C 0.9072 0.62099 0.40086 0.0
C2292 C 0.36883 0.36271 0.39685 0.0
C2293 C 0.38893 0.37875 0.38148 0.0
C2294 C 0.36766 0.36044 0.43029 0.0
C2295 C 0.3862 0.37453 0.45007 0.0
H2296 H 0.35357 0.352 0.38295 0.0
H2297 H 0.35145 0.3483 0.44073 0.0
S2298 S 0.44324 0.41876 0.42227 0.0
N2299 N 0.42838 0.40834 0.3892 0.0
N2300 N 0.42586 0.40451 0.45153 0.0
C2301 C 0.40666 0.39027 0.43505 0.0
C2302 C 0.40812 0.39225 0.40101 0.0
C2303 C 0.4077 0.62329 0.1808 0.0
C2304 C 0.39181 0.63983 0.20109 0.0
C2305 C 0.40507 0.62473 0.14746 0.0
C2306 C 0.38676 0.64313 0.13276 0.0
H2307 H 0.42163 0.60835 0.19074 0.0
H2308 H 0.41728 0.61102 0.13309 0.0
S2309 S 0.34109 0.69181 0.17493 0.0
N2310 N 0.35756 0.67585 0.20369 0.0
N2311 N 0.35289 0.67873 0.14149 0.0
C2312 C 0.37136 0.66037 0.15276 0.0
C2313 C 0.37379 0.65867 0.18669 0.0
C2314 C 0.13896 0.6562 0.89789 0.0
C2315 C 0.12203 0.63691 0.88252 0.0
C2316 C 0.14032 0.658 0.93134 0.0
C2317 C 0.12525 0.64019 0.95108 0.0
H2318 H 0.15161 0.66988 0.88395 0.0
H2319 H 0.1541 0.67285 0.94177 0.0
S2320 S 0.0776 0.58601 0.92297 0.0
N2321 N 0.08941 0.59993 0.88997 0.0
N2322 N 0.09229 0.60287 0.95235 0.0
C2323 C 0.10791 0.62106 0.93598 0.0
C2324 C 0.1062 0.61955 0.90194 0.0
C2325 C 0.14221 0.3606 0.68553 0.0
C2326 C 0.12369 0.3785 0.70071 0.0
C2327 C 0.14357 0.35848 0.6521 0.0
C2328 C 0.12685 0.37452 0.63216 0.0
H2329 H 0.15608 0.34828 0.69958 0.0
H2330 H 0.15857 0.34479 0.64184 0.0
S2331 S 0.07461 0.42447 0.65967 0.0
N2332 N 0.08785 0.41223 0.69282 0.0
N2333 N 0.0906 0.40858 0.63049 0.0
C2334 C 0.10794 0.3922 0.64706 0.0
C2335 C 0.1063 0.39408 0.68108 0.0
loop_
_geom_bond_atom_site_label_1
_geom_bond_atom_site_label_2
_geom_bond_distance
_geom_bond_site_symmetry_2
_ccdc_geom_bond_type
Tb0 C9 2.764 . S
Tb0 O10 2.325 . S
Tb0 O13 2.303 . S
Tb0 O17 2.322 . S
Tb0 O18 2.349 . S
Tb0 O21 2.415 . S
Tb0 O22 2.399 . S
Tb1 O11 2.322 . S
Tb1 O12 2.349 . S
Tb1 O14 2.415 . S
Tb1 O15 2.399 . S
Tb1 O16 2.325 . S
Tb1 O19 2.303 . S
Tb1 C30 2.764 . S
C2 O18 1.261 . S
C2 O19 1.257 . S
C3 C6 1.358 . S
C3 C7 1.332 . S
C3 C9 1.504 . S
C4 C5 1.373 . S
C4 C8 1.308 1_655 S
C5 C4 1.373 . S
C5 C6 1.429 1_655 S
C5 H32 0.932 . S
C6 C3 1.358 . S
C6 C5 1.429 1_455 S
C6 H33 0.930 . S
C7 C3 1.332 . S
C7 C8 1.394 . S
C7 H34 0.932 . S
C8 C4 1.308 1_455 S
C8 C7 1.394 . S
C8 H35 0.929 . S
C9 Tb0 2.764 . S
C9 C3 1.504 . S
C9 O21 1.239 . S
C9 O22 1.263 . S
O10 Tb0 2.325 . S
O10 C20 1.236 . S
O11 Tb1 2.322 . S
O11 C20 1.257 . S
O12 Tb1 2.349 . S
O12 C23 1.261 . S
O13 Tb0 2.303 . S
O13 C23 1.257 . S
O14 Tb1 2.415 . S
O14 C30 1.239 . S
O15 Tb1 2.399 . S
O15 C30 1.263 . S
O16 Tb1 2.325 . S
O16 C31 1.236 . S
O17 Tb0 2.322 . S
O17 C31 1.257 . S
O18 Tb0 2.349 . S
O18 C2 1.261 . S
O19 Tb1 2.303 . S
O19 C2 1.257 . S
C20 O10 1.236 . S
C20 O11 1.257 . S
O21 Tb0 2.415 . S
O21 C9 1.239 . S
O22 Tb0 2.399 . S
O22 C9 1.263 . S
C23 O12 1.261 . S
C23 O13 1.257 . S
C24 C27 1.358 . S
C24 C28 1.332 . S
C24 C30 1.504 . S
C25 C26 1.373 . S
C25 C29 1.308 . S
C26 C25 1.373 . S
C26 C27 1.429 . S
C26 H36 0.932 . S
C27 C24 1.358 . S
C27 C26 1.429 . S
C27 H37 0.930 . S
C28 C24 1.332 . S
C28 C29 1.394 . S
C28 H38 0.932 . S
C29 C25 1.308 . S
C29 C28 1.394 . S
C29 H39 0.929 . S
C30 Tb1 2.764 . S
C30 O14 1.239 . S
C30 O15 1.263 . S
C30 C24 1.504 . S
C31 O16 1.236 . S
C31 O17 1.257 . S
H32 C5 0.932 . S
H33 C6 0.930 . S
H34 C7 0.932 . S
H35 C8 0.929 . S
H36 C26 0.932 . S
H37 C27 0.930 . S
H38 C28 0.932 . S
H39 C29 0.929 . S
Tb40 C49 2.764 . S
Tb40 O50 2.325 . S
Tb40 O53 2.303 . S
Tb40 O57 2.322 . S
Tb40 O58 2.349 . S
Tb40 O61 2.415 . S
Tb40 O62 2.399 . S
Tb41 O51 2.322 . S
Tb41 O52 2.349 . S
Tb41 O54 2.415 . S
Tb41 O55 2.399 . S
Tb41 O56 2.325 . S
Tb41 O59 2.303 . S
Tb41 C70 2.764 . S
C42 O58 1.261 . S
C42 O59 1.257 . S
C43 C46 1.358 . S
C43 C47 1.332 . S
C43 C49 1.504 . S
C44 C45 1.373 . S
C44 C48 1.308 . S
C45 C44 1.373 . S
C45 C46 1.429 . S
C45 H72 0.932 . S
C46 C43 1.358 . S
C46 C45 1.429 . S
C46 H73 0.930 . S
C47 C43 1.332 . S
C47 C48 1.394 . S
C47 H74 0.932 . S
C48 C44 1.308 . S
C48 C47 1.394 . S
C48 H75 0.929 . S
C49 Tb40 2.764 . S
C49 C43 1.504 . S
C49 O61 1.239 . S
C49 O62 1.263 . S
O50 Tb40 2.325 . S
O50 C60 1.236 . S
O51 Tb41 2.322 . S
O51 C60 1.257 . S
O52 Tb41 2.349 . S
O52 C63 1.261 . S
O53 Tb40 2.303 . S
O53 C63 1.257 . S
O54 Tb41 2.415 . S
O54 C70 1.239 . S
O55 Tb41 2.399 . S
O55 C70 1.263 . S
O56 Tb41 2.325 . S
O56 C71 1.236 . S
O57 Tb40 2.322 . S
O57 C71 1.257 . S
O58 Tb40 2.349 . S
O58 C42 1.261 . S
O59 Tb41 2.303 . S
O59 C42 1.257 . S
C60 O50 1.236 . S
C60 O51 1.257 . S
O61 Tb40 2.415 . S
O61 C49 1.239 . S
O62 Tb40 2.399 . S
O62 C49 1.263 . S
C63 O52 1.261 . S
C63 O53 1.257 . S
C64 C67 1.358 1_565 S
C64 C68 1.332 . S
C64 C70 1.504 . S
C65 C66 1.373 . S
C65 C69 1.308 . S
C66 C65 1.373 . S
C66 C67 1.429 . S
C66 H76 0.932 . S
C67 C64 1.358 1_545 S
C67 C66 1.429 . S
C67 H77 0.930 . S
C68 C64 1.332 . S
C68 C69 1.394 1_565 S
C68 H78 0.932 . S
C69 C65 1.308 . S
C69 C68 1.394 1_545 S
C69 H79 0.929 1_545 S
C70 Tb41 2.764 . S
C70 O54 1.239 . S
C70 O55 1.263 . S
C70 C64 1.504 . S
C71 O56 1.236 . S
C71 O57 1.257 . S
H72 C45 0.932 . S
H73 C46 0.930 . S
H74 C47 0.932 . S
H75 C48 0.929 . S
H76 C66 0.932 . S
H77 C67 0.930 . S
H78 C68 0.932 . S
H79 C69 0.929 1_565 S
Tb80 C89 2.764 . S
Tb80 O90 2.325 . S
Tb80 O93 2.303 . S
Tb80 O97 2.322 . S
Tb80 O98 2.349 . S
Tb80 O101 2.415 . S
Tb80 O102 2.399 . S
Tb81 O91 2.322 . S
Tb81 O92 2.349 . S
Tb81 O94 2.415 . S
Tb81 O95 2.399 . S
Tb81 O96 2.325 . S
Tb81 O99 2.303 . S
Tb81 C110 2.764 . S
C82 O98 1.261 . S
C82 O99 1.257 . S
C83 C86 1.358 . S
C83 C87 1.332 . S
C83 C89 1.504 . S
C84 C85 1.373 . S
C84 C88 1.308 . S
C85 C84 1.373 . S
C85 C86 1.429 . S
C85 H112 0.932 . S
C86 C83 1.358 . S
C86 C85 1.429 . S
C86 H113 0.930 . S
C87 C83 1.332 . S
C87 C88 1.394 . S
C87 H114 0.932 . S
C88 C84 1.308 . S
C88 C87 1.394 . S
C88 H115 0.929 . S
C89 Tb80 2.764 . S
C89 C83 1.504 . S
C89 O101 1.239 . S
C89 O102 1.263 . S
O90 Tb80 2.325 . S
O90 C100 1.236 . S
O91 Tb81 2.322 . S
O91 C100 1.257 . S
O92 Tb81 2.349 . S
O92 C103 1.261 . S
O93 Tb80 2.303 . S
O93 C103 1.257 . S
O94 Tb81 2.415 . S
O94 C110 1.239 . S
O95 Tb81 2.399 . S
O95 C110 1.263 . S
O96 Tb81 2.325 . S
O96 C111 1.236 . S
O97 Tb80 2.322 . S
O97 C111 1.257 . S
O98 Tb80 2.349 . S
O98 C82 1.261 . S
O99 Tb81 2.303 . S
O99 C82 1.257 . S
C100 O90 1.236 . S
C100 O91 1.257 . S
O101 Tb80 2.415 . S
O101 C89 1.239 . S
O102 Tb80 2.399 . S
O102 C89 1.263 . S
C103 O92 1.261 . S
C103 O93 1.257 . S
C104 C107 1.358 . S
C104 C108 1.332 . S
C104 C110 1.504 . S
C105 C106 1.373 . S
C105 C109 1.308 . S
C106 C105 1.373 . S
C106 C107 1.429 . S
C106 H116 0.932 . S
C107 C104 1.358 . S
C107 C106 1.429 . S
C107 H117 0.930 . S
C108 C104 1.332 . S
C108 C109 1.394 . S
C108 H118 0.932 . S
C109 C105 1.308 . S
C109 C108 1.394 . S
C109 H119 0.929 . S
C110 Tb81 2.764 . S
C110 O94 1.239 . S
C110 O95 1.263 . S
C110 C104 1.504 . S
C111 O96 1.236 . S
C111 O97 1.257 . S
H112 C85 0.932 . S
H113 C86 0.930 . S
H114 C87 0.932 . S
H115 C88 0.929 . S
H116 C106 0.932 . S
H117 C107 0.930 . S
H118 C108 0.932 . S
H119 C109 0.929 . S
Tb120 C129 2.764 . S
Tb120 O130 2.325 . S
Tb120 O133 2.303 . S
Tb120 O137 2.322 1_554 S
Tb120 O138 2.349 . S
Tb120 O141 2.415 . S
Tb120 O142 2.399 . S
Tb121 O131 2.322 . S
Tb121 O132 2.349 . S
Tb121 O134 2.415 1_554 S
Tb121 O135 2.399 1_554 S
Tb121 O136 2.325 1_554 S
Tb121 O139 2.303 . S
Tb121 C150 2.764 1_554 S
C122 O138 1.261 1_556 S
C122 O139 1.257 1_556 S
C123 C126 1.358 . S
C123 C127 1.332 . S
C123 C129 1.504 . S
C124 C125 1.373 . S
C124 C128 1.308 . S
C125 C124 1.373 . S
C125 C126 1.429 . S
C125 H152 0.932 . S
C126 C123 1.358 . S
C126 C125 1.429 . S
C126 H153 0.930 . S
C127 C123 1.332 . S
C127 C128 1.394 . S
C127 H154 0.932 . S
C128 C124 1.308 . S
C128 C127 1.394 . S
C128 H155 0.929 . S
C129 Tb120 2.764 . S
C129 C123 1.504 . S
C129 O141 1.239 . S
C129 O142 1.263 . S
O130 Tb120 2.325 . S
O130 C140 1.236 . S
O131 Tb121 2.322 . S
O131 C140 1.257 . S
O132 Tb121 2.349 . S
O132 C143 1.261 . S
O133 Tb120 2.303 . S
O133 C143 1.257 . S
O134 Tb121 2.415 1_556 S
O134 C150 1.239 . S
O135 Tb121 2.399 1_556 S
O135 C150 1.263 . S
O136 Tb121 2.325 1_556 S
O136 C151 1.236 . S
O137 Tb120 2.322 1_556 S
O137 C151 1.257 . S
O138 Tb120 2.349 . S
O138 C122 1.261 1_554 S
O139 Tb121 2.303 . S
O139 C122 1.257 1_554 S
C140 O130 1.236 . S
C140 O131 1.257 . S
O141 Tb120 2.415 . S
O141 C129 1.239 . S
O142 Tb120 2.399 . S
O142 C129 1.263 . S
C143 O132 1.261 . S
C143 O133 1.257 . S
C144 C147 1.358 1_545 S
C144 C148 1.332 . S
C144 C150 1.504 . S
C145 C146 1.373 . S
C145 C149 1.308 . S
C146 C145 1.373 . S
C146 C147 1.429 . S
C146 H156 0.932 . S
C147 C144 1.358 1_565 S
C147 C146 1.429 . S
C147 H157 0.930 . S
C148 C144 1.332 . S
C148 C149 1.394 1_545 S
C148 H158 0.932 . S
C149 C145 1.308 . S
C149 C148 1.394 1_565 S
C149 H159 0.929 1_565 S
C150 Tb121 2.764 1_556 S
C150 O134 1.239 . S
C150 O135 1.263 . S
C150 C144 1.504 . S
C151 O136 1.236 . S
C151 O137 1.257 . S
H152 C125 0.932 . S
H153 C126 0.930 . S
H154 C127 0.932 . S
H155 C128 0.929 . S
H156 C146 0.932 . S
H157 C147 0.930 . S
H158 C148 0.932 . S
H159 C149 0.929 1_545 S
Tb160 C169 2.764 . S
Tb160 O170 2.325 . S
Tb160 O173 2.303 . S
Tb160 O177 2.322 . S
Tb160 O178 2.349 . S
Tb160 O181 2.415 . S
Tb160 O182 2.399 . S
Tb161 O171 2.322 . S
Tb161 O172 2.349 . S
Tb161 O174 2.415 . S
Tb161 O175 2.399 . S
Tb161 O176 2.325 . S
Tb161 O179 2.303 . S
Tb161 C190 2.764 . S
C162 O178 1.261 . S
C162 O179 1.257 . S
C163 C166 1.358 . S
C163 C167 1.332 . S
C163 C169 1.504 . S
C164 C165 1.373 . S
C164 C168 1.308 1_655 S
C165 C164 1.373 . S
C165 C166 1.429 1_655 S
C165 H192 0.932 . S
C166 C163 1.358 . S
C166 C165 1.429 1_455 S
C166 H193 0.930 . S
C167 C163 1.332 . S
C167 C168 1.394 . S
C167 H194 0.932 . S
C168 C164 1.308 1_455 S
C168 C167 1.394 . S
C168 H195 0.929 . S
C169 Tb160 2.764 . S
C169 C163 1.504 . S
C169 O181 1.239 . S
C169 O182 1.263 . S
O170 Tb160 2.325 . S
O170 C180 1.236 . S
O171 Tb161 2.322 . S
O171 C180 1.257 . S
O172 Tb161 2.349 . S
O172 C183 1.261 . S
O173 Tb160 2.303 . S
O173 C183 1.257 . S
O174 Tb161 2.415 . S
O174 C190 1.239 . S
O175 Tb161 2.399 . S
O175 C190 1.263 . S
O176 Tb161 2.325 . S
O176 C191 1.236 . S
O177 Tb160 2.322 . S
O177 C191 1.257 . S
O178 Tb160 2.349 . S
O178 C162 1.261 . S
O179 Tb161 2.303 . S
O179 C162 1.257 . S
C180 O170 1.236 . S
C180 O171 1.257 . S
O181 Tb160 2.415 . S
O181 C169 1.239 . S
O182 Tb160 2.399 . S
O182 C169 1.263 . S
C183 O172 1.261 . S
C183 O173 1.257 . S
C184 C187 1.358 . S
C184 C188 1.332 . S
C184 C190 1.504 . S
C185 C186 1.373 . S
C185 C189 1.308 . S
C186 C185 1.373 . S
C186 C187 1.429 . S
C186 H196 0.932 . S
C187 C184 1.358 . S
C187 C186 1.429 . S
C187 H197 0.930 . S
C188 C184 1.332 . S
C188 C189 1.394 . S
C188 H198 0.932 . S
C189 C185 1.308 . S
C189 C188 1.394 . S
C189 H199 0.929 . S
C190 Tb161 2.764 . S
C190 O174 1.239 . S
C190 O175 1.263 . S
C190 C184 1.504 . S
C191 O176 1.236 . S
C191 O177 1.257 . S
H192 C165 0.932 . S
H193 C166 0.930 . S
H194 C167 0.932 . S
H195 C168 0.929 . S
H196 C186 0.932 . S
H197 C187 0.930 . S
H198 C188 0.932 . S
H199 C189 0.929 . S
Tb200 C209 2.764 . S
Tb200 O210 2.325 . S
Tb200 O213 2.303 . S
Tb200 O217 2.322 . S
Tb200 O218 2.349 . S
Tb200 O221 2.415 . S
Tb200 O222 2.399 . S
Tb201 O211 2.322 . S
Tb201 O212 2.349 . S
Tb201 O214 2.415 . S
Tb201 O215 2.399 . S
Tb201 O216 2.325 . S
Tb201 O219 2.303 . S
Tb201 C230 2.764 . S
C202 O218 1.261 . S
C202 O219 1.257 . S
C203 C206 1.358 . S
C203 C207 1.332 . S
C203 C209 1.504 . S
C204 C205 1.373 . S
C204 C208 1.308 . S
C205 C204 1.373 . S
C205 C206 1.429 . S
C205 H232 0.932 . S
C206 C203 1.358 . S
C206 C205 1.429 . S
C206 H233 0.930 . S
C207 C203 1.332 . S
C207 C208 1.394 . S
C207 H234 0.932 . S
C208 C204 1.308 . S
C208 C207 1.394 . S
C208 H235 0.929 . S
C209 Tb200 2.764 . S
C209 C203 1.504 . S
C209 O221 1.239 . S
C209 O222 1.263 . S
O210 Tb200 2.325 . S
O210 C220 1.236 . S
O211 Tb201 2.322 . S
O211 C220 1.257 . S
O212 Tb201 2.349 . S
O212 C223 1.261 . S
O213 Tb200 2.303 . S
O213 C223 1.257 . S
O214 Tb201 2.415 . S
O214 C230 1.239 . S
O215 Tb201 2.399 . S
O215 C230 1.263 . S
O216 Tb201 2.325 . S
O216 C231 1.236 . S
O217 Tb200 2.322 . S
O217 C231 1.257 . S
O218 Tb200 2.349 . S
O218 C202 1.261 . S
O219 Tb201 2.303 . S
O219 C202 1.257 . S
C220 O210 1.236 . S
C220 O211 1.257 . S
O221 Tb200 2.415 . S
O221 C209 1.239 . S
O222 Tb200 2.399 . S
O222 C209 1.263 . S
C223 O212 1.261 . S
C223 O213 1.257 . S
C224 C227 1.358 1_565 S
C224 C228 1.332 . S
C224 C230 1.504 . S
C225 C226 1.373 . S
C225 C229 1.308 . S
C226 C225 1.373 . S
C226 C227 1.429 . S
C226 H236 0.932 . S
C227 C224 1.358 1_545 S
C227 C226 1.429 . S
C227 H237 0.930 . S
C228 C224 1.332 . S
C228 C229 1.394 1_565 S
C228 H238 0.932 . S
C229 C225 1.308 . S
C229 C228 1.394 1_545 S
C229 H239 0.929 1_545 S
C230 Tb201 2.764 . S
C230 O214 1.239 . S
C230 O215 1.263 . S
C230 C224 1.504 . S
C231 O216 1.236 . S
C231 O217 1.257 . S
H232 C205 0.932 . S
H233 C206 0.930 . S
H234 C207 0.932 . S
H235 C208 0.929 . S
H236 C226 0.932 . S
H237 C227 0.930 . S
H238 C228 0.932 . S
H239 C229 0.929 1_565 S
Tb240 C249 2.764 . S
Tb240 O250 2.325 . S
Tb240 O253 2.303 . S
Tb240 O257 2.322 . S
Tb240 O258 2.349 . S
Tb240 O261 2.415 . S
Tb240 O262 2.399 . S
Tb241 O251 2.322 . S
Tb241 O252 2.349 . S
Tb241 O254 2.415 . S
Tb241 O255 2.399 . S
Tb241 O256 2.325 . S
Tb241 O259 2.303 . S
Tb241 C270 2.764 . S
C242 O258 1.261 . S
C242 O259 1.257 . S
C243 C246 1.358 . S
C243 C247 1.332 . S
C243 C249 1.504 . S
C244 C245 1.373 . S
C244 C248 1.308 . S
C245 C244 1.373 . S
C245 C246 1.429 . S
C245 H272 0.932 . S
C246 C243 1.358 . S
C246 C245 1.429 . S
C246 H273 0.930 . S
C247 C243 1.332 . S
C247 C248 1.394 . S
C247 H274 0.932 . S
C248 C244 1.308 . S
C248 C247 1.394 . S
C248 H275 0.929 . S
C249 Tb240 2.764 . S
C249 C243 1.504 . S
C249 O261 1.239 . S
C249 O262 1.263 . S
O250 Tb240 2.325 . S
O250 C260 1.236 . S
O251 Tb241 2.322 . S
O251 C260 1.257 . S
O252 Tb241 2.349 . S
O252 C263 1.261 . S
O253 Tb240 2.303 . S
O253 C263 1.257 . S
O254 Tb241 2.415 . S
O254 C270 1.239 . S
O255 Tb241 2.399 . S
O255 C270 1.263 . S
O256 Tb241 2.325 . S
O256 C271 1.236 . S
O257 Tb240 2.322 . S
O257 C271 1.257 . S
O258 Tb240 2.349 . S
O258 C242 1.261 . S
O259 Tb241 2.303 . S
O259 C242 1.257 . S
C260 O250 1.236 . S
C260 O251 1.257 . S
O261 Tb240 2.415 . S
O261 C249 1.239 . S
O262 Tb240 2.399 . S
O262 C249 1.263 . S
C263 O252 1.261 . S
C263 O253 1.257 . S
C264 C267 1.358 . S
C264 C268 1.332 . S
C264 C270 1.504 . S
C265 C266 1.373 . S
C265 C269 1.308 . S
C266 C265 1.373 . S
C266 C267 1.429 . S
C266 H276 0.932 . S
C267 C264 1.358 . S
C267 C266 1.429 . S
C267 H277 0.930 . S
C268 C264 1.332 . S
C268 C269 1.394 . S
C268 H278 0.932 . S
C269 C265 1.308 . S
C269 C268 1.394 . S
C269 H279 0.929 . S
C270 Tb241 2.764 . S
C270 O254 1.239 . S
C270 O255 1.263 . S
C270 C264 1.504 . S
C271 O256 1.236 . S
C271 O257 1.257 . S
H272 C245 0.932 . S
H273 C246 0.930 . S
H274 C247 0.932 . S
H275 C248 0.929 . S
H276 C266 0.932 . S
H277 C267 0.930 . S
H278 C268 0.932 . S
H279 C269 0.929 . S
Tb280 C289 2.764 . S
Tb280 O290 2.325 . S
Tb280 O293 2.303 . S
Tb280 O297 2.322 1_556 S
Tb280 O298 2.349 . S
Tb280 O301 2.415 . S
Tb280 O302 2.399 . S
Tb281 O291 2.322 . S
Tb281 O292 2.349 . S
Tb281 O294 2.415 1_556 S
Tb281 O295 2.399 1_556 S
Tb281 O296 2.325 1_556 S
Tb281 O299 2.303 . S
Tb281 C310 2.764 1_556 S
C282 O298 1.261 1_554 S
C282 O299 1.257 1_554 S
C283 C286 1.358 . S
C283 C287 1.332 . S
C283 C289 1.504 . S
C284 C285 1.373 . S
C284 C288 1.308 . S
C285 C284 1.373 . S
C285 C286 1.429 . S
C285 H312 0.932 . S
C286 C283 1.358 . S
C286 C285 1.429 . S
C286 H313 0.930 . S
C287 C283 1.332 . S
C287 C288 1.394 . S
C287 H314 0.932 . S
C288 C284 1.308 . S
C288 C287 1.394 . S
C288 H315 0.929 . S
C289 Tb280 2.764 . S
C289 C283 1.504 . S
C289 O301 1.239 . S
C289 O302 1.263 . S
O290 Tb280 2.325 . S
O290 C300 1.236 . S
O291 Tb281 2.322 . S
O291 C300 1.257 . S
O292 Tb281 2.349 . S
O292 C303 1.261 . S
O293 Tb280 2.303 . S
O293 C303 1.257 . S
O294 Tb281 2.415 1_554 S
O294 C310 1.239 . S
O295 Tb281 2.399 1_554 S
O295 C310 1.263 . S
O296 Tb281 2.325 1_554 S
O296 C311 1.236 . S
O297 Tb280 2.322 1_554 S
O297 C311 1.257 . S
O298 Tb280 2.349 . S
O298 C282 1.261 1_556 S
O299 Tb281 2.303 . S
O299 C282 1.257 1_556 S
C300 O290 1.236 . S
C300 O291 1.257 . S
O301 Tb280 2.415 . S
O301 C289 1.239 . S
O302 Tb280 2.399 . S
O302 C289 1.263 . S
C303 O292 1.261 . S
C303 O293 1.257 . S
C304 C307 1.358 1_545 S
C304 C308 1.332 . S
C304 C310 1.504 . S
C305 C306 1.373 . S
C305 C309 1.308 . S
C306 C305 1.373 . S
C306 C307 1.429 . S
C306 H316 0.932 . S
C307 C304 1.358 1_565 S
C307 C306 1.429 . S
C307 H317 0.930 . S
C308 C304 1.332 . S
C308 C309 1.394 1_545 S
C308 H318 0.932 . S
C309 C305 1.308 . S
C309 C308 1.394 1_565 S
C309 H319 0.929 1_565 S
C310 Tb281 2.764 1_554 S
C310 O294 1.239 . S
C310 O295 1.263 . S
C310 C304 1.504 . S
C311 O296 1.236 . S
C311 O297 1.257 . S
H312 C285 0.932 . S
H313 C286 0.930 . S
H314 C287 0.932 . S
H315 C288 0.929 . S
H316 C306 0.932 . S
H317 C307 0.930 . S
H318 C308 0.932 . S
H319 C309 0.929 1_545 S
Tb320 C329 2.764 . S
Tb320 O330 2.325 . S
Tb320 O333 2.303 . S
Tb320 O337 2.322 . S
Tb320 O338 2.349 . S
Tb320 O341 2.415 . S
Tb320 O342 2.399 . S
Tb321 O331 2.322 . S
Tb321 O332 2.349 . S
Tb321 O334 2.415 . S
Tb321 O335 2.399 . S
Tb321 O336 2.325 . S
Tb321 O339 2.303 . S
Tb321 C350 2.764 . S
C322 O338 1.261 . S
C322 O339 1.257 . S
C323 C326 1.358 . S
C323 C327 1.332 . S
C323 C329 1.504 . S
C324 C325 1.373 . S
C324 C328 1.308 . S
C325 C324 1.373 . S
C325 C326 1.429 . S
C325 H352 0.932 . S
C326 C323 1.358 . S
C326 C325 1.429 . S
C326 H353 0.930 . S
C327 C323 1.332 . S
C327 C328 1.394 . S
C327 H354 0.932 . S
C328 C324 1.308 . S
C328 C327 1.394 . S
C328 H355 0.929 . S
C329 Tb320 2.764 . S
C329 C323 1.504 . S
C329 O341 1.239 . S
C329 O342 1.263 . S
O330 Tb320 2.325 . S
O330 C340 1.236 . S
O331 Tb321 2.322 . S
O331 C340 1.257 . S
O332 Tb321 2.349 . S
O332 C343 1.261 . S
O333 Tb320 2.303 . S
O333 C343 1.257 . S
O334 Tb321 2.415 . S
O334 C350 1.239 . S
O335 Tb321 2.399 . S
O335 C350 1.263 . S
O336 Tb321 2.325 . S
O336 C351 1.236 . S
O337 Tb320 2.322 . S
O337 C351 1.257 . S
O338 Tb320 2.349 . S
O338 C322 1.261 . S
O339 Tb321 2.303 . S
O339 C322 1.257 . S
C340 O330 1.236 . S
C340 O331 1.257 . S
O341 Tb320 2.415 . S
O341 C329 1.239 . S
O342 Tb320 2.399 . S
O342 C329 1.263 . S
C343 O332 1.261 . S
C343 O333 1.257 . S
C344 C347 1.358 . S
C344 C348 1.332 . S
C344 C350 1.504 . S
C345 C346 1.373 . S
C345 C349 1.308 1_455 S
C346 C345 1.373 . S
C346 C347 1.429 1_455 S
C346 H356 0.932 . S
C347 C344 1.358 . S
C347 C346 1.429 1_655 S
C347 H357 0.930 . S
C348 C344 1.332 . S
C348 C349 1.394 . S
C348 H358 0.932 . S
C349 C345 1.308 1_655 S
C349 C348 1.394 . S
C349 H359 0.929 . S
C350 Tb321 2.764 . S
C350 O334 1.239 . S
C350 O335 1.263 . S
C350 C344 1.504 . S
C351 O336 1.236 . S
C351 O337 1.257 . S
H352 C325 0.932 . S
H353 C326 0.930 . S
H354 C327 0.932 . S
H355 C328 0.929 . S
H356 C346 0.932 . S
H357 C347 0.930 . S
H358 C348 0.932 . S
H359 C349 0.929 . S
Tb360 C369 2.764 . S
Tb360 O370 2.325 . S
Tb360 O373 2.303 . S
Tb360 O377 2.322 . S
Tb360 O378 2.349 . S
Tb360 O381 2.415 . S
Tb360 O382 2.399 . S
Tb361 O371 2.322 . S
Tb361 O372 2.349 . S
Tb361 O374 2.415 . S
Tb361 O375 2.399 . S
Tb361 O376 2.325 . S
Tb361 O379 2.303 . S
Tb361 C390 2.764 . S
C362 O378 1.261 . S
C362 O379 1.257 . S
C363 C366 1.358 1_545 S
C363 C367 1.332 . S
C363 C369 1.504 . S
C364 C365 1.373 . S
C364 C368 1.308 . S
C365 C364 1.373 . S
C365 C366 1.429 . S
C365 H392 0.932 . S
C366 C363 1.358 1_565 S
C366 C365 1.429 . S
C366 H393 0.930 . S
C367 C363 1.332 . S
C367 C368 1.394 1_545 S
C367 H394 0.932 . S
C368 C364 1.308 . S
C368 C367 1.394 1_565 S
C368 H395 0.929 1_565 S
C369 Tb360 2.764 . S
C369 C363 1.504 . S
C369 O381 1.239 . S
C369 O382 1.263 . S
O370 Tb360 2.325 . S
O370 C380 1.236 . S
O371 Tb361 2.322 . S
O371 C380 1.257 . S
O372 Tb361 2.349 . S
O372 C383 1.261 . S
O373 Tb360 2.303 . S
O373 C383 1.257 . S
O374 Tb361 2.415 . S
O374 C390 1.239 . S
O375 Tb361 2.399 . S
O375 C390 1.263 . S
O376 Tb361 2.325 . S
O376 C391 1.236 . S
O377 Tb360 2.322 . S
O377 C391 1.257 . S
O378 Tb360 2.349 . S
O378 C362 1.261 . S
O379 Tb361 2.303 . S
O379 C362 1.257 . S
C380 O370 1.236 . S
C380 O371 1.257 . S
O381 Tb360 2.415 . S
O381 C369 1.239 . S
O382 Tb360 2.399 . S
O382 C369 1.263 . S
C383 O372 1.261 . S
C383 O373 1.257 . S
C384 C387 1.358 . S
C384 C388 1.332 . S
C384 C390 1.504 . S
C385 C386 1.373 . S
C385 C389 1.308 . S
C386 C385 1.373 . S
C386 C387 1.429 . S
C386 H396 0.932 . S
C387 C384 1.358 . S
C387 C386 1.429 . S
C387 H397 0.930 . S
C388 C384 1.332 . S
C388 C389 1.394 . S
C388 H398 0.932 . S
C389 C385 1.308 . S
C389 C388 1.394 . S
C389 H399 0.929 . S
C390 Tb361 2.764 . S
C390 O374 1.239 . S
C390 O375 1.263 . S
C390 C384 1.504 . S
C391 O376 1.236 . S
C391 O377 1.257 . S
H392 C365 0.932 . S
H393 C366 0.930 . S
H394 C367 0.932 . S
H395 C368 0.929 1_545 S
H396 C386 0.932 . S
H397 C387 0.930 . S
H398 C388 0.932 . S
H399 C389 0.929 . S
Tb400 C409 2.764 . S
Tb400 O410 2.325 . S
Tb400 O413 2.303 . S
Tb400 O417 2.322 . S
Tb400 O418 2.349 . S
Tb400 O421 2.415 . S
Tb400 O422 2.399 . S
Tb401 O411 2.322 . S
Tb401 O412 2.349 . S
Tb401 O414 2.415 . S
Tb401 O415 2.399 . S
Tb401 O416 2.325 . S
Tb401 O419 2.303 . S
Tb401 C430 2.764 . S
C402 O418 1.261 . S
C402 O419 1.257 . S
C403 C406 1.358 . S
C403 C407 1.332 . S
C403 C409 1.504 . S
C404 C405 1.373 . S
C404 C408 1.308 . S
C405 C404 1.373 . S
C405 C406 1.429 . S
C405 H432 0.932 . S
C406 C403 1.358 . S
C406 C405 1.429 . S
C406 H433 0.930 . S
C407 C403 1.332 . S
C407 C408 1.394 . S
C407 H434 0.932 . S
C408 C404 1.308 . S
C408 C407 1.394 . S
C408 H435 0.929 . S
C409 Tb400 2.764 . S
C409 C403 1.504 . S
C409 O421 1.239 . S
C409 O422 1.263 . S
O410 Tb400 2.325 . S
O410 C420 1.236 . S
O411 Tb401 2.322 . S
O411 C420 1.257 . S
O412 Tb401 2.349 . S
O412 C423 1.261 . S
O413 Tb400 2.303 . S
O413 C423 1.257 . S
O414 Tb401 2.415 . S
O414 C430 1.239 . S
O415 Tb401 2.399 . S
O415 C430 1.263 . S
O416 Tb401 2.325 . S
O416 C431 1.236 . S
O417 Tb400 2.322 . S
O417 C431 1.257 . S
O418 Tb400 2.349 . S
O418 C402 1.261 . S
O419 Tb401 2.303 . S
O419 C402 1.257 . S
C420 O410 1.236 . S
C420 O411 1.257 . S
O421 Tb400 2.415 . S
O421 C409 1.239 . S
O422 Tb400 2.399 . S
O422 C409 1.263 . S
C423 O412 1.261 . S
C423 O413 1.257 . S
C424 C427 1.358 . S
C424 C428 1.332 . S
C424 C430 1.504 . S
C425 C426 1.373 . S
C425 C429 1.308 . S
C426 C425 1.373 . S
C426 C427 1.429 . S
C426 H436 0.932 . S
C427 C424 1.358 . S
C427 C426 1.429 . S
C427 H437 0.930 . S
C428 C424 1.332 . S
C428 C429 1.394 . S
C428 H438 0.932 . S
C429 C425 1.308 . S
C429 C428 1.394 . S
C429 H439 0.929 . S
C430 Tb401 2.764 . S
C430 O414 1.239 . S
C430 O415 1.263 . S
C430 C424 1.504 . S
C431 O416 1.236 . S
C431 O417 1.257 . S
H432 C405 0.932 . S
H433 C406 0.930 . S
H434 C407 0.932 . S
H435 C408 0.929 . S
H436 C426 0.932 . S
H437 C427 0.930 . S
H438 C428 0.932 . S
H439 C429 0.929 . S
Tb440 C449 2.764 1_556 S
Tb440 O450 2.325 1_556 S
Tb440 O453 2.303 . S
Tb440 O457 2.322 . S
Tb440 O458 2.349 . S
Tb440 O461 2.415 1_556 S
Tb440 O462 2.399 1_556 S
Tb441 O451 2.322 1_556 S
Tb441 O452 2.349 . S
Tb441 O454 2.415 . S
Tb441 O455 2.399 . S
Tb441 O456 2.325 . S
Tb441 O459 2.303 . S
Tb441 C470 2.764 . S
C442 O458 1.261 . S
C442 O459 1.257 . S
C443 C446 1.358 1_565 S
C443 C447 1.332 . S
C443 C449 1.504 . S
C444 C445 1.373 . S
C444 C448 1.308 . S
C445 C444 1.373 . S
C445 C446 1.429 . S
C445 H472 0.932 . S
C446 C443 1.358 1_545 S
C446 C445 1.429 . S
C446 H473 0.930 . S
C447 C443 1.332 . S
C447 C448 1.394 1_565 S
C447 H474 0.932 . S
C448 C444 1.308 . S
C448 C447 1.394 1_545 S
C448 H475 0.929 1_545 S
C449 Tb440 2.764 1_554 S
C449 C443 1.504 . S
C449 O461 1.239 . S
C449 O462 1.263 . S
O450 Tb440 2.325 1_554 S
O450 C460 1.236 . S
O451 Tb441 2.322 1_554 S
O451 C460 1.257 . S
O452 Tb441 2.349 . S
O452 C463 1.261 1_556 S
O453 Tb440 2.303 . S
O453 C463 1.257 1_556 S
O454 Tb441 2.415 . S
O454 C470 1.239 . S
O455 Tb441 2.399 . S
O455 C470 1.263 . S
O456 Tb441 2.325 . S
O456 C471 1.236 . S
O457 Tb440 2.322 . S
O457 C471 1.257 . S
O458 Tb440 2.349 . S
O458 C442 1.261 . S
O459 Tb441 2.303 . S
O459 C442 1.257 . S
C460 O450 1.236 . S
C460 O451 1.257 . S
O461 Tb440 2.415 1_554 S
O461 C449 1.239 . S
O462 Tb440 2.399 1_554 S
O462 C449 1.263 . S
C463 O452 1.261 1_554 S
C463 O453 1.257 1_554 S
C464 C467 1.358 . S
C464 C468 1.332 . S
C464 C470 1.504 . S
C465 C466 1.373 . S
C465 C469 1.308 . S
C466 C465 1.373 . S
C466 C467 1.429 . S
C466 H476 0.932 . S
C467 C464 1.358 . S
C467 C466 1.429 . S
C467 H477 0.930 . S
C468 C464 1.332 . S
C468 C469 1.394 . S
C468 H478 0.932 . S
C469 C465 1.308 . S
C469 C468 1.394 . S
C469 H479 0.929 . S
C470 Tb441 2.764 . S
C470 O454 1.239 . S
C470 O455 1.263 . S
C470 C464 1.504 . S
C471 O456 1.236 . S
C471 O457 1.257 . S
H472 C445 0.932 . S
H473 C446 0.930 . S
H474 C447 0.932 . S
H475 C448 0.929 1_565 S
H476 C466 0.932 . S
H477 C467 0.930 . S
H478 C468 0.932 . S
H479 C469 0.929 . S
Tb480 C489 2.764 . S
Tb480 O490 2.325 . S
Tb480 O493 2.303 . S
Tb480 O497 2.322 . S
Tb480 O498 2.349 . S
Tb480 O501 2.415 . S
Tb480 O502 2.399 . S
Tb481 O491 2.322 . S
Tb481 O492 2.349 . S
Tb481 O494 2.415 . S
Tb481 O495 2.399 . S
Tb481 O496 2.325 . S
Tb481 O499 2.303 . S
Tb481 C510 2.764 . S
C482 O498 1.261 . S
C482 O499 1.257 . S
C483 C486 1.358 . S
C483 C487 1.332 . S
C483 C489 1.504 . S
C484 C485 1.373 . S
C484 C488 1.308 . S
C485 C484 1.373 . S
C485 C486 1.429 . S
C485 H512 0.932 . S
C486 C483 1.358 . S
C486 C485 1.429 . S
C486 H513 0.930 . S
C487 C483 1.332 . S
C487 C488 1.394 . S
C487 H514 0.932 . S
C488 C484 1.308 . S
C488 C487 1.394 . S
C488 H515 0.929 . S
C489 Tb480 2.764 . S
C489 C483 1.504 . S
C489 O501 1.239 . S
C489 O502 1.263 . S
O490 Tb480 2.325 . S
O490 C500 1.236 . S
O491 Tb481 2.322 . S
O491 C500 1.257 . S
O492 Tb481 2.349 . S
O492 C503 1.261 . S
O493 Tb480 2.303 . S
O493 C503 1.257 . S
O494 Tb481 2.415 . S
O494 C510 1.239 . S
O495 Tb481 2.399 . S
O495 C510 1.263 . S
O496 Tb481 2.325 . S
O496 C511 1.236 . S
O497 Tb480 2.322 . S
O497 C511 1.257 . S
O498 Tb480 2.349 . S
O498 C482 1.261 . S
O499 Tb481 2.303 . S
O499 C482 1.257 . S
C500 O490 1.236 . S
C500 O491 1.257 . S
O501 Tb480 2.415 . S
O501 C489 1.239 . S
O502 Tb480 2.399 . S
O502 C489 1.263 . S
C503 O492 1.261 . S
C503 O493 1.257 . S
C504 C507 1.358 . S
C504 C508 1.332 . S
C504 C510 1.504 . S
C505 C506 1.373 . S
C505 C509 1.308 1_455 S
C506 C505 1.373 . S
C506 C507 1.429 1_455 S
C506 H516 0.932 . S
C507 C504 1.358 . S
C507 C506 1.429 1_655 S
C507 H517 0.930 . S
C508 C504 1.332 . S
C508 C509 1.394 . S
C508 H518 0.932 . S
C509 C505 1.308 1_655 S
C509 C508 1.394 . S
C509 H519 0.929 . S
C510 Tb481 2.764 . S
C510 O494 1.239 . S
C510 O495 1.263 . S
C510 C504 1.504 . S
C511 O496 1.236 . S
C511 O497 1.257 . S
H512 C485 0.932 . S
H513 C486 0.930 . S
H514 C487 0.932 . S
H515 C488 0.929 . S
H516 C506 0.932 . S
H517 C507 0.930 . S
H518 C508 0.932 . S
H519 C509 0.929 . S
Tb520 C529 2.764 . S
Tb520 O530 2.325 . S
Tb520 O533 2.303 . S
Tb520 O537 2.322 . S
Tb520 O538 2.349 . S
Tb520 O541 2.415 . S
Tb520 O542 2.399 . S
Tb521 O531 2.322 . S
Tb521 O532 2.349 . S
Tb521 O534 2.415 . S
Tb521 O535 2.399 . S
Tb521 O536 2.325 . S
Tb521 O539 2.303 . S
Tb521 C550 2.764 . S
C522 O538 1.261 . S
C522 O539 1.257 . S
C523 C526 1.358 1_545 S
C523 C527 1.332 . S
C523 C529 1.504 . S
C524 C525 1.373 . S
C524 C528 1.308 . S
C525 C524 1.373 . S
C525 C526 1.429 . S
C525 H552 0.932 . S
C526 C523 1.358 1_565 S
C526 C525 1.429 . S
C526 H553 0.930 . S
C527 C523 1.332 . S
C527 C528 1.394 1_545 S
C527 H554 0.932 . S
C528 C524 1.308 . S
C528 C527 1.394 1_565 S
C528 H555 0.929 1_565 S
C529 Tb520 2.764 . S
C529 C523 1.504 . S
C529 O541 1.239 . S
C529 O542 1.263 . S
O530 Tb520 2.325 . S
O530 C540 1.236 . S
O531 Tb521 2.322 . S
O531 C540 1.257 . S
O532 Tb521 2.349 . S
O532 C543 1.261 . S
O533 Tb520 2.303 . S
O533 C543 1.257 . S
O534 Tb521 2.415 . S
O534 C550 1.239 . S
O535 Tb521 2.399 . S
O535 C550 1.263 . S
O536 Tb521 2.325 . S
O536 C551 1.236 . S
O537 Tb520 2.322 . S
O537 C551 1.257 . S
O538 Tb520 2.349 . S
O538 C522 1.261 . S
O539 Tb521 2.303 . S
O539 C522 1.257 . S
C540 O530 1.236 . S
C540 O531 1.257 . S
O541 Tb520 2.415 . S
O541 C529 1.239 . S
O542 Tb520 2.399 . S
O542 C529 1.263 . S
C543 O532 1.261 . S
C543 O533 1.257 . S
C544 C547 1.358 . S
C544 C548 1.332 . S
C544 C550 1.504 . S
C545 C546 1.373 . S
C545 C549 1.308 . S
C546 C545 1.373 . S
C546 C547 1.429 . S
C546 H556 0.932 . S
C547 C544 1.358 . S
C547 C546 1.429 . S
C547 H557 0.930 . S
C548 C544 1.332 . S
C548 C549 1.394 . S
C548 H558 0.932 . S
C549 C545 1.308 . S
C549 C548 1.394 . S
C549 H559 0.929 . S
C550 Tb521 2.764 . S
C550 O534 1.239 . S
C550 O535 1.263 . S
C550 C544 1.504 . S
C551 O536 1.236 . S
C551 O537 1.257 . S
H552 C525 0.932 . S
H553 C526 0.930 . S
H554 C527 0.932 . S
H555 C528 0.929 1_545 S
H556 C546 0.932 . S
H557 C547 0.930 . S
H558 C548 0.932 . S
H559 C549 0.929 . S
Tb560 C569 2.764 . S
Tb560 O570 2.325 . S
Tb560 O573 2.303 . S
Tb560 O577 2.322 . S
Tb560 O578 2.349 . S
Tb560 O581 2.415 . S
Tb560 O582 2.399 . S
Tb561 O571 2.322 . S
Tb561 O572 2.349 . S
Tb561 O574 2.415 . S
Tb561 O575 2.399 . S
Tb561 O576 2.325 . S
Tb561 O579 2.303 . S
Tb561 C590 2.764 . S
C562 O578 1.261 . S
C562 O579 1.257 . S
C563 C566 1.358 . S
C563 C567 1.332 . S
C563 C569 1.504 . S
C564 C565 1.373 . S
C564 C568 1.308 . S
C565 C564 1.373 . S
C565 C566 1.429 . S
C565 H592 0.932 . S
C566 C563 1.358 . S
C566 C565 1.429 . S
C566 H593 0.930 . S
C567 C563 1.332 . S
C567 C568 1.394 . S
C567 H594 0.932 . S
C568 C564 1.308 . S
C568 C567 1.394 . S
C568 H595 0.929 . S
C569 Tb560 2.764 . S
C569 C563 1.504 . S
C569 O581 1.239 . S
C569 O582 1.263 . S
O570 Tb560 2.325 . S
O570 C580 1.236 . S
O571 Tb561 2.322 . S
O571 C580 1.257 . S
O572 Tb561 2.349 . S
O572 C583 1.261 . S
O573 Tb560 2.303 . S
O573 C583 1.257 . S
O574 Tb561 2.415 . S
O574 C590 1.239 . S
O575 Tb561 2.399 . S
O575 C590 1.263 . S
O576 Tb561 2.325 . S
O576 C591 1.236 . S
O577 Tb560 2.322 . S
O577 C591 1.257 . S
O578 Tb560 2.349 . S
O578 C562 1.261 . S
O579 Tb561 2.303 . S
O579 C562 1.257 . S
C580 O570 1.236 . S
C580 O571 1.257 . S
O581 Tb560 2.415 . S
O581 C569 1.239 . S
O582 Tb560 2.399 . S
O582 C569 1.263 . S
C583 O572 1.261 . S
C583 O573 1.257 . S
C584 C587 1.358 . S
C584 C588 1.332 . S
C584 C590 1.504 . S
C585 C586 1.373 . S
C585 C589 1.308 . S
C586 C585 1.373 . S
C586 C587 1.429 . S
C586 H596 0.932 . S
C587 C584 1.358 . S
C587 C586 1.429 . S
C587 H597 0.930 . S
C588 C584 1.332 . S
C588 C589 1.394 . S
C588 H598 0.932 . S
C589 C585 1.308 . S
C589 C588 1.394 . S
C589 H599 0.929 . S
C590 Tb561 2.764 . S
C590 O574 1.239 . S
C590 O575 1.263 . S
C590 C584 1.504 . S
C591 O576 1.236 . S
C591 O577 1.257 . S
H592 C565 0.932 . S
H593 C566 0.930 . S
H594 C567 0.932 . S
H595 C568 0.929 . S
H596 C586 0.932 . S
H597 C587 0.930 . S
H598 C588 0.932 . S
H599 C589 0.929 . S
Tb600 C609 2.764 1_554 S
Tb600 O610 2.325 1_554 S
Tb600 O613 2.303 . S
Tb600 O617 2.322 . S
Tb600 O618 2.349 . S
Tb600 O621 2.415 1_554 S
Tb600 O622 2.399 1_554 S
Tb601 O611 2.322 1_554 S
Tb601 O612 2.349 . S
Tb601 O614 2.415 . S
Tb601 O615 2.399 . S
Tb601 O616 2.325 . S
Tb601 O619 2.303 . S
Tb601 C630 2.764 . S
C602 O618 1.261 . S
C602 O619 1.257 . S
C603 C606 1.358 1_565 S
C603 C607 1.332 . S
C603 C609 1.504 . S
C604 C605 1.373 . S
C604 C608 1.308 . S
C605 C604 1.373 . S
C605 C606 1.429 . S
C605 H632 0.932 . S
C606 C603 1.358 1_545 S
C606 C605 1.429 . S
C606 H633 0.930 . S
C607 C603 1.332 . S
C607 C608 1.394 1_565 S
C607 H634 0.932 . S
C608 C604 1.308 . S
C608 C607 1.394 1_545 S
C608 H635 0.929 1_545 S
C609 Tb600 2.764 1_556 S
C609 C603 1.504 . S
C609 O621 1.239 . S
C609 O622 1.263 . S
O610 Tb600 2.325 1_556 S
O610 C620 1.236 . S
O611 Tb601 2.322 1_556 S
O611 C620 1.257 . S
O612 Tb601 2.349 . S
O612 C623 1.261 1_554 S
O613 Tb600 2.303 . S
O613 C623 1.257 1_554 S
O614 Tb601 2.415 . S
O614 C630 1.239 . S
O615 Tb601 2.399 . S
O615 C630 1.263 . S
O616 Tb601 2.325 . S
O616 C631 1.236 . S
O617 Tb600 2.322 . S
O617 C631 1.257 . S
O618 Tb600 2.349 . S
O618 C602 1.261 . S
O619 Tb601 2.303 . S
O619 C602 1.257 . S
C620 O610 1.236 . S
C620 O611 1.257 . S
O621 Tb600 2.415 1_556 S
O621 C609 1.239 . S
O622 Tb600 2.399 1_556 S
O622 C609 1.263 . S
C623 O612 1.261 1_556 S
C623 O613 1.257 1_556 S
C624 C627 1.358 . S
C624 C628 1.332 . S
C624 C630 1.504 . S
C625 C626 1.373 . S
C625 C629 1.308 . S
C626 C625 1.373 . S
C626 C627 1.429 . S
C626 H636 0.932 . S
C627 C624 1.358 . S
C627 C626 1.429 . S
C627 H637 0.930 . S
C628 C624 1.332 . S
C628 C629 1.394 . S
C628 H638 0.932 . S
C629 C625 1.308 . S
C629 C628 1.394 . S
C629 H639 0.929 . S
C630 Tb601 2.764 . S
C630 O614 1.239 . S
C630 O615 1.263 . S
C630 C624 1.504 . S
C631 O616 1.236 . S
C631 O617 1.257 . S
H632 C605 0.932 . S
H633 C606 0.930 . S
H634 C607 0.932 . S
H635 C608 0.929 1_565 S
H636 C626 0.932 . S
H637 C627 0.930 . S
H638 C628 0.932 . S
H639 C629 0.929 . S
Tb640 C649 2.764 . S
Tb640 O650 2.325 . S
Tb640 O653 2.303 . S
Tb640 O657 2.322 . S
Tb640 O658 2.349 . S
Tb640 O661 2.415 . S
Tb640 O662 2.399 . S
Tb641 O651 2.322 . S
Tb641 O652 2.349 . S
Tb641 O654 2.415 . S
Tb641 O655 2.399 . S
Tb641 O656 2.325 . S
Tb641 O659 2.303 . S
Tb641 C670 2.764 . S
C642 O658 1.261 . S
C642 O659 1.257 . S
C643 C646 1.358 . S
C643 C647 1.332 . S
C643 C649 1.504 . S
C644 C645 1.373 . S
C644 C648 1.308 . S
C645 C644 1.373 . S
C645 C646 1.429 . S
C645 H672 0.932 . S
C646 C643 1.358 . S
C646 C645 1.429 . S
C646 H673 0.930 . S
C647 C643 1.332 . S
C647 C648 1.394 . S
C647 H674 0.932 . S
C648 C644 1.308 . S
C648 C647 1.394 . S
C648 H675 0.929 . S
C649 Tb640 2.764 . S
C649 C643 1.504 . S
C649 O661 1.239 . S
C649 O662 1.263 . S
O650 Tb640 2.325 . S
O650 C660 1.236 . S
O651 Tb641 2.322 . S
O651 C660 1.257 . S
O652 Tb641 2.349 . S
O652 C663 1.261 . S
O653 Tb640 2.303 . S
O653 C663 1.257 . S
O654 Tb641 2.415 . S
O654 C670 1.239 . S
O655 Tb641 2.399 . S
O655 C670 1.263 . S
O656 Tb641 2.325 . S
O656 C671 1.236 . S
O657 Tb640 2.322 . S
O657 C671 1.257 . S
O658 Tb640 2.349 . S
O658 C642 1.261 . S
O659 Tb641 2.303 . S
O659 C642 1.257 . S
C660 O650 1.236 . S
C660 O651 1.257 . S
O661 Tb640 2.415 . S
O661 C649 1.239 . S
O662 Tb640 2.399 . S
O662 C649 1.263 . S
C663 O652 1.261 . S
C663 O653 1.257 . S
C664 C667 1.358 . S
C664 C668 1.332 . S
C664 C670 1.504 . S
C665 C666 1.373 . S
C665 C669 1.308 . S
C666 C665 1.373 . S
C666 C667 1.429 . S
C666 H676 0.932 . S
C667 C664 1.358 . S
C667 C666 1.429 . S
C667 H677 0.930 . S
C668 C664 1.332 . S
C668 C669 1.394 . S
C668 H678 0.932 . S
C669 C665 1.308 . S
C669 C668 1.394 . S
C669 H679 0.929 . S
C670 Tb641 2.764 . S
C670 O654 1.239 . S
C670 O655 1.263 . S
C670 C664 1.504 . S
C671 O656 1.236 . S
C671 O657 1.257 . S
H672 C645 0.932 . S
H673 C646 0.930 . S
H674 C647 0.932 . S
H675 C648 0.929 . S
H676 C666 0.932 . S
H677 C667 0.930 . S
H678 C668 0.932 . S
H679 C669 0.929 . S
Tb680 C689 2.764 . S
Tb680 O690 2.325 . S
Tb680 O693 2.303 . S
Tb680 O697 2.322 1_554 S
Tb680 O698 2.349 . S
Tb680 O701 2.415 . S
Tb680 O702 2.399 . S
Tb681 O691 2.322 . S
Tb681 O692 2.349 . S
Tb681 O694 2.415 1_554 S
Tb681 O695 2.399 1_554 S
Tb681 O696 2.325 1_554 S
Tb681 O699 2.303 . S
Tb681 C710 2.764 1_554 S
C682 O698 1.261 1_556 S
C682 O699 1.257 1_556 S
C683 C686 1.358 . S
C683 C687 1.332 . S
C683 C689 1.504 . S
C684 C685 1.373 . S
C684 C688 1.308 . S
C685 C684 1.373 . S
C685 C686 1.429 . S
C685 H712 0.932 . S
C686 C683 1.358 . S
C686 C685 1.429 . S
C686 H713 0.930 . S
C687 C683 1.332 . S
C687 C688 1.394 . S
C687 H714 0.932 . S
C688 C684 1.308 . S
C688 C687 1.394 . S
C688 H715 0.929 . S
C689 Tb680 2.764 . S
C689 C683 1.504 . S
C689 O701 1.239 . S
C689 O702 1.263 . S
O690 Tb680 2.325 . S
O690 C700 1.236 . S
O691 Tb681 2.322 . S
O691 C700 1.257 . S
O692 Tb681 2.349 . S
O692 C703 1.261 . S
O693 Tb680 2.303 . S
O693 C703 1.257 . S
O694 Tb681 2.415 1_556 S
O694 C710 1.239 . S
O695 Tb681 2.399 1_556 S
O695 C710 1.263 . S
O696 Tb681 2.325 1_556 S
O696 C711 1.236 . S
O697 Tb680 2.322 1_556 S
O697 C711 1.257 . S
O698 Tb680 2.349 . S
O698 C682 1.261 1_554 S
O699 Tb681 2.303 . S
O699 C682 1.257 1_554 S
C700 O690 1.236 . S
C700 O691 1.257 . S
O701 Tb680 2.415 . S
O701 C689 1.239 . S
O702 Tb680 2.399 . S
O702 C689 1.263 . S
C703 O692 1.261 . S
C703 O693 1.257 . S
C704 C707 1.358 . S
C704 C708 1.332 . S
C704 C710 1.504 . S
C705 C706 1.373 . S
C705 C709 1.308 . S
C706 C705 1.373 . S
C706 C707 1.429 . S
C706 H716 0.932 . S
C707 C704 1.358 . S
C707 C706 1.429 . S
C707 H717 0.930 . S
C708 C704 1.332 . S
C708 C709 1.394 . S
C708 H718 0.932 . S
C709 C705 1.308 . S
C709 C708 1.394 . S
C709 H719 0.929 . S
C710 Tb681 2.764 1_556 S
C710 O694 1.239 . S
C710 O695 1.263 . S
C710 C704 1.504 . S
C711 O696 1.236 . S
C711 O697 1.257 . S
H712 C685 0.932 . S
H713 C686 0.930 . S
H714 C687 0.932 . S
H715 C688 0.929 . S
H716 C706 0.932 . S
H717 C707 0.930 . S
H718 C708 0.932 . S
H719 C709 0.929 . S
Tb720 C729 2.764 . S
Tb720 O730 2.325 . S
Tb720 O733 2.303 . S
Tb720 O737 2.322 . S
Tb720 O738 2.349 . S
Tb720 O741 2.415 . S
Tb720 O742 2.399 . S
Tb721 O731 2.322 . S
Tb721 O732 2.349 . S
Tb721 O734 2.415 . S
Tb721 O735 2.399 . S
Tb721 O736 2.325 . S
Tb721 O739 2.303 . S
Tb721 C750 2.764 . S
C722 O738 1.261 . S
C722 O739 1.257 . S
C723 C726 1.358 . S
C723 C727 1.332 . S
C723 C729 1.504 . S
C724 C725 1.373 . S
C724 C728 1.308 1_455 S
C725 C724 1.373 . S
C725 C726 1.429 1_455 S
C725 H752 0.932 . S
C726 C723 1.358 . S
C726 C725 1.429 1_655 S
C726 H753 0.930 . S
C727 C723 1.332 . S
C727 C728 1.394 . S
C727 H754 0.932 . S
C728 C724 1.308 1_655 S
C728 C727 1.394 . S
C728 H755 0.929 . S
C729 Tb720 2.764 . S
C729 C723 1.504 . S
C729 O741 1.239 . S
C729 O742 1.263 . S
O730 Tb720 2.325 . S
O730 C740 1.236 . S
O731 Tb721 2.322 . S
O731 C740 1.257 . S
O732 Tb721 2.349 . S
O732 C743 1.261 . S
O733 Tb720 2.303 . S
O733 C743 1.257 . S
O734 Tb721 2.415 . S
O734 C750 1.239 . S
O735 Tb721 2.399 . S
O735 C750 1.263 . S
O736 Tb721 2.325 . S
O736 C751 1.236 . S
O737 Tb720 2.322 . S
O737 C751 1.257 . S
O738 Tb720 2.349 . S
O738 C722 1.261 . S
O739 Tb721 2.303 . S
O739 C722 1.257 . S
C740 O730 1.236 . S
C740 O731 1.257 . S
O741 Tb720 2.415 . S
O741 C729 1.239 . S
O742 Tb720 2.399 . S
O742 C729 1.263 . S
C743 O732 1.261 . S
C743 O733 1.257 . S
C744 C747 1.358 . S
C744 C748 1.332 . S
C744 C750 1.504 . S
C745 C746 1.373 . S
C745 C749 1.308 . S
C746 C745 1.373 . S
C746 C747 1.429 . S
C746 H756 0.932 . S
C747 C744 1.358 . S
C747 C746 1.429 . S
C747 H757 0.930 . S
C748 C744 1.332 . S
C748 C749 1.394 . S
C748 H758 0.932 . S
C749 C745 1.308 . S
C749 C748 1.394 . S
C749 H759 0.929 . S
C750 Tb721 2.764 . S
C750 O734 1.239 . S
C750 O735 1.263 . S
C750 C744 1.504 . S
C751 O736 1.236 . S
C751 O737 1.257 . S
H752 C725 0.932 . S
H753 C726 0.930 . S
H754 C727 0.932 . S
H755 C728 0.929 . S
H756 C746 0.932 . S
H757 C747 0.930 . S
H758 C748 0.932 . S
H759 C749 0.929 . S
Tb760 C769 2.764 . S
Tb760 O770 2.325 . S
Tb760 O773 2.303 . S
Tb760 O777 2.322 . S
Tb760 O778 2.349 . S
Tb760 O781 2.415 . S
Tb760 O782 2.399 . S
Tb761 O771 2.322 . S
Tb761 O772 2.349 . S
Tb761 O774 2.415 . S
Tb761 O775 2.399 . S
Tb761 O776 2.325 . S
Tb761 O779 2.303 . S
Tb761 C790 2.764 . S
C762 O778 1.261 . S
C762 O779 1.257 . S
C763 C766 1.358 . S
C763 C767 1.332 . S
C763 C769 1.504 . S
C764 C765 1.373 . S
C764 C768 1.308 . S
C765 C764 1.373 . S
C765 C766 1.429 . S
C765 H792 0.932 . S
C766 C763 1.358 . S
C766 C765 1.429 . S
C766 H793 0.930 . S
C767 C763 1.332 . S
C767 C768 1.394 . S
C767 H794 0.932 . S
C768 C764 1.308 . S
C768 C767 1.394 . S
C768 H795 0.929 . S
C769 Tb760 2.764 . S
C769 C763 1.504 . S
C769 O781 1.239 . S
C769 O782 1.263 . S
O770 Tb760 2.325 . S
O770 C780 1.236 . S
O771 Tb761 2.322 . S
O771 C780 1.257 . S
O772 Tb761 2.349 . S
O772 C783 1.261 . S
O773 Tb760 2.303 . S
O773 C783 1.257 . S
O774 Tb761 2.415 . S
O774 C790 1.239 . S
O775 Tb761 2.399 . S
O775 C790 1.263 . S
O776 Tb761 2.325 . S
O776 C791 1.236 . S
O777 Tb760 2.322 . S
O777 C791 1.257 . S
O778 Tb760 2.349 . S
O778 C762 1.261 . S
O779 Tb761 2.303 . S
O779 C762 1.257 . S
C780 O770 1.236 . S
C780 O771 1.257 . S
O781 Tb760 2.415 . S
O781 C769 1.239 . S
O782 Tb760 2.399 . S
O782 C769 1.263 . S
C783 O772 1.261 . S
C783 O773 1.257 . S
C784 C787 1.358 . S
C784 C788 1.332 . S
C784 C790 1.504 . S
C785 C786 1.373 . S
C785 C789 1.308 . S
C786 C785 1.373 . S
C786 C787 1.429 . S
C786 H796 0.932 . S
C787 C784 1.358 . S
C787 C786 1.429 . S
C787 H797 0.930 . S
C788 C784 1.332 . S
C788 C789 1.394 . S
C788 H798 0.932 . S
C789 C785 1.308 . S
C789 C788 1.394 . S
C789 H799 0.929 . S
C790 Tb761 2.764 . S
C790 O774 1.239 . S
C790 O775 1.263 . S
C790 C784 1.504 . S
C791 O776 1.236 . S
C791 O777 1.257 . S
H792 C765 0.932 . S
H793 C766 0.930 . S
H794 C767 0.932 . S
H795 C768 0.929 . S
H796 C786 0.932 . S
H797 C787 0.930 . S
H798 C788 0.932 . S
H799 C789 0.929 . S
Tb800 C809 2.764 . S
Tb800 O810 2.325 . S
Tb800 O813 2.303 . S
Tb800 O817 2.322 . S
Tb800 O818 2.349 . S
Tb800 O821 2.415 . S
Tb800 O822 2.399 . S
Tb801 O811 2.322 . S
Tb801 O812 2.349 . S
Tb801 O814 2.415 . S
Tb801 O815 2.399 . S
Tb801 O816 2.325 . S
Tb801 O819 2.303 . S
Tb801 C830 2.764 . S
C802 O818 1.261 . S
C802 O819 1.257 . S
C803 C806 1.358 . S
C803 C807 1.332 . S
C803 C809 1.504 . S
C804 C805 1.373 . S
C804 C808 1.308 . S
C805 C804 1.373 . S
C805 C806 1.429 . S
C805 H832 0.932 . S
C806 C803 1.358 . S
C806 C805 1.429 . S
C806 H833 0.930 . S
C807 C803 1.332 . S
C807 C808 1.394 . S
C807 H834 0.932 . S
C808 C804 1.308 . S
C808 C807 1.394 . S
C808 H835 0.929 . S
C809 Tb800 2.764 . S
C809 C803 1.504 . S
C809 O821 1.239 . S
C809 O822 1.263 . S
O810 Tb800 2.325 . S
O810 C820 1.236 . S
O811 Tb801 2.322 . S
O811 C820 1.257 . S
O812 Tb801 2.349 . S
O812 C823 1.261 . S
O813 Tb800 2.303 . S
O813 C823 1.257 . S
O814 Tb801 2.415 . S
O814 C830 1.239 . S
O815 Tb801 2.399 . S
O815 C830 1.263 . S
O816 Tb801 2.325 . S
O816 C831 1.236 . S
O817 Tb800 2.322 . S
O817 C831 1.257 . S
O818 Tb800 2.349 . S
O818 C802 1.261 . S
O819 Tb801 2.303 . S
O819 C802 1.257 . S
C820 O810 1.236 . S
C820 O811 1.257 . S
O821 Tb800 2.415 . S
O821 C809 1.239 . S
O822 Tb800 2.399 . S
O822 C809 1.263 . S
C823 O812 1.261 . S
C823 O813 1.257 . S
C824 C827 1.358 . S
C824 C828 1.332 . S
C824 C830 1.504 . S
C825 C826 1.373 . S
C825 C829 1.308 . S
C826 C825 1.373 . S
C826 C827 1.429 . S
C826 H836 0.932 . S
C827 C824 1.358 . S
C827 C826 1.429 . S
C827 H837 0.930 . S
C828 C824 1.332 . S
C828 C829 1.394 . S
C828 H838 0.932 . S
C829 C825 1.308 . S
C829 C828 1.394 . S
C829 H839 0.929 . S
C830 Tb801 2.764 . S
C830 O814 1.239 . S
C830 O815 1.263 . S
C830 C824 1.504 . S
C831 O816 1.236 . S
C831 O817 1.257 . S
H832 C805 0.932 . S
H833 C806 0.930 . S
H834 C807 0.932 . S
H835 C808 0.929 . S
H836 C826 0.932 . S
H837 C827 0.930 . S
H838 C828 0.932 . S
H839 C829 0.929 . S
Tb840 C849 2.764 . S
Tb840 O850 2.325 . S
Tb840 O853 2.303 . S
Tb840 O857 2.322 1_556 S
Tb840 O858 2.349 . S
Tb840 O861 2.415 . S
Tb840 O862 2.399 . S
Tb841 O851 2.322 . S
Tb841 O852 2.349 . S
Tb841 O854 2.415 1_556 S
Tb841 O855 2.399 1_556 S
Tb841 O856 2.325 1_556 S
Tb841 O859 2.303 . S
Tb841 C870 2.764 1_556 S
C842 O858 1.261 1_554 S
C842 O859 1.257 1_554 S
C843 C846 1.358 . S
C843 C847 1.332 . S
C843 C849 1.504 . S
C844 C845 1.373 . S
C844 C848 1.308 . S
C845 C844 1.373 . S
C845 C846 1.429 . S
C845 H872 0.932 . S
C846 C843 1.358 . S
C846 C845 1.429 . S
C846 H873 0.930 . S
C847 C843 1.332 . S
C847 C848 1.394 . S
C847 H874 0.932 . S
C848 C844 1.308 . S
C848 C847 1.394 . S
C848 H875 0.929 . S
C849 Tb840 2.764 . S
C849 C843 1.504 . S
C849 O861 1.239 . S
C849 O862 1.263 . S
O850 Tb840 2.325 . S
O850 C860 1.236 . S
O851 Tb841 2.322 . S
O851 C860 1.257 . S
O852 Tb841 2.349 . S
O852 C863 1.261 . S
O853 Tb840 2.303 . S
O853 C863 1.257 . S
O854 Tb841 2.415 1_554 S
O854 C870 1.239 . S
O855 Tb841 2.399 1_554 S
O855 C870 1.263 . S
O856 Tb841 2.325 1_554 S
O856 C871 1.236 . S
O857 Tb840 2.322 1_554 S
O857 C871 1.257 . S
O858 Tb840 2.349 . S
O858 C842 1.261 1_556 S
O859 Tb841 2.303 . S
O859 C842 1.257 1_556 S
C860 O850 1.236 . S
C860 O851 1.257 . S
O861 Tb840 2.415 . S
O861 C849 1.239 . S
O862 Tb840 2.399 . S
O862 C849 1.263 . S
C863 O852 1.261 . S
C863 O853 1.257 . S
C864 C867 1.358 . S
C864 C868 1.332 . S
C864 C870 1.504 . S
C865 C866 1.373 . S
C865 C869 1.308 . S
C866 C865 1.373 . S
C866 C867 1.429 . S
C866 H876 0.932 . S
C867 C864 1.358 . S
C867 C866 1.429 . S
C867 H877 0.930 . S
C868 C864 1.332 . S
C868 C869 1.394 . S
C868 H878 0.932 . S
C869 C865 1.308 . S
C869 C868 1.394 . S
C869 H879 0.929 . S
C870 Tb841 2.764 1_554 S
C870 O854 1.239 . S
C870 O855 1.263 . S
C870 C864 1.504 . S
C871 O856 1.236 . S
C871 O857 1.257 . S
H872 C845 0.932 . S
H873 C846 0.930 . S
H874 C847 0.932 . S
H875 C848 0.929 . S
H876 C866 0.932 . S
H877 C867 0.930 . S
H878 C868 0.932 . S
H879 C869 0.929 . S
Tb880 C889 2.764 . S
Tb880 O890 2.325 . S
Tb880 O893 2.303 . S
Tb880 O897 2.322 . S
Tb880 O898 2.349 . S
Tb880 O901 2.415 . S
Tb880 O902 2.399 . S
Tb881 O891 2.322 . S
Tb881 O892 2.349 . S
Tb881 O894 2.415 . S
Tb881 O895 2.399 . S
Tb881 O896 2.325 . S
Tb881 O899 2.303 . S
Tb881 C910 2.764 . S
C882 O898 1.261 . S
C882 O899 1.257 . S
C883 C886 1.358 . S
C883 C887 1.332 . S
C883 C889 1.504 . S
C884 C885 1.373 . S
C884 C888 1.308 1_455 S
C885 C884 1.373 . S
C885 C886 1.429 1_455 S
C885 H912 0.932 . S
C886 C883 1.358 . S
C886 C885 1.429 1_655 S
C886 H913 0.930 . S
C887 C883 1.332 . S
C887 C888 1.394 . S
C887 H914 0.932 . S
C888 C884 1.308 1_655 S
C888 C887 1.394 . S
C888 H915 0.929 . S
C889 Tb880 2.764 . S
C889 C883 1.504 . S
C889 O901 1.239 . S
C889 O902 1.263 . S
O890 Tb880 2.325 . S
O890 C900 1.236 . S
O891 Tb881 2.322 . S
O891 C900 1.257 . S
O892 Tb881 2.349 . S
O892 C903 1.261 . S
O893 Tb880 2.303 . S
O893 C903 1.257 . S
O894 Tb881 2.415 . S
O894 C910 1.239 . S
O895 Tb881 2.399 . S
O895 C910 1.263 . S
O896 Tb881 2.325 . S
O896 C911 1.236 . S
O897 Tb880 2.322 . S
O897 C911 1.257 . S
O898 Tb880 2.349 . S
O898 C882 1.261 . S
O899 Tb881 2.303 . S
O899 C882 1.257 . S
C900 O890 1.236 . S
C900 O891 1.257 . S
O901 Tb880 2.415 . S
O901 C889 1.239 . S
O902 Tb880 2.399 . S
O902 C889 1.263 . S
C903 O892 1.261 . S
C903 O893 1.257 . S
C904 C907 1.358 . S
C904 C908 1.332 . S
C904 C910 1.504 . S
C905 C906 1.373 . S
C905 C909 1.308 . S
C906 C905 1.373 . S
C906 C907 1.429 . S
C906 H916 0.932 . S
C907 C904 1.358 . S
C907 C906 1.429 . S
C907 H917 0.930 . S
C908 C904 1.332 . S
C908 C909 1.394 . S
C908 H918 0.932 . S
C909 C905 1.308 . S
C909 C908 1.394 . S
C909 H919 0.929 . S
C910 Tb881 2.764 . S
C910 O894 1.239 . S
C910 O895 1.263 . S
C910 C904 1.504 . S
C911 O896 1.236 . S
C911 O897 1.257 . S
H912 C885 0.932 . S
H913 C886 0.930 . S
H914 C887 0.932 . S
H915 C888 0.929 . S
H916 C906 0.932 . S
H917 C907 0.930 . S
H918 C908 0.932 . S
H919 C909 0.929 . S
Tb920 C929 2.764 . S
Tb920 O930 2.325 . S
Tb920 O933 2.303 . S
Tb920 O937 2.322 . S
Tb920 O938 2.349 . S
Tb920 O941 2.415 . S
Tb920 O942 2.399 . S
Tb921 O931 2.322 . S
Tb921 O932 2.349 . S
Tb921 O934 2.415 . S
Tb921 O935 2.399 . S
Tb921 O936 2.325 . S
Tb921 O939 2.303 . S
Tb921 C950 2.764 . S
C922 O938 1.261 . S
C922 O939 1.257 . S
C923 C926 1.358 . S
C923 C927 1.332 . S
C923 C929 1.504 . S
C924 C925 1.373 . S
C924 C928 1.308 . S
C925 C924 1.373 . S
C925 C926 1.429 . S
C925 H952 0.932 . S
C926 C923 1.358 . S
C926 C925 1.429 . S
C926 H953 0.930 . S
C927 C923 1.332 . S
C927 C928 1.394 . S
C927 H954 0.932 . S
C928 C924 1.308 . S
C928 C927 1.394 . S
C928 H955 0.929 . S
C929 Tb920 2.764 . S
C929 C923 1.504 . S
C929 O941 1.239 . S
C929 O942 1.263 . S
O930 Tb920 2.325 . S
O930 C940 1.236 . S
O931 Tb921 2.322 . S
O931 C940 1.257 . S
O932 Tb921 2.349 . S
O932 C943 1.261 . S
O933 Tb920 2.303 . S
O933 C943 1.257 . S
O934 Tb921 2.415 . S
O934 C950 1.239 . S
O935 Tb921 2.399 . S
O935 C950 1.263 . S
O936 Tb921 2.325 . S
O936 C951 1.236 . S
O937 Tb920 2.322 . S
O937 C951 1.257 . S
O938 Tb920 2.349 . S
O938 C922 1.261 . S
O939 Tb921 2.303 . S
O939 C922 1.257 . S
C940 O930 1.236 . S
C940 O931 1.257 . S
O941 Tb920 2.415 . S
O941 C929 1.239 . S
O942 Tb920 2.399 . S
O942 C929 1.263 . S
C943 O932 1.261 . S
C943 O933 1.257 . S
C944 C947 1.358 . S
C944 C948 1.332 . S
C944 C950 1.504 . S
C945 C946 1.373 . S
C945 C949 1.308 . S
C946 C945 1.373 . S
C946 C947 1.429 . S
C946 H956 0.932 . S
C947 C944 1.358 . S
C947 C946 1.429 . S
C947 H957 0.930 . S
C948 C944 1.332 . S
C948 C949 1.394 . S
C948 H958 0.932 . S
C949 C945 1.308 . S
C949 C948 1.394 . S
C949 H959 0.929 . S
C950 Tb921 2.764 . S
C950 O934 1.239 . S
C950 O935 1.263 . S
C950 C944 1.504 . S
C951 O936 1.236 . S
C951 O937 1.257 . S
H952 C925 0.932 . S
H953 C926 0.930 . S
H954 C927 0.932 . S
H955 C928 0.929 . S
H956 C946 0.932 . S
H957 C947 0.930 . S
H958 C948 0.932 . S
H959 C949 0.929 . S
Tb960 C969 2.764 . S
Tb960 O970 2.325 . S
Tb960 O973 2.303 . S
Tb960 O977 2.322 . S
Tb960 O978 2.349 . S
Tb960 O981 2.415 . S
Tb960 O982 2.399 . S
Tb961 O971 2.322 . S
Tb961 O972 2.349 . S
Tb961 O974 2.415 . S
Tb961 O975 2.399 . S
Tb961 O976 2.325 . S
Tb961 O979 2.303 . S
Tb961 C990 2.764 . S
C962 O978 1.261 . S
C962 O979 1.257 . S
C963 C966 1.358 . S
C963 C967 1.332 . S
C963 C969 1.504 . S
C964 C965 1.373 . S
C964 C968 1.308 . S
C965 C964 1.373 . S
C965 C966 1.429 . S
C965 H992 0.932 . S
C966 C963 1.358 . S
C966 C965 1.429 . S
C966 H993 0.930 . S
C967 C963 1.332 . S
C967 C968 1.394 . S
C967 H994 0.932 . S
C968 C964 1.308 . S
C968 C967 1.394 . S
C968 H995 0.929 . S
C969 Tb960 2.764 . S
C969 C963 1.504 . S
C969 O981 1.239 . S
C969 O982 1.263 . S
O970 Tb960 2.325 . S
O970 C980 1.236 . S
O971 Tb961 2.322 . S
O971 C980 1.257 . S
O972 Tb961 2.349 . S
O972 C983 1.261 . S
O973 Tb960 2.303 . S
O973 C983 1.257 . S
O974 Tb961 2.415 . S
O974 C990 1.239 . S
O975 Tb961 2.399 . S
O975 C990 1.263 . S
O976 Tb961 2.325 . S
O976 C991 1.236 . S
O977 Tb960 2.322 . S
O977 C991 1.257 . S
O978 Tb960 2.349 . S
O978 C962 1.261 . S
O979 Tb961 2.303 . S
O979 C962 1.257 . S
C980 O970 1.236 . S
C980 O971 1.257 . S
O981 Tb960 2.415 . S
O981 C969 1.239 . S
O982 Tb960 2.399 . S
O982 C969 1.263 . S
C983 O972 1.261 . S
C983 O973 1.257 . S
C984 C987 1.358 . S
C984 C988 1.332 . S
C984 C990 1.504 . S
C985 C986 1.373 . S
C985 C989 1.308 . S
C986 C985 1.373 . S
C986 C987 1.429 . S
C986 H996 0.932 . S
C987 C984 1.358 . S
C987 C986 1.429 . S
C987 H997 0.930 . S
C988 C984 1.332 . S
C988 C989 1.394 . S
C988 H998 0.932 . S
C989 C985 1.308 . S
C989 C988 1.394 . S
C989 H999 0.929 . S
C990 Tb961 2.764 . S
C990 O974 1.239 . S
C990 O975 1.263 . S
C990 C984 1.504 . S
C991 O976 1.236 . S
C991 O977 1.257 . S
H992 C965 0.932 . S
H993 C966 0.930 . S
H994 C967 0.932 . S
H995 C968 0.929 . S
H996 C986 0.932 . S
H997 C987 0.930 . S
H998 C988 0.932 . S
H999 C989 0.929 . S
Tb1000 C1009 2.764 1_556 S
Tb1000 O1010 2.325 1_556 S
Tb1000 O1013 2.303 . S
Tb1000 O1017 2.322 . S
Tb1000 O1018 2.349 . S
Tb1000 O1021 2.415 1_556 S
Tb1000 O1022 2.399 1_556 S
Tb1001 O1011 2.322 1_556 S
Tb1001 O1012 2.349 . S
Tb1001 O1014 2.415 . S
Tb1001 O1015 2.399 . S
Tb1001 O1016 2.325 . S
Tb1001 O1019 2.303 . S
Tb1001 C1030 2.764 . S
C1002 O1018 1.261 . S
C1002 O1019 1.257 . S
C1003 C1006 1.358 . S
C1003 C1007 1.332 . S
C1003 C1009 1.504 . S
C1004 C1005 1.373 . S
C1004 C1008 1.308 . S
C1005 C1004 1.373 . S
C1005 C1006 1.429 . S
C1005 H1032 0.932 . S
C1006 C1003 1.358 . S
C1006 C1005 1.429 . S
C1006 H1033 0.930 . S
C1007 C1003 1.332 . S
C1007 C1008 1.394 . S
C1007 H1034 0.932 . S
C1008 C1004 1.308 . S
C1008 C1007 1.394 . S
C1008 H1035 0.929 . S
C1009 Tb1000 2.764 1_554 S
C1009 C1003 1.504 . S
C1009 O1021 1.239 . S
C1009 O1022 1.263 . S
O1010 Tb1000 2.325 1_554 S
O1010 C1020 1.236 . S
O1011 Tb1001 2.322 1_554 S
O1011 C1020 1.257 . S
O1012 Tb1001 2.349 . S
O1012 C1023 1.261 1_556 S
O1013 Tb1000 2.303 . S
O1013 C1023 1.257 1_556 S
O1014 Tb1001 2.415 . S
O1014 C1030 1.239 . S
O1015 Tb1001 2.399 . S
O1015 C1030 1.263 . S
O1016 Tb1001 2.325 . S
O1016 C1031 1.236 . S
O1017 Tb1000 2.322 . S
O1017 C1031 1.257 . S
O1018 Tb1000 2.349 . S
O1018 C1002 1.261 . S
O1019 Tb1001 2.303 . S
O1019 C1002 1.257 . S
C1020 O1010 1.236 . S
C1020 O1011 1.257 . S
O1021 Tb1000 2.415 1_554 S
O1021 C1009 1.239 . S
O1022 Tb1000 2.399 1_554 S
O1022 C1009 1.263 . S
C1023 O1012 1.261 1_554 S
C1023 O1013 1.257 1_554 S
C1024 C1027 1.358 . S
C1024 C1028 1.332 . S
C1024 C1030 1.504 . S
C1025 C1026 1.373 . S
C1025 C1029 1.308 . S
C1026 C1025 1.373 . S
C1026 C1027 1.429 . S
C1026 H1036 0.932 . S
C1027 C1024 1.358 . S
C1027 C1026 1.429 . S
C1027 H1037 0.930 . S
C1028 C1024 1.332 . S
C1028 C1029 1.394 . S
C1028 H1038 0.932 . S
C1029 C1025 1.308 . S
C1029 C1028 1.394 . S
C1029 H1039 0.929 . S
C1030 Tb1001 2.764 . S
C1030 O1014 1.239 . S
C1030 O1015 1.263 . S
C1030 C1024 1.504 . S
C1031 O1016 1.236 . S
C1031 O1017 1.257 . S
H1032 C1005 0.932 . S
H1033 C1006 0.930 . S
H1034 C1007 0.932 . S
H1035 C1008 0.929 . S
H1036 C1026 0.932 . S
H1037 C1027 0.930 . S
H1038 C1028 0.932 . S
H1039 C1029 0.929 . S
Tb1040 C1049 2.764 . S
Tb1040 O1050 2.325 . S
Tb1040 O1053 2.303 . S
Tb1040 O1057 2.322 . S
Tb1040 O1058 2.349 . S
Tb1040 O1061 2.415 . S
Tb1040 O1062 2.399 . S
Tb1041 O1051 2.322 . S
Tb1041 O1052 2.349 . S
Tb1041 O1054 2.415 . S
Tb1041 O1055 2.399 . S
Tb1041 O1056 2.325 . S
Tb1041 O1059 2.303 . S
Tb1041 C1070 2.764 . S
C1042 O1058 1.261 . S
C1042 O1059 1.257 . S
C1043 C1046 1.358 . S
C1043 C1047 1.332 . S
C1043 C1049 1.504 . S
C1044 C1045 1.373 . S
C1044 C1048 1.308 . S
C1045 C1044 1.373 . S
C1045 C1046 1.429 . S
C1045 H1072 0.932 . S
C1046 C1043 1.358 . S
C1046 C1045 1.429 . S
C1046 H1073 0.930 . S
C1047 C1043 1.332 . S
C1047 C1048 1.394 . S
C1047 H1074 0.932 . S
C1048 C1044 1.308 . S
C1048 C1047 1.394 . S
C1048 H1075 0.929 . S
C1049 Tb1040 2.764 . S
C1049 C1043 1.504 . S
C1049 O1061 1.239 . S
C1049 O1062 1.263 . S
O1050 Tb1040 2.325 . S
O1050 C1060 1.236 . S
O1051 Tb1041 2.322 . S
O1051 C1060 1.257 . S
O1052 Tb1041 2.349 . S
O1052 C1063 1.261 . S
O1053 Tb1040 2.303 . S
O1053 C1063 1.257 . S
O1054 Tb1041 2.415 . S
O1054 C1070 1.239 . S
O1055 Tb1041 2.399 . S
O1055 C1070 1.263 . S
O1056 Tb1041 2.325 . S
O1056 C1071 1.236 . S
O1057 Tb1040 2.322 . S
O1057 C1071 1.257 . S
O1058 Tb1040 2.349 . S
O1058 C1042 1.261 . S
O1059 Tb1041 2.303 . S
O1059 C1042 1.257 . S
C1060 O1050 1.236 . S
C1060 O1051 1.257 . S
O1061 Tb1040 2.415 . S
O1061 C1049 1.239 . S
O1062 Tb1040 2.399 . S
O1062 C1049 1.263 . S
C1063 O1052 1.261 . S
C1063 O1053 1.257 . S
C1064 C1067 1.358 . S
C1064 C1068 1.332 . S
C1064 C1070 1.504 . S
C1065 C1066 1.373 . S
C1065 C1069 1.308 1_655 S
C1066 C1065 1.373 . S
C1066 C1067 1.429 1_655 S
C1066 H1076 0.932 . S
C1067 C1064 1.358 . S
C1067 C1066 1.429 1_455 S
C1067 H1077 0.930 . S
C1068 C1064 1.332 . S
C1068 C1069 1.394 . S
C1068 H1078 0.932 . S
C1069 C1065 1.308 1_455 S
C1069 C1068 1.394 . S
C1069 H1079 0.929 . S
C1070 Tb1041 2.764 . S
C1070 O1054 1.239 . S
C1070 O1055 1.263 . S
C1070 C1064 1.504 . S
C1071 O1056 1.236 . S
C1071 O1057 1.257 . S
H1072 C1045 0.932 . S
H1073 C1046 0.930 . S
H1074 C1047 0.932 . S
H1075 C1048 0.929 . S
H1076 C1066 0.932 . S
H1077 C1067 0.930 . S
H1078 C1068 0.932 . S
H1079 C1069 0.929 . S
Tb1080 C1089 2.764 . S
Tb1080 O1090 2.325 . S
Tb1080 O1093 2.303 . S
Tb1080 O1097 2.322 . S
Tb1080 O1098 2.349 . S
Tb1080 O1101 2.415 . S
Tb1080 O1102 2.399 . S
Tb1081 O1091 2.322 . S
Tb1081 O1092 2.349 . S
Tb1081 O1094 2.415 . S
Tb1081 O1095 2.399 . S
Tb1081 O1096 2.325 . S
Tb1081 O1099 2.303 . S
Tb1081 C1110 2.764 . S
C1082 O1098 1.261 . S
C1082 O1099 1.257 . S
C1083 C1086 1.358 . S
C1083 C1087 1.332 . S
C1083 C1089 1.504 . S
C1084 C1085 1.373 . S
C1084 C1088 1.308 . S
C1085 C1084 1.373 . S
C1085 C1086 1.429 . S
C1085 H1112 0.932 . S
C1086 C1083 1.358 . S
C1086 C1085 1.429 . S
C1086 H1113 0.930 . S
C1087 C1083 1.332 . S
C1087 C1088 1.394 . S
C1087 H1114 0.932 . S
C1088 C1084 1.308 . S
C1088 C1087 1.394 . S
C1088 H1115 0.929 . S
C1089 Tb1080 2.764 . S
C1089 C1083 1.504 . S
C1089 O1101 1.239 . S
C1089 O1102 1.263 . S
O1090 Tb1080 2.325 . S
O1090 C1100 1.236 . S
O1091 Tb1081 2.322 . S
O1091 C1100 1.257 . S
O1092 Tb1081 2.349 . S
O1092 C1103 1.261 . S
O1093 Tb1080 2.303 . S
O1093 C1103 1.257 . S
O1094 Tb1081 2.415 . S
O1094 C1110 1.239 . S
O1095 Tb1081 2.399 . S
O1095 C1110 1.263 . S
O1096 Tb1081 2.325 . S
O1096 C1111 1.236 . S
O1097 Tb1080 2.322 . S
O1097 C1111 1.257 . S
O1098 Tb1080 2.349 . S
O1098 C1082 1.261 . S
O1099 Tb1081 2.303 . S
O1099 C1082 1.257 . S
C1100 O1090 1.236 . S
C1100 O1091 1.257 . S
O1101 Tb1080 2.415 . S
O1101 C1089 1.239 . S
O1102 Tb1080 2.399 . S
O1102 C1089 1.263 . S
C1103 O1092 1.261 . S
C1103 O1093 1.257 . S
C1104 C1107 1.358 . S
C1104 C1108 1.332 . S
C1104 C1110 1.504 . S
C1105 C1106 1.373 . S
C1105 C1109 1.308 . S
C1106 C1105 1.373 . S
C1106 C1107 1.429 . S
C1106 H1116 0.932 . S
C1107 C1104 1.358 . S
C1107 C1106 1.429 . S
C1107 H1117 0.930 . S
C1108 C1104 1.332 . S
C1108 C1109 1.394 . S
C1108 H1118 0.932 . S
C1109 C1105 1.308 . S
C1109 C1108 1.394 . S
C1109 H1119 0.929 . S
C1110 Tb1081 2.764 . S
C1110 O1094 1.239 . S
C1110 O1095 1.263 . S
C1110 C1104 1.504 . S
C1111 O1096 1.236 . S
C1111 O1097 1.257 . S
H1112 C1085 0.932 . S
H1113 C1086 0.930 . S
H1114 C1087 0.932 . S
H1115 C1088 0.929 . S
H1116 C1106 0.932 . S
H1117 C1107 0.930 . S
H1118 C1108 0.932 . S
H1119 C1109 0.929 . S
Tb1120 C1129 2.764 . S
Tb1120 O1130 2.325 . S
Tb1120 O1133 2.303 . S
Tb1120 O1137 2.322 . S
Tb1120 O1138 2.349 . S
Tb1120 O1141 2.415 . S
Tb1120 O1142 2.399 . S
Tb1121 O1131 2.322 . S
Tb1121 O1132 2.349 . S
Tb1121 O1134 2.415 . S
Tb1121 O1135 2.399 . S
Tb1121 O1136 2.325 . S
Tb1121 O1139 2.303 . S
Tb1121 C1150 2.764 . S
C1122 O1138 1.261 . S
C1122 O1139 1.257 . S
C1123 C1126 1.358 . S
C1123 C1127 1.332 . S
C1123 C1129 1.504 . S
C1124 C1125 1.373 . S
C1124 C1128 1.308 . S
C1125 C1124 1.373 . S
C1125 C1126 1.429 . S
C1125 H1152 0.932 . S
C1126 C1123 1.358 . S
C1126 C1125 1.429 . S
C1126 H1153 0.930 . S
C1127 C1123 1.332 . S
C1127 C1128 1.394 . S
C1127 H1154 0.932 . S
C1128 C1124 1.308 . S
C1128 C1127 1.394 . S
C1128 H1155 0.929 . S
C1129 Tb1120 2.764 . S
C1129 C1123 1.504 . S
C1129 O1141 1.239 . S
C1129 O1142 1.263 . S
O1130 Tb1120 2.325 . S
O1130 C1140 1.236 . S
O1131 Tb1121 2.322 . S
O1131 C1140 1.257 . S
O1132 Tb1121 2.349 . S
O1132 C1143 1.261 . S
O1133 Tb1120 2.303 . S
O1133 C1143 1.257 . S
O1134 Tb1121 2.415 . S
O1134 C1150 1.239 . S
O1135 Tb1121 2.399 . S
O1135 C1150 1.263 . S
O1136 Tb1121 2.325 . S
O1136 C1151 1.236 . S
O1137 Tb1120 2.322 . S
O1137 C1151 1.257 . S
O1138 Tb1120 2.349 . S
O1138 C1122 1.261 . S
O1139 Tb1121 2.303 . S
O1139 C1122 1.257 . S
C1140 O1130 1.236 . S
C1140 O1131 1.257 . S
O1141 Tb1120 2.415 . S
O1141 C1129 1.239 . S
O1142 Tb1120 2.399 . S
O1142 C1129 1.263 . S
C1143 O1132 1.261 . S
C1143 O1133 1.257 . S
C1144 C1147 1.358 . S
C1144 C1148 1.332 . S
C1144 C1150 1.504 . S
C1145 C1146 1.373 . S
C1145 C1149 1.308 . S
C1146 C1145 1.373 . S
C1146 C1147 1.429 . S
C1146 H1156 0.932 . S
C1147 C1144 1.358 . S
C1147 C1146 1.429 . S
C1147 H1157 0.930 . S
C1148 C1144 1.332 . S
C1148 C1149 1.394 . S
C1148 H1158 0.932 . S
C1149 C1145 1.308 . S
C1149 C1148 1.394 . S
C1149 H1159 0.929 . S
C1150 Tb1121 2.764 . S
C1150 O1134 1.239 . S
C1150 O1135 1.263 . S
C1150 C1144 1.504 . S
C1151 O1136 1.236 . S
C1151 O1137 1.257 . S
H1152 C1125 0.932 . S
H1153 C1126 0.930 . S
H1154 C1127 0.932 . S
H1155 C1128 0.929 . S
H1156 C1146 0.932 . S
H1157 C1147 0.930 . S
H1158 C1148 0.932 . S
H1159 C1149 0.929 . S
Tb1160 C1169 2.764 1_554 S
Tb1160 O1170 2.325 1_554 S
Tb1160 O1173 2.303 . S
Tb1160 O1177 2.322 . S
Tb1160 O1178 2.349 . S
Tb1160 O1181 2.415 1_554 S
Tb1160 O1182 2.399 1_554 S
Tb1161 O1171 2.322 1_554 S
Tb1161 O1172 2.349 . S
Tb1161 O1174 2.415 . S
Tb1161 O1175 2.399 . S
Tb1161 O1176 2.325 . S
Tb1161 O1179 2.303 . S
Tb1161 C1190 2.764 . S
C1162 O1178 1.261 . S
C1162 O1179 1.257 . S
C1163 C1166 1.358 . S
C1163 C1167 1.332 . S
C1163 C1169 1.504 . S
C1164 C1165 1.373 . S
C1164 C1168 1.308 . S
C1165 C1164 1.373 . S
C1165 C1166 1.429 . S
C1165 H1192 0.932 . S
C1166 C1163 1.358 . S
C1166 C1165 1.429 . S
C1166 H1193 0.930 . S
C1167 C1163 1.332 . S
C1167 C1168 1.394 . S
C1167 H1194 0.932 . S
C1168 C1164 1.308 . S
C1168 C1167 1.394 . S
C1168 H1195 0.929 . S
C1169 Tb1160 2.764 1_556 S
C1169 C1163 1.504 . S
C1169 O1181 1.239 . S
C1169 O1182 1.263 . S
O1170 Tb1160 2.325 1_556 S
O1170 C1180 1.236 . S
O1171 Tb1161 2.322 1_556 S
O1171 C1180 1.257 . S
O1172 Tb1161 2.349 . S
O1172 C1183 1.261 1_554 S
O1173 Tb1160 2.303 . S
O1173 C1183 1.257 1_554 S
O1174 Tb1161 2.415 . S
O1174 C1190 1.239 . S
O1175 Tb1161 2.399 . S
O1175 C1190 1.263 . S
O1176 Tb1161 2.325 . S
O1176 C1191 1.236 . S
O1177 Tb1160 2.322 . S
O1177 C1191 1.257 . S
O1178 Tb1160 2.349 . S
O1178 C1162 1.261 . S
O1179 Tb1161 2.303 . S
O1179 C1162 1.257 . S
C1180 O1170 1.236 . S
C1180 O1171 1.257 . S
O1181 Tb1160 2.415 1_556 S
O1181 C1169 1.239 . S
O1182 Tb1160 2.399 1_556 S
O1182 C1169 1.263 . S
C1183 O1172 1.261 1_556 S
C1183 O1173 1.257 1_556 S
C1184 C1187 1.358 . S
C1184 C1188 1.332 . S
C1184 C1190 1.504 . S
C1185 C1186 1.373 . S
C1185 C1189 1.308 . S
C1186 C1185 1.373 . S
C1186 C1187 1.429 . S
C1186 H1196 0.932 . S
C1187 C1184 1.358 . S
C1187 C1186 1.429 . S
C1187 H1197 0.930 . S
C1188 C1184 1.332 . S
C1188 C1189 1.394 . S
C1188 H1198 0.932 . S
C1189 C1185 1.308 . S
C1189 C1188 1.394 . S
C1189 H1199 0.929 . S
C1190 Tb1161 2.764 . S
C1190 O1174 1.239 . S
C1190 O1175 1.263 . S
C1190 C1184 1.504 . S
C1191 O1176 1.236 . S
C1191 O1177 1.257 . S
H1192 C1165 0.932 . S
H1193 C1166 0.930 . S
H1194 C1167 0.932 . S
H1195 C1168 0.929 . S
H1196 C1186 0.932 . S
H1197 C1187 0.930 . S
H1198 C1188 0.932 . S
H1199 C1189 0.929 . S
Tb1200 C1209 2.764 . S
Tb1200 O1210 2.325 . S
Tb1200 O1213 2.303 . S
Tb1200 O1217 2.322 . S
Tb1200 O1218 2.349 . S
Tb1200 O1221 2.415 . S
Tb1200 O1222 2.399 . S
Tb1201 O1211 2.322 . S
Tb1201 O1212 2.349 . S
Tb1201 O1214 2.415 . S
Tb1201 O1215 2.399 . S
Tb1201 O1216 2.325 . S
Tb1201 O1219 2.303 . S
Tb1201 C1230 2.764 . S
C1202 O1218 1.261 . S
C1202 O1219 1.257 . S
C1203 C1206 1.358 . S
C1203 C1207 1.332 . S
C1203 C1209 1.504 . S
C1204 C1205 1.373 . S
C1204 C1208 1.308 . S
C1205 C1204 1.373 . S
C1205 C1206 1.429 . S
C1205 H1232 0.932 . S
C1206 C1203 1.358 . S
C1206 C1205 1.429 . S
C1206 H1233 0.930 . S
C1207 C1203 1.332 . S
C1207 C1208 1.394 . S
C1207 H1234 0.932 . S
C1208 C1204 1.308 . S
C1208 C1207 1.394 . S
C1208 H1235 0.929 . S
C1209 Tb1200 2.764 . S
C1209 C1203 1.504 . S
C1209 O1221 1.239 . S
C1209 O1222 1.263 . S
O1210 Tb1200 2.325 . S
O1210 C1220 1.236 . S
O1211 Tb1201 2.322 . S
O1211 C1220 1.257 . S
O1212 Tb1201 2.349 . S
O1212 C1223 1.261 . S
O1213 Tb1200 2.303 . S
O1213 C1223 1.257 . S
O1214 Tb1201 2.415 . S
O1214 C1230 1.239 . S
O1215 Tb1201 2.399 . S
O1215 C1230 1.263 . S
O1216 Tb1201 2.325 . S
O1216 C1231 1.236 . S
O1217 Tb1200 2.322 . S
O1217 C1231 1.257 . S
O1218 Tb1200 2.349 . S
O1218 C1202 1.261 . S
O1219 Tb1201 2.303 . S
O1219 C1202 1.257 . S
C1220 O1210 1.236 . S
C1220 O1211 1.257 . S
O1221 Tb1200 2.415 . S
O1221 C1209 1.239 . S
O1222 Tb1200 2.399 . S
O1222 C1209 1.263 . S
C1223 O1212 1.261 . S
C1223 O1213 1.257 . S
C1224 C1227 1.358 . S
C1224 C1228 1.332 . S
C1224 C1230 1.504 . S
C1225 C1226 1.373 . S
C1225 C1229 1.308 1_655 S
C1226 C1225 1.373 . S
C1226 C1227 1.429 1_655 S
C1226 H1236 0.932 . S
C1227 C1224 1.358 . S
C1227 C1226 1.429 1_455 S
C1227 H1237 0.930 . S
C1228 C1224 1.332 . S
C1228 C1229 1.394 . S
C1228 H1238 0.932 . S
C1229 C1225 1.308 1_455 S
C1229 C1228 1.394 . S
C1229 H1239 0.929 . S
C1230 Tb1201 2.764 . S
C1230 O1214 1.239 . S
C1230 O1215 1.263 . S
C1230 C1224 1.504 . S
C1231 O1216 1.236 . S
C1231 O1217 1.257 . S
H1232 C1205 0.932 . S
H1233 C1206 0.930 . S
H1234 C1207 0.932 . S
H1235 C1208 0.929 . S
H1236 C1226 0.932 . S
H1237 C1227 0.930 . S
H1238 C1228 0.932 . S
H1239 C1229 0.929 . S
Tb1240 C1249 2.764 . S
Tb1240 O1250 2.325 . S
Tb1240 O1253 2.303 . S
Tb1240 O1257 2.322 . S
Tb1240 O1258 2.349 . S
Tb1240 O1261 2.415 . S
Tb1240 O1262 2.399 . S
Tb1241 O1251 2.322 . S
Tb1241 O1252 2.349 . S
Tb1241 O1254 2.415 . S
Tb1241 O1255 2.399 . S
Tb1241 O1256 2.325 . S
Tb1241 O1259 2.303 . S
Tb1241 C1270 2.764 . S
C1242 O1258 1.261 . S
C1242 O1259 1.257 . S
C1243 C1246 1.358 . S
C1243 C1247 1.332 . S
C1243 C1249 1.504 . S
C1244 C1245 1.373 . S
C1244 C1248 1.308 . S
C1245 C1244 1.373 . S
C1245 C1246 1.429 . S
C1245 H1272 0.932 . S
C1246 C1243 1.358 . S
C1246 C1245 1.429 . S
C1246 H1273 0.930 . S
C1247 C1243 1.332 . S
C1247 C1248 1.394 . S
C1247 H1274 0.932 . S
C1248 C1244 1.308 . S
C1248 C1247 1.394 . S
C1248 H1275 0.929 . S
C1249 Tb1240 2.764 . S
C1249 C1243 1.504 . S
C1249 O1261 1.239 . S
C1249 O1262 1.263 . S
O1250 Tb1240 2.325 . S
O1250 C1260 1.236 . S
O1251 Tb1241 2.322 . S
O1251 C1260 1.257 . S
O1252 Tb1241 2.349 . S
O1252 C1263 1.261 . S
O1253 Tb1240 2.303 . S
O1253 C1263 1.257 . S
O1254 Tb1241 2.415 . S
O1254 C1270 1.239 . S
O1255 Tb1241 2.399 . S
O1255 C1270 1.263 . S
O1256 Tb1241 2.325 . S
O1256 C1271 1.236 . S
O1257 Tb1240 2.322 . S
O1257 C1271 1.257 . S
O1258 Tb1240 2.349 . S
O1258 C1242 1.261 . S
O1259 Tb1241 2.303 . S
O1259 C1242 1.257 . S
C1260 O1250 1.236 . S
C1260 O1251 1.257 . S
O1261 Tb1240 2.415 . S
O1261 C1249 1.239 . S
O1262 Tb1240 2.399 . S
O1262 C1249 1.263 . S
C1263 O1252 1.261 . S
C1263 O1253 1.257 . S
C1264 C1267 1.358 . S
C1264 C1268 1.332 . S
C1264 C1270 1.504 . S
C1265 C1266 1.373 . S
C1265 C1269 1.308 . S
C1266 C1265 1.373 . S
C1266 C1267 1.429 . S
C1266 H1276 0.932 . S
C1267 C1264 1.358 . S
C1267 C1266 1.429 . S
C1267 H1277 0.930 . S
C1268 C1264 1.332 . S
C1268 C1269 1.394 . S
C1268 H1278 0.932 . S
C1269 C1265 1.308 . S
C1269 C1268 1.394 . S
C1269 H1279 0.929 . S
C1270 Tb1241 2.764 . S
C1270 O1254 1.239 . S
C1270 O1255 1.263 . S
C1270 C1264 1.504 . S
C1271 O1256 1.236 . S
C1271 O1257 1.257 . S
H1272 C1245 0.932 . S
H1273 C1246 0.930 . S
H1274 C1247 0.932 . S
H1275 C1248 0.929 . S
H1276 C1266 0.932 . S
H1277 C1267 0.930 . S
H1278 C1268 0.932 . S
H1279 C1269 0.929 . S
C1280 C1281 1.369 . S
C1280 C1282 1.419 . S
C1280 H1284 0.930 . S
C1281 C1280 1.369 . S
C1281 C1290 1.429 . S
C1282 C1280 1.419 . S
C1282 C1283 1.363 . S
C1282 H1285 0.929 . S
C1283 C1282 1.363 . S
C1283 C1289 1.428 . S
H1284 C1280 0.930 . S
H1285 C1282 0.929 . S
S1286 N1287 1.613 . S
S1286 N1288 1.610 . S
N1287 S1286 1.613 . S
N1287 C1290 1.350 . S
N1288 S1286 1.610 . S
N1288 C1289 1.351 . S
C1289 C1283 1.428 . S
C1289 N1288 1.351 . S
C1289 C1290 1.434 . S
C1290 C1281 1.429 . S
C1290 N1287 1.350 . S
C1290 C1289 1.434 . S
C1291 C1292 1.369 . S
C1291 C1293 1.419 . S
C1291 H1295 0.930 . S
C1292 C1291 1.369 . S
C1292 C1301 1.429 . S
C1293 C1291 1.419 . S
C1293 C1294 1.363 . S
C1293 H1296 0.929 . S
C1294 C1293 1.363 . S
C1294 C1300 1.428 . S
H1295 C1291 0.930 . S
H1296 C1293 0.929 . S
S1297 N1298 1.613 . S
S1297 N1299 1.610 . S
N1298 S1297 1.613 . S
N1298 C1301 1.350 . S
N1299 S1297 1.610 . S
N1299 C1300 1.351 . S
C1300 C1294 1.428 . S
C1300 N1299 1.351 . S
C1300 C1301 1.434 . S
C1301 C1292 1.429 . S
C1301 N1298 1.350 . S
C1301 C1300 1.434 . S
C1302 C1303 1.369 . S
C1302 C1304 1.419 . S
C1302 H1306 0.930 . S
C1303 C1302 1.369 . S
C1303 C1312 1.429 . S
C1304 C1302 1.419 . S
C1304 C1305 1.363 . S
C1304 H1307 0.929 . S
C1305 C1304 1.363 . S
C1305 C1311 1.428 . S
H1306 C1302 0.930 . S
H1307 C1304 0.929 . S
S1308 N1309 1.613 . S
S1308 N1310 1.610 . S
N1309 S1308 1.613 . S
N1309 C1312 1.350 . S
N1310 S1308 1.610 . S
N1310 C1311 1.351 . S
C1311 C1305 1.428 . S
C1311 N1310 1.351 . S
C1311 C1312 1.434 . S
C1312 C1303 1.429 . S
C1312 N1309 1.350 . S
C1312 C1311 1.434 . S
C1313 C1314 1.369 . S
C1313 C1315 1.419 . S
C1313 H1317 0.930 . S
C1314 C1313 1.369 . S
C1314 C1323 1.429 . S
C1315 C1313 1.419 . S
C1315 C1316 1.363 . S
C1315 H1318 0.929 . S
C1316 C1315 1.363 . S
C1316 C1322 1.428 . S
H1317 C1313 0.930 . S
H1318 C1315 0.929 . S
S1319 N1320 1.613 1_545 S
S1319 N1321 1.609 1_545 S
N1320 S1319 1.613 1_565 S
N1320 C1323 1.350 . S
N1321 S1319 1.609 1_565 S
N1321 C1322 1.372 . S
C1322 C1316 1.428 . S
C1322 N1321 1.372 . S
C1322 C1323 1.434 . S
C1323 C1314 1.429 . S
C1323 N1320 1.350 . S
C1323 C1322 1.434 . S
C1324 C1325 1.369 . S
C1324 C1326 1.419 . S
C1324 H1328 0.930 . S
C1325 C1324 1.369 . S
C1325 C1334 1.429 . S
C1326 C1324 1.419 . S
C1326 C1327 1.363 . S
C1326 H1329 0.929 . S
C1327 C1326 1.363 . S
C1327 C1333 1.428 . S
H1328 C1324 0.930 . S
H1329 C1326 0.929 . S
S1330 N1331 1.613 . S
S1330 N1332 1.610 . S
N1331 S1330 1.613 . S
N1331 C1334 1.350 . S
N1332 S1330 1.610 . S
N1332 C1333 1.351 . S
C1333 C1327 1.428 . S
C1333 N1332 1.351 . S
C1333 C1334 1.434 . S
C1334 C1325 1.429 . S
C1334 N1331 1.350 . S
C1334 C1333 1.434 . S
C1335 C1336 1.369 . S
C1335 C1337 1.419 . S
C1335 H1339 0.930 . S
C1336 C1335 1.369 . S
C1336 C1345 1.429 . S
C1337 C1335 1.419 . S
C1337 C1338 1.363 . S
C1337 H1340 0.929 . S
C1338 C1337 1.363 . S
C1338 C1344 1.428 . S
H1339 C1335 0.930 . S
H1340 C1337 0.929 . S
S1341 N1342 1.613 . S
S1341 N1343 1.610 . S
N1342 S1341 1.613 . S
N1342 C1345 1.350 . S
N1343 S1341 1.610 . S
N1343 C1344 1.351 . S
C1344 C1338 1.428 . S
C1344 N1343 1.351 . S
C1344 C1345 1.434 . S
C1345 C1336 1.429 . S
C1345 N1342 1.350 . S
C1345 C1344 1.434 . S
C1346 C1347 1.369 . S
C1346 C1348 1.419 . S
C1346 H1350 0.930 . S
C1347 C1346 1.369 . S
C1347 C1356 1.429 . S
C1348 C1346 1.419 . S
C1348 C1349 1.363 . S
C1348 H1351 0.929 . S
C1349 C1348 1.363 . S
C1349 C1355 1.428 . S
H1350 C1346 0.930 . S
H1351 C1348 0.929 . S
S1352 N1353 1.613 . S
S1352 N1354 1.610 . S
N1353 S1352 1.613 . S
N1353 C1356 1.350 . S
N1354 S1352 1.610 . S
N1354 C1355 1.351 . S
C1355 C1349 1.428 . S
C1355 N1354 1.351 . S
C1355 C1356 1.434 . S
C1356 C1347 1.429 . S
C1356 N1353 1.350 . S
C1356 C1355 1.434 . S
C1357 C1358 1.369 . S
C1357 C1359 1.419 . S
C1357 H1361 0.930 . S
C1358 C1357 1.369 . S
C1358 C1367 1.429 . S
C1359 C1357 1.419 . S
C1359 C1360 1.363 . S
C1359 H1362 0.929 . S
C1360 C1359 1.363 . S
C1360 C1366 1.428 . S
H1361 C1357 0.930 . S
H1362 C1359 0.929 . S
S1363 N1364 1.613 1_545 S
S1363 N1365 1.609 1_545 S
N1364 S1363 1.613 1_565 S
N1364 C1367 1.350 . S
N1365 S1363 1.609 1_565 S
N1365 C1366 1.371 . S
C1366 C1360 1.428 . S
C1366 N1365 1.371 . S
C1366 C1367 1.434 . S
C1367 C1358 1.429 . S
C1367 N1364 1.350 . S
C1367 C1366 1.434 . S
C1368 C1369 1.369 . S
C1368 C1370 1.419 . S
C1368 H1372 0.930 . S
C1369 C1368 1.369 . S
C1369 C1378 1.429 . S
C1370 C1368 1.419 . S
C1370 C1371 1.363 . S
C1370 H1373 0.929 . S
C1371 C1370 1.363 . S
C1371 C1377 1.428 . S
H1372 C1368 0.930 . S
H1373 C1370 0.929 . S
S1374 N1375 1.613 . S
S1374 N1376 1.610 . S
N1375 S1374 1.613 . S
N1375 C1378 1.350 . S
N1376 S1374 1.610 . S
N1376 C1377 1.351 . S
C1377 C1371 1.428 . S
C1377 N1376 1.351 . S
C1377 C1378 1.434 . S
C1378 C1369 1.429 . S
C1378 N1375 1.350 . S
C1378 C1377 1.434 . S
C1379 C1380 1.369 . S
C1379 C1381 1.419 . S
C1379 H1383 0.930 . S
C1380 C1379 1.369 . S
C1380 C1389 1.429 . S
C1381 C1379 1.419 . S
C1381 C1382 1.363 . S
C1381 H1384 0.929 . S
C1382 C1381 1.363 . S
C1382 C1388 1.428 . S
H1383 C1379 0.930 . S
H1384 C1381 0.929 . S
S1385 N1386 1.613 . S
S1385 N1387 1.610 . S
N1386 S1385 1.613 . S
N1386 C1389 1.350 . S
N1387 S1385 1.610 . S
N1387 C1388 1.351 . S
C1388 C1382 1.428 . S
C1388 N1387 1.351 . S
C1388 C1389 1.434 . S
C1389 C1380 1.429 . S
C1389 N1386 1.350 . S
C1389 C1388 1.434 . S
C1390 C1391 1.369 . S
C1390 C1392 1.419 . S
C1390 H1394 0.930 . S
C1391 C1390 1.369 . S
C1391 C1400 1.429 . S
C1392 C1390 1.419 . S
C1392 C1393 1.363 . S
C1392 H1395 0.929 . S
C1393 C1392 1.363 . S
C1393 C1399 1.428 . S
H1394 C1390 0.930 . S
H1395 C1392 0.929 . S
S1396 N1397 1.613 . S
S1396 N1398 1.610 . S
N1397 S1396 1.613 . S
N1397 C1400 1.350 . S
N1398 S1396 1.610 . S
N1398 C1399 1.351 . S
C1399 C1393 1.428 . S
C1399 N1398 1.351 . S
C1399 C1400 1.434 . S
C1400 C1391 1.429 . S
C1400 N1397 1.350 . S
C1400 C1399 1.434 . S
C1401 C1402 1.369 . S
C1401 C1403 1.419 . S
C1401 H1405 0.930 . S
C1402 C1401 1.369 . S
C1402 C1411 1.429 . S
C1403 C1401 1.419 . S
C1403 C1404 1.363 . S
C1403 H1406 0.929 . S
C1404 C1403 1.363 . S
C1404 C1410 1.428 . S
H1405 C1401 0.930 . S
H1406 C1403 0.929 . S
S1407 N1408 1.613 . S
S1407 N1409 1.610 . S
N1408 S1407 1.613 . S
N1408 C1411 1.350 . S
N1409 S1407 1.610 . S
N1409 C1410 1.351 . S
C1410 C1404 1.428 . S
C1410 N1409 1.351 . S
C1410 C1411 1.434 . S
C1411 C1402 1.429 . S
C1411 N1408 1.350 . S
C1411 C1410 1.434 . S
C1412 C1413 1.369 . S
C1412 C1414 1.419 . S
C1412 H1416 0.930 . S
C1413 C1412 1.369 . S
C1413 C1422 1.429 . S
C1414 C1412 1.419 . S
C1414 C1415 1.363 . S
C1414 H1417 0.929 . S
C1415 C1414 1.363 . S
C1415 C1421 1.428 . S
H1416 C1412 0.930 . S
H1417 C1414 0.929 . S
S1418 N1419 1.613 . S
S1418 N1420 1.610 . S
N1419 S1418 1.613 . S
N1419 C1422 1.350 . S
N1420 S1418 1.610 . S
N1420 C1421 1.351 . S
C1421 C1415 1.428 . S
C1421 N1420 1.351 . S
C1421 C1422 1.434 . S
C1422 C1413 1.429 . S
C1422 N1419 1.350 . S
C1422 C1421 1.434 . S
C1423 C1424 1.369 . S
C1423 C1425 1.419 . S
C1423 H1427 0.930 . S
C1424 C1423 1.369 . S
C1424 C1433 1.429 . S
C1425 C1423 1.419 . S
C1425 C1426 1.363 . S
C1425 H1428 0.929 . S
C1426 C1425 1.363 . S
C1426 C1432 1.428 . S
H1427 C1423 0.930 . S
H1428 C1425 0.929 . S
S1429 N1430 1.613 . S
S1429 N1431 1.610 . S
N1430 S1429 1.613 . S
N1430 C1433 1.350 . S
N1431 S1429 1.610 . S
N1431 C1432 1.351 . S
C1432 C1426 1.428 . S
C1432 N1431 1.351 . S
C1432 C1433 1.434 . S
C1433 C1424 1.429 . S
C1433 N1430 1.350 . S
C1433 C1432 1.434 . S
C1434 C1435 1.369 . S
C1434 C1436 1.419 . S
C1434 H1438 0.930 . S
C1435 C1434 1.369 . S
C1435 C1444 1.429 . S
C1436 C1434 1.419 . S
C1436 C1437 1.363 . S
C1436 H1439 0.929 . S
C1437 C1436 1.363 . S
C1437 C1443 1.428 . S
H1438 C1434 0.930 . S
H1439 C1436 0.929 . S
S1440 N1441 1.613 . S
S1440 N1442 1.610 . S
N1441 S1440 1.613 . S
N1441 C1444 1.350 . S
N1442 S1440 1.610 . S
N1442 C1443 1.351 . S
C1443 C1437 1.428 . S
C1443 N1442 1.351 . S
C1443 C1444 1.434 . S
C1444 C1435 1.429 . S
C1444 N1441 1.350 . S
C1444 C1443 1.434 . S
C1445 C1446 1.369 . S
C1445 C1447 1.419 . S
C1445 H1449 0.930 . S
C1446 C1445 1.369 . S
C1446 C1455 1.429 . S
C1447 C1445 1.419 . S
C1447 C1448 1.363 . S
C1447 H1450 0.929 . S
C1448 C1447 1.363 . S
C1448 C1454 1.428 . S
H1449 C1445 0.930 . S
H1450 C1447 0.929 . S
S1451 N1452 1.613 . S
S1451 N1453 1.610 . S
N1452 S1451 1.613 . S
N1452 C1455 1.350 . S
N1453 S1451 1.610 . S
N1453 C1454 1.351 . S
C1454 C1448 1.428 . S
C1454 N1453 1.351 . S
C1454 C1455 1.434 . S
C1455 C1446 1.429 . S
C1455 N1452 1.350 . S
C1455 C1454 1.434 . S
C1456 C1457 1.369 . S
C1456 C1458 1.419 . S
C1456 H1460 0.930 . S
C1457 C1456 1.369 . S
C1457 C1466 1.429 . S
C1458 C1456 1.419 . S
C1458 C1459 1.363 . S
C1458 H1461 0.929 . S
C1459 C1458 1.363 . S
C1459 C1465 1.428 . S
H1460 C1456 0.930 . S
H1461 C1458 0.929 . S
S1462 N1463 1.613 . S
S1462 N1464 1.610 . S
N1463 S1462 1.613 . S
N1463 C1466 1.350 . S
N1464 S1462 1.610 . S
N1464 C1465 1.351 . S
C1465 C1459 1.428 . S
C1465 N1464 1.351 . S
C1465 C1466 1.434 . S
C1466 C1457 1.429 . S
C1466 N1463 1.350 . S
C1466 C1465 1.434 . S
C1467 C1468 1.369 . S
C1467 C1469 1.419 . S
C1467 H1471 0.930 . S
C1468 C1467 1.369 . S
C1468 C1477 1.429 . S
C1469 C1467 1.419 . S
C1469 C1470 1.363 . S
C1469 H1472 0.929 . S
C1470 C1469 1.363 . S
C1470 C1476 1.428 . S
H1471 C1467 0.930 . S
H1472 C1469 0.929 . S
S1473 N1474 1.613 . S
S1473 N1475 1.610 . S
N1474 S1473 1.613 . S
N1474 C1477 1.350 . S
N1475 S1473 1.610 . S
N1475 C1476 1.351 . S
C1476 C1470 1.428 . S
C1476 N1475 1.351 . S
C1476 C1477 1.434 . S
C1477 C1468 1.429 . S
C1477 N1474 1.350 . S
C1477 C1476 1.434 . S
C1478 C1479 1.369 . S
C1478 C1480 1.419 . S
C1478 H1482 0.930 . S
C1479 C1478 1.369 . S
C1479 C1488 1.429 . S
C1480 C1478 1.419 . S
C1480 C1481 1.363 . S
C1480 H1483 0.929 . S
C1481 C1480 1.363 . S
C1481 C1487 1.428 . S
H1482 C1478 0.930 . S
H1483 C1480 0.929 . S
S1484 N1485 1.613 . S
S1484 N1486 1.610 . S
N1485 S1484 1.613 . S
N1485 C1488 1.350 . S
N1486 S1484 1.610 . S
N1486 C1487 1.351 . S
C1487 C1481 1.428 . S
C1487 N1486 1.351 . S
C1487 C1488 1.434 . S
C1488 C1479 1.429 . S
C1488 N1485 1.350 . S
C1488 C1487 1.434 . S
C1489 C1490 1.369 . S
C1489 C1491 1.419 . S
C1489 H1493 0.930 . S
C1490 C1489 1.369 . S
C1490 C1499 1.429 . S
C1491 C1489 1.419 . S
C1491 C1492 1.363 . S
C1491 H1494 0.929 . S
C1492 C1491 1.363 . S
C1492 C1498 1.428 . S
H1493 C1489 0.930 . S
H1494 C1491 0.929 . S
S1495 N1496 1.613 . S
S1495 N1497 1.610 . S
N1496 S1495 1.613 . S
N1496 C1499 1.350 . S
N1497 S1495 1.610 . S
N1497 C1498 1.351 . S
C1498 C1492 1.428 . S
C1498 N1497 1.351 . S
C1498 C1499 1.434 . S
C1499 C1490 1.429 . S
C1499 N1496 1.350 . S
C1499 C1498 1.434 . S
C1500 C1501 1.369 . S
C1500 C1502 1.419 . S
C1500 H1504 0.930 . S
C1501 C1500 1.369 . S
C1501 C1510 1.429 . S
C1502 C1500 1.419 . S
C1502 C1503 1.363 . S
C1502 H1505 0.929 . S
C1503 C1502 1.363 . S
C1503 C1509 1.428 . S
H1504 C1500 0.930 . S
H1505 C1502 0.929 . S
S1506 N1507 1.613 . S
S1506 N1508 1.610 . S
N1507 S1506 1.613 . S
N1507 C1510 1.350 . S
N1508 S1506 1.610 . S
N1508 C1509 1.351 . S
C1509 C1503 1.428 . S
C1509 N1508 1.351 . S
C1509 C1510 1.434 . S
C1510 C1501 1.429 . S
C1510 N1507 1.350 . S
C1510 C1509 1.434 . S
C1511 C1512 1.369 . S
C1511 C1513 1.419 . S
C1511 H1515 0.930 . S
C1512 C1511 1.369 . S
C1512 C1521 1.429 . S
C1513 C1511 1.419 . S
C1513 C1514 1.363 . S
C1513 H1516 0.929 . S
C1514 C1513 1.363 . S
C1514 C1520 1.428 . S
H1515 C1511 0.930 . S
H1516 C1513 0.929 . S
S1517 N1518 1.613 . S
S1517 N1519 1.610 . S
N1518 S1517 1.613 . S
N1518 C1521 1.350 . S
N1519 S1517 1.610 . S
N1519 C1520 1.351 . S
C1520 C1514 1.428 . S
C1520 N1519 1.351 . S
C1520 C1521 1.434 . S
C1521 C1512 1.429 . S
C1521 N1518 1.350 . S
C1521 C1520 1.434 . S
C1522 C1523 1.369 . S
C1522 C1524 1.419 . S
C1522 H1526 0.930 . S
C1523 C1522 1.369 . S
C1523 C1532 1.429 . S
C1524 C1522 1.419 . S
C1524 C1525 1.363 . S
C1524 H1527 0.929 . S
C1525 C1524 1.363 . S
C1525 C1531 1.428 . S
H1526 C1522 0.930 . S
H1527 C1524 0.929 . S
S1528 N1529 1.613 . S
S1528 N1530 1.610 . S
N1529 S1528 1.613 . S
N1529 C1532 1.350 . S
N1530 S1528 1.610 . S
N1530 C1531 1.351 . S
C1531 C1525 1.428 . S
C1531 N1530 1.351 . S
C1531 C1532 1.434 . S
C1532 C1523 1.429 . S
C1532 N1529 1.350 . S
C1532 C1531 1.434 . S
C1533 C1534 1.369 . S
C1533 C1535 1.419 . S
C1533 H1537 0.930 . S
C1534 C1533 1.369 . S
C1534 C1543 1.429 . S
C1535 C1533 1.419 . S
C1535 C1536 1.363 . S
C1535 H1538 0.929 . S
C1536 C1535 1.363 . S
C1536 C1542 1.428 . S
H1537 C1533 0.930 . S
H1538 C1535 0.929 . S
S1539 N1540 1.613 . S
S1539 N1541 1.610 . S
N1540 S1539 1.613 . S
N1540 C1543 1.350 . S
N1541 S1539 1.610 . S
N1541 C1542 1.351 . S
C1542 C1536 1.428 . S
C1542 N1541 1.351 . S
C1542 C1543 1.434 . S
C1543 C1534 1.429 . S
C1543 N1540 1.350 . S
C1543 C1542 1.434 . S
C1544 C1545 1.369 . S
C1544 C1546 1.419 . S
C1544 H1548 0.930 . S
C1545 C1544 1.369 . S
C1545 C1554 1.429 . S
C1546 C1544 1.419 . S
C1546 C1547 1.363 . S
C1546 H1549 0.929 . S
C1547 C1546 1.363 . S
C1547 C1553 1.428 . S
H1548 C1544 0.930 . S
H1549 C1546 0.929 . S
S1550 N1551 1.613 . S
S1550 N1552 1.610 . S
N1551 S1550 1.613 . S
N1551 C1554 1.350 . S
N1552 S1550 1.610 . S
N1552 C1553 1.351 . S
C1553 C1547 1.428 . S
C1553 N1552 1.351 . S
C1553 C1554 1.434 . S
C1554 C1545 1.429 . S
C1554 N1551 1.350 . S
C1554 C1553 1.434 . S
C1555 C1556 1.369 . S
C1555 C1557 1.419 . S
C1555 H1559 0.930 . S
C1556 C1555 1.369 . S
C1556 C1565 1.429 . S
C1557 C1555 1.419 . S
C1557 C1558 1.363 . S
C1557 H1560 0.929 . S
C1558 C1557 1.363 . S
C1558 C1564 1.428 . S
H1559 C1555 0.930 . S
H1560 C1557 0.929 . S
S1561 N1562 1.613 . S
S1561 N1563 1.610 . S
N1562 S1561 1.613 . S
N1562 C1565 1.350 . S
N1563 S1561 1.610 . S
N1563 C1564 1.351 . S
C1564 C1558 1.428 . S
C1564 N1563 1.351 . S
C1564 C1565 1.434 . S
C1565 C1556 1.429 . S
C1565 N1562 1.350 . S
C1565 C1564 1.434 . S
C1566 C1567 1.369 . S
C1566 C1568 1.419 . S
C1566 H1570 0.930 . S
C1567 C1566 1.369 . S
C1567 C1576 1.429 . S
C1568 C1566 1.419 . S
C1568 C1569 1.363 . S
C1568 H1571 0.929 . S
C1569 C1568 1.363 . S
C1569 C1575 1.428 . S
H1570 C1566 0.930 . S
H1571 C1568 0.929 . S
S1572 N1573 1.613 . S
S1572 N1574 1.610 . S
N1573 S1572 1.613 . S
N1573 C1576 1.350 . S
N1574 S1572 1.610 . S
N1574 C1575 1.351 . S
C1575 C1569 1.428 . S
C1575 N1574 1.351 . S
C1575 C1576 1.434 . S
C1576 C1567 1.429 . S
C1576 N1573 1.350 . S
C1576 C1575 1.434 . S
C1577 C1578 1.369 . S
C1577 C1579 1.419 . S
C1577 H1581 0.930 . S
C1578 C1577 1.369 . S
C1578 C1587 1.429 . S
C1579 C1577 1.419 . S
C1579 C1580 1.363 . S
C1579 H1582 0.929 . S
C1580 C1579 1.363 . S
C1580 C1586 1.428 . S
H1581 C1577 0.930 . S
H1582 C1579 0.929 . S
S1583 N1584 1.613 . S
S1583 N1585 1.610 . S
N1584 S1583 1.613 . S
N1584 C1587 1.350 . S
N1585 S1583 1.610 . S
N1585 C1586 1.351 . S
C1586 C1580 1.428 . S
C1586 N1585 1.351 . S
C1586 C1587 1.434 . S
C1587 C1578 1.429 . S
C1587 N1584 1.350 . S
C1587 C1586 1.434 . S
C1588 C1589 1.369 . S
C1588 C1590 1.419 . S
C1588 H1592 0.930 . S
C1589 C1588 1.369 . S
C1589 C1598 1.429 . S
C1590 C1588 1.419 . S
C1590 C1591 1.363 . S
C1590 H1593 0.929 . S
C1591 C1590 1.363 . S
C1591 C1597 1.428 . S
H1592 C1588 0.930 . S
H1593 C1590 0.929 . S
S1594 N1595 1.613 . S
S1594 N1596 1.610 . S
N1595 S1594 1.613 . S
N1595 C1598 1.350 . S
N1596 S1594 1.610 . S
N1596 C1597 1.351 . S
C1597 C1591 1.428 . S
C1597 N1596 1.351 . S
C1597 C1598 1.434 . S
C1598 C1589 1.429 . S
C1598 N1595 1.350 . S
C1598 C1597 1.434 . S
C1599 C1600 1.369 . S
C1599 C1601 1.419 . S
C1599 H1603 0.930 . S
C1600 C1599 1.369 . S
C1600 C1609 1.429 . S
C1601 C1599 1.419 . S
C1601 C1602 1.363 . S
C1601 H1604 0.929 . S
C1602 C1601 1.363 . S
C1602 C1608 1.428 . S
H1603 C1599 0.930 . S
H1604 C1601 0.929 . S
S1605 N1606 1.613 . S
S1605 N1607 1.610 . S
N1606 S1605 1.613 . S
N1606 C1609 1.350 . S
N1607 S1605 1.610 . S
N1607 C1608 1.351 . S
C1608 C1602 1.428 . S
C1608 N1607 1.351 . S
C1608 C1609 1.434 . S
C1609 C1600 1.429 . S
C1609 N1606 1.350 . S
C1609 C1608 1.434 . S
C1610 C1611 1.369 . S
C1610 C1612 1.419 . S
C1610 H1614 0.930 . S
C1611 C1610 1.369 . S
C1611 C1620 1.429 . S
C1612 C1610 1.419 . S
C1612 C1613 1.363 . S
C1612 H1615 0.929 . S
C1613 C1612 1.363 . S
C1613 C1619 1.428 . S
H1614 C1610 0.930 . S
H1615 C1612 0.929 . S
S1616 N1617 1.613 . S
S1616 N1618 1.610 . S
N1617 S1616 1.613 . S
N1617 C1620 1.350 . S
N1618 S1616 1.610 . S
N1618 C1619 1.351 . S
C1619 C1613 1.428 . S
C1619 N1618 1.351 . S
C1619 C1620 1.434 . S
C1620 C1611 1.429 . S
C1620 N1617 1.350 . S
C1620 C1619 1.434 . S
C1621 C1622 1.369 . S
C1621 C1623 1.419 . S
C1621 H1625 0.930 . S
C1622 C1621 1.369 . S
C1622 C1631 1.429 . S
C1623 C1621 1.419 . S
C1623 C1624 1.363 . S
C1623 H1626 0.929 . S
C1624 C1623 1.363 . S
C1624 C1630 1.428 . S
H1625 C1621 0.930 . S
H1626 C1623 0.929 . S
S1627 N1628 1.613 . S
S1627 N1629 1.610 . S
N1628 S1627 1.613 . S
N1628 C1631 1.350 . S
N1629 S1627 1.610 . S
N1629 C1630 1.351 . S
C1630 C1624 1.428 . S
C1630 N1629 1.351 . S
C1630 C1631 1.434 . S
C1631 C1622 1.429 . S
C1631 N1628 1.350 . S
C1631 C1630 1.434 . S
C1632 C1633 1.369 . S
C1632 C1634 1.419 . S
C1632 H1636 0.930 . S
C1633 C1632 1.369 . S
C1633 C1642 1.429 . S
C1634 C1632 1.419 . S
C1634 C1635 1.363 . S
C1634 H1637 0.929 . S
C1635 C1634 1.363 . S
C1635 C1641 1.428 . S
H1636 C1632 0.930 . S
H1637 C1634 0.929 . S
S1638 N1639 1.613 . S
S1638 N1640 1.610 . S
N1639 S1638 1.613 . S
N1639 C1642 1.350 . S
N1640 S1638 1.610 . S
N1640 C1641 1.351 . S
C1641 C1635 1.428 . S
C1641 N1640 1.351 . S
C1641 C1642 1.434 . S
C1642 C1633 1.429 . S
C1642 N1639 1.350 . S
C1642 C1641 1.434 . S
C1643 C1644 1.369 . S
C1643 C1645 1.419 . S
C1643 H1647 0.930 . S
C1644 C1643 1.369 . S
C1644 C1653 1.429 . S
C1645 C1643 1.419 . S
C1645 C1646 1.363 . S
C1645 H1648 0.929 . S
C1646 C1645 1.363 . S
C1646 C1652 1.428 . S
H1647 C1643 0.930 . S
H1648 C1645 0.929 . S
S1649 N1650 1.613 . S
S1649 N1651 1.610 . S
N1650 S1649 1.613 . S
N1650 C1653 1.350 . S
N1651 S1649 1.610 . S
N1651 C1652 1.351 . S
C1652 C1646 1.428 . S
C1652 N1651 1.351 . S
C1652 C1653 1.434 . S
C1653 C1644 1.429 . S
C1653 N1650 1.350 . S
C1653 C1652 1.434 . S
C1654 C1655 1.369 . S
C1654 C1656 1.419 . S
C1654 H1658 0.930 . S
C1655 C1654 1.369 . S
C1655 C1664 1.429 . S
C1656 C1654 1.419 . S
C1656 C1657 1.363 . S
C1656 H1659 0.929 . S
C1657 C1656 1.363 . S
C1657 C1663 1.428 . S
H1658 C1654 0.930 . S
H1659 C1656 0.929 . S
S1660 N1661 1.613 . S
S1660 N1662 1.610 . S
N1661 S1660 1.613 . S
N1661 C1664 1.350 . S
N1662 S1660 1.610 . S
N1662 C1663 1.351 . S
C1663 C1657 1.428 . S
C1663 N1662 1.351 . S
C1663 C1664 1.434 . S
C1664 C1655 1.429 . S
C1664 N1661 1.350 . S
C1664 C1663 1.434 . S
C1665 C1666 1.369 . S
C1665 C1667 1.419 . S
C1665 H1669 0.930 . S
C1666 C1665 1.369 . S
C1666 C1675 1.429 . S
C1667 C1665 1.419 . S
C1667 C1668 1.363 . S
C1667 H1670 0.929 . S
C1668 C1667 1.363 . S
C1668 C1674 1.428 . S
H1669 C1665 0.930 . S
H1670 C1667 0.929 . S
S1671 N1672 1.613 . S
S1671 N1673 1.610 . S
N1672 S1671 1.613 . S
N1672 C1675 1.350 . S
N1673 S1671 1.610 . S
N1673 C1674 1.351 . S
C1674 C1668 1.428 . S
C1674 N1673 1.351 . S
C1674 C1675 1.434 . S
C1675 C1666 1.429 . S
C1675 N1672 1.350 . S
C1675 C1674 1.434 . S
C1676 C1677 1.369 . S
C1676 C1678 1.419 . S
C1676 H1680 0.930 . S
C1677 C1676 1.369 . S
C1677 C1686 1.429 . S
C1678 C1676 1.419 . S
C1678 C1679 1.363 . S
C1678 H1681 0.929 . S
C1679 C1678 1.363 . S
C1679 C1685 1.428 . S
H1680 C1676 0.930 . S
H1681 C1678 0.929 . S
S1682 N1683 1.613 . S
S1682 N1684 1.610 . S
N1683 S1682 1.613 . S
N1683 C1686 1.350 . S
N1684 S1682 1.610 . S
N1684 C1685 1.351 . S
C1685 C1679 1.428 . S
C1685 N1684 1.351 . S
C1685 C1686 1.434 . S
C1686 C1677 1.429 . S
C1686 N1683 1.350 . S
C1686 C1685 1.434 . S
C1687 C1688 1.369 . S
C1687 C1689 1.419 . S
C1687 H1691 0.930 . S
C1688 C1687 1.369 . S
C1688 C1697 1.429 . S
C1689 C1687 1.419 . S
C1689 C1690 1.363 . S
C1689 H1692 0.929 . S
C1690 C1689 1.363 . S
C1690 C1696 1.428 . S
H1691 C1687 0.930 . S
H1692 C1689 0.929 . S
S1693 N1694 1.613 . S
S1693 N1695 1.610 . S
N1694 S1693 1.613 . S
N1694 C1697 1.350 . S
N1695 S1693 1.610 . S
N1695 C1696 1.351 . S
C1696 C1690 1.428 . S
C1696 N1695 1.351 . S
C1696 C1697 1.434 . S
C1697 C1688 1.429 . S
C1697 N1694 1.350 . S
C1697 C1696 1.434 . S
C1698 C1699 1.369 . S
C1698 C1700 1.419 . S
C1698 H1702 0.930 . S
C1699 C1698 1.369 . S
C1699 C1708 1.429 . S
C1700 C1698 1.419 . S
C1700 C1701 1.363 . S
C1700 H1703 0.929 . S
C1701 C1700 1.363 . S
C1701 C1707 1.428 . S
H1702 C1698 0.930 . S
H1703 C1700 0.929 . S
S1704 N1705 1.613 . S
S1704 N1706 1.610 . S
N1705 S1704 1.613 . S
N1705 C1708 1.350 . S
N1706 S1704 1.610 . S
N1706 C1707 1.351 . S
C1707 C1701 1.428 . S
C1707 N1706 1.351 . S
C1707 C1708 1.434 . S
C1708 C1699 1.429 . S
C1708 N1705 1.350 . S
C1708 C1707 1.434 . S
C1709 C1710 1.369 . S
C1709 C1711 1.419 . S
C1709 H1713 0.930 . S
C1710 C1709 1.369 . S
C1710 C1719 1.429 . S
C1711 C1709 1.419 . S
C1711 C1712 1.363 . S
C1711 H1714 0.929 . S
C1712 C1711 1.363 . S
C1712 C1718 1.428 . S
H1713 C1709 0.930 . S
H1714 C1711 0.929 . S
S1715 N1716 1.613 . S
S1715 N1717 1.610 . S
N1716 S1715 1.613 . S
N1716 C1719 1.350 . S
N1717 S1715 1.610 . S
N1717 C1718 1.351 . S
C1718 C1712 1.428 . S
C1718 N1717 1.351 . S
C1718 C1719 1.434 . S
C1719 C1710 1.429 . S
C1719 N1716 1.350 . S
C1719 C1718 1.434 . S
C1720 C1721 1.369 . S
C1720 C1722 1.419 . S
C1720 H1724 0.930 . S
C1721 C1720 1.369 . S
C1721 C1730 1.429 . S
C1722 C1720 1.419 . S
C1722 C1723 1.363 . S
C1722 H1725 0.929 . S
C1723 C1722 1.363 . S
C1723 C1729 1.428 . S
H1724 C1720 0.930 . S
H1725 C1722 0.929 . S
S1726 N1727 1.613 . S
S1726 N1728 1.610 . S
N1727 S1726 1.613 . S
N1727 C1730 1.350 . S
N1728 S1726 1.610 . S
N1728 C1729 1.351 . S
C1729 C1723 1.428 . S
C1729 N1728 1.351 . S
C1729 C1730 1.434 . S
C1730 C1721 1.429 . S
C1730 N1727 1.350 . S
C1730 C1729 1.434 . S
C1731 C1732 1.369 . S
C1731 C1733 1.419 . S
C1731 H1735 0.930 . S
C1732 C1731 1.369 . S
C1732 C1741 1.429 . S
C1733 C1731 1.419 . S
C1733 C1734 1.363 . S
C1733 H1736 0.929 . S
C1734 C1733 1.363 . S
C1734 C1740 1.428 . S
H1735 C1731 0.930 . S
H1736 C1733 0.929 . S
S1737 N1738 1.613 . S
S1737 N1739 1.610 . S
N1738 S1737 1.613 . S
N1738 C1741 1.350 . S
N1739 S1737 1.610 . S
N1739 C1740 1.351 . S
C1740 C1734 1.428 . S
C1740 N1739 1.351 . S
C1740 C1741 1.434 . S
C1741 C1732 1.429 . S
C1741 N1738 1.350 . S
C1741 C1740 1.434 . S
C1742 C1743 1.369 . S
C1742 C1744 1.419 . S
C1742 H1746 0.930 . S
C1743 C1742 1.369 . S
C1743 C1752 1.429 . S
C1744 C1742 1.419 . S
C1744 C1745 1.363 . S
C1744 H1747 0.929 . S
C1745 C1744 1.363 . S
C1745 C1751 1.428 . S
H1746 C1742 0.930 . S
H1747 C1744 0.929 . S
S1748 N1749 1.613 . S
S1748 N1750 1.610 . S
N1749 S1748 1.613 . S
N1749 C1752 1.350 . S
N1750 S1748 1.610 . S
N1750 C1751 1.351 . S
C1751 C1745 1.428 . S
C1751 N1750 1.351 . S
C1751 C1752 1.434 . S
C1752 C1743 1.429 . S
C1752 N1749 1.350 . S
C1752 C1751 1.434 . S
C1753 C1754 1.369 . S
C1753 C1755 1.419 . S
C1753 H1757 0.930 . S
C1754 C1753 1.369 . S
C1754 C1763 1.429 . S
C1755 C1753 1.419 . S
C1755 C1756 1.363 . S
C1755 H1758 0.929 . S
C1756 C1755 1.363 . S
C1756 C1762 1.428 . S
H1757 C1753 0.930 . S
H1758 C1755 0.929 . S
S1759 N1760 1.613 . S
S1759 N1761 1.610 . S
N1760 S1759 1.613 . S
N1760 C1763 1.350 . S
N1761 S1759 1.610 . S
N1761 C1762 1.351 . S
C1762 C1756 1.428 . S
C1762 N1761 1.351 . S
C1762 C1763 1.434 . S
C1763 C1754 1.429 . S
C1763 N1760 1.350 . S
C1763 C1762 1.434 . S
C1764 C1765 1.369 . S
C1764 C1766 1.419 . S
C1764 H1768 0.930 . S
C1765 C1764 1.369 . S
C1765 C1774 1.429 . S
C1766 C1764 1.419 . S
C1766 C1767 1.363 . S
C1766 H1769 0.929 . S
C1767 C1766 1.363 . S
C1767 C1773 1.428 . S
H1768 C1764 0.930 . S
H1769 C1766 0.929 . S
S1770 N1771 1.613 . S
S1770 N1772 1.610 . S
N1771 S1770 1.613 . S
N1771 C1774 1.350 . S
N1772 S1770 1.610 . S
N1772 C1773 1.351 . S
C1773 C1767 1.428 . S
C1773 N1772 1.351 . S
C1773 C1774 1.434 . S
C1774 C1765 1.429 . S
C1774 N1771 1.350 . S
C1774 C1773 1.434 . S
C1775 C1776 1.369 . S
C1775 C1777 1.419 . S
C1775 H1779 0.930 . S
C1776 C1775 1.369 . S
C1776 C1785 1.429 . S
C1777 C1775 1.419 . S
C1777 C1778 1.363 . S
C1777 H1780 0.929 . S
C1778 C1777 1.363 . S
C1778 C1784 1.428 . S
H1779 C1775 0.930 . S
H1780 C1777 0.929 . S
S1781 N1782 1.613 . S
S1781 N1783 1.610 . S
N1782 S1781 1.613 . S
N1782 C1785 1.350 . S
N1783 S1781 1.610 . S
N1783 C1784 1.351 . S
C1784 C1778 1.428 . S
C1784 N1783 1.351 . S
C1784 C1785 1.434 . S
C1785 C1776 1.429 . S
C1785 N1782 1.350 . S
C1785 C1784 1.434 . S
C1786 C1787 1.369 . S
C1786 C1788 1.419 . S
C1786 H1790 0.930 . S
C1787 C1786 1.369 . S
C1787 C1796 1.429 . S
C1788 C1786 1.419 . S
C1788 C1789 1.363 . S
C1788 H1791 0.929 . S
C1789 C1788 1.363 . S
C1789 C1795 1.428 . S
H1790 C1786 0.930 . S
H1791 C1788 0.929 . S
S1792 N1793 1.613 . S
S1792 N1794 1.610 . S
N1793 S1792 1.613 . S
N1793 C1796 1.350 . S
N1794 S1792 1.610 . S
N1794 C1795 1.351 . S
C1795 C1789 1.428 . S
C1795 N1794 1.351 . S
C1795 C1796 1.434 . S
C1796 C1787 1.429 . S
C1796 N1793 1.350 . S
C1796 C1795 1.434 . S
C1797 C1798 1.369 . S
C1797 C1799 1.419 . S
C1797 H1801 0.930 . S
C1798 C1797 1.369 . S
C1798 C1807 1.429 . S
C1799 C1797 1.419 . S
C1799 C1800 1.363 . S
C1799 H1802 0.929 . S
C1800 C1799 1.363 . S
C1800 C1806 1.428 . S
H1801 C1797 0.930 . S
H1802 C1799 0.929 . S
S1803 N1804 1.613 . S
S1803 N1805 1.610 . S
N1804 S1803 1.613 . S
N1804 C1807 1.350 . S
N1805 S1803 1.610 . S
N1805 C1806 1.351 . S
C1806 C1800 1.428 . S
C1806 N1805 1.351 . S
C1806 C1807 1.434 . S
C1807 C1798 1.429 . S
C1807 N1804 1.350 . S
C1807 C1806 1.434 . S
C1808 C1809 1.369 . S
C1808 C1810 1.419 . S
C1808 H1812 0.930 . S
C1809 C1808 1.369 . S
C1809 C1818 1.429 . S
C1810 C1808 1.419 . S
C1810 C1811 1.363 . S
C1810 H1813 0.929 . S
C1811 C1810 1.363 . S
C1811 C1817 1.428 . S
H1812 C1808 0.930 . S
H1813 C1810 0.929 . S
S1814 N1815 1.613 . S
S1814 N1816 1.610 . S
N1815 S1814 1.613 . S
N1815 C1818 1.350 . S
N1816 S1814 1.610 . S
N1816 C1817 1.351 . S
C1817 C1811 1.428 . S
C1817 N1816 1.351 . S
C1817 C1818 1.434 . S
C1818 C1809 1.429 . S
C1818 N1815 1.350 . S
C1818 C1817 1.434 . S
C1819 C1820 1.369 . S
C1819 C1821 1.419 . S
C1819 H1823 0.930 . S
C1820 C1819 1.369 . S
C1820 C1829 1.429 . S
C1821 C1819 1.419 . S
C1821 C1822 1.363 . S
C1821 H1824 0.929 . S
C1822 C1821 1.363 . S
C1822 C1828 1.428 . S
H1823 C1819 0.930 . S
H1824 C1821 0.929 . S
S1825 N1826 1.613 . S
S1825 N1827 1.610 . S
N1826 S1825 1.613 . S
N1826 C1829 1.350 . S
N1827 S1825 1.610 . S
N1827 C1828 1.351 . S
C1828 C1822 1.428 . S
C1828 N1827 1.351 . S
C1828 C1829 1.434 . S
C1829 C1820 1.429 . S
C1829 N1826 1.350 . S
C1829 C1828 1.434 . S
C1830 C1831 1.369 . S
C1830 C1832 1.419 . S
C1830 H1834 0.930 . S
C1831 C1830 1.369 . S
C1831 C1840 1.429 . S
C1832 C1830 1.419 . S
C1832 C1833 1.363 . S
C1832 H1835 0.929 . S
C1833 C1832 1.363 . S
C1833 C1839 1.428 . S
H1834 C1830 0.930 . S
H1835 C1832 0.929 . S
S1836 N1837 1.613 . S
S1836 N1838 1.610 . S
N1837 S1836 1.613 . S
N1837 C1840 1.350 . S
N1838 S1836 1.610 . S
N1838 C1839 1.351 . S
C1839 C1833 1.428 . S
C1839 N1838 1.351 . S
C1839 C1840 1.434 . S
C1840 C1831 1.429 . S
C1840 N1837 1.350 . S
C1840 C1839 1.434 . S
C1841 C1842 1.369 . S
C1841 C1843 1.419 . S
C1841 H1845 0.930 . S
C1842 C1841 1.369 . S
C1842 C1851 1.429 . S
C1843 C1841 1.419 . S
C1843 C1844 1.363 . S
C1843 H1846 0.929 . S
C1844 C1843 1.363 . S
C1844 C1850 1.428 . S
H1845 C1841 0.930 . S
H1846 C1843 0.929 . S
S1847 N1848 1.613 . S
S1847 N1849 1.610 . S
N1848 S1847 1.613 . S
N1848 C1851 1.350 . S
N1849 S1847 1.610 . S
N1849 C1850 1.351 . S
C1850 C1844 1.428 . S
C1850 N1849 1.351 . S
C1850 C1851 1.434 . S
C1851 C1842 1.429 . S
C1851 N1848 1.350 . S
C1851 C1850 1.434 . S
C1852 C1853 1.369 . S
C1852 C1854 1.419 . S
C1852 H1856 0.930 . S
C1853 C1852 1.369 . S
C1853 C1862 1.429 . S
C1854 C1852 1.419 . S
C1854 C1855 1.363 . S
C1854 H1857 0.929 . S
C1855 C1854 1.363 . S
C1855 C1861 1.428 . S
H1856 C1852 0.930 . S
H1857 C1854 0.929 . S
S1858 N1859 1.613 . S
S1858 N1860 1.610 . S
N1859 S1858 1.613 . S
N1859 C1862 1.350 . S
N1860 S1858 1.610 . S
N1860 C1861 1.351 . S
C1861 C1855 1.428 . S
C1861 N1860 1.351 . S
C1861 C1862 1.434 . S
C1862 C1853 1.429 . S
C1862 N1859 1.350 . S
C1862 C1861 1.434 . S
C1863 C1864 1.369 . S
C1863 C1865 1.419 . S
C1863 H1867 0.930 . S
C1864 C1863 1.369 . S
C1864 C1873 1.429 . S
C1865 C1863 1.419 . S
C1865 C1866 1.363 . S
C1865 H1868 0.929 . S
C1866 C1865 1.363 . S
C1866 C1872 1.428 . S
H1867 C1863 0.930 . S
H1868 C1865 0.929 . S
S1869 N1870 1.613 . S
S1869 N1871 1.610 . S
N1870 S1869 1.613 . S
N1870 C1873 1.350 . S
N1871 S1869 1.610 . S
N1871 C1872 1.351 . S
C1872 C1866 1.428 . S
C1872 N1871 1.351 . S
C1872 C1873 1.434 . S
C1873 C1864 1.429 . S
C1873 N1870 1.350 . S
C1873 C1872 1.434 . S
C1874 C1875 1.369 . S
C1874 C1876 1.419 . S
C1874 H1878 0.930 . S
C1875 C1874 1.369 . S
C1875 C1884 1.429 . S
C1876 C1874 1.419 . S
C1876 C1877 1.363 . S
C1876 H1879 0.929 . S
C1877 C1876 1.363 . S
C1877 C1883 1.428 . S
H1878 C1874 0.930 . S
H1879 C1876 0.929 . S
S1880 N1881 1.613 . S
S1880 N1882 1.610 . S
N1881 S1880 1.613 . S
N1881 C1884 1.350 . S
N1882 S1880 1.610 . S
N1882 C1883 1.351 . S
C1883 C1877 1.428 . S
C1883 N1882 1.351 . S
C1883 C1884 1.434 . S
C1884 C1875 1.429 . S
C1884 N1881 1.350 . S
C1884 C1883 1.434 . S
C1885 C1886 1.369 . S
C1885 C1887 1.419 . S
C1885 H1889 0.930 . S
C1886 C1885 1.369 . S
C1886 C1895 1.429 . S
C1887 C1885 1.419 . S
C1887 C1888 1.363 . S
C1887 H1890 0.929 . S
C1888 C1887 1.363 . S
C1888 C1894 1.428 . S
H1889 C1885 0.930 . S
H1890 C1887 0.929 . S
S1891 N1892 1.613 . S
S1891 N1893 1.610 . S
N1892 S1891 1.613 . S
N1892 C1895 1.350 . S
N1893 S1891 1.610 . S
N1893 C1894 1.351 . S
C1894 C1888 1.428 . S
C1894 N1893 1.351 . S
C1894 C1895 1.434 . S
C1895 C1886 1.429 . S
C1895 N1892 1.350 . S
C1895 C1894 1.434 . S
C1896 C1897 1.369 . S
C1896 C1898 1.419 . S
C1896 H1900 0.930 . S
C1897 C1896 1.369 . S
C1897 C1906 1.429 . S
C1898 C1896 1.419 . S
C1898 C1899 1.363 . S
C1898 H1901 0.929 . S
C1899 C1898 1.363 . S
C1899 C1905 1.428 . S
H1900 C1896 0.930 . S
H1901 C1898 0.929 . S
S1902 N1903 1.613 . S
S1902 N1904 1.610 . S
N1903 S1902 1.613 . S
N1903 C1906 1.350 . S
N1904 S1902 1.610 . S
N1904 C1905 1.351 . S
C1905 C1899 1.428 . S
C1905 N1904 1.351 . S
C1905 C1906 1.434 . S
C1906 C1897 1.429 . S
C1906 N1903 1.350 . S
C1906 C1905 1.434 . S
C1907 C1908 1.369 . S
C1907 C1909 1.419 . S
C1907 H1911 0.930 . S
C1908 C1907 1.369 . S
C1908 C1917 1.429 . S
C1909 C1907 1.419 . S
C1909 C1910 1.363 . S
C1909 H1912 0.929 . S
C1910 C1909 1.363 . S
C1910 C1916 1.428 . S
H1911 C1907 0.930 . S
H1912 C1909 0.929 . S
S1913 N1914 1.613 . S
S1913 N1915 1.610 . S
N1914 S1913 1.613 . S
N1914 C1917 1.350 . S
N1915 S1913 1.610 . S
N1915 C1916 1.351 . S
C1916 C1910 1.428 . S
C1916 N1915 1.351 . S
C1916 C1917 1.434 . S
C1917 C1908 1.429 . S
C1917 N1914 1.350 . S
C1917 C1916 1.434 . S
C1918 C1919 1.369 . S
C1918 C1920 1.419 . S
C1918 H1922 0.930 . S
C1919 C1918 1.369 . S
C1919 C1928 1.429 . S
C1920 C1918 1.419 . S
C1920 C1921 1.363 . S
C1920 H1923 0.929 . S
C1921 C1920 1.363 . S
C1921 C1927 1.428 . S
H1922 C1918 0.930 . S
H1923 C1920 0.929 . S
S1924 N1925 1.613 . S
S1924 N1926 1.610 . S
N1925 S1924 1.613 . S
N1925 C1928 1.350 . S
N1926 S1924 1.610 . S
N1926 C1927 1.351 . S
C1927 C1921 1.428 . S
C1927 N1926 1.351 . S
C1927 C1928 1.434 . S
C1928 C1919 1.429 . S
C1928 N1925 1.350 . S
C1928 C1927 1.434 . S
C1929 C1930 1.369 . S
C1929 C1931 1.419 . S
C1929 H1933 0.930 . S
C1930 C1929 1.369 . S
C1930 C1939 1.429 . S
C1931 C1929 1.419 . S
C1931 C1932 1.363 . S
C1931 H1934 0.929 . S
C1932 C1931 1.363 . S
C1932 C1938 1.428 . S
H1933 C1929 0.930 . S
H1934 C1931 0.929 . S
S1935 N1936 1.613 . S
S1935 N1937 1.610 . S
N1936 S1935 1.613 . S
N1936 C1939 1.350 . S
N1937 S1935 1.610 . S
N1937 C1938 1.351 . S
C1938 C1932 1.428 . S
C1938 N1937 1.351 . S
C1938 C1939 1.434 . S
C1939 C1930 1.429 . S
C1939 N1936 1.350 . S
C1939 C1938 1.434 . S
C1940 C1941 1.369 . S
C1940 C1942 1.419 . S
C1940 H1944 0.930 . S
C1941 C1940 1.369 . S
C1941 C1950 1.429 . S
C1942 C1940 1.419 . S
C1942 C1943 1.363 . S
C1942 H1945 0.929 . S
C1943 C1942 1.363 . S
C1943 C1949 1.428 . S
H1944 C1940 0.930 . S
H1945 C1942 0.929 . S
S1946 N1947 1.613 . S
S1946 N1948 1.610 . S
N1947 S1946 1.613 . S
N1947 C1950 1.350 . S
N1948 S1946 1.610 . S
N1948 C1949 1.351 . S
C1949 C1943 1.428 . S
C1949 N1948 1.351 . S
C1949 C1950 1.434 . S
C1950 C1941 1.429 . S
C1950 N1947 1.350 . S
C1950 C1949 1.434 . S
C1951 C1952 1.369 . S
C1951 C1953 1.419 . S
C1951 H1955 0.930 . S
C1952 C1951 1.369 . S
C1952 C1961 1.429 . S
C1953 C1951 1.419 . S
C1953 C1954 1.363 . S
C1953 H1956 0.929 . S
C1954 C1953 1.363 . S
C1954 C1960 1.428 . S
H1955 C1951 0.930 . S
H1956 C1953 0.929 . S
S1957 N1958 1.613 . S
S1957 N1959 1.610 . S
N1958 S1957 1.613 . S
N1958 C1961 1.350 . S
N1959 S1957 1.610 . S
N1959 C1960 1.351 . S
C1960 C1954 1.428 . S
C1960 N1959 1.351 . S
C1960 C1961 1.434 . S
C1961 C1952 1.429 . S
C1961 N1958 1.350 . S
C1961 C1960 1.434 . S
C1962 C1963 1.369 . S
C1962 C1964 1.419 . S
C1962 H1966 0.930 . S
C1963 C1962 1.369 . S
C1963 C1972 1.429 . S
C1964 C1962 1.419 . S
C1964 C1965 1.363 . S
C1964 H1967 0.929 . S
C1965 C1964 1.363 . S
C1965 C1971 1.428 . S
H1966 C1962 0.930 . S
H1967 C1964 0.929 . S
S1968 N1969 1.613 . S
S1968 N1970 1.610 . S
N1969 S1968 1.613 . S
N1969 C1972 1.350 . S
N1970 S1968 1.610 . S
N1970 C1971 1.351 . S
C1971 C1965 1.428 . S
C1971 N1970 1.351 . S
C1971 C1972 1.434 . S
C1972 C1963 1.429 . S
C1972 N1969 1.350 . S
C1972 C1971 1.434 . S
C1973 C1974 1.369 . S
C1973 C1975 1.419 . S
C1973 H1977 0.930 . S
C1974 C1973 1.369 . S
C1974 C1983 1.429 . S
C1975 C1973 1.419 . S
C1975 C1976 1.363 . S
C1975 H1978 0.929 . S
C1976 C1975 1.363 . S
C1976 C1982 1.428 . S
H1977 C1973 0.930 . S
H1978 C1975 0.929 . S
S1979 N1980 1.613 . S
S1979 N1981 1.610 . S
N1980 S1979 1.613 . S
N1980 C1983 1.350 . S
N1981 S1979 1.610 . S
N1981 C1982 1.351 . S
C1982 C1976 1.428 . S
C1982 N1981 1.351 . S
C1982 C1983 1.434 . S
C1983 C1974 1.429 . S
C1983 N1980 1.350 . S
C1983 C1982 1.434 . S
C1984 C1985 1.369 . S
C1984 C1986 1.419 1_545 S
C1984 H1988 0.930 . S
C1985 C1984 1.369 . S
C1985 C1994 1.429 . S
C1986 C1984 1.419 1_565 S
C1986 C1987 1.363 . S
C1986 H1989 0.929 . S
C1987 C1986 1.363 . S
C1987 C1993 1.428 . S
H1988 C1984 0.930 . S
H1989 C1986 0.929 . S
S1990 N1991 1.613 . S
S1990 N1992 1.610 1_545 S
N1991 S1990 1.613 . S
N1991 C1994 1.350 . S
N1992 S1990 1.610 1_565 S
N1992 C1993 1.351 . S
C1993 C1987 1.428 . S
C1993 N1992 1.351 . S
C1993 C1994 1.434 1_565 S
C1994 C1985 1.429 . S
C1994 N1991 1.350 . S
C1994 C1993 1.434 1_545 S
C1995 C1996 1.369 . S
C1995 C1997 1.419 . S
C1995 H1999 0.930 . S
C1996 C1995 1.369 . S
C1996 C2005 1.429 . S
C1997 C1995 1.419 . S
C1997 C1998 1.363 . S
C1997 H2000 0.929 . S
C1998 C1997 1.363 . S
C1998 C2004 1.428 . S
H1999 C1995 0.930 . S
H2000 C1997 0.929 . S
S2001 N2002 1.613 . S
S2001 N2003 1.610 . S
N2002 S2001 1.613 . S
N2002 C2005 1.350 . S
N2003 S2001 1.610 . S
N2003 C2004 1.351 . S
C2004 C1998 1.428 . S
C2004 N2003 1.351 . S
C2004 C2005 1.434 . S
C2005 C1996 1.429 . S
C2005 N2002 1.350 . S
C2005 C2004 1.434 . S
C2006 C2007 1.369 . S
C2006 C2008 1.419 1_565 S
C2006 H2010 0.930 . S
C2007 C2006 1.369 . S
C2007 C2016 1.429 . S
C2008 C2006 1.419 1_545 S
C2008 C2009 1.363 . S
C2008 H2011 0.929 . S
C2009 C2008 1.363 . S
C2009 C2015 1.428 . S
H2010 C2006 0.930 . S
H2011 C2008 0.929 . S
S2012 N2013 1.613 1_545 S
S2012 N2014 1.610 . S
N2013 S2012 1.613 1_565 S
N2013 C2016 1.350 . S
N2014 S2012 1.610 . S
N2014 C2015 1.351 . S
C2015 C2009 1.428 . S
C2015 N2014 1.351 . S
C2015 C2016 1.434 1_545 S
C2016 C2007 1.429 . S
C2016 N2013 1.350 . S
C2016 C2015 1.434 1_565 S
C2017 C2018 1.369 . S
C2017 C2019 1.419 . S
C2017 H2021 0.930 . S
C2018 C2017 1.369 . S
C2018 C2027 1.429 1_554 S
C2019 C2017 1.419 . S
C2019 C2020 1.363 1_554 S
C2019 H2022 0.929 . S
C2020 C2019 1.363 1_556 S
C2020 C2026 1.428 . S
H2021 C2017 0.930 . S
H2022 C2019 0.929 . S
S2023 N2024 1.613 . S
S2023 N2025 1.610 . S
N2024 S2023 1.613 . S
N2024 C2027 1.350 . S
N2025 S2023 1.610 . S
N2025 C2026 1.351 . S
C2026 C2020 1.428 . S
C2026 N2025 1.351 . S
C2026 C2027 1.434 . S
C2027 C2018 1.429 1_556 S
C2027 N2024 1.350 . S
C2027 C2026 1.434 . S
C2028 C2029 1.369 . S
C2028 C2030 1.419 1_545 S
C2028 H2032 0.930 . S
C2029 C2028 1.369 . S
C2029 C2038 1.429 . S
C2030 C2028 1.419 1_565 S
C2030 C2031 1.363 . S
C2030 H2033 0.929 . S
C2031 C2030 1.363 . S
C2031 C2037 1.428 . S
H2032 C2028 0.930 . S
H2033 C2030 0.929 . S
S2034 N2035 1.613 . S
S2034 N2036 1.610 1_545 S
N2035 S2034 1.613 . S
N2035 C2038 1.350 . S
N2036 S2034 1.610 1_565 S
N2036 C2037 1.351 . S
C2037 C2031 1.428 . S
C2037 N2036 1.351 . S
C2037 C2038 1.434 1_565 S
C2038 C2029 1.429 . S
C2038 N2035 1.350 . S
C2038 C2037 1.434 1_545 S
C2039 C2040 1.369 . S
C2039 C2041 1.419 . S
C2039 H2043 0.930 . S
C2040 C2039 1.369 . S
C2040 C2049 1.429 . S
C2041 C2039 1.419 . S
C2041 C2042 1.363 . S
C2041 H2044 0.929 . S
C2042 C2041 1.363 . S
C2042 C2048 1.428 . S
H2043 C2039 0.930 . S
H2044 C2041 0.929 . S
S2045 N2046 1.613 . S
S2045 N2047 1.610 . S
N2046 S2045 1.613 . S
N2046 C2049 1.350 . S
N2047 S2045 1.610 . S
N2047 C2048 1.351 . S
C2048 C2042 1.428 . S
C2048 N2047 1.351 . S
C2048 C2049 1.434 . S
C2049 C2040 1.429 . S
C2049 N2046 1.350 . S
C2049 C2048 1.434 . S
C2050 C2051 1.369 . S
C2050 C2052 1.419 1_545 S
C2050 H2054 0.930 . S
C2051 C2050 1.369 . S
C2051 C2060 1.429 . S
C2052 C2050 1.419 1_565 S
C2052 C2053 1.363 . S
C2052 H2055 0.929 . S
C2053 C2052 1.363 . S
C2053 C2059 1.428 . S
H2054 C2050 0.930 . S
H2055 C2052 0.929 . S
S2056 N2057 1.613 1_565 S
S2056 N2058 1.610 . S
N2057 S2056 1.613 1_545 S
N2057 C2060 1.350 . S
N2058 S2056 1.610 . S
N2058 C2059 1.351 . S
C2059 C2053 1.428 . S
C2059 N2058 1.351 . S
C2059 C2060 1.434 1_565 S
C2060 C2051 1.429 . S
C2060 N2057 1.350 . S
C2060 C2059 1.434 1_545 S
C2061 C2062 1.369 1_556 S
C2061 C2063 1.419 . S
C2061 H2065 0.930 . S
C2062 C2061 1.369 1_554 S
C2062 C2071 1.429 . S
C2063 C2061 1.419 . S
C2063 C2064 1.363 . S
C2063 H2066 0.929 . S
C2064 C2063 1.363 . S
C2064 C2070 1.428 1_556 S
H2065 C2061 0.930 . S
H2066 C2063 0.929 . S
S2067 N2068 1.613 . S
S2067 N2069 1.610 . S
N2068 S2067 1.613 . S
N2068 C2071 1.350 . S
N2069 S2067 1.610 . S
N2069 C2070 1.351 . S
C2070 C2064 1.428 1_554 S
C2070 N2069 1.351 . S
C2070 C2071 1.434 . S
C2071 C2062 1.429 . S
C2071 N2068 1.350 . S
C2071 C2070 1.434 . S
C2072 C2073 1.369 . S
C2072 C2074 1.419 . S
C2072 H2076 0.930 . S
C2073 C2072 1.369 . S
C2073 C2082 1.429 . S
C2074 C2072 1.419 . S
C2074 C2075 1.363 . S
C2074 H2077 0.929 . S
C2075 C2074 1.363 . S
C2075 C2081 1.428 . S
H2076 C2072 0.930 . S
H2077 C2074 0.929 . S
S2078 N2079 1.613 . S
S2078 N2080 1.610 . S
N2079 S2078 1.613 . S
N2079 C2082 1.350 . S
N2080 S2078 1.610 . S
N2080 C2081 1.351 . S
C2081 C2075 1.428 . S
C2081 N2080 1.351 . S
C2081 C2082 1.434 . S
C2082 C2073 1.429 . S
C2082 N2079 1.350 . S
C2082 C2081 1.434 . S
C2083 C2084 1.369 1_556 S
C2083 C2085 1.419 . S
C2083 H2087 0.930 . S
C2084 C2083 1.369 1_554 S
C2084 C2093 1.429 . S
C2085 C2083 1.419 . S
C2085 C2086 1.363 . S
C2085 H2088 0.929 . S
C2086 C2085 1.363 . S
C2086 C2092 1.428 1_556 S
H2087 C2083 0.930 . S
H2088 C2085 0.929 . S
S2089 N2090 1.613 . S
S2089 N2091 1.610 . S
N2090 S2089 1.613 . S
N2090 C2093 1.350 . S
N2091 S2089 1.610 . S
N2091 C2092 1.351 . S
C2092 C2086 1.428 1_554 S
C2092 N2091 1.351 . S
C2092 C2093 1.434 . S
C2093 C2084 1.429 . S
C2093 N2090 1.350 . S
C2093 C2092 1.434 . S
C2094 C2095 1.369 . S
C2094 C2096 1.419 . S
C2094 H2098 0.930 . S
C2095 C2094 1.369 . S
C2095 C2104 1.429 . S
C2096 C2094 1.419 . S
C2096 C2097 1.363 . S
C2096 H2099 0.929 . S
C2097 C2096 1.363 . S
C2097 C2103 1.428 . S
H2098 C2094 0.930 . S
H2099 C2096 0.929 . S
S2100 N2101 1.613 . S
S2100 N2102 1.610 . S
N2101 S2100 1.613 . S
N2101 C2104 1.350 . S
N2102 S2100 1.610 . S
N2102 C2103 1.351 . S
C2103 C2097 1.428 . S
C2103 N2102 1.351 . S
C2103 C2104 1.434 . S
C2104 C2095 1.429 . S
C2104 N2101 1.350 . S
C2104 C2103 1.434 . S
C2105 C2106 1.369 . S
C2105 C2107 1.419 . S
C2105 H2109 0.930 . S
C2106 C2105 1.369 . S
C2106 C2115 1.429 . S
C2107 C2105 1.419 . S
C2107 C2108 1.363 . S
C2107 H2110 0.929 . S
C2108 C2107 1.363 . S
C2108 C2114 1.428 . S
H2109 C2105 0.930 . S
H2110 C2107 0.929 . S
S2111 N2112 1.613 . S
S2111 N2113 1.610 . S
N2112 S2111 1.613 . S
N2112 C2115 1.350 . S
N2113 S2111 1.610 . S
N2113 C2114 1.351 . S
C2114 C2108 1.428 . S
C2114 N2113 1.351 . S
C2114 C2115 1.434 . S
C2115 C2106 1.429 . S
C2115 N2112 1.350 . S
C2115 C2114 1.434 . S
C2116 C2117 1.369 . S
C2116 C2118 1.419 . S
C2116 H2120 0.930 . S
C2117 C2116 1.369 . S
C2117 C2126 1.429 . S
C2118 C2116 1.419 . S
C2118 C2119 1.363 . S
C2118 H2121 0.929 . S
C2119 C2118 1.363 . S
C2119 C2125 1.428 . S
H2120 C2116 0.930 . S
H2121 C2118 0.929 . S
S2122 N2123 1.613 . S
S2122 N2124 1.610 . S
N2123 S2122 1.613 . S
N2123 C2126 1.350 . S
N2124 S2122 1.610 . S
N2124 C2125 1.351 . S
C2125 C2119 1.428 . S
C2125 N2124 1.351 . S
C2125 C2126 1.434 . S
C2126 C2117 1.429 . S
C2126 N2123 1.350 . S
C2126 C2125 1.434 . S
C2127 C2128 1.369 1_556 S
C2127 C2129 1.419 . S
C2127 H2131 0.930 . S
C2128 C2127 1.369 1_554 S
C2128 C2137 1.429 . S
C2129 C2127 1.419 . S
C2129 C2130 1.363 . S
C2129 H2132 0.929 . S
C2130 C2129 1.363 . S
C2130 C2136 1.428 1_556 S
H2131 C2127 0.930 . S
H2132 C2129 0.929 . S
S2133 N2134 1.613 . S
S2133 N2135 1.610 . S
N2134 S2133 1.613 . S
N2134 C2137 1.350 . S
N2135 S2133 1.610 . S
N2135 C2136 1.351 . S
C2136 C2130 1.428 1_554 S
C2136 N2135 1.351 . S
C2136 C2137 1.434 . S
C2137 C2128 1.429 . S
C2137 N2134 1.350 . S
C2137 C2136 1.434 . S
C2138 C2139 1.369 . S
C2138 C2140 1.419 . S
C2138 H2142 0.930 . S
C2139 C2138 1.369 . S
C2139 C2148 1.429 . S
C2140 C2138 1.419 . S
C2140 C2141 1.363 . S
C2140 H2143 0.929 . S
C2141 C2140 1.363 . S
C2141 C2147 1.428 . S
H2142 C2138 0.930 . S
H2143 C2140 0.929 . S
S2144 N2145 1.613 . S
S2144 N2146 1.610 . S
N2145 S2144 1.613 . S
N2145 C2148 1.350 . S
N2146 S2144 1.610 . S
N2146 C2147 1.351 . S
C2147 C2141 1.428 . S
C2147 N2146 1.351 . S
C2147 C2148 1.434 . S
C2148 C2139 1.429 . S
C2148 N2145 1.350 . S
C2148 C2147 1.434 . S
C2149 C2150 1.369 . S
C2149 C2151 1.419 . S
C2149 H2153 0.930 . S
C2150 C2149 1.369 . S
C2150 C2159 1.429 . S
C2151 C2149 1.419 . S
C2151 C2152 1.363 . S
C2151 H2154 0.929 . S
C2152 C2151 1.363 . S
C2152 C2158 1.428 . S
H2153 C2149 0.930 . S
H2154 C2151 0.929 . S
S2155 N2156 1.613 . S
S2155 N2157 1.610 . S
N2156 S2155 1.613 . S
N2156 C2159 1.350 . S
N2157 S2155 1.610 . S
N2157 C2158 1.351 . S
C2158 C2152 1.428 . S
C2158 N2157 1.351 . S
C2158 C2159 1.434 . S
C2159 C2150 1.429 . S
C2159 N2156 1.350 . S
C2159 C2158 1.434 . S
C2160 C2161 1.369 . S
C2160 C2162 1.419 . S
C2160 H2164 0.930 . S
C2161 C2160 1.369 . S
C2161 C2170 1.429 . S
C2162 C2160 1.419 . S
C2162 C2163 1.363 . S
C2162 H2165 0.929 . S
C2163 C2162 1.363 . S
C2163 C2169 1.428 . S
H2164 C2160 0.930 . S
H2165 C2162 0.929 . S
S2166 N2167 1.613 . S
S2166 N2168 1.610 . S
N2167 S2166 1.613 . S
N2167 C2170 1.350 . S
N2168 S2166 1.610 . S
N2168 C2169 1.351 . S
C2169 C2163 1.428 . S
C2169 N2168 1.351 . S
C2169 C2170 1.434 . S
C2170 C2161 1.429 . S
C2170 N2167 1.350 . S
C2170 C2169 1.434 . S
C2171 C2172 1.369 . S
C2171 C2173 1.419 . S
C2171 H2175 0.930 . S
C2172 C2171 1.369 . S
C2172 C2181 1.429 . S
C2173 C2171 1.419 . S
C2173 C2174 1.363 . S
C2173 H2176 0.929 . S
C2174 C2173 1.363 . S
C2174 C2180 1.428 . S
H2175 C2171 0.930 . S
H2176 C2173 0.929 . S
S2177 N2178 1.613 . S
S2177 N2179 1.610 . S
N2178 S2177 1.613 . S
N2178 C2181 1.350 . S
N2179 S2177 1.610 . S
N2179 C2180 1.351 . S
C2180 C2174 1.428 . S
C2180 N2179 1.351 . S
C2180 C2181 1.434 . S
C2181 C2172 1.429 . S
C2181 N2178 1.350 . S
C2181 C2180 1.434 . S
C2182 C2183 1.369 . S
C2182 C2184 1.419 . S
C2182 H2186 0.930 . S
C2183 C2182 1.369 . S
C2183 C2192 1.429 . S
C2184 C2182 1.419 . S
C2184 C2185 1.363 . S
C2184 H2187 0.929 . S
C2185 C2184 1.363 . S
C2185 C2191 1.428 . S
H2186 C2182 0.930 . S
H2187 C2184 0.929 . S
S2188 N2189 1.613 . S
S2188 N2190 1.610 . S
N2189 S2188 1.613 . S
N2189 C2192 1.350 . S
N2190 S2188 1.610 . S
N2190 C2191 1.351 . S
C2191 C2185 1.428 . S
C2191 N2190 1.351 . S
C2191 C2192 1.434 . S
C2192 C2183 1.429 . S
C2192 N2189 1.350 . S
C2192 C2191 1.434 . S
C2193 C2194 1.369 . S
C2193 C2195 1.419 . S
C2193 H2197 0.930 . S
C2194 C2193 1.369 . S
C2194 C2203 1.429 . S
C2195 C2193 1.419 . S
C2195 C2196 1.363 . S
C2195 H2198 0.929 . S
C2196 C2195 1.363 . S
C2196 C2202 1.428 . S
H2197 C2193 0.930 . S
H2198 C2195 0.929 . S
S2199 N2200 1.613 . S
S2199 N2201 1.610 . S
N2200 S2199 1.613 . S
N2200 C2203 1.350 . S
N2201 S2199 1.610 . S
N2201 C2202 1.351 . S
C2202 C2196 1.428 . S
C2202 N2201 1.351 . S
C2202 C2203 1.434 . S
C2203 C2194 1.429 . S
C2203 N2200 1.350 . S
C2203 C2202 1.434 . S
C2204 C2205 1.369 . S
C2204 C2206 1.419 . S
C2204 H2208 0.930 . S
C2205 C2204 1.369 . S
C2205 C2214 1.429 . S
C2206 C2204 1.419 . S
C2206 C2207 1.363 . S
C2206 H2209 0.929 . S
C2207 C2206 1.363 . S
C2207 C2213 1.428 . S
H2208 C2204 0.930 . S
H2209 C2206 0.929 . S
S2210 N2211 1.613 . S
S2210 N2212 1.610 . S
N2211 S2210 1.613 . S
N2211 C2214 1.350 . S
N2212 S2210 1.610 . S
N2212 C2213 1.351 . S
C2213 C2207 1.428 . S
C2213 N2212 1.351 . S
C2213 C2214 1.434 . S
C2214 C2205 1.429 . S
C2214 N2211 1.350 . S
C2214 C2213 1.434 . S
C2215 C2216 1.369 . S
C2215 C2217 1.419 . S
C2215 H2219 0.930 . S
C2216 C2215 1.369 . S
C2216 C2225 1.429 . S
C2217 C2215 1.419 . S
C2217 C2218 1.363 . S
C2217 H2220 0.929 . S
C2218 C2217 1.363 . S
C2218 C2224 1.428 . S
H2219 C2215 0.930 . S
H2220 C2217 0.929 . S
S2221 N2222 1.613 . S
S2221 N2223 1.610 . S
N2222 S2221 1.613 . S
N2222 C2225 1.350 . S
N2223 S2221 1.610 . S
N2223 C2224 1.351 . S
C2224 C2218 1.428 . S
C2224 N2223 1.351 . S
C2224 C2225 1.434 . S
C2225 C2216 1.429 . S
C2225 N2222 1.350 . S
C2225 C2224 1.434 . S
C2226 C2227 1.369 . S
C2226 C2228 1.419 . S
C2226 H2230 0.930 . S
C2227 C2226 1.369 . S
C2227 C2236 1.429 . S
C2228 C2226 1.419 . S
C2228 C2229 1.363 . S
C2228 H2231 0.929 . S
C2229 C2228 1.363 . S
C2229 C2235 1.428 . S
H2230 C2226 0.930 . S
H2231 C2228 0.929 . S
S2232 N2233 1.613 . S
S2232 N2234 1.610 . S
N2233 S2232 1.613 . S
N2233 C2236 1.350 . S
N2234 S2232 1.610 . S
N2234 C2235 1.351 . S
C2235 C2229 1.428 . S
C2235 N2234 1.351 . S
C2235 C2236 1.434 . S
C2236 C2227 1.429 . S
C2236 N2233 1.350 . S
C2236 C2235 1.434 . S
C2237 C2238 1.369 . S
C2237 C2239 1.419 . S
C2237 H2241 0.930 . S
C2238 C2237 1.369 . S
C2238 C2247 1.429 . S
C2239 C2237 1.419 . S
C2239 C2240 1.363 . S
C2239 H2242 0.929 . S
C2240 C2239 1.363 . S
C2240 C2246 1.428 . S
H2241 C2237 0.930 . S
H2242 C2239 0.929 . S
S2243 N2244 1.613 . S
S2243 N2245 1.610 . S
N2244 S2243 1.613 . S
N2244 C2247 1.350 . S
N2245 S2243 1.610 . S
N2245 C2246 1.351 . S
C2246 C2240 1.428 . S
C2246 N2245 1.351 . S
C2246 C2247 1.434 . S
C2247 C2238 1.429 . S
C2247 N2244 1.350 . S
C2247 C2246 1.434 . S
C2248 C2249 1.369 . S
C2248 C2250 1.419 . S
C2248 H2252 0.930 . S
C2249 C2248 1.369 . S
C2249 C2258 1.429 . S
C2250 C2248 1.419 . S
C2250 C2251 1.363 . S
C2250 H2253 0.929 . S
C2251 C2250 1.363 . S
C2251 C2257 1.428 . S
H2252 C2248 0.930 . S
H2253 C2250 0.929 . S
S2254 N2255 1.613 . S
S2254 N2256 1.610 . S
N2255 S2254 1.613 . S
N2255 C2258 1.350 . S
N2256 S2254 1.610 . S
N2256 C2257 1.351 . S
C2257 C2251 1.428 . S
C2257 N2256 1.351 . S
C2257 C2258 1.434 . S
C2258 C2249 1.429 . S
C2258 N2255 1.350 . S
C2258 C2257 1.434 . S
C2259 C2260 1.369 . S
C2259 C2261 1.419 . S
C2259 H2263 0.930 . S
C2260 C2259 1.369 . S
C2260 C2269 1.429 . S
C2261 C2259 1.419 . S
C2261 C2262 1.363 . S
C2261 H2264 0.929 . S
C2262 C2261 1.363 . S
C2262 C2268 1.428 . S
H2263 C2259 0.930 . S
H2264 C2261 0.929 . S
S2265 N2266 1.613 . S
S2265 N2267 1.610 . S
N2266 S2265 1.613 . S
N2266 C2269 1.350 . S
N2267 S2265 1.610 . S
N2267 C2268 1.351 . S
C2268 C2262 1.428 . S
C2268 N2267 1.351 . S
C2268 C2269 1.434 . S
C2269 C2260 1.429 . S
C2269 N2266 1.350 . S
C2269 C2268 1.434 . S
C2270 C2271 1.369 . S
C2270 C2272 1.419 . S
C2270 H2274 0.930 . S
C2271 C2270 1.369 . S
C2271 C2280 1.429 . S
C2272 C2270 1.419 . S
C2272 C2273 1.363 . S
C2272 H2275 0.929 . S
C2273 C2272 1.363 . S
C2273 C2279 1.428 . S
H2274 C2270 0.930 . S
H2275 C2272 0.929 . S
S2276 N2277 1.613 . S
S2276 N2278 1.610 . S
N2277 S2276 1.613 . S
N2277 C2280 1.350 . S
N2278 S2276 1.610 . S
N2278 C2279 1.351 . S
C2279 C2273 1.428 . S
C2279 N2278 1.351 . S
C2279 C2280 1.434 . S
C2280 C2271 1.429 . S
C2280 N2277 1.350 . S
C2280 C2279 1.434 . S
C2281 C2282 1.369 . S
C2281 C2283 1.419 . S
C2281 H2285 0.930 . S
C2282 C2281 1.369 . S
C2282 C2291 1.429 . S
C2283 C2281 1.419 . S
C2283 C2284 1.363 . S
C2283 H2286 0.929 . S
C2284 C2283 1.363 . S
C2284 C2290 1.428 . S
H2285 C2281 0.930 . S
H2286 C2283 0.929 . S
S2287 N2288 1.613 . S
S2287 N2289 1.610 . S
N2288 S2287 1.613 . S
N2288 C2291 1.350 . S
N2289 S2287 1.610 . S
N2289 C2290 1.351 . S
C2290 C2284 1.428 . S
C2290 N2289 1.351 . S
C2290 C2291 1.434 . S
C2291 C2282 1.429 . S
C2291 N2288 1.350 . S
C2291 C2290 1.434 . S
C2292 C2293 1.369 . S
C2292 C2294 1.419 . S
C2292 H2296 0.930 . S
C2293 C2292 1.369 . S
C2293 C2302 1.429 . S
C2294 C2292 1.419 . S
C2294 C2295 1.363 . S
C2294 H2297 0.929 . S
C2295 C2294 1.363 . S
C2295 C2301 1.428 . S
H2296 C2292 0.930 . S
H2297 C2294 0.929 . S
S2298 N2299 1.613 . S
S2298 N2300 1.610 . S
N2299 S2298 1.613 . S
N2299 C2302 1.350 . S
N2300 S2298 1.610 . S
N2300 C2301 1.351 . S
C2301 C2295 1.428 . S
C2301 N2300 1.351 . S
C2301 C2302 1.434 . S
C2302 C2293 1.429 . S
C2302 N2299 1.350 . S
C2302 C2301 1.434 . S
C2303 C2304 1.369 . S
C2303 C2305 1.419 . S
C2303 H2307 0.930 . S
C2304 C2303 1.369 . S
C2304 C2313 1.429 . S
C2305 C2303 1.419 . S
C2305 C2306 1.363 . S
C2305 H2308 0.929 . S
C2306 C2305 1.363 . S
C2306 C2312 1.428 . S
H2307 C2303 0.930 . S
H2308 C2305 0.929 . S
S2309 N2310 1.613 . S
S2309 N2311 1.610 . S
N2310 S2309 1.613 . S
N2310 C2313 1.350 . S
N2311 S2309 1.610 . S
N2311 C2312 1.351 . S
C2312 C2306 1.428 . S
C2312 N2311 1.351 . S
C2312 C2313 1.434 . S
C2313 C2304 1.429 . S
C2313 N2310 1.350 . S
C2313 C2312 1.434 . S
C2314 C2315 1.369 . S
C2314 C2316 1.419 . S
C2314 H2318 0.930 . S
C2315 C2314 1.369 . S
C2315 C2324 1.429 . S
C2316 C2314 1.419 . S
C2316 C2317 1.363 . S
C2316 H2319 0.929 . S
C2317 C2316 1.363 . S
C2317 C2323 1.428 . S
H2318 C2314 0.930 . S
H2319 C2316 0.929 . S
S2320 N2321 1.613 . S
S2320 N2322 1.610 . S
N2321 S2320 1.613 . S
N2321 C2324 1.350 . S
N2322 S2320 1.610 . S
N2322 C2323 1.351 . S
C2323 C2317 1.428 . S
C2323 N2322 1.351 . S
C2323 C2324 1.434 . S
C2324 C2315 1.429 . S
C2324 N2321 1.350 . S
C2324 C2323 1.434 . S
C2325 C2326 1.369 . S
C2325 C2327 1.419 . S
C2325 H2329 0.930 . S
C2326 C2325 1.369 . S
C2326 C2335 1.429 . S
C2327 C2325 1.419 . S
C2327 C2328 1.363 . S
C2327 H2330 0.929 . S
C2328 C2327 1.363 . S
C2328 C2334 1.428 . S
H2329 C2325 0.930 . S
H2330 C2327 0.929 . S
S2331 N2332 1.613 . S
S2331 N2333 1.610 . S
N2332 S2331 1.613 . S
N2332 C2335 1.350 . S
N2333 S2331 1.610 . S
N2333 C2334 1.351 . S
C2334 C2328 1.428 . S
C2334 N2333 1.351 . S
C2334 C2335 1.434 . S
C2335 C2326 1.429 . S
C2335 N2332 1.350 . S
C2335 C2334 1.434 . S
C1281 C25 0.986 . S
C1283 C140 0.983 . S
C1292 C20 0.990 . S
C1294 C65 0.989 . S
C1303 C105 0.987 . S
C1305 C60 0.987 . S
C1314 C100 0.981 . S
C1316 C145 0.983 . S
C1325 C220 0.981 . S
C1327 C185 0.983 . S
C1336 C225 0.991 . S
C1338 C260 0.987 . S
C1347 C300 0.981 . S
C1349 C265 0.984 . S
C1358 C180 0.981 . S
C1360 C305 0.983 . S
C1369 C324 0.982 . S
C1371 C471 0.982 . S
C1380 C364 0.988 . S
C1382 C351 0.988 . S
C1391 C404 0.985 . S
C1393 C391 0.983 . S
C1402 C444 0.986 . S
C1404 C431 0.984 . S
C1413 C484 0.992 . S
C1415 C551 0.989 . S
C1424 C524 0.983 . S
C1426 C591 0.984 . S
C1435 C631 0.991 . S
C1437 C564 0.990 . S
C1446 C511 0.990 . S
C1448 C604 0.990 . S
C1457 C665 0.985 . S
C1459 C780 0.986 . S
C1468 C660 0.989 . S
C1470 C705 0.990 . S
C1479 C700 0.983 . S
C1481 C745 0.987 . S
C1490 C785 0.988 . S
C1492 C740 0.988 . S
C1501 C825 0.987 . S
C1503 C860 0.987 . S
C1512 C900 0.989 . S
C1514 C865 0.988 . S
C1523 C905 0.985 . S
C1525 C940 0.986 . S
C1534 C820 0.987 . S
C1536 C945 0.989 . S
C1545 C1111 0.990 . S
C1547 C964 0.990 . S
C1556 C991 0.980 . S
C1558 C1004 0.983 . S
C1567 C1044 0.990 . S
C1569 C1031 0.989 . S
C1578 C1071 0.988 . S
C1580 C1084 0.989 . S
C1589 C1191 0.984 . S
C1591 C1124 0.987 . S
C1600 C1231 0.985 . S
C1602 C1164 0.985 . S
C1611 C1271 0.987 . S
C1613 C1204 0.989 . S
C1622 C1244 0.987 . S
C1624 C1151 0.984 . S
C1633 C1105 1.522 . S
C1635 C23 1.479 . S
C1644 C63 1.478 . S
C1646 C345 1.523 . S
C1655 C103 1.485 . S
C1657 C1025 1.520 . S
C1666 C143 1.482 . S
C1668 C425 1.522 . S
C1677 C183 1.482 . S
C1679 C1185 1.520 . S
C1688 C585 1.519 . S
C1690 C223 1.483 . S
C1699 C1265 1.523 . S
C1701 C263 1.480 . S
C1710 C303 1.483 . S
C1712 C505 1.520 . S
C1721 C322 1.478 . S
C1723 C764 1.523 . S
C1732 C4 1.523 . S
C1734 C362 1.477 . S
C1743 C684 1.524 . S
C1745 C402 1.477 . S
C1754 C84 1.524 . S
C1756 C442 1.477 . S
C1765 C844 1.519 . S
C1767 C482 1.483 . S
C1776 C244 1.524 . S
C1778 C522 1.478 . S
C1787 C562 1.479 . S
C1789 C924 1.522 . S
C1798 C602 1.477 . S
C1800 C164 1.523 . S
C1809 C663 1.484 . S
C1811 C465 1.520 . S
C1820 C703 1.477 . S
C1822 C985 1.522 . S
C1831 C743 1.482 . S
C1833 C385 1.520 . S
C1842 C783 1.484 . S
C1844 C1065 1.521 . S
C1853 C823 1.485 . S
C1855 C545 1.520 . S
C1864 C863 1.483 . S
C1866 C1225 1.520 . S
C1875 C625 1.519 . S
C1877 C903 1.484 . S
C1886 C943 1.484 . S
C1888 C1145 1.521 . S
C1897 C124 1.522 . S
C1899 C962 1.479 . S
C1908 C644 1.520 . S
C1910 C1002 1.483 . S
C1919 C44 1.521 . S
C1921 C1042 1.481 . S
C1930 C724 1.520 . S
C1932 C1082 1.483 . S
C1941 C204 1.522 . S
C1943 C1122 1.479 . S
C1952 C1162 1.479 . S
C1954 C884 1.522 . S
C1963 C1202 1.476 . S
C1965 C284 1.524 . S
C1974 C804 1.520 . S
C1976 C1242 1.483 . S
C1985 C2 1.266 . S
C1987 C162 1.265 . S
C1996 C42 1.269 . S
C1998 C202 1.261 . S
C2007 C82 1.270 . S
C2009 C242 1.256 . S
C2018 C282 1.260 . S
C2020 C122 1.268 . S
C2029 C503 1.255 . S
C2031 C343 1.268 . S
C2040 C543 1.259 . S
C2042 C383 1.260 . S
C2051 C423 1.269 . S
C2053 C583 1.256 . S
C2062 C463 1.270 . S
C2064 C623 1.257 . S
C2073 C642 1.259 . S
C2075 C802 1.268 . S
C2084 C842 1.266 . S
C2086 C682 1.256 . S
C2095 C882 1.270 . S
C2097 C722 1.257 . S
C2106 C922 1.270 . S
C2108 C762 1.258 . S
C2117 C1143 1.254 . S
C2119 C983 1.268 . S
C2128 C1023 1.270 . S
C2130 C1183 1.256 . S
C2139 C1223 1.263 . S
C2141 C1063 1.257 . S
C2150 C1103 1.254 . S
C2152 C1263 1.267 . S
C2161 C311 2.636 . S
C2163 C31 2.636 . S
C2172 C71 2.637 . S
C2174 C191 2.636 . S
C2183 C111 2.638 . S
C2185 C231 2.637 . S
C2194 C271 2.638 . S
C2196 C151 2.637 . S
C2205 C340 2.636 . S
C2207 C620 2.637 . S
C2216 C500 2.638 . S
C2218 C380 2.637 . S
C2227 C540 2.637 . S
C2229 C420 2.637 . S
C2238 C460 2.637 . S
C2240 C580 2.636 . S
C2249 C671 2.635 . S
C2251 C951 2.636 . S
C2260 C831 2.635 . S
C2262 C711 2.636 . S
C2271 C871 2.637 . S
C2273 C751 2.637 . S
C2282 C911 2.635 . S
C2284 C791 2.636 . S
C2293 C980 2.638 . S
C2295 C1260 2.637 . S
C2304 C1140 2.636 . S
C2306 C1020 2.636 . S
C2315 C1060 2.637 . S
C2317 C1180 2.637 . S
C2326 C1220 2.636 . S
C2328 C1100 2.637 . S
