# Generated by pormake.
# Topology ure, (4)-cn, num edge types: 1
# Building blocks:
#     Node 0, Type 0, BuildingBlock: UXUYUI_clean_sbu_0, # of connection points: 4
#     Node 1, Type 0, BuildingBlock: UXUYUI_clean_sbu_0, # of connection points: 4
#     Node 2, Type 0, BuildingBlock: UXUYUI_clean_sbu_0, # of connection points: 4
#     Node 3, Type 0, BuildingBlock: UXUYUI_clean_sbu_0, # of connection points: 4
#     Node 4, Type 0, BuildingBlock: UXUYUI_clean_sbu_0, # of connection points: 4
#     Node 5, Type 0, BuildingBlock: UXUYUI_clean_sbu_0, # of connection points: 4
#     Node 6, Type 0, BuildingBlock: UXUYUI_clean_sbu_0, # of connection points: 4
#     Node 7, Type 0, BuildingBlock: UXUYUI_clean_sbu_0, # of connection points: 4
#     Node 8, Type 0, BuildingBlock: UXUYUI_clean_sbu_0, # of connection points: 4
#     Node 9, Type 0, BuildingBlock: UXUYUI_clean_sbu_0, # of connection points: 4
#     Node 10, Type 0, BuildingBlock: UXUYUI_clean_sbu_0, # of connection points: 4
#     Node 11, Type 0, BuildingBlock: UXUYUI_clean_sbu_0, # of connection points: 4
#     Node 12, Type 0, BuildingBlock: UXUYUI_clean_sbu_0, # of connection points: 4
#     Node 13, Type 0, BuildingBlock: UXUYUI_clean_sbu_0, # of connection points: 4
#     Node 14, Type 0, BuildingBlock: UXUYUI_clean_sbu_0, # of connection points: 4
#     Node 15, Type 0, BuildingBlock: UXUYUI_clean_sbu_0, # of connection points: 4
#     Edge 16, Type (0, 0), BuildingBlock: XUDNAN_clean_linker_2, # of connection points: 2
#     Edge 17, Type (0, 0), BuildingBlock: XUDNAN_clean_linker_2, # of connection points: 2
#     Edge 18, Type (0, 0), BuildingBlock: XUDNAN_clean_linker_2, # of connection points: 2
#     Edge 19, Type (0, 0), BuildingBlock: XUDNAN_clean_linker_2, # of connection points: 2
#     Edge 20, Type (0, 0), BuildingBlock: XUDNAN_clean_linker_2, # of connection points: 2
#     Edge 21, Type (0, 0), BuildingBlock: XUDNAN_clean_linker_2, # of connection points: 2
#     Edge 22, Type (0, 0), BuildingBlock: XUDNAN_clean_linker_2, # of connection points: 2
#     Edge 23, Type (0, 0), BuildingBlock: XUDNAN_clean_linker_2, # of connection points: 2
#     Edge 24, Type (0, 0), BuildingBlock: XUDNAN_clean_linker_2, # of connection points: 2
#     Edge 25, Type (0, 0), BuildingBlock: XUDNAN_clean_linker_2, # of connection points: 2
#     Edge 26, Type (0, 0), BuildingBlock: XUDNAN_clean_linker_2, # of connection points: 2
#     Edge 27, Type (0, 0), BuildingBlock: XUDNAN_clean_linker_2, # of connection points: 2
#     Edge 28, Type (0, 0), BuildingBlock: XUDNAN_clean_linker_2, # of connection points: 2
#     Edge 29, Type (0, 0), BuildingBlock: XUDNAN_clean_linker_2, # of connection points: 2
#     Edge 30, Type (0, 0), BuildingBlock: XUDNAN_clean_linker_2, # of connection points: 2
#     Edge 31, Type (0, 0), BuildingBlock: XUDNAN_clean_linker_2, # of connection points: 2
#     Edge 32, Type (0, 0), BuildingBlock: XUDNAN_clean_linker_2, # of connection points: 2
#     Edge 33, Type (0, 0), BuildingBlock: XUDNAN_clean_linker_2, # of connection points: 2
#     Edge 34, Type (0, 0), BuildingBlock: XUDNAN_clean_linker_2, # of connection points: 2
#     Edge 35, Type (0, 0), BuildingBlock: XUDNAN_clean_linker_2, # of connection points: 2
#     Edge 36, Type (0, 0), BuildingBlock: XUDNAN_clean_linker_2, # of connection points: 2
#     Edge 37, Type (0, 0), BuildingBlock: XUDNAN_clean_linker_2, # of connection points: 2
#     Edge 38, Type (0, 0), BuildingBlock: XUDNAN_clean_linker_2, # of connection points: 2
#     Edge 39, Type (0, 0), BuildingBlock: XUDNAN_clean_linker_2, # of connection points: 2
#     Edge 40, Type (0, 0), BuildingBlock: XUDNAN_clean_linker_2, # of connection points: 2
#     Edge 41, Type (0, 0), BuildingBlock: XUDNAN_clean_linker_2, # of connection points: 2
#     Edge 42, Type (0, 0), BuildingBlock: XUDNAN_clean_linker_2, # of connection points: 2
#     Edge 43, Type (0, 0), BuildingBlock: XUDNAN_clean_linker_2, # of connection points: 2
#     Edge 44, Type (0, 0), BuildingBlock: XUDNAN_clean_linker_2, # of connection points: 2
#     Edge 45, Type (0, 0), BuildingBlock: XUDNAN_clean_linker_2, # of connection points: 2
#     Edge 46, Type (0, 0), BuildingBlock: XUDNAN_clean_linker_2, # of connection points: 2
#     Edge 47, Type (0, 0), BuildingBlock: XUDNAN_clean_linker_2, # of connection points: 2
# Relax obj value: 0.164
# Max RMSD: 0.090
# Mean RMSD: 0.090
data_MOF--net-ure--node1-UXUYUI_clean_sbu_0--edge1-XUDNAN_clean_linker_2
_symmetry_space_group_name_H-M    P1
_symmetry_Int_Tables_number       1
_symmetry_cell_setting            triclinic
loop_
_symmetry_equiv_pos_as_xyz
'x, y, z'
_cell_length_a     46.436316
_cell_length_b     46.394581
_cell_length_c     46.405662
_cell_angle_alpha  90.042954
_cell_angle_beta   90.093588
_cell_angle_gamma 90.249943
loop_
_atom_site_label
_atom_site_type_symbol
_atom_site_fract_x
_atom_site_fract_y
_atom_site_fract_z
_atom_type_partial_charge
Li0 Li 0.26049 0.2973 0.26084 0.0
Li1 Li 0.26099 0.2577 0.29799 0.0
Li2 Li 0.29719 0.2593 0.25964 0.0
Li3 Li 0.24853 0.24584 0.24782 0.0
C4 C 0.31531 0.29849 0.29841 0.0
N5 N 0.36938 0.31805 0.31399 0.0
C6 C 0.32882 0.28751 0.32296 0.0
C7 C 0.32912 0.31958 0.28192 0.0
C8 C 0.35621 0.29765 0.33045 0.0
C9 C 0.35651 0.32913 0.29011 0.0
C10 C 0.20216 0.27167 0.2877 0.0
C11 C 0.15868 0.24643 0.30104 0.0
N12 N 0.14944 0.27034 0.3152 0.0
C13 C 0.19203 0.29614 0.30197 0.0
C14 C 0.18519 0.24673 0.28687 0.0
C15 C 0.16542 0.29498 0.31592 0.0
C16 C 0.2456 0.35244 0.23481 0.0
N17 N 0.25303 0.3375 0.25889 0.0
C18 C 0.2514 0.38032 0.28739 0.0
C19 C 0.256 0.35082 0.28479 0.0
C20 C 0.24335 0.3965 0.26314 0.0
C21 C 0.24063 0.38222 0.23646 0.0
H22 H 0.24343 0.34128 0.21444 0.0
H23 H 0.262 0.33841 0.30356 0.0
C24 C 0.26554 0.23156 0.35454 0.0
N25 N 0.25606 0.2543 0.33867 0.0
C26 C 0.26561 0.23305 0.38469 0.0
C27 C 0.24647 0.28129 0.38142 0.0
C28 C 0.24654 0.27879 0.3515 0.0
C29 C 0.25661 0.25846 0.3984 0.0
H30 H 0.27441 0.21287 0.34394 0.0
H31 H 0.24042 0.29701 0.33842 0.0
C32 C 0.2828 0.2624 0.2014 0.0
N33 N 0.29969 0.23758 0.15005 0.0
C34 C 0.29148 0.23359 0.20069 0.0
C35 C 0.2827 0.27858 0.17603 0.0
C36 C 0.29994 0.22144 0.17451 0.0
C37 C 0.29133 0.26564 0.15027 0.0
C38 C 0.26844 0.19771 0.28105 0.0
C39 C 0.28554 0.17484 0.27171 0.0
C40 C 0.24366 0.1921 0.29718 0.0
C41 C 0.27739 0.14662 0.27848 0.0
C42 C 0.23626 0.16359 0.30354 0.0
N43 N 0.25312 0.14163 0.29411 0.0
C44 C 0.3514 0.23897 0.27498 0.0
C45 C 0.35223 0.26841 0.23319 0.0
C46 C 0.38141 0.23929 0.27638 0.0
N47 N 0.33751 0.25409 0.25413 0.0
C48 C 0.38236 0.2688 0.23345 0.0
C49 C 0.39713 0.25483 0.25578 0.0
H50 H 0.33908 0.22822 0.2916 0.0
H51 H 0.34065 0.28085 0.21729 0.0
C52 C 0.21123 0.23938 0.20085 0.0
N53 N 0.22427 0.22378 0.22192 0.0
C54 C 0.19449 0.22571 0.17977 0.0
C55 C 0.20404 0.18012 0.20281 0.0
C56 C 0.22089 0.19463 0.22325 0.0
C57 C 0.19086 0.19564 0.18048 0.0
H58 H 0.21426 0.26251 0.20017 0.0
H59 H 0.23153 0.18234 0.23972 0.0
O60 O 0.28892 0.28821 0.29021 0.0
O61 O 0.22809 0.27249 0.2738 0.0
O62 O 0.27412 0.27474 0.2267 0.0
O63 O 0.2762 0.2254 0.27452 0.0
H64 H 0.31841 0.2711 0.33589 0.0
H65 H 0.31894 0.32818 0.26278 0.0
H66 H 0.36704 0.28922 0.34928 0.0
H67 H 0.36759 0.34528 0.27744 0.0
H68 H 0.14539 0.22722 0.3007 0.0
H69 H 0.20465 0.3158 0.30235 0.0
H70 H 0.19232 0.22784 0.27525 0.0
H71 H 0.15743 0.31369 0.32726 0.0
H72 H 0.25443 0.39036 0.30826 0.0
H73 H 0.23434 0.39381 0.21722 0.0
H74 H 0.27411 0.2152 0.39705 0.0
H75 H 0.23942 0.30127 0.39116 0.0
H76 H 0.29166 0.22071 0.22008 0.0
H77 H 0.27596 0.30089 0.17625 0.0
H78 H 0.30669 0.19917 0.17363 0.0
H79 H 0.29135 0.2779 0.13045 0.0
H80 H 0.30486 0.17887 0.25929 0.0
H81 H 0.23041 0.20955 0.30488 0.0
H82 H 0.29037 0.12869 0.27131 0.0
H83 H 0.21713 0.15894 0.316 0.0
H84 H 0.39222 0.22851 0.29402 0.0
H85 H 0.39393 0.28133 0.2175 0.0
H86 H 0.18454 0.23855 0.16304 0.0
H87 H 0.2021 0.15688 0.20396 0.0
Li88 Li 0.99804 0.05139 0.50758 0.0
Li89 Li 0.9615 0.01179 0.51351 0.0
Li90 Li 1.00219 0.01474 0.54509 0.0
Li91 Li 0.00919 0.99837 0.49615 0.0
C92 C 0.96385 0.05061 0.56689 0.0
N93 N 0.94971 0.06317 0.62332 0.0
C94 C 0.9436 0.03372 0.58148 0.0
C95 C 0.97682 0.07397 0.58094 0.0
C96 C 0.93674 0.04043 0.61001 0.0
C97 C 0.96942 0.07993 0.6095 0.0
C98 C 0.95971 0.03126 0.45797 0.0
C99 C 0.93032 0.01821 0.417 0.0
N100 N 0.91577 0.04345 0.41962 0.0
C101 C 0.94467 0.0572 0.46001 0.0
C102 C 0.95266 0.0117 0.43609 0.0
C103 C 0.92245 0.06291 0.44054 0.0
C104 C 0.02513 0.10056 0.48165 0.0
N105 N 0.00322 0.09111 0.49862 0.0
C106 C 0.98614 0.13923 0.50489 0.0
C107 C 0.98388 0.10973 0.51017 0.0
C108 C 0.0085 0.14977 0.48745 0.0
C109 C 0.02816 0.13 0.47568 0.0
H110 H 0.04025 0.08525 0.4728 0.0
H111 H 0.96644 0.10159 0.52329 0.0
C112 C 0.90507 0.98269 0.50914 0.0
N113 N 0.92028 0.00774 0.51172 0.0
C114 C 0.87493 0.9829 0.51069 0.0
C115 C 0.87676 0.03454 0.51696 0.0
C116 C 0.90664 0.03336 0.5152 0.0
C117 C 0.86049 0.00906 0.51525 0.0
H118 H 0.91611 0.96245 0.50671 0.0
H119 H 0.91908 0.05298 0.51736 0.0
C120 C 0.05898 0.02411 0.52908 0.0
N121 N 0.11262 0.01647 0.55361 0.0
C122 C 0.06678 0.9972 0.54002 0.0
C123 C 0.07838 0.04716 0.53065 0.0
C124 C 0.09402 0.99376 0.55233 0.0
C125 C 0.10543 0.04285 0.54312 0.0
C126 C 0.97526 0.95317 0.51841 0.0
C127 C 0.96953 0.93143 0.53846 0.0
C128 C 0.97021 0.94805 0.48918 0.0
C129 C 0.95871 0.90495 0.52888 0.0
C130 C 0.95946 0.92127 0.48042 0.0
N131 N 0.95396 0.90045 0.5003 0.0
C132 C 0.99884 0.99311 0.60215 0.0
C133 C 0.03157 0.03191 0.59601 0.0
C134 C 1.0017 0.99486 0.63211 0.0
N135 N 0.01317 0.01195 0.58485 0.0
C136 C 0.03539 0.03414 0.62575 0.0
C137 C 0.0196 0.01614 0.64435 0.0
H138 H 0.98374 0.97797 0.59276 0.0
H139 H 0.04203 0.04727 0.58198 0.0
C140 C 0.031 0.98172 0.44197 0.0
N141 N 0.0309 0.9744 0.47033 0.0
C142 C 0.04501 0.96436 0.4218 0.0
C143 C 0.05959 0.93275 0.46046 0.0
C144 C 0.04485 0.95048 0.47986 0.0
C145 C 0.05945 0.93944 0.43095 0.0
H146 H 0.01981 1.00086 0.43495 0.0
H147 H 0.04408 0.94481 0.50243 0.0
O148 O 0.97148 0.04387 0.53923 0.0
O149 O 0.98134 0.02521 0.47713 0.0
O150 O 0.03224 0.0281 0.51746 0.0
O151 O 0.98626 0.97903 0.52751 0.0
H152 H 0.93363 0.01533 0.57107 0.0
H153 H 0.99282 0.08704 0.57008 0.0
H154 H 0.92124 0.02743 0.62162 0.0
H155 H 0.97947 0.09778 0.62072 0.0
H156 H 0.92461 0.00323 0.40003 0.0
H157 H 0.94979 0.07261 0.47671 0.0
H158 H 0.96437 0.99177 0.43363 0.0
H159 H 0.91048 0.0828 0.44209 0.0
H160 H 0.97023 0.15358 0.514 0.0
H161 H 0.04585 0.13724 0.46229 0.0
H162 H 0.86314 0.96274 0.50945 0.0
H163 H 0.86649 0.05523 0.52007 0.0
H164 H 0.05173 0.97936 0.53954 0.0
H165 H 0.07254 0.06818 0.52243 0.0
H166 H 0.10031 0.97309 0.56102 0.0
H167 H 0.12067 0.06049 0.54452 0.0
H168 H 0.97343 0.93497 0.56119 0.0
H169 H 0.97437 0.96462 0.47347 0.0
H170 H 0.95414 0.88795 0.54417 0.0
H171 H 0.95544 0.91708 0.45783 0.0
H172 H 0.98876 0.98076 0.64548 0.0
H173 H 0.04981 0.05056 0.63407 0.0
H174 H 0.04454 0.97034 0.39925 0.0
H175 H 0.0702 0.91354 0.4683 0.0
Li176 Li 0.2086 0.74682 0.75493 0.0
Li177 Li 0.25776 0.75955 0.74544 0.0
Li178 Li 0.24258 0.70739 0.75802 0.0
Li179 Li 0.24172 0.74784 0.79478 0.0
C180 C 0.21757 0.73554 0.69911 0.0
N181 N 0.18437 0.74467 0.6506 0.0
C182 C 0.2115 0.76361 0.69014 0.0
C183 C 0.20702 0.7121 0.68333 0.0
C184 C 0.19458 0.76778 0.66559 0.0
C185 C 0.1902 0.71718 0.65887 0.0
C186 C 0.23994 0.80756 0.77742 0.0
C187 C 0.27575 0.83775 0.80019 0.0
N188 N 0.2615 0.86154 0.79087 0.0
C189 C 0.22558 0.83231 0.76815 0.0
C190 C 0.26518 0.81029 0.79361 0.0
C191 C 0.23685 0.85941 0.77513 0.0
C192 C 0.15745 0.77872 0.75707 0.0
N193 N 0.16899 0.7543 0.7459 0.0
C194 C 0.12309 0.74 0.72705 0.0
C195 C 0.15247 0.73494 0.73121 0.0
C196 C 0.11052 0.76506 0.73841 0.0
C197 C 0.12821 0.78455 0.75358 0.0
H198 H 0.17082 0.79326 0.76948 0.0
H199 H 0.1619 0.71521 0.72334 0.0
C200 C 0.30949 0.76785 0.71508 0.0
N201 N 0.28475 0.78131 0.72282 0.0
C202 C 0.33065 0.7826 0.69952 0.0
C203 C 0.30031 0.82472 0.69954 0.0
C204 C 0.2796 0.80904 0.71489 0.0
C205 C 0.32647 0.81164 0.69185 0.0
H206 H 0.31288 0.74564 0.72125 0.0
H207 H 0.25951 0.81914 0.7206 0.0
C208 C 0.18551 0.71226 0.79413 0.0
N209 N 0.129 0.70186 0.80948 0.0
C210 C 0.1715 0.73082 0.81318 0.0
C211 C 0.17092 0.68829 0.78305 0.0
C212 C 0.14288 0.72523 0.82062 0.0
C213 C 0.14231 0.68342 0.79104 0.0
C214 C 0.30018 0.72922 0.78841 0.0
C215 C 0.30656 0.7035 0.80268 0.0
C216 C 0.31995 0.75203 0.7893 0.0
C217 C 0.33218 0.70133 0.81833 0.0
C218 C 0.34536 0.74902 0.80516 0.0
N219 N 0.35087 0.72396 0.81927 0.0
C220 C 0.25936 0.65273 0.73257 0.0
C221 C 0.2441 0.65331 0.78129 0.0
C222 C 0.2648 0.62305 0.73425 0.0
N223 N 0.24943 0.66713 0.75606 0.0
C224 C 0.24934 0.62392 0.78396 0.0
C225 C 0.26016 0.60842 0.7604 0.0
H226 H 0.2634 0.66431 0.71274 0.0
H227 H 0.23616 0.66531 0.79959 0.0
C228 C 0.23805 0.7749 0.85144 0.0
N229 N 0.24528 0.75128 0.83564 0.0
C230 C 0.2374 0.77336 0.8816 0.0
C231 C 0.2515 0.72339 0.87841 0.0
C232 C 0.25195 0.72591 0.84853 0.0
C233 C 0.24359 0.74712 0.89536 0.0
H234 H 0.23154 0.79451 0.84076 0.0
H235 H 0.25634 0.70717 0.83547 0.0
O236 O 0.23376 0.73104 0.72328 0.0
O237 O 0.22945 0.78091 0.77019 0.0
O238 O 0.21323 0.71783 0.78596 0.0
O239 O 0.27524 0.73165 0.77281 0.0
H240 H 0.21948 0.78194 0.70223 0.0
H241 H 0.21159 0.69025 0.69005 0.0
H242 H 0.18953 0.78937 0.65848 0.0
H243 H 0.18175 0.69927 0.64649 0.0
H244 H 0.29524 0.84014 0.81278 0.0
H245 H 0.20614 0.83061 0.75536 0.0
H246 H 0.27622 0.79143 0.80138 0.0
H247 H 0.22603 0.87873 0.76797 0.0
H248 H 0.11039 0.72438 0.71516 0.0
H249 H 0.11943 0.80377 0.7634 0.0
H250 H 0.35006 0.77125 0.69351 0.0
H251 H 0.29603 0.84704 0.69432 0.0
H252 H 0.18251 0.74955 0.82182 0.0
H253 H 0.18148 0.6738 0.76817 0.0
H254 H 0.13168 0.73951 0.83519 0.0
H255 H 0.13066 0.66506 0.78251 0.0
H256 H 0.29185 0.68541 0.80179 0.0
H257 H 0.31589 0.77182 0.77773 0.0
H258 H 0.33723 0.68162 0.82968 0.0
H259 H 0.36074 0.76657 0.80614 0.0
H260 H 0.27318 0.61186 0.71559 0.0
H261 H 0.24495 0.61344 0.80434 0.0
H262 H 0.23072 0.79202 0.8939 0.0
H263 H 0.25652 0.70279 0.88812 0.0
Li264 Li 0.50632 0.98833 0.04971 0.0
Li265 Li 0.50848 0.95304 0.01191 0.0
Li266 Li 0.54557 0.98875 0.01458 0.0
Li267 Li 0.49573 1.00148 0.99818 0.0
C268 C 0.55523 0.96021 0.06583 0.0
N269 N 0.59349 0.96243 0.11145 0.0
C270 C 0.56393 0.93484 0.07944 0.0
C271 C 0.56593 0.98675 0.07549 0.0
C272 C 0.58331 0.9364 0.10245 0.0
C273 C 0.58527 0.9874 0.09856 0.0
C274 C 0.45035 0.95856 0.02089 0.0
C275 C 0.40787 0.94494 0.99405 0.0
N276 N 0.40187 0.92443 0.01412 0.0
C277 C 0.44363 0.9375 0.04136 0.0
C278 C 0.43223 0.96246 0.99713 0.0
C279 C 0.41908 0.9204 0.0375 0.0
C280 C 0.49792 0.01909 0.10313 0.0
N281 N 0.49744 0.99314 0.08946 0.0
C282 C 0.48704 0.96882 0.1336 0.0
C283 C 0.49241 0.96828 0.10408 0.0
C284 C 0.48725 0.99521 0.1484 0.0
C285 C 0.49297 0.02061 0.13288 0.0
H286 H 0.50247 0.03849 0.09104 0.0
H287 H 0.49319 0.94789 0.09283 0.0
C288 C 0.53031 0.89824 0.00929 0.0
N289 N 0.50525 0.91231 0.00399 0.0
C290 C 0.53272 0.86885 0.00376 0.0
C291 C 0.48331 0.86847 0.98743 0.0
C292 C 0.48193 0.8981 0.99305 0.0
C293 C 0.50908 0.85356 0.99261 0.0
H294 H 0.54871 0.91 0.01745 0.0
H295 H 0.46251 0.90969 0.98796 0.0
C296 C 0.53139 0.04771 0.01617 0.0
N297 N 0.55195 0.09884 0.99349 0.0
C298 C 0.53724 0.0499 0.9867 0.0
C299 C 0.53606 0.07149 0.0341 0.0
C300 C 0.54757 0.07596 0.97565 0.0
C301 C 0.54648 0.09715 0.02222 0.0
C302 C 0.52359 0.95586 0.9582 0.0
C303 C 0.54874 0.94196 0.94943 0.0
C304 C 0.49728 0.9483 0.94553 0.0
C305 C 0.54709 0.92041 0.92844 0.0
C306 C 0.49653 0.92668 0.92457 0.0
N307 N 0.52123 0.91325 0.91657 0.0
C308 C 0.59957 0.96682 0.00709 0.0
C309 C 0.60175 0.01779 0.00938 0.0
C310 C 0.62914 0.96527 0.00257 0.0
N311 N 0.58636 0.99274 0.00977 0.0
C312 C 0.6316 0.01725 0.00496 0.0
C313 C 0.64553 0.9907 1.00098 0.0
H314 H 0.58696 0.94722 0.00826 0.0
H315 H 0.59105 0.03817 0.01233 0.0
C316 C 0.45261 0.04309 0.9836 0.0
N317 N 0.47306 0.02513 0.97287 0.0
C318 C 0.43473 0.05863 0.9649 0.0
C319 C 0.45961 0.03718 0.9246 0.0
C320 C 0.47723 0.02248 0.944 0.0
C321 C 0.43776 0.05522 0.93497 0.0
H322 H 0.44978 0.04486 0.00667 0.0
H323 H 0.494 0.00859 0.93595 0.0
O324 O 0.53603 0.95891 0.04343 0.0
O325 O 0.47404 0.97581 0.02448 0.0
O326 O 0.52122 0.02248 0.0276 0.0
O327 O 0.52461 0.97648 0.97932 0.0
H328 H 0.55571 0.91414 0.07235 0.0
H329 H 0.55938 0.00665 0.06538 0.0
H330 H 0.59023 0.91693 0.11318 0.0
H331 H 0.59372 0.00777 0.10625 0.0
H332 H 0.39373 0.94766 0.97572 0.0
H333 H 0.45733 0.93419 0.05989 0.0
H334 H 0.43688 0.97883 0.98121 0.0
H335 H 0.41373 0.9039 0.05308 0.0
H336 H 0.48334 0.9487 0.14485 0.0
H337 H 0.49335 0.04137 0.14357 0.0
H338 H 0.55292 0.85817 0.00829 0.0
H339 H 0.46472 0.8575 0.97844 0.0
H340 H 0.53415 0.03167 0.97252 0.0
H341 H 0.53176 0.07011 0.05697 0.0
H342 H 0.55221 0.07796 0.9529 0.0
H343 H 0.55022 0.11572 0.03585 0.0
H344 H 0.56934 0.94772 0.95866 0.0
H345 H 0.47758 0.95868 0.95215 0.0
H346 H 0.56638 0.90938 0.92158 0.0
H347 H 0.47627 0.92046 0.91479 0.0
H348 H 0.63909 0.94432 1.00034 0.0
H349 H 0.64351 0.03735 0.00401 0.0
H350 H 0.41805 0.07229 0.9737 0.0
H351 H 0.46288 0.03429 0.90168 0.0
Li352 Li 0.24712 0.7587 0.25682 0.0
Li353 Li 0.26008 0.70801 0.24491 0.0
Li354 Li 0.2962 0.74684 0.2455 0.0
Li355 Li 0.25976 0.74463 0.20702 0.0
C356 C 0.29399 0.73009 0.29817 0.0
N357 N 0.33987 0.7267 0.33592 0.0
C358 C 0.30857 0.70405 0.30176 0.0
C359 C 0.30261 0.75437 0.31384 0.0
C360 C 0.33174 0.70279 0.32095 0.0
C361 C 0.3259 0.75223 0.3328 0.0
C362 C 0.20327 0.71406 0.23238 0.0
C363 C 0.17517 0.67351 0.21561 0.0
N364 N 0.15582 0.6782 0.23706 0.0
C365 C 0.18307 0.71852 0.25423 0.0
C366 C 0.19925 0.69144 0.21284 0.0
C367 C 0.15923 0.70015 0.25623 0.0
C368 C 0.20134 0.79766 0.26335 0.0
N369 N 0.22115 0.78244 0.27854 0.0
C370 C 0.20156 0.79979 0.323 0.0
C371 C 0.22167 0.78322 0.30784 0.0
C372 C 0.18075 0.81579 0.30786 0.0
C373 C 0.18121 0.81479 0.27754 0.0
H374 H 0.20107 0.79632 0.24009 0.0
H375 H 0.23735 0.77056 0.31948 0.0
C376 C 0.27304 0.64878 0.24144 0.0
N377 N 0.2539 0.66786 0.25258 0.0
C378 C 0.26926 0.61918 0.24558 0.0
C379 C 0.22626 0.62932 0.2729 0.0
C380 C 0.23121 0.65875 0.26868 0.0
C381 C 0.2454 0.60895 0.26124 0.0
H382 H 0.29142 0.65655 0.22944 0.0
H383 H 0.21674 0.67429 0.27807 0.0
C384 C 0.2646 0.80659 0.23037 0.0
N385 N 0.24492 0.86259 0.2339 0.0
C386 C 0.24918 0.8186 0.20748 0.0
C387 C 0.2702 0.82311 0.25497 0.0
C388 C 0.23939 0.84694 0.20969 0.0
C389 C 0.25999 0.85136 0.25637 0.0
C390 C 0.29958 0.70702 0.19029 0.0
C391 C 0.3249 0.7184 0.17855 0.0
C392 C 0.28345 0.68696 0.17452 0.0
C393 C 0.33356 0.70961 0.15111 0.0
C394 C 0.29279 0.67879 0.14712 0.0
N395 N 0.31745 0.69019 0.13608 0.0
C396 C 0.35506 0.73236 0.24925 0.0
C397 C 0.34528 0.78156 0.25849 0.0
C398 C 0.38469 0.7375 0.25096 0.0
N399 N 0.33611 0.75439 0.25241 0.0
C400 C 0.37468 0.78761 0.26076 0.0
C401 C 0.39495 0.76559 0.25623 0.0
H402 H 0.34714 0.71094 0.24436 0.0
H403 H 0.32979 0.79868 0.26097 0.0
C404 C 0.22624 0.74168 0.15646 0.0
N405 N 0.25233 0.75001 0.16686 0.0
C406 C 0.22116 0.74108 0.12685 0.0
C407 C 0.26933 0.75938 0.11912 0.0
C408 C 0.2734 0.7598 0.14899 0.0
C409 C 0.24317 0.74912 0.10767 0.0
H410 H 0.20958 0.73475 0.17112 0.0
H411 H 0.29379 0.76683 0.15788 0.0
O412 O 0.27189 0.73199 0.27879 0.0
O413 O 0.22679 0.73179 0.2301 0.0
O414 O 0.2741 0.77878 0.22872 0.0
O415 O 0.29043 0.71576 0.2169 0.0
H416 H 0.30225 0.68512 0.28963 0.0
H417 H 0.29168 0.77474 0.31109 0.0
H418 H 0.34333 0.68282 0.32386 0.0
H419 H 0.33295 0.77088 0.34495 0.0
H420 H 0.17188 0.65584 0.20072 0.0
H421 H 0.18582 0.73581 0.26962 0.0
H422 H 0.21468 0.6876 0.19586 0.0
H423 H 0.14348 0.7033 0.27308 0.0
H424 H 0.20191 0.79943 0.34632 0.0
H425 H 0.16613 0.82708 0.26474 0.0
H426 H 0.28514 0.60458 0.23687 0.0
H427 H 0.2074 0.62273 0.28491 0.0
H428 H 0.24465 0.80611 0.18829 0.0
H429 H 0.28183 0.81406 0.27301 0.0
H430 H 0.22733 0.85649 0.1922 0.0
H431 H 0.26395 0.86432 0.27537 0.0
H432 H 0.33749 0.73419 0.19029 0.0
H433 H 0.26382 0.67796 0.18327 0.0
H434 H 0.35302 0.71836 0.14169 0.0
H435 H 0.28042 0.66342 0.13462 0.0
H436 H 0.39933 0.71985 0.24699 0.0
H437 H 0.38143 0.80947 0.26552 0.0
H438 H 0.20038 0.73379 0.11904 0.0
H439 H 0.28692 0.76576 0.10519 0.0
Li440 Li 0.5489 0.01042 0.4962 0.0
Li441 Li 0.5115 0.04866 0.50008 0.0
Li442 Li 0.50166 0.99837 0.50949 0.0
Li443 Li 0.51097 0.01238 0.4595 0.0
C444 C 0.51961 0.02004 0.55849 0.0
N445 N 0.50064 0.01045 0.61412 0.0
C446 C 0.5017 0.04003 0.57202 0.0
C447 C 0.52811 0.9953 0.5734 0.0
C448 C 0.49231 0.03478 0.60012 0.0
C449 C 0.51819 0.99078 0.60145 0.0
C450 C 0.54104 0.06228 0.44765 0.0
C451 C 0.51643 0.09658 0.41746 0.0
N452 N 0.54186 0.10326 0.40452 0.0
C453 C 0.56691 0.06943 0.43404 0.0
C454 C 0.51556 0.0759 0.4393 0.0
C455 C 0.56688 0.09023 0.41229 0.0
C456 C 0.60748 0.00509 0.47872 0.0
N457 N 0.58929 0.00524 0.50165 0.0
C458 C 0.62889 0.00309 0.53443 0.0
C459 C 0.59936 0.00392 0.5291 0.0
C460 C 0.64838 0.00413 0.51131 0.0
C461 C 0.63731 0.0045 0.48307 0.0
H462 H 0.59883 0.00632 0.4571 0.0
H463 H 0.58448 0.00429 0.54694 0.0
C464 C 0.48212 0.10051 0.51774 0.0
N465 N 0.50738 0.08872 0.50891 0.0
C466 C 0.48054 0.13003 0.5238 0.0
C467 C 0.5308 0.13468 0.5111 0.0
C468 C 0.53155 0.10509 0.50586 0.0
C469 C 0.50508 0.14749 0.52024 0.0
H470 H 0.4633 0.08703 0.52029 0.0
H471 H 0.55147 0.09511 0.49923 0.0
C472 C 0.54685 0.95828 0.47657 0.0
N473 N 0.59148 0.91976 0.46904 0.0
C474 C 0.55544 0.95032 0.44886 0.0
C475 C 0.56063 0.94619 0.50047 0.0
C476 C 0.57812 0.93092 0.44548 0.0
C477 C 0.58325 0.92691 0.49622 0.0
C478 C 0.45188 0.01359 0.48612 0.0
C479 C 0.44763 0.9855 0.47596 0.0
C480 C 0.42881 0.02863 0.49812 0.0
C481 C 0.42038 0.97283 0.47822 0.0
C482 C 0.40187 0.01522 0.49996 0.0
N483 N 0.39826 0.98783 0.49009 0.0
C484 C 0.45765 0.98285 0.55085 0.0
C485 C 0.48615 0.94433 0.53357 0.0
C486 C 0.44273 0.96417 0.56926 0.0
N487 N 0.47911 0.97274 0.53365 0.0
C488 C 0.47214 0.92503 0.55193 0.0
C489 C 0.45029 0.93492 0.57027 0.0
H490 H 0.45249 0.00554 0.55072 0.0
H491 H 0.50294 0.93665 0.51952 0.0
C492 C 0.5253 0.00693 0.40037 0.0
N493 N 0.50291 0.00914 0.4191 0.0
C494 C 0.52024 0.00487 0.37073 0.0
C495 C 0.46924 0.00857 0.38007 0.0
C496 C 0.47529 0.01058 0.40948 0.0
C497 C 0.49184 0.00535 0.36023 0.0
H498 H 0.54715 0.0067 0.4085 0.0
H499 H 0.45789 0.01356 0.42455 0.0
O500 O 0.52862 0.02464 0.53078 0.0
O501 O 0.54064 0.04164 0.46868 0.0
O502 O 0.52496 0.97761 0.48031 0.0
O503 O 0.47858 0.02609 0.48456 0.0
H504 H 0.49494 0.05929 0.5609 0.0
H505 H 0.54181 0.97949 0.56331 0.0
H506 H 0.47832 0.05 0.61078 0.0
H507 H 0.52437 0.97159 0.61311 0.0
H508 H 0.49689 0.10729 0.41077 0.0
H509 H 0.58679 0.059 0.44021 0.0
H510 H 0.4953 0.07048 0.44948 0.0
H511 H 0.58675 0.096 0.40155 0.0
H512 H 0.63637 1.00227 0.55653 0.0
H513 H 0.6515 0.00556 0.4646 0.0
H514 H 0.4603 0.13918 0.53076 0.0
H515 H 0.55025 0.14738 0.50845 0.0
H516 H 0.54461 0.95884 0.43013 0.0
H517 H 0.55422 0.95197 0.52208 0.0
H518 H 0.58505 0.92469 0.42413 0.0
H519 H 0.59429 0.91767 0.51454 0.0
H520 H 0.46528 0.97352 0.46666 0.0
H521 H 0.43164 0.05036 0.50604 0.0
H522 H 0.41684 0.95107 0.47059 0.0
H523 H 0.38385 0.02657 0.50929 0.0
H524 H 0.42612 0.97266 0.58322 0.0
H525 H 0.47837 0.90255 0.55184 0.0
H526 H 0.53835 1.00239 0.35627 0.0
H527 H 0.44706 0.00981 0.37292 0.0
Li528 Li 0.26008 0.24634 0.76087 0.0
Li529 Li 0.2506 0.29714 0.747 0.0
Li530 Li 0.21032 0.26004 0.747 0.0
Li531 Li 0.24782 0.26013 0.70996 0.0
C532 C 0.23387 0.2746 0.80905 0.0
N533 N 0.23358 0.27427 0.86859 0.0
C534 C 0.25109 0.29405 0.82442 0.0
C535 C 0.2163 0.25515 0.82395 0.0
C536 C 0.25069 0.2935 0.85452 0.0
C537 C 0.21652 0.25527 0.85405 0.0
C538 C 0.30702 0.28673 0.73657 0.0
C539 C 0.33944 0.32423 0.72066 0.0
N540 N 0.35726 0.31822 0.74313 0.0
C541 C 0.3257 0.28087 0.75946 0.0
C542 C 0.31397 0.30852 0.71693 0.0
C543 C 0.35099 0.29704 0.76241 0.0
C544 C 0.2943 0.19762 0.76866 0.0
N545 N 0.28279 0.21996 0.7836 0.0
C546 C 0.30321 0.20202 0.82752 0.0
C547 C 0.28727 0.22267 0.81248 0.0
C548 C 0.31501 0.1784 0.81273 0.0
C549 C 0.3106 0.17664 0.78276 0.0
H550 H 0.29069 0.19605 0.74567 0.0
H551 H 0.27846 0.24069 0.82407 0.0
C552 C 0.23772 0.3559 0.74389 0.0
N553 N 0.25801 0.33734 0.75384 0.0
C554 C 0.24134 0.38561 0.74711 0.0
C555 C 0.28658 0.37676 0.77119 0.0
C556 C 0.28193 0.34717 0.76773 0.0
C557 C 0.26614 0.3965 0.76076 0.0
H558 H 0.21854 0.34763 0.73352 0.0
H559 H 0.29747 0.33214 0.77615 0.0
C560 C 0.21911 0.2017 0.73827 0.0
N561 N 0.18971 0.15106 0.74948 0.0
C562 C 0.20736 0.18561 0.71562 0.0
C563 C 0.21615 0.19192 0.76658 0.0
C564 C 0.19249 0.1601 0.72174 0.0
C565 C 0.20116 0.1663 0.77182 0.0
C566 C 0.21157 0.30047 0.69205 0.0
C567 C 0.18519 0.29235 0.67992 0.0
C568 C 0.2303 0.31831 0.67658 0.0
C569 C 0.17815 0.30192 0.65226 0.0
C570 C 0.22251 0.32736 0.64895 0.0
N571 N 0.19682 0.31904 0.63746 0.0
C572 C 0.1588 0.27046 0.77655 0.0
C573 C 0.15342 0.23838 0.73714 0.0
C574 C 0.12939 0.26881 0.78245 0.0
N575 N 0.17024 0.25516 0.7544 0.0
C576 C 0.1238 0.23623 0.74215 0.0
C577 C 0.11144 0.25154 0.76513 0.0
H578 H 0.17249 0.28433 0.7894 0.0
H579 H 0.1629 0.22707 0.71916 0.0
C580 C 0.28048 0.26126 0.65885 0.0
N581 N 0.25453 0.25349 0.66992 0.0
C582 C 0.28459 0.26201 0.6291 0.0
C583 C 0.23579 0.24484 0.62263 0.0
C584 C 0.23263 0.24443 0.6526 0.0
C585 C 0.26178 0.25461 0.61055 0.0
H586 H 0.29766 0.26795 0.67308 0.0
H587 H 0.21218 0.23837 0.66199 0.0
O588 O 0.23396 0.27491 0.77958 0.0
O589 O 0.28224 0.27101 0.73325 0.0
O590 O 0.23343 0.22688 0.73265 0.0
O591 O 0.21916 0.29076 0.71882 0.0
H592 H 0.26477 0.30926 0.81325 0.0
H593 H 0.20257 0.24018 0.81243 0.0
H594 H 0.26401 0.30834 0.86669 0.0
H595 H 0.20309 0.24029 0.86586 0.0
H596 H 0.345 0.34124 0.70572 0.0
H597 H 0.32072 0.26412 0.77485 0.0
H598 H 0.29974 0.31345 0.69917 0.0
H599 H 0.3656 0.29279 0.78007 0.0
H600 H 0.30572 0.20431 0.85061 0.0
H601 H 0.31973 0.15929 0.77017 0.0
H602 H 0.2246 0.39983 0.73937 0.0
H603 H 0.30613 0.38403 0.7817 0.0
H604 H 0.20955 0.19285 0.69357 0.0
H605 H 0.22534 0.20396 0.7843 0.0
H606 H 0.18314 0.1475 0.70444 0.0
H607 H 0.19864 0.15851 0.79364 0.0
H608 H 0.17043 0.2786 0.69163 0.0
H609 H 0.25074 0.32486 0.68572 0.0
H610 H 0.15788 0.29567 0.64252 0.0
H611 H 0.23691 0.34097 0.63663 0.0
H612 H 0.12069 0.28145 0.80001 0.0
H613 H 0.11076 0.22264 0.72829 0.0
H614 H 0.30517 0.26912 0.62068 0.0
H615 H 0.21762 0.23909 0.60912 0.0
Li616 Li 0.99594 0.99568 0.95555 0.0
Li617 Li 0.00728 0.01133 0.00329 0.0
Li618 Li 0.99748 0.95787 0.99124 0.0
Li619 Li 0.95829 0.99486 0.99026 0.0
C620 C 0.053 0.98703 0.96217 0.0
N621 N 0.10016 0.99412 0.92668 0.0
C622 C 0.06129 0.01461 0.95328 0.0
C623 C 0.06879 0.96307 0.95325 0.0
C624 C 0.08516 0.01774 0.93525 0.0
C625 C 0.09256 0.96711 0.93525 0.0
C626 C 0.96809 0.05364 0.98872 0.0
C627 C 0.95374 0.07938 0.03155 0.0
N628 N 0.94594 0.10224 0.01501 0.0
C629 C 0.95999 0.07745 0.97217 0.0
C630 C 0.96496 0.05464 0.01866 0.0
C631 C 0.9488 0.10178 0.98585 0.0
C632 C 0.99106 0.02632 0.90355 0.0
N633 N 0.00345 0.00264 0.91536 0.0
C634 C 0.02258 0.98894 0.8695 0.0
C635 C 0.01886 0.98392 0.89897 0.0
C636 C 0.01007 0.01334 0.85669 0.0
C637 C 0.99404 0.03209 0.8742 0.0
H638 H 0.9783 0.04044 0.91685 0.0
H639 H 0.02784 0.96477 0.90862 0.0
C640 C 0.04371 0.02843 0.05062 0.0
N641 N 0.03114 0.037 0.02557 0.0
C642 C 0.06241 0.04706 0.0655 0.0
C643 C 0.05417 0.08309 0.02892 0.0
C644 C 0.03605 0.06373 0.01463 0.0
C645 C 0.06812 0.0748 0.05452 0.0
H646 H 0.03965 0.00695 0.05875 0.0
H647 H 0.02609 0.07 0.99453 0.0
C648 C 0.95691 0.96068 0.93491 0.0
N649 N 0.9367 0.95428 0.87921 0.0
C650 C 0.93571 0.97917 0.92428 0.0
C651 C 0.96787 0.93897 0.91718 0.0
C652 C 0.92576 0.97556 0.89608 0.0
C653 C 0.95736 0.93608 0.88909 0.0
C654 C 0.96638 0.97262 0.04639 0.0
C655 C 0.95197 0.94619 0.04435 0.0
C656 C 0.96447 0.98872 0.0718 0.0
C657 C 0.93537 0.93656 0.06753 0.0
C658 C 0.94767 0.97834 0.09453 0.0
N659 N 0.93356 0.95271 0.09192 0.0
C660 C 0.02453 0.91011 0.01981 0.0
C661 C 0.98802 0.89872 0.98586 0.0
C662 C 0.02786 0.88086 0.02651 0.0
N663 N 0.00482 0.91837 0.99977 0.0
C664 C 0.99089 0.86939 0.99157 0.0
C665 C 0.01091 0.86011 0.0122 0.0
H666 H 0.03734 0.92624 0.03084 0.0
H667 H 0.97183 0.90588 0.9708 0.0
C668 C 0.901 0.02067 0.99742 0.0
N669 N 0.91721 0.99632 0.99572 0.0
C670 C 0.87089 0.01887 0.99704 0.0
C671 C 0.8747 0.9671 0.99378 0.0
C672 C 0.90458 0.96988 0.99422 0.0
C673 C 0.85741 0.99182 0.9945 0.0
H674 H 0.91112 0.0416 0.99782 0.0
H675 H 0.91777 0.95088 0.9921 0.0
O676 O 0.02958 0.98348 0.9796 0.0
O677 O 0.97948 0.02983 0.97557 0.0
O678 O 0.96747 0.96441 0.96223 0.0
O679 O 0.98285 0.98238 0.02396 0.0
H680 H 0.04917 0.03333 0.9599 0.0
H681 H 0.06262 0.94159 0.96004 0.0
H682 H 0.09172 0.03893 0.92801 0.0
H683 H 0.10493 0.94877 0.92806 0.0
H684 H 0.95124 0.08038 0.0547 0.0
H685 H 0.96234 0.0772 0.949 0.0
H686 H 0.97115 0.0366 0.03182 0.0
H687 H 0.94243 0.12032 0.97328 0.0
H688 H 0.03522 0.97394 0.85695 0.0
H689 H 0.98339 0.05077 0.86526 0.0
H690 H 0.07283 0.03948 0.08494 0.0
H691 H 0.05723 0.10435 0.01982 0.0
H692 H 0.92734 0.99642 0.93749 0.0
H693 H 0.98473 0.92485 0.92478 0.0
H694 H 0.90944 0.98979 0.88755 0.0
H695 H 0.96577 0.9195 0.87508 0.0
H696 H 0.95345 0.93328 0.02503 0.0
H697 H 0.97598 0.00891 0.07409 0.0
H698 H 0.92396 0.91623 0.06613 0.0
H699 H 0.94593 0.99061 0.11427 0.0
H700 H 0.04355 0.87452 0.04257 0.0
H701 H 0.97699 0.85417 0.9805 0.0
H702 H 0.85836 0.03851 0.99731 0.0
H703 H 0.86525 0.94578 0.99213 0.0
Li704 Li 0.75033 0.25724 0.75778 0.0
Li705 Li 0.76109 0.20766 0.7461 0.0
Li706 Li 0.80023 0.2426 0.74661 0.0
Li707 Li 0.76287 0.2426 0.70674 0.0
C708 C 0.77903 0.23586 0.80771 0.0
N709 N 0.78592 0.24712 0.86581 0.0
C710 C 0.76245 0.22102 0.82802 0.0
C711 C 0.79935 0.25619 0.81698 0.0
C712 C 0.76617 0.22711 0.85728 0.0
C713 C 0.80246 0.26162 0.84644 0.0
C714 C 0.70343 0.21997 0.74011 0.0
C715 C 0.65653 0.19938 0.73097 0.0
N716 N 0.65202 0.19731 0.75986 0.0
C717 C 0.69836 0.21759 0.76968 0.0
C718 C 0.6824 0.21075 0.72055 0.0
C719 C 0.67223 0.20611 0.77925 0.0
C720 C 0.70119 0.29154 0.76415 0.0
N721 N 0.72551 0.28357 0.77837 0.0
C722 C 0.71253 0.31322 0.81861 0.0
C723 C 0.73143 0.29406 0.80515 0.0
C724 C 0.68719 0.32178 0.80444 0.0
C725 C 0.68163 0.31049 0.77684 0.0
H726 H 0.69694 0.28311 0.74282 0.0
H727 H 0.75094 0.288 0.81607 0.0
C728 C 0.7675 0.15622 0.77702 0.0
N729 N 0.75304 0.1682 0.7546 0.0
C730 C 0.76428 0.12695 0.78319 0.0
C731 C 0.73123 0.12282 0.74309 0.0
C732 C 0.73509 0.15224 0.7377 0.0
C733 C 0.74601 0.10977 0.76607 0.0
H734 H 0.78211 0.1693 0.78971 0.0
H735 H 0.72423 0.16221 0.71969 0.0
C736 C 0.79136 0.30149 0.73138 0.0
N737 N 0.81986 0.35382 0.73353 0.0
C738 C 0.80163 0.31415 0.70607 0.0
C739 C 0.7953 0.31554 0.75773 0.0
C740 C 0.81608 0.34059 0.70762 0.0
C741 C 0.80984 0.34196 0.75838 0.0
C742 C 0.79667 0.18578 0.70791 0.0
C743 C 0.81641 0.16864 0.72277 0.0
C744 C 0.78102 0.17413 0.68491 0.0
C745 C 0.81994 0.13991 0.71453 0.0
C746 C 0.78522 0.14531 0.6773 0.0
N747 N 0.80439 0.12893 0.69217 0.0
C748 C 0.85177 0.22894 0.77436 0.0
C749 C 0.8574 0.26513 0.73878 0.0
C750 C 0.88123 0.22952 0.7803 0.0
N751 N 0.84043 0.24679 0.75413 0.0
C752 C 0.88706 0.26638 0.74398 0.0
C753 C 0.89933 0.24842 0.76504 0.0
H754 H 0.8379 0.21399 0.78568 0.0
H755 H 0.84806 0.27848 0.72222 0.0
C756 C 0.73029 0.25314 0.65617 0.0
N757 N 0.75728 0.24983 0.66695 0.0
C758 C 0.72623 0.25827 0.62678 0.0
C759 C 0.77785 0.25665 0.62025 0.0
C760 C 0.78088 0.25141 0.64974 0.0
C761 C 0.75021 0.26018 0.60835 0.0
H762 H 0.71193 0.25174 0.67041 0.0
H763 H 0.80209 0.24872 0.65901 0.0
O764 O 0.77596 0.22979 0.779 0.0
O765 O 0.729 0.23088 0.7303 0.0
O766 O 0.77729 0.27558 0.73023 0.0
O767 O 0.79218 0.21364 0.71627 0.0
H768 H 0.74695 0.20488 0.82128 0.0
H769 H 0.81245 0.26784 0.80166 0.0
H770 H 0.75342 0.21585 0.87323 0.0
H771 H 0.81799 0.27741 0.85389 0.0
H772 H 0.64005 0.19215 0.7161 0.0
H773 H 0.71443 0.22454 0.78507 0.0
H774 H 0.68609 0.21224 0.69758 0.0
H775 H 0.66802 0.20417 0.80209 0.0
H776 H 0.71806 0.32167 0.83967 0.0
H777 H 0.66224 0.31605 0.76516 0.0
H778 H 0.77655 0.11775 0.80076 0.0
H779 H 0.71681 0.11047 0.72944 0.0
H780 H 0.79863 0.30358 0.68548 0.0
H781 H 0.78719 0.30621 0.77745 0.0
H782 H 0.82428 0.35059 0.68822 0.0
H783 H 0.81311 0.35306 0.77864 0.0
H784 H 0.82857 0.17735 0.74072 0.0
H785 H 0.76555 0.18711 0.67332 0.0
H786 H 0.83497 0.12631 0.72596 0.0
H787 H 0.77314 0.13593 0.65966 0.0
H788 H 0.88981 0.21486 0.79628 0.0
H789 H 0.9002 0.2813 0.73174 0.0
H790 H 0.70451 0.26039 0.61857 0.0
H791 H 0.79697 0.25832 0.60703 0.0
Li792 Li 0.01275 0.5499 0.9927 0.0
Li793 Li 0.04647 0.50763 0.98694 0.0
Li794 Li 0.00617 0.51447 0.95491 0.0
Li795 Li 0.99642 0.49914 0.00317 0.0
C796 C 0.04764 0.5475 0.93392 0.0
N797 N 0.06178 0.55993 0.87745 0.0
C798 C 0.06776 0.53062 0.91933 0.0
C799 C 0.03487 0.57085 0.91988 0.0
C800 C 0.07461 0.53724 0.89077 0.0
C801 C 0.04225 0.57673 0.8913 0.0
C802 C 0.03975 0.52727 0.04806 0.0
C803 C 0.05084 0.51279 0.09673 0.0
N804 N 0.06566 0.53784 0.1007 0.0
C805 C 0.05484 0.55299 0.05273 0.0
C806 C 0.0375 0.5071 0.07032 0.0
C807 C 0.0679 0.55788 0.07943 0.0
C808 C 0.99195 0.60005 0.02209 0.0
N809 N 0.01156 0.58963 0.00304 0.0
C810 C 0.03152 0.63669 0.99622 0.0
C811 C 0.03135 0.6072 0.99044 0.0
C812 C 0.01141 0.64822 0.01554 0.0
C813 C 0.9916 0.62949 0.02883 0.0
H814 H 0.97655 0.58553 0.03192 0.0
H815 H 0.0471 0.59828 0.97586 0.0
C816 C 0.09672 0.47412 0.97583 0.0
N817 N 0.08632 0.49748 0.9901 0.0
C818 C 0.12606 0.46762 0.97686 0.0
C819 C 0.13362 0.50957 0.00683 0.0
C820 C 0.10416 0.51527 0.00516 0.0
C821 C 0.14498 0.48549 0.9925 0.0
H822 H 0.08237 0.46084 0.96309 0.0
H823 H 0.09564 0.53423 0.01547 0.0
C824 C 0.94931 0.52042 0.97392 0.0
N825 N 0.89501 0.50026 0.95988 0.0
C826 C 0.94568 0.49238 0.96344 0.0
C827 C 0.92535 0.53821 0.97724 0.0
C828 C 0.91805 0.48258 0.95648 0.0
C829 C 0.89806 0.52762 0.97002 0.0
C830 C 0.02625 0.45101 0.98265 0.0
C831 C 0.0215 0.42661 0.9656 0.0
C832 C 0.03871 0.44801 0.0099 0.0
C833 C 0.02923 0.39953 0.97618 0.0
C834 C 0.04616 0.42058 0.01971 0.0
N835 N 0.04129 0.3971 0.00279 0.0
C836 C 0.00884 0.49343 0.89744 0.0
C837 C 0.97767 0.53312 0.90461 0.0
C838 C 0.00575 0.49576 0.86754 0.0
N839 N 0.99546 0.51247 0.91517 0.0
C840 C 0.97404 0.53628 0.87491 0.0
C841 C 0.98886 0.518 0.85593 0.0
H842 H 0.02324 0.47752 0.90645 0.0
H843 H 0.96764 0.54823 0.91918 0.0
C844 C 0.96267 0.49162 0.05276 0.0
N845 N 0.97238 0.47738 0.02914 0.0
C846 C 0.94622 0.47726 0.07352 0.0
C847 C 0.94949 0.43382 0.04509 0.0
C848 C 0.9656 0.44915 0.02467 0.0
C849 C 0.93981 0.44774 0.0702 0.0
H850 H 0.968 0.51417 0.05562 0.0
H851 H 0.97292 0.43832 0.00545 0.0
O852 O 0.04002 0.54081 0.9616 0.0
O853 O 0.02639 0.52232 0.0222 0.0
O854 O 0.97611 0.53055 0.98104 0.0
O855 O 0.01854 0.47758 0.97255 0.0
H856 H 0.07772 0.51239 0.9298 0.0
H857 H 0.019 0.58394 0.93076 0.0
H858 H 0.09001 0.52425 0.87915 0.0
H859 H 0.03231 0.59454 0.88007 0.0
H860 H 0.04934 0.49733 0.11411 0.0
H861 H 0.05671 0.56891 0.03581 0.0
H862 H 0.02549 0.48728 0.06733 0.0
H863 H 0.07981 0.57761 0.08326 0.0
H864 H 0.04744 0.65033 0.98589 0.0
H865 H 0.9757 0.6376 0.0438 0.0
H866 H 0.13391 0.44919 0.96494 0.0
H867 H 0.14731 0.52389 0.01925 0.0
H868 H 0.96394 0.47828 0.96067 0.0
H869 H 0.92784 0.55998 0.98534 0.0
H870 H 0.91492 0.46093 0.94837 0.0
H871 H 0.87931 0.54115 0.97248 0.0
H872 H 0.01185 0.4286 0.94444 0.0
H873 H 0.04281 0.46664 0.02321 0.0
H874 H 0.02563 0.38045 0.96323 0.0
H875 H 0.05585 0.41797 0.04076 0.0
H876 H 0.01777 0.4814 0.85369 0.0
H877 H 0.96057 0.55349 0.86688 0.0
H878 H 0.93867 0.48928 0.092 0.0
H879 H 0.94532 0.41113 0.04147 0.0
Li880 Li 0.75451 0.74806 0.25822 0.0
Li881 Li 0.74841 0.80004 0.24372 0.0
Li882 Li 0.70853 0.76721 0.24368 0.0
Li883 Li 0.74308 0.76219 0.20652 0.0
C884 C 0.71374 0.78025 0.30029 0.0
N885 N 0.67605 0.78291 0.34627 0.0
C886 C 0.69798 0.80532 0.30545 0.0
C887 C 0.71034 0.75654 0.31857 0.0
C888 C 0.67898 0.80621 0.32874 0.0
C889 C 0.69124 0.75833 0.34173 0.0
C890 C 0.80532 0.77666 0.2397 0.0
C891 C 0.85629 0.78149 0.23108 0.0
N892 N 0.86057 0.78636 0.25968 0.0
C893 C 0.81019 0.78177 0.269 0.0
C894 C 0.82851 0.7765 0.22056 0.0
C895 C 0.8383 0.78659 0.27868 0.0
C896 C 0.79003 0.69998 0.26549 0.0
N897 N 0.77719 0.72147 0.28056 0.0
C898 C 0.7981 0.70417 0.3245 0.0
C899 C 0.78135 0.72423 0.30947 0.0
C900 C 0.81143 0.68138 0.3096 0.0
C901 C 0.80743 0.67985 0.27951 0.0
H902 H 0.78694 0.69865 0.24241 0.0
H903 H 0.77177 0.74205 0.32093 0.0
C904 C 0.73661 0.85842 0.25161 0.0
N905 N 0.75908 0.8399 0.24889 0.0
C906 C 0.74139 0.88809 0.2537 0.0
C907 C 0.79244 0.87939 0.24968 0.0
C908 C 0.78665 0.84986 0.24753 0.0
C909 C 0.76964 0.89896 0.25283 0.0
H910 H 0.71482 0.85016 0.25151 0.0
H911 H 0.80422 0.83517 0.24414 0.0
C912 C 0.7037 0.71281 0.2328 0.0
N913 N 0.65565 0.67802 0.23831 0.0
C914 C 0.68396 0.71055 0.21014 0.0
C915 C 0.69922 0.69719 0.25813 0.0
C916 C 0.65973 0.69291 0.21339 0.0
C917 C 0.67474 0.67975 0.26052 0.0
C918 C 0.72347 0.81654 0.19337 0.0
C919 C 0.70127 0.8348 0.18454 0.0
C920 C 0.75104 0.82009 0.18173 0.0
C921 C 0.70693 0.85608 0.164 0.0
C922 C 0.75581 0.84161 0.16123 0.0
N923 N 0.73385 0.859 0.15286 0.0
C924 C 0.65196 0.75484 0.27047 0.0
C925 C 0.65299 0.7773 0.22474 0.0
C926 C 0.62189 0.75714 0.27143 0.0
N927 N 0.66697 0.76582 0.24775 0.0
C928 C 0.62313 0.77987 0.2247 0.0
C929 C 0.60715 0.77048 0.24859 0.0
H930 H 0.66313 0.74442 0.28791 0.0
H931 H 0.66506 0.78453 0.20625 0.0
C932 C 0.77327 0.74159 0.15712 0.0
N933 N 0.74814 0.75286 0.16688 0.0
C934 C 0.77666 0.73534 0.12783 0.0
C935 C 0.7283 0.75248 0.11931 0.0
C936 C 0.72577 0.75817 0.14873 0.0
C937 C 0.75401 0.74092 0.10849 0.0
H938 H 0.79066 0.73753 0.17208 0.0
H939 H 0.70594 0.76694 0.15716 0.0
O940 O 0.73288 0.77918 0.27791 0.0
O941 O 0.77805 0.77158 0.22973 0.0
O942 O 0.72711 0.73057 0.23036 0.0
O943 O 0.71825 0.79599 0.21395 0.0
H944 H 0.70034 0.82389 0.29166 0.0
H945 H 0.72182 0.73673 0.31463 0.0
H946 H 0.66659 0.82546 0.33291 0.0
H947 H 0.68831 0.74008 0.35595 0.0
H948 H 0.87446 0.78148 0.21651 0.0
H949 H 0.79243 0.78228 0.28404 0.0
H950 H 0.82506 0.77265 0.1978 0.0
H951 H 0.8424 0.79059 0.30129 0.0
H952 H 0.80022 0.70643 0.34762 0.0
H953 H 0.81785 0.66346 0.26668 0.0
H954 H 0.72313 0.90232 0.25615 0.0
H955 H 0.81452 0.88685 0.24826 0.0
H956 H 0.68715 0.72259 0.19042 0.0
H957 H 0.71438 0.69871 0.27581 0.0
H958 H 0.64412 0.69112 0.19614 0.0
H959 H 0.67087 0.66765 0.28006 0.0
H960 H 0.67992 0.83276 0.19361 0.0
H961 H 0.76865 0.80651 0.18842 0.0
H962 H 0.68993 0.87033 0.15699 0.0
H963 H 0.77702 0.84453 0.15204 0.0
H964 H 0.61044 0.74925 0.29016 0.0
H965 H 0.61268 0.78927 0.20609 0.0
H966 H 0.79692 0.72663 0.12034 0.0
H967 H 0.71017 0.75673 0.10525 0.0
Li968 Li 0.01468 0.49938 0.54547 0.0
Li969 Li 0.01518 0.46137 0.50595 0.0
Li970 Li 0.04954 0.49932 0.50752 0.0
Li971 Li 1.00177 0.51167 0.4927 0.0
C972 C 0.0702 0.46138 0.54505 0.0
N973 N 0.12591 0.44676 0.56 0.0
C974 C 0.08561 0.44169 0.52833 0.0
C975 C 0.08312 0.47352 0.56948 0.0
C976 C 0.11377 0.43466 0.53618 0.0
C977 C 0.11129 0.46583 0.57669 0.0
C978 C 0.95732 0.4723 0.52979 0.0
C979 C 0.90703 0.46067 0.5234 0.0
N980 N 0.90703 0.44699 0.54932 0.0
C981 C 0.95678 0.45827 0.55642 0.0
C982 C 0.93221 0.47367 0.51319 0.0
C983 C 0.93117 0.44555 0.56589 0.0
C984 C 0.99316 0.53095 0.59348 0.0
N985 N 0.00662 0.50637 0.58519 0.0
C986 C 0.0115 0.4914 0.63425 0.0
C987 C 0.01536 0.48652 0.60483 0.0
C988 C 0.99808 0.51682 0.6437 0.0
C989 C 0.9885 0.53657 0.62274 0.0
H990 H 0.98627 0.5463 0.57737 0.0
H991 H 0.02573 0.46698 0.59764 0.0
C992 C 0.02896 0.40999 0.47788 0.0
N993 N 0.01031 0.42102 0.49753 0.0
C994 C 0.02881 0.3806 0.4715 0.0
C995 C 0.98983 0.37422 0.50529 0.0
C996 C 0.99084 0.40381 0.51112 0.0
C997 C 0.00918 0.36217 0.4854 0.0
H998 H 0.04448 0.42399 0.46755 0.0
H999 H 0.97633 0.41279 0.52679 0.0
C1000 C 0.04563 0.55482 0.51916 0.0
N1001 N 0.08555 0.59886 0.51495 0.0
C1002 C 0.05402 0.565 0.49211 0.0
C1003 C 0.05723 0.56719 0.54409 0.0
C1004 C 0.07434 0.58723 0.49043 0.0
C1005 C 0.07746 0.58942 0.54149 0.0
C1006 C 0.0156 0.47525 0.4482 0.0
C1007 C 0.0301 0.47561 0.42182 0.0
C1008 C 0.98727 0.46499 0.44934 0.0
C1009 C 0.01601 0.46574 0.39706 0.0
C1010 C 0.97392 0.4553 0.42412 0.0
N1011 N 0.98845 0.45587 0.39871 0.0
C1012 C 0.10017 0.49539 0.47505 0.0
C1013 C 0.10815 0.51679 0.5207 0.0
C1014 C 0.12973 0.49425 0.46995 0.0
N1015 N 0.08996 0.50589 0.50035 0.0
C1016 C 0.13798 0.51569 0.51668 0.0
C1017 C 0.14918 0.50348 0.49134 0.0
H1018 H 0.08541 0.4866 0.45934 0.0
H1019 H 0.09966 0.5247 0.54085 0.0
C1020 C 0.9518 0.54491 0.47863 0.0
N1021 N 0.97735 0.53486 0.46847 0.0
C1022 C 0.93303 0.55993 0.46037 0.0
C1023 C 0.96736 0.5543 0.42175 0.0
C1024 C 0.98569 0.54001 0.44084 0.0
C1025 C 0.94056 0.56418 0.43141 0.0
H1026 H 0.94573 0.54073 0.50073 0.0
H1027 H 0.00638 0.53253 0.4334 0.0
O1028 O 0.04274 0.46888 0.53742 0.0
O1029 O 0.98203 0.48538 0.52036 0.0
O1030 O 0.02599 0.53294 0.52124 0.0
O1031 O 0.0292 0.48502 0.4726 0.0
H1032 H 0.07609 0.43224 0.50928 0.0
H1033 H 0.07182 0.48922 0.58238 0.0
H1034 H 0.126 0.41963 0.52329 0.0
H1035 H 0.1216 0.47522 0.59541 0.0
H1036 H 0.88746 0.4615 0.51075 0.0
H1037 H 0.97603 0.45675 0.5694 0.0
H1038 H 0.93214 0.48466 0.49263 0.0
H1039 H 0.93051 0.43445 0.58637 0.0
H1040 H 0.01966 0.47567 0.64939 0.0
H1041 H 0.97755 0.5562 0.6288 0.0
H1042 H 0.0445 0.37234 0.45641 0.0
H1043 H 0.97407 0.36097 0.5163 0.0
H1044 H 0.04515 0.55561 0.47265 0.0
H1045 H 0.05085 0.55953 0.56517 0.0
H1046 H 0.08122 0.59521 0.46965 0.0
H1047 H 0.08678 0.59911 0.56058 0.0
H1048 H 0.05196 0.4836 0.42038 0.0
H1049 H 0.97571 0.46433 0.46944 0.0
H1050 H 0.02698 0.46596 0.37651 0.0
H1051 H 0.95202 0.44729 0.42477 0.0
H1052 H 0.13723 0.48532 0.44977 0.0
H1053 H 0.15202 0.52284 0.53393 0.0
H1054 H 0.91244 0.5672 0.46849 0.0
H1055 H 0.97393 0.55738 0.39957 0.0
Li1056 Li 0.49211 0.54349 0.00765 0.0
Li1057 Li 0.45553 0.50527 0.00825 0.0
Li1058 Li 0.49609 0.50721 0.04492 0.0
Li1059 Li 0.50568 0.49293 0.99437 0.0
C1060 C 0.45499 0.56114 0.0469 0.0
N1061 N 0.43778 0.61582 0.0627 0.0
C1062 C 0.4282 0.57155 0.03809 0.0
C1063 C 0.4729 0.57838 0.06402 0.0
C1064 C 0.41991 0.59929 0.04625 0.0
C1065 C 0.46385 0.60602 0.07169 0.0
C1066 C 0.4655 0.51292 0.94916 0.0
C1067 C 0.44989 0.47758 0.9143 0.0
N1068 N 0.43973 0.4991 0.89723 0.0
C1069 C 0.45509 0.53471 0.93121 0.0
C1070 C 0.46302 0.48415 0.94061 0.0
C1071 C 0.44205 0.52728 0.90507 0.0
C1072 C 0.52391 0.59551 0.00426 0.0
N1073 N 0.49776 0.58332 0.99905 0.0
C1074 C 0.47875 0.62867 0.98382 0.0
C1075 C 0.47544 0.59911 0.98865 0.0
C1076 C 0.50547 0.64192 0.98927 0.0
C1077 C 0.52827 0.62491 0.99947 0.0
H1078 H 0.54135 0.58245 0.01232 0.0
H1079 H 0.45494 0.58878 0.98443 0.0
C1080 C 0.40389 0.4761 0.02055 0.0
N1081 N 0.41568 0.49669 0.00336 0.0
C1082 C 0.37453 0.46973 0.01878 0.0
C1083 C 0.36982 0.50623 0.98196 0.0
C1084 C 0.39932 0.51183 0.9844 0.0
C1085 C 0.35703 0.48493 0.99933 0.0
H1086 H 0.41727 0.46486 0.03594 0.0
H1087 H 0.40906 0.52862 0.97152 0.0
C1088 C 0.55191 0.51966 0.03425 0.0
N1089 N 0.60198 0.51576 0.06623 0.0
C1090 C 0.57144 0.49744 0.02894 0.0
C1091 C 0.55793 0.54001 0.05568 0.0
C1092 C 0.59662 0.49583 0.04536 0.0
C1093 C 0.58333 0.53762 0.07167 0.0
C1094 C 0.47987 0.44422 0.02299 0.0
C1095 C 0.49785 0.42884 0.04157 0.0
C1096 C 0.46124 0.4293 0.00451 0.0
C1097 C 0.49717 0.39874 0.04108 0.0
C1098 C 0.4612 0.39919 0.00466 0.0
N1099 N 0.47903 0.38466 0.02277 0.0
C1100 C 0.4851 0.51144 0.10421 0.0
C1101 C 0.52798 0.48603 0.09396 0.0
C1102 C 0.48934 0.50774 0.13378 0.0
N1103 N 0.50437 0.50079 0.08496 0.0
C1104 C 0.53318 0.48198 0.12335 0.0
C1105 C 0.51368 0.49286 0.14377 0.0
H1106 H 0.46619 0.52261 0.09661 0.0
H1107 H 0.5428 0.47728 0.07838 0.0
C1108 C 0.54083 0.48634 0.94617 0.0
N1109 N 0.52898 0.47088 0.96804 0.0
C1110 C 0.55761 0.47279 0.92522 0.0
C1111 C 0.55002 0.42751 0.9497 0.0
C1112 C 0.53349 0.44199 0.97028 0.0
C1113 C 0.56223 0.44287 0.9266 0.0
H1114 H 0.53711 0.50931 0.94496 0.0
H1115 H 0.52421 0.42999 0.98782 0.0
O1116 O 0.46374 0.53427 0.03866 0.0
O1117 O 0.47811 0.51987 0.9749 0.0
O1118 O 0.52718 0.52162 0.01836 0.0
O1119 O 0.48019 0.47371 0.02329 0.0
H1120 H 0.41407 0.55845 0.02489 0.0
H1121 H 0.49364 0.57057 0.07111 0.0
H1122 H 0.3993 0.60771 0.03945 0.0
H1123 H 0.47757 0.61968 0.08476 0.0
H1124 H 0.44779 0.45539 0.90743 0.0
H1125 H 0.45694 0.55712 0.9375 0.0
H1126 H 0.47126 0.46707 0.95406 0.0
H1127 H 0.43377 0.5439 0.89102 0.0
H1128 H 0.46073 0.64096 0.97564 0.0
H1129 H 0.54914 0.63431 0.00418 0.0
H1130 H 0.36552 0.45354 0.03299 0.0
H1131 H 0.3572 0.5184 0.9666 0.0
H1132 H 0.56715 0.48152 0.01243 0.0
H1133 H 0.54307 0.55734 0.06008 0.0
H1134 H 0.61188 0.4787 0.04156 0.0
H1135 H 0.58819 0.55312 0.08843 0.0
H1136 H 0.51234 0.44 0.05604 0.0
H1137 H 0.44686 0.4408 0.99027 0.0
H1138 H 0.51108 0.38656 0.05524 0.0
H1139 H 0.44695 0.38738 0.99041 0.0
H1140 H 0.47337 0.51599 0.14859 0.0
H1141 H 0.55238 0.47059 0.12995 0.0
H1142 H 0.56697 0.48572 0.9082 0.0
H1143 H 0.55269 0.40442 0.9516 0.0
Li1144 Li 0.75917 0.79862 0.76388 0.0
Li1145 Li 0.76171 0.75851 0.79825 0.0
Li1146 Li 0.7991 0.76577 0.75899 0.0
Li1147 Li 0.75001 0.74873 0.74681 0.0
C1148 C 0.79347 0.81693 0.80478 0.0
N1149 N 0.79938 0.8714 0.82826 0.0
C1150 C 0.77957 0.82385 0.83056 0.0
C1151 C 0.81056 0.83765 0.79107 0.0
C1152 C 0.78281 0.85152 0.84206 0.0
C1153 C 0.81322 0.86509 0.80324 0.0
C1154 C 0.70293 0.75865 0.78496 0.0
C1155 C 0.67637 0.71544 0.79661 0.0
N1156 N 0.65304 0.73175 0.80329 0.0
C1157 C 0.67868 0.77498 0.79182 0.0
C1158 C 0.70178 0.72865 0.78729 0.0
C1159 C 0.65366 0.76098 0.8011 0.0
C1160 C 0.76126 0.85653 0.74289 0.0
N1161 N 0.74843 0.83833 0.76194 0.0
C1162 C 0.72597 0.87787 0.78591 0.0
C1163 C 0.73047 0.84831 0.78272 0.0
C1164 C 0.74029 0.89743 0.76767 0.0
C1165 C 0.75755 0.88632 0.74542 0.0
H1166 H 0.77556 0.84808 0.72668 0.0
H1167 H 0.72078 0.83336 0.79776 0.0
C1168 C 0.78059 0.73374 0.8495 0.0
N1169 N 0.75773 0.74752 0.83758 0.0
C1170 C 0.7809 0.72734 0.87889 0.0
C1171 C 0.73398 0.74925 0.88324 0.0
C1172 C 0.73459 0.75525 0.85372 0.0
C1173 C 0.75749 0.73534 0.89629 0.0
H1174 H 0.79893 0.72837 0.83623 0.0
H1175 H 0.71696 0.76678 0.8439 0.0
C1176 C 0.79035 0.77996 0.70427 0.0
N1177 N 0.82621 0.77935 0.65682 0.0
C1178 C 0.7872 0.75858 0.68325 0.0
C1179 C 0.81168 0.80108 0.70113 0.0
C1180 C 0.80555 0.75865 0.65941 0.0
C1181 C 0.82963 0.80038 0.677 0.0
C1182 C 0.78357 0.70077 0.77011 0.0
C1183 C 0.80106 0.68931 0.74852 0.0
C1184 C 0.77103 0.68237 0.79043 0.0
C1185 C 0.8054 0.65955 0.74734 0.0
C1186 C 0.77589 0.65273 0.78853 0.0
N1187 N 0.79282 0.64203 0.7672 0.0
C1188 C 0.85652 0.77793 0.77203 0.0
C1189 C 0.85233 0.75052 0.72913 0.0
C1190 C 0.88618 0.78055 0.76826 0.0
N1191 N 0.84006 0.76379 0.75224 0.0
C1192 C 0.88215 0.75215 0.7248 0.0
C1193 C 0.89922 0.76785 0.74425 0.0
H1194 H 0.84658 0.78768 0.79062 0.0
H1195 H 0.83902 0.73944 0.71355 0.0
C1196 C 0.70164 0.74025 0.71211 0.0
N1197 N 0.72567 0.72635 0.72131 0.0
C1198 C 0.68243 0.72682 0.69314 0.0
C1199 C 0.71285 0.68478 0.69326 0.0
C1200 C 0.73144 0.69901 0.71243 0.0
C1201 C 0.68801 0.69877 0.68311 0.0
H1202 H 0.69745 0.76195 0.7195 0.0
H1203 H 0.75061 0.68828 0.71976 0.0
O1204 O 0.78984 0.79022 0.79271 0.0
O1205 O 0.72761 0.77209 0.77601 0.0
O1206 O 0.77256 0.78026 0.72773 0.0
O1207 O 0.77943 0.72991 0.7719 0.0
H1208 H 0.76616 0.80815 0.8414 0.0
H1209 H 0.82126 0.83275 0.77096 0.0
H1210 H 0.77203 0.85722 0.8619 0.0
H1211 H 0.82616 0.88141 0.79272 0.0
H1212 H 0.67519 0.69223 0.79849 0.0
H1213 H 0.67919 0.79824 0.79004 0.0
H1214 H 0.72022 0.71572 0.78177 0.0
H1215 H 0.63474 0.77335 0.80655 0.0
H1216 H 0.71204 0.88533 0.80302 0.0
H1217 H 0.76926 0.90046 0.73101 0.0
H1218 H 0.79971 0.71708 0.88801 0.0
H1219 H 0.7154 0.75564 0.89574 0.0
H1220 H 0.77083 0.74208 0.68531 0.0
H1221 H 0.81476 0.8175 0.7174 0.0
H1222 H 0.8034 0.74221 0.643 0.0
H1223 H 0.84637 0.81645 0.67441 0.0
H1224 H 0.81074 0.70315 0.73254 0.0
H1225 H 0.75775 0.69084 0.80756 0.0
H1226 H 0.81871 0.65038 0.7306 0.0
H1227 H 0.76625 0.63825 0.80406 0.0
H1228 H 0.89882 0.79259 0.78383 0.0
H1229 H 0.89161 0.74217 0.70597 0.0
H1230 H 0.66334 0.73836 0.68644 0.0
H1231 H 0.7183 0.66332 0.68594 0.0
Li1232 Li 0.75937 0.26128 0.24797 0.0
Li1233 Li 0.70937 0.24506 0.26087 0.0
Li1234 Li 0.7468 0.24759 0.29662 0.0
Li1235 Li 0.7486 0.20967 0.26107 0.0
C1236 C 0.72972 0.30075 0.29436 0.0
N1237 N 0.72817 0.34107 0.3382 0.0
C1238 C 0.7034 0.30905 0.30624 0.0
C1239 C 0.75523 0.31327 0.30452 0.0
C1240 C 0.70307 0.32939 0.32846 0.0
C1241 C 0.75401 0.33353 0.32676 0.0
C1242 C 0.72354 0.24337 0.20186 0.0
C1243 C 0.70806 0.23738 0.15258 0.0
N1244 N 0.70355 0.26627 0.15069 0.0
C1245 C 0.7187 0.273 0.19946 0.0
C1246 C 0.71819 0.2254 0.17826 0.0
C1247 C 0.70863 0.28416 0.17339 0.0
C1248 C 0.8008 0.27604 0.20434 0.0
N1249 N 0.78225 0.28666 0.22436 0.0
C1250 C 0.79786 0.33484 0.21439 0.0
C1251 C 0.7801 0.31549 0.22913 0.0
C1252 C 0.81778 0.32453 0.19417 0.0
C1253 C 0.81874 0.29474 0.18874 0.0
H1254 H 0.80205 0.25301 0.20091 0.0
H1255 H 0.76488 0.32349 0.24473 0.0
C1256 C 0.65496 0.24935 0.28322 0.0
N1257 N 0.66838 0.24973 0.25724 0.0
C1258 C 0.62526 0.25277 0.28512 0.0
C1259 C 0.62317 0.25661 0.23328 0.0
C1260 C 0.65311 0.25283 0.23237 0.0
C1261 C 0.60889 0.25696 0.26001 0.0
H1262 H 0.66746 0.24653 0.30266 0.0
H1263 H 0.66395 0.25253 0.21183 0.0
C1264 C 0.80571 0.23836 0.28906 0.0
N1265 N 0.85646 0.24488 0.31963 0.0
C1266 C 0.81529 0.21638 0.30726 0.0
C1267 C 0.82214 0.26351 0.28617 0.0
C1268 C 0.84095 0.22013 0.32261 0.0
C1269 C 0.84768 0.26644 0.30187 0.0
C1270 C 0.69976 0.1939 0.29005 0.0
C1271 C 0.69067 0.18128 0.31582 0.0
C1272 C 0.6891 0.18349 0.2638 0.0
C1273 C 0.67097 0.15845 0.31493 0.0
C1274 C 0.66944 0.16062 0.26383 0.0
N1275 N 0.66085 0.14868 0.28918 0.0
C1276 C 0.72443 0.25275 0.35106 0.0
C1277 C 0.77462 0.26204 0.35219 0.0
C1278 C 0.72232 0.25777 0.38058 0.0
N1279 N 0.75023 0.25493 0.33741 0.0
C1280 C 0.77357 0.26677 0.38197 0.0
C1281 C 0.7471 0.26478 0.39644 0.0
H1282 H 0.70533 0.24733 0.33887 0.0
H1283 H 0.79481 0.26449 0.34104 0.0
C1284 C 0.75752 0.15546 0.23132 0.0
N1285 N 0.75756 0.16985 0.25688 0.0
C1286 C 0.76307 0.12577 0.23065 0.0
C1287 C 0.76854 0.12659 0.28245 0.0
C1288 C 0.76258 0.15599 0.28216 0.0
C1289 C 0.76892 0.11108 0.25649 0.0
H1290 H 0.75297 0.16695 0.21157 0.0
H1291 H 0.76152 0.1678 0.30222 0.0
O1292 O 0.73057 0.28023 0.27316 0.0
O1293 O 0.73372 0.23188 0.22701 0.0
O1294 O 0.78087 0.23491 0.27352 0.0
O1295 O 0.7191 0.21623 0.29067 0.0
H1296 H 0.68342 0.29991 0.29844 0.0
H1297 H 0.77581 0.30704 0.29567 0.0
H1298 H 0.68284 0.33588 0.33795 0.0
H1299 H 0.77362 0.34315 0.33502 0.0
H1300 H 0.7038 0.22372 0.13415 0.0
H1301 H 0.7224 0.28724 0.21754 0.0
H1302 H 0.72182 0.20241 0.1798 0.0
H1303 H 0.70476 0.30703 0.17124 0.0
H1304 H 0.79617 0.35767 0.21893 0.0
H1305 H 0.83389 0.28595 0.17338 0.0
H1306 H 0.61527 0.25204 0.30617 0.0
H1307 H 0.61146 0.25975 0.21334 0.0
H1308 H 0.80302 0.1967 0.30964 0.0
H1309 H 0.8153 0.28064 0.272 0.0
H1310 H 0.84852 0.20336 0.33688 0.0
H1311 H 0.86053 0.28584 0.29992 0.0
H1312 H 0.69877 0.18906 0.3363 0.0
H1313 H 0.6959 0.19293 0.24362 0.0
H1314 H 0.66373 0.14849 0.33472 0.0
H1315 H 0.66101 0.15236 0.2437 0.0
H1316 H 0.70153 0.25586 0.39098 0.0
H1317 H 0.7931 0.27246 0.39348 0.0
H1318 H 0.76311 0.11452 0.21019 0.0
H1319 H 0.77231 0.11598 0.30289 0.0
Li1320 Li 0.51125 0.50825 0.50557 0.0
Li1321 Li 0.50158 0.49108 0.45508 0.0
Li1322 Li 0.46247 0.49379 0.48999 0.0
Li1323 Li 0.49971 0.45683 0.49399 0.0
C1324 C 0.47492 0.55261 0.47929 0.0
N1325 N 0.45157 0.60653 0.4884 0.0
C1326 C 0.46684 0.56971 0.45588 0.0
C1327 C 0.47127 0.56299 0.50731 0.0
C1328 C 0.45501 0.59689 0.46093 0.0
C1329 C 0.45942 0.59029 0.51148 0.0
C1330 C 0.55484 0.46128 0.48848 0.0
C1331 C 0.58096 0.4174 0.47936 0.0
N1332 N 0.59589 0.42136 0.5043 0.0
C1333 C 0.57045 0.46494 0.514 0.0
C1334 C 0.56015 0.43737 0.47095 0.0
C1335 C 0.59113 0.44452 0.52162 0.0
C1336 C 0.53537 0.53303 0.55724 0.0
N1337 N 0.53387 0.53466 0.528 0.0
C1338 C 0.56455 0.57618 0.52793 0.0
C1339 C 0.54819 0.55552 0.51325 0.0
C1340 C 0.56622 0.57549 0.5582 0.0
C1341 C 0.55155 0.55331 0.57285 0.0
H1342 H 0.52382 0.51615 0.56844 0.0
H1343 H 0.54671 0.5562 0.48999 0.0
C1344 C 0.49127 0.5078 0.39721 0.0
N1345 N 0.51108 0.49601 0.41526 0.0
C1346 C 0.49531 0.50679 0.36739 0.0
C1347 C 0.54094 0.48324 0.37541 0.0
C1348 C 0.53597 0.48463 0.40505 0.0
C1349 C 0.52007 0.49365 0.35609 0.0
H1350 H 0.47154 0.5165 0.40591 0.0
H1351 H 0.55147 0.47561 0.41985 0.0
C1352 C 0.46495 0.47681 0.54682 0.0
N1353 N 0.42512 0.46683 0.58993 0.0
C1354 C 0.45269 0.44944 0.5502 0.0
C1355 C 0.45723 0.49898 0.56566 0.0
C1356 C 0.43251 0.44486 0.57203 0.0
C1357 C 0.43699 0.49354 0.58724 0.0
C1358 C 0.4619 0.4556 0.43588 0.0
C1359 C 0.43599 0.46693 0.42558 0.0
C1360 C 0.47863 0.43833 0.41776 0.0
C1361 C 0.42721 0.46071 0.39743 0.0
C1362 C 0.46916 0.4327 0.38972 0.0
N1363 N 0.44385 0.44389 0.38023 0.0
C1364 C 0.40597 0.52233 0.49068 0.0
C1365 C 0.4082 0.47193 0.49825 0.0
C1366 C 0.37579 0.52122 0.49026 0.0
N1367 N 0.42151 0.49776 0.49428 0.0
C1368 C 0.37829 0.46988 0.49832 0.0
C1369 C 0.36158 0.49457 0.49345 0.0
H1370 H 0.41676 0.5426 0.48692 0.0
H1371 H 0.42093 0.45258 0.5001 0.0
C1372 C 0.51728 0.40945 0.53008 0.0
N1373 N 0.50549 0.41723 0.50438 0.0
C1374 C 0.51933 0.38026 0.53756 0.0
C1375 C 0.49771 0.36784 0.49179 0.0
C1376 C 0.49568 0.39709 0.48545 0.0
C1377 C 0.50943 0.35908 0.51822 0.0
H1378 H 0.52456 0.4259 0.54496 0.0
H1379 H 0.48563 0.4037 0.46563 0.0
O1380 O 0.48655 0.52598 0.47467 0.0
O1381 O 0.53401 0.48066 0.48103 0.0
O1382 O 0.48476 0.48171 0.52554 0.0
O1383 O 0.4711 0.46178 0.4633 0.0
H1384 H 0.46963 0.56206 0.43404 0.0
H1385 H 0.47746 0.55009 0.52561 0.0
H1386 H 0.44858 0.61032 0.44302 0.0
H1387 H 0.45643 0.59855 0.53307 0.0
H1388 H 0.58514 0.39868 0.46612 0.0
H1389 H 0.56652 0.48324 0.52787 0.0
H1390 H 0.54797 0.43397 0.45134 0.0
H1391 H 0.60332 0.44703 0.54135 0.0
H1392 H 0.57585 0.59249 0.51563 0.0
H1393 H 0.55201 0.55203 0.59614 0.0
H1394 H 0.47851 0.51485 0.35338 0.0
H1395 H 0.5606 0.47346 0.36769 0.0
H1396 H 0.45834 0.43199 0.53587 0.0
H1397 H 0.46682 0.52015 0.5638 0.0
H1398 H 0.42269 0.42385 0.57471 0.0
H1399 H 0.43076 0.51054 0.6019 0.0
H1400 H 0.42288 0.48067 0.43896 0.0
H1401 H 0.4991 0.42993 0.42499 0.0
H1402 H 0.40725 0.4694 0.38921 0.0
H1403 H 0.48204 0.41961 0.37543 0.0
H1404 H 0.36383 0.54077 0.48615 0.0
H1405 H 0.36841 0.44893 0.50137 0.0
H1406 H 0.52846 0.37432 0.55819 0.0
H1407 H 0.48927 0.35224 0.47655 0.0
H1408 H 0.15059 0.15213 0.18626 0.0
H1409 H 0.19442 0.20465 0.12245 0.0
H1410 H 0.1683 0.17909 0.08366 0.0
H1411 H 0.15017 0.08585 0.14543 0.0
H1412 H 0.11477 0.07501 0.15721 0.0
H1413 H 0.137 0.09725 0.18013 0.0
H1414 H 0.09648 0.13536 0.18278 0.0
H1415 H 0.0741 0.1132 0.15996 0.0
H1416 H 0.08185 0.14994 0.14989 0.0
H1417 H 0.13881 0.14707 0.05181 0.0
H1418 H 0.10569 0.11264 0.02872 0.0
H1419 H 0.07868 0.08209 0.11302 0.0
C1420 C 0.15474 0.15815 0.1641 0.0
C1421 C 0.17453 0.18044 0.15737 0.0
C1422 C 0.17914 0.1879 0.12814 0.0
C1423 C 0.16454 0.17337 0.10595 0.0
C1424 C 0.14525 0.15152 0.1133 0.0
C1425 C 0.14012 0.14403 0.14165 0.0
C1426 C 0.1178 0.1201 0.14358 0.0
C1427 C 0.13071 0.09294 0.15741 0.0
C1428 C 0.09097 0.13026 0.16002 0.0
C1429 C 0.11124 0.1153 0.11188 0.0
C1430 C 0.1275 0.13354 0.09485 0.0
C1431 C 0.12569 0.13292 0.06493 0.0
C1432 C 0.10655 0.11336 0.05201 0.0
C1433 C 0.08902 0.09479 0.06891 0.0
C1434 C 0.09172 0.09577 0.09934 0.0
H1435 H 0.11421 0.91672 0.43196 0.0
H1436 H 0.03542 0.91833 0.38167 0.0
H1437 H 0.05751 0.8861 0.34561 0.0
H1438 H 0.16237 0.91839 0.37124 0.0
H1439 H 0.18856 0.89479 0.38738 0.0
H1440 H 0.16627 0.91708 0.40988 0.0
H1441 H 0.14885 0.87183 0.4376 0.0
H1442 H 0.17106 0.84938 0.41513 0.0
H1443 H 0.13299 0.84221 0.41794 0.0
H1444 H 0.08752 0.8532 0.31559 0.0
H1445 H 0.12441 0.82392 0.29168 0.0
H1446 H 0.18541 0.84585 0.35948 0.0
C1447 C 0.10161 0.91008 0.41343 0.0
C1448 C 0.07308 0.91995 0.40958 0.0
C1449 C 0.05736 0.91116 0.3849 0.0
C1450 C 0.06967 0.89275 0.3644 0.0
C1451 C 0.09785 0.8835 0.36873 0.0
C1452 C 0.11375 0.89199 0.39248 0.0
C1453 C 0.14398 0.87969 0.39131 0.0
C1454 C 0.16663 0.90394 0.38986 0.0
C1455 C 0.14954 0.85958 0.41702 0.0
C1456 C 0.14252 0.86295 0.36322 0.0
C1457 C 0.11561 0.86528 0.35074 0.0
C1458 C 0.10879 0.85148 0.32498 0.0
C1459 C 0.13009 0.83506 0.3114 0.0
C1460 C 0.15819 0.83277 0.32328 0.0
C1461 C 0.16424 0.84688 0.34975 0.0
H1462 H 0.39236 0.92688 0.58043 0.0
H1463 H 0.477 0.89781 0.60696 0.0
H1464 H 0.45457 0.8639 0.64136 0.0
H1465 H 0.35828 0.92266 0.65055 0.0
H1466 H 0.32446 0.90951 0.63655 0.0
H1467 H 0.3471 0.93218 0.61459 0.0
H1468 H 0.34718 0.89326 0.57453 0.0
H1469 H 0.32452 0.87049 0.59635 0.0
H1470 H 0.3584 0.85711 0.5831 0.0
H1471 H 0.42322 0.8336 0.67311 0.0
H1472 H 0.38504 0.80733 0.69891 0.0
H1473 H 0.32028 0.8539 0.65008 0.0
C1474 C 0.40611 0.9135 0.59367 0.0
C1475 C 0.43642 0.91494 0.59109 0.0
C1476 C 0.45374 0.89686 0.60847 0.0
C1477 C 0.44121 0.87765 0.62815 0.0
C1478 C 0.41128 0.8766 0.63007 0.0
C1479 C 0.39391 0.89389 0.61322 0.0
C1480 C 0.3623 0.88775 0.61893 0.0
C1481 C 0.34715 0.91462 0.63087 0.0
C1482 C 0.34722 0.87648 0.5916 0.0
C1483 C 0.36467 0.86438 0.64166 0.0
C1484 C 0.39313 0.85843 0.64785 0.0
C1485 C 0.40084 0.83788 0.66826 0.0
C1486 C 0.37891 0.82286 0.68266 0.0
C1487 C 0.34947 0.82816 0.67645 0.0
C1488 C 0.34245 0.84937 0.65564 0.0
H1489 H 0.42162 0.11233 0.93225 0.0
H1490 H 0.4082 0.02921 0.89143 0.0
H1491 H 0.37483 0.05148 0.85653 0.0
H1492 H 0.34877 0.13905 0.92378 0.0
H1493 H 0.35996 0.17544 0.91586 0.0
H1494 H 0.38208 0.1529 0.93836 0.0
H1495 H 0.42545 0.16145 0.90434 0.0
H1496 H 0.40347 0.18403 0.88177 0.0
H1497 H 0.4218 0.15346 0.86648 0.0
H1498 H 0.3427 0.08237 0.82644 0.0
H1499 H 0.31529 0.12022 0.80159 0.0
H1500 H 0.35149 0.18431 0.8598 0.0
C1501 C 0.41144 0.09886 0.91607 0.0
C1502 C 0.41743 0.06903 0.91451 0.0
C1503 C 0.40403 0.05212 0.89285 0.0
C1504 C 0.38497 0.06455 0.87303 0.0
C1505 C 0.37966 0.09401 0.87497 0.0
C1506 C 0.3926 0.11103 0.89579 0.0
C1507 C 0.38387 0.14234 0.89238 0.0
C1508 C 0.3677 0.15305 0.91919 0.0
C1509 C 0.41022 0.16144 0.88585 0.0
C1510 C 0.36396 0.14018 0.86648 0.0
C1511 C 0.36174 0.11206 0.85694 0.0
C1512 C 0.34447 0.10453 0.83355 0.0
C1513 C 0.32914 0.12631 0.81939 0.0
C1514 C 0.33132 0.15549 0.82838 0.0
C1515 C 0.34901 0.16231 0.8524 0.0
H1516 H 0.67169 0.32632 0.8618 0.0
H1517 H 0.65708 0.36516 0.77793 0.0
H1518 H 0.62331 0.39956 0.79989 0.0
H1519 H 0.5995 0.3331 0.88837 0.0
H1520 H 0.61037 0.34186 0.92464 0.0
H1521 H 0.63316 0.31983 0.90237 0.0
H1522 H 0.67558 0.35542 0.91039 0.0
H1523 H 0.65295 0.3775 0.93279 0.0
H1524 H 0.67087 0.39305 0.90204 0.0
H1525 H 0.59089 0.42967 0.83074 0.0
H1526 H 0.56267 0.45394 0.86848 0.0
H1527 H 0.60006 0.39735 0.93289 0.0
C1528 C 0.66161 0.34218 0.84803 0.0
C1529 C 0.667 0.34276 0.81799 0.0
C1530 C 0.65297 0.36377 0.80084 0.0
C1531 C 0.63387 0.38359 0.81316 0.0
C1532 C 0.62902 0.38233 0.84274 0.0
C1533 C 0.64254 0.36226 0.86 0.0
C1534 C 0.6337 0.36574 0.89127 0.0
C1535 C 0.61826 0.33851 0.9023 0.0
C1536 C 0.65983 0.37339 0.91024 0.0
C1537 C 0.61309 0.3909 0.88885 0.0
C1538 C 0.61068 0.40008 0.86065 0.0
C1539 C 0.59277 0.42281 0.85295 0.0
C1540 C 0.57697 0.43662 0.87463 0.0
C1541 C 0.5792 0.42783 0.90383 0.0
C1542 C 0.59757 0.40454 0.91084 0.0
H1543 H 0.90076 0.40256 0.06402 0.0
H1544 H 0.94298 0.45572 0.12882 0.0
H1545 H 0.91637 0.43018 0.16682 0.0
H1546 H 0.83205 0.39727 0.09824 0.0
H1547 H 0.82619 0.36006 0.0886 0.0
H1548 H 0.8482 0.38276 0.06607 0.0
H1549 H 0.89034 0.34665 0.07061 0.0
H1550 H 0.86843 0.32379 0.09313 0.0
H1551 H 0.90296 0.33637 0.10588 0.0
H1552 H 0.88454 0.39996 0.19798 0.0
H1553 H 0.85082 0.3654 0.22044 0.0
H1554 H 0.83105 0.32946 0.13634 0.0
C1555 C 0.90471 0.40871 0.08618 0.0
C1556 C 0.92386 0.4316 0.09316 0.0
C1557 C 0.92797 0.43892 0.12259 0.0
C1558 C 0.91312 0.42432 0.14447 0.0
C1559 C 0.89438 0.4021 0.1368 0.0
C1560 C 0.89027 0.39411 0.10841 0.0
C1561 C 0.86908 0.36916 0.10617 0.0
C1562 C 0.84229 0.37784 0.08874 0.0
C1563 C 0.88357 0.34241 0.09318 0.0
C1564 C 0.86181 0.36456 0.13773 0.0
C1565 C 0.87659 0.38393 0.15496 0.0
C1566 C 0.87295 0.38459 0.18473 0.0
C1567 C 0.85366 0.36497 0.19728 0.0
C1568 C 0.83834 0.34477 0.18016 0.0
C1569 C 0.84268 0.34448 0.14998 0.0
H1570 H 0.91793 0.61896 0.43167 0.0
H1571 H 0.9173 0.53839 0.38437 0.0
H1572 H 0.88322 0.55909 0.34903 0.0
H1573 H 0.84309 0.63808 0.42007 0.0
H1574 H 0.85048 0.67594 0.41524 0.0
H1575 H 0.8737 0.65445 0.43766 0.0
H1576 H 0.91775 0.67012 0.40719 0.0
H1577 H 0.89468 0.6917 0.38474 0.0
H1578 H 0.91723 0.66454 0.36874 0.0
H1579 H 0.84847 0.58797 0.3197 0.0
H1580 H 0.81815 0.62399 0.29579 0.0
H1581 H 0.84471 0.68791 0.35922 0.0
C1582 C 0.91037 0.60574 0.41394 0.0
C1583 C 0.91995 0.57703 0.41073 0.0
C1584 C 0.91008 0.56039 0.38711 0.0
C1585 C 0.89071 0.57195 0.36703 0.0
C1586 C 0.8817 0.60033 0.37066 0.0
C1587 C 0.89141 0.61716 0.39332 0.0
C1588 C 0.87937 0.64748 0.39132 0.0
C1589 C 0.86054 0.65439 0.41764 0.0
C1590 C 0.90371 0.66977 0.38778 0.0
C1591 C 0.86133 0.64499 0.36409 0.0
C1592 C 0.86278 0.61751 0.35276 0.0
C1593 C 0.8475 0.6097 0.32813 0.0
C1594 C 0.83049 0.63055 0.31449 0.0
C1595 C 0.82914 0.65925 0.32508 0.0
C1596 C 0.84484 0.66631 0.35043 0.0
H1597 H 0.60091 0.56951 0.60645 0.0
H1598 H 0.56833 0.63325 0.54631 0.0
H1599 H 0.59605 0.67107 0.57141 0.0
H1600 H 0.5988 0.61557 0.66967 0.0
H1601 H 0.63146 0.60122 0.68489 0.0
H1602 H 0.60912 0.57891 0.66217 0.0
H1603 H 0.65275 0.56916 0.6289 0.0
H1604 H 0.67519 0.59154 0.65145 0.0
H1605 H 0.67214 0.59914 0.61348 0.0
H1606 H 0.62766 0.70199 0.60225 0.0
H1607 H 0.66046 0.72433 0.63755 0.0
H1608 H 0.67153 0.64134 0.67936 0.0
C1609 C 0.5994 0.59145 0.5987 0.0
C1610 C 0.58255 0.59826 0.57416 0.0
C1611 C 0.58146 0.62728 0.56465 0.0
C1612 C 0.597 0.64901 0.57889 0.0
C1613 C 0.61355 0.64153 0.60276 0.0
C1614 C 0.61481 0.61351 0.61272 0.0
C1615 C 0.63435 0.6114 0.63891 0.0
C1616 C 0.61741 0.60118 0.66548 0.0
C1617 C 0.66013 0.59164 0.63281 0.0
C1618 C 0.64383 0.64261 0.64205 0.0
C1619 C 0.63157 0.65956 0.62092 0.0
C1620 C 0.63721 0.68899 0.61906 0.0
C1621 C 0.65576 0.70153 0.63941 0.0
C1622 C 0.66848 0.68478 0.66157 0.0
C1623 C 0.66239 0.65482 0.66269 0.0
H1624 H 0.2407 0.22131 0.44202 0.0
H1625 H 0.28086 0.30437 0.42583 0.0
H1626 H 0.28709 0.31176 0.47809 0.0
H1627 H 0.20169 0.24322 0.50535 0.0
H1628 H 0.20654 0.20953 0.52401 0.0
H1629 H 0.20572 0.21025 0.48521 0.0
H1630 H 0.25549 0.18528 0.48361 0.0
H1631 H 0.25646 0.18446 0.52241 0.0
H1632 H 0.28548 0.20115 0.50269 0.0
H1633 H 0.28908 0.31046 0.53153 0.0
H1634 H 0.28537 0.30123 0.58366 0.0
H1635 H 0.24359 0.21914 0.56617 0.0
C1636 C 0.25092 0.24095 0.44956 0.0
C1637 C 0.26017 0.26236 0.42993 0.0
C1638 C 0.27326 0.28789 0.44053 0.0
C1639 C 0.27705 0.29221 0.47015 0.0
C1640 C 0.26755 0.27084 0.48894 0.0
C1641 C 0.25465 0.24576 0.47918 0.0
C1642 C 0.24583 0.22662 0.50419 0.0
C1643 C 0.21299 0.22215 0.50471 0.0
C1644 C 0.26177 0.19766 0.50315 0.0
C1645 C 0.25587 0.24488 0.52944 0.0
C1646 C 0.26846 0.27022 0.52006 0.0
C1647 C 0.27939 0.29064 0.53918 0.0
C1648 C 0.27736 0.2851 0.56875 0.0
C1649 C 0.26445 0.25935 0.57901 0.0
C1650 C 0.25351 0.23904 0.55899 0.0
H1651 H 0.01009 0.97431 0.81168 0.0
H1652 H 0.01778 0.06577 0.83052 0.0
H1653 H 0.0214 0.07607 0.77859 0.0
H1654 H 0.06146 0.97409 0.75241 0.0
H1655 H 0.04136 0.94795 0.73174 0.0
H1656 H 0.03946 0.94762 0.77051 0.0
H1657 H 0.98389 0.95152 0.76775 0.0
H1658 H 0.98562 0.95199 0.72899 0.0
H1659 H 0.96787 0.9808 0.74796 0.0
H1660 H 0.02239 0.07682 0.72486 0.0
H1661 H 0.02225 0.06797 0.67261 0.0
H1662 H 0.01708 0.97574 0.68822 0.0
C1663 C 0.01294 0.99648 0.80497 0.0
C1664 C 0.01345 0.01924 0.82532 0.0
C1665 C 0.01678 0.04798 0.81543 0.0
C1666 C 0.01906 0.05406 0.78596 0.0
C1667 C 0.01823 0.03118 0.76654 0.0
C1668 C 0.01545 0.00295 0.77558 0.0
C1669 C 0.01505 0.98241 0.75012 0.0
C1670 C 0.04087 0.9618 0.75127 0.0
C1671 C 0.9864 0.9657 0.74863 0.0
C1672 C 0.01782 0.00357 0.72538 0.0
C1673 C 0.01959 0.03157 0.7354 0.0
C1674 C 0.02146 0.05496 0.71675 0.0
C1675 C 0.02162 0.04964 0.68703 0.0
C1676 C 0.02017 0.0211 0.6761 0.0
C1677 C 0.01821 0.99781 0.69573 0.0
H1678 H 0.26162 0.78341 0.9391 0.0
H1679 H 0.21666 0.70277 0.92285 0.0
H1680 H 0.2111 0.69529 0.97509 0.0
H1681 H 0.30052 0.75947 1.00128 0.0
H1682 H 0.29759 0.79311 0.02048 0.0
H1683 H 0.29745 0.79285 0.98167 0.0
H1684 H 0.24878 0.81994 0.9814 0.0
H1685 H 0.24881 0.82037 0.02023 0.0
H1686 H 0.21862 0.80518 1.00095 0.0
H1687 H 0.21129 0.6956 0.02848 0.0
H1688 H 0.21719 0.70367 0.08056 0.0
H1689 H 0.26126 0.7846 0.06324 0.0
C1690 C 0.2504 0.76434 0.94659 0.0
C1691 C 0.23977 0.74355 0.92691 0.0
C1692 C 0.2254 0.71874 0.93753 0.0
C1693 C 0.22197 0.71437 0.96716 0.0
C1694 C 0.23297 0.73503 0.98597 0.0
C1695 C 0.24687 0.75955 0.97623 0.0
C1696 C 0.25713 0.77799 1.00128 0.0
C1697 C 0.29013 0.78102 1.00116 0.0
C1698 C 0.24245 0.80762 1.00094 0.0
C1699 C 0.24691 0.75989 0.02652 0.0
C1700 C 0.23295 0.73527 0.0171 0.0
C1701 C 0.22193 0.71493 0.03618 0.0
C1702 C 0.22522 0.71984 0.06576 0.0
C1703 C 0.23938 0.74494 0.0761 0.0
C1704 C 0.25039 0.76518 0.05608 0.0
H1705 H 0.52127 0.02889 0.31418 0.0
H1706 H 0.44863 0.97362 0.33539 0.0
H1707 H 0.43825 0.96726 0.28367 0.0
H1708 H 0.4888 0.0636 0.25217 0.0
H1709 H 0.52176 0.06435 0.23172 0.0
H1710 H 0.52301 0.06558 0.27051 0.0
H1711 H 0.55627 0.02088 0.27108 0.0
H1712 H 0.55522 0.01959 0.23231 0.0
H1713 H 0.54484 0.98837 0.253 0.0
H1714 H 0.43674 0.96516 0.22998 0.0
H1715 H 0.44434 0.96739 0.17738 0.0
H1716 H 0.518 0.02378 0.19047 0.0
C1717 C 0.50322 0.0154 0.30796 0.0
C1718 C 0.48565 1.0019 0.32894 0.0
C1719 C 0.4621 0.9846 0.31981 0.0
C1720 C 0.4561 0.98074 0.29046 0.0
C1721 C 0.47379 0.99434 0.2704 0.0
C1722 C 0.49686 0.01134 0.27869 0.0
C1723 C 0.51283 0.023 0.25266 0.0
C1724 C 0.51151 0.0561 0.25172 0.0
C1725 C 0.54414 0.01231 0.25225 0.0
C1726 C 0.49528 0.00964 0.22848 0.0
C1727 C 0.47283 0.99324 0.23925 0.0
C1728 C 0.45416 0.97803 0.22126 0.0
C1729 C 0.4587 0.97935 0.19146 0.0
C1730 C 0.4817 0.99579 0.17988 0.0
C1731 C 0.5 0.01139 0.1987 0.0
H1732 H 0.44135 0.23657 0.22096 0.0
H1733 H 0.42283 0.28298 0.29983 0.0
H1734 H 0.47492 0.29099 0.30776 0.0
H1735 H 0.50334 0.19984 0.24853 0.0
H1736 H 0.5232 0.20133 0.21522 0.0
H1737 H 0.48443 0.20097 0.21459 0.0
H1738 H 0.48458 0.2482 0.18482 0.0
H1739 H 0.52339 0.24875 0.18547 0.0
H1740 H 0.50349 0.27939 0.19845 0.0
H1741 H 0.52832 0.29387 0.30733 0.0
H1742 H 0.58056 0.28844 0.30093 0.0
H1743 H 0.56548 0.23711 0.22396 0.0
C1744 C 0.44844 0.24859 0.23971 0.0
C1745 C 0.42834 0.25935 0.25979 0.0
C1746 C 0.43809 0.27464 0.28432 0.0
C1747 C 0.46754 0.27937 0.2889 0.0
C1748 C 0.48692 0.26841 0.26885 0.0
C1749 C 0.4779 0.2531 0.24489 0.0
C1750 C 0.50345 0.24227 0.22769 0.0
C1751 C 0.50361 0.20914 0.22645 0.0
C1752 C 0.50374 0.25544 0.19731 0.0
C1753 C 0.52817 0.25378 0.24584 0.0
C1754 C 0.51805 0.26907 0.26925 0.0
C1755 C 0.53654 0.28175 0.28921 0.0
C1756 C 0.56623 0.27833 0.28548 0.0
C1757 C 0.57729 0.26196 0.26218 0.0
C1758 C 0.55785 0.24989 0.24189 0.0
H1759 H 1.00115 0.31786 0.52413 0.0
H1760 H 0.01806 0.33472 0.43366 0.0
H1761 H 0.02094 0.28242 0.42457 0.0
H1762 H 0.04759 0.25732 0.53176 0.0
H1763 H 0.0236 0.23775 0.55524 0.0
H1764 H 0.02298 0.27655 0.55474 0.0
H1765 H 0.96837 0.27553 0.54317 0.0
H1766 H 0.96879 0.23671 0.54379 0.0
H1767 H 0.95561 0.25539 0.51241 0.0
H1768 H 0.02258 0.2281 0.42541 0.0
H1769 H 0.02056 0.17588 0.4358 0.0
H1770 H 1.00157 0.19465 0.52541 0.0
C1771 C 0.00507 0.31063 0.50231 0.0
C1772 C 0.00951 0.33056 0.47965 0.0
C1773 C 0.01506 0.32 0.45151 0.0
C1774 C 0.01659 0.29029 0.44608 0.0
C1775 C 0.01237 0.27133 0.46895 0.0
C1776 C 0.00653 0.28107 0.49646 0.0
C1777 C 1.00262 0.25617 0.51722 0.0
C1778 C 0.02557 0.25701 0.54115 0.0
C1779 C 0.97203 0.25594 0.52988 0.0
C1780 C 0.00722 0.23092 0.49708 0.0
C1781 C 0.01294 0.2401 0.46935 0.0
C1782 C 0.0181 0.22066 0.44704 0.0
C1783 C 0.0171 0.19105 0.45319 0.0
C1784 C 0.01087 0.18115 0.48139 0.0
C1785 C 0.00605 0.2015 0.50356 0.0
H1786 H 0.94194 0.72722 0.74249 0.0
H1787 H 0.92621 0.81895 0.73555 0.0
H1788 H 0.97847 0.82785 0.72995 0.0
H1789 H 0.00472 0.7339 0.78561 0.0
H1790 H 0.02336 0.70397 0.76948 0.0
H1791 H 0.9846 0.70444 0.77001 0.0
H1792 H 0.98351 0.69833 0.71451 0.0
H1793 H 0.02231 0.69782 0.71383 0.0
H1794 H 0.00294 0.72352 0.69218 0.0
H1795 H 0.03211 0.82702 0.72693 0.0
H1796 H 0.08413 0.81699 0.72889 0.0
H1797 H 0.06562 0.72591 0.74085 0.0
C1798 C 0.94961 0.74905 0.73925 0.0
C1799 C 0.93027 0.77244 0.73909 0.0
C1800 C 0.94087 0.80084 0.73554 0.0
C1801 C 0.97042 0.80605 0.73228 0.0
C1802 C 0.98907 0.78262 0.73288 0.0
C1803 C 0.97917 0.75468 0.73641 0.0
C1804 C 0.00402 0.73366 0.73834 0.0
C1805 C 0.00418 0.71809 0.7676 0.0
C1806 C 0.00313 0.71206 0.71321 0.0
C1807 C 0.02937 0.75419 0.7356 0.0
C1808 C 0.02022 0.78226 0.73214 0.0
C1809 C 0.03957 0.80512 0.72965 0.0
C1810 C 0.0691 0.79921 0.73103 0.0
C1811 C 0.07912 0.77068 0.73519 0.0
C1812 C 0.05882 0.7479 0.73723 0.0
H1813 H 0.46936 0.68616 0.00463 0.0
H1814 H 0.55124 0.66853 0.96338 0.0
H1815 H 0.55955 0.72076 0.95727 0.0
H1816 H 0.44996 0.74852 0.96019 0.0
H1817 H 0.43416 0.76777 0.98994 0.0
H1818 H 0.43375 0.72892 0.98957 0.0
H1819 H 0.4591 0.72822 0.03934 0.0
H1820 H 0.45958 0.76701 0.03987 0.0
H1821 H 0.4927 0.7473 0.04398 0.0
H1822 H 0.56015 0.77453 0.95761 0.0
H1823 H 0.55339 0.82673 0.96507 0.0
H1824 H 0.47112 0.80991 0.00612 0.0
C1825 C 0.4888 0.69331 0.99387 0.0
C1826 C 0.50966 0.67329 0.98443 0.0
C1827 C 0.5351 0.6835 0.97099 0.0
C1828 C 0.53992 0.71309 0.96725 0.0
C1829 C 0.51908 0.73224 0.97703 0.0
C1830 C 0.49401 0.72283 0.99005 0.0
C1831 C 0.47575 0.74803 0.99982 0.0
C1832 C 0.44668 0.74832 0.98393 0.0
C1833 C 0.47155 0.74761 0.0327 0.0
C1834 C 0.49467 0.77307 0.99057 0.0
C1835 C 0.51947 0.76342 0.97732 0.0
C1836 C 0.54076 0.78236 0.96782 0.0
C1837 C 0.5368 0.81194 0.97229 0.0
C1838 C 0.51177 0.82234 0.9862 0.0
C1839 C 0.49028 0.8026 0.99508 0.0
H1840 H 0.56434 0.73405 0.2689 0.0
H1841 H 0.57828 0.81846 0.23082 0.0
H1842 H 0.52597 0.82658 0.22996 0.0
H1843 H 0.50118 0.71596 0.22946 0.0
H1844 H 0.48319 0.6984 0.25908 0.0
H1845 H 0.52194 0.69926 0.2577 0.0
H1846 H 0.52363 0.7229 0.30827 0.0
H1847 H 0.48486 0.72199 0.30986 0.0
H1848 H 0.50385 0.75562 0.3147 0.0
H1849 H 0.47252 0.82493 0.23082 0.0
H1850 H 0.42081 0.8141 0.23442 0.0
H1851 H 0.44064 0.73188 0.27453 0.0
C1852 C 0.55641 0.75439 0.26075 0.0
C1853 C 0.57551 0.77548 0.24964 0.0
C1854 C 0.56414 0.8017 0.23889 0.0
C1855 C 0.53444 0.80664 0.23851 0.0
C1856 C 0.51624 0.7853 0.2492 0.0
C1857 C 0.52669 0.75977 0.2603 0.0
C1858 C 0.50222 0.7403 0.27 0.0
C1859 C 0.50214 0.7118 0.25304 0.0
C1860 C 0.50374 0.73489 0.30265 0.0
C1861 C 0.47646 0.75876 0.2622 0.0
C1862 C 0.48513 0.78464 0.25031 0.0
C1863 C 0.46542 0.80492 0.24051 0.0
C1864 C 0.436 0.79862 0.24289 0.0
C1865 C 0.42639 0.77227 0.25513 0.0
C1866 C 0.4471 0.75218 0.26499 0.0
H1867 H 0.524 0.19104 0.48533 0.0
H1868 H 0.48368 0.17467 0.56794 0.0
H1869 H 0.483 0.22715 0.57788 0.0
H1870 H 0.56884 0.25105 0.50736 0.0
H1871 H 0.56366 0.27063 0.47423 0.0
H1872 H 0.56201 0.23183 0.47425 0.0
H1873 H 0.51111 0.23352 0.45131 0.0
H1874 H 0.51268 0.27229 0.45108 0.0
H1875 H 0.4832 0.25408 0.46866 0.0
H1876 H 0.48713 0.28162 0.57869 0.0
H1877 H 0.49139 0.33382 0.56838 0.0
H1878 H 0.52759 0.31423 0.48457 0.0
C1879 C 0.51523 0.19854 0.5056 0.0
C1880 C 0.50405 0.1789 0.52599 0.0
C1881 C 0.49226 0.18945 0.55204 0.0
C1882 C 0.49196 0.21915 0.55792 0.0
C1883 C 0.50331 0.23797 0.5374 0.0
C1884 C 0.51444 0.22807 0.51162 0.0
C1885 C 0.52399 0.25278 0.49255 0.0
C1886 C 0.55656 0.25148 0.48677 0.0
C1887 C 0.50671 0.25318 0.46423 0.0
C1888 C 0.51646 0.27816 0.51157 0.0
C1889 C 0.50489 0.2692 0.5375 0.0
C1890 C 0.49619 0.28886 0.55847 0.0
C1891 C 0.49886 0.31844 0.55253 0.0
C1892 C 0.50982 0.32801 0.52572 0.0
C1893 C 0.51903 0.30751 0.50521 0.0
H1894 H 0.06706 0.253 0.72579 0.0
H1895 H 0.08473 0.2467 0.81745 0.0
H1896 H 0.03252 0.2457 0.82735 0.0
H1897 H 0.00575 0.29915 0.73156 0.0
H1898 H 0.98615 0.2821 0.70261 0.0
H1899 H 0.02493 0.28194 0.70256 0.0
H1900 H 0.02471 0.22621 0.69884 0.0
H1901 H 0.98592 0.2262 0.69869 0.0
H1902 H 0.00516 0.20532 0.72514 0.0
H1903 H 0.97853 0.24564 0.82738 0.0
H1904 H 0.92629 0.24621 0.81752 0.0
H1905 H 0.94362 0.25186 0.72578 0.0
C1906 C 0.05995 0.25109 0.74792 0.0
C1907 C 0.08 0.24996 0.77087 0.0
C1908 C 0.06978 0.24792 0.79956 0.0
C1909 C 0.04018 0.24722 0.80539 0.0
C1910 C 0.02102 0.2486 0.78231 0.0
C1911 C 0.03046 0.25045 0.75415 0.0
C1912 C 0.00533 0.2519 0.73332 0.0
C1913 C 0.00556 0.28048 0.71653 0.0
C1914 C 0.00528 0.22585 0.71279 0.0
C1915 C 0.9803 0.25053 0.75419 0.0
C1916 C 0.98985 0.24862 0.78233 0.0
C1917 C 0.97079 0.24703 0.80542 0.0
C1918 C 0.94115 0.24723 0.79959 0.0
C1919 C 0.93082 0.24901 0.77089 0.0
C1920 C 0.95079 0.25081 0.74797 0.0
H1921 H 0.01417 0.81509 0.97423 0.0
H1922 H 0.01247 0.83483 0.06556 0.0
H1923 H 0.0126 0.78263 0.07674 0.0
H1924 H 0.9675 0.75429 0.97646 0.0
H1925 H 0.987 0.73414 0.94966 0.0
H1926 H 0.98775 0.77294 0.94904 0.0
H1927 H 0.04354 0.77239 0.95097 0.0
H1928 H 0.04297 0.73357 0.95143 0.0
H1929 H 0.06142 0.75314 0.97954 0.0
H1930 H 0.00991 0.72791 0.07754 0.0
H1931 H 0.00875 0.67535 0.06801 0.0
H1932 H 0.01338 0.69201 0.9762 0.0
C1933 C 0.01394 0.80841 0.99659 0.0
C1934 C 0.01326 0.82895 0.01906 0.0
C1935 C 0.01326 0.81942 0.04805 0.0
C1936 C 0.01315 0.78984 0.05457 0.0
C1937 C 0.01335 0.77014 0.03185 0.0
C1938 C 0.0141 0.77907 0.00345 0.0
C1939 C 0.01431 0.75366 0.98298 0.0
C1940 C 0.98755 0.75377 0.96339 0.0
C1941 C 0.04222 0.75316 0.96519 0.0
C1942 C 0.01326 0.72898 0.00425 0.0
C1943 C 0.01254 0.73886 0.03235 0.0
C1944 C 0.01069 0.71995 0.05564 0.0
C1945 C 0.00986 0.69018 0.05004 0.0
C1946 C 0.01115 0.67967 0.02141 0.0
C1947 C 0.01277 0.69943 0.99833 0.0
H1948 H 0.25819 0.44035 0.22557 0.0
H1949 H 0.21632 0.42411 0.30763 0.0
H1950 H 0.21144 0.47634 0.3154 0.0
H1951 H 0.29806 0.50151 0.24682 0.0
H1952 H 0.29333 0.52104 0.21359 0.0
H1953 H 0.29249 0.48224 0.2135 0.0
H1954 H 0.24211 0.4828 0.18944 0.0
H1955 H 0.24293 0.52163 0.18918 0.0
H1956 H 0.21337 0.50283 0.20602 0.0
H1957 H 0.21456 0.53002 0.31632 0.0
H1958 H 0.22235 0.58191 0.30878 0.0
H1959 H 0.25855 0.56394 0.22432 0.0
C1960 C 0.24749 0.44774 0.2449 0.0
C1961 C 0.23797 0.428 0.26614 0.0
C1962 C 0.22438 0.43871 0.29131 0.0
C1963 C 0.22131 0.46838 0.29586 0.0
C1964 C 0.23155 0.4872 0.27489 0.0
C1965 C 0.244 0.47737 0.24972 0.0
C1966 C 0.25356 0.50235 0.2309 0.0
C1967 C 0.2863 0.50174 0.22592 0.0
C1968 C 0.23699 0.5024 0.20218 0.0
C1969 C 0.245 0.52765 0.2497 0.0
C1970 C 0.23238 0.51838 0.27498 0.0
C1971 C 0.2239 0.53761 0.29635 0.0
C1972 C 0.22826 0.56716 0.29173 0.0
C1973 C 0.24077 0.57739 0.26578 0.0
C1974 C 0.24912 0.55712 0.24452 0.0
H1975 H 0.74324 0.06515 0.72691 0.0
H1976 H 0.74188 0.08333 0.8187 0.0
H1977 H 0.73904 0.03122 0.82888 0.0
H1978 H 0.69272 0.00466 0.72916 0.0
H1979 H 0.71154 0.98465 0.70177 0.0
H1980 H 0.71269 0.02348 0.70165 0.0
H1981 H 0.76845 0.02209 0.70238 0.0
H1982 H 0.76749 0.98329 0.70264 0.0
H1983 H 0.78663 0.0025 0.73054 0.0
H1984 H 0.73842 0.9773 0.82925 0.0
H1985 H 0.73935 0.92509 0.81988 0.0
H1986 H 0.73879 0.94165 0.72774 0.0
C1987 C 0.74188 0.05822 0.74915 0.0
C1988 C 0.74286 0.0784 0.77202 0.0
C1989 C 0.74156 0.06832 0.80082 0.0
C1990 C 0.73976 0.03876 0.80683 0.0
C1991 C 0.73913 0.01949 0.78381 0.0
C1992 C 0.74001 0.02877 0.75554 0.0
C1993 C 0.7396 0.00347 0.73483 0.0
C1994 C 0.71252 0.00411 0.71573 0.0
C1995 C 0.76719 0.00281 0.71653 0.0
C1996 C 0.73861 0.97854 0.7559 0.0
C1997 C 0.7383 0.9883 0.78403 0.0
C1998 C 0.73826 0.96939 0.8073 0.0
C1999 C 0.73855 0.9397 0.80172 0.0
C2000 C 0.73875 0.92907 0.77304 0.0
C2001 C 0.73871 0.94894 0.7499 0.0
H2002 H 0.31297 0.52403 0.99426 0.0
H2003 H 0.32989 0.43231 1.00081 0.0
H2004 H 0.27761 0.42243 0.99965 0.0
H2005 H 0.25047 0.52489 0.03872 0.0
H2006 H 0.23172 0.55125 0.01731 0.0
H2007 H 0.27049 0.55113 0.01818 0.0
H2008 H 0.27187 0.54699 0.9625 0.0
H2009 H 0.2331 0.54726 0.96145 0.0
H2010 H 0.25258 0.51807 0.94496 0.0
H2011 H 0.2234 0.42259 0.9985 0.0
H2012 H 0.17128 0.43279 0.99722 0.0
H2013 H 0.18992 0.5243 0.98997 0.0
C2014 C 0.30573 0.50183 0.99508 0.0
C2015 C 0.32558 0.47894 0.99766 0.0
C2016 C 0.31511 0.45023 0.99918 0.0
C2017 C 0.28546 0.44438 0.99838 0.0
C2018 C 0.26651 0.46746 0.99601 0.0
C2019 C 0.27622 0.4956 0.99431 0.0
C2020 C 0.25134 0.51652 0.99219 0.0
C2021 C 0.251 0.53716 0.01815 0.0
C2022 C 0.25229 0.53319 0.96357 0.0
C2023 C 0.22612 0.49573 0.99306 0.0
C2024 C 0.23532 0.46754 0.99524 0.0
C2025 C 0.21594 0.44458 0.99663 0.0
C2026 C 0.18637 0.45059 0.99573 0.0
C2027 C 0.17641 0.47934 0.99345 0.0
C2028 C 0.19672 0.50211 0.99208 0.0
H2029 H 0.73952 0.06727 0.22909 0.0
H2030 H 0.81245 0.08421 0.28523 0.0
H2031 H 0.82149 0.03194 0.28903 0.0
H2032 H 0.71416 0.00545 0.26629 0.0
H2033 H 0.70328 0.98605 0.23439 0.0
H2034 H 0.70357 0.02486 0.23437 0.0
H2035 H 0.73719 0.02497 0.18986 0.0
H2036 H 0.73685 0.98613 0.18963 0.0
H2037 H 0.77061 0.00539 0.19123 0.0
H2038 H 0.82153 0.97803 0.28841 0.0
H2039 H 0.81242 0.92581 0.28358 0.0
H2040 H 0.73945 0.94349 0.22781 0.0
C2041 C 0.75768 0.05995 0.24175 0.0
C2042 C 0.77535 0.07976 0.25682 0.0
C2043 C 0.79857 0.06936 0.27365 0.0
C2044 C 0.80393 0.03974 0.27585 0.0
C2045 C 0.78586 0.02075 0.26112 0.0
C2046 C 0.76323 0.03037 0.24435 0.0
C2047 C 0.74637 0.00527 0.23175 0.0
C2048 C 0.71499 0.00542 0.24234 0.0
C2049 C 0.74786 0.00546 0.19865 0.0
C2050 C 0.76293 0.9801 0.24427 0.0
C2051 C 0.78572 0.98953 0.261 0.0
C2052 C 0.80388 0.97036 0.27517 0.0
C2053 C 0.79861 0.94072 0.2722 0.0
C2054 C 0.77529 0.93048 0.25526 0.0
C2055 C 0.75731 0.95058 0.2411 0.0
H2056 H 0.81429 0.02076 0.02341 0.0
H2057 H 0.82895 0.95727 0.95628 0.0
H2058 H 0.77661 0.95166 0.94975 0.0
H2059 H 0.75299 0.98641 0.05467 0.0
H2060 H 0.734 0.01939 0.06207 0.0
H2061 H 0.77276 0.01935 0.06098 0.0
H2062 H 0.77196 0.05962 0.02235 0.0
H2063 H 0.73316 0.05977 0.02331 0.0
H2064 H 0.75164 0.05424 0.98964 0.0
H2065 H 0.72328 0.95175 0.95102 0.0
H2066 H 0.67139 0.95709 0.9605 0.0
H2067 H 0.69027 0.02059 0.02673 0.0
C2068 C 0.80644 0.0059 0.00717 0.0
C2069 C 0.82574 0.98926 0.99053 0.0
C2070 C 0.81462 0.96985 0.96965 0.0
C2071 C 0.78491 0.96668 0.9656 0.0
C2072 C 0.76651 0.98315 0.98248 0.0
C2073 C 0.77673 1.00241 0.00284 0.0
C2074 C 0.75206 0.01689 0.01857 0.0
C2075 C 0.75302 0.01009 0.05099 0.0
C2076 C 0.75222 0.04957 0.01313 0.0
C2077 C 0.72648 1.00246 0.00406 0.0
C2078 C 0.73541 0.98321 0.98321 0.0
C2079 C 0.71597 0.96677 0.96726 0.0
C2080 C 0.68656 0.96985 0.97292 0.0
C2081 C 0.67678 0.98913 0.99445 0.0
C2082 C 0.69708 0.0059 0.00996 0.0
H2083 H 0.24745 0.56387 0.72304 0.0
H2084 H 0.2877 0.58265 0.80546 0.0
H2085 H 0.2954 0.53073 0.81348 0.0
H2086 H 0.21005 0.50142 0.74519 0.0
H2087 H 0.21525 0.48174 0.71212 0.0
H2088 H 0.2146 0.52053 0.71167 0.0
H2089 H 0.26476 0.5216 0.68731 0.0
H2090 H 0.26546 0.48277 0.68748 0.0
H2091 H 0.29441 0.50293 0.70394 0.0
H2092 H 0.29572 0.47698 0.8143 0.0
H2093 H 0.28986 0.42467 0.80725 0.0
H2094 H 0.25123 0.44031 0.72337 0.0
C2095 C 0.25838 0.55706 0.7425 0.0
C2096 C 0.26686 0.57731 0.7637 0.0
C2097 C 0.28069 0.5675 0.7891 0.0
C2098 C 0.2853 0.53807 0.79379 0.0
C2099 C 0.27614 0.51864 0.7728 0.0
C2100 C 0.26316 0.52766 0.74756 0.0
C2101 C 0.25443 0.50213 0.72903 0.0
C2102 C 0.22164 0.50143 0.72423 0.0
C2103 C 0.27074 0.50238 0.70023 0.0
C2104 C 0.26413 0.47743 0.74805 0.0
C2105 C 0.27668 0.48746 0.77313 0.0
C2106 C 0.28632 0.46881 0.79454 0.0
C2107 C 0.28304 0.43907 0.79024 0.0
C2108 C 0.27027 0.42815 0.76465 0.0
C2109 C 0.26088 0.44779 0.74328 0.0
H2110 H 0.19496 0.53763 0.50957 0.0
H2111 H 0.17496 0.45665 0.46664 0.0
H2112 H 0.22661 0.44694 0.46135 0.0
H2113 H 0.25832 0.55572 0.4681 0.0
H2114 H 0.27803 0.56991 0.4985 0.0
H2115 H 0.23927 0.57153 0.49798 0.0
H2116 H 0.23727 0.54443 0.54673 0.0
H2117 H 0.27601 0.54279 0.54744 0.0
H2118 H 0.25504 0.51013 0.55022 0.0
H2119 H 0.27987 0.44546 0.46057 0.0
H2120 H 0.3322 0.45145 0.46587 0.0
H2121 H 0.31885 0.53177 0.51209 0.0
C2122 C 0.2014 0.51783 0.49909 0.0
C2123 C 0.18066 0.4982 0.48805 0.0
C2124 C 0.19021 0.47254 0.4745 0.0
C2125 C 0.21958 0.46664 0.4716 0.0
C2126 C 0.23933 0.48644 0.48257 0.0
C2127 C 0.23076 0.51144 0.49619 0.0
C2128 C 0.25664 0.52859 0.50674 0.0
C2129 C 0.25815 0.55819 0.49194 0.0
C2130 C 0.25621 0.53165 0.53974 0.0
C2131 C 0.28101 0.50922 0.49694 0.0
C2132 C 0.27041 0.48513 0.48293 0.0
C2133 C 0.28847 0.4641 0.47172 0.0
C2134 C 0.31822 0.46762 0.47509 0.0
C2135 C 0.32979 0.49185 0.48983 0.0
C2136 C 0.31078 0.51304 0.50067 0.0
H2137 H 0.73886 0.77123 0.93963 0.0
H2138 H 0.77798 0.68771 0.92471 0.0
H2139 H 0.78152 0.68012 0.97723 0.0
H2140 H 0.78085 0.79076 1.00082 0.0
H2141 H 0.75163 0.80802 0.01954 0.0
H2142 H 0.75174 0.80675 0.98076 0.0
H2143 H 0.70148 0.78225 0.98107 0.0
H2144 H 0.70115 0.78357 0.01987 0.0
H2145 H 0.69617 0.74965 1.00153 0.0
H2146 H 0.78194 0.68215 0.03149 0.0
H2147 H 0.7775 0.69294 0.08347 0.0
H2148 H 0.73729 0.77465 0.06286 0.0
C2149 C 0.74776 0.75112 0.94734 0.0
C2150 C 0.75819 0.73008 0.92794 0.0
C2151 C 0.77019 0.70433 0.93907 0.0
C2152 C 0.77216 0.69974 0.96889 0.0
C2153 C 0.76195 0.72105 0.98736 0.0
C2154 C 0.74982 0.74615 0.97703 0.0
C2155 C 0.74066 0.76573 1.00147 0.0
C2156 C 0.75722 0.79451 1.00058 0.0
C2157 C 0.70792 0.77057 1.00095 0.0
C2158 C 0.74958 0.74773 0.02717 0.0
C2159 C 0.7619 0.72207 0.01858 0.0
C2160 C 0.77226 0.70214 0.03847 0.0
C2161 C 0.76981 0.70853 0.06793 0.0
C2162 C 0.75701 0.73459 0.07723 0.0
C2163 C 0.74683 0.75438 0.05645 0.0
H2164 H 0.50617 0.53095 0.31193 0.0
H2165 H 0.5403 0.44559 0.32867 0.0
H2166 H 0.54389 0.43682 0.27642 0.0
H2167 H 0.46245 0.51062 0.25174 0.0
H2168 H 0.46892 0.54342 0.23194 0.0
H2169 H 0.47032 0.54366 0.27072 0.0
H2170 H 0.522 0.56488 0.269 0.0
H2171 H 0.52073 0.56477 0.2302 0.0
H2172 H 0.54943 0.54643 0.24876 0.0
H2173 H 0.54187 0.43638 0.22244 0.0
H2174 H 0.53488 0.44453 0.17042 0.0
H2175 H 0.50252 0.53037 0.18852 0.0
C2176 C 0.51443 0.51043 0.30462 0.0
C2177 C 0.52321 0.48908 0.3245 0.0
C2178 C 0.53401 0.46254 0.31396 0.0
C2179 C 0.53594 0.45725 0.28428 0.0
C2180 C 0.52699 0.47869 0.26533 0.0
C2181 C 0.51651 0.50477 0.27504 0.0
C2182 C 0.50781 0.52393 0.25008 0.0
C2183 C 0.47545 0.5308 0.25119 0.0
C2184 C 0.52609 0.55164 0.24948 0.0
C2185 C 0.51485 0.50443 0.22486 0.0
C2186 C 0.52592 0.47846 0.23414 0.0
C2187 C 0.53347 0.45674 0.21488 0.0
C2188 C 0.52959 0.46167 0.18532 0.0
C2189 C 0.5183 0.48817 0.1752 0.0
C2190 C 0.51096 0.50978 0.19543 0.0
H2191 H 0.78003 0.24115 0.43942 0.0
H2192 H 0.70894 0.29955 0.42423 0.0
H2193 H 0.70312 0.30607 0.47677 0.0
H2194 H 0.74898 0.20607 0.49996 0.0
H2195 H 0.78246 0.202 0.51921 0.0
H2196 H 0.78241 0.20348 0.48044 0.0
H2197 H 0.81851 0.2462 0.4819 0.0
H2198 H 0.81874 0.24481 0.5207 0.0
H2199 H 0.80986 0.27794 0.50254 0.0
H2200 H 0.70411 0.30517 0.53076 0.0
H2201 H 0.71132 0.29648 0.58267 0.0
H2202 H 0.78052 0.23699 0.56288 0.0
C2203 C 0.76359 0.25567 0.44722 0.0
C2204 C 0.74501 0.26999 0.42787 0.0
C2205 C 0.72332 0.28835 0.43878 0.0
C2206 C 0.71992 0.29225 0.46854 0.0
C2207 C 0.73831 0.27752 0.48709 0.0
C2208 C 0.7597 0.25957 0.4769 0.0
C2209 C 0.77564 0.24521 0.5015 0.0
C2210 C 0.77215 0.21224 0.50019 0.0
C2211 C 0.80758 0.25408 0.50166 0.0
C2212 C 0.75979 0.25781 0.52707 0.0
C2213 C 0.73846 0.27652 0.51827 0.0
C2214 C 0.72073 0.29054 0.53793 0.0
C2215 C 0.72484 0.28526 0.56739 0.0
C2216 C 0.7464 0.26594 0.577 0.0
C2217 C 0.7641 0.25217 0.55639 0.0
H2218 H 0.98799 0.47831 0.68812 0.0
H2219 H 1.00191 0.5694 0.67096 0.0
H2220 H 0.9985 0.5796 0.7229 0.0
H2221 H 0.93869 0.48625 0.74779 0.0
H2222 H 0.95373 0.45663 0.76783 0.0
H2223 H 0.95521 0.45659 0.72903 0.0
H2224 H 0.01061 0.45051 0.73112 0.0
H2225 H 0.00931 0.45053 0.7699 0.0
H2226 H 0.03199 0.47605 0.75129 0.0
H2227 H 0.99538 0.5799 0.77682 0.0
H2228 H 0.99389 0.57009 0.82903 0.0
H2229 H 0.98401 0.47865 0.81155 0.0
C2230 C 0.99044 0.50043 0.69515 0.0
C2231 C 0.995 0.52305 0.67513 0.0
C2232 C 0.99773 0.55169 0.68556 0.0
C2233 C 0.99605 0.55772 0.71513 0.0
C2234 C 0.99181 0.5349 0.73416 0.0
C2235 C 0.98914 0.50682 0.72463 0.0
C2236 C 0.98589 0.4861 0.74969 0.0
C2237 C 0.95664 0.47048 0.74851 0.0
C2238 C 0.01094 0.46453 0.75054 0.0
C2239 C 0.98734 0.50693 0.77483 0.0
C2240 C 0.99054 0.535 0.76535 0.0
C2241 C 0.99268 0.55804 0.78449 0.0
C2242 C 0.99162 0.55225 0.81411 0.0
C2243 C 0.98856 0.52364 0.8244 0.0
C2244 C 0.98639 0.50073 0.80437 0.0
H2245 H 0.81763 0.98157 0.48415 0.0
H2246 H 0.83203 0.03868 0.55696 0.0
H2247 H 0.77965 0.04259 0.56413 0.0
H2248 H 0.7558 0.01784 0.45646 0.0
H2249 H 0.73698 0.98546 0.44586 0.0
H2250 H 0.77575 0.98601 0.44685 0.0
H2251 H 0.77559 0.94212 0.48133 0.0
H2252 H 0.7368 0.94135 0.48034 0.0
H2253 H 0.75536 0.94384 0.51441 0.0
H2254 H 0.7264 0.04195 0.56268 0.0
H2255 H 0.67459 0.03644 0.55307 0.0
H2256 H 0.69351 0.97885 0.48176 0.0
C2257 C 0.80969 0.99461 0.50177 0.0
C2258 C 0.82889 0.00999 0.51989 0.0
C2259 C 0.81771 0.02707 0.54256 0.0
C2260 C 0.78801 0.0293 0.54692 0.0
C2261 C 0.76968 0.01427 0.52848 0.0
C2262 C 0.77996 0.99719 0.5064 0.0
C2263 C 0.75532 0.9839 0.48934 0.0
C2264 C 0.75601 0.99391 0.45776 0.0
C2265 C 0.7558 0.95084 0.49149 0.0
C2266 C 0.72969 0.99639 0.50522 0.0
C2267 C 0.73858 0.01375 0.52776 0.0
C2268 C 0.71911 0.02815 0.54531 0.0
C2269 C 0.68967 0.0247 0.53977 0.0
C2270 C 0.67984 0.00689 0.5169 0.0
C2271 C 0.70026 0.99263 0.49938 0.0
loop_
_geom_bond_atom_site_label_1
_geom_bond_atom_site_label_2
_geom_bond_distance
_geom_bond_site_symmetry_2
_ccdc_geom_bond_type
Li0 N17 1.990 . S
Li0 O60 1.956 . S
Li0 O61 1.970 . S
Li0 O62 1.961 . S
Li1 N25 1.990 . S
Li1 O60 1.970 . S
Li1 O61 1.956 . S
Li1 O63 1.961 . S
Li2 N47 1.990 . S
Li2 O60 1.961 . S
Li2 O62 1.956 . S
Li2 O63 1.970 . S
Li3 N53 1.990 . S
Li3 O61 1.961 . S
Li3 O62 1.970 . S
Li3 O63 1.956 . S
C4 C6 1.348 . S
C4 C7 1.356 . S
C4 O60 1.325 . S
N5 C8 1.314 . S
N5 C9 1.279 . S
C6 C4 1.348 . S
C6 C8 1.353 . S
C6 H64 0.929 . S
C7 C4 1.356 . S
C7 C9 1.358 . S
C7 H65 0.930 . S
C8 N5 1.314 . S
C8 C6 1.353 . S
C8 H66 0.930 . S
C9 N5 1.279 . S
C9 C7 1.358 . S
C9 H67 0.930 . S
C10 C13 1.348 . S
C10 C14 1.356 . S
C10 O61 1.325 . S
C11 N12 1.279 . S
C11 C14 1.358 . S
C11 H68 0.930 . S
N12 C11 1.279 . S
N12 C15 1.314 . S
C13 C10 1.348 . S
C13 C15 1.353 . S
C13 H69 0.929 . S
C14 C10 1.356 . S
C14 C11 1.358 . S
C14 H70 0.930 . S
C15 N12 1.314 . S
C15 C13 1.353 . S
C15 H71 0.930 . S
C16 N17 1.314 . S
C16 C21 1.353 . S
C16 H22 0.930 . S
N17 Li0 1.990 . S
N17 C16 1.314 . S
N17 C19 1.279 . S
C18 C19 1.358 . S
C18 C20 1.356 . S
C18 H72 0.930 . S
C19 N17 1.279 . S
C19 C18 1.358 . S
C19 H23 0.930 . S
C20 C18 1.356 . S
C20 C21 1.348 . S
C21 C16 1.353 . S
C21 C20 1.348 . S
C21 H73 0.929 . S
H22 C16 0.930 . S
H23 C19 0.930 . S
C24 N25 1.314 . S
C24 C26 1.353 . S
C24 H30 0.930 . S
N25 Li1 1.990 . S
N25 C24 1.314 . S
N25 C28 1.279 . S
C26 C24 1.353 . S
C26 C29 1.348 . S
C26 H74 0.929 . S
C27 C28 1.358 . S
C27 C29 1.356 . S
C27 H75 0.930 . S
C28 N25 1.279 . S
C28 C27 1.358 . S
C28 H31 0.930 . S
C29 C26 1.348 . S
C29 C27 1.356 . S
H30 C24 0.930 . S
H31 C28 0.930 . S
C32 C34 1.348 . S
C32 C35 1.356 . S
C32 O62 1.325 . S
N33 C36 1.314 . S
N33 C37 1.279 . S
C34 C32 1.348 . S
C34 C36 1.353 . S
C34 H76 0.929 . S
C35 C32 1.356 . S
C35 C37 1.358 . S
C35 H77 0.930 . S
C36 N33 1.314 . S
C36 C34 1.353 . S
C36 H78 0.930 . S
C37 N33 1.279 . S
C37 C35 1.358 . S
C37 H79 0.930 . S
C38 C39 1.348 . S
C38 C40 1.356 . S
C38 O63 1.325 . S
C39 C38 1.348 . S
C39 C41 1.353 . S
C39 H80 0.929 . S
C40 C38 1.356 . S
C40 C42 1.358 . S
C40 H81 0.930 . S
C41 C39 1.353 . S
C41 N43 1.314 . S
C41 H82 0.930 . S
C42 C40 1.358 . S
C42 N43 1.279 . S
C42 H83 0.930 . S
N43 C41 1.314 . S
N43 C42 1.279 . S
C44 C46 1.353 . S
C44 N47 1.314 . S
C44 H50 0.930 . S
C45 N47 1.279 . S
C45 C48 1.358 . S
C45 H51 0.930 . S
C46 C44 1.353 . S
C46 C49 1.348 . S
C46 H84 0.929 . S
N47 Li2 1.990 . S
N47 C44 1.314 . S
N47 C45 1.279 . S
C48 C45 1.358 . S
C48 C49 1.356 . S
C48 H85 0.930 . S
C49 C46 1.348 . S
C49 C48 1.356 . S
H50 C44 0.930 . S
H51 C45 0.930 . S
C52 N53 1.314 . S
C52 C54 1.353 . S
C52 H58 0.930 . S
N53 Li3 1.990 . S
N53 C52 1.314 . S
N53 C56 1.279 . S
C54 C52 1.353 . S
C54 C57 1.348 . S
C54 H86 0.929 . S
C55 C56 1.358 . S
C55 C57 1.356 . S
C55 H87 0.930 . S
C56 N53 1.279 . S
C56 C55 1.358 . S
C56 H59 0.930 . S
C57 C54 1.348 . S
C57 C55 1.356 . S
H58 C52 0.930 . S
H59 C56 0.930 . S
O60 Li0 1.956 . S
O60 Li1 1.970 . S
O60 Li2 1.961 . S
O60 C4 1.325 . S
O61 Li0 1.970 . S
O61 Li1 1.956 . S
O61 Li3 1.961 . S
O61 C10 1.325 . S
O62 Li0 1.961 . S
O62 Li2 1.956 . S
O62 Li3 1.970 . S
O62 C32 1.325 . S
O63 Li1 1.961 . S
O63 Li2 1.970 . S
O63 Li3 1.956 . S
O63 C38 1.325 . S
H64 C6 0.929 . S
H65 C7 0.930 . S
H66 C8 0.930 . S
H67 C9 0.930 . S
H68 C11 0.930 . S
H69 C13 0.929 . S
H70 C14 0.930 . S
H71 C15 0.930 . S
H72 C18 0.930 . S
H73 C21 0.929 . S
H74 C26 0.929 . S
H75 C27 0.930 . S
H76 C34 0.929 . S
H77 C35 0.930 . S
H78 C36 0.930 . S
H79 C37 0.930 . S
H80 C39 0.929 . S
H81 C40 0.930 . S
H82 C41 0.930 . S
H83 C42 0.930 . S
H84 C46 0.929 . S
H85 C48 0.930 . S
H86 C54 0.929 . S
H87 C55 0.930 . S
Li88 N105 1.990 . S
Li88 O148 1.956 . S
Li88 O149 1.970 . S
Li88 O150 1.961 1_655 S
Li89 N113 1.990 . S
Li89 O148 1.970 . S
Li89 O149 1.956 . S
Li89 O151 1.961 1_545 S
Li90 N135 1.990 . S
Li90 O148 1.961 . S
Li90 O150 1.956 1_655 S
Li90 O151 1.970 1_545 S
Li91 N141 1.996 1_655 S
Li91 O149 1.954 1_565 S
Li91 O150 1.964 1_665 S
Li91 O151 1.960 . S
C92 C94 1.348 . S
C92 C95 1.356 . S
C92 O148 1.325 . S
N93 C96 1.314 . S
N93 C97 1.279 . S
C94 C92 1.348 . S
C94 C96 1.353 . S
C94 H152 0.929 . S
C95 C92 1.356 . S
C95 C97 1.358 . S
C95 H153 0.930 . S
C96 N93 1.314 . S
C96 C94 1.353 . S
C96 H154 0.930 . S
C97 N93 1.279 . S
C97 C95 1.358 . S
C97 H155 0.930 . S
C98 C101 1.348 . S
C98 C102 1.356 . S
C98 O149 1.325 . S
C99 N100 1.279 . S
C99 C102 1.358 . S
C99 H156 0.930 . S
N100 C99 1.279 . S
N100 C103 1.314 . S
C101 C98 1.348 . S
C101 C103 1.353 . S
C101 H157 0.929 . S
C102 C98 1.356 . S
C102 C99 1.358 . S
C102 H158 0.930 1_545 S
C103 N100 1.314 . S
C103 C101 1.353 . S
C103 H159 0.930 . S
C104 N105 1.314 1_455 S
C104 C109 1.353 . S
C104 H110 0.930 . S
N105 Li88 1.990 . S
N105 C104 1.314 1_655 S
N105 C107 1.279 . S
C106 C107 1.358 . S
C106 C108 1.356 1_655 S
C106 H160 0.930 . S
C107 N105 1.279 . S
C107 C106 1.358 . S
C107 H111 0.930 . S
C108 C106 1.356 1_455 S
C108 C109 1.348 . S
C109 C104 1.353 . S
C109 C108 1.348 . S
C109 H161 0.929 . S
H110 C104 0.930 . S
H111 C107 0.930 . S
C112 N113 1.314 1_565 S
C112 C114 1.353 . S
C112 H118 0.930 . S
N113 Li89 1.990 . S
N113 C112 1.314 1_545 S
N113 C116 1.279 . S
C114 C112 1.353 . S
C114 C117 1.348 1_565 S
C114 H162 0.929 . S
C115 C116 1.358 . S
C115 C117 1.356 . S
C115 H163 0.930 . S
C116 N113 1.279 . S
C116 C115 1.358 . S
C116 H119 0.930 . S
C117 C114 1.348 1_545 S
C117 C115 1.356 . S
H118 C112 0.930 . S
H119 C116 0.930 . S
C120 C122 1.348 . S
C120 C123 1.356 . S
C120 O150 1.325 . S
N121 C124 1.314 . S
N121 C125 1.279 . S
C122 C120 1.348 . S
C122 C124 1.353 . S
C122 H164 0.929 1_545 S
C123 C120 1.356 . S
C123 C125 1.358 . S
C123 H165 0.930 . S
C124 N121 1.314 . S
C124 C122 1.353 . S
C124 H166 0.930 . S
C125 N121 1.279 . S
C125 C123 1.358 . S
C125 H167 0.930 . S
C126 C127 1.348 . S
C126 C128 1.356 . S
C126 O151 1.325 . S
C127 C126 1.348 . S
C127 C129 1.353 . S
C127 H168 0.929 . S
C128 C126 1.356 . S
C128 C130 1.358 . S
C128 H169 0.930 . S
C129 C127 1.353 . S
C129 N131 1.314 . S
C129 H170 0.930 . S
C130 C128 1.358 . S
C130 N131 1.279 . S
C130 H171 0.930 . S
N131 C129 1.314 . S
N131 C130 1.279 . S
C132 C134 1.353 1_545 S
C132 N135 1.314 . S
C132 H138 0.930 . S
C133 N135 1.279 1_465 S
C133 C136 1.358 . S
C133 H139 0.930 1_565 S
C134 C132 1.353 1_565 S
C134 C137 1.348 . S
C134 H172 0.929 . S
N135 Li90 1.990 . S
N135 C132 1.314 . S
N135 C133 1.279 1_645 S
C136 C133 1.358 . S
C136 C137 1.356 1_455 S
C136 H173 0.930 . S
C137 C134 1.348 . S
C137 C136 1.356 1_655 S
H138 C132 0.930 . S
H139 C133 0.930 1_545 S
C140 N141 1.314 . S
C140 C142 1.353 . S
C140 H146 0.930 1_565 S
N141 Li91 1.996 1_455 S
N141 C140 1.314 . S
N141 C144 1.279 . S
C142 C140 1.353 . S
C142 C145 1.348 . S
C142 H174 0.929 . S
C143 C144 1.358 . S
C143 C145 1.356 . S
C143 H175 0.930 . S
C144 N141 1.279 . S
C144 C143 1.358 . S
C144 H147 0.930 . S
C145 C142 1.348 . S
C145 C143 1.356 . S
H146 C140 0.930 1_545 S
H147 C144 0.930 . S
O148 Li88 1.956 . S
O148 Li89 1.970 . S
O148 Li90 1.961 . S
O148 C92 1.325 . S
O149 Li88 1.970 . S
O149 Li89 1.956 . S
O149 Li91 1.954 1_545 S
O149 C98 1.325 . S
O150 Li88 1.961 1_455 S
O150 Li90 1.956 1_455 S
O150 Li91 1.964 1_445 S
O150 C120 1.325 . S
O151 Li89 1.961 1_565 S
O151 Li90 1.970 1_565 S
O151 Li91 1.960 . S
O151 C126 1.325 . S
H152 C94 0.929 . S
H153 C95 0.930 . S
H154 C96 0.930 . S
H155 C97 0.930 . S
H156 C99 0.930 . S
H157 C101 0.929 . S
H158 C102 0.930 1_565 S
H159 C103 0.930 . S
H160 C106 0.930 . S
H161 C109 0.929 . S
H162 C114 0.929 . S
H163 C115 0.930 . S
H164 C122 0.929 1_565 S
H165 C123 0.930 . S
H166 C124 0.930 . S
H167 C125 0.930 . S
H168 C127 0.929 . S
H169 C128 0.930 . S
H170 C129 0.930 . S
H171 C130 0.930 . S
H172 C134 0.929 . S
H173 C136 0.930 . S
H174 C142 0.929 . S
H175 C143 0.930 . S
Li176 N193 1.990 . S
Li176 O236 1.956 . S
Li176 O237 1.970 . S
Li176 O238 1.961 . S
Li177 N201 1.990 . S
Li177 O236 1.970 . S
Li177 O237 1.956 . S
Li177 O239 1.961 . S
Li178 N223 1.990 . S
Li178 O236 1.961 . S
Li178 O238 1.956 . S
Li178 O239 1.970 . S
Li179 N229 1.990 . S
Li179 O237 1.961 . S
Li179 O238 1.970 . S
Li179 O239 1.956 . S
C180 C182 1.348 . S
C180 C183 1.356 . S
C180 O236 1.325 . S
N181 C184 1.314 . S
N181 C185 1.279 . S
C182 C180 1.348 . S
C182 C184 1.353 . S
C182 H240 0.929 . S
C183 C180 1.356 . S
C183 C185 1.358 . S
C183 H241 0.930 . S
C184 N181 1.314 . S
C184 C182 1.353 . S
C184 H242 0.930 . S
C185 N181 1.279 . S
C185 C183 1.358 . S
C185 H243 0.930 . S
C186 C189 1.348 . S
C186 C190 1.356 . S
C186 O237 1.325 . S
C187 N188 1.279 . S
C187 C190 1.358 . S
C187 H244 0.930 . S
N188 C187 1.279 . S
N188 C191 1.314 . S
C189 C186 1.348 . S
C189 C191 1.353 . S
C189 H245 0.929 . S
C190 C186 1.356 . S
C190 C187 1.358 . S
C190 H246 0.930 . S
C191 N188 1.314 . S
C191 C189 1.353 . S
C191 H247 0.930 . S
C192 N193 1.314 . S
C192 C197 1.353 . S
C192 H198 0.930 . S
N193 Li176 1.990 . S
N193 C192 1.314 . S
N193 C195 1.279 . S
C194 C195 1.358 . S
C194 C196 1.356 . S
C194 H248 0.930 . S
C195 N193 1.279 . S
C195 C194 1.358 . S
C195 H199 0.930 . S
C196 C194 1.356 . S
C196 C197 1.348 . S
C197 C192 1.353 . S
C197 C196 1.348 . S
C197 H249 0.929 . S
H198 C192 0.930 . S
H199 C195 0.930 . S
C200 N201 1.314 . S
C200 C202 1.353 . S
C200 H206 0.930 . S
N201 Li177 1.990 . S
N201 C200 1.314 . S
N201 C204 1.279 . S
C202 C200 1.353 . S
C202 C205 1.348 . S
C202 H250 0.929 . S
C203 C204 1.358 . S
C203 C205 1.356 . S
C203 H251 0.930 . S
C204 N201 1.279 . S
C204 C203 1.358 . S
C204 H207 0.930 . S
C205 C202 1.348 . S
C205 C203 1.356 . S
H206 C200 0.930 . S
H207 C204 0.930 . S
C208 C210 1.348 . S
C208 C211 1.356 . S
C208 O238 1.325 . S
N209 C212 1.314 . S
N209 C213 1.279 . S
C210 C208 1.348 . S
C210 C212 1.353 . S
C210 H252 0.929 . S
C211 C208 1.356 . S
C211 C213 1.358 . S
C211 H253 0.930 . S
C212 N209 1.314 . S
C212 C210 1.353 . S
C212 H254 0.930 . S
C213 N209 1.279 . S
C213 C211 1.358 . S
C213 H255 0.930 . S
C214 C215 1.348 . S
C214 C216 1.356 . S
C214 O239 1.325 . S
C215 C214 1.348 . S
C215 C217 1.353 . S
C215 H256 0.929 . S
C216 C214 1.356 . S
C216 C218 1.358 . S
C216 H257 0.930 . S
C217 C215 1.353 . S
C217 N219 1.314 . S
C217 H258 0.930 . S
C218 C216 1.358 . S
C218 N219 1.279 . S
C218 H259 0.930 . S
N219 C217 1.314 . S
N219 C218 1.279 . S
C220 C222 1.353 . S
C220 N223 1.314 . S
C220 H226 0.930 . S
C221 N223 1.279 . S
C221 C224 1.358 . S
C221 H227 0.930 . S
C222 C220 1.353 . S
C222 C225 1.348 . S
C222 H260 0.929 . S
N223 Li178 1.990 . S
N223 C220 1.314 . S
N223 C221 1.279 . S
C224 C221 1.358 . S
C224 C225 1.356 . S
C224 H261 0.930 . S
C225 C222 1.348 . S
C225 C224 1.356 . S
H226 C220 0.930 . S
H227 C221 0.930 . S
C228 N229 1.314 . S
C228 C230 1.353 . S
C228 H234 0.930 . S
N229 Li179 1.990 . S
N229 C228 1.314 . S
N229 C232 1.279 . S
C230 C228 1.353 . S
C230 C233 1.348 . S
C230 H262 0.929 . S
C231 C232 1.358 . S
C231 C233 1.356 . S
C231 H263 0.930 . S
C232 N229 1.279 . S
C232 C231 1.358 . S
C232 H235 0.930 . S
C233 C230 1.348 . S
C233 C231 1.356 . S
H234 C228 0.930 . S
H235 C232 0.930 . S
O236 Li176 1.956 . S
O236 Li177 1.970 . S
O236 Li178 1.961 . S
O236 C180 1.325 . S
O237 Li176 1.970 . S
O237 Li177 1.956 . S
O237 Li179 1.961 . S
O237 C186 1.325 . S
O238 Li176 1.961 . S
O238 Li178 1.956 . S
O238 Li179 1.970 . S
O238 C208 1.325 . S
O239 Li177 1.961 . S
O239 Li178 1.970 . S
O239 Li179 1.956 . S
O239 C214 1.325 . S
H240 C182 0.929 . S
H241 C183 0.930 . S
H242 C184 0.930 . S
H243 C185 0.930 . S
H244 C187 0.930 . S
H245 C189 0.929 . S
H246 C190 0.930 . S
H247 C191 0.930 . S
H248 C194 0.930 . S
H249 C197 0.929 . S
H250 C202 0.929 . S
H251 C203 0.930 . S
H252 C210 0.929 . S
H253 C211 0.930 . S
H254 C212 0.930 . S
H255 C213 0.930 . S
H256 C215 0.929 . S
H257 C216 0.930 . S
H258 C217 0.930 . S
H259 C218 0.930 . S
H260 C222 0.929 . S
H261 C224 0.930 . S
H262 C230 0.929 . S
H263 C231 0.930 . S
Li264 N281 1.990 . S
Li264 O324 1.956 . S
Li264 O325 1.970 . S
Li264 O326 1.961 1_565 S
Li265 N289 1.990 . S
Li265 O324 1.970 . S
Li265 O325 1.956 . S
Li265 O327 1.961 1_554 S
Li266 N311 1.990 . S
Li266 O324 1.961 . S
Li266 O326 1.956 1_565 S
Li266 O327 1.970 1_554 S
Li267 N317 1.990 1_565 S
Li267 O325 1.961 1_556 S
Li267 O326 1.970 1_566 S
Li267 O327 1.956 . S
C268 C270 1.348 . S
C268 C271 1.356 . S
C268 O324 1.325 . S
N269 C272 1.314 . S
N269 C273 1.279 . S
C270 C268 1.348 . S
C270 C272 1.353 . S
C270 H328 0.929 . S
C271 C268 1.356 . S
C271 C273 1.358 . S
C271 H329 0.930 . S
C272 N269 1.314 . S
C272 C270 1.353 . S
C272 H330 0.930 . S
C273 N269 1.279 . S
C273 C271 1.358 . S
C273 H331 0.930 . S
C274 C277 1.348 . S
C274 C278 1.356 . S
C274 O325 1.325 . S
C275 N276 1.279 . S
C275 C278 1.358 . S
C275 H332 0.930 . S
N276 C275 1.279 . S
N276 C279 1.314 . S
C277 C274 1.348 . S
C277 C279 1.353 . S
C277 H333 0.929 . S
C278 C274 1.356 . S
C278 C275 1.358 . S
C278 H334 0.930 1_554 S
C279 N276 1.314 . S
C279 C277 1.353 . S
C279 H335 0.930 . S
C280 N281 1.314 1_545 S
C280 C285 1.353 . S
C280 H286 0.930 . S
N281 Li264 1.990 . S
N281 C280 1.314 1_565 S
N281 C283 1.279 . S
C282 C283 1.358 . S
C282 C284 1.356 1_565 S
C282 H336 0.930 . S
C283 N281 1.279 . S
C283 C282 1.358 . S
C283 H287 0.930 . S
C284 C282 1.356 1_545 S
C284 C285 1.348 . S
C285 C280 1.353 . S
C285 C284 1.348 . S
C285 H337 0.929 . S
H286 C280 0.930 . S
H287 C283 0.930 . S
C288 N289 1.314 1_556 S
C288 C290 1.353 . S
C288 H294 0.930 . S
N289 Li265 1.990 . S
N289 C288 1.314 1_554 S
N289 C292 1.279 . S
C290 C288 1.353 . S
C290 C293 1.343 1_556 S
C290 H338 0.929 . S
C291 C292 1.358 . S
C291 C293 1.361 . S
C291 H339 0.930 . S
C292 N289 1.279 . S
C292 C291 1.358 . S
C292 H295 0.930 . S
C293 C290 1.343 1_554 S
C293 C291 1.361 . S
H294 C288 0.930 . S
H295 C292 0.930 . S
C296 C298 1.348 . S
C296 C299 1.356 . S
C296 O326 1.325 . S
N297 C300 1.314 . S
N297 C301 1.279 . S
C298 C296 1.348 . S
C298 C300 1.353 . S
C298 H340 0.929 1_554 S
C299 C296 1.356 . S
C299 C301 1.358 . S
C299 H341 0.930 . S
C300 N297 1.314 . S
C300 C298 1.353 . S
C300 H342 0.930 . S
C301 N297 1.279 . S
C301 C299 1.358 . S
C301 H343 0.930 . S
C302 C303 1.348 . S
C302 C304 1.356 . S
C302 O327 1.325 . S
C303 C302 1.348 . S
C303 C305 1.353 . S
C303 H344 0.929 . S
C304 C302 1.356 . S
C304 C306 1.358 . S
C304 H345 0.930 . S
C305 C303 1.353 . S
C305 N307 1.314 . S
C305 H346 0.930 . S
C306 C304 1.358 . S
C306 N307 1.279 . S
C306 H347 0.930 . S
N307 C305 1.314 . S
N307 C306 1.279 . S
C308 C310 1.347 1_554 S
C308 N311 1.317 . S
C308 H314 0.933 . S
C309 N311 1.279 1_546 S
C309 C312 1.358 . S
C309 H315 0.928 1_556 S
C310 C308 1.347 1_556 S
C310 C313 1.348 . S
C310 H348 0.929 . S
N311 Li266 1.990 . S
N311 C308 1.317 . S
N311 C309 1.279 1_564 S
C312 C309 1.358 . S
C312 C313 1.356 1_545 S
C312 H349 0.930 . S
C313 C310 1.348 . S
C313 C312 1.356 1_565 S
H314 C308 0.933 . S
H315 C309 0.928 1_554 S
C316 N317 1.314 . S
C316 C318 1.353 . S
C316 H322 0.930 1_556 S
N317 Li267 1.990 1_545 S
N317 C316 1.314 . S
N317 C320 1.279 . S
C318 C316 1.353 . S
C318 C321 1.348 . S
C318 H350 0.929 . S
C319 C320 1.358 . S
C319 C321 1.356 . S
C319 H351 0.930 . S
C320 N317 1.279 . S
C320 C319 1.358 . S
C320 H323 0.930 . S
C321 C318 1.348 . S
C321 C319 1.356 . S
H322 C316 0.930 1_554 S
H323 C320 0.930 . S
O324 Li264 1.956 . S
O324 Li265 1.970 . S
O324 Li266 1.961 . S
O324 C268 1.325 . S
O325 Li264 1.970 . S
O325 Li265 1.956 . S
O325 Li267 1.961 1_554 S
O325 C274 1.325 . S
O326 Li264 1.961 1_545 S
O326 Li266 1.956 1_545 S
O326 Li267 1.970 1_544 S
O326 C296 1.325 . S
O327 Li265 1.961 1_556 S
O327 Li266 1.970 1_556 S
O327 Li267 1.956 . S
O327 C302 1.325 . S
H328 C270 0.929 . S
H329 C271 0.930 . S
H330 C272 0.930 . S
H331 C273 0.930 . S
H332 C275 0.930 . S
H333 C277 0.929 . S
H334 C278 0.930 1_556 S
H335 C279 0.930 . S
H336 C282 0.930 . S
H337 C285 0.929 . S
H338 C290 0.929 . S
H339 C291 0.930 . S
H340 C298 0.929 1_556 S
H341 C299 0.930 . S
H342 C300 0.930 . S
H343 C301 0.930 . S
H344 C303 0.929 . S
H345 C304 0.930 . S
H346 C305 0.930 . S
H347 C306 0.930 . S
H348 C310 0.929 . S
H349 C312 0.930 . S
H350 C318 0.929 . S
H351 C319 0.930 . S
Li352 N369 1.990 . S
Li352 O412 1.956 . S
Li352 O413 1.970 . S
Li352 O414 1.961 . S
Li353 N377 1.990 . S
Li353 O412 1.970 . S
Li353 O413 1.956 . S
Li353 O415 1.961 . S
Li354 N399 1.990 . S
Li354 O412 1.961 . S
Li354 O414 1.956 . S
Li354 O415 1.970 . S
Li355 N405 1.990 . S
Li355 O413 1.961 . S
Li355 O414 1.970 . S
Li355 O415 1.956 . S
C356 C358 1.348 . S
C356 C359 1.356 . S
C356 O412 1.325 . S
N357 C360 1.314 . S
N357 C361 1.279 . S
C358 C356 1.348 . S
C358 C360 1.353 . S
C358 H416 0.929 . S
C359 C356 1.356 . S
C359 C361 1.358 . S
C359 H417 0.930 . S
C360 N357 1.314 . S
C360 C358 1.353 . S
C360 H418 0.930 . S
C361 N357 1.279 . S
C361 C359 1.358 . S
C361 H419 0.930 . S
C362 C365 1.348 . S
C362 C366 1.356 . S
C362 O413 1.325 . S
C363 N364 1.279 . S
C363 C366 1.358 . S
C363 H420 0.930 . S
N364 C363 1.279 . S
N364 C367 1.314 . S
C365 C362 1.348 . S
C365 C367 1.353 . S
C365 H421 0.929 . S
C366 C362 1.356 . S
C366 C363 1.358 . S
C366 H422 0.930 . S
C367 N364 1.314 . S
C367 C365 1.353 . S
C367 H423 0.930 . S
C368 N369 1.314 . S
C368 C373 1.353 . S
C368 H374 0.930 . S
N369 Li352 1.990 . S
N369 C368 1.314 . S
N369 C371 1.279 . S
C370 C371 1.358 . S
C370 C372 1.356 . S
C370 H424 0.930 . S
C371 N369 1.279 . S
C371 C370 1.358 . S
C371 H375 0.930 . S
C372 C370 1.356 . S
C372 C373 1.348 . S
C373 C368 1.353 . S
C373 C372 1.348 . S
C373 H425 0.929 . S
H374 C368 0.930 . S
H375 C371 0.930 . S
C376 N377 1.314 . S
C376 C378 1.353 . S
C376 H382 0.930 . S
N377 Li353 1.990 . S
N377 C376 1.314 . S
N377 C380 1.279 . S
C378 C376 1.353 . S
C378 C381 1.348 . S
C378 H426 0.929 . S
C379 C380 1.358 . S
C379 C381 1.356 . S
C379 H427 0.930 . S
C380 N377 1.279 . S
C380 C379 1.358 . S
C380 H383 0.930 . S
C381 C378 1.348 . S
C381 C379 1.356 . S
H382 C376 0.930 . S
H383 C380 0.930 . S
C384 C386 1.348 . S
C384 C387 1.356 . S
C384 O414 1.325 . S
N385 C388 1.314 . S
N385 C389 1.279 . S
C386 C384 1.348 . S
C386 C388 1.353 . S
C386 H428 0.929 . S
C387 C384 1.356 . S
C387 C389 1.358 . S
C387 H429 0.930 . S
C388 N385 1.314 . S
C388 C386 1.353 . S
C388 H430 0.930 . S
C389 N385 1.279 . S
C389 C387 1.358 . S
C389 H431 0.930 . S
C390 C391 1.348 . S
C390 C392 1.356 . S
C390 O415 1.325 . S
C391 C390 1.348 . S
C391 C393 1.353 . S
C391 H432 0.929 . S
C392 C390 1.356 . S
C392 C394 1.358 . S
C392 H433 0.930 . S
C393 C391 1.353 . S
C393 N395 1.314 . S
C393 H434 0.930 . S
C394 C392 1.358 . S
C394 N395 1.279 . S
C394 H435 0.930 . S
N395 C393 1.314 . S
N395 C394 1.279 . S
C396 C398 1.353 . S
C396 N399 1.314 . S
C396 H402 0.930 . S
C397 N399 1.279 . S
C397 C400 1.358 . S
C397 H403 0.930 . S
C398 C396 1.353 . S
C398 C401 1.348 . S
C398 H436 0.929 . S
N399 Li354 1.990 . S
N399 C396 1.314 . S
N399 C397 1.279 . S
C400 C397 1.358 . S
C400 C401 1.356 . S
C400 H437 0.930 . S
C401 C398 1.348 . S
C401 C400 1.356 . S
H402 C396 0.930 . S
H403 C397 0.930 . S
C404 N405 1.314 . S
C404 C406 1.353 . S
C404 H410 0.930 . S
N405 Li355 1.990 . S
N405 C404 1.314 . S
N405 C408 1.279 . S
C406 C404 1.353 . S
C406 C409 1.348 . S
C406 H438 0.929 . S
C407 C408 1.358 . S
C407 C409 1.356 . S
C407 H439 0.930 . S
C408 N405 1.279 . S
C408 C407 1.358 . S
C408 H411 0.930 . S
C409 C406 1.348 . S
C409 C407 1.356 . S
H410 C404 0.930 . S
H411 C408 0.930 . S
O412 Li352 1.956 . S
O412 Li353 1.970 . S
O412 Li354 1.961 . S
O412 C356 1.325 . S
O413 Li352 1.970 . S
O413 Li353 1.956 . S
O413 Li355 1.961 . S
O413 C362 1.325 . S
O414 Li352 1.961 . S
O414 Li354 1.956 . S
O414 Li355 1.970 . S
O414 C384 1.325 . S
O415 Li353 1.961 . S
O415 Li354 1.970 . S
O415 Li355 1.956 . S
O415 C390 1.325 . S
H416 C358 0.929 . S
H417 C359 0.930 . S
H418 C360 0.930 . S
H419 C361 0.930 . S
H420 C363 0.930 . S
H421 C365 0.929 . S
H422 C366 0.930 . S
H423 C367 0.930 . S
H424 C370 0.930 . S
H425 C373 0.929 . S
H426 C378 0.929 . S
H427 C379 0.930 . S
H428 C386 0.929 . S
H429 C387 0.930 . S
H430 C388 0.930 . S
H431 C389 0.930 . S
H432 C391 0.929 . S
H433 C392 0.930 . S
H434 C393 0.930 . S
H435 C394 0.930 . S
H436 C398 0.929 . S
H437 C400 0.930 . S
H438 C406 0.929 . S
H439 C407 0.930 . S
Li440 N457 1.990 . S
Li440 O500 1.956 . S
Li440 O501 1.970 . S
Li440 O502 1.961 1_545 S
Li441 N465 1.990 . S
Li441 O500 1.970 . S
Li441 O501 1.956 . S
Li441 O503 1.961 . S
Li442 N487 1.999 . S
Li442 O500 1.950 1_565 S
Li442 O502 1.961 . S
Li442 O503 1.961 1_565 S
Li443 N493 1.990 . S
Li443 O501 1.961 . S
Li443 O502 1.970 1_545 S
Li443 O503 1.956 . S
C444 C446 1.348 . S
C444 C447 1.356 . S
C444 O500 1.325 . S
N445 C448 1.314 . S
N445 C449 1.279 . S
C446 C444 1.348 . S
C446 C448 1.353 . S
C446 H504 0.929 . S
C447 C444 1.356 . S
C447 C449 1.358 . S
C447 H505 0.930 1_545 S
C448 N445 1.314 . S
C448 C446 1.353 . S
C448 H506 0.930 . S
C449 N445 1.279 . S
C449 C447 1.358 . S
C449 H507 0.930 . S
C450 C453 1.348 . S
C450 C454 1.356 . S
C450 O501 1.325 . S
C451 N452 1.279 . S
C451 C454 1.358 . S
C451 H508 0.930 . S
N452 C451 1.279 . S
N452 C455 1.314 . S
C453 C450 1.348 . S
C453 C455 1.353 . S
C453 H509 0.929 . S
C454 C450 1.356 . S
C454 C451 1.358 . S
C454 H510 0.930 . S
C455 N452 1.314 . S
C455 C453 1.353 . S
C455 H511 0.930 . S
C456 N457 1.314 1_565 S
C456 C461 1.353 . S
C456 H462 0.930 . S
N457 Li440 1.990 . S
N457 C456 1.314 1_545 S
N457 C459 1.279 . S
C458 C459 1.358 . S
C458 C460 1.356 . S
C458 H512 0.930 . S
C459 N457 1.279 . S
C459 C458 1.358 . S
C459 H463 0.930 . S
C460 C458 1.356 . S
C460 C461 1.348 1_545 S
C461 C456 1.353 . S
C461 C460 1.348 1_565 S
C461 H513 0.929 . S
H462 C456 0.930 . S
H463 C459 0.930 . S
C464 N465 1.314 . S
C464 C466 1.353 . S
C464 H470 0.930 . S
N465 Li441 1.990 . S
N465 C464 1.314 . S
N465 C468 1.279 . S
C466 C464 1.353 . S
C466 C469 1.348 . S
C466 H514 0.929 . S
C467 C468 1.358 . S
C467 C469 1.356 . S
C467 H515 0.930 . S
C468 N465 1.279 . S
C468 C467 1.358 . S
C468 H471 0.930 . S
C469 C466 1.348 . S
C469 C467 1.356 . S
H470 C464 0.930 . S
H471 C468 0.930 . S
C472 C474 1.348 . S
C472 C475 1.356 . S
C472 O502 1.325 . S
N473 C476 1.314 . S
N473 C477 1.279 . S
C474 C472 1.348 . S
C474 C476 1.353 . S
C474 H516 0.929 . S
C475 C472 1.356 . S
C475 C477 1.358 . S
C475 H517 0.930 . S
C476 N473 1.314 . S
C476 C474 1.353 . S
C476 H518 0.930 . S
C477 N473 1.279 . S
C477 C475 1.358 . S
C477 H519 0.930 . S
C478 C479 1.348 . S
C478 C480 1.356 . S
C478 O503 1.325 . S
C479 C478 1.348 . S
C479 C481 1.353 . S
C479 H520 0.929 1_545 S
C480 C478 1.356 . S
C480 C482 1.358 . S
C480 H521 0.930 . S
C481 C479 1.353 . S
C481 N483 1.314 . S
C481 H522 0.930 . S
C482 C480 1.358 . S
C482 N483 1.279 . S
C482 H523 0.930 . S
N483 C481 1.314 . S
N483 C482 1.279 . S
C484 C486 1.353 . S
C484 N487 1.314 . S
C484 H490 0.930 1_565 S
C485 N487 1.279 . S
C485 C488 1.358 . S
C485 H491 0.930 . S
C486 C484 1.353 . S
C486 C489 1.348 . S
C486 H524 0.929 . S
N487 Li442 1.999 . S
N487 C484 1.314 . S
N487 C485 1.279 . S
C488 C485 1.358 . S
C488 C489 1.356 . S
C488 H525 0.930 . S
C489 C486 1.348 . S
C489 C488 1.356 . S
H490 C484 0.930 1_545 S
H491 C485 0.930 . S
C492 N493 1.314 . S
C492 C494 1.353 1_545 S
C492 H498 0.930 . S
N493 Li443 1.990 . S
N493 C492 1.314 . S
N493 C496 1.275 1_545 S
C494 C492 1.353 1_565 S
C494 C497 1.348 . S
C494 H526 0.929 . S
C495 C496 1.365 . S
C495 C497 1.356 . S
C495 H527 0.930 . S
C496 N493 1.275 1_565 S
C496 C495 1.365 . S
C496 H499 0.928 1_565 S
C497 C494 1.348 . S
C497 C495 1.356 . S
H498 C492 0.930 . S
H499 C496 0.928 1_545 S
O500 Li440 1.956 . S
O500 Li441 1.970 . S
O500 Li442 1.950 1_545 S
O500 C444 1.325 . S
O501 Li440 1.970 . S
O501 Li441 1.956 . S
O501 Li443 1.961 . S
O501 C450 1.325 . S
O502 Li440 1.961 1_565 S
O502 Li442 1.961 . S
O502 Li443 1.970 1_565 S
O502 C472 1.325 . S
O503 Li441 1.961 . S
O503 Li442 1.961 1_545 S
O503 Li443 1.956 . S
O503 C478 1.325 . S
H504 C446 0.929 . S
H505 C447 0.930 1_565 S
H506 C448 0.930 . S
H507 C449 0.930 . S
H508 C451 0.930 . S
H509 C453 0.929 . S
H510 C454 0.930 . S
H511 C455 0.930 . S
H512 C458 0.930 . S
H513 C461 0.929 . S
H514 C466 0.929 . S
H515 C467 0.930 . S
H516 C474 0.929 . S
H517 C475 0.930 . S
H518 C476 0.930 . S
H519 C477 0.930 . S
H520 C479 0.929 1_565 S
H521 C480 0.930 . S
H522 C481 0.930 . S
H523 C482 0.930 . S
H524 C486 0.929 . S
H525 C488 0.930 . S
H526 C494 0.929 . S
H527 C495 0.930 . S
Li528 N545 1.990 . S
Li528 O588 1.956 . S
Li528 O589 1.970 . S
Li528 O590 1.961 . S
Li529 N553 1.990 . S
Li529 O588 1.970 . S
Li529 O589 1.956 . S
Li529 O591 1.961 . S
Li530 N575 1.990 . S
Li530 O588 1.961 . S
Li530 O590 1.956 . S
Li530 O591 1.970 . S
Li531 N581 1.990 . S
Li531 O589 1.961 . S
Li531 O590 1.970 . S
Li531 O591 1.956 . S
C532 C534 1.348 . S
C532 C535 1.356 . S
C532 O588 1.325 . S
N533 C536 1.314 . S
N533 C537 1.279 . S
C534 C532 1.348 . S
C534 C536 1.353 . S
C534 H592 0.929 . S
C535 C532 1.356 . S
C535 C537 1.358 . S
C535 H593 0.930 . S
C536 N533 1.314 . S
C536 C534 1.353 . S
C536 H594 0.930 . S
C537 N533 1.279 . S
C537 C535 1.358 . S
C537 H595 0.930 . S
C538 C541 1.348 . S
C538 C542 1.356 . S
C538 O589 1.325 . S
C539 N540 1.279 . S
C539 C542 1.358 . S
C539 H596 0.930 . S
N540 C539 1.279 . S
N540 C543 1.314 . S
C541 C538 1.348 . S
C541 C543 1.353 . S
C541 H597 0.929 . S
C542 C538 1.356 . S
C542 C539 1.358 . S
C542 H598 0.930 . S
C543 N540 1.314 . S
C543 C541 1.353 . S
C543 H599 0.930 . S
C544 N545 1.314 . S
C544 C549 1.353 . S
C544 H550 0.930 . S
N545 Li528 1.990 . S
N545 C544 1.314 . S
N545 C547 1.279 . S
C546 C547 1.358 . S
C546 C548 1.356 . S
C546 H600 0.930 . S
C547 N545 1.279 . S
C547 C546 1.358 . S
C547 H551 0.930 . S
C548 C546 1.356 . S
C548 C549 1.348 . S
C549 C544 1.353 . S
C549 C548 1.348 . S
C549 H601 0.929 . S
H550 C544 0.930 . S
H551 C547 0.930 . S
C552 N553 1.314 . S
C552 C554 1.353 . S
C552 H558 0.930 . S
N553 Li529 1.990 . S
N553 C552 1.314 . S
N553 C556 1.279 . S
C554 C552 1.353 . S
C554 C557 1.348 . S
C554 H602 0.929 . S
C555 C556 1.358 . S
C555 C557 1.356 . S
C555 H603 0.930 . S
C556 N553 1.279 . S
C556 C555 1.358 . S
C556 H559 0.930 . S
C557 C554 1.348 . S
C557 C555 1.356 . S
H558 C552 0.930 . S
H559 C556 0.930 . S
C560 C562 1.348 . S
C560 C563 1.356 . S
C560 O590 1.325 . S
N561 C564 1.314 . S
N561 C565 1.279 . S
C562 C560 1.348 . S
C562 C564 1.353 . S
C562 H604 0.929 . S
C563 C560 1.356 . S
C563 C565 1.358 . S
C563 H605 0.930 . S
C564 N561 1.314 . S
C564 C562 1.353 . S
C564 H606 0.930 . S
C565 N561 1.279 . S
C565 C563 1.358 . S
C565 H607 0.930 . S
C566 C567 1.348 . S
C566 C568 1.356 . S
C566 O591 1.325 . S
C567 C566 1.348 . S
C567 C569 1.353 . S
C567 H608 0.929 . S
C568 C566 1.356 . S
C568 C570 1.358 . S
C568 H609 0.930 . S
C569 C567 1.353 . S
C569 N571 1.314 . S
C569 H610 0.930 . S
C570 C568 1.358 . S
C570 N571 1.279 . S
C570 H611 0.930 . S
N571 C569 1.314 . S
N571 C570 1.279 . S
C572 C574 1.353 . S
C572 N575 1.314 . S
C572 H578 0.930 . S
C573 N575 1.279 . S
C573 C576 1.358 . S
C573 H579 0.930 . S
C574 C572 1.353 . S
C574 C577 1.348 . S
C574 H612 0.929 . S
N575 Li530 1.990 . S
N575 C572 1.314 . S
N575 C573 1.279 . S
C576 C573 1.358 . S
C576 C577 1.356 . S
C576 H613 0.930 . S
C577 C574 1.348 . S
C577 C576 1.356 . S
H578 C572 0.930 . S
H579 C573 0.930 . S
C580 N581 1.314 . S
C580 C582 1.353 . S
C580 H586 0.930 . S
N581 Li531 1.990 . S
N581 C580 1.314 . S
N581 C584 1.279 . S
C582 C580 1.353 . S
C582 C585 1.348 . S
C582 H614 0.929 . S
C583 C584 1.358 . S
C583 C585 1.356 . S
C583 H615 0.930 . S
C584 N581 1.279 . S
C584 C583 1.358 . S
C584 H587 0.930 . S
C585 C582 1.348 . S
C585 C583 1.356 . S
H586 C580 0.930 . S
H587 C584 0.930 . S
O588 Li528 1.956 . S
O588 Li529 1.970 . S
O588 Li530 1.961 . S
O588 C532 1.325 . S
O589 Li528 1.970 . S
O589 Li529 1.956 . S
O589 Li531 1.961 . S
O589 C538 1.325 . S
O590 Li528 1.961 . S
O590 Li530 1.956 . S
O590 Li531 1.970 . S
O590 C560 1.325 . S
O591 Li529 1.961 . S
O591 Li530 1.970 . S
O591 Li531 1.956 . S
O591 C566 1.325 . S
H592 C534 0.929 . S
H593 C535 0.930 . S
H594 C536 0.930 . S
H595 C537 0.930 . S
H596 C539 0.930 . S
H597 C541 0.929 . S
H598 C542 0.930 . S
H599 C543 0.930 . S
H600 C546 0.930 . S
H601 C549 0.929 . S
H602 C554 0.929 . S
H603 C555 0.930 . S
H604 C562 0.929 . S
H605 C563 0.930 . S
H606 C564 0.930 . S
H607 C565 0.930 . S
H608 C567 0.929 . S
H609 C568 0.930 . S
H610 C569 0.930 . S
H611 C570 0.930 . S
H612 C574 0.929 . S
H613 C576 0.930 . S
H614 C582 0.929 . S
H615 C583 0.930 . S
Li616 N633 1.990 . S
Li616 O676 1.956 1_655 S
Li616 O677 1.970 1_565 S
Li616 O678 1.961 . S
Li617 N641 1.992 1_666 S
Li617 O676 1.968 1_655 S
Li617 O677 1.957 1_565 S
Li617 O679 1.958 1_556 S
Li618 N663 1.990 . S
Li618 O676 1.961 1_655 S
Li618 O678 1.956 . S
Li618 O679 1.970 1_556 S
Li619 N669 1.986 1_556 S
Li619 O677 1.961 1_565 S
Li619 O678 1.970 . S
Li619 O679 1.956 1_556 S
C620 C622 1.348 . S
C620 C623 1.356 . S
C620 O676 1.325 . S
N621 C624 1.314 . S
N621 C625 1.279 . S
C622 C620 1.348 . S
C622 C624 1.353 . S
C622 H680 0.929 1_565 S
C623 C620 1.356 . S
C623 C625 1.358 . S
C623 H681 0.930 . S
C624 N621 1.314 . S
C624 C622 1.353 . S
C624 H682 0.930 . S
C625 N621 1.279 . S
C625 C623 1.358 . S
C625 H683 0.930 . S
C626 C629 1.348 . S
C626 C630 1.356 . S
C626 O677 1.325 . S
C627 N628 1.279 . S
C627 C630 1.358 . S
C627 H684 0.937 . S
N628 C627 1.279 . S
N628 C631 1.314 . S
C629 C626 1.348 . S
C629 C631 1.353 . S
C629 H685 0.929 . S
C630 C626 1.356 . S
C630 C627 1.358 . S
C630 H686 0.930 1_556 S
C631 N628 1.314 . S
C631 C629 1.353 . S
C631 H687 0.930 . S
C632 N633 1.314 . S
C632 C637 1.353 1_565 S
C632 H638 0.930 . S
N633 Li616 1.990 . S
N633 C632 1.314 . S
N633 C635 1.279 1_655 S
C634 C635 1.359 1_545 S
C634 C636 1.356 1_455 S
C634 H688 0.930 . S
C635 N633 1.279 1_455 S
C635 C634 1.359 1_565 S
C635 H639 0.930 . S
C636 C634 1.356 1_655 S
C636 C637 1.348 . S
C637 C632 1.353 1_545 S
C637 C636 1.348 . S
C637 H689 0.929 . S
H638 C632 0.930 . S
H639 C635 0.930 . S
C640 N641 1.314 . S
C640 C642 1.353 . S
C640 H646 0.930 1_545 S
N641 Li617 1.992 1_444 S
N641 C640 1.314 . S
N641 C644 1.279 . S
C642 C640 1.353 . S
C642 C645 1.348 . S
C642 H690 0.929 . S
C643 C644 1.358 . S
C643 C645 1.356 . S
C643 H691 0.930 . S
C644 N641 1.279 . S
C644 C643 1.358 . S
C644 H647 0.930 . S
C645 C642 1.348 . S
C645 C643 1.356 . S
H646 C640 0.930 1_565 S
H647 C644 0.930 . S
C648 C650 1.348 . S
C648 C651 1.356 . S
C648 O678 1.325 . S
N649 C652 1.314 . S
N649 C653 1.279 . S
C650 C648 1.348 . S
C650 C652 1.353 . S
C650 H692 0.929 . S
C651 C648 1.356 . S
C651 C653 1.358 . S
C651 H693 0.930 . S
C652 N649 1.314 . S
C652 C650 1.353 . S
C652 H694 0.930 . S
C653 N649 1.279 . S
C653 C651 1.358 . S
C653 H695 0.930 . S
C654 C655 1.348 . S
C654 C656 1.356 . S
C654 O679 1.325 . S
C655 C654 1.348 . S
C655 C657 1.353 . S
C655 H696 0.929 . S
C656 C654 1.356 . S
C656 C658 1.358 . S
C656 H697 0.930 1_565 S
C657 C655 1.353 . S
C657 N659 1.314 . S
C657 H698 0.930 . S
C658 C656 1.358 . S
C658 N659 1.279 . S
C658 H699 0.930 . S
N659 C657 1.314 . S
N659 C658 1.279 . S
C660 C662 1.346 1_556 S
C660 N663 1.333 1_455 S
C660 H666 0.918 1_556 S
C661 N663 1.279 . S
C661 C664 1.358 . S
C661 H667 0.930 . S
C662 C660 1.346 1_554 S
C662 C665 1.348 1_554 S
C662 H700 0.929 . S
N663 Li618 1.990 . S
N663 C660 1.333 1_655 S
N663 C661 1.279 . S
C664 C661 1.358 . S
C664 C665 1.356 1_655 S
C664 H701 0.930 . S
C665 C662 1.348 1_556 S
C665 C664 1.356 1_455 S
H666 C660 0.918 1_554 S
H667 C661 0.930 . S
C668 N669 1.306 1_546 S
C668 C670 1.353 . S
C668 H674 0.930 . S
N669 Li619 1.986 1_554 S
N669 C668 1.306 1_564 S
N669 C672 1.291 . S
C670 C668 1.353 . S
C670 C673 1.348 1_546 S
C670 H702 0.929 . S
C671 C672 1.358 . S
C671 C673 1.356 . S
C671 H703 0.930 . S
C672 N669 1.291 . S
C672 C671 1.358 . S
C672 H675 0.930 . S
C673 C670 1.348 1_564 S
C673 C671 1.356 . S
H674 C668 0.930 . S
H675 C672 0.930 . S
O676 Li616 1.956 1_455 S
O676 Li617 1.968 1_455 S
O676 Li618 1.961 1_455 S
O676 C620 1.325 . S
O677 Li616 1.970 1_545 S
O677 Li617 1.957 1_545 S
O677 Li619 1.961 1_545 S
O677 C626 1.325 . S
O678 Li616 1.961 . S
O678 Li618 1.956 . S
O678 Li619 1.970 . S
O678 C648 1.325 . S
O679 Li617 1.958 1_554 S
O679 Li618 1.970 1_554 S
O679 Li619 1.956 1_554 S
O679 C654 1.325 . S
H680 C622 0.929 1_545 S
H681 C623 0.930 . S
H682 C624 0.930 . S
H683 C625 0.930 . S
H684 C627 0.937 . S
H685 C629 0.929 . S
H686 C630 0.930 1_554 S
H687 C631 0.930 . S
H688 C634 0.930 . S
H689 C637 0.929 . S
H690 C642 0.929 . S
H691 C643 0.930 . S
H692 C650 0.929 . S
H693 C651 0.930 . S
H694 C652 0.930 . S
H695 C653 0.930 . S
H696 C655 0.929 . S
H697 C656 0.930 1_545 S
H698 C657 0.930 . S
H699 C658 0.930 . S
H700 C662 0.929 . S
H701 C664 0.930 . S
H702 C670 0.929 . S
H703 C671 0.930 . S
Li704 N721 1.990 . S
Li704 O764 1.956 . S
Li704 O765 1.970 . S
Li704 O766 1.961 . S
Li705 N729 1.990 . S
Li705 O764 1.970 . S
Li705 O765 1.956 . S
Li705 O767 1.961 . S
Li706 N751 1.990 . S
Li706 O764 1.961 . S
Li706 O766 1.956 . S
Li706 O767 1.970 . S
Li707 N757 1.990 . S
Li707 O765 1.961 . S
Li707 O766 1.970 . S
Li707 O767 1.956 . S
C708 C710 1.348 . S
C708 C711 1.356 . S
C708 O764 1.325 . S
N709 C712 1.314 . S
N709 C713 1.279 . S
C710 C708 1.348 . S
C710 C712 1.353 . S
C710 H768 0.929 . S
C711 C708 1.356 . S
C711 C713 1.358 . S
C711 H769 0.930 . S
C712 N709 1.314 . S
C712 C710 1.353 . S
C712 H770 0.930 . S
C713 N709 1.279 . S
C713 C711 1.358 . S
C713 H771 0.930 . S
C714 C717 1.348 . S
C714 C718 1.356 . S
C714 O765 1.325 . S
C715 N716 1.279 . S
C715 C718 1.358 . S
C715 H772 0.930 . S
N716 C715 1.279 . S
N716 C719 1.314 . S
C717 C714 1.348 . S
C717 C719 1.353 . S
C717 H773 0.929 . S
C718 C714 1.356 . S
C718 C715 1.358 . S
C718 H774 0.930 . S
C719 N716 1.314 . S
C719 C717 1.353 . S
C719 H775 0.930 . S
C720 N721 1.314 . S
C720 C725 1.353 . S
C720 H726 0.930 . S
N721 Li704 1.990 . S
N721 C720 1.314 . S
N721 C723 1.279 . S
C722 C723 1.358 . S
C722 C724 1.356 . S
C722 H776 0.930 . S
C723 N721 1.279 . S
C723 C722 1.358 . S
C723 H727 0.930 . S
C724 C722 1.356 . S
C724 C725 1.348 . S
C725 C720 1.353 . S
C725 C724 1.348 . S
C725 H777 0.929 . S
H726 C720 0.930 . S
H727 C723 0.930 . S
C728 N729 1.314 . S
C728 C730 1.353 . S
C728 H734 0.930 . S
N729 Li705 1.990 . S
N729 C728 1.314 . S
N729 C732 1.279 . S
C730 C728 1.353 . S
C730 C733 1.348 . S
C730 H778 0.929 . S
C731 C732 1.358 . S
C731 C733 1.356 . S
C731 H779 0.930 . S
C732 N729 1.279 . S
C732 C731 1.358 . S
C732 H735 0.930 . S
C733 C730 1.348 . S
C733 C731 1.356 . S
H734 C728 0.930 . S
H735 C732 0.930 . S
C736 C738 1.348 . S
C736 C739 1.356 . S
C736 O766 1.325 . S
N737 C740 1.314 . S
N737 C741 1.279 . S
C738 C736 1.348 . S
C738 C740 1.353 . S
C738 H780 0.929 . S
C739 C736 1.356 . S
C739 C741 1.358 . S
C739 H781 0.930 . S
C740 N737 1.314 . S
C740 C738 1.353 . S
C740 H782 0.930 . S
C741 N737 1.279 . S
C741 C739 1.358 . S
C741 H783 0.930 . S
C742 C743 1.348 . S
C742 C744 1.356 . S
C742 O767 1.325 . S
C743 C742 1.348 . S
C743 C745 1.353 . S
C743 H784 0.929 . S
C744 C742 1.356 . S
C744 C746 1.358 . S
C744 H785 0.930 . S
C745 C743 1.353 . S
C745 N747 1.314 . S
C745 H786 0.930 . S
C746 C744 1.358 . S
C746 N747 1.279 . S
C746 H787 0.930 . S
N747 C745 1.314 . S
N747 C746 1.279 . S
C748 C750 1.353 . S
C748 N751 1.314 . S
C748 H754 0.930 . S
C749 N751 1.279 . S
C749 C752 1.358 . S
C749 H755 0.930 . S
C750 C748 1.353 . S
C750 C753 1.348 . S
C750 H788 0.929 . S
N751 Li706 1.990 . S
N751 C748 1.314 . S
N751 C749 1.279 . S
C752 C749 1.358 . S
C752 C753 1.356 . S
C752 H789 0.930 . S
C753 C750 1.348 . S
C753 C752 1.356 . S
H754 C748 0.930 . S
H755 C749 0.930 . S
C756 N757 1.314 . S
C756 C758 1.353 . S
C756 H762 0.930 . S
N757 Li707 1.990 . S
N757 C756 1.314 . S
N757 C760 1.279 . S
C758 C756 1.353 . S
C758 C761 1.348 . S
C758 H790 0.929 . S
C759 C760 1.358 . S
C759 C761 1.356 . S
C759 H791 0.930 . S
C760 N757 1.279 . S
C760 C759 1.358 . S
C760 H763 0.930 . S
C761 C758 1.348 . S
C761 C759 1.356 . S
H762 C756 0.930 . S
H763 C760 0.930 . S
O764 Li704 1.956 . S
O764 Li705 1.970 . S
O764 Li706 1.961 . S
O764 C708 1.325 . S
O765 Li704 1.970 . S
O765 Li705 1.956 . S
O765 Li707 1.961 . S
O765 C714 1.325 . S
O766 Li704 1.961 . S
O766 Li706 1.956 . S
O766 Li707 1.970 . S
O766 C736 1.325 . S
O767 Li705 1.961 . S
O767 Li706 1.970 . S
O767 Li707 1.956 . S
O767 C742 1.325 . S
H768 C710 0.929 . S
H769 C711 0.930 . S
H770 C712 0.930 . S
H771 C713 0.930 . S
H772 C715 0.930 . S
H773 C717 0.929 . S
H774 C718 0.930 . S
H775 C719 0.930 . S
H776 C722 0.930 . S
H777 C725 0.929 . S
H778 C730 0.929 . S
H779 C731 0.930 . S
H780 C738 0.929 . S
H781 C739 0.930 . S
H782 C740 0.930 . S
H783 C741 0.930 . S
H784 C743 0.929 . S
H785 C744 0.930 . S
H786 C745 0.930 . S
H787 C746 0.930 . S
H788 C750 0.929 . S
H789 C752 0.930 . S
H790 C758 0.929 . S
H791 C759 0.930 . S
Li792 N809 1.990 . S
Li792 O852 1.956 . S
Li792 O853 1.970 1_556 S
Li792 O854 1.961 1_455 S
Li793 N817 1.981 1_556 S
Li793 O852 1.970 . S
Li793 O853 1.956 1_556 S
Li793 O855 1.961 . S
Li794 N839 1.990 . S
Li794 O852 1.961 . S
Li794 O854 1.956 1_455 S
Li794 O855 1.970 . S
Li795 N845 1.967 1_456 S
Li795 O853 1.946 1_556 S
Li795 O854 1.997 1_455 S
Li795 O855 1.982 . S
C796 C798 1.348 . S
C796 C799 1.356 . S
C796 O852 1.325 . S
N797 C800 1.314 . S
N797 C801 1.279 . S
C798 C796 1.348 . S
C798 C800 1.353 . S
C798 H856 0.929 . S
C799 C796 1.356 . S
C799 C801 1.358 . S
C799 H857 0.930 . S
C800 N797 1.314 . S
C800 C798 1.353 . S
C800 H858 0.930 . S
C801 N797 1.279 . S
C801 C799 1.358 . S
C801 H859 0.930 . S
C802 C805 1.348 . S
C802 C806 1.356 . S
C802 O853 1.325 . S
C803 N804 1.279 . S
C803 C806 1.358 . S
C803 H860 0.930 . S
N804 C803 1.279 . S
N804 C807 1.314 . S
C805 C802 1.348 . S
C805 C807 1.353 . S
C805 H861 0.929 . S
C806 C802 1.356 . S
C806 C803 1.358 . S
C806 H862 0.930 . S
C807 N804 1.314 . S
C807 C805 1.353 . S
C807 H863 0.930 . S
C808 N809 1.329 1_655 S
C808 C813 1.347 1_556 S
C808 H814 0.921 1_556 S
N809 Li792 1.990 . S
N809 C808 1.329 1_455 S
N809 C811 1.279 . S
C810 C811 1.358 . S
C810 C812 1.356 1_455 S
C810 H864 0.930 . S
C811 N809 1.279 . S
C811 C810 1.358 . S
C811 H815 0.930 . S
C812 C810 1.356 1_655 S
C812 C813 1.348 1_556 S
C813 C808 1.347 1_554 S
C813 C812 1.348 1_554 S
C813 H865 0.929 . S
H814 C808 0.921 1_554 S
H815 C811 0.930 . S
C816 N817 1.296 1_556 S
C816 C818 1.353 . S
C816 H822 0.930 . S
N817 Li793 1.981 1_554 S
N817 C816 1.296 1_554 S
N817 C820 1.306 . S
C818 C816 1.353 . S
C818 C821 1.348 1_556 S
C818 H866 0.929 . S
C819 C820 1.358 . S
C819 C821 1.356 . S
C819 H867 0.930 . S
C820 N817 1.306 . S
C820 C819 1.358 . S
C820 H823 0.930 . S
C821 C818 1.348 1_554 S
C821 C819 1.356 . S
H822 C816 0.930 . S
H823 C820 0.930 . S
C824 C826 1.348 . S
C824 C827 1.356 . S
C824 O854 1.325 . S
N825 C828 1.314 . S
N825 C829 1.279 . S
C826 C824 1.348 . S
C826 C828 1.353 . S
C826 H868 0.929 . S
C827 C824 1.356 . S
C827 C829 1.358 . S
C827 H869 0.930 . S
C828 N825 1.314 . S
C828 C826 1.353 . S
C828 H870 0.930 . S
C829 N825 1.279 . S
C829 C827 1.358 . S
C829 H871 0.930 . S
C830 C831 1.348 . S
C830 C832 1.356 . S
C830 O855 1.325 . S
C831 C830 1.348 . S
C831 C833 1.353 . S
C831 H872 0.929 . S
C832 C830 1.356 . S
C832 C834 1.358 . S
C832 H873 0.930 1_556 S
C833 C831 1.353 . S
C833 N835 1.314 . S
C833 H874 0.930 . S
C834 C832 1.358 . S
C834 N835 1.279 . S
C834 H875 0.928 . S
N835 C833 1.314 . S
N835 C834 1.279 . S
C836 C838 1.353 . S
C836 N839 1.314 . S
C836 H842 0.930 . S
C837 N839 1.279 1_655 S
C837 C840 1.358 . S
C837 H843 0.930 . S
C838 C836 1.353 . S
C838 C841 1.373 . S
C838 H876 0.929 . S
N839 Li794 1.990 . S
N839 C836 1.314 . S
N839 C837 1.279 1_455 S
C840 C837 1.358 . S
C840 C841 1.334 1_655 S
C840 H877 0.930 . S
C841 C838 1.373 . S
C841 C840 1.334 1_455 S
H842 C836 0.930 . S
H843 C837 0.930 . S
C844 N845 1.314 . S
C844 C846 1.353 . S
C844 H850 0.930 . S
N845 Li795 1.967 1_654 S
N845 C844 1.314 . S
N845 C848 1.279 . S
C846 C844 1.353 . S
C846 C849 1.348 . S
C846 H878 0.929 . S
C847 C848 1.358 . S
C847 C849 1.356 . S
C847 H879 0.930 . S
C848 N845 1.279 . S
C848 C847 1.358 . S
C848 H851 0.930 . S
C849 C846 1.348 . S
C849 C847 1.356 . S
H850 C844 0.930 . S
H851 C848 0.930 . S
O852 Li792 1.956 . S
O852 Li793 1.970 . S
O852 Li794 1.961 . S
O852 C796 1.325 . S
O853 Li792 1.970 1_554 S
O853 Li793 1.956 1_554 S
O853 Li795 1.946 1_554 S
O853 C802 1.325 . S
O854 Li792 1.961 1_655 S
O854 Li794 1.956 1_655 S
O854 Li795 1.997 1_655 S
O854 C824 1.325 . S
O855 Li793 1.961 . S
O855 Li794 1.970 . S
O855 Li795 1.982 . S
O855 C830 1.325 . S
H856 C798 0.929 . S
H857 C799 0.930 . S
H858 C800 0.930 . S
H859 C801 0.930 . S
H860 C803 0.930 . S
H861 C805 0.929 . S
H862 C806 0.930 . S
H863 C807 0.930 . S
H864 C810 0.930 . S
H865 C813 0.929 . S
H866 C818 0.929 . S
H867 C819 0.930 . S
H868 C826 0.929 . S
H869 C827 0.930 . S
H870 C828 0.930 . S
H871 C829 0.930 . S
H872 C831 0.929 . S
H873 C832 0.930 1_554 S
H874 C833 0.930 . S
H875 C834 0.928 . S
H876 C838 0.929 . S
H877 C840 0.930 . S
H878 C846 0.929 . S
H879 C847 0.930 . S
Li880 N897 1.990 . S
Li880 O940 1.956 . S
Li880 O941 1.970 . S
Li880 O942 1.961 . S
Li881 N905 1.990 . S
Li881 O940 1.970 . S
Li881 O941 1.956 . S
Li881 O943 1.961 . S
Li882 N927 1.990 . S
Li882 O940 1.961 . S
Li882 O942 1.956 . S
Li882 O943 1.970 . S
Li883 N933 1.990 . S
Li883 O941 1.961 . S
Li883 O942 1.970 . S
Li883 O943 1.956 . S
C884 C886 1.348 . S
C884 C887 1.356 . S
C884 O940 1.325 . S
N885 C888 1.314 . S
N885 C889 1.279 . S
C886 C884 1.348 . S
C886 C888 1.353 . S
C886 H944 0.929 . S
C887 C884 1.356 . S
C887 C889 1.358 . S
C887 H945 0.930 . S
C888 N885 1.314 . S
C888 C886 1.353 . S
C888 H946 0.930 . S
C889 N885 1.279 . S
C889 C887 1.358 . S
C889 H947 0.930 . S
C890 C893 1.348 . S
C890 C894 1.356 . S
C890 O941 1.325 . S
C891 N892 1.279 . S
C891 C894 1.358 . S
C891 H948 0.930 . S
N892 C891 1.279 . S
N892 C895 1.314 . S
C893 C890 1.348 . S
C893 C895 1.353 . S
C893 H949 0.929 . S
C894 C890 1.356 . S
C894 C891 1.358 . S
C894 H950 0.930 . S
C895 N892 1.314 . S
C895 C893 1.353 . S
C895 H951 0.930 . S
C896 N897 1.314 . S
C896 C901 1.353 . S
C896 H902 0.930 . S
N897 Li880 1.990 . S
N897 C896 1.314 . S
N897 C899 1.279 . S
C898 C899 1.358 . S
C898 C900 1.356 . S
C898 H952 0.930 . S
C899 N897 1.279 . S
C899 C898 1.358 . S
C899 H903 0.930 . S
C900 C898 1.356 . S
C900 C901 1.348 . S
C901 C896 1.353 . S
C901 C900 1.348 . S
C901 H953 0.929 . S
H902 C896 0.930 . S
H903 C899 0.930 . S
C904 N905 1.314 . S
C904 C906 1.353 . S
C904 H910 0.930 . S
N905 Li881 1.990 . S
N905 C904 1.314 . S
N905 C908 1.279 . S
C906 C904 1.353 . S
C906 C909 1.348 . S
C906 H954 0.929 . S
C907 C908 1.358 . S
C907 C909 1.356 . S
C907 H955 0.930 . S
C908 N905 1.279 . S
C908 C907 1.358 . S
C908 H911 0.930 . S
C909 C906 1.348 . S
C909 C907 1.356 . S
H910 C904 0.930 . S
H911 C908 0.930 . S
C912 C914 1.348 . S
C912 C915 1.356 . S
C912 O942 1.325 . S
N913 C916 1.314 . S
N913 C917 1.279 . S
C914 C912 1.348 . S
C914 C916 1.353 . S
C914 H956 0.929 . S
C915 C912 1.356 . S
C915 C917 1.358 . S
C915 H957 0.930 . S
C916 N913 1.314 . S
C916 C914 1.353 . S
C916 H958 0.930 . S
C917 N913 1.279 . S
C917 C915 1.358 . S
C917 H959 0.930 . S
C918 C919 1.348 . S
C918 C920 1.356 . S
C918 O943 1.325 . S
C919 C918 1.348 . S
C919 C921 1.353 . S
C919 H960 0.929 . S
C920 C918 1.356 . S
C920 C922 1.358 . S
C920 H961 0.930 . S
C921 C919 1.353 . S
C921 N923 1.314 . S
C921 H962 0.930 . S
C922 C920 1.358 . S
C922 N923 1.279 . S
C922 H963 0.930 . S
N923 C921 1.314 . S
N923 C922 1.279 . S
C924 C926 1.353 . S
C924 N927 1.314 . S
C924 H930 0.930 . S
C925 N927 1.279 . S
C925 C928 1.358 . S
C925 H931 0.930 . S
C926 C924 1.353 . S
C926 C929 1.348 . S
C926 H964 0.929 . S
N927 Li882 1.990 . S
N927 C924 1.314 . S
N927 C925 1.279 . S
C928 C925 1.358 . S
C928 C929 1.356 . S
C928 H965 0.930 . S
C929 C926 1.348 . S
C929 C928 1.356 . S
H930 C924 0.930 . S
H931 C925 0.930 . S
C932 N933 1.314 . S
C932 C934 1.353 . S
C932 H938 0.930 . S
N933 Li883 1.990 . S
N933 C932 1.314 . S
N933 C936 1.279 . S
C934 C932 1.353 . S
C934 C937 1.348 . S
C934 H966 0.929 . S
C935 C936 1.358 . S
C935 C937 1.356 . S
C935 H967 0.930 . S
C936 N933 1.279 . S
C936 C935 1.358 . S
C936 H939 0.930 . S
C937 C934 1.348 . S
C937 C935 1.356 . S
H938 C932 0.930 . S
H939 C936 0.930 . S
O940 Li880 1.956 . S
O940 Li881 1.970 . S
O940 Li882 1.961 . S
O940 C884 1.325 . S
O941 Li880 1.970 . S
O941 Li881 1.956 . S
O941 Li883 1.961 . S
O941 C890 1.325 . S
O942 Li880 1.961 . S
O942 Li882 1.956 . S
O942 Li883 1.970 . S
O942 C912 1.325 . S
O943 Li881 1.961 . S
O943 Li882 1.970 . S
O943 Li883 1.956 . S
O943 C918 1.325 . S
H944 C886 0.929 . S
H945 C887 0.930 . S
H946 C888 0.930 . S
H947 C889 0.930 . S
H948 C891 0.930 . S
H949 C893 0.929 . S
H950 C894 0.930 . S
H951 C895 0.930 . S
H952 C898 0.930 . S
H953 C901 0.929 . S
H954 C906 0.929 . S
H955 C907 0.930 . S
H956 C914 0.929 . S
H957 C915 0.930 . S
H958 C916 0.930 . S
H959 C917 0.930 . S
H960 C919 0.929 . S
H961 C920 0.930 . S
H962 C921 0.930 . S
H963 C922 0.930 . S
H964 C926 0.929 . S
H965 C928 0.930 . S
H966 C934 0.929 . S
H967 C935 0.930 . S
Li968 N985 1.990 . S
Li968 O1028 1.956 . S
Li968 O1029 1.970 1_455 S
Li968 O1030 1.961 . S
Li969 N993 1.982 1_455 S
Li969 O1028 1.970 . S
Li969 O1029 1.956 1_455 S
Li969 O1031 1.961 . S
Li970 N1015 1.990 . S
Li970 O1028 1.961 . S
Li970 O1030 1.956 . S
Li970 O1031 1.970 . S
Li971 N1021 1.990 1_455 S
Li971 O1029 1.961 1_455 S
Li971 O1030 1.970 . S
Li971 O1031 1.956 . S
C972 C974 1.348 . S
C972 C975 1.356 . S
C972 O1028 1.325 . S
N973 C976 1.314 . S
N973 C977 1.279 . S
C974 C972 1.348 . S
C974 C976 1.353 . S
C974 H1032 0.929 . S
C975 C972 1.356 . S
C975 C977 1.358 . S
C975 H1033 0.930 . S
C976 N973 1.314 . S
C976 C974 1.353 . S
C976 H1034 0.930 . S
C977 N973 1.279 . S
C977 C975 1.358 . S
C977 H1035 0.930 . S
C978 C981 1.348 . S
C978 C982 1.356 . S
C978 O1029 1.325 . S
C979 N980 1.279 . S
C979 C982 1.358 . S
C979 H1036 0.930 . S
N980 C979 1.279 . S
N980 C983 1.314 . S
C981 C978 1.348 . S
C981 C983 1.353 . S
C981 H1037 0.929 . S
C982 C978 1.356 . S
C982 C979 1.358 . S
C982 H1038 0.930 . S
C983 N980 1.314 . S
C983 C981 1.353 . S
C983 H1039 0.930 . S
C984 N985 1.314 . S
C984 C989 1.353 1_455 S
C984 H990 0.930 1_455 S
N985 Li968 1.990 . S
N985 C984 1.314 . S
N985 C987 1.279 . S
C986 C987 1.358 . S
C986 C988 1.356 . S
C986 H1040 0.930 . S
C987 N985 1.279 . S
C987 C986 1.358 . S
C987 H991 0.930 . S
C988 C986 1.356 . S
C988 C989 1.348 1_455 S
C989 C984 1.353 1_655 S
C989 C988 1.348 1_655 S
C989 H1041 0.929 . S
H990 C984 0.930 1_655 S
H991 C987 0.930 . S
C992 N993 1.297 1_455 S
C992 C994 1.353 . S
C992 H998 0.930 . S
N993 Li969 1.982 1_655 S
N993 C992 1.297 1_655 S
N993 C996 1.304 . S
C994 C992 1.353 . S
C994 C997 1.348 1_455 S
C994 H1042 0.929 . S
C995 C996 1.358 . S
C995 C997 1.356 . S
C995 H1043 0.930 . S
C996 N993 1.304 . S
C996 C995 1.358 . S
C996 H999 0.930 . S
C997 C994 1.348 1_655 S
C997 C995 1.356 . S
H998 C992 0.930 . S
H999 C996 0.930 . S
C1000 C1002 1.348 . S
C1000 C1003 1.356 . S
C1000 O1030 1.325 . S
N1001 C1004 1.314 . S
N1001 C1005 1.279 . S
C1002 C1000 1.348 . S
C1002 C1004 1.353 . S
C1002 H1044 0.929 . S
C1003 C1000 1.356 . S
C1003 C1005 1.358 . S
C1003 H1045 0.930 . S
C1004 N1001 1.314 . S
C1004 C1002 1.353 . S
C1004 H1046 0.930 . S
C1005 N1001 1.279 . S
C1005 C1003 1.358 . S
C1005 H1047 0.930 . S
C1006 C1007 1.348 . S
C1006 C1008 1.356 . S
C1006 O1031 1.325 . S
C1007 C1006 1.348 . S
C1007 C1009 1.353 . S
C1007 H1048 0.929 . S
C1008 C1006 1.356 . S
C1008 C1010 1.358 . S
C1008 H1049 0.930 1_455 S
C1009 C1007 1.353 . S
C1009 N1011 1.314 . S
C1009 H1050 0.930 . S
C1010 C1008 1.358 . S
C1010 N1011 1.279 . S
C1010 H1051 0.930 . S
N1011 C1009 1.314 . S
N1011 C1010 1.279 . S
C1012 C1014 1.353 . S
C1012 N1015 1.314 . S
C1012 H1018 0.930 . S
C1013 N1015 1.279 . S
C1013 C1016 1.358 . S
C1013 H1019 0.930 . S
C1014 C1012 1.353 . S
C1014 C1017 1.348 . S
C1014 H1052 0.929 . S
N1015 Li970 1.990 . S
N1015 C1012 1.314 . S
N1015 C1013 1.279 . S
C1016 C1013 1.358 . S
C1016 C1017 1.356 . S
C1016 H1053 0.930 . S
C1017 C1014 1.348 . S
C1017 C1016 1.356 . S
H1018 C1012 0.930 . S
H1019 C1013 0.930 . S
C1020 N1021 1.314 . S
C1020 C1022 1.353 . S
C1020 H1026 0.930 . S
N1021 Li971 1.990 1_655 S
N1021 C1020 1.314 . S
N1021 C1024 1.279 . S
C1022 C1020 1.353 . S
C1022 C1025 1.348 . S
C1022 H1054 0.929 . S
C1023 C1024 1.358 . S
C1023 C1025 1.356 . S
C1023 H1055 0.930 . S
C1024 N1021 1.279 . S
C1024 C1023 1.358 . S
C1024 H1027 0.930 . S
C1025 C1022 1.348 . S
C1025 C1023 1.356 . S
H1026 C1020 0.930 . S
H1027 C1024 0.930 . S
O1028 Li968 1.956 . S
O1028 Li969 1.970 . S
O1028 Li970 1.961 . S
O1028 C972 1.325 . S
O1029 Li968 1.970 1_655 S
O1029 Li969 1.956 1_655 S
O1029 Li971 1.961 1_655 S
O1029 C978 1.325 . S
O1030 Li968 1.961 . S
O1030 Li970 1.956 . S
O1030 Li971 1.970 . S
O1030 C1000 1.325 . S
O1031 Li969 1.961 . S
O1031 Li970 1.970 . S
O1031 Li971 1.956 . S
O1031 C1006 1.325 . S
H1032 C974 0.929 . S
H1033 C975 0.930 . S
H1034 C976 0.930 . S
H1035 C977 0.930 . S
H1036 C979 0.930 . S
H1037 C981 0.929 . S
H1038 C982 0.930 . S
H1039 C983 0.930 . S
H1040 C986 0.930 . S
H1041 C989 0.929 . S
H1042 C994 0.929 . S
H1043 C995 0.930 . S
H1044 C1002 0.929 . S
H1045 C1003 0.930 . S
H1046 C1004 0.930 . S
H1047 C1005 0.930 . S
H1048 C1007 0.929 . S
H1049 C1008 0.930 1_655 S
H1050 C1009 0.930 . S
H1051 C1010 0.930 . S
H1052 C1014 0.929 . S
H1053 C1016 0.930 . S
H1054 C1022 0.929 . S
H1055 C1023 0.930 . S
Li1056 N1073 1.990 . S
Li1056 O1116 1.956 . S
Li1056 O1117 1.970 1_554 S
Li1056 O1118 1.961 . S
Li1057 N1081 1.990 1_554 S
Li1057 O1116 1.970 . S
Li1057 O1117 1.956 1_554 S
Li1057 O1119 1.961 . S
Li1058 N1103 1.990 . S
Li1058 O1116 1.961 . S
Li1058 O1118 1.956 . S
Li1058 O1119 1.970 . S
Li1059 N1109 1.985 1_554 S
Li1059 O1117 1.958 1_554 S
Li1059 O1118 1.976 . S
Li1059 O1119 1.961 . S
C1060 C1062 1.348 . S
C1060 C1063 1.356 . S
C1060 O1116 1.325 . S
N1061 C1064 1.314 . S
N1061 C1065 1.279 . S
C1062 C1060 1.348 . S
C1062 C1064 1.353 . S
C1062 H1120 0.929 . S
C1063 C1060 1.356 . S
C1063 C1065 1.358 . S
C1063 H1121 0.930 . S
C1064 N1061 1.314 . S
C1064 C1062 1.353 . S
C1064 H1122 0.930 . S
C1065 N1061 1.279 . S
C1065 C1063 1.358 . S
C1065 H1123 0.930 . S
C1066 C1069 1.348 . S
C1066 C1070 1.356 . S
C1066 O1117 1.325 . S
C1067 N1068 1.279 . S
C1067 C1070 1.358 . S
C1067 H1124 0.930 . S
N1068 C1067 1.279 . S
N1068 C1071 1.314 . S
C1069 C1066 1.348 . S
C1069 C1071 1.353 . S
C1069 H1125 0.929 . S
C1070 C1066 1.356 . S
C1070 C1067 1.358 . S
C1070 H1126 0.930 . S
C1071 N1068 1.314 . S
C1071 C1069 1.353 . S
C1071 H1127 0.930 . S
C1072 N1073 1.313 . S
C1072 C1077 1.353 1_554 S
C1072 H1078 0.930 1_554 S
N1073 Li1056 1.990 . S
N1073 C1072 1.313 . S
N1073 C1075 1.279 . S
C1074 C1075 1.358 . S
C1074 C1076 1.375 . S
C1074 H1128 0.930 . S
C1075 N1073 1.279 . S
C1075 C1074 1.358 . S
C1075 H1079 0.930 . S
C1076 C1074 1.375 . S
C1076 C1077 1.340 1_554 S
C1077 C1072 1.353 1_556 S
C1077 C1076 1.340 1_556 S
C1077 H1129 0.929 . S
H1078 C1072 0.930 1_556 S
H1079 C1075 0.930 . S
C1080 N1081 1.314 1_554 S
C1080 C1082 1.353 . S
C1080 H1086 0.930 . S
N1081 Li1057 1.990 1_556 S
N1081 C1080 1.314 1_556 S
N1081 C1084 1.279 . S
C1082 C1080 1.353 . S
C1082 C1085 1.348 1_554 S
C1082 H1130 0.929 . S
C1083 C1084 1.358 . S
C1083 C1085 1.356 . S
C1083 H1131 0.930 . S
C1084 N1081 1.279 . S
C1084 C1083 1.358 . S
C1084 H1087 0.930 . S
C1085 C1082 1.348 1_556 S
C1085 C1083 1.356 . S
H1086 C1080 0.930 . S
H1087 C1084 0.930 . S
C1088 C1090 1.348 . S
C1088 C1091 1.356 . S
C1088 O1118 1.325 . S
N1089 C1092 1.314 . S
N1089 C1093 1.279 . S
C1090 C1088 1.348 . S
C1090 C1092 1.353 . S
C1090 H1132 0.929 . S
C1091 C1088 1.356 . S
C1091 C1093 1.358 . S
C1091 H1133 0.930 . S
C1092 N1089 1.314 . S
C1092 C1090 1.353 . S
C1092 H1134 0.930 . S
C1093 N1089 1.279 . S
C1093 C1091 1.358 . S
C1093 H1135 0.930 . S
C1094 C1095 1.348 . S
C1094 C1096 1.356 . S
C1094 O1119 1.325 . S
C1095 C1094 1.348 . S
C1095 C1097 1.353 . S
C1095 H1136 0.929 . S
C1096 C1094 1.356 . S
C1096 C1098 1.358 . S
C1096 H1137 0.930 1_554 S
C1097 C1095 1.353 . S
C1097 N1099 1.314 . S
C1097 H1138 0.930 . S
C1098 C1096 1.358 . S
C1098 N1099 1.279 . S
C1098 H1139 0.913 1_554 S
N1099 C1097 1.314 . S
N1099 C1098 1.279 . S
C1100 C1102 1.353 . S
C1100 N1103 1.314 . S
C1100 H1106 0.930 . S
C1101 N1103 1.279 . S
C1101 C1104 1.358 . S
C1101 H1107 0.930 . S
C1102 C1100 1.353 . S
C1102 C1105 1.348 . S
C1102 H1140 0.929 . S
N1103 Li1058 1.990 . S
N1103 C1100 1.314 . S
N1103 C1101 1.279 . S
C1104 C1101 1.358 . S
C1104 C1105 1.356 . S
C1104 H1141 0.930 . S
C1105 C1102 1.348 . S
C1105 C1104 1.356 . S
H1106 C1100 0.930 . S
H1107 C1101 0.930 . S
C1108 N1109 1.314 . S
C1108 C1110 1.353 . S
C1108 H1114 0.930 . S
N1109 Li1059 1.985 1_556 S
N1109 C1108 1.314 . S
N1109 C1112 1.279 . S
C1110 C1108 1.353 . S
C1110 C1113 1.348 . S
C1110 H1142 0.929 . S
C1111 C1112 1.358 . S
C1111 C1113 1.356 . S
C1111 H1143 0.930 . S
C1112 N1109 1.279 . S
C1112 C1111 1.358 . S
C1112 H1115 0.930 . S
C1113 C1110 1.348 . S
C1113 C1111 1.356 . S
H1114 C1108 0.930 . S
H1115 C1112 0.930 . S
O1116 Li1056 1.956 . S
O1116 Li1057 1.970 . S
O1116 Li1058 1.961 . S
O1116 C1060 1.325 . S
O1117 Li1056 1.970 1_556 S
O1117 Li1057 1.956 1_556 S
O1117 Li1059 1.958 1_556 S
O1117 C1066 1.325 . S
O1118 Li1056 1.961 . S
O1118 Li1058 1.956 . S
O1118 Li1059 1.976 . S
O1118 C1088 1.325 . S
O1119 Li1057 1.961 . S
O1119 Li1058 1.970 . S
O1119 Li1059 1.961 . S
O1119 C1094 1.325 . S
H1120 C1062 0.929 . S
H1121 C1063 0.930 . S
H1122 C1064 0.930 . S
H1123 C1065 0.930 . S
H1124 C1067 0.930 . S
H1125 C1069 0.929 . S
H1126 C1070 0.930 . S
H1127 C1071 0.930 . S
H1128 C1074 0.930 . S
H1129 C1077 0.929 . S
H1130 C1082 0.929 . S
H1131 C1083 0.930 . S
H1132 C1090 0.929 . S
H1133 C1091 0.930 . S
H1134 C1092 0.930 . S
H1135 C1093 0.930 . S
H1136 C1095 0.929 . S
H1137 C1096 0.930 1_556 S
H1138 C1097 0.930 . S
H1139 C1098 0.913 1_556 S
H1140 C1102 0.929 . S
H1141 C1104 0.930 . S
H1142 C1110 0.929 . S
H1143 C1111 0.930 . S
Li1144 N1161 1.990 . S
Li1144 O1204 1.956 . S
Li1144 O1205 1.970 . S
Li1144 O1206 1.961 . S
Li1145 N1169 1.990 . S
Li1145 O1204 1.970 . S
Li1145 O1205 1.956 . S
Li1145 O1207 1.961 . S
Li1146 N1191 1.990 . S
Li1146 O1204 1.961 . S
Li1146 O1206 1.956 . S
Li1146 O1207 1.970 . S
Li1147 N1197 1.990 . S
Li1147 O1205 1.961 . S
Li1147 O1206 1.970 . S
Li1147 O1207 1.956 . S
C1148 C1150 1.348 . S
C1148 C1151 1.356 . S
C1148 O1204 1.325 . S
N1149 C1152 1.314 . S
N1149 C1153 1.279 . S
C1150 C1148 1.348 . S
C1150 C1152 1.353 . S
C1150 H1208 0.929 . S
C1151 C1148 1.356 . S
C1151 C1153 1.358 . S
C1151 H1209 0.930 . S
C1152 N1149 1.314 . S
C1152 C1150 1.353 . S
C1152 H1210 0.930 . S
C1153 N1149 1.279 . S
C1153 C1151 1.358 . S
C1153 H1211 0.930 . S
C1154 C1157 1.348 . S
C1154 C1158 1.356 . S
C1154 O1205 1.325 . S
C1155 N1156 1.279 . S
C1155 C1158 1.358 . S
C1155 H1212 0.930 . S
N1156 C1155 1.279 . S
N1156 C1159 1.314 . S
C1157 C1154 1.348 . S
C1157 C1159 1.353 . S
C1157 H1213 0.929 . S
C1158 C1154 1.356 . S
C1158 C1155 1.358 . S
C1158 H1214 0.930 . S
C1159 N1156 1.314 . S
C1159 C1157 1.353 . S
C1159 H1215 0.930 . S
C1160 N1161 1.314 . S
C1160 C1165 1.353 . S
C1160 H1166 0.930 . S
N1161 Li1144 1.990 . S
N1161 C1160 1.314 . S
N1161 C1163 1.279 . S
C1162 C1163 1.358 . S
C1162 C1164 1.356 . S
C1162 H1216 0.930 . S
C1163 N1161 1.279 . S
C1163 C1162 1.358 . S
C1163 H1167 0.930 . S
C1164 C1162 1.356 . S
C1164 C1165 1.348 . S
C1165 C1160 1.353 . S
C1165 C1164 1.348 . S
C1165 H1217 0.929 . S
H1166 C1160 0.930 . S
H1167 C1163 0.930 . S
C1168 N1169 1.314 . S
C1168 C1170 1.353 . S
C1168 H1174 0.930 . S
N1169 Li1145 1.990 . S
N1169 C1168 1.314 . S
N1169 C1172 1.279 . S
C1170 C1168 1.353 . S
C1170 C1173 1.348 . S
C1170 H1218 0.929 . S
C1171 C1172 1.358 . S
C1171 C1173 1.356 . S
C1171 H1219 0.930 . S
C1172 N1169 1.279 . S
C1172 C1171 1.358 . S
C1172 H1175 0.930 . S
C1173 C1170 1.348 . S
C1173 C1171 1.356 . S
H1174 C1168 0.930 . S
H1175 C1172 0.930 . S
C1176 C1178 1.348 . S
C1176 C1179 1.356 . S
C1176 O1206 1.325 . S
N1177 C1180 1.314 . S
N1177 C1181 1.279 . S
C1178 C1176 1.348 . S
C1178 C1180 1.353 . S
C1178 H1220 0.929 . S
C1179 C1176 1.356 . S
C1179 C1181 1.358 . S
C1179 H1221 0.930 . S
C1180 N1177 1.314 . S
C1180 C1178 1.353 . S
C1180 H1222 0.930 . S
C1181 N1177 1.279 . S
C1181 C1179 1.358 . S
C1181 H1223 0.930 . S
C1182 C1183 1.348 . S
C1182 C1184 1.356 . S
C1182 O1207 1.325 . S
C1183 C1182 1.348 . S
C1183 C1185 1.353 . S
C1183 H1224 0.929 . S
C1184 C1182 1.356 . S
C1184 C1186 1.358 . S
C1184 H1225 0.930 . S
C1185 C1183 1.353 . S
C1185 N1187 1.314 . S
C1185 H1226 0.930 . S
C1186 C1184 1.358 . S
C1186 N1187 1.279 . S
C1186 H1227 0.930 . S
N1187 C1185 1.314 . S
N1187 C1186 1.279 . S
C1188 C1190 1.353 . S
C1188 N1191 1.314 . S
C1188 H1194 0.930 . S
C1189 N1191 1.279 . S
C1189 C1192 1.358 . S
C1189 H1195 0.930 . S
C1190 C1188 1.353 . S
C1190 C1193 1.348 . S
C1190 H1228 0.929 . S
N1191 Li1146 1.990 . S
N1191 C1188 1.314 . S
N1191 C1189 1.279 . S
C1192 C1189 1.358 . S
C1192 C1193 1.356 . S
C1192 H1229 0.930 . S
C1193 C1190 1.348 . S
C1193 C1192 1.356 . S
H1194 C1188 0.930 . S
H1195 C1189 0.930 . S
C1196 N1197 1.314 . S
C1196 C1198 1.353 . S
C1196 H1202 0.930 . S
N1197 Li1147 1.990 . S
N1197 C1196 1.314 . S
N1197 C1200 1.279 . S
C1198 C1196 1.353 . S
C1198 C1201 1.348 . S
C1198 H1230 0.929 . S
C1199 C1200 1.358 . S
C1199 C1201 1.356 . S
C1199 H1231 0.930 . S
C1200 N1197 1.279 . S
C1200 C1199 1.358 . S
C1200 H1203 0.930 . S
C1201 C1198 1.348 . S
C1201 C1199 1.356 . S
H1202 C1196 0.930 . S
H1203 C1200 0.930 . S
O1204 Li1144 1.956 . S
O1204 Li1145 1.970 . S
O1204 Li1146 1.961 . S
O1204 C1148 1.325 . S
O1205 Li1144 1.970 . S
O1205 Li1145 1.956 . S
O1205 Li1147 1.961 . S
O1205 C1154 1.325 . S
O1206 Li1144 1.961 . S
O1206 Li1146 1.956 . S
O1206 Li1147 1.970 . S
O1206 C1176 1.325 . S
O1207 Li1145 1.961 . S
O1207 Li1146 1.970 . S
O1207 Li1147 1.956 . S
O1207 C1182 1.325 . S
H1208 C1150 0.929 . S
H1209 C1151 0.930 . S
H1210 C1152 0.930 . S
H1211 C1153 0.930 . S
H1212 C1155 0.930 . S
H1213 C1157 0.929 . S
H1214 C1158 0.930 . S
H1215 C1159 0.930 . S
H1216 C1162 0.930 . S
H1217 C1165 0.929 . S
H1218 C1170 0.929 . S
H1219 C1171 0.930 . S
H1220 C1178 0.929 . S
H1221 C1179 0.930 . S
H1222 C1180 0.930 . S
H1223 C1181 0.930 . S
H1224 C1183 0.929 . S
H1225 C1184 0.930 . S
H1226 C1185 0.930 . S
H1227 C1186 0.930 . S
H1228 C1190 0.929 . S
H1229 C1192 0.930 . S
H1230 C1198 0.929 . S
H1231 C1199 0.930 . S
Li1232 N1249 1.990 . S
Li1232 O1292 1.956 . S
Li1232 O1293 1.970 . S
Li1232 O1294 1.961 . S
Li1233 N1257 1.990 . S
Li1233 O1292 1.970 . S
Li1233 O1293 1.956 . S
Li1233 O1295 1.961 . S
Li1234 N1279 1.990 . S
Li1234 O1292 1.961 . S
Li1234 O1294 1.956 . S
Li1234 O1295 1.970 . S
Li1235 N1285 1.990 . S
Li1235 O1293 1.961 . S
Li1235 O1294 1.970 . S
Li1235 O1295 1.956 . S
C1236 C1238 1.348 . S
C1236 C1239 1.356 . S
C1236 O1292 1.325 . S
N1237 C1240 1.314 . S
N1237 C1241 1.279 . S
C1238 C1236 1.348 . S
C1238 C1240 1.353 . S
C1238 H1296 0.929 . S
C1239 C1236 1.356 . S
C1239 C1241 1.358 . S
C1239 H1297 0.930 . S
C1240 N1237 1.314 . S
C1240 C1238 1.353 . S
C1240 H1298 0.930 . S
C1241 N1237 1.279 . S
C1241 C1239 1.358 . S
C1241 H1299 0.930 . S
C1242 C1245 1.348 . S
C1242 C1246 1.356 . S
C1242 O1293 1.325 . S
C1243 N1244 1.279 . S
C1243 C1246 1.358 . S
C1243 H1300 0.930 . S
N1244 C1243 1.279 . S
N1244 C1247 1.314 . S
C1245 C1242 1.348 . S
C1245 C1247 1.353 . S
C1245 H1301 0.929 . S
C1246 C1242 1.356 . S
C1246 C1243 1.358 . S
C1246 H1302 0.930 . S
C1247 N1244 1.314 . S
C1247 C1245 1.353 . S
C1247 H1303 0.930 . S
C1248 N1249 1.314 . S
C1248 C1253 1.353 . S
C1248 H1254 0.930 . S
N1249 Li1232 1.990 . S
N1249 C1248 1.314 . S
N1249 C1251 1.279 . S
C1250 C1251 1.358 . S
C1250 C1252 1.356 . S
C1250 H1304 0.930 . S
C1251 N1249 1.279 . S
C1251 C1250 1.358 . S
C1251 H1255 0.930 . S
C1252 C1250 1.356 . S
C1252 C1253 1.348 . S
C1253 C1248 1.353 . S
C1253 C1252 1.348 . S
C1253 H1305 0.929 . S
H1254 C1248 0.930 . S
H1255 C1251 0.930 . S
C1256 N1257 1.314 . S
C1256 C1258 1.353 . S
C1256 H1262 0.930 . S
N1257 Li1233 1.990 . S
N1257 C1256 1.314 . S
N1257 C1260 1.279 . S
C1258 C1256 1.353 . S
C1258 C1261 1.348 . S
C1258 H1306 0.929 . S
C1259 C1260 1.358 . S
C1259 C1261 1.356 . S
C1259 H1307 0.930 . S
C1260 N1257 1.279 . S
C1260 C1259 1.358 . S
C1260 H1263 0.930 . S
C1261 C1258 1.348 . S
C1261 C1259 1.356 . S
H1262 C1256 0.930 . S
H1263 C1260 0.930 . S
C1264 C1266 1.348 . S
C1264 C1267 1.356 . S
C1264 O1294 1.325 . S
N1265 C1268 1.314 . S
N1265 C1269 1.279 . S
C1266 C1264 1.348 . S
C1266 C1268 1.353 . S
C1266 H1308 0.929 . S
C1267 C1264 1.356 . S
C1267 C1269 1.358 . S
C1267 H1309 0.930 . S
C1268 N1265 1.314 . S
C1268 C1266 1.353 . S
C1268 H1310 0.930 . S
C1269 N1265 1.279 . S
C1269 C1267 1.358 . S
C1269 H1311 0.930 . S
C1270 C1271 1.348 . S
C1270 C1272 1.356 . S
C1270 O1295 1.325 . S
C1271 C1270 1.348 . S
C1271 C1273 1.353 . S
C1271 H1312 0.929 . S
C1272 C1270 1.356 . S
C1272 C1274 1.358 . S
C1272 H1313 0.930 . S
C1273 C1271 1.353 . S
C1273 N1275 1.314 . S
C1273 H1314 0.930 . S
C1274 C1272 1.358 . S
C1274 N1275 1.279 . S
C1274 H1315 0.930 . S
N1275 C1273 1.314 . S
N1275 C1274 1.279 . S
C1276 C1278 1.353 . S
C1276 N1279 1.314 . S
C1276 H1282 0.930 . S
C1277 N1279 1.279 . S
C1277 C1280 1.358 . S
C1277 H1283 0.930 . S
C1278 C1276 1.353 . S
C1278 C1281 1.348 . S
C1278 H1316 0.929 . S
N1279 Li1234 1.990 . S
N1279 C1276 1.314 . S
N1279 C1277 1.279 . S
C1280 C1277 1.358 . S
C1280 C1281 1.356 . S
C1280 H1317 0.930 . S
C1281 C1278 1.348 . S
C1281 C1280 1.356 . S
H1282 C1276 0.930 . S
H1283 C1277 0.930 . S
C1284 N1285 1.314 . S
C1284 C1286 1.353 . S
C1284 H1290 0.930 . S
N1285 Li1235 1.990 . S
N1285 C1284 1.314 . S
N1285 C1288 1.279 . S
C1286 C1284 1.353 . S
C1286 C1289 1.348 . S
C1286 H1318 0.929 . S
C1287 C1288 1.358 . S
C1287 C1289 1.356 . S
C1287 H1319 0.930 . S
C1288 N1285 1.279 . S
C1288 C1287 1.358 . S
C1288 H1291 0.930 . S
C1289 C1286 1.348 . S
C1289 C1287 1.356 . S
H1290 C1284 0.930 . S
H1291 C1288 0.930 . S
O1292 Li1232 1.956 . S
O1292 Li1233 1.970 . S
O1292 Li1234 1.961 . S
O1292 C1236 1.325 . S
O1293 Li1232 1.970 . S
O1293 Li1233 1.956 . S
O1293 Li1235 1.961 . S
O1293 C1242 1.325 . S
O1294 Li1232 1.961 . S
O1294 Li1234 1.956 . S
O1294 Li1235 1.970 . S
O1294 C1264 1.325 . S
O1295 Li1233 1.961 . S
O1295 Li1234 1.970 . S
O1295 Li1235 1.956 . S
O1295 C1270 1.325 . S
H1296 C1238 0.929 . S
H1297 C1239 0.930 . S
H1298 C1240 0.930 . S
H1299 C1241 0.930 . S
H1300 C1243 0.930 . S
H1301 C1245 0.929 . S
H1302 C1246 0.930 . S
H1303 C1247 0.930 . S
H1304 C1250 0.930 . S
H1305 C1253 0.929 . S
H1306 C1258 0.929 . S
H1307 C1259 0.930 . S
H1308 C1266 0.929 . S
H1309 C1267 0.930 . S
H1310 C1268 0.930 . S
H1311 C1269 0.930 . S
H1312 C1271 0.929 . S
H1313 C1272 0.930 . S
H1314 C1273 0.930 . S
H1315 C1274 0.930 . S
H1316 C1278 0.929 . S
H1317 C1280 0.930 . S
H1318 C1286 0.929 . S
H1319 C1287 0.930 . S
Li1320 N1337 1.990 . S
Li1320 O1380 1.956 . S
Li1320 O1381 1.970 . S
Li1320 O1382 1.961 . S
Li1321 N1345 1.990 . S
Li1321 O1380 1.970 . S
Li1321 O1381 1.956 . S
Li1321 O1383 1.961 . S
Li1322 N1367 1.990 . S
Li1322 O1380 1.961 . S
Li1322 O1382 1.956 . S
Li1322 O1383 1.970 . S
Li1323 N1373 1.990 . S
Li1323 O1381 1.961 . S
Li1323 O1382 1.970 . S
Li1323 O1383 1.956 . S
C1324 C1326 1.348 . S
C1324 C1327 1.356 . S
C1324 O1380 1.325 . S
N1325 C1328 1.314 . S
N1325 C1329 1.279 . S
C1326 C1324 1.348 . S
C1326 C1328 1.353 . S
C1326 H1384 0.929 . S
C1327 C1324 1.356 . S
C1327 C1329 1.358 . S
C1327 H1385 0.930 . S
C1328 N1325 1.314 . S
C1328 C1326 1.353 . S
C1328 H1386 0.930 . S
C1329 N1325 1.279 . S
C1329 C1327 1.358 . S
C1329 H1387 0.930 . S
C1330 C1333 1.348 . S
C1330 C1334 1.356 . S
C1330 O1381 1.325 . S
C1331 N1332 1.279 . S
C1331 C1334 1.358 . S
C1331 H1388 0.930 . S
N1332 C1331 1.279 . S
N1332 C1335 1.314 . S
C1333 C1330 1.348 . S
C1333 C1335 1.353 . S
C1333 H1389 0.929 . S
C1334 C1330 1.356 . S
C1334 C1331 1.358 . S
C1334 H1390 0.930 . S
C1335 N1332 1.314 . S
C1335 C1333 1.353 . S
C1335 H1391 0.930 . S
C1336 N1337 1.314 . S
C1336 C1341 1.353 . S
C1336 H1342 0.930 . S
N1337 Li1320 1.990 . S
N1337 C1336 1.314 . S
N1337 C1339 1.279 . S
C1338 C1339 1.358 . S
C1338 C1340 1.356 . S
C1338 H1392 0.930 . S
C1339 N1337 1.279 . S
C1339 C1338 1.358 . S
C1339 H1343 0.930 . S
C1340 C1338 1.356 . S
C1340 C1341 1.348 . S
C1341 C1336 1.353 . S
C1341 C1340 1.348 . S
C1341 H1393 0.929 . S
H1342 C1336 0.930 . S
H1343 C1339 0.930 . S
C1344 N1345 1.314 . S
C1344 C1346 1.353 . S
C1344 H1350 0.930 . S
N1345 Li1321 1.990 . S
N1345 C1344 1.314 . S
N1345 C1348 1.279 . S
C1346 C1344 1.353 . S
C1346 C1349 1.348 . S
C1346 H1394 0.929 . S
C1347 C1348 1.358 . S
C1347 C1349 1.356 . S
C1347 H1395 0.930 . S
C1348 N1345 1.279 . S
C1348 C1347 1.358 . S
C1348 H1351 0.930 . S
C1349 C1346 1.348 . S
C1349 C1347 1.356 . S
H1350 C1344 0.930 . S
H1351 C1348 0.930 . S
C1352 C1354 1.348 . S
C1352 C1355 1.356 . S
C1352 O1382 1.325 . S
N1353 C1356 1.314 . S
N1353 C1357 1.279 . S
C1354 C1352 1.348 . S
C1354 C1356 1.353 . S
C1354 H1396 0.929 . S
C1355 C1352 1.356 . S
C1355 C1357 1.358 . S
C1355 H1397 0.930 . S
C1356 N1353 1.314 . S
C1356 C1354 1.353 . S
C1356 H1398 0.930 . S
C1357 N1353 1.279 . S
C1357 C1355 1.358 . S
C1357 H1399 0.930 . S
C1358 C1359 1.348 . S
C1358 C1360 1.356 . S
C1358 O1383 1.325 . S
C1359 C1358 1.348 . S
C1359 C1361 1.353 . S
C1359 H1400 0.929 . S
C1360 C1358 1.356 . S
C1360 C1362 1.358 . S
C1360 H1401 0.930 . S
C1361 C1359 1.353 . S
C1361 N1363 1.314 . S
C1361 H1402 0.930 . S
C1362 C1360 1.358 . S
C1362 N1363 1.279 . S
C1362 H1403 0.930 . S
N1363 C1361 1.314 . S
N1363 C1362 1.279 . S
C1364 C1366 1.353 . S
C1364 N1367 1.314 . S
C1364 H1370 0.930 . S
C1365 N1367 1.279 . S
C1365 C1368 1.358 . S
C1365 H1371 0.930 . S
C1366 C1364 1.353 . S
C1366 C1369 1.348 . S
C1366 H1404 0.929 . S
N1367 Li1322 1.990 . S
N1367 C1364 1.314 . S
N1367 C1365 1.279 . S
C1368 C1365 1.358 . S
C1368 C1369 1.356 . S
C1368 H1405 0.930 . S
C1369 C1366 1.348 . S
C1369 C1368 1.356 . S
H1370 C1364 0.930 . S
H1371 C1365 0.930 . S
C1372 N1373 1.314 . S
C1372 C1374 1.353 . S
C1372 H1378 0.930 . S
N1373 Li1323 1.990 . S
N1373 C1372 1.314 . S
N1373 C1376 1.279 . S
C1374 C1372 1.353 . S
C1374 C1377 1.348 . S
C1374 H1406 0.929 . S
C1375 C1376 1.358 . S
C1375 C1377 1.356 . S
C1375 H1407 0.930 . S
C1376 N1373 1.279 . S
C1376 C1375 1.358 . S
C1376 H1379 0.930 . S
C1377 C1374 1.348 . S
C1377 C1375 1.356 . S
H1378 C1372 0.930 . S
H1379 C1376 0.930 . S
O1380 Li1320 1.956 . S
O1380 Li1321 1.970 . S
O1380 Li1322 1.961 . S
O1380 C1324 1.325 . S
O1381 Li1320 1.970 . S
O1381 Li1321 1.956 . S
O1381 Li1323 1.961 . S
O1381 C1330 1.325 . S
O1382 Li1320 1.961 . S
O1382 Li1322 1.956 . S
O1382 Li1323 1.970 . S
O1382 C1352 1.325 . S
O1383 Li1321 1.961 . S
O1383 Li1322 1.970 . S
O1383 Li1323 1.956 . S
O1383 C1358 1.325 . S
H1384 C1326 0.929 . S
H1385 C1327 0.930 . S
H1386 C1328 0.930 . S
H1387 C1329 0.930 . S
H1388 C1331 0.930 . S
H1389 C1333 0.929 . S
H1390 C1334 0.930 . S
H1391 C1335 0.930 . S
H1392 C1338 0.930 . S
H1393 C1341 0.929 . S
H1394 C1346 0.929 . S
H1395 C1347 0.930 . S
H1396 C1354 0.929 . S
H1397 C1355 0.930 . S
H1398 C1356 0.930 . S
H1399 C1357 0.930 . S
H1400 C1359 0.929 . S
H1401 C1360 0.930 . S
H1402 C1361 0.930 . S
H1403 C1362 0.930 . S
H1404 C1366 0.929 . S
H1405 C1368 0.930 . S
H1406 C1374 0.929 . S
H1407 C1375 0.930 . S
H1408 C1420 0.930 . S
H1409 C1422 0.930 . S
H1410 C1423 0.930 . S
H1411 C1427 0.959 . S
H1412 C1427 0.959 . S
H1413 C1427 0.961 . S
H1414 C1428 0.960 . S
H1415 C1428 0.961 . S
H1416 C1428 0.959 . S
H1417 C1431 0.929 . S
H1418 C1432 0.931 . S
H1419 C1434 0.930 . S
C1420 H1408 0.930 . S
C1420 C1421 1.399 . S
C1420 C1425 1.399 . S
C1421 C1420 1.399 . S
C1421 C1422 1.376 . S
C1422 H1409 0.930 . S
C1422 C1421 1.376 . S
C1422 C1423 1.388 . S
C1423 H1410 0.930 . S
C1423 C1422 1.388 . S
C1423 C1424 1.390 . S
C1424 C1423 1.390 . S
C1424 C1425 1.394 . S
C1424 C1430 1.465 . S
C1425 C1420 1.399 . S
C1425 C1424 1.394 . S
C1425 C1426 1.516 . S
C1426 C1425 1.516 . S
C1426 C1427 1.502 . S
C1426 C1428 1.561 . S
C1426 C1429 1.526 . S
C1427 H1411 0.959 . S
C1427 H1412 0.959 . S
C1427 H1413 0.961 . S
C1427 C1426 1.502 . S
C1428 H1414 0.960 . S
C1428 H1415 0.961 . S
C1428 H1416 0.959 . S
C1428 C1426 1.561 . S
C1429 C1426 1.526 . S
C1429 C1430 1.396 . S
C1429 C1434 1.390 . S
C1430 C1424 1.465 . S
C1430 C1429 1.396 . S
C1430 C1431 1.399 . S
C1431 H1417 0.929 . S
C1431 C1430 1.399 . S
C1431 C1432 1.385 . S
C1432 H1418 0.931 . S
C1432 C1431 1.385 . S
C1432 C1433 1.389 . S
C1433 C1432 1.389 . S
C1433 C1434 1.387 . S
C1434 H1419 0.930 . S
C1434 C1429 1.390 . S
C1434 C1433 1.387 . S
H1435 C1447 0.930 . S
H1436 C1449 0.930 . S
H1437 C1450 0.930 . S
H1438 C1454 0.959 . S
H1439 C1454 0.959 . S
H1440 C1454 0.961 . S
H1441 C1455 0.960 . S
H1442 C1455 0.961 . S
H1443 C1455 0.959 . S
H1444 C1458 0.929 . S
H1445 C1459 0.931 . S
H1446 C1461 0.930 . S
C1447 H1435 0.930 . S
C1447 C1448 1.399 . S
C1447 C1452 1.399 . S
C1448 C1447 1.399 . S
C1448 C1449 1.376 . S
C1449 H1436 0.930 . S
C1449 C1448 1.376 . S
C1449 C1450 1.388 . S
C1450 H1437 0.930 . S
C1450 C1449 1.388 . S
C1450 C1451 1.390 . S
C1451 C1450 1.390 . S
C1451 C1452 1.394 . S
C1451 C1457 1.465 . S
C1452 C1447 1.399 . S
C1452 C1451 1.394 . S
C1452 C1453 1.516 . S
C1453 C1452 1.516 . S
C1453 C1454 1.502 . S
C1453 C1455 1.561 . S
C1453 C1456 1.526 . S
C1454 H1438 0.959 . S
C1454 H1439 0.959 . S
C1454 H1440 0.961 . S
C1454 C1453 1.502 . S
C1455 H1441 0.960 . S
C1455 H1442 0.961 . S
C1455 H1443 0.959 . S
C1455 C1453 1.561 . S
C1456 C1453 1.526 . S
C1456 C1457 1.396 . S
C1456 C1461 1.390 . S
C1457 C1451 1.465 . S
C1457 C1456 1.396 . S
C1457 C1458 1.399 . S
C1458 H1444 0.929 . S
C1458 C1457 1.399 . S
C1458 C1459 1.385 . S
C1459 H1445 0.931 . S
C1459 C1458 1.385 . S
C1459 C1460 1.389 . S
C1460 C1459 1.389 . S
C1460 C1461 1.387 . S
C1461 H1446 0.930 . S
C1461 C1456 1.390 . S
C1461 C1460 1.387 . S
H1462 C1474 0.930 . S
H1463 C1476 0.930 . S
H1464 C1477 0.930 . S
H1465 C1481 0.959 . S
H1466 C1481 0.959 . S
H1467 C1481 0.961 . S
H1468 C1482 0.960 . S
H1469 C1482 0.961 . S
H1470 C1482 0.959 . S
H1471 C1485 0.929 . S
H1472 C1486 0.931 . S
H1473 C1488 0.930 . S
C1474 H1462 0.930 . S
C1474 C1475 1.399 . S
C1474 C1479 1.399 . S
C1475 C1474 1.399 . S
C1475 C1476 1.376 . S
C1476 H1463 0.930 . S
C1476 C1475 1.376 . S
C1476 C1477 1.388 . S
C1477 H1464 0.930 . S
C1477 C1476 1.388 . S
C1477 C1478 1.390 . S
C1478 C1477 1.390 . S
C1478 C1479 1.394 . S
C1478 C1484 1.465 . S
C1479 C1474 1.399 . S
C1479 C1478 1.394 . S
C1479 C1480 1.516 . S
C1480 C1479 1.516 . S
C1480 C1481 1.502 . S
C1480 C1482 1.561 . S
C1480 C1483 1.526 . S
C1481 H1465 0.959 . S
C1481 H1466 0.959 . S
C1481 H1467 0.961 . S
C1481 C1480 1.502 . S
C1482 H1468 0.960 . S
C1482 H1469 0.961 . S
C1482 H1470 0.959 . S
C1482 C1480 1.561 . S
C1483 C1480 1.526 . S
C1483 C1484 1.396 . S
C1483 C1488 1.390 . S
C1484 C1478 1.465 . S
C1484 C1483 1.396 . S
C1484 C1485 1.399 . S
C1485 H1471 0.929 . S
C1485 C1484 1.399 . S
C1485 C1486 1.385 . S
C1486 H1472 0.931 . S
C1486 C1485 1.385 . S
C1486 C1487 1.389 . S
C1487 C1486 1.389 . S
C1487 C1488 1.387 . S
C1488 H1473 0.930 . S
C1488 C1483 1.390 . S
C1488 C1487 1.387 . S
H1489 C1501 0.930 . S
H1490 C1503 0.930 . S
H1491 C1504 0.930 . S
H1492 C1508 0.959 . S
H1493 C1508 0.959 . S
H1494 C1508 0.961 . S
H1495 C1509 0.960 . S
H1496 C1509 0.961 . S
H1497 C1509 0.959 . S
H1498 C1512 0.929 . S
H1499 C1513 0.931 . S
H1500 C1515 0.930 . S
C1501 H1489 0.930 . S
C1501 C1502 1.399 . S
C1501 C1506 1.399 . S
C1502 C1501 1.399 . S
C1502 C1503 1.376 . S
C1503 H1490 0.930 . S
C1503 C1502 1.376 . S
C1503 C1504 1.388 . S
C1504 H1491 0.930 . S
C1504 C1503 1.388 . S
C1504 C1505 1.390 . S
C1505 C1504 1.390 . S
C1505 C1506 1.394 . S
C1505 C1511 1.465 . S
C1506 C1501 1.399 . S
C1506 C1505 1.394 . S
C1506 C1507 1.516 . S
C1507 C1506 1.516 . S
C1507 C1508 1.502 . S
C1507 C1509 1.561 . S
C1507 C1510 1.526 . S
C1508 H1492 0.959 . S
C1508 H1493 0.959 . S
C1508 H1494 0.961 . S
C1508 C1507 1.502 . S
C1509 H1495 0.960 . S
C1509 H1496 0.961 . S
C1509 H1497 0.959 . S
C1509 C1507 1.561 . S
C1510 C1507 1.526 . S
C1510 C1511 1.396 . S
C1510 C1515 1.390 . S
C1511 C1505 1.465 . S
C1511 C1510 1.396 . S
C1511 C1512 1.399 . S
C1512 H1498 0.929 . S
C1512 C1511 1.399 . S
C1512 C1513 1.385 . S
C1513 H1499 0.931 . S
C1513 C1512 1.385 . S
C1513 C1514 1.389 . S
C1514 C1513 1.389 . S
C1514 C1515 1.387 . S
C1515 H1500 0.930 . S
C1515 C1510 1.390 . S
C1515 C1514 1.387 . S
H1516 C1528 0.930 . S
H1517 C1530 0.930 . S
H1518 C1531 0.930 . S
H1519 C1535 0.959 . S
H1520 C1535 0.959 . S
H1521 C1535 0.961 . S
H1522 C1536 0.960 . S
H1523 C1536 0.961 . S
H1524 C1536 0.959 . S
H1525 C1539 0.929 . S
H1526 C1540 0.931 . S
H1527 C1542 0.930 . S
C1528 H1516 0.930 . S
C1528 C1529 1.399 . S
C1528 C1533 1.399 . S
C1529 C1528 1.399 . S
C1529 C1530 1.376 . S
C1530 H1517 0.930 . S
C1530 C1529 1.376 . S
C1530 C1531 1.388 . S
C1531 H1518 0.930 . S
C1531 C1530 1.388 . S
C1531 C1532 1.390 . S
C1532 C1531 1.390 . S
C1532 C1533 1.394 . S
C1532 C1538 1.465 . S
C1533 C1528 1.399 . S
C1533 C1532 1.394 . S
C1533 C1534 1.516 . S
C1534 C1533 1.516 . S
C1534 C1535 1.502 . S
C1534 C1536 1.561 . S
C1534 C1537 1.526 . S
C1535 H1519 0.959 . S
C1535 H1520 0.959 . S
C1535 H1521 0.961 . S
C1535 C1534 1.502 . S
C1536 H1522 0.960 . S
C1536 H1523 0.961 . S
C1536 H1524 0.959 . S
C1536 C1534 1.561 . S
C1537 C1534 1.526 . S
C1537 C1538 1.396 . S
C1537 C1542 1.390 . S
C1538 C1532 1.465 . S
C1538 C1537 1.396 . S
C1538 C1539 1.399 . S
C1539 H1525 0.929 . S
C1539 C1538 1.399 . S
C1539 C1540 1.385 . S
C1540 H1526 0.931 . S
C1540 C1539 1.385 . S
C1540 C1541 1.389 . S
C1541 C1540 1.389 . S
C1541 C1542 1.387 . S
C1542 H1527 0.930 . S
C1542 C1537 1.390 . S
C1542 C1541 1.387 . S
H1543 C1555 0.930 . S
H1544 C1557 0.930 . S
H1545 C1558 0.930 . S
H1546 C1562 0.959 . S
H1547 C1562 0.959 . S
H1548 C1562 0.961 . S
H1549 C1563 0.960 . S
H1550 C1563 0.961 . S
H1551 C1563 0.959 . S
H1552 C1566 0.929 . S
H1553 C1567 0.931 . S
H1554 C1569 0.930 . S
C1555 H1543 0.930 . S
C1555 C1556 1.399 . S
C1555 C1560 1.399 . S
C1556 C1555 1.399 . S
C1556 C1557 1.376 . S
C1557 H1544 0.930 . S
C1557 C1556 1.376 . S
C1557 C1558 1.388 . S
C1558 H1545 0.930 . S
C1558 C1557 1.388 . S
C1558 C1559 1.390 . S
C1559 C1558 1.390 . S
C1559 C1560 1.394 . S
C1559 C1565 1.465 . S
C1560 C1555 1.399 . S
C1560 C1559 1.394 . S
C1560 C1561 1.516 . S
C1561 C1560 1.516 . S
C1561 C1562 1.502 . S
C1561 C1563 1.561 . S
C1561 C1564 1.526 . S
C1562 H1546 0.959 . S
C1562 H1547 0.959 . S
C1562 H1548 0.961 . S
C1562 C1561 1.502 . S
C1563 H1549 0.960 . S
C1563 H1550 0.961 . S
C1563 H1551 0.959 . S
C1563 C1561 1.561 . S
C1564 C1561 1.526 . S
C1564 C1565 1.396 . S
C1564 C1569 1.390 . S
C1565 C1559 1.465 . S
C1565 C1564 1.396 . S
C1565 C1566 1.399 . S
C1566 H1552 0.929 . S
C1566 C1565 1.399 . S
C1566 C1567 1.385 . S
C1567 H1553 0.931 . S
C1567 C1566 1.385 . S
C1567 C1568 1.389 . S
C1568 C1567 1.389 . S
C1568 C1569 1.387 . S
C1569 H1554 0.930 . S
C1569 C1564 1.390 . S
C1569 C1568 1.387 . S
H1570 C1582 0.930 . S
H1571 C1584 0.930 . S
H1572 C1585 0.930 . S
H1573 C1589 0.959 . S
H1574 C1589 0.959 . S
H1575 C1589 0.961 . S
H1576 C1590 0.960 . S
H1577 C1590 0.961 . S
H1578 C1590 0.959 . S
H1579 C1593 0.929 . S
H1580 C1594 0.931 . S
H1581 C1596 0.930 . S
C1582 H1570 0.930 . S
C1582 C1583 1.399 . S
C1582 C1587 1.399 . S
C1583 C1582 1.399 . S
C1583 C1584 1.376 . S
C1584 H1571 0.930 . S
C1584 C1583 1.376 . S
C1584 C1585 1.388 . S
C1585 H1572 0.930 . S
C1585 C1584 1.388 . S
C1585 C1586 1.390 . S
C1586 C1585 1.390 . S
C1586 C1587 1.394 . S
C1586 C1592 1.465 . S
C1587 C1582 1.399 . S
C1587 C1586 1.394 . S
C1587 C1588 1.516 . S
C1588 C1587 1.516 . S
C1588 C1589 1.502 . S
C1588 C1590 1.561 . S
C1588 C1591 1.526 . S
C1589 H1573 0.959 . S
C1589 H1574 0.959 . S
C1589 H1575 0.961 . S
C1589 C1588 1.502 . S
C1590 H1576 0.960 . S
C1590 H1577 0.961 . S
C1590 H1578 0.959 . S
C1590 C1588 1.561 . S
C1591 C1588 1.526 . S
C1591 C1592 1.396 . S
C1591 C1596 1.390 . S
C1592 C1586 1.465 . S
C1592 C1591 1.396 . S
C1592 C1593 1.399 . S
C1593 H1579 0.929 . S
C1593 C1592 1.399 . S
C1593 C1594 1.385 . S
C1594 H1580 0.931 . S
C1594 C1593 1.385 . S
C1594 C1595 1.389 . S
C1595 C1594 1.389 . S
C1595 C1596 1.387 . S
C1596 H1581 0.930 . S
C1596 C1591 1.390 . S
C1596 C1595 1.387 . S
H1597 C1609 0.930 . S
H1598 C1611 0.930 . S
H1599 C1612 0.930 . S
H1600 C1616 0.959 . S
H1601 C1616 0.959 . S
H1602 C1616 0.961 . S
H1603 C1617 0.960 . S
H1604 C1617 0.961 . S
H1605 C1617 0.959 . S
H1606 C1620 0.929 . S
H1607 C1621 0.931 . S
H1608 C1623 0.930 . S
C1609 H1597 0.930 . S
C1609 C1610 1.399 . S
C1609 C1614 1.399 . S
C1610 C1609 1.399 . S
C1610 C1611 1.376 . S
C1611 H1598 0.930 . S
C1611 C1610 1.376 . S
C1611 C1612 1.388 . S
C1612 H1599 0.930 . S
C1612 C1611 1.388 . S
C1612 C1613 1.390 . S
C1613 C1612 1.390 . S
C1613 C1614 1.394 . S
C1613 C1619 1.465 . S
C1614 C1609 1.399 . S
C1614 C1613 1.394 . S
C1614 C1615 1.516 . S
C1615 C1614 1.516 . S
C1615 C1616 1.502 . S
C1615 C1617 1.561 . S
C1615 C1618 1.526 . S
C1616 H1600 0.959 . S
C1616 H1601 0.959 . S
C1616 H1602 0.961 . S
C1616 C1615 1.502 . S
C1617 H1603 0.960 . S
C1617 H1604 0.961 . S
C1617 H1605 0.959 . S
C1617 C1615 1.561 . S
C1618 C1615 1.526 . S
C1618 C1619 1.396 . S
C1618 C1623 1.390 . S
C1619 C1613 1.465 . S
C1619 C1618 1.396 . S
C1619 C1620 1.399 . S
C1620 H1606 0.929 . S
C1620 C1619 1.399 . S
C1620 C1621 1.385 . S
C1621 H1607 0.931 . S
C1621 C1620 1.385 . S
C1621 C1622 1.389 . S
C1622 C1621 1.389 . S
C1622 C1623 1.387 . S
C1623 H1608 0.930 . S
C1623 C1618 1.390 . S
C1623 C1622 1.387 . S
H1624 C1636 0.930 . S
H1625 C1638 0.930 . S
H1626 C1639 0.930 . S
H1627 C1643 0.959 . S
H1628 C1643 0.959 . S
H1629 C1643 0.961 . S
H1630 C1644 0.960 . S
H1631 C1644 0.961 . S
H1632 C1644 0.959 . S
H1633 C1647 0.929 . S
H1634 C1648 0.931 . S
H1635 C1650 0.930 . S
C1636 H1624 0.930 . S
C1636 C1637 1.399 . S
C1636 C1641 1.399 . S
C1637 C1636 1.399 . S
C1637 C1638 1.376 . S
C1638 H1625 0.930 . S
C1638 C1637 1.376 . S
C1638 C1639 1.388 . S
C1639 H1626 0.930 . S
C1639 C1638 1.388 . S
C1639 C1640 1.390 . S
C1640 C1639 1.390 . S
C1640 C1641 1.394 . S
C1640 C1646 1.465 . S
C1641 C1636 1.399 . S
C1641 C1640 1.394 . S
C1641 C1642 1.516 . S
C1642 C1641 1.516 . S
C1642 C1643 1.502 . S
C1642 C1644 1.561 . S
C1642 C1645 1.526 . S
C1643 H1627 0.959 . S
C1643 H1628 0.959 . S
C1643 H1629 0.961 . S
C1643 C1642 1.502 . S
C1644 H1630 0.960 . S
C1644 H1631 0.961 . S
C1644 H1632 0.959 . S
C1644 C1642 1.561 . S
C1645 C1642 1.526 . S
C1645 C1646 1.396 . S
C1645 C1650 1.390 . S
C1646 C1640 1.465 . S
C1646 C1645 1.396 . S
C1646 C1647 1.399 . S
C1647 H1633 0.929 . S
C1647 C1646 1.399 . S
C1647 C1648 1.385 . S
C1648 H1634 0.931 . S
C1648 C1647 1.385 . S
C1648 C1649 1.389 . S
C1649 C1648 1.389 . S
C1649 C1650 1.387 . S
C1650 H1635 0.930 . S
C1650 C1645 1.390 . S
C1650 C1649 1.387 . S
H1651 C1663 0.930 . S
H1652 C1665 0.930 . S
H1653 C1666 0.930 . S
H1654 C1670 0.959 . S
H1655 C1670 0.959 . S
H1656 C1670 0.961 . S
H1657 C1671 0.960 . S
H1658 C1671 0.961 . S
H1659 C1671 0.959 1_655 S
H1660 C1674 0.929 . S
H1661 C1675 0.931 . S
H1662 C1677 0.930 . S
C1663 H1651 0.930 . S
C1663 C1664 1.399 1_465 S
C1663 C1668 1.399 . S
C1664 C1663 1.399 1_645 S
C1664 C1665 1.376 . S
C1665 H1652 0.930 . S
C1665 C1664 1.376 . S
C1665 C1666 1.388 . S
C1666 H1653 0.930 . S
C1666 C1665 1.388 . S
C1666 C1667 1.390 . S
C1667 C1666 1.390 . S
C1667 C1668 1.394 1_645 S
C1667 C1673 1.465 . S
C1668 C1663 1.399 . S
C1668 C1667 1.394 1_465 S
C1668 C1669 1.516 . S
C1669 C1668 1.516 . S
C1669 C1670 1.502 . S
C1669 C1671 1.561 . S
C1669 C1672 1.526 . S
C1670 H1654 0.959 . S
C1670 H1655 0.959 . S
C1670 H1656 0.961 . S
C1670 C1669 1.502 . S
C1671 H1657 0.960 . S
C1671 H1658 0.961 . S
C1671 H1659 0.959 1_455 S
C1671 C1669 1.561 . S
C1672 C1669 1.526 . S
C1672 C1673 1.396 1_465 S
C1672 C1677 1.390 . S
C1673 C1667 1.465 . S
C1673 C1672 1.396 1_645 S
C1673 C1674 1.399 . S
C1674 H1660 0.929 . S
C1674 C1673 1.399 . S
C1674 C1675 1.385 . S
C1675 H1661 0.931 . S
C1675 C1674 1.385 . S
C1675 C1676 1.389 1_545 S
C1676 C1675 1.389 1_565 S
C1676 C1677 1.387 1_655 S
C1677 H1662 0.930 . S
C1677 C1672 1.390 . S
C1677 C1676 1.387 1_455 S
H1678 C1690 0.930 . S
H1679 C1692 0.930 . S
H1680 C1693 0.930 . S
H1681 C1697 0.959 . S
H1682 C1697 0.959 . S
H1683 C1697 0.961 1_556 S
H1684 C1698 0.960 . S
H1685 C1698 0.961 1_554 S
H1686 C1698 0.959 . S
H1687 C1701 0.929 . S
H1688 C1702 0.931 . S
H1689 C1704 0.930 . S
C1690 H1678 0.930 . S
C1690 C1691 1.399 . S
C1690 C1695 1.399 . S
C1691 C1690 1.399 . S
C1691 C1692 1.376 . S
C1692 H1679 0.930 . S
C1692 C1691 1.376 . S
C1692 C1693 1.388 . S
C1693 H1680 0.930 . S
C1693 C1692 1.388 . S
C1693 C1694 1.390 . S
C1694 C1693 1.390 . S
C1694 C1695 1.394 . S
C1694 C1700 1.465 1_556 S
C1695 C1690 1.399 . S
C1695 C1694 1.394 . S
C1695 C1696 1.516 1_556 S
C1696 C1695 1.516 1_554 S
C1696 C1697 1.502 . S
C1696 C1698 1.561 1_554 S
C1696 C1699 1.526 . S
C1697 H1681 0.959 . S
C1697 H1682 0.959 . S
C1697 H1683 0.961 1_554 S
C1697 C1696 1.502 . S
C1698 H1684 0.960 . S
C1698 H1685 0.961 1_556 S
C1698 H1686 0.959 . S
C1698 C1696 1.561 1_556 S
C1699 C1696 1.526 . S
C1699 C1700 1.396 . S
C1699 C1704 1.390 . S
C1700 C1694 1.465 1_554 S
C1700 C1699 1.396 . S
C1700 C1701 1.399 . S
C1701 H1687 0.929 . S
C1701 C1700 1.399 . S
C1701 C1702 1.385 . S
C1702 H1688 0.931 . S
C1702 C1701 1.385 . S
C1702 C1703 1.389 . S
C1703 C1702 1.389 . S
C1703 C1704 1.387 . S
C1704 H1689 0.930 . S
C1704 C1699 1.390 . S
C1704 C1703 1.387 . S
H1705 C1717 0.930 . S
H1706 C1719 0.930 . S
H1707 C1720 0.930 . S
H1708 C1724 0.959 . S
H1709 C1724 0.959 . S
H1710 C1724 0.961 . S
H1711 C1725 0.960 . S
H1712 C1725 0.961 . S
H1713 C1725 0.959 . S
H1714 C1728 0.929 . S
H1715 C1729 0.931 . S
H1716 C1731 0.930 . S
C1717 H1705 0.930 . S
C1717 C1718 1.399 1_545 S
C1717 C1722 1.399 . S
C1718 C1717 1.399 1_565 S
C1718 C1719 1.376 . S
C1719 H1706 0.930 . S
C1719 C1718 1.376 . S
C1719 C1720 1.388 . S
C1720 H1707 0.930 . S
C1720 C1719 1.388 . S
C1720 C1721 1.390 . S
C1721 C1720 1.390 . S
C1721 C1722 1.394 1_565 S
C1721 C1727 1.465 . S
C1722 C1717 1.399 . S
C1722 C1721 1.394 1_545 S
C1722 C1723 1.516 . S
C1723 C1722 1.516 . S
C1723 C1724 1.502 . S
C1723 C1725 1.561 . S
C1723 C1726 1.526 . S
C1724 H1708 0.959 . S
C1724 H1709 0.959 . S
C1724 H1710 0.961 . S
C1724 C1723 1.502 . S
C1725 H1711 0.960 . S
C1725 H1712 0.961 . S
C1725 H1713 0.959 . S
C1725 C1723 1.561 . S
C1726 C1723 1.526 . S
C1726 C1727 1.396 1_545 S
C1726 C1731 1.390 . S
C1727 C1721 1.465 . S
C1727 C1726 1.396 1_565 S
C1727 C1728 1.399 . S
C1728 H1714 0.929 . S
C1728 C1727 1.399 . S
C1728 C1729 1.385 . S
C1729 H1715 0.931 . S
C1729 C1728 1.385 . S
C1729 C1730 1.389 1_565 S
C1730 C1729 1.389 1_545 S
C1730 C1731 1.387 . S
C1731 H1716 0.930 . S
C1731 C1726 1.390 . S
C1731 C1730 1.387 . S
H1732 C1744 0.930 . S
H1733 C1746 0.930 . S
H1734 C1747 0.930 . S
H1735 C1751 0.959 . S
H1736 C1751 0.959 . S
H1737 C1751 0.961 . S
H1738 C1752 0.960 . S
H1739 C1752 0.961 . S
H1740 C1752 0.959 . S
H1741 C1755 0.929 . S
H1742 C1756 0.931 . S
H1743 C1758 0.930 . S
C1744 H1732 0.930 . S
C1744 C1745 1.399 . S
C1744 C1749 1.399 . S
C1745 C1744 1.399 . S
C1745 C1746 1.376 . S
C1746 H1733 0.930 . S
C1746 C1745 1.376 . S
C1746 C1747 1.388 . S
C1747 H1734 0.930 . S
C1747 C1746 1.388 . S
C1747 C1748 1.390 . S
C1748 C1747 1.390 . S
C1748 C1749 1.394 . S
C1748 C1754 1.465 . S
C1749 C1744 1.399 . S
C1749 C1748 1.394 . S
C1749 C1750 1.516 . S
C1750 C1749 1.516 . S
C1750 C1751 1.502 . S
C1750 C1752 1.561 . S
C1750 C1753 1.526 . S
C1751 H1735 0.959 . S
C1751 H1736 0.959 . S
C1751 H1737 0.961 . S
C1751 C1750 1.502 . S
C1752 H1738 0.960 . S
C1752 H1739 0.961 . S
C1752 H1740 0.959 . S
C1752 C1750 1.561 . S
C1753 C1750 1.526 . S
C1753 C1754 1.396 . S
C1753 C1758 1.390 . S
C1754 C1748 1.465 . S
C1754 C1753 1.396 . S
C1754 C1755 1.399 . S
C1755 H1741 0.929 . S
C1755 C1754 1.399 . S
C1755 C1756 1.385 . S
C1756 H1742 0.931 . S
C1756 C1755 1.385 . S
C1756 C1757 1.389 . S
C1757 C1756 1.389 . S
C1757 C1758 1.387 . S
C1758 H1743 0.930 . S
C1758 C1753 1.390 . S
C1758 C1757 1.387 . S
H1759 C1771 0.937 . S
H1760 C1773 0.930 . S
H1761 C1774 0.930 . S
H1762 C1778 0.959 . S
H1763 C1778 0.959 . S
H1764 C1778 0.961 . S
H1765 C1779 0.960 . S
H1766 C1779 0.961 . S
H1767 C1779 0.959 . S
H1768 C1782 0.929 . S
H1769 C1783 0.931 . S
H1770 C1785 0.930 . S
C1771 H1759 0.937 . S
C1771 C1772 1.399 . S
C1771 C1776 1.399 . S
C1772 C1771 1.399 . S
C1772 C1773 1.376 . S
C1773 H1760 0.930 . S
C1773 C1772 1.376 . S
C1773 C1774 1.388 . S
C1774 H1761 0.930 . S
C1774 C1773 1.388 . S
C1774 C1775 1.390 . S
C1775 C1774 1.390 . S
C1775 C1776 1.394 . S
C1775 C1781 1.465 . S
C1776 C1771 1.399 . S
C1776 C1775 1.394 . S
C1776 C1777 1.516 1_655 S
C1777 C1776 1.516 1_455 S
C1777 C1778 1.502 . S
C1777 C1779 1.561 1_455 S
C1777 C1780 1.526 . S
C1778 H1762 0.959 . S
C1778 H1763 0.959 . S
C1778 H1764 0.961 . S
C1778 C1777 1.502 . S
C1779 H1765 0.960 . S
C1779 H1766 0.961 . S
C1779 H1767 0.959 . S
C1779 C1777 1.561 1_655 S
C1780 C1777 1.526 . S
C1780 C1781 1.396 1_455 S
C1780 C1785 1.390 . S
C1781 C1775 1.465 . S
C1781 C1780 1.396 1_655 S
C1781 C1782 1.399 . S
C1782 H1768 0.929 . S
C1782 C1781 1.399 . S
C1782 C1783 1.385 1_655 S
C1783 H1769 0.931 . S
C1783 C1782 1.385 1_455 S
C1783 C1784 1.389 . S
C1784 C1783 1.389 . S
C1784 C1785 1.387 . S
C1785 H1770 0.930 . S
C1785 C1780 1.390 . S
C1785 C1784 1.387 . S
H1786 C1798 0.930 . S
H1787 C1800 0.930 . S
H1788 C1801 0.930 . S
H1789 C1805 0.959 . S
H1790 C1805 0.959 . S
H1791 C1805 0.961 1_655 S
H1792 C1806 0.960 1_655 S
H1793 C1806 0.961 . S
H1794 C1806 0.959 . S
H1795 C1809 0.929 . S
H1796 C1810 0.931 . S
H1797 C1812 0.930 . S
C1798 H1786 0.930 . S
C1798 C1799 1.399 . S
C1798 C1803 1.399 . S
C1799 C1798 1.399 . S
C1799 C1800 1.376 . S
C1800 H1787 0.930 . S
C1800 C1799 1.376 . S
C1800 C1801 1.388 . S
C1801 H1788 0.930 . S
C1801 C1800 1.388 . S
C1801 C1802 1.390 . S
C1802 C1801 1.390 . S
C1802 C1803 1.394 . S
C1802 C1808 1.465 1_655 S
C1803 C1798 1.399 . S
C1803 C1802 1.394 . S
C1803 C1804 1.516 1_655 S
C1804 C1803 1.516 1_455 S
C1804 C1805 1.502 . S
C1804 C1806 1.561 . S
C1804 C1807 1.526 . S
C1805 H1789 0.959 . S
C1805 H1790 0.959 . S
C1805 H1791 0.961 1_455 S
C1805 C1804 1.502 . S
C1806 H1792 0.960 1_455 S
C1806 H1793 0.961 . S
C1806 H1794 0.959 . S
C1806 C1804 1.561 . S
C1807 C1804 1.526 . S
C1807 C1808 1.396 . S
C1807 C1812 1.390 . S
C1808 C1802 1.465 1_455 S
C1808 C1807 1.396 . S
C1808 C1809 1.399 . S
C1809 H1795 0.929 . S
C1809 C1808 1.399 . S
C1809 C1810 1.385 . S
C1810 H1796 0.931 . S
C1810 C1809 1.385 . S
C1810 C1811 1.389 . S
C1811 C1810 1.389 . S
C1811 C1812 1.387 . S
C1812 H1797 0.930 . S
C1812 C1807 1.390 . S
C1812 C1811 1.387 . S
H1813 C1825 0.930 . S
H1814 C1827 0.930 . S
H1815 C1828 0.930 . S
H1816 C1832 0.959 . S
H1817 C1832 0.959 . S
H1818 C1832 0.961 . S
H1819 C1833 0.960 . S
H1820 C1833 0.961 . S
H1821 C1833 0.959 . S
H1822 C1836 0.929 . S
H1823 C1837 0.931 . S
H1824 C1839 0.930 . S
C1825 H1813 0.930 . S
C1825 C1826 1.399 1_554 S
C1825 C1830 1.399 . S
C1826 C1825 1.399 1_556 S
C1826 C1827 1.376 . S
C1827 H1814 0.930 . S
C1827 C1826 1.376 . S
C1827 C1828 1.388 . S
C1828 H1815 0.930 . S
C1828 C1827 1.388 . S
C1828 C1829 1.390 . S
C1829 C1828 1.390 . S
C1829 C1830 1.394 1_556 S
C1829 C1835 1.465 . S
C1830 C1825 1.399 . S
C1830 C1829 1.394 1_554 S
C1830 C1831 1.516 . S
C1831 C1830 1.516 . S
C1831 C1832 1.502 . S
C1831 C1833 1.561 . S
C1831 C1834 1.526 . S
C1832 H1816 0.959 . S
C1832 H1817 0.959 . S
C1832 H1818 0.961 . S
C1832 C1831 1.502 . S
C1833 H1819 0.960 . S
C1833 H1820 0.961 . S
C1833 H1821 0.959 . S
C1833 C1831 1.561 . S
C1834 C1831 1.526 . S
C1834 C1835 1.396 1_554 S
C1834 C1839 1.390 . S
C1835 C1829 1.465 . S
C1835 C1834 1.396 1_556 S
C1835 C1836 1.399 . S
C1836 H1822 0.929 . S
C1836 C1835 1.399 . S
C1836 C1837 1.385 . S
C1837 H1823 0.931 . S
C1837 C1836 1.385 . S
C1837 C1838 1.389 . S
C1838 C1837 1.389 . S
C1838 C1839 1.387 1_556 S
C1839 H1824 0.930 . S
C1839 C1834 1.390 . S
C1839 C1838 1.387 1_554 S
H1840 C1852 0.930 . S
H1841 C1854 0.930 . S
H1842 C1855 0.930 . S
H1843 C1859 0.959 . S
H1844 C1859 0.959 . S
H1845 C1859 0.961 . S
H1846 C1860 0.960 . S
H1847 C1860 0.961 . S
H1848 C1860 0.959 . S
H1849 C1863 0.929 . S
H1850 C1864 0.931 . S
H1851 C1866 0.930 . S
C1852 H1840 0.930 . S
C1852 C1853 1.399 . S
C1852 C1857 1.399 . S
C1853 C1852 1.399 . S
C1853 C1854 1.376 . S
C1854 H1841 0.930 . S
C1854 C1853 1.376 . S
C1854 C1855 1.388 . S
C1855 H1842 0.930 . S
C1855 C1854 1.388 . S
C1855 C1856 1.390 . S
C1856 C1855 1.390 . S
C1856 C1857 1.394 . S
C1856 C1862 1.465 . S
C1857 C1852 1.399 . S
C1857 C1856 1.394 . S
C1857 C1858 1.516 . S
C1858 C1857 1.516 . S
C1858 C1859 1.502 . S
C1858 C1860 1.561 . S
C1858 C1861 1.526 . S
C1859 H1843 0.959 . S
C1859 H1844 0.959 . S
C1859 H1845 0.961 . S
C1859 C1858 1.502 . S
C1860 H1846 0.960 . S
C1860 H1847 0.961 . S
C1860 H1848 0.959 . S
C1860 C1858 1.561 . S
C1861 C1858 1.526 . S
C1861 C1862 1.396 . S
C1861 C1866 1.390 . S
C1862 C1856 1.465 . S
C1862 C1861 1.396 . S
C1862 C1863 1.399 . S
C1863 H1849 0.929 . S
C1863 C1862 1.399 . S
C1863 C1864 1.385 . S
C1864 H1850 0.931 . S
C1864 C1863 1.385 . S
C1864 C1865 1.389 . S
C1865 C1864 1.389 . S
C1865 C1866 1.387 . S
C1866 H1851 0.930 . S
C1866 C1861 1.390 . S
C1866 C1865 1.387 . S
H1867 C1879 0.930 . S
H1868 C1881 0.930 . S
H1869 C1882 0.930 . S
H1870 C1886 0.959 . S
H1871 C1886 0.959 . S
H1872 C1886 0.961 . S
H1873 C1887 0.960 . S
H1874 C1887 0.961 . S
H1875 C1887 0.959 . S
H1876 C1890 0.929 . S
H1877 C1891 0.931 . S
H1878 C1893 0.930 . S
C1879 H1867 0.930 . S
C1879 C1880 1.399 . S
C1879 C1884 1.399 . S
C1880 C1879 1.399 . S
C1880 C1881 1.376 . S
C1881 H1868 0.930 . S
C1881 C1880 1.376 . S
C1881 C1882 1.388 . S
C1882 H1869 0.930 . S
C1882 C1881 1.388 . S
C1882 C1883 1.390 . S
C1883 C1882 1.390 . S
C1883 C1884 1.394 . S
C1883 C1889 1.465 . S
C1884 C1879 1.399 . S
C1884 C1883 1.394 . S
C1884 C1885 1.516 . S
C1885 C1884 1.516 . S
C1885 C1886 1.502 . S
C1885 C1887 1.561 . S
C1885 C1888 1.526 . S
C1886 H1870 0.959 . S
C1886 H1871 0.959 . S
C1886 H1872 0.961 . S
C1886 C1885 1.502 . S
C1887 H1873 0.960 . S
C1887 H1874 0.961 . S
C1887 H1875 0.959 . S
C1887 C1885 1.561 . S
C1888 C1885 1.526 . S
C1888 C1889 1.396 . S
C1888 C1893 1.390 . S
C1889 C1883 1.465 . S
C1889 C1888 1.396 . S
C1889 C1890 1.399 . S
C1890 H1876 0.929 . S
C1890 C1889 1.399 . S
C1890 C1891 1.385 . S
C1891 H1877 0.931 . S
C1891 C1890 1.385 . S
C1891 C1892 1.389 . S
C1892 C1891 1.389 . S
C1892 C1893 1.387 . S
C1893 H1878 0.930 . S
C1893 C1888 1.390 . S
C1893 C1892 1.387 . S
H1894 C1906 0.930 . S
H1895 C1908 0.930 . S
H1896 C1909 0.930 . S
H1897 C1913 0.959 . S
H1898 C1913 0.959 1_655 S
H1899 C1913 0.961 . S
H1900 C1914 0.931 1_455 S
H1901 C1914 0.985 . S
H1902 C1914 0.968 . S
H1903 C1917 0.929 . S
H1904 C1918 0.931 . S
H1905 C1920 0.930 . S
C1906 H1894 0.930 . S
C1906 C1907 1.399 . S
C1906 C1911 1.399 . S
C1907 C1906 1.399 . S
C1907 C1908 1.376 . S
C1908 H1895 0.930 . S
C1908 C1907 1.376 . S
C1908 C1909 1.388 . S
C1909 H1896 0.930 . S
C1909 C1908 1.388 . S
C1909 C1910 1.390 . S
C1910 C1909 1.390 . S
C1910 C1911 1.394 . S
C1910 C1916 1.465 1_455 S
C1911 C1906 1.399 . S
C1911 C1910 1.394 . S
C1911 C1912 1.516 . S
C1912 C1911 1.516 . S
C1912 C1913 1.502 . S
C1912 C1914 1.558 1_455 S
C1912 C1915 1.526 1_455 S
C1913 H1897 0.959 . S
C1913 H1898 0.959 1_455 S
C1913 H1899 0.961 . S
C1913 C1912 1.502 . S
C1914 H1900 0.931 1_655 S
C1914 H1901 0.985 . S
C1914 H1902 0.968 . S
C1914 C1912 1.558 1_655 S
C1915 C1912 1.526 1_655 S
C1915 C1916 1.396 . S
C1915 C1920 1.390 . S
C1916 C1910 1.465 1_655 S
C1916 C1915 1.396 . S
C1916 C1917 1.399 . S
C1917 H1903 0.929 . S
C1917 C1916 1.399 . S
C1917 C1918 1.385 . S
C1918 H1904 0.931 . S
C1918 C1917 1.385 . S
C1918 C1919 1.389 . S
C1919 C1918 1.389 . S
C1919 C1920 1.387 . S
C1920 H1905 0.930 . S
C1920 C1915 1.390 . S
C1920 C1919 1.387 . S
H1921 C1933 0.930 1_655 S
H1922 C1935 0.930 . S
H1923 C1936 0.930 . S
H1924 C1940 0.959 . S
H1925 C1940 0.959 . S
H1926 C1940 0.961 . S
H1927 C1941 0.960 . S
H1928 C1941 0.961 . S
H1929 C1941 0.959 . S
H1930 C1944 0.929 . S
H1931 C1945 0.928 1_455 S
H1932 C1947 0.930 . S
C1933 H1921 0.930 1_455 S
C1933 C1934 1.399 1_556 S
C1933 C1938 1.399 . S
C1934 C1933 1.399 1_554 S
C1934 C1935 1.376 . S
C1935 H1922 0.930 . S
C1935 C1934 1.376 . S
C1935 C1936 1.388 . S
C1936 H1923 0.930 . S
C1936 C1935 1.388 . S
C1936 C1937 1.390 . S
C1937 C1936 1.390 . S
C1937 C1938 1.394 1_554 S
C1937 C1943 1.465 . S
C1938 C1933 1.399 . S
C1938 C1937 1.394 1_556 S
C1938 C1939 1.516 1_455 S
C1939 C1938 1.516 1_655 S
C1939 C1940 1.502 . S
C1939 C1941 1.561 1_655 S
C1939 C1942 1.526 . S
C1940 H1924 0.959 . S
C1940 H1925 0.959 . S
C1940 H1926 0.961 . S
C1940 C1939 1.502 . S
C1941 H1927 0.960 . S
C1941 H1928 0.961 . S
C1941 H1929 0.959 . S
C1941 C1939 1.561 1_455 S
C1942 C1939 1.526 . S
C1942 C1943 1.396 1_656 S
C1942 C1947 1.390 . S
C1943 C1937 1.465 . S
C1943 C1942 1.396 1_454 S
C1943 C1944 1.399 . S
C1944 H1930 0.929 . S
C1944 C1943 1.399 . S
C1944 C1945 1.385 1_455 S
C1945 H1931 0.928 1_655 S
C1945 C1944 1.385 1_655 S
C1945 C1946 1.389 . S
C1946 C1945 1.389 . S
C1946 C1947 1.387 1_554 S
C1947 H1932 0.930 . S
C1947 C1942 1.390 . S
C1947 C1946 1.387 1_556 S
H1948 C1960 0.930 . S
H1949 C1962 0.930 . S
H1950 C1963 0.930 . S
H1951 C1967 0.959 . S
H1952 C1967 0.959 . S
H1953 C1967 0.961 . S
H1954 C1968 0.960 . S
H1955 C1968 0.961 . S
H1956 C1968 0.959 . S
H1957 C1971 0.929 . S
H1958 C1972 0.931 . S
H1959 C1974 0.930 . S
C1960 H1948 0.930 . S
C1960 C1961 1.399 . S
C1960 C1965 1.399 . S
C1961 C1960 1.399 . S
C1961 C1962 1.376 . S
C1962 H1949 0.930 . S
C1962 C1961 1.376 . S
C1962 C1963 1.388 . S
C1963 H1950 0.930 . S
C1963 C1962 1.388 . S
C1963 C1964 1.390 . S
C1964 C1963 1.390 . S
C1964 C1965 1.394 . S
C1964 C1970 1.465 . S
C1965 C1960 1.399 . S
C1965 C1964 1.394 . S
C1965 C1966 1.516 . S
C1966 C1965 1.516 . S
C1966 C1967 1.502 . S
C1966 C1968 1.561 . S
C1966 C1969 1.526 . S
C1967 H1951 0.959 . S
C1967 H1952 0.959 . S
C1967 H1953 0.961 . S
C1967 C1966 1.502 . S
C1968 H1954 0.960 . S
C1968 H1955 0.961 . S
C1968 H1956 0.959 . S
C1968 C1966 1.561 . S
C1969 C1966 1.526 . S
C1969 C1970 1.396 . S
C1969 C1974 1.390 . S
C1970 C1964 1.465 . S
C1970 C1969 1.396 . S
C1970 C1971 1.399 . S
C1971 H1957 0.929 . S
C1971 C1970 1.399 . S
C1971 C1972 1.385 . S
C1972 H1958 0.931 . S
C1972 C1971 1.385 . S
C1972 C1973 1.389 . S
C1973 C1972 1.389 . S
C1973 C1974 1.387 . S
C1974 H1959 0.930 . S
C1974 C1969 1.390 . S
C1974 C1973 1.387 . S
H1975 C1987 0.930 . S
H1976 C1989 0.930 . S
H1977 C1990 0.930 . S
H1978 C1994 0.959 1_565 S
H1979 C1994 0.959 1_565 S
H1980 C1994 0.961 . S
H1981 C1995 0.960 . S
H1982 C1995 0.961 1_565 S
H1983 C1995 0.959 . S
H1984 C1998 0.929 . S
H1985 C1999 0.931 . S
H1986 C2001 0.930 . S
C1987 H1975 0.930 . S
C1987 C1988 1.399 . S
C1987 C1992 1.399 . S
C1988 C1987 1.399 . S
C1988 C1989 1.376 . S
C1989 H1976 0.930 . S
C1989 C1988 1.376 . S
C1989 C1990 1.388 . S
C1990 H1977 0.930 . S
C1990 C1989 1.388 . S
C1990 C1991 1.390 . S
C1991 C1990 1.390 . S
C1991 C1992 1.394 . S
C1991 C1997 1.465 1_545 S
C1992 C1987 1.399 . S
C1992 C1991 1.394 . S
C1992 C1993 1.516 . S
C1993 C1992 1.516 . S
C1993 C1994 1.502 . S
C1993 C1995 1.561 . S
C1993 C1996 1.526 1_545 S
C1994 H1978 0.959 1_545 S
C1994 H1979 0.959 1_545 S
C1994 H1980 0.961 . S
C1994 C1993 1.502 . S
C1995 H1981 0.960 . S
C1995 H1982 0.961 1_545 S
C1995 H1983 0.959 . S
C1995 C1993 1.561 . S
C1996 C1993 1.526 1_565 S
C1996 C1997 1.396 . S
C1996 C2001 1.390 . S
C1997 C1991 1.465 1_565 S
C1997 C1996 1.396 . S
C1997 C1998 1.399 . S
C1998 H1984 0.929 . S
C1998 C1997 1.399 . S
C1998 C1999 1.385 . S
C1999 H1985 0.931 . S
C1999 C1998 1.385 . S
C1999 C2000 1.389 . S
C2000 C1999 1.389 . S
C2000 C2001 1.387 . S
C2001 H1986 0.930 . S
C2001 C1996 1.390 . S
C2001 C2000 1.387 . S
H2002 C2014 0.930 1_554 S
H2003 C2016 0.930 . S
H2004 C2017 0.930 . S
H2005 C2021 0.959 . S
H2006 C2021 0.959 . S
H2007 C2021 0.961 . S
H2008 C2022 0.960 . S
H2009 C2022 0.961 . S
H2010 C2022 0.959 . S
H2011 C2025 0.929 . S
H2012 C2026 0.930 1_556 S
H2013 C2028 0.930 . S
C2014 H2002 0.930 1_556 S
C2014 C2015 1.399 . S
C2014 C2019 1.399 . S
C2015 C2014 1.399 . S
C2015 C2016 1.376 . S
C2016 H2003 0.930 . S
C2016 C2015 1.376 . S
C2016 C2017 1.388 . S
C2017 H2004 0.930 . S
C2017 C2016 1.388 . S
C2017 C2018 1.390 . S
C2018 C2017 1.390 . S
C2018 C2019 1.394 . S
C2018 C2024 1.465 . S
C2019 C2014 1.399 . S
C2019 C2018 1.394 . S
C2019 C2020 1.516 1_556 S
C2020 C2019 1.516 1_554 S
C2020 C2021 1.502 . S
C2020 C2022 1.561 1_554 S
C2020 C2023 1.526 . S
C2021 H2005 0.959 . S
C2021 H2006 0.959 . S
C2021 H2007 0.961 . S
C2021 C2020 1.502 . S
C2022 H2008 0.960 . S
C2022 H2009 0.961 . S
C2022 H2010 0.959 . S
C2022 C2020 1.561 1_556 S
C2023 C2020 1.526 . S
C2023 C2024 1.396 1_554 S
C2023 C2028 1.390 . S
C2024 C2018 1.465 . S
C2024 C2023 1.396 1_556 S
C2024 C2025 1.399 . S
C2025 H2011 0.929 . S
C2025 C2024 1.399 . S
C2025 C2026 1.384 1_556 S
C2026 H2012 0.930 1_554 S
C2026 C2025 1.384 1_554 S
C2026 C2027 1.390 . S
C2027 C2026 1.390 . S
C2027 C2028 1.387 . S
C2028 H2013 0.930 . S
C2028 C2023 1.390 . S
C2028 C2027 1.387 . S
H2029 C2041 0.930 . S
H2030 C2043 0.930 . S
H2031 C2044 0.930 . S
H2032 C2048 0.959 . S
H2033 C2048 0.959 . S
H2034 C2048 0.961 1_545 S
H2035 C2049 0.960 1_545 S
H2036 C2049 0.961 . S
H2037 C2049 0.959 . S
H2038 C2052 0.929 . S
H2039 C2053 0.931 . S
H2040 C2055 0.930 . S
C2041 H2029 0.930 . S
C2041 C2042 1.399 . S
C2041 C2046 1.399 . S
C2042 C2041 1.399 . S
C2042 C2043 1.376 . S
C2043 H2030 0.930 . S
C2043 C2042 1.376 . S
C2043 C2044 1.388 . S
C2044 H2031 0.930 . S
C2044 C2043 1.388 . S
C2044 C2045 1.390 . S
C2045 C2044 1.390 . S
C2045 C2046 1.394 . S
C2045 C2051 1.465 1_545 S
C2046 C2041 1.399 . S
C2046 C2045 1.394 . S
C2046 C2047 1.516 1_545 S
C2047 C2046 1.516 1_565 S
C2047 C2048 1.502 . S
C2047 C2049 1.561 . S
C2047 C2050 1.526 . S
C2048 H2032 0.959 . S
C2048 H2033 0.959 . S
C2048 H2034 0.961 1_565 S
C2048 C2047 1.502 . S
C2049 H2035 0.960 1_565 S
C2049 H2036 0.961 . S
C2049 H2037 0.959 . S
C2049 C2047 1.561 . S
C2050 C2047 1.526 . S
C2050 C2051 1.396 . S
C2050 C2055 1.390 . S
C2051 C2045 1.465 1_565 S
C2051 C2050 1.396 . S
C2051 C2052 1.399 . S
C2052 H2038 0.929 . S
C2052 C2051 1.399 . S
C2052 C2053 1.385 . S
C2053 H2039 0.931 . S
C2053 C2052 1.385 . S
C2053 C2054 1.389 . S
C2054 C2053 1.389 . S
C2054 C2055 1.387 . S
C2055 H2040 0.930 . S
C2055 C2050 1.390 . S
C2055 C2054 1.387 . S
H2056 C2068 0.930 . S
H2057 C2070 0.930 . S
H2058 C2071 0.930 . S
H2059 C2075 0.959 . S
H2060 C2075 0.959 . S
H2061 C2075 0.961 . S
H2062 C2076 0.960 . S
H2063 C2076 0.961 . S
H2064 C2076 0.959 . S
H2065 C2079 0.929 . S
H2066 C2080 0.931 . S
H2067 C2082 0.930 . S
C2068 H2056 0.930 . S
C2068 C2069 1.399 1_545 S
C2068 C2073 1.399 . S
C2069 C2068 1.399 1_565 S
C2069 C2070 1.376 . S
C2070 H2057 0.930 . S
C2070 C2069 1.376 . S
C2070 C2071 1.388 1_554 S
C2071 H2058 0.930 . S
C2071 C2070 1.388 1_556 S
C2071 C2072 1.390 . S
C2072 C2071 1.390 . S
C2072 C2073 1.394 1_566 S
C2072 C2078 1.465 . S
C2073 C2068 1.399 . S
C2073 C2072 1.394 1_544 S
C2073 C2074 1.515 1_554 S
C2074 C2073 1.515 1_556 S
C2074 C2075 1.492 1_556 S
C2074 C2076 1.571 . S
C2074 C2077 1.528 . S
C2075 H2059 0.959 . S
C2075 H2060 0.959 . S
C2075 H2061 0.961 . S
C2075 C2074 1.492 1_554 S
C2076 H2062 0.960 . S
C2076 H2063 0.961 . S
C2076 H2064 0.959 . S
C2076 C2074 1.571 . S
C2077 C2074 1.528 . S
C2077 C2078 1.396 1_545 S
C2077 C2082 1.390 . S
C2078 C2072 1.465 . S
C2078 C2077 1.396 1_565 S
C2078 C2079 1.399 . S
C2079 H2065 0.929 . S
C2079 C2078 1.399 . S
C2079 C2080 1.385 . S
C2080 H2066 0.931 . S
C2080 C2079 1.385 . S
C2080 C2081 1.389 . S
C2081 C2080 1.389 . S
C2081 C2082 1.387 1_565 S
C2082 H2067 0.930 . S
C2082 C2077 1.390 . S
C2082 C2081 1.387 1_545 S
H2083 C2095 0.930 . S
H2084 C2097 0.930 . S
H2085 C2098 0.930 . S
H2086 C2102 0.959 . S
H2087 C2102 0.959 . S
H2088 C2102 0.961 . S
H2089 C2103 0.960 . S
H2090 C2103 0.961 . S
H2091 C2103 0.959 . S
H2092 C2106 0.929 . S
H2093 C2107 0.931 . S
H2094 C2109 0.930 . S
C2095 H2083 0.930 . S
C2095 C2096 1.399 . S
C2095 C2100 1.399 . S
C2096 C2095 1.399 . S
C2096 C2097 1.376 . S
C2097 H2084 0.930 . S
C2097 C2096 1.376 . S
C2097 C2098 1.388 . S
C2098 H2085 0.930 . S
C2098 C2097 1.388 . S
C2098 C2099 1.390 . S
C2099 C2098 1.390 . S
C2099 C2100 1.394 . S
C2099 C2105 1.465 . S
C2100 C2095 1.399 . S
C2100 C2099 1.394 . S
C2100 C2101 1.516 . S
C2101 C2100 1.516 . S
C2101 C2102 1.502 . S
C2101 C2103 1.561 . S
C2101 C2104 1.526 . S
C2102 H2086 0.959 . S
C2102 H2087 0.959 . S
C2102 H2088 0.961 . S
C2102 C2101 1.502 . S
C2103 H2089 0.960 . S
C2103 H2090 0.961 . S
C2103 H2091 0.959 . S
C2103 C2101 1.561 . S
C2104 C2101 1.526 . S
C2104 C2105 1.396 . S
C2104 C2109 1.390 . S
C2105 C2099 1.465 . S
C2105 C2104 1.396 . S
C2105 C2106 1.399 . S
C2106 H2092 0.929 . S
C2106 C2105 1.399 . S
C2106 C2107 1.385 . S
C2107 H2093 0.931 . S
C2107 C2106 1.385 . S
C2107 C2108 1.389 . S
C2108 C2107 1.389 . S
C2108 C2109 1.387 . S
C2109 H2094 0.930 . S
C2109 C2104 1.390 . S
C2109 C2108 1.387 . S
H2110 C2122 0.930 . S
H2111 C2124 0.930 . S
H2112 C2125 0.930 . S
H2113 C2129 0.959 . S
H2114 C2129 0.959 . S
H2115 C2129 0.961 . S
H2116 C2130 0.960 . S
H2117 C2130 0.961 . S
H2118 C2130 0.959 . S
H2119 C2133 0.929 . S
H2120 C2134 0.931 . S
H2121 C2136 0.930 . S
C2122 H2110 0.930 . S
C2122 C2123 1.399 . S
C2122 C2127 1.399 . S
C2123 C2122 1.399 . S
C2123 C2124 1.376 . S
C2124 H2111 0.930 . S
C2124 C2123 1.376 . S
C2124 C2125 1.388 . S
C2125 H2112 0.930 . S
C2125 C2124 1.388 . S
C2125 C2126 1.390 . S
C2126 C2125 1.390 . S
C2126 C2127 1.394 . S
C2126 C2132 1.465 . S
C2127 C2122 1.399 . S
C2127 C2126 1.394 . S
C2127 C2128 1.516 . S
C2128 C2127 1.516 . S
C2128 C2129 1.502 . S
C2128 C2130 1.561 . S
C2128 C2131 1.526 . S
C2129 H2113 0.959 . S
C2129 H2114 0.959 . S
C2129 H2115 0.961 . S
C2129 C2128 1.502 . S
C2130 H2116 0.960 . S
C2130 H2117 0.961 . S
C2130 H2118 0.959 . S
C2130 C2128 1.561 . S
C2131 C2128 1.526 . S
C2131 C2132 1.396 . S
C2131 C2136 1.390 . S
C2132 C2126 1.465 . S
C2132 C2131 1.396 . S
C2132 C2133 1.399 . S
C2133 H2119 0.929 . S
C2133 C2132 1.399 . S
C2133 C2134 1.385 . S
C2134 H2120 0.931 . S
C2134 C2133 1.385 . S
C2134 C2135 1.389 . S
C2135 C2134 1.389 . S
C2135 C2136 1.387 . S
C2136 H2121 0.930 . S
C2136 C2131 1.390 . S
C2136 C2135 1.387 . S
H2137 C2149 0.930 . S
H2138 C2151 0.930 . S
H2139 C2152 0.930 . S
H2140 C2156 0.959 . S
H2141 C2156 0.959 1_554 S
H2142 C2156 0.961 . S
H2143 C2157 0.960 1_556 S
H2144 C2157 0.961 . S
H2145 C2157 0.959 . S
H2146 C2160 0.929 . S
H2147 C2161 0.931 . S
H2148 C2163 0.930 . S
C2149 H2137 0.930 . S
C2149 C2150 1.399 . S
C2149 C2154 1.399 . S
C2150 C2149 1.399 . S
C2150 C2151 1.376 . S
C2151 H2138 0.930 . S
C2151 C2150 1.376 . S
C2151 C2152 1.388 . S
C2152 H2139 0.930 . S
C2152 C2151 1.388 . S
C2152 C2153 1.390 . S
C2153 C2152 1.390 . S
C2153 C2154 1.394 . S
C2153 C2159 1.465 1_556 S
C2154 C2149 1.399 . S
C2154 C2153 1.394 . S
C2154 C2155 1.540 . S
C2155 C2154 1.540 . S
C2155 C2156 1.507 . S
C2155 C2157 1.558 1_556 S
C2155 C2158 1.500 1_556 S
C2156 H2140 0.959 . S
C2156 H2141 0.959 1_556 S
C2156 H2142 0.961 . S
C2156 C2155 1.507 . S
C2157 H2143 0.960 1_554 S
C2157 H2144 0.961 . S
C2157 H2145 0.959 . S
C2157 C2155 1.558 1_554 S
C2158 C2155 1.500 1_554 S
C2158 C2159 1.396 . S
C2158 C2163 1.390 . S
C2159 C2153 1.465 1_554 S
C2159 C2158 1.396 . S
C2159 C2160 1.399 . S
C2160 H2146 0.929 . S
C2160 C2159 1.399 . S
C2160 C2161 1.385 . S
C2161 H2147 0.931 . S
C2161 C2160 1.385 . S
C2161 C2162 1.389 . S
C2162 C2161 1.389 . S
C2162 C2163 1.387 . S
C2163 H2148 0.930 . S
C2163 C2158 1.390 . S
C2163 C2162 1.387 . S
H2164 C2176 0.930 . S
H2165 C2178 0.930 . S
H2166 C2179 0.930 . S
H2167 C2183 0.959 . S
H2168 C2183 0.959 . S
H2169 C2183 0.961 . S
H2170 C2184 0.960 . S
H2171 C2184 0.961 . S
H2172 C2184 0.959 . S
H2173 C2187 0.929 . S
H2174 C2188 0.931 . S
H2175 C2190 0.930 . S
C2176 H2164 0.930 . S
C2176 C2177 1.399 . S
C2176 C2181 1.399 . S
C2177 C2176 1.399 . S
C2177 C2178 1.376 . S
C2178 H2165 0.930 . S
C2178 C2177 1.376 . S
C2178 C2179 1.388 . S
C2179 H2166 0.930 . S
C2179 C2178 1.388 . S
C2179 C2180 1.390 . S
C2180 C2179 1.390 . S
C2180 C2181 1.394 . S
C2180 C2186 1.465 . S
C2181 C2176 1.399 . S
C2181 C2180 1.394 . S
C2181 C2182 1.516 . S
C2182 C2181 1.516 . S
C2182 C2183 1.502 . S
C2182 C2184 1.561 . S
C2182 C2185 1.526 . S
C2183 H2167 0.959 . S
C2183 H2168 0.959 . S
C2183 H2169 0.961 . S
C2183 C2182 1.502 . S
C2184 H2170 0.960 . S
C2184 H2171 0.961 . S
C2184 H2172 0.959 . S
C2184 C2182 1.561 . S
C2185 C2182 1.526 . S
C2185 C2186 1.396 . S
C2185 C2190 1.390 . S
C2186 C2180 1.465 . S
C2186 C2185 1.396 . S
C2186 C2187 1.399 . S
C2187 H2173 0.929 . S
C2187 C2186 1.399 . S
C2187 C2188 1.385 . S
C2188 H2174 0.931 . S
C2188 C2187 1.385 . S
C2188 C2189 1.389 . S
C2189 C2188 1.389 . S
C2189 C2190 1.387 . S
C2190 H2175 0.930 . S
C2190 C2185 1.390 . S
C2190 C2189 1.387 . S
H2191 C2203 0.930 . S
H2192 C2205 0.930 . S
H2193 C2206 0.930 . S
H2194 C2210 0.959 . S
H2195 C2210 0.959 . S
H2196 C2210 0.961 . S
H2197 C2211 0.960 . S
H2198 C2211 0.961 . S
H2199 C2211 0.959 . S
H2200 C2214 0.929 . S
H2201 C2215 0.931 . S
H2202 C2217 0.930 . S
C2203 H2191 0.930 . S
C2203 C2204 1.399 . S
C2203 C2208 1.399 . S
C2204 C2203 1.399 . S
C2204 C2205 1.376 . S
C2205 H2192 0.930 . S
C2205 C2204 1.376 . S
C2205 C2206 1.388 . S
C2206 H2193 0.930 . S
C2206 C2205 1.388 . S
C2206 C2207 1.390 . S
C2207 C2206 1.390 . S
C2207 C2208 1.394 . S
C2207 C2213 1.465 . S
C2208 C2203 1.399 . S
C2208 C2207 1.394 . S
C2208 C2209 1.516 . S
C2209 C2208 1.516 . S
C2209 C2210 1.502 . S
C2209 C2211 1.561 . S
C2209 C2212 1.526 . S
C2210 H2194 0.959 . S
C2210 H2195 0.959 . S
C2210 H2196 0.961 . S
C2210 C2209 1.502 . S
C2211 H2197 0.960 . S
C2211 H2198 0.961 . S
C2211 H2199 0.959 . S
C2211 C2209 1.561 . S
C2212 C2209 1.526 . S
C2212 C2213 1.396 . S
C2212 C2217 1.390 . S
C2213 C2207 1.465 . S
C2213 C2212 1.396 . S
C2213 C2214 1.399 . S
C2214 H2200 0.929 . S
C2214 C2213 1.399 . S
C2214 C2215 1.385 . S
C2215 H2201 0.931 . S
C2215 C2214 1.385 . S
C2215 C2216 1.389 . S
C2216 C2215 1.389 . S
C2216 C2217 1.387 . S
C2217 H2202 0.930 . S
C2217 C2212 1.390 . S
C2217 C2216 1.387 . S
H2218 C2230 0.930 . S
H2219 C2232 0.930 . S
H2220 C2233 0.930 . S
H2221 C2237 0.959 . S
H2222 C2237 0.959 . S
H2223 C2237 0.961 . S
H2224 C2238 0.960 . S
H2225 C2238 0.961 . S
H2226 C2238 0.959 . S
H2227 C2241 0.929 . S
H2228 C2242 0.931 . S
H2229 C2244 0.930 . S
C2230 H2218 0.930 . S
C2230 C2231 1.399 1_655 S
C2230 C2235 1.399 . S
C2231 C2230 1.399 1_455 S
C2231 C2232 1.376 . S
C2232 H2219 0.930 . S
C2232 C2231 1.376 . S
C2232 C2233 1.388 . S
C2233 H2220 0.930 . S
C2233 C2232 1.388 . S
C2233 C2234 1.390 . S
C2234 C2233 1.390 . S
C2234 C2235 1.394 1_455 S
C2234 C2240 1.465 . S
C2235 C2230 1.399 . S
C2235 C2234 1.394 1_655 S
C2235 C2236 1.516 . S
C2236 C2235 1.516 . S
C2236 C2237 1.502 . S
C2236 C2238 1.561 1_655 S
C2236 C2239 1.526 . S
C2237 H2221 0.959 . S
C2237 H2222 0.959 . S
C2237 H2223 0.961 . S
C2237 C2236 1.502 . S
C2238 H2224 0.960 . S
C2238 H2225 0.961 . S
C2238 H2226 0.959 . S
C2238 C2236 1.561 1_455 S
C2239 C2236 1.526 . S
C2239 C2240 1.396 1_655 S
C2239 C2244 1.390 . S
C2240 C2234 1.465 . S
C2240 C2239 1.396 1_455 S
C2240 C2241 1.399 . S
C2241 H2227 0.929 . S
C2241 C2240 1.399 . S
C2241 C2242 1.385 . S
C2242 H2228 0.931 . S
C2242 C2241 1.385 . S
C2242 C2243 1.389 . S
C2243 C2242 1.389 . S
C2243 C2244 1.387 1_455 S
C2244 H2229 0.930 . S
C2244 C2239 1.390 . S
C2244 C2243 1.387 1_655 S
H2245 C2257 0.930 . S
H2246 C2259 0.930 . S
H2247 C2260 0.930 . S
H2248 C2264 0.959 . S
H2249 C2264 0.959 . S
H2250 C2264 0.961 . S
H2251 C2265 0.960 . S
H2252 C2265 0.961 . S
H2253 C2265 0.959 . S
H2254 C2268 0.929 . S
H2255 C2269 0.931 . S
H2256 C2271 0.930 . S
C2257 H2245 0.930 . S
C2257 C2258 1.399 1_565 S
C2257 C2262 1.399 . S
C2258 C2257 1.399 1_545 S
C2258 C2259 1.376 . S
C2259 H2246 0.930 . S
C2259 C2258 1.376 . S
C2259 C2260 1.388 . S
C2260 H2247 0.930 . S
C2260 C2259 1.388 . S
C2260 C2261 1.390 . S
C2261 C2260 1.390 . S
C2261 C2262 1.394 1_545 S
C2261 C2267 1.465 . S
C2262 C2257 1.399 . S
C2262 C2261 1.394 1_565 S
C2262 C2263 1.516 . S
C2263 C2262 1.516 . S
C2263 C2264 1.502 . S
C2263 C2265 1.561 . S
C2263 C2266 1.526 . S
C2264 H2248 0.959 . S
C2264 H2249 0.959 . S
C2264 H2250 0.961 . S
C2264 C2263 1.502 . S
C2265 H2251 0.960 . S
C2265 H2252 0.961 . S
C2265 H2253 0.959 . S
C2265 C2263 1.561 . S
C2266 C2263 1.526 . S
C2266 C2267 1.396 1_565 S
C2266 C2271 1.390 . S
C2267 C2261 1.465 . S
C2267 C2266 1.396 1_545 S
C2267 C2268 1.399 . S
C2268 H2254 0.929 . S
C2268 C2267 1.399 . S
C2268 C2269 1.385 . S
C2269 H2255 0.931 . S
C2269 C2268 1.385 . S
C2269 C2270 1.389 . S
C2270 C2269 1.389 . S
C2270 C2271 1.387 1_545 S
C2271 H2256 0.930 . S
C2271 C2266 1.390 . S
C2271 C2270 1.387 1_565 S
C1421 C57 1.911 . S
C1433 C645 1.908 . S
C1448 C145 1.911 . S
C1460 C372 1.915 . S
C1475 C489 1.906 . S
C1487 C205 1.908 . S
C1502 C321 1.909 . S
C1514 C548 1.910 . S
C1529 C724 1.913 . S
C1541 C1113 1.914 . S
C1556 C849 1.906 . S
C1568 C1252 1.907 . S
C1583 C1025 1.909 . S
C1595 C900 1.911 . S
C1610 C1340 1.908 . S
C1622 C1201 1.911 . S
C1637 C29 1.102 . S
C1649 C585 1.133 . S
C1664 C636 1.155 . S
C1676 C137 1.110 . S
C1691 C233 1.099 . S
C1703 C409 1.130 . S
C1718 C497 1.201 . S
C1730 C284 1.125 . S
C1745 C49 1.105 . S
C1757 C1261 1.148 . S
C1772 C997 1.162 . S
C1784 C108 1.120 . S
C1799 C1193 1.103 . S
C1811 C196 1.185 . S
C1826 C1076 1.157 1_556 S
C1838 C293 1.117 1_556 S
C1853 C929 1.128 . S
C1865 C401 1.172 . S
C1880 C469 1.175 . S
C1892 C1377 1.139 . S
C1907 C577 1.200 . S
C1919 C753 1.152 . S
C1934 C665 1.178 1_554 S
C1946 C812 1.134 1_554 S
C1961 C20 1.139 . S
C1973 C381 1.191 . S
C1988 C733 1.146 . S
C2000 C1164 1.118 . S
C2015 C1085 1.186 . S
C2027 C821 1.144 . S
C2042 C1289 1.122 . S
C2054 C909 1.185 . S
C2069 C673 1.116 . S
C2081 C313 1.140 . S
C2096 C225 1.127 . S
C2108 C557 1.184 . S
C2123 C1017 1.102 . S
C2135 C1369 1.149 . S
C2150 C1173 1.173 . S
C2162 C937 1.125 . S
C2177 C1349 1.127 . S
C2189 C1105 1.189 . S
C2204 C1281 1.168 . S
C2216 C761 1.126 . S
C2231 C988 1.181 . S
C2243 C841 1.116 . S
C2258 C117 1.117 . S
C2270 C460 1.155 . S
