# Generated by pormake.
# Topology fnc, (5)-cn, num edge types: 1
# Building blocks:
#     Node 0, Type 0, BuildingBlock: XOMCOT_clean_sbu_0, # of connection points: 5
#     Node 1, Type 0, BuildingBlock: XOMCOT_clean_sbu_0, # of connection points: 5
#     Node 2, Type 0, BuildingBlock: XOMCOT_clean_sbu_0, # of connection points: 5
#     Node 3, Type 0, BuildingBlock: XOMCOT_clean_sbu_0, # of connection points: 5
#     Node 4, Type 0, BuildingBlock: XOMCOT_clean_sbu_0, # of connection points: 5
#     Node 5, Type 0, BuildingBlock: XOMCOT_clean_sbu_0, # of connection points: 5
#     Node 6, Type 0, BuildingBlock: XOMCOT_clean_sbu_0, # of connection points: 5
#     Node 7, Type 0, BuildingBlock: XOMCOT_clean_sbu_0, # of connection points: 5
#     Node 8, Type 0, BuildingBlock: XOMCOT_clean_sbu_0, # of connection points: 5
#     Node 9, Type 0, BuildingBlock: XOMCOT_clean_sbu_0, # of connection points: 5
#     Node 10, Type 0, BuildingBlock: XOMCOT_clean_sbu_0, # of connection points: 5
#     Node 11, Type 0, BuildingBlock: XOMCOT_clean_sbu_0, # of connection points: 5
#     Node 12, Type 0, BuildingBlock: XOMCOT_clean_sbu_0, # of connection points: 5
#     Node 13, Type 0, BuildingBlock: XOMCOT_clean_sbu_0, # of connection points: 5
#     Node 14, Type 0, BuildingBlock: XOMCOT_clean_sbu_0, # of connection points: 5
#     Node 15, Type 0, BuildingBlock: XOMCOT_clean_sbu_0, # of connection points: 5
#     Node 16, Type 0, BuildingBlock: XOMCOT_clean_sbu_0, # of connection points: 5
#     Node 17, Type 0, BuildingBlock: XOMCOT_clean_sbu_0, # of connection points: 5
#     Edge 18, Type (0, 0), BuildingBlock: ZUJKAS_clean_linker_0, # of connection points: 2
#     Edge 19, Type (0, 0), BuildingBlock: ZUJKAS_clean_linker_0, # of connection points: 2
#     Edge 20, Type (0, 0), BuildingBlock: ZUJKAS_clean_linker_0, # of connection points: 2
#     Edge 21, Type (0, 0), BuildingBlock: ZUJKAS_clean_linker_0, # of connection points: 2
#     Edge 22, Type (0, 0), BuildingBlock: ZUJKAS_clean_linker_0, # of connection points: 2
#     Edge 23, Type (0, 0), BuildingBlock: ZUJKAS_clean_linker_0, # of connection points: 2
#     Edge 24, Type (0, 0), BuildingBlock: ZUJKAS_clean_linker_0, # of connection points: 2
#     Edge 25, Type (0, 0), BuildingBlock: ZUJKAS_clean_linker_0, # of connection points: 2
#     Edge 26, Type (0, 0), BuildingBlock: ZUJKAS_clean_linker_0, # of connection points: 2
#     Edge 27, Type (0, 0), BuildingBlock: ZUJKAS_clean_linker_0, # of connection points: 2
#     Edge 28, Type (0, 0), BuildingBlock: ZUJKAS_clean_linker_0, # of connection points: 2
#     Edge 29, Type (0, 0), BuildingBlock: ZUJKAS_clean_linker_0, # of connection points: 2
#     Edge 30, Type (0, 0), BuildingBlock: ZUJKAS_clean_linker_0, # of connection points: 2
#     Edge 31, Type (0, 0), BuildingBlock: ZUJKAS_clean_linker_0, # of connection points: 2
#     Edge 32, Type (0, 0), BuildingBlock: ZUJKAS_clean_linker_0, # of connection points: 2
#     Edge 33, Type (0, 0), BuildingBlock: ZUJKAS_clean_linker_0, # of connection points: 2
#     Edge 34, Type (0, 0), BuildingBlock: ZUJKAS_clean_linker_0, # of connection points: 2
#     Edge 35, Type (0, 0), BuildingBlock: ZUJKAS_clean_linker_0, # of connection points: 2
#     Edge 36, Type (0, 0), BuildingBlock: ZUJKAS_clean_linker_0, # of connection points: 2
#     Edge 37, Type (0, 0), BuildingBlock: ZUJKAS_clean_linker_0, # of connection points: 2
#     Edge 38, Type (0, 0), BuildingBlock: ZUJKAS_clean_linker_0, # of connection points: 2
#     Edge 39, Type (0, 0), BuildingBlock: ZUJKAS_clean_linker_0, # of connection points: 2
#     Edge 40, Type (0, 0), BuildingBlock: ZUJKAS_clean_linker_0, # of connection points: 2
#     Edge 41, Type (0, 0), BuildingBlock: ZUJKAS_clean_linker_0, # of connection points: 2
#     Edge 42, Type (0, 0), BuildingBlock: ZUJKAS_clean_linker_0, # of connection points: 2
#     Edge 43, Type (0, 0), BuildingBlock: ZUJKAS_clean_linker_0, # of connection points: 2
#     Edge 44, Type (0, 0), BuildingBlock: ZUJKAS_clean_linker_0, # of connection points: 2
#     Edge 45, Type (0, 0), BuildingBlock: ZUJKAS_clean_linker_0, # of connection points: 2
#     Edge 46, Type (0, 0), BuildingBlock: ZUJKAS_clean_linker_0, # of connection points: 2
#     Edge 47, Type (0, 0), BuildingBlock: ZUJKAS_clean_linker_0, # of connection points: 2
#     Edge 48, Type (0, 0), BuildingBlock: ZUJKAS_clean_linker_0, # of connection points: 2
#     Edge 49, Type (0, 0), BuildingBlock: ZUJKAS_clean_linker_0, # of connection points: 2
#     Edge 50, Type (0, 0), BuildingBlock: ZUJKAS_clean_linker_0, # of connection points: 2
#     Edge 51, Type (0, 0), BuildingBlock: ZUJKAS_clean_linker_0, # of connection points: 2
#     Edge 52, Type (0, 0), BuildingBlock: ZUJKAS_clean_linker_0, # of connection points: 2
#     Edge 53, Type (0, 0), BuildingBlock: ZUJKAS_clean_linker_0, # of connection points: 2
#     Edge 54, Type (0, 0), BuildingBlock: ZUJKAS_clean_linker_0, # of connection points: 2
#     Edge 55, Type (0, 0), BuildingBlock: ZUJKAS_clean_linker_0, # of connection points: 2
#     Edge 56, Type (0, 0), BuildingBlock: ZUJKAS_clean_linker_0, # of connection points: 2
#     Edge 57, Type (0, 0), BuildingBlock: ZUJKAS_clean_linker_0, # of connection points: 2
#     Edge 58, Type (0, 0), BuildingBlock: ZUJKAS_clean_linker_0, # of connection points: 2
#     Edge 59, Type (0, 0), BuildingBlock: ZUJKAS_clean_linker_0, # of connection points: 2
#     Edge 60, Type (0, 0), BuildingBlock: ZUJKAS_clean_linker_0, # of connection points: 2
#     Edge 61, Type (0, 0), BuildingBlock: ZUJKAS_clean_linker_0, # of connection points: 2
#     Edge 62, Type (0, 0), BuildingBlock: ZUJKAS_clean_linker_0, # of connection points: 2
# Relax obj value: 0.200
# Max RMSD: 0.309
# Mean RMSD: 0.296
data_MOF--net-fnc--node1-XOMCOT_clean_sbu_0--edge1-ZUJKAS_clean_linker_0
_symmetry_space_group_name_H-M    P1
_symmetry_Int_Tables_number       1
_symmetry_cell_setting            triclinic
loop_
_symmetry_equiv_pos_as_xyz
'x, y, z'
_cell_length_a     116.11069
_cell_length_b     128.95928
_cell_length_c     22.078284
_cell_angle_alpha  90.715786
_cell_angle_beta   91.023222
_cell_angle_gamma 121.85101
loop_
_atom_site_label
_atom_site_type_symbol
_atom_site_fract_x
_atom_site_fract_y
_atom_site_fract_z
_atom_type_partial_charge
Co0 Co 0.07243 0.4635 0.13539 0.0
C1 C 0.07593 0.46566 1.00274 0.0
C2 C 0.08866 0.46022 0.04506 0.0
C3 C 0.09039 0.46054 0.98349 0.0
N4 N 0.07967 0.46351 0.05709 0.0
N5 N 0.08234 0.4639 0.95695 0.0
H6 H 0.06854 0.46828 0.99681 0.0
H7 H 0.09332 0.45738 0.07836 0.0
C8 C 0.09861 0.47416 0.21063 0.0
O9 O 0.09742 0.48307 0.23233 0.0
N10 N 0.06488 0.46301 0.21461 0.0
C11 C 0.05312 0.4624 0.22543 0.0
C12 C 0.05099 0.46155 0.28664 0.0
C13 C 0.06932 0.46188 0.26981 0.0
N14 N 0.06122 0.46128 0.31466 0.0
C15 C 0.07158 0.48529 0.13646 0.0
C16 C 0.09834 0.50116 0.10756 0.0
C17 C 0.09005 0.50583 0.11852 0.0
C18 C 0.07646 0.49769 0.13212 0.0
C19 C 0.09303 0.48864 0.11259 0.0
N20 N 0.07995 0.48095 0.12968 0.0
H21 H 0.06096 0.47918 0.14365 0.0
H22 H 0.09948 0.48515 0.10318 0.0
H23 H 0.04627 0.46229 0.19134 0.0
H24 H 0.07792 0.46094 0.27729 0.0
O25 O 0.05496 0.45764 0.09665 0.0
O26 O 0.06221 0.44592 0.13156 0.0
O27 O 0.08953 0.46598 0.17465 0.0
C28 C 0.05275 0.44673 0.10353 0.0
H29 H 0.09665 0.45798 0.95986 0.0
H30 H 0.04255 0.46122 0.30862 0.0
H31 H 0.10884 0.50711 0.09579 0.0
H32 H 0.06952 0.50082 0.13801 0.0
Co33 Co 0.66482 0.66892 0.04266 0.0
C34 C 0.66758 0.67095 0.17636 0.0
C35 C 0.68671 0.67733 0.13484 0.0
C36 C 0.68871 0.67814 0.19677 0.0
N37 N 0.67345 0.67269 0.12217 0.0
N38 N 0.6767 0.67417 0.22261 0.0
H39 H 0.65684 0.66717 0.18183 0.0
H40 H 0.69441 0.67992 0.10149 0.0
C41 C 0.67851 0.65778 0.97546 0.0
O42 O 0.66704 0.64939 0.94875 0.0
N43 N 0.65636 0.66533 0.96201 0.0
C44 C 0.64307 0.65853 0.94562 0.0
C45 C 0.64179 0.65807 0.8835 0.0
C46 C 0.66291 0.66931 0.90932 0.0
N47 N 0.65425 0.66482 0.86088 0.0
C48 C 0.63951 0.64865 0.08005 0.0
C49 C 0.64763 0.63212 0.09158 0.0
C50 C 0.63386 0.62803 0.09654 0.0
C51 C 0.62995 0.63658 0.09309 0.0
C52 C 0.65688 0.64434 0.07839 0.0
N53 N 0.65255 0.65219 0.06776 0.0
H54 H 0.63626 0.65508 0.07797 0.0
H55 H 0.66748 0.64739 0.07688 0.0
H56 H 0.6347 0.6542 0.97561 0.0
H57 H 0.67383 0.67503 0.9064 0.0
O58 O 0.65455 0.67607 0.06727 0.0
O59 O 0.67469 0.68605 0.02524 0.0
O60 O 0.67879 0.66547 0.01339 0.0
C61 C 0.6647 0.68635 0.049 0.0
H62 H 0.69827 0.68149 0.22104 0.0
H63 H 0.63241 0.65319 0.85687 0.0
H64 H 0.65119 0.62591 0.0962 0.0
H65 H 0.61953 0.63394 0.09975 0.0
Co66 Co 0.49174 0.07711 0.18938 0.0
C67 C 0.4895 0.07425 0.05371 0.0
C68 C 0.47053 0.06294 0.09624 0.0
C69 C 0.4683 0.06156 0.03448 0.0
N70 N 0.4839 0.07065 0.10862 0.0
N71 N 0.48024 0.06871 0.00777 0.0
H72 H 0.49996 0.0811 0.04683 0.0
H73 H 0.4628 0.05892 0.12994 0.0
C74 C 0.47634 0.05004 0.1999 0.0
O75 O 0.48244 0.0495 0.15147 0.0
N76 N 0.49916 0.08361 0.26946 0.0
C77 C 0.51188 0.09282 0.28332 0.0
C78 C 0.51332 0.09449 0.34532 0.0
C79 C 0.49298 0.0798 0.32285 0.0
N80 N 0.50143 0.08629 0.37022 0.0
C81 C 0.51636 0.08121 0.13793 0.0
C82 C 0.51887 0.06507 0.20961 0.0
C83 C 0.52843 0.07124 0.16492 0.0
C84 C 0.52719 0.07957 0.12949 0.0
C85 C 0.50815 0.06691 0.21606 0.0
N86 N 0.50652 0.07435 0.17799 0.0
H87 H 0.51617 0.08828 0.11341 0.0
H88 H 0.50133 0.06253 0.25274 0.0
H89 H 0.51963 0.09784 0.25063 0.0
H90 H 0.48252 0.07247 0.32677 0.0
O91 O 0.50001 0.0935 0.15939 0.0
O92 O 0.47942 0.08268 0.19694 0.0
O93 O 0.47958 0.06039 0.2232 0.0
C94 C 0.48864 0.09267 0.1721 0.0
H95 H 0.45854 0.05616 0.01115 0.0
H96 H 0.52253 0.10104 0.37008 0.0
H97 H 0.5198 0.05905 0.24032 0.0
H98 H 0.5345 0.08481 0.09546 0.0
Co99 Co 0.12218 0.66558 0.0313 0.0
C100 C 0.11896 0.66349 0.16407 0.0
C101 C 0.10285 0.66434 0.11991 0.0
C102 C 0.10103 0.66388 0.18149 0.0
N103 N 0.11404 0.66402 0.10907 0.0
N104 N 0.11119 0.66341 0.20918 0.0
H105 H 0.12811 0.66333 0.17089 0.0
H106 H 0.09666 0.66522 0.08573 0.0
C107 C 0.0968 0.64952 0.9539 0.0
O108 O 0.10169 0.64299 0.93408 0.0
N109 N 0.13051 0.66761 0.95256 0.0
C110 C 0.14336 0.67074 0.94198 0.0
C111 C 0.14549 0.67198 0.88074 0.0
C112 C 0.12531 0.6677 0.89728 0.0
N113 N 0.13409 0.66999 0.85252 0.0
C114 C 0.1306 0.6483 0.03751 0.0
C115 C 0.10556 0.62832 0.06424 0.0
C116 C 0.1165 0.62674 0.05662 0.0
C117 C 0.1292 0.63696 0.04416 0.0
C118 C 0.10741 0.63985 0.05703 0.0
N119 N 0.11967 0.64954 0.04079 0.0
H120 H 0.14057 0.6561 0.0313 0.0
H121 H 0.09893 0.64095 0.06401 0.0
H122 H 0.15097 0.67246 0.97622 0.0
H123 H 0.11556 0.66669 0.88978 0.0
O124 O 0.13987 0.67541 0.07027 0.0
O125 O 0.12765 0.6825 0.03138 0.0
O126 O 0.10376 0.65856 0.99081 0.0
C127 C 0.13857 0.68469 0.06079 0.0
H128 H 0.09313 0.66435 0.20424 0.0
H129 H 0.15476 0.67419 0.85891 0.0
H130 H 0.0956 0.6207 0.0749 0.0
H131 H 0.13807 0.63627 0.04075 0.0
Co132 Co 0.49387 0.45974 0.13183 0.0
C133 C 0.49247 0.4615 0.99851 0.0
C134 C 0.47422 0.45803 0.03995 0.0
C135 C 0.47255 0.45801 0.97811 0.0
N136 N 0.48672 0.46025 0.05272 0.0
N137 N 0.48399 0.4601 0.95187 0.0
H138 H 0.50244 0.46289 0.99345 0.0
H139 H 0.46665 0.45617 0.07303 0.0
C140 C 0.48271 0.47273 0.20426 0.0
O141 O 0.49473 0.48127 0.22569 0.0
N142 N 0.50078 0.45881 0.21186 0.0
C143 C 0.51113 0.45712 0.22366 0.0
C144 C 0.51258 0.45651 0.2852 0.0
C145 C 0.49567 0.45856 0.26692 0.0
N146 N 0.50289 0.45747 0.31246 0.0
C147 C 0.52148 0.47983 0.13097 0.0
C148 C 0.51586 0.49761 0.10438 0.0
C149 C 0.52937 0.50108 0.11598 0.0
C150 C 0.53213 0.49194 0.12781 0.0
C151 C 0.50552 0.48534 0.10767 0.0
N152 N 0.50833 0.47673 0.12443 0.0
H153 H 0.5239 0.47294 0.13773 0.0
H154 H 0.49518 0.4828 0.09799 0.0
H155 H 0.51709 0.45605 0.19004 0.0
H156 H 0.48674 0.45893 0.27405 0.0
O157 O 0.50244 0.45197 0.09471 0.0
O158 O 0.48163 0.44233 0.13051 0.0
O159 O 0.48129 0.46412 0.16949 0.0
C160 C 0.49104 0.44171 0.10269 0.0
H161 H 0.46349 0.45641 0.95451 0.0
H162 H 0.51999 0.45514 0.30797 0.0
H163 H 0.51323 0.50431 0.09408 0.0
H164 H 0.54245 0.4941 0.134 0.0
Co165 Co 0.66869 0.03763 0.05141 0.0
C166 C 0.67133 0.04027 0.18731 0.0
C167 C 0.69047 0.04851 0.14405 0.0
C168 C 0.69283 0.04975 0.2057 0.0
N169 N 0.677 0.04279 0.13225 0.0
N170 N 0.68079 0.04454 0.23286 0.0
H171 H 0.6606 0.03521 0.19459 0.0
H172 H 0.69807 0.05134 0.10993 0.0
C173 C 0.68743 0.06461 0.04769 0.0
O174 O 0.68213 0.0655 0.09813 0.0
N175 N 0.66073 0.03238 0.97105 0.0
C176 C 0.64752 0.02449 0.95718 0.0
C177 C 0.64586 0.02319 0.89516 0.0
C178 C 0.66697 0.03576 0.91761 0.0
N179 N 0.65809 0.03027 0.87021 0.0
C180 C 0.64514 0.03552 0.10436 0.0
C181 C 0.6458 0.05423 0.04171 0.0
C182 C 0.6354 0.04773 0.08261 0.0
C183 C 0.63507 0.03815 0.11361 0.0
C184 C 0.65556 0.0512 0.03343 0.0
N185 N 0.65562 0.04239 0.06701 0.0
H186 H 0.64418 0.02764 0.12566 0.0
H187 H 0.66284 0.05577 0.99858 0.0
H188 H 0.63963 0.02008 0.98994 0.0
H189 H 0.67778 0.042 0.91369 0.0
O190 O 0.65844 0.02087 0.07725 0.0
O191 O 0.67901 0.0301 0.03932 0.0
O192 O 0.68257 0.05422 0.02081 0.0
C193 C 0.66893 0.02036 0.06233 0.0
H194 H 0.70263 0.05376 0.22869 0.0
H195 H 0.63631 0.01764 0.87047 0.0
H196 H 0.64638 0.06155 0.01577 0.0
H197 H 0.62687 0.03246 0.14332 0.0
Co198 Co 0.74617 0.8038 0.46101 0.0
C199 C 0.74362 0.80083 0.59358 0.0
C200 C 0.73128 0.78369 0.54547 0.0
C201 C 0.72982 0.78167 0.60685 0.0
N202 N 0.73988 0.7957 0.53733 0.0
N203 N 0.7376 0.79246 0.63717 0.0
H204 H 0.75058 0.8105 0.60221 0.0
H205 H 0.72655 0.77685 0.50938 0.0
C206 C 0.72146 0.79389 0.38086 0.0
O207 O 0.72547 0.80518 0.36713 0.0
N208 N 0.75261 0.81167 0.38333 0.0
C209 C 0.76069 0.8236 0.37083 0.0
C210 C 0.76245 0.82474 0.30917 0.0
C211 C 0.75003 0.80575 0.32898 0.0
N212 N 0.75563 0.81351 0.28276 0.0
C213 C 0.74989 0.82654 0.50164 0.0
C214 C 0.72283 0.81816 0.5183 0.0
C215 C 0.73256 0.83047 0.53071 0.0
C216 C 0.74626 0.83459 0.52316 0.0
C217 C 0.72695 0.81037 0.49756 0.0
N218 N 0.74026 0.81476 0.48583 0.0
H219 H 0.76052 0.82976 0.49929 0.0
H220 H 0.7194 0.80076 0.49229 0.0
H221 H 0.76518 0.83109 0.40331 0.0
H222 H 0.74406 0.79591 0.32342 0.0
O223 O 0.76443 0.81278 0.49487 0.0
O224 O 0.75495 0.79487 0.44596 0.0
O225 O 0.7281 0.7918 0.42058 0.0
C226 C 0.76544 0.80376 0.4752 0.0
H227 H 0.72372 0.77288 0.62742 0.0
H228 H 0.76809 0.83325 0.2856 0.0
H229 H 0.71218 0.81454 0.52576 0.0
H230 H 0.75413 0.844 0.53335 0.0
Co231 Co 0.32433 0.99117 0.41206 0.0
C232 C 0.32708 0.99315 0.54577 0.0
C233 C 0.34649 0.00232 0.50404 0.0
C234 C 0.34856 0.00338 0.56599 0.0
N235 N 0.33305 0.99578 0.4915 0.0
N236 N 0.33636 -0.00235 0.59196 0.0
H237 H 0.31621 0.98791 0.55133 0.0
H238 H 0.35426 0.00614 0.47059 0.0
C239 C 0.34123 0.9839 0.34212 0.0
O240 O 0.33027 0.9747 0.31586 0.0
N241 N 0.31577 0.98683 0.3314 0.0
C242 C 0.30277 0.97849 0.31477 0.0
C243 C 0.30145 0.97803 0.25266 0.0
C244 C 0.32199 0.99169 0.27884 0.0
N245 N 0.31353 0.98629 0.23024 0.0
C246 C 0.30148 0.96843 0.44732 0.0
C247 C 0.31463 0.95591 0.46117 0.0
C248 C 0.30051 0.94958 0.46553 0.0
C249 C 0.294 0.95609 0.46067 0.0
C250 C 0.32172 0.96831 0.44721 0.0
N251 N 0.31496 0.97415 0.43565 0.0
H252 H 0.29628 0.9733 0.44517 0.0
H253 H 0.33263 0.97312 0.44613 0.0
H254 H 0.29461 0.97304 0.34453 0.0
H255 H 0.33265 -0.00134 0.27608 0.0
O256 O 0.31138 0.99518 0.43871 0.0
O257 O 0.33097 0.00811 0.39682 0.0
O258 O 0.34034 0.99085 0.38101 0.0
C259 C 0.31996 0.00621 0.42165 0.0
H260 H 0.35826 0.00815 0.59018 0.0
H261 H 0.29231 0.97206 0.22588 0.0
H262 H 0.3201 0.95129 0.46708 0.0
H263 H 0.28318 0.95166 0.46683 0.0
Co264 Co 0.14773 0.39427 0.46406 0.0
C265 C 0.14522 0.39454 0.59745 0.0
C266 C 0.13678 0.40378 0.55203 0.0
C267 C 0.13523 0.40436 0.6134 0.0
N268 N 0.14307 0.39767 0.54219 0.0
N269 N 0.14055 0.39856 0.64199 0.0
H270 H 0.14996 0.38933 0.60477 0.0
H271 H 0.13356 0.40756 0.51696 0.0
C272 C 0.16349 0.41918 0.40729 0.0
O273 O 0.17204 0.41673 0.38265 0.0
N274 N 0.15211 0.39082 0.38461 0.0
C275 C 0.15762 0.38417 0.37063 0.0
C276 C 0.15828 0.38354 0.30873 0.0
C277 C 0.14908 0.39378 0.33057 0.0
N278 N 0.15297 0.38962 0.28346 0.0
C279 C 0.16729 0.38921 0.51155 0.0
C280 C 0.18799 0.41306 0.5355 0.0
C281 C 0.19048 0.40365 0.54391 0.0
C282 C 0.1798 0.39158 0.5334 0.0
C283 C 0.17521 0.41024 0.51419 0.0
N284 N 0.16534 0.39849 0.49838 0.0
H285 H 0.15921 0.37982 0.50422 0.0
H286 H 0.17335 0.41756 0.51129 0.0
H287 H 0.16061 0.37968 0.40223 0.0
H288 H 0.14425 0.39897 0.32602 0.0
O289 O 0.13724 0.37693 0.47976 0.0
O290 O 0.12927 0.38734 0.43597 0.0
O291 O 0.15421 0.41151 0.44139 0.0
C292 C 0.12695 0.37697 0.45564 0.0
H293 H 0.13075 0.4089 0.63522 0.0
H294 H 0.16204 0.37865 0.28424 0.0
H295 H 0.19582 0.42248 0.54554 0.0
H296 H 0.18119 0.384 0.54015 0.0
Co297 Co 0.75543 0.97933 0.42674 0.0
C298 C 0.75376 0.98078 0.55972 0.0
C299 C 0.74349 0.98833 0.51362 0.0
C300 C 0.7425 0.98942 0.57525 0.0
N301 N 0.75051 0.98288 0.50408 0.0
N302 N 0.74896 0.98467 0.6043 0.0
H303 H 0.75971 0.97667 0.5672 0.0
H304 H 0.73943 0.99134 0.4783 0.0
C305 C 0.72957 0.96736 0.35207 0.0
O306 O 0.73171 0.9587 0.33558 0.0
N307 N 0.76052 0.97607 0.3482 0.0
C308 C 0.76787 0.97102 0.33565 0.0
C309 C 0.76926 0.97085 0.27392 0.0
C310 C 0.75805 0.97933 0.29368 0.0
N311 N 0.76299 0.976 0.24732 0.0
C312 C 0.75642 0.95886 0.46727 0.0
C313 C 0.72909 0.94376 0.48887 0.0
C314 C 0.73786 0.93968 0.50163 0.0
C315 C 0.75169 0.94741 0.49129 0.0
C316 C 0.73432 0.95543 0.46593 0.0
N317 N 0.74773 0.96258 0.45217 0.0
H318 H 0.76721 0.9649 0.46328 0.0
H319 H 0.72761 0.9588 0.46137 0.0
H320 H 0.77231 0.96793 0.3683 0.0
H321 H 0.75254 0.98391 0.28815 0.0
O322 O 0.77373 0.98627 0.45813 0.0
O323 O 0.76597 0.99655 0.4109 0.0
O324 O 0.73772 0.97581 0.38966 0.0
C325 C 0.77597 0.99666 0.43921 0.0
H326 H 0.73727 0.99331 0.59681 0.0
H327 H 0.77474 0.9674 0.25069 0.0
H328 H 0.7184 0.93816 0.49836 0.0
H329 H 0.75883 0.94465 0.50187 0.0
Co330 Co 0.14896 0.79312 0.4376 0.0
C331 C 0.14969 0.79083 0.57266 0.0
C332 C 0.14402 0.77423 0.52437 0.0
C333 C 0.14345 0.77211 0.58551 0.0
N334 N 0.14825 0.78605 0.51607 0.0
N335 N 0.147 0.78256 0.6159 0.0
H336 H 0.15229 0.8 0.58265 0.0
H337 H 0.14121 0.7675 0.48824 0.0
C338 C 0.1662 0.78223 0.42253 0.0
O339 O 0.17172 0.78631 0.47686 0.0
N340 N 0.14929 0.79977 0.35934 0.0
C341 C 0.1516 0.81093 0.34814 0.0
C342 C 0.15137 0.81217 0.2863 0.0
C343 C 0.14761 0.79433 0.30454 0.0
N344 N 0.14888 0.80173 0.25884 0.0
C345 C 0.1674 0.81605 0.49897 0.0
C346 C 0.19024 0.82097 0.43788 0.0
C347 C 0.19151 0.82914 0.48378 0.0
C348 C 0.17983 0.82666 0.51387 0.0
C349 C 0.17764 0.81048 0.42455 0.0
N350 N 0.16654 0.80773 0.4574 0.0
H351 H 0.15841 0.81471 0.51988 0.0
H352 H 0.17681 0.80483 0.38628 0.0
H353 H 0.1535 0.81775 0.38252 0.0
H354 H 0.14539 0.78511 0.29842 0.0
O355 O 0.13701 0.79827 0.46637 0.0
O356 O 0.13041 0.78037 0.42211 0.0
O357 O 0.15742 0.78442 0.4012 0.0
C358 C 0.1271 0.78758 0.44718 0.0
H359 H 0.14016 0.76342 0.60588 0.0
H360 H 0.15321 0.82026 0.26347 0.0
H361 H 0.19883 0.82286 0.41098 0.0
H362 H 0.18022 0.8329 0.54834 0.0
Co363 Co 0.34519 0.39462 0.47974 0.0
C364 C 0.34807 0.39641 0.61346 0.0
C365 C 0.36718 0.40767 0.57113 0.0
C366 C 0.36934 0.40884 0.63303 0.0
N367 N 0.35385 0.39995 0.55905 0.0
N368 N 0.35732 0.40176 0.65966 0.0
H369 H 0.33732 0.39009 0.61894 0.0
H370 H 0.37483 0.412 0.5373 0.0
C371 C 0.35675 0.41836 0.41255 0.0
O372 O 0.34486 0.41512 0.38831 0.0
N373 N 0.33675 0.38922 0.39921 0.0
C374 C 0.32372 0.3808 0.38389 0.0
C375 C 0.32241 0.37927 0.32187 0.0
C376 C 0.34323 0.39235 0.34601 0.0
N377 N 0.33467 0.38656 0.29794 0.0
C378 C 0.319 0.389 0.51612 0.0
C379 C 0.32559 0.41275 0.53569 0.0
C380 C 0.31214 0.40318 0.54249 0.0
C381 C 0.30897 0.39117 0.53375 0.0
C382 C 0.33534 0.41015 0.51828 0.0
N383 N 0.3318 0.39843 0.50492 0.0
H384 H 0.31645 0.37968 0.51215 0.0
H385 H 0.34575 0.41759 0.5169 0.0
H386 H 0.31566 0.37576 0.41483 0.0
H387 H 0.35406 0.39858 0.34274 0.0
O388 O 0.33647 0.37783 0.50503 0.0
O389 O 0.35647 0.38827 0.46182 0.0
O390 O 0.35793 0.41148 0.44991 0.0
C391 C 0.34723 0.37821 0.48592 0.0
H392 H 0.37907 0.41427 0.65648 0.0
H393 H 0.31307 0.37325 0.29647 0.0
H394 H 0.3286 0.42214 0.54464 0.0
H395 H 0.29878 0.38346 0.53963 0.0
Co396 Co 0.38338 0.11999 0.81449 0.0
C397 C 0.38598 0.11982 0.67954 0.0
C398 C 0.39582 0.11194 0.72525 0.0
C399 C 0.39634 0.11038 0.66384 0.0
N400 N 0.38973 0.11825 0.73557 0.0
N401 N 0.39011 0.11531 0.63501 0.0
H402 H 0.3796 0.12342 0.67116 0.0
H403 H 0.39895 0.10802 0.75996 0.0
C404 C 0.41191 0.12727 0.84173 0.0
O405 O 0.41534 0.13423 0.79414 0.0
N406 N 0.37674 0.12115 0.89244 0.0
C407 C 0.36948 0.12629 0.90408 0.0
C408 C 0.36744 0.12595 0.96548 0.0
C409 C 0.379 0.11771 0.94669 0.0
N410 N 0.37345 0.12058 0.99238 0.0
C411 C 0.39028 0.14305 0.76439 0.0
C412 C 0.40923 0.15749 0.85389 0.0
C413 C 0.40731 0.16311 0.80415 0.0
C414 C 0.39745 0.15572 0.75974 0.0
C415 C 0.40179 0.1448 0.85681 0.0
N416 N 0.39308 0.13771 0.81047 0.0
H417 H 0.38224 0.13761 0.73182 0.0
H418 H 0.40316 0.14067 0.89636 0.0
H419 H 0.36621 0.1303 0.87044 0.0
H420 H 0.38464 0.11327 0.95256 0.0
O421 O 0.36645 0.11595 0.7758 0.0
O422 O 0.3711 0.10258 0.81263 0.0
O423 O 0.39947 0.12083 0.85632 0.0
C424 C 0.3627 0.1046 0.78301 0.0
H425 H 0.40028 0.10534 0.64229 0.0
H426 H 0.3623 0.12975 0.98864 0.0
H427 H 0.41651 0.16282 0.89003 0.0
H428 H 0.39506 0.15969 0.72231 0.0
Co429 Co 0.98293 0.33131 0.67943 0.0
C430 C 0.98527 0.33075 0.81309 0.0
C431 C 0.00423 0.33672 0.77103 0.0
C432 C 0.00625 0.33738 0.83292 0.0
N433 N 0.99108 0.33252 0.75865 0.0
N434 N 0.99434 0.3337 0.85952 0.0
H435 H 0.97474 0.32783 0.81839 0.0
H436 H 0.01194 0.33947 0.73758 0.0
C437 C 0.99547 0.31989 0.60614 0.0
O438 O 0.98353 0.31129 0.58425 0.0
N439 N 0.97499 0.33057 0.59935 0.0
C440 C 0.96317 0.32988 0.58702 0.0
C441 C 0.96155 0.33028 0.52541 0.0
C442 C 0.98073 0.33211 0.54464 0.0
N443 N 0.97258 0.33161 0.49866 0.0
C444 C 0.95659 0.30951 0.68999 0.0
C445 C 0.96586 0.29434 0.71951 0.0
C446 C 0.95185 0.28938 0.71352 0.0
C447 C 0.94725 0.29718 0.6995 0.0
C448 C 0.97484 0.30673 0.70951 0.0
N449 N 0.97018 0.31403 0.69196 0.0
H450 H 0.95283 0.31543 0.68283 0.0
H451 H 0.98558 0.31045 0.71598 0.0
H452 H 0.95635 0.32969 0.62023 0.0
H453 H 0.99077 0.3338 0.53831 0.0
O454 O 0.97296 0.33793 0.71477 0.0
O455 O 0.99342 0.34879 0.67601 0.0
O456 O 0.99657 0.32816 0.64259 0.0
C457 C 0.98361 0.34861 0.70449 0.0
H458 H 0.01584 0.34048 0.8563 0.0
H459 H 0.95311 0.33003 0.50232 0.0
H460 H 0.96988 0.2887 0.73123 0.0
H461 H 0.93651 0.29384 0.69715 0.0
Co462 Co 0.82885 0.73653 0.7821 0.0
C463 C 0.82642 0.73408 0.64834 0.0
C464 C 0.80698 0.7242 0.68946 0.0
C465 C 0.80502 0.72317 0.62754 0.0
N466 N 0.82039 0.73098 0.70241 0.0
N467 N 0.81724 0.72944 0.60157 0.0
H468 H 0.83726 0.73998 0.64364 0.0
H469 H 0.79913 0.72051 0.72261 0.0
C470 C 0.81214 0.71253 0.84859 0.0
O471 O 0.82286 0.71279 0.87091 0.0
N472 N 0.8372 0.74233 0.86284 0.0
C473 C 0.84974 0.75202 0.87644 0.0
C474 C 0.85154 0.75357 0.93831 0.0
C475 C 0.83134 0.73857 0.9172 0.0
N476 N 0.83998 0.74508 0.96395 0.0
C477 C 0.85332 0.73654 0.76833 0.0
C478 C 0.84124 0.71194 0.74015 0.0
C479 C 0.85541 0.7192 0.7464 0.0
C480 C 0.86143 0.7317 0.75941 0.0
C481 C 0.83349 0.71721 0.74914 0.0
N482 N 0.83953 0.72922 0.76667 0.0
H483 H 0.8582 0.74622 0.77579 0.0
H484 H 0.82262 0.7116 0.74218 0.0
H485 H 0.85699 0.758 0.84408 0.0
H486 H 0.82091 0.73142 0.92284 0.0
O487 O 0.8408 0.75257 0.74991 0.0
O488 O 0.82075 0.74613 0.78971 0.0
O489 O 0.8134 0.7211 0.81553 0.0
C490 C 0.83133 0.75471 0.76297 0.0
H491 H 0.79529 0.71825 0.6037 0.0
H492 H 0.86051 0.76069 0.96246 0.0
H493 H 0.8362 0.70233 0.72794 0.0
H494 H 0.87235 0.73772 0.76364 0.0
Co495 Co 0.43426 0.31322 0.69697 0.0
C496 C 0.43147 0.31081 0.83059 0.0
C497 C 0.41336 0.29748 0.78163 0.0
C498 C 0.41116 0.29574 0.84283 0.0
N499 N 0.42605 0.30695 0.77404 0.0
N500 N 0.42256 0.30414 0.87365 0.0
H501 H 0.44178 0.3182 0.84019 0.0
H502 H 0.40618 0.2922 0.74519 0.0
C503 C 0.41097 0.31402 0.65785 0.0
O504 O 0.40717 0.30296 0.63857 0.0
N505 N 0.44225 0.31924 0.61925 0.0
C506 C 0.45531 0.32758 0.60821 0.0
C507 C 0.45677 0.32889 0.54651 0.0
C508 C 0.43599 0.31545 0.56421 0.0
N509 N 0.44462 0.32126 0.51881 0.0
C510 C 0.45166 0.30483 0.73671 0.0
C511 C 0.43785 0.28349 0.66692 0.0
C512 C 0.448 0.28509 0.7085 0.0
C513 C 0.4552 0.29609 0.74243 0.0
C514 C 0.43468 0.29247 0.66249 0.0
N515 N 0.44135 0.30278 0.69795 0.0
H516 H 0.45681 0.31295 0.76539 0.0
H517 H 0.42641 0.29099 0.63276 0.0
H518 H 0.46333 0.33226 0.6423 0.0
H519 H 0.42536 0.30855 0.55752 0.0
O520 O 0.45042 0.32743 0.73917 0.0
O521 O 0.43335 0.32829 0.71239 0.0
O522 O 0.42263 0.32065 0.68556 0.0
C523 C 0.44517 0.33386 0.73875 0.0
H524 H 0.40179 0.28891 0.86291 0.0
H525 H 0.46616 0.33478 0.52383 0.0
H526 H 0.43184 0.27507 0.64065 0.0
H527 H 0.46316 0.29773 0.77473 0.0
Co528 Co 0.83749 0.11746 0.81182 0.0
C529 C 0.8354 0.11857 0.67859 0.0
C530 C 0.81584 0.10958 0.71878 0.0
C531 C 0.81404 0.10916 0.65681 0.0
N532 N 0.82922 0.11557 0.73235 0.0
N533 N 0.82633 0.11476 0.63157 0.0
H534 H 0.84628 0.12322 0.67406 0.0
H535 H 0.80791 0.10534 0.75138 0.0
C536 C 0.82195 0.12572 0.88592 0.0
O537 O 0.83329 0.13477 0.91053 0.0
N538 N 0.84561 0.11888 0.89221 0.0
C539 C 0.85822 0.12136 0.90564 0.0
C540 C 0.85968 0.12081 0.96725 0.0
C541 C 0.83938 0.11615 0.94605 0.0
N542 N 0.84783 0.11761 0.99282 0.0
C543 C 0.86201 0.14097 0.80316 0.0
C544 C 0.8496 0.15378 0.77714 0.0
C545 C 0.86377 0.16015 0.78352 0.0
C546 C 0.86997 0.15355 0.79559 0.0
C547 C 0.84203 0.14118 0.78513 0.0
N548 N 0.8482 0.13502 0.80119 0.0
H549 H 0.86701 0.13601 0.80877 0.0
H550 H 0.83115 0.13637 0.7782 0.0
H551 H 0.8658 0.12297 0.87321 0.0
H552 H 0.82872 0.1127 0.95097 0.0
O553 O 0.84951 0.1131 0.77643 0.0
O554 O 0.82933 0.10008 0.8136 0.0
O555 O 0.82216 0.11826 0.84796 0.0
C556 C 0.83998 0.10183 0.78563 0.0
H557 H 0.80439 0.10457 0.63214 0.0
H558 H 0.86881 0.12264 0.99115 0.0
H559 H 0.84439 0.15847 0.7666 0.0
H560 H 0.88092 0.15801 0.79786 0.0
Co561 Co 0.99559 0.68587 0.70593 0.0
C562 C -0.00264 0.68846 0.83954 0.0
C563 C 0.01548 0.70255 0.79873 0.0
C564 C 0.01707 0.70426 0.8607 0.0
N565 N 0.0031 0.69271 0.78563 0.0
N566 N 0.00569 0.69539 0.8863 0.0
H567 H 0.9873 0.6805 0.84426 0.0
H568 H 0.02292 0.70798 0.76563 0.0
C569 C 0.00197 0.70856 0.63829 0.0
O570 O 0.98947 0.70322 0.6163 0.0
N571 N 0.98838 0.67888 0.62509 0.0
C572 C 0.97808 0.66743 0.61068 0.0
C573 C 0.97702 0.66576 0.54876 0.0
C574 C 0.99389 0.68372 0.57133 0.0
N575 N 0.98694 0.67604 0.52391 0.0
C576 C 0.96704 0.67654 0.72141 0.0
C577 C 0.97046 0.69888 0.75127 0.0
C578 C 0.95727 0.68876 0.74181 0.0
C579 C 0.95562 0.67737 0.72891 0.0
C580 C 0.98154 0.69763 0.74321 0.0
N581 N 0.97977 0.68674 0.72419 0.0
H582 H 0.9656 0.66768 0.71357 0.0
H583 H 0.99161 0.70553 0.75116 0.0
H584 H 0.97211 0.66042 0.6425 0.0
H585 H 0.00317 0.69247 0.56692 0.0
O586 O 0.98996 0.66976 0.73548 0.0
O587 O 0.00975 0.68268 0.69492 0.0
O588 O 0.00552 0.70285 0.67332 0.0
C589 C 0.00194 0.67224 0.7199 0.0
H590 H 0.02607 0.7113 0.88506 0.0
H591 H 0.96957 0.65752 0.52419 0.0
H592 H 0.97223 0.70774 0.76432 0.0
H593 H 0.94562 0.66922 0.7231 0.0
H594 H 0.10086 0.47013 0.87025 0.0
H595 H 0.09711 0.4699 0.76071 0.0
H596 H 0.05531 0.45819 0.78841 0.0
H597 H 0.05907 0.45856 0.89811 0.0
H598 H 0.0799 0.45063 0.68696 0.0
H599 H 0.06687 0.48623 0.67512 0.0
H600 H 0.07435 0.48404 0.74229 0.0
H601 H 0.05648 0.47416 0.72541 0.0
C602 C 0.0909 0.46757 0.85296 0.0
C603 C 0.08028 0.46443 0.89278 0.0
C604 C 0.08877 0.46746 0.79041 0.0
C605 C 0.07598 0.46418 0.76632 0.0
C606 C 0.06535 0.46105 0.80597 0.0
H607 H 0.04205 0.45271 0.40075 0.0
H608 H 0.04574 0.45315 0.51022 0.0
C609 C 0.06751 0.46126 0.86867 0.0
C610 C 0.07369 0.46356 0.69962 0.0
H611 H 0.0633 0.47455 0.58481 0.0
C612 C 0.07634 0.45591 0.6646 0.0
C613 C 0.06903 0.47045 0.67048 0.0
C614 C 0.06664 0.47927 0.70513 0.0
C615 C 0.07428 0.45484 0.60139 0.0
C616 C 0.06957 0.46167 0.57241 0.0
C617 C 0.06688 0.46929 0.6073 0.0
C618 C 0.06739 0.46108 0.50579 0.0
C619 C 0.07694 0.44624 0.56618 0.0
C620 C 0.07836 0.46542 0.467 0.0
C621 C 0.07632 0.46528 0.40428 0.0
C622 C 0.06325 0.46082 0.37911 0.0
C623 C 0.05227 0.45636 0.41833 0.0
C624 C 0.05434 0.45655 0.48099 0.0
H625 H 0.07759 0.43969 0.59611 0.0
H626 H 0.06885 0.44102 0.531 0.0
H627 H 0.08672 0.45161 0.54299 0.0
H628 H 0.08855 0.46915 0.48534 0.0
H629 H 0.08504 0.46898 0.37576 0.0
H630 H 0.64373 0.64707 0.77479 0.0
H631 H 0.6484 0.64926 0.66662 0.0
H632 H 0.67596 0.68807 0.69579 0.0
H633 H 0.67181 0.68567 0.80491 0.0
H634 H 0.64338 0.66035 0.58561 0.0
H635 H 0.69904 0.68122 0.59488 0.0
H636 H 0.68885 0.67507 0.6608 0.0
H637 H 0.69404 0.69018 0.63635 0.0
C638 C 0.65089 0.65603 0.75795 0.0
C639 C 0.65747 0.6662 0.79783 0.0
C640 C 0.65355 0.6573 0.69621 0.0
C641 C 0.66268 0.66881 0.67276 0.0
C642 C 0.66919 0.67903 0.71272 0.0
H643 H 0.66083 0.68019 0.28193 0.0
H644 H 0.65742 0.67949 0.39152 0.0
C645 C 0.66678 0.67769 0.77493 0.0
C646 C 0.66486 0.67005 0.60628 0.0
H647 H 0.68921 0.68117 0.4994 0.0
C648 C 0.65342 0.66485 0.56682 0.0
C649 C 0.67793 0.67579 0.58145 0.0
C650 C 0.69065 0.68076 0.62057 0.0
C651 C 0.65464 0.6651 0.50362 0.0
C652 C 0.66772 0.67126 0.47879 0.0
C653 C 0.67917 0.67655 0.51822 0.0
C654 C 0.66982 0.67193 0.41224 0.0
C655 C 0.64185 0.65835 0.46449 0.0
C656 C 0.67832 0.66838 0.38737 0.0
C657 C 0.68057 0.66914 0.3252 0.0
C658 C 0.6742 0.67328 0.28643 0.0
C659 C 0.66565 0.67678 0.31097 0.0
C660 C 0.66366 0.67631 0.37347 0.0
H661 H 0.63326 0.65108 0.48988 0.0
H662 H 0.63892 0.66486 0.44957 0.0
H663 H 0.64333 0.6541 0.42373 0.0
H664 H 0.6832 0.66497 0.41608 0.0
H665 H 0.68716 0.66634 0.30716 0.0
H666 H 0.46577 0.05246 0.9165 0.0
H667 H 0.46932 0.05557 0.80772 0.0
H668 H 0.50307 0.09222 0.84433 0.0
H669 H 0.49957 0.08918 0.9531 0.0
H670 H 0.46863 0.07255 0.73542 0.0
H671 H 0.5195 0.07837 0.73271 0.0
H672 H 0.50865 0.07242 0.79693 0.0
H673 H 0.51838 0.08859 0.78475 0.0
C674 C 0.47392 0.0612 0.90142 0.0
C675 C 0.48244 0.07054 0.94362 0.0
C676 C 0.47597 0.06294 0.83923 0.0
C677 C 0.4866 0.07405 0.81789 0.0
C678 C 0.49502 0.08346 0.85979 0.0
H679 H 0.51431 0.1031 0.4617 0.0
H680 H 0.51026 0.10002 0.56997 0.0
C681 C 0.49301 0.08171 0.92203 0.0
C682 C 0.48865 0.07586 0.75175 0.0
H683 H 0.51176 0.08265 0.64171 0.0
C684 C 0.47803 0.0747 0.71486 0.0
C685 C 0.50093 0.07867 0.725 0.0
C686 C 0.51248 0.07948 0.76173 0.0
C687 C 0.47944 0.07647 0.65211 0.0
C688 C 0.49173 0.07933 0.62548 0.0
C689 C 0.50235 0.08049 0.66231 0.0
C690 C 0.49383 0.08118 0.55945 0.0
C691 C 0.46787 0.07553 0.615 0.0
C692 C 0.48596 0.07158 0.51754 0.0
C693 C 0.48831 0.07328 0.45545 0.0
C694 C 0.49863 0.08461 0.43406 0.0
C695 C 0.50641 0.09421 0.47638 0.0
C696 C 0.50407 0.0925 0.53837 0.0
H697 H 0.46051 0.07616 0.64385 0.0
H698 H 0.47169 0.08284 0.58109 0.0
H699 H 0.46238 0.06659 0.59022 0.0
H700 H 0.47817 0.0627 0.53295 0.0
H701 H 0.48226 0.06563 0.42448 0.0
H702 H 0.15295 0.68154 0.76644 0.0
H703 H 0.14892 0.68053 0.65697 0.0
H704 H 0.10587 0.65754 0.68173 0.0
H705 H 0.10978 0.65831 0.79127 0.0
H706 H 0.13561 0.65899 0.58162 0.0
H707 H 0.10948 0.68472 0.57145 0.0
H708 H 0.11941 0.68538 0.63696 0.0
H709 H 0.10259 0.67237 0.6235 0.0
C710 C 0.14262 0.67624 0.74883 0.0
C711 C 0.1317 0.67001 0.78803 0.0
C712 C 0.14034 0.67573 0.68615 0.0
C713 C 0.1271 0.66907 0.66126 0.0
C714 C 0.11616 0.66292 0.70006 0.0
H715 H 0.09238 0.65389 0.29582 0.0
H716 H 0.09648 0.65503 0.40549 0.0
C717 C 0.11842 0.6634 0.76279 0.0
C718 C 0.1248 0.66818 0.59454 0.0
H719 H 0.10994 0.67509 0.48027 0.0
C720 C 0.13005 0.66256 0.55934 0.0
C721 C 0.1175 0.67279 0.56573 0.0
C722 C 0.112 0.67925 0.60114 0.0
C723 C 0.12797 0.66121 0.49611 0.0
C724 C 0.12073 0.66587 0.46715 0.0
C725 C 0.1155 0.67152 0.50245 0.0
C726 C 0.11835 0.66494 0.40035 0.0
C727 C 0.13325 0.6545 0.46119 0.0
C728 C 0.12927 0.67017 0.36088 0.0
C729 C 0.12694 0.66946 0.2981 0.0
C730 C 0.11364 0.66366 0.27363 0.0
C731 C 0.10273 0.65848 0.3133 0.0
C732 C 0.10507 0.65911 0.37596 0.0
H733 H 0.13507 0.6486 0.49099 0.0
H734 H 0.12605 0.64874 0.42391 0.0
H735 H 0.14305 0.66124 0.44105 0.0
H736 H 0.13962 0.67499 0.37863 0.0
H737 H 0.13555 0.67375 0.26884 0.0
H738 H 0.52206 0.46519 0.40229 0.0
H739 H 0.51882 0.46537 0.51131 0.0
H740 H 0.47612 0.45044 0.47844 0.0
H741 H 0.47923 0.45003 0.36914 0.0
H742 H 0.50761 0.47772 0.5747 0.0
H743 H 0.47792 0.42749 0.60469 0.0
H744 H 0.48807 0.43445 0.53919 0.0
H745 H 0.4719 0.43302 0.54532 0.0
C746 C 0.51194 0.4618 0.41817 0.0
C747 C 0.50089 0.45752 0.37684 0.0
C748 C 0.51013 0.46199 0.48051 0.0
C749 C 0.49721 0.4578 0.50298 0.0
C750 C 0.48615 0.45357 0.46204 0.0
H751 H 0.46484 0.44975 0.86075 0.0
H752 H 0.46855 0.44976 0.75267 0.0
C753 C 0.48797 0.45344 0.39955 0.0
C754 C 0.49541 0.4581 0.56923 0.0
H755 H 0.48034 0.43986 0.68979 0.0
C756 C 0.50168 0.46946 0.60001 0.0
C757 C 0.48767 0.44729 0.60198 0.0
C758 C 0.48107 0.43484 0.57142 0.0
C759 C 0.50018 0.47032 0.66258 0.0
C760 C 0.49247 0.45951 0.69551 0.0
C761 C 0.48625 0.44814 0.66461 0.0
C762 C 0.49044 0.45975 0.76172 0.0
C763 C 0.50655 0.48282 0.69239 0.0
C764 C 0.50151 0.46528 0.80321 0.0
C765 C 0.49943 0.46546 0.86543 0.0
C766 C 0.48622 0.46 0.88761 0.0
C767 C 0.47517 0.45429 0.84577 0.0
C768 C 0.47726 0.45418 0.78369 0.0
H769 H 0.50881 0.48995 0.65876 0.0
H770 H 0.49982 0.48303 0.72689 0.0
H771 H 0.51625 0.48521 0.71534 0.0
H772 H 0.51177 0.46941 0.78753 0.0
H773 H 0.5082 0.46997 0.89595 0.0
H774 H 0.67946 0.04955 0.81646 0.0
H775 H 0.68363 0.05219 0.70781 0.0
H776 H 0.64726 0.01718 0.67005 0.0
H777 H 0.64312 0.01433 0.77823 0.0
H778 H 0.68622 0.03631 0.622 0.0
H779 H 0.64266 0.0414 0.56533 0.0
H780 H 0.64937 0.04317 0.64175 0.0
H781 H 0.63858 0.02819 0.60826 0.0
C782 C 0.6724 0.04235 0.78521 0.0
C783 C 0.66087 0.03176 0.80634 0.0
C784 C 0.67477 0.04391 0.72308 0.0
C785 C 0.66562 0.03497 0.68095 0.0
C786 C 0.65428 0.0243 0.7018 0.0
H787 H 0.65893 0.02644 0.28937 0.0
H788 H 0.65554 0.02424 0.39863 0.0
C789 C 0.65192 0.02271 0.76377 0.0
C790 C 0.66795 0.03671 0.6151 0.0
H791 H 0.65435 0.03965 0.48283 0.0
C792 C 0.67932 0.03712 0.59152 0.0
C793 C 0.65887 0.03769 0.57558 0.0
C794 C 0.64673 0.0377 0.59887 0.0
C795 C 0.6817 0.03823 0.52909 0.0
C796 C 0.67262 0.03922 0.48949 0.0
C797 C 0.66128 0.03887 0.51322 0.0
C798 C 0.67469 0.04065 0.42326 0.0
C799 C 0.6937 0.03798 0.50595 0.0
C800 C 0.68647 0.05072 0.4008 0.0
C801 C 0.68843 0.052 0.33842 0.0
C802 C 0.67858 0.04331 0.29715 0.0
C803 C 0.66666 0.03336 0.31979 0.0
C804 C 0.66473 0.03205 0.38225 0.0
H805 H 0.69737 0.03384 0.53897 0.0
H806 H 0.69113 0.03276 0.46226 0.0
H807 H 0.70215 0.04746 0.49842 0.0
H808 H 0.69413 0.05764 0.43152 0.0
H809 H 0.6976 0.05989 0.32244 0.0
H810 H 0.71992 0.77838 0.72305 0.0
H811 H 0.72287 0.78166 0.83292 0.0
H812 H 0.76199 0.81433 0.80998 0.0
H813 H 0.75915 0.8111 0.70004 0.0
H814 H 0.74269 0.78305 0.91054 0.0
H815 H 0.7435 0.82643 0.92015 0.0
H816 H 0.73793 0.81661 0.85326 0.0
H817 H 0.75574 0.82672 0.87053 0.0
C818 C 0.72919 0.78624 0.74119 0.0
C819 C 0.73927 0.7945 0.70227 0.0
C820 C 0.73084 0.78813 0.80418 0.0
C821 C 0.74256 0.79834 0.82987 0.0
C822 C 0.7527 0.80654 0.7913 0.0
H823 H 0.77295 0.82671 0.19433 0.0
H824 H 0.76954 0.82243 0.0852 0.0
C825 C 0.75106 0.80468 0.72826 0.0
C826 C 0.74427 0.80026 0.89698 0.0
H827 H 0.74943 0.82054 0.0112 0.0
C828 C 0.74409 0.79122 0.93261 0.0
C829 C 0.74608 0.8109 0.92588 0.0
C830 C 0.7457 0.82068 0.89063 0.0
C831 C 0.74601 0.79267 0.99603 0.0
C832 C 0.74794 0.80337 0.02486 0.0
C833 C 0.74801 0.81236 0.98921 0.0
C834 C 0.75011 0.80557 0.09176 0.0
C835 C 0.74633 0.78288 0.03134 0.0
C836 C 0.74033 0.79753 0.13215 0.0
C837 C 0.74227 0.79996 0.19482 0.0
C838 C 0.75397 0.81056 0.21847 0.0
C839 C 0.76377 0.81854 0.17784 0.0
C840 C 0.76185 0.81608 0.11532 0.0
H841 H 0.74834 0.77701 1.00177 0.0
H842 H 0.7542 0.78693 0.06831 0.0
H843 H 0.73633 0.77695 0.05203 0.0
H844 H 0.73103 0.78951 0.11521 0.0
H845 H 0.7344 0.79372 0.22454 0.0
H846 H 0.3496 0.99289 0.67769 0.0
H847 H 0.34563 0.9912 0.78666 0.0
H848 H 0.31426 -0.00072 0.75981 0.0
H849 H 0.31777 0.00026 0.65029 0.0
H850 H 0.34852 0.00655 0.86933 0.0
H851 H 0.29414 0.97009 0.85918 0.0
H852 H 0.30448 0.97448 0.7933 0.0
H853 H 0.29728 0.98319 0.81809 0.0
C854 C 0.34179 0.9942 0.69525 0.0
C855 C 0.33389 0.99658 0.65584 0.0
C856 C 0.33953 0.99326 0.75746 0.0
C857 C 0.32946 0.99488 0.78172 0.0
C858 C 0.32177 -0.00244 0.7423 0.0
H859 H 0.32825 0.00776 0.17373 0.0
H860 H 0.33242 0.01053 0.06468 0.0
C861 C 0.32381 -0.0018 0.6798 0.0
C862 C 0.32728 0.994 0.84827 0.0
H863 H 0.30303 0.98021 0.95462 0.0
C864 C 0.33857 0.00072 0.88795 0.0
C865 C 0.31434 0.98629 0.8729 0.0
C866 C 0.30191 0.97801 0.83365 0.0
C867 C 0.33732 -8e-05 0.9512 0.0
C868 C 0.3243 0.99258 0.97577 0.0
C869 C 0.31301 0.98593 0.93606 0.0
C870 C 0.32212 0.99117 0.04227 0.0
C871 C 0.35006 0.0066 0.99066 0.0
C872 C 0.31462 0.97942 0.06606 0.0
C873 C 0.3119 0.97788 0.12771 0.0
C874 C 0.3168 0.98804 0.16723 0.0
C875 C 0.32452 -0.00019 0.14404 0.0
C876 C 0.32696 0.00137 0.08187 0.0
H877 H 0.35913 0.00845 0.96545 0.0
H878 H 0.35169 0.01552 1.00584 0.0
H879 H 0.3493 0.00131 0.03128 0.0
H880 H 0.31078 0.97139 0.03679 0.0
H881 H 0.30601 0.96872 0.14476 0.0
H882 H 0.15894 0.39557 0.7046 0.0
H883 H 0.16048 0.39393 0.81442 0.0
H884 H 0.12587 0.39746 0.83626 0.0
H885 H 0.12398 0.39872 0.72669 0.0
H886 H 0.16441 0.41111 0.90421 0.0
H887 H 0.11578 0.36726 0.93393 0.0
H888 H 0.12325 0.37227 0.86082 0.0
H889 H 0.11412 0.3785 0.89437 0.0
C890 C 0.15151 0.39579 0.7326 0.0
C891 C 0.14131 0.39725 0.7066 0.0
C892 C 0.15247 0.39494 0.79544 0.0
C893 C 0.14319 0.39542 0.83349 0.0
C894 C 0.133 0.39686 0.80775 0.0
H895 H 0.13441 0.3932 0.22642 0.0
H896 H 0.13224 0.39539 0.11733 0.0
C897 C 0.13204 0.39772 0.74502 0.0
C898 C 0.14445 0.39485 0.90025 0.0
H899 H 0.12769 0.3784 0.02359 0.0
C900 C 0.15641 0.40394 0.9303 0.0
C901 C 0.13396 0.38552 0.93427 0.0
C902 C 0.12109 0.37526 0.90427 0.0
C903 C 0.15811 0.40401 0.9935 0.0
C904 C 0.14766 0.39463 0.02745 0.0
C905 C 0.13566 0.3856 0.9975 0.0
C906 C 0.14922 0.39374 0.09374 0.0
C907 C 0.17099 0.41424 0.02348 0.0
C908 C 0.15943 0.39203 0.11659 0.0
C909 C 0.16072 0.39083 0.17871 0.0
C910 C 0.15177 0.39122 0.21949 0.0
C911 C 0.14156 0.39298 0.19648 0.0
C912 C 0.14025 0.39416 0.13411 0.0
H913 H 0.17614 0.42235 0.99438 0.0
H914 H 0.16892 0.41705 0.06768 0.0
H915 H 0.17808 0.41107 0.03187 0.0
H916 H 0.16632 0.39148 0.08623 0.0
H917 H 0.1688 0.38963 0.19476 0.0
H918 H 0.76449 0.9626 0.15529 0.0
H919 H 0.76223 0.9647 0.04688 0.0
H920 H 0.75527 0.99384 0.0832 0.0
H921 H 0.75796 0.99209 0.19206 0.0
H922 H 0.74022 0.96209 0.98125 0.0
H923 H 0.78528 0.00885 0.95933 0.0
H924 H 0.78266 -0.00014 0.02549 0.0
H925 H 0.77357 0.0075 0.01539 0.0
C926 C 0.7627 0.9696 0.14053 0.0
C927 C 0.76157 0.97726 0.18293 0.0
C928 C 0.76129 0.97072 0.0783 0.0
C929 C 0.75877 0.97954 0.05668 0.0
C930 C 0.75747 0.98712 0.09867 0.0
H931 H 0.74773 -0.00107 0.69264 0.0
H932 H 0.74965 0.9974 0.80207 0.0
C933 C 0.75887 0.98601 0.16109 0.0
C934 C 0.75725 0.98058 0.99025 0.0
H935 H 0.77095 -3e-05 0.87217 0.0
C936 C 0.74695 0.97036 0.95738 0.0
C937 C 0.76602 0.99138 0.95907 0.0
C938 C 0.77759 0.0025 0.99138 0.0
C939 C 0.7451 0.97069 0.89445 0.0
C940 C 0.75395 0.98146 0.86315 0.0
C941 C 0.76418 0.99171 0.89609 0.0
C942 C 0.75276 0.98229 0.7963 0.0
C943 C 0.73349 0.95958 0.8623 0.0
C944 C 0.75403 0.97442 0.75631 0.0
C945 C 0.75283 0.97521 0.6935 0.0
C946 C 0.75041 0.98395 0.66916 0.0
C947 C 0.74936 0.99195 0.70946 0.0
C948 C 0.75055 0.99115 0.77221 0.0
H949 H 0.72559 0.95349 0.89429 0.0
H950 H 0.72872 0.96221 0.82666 0.0
H951 H 0.73739 0.95428 0.84031 0.0
H952 H 0.75601 0.96767 0.77366 0.0
H953 H 0.75363 0.96884 0.66416 0.0
H954 H 0.14321 0.79893 0.67709 0.0
H955 H 0.14368 0.80183 0.78698 0.0
H956 H 0.15132 0.77288 0.81257 0.0
H957 H 0.15123 0.77012 0.70273 0.0
H958 H 0.12694 0.78453 0.87281 0.0
H959 H 0.18129 0.80115 0.91782 0.0
H960 H 0.17454 0.80071 0.84287 0.0
H961 H 0.17194 0.78696 0.87545 0.0
C962 C 0.14519 0.79329 0.70594 0.0
C963 C 0.14726 0.78433 0.68084 0.0
C964 C 0.14535 0.7949 0.76883 0.0
C965 C 0.14771 0.78768 0.80801 0.0
C966 C 0.1497 0.77869 0.78324 0.0
H967 H 0.15334 0.78538 0.20173 0.0
H968 H 0.15235 0.78139 0.09259 0.0
C969 C 0.1495 0.77704 0.72036 0.0
C970 C 0.14775 0.78938 0.87476 0.0
H971 H 0.16771 0.79725 1.00341 0.0
C972 C 0.13586 0.78734 0.90139 0.0
C973 C 0.15937 0.79298 0.912 0.0
C974 C 0.17256 0.79569 0.88571 0.0
C975 C 0.13523 0.78869 0.9643 0.0
C976 C 0.1469 0.79243 1.00152 0.0
C977 C 0.15876 0.79438 0.97491 0.0
C978 C 0.14711 0.79462 0.06797 0.0
C979 C 0.12198 0.78586 0.99042 0.0
C980 C 0.14459 0.80344 0.09057 0.0
C981 C 0.14504 0.80567 0.15299 0.0
C982 C 0.14813 0.7992 0.19438 0.0
C983 C 0.15072 0.7904 0.1715 0.0
C984 C 0.15026 0.78817 0.10898 0.0
H985 H 0.11323 0.77983 0.95938 0.0
H986 H 0.12031 0.7814 0.03482 0.0
H987 H 0.12219 0.7945 0.99741 0.0
H988 H 0.14242 0.80871 0.05985 0.0
H989 H 0.14289 0.81244 0.16871 0.0
H990 H 0.37249 0.41785 0.75063 0.0
H991 H 0.36903 0.41498 0.85941 0.0
H992 H 0.33326 0.37941 0.8241 0.0
H993 H 0.33686 0.38207 0.71508 0.0
H994 H 0.34659 0.41069 0.92556 0.0
H995 H 0.35532 0.37247 0.9463 0.0
H996 H 0.36012 0.38193 0.88059 0.0
H997 H 0.34272 0.37003 0.88991 0.0
C998 C 0.36397 0.40935 0.76587 0.0
C999 C 0.35502 0.40016 0.72392 0.0
C1000 C 0.36196 0.40776 0.82815 0.0
C1001 C 0.35101 0.39691 0.84996 0.0
C1002 C 0.34192 0.38777 0.80833 0.0
H1003 H 0.3209 0.37005 0.2062 0.0
H1004 H 0.3252 0.37294 0.09809 0.0
C1005 C 0.34391 0.38937 0.74594 0.0
C1006 C 0.34899 0.39531 0.91625 0.0
H1007 H 0.34746 0.37757 0.03332 0.0
C1008 C 0.34684 0.40349 0.94923 0.0
C1009 C 0.34932 0.3859 0.94699 0.0
C1010 C 0.35211 0.37713 0.91437 0.0
C1011 C 0.34473 0.40237 0.01191 0.0
C1012 C 0.34506 0.39296 0.04272 0.0
C1013 C 0.34724 0.3848 0.00972 0.0
C1014 C 0.3428 0.39124 0.10887 0.0
C1015 C 0.34179 0.41107 0.04423 0.0
C1016 C 0.35142 0.40047 0.1512 0.0
C1017 C 0.34891 0.39889 0.21327 0.0
C1018 C 0.33777 0.38799 0.23431 0.0
C1019 C 0.32941 0.37864 0.19176 0.0
C1020 C 0.33191 0.38024 0.12982 0.0
H1021 H 0.33847 0.41562 0.0121 0.0
H1022 H 0.33381 0.40625 0.0781 0.0
H1023 H 0.35115 0.41828 0.06844 0.0
H1024 H 0.36005 0.40894 0.13621 0.0
H1025 H 0.35553 0.4063 0.24456 0.0
H1026 H 0.36932 0.11552 0.57678 0.0
H1027 H 0.36563 0.11542 0.4672 0.0
H1028 H 0.40151 0.11428 0.43654 0.0
H1029 H 0.40536 0.11452 0.5458 0.0
H1030 H 0.38306 0.13243 0.38326 0.0
H1031 H 0.37288 0.08623 0.32703 0.0
H1032 H 0.37237 0.0911 0.40345 0.0
H1033 H 0.38836 0.09575 0.37019 0.0
C1034 C 0.37649 0.11533 0.54686 0.0
C1035 C 0.38767 0.11505 0.57035 0.0
C1036 C 0.3743 0.11518 0.48412 0.0
C1037 C 0.38318 0.11466 0.44356 0.0
C1038 C 0.39434 0.1144 0.46684 0.0
H1039 H 0.39278 0.11854 0.05315 0.0
H1040 H 0.39477 0.11682 0.16263 0.0
C1041 C 0.39654 0.11455 0.52944 0.0
C1042 C 0.38112 0.11491 0.37698 0.0
H1043 H 0.37644 0.0991 0.24395 0.0
C1044 C 0.38151 0.1251 0.35284 0.0
C1045 C 0.37914 0.10536 0.33726 0.0
C1046 C 0.37803 0.09393 0.3607 0.0
C1047 C 0.38029 0.12615 0.29006 0.0
C1048 C 0.37839 0.11664 0.25028 0.0
C1049 C 0.37793 0.1064 0.27442 0.0
C1050 C 0.37683 0.11716 0.18351 0.0
C1051 C 0.3814 0.13759 0.26671 0.0
C1052 C 0.36592 0.11763 0.15861 0.0
C1053 C 0.36471 0.11855 0.09603 0.0
C1054 C 0.37436 0.11897 0.05671 0.0
C1055 C 0.38509 0.11815 0.08173 0.0
C1056 C 0.38629 0.11723 0.14445 0.0
H1057 H 0.38622 0.14519 0.30097 0.0
H1058 H 0.38739 0.1406 0.22489 0.0
H1059 H 0.3711 0.13568 0.25558 0.0
H1060 H 0.35832 0.1173 0.18767 0.0
H1061 H 0.35617 0.1189 0.07848 0.0
H1062 H 0.9969 0.34286 0.44322 0.0
H1063 H 0.00065 0.34363 0.33412 0.0
H1064 H 0.95743 0.32222 0.29905 0.0
H1065 H 0.95361 0.32146 0.40762 0.0
H1066 H 0.99336 0.32517 0.251 0.0
H1067 H 0.96866 0.35052 0.18809 0.0
H1068 H 0.97288 0.34928 0.26564 0.0
H1069 H 0.95778 0.33693 0.22882 0.0
C1070 C 0.98819 0.33831 0.41235 0.0
C1071 C 0.97494 0.3322 0.43436 0.0
C1072 C 0.99035 0.33879 0.34992 0.0
C1073 C 0.97932 0.3332 0.3082 0.0
C1074 C 0.9661 0.32692 0.33011 0.0
H1075 H 0.97036 0.32064 0.91695 0.0
H1076 H 0.96674 0.32057 0.02592 0.0
C1077 C 0.96394 0.32649 0.39236 0.0
C1078 C 0.9816 0.33357 0.24191 0.0
H1079 H 0.97397 0.34157 0.10671 0.0
C1080 C 0.9892 0.32883 0.21954 0.0
C1081 C 0.97616 0.33834 0.20073 0.0
C1082 C 0.96853 0.34417 0.22201 0.0
C1083 C 0.99128 0.32852 0.15717 0.0
C1084 C 0.98571 0.33317 0.11608 0.0
C1085 C 0.97815 0.33793 0.13832 0.0
C1086 C 0.98786 0.33336 0.0499 0.0
C1087 C -0.0008 0.32302 0.13551 0.0
C1088 C 0.00088 0.34073 0.02716 0.0
C1089 C 0.00298 0.34088 0.96493 0.0
C1090 C 0.99208 0.33364 0.92384 0.0
C1091 C 0.97898 0.32639 0.94689 0.0
C1092 C 0.9769 0.32629 0.00926 0.0
H1093 H 0.00023 0.31748 0.17087 0.0
H1094 H 0.99426 0.31715 0.09434 0.0
H1095 H 0.00953 0.33045 0.12356 0.0
H1096 H 0.00944 0.34644 0.05761 0.0
H1097 H 0.01315 0.34681 0.94919 0.0
H1098 H 0.85848 0.75029 0.05413 0.0
H1099 H 0.85445 0.74748 0.16257 0.0
H1100 H 0.81195 0.73343 0.12816 0.0
H1101 H 0.81591 0.73612 0.01937 0.0
H1102 H 0.84491 0.75751 0.23997 0.0
H1103 H 0.81037 0.70713 0.23199 0.0
H1104 H 0.82022 0.71552 0.16813 0.0
H1105 H 0.80472 0.71487 0.18444 0.0
C1106 C 0.84828 0.74665 0.06959 0.0
C1107 C 0.83751 0.74341 0.02798 0.0
C1108 C 0.84598 0.745 0.13162 0.0
C1109 C 0.83287 0.74006 0.15352 0.0
C1110 C 0.8221 0.73695 0.11224 0.0
H1111 H 0.79971 0.7274 0.51198 0.0
H1112 H 0.80387 0.73014 0.40387 0.0
C1113 C 0.82438 0.73852 0.05003 0.0
C1114 C 0.83058 0.73845 0.21967 0.0
H1115 H 0.81261 0.71724 0.32623 0.0
C1116 C 0.8379 0.74869 0.25884 0.0
C1117 C 0.82146 0.72693 0.24433 0.0
C1118 C 0.81383 0.71546 0.20516 0.0
C1119 C 0.83617 0.74776 0.32177 0.0
C1120 C 0.82697 0.73628 0.34622 0.0
C1121 C 0.81965 0.72604 0.30722 0.0
C1122 C 0.82463 0.73472 0.41217 0.0
C1123 C 0.84399 0.75911 0.36163 0.0
C1124 C 0.83491 0.7363 0.45273 0.0
C1125 C 0.83253 0.7346 0.51483 0.0
C1126 C 0.8198 0.73128 0.53754 0.0
C1127 C 0.80956 0.72974 0.49643 0.0
C1128 C 0.81193 0.73138 0.43446 0.0
H1129 H 0.84859 0.76757 0.33496 0.0
H1130 H 0.83729 0.75948 0.39574 0.0
H1131 H 0.85226 0.7589 0.38637 0.0
H1132 H 0.84473 0.73871 0.43625 0.0
H1133 H 0.8406 0.73571 0.54477 0.0
H1134 H 0.44065 0.32489 0.93725 0.0
H1135 H 0.44415 0.32749 0.04726 0.0
H1136 H 0.41242 0.28987 0.06862 0.0
H1137 H 0.40919 0.28706 0.95877 0.0
H1138 H 0.42618 0.32468 0.13523 0.0
H1139 H 0.44322 0.29225 0.17057 0.0
H1140 H 0.44225 0.29758 0.09659 0.0
H1141 H 0.42717 0.28562 0.13066 0.0
C1142 C 0.43455 0.3171 0.96515 0.0
C1143 C 0.42468 0.30573 0.93875 0.0
C1144 C 0.4365 0.31863 0.02819 0.0
C1145 C 0.4287 0.30882 0.06628 0.0
C1146 C 0.41876 0.29751 0.04021 0.0
H1147 H 0.42485 0.30078 0.45881 0.0
H1148 H 0.42041 0.29784 0.34907 0.0
C1149 C 0.41681 0.29596 0.97722 0.0
C1150 C 0.43073 0.31051 0.13329 0.0
H1151 H 0.43865 0.30001 0.25895 0.0
C1152 C 0.42897 0.31932 0.16224 0.0
C1153 C 0.43433 0.30349 0.16862 0.0
C1154 C 0.43698 0.29428 0.14007 0.0
C1155 C 0.43052 0.32119 0.2255 0.0
C1156 C 0.43412 0.31418 0.26076 0.0
C1157 C 0.43583 0.30534 0.2319 0.0
C1158 C 0.43652 0.3161 0.32748 0.0
C1159 C 0.42807 0.33051 0.25419 0.0
C1160 C 0.44709 0.3273 0.35182 0.0
C1161 C 0.44963 0.32901 0.41445 0.0
C1162 C 0.44169 0.31954 0.45425 0.0
C1163 C 0.43106 0.30832 0.42969 0.0
C1164 C 0.42856 0.3066 0.36691 0.0
H1165 H 0.42201 0.33274 0.22363 0.0
H1166 H 0.4227 0.32719 0.29746 0.0
H1167 H 0.43796 0.33905 0.26421 0.0
H1168 H 0.4535 0.3347 0.32227 0.0
H1169 H 0.45781 0.3378 0.43168 0.0
H1170 H 0.81135 0.1162 0.54068 0.0
H1171 H 0.81509 0.1164 0.43181 0.0
H1172 H 0.85105 0.11535 0.46828 0.0
H1173 H 0.84725 0.11494 0.57733 0.0
H1174 H 0.83863 0.13362 0.36629 0.0
H1175 H 0.82793 0.08628 0.34683 0.0
H1176 H 0.82288 0.09164 0.41099 0.0
H1177 H 0.84023 0.09592 0.40459 0.0
C1178 C 0.82002 0.11595 0.52552 0.0
C1179 C 0.82897 0.11551 0.56766 0.0
C1180 C 0.82217 0.11613 0.46335 0.0
C1181 C 0.83324 0.11573 0.44197 0.0
C1182 C 0.84234 0.11549 0.48383 0.0
H1183 H 0.86106 0.11337 0.08278 0.0
H1184 H 0.85743 0.11308 0.19142 0.0
C1185 C 0.84024 0.1154 0.54614 0.0
C1186 C 0.83526 0.11565 0.37582 0.0
H1187 H 0.83552 0.09815 0.25904 0.0
C1188 C 0.83792 0.12587 0.34272 0.0
C1189 C 0.83435 0.10552 0.34534 0.0
C1190 C 0.83109 0.09416 0.37847 0.0
C1191 C 0.83994 0.12633 0.28 0.0
C1192 C 0.83891 0.11615 0.24928 0.0
C1193 C 0.83626 0.10593 0.28253 0.0
C1194 C 0.84077 0.116 0.18286 0.0
C1195 C 0.84348 0.13784 0.24756 0.0
C1196 C 0.83242 0.11747 0.14162 0.0
C1197 C 0.83456 0.11778 0.0793 0.0
C1198 C 0.84503 0.1165 0.05679 0.0
C1199 C 0.85307 0.11461 0.09826 0.0
C1200 C 0.85095 0.11436 0.16052 0.0
H1201 H 0.84754 0.14581 0.2795 0.0
H1202 H 0.85111 0.13995 0.2125 0.0
H1203 H 0.83421 0.13658 0.22487 0.0
H1204 H 0.82429 0.11848 0.15764 0.0
H1205 H 0.82821 0.11932 0.04903 0.0
H1206 H 0.97942 0.65918 0.43239 0.0
H1207 H 0.98277 0.66299 0.32426 0.0
H1208 H 0.00372 0.70176 0.36134 0.0
H1209 H 0.0002 0.69806 0.46978 0.0
H1210 H 0.97377 0.67603 0.25202 0.0
H1211 H 0.02972 0.69731 0.25209 0.0
H1212 H 0.0195 0.68828 0.31385 0.0
H1213 H 0.02352 0.70367 0.30591 0.0
C1214 C 0.9847 0.66853 0.41782 0.0
C1215 C 0.98953 0.6783 0.46015 0.0
C1216 C 0.98666 0.67068 0.35588 0.0
C1217 C 0.99359 0.68264 0.33485 0.0
C1218 C -0.00147 0.69245 0.37674 0.0
H1219 H 0.01593 0.71276 0.97575 0.0
H1220 H 0.01246 0.70967 0.08453 0.0
C1221 C 0.99654 0.69031 0.43879 0.0
C1222 C 0.99528 0.6848 0.26889 0.0
H1223 H 0.019 0.69699 0.15952 0.0
C1224 C 0.98365 0.68059 0.23166 0.0
C1225 C 0.00818 0.6908 0.24267 0.0
C1226 C 0.02097 0.69522 0.28044 0.0
C1227 C 0.98458 0.68236 0.16885 0.0
C1228 C -0.00252 0.68822 0.14238 0.0
C1229 C 0.00912 0.69248 0.17979 0.0
C1230 C -0.00083 0.69004 0.07603 0.0
C1231 C 0.97175 0.67818 0.13174 0.0
C1232 C 0.99291 0.68003 0.03494 0.0
C1233 C 0.99484 0.68178 0.97263 0.0
C1234 C 0.00324 0.69357 0.95025 0.0
C1235 C 0.00952 0.70356 0.99155 0.0
C1236 C 0.00751 0.70181 0.05373 0.0
H1237 H 0.96348 0.67723 0.16025 0.0
H1238 H 0.97351 0.68464 0.09513 0.0
H1239 H 0.96826 0.6691 0.11056 0.0
H1240 H 0.98672 0.67082 0.05112 0.0
H1241 H 0.99006 0.67388 0.94215 0.0
H1242 H 0.12698 0.61652 0.98473 0.0
H1243 H 0.12448 0.59655 0.99456 0.0
H1244 H 0.09959 0.58944 0.14993 0.0
H1245 H 0.10229 0.60952 0.14132 0.0
H1246 H 0.12095 0.58433 0.164 0.0
H1247 H 0.08927 0.56323 0.95388 0.0
H1248 H 0.1048 0.57767 0.94524 0.0
H1249 H 0.09155 0.57691 0.98935 0.0
C1250 C 0.12104 0.61073 0.02122 0.0
C1251 C 0.11481 0.61457 0.06221 0.0
C1252 C 0.11954 0.5993 0.02641 0.0
C1253 C 0.11174 0.59151 0.07253 0.0
C1254 C 0.10559 0.59533 0.11384 0.0
H1255 H 0.08534 0.51984 0.1951 0.0
H1256 H 0.09215 0.54113 0.18384 0.0
C1257 C 0.10706 0.60675 0.1086 0.0
C1258 C 0.11008 0.5794 0.07807 0.0
H1259 H 0.09585 0.55142 0.00777 0.0
C1260 C 0.11549 0.57712 0.12987 0.0
C1261 C 0.10303 0.5701 0.03314 0.0
C1262 C 0.09672 0.572 0.9774 0.0
C1263 C 0.11399 0.56571 0.13811 0.0
C1264 C 0.10667 0.55631 0.09386 0.0
C1265 C 0.1015 0.55867 0.04147 0.0
C1266 C 0.10348 0.54372 0.10272 0.0
C1267 C 0.12031 0.56384 0.19391 0.0
C1268 C 0.10746 0.53808 0.0604 0.0
C1269 C 0.10346 0.52585 0.06638 0.0
C1270 C 0.09528 0.51905 0.11444 0.0
C1271 C 0.09154 0.52482 0.1573 0.0
C1272 C 0.09555 0.53702 0.15134 0.0
H1273 H 0.12882 0.57265 0.21309 0.0
H1274 H 0.11254 0.55953 0.22908 0.0
H1275 H 0.12414 0.55774 0.18379 0.0
H1276 H 0.11349 0.5431 0.02226 0.0
H1277 H 0.10637 0.52161 0.03231 0.0
H1278 H 0.5325 0.51897 0.03947 0.0
H1279 H 0.55083 0.54049 0.04154 0.0
H1280 H 0.5699 0.5342 0.1939 0.0
H1281 H 0.55151 0.51276 0.19328 0.0
H1282 H 0.55923 0.5576 0.1468 0.0
H1283 H 0.60008 0.55107 0.06437 0.0
H1284 H 0.58229 0.53967 0.0524 0.0
H1285 H 0.59023 0.54171 0.1257 0.0
C1286 C 0.54053 0.52217 0.07372 0.0
C1287 C 0.54055 0.51412 0.11609 0.0
C1288 C 0.55102 0.53444 0.07457 0.0
C1289 C 0.56175 0.53884 0.1174 0.0
C1290 C 0.56181 0.53089 0.15985 0.0
H1291 H 0.63492 0.61145 0.16977 0.0
H1292 H 0.61744 0.58974 0.17928 0.0
C1293 C 0.55131 0.51864 0.15924 0.0
C1294 C 0.57271 0.55186 0.11866 0.0
H1295 H 0.60632 0.57116 0.09187 0.0
C1296 C 0.56953 0.56059 0.13484 0.0
C1297 C 0.58614 0.55566 0.1037 0.0
C1298 C 0.58996 0.54658 0.08514 0.0
C1299 C 0.57946 0.57309 0.13628 0.0
C1300 C 0.59283 0.57694 0.11959 0.0
C1301 C 0.59606 0.56818 0.10457 0.0
C1302 C 0.60341 0.59002 0.11444 0.0
C1303 C 0.57557 0.58205 0.15623 0.0
C1304 C 0.60138 0.59726 0.07408 0.0
C1305 C 0.61128 0.60958 0.06869 0.0
C1306 C 0.62347 0.6149 0.10312 0.0
C1307 C 0.62563 0.60758 0.14264 0.0
C1308 C 0.61566 0.59522 0.14823 0.0
H1309 H 0.5665 0.57765 0.18494 0.0
H1310 H 0.58402 0.58993 0.18201 0.0
H1311 H 0.57305 0.58555 0.11567 0.0
H1312 H 0.59218 0.59334 0.04624 0.0
H1313 H 0.60946 0.61491 0.03678 0.0
H1314 H 0.62345 0.05451 0.99661 0.0
H1315 H 0.60614 0.05951 0.01103 0.0
H1316 H 0.60496 0.05155 0.20079 0.0
H1317 H 0.6229 0.04726 0.18765 0.0
H1318 H 0.58075 0.04543 0.04607 0.0
H1319 H 0.60869 0.08436 0.20951 0.0
H1320 H 0.6169 0.07799 0.16815 0.0
H1321 H 0.60766 0.07075 0.23512 0.0
C1322 C 0.61975 0.05408 0.04175 0.0
C1323 C 0.6247 0.0506 0.09112 0.0
C1324 C 0.60974 0.05683 0.04977 0.0
C1325 C 0.60443 0.05612 0.10718 0.0
C1326 C 0.60916 0.05246 0.15637 0.0
H1327 H 0.5276 0.04968 0.17234 0.0
H1328 H 0.54613 0.04623 0.15878 0.0
C1329 C 0.61927 0.04983 0.14855 0.0
C1330 C 0.59358 0.05878 0.11492 0.0
H1331 H 0.58495 0.07621 0.19657 0.0
C1332 C 0.5817 0.05221 0.07873 0.0
C1333 C 0.59493 0.06777 0.15687 0.0
C1334 C 0.60779 0.07571 0.19417 0.0
C1335 C 0.57102 0.05423 0.08401 0.0
C1336 C 0.5721 0.0628 0.12797 0.0
C1337 C 0.58408 0.06953 0.16341 0.0
C1338 C 0.56094 0.06497 0.13775 0.0
C1339 C 0.5588 0.04732 0.04162 0.0
C1340 C 0.56324 0.07675 0.13274 0.0
C1341 C 0.55274 0.07883 0.14192 0.0
C1342 C 0.53971 0.06914 0.15619 0.0
C1343 C 0.53751 0.05737 0.16189 0.0
C1344 C 0.54805 0.05534 0.15326 0.0
H1345 H 0.5613 0.04411 0.99978 0.0
H1346 H 0.55076 0.03916 0.06464 0.0
H1347 H 0.55469 0.05306 0.02848 0.0
H1348 H 0.57316 0.08434 0.1214 0.0
H1349 H 0.55489 0.08805 0.1384 0.0
H1350 H 0.74361 0.84737 0.62345 0.0
H1351 H 0.74009 0.86422 0.64234 0.0
H1352 H 0.7094 0.85022 0.49923 0.0
H1353 H 0.71279 0.83329 0.48053 0.0
H1354 H 0.74581 0.88 0.54951 0.0
H1355 H 0.69355 0.86235 0.62621 0.0
H1356 H 0.70171 0.85372 0.63212 0.0
H1357 H 0.69442 0.85438 0.56086 0.0
C1358 C 0.73589 0.84774 0.59703 0.0
C1359 C 0.72859 0.83915 0.55002 0.0
C1360 C 0.73382 0.8573 0.60814 0.0
C1361 C 0.72443 0.85842 0.57244 0.0
C1362 C 0.71648 0.84938 0.52818 0.0
H1363 H 0.7177 0.91786 0.45358 0.0
H1364 H 0.7128 0.89756 0.48106 0.0
C1365 C 0.71848 0.83976 0.51729 0.0
C1366 C 0.72482 0.87006 0.57373 0.0
H1367 H 0.70549 0.88269 0.58815 0.0
C1368 C 0.73705 0.88062 0.55899 0.0
C1369 C 0.71331 0.87077 0.58511 0.0
C1370 C 0.70002 0.85972 0.60249 0.0
C1371 C 0.73804 0.89185 0.55364 0.0
C1372 C 0.72654 0.8926 0.56479 0.0
C1373 C 0.7143 0.88207 0.58017 0.0
C1374 C 0.72709 0.90421 0.55729 0.0
C1375 C 0.75127 0.90271 0.53363 0.0
C1376 C 0.73624 0.91451 0.59292 0.0
C1377 C 0.73918 0.92607 0.57679 0.0
C1378 C 0.73282 0.92742 0.5255 0.0
C1379 C 0.72272 0.917 0.49329 0.0
C1380 C 0.71991 0.90543 0.50899 0.0
H1381 H 0.75799 0.89993 0.51363 0.0
H1382 H 0.74944 0.908 0.49965 0.0
H1383 H 0.75674 0.90883 0.5734 0.0
H1384 H 0.74172 0.9137 0.63093 0.0
H1385 H 0.74687 0.93399 0.60273 0.0
H1386 H 0.21661 0.83199 0.49065 0.0
H1387 H 0.23864 0.8511 0.50379 0.0
H1388 H 0.21845 0.87105 0.51936 0.0
H1389 H 0.19649 0.85209 0.5057 0.0
H1390 H 0.24844 0.87029 0.42709 0.0
H1391 H 0.24639 0.88586 0.6587 0.0
H1392 H 0.23516 0.87028 0.63186 0.0
H1393 H 0.23143 0.88183 0.61442 0.0
C1394 C 0.21688 0.84045 0.49733 0.0
C1395 C 0.2048 0.84052 0.49712 0.0
C1396 C 0.22945 0.85133 0.50525 0.0
C1397 C 0.23016 0.86245 0.51361 0.0
C1398 C 0.21812 0.86252 0.51472 0.0
H1399 H 0.27803 0.93314 0.40059 0.0
H1400 H 0.26344 0.91127 0.41625 0.0
C1401 C 0.20556 0.85167 0.50676 0.0
C1402 C 0.2434 0.87415 0.5146 0.0
H1403 H 0.26133 0.90168 0.59006 0.0
C1404 C 0.25144 0.87706 0.46341 0.0
C1405 C 0.24744 0.8829 0.5624 0.0
C1406 C 0.23971 0.88001 0.62023 0.0
C1407 C 0.2628 0.88882 0.45655 0.0
C1408 C 0.26606 0.89789 0.50172 0.0
C1409 C 0.25871 0.89472 0.55517 0.0
C1410 C 0.27567 0.91095 0.4905 0.0
C1411 C 0.27087 0.89159 0.39982 0.0
C1412 C 0.28732 0.91803 0.52752 0.0
C1413 C 0.29572 0.9306 0.51859 0.0
C1414 C 0.29237 0.93622 0.47336 0.0
C1415 C 0.28078 0.92905 0.4361 0.0
C1416 C 0.27251 0.91654 0.44461 0.0
H1417 H 0.26996 0.88323 0.3799 0.0
H1418 H 0.26691 0.89527 0.36564 0.0
H1419 H 0.28177 0.89852 0.40912 0.0
H1420 H 0.28982 0.91386 0.56355 0.0
H1421 H 0.30457 0.93597 0.54807 0.0
H1422 H 0.30811 0.42058 0.49576 0.0
H1423 H 0.28882 0.42297 0.51145 0.0
H1424 H 0.27243 0.39358 0.63774 0.0
H1425 H 0.29171 0.39117 0.62251 0.0
H1426 H 0.2546 0.39036 0.54351 0.0
H1427 H 0.27715 0.43643 0.65112 0.0
H1428 H 0.28536 0.43599 0.58379 0.0
H1429 H 0.28586 0.42825 0.64997 0.0
C1430 C 0.30058 0.41484 0.52804 0.0
C1431 C 0.30138 0.40563 0.55759 0.0
C1432 C 0.28958 0.41624 0.53707 0.0
C1433 C 0.27927 0.40853 0.57619 0.0
C1434 C 0.28031 0.39964 0.60748 0.0
H1435 H 0.19737 0.39231 0.62796 0.0
H1436 H 0.21945 0.39439 0.64268 0.0
C1437 C 0.29128 0.39823 0.59843 0.0
C1438 C 0.2667 0.40878 0.5793 0.0
H1439 H 0.25428 0.42691 0.61363 0.0
C1440 C 0.2545 0.3983 0.55949 0.0
C1441 C 0.26666 0.41921 0.59952 0.0
C1442 C 0.27943 0.43059 0.62282 0.0
C1443 C 0.24228 0.39802 0.55816 0.0
C1444 C 0.2422 0.40843 0.57849 0.0
C1445 C 0.25439 0.41893 0.59848 0.0
C1446 C 0.22955 0.40859 0.57715 0.0
C1447 C 0.22962 0.3867 0.53318 0.0
C1448 C 0.22815 0.41634 0.53786 0.0
C1449 C 0.21557 0.41522 0.52962 0.0
C1450 C 0.20421 0.4063 0.5605 0.0
C1451 C 0.20589 0.3991 0.60278 0.0
C1452 C 0.21848 0.40029 0.61124 0.0
H1453 H 0.23202 0.38075 0.50647 0.0
H1454 H 0.22324 0.38134 0.57129 0.0
H1455 H 0.22358 0.38914 0.50381 0.0
H1456 H 0.2366 0.42283 0.51129 0.0
H1457 H 0.21456 0.42084 0.49655 0.0
H1458 H 0.44782 0.26867 0.62768 0.0
H1459 H 0.44559 0.24923 0.65173 0.0
H1460 H 0.45008 0.25872 0.84226 0.0
H1461 H 0.45181 0.27792 0.81906 0.0
H1462 H 0.46109 0.24147 0.7258 0.0
H1463 H 0.41082 0.22851 0.81601 0.0
H1464 H 0.42044 0.24167 0.76977 0.0
H1465 H 0.42521 0.24222 0.84812 0.0
C1466 C 0.44853 0.26669 0.67466 0.0
C1467 C 0.44976 0.27475 0.72147 0.0
C1468 C 0.44737 0.25564 0.68824 0.0
C1469 C 0.44746 0.25252 0.74874 0.0
C1470 C 0.44987 0.26097 0.7953 0.0
H1471 H 0.41446 0.18027 0.89501 0.0
H1472 H 0.42654 0.20242 0.88587 0.0
C1473 C 0.45096 0.27198 0.78184 0.0
C1474 C 0.44324 0.23988 0.7632 0.0
H1475 H 0.41684 0.2138 0.81959 0.0
C1476 C 0.45147 0.23541 0.74671 0.0
C1477 C 0.43066 0.23205 0.79024 0.0
C1478 C 0.42118 0.23627 0.80673 0.0
C1479 C 0.44741 0.22322 0.75665 0.0
C1480 C 0.43469 0.21533 0.7826 0.0
C1481 C 0.42661 0.2199 0.80003 0.0
C1482 C 0.42908 0.20213 0.78913 0.0
C1483 C 0.45675 0.21891 0.7395 0.0
C1484 C 0.42656 0.19464 0.73776 0.0
C1485 C 0.41976 0.18199 0.74289 0.0
C1486 C 0.41521 0.17658 0.7994 0.0
C1487 C 0.41797 0.18414 0.85096 0.0
C1488 C 0.42483 0.19679 0.84582 0.0
H1489 H 0.46746 0.22664 0.73843 0.0
H1490 H 0.45608 0.21206 0.77159 0.0
H1491 H 0.4538 0.21459 0.6935 0.0
H1492 H 0.42946 0.19855 0.69337 0.0
H1493 H 0.41792 0.17643 0.70244 0.0
H1494 H 0.92893 0.27404 0.6459 0.0
H1495 H 0.91294 0.25221 0.65953 0.0
H1496 H 0.93694 0.25299 0.81289 0.0
H1497 H 0.95278 0.27489 0.80065 0.0
H1498 H 0.91898 0.23372 0.65655 0.0
H1499 H 0.89825 0.23604 0.87757 0.0
H1500 H 0.9075 0.24916 0.83051 0.0
H1501 H 0.91644 0.24411 0.87658 0.0
C1502 C 0.93069 0.2696 0.68308 0.0
C1503 C 0.94209 0.27619 0.72233 0.0
C1504 C 0.9216 0.25713 0.69056 0.0
C1505 C 0.92369 0.25106 0.73765 0.0
C1506 C 0.93504 0.25758 0.77688 0.0
H1507 H 0.88586 0.17672 0.85231 0.0
H1508 H 0.90008 0.19878 0.83929 0.0
C1509 C 0.94416 0.27005 0.7694 0.0
C1510 C 0.91427 0.23778 0.74422 0.0
H1511 H 0.89252 0.21636 0.84193 0.0
C1512 C 0.9131 0.22991 0.69683 0.0
C1513 C 0.90667 0.23289 0.79692 0.0
C1514 C 0.90715 0.24098 0.84814 0.0
C1515 C 0.90477 0.2172 0.70137 0.0
C1516 C 0.89725 0.2123 0.75428 0.0
C1517 C 0.89832 0.22018 0.80146 0.0
C1518 C 0.88846 0.19899 0.76216 0.0
C1519 C 0.90437 0.20911 0.65031 0.0
C1520 C 0.87712 0.19186 0.72353 0.0
C1521 C 0.86903 0.17924 0.73058 0.0
C1522 C 0.87212 0.17357 0.77659 0.0
C1523 C 0.88335 0.1808 0.81585 0.0
C1524 C 0.89142 0.1934 0.80877 0.0
H1525 H 0.91302 0.21416 0.61967 0.0
H1526 H 0.90457 0.2012 0.66822 0.0
H1527 H 0.89484 0.20555 0.62306 0.0
H1528 H 0.87456 0.19605 0.68785 0.0
H1529 H 0.8605 0.17392 0.69939 0.0
H1530 H 0.85096 0.6978 0.79247 0.0
H1531 H 0.86657 0.69039 0.79313 0.0
H1532 H 0.89483 0.72124 0.68912 0.0
H1533 H 0.87928 0.72861 0.6875 0.0
H1534 H 0.87999 0.68547 0.69267 0.0
H1535 H 0.91551 0.72326 0.85112 0.0
H1536 H 0.89801 0.71877 0.83969 0.0
H1537 H 0.91039 0.72801 0.78508 0.0
C1538 C 0.86038 0.70287 0.76874 0.0
C1539 C 0.86398 0.71387 0.74061 0.0
C1540 C 0.86929 0.69865 0.76941 0.0
C1541 C 0.88191 0.7054 0.74211 0.0
C1542 C 0.88522 0.71603 0.71136 0.0
H1543 H 0.95538 0.7073 0.69555 0.0
H1544 H 0.93622 0.71011 0.69877 0.0
C1545 C 0.87634 0.72024 0.71063 0.0
C1546 C 0.89199 0.70176 0.74794 0.0
H1547 H 0.92377 0.71178 0.80493 0.0
C1548 C 0.88951 0.69111 0.71774 0.0
C1549 C 0.90432 0.70913 0.78109 0.0
C1550 C 0.90722 0.72038 0.8166 0.0
C1551 C 0.89939 0.68795 0.71741 0.0
C1552 C 0.91192 0.69558 0.74881 0.0
C1553 C 0.91417 0.70599 0.7807 0.0
C1554 C 0.92323 0.69344 0.74609 0.0
C1555 C 0.89662 0.6768 0.68148 0.0
C1556 C 0.92228 0.68314 0.77196 0.0
C1557 C 0.9333 0.68154 0.77058 0.0
C1558 C 0.94545 0.69026 0.74365 0.0
C1559 C 0.94628 0.70052 0.71763 0.0
C1560 C 0.9353 0.70211 0.71903 0.0
H1561 H 0.88746 0.67313 0.65126 0.0
H1562 H 0.90544 0.67895 0.65354 0.0
H1563 H 0.89497 0.66955 0.71314 0.0
H1564 H 0.91312 0.67646 0.79397 0.0
H1565 H 0.93239 0.6736 0.79155 0.0
H1566 H 0.17992 0.43727 0.32872 0.0
H1567 H 0.17779 0.45439 0.29708 0.0
H1568 H 0.14491 0.44308 0.41979 0.0
H1569 H 0.14737 0.42658 0.45312 0.0
H1570 H 0.15787 0.45285 0.23877 0.0
H1571 H 0.16248 0.47845 0.44625 0.0
H1572 H 0.16805 0.46775 0.44424 0.0
H1573 H 0.15073 0.46274 0.4616 0.0
C1574 C 0.17252 0.43869 0.3501 0.0
C1575 C 0.16377 0.43051 0.3932 0.0
C1576 C 0.17131 0.44847 0.332 0.0
C1577 C 0.16136 0.45023 0.35682 0.0
C1578 C 0.15301 0.44229 0.40139 0.0
H1579 H 0.1006 0.45421 0.19779 0.0
H1580 H 0.11936 0.45201 0.22782 0.0
C1581 C 0.15429 0.43267 0.41981 0.0
C1582 C 0.15804 0.45893 0.3305 0.0
H1583 H 0.14432 0.47561 0.37222 0.0
C1584 C 0.15534 0.45817 0.26783 0.0
C1585 C 0.15517 0.46632 0.3674 0.0
C1586 C 0.15945 0.46896 0.43347 0.0
C1587 C 0.1483 0.46325 0.2426 0.0
C1588 C 0.14338 0.4688 0.28137 0.0
C1589 C 0.14762 0.47096 0.34261 0.0
C1590 C 0.13233 0.47066 0.26139 0.0
C1591 C 0.14569 0.46211 0.17495 0.0
C1592 C 0.13302 0.48173 0.27292 0.0
C1593 C 0.12204 0.48294 0.25696 0.0
C1594 C 0.11024 0.4731 0.22917 0.0
C1595 C 0.10959 0.46204 0.21831 0.0
C1596 C 0.12042 0.46081 0.23484 0.0
H1597 H 0.15442 0.46284 0.15095 0.0
H1598 H 0.13667 0.45297 0.16328 0.0
H1599 H 0.1439 0.46923 0.15811 0.0
H1600 H 0.14202 0.4894 0.29427 0.0
H1601 H 0.12283 0.49157 0.26591 0.0
H1602 H 0.70922 0.76956 0.4016 0.0
H1603 H 0.69575 0.75276 0.32887 0.0
H1604 H 0.69704 0.77808 0.19953 0.0
H1605 H 0.71052 0.79503 0.2721 0.0
H1606 H 0.66965 0.75107 0.21732 0.0
H1607 H 0.71854 0.75511 0.16539 0.0
H1608 H 0.71536 0.75589 0.24435 0.0
H1609 H 0.71761 0.76775 0.19512 0.0
C1610 C 0.70637 0.77155 0.3583 0.0
C1611 C 0.71104 0.78363 0.34238 0.0
C1612 C 0.69865 0.76194 0.31692 0.0
C1613 C 0.6955 0.76425 0.25904 0.0
C1614 C 0.69934 0.77617 0.24426 0.0
H1615 H 0.68045 0.70801 0.99355 0.0
H1616 H 0.68591 0.72814 0.03012 0.0
C1617 C 0.70703 0.78582 0.28581 0.0
C1618 C 0.68982 0.75442 0.21222 0.0
H1619 H 0.69847 0.73707 0.13103 0.0
C1620 C 0.67592 0.74807 0.19745 0.0
C1621 C 0.69814 0.75079 0.18547 0.0
C1622 C 0.71327 0.75776 0.19781 0.0
C1623 C 0.66995 0.73765 0.15891 0.0
C1624 C 0.67809 0.73338 0.13626 0.0
C1625 C 0.69216 0.74025 0.1484 0.0
C1626 C 0.67231 0.72126 0.10537 0.0
C1627 C 0.65499 0.73131 0.14347 0.0
C1628 C 0.66243 0.71065 0.13386 0.0
C1629 C 0.65909 0.69914 0.11217 0.0
C1630 C 0.66584 0.69807 0.06264 0.0
C1631 C 0.67513 0.70861 0.03198 0.0
C1632 C 0.67826 0.7201 0.05288 0.0
H1633 H 0.65166 0.73796 0.14245 0.0
H1634 H 0.6524 0.72638 0.09895 0.0
H1635 H 0.6492 0.72465 0.17899 0.0
H1636 H 0.65797 0.71125 0.17537 0.0
H1637 H 0.652 0.69117 0.13707 0.0
H1638 H 0.46252 0.02739 0.1443 0.0
H1639 H 0.43965 0.01054 0.1665 0.0
H1640 H 0.439 0.03083 0.32169 0.0
H1641 H 0.46184 0.04765 0.30036 0.0
H1642 H 0.42631 0.00453 0.33753 0.0
H1643 H 0.40839 0.01664 0.12953 0.0
H1644 H 0.42141 0.01318 0.12155 0.0
H1645 H 0.42508 0.0267 0.16294 0.0
C1646 C 0.45765 0.02815 0.18403 0.0
C1647 C 0.46391 0.03894 0.22007 0.0
C1648 C 0.44456 0.01853 0.19642 0.0
C1649 C 0.43758 0.01956 0.24504 0.0
C1650 C 0.44422 0.0299 0.28377 0.0
H1651 H 0.36497 -0.00099 0.4041 0.0
H1652 H 0.38766 0.00447 0.37766 0.0
C1653 C 0.45726 0.03952 0.2714 0.0
C1654 C 0.42296 0.01062 0.25241 0.0
H1655 H 0.39189 0.00284 0.19444 0.0
C1656 C 0.41875 0.00395 0.30573 0.0
C1657 C 0.41314 0.00984 0.21057 0.0
C1658 C 0.41714 0.01699 0.153 0.0
C1659 C 0.40498 0.99698 0.31977 0.0
C1660 C 0.39524 0.99692 0.28005 0.0
C1661 C 0.39937 0.00291 0.22481 0.0
C1662 C 0.38119 0.99237 0.29873 0.0
C1663 C 0.40103 0.99005 0.37791 0.0
C1664 C 0.36995 0.98387 0.26254 0.0
C1665 C 0.35683 0.98078 0.27737 0.0
C1666 C 0.35482 0.98629 0.32809 0.0
C1667 C 0.36611 0.99462 0.36463 0.0
C1668 C 0.37913 -0.00236 0.35 0.0
H1669 H 0.40828 0.98725 0.39072 0.0
H1670 H 0.40129 0.99606 0.41503 0.0
H1671 H 0.39065 0.98179 0.37411 0.0
H1672 H 0.37135 0.97982 0.22227 0.0
H1673 H 0.34835 0.97437 0.24821 0.0
H1674 H 0.50264 0.11116 0.09316 0.0
H1675 H 0.49444 0.12301 0.04299 0.0
H1676 H 0.45887 0.10589 0.15217 0.0
H1677 H 0.46705 0.09423 0.20279 0.0
H1678 H 0.47106 0.1113 0.97576 0.0
H1679 H 0.46714 0.14046 0.14879 0.0
H1680 H 0.47755 0.13403 0.16041 0.0
H1681 H 0.45962 0.12509 0.17384 0.0
C1682 C 0.49331 0.11026 0.10789 0.0
C1683 C 0.48543 0.10173 0.1516 0.0
C1684 C 0.48863 0.11701 0.07912 0.0
C1685 C 0.47611 0.11541 0.09422 0.0
C1686 C 0.4687 0.10749 0.14069 0.0
H1687 H 0.40872 0.11512 0.94672 0.0
H1688 H 0.42618 0.11438 0.00646 0.0
C1689 C 0.47334 0.10073 0.16926 0.0
C1690 C 0.46963 0.12032 0.05545 0.0
H1691 H 0.45147 0.13419 0.06189 0.0
C1692 C 0.46708 0.11659 0.99413 0.0
C1693 C 0.46439 0.12716 0.07963 0.0
C1694 C 0.46744 0.13202 0.14417 0.0
C1695 C 0.45865 0.11878 0.9574 0.0
C1696 C 0.4528 0.12502 0.98258 0.0
C1697 C 0.45592 0.12933 0.04295 0.0
C1698 C 0.44257 0.12626 0.94823 0.0
C1699 C 0.45542 0.11377 0.89303 0.0
C1700 C 0.44608 0.13333 0.89625 0.0
C1701 C 0.43612 0.13373 0.86183 0.0
C1702 C 0.42249 0.12709 0.87897 0.0
C1703 C 0.41909 0.12026 0.93199 0.0
C1704 C 0.42906 0.11988 0.96637 0.0
H1705 H 0.45898 0.10744 0.88381 0.0
H1706 H 0.44432 0.10885 0.88326 0.0
H1707 H 0.46045 0.12144 0.86132 0.0
H1708 H 0.4565 0.13842 0.882 0.0
H1709 H 0.43909 0.13915 0.82148 0.0
H1710 H 0.04915 0.42437 0.08271 0.0
H1711 H 0.03178 0.40792 0.01753 0.0
H1712 H 0.01208 0.42816 0.99278 0.0
H1713 H 0.02985 0.44494 0.05613 0.0
H1714 H 0.00494 0.39306 0.01631 0.0
H1715 H 0.0198 0.42399 0.82074 0.0
H1716 H 0.02938 0.42857 0.89144 0.0
H1717 H 0.01377 0.42832 0.88464 0.0
C1718 C 0.04101 0.42525 0.06418 0.0
C1719 C 0.04093 0.43599 0.0738 0.0
C1720 C 0.03108 0.41584 0.02689 0.0
C1721 C 0.02081 0.41694 0.99905 0.0
C1722 C 0.02013 0.42727 0.01233 0.0
H1723 H 0.96603 0.35101 0.77587 0.0
H1724 H 0.97189 0.36829 0.84458 0.0
C1725 C 0.03021 0.4368 0.04891 0.0
C1726 C 0.01154 0.40758 0.9532 0.0
H1727 H 0.00359 0.40332 0.80162 0.0
C1728 C 0.00447 0.39528 0.96948 0.0
C1729 C 0.01104 0.41055 0.89203 0.0
C1730 C 0.01897 0.42355 0.87083 0.0
C1731 C -0.0024 0.38583 0.92583 0.0
C1732 C -0.00266 0.38879 0.86443 0.0
C1733 C 0.00371 0.4011 0.84877 0.0
C1734 C 0.99254 0.37942 0.81497 0.0
C1735 C 0.99158 0.37281 0.94536 0.0
C1736 C 0.00184 0.38037 0.77225 0.0
C1737 C -0.00156 0.37068 0.73218 0.0
C1738 C 0.9857 0.3598 0.73445 0.0
C1739 C 0.97597 0.35925 0.77348 0.0
C1740 C 0.97934 0.36906 0.81319 0.0
H1741 H 0.99496 0.37231 0.99207 0.0
H1742 H 0.98036 0.3681 0.94448 0.0
H1743 H 0.99443 0.36776 0.91412 0.0
H1744 H 0.01206 0.38832 0.77241 0.0
H1745 H 0.00614 0.37142 0.70241 0.0
H1746 H 0.80403 0.69069 0.90413 0.0
H1747 H 0.78057 0.67409 0.92236 0.0
H1748 H 0.76569 0.69522 0.84126 0.0
H1749 H 0.78865 0.71153 0.82268 0.0
H1750 H 0.76142 0.67439 0.99025 0.0
H1751 H 0.74179 0.66274 0.75513 0.0
H1752 H 0.75976 0.67136 0.77369 0.0
H1753 H 0.7505 0.67897 0.76628 0.0
C1754 C 0.79571 0.69172 0.88989 0.0
C1755 C 0.79823 0.70239 0.86135 0.0
C1756 C 0.78234 0.68222 0.90004 0.0
C1757 C 0.77136 0.68325 0.88133 0.0
C1758 C 0.77394 0.69399 0.85392 0.0
H1759 H 0.70379 0.67537 0.01533 0.0
H1760 H 0.72515 0.67715 0.99532 0.0
C1761 C 0.78716 0.70339 0.8438 0.0
C1762 C 0.75713 0.6738 0.89447 0.0
H1763 H 0.72542 0.66113 0.83045 0.0
C1764 C 0.75354 0.67112 0.95513 0.0
C1765 C 0.74678 0.66915 0.84871 0.0
C1766 C 0.74995 0.6706 0.78228 0.0
C1767 C 0.73992 0.66529 0.97167 0.0
C1768 C 0.72977 0.66239 0.92654 0.0
C1769 C 0.73321 0.66363 0.86535 0.0
C1770 C 0.71634 0.66032 0.9421 0.0
C1771 C 0.73666 0.66292 0.03775 0.0
C1772 C 0.70417 0.65046 0.91703 0.0
C1773 C 0.69175 0.64946 0.92798 0.0
C1774 C 0.69137 0.65838 0.96377 0.0
C1775 C 0.7036 0.66821 0.98845 0.0
C1776 C 0.71589 0.66919 0.9775 0.0
H1777 H 0.74359 0.66064 0.06089 0.0
H1778 H 0.73818 0.67131 0.06024 0.0
H1779 H 0.72602 0.65534 0.04382 0.0
H1780 H 0.70431 0.64362 0.8886 0.0
H1781 H 0.68252 0.6418 0.90812 0.0
H1782 H 0.07679 0.62933 0.89009 0.0
H1783 H 0.05524 0.62604 0.84951 0.0
H1784 H 0.0659 0.66135 0.92191 0.0
H1785 H 0.08697 0.66446 0.96419 0.0
H1786 H 0.03991 0.64468 0.94074 0.0
H1787 H 0.05156 0.64161 0.69989 0.0
H1788 H 0.0509 0.6304 0.74955 0.0
H1789 H 0.0641 0.64618 0.76026 0.0
C1790 C 0.07447 0.63635 0.89743 0.0
C1791 C 0.08362 0.64718 0.93005 0.0
C1792 C 0.06219 0.63448 0.874 0.0
C1793 C 0.05902 0.64352 0.88191 0.0
C1794 C 0.06807 0.65422 0.91534 0.0
H1795 H 0.02671 0.67635 0.69475 0.0
H1796 H 0.03707 0.66541 0.73137 0.0
C1797 C 0.08018 0.656 0.93935 0.0
C1798 C 0.04661 0.64235 0.85427 0.0
H1799 H 0.03277 0.64313 0.71804 0.0
C1800 C 0.03816 0.64412 0.89205 0.0
C1801 C 0.04432 0.64152 0.79073 0.0
C1802 C 0.05322 0.6399 0.74752 0.0
C1803 C 0.02835 0.64627 0.86808 0.0
C1804 C 0.0266 0.64617 0.8044 0.0
C1805 C 0.03415 0.64321 0.76681 0.0
C1806 C 0.0192 0.65148 0.77609 0.0
C1807 C 0.02083 0.64967 0.91115 0.0
C1808 C 0.00551 0.6471 0.78731 0.0
C1809 C -0.00045 0.65353 0.76705 0.0
C1810 C 0.00718 0.6643 0.73456 0.0
C1811 C 0.02056 0.66814 0.72005 0.0
C1812 C 0.02651 0.66184 0.74076 0.0
H1813 H 0.02498 0.65118 0.95838 0.0
H1814 H 0.02135 0.65812 0.89662 0.0
H1815 H 0.01001 0.6422 0.91129 0.0
H1816 H -0.00044 0.63895 0.81321 0.0
H1817 H 0.98917 0.65031 0.77845 0.0
H1818 H 0.50741 0.43819 0.029 0.0
H1819 H 0.50108 0.41977 0.96876 0.0
H1820 H 0.46182 0.4009 0.04985 0.0
H1821 H 0.46809 0.41919 0.11067 0.0
H1822 H 0.47357 0.38658 0.03588 0.0
H1823 H 0.47381 0.40953 0.82391 0.0
H1824 H 0.48934 0.41728 0.86849 0.0
H1825 H 0.47423 0.41573 0.89822 0.0
C1826 C 0.49752 0.43005 0.03483 0.0
C1827 C 0.4882 0.43016 0.07417 0.0
C1828 C 0.49389 0.41958 1.00007 0.0
C1829 C 0.48089 0.40909 1.00405 0.0
C1830 C 0.47187 0.40895 0.04589 0.0
H1831 H 0.43478 0.34847 0.75032 0.0
H1832 H 0.4439 0.36699 0.81442 0.0
C1833 C 0.47548 0.4194 0.08061 0.0
C1834 C 0.47638 0.39847 0.96255 0.0
H1835 H 0.4693 0.38944 0.81349 0.0
C1836 C 0.47269 0.38719 0.98724 0.0
C1837 C 0.475 0.3993 0.89927 0.0
C1838 C 0.47818 0.41107 0.87072 0.0
C1839 C 0.46775 0.37669 0.95014 0.0
C1840 C 0.46668 0.37759 0.88673 0.0
C1841 C 0.47026 0.38884 0.8621 0.0
C1842 C 0.46162 0.36686 0.84536 0.0
C1843 C 0.46343 0.36468 0.9792 0.0
C1844 C 0.46878 0.36092 0.84035 0.0
C1845 C 0.46361 0.3504 0.80391 0.0
C1846 C 0.45123 0.34568 0.77165 0.0
C1847 C 0.44432 0.3519 0.77484 0.0
C1848 C 0.44951 0.36245 0.81139 0.0
H1849 H 0.46183 0.36497 0.02851 0.0
H1850 H 0.45391 0.35713 0.9574 0.0
H1851 H 0.47145 0.36256 0.97347 0.0
H1852 H 0.47828 0.36434 0.86532 0.0
H1853 H 0.46917 0.3458 0.8021 0.0
H1854 H 0.79752 0.11076 0.829 0.0
H1855 H 0.77536 0.10613 0.85977 0.0
H1856 H 0.79379 0.13135 0.01217 0.0
H1857 H 0.81628 0.13601 0.98168 0.0
H1858 H 0.77276 0.10844 0.04302 0.0
H1859 H 0.75621 0.12487 0.85068 0.0
H1860 H 0.76251 0.11559 0.82491 0.0
H1861 H 0.77378 0.12982 0.86498 0.0
C1862 C 0.79695 0.11546 0.8687 0.0
C1863 C 0.80868 0.12374 0.90297 0.0
C1864 C 0.78425 0.1129 0.88585 0.0
C1865 C 0.78294 0.11858 0.93751 0.0
C1866 C 0.79462 0.12699 0.97162 0.0
H1867 H 0.70318 0.08698 0.10464 0.0
H1868 H 0.72637 0.10288 0.08034 0.0
C1869 C 0.80743 0.12963 0.95419 0.0
C1870 C 0.76919 0.11457 0.95857 0.0
H1871 H 0.73819 0.10818 0.9065 0.0
C1872 C 0.76526 0.10868 0.01411 0.0
C1873 C 0.75945 0.11492 0.9207 0.0
C1874 C 0.76325 0.12176 0.86228 0.0
C1875 C 0.75161 0.10223 0.03044 0.0
C1876 C 0.74173 0.10185 0.99046 0.0
C1877 C 0.74579 0.10844 0.93686 0.0
C1878 C 0.72707 0.09345 1.0001 0.0
C1879 C 0.74775 0.09514 0.0882 0.0
C1880 C 0.7196 0.08321 0.96129 0.0
C1881 C 0.70636 0.07414 0.97482 0.0
C1882 C 0.70035 0.07517 0.02744 0.0
C1883 C 0.70754 0.08586 0.06395 0.0
C1884 C 0.72081 0.09494 0.05036 0.0
H1885 H 0.75641 0.09502 0.10966 0.0
H1886 H 0.7442 0.09937 0.12103 0.0
H1887 H 0.73932 0.08557 0.07913 0.0
H1888 H 0.72425 0.08194 0.92211 0.0
H1889 H 0.70108 0.06607 0.94548 0.0
H1890 H 0.70867 0.9503 0.27767 0.0
H1891 H 0.69154 0.95262 0.22363 0.0
H1892 H 0.70869 0.98854 0.30559 0.0
H1893 H 0.72534 0.98613 0.36104 0.0
H1894 H 0.68161 0.97649 0.30176 0.0
H1895 H 0.70027 0.97319 0.07592 0.0
H1896 H 0.69398 0.96011 0.12295 0.0
H1897 H 0.70922 0.97419 0.14542 0.0
C1898 C 0.70866 0.95863 0.28457 0.0
C1899 C 0.71844 0.96808 0.32322 0.0
C1900 C 0.69893 0.95997 0.2534 0.0
C1901 C 0.69899 0.97085 0.25966 0.0
C1902 C 0.70843 0.98006 0.29998 0.0
H1903 H 0.69136 0.01896 0.05422 0.0
H1904 H 0.69488 0.00347 0.09582 0.0
C1905 C 0.71799 0.97867 0.3316 0.0
C1906 C 0.68988 0.97322 0.22259 0.0
H1907 H 0.68504 0.97977 0.07854 0.0
C1908 C 0.68212 0.977 0.25279 0.0
C1909 C 0.69056 0.97382 0.15867 0.0
C1910 C 0.69901 0.9702 0.12361 0.0
C1911 C 0.67608 0.98243 0.22168 0.0
C1912 C 0.67739 0.98365 0.15809 0.0
C1913 C 0.68407 0.97882 0.12725 0.0
C1914 C 0.67423 0.99182 0.12486 0.0
C1915 C 0.66942 0.98775 0.25804 0.0
C1916 C 0.66129 0.99024 0.12515 0.0
C1917 C 0.65931 -0.00072 0.10225 0.0
C1918 C 0.67017 0.00988 0.07761 0.0
C1919 C 0.68279 0.01094 0.07313 0.0
C1920 C 0.68481 0.00204 0.09678 0.0
H1921 H 0.67139 0.98786 0.30755 0.0
H1922 H 0.67311 0.99725 0.24448 0.0
H1923 H 0.65828 0.98218 0.24957 0.0
H1924 H 0.65288 0.98227 0.14507 0.0
H1925 H 0.64942 -0.00183 0.10568 0.0
H1926 H 0.15958 0.69087 0.14084 0.0
H1927 H 0.17215 0.70967 0.20299 0.0
H1928 H 0.15109 0.72433 0.10963 0.0
H1929 H 0.13859 0.70566 0.04711 0.0
H1930 H 0.17979 0.74184 0.13907 0.0
H1931 H 0.14999 0.7144 0.33476 0.0
H1932 H 0.15973 0.70952 0.29458 0.0
H1933 H 0.14532 0.70861 0.2577 0.0
C1934 C 0.15788 0.69822 0.13254 0.0
C1935 C 0.148 0.69675 0.08958 0.0
C1936 C 0.16502 0.70892 0.16825 0.0
C1937 C 0.16237 0.71827 0.1614 0.0
C1938 C 0.15324 0.71718 0.11559 0.0
H1939 H 0.16085 0.77669 0.30216 0.0
H1940 H 0.16413 0.76256 0.24253 0.0
C1941 C 0.14609 0.7065 0.08001 0.0
C1942 C 0.16782 0.7286 0.20562 0.0
H1943 H 0.16232 0.73562 0.34736 0.0
C1944 C 0.17623 0.74051 0.18508 0.0
C1945 C 0.16323 0.7268 0.26574 0.0
C1946 C 0.15402 0.71418 0.2898 0.0
C1947 C 0.17954 0.75069 0.22208 0.0
C1948 C 0.17405 0.74887 0.28045 0.0
C1949 C 0.1665 0.73699 0.30255 0.0
C1950 C 0.17407 0.75878 0.31517 0.0
C1951 C 0.18851 0.76329 0.1975 0.0
C1952 C 0.17847 0.76132 0.37625 0.0
C1953 C 0.17646 0.76938 0.41096 0.0
C1954 C 0.16985 0.77485 0.38521 0.0
C1955 C 0.1659 0.77258 0.32355 0.0
C1956 C 0.16794 0.76461 0.28904 0.0
H1957 H 0.19582 0.76343 0.16519 0.0
H1958 H 0.18213 0.76595 0.17246 0.0
H1959 H 0.19425 0.77017 0.23439 0.0
H1960 H 0.18307 0.75679 0.39745 0.0
H1961 H 0.17959 0.77093 0.45839 0.0
H1962 H 0.48015 0.49138 0.25016 0.0
H1963 H 0.45904 0.49003 0.2793 0.0
H1964 H 0.43653 0.45154 0.23211 0.0
H1965 H 0.45718 0.45293 0.20104 0.0
H1966 H 0.42361 0.46224 0.19101 0.0
H1967 H 0.43938 0.47595 0.43334 0.0
H1968 H 0.44931 0.4867 0.37659 0.0
H1969 H 0.44931 0.47282 0.38309 0.0
C1970 C 0.47066 0.48266 0.24612 0.0
C1971 C 0.47032 0.47226 0.22344 0.0
C1972 C 0.45862 0.4819 0.26287 0.0
C1973 C 0.44618 0.47066 0.25829 0.0
C1974 C 0.44595 0.46034 0.23555 0.0
H1975 H 0.38259 0.42525 0.44314 0.0
H1976 H 0.40337 0.44192 0.40451 0.0
C1977 C 0.45782 0.46114 0.21803 0.0
C1978 C 0.43325 0.46908 0.2788 0.0
H1979 H 0.41635 0.46604 0.4085 0.0
C1980 C 0.42199 0.46331 0.23835 0.0
C1981 C 0.43125 0.47072 0.34033 0.0
C1982 C 0.44289 0.47683 0.38614 0.0
C1983 C 0.4087 0.45762 0.25906 0.0
C1984 C 0.40666 0.45822 0.32173 0.0
C1985 C 0.41795 0.46548 0.36062 0.0
C1986 C 0.39368 0.44917 0.34966 0.0
C1987 C 0.39707 0.44998 0.21464 0.0
C1988 C 0.38117 0.44773 0.33279 0.0
C1989 C 0.36902 0.43787 0.35417 0.0
C1990 C 0.36929 0.42951 0.39356 0.0
C1991 C 0.38191 0.43146 0.4128 0.0
C1992 C 0.3939 0.44109 0.39091 0.0
H1993 H 0.4006 0.44939 0.169 0.0
H1994 H 0.39054 0.44056 0.23125 0.0
H1995 H 0.39077 0.45407 0.20974 0.0
H1996 H 0.38075 0.454 0.30209 0.0
H1997 H 0.35946 0.43668 0.339 0.0
H1998 H 0.78402 0.81587 0.56686 0.0
H1999 H 0.80093 0.81164 0.60504 0.0
H2000 H 0.79078 0.78579 0.45695 0.0
H2001 H 0.77338 0.7896 0.42023 0.0
H2002 H 0.78843 0.77545 0.55863 0.0
H2003 H 0.83796 0.81894 0.56918 0.0
H2004 H 0.82539 0.82055 0.60648 0.0
H2005 H 0.8236 0.81712 0.52621 0.0
C2006 C 0.78566 0.80953 0.54154 0.0
C2007 C 0.77733 0.80297 0.49093 0.0
C2008 C 0.79543 0.8072 0.56311 0.0
C2009 C 0.79727 0.79849 0.53356 0.0
C2010 C 0.78957 0.79256 0.48047 0.0
H2011 H 0.84483 0.76834 0.66589 0.0
H2012 H 0.83906 0.78129 0.609 0.0
C2013 C 0.77962 0.79472 0.45957 0.0
C2014 C 0.8054 0.79407 0.5634 0.0
H2015 H 0.83553 0.80328 0.63767 0.0
C2016 C 0.79882 0.78154 0.57472 0.0
C2017 C 0.81898 0.80198 0.58446 0.0
C2018 C 0.82692 0.81537 0.57034 0.0
C2019 C 0.8052 0.77678 0.60847 0.0
C2020 C 0.8184 0.78479 0.63301 0.0
C2021 C 0.82529 0.79723 0.61966 0.0
C2022 C 0.82475 0.78016 0.67402 0.0
C2023 C 0.79764 0.76321 0.61871 0.0
C2024 C 0.81914 0.77584 0.73072 0.0
C2025 C 0.82229 0.76838 0.76286 0.0
C2026 C 0.83122 0.76526 0.739 0.0
C2027 C 0.83796 0.77067 0.6854 0.0
C2028 C 0.83467 0.77805 0.65284 0.0
H2029 H 0.78899 0.75805 0.58582 0.0
H2030 H 0.80451 0.75968 0.61497 0.0
H2031 H 0.79355 0.76139 0.66502 0.0
H2032 H 0.8115 0.77744 0.74775 0.0
H2033 H 0.81702 0.76438 0.80424 0.0
H2034 H 0.30561 0.00715 0.51451 0.0
H2035 H 0.30724 0.02528 0.55799 0.0
H2036 H 0.33208 0.04655 0.41048 0.0
H2037 H 0.33119 0.02843 0.369 0.0
H2038 H 0.34449 0.05681 0.50688 0.0
H2039 H 0.29287 0.04655 0.5421 0.0
H2040 H 0.29406 0.03447 0.57413 0.0
H2041 H 0.29602 0.03699 0.49363 0.0
C2042 C 0.31106 0.01561 0.49028 0.0
C2043 C 0.31834 0.01644 0.43862 0.0
C2044 C 0.31188 0.026 0.51491 0.0
C2045 C 0.31962 0.03734 0.48725 0.0
C2046 C 0.32602 0.03793 0.43273 0.0
H2047 H 0.34939 0.10688 0.68607 0.0
H2048 H 0.33601 0.09106 0.60841 0.0
C2049 C 0.32551 0.02759 0.40898 0.0
C2050 C 0.32308 0.04871 0.52107 0.0
H2051 H 0.31013 0.06033 0.62009 0.0
C2052 C 0.33689 0.05773 0.52986 0.0
C2053 C 0.31325 0.05009 0.55111 0.0
C2054 C 0.29823 0.04154 0.53903 0.0
C2055 C 0.34115 0.06746 0.57128 0.0
C2056 C 0.33139 0.06804 0.60586 0.0
C2057 C 0.31756 0.05964 0.59423 0.0
C2058 C 0.33576 0.07662 0.65813 0.0
C2059 C 0.35613 0.07671 0.58054 0.0
C2060 C 0.33945 0.07353 0.71265 0.0
C2061 C 0.34718 0.08253 0.75683 0.0
C2062 C 0.35125 0.09472 0.74703 0.0
C2063 C 0.34633 0.09754 0.69505 0.0
C2064 C 0.33869 0.08853 0.65057 0.0
H2065 H 0.36228 0.0758 0.54528 0.0
H2066 H 0.35811 0.08613 0.57982 0.0
H2067 H 0.3596 0.07549 0.62559 0.0
H2068 H 0.33731 0.06436 0.71887 0.0
H2069 H 0.35082 0.08011 0.79644 0.0
H2070 H 0.11863 0.35383 0.49227 0.0
H2071 H 0.09517 0.33671 0.50172 0.0
H2072 H 0.08066 0.35888 0.4299 0.0
H2073 H 0.10383 0.37567 0.41832 0.0
H2074 H 0.07775 0.33615 0.57341 0.0
H2075 H 0.05429 0.32766 0.34624 0.0
H2076 H 0.07249 0.33644 0.35804 0.0
H2077 H 0.06283 0.34374 0.36182 0.0
C2078 C 0.1104 0.3549 0.47706 0.0
C2079 C 0.11306 0.36609 0.4547 0.0
C2080 C 0.09701 0.34511 0.4824 0.0
C2081 C 0.08609 0.34638 0.46544 0.0
C2082 C 0.08883 0.35746 0.4413 0.0
H2083 H 0.02138 0.33695 0.64142 0.0
H2084 H 0.0422 0.33921 0.60647 0.0
C2085 C 0.10214 0.36715 0.43543 0.0
C2086 C 0.07196 0.33705 0.4811 0.0
H2087 H 0.03937 0.32562 0.43101 0.0
C2088 C 0.06936 0.33351 0.54166 0.0
C2089 C 0.06088 0.33318 0.43972 0.0
C2090 C 0.06282 0.33536 0.37272 0.0
C2091 C 0.05614 0.32755 0.5633 0.0
C2092 C 0.04534 0.32542 0.52381 0.0
C2093 C 0.0477 0.32757 0.4618 0.0
C2094 C 0.03234 0.32311 0.5475 0.0
C2095 C 0.05401 0.32419 0.62912 0.0
C2096 C 0.01976 0.31347 0.52466 0.0
C2097 C 0.00766 0.3122 0.5443 0.0
C2098 C 0.00801 0.32063 0.58657 0.0
C2099 C 0.02065 0.3302 0.6093 0.0
C2100 C 0.03263 0.33145 0.58975 0.0
H2101 H 0.06124 0.32159 0.64532 0.0
H2102 H 0.05597 0.33223 0.65683 0.0
H2103 H 0.04351 0.31651 0.63676 0.0
H2104 H 0.01931 0.30703 0.4913 0.0
H2105 H -0.00191 0.30476 0.52575 0.0
H2106 H 0.41115 0.33277 0.71747 0.0
H2107 H 0.39737 0.34148 0.69364 0.0
H2108 H 0.3779 0.31549 0.54461 0.0
H2109 H 0.39128 0.30648 0.56973 0.0
H2110 H 0.39767 0.35264 0.5964 0.0
H2111 H 0.34545 0.31305 0.61787 0.0
H2112 H 0.36012 0.31291 0.64506 0.0
H2113 H 0.35488 0.3097 0.56626 0.0
C2114 C 0.40384 0.32886 0.68 0.0
C2115 C 0.40229 0.31898 0.64537 0.0
C2116 C 0.39593 0.3338 0.66655 0.0
C2117 C 0.38642 0.32902 0.61791 0.0
C2118 C 0.38484 0.3191 0.58349 0.0
H2119 H 0.36315 0.37276 0.42192 0.0
H2120 H 0.37124 0.35948 0.4525 0.0
C2121 C 0.39259 0.31403 0.59755 0.0
C2122 C 0.37906 0.3351 0.59997 0.0
H2123 H 0.34775 0.32997 0.56243 0.0
C2124 C 0.38674 0.34768 0.58962 0.0
C2125 C 0.36477 0.32869 0.59184 0.0
C2126 C 0.35582 0.31537 0.6065 0.0
C2127 C 0.38061 0.35397 0.57007 0.0
C2128 C 0.36642 0.34742 0.55825 0.0
C2129 C 0.35865 0.33492 0.57026 0.0
C2130 C 0.3596 0.35355 0.53409 0.0
C2131 C 0.38941 0.36763 0.56315 0.0
C2132 C 0.34958 0.35386 0.56733 0.0
C2133 C 0.34468 0.36122 0.54902 0.0
C2134 C 0.34985 0.36842 0.49762 0.0
C2135 C 0.35913 0.3674 0.46211 0.0
C2136 C 0.36382 0.35989 0.47977 0.0
H2137 H 0.39896 0.37162 0.59089 0.0
H2138 H 0.3922 0.36963 0.51504 0.0
H2139 H 0.38399 0.37223 0.57666 0.0
H2140 H 0.3461 0.34895 0.60911 0.0
H2141 H 0.33756 0.3619 0.57726 0.0
H2142 H 0.85527 0.1028 0.69093 0.0
H2143 H 0.85011 0.08576 0.622 0.0
H2144 H 0.81889 0.06072 0.74028 0.0
H2145 H 0.82383 0.07768 0.80896 0.0
H2146 H 0.84516 0.05971 0.63389 0.0
H2147 H 0.80067 0.06325 0.57487 0.0
H2148 H 0.81562 0.07535 0.6143 0.0
H2149 H 0.80326 0.06225 0.65458 0.0
C2150 C 0.84767 0.09361 0.70346 0.0
C2151 C 0.83982 0.09155 0.75489 0.0
C2152 C 0.84473 0.0839 0.66397 0.0
C2153 C 0.83403 0.07207 0.67591 0.0
C2154 C 0.82715 0.06984 0.73036 0.0
H2155 H 0.79388 0.00041 0.53042 0.0
H2156 H 0.81103 0.01998 0.57636 0.0
C2157 C 0.82998 0.07953 0.7695 0.0
C2158 C 0.82845 0.06247 0.62779 0.0
H2159 H 0.80007 0.04561 0.53849 0.0
C2160 C 0.83538 0.05667 0.61228 0.0
C2161 C 0.81592 0.05884 0.59851 0.0
C2162 C 0.80846 0.0653 0.61083 0.0
C2163 C 0.82965 0.04677 0.57042 0.0
C2164 C 0.81657 0.0425 0.54476 0.0
C2165 C 0.81007 0.04881 0.55806 0.0
C2166 C 0.8087 0.03087 0.50902 0.0
C2167 C 0.83762 0.04098 0.55449 0.0
C2168 C 0.80174 0.03039 0.45526 0.0
C2169 C 0.79162 0.01917 0.42985 0.0
C2170 C 0.78845 0.00824 0.45731 0.0
C2171 C 0.79619 0.00869 0.50801 0.0
C2172 C 0.80612 0.01991 0.53409 0.0
H2173 H 0.8487 0.04782 0.55736 0.0
H2174 H 0.83548 0.03379 0.58746 0.0
H2175 H 0.83492 0.03677 0.50819 0.0
H2176 H 0.80354 0.03872 0.43509 0.0
H2177 H 0.78583 0.01907 0.39057 0.0
H2178 H 0.02832 0.72174 0.67723 0.0
H2179 H 0.04652 0.74067 0.6384 0.0
H2180 H 0.01825 0.74265 0.5169 0.0
H2181 H -0.00025 0.72317 0.55469 0.0
H2182 H 0.03901 0.74622 0.45719 0.0
H2183 H 0.0601 0.77579 0.66002 0.0
H2184 H 0.05844 0.76159 0.67818 0.0
H2185 H 0.04348 0.762 0.65909 0.0
C2186 C 0.02583 0.72623 0.64299 0.0
C2187 C 0.01255 0.72088 0.61895 0.0
C2188 C 0.03629 0.73722 0.62132 0.0
C2189 C 0.03376 0.74331 0.57576 0.0
C2190 C 0.02042 0.7382 0.55267 0.0
H2191 H 0.11641 0.80085 0.48884 0.0
H2192 H 0.09248 0.79315 0.50857 0.0
C2193 C 0.00987 0.72708 0.57426 0.0
C2194 C 0.04546 0.75399 0.54762 0.0
H2195 H 0.07724 0.77765 0.58684 0.0
C2196 C 0.04721 0.75335 0.48522 0.0
C2197 C 0.05606 0.76364 0.58319 0.0
C2198 C 0.0543 0.76585 0.64868 0.0
C2199 C 0.05981 0.7611 0.45933 0.0
C2200 C 0.07103 0.76934 0.49727 0.0
C2201 C 0.0688 0.77106 0.55785 0.0
C2202 C 0.08523 0.77461 0.47817 0.0
C2203 C 0.06109 0.75994 0.39208 0.0
C2204 C 0.08915 0.76678 0.45478 0.0
C2205 C 0.10268 0.77115 0.44305 0.0
C2206 C 0.11272 0.78342 0.45568 0.0
C2207 C 0.10887 0.79134 0.47861 0.0
C2208 C 0.09522 0.78696 0.48975 0.0
H2209 H 0.05171 0.758 0.36737 0.0
H2210 H 0.06986 0.76835 0.37402 0.0
H2211 H 0.06236 0.75212 0.38274 0.0
H2212 H 0.0818 0.75712 0.44773 0.0
H2213 H 0.10531 0.76478 0.42596 0.0
loop_
_geom_bond_atom_site_label_1
_geom_bond_atom_site_label_2
_geom_bond_distance
_geom_bond_site_symmetry_2
_ccdc_geom_bond_type
Co0 N4 2.148 1_554 S
Co0 N10 2.128 . S
Co0 N20 2.194 . S
Co0 O25 2.351 . S
Co0 O26 2.155 . S
Co0 O27 2.096 . S
C1 N4 1.301 . S
C1 N5 1.328 . S
C1 H6 0.930 . S
C2 C3 1.333 . S
C2 N4 1.317 . S
C2 H7 0.930 1_556 S
C3 C2 1.333 . S
C3 N5 1.350 . S
C3 H29 0.931 . S
N4 Co0 2.148 1_556 S
N4 C1 1.301 . S
N4 C2 1.317 . S
N5 C1 1.328 . S
N5 C3 1.350 . S
H6 C1 0.930 . S
H7 C2 0.930 1_554 S
C8 O9 1.224 . S
C8 O27 1.247 . S
O9 C8 1.224 . S
N10 Co0 2.128 . S
N10 C11 1.355 . S
N10 C13 1.311 . S
C11 N10 1.355 . S
C11 C12 1.363 . S
C11 H23 0.929 . S
C12 C11 1.363 . S
C12 N14 1.375 . S
C12 H30 0.931 . S
C13 N10 1.311 . S
C13 N14 1.347 . S
C13 H24 0.929 . S
N14 C12 1.375 . S
N14 C13 1.347 . S
C15 C18 1.365 . S
C15 N20 1.328 . S
C15 H21 0.929 . S
C16 C17 1.362 . S
C16 C19 1.378 . S
C16 H31 0.929 . S
C17 C16 1.362 . S
C17 C18 1.366 . S
C18 C15 1.365 . S
C18 C17 1.366 . S
C18 H32 0.930 . S
C19 C16 1.378 . S
C19 N20 1.315 . S
C19 H22 0.930 . S
N20 Co0 2.194 . S
N20 C15 1.328 . S
N20 C19 1.315 . S
H21 C15 0.929 . S
H22 C19 0.930 . S
H23 C11 0.929 . S
H24 C13 0.929 . S
O25 Co0 2.351 . S
O25 C28 1.244 . S
O26 Co0 2.155 . S
O26 C28 1.240 . S
O27 Co0 2.096 . S
O27 C8 1.247 . S
C28 O25 1.244 . S
C28 O26 1.240 . S
H29 C3 0.931 . S
H30 C12 0.931 . S
H31 C16 0.929 . S
H32 C18 0.930 . S
Co33 N37 2.148 . S
Co33 N43 2.128 1_554 S
Co33 N53 2.194 . S
Co33 O58 2.351 . S
Co33 O59 2.155 . S
Co33 O60 2.096 . S
C34 N37 1.301 . S
C34 N38 1.328 . S
C34 H39 0.930 . S
C35 C36 1.333 . S
C35 N37 1.317 . S
C35 H40 0.930 . S
C36 C35 1.333 . S
C36 N38 1.350 . S
C36 H62 0.931 . S
N37 Co33 2.148 . S
N37 C34 1.301 . S
N37 C35 1.317 . S
N38 C34 1.328 . S
N38 C36 1.350 . S
H39 C34 0.930 . S
H40 C35 0.930 . S
C41 O42 1.224 . S
C41 O60 1.247 . S
O42 C41 1.224 . S
N43 Co33 2.128 1_556 S
N43 C44 1.355 . S
N43 C46 1.311 . S
C44 N43 1.355 . S
C44 C45 1.363 . S
C44 H56 0.924 1_556 S
C45 C44 1.363 . S
C45 N47 1.375 . S
C45 H63 0.931 . S
C46 N43 1.311 . S
C46 N47 1.347 . S
C46 H57 0.929 . S
N47 C45 1.375 . S
N47 C46 1.347 . S
C48 C51 1.365 . S
C48 N53 1.328 . S
C48 H54 0.929 . S
C49 C50 1.362 . S
C49 C52 1.378 . S
C49 H64 0.929 . S
C50 C49 1.362 . S
C50 C51 1.366 . S
C51 C48 1.365 . S
C51 C50 1.366 . S
C51 H65 0.930 . S
C52 C49 1.378 . S
C52 N53 1.315 . S
C52 H55 0.930 . S
N53 Co33 2.194 . S
N53 C48 1.328 . S
N53 C52 1.315 . S
H54 C48 0.929 . S
H55 C52 0.930 . S
H56 C44 0.924 1_554 S
H57 C46 0.929 . S
O58 Co33 2.351 . S
O58 C61 1.244 . S
O59 Co33 2.155 . S
O59 C61 1.240 . S
O60 Co33 2.096 . S
O60 C41 1.247 . S
C61 O58 1.244 . S
C61 O59 1.240 . S
H62 C36 0.931 . S
H63 C45 0.931 . S
H64 C49 0.929 . S
H65 C51 0.930 . S
Co66 N70 2.148 . S
Co66 N76 2.128 . S
Co66 N86 2.194 . S
Co66 O91 2.351 . S
Co66 O92 2.155 . S
Co66 O93 2.096 . S
C67 N70 1.301 1_556 S
C67 N71 1.328 . S
C67 H72 0.930 . S
C68 C69 1.333 1_554 S
C68 N70 1.317 . S
C68 H73 0.930 . S
C69 C68 1.333 1_556 S
C69 N71 1.350 . S
C69 H95 0.931 . S
N70 Co66 2.148 . S
N70 C67 1.301 1_554 S
N70 C68 1.317 . S
N71 C67 1.328 . S
N71 C69 1.350 . S
H72 C67 0.930 . S
H73 C68 0.930 . S
C74 O75 1.224 . S
C74 O93 1.247 . S
O75 C74 1.224 . S
N76 Co66 2.128 . S
N76 C77 1.355 . S
N76 C79 1.311 . S
C77 N76 1.355 . S
C77 C78 1.363 . S
C77 H89 0.929 . S
C78 C77 1.363 . S
C78 N80 1.375 . S
C78 H96 0.931 . S
C79 N76 1.311 . S
C79 N80 1.347 . S
C79 H90 0.929 . S
N80 C78 1.375 . S
N80 C79 1.347 . S
C81 C84 1.365 . S
C81 N86 1.328 . S
C81 H87 0.929 . S
C82 C83 1.362 . S
C82 C85 1.378 . S
C82 H97 0.929 . S
C83 C82 1.362 . S
C83 C84 1.366 . S
C84 C81 1.365 . S
C84 C83 1.366 . S
C84 H98 0.930 . S
C85 C82 1.378 . S
C85 N86 1.315 . S
C85 H88 0.930 . S
N86 Co66 2.194 . S
N86 C81 1.328 . S
N86 C85 1.315 . S
H87 C81 0.929 . S
H88 C85 0.930 . S
H89 C77 0.929 . S
H90 C79 0.929 . S
O91 Co66 2.351 . S
O91 C94 1.244 . S
O92 Co66 2.155 . S
O92 C94 1.240 . S
O93 Co66 2.096 . S
O93 C74 1.247 . S
C94 O91 1.244 . S
C94 O92 1.240 . S
H95 C69 0.931 . S
H96 C78 0.931 . S
H97 C82 0.929 . S
H98 C84 0.930 . S
Co99 N103 2.148 . S
Co99 N109 2.128 1_554 S
Co99 N119 2.194 . S
Co99 O124 2.351 . S
Co99 O125 2.155 . S
Co99 O126 2.096 . S
C100 N103 1.301 . S
C100 N104 1.328 . S
C100 H105 0.930 . S
C101 C102 1.333 . S
C101 N103 1.317 . S
C101 H106 0.930 . S
C102 C101 1.333 . S
C102 N104 1.350 . S
C102 H128 0.931 . S
N103 Co99 2.148 . S
N103 C100 1.301 . S
N103 C101 1.317 . S
N104 C100 1.328 . S
N104 C102 1.350 . S
H105 C100 0.930 . S
H106 C101 0.930 . S
C107 O108 1.224 . S
C107 O126 1.247 . S
O108 C107 1.224 . S
N109 Co99 2.128 1_556 S
N109 C110 1.355 . S
N109 C112 1.311 . S
C110 N109 1.355 . S
C110 C111 1.363 . S
C110 H122 0.929 . S
C111 C110 1.363 . S
C111 N113 1.375 . S
C111 H129 0.931 . S
C112 N109 1.311 . S
C112 N113 1.347 . S
C112 H123 0.929 . S
N113 C111 1.375 . S
N113 C112 1.347 . S
C114 C117 1.365 . S
C114 N119 1.328 . S
C114 H120 0.929 . S
C115 C116 1.362 . S
C115 C118 1.378 . S
C115 H130 0.929 . S
C116 C115 1.362 . S
C116 C117 1.366 . S
C117 C114 1.365 . S
C117 C116 1.366 . S
C117 H131 0.930 . S
C118 C115 1.378 . S
C118 N119 1.315 . S
C118 H121 0.930 . S
N119 Co99 2.194 . S
N119 C114 1.328 . S
N119 C118 1.315 . S
H120 C114 0.929 . S
H121 C118 0.930 . S
H122 C110 0.929 . S
H123 C112 0.929 . S
O124 Co99 2.351 . S
O124 C127 1.244 . S
O125 Co99 2.155 . S
O125 C127 1.240 . S
O126 Co99 2.096 . S
O126 C107 1.247 . S
C127 O124 1.244 . S
C127 O125 1.240 . S
H128 C102 0.931 . S
H129 C111 0.931 . S
H130 C115 0.929 . S
H131 C117 0.930 . S
Co132 N136 2.148 . S
Co132 N142 2.128 . S
Co132 N152 2.194 . S
Co132 O157 2.351 . S
Co132 O158 2.155 . S
Co132 O159 2.096 . S
C133 N136 1.301 1_556 S
C133 N137 1.328 . S
C133 H138 0.930 . S
C134 C135 1.333 . S
C134 N136 1.317 1_556 S
C134 H139 0.930 1_556 S
C135 C134 1.333 . S
C135 N137 1.350 . S
C135 H161 0.931 . S
N136 Co132 2.148 . S
N136 C133 1.301 1_554 S
N136 C134 1.317 1_554 S
N137 C133 1.328 . S
N137 C135 1.350 . S
H138 C133 0.930 . S
H139 C134 0.930 1_554 S
C140 O141 1.224 . S
C140 O159 1.247 . S
O141 C140 1.224 . S
N142 Co132 2.128 . S
N142 C143 1.355 . S
N142 C145 1.311 . S
C143 N142 1.355 . S
C143 C144 1.363 . S
C143 H155 0.929 . S
C144 C143 1.363 . S
C144 N146 1.375 . S
C144 H162 0.931 . S
C145 N142 1.311 . S
C145 N146 1.347 . S
C145 H156 0.929 . S
N146 C144 1.375 . S
N146 C145 1.347 . S
C147 C150 1.365 . S
C147 N152 1.328 . S
C147 H153 0.929 . S
C148 C149 1.362 . S
C148 C151 1.378 . S
C148 H163 0.929 . S
C149 C148 1.362 . S
C149 C150 1.366 . S
C150 C147 1.365 . S
C150 C149 1.366 . S
C150 H164 0.930 . S
C151 C148 1.378 . S
C151 N152 1.315 . S
C151 H154 0.930 . S
N152 Co132 2.194 . S
N152 C147 1.328 . S
N152 C151 1.315 . S
H153 C147 0.929 . S
H154 C151 0.930 . S
H155 C143 0.929 . S
H156 C145 0.929 . S
O157 Co132 2.351 . S
O157 C160 1.244 . S
O158 Co132 2.155 . S
O158 C160 1.240 . S
O159 Co132 2.096 . S
O159 C140 1.247 . S
C160 O157 1.244 . S
C160 O158 1.240 . S
H161 C135 0.931 . S
H162 C144 0.931 . S
H163 C148 0.929 . S
H164 C150 0.930 . S
Co165 N169 2.148 . S
Co165 N175 2.128 . S
Co165 N185 2.194 . S
Co165 O190 2.351 . S
Co165 O191 2.155 . S
Co165 O192 2.096 . S
C166 N169 1.301 . S
C166 N170 1.328 . S
C166 H171 0.930 . S
C167 C168 1.333 . S
C167 N169 1.317 . S
C167 H172 0.930 . S
C168 C167 1.333 . S
C168 N170 1.350 . S
C168 H194 0.931 . S
N169 Co165 2.148 . S
N169 C166 1.301 . S
N169 C167 1.317 . S
N170 C166 1.328 . S
N170 C168 1.350 . S
H171 C166 0.930 . S
H172 C167 0.930 . S
C173 O174 1.224 . S
C173 O192 1.247 . S
O174 C173 1.224 . S
N175 Co165 2.128 . S
N175 C176 1.355 1_554 S
N175 C178 1.311 1_554 S
C176 N175 1.355 1_556 S
C176 C177 1.363 . S
C176 H188 0.929 1_556 S
C177 C176 1.363 . S
C177 N179 1.375 . S
C177 H195 0.931 . S
C178 N175 1.311 1_556 S
C178 N179 1.347 . S
C178 H189 0.929 . S
N179 C177 1.375 . S
N179 C178 1.347 . S
C180 C183 1.365 . S
C180 N185 1.328 . S
C180 H186 0.929 . S
C181 C182 1.362 . S
C181 C184 1.378 . S
C181 H196 0.929 . S
C182 C181 1.362 . S
C182 C183 1.366 . S
C183 C180 1.365 . S
C183 C182 1.366 . S
C183 H197 0.930 . S
C184 C181 1.378 . S
C184 N185 1.315 . S
C184 H187 0.930 . S
N185 Co165 2.194 . S
N185 C180 1.328 . S
N185 C184 1.315 . S
H186 C180 0.929 . S
H187 C184 0.930 . S
H188 C176 0.929 1_554 S
H189 C178 0.929 . S
O190 Co165 2.351 . S
O190 C193 1.244 . S
O191 Co165 2.155 . S
O191 C193 1.240 . S
O192 Co165 2.096 . S
O192 C173 1.247 . S
C193 O190 1.244 . S
C193 O191 1.240 . S
H194 C168 0.931 . S
H195 C177 0.931 . S
H196 C181 0.929 . S
H197 C183 0.930 . S
Co198 N202 2.148 . S
Co198 N208 2.128 . S
Co198 N218 2.194 . S
Co198 O223 2.351 . S
Co198 O224 2.155 . S
Co198 O225 2.096 . S
C199 N202 1.301 . S
C199 N203 1.328 . S
C199 H204 0.930 . S
C200 C201 1.333 . S
C200 N202 1.317 . S
C200 H205 0.930 . S
C201 C200 1.333 . S
C201 N203 1.350 . S
C201 H227 0.931 . S
N202 Co198 2.148 . S
N202 C199 1.301 . S
N202 C200 1.317 . S
N203 C199 1.328 . S
N203 C201 1.350 . S
H204 C199 0.930 . S
H205 C200 0.930 . S
C206 O207 1.224 . S
C206 O225 1.247 . S
O207 C206 1.224 . S
N208 Co198 2.128 . S
N208 C209 1.355 . S
N208 C211 1.311 . S
C209 N208 1.355 . S
C209 C210 1.363 . S
C209 H221 0.929 . S
C210 C209 1.363 . S
C210 N212 1.375 . S
C210 H228 0.931 . S
C211 N208 1.311 . S
C211 N212 1.347 . S
C211 H222 0.929 . S
N212 C210 1.375 . S
N212 C211 1.347 . S
C213 C216 1.365 . S
C213 N218 1.328 . S
C213 H219 0.929 . S
C214 C215 1.362 . S
C214 C217 1.378 . S
C214 H229 0.929 . S
C215 C214 1.362 . S
C215 C216 1.366 . S
C216 C213 1.365 . S
C216 C215 1.366 . S
C216 H230 0.930 . S
C217 C214 1.378 . S
C217 N218 1.315 . S
C217 H220 0.930 . S
N218 Co198 2.194 . S
N218 C213 1.328 . S
N218 C217 1.315 . S
H219 C213 0.929 . S
H220 C217 0.930 . S
H221 C209 0.929 . S
H222 C211 0.929 . S
O223 Co198 2.351 . S
O223 C226 1.244 . S
O224 Co198 2.155 . S
O224 C226 1.240 . S
O225 Co198 2.096 . S
O225 C206 1.247 . S
C226 O223 1.244 . S
C226 O224 1.240 . S
H227 C201 0.931 . S
H228 C210 0.931 . S
H229 C214 0.929 . S
H230 C216 0.930 . S
Co231 N235 2.148 . S
Co231 N241 2.128 . S
Co231 N251 2.194 . S
Co231 O256 2.351 1_565 S
Co231 O257 2.155 1_565 S
Co231 O258 2.096 1_565 S
C232 N235 1.301 . S
C232 N236 1.328 . S
C232 H237 0.930 . S
C233 C234 1.333 . S
C233 N235 1.317 . S
C233 H238 0.930 . S
C234 C233 1.333 . S
C234 N236 1.350 . S
C234 H260 0.931 . S
N235 Co231 2.148 . S
N235 C232 1.301 . S
N235 C233 1.317 . S
N236 C232 1.328 . S
N236 C234 1.350 . S
H237 C232 0.930 . S
H238 C233 0.930 . S
C239 O240 1.224 . S
C239 O258 1.247 1_565 S
O240 C239 1.224 . S
N241 Co231 2.128 . S
N241 C242 1.355 . S
N241 C244 1.314 1_565 S
C242 N241 1.355 . S
C242 C243 1.363 . S
C242 H254 0.929 . S
C243 C242 1.363 . S
C243 N245 1.375 . S
C243 H261 0.931 . S
C244 N241 1.314 1_545 S
C244 N245 1.365 1_545 S
C244 H255 0.922 . S
N245 C243 1.375 . S
N245 C244 1.365 1_565 S
C246 C249 1.365 . S
C246 N251 1.328 . S
C246 H252 0.929 . S
C247 C248 1.362 . S
C247 C250 1.378 . S
C247 H262 0.929 . S
C248 C247 1.362 . S
C248 C249 1.366 . S
C249 C246 1.365 . S
C249 C248 1.366 . S
C249 H263 0.930 . S
C250 C247 1.378 . S
C250 N251 1.315 . S
C250 H253 0.930 . S
N251 Co231 2.194 . S
N251 C246 1.328 . S
N251 C250 1.315 . S
H252 C246 0.929 . S
H253 C250 0.930 . S
H254 C242 0.929 . S
H255 C244 0.922 . S
O256 Co231 2.351 1_545 S
O256 C259 1.244 . S
O257 Co231 2.155 1_545 S
O257 C259 1.240 . S
O258 Co231 2.096 1_545 S
O258 C239 1.247 1_545 S
C259 O256 1.244 . S
C259 O257 1.240 . S
H260 C234 0.931 . S
H261 C243 0.931 . S
H262 C247 0.929 . S
H263 C249 0.930 . S
Co264 N268 2.148 . S
Co264 N274 2.128 . S
Co264 N284 2.194 . S
Co264 O289 2.351 . S
Co264 O290 2.155 . S
Co264 O291 2.096 . S
C265 N268 1.301 . S
C265 N269 1.328 . S
C265 H270 0.930 . S
C266 C267 1.333 . S
C266 N268 1.317 . S
C266 H271 0.930 . S
C267 C266 1.333 . S
C267 N269 1.350 . S
C267 H293 0.931 . S
N268 Co264 2.148 . S
N268 C265 1.301 . S
N268 C266 1.317 . S
N269 C265 1.328 . S
N269 C267 1.350 . S
H270 C265 0.930 . S
H271 C266 0.930 . S
C272 O273 1.224 . S
C272 O291 1.247 . S
O273 C272 1.224 . S
N274 Co264 2.128 . S
N274 C275 1.355 . S
N274 C277 1.311 . S
C275 N274 1.355 . S
C275 C276 1.363 . S
C275 H287 0.929 . S
C276 C275 1.363 . S
C276 N278 1.375 . S
C276 H294 0.931 . S
C277 N274 1.311 . S
C277 N278 1.347 . S
C277 H288 0.929 . S
N278 C276 1.375 . S
N278 C277 1.347 . S
C279 C282 1.365 . S
C279 N284 1.328 . S
C279 H285 0.929 . S
C280 C281 1.362 . S
C280 C283 1.378 . S
C280 H295 0.929 . S
C281 C280 1.362 . S
C281 C282 1.366 . S
C282 C279 1.365 . S
C282 C281 1.366 . S
C282 H296 0.930 . S
C283 C280 1.378 . S
C283 N284 1.315 . S
C283 H286 0.930 . S
N284 Co264 2.194 . S
N284 C279 1.328 . S
N284 C283 1.315 . S
H285 C279 0.929 . S
H286 C283 0.930 . S
H287 C275 0.929 . S
H288 C277 0.929 . S
O289 Co264 2.351 . S
O289 C292 1.244 . S
O290 Co264 2.155 . S
O290 C292 1.240 . S
O291 Co264 2.096 . S
O291 C272 1.247 . S
C292 O289 1.244 . S
C292 O290 1.240 . S
H293 C267 0.931 . S
H294 C276 0.931 . S
H295 C280 0.929 . S
H296 C282 0.930 . S
Co297 N301 2.148 . S
Co297 N307 2.128 . S
Co297 N317 2.194 . S
Co297 O322 2.351 . S
Co297 O323 2.155 1_565 S
Co297 O324 2.096 . S
C298 N301 1.301 . S
C298 N302 1.328 . S
C298 H303 0.930 . S
C299 C300 1.333 . S
C299 N301 1.317 . S
C299 H304 0.930 . S
C300 C299 1.333 . S
C300 N302 1.350 . S
C300 H326 0.931 . S
N301 Co297 2.148 . S
N301 C298 1.301 . S
N301 C299 1.317 . S
N302 C298 1.328 . S
N302 C300 1.350 . S
H303 C298 0.930 . S
H304 C299 0.930 . S
C305 O306 1.224 . S
C305 O324 1.247 . S
O306 C305 1.224 . S
N307 Co297 2.128 . S
N307 C308 1.355 . S
N307 C310 1.311 . S
C308 N307 1.355 . S
C308 C309 1.363 . S
C308 H320 0.929 . S
C309 C308 1.363 . S
C309 N311 1.375 . S
C309 H327 0.931 . S
C310 N307 1.311 . S
C310 N311 1.347 . S
C310 H321 0.929 . S
N311 C309 1.375 . S
N311 C310 1.347 . S
C312 C315 1.365 . S
C312 N317 1.328 . S
C312 H318 0.929 . S
C313 C314 1.362 . S
C313 C316 1.378 . S
C313 H328 0.929 . S
C314 C313 1.362 . S
C314 C315 1.366 . S
C315 C312 1.365 . S
C315 C314 1.366 . S
C315 H329 0.930 . S
C316 C313 1.378 . S
C316 N317 1.315 . S
C316 H319 0.930 . S
N317 Co297 2.194 . S
N317 C312 1.328 . S
N317 C316 1.315 . S
H318 C312 0.929 . S
H319 C316 0.930 . S
H320 C308 0.929 . S
H321 C310 0.929 . S
O322 Co297 2.351 . S
O322 C325 1.244 1_565 S
O323 Co297 2.155 1_545 S
O323 C325 1.240 . S
O324 Co297 2.096 . S
O324 C305 1.247 . S
C325 O322 1.244 1_545 S
C325 O323 1.240 . S
H326 C300 0.931 . S
H327 C309 0.931 . S
H328 C313 0.929 . S
H329 C315 0.930 . S
Co330 N334 2.148 . S
Co330 N340 2.128 . S
Co330 N350 2.194 . S
Co330 O355 2.351 . S
Co330 O356 2.155 . S
Co330 O357 2.096 . S
C331 N334 1.301 . S
C331 N335 1.328 . S
C331 H336 0.930 . S
C332 C333 1.333 . S
C332 N334 1.317 . S
C332 H337 0.930 . S
C333 C332 1.333 . S
C333 N335 1.350 . S
C333 H359 0.931 . S
N334 Co330 2.148 . S
N334 C331 1.301 . S
N334 C332 1.317 . S
N335 C331 1.328 . S
N335 C333 1.350 . S
H336 C331 0.930 . S
H337 C332 0.930 . S
C338 O339 1.224 . S
C338 O357 1.247 . S
O339 C338 1.224 . S
N340 Co330 2.128 . S
N340 C341 1.355 . S
N340 C343 1.311 . S
C341 N340 1.355 . S
C341 C342 1.363 . S
C341 H353 0.929 . S
C342 C341 1.363 . S
C342 N344 1.375 . S
C342 H360 0.931 . S
C343 N340 1.311 . S
C343 N344 1.347 . S
C343 H354 0.929 . S
N344 C342 1.375 . S
N344 C343 1.347 . S
C345 C348 1.365 . S
C345 N350 1.328 . S
C345 H351 0.929 . S
C346 C347 1.362 . S
C346 C349 1.378 . S
C346 H361 0.929 . S
C347 C346 1.362 . S
C347 C348 1.366 . S
C348 C345 1.365 . S
C348 C347 1.366 . S
C348 H362 0.930 . S
C349 C346 1.378 . S
C349 N350 1.315 . S
C349 H352 0.930 . S
N350 Co330 2.194 . S
N350 C345 1.328 . S
N350 C349 1.315 . S
H351 C345 0.929 . S
H352 C349 0.930 . S
H353 C341 0.929 . S
H354 C343 0.929 . S
O355 Co330 2.351 . S
O355 C358 1.244 . S
O356 Co330 2.155 . S
O356 C358 1.240 . S
O357 Co330 2.096 . S
O357 C338 1.247 . S
C358 O355 1.244 . S
C358 O356 1.240 . S
H359 C333 0.931 . S
H360 C342 0.931 . S
H361 C346 0.929 . S
H362 C348 0.930 . S
Co363 N367 2.148 . S
Co363 N373 2.128 . S
Co363 N383 2.194 . S
Co363 O388 2.351 . S
Co363 O389 2.155 . S
Co363 O390 2.096 . S
C364 N367 1.301 . S
C364 N368 1.328 . S
C364 H369 0.930 . S
C365 C366 1.333 . S
C365 N367 1.317 . S
C365 H370 0.930 . S
C366 C365 1.333 . S
C366 N368 1.350 . S
C366 H392 0.931 . S
N367 Co363 2.148 . S
N367 C364 1.301 . S
N367 C365 1.317 . S
N368 C364 1.328 . S
N368 C366 1.350 . S
H369 C364 0.930 . S
H370 C365 0.930 . S
C371 O372 1.224 . S
C371 O390 1.247 . S
O372 C371 1.224 . S
N373 Co363 2.128 . S
N373 C374 1.355 . S
N373 C376 1.311 . S
C374 N373 1.355 . S
C374 C375 1.363 . S
C374 H386 0.929 . S
C375 C374 1.363 . S
C375 N377 1.375 . S
C375 H393 0.931 . S
C376 N373 1.311 . S
C376 N377 1.347 . S
C376 H387 0.929 . S
N377 C375 1.375 . S
N377 C376 1.347 . S
C378 C381 1.365 . S
C378 N383 1.328 . S
C378 H384 0.929 . S
C379 C380 1.362 . S
C379 C382 1.378 . S
C379 H394 0.929 . S
C380 C379 1.362 . S
C380 C381 1.366 . S
C381 C378 1.365 . S
C381 C380 1.366 . S
C381 H395 0.930 . S
C382 C379 1.378 . S
C382 N383 1.315 . S
C382 H385 0.930 . S
N383 Co363 2.194 . S
N383 C378 1.328 . S
N383 C382 1.315 . S
H384 C378 0.929 . S
H385 C382 0.930 . S
H386 C374 0.929 . S
H387 C376 0.929 . S
O388 Co363 2.351 . S
O388 C391 1.244 . S
O389 Co363 2.155 . S
O389 C391 1.240 . S
O390 Co363 2.096 . S
O390 C371 1.247 . S
C391 O388 1.244 . S
C391 O389 1.240 . S
H392 C366 0.931 . S
H393 C375 0.931 . S
H394 C379 0.929 . S
H395 C381 0.930 . S
Co396 N400 2.148 . S
Co396 N406 2.128 . S
Co396 N416 2.194 . S
Co396 O421 2.351 . S
Co396 O422 2.155 . S
Co396 O423 2.096 . S
C397 N400 1.301 . S
C397 N401 1.328 . S
C397 H402 0.930 . S
C398 C399 1.333 . S
C398 N400 1.317 . S
C398 H403 0.930 . S
C399 C398 1.333 . S
C399 N401 1.350 . S
C399 H425 0.931 . S
N400 Co396 2.148 . S
N400 C397 1.301 . S
N400 C398 1.317 . S
N401 C397 1.328 . S
N401 C399 1.350 . S
H402 C397 0.930 . S
H403 C398 0.930 . S
C404 O405 1.224 . S
C404 O423 1.247 . S
O405 C404 1.224 . S
N406 Co396 2.128 . S
N406 C407 1.355 . S
N406 C409 1.311 . S
C407 N406 1.355 . S
C407 C408 1.363 . S
C407 H419 0.929 . S
C408 C407 1.363 . S
C408 N410 1.375 . S
C408 H426 0.931 . S
C409 N406 1.311 . S
C409 N410 1.347 . S
C409 H420 0.929 . S
N410 C408 1.375 . S
N410 C409 1.347 . S
C411 C414 1.365 . S
C411 N416 1.328 . S
C411 H417 0.929 . S
C412 C413 1.362 . S
C412 C415 1.378 . S
C412 H427 0.929 . S
C413 C412 1.362 . S
C413 C414 1.366 . S
C414 C411 1.365 . S
C414 C413 1.366 . S
C414 H428 0.930 . S
C415 C412 1.378 . S
C415 N416 1.315 . S
C415 H418 0.930 . S
N416 Co396 2.194 . S
N416 C411 1.328 . S
N416 C415 1.315 . S
H417 C411 0.929 . S
H418 C415 0.930 . S
H419 C407 0.929 . S
H420 C409 0.929 . S
O421 Co396 2.351 . S
O421 C424 1.244 . S
O422 Co396 2.155 . S
O422 C424 1.240 . S
O423 Co396 2.096 . S
O423 C404 1.247 . S
C424 O421 1.244 . S
C424 O422 1.240 . S
H425 C399 0.931 . S
H426 C408 0.931 . S
H427 C412 0.929 . S
H428 C414 0.930 . S
Co429 N433 2.148 1_655 S
Co429 N439 2.128 . S
Co429 N449 2.194 . S
Co429 O454 2.351 . S
Co429 O455 2.155 1_655 S
Co429 O456 2.096 1_655 S
C430 N433 1.301 1_655 S
C430 N434 1.328 1_655 S
C430 H435 0.930 . S
C431 C432 1.333 . S
C431 N433 1.317 . S
C431 H436 0.930 . S
C432 C431 1.333 . S
C432 N434 1.350 . S
C432 H458 0.931 . S
N433 Co429 2.148 1_455 S
N433 C430 1.301 1_455 S
N433 C431 1.317 . S
N434 C430 1.328 1_455 S
N434 C432 1.350 . S
H435 C430 0.930 . S
H436 C431 0.930 . S
C437 O438 1.224 . S
C437 O456 1.247 . S
O438 C437 1.224 . S
N439 Co429 2.128 . S
N439 C440 1.355 . S
N439 C442 1.311 . S
C440 N439 1.355 . S
C440 C441 1.363 . S
C440 H452 0.929 . S
C441 C440 1.363 . S
C441 N443 1.375 . S
C441 H459 0.931 . S
C442 N439 1.311 . S
C442 N443 1.347 . S
C442 H453 0.929 1_655 S
N443 C441 1.375 . S
N443 C442 1.347 . S
C444 C447 1.365 . S
C444 N449 1.328 . S
C444 H450 0.929 . S
C445 C446 1.362 . S
C445 C448 1.378 . S
C445 H460 0.929 . S
C446 C445 1.362 . S
C446 C447 1.366 . S
C447 C444 1.365 . S
C447 C446 1.366 . S
C447 H461 0.930 . S
C448 C445 1.378 . S
C448 N449 1.315 . S
C448 H451 0.930 . S
N449 Co429 2.194 . S
N449 C444 1.328 . S
N449 C448 1.315 . S
H450 C444 0.929 . S
H451 C448 0.930 . S
H452 C440 0.929 . S
H453 C442 0.929 1_455 S
O454 Co429 2.351 . S
O454 C457 1.244 . S
O455 Co429 2.155 1_455 S
O455 C457 1.240 1_455 S
O456 Co429 2.096 1_455 S
O456 C437 1.247 . S
C457 O454 1.244 . S
C457 O455 1.240 1_655 S
H458 C432 0.931 . S
H459 C441 0.931 . S
H460 C445 0.929 . S
H461 C447 0.930 . S
Co462 N466 2.148 . S
Co462 N472 2.128 . S
Co462 N482 2.194 . S
Co462 O487 2.351 . S
Co462 O488 2.155 . S
Co462 O489 2.096 . S
C463 N466 1.301 . S
C463 N467 1.328 . S
C463 H468 0.930 . S
C464 C465 1.333 . S
C464 N466 1.317 . S
C464 H469 0.930 . S
C465 C464 1.333 . S
C465 N467 1.350 . S
C465 H491 0.931 . S
N466 Co462 2.148 . S
N466 C463 1.301 . S
N466 C464 1.317 . S
N467 C463 1.328 . S
N467 C465 1.350 . S
H468 C463 0.930 . S
H469 C464 0.930 . S
C470 O471 1.224 . S
C470 O489 1.247 . S
O471 C470 1.224 . S
N472 Co462 2.128 . S
N472 C473 1.355 . S
N472 C475 1.311 . S
C473 N472 1.355 . S
C473 C474 1.363 . S
C473 H485 0.929 . S
C474 C473 1.363 . S
C474 N476 1.375 . S
C474 H492 0.931 . S
C475 N472 1.311 . S
C475 N476 1.347 . S
C475 H486 0.929 . S
N476 C474 1.375 . S
N476 C475 1.347 . S
C477 C480 1.365 . S
C477 N482 1.328 . S
C477 H483 0.929 . S
C478 C479 1.362 . S
C478 C481 1.378 . S
C478 H493 0.929 . S
C479 C478 1.362 . S
C479 C480 1.366 . S
C480 C477 1.365 . S
C480 C479 1.366 . S
C480 H494 0.930 . S
C481 C478 1.378 . S
C481 N482 1.315 . S
C481 H484 0.930 . S
N482 Co462 2.194 . S
N482 C477 1.328 . S
N482 C481 1.315 . S
H483 C477 0.929 . S
H484 C481 0.930 . S
H485 C473 0.929 . S
H486 C475 0.929 . S
O487 Co462 2.351 . S
O487 C490 1.244 . S
O488 Co462 2.155 . S
O488 C490 1.240 . S
O489 Co462 2.096 . S
O489 C470 1.247 . S
C490 O487 1.244 . S
C490 O488 1.240 . S
H491 C465 0.931 . S
H492 C474 0.931 . S
H493 C478 0.929 . S
H494 C480 0.930 . S
Co495 N499 2.148 . S
Co495 N505 2.128 . S
Co495 N515 2.194 . S
Co495 O520 2.351 . S
Co495 O521 2.155 . S
Co495 O522 2.096 . S
C496 N499 1.301 . S
C496 N500 1.328 . S
C496 H501 0.930 . S
C497 C498 1.333 . S
C497 N499 1.317 . S
C497 H502 0.930 . S
C498 C497 1.333 . S
C498 N500 1.350 . S
C498 H524 0.931 . S
N499 Co495 2.148 . S
N499 C496 1.301 . S
N499 C497 1.317 . S
N500 C496 1.328 . S
N500 C498 1.350 . S
H501 C496 0.930 . S
H502 C497 0.930 . S
C503 O504 1.224 . S
C503 O522 1.247 . S
O504 C503 1.224 . S
N505 Co495 2.128 . S
N505 C506 1.355 . S
N505 C508 1.311 . S
C506 N505 1.355 . S
C506 C507 1.363 . S
C506 H518 0.929 . S
C507 C506 1.363 . S
C507 N509 1.375 . S
C507 H525 0.931 . S
C508 N505 1.311 . S
C508 N509 1.347 . S
C508 H519 0.929 . S
N509 C507 1.375 . S
N509 C508 1.347 . S
C510 C513 1.365 . S
C510 N515 1.328 . S
C510 H516 0.929 . S
C511 C512 1.362 . S
C511 C514 1.378 . S
C511 H526 0.929 . S
C512 C511 1.362 . S
C512 C513 1.366 . S
C513 C510 1.365 . S
C513 C512 1.366 . S
C513 H527 0.930 . S
C514 C511 1.378 . S
C514 N515 1.315 . S
C514 H517 0.930 . S
N515 Co495 2.194 . S
N515 C510 1.328 . S
N515 C514 1.315 . S
H516 C510 0.929 . S
H517 C514 0.930 . S
H518 C506 0.929 . S
H519 C508 0.929 . S
O520 Co495 2.351 . S
O520 C523 1.244 . S
O521 Co495 2.155 . S
O521 C523 1.240 . S
O522 Co495 2.096 . S
O522 C503 1.247 . S
C523 O520 1.244 . S
C523 O521 1.240 . S
H524 C498 0.931 . S
H525 C507 0.931 . S
H526 C511 0.929 . S
H527 C513 0.930 . S
Co528 N532 2.148 . S
Co528 N538 2.128 . S
Co528 N548 2.194 . S
Co528 O553 2.351 . S
Co528 O554 2.155 . S
Co528 O555 2.096 . S
C529 N532 1.301 . S
C529 N533 1.328 . S
C529 H534 0.930 . S
C530 C531 1.333 . S
C530 N532 1.317 . S
C530 H535 0.930 . S
C531 C530 1.333 . S
C531 N533 1.350 . S
C531 H557 0.931 . S
N532 Co528 2.148 . S
N532 C529 1.301 . S
N532 C530 1.317 . S
N533 C529 1.328 . S
N533 C531 1.350 . S
H534 C529 0.930 . S
H535 C530 0.930 . S
C536 O537 1.224 . S
C536 O555 1.247 . S
O537 C536 1.224 . S
N538 Co528 2.128 . S
N538 C539 1.355 . S
N538 C541 1.311 . S
C539 N538 1.355 . S
C539 C540 1.363 . S
C539 H551 0.929 . S
C540 C539 1.363 . S
C540 N542 1.375 . S
C540 H558 0.931 . S
C541 N538 1.311 . S
C541 N542 1.347 . S
C541 H552 0.929 . S
N542 C540 1.375 . S
N542 C541 1.347 . S
C543 C546 1.365 . S
C543 N548 1.328 . S
C543 H549 0.929 . S
C544 C545 1.362 . S
C544 C547 1.378 . S
C544 H559 0.929 . S
C545 C544 1.362 . S
C545 C546 1.366 . S
C546 C543 1.365 . S
C546 C545 1.366 . S
C546 H560 0.930 . S
C547 C544 1.378 . S
C547 N548 1.315 . S
C547 H550 0.930 . S
N548 Co528 2.194 . S
N548 C543 1.328 . S
N548 C547 1.315 . S
H549 C543 0.929 . S
H550 C547 0.930 . S
H551 C539 0.929 . S
H552 C541 0.929 . S
O553 Co528 2.351 . S
O553 C556 1.244 . S
O554 Co528 2.155 . S
O554 C556 1.240 . S
O555 Co528 2.096 . S
O555 C536 1.247 . S
C556 O553 1.244 . S
C556 O554 1.240 . S
H557 C531 0.931 . S
H558 C540 0.931 . S
H559 C544 0.929 . S
H560 C546 0.930 . S
Co561 N565 2.148 . S
Co561 N571 2.128 1_455 S
Co561 N581 2.194 1_455 S
Co561 O586 2.351 1_455 S
Co561 O587 2.155 . S
Co561 O588 2.096 . S
C562 N565 1.301 . S
C562 N566 1.328 . S
C562 H567 0.930 1_455 S
C563 C564 1.333 . S
C563 N565 1.317 . S
C563 H568 0.930 . S
C564 C563 1.333 . S
C564 N566 1.350 . S
C564 H590 0.931 . S
N565 Co561 2.148 . S
N565 C562 1.301 . S
N565 C563 1.317 . S
N566 C562 1.328 . S
N566 C564 1.350 . S
H567 C562 0.930 1_655 S
H568 C563 0.930 . S
C569 O570 1.224 . S
C569 O588 1.247 . S
O570 C569 1.224 . S
N571 Co561 2.128 1_655 S
N571 C572 1.355 . S
N571 C574 1.311 1_655 S
C572 N571 1.355 . S
C572 C573 1.363 . S
C572 H584 0.929 . S
C573 C572 1.363 . S
C573 N575 1.375 . S
C573 H591 0.931 . S
C574 N571 1.311 1_455 S
C574 N575 1.347 1_455 S
C574 H585 0.929 . S
N575 C573 1.375 . S
N575 C574 1.347 1_655 S
C576 C579 1.365 . S
C576 N581 1.328 . S
C576 H582 0.929 . S
C577 C578 1.362 . S
C577 C580 1.378 . S
C577 H592 0.929 . S
C578 C577 1.362 . S
C578 C579 1.366 . S
C579 C576 1.365 . S
C579 C578 1.366 . S
C579 H593 0.930 . S
C580 C577 1.378 . S
C580 N581 1.315 . S
C580 H583 0.930 . S
N581 Co561 2.194 1_655 S
N581 C576 1.328 . S
N581 C580 1.315 . S
H582 C576 0.929 . S
H583 C580 0.930 . S
H584 C572 0.929 . S
H585 C574 0.929 . S
O586 Co561 2.351 1_655 S
O586 C589 1.244 1_655 S
O587 Co561 2.155 . S
O587 C589 1.240 . S
O588 Co561 2.096 . S
O588 C569 1.247 . S
C589 O586 1.244 1_455 S
C589 O587 1.240 . S
H590 C564 0.931 . S
H591 C573 0.931 . S
H592 C577 0.929 . S
H593 C579 0.930 . S
H594 C602 0.929 . S
H595 C604 0.930 . S
H596 C606 0.930 . S
H597 C609 0.929 . S
H598 C612 0.930 . S
H599 C614 0.960 . S
H600 C614 0.960 . S
H601 C614 0.960 . S
C602 H594 0.929 . S
C602 C603 1.377 . S
C602 C604 1.384 . S
C603 C602 1.377 . S
C603 C609 1.390 . S
C604 H595 0.930 . S
C604 C602 1.384 . S
C604 C605 1.372 . S
C605 C604 1.372 . S
C605 C606 1.400 . S
C605 C610 1.490 . S
C606 H596 0.930 . S
C606 C605 1.400 . S
C606 C609 1.386 . S
H607 C623 0.930 . S
H608 C624 0.931 . S
C609 H597 0.929 . S
C609 C603 1.390 . S
C609 C606 1.386 . S
C610 C605 1.490 . S
C610 C612 1.395 . S
C610 C613 1.403 . S
H611 C617 0.930 . S
C612 H598 0.930 . S
C612 C610 1.395 . S
C612 C615 1.403 . S
C613 C610 1.403 . S
C613 C614 1.524 . S
C613 C617 1.400 . S
C614 H599 0.960 . S
C614 H600 0.960 . S
C614 H601 0.960 . S
C614 C613 1.524 . S
C615 C612 1.403 . S
C615 C616 1.392 . S
C615 C619 1.495 . S
C616 C615 1.392 . S
C616 C617 1.385 . S
C616 C618 1.478 . S
C617 H611 0.930 . S
C617 C613 1.400 . S
C617 C616 1.385 . S
C618 C616 1.478 . S
C618 C620 1.381 . S
C618 C624 1.383 . S
C619 C615 1.495 . S
C619 H625 0.959 . S
C619 H626 0.961 . S
C619 H627 0.960 . S
C620 C618 1.381 . S
C620 C621 1.394 . S
C620 H628 0.930 . S
C621 C620 1.394 . S
C621 C622 1.383 . S
C621 H629 0.929 . S
C622 C621 1.383 . S
C622 C623 1.377 . S
C623 H607 0.930 . S
C623 C622 1.377 . S
C623 C624 1.379 . S
C624 H608 0.931 . S
C624 C618 1.383 . S
C624 C623 1.379 . S
H625 C619 0.959 . S
H626 C619 0.961 . S
H627 C619 0.960 . S
H628 C620 0.930 . S
H629 C621 0.929 . S
H630 C638 0.929 . S
H631 C640 0.930 . S
H632 C642 0.930 . S
H633 C645 0.929 . S
H634 C648 0.930 . S
H635 C650 0.960 . S
H636 C650 0.960 . S
H637 C650 0.960 . S
C638 H630 0.929 . S
C638 C639 1.377 . S
C638 C640 1.384 . S
C639 C638 1.377 . S
C639 C645 1.390 . S
C640 H631 0.930 . S
C640 C638 1.384 . S
C640 C641 1.372 . S
C641 C640 1.372 . S
C641 C642 1.400 . S
C641 C646 1.490 . S
C642 H632 0.930 . S
C642 C641 1.400 . S
C642 C645 1.386 . S
H643 C659 0.930 . S
H644 C660 0.931 . S
C645 H633 0.929 . S
C645 C639 1.390 . S
C645 C642 1.386 . S
C646 C641 1.490 . S
C646 C648 1.395 . S
C646 C649 1.403 . S
H647 C653 0.930 . S
C648 H634 0.930 . S
C648 C646 1.395 . S
C648 C651 1.403 . S
C649 C646 1.403 . S
C649 C650 1.524 . S
C649 C653 1.400 . S
C650 H635 0.960 . S
C650 H636 0.960 . S
C650 H637 0.960 . S
C650 C649 1.524 . S
C651 C648 1.403 . S
C651 C652 1.392 . S
C651 C655 1.495 . S
C652 C651 1.392 . S
C652 C653 1.385 . S
C652 C654 1.478 . S
C653 H647 0.930 . S
C653 C649 1.400 . S
C653 C652 1.385 . S
C654 C652 1.478 . S
C654 C656 1.381 . S
C654 C660 1.383 . S
C655 C651 1.495 . S
C655 H661 0.959 . S
C655 H662 0.961 . S
C655 H663 0.960 . S
C656 C654 1.381 . S
C656 C657 1.394 . S
C656 H664 0.930 . S
C657 C656 1.394 . S
C657 C658 1.383 . S
C657 H665 0.929 . S
C658 C657 1.383 . S
C658 C659 1.377 . S
C659 H643 0.930 . S
C659 C658 1.377 . S
C659 C660 1.379 . S
C660 H644 0.931 . S
C660 C654 1.383 . S
C660 C659 1.379 . S
H661 C655 0.959 . S
H662 C655 0.961 . S
H663 C655 0.960 . S
H664 C656 0.930 . S
H665 C657 0.929 . S
H666 C674 0.929 . S
H667 C676 0.930 . S
H668 C678 0.930 . S
H669 C681 0.929 . S
H670 C684 0.930 . S
H671 C686 0.960 . S
H672 C686 0.960 . S
H673 C686 0.960 . S
C674 H666 0.929 . S
C674 C675 1.377 . S
C674 C676 1.384 . S
C675 C674 1.377 . S
C675 C681 1.390 . S
C676 H667 0.930 . S
C676 C674 1.384 . S
C676 C677 1.372 . S
C677 C676 1.372 . S
C677 C678 1.400 . S
C677 C682 1.490 . S
C678 H668 0.930 . S
C678 C677 1.400 . S
C678 C681 1.386 . S
H679 C695 0.930 . S
H680 C696 0.931 . S
C681 H669 0.929 . S
C681 C675 1.390 . S
C681 C678 1.386 . S
C682 C677 1.490 . S
C682 C684 1.395 . S
C682 C685 1.403 . S
H683 C689 0.930 . S
C684 H670 0.930 . S
C684 C682 1.395 . S
C684 C687 1.403 . S
C685 C682 1.403 . S
C685 C686 1.524 . S
C685 C689 1.400 . S
C686 H671 0.960 . S
C686 H672 0.960 . S
C686 H673 0.960 . S
C686 C685 1.524 . S
C687 C684 1.403 . S
C687 C688 1.392 . S
C687 C691 1.495 . S
C688 C687 1.392 . S
C688 C689 1.385 . S
C688 C690 1.478 . S
C689 H683 0.930 . S
C689 C685 1.400 . S
C689 C688 1.385 . S
C690 C688 1.478 . S
C690 C692 1.381 . S
C690 C696 1.383 . S
C691 C687 1.495 . S
C691 H697 0.959 . S
C691 H698 0.961 . S
C691 H699 0.960 . S
C692 C690 1.381 . S
C692 C693 1.394 . S
C692 H700 0.930 . S
C693 C692 1.394 . S
C693 C694 1.383 . S
C693 H701 0.929 . S
C694 C693 1.383 . S
C694 C695 1.377 . S
C695 H679 0.930 . S
C695 C694 1.377 . S
C695 C696 1.379 . S
C696 H680 0.931 . S
C696 C690 1.383 . S
C696 C695 1.379 . S
H697 C691 0.959 . S
H698 C691 0.961 . S
H699 C691 0.960 . S
H700 C692 0.930 . S
H701 C693 0.929 . S
H702 C710 0.929 . S
H703 C712 0.930 . S
H704 C714 0.930 . S
H705 C717 0.929 . S
H706 C720 0.930 . S
H707 C722 0.960 . S
H708 C722 0.960 . S
H709 C722 0.960 . S
C710 H702 0.929 . S
C710 C711 1.377 . S
C710 C712 1.384 . S
C711 C710 1.377 . S
C711 C717 1.390 . S
C712 H703 0.930 . S
C712 C710 1.384 . S
C712 C713 1.372 . S
C713 C712 1.372 . S
C713 C714 1.400 . S
C713 C718 1.490 . S
C714 H704 0.930 . S
C714 C713 1.400 . S
C714 C717 1.386 . S
H715 C731 0.930 . S
H716 C732 0.931 . S
C717 H705 0.929 . S
C717 C711 1.390 . S
C717 C714 1.386 . S
C718 C713 1.490 . S
C718 C720 1.395 . S
C718 C721 1.403 . S
H719 C725 0.930 . S
C720 H706 0.930 . S
C720 C718 1.395 . S
C720 C723 1.403 . S
C721 C718 1.403 . S
C721 C722 1.524 . S
C721 C725 1.400 . S
C722 H707 0.960 . S
C722 H708 0.960 . S
C722 H709 0.960 . S
C722 C721 1.524 . S
C723 C720 1.403 . S
C723 C724 1.392 . S
C723 C727 1.495 . S
C724 C723 1.392 . S
C724 C725 1.385 . S
C724 C726 1.478 . S
C725 H719 0.930 . S
C725 C721 1.400 . S
C725 C724 1.385 . S
C726 C724 1.478 . S
C726 C728 1.381 . S
C726 C732 1.383 . S
C727 C723 1.495 . S
C727 H733 0.959 . S
C727 H734 0.961 . S
C727 H735 0.960 . S
C728 C726 1.381 . S
C728 C729 1.394 . S
C728 H736 0.930 . S
C729 C728 1.394 . S
C729 C730 1.383 . S
C729 H737 0.929 . S
C730 C729 1.383 . S
C730 C731 1.377 . S
C731 H715 0.930 . S
C731 C730 1.377 . S
C731 C732 1.379 . S
C732 H716 0.931 . S
C732 C726 1.383 . S
C732 C731 1.379 . S
H733 C727 0.959 . S
H734 C727 0.961 . S
H735 C727 0.960 . S
H736 C728 0.930 . S
H737 C729 0.929 . S
H738 C746 0.929 . S
H739 C748 0.930 . S
H740 C750 0.930 . S
H741 C753 0.929 . S
H742 C756 0.930 . S
H743 C758 0.960 . S
H744 C758 0.960 . S
H745 C758 0.960 . S
C746 H738 0.929 . S
C746 C747 1.377 . S
C746 C748 1.384 . S
C747 C746 1.377 . S
C747 C753 1.390 . S
C748 H739 0.930 . S
C748 C746 1.384 . S
C748 C749 1.372 . S
C749 C748 1.372 . S
C749 C750 1.400 . S
C749 C754 1.490 . S
C750 H740 0.930 . S
C750 C749 1.400 . S
C750 C753 1.386 . S
H751 C767 0.930 . S
H752 C768 0.931 . S
C753 H741 0.929 . S
C753 C747 1.390 . S
C753 C750 1.386 . S
C754 C749 1.490 . S
C754 C756 1.395 . S
C754 C757 1.403 . S
H755 C761 0.930 . S
C756 H742 0.930 . S
C756 C754 1.395 . S
C756 C759 1.403 . S
C757 C754 1.403 . S
C757 C758 1.524 . S
C757 C761 1.400 . S
C758 H743 0.960 . S
C758 H744 0.960 . S
C758 H745 0.960 . S
C758 C757 1.524 . S
C759 C756 1.403 . S
C759 C760 1.392 . S
C759 C763 1.495 . S
C760 C759 1.392 . S
C760 C761 1.385 . S
C760 C762 1.478 . S
C761 H755 0.930 . S
C761 C757 1.400 . S
C761 C760 1.385 . S
C762 C760 1.478 . S
C762 C764 1.381 . S
C762 C768 1.383 . S
C763 C759 1.495 . S
C763 H769 0.959 . S
C763 H770 0.961 . S
C763 H771 0.960 . S
C764 C762 1.381 . S
C764 C765 1.394 . S
C764 H772 0.930 . S
C765 C764 1.394 . S
C765 C766 1.383 . S
C765 H773 0.929 . S
C766 C765 1.383 . S
C766 C767 1.377 . S
C767 H751 0.930 . S
C767 C766 1.377 . S
C767 C768 1.379 . S
C768 H752 0.931 . S
C768 C762 1.383 . S
C768 C767 1.379 . S
H769 C763 0.959 . S
H770 C763 0.961 . S
H771 C763 0.960 . S
H772 C764 0.930 . S
H773 C765 0.929 . S
H774 C782 0.929 . S
H775 C784 0.930 . S
H776 C786 0.930 . S
H777 C789 0.929 . S
H778 C792 0.930 . S
H779 C794 0.960 . S
H780 C794 0.960 . S
H781 C794 0.960 . S
C782 H774 0.929 . S
C782 C783 1.377 . S
C782 C784 1.384 . S
C783 C782 1.377 . S
C783 C789 1.390 . S
C784 H775 0.930 . S
C784 C782 1.384 . S
C784 C785 1.372 . S
C785 C784 1.372 . S
C785 C786 1.400 . S
C785 C790 1.490 . S
C786 H776 0.930 . S
C786 C785 1.400 . S
C786 C789 1.386 . S
H787 C803 0.930 . S
H788 C804 0.931 . S
C789 H777 0.929 . S
C789 C783 1.390 . S
C789 C786 1.386 . S
C790 C785 1.490 . S
C790 C792 1.395 . S
C790 C793 1.403 . S
H791 C797 0.930 . S
C792 H778 0.930 . S
C792 C790 1.395 . S
C792 C795 1.403 . S
C793 C790 1.403 . S
C793 C794 1.524 . S
C793 C797 1.400 . S
C794 H779 0.960 . S
C794 H780 0.960 . S
C794 H781 0.960 . S
C794 C793 1.524 . S
C795 C792 1.403 . S
C795 C796 1.392 . S
C795 C799 1.495 . S
C796 C795 1.392 . S
C796 C797 1.385 . S
C796 C798 1.478 . S
C797 H791 0.930 . S
C797 C793 1.400 . S
C797 C796 1.385 . S
C798 C796 1.478 . S
C798 C800 1.381 . S
C798 C804 1.383 . S
C799 C795 1.495 . S
C799 H805 0.959 . S
C799 H806 0.961 . S
C799 H807 0.960 . S
C800 C798 1.381 . S
C800 C801 1.394 . S
C800 H808 0.930 . S
C801 C800 1.394 . S
C801 C802 1.383 . S
C801 H809 0.929 . S
C802 C801 1.383 . S
C802 C803 1.377 . S
C803 H787 0.930 . S
C803 C802 1.377 . S
C803 C804 1.379 . S
C804 H788 0.931 . S
C804 C798 1.383 . S
C804 C803 1.379 . S
H805 C799 0.959 . S
H806 C799 0.961 . S
H807 C799 0.960 . S
H808 C800 0.930 . S
H809 C801 0.929 . S
H810 C818 0.929 . S
H811 C820 0.930 . S
H812 C822 0.930 . S
H813 C825 0.929 . S
H814 C828 0.930 . S
H815 C830 0.960 . S
H816 C830 0.960 . S
H817 C830 0.960 . S
C818 H810 0.929 . S
C818 C819 1.377 . S
C818 C820 1.384 . S
C819 C818 1.377 . S
C819 C825 1.390 . S
C820 H811 0.930 . S
C820 C818 1.384 . S
C820 C821 1.372 . S
C821 C820 1.372 . S
C821 C822 1.400 . S
C821 C826 1.490 . S
C822 H812 0.930 . S
C822 C821 1.400 . S
C822 C825 1.386 . S
H823 C839 0.930 . S
H824 C840 0.931 . S
C825 H813 0.929 . S
C825 C819 1.390 . S
C825 C822 1.386 . S
C826 C821 1.490 . S
C826 C828 1.395 . S
C826 C829 1.403 . S
H827 C833 0.930 . S
C828 H814 0.930 . S
C828 C826 1.395 . S
C828 C831 1.403 . S
C829 C826 1.403 . S
C829 C830 1.524 . S
C829 C833 1.400 . S
C830 H815 0.960 . S
C830 H816 0.960 . S
C830 H817 0.960 . S
C830 C829 1.524 . S
C831 C828 1.403 . S
C831 C832 1.392 . S
C831 C835 1.495 . S
C832 C831 1.392 . S
C832 C833 1.385 . S
C832 C834 1.478 1_556 S
C833 H827 0.930 . S
C833 C829 1.400 . S
C833 C832 1.385 . S
C834 C832 1.478 1_554 S
C834 C836 1.381 . S
C834 C840 1.383 . S
C835 C831 1.495 . S
C835 H841 0.959 . S
C835 H842 0.961 1_556 S
C835 H843 0.960 1_556 S
C836 C834 1.381 . S
C836 C837 1.394 . S
C836 H844 0.930 . S
C837 C836 1.394 . S
C837 C838 1.383 . S
C837 H845 0.929 . S
C838 C837 1.383 . S
C838 C839 1.377 . S
C839 H823 0.930 . S
C839 C838 1.377 . S
C839 C840 1.379 . S
C840 H824 0.931 . S
C840 C834 1.383 . S
C840 C839 1.379 . S
H841 C835 0.959 . S
H842 C835 0.961 1_554 S
H843 C835 0.960 1_554 S
H844 C836 0.930 . S
H845 C837 0.929 . S
H846 C854 0.929 . S
H847 C856 0.930 . S
H848 C858 0.930 . S
H849 C861 0.929 . S
H850 C864 0.930 . S
H851 C866 0.960 . S
H852 C866 0.960 . S
H853 C866 0.960 1_545 S
C854 H846 0.929 . S
C854 C855 1.377 . S
C854 C856 1.384 . S
C855 C854 1.377 . S
C855 C861 1.390 1_565 S
C856 H847 0.930 . S
C856 C854 1.384 . S
C856 C857 1.372 . S
C857 C856 1.372 . S
C857 C858 1.400 1_565 S
C857 C862 1.490 . S
C858 H848 0.930 . S
C858 C857 1.400 1_545 S
C858 C861 1.386 . S
H859 C875 0.930 . S
H860 C876 0.931 . S
C861 H849 0.929 . S
C861 C855 1.390 1_545 S
C861 C858 1.386 . S
C862 C857 1.490 . S
C862 C864 1.395 . S
C862 C865 1.403 . S
H863 C869 0.930 . S
C864 H850 0.930 . S
C864 C862 1.395 . S
C864 C867 1.403 . S
C865 C862 1.403 . S
C865 C866 1.524 . S
C865 C869 1.400 . S
C866 H851 0.960 . S
C866 H852 0.960 . S
C866 H853 0.960 1_565 S
C866 C865 1.524 . S
C867 C864 1.403 . S
C867 C868 1.392 1_556 S
C867 C871 1.495 1_556 S
C868 C867 1.392 1_554 S
C868 C869 1.385 1_554 S
C868 C870 1.478 . S
C869 H863 0.930 . S
C869 C865 1.400 . S
C869 C868 1.385 1_556 S
C870 C868 1.478 . S
C870 C872 1.381 . S
C870 C876 1.383 1_565 S
C871 C867 1.495 1_554 S
C871 H877 0.959 1_554 S
C871 H878 0.961 1_565 S
C871 H879 0.960 . S
C872 C870 1.381 . S
C872 C873 1.394 . S
C872 H880 0.930 . S
C873 C872 1.394 . S
C873 C874 1.476 . S
C873 H881 0.929 . S
C874 C873 1.476 . S
C874 C875 1.302 1_565 S
C875 H859 0.930 . S
C875 C874 1.302 1_545 S
C875 C876 1.379 . S
C876 H860 0.931 . S
C876 C870 1.383 1_545 S
C876 C875 1.379 . S
H877 C871 0.959 1_556 S
H878 C871 0.961 1_545 S
H879 C871 0.960 . S
H880 C872 0.930 . S
H881 C873 0.929 . S
H882 C890 0.929 . S
H883 C892 0.930 . S
H884 C894 0.930 . S
H885 C897 0.929 . S
H886 C900 0.930 . S
H887 C902 0.960 . S
H888 C902 0.960 . S
H889 C902 0.960 . S
C890 H882 0.929 . S
C890 C891 1.377 . S
C890 C892 1.384 . S
C891 C890 1.377 . S
C891 C897 1.390 . S
C892 H883 0.930 . S
C892 C890 1.384 . S
C892 C893 1.372 . S
C893 C892 1.372 . S
C893 C894 1.400 . S
C893 C898 1.490 . S
C894 H884 0.930 . S
C894 C893 1.400 . S
C894 C897 1.386 . S
H895 C911 0.930 . S
H896 C912 0.931 . S
C897 H885 0.929 . S
C897 C891 1.390 . S
C897 C894 1.386 . S
C898 C893 1.490 . S
C898 C900 1.395 . S
C898 C901 1.403 . S
H899 C905 0.930 . S
C900 H886 0.930 . S
C900 C898 1.395 . S
C900 C903 1.403 . S
C901 C898 1.403 . S
C901 C902 1.524 . S
C901 C905 1.400 . S
C902 H887 0.960 . S
C902 H888 0.960 . S
C902 H889 0.960 . S
C902 C901 1.524 . S
C903 C900 1.403 . S
C903 C904 1.392 1_556 S
C903 C907 1.495 1_556 S
C904 C903 1.392 1_554 S
C904 C905 1.385 1_554 S
C904 C906 1.478 . S
C905 H899 0.930 . S
C905 C901 1.400 . S
C905 C904 1.385 1_556 S
C906 C904 1.478 . S
C906 C908 1.381 . S
C906 C912 1.383 . S
C907 C903 1.495 1_554 S
C907 H913 0.959 1_554 S
C907 H914 0.961 . S
C907 H915 0.960 . S
C908 C906 1.381 . S
C908 C909 1.394 . S
C908 H916 0.930 . S
C909 C908 1.394 . S
C909 C910 1.383 . S
C909 H917 0.929 . S
C910 C909 1.383 . S
C910 C911 1.377 . S
C911 H895 0.930 . S
C911 C910 1.377 . S
C911 C912 1.379 . S
C912 H896 0.931 . S
C912 C906 1.383 . S
C912 C911 1.379 . S
H913 C907 0.959 1_556 S
H914 C907 0.961 . S
H915 C907 0.960 . S
H916 C908 0.930 . S
H917 C909 0.929 . S
H918 C926 0.929 . S
H919 C928 0.930 . S
H920 C930 0.930 . S
H921 C933 0.928 1_545 S
H922 C936 0.930 . S
H923 C938 0.960 . S
H924 C938 0.960 1_554 S
H925 C938 0.960 1_554 S
C926 H918 0.929 . S
C926 C927 1.377 . S
C926 C928 1.384 . S
C927 C926 1.377 . S
C927 C933 1.390 . S
C928 H919 0.930 . S
C928 C926 1.384 . S
C928 C929 1.372 . S
C929 C928 1.372 . S
C929 C930 1.400 . S
C929 C934 1.490 1_554 S
C930 H920 0.930 . S
C930 C929 1.400 . S
C930 C933 1.386 . S
H931 C947 0.930 . S
H932 C948 0.931 . S
C933 H921 0.928 1_565 S
C933 C927 1.390 . S
C933 C930 1.386 . S
C934 C929 1.490 1_556 S
C934 C936 1.395 . S
C934 C937 1.403 . S
H935 C941 0.863 1_545 S
C936 H922 0.930 . S
C936 C934 1.395 . S
C936 C939 1.403 . S
C937 C934 1.403 . S
C937 C938 1.524 1_565 S
C937 C941 1.400 . S
C938 H923 0.960 . S
C938 H924 0.960 1_556 S
C938 H925 0.960 1_556 S
C938 C937 1.524 1_545 S
C939 C936 1.403 . S
C939 C940 1.392 . S
C939 C943 1.495 . S
C940 C939 1.392 . S
C940 C941 1.385 . S
C940 C942 1.478 . S
C941 H935 0.863 1_565 S
C941 C937 1.400 . S
C941 C940 1.385 . S
C942 C940 1.478 . S
C942 C944 1.381 . S
C942 C948 1.383 . S
C943 C939 1.495 . S
C943 H949 0.959 . S
C943 H950 0.961 . S
C943 H951 0.960 . S
C944 C942 1.381 . S
C944 C945 1.394 . S
C944 H952 0.930 . S
C945 C944 1.394 . S
C945 C946 1.383 . S
C945 H953 0.929 . S
C946 C945 1.383 . S
C946 C947 1.377 . S
C947 H931 0.930 . S
C947 C946 1.377 . S
C947 C948 1.379 . S
C948 H932 0.931 . S
C948 C942 1.383 . S
C948 C947 1.379 . S
H949 C943 0.959 . S
H950 C943 0.961 . S
H951 C943 0.960 . S
H952 C944 0.930 . S
H953 C945 0.929 . S
H954 C962 0.929 . S
H955 C964 0.930 . S
H956 C966 0.930 . S
H957 C969 0.929 . S
H958 C972 0.930 . S
H959 C974 0.960 . S
H960 C974 0.960 . S
H961 C974 0.960 . S
C962 H954 0.929 . S
C962 C963 1.377 . S
C962 C964 1.384 . S
C963 C962 1.377 . S
C963 C969 1.390 . S
C964 H955 0.930 . S
C964 C962 1.384 . S
C964 C965 1.372 . S
C965 C964 1.372 . S
C965 C966 1.400 . S
C965 C970 1.490 . S
C966 H956 0.930 . S
C966 C965 1.400 . S
C966 C969 1.386 . S
H967 C983 0.930 . S
H968 C984 0.931 . S
C969 H957 0.929 . S
C969 C963 1.390 . S
C969 C966 1.386 . S
C970 C965 1.490 . S
C970 C972 1.395 . S
C970 C973 1.403 . S
H971 C977 0.930 . S
C972 H958 0.930 . S
C972 C970 1.395 . S
C972 C975 1.403 . S
C973 C970 1.403 . S
C973 C974 1.524 . S
C973 C977 1.400 . S
C974 H959 0.960 . S
C974 H960 0.960 . S
C974 H961 0.960 . S
C974 C973 1.524 . S
C975 C972 1.403 . S
C975 C976 1.392 . S
C975 C979 1.495 . S
C976 C975 1.392 . S
C976 C977 1.385 . S
C976 C978 1.478 1_556 S
C977 H971 0.930 . S
C977 C973 1.400 . S
C977 C976 1.385 . S
C978 C976 1.478 1_554 S
C978 C980 1.381 . S
C978 C984 1.383 . S
C979 C975 1.495 . S
C979 H985 0.959 . S
C979 H986 0.973 . S
C979 H987 0.960 . S
C980 C978 1.381 . S
C980 C981 1.394 . S
C980 H988 0.930 . S
C981 C980 1.394 . S
C981 C982 1.383 . S
C981 H989 0.929 . S
C982 C981 1.383 . S
C982 C983 1.377 . S
C983 H967 0.930 . S
C983 C982 1.377 . S
C983 C984 1.379 . S
C984 H968 0.931 . S
C984 C978 1.383 . S
C984 C983 1.379 . S
H985 C979 0.959 . S
H986 C979 0.973 . S
H987 C979 0.960 . S
H988 C980 0.930 . S
H989 C981 0.929 . S
H990 C998 0.929 . S
H991 C1000 0.930 . S
H992 C1002 0.930 . S
H993 C1005 0.929 . S
H994 C1008 0.930 . S
H995 C1010 0.960 . S
H996 C1010 0.960 . S
H997 C1010 0.960 . S
C998 H990 0.929 . S
C998 C999 1.377 . S
C998 C1000 1.384 . S
C999 C998 1.377 . S
C999 C1005 1.390 . S
C1000 H991 0.930 . S
C1000 C998 1.384 . S
C1000 C1001 1.372 . S
C1001 C1000 1.372 . S
C1001 C1002 1.400 . S
C1001 C1006 1.490 . S
C1002 H992 0.930 . S
C1002 C1001 1.400 . S
C1002 C1005 1.386 . S
H1003 C1019 0.930 . S
H1004 C1020 0.931 . S
C1005 H993 0.929 . S
C1005 C999 1.390 . S
C1005 C1002 1.386 . S
C1006 C1001 1.490 . S
C1006 C1008 1.395 . S
C1006 C1009 1.403 . S
H1007 C1013 0.930 . S
C1008 H994 0.930 . S
C1008 C1006 1.395 . S
C1008 C1011 1.403 . S
C1009 C1006 1.403 . S
C1009 C1010 1.524 . S
C1009 C1013 1.400 . S
C1010 H995 0.960 . S
C1010 H996 0.960 . S
C1010 H997 0.960 . S
C1010 C1009 1.524 . S
C1011 C1008 1.403 . S
C1011 C1012 1.392 . S
C1011 C1015 1.495 1_556 S
C1012 C1011 1.392 . S
C1012 C1013 1.385 . S
C1012 C1014 1.478 1_556 S
C1013 H1007 0.930 . S
C1013 C1009 1.400 . S
C1013 C1012 1.385 . S
C1014 C1012 1.478 1_554 S
C1014 C1016 1.381 . S
C1014 C1020 1.383 . S
C1015 C1011 1.495 1_554 S
C1015 H1021 0.959 1_554 S
C1015 H1022 0.961 . S
C1015 H1023 0.960 . S
C1016 C1014 1.381 . S
C1016 C1017 1.394 . S
C1016 H1024 0.930 . S
C1017 C1016 1.394 . S
C1017 C1018 1.383 . S
C1017 H1025 0.929 . S
C1018 C1017 1.383 . S
C1018 C1019 1.377 . S
C1019 H1003 0.930 . S
C1019 C1018 1.377 . S
C1019 C1020 1.379 . S
C1020 H1004 0.931 . S
C1020 C1014 1.383 . S
C1020 C1019 1.379 . S
H1021 C1015 0.959 1_556 S
H1022 C1015 0.961 . S
H1023 C1015 0.960 . S
H1024 C1016 0.930 . S
H1025 C1017 0.929 . S
H1026 C1034 0.929 . S
H1027 C1036 0.930 . S
H1028 C1038 0.930 . S
H1029 C1041 0.929 . S
H1030 C1044 0.930 . S
H1031 C1046 0.960 . S
H1032 C1046 0.960 . S
H1033 C1046 0.960 . S
C1034 H1026 0.929 . S
C1034 C1035 1.377 . S
C1034 C1036 1.384 . S
C1035 C1034 1.377 . S
C1035 C1041 1.390 . S
C1036 H1027 0.930 . S
C1036 C1034 1.384 . S
C1036 C1037 1.372 . S
C1037 C1036 1.372 . S
C1037 C1038 1.400 . S
C1037 C1042 1.490 . S
C1038 H1028 0.930 . S
C1038 C1037 1.400 . S
C1038 C1041 1.386 . S
H1039 C1055 0.930 . S
H1040 C1056 0.931 . S
C1041 H1029 0.929 . S
C1041 C1035 1.390 . S
C1041 C1038 1.386 . S
C1042 C1037 1.490 . S
C1042 C1044 1.395 . S
C1042 C1045 1.403 . S
H1043 C1049 0.930 . S
C1044 H1030 0.930 . S
C1044 C1042 1.395 . S
C1044 C1047 1.403 . S
C1045 C1042 1.403 . S
C1045 C1046 1.524 . S
C1045 C1049 1.400 . S
C1046 H1031 0.960 . S
C1046 H1032 0.960 . S
C1046 H1033 0.960 . S
C1046 C1045 1.524 . S
C1047 C1044 1.403 . S
C1047 C1048 1.392 . S
C1047 C1051 1.495 . S
C1048 C1047 1.392 . S
C1048 C1049 1.385 . S
C1048 C1050 1.478 . S
C1049 H1043 0.930 . S
C1049 C1045 1.400 . S
C1049 C1048 1.385 . S
C1050 C1048 1.478 . S
C1050 C1052 1.381 . S
C1050 C1056 1.383 . S
C1051 C1047 1.495 . S
C1051 H1057 0.959 . S
C1051 H1058 0.961 . S
C1051 H1059 0.960 . S
C1052 C1050 1.381 . S
C1052 C1053 1.394 . S
C1052 H1060 0.930 . S
C1053 C1052 1.394 . S
C1053 C1054 1.383 . S
C1053 H1061 0.929 . S
C1054 C1053 1.383 . S
C1054 C1055 1.377 . S
C1055 H1039 0.930 . S
C1055 C1054 1.377 . S
C1055 C1056 1.379 . S
C1056 H1040 0.931 . S
C1056 C1050 1.383 . S
C1056 C1055 1.379 . S
H1057 C1051 0.959 . S
H1058 C1051 0.961 . S
H1059 C1051 0.960 . S
H1060 C1052 0.930 . S
H1061 C1053 0.929 . S
H1062 C1070 0.929 . S
H1063 C1072 0.930 . S
H1064 C1074 0.930 . S
H1065 C1077 0.929 . S
H1066 C1080 0.930 . S
H1067 C1082 0.960 . S
H1068 C1082 0.960 . S
H1069 C1082 0.960 . S
C1070 H1062 0.929 . S
C1070 C1071 1.377 1_455 S
C1070 C1072 1.384 . S
C1071 C1070 1.377 1_655 S
C1071 C1077 1.390 . S
C1072 H1063 0.930 . S
C1072 C1070 1.384 . S
C1072 C1073 1.372 1_455 S
C1073 C1072 1.372 1_655 S
C1073 C1074 1.400 . S
C1073 C1078 1.490 . S
C1074 H1064 0.930 . S
C1074 C1073 1.400 . S
C1074 C1077 1.386 . S
H1075 C1091 0.930 . S
H1076 C1092 0.931 . S
C1077 H1065 0.929 . S
C1077 C1071 1.390 . S
C1077 C1074 1.386 . S
C1078 C1073 1.490 . S
C1078 C1080 1.395 1_655 S
C1078 C1081 1.403 . S
H1079 C1085 0.930 . S
C1080 H1066 0.930 . S
C1080 C1078 1.395 1_455 S
C1080 C1083 1.403 . S
C1081 C1078 1.403 . S
C1081 C1082 1.524 . S
C1081 C1085 1.400 . S
C1082 H1067 0.960 . S
C1082 H1068 0.960 . S
C1082 H1069 0.960 . S
C1082 C1081 1.524 . S
C1083 C1080 1.403 . S
C1083 C1084 1.392 . S
C1083 C1087 1.495 . S
C1084 C1083 1.392 . S
C1084 C1085 1.385 1_455 S
C1084 C1086 1.478 . S
C1085 H1079 0.930 . S
C1085 C1081 1.400 . S
C1085 C1084 1.385 1_655 S
C1086 C1084 1.478 . S
C1086 C1088 1.381 . S
C1086 C1092 1.383 1_455 S
C1087 C1083 1.495 . S
C1087 H1093 0.959 . S
C1087 H1094 0.961 . S
C1087 H1095 0.960 . S
C1088 C1086 1.381 . S
C1088 C1089 1.394 . S
C1088 H1096 0.930 . S
C1089 C1088 1.394 . S
C1089 C1090 1.383 1_554 S
C1089 H1097 0.929 . S
C1090 C1089 1.383 1_556 S
C1090 C1091 1.377 1_456 S
C1091 H1075 0.930 . S
C1091 C1090 1.377 1_654 S
C1091 C1092 1.379 . S
C1092 H1076 0.931 . S
C1092 C1086 1.383 1_655 S
C1092 C1091 1.379 . S
H1093 C1087 0.959 . S
H1094 C1087 0.961 . S
H1095 C1087 0.960 . S
H1096 C1088 0.930 . S
H1097 C1089 0.929 . S
H1098 C1106 0.929 . S
H1099 C1108 0.930 . S
H1100 C1110 0.930 . S
H1101 C1113 0.929 . S
H1102 C1116 0.930 . S
H1103 C1118 0.960 . S
H1104 C1118 0.960 . S
H1105 C1118 0.960 . S
C1106 H1098 0.929 . S
C1106 C1107 1.377 . S
C1106 C1108 1.384 . S
C1107 C1106 1.377 . S
C1107 C1113 1.390 . S
C1108 H1099 0.930 . S
C1108 C1106 1.384 . S
C1108 C1109 1.372 . S
C1109 C1108 1.372 . S
C1109 C1110 1.400 . S
C1109 C1114 1.490 . S
C1110 H1100 0.930 . S
C1110 C1109 1.400 . S
C1110 C1113 1.386 . S
H1111 C1127 0.930 . S
H1112 C1128 0.931 . S
C1113 H1101 0.929 . S
C1113 C1107 1.390 . S
C1113 C1110 1.386 . S
C1114 C1109 1.490 . S
C1114 C1116 1.395 . S
C1114 C1117 1.403 . S
H1115 C1121 0.930 . S
C1116 H1102 0.930 . S
C1116 C1114 1.395 . S
C1116 C1119 1.403 . S
C1117 C1114 1.403 . S
C1117 C1118 1.524 . S
C1117 C1121 1.400 . S
C1118 H1103 0.960 . S
C1118 H1104 0.960 . S
C1118 H1105 0.960 . S
C1118 C1117 1.524 . S
C1119 C1116 1.403 . S
C1119 C1120 1.392 . S
C1119 C1123 1.495 . S
C1120 C1119 1.392 . S
C1120 C1121 1.385 . S
C1120 C1122 1.478 . S
C1121 H1115 0.930 . S
C1121 C1117 1.400 . S
C1121 C1120 1.385 . S
C1122 C1120 1.478 . S
C1122 C1124 1.381 . S
C1122 C1128 1.383 . S
C1123 C1119 1.495 . S
C1123 H1129 0.959 . S
C1123 H1130 0.961 . S
C1123 H1131 0.960 . S
C1124 C1122 1.381 . S
C1124 C1125 1.394 . S
C1124 H1132 0.930 . S
C1125 C1124 1.394 . S
C1125 C1126 1.383 . S
C1125 H1133 0.929 . S
C1126 C1125 1.383 . S
C1126 C1127 1.377 . S
C1127 H1111 0.930 . S
C1127 C1126 1.377 . S
C1127 C1128 1.379 . S
C1128 H1112 0.931 . S
C1128 C1122 1.383 . S
C1128 C1127 1.379 . S
H1129 C1123 0.959 . S
H1130 C1123 0.961 . S
H1131 C1123 0.960 . S
H1132 C1124 0.930 . S
H1133 C1125 0.929 . S
H1134 C1142 0.929 . S
H1135 C1144 0.930 . S
H1136 C1146 0.930 . S
H1137 C1149 0.929 . S
H1138 C1152 0.930 . S
H1139 C1154 0.960 . S
H1140 C1154 0.960 . S
H1141 C1154 0.960 . S
C1142 H1134 0.929 . S
C1142 C1143 1.377 . S
C1142 C1144 1.384 . S
C1143 C1142 1.377 . S
C1143 C1149 1.390 . S
C1144 H1135 0.930 . S
C1144 C1142 1.384 . S
C1144 C1145 1.372 . S
C1145 C1144 1.372 . S
C1145 C1146 1.400 . S
C1145 C1150 1.490 . S
C1146 H1136 0.930 . S
C1146 C1145 1.400 . S
C1146 C1149 1.386 . S
H1147 C1163 0.930 . S
H1148 C1164 0.931 . S
C1149 H1137 0.929 . S
C1149 C1143 1.390 . S
C1149 C1146 1.386 . S
C1150 C1145 1.490 . S
C1150 C1152 1.395 . S
C1150 C1153 1.403 . S
H1151 C1157 0.930 . S
C1152 H1138 0.930 . S
C1152 C1150 1.395 . S
C1152 C1155 1.403 . S
C1153 C1150 1.403 . S
C1153 C1154 1.524 . S
C1153 C1157 1.400 . S
C1154 H1139 0.960 . S
C1154 H1140 0.960 . S
C1154 H1141 0.960 . S
C1154 C1153 1.524 . S
C1155 C1152 1.403 . S
C1155 C1156 1.392 . S
C1155 C1159 1.495 . S
C1156 C1155 1.392 . S
C1156 C1157 1.385 . S
C1156 C1158 1.478 . S
C1157 H1151 0.930 . S
C1157 C1153 1.400 . S
C1157 C1156 1.385 . S
C1158 C1156 1.478 . S
C1158 C1160 1.381 . S
C1158 C1164 1.383 . S
C1159 C1155 1.495 . S
C1159 H1165 0.959 . S
C1159 H1166 0.961 . S
C1159 H1167 0.960 . S
C1160 C1158 1.381 . S
C1160 C1161 1.394 . S
C1160 H1168 0.930 . S
C1161 C1160 1.394 . S
C1161 C1162 1.383 . S
C1161 H1169 0.929 . S
C1162 C1161 1.383 . S
C1162 C1163 1.377 . S
C1163 H1147 0.930 . S
C1163 C1162 1.377 . S
C1163 C1164 1.379 . S
C1164 H1148 0.931 . S
C1164 C1158 1.383 . S
C1164 C1163 1.379 . S
H1165 C1159 0.959 . S
H1166 C1159 0.961 . S
H1167 C1159 0.960 . S
H1168 C1160 0.930 . S
H1169 C1161 0.929 . S
H1170 C1178 0.929 . S
H1171 C1180 0.930 . S
H1172 C1182 0.930 . S
H1173 C1185 0.929 . S
H1174 C1188 0.930 . S
H1175 C1190 0.960 . S
H1176 C1190 0.960 . S
H1177 C1190 0.960 . S
C1178 H1170 0.929 . S
C1178 C1179 1.377 . S
C1178 C1180 1.384 . S
C1179 C1178 1.377 . S
C1179 C1185 1.390 . S
C1180 H1171 0.930 . S
C1180 C1178 1.384 . S
C1180 C1181 1.372 . S
C1181 C1180 1.372 . S
C1181 C1182 1.400 . S
C1181 C1186 1.490 . S
C1182 H1172 0.930 . S
C1182 C1181 1.400 . S
C1182 C1185 1.386 . S
H1183 C1199 0.930 . S
H1184 C1200 0.931 . S
C1185 H1173 0.929 . S
C1185 C1179 1.390 . S
C1185 C1182 1.386 . S
C1186 C1181 1.490 . S
C1186 C1188 1.395 . S
C1186 C1189 1.403 . S
H1187 C1193 0.930 . S
C1188 H1174 0.930 . S
C1188 C1186 1.395 . S
C1188 C1191 1.403 . S
C1189 C1186 1.403 . S
C1189 C1190 1.524 . S
C1189 C1193 1.400 . S
C1190 H1175 0.960 . S
C1190 H1176 0.960 . S
C1190 H1177 0.960 . S
C1190 C1189 1.524 . S
C1191 C1188 1.403 . S
C1191 C1192 1.392 . S
C1191 C1195 1.495 . S
C1192 C1191 1.392 . S
C1192 C1193 1.385 . S
C1192 C1194 1.478 . S
C1193 H1187 0.930 . S
C1193 C1189 1.400 . S
C1193 C1192 1.385 . S
C1194 C1192 1.478 . S
C1194 C1196 1.381 . S
C1194 C1200 1.383 . S
C1195 C1191 1.495 . S
C1195 H1201 0.959 . S
C1195 H1202 0.961 . S
C1195 H1203 0.960 . S
C1196 C1194 1.381 . S
C1196 C1197 1.394 . S
C1196 H1204 0.930 . S
C1197 C1196 1.394 . S
C1197 C1198 1.383 . S
C1197 H1205 0.929 . S
C1198 C1197 1.383 . S
C1198 C1199 1.377 . S
C1199 H1183 0.930 . S
C1199 C1198 1.377 . S
C1199 C1200 1.379 . S
C1200 H1184 0.931 . S
C1200 C1194 1.383 . S
C1200 C1199 1.379 . S
H1201 C1195 0.959 . S
H1202 C1195 0.961 . S
H1203 C1195 0.960 . S
H1204 C1196 0.930 . S
H1205 C1197 0.929 . S
H1206 C1214 0.929 . S
H1207 C1216 0.930 . S
H1208 C1218 0.985 . S
H1209 C1221 0.929 . S
H1210 C1224 0.930 . S
H1211 C1226 0.960 . S
H1212 C1226 0.960 . S
H1213 C1226 0.960 . S
C1214 H1206 0.929 . S
C1214 C1215 1.381 . S
C1214 C1216 1.384 . S
C1215 C1214 1.381 . S
C1215 C1221 1.386 1_455 S
C1216 H1207 0.930 . S
C1216 C1214 1.384 . S
C1216 C1217 1.372 . S
C1217 C1216 1.372 . S
C1217 C1218 1.347 1_455 S
C1217 C1222 1.490 . S
C1218 H1208 0.985 . S
C1218 C1217 1.347 1_655 S
C1218 C1221 1.392 . S
H1219 C1235 0.977 1_556 S
H1220 C1236 0.931 1_655 S
C1221 H1209 0.929 . S
C1221 C1215 1.386 1_655 S
C1221 C1218 1.392 . S
C1222 C1217 1.490 . S
C1222 C1224 1.395 1_455 S
C1222 C1225 1.403 . S
H1223 C1229 0.930 . S
C1224 H1210 0.930 . S
C1224 C1222 1.395 1_655 S
C1224 C1227 1.403 . S
C1225 C1222 1.403 . S
C1225 C1226 1.524 . S
C1225 C1229 1.400 . S
C1226 H1211 0.960 . S
C1226 H1212 0.960 . S
C1226 H1213 0.960 . S
C1226 C1225 1.524 . S
C1227 C1224 1.403 . S
C1227 C1228 1.392 1_655 S
C1227 C1231 1.495 . S
C1228 C1227 1.392 1_455 S
C1228 C1229 1.385 . S
C1228 C1230 1.478 . S
C1229 H1223 0.930 . S
C1229 C1225 1.400 . S
C1229 C1228 1.385 . S
C1230 C1228 1.478 . S
C1230 C1232 1.381 . S
C1230 C1236 1.383 . S
C1231 C1227 1.495 . S
C1231 H1237 0.959 . S
C1231 H1238 0.961 . S
C1231 H1239 0.960 . S
C1232 C1230 1.381 . S
C1232 C1233 1.394 1_554 S
C1232 H1240 0.930 . S
C1233 C1232 1.394 1_556 S
C1233 C1234 1.383 . S
C1233 H1241 0.929 . S
C1234 C1233 1.383 . S
C1234 C1235 1.377 1_556 S
C1235 H1219 0.977 1_554 S
C1235 C1234 1.377 1_554 S
C1235 C1236 1.379 . S
C1236 H1220 0.931 1_455 S
C1236 C1230 1.383 . S
C1236 C1235 1.379 . S
H1237 C1231 0.959 . S
H1238 C1231 0.961 . S
H1239 C1231 0.960 . S
H1240 C1232 0.930 . S
H1241 C1233 0.929 . S
H1242 C1250 0.929 . S
H1243 C1252 0.930 . S
H1244 C1254 0.930 . S
H1245 C1257 0.929 . S
H1246 C1260 0.930 . S
H1247 C1262 0.960 1_556 S
H1248 C1262 0.960 1_556 S
H1249 C1262 0.960 . S
C1250 H1242 0.929 . S
C1250 C1251 1.377 . S
C1250 C1252 1.384 . S
C1251 C1250 1.377 . S
C1251 C1257 1.390 . S
C1252 H1243 0.930 . S
C1252 C1250 1.384 . S
C1252 C1253 1.372 . S
C1253 C1252 1.372 . S
C1253 C1254 1.400 . S
C1253 C1258 1.490 . S
C1254 H1244 0.930 . S
C1254 C1253 1.400 . S
C1254 C1257 1.386 . S
H1255 C1271 0.930 . S
H1256 C1272 0.931 . S
C1257 H1245 0.929 . S
C1257 C1251 1.390 . S
C1257 C1254 1.386 . S
C1258 C1253 1.490 . S
C1258 C1260 1.395 . S
C1258 C1261 1.403 . S
H1259 C1265 0.930 . S
C1260 H1246 0.930 . S
C1260 C1258 1.395 . S
C1260 C1263 1.403 . S
C1261 C1258 1.403 . S
C1261 C1262 1.524 . S
C1261 C1265 1.400 . S
C1262 H1247 0.960 1_554 S
C1262 H1248 0.960 1_554 S
C1262 H1249 0.960 . S
C1262 C1261 1.524 . S
C1263 C1260 1.403 . S
C1263 C1264 1.392 . S
C1263 C1267 1.495 . S
C1264 C1263 1.392 . S
C1264 C1265 1.385 . S
C1264 C1266 1.478 . S
C1265 H1259 0.930 . S
C1265 C1261 1.400 . S
C1265 C1264 1.385 . S
C1266 C1264 1.478 . S
C1266 C1268 1.381 . S
C1266 C1272 1.383 . S
C1267 C1263 1.495 . S
C1267 H1273 0.959 . S
C1267 H1274 0.961 . S
C1267 H1275 0.960 . S
C1268 C1266 1.381 . S
C1268 C1269 1.394 . S
C1268 H1276 0.930 . S
C1269 C1268 1.394 . S
C1269 C1270 1.383 . S
C1269 H1277 0.929 . S
C1270 C1269 1.383 . S
C1270 C1271 1.377 . S
C1271 H1255 0.930 . S
C1271 C1270 1.377 . S
C1271 C1272 1.379 . S
C1272 H1256 0.931 . S
C1272 C1266 1.383 . S
C1272 C1271 1.379 . S
H1273 C1267 0.959 . S
H1274 C1267 0.961 . S
H1275 C1267 0.960 . S
H1276 C1268 0.930 . S
H1277 C1269 0.929 . S
H1278 C1286 0.929 . S
H1279 C1288 0.930 . S
H1280 C1290 0.930 . S
H1281 C1293 0.929 . S
H1282 C1296 0.930 . S
H1283 C1298 0.960 . S
H1284 C1298 0.960 . S
H1285 C1298 0.960 . S
C1286 H1278 0.929 . S
C1286 C1287 1.377 . S
C1286 C1288 1.384 . S
C1287 C1286 1.377 . S
C1287 C1293 1.390 . S
C1288 H1279 0.930 . S
C1288 C1286 1.384 . S
C1288 C1289 1.372 . S
C1289 C1288 1.372 . S
C1289 C1290 1.400 . S
C1289 C1294 1.490 . S
C1290 H1280 0.930 . S
C1290 C1289 1.400 . S
C1290 C1293 1.386 . S
H1291 C1307 0.930 . S
H1292 C1308 0.931 . S
C1293 H1281 0.929 . S
C1293 C1287 1.390 . S
C1293 C1290 1.386 . S
C1294 C1289 1.490 . S
C1294 C1296 1.395 . S
C1294 C1297 1.403 . S
H1295 C1301 0.930 . S
C1296 H1282 0.930 . S
C1296 C1294 1.395 . S
C1296 C1299 1.403 . S
C1297 C1294 1.403 . S
C1297 C1298 1.524 . S
C1297 C1301 1.400 . S
C1298 H1283 0.960 . S
C1298 H1284 0.960 . S
C1298 H1285 0.960 . S
C1298 C1297 1.524 . S
C1299 C1296 1.403 . S
C1299 C1300 1.392 . S
C1299 C1303 1.495 . S
C1300 C1299 1.392 . S
C1300 C1301 1.385 . S
C1300 C1302 1.478 . S
C1301 H1295 0.930 . S
C1301 C1297 1.400 . S
C1301 C1300 1.385 . S
C1302 C1300 1.478 . S
C1302 C1304 1.381 . S
C1302 C1308 1.383 . S
C1303 C1299 1.495 . S
C1303 H1309 0.959 . S
C1303 H1310 0.961 . S
C1303 H1311 0.960 . S
C1304 C1302 1.381 . S
C1304 C1305 1.394 . S
C1304 H1312 0.930 . S
C1305 C1304 1.394 . S
C1305 C1306 1.383 . S
C1305 H1313 0.929 1_554 S
C1306 C1305 1.383 . S
C1306 C1307 1.377 . S
C1307 H1291 0.930 . S
C1307 C1306 1.377 . S
C1307 C1308 1.379 . S
C1308 H1292 0.931 . S
C1308 C1302 1.383 . S
C1308 C1307 1.379 . S
H1309 C1303 0.959 . S
H1310 C1303 0.961 . S
H1311 C1303 0.960 . S
H1312 C1304 0.930 . S
H1313 C1305 0.929 1_556 S
H1314 C1322 0.929 . S
H1315 C1324 0.930 . S
H1316 C1326 0.930 . S
H1317 C1329 0.929 . S
H1318 C1332 0.930 . S
H1319 C1334 0.960 . S
H1320 C1334 0.960 . S
H1321 C1334 0.960 . S
C1322 H1314 0.929 . S
C1322 C1323 1.377 . S
C1322 C1324 1.384 . S
C1323 C1322 1.377 . S
C1323 C1329 1.390 . S
C1324 H1315 0.930 . S
C1324 C1322 1.384 . S
C1324 C1325 1.372 . S
C1325 C1324 1.372 . S
C1325 C1326 1.400 . S
C1325 C1330 1.490 . S
C1326 H1316 0.930 . S
C1326 C1325 1.400 . S
C1326 C1329 1.386 . S
H1327 C1343 0.930 . S
H1328 C1344 0.931 . S
C1329 H1317 0.929 . S
C1329 C1323 1.390 . S
C1329 C1326 1.386 . S
C1330 C1325 1.490 . S
C1330 C1332 1.395 . S
C1330 C1333 1.403 . S
H1331 C1337 0.930 . S
C1332 H1318 0.930 . S
C1332 C1330 1.395 . S
C1332 C1335 1.403 . S
C1333 C1330 1.403 . S
C1333 C1334 1.524 . S
C1333 C1337 1.400 . S
C1334 H1319 0.960 . S
C1334 H1320 0.960 . S
C1334 H1321 0.960 . S
C1334 C1333 1.524 . S
C1335 C1332 1.403 . S
C1335 C1336 1.392 . S
C1335 C1339 1.495 1_554 S
C1336 C1335 1.392 . S
C1336 C1337 1.385 . S
C1336 C1338 1.478 . S
C1337 H1331 0.930 . S
C1337 C1333 1.400 . S
C1337 C1336 1.385 . S
C1338 C1336 1.478 . S
C1338 C1340 1.381 . S
C1338 C1344 1.383 . S
C1339 C1335 1.495 1_556 S
C1339 H1345 0.959 . S
C1339 H1346 0.961 . S
C1339 H1347 0.960 . S
C1340 C1338 1.381 . S
C1340 C1341 1.394 . S
C1340 H1348 0.930 . S
C1341 C1340 1.394 . S
C1341 C1342 1.383 . S
C1341 H1349 0.929 . S
C1342 C1341 1.383 . S
C1342 C1343 1.377 . S
C1343 H1327 0.930 . S
C1343 C1342 1.377 . S
C1343 C1344 1.379 . S
C1344 H1328 0.931 . S
C1344 C1338 1.383 . S
C1344 C1343 1.379 . S
H1345 C1339 0.959 . S
H1346 C1339 0.961 . S
H1347 C1339 0.960 . S
H1348 C1340 0.930 . S
H1349 C1341 0.929 . S
H1350 C1358 0.929 . S
H1351 C1360 0.930 . S
H1352 C1362 0.930 . S
H1353 C1365 0.929 . S
H1354 C1368 0.930 . S
H1355 C1370 0.960 . S
H1356 C1370 0.960 . S
H1357 C1370 0.960 . S
C1358 H1350 0.929 . S
C1358 C1359 1.377 . S
C1358 C1360 1.384 . S
C1359 C1358 1.377 . S
C1359 C1365 1.390 . S
C1360 H1351 0.930 . S
C1360 C1358 1.384 . S
C1360 C1361 1.372 . S
C1361 C1360 1.372 . S
C1361 C1362 1.400 . S
C1361 C1366 1.490 . S
C1362 H1352 0.930 . S
C1362 C1361 1.400 . S
C1362 C1365 1.386 . S
H1363 C1379 0.930 . S
H1364 C1380 0.931 . S
C1365 H1353 0.929 . S
C1365 C1359 1.390 . S
C1365 C1362 1.386 . S
C1366 C1361 1.490 . S
C1366 C1368 1.395 . S
C1366 C1369 1.403 . S
H1367 C1373 0.930 . S
C1368 H1354 0.930 . S
C1368 C1366 1.395 . S
C1368 C1371 1.403 . S
C1369 C1366 1.403 . S
C1369 C1370 1.524 . S
C1369 C1373 1.400 . S
C1370 H1355 0.960 . S
C1370 H1356 0.960 . S
C1370 H1357 0.960 . S
C1370 C1369 1.524 . S
C1371 C1368 1.403 . S
C1371 C1372 1.392 . S
C1371 C1375 1.495 . S
C1372 C1371 1.392 . S
C1372 C1373 1.385 . S
C1372 C1374 1.478 . S
C1373 H1367 0.930 . S
C1373 C1369 1.400 . S
C1373 C1372 1.385 . S
C1374 C1372 1.478 . S
C1374 C1376 1.381 . S
C1374 C1380 1.383 . S
C1375 C1371 1.495 . S
C1375 H1381 0.959 . S
C1375 H1382 0.961 . S
C1375 H1383 0.960 . S
C1376 C1374 1.381 . S
C1376 C1377 1.394 . S
C1376 H1384 0.930 . S
C1377 C1376 1.394 . S
C1377 C1378 1.383 . S
C1377 H1385 0.929 . S
C1378 C1377 1.383 . S
C1378 C1379 1.377 . S
C1379 H1363 0.930 . S
C1379 C1378 1.377 . S
C1379 C1380 1.379 . S
C1380 H1364 0.931 . S
C1380 C1374 1.383 . S
C1380 C1379 1.379 . S
H1381 C1375 0.959 . S
H1382 C1375 0.961 . S
H1383 C1375 0.960 . S
H1384 C1376 0.930 . S
H1385 C1377 0.929 . S
H1386 C1394 0.929 . S
H1387 C1396 0.930 . S
H1388 C1398 0.930 . S
H1389 C1401 0.929 . S
H1390 C1404 0.930 . S
H1391 C1406 0.960 . S
H1392 C1406 0.960 . S
H1393 C1406 0.960 . S
C1394 H1386 0.929 . S
C1394 C1395 1.377 . S
C1394 C1396 1.384 . S
C1395 C1394 1.377 . S
C1395 C1401 1.390 . S
C1396 H1387 0.930 . S
C1396 C1394 1.384 . S
C1396 C1397 1.372 . S
C1397 C1396 1.372 . S
C1397 C1398 1.400 . S
C1397 C1402 1.490 . S
C1398 H1388 0.930 . S
C1398 C1397 1.400 . S
C1398 C1401 1.386 . S
H1399 C1415 0.930 . S
H1400 C1416 0.931 . S
C1401 H1389 0.929 . S
C1401 C1395 1.390 . S
C1401 C1398 1.386 . S
C1402 C1397 1.490 . S
C1402 C1404 1.395 . S
C1402 C1405 1.403 . S
H1403 C1409 0.930 . S
C1404 H1390 0.930 . S
C1404 C1402 1.395 . S
C1404 C1407 1.403 . S
C1405 C1402 1.403 . S
C1405 C1406 1.524 . S
C1405 C1409 1.400 . S
C1406 H1391 0.960 . S
C1406 H1392 0.960 . S
C1406 H1393 0.960 . S
C1406 C1405 1.524 . S
C1407 C1404 1.403 . S
C1407 C1408 1.392 . S
C1407 C1411 1.495 . S
C1408 C1407 1.392 . S
C1408 C1409 1.385 . S
C1408 C1410 1.478 . S
C1409 H1403 0.930 . S
C1409 C1405 1.400 . S
C1409 C1408 1.385 . S
C1410 C1408 1.478 . S
C1410 C1412 1.381 . S
C1410 C1416 1.383 . S
C1411 C1407 1.495 . S
C1411 H1417 0.959 . S
C1411 H1418 0.961 . S
C1411 H1419 0.960 . S
C1412 C1410 1.381 . S
C1412 C1413 1.394 . S
C1412 H1420 0.930 . S
C1413 C1412 1.394 . S
C1413 C1414 1.383 . S
C1413 H1421 0.929 . S
C1414 C1413 1.383 . S
C1414 C1415 1.377 . S
C1415 H1399 0.930 . S
C1415 C1414 1.377 . S
C1415 C1416 1.379 . S
C1416 H1400 0.931 . S
C1416 C1410 1.383 . S
C1416 C1415 1.379 . S
H1417 C1411 0.959 . S
H1418 C1411 0.961 . S
H1419 C1411 0.960 . S
H1420 C1412 0.930 . S
H1421 C1413 0.929 . S
H1422 C1430 0.929 . S
H1423 C1432 0.930 . S
H1424 C1434 0.930 . S
H1425 C1437 0.929 . S
H1426 C1440 0.930 . S
H1427 C1442 0.960 . S
H1428 C1442 0.960 . S
H1429 C1442 0.960 . S
C1430 H1422 0.929 . S
C1430 C1431 1.377 . S
C1430 C1432 1.384 . S
C1431 C1430 1.377 . S
C1431 C1437 1.390 . S
C1432 H1423 0.930 . S
C1432 C1430 1.384 . S
C1432 C1433 1.372 . S
C1433 C1432 1.372 . S
C1433 C1434 1.400 . S
C1433 C1438 1.490 . S
C1434 H1424 0.930 . S
C1434 C1433 1.400 . S
C1434 C1437 1.386 . S
H1435 C1451 0.930 . S
H1436 C1452 0.931 . S
C1437 H1425 0.929 . S
C1437 C1431 1.390 . S
C1437 C1434 1.386 . S
C1438 C1433 1.490 . S
C1438 C1440 1.395 . S
C1438 C1441 1.403 . S
H1439 C1445 0.930 . S
C1440 H1426 0.930 . S
C1440 C1438 1.395 . S
C1440 C1443 1.403 . S
C1441 C1438 1.403 . S
C1441 C1442 1.524 . S
C1441 C1445 1.400 . S
C1442 H1427 0.960 . S
C1442 H1428 0.960 . S
C1442 H1429 0.960 . S
C1442 C1441 1.524 . S
C1443 C1440 1.403 . S
C1443 C1444 1.392 . S
C1443 C1447 1.495 . S
C1444 C1443 1.392 . S
C1444 C1445 1.385 . S
C1444 C1446 1.478 . S
C1445 H1439 0.930 . S
C1445 C1441 1.400 . S
C1445 C1444 1.385 . S
C1446 C1444 1.478 . S
C1446 C1448 1.381 . S
C1446 C1452 1.383 . S
C1447 C1443 1.495 . S
C1447 H1453 0.959 . S
C1447 H1454 0.961 . S
C1447 H1455 0.960 . S
C1448 C1446 1.381 . S
C1448 C1449 1.394 . S
C1448 H1456 0.930 . S
C1449 C1448 1.394 . S
C1449 C1450 1.383 . S
C1449 H1457 0.929 . S
C1450 C1449 1.383 . S
C1450 C1451 1.377 . S
C1451 H1435 0.930 . S
C1451 C1450 1.377 . S
C1451 C1452 1.379 . S
C1452 H1436 0.931 . S
C1452 C1446 1.383 . S
C1452 C1451 1.379 . S
H1453 C1447 0.959 . S
H1454 C1447 0.961 . S
H1455 C1447 0.960 . S
H1456 C1448 0.930 . S
H1457 C1449 0.929 . S
H1458 C1466 0.929 . S
H1459 C1468 0.930 . S
H1460 C1470 0.930 . S
H1461 C1473 0.929 . S
H1462 C1476 0.930 . S
H1463 C1478 0.960 . S
H1464 C1478 0.960 . S
H1465 C1478 0.960 . S
C1466 H1458 0.929 . S
C1466 C1467 1.377 . S
C1466 C1468 1.384 . S
C1467 C1466 1.377 . S
C1467 C1473 1.390 . S
C1468 H1459 0.930 . S
C1468 C1466 1.384 . S
C1468 C1469 1.372 . S
C1469 C1468 1.372 . S
C1469 C1470 1.400 . S
C1469 C1474 1.490 . S
C1470 H1460 0.930 . S
C1470 C1469 1.400 . S
C1470 C1473 1.386 . S
H1471 C1487 0.930 . S
H1472 C1488 0.931 . S
C1473 H1461 0.929 . S
C1473 C1467 1.390 . S
C1473 C1470 1.386 . S
C1474 C1469 1.490 . S
C1474 C1476 1.395 . S
C1474 C1477 1.403 . S
H1475 C1481 0.930 . S
C1476 H1462 0.930 . S
C1476 C1474 1.395 . S
C1476 C1479 1.403 . S
C1477 C1474 1.403 . S
C1477 C1478 1.524 . S
C1477 C1481 1.400 . S
C1478 H1463 0.960 . S
C1478 H1464 0.960 . S
C1478 H1465 0.960 . S
C1478 C1477 1.524 . S
C1479 C1476 1.403 . S
C1479 C1480 1.392 . S
C1479 C1483 1.495 . S
C1480 C1479 1.392 . S
C1480 C1481 1.385 . S
C1480 C1482 1.478 . S
C1481 H1475 0.930 . S
C1481 C1477 1.400 . S
C1481 C1480 1.385 . S
C1482 C1480 1.478 . S
C1482 C1484 1.381 . S
C1482 C1488 1.383 . S
C1483 C1479 1.495 . S
C1483 H1489 0.959 . S
C1483 H1490 0.961 . S
C1483 H1491 0.960 . S
C1484 C1482 1.381 . S
C1484 C1485 1.394 . S
C1484 H1492 0.930 . S
C1485 C1484 1.394 . S
C1485 C1486 1.383 . S
C1485 H1493 0.929 . S
C1486 C1485 1.383 . S
C1486 C1487 1.377 . S
C1487 H1471 0.930 . S
C1487 C1486 1.377 . S
C1487 C1488 1.379 . S
C1488 H1472 0.931 . S
C1488 C1482 1.383 . S
C1488 C1487 1.379 . S
H1489 C1483 0.959 . S
H1490 C1483 0.961 . S
H1491 C1483 0.960 . S
H1492 C1484 0.930 . S
H1493 C1485 0.929 . S
H1494 C1502 0.929 . S
H1495 C1504 0.930 . S
H1496 C1506 0.930 . S
H1497 C1509 0.929 . S
H1498 C1512 0.930 . S
H1499 C1514 0.960 . S
H1500 C1514 0.960 . S
H1501 C1514 0.960 . S
C1502 H1494 0.929 . S
C1502 C1503 1.377 . S
C1502 C1504 1.384 . S
C1503 C1502 1.377 . S
C1503 C1509 1.390 . S
C1504 H1495 0.930 . S
C1504 C1502 1.384 . S
C1504 C1505 1.372 . S
C1505 C1504 1.372 . S
C1505 C1506 1.400 . S
C1505 C1510 1.490 . S
C1506 H1496 0.930 . S
C1506 C1505 1.400 . S
C1506 C1509 1.386 . S
H1507 C1523 0.930 . S
H1508 C1524 0.931 . S
C1509 H1497 0.929 . S
C1509 C1503 1.390 . S
C1509 C1506 1.386 . S
C1510 C1505 1.490 . S
C1510 C1512 1.395 . S
C1510 C1513 1.403 . S
H1511 C1517 0.930 . S
C1512 H1498 0.930 . S
C1512 C1510 1.395 . S
C1512 C1515 1.403 . S
C1513 C1510 1.403 . S
C1513 C1514 1.524 . S
C1513 C1517 1.400 . S
C1514 H1499 0.960 . S
C1514 H1500 0.960 . S
C1514 H1501 0.960 . S
C1514 C1513 1.524 . S
C1515 C1512 1.403 . S
C1515 C1516 1.392 . S
C1515 C1519 1.495 . S
C1516 C1515 1.392 . S
C1516 C1517 1.385 . S
C1516 C1518 1.478 . S
C1517 H1511 0.930 . S
C1517 C1513 1.400 . S
C1517 C1516 1.385 . S
C1518 C1516 1.478 . S
C1518 C1520 1.381 . S
C1518 C1524 1.383 . S
C1519 C1515 1.495 . S
C1519 H1525 0.959 . S
C1519 H1526 0.961 . S
C1519 H1527 0.960 . S
C1520 C1518 1.381 . S
C1520 C1521 1.394 . S
C1520 H1528 0.930 . S
C1521 C1520 1.394 . S
C1521 C1522 1.383 . S
C1521 H1529 0.929 . S
C1522 C1521 1.383 . S
C1522 C1523 1.377 . S
C1523 H1507 0.930 . S
C1523 C1522 1.377 . S
C1523 C1524 1.379 . S
C1524 H1508 0.931 . S
C1524 C1518 1.383 . S
C1524 C1523 1.379 . S
H1525 C1519 0.959 . S
H1526 C1519 0.961 . S
H1527 C1519 0.960 . S
H1528 C1520 0.930 . S
H1529 C1521 0.929 . S
H1530 C1538 0.929 . S
H1531 C1540 0.930 . S
H1532 C1542 0.930 . S
H1533 C1545 0.929 . S
H1534 C1548 0.930 . S
H1535 C1550 0.960 . S
H1536 C1550 0.960 . S
H1537 C1550 0.960 . S
C1538 H1530 0.929 . S
C1538 C1539 1.377 . S
C1538 C1540 1.384 . S
C1539 C1538 1.377 . S
C1539 C1545 1.390 . S
C1540 H1531 0.930 . S
C1540 C1538 1.384 . S
C1540 C1541 1.372 . S
C1541 C1540 1.372 . S
C1541 C1542 1.400 . S
C1541 C1546 1.490 . S
C1542 H1532 0.930 . S
C1542 C1541 1.400 . S
C1542 C1545 1.386 . S
H1543 C1559 0.930 . S
H1544 C1560 0.931 . S
C1545 H1533 0.929 . S
C1545 C1539 1.390 . S
C1545 C1542 1.386 . S
C1546 C1541 1.490 . S
C1546 C1548 1.395 . S
C1546 C1549 1.403 . S
H1547 C1553 0.930 . S
C1548 H1534 0.930 . S
C1548 C1546 1.395 . S
C1548 C1551 1.403 . S
C1549 C1546 1.403 . S
C1549 C1550 1.524 . S
C1549 C1553 1.400 . S
C1550 H1535 0.960 . S
C1550 H1536 0.960 . S
C1550 H1537 0.960 . S
C1550 C1549 1.524 . S
C1551 C1548 1.403 . S
C1551 C1552 1.392 . S
C1551 C1555 1.495 . S
C1552 C1551 1.392 . S
C1552 C1553 1.385 . S
C1552 C1554 1.478 . S
C1553 H1547 0.930 . S
C1553 C1549 1.400 . S
C1553 C1552 1.385 . S
C1554 C1552 1.478 . S
C1554 C1556 1.381 . S
C1554 C1560 1.383 . S
C1555 C1551 1.495 . S
C1555 H1561 0.959 . S
C1555 H1562 0.961 . S
C1555 H1563 0.960 . S
C1556 C1554 1.381 . S
C1556 C1557 1.394 . S
C1556 H1564 0.930 . S
C1557 C1556 1.394 . S
C1557 C1558 1.383 . S
C1557 H1565 0.929 . S
C1558 C1557 1.383 . S
C1558 C1559 1.377 . S
C1559 H1543 0.930 . S
C1559 C1558 1.377 . S
C1559 C1560 1.379 . S
C1560 H1544 0.931 . S
C1560 C1554 1.383 . S
C1560 C1559 1.379 . S
H1561 C1555 0.959 . S
H1562 C1555 0.961 . S
H1563 C1555 0.960 . S
H1564 C1556 0.930 . S
H1565 C1557 0.929 . S
H1566 C1574 0.929 . S
H1567 C1576 0.930 . S
H1568 C1578 0.930 . S
H1569 C1581 0.929 . S
H1570 C1584 0.930 . S
H1571 C1586 0.960 . S
H1572 C1586 0.960 . S
H1573 C1586 0.960 . S
C1574 H1566 0.929 . S
C1574 C1575 1.377 . S
C1574 C1576 1.384 . S
C1575 C1574 1.377 . S
C1575 C1581 1.390 . S
C1576 H1567 0.930 . S
C1576 C1574 1.384 . S
C1576 C1577 1.372 . S
C1577 C1576 1.372 . S
C1577 C1578 1.400 . S
C1577 C1582 1.490 . S
C1578 H1568 0.930 . S
C1578 C1577 1.400 . S
C1578 C1581 1.386 . S
H1579 C1595 0.930 . S
H1580 C1596 0.931 . S
C1581 H1569 0.929 . S
C1581 C1575 1.390 . S
C1581 C1578 1.386 . S
C1582 C1577 1.490 . S
C1582 C1584 1.395 . S
C1582 C1585 1.403 . S
H1583 C1589 0.930 . S
C1584 H1570 0.930 . S
C1584 C1582 1.395 . S
C1584 C1587 1.403 . S
C1585 C1582 1.403 . S
C1585 C1586 1.524 . S
C1585 C1589 1.400 . S
C1586 H1571 0.960 . S
C1586 H1572 0.960 . S
C1586 H1573 0.960 . S
C1586 C1585 1.524 . S
C1587 C1584 1.403 . S
C1587 C1588 1.392 . S
C1587 C1591 1.495 . S
C1588 C1587 1.392 . S
C1588 C1589 1.385 . S
C1588 C1590 1.478 . S
C1589 H1583 0.930 . S
C1589 C1585 1.400 . S
C1589 C1588 1.385 . S
C1590 C1588 1.478 . S
C1590 C1592 1.381 . S
C1590 C1596 1.383 . S
C1591 C1587 1.495 . S
C1591 H1597 0.959 . S
C1591 H1598 0.961 . S
C1591 H1599 0.960 . S
C1592 C1590 1.381 . S
C1592 C1593 1.394 . S
C1592 H1600 0.930 . S
C1593 C1592 1.394 . S
C1593 C1594 1.383 . S
C1593 H1601 0.929 . S
C1594 C1593 1.383 . S
C1594 C1595 1.377 . S
C1595 H1579 0.930 . S
C1595 C1594 1.377 . S
C1595 C1596 1.379 . S
C1596 H1580 0.931 . S
C1596 C1590 1.383 . S
C1596 C1595 1.379 . S
H1597 C1591 0.959 . S
H1598 C1591 0.961 . S
H1599 C1591 0.960 . S
H1600 C1592 0.930 . S
H1601 C1593 0.929 . S
H1602 C1610 0.929 . S
H1603 C1612 0.930 . S
H1604 C1614 0.930 . S
H1605 C1617 0.929 . S
H1606 C1620 0.930 . S
H1607 C1622 0.960 . S
H1608 C1622 0.960 . S
H1609 C1622 0.960 . S
C1610 H1602 0.929 . S
C1610 C1611 1.377 . S
C1610 C1612 1.384 . S
C1611 C1610 1.377 . S
C1611 C1617 1.390 . S
C1612 H1603 0.930 . S
C1612 C1610 1.384 . S
C1612 C1613 1.372 . S
C1613 C1612 1.372 . S
C1613 C1614 1.400 . S
C1613 C1618 1.490 . S
C1614 H1604 0.930 . S
C1614 C1613 1.400 . S
C1614 C1617 1.386 . S
H1615 C1631 0.930 . S
H1616 C1632 0.931 . S
C1617 H1605 0.929 . S
C1617 C1611 1.390 . S
C1617 C1614 1.386 . S
C1618 C1613 1.490 . S
C1618 C1620 1.395 . S
C1618 C1621 1.403 . S
H1619 C1625 0.930 . S
C1620 H1606 0.930 . S
C1620 C1618 1.395 . S
C1620 C1623 1.403 . S
C1621 C1618 1.403 . S
C1621 C1622 1.524 . S
C1621 C1625 1.400 . S
C1622 H1607 0.960 . S
C1622 H1608 0.960 . S
C1622 H1609 0.960 . S
C1622 C1621 1.524 . S
C1623 C1620 1.403 . S
C1623 C1624 1.392 . S
C1623 C1627 1.495 . S
C1624 C1623 1.392 . S
C1624 C1625 1.385 . S
C1624 C1626 1.478 . S
C1625 H1619 0.930 . S
C1625 C1621 1.400 . S
C1625 C1624 1.385 . S
C1626 C1624 1.478 . S
C1626 C1628 1.381 . S
C1626 C1632 1.383 . S
C1627 C1623 1.495 . S
C1627 H1633 0.959 . S
C1627 H1634 0.961 . S
C1627 H1635 0.960 . S
C1628 C1626 1.381 . S
C1628 C1629 1.394 . S
C1628 H1636 0.930 . S
C1629 C1628 1.394 . S
C1629 C1630 1.383 . S
C1629 H1637 0.929 . S
C1630 C1629 1.383 . S
C1630 C1631 1.377 . S
C1631 H1615 0.930 . S
C1631 C1630 1.377 . S
C1631 C1632 1.379 . S
C1632 H1616 0.931 . S
C1632 C1626 1.383 . S
C1632 C1631 1.379 . S
H1633 C1627 0.959 . S
H1634 C1627 0.961 . S
H1635 C1627 0.960 . S
H1636 C1628 0.930 . S
H1637 C1629 0.929 . S
H1638 C1646 0.929 . S
H1639 C1648 0.930 . S
H1640 C1650 0.930 . S
H1641 C1653 0.929 . S
H1642 C1656 0.930 . S
H1643 C1658 0.960 . S
H1644 C1658 0.960 . S
H1645 C1658 0.960 . S
C1646 H1638 0.929 . S
C1646 C1647 1.377 . S
C1646 C1648 1.384 . S
C1647 C1646 1.377 . S
C1647 C1653 1.390 . S
C1648 H1639 0.930 . S
C1648 C1646 1.384 . S
C1648 C1649 1.372 . S
C1649 C1648 1.372 . S
C1649 C1650 1.400 . S
C1649 C1654 1.490 . S
C1650 H1640 0.930 . S
C1650 C1649 1.400 . S
C1650 C1653 1.386 . S
H1651 C1667 0.930 . S
H1652 C1668 0.931 . S
C1653 H1641 0.929 . S
C1653 C1647 1.390 . S
C1653 C1650 1.386 . S
C1654 C1649 1.490 . S
C1654 C1656 1.395 . S
C1654 C1657 1.403 . S
H1655 C1661 0.930 . S
C1656 H1642 0.930 . S
C1656 C1654 1.395 . S
C1656 C1659 1.403 . S
C1657 C1654 1.403 . S
C1657 C1658 1.524 . S
C1657 C1661 1.400 . S
C1658 H1643 0.960 . S
C1658 H1644 0.960 . S
C1658 H1645 0.960 . S
C1658 C1657 1.524 . S
C1659 C1656 1.403 . S
C1659 C1660 1.392 . S
C1659 C1663 1.495 . S
C1660 C1659 1.392 . S
C1660 C1661 1.385 . S
C1660 C1662 1.478 . S
C1661 H1655 0.930 . S
C1661 C1657 1.400 . S
C1661 C1660 1.385 . S
C1662 C1660 1.478 . S
C1662 C1664 1.381 . S
C1662 C1668 1.383 . S
C1663 C1659 1.495 . S
C1663 H1669 0.959 . S
C1663 H1670 0.961 1_545 S
C1663 H1671 0.960 . S
C1664 C1662 1.381 . S
C1664 C1665 1.394 . S
C1664 H1672 0.930 . S
C1665 C1664 1.394 . S
C1665 C1666 1.383 1_545 S
C1665 H1673 0.929 . S
C1666 C1665 1.383 1_565 S
C1666 C1667 1.377 . S
C1667 H1651 0.930 . S
C1667 C1666 1.377 . S
C1667 C1668 1.379 1_565 S
C1668 H1652 0.931 . S
C1668 C1662 1.383 . S
C1668 C1667 1.379 1_545 S
H1669 C1663 0.959 . S
H1670 C1663 0.961 1_565 S
H1671 C1663 0.960 . S
H1672 C1664 0.930 . S
H1673 C1665 0.929 . S
H1674 C1682 0.929 . S
H1675 C1684 0.930 1_556 S
H1676 C1686 0.930 . S
H1677 C1689 0.929 . S
H1678 C1692 0.930 1_554 S
H1679 C1694 0.960 . S
H1680 C1694 0.960 . S
H1681 C1694 0.960 . S
C1682 H1674 0.929 . S
C1682 C1683 1.377 . S
C1682 C1684 1.384 . S
C1683 C1682 1.377 . S
C1683 C1689 1.390 . S
C1684 H1675 0.930 1_554 S
C1684 C1682 1.384 . S
C1684 C1685 1.372 . S
C1685 C1684 1.372 . S
C1685 C1686 1.400 . S
C1685 C1690 1.490 1_554 S
C1686 H1676 0.930 . S
C1686 C1685 1.400 . S
C1686 C1689 1.386 . S
H1687 C1703 0.930 . S
H1688 C1704 0.931 . S
C1689 H1677 0.929 . S
C1689 C1683 1.390 . S
C1689 C1686 1.386 . S
C1690 C1685 1.490 1_556 S
C1690 C1692 1.395 . S
C1690 C1693 1.403 . S
H1691 C1697 0.930 . S
C1692 H1678 0.930 1_556 S
C1692 C1690 1.395 . S
C1692 C1695 1.403 . S
C1693 C1690 1.403 . S
C1693 C1694 1.524 . S
C1693 C1697 1.400 . S
C1694 H1679 0.960 . S
C1694 H1680 0.960 . S
C1694 H1681 0.960 . S
C1694 C1693 1.524 . S
C1695 C1692 1.403 . S
C1695 C1696 1.392 . S
C1695 C1699 1.495 . S
C1696 C1695 1.392 . S
C1696 C1697 1.385 . S
C1696 C1698 1.478 . S
C1697 H1691 0.930 . S
C1697 C1693 1.400 . S
C1697 C1696 1.385 . S
C1698 C1696 1.478 . S
C1698 C1700 1.381 . S
C1698 C1704 1.383 . S
C1699 C1695 1.495 . S
C1699 H1705 0.959 1_556 S
C1699 H1706 0.961 1_556 S
C1699 H1707 0.960 . S
C1700 C1698 1.381 . S
C1700 C1701 1.394 . S
C1700 H1708 0.930 . S
C1701 C1700 1.394 . S
C1701 C1702 1.383 . S
C1701 H1709 0.929 . S
C1702 C1701 1.383 . S
C1702 C1703 1.377 . S
C1703 H1687 0.930 . S
C1703 C1702 1.377 . S
C1703 C1704 1.379 . S
C1704 H1688 0.931 . S
C1704 C1698 1.383 . S
C1704 C1703 1.379 . S
H1705 C1699 0.959 1_554 S
H1706 C1699 0.961 1_554 S
H1707 C1699 0.960 . S
H1708 C1700 0.930 . S
H1709 C1701 0.929 . S
H1710 C1718 0.929 . S
H1711 C1720 0.930 . S
H1712 C1722 0.930 . S
H1713 C1725 0.929 . S
H1714 C1728 0.930 1_554 S
H1715 C1730 0.960 . S
H1716 C1730 0.960 . S
H1717 C1730 0.960 . S
C1718 H1710 0.929 . S
C1718 C1719 1.377 . S
C1718 C1720 1.384 . S
C1719 C1718 1.377 . S
C1719 C1725 1.390 1_554 S
C1720 H1711 0.930 . S
C1720 C1718 1.384 . S
C1720 C1721 1.372 1_554 S
C1721 C1720 1.372 1_556 S
C1721 C1722 1.400 . S
C1721 C1726 1.490 . S
C1722 H1712 0.930 . S
C1722 C1721 1.400 . S
C1722 C1725 1.386 . S
H1723 C1739 0.930 . S
H1724 C1740 0.931 . S
C1725 H1713 0.929 . S
C1725 C1719 1.390 1_556 S
C1725 C1722 1.386 . S
C1726 C1721 1.490 . S
C1726 C1728 1.395 . S
C1726 C1729 1.403 . S
H1727 C1733 0.930 . S
C1728 H1714 0.930 1_556 S
C1728 C1726 1.395 . S
C1728 C1731 1.403 . S
C1729 C1726 1.403 . S
C1729 C1730 1.524 . S
C1729 C1733 1.400 . S
C1730 H1715 0.960 . S
C1730 H1716 0.960 . S
C1730 H1717 0.960 . S
C1730 C1729 1.524 . S
C1731 C1728 1.403 . S
C1731 C1732 1.392 . S
C1731 C1735 1.495 . S
C1732 C1731 1.392 . S
C1732 C1733 1.385 . S
C1732 C1734 1.478 . S
C1733 H1727 0.930 . S
C1733 C1729 1.400 . S
C1733 C1732 1.385 . S
C1734 C1732 1.478 . S
C1734 C1736 1.381 . S
C1734 C1740 1.383 1_455 S
C1735 C1731 1.495 . S
C1735 H1741 0.959 1_556 S
C1735 H1742 0.989 . S
C1735 H1743 0.960 . S
C1736 C1734 1.381 . S
C1736 C1737 1.394 . S
C1736 H1744 0.930 . S
C1737 C1736 1.394 . S
C1737 C1738 1.383 1_455 S
C1737 H1745 0.929 . S
C1738 C1737 1.383 1_655 S
C1738 C1739 1.377 . S
C1739 H1723 0.930 . S
C1739 C1738 1.377 . S
C1739 C1740 1.379 . S
C1740 H1724 0.931 . S
C1740 C1734 1.383 1_655 S
C1740 C1739 1.379 . S
H1741 C1735 0.959 1_554 S
H1742 C1735 0.989 . S
H1743 C1735 0.960 . S
H1744 C1736 0.930 . S
H1745 C1737 0.929 . S
H1746 C1754 0.929 . S
H1747 C1756 0.930 . S
H1748 C1758 0.930 . S
H1749 C1761 0.929 . S
H1750 C1764 0.930 . S
H1751 C1766 0.960 . S
H1752 C1766 0.960 . S
H1753 C1766 0.960 . S
C1754 H1746 0.929 . S
C1754 C1755 1.377 . S
C1754 C1756 1.384 . S
C1755 C1754 1.377 . S
C1755 C1761 1.390 . S
C1756 H1747 0.930 . S
C1756 C1754 1.384 . S
C1756 C1757 1.372 . S
C1757 C1756 1.372 . S
C1757 C1758 1.400 . S
C1757 C1762 1.490 . S
C1758 H1748 0.930 . S
C1758 C1757 1.400 . S
C1758 C1761 1.386 . S
H1759 C1775 0.930 . S
H1760 C1776 0.931 . S
C1761 H1749 0.929 . S
C1761 C1755 1.390 . S
C1761 C1758 1.386 . S
C1762 C1757 1.490 . S
C1762 C1764 1.395 . S
C1762 C1765 1.403 . S
H1763 C1769 0.930 . S
C1764 H1750 0.930 . S
C1764 C1762 1.395 . S
C1764 C1767 1.403 . S
C1765 C1762 1.403 . S
C1765 C1766 1.524 . S
C1765 C1769 1.400 . S
C1766 H1751 0.960 . S
C1766 H1752 0.960 . S
C1766 H1753 0.960 . S
C1766 C1765 1.524 . S
C1767 C1764 1.403 . S
C1767 C1768 1.392 . S
C1767 C1771 1.495 1_556 S
C1768 C1767 1.392 . S
C1768 C1769 1.385 . S
C1768 C1770 1.478 . S
C1769 H1763 0.930 . S
C1769 C1765 1.400 . S
C1769 C1768 1.385 . S
C1770 C1768 1.478 . S
C1770 C1772 1.381 . S
C1770 C1776 1.383 1_556 S
C1771 C1767 1.495 1_554 S
C1771 H1777 0.959 . S
C1771 H1778 0.961 . S
C1771 H1779 0.960 1_554 S
C1772 C1770 1.381 . S
C1772 C1773 1.394 . S
C1772 H1780 0.930 . S
C1773 C1772 1.394 . S
C1773 C1774 1.383 1_556 S
C1773 H1781 0.929 . S
C1774 C1773 1.383 1_554 S
C1774 C1775 1.377 . S
C1775 H1759 0.930 . S
C1775 C1774 1.377 . S
C1775 C1776 1.379 . S
C1776 H1760 0.931 . S
C1776 C1770 1.383 1_554 S
C1776 C1775 1.379 . S
H1777 C1771 0.959 . S
H1778 C1771 0.961 . S
H1779 C1771 0.960 1_556 S
H1780 C1772 0.930 . S
H1781 C1773 0.929 . S
H1782 C1790 0.929 . S
H1783 C1792 0.930 . S
H1784 C1794 0.930 . S
H1785 C1797 0.929 . S
H1786 C1800 0.930 . S
H1787 C1802 0.960 . S
H1788 C1802 0.960 . S
H1789 C1802 0.960 . S
C1790 H1782 0.929 . S
C1790 C1791 1.377 . S
C1790 C1792 1.384 1_554 S
C1791 C1790 1.377 . S
C1791 C1797 1.390 1_554 S
C1792 H1783 0.930 . S
C1792 C1790 1.384 1_556 S
C1792 C1793 1.372 . S
C1793 C1792 1.372 . S
C1793 C1794 1.400 . S
C1793 C1798 1.490 . S
C1794 H1784 0.930 . S
C1794 C1793 1.400 . S
C1794 C1797 1.386 . S
H1795 C1811 0.930 . S
H1796 C1812 0.931 . S
C1797 H1785 0.929 . S
C1797 C1791 1.390 1_556 S
C1797 C1794 1.386 . S
C1798 C1793 1.490 . S
C1798 C1800 1.395 . S
C1798 C1801 1.403 . S
H1799 C1805 0.930 . S
C1800 H1786 0.930 . S
C1800 C1798 1.395 . S
C1800 C1803 1.403 . S
C1801 C1798 1.403 . S
C1801 C1802 1.524 . S
C1801 C1805 1.400 . S
C1802 H1787 0.960 . S
C1802 H1788 0.960 . S
C1802 H1789 0.960 . S
C1802 C1801 1.524 . S
C1803 C1800 1.403 . S
C1803 C1804 1.392 . S
C1803 C1807 1.495 . S
C1804 C1803 1.392 . S
C1804 C1805 1.385 . S
C1804 C1806 1.478 . S
C1805 H1799 0.930 . S
C1805 C1801 1.400 . S
C1805 C1804 1.385 . S
C1806 C1804 1.478 . S
C1806 C1808 1.381 . S
C1806 C1812 1.383 . S
C1807 C1803 1.495 . S
C1807 H1813 0.959 1_556 S
C1807 H1814 0.961 . S
C1807 H1815 0.960 . S
C1808 C1806 1.381 . S
C1808 C1809 1.394 1_455 S
C1808 H1816 0.930 1_455 S
C1809 C1808 1.394 1_655 S
C1809 C1810 1.383 1_655 S
C1809 H1817 0.929 . S
C1810 C1809 1.383 1_455 S
C1810 C1811 1.374 . S
C1811 H1795 0.930 . S
C1811 C1810 1.374 . S
C1811 C1812 1.379 . S
C1812 H1796 0.931 . S
C1812 C1806 1.383 . S
C1812 C1811 1.379 . S
H1813 C1807 0.959 1_554 S
H1814 C1807 0.961 . S
H1815 C1807 0.960 . S
H1816 C1808 0.930 1_655 S
H1817 C1809 0.929 . S
H1818 C1826 0.929 . S
H1819 C1828 0.930 . S
H1820 C1830 0.930 . S
H1821 C1833 0.929 . S
H1822 C1836 0.930 . S
H1823 C1838 0.960 . S
H1824 C1838 0.960 . S
H1825 C1838 0.960 . S
C1826 H1818 0.929 . S
C1826 C1827 1.377 . S
C1826 C1828 1.384 . S
C1827 C1826 1.377 . S
C1827 C1833 1.390 . S
C1828 H1819 0.930 . S
C1828 C1826 1.384 . S
C1828 C1829 1.372 1_554 S
C1829 C1828 1.372 1_556 S
C1829 C1830 1.400 . S
C1829 C1834 1.490 . S
C1830 H1820 0.930 . S
C1830 C1829 1.400 . S
C1830 C1833 1.386 1_556 S
H1831 C1847 0.930 . S
H1832 C1848 0.931 . S
C1833 H1821 0.929 . S
C1833 C1827 1.390 . S
C1833 C1830 1.386 1_554 S
C1834 C1829 1.490 . S
C1834 C1836 1.395 1_556 S
C1834 C1837 1.403 . S
H1835 C1841 0.930 . S
C1836 H1822 0.930 . S
C1836 C1834 1.395 1_554 S
C1836 C1839 1.403 1_554 S
C1837 C1834 1.403 . S
C1837 C1838 1.524 . S
C1837 C1841 1.400 . S
C1838 H1823 0.960 . S
C1838 H1824 0.960 . S
C1838 H1825 0.960 . S
C1838 C1837 1.524 . S
C1839 C1836 1.403 1_556 S
C1839 C1840 1.392 . S
C1839 C1843 1.495 1_556 S
C1840 C1839 1.392 . S
C1840 C1841 1.385 . S
C1840 C1842 1.478 . S
C1841 H1835 0.930 . S
C1841 C1837 1.400 . S
C1841 C1840 1.385 . S
C1842 C1840 1.478 . S
C1842 C1844 1.381 . S
C1842 C1848 1.383 . S
C1843 C1839 1.495 1_554 S
C1843 H1849 0.959 . S
C1843 H1850 0.961 . S
C1843 H1851 0.960 . S
C1844 C1842 1.381 . S
C1844 C1845 1.394 . S
C1844 H1852 0.930 . S
C1845 C1844 1.394 . S
C1845 C1846 1.383 . S
C1845 H1853 0.929 . S
C1846 C1845 1.383 . S
C1846 C1847 1.377 . S
C1847 H1831 0.930 . S
C1847 C1846 1.377 . S
C1847 C1848 1.379 . S
C1848 H1832 0.931 . S
C1848 C1842 1.383 . S
C1848 C1847 1.379 . S
H1849 C1843 0.959 . S
H1850 C1843 0.961 . S
H1851 C1843 0.960 . S
H1852 C1844 0.930 . S
H1853 C1845 0.929 . S
H1854 C1862 0.929 . S
H1855 C1864 0.930 . S
H1856 C1866 0.930 . S
H1857 C1869 0.929 . S
H1858 C1872 0.930 . S
H1859 C1874 0.960 . S
H1860 C1874 0.960 . S
H1861 C1874 0.960 . S
C1862 H1854 0.929 . S
C1862 C1863 1.377 . S
C1862 C1864 1.384 . S
C1863 C1862 1.377 . S
C1863 C1869 1.390 . S
C1864 H1855 0.930 . S
C1864 C1862 1.384 . S
C1864 C1865 1.372 . S
C1865 C1864 1.372 . S
C1865 C1866 1.400 . S
C1865 C1870 1.490 . S
C1866 H1856 0.930 . S
C1866 C1865 1.400 . S
C1866 C1869 1.386 . S
H1867 C1883 0.930 . S
H1868 C1884 0.931 . S
C1869 H1857 0.929 . S
C1869 C1863 1.390 . S
C1869 C1866 1.386 . S
C1870 C1865 1.490 . S
C1870 C1872 1.395 . S
C1870 C1873 1.403 . S
H1871 C1877 0.930 . S
C1872 H1858 0.930 . S
C1872 C1870 1.395 . S
C1872 C1875 1.403 . S
C1873 C1870 1.403 . S
C1873 C1874 1.524 . S
C1873 C1877 1.400 . S
C1874 H1859 0.960 . S
C1874 H1860 0.960 . S
C1874 H1861 0.960 . S
C1874 C1873 1.524 . S
C1875 C1872 1.403 . S
C1875 C1876 1.392 . S
C1875 C1879 1.495 . S
C1876 C1875 1.392 . S
C1876 C1877 1.385 . S
C1876 C1878 1.478 . S
C1877 H1871 0.930 . S
C1877 C1873 1.400 . S
C1877 C1876 1.385 . S
C1878 C1876 1.478 . S
C1878 C1880 1.381 . S
C1878 C1884 1.383 1_556 S
C1879 C1875 1.495 . S
C1879 H1885 0.959 . S
C1879 H1886 0.961 . S
C1879 H1887 0.960 . S
C1880 C1878 1.381 . S
C1880 C1881 1.394 . S
C1880 H1888 0.930 . S
C1881 C1880 1.394 . S
C1881 C1882 1.383 1_556 S
C1881 H1889 0.929 . S
C1882 C1881 1.383 1_554 S
C1882 C1883 1.377 . S
C1883 H1867 0.930 . S
C1883 C1882 1.377 . S
C1883 C1884 1.379 . S
C1884 H1868 0.931 . S
C1884 C1878 1.383 1_554 S
C1884 C1883 1.379 . S
H1885 C1879 0.959 . S
H1886 C1879 0.961 . S
H1887 C1879 0.960 . S
H1888 C1880 0.930 . S
H1889 C1881 0.929 . S
H1890 C1898 0.929 . S
H1891 C1900 0.930 . S
H1892 C1902 0.930 1_545 S
H1893 C1905 0.944 . S
H1894 C1908 0.930 . S
H1895 C1910 0.961 . S
H1896 C1910 0.957 1_565 S
H1897 C1910 0.960 . S
C1898 H1890 0.929 . S
C1898 C1899 1.377 . S
C1898 C1900 1.384 . S
C1899 C1898 1.377 . S
C1899 C1905 1.390 . S
C1900 H1891 0.930 . S
C1900 C1898 1.384 . S
C1900 C1901 1.372 . S
C1901 C1900 1.372 . S
C1901 C1902 1.400 . S
C1901 C1906 1.490 . S
C1902 H1892 0.930 1_565 S
C1902 C1901 1.400 . S
C1902 C1905 1.386 . S
H1903 C1919 0.930 . S
H1904 C1920 0.931 . S
C1905 H1893 0.944 . S
C1905 C1899 1.390 . S
C1905 C1902 1.386 . S
C1906 C1901 1.490 . S
C1906 C1908 1.395 . S
C1906 C1909 1.409 . S
H1907 C1913 0.930 . S
C1908 H1894 0.930 . S
C1908 C1906 1.395 . S
C1908 C1911 1.403 . S
C1909 C1906 1.409 . S
C1909 C1910 1.533 1_565 S
C1909 C1913 1.385 1_565 S
C1910 H1895 0.961 . S
C1910 H1896 0.957 1_545 S
C1910 H1897 0.960 . S
C1910 C1909 1.533 1_545 S
C1911 C1908 1.403 . S
C1911 C1912 1.392 1_565 S
C1911 C1915 1.495 . S
C1912 C1911 1.392 1_545 S
C1912 C1913 1.385 . S
C1912 C1914 1.478 . S
C1913 H1907 0.930 . S
C1913 C1909 1.385 1_545 S
C1913 C1912 1.385 . S
C1914 C1912 1.478 . S
C1914 C1916 1.381 . S
C1914 C1920 1.383 . S
C1915 C1911 1.495 . S
C1915 H1921 0.959 . S
C1915 H1922 0.961 1_565 S
C1915 H1923 0.960 . S
C1916 C1914 1.381 . S
C1916 C1917 1.394 . S
C1916 H1924 0.930 1_545 S
C1917 C1916 1.394 . S
C1917 C1918 1.383 . S
C1917 H1925 0.937 . S
C1918 C1917 1.383 . S
C1918 C1919 1.377 . S
C1919 H1903 0.930 . S
C1919 C1918 1.377 . S
C1919 C1920 1.379 . S
C1920 H1904 0.931 . S
C1920 C1914 1.383 . S
C1920 C1919 1.379 . S
H1921 C1915 0.959 . S
H1922 C1915 0.961 1_545 S
H1923 C1915 0.960 . S
H1924 C1916 0.930 1_565 S
H1925 C1917 0.937 . S
H1926 C1934 0.929 . S
H1927 C1936 0.930 . S
H1928 C1938 0.930 . S
H1929 C1941 0.929 . S
H1930 C1944 0.930 . S
H1931 C1946 0.960 . S
H1932 C1946 0.960 . S
H1933 C1946 0.960 . S
C1934 H1926 0.929 . S
C1934 C1935 1.377 . S
C1934 C1936 1.384 . S
C1935 C1934 1.377 . S
C1935 C1941 1.390 . S
C1936 H1927 0.930 . S
C1936 C1934 1.384 . S
C1936 C1937 1.372 . S
C1937 C1936 1.372 . S
C1937 C1938 1.400 . S
C1937 C1942 1.490 . S
C1938 H1928 0.930 . S
C1938 C1937 1.400 . S
C1938 C1941 1.386 . S
H1939 C1955 0.930 . S
H1940 C1956 0.931 . S
C1941 H1929 0.929 . S
C1941 C1935 1.390 . S
C1941 C1938 1.386 . S
C1942 C1937 1.490 . S
C1942 C1944 1.395 . S
C1942 C1945 1.403 . S
H1943 C1949 0.930 . S
C1944 H1930 0.930 . S
C1944 C1942 1.395 . S
C1944 C1947 1.403 . S
C1945 C1942 1.403 . S
C1945 C1946 1.524 . S
C1945 C1949 1.400 . S
C1946 H1931 0.960 . S
C1946 H1932 0.960 . S
C1946 H1933 0.960 . S
C1946 C1945 1.524 . S
C1947 C1944 1.403 . S
C1947 C1948 1.392 . S
C1947 C1951 1.495 . S
C1948 C1947 1.392 . S
C1948 C1949 1.385 . S
C1948 C1950 1.478 . S
C1949 H1943 0.930 . S
C1949 C1945 1.400 . S
C1949 C1948 1.385 . S
C1950 C1948 1.478 . S
C1950 C1952 1.381 . S
C1950 C1956 1.383 . S
C1951 C1947 1.495 . S
C1951 H1957 0.959 . S
C1951 H1958 0.961 . S
C1951 H1959 0.960 . S
C1952 C1950 1.381 . S
C1952 C1953 1.394 . S
C1952 H1960 0.930 . S
C1953 C1952 1.394 . S
C1953 C1954 1.383 . S
C1953 H1961 0.929 . S
C1954 C1953 1.383 . S
C1954 C1955 1.377 . S
C1955 H1939 0.930 . S
C1955 C1954 1.377 . S
C1955 C1956 1.379 . S
C1956 H1940 0.931 . S
C1956 C1950 1.383 . S
C1956 C1955 1.379 . S
H1957 C1951 0.959 . S
H1958 C1951 0.961 . S
H1959 C1951 0.960 . S
H1960 C1952 0.930 . S
H1961 C1953 0.929 . S
H1962 C1970 0.929 . S
H1963 C1972 0.930 . S
H1964 C1974 0.930 . S
H1965 C1977 0.929 . S
H1966 C1980 0.930 . S
H1967 C1982 0.960 . S
H1968 C1982 0.960 . S
H1969 C1982 0.960 . S
C1970 H1962 0.929 . S
C1970 C1971 1.377 . S
C1970 C1972 1.384 . S
C1971 C1970 1.377 . S
C1971 C1977 1.390 . S
C1972 H1963 0.930 . S
C1972 C1970 1.384 . S
C1972 C1973 1.372 . S
C1973 C1972 1.372 . S
C1973 C1974 1.400 . S
C1973 C1978 1.490 . S
C1974 H1964 0.930 . S
C1974 C1973 1.400 . S
C1974 C1977 1.386 . S
H1975 C1991 0.930 . S
H1976 C1992 0.931 . S
C1977 H1965 0.929 . S
C1977 C1971 1.390 . S
C1977 C1974 1.386 . S
C1978 C1973 1.490 . S
C1978 C1980 1.395 . S
C1978 C1981 1.403 . S
H1979 C1985 0.930 . S
C1980 H1966 0.930 . S
C1980 C1978 1.395 . S
C1980 C1983 1.403 . S
C1981 C1978 1.403 . S
C1981 C1982 1.524 . S
C1981 C1985 1.400 . S
C1982 H1967 0.960 . S
C1982 H1968 0.960 . S
C1982 H1969 0.960 . S
C1982 C1981 1.524 . S
C1983 C1980 1.403 . S
C1983 C1984 1.392 . S
C1983 C1987 1.495 . S
C1984 C1983 1.392 . S
C1984 C1985 1.385 . S
C1984 C1986 1.478 . S
C1985 H1979 0.930 . S
C1985 C1981 1.400 . S
C1985 C1984 1.385 . S
C1986 C1984 1.478 . S
C1986 C1988 1.381 . S
C1986 C1992 1.383 . S
C1987 C1983 1.495 . S
C1987 H1993 0.959 . S
C1987 H1994 0.961 . S
C1987 H1995 0.960 . S
C1988 C1986 1.381 . S
C1988 C1989 1.394 . S
C1988 H1996 0.930 . S
C1989 C1988 1.394 . S
C1989 C1990 1.383 . S
C1989 H1997 0.929 . S
C1990 C1989 1.383 . S
C1990 C1991 1.377 . S
C1991 H1975 0.930 . S
C1991 C1990 1.377 . S
C1991 C1992 1.379 . S
C1992 H1976 0.931 . S
C1992 C1986 1.383 . S
C1992 C1991 1.379 . S
H1993 C1987 0.959 . S
H1994 C1987 0.961 . S
H1995 C1987 0.960 . S
H1996 C1988 0.930 . S
H1997 C1989 0.929 . S
H1998 C2006 0.929 . S
H1999 C2008 0.930 . S
H2000 C2010 0.930 . S
H2001 C2013 0.929 . S
H2002 C2016 0.930 . S
H2003 C2018 0.960 . S
H2004 C2018 0.960 . S
H2005 C2018 0.960 . S
C2006 H1998 0.929 . S
C2006 C2007 1.377 . S
C2006 C2008 1.384 . S
C2007 C2006 1.377 . S
C2007 C2013 1.390 . S
C2008 H1999 0.930 . S
C2008 C2006 1.384 . S
C2008 C2009 1.372 . S
C2009 C2008 1.372 . S
C2009 C2010 1.400 . S
C2009 C2014 1.490 . S
C2010 H2000 0.930 . S
C2010 C2009 1.400 . S
C2010 C2013 1.386 . S
H2011 C2027 0.930 . S
H2012 C2028 0.931 . S
C2013 H2001 0.929 . S
C2013 C2007 1.390 . S
C2013 C2010 1.386 . S
C2014 C2009 1.490 . S
C2014 C2016 1.395 . S
C2014 C2017 1.403 . S
H2015 C2021 0.930 . S
C2016 H2002 0.930 . S
C2016 C2014 1.395 . S
C2016 C2019 1.403 . S
C2017 C2014 1.403 . S
C2017 C2018 1.524 . S
C2017 C2021 1.400 . S
C2018 H2003 0.960 . S
C2018 H2004 0.960 . S
C2018 H2005 0.960 . S
C2018 C2017 1.524 . S
C2019 C2016 1.403 . S
C2019 C2020 1.392 . S
C2019 C2023 1.495 . S
C2020 C2019 1.392 . S
C2020 C2021 1.385 . S
C2020 C2022 1.478 . S
C2021 H2015 0.930 . S
C2021 C2017 1.400 . S
C2021 C2020 1.385 . S
C2022 C2020 1.478 . S
C2022 C2024 1.381 . S
C2022 C2028 1.383 . S
C2023 C2019 1.495 . S
C2023 H2029 0.959 . S
C2023 H2030 0.961 . S
C2023 H2031 0.960 . S
C2024 C2022 1.381 . S
C2024 C2025 1.394 . S
C2024 H2032 0.930 . S
C2025 C2024 1.394 . S
C2025 C2026 1.383 . S
C2025 H2033 0.929 . S
C2026 C2025 1.383 . S
C2026 C2027 1.377 . S
C2027 H2011 0.930 . S
C2027 C2026 1.377 . S
C2027 C2028 1.379 . S
C2028 H2012 0.931 . S
C2028 C2022 1.383 . S
C2028 C2027 1.379 . S
H2029 C2023 0.959 . S
H2030 C2023 0.961 . S
H2031 C2023 0.960 . S
H2032 C2024 0.930 . S
H2033 C2025 0.929 . S
H2034 C2042 0.929 . S
H2035 C2044 0.930 . S
H2036 C2046 0.930 . S
H2037 C2049 0.929 . S
H2038 C2052 0.930 . S
H2039 C2054 0.960 . S
H2040 C2054 0.960 . S
H2041 C2054 0.960 . S
C2042 H2034 0.929 . S
C2042 C2043 1.377 . S
C2042 C2044 1.384 . S
C2043 C2042 1.377 . S
C2043 C2049 1.390 . S
C2044 H2035 0.930 . S
C2044 C2042 1.384 . S
C2044 C2045 1.372 . S
C2045 C2044 1.372 . S
C2045 C2046 1.400 . S
C2045 C2050 1.490 . S
C2046 H2036 0.930 . S
C2046 C2045 1.400 . S
C2046 C2049 1.386 . S
H2047 C2063 0.930 . S
H2048 C2064 0.931 . S
C2049 H2037 0.929 . S
C2049 C2043 1.390 . S
C2049 C2046 1.386 . S
C2050 C2045 1.490 . S
C2050 C2052 1.395 . S
C2050 C2053 1.403 . S
H2051 C2057 0.930 . S
C2052 H2038 0.930 . S
C2052 C2050 1.395 . S
C2052 C2055 1.403 . S
C2053 C2050 1.403 . S
C2053 C2054 1.524 . S
C2053 C2057 1.400 . S
C2054 H2039 0.960 . S
C2054 H2040 0.960 . S
C2054 H2041 0.960 . S
C2054 C2053 1.524 . S
C2055 C2052 1.403 . S
C2055 C2056 1.392 . S
C2055 C2059 1.495 . S
C2056 C2055 1.392 . S
C2056 C2057 1.385 . S
C2056 C2058 1.478 . S
C2057 H2051 0.930 . S
C2057 C2053 1.400 . S
C2057 C2056 1.385 . S
C2058 C2056 1.478 . S
C2058 C2060 1.381 . S
C2058 C2064 1.383 . S
C2059 C2055 1.495 . S
C2059 H2065 0.959 . S
C2059 H2066 0.961 . S
C2059 H2067 0.960 . S
C2060 C2058 1.381 . S
C2060 C2061 1.394 . S
C2060 H2068 0.930 . S
C2061 C2060 1.394 . S
C2061 C2062 1.383 . S
C2061 H2069 0.929 . S
C2062 C2061 1.383 . S
C2062 C2063 1.377 . S
C2063 H2047 0.930 . S
C2063 C2062 1.377 . S
C2063 C2064 1.379 . S
C2064 H2048 0.931 . S
C2064 C2058 1.383 . S
C2064 C2063 1.379 . S
H2065 C2059 0.959 . S
H2066 C2059 0.961 . S
H2067 C2059 0.960 . S
H2068 C2060 0.930 . S
H2069 C2061 0.929 . S
H2070 C2078 0.929 . S
H2071 C2080 0.930 . S
H2072 C2082 0.930 . S
H2073 C2085 0.929 . S
H2074 C2088 0.930 . S
H2075 C2090 0.960 . S
H2076 C2090 0.960 . S
H2077 C2090 0.960 . S
C2078 H2070 0.929 . S
C2078 C2079 1.377 . S
C2078 C2080 1.384 . S
C2079 C2078 1.377 . S
C2079 C2085 1.390 . S
C2080 H2071 0.930 . S
C2080 C2078 1.384 . S
C2080 C2081 1.372 . S
C2081 C2080 1.372 . S
C2081 C2082 1.400 . S
C2081 C2086 1.490 . S
C2082 H2072 0.930 . S
C2082 C2081 1.400 . S
C2082 C2085 1.386 . S
H2083 C2099 0.930 . S
H2084 C2100 0.931 . S
C2085 H2073 0.929 . S
C2085 C2079 1.390 . S
C2085 C2082 1.386 . S
C2086 C2081 1.490 . S
C2086 C2088 1.395 . S
C2086 C2089 1.403 . S
H2087 C2093 0.930 . S
C2088 H2074 0.930 . S
C2088 C2086 1.395 . S
C2088 C2091 1.403 . S
C2089 C2086 1.403 . S
C2089 C2090 1.524 . S
C2089 C2093 1.400 . S
C2090 H2075 0.960 . S
C2090 H2076 0.960 . S
C2090 H2077 0.960 . S
C2090 C2089 1.524 . S
C2091 C2088 1.403 . S
C2091 C2092 1.392 . S
C2091 C2095 1.495 . S
C2092 C2091 1.392 . S
C2092 C2093 1.385 . S
C2092 C2094 1.478 . S
C2093 H2087 0.930 . S
C2093 C2089 1.400 . S
C2093 C2092 1.385 . S
C2094 C2092 1.478 . S
C2094 C2096 1.381 . S
C2094 C2100 1.383 . S
C2095 C2091 1.495 . S
C2095 H2101 0.959 . S
C2095 H2102 0.961 . S
C2095 H2103 0.960 . S
C2096 C2094 1.381 . S
C2096 C2097 1.394 . S
C2096 H2104 0.930 . S
C2097 C2096 1.394 . S
C2097 C2098 1.383 . S
C2097 H2105 0.929 . S
C2098 C2097 1.383 . S
C2098 C2099 1.377 . S
C2099 H2083 0.930 . S
C2099 C2098 1.377 . S
C2099 C2100 1.379 . S
C2100 H2084 0.931 . S
C2100 C2094 1.383 . S
C2100 C2099 1.379 . S
H2101 C2095 0.959 . S
H2102 C2095 0.961 . S
H2103 C2095 0.960 . S
H2104 C2096 0.930 . S
H2105 C2097 0.929 . S
H2106 C2114 0.929 . S
H2107 C2116 0.930 . S
H2108 C2118 0.930 . S
H2109 C2121 0.929 . S
H2110 C2124 0.930 . S
H2111 C2126 0.960 . S
H2112 C2126 0.960 . S
H2113 C2126 0.960 . S
C2114 H2106 0.929 . S
C2114 C2115 1.377 . S
C2114 C2116 1.384 . S
C2115 C2114 1.377 . S
C2115 C2121 1.390 . S
C2116 H2107 0.930 . S
C2116 C2114 1.384 . S
C2116 C2117 1.372 . S
C2117 C2116 1.372 . S
C2117 C2118 1.400 . S
C2117 C2122 1.490 . S
C2118 H2108 0.930 . S
C2118 C2117 1.400 . S
C2118 C2121 1.386 . S
H2119 C2135 0.930 . S
H2120 C2136 0.931 . S
C2121 H2109 0.929 . S
C2121 C2115 1.390 . S
C2121 C2118 1.386 . S
C2122 C2117 1.490 . S
C2122 C2124 1.395 . S
C2122 C2125 1.403 . S
H2123 C2129 0.930 . S
C2124 H2110 0.930 . S
C2124 C2122 1.395 . S
C2124 C2127 1.403 . S
C2125 C2122 1.403 . S
C2125 C2126 1.524 . S
C2125 C2129 1.400 . S
C2126 H2111 0.960 . S
C2126 H2112 0.960 . S
C2126 H2113 0.960 . S
C2126 C2125 1.524 . S
C2127 C2124 1.403 . S
C2127 C2128 1.392 . S
C2127 C2131 1.495 . S
C2128 C2127 1.392 . S
C2128 C2129 1.385 . S
C2128 C2130 1.478 . S
C2129 H2123 0.930 . S
C2129 C2125 1.400 . S
C2129 C2128 1.385 . S
C2130 C2128 1.478 . S
C2130 C2132 1.381 . S
C2130 C2136 1.383 . S
C2131 C2127 1.495 . S
C2131 H2137 0.959 . S
C2131 H2138 0.961 . S
C2131 H2139 0.960 . S
C2132 C2130 1.381 . S
C2132 C2133 1.394 . S
C2132 H2140 0.930 . S
C2133 C2132 1.394 . S
C2133 C2134 1.383 . S
C2133 H2141 0.929 . S
C2134 C2133 1.383 . S
C2134 C2135 1.377 . S
C2135 H2119 0.930 . S
C2135 C2134 1.377 . S
C2135 C2136 1.379 . S
C2136 H2120 0.931 . S
C2136 C2130 1.383 . S
C2136 C2135 1.379 . S
H2137 C2131 0.959 . S
H2138 C2131 0.961 . S
H2139 C2131 0.960 . S
H2140 C2132 0.930 . S
H2141 C2133 0.929 . S
H2142 C2150 0.929 . S
H2143 C2152 0.930 . S
H2144 C2154 0.930 . S
H2145 C2157 0.929 . S
H2146 C2160 0.930 . S
H2147 C2162 0.960 . S
H2148 C2162 0.960 . S
H2149 C2162 0.960 . S
C2150 H2142 0.929 . S
C2150 C2151 1.377 . S
C2150 C2152 1.384 . S
C2151 C2150 1.377 . S
C2151 C2157 1.390 . S
C2152 H2143 0.930 . S
C2152 C2150 1.384 . S
C2152 C2153 1.372 . S
C2153 C2152 1.372 . S
C2153 C2154 1.400 . S
C2153 C2158 1.490 . S
C2154 H2144 0.930 . S
C2154 C2153 1.400 . S
C2154 C2157 1.386 . S
H2155 C2171 0.930 . S
H2156 C2172 0.931 . S
C2157 H2145 0.929 . S
C2157 C2151 1.390 . S
C2157 C2154 1.386 . S
C2158 C2153 1.490 . S
C2158 C2160 1.395 . S
C2158 C2161 1.403 . S
H2159 C2165 0.930 . S
C2160 H2146 0.930 . S
C2160 C2158 1.395 . S
C2160 C2163 1.403 . S
C2161 C2158 1.403 . S
C2161 C2162 1.524 . S
C2161 C2165 1.400 . S
C2162 H2147 0.960 . S
C2162 H2148 0.960 . S
C2162 H2149 0.960 . S
C2162 C2161 1.524 . S
C2163 C2160 1.403 . S
C2163 C2164 1.392 . S
C2163 C2167 1.495 . S
C2164 C2163 1.392 . S
C2164 C2165 1.385 . S
C2164 C2166 1.478 . S
C2165 H2159 0.930 . S
C2165 C2161 1.400 . S
C2165 C2164 1.385 . S
C2166 C2164 1.478 . S
C2166 C2168 1.381 . S
C2166 C2172 1.383 . S
C2167 C2163 1.495 . S
C2167 H2173 0.959 . S
C2167 H2174 0.961 . S
C2167 H2175 0.960 . S
C2168 C2166 1.381 . S
C2168 C2169 1.394 . S
C2168 H2176 0.930 . S
C2169 C2168 1.394 . S
C2169 C2170 1.383 . S
C2169 H2177 0.929 . S
C2170 C2169 1.383 . S
C2170 C2171 1.377 . S
C2171 H2155 0.930 . S
C2171 C2170 1.377 . S
C2171 C2172 1.379 . S
C2172 H2156 0.931 . S
C2172 C2166 1.383 . S
C2172 C2171 1.379 . S
H2173 C2167 0.959 . S
H2174 C2167 0.961 . S
H2175 C2167 0.960 . S
H2176 C2168 0.930 . S
H2177 C2169 0.929 . S
H2178 C2186 0.929 . S
H2179 C2188 0.930 . S
H2180 C2190 0.930 . S
H2181 C2193 0.929 . S
H2182 C2196 0.930 . S
H2183 C2198 0.960 . S
H2184 C2198 0.960 . S
H2185 C2198 0.960 . S
C2186 H2178 0.929 . S
C2186 C2187 1.377 . S
C2186 C2188 1.384 . S
C2187 C2186 1.377 . S
C2187 C2193 1.390 . S
C2188 H2179 0.930 . S
C2188 C2186 1.384 . S
C2188 C2189 1.372 . S
C2189 C2188 1.372 . S
C2189 C2190 1.400 . S
C2189 C2194 1.490 . S
C2190 H2180 0.930 . S
C2190 C2189 1.400 . S
C2190 C2193 1.386 . S
H2191 C2207 0.930 . S
H2192 C2208 0.931 . S
C2193 H2181 0.929 . S
C2193 C2187 1.390 . S
C2193 C2190 1.386 . S
C2194 C2189 1.490 . S
C2194 C2196 1.395 . S
C2194 C2197 1.403 . S
H2195 C2201 0.930 . S
C2196 H2182 0.930 . S
C2196 C2194 1.395 . S
C2196 C2199 1.403 . S
C2197 C2194 1.403 . S
C2197 C2198 1.524 . S
C2197 C2201 1.400 . S
C2198 H2183 0.960 . S
C2198 H2184 0.960 . S
C2198 H2185 0.960 . S
C2198 C2197 1.524 . S
C2199 C2196 1.403 . S
C2199 C2200 1.392 . S
C2199 C2203 1.495 . S
C2200 C2199 1.392 . S
C2200 C2201 1.385 . S
C2200 C2202 1.478 . S
C2201 H2195 0.930 . S
C2201 C2197 1.400 . S
C2201 C2200 1.385 . S
C2202 C2200 1.478 . S
C2202 C2204 1.381 . S
C2202 C2208 1.383 . S
C2203 C2199 1.495 . S
C2203 H2209 0.959 . S
C2203 H2210 0.961 . S
C2203 H2211 0.960 . S
C2204 C2202 1.381 . S
C2204 C2205 1.394 . S
C2204 H2212 0.930 . S
C2205 C2204 1.394 . S
C2205 C2206 1.383 . S
C2205 H2213 0.929 . S
C2206 C2205 1.383 . S
C2206 C2207 1.377 . S
C2207 H2191 0.930 . S
C2207 C2206 1.377 . S
C2207 C2208 1.379 . S
C2208 H2192 0.931 . S
C2208 C2202 1.383 . S
C2208 C2207 1.379 . S
H2209 C2203 0.959 . S
H2210 C2203 0.961 . S
H2211 C2203 0.960 . S
H2212 C2204 0.930 . S
H2213 C2205 0.929 . S
C603 N5 1.430 . S
C622 N14 1.433 . S
C639 N47 1.437 . S
C658 N38 1.445 . S
C675 N71 1.442 . S
C694 N80 1.445 . S
C711 N113 1.430 . S
C730 N104 1.433 . S
C747 N146 1.430 . S
C766 N137 1.436 . S
C783 N179 1.437 . S
C802 N170 1.431 . S
C819 N203 1.422 . S
C838 N212 1.426 . S
C855 N236 1.433 . S
C874 N245 1.425 . S
C891 N269 1.442 . S
C910 N278 1.437 . S
C927 N311 1.417 . S
C946 N302 1.425 . S
C963 N335 1.432 . S
C982 N344 1.436 . S
C999 N368 1.438 . S
C1018 N377 1.429 . S
C1035 N401 1.425 . S
C1054 N410 1.409 1_554 S
C1071 N443 1.426 . S
C1090 N434 1.422 . S
C1107 N476 1.430 1_554 S
C1126 N467 1.438 . S
C1143 N500 1.422 1_554 S
C1162 N509 1.426 . S
C1179 N533 1.431 . S
C1198 N542 1.423 1_554 S
C1215 N575 1.430 1_455 S
C1234 N566 1.433 . S
C1251 C116 1.160 . S
C1270 C17 1.159 . S
C1287 C149 1.165 . S
C1306 C50 1.177 . S
C1323 C182 1.152 . S
C1342 C83 1.138 . S
C1359 C215 1.109 . S
C1378 C314 1.109 . S
C1395 C347 1.108 . S
C1414 C248 1.106 . S
C1431 C380 1.104 . S
C1450 C281 1.104 . S
C1467 C512 1.137 . S
C1486 C413 1.123 . S
C1503 C446 1.161 . S
C1522 C545 1.146 . S
C1539 C479 1.156 . S
C1558 C578 1.164 . S
C1575 C272 0.581 . S
C1594 C8 0.592 . S
C1611 C206 0.559 . S
C1630 C61 0.668 . S
C1647 C74 0.621 . S
C1666 C239 0.651 . S
C1683 C94 0.622 . S
C1702 C404 0.550 . S
C1719 C28 0.540 . S
C1738 C457 0.598 . S
C1755 C470 0.654 . S
C1774 C41 0.682 . S
C1791 C107 0.632 . S
C1810 C589 0.669 . S
C1827 C160 0.570 . S
C1846 C523 0.537 . S
C1863 C536 0.657 . S
C1882 C173 0.611 . S
C1899 C305 0.563 . S
C1918 C193 0.623 . S
C1935 C127 0.547 . S
C1954 C338 0.613 . S
C1971 C140 0.640 . S
C1990 C371 0.654 . S
C2007 C226 0.511 . S
C2026 C490 0.464 . S
C2043 C259 0.540 . S
C2062 C424 0.453 . S
C2079 C292 0.625 . S
C2098 C437 0.624 . S
C2115 C503 0.547 . S
C2134 C391 0.501 . S
C2151 C556 0.534 . S
C2170 C325 0.568 . S
C2187 C569 0.580 . S
C2206 C358 0.585 . S
