# Generated by pormake.
# Topology wgw, (6)-cn, num edge types: 1
# Building blocks:
#     Node 0, Type 0, BuildingBlock: IZENUY_clean_sbu_0, # of connection points: 6
#     Node 1, Type 0, BuildingBlock: IZENUY_clean_sbu_0, # of connection points: 6
#     Node 2, Type 0, BuildingBlock: IZENUY_clean_sbu_0, # of connection points: 6
#     Node 3, Type 0, BuildingBlock: IZENUY_clean_sbu_0, # of connection points: 6
#     Node 4, Type 0, BuildingBlock: IZENUY_clean_sbu_0, # of connection points: 6
#     Node 5, Type 0, BuildingBlock: IZENUY_clean_sbu_0, # of connection points: 6
#     Node 6, Type 0, BuildingBlock: IZENUY_clean_sbu_0, # of connection points: 6
#     Node 7, Type 0, BuildingBlock: IZENUY_clean_sbu_0, # of connection points: 6
#     Edge 8, Type (0, 0), BuildingBlock: UVAHIK_clean_linker_0, # of connection points: 2
#     Edge 9, Type (0, 0), BuildingBlock: UVAHIK_clean_linker_0, # of connection points: 2
#     Edge 10, Type (0, 0), BuildingBlock: UVAHIK_clean_linker_0, # of connection points: 2
#     Edge 11, Type (0, 0), BuildingBlock: UVAHIK_clean_linker_0, # of connection points: 2
#     Edge 12, Type (0, 0), BuildingBlock: UVAHIK_clean_linker_0, # of connection points: 2
#     Edge 13, Type (0, 0), BuildingBlock: UVAHIK_clean_linker_0, # of connection points: 2
#     Edge 14, Type (0, 0), BuildingBlock: UVAHIK_clean_linker_0, # of connection points: 2
#     Edge 15, Type (0, 0), BuildingBlock: UVAHIK_clean_linker_0, # of connection points: 2
#     Edge 16, Type (0, 0), BuildingBlock: UVAHIK_clean_linker_0, # of connection points: 2
#     Edge 17, Type (0, 0), BuildingBlock: UVAHIK_clean_linker_0, # of connection points: 2
#     Edge 18, Type (0, 0), BuildingBlock: UVAHIK_clean_linker_0, # of connection points: 2
#     Edge 19, Type (0, 0), BuildingBlock: UVAHIK_clean_linker_0, # of connection points: 2
#     Edge 20, Type (0, 0), BuildingBlock: UVAHIK_clean_linker_0, # of connection points: 2
#     Edge 21, Type (0, 0), BuildingBlock: UVAHIK_clean_linker_0, # of connection points: 2
#     Edge 22, Type (0, 0), BuildingBlock: UVAHIK_clean_linker_0, # of connection points: 2
#     Edge 23, Type (0, 0), BuildingBlock: UVAHIK_clean_linker_0, # of connection points: 2
#     Edge 24, Type (0, 0), BuildingBlock: UVAHIK_clean_linker_0, # of connection points: 2
#     Edge 25, Type (0, 0), BuildingBlock: UVAHIK_clean_linker_0, # of connection points: 2
#     Edge 26, Type (0, 0), BuildingBlock: UVAHIK_clean_linker_0, # of connection points: 2
#     Edge 27, Type (0, 0), BuildingBlock: UVAHIK_clean_linker_0, # of connection points: 2
#     Edge 28, Type (0, 0), BuildingBlock: UVAHIK_clean_linker_0, # of connection points: 2
#     Edge 29, Type (0, 0), BuildingBlock: UVAHIK_clean_linker_0, # of connection points: 2
#     Edge 30, Type (0, 0), BuildingBlock: UVAHIK_clean_linker_0, # of connection points: 2
#     Edge 31, Type (0, 0), BuildingBlock: UVAHIK_clean_linker_0, # of connection points: 2
# Relax obj value: 0.276
# Max RMSD: 0.289
# Mean RMSD: 0.289
data_MOF--net-wgw--node1-IZENUY_clean_sbu_0--edge1-UVAHIK_clean_linker_0
_symmetry_space_group_name_H-M    P1
_symmetry_Int_Tables_number       1
_symmetry_cell_setting            triclinic
loop_
_symmetry_equiv_pos_as_xyz
'x, y, z'
_cell_length_a     35.188189
_cell_length_b     35.283434
_cell_length_c     55.492916
_cell_angle_alpha  90.003315
_cell_angle_beta   90.040322
_cell_angle_gamma 90.022886
loop_
_atom_site_label
_atom_site_type_symbol
_atom_site_fract_x
_atom_site_fract_y
_atom_site_fract_z
_atom_type_partial_charge
Fe0 Fe 0.02684 0.40303 0.16678 0.0
Fe1 Fe 0.09343 0.45981 0.16786 0.0
O2 O 0.05335 0.43875 0.1818 0.0
Fe3 Fe 0.03918 0.45347 0.2109 0.0
O4 O 0.04632 0.40622 0.22311 0.0
O5 O 0.01339 0.37815 0.19455 0.0
O6 O 0.06806 0.37235 0.16547 0.0
C7 C 0.10019 0.38138 0.1571 0.0
C8 C 0.97013 0.4457 0.1864 0.0
O9 O 0.1087 0.41576 0.15299 0.0
C10 C 0.05469 0.52148 0.18948 0.0
O11 O 0.03576 0.42095 0.13632 0.0
O12 O 0.06573 0.47476 0.14191 0.0
O13 O 0.98882 0.44469 0.20581 0.0
O14 O 0.98372 0.43193 0.16725 0.0
C15 C 0.1194 0.45591 0.2143 0.0
O16 O 0.08473 0.5074 0.18055 0.0
O17 O 0.03079 0.50102 0.20026 0.0
C18 C 0.04605 0.45318 0.12879 0.0
O19 O 0.12458 0.44662 0.19263 0.0
O20 O 0.08686 0.46577 0.22153 0.0
C21 C 0.02867 0.37757 0.21525 0.0
Fe22 Fe 0.02158 0.09748 0.66384 0.0
Fe23 Fe 0.03366 0.04819 0.7084 0.0
O24 O 0.04686 0.06079 0.67871 0.0
Fe25 Fe 0.0847 0.03686 0.66416 0.0
O26 O 0.10204 0.07964 0.64862 0.0
O27 O 0.06441 0.12559 0.66127 0.0
O28 O 0.01126 0.12404 0.69156 0.0
C29 C 0.02825 0.12467 0.71173 0.0
C30 C 0.03592 0.04553 0.62592 0.0
O31 O 0.04476 0.09536 0.71954 0.0
C32 C 0.04318 0.97844 0.68769 0.0
O33 O 0.97698 0.07092 0.6657 0.0
O34 O 0.98379 0.06018 0.70436 0.0
O35 O 0.05486 0.02313 0.6389 0.0
O36 O 0.02768 0.07834 0.63339 0.0
C37 C 0.11349 0.04041 0.71001 0.0
O38 O 0.02158 0.00088 0.69885 0.0
O39 O 0.0733 0.9902 0.6775 0.0
C40 C 0.96392 0.05872 0.68545 0.0
O41 O 0.08085 0.03306 0.71811 0.0
O42 O 0.11806 0.04849 0.6881 0.0
C43 C 0.09572 0.11454 0.6526 0.0
Fe44 Fe 0.4652 0.04352 0.20841 0.0
Fe45 Fe 0.47196 0.09172 0.16294 0.0
O46 O 0.44971 0.05431 0.17882 0.0
Fe47 Fe 0.41265 0.02774 0.16531 0.0
O48 O 0.38002 0.03871 0.18962 0.0
O49 O 0.41908 0.02611 0.21927 0.0
O50 O 0.45207 0.09024 0.21921 0.0
C51 C 0.46663 0.12009 0.21073 0.0
C52 C 0.45875 0.97287 0.18865 0.0
O53 O 0.48212 0.11986 0.19008 0.0
C54 C 0.45884 0.03764 0.12602 0.0
O55 O 0.51448 0.05823 0.20335 0.0
O56 O 0.51788 0.06773 0.16431 0.0
O57 O 0.42724 0.98235 0.1792 0.0
O58 O 0.47953 0.99686 0.1991 0.0
C59 C 0.39666 0.10419 0.15278 0.0
O60 O 0.46547 0.07114 0.1329 0.0
O61 O 0.44197 0.01461 0.13968 0.0
C62 C 0.53337 0.05866 0.18401 0.0
O63 O 0.4276 0.11732 0.16078 0.0
O64 O 0.39212 0.06883 0.14945 0.0
C65 C 0.38579 0.03183 0.21157 0.0
Fe66 Fe 0.40934 0.46833 0.66646 0.0
Fe67 Fe 0.46838 0.40416 0.66863 0.0
O68 O 0.44581 0.44382 0.68201 0.0
Fe69 Fe 0.45958 0.4594 0.71104 0.0
O70 O 0.41212 0.45168 0.72306 0.0
O71 O 0.3836 0.48242 0.69382 0.0
O72 O 0.38005 0.42622 0.66583 0.0
C73 C 0.39013 0.39444 0.65756 0.0
C74 C 0.45028 0.52698 0.68505 0.0
O75 O 0.42491 0.38724 0.65342 0.0
C76 C 0.52885 0.44466 0.69095 0.0
O77 O 0.42801 0.45877 0.63623 0.0
O78 O 0.4832 0.4316 0.64257 0.0
O79 O 0.45001 0.5094 0.70492 0.0
O80 O 0.43691 0.51194 0.66624 0.0
C81 C 0.46372 0.37948 0.71522 0.0
O82 O 0.51569 0.41433 0.68184 0.0
O83 O 0.50728 0.46847 0.70083 0.0
C84 C 0.46104 0.4501 0.62914 0.0
O85 O 0.45522 0.37358 0.6935 0.0
O86 O 0.47259 0.41231 0.72241 0.0
C87 C 0.38313 0.46832 0.71483 0.0
Fe88 Fe 0.5904 0.52949 0.3421 0.0
Fe89 Fe 0.53948 0.54163 0.2979 0.0
O90 O 0.55258 0.5537 0.32775 0.0
Fe91 Fe 0.52731 0.59008 0.3429 0.0
O92 O 0.57024 0.61816 0.34608 0.0
O93 O 0.60786 0.57179 0.35806 0.0
O94 O 0.62353 0.54192 0.31836 0.0
C95 C 0.61921 0.53404 0.29643 0.0
C96 C 0.54166 0.53705 0.38035 0.0
O97 O 0.58672 0.52625 0.28821 0.0
C98 C 0.46959 0.55201 0.32053 0.0
O99 O 0.57891 0.48317 0.32828 0.0
O100 O 0.52699 0.49435 0.30717 0.0
O101 O 0.53289 0.56993 0.37317 0.0
O102 O 0.5608 0.51512 0.36721 0.0
C103 C 0.53539 0.61823 0.29541 0.0
O104 O 0.48963 0.55408 0.30173 0.0
O105 O 0.48262 0.56361 0.34045 0.0
C106 C 0.54858 0.47168 0.31816 0.0
O107 O 0.55106 0.58876 0.28719 0.0
O108 O 0.51777 0.61743 0.31536 0.0
C109 C 0.60172 0.60678 0.35434 0.0
Fe110 Fe 0.9739 0.5997 0.84318 0.0
Fe111 Fe 0.96264 0.55023 0.79855 0.0
O112 O 0.9498 0.5621 0.82848 0.0
Fe113 Fe 0.91354 0.53653 0.84358 0.0
O114 O 0.89461 0.57865 0.85927 0.0
O115 O 0.93016 0.62607 0.84633 0.0
O116 O 0.98242 0.62681 0.81547 0.0
C117 C 0.96543 0.6268 0.79531 0.0
C118 C 0.9631 0.54718 0.88115 0.0
O119 O 0.94969 0.597 0.78761 0.0
C120 C 0.95628 0.47986 0.81903 0.0
O121 O 0.0194 0.5751 0.84069 0.0
O122 O 0.01257 0.56396 0.80199 0.0
O123 O 0.94476 0.52407 0.86837 0.0
O124 O 0.96954 0.58036 0.87368 0.0
C125 C 0.88274 0.5385 0.7983 0.0
O126 O 0.97664 0.50324 0.8077 0.0
O127 O 0.92647 0.49045 0.83007 0.0
C128 C 0.03331 0.56558 0.82059 0.0
O129 O 0.91537 0.53362 0.78933 0.0
O130 O 0.87895 0.54642 0.82026 0.0
C131 C 0.89951 0.61381 0.85524 0.0
Fe132 Fe 0.96236 0.95275 0.29425 0.0
Fe133 Fe 0.97605 0.90319 0.33853 0.0
O134 O 0.94951 0.93921 0.32382 0.0
Fe135 Fe 0.91077 0.96148 0.33851 0.0
O136 O 0.87777 0.94928 0.3145 0.0
O137 O 0.91449 0.96575 0.28446 0.0
O138 O 0.95348 0.90526 0.2828 0.0
C139 C 0.9719 0.877 0.29037 0.0
C140 C 0.94998 0.02182 0.31539 0.0
O141 O 0.98826 0.87792 0.31069 0.0
C142 C 0.95948 0.9537 0.37681 0.0
O143 O 0.01293 0.94326 0.29845 0.0
O144 O 0.01961 0.93156 0.33708 0.0
O145 O 0.92042 0.00882 0.32562 0.0
O146 O 0.97225 0.00041 0.30398 0.0
C147 C 0.90236 0.88314 0.34919 0.0
O148 O 0.9687 0.92127 0.36914 0.0
O149 O 0.94007 0.97576 0.36389 0.0
C150 C 0.03269 0.94443 0.31747 0.0
O151 O 0.93417 0.87327 0.3406 0.0
O152 O 0.89498 0.91773 0.35358 0.0
C153 C 0.88203 0.95762 0.29261 0.0
Fe154 Fe 0.58161 0.96183 0.83863 0.0
Fe155 Fe 0.52042 0.89925 0.83702 0.0
O156 O 0.54547 0.93698 0.82303 0.0
Fe157 Fe 0.53357 0.94965 0.79314 0.0
O158 O 0.5807 0.96649 0.78459 0.0
O159 O 0.6166 0.95203 0.81542 0.0
O160 O 0.59961 0.91906 0.85401 0.0
C161 C 0.59444 0.884 0.8497 0.0
C162 C 0.53964 0.01942 0.81422 0.0
O163 O 0.56385 0.87217 0.84036 0.0
C164 C 0.46306 0.93723 0.81445 0.0
O165 O 0.55008 0.97387 0.86333 0.0
O166 O 0.52448 0.91771 0.86783 0.0
O167 O 0.51947 0.99629 0.80255 0.0
O168 O 0.56922 0.00852 0.82548 0.0
C169 C 0.53038 0.87345 0.78901 0.0
O170 O 0.47541 0.92503 0.83439 0.0
O171 O 0.48385 0.93593 0.79594 0.0
C172 C 0.53155 0.95051 0.87582 0.0
O173 O 0.5122 0.87305 0.80877 0.0
O174 O 0.54698 0.90322 0.78212 0.0
C175 C 0.61305 0.96027 0.79347 0.0
C176 C 0.40016 0.54818 0.33226 0.0
C177 C 0.43085 0.53635 0.31794 0.0
C178 C 0.36322 0.53518 0.32716 0.0
C179 C 0.31083 0.46108 0.29244 0.0
H180 H 0.23415 0.53859 0.28336 0.0
C181 C 0.18847 0.44664 0.22424 0.0
C182 C 0.15229 0.45987 0.23084 0.0
C183 C 0.21969 0.45232 0.23945 0.0
C184 C 0.25501 0.51647 0.28617 0.0
H185 H 0.44742 0.50008 0.28815 0.0
H186 H 0.38407 0.47767 0.27949 0.0
H187 H 0.29373 0.55458 0.3036 0.0
H188 H 0.12049 0.48884 0.25888 0.0
H189 H 0.17506 0.49895 0.2852 0.0
H190 H 0.27292 0.42345 0.27399 0.0
C191 C 0.38792 0.4968 0.29456 0.0
C192 C 0.28907 0.52559 0.29788 0.0
C193 C 0.42432 0.51003 0.2994 0.0
C194 C 0.14795 0.47829 0.25319 0.0
C195 C 0.17922 0.48428 0.26826 0.0
C196 C 0.27697 0.45205 0.28062 0.0
C197 C 0.35677 0.50962 0.30804 0.0
C198 C 0.31787 0.4983 0.30041 0.0
C199 C 0.21547 0.47161 0.26148 0.0
C200 C 0.24918 0.47991 0.27672 0.0
H201 H 0.40447 0.56843 0.34667 0.0
H202 H 0.3397 0.54546 0.3379 0.0
H203 H 0.33219 0.43922 0.29452 0.0
H204 H 0.19279 0.4323 0.2072 0.0
H205 H 0.24738 0.44257 0.23361 0.0
C206 C 0.93875 0.41099 0.82282 0.0
C207 C 0.96544 0.43906 0.81676 0.0
C208 C 0.9462 0.37281 0.81781 0.0
C209 C 0.02246 0.30546 0.79901 0.0
H210 H 0.94069 0.25643 0.76405 0.0
C211 C 0.00172 0.18914 0.71934 0.0
C212 C 0.02312 0.15809 0.72757 0.0
C213 C 0.99453 0.21991 0.73438 0.0
C214 C 0.96377 0.26968 0.77387 0.0
H215 H 0.02193 0.44876 0.80227 0.0
H216 H 0.03456 0.38269 0.79332 0.0
H217 H 0.92888 0.31631 0.78443 0.0
H218 H 0.05466 0.1356 0.75799 0.0
H219 H 0.04222 0.18995 0.78435 0.0
H220 H 0.0578 0.25955 0.78727 0.0
C221 C 0.00799 0.3899 0.80202 0.0
C222 C 0.95688 0.30378 0.78582 0.0
C223 C 0.00053 0.42793 0.80693 0.0
C224 C 0.03799 0.15902 0.75111 0.0
C225 C 0.03091 0.1901 0.7662 0.0
C226 C 0.02935 0.27123 0.78706 0.0
C227 C 0.98055 0.36198 0.8068 0.0
C228 C 0.98642 0.32268 0.79791 0.0
C229 C 0.00864 0.22061 0.75804 0.0
C230 C 0.00034 0.25366 0.77371 0.0
H231 H 0.91156 0.4186 0.83056 0.0
H232 H 0.92466 0.35188 0.82197 0.0
H233 H 0.04569 0.3191 0.80845 0.0
H234 H 0.99006 0.18964 0.70127 0.0
H235 H 0.97804 0.24338 0.72737 0.0
C236 C 0.35719 0.00817 0.25023 0.0
C237 C 0.35295 0.02697 0.22802 0.0
C238 C 0.32581 0.00224 0.26528 0.0
C239 C 0.22939 0.03721 0.27825 0.0
H240 H 0.20808 0.93488 0.29995 0.0
C241 C 0.07931 0.98634 0.29744 0.0
C242 C 0.0719 0.9591 0.31529 0.0
C243 C 0.11626 0.99795 0.29253 0.0
C244 C 0.214 0.9638 0.29458 0.0
H245 H 0.31258 0.05507 0.20449 0.0
H246 H 0.25802 0.04514 0.23086 0.0
H247 H 0.26833 0.94882 0.27986 0.0
H248 H 0.09737 0.92374 0.34278 0.0
H249 H 0.16295 0.94406 0.33404 0.0
H250 H 0.17496 0.05218 0.29244 0.0
C251 C 0.28561 0.03494 0.23661 0.0
C252 C 0.24845 0.97174 0.28297 0.0
C253 C 0.31681 0.0404 0.22143 0.0
C254 C 0.10232 0.94482 0.32894 0.0
C255 C 0.13976 0.95625 0.32382 0.0
C256 C 0.19521 0.02938 0.29002 0.0
C257 C 0.28969 0.01555 0.25861 0.0
C258 C 0.25588 0.00825 0.27396 0.0
C259 C 0.1471 0.98261 0.30527 0.0
C260 C 0.18645 0.99229 0.29752 0.0
H261 H 0.38463 0.99741 0.25583 0.0
H262 H 0.3298 0.98734 0.28215 0.0
H263 H 0.23469 0.06578 0.27194 0.0
H264 H 0.05643 0.99809 0.2867 0.0
H265 H 0.12069 0.01779 0.2779 0.0
C266 C 0.44914 0.31268 0.72712 0.0
C267 C 0.46834 0.34685 0.73164 0.0
C268 C 0.45534 0.28111 0.74178 0.0
C269 C 0.52779 0.23587 0.77742 0.0
H270 H 0.44503 0.17474 0.80219 0.0
C271 C 0.55513 0.08867 0.82009 0.0
C272 C 0.53014 0.0602 0.81214 0.0
C273 C 0.54687 0.12697 0.81576 0.0
C274 C 0.46851 0.19136 0.79532 0.0
H275 H 0.50883 0.37491 0.75517 0.0
H276 H 0.52038 0.31919 0.78041 0.0
H277 H 0.43139 0.23565 0.78329 0.0
H278 H 0.47597 0.04985 0.79448 0.0
H279 H 0.46232 0.11556 0.78645 0.0
H280 H 0.56479 0.19073 0.78796 0.0
C281 C 0.50023 0.31715 0.7657 0.0
C282 C 0.46063 0.22628 0.7846 0.0
C283 C 0.49346 0.34899 0.75132 0.0
C284 C 0.49611 0.07091 0.80073 0.0
C285 C 0.48799 0.10887 0.79634 0.0
C286 C 0.53567 0.20061 0.7878 0.0
C287 C 0.48136 0.28291 0.76097 0.0
C288 C 0.49011 0.24841 0.77506 0.0
C289 C 0.51344 0.13745 0.80345 0.0
C290 C 0.50598 0.17742 0.79624 0.0
H291 H 0.42958 0.31026 0.71211 0.0
H292 H 0.44069 0.25488 0.73766 0.0
H293 H 0.551 0.25241 0.77007 0.0
H294 H 0.58148 0.08138 0.82905 0.0
H295 H 0.56691 0.1483 0.82173 0.0
C296 C 0.68848 0.54322 0.28814 0.0
C297 C 0.65293 0.52932 0.28083 0.0
C298 C 0.72074 0.53662 0.27413 0.0
C299 C 0.754 0.50504 0.21365 0.0
H300 H 0.84537 0.48138 0.24968 0.0
C301 C 0.89983 0.44174 0.17837 0.0
C302 C 0.93141 0.46117 0.18772 0.0
C303 C 0.86298 0.45226 0.18548 0.0
C304 C 0.82005 0.48805 0.23938 0.0
H305 H 0.62311 0.49851 0.25271 0.0
H306 H 0.67962 0.48608 0.22863 0.0
H307 H 0.78698 0.49519 0.27119 0.0
H308 H 0.94955 0.50864 0.20968 0.0
H309 H 0.88583 0.52719 0.22158 0.0
H310 H 0.78781 0.49691 0.18173 0.0
C311 C 0.68251 0.50265 0.24495 0.0
C312 C 0.78665 0.49626 0.25169 0.0
C313 C 0.65014 0.50962 0.25885 0.0
C314 C 0.92563 0.49311 0.20233 0.0
C315 C 0.88923 0.50364 0.20923 0.0
C316 C 0.78762 0.49638 0.20125 0.0
C317 C 0.71831 0.51551 0.25264 0.0
C318 C 0.75334 0.50558 0.23905 0.0
C319 C 0.85775 0.48227 0.20185 0.0
C320 C 0.82103 0.48854 0.2141 0.0
H321 H 0.69148 0.55896 0.3048 0.0
H322 H 0.74771 0.5478 0.2803 0.0
H323 H 0.72884 0.51217 0.20336 0.0
H324 H 0.90372 0.41686 0.1672 0.0
H325 H 0.83897 0.4354 0.17959 0.0
C326 C 0.06313 0.91012 0.685 0.0
C327 C 0.03484 0.93741 0.68922 0.0
C328 C 0.05591 0.87175 0.68958 0.0
C329 C 0.97874 0.8026 0.70414 0.0
H330 H 0.05541 0.75764 0.74536 0.0
C331 C 0.98932 0.69226 0.78787 0.0
C332 C 0.9705 0.65986 0.7792 0.0
C333 C 0.99773 0.72231 0.77252 0.0
C334 C 0.03378 0.76973 0.73378 0.0
H335 H 0.97597 0.94555 0.69964 0.0
H336 H 0.96367 0.87928 0.70793 0.0
H337 H 0.06924 0.8166 0.72444 0.0
H338 H 0.94447 0.63432 0.74766 0.0
H339 H 0.959 0.68748 0.72073 0.0
H340 H 0.94259 0.75656 0.7147 0.0
C341 C 0.99135 0.88715 0.70103 0.0
C342 C 0.04188 0.80328 0.72152 0.0
C343 C 0.99858 0.92533 0.69656 0.0
C344 C 0.95906 0.65885 0.7549 0.0
C345 C 0.96739 0.68921 0.73948 0.0
C346 C 0.97064 0.76893 0.71643 0.0
C347 C 0.0202 0.86002 0.69827 0.0
C348 C 0.01403 0.82081 0.70721 0.0
C349 C 0.98747 0.72091 0.74809 0.0
C350 C 0.99765 0.75295 0.73205 0.0
H351 H 0.09127 0.91852 0.67917 0.0
H352 H 0.0786 0.85141 0.68702 0.0
H353 H 0.95686 0.81515 0.69297 0.0
H354 H 0.99822 0.69427 0.80651 0.0
H355 H 0.01232 0.74679 0.77984 0.0
C356 C 0.59619 0.07413 0.20137 0.0
C357 C 0.57439 0.05183 0.18567 0.0
C358 C 0.63289 0.06303 0.20776 0.0
C359 C 0.71587 0.03884 0.21146 0.0
H360 H 0.72023 0.9371 0.23787 0.0
C361 C 0.85265 0.97878 0.25377 0.0
C362 C 0.84836 0.96274 0.27683 0.0
C363 C 0.82095 0.98676 0.2395 0.0
C364 C 0.71945 0.9655 0.23049 0.0
H365 H 0.57348 0.00092 0.16397 0.0
H366 H 0.63797 0.98097 0.17542 0.0
H367 H 0.6629 0.95834 0.2168 0.0
H368 H 0.8073 0.94103 0.3025 0.0
H369 H 0.75182 0.95484 0.27741 0.0
H370 H 0.77194 0.04643 0.22564 0.0
C371 C 0.62683 0.00736 0.18246 0.0
C372 C 0.68685 0.97751 0.21821 0.0
C373 C 0.59025 0.01892 0.17569 0.0
C374 C 0.81162 0.95352 0.28489 0.0
C375 C 0.77986 0.96123 0.27047 0.0
C376 C 0.74859 0.0267 0.22346 0.0
C377 C 0.64812 0.02891 0.19899 0.0
C378 C 0.68449 0.01455 0.20897 0.0
C379 C 0.78419 0.97859 0.24781 0.0
C380 C 0.75048 0.99014 0.23348 0.0
H381 H 0.5841 0.09925 0.20959 0.0
H382 H 0.64842 0.07998 0.22073 0.0
H383 H 0.71481 0.06751 0.20451 0.0
H384 H 0.88049 0.98611 0.24689 0.0
H385 H 0.82519 -0.00028 0.22201 0.0
C386 C 0.44703 0.59453 0.67092 0.0
C387 C 0.46433 0.56623 0.68492 0.0
C388 C 0.45779 0.63251 0.67384 0.0
C389 C 0.46311 0.70571 0.70353 0.0
H390 H 0.56646 0.7375 0.71734 0.0
C391 C 0.49861 0.81329 0.77657 0.0
C392 C 0.52579 0.84155 0.77197 0.0
C393 C 0.49226 0.78439 0.75995 0.0
C394 C 0.53751 0.72938 0.71314 0.0
H395 H 0.50822 0.55456 0.71131 0.0
H396 H 0.52723 0.62028 0.71613 0.0
H397 H 0.55514 0.67777 0.69616 0.0
H398 H 0.56822 0.86117 0.74647 0.0
H399 H 0.55757 0.80976 0.71754 0.0
H400 H 0.44541 0.75626 0.72166 0.0
C401 C 0.50535 0.61358 0.70306 0.0
C402 C 0.53103 0.6952 0.70111 0.0
C403 C 0.49418 0.57598 0.7005 0.0
C404 C 0.54703 0.83983 0.75051 0.0
C405 C 0.54094 0.81051 0.73396 0.0
C406 C 0.46958 0.73972 0.7157 0.0
C407 C 0.48654 0.64238 0.69033 0.0
C408 C 0.49373 0.68233 0.69708 0.0
C409 C 0.51317 0.78279 0.73843 0.0
C410 C 0.50677 0.75106 0.72147 0.0
H411 H 0.42398 0.58758 0.65875 0.0
H412 H 0.44287 0.65426 0.66382 0.0
H413 H 0.43407 0.69643 0.70081 0.0
H414 H 0.48175 0.81371 0.79289 0.0
H415 H 0.47124 0.76291 0.76409 0.0
C416 C 0.81298 0.52506 0.79483 0.0
C417 C 0.84857 0.52968 0.78368 0.0
C418 C 0.78139 0.51348 0.78146 0.0
C419 C 0.74109 0.51073 0.72073 0.0
H420 H 0.67689 0.4318 0.74742 0.0
C421 C 0.58441 0.48776 0.69496 0.0
C422 C 0.57018 0.4506 0.6936 0.0
C423 C 0.62207 0.49441 0.70157 0.0
C424 C 0.69482 0.45345 0.73953 0.0
H425 H 0.87846 0.52694 0.74953 0.0
H426 H 0.82292 0.50733 0.72611 0.0
H427 H 0.73501 0.45018 0.76846 0.0
H428 H 0.58458 0.39116 0.69694 0.0
H429 H 0.65074 0.40284 0.7089 0.0
H430 H 0.70022 0.51474 0.69215 0.0
C431 C 0.81972 0.5124 0.74526 0.0
C432 C 0.72783 0.46429 0.75173 0.0
C433 C 0.8515 0.52357 0.75869 0.0
C434 C 0.59491 0.42006 0.69774 0.0
C435 C 0.6326 0.42676 0.70475 0.0
C436 C 0.7078 0.50018 0.70866 0.0
C437 C 0.7845 0.50667 0.75659 0.0
C438 C 0.75097 0.49347 0.74267 0.0
C439 C 0.64625 0.46406 0.70727 0.0
C440 C 0.68403 0.47182 0.71813 0.0
H441 H 0.80964 0.52952 0.81402 0.0
H442 H 0.75444 0.50986 0.7906 0.0
H443 H 0.75837 0.53334 0.71336 0.0
H444 H 0.56595 0.51183 0.69178 0.0
H445 H 0.63161 0.52345 0.70353 0.0
C446 C 0.01243 0.57787 0.19161 0.0
C447 C 0.04936 0.56286 0.19044 0.0
C448 C 0.00678 0.61632 0.19617 0.0
C449 C 0.05051 0.6902 0.23063 0.0
H450 H 0.97489 0.75611 0.20182 0.0
C451 C 0.02024 0.83466 0.27247 0.0
C452 C 0.98226 0.84653 0.27358 0.0
C453 C 0.03067 0.80426 0.25793 0.0
C454 C 0.99587 0.73795 0.2102 0.0
H455 H 0.10937 0.57647 0.19164 0.0
H456 H 0.09946 0.64391 0.20019 0.0
H457 H 0.98963 0.69515 0.18296 0.0
H458 H 0.92546 0.83713 0.25995 0.0
H459 H 0.94314 0.78217 0.23539 0.0
H460 H 0.05531 0.73105 0.25866 0.0
C461 C 0.07496 0.62581 0.19744 0.0
C462 C 0.00451 0.70325 0.19927 0.0
C463 C 0.08063 0.58736 0.19248 0.0
C464 C 0.95493 0.82829 0.25933 0.0
C465 C 0.9652 0.79704 0.24517 0.0
C466 C 0.04149 0.72443 0.24175 0.0
C467 C 0.03797 0.64037 0.19996 0.0
C468 C 0.03173 0.67899 0.20952 0.0
C469 C 0.00316 0.7842 0.24468 0.0
C470 C 0.01387 0.74872 0.23181 0.0
H471 H 0.98785 0.55961 0.18979 0.0
H472 H 0.978 0.62675 0.19817 0.0
H473 H 0.07098 0.67165 0.23922 0.0
H474 H 0.04196 0.8489 0.28296 0.0
H475 H 0.06033 0.79616 0.25743 0.0
C476 C 0.91841 0.01624 0.70544 0.0
C477 C 0.92485 0.04437 0.68802 0.0
C478 C 0.88174 0.00663 0.71222 0.0
C479 C 0.78285 0.00271 0.70033 0.0
H480 H 0.77336 0.02412 0.7687 0.0
C481 C 0.64329 0.98171 0.75496 0.0
C482 C 0.64713 0.96734 0.77852 0.0
C483 C 0.67532 0.99124 0.7414 0.0
C484 C 0.77558 0.01765 0.74967 0.0
H485 H 0.89803 0.08254 0.6626 0.0
H486 H 0.83262 0.06551 0.67479 0.0
H487 H 0.83163 0.04076 0.74762 0.0
H488 H 0.68771 0.95003 0.80581 0.0
H489 H 0.74359 0.96607 0.782 0.0
H490 H 0.72712 0.97829 0.70263 0.0
C491 C 0.85649 0.05109 0.68302 0.0
C492 C 0.80874 0.02756 0.73758 0.0
C493 C 0.89369 0.06074 0.67606 0.0
C494 C 0.68373 0.96142 0.78785 0.0
C495 C 0.71574 0.97084 0.77425 0.0
C496 C 0.74949 0.99253 0.71252 0.0
C497 C 0.85056 0.02499 0.70181 0.0
C498 C 0.81298 0.01947 0.71298 0.0
C499 C 0.71188 0.98654 0.75105 0.0
C500 C 0.74593 -0.00085 0.73747 0.0
H501 H 0.94191 0.00287 0.71477 0.0
H502 H 0.87775 0.98609 0.72653 0.0
H503 H 0.78577 0.99602 0.68137 0.0
H504 H 0.61549 0.98655 0.74716 0.0
H505 H 0.67137 0.00342 0.72366 0.0
C506 C 0.44273 0.90368 0.19144 0.0
C507 C 0.46997 0.93273 0.19047 0.0
C508 C 0.45365 0.86673 0.19751 0.0
C509 C 0.48743 0.78724 0.2053 0.0
H510 H 0.55377 0.78845 0.2612 0.0
C511 C 0.53893 0.65142 0.25542 0.0
C512 C 0.53307 0.65277 0.28048 0.0
C513 C 0.53439 0.68409 0.2414 0.0
C514 C 0.5354 0.78764 0.24553 0.0
H515 H 0.53022 0.9454 0.19257 0.0
H516 H 0.54923 0.88108 0.20269 0.0
H517 H 0.53936 0.84742 0.2405 0.0
H518 H 0.51894 0.68942 0.31056 0.0
H519 H 0.51154 0.74627 0.2862 0.0
H520 H 0.48265 0.72727 0.2111 0.0
C521 C 0.51941 0.88687 0.19951 0.0
C522 C 0.5274 0.82134 0.23351 0.0
C523 C 0.50851 0.92367 0.19368 0.0
C524 C 0.52349 0.68745 0.29129 0.0
C525 C 0.51946 0.72005 0.27737 0.0
C526 C 0.4957 0.75331 0.2173 0.0
C527 C 0.49198 0.85837 0.20249 0.0
C528 C 0.50288 0.82165 0.21349 0.0
C529 C 0.5246 0.71867 0.2523 0.0
C530 C 0.51914 0.75343 0.23782 0.0
H531 H 0.41284 0.90994 0.18899 0.0
H532 H 0.43186 0.84533 0.19974 0.0
H533 H 0.46859 0.78664 0.18986 0.0
H534 H 0.54623 0.62503 0.2466 0.0
H535 H 0.53869 0.68241 0.22211 0.0
C536 C 0.32147 0.50109 0.72259 0.0
C537 C 0.35053 0.47703 0.73086 0.0
C538 C 0.29184 0.51179 0.73776 0.0
C539 C 0.23664 0.48493 0.7904 0.0
H540 H 0.20623 0.59054 0.78787 0.0
C541 C 0.09723 0.54206 0.83448 0.0
C542 C 0.07469 0.56107 0.81742 0.0
C543 C 0.13544 0.53378 0.82932 0.0
C544 C 0.21452 0.56102 0.78895 0.0
H545 H 0.37038 0.44432 0.76149 0.0
H546 H 0.31772 0.46278 0.78807 0.0
H547 H 0.26476 0.57055 0.76816 0.0
H548 H 0.07457 0.58792 0.78229 0.0
H549 H 0.14073 0.57433 0.77359 0.0
H550 H 0.18521 0.47527 0.8103 0.0
C551 C 0.31844 0.47352 0.76979 0.0
C552 C 0.24795 0.54956 0.77761 0.0
C553 C 0.34853 0.46302 0.75459 0.0
C554 C 0.09127 0.57315 0.79575 0.0
C555 C 0.12928 0.56556 0.79083 0.0
C556 C 0.20298 0.49645 0.80177 0.0
C557 C 0.29018 0.49856 0.76159 0.0
C558 C 0.25859 0.51119 0.77739 0.0
C559 C 0.15167 0.54525 0.80732 0.0
C560 C 0.19089 0.53438 0.80031 0.0
H561 H 0.32181 0.5123 0.70442 0.0
H562 H 0.27003 0.53046 0.73076 0.0
H563 H 0.24419 0.45517 0.79051 0.0
H564 H 0.08493 0.53221 0.85124 0.0
H565 H 0.15211 0.51806 0.84234 0.0
C566 C 0.99921 0.31435 0.22264 0.0
C567 C 0.02059 0.34509 0.23136 0.0
C568 C 0.98962 0.2843 0.23771 0.0
C569 C 0.01879 0.23408 0.29211 0.0
H570 H 0.91997 0.18692 0.28409 0.0
C571 C 0.993 0.07632 0.30693 0.0
C572 C 0.95728 0.06309 0.31455 0.0
C573 C 0.99945 0.11489 0.30355 0.0
C574 C 0.9474 0.20006 0.28703 0.0
H575 H 0.04922 0.36798 0.26281 0.0
H576 H 0.03251 0.31491 0.28926 0.0
H577 H 0.93291 0.24758 0.26496 0.0
H578 H 0.90098 0.08025 0.32604 0.0
H579 H 0.91229 0.14811 0.32006 0.0
H580 H 0.03352 0.18609 0.31381 0.0
C581 C 0.02315 0.3144 0.27067 0.0
C582 C 0.95498 0.23462 0.27579 0.0
C583 C 0.0327 0.34473 0.25553 0.0
C584 C 0.92871 0.08956 0.31998 0.0
C585 C 0.93515 0.12836 0.31648 0.0
C586 C 0.01118 0.19949 0.30342 0.0
C587 C 0.00116 0.28405 0.26193 0.0
C588 C 0.99122 0.25123 0.27742 0.0
C589 C 0.97037 0.14134 0.3077 0.0
C590 C 0.97587 0.18139 0.30023 0.0
H591 H 0.98962 0.31344 0.20409 0.0
H592 H 0.97351 0.26091 0.23023 0.0
H593 H 0.04696 0.2462 0.29375 0.0
H594 H 0.01583 0.05674 0.30287 0.0
H595 H 0.02673 0.12372 0.29648 0.0
C596 C 0.39382 0.94256 0.82635 0.0
C597 C 0.42444 0.95298 0.81154 0.0
C598 C 0.35713 0.9563 0.8214 0.0
C599 C 0.30629 0.03071 0.78625 0.0
H600 H 0.22702 0.95536 0.77869 0.0
C601 C 0.1833 0.04656 0.71872 0.0
C602 C 0.14678 0.0353 0.72603 0.0
C603 C 0.21467 0.0402 0.73367 0.0
C604 C 0.24865 0.97689 0.78107 0.0
H605 H 0.44116 0.98746 0.7809 0.0
H606 H 0.37827 0.01103 0.77246 0.0
H607 H 0.28644 0.93813 0.79869 0.0
H608 H 0.11459 0.00902 0.75496 0.0
H609 H 0.16942 0.99765 0.78079 0.0
H610 H 0.26931 0.0689 0.76755 0.0
C611 C 0.382 0.99247 0.78783 0.0
C612 C 0.28259 0.96706 0.79265 0.0
C613 C 0.41812 0.97852 0.79254 0.0
C614 C 0.14232 0.01804 0.74873 0.0
C615 C 0.17371 0.01135 0.76353 0.0
C616 C 0.27256 0.04042 0.77454 0.0
C617 C 0.35093 0.98121 0.80192 0.0
C618 C 0.31226 0.99353 0.79461 0.0
C619 C 0.21022 0.02217 0.75611 0.0
C620 C 0.24387 0.01329 0.77119 0.0
H621 H 0.39798 0.92299 0.84115 0.0
H622 H 0.33362 0.94721 0.83258 0.0
H623 H 0.32839 0.05194 0.78789 0.0
H624 H 0.1877 0.05999 0.70139 0.0
H625 H 0.2426 0.04849 0.72738 0.0
C626 C 0.56828 0.40328 0.32015 0.0
C627 C 0.54002 0.43077 0.31641 0.0
C628 C 0.56078 0.36506 0.3153 0.0
C629 C 0.48307 0.29651 0.30113 0.0
H630 H 0.55814 0.25209 0.25857 0.0
C631 C 0.46173 0.15285 0.25092 0.0
C632 C 0.47233 0.15348 0.22647 0.0
C633 C 0.47056 0.18341 0.26603 0.0
C634 C 0.53695 0.26407 0.2705 0.0
H635 H 0.48094 0.43945 0.30653 0.0
H636 H 0.46813 0.37336 0.29784 0.0
H637 H 0.57274 0.31083 0.27958 0.0
H638 H 0.49911 0.1874 0.19857 0.0
H639 H 0.51406 0.2404 0.22475 0.0
H640 H 0.44656 0.25059 0.29092 0.0
C641 C 0.49601 0.38099 0.30456 0.0
C642 C 0.54551 0.29745 0.28282 0.0
C643 C 0.50352 0.41903 0.30927 0.0
C644 C 0.49084 0.18573 0.21734 0.0
C645 C 0.49973 0.21604 0.2324 0.0
C646 C 0.47451 0.26301 0.2888 0.0
C647 C 0.52481 0.3537 0.30683 0.0
C648 C 0.51824 0.31472 0.29766 0.0
C649 C 0.49028 0.21499 0.25696 0.0
C650 C 0.50094 0.2472 0.27274 0.0
H651 H 0.5966 0.41145 0.3258 0.0
H652 H 0.58343 0.34457 0.31747 0.0
H653 H 0.46164 0.30892 0.3127 0.0
H654 H 0.4474 0.12845 0.25851 0.0
H655 H 0.46283 0.18193 0.28489 0.0
C656 C 0.11795 0.31285 0.15232 0.0
C657 C 0.12836 0.35131 0.15172 0.0
C658 C 0.14515 0.2845 0.14871 0.0
C659 C 0.24411 0.26821 0.12682 0.0
H660 H 0.23852 0.17977 0.16816 0.0
C661 C 0.37169 0.16995 0.14638 0.0
C662 C 0.36509 0.13067 0.14742 0.0
C663 C 0.34149 0.19525 0.14351 0.0
C664 C 0.24019 0.20402 0.15623 0.0
H665 H 0.17553 0.3901 0.14662 0.0
H666 H 0.22297 0.34085 0.14094 0.0
H667 H 0.18817 0.22701 0.16964 0.0
H668 H 0.32157 0.08716 0.14574 0.0
H669 H 0.26877 0.1315 0.1409 0.0
H670 H 0.29699 0.24565 0.11413 0.0
C671 C 0.19368 0.33245 0.14362 0.0
C672 C 0.21126 0.23113 0.15703 0.0
C673 C 0.16645 0.36077 0.14702 0.0
C674 C 0.32766 0.11723 0.14491 0.0
C675 C 0.29739 0.1426 0.14231 0.0
C676 C 0.27322 0.24125 0.1262 0.0
C677 C 0.18348 0.29391 0.14465 0.0
C678 C 0.21303 0.26382 0.14254 0.0
C679 C 0.30395 0.1819 0.14187 0.0
C680 C 0.27176 0.20907 0.14108 0.0
H681 H 0.08882 0.30456 0.15577 0.0
H682 H 0.13609 0.25518 0.14922 0.0
H683 H 0.24611 0.29261 0.11506 0.0
H684 H 0.40016 0.18126 0.14825 0.0
H685 H 0.34741 0.22538 0.14346 0.0
C686 C 0.16209 0.13136 0.63976 0.0
C687 C 0.12571 0.1429 0.64727 0.0
C688 C 0.19131 0.15788 0.6369 0.0
C689 C 0.21043 0.26095 0.63068 0.0
H690 H 0.30803 0.23554 0.65884 0.0
C691 C 0.32196 0.37397 0.65547 0.0
C692 C 0.36066 0.36562 0.65204 0.0
C693 C 0.2942 0.34633 0.65162 0.0
C694 C 0.28119 0.24291 0.65052 0.0
H695 H 0.09138 0.19166 0.657 0.0
H696 H 0.14225 0.23769 0.65213 0.0
H697 H 0.25778 0.18805 0.65762 0.0
H698 H 0.40037 0.32164 0.64142 0.0
H699 H 0.35177 0.27342 0.63456 0.0
H700 H 0.23363 0.31606 0.62402 0.0
C701 C 0.14815 0.2082 0.64822 0.0
C702 C 0.25235 0.21565 0.64981 0.0
C703 C 0.11898 0.18171 0.65114 0.0
C704 C 0.37084 0.32907 0.64425 0.0
C705 C 0.34301 0.30135 0.64045 0.0
C706 C 0.23926 0.2882 0.63138 0.0
C707 C 0.18481 0.19656 0.6414 0.0
C708 C 0.21643 0.22452 0.64022 0.0
C709 C 0.30437 0.30958 0.64428 0.0
C710 C 0.2748 0.2797 0.64166 0.0
H711 H 0.16831 0.10171 0.63662 0.0
H712 H 0.21911 0.14805 0.63135 0.0
H713 H 0.18331 0.26851 0.6228 0.0
H714 H 0.31304 0.40176 0.66154 0.0
H715 H 0.26478 0.3535 0.65508 0.0
C716 C 0.88197 0.81514 0.3538 0.0
C717 C 0.87294 0.85395 0.35414 0.0
C718 C 0.85359 0.78772 0.35685 0.0
C719 C 0.75244 0.77502 0.37636 0.0
H720 H 0.75929 0.68382 0.33763 0.0
C721 C 0.62532 0.67384 0.35826 0.0
C722 C 0.63255 0.63464 0.35901 0.0
C723 C 0.65511 0.69999 0.36034 0.0
C724 C 0.75717 0.70893 0.34878 0.0
H725 H 0.82682 0.89426 0.35809 0.0
H726 H 0.7774 0.84671 0.36272 0.0
H727 H 0.81035 0.73031 0.33612 0.0
H728 H 0.67689 0.59232 0.36294 0.0
H729 H 0.72873 0.63795 0.36638 0.0
H730 H 0.69846 0.75391 0.38831 0.0
C731 C 0.80649 0.83726 0.36074 0.0
C732 C 0.78656 0.73562 0.348 0.0
C733 C 0.83492 0.86464 0.35797 0.0
C734 C 0.6702 0.62227 0.36241 0.0
C735 C 0.69999 0.6484 0.36419 0.0
C736 C 0.72284 0.74849 0.37691 0.0
C737 C 0.81532 0.79836 0.36002 0.0
C738 C 0.78459 0.76916 0.36169 0.0
C739 C 0.69285 0.68754 0.36288 0.0
C740 C 0.72481 0.7152 0.36307 0.0
H741 H 0.91098 0.80588 0.35101 0.0
H742 H 0.86171 0.75813 0.35665 0.0
H743 H 0.75011 0.80008 0.38751 0.0
H744 H 0.59672 0.68438 0.3556 0.0
H745 H 0.64872 0.72995 0.35909 0.0
C746 C 0.61818 0.81714 0.85423 0.0
C747 C 0.625 0.8564 0.85552 0.0
C748 C 0.64776 0.79118 0.85771 0.0
C749 C 0.75111 0.78347 0.85159 0.0
H750 H 0.73972 0.69073 0.88837 0.0
C751 C 0.87646 0.68019 0.86197 0.0
C752 C 0.86861 0.64118 0.86058 0.0
C753 C 0.84704 0.70653 0.86436 0.0
C754 C 0.7433 0.71628 0.87781 0.0
H755 H 0.66832 0.89899 0.862 0.0
H756 H 0.71987 0.85368 0.86793 0.0
H757 H 0.68759 0.73641 0.88694 0.0
H758 H 0.82359 0.59925 0.86114 0.0
H759 H 0.77213 0.64519 0.86467 0.0
H760 H 0.80608 0.76317 0.84171 0.0
C761 C 0.6916 0.84304 0.86417 0.0
C762 C 0.71342 0.74252 0.87707 0.0
C763 C 0.66197 0.869 0.86093 0.0
C764 C 0.83065 0.62907 0.86237 0.0
C765 C 0.80111 0.6555 0.86446 0.0
C766 C 0.78078 0.75715 0.85212 0.0
C767 C 0.68495 0.80384 0.8623 0.0
C768 C 0.71699 0.7764 0.86392 0.0
C769 C 0.80885 0.69467 0.86505 0.0
C770 C 0.77735 0.72312 0.86521 0.0
H771 H 0.59008 0.80639 0.8501 0.0
H772 H 0.64175 0.76119 0.85597 0.0
H773 H 0.75453 0.80896 0.84093 0.0
H774 H 0.90541 0.6905 0.86086 0.0
H775 H 0.8543 0.73631 0.86538 0.0
C776 C 0.99434 0.56252 0.92061 0.0
C777 C 0.97418 0.53673 0.90609 0.0
C778 C 0.00339 0.55356 0.94446 0.0
C779 C 0.0128 0.47301 0.98685 0.0
H780 H 0.00088 0.55084 0.03564 0.0
C781 C 0.01766 0.4389 0.08836 0.0
C782 C 0.03765 0.46396 0.10349 0.0
C783 C 0.01062 0.4482 0.06431 0.0
C784 C 0.00479 0.52892 0.0222 0.0
H785 H 0.94831 0.48091 0.90527 0.0
H786 H 0.96377 0.46544 0.94696 0.0
H787 H 0.98778 0.56578 0.99354 0.0
H788 H 0.06546 0.5188 0.10513 0.0
H789 H 0.05327 0.53494 0.06302 0.0
H790 H 0.02957 0.4361 0.01555 0.0
C791 C 0.97292 0.4925 0.9398 0.0
C792 C 0.9973 0.53747 0.99805 0.0
C793 C 0.96388 0.50145 0.91591 0.0
C794 C 0.04999 0.49882 0.09401 0.0
C795 C 0.04286 0.50816 0.0699 0.0
C796 C 0.02024 0.46446 0.011 0.0
C797 C 0.99252 0.51857 0.95443 0.0
C798 C 0.0011 0.50959 0.98008 0.0
C799 C 0.02331 0.48282 0.05473 0.0
C800 C 0.01617 0.49225 0.02898 0.0
H801 H 0.00297 0.58986 0.91362 0.0
H802 H 0.01907 0.57404 0.95507 0.0
H803 H 0.01663 0.45104 0.97345 0.0
H804 H 0.00752 0.41189 0.09504 0.0
H805 H 0.99493 0.42831 0.05325 0.0
C806 C 0.00595 0.06016 0.58596 0.0
C807 C 0.02632 0.03491 0.60073 0.0
C808 C 0.99832 0.05121 0.5619 0.0
C809 C 0.99323 0.97111 0.5189 0.0
H810 H 0.00408 0.05023 0.47087 0.0
C811 C 0.98881 0.93899 0.41696 0.0
C812 C 0.96849 0.96418 0.40211 0.0
C813 C 0.99602 0.94788 0.44108 0.0
C814 C 0.0005 0.02791 0.48407 0.0
H815 H 0.05406 0.98002 0.60176 0.0
H816 H 0.041 0.96456 0.55969 0.0
H817 H 0.01578 0.06467 0.51319 0.0
H818 H 0.94035 0.01886 0.40103 0.0
H819 H 0.95274 0.03423 0.44319 0.0
H820 H 0.978 0.93435 0.48977 0.0
C821 C 0.03064 0.99119 0.56682 0.0
C822 C 0.0072 0.03618 0.50836 0.0
C823 C 0.03828 0.00014 0.59093 0.0
C824 C 0.9561 0.99879 0.41192 0.0
C825 C 0.96335 0.00769 0.43608 0.0
C826 C 0.98654 0.96284 0.49461 0.0
C827 C 0.01084 0.01678 0.55195 0.0
C828 C 0.00364 0.00789 0.52609 0.0
C829 C 0.98315 0.9822 0.45101 0.0
C830 C 0.99013 0.99112 0.47688 0.0
H831 H 0.99605 0.08709 0.5929 0.0
H832 H 0.98243 0.07129 0.55111 0.0
H833 H 0.98966 0.94879 0.5321 0.0
H834 H 0.99901 0.91217 0.41002 0.0
H835 H 0.01192 0.92788 0.45192 0.0
C836 C 0.5028 0.93341 0.9158 0.0
C837 C 0.52147 0.96005 0.90111 0.0
C838 C 0.49516 0.94144 0.94 0.0
C839 C 0.48673 0.02056 0.9836 0.0
H840 H 0.50378 0.94192 0.03123 0.0
C841 C 0.48588 0.05287 0.08536 0.0
C842 C 0.46756 0.02693 0.10072 0.0
C843 C 0.49238 0.04401 0.06117 0.0
C844 C 0.49845 0.96407 0.01814 0.0
H845 H 0.5461 0.01643 0.90041 0.0
H846 H 0.533 0.03031 0.94262 0.0
H847 H 0.51434 0.9283 0.98865 0.0
H848 H 0.44247 0.97084 0.10264 0.0
H849 H 0.45364 0.95546 0.06031 0.0
H850 H 0.47092 0.05635 0.01305 0.0
C851 C 0.52396 0.00328 0.93535 0.0
C852 C 0.50449 0.95626 0.99371 0.0
C853 C 0.53164 0.99524 0.91114 0.0
C854 C 0.45665 0.9915 0.09135 0.0
C855 C 0.46319 0.98262 0.06709 0.0
C856 C 0.4807 0.02836 0.00801 0.0
C857 C 0.50592 0.97636 0.95015 0.0
C858 C 0.49883 0.98446 0.97613 0.0
C859 C 0.48078 0.00895 0.05164 0.0
C860 C 0.48665 0.00028 0.02562 0.0
H861 H 0.49438 0.90607 0.9087 0.0
H862 H 0.48068 0.92029 0.95075 0.0
H863 H 0.48147 0.04276 0.97054 0.0
H864 H 0.49496 0.08032 0.09194 0.0
H865 H 0.50667 0.06467 0.04994 0.0
C866 C 0.50698 0.54721 0.41926 0.0
C867 C 0.53271 0.52583 0.40548 0.0
C868 C 0.50011 0.53812 0.44338 0.0
C869 C 0.51206 0.46151 0.48898 0.0
H870 H 0.49705 0.54442 0.53386 0.0
C871 C 0.50285 0.44079 0.5928 0.0
C872 C 0.47213 0.45919 0.60402 0.0
C873 C 0.51188 0.44856 0.56871 0.0
C874 C 0.50103 0.52096 0.52152 0.0
H875 H 0.57102 0.47768 0.40624 0.0
H876 H 0.55976 0.46237 0.44844 0.0
H877 H 0.50914 0.55807 0.49154 0.0
H878 H 0.42745 0.5008 0.59888 0.0
H879 H 0.44353 0.51458 0.55711 0.0
H880 H 0.50444 0.42451 0.51927 0.0
C881 C 0.5443 0.48579 0.44052 0.0
C882 C 0.50776 0.52873 0.4972 0.0
C883 C 0.55089 0.49467 0.41629 0.0
C884 C 0.45119 0.486 0.59078 0.0
C885 C 0.46052 0.49409 0.56688 0.0
C886 C 0.50571 0.45376 0.5134 0.0
C887 C 0.51908 0.50763 0.45446 0.0
C888 C 0.51294 0.49913 0.48052 0.0
C889 C 0.49078 0.47529 0.55551 0.0
C890 C 0.49972 0.4834 0.52986 0.0
H891 H 0.49219 0.57117 0.41144 0.0
H892 H 0.47981 0.55505 0.45332 0.0
H893 H 0.51545 0.43794 0.47668 0.0
H894 H 0.51951 0.41996 0.60249 0.0
H895 H 0.53554 0.43384 0.56045 0.0
loop_
_geom_bond_atom_site_label_1
_geom_bond_atom_site_label_2
_geom_bond_distance
_geom_bond_site_symmetry_2
_ccdc_geom_bond_type
Fe0 O2 1.918 . S
Fe0 O5 1.997 . S
Fe0 O6 2.002 . S
Fe0 O11 1.976 . S
Fe0 O14 1.996 1_455 S
Fe1 O2 1.918 . S
Fe1 O9 1.997 . S
Fe1 O12 1.996 . S
Fe1 O16 1.976 . S
Fe1 O19 2.002 . S
O2 Fe0 1.918 . S
O2 Fe1 1.918 . S
O2 Fe3 1.918 . S
Fe3 O2 1.918 . S
Fe3 O4 2.002 . S
Fe3 O13 1.976 1_455 S
Fe3 O17 1.996 . S
Fe3 O20 1.997 . S
O4 Fe3 2.002 . S
O4 C21 1.295 . S
O5 Fe0 1.997 . S
O5 C21 1.235 . S
O6 Fe0 2.002 . S
O6 C7 1.295 . S
C7 O6 1.295 . S
C7 O9 1.235 . S
C8 O13 1.287 . S
C8 O14 1.255 . S
O9 Fe1 1.997 . S
O9 C7 1.235 . S
C10 O16 1.287 . S
C10 O17 1.255 . S
O11 Fe0 1.976 . S
O11 C18 1.287 . S
O12 Fe1 1.996 . S
O12 C18 1.255 . S
O13 Fe3 1.976 1_655 S
O13 C8 1.287 . S
O14 Fe0 1.996 1_655 S
O14 C8 1.255 . S
C15 O19 1.295 . S
C15 O20 1.235 . S
O16 Fe1 1.976 . S
O16 C10 1.287 . S
O17 Fe3 1.996 . S
O17 C10 1.255 . S
C18 O11 1.287 . S
C18 O12 1.255 . S
O19 Fe1 2.002 . S
O19 C15 1.295 . S
O20 Fe3 1.997 . S
O20 C15 1.235 . S
C21 O4 1.295 . S
C21 O5 1.235 . S
Fe22 O24 1.918 . S
Fe22 O27 1.997 . S
Fe22 O28 2.002 . S
Fe22 O33 1.976 1_455 S
Fe22 O36 1.996 . S
Fe23 O24 1.918 . S
Fe23 O31 1.997 . S
Fe23 O34 1.996 1_455 S
Fe23 O38 1.976 1_545 S
Fe23 O41 2.002 . S
O24 Fe22 1.918 . S
O24 Fe23 1.918 . S
O24 Fe25 1.918 . S
Fe25 O24 1.918 . S
Fe25 O26 2.002 . S
Fe25 O35 1.976 . S
Fe25 O39 1.996 1_545 S
Fe25 O42 1.997 . S
O26 Fe25 2.002 . S
O26 C43 1.295 . S
O27 Fe22 1.997 . S
O27 C43 1.235 . S
O28 Fe22 2.002 . S
O28 C29 1.295 . S
C29 O28 1.295 . S
C29 O31 1.235 . S
C30 O35 1.287 . S
C30 O36 1.255 . S
O31 Fe23 1.997 . S
O31 C29 1.235 . S
C32 O38 1.287 . S
C32 O39 1.255 . S
O33 Fe22 1.976 1_655 S
O33 C40 1.287 . S
O34 Fe23 1.996 1_655 S
O34 C40 1.255 . S
O35 Fe25 1.976 . S
O35 C30 1.287 . S
O36 Fe22 1.996 . S
O36 C30 1.255 . S
C37 O41 1.295 . S
C37 O42 1.235 . S
O38 Fe23 1.976 1_565 S
O38 C32 1.287 . S
O39 Fe25 1.996 1_565 S
O39 C32 1.255 . S
C40 O33 1.287 . S
C40 O34 1.255 . S
O41 Fe23 2.002 . S
O41 C37 1.295 . S
O42 Fe25 1.997 . S
O42 C37 1.235 . S
C43 O26 1.295 . S
C43 O27 1.235 . S
Fe44 O46 1.918 . S
Fe44 O49 1.997 . S
Fe44 O50 2.002 . S
Fe44 O55 1.976 . S
Fe44 O58 1.996 1_545 S
Fe45 O46 1.918 . S
Fe45 O53 1.997 . S
Fe45 O56 1.996 . S
Fe45 O60 1.976 . S
Fe45 O63 2.002 . S
O46 Fe44 1.918 . S
O46 Fe45 1.918 . S
O46 Fe47 1.918 . S
Fe47 O46 1.918 . S
Fe47 O48 2.002 . S
Fe47 O57 1.976 1_545 S
Fe47 O61 1.996 . S
Fe47 O64 1.997 . S
O48 Fe47 2.002 . S
O48 C65 1.295 . S
O49 Fe44 1.997 . S
O49 C65 1.235 . S
O50 Fe44 2.002 . S
O50 C51 1.295 . S
C51 O50 1.295 . S
C51 O53 1.235 . S
C52 O57 1.287 . S
C52 O58 1.255 . S
O53 Fe45 1.997 . S
O53 C51 1.235 . S
C54 O60 1.287 . S
C54 O61 1.255 . S
O55 Fe44 1.976 . S
O55 C62 1.287 . S
O56 Fe45 1.996 . S
O56 C62 1.255 . S
O57 Fe47 1.976 1_565 S
O57 C52 1.287 . S
O58 Fe44 1.996 1_565 S
O58 C52 1.255 . S
C59 O63 1.295 . S
C59 O64 1.235 . S
O60 Fe45 1.976 . S
O60 C54 1.287 . S
O61 Fe47 1.996 . S
O61 C54 1.255 . S
C62 O55 1.287 . S
C62 O56 1.255 . S
O63 Fe45 2.002 . S
O63 C59 1.295 . S
O64 Fe47 1.997 . S
O64 C59 1.235 . S
C65 O48 1.295 . S
C65 O49 1.235 . S
Fe66 O68 1.918 . S
Fe66 O71 1.997 . S
Fe66 O72 2.002 . S
Fe66 O77 1.976 . S
Fe66 O80 1.996 . S
Fe67 O68 1.918 . S
Fe67 O75 1.997 . S
Fe67 O78 1.996 . S
Fe67 O82 1.976 . S
Fe67 O85 2.002 . S
O68 Fe66 1.918 . S
O68 Fe67 1.918 . S
O68 Fe69 1.918 . S
Fe69 O68 1.918 . S
Fe69 O70 2.002 . S
Fe69 O79 1.976 . S
Fe69 O83 1.996 . S
Fe69 O86 1.997 . S
O70 Fe69 2.002 . S
O70 C87 1.295 . S
O71 Fe66 1.997 . S
O71 C87 1.235 . S
O72 Fe66 2.002 . S
O72 C73 1.295 . S
C73 O72 1.295 . S
C73 O75 1.235 . S
C74 O79 1.287 . S
C74 O80 1.255 . S
O75 Fe67 1.997 . S
O75 C73 1.235 . S
C76 O82 1.287 . S
C76 O83 1.255 . S
O77 Fe66 1.976 . S
O77 C84 1.287 . S
O78 Fe67 1.996 . S
O78 C84 1.255 . S
O79 Fe69 1.976 . S
O79 C74 1.287 . S
O80 Fe66 1.996 . S
O80 C74 1.255 . S
C81 O85 1.295 . S
C81 O86 1.235 . S
O82 Fe67 1.976 . S
O82 C76 1.287 . S
O83 Fe69 1.996 . S
O83 C76 1.255 . S
C84 O77 1.287 . S
C84 O78 1.255 . S
O85 Fe67 2.002 . S
O85 C81 1.295 . S
O86 Fe69 1.997 . S
O86 C81 1.235 . S
C87 O70 1.295 . S
C87 O71 1.235 . S
Fe88 O90 1.918 . S
Fe88 O93 1.997 . S
Fe88 O94 2.002 . S
Fe88 O99 1.976 . S
Fe88 O102 1.996 . S
Fe89 O90 1.918 . S
Fe89 O97 1.997 . S
Fe89 O100 1.996 . S
Fe89 O104 1.976 . S
Fe89 O107 2.002 . S
O90 Fe88 1.918 . S
O90 Fe89 1.918 . S
O90 Fe91 1.918 . S
Fe91 O90 1.918 . S
Fe91 O92 2.002 . S
Fe91 O101 1.976 . S
Fe91 O105 1.996 . S
Fe91 O108 1.997 . S
O92 Fe91 2.002 . S
O92 C109 1.295 . S
O93 Fe88 1.997 . S
O93 C109 1.235 . S
O94 Fe88 2.002 . S
O94 C95 1.295 . S
C95 O94 1.295 . S
C95 O97 1.235 . S
C96 O101 1.287 . S
C96 O102 1.255 . S
O97 Fe89 1.997 . S
O97 C95 1.235 . S
C98 O104 1.287 . S
C98 O105 1.255 . S
O99 Fe88 1.976 . S
O99 C106 1.287 . S
O100 Fe89 1.996 . S
O100 C106 1.255 . S
O101 Fe91 1.976 . S
O101 C96 1.287 . S
O102 Fe88 1.996 . S
O102 C96 1.255 . S
C103 O107 1.295 . S
C103 O108 1.235 . S
O104 Fe89 1.976 . S
O104 C98 1.287 . S
O105 Fe91 1.996 . S
O105 C98 1.255 . S
C106 O99 1.287 . S
C106 O100 1.255 . S
O107 Fe89 2.002 . S
O107 C103 1.295 . S
O108 Fe91 1.997 . S
O108 C103 1.235 . S
C109 O92 1.295 . S
C109 O93 1.235 . S
Fe110 O112 1.918 . S
Fe110 O115 1.997 . S
Fe110 O116 2.002 . S
Fe110 O121 1.976 1_655 S
Fe110 O124 1.996 . S
Fe111 O112 1.918 . S
Fe111 O119 1.997 . S
Fe111 O122 1.996 1_655 S
Fe111 O126 1.976 . S
Fe111 O129 2.002 . S
O112 Fe110 1.918 . S
O112 Fe111 1.918 . S
O112 Fe113 1.918 . S
Fe113 O112 1.918 . S
Fe113 O114 2.002 . S
Fe113 O123 1.976 . S
Fe113 O127 1.996 . S
Fe113 O130 1.997 . S
O114 Fe113 2.002 . S
O114 C131 1.295 . S
O115 Fe110 1.997 . S
O115 C131 1.235 . S
O116 Fe110 2.002 . S
O116 C117 1.295 . S
C117 O116 1.295 . S
C117 O119 1.235 . S
C118 O123 1.287 . S
C118 O124 1.255 . S
O119 Fe111 1.997 . S
O119 C117 1.235 . S
C120 O126 1.287 . S
C120 O127 1.255 . S
O121 Fe110 1.976 1_455 S
O121 C128 1.287 . S
O122 Fe111 1.996 1_455 S
O122 C128 1.255 . S
O123 Fe113 1.976 . S
O123 C118 1.287 . S
O124 Fe110 1.996 . S
O124 C118 1.255 . S
C125 O129 1.295 . S
C125 O130 1.235 . S
O126 Fe111 1.976 . S
O126 C120 1.287 . S
O127 Fe113 1.996 . S
O127 C120 1.255 . S
C128 O121 1.287 . S
C128 O122 1.255 . S
O129 Fe111 2.002 . S
O129 C125 1.295 . S
O130 Fe113 1.997 . S
O130 C125 1.235 . S
C131 O114 1.295 . S
C131 O115 1.235 . S
Fe132 O134 1.918 . S
Fe132 O137 1.997 . S
Fe132 O138 2.002 . S
Fe132 O143 1.976 1_655 S
Fe132 O146 1.996 1_565 S
Fe133 O134 1.918 . S
Fe133 O141 1.997 . S
Fe133 O144 1.996 1_655 S
Fe133 O148 1.976 . S
Fe133 O151 2.002 . S
O134 Fe132 1.918 . S
O134 Fe133 1.918 . S
O134 Fe135 1.918 . S
Fe135 O134 1.918 . S
Fe135 O136 2.002 . S
Fe135 O145 1.976 1_565 S
Fe135 O149 1.996 . S
Fe135 O152 1.997 . S
O136 Fe135 2.002 . S
O136 C153 1.295 . S
O137 Fe132 1.997 . S
O137 C153 1.235 . S
O138 Fe132 2.002 . S
O138 C139 1.295 . S
C139 O138 1.295 . S
C139 O141 1.235 . S
C140 O145 1.287 . S
C140 O146 1.255 . S
O141 Fe133 1.997 . S
O141 C139 1.235 . S
C142 O148 1.287 . S
C142 O149 1.255 . S
O143 Fe132 1.976 1_455 S
O143 C150 1.287 . S
O144 Fe133 1.996 1_455 S
O144 C150 1.255 . S
O145 Fe135 1.976 1_545 S
O145 C140 1.287 . S
O146 Fe132 1.996 1_545 S
O146 C140 1.255 . S
C147 O151 1.295 . S
C147 O152 1.235 . S
O148 Fe133 1.976 . S
O148 C142 1.287 . S
O149 Fe135 1.996 . S
O149 C142 1.255 . S
C150 O143 1.287 . S
C150 O144 1.255 . S
O151 Fe133 2.002 . S
O151 C147 1.295 . S
O152 Fe135 1.997 . S
O152 C147 1.235 . S
C153 O136 1.295 . S
C153 O137 1.235 . S
Fe154 O156 1.918 . S
Fe154 O159 1.997 . S
Fe154 O160 2.002 . S
Fe154 O165 1.976 . S
Fe154 O168 1.996 1_565 S
Fe155 O156 1.918 . S
Fe155 O163 1.997 . S
Fe155 O166 1.996 . S
Fe155 O170 1.976 . S
Fe155 O173 2.002 . S
O156 Fe154 1.918 . S
O156 Fe155 1.918 . S
O156 Fe157 1.918 . S
Fe157 O156 1.918 . S
Fe157 O158 2.002 . S
Fe157 O167 1.976 1_565 S
Fe157 O171 1.996 . S
Fe157 O174 1.997 . S
O158 Fe157 2.002 . S
O158 C175 1.295 . S
O159 Fe154 1.997 . S
O159 C175 1.235 . S
O160 Fe154 2.002 . S
O160 C161 1.295 . S
C161 O160 1.295 . S
C161 O163 1.235 . S
C162 O167 1.287 . S
C162 O168 1.255 . S
O163 Fe155 1.997 . S
O163 C161 1.235 . S
C164 O170 1.287 . S
C164 O171 1.255 . S
O165 Fe154 1.976 . S
O165 C172 1.287 . S
O166 Fe155 1.996 . S
O166 C172 1.255 . S
O167 Fe157 1.976 1_545 S
O167 C162 1.287 . S
O168 Fe154 1.996 1_545 S
O168 C162 1.255 . S
C169 O173 1.295 . S
C169 O174 1.235 . S
O170 Fe155 1.976 . S
O170 C164 1.287 . S
O171 Fe157 1.996 . S
O171 C164 1.255 . S
C172 O165 1.287 . S
C172 O166 1.255 . S
O173 Fe155 2.002 . S
O173 C169 1.295 . S
O174 Fe157 1.997 . S
O174 C169 1.235 . S
C175 O158 1.295 . S
C175 O159 1.235 . S
C176 C177 1.349 . S
C176 C178 1.327 . S
C176 H201 0.950 . S
C177 C176 1.349 . S
C177 C193 1.349 . S
C178 C176 1.327 . S
C178 C197 1.429 . S
C178 H202 0.950 . S
C179 C196 1.574 . S
C179 C198 1.368 . S
C179 H203 0.949 . S
H180 C184 0.949 . S
C181 C182 1.349 . S
C181 C183 1.327 . S
C181 H204 0.950 . S
C182 C181 1.349 . S
C182 C194 1.349 . S
C183 C181 1.327 . S
C183 C199 1.429 . S
C183 H205 0.950 . S
C184 H180 0.949 . S
C184 C192 1.574 . S
C184 C200 1.368 . S
H185 C193 0.950 . S
H186 C191 0.950 . S
H187 C192 0.949 . S
H188 C194 0.950 . S
H189 C195 0.950 . S
H190 C196 0.949 . S
C191 H186 0.950 . S
C191 C193 1.327 . S
C191 C197 1.429 . S
C192 C184 1.574 . S
C192 H187 0.949 . S
C192 C198 1.368 . S
C193 C177 1.349 . S
C193 H185 0.950 . S
C193 C191 1.327 . S
C194 C182 1.349 . S
C194 H188 0.950 . S
C194 C195 1.327 . S
C195 H189 0.950 . S
C195 C194 1.327 . S
C195 C199 1.429 . S
C196 C179 1.574 . S
C196 H190 0.949 . S
C196 C200 1.368 . S
C197 C178 1.429 . S
C197 C191 1.429 . S
C197 C198 1.523 . S
C198 C179 1.368 . S
C198 C192 1.368 . S
C198 C197 1.523 . S
C199 C183 1.429 . S
C199 C195 1.429 . S
C199 C200 1.523 . S
C200 C184 1.368 . S
C200 C196 1.368 . S
C200 C199 1.523 . S
H201 C176 0.950 . S
H202 C178 0.950 . S
H203 C179 0.949 . S
H204 C181 0.950 . S
H205 C183 0.950 . S
C206 C207 1.349 . S
C206 C208 1.327 . S
C206 H231 0.950 . S
C207 C206 1.349 . S
C207 C223 1.349 . S
C208 C206 1.327 . S
C208 C227 1.429 . S
C208 H232 0.950 . S
C209 C226 1.574 1_655 S
C209 C228 1.368 . S
C209 H233 0.949 1_655 S
H210 C214 0.949 . S
C211 C212 1.349 . S
C211 C213 1.327 . S
C211 H234 0.950 . S
C212 C211 1.349 . S
C212 C224 1.349 . S
C213 C211 1.327 . S
C213 C229 1.429 . S
C213 H235 0.950 . S
C214 H210 0.949 . S
C214 C222 1.574 . S
C214 C230 1.363 1_655 S
H215 C223 0.950 . S
H216 C221 0.950 . S
H217 C222 0.949 . S
H218 C224 0.950 . S
H219 C225 0.950 1_655 S
H220 C226 0.949 . S
C221 H216 0.950 . S
C221 C223 1.327 . S
C221 C227 1.429 . S
C222 C214 1.574 . S
C222 H217 0.949 . S
C222 C228 1.368 . S
C223 C207 1.349 . S
C223 H215 0.950 . S
C223 C221 1.327 . S
C224 C212 1.349 . S
C224 H218 0.950 . S
C224 C225 1.327 . S
C225 H219 0.950 1_455 S
C225 C224 1.327 . S
C225 C229 1.429 . S
C226 C209 1.574 1_455 S
C226 H220 0.949 . S
C226 C230 1.371 . S
C227 C208 1.429 . S
C227 C221 1.429 . S
C227 C228 1.523 . S
C228 C209 1.368 . S
C228 C222 1.368 . S
C228 C227 1.523 . S
C229 C213 1.429 . S
C229 C225 1.429 . S
C229 C230 1.526 . S
C230 C214 1.363 1_455 S
C230 C226 1.371 . S
C230 C229 1.526 . S
H231 C206 0.950 . S
H232 C208 0.950 . S
H233 C209 0.949 1_455 S
H234 C211 0.950 . S
H235 C213 0.950 . S
C236 C237 1.349 1_565 S
C236 C238 1.327 . S
C236 H261 0.950 . S
C237 C236 1.349 1_545 S
C237 C253 1.349 . S
C238 C236 1.327 . S
C238 C257 1.429 1_565 S
C238 H262 0.950 . S
C239 C256 1.574 . S
C239 C258 1.378 . S
C239 H263 0.949 . S
H240 C244 0.949 . S
C241 C242 1.349 . S
C241 C243 1.327 . S
C241 H264 0.950 1_565 S
C242 C241 1.349 . S
C242 C254 1.349 . S
C243 C241 1.327 . S
C243 C259 1.429 . S
C243 H265 0.950 1_565 S
C244 H240 0.949 . S
C244 C252 1.574 . S
C244 C260 1.368 . S
H245 C253 0.950 . S
H246 C251 0.950 . S
H247 C252 0.949 . S
H248 C254 0.950 . S
H249 C255 0.950 . S
H250 C256 0.949 . S
C251 H246 0.950 . S
C251 C253 1.327 . S
C251 C257 1.429 . S
C252 C244 1.574 . S
C252 H247 0.949 . S
C252 C258 1.356 1_565 S
C253 C237 1.349 . S
C253 H245 0.950 . S
C253 C251 1.327 . S
C254 C242 1.349 . S
C254 H248 0.950 . S
C254 C255 1.327 . S
C255 H249 0.950 . S
C255 C254 1.327 . S
C255 C259 1.429 . S
C256 C239 1.574 . S
C256 H250 0.949 . S
C256 C260 1.368 1_545 S
C257 C238 1.429 1_545 S
C257 C251 1.429 . S
C257 C258 1.526 . S
C258 C239 1.378 . S
C258 C252 1.356 1_545 S
C258 C257 1.526 . S
C259 C243 1.429 . S
C259 C255 1.429 . S
C259 C260 1.523 . S
C260 C244 1.368 . S
C260 C256 1.368 1_565 S
C260 C259 1.523 . S
H261 C236 0.950 . S
H262 C238 0.950 . S
H263 C239 0.949 . S
H264 C241 0.950 1_545 S
H265 C243 0.950 1_545 S
C266 C267 1.349 . S
C266 C268 1.327 . S
C266 H291 0.950 . S
C267 C266 1.349 . S
C267 C283 1.349 . S
C268 C266 1.327 . S
C268 C287 1.429 . S
C268 H292 0.950 . S
C269 C286 1.574 . S
C269 C288 1.368 . S
C269 H293 0.949 . S
H270 C274 0.949 . S
C271 C272 1.349 . S
C271 C273 1.327 . S
C271 H294 0.950 . S
C272 C271 1.349 . S
C272 C284 1.349 . S
C273 C271 1.327 . S
C273 C289 1.429 . S
C273 H295 0.950 . S
C274 H270 0.949 . S
C274 C282 1.574 . S
C274 C290 1.368 . S
H275 C283 0.950 . S
H276 C281 0.950 . S
H277 C282 0.949 . S
H278 C284 0.950 . S
H279 C285 0.950 . S
H280 C286 0.949 . S
C281 H276 0.950 . S
C281 C283 1.327 . S
C281 C287 1.429 . S
C282 C274 1.574 . S
C282 H277 0.949 . S
C282 C288 1.368 . S
C283 C267 1.349 . S
C283 H275 0.950 . S
C283 C281 1.327 . S
C284 C272 1.349 . S
C284 H278 0.950 . S
C284 C285 1.327 . S
C285 H279 0.950 . S
C285 C284 1.327 . S
C285 C289 1.429 . S
C286 C269 1.574 . S
C286 H280 0.949 . S
C286 C290 1.368 . S
C287 C268 1.429 . S
C287 C281 1.429 . S
C287 C288 1.523 . S
C288 C269 1.368 . S
C288 C282 1.368 . S
C288 C287 1.523 . S
C289 C273 1.429 . S
C289 C285 1.429 . S
C289 C290 1.523 . S
C290 C274 1.368 . S
C290 C286 1.368 . S
C290 C289 1.523 . S
H291 C266 0.950 . S
H292 C268 0.950 . S
H293 C269 0.949 . S
H294 C271 0.950 . S
H295 C273 0.950 . S
C296 C297 1.349 . S
C296 C298 1.327 . S
C296 H321 0.950 . S
C297 C296 1.349 . S
C297 C313 1.349 . S
C298 C296 1.327 . S
C298 C317 1.429 . S
C298 H322 0.950 . S
C299 C316 1.574 . S
C299 C318 1.368 . S
C299 H323 0.949 . S
H300 C304 0.949 . S
C301 C302 1.349 . S
C301 C303 1.327 . S
C301 H324 0.950 . S
C302 C301 1.349 . S
C302 C314 1.349 . S
C303 C301 1.327 . S
C303 C319 1.429 . S
C303 H325 0.950 . S
C304 H300 0.949 . S
C304 C312 1.574 . S
C304 C320 1.368 . S
H305 C313 0.950 . S
H306 C311 0.950 . S
H307 C312 0.949 . S
H308 C314 0.950 . S
H309 C315 0.950 . S
H310 C316 0.949 . S
C311 H306 0.950 . S
C311 C313 1.327 . S
C311 C317 1.429 . S
C312 C304 1.574 . S
C312 H307 0.949 . S
C312 C318 1.368 . S
C313 C297 1.349 . S
C313 H305 0.950 . S
C313 C311 1.327 . S
C314 C302 1.349 . S
C314 H308 0.950 . S
C314 C315 1.327 . S
C315 H309 0.950 . S
C315 C314 1.327 . S
C315 C319 1.429 . S
C316 C299 1.574 . S
C316 H310 0.949 . S
C316 C320 1.368 . S
C317 C298 1.429 . S
C317 C311 1.429 . S
C317 C318 1.523 . S
C318 C299 1.368 . S
C318 C312 1.368 . S
C318 C317 1.523 . S
C319 C303 1.429 . S
C319 C315 1.429 . S
C319 C320 1.523 . S
C320 C304 1.368 . S
C320 C316 1.368 . S
C320 C319 1.523 . S
H321 C296 0.950 . S
H322 C298 0.950 . S
H323 C299 0.949 . S
H324 C301 0.950 . S
H325 C303 0.950 . S
C326 C327 1.349 . S
C326 C328 1.327 . S
C326 H351 0.950 . S
C327 C326 1.349 . S
C327 C343 1.349 . S
C328 C326 1.327 . S
C328 C347 1.429 . S
C328 H352 0.950 . S
C329 C346 1.574 1_455 S
C329 C348 1.368 . S
C329 H353 0.950 . S
H330 C334 0.949 . S
C331 C332 1.349 . S
C331 C333 1.327 . S
C331 H354 0.950 . S
C332 C331 1.349 . S
C332 C344 1.349 . S
C333 C331 1.327 . S
C333 C349 1.429 . S
C333 H355 0.950 . S
C334 H330 0.949 . S
C334 C342 1.574 . S
C334 C350 1.364 1_455 S
H335 C343 0.950 . S
H336 C341 0.950 . S
H337 C342 0.949 . S
H338 C344 0.950 . S
H339 C345 0.950 1_455 S
H340 C346 0.949 . S
C341 H336 0.950 . S
C341 C343 1.327 . S
C341 C347 1.429 . S
C342 C334 1.574 . S
C342 H337 0.949 . S
C342 C348 1.368 . S
C343 C327 1.349 . S
C343 H335 0.950 . S
C343 C341 1.327 . S
C344 C332 1.349 . S
C344 H338 0.950 . S
C344 C345 1.327 . S
C345 H339 0.950 1_655 S
C345 C344 1.327 . S
C345 C349 1.429 . S
C346 C329 1.574 1_655 S
C346 H340 0.949 . S
C346 C350 1.371 . S
C347 C328 1.429 . S
C347 C341 1.429 . S
C347 C348 1.523 . S
C348 C329 1.368 . S
C348 C342 1.368 . S
C348 C347 1.523 . S
C349 C333 1.429 . S
C349 C345 1.429 . S
C349 C350 1.526 . S
C350 C334 1.364 1_655 S
C350 C346 1.371 . S
C350 C349 1.526 . S
H351 C326 0.950 . S
H352 C328 0.950 . S
H353 C329 0.950 . S
H354 C331 0.950 . S
H355 C333 0.950 . S
C356 C357 1.349 . S
C356 C358 1.327 . S
C356 H381 0.950 . S
C357 C356 1.349 . S
C357 C373 1.349 . S
C358 C356 1.327 . S
C358 C377 1.429 . S
C358 H382 0.950 . S
C359 C376 1.574 . S
C359 C378 1.368 1_565 S
C359 H383 0.949 . S
H360 C364 0.949 . S
C361 C362 1.349 . S
C361 C363 1.327 . S
C361 H384 0.950 . S
C362 C361 1.349 . S
C362 C374 1.349 . S
C363 C361 1.327 . S
C363 C379 1.429 . S
C363 H385 0.950 . S
C364 H360 0.949 . S
C364 C372 1.574 . S
C364 C380 1.360 1_545 S
H365 C373 0.950 . S
H366 C371 0.950 1_565 S
H367 C372 0.949 . S
H368 C374 0.950 1_545 S
H369 C375 0.950 . S
H370 C376 0.949 . S
C371 H366 0.950 1_545 S
C371 C373 1.327 . S
C371 C377 1.429 . S
C372 C364 1.574 . S
C372 H367 0.949 . S
C372 C378 1.368 . S
C373 C357 1.349 . S
C373 H365 0.950 . S
C373 C371 1.327 . S
C374 C362 1.349 . S
C374 H368 0.950 1_565 S
C374 C375 1.327 1_565 S
C375 H369 0.950 . S
C375 C374 1.327 1_545 S
C375 C379 1.429 1_545 S
C376 C359 1.574 . S
C376 H370 0.949 . S
C376 C380 1.374 . S
C377 C358 1.429 . S
C377 C371 1.429 . S
C377 C378 1.523 . S
C378 C359 1.368 1_545 S
C378 C372 1.368 . S
C378 C377 1.523 . S
C379 C363 1.429 . S
C379 C375 1.429 1_565 S
C379 C380 1.526 . S
C380 C364 1.360 1_565 S
C380 C376 1.374 . S
C380 C379 1.526 . S
H381 C356 0.950 . S
H382 C358 0.950 . S
H383 C359 0.949 . S
H384 C361 0.950 . S
H385 C363 0.950 . S
C386 C387 1.349 . S
C386 C388 1.327 . S
C386 H411 0.950 . S
C387 C386 1.349 . S
C387 C403 1.349 . S
C388 C386 1.327 . S
C388 C407 1.429 . S
C388 H412 0.950 . S
C389 C406 1.574 . S
C389 C408 1.368 . S
C389 H413 0.949 . S
H390 C394 0.949 . S
C391 C392 1.349 . S
C391 C393 1.327 . S
C391 H414 0.950 . S
C392 C391 1.349 . S
C392 C404 1.349 . S
C393 C391 1.327 . S
C393 C409 1.429 . S
C393 H415 0.950 . S
C394 H390 0.949 . S
C394 C402 1.574 . S
C394 C410 1.368 . S
H395 C403 0.950 . S
H396 C401 0.950 . S
H397 C402 0.949 . S
H398 C404 0.950 . S
H399 C405 0.950 . S
H400 C406 0.949 . S
C401 H396 0.950 . S
C401 C403 1.327 . S
C401 C407 1.429 . S
C402 C394 1.574 . S
C402 H397 0.949 . S
C402 C408 1.368 . S
C403 C387 1.349 . S
C403 H395 0.950 . S
C403 C401 1.327 . S
C404 C392 1.349 . S
C404 H398 0.950 . S
C404 C405 1.327 . S
C405 H399 0.950 . S
C405 C404 1.327 . S
C405 C409 1.429 . S
C406 C389 1.574 . S
C406 H400 0.949 . S
C406 C410 1.368 . S
C407 C388 1.429 . S
C407 C401 1.429 . S
C407 C408 1.523 . S
C408 C389 1.368 . S
C408 C402 1.368 . S
C408 C407 1.523 . S
C409 C393 1.429 . S
C409 C405 1.429 . S
C409 C410 1.523 . S
C410 C394 1.368 . S
C410 C406 1.368 . S
C410 C409 1.523 . S
H411 C386 0.950 . S
H412 C388 0.950 . S
H413 C389 0.949 . S
H414 C391 0.950 . S
H415 C393 0.950 . S
C416 C417 1.349 . S
C416 C418 1.327 . S
C416 H441 0.950 . S
C417 C416 1.349 . S
C417 C433 1.349 . S
C418 C416 1.327 . S
C418 C437 1.429 . S
C418 H442 0.950 . S
C419 C436 1.574 . S
C419 C438 1.368 . S
C419 H443 0.949 . S
H420 C424 0.949 . S
C421 C422 1.349 . S
C421 C423 1.327 . S
C421 H444 0.950 . S
C422 C421 1.349 . S
C422 C434 1.349 . S
C423 C421 1.327 . S
C423 C439 1.429 . S
C423 H445 0.950 . S
C424 H420 0.949 . S
C424 C432 1.574 . S
C424 C440 1.368 . S
H425 C433 0.950 . S
H426 C431 0.950 . S
H427 C432 0.949 . S
H428 C434 0.950 . S
H429 C435 0.950 . S
H430 C436 0.949 . S
C431 H426 0.950 . S
C431 C433 1.327 . S
C431 C437 1.429 . S
C432 C424 1.574 . S
C432 H427 0.949 . S
C432 C438 1.368 . S
C433 C417 1.349 . S
C433 H425 0.950 . S
C433 C431 1.327 . S
C434 C422 1.349 . S
C434 H428 0.950 . S
C434 C435 1.327 . S
C435 H429 0.950 . S
C435 C434 1.327 . S
C435 C439 1.429 . S
C436 C419 1.574 . S
C436 H430 0.949 . S
C436 C440 1.368 . S
C437 C418 1.429 . S
C437 C431 1.429 . S
C437 C438 1.523 . S
C438 C419 1.368 . S
C438 C432 1.368 . S
C438 C437 1.523 . S
C439 C423 1.429 . S
C439 C435 1.429 . S
C439 C440 1.523 . S
C440 C424 1.368 . S
C440 C436 1.368 . S
C440 C439 1.523 . S
H441 C416 0.950 . S
H442 C418 0.950 . S
H443 C419 0.949 . S
H444 C421 0.950 . S
H445 C423 0.950 . S
C446 C447 1.349 . S
C446 C448 1.327 . S
C446 H471 0.950 1_455 S
C447 C446 1.349 . S
C447 C463 1.349 . S
C448 C446 1.327 . S
C448 C467 1.429 . S
C448 H472 0.950 1_455 S
C449 C466 1.574 . S
C449 C468 1.368 . S
C449 H473 0.949 . S
H450 C454 0.949 . S
C451 C452 1.349 1_455 S
C451 C453 1.327 . S
C451 H474 0.950 . S
C452 C451 1.349 1_655 S
C452 C464 1.349 . S
C453 C451 1.327 . S
C453 C469 1.429 1_455 S
C453 H475 0.950 . S
C454 H450 0.949 . S
C454 C462 1.574 . S
C454 C470 1.388 . S
H455 C463 0.950 . S
H456 C461 0.950 . S
H457 C462 0.949 . S
H458 C464 0.950 . S
H459 C465 0.950 . S
H460 C466 0.949 . S
C461 H456 0.950 . S
C461 C463 1.327 . S
C461 C467 1.429 . S
C462 C454 1.574 . S
C462 H457 0.949 . S
C462 C468 1.368 1_655 S
C463 C447 1.349 . S
C463 H455 0.950 . S
C463 C461 1.327 . S
C464 C452 1.349 . S
C464 H458 0.950 . S
C464 C465 1.327 . S
C465 H459 0.950 . S
C465 C464 1.327 . S
C465 C469 1.429 . S
C466 C449 1.574 . S
C466 H460 0.949 . S
C466 C470 1.344 1_455 S
C467 C448 1.429 . S
C467 C461 1.429 . S
C467 C468 1.523 . S
C468 C449 1.368 . S
C468 C462 1.368 1_455 S
C468 C467 1.523 . S
C469 C453 1.429 1_655 S
C469 C465 1.429 . S
C469 C470 1.529 . S
C470 C454 1.388 . S
C470 C466 1.344 1_655 S
C470 C469 1.529 . S
H471 C446 0.950 1_655 S
H472 C448 0.950 1_655 S
H473 C449 0.949 . S
H474 C451 0.950 . S
H475 C453 0.950 . S
C476 C477 1.349 . S
C476 C478 1.327 . S
C476 H501 0.950 . S
C477 C476 1.349 . S
C477 C493 1.349 . S
C478 C476 1.327 . S
C478 C497 1.429 . S
C478 H502 0.950 1_545 S
C479 C496 1.574 . S
C479 C498 1.368 . S
C479 H503 0.949 . S
H480 C484 0.949 . S
C481 C482 1.349 . S
C481 C483 1.327 1_565 S
C481 H504 0.950 1_565 S
C482 C481 1.349 . S
C482 C494 1.349 . S
C483 C481 1.327 1_545 S
C483 C499 1.429 1_545 S
C483 H505 0.950 . S
C484 H480 0.949 . S
C484 C492 1.574 . S
C484 C500 1.383 . S
H485 C493 0.950 . S
H486 C491 0.950 . S
H487 C492 0.949 . S
H488 C494 0.950 . S
H489 C495 0.950 . S
H490 C496 0.949 . S
C491 H486 0.950 . S
C491 C493 1.327 . S
C491 C497 1.429 . S
C492 C484 1.574 . S
C492 H487 0.949 . S
C492 C498 1.368 1_565 S
C493 C477 1.349 . S
C493 H485 0.950 . S
C493 C491 1.327 . S
C494 C482 1.349 . S
C494 H488 0.950 . S
C494 C495 1.327 . S
C495 H489 0.950 . S
C495 C494 1.327 . S
C495 C499 1.429 . S
C496 C479 1.574 . S
C496 H490 0.949 . S
C496 C500 1.349 1_545 S
C497 C478 1.429 . S
C497 C491 1.429 . S
C497 C498 1.523 . S
C498 C479 1.368 . S
C498 C492 1.368 1_545 S
C498 C497 1.523 . S
C499 C483 1.429 1_565 S
C499 C495 1.429 . S
C499 C500 1.529 . S
C500 C484 1.383 . S
C500 C496 1.349 1_565 S
C500 C499 1.529 . S
H501 C476 0.950 . S
H502 C478 0.950 1_565 S
H503 C479 0.949 . S
H504 C481 0.950 1_545 S
H505 C483 0.950 . S
C506 C507 1.349 . S
C506 C508 1.327 . S
C506 H531 0.950 . S
C507 C506 1.349 . S
C507 C523 1.349 . S
C508 C506 1.327 . S
C508 C527 1.429 . S
C508 H532 0.950 . S
C509 C526 1.574 . S
C509 C528 1.368 . S
C509 H533 0.949 . S
H510 C514 0.949 . S
C511 C512 1.349 . S
C511 C513 1.327 . S
C511 H534 0.950 . S
C512 C511 1.349 . S
C512 C524 1.349 . S
C513 C511 1.327 . S
C513 C529 1.429 . S
C513 H535 0.950 . S
C514 H510 0.949 . S
C514 C522 1.574 . S
C514 C530 1.368 . S
H515 C523 0.950 . S
H516 C521 0.950 . S
H517 C522 0.949 . S
H518 C524 0.950 . S
H519 C525 0.950 . S
H520 C526 0.949 . S
C521 H516 0.950 . S
C521 C523 1.327 . S
C521 C527 1.429 . S
C522 C514 1.574 . S
C522 H517 0.949 . S
C522 C528 1.368 . S
C523 C507 1.349 . S
C523 H515 0.950 . S
C523 C521 1.327 . S
C524 C512 1.349 . S
C524 H518 0.950 . S
C524 C525 1.327 . S
C525 H519 0.950 . S
C525 C524 1.327 . S
C525 C529 1.429 . S
C526 C509 1.574 . S
C526 H520 0.949 . S
C526 C530 1.368 . S
C527 C508 1.429 . S
C527 C521 1.429 . S
C527 C528 1.523 . S
C528 C509 1.368 . S
C528 C522 1.368 . S
C528 C527 1.523 . S
C529 C513 1.429 . S
C529 C525 1.429 . S
C529 C530 1.523 . S
C530 C514 1.368 . S
C530 C526 1.368 . S
C530 C529 1.523 . S
H531 C506 0.950 . S
H532 C508 0.950 . S
H533 C509 0.949 . S
H534 C511 0.950 . S
H535 C513 0.950 . S
C536 C537 1.349 . S
C536 C538 1.327 . S
C536 H561 0.950 . S
C537 C536 1.349 . S
C537 C553 1.349 . S
C538 C536 1.327 . S
C538 C557 1.429 . S
C538 H562 0.950 . S
C539 C556 1.574 . S
C539 C558 1.368 . S
C539 H563 0.949 . S
H540 C544 0.949 . S
C541 C542 1.349 . S
C541 C543 1.327 . S
C541 H564 0.950 . S
C542 C541 1.349 . S
C542 C554 1.349 . S
C543 C541 1.327 . S
C543 C559 1.429 . S
C543 H565 0.950 . S
C544 H540 0.949 . S
C544 C552 1.574 . S
C544 C560 1.368 . S
H545 C553 0.950 . S
H546 C551 0.950 . S
H547 C552 0.949 . S
H548 C554 0.950 . S
H549 C555 0.950 . S
H550 C556 0.949 . S
C551 H546 0.950 . S
C551 C553 1.327 . S
C551 C557 1.429 . S
C552 C544 1.574 . S
C552 H547 0.949 . S
C552 C558 1.368 . S
C553 C537 1.349 . S
C553 H545 0.950 . S
C553 C551 1.327 . S
C554 C542 1.349 . S
C554 H548 0.950 . S
C554 C555 1.327 . S
C555 H549 0.950 . S
C555 C554 1.327 . S
C555 C559 1.429 . S
C556 C539 1.574 . S
C556 H550 0.949 . S
C556 C560 1.368 . S
C557 C538 1.429 . S
C557 C551 1.429 . S
C557 C558 1.523 . S
C558 C539 1.368 . S
C558 C552 1.368 . S
C558 C557 1.523 . S
C559 C543 1.429 . S
C559 C555 1.429 . S
C559 C560 1.523 . S
C560 C544 1.368 . S
C560 C556 1.368 . S
C560 C559 1.523 . S
H561 C536 0.950 . S
H562 C538 0.950 . S
H563 C539 0.949 . S
H564 C541 0.950 . S
H565 C543 0.950 . S
C566 C567 1.349 . S
C566 C568 1.327 . S
C566 H591 0.950 . S
C567 C566 1.349 . S
C567 C583 1.349 . S
C568 C566 1.327 . S
C568 C587 1.429 . S
C568 H592 0.950 . S
C569 C586 1.574 . S
C569 C588 1.367 1_655 S
C569 H593 0.949 1_655 S
H570 C574 0.949 . S
C571 C572 1.349 . S
C571 C573 1.327 . S
C571 H594 0.950 . S
C572 C571 1.349 . S
C572 C584 1.349 . S
C573 C571 1.327 . S
C573 C589 1.429 . S
C573 H595 0.950 . S
C574 H570 0.949 . S
C574 C582 1.574 . S
C574 C590 1.368 . S
H575 C583 0.950 . S
H576 C581 0.950 . S
H577 C582 0.949 . S
H578 C584 0.950 . S
H579 C585 0.950 . S
H580 C586 0.949 . S
C581 H576 0.950 . S
C581 C583 1.327 . S
C581 C587 1.429 . S
C582 C574 1.574 . S
C582 H577 0.949 . S
C582 C588 1.365 1_655 S
C583 C567 1.349 . S
C583 H575 0.950 . S
C583 C581 1.327 . S
C584 C572 1.349 . S
C584 H578 0.950 . S
C584 C585 1.327 . S
C585 H579 0.950 . S
C585 C584 1.327 . S
C585 C589 1.429 . S
C586 C569 1.574 . S
C586 H580 0.949 . S
C586 C590 1.368 . S
C587 C568 1.429 . S
C587 C581 1.429 . S
C587 C588 1.529 . S
C588 C569 1.367 1_455 S
C588 C582 1.365 1_455 S
C588 C587 1.529 . S
C589 C573 1.429 . S
C589 C585 1.429 . S
C589 C590 1.523 . S
C590 C574 1.368 . S
C590 C586 1.368 . S
C590 C589 1.523 . S
H591 C566 0.950 . S
H592 C568 0.950 . S
H593 C569 0.949 1_455 S
H594 C571 0.950 . S
H595 C573 0.950 . S
C596 C597 1.349 . S
C596 C598 1.327 . S
C596 H621 0.950 . S
C597 C596 1.349 . S
C597 C613 1.349 . S
C598 C596 1.327 . S
C598 C617 1.429 . S
C598 H622 0.950 . S
C599 C616 1.574 . S
C599 C618 1.368 1_545 S
C599 H623 0.949 . S
H600 C604 0.949 . S
C601 C602 1.349 . S
C601 C603 1.327 . S
C601 H624 0.950 . S
C602 C601 1.349 . S
C602 C614 1.349 1_545 S
C603 C601 1.327 . S
C603 C619 1.429 . S
C603 H625 0.950 . S
C604 H600 0.949 . S
C604 C612 1.574 . S
C604 C620 1.344 1_565 S
H605 C613 0.950 1_545 S
H606 C611 0.950 1_545 S
H607 C612 0.949 . S
H608 C614 0.950 . S
H609 C615 0.950 . S
H610 C616 0.949 . S
C611 H606 0.950 1_565 S
C611 C613 1.327 . S
C611 C617 1.429 . S
C612 C604 1.574 . S
C612 H607 0.949 . S
C612 C618 1.368 . S
C613 C597 1.349 . S
C613 H605 0.950 1_565 S
C613 C611 1.327 . S
C614 C602 1.349 1_565 S
C614 H608 0.950 . S
C614 C615 1.327 . S
C615 H609 0.950 . S
C615 C614 1.327 . S
C615 C619 1.429 1_565 S
C616 C599 1.574 . S
C616 H610 0.949 . S
C616 C620 1.388 . S
C617 C598 1.429 . S
C617 C611 1.429 . S
C617 C618 1.523 . S
C618 C599 1.368 1_565 S
C618 C612 1.368 . S
C618 C617 1.523 . S
C619 C603 1.429 . S
C619 C615 1.429 1_545 S
C619 C620 1.529 . S
C620 C604 1.344 1_545 S
C620 C616 1.388 . S
C620 C619 1.529 . S
H621 C596 0.950 . S
H622 C598 0.950 . S
H623 C599 0.949 . S
H624 C601 0.950 . S
H625 C603 0.950 . S
C626 C627 1.349 . S
C626 C628 1.327 . S
C626 H651 0.950 . S
C627 C626 1.349 . S
C627 C643 1.349 . S
C628 C626 1.327 . S
C628 C647 1.429 . S
C628 H652 0.950 . S
C629 C646 1.574 . S
C629 C648 1.368 . S
C629 H653 0.949 . S
H630 C634 0.949 . S
C631 C632 1.349 . S
C631 C633 1.327 . S
C631 H654 0.950 . S
C632 C631 1.349 . S
C632 C644 1.349 . S
C633 C631 1.327 . S
C633 C649 1.429 . S
C633 H655 0.950 . S
C634 H630 0.949 . S
C634 C642 1.574 . S
C634 C650 1.368 . S
H635 C643 0.950 . S
H636 C641 0.950 . S
H637 C642 0.949 . S
H638 C644 0.950 . S
H639 C645 0.950 . S
H640 C646 0.949 . S
C641 H636 0.950 . S
C641 C643 1.327 . S
C641 C647 1.429 . S
C642 C634 1.574 . S
C642 H637 0.949 . S
C642 C648 1.368 . S
C643 C627 1.349 . S
C643 H635 0.950 . S
C643 C641 1.327 . S
C644 C632 1.349 . S
C644 H638 0.950 . S
C644 C645 1.327 . S
C645 H639 0.950 . S
C645 C644 1.327 . S
C645 C649 1.429 . S
C646 C629 1.574 . S
C646 H640 0.949 . S
C646 C650 1.368 . S
C647 C628 1.429 . S
C647 C641 1.429 . S
C647 C648 1.523 . S
C648 C629 1.368 . S
C648 C642 1.368 . S
C648 C647 1.523 . S
C649 C633 1.429 . S
C649 C645 1.429 . S
C649 C650 1.523 . S
C650 C634 1.368 . S
C650 C646 1.368 . S
C650 C649 1.523 . S
H651 C626 0.950 . S
H652 C628 0.950 . S
H653 C629 0.949 . S
H654 C631 0.950 . S
H655 C633 0.950 . S
C656 C657 1.349 . S
C656 C658 1.327 . S
C656 H681 0.950 . S
C657 C656 1.349 . S
C657 C673 1.349 . S
C658 C656 1.327 . S
C658 C677 1.429 . S
C658 H682 0.950 . S
C659 C676 1.574 . S
C659 C678 1.368 . S
C659 H683 0.949 . S
H660 C664 0.949 . S
C661 C662 1.349 . S
C661 C663 1.327 . S
C661 H684 0.950 . S
C662 C661 1.349 . S
C662 C674 1.349 . S
C663 C661 1.327 . S
C663 C679 1.429 . S
C663 H685 0.950 . S
C664 H660 0.949 . S
C664 C672 1.574 . S
C664 C680 1.368 . S
H665 C673 0.950 . S
H666 C671 0.950 . S
H667 C672 0.949 . S
H668 C674 0.950 . S
H669 C675 0.950 . S
H670 C676 0.949 . S
C671 H666 0.950 . S
C671 C673 1.327 . S
C671 C677 1.429 . S
C672 C664 1.574 . S
C672 H667 0.949 . S
C672 C678 1.368 . S
C673 C657 1.349 . S
C673 H665 0.950 . S
C673 C671 1.327 . S
C674 C662 1.349 . S
C674 H668 0.950 . S
C674 C675 1.327 . S
C675 H669 0.950 . S
C675 C674 1.327 . S
C675 C679 1.429 . S
C676 C659 1.574 . S
C676 H670 0.949 . S
C676 C680 1.368 . S
C677 C658 1.429 . S
C677 C671 1.429 . S
C677 C678 1.523 . S
C678 C659 1.368 . S
C678 C672 1.368 . S
C678 C677 1.523 . S
C679 C663 1.429 . S
C679 C675 1.429 . S
C679 C680 1.523 . S
C680 C664 1.368 . S
C680 C676 1.368 . S
C680 C679 1.523 . S
H681 C656 0.950 . S
H682 C658 0.950 . S
H683 C659 0.949 . S
H684 C661 0.950 . S
H685 C663 0.950 . S
C686 C687 1.349 . S
C686 C688 1.327 . S
C686 H711 0.950 . S
C687 C686 1.349 . S
C687 C703 1.349 . S
C688 C686 1.327 . S
C688 C707 1.429 . S
C688 H712 0.950 . S
C689 C706 1.574 . S
C689 C708 1.368 . S
C689 H713 0.949 . S
H690 C694 0.949 . S
C691 C692 1.349 . S
C691 C693 1.327 . S
C691 H714 0.950 . S
C692 C691 1.349 . S
C692 C704 1.349 . S
C693 C691 1.327 . S
C693 C709 1.429 . S
C693 H715 0.950 . S
C694 H690 0.949 . S
C694 C702 1.574 . S
C694 C710 1.368 . S
H695 C703 0.950 . S
H696 C701 0.950 . S
H697 C702 0.949 . S
H698 C704 0.950 . S
H699 C705 0.950 . S
H700 C706 0.949 . S
C701 H696 0.950 . S
C701 C703 1.327 . S
C701 C707 1.429 . S
C702 C694 1.574 . S
C702 H697 0.949 . S
C702 C708 1.368 . S
C703 C687 1.349 . S
C703 H695 0.950 . S
C703 C701 1.327 . S
C704 C692 1.349 . S
C704 H698 0.950 . S
C704 C705 1.327 . S
C705 H699 0.950 . S
C705 C704 1.327 . S
C705 C709 1.429 . S
C706 C689 1.574 . S
C706 H700 0.949 . S
C706 C710 1.368 . S
C707 C688 1.429 . S
C707 C701 1.429 . S
C707 C708 1.523 . S
C708 C689 1.368 . S
C708 C702 1.368 . S
C708 C707 1.523 . S
C709 C693 1.429 . S
C709 C705 1.429 . S
C709 C710 1.523 . S
C710 C694 1.368 . S
C710 C706 1.368 . S
C710 C709 1.523 . S
H711 C686 0.950 . S
H712 C688 0.950 . S
H713 C689 0.949 . S
H714 C691 0.950 . S
H715 C693 0.950 . S
C716 C717 1.349 . S
C716 C718 1.327 . S
C716 H741 0.950 . S
C717 C716 1.349 . S
C717 C733 1.349 . S
C718 C716 1.327 . S
C718 C737 1.429 . S
C718 H742 0.950 . S
C719 C736 1.574 . S
C719 C738 1.368 . S
C719 H743 0.949 . S
H720 C724 0.949 . S
C721 C722 1.349 . S
C721 C723 1.327 . S
C721 H744 0.950 . S
C722 C721 1.349 . S
C722 C734 1.349 . S
C723 C721 1.327 . S
C723 C739 1.429 . S
C723 H745 0.950 . S
C724 H720 0.949 . S
C724 C732 1.574 . S
C724 C740 1.368 . S
H725 C733 0.950 . S
H726 C731 0.950 . S
H727 C732 0.949 . S
H728 C734 0.950 . S
H729 C735 0.950 . S
H730 C736 0.949 . S
C731 H726 0.950 . S
C731 C733 1.327 . S
C731 C737 1.429 . S
C732 C724 1.574 . S
C732 H727 0.949 . S
C732 C738 1.368 . S
C733 C717 1.349 . S
C733 H725 0.950 . S
C733 C731 1.327 . S
C734 C722 1.349 . S
C734 H728 0.950 . S
C734 C735 1.327 . S
C735 H729 0.950 . S
C735 C734 1.327 . S
C735 C739 1.429 . S
C736 C719 1.574 . S
C736 H730 0.949 . S
C736 C740 1.368 . S
C737 C718 1.429 . S
C737 C731 1.429 . S
C737 C738 1.523 . S
C738 C719 1.368 . S
C738 C732 1.368 . S
C738 C737 1.523 . S
C739 C723 1.429 . S
C739 C735 1.429 . S
C739 C740 1.523 . S
C740 C724 1.368 . S
C740 C736 1.368 . S
C740 C739 1.523 . S
H741 C716 0.950 . S
H742 C718 0.950 . S
H743 C719 0.949 . S
H744 C721 0.950 . S
H745 C723 0.950 . S
C746 C747 1.349 . S
C746 C748 1.327 . S
C746 H771 0.950 . S
C747 C746 1.349 . S
C747 C763 1.349 . S
C748 C746 1.327 . S
C748 C767 1.429 . S
C748 H772 0.950 . S
C749 C766 1.574 . S
C749 C768 1.368 . S
C749 H773 0.949 . S
H750 C754 0.949 . S
C751 C752 1.349 . S
C751 C753 1.327 . S
C751 H774 0.950 . S
C752 C751 1.349 . S
C752 C764 1.349 . S
C753 C751 1.327 . S
C753 C769 1.429 . S
C753 H775 0.950 . S
C754 H750 0.949 . S
C754 C762 1.574 . S
C754 C770 1.368 . S
H755 C763 0.950 . S
H756 C761 0.950 . S
H757 C762 0.949 . S
H758 C764 0.950 . S
H759 C765 0.950 . S
H760 C766 0.949 . S
C761 H756 0.950 . S
C761 C763 1.327 . S
C761 C767 1.429 . S
C762 C754 1.574 . S
C762 H757 0.949 . S
C762 C768 1.368 . S
C763 C747 1.349 . S
C763 H755 0.950 . S
C763 C761 1.327 . S
C764 C752 1.349 . S
C764 H758 0.950 . S
C764 C765 1.327 . S
C765 H759 0.950 . S
C765 C764 1.327 . S
C765 C769 1.429 . S
C766 C749 1.574 . S
C766 H760 0.949 . S
C766 C770 1.368 . S
C767 C748 1.429 . S
C767 C761 1.429 . S
C767 C768 1.523 . S
C768 C749 1.368 . S
C768 C762 1.368 . S
C768 C767 1.523 . S
C769 C753 1.429 . S
C769 C765 1.429 . S
C769 C770 1.523 . S
C770 C754 1.368 . S
C770 C766 1.368 . S
C770 C769 1.523 . S
H771 C746 0.950 . S
H772 C748 0.950 . S
H773 C749 0.949 . S
H774 C751 0.950 . S
H775 C753 0.950 . S
C776 C777 1.349 . S
C776 C778 1.327 . S
C776 H801 0.950 . S
C777 C776 1.349 . S
C777 C793 1.349 . S
C778 C776 1.327 . S
C778 C797 1.429 . S
C778 H802 0.950 . S
C779 C796 1.574 1_556 S
C779 C798 1.368 1_455 S
C779 H803 0.949 . S
H780 C784 0.949 . S
C781 C782 1.349 . S
C781 C783 1.327 . S
C781 H804 0.950 . S
C782 C781 1.349 . S
C782 C794 1.349 . S
C783 C781 1.327 . S
C783 C799 1.429 . S
C783 H805 0.950 . S
C784 H780 0.949 . S
C784 C792 1.574 1_554 S
C784 C800 1.368 1_655 S
H785 C793 0.950 1_455 S
H786 C791 0.950 . S
H787 C792 0.949 . S
H788 C794 0.950 1_655 S
H789 C795 0.950 . S
H790 C796 0.949 . S
C791 H786 0.950 . S
C791 C793 1.327 1_455 S
C791 C797 1.429 1_455 S
C792 C784 1.574 1_556 S
C792 H787 0.949 . S
C792 C798 1.368 . S
C793 C777 1.349 . S
C793 H785 0.950 1_655 S
C793 C791 1.327 1_655 S
C794 C782 1.349 . S
C794 H788 0.950 1_455 S
C794 C795 1.327 1_455 S
C795 H789 0.950 . S
C795 C794 1.327 1_655 S
C795 C799 1.429 1_655 S
C796 C779 1.574 1_554 S
C796 H790 0.949 . S
C796 C800 1.368 . S
C797 C778 1.429 . S
C797 C791 1.429 1_655 S
C797 C798 1.523 . S
C798 C779 1.368 1_655 S
C798 C792 1.368 . S
C798 C797 1.523 . S
C799 C783 1.429 . S
C799 C795 1.429 1_455 S
C799 C800 1.523 . S
C800 C784 1.368 1_455 S
C800 C796 1.368 . S
C800 C799 1.523 . S
H801 C776 0.950 . S
H802 C778 0.950 . S
H803 C779 0.949 . S
H804 C781 0.950 . S
H805 C783 0.950 . S
C806 C807 1.349 . S
C806 C808 1.327 . S
C806 H831 0.950 . S
C807 C806 1.349 . S
C807 C823 1.349 1_455 S
C808 C806 1.327 . S
C808 C827 1.429 . S
C808 H832 0.950 . S
C809 C826 1.574 . S
C809 C828 1.368 1_665 S
C809 H833 0.949 . S
H810 C814 0.949 . S
C811 C812 1.349 . S
C811 C813 1.327 . S
C811 H834 0.950 . S
C812 C811 1.349 . S
C812 C824 1.349 1_655 S
C813 C811 1.327 . S
C813 C829 1.429 . S
C813 H835 0.950 . S
C814 H810 0.949 . S
C814 C822 1.574 . S
C814 C830 1.368 1_445 S
H815 C823 0.950 1_565 S
H816 C821 0.950 . S
H817 C822 0.949 . S
H818 C824 0.950 1_545 S
H819 C825 0.950 . S
H820 C826 0.949 . S
C821 H816 0.950 . S
C821 C823 1.327 1_565 S
C821 C827 1.429 1_665 S
C822 C814 1.574 . S
C822 H817 0.949 . S
C822 C828 1.368 . S
C823 C807 1.349 1_655 S
C823 H815 0.950 1_545 S
C823 C821 1.327 1_545 S
C824 C812 1.349 1_455 S
C824 H818 0.950 1_565 S
C824 C825 1.327 1_565 S
C825 H819 0.950 . S
C825 C824 1.327 1_545 S
C825 C829 1.429 1_445 S
C826 C809 1.574 . S
C826 H820 0.949 . S
C826 C830 1.368 . S
C827 C808 1.429 . S
C827 C821 1.429 1_445 S
C827 C828 1.523 . S
C828 C809 1.368 1_445 S
C828 C822 1.368 . S
C828 C827 1.523 . S
C829 C813 1.429 . S
C829 C825 1.429 1_665 S
C829 C830 1.523 . S
C830 C814 1.368 1_665 S
C830 C826 1.368 . S
C830 C829 1.523 . S
H831 C806 0.950 . S
H832 C808 0.950 . S
H833 C809 0.949 . S
H834 C811 0.950 . S
H835 C813 0.950 . S
C836 C837 1.349 . S
C836 C838 1.327 . S
C836 H861 0.950 . S
C837 C836 1.349 . S
C837 C853 1.332 1_565 S
C838 C836 1.327 . S
C838 C857 1.429 . S
C838 H862 0.950 . S
C839 C856 1.574 1_556 S
C839 C858 1.368 1_545 S
C839 H863 0.949 . S
H840 C844 0.949 . S
C841 C842 1.349 . S
C841 C843 1.327 . S
C841 H864 0.950 . S
C842 C841 1.349 . S
C842 C854 1.349 1_545 S
C843 C841 1.327 . S
C843 C859 1.429 . S
C843 H865 0.950 . S
C844 H840 0.949 . S
C844 C852 1.574 1_554 S
C844 C860 1.368 1_565 S
H845 C853 0.963 . S
H846 C851 0.950 . S
H847 C852 0.949 . S
H848 C854 0.950 . S
H849 C855 0.950 . S
H850 C856 0.949 . S
C851 H846 0.950 . S
C851 C853 1.332 . S
C851 C857 1.429 1_545 S
C852 C844 1.574 1_556 S
C852 H847 0.949 . S
C852 C858 1.368 . S
C853 C837 1.332 1_545 S
C853 H845 0.963 . S
C853 C851 1.332 . S
C854 C842 1.349 1_565 S
C854 H848 0.950 . S
C854 C855 1.327 . S
C855 H849 0.950 . S
C855 C854 1.327 . S
C855 C859 1.429 1_565 S
C856 C839 1.574 1_554 S
C856 H850 0.949 . S
C856 C860 1.368 . S
C857 C838 1.429 . S
C857 C851 1.429 1_565 S
C857 C858 1.523 . S
C858 C839 1.368 1_565 S
C858 C852 1.368 . S
C858 C857 1.523 . S
C859 C843 1.429 . S
C859 C855 1.429 1_545 S
C859 C860 1.523 . S
C860 C844 1.368 1_545 S
C860 C856 1.368 . S
C860 C859 1.523 . S
H861 C836 0.950 . S
H862 C838 0.950 . S
H863 C839 0.949 . S
H864 C841 0.950 . S
H865 C843 0.950 . S
C866 C867 1.349 . S
C866 C868 1.327 . S
C866 H891 0.950 . S
C867 C866 1.349 . S
C867 C883 1.349 . S
C868 C866 1.327 . S
C868 C887 1.429 . S
C868 H892 0.950 . S
C869 C886 1.574 . S
C869 C888 1.368 . S
C869 H893 0.949 . S
H870 C874 0.949 . S
C871 C872 1.349 . S
C871 C873 1.327 . S
C871 H894 0.950 . S
C872 C871 1.349 . S
C872 C884 1.349 . S
C873 C871 1.327 . S
C873 C889 1.429 . S
C873 H895 0.950 . S
C874 H870 0.949 . S
C874 C882 1.574 . S
C874 C890 1.368 . S
H875 C883 0.950 . S
H876 C881 0.950 . S
H877 C882 0.949 . S
H878 C884 0.950 . S
H879 C885 0.950 . S
H880 C886 0.949 . S
C881 H876 0.950 . S
C881 C883 1.327 . S
C881 C887 1.429 . S
C882 C874 1.574 . S
C882 H877 0.949 . S
C882 C888 1.368 . S
C883 C867 1.349 . S
C883 H875 0.950 . S
C883 C881 1.327 . S
C884 C872 1.349 . S
C884 H878 0.950 . S
C884 C885 1.327 . S
C885 H879 0.950 . S
C885 C884 1.327 . S
C885 C889 1.429 . S
C886 C869 1.574 . S
C886 H880 0.949 . S
C886 C890 1.368 . S
C887 C868 1.429 . S
C887 C881 1.429 . S
C887 C888 1.523 . S
C888 C869 1.368 . S
C888 C882 1.368 . S
C888 C887 1.523 . S
C889 C873 1.429 . S
C889 C885 1.429 . S
C889 C890 1.523 . S
C890 C874 1.368 . S
C890 C886 1.368 . S
C890 C889 1.523 . S
H891 C866 0.950 . S
H892 C868 0.950 . S
H893 C869 0.949 . S
H894 C871 0.950 . S
H895 C873 0.950 . S
C177 C98 1.166 . S
C182 C15 1.163 . S
C207 C120 1.166 . S
C212 C29 1.163 . S
C237 C65 1.163 . S
C242 C150 1.166 . S
C267 C81 1.163 . S
C272 C162 1.166 . S
C297 C95 1.163 . S
C302 C8 1.166 . S
C327 C32 1.166 . S
C332 C117 1.163 . S
C357 C62 1.166 . S
C362 C153 1.163 . S
C387 C74 1.166 . S
C392 C169 1.163 . S
C417 C125 1.170 . S
C422 C76 1.164 . S
C447 C10 1.164 . S
C452 C139 1.170 . S
C477 C40 1.164 . S
C482 C175 1.170 . S
C507 C52 1.164 . S
C512 C103 1.170 . S
C537 C87 1.170 . S
C542 C128 1.164 . S
C567 C21 1.170 . S
C572 C140 1.164 . S
C597 C164 1.164 . S
C602 C37 1.170 . S
C627 C106 1.164 . S
C632 C51 1.170 . S
C657 C7 1.609 . S
C662 C59 1.609 . S
C687 C43 1.608 . S
C692 C73 1.608 . S
C717 C147 1.608 . S
C722 C109 1.608 . S
C747 C161 1.609 . S
C752 C131 1.609 . S
C777 C118 1.419 . S
C782 C18 1.419 . S
C807 C30 1.419 . S
C812 C142 1.419 . S
C837 C172 1.419 . S
C842 C54 1.419 . S
C867 C96 1.419 . S
C872 C84 1.419 . S
