# Generated by pormake.
# Topology vbm, (6)-cn, num edge types: 1
# Building blocks:
#     Node 0, Type 0, BuildingBlock: NUHQIS_clean_sbu_0, # of connection points: 6
#     Node 1, Type 0, BuildingBlock: NUHQIS_clean_sbu_0, # of connection points: 6
#     Node 2, Type 0, BuildingBlock: NUHQIS_clean_sbu_0, # of connection points: 6
#     Node 3, Type 0, BuildingBlock: NUHQIS_clean_sbu_0, # of connection points: 6
#     Node 4, Type 0, BuildingBlock: NUHQIS_clean_sbu_0, # of connection points: 6
#     Node 5, Type 0, BuildingBlock: NUHQIS_clean_sbu_0, # of connection points: 6
#     Node 6, Type 0, BuildingBlock: NUHQIS_clean_sbu_0, # of connection points: 6
#     Node 7, Type 0, BuildingBlock: NUHQIS_clean_sbu_0, # of connection points: 6
#     Node 8, Type 0, BuildingBlock: NUHQIS_clean_sbu_0, # of connection points: 6
#     Node 9, Type 0, BuildingBlock: NUHQIS_clean_sbu_0, # of connection points: 6
#     Node 10, Type 0, BuildingBlock: NUHQIS_clean_sbu_0, # of connection points: 6
#     Node 11, Type 0, BuildingBlock: NUHQIS_clean_sbu_0, # of connection points: 6
#     Node 12, Type 0, BuildingBlock: NUHQIS_clean_sbu_0, # of connection points: 6
#     Node 13, Type 0, BuildingBlock: NUHQIS_clean_sbu_0, # of connection points: 6
#     Node 14, Type 0, BuildingBlock: NUHQIS_clean_sbu_0, # of connection points: 6
#     Node 15, Type 0, BuildingBlock: NUHQIS_clean_sbu_0, # of connection points: 6
#     Edge 16, Type (0, 0), BuildingBlock: AJUNOK_clean_linker_0, # of connection points: 2
#     Edge 17, Type (0, 0), BuildingBlock: AJUNOK_clean_linker_0, # of connection points: 2
#     Edge 18, Type (0, 0), BuildingBlock: AJUNOK_clean_linker_0, # of connection points: 2
#     Edge 19, Type (0, 0), BuildingBlock: AJUNOK_clean_linker_0, # of connection points: 2
#     Edge 20, Type (0, 0), BuildingBlock: AJUNOK_clean_linker_0, # of connection points: 2
#     Edge 21, Type (0, 0), BuildingBlock: AJUNOK_clean_linker_0, # of connection points: 2
#     Edge 22, Type (0, 0), BuildingBlock: AJUNOK_clean_linker_0, # of connection points: 2
#     Edge 23, Type (0, 0), BuildingBlock: AJUNOK_clean_linker_0, # of connection points: 2
#     Edge 24, Type (0, 0), BuildingBlock: AJUNOK_clean_linker_0, # of connection points: 2
#     Edge 25, Type (0, 0), BuildingBlock: AJUNOK_clean_linker_0, # of connection points: 2
#     Edge 26, Type (0, 0), BuildingBlock: AJUNOK_clean_linker_0, # of connection points: 2
#     Edge 27, Type (0, 0), BuildingBlock: AJUNOK_clean_linker_0, # of connection points: 2
#     Edge 28, Type (0, 0), BuildingBlock: AJUNOK_clean_linker_0, # of connection points: 2
#     Edge 29, Type (0, 0), BuildingBlock: AJUNOK_clean_linker_0, # of connection points: 2
#     Edge 30, Type (0, 0), BuildingBlock: AJUNOK_clean_linker_0, # of connection points: 2
#     Edge 31, Type (0, 0), BuildingBlock: AJUNOK_clean_linker_0, # of connection points: 2
#     Edge 32, Type (0, 0), BuildingBlock: AJUNOK_clean_linker_0, # of connection points: 2
#     Edge 33, Type (0, 0), BuildingBlock: AJUNOK_clean_linker_0, # of connection points: 2
#     Edge 34, Type (0, 0), BuildingBlock: AJUNOK_clean_linker_0, # of connection points: 2
#     Edge 35, Type (0, 0), BuildingBlock: AJUNOK_clean_linker_0, # of connection points: 2
#     Edge 36, Type (0, 0), BuildingBlock: AJUNOK_clean_linker_0, # of connection points: 2
#     Edge 37, Type (0, 0), BuildingBlock: AJUNOK_clean_linker_0, # of connection points: 2
#     Edge 38, Type (0, 0), BuildingBlock: AJUNOK_clean_linker_0, # of connection points: 2
#     Edge 39, Type (0, 0), BuildingBlock: AJUNOK_clean_linker_0, # of connection points: 2
#     Edge 40, Type (0, 0), BuildingBlock: AJUNOK_clean_linker_0, # of connection points: 2
#     Edge 41, Type (0, 0), BuildingBlock: AJUNOK_clean_linker_0, # of connection points: 2
#     Edge 42, Type (0, 0), BuildingBlock: AJUNOK_clean_linker_0, # of connection points: 2
#     Edge 43, Type (0, 0), BuildingBlock: AJUNOK_clean_linker_0, # of connection points: 2
#     Edge 44, Type (0, 0), BuildingBlock: AJUNOK_clean_linker_0, # of connection points: 2
#     Edge 45, Type (0, 0), BuildingBlock: AJUNOK_clean_linker_0, # of connection points: 2
#     Edge 46, Type (0, 0), BuildingBlock: AJUNOK_clean_linker_0, # of connection points: 2
#     Edge 47, Type (0, 0), BuildingBlock: AJUNOK_clean_linker_0, # of connection points: 2
#     Edge 48, Type (0, 0), BuildingBlock: AJUNOK_clean_linker_0, # of connection points: 2
#     Edge 49, Type (0, 0), BuildingBlock: AJUNOK_clean_linker_0, # of connection points: 2
#     Edge 50, Type (0, 0), BuildingBlock: AJUNOK_clean_linker_0, # of connection points: 2
#     Edge 51, Type (0, 0), BuildingBlock: AJUNOK_clean_linker_0, # of connection points: 2
#     Edge 52, Type (0, 0), BuildingBlock: AJUNOK_clean_linker_0, # of connection points: 2
#     Edge 53, Type (0, 0), BuildingBlock: AJUNOK_clean_linker_0, # of connection points: 2
#     Edge 54, Type (0, 0), BuildingBlock: AJUNOK_clean_linker_0, # of connection points: 2
#     Edge 55, Type (0, 0), BuildingBlock: AJUNOK_clean_linker_0, # of connection points: 2
#     Edge 56, Type (0, 0), BuildingBlock: AJUNOK_clean_linker_0, # of connection points: 2
#     Edge 57, Type (0, 0), BuildingBlock: AJUNOK_clean_linker_0, # of connection points: 2
#     Edge 58, Type (0, 0), BuildingBlock: AJUNOK_clean_linker_0, # of connection points: 2
#     Edge 59, Type (0, 0), BuildingBlock: AJUNOK_clean_linker_0, # of connection points: 2
#     Edge 60, Type (0, 0), BuildingBlock: AJUNOK_clean_linker_0, # of connection points: 2
#     Edge 61, Type (0, 0), BuildingBlock: AJUNOK_clean_linker_0, # of connection points: 2
#     Edge 62, Type (0, 0), BuildingBlock: AJUNOK_clean_linker_0, # of connection points: 2
#     Edge 63, Type (0, 0), BuildingBlock: AJUNOK_clean_linker_0, # of connection points: 2
# Relax obj value: 0.061
# Max RMSD: 0.150
# Mean RMSD: 0.150
data_MOF--net-vbm--node1-NUHQIS_clean_sbu_0--edge1-AJUNOK_clean_linker_0
_symmetry_space_group_name_H-M    P1
_symmetry_Int_Tables_number       1
_symmetry_cell_setting            triclinic
loop_
_symmetry_equiv_pos_as_xyz
'x, y, z'
_cell_length_a     39.38191
_cell_length_b     21.222698
_cell_length_c     41.885181
_cell_angle_alpha  90.274413
_cell_angle_beta   89.94019
_cell_angle_gamma 89.885913
loop_
_atom_site_label
_atom_site_type_symbol
_atom_site_fract_x
_atom_site_fract_y
_atom_site_fract_z
_atom_type_partial_charge
Tb0 Tb 0.14035 0.08945 0.12898 0.0
Eu1 Eu 0.10749 0.22367 0.15512 0.0
C2 C 0.11597 0.19059 0.08014 0.0
C3 C 0.18424 0.2128 0.13701 0.0
C4 C 0.15855 0.91869 0.11807 0.0
C5 C 0.16963 0.80783 0.10748 0.0
C6 C 0.17663 0.87146 0.10184 0.0
C7 C 0.13321 0.90162 0.13996 0.0
C8 C 0.12627 0.83799 0.14571 0.0
C9 C 0.14454 0.79031 0.12968 0.0
C10 C 0.16642 0.98542 0.11216 0.0
O11 O 0.1202 0.06816 0.17555 0.0
O12 O 0.12624 0.16594 0.19761 0.0
O13 O 0.06491 0.1551 0.15867 0.0
O14 O 0.08518 0.07961 0.12359 0.0
C15 C 0.12315 0.10438 0.20065 0.0
O16 O 0.11333 0.30244 0.18816 0.0
O17 O 0.07063 0.30097 0.1556 0.0
O18 O 0.09695 0.21854 0.10188 0.0
O19 O 0.13965 0.14958 0.08746 0.0
O20 O 0.18198 0.15236 0.1438 0.0
O21 O 0.15693 0.24615 0.13241 0.0
C22 C 0.06022 0.10594 0.14008 0.0
O23 O 0.14443 1.01644 0.09505 0.0
O24 O 0.1762 1.01795 0.13698 0.0
C25 C 0.09521 0.39986 0.16784 0.0
C26 C 0.11188 0.52635 0.15432 0.0
C27 C 0.08684 0.51195 0.17714 0.0
C28 C 0.07867 0.44923 0.18389 0.0
C29 C 0.11976 0.41392 0.14463 0.0
C30 C 0.128 0.47662 0.1379 0.0
C31 C 0.08784 0.33403 0.17637 0.0
H32 H 0.1836 0.77235 0.0942 0.0
H33 H 0.19615 0.88381 0.08474 0.0
H34 H 0.11892 0.93749 0.15269 0.0
H35 H 0.10686 0.82606 0.16298 0.0
H36 H 0.07405 0.54924 0.1902 0.0
H37 H 0.05974 0.43926 0.20196 0.0
H38 H 0.13276 0.37637 0.13192 0.0
H39 H 0.1469 0.48621 0.11976 0.0
Tb40 Tb 0.8462 0.99933 0.13007 0.0
Eu41 Eu 0.8837 0.86678 0.15383 0.0
C42 C 0.86576 0.89368 0.07988 0.0
C43 C 0.8043 0.87623 0.14108 0.0
C44 C 0.82694 0.17123 0.12541 0.0
C45 C 0.81788 0.28324 0.11655 0.0
C46 C 0.81031 0.22025 0.10943 0.0
C47 C 0.85101 0.18606 0.149 0.0
C48 C 0.85866 0.24913 0.15611 0.0
C49 C 0.84228 0.29857 0.13984 0.0
C50 C 0.82057 0.10523 0.11581 0.0
O51 O 0.84099 0.99081 0.18137 0.0
O52 O 0.89032 0.94022 0.19334 0.0
O53 O 0.92553 0.92819 0.13548 0.0
O54 O 0.89858 1.02363 0.14169 0.0
C55 C 0.86628 0.98082 0.20099 0.0
O56 O 0.88752 0.79304 0.18998 0.0
O57 O 0.91789 0.78664 0.14705 0.0
O58 O 0.86868 0.85037 0.10211 0.0
O59 O 0.86302 0.954 0.0865 0.0
O60 O 0.80866 0.9247 0.12201 0.0
O61 O 0.82756 0.85993 0.16178 0.0
C62 C 0.92631 0.98993 0.13722 0.0
O63 O 0.84505 0.07811 0.09997 0.0
O64 O 0.80814 0.06787 0.13749 0.0
C65 C 0.8975 0.6912 0.16873 0.0
C66 C 0.87861 0.56327 0.16112 0.0
C67 C 0.90456 0.5806 0.18251 0.0
C68 C 0.91386 0.64395 0.18629 0.0
C69 C 0.87156 0.67426 0.14739 0.0
C70 C 0.8623 0.61091 0.14353 0.0
C71 C 0.90767 0.75777 0.17275 0.0
H72 H 0.80469 0.32008 0.1037 0.0
H73 H 0.79178 0.20981 0.09105 0.0
H74 H 0.86432 0.14885 0.16146 0.0
H75 H 0.87804 0.25912 0.17373 0.0
H76 H 0.91808 0.54505 0.19596 0.0
H77 H 0.93401 0.65601 0.20281 0.0
H78 H 0.85852 0.71005 0.13366 0.0
H79 H 0.84217 0.59918 0.12695 0.0
Tb80 Tb 0.14421 0.98843 0.39468 0.0
Eu81 Eu 0.11045 0.85394 0.36898 0.0
C82 C 0.11915 0.88529 0.44294 0.0
C83 C 0.18856 0.86591 0.38595 0.0
C84 C 0.16035 0.15966 0.40351 0.0
C85 C 0.17046 0.27179 0.41064 0.0
C86 C 0.17836 0.20909 0.41788 0.0
C87 C 0.13468 0.17358 0.3814 0.0
C88 C 0.12687 0.23621 0.37403 0.0
C89 C 0.14431 0.28611 0.38895 0.0
C90 C 0.16739 0.09402 0.4127 0.0
O91 O 0.15163 0.98597 0.34338 0.0
O92 O 0.10704 0.92391 0.32806 0.0
O93 O 0.06731 0.91563 0.38438 0.0
O94 O 0.09316 1.01172 0.37846 0.0
C95 C 0.12895 0.96928 0.32211 0.0
O96 O 0.10857 0.77824 0.33349 0.0
O97 O 0.07512 0.77566 0.37449 0.0
O98 O 0.12311 0.84061 0.42141 0.0
O99 O 0.11946 0.94509 0.43523 0.0
O100 O 0.18255 0.91588 0.40388 0.0
O101 O 0.1666 0.84528 0.36501 0.0
C102 C 0.06568 0.97701 0.38151 0.0
O103 O 0.14241 0.06492 0.42658 0.0
O104 O 0.18186 0.05847 0.39117 0.0
C105 C 0.09537 0.67844 0.35468 0.0
C106 C 0.11094 0.55014 0.36481 0.0
C107 C 0.08576 0.56773 0.34274 0.0
C108 C 0.07803 0.63134 0.33777 0.0
C109 C 0.12082 0.66127 0.37643 0.0
C110 C 0.12861 0.59766 0.38138 0.0
C111 C 0.08664 0.74513 0.34962 0.0
H112 H 0.18429 0.30913 0.42258 0.0
H113 H 0.19817 0.19924 0.43509 0.0
H114 H 0.12048 0.13601 0.37006 0.0
H115 H 0.10717 0.24555 0.35666 0.0
H116 H 0.0722 0.53229 0.32915 0.0
H117 H 0.05846 0.64377 0.32076 0.0
H118 H 0.13444 0.69707 0.38972 0.0
H119 H 0.14808 0.58555 0.39855 0.0
Tb120 Tb 0.85479 0.1024 0.38203 0.0
Eu121 Eu 0.89633 0.23562 0.36858 0.0
C122 C 0.87888 0.18712 0.43897 0.0
C123 C 0.81549 0.23223 0.38093 0.0
C124 C 0.83928 0.92971 0.3867 0.0
C125 C 0.83705 0.82254 0.40705 0.0
C126 C 0.82642 0.88555 0.40839 0.0
C127 C 0.86321 0.90991 0.36379 0.0
C128 C 0.87364 0.84693 0.36232 0.0
C129 C 0.8607 0.80254 0.38392 0.0
C130 C 0.82696 0.9956 0.38765 0.0
O131 O 0.8461 0.13678 0.33435 0.0
O132 O 0.89889 0.1715 0.32463 0.0
O133 O 0.93563 0.16585 0.3833 0.0
O134 O 0.90683 0.07515 0.37014 0.0
C135 C 0.87161 0.14185 0.3147 0.0
O136 O 0.90561 0.31412 0.3362 0.0
O137 O 0.93283 0.30888 0.38109 0.0
O138 O 0.88041 0.23751 0.42081 0.0
O139 O 0.87849 0.13026 0.42647 0.0
O140 O 0.81689 0.17472 0.3927 0.0
O141 O 0.84093 0.25834 0.36571 0.0
C142 C 0.93506 0.10509 0.37754 0.0
O143 O 0.83647 1.03 0.41186 0.0
O144 O 0.82891 1.0267 0.361 0.0
C145 C 0.91787 0.41017 0.36217 0.0
C146 C 0.90095 0.53842 0.37143 0.0
C147 C 0.92229 0.51977 0.34612 0.0
C148 C 0.9307 0.45624 0.34158 0.0
C149 C 0.89666 0.42848 0.38755 0.0
C150 C 0.88829 0.49204 0.39216 0.0
C151 C 0.9257 0.3432 0.35616 0.0
H152 H 0.82622 0.78918 0.42368 0.0
H153 H 0.80785 0.89968 0.42615 0.0
H154 H 0.87374 0.94298 0.34685 0.0
H155 H 0.89201 0.83295 0.34435 0.0
H156 H 0.93252 0.5544 0.32983 0.0
H157 H 0.94699 0.443 0.32179 0.0
H158 H 0.88623 0.39355 0.40357 0.0
H159 H 0.8713 0.5047 0.4115 0.0
Tb160 Tb 0.88443 0.87242 0.87126 0.0
Eu161 Eu 0.84733 1.00678 0.89373 0.0
C162 C 0.86427 0.97816 0.82219 0.0
C163 C 0.92809 0.99134 0.88692 0.0
C164 C 0.90122 0.70194 0.85823 0.0
C165 C 0.89658 0.59425 0.83844 0.0
C166 C 0.90465 0.65771 0.83343 0.0
C167 C 0.88937 0.68178 0.88814 0.0
C168 C 0.88148 0.61834 0.89321 0.0
C169 C 0.88513 0.57376 0.86847 0.0
C170 C 0.90944 0.76884 0.85245 0.0
O171 O 0.87075 0.85539 0.92129 0.0
O172 O 0.86264 0.95796 0.93856 0.0
O173 O 0.80724 0.93236 0.90136 0.0
O174 O 0.83022 0.85531 0.86872 0.0
C175 C 0.86646 0.89759 0.94416 0.0
O176 O 0.84538 0.08842 0.9256 0.0
O177 O 0.81057 0.08244 0.88576 0.0
O178 O 0.8394 0.99216 0.84158 0.0
O179 O 0.88891 0.94053 0.83168 0.0
O180 O 0.92459 0.93044 0.89061 0.0
O181 O 0.90187 1.02786 0.88095 0.0
C182 C 0.80552 0.87749 0.88665 0.0
O183 O 0.88706 0.80086 0.83631 0.0
O184 O 0.92085 0.80095 0.87678 0.0
C185 C 0.83005 0.18413 0.90127 0.0
C186 C 0.84795 0.31088 0.88975 0.0
C187 C 0.83391 0.29302 0.91921 0.0
C188 C 0.82507 0.23027 0.9249 0.0
C189 C 0.84359 0.20185 0.87158 0.0
C190 C 0.85224 0.26484 0.8658 0.0
C191 C 0.82253 0.1177 0.90875 0.0
H192 H 0.89966 0.56102 0.81894 0.0
H193 H 0.91356 0.6723 0.81013 0.0
H194 H 0.88599 0.7151 0.90757 0.0
H195 H 0.87197 0.60435 0.91638 0.0
H196 H 0.8298 0.32767 0.93791 0.0
H197 H 0.8147 0.21758 0.94796 0.0
H198 H 0.84791 0.16692 0.85306 0.0
H199 H 0.86305 0.27732 0.8429 0.0
Tb200 Tb 0.10961 0.21659 0.87001 0.0
Eu201 Eu 0.14518 0.08388 0.89565 0.0
C202 C 0.12259 0.09928 0.82394 0.0
C203 C 0.0636 0.10072 0.88565 0.0
C204 C 0.09533 0.38897 0.85903 0.0
C205 C 0.08652 0.50066 0.84902 0.0
C206 C 0.07964 0.43742 0.84181 0.0
C207 C 0.11783 0.40459 0.8838 0.0
C208 C 0.12483 0.46784 0.89097 0.0
C209 C 0.10926 0.51673 0.87364 0.0
C210 C 0.08935 0.32261 0.84993 0.0
O211 O 0.09983 0.21324 0.92171 0.0
O212 O 0.1432 0.14758 0.93815 0.0
O213 O 0.1871 0.1511 0.88053 0.0
O214 O 0.15769 0.24138 0.89121 0.0
C215 C 0.11901 0.18846 0.94424 0.0
O216 O 0.15085 1.00848 0.93062 0.0
O217 O 0.18064 1.00644 0.8871 0.0
O218 O 0.12261 0.06167 0.84841 0.0
O219 O 0.12587 0.16083 0.82776 0.0
O220 O 0.06813 0.15005 0.86726 0.0
O221 O 0.08845 0.07522 0.90225 0.0
C222 C 0.18646 0.21187 0.88695 0.0
O223 O 0.11567 0.29253 0.83863 0.0
O224 O 0.07248 0.28821 0.87019 0.0
C225 C 0.16145 0.9089 0.90719 0.0
C226 C 0.14323 0.78134 0.89756 0.0
C227 C 0.16868 0.79781 0.91962 0.0
C228 C 0.17768 0.86101 0.92439 0.0
C229 C 0.13599 0.89278 0.88516 0.0
C230 C 0.12708 0.82956 0.88027 0.0
C231 C 0.1711 0.97534 0.9124 0.0
H232 H 0.07402 0.53708 0.8353 0.0
H233 H 0.06231 0.42634 0.82251 0.0
H234 H 0.13034 0.36784 0.89725 0.0
H235 H 0.143 0.4784 0.90961 0.0
H236 H 0.18198 0.7617 0.93288 0.0
H237 H 0.19743 0.87248 0.94143 0.0
H238 H 0.12302 0.9291 0.87174 0.0
H239 H 0.10733 0.81838 0.86319 0.0
Tb240 Tb 0.88977 0.21304 0.64959 0.0
Eu241 Eu 0.8524 0.07951 0.63048 0.0
C242 C 0.86798 0.11485 0.70148 0.0
C243 C 0.93309 0.09059 0.64038 0.0
C244 C 0.90459 0.38481 0.65904 0.0
C245 C 0.8845 0.48517 0.68025 0.0
C246 C 0.89495 0.42293 0.68503 0.0
C247 C 0.90393 0.41047 0.62812 0.0
C248 C 0.89373 0.4729 0.62339 0.0
C249 C 0.88367 0.51068 0.64937 0.0
C250 C 0.91472 0.31853 0.66462 0.0
O251 O 0.87554 0.22232 0.59889 0.0
O252 O 0.87779 0.11723 0.58711 0.0
O253 O 0.81395 0.15625 0.61998 0.0
O254 O 0.83591 0.22945 0.65476 0.0
C255 C 0.87699 0.17596 0.57786 0.0
O256 O 0.84496 1.00052 0.59756 0.0
O257 O 0.81643 1.00459 0.64161 0.0
O258 O 0.84344 0.09958 0.68206 0.0
O259 O 0.89336 0.14984 0.6913 0.0
O260 O 0.93018 0.15095 0.63455 0.0
O261 O 0.90621 0.05494 0.64538 0.0
C262 C 0.81172 0.2099 0.63576 0.0
O263 O 0.8949 0.28612 0.68329 0.0
O264 O 0.92441 0.28558 0.63986 0.0
C265 C 0.83202 0.90289 0.62197 0.0
C266 C 0.84617 0.77352 0.63062 0.0
C267 C 0.84726 0.80023 0.60002 0.0
C268 C 0.84005 0.86415 0.59573 0.0
C269 C 0.83088 0.87613 0.65263 0.0
C270 C 0.83789 0.81206 0.65688 0.0
C271 C 0.82468 0.97054 0.61679 0.0
H272 H 0.87746 0.51363 0.70076 0.0
H273 H 0.89541 0.40447 0.7091 0.0
H274 H 0.9111 0.3824 0.60753 0.0
H275 H 0.89326 0.49144 0.59934 0.0
H276 H 0.85347 0.77149 0.57937 0.0
H277 H 0.84085 0.88342 0.57183 0.0
H278 H 0.82478 0.90461 0.67339 0.0
H279 H 0.8374 0.79286 0.68079 0.0
Tb280 Tb 0.1137 0.85857 0.6517 0.0
Eu281 Eu 0.14941 0.99166 0.62749 0.0
C282 C 0.12946 0.96999 0.70048 0.0
C283 C 0.06884 0.98003 0.64058 0.0
C284 C 0.10193 0.68583 0.66281 0.0
C285 C 0.10194 0.57616 0.67941 0.0
C286 C 0.09222 0.63894 0.68442 0.0
C287 C 0.1216 0.66909 0.63606 0.0
C288 C 0.13143 0.6063 0.63109 0.0
C289 C 0.12178 0.55917 0.65278 0.0
C290 C 0.0916 0.75181 0.6686 0.0
O291 O 0.12626 0.84578 0.60087 0.0
O292 O 0.12205 0.9491 0.58602 0.0
O293 O 0.18717 0.91291 0.61831 0.0
O294 O 0.16789 0.85221 0.6591 0.0
C295 C 0.12102 0.88903 0.57899 0.0
O296 O 0.15086 0.07138 0.5948 0.0
O297 O 0.18877 0.0637 0.63188 0.0
O298 O 0.15291 0.99039 0.68087 0.0
O299 O 0.10823 0.92473 0.69203 0.0
O300 O 0.07095 0.91822 0.63908 0.0
O301 O 0.09596 1.01608 0.64224 0.0
C302 C 0.19078 0.86439 0.6374 0.0
O303 O 0.11236 0.78577 0.68566 0.0
O304 O 0.08042 0.78283 0.64397 0.0
C305 C 0.17025 0.16604 0.61771 0.0
C306 C 0.15716 0.29466 0.63078 0.0
C307 C 0.17744 0.27669 0.60457 0.0
C308 C 0.18398 0.213 0.59817 0.0
C309 C 0.14998 0.18352 0.64389 0.0
C310 C 0.14352 0.24725 0.65039 0.0
C311 C 0.1758 0.09916 0.60961 0.0
H312 H 0.09419 0.5409 0.69654 0.0
H313 H 0.0771 0.65091 0.70522 0.0
H314 H 0.12945 0.70458 0.61909 0.0
H315 H 0.1463 0.59453 0.61012 0.0
H316 H 0.18759 0.31177 0.5885 0.0
H317 H 0.19932 0.20035 0.57762 0.0
H318 H 0.13888 0.14787 0.6591 0.0
H319 H 0.12782 0.25946 0.67075 0.0
Tb320 Tb 0.64022 0.59635 0.12543 0.0
Eu321 Eu 0.6084 0.73074 0.15235 0.0
C322 C 0.61561 0.70012 0.07821 0.0
C323 C 0.68591 0.71363 0.13958 0.0
C324 C 0.65983 0.42656 0.11363 0.0
C325 C 0.67245 0.31589 0.1041 0.0
C326 C 0.67849 0.37961 0.09776 0.0
C327 C 0.6354 0.40911 0.13635 0.0
C328 C 0.62935 0.3454 0.14272 0.0
C329 C 0.64748 0.29803 0.12633 0.0
C330 C 0.66505 0.49327 0.10548 0.0
O331 O 0.64219 0.58794 0.17713 0.0
O332 O 0.6029 0.66223 0.19347 0.0
O333 O 0.56348 0.6711 0.13956 0.0
O334 O 0.58847 0.57284 0.13964 0.0
C335 C 0.62169 0.61185 0.19886 0.0
O336 O 0.60929 0.80825 0.18688 0.0
O337 O 0.5746 0.81164 0.14695 0.0
O338 O 0.62179 0.74365 0.09986 0.0
O339 O 0.61434 0.64043 0.08584 0.0
O340 O 0.67844 0.67052 0.11806 0.0
O341 O 0.66405 0.72873 0.16169 0.0
C342 C 0.56133 0.60937 0.13956 0.0
O343 O 0.63913 0.52145 0.09255 0.0
O344 O 0.6792 0.5284 0.12732 0.0
C345 C 0.59775 0.90795 0.1647 0.0
C346 C 0.6157 1.03412 0.1519 0.0
C347 C 0.59021 1.02014 0.17432 0.0
C348 C 0.58128 0.95759 0.1806 0.0
C349 C 0.6236 0.92148 0.1427 0.0
C350 C 0.63253 0.98404 0.13637 0.0
C351 C 0.58762 0.84242 0.171 0.0
H352 H 0.68732 0.28055 0.0916 0.0
H353 H 0.69752 0.39222 0.08023 0.0
H354 H 0.62068 0.44477 0.1488 0.0
H355 H 0.60994 0.33312 0.15993 0.0
H356 H 0.57677 0.05767 0.18661 0.0
H357 H 0.56132 0.94799 0.19772 0.0
H358 H 0.63679 0.88366 0.13037 0.0
H359 H 0.65274 0.99324 0.11947 0.0
Tb360 Tb 0.34871 0.4875 0.13586 0.0
Eu361 Eu 0.3892 0.35529 0.15257 0.0
C362 C 0.37627 0.40091 0.08109 0.0
C363 C 0.30949 0.35919 0.14182 0.0
C364 C 0.32889 0.65909 0.12962 0.0
C365 C 0.32096 0.76835 0.11385 0.0
C366 C 0.31227 0.70456 0.11112 0.0
C367 C 0.35455 0.67828 0.1508 0.0
C368 C 0.36317 0.74204 0.15363 0.0
C369 C 0.34633 0.78795 0.13535 0.0
C370 C 0.319 0.59217 0.12691 0.0
O371 O 0.3428 0.4644 0.18587 0.0
O372 O 0.39451 0.42187 0.19519 0.0
O373 O 0.42986 0.42362 0.13918 0.0
O374 O 0.40066 0.51672 0.14721 0.0
C375 C 0.36878 0.4566 0.20484 0.0
O376 O 0.39714 0.27707 0.18551 0.0
O377 O 0.42346 0.27798 0.14011 0.0
O378 O 0.37442 0.35174 0.10004 0.0
O379 O 0.37472 0.45838 0.09266 0.0
O380 O 0.3124 0.41185 0.12542 0.0
O381 O 0.3338 0.34023 0.16072 0.0
C382 C 0.42922 0.48522 0.14249 0.0
O383 O 0.3335 0.55952 0.10433 0.0
O384 O 0.31788 0.56069 0.15345 0.0
C385 C 0.40561 0.17912 0.15981 0.0
C386 C 0.38518 0.05254 0.1507 0.0
C387 C 0.41086 0.06792 0.17274 0.0
C388 C 0.4209 0.13061 0.17729 0.0
C389 C 0.38016 0.16409 0.13758 0.0
C390 C 0.3701 0.10139 0.13301 0.0
C391 C 0.41583 0.24514 0.16539 0.0
H392 H 0.308 0.80226 0.09893 0.0
H393 H 0.2925 0.69071 0.09455 0.0
H394 H 0.36773 0.64401 0.16536 0.0
H395 H 0.38273 0.75557 0.17047 0.0
H396 H 0.42287 1.03147 0.18683 0.0
H397 H 0.4405 0.14125 0.19462 0.0
H398 H 0.368 0.20089 0.12383 0.0
H399 H 0.35072 0.09111 0.11543 0.0
Tb400 Tb 0.64564 0.49881 0.39195 0.0
Eu401 Eu 0.6111 0.36273 0.36892 0.0
C402 C 0.62918 0.39301 0.44202 0.0
C403 C 0.69065 0.37719 0.37951 0.0
C404 C 0.66254 0.67006 0.40064 0.0
C405 C 0.67952 0.78004 0.40039 0.0
C406 C 0.6865 0.71694 0.40749 0.0
C407 C 0.63158 0.6869 0.38642 0.0
C408 C 0.62464 0.74986 0.37923 0.0
C409 C 0.64855 0.79704 0.38612 0.0
C410 C 0.66953 0.60415 0.40921 0.0
O411 O 0.64722 0.50087 0.34025 0.0
O412 O 0.60464 0.43101 0.32752 0.0
O413 O 0.56938 0.4226 0.38858 0.0
O414 O 0.59295 0.51972 0.38001 0.0
C415 C 0.62452 0.47879 0.32025 0.0
O416 O 0.60564 0.28759 0.33357 0.0
O417 O 0.57668 0.28408 0.37745 0.0
O418 O 0.62884 0.34857 0.42001 0.0
O419 O 0.62767 0.45296 0.43476 0.0
O420 O 0.68576 0.42809 0.39705 0.0
O421 O 0.66688 0.35369 0.36123 0.0
C422 C 0.56641 0.4836 0.38525 0.0
O423 O 0.64502 0.57508 0.42389 0.0
O424 O 0.6831 0.5689 0.38703 0.0
C425 C 0.59542 0.18771 0.35572 0.0
C426 C 0.61397 0.06031 0.36361 0.0
C427 C 0.58322 0.07644 0.34859 0.0
C428 C 0.57411 0.13967 0.34457 0.0
C429 C 0.6259 0.17198 0.37106 0.0
C430 C 0.63515 0.10883 0.37491 0.0
C431 C 0.58565 0.254 0.35155 0.0
H432 H 0.69834 0.81558 0.40597 0.0
H433 H 0.71048 0.70482 0.41856 0.0
H434 H 0.61263 0.65142 0.38121 0.0
H435 H 0.60033 0.76181 0.36878 0.0
H436 H 0.56593 1.04021 0.34039 0.0
H437 H 0.55033 0.15105 0.33294 0.0
H438 H 0.64245 0.20861 0.38009 0.0
H439 H 0.65897 0.09793 0.38658 0.0
Tb440 Tb 0.35335 0.59043 0.39121 0.0
Eu441 Eu 0.39103 0.72384 0.36822 0.0
C442 C 0.37298 0.69627 0.44226 0.0
C443 C 0.31126 0.71658 0.38547 0.0
C444 C 0.33788 0.41722 0.39746 0.0
C445 C 0.33701 0.30671 0.41244 0.0
C446 C 0.32756 0.3693 0.41821 0.0
C447 C 0.35749 0.4016 0.3705 0.0
C448 C 0.36682 0.33877 0.3646 0.0
C449 C 0.35707 0.29081 0.38579 0.0
C450 C 0.32968 0.48325 0.40552 0.0
O451 O 0.34475 0.60386 0.34072 0.0
O452 O 0.39441 0.65138 0.32773 0.0
O453 O 0.43181 0.66225 0.38779 0.0
O454 O 0.40555 0.56789 0.37806 0.0
C455 C 0.36929 0.6132 0.32027 0.0
O456 O 0.39399 0.79882 0.33264 0.0
O457 O 0.4284 0.79907 0.37292 0.0
O458 O 0.37838 0.73974 0.4205 0.0
O459 O 0.36803 0.63656 0.43526 0.0
O460 O 0.31432 0.66167 0.39975 0.0
O461 O 0.33499 0.74054 0.36724 0.0
C462 C 0.43291 0.60093 0.38453 0.0
O463 O 0.35262 0.51284 0.42211 0.0
O464 O 0.31765 0.51847 0.38274 0.0
C465 C 0.40898 0.8979 0.35434 0.0
C466 C 0.39389 1.02681 0.36472 0.0
C467 C 0.41059 1.00698 0.33669 0.0
C468 C 0.41812 0.94312 0.3316 0.0
C469 C 0.39198 0.91736 0.38219 0.0
C470 C 0.3845 0.98113 0.38731 0.0
C471 C 0.4167 0.83065 0.34862 0.0
H472 H 0.32866 0.27064 0.42887 0.0
H473 H 0.31252 0.38042 0.43918 0.0
H474 H 0.366 0.43804 0.35434 0.0
H475 H 0.38233 0.32784 0.34392 0.0
H476 H 0.41816 1.04098 0.31885 0.0
H477 H 0.4311 0.92904 0.30988 0.0
H478 H 0.38437 0.88319 0.39993 0.0
H479 H 0.37092 0.99458 0.40879 0.0
Tb480 Tb 0.38581 0.36743 0.87077 0.0
Eu481 Eu 0.34724 0.50061 0.88992 0.0
C482 C 0.36469 0.46629 0.81902 0.0
C483 C 0.42816 0.49242 0.87878 0.0
C484 C 0.40119 0.19532 0.86044 0.0
C485 C 0.41147 0.0839 0.85065 0.0
C486 C 0.42096 0.147 0.84704 0.0
C487 C 0.37182 0.1798 0.87772 0.0
C488 C 0.36231 0.11663 0.88138 0.0
C489 C 0.38189 0.06797 0.86765 0.0
C490 C 0.41118 0.26156 0.85585 0.0
O491 O 0.3733 0.36111 0.92199 0.0
O492 O 0.37478 0.46662 0.9331 0.0
O493 O 0.31045 0.42211 0.90147 0.0
O494 O 0.33176 0.35186 0.86502 0.0
C495 C 0.37648 0.40799 0.94254 0.0
O496 O 0.33819 0.58026 0.92216 0.0
O497 O 0.31153 0.57541 0.87727 0.0
O498 O 0.33948 0.48009 0.83808 0.0
O499 O 0.38984 0.43071 0.82924 0.0
O500 O 0.4269 0.43108 0.88296 0.0
O501 O 0.40049 0.52656 0.87494 0.0
C502 C 0.30765 0.36974 0.88469 0.0
O503 O 0.39173 0.29451 0.8371 0.0
O504 O 0.41914 0.293 0.88157 0.0
C505 C 0.3272 0.6763 0.89602 0.0
C506 C 0.3441 0.80387 0.88515 0.0
C507 C 0.31603 0.78794 0.9043 0.0
C508 C 0.30766 0.72473 0.90965 0.0
C509 C 0.35521 0.69182 0.8769 0.0
C510 C 0.36368 0.75498 0.87162 0.0
C511 C 0.31856 0.60989 0.90221 0.0
H512 H 0.42745 0.04749 0.84037 0.0
H513 H 0.44378 0.15808 0.83374 0.0
H514 H 0.3562 0.21654 0.88824 0.0
H515 H 0.33939 0.10584 0.89457 0.0
H516 H 0.30038 0.82444 0.91496 0.0
H517 H 0.28593 0.71366 0.92448 0.0
H518 H 0.37059 0.65502 0.8662 0.0
H519 H 0.38586 0.76552 0.85732 0.0
Tb520 Tb 0.60789 0.7266 0.86899 0.0
Eu521 Eu 0.64253 0.59292 0.89363 0.0
C522 C 0.62834 0.61816 0.82068 0.0
C523 C 0.56281 0.60608 0.87901 0.0
C524 C 0.59396 0.8979 0.8573 0.0
C525 C 0.5875 1.00942 0.84569 0.0
C526 C 0.5789 0.94646 0.83968 0.0
C527 C 0.61795 0.91297 0.88087 0.0
C528 C 0.62667 0.97586 0.88682 0.0
C529 C 0.61131 1.02491 0.8695 0.0
C530 C 0.58456 0.83183 0.85101 0.0
O531 O 0.61938 0.74054 0.91995 0.0
O532 O 0.61584 0.63724 0.93523 0.0
O533 O 0.68109 0.66939 0.90381 0.0
O534 O 0.66233 0.73878 0.86579 0.0
C535 C 0.61489 0.69746 0.94207 0.0
O536 O 0.64394 0.51395 0.9268 0.0
O537 O 0.68022 0.51777 0.88817 0.0
O538 O 0.6518 0.60201 0.84116 0.0
O539 O 0.60466 0.65941 0.82864 0.0
O540 O 0.56559 0.66734 0.88258 0.0
O541 O 0.58963 0.56916 0.87678 0.0
C542 C 0.68525 0.72029 0.88641 0.0
O543 O 0.60646 0.79865 0.83468 0.0
O544 O 0.57302 0.80058 0.87542 0.0
C545 C 0.66079 0.4173 0.90403 0.0
C546 C 0.64556 0.28911 0.89278 0.0
C547 C 0.67035 0.30644 0.91532 0.0
C548 C 0.67783 0.37 0.92092 0.0
C549 C 0.63643 0.40032 0.88112 0.0
C550 C 0.62897 0.33673 0.87545 0.0
C551 C 0.66773 0.48402 0.91129 0.0
H552 H 0.57518 0.04609 0.83201 0.0
H553 H 0.56036 0.93571 0.82137 0.0
H554 H 0.62987 0.87605 0.8947 0.0
H555 H 0.64564 0.98604 0.90481 0.0
H556 H 0.68402 0.27081 0.92859 0.0
H557 H 0.69675 0.38224 0.93865 0.0
H558 H 0.62292 0.43628 0.8679 0.0
H559 H 0.60973 0.3248 0.85798 0.0
Tb560 Tb 0.38907 0.71439 0.65173 0.0
Eu561 Eu 0.35469 0.57938 0.62705 0.0
C562 C 0.36741 0.60733 0.69954 0.0
C563 C 0.43475 0.59715 0.63814 0.0
C564 C 0.40294 0.88423 0.66633 0.0
C565 C 0.41268 0.99602 0.67511 0.0
C566 C 0.42144 0.93303 0.68069 0.0
C567 C 0.37533 0.89903 0.64654 0.0
C568 C 0.36657 0.96192 0.64093 0.0
C569 C 0.38536 1.01116 0.65491 0.0
C570 C 0.41262 0.81812 0.67172 0.0
O571 O 0.3765 0.73193 0.60144 0.0
O572 O 0.37172 0.62948 0.58313 0.0
O573 O 0.31415 0.65281 0.61896 0.0
O574 O 0.3347 0.72984 0.65297 0.0
C575 C 0.37436 0.69021 0.57809 0.0
O576 O 0.35529 0.49735 0.59554 0.0
O577 O 0.31702 0.50454 0.63244 0.0
O578 O 0.34403 0.59189 0.67892 0.0
O579 O 0.39209 0.64593 0.69132 0.0
O580 O 0.43068 0.65779 0.63397 0.0
O581 O 0.40869 0.55935 0.64222 0.0
C582 C 0.3109 0.70645 0.63454 0.0
O583 O 0.39073 0.78426 0.68744 0.0
O584 O 0.42427 0.78799 0.64683 0.0
C585 C 0.33696 0.40274 0.61891 0.0
C586 C 0.35121 0.27489 0.63153 0.0
C587 C 0.32376 0.29177 0.61185 0.0
C588 C 0.31675 0.35518 0.60557 0.0
C589 C 0.36382 0.38632 0.63927 0.0
C590 C 0.37083 0.32287 0.6456 0.0
C591 C 0.33064 0.46893 0.61043 0.0
H592 H 0.42763 1.03294 0.68615 0.0
H593 H 0.44281 0.92244 0.69605 0.0
H594 H 0.36065 0.86188 0.63537 0.0
H595 H 0.34497 0.97204 0.6258 0.0
H596 H 0.30777 0.2559 0.60123 0.0
H597 H 0.29578 0.36705 0.58997 0.0
H598 H 0.37967 0.42251 0.64982 0.0
H599 H 0.39211 0.31126 0.66086 0.0
Tb600 Tb 0.61351 0.36823 0.65095 0.0
Eu601 Eu 0.65239 0.50209 0.6321 0.0
C602 C 0.63244 0.47156 0.70222 0.0
C603 C 0.57113 0.49037 0.6381 0.0
C604 C 0.59611 0.19793 0.66391 0.0
C605 C 0.58802 0.08834 0.67875 0.0
C606 C 0.57955 0.15213 0.68219 0.0
C607 C 0.62143 0.17922 0.64222 0.0
C608 C 0.62997 0.11545 0.6388 0.0
C609 C 0.61321 0.06921 0.6569 0.0
C610 C 0.58719 0.26497 0.66804 0.0
O611 O 0.62763 0.35454 0.60058 0.0
O612 O 0.6361 0.45813 0.58607 0.0
O613 O 0.69137 0.42613 0.62328 0.0
O614 O 0.66758 0.34979 0.65518 0.0
C615 C 0.63211 0.39842 0.57877 0.0
O616 O 0.65699 0.58445 0.60149 0.0
O617 O 0.68915 0.57628 0.64306 0.0
O618 O 0.65861 0.48416 0.68425 0.0
O619 O 0.60796 0.43522 0.69124 0.0
O620 O 0.57359 0.42932 0.63352 0.0
O621 O 0.59794 0.52521 0.64419 0.0
C622 C 0.6928 0.3714 0.63785 0.0
O623 O 0.60777 0.298 0.68578 0.0
O624 O 0.57873 0.2952 0.64221 0.0
C625 C 0.67076 0.67838 0.62828 0.0
C626 C 0.65191 0.80489 0.64013 0.0
C627 C 0.67806 0.79027 0.61839 0.0
C628 C 0.68733 0.72759 0.61249 0.0
C629 C 0.64514 0.69259 0.65053 0.0
C630 C 0.63588 0.75532 0.6565 0.0
C631 C 0.67892 0.61258 0.61992 0.0
H632 H 0.57515 0.05404 0.69349 0.0
H633 H 0.56013 0.16574 0.69924 0.0
H634 H 0.63451 0.21395 0.6279 0.0
H635 H 0.64944 0.10218 0.62174 0.0
H636 H 0.69081 0.82729 0.60533 0.0
H637 H 0.70704 0.71747 0.59512 0.0
H638 H 0.63203 0.65513 0.66295 0.0
H639 H 0.61616 0.765 0.67389 0.0
C640 C 0.21874 0.30859 0.12455 0.0
C641 C 0.21731 0.24654 0.13655 0.0
C642 C 0.24864 0.34425 0.12583 0.0
C643 C 0.2784 0.31968 0.13938 0.0
H644 H 0.1964 0.33044 0.11433 0.0
H645 H 0.24814 0.3919 0.11667 0.0
S646 S 0.2889 0.15836 0.17261 0.0
N647 N 0.24884 0.1612 0.16118 0.0
N648 N 0.30505 0.22779 0.16374 0.0
C649 C 0.27763 0.25702 0.15076 0.0
C650 C 0.24715 0.22057 0.14925 0.0
C651 C 0.76087 0.80965 0.1676 0.0
C652 C 0.7734 0.83674 0.13938 0.0
C653 C 0.73325 0.7683 0.16708 0.0
C654 C 0.71757 0.75086 0.13825 0.0
H655 H 0.77233 0.82096 0.19042 0.0
H656 H 0.72398 0.74995 0.18956 0.0
S657 S 0.74115 0.80698 0.05753 0.0
N658 N 0.76829 0.84267 0.08163 0.0
N659 N 0.71657 0.76354 0.08062 0.0
C660 C 0.7301 0.77661 0.10971 0.0
C661 C 0.75791 0.82005 0.1103 0.0
C662 C 0.24816 0.72587 0.38667 0.0
C663 C 0.28011 0.75419 0.38972 0.0
C664 C 0.21859 0.76266 0.38633 0.0
C665 C 0.21994 0.82874 0.38985 0.0
H666 H 0.24611 0.67543 0.38303 0.0
H667 H 0.19448 0.73923 0.38274 0.0
S668 S 0.29735 0.9245 0.40195 0.0
N669 N 0.31147 0.85144 0.39842 0.0
N670 N 0.25562 0.92027 0.39871 0.0
C671 C 0.25159 0.85715 0.39475 0.0
C672 C 0.28177 0.81989 0.39439 0.0
C673 C 0.75241 0.23993 0.37842 0.0
C674 C 0.78385 0.26911 0.38356 0.0
C675 C 0.72248 0.27557 0.37723 0.0
C676 C 0.7228 0.34143 0.3819 0.0
H677 H 0.75106 0.18962 0.3741 0.0
H678 H 0.6989 0.2512 0.37248 0.0
S679 S 0.79855 0.43941 0.39856 0.0
N680 N 0.81363 0.36708 0.39471 0.0
N681 N 0.7571 0.43379 0.39338 0.0
C682 C 0.75395 0.37078 0.38832 0.0
C683 C 0.78455 0.33467 0.38887 0.0
C684 C 0.71358 0.82539 0.88586 0.0
C685 C 0.71609 0.75952 0.88968 0.0
C686 C 0.74245 0.86402 0.88643 0.0
C687 C 0.77494 0.83785 0.88993 0.0
H688 H 0.68908 0.8473 0.88203 0.0
H689 H 0.73943 0.91424 0.8828 0.0
S690 S 0.79533 0.66885 0.90228 0.0
N691 N 0.75358 0.6705 0.89878 0.0
N692 N 0.80805 0.74263 0.89878 0.0
C693 C 0.7778 0.77232 0.89451 0.0
C694 C 0.74831 0.73324 0.89471 0.0
C695 C 0.27609 0.27034 0.87124 0.0
C696 C 0.27692 0.32915 0.88723 0.0
C697 C 0.24736 0.23132 0.87225 0.0
C698 C 0.21813 0.24961 0.88913 0.0
H699 H 0.29772 0.25424 0.85742 0.0
H700 H 0.24771 0.1875 0.85889 0.0
S701 S 0.20796 0.3957 0.93768 0.0
N702 N 0.2464 0.40139 0.92225 0.0
N703 N 0.19263 0.32822 0.92437 0.0
C704 C 0.21899 0.30713 0.90622 0.0
C705 C 0.24827 0.3468 0.90523 0.0
C706 C 0.7202 0.26512 0.63564 0.0
C707 C 0.72345 0.33132 0.63481 0.0
C708 C 0.74875 0.2255 0.63424 0.0
C709 C 0.78157 0.25084 0.63275 0.0
H710 H 0.69537 0.24367 0.63759 0.0
H711 H 0.74519 0.17498 0.63566 0.0
S712 S 0.80399 0.42047 0.62854 0.0
N713 N 0.76212 0.41999 0.63081 0.0
N714 N 0.81585 0.3458 0.62907 0.0
C715 C 0.78517 0.31679 0.63117 0.0
C716 C 0.7561 0.357 0.63194 0.0
C717 C 0.25107 0.84313 0.62082 0.0
C718 C 0.22075 0.82207 0.63493 0.0
C719 C 0.28002 0.8044 0.61987 0.0
C720 C 0.27927 0.74281 0.6321 0.0
H721 H 0.25281 0.89041 0.61134 0.0
H722 H 0.30331 0.823 0.60989 0.0
S723 S 0.2065 0.66411 0.67074 0.0
N724 N 0.19198 0.73454 0.66111 0.0
N725 N 0.24625 0.662 0.65826 0.0
C726 C 0.24908 0.72039 0.64534 0.0
C727 C 0.21983 0.76 0.64701 0.0
C728 C 0.11129 0.97911 0.26462 0.0
C729 C 0.12731 1.00514 0.29156 0.0
C730 C 0.10969 1.01213 0.23566 0.0
C731 C 0.12347 0.0732 0.23248 0.0
H732 H 0.10032 0.9324 0.2657 0.0
H733 H 0.09752 0.98931 0.21552 0.0
S734 S 0.16661 0.16434 0.29631 0.0
N735 N 0.15644 0.09702 0.31339 0.0
N736 N 0.15277 0.15901 0.2592 0.0
C737 C 0.13878 0.10053 0.25943 0.0
C738 C 0.14092 0.06653 0.28883 0.0
C739 C 0.90048 0.0787 0.27096 0.0
C740 C 0.87069 0.10444 0.28447 0.0
C741 C 0.89904 1.03683 0.24465 0.0
C742 C 0.86778 1.01961 0.23077 0.0
H743 H 0.92501 0.08978 0.2812 0.0
H744 H 0.92258 1.01875 0.2348 0.0
S745 S 0.78248 0.07446 0.25704 0.0
N746 N 0.8091 0.10991 0.28159 0.0
N747 N 0.80638 1.03186 0.23279 0.0
C748 C 0.83793 0.04544 0.24405 0.0
C749 C 0.83939 0.08761 0.27068 0.0
C750 C 0.89769 0.06203 0.74771 0.0
C751 C 0.86772 0.0852 0.73359 0.0
C752 C 0.89658 1.02555 0.77583 0.0
C753 C 0.86548 1.01153 0.79094 0.0
H754 H 0.92203 0.07052 0.73646 0.0
H755 H 0.92022 1.00897 0.786 0.0
S756 S 0.77993 0.06246 0.76375 0.0
N757 N 0.80627 0.09239 0.73722 0.0
N758 N 0.80408 1.02444 0.78945 0.0
C759 C 0.83548 1.03519 0.7771 0.0
C760 C 0.83664 0.07183 0.74865 0.0
C761 C 0.1382 0.09565 0.76564 0.0
C762 C 0.12112 0.06921 0.79177 0.0
C763 C 0.14065 0.06313 0.73637 0.0
C764 C 0.12577 1.00312 0.73185 0.0
H765 H 0.15079 0.14074 0.76811 0.0
H766 H 0.15453 0.08536 0.71715 0.0
S767 S 0.07568 0.91572 0.79219 0.0
N768 N 0.08724 0.98103 0.81071 0.0
N769 N 0.09173 0.92052 0.75585 0.0
C770 C 0.1075 0.97734 0.75747 0.0
C771 C 0.10524 1.01017 0.78733 0.0
C772 C 0.62122 0.47968 0.26025 0.0
C773 C 0.62052 0.51241 0.28946 0.0
C774 C 0.62126 0.51236 0.23105 0.0
C775 C 0.61959 0.57881 0.23002 0.0
H776 H 0.62305 0.42874 0.25996 0.0
H777 H 0.62276 0.48535 0.20908 0.0
S778 S 0.61491 0.6859 0.29994 0.0
N779 N 0.6169 0.6147 0.31559 0.0
N780 N 0.61569 0.6756 0.26085 0.0
C781 C 0.61745 0.61174 0.25906 0.0
C782 C 0.61829 0.57866 0.28873 0.0
C783 C 0.39972 0.5582 0.27466 0.0
C784 C 0.3692 0.57531 0.29012 0.0
C785 C 0.39979 0.51735 0.24791 0.0
C786 C 0.36931 0.49267 0.23547 0.0
H787 H 0.42376 0.57562 0.28358 0.0
H788 H 0.42376 0.50635 0.23645 0.0
S789 S 0.28262 0.52259 0.26711 0.0
N790 N 0.30774 0.56382 0.29075 0.0
N791 N 0.30794 0.48795 0.24097 0.0
C792 C 0.33876 0.5094 0.25078 0.0
C793 C 0.33868 0.55041 0.27793 0.0
C794 C 0.39666 0.5201 0.77446 0.0
C795 C 0.3658 0.49862 0.78756 0.0
C796 C 0.3972 0.55763 0.74668 0.0
C797 C 0.36693 0.57437 0.73088 0.0
H798 H 0.42046 0.50913 0.78615 0.0
H799 H 0.42148 0.57249 0.73719 0.0
S800 S 0.27956 0.52986 0.75547 0.0
N801 N 0.30435 0.49691 0.78241 0.0
N802 N 0.30531 0.56665 0.73073 0.0
C803 C 0.33603 0.55294 0.74381 0.0
C804 C 0.33549 0.51531 0.77196 0.0
C805 C 0.65857 0.55919 0.77742 0.0
C806 C 0.62791 0.58391 0.7895 0.0
C807 C 0.65942 0.52179 0.74976 0.0
C808 C 0.62956 0.50608 0.73315 0.0
H809 H 0.68236 0.56892 0.78943 0.0
H810 H 0.68383 0.5049 0.74131 0.0
S811 S 0.54245 0.55869 0.75439 0.0
N812 N 0.5667 0.59017 0.78241 0.0
N813 N 0.56829 0.51914 0.73045 0.0
C814 C 0.59858 0.53014 0.74489 0.0
C815 C 0.59777 0.56933 0.77295 0.0
C816 C 0.12229 0.24983 0.99535 0.0
C817 C 0.11025 0.19747 0.97807 0.0
C818 C 0.1215 0.25037 0.029 0.0
C819 C 0.10872 0.1985 0.04597 0.0
H820 H 0.13434 0.28849 0.98293 0.0
H821 H 0.13296 0.28943 0.04175 0.0
S822 S 0.07233 0.05249 0.01152 0.0
N823 N 0.0835 0.09469 0.9802 0.0
N824 N 0.08213 0.0956 0.04313 0.0
C825 C 0.09499 0.14774 0.02881 0.0
C826 C 0.09573 0.14725 0.99485 0.0
C827 C 0.83574 0.90449 0.99535 0.0
C828 C 0.86285 0.87852 0.97783 0.0
C829 C 0.83555 0.90349 0.02868 0.0
C830 C 0.86244 0.87641 0.04586 0.0
H831 H 0.81554 0.92953 0.98321 0.0
H832 H 0.81525 0.92787 0.04116 0.0
S833 S 0.93746 0.79548 1.0113 0.0
N834 N 0.91568 0.81946 0.97986 0.0
N835 N 0.91533 0.81755 0.04304 0.0
C836 C 0.8883 0.8454 0.02874 0.0
C837 C 0.8885 0.84644 0.9945 0.0
C838 C 0.13723 0.8335 0.49412 0.0
C839 C 0.11384 0.87064 0.47706 0.0
C840 C 0.13771 0.8344 0.52784 0.0
C841 C 0.11479 0.87247 0.54517 0.0
H842 H 0.15689 0.8078 0.48144 0.0
H843 H 0.15771 0.80937 0.54022 0.0
S844 S 0.0449 0.96876 0.51161 0.0
N845 N 0.06449 0.93916 0.48004 0.0
N846 N 0.06538 0.94087 0.54291 0.0
C847 C 0.0895 0.90495 0.52829 0.0
C848 C 0.08902 0.90403 0.49432 0.0
C849 C 0.86234 0.137 0.52388 0.0
C850 C 0.87517 0.18641 0.54281 0.0
C851 C 0.86299 0.13943 0.49069 0.0
C852 C 0.87647 0.19148 0.47439 0.0
H853 H 0.85199 0.09495 0.53475 0.0
H854 H 0.85306 0.0992 0.47772 0.0
S855 S 0.91051 0.3365 0.51243 0.0
N856 N 0.89969 0.29146 0.5429 0.0
N857 N 0.90087 0.29629 0.47977 0.0
C858 C 0.88786 0.24309 0.4928 0.0
C859 C 0.8872 0.24052 0.52714 0.0
C860 C 0.63366 0.75126 0.02674 0.0
C861 C 0.60992 0.71569 0.04419 0.0
C862 C 0.63345 0.75062 0.99299 0.0
C863 C 0.60948 0.71446 0.976 0.0
H864 H 0.65403 0.7754 0.03907 0.0
H865 H 0.6537 0.77424 0.98029 0.0
S866 S 0.53856 0.62285 1.01071 0.0
N867 N 0.55924 0.65082 0.04197 0.0
N868 N 0.55895 0.64952 0.97909 0.0
C869 C 0.58396 0.68364 0.99332 0.0
C870 C 0.58415 0.68431 0.02731 0.0
C871 C 0.39536 0.44602 0.99579 0.0
C872 C 0.38074 0.39747 0.97743 0.0
C873 C 0.3952 0.44446 0.02911 0.0
C874 C 0.38048 0.3942 0.04591 0.0
H875 H 0.40618 0.48704 0.98434 0.0
H876 H 0.40592 0.48432 0.04183 0.0
S877 S 0.34166 0.25189 1.00945 0.0
N878 N 0.35333 0.29492 0.97854 0.0
N879 N 0.35314 0.29185 0.04165 0.0
C880 C 0.36763 0.34315 0.02803 0.0
C881 C 0.36774 0.3448 0.99371 0.0
C882 C 0.65852 0.41381 0.49288 0.0
C883 C 0.63406 0.37862 0.47622 0.0
C884 C 0.65907 0.41552 0.5262 0.0
C885 C 0.6351 0.38227 0.54441 0.0
H886 H 0.67629 0.44324 0.47998 0.0
H887 H 0.67742 0.44594 0.53781 0.0
S888 S 0.56793 0.27753 0.5124 0.0
N889 N 0.58702 0.3052 0.48021 0.0
N890 N 0.58806 0.30833 0.54339 0.0
C891 C 0.6121 0.34283 0.52821 0.0
C892 C 0.61155 0.34108 0.49392 0.0
C893 C 0.34338 0.68558 0.5271 0.0
C894 C 0.37082 0.71008 0.54453 0.0
C895 C 0.34307 0.68697 0.49377 0.0
C896 C 0.37021 0.71288 0.47647 0.0
H897 H 0.32295 0.66135 0.5393 0.0
H898 H 0.32237 0.66385 0.48135 0.0
S899 S 0.44634 0.78961 0.51086 0.0
N900 N 0.42441 0.76634 0.54236 0.0
N901 N 0.42382 0.76906 0.47918 0.0
C902 C 0.39652 0.74238 0.49354 0.0
C903 C 0.39684 0.74092 0.52779 0.0
C904 C 0.98909 0.98793 0.12746 0.0
C905 C 0.95985 1.02176 0.13676 0.0
C906 C 0.02132 1.01579 0.12803 0.0
C907 C 0.0257 0.07846 0.13822 0.0
H908 H 0.9872 0.93925 0.11979 0.0
H909 H 0.04302 0.98745 0.12103 0.0
S910 S 0.95729 0.18884 0.16364 0.0
N911 N 0.9374 0.12238 0.15549 0.0
N912 N -0.00218 0.17464 0.15654 0.0
C913 C 0.99663 0.11331 0.14704 0.0
C914 C 0.96378 0.08505 0.14628 0.0
C915 C -0.00163 0.10449 0.37743 0.0
C916 C 0.9677 0.07054 0.37828 0.0
C917 C 0.02977 0.07381 0.37845 0.0
C918 C 0.03189 1.00782 0.38052 0.0
H919 H -0.00172 0.15541 0.37578 0.0
H920 H 0.05252 0.10237 0.37767 0.0
S921 S 0.95897 0.8969 0.38421 0.0
N922 N 0.94132 0.96729 0.38179 0.0
N923 N 0.00032 0.90924 0.3837 0.0
C924 C 0.00138 0.97311 0.3815 0.0
C925 C 0.96932 1.00452 0.38034 0.0
C926 C 0.00071 0.10757 0.8781 0.0
C927 C 0.02936 0.07216 0.88715 0.0
C928 C 0.96807 0.08147 0.87868 0.0
C929 C 0.96275 1.01868 0.88807 0.0
H930 H 0.00344 0.15603 0.87052 0.0
H931 H 0.94694 0.11067 0.87125 0.0
S932 S 0.02953 0.90562 0.91392 0.0
N933 N 0.05037 0.97093 0.90577 0.0
N934 N 0.98921 0.92176 0.90698 0.0
C935 C 0.99124 0.98279 0.89741 0.0
C936 C 0.02446 1.00954 0.89694 0.0
C937 C 0.9726 0.99765 0.64091 0.0
C938 C 0.96783 0.06328 0.64116 0.0
C939 C 0.00529 0.97129 0.64077 0.0
C940 C 0.03458 1.00946 0.64104 0.0
H941 H 0.95095 0.96624 0.64045 0.0
H942 H 0.00747 0.92041 0.64036 0.0
S943 S 0.03611 0.18449 0.64308 0.0
N944 N 0.99544 0.16614 0.6427 0.0
N945 N 0.05651 0.1166 0.64229 0.0
C946 C 0.03017 0.07524 0.64171 0.0
C947 C 0.99694 0.1021 0.64181 0.0
C948 C 0.4927 0.48408 0.14128 0.0
C949 C 0.46223 0.51902 0.14194 0.0
C950 C 0.52438 0.51371 0.14053 0.0
C951 C 0.52715 0.57974 0.14035 0.0
H952 H 0.4923 0.43305 0.14142 0.0
H953 H 0.54686 0.48422 0.14008 0.0
S954 S 0.45513 0.69354 0.14152 0.0
N955 N 0.43687 0.62364 0.14213 0.0
N956 N 0.49636 0.6796 0.14076 0.0
C957 C 0.49688 0.61554 0.14098 0.0
C958 C 0.46451 0.58518 0.14178 0.0
C959 C 0.49623 0.60592 0.38524 0.0
C960 C 0.46642 0.5694 0.38558 0.0
C961 C 0.52834 0.57776 0.38534 0.0
C962 C 0.53202 0.5119 0.38599 0.0
H963 H 0.49492 0.65688 0.3845 0.0
H964 H 0.55041 0.60812 0.38481 0.0
S965 S 0.46182 0.39474 0.38794 0.0
N966 N 0.44254 0.46378 0.38724 0.0
N967 N 0.50282 0.41058 0.38744 0.0
C968 C 0.50237 0.47465 0.38673 0.0
C969 C 0.46962 0.50344 0.3865 0.0
C970 C 0.4915 0.48643 0.88329 0.0
C971 C 0.46209 0.52293 0.87798 0.0
C972 C 0.52391 0.51345 0.88314 0.0
C973 C 0.52834 0.57823 0.87784 0.0
H974 H 0.48964 0.43637 0.88786 0.0
H975 H 0.5456 0.48333 0.88771 0.0
S976 S 0.46003 0.69445 0.86075 0.0
N977 N 0.43986 0.62721 0.8659 0.0
N978 N 0.50064 0.67803 0.86567 0.0
C979 C 0.49926 0.61528 0.87196 0.0
C980 C 0.46622 0.58767 0.87201 0.0
C981 C 0.47513 0.50644 0.63393 0.0
C982 C 0.46973 0.57133 0.63838 0.0
C983 C 0.50796 0.48105 0.6336 0.0
C984 C 0.53681 0.51939 0.63796 0.0
H985 H 0.45385 0.47489 0.63036 0.0
H986 H 0.51059 0.43071 0.62999 0.0
S987 S 0.53642 0.69241 0.65196 0.0
N988 N 0.49599 0.67354 0.64816 0.0
N989 N 0.55759 0.62578 0.6476 0.0
C990 C 0.53175 0.58442 0.64276 0.0
C991 C 0.49828 0.61036 0.64296 0.0
C992 C 0.10315 0.70145 0.13648 0.0
C993 C 0.13701 0.72261 0.13584 0.0
C994 C 0.0953 0.63807 0.14235 0.0
C995 C 0.12099 0.59317 0.14777 0.0
H996 H 0.0825 0.73405 0.13206 0.0
H997 H 0.06888 0.62396 0.14234 0.0
S998 S 0.2136 0.6249 0.15095 0.0
N999 N 0.19639 0.69395 0.14271 0.0
N1000 N 0.18164 0.57491 0.15357 0.0
C1001 C 0.15495 0.61371 0.14745 0.0
C1002 C 0.16295 0.67831 0.14154 0.0
C1003 C 0.85751 0.40693 0.12041 0.0
C1004 C 0.85137 0.3659 0.14613 0.0
C1005 C 0.86614 0.4704 0.12549 0.0
C1006 C 0.86909 0.49567 0.15651 0.0
H1007 H 0.85606 0.38965 0.09608 0.0
H1008 H 0.87103 0.49974 0.1049 0.0
S1009 S 0.85311 0.4097 0.23202 0.0
N1010 N 0.84719 0.35622 0.2038 0.0
N1011 N 0.86349 0.47527 0.21333 0.0
C1012 C 0.86267 0.4554 0.18245 0.0
C1013 C 0.85382 0.39071 0.17728 0.0
C1014 C 0.16064 0.39764 0.3761 0.0
C1015 C 0.1351 0.35296 0.38231 0.0
C1016 C 0.15263 0.46111 0.3704 0.0
C1017 C 0.11876 0.48245 0.37062 0.0
H1018 H 0.18705 0.38334 0.37539 0.0
H1019 H 0.17312 0.49365 0.36548 0.0
S1020 S 0.04262 0.38566 0.38799 0.0
N1021 N 0.07462 0.33542 0.38992 0.0
N1022 N 0.05962 0.45442 0.37905 0.0
C1023 C 0.093 0.43843 0.37704 0.0
C1024 C 0.10114 0.37385 0.38291 0.0
C1025 C 0.87987 0.64057 0.34885 0.0
C1026 C 0.89106 0.60584 0.37541 0.0
C1027 C 0.87018 0.70398 0.35185 0.0
C1028 C 0.87121 0.73525 0.38155 0.0
H1029 H 0.87814 0.61832 0.32558 0.0
H1030 H 0.86138 0.72853 0.3308 0.0
S1031 S 0.90097 0.66718 0.458 0.0
N1032 N 0.90424 0.60854 0.4321 0.0
N1033 N 0.88586 0.72762 0.43773 0.0
C1034 C 0.88266 0.70136 0.40824 0.0
C1035 C 0.89261 0.63676 0.40518 0.0
C1036 C 0.84696 0.4101 0.85718 0.0
C1037 C 0.85843 0.37732 0.88425 0.0
C1038 C 0.85587 0.47338 0.85212 0.0
C1039 C 0.87668 0.50621 0.87388 0.0
H1040 H 0.83047 0.387 0.8401 0.0
H1041 H 0.8459 0.49712 0.83129 0.0
S1042 S 0.91633 0.43952 0.94665 0.0
N1043 N 0.89357 0.38101 0.93187 0.0
N1044 N 0.91049 0.49949 0.92227 0.0
C1045 C 0.88899 0.47338 0.9006 0.0
C1046 C 0.87985 0.40912 0.90579 0.0
C1047 C 0.12468 0.62573 0.8552 0.0
C1048 C 0.11738 0.58426 0.88047 0.0
C1049 C 0.13273 0.68927 0.86091 0.0
C1050 C 0.13397 0.71399 0.89213 0.0
H1051 H 0.12468 0.60874 0.83077 0.0
H1052 H 0.13859 0.71906 0.84071 0.0
S1053 S 0.11409 0.62705 0.96646 0.0
N1054 N 0.1099 0.57387 0.93783 0.0
N1055 N 0.12532 0.69293 0.94851 0.0
C1056 C 0.12625 0.6734 0.91758 0.0
C1057 C 0.11792 0.60873 0.91177 0.0
C1058 C 0.88485 0.68116 0.62216 0.0
C1059 C 0.85466 0.70595 0.63515 0.0
C1060 C 0.89387 0.61788 0.62665 0.0
C1061 C 0.87305 0.57704 0.64431 0.0
H1062 H 0.90193 0.71122 0.60887 0.0
H1063 H 0.91763 0.60104 0.61668 0.0
S1064 S 0.78967 0.617 0.68047 0.0
N1065 N 0.80282 0.68371 0.66453 0.0
N1066 N 0.81982 0.56472 0.67303 0.0
C1067 C 0.84244 0.60085 0.65685 0.0
C1068 C 0.83324 0.66529 0.65226 0.0
C1069 C 0.11543 0.38097 0.6435 0.0
C1070 C 0.1491 0.36241 0.63695 0.0
C1071 C 0.10693 0.44447 0.6487 0.0
C1072 C 0.13168 0.49213 0.64741 0.0
H1073 H 0.09532 0.34624 0.64411 0.0
H1074 H 0.08061 0.45647 0.65327 0.0
S1075 S 0.22397 0.46838 0.6338 0.0
N1076 N 0.20771 0.39682 0.63144 0.0
N1077 N 0.19158 0.51608 0.64074 0.0
C1078 C 0.1655 0.47427 0.6413 0.0
C1079 C 0.17423 0.40953 0.63619 0.0
C1080 C 0.63018 0.14401 0.1698 0.0
C1081 C 0.62447 0.10086 0.14475 0.0
C1082 C 0.6378 0.20744 0.16367 0.0
C1083 C 0.64001 0.23026 0.13223 0.0
H1084 H 0.62898 0.12853 0.19439 0.0
H1085 H 0.64222 0.2388 0.18372 0.0
S1086 S 0.62473 0.13774 0.05822 0.0
N1087 N 0.61997 0.08624 0.08731 0.0
N1088 N 0.63424 0.20523 0.07579 0.0
C1089 C 0.63411 0.18772 0.10696 0.0
C1090 C 0.62636 0.12316 0.11321 0.0
C1091 C 0.38978 0.87438 0.13893 0.0
C1092 C 0.35545 0.85592 0.13872 0.0
C1093 C 0.39909 0.93785 0.1426 0.0
C1094 C 0.37448 0.98562 0.14619 0.0
H1095 H 0.40967 0.83949 0.13599 0.0
H1096 H 0.42584 0.94968 0.14237 0.0
S1097 S 0.28115 0.96199 0.14936 0.0
N1098 N 0.29677 0.8905 0.1438 0.0
N1099 N 0.31426 1.00955 0.15058 0.0
C1100 C 0.34006 0.96781 0.14616 0.0
C1101 C 0.33056 0.90314 0.14246 0.0
C1102 C 0.63523 0.97281 0.39838 0.0
C1103 C 0.62354 0.99312 0.36837 0.0
C1104 C 0.64372 0.90955 0.40377 0.0
C1105 C 0.64069 0.8641 0.3794 0.0
H1106 H 0.63725 1.00587 0.41807 0.0
H1107 H 0.65205 0.89584 0.42739 0.0
S1108 S 0.61438 0.8935 0.29579 0.0
N1109 N 0.61164 0.96317 0.31336 0.0
N1110 N 0.62719 0.84416 0.32369 0.0
C1111 C 0.62967 0.88383 0.34915 0.0
C1112 C 0.62119 0.94831 0.34358 0.0
C1113 C 0.37078 0.13093 0.34585 0.0
C1114 C 0.38586 0.09479 0.37019 0.0
C1115 C 0.36203 0.19449 0.35084 0.0
C1116 C 0.3679 0.2243 0.3804 0.0
H1117 H 0.36506 0.10956 0.32294 0.0
H1118 H 0.3499 0.2201 0.33165 0.0
S1119 S 0.41012 0.15301 0.45069 0.0
N1120 N 0.40871 0.09538 0.4241 0.0
N1121 N 0.39199 0.21432 0.43351 0.0
C1122 C 0.38375 0.18927 0.40462 0.0
C1123 C 0.39277 0.12473 0.39952 0.0
C1124 C 0.35433 0.91363 0.90589 0.0
C1125 C 0.35326 0.87127 0.87991 0.0
C1126 C 0.36334 0.97708 0.9017 0.0
C1127 C 0.37172 1.00076 0.87137 0.0
H1128 H 0.3487 0.89739 0.9298 0.0
H1129 H 0.3643 1.0076 0.92249 0.0
S1130 S 0.36982 0.91108 0.7951 0.0
N1131 N 0.35929 0.8588 0.82244 0.0
N1132 N 0.37636 0.97773 0.81463 0.0
C1133 C 0.37018 0.95925 0.84511 0.0
C1134 C 0.36094 0.89468 0.84935 0.0
C1135 C 0.63561 0.19667 0.85627 0.0
C1136 C 0.63686 0.22158 0.88745 0.0
C1137 C 0.62742 0.13317 0.85069 0.0
C1138 C 0.62008 0.09206 0.87607 0.0
H1139 H 0.64139 0.22634 0.83601 0.0
H1140 H 0.6272 0.11597 0.8263 0.0
S1141 S 0.61701 0.13531 0.96201 0.0
N1142 N 0.62827 0.201 0.94391 0.0
N1143 N 0.61274 0.08198 0.93347 0.0
C1144 C 0.62078 0.11664 0.90734 0.0
C1145 C 0.62919 0.18123 0.91301 0.0
C1146 C 0.37334 0.12159 0.67375 0.0
C1147 C 0.37658 0.07817 0.6484 0.0
C1148 C 0.3651 0.185 0.66815 0.0
C1149 C 0.35974 0.20742 0.63698 0.0
H1150 H 0.37684 0.10627 0.69817 0.0
H1151 H 0.36255 0.2166 0.6884 0.0
S1152 S 0.36821 0.1143 0.56216 0.0
N1153 N 0.37577 0.06304 0.59084 0.0
N1154 N 0.36026 0.18197 0.58033 0.0
C1155 C 0.36339 0.16471 0.6114 0.0
C1156 C 0.37179 0.10022 0.6171 0.0
C1157 C 0.66588 0.91897 0.6497 0.0
C1158 C 0.64127 0.8717 0.64523 0.0
C1159 C 0.6566 0.98248 0.65354 0.0
C1160 C 0.62232 1.00135 0.65314 0.0
H1161 H 0.69259 0.90676 0.6504 0.0
H1162 H 0.67646 1.01706 0.65711 0.0
S1163 S 0.5481 0.89681 0.64012 0.0
N1164 N 0.58112 0.84876 0.63923 0.0
N1165 N 0.56372 0.96788 0.64662 0.0
C1166 C 0.59743 0.95466 0.64857 0.0
C1167 C 0.60688 0.88998 0.64459 0.0
loop_
_geom_bond_atom_site_label_1
_geom_bond_atom_site_label_2
_geom_bond_distance
_geom_bond_site_symmetry_2
_ccdc_geom_bond_type
Tb0 C10 2.825 1_545 S
Tb0 O11 2.347 . S
Tb0 O14 2.366 . S
Tb0 O19 2.418 . S
Tb0 O20 2.384 . S
Tb0 O23 2.479 1_545 S
Tb0 O24 2.471 1_545 S
Eu1 O12 2.418 . S
Eu1 O13 2.384 . S
Eu1 O16 2.479 . S
Eu1 O17 2.471 . S
Eu1 O18 2.347 . S
Eu1 O21 2.366 . S
Eu1 C31 2.825 . S
C2 O18 1.259 . S
C2 O19 1.265 . S
C3 O20 1.255 . S
C3 O21 1.265 . S
C4 C6 1.380 . S
C4 C7 1.374 . S
C4 C10 1.507 . S
C5 C6 1.384 . S
C5 C9 1.387 . S
C5 H32 0.930 . S
C6 C4 1.380 . S
C6 C5 1.384 . S
C6 H33 0.931 . S
C7 C4 1.374 . S
C7 C8 1.390 . S
C7 H34 0.930 . S
C8 C7 1.390 . S
C8 C9 1.391 . S
C8 H35 0.930 . S
C9 C5 1.387 . S
C9 C8 1.391 . S
C10 Tb0 2.825 1_565 S
C10 C4 1.507 . S
C10 O23 1.238 . S
C10 O24 1.247 . S
O11 Tb0 2.347 . S
O11 C15 1.259 . S
O12 Eu1 2.418 . S
O12 C15 1.265 . S
O13 Eu1 2.384 . S
O13 C22 1.255 . S
O14 Tb0 2.366 . S
O14 C22 1.265 . S
C15 O11 1.259 . S
C15 O12 1.265 . S
O16 Eu1 2.479 . S
O16 C31 1.238 . S
O17 Eu1 2.471 . S
O17 C31 1.247 . S
O18 Eu1 2.347 . S
O18 C2 1.259 . S
O19 Tb0 2.418 . S
O19 C2 1.265 . S
O20 Tb0 2.384 . S
O20 C3 1.255 . S
O21 Eu1 2.366 . S
O21 C3 1.265 . S
C22 O13 1.255 . S
C22 O14 1.265 . S
O23 Tb0 2.479 1_565 S
O23 C10 1.238 . S
O24 Tb0 2.471 1_565 S
O24 C10 1.247 . S
C25 C28 1.380 . S
C25 C29 1.374 . S
C25 C31 1.507 . S
C26 C27 1.387 . S
C26 C30 1.391 . S
C27 C26 1.387 . S
C27 C28 1.384 . S
C27 H36 0.930 . S
C28 C25 1.380 . S
C28 C27 1.384 . S
C28 H37 0.931 . S
C29 C25 1.374 . S
C29 C30 1.390 . S
C29 H38 0.930 . S
C30 C26 1.391 . S
C30 C29 1.390 . S
C30 H39 0.930 . S
C31 Eu1 2.825 . S
C31 O16 1.238 . S
C31 O17 1.247 . S
C31 C25 1.507 . S
H32 C5 0.930 . S
H33 C6 0.931 . S
H34 C7 0.930 . S
H35 C8 0.930 . S
H36 C27 0.930 . S
H37 C28 0.931 . S
H38 C29 0.930 . S
H39 C30 0.930 . S
Tb40 C50 2.825 1_565 S
Tb40 O51 2.347 . S
Tb40 O54 2.366 . S
Tb40 O59 2.418 . S
Tb40 O60 2.384 . S
Tb40 O63 2.479 1_565 S
Tb40 O64 2.471 1_565 S
Eu41 O52 2.418 . S
Eu41 O53 2.384 . S
Eu41 O56 2.479 . S
Eu41 O57 2.471 . S
Eu41 O58 2.347 . S
Eu41 O61 2.366 . S
Eu41 C71 2.825 . S
C42 O58 1.259 . S
C42 O59 1.265 . S
C43 O60 1.255 . S
C43 O61 1.265 . S
C44 C46 1.380 . S
C44 C47 1.374 . S
C44 C50 1.507 . S
C45 C46 1.384 . S
C45 C49 1.387 . S
C45 H72 0.930 . S
C46 C44 1.380 . S
C46 C45 1.384 . S
C46 H73 0.931 . S
C47 C44 1.374 . S
C47 C48 1.390 . S
C47 H74 0.930 . S
C48 C47 1.390 . S
C48 C49 1.391 . S
C48 H75 0.930 . S
C49 C45 1.387 . S
C49 C48 1.391 . S
C50 Tb40 2.825 1_545 S
C50 C44 1.507 . S
C50 O63 1.238 . S
C50 O64 1.247 . S
O51 Tb40 2.347 . S
O51 C55 1.259 . S
O52 Eu41 2.418 . S
O52 C55 1.265 . S
O53 Eu41 2.384 . S
O53 C62 1.255 . S
O54 Tb40 2.366 . S
O54 C62 1.265 . S
C55 O51 1.259 . S
C55 O52 1.265 . S
O56 Eu41 2.479 . S
O56 C71 1.238 . S
O57 Eu41 2.471 . S
O57 C71 1.247 . S
O58 Eu41 2.347 . S
O58 C42 1.259 . S
O59 Tb40 2.418 . S
O59 C42 1.265 . S
O60 Tb40 2.384 . S
O60 C43 1.255 . S
O61 Eu41 2.366 . S
O61 C43 1.265 . S
C62 O53 1.255 . S
C62 O54 1.265 . S
O63 Tb40 2.479 1_545 S
O63 C50 1.238 . S
O64 Tb40 2.471 1_545 S
O64 C50 1.247 . S
C65 C68 1.380 . S
C65 C69 1.374 . S
C65 C71 1.507 . S
C66 C67 1.387 . S
C66 C70 1.391 . S
C67 C66 1.387 . S
C67 C68 1.384 . S
C67 H76 0.930 . S
C68 C65 1.380 . S
C68 C67 1.384 . S
C68 H77 0.931 . S
C69 C65 1.374 . S
C69 C70 1.390 . S
C69 H78 0.930 . S
C70 C66 1.391 . S
C70 C69 1.390 . S
C70 H79 0.930 . S
C71 Eu41 2.825 . S
C71 O56 1.238 . S
C71 O57 1.247 . S
C71 C65 1.507 . S
H72 C45 0.930 . S
H73 C46 0.931 . S
H74 C47 0.930 . S
H75 C48 0.930 . S
H76 C67 0.930 . S
H77 C68 0.931 . S
H78 C69 0.930 . S
H79 C70 0.930 . S
Tb80 C90 2.825 1_565 S
Tb80 O91 2.347 . S
Tb80 O94 2.366 . S
Tb80 O99 2.418 . S
Tb80 O100 2.384 . S
Tb80 O103 2.479 1_565 S
Tb80 O104 2.471 1_565 S
Eu81 O92 2.418 . S
Eu81 O93 2.384 . S
Eu81 O96 2.479 . S
Eu81 O97 2.471 . S
Eu81 O98 2.347 . S
Eu81 O101 2.366 . S
Eu81 C111 2.825 . S
C82 O98 1.259 . S
C82 O99 1.265 . S
C83 O100 1.255 . S
C83 O101 1.265 . S
C84 C86 1.380 . S
C84 C87 1.374 . S
C84 C90 1.507 . S
C85 C86 1.384 . S
C85 C89 1.387 . S
C85 H112 0.930 . S
C86 C84 1.380 . S
C86 C85 1.384 . S
C86 H113 0.931 . S
C87 C84 1.374 . S
C87 C88 1.390 . S
C87 H114 0.930 . S
C88 C87 1.390 . S
C88 C89 1.391 . S
C88 H115 0.930 . S
C89 C85 1.387 . S
C89 C88 1.391 . S
C90 Tb80 2.825 1_545 S
C90 C84 1.507 . S
C90 O103 1.238 . S
C90 O104 1.247 . S
O91 Tb80 2.347 . S
O91 C95 1.259 . S
O92 Eu81 2.418 . S
O92 C95 1.265 . S
O93 Eu81 2.384 . S
O93 C102 1.255 . S
O94 Tb80 2.366 . S
O94 C102 1.265 . S
C95 O91 1.259 . S
C95 O92 1.265 . S
O96 Eu81 2.479 . S
O96 C111 1.238 . S
O97 Eu81 2.471 . S
O97 C111 1.247 . S
O98 Eu81 2.347 . S
O98 C82 1.259 . S
O99 Tb80 2.418 . S
O99 C82 1.265 . S
O100 Tb80 2.384 . S
O100 C83 1.255 . S
O101 Eu81 2.366 . S
O101 C83 1.265 . S
C102 O93 1.255 . S
C102 O94 1.265 . S
O103 Tb80 2.479 1_545 S
O103 C90 1.238 . S
O104 Tb80 2.471 1_545 S
O104 C90 1.247 . S
C105 C108 1.380 . S
C105 C109 1.374 . S
C105 C111 1.507 . S
C106 C107 1.387 . S
C106 C110 1.391 . S
C107 C106 1.387 . S
C107 C108 1.384 . S
C107 H116 0.930 . S
C108 C105 1.380 . S
C108 C107 1.384 . S
C108 H117 0.931 . S
C109 C105 1.374 . S
C109 C110 1.390 . S
C109 H118 0.930 . S
C110 C106 1.391 . S
C110 C109 1.390 . S
C110 H119 0.930 . S
C111 Eu81 2.825 . S
C111 O96 1.238 . S
C111 O97 1.247 . S
C111 C105 1.507 . S
H112 C85 0.930 . S
H113 C86 0.931 . S
H114 C87 0.930 . S
H115 C88 0.930 . S
H116 C107 0.930 . S
H117 C108 0.931 . S
H118 C109 0.930 . S
H119 C110 0.930 . S
Tb120 C130 2.825 1_545 S
Tb120 O131 2.347 . S
Tb120 O134 2.366 . S
Tb120 O139 2.418 . S
Tb120 O140 2.384 . S
Tb120 O143 2.479 1_545 S
Tb120 O144 2.471 1_545 S
Eu121 O132 2.418 . S
Eu121 O133 2.384 . S
Eu121 O136 2.479 . S
Eu121 O137 2.471 . S
Eu121 O138 2.347 . S
Eu121 O141 2.366 . S
Eu121 C151 2.825 . S
C122 O138 1.259 . S
C122 O139 1.265 . S
C123 O140 1.255 . S
C123 O141 1.265 . S
C124 C126 1.380 . S
C124 C127 1.374 . S
C124 C130 1.507 . S
C125 C126 1.384 . S
C125 C129 1.387 . S
C125 H152 0.930 . S
C126 C124 1.380 . S
C126 C125 1.384 . S
C126 H153 0.931 . S
C127 C124 1.374 . S
C127 C128 1.390 . S
C127 H154 0.930 . S
C128 C127 1.390 . S
C128 C129 1.391 . S
C128 H155 0.930 . S
C129 C125 1.387 . S
C129 C128 1.391 . S
C130 Tb120 2.825 1_565 S
C130 C124 1.507 . S
C130 O143 1.238 . S
C130 O144 1.247 . S
O131 Tb120 2.347 . S
O131 C135 1.259 . S
O132 Eu121 2.418 . S
O132 C135 1.265 . S
O133 Eu121 2.384 . S
O133 C142 1.255 . S
O134 Tb120 2.366 . S
O134 C142 1.265 . S
C135 O131 1.259 . S
C135 O132 1.265 . S
O136 Eu121 2.479 . S
O136 C151 1.238 . S
O137 Eu121 2.471 . S
O137 C151 1.247 . S
O138 Eu121 2.347 . S
O138 C122 1.259 . S
O139 Tb120 2.418 . S
O139 C122 1.265 . S
O140 Tb120 2.384 . S
O140 C123 1.255 . S
O141 Eu121 2.366 . S
O141 C123 1.265 . S
C142 O133 1.255 . S
C142 O134 1.265 . S
O143 Tb120 2.479 1_565 S
O143 C130 1.238 . S
O144 Tb120 2.471 1_565 S
O144 C130 1.247 . S
C145 C148 1.380 . S
C145 C149 1.374 . S
C145 C151 1.507 . S
C146 C147 1.387 . S
C146 C150 1.391 . S
C147 C146 1.387 . S
C147 C148 1.384 . S
C147 H156 0.930 . S
C148 C145 1.380 . S
C148 C147 1.384 . S
C148 H157 0.931 . S
C149 C145 1.374 . S
C149 C150 1.390 . S
C149 H158 0.930 . S
C150 C146 1.391 . S
C150 C149 1.390 . S
C150 H159 0.930 . S
C151 Eu121 2.825 . S
C151 O136 1.238 . S
C151 O137 1.247 . S
C151 C145 1.507 . S
H152 C125 0.930 . S
H153 C126 0.931 . S
H154 C127 0.930 . S
H155 C128 0.930 . S
H156 C147 0.930 . S
H157 C148 0.931 . S
H158 C149 0.930 . S
H159 C150 0.930 . S
Tb160 C170 2.825 . S
Tb160 O171 2.347 . S
Tb160 O174 2.366 . S
Tb160 O179 2.418 . S
Tb160 O180 2.384 . S
Tb160 O183 2.479 . S
Tb160 O184 2.471 . S
Eu161 O172 2.418 . S
Eu161 O173 2.384 . S
Eu161 O176 2.479 1_565 S
Eu161 O177 2.471 1_565 S
Eu161 O178 2.347 . S
Eu161 O181 2.366 . S
Eu161 C191 2.825 1_565 S
C162 O178 1.259 . S
C162 O179 1.265 . S
C163 O180 1.255 . S
C163 O181 1.265 . S
C164 C166 1.380 . S
C164 C167 1.374 . S
C164 C170 1.507 . S
C165 C166 1.384 . S
C165 C169 1.387 . S
C165 H192 0.930 . S
C166 C164 1.380 . S
C166 C165 1.384 . S
C166 H193 0.931 . S
C167 C164 1.374 . S
C167 C168 1.390 . S
C167 H194 0.930 . S
C168 C167 1.390 . S
C168 C169 1.391 . S
C168 H195 0.930 . S
C169 C165 1.387 . S
C169 C168 1.391 . S
C170 Tb160 2.825 . S
C170 C164 1.507 . S
C170 O183 1.238 . S
C170 O184 1.247 . S
O171 Tb160 2.347 . S
O171 C175 1.259 . S
O172 Eu161 2.418 . S
O172 C175 1.265 . S
O173 Eu161 2.384 . S
O173 C182 1.255 . S
O174 Tb160 2.366 . S
O174 C182 1.265 . S
C175 O171 1.259 . S
C175 O172 1.265 . S
O176 Eu161 2.479 1_545 S
O176 C191 1.238 . S
O177 Eu161 2.471 1_545 S
O177 C191 1.247 . S
O178 Eu161 2.347 . S
O178 C162 1.259 . S
O179 Tb160 2.418 . S
O179 C162 1.265 . S
O180 Tb160 2.384 . S
O180 C163 1.255 . S
O181 Eu161 2.366 . S
O181 C163 1.265 . S
C182 O173 1.255 . S
C182 O174 1.265 . S
O183 Tb160 2.479 . S
O183 C170 1.238 . S
O184 Tb160 2.471 . S
O184 C170 1.247 . S
C185 C188 1.380 . S
C185 C189 1.374 . S
C185 C191 1.507 . S
C186 C187 1.387 . S
C186 C190 1.391 . S
C187 C186 1.387 . S
C187 C188 1.384 . S
C187 H196 0.930 . S
C188 C185 1.380 . S
C188 C187 1.384 . S
C188 H197 0.931 . S
C189 C185 1.374 . S
C189 C190 1.390 . S
C189 H198 0.930 . S
C190 C186 1.391 . S
C190 C189 1.390 . S
C190 H199 0.930 . S
C191 Eu161 2.825 1_545 S
C191 O176 1.238 . S
C191 O177 1.247 . S
C191 C185 1.507 . S
H192 C165 0.930 . S
H193 C166 0.931 . S
H194 C167 0.930 . S
H195 C168 0.930 . S
H196 C187 0.930 . S
H197 C188 0.931 . S
H198 C189 0.930 . S
H199 C190 0.930 . S
Tb200 C210 2.825 . S
Tb200 O211 2.347 . S
Tb200 O214 2.366 . S
Tb200 O219 2.418 . S
Tb200 O220 2.384 . S
Tb200 O223 2.479 . S
Tb200 O224 2.471 . S
Eu201 O212 2.418 . S
Eu201 O213 2.384 . S
Eu201 O216 2.479 1_545 S
Eu201 O217 2.471 1_545 S
Eu201 O218 2.347 . S
Eu201 O221 2.366 . S
Eu201 C231 2.825 1_545 S
C202 O218 1.259 . S
C202 O219 1.265 . S
C203 O220 1.255 . S
C203 O221 1.265 . S
C204 C206 1.380 . S
C204 C207 1.374 . S
C204 C210 1.507 . S
C205 C206 1.384 . S
C205 C209 1.387 . S
C205 H232 0.930 . S
C206 C204 1.380 . S
C206 C205 1.384 . S
C206 H233 0.931 . S
C207 C204 1.374 . S
C207 C208 1.390 . S
C207 H234 0.930 . S
C208 C207 1.390 . S
C208 C209 1.391 . S
C208 H235 0.930 . S
C209 C205 1.387 . S
C209 C208 1.391 . S
C210 Tb200 2.825 . S
C210 C204 1.507 . S
C210 O223 1.238 . S
C210 O224 1.247 . S
O211 Tb200 2.347 . S
O211 C215 1.259 . S
O212 Eu201 2.418 . S
O212 C215 1.265 . S
O213 Eu201 2.384 . S
O213 C222 1.255 . S
O214 Tb200 2.366 . S
O214 C222 1.265 . S
C215 O211 1.259 . S
C215 O212 1.265 . S
O216 Eu201 2.479 1_565 S
O216 C231 1.238 . S
O217 Eu201 2.471 1_565 S
O217 C231 1.247 . S
O218 Eu201 2.347 . S
O218 C202 1.259 . S
O219 Tb200 2.418 . S
O219 C202 1.265 . S
O220 Tb200 2.384 . S
O220 C203 1.255 . S
O221 Eu201 2.366 . S
O221 C203 1.265 . S
C222 O213 1.255 . S
C222 O214 1.265 . S
O223 Tb200 2.479 . S
O223 C210 1.238 . S
O224 Tb200 2.471 . S
O224 C210 1.247 . S
C225 C228 1.380 . S
C225 C229 1.374 . S
C225 C231 1.507 . S
C226 C227 1.387 . S
C226 C230 1.391 . S
C227 C226 1.387 . S
C227 C228 1.384 . S
C227 H236 0.930 . S
C228 C225 1.380 . S
C228 C227 1.384 . S
C228 H237 0.931 . S
C229 C225 1.374 . S
C229 C230 1.390 . S
C229 H238 0.930 . S
C230 C226 1.391 . S
C230 C229 1.390 . S
C230 H239 0.930 . S
C231 Eu201 2.825 1_565 S
C231 O216 1.238 . S
C231 O217 1.247 . S
C231 C225 1.507 . S
H232 C205 0.930 . S
H233 C206 0.931 . S
H234 C207 0.930 . S
H235 C208 0.930 . S
H236 C227 0.930 . S
H237 C228 0.931 . S
H238 C229 0.930 . S
H239 C230 0.930 . S
Tb240 C250 2.825 . S
Tb240 O251 2.347 . S
Tb240 O254 2.366 . S
Tb240 O259 2.418 . S
Tb240 O260 2.384 . S
Tb240 O263 2.479 . S
Tb240 O264 2.471 . S
Eu241 O252 2.418 . S
Eu241 O253 2.384 . S
Eu241 O256 2.479 1_545 S
Eu241 O257 2.471 1_545 S
Eu241 O258 2.347 . S
Eu241 O261 2.366 . S
Eu241 C271 2.825 1_545 S
C242 O258 1.259 . S
C242 O259 1.265 . S
C243 O260 1.255 . S
C243 O261 1.265 . S
C244 C246 1.380 . S
C244 C247 1.374 . S
C244 C250 1.507 . S
C245 C246 1.384 . S
C245 C249 1.387 . S
C245 H272 0.930 . S
C246 C244 1.380 . S
C246 C245 1.384 . S
C246 H273 0.931 . S
C247 C244 1.374 . S
C247 C248 1.390 . S
C247 H274 0.930 . S
C248 C247 1.390 . S
C248 C249 1.391 . S
C248 H275 0.930 . S
C249 C245 1.387 . S
C249 C248 1.391 . S
C250 Tb240 2.825 . S
C250 C244 1.507 . S
C250 O263 1.238 . S
C250 O264 1.247 . S
O251 Tb240 2.347 . S
O251 C255 1.259 . S
O252 Eu241 2.418 . S
O252 C255 1.265 . S
O253 Eu241 2.384 . S
O253 C262 1.255 . S
O254 Tb240 2.366 . S
O254 C262 1.265 . S
C255 O251 1.259 . S
C255 O252 1.265 . S
O256 Eu241 2.479 1_565 S
O256 C271 1.238 . S
O257 Eu241 2.471 1_565 S
O257 C271 1.247 . S
O258 Eu241 2.347 . S
O258 C242 1.259 . S
O259 Tb240 2.418 . S
O259 C242 1.265 . S
O260 Tb240 2.384 . S
O260 C243 1.255 . S
O261 Eu241 2.366 . S
O261 C243 1.265 . S
C262 O253 1.255 . S
C262 O254 1.265 . S
O263 Tb240 2.479 . S
O263 C250 1.238 . S
O264 Tb240 2.471 . S
O264 C250 1.247 . S
C265 C268 1.380 . S
C265 C269 1.374 . S
C265 C271 1.507 . S
C266 C267 1.387 . S
C266 C270 1.391 . S
C267 C266 1.387 . S
C267 C268 1.384 . S
C267 H276 0.930 . S
C268 C265 1.380 . S
C268 C267 1.384 . S
C268 H277 0.931 . S
C269 C265 1.374 . S
C269 C270 1.390 . S
C269 H278 0.930 . S
C270 C266 1.391 . S
C270 C269 1.390 . S
C270 H279 0.930 . S
C271 Eu241 2.825 1_565 S
C271 O256 1.238 . S
C271 O257 1.247 . S
C271 C265 1.507 . S
H272 C245 0.930 . S
H273 C246 0.931 . S
H274 C247 0.930 . S
H275 C248 0.930 . S
H276 C267 0.930 . S
H277 C268 0.931 . S
H278 C269 0.930 . S
H279 C270 0.930 . S
Tb280 C290 2.825 . S
Tb280 O291 2.347 . S
Tb280 O294 2.366 . S
Tb280 O299 2.418 . S
Tb280 O300 2.384 . S
Tb280 O303 2.479 . S
Tb280 O304 2.471 . S
Eu281 O292 2.418 . S
Eu281 O293 2.384 . S
Eu281 O296 2.479 1_565 S
Eu281 O297 2.471 1_565 S
Eu281 O298 2.347 . S
Eu281 O301 2.366 . S
Eu281 C311 2.825 1_565 S
C282 O298 1.259 . S
C282 O299 1.265 . S
C283 O300 1.255 . S
C283 O301 1.265 . S
C284 C286 1.380 . S
C284 C287 1.374 . S
C284 C290 1.507 . S
C285 C286 1.384 . S
C285 C289 1.387 . S
C285 H312 0.930 . S
C286 C284 1.380 . S
C286 C285 1.384 . S
C286 H313 0.931 . S
C287 C284 1.374 . S
C287 C288 1.390 . S
C287 H314 0.930 . S
C288 C287 1.390 . S
C288 C289 1.391 . S
C288 H315 0.930 . S
C289 C285 1.387 . S
C289 C288 1.391 . S
C290 Tb280 2.825 . S
C290 C284 1.507 . S
C290 O303 1.238 . S
C290 O304 1.247 . S
O291 Tb280 2.347 . S
O291 C295 1.259 . S
O292 Eu281 2.418 . S
O292 C295 1.265 . S
O293 Eu281 2.384 . S
O293 C302 1.255 . S
O294 Tb280 2.366 . S
O294 C302 1.265 . S
C295 O291 1.259 . S
C295 O292 1.265 . S
O296 Eu281 2.479 1_545 S
O296 C311 1.238 . S
O297 Eu281 2.471 1_545 S
O297 C311 1.247 . S
O298 Eu281 2.347 . S
O298 C282 1.259 . S
O299 Tb280 2.418 . S
O299 C282 1.265 . S
O300 Tb280 2.384 . S
O300 C283 1.255 . S
O301 Eu281 2.366 . S
O301 C283 1.265 . S
C302 O293 1.255 . S
C302 O294 1.265 . S
O303 Tb280 2.479 . S
O303 C290 1.238 . S
O304 Tb280 2.471 . S
O304 C290 1.247 . S
C305 C308 1.380 . S
C305 C309 1.374 . S
C305 C311 1.507 . S
C306 C307 1.387 . S
C306 C310 1.391 . S
C307 C306 1.387 . S
C307 C308 1.384 . S
C307 H316 0.930 . S
C308 C305 1.380 . S
C308 C307 1.384 . S
C308 H317 0.931 . S
C309 C305 1.374 . S
C309 C310 1.390 . S
C309 H318 0.930 . S
C310 C306 1.391 . S
C310 C309 1.390 . S
C310 H319 0.930 . S
C311 Eu281 2.825 1_545 S
C311 O296 1.238 . S
C311 O297 1.247 . S
C311 C305 1.507 . S
H312 C285 0.930 . S
H313 C286 0.931 . S
H314 C287 0.930 . S
H315 C288 0.930 . S
H316 C307 0.930 . S
H317 C308 0.931 . S
H318 C309 0.930 . S
H319 C310 0.930 . S
Tb320 C330 2.825 . S
Tb320 O331 2.347 . S
Tb320 O334 2.366 . S
Tb320 O339 2.418 . S
Tb320 O340 2.384 . S
Tb320 O343 2.479 . S
Tb320 O344 2.471 . S
Eu321 O332 2.418 . S
Eu321 O333 2.384 . S
Eu321 O336 2.479 . S
Eu321 O337 2.471 . S
Eu321 O338 2.347 . S
Eu321 O341 2.366 . S
Eu321 C351 2.825 . S
C322 O338 1.259 . S
C322 O339 1.265 . S
C323 O340 1.255 . S
C323 O341 1.265 . S
C324 C326 1.380 . S
C324 C327 1.374 . S
C324 C330 1.507 . S
C325 C326 1.384 . S
C325 C329 1.387 . S
C325 H352 0.930 . S
C326 C324 1.380 . S
C326 C325 1.384 . S
C326 H353 0.931 . S
C327 C324 1.374 . S
C327 C328 1.390 . S
C327 H354 0.930 . S
C328 C327 1.390 . S
C328 C329 1.391 . S
C328 H355 0.930 . S
C329 C325 1.387 . S
C329 C328 1.391 . S
C330 Tb320 2.825 . S
C330 C324 1.507 . S
C330 O343 1.238 . S
C330 O344 1.247 . S
O331 Tb320 2.347 . S
O331 C335 1.259 . S
O332 Eu321 2.418 . S
O332 C335 1.265 . S
O333 Eu321 2.384 . S
O333 C342 1.255 . S
O334 Tb320 2.366 . S
O334 C342 1.265 . S
C335 O331 1.259 . S
C335 O332 1.265 . S
O336 Eu321 2.479 . S
O336 C351 1.238 . S
O337 Eu321 2.471 . S
O337 C351 1.247 . S
O338 Eu321 2.347 . S
O338 C322 1.259 . S
O339 Tb320 2.418 . S
O339 C322 1.265 . S
O340 Tb320 2.384 . S
O340 C323 1.255 . S
O341 Eu321 2.366 . S
O341 C323 1.265 . S
C342 O333 1.255 . S
C342 O334 1.265 . S
O343 Tb320 2.479 . S
O343 C330 1.238 . S
O344 Tb320 2.471 . S
O344 C330 1.247 . S
C345 C348 1.380 . S
C345 C349 1.374 . S
C345 C351 1.507 . S
C346 C347 1.387 . S
C346 C350 1.391 . S
C347 C346 1.387 . S
C347 C348 1.384 . S
C347 H356 0.930 . S
C348 C345 1.380 . S
C348 C347 1.384 . S
C348 H357 0.931 . S
C349 C345 1.374 . S
C349 C350 1.390 . S
C349 H358 0.930 . S
C350 C346 1.391 . S
C350 C349 1.390 . S
C350 H359 0.930 . S
C351 Eu321 2.825 . S
C351 O336 1.238 . S
C351 O337 1.247 . S
C351 C345 1.507 . S
H352 C325 0.930 . S
H353 C326 0.931 . S
H354 C327 0.930 . S
H355 C328 0.930 . S
H356 C347 0.930 . S
H357 C348 0.931 . S
H358 C349 0.930 . S
H359 C350 0.930 . S
Tb360 C370 2.825 . S
Tb360 O371 2.347 . S
Tb360 O374 2.366 . S
Tb360 O379 2.418 . S
Tb360 O380 2.384 . S
Tb360 O383 2.479 . S
Tb360 O384 2.471 . S
Eu361 O372 2.418 . S
Eu361 O373 2.384 . S
Eu361 O376 2.479 . S
Eu361 O377 2.471 . S
Eu361 O378 2.347 . S
Eu361 O381 2.366 . S
Eu361 C391 2.825 . S
C362 O378 1.259 . S
C362 O379 1.265 . S
C363 O380 1.255 . S
C363 O381 1.265 . S
C364 C366 1.380 . S
C364 C367 1.374 . S
C364 C370 1.507 . S
C365 C366 1.384 . S
C365 C369 1.387 . S
C365 H392 0.930 . S
C366 C364 1.380 . S
C366 C365 1.384 . S
C366 H393 0.931 . S
C367 C364 1.374 . S
C367 C368 1.390 . S
C367 H394 0.930 . S
C368 C367 1.390 . S
C368 C369 1.391 . S
C368 H395 0.930 . S
C369 C365 1.387 . S
C369 C368 1.391 . S
C370 Tb360 2.825 . S
C370 C364 1.507 . S
C370 O383 1.238 . S
C370 O384 1.247 . S
O371 Tb360 2.347 . S
O371 C375 1.259 . S
O372 Eu361 2.418 . S
O372 C375 1.265 . S
O373 Eu361 2.384 . S
O373 C382 1.255 . S
O374 Tb360 2.366 . S
O374 C382 1.265 . S
C375 O371 1.259 . S
C375 O372 1.265 . S
O376 Eu361 2.479 . S
O376 C391 1.238 . S
O377 Eu361 2.471 . S
O377 C391 1.247 . S
O378 Eu361 2.347 . S
O378 C362 1.259 . S
O379 Tb360 2.418 . S
O379 C362 1.265 . S
O380 Tb360 2.384 . S
O380 C363 1.255 . S
O381 Eu361 2.366 . S
O381 C363 1.265 . S
C382 O373 1.255 . S
C382 O374 1.265 . S
O383 Tb360 2.479 . S
O383 C370 1.238 . S
O384 Tb360 2.471 . S
O384 C370 1.247 . S
C385 C388 1.380 . S
C385 C389 1.374 . S
C385 C391 1.507 . S
C386 C387 1.387 . S
C386 C390 1.391 . S
C387 C386 1.387 . S
C387 C388 1.384 . S
C387 H396 0.930 . S
C388 C385 1.380 . S
C388 C387 1.384 . S
C388 H397 0.931 . S
C389 C385 1.374 . S
C389 C390 1.390 . S
C389 H398 0.930 . S
C390 C386 1.391 . S
C390 C389 1.390 . S
C390 H399 0.930 . S
C391 Eu361 2.825 . S
C391 O376 1.238 . S
C391 O377 1.247 . S
C391 C385 1.507 . S
H392 C365 0.930 . S
H393 C366 0.931 . S
H394 C367 0.930 . S
H395 C368 0.930 . S
H396 C387 0.930 . S
H397 C388 0.931 . S
H398 C389 0.930 . S
H399 C390 0.930 . S
Tb400 C410 2.825 . S
Tb400 O411 2.347 . S
Tb400 O414 2.366 . S
Tb400 O419 2.418 . S
Tb400 O420 2.384 . S
Tb400 O423 2.479 . S
Tb400 O424 2.471 . S
Eu401 O412 2.418 . S
Eu401 O413 2.384 . S
Eu401 O416 2.479 . S
Eu401 O417 2.471 . S
Eu401 O418 2.347 . S
Eu401 O421 2.366 . S
Eu401 C431 2.825 . S
C402 O418 1.259 . S
C402 O419 1.265 . S
C403 O420 1.255 . S
C403 O421 1.265 . S
C404 C406 1.380 . S
C404 C407 1.374 . S
C404 C410 1.507 . S
C405 C406 1.384 . S
C405 C409 1.387 . S
C405 H432 0.930 . S
C406 C404 1.380 . S
C406 C405 1.384 . S
C406 H433 0.931 . S
C407 C404 1.374 . S
C407 C408 1.390 . S
C407 H434 0.930 . S
C408 C407 1.390 . S
C408 C409 1.391 . S
C408 H435 0.930 . S
C409 C405 1.387 . S
C409 C408 1.391 . S
C410 Tb400 2.825 . S
C410 C404 1.507 . S
C410 O423 1.238 . S
C410 O424 1.247 . S
O411 Tb400 2.347 . S
O411 C415 1.259 . S
O412 Eu401 2.418 . S
O412 C415 1.265 . S
O413 Eu401 2.384 . S
O413 C422 1.255 . S
O414 Tb400 2.366 . S
O414 C422 1.265 . S
C415 O411 1.259 . S
C415 O412 1.265 . S
O416 Eu401 2.479 . S
O416 C431 1.238 . S
O417 Eu401 2.471 . S
O417 C431 1.247 . S
O418 Eu401 2.347 . S
O418 C402 1.259 . S
O419 Tb400 2.418 . S
O419 C402 1.265 . S
O420 Tb400 2.384 . S
O420 C403 1.255 . S
O421 Eu401 2.366 . S
O421 C403 1.265 . S
C422 O413 1.255 . S
C422 O414 1.265 . S
O423 Tb400 2.479 . S
O423 C410 1.238 . S
O424 Tb400 2.471 . S
O424 C410 1.247 . S
C425 C428 1.380 . S
C425 C429 1.374 . S
C425 C431 1.507 . S
C426 C427 1.387 . S
C426 C430 1.391 . S
C427 C426 1.387 . S
C427 C428 1.384 . S
C427 H436 0.930 . S
C428 C425 1.380 . S
C428 C427 1.384 . S
C428 H437 0.931 . S
C429 C425 1.374 . S
C429 C430 1.390 . S
C429 H438 0.930 . S
C430 C426 1.391 . S
C430 C429 1.390 . S
C430 H439 0.930 . S
C431 Eu401 2.825 . S
C431 O416 1.238 . S
C431 O417 1.247 . S
C431 C425 1.507 . S
H432 C405 0.930 . S
H433 C406 0.931 . S
H434 C407 0.930 . S
H435 C408 0.930 . S
H436 C427 0.930 . S
H437 C428 0.931 . S
H438 C429 0.930 . S
H439 C430 0.930 . S
Tb440 C450 2.825 . S
Tb440 O451 2.347 . S
Tb440 O454 2.366 . S
Tb440 O459 2.418 . S
Tb440 O460 2.384 . S
Tb440 O463 2.479 . S
Tb440 O464 2.471 . S
Eu441 O452 2.418 . S
Eu441 O453 2.384 . S
Eu441 O456 2.479 . S
Eu441 O457 2.471 . S
Eu441 O458 2.347 . S
Eu441 O461 2.366 . S
Eu441 C471 2.825 . S
C442 O458 1.259 . S
C442 O459 1.265 . S
C443 O460 1.255 . S
C443 O461 1.265 . S
C444 C446 1.380 . S
C444 C447 1.374 . S
C444 C450 1.507 . S
C445 C446 1.384 . S
C445 C449 1.387 . S
C445 H472 0.930 . S
C446 C444 1.380 . S
C446 C445 1.384 . S
C446 H473 0.931 . S
C447 C444 1.374 . S
C447 C448 1.390 . S
C447 H474 0.930 . S
C448 C447 1.390 . S
C448 C449 1.391 . S
C448 H475 0.930 . S
C449 C445 1.387 . S
C449 C448 1.391 . S
C450 Tb440 2.825 . S
C450 C444 1.507 . S
C450 O463 1.238 . S
C450 O464 1.247 . S
O451 Tb440 2.347 . S
O451 C455 1.259 . S
O452 Eu441 2.418 . S
O452 C455 1.265 . S
O453 Eu441 2.384 . S
O453 C462 1.255 . S
O454 Tb440 2.366 . S
O454 C462 1.265 . S
C455 O451 1.259 . S
C455 O452 1.265 . S
O456 Eu441 2.479 . S
O456 C471 1.238 . S
O457 Eu441 2.471 . S
O457 C471 1.247 . S
O458 Eu441 2.347 . S
O458 C442 1.259 . S
O459 Tb440 2.418 . S
O459 C442 1.265 . S
O460 Tb440 2.384 . S
O460 C443 1.255 . S
O461 Eu441 2.366 . S
O461 C443 1.265 . S
C462 O453 1.255 . S
C462 O454 1.265 . S
O463 Tb440 2.479 . S
O463 C450 1.238 . S
O464 Tb440 2.471 . S
O464 C450 1.247 . S
C465 C468 1.380 . S
C465 C469 1.374 . S
C465 C471 1.507 . S
C466 C467 1.387 . S
C466 C470 1.391 . S
C467 C466 1.387 . S
C467 C468 1.384 . S
C467 H476 0.930 . S
C468 C465 1.380 . S
C468 C467 1.384 . S
C468 H477 0.931 . S
C469 C465 1.374 . S
C469 C470 1.390 . S
C469 H478 0.930 . S
C470 C466 1.391 . S
C470 C469 1.390 . S
C470 H479 0.930 . S
C471 Eu441 2.825 . S
C471 O456 1.238 . S
C471 O457 1.247 . S
C471 C465 1.507 . S
H472 C445 0.930 . S
H473 C446 0.931 . S
H474 C447 0.930 . S
H475 C448 0.930 . S
H476 C467 0.930 . S
H477 C468 0.931 . S
H478 C469 0.930 . S
H479 C470 0.930 . S
Tb480 C490 2.825 . S
Tb480 O491 2.347 . S
Tb480 O494 2.366 . S
Tb480 O499 2.418 . S
Tb480 O500 2.384 . S
Tb480 O503 2.479 . S
Tb480 O504 2.471 . S
Eu481 O492 2.418 . S
Eu481 O493 2.384 . S
Eu481 O496 2.479 . S
Eu481 O497 2.471 . S
Eu481 O498 2.347 . S
Eu481 O501 2.366 . S
Eu481 C511 2.825 . S
C482 O498 1.259 . S
C482 O499 1.265 . S
C483 O500 1.255 . S
C483 O501 1.265 . S
C484 C486 1.380 . S
C484 C487 1.374 . S
C484 C490 1.507 . S
C485 C486 1.384 . S
C485 C489 1.387 . S
C485 H512 0.930 . S
C486 C484 1.380 . S
C486 C485 1.384 . S
C486 H513 0.931 . S
C487 C484 1.374 . S
C487 C488 1.390 . S
C487 H514 0.930 . S
C488 C487 1.390 . S
C488 C489 1.391 . S
C488 H515 0.930 . S
C489 C485 1.387 . S
C489 C488 1.391 . S
C490 Tb480 2.825 . S
C490 C484 1.507 . S
C490 O503 1.238 . S
C490 O504 1.247 . S
O491 Tb480 2.347 . S
O491 C495 1.259 . S
O492 Eu481 2.418 . S
O492 C495 1.265 . S
O493 Eu481 2.384 . S
O493 C502 1.255 . S
O494 Tb480 2.366 . S
O494 C502 1.265 . S
C495 O491 1.259 . S
C495 O492 1.265 . S
O496 Eu481 2.479 . S
O496 C511 1.238 . S
O497 Eu481 2.471 . S
O497 C511 1.247 . S
O498 Eu481 2.347 . S
O498 C482 1.259 . S
O499 Tb480 2.418 . S
O499 C482 1.265 . S
O500 Tb480 2.384 . S
O500 C483 1.255 . S
O501 Eu481 2.366 . S
O501 C483 1.265 . S
C502 O493 1.255 . S
C502 O494 1.265 . S
O503 Tb480 2.479 . S
O503 C490 1.238 . S
O504 Tb480 2.471 . S
O504 C490 1.247 . S
C505 C508 1.380 . S
C505 C509 1.374 . S
C505 C511 1.507 . S
C506 C507 1.387 . S
C506 C510 1.391 . S
C507 C506 1.387 . S
C507 C508 1.384 . S
C507 H516 0.930 . S
C508 C505 1.380 . S
C508 C507 1.384 . S
C508 H517 0.931 . S
C509 C505 1.374 . S
C509 C510 1.390 . S
C509 H518 0.930 . S
C510 C506 1.391 . S
C510 C509 1.390 . S
C510 H519 0.930 . S
C511 Eu481 2.825 . S
C511 O496 1.238 . S
C511 O497 1.247 . S
C511 C505 1.507 . S
H512 C485 0.930 . S
H513 C486 0.931 . S
H514 C487 0.930 . S
H515 C488 0.930 . S
H516 C507 0.930 . S
H517 C508 0.931 . S
H518 C509 0.930 . S
H519 C510 0.930 . S
Tb520 C530 2.825 . S
Tb520 O531 2.347 . S
Tb520 O534 2.366 . S
Tb520 O539 2.418 . S
Tb520 O540 2.384 . S
Tb520 O543 2.479 . S
Tb520 O544 2.471 . S
Eu521 O532 2.418 . S
Eu521 O533 2.384 . S
Eu521 O536 2.479 . S
Eu521 O537 2.471 . S
Eu521 O538 2.347 . S
Eu521 O541 2.366 . S
Eu521 C551 2.825 . S
C522 O538 1.259 . S
C522 O539 1.265 . S
C523 O540 1.255 . S
C523 O541 1.265 . S
C524 C526 1.380 . S
C524 C527 1.374 . S
C524 C530 1.507 . S
C525 C526 1.384 . S
C525 C529 1.387 . S
C525 H552 0.930 . S
C526 C524 1.380 . S
C526 C525 1.384 . S
C526 H553 0.931 . S
C527 C524 1.374 . S
C527 C528 1.390 . S
C527 H554 0.930 . S
C528 C527 1.390 . S
C528 C529 1.391 . S
C528 H555 0.930 . S
C529 C525 1.387 . S
C529 C528 1.391 . S
C530 Tb520 2.825 . S
C530 C524 1.507 . S
C530 O543 1.238 . S
C530 O544 1.247 . S
O531 Tb520 2.347 . S
O531 C535 1.259 . S
O532 Eu521 2.418 . S
O532 C535 1.265 . S
O533 Eu521 2.384 . S
O533 C542 1.255 . S
O534 Tb520 2.366 . S
O534 C542 1.265 . S
C535 O531 1.259 . S
C535 O532 1.265 . S
O536 Eu521 2.479 . S
O536 C551 1.238 . S
O537 Eu521 2.471 . S
O537 C551 1.247 . S
O538 Eu521 2.347 . S
O538 C522 1.259 . S
O539 Tb520 2.418 . S
O539 C522 1.265 . S
O540 Tb520 2.384 . S
O540 C523 1.255 . S
O541 Eu521 2.366 . S
O541 C523 1.265 . S
C542 O533 1.255 . S
C542 O534 1.265 . S
O543 Tb520 2.479 . S
O543 C530 1.238 . S
O544 Tb520 2.471 . S
O544 C530 1.247 . S
C545 C548 1.380 . S
C545 C549 1.374 . S
C545 C551 1.507 . S
C546 C547 1.387 . S
C546 C550 1.391 . S
C547 C546 1.387 . S
C547 C548 1.384 . S
C547 H556 0.930 . S
C548 C545 1.380 . S
C548 C547 1.384 . S
C548 H557 0.931 . S
C549 C545 1.374 . S
C549 C550 1.390 . S
C549 H558 0.930 . S
C550 C546 1.391 . S
C550 C549 1.390 . S
C550 H559 0.930 . S
C551 Eu521 2.825 . S
C551 O536 1.238 . S
C551 O537 1.247 . S
C551 C545 1.507 . S
H552 C525 0.930 . S
H553 C526 0.931 . S
H554 C527 0.930 . S
H555 C528 0.930 . S
H556 C547 0.930 . S
H557 C548 0.931 . S
H558 C549 0.930 . S
H559 C550 0.930 . S
Tb560 C570 2.825 . S
Tb560 O571 2.347 . S
Tb560 O574 2.366 . S
Tb560 O579 2.418 . S
Tb560 O580 2.384 . S
Tb560 O583 2.479 . S
Tb560 O584 2.471 . S
Eu561 O572 2.418 . S
Eu561 O573 2.384 . S
Eu561 O576 2.479 . S
Eu561 O577 2.471 . S
Eu561 O578 2.347 . S
Eu561 O581 2.366 . S
Eu561 C591 2.825 . S
C562 O578 1.259 . S
C562 O579 1.265 . S
C563 O580 1.255 . S
C563 O581 1.265 . S
C564 C566 1.380 . S
C564 C567 1.374 . S
C564 C570 1.507 . S
C565 C566 1.384 . S
C565 C569 1.387 . S
C565 H592 0.930 . S
C566 C564 1.380 . S
C566 C565 1.384 . S
C566 H593 0.931 . S
C567 C564 1.374 . S
C567 C568 1.390 . S
C567 H594 0.930 . S
C568 C567 1.390 . S
C568 C569 1.391 . S
C568 H595 0.930 . S
C569 C565 1.387 . S
C569 C568 1.391 . S
C570 Tb560 2.825 . S
C570 C564 1.507 . S
C570 O583 1.238 . S
C570 O584 1.247 . S
O571 Tb560 2.347 . S
O571 C575 1.259 . S
O572 Eu561 2.418 . S
O572 C575 1.265 . S
O573 Eu561 2.384 . S
O573 C582 1.255 . S
O574 Tb560 2.366 . S
O574 C582 1.265 . S
C575 O571 1.259 . S
C575 O572 1.265 . S
O576 Eu561 2.479 . S
O576 C591 1.238 . S
O577 Eu561 2.471 . S
O577 C591 1.247 . S
O578 Eu561 2.347 . S
O578 C562 1.259 . S
O579 Tb560 2.418 . S
O579 C562 1.265 . S
O580 Tb560 2.384 . S
O580 C563 1.255 . S
O581 Eu561 2.366 . S
O581 C563 1.265 . S
C582 O573 1.255 . S
C582 O574 1.265 . S
O583 Tb560 2.479 . S
O583 C570 1.238 . S
O584 Tb560 2.471 . S
O584 C570 1.247 . S
C585 C588 1.380 . S
C585 C589 1.374 . S
C585 C591 1.507 . S
C586 C587 1.387 . S
C586 C590 1.391 . S
C587 C586 1.387 . S
C587 C588 1.384 . S
C587 H596 0.930 . S
C588 C585 1.380 . S
C588 C587 1.384 . S
C588 H597 0.931 . S
C589 C585 1.374 . S
C589 C590 1.390 . S
C589 H598 0.930 . S
C590 C586 1.391 . S
C590 C589 1.390 . S
C590 H599 0.930 . S
C591 Eu561 2.825 . S
C591 O576 1.238 . S
C591 O577 1.247 . S
C591 C585 1.507 . S
H592 C565 0.930 . S
H593 C566 0.931 . S
H594 C567 0.930 . S
H595 C568 0.930 . S
H596 C587 0.930 . S
H597 C588 0.931 . S
H598 C589 0.930 . S
H599 C590 0.930 . S
Tb600 C610 2.825 . S
Tb600 O611 2.347 . S
Tb600 O614 2.366 . S
Tb600 O619 2.418 . S
Tb600 O620 2.384 . S
Tb600 O623 2.479 . S
Tb600 O624 2.471 . S
Eu601 O612 2.418 . S
Eu601 O613 2.384 . S
Eu601 O616 2.479 . S
Eu601 O617 2.471 . S
Eu601 O618 2.347 . S
Eu601 O621 2.366 . S
Eu601 C631 2.825 . S
C602 O618 1.259 . S
C602 O619 1.265 . S
C603 O620 1.255 . S
C603 O621 1.265 . S
C604 C606 1.380 . S
C604 C607 1.374 . S
C604 C610 1.507 . S
C605 C606 1.384 . S
C605 C609 1.387 . S
C605 H632 0.930 . S
C606 C604 1.380 . S
C606 C605 1.384 . S
C606 H633 0.931 . S
C607 C604 1.374 . S
C607 C608 1.390 . S
C607 H634 0.930 . S
C608 C607 1.390 . S
C608 C609 1.391 . S
C608 H635 0.930 . S
C609 C605 1.387 . S
C609 C608 1.391 . S
C610 Tb600 2.825 . S
C610 C604 1.507 . S
C610 O623 1.238 . S
C610 O624 1.247 . S
O611 Tb600 2.347 . S
O611 C615 1.259 . S
O612 Eu601 2.418 . S
O612 C615 1.265 . S
O613 Eu601 2.384 . S
O613 C622 1.255 . S
O614 Tb600 2.366 . S
O614 C622 1.265 . S
C615 O611 1.259 . S
C615 O612 1.265 . S
O616 Eu601 2.479 . S
O616 C631 1.238 . S
O617 Eu601 2.471 . S
O617 C631 1.247 . S
O618 Eu601 2.347 . S
O618 C602 1.259 . S
O619 Tb600 2.418 . S
O619 C602 1.265 . S
O620 Tb600 2.384 . S
O620 C603 1.255 . S
O621 Eu601 2.366 . S
O621 C603 1.265 . S
C622 O613 1.255 . S
C622 O614 1.265 . S
O623 Tb600 2.479 . S
O623 C610 1.238 . S
O624 Tb600 2.471 . S
O624 C610 1.247 . S
C625 C628 1.380 . S
C625 C629 1.374 . S
C625 C631 1.507 . S
C626 C627 1.387 . S
C626 C630 1.391 . S
C627 C626 1.387 . S
C627 C628 1.384 . S
C627 H636 0.930 . S
C628 C625 1.380 . S
C628 C627 1.384 . S
C628 H637 0.931 . S
C629 C625 1.374 . S
C629 C630 1.390 . S
C629 H638 0.930 . S
C630 C626 1.391 . S
C630 C629 1.390 . S
C630 H639 0.930 . S
C631 Eu601 2.825 . S
C631 O616 1.238 . S
C631 O617 1.247 . S
C631 C625 1.507 . S
H632 C605 0.930 . S
H633 C606 0.931 . S
H634 C607 0.930 . S
H635 C608 0.930 . S
H636 C627 0.930 . S
H637 C628 0.931 . S
H638 C629 0.930 . S
H639 C630 0.930 . S
C640 C641 1.369 . S
C640 C642 1.419 . S
C640 H644 0.930 . S
C641 C640 1.369 . S
C641 C650 1.429 . S
C642 C640 1.419 . S
C642 C643 1.363 . S
C642 H645 0.929 . S
C643 C642 1.363 . S
C643 C649 1.428 . S
H644 C640 0.930 . S
H645 C642 0.929 . S
S646 N647 1.613 . S
S646 N648 1.610 . S
N647 S646 1.613 . S
N647 C650 1.350 . S
N648 S646 1.610 . S
N648 C649 1.351 . S
C649 C643 1.428 . S
C649 N648 1.351 . S
C649 C650 1.434 . S
C650 C641 1.429 . S
C650 N647 1.350 . S
C650 C649 1.434 . S
C651 C652 1.369 . S
C651 C653 1.419 . S
C651 H655 0.930 . S
C652 C651 1.369 . S
C652 C661 1.429 . S
C653 C651 1.419 . S
C653 C654 1.363 . S
C653 H656 0.929 . S
C654 C653 1.363 . S
C654 C660 1.428 . S
H655 C651 0.930 . S
H656 C653 0.929 . S
S657 N658 1.613 . S
S657 N659 1.610 . S
N658 S657 1.613 . S
N658 C661 1.350 . S
N659 S657 1.610 . S
N659 C660 1.351 . S
C660 C654 1.428 . S
C660 N659 1.351 . S
C660 C661 1.434 . S
C661 C652 1.429 . S
C661 N658 1.350 . S
C661 C660 1.434 . S
C662 C663 1.369 . S
C662 C664 1.419 . S
C662 H666 0.930 . S
C663 C662 1.369 . S
C663 C672 1.429 . S
C664 C662 1.419 . S
C664 C665 1.363 . S
C664 H667 0.929 . S
C665 C664 1.363 . S
C665 C671 1.428 . S
H666 C662 0.930 . S
H667 C664 0.929 . S
S668 N669 1.613 . S
S668 N670 1.610 . S
N669 S668 1.613 . S
N669 C672 1.350 . S
N670 S668 1.610 . S
N670 C671 1.351 . S
C671 C665 1.428 . S
C671 N670 1.351 . S
C671 C672 1.434 . S
C672 C663 1.429 . S
C672 N669 1.350 . S
C672 C671 1.434 . S
C673 C674 1.369 . S
C673 C675 1.419 . S
C673 H677 0.930 . S
C674 C673 1.369 . S
C674 C683 1.429 . S
C675 C673 1.419 . S
C675 C676 1.363 . S
C675 H678 0.929 . S
C676 C675 1.363 . S
C676 C682 1.428 . S
H677 C673 0.930 . S
H678 C675 0.929 . S
S679 N680 1.613 . S
S679 N681 1.610 . S
N680 S679 1.613 . S
N680 C683 1.350 . S
N681 S679 1.610 . S
N681 C682 1.351 . S
C682 C676 1.428 . S
C682 N681 1.351 . S
C682 C683 1.434 . S
C683 C674 1.429 . S
C683 N680 1.350 . S
C683 C682 1.434 . S
C684 C685 1.369 . S
C684 C686 1.419 . S
C684 H688 0.930 . S
C685 C684 1.369 . S
C685 C694 1.429 . S
C686 C684 1.419 . S
C686 C687 1.363 . S
C686 H689 0.929 . S
C687 C686 1.363 . S
C687 C693 1.428 . S
H688 C684 0.930 . S
H689 C686 0.929 . S
S690 N691 1.613 . S
S690 N692 1.610 . S
N691 S690 1.613 . S
N691 C694 1.350 . S
N692 S690 1.610 . S
N692 C693 1.351 . S
C693 C687 1.428 . S
C693 N692 1.351 . S
C693 C694 1.434 . S
C694 C685 1.429 . S
C694 N691 1.350 . S
C694 C693 1.434 . S
C695 C696 1.369 . S
C695 C697 1.419 . S
C695 H699 0.930 . S
C696 C695 1.369 . S
C696 C705 1.429 . S
C697 C695 1.419 . S
C697 C698 1.363 . S
C697 H700 0.929 . S
C698 C697 1.363 . S
C698 C704 1.428 . S
H699 C695 0.930 . S
H700 C697 0.929 . S
S701 N702 1.613 . S
S701 N703 1.610 . S
N702 S701 1.613 . S
N702 C705 1.350 . S
N703 S701 1.610 . S
N703 C704 1.351 . S
C704 C698 1.428 . S
C704 N703 1.351 . S
C704 C705 1.434 . S
C705 C696 1.429 . S
C705 N702 1.350 . S
C705 C704 1.434 . S
C706 C707 1.369 . S
C706 C708 1.419 . S
C706 H710 0.930 . S
C707 C706 1.369 . S
C707 C716 1.429 . S
C708 C706 1.419 . S
C708 C709 1.363 . S
C708 H711 0.929 . S
C709 C708 1.363 . S
C709 C715 1.428 . S
H710 C706 0.930 . S
H711 C708 0.929 . S
S712 N713 1.613 . S
S712 N714 1.610 . S
N713 S712 1.613 . S
N713 C716 1.350 . S
N714 S712 1.610 . S
N714 C715 1.351 . S
C715 C709 1.428 . S
C715 N714 1.351 . S
C715 C716 1.434 . S
C716 C707 1.429 . S
C716 N713 1.350 . S
C716 C715 1.434 . S
C717 C718 1.369 . S
C717 C719 1.419 . S
C717 H721 0.930 . S
C718 C717 1.369 . S
C718 C727 1.429 . S
C719 C717 1.419 . S
C719 C720 1.363 . S
C719 H722 0.929 . S
C720 C719 1.363 . S
C720 C726 1.428 . S
H721 C717 0.930 . S
H722 C719 0.929 . S
S723 N724 1.613 . S
S723 N725 1.610 . S
N724 S723 1.613 . S
N724 C727 1.350 . S
N725 S723 1.610 . S
N725 C726 1.351 . S
C726 C720 1.428 . S
C726 N725 1.351 . S
C726 C727 1.434 . S
C727 C718 1.429 . S
C727 N724 1.350 . S
C727 C726 1.434 . S
C728 C729 1.369 . S
C728 C730 1.419 . S
C728 H732 0.930 . S
C729 C728 1.369 . S
C729 C738 1.429 1_565 S
C730 C728 1.419 . S
C730 C731 1.363 1_565 S
C730 H733 0.929 . S
C731 C730 1.363 1_545 S
C731 C737 1.428 . S
H732 C728 0.930 . S
H733 C730 0.929 . S
S734 N735 1.613 . S
S734 N736 1.610 . S
N735 S734 1.613 . S
N735 C738 1.350 . S
N736 S734 1.610 . S
N736 C737 1.351 . S
C737 C731 1.428 . S
C737 N736 1.351 . S
C737 C738 1.434 . S
C738 C729 1.429 1_545 S
C738 N735 1.350 . S
C738 C737 1.434 . S
C739 C740 1.369 . S
C739 C741 1.419 . S
C739 H743 0.930 . S
C740 C739 1.369 . S
C740 C749 1.429 1_545 S
C741 C739 1.419 . S
C741 C742 1.363 1_545 S
C741 H744 0.929 . S
C742 C741 1.363 1_565 S
C742 C748 1.428 . S
H743 C739 0.930 . S
H744 C741 0.929 . S
S745 N746 1.613 . S
S745 N747 1.610 . S
N746 S745 1.613 . S
N746 C749 1.350 . S
N747 S745 1.610 . S
N747 C748 1.351 . S
C748 C742 1.428 . S
C748 N747 1.351 . S
C748 C749 1.434 . S
C749 C740 1.429 1_565 S
C749 N746 1.350 . S
C749 C748 1.434 . S
C750 C751 1.369 1_565 S
C750 C752 1.419 . S
C750 H754 0.930 . S
C751 C750 1.369 1_545 S
C751 C760 1.429 . S
C752 C750 1.419 . S
C752 C753 1.363 . S
C752 H755 0.929 . S
C753 C752 1.363 . S
C753 C759 1.428 1_565 S
H754 C750 0.930 . S
H755 C752 0.929 . S
S756 N757 1.613 . S
S756 N758 1.610 . S
N757 S756 1.613 . S
N757 C760 1.350 . S
N758 S756 1.610 . S
N758 C759 1.351 . S
C759 C753 1.428 1_545 S
C759 N758 1.351 . S
C759 C760 1.434 . S
C760 C751 1.429 . S
C760 N757 1.350 . S
C760 C759 1.434 . S
C761 C762 1.369 . S
C761 C763 1.419 . S
C761 H765 0.930 . S
C762 C761 1.369 . S
C762 C771 1.429 1_545 S
C763 C761 1.419 . S
C763 C764 1.363 1_545 S
C763 H766 0.929 . S
C764 C763 1.363 1_565 S
C764 C770 1.428 . S
H765 C761 0.930 . S
H766 C763 0.929 . S
S767 N768 1.613 . S
S767 N769 1.610 . S
N768 S767 1.613 . S
N768 C771 1.350 . S
N769 S767 1.610 . S
N769 C770 1.351 . S
C770 C764 1.428 . S
C770 N769 1.351 . S
C770 C771 1.434 . S
C771 C762 1.429 1_565 S
C771 N768 1.350 . S
C771 C770 1.434 . S
C772 C773 1.369 . S
C772 C774 1.419 . S
C772 H776 0.930 . S
C773 C772 1.369 . S
C773 C782 1.429 . S
C774 C772 1.419 . S
C774 C775 1.363 . S
C774 H777 0.929 . S
C775 C774 1.363 . S
C775 C781 1.428 . S
H776 C772 0.930 . S
H777 C774 0.929 . S
S778 N779 1.613 . S
S778 N780 1.610 . S
N779 S778 1.613 . S
N779 C782 1.350 . S
N780 S778 1.610 . S
N780 C781 1.351 . S
C781 C775 1.428 . S
C781 N780 1.351 . S
C781 C782 1.434 . S
C782 C773 1.429 . S
C782 N779 1.350 . S
C782 C781 1.434 . S
C783 C784 1.369 . S
C783 C785 1.419 . S
C783 H787 0.930 . S
C784 C783 1.369 . S
C784 C793 1.429 . S
C785 C783 1.419 . S
C785 C786 1.363 . S
C785 H788 0.929 . S
C786 C785 1.363 . S
C786 C792 1.428 . S
H787 C783 0.930 . S
H788 C785 0.929 . S
S789 N790 1.613 . S
S789 N791 1.610 . S
N790 S789 1.613 . S
N790 C793 1.350 . S
N791 S789 1.610 . S
N791 C792 1.351 . S
C792 C786 1.428 . S
C792 N791 1.351 . S
C792 C793 1.434 . S
C793 C784 1.429 . S
C793 N790 1.350 . S
C793 C792 1.434 . S
C794 C795 1.369 . S
C794 C796 1.419 . S
C794 H798 0.930 . S
C795 C794 1.369 . S
C795 C804 1.429 . S
C796 C794 1.419 . S
C796 C797 1.363 . S
C796 H799 0.929 . S
C797 C796 1.363 . S
C797 C803 1.428 . S
H798 C794 0.930 . S
H799 C796 0.929 . S
S800 N801 1.613 . S
S800 N802 1.610 . S
N801 S800 1.613 . S
N801 C804 1.350 . S
N802 S800 1.610 . S
N802 C803 1.351 . S
C803 C797 1.428 . S
C803 N802 1.351 . S
C803 C804 1.434 . S
C804 C795 1.429 . S
C804 N801 1.350 . S
C804 C803 1.434 . S
C805 C806 1.369 . S
C805 C807 1.419 . S
C805 H809 0.930 . S
C806 C805 1.369 . S
C806 C815 1.429 . S
C807 C805 1.419 . S
C807 C808 1.363 . S
C807 H810 0.929 . S
C808 C807 1.363 . S
C808 C814 1.428 . S
H809 C805 0.930 . S
H810 C807 0.929 . S
S811 N812 1.613 . S
S811 N813 1.610 . S
N812 S811 1.613 . S
N812 C815 1.350 . S
N813 S811 1.610 . S
N813 C814 1.351 . S
C814 C808 1.428 . S
C814 N813 1.351 . S
C814 C815 1.434 . S
C815 C806 1.429 . S
C815 N812 1.350 . S
C815 C814 1.434 . S
C816 C817 1.369 . S
C816 C818 1.419 1_556 S
C816 H820 0.930 . S
C817 C816 1.369 . S
C817 C826 1.429 . S
C818 C816 1.419 1_554 S
C818 C819 1.363 . S
C818 H821 0.929 . S
C819 C818 1.363 . S
C819 C825 1.428 . S
H820 C816 0.930 . S
H821 C818 0.929 . S
S822 N823 1.616 1_564 S
S822 N824 1.608 1_565 S
N823 S822 1.616 1_546 S
N823 C826 1.350 . S
N824 S822 1.608 1_545 S
N824 C825 1.351 . S
C825 C819 1.428 . S
C825 N824 1.351 . S
C825 C826 1.434 1_554 S
C826 C817 1.429 . S
C826 N823 1.350 . S
C826 C825 1.434 1_556 S
C827 C828 1.369 . S
C827 C829 1.419 1_556 S
C827 H831 0.930 . S
C828 C827 1.369 . S
C828 C837 1.429 . S
C829 C827 1.419 1_554 S
C829 C830 1.363 . S
C829 H832 0.929 . S
C830 C829 1.363 . S
C830 C836 1.428 . S
H831 C827 0.930 . S
H832 C829 0.929 . S
S833 N834 1.616 1_554 S
S833 N835 1.608 . S
N834 S833 1.616 1_556 S
N834 C837 1.350 . S
N835 S833 1.608 . S
N835 C836 1.351 . S
C836 C830 1.428 . S
C836 N835 1.351 . S
C836 C837 1.434 1_554 S
C837 C828 1.429 . S
C837 N834 1.350 . S
C837 C836 1.434 1_556 S
C838 C839 1.369 . S
C838 C840 1.419 . S
C838 H842 0.930 . S
C839 C838 1.369 . S
C839 C848 1.429 . S
C840 C838 1.419 . S
C840 C841 1.363 . S
C840 H843 0.929 . S
C841 C840 1.363 . S
C841 C847 1.428 . S
H842 C838 0.930 . S
H843 C840 0.929 . S
S844 N845 1.613 . S
S844 N846 1.610 . S
N845 S844 1.613 . S
N845 C848 1.350 . S
N846 S844 1.610 . S
N846 C847 1.351 . S
C847 C841 1.428 . S
C847 N846 1.351 . S
C847 C848 1.434 . S
C848 C839 1.429 . S
C848 N845 1.350 . S
C848 C847 1.434 . S
C849 C850 1.369 . S
C849 C851 1.419 . S
C849 H853 0.930 . S
C850 C849 1.369 . S
C850 C859 1.429 . S
C851 C849 1.419 . S
C851 C852 1.363 . S
C851 H854 0.929 . S
C852 C851 1.363 . S
C852 C858 1.428 . S
H853 C849 0.930 . S
H854 C851 0.929 . S
S855 N856 1.613 . S
S855 N857 1.610 . S
N856 S855 1.613 . S
N856 C859 1.350 . S
N857 S855 1.610 . S
N857 C858 1.351 . S
C858 C852 1.428 . S
C858 N857 1.351 . S
C858 C859 1.434 . S
C859 C850 1.429 . S
C859 N856 1.350 . S
C859 C858 1.434 . S
C860 C861 1.369 . S
C860 C862 1.419 1_554 S
C860 H864 0.930 . S
C861 C860 1.369 . S
C861 C870 1.429 . S
C862 C860 1.419 1_556 S
C862 C863 1.363 . S
C862 H865 0.929 . S
C863 C862 1.363 . S
C863 C869 1.428 . S
H864 C860 0.930 . S
H865 C862 0.929 . S
S866 N867 1.616 1_556 S
S866 N868 1.608 . S
N867 S866 1.616 1_554 S
N867 C870 1.350 . S
N868 S866 1.608 . S
N868 C869 1.351 . S
C869 C863 1.428 . S
C869 N868 1.351 . S
C869 C870 1.434 1_556 S
C870 C861 1.429 . S
C870 N867 1.350 . S
C870 C869 1.434 1_554 S
C871 C872 1.369 . S
C871 C873 1.419 1_556 S
C871 H875 0.930 . S
C872 C871 1.369 . S
C872 C881 1.429 . S
C873 C871 1.419 1_554 S
C873 C874 1.363 . S
C873 H876 0.929 . S
C874 C873 1.363 . S
C874 C880 1.428 . S
H875 C871 0.930 . S
H876 C873 0.929 . S
S877 N878 1.616 1_554 S
S877 N879 1.608 . S
N878 S877 1.616 1_556 S
N878 C881 1.350 . S
N879 S877 1.608 . S
N879 C880 1.351 . S
C880 C874 1.428 . S
C880 N879 1.351 . S
C880 C881 1.434 1_554 S
C881 C872 1.429 . S
C881 N878 1.350 . S
C881 C880 1.434 1_556 S
C882 C883 1.369 . S
C882 C884 1.419 . S
C882 H886 0.930 . S
C883 C882 1.369 . S
C883 C892 1.429 . S
C884 C882 1.419 . S
C884 C885 1.363 . S
C884 H887 0.929 . S
C885 C884 1.363 . S
C885 C891 1.428 . S
H886 C882 0.930 . S
H887 C884 0.929 . S
S888 N889 1.613 . S
S888 N890 1.610 . S
N889 S888 1.613 . S
N889 C892 1.350 . S
N890 S888 1.610 . S
N890 C891 1.351 . S
C891 C885 1.428 . S
C891 N890 1.351 . S
C891 C892 1.434 . S
C892 C883 1.429 . S
C892 N889 1.350 . S
C892 C891 1.434 . S
C893 C894 1.369 . S
C893 C895 1.419 . S
C893 H897 0.930 . S
C894 C893 1.369 . S
C894 C903 1.429 . S
C895 C893 1.419 . S
C895 C896 1.363 . S
C895 H898 0.929 . S
C896 C895 1.363 . S
C896 C902 1.428 . S
H897 C893 0.930 . S
H898 C895 0.929 . S
S899 N900 1.613 . S
S899 N901 1.610 . S
N900 S899 1.613 . S
N900 C903 1.350 . S
N901 S899 1.610 . S
N901 C902 1.351 . S
C902 C896 1.428 . S
C902 N901 1.351 . S
C902 C903 1.434 . S
C903 C894 1.429 . S
C903 N900 1.350 . S
C903 C902 1.434 . S
C904 C905 1.369 . S
C904 C906 1.419 1_655 S
C904 H908 0.930 . S
C905 C904 1.369 . S
C905 C914 1.429 1_565 S
C906 C904 1.419 1_455 S
C906 C907 1.363 1_565 S
C906 H909 0.929 . S
C907 C906 1.363 1_545 S
C907 C913 1.428 . S
H908 C904 0.930 . S
H909 C906 0.929 . S
S910 N911 1.613 . S
S910 N912 1.610 1_655 S
N911 S910 1.613 . S
N911 C914 1.350 . S
N912 S910 1.610 1_455 S
N912 C913 1.351 . S
C913 C907 1.428 . S
C913 N912 1.351 . S
C913 C914 1.434 1_455 S
C914 C905 1.429 1_545 S
C914 N911 1.350 . S
C914 C913 1.434 1_655 S
C915 C916 1.369 . S
C915 C917 1.419 1_655 S
C915 H919 0.930 . S
C916 C915 1.369 . S
C916 C925 1.429 1_545 S
C917 C915 1.419 1_455 S
C917 C918 1.363 1_545 S
C917 H920 0.929 . S
C918 C917 1.363 1_565 S
C918 C924 1.428 . S
H919 C915 0.930 . S
H920 C917 0.929 . S
S921 N922 1.613 . S
S921 N923 1.610 1_655 S
N922 S921 1.613 . S
N922 C925 1.350 . S
N923 S921 1.610 1_455 S
N923 C924 1.351 . S
C924 C918 1.428 . S
C924 N923 1.351 . S
C924 C925 1.434 1_455 S
C925 C916 1.429 1_565 S
C925 N922 1.350 . S
C925 C924 1.434 1_655 S
C926 C927 1.369 . S
C926 C928 1.419 1_455 S
C926 H930 0.930 . S
C927 C926 1.369 . S
C927 C936 1.429 1_545 S
C928 C926 1.419 1_655 S
C928 C929 1.363 1_545 S
C928 H931 0.929 . S
C929 C928 1.363 1_565 S
C929 C935 1.428 . S
H930 C926 0.930 . S
H931 C928 0.929 . S
S932 N933 1.613 . S
S932 N934 1.610 1_455 S
N933 S932 1.613 . S
N933 C936 1.350 . S
N934 S932 1.610 1_655 S
N934 C935 1.351 . S
C935 C929 1.428 . S
C935 N934 1.351 . S
C935 C936 1.434 1_655 S
C936 C927 1.429 1_565 S
C936 N933 1.350 . S
C936 C935 1.434 1_455 S
C937 C938 1.369 1_565 S
C937 C939 1.419 1_655 S
C937 H941 0.930 . S
C938 C937 1.369 1_545 S
C938 C947 1.429 . S
C939 C937 1.419 1_455 S
C939 C940 1.363 . S
C939 H942 0.929 . S
C940 C939 1.363 . S
C940 C946 1.428 1_565 S
H941 C937 0.930 . S
H942 C939 0.929 . S
S943 N944 1.613 1_455 S
S943 N945 1.610 . S
N944 S943 1.613 1_655 S
N944 C947 1.350 . S
N945 S943 1.610 . S
N945 C946 1.351 . S
C946 C940 1.428 1_545 S
C946 N945 1.351 . S
C946 C947 1.434 1_455 S
C947 C938 1.429 . S
C947 N944 1.350 . S
C947 C946 1.434 1_655 S
C948 C949 1.369 . S
C948 C950 1.419 . S
C948 H952 0.930 . S
C949 C948 1.369 . S
C949 C958 1.429 . S
C950 C948 1.419 . S
C950 C951 1.363 . S
C950 H953 0.929 . S
C951 C950 1.363 . S
C951 C957 1.428 . S
H952 C948 0.930 . S
H953 C950 0.929 . S
S954 N955 1.613 . S
S954 N956 1.610 . S
N955 S954 1.613 . S
N955 C958 1.350 . S
N956 S954 1.610 . S
N956 C957 1.351 . S
C957 C951 1.428 . S
C957 N956 1.351 . S
C957 C958 1.434 . S
C958 C949 1.429 . S
C958 N955 1.350 . S
C958 C957 1.434 . S
C959 C960 1.369 . S
C959 C961 1.419 . S
C959 H963 0.930 . S
C960 C959 1.369 . S
C960 C969 1.429 . S
C961 C959 1.419 . S
C961 C962 1.363 . S
C961 H964 0.929 . S
C962 C961 1.363 . S
C962 C968 1.428 . S
H963 C959 0.930 . S
H964 C961 0.929 . S
S965 N966 1.613 . S
S965 N967 1.610 . S
N966 S965 1.613 . S
N966 C969 1.350 . S
N967 S965 1.610 . S
N967 C968 1.351 . S
C968 C962 1.428 . S
C968 N967 1.351 . S
C968 C969 1.434 . S
C969 C960 1.429 . S
C969 N966 1.350 . S
C969 C968 1.434 . S
C970 C971 1.369 . S
C970 C972 1.419 . S
C970 H974 0.930 . S
C971 C970 1.369 . S
C971 C980 1.429 . S
C972 C970 1.419 . S
C972 C973 1.363 . S
C972 H975 0.929 . S
C973 C972 1.363 . S
C973 C979 1.428 . S
H974 C970 0.930 . S
H975 C972 0.929 . S
S976 N977 1.613 . S
S976 N978 1.610 . S
N977 S976 1.613 . S
N977 C980 1.350 . S
N978 S976 1.610 . S
N978 C979 1.351 . S
C979 C973 1.428 . S
C979 N978 1.351 . S
C979 C980 1.434 . S
C980 C971 1.429 . S
C980 N977 1.350 . S
C980 C979 1.434 . S
C981 C982 1.369 . S
C981 C983 1.419 . S
C981 H985 0.930 . S
C982 C981 1.369 . S
C982 C991 1.429 . S
C983 C981 1.419 . S
C983 C984 1.363 . S
C983 H986 0.929 . S
C984 C983 1.363 . S
C984 C990 1.428 . S
H985 C981 0.930 . S
H986 C983 0.929 . S
S987 N988 1.613 . S
S987 N989 1.610 . S
N988 S987 1.613 . S
N988 C991 1.350 . S
N989 S987 1.610 . S
N989 C990 1.351 . S
C990 C984 1.428 . S
C990 N989 1.351 . S
C990 C991 1.434 . S
C991 C982 1.429 . S
C991 N988 1.350 . S
C991 C990 1.434 . S
C992 C993 1.369 . S
C992 C994 1.419 . S
C992 H996 0.930 . S
C993 C992 1.369 . S
C993 C1002 1.429 . S
C994 C992 1.419 . S
C994 C995 1.363 . S
C994 H997 0.929 . S
C995 C994 1.363 . S
C995 C1001 1.428 . S
H996 C992 0.930 . S
H997 C994 0.929 . S
S998 N999 1.613 . S
S998 N1000 1.610 . S
N999 S998 1.613 . S
N999 C1002 1.350 . S
N1000 S998 1.610 . S
N1000 C1001 1.351 . S
C1001 C995 1.428 . S
C1001 N1000 1.351 . S
C1001 C1002 1.434 . S
C1002 C993 1.429 . S
C1002 N999 1.350 . S
C1002 C1001 1.434 . S
C1003 C1004 1.369 . S
C1003 C1005 1.419 . S
C1003 H1007 0.930 . S
C1004 C1003 1.369 . S
C1004 C1013 1.429 . S
C1005 C1003 1.419 . S
C1005 C1006 1.363 . S
C1005 H1008 0.929 . S
C1006 C1005 1.363 . S
C1006 C1012 1.428 . S
H1007 C1003 0.930 . S
H1008 C1005 0.929 . S
S1009 N1010 1.613 . S
S1009 N1011 1.610 . S
N1010 S1009 1.613 . S
N1010 C1013 1.350 . S
N1011 S1009 1.610 . S
N1011 C1012 1.351 . S
C1012 C1006 1.428 . S
C1012 N1011 1.351 . S
C1012 C1013 1.434 . S
C1013 C1004 1.429 . S
C1013 N1010 1.350 . S
C1013 C1012 1.434 . S
C1014 C1015 1.369 . S
C1014 C1016 1.419 . S
C1014 H1018 0.930 . S
C1015 C1014 1.369 . S
C1015 C1024 1.429 . S
C1016 C1014 1.419 . S
C1016 C1017 1.363 . S
C1016 H1019 0.929 . S
C1017 C1016 1.363 . S
C1017 C1023 1.428 . S
H1018 C1014 0.930 . S
H1019 C1016 0.929 . S
S1020 N1021 1.613 . S
S1020 N1022 1.610 . S
N1021 S1020 1.613 . S
N1021 C1024 1.350 . S
N1022 S1020 1.610 . S
N1022 C1023 1.351 . S
C1023 C1017 1.428 . S
C1023 N1022 1.351 . S
C1023 C1024 1.434 . S
C1024 C1015 1.429 . S
C1024 N1021 1.350 . S
C1024 C1023 1.434 . S
C1025 C1026 1.369 . S
C1025 C1027 1.419 . S
C1025 H1029 0.930 . S
C1026 C1025 1.369 . S
C1026 C1035 1.429 . S
C1027 C1025 1.419 . S
C1027 C1028 1.363 . S
C1027 H1030 0.929 . S
C1028 C1027 1.363 . S
C1028 C1034 1.428 . S
H1029 C1025 0.930 . S
H1030 C1027 0.929 . S
S1031 N1032 1.613 . S
S1031 N1033 1.610 . S
N1032 S1031 1.613 . S
N1032 C1035 1.350 . S
N1033 S1031 1.610 . S
N1033 C1034 1.351 . S
C1034 C1028 1.428 . S
C1034 N1033 1.351 . S
C1034 C1035 1.434 . S
C1035 C1026 1.429 . S
C1035 N1032 1.350 . S
C1035 C1034 1.434 . S
C1036 C1037 1.369 . S
C1036 C1038 1.419 . S
C1036 H1040 0.930 . S
C1037 C1036 1.369 . S
C1037 C1046 1.429 . S
C1038 C1036 1.419 . S
C1038 C1039 1.363 . S
C1038 H1041 0.929 . S
C1039 C1038 1.363 . S
C1039 C1045 1.428 . S
H1040 C1036 0.930 . S
H1041 C1038 0.929 . S
S1042 N1043 1.613 . S
S1042 N1044 1.610 . S
N1043 S1042 1.613 . S
N1043 C1046 1.350 . S
N1044 S1042 1.610 . S
N1044 C1045 1.351 . S
C1045 C1039 1.428 . S
C1045 N1044 1.351 . S
C1045 C1046 1.434 . S
C1046 C1037 1.429 . S
C1046 N1043 1.350 . S
C1046 C1045 1.434 . S
C1047 C1048 1.369 . S
C1047 C1049 1.419 . S
C1047 H1051 0.930 . S
C1048 C1047 1.369 . S
C1048 C1057 1.429 . S
C1049 C1047 1.419 . S
C1049 C1050 1.363 . S
C1049 H1052 0.929 . S
C1050 C1049 1.363 . S
C1050 C1056 1.428 . S
H1051 C1047 0.930 . S
H1052 C1049 0.929 . S
S1053 N1054 1.613 . S
S1053 N1055 1.610 . S
N1054 S1053 1.613 . S
N1054 C1057 1.350 . S
N1055 S1053 1.610 . S
N1055 C1056 1.351 . S
C1056 C1050 1.428 . S
C1056 N1055 1.351 . S
C1056 C1057 1.434 . S
C1057 C1048 1.429 . S
C1057 N1054 1.350 . S
C1057 C1056 1.434 . S
C1058 C1059 1.369 . S
C1058 C1060 1.419 . S
C1058 H1062 0.930 . S
C1059 C1058 1.369 . S
C1059 C1068 1.429 . S
C1060 C1058 1.419 . S
C1060 C1061 1.363 . S
C1060 H1063 0.929 . S
C1061 C1060 1.363 . S
C1061 C1067 1.428 . S
H1062 C1058 0.930 . S
H1063 C1060 0.929 . S
S1064 N1065 1.613 . S
S1064 N1066 1.610 . S
N1065 S1064 1.613 . S
N1065 C1068 1.350 . S
N1066 S1064 1.610 . S
N1066 C1067 1.351 . S
C1067 C1061 1.428 . S
C1067 N1066 1.351 . S
C1067 C1068 1.434 . S
C1068 C1059 1.429 . S
C1068 N1065 1.350 . S
C1068 C1067 1.434 . S
C1069 C1070 1.369 . S
C1069 C1071 1.419 . S
C1069 H1073 0.930 . S
C1070 C1069 1.369 . S
C1070 C1079 1.429 . S
C1071 C1069 1.419 . S
C1071 C1072 1.363 . S
C1071 H1074 0.929 . S
C1072 C1071 1.363 . S
C1072 C1078 1.428 . S
H1073 C1069 0.930 . S
H1074 C1071 0.929 . S
S1075 N1076 1.613 . S
S1075 N1077 1.610 . S
N1076 S1075 1.613 . S
N1076 C1079 1.350 . S
N1077 S1075 1.610 . S
N1077 C1078 1.351 . S
C1078 C1072 1.428 . S
C1078 N1077 1.351 . S
C1078 C1079 1.434 . S
C1079 C1070 1.429 . S
C1079 N1076 1.350 . S
C1079 C1078 1.434 . S
C1080 C1081 1.369 . S
C1080 C1082 1.419 . S
C1080 H1084 0.930 . S
C1081 C1080 1.369 . S
C1081 C1090 1.429 . S
C1082 C1080 1.419 . S
C1082 C1083 1.363 . S
C1082 H1085 0.929 . S
C1083 C1082 1.363 . S
C1083 C1089 1.428 . S
H1084 C1080 0.930 . S
H1085 C1082 0.929 . S
S1086 N1087 1.613 . S
S1086 N1088 1.610 . S
N1087 S1086 1.613 . S
N1087 C1090 1.350 . S
N1088 S1086 1.610 . S
N1088 C1089 1.351 . S
C1089 C1083 1.428 . S
C1089 N1088 1.351 . S
C1089 C1090 1.434 . S
C1090 C1081 1.429 . S
C1090 N1087 1.350 . S
C1090 C1089 1.434 . S
C1091 C1092 1.369 . S
C1091 C1093 1.419 . S
C1091 H1095 0.930 . S
C1092 C1091 1.369 . S
C1092 C1101 1.429 . S
C1093 C1091 1.419 . S
C1093 C1094 1.363 . S
C1093 H1096 0.929 . S
C1094 C1093 1.363 . S
C1094 C1100 1.428 . S
H1095 C1091 0.930 . S
H1096 C1093 0.929 . S
S1097 N1098 1.613 . S
S1097 N1099 1.610 . S
N1098 S1097 1.613 . S
N1098 C1101 1.350 . S
N1099 S1097 1.610 . S
N1099 C1100 1.351 . S
C1100 C1094 1.428 . S
C1100 N1099 1.351 . S
C1100 C1101 1.434 . S
C1101 C1092 1.429 . S
C1101 N1098 1.350 . S
C1101 C1100 1.434 . S
C1102 C1103 1.369 . S
C1102 C1104 1.419 . S
C1102 H1106 0.930 . S
C1103 C1102 1.369 . S
C1103 C1112 1.429 . S
C1104 C1102 1.419 . S
C1104 C1105 1.363 . S
C1104 H1107 0.929 . S
C1105 C1104 1.363 . S
C1105 C1111 1.428 . S
H1106 C1102 0.930 . S
H1107 C1104 0.929 . S
S1108 N1109 1.613 . S
S1108 N1110 1.610 . S
N1109 S1108 1.613 . S
N1109 C1112 1.350 . S
N1110 S1108 1.610 . S
N1110 C1111 1.351 . S
C1111 C1105 1.428 . S
C1111 N1110 1.351 . S
C1111 C1112 1.434 . S
C1112 C1103 1.429 . S
C1112 N1109 1.350 . S
C1112 C1111 1.434 . S
C1113 C1114 1.369 . S
C1113 C1115 1.419 . S
C1113 H1117 0.930 . S
C1114 C1113 1.369 . S
C1114 C1123 1.429 . S
C1115 C1113 1.419 . S
C1115 C1116 1.363 . S
C1115 H1118 0.929 . S
C1116 C1115 1.363 . S
C1116 C1122 1.428 . S
H1117 C1113 0.930 . S
H1118 C1115 0.929 . S
S1119 N1120 1.613 . S
S1119 N1121 1.610 . S
N1120 S1119 1.613 . S
N1120 C1123 1.350 . S
N1121 S1119 1.610 . S
N1121 C1122 1.351 . S
C1122 C1116 1.428 . S
C1122 N1121 1.351 . S
C1122 C1123 1.434 . S
C1123 C1114 1.429 . S
C1123 N1120 1.350 . S
C1123 C1122 1.434 . S
C1124 C1125 1.369 . S
C1124 C1126 1.419 . S
C1124 H1128 0.930 . S
C1125 C1124 1.369 . S
C1125 C1134 1.429 . S
C1126 C1124 1.419 . S
C1126 C1127 1.363 . S
C1126 H1129 0.929 . S
C1127 C1126 1.363 . S
C1127 C1133 1.428 . S
H1128 C1124 0.930 . S
H1129 C1126 0.929 . S
S1130 N1131 1.613 . S
S1130 N1132 1.610 . S
N1131 S1130 1.613 . S
N1131 C1134 1.350 . S
N1132 S1130 1.610 . S
N1132 C1133 1.351 . S
C1133 C1127 1.428 . S
C1133 N1132 1.351 . S
C1133 C1134 1.434 . S
C1134 C1125 1.429 . S
C1134 N1131 1.350 . S
C1134 C1133 1.434 . S
C1135 C1136 1.369 . S
C1135 C1137 1.419 . S
C1135 H1139 0.930 . S
C1136 C1135 1.369 . S
C1136 C1145 1.429 . S
C1137 C1135 1.419 . S
C1137 C1138 1.363 . S
C1137 H1140 0.929 . S
C1138 C1137 1.363 . S
C1138 C1144 1.428 . S
H1139 C1135 0.930 . S
H1140 C1137 0.929 . S
S1141 N1142 1.613 . S
S1141 N1143 1.610 . S
N1142 S1141 1.613 . S
N1142 C1145 1.350 . S
N1143 S1141 1.610 . S
N1143 C1144 1.351 . S
C1144 C1138 1.428 . S
C1144 N1143 1.351 . S
C1144 C1145 1.434 . S
C1145 C1136 1.429 . S
C1145 N1142 1.350 . S
C1145 C1144 1.434 . S
C1146 C1147 1.369 . S
C1146 C1148 1.419 . S
C1146 H1150 0.930 . S
C1147 C1146 1.369 . S
C1147 C1156 1.429 . S
C1148 C1146 1.419 . S
C1148 C1149 1.363 . S
C1148 H1151 0.929 . S
C1149 C1148 1.363 . S
C1149 C1155 1.428 . S
H1150 C1146 0.930 . S
H1151 C1148 0.929 . S
S1152 N1153 1.613 . S
S1152 N1154 1.610 . S
N1153 S1152 1.613 . S
N1153 C1156 1.350 . S
N1154 S1152 1.610 . S
N1154 C1155 1.351 . S
C1155 C1149 1.428 . S
C1155 N1154 1.351 . S
C1155 C1156 1.434 . S
C1156 C1147 1.429 . S
C1156 N1153 1.350 . S
C1156 C1155 1.434 . S
C1157 C1158 1.369 . S
C1157 C1159 1.419 . S
C1157 H1161 0.930 . S
C1158 C1157 1.369 . S
C1158 C1167 1.429 . S
C1159 C1157 1.419 . S
C1159 C1160 1.363 . S
C1159 H1162 0.929 . S
C1160 C1159 1.363 . S
C1160 C1166 1.428 . S
H1161 C1157 0.930 . S
H1162 C1159 0.929 . S
S1163 N1164 1.613 . S
S1163 N1165 1.610 . S
N1164 S1163 1.613 . S
N1164 C1167 1.350 . S
N1165 S1163 1.610 . S
N1165 C1166 1.351 . S
C1166 C1160 1.428 . S
C1166 N1165 1.351 . S
C1166 C1167 1.434 . S
C1167 C1158 1.429 . S
C1167 N1164 1.350 . S
C1167 C1166 1.434 . S
C641 C3 1.604 . S
C643 C363 1.602 . S
C652 C43 1.603 . S
C654 C323 1.602 . S
C663 C443 1.601 . S
C665 C83 1.604 . S
C674 C123 1.601 . S
C676 C403 1.604 . S
C685 C542 1.604 . S
C687 C182 1.601 . S
C696 C502 1.602 . S
C698 C222 1.602 . S
C707 C622 1.604 . S
C709 C262 1.601 . S
C718 C302 1.601 . S
C720 C582 1.604 . S
C729 C95 1.779 . S
C731 C15 1.781 . S
C740 C135 1.779 . S
C742 C55 1.782 . S
C751 C242 1.781 . S
C753 C162 1.779 . S
C762 C202 1.779 . S
C764 C282 1.781 . S
C773 C415 1.779 . S
C775 C335 1.782 . S
C784 C455 1.779 . S
C786 C375 1.782 . S
C795 C482 1.782 . S
C797 C562 1.780 . S
C806 C522 1.778 . S
C808 C602 1.780 . S
C817 C215 1.543 . S
C819 C2 1.543 . S
C828 C175 1.550 . S
C830 C42 1.549 . S
C839 C82 1.543 . S
C841 C295 1.544 . S
C850 C255 1.550 . S
C852 C122 1.549 . S
C861 C322 1.541 . S
C863 C535 1.542 . S
C872 C495 1.550 . S
C874 C362 1.549 . S
C883 C402 1.545 . S
C885 C615 1.546 . S
C894 C575 1.550 . S
C896 C442 1.549 . S
C905 C62 1.641 . S
C907 C22 1.636 . S
C916 C142 1.642 . S
C918 C102 1.636 . S
C927 C203 1.642 . S
C929 C163 1.636 . S
C938 C243 1.638 . S
C940 C283 1.639 . S
C949 C382 1.642 . S
C951 C342 1.636 . S
C960 C462 1.642 . S
C962 C422 1.636 . S
C971 C483 1.638 . S
C973 C523 1.638 . S
C982 C563 1.635 . S
C984 C603 1.641 . S
C993 C9 1.469 . S
C995 C26 1.475 . S
C1004 C49 1.469 . S
C1006 C66 1.475 . S
C1015 C89 1.474 . S
C1017 C106 1.471 . S
C1026 C146 1.472 . S
C1028 C129 1.473 . S
C1037 C186 1.474 . S
C1039 C169 1.471 . S
C1048 C209 1.469 . S
C1050 C226 1.475 . S
C1059 C266 1.471 . S
C1061 C249 1.474 . S
C1070 C306 1.470 . S
C1072 C289 1.475 . S
C1081 C346 1.471 1_545 S
C1083 C329 1.474 . S
C1092 C369 1.472 . S
C1094 C386 1.473 1_565 S
C1103 C426 1.471 1_565 S
C1105 C409 1.474 . S
C1114 C466 1.471 1_545 S
C1116 C449 1.474 . S
C1125 C506 1.473 . S
C1127 C489 1.473 1_565 S
C1136 C546 1.474 . S
C1138 C529 1.472 1_545 S
C1147 C569 1.469 1_545 S
C1149 C586 1.475 . S
C1158 C626 1.476 . S
C1160 C609 1.470 1_565 S
