# Generated by pormake.
# Topology unu, (4)-cn, num edge types: 1
# Building blocks:
#     Node 0, Type 0, BuildingBlock: AZAVOO_clean_sbu_0, # of connection points: 4
#     Node 1, Type 0, BuildingBlock: AZAVOO_clean_sbu_0, # of connection points: 4
#     Node 2, Type 0, BuildingBlock: AZAVOO_clean_sbu_0, # of connection points: 4
#     Node 3, Type 0, BuildingBlock: AZAVOO_clean_sbu_0, # of connection points: 4
#     Node 4, Type 0, BuildingBlock: AZAVOO_clean_sbu_0, # of connection points: 4
#     Node 5, Type 0, BuildingBlock: AZAVOO_clean_sbu_0, # of connection points: 4
#     Node 6, Type 0, BuildingBlock: AZAVOO_clean_sbu_0, # of connection points: 4
#     Node 7, Type 0, BuildingBlock: AZAVOO_clean_sbu_0, # of connection points: 4
#     Node 8, Type 0, BuildingBlock: AZAVOO_clean_sbu_0, # of connection points: 4
#     Node 9, Type 0, BuildingBlock: AZAVOO_clean_sbu_0, # of connection points: 4
#     Node 10, Type 0, BuildingBlock: AZAVOO_clean_sbu_0, # of connection points: 4
#     Node 11, Type 0, BuildingBlock: AZAVOO_clean_sbu_0, # of connection points: 4
#     Node 12, Type 0, BuildingBlock: AZAVOO_clean_sbu_0, # of connection points: 4
#     Node 13, Type 0, BuildingBlock: AZAVOO_clean_sbu_0, # of connection points: 4
#     Node 14, Type 0, BuildingBlock: AZAVOO_clean_sbu_0, # of connection points: 4
#     Node 15, Type 0, BuildingBlock: AZAVOO_clean_sbu_0, # of connection points: 4
#     Node 16, Type 0, BuildingBlock: AZAVOO_clean_sbu_0, # of connection points: 4
#     Node 17, Type 0, BuildingBlock: AZAVOO_clean_sbu_0, # of connection points: 4
#     Node 18, Type 0, BuildingBlock: AZAVOO_clean_sbu_0, # of connection points: 4
#     Node 19, Type 0, BuildingBlock: AZAVOO_clean_sbu_0, # of connection points: 4
#     Node 20, Type 0, BuildingBlock: AZAVOO_clean_sbu_0, # of connection points: 4
#     Node 21, Type 0, BuildingBlock: AZAVOO_clean_sbu_0, # of connection points: 4
#     Node 22, Type 0, BuildingBlock: AZAVOO_clean_sbu_0, # of connection points: 4
#     Node 23, Type 0, BuildingBlock: AZAVOO_clean_sbu_0, # of connection points: 4
#     Node 24, Type 0, BuildingBlock: AZAVOO_clean_sbu_0, # of connection points: 4
#     Node 25, Type 0, BuildingBlock: AZAVOO_clean_sbu_0, # of connection points: 4
#     Node 26, Type 0, BuildingBlock: AZAVOO_clean_sbu_0, # of connection points: 4
#     Node 27, Type 0, BuildingBlock: AZAVOO_clean_sbu_0, # of connection points: 4
#     Node 28, Type 0, BuildingBlock: AZAVOO_clean_sbu_0, # of connection points: 4
#     Node 29, Type 0, BuildingBlock: AZAVOO_clean_sbu_0, # of connection points: 4
#     Node 30, Type 0, BuildingBlock: AZAVOO_clean_sbu_0, # of connection points: 4
#     Node 31, Type 0, BuildingBlock: AZAVOO_clean_sbu_0, # of connection points: 4
#     Node 32, Type 0, BuildingBlock: AZAVOO_clean_sbu_0, # of connection points: 4
#     Node 33, Type 0, BuildingBlock: AZAVOO_clean_sbu_0, # of connection points: 4
#     Node 34, Type 0, BuildingBlock: AZAVOO_clean_sbu_0, # of connection points: 4
#     Node 35, Type 0, BuildingBlock: AZAVOO_clean_sbu_0, # of connection points: 4
#     Edge 36, Type (0, 0), BuildingBlock: UVAHIK_clean_linker_0, # of connection points: 2
#     Edge 37, Type (0, 0), BuildingBlock: UVAHIK_clean_linker_0, # of connection points: 2
#     Edge 38, Type (0, 0), BuildingBlock: UVAHIK_clean_linker_0, # of connection points: 2
#     Edge 39, Type (0, 0), BuildingBlock: UVAHIK_clean_linker_0, # of connection points: 2
#     Edge 40, Type (0, 0), BuildingBlock: UVAHIK_clean_linker_0, # of connection points: 2
#     Edge 41, Type (0, 0), BuildingBlock: UVAHIK_clean_linker_0, # of connection points: 2
#     Edge 42, Type (0, 0), BuildingBlock: UVAHIK_clean_linker_0, # of connection points: 2
#     Edge 43, Type (0, 0), BuildingBlock: UVAHIK_clean_linker_0, # of connection points: 2
#     Edge 44, Type (0, 0), BuildingBlock: UVAHIK_clean_linker_0, # of connection points: 2
#     Edge 45, Type (0, 0), BuildingBlock: UVAHIK_clean_linker_0, # of connection points: 2
#     Edge 46, Type (0, 0), BuildingBlock: UVAHIK_clean_linker_0, # of connection points: 2
#     Edge 47, Type (0, 0), BuildingBlock: UVAHIK_clean_linker_0, # of connection points: 2
#     Edge 48, Type (0, 0), BuildingBlock: UVAHIK_clean_linker_0, # of connection points: 2
#     Edge 49, Type (0, 0), BuildingBlock: UVAHIK_clean_linker_0, # of connection points: 2
#     Edge 50, Type (0, 0), BuildingBlock: UVAHIK_clean_linker_0, # of connection points: 2
#     Edge 51, Type (0, 0), BuildingBlock: UVAHIK_clean_linker_0, # of connection points: 2
#     Edge 52, Type (0, 0), BuildingBlock: UVAHIK_clean_linker_0, # of connection points: 2
#     Edge 53, Type (0, 0), BuildingBlock: UVAHIK_clean_linker_0, # of connection points: 2
#     Edge 54, Type (0, 0), BuildingBlock: UVAHIK_clean_linker_0, # of connection points: 2
#     Edge 55, Type (0, 0), BuildingBlock: UVAHIK_clean_linker_0, # of connection points: 2
#     Edge 56, Type (0, 0), BuildingBlock: UVAHIK_clean_linker_0, # of connection points: 2
#     Edge 57, Type (0, 0), BuildingBlock: UVAHIK_clean_linker_0, # of connection points: 2
#     Edge 58, Type (0, 0), BuildingBlock: UVAHIK_clean_linker_0, # of connection points: 2
#     Edge 59, Type (0, 0), BuildingBlock: UVAHIK_clean_linker_0, # of connection points: 2
#     Edge 60, Type (0, 0), BuildingBlock: UVAHIK_clean_linker_0, # of connection points: 2
#     Edge 61, Type (0, 0), BuildingBlock: UVAHIK_clean_linker_0, # of connection points: 2
#     Edge 62, Type (0, 0), BuildingBlock: UVAHIK_clean_linker_0, # of connection points: 2
#     Edge 63, Type (0, 0), BuildingBlock: UVAHIK_clean_linker_0, # of connection points: 2
#     Edge 64, Type (0, 0), BuildingBlock: UVAHIK_clean_linker_0, # of connection points: 2
#     Edge 65, Type (0, 0), BuildingBlock: UVAHIK_clean_linker_0, # of connection points: 2
#     Edge 66, Type (0, 0), BuildingBlock: UVAHIK_clean_linker_0, # of connection points: 2
#     Edge 67, Type (0, 0), BuildingBlock: UVAHIK_clean_linker_0, # of connection points: 2
#     Edge 68, Type (0, 0), BuildingBlock: UVAHIK_clean_linker_0, # of connection points: 2
#     Edge 69, Type (0, 0), BuildingBlock: UVAHIK_clean_linker_0, # of connection points: 2
#     Edge 70, Type (0, 0), BuildingBlock: UVAHIK_clean_linker_0, # of connection points: 2
#     Edge 71, Type (0, 0), BuildingBlock: UVAHIK_clean_linker_0, # of connection points: 2
#     Edge 72, Type (0, 0), BuildingBlock: UVAHIK_clean_linker_0, # of connection points: 2
#     Edge 73, Type (0, 0), BuildingBlock: UVAHIK_clean_linker_0, # of connection points: 2
#     Edge 74, Type (0, 0), BuildingBlock: UVAHIK_clean_linker_0, # of connection points: 2
#     Edge 75, Type (0, 0), BuildingBlock: UVAHIK_clean_linker_0, # of connection points: 2
#     Edge 76, Type (0, 0), BuildingBlock: UVAHIK_clean_linker_0, # of connection points: 2
#     Edge 77, Type (0, 0), BuildingBlock: UVAHIK_clean_linker_0, # of connection points: 2
#     Edge 78, Type (0, 0), BuildingBlock: UVAHIK_clean_linker_0, # of connection points: 2
#     Edge 79, Type (0, 0), BuildingBlock: UVAHIK_clean_linker_0, # of connection points: 2
#     Edge 80, Type (0, 0), BuildingBlock: UVAHIK_clean_linker_0, # of connection points: 2
#     Edge 81, Type (0, 0), BuildingBlock: UVAHIK_clean_linker_0, # of connection points: 2
#     Edge 82, Type (0, 0), BuildingBlock: UVAHIK_clean_linker_0, # of connection points: 2
#     Edge 83, Type (0, 0), BuildingBlock: UVAHIK_clean_linker_0, # of connection points: 2
#     Edge 84, Type (0, 0), BuildingBlock: UVAHIK_clean_linker_0, # of connection points: 2
#     Edge 85, Type (0, 0), BuildingBlock: UVAHIK_clean_linker_0, # of connection points: 2
#     Edge 86, Type (0, 0), BuildingBlock: UVAHIK_clean_linker_0, # of connection points: 2
#     Edge 87, Type (0, 0), BuildingBlock: UVAHIK_clean_linker_0, # of connection points: 2
#     Edge 88, Type (0, 0), BuildingBlock: UVAHIK_clean_linker_0, # of connection points: 2
#     Edge 89, Type (0, 0), BuildingBlock: UVAHIK_clean_linker_0, # of connection points: 2
#     Edge 90, Type (0, 0), BuildingBlock: UVAHIK_clean_linker_0, # of connection points: 2
#     Edge 91, Type (0, 0), BuildingBlock: UVAHIK_clean_linker_0, # of connection points: 2
#     Edge 92, Type (0, 0), BuildingBlock: UVAHIK_clean_linker_0, # of connection points: 2
#     Edge 93, Type (0, 0), BuildingBlock: UVAHIK_clean_linker_0, # of connection points: 2
#     Edge 94, Type (0, 0), BuildingBlock: UVAHIK_clean_linker_0, # of connection points: 2
#     Edge 95, Type (0, 0), BuildingBlock: UVAHIK_clean_linker_0, # of connection points: 2
#     Edge 96, Type (0, 0), BuildingBlock: UVAHIK_clean_linker_0, # of connection points: 2
#     Edge 97, Type (0, 0), BuildingBlock: UVAHIK_clean_linker_0, # of connection points: 2
#     Edge 98, Type (0, 0), BuildingBlock: UVAHIK_clean_linker_0, # of connection points: 2
#     Edge 99, Type (0, 0), BuildingBlock: UVAHIK_clean_linker_0, # of connection points: 2
#     Edge 100, Type (0, 0), BuildingBlock: UVAHIK_clean_linker_0, # of connection points: 2
#     Edge 101, Type (0, 0), BuildingBlock: UVAHIK_clean_linker_0, # of connection points: 2
#     Edge 102, Type (0, 0), BuildingBlock: UVAHIK_clean_linker_0, # of connection points: 2
#     Edge 103, Type (0, 0), BuildingBlock: UVAHIK_clean_linker_0, # of connection points: 2
#     Edge 104, Type (0, 0), BuildingBlock: UVAHIK_clean_linker_0, # of connection points: 2
#     Edge 105, Type (0, 0), BuildingBlock: UVAHIK_clean_linker_0, # of connection points: 2
#     Edge 106, Type (0, 0), BuildingBlock: UVAHIK_clean_linker_0, # of connection points: 2
#     Edge 107, Type (0, 0), BuildingBlock: UVAHIK_clean_linker_0, # of connection points: 2
# Relax obj value: 0.305
# Max RMSD: 0.276
# Mean RMSD: 0.276
data_MOF--net-unu--node1-AZAVOO_clean_sbu_0--edge1-UVAHIK_clean_linker_0
_symmetry_space_group_name_H-M    P1
_symmetry_Int_Tables_number       1
_symmetry_cell_setting            triclinic
loop_
_symmetry_equiv_pos_as_xyz
'x, y, z'
_cell_length_a     48.8599155
_cell_length_b     48.82553
_cell_length_c     178.42524
_cell_angle_alpha  90.036415
_cell_angle_beta   89.969328
_cell_angle_gamma 120.05868
loop_
_atom_site_label
_atom_site_type_symbol
_atom_site_fract_x
_atom_site_fract_y
_atom_site_fract_z
_atom_type_partial_charge
Mg0 Mg 0.22646 0.99525 0.1255 0.0
O1 O 0.20214 0.02401 0.12308 0.0
O2 O 0.16766 0.0016 0.11371 0.0
Mg3 Mg 0.17195 0.95956 0.10969 0.0
C4 C 0.18108 0.02307 0.11869 0.0
C5 C 0.25744 0.0331 0.14003 0.0
O6 O 0.23604 0.00587 0.14287 0.0
O7 O 0.25826 0.01703 0.11527 0.0
O8 O 0.22311 0.99352 0.10607 0.0
O9 O 0.18641 0.96409 0.13304 0.0
O10 O 0.18755 0.95478 0.12097 0.0
C11 C 0.25126 0.01246 0.10832 0.0
C12 C 0.17197 0.94756 0.12718 0.0
O13 O 0.26072 0.03587 0.13295 0.0
Mg14 Mg 7e-05 0.23149 0.12842 0.0
O15 O 0.96907 0.17946 0.12504 0.0
O16 O 0.98902 0.16995 0.11474 0.0
Mg17 Mg 0.03263 0.21644 0.11142 0.0
C18 C 0.96837 0.16076 0.11994 0.0
C19 C 0.96245 0.21941 0.14327 0.0
O20 O 0.98799 0.21997 0.14578 0.0
O21 O 0.97937 0.24695 0.11897 0.0
O22 O 0.00037 0.23701 0.10892 0.0
O23 O 0.02954 0.21752 0.13505 0.0
O24 O 0.03893 0.23247 0.12319 0.0
C25 C 0.98289 0.24664 0.11189 0.0
C26 C 0.04524 0.22072 0.12896 0.0
O27 O 0.96076 0.22482 0.13637 0.0
Mg28 Mg 0.76489 0.76793 0.1249 0.0
O29 O 0.81808 0.78809 0.12338 0.0
O30 O 0.83426 0.8181 0.11308 0.0
Mg31 Mg 0.79108 0.81784 0.10811 0.0
C32 C 0.83977 0.80585 0.11878 0.0
C33 C 0.76932 0.74039 0.14032 0.0
O34 O 0.76951 0.76607 0.14259 0.0
O35 O 0.7542 0.73272 0.11534 0.0
O36 O 0.76926 0.76506 0.10545 0.0
O37 O 0.77537 0.81091 0.13149 0.0
O38 O 0.76814 0.80706 0.11924 0.0
C39 C 0.75754 0.73739 0.10828 0.0
C40 C 0.77602 0.82432 0.12519 0.0
O41 O 0.76597 0.73365 0.13337 0.0
Mg42 Mg 0.9732 0.20867 0.36646 0.0
O43 O 0.00402 0.18823 0.3703 0.0
O44 O 0.98043 0.15472 0.37981 0.0
Mg45 Mg 0.93442 0.15452 0.38218 0.0
C46 C 0.0033 0.16884 0.3752 0.0
C47 C 0.01385 0.24311 0.3525 0.0
O48 O 0.98755 0.2219 0.34926 0.0
O49 O 0.98889 0.2415 0.37664 0.0
O50 O 0.96396 0.20643 0.38579 0.0
O51 O 0.94814 0.16725 0.35886 0.0
O52 O 0.93309 0.1683 0.37049 0.0
C53 C 0.98212 0.23479 0.38356 0.0
C54 C 0.93008 0.15234 0.36449 0.0
O55 O 0.01505 0.24474 0.35961 0.0
Mg56 Mg 0.7714 0.74717 0.36552 0.0
O57 O 0.79177 0.79966 0.36829 0.0
O58 O 0.82216 0.81268 0.37849 0.0
Mg59 Mg 0.8184 0.76688 0.38274 0.0
C60 C 0.81009 0.82007 0.37307 0.0
C61 C 0.75316 0.77396 0.35216 0.0
O62 O 0.78422 0.79 0.35196 0.0
O63 O 0.73469 0.73364 0.37478 0.0
O64 O 0.76538 0.74676 0.38497 0.0
O65 O 0.81533 0.75952 0.35917 0.0
O66 O 0.80903 0.74754 0.37122 0.0
C67 C 0.7383 0.736 0.38189 0.0
C68 C 0.82743 0.75769 0.36547 0.0
O69 O 0.73947 0.75248 0.35708 0.0
Mg70 Mg 0.23077 0.00687 0.37158 0.0
O71 O 0.17795 0.97191 0.37337 0.0
O72 O 0.16172 0.98385 0.38394 0.0
Mg73 Mg 0.20443 0.02688 0.38895 0.0
C74 C 0.15638 0.9667 0.37812 0.0
C75 C 0.21189 0.96855 0.35703 0.0
O76 O 0.19725 0.98487 0.35656 0.0
O77 O 0.2439 0.98267 0.38071 0.0
O78 O 0.22713 0.99627 0.39098 0.0
O79 O 0.21842 0.0388 0.36547 0.0
O80 O 0.22626 0.04121 0.3777 0.0
C81 C 0.23984 0.98197 0.38779 0.0
C82 C 0.21735 0.05048 0.3719 0.0
O83 O 0.22976 0.973 0.36263 0.0
Mg84 Mg 0.77037 0.00578 0.87065 0.0
O85 O 0.79189 0.97468 0.87347 0.0
O86 O 0.82632 0.9965 0.88288 0.0
Mg87 Mg 0.82325 0.03926 0.88679 0.0
C88 C 0.8124 0.97492 0.87795 0.0
C89 C 0.73858 0.9691 0.85602 0.0
O90 O 0.7602 0.99629 0.8532 0.0
O91 O 0.73702 0.98576 0.88064 0.0
O92 O 0.77141 0.00597 0.89015 0.0
O93 O 0.8121 0.03469 0.8634 0.0
O94 O 0.80965 0.04496 0.87537 0.0
C95 C 0.74337 0.98873 0.88763 0.0
C96 C 0.82618 0.0508 0.86934 0.0
O97 O 0.73564 0.966 0.86309 0.0
Mg98 Mg 0.99284 0.76676 0.86934 0.0
O99 O 0.02373 0.81974 0.87188 0.0
O100 O 0.00343 0.83251 0.88158 0.0
Mg101 Mg 0.96172 0.7866 0.88587 0.0
C102 C 0.02405 0.84015 0.87641 0.0
C103 C 0.02936 0.77631 0.85444 0.0
O104 O 0.00368 0.77552 0.85195 0.0
O105 O 0.01505 0.75473 0.87908 0.0
O106 O -0.00395 0.76888 0.88885 0.0
O107 O 0.96191 0.77811 0.86244 0.0
O108 O 0.95416 0.76637 0.8745 0.0
C109 C 0.01317 0.75836 0.88611 0.0
C110 C 0.94676 0.77613 0.86855 0.0
O111 O 0.03156 0.77188 0.86138 0.0
Mg112 Mg 0.23326 0.22837 0.8713 0.0
O113 O 0.18025 0.20355 0.87381 0.0
O114 O 0.16816 0.1673 0.88274 0.0
Mg115 Mg 0.21472 0.17147 0.88656 0.0
C116 C 0.16009 0.18156 0.87801 0.0
C117 C 0.22582 0.26067 0.85717 0.0
O118 O 0.23103 0.23915 0.85416 0.0
O119 O 0.24324 0.25863 0.88181 0.0
O120 O 0.23141 0.22202 0.89066 0.0
O121 O 0.22354 0.18903 0.86343 0.0
O122 O 0.23509 0.18912 0.8754 0.0
C123 C 0.24057 0.2505 0.8887 0.0
C124 C 0.22584 0.17404 0.86915 0.0
O125 O 0.22681 0.26358 0.86426 0.0
Mg126 Mg 0.0015 0.76744 0.62554 0.0
O127 O 0.96916 0.78813 0.62333 0.0
O128 O 0.98347 0.81573 0.61266 0.0
Mg129 Mg 0.02497 0.81233 0.60796 0.0
C130 C 0.96572 0.80515 0.61842 0.0
C131 C 0.96049 0.75046 0.63967 0.0
O132 O 0.97544 0.78154 0.6397 0.0
O133 O 0.97599 0.7297 0.61655 0.0
O134 O 0.99149 0.75917 0.60613 0.0
O135 O 0.03494 0.81167 0.63151 0.0
O136 O 0.03745 0.80443 0.61936 0.0
C137 C 0.97569 0.73255 0.60945 0.0
C138 C 0.04742 0.82323 0.62505 0.0
O139 O 0.96661 0.73634 0.63451 0.0
Mg140 Mg 0.22488 0.22969 0.62292 0.0
O141 O 0.20456 0.17685 0.62044 0.0
O142 O 0.17783 0.16484 0.60964 0.0
Mg143 Mg 0.17917 0.20964 0.60545 0.0
C144 C 0.18823 0.15705 0.61533 0.0
C145 C 0.24315 0.20532 0.63673 0.0
O146 O 0.21212 0.18843 0.63676 0.0
O147 O 0.26212 0.2424 0.61377 0.0
O148 O 0.2324 0.23132 0.60348 0.0
O149 O 0.1811 0.21875 0.62921 0.0
O150 O 0.18711 0.22784 0.61701 0.0
C151 C 0.25921 0.24141 0.60665 0.0
C152 C 0.16892 0.21907 0.6228 0.0
O153 O 0.25682 0.22621 0.63168 0.0
Mg154 Mg 0.76221 0.99047 0.629 0.0
O155 O 0.81423 0.0215 0.62566 0.0
O156 O 0.82338 0.00352 0.61496 0.0
Mg157 Mg 0.77711 0.95961 0.61168 0.0
C158 C 0.83259 0.02322 0.62037 0.0
C159 C 0.79134 0.03732 0.64204 0.0
O160 O 0.80791 0.02287 0.64206 0.0
O161 O 0.74726 0.01281 0.61976 0.0
O162 O 0.75627 0.9917 0.60961 0.0
O163 O 0.77506 0.95943 0.63541 0.0
O164 O 0.76118 0.95212 0.62347 0.0
C165 C 0.74707 0.00937 0.61266 0.0
C166 C 0.77203 0.94447 0.62919 0.0
O167 O 0.76907 0.02882 0.6373 0.0
Mg168 Mg 0.87867 0.31715 0.45956 0.0
O169 O 0.8563 0.34724 0.45662 0.0
O170 O 0.8194 0.32286 0.44782 0.0
Mg171 Mg 0.82087 0.27848 0.44449 0.0
C172 C 0.8347 0.34584 0.45235 0.0
C173 C 0.91458 0.35655 0.47344 0.0
O174 O 0.89436 0.3294 0.47653 0.0
O175 O 0.90893 0.33443 0.44898 0.0
O176 O 0.87169 0.30976 0.44025 0.0
O177 O 0.83906 0.29039 0.46758 0.0
O178 O 0.83809 0.27656 0.45575 0.0
C179 C 0.90048 0.32823 0.44212 0.0
C180 C 0.82333 0.27252 0.46199 0.0
O181 O 0.91537 0.35891 0.46634 0.0
Mg182 Mg 0.66846 0.56849 0.45875 0.0
O183 O 0.63578 0.51535 0.45669 0.0
O184 O 0.6545 0.49976 0.44719 0.0
Mg185 Mg 0.69695 0.54408 0.44251 0.0
C186 C 0.63432 0.49376 0.45239 0.0
C187 C 0.63457 0.5654 0.47371 0.0
O188 O 0.66126 0.56866 0.47626 0.0
O189 O 0.6468 0.58028 0.44885 0.0
O190 O 0.66412 0.56331 0.43929 0.0
O191 O 0.6984 0.55647 0.46583 0.0
O192 O 0.70592 0.56625 0.45368 0.0
C193 C 0.64806 0.57532 0.44187 0.0
C194 C 0.71291 0.55675 0.45974 0.0
O195 O 0.63089 0.56614 0.46668 0.0
Mg196 Mg 0.41772 0.10727 0.46409 0.0
O197 O 0.46993 0.12834 0.46098 0.0
O198 O 0.48168 0.16111 0.45126 0.0
Mg199 Mg 0.43544 0.15794 0.44758 0.0
C200 C 0.48976 0.14795 0.45628 0.0
C201 C 0.42446 0.07741 0.47887 0.0
O202 O 0.41931 0.09938 0.48163 0.0
O203 O 0.40339 0.0726 0.45433 0.0
O204 O 0.4156 0.10548 0.44459 0.0
O205 O 0.4314 0.15005 0.47105 0.0
O206 O 0.41733 0.14587 0.45914 0.0
C207 C 0.40522 0.07776 0.44729 0.0
C208 C 0.42863 0.16325 0.46503 0.0
O209 O 0.42363 0.07358 0.47181 0.0
Mg210 Mg 0.65568 0.55874 0.70391 0.0
O211 O 0.68564 0.5362 0.70695 0.0
O212 O 0.66624 0.50698 0.71733 0.0
Mg213 Mg 0.62264 0.5096 0.7207 0.0
C214 C 0.68646 0.51827 0.71203 0.0
C215 C 0.70245 0.57752 0.69091 0.0
O216 O 0.68726 0.54645 0.6907 0.0
O217 O 0.67788 0.59413 0.71356 0.0
O218 O 0.65538 0.562 0.72335 0.0
O219 O 0.6246 0.51641 0.69701 0.0
O220 O 0.61648 0.52059 0.70903 0.0
C221 C 0.67374 0.58942 0.72062 0.0
C222 C 0.6091 0.50327 0.70309 0.0
O223 O 0.69472 0.59123 0.69584 0.0
Mg224 Mg 0.43636 0.09656 0.70122 0.0
O225 O 0.45718 0.14924 0.70404 0.0
O226 O 0.48484 0.16043 0.71468 0.0
Mg227 Mg 0.4815 0.11467 0.71871 0.0
C228 C 0.47421 0.16872 0.70913 0.0
C229 C 0.41892 0.12316 0.68766 0.0
O230 O 0.44996 0.13978 0.68767 0.0
O231 O 0.39894 0.08298 0.71031 0.0
O232 O 0.42844 0.09496 0.7207 0.0
O233 O 0.48009 0.10813 0.69498 0.0
O234 O 0.47359 0.09661 0.70706 0.0
C235 C 0.40186 0.08489 0.71743 0.0
C236 C 0.49202 0.10619 0.7013 0.0
O237 O 0.405 0.10174 0.69259 0.0
Mg238 Mg 0.89767 0.33667 0.70676 0.0
O239 O 0.84487 0.30142 0.70842 0.0
O240 O 0.8289 0.31078 0.71937 0.0
Mg241 Mg 0.87155 0.35347 0.7246 0.0
C242 C 0.82341 0.29498 0.71331 0.0
C243 C 0.87761 0.29897 0.69215 0.0
O244 O 0.86044 0.31277 0.69226 0.0
O245 O 0.91038 0.31062 0.71544 0.0
O246 O 0.89539 0.32348 0.72608 0.0
O247 O 0.88603 0.37021 0.70111 0.0
O248 O 0.89256 0.36917 0.71336 0.0
C249 C 0.90766 0.30944 0.72256 0.0
C250 C 0.88441 0.38005 0.70774 0.0
O251 O 0.8975 0.30496 0.69738 0.0
Mg252 Mg 0.43504 0.3408 0.20273 0.0
O253 O 0.45396 0.30733 0.20514 0.0
O254 O 0.48666 0.32496 0.21496 0.0
Mg255 Mg 0.48806 0.37009 0.21897 0.0
C256 C 0.47257 0.30485 0.20974 0.0
C257 C 0.40284 0.30658 0.1879 0.0
O258 O 0.42554 0.3336 0.18526 0.0
O259 O 0.40125 0.32096 0.21272 0.0
O260 O 0.43573 0.34063 0.22218 0.0
O261 O 0.47745 0.36903 0.19557 0.0
O262 O 0.47544 0.37808 0.20764 0.0
C263 C 0.40746 0.3244 0.21972 0.0
C264 C 0.49191 0.38402 0.2016 0.0
O265 O 0.39925 0.30284 0.19495 0.0
Mg266 Mg 0.64939 0.09408 0.20472 0.0
O267 O 0.68054 0.14763 0.20639 0.0
O268 O 0.66179 0.16285 0.21595 0.0
Mg269 Mg 0.61951 0.11848 0.22072 0.0
C270 C 0.68171 0.16913 0.21068 0.0
C271 C 0.68653 0.1023 0.18999 0.0
O272 O 0.66222 0.10395 0.18742 0.0
O273 O 0.67246 0.08493 0.2148 0.0
O274 O 0.65216 0.0995 0.22417 0.0
O275 O 0.61749 0.10279 0.19742 0.0
O276 O 0.61105 0.09548 0.20964 0.0
C277 C 0.66959 0.08871 0.22178 0.0
C278 C 0.60281 0.10287 0.20345 0.0
O279 O 0.68753 0.09675 0.19691 0.0
Mg280 Mg 0.89817 0.55584 0.202 0.0
O281 O 0.84575 0.53247 0.20505 0.0
O282 O 0.8344 0.49706 0.21416 0.0
Mg283 Mg 0.88113 0.50061 0.21757 0.0
C284 C 0.82601 0.51119 0.20946 0.0
C285 C 0.88935 0.58705 0.18783 0.0
O286 O 0.89387 0.56502 0.18485 0.0
O287 O 0.91095 0.58763 0.21234 0.0
O288 O 0.89981 0.5519 0.22138 0.0
O289 O 0.88593 0.51516 0.19435 0.0
O290 O 0.89965 0.5165 0.20619 0.0
C291 C 0.90937 0.58029 0.21926 0.0
C292 C 0.88885 0.50064 0.20008 0.0
O293 O 0.89133 0.59071 0.1949 0.0
Mg294 Mg 0.68344 0.11215 0.96382 0.0
O295 O 0.65149 0.1316 0.96017 0.0
O296 O 0.67108 0.16131 0.9499 0.0
Mg297 Mg 0.71565 0.15983 0.94681 0.0
C298 C 0.65024 0.14917 0.95505 0.0
C299 C 0.63464 0.09194 0.97647 0.0
O300 O 0.64832 0.12295 0.97665 0.0
O301 O 0.66394 0.07563 0.95441 0.0
O302 O 0.68454 0.1067 0.94436 0.0
O303 O 0.71186 0.15604 0.97043 0.0
O304 O 0.72188 0.15045 0.95861 0.0
C305 C 0.66757 0.07946 0.94733 0.0
C306 C 0.72768 0.16859 0.96435 0.0
O307 O 0.64433 0.07911 0.97177 0.0
Mg308 Mg 0.89175 0.57262 0.95968 0.0
O309 O 0.87347 0.52025 0.95709 0.0
O310 O 0.84613 0.50688 0.94639 0.0
Mg311 Mg 0.84781 0.5515 0.94193 0.0
C312 C 0.8571 0.49984 0.95209 0.0
C313 C 0.90866 0.54788 0.97358 0.0
O314 O 0.87764 0.53115 0.97338 0.0
O315 O 0.93017 0.58712 0.9508 0.0
O316 O 0.90145 0.57418 0.94029 0.0
O317 O 0.84677 0.55991 0.96564 0.0
O318 O 0.85411 0.56985 0.95348 0.0
C319 C 0.92799 0.58547 0.94367 0.0
C320 C 0.83519 0.56025 0.95914 0.0
O321 O 0.92304 0.56921 0.96866 0.0
Mg322 Mg 0.42927 0.31827 0.96095 0.0
O323 O 0.48156 0.35214 0.95832 0.0
O324 O 0.49426 0.3379 0.94753 0.0
Mg325 Mg 0.4502 0.29334 0.9435 0.0
C326 C 0.5014 0.3562 0.95319 0.0
C327 C 0.45346 0.36163 0.97467 0.0
O328 O 0.47086 0.34806 0.97466 0.0
O329 O 0.4146 0.34122 0.9518 0.0
O330 O 0.42702 0.32343 0.94155 0.0
O331 O 0.44276 0.28742 0.9672 0.0
O332 O 0.43186 0.28234 0.95509 0.0
C333 C 0.41592 0.33935 0.94468 0.0
C334 C 0.44209 0.27422 0.96085 0.0
O335 O 0.4323 0.35382 0.96966 0.0
Mg336 Mg 0.55551 0.65527 0.79437 0.0
O337 O 0.53196 0.68411 0.7913 0.0
O338 O 0.49847 0.66097 0.78177 0.0
Mg339 Mg 0.50154 0.61729 0.77858 0.0
C340 C 0.51168 0.68302 0.78663 0.0
C341 C 0.58796 0.69401 0.80867 0.0
O342 O 0.56753 0.66661 0.81162 0.0
O343 O 0.58782 0.67493 0.78414 0.0
O344 O 0.55293 0.65015 0.77495 0.0
O345 O 0.51483 0.62648 0.80194 0.0
O346 O 0.51651 0.61453 0.79006 0.0
C347 C 0.58105 0.66926 0.77719 0.0
C348 C 0.5005 0.60917 0.79616 0.0
O349 O 0.58999 0.69671 0.80158 0.0
Mg350 Mg 0.33222 0.89601 0.79045 0.0
O351 O 0.29823 0.8433 0.7882 0.0
O352 O 0.31299 0.82944 0.77767 0.0
Mg353 Mg 0.35698 0.87315 0.77331 0.0
C354 C 0.2945 0.82273 0.78328 0.0
C355 C 0.2992 0.89019 0.80578 0.0
O356 O 0.32442 0.88956 0.80807 0.0
O357 O 0.30982 0.90982 0.78108 0.0
O358 O 0.3269 0.8962 0.77091 0.0
O359 O 0.36263 0.88316 0.79701 0.0
O360 O 0.36819 0.89256 0.78484 0.0
C361 C 0.31132 0.9078 0.77398 0.0
C362 C 0.37607 0.88305 0.79077 0.0
O363 O 0.29634 0.89429 0.79885 0.0
Mg364 Mg 0.09314 0.43465 0.79416 0.0
O365 O 0.14639 0.45651 0.79197 0.0
O366 O 0.15958 0.48666 0.78171 0.0
Mg367 Mg 0.11405 0.48122 0.77687 0.0
C368 C 0.16699 0.47531 0.78728 0.0
C369 C 0.10248 0.41096 0.80967 0.0
O370 O 0.10254 0.4367 0.81183 0.0
O371 O 0.08204 0.39807 0.78499 0.0
O372 O 0.09642 0.4285 0.77473 0.0
O373 O 0.10315 0.4783 0.80035 0.0
O374 O 0.09305 0.47152 0.78821 0.0
C375 C 0.08588 0.40164 0.77791 0.0
C376 C 0.10166 0.48999 0.79395 0.0
O377 O 0.09766 0.40297 0.8028 0.0
Mg378 Mg 0.31503 0.88697 0.036 0.0
O379 O 0.34499 0.86449 0.0391 0.0
O380 O 0.32512 0.83484 0.04937 0.0
Mg381 Mg 0.28218 0.83847 0.05287 0.0
C382 C 0.34554 0.84615 0.04412 0.0
C383 C 0.36278 0.9063 0.0231 0.0
O384 O 0.34818 0.87526 0.02279 0.0
O385 O 0.33738 0.9226 0.04558 0.0
O386 O 0.31529 0.89097 0.05545 0.0
O387 O 0.28382 0.8443 0.0292 0.0
O388 O 0.27586 0.84925 0.04119 0.0
C389 C 0.33356 0.91825 0.05264 0.0
C390 C 0.26835 0.83159 0.03531 0.0
O391 O 0.35409 0.91941 0.02797 0.0
Mg392 Mg 0.09195 0.42448 0.03725 0.0
O393 O 0.11346 0.47756 0.03961 0.0
O394 O 0.14214 0.49049 0.05011 0.0
Mg395 Mg 0.13883 0.44522 0.05453 0.0
C396 C 0.13108 0.49788 0.04448 0.0
C397 C 0.07463 0.44998 0.02354 0.0
O398 O 0.10569 0.4654 0.02345 0.0
O399 O 0.05538 0.41243 0.04651 0.0
O400 O 0.08601 0.42585 0.05673 0.0
O401 O 0.13505 0.43473 0.03088 0.0
O402 O 0.12965 0.42513 0.04306 0.0
C403 C 0.05908 0.41536 0.0536 0.0
C404 C 0.14755 0.43377 0.0372 0.0
O405 O 0.06032 0.42926 0.0286 0.0
Mg406 Mg 0.55428 0.66322 0.03915 0.0
O407 O 0.5015 0.63078 0.04148 0.0
O408 O 0.48754 0.64682 0.05177 0.0
Mg409 Mg 0.53217 0.69018 0.05609 0.0
C410 C 0.48077 0.62789 0.04625 0.0
C411 C 0.53035 0.61913 0.02558 0.0
O412 O 0.51385 0.63363 0.02531 0.0
O413 O 0.56666 0.63992 0.04866 0.0
O414 O 0.55371 0.6589 0.0586 0.0
O415 O 0.54289 0.69478 0.03251 0.0
O416 O 0.55247 0.70025 0.04468 0.0
C417 C 0.56459 0.64227 0.05574 0.0
C418 C 0.5434 0.70857 0.03874 0.0
O419 O 0.55093 0.62661 0.03072 0.0
Mg420 Mg 0.09931 0.66487 0.53615 0.0
O421 O 0.1185 0.63218 0.53931 0.0
O422 O 0.14725 0.65002 0.54978 0.0
Mg423 Mg 0.14598 0.6942 0.55337 0.0
C424 C 0.13565 0.63012 0.54442 0.0
C425 C 0.07159 0.63049 0.52095 0.0
O426 O 0.09509 0.65727 0.51843 0.0
O427 O 0.06236 0.64404 0.54545 0.0
O428 O 0.09275 0.66325 0.55564 0.0
O429 O 0.14355 0.6941 0.52972 0.0
O430 O 0.13748 0.70239 0.54164 0.0
C431 C 0.0657 0.64678 0.55255 0.0
C432 C 0.15588 0.70895 0.53593 0.0
O433 O 0.06635 0.62699 0.52796 0.0
Mg434 Mg 0.33136 0.43684 0.53823 0.0
O435 O 0.36041 0.49012 0.5405 0.0
O436 O 0.3405 0.50205 0.55042 0.0
Mg437 Mg 0.29983 0.45565 0.55486 0.0
C438 C 0.36051 0.51023 0.54509 0.0
C439 C 0.36657 0.4458 0.52313 0.0
O440 O 0.33976 0.44258 0.52069 0.0
O441 O 0.35605 0.42744 0.54792 0.0
O442 O 0.3348 0.43876 0.55768 0.0
O443 O 0.29788 0.44506 0.53141 0.0
O444 O 0.29214 0.43492 0.54355 0.0
C445 C 0.35326 0.42979 0.55497 0.0
C446 C 0.28302 0.44294 0.53758 0.0
O447 O 0.36994 0.44311 0.5301 0.0
Mg448 Mg 0.56295 0.89889 0.53952 0.0
O449 O 0.51011 0.8732 0.54228 0.0
O450 O 0.49949 0.83717 0.55119 0.0
Mg451 Mg 0.54682 0.84258 0.55477 0.0
C452 C 0.49059 0.85101 0.54654 0.0
C453 C 0.5562 0.93218 0.52547 0.0
O454 O 0.56395 0.91257 0.52239 0.0
O455 O 0.57333 0.92927 0.55002 0.0
O456 O 0.56286 0.89301 0.55887 0.0
O457 O 0.55325 0.8597 0.53161 0.0
O458 O 0.56597 0.8602 0.54352 0.0
C459 C 0.57135 0.92133 0.5569 0.0
C460 C 0.55633 0.84498 0.53729 0.0
O461 O 0.5552 0.93346 0.53257 0.0
Mg462 Mg 0.34079 0.44455 0.29526 0.0
O463 O 0.31207 0.4681 0.29205 0.0
O464 O 0.33767 0.50453 0.28322 0.0
Mg465 Mg 0.38137 0.50139 0.28012 0.0
C466 C 0.31436 0.48986 0.28769 0.0
C467 C 0.29915 0.40976 0.30905 0.0
O468 O 0.32555 0.43031 0.31238 0.0
O469 O 0.32337 0.41395 0.28473 0.0
O470 O 0.34916 0.45058 0.27594 0.0
O471 O 0.36786 0.4843 0.30324 0.0
O472 O 0.38212 0.48434 0.29148 0.0
C473 C 0.33 0.422 0.27787 0.0
C474 C 0.38615 0.49951 0.29767 0.0
O475 O 0.29817 0.40863 0.30194 0.0
Mg476 Mg 0.55556 0.90614 0.29551 0.0
O477 O 0.53224 0.85299 0.2932 0.0
O478 O 0.49859 0.83941 0.28363 0.0
Mg479 Mg 0.50244 0.88525 0.27936 0.0
C480 C 0.51187 0.8322 0.28881 0.0
C481 C 0.57659 0.87988 0.3084 0.0
O482 O 0.54568 0.86492 0.30912 0.0
O483 O 0.58848 0.91641 0.2855 0.0
O484 O 0.55417 0.90358 0.27606 0.0
O485 O 0.51471 0.897 0.30277 0.0
O486 O 0.51671 0.90654 0.29062 0.0
C487 C 0.58219 0.91358 0.2785 0.0
C488 C 0.50059 0.89826 0.29675 0.0
O489 O 0.58942 0.90063 0.30329 0.0
Mg490 Mg 0.09494 0.6613 0.29362 0.0
O491 O 0.14783 0.69449 0.29178 0.0
O492 O 0.16446 0.67906 0.28184 0.0
Mg493 Mg 0.12112 0.63507 0.27721 0.0
C494 C 0.16969 0.69788 0.28731 0.0
C495 C 0.11494 0.70342 0.30749 0.0
O496 O 0.12929 0.68692 0.30825 0.0
O497 O 0.08322 0.68373 0.28376 0.0
O498 O 0.09895 0.66533 0.2742 0.0
O499 O 0.10659 0.63048 0.30053 0.0
O500 O 0.09826 0.62468 0.28832 0.0
C501 C 0.08682 0.68136 0.27674 0.0
C502 C 0.1072 0.61694 0.29435 0.0
O503 O 0.09686 0.69797 0.30188 0.0
C504 C 0.26932 0.05834 0.15271 0.0
C505 C 0.27469 0.06106 0.14494 0.0
C506 C 0.28322 0.08515 0.15729 0.0
C507 C 0.3476 0.16839 0.15807 0.0
H508 H 0.29484 0.17584 0.17326 0.0
C509 C 0.39013 0.2831 0.17502 0.0
C510 C 0.3846 0.27956 0.18278 0.0
C511 C 0.37554 0.2569 0.17026 0.0
C512 C 0.30996 0.174 0.16909 0.0
H513 H 0.29962 0.09401 0.1359 0.0
H514 H 0.3238 0.14081 0.1439 0.0
H515 H 0.27301 0.12889 0.16533 0.0
H516 H 0.35853 0.24588 0.19161 0.0
H517 H 0.33326 0.20017 0.18331 0.0
H518 H 0.3846 0.21342 0.16186 0.0
C519 C 0.30898 0.1179 0.14646 0.0
C520 C 0.29748 0.14708 0.16455 0.0
C521 C 0.29505 0.09108 0.14187 0.0
C522 C 0.36327 0.24944 0.18565 0.0
C523 C 0.34869 0.22324 0.18089 0.0
C524 C 0.36009 0.19531 0.16262 0.0
C525 C 0.30283 0.11528 0.1542 0.0
C526 C 0.31619 0.14392 0.15901 0.0
C527 C 0.35509 0.22658 0.17316 0.0
C528 C 0.34143 0.19839 0.16819 0.0
H529 H 0.25387 0.03556 0.15526 0.0
H530 H 0.27847 0.08229 0.16325 0.0
H531 H 0.36273 0.1665 0.15392 0.0
H532 H 0.40631 0.306 0.17262 0.0
H533 H 0.38052 0.26035 0.16431 0.0
C534 C 0.71307 0.11767 0.17748 0.0
C535 C 0.71389 0.11037 0.18506 0.0
C536 C 0.73983 0.12818 0.17296 0.0
C537 C 0.82643 0.16745 0.17423 0.0
H538 H 0.82052 0.14103 0.15351 0.0
C539 C 0.93617 0.20174 0.15578 0.0
C540 C 0.93485 0.20947 0.14825 0.0
C541 C 0.9094 0.18995 0.16034 0.0
C542 C 0.8225 0.14892 0.15926 0.0
H543 H 0.74318 0.10737 0.19379 0.0
H544 H 0.78984 0.12545 0.18588 0.0
H545 H 0.77313 0.11801 0.1613 0.0
H546 H 0.90457 0.2117 0.13967 0.0
H547 H 0.85795 0.19146 0.14766 0.0
H548 H 0.87577 0.19845 0.17219 0.0
C549 C 0.76859 0.12347 0.18346 0.0
C550 C 0.79537 0.13567 0.16372 0.0
C551 C 0.74178 0.11288 0.18798 0.0
C552 C 0.90637 0.20589 0.14544 0.0
C553 C 0.87958 0.19406 0.15 0.0
C554 C 0.85356 0.1807 0.16976 0.0
C555 C 0.76803 0.13166 0.17593 0.0
C556 C 0.79702 0.14486 0.17125 0.0
C557 C 0.8807 0.1856 0.15748 0.0
C558 C 0.85188 0.17166 0.16222 0.0
H559 H 0.69197 0.11601 0.17505 0.0
H560 H 0.73871 0.13457 0.1672 0.0
H561 H 0.82839 0.17542 0.17997 0.0
H562 H 0.95772 0.20416 0.15812 0.0
H563 H 0.91096 0.1834 0.16606 0.0
C564 C 0.87166 0.62691 0.18628 0.0
C565 C 0.87868 0.60479 0.1831 0.0
C566 C 0.85905 0.6416 0.18187 0.0
C567 C 0.8142 0.63008 0.16447 0.0
H568 H 0.84373 0.71979 0.16615 0.0
C569 C 0.78163 0.69736 0.143 0.0
C570 C 0.7769 0.72183 0.14561 0.0
C571 C 0.79201 0.68205 0.14787 0.0
C572 C 0.83485 0.6946 0.16569 0.0
H573 H 0.87881 0.58145 0.17275 0.0
H574 H 0.85706 0.60721 0.16508 0.0
H575 H 0.86707 0.69606 0.17404 0.0
H576 H 0.77808 0.74852 0.15546 0.0
H577 H 0.79567 0.72142 0.16397 0.0
H578 H 0.782 0.62853 0.15613 0.0
C579 C 0.86087 0.61286 0.171 0.0
C580 C 0.84831 0.68105 0.1702 0.0
C581 C 0.87357 0.59828 0.17539 0.0
C582 C 0.78167 0.72988 0.15325 0.0
C583 C 0.79198 0.71451 0.15813 0.0
C584 C 0.80067 0.64358 0.15998 0.0
C585 C 0.8531 0.63436 0.17421 0.0
C586 C 0.83832 0.6487 0.16958 0.0
C587 C 0.79779 0.69079 0.15546 0.0
C588 C 0.811 0.67606 0.1605 0.0
H589 H 0.87526 0.63241 0.19221 0.0
H590 H 0.85314 0.65796 0.18451 0.0
H591 H 0.8056 0.60495 0.16396 0.0
H592 H 0.77826 0.69063 0.13714 0.0
H593 H 0.79656 0.66412 0.14561 0.0
C594 C 0.04172 0.25943 0.34014 0.0
C595 C 0.0426 0.26252 0.34798 0.0
C596 C 0.06936 0.27578 0.33591 0.0
C597 C 0.15577 0.31265 0.33759 0.0
H598 H 0.15664 0.35106 0.31851 0.0
C599 C 0.2709 0.39321 0.32136 0.0
C600 C 0.27019 0.39043 0.31352 0.0
C601 C 0.24314 0.37686 0.32555 0.0
C602 C 0.15668 0.34009 0.32379 0.0
H603 H 0.07308 0.28597 0.35751 0.0
H604 H 0.12124 0.31474 0.3501 0.0
H605 H 0.10807 0.3253 0.32588 0.0
H606 H 0.23988 0.36759 0.30393 0.0
H607 H 0.19149 0.33875 0.31126 0.0
H608 H 0.20435 0.32739 0.33551 0.0
C609 C 0.09924 0.29928 0.34724 0.0
C610 C 0.12887 0.32541 0.32801 0.0
C611 C 0.07159 0.28297 0.35148 0.0
C612 C 0.24123 0.37033 0.30996 0.0
C613 C 0.21346 0.35399 0.31416 0.0
C614 C 0.18356 0.32731 0.33337 0.0
C615 C 0.0985 0.29556 0.33942 0.0
C616 C 0.12812 0.31155 0.33497 0.0
C617 C 0.21404 0.35736 0.32199 0.0
C618 C 0.18435 0.34122 0.32642 0.0
H619 H 0.01979 0.24384 0.33727 0.0
H620 H 0.06804 0.2722 0.3299 0.0
H621 H 0.15581 0.3017 0.34287 0.0
H622 H 0.2928 0.40854 0.32428 0.0
H623 H 0.24436 0.38022 0.33157 0.0
C624 C 0.70176 0.7683 0.34782 0.0
C625 C 0.73479 0.7829 0.34716 0.0
C626 C 0.68484 0.77848 0.34344 0.0
C627 C 0.69531 0.84792 0.33284 0.0
H628 H 0.61394 0.78823 0.32427 0.0
C629 C 0.62846 0.8849 0.31212 0.0
C630 C 0.59558 0.8706 0.31309 0.0
C631 C 0.64586 0.87456 0.31626 0.0
C632 C 0.6365 0.80521 0.32669 0.0
H633 H 0.77587 0.81906 0.34123 0.0
H634 H 0.74632 0.83644 0.33354 0.0
H635 H 0.64333 0.76871 0.33136 0.0
H636 H 0.55528 0.83468 0.31928 0.0
H637 H 0.58565 0.81697 0.32654 0.0
H638 H 0.68844 0.88442 0.32817 0.0
C639 C 0.73354 0.81752 0.33753 0.0
C640 C 0.65332 0.79402 0.33075 0.0
C641 C 0.75044 0.80738 0.34191 0.0
C642 C 0.58057 0.84617 0.31838 0.0
C643 C 0.59793 0.83583 0.3225 0.0
C644 C 0.6785 0.85911 0.32877 0.0
C645 C 0.7006 0.80344 0.3383 0.0
C646 C 0.68289 0.81525 0.33389 0.0
C647 C 0.63071 0.84968 0.32144 0.0
C648 C 0.64885 0.83788 0.32568 0.0
H649 H 0.68901 0.74946 0.35183 0.0
H650 H 0.6595 0.76734 0.34422 0.0
H651 H 0.7178 0.86492 0.33528 0.0
H652 H 0.6407 0.90372 0.30807 0.0
H653 H 0.67107 0.88555 0.31528 0.0
C654 C 0.21449 0.92091 0.35278 0.0
C655 C 0.20487 0.94324 0.35152 0.0
C656 C 0.20507 0.89531 0.3479 0.0
C657 C 0.17383 0.86653 0.32888 0.0
H658 H 0.14246 0.78362 0.33777 0.0
C659 C 0.11226 0.75153 0.31133 0.0
C660 C 0.12201 0.72942 0.31279 0.0
C661 C 0.1213 0.77741 0.31611 0.0
C662 C 0.15138 0.80664 0.3352 0.0
H663 H 0.17879 0.95685 0.34401 0.0
H664 H 0.16245 0.91229 0.33552 0.0
H665 H 0.16243 0.83008 0.34583 0.0
H666 H 0.14813 0.71666 0.3205 0.0
H667 H 0.16384 0.76162 0.32879 0.0
H668 H 0.16284 0.84306 0.31824 0.0
C669 C 0.17731 0.91456 0.34026 0.0
C670 C 0.16292 0.83326 0.33981 0.0
C671 C 0.18656 0.94003 0.34515 0.0
C672 C 0.14023 0.73326 0.31921 0.0
C673 C 0.14911 0.75897 0.32399 0.0
C674 C 0.16231 0.83989 0.32426 0.0
C675 C 0.18603 0.89165 0.34164 0.0
C676 C 0.17435 0.8635 0.33671 0.0
C677 C 0.14007 0.78153 0.32246 0.0
C678 C 0.15105 0.80967 0.32737 0.0
H679 H 0.2286 0.92273 0.35764 0.0
H680 H 0.21252 0.87824 0.34905 0.0
H681 H 0.18278 0.88956 0.32632 0.0
H682 H 0.09823 0.74922 0.30642 0.0
H683 H 0.11368 0.79424 0.31483 0.0
C684 C 0.6258 0.75201 0.81037 0.0
C685 C 0.60588 0.72205 0.81352 0.0
C686 C 0.64062 0.77886 0.81493 0.0
C687 C 0.66314 0.80468 0.83457 0.0
H688 H 0.66333 0.88037 0.8279 0.0
C689 C 0.70004 0.91144 0.85411 0.0
C690 C 0.7205 0.94146 0.85106 0.0
C691 C 0.68528 0.88483 0.84948 0.0
C692 C 0.66371 0.85951 0.82981 0.0
H693 H 0.58657 0.6967 0.82394 0.0
H694 H 0.61223 0.74352 0.83187 0.0
H695 H 0.64057 0.83359 0.81989 0.0
H696 H 0.74071 0.9672 0.84073 0.0
H697 H 0.71503 0.92073 0.83267 0.0
H698 H 0.68621 0.83057 0.8445 0.0
C699 C 0.61662 0.74625 0.82589 0.0
C700 C 0.65076 0.83274 0.82522 0.0
C701 C 0.6018 0.71941 0.82133 0.0
C702 C 0.72508 0.94442 0.84326 0.0
C703 C 0.71027 0.91781 0.83863 0.0
C704 C 0.67606 0.83143 0.83917 0.0
C705 C 0.63589 0.77633 0.82273 0.0
C706 C 0.6503 0.805 0.82755 0.0
C707 C 0.69059 0.88765 0.8417 0.0
C708 C 0.67645 0.85913 0.83684 0.0
H709 H 0.62952 0.75484 0.80437 0.0
H710 H 0.65573 0.80163 0.81234 0.0
H711 H 0.66356 0.78384 0.83648 0.0
H712 H 0.69591 0.90834 0.86009 0.0
H713 H 0.66984 0.86197 0.852 0.0
C714 C 0.05457 0.7921 0.84179 0.0
C715 C 0.05655 0.78546 0.84937 0.0
C716 C 0.08094 0.80323 0.83711 0.0
C717 C 0.16793 0.84441 0.83775 0.0
H718 H 0.15971 0.81589 0.81716 0.0
C719 C 0.27514 0.87576 0.81858 0.0
C720 C 0.2728 0.88232 0.81101 0.0
C721 C 0.24913 0.86521 0.82336 0.0
C722 C 0.16232 0.82439 0.82287 0.0
H723 H 0.08755 0.78447 0.85793 0.0
H724 H 0.13349 0.80353 0.84973 0.0
H725 H 0.11334 0.79325 0.82527 0.0
H726 H 0.24164 0.88408 0.8026 0.0
H727 H 0.19637 0.86595 0.81097 0.0
H728 H 0.21696 0.87548 0.83535 0.0
C729 C 0.11166 0.8006 0.84744 0.0
C730 C 0.13577 0.81137 0.82752 0.0
C731 C 0.08526 0.78944 0.85212 0.0
C732 C 0.24421 0.87912 0.80839 0.0
C733 C 0.21819 0.8685 0.81317 0.0
C734 C 0.19451 0.85741 0.8331 0.0
C735 C 0.10988 0.80796 0.83991 0.0
C736 C 0.13825 0.82126 0.83501 0.0
C737 C 0.22022 0.86094 0.82067 0.0
C738 C 0.19198 0.84758 0.8256 0.0
H739 H 0.03283 0.78936 0.83949 0.0
H740 H 0.07886 0.80898 0.83136 0.0
H741 H 0.17053 0.85291 0.84346 0.0
H742 H 0.29682 0.87797 0.82077 0.0
H743 H 0.25138 0.85937 0.82909 0.0
C744 C 0.20824 0.30061 0.85562 0.0
C745 C 0.21538 0.27858 0.85243 0.0
C746 C 0.19572 0.31536 0.85121 0.0
C747 C 0.15063 0.30349 0.83389 0.0
H748 H 0.18013 0.39326 0.83537 0.0
C749 C 0.11615 0.36896 0.81241 0.0
C750 C 0.11134 0.39344 0.81497 0.0
C751 C 0.12725 0.3543 0.81727 0.0
C752 C 0.17126 0.36806 0.83497 0.0
H753 H 0.21589 0.25553 0.84207 0.0
H754 H 0.1942 0.28135 0.8344 0.0
H755 H 0.20386 0.36991 0.84327 0.0
H756 H 0.11335 0.42098 0.82472 0.0
H757 H 0.13215 0.39493 0.83324 0.0
H758 H 0.11797 0.30149 0.82563 0.0
C759 C 0.1979 0.28689 0.84032 0.0
C760 C 0.18495 0.35474 0.83948 0.0
C761 C 0.21055 0.27229 0.84471 0.0
C762 C 0.11696 0.40229 0.82256 0.0
C763 C 0.12796 0.38753 0.82743 0.0
C764 C 0.13684 0.31675 0.82942 0.0
C765 C 0.18994 0.30824 0.84354 0.0
C766 C 0.17498 0.32238 0.83893 0.0
C767 C 0.13365 0.36366 0.82482 0.0
C768 C 0.14718 0.34925 0.82985 0.0
H769 H 0.21166 0.30595 0.86156 0.0
H770 H 0.18968 0.33162 0.85385 0.0
H771 H 0.14205 0.27835 0.83344 0.0
H772 H 0.11217 0.36165 0.80659 0.0
H773 H 0.13174 0.33628 0.81504 0.0
C774 C 0.7366 0.58009 0.6802 0.0
C775 C 0.72872 0.59588 0.68563 0.0
C776 C 0.7618 0.59705 0.6753 0.0
C777 C 0.83544 0.67333 0.67316 0.0
H778 H 0.82698 0.64896 0.65222 0.0
C779 C 0.92839 0.74851 0.65078 0.0
C780 C 0.93549 0.73244 0.64527 0.0
C781 C 0.90372 0.7318 0.65585 0.0
C782 C 0.82985 0.6558 0.65807 0.0
H783 H 0.74104 0.64192 0.69013 0.0
H784 H 0.78503 0.67163 0.6815 0.0
H785 H 0.78234 0.62041 0.6607 0.0
H786 H 0.92265 0.68615 0.64083 0.0
H787 H 0.87971 0.65692 0.64973 0.0
H788 H 0.88298 0.70874 0.67052 0.0
C789 C 0.77184 0.64606 0.68111 0.0
C790 C 0.80426 0.63949 0.66292 0.0
C791 C 0.74653 0.62906 0.68602 0.0
C792 C 0.91773 0.69924 0.645 0.0
C793 C 0.893 0.68251 0.65007 0.0
C794 C 0.86105 0.68965 0.6683 0.0
C795 C 0.77975 0.6302 0.6757 0.0
C796 C 0.80678 0.64802 0.67052 0.0
C797 C 0.88557 0.69864 0.65551 0.0
C798 C 0.85855 0.68104 0.6607 0.0
H799 H 0.72345 0.55453 0.67976 0.0
H800 H 0.76755 0.5841 0.67127 0.0
H801 H 0.83827 0.68017 0.67901 0.0
H802 H 0.94156 0.77409 0.65113 0.0
H803 H 0.89838 0.74495 0.65991 0.0
C804 C 0.4165 0.15506 0.677 0.0
C805 C 0.40067 0.13064 0.68226 0.0
C806 C 0.39951 0.16316 0.67208 0.0
C807 C 0.3223 0.15822 0.66981 0.0
H808 H 0.348 0.17748 0.64902 0.0
C809 C 0.24608 0.17454 0.64758 0.0
C810 C 0.26166 0.1986 0.64223 0.0
C811 C 0.2633 0.16698 0.65256 0.0
C812 C 0.34077 0.17257 0.65483 0.0
H813 H 0.35456 0.09528 0.6864 0.0
H814 H 0.32486 0.10927 0.67774 0.0
H815 H 0.37718 0.16189 0.65741 0.0
H816 H 0.30758 0.23398 0.638 0.0
H817 H 0.3377 0.22096 0.64677 0.0
H818 H 0.28587 0.16887 0.66723 0.0
C819 C 0.35045 0.12239 0.6775 0.0
C820 C 0.35745 0.16358 0.65963 0.0
C821 C 0.36745 0.11425 0.68243 0.0
C822 C 0.29488 0.21527 0.64204 0.0
C823 C 0.31212 0.20768 0.64703 0.0
C824 C 0.30563 0.16722 0.66501 0.0
C825 C 0.36631 0.14705 0.6723 0.0
C826 C 0.34838 0.15627 0.66717 0.0
C827 C 0.2965 0.18331 0.65232 0.0
C828 C 0.31465 0.17445 0.65746 0.0
H829 H 0.44208 0.16825 0.67674 0.0
H830 H 0.41244 0.18252 0.6682 0.0
H831 H 0.31505 0.15325 0.67562 0.0
H832 H 0.2205 0.16116 0.64786 0.0
H833 H 0.25054 0.14783 0.6565 0.0
C834 C 0.84795 0.26693 0.68099 0.0
C835 C 0.87149 0.27461 0.68644 0.0
C836 C 0.84018 0.24225 0.67595 0.0
C837 C 0.86895 0.19206 0.66767 0.0
H838 H 0.77975 0.13365 0.66425 0.0
C839 C 0.82456 0.0733 0.65235 0.0
C840 C 0.79973 0.06412 0.64719 0.0
C841 C 0.83345 0.0993 0.65704 0.0
C842 C 0.80475 0.14995 0.66507 0.0
H843 H 0.90591 0.26291 0.69073 0.0
H844 H 0.89221 0.21965 0.68192 0.0
H845 H 0.7958 0.17909 0.67246 0.0
H846 H 0.76462 0.07493 0.64294 0.0
H847 H 0.78032 0.12053 0.6511 0.0
H848 H 0.87789 0.16287 0.66029 0.0
C849 C 0.87993 0.23291 0.68153 0.0
C850 C 0.81396 0.17599 0.66977 0.0
C851 C 0.8877 0.25762 0.68659 0.0
C852 C 0.78377 0.08132 0.64687 0.0
C853 C 0.79269 0.10738 0.65157 0.0
C854 C 0.85974 0.16603 0.66296 0.0
C855 C 0.85576 0.22469 0.67622 0.0
C856 C 0.84615 0.19731 0.67114 0.0
C857 C 0.81774 0.11675 0.65668 0.0
C858 C 0.82753 0.14463 0.66162 0.0
H859 H 0.83508 0.27963 0.68069 0.0
H860 H 0.82182 0.23683 0.67184 0.0
H861 H 0.89394 0.20829 0.66854 0.0
H862 H 0.8373 0.0605 0.65275 0.0
H863 H 0.8525 0.10558 0.661 0.0
C864 C 0.05959 0.60711 0.50804 0.0
C865 C 0.05352 0.60362 0.51578 0.0
C866 C 0.04428 0.5811 0.50324 0.0
C867 C 0.97566 0.49965 0.50206 0.0
H868 H 0.02537 0.48917 0.48656 0.0
C869 C 0.92971 0.38268 0.486 0.0
C870 C 0.93342 0.38477 0.47818 0.0
C871 C 0.94509 0.40976 0.49046 0.0
C872 C 0.01113 0.49194 0.49082 0.0
H873 H 0.02613 0.57018 0.52454 0.0
H874 H -0.0002 0.52484 0.5162 0.0
H875 H 0.04977 0.53617 0.49451 0.0
H876 H 0.95705 0.41683 0.46891 0.0
H877 H 0.98401 0.46416 0.47671 0.0
H878 H 0.93715 0.45524 0.49843 0.0
C879 C 0.01605 0.54773 0.51381 0.0
C880 C 0.02505 0.51889 0.49536 0.0
C881 C 0.03127 0.57373 0.5186 0.0
C882 C 0.9537 0.41441 0.47492 0.0
C883 C 0.96921 0.44151 0.47939 0.0
C884 C 0.96181 0.47267 0.49755 0.0
C885 C 0.02262 0.55103 0.50608 0.0
C886 C 0.00751 0.52298 0.50106 0.0
C887 C 0.96463 0.43952 0.48719 0.0
C888 C 0.97943 0.46843 0.49191 0.0
H889 H 0.07651 0.62985 0.50569 0.0
H890 H 0.04949 0.58455 0.4973 0.0
H891 H 0.96133 0.50231 0.50631 0.0
H892 H 0.91437 0.36021 0.4887 0.0
H893 H 0.94153 0.40742 0.49647 0.0
C894 C 0.42337 0.46276 0.52066 0.0
C895 C 0.39354 0.4557 0.51794 0.0
C896 C 0.44943 0.47467 0.51585 0.0
C897 C 0.47199 0.48212 0.49589 0.0
H898 H 0.55116 0.55272 0.50289 0.0
C899 C 0.5782 0.55031 0.47611 0.0
C900 C 0.60785 0.55705 0.47888 0.0
C901 C 0.55217 0.53931 0.4809 0.0
C902 C 0.5293 0.53284 0.50087 0.0
H903 H 0.36751 0.45484 0.50801 0.0
H904 H 0.41298 0.4757 0.49964 0.0
H905 H 0.50533 0.5292 0.51119 0.0
H906 H 0.63366 0.55855 0.48892 0.0
H907 H 0.58824 0.5392 0.49725 0.0
H908 H 0.49597 0.48567 0.48559 0.0
C909 C 0.41619 0.47185 0.50547 0.0
C910 C 0.50307 0.51932 0.50563 0.0
C911 C 0.39015 0.46 0.51028 0.0
C912 C 0.61115 0.5536 0.48659 0.0
C913 C 0.58513 0.54262 0.49138 0.0
C914 C 0.49822 0.49562 0.49113 0.0
C915 C 0.4462 0.4797 0.50823 0.0
C916 C 0.47414 0.49379 0.50319 0.0
C917 C 0.55524 0.53486 0.48857 0.0
C918 C 0.52719 0.52112 0.49357 0.0
H919 H 0.42678 0.45966 0.52653 0.0
H920 H 0.47215 0.48004 0.51812 0.0
H921 H 0.45014 0.46222 0.49388 0.0
H922 H 0.57487 0.55282 0.4702 0.0
H923 H 0.52956 0.53405 0.47858 0.0
C924 C 0.44452 0.03972 0.48077 0.0
C925 C 0.43482 0.06004 0.48382 0.0
C926 C 0.45723 0.02574 0.48536 0.0
C927 C 0.46317 0.00562 0.50499 0.0
H928 H 0.53917 0.00732 0.49799 0.0
C929 C 0.53501 0.96922 0.52401 0.0
C930 C 0.54552 0.94991 0.52074 0.0
C931 C 0.52243 0.98379 0.51957 0.0
C932 C 0.5178 0.00638 0.5 0.0
H933 H 0.42986 0.08075 0.49413 0.0
H934 H 0.45206 0.05632 0.50215 0.0
H935 H 0.51376 0.02888 0.49011 0.0
H936 H 0.55176 0.93142 0.51022 0.0
H937 H 0.52959 0.95655 0.50249 0.0
H938 H 0.46708 0.98293 0.51486 0.0
C939 C 0.44974 0.05114 0.4962 0.0
C940 C 0.50321 0.01869 0.49548 0.0
C941 C 0.43711 0.06522 0.4916 0.0
C942 C 0.54395 0.94619 0.51292 0.0
C943 C 0.53135 0.96072 0.50848 0.0
C944 C 0.47772 0.99323 0.50951 0.0
C945 C 0.46041 0.03167 0.49311 0.0
C946 C 0.47569 0.01836 0.49792 0.0
C947 C 0.52008 0.97937 0.51176 0.0
C948 C 0.50516 0.9934 0.50705 0.0
H949 H 0.443 0.03515 0.4748 0.0
H950 H 0.46478 0.01043 0.48284 0.0
H951 H 0.4418 0.00475 0.50699 0.0
H952 H 0.53597 0.97265 0.53003 0.0
H953 H 0.51442 -0.00158 0.52225 0.0
C954 C 0.40018 0.91057 0.01299 0.0
C955 C 0.38987 0.92547 0.01809 0.0
C956 C 0.42646 0.92846 0.00844 0.0
C957 C 0.47617 0.00842 0.00064 0.0
H958 H 0.53769 0.98105 0.99808 0.0
C959 C 0.59662 0.08713 0.98646 0.0
C960 C 0.6074 0.07249 0.98142 0.0
C961 C 0.57019 0.06902 0.99095 0.0
C962 C 0.52055 0.98881 -0.00133 0.0
H963 H 0.39892 0.97087 0.02236 0.0
H964 H 0.44497 0.00213 0.01443 0.0
H965 H 0.49101 0.94987 0.00582 0.0
H966 H 0.59904 0.02729 0.97717 0.0
H967 H 0.55268 0.99561 0.98499 0.0
H968 H 0.50568 0.04735 0.99349 0.0
C969 C 0.43251 0.97659 0.01391 0.0
C970 C 0.49382 0.97096 0.0031 0.0
C971 C 0.40621 0.95868 0.01848 0.0
C972 C 0.59138 0.03928 0.98102 0.0
C973 C 0.5649 0.02114 0.98552 0.0
C974 C 0.50289 0.02626 0.9962 0.0
C975 C 0.44303 0.96166 0.00888 0.0
C976 C 0.47135 0.98058 0.00414 0.0
C977 C 0.55391 0.03583 0.9905 0.0
C978 C 0.52541 0.01669 0.99518 0.0
H979 H 0.38808 0.88502 0.01254 0.0
H980 H 0.43371 0.91628 0.00454 0.0
H981 H 0.45906 0.0162 0.00124 0.0
H982 H 0.60847 0.11267 0.98693 0.0
H983 H 0.56262 0.08104 0.99482 0.0
C984 C 0.95945 0.55517 0.97889 0.0
C985 C 0.92628 0.54 0.97909 0.0
C986 C 0.9757 0.54598 0.9838 0.0
C987 C 0.96714 0.50335 0.00155 0.0
H988 H 0.03511 0.49292 0.99352 0.0
C989 C 0.02392 0.4438 0.01847 0.0
C990 C 0.05705 0.45848 0.01817 0.0
C991 C 0.00774 0.45333 0.01363 0.0
C992 C 0.01639 0.49601 0.99587 0.0
H993 H 0.88419 0.50371 0.98468 0.0
H994 H 0.91248 0.48768 0.99318 0.0
H995 H 0.00799 0.51186 0.9854 0.0
H996 H 0.09913 0.49439 0.0125 0.0
H997 H 0.07098 0.51108 0.00414 0.0
H998 H 0.97554 0.48751 0.01203 0.0
C999 C 0.92599 0.50684 0.98929 0.0
C1000 C 0.0009 0.50693 0.99122 0.0
C1001 C 0.90977 0.51595 0.98439 0.0
C1002 C 0.07358 0.48249 0.01287 0.0
C1003 C 0.05743 0.49199 0.00804 0.0
C1004 C 0.98264 0.49245 0.00621 0.0
C1005 C 0.9591 0.52152 0.98901 0.0
C1006 C 0.97609 0.51071 0.99401 0.0
C1007 C 0.02436 0.47769 0.0084 0.0
C1008 C 0.00744 0.48865 0.00342 0.0
H1009 H 0.97286 0.5738 0.97488 0.0
H1010 H 0.00127 0.55801 0.98351 0.0
H1011 H 0.94836 0.50639 0.00389 0.0
H1012 H 0.0105 0.4252 0.02249 0.0
H1013 H 0.9822 0.44158 0.01398 0.0
C1014 C 0.4837 0.39534 0.98558 0.0
C1015 C 0.4599 0.38686 0.98016 0.0
C1016 C 0.49104 0.42011 0.99056 0.0
C1017 C 0.45974 0.46825 -0.00121 0.0
H1018 H 0.54813 0.52758 0.00291 0.0
C1019 C 0.49978 0.58467 0.0148 0.0
C1020 C 0.52358 0.59335 0.02023 0.0
C1021 C 0.49225 0.55953 0.00992 0.0
C1022 C 0.52335 0.51102 0.00188 0.0
H1023 H 0.42484 0.3975 0.9758 0.0
H1024 H 0.43784 0.44098 0.98448 0.0
H1025 H 0.53398 0.48329 0.99443 0.0
H1026 H 0.55838 0.58263 0.02473 0.0
H1027 H 0.54508 0.53854 0.01621 0.0
H1028 H 0.44911 0.49605 0.00623 0.0
C1029 C 0.45061 0.42822 0.98491 0.0
C1030 C 0.51522 0.48564 0.99702 0.0
C1031 C 0.44324 0.40339 0.97992 0.0
C1032 C 0.53998 0.57658 0.0206 0.0
C1033 C 0.53245 0.55141 0.0157 0.0
C1034 C 0.46786 0.49365 0.00364 0.0
C1035 C 0.47477 0.43701 0.99025 0.0
C1036 C 0.48333 0.46396 0.99542 0.0
C1037 C 0.50834 0.54248 0.01034 0.0
C1038 C 0.49976 0.51534 0.00523 0.0
H1039 H 0.49692 0.38301 0.98594 0.0
H1040 H 0.50942 0.42594 0.99469 0.0
H1041 H 0.43495 0.45171 0.99776 0.0
H1042 H 0.48672 0.59713 0.01434 0.0
H1043 H 0.4739 0.55356 0.00578 0.0
C1044 C 0.30859 0.04007 0.10448 0.0
C1045 C 0.27651 0.02701 0.10258 0.0
C1046 C 0.3314 0.04778 0.09887 0.0
C1047 C 0.34025 0.0475 0.07784 0.0
H1048 H 0.38702 0.00532 0.08286 0.0
C1049 C 0.35965 0.97665 0.05535 0.0
C1050 C 0.34859 0.94553 0.05784 0.0
C1051 C 0.36797 0.00117 0.06054 0.0
C1052 C 0.37429 0.01736 0.08134 0.0
H1053 H 0.2438 0.01523 0.0933 0.0
H1054 H 0.28267 0.02745 0.08366 0.0
H1055 H 0.36717 0.0244 0.09281 0.0
H1056 H 0.34095 0.9164 0.06767 0.0
H1057 H 0.35433 0.9582 0.0766 0.0
H1058 H 0.34382 0.03678 0.06642 0.0
C1059 C 0.29081 0.03222 0.08941 0.0
C1060 C 0.36325 0.02883 0.08707 0.0
C1061 C 0.26821 0.02469 0.09498 0.0
C1062 C 0.34883 0.94 0.06555 0.0
C1063 C 0.35704 0.9643 0.07071 0.0
C1064 C 0.35059 0.0353 0.07212 0.0
C1065 C 0.32251 0.0425 0.09126 0.0
C1066 C 0.34395 0.04181 0.0854 0.0
C1067 C 0.3654 0.99496 0.0683 0.0
C1068 C 0.36557 0.01789 0.07385 0.0
H1069 H 0.31585 0.04256 0.1103 0.0
H1070 H 0.35567 0.05627 0.10051 0.0
H1071 H 0.32669 0.05869 0.07633 0.0
H1072 H 0.36008 0.98175 0.04943 0.0
H1073 H 0.37484 0.0246 0.05848 0.0
C1074 C 0.03133 0.42086 0.06466 0.0
C1075 C 0.03135 0.40286 0.05854 0.0
C1076 C 0.00999 0.40647 0.07055 0.0
C1077 C 0.99111 0.36795 0.08454 0.0
H1078 H 0.91888 0.28301 0.0837 0.0
C1079 C 0.96263 0.25052 0.09936 0.0
C1080 C 0.96871 0.26023 0.10688 0.0
C1081 C 0.9556 0.26747 0.09418 0.0
C1082 C 0.93868 0.30695 0.08405 0.0
H1083 H 0.00782 0.35653 0.05341 0.0
H1084 H 0.97199 0.3308 0.06382 0.0
H1085 H 0.93304 0.3171 0.07267 0.0
H1086 H 0.96948 0.29357 0.11503 0.0
H1087 H 0.95801 0.32387 0.10588 0.0
H1088 H -0.00264 0.35744 0.0958 0.0
C1089 C 0.98735 0.3562 0.06407 0.0
C1090 C 0.94704 0.32643 0.07771 0.0
C1091 C 0.00802 0.37088 0.05807 0.0
C1092 C 0.96499 0.28562 0.10925 0.0
C1093 C 0.95845 0.30296 0.10403 0.0
C1094 C 0.9824 0.34874 0.09088 0.0
C1095 C 0.98925 0.37348 0.07058 0.0
C1096 C 0.97455 0.35651 0.07773 0.0
C1097 C 0.95497 0.29477 0.09639 0.0
C1098 C 0.95723 0.31745 0.09057 0.0
H1099 H 0.04905 0.44571 0.06509 0.0
H1100 H 0.01139 0.42088 0.0753 0.0
H1101 H 0.0126 0.39068 0.08485 0.0
H1102 H 0.965 0.23081 0.0974 0.0
H1103 H 0.95332 0.26072 0.08833 0.0
C1104 C 0.59734 0.61658 0.05832 0.0
C1105 C 0.57777 0.62804 0.06091 0.0
C1106 C 0.61459 0.60921 0.0634 0.0
C1107 C 0.66856 0.62796 0.07427 0.0
H1108 H 0.64687 0.61812 0.09535 0.0
C1109 C 0.74928 0.71558 0.09531 0.0
C1110 C 0.74462 0.71009 0.10305 0.0
C1111 C 0.73197 0.69141 0.09021 0.0
C1112 C 0.65362 0.62018 0.08952 0.0
H1113 H 0.55831 0.63735 0.07089 0.0
H1114 H 0.58872 0.62592 0.07961 0.0
H1115 H 0.60526 0.59614 0.08608 0.0
H1116 H 0.72094 0.67381 0.11152 0.0
H1117 H 0.69116 0.63116 0.10257 0.0
H1118 H 0.71692 0.65161 0.0777 0.0
C1119 C 0.59085 0.62204 0.07372 0.0
C1120 C 0.62954 0.60796 0.08416 0.0
C1121 C 0.57358 0.62913 0.06867 0.0
C1122 C 0.72469 0.67897 0.10558 0.0
C1123 C 0.70746 0.65454 0.10044 0.0
C1124 C 0.69263 0.6393 0.07963 0.0
C1125 C 0.6127 0.61333 0.07116 0.0
C1126 C 0.63674 0.61432 0.07649 0.0
C1127 C 0.70967 0.66083 0.09268 0.0
C1128 C 0.68548 0.63818 0.08731 0.0
H1129 H 0.60076 0.61502 0.05237 0.0
H1130 H 0.63059 0.60186 0.06121 0.0
H1131 H 0.6753 0.63286 0.06843 0.0
H1132 H 0.76484 0.73913 0.09314 0.0
H1133 H 0.73443 0.69765 0.08433 0.0
C1134 C 0.91482 0.33747 0.42859 0.0
C1135 C 0.92457 0.34065 0.4361 0.0
C1136 C 0.93618 0.34365 0.42278 0.0
C1137 C 0.98393 0.35828 0.41075 0.0
H1138 H 0.02905 0.31362 0.41495 0.0
C1139 C 0.00575 0.2921 0.38723 0.0
C1140 C 0.99422 0.26033 0.38924 0.0
C1141 C 0.01256 0.31504 0.39276 0.0
C1142 C 0.01684 0.32642 0.41367 0.0
H1143 H 0.96518 0.35593 0.44339 0.0
H1144 H 0.00281 0.36705 0.43319 0.0
H1145 H 0.0107 0.33261 0.42526 0.0
H1146 H 0.98357 0.22831 0.39863 0.0
H1147 H 0.99459 0.26755 0.40815 0.0
H1148 H 0.98682 0.34877 0.39919 0.0
C1149 C 0.97838 0.35912 0.43181 0.0
C1150 C 0.00664 0.33776 0.4196 0.0
C1151 C 0.95685 0.35287 0.43766 0.0
C1152 C 0.99196 0.25247 0.39687 0.0
C1153 C -0.00122 0.27524 0.40236 0.0
C1154 C 0.9936 0.3464 0.40482 0.0
C1155 C 0.96801 0.35333 0.42431 0.0
C1156 C 0.98809 0.35183 0.41822 0.0
C1157 C 0.00815 0.30662 0.4004 0.0
C1158 C 0.00818 0.32837 0.40625 0.0
H1159 H 0.89023 0.32858 0.42717 0.0
H1160 H 0.92701 0.33848 0.41712 0.0
H1161 H 0.97071 0.37007 0.40948 0.0
H1162 H 0.00802 0.29895 0.38139 0.0
H1163 H 0.02007 0.33906 0.39105 0.0
C1164 C 0.64128 0.61857 0.43657 0.0
C1165 C 0.63363 0.58683 0.43641 0.0
C1166 C 0.63524 0.63199 0.43032 0.0
C1167 C 0.62363 0.65883 0.41629 0.0
H1168 H 0.64499 0.62716 0.39862 0.0
C1169 C 0.68162 0.69655 0.3846 0.0
C1170 C 0.71031 0.72295 0.38683 0.0
C1171 C 0.65792 0.67952 0.38989 0.0
C1172 C 0.63813 0.63598 0.40342 0.0
H1173 H 0.61026 0.54309 0.43014 0.0
H1174 H 0.59737 0.56569 0.41946 0.0
H1175 H 0.62832 0.59547 0.40982 0.0
H1176 H 0.73524 0.7545 0.39608 0.0
H1177 H 0.69393 0.72509 0.40526 0.0
H1178 H 0.63697 0.70098 0.40992 0.0
C1179 C 0.60967 0.58091 0.42417 0.0
C1180 C 0.62841 0.61767 0.40991 0.0
C1181 C 0.61669 0.56779 0.43031 0.0
C1182 C 0.7135 0.73399 0.39423 0.0
C1183 C 0.68967 0.71731 0.39947 0.0
C1184 C 0.63398 0.67745 0.4098 0.0
C1185 C 0.62076 0.61367 0.42387 0.0
C1186 C 0.62254 0.62945 0.41656 0.0
C1187 C 0.66238 0.68899 0.39745 0.0
C1188 C 0.64271 0.66673 0.40343 0.0
H1189 H 0.65453 0.6337 0.44122 0.0
H1190 H 0.64441 0.65727 0.43036 0.0
H1191 H 0.61834 0.66835 0.4212 0.0
H1192 H 0.6785 0.68757 0.37892 0.0
H1193 H 0.63703 0.65782 0.38818 0.0
C1194 C 0.36766 0.02097 0.44408 0.0
C1195 C 0.39263 0.05088 0.44199 0.0
C1196 C 0.35152 -0.00233 0.43863 0.0
C1197 C 0.30716 0.97532 0.42521 0.0
H1198 H 0.34255 0.96189 0.40707 0.0
C1199 C 0.28615 0.97883 0.39233 0.0
C1200 C 0.25365 0.9679 0.39269 0.0
C1201 C 0.30147 0.97396 0.39836 0.0
C1202 C 0.33218 0.96534 0.41209 0.0
H1203 H 0.4225 0.07872 0.43276 0.0
H1204 H 0.39462 0.03815 0.42332 0.0
H1205 H 0.37542 0.98256 0.41827 0.0
H1206 H 0.21081 0.9399 0.39906 0.0
H1207 H 0.23694 0.92911 0.40933 0.0
H1208 H 0.26517 0.96146 0.41901 0.0
C1209 C 0.3873 0.03261 0.42911 0.0
C1210 C 0.35098 0.97692 0.41852 0.0
C1211 C 0.40308 0.05601 0.43452 0.0
C1212 C 0.23603 0.94877 0.39872 0.0
C1213 C 0.25114 0.943 0.40464 0.0
C1214 C 0.28858 0.96432 0.41878 0.0
C1215 C 0.36048 0.00376 0.43105 0.0
C1216 C 0.33902 0.98336 0.42504 0.0
C1217 C 0.28436 0.95747 0.4048 0.0
C1218 C 0.30128 0.96065 0.41201 0.0
H1219 H 0.35916 0.01633 0.4498 0.0
H1220 H 0.33096 0.97557 0.44028 0.0
H1221 H 0.29732 0.98032 0.43012 0.0
H1222 H 0.30021 0.99386 0.38775 0.0
H1223 H 0.32701 0.98568 0.39822 0.0
C1224 C 0.69322 0.98183 0.89287 0.0
C1225 C 0.71757 0.97462 0.89313 0.0
C1226 C 0.67374 0.97606 0.89911 0.0
C1227 C 0.63496 0.9647 0.91308 0.0
H1228 H 0.68769 0.98798 0.93082 0.0
C1229 C 0.65229 0.02324 0.94464 0.0
C1230 C 0.65419 0.05165 0.94233 0.0
C1231 C 0.6467 -0.00028 0.93938 0.0
C1232 C 0.67213 0.9806 0.926 0.0
H1233 H 0.73851 0.95238 0.8996 0.0
H1234 H 0.70301 0.93994 0.91027 0.0
H1235 H 0.70352 0.9713 0.91974 0.0
H1236 H 0.64822 0.07632 0.93295 0.0
H1237 H 0.63807 0.03525 0.92381 0.0
H1238 H 0.60543 0.97756 0.91929 0.0
C1239 C 0.69986 0.95169 0.90548 0.0
C1240 C 0.68117 0.97086 0.91958 0.0
C1241 C 0.72001 0.95844 0.89934 0.0
C1242 C 0.64722 0.05477 0.93486 0.0
C1243 C 0.64108 0.03109 0.92964 0.0
C1244 C 0.62625 0.97509 0.91949 0.0
C1245 C 0.67784 0.9623 0.90565 0.0
C1246 C 0.66357 0.96426 0.9129 0.0
C1247 C 0.64232 0.00406 0.93178 0.0
C1248 C 0.64557 0.98447 0.92589 0.0
H1249 H 0.6911 0.99451 0.88813 0.0
H1250 H 0.65736 0.98487 0.89897 0.0
H1251 H 0.62019 0.95885 0.90815 0.0
H1252 H 0.65754 0.02023 0.95038 0.0
H1253 H 0.64772 0.97905 0.94116 0.0
C1254 C 0.95559 0.59099 0.93154 0.0
C1255 C 0.95693 0.60043 0.93903 0.0
C1256 C 0.97971 0.60984 0.92654 0.0
C1257 C 0.03479 0.65496 0.91667 0.0
H1258 H 0.03357 0.73353 0.91782 0.0
C1259 C 0.04418 0.76541 0.89771 0.0
C1260 C 0.02847 0.74716 0.89141 0.0
C1261 C 0.05227 0.75213 0.90363 0.0
C1262 C 0.03541 0.7124 0.91741 0.0
H1263 H 0.98611 0.63516 0.94738 0.0
H1264 H 0.0281 0.66858 0.93857 0.0
H1265 H 0.0185 0.69947 0.9286 0.0
H1266 H 0.01086 0.70172 0.88602 0.0
H1267 H 0.02279 0.67769 0.89649 0.0
H1268 H 0.05069 0.66747 0.90535 0.0
C1269 C 0.00838 0.64652 0.93658 0.0
C1270 C 0.02662 0.6927 0.92366 0.0
C1271 C 0.98438 0.62737 0.94162 0.0
C1272 C 0.02311 0.71624 0.89084 0.0
C1273 C 0.03021 0.70258 0.89686 0.0
C1274 C 0.04419 0.67501 0.91043 0.0
C1275 C 0.00545 0.63872 0.92892 0.0
C1276 C 0.02447 0.663 0.92323 0.0
C1277 C 0.04348 0.71989 0.9035 0.0
C1278 C 0.04277 0.70313 0.91057 0.0
H1279 H 0.93485 0.57011 0.92942 0.0
H1280 H 0.97664 0.60323 0.92068 0.0
H1281 H 0.03371 0.63232 0.91622 0.0
H1282 H 0.04889 0.78951 0.89821 0.0
H1283 H 0.0636 0.76667 0.9085 0.0
C1284 C 0.40916 0.35682 0.93206 0.0
C1285 C 0.40218 0.35375 0.93975 0.0
C1286 C 0.39173 0.36379 0.92704 0.0
C1287 C 0.31058 0.34786 0.92566 0.0
H1288 H 0.33864 0.36967 0.90511 0.0
C1289 C 0.24528 0.26523 0.90221 0.0
C1290 C 0.25037 0.27474 0.89467 0.0
C1291 C 0.25885 0.28737 0.90794 0.0
C1292 C 0.33001 0.36414 0.91081 0.0
H1293 H 0.37383 0.35927 0.94832 0.0
H1294 H 0.34342 0.37198 0.93952 0.0
H1295 H 0.37676 0.39192 0.91519 0.0
H1296 H 0.27115 0.31545 0.88727 0.0
H1297 H 0.29463 0.35443 0.89734 0.0
H1298 H 0.26384 0.32011 0.92129 0.0
C1299 C 0.36195 0.36816 0.93735 0.0
C1300 C 0.3521 0.3766 0.91662 0.0
C1301 C 0.37948 0.36105 0.94241 0.0
C1302 C 0.26714 0.30728 0.89302 0.0
C1303 C 0.2807 0.32962 0.8988 0.0
C1304 C 0.28838 0.33611 0.91987 0.0
C1305 C 0.36682 0.36806 0.92957 0.0
C1306 C 0.34305 0.36623 0.92404 0.0
C1307 C 0.27779 0.31982 0.90633 0.0
C1308 C 0.29825 0.34176 0.91234 0.0
H1309 H 0.42692 0.35193 0.92984 0.0
H1310 H 0.39627 0.36314 0.92113 0.0
H1311 H 0.30239 0.33969 0.9313 0.0
H1312 H 0.2321 0.24041 0.90371 0.0
H1313 H 0.25624 0.27856 0.91362 0.0
C1314 C 0.94202 0.70374 0.59852 0.0
C1315 C 0.95995 0.7042 0.6047 0.0
C1316 C 0.93454 0.68152 0.59281 0.0
C1317 C 0.95349 0.66029 0.57909 0.0
H1318 H 0.96372 0.58676 0.58062 0.0
C1319 C 0.04036 0.62702 0.56501 0.0
C1320 C 0.03753 0.63318 0.55745 0.0
C1321 C 0.01627 0.62092 0.5701 0.0
C1322 C 0.96028 0.60693 0.58007 0.0
H1323 H 0.98195 0.68055 0.61013 0.0
H1324 H 0.97087 0.64314 0.60002 0.0
H1325 H 0.94455 0.60303 0.59142 0.0
H1326 H 0.00609 0.63483 0.54913 0.0
H1327 H 0.96411 0.62488 0.55809 0.0
H1328 H 0.9703 0.6649 0.56786 0.0
C1329 C 0.96136 0.65888 0.5996 0.0
C1330 C 0.94958 0.61648 0.58628 0.0
C1331 C 0.96791 0.68047 0.60542 0.0
C1332 C 0.00895 0.6303 0.55493 0.0
C1333 C 0.98496 0.62464 0.56005 0.0
C1334 C 0.96362 0.65044 0.57288 0.0
C1335 C 0.94612 0.66028 0.59301 0.0
C1336 C 0.94791 0.64445 0.58601 0.0
C1337 C 0.98902 0.62128 0.56774 0.0
C1338 C 0.96887 0.62478 0.57343 0.0
H1339 H 0.93538 0.72173 0.59791 0.0
H1340 H 0.92166 0.6826 0.58799 0.0
H1341 H 0.95293 0.68208 0.57858 0.0
H1342 H 0.06199 0.62872 0.56709 0.0
H1343 H 0.02026 0.61868 0.57598 0.0
C1344 C 0.28401 0.25046 0.59402 0.0
C1345 C 0.28767 0.25478 0.60181 0.0
C1346 C 0.30933 0.26803 0.58922 0.0
C1347 C 0.37946 0.34684 0.58921 0.0
H1348 H 0.37139 0.32557 0.56811 0.0
C1349 C 0.36732 0.42321 0.56801 0.0
C1350 C 0.36917 0.41894 0.56029 0.0
C1351 C 0.37589 0.4075 0.57318 0.0
C1352 C 0.37507 0.33227 0.57396 0.0
H1353 H 0.32179 0.2782 0.61072 0.0
H1354 H 0.36643 0.30867 0.60231 0.0
H1355 H 0.35245 0.28385 0.57736 0.0
H1356 H 0.38527 0.39791 0.55193 0.0
H1357 H 0.40098 0.37086 0.56099 0.0
H1358 H 0.40229 0.39527 0.58582 0.0
C1359 C 0.34364 0.29229 0.5999 0.0
C1360 C 0.36363 0.3081 0.5793 0.0
C1361 C 0.31808 0.27469 0.60473 0.0
C1362 C 0.38303 0.40126 0.55785 0.0
C1363 C 0.39188 0.38561 0.56306 0.0
C1364 C 0.3918 0.37105 0.58388 0.0
C1365 C 0.3392 0.29035 0.59207 0.0
C1366 C 0.36284 0.31496 0.58693 0.0
C1367 C 0.38685 0.38721 0.57078 0.0
C1368 C 0.38689 0.36389 0.57619 0.0
H1369 H 0.26104 0.23488 0.59157 0.0
H1370 H 0.3045 0.2658 0.58327 0.0
H1371 H 0.38009 0.35335 0.59503 0.0
H1372 H 0.35729 0.43712 0.57011 0.0
H1373 H 0.37128 0.40939 0.57904 0.0
C1374 C 0.71183 0.03241 0.61036 0.0
C1375 C 0.73379 0.0241 0.60771 0.0
C1376 C 0.69449 0.03974 0.6053 0.0
C1377 C 0.6841 0.04738 0.58457 0.0
H1378 H 0.59579 0.99196 0.5894 0.0
C1379 C 0.59806 0.97819 0.56116 0.0
C1380 C 0.58128 0.94568 0.56285 0.0
C1381 C 0.61189 0.00064 0.5669 0.0
C1382 C 0.62033 0.00769 0.58794 0.0
H1383 H 0.75756 0.02071 0.59778 0.0
H1384 H 0.7273 0.03246 0.58906 0.0
H1385 H 0.63465 0.01151 0.59936 0.0
H1386 H 0.56323 0.91154 0.57193 0.0
H1387 H 0.58778 0.94991 0.58178 0.0
H1388 H 0.67027 0.04022 0.57308 0.0
C1389 C 0.72317 0.03367 0.59498 0.0
C1390 C 0.64272 0.01941 0.5937 0.0
C1391 C 0.74036 0.02641 0.6 0.0
C1392 C 0.57641 0.93633 0.5704 0.0
C1393 C 0.59022 0.95859 0.5761 0.0
C1394 C 0.66181 0.035 0.5788 0.0
C1395 C 0.6989 0.03893 0.59751 0.0
C1396 C 0.67516 0.03735 0.59202 0.0
C1397 C 0.60921 0.99099 0.57443 0.0
C1398 C 0.62999 0.013 0.5804 0.0
H1399 H 0.70651 0.03118 0.61629 0.0
H1400 H 0.67643 0.04428 0.60747 0.0
H1401 H 0.70876 0.06231 0.5831 0.0
H1402 H 0.60192 0.98622 0.55539 0.0
H1403 H 0.62587 0.0254 0.56541 0.0
C1404 C 0.6898 0.61025 0.73355 0.0
C1405 C 0.68846 0.61632 0.72591 0.0
C1406 C 0.6969 0.63366 0.73889 0.0
C1407 C 0.70985 0.68413 0.74999 0.0
H1408 H 0.65672 0.71989 0.74546 0.0
C1409 C 0.63854 0.69822 0.77341 0.0
C1410 C 0.60636 0.68363 0.77146 0.0
C1411 C 0.66172 0.70723 0.76784 0.0
C1412 C 0.67181 0.71025 0.74684 0.0
H1413 H 0.69718 0.6528 0.71779 0.0
H1414 H 0.71006 0.69417 0.72716 0.0
H1415 H 0.67708 0.70229 0.73532 0.0
H1416 H 0.57364 0.6698 0.76212 0.0
H1417 H 0.61323 0.68433 0.75255 0.0
H1418 H 0.70115 0.6883 0.76153 0.0
C1419 C 0.70484 0.67096 0.72903 0.0
C1420 C 0.684 0.70056 0.74098 0.0
C1421 C 0.69763 0.64732 0.72366 0.0
C1422 C 0.59813 0.68052 0.76384 0.0
C1423 C 0.62111 0.6894 0.75831 0.0
C1424 C 0.69697 0.69305 0.75585 0.0
C1425 C 0.70299 0.66394 0.73674 0.0
C1426 C 0.70109 0.68505 0.74251 0.0
C1427 C 0.65313 0.70185 0.76021 0.0
C1428 C 0.67577 0.70391 0.75433 0.0
H1429 H 0.68344 0.58675 0.73548 0.0
H1430 H 0.69489 0.62694 0.74473 0.0
H1431 H 0.72414 0.6736 0.75137 0.0
H1432 H 0.6457 0.70129 0.77924 0.0
H1433 H 0.68618 0.71717 0.76951 0.0
C1434 C 0.37305 0.08952 0.72838 0.0
C1435 C 0.37357 0.07214 0.72219 0.0
C1436 C 0.35039 0.07481 0.734 0.0
C1437 C 0.32722 0.03413 0.74761 0.0
H1438 H 0.25314 0.95082 0.7457 0.0
C1439 C 0.2917 0.9133 0.76149 0.0
C1440 C 0.29768 0.92225 0.76907 0.0
C1441 C 0.28591 0.93145 0.7564 0.0
C1442 C 0.27345 0.97431 0.74634 0.0
H1443 H 0.34975 0.0267 0.71663 0.0
H1444 H 0.31157 0.00029 0.7266 0.0
H1445 H 0.27089 0.98673 0.73497 0.0
H1446 H 0.29903 0.95528 0.77739 0.0
H1447 H 0.28955 0.98748 0.76842 0.0
H1448 H 0.33048 0.02135 0.75886 0.0
C1449 C 0.32758 0.02551 0.7271 0.0
C1450 C 0.28386 0.99483 0.74019 0.0
C1451 C 0.34962 0.04056 0.72136 0.0
C1452 C 0.2947 0.94792 0.77158 0.0
C1453 C 0.2893 0.96637 0.76645 0.0
C1454 C 0.31651 0.01391 0.75377 0.0
C1455 C 0.32874 0.04204 0.73369 0.0
C1456 C 0.31205 0.02427 0.74061 0.0
C1457 C 0.28635 0.95912 0.75875 0.0
C1458 C 0.29065 0.98313 0.75308 0.0
H1459 H 0.39121 0.11409 0.72907 0.0
H1460 H 0.35133 0.0887 0.73882 0.0
H1461 H 0.34914 0.05632 0.74824 0.0
H1462 H 0.29342 0.89336 0.75942 0.0
H1463 H 0.28394 0.92533 0.75051 0.0
C1464 C 0.94875 0.29359 0.72422 0.0
C1465 C 0.92262 0.29502 0.72704 0.0
C1466 C 0.96808 0.28823 0.72907 0.0
C1467 C 0.0163 0.31592 0.74153 0.0
H1468 H 0.99255 0.26916 0.76021 0.0
C1469 C 0.04353 0.34829 0.77393 0.0
C1470 C 0.07439 0.37368 0.77305 0.0
C1471 C 0.02921 0.32617 0.76817 0.0
C1472 C -0.0003 0.28246 0.75503 0.0
H1473 H 0.89376 0.28768 0.7369 0.0
H1474 H 0.9273 0.27837 0.74532 0.0
H1475 H 0.95591 0.25026 0.74963 0.0
H1476 H 0.11607 0.39381 0.76603 0.0
H1477 H 0.0921 0.35391 0.75622 0.0
H1478 H 0.05831 0.34986 0.74698 0.0
C1479 C 0.93312 0.28154 0.7394 0.0
C1480 C 0.97878 0.27141 0.74895 0.0
C1481 C 0.91404 0.28722 0.73459 0.0
C1482 C 0.09202 0.37458 0.76676 0.0
C1483 C 0.07809 0.35187 0.76112 0.0
C1484 C 0.03691 0.32723 0.74762 0.0
C1485 C 0.96134 0.28386 0.73679 0.0
C1486 C 0.98626 0.28896 0.74227 0.0
C1487 C 0.0458 0.32868 0.7615 0.0
C1488 C 0.02819 0.31164 0.75459 0.0
H1489 H 0.95583 0.29928 0.71842 0.0
H1490 H 0.98954 0.28986 0.72689 0.0
H1491 H 0.02274 0.3302 0.7365 0.0
H1492 H 0.02947 0.34723 0.77874 0.0
H1493 H 0.00434 0.30894 0.76873 0.0
C1494 C 0.38846 0.31122 0.23289 0.0
C1495 C 0.38147 0.31187 0.22529 0.0
C1496 C 0.36621 0.30605 0.2384 0.0
C1497 C 0.30199 0.32278 0.24091 0.0
H1498 H 0.31342 0.30407 0.26139 0.0
C1499 C 0.32155 0.40704 0.26435 0.0
C1500 C 0.31684 0.39762 0.2719 0.0
C1501 C 0.31357 0.38486 0.25865 0.0
C1502 C 0.30897 0.30874 0.25572 0.0
H1503 H 0.34435 0.30404 0.21744 0.0
H1504 H 0.30505 0.29454 0.22711 0.0
H1505 H 0.32727 0.28072 0.25113 0.0
H1506 H 0.29748 0.35706 0.27934 0.0
H1507 H 0.28321 0.31803 0.26931 0.0
H1508 H 0.28395 0.35102 0.24551 0.0
C1509 C 0.32813 0.29881 0.22882 0.0
C1510 C 0.31738 0.29565 0.24981 0.0
C1511 C 0.35059 0.30408 0.22327 0.0
C1512 C 0.30174 0.36513 0.27358 0.0
C1513 C 0.29366 0.34278 0.26783 0.0
C1514 C 0.29293 0.33531 0.24682 0.0
C1515 C 0.3362 0.30123 0.23647 0.0
C1516 C 0.31645 0.30463 0.24236 0.0
C1517 C 0.30045 0.35252 0.2603 0.0
C1518 C 0.29875 0.33053 0.25429 0.0
H1519 H 0.41187 0.31659 0.23465 0.0
H1520 H 0.37367 0.30844 0.24419 0.0
H1521 H 0.30045 0.33001 0.23527 0.0
H1522 H 0.33276 0.43181 0.26283 0.0
H1523 H 0.31971 0.39355 0.25296 0.0
C1524 C 0.63982 0.94512 0.27501 0.0
C1525 C 0.60812 0.92495 0.27293 0.0
C1526 C 0.66305 0.96084 0.26951 0.0
C1527 C 0.67432 0.96936 0.24854 0.0
H1528 H 0.71788 0.05871 0.25334 0.0
C1529 C 0.69603 0.05763 0.22537 0.0
C1530 C 0.68412 0.07752 0.2274 0.0
C1531 C 0.70366 0.04216 0.2309 0.0
C1532 C 0.70604 0.03383 0.25188 0.0
H1533 H 0.57667 0.90272 0.26349 0.0
H1534 H 0.61628 0.93038 0.25404 0.0
H1535 H 0.69741 0.02019 0.26337 0.0
H1536 H 0.67428 0.09947 0.23681 0.0
H1537 H 0.68639 0.07219 0.24631 0.0
H1538 H 0.67942 0.98296 0.23705 0.0
C1539 C 0.62377 0.9342 0.25984 0.0
C1540 C 0.69466 0.01159 0.25767 0.0
C1541 C 0.60074 0.91852 0.2653 0.0
C1542 C 0.68286 0.0839 0.23503 0.0
C1543 C 0.69031 0.06844 0.24052 0.0
C1544 C 0.685 0.99159 0.24275 0.0
C1545 C 0.65497 0.95668 0.26185 0.0
C1546 C 0.67658 0.97907 0.25605 0.0
C1547 C 0.69947 0.04626 0.23855 0.0
C1548 C 0.69891 0.02407 0.24437 0.0
H1549 H 0.64637 0.95029 0.28085 0.0
H1550 H 0.68695 0.97748 0.27128 0.0
H1551 H 0.66167 0.94447 0.24709 0.0
H1552 H 0.69769 0.05252 0.21954 0.0
H1553 H 0.71127 0.02577 0.22916 0.0
C1554 C 0.93858 0.63758 0.22324 0.0
C1555 C 0.9208 0.60528 0.22509 0.0
C1556 C 0.95326 0.66042 0.22888 0.0
C1557 C 0.96085 0.66964 0.24988 0.0
H1558 H 0.04961 0.72388 0.24528 0.0
C1559 C 0.08155 0.69541 0.26361 0.0
C1560 C 0.07372 0.69442 0.27122 0.0
C1561 C 0.06427 0.70031 0.25811 0.0
C1562 C 0.02486 0.709 0.24668 0.0
H1563 H 0.90227 0.572 0.23434 0.0
H1564 H 0.92821 0.61104 0.24401 0.0
H1565 H 0.01195 0.69964 0.23514 0.0
H1566 H 0.04409 0.70171 0.27908 0.0
H1567 H 0.01414 0.711 0.26943 0.0
H1568 H 0.97415 0.67581 0.26139 0.0
C1569 C 0.93075 0.61924 0.23828 0.0
C1570 C 0.00306 0.69541 0.24083 0.0
C1571 C 0.91612 0.5966 0.23269 0.0
C1572 C 0.05042 0.7019 0.27325 0.0
C1573 C 0.03311 0.707 0.26771 0.0
C1574 C 0.98272 0.6826 0.25571 0.0
C1575 C 0.9504 0.65137 0.23646 0.0
C1576 C 0.97109 0.67378 0.24238 0.0
C1577 C 0.03875 0.70461 0.26005 0.0
C1578 C 0.0153 0.70063 0.25418 0.0
H1579 H 0.94239 0.6451 0.21744 0.0
H1580 H 0.96782 0.68498 0.22727 0.0
H1581 H 0.93619 0.65414 0.25127 0.0
H1582 H 0.09975 0.6903 0.26185 0.0
H1583 H 0.06944 0.69802 0.25232 0.0
C1584 C 0.08515 0.21279 0.12197 0.0
C1585 C 0.06584 0.20674 0.1283 0.0
C1586 C 0.10225 0.19713 0.121 0.0
C1587 C 0.1293 0.14779 0.1309 0.0
H1588 H 0.12797 0.11593 0.11092 0.0
C1589 C 0.18836 0.07352 0.12424 0.0
C1590 C 0.1715 0.04729 0.11949 0.0
C1591 C 0.17879 0.09593 0.12514 0.0
C1592 C 0.12843 0.1245 0.11654 0.0
H1593 H 0.0501 0.18035 0.1387 0.0
H1594 H 0.07931 0.15257 0.13694 0.0
H1595 H 0.1055 0.14983 0.11304 0.0
H1596 H 0.13137 0.02415 0.11196 0.0
H1597 H 0.11431 0.06272 0.11365 0.0
H1598 H 0.15082 0.12116 0.13446 0.0
C1599 C 0.08176 0.16977 0.13277 0.0
C1600 C 0.11595 0.14436 0.11774 0.0
C1601 C 0.06485 0.1856 0.13377 0.0
C1602 C 0.14502 0.04414 0.11562 0.0
C1603 C 0.13535 0.06641 0.11656 0.0
C1604 C 0.14161 0.12776 0.12971 0.0
C1605 C 0.10025 0.17494 0.12632 0.0
C1606 C 0.11586 0.15593 0.12496 0.0
C1607 C 0.15203 0.09252 0.12135 0.0
C1608 C 0.14093 0.11553 0.12253 0.0
H1609 H 0.08672 0.2293 0.11771 0.0
H1610 H 0.11676 0.20216 0.11603 0.0
H1611 H 0.13001 0.15662 0.13651 0.0
H1612 H 0.20899 0.0768 0.12727 0.0
H1613 H 0.19245 0.11598 0.12879 0.0
C1614 C 0.92926 0.11294 0.12709 0.0
C1615 C 0.94362 0.12704 0.12025 0.0
C1616 C 0.90767 0.08049 0.12748 0.0
C1617 C 0.88345 0.00619 0.11689 0.0
H1618 H 0.81506 0.97058 0.13138 0.0
C1619 C 0.79155 0.87344 0.11775 0.0
C1620 C 0.78937 0.85896 0.1247 0.0
C1621 C 0.80719 0.90635 0.11714 0.0
C1622 C 0.8341 0.98031 0.12731 0.0
H1623 H 0.94544 0.11862 0.10838 0.0
H1624 H 0.90678 0.06242 0.10897 0.0
H1625 H 0.84785 0.02801 0.1302 0.0
H1626 H 0.80007 0.86768 0.13657 0.0
H1627 H 0.82685 0.92534 0.1355 0.0
H1628 H 0.86917 0.95839 0.11393 0.0
C1629 C 0.91303 0.07601 0.11411 0.0
C1630 C 0.85303 0.01317 0.12666 0.0
C1631 C 0.93506 0.10832 0.11375 0.0
C1632 C 0.80155 0.8781 0.13112 0.0
C1633 C 0.81678 0.91106 0.13052 0.0
C1634 C 0.86421 0.97344 0.11746 0.0
C1635 C 0.89952 0.0615 0.121 0.0
C1636 C 0.87817 0.02656 0.12148 0.0
C1637 C 0.82039 0.92544 0.1235 0.0
C1638 C 0.83956 0.96021 0.12271 0.0
H1639 H 0.93554 0.12676 0.1322 0.0
H1640 H 0.89821 0.07021 0.13291 0.0
H1641 H 0.90298 0.01543 0.11297 0.0
H1642 H 0.78174 0.85946 0.11273 0.0
H1643 H 0.80931 0.91693 0.11168 0.0
C1644 C 0.89467 0.823 0.11438 0.0
C1645 C 0.87257 0.81336 0.12025 0.0
C1646 C 0.92604 0.83151 0.11583 0.0
C1647 C 0.98602 0.86761 0.1299 0.0
H1648 H 0.03103 0.83439 0.11869 0.0
C1649 C 0.11991 0.9203 0.13389 0.0
C1650 C 0.1376 0.92466 0.12734 0.0
C1651 C 0.08696 0.9014 0.13379 0.0
C1652 C 0.01896 0.8442 0.12183 0.0
H1653 H 0.86588 0.80476 0.13222 0.0
H1654 H 0.92113 0.82069 0.13477 0.0
H1655 H 0.97424 0.81179 0.11685 0.0
H1656 H 0.13468 0.9105 0.11571 0.0
H1657 H 0.07757 0.87939 0.1154 0.0
H1658 H 0.0306 0.90135 0.13454 0.0
C1659 C 0.91391 0.82117 0.12905 0.0
C1660 C 0.98641 0.83105 0.12079 0.0
C1661 C 0.88237 0.812 0.12758 0.0
C1662 C 0.12179 0.90839 0.12081 0.0
C1663 C 0.08887 0.88999 0.12067 0.0
C1664 C 0.01865 0.8812 0.13083 0.0
C1665 C 0.936 0.83113 0.12319 0.0
C1666 C 0.96978 0.84293 0.12475 0.0
C1667 C 0.0709 0.88674 0.12712 0.0
C1668 C 0.0357 0.87002 0.12672 0.0
H1669 H 0.88776 0.82413 0.10867 0.0
H1670 H 0.94276 0.83937 0.11123 0.0
H1671 H 0.97369 0.87735 0.13296 0.0
H1672 H 0.13141 0.93213 0.13905 0.0
H1673 H 0.07407 0.8988 0.13893 0.0
C1674 C 0.036 0.15047 0.38198 0.0
C1675 C 0.02945 0.16191 0.37541 0.0
C1676 C 0.06011 0.143 0.3821 0.0
C1677 C 0.12934 0.15181 0.37108 0.0
H1678 H 0.11444 0.07842 0.38266 0.0
C1679 C 0.19081 0.07801 0.36624 0.0
C1680 C 0.20216 0.07005 0.37263 0.0
C1681 C 0.17361 0.09368 0.36694 0.0
C1682 C 0.11906 0.09919 0.37948 0.0
H1683 H 0.04301 0.17461 0.3638 0.0
H1684 H 0.08396 0.16022 0.36388 0.0
H1685 H 0.07627 0.09651 0.38318 0.0
H1686 H 0.20622 0.07441 0.38474 0.0
H1687 H 0.17502 0.10056 0.38597 0.0
H1688 H 0.17138 0.15306 0.36708 0.0
C1689 C 0.07136 0.15798 0.36904 0.0
C1690 C 0.09728 0.10972 0.37979 0.0
C1691 C 0.04767 0.16603 0.36897 0.0
C1692 C 0.19715 0.07938 0.37972 0.0
C1693 C 0.17944 0.09452 0.38043 0.0
C1694 C 0.15081 0.14086 0.37066 0.0
C1695 C 0.07781 0.14618 0.37559 0.0
C1696 C 0.10198 0.13607 0.37555 0.0
C1697 C 0.16712 0.10133 0.37406 0.0
C1698 C 0.14573 0.11437 0.37483 0.0
H1699 H 0.02258 0.14742 0.38706 0.0
H1700 H 0.0648 0.1347 0.3873 0.0
H1701 H 0.13418 0.17256 0.36786 0.0
H1702 H 0.19446 0.07141 0.36069 0.0
H1703 H 0.16424 0.09863 0.36195 0.0
C1704 C 0.88837 0.10183 0.37021 0.0
C1705 C 0.91079 0.11746 0.36453 0.0
C1706 C 0.8728 0.06889 0.3708 0.0
C1707 C 0.85705 0.9955 0.36074 0.0
H1708 H 0.84986 0.96307 0.38091 0.0
C1709 C 0.8028 0.86186 0.36674 0.0
C1710 C 0.81807 0.85343 0.37218 0.0
C1711 C 0.8109 0.89345 0.36579 0.0
C1712 C 0.85185 0.97173 0.37524 0.0
H1713 H 0.9336 0.11083 0.35483 0.0
H1714 H 0.90702 0.05348 0.35595 0.0
H1715 H 0.86951 0.01915 0.37902 0.0
H1716 H 0.85387 0.8717 0.3809 0.0
H1717 H 0.86843 0.92671 0.37913 0.0
H1718 H 0.84083 0.94825 0.35695 0.0
C1719 C 0.90099 0.06651 0.35988 0.0
C1720 C 0.86268 0.00387 0.37416 0.0
C1721 C 0.91635 0.09944 0.35926 0.0
C1722 C 0.84148 0.87729 0.37668 0.0
C1723 C 0.8497 0.90887 0.3757 0.0
C1724 C 0.8464 0.96335 0.36182 0.0
C1725 C 0.87951 0.05087 0.36576 0.0
C1726 C 0.86574 0.01624 0.36689 0.0
C1727 C 0.83457 0.91737 0.37023 0.0
C1728 C 0.84404 0.95115 0.36908 0.0
H1729 H 0.88327 0.11508 0.3743 0.0
H1730 H 0.85588 0.05759 0.37529 0.0
H1731 H 0.85874 0.00414 0.35507 0.0
H1732 H 0.78454 0.84407 0.36319 0.0
H1733 H 0.79848 0.8991 0.36159 0.0
C1734 C 0.11332 0.92965 0.36948 0.0
C1735 C 0.12395 0.94039 0.37679 0.0
C1736 C 0.08193 0.90623 0.3682 0.0
C1737 C 0.00317 0.86916 0.37744 0.0
H1738 H 0.97848 0.81011 0.36085 0.0
C1739 C 0.87487 0.7704 0.37327 0.0
C1740 C 0.862 0.77163 0.36632 0.0
C1741 C 0.90749 0.78736 0.37442 0.0
C1742 C 0.98516 0.82649 0.3655 0.0
H1743 H 0.1107 0.93387 0.38852 0.0
H1744 H 0.05654 0.89208 0.38635 0.0
H1745 H 0.03459 0.84641 0.36331 0.0
H1746 H 0.87344 0.78959 0.35494 0.0
H1747 H 0.93067 0.81875 0.35694 0.0
H1748 H 0.95374 0.84876 0.37969 0.0
C1749 C 0.07186 0.90256 0.38155 0.0
C1750 C 0.01724 0.84743 0.3669 0.0
C1751 C 0.10301 0.9264 0.38281 0.0
C1752 C 0.8826 0.78834 0.36038 0.0
C1753 C 0.91533 0.80497 0.36151 0.0
C1754 C 0.97125 0.8479 0.37613 0.0
C1755 C 0.06066 0.89262 0.37422 0.0
C1756 C 0.02666 0.86923 0.37286 0.0
C1757 C 0.92793 0.80536 0.3686 0.0
C1758 C 0.96195 0.82655 0.37012 0.0
H1759 H 0.12895 0.94011 0.36472 0.0
H1760 H 0.07418 0.89957 0.36247 0.0
H1761 H 0.00928 0.88605 0.38196 0.0
H1762 H 0.85977 0.75706 0.3779 0.0
H1763 H 0.91675 0.78696 0.37991 0.0
C1764 C 0.80397 0.92387 0.87247 0.0
C1765 C 0.82107 0.94999 0.87724 0.0
C1766 C 0.81298 0.901 0.87162 0.0
C1767 C 0.86215 0.87127 0.88037 0.0
H1768 H 0.86107 0.83915 0.86043 0.0
C1769 C 0.90607 0.78352 0.87529 0.0
C1770 C 0.92557 0.78949 0.869 0.0
C1771 C 0.88859 0.79883 0.87612 0.0
C1772 C 0.86164 0.84797 0.86603 0.0
H1773 H 0.86099 0.97245 0.88485 0.0
H1774 H 0.87705 0.93312 0.88324 0.0
H1775 H 0.84051 0.87488 0.86239 0.0
H1776 H 0.94121 0.81527 0.85853 0.0
H1777 H 0.91141 0.84261 0.86006 0.0
H1778 H 0.88479 0.84581 0.88395 0.0
C1779 C 0.85625 0.92983 0.88028 0.0
C1780 C 0.84946 0.86815 0.86718 0.0
C1781 C 0.84715 0.95255 0.88117 0.0
C1782 C 0.9263 0.81011 0.86342 0.0
C1783 C 0.90906 0.82567 0.86429 0.0
C1784 C 0.87453 0.85131 0.87922 0.0
C1785 C 0.83938 0.90384 0.87548 0.0
C1786 C 0.85001 0.88043 0.87435 0.0
C1787 C 0.89046 0.82069 0.87073 0.0
C1788 C 0.87482 0.83973 0.87202 0.0
H1789 H 0.78365 0.92107 0.86938 0.0
H1790 H 0.7992 0.88106 0.86795 0.0
H1791 H 0.86249 0.87985 0.88599 0.0
H1792 H 0.90472 0.7674 0.87963 0.0
H1793 H 0.87398 0.79389 0.88107 0.0
C1794 C 0.04733 0.89732 0.87981 0.0
C1795 C 0.04874 0.87382 0.87556 0.0
C1796 C 0.07011 0.92914 0.87891 0.0
C1797 C 0.12996 0.98491 0.86559 0.0
H1798 H 0.15724 0.0403 0.88291 0.0
C1799 C 0.19105 0.12099 0.86335 0.0
C1800 C 0.21272 0.13945 0.86894 0.0
C1801 C 0.17507 0.08797 0.8638 0.0
C1802 C 0.15035 0.02517 0.87801 0.0
H1803 H 0.07556 0.86545 0.86707 0.0
H1804 H 0.11566 0.92104 0.8656 0.0
H1805 H 0.12209 0.98388 0.88459 0.0
H1806 H 0.23644 0.13799 0.87906 0.0
H1807 H 0.20927 0.08044 0.87974 0.0
H1808 H 0.15865 0.02629 0.85902 0.0
C1809 C 0.09659 0.91483 0.86954 0.0
C1810 C 0.12975 0.99281 0.87897 0.0
C1811 C 0.07368 0.88294 0.87042 0.0
C1812 C 0.21951 0.12433 0.87473 0.0
C1813 C 0.2038 0.09135 0.87514 0.0
C1814 C 0.15076 0.01733 0.86462 0.0
C1815 C 0.09502 0.93832 0.87377 0.0
C1816 C 0.11884 0.97235 0.87276 0.0
C1817 C 0.18067 0.07276 0.86981 0.0
C1818 C 0.16084 0.03793 0.87082 0.0
H1819 H 0.02836 0.89122 0.88379 0.0
H1820 H 0.0678 0.94663 0.88216 0.0
H1821 H 0.12188 0.96987 0.86067 0.0
H1822 H 0.18524 0.132 0.85883 0.0
H1823 H 0.15722 0.07446 0.85963 0.0
C1824 C 0.10292 0.14528 0.8811 0.0
C1825 C 0.12625 0.17191 0.87725 0.0
C1826 C 0.07095 0.13562 0.8802 0.0
C1827 C 0.01556 0.14225 0.86726 0.0
H1828 H 0.95837 0.1081 0.88418 0.0
C1829 C 0.87987 0.06863 0.864 0.0
C1830 C 0.86094 0.07099 0.8696 0.0
C1831 C 0.91276 0.08469 0.86474 0.0
C1832 C 0.97403 0.11798 0.87941 0.0
H1833 H 0.13419 0.20959 0.86954 0.0
H1834 H 0.07845 0.19301 0.86809 0.0
H1835 H 0.01471 0.12925 0.88606 0.0
H1836 H 0.86163 0.09362 0.88011 0.0
H1837 H 0.91902 0.12212 0.88134 0.0
H1838 H 0.97485 0.13133 0.86062 0.0
C1839 C 0.08487 0.17927 0.87169 0.0
C1840 C 0.00632 0.12969 0.88047 0.0
C1841 C 0.11685 0.18887 0.87256 0.0
C1842 C 0.87559 0.09096 0.87576 0.0
C1843 C 0.90847 0.10717 0.87648 0.0
C1844 C 0.98325 0.13063 0.8662 0.0
C1845 C 0.06152 0.15244 0.87547 0.0
C1846 C 0.02743 0.1416 0.8744 0.0
C1847 C 0.92741 0.10363 0.87107 0.0
C1848 C 0.96205 0.11804 0.87224 0.0
H1849 H 0.10926 0.13155 0.88472 0.0
H1850 H 0.05357 0.11455 0.88311 0.0
H1851 H 0.03112 0.15101 0.86245 0.0
H1852 H 0.86926 0.05333 0.8592 0.0
H1853 H 0.92658 0.08116 0.8605 0.0
C1854 C 0.7833 0.90829 0.62152 0.0
C1855 C 0.78494 0.92292 0.62842 0.0
C1856 C 0.79891 0.89119 0.62051 0.0
C1857 C 0.83318 0.84896 0.62985 0.0
H1858 H 0.89392 0.88023 0.61357 0.0
C1859 C 0.93017 0.81481 0.62675 0.0
C1860 C 0.94093 0.81364 0.61952 0.0
C1861 C 0.90834 0.82503 0.62781 0.0
C1862 C 0.87665 0.8706 0.61805 0.0
H1863 H 0.80232 0.92909 0.63985 0.0
H1864 H 0.82902 0.89851 0.6381 0.0
H1865 H 0.85944 0.90211 0.61549 0.0
H1866 H 0.93608 0.82054 0.6077 0.0
H1867 H 0.89698 0.83685 0.60949 0.0
H1868 H 0.84983 0.81696 0.63234 0.0
C1869 C 0.816 0.90076 0.63346 0.0
C1870 C 0.85702 0.88334 0.61916 0.0
C1871 C 0.8008 0.91832 0.63444 0.0
C1872 C 0.92855 0.82167 0.61335 0.0
C1873 C 0.90627 0.83124 0.61439 0.0
C1874 C 0.85246 0.83574 0.62866 0.0
C1875 C 0.81588 0.8878 0.62642 0.0
C1876 C 0.8353 0.87283 0.6251 0.0
C1877 C 0.89634 0.83373 0.62164 0.0
C1878 C 0.87466 0.84658 0.62277 0.0
H1879 H 0.7706 0.91059 0.61683 0.0
H1880 H 0.79815 0.88101 0.61506 0.0
H1881 H 0.81646 0.8404 0.63445 0.0
H1882 H 0.93942 0.80887 0.63161 0.0
H1883 H 0.90168 0.82701 0.63348 0.0
C1884 C 0.17132 0.10381 0.60984 0.0
C1885 C 0.18009 0.12369 0.61614 0.0
C1886 C 0.16179 0.07183 0.61063 0.0
C1887 C 0.15887 0.01215 0.62422 0.0
H1888 H 0.0893 0.95405 0.61156 0.0
C1889 C 0.07642 0.87834 0.63021 0.0
C1890 C 0.06901 0.85763 0.62409 0.0
C1891 C 0.09426 0.91108 0.62916 0.0
C1892 C 0.10899 0.97001 0.61507 0.0
H1893 H 0.18633 0.12582 0.6282 0.0
H1894 H 0.16842 0.06976 0.62963 0.0
H1895 H 0.11191 0.0107 0.60988 0.0
H1896 H 0.07648 0.85506 0.61218 0.0
H1897 H 0.10673 0.91218 0.61034 0.0
H1898 H 0.15457 0.97092 0.62963 0.0
C1899 C 0.16972 0.07893 0.62404 0.0
C1900 C 0.12211 0.00254 0.61409 0.0
C1901 C 0.17981 0.11109 0.62323 0.0
C1902 C 0.08104 0.8703 0.61698 0.0
C1903 C 0.09849 0.903 0.61592 0.0
C1904 C 0.14536 0.97952 0.62527 0.0
C1905 C 0.16018 0.05878 0.61776 0.0
C1906 C 0.14719 0.0241 0.61866 0.0
C1907 C 0.10476 0.92367 0.62198 0.0
C1908 C 0.12027 0.9582 0.62071 0.0
H1909 H 0.17173 0.11295 0.60428 0.0
H1910 H 0.15544 0.05729 0.60564 0.0
H1911 H 0.17847 0.02797 0.62776 0.0
H1912 H 0.06769 0.86934 0.63577 0.0
H1913 H 0.0987 0.92655 0.63392 0.0
C1914 C 0.11756 0.21313 0.62704 0.0
C1915 C 0.13452 0.20508 0.62204 0.0
C1916 C 0.08459 0.19833 0.62655 0.0
C1917 C 0.01621 0.14295 0.61429 0.0
H1918 H 0.96906 0.12967 0.63267 0.0
C1919 C 0.88059 0.06618 0.61417 0.0
C1920 C 0.86586 0.04847 0.62061 0.0
C1921 C 0.91251 0.0895 0.61433 0.0
C1922 C 0.98172 0.13261 0.62748 0.0
H1923 H 0.13062 0.17479 0.61277 0.0
H1924 H 0.07358 0.14755 0.61218 0.0
H1925 H 0.02603 0.16099 0.63291 0.0
H1926 H 0.8724 0.04083 0.63225 0.0
H1927 H 0.92856 0.07949 0.63243 0.0
H1928 H 0.97236 0.11209 0.60899 0.0
C1929 C 0.08525 0.16646 0.61622 0.0
C1930 C 0.01467 0.15137 0.62759 0.0
C1931 C 0.11816 0.18198 0.61657 0.0
C1932 C 0.88336 0.05445 0.62723 0.0
C1933 C 0.91556 0.07694 0.62733 0.0
C1934 C 0.98342 0.12335 0.61423 0.0
C1935 C 0.06785 0.17433 0.6212 0.0
C1936 C 0.0325 0.15649 0.62101 0.0
C1937 C 0.93076 0.09478 0.62087 0.0
C1938 C 0.96561 0.11753 0.62085 0.0
H1939 H 0.12983 0.23097 0.6313 0.0
H1940 H 0.07237 0.2057 0.63039 0.0
H1941 H 0.02872 0.14697 0.60903 0.0
H1942 H 0.8673 0.06216 0.60903 0.0
H1943 H 0.92275 0.10322 0.6093 0.0
C1944 C 0.73121 0.52157 0.46524 0.0
C1945 C 0.73259 0.54166 0.45944 0.0
C1946 C 0.74678 0.50426 0.46453 0.0
C1947 C 0.77653 0.47245 0.4499 0.0
H1948 H 0.81164 0.45096 0.46688 0.0
C1949 C 0.79991 0.36818 0.44906 0.0
C1950 C 0.82659 0.37124 0.45281 0.0
C1951 C 0.79153 0.39153 0.44974 0.0
C1952 C 0.80231 0.45704 0.46205 0.0
H1953 H 0.75298 0.56098 0.44858 0.0
H1954 H 0.7807 0.53133 0.4474 0.0
H1955 H 0.79341 0.48881 0.46847 0.0
H1956 H 0.8658 0.40168 0.4601 0.0
H1957 H 0.85147 0.44267 0.46115 0.0
H1958 H 0.78581 0.44108 0.44346 0.0
C1959 C 0.76687 0.52821 0.45241 0.0
C1960 C 0.7915 0.47845 0.46299 0.0
C1961 C 0.75111 0.54532 0.45309 0.0
C1962 C 0.84498 0.39846 0.45716 0.0
C1963 C 0.83669 0.4219 0.4578 0.0
C1964 C 0.78747 0.45119 0.44896 0.0
C1965 C 0.76428 0.5069 0.45804 0.0
C1966 C 0.77809 0.4861 0.45695 0.0
C1967 C 0.80973 0.41861 0.45414 0.0
C1968 C 0.80007 0.44286 0.45504 0.0
H1969 H 0.71703 0.51818 0.47019 0.0
H1970 H 0.74396 0.48784 0.46895 0.0
H1971 H 0.766 0.47747 0.44514 0.0
H1972 H 0.7851 0.34746 0.4457 0.0
H1973 H 0.77033 0.38795 0.44694 0.0
C1974 C 0.46558 0.21786 0.46976 0.0
C1975 C 0.44292 0.19793 0.46451 0.0
C1976 C 0.4821 0.25064 0.46871 0.0
C1977 C 0.50577 0.30915 0.45344 0.0
H1978 H 0.53672 0.36938 0.46983 0.0
C1979 C 0.60947 0.43578 0.4497 0.0
C1980 C 0.60903 0.46056 0.45361 0.0
C1981 C 0.58639 0.40438 0.45104 0.0
C1982 C 0.52794 0.35295 0.46518 0.0
H1983 H 0.41823 0.1967 0.45431 0.0
H1984 H 0.44639 0.25386 0.45257 0.0
H1985 H 0.49982 0.31371 0.4724 0.0
H1986 H 0.58355 0.4717 0.46191 0.0
H1987 H 0.5429 0.41685 0.46413 0.0
H1988 H 0.53344 0.34834 0.44621 0.0
C1989 C 0.45217 0.24422 0.45738 0.0
C1990 C 0.50708 0.32095 0.46666 0.0
C1991 C 0.43589 0.21147 0.4584 0.0
C1992 C 0.58468 0.45319 0.45882 0.0
C1993 C 0.56146 0.42172 0.46013 0.0
C1994 C 0.52643 0.34111 0.45196 0.0
C1995 C 0.47608 0.26417 0.46241 0.0
C1996 C 0.4961 0.29858 0.46082 0.0
C1997 C 0.56214 0.39693 0.45628 0.0
C1998 C 0.53822 0.36334 0.45782 0.0
H1999 H 0.47159 0.2081 0.47451 0.0
H2000 H 0.50057 0.26519 0.47265 0.0
H2001 H 0.49816 0.29261 0.44881 0.0
H2002 H 0.62796 0.44054 0.44569 0.0
H2003 H 0.58801 0.38589 0.44807 0.0
C2004 C 0.77109 0.25724 0.46787 0.0
C2005 C 0.78857 0.25244 0.4623 0.0
C2006 C 0.73807 0.24138 0.46752 0.0
C2007 C 0.66705 0.1965 0.46704 0.0
H2008 H 0.63233 0.1911 0.4472 0.0
C2009 C 0.53267 0.14048 0.4619 0.0
C2010 C 0.52333 0.15631 0.45683 0.0
C2011 C 0.56448 0.14908 0.46258 0.0
C2012 C 0.64164 0.19257 0.45279 0.0
H2013 H 0.78525 0.22566 0.45231 0.0
H2014 H 0.72769 0.19744 0.45179 0.0
H2015 H 0.6887 0.21132 0.44866 0.0
H2016 H 0.54023 0.19358 0.44848 0.0
H2017 H 0.59562 0.20889 0.44975 0.0
H2018 H 0.6201 0.17906 0.47119 0.0
C2019 C 0.73942 0.21414 0.4563 0.0
C2020 C 0.67394 0.20373 0.45362 0.0
C2021 C 0.7724 0.23018 0.45662 0.0
C2022 C 0.54652 0.18074 0.45241 0.0
C2023 C 0.57831 0.18942 0.45311 0.0
C2024 C 0.63472 0.18545 0.46622 0.0
C2025 C 0.72188 0.22019 0.46163 0.0
C2026 C 0.68712 0.20614 0.46076 0.0
C2027 C 0.58771 0.17377 0.45822 0.0
C2028 C 0.6217 0.18371 0.45908 0.0
H2029 H 0.78291 0.27435 0.4723 0.0
H2030 H 0.72537 0.24685 0.47168 0.0
H2031 H 0.67636 0.19773 0.47262 0.0
H2032 H 0.51542 0.12144 0.46538 0.0
H2033 H 0.57085 0.13626 0.4665 0.0
C2034 C 0.71846 0.50029 0.70493 0.0
C2035 C 0.71134 0.50977 0.71172 0.0
C2036 C 0.7406 0.49015 0.70472 0.0
C2037 C 0.78364 0.46352 0.7175 0.0
H2038 H 0.82588 0.46571 0.69895 0.0
C2039 C 0.84489 0.39009 0.71403 0.0
C2040 C 0.86942 0.39938 0.70883 0.0
C2041 C 0.82861 0.40668 0.71462 0.0
C2042 C 0.81494 0.4654 0.70425 0.0
H2043 H 0.72263 0.51791 0.72351 0.0
H2044 H 0.76306 0.50276 0.7231 0.0
H2045 H 0.79429 0.49097 0.69955 0.0
H2046 H 0.89709 0.43364 0.70031 0.0
H2047 H 0.87045 0.46432 0.70169 0.0
H2048 H 0.80617 0.44011 0.72236 0.0
C2049 C 0.75049 0.50121 0.71799 0.0
C2050 C 0.79604 0.47938 0.70454 0.0
C2051 C 0.72753 0.51024 0.71823 0.0
C2052 C 0.87812 0.42608 0.70436 0.0
C2053 C 0.86254 0.44339 0.70511 0.0
C2054 C 0.80336 0.4505 0.71727 0.0
C2055 C 0.75692 0.49032 0.71126 0.0
C2056 C 0.77943 0.47798 0.71112 0.0
C2057 C 0.83712 0.43362 0.71016 0.0
C2058 C 0.81866 0.45044 0.71059 0.0
H2059 H 0.70603 0.49956 0.69984 0.0
H2060 H 0.74409 0.48136 0.69945 0.0
H2061 H 0.77112 0.46137 0.72266 0.0
H2062 H 0.83728 0.36914 0.71742 0.0
H2063 H 0.8087 0.3976 0.71842 0.0
C2064 C 0.48983 0.22094 0.715 0.0
C2065 C 0.48233 0.20212 0.70854 0.0
C2066 C 0.49875 0.25286 0.71446 0.0
C2067 C 0.50205 0.31391 0.70123 0.0
H2068 H 0.56728 0.37109 0.71496 0.0
C2069 C 0.58312 0.44958 0.69714 0.0
C2070 C 0.58741 0.46866 0.70344 0.0
C2071 C 0.56572 0.41661 0.69771 0.0
C2072 C 0.5488 0.35535 0.71115 0.0
H2073 H 0.47788 0.20174 0.69645 0.0
H2074 H 0.49495 0.2578 0.69545 0.0
H2075 H 0.54657 0.31449 0.71604 0.0
H2076 H 0.57455 0.46799 0.71511 0.0
H2077 H 0.54526 0.41046 0.71616 0.0
H2078 H 0.5059 0.35551 0.69612 0.0
C2079 C 0.49302 0.24783 0.70097 0.0
C2080 C 0.53674 0.32283 0.71178 0.0
C2081 C 0.48344 0.2157 0.70153 0.0
C2082 C 0.57251 0.45408 0.71021 0.0
C2083 C 0.55557 0.42114 0.71081 0.0
C2084 C 0.51461 0.34659 0.70052 0.0
C2085 C 0.50111 0.26694 0.70743 0.0
C2086 C 0.51318 0.3016 0.70683 0.0
C2087 C 0.55259 0.40216 0.7046 0.0
C2088 C 0.53807 0.36753 0.70548 0.0
H2089 H 0.48871 0.21098 0.72049 0.0
H2090 H 0.5039 0.26648 0.71958 0.0
H2091 H 0.48359 0.29837 0.6974 0.0
H2092 H 0.59408 0.46006 0.69183 0.0
H2093 H 0.56378 0.40242 0.69285 0.0
C2094 C 0.76826 0.25685 0.71753 0.0
C2095 C 0.79078 0.26934 0.71175 0.0
C2096 C 0.7369 0.23421 0.71598 0.0
C2097 C 0.67885 0.2106 0.70121 0.0
H2098 H 0.62942 0.13538 0.71323 0.0
C2099 C 0.54606 0.12985 0.69567 0.0
C2100 C 0.52638 0.11832 0.702 0.0
C2101 C 0.57883 0.14385 0.69639 0.0
C2102 C 0.64278 0.15643 0.70986 0.0
H2103 H 0.7982 0.26725 0.69981 0.0
H2104 H 0.74316 0.22812 0.69709 0.0
H2105 H 0.68614 0.16834 0.71549 0.0
H2106 H 0.52568 0.1107 0.71399 0.0
H2107 H 0.58265 0.13649 0.71532 0.0
H2108 H 0.63565 0.2 0.69584 0.0
C2109 C 0.74994 0.23582 0.70283 0.0
C2110 C 0.67527 0.17515 0.71113 0.0
C2111 C 0.78143 0.25811 0.7044 0.0
C2112 C 0.5401 0.11989 0.70901 0.0
C2113 C 0.5729 0.13432 0.70976 0.0
C2114 C 0.64633 0.19219 0.70001 0.0
C2115 C 0.72735 0.22395 0.70859 0.0
C2116 C 0.69351 0.20257 0.70687 0.0
C2117 C 0.59276 0.14701 0.70347 0.0
C2118 C 0.62777 0.16504 0.70437 0.0
H2119 H 0.77474 0.26488 0.72326 0.0
H2120 H 0.71986 0.2256 0.72051 0.0
H2121 H 0.69233 0.23187 0.69791 0.0
H2122 H 0.53623 0.12859 0.69016 0.0
H2123 H 0.59325 0.15258 0.69139 0.0
C2124 C 0.57522 0.12723 0.19673 0.0
C2125 C 0.58099 0.11563 0.20339 0.0
C2126 C 0.55747 0.14249 0.19684 0.0
C2127 C 0.50611 0.16029 0.20921 0.0
H2128 H 0.53759 0.23441 0.19649 0.0
C2129 C 0.49017 0.26836 0.21481 0.0
C2130 C 0.47904 0.27857 0.20878 0.0
C2131 C 0.49767 0.2445 0.21379 0.0
C2132 C 0.52834 0.21356 0.20001 0.0
H2133 H 0.57045 0.10875 0.21528 0.0
H2134 H 0.54146 0.13692 0.21557 0.0
H2135 H 0.55952 0.19956 0.19527 0.0
H2136 H 0.46675 0.27161 0.19697 0.0
H2137 H 0.48089 0.23056 0.19516 0.0
H2138 H 0.47635 0.17587 0.21425 0.0
C2139 C 0.55004 0.13391 0.21022 0.0
C2140 C 0.54072 0.19339 0.19929 0.0
C2141 C 0.56725 0.11815 0.21008 0.0
C2142 C 0.47518 0.26417 0.20173 0.0
C2143 C 0.48332 0.24079 0.20068 0.0
C2144 C 0.49422 0.18088 0.21003 0.0
C2145 C 0.54545 0.1469 0.20362 0.0
C2146 C 0.53007 0.16665 0.20394 0.0
C2147 C 0.49478 0.2309 0.20669 0.0
C2148 C 0.50548 0.20781 0.20548 0.0
H2149 H 0.58505 0.12524 0.19145 0.0
H2150 H 0.5537 0.15132 0.1916 0.0
H2151 H 0.49675 0.13962 0.21278 0.0
H2152 H 0.49324 0.27893 0.22031 0.0
H2153 H 0.5067 0.23737 0.21849 0.0
C2154 C 0.70644 0.227 0.2135 0.0
C2155 C 0.7066 0.20246 0.20941 0.0
C2156 C 0.72946 0.25848 0.21223 0.0
C2157 C 0.78751 0.31117 0.19818 0.0
H2158 H 0.81925 0.36927 0.21498 0.0
C2159 C 0.85172 0.44709 0.1948 0.0
C2160 C 0.87474 0.4659 0.20012 0.0
C2161 C 0.83492 0.41415 0.19553 0.0
C2162 C 0.81109 0.35336 0.21022 0.0
H2163 H 0.73142 0.19189 0.20081 0.0
H2164 H 0.77193 0.24689 0.19869 0.0
H2165 H 0.78321 0.3134 0.21723 0.0
H2166 H 0.89994 0.465 0.21002 0.0
H2167 H 0.87129 0.40757 0.21119 0.0
H2168 H 0.8158 0.35122 0.19118 0.0
C2169 C 0.75365 0.24174 0.2028 0.0
C2170 C 0.78999 0.32133 0.21151 0.0
C2171 C 0.73051 0.2102 0.20405 0.0
C2172 C 0.88199 0.45111 0.2059 0.0
C2173 C 0.86544 0.4182 0.20659 0.0
C2174 C 0.80878 0.34326 0.19689 0.0
C2175 C 0.75337 0.26626 0.20687 0.0
C2176 C 0.77754 0.29992 0.2055 0.0
C2177 C 0.84103 0.39936 0.20155 0.0
C2178 C 0.82051 0.36482 0.20289 0.0
H2179 H 0.68829 0.22198 0.21764 0.0
H2180 H 0.72816 0.27678 0.21537 0.0
H2181 H 0.77822 0.29537 0.19341 0.0
H2182 H 0.84553 0.45785 0.1903 0.0
H2183 H 0.81612 0.40046 0.19158 0.0
C2184 C 0.76905 0.47535 0.21282 0.0
C2185 C 0.7922 0.50193 0.20893 0.0
C2186 C 0.73705 0.4658 0.21205 0.0
C2187 C 0.68121 0.47281 0.19932 0.0
H2188 H 0.6245 0.43801 0.2163 0.0
C2189 C 0.54532 0.40082 0.19621 0.0
C2190 C 0.52675 0.40324 0.20189 0.0
C2191 C 0.57821 0.4162 0.19692 0.0
C2192 C 0.64002 0.44806 0.21152 0.0
H2193 H 0.79982 0.53974 0.2013 0.0
H2194 H 0.74407 0.5234 0.20008 0.0
H2195 H 0.68087 0.45896 0.21807 0.0
H2196 H 0.52809 0.42517 0.21256 0.0
H2197 H 0.58545 0.45254 0.21374 0.0
H2198 H 0.64036 0.46236 0.1928 0.0
C2199 C 0.75061 0.50957 0.20361 0.0
C2200 C 0.67233 0.45966 0.21251 0.0
C2201 C 0.78262 0.51904 0.20435 0.0
C2202 C 0.54176 0.4225 0.20814 0.0
C2203 C 0.57463 0.43806 0.20883 0.0
C2204 C 0.64888 0.46132 0.19834 0.0
C2205 C 0.72742 0.48269 0.20741 0.0
C2206 C 0.69328 0.47186 0.20641 0.0
C2207 C 0.59321 0.43453 0.20331 0.0
C2208 C 0.62785 0.44852 0.20441 0.0
H2209 H 0.77555 0.46151 0.21637 0.0
H2210 H 0.71981 0.44471 0.21497 0.0
H2211 H 0.69662 0.48176 0.19449 0.0
H2212 H 0.5344 0.38604 0.19134 0.0
H2213 H 0.59173 0.4127 0.1926 0.0
C2214 C 0.60878 0.15465 0.96201 0.0
C2215 C 0.62434 0.1565 0.95525 0.0
C2216 C 0.58556 0.16333 0.9623 0.0
C2217 C 0.55699 0.20967 0.95167 0.0
H2218 H 0.488 0.17174 0.96597 0.0
C2219 C 0.45909 0.24258 0.95306 0.0
C2220 C 0.4567 0.25413 0.9601 0.0
C2221 C 0.47614 0.22682 0.95223 0.0
C2222 C 0.50715 0.18244 0.96195 0.0
H2223 H 0.62682 0.16749 0.94341 0.0
H2224 H 0.58536 0.18125 0.94382 0.0
H2225 H 0.5239 0.15081 0.96473 0.0
H2226 H 0.46847 0.25618 0.97189 0.0
H2227 H 0.49757 0.22786 0.97045 0.0
H2228 H 0.53967 0.24087 0.94882 0.0
C2229 C 0.59184 0.1743 0.94898 0.0
C2230 C 0.52788 0.17066 0.96126 0.0
C2231 C 0.61551 0.16621 0.94873 0.0
C2232 C 0.47006 0.24782 0.96638 0.0
C2233 C 0.48663 0.23154 0.96557 0.0
C2234 C 0.53591 0.221 0.95226 0.0
C2235 C 0.5769 0.1735 0.9558 0.0
C2236 C 0.5534 0.18444 0.95619 0.0
C2237 C 0.49046 0.22161 0.95845 0.0
C2238 C 0.51109 0.20778 0.95748 0.0
H2239 H 0.61522 0.14742 0.96714 0.0
H2240 H 0.57511 0.1629 0.96768 0.0
H2241 H 0.57663 0.22142 0.94782 0.0
H2242 H 0.44842 0.24624 0.94814 0.0
H2243 H 0.47847 0.219 0.9467 0.0
C2244 C 0.86493 0.45878 0.95862 0.0
C2245 C 0.84953 0.46669 0.95311 0.0
C2246 C 0.85666 0.42724 0.95979 0.0
C2247 C 0.8128 0.34717 0.95108 0.0
H2248 H 0.80736 0.31847 0.97157 0.0
C2249 C 0.7689 0.21628 0.95757 0.0
C2250 C 0.74801 0.2032 0.96365 0.0
C2251 C 0.78601 0.24902 0.95652 0.0
C2252 C 0.80858 0.32603 0.96581 0.0
H2253 H 0.81344 0.44764 0.94447 0.0
H2254 H 0.79844 0.39281 0.94663 0.0
H2255 H 0.8274 0.3743 0.96909 0.0
H2256 H 0.72919 0.2141 0.97349 0.0
H2257 H 0.75816 0.27104 0.97153 0.0
H2258 H 0.79223 0.29875 0.94783 0.0
C2259 C 0.81749 0.41092 0.94993 0.0
C2260 C 0.82053 0.35818 0.96438 0.0
C2261 C 0.82597 0.44243 0.94872 0.0
C2262 C 0.74526 0.22351 0.96877 0.0
C2263 C 0.76205 0.25623 0.96767 0.0
C2264 C 0.80054 0.31501 0.95252 0.0
C2265 C 0.8326 0.40287 0.95551 0.0
C2266 C 0.82234 0.36909 0.957 0.0
C2267 C 0.78228 0.26939 0.96146 0.0
C2268 C 0.79785 0.30394 0.95992 0.0
H2269 H 0.88332 0.47693 0.96207 0.0
H2270 H 0.86914 0.42198 0.96405 0.0
H2271 H 0.81438 0.35476 0.94532 0.0
H2272 H 0.77176 0.20119 0.95358 0.0
H2273 H 0.80187 0.25832 0.95177 0.0
C2274 C 0.78566 0.52316 0.95245 0.0
C2275 C 0.80081 0.54551 0.95814 0.0
C2276 C 0.75282 0.50708 0.95182 0.0
C2277 C 0.67997 0.48814 0.96265 0.0
H2278 H 0.64149 0.45228 0.94349 0.0
C2279 C 0.55039 0.38776 0.96065 0.0
C2280 C 0.53398 0.38259 0.95389 0.0
C2281 C 0.58215 0.41133 0.96116 0.0
C2282 C 0.65144 0.46255 0.94888 0.0
H2283 H 0.79393 0.56933 0.96755 0.0
H2284 H 0.73652 0.54295 0.96618 0.0
H2285 H 0.69753 0.48841 0.94415 0.0
H2286 H 0.53672 0.3988 0.94249 0.0
H2287 H 0.59124 0.44161 0.94349 0.0
H2288 H 0.6335 0.46409 0.96729 0.0
C2289 C 0.74972 0.53672 0.96235 0.0
C2290 C 0.68405 0.48289 0.94929 0.0
C2291 C 0.78264 0.55213 0.96311 0.0
C2292 C 0.54921 0.40218 0.94774 0.0
C2293 C 0.58061 0.42652 0.94832 0.0
C2294 C 0.64715 0.46861 0.9622 0.0
C2295 C 0.73425 0.51358 0.95675 0.0
C2296 C 0.699 0.49516 0.95621 0.0
C2297 C 0.59789 0.43099 0.95498 0.0
C2298 C 0.63244 0.45472 0.95535 0.0
H2299 H 0.79899 0.51698 0.94867 0.0
H2300 H 0.74212 0.48881 0.9476 0.0
H2301 H 0.69032 0.49681 0.96811 0.0
H2302 H 0.53903 0.37271 0.96546 0.0
H2303 H 0.59445 0.41327 0.96635 0.0
C2304 C 0.40578 0.86216 0.78351 0.0
C2305 C 0.39654 0.86875 0.79042 0.0
C2306 C 0.42213 0.84551 0.78322 0.0
C2307 C 0.43747 0.7916 0.79489 0.0
H2308 H 0.49505 0.80225 0.77872 0.0
C2309 C 0.50724 0.72503 0.79363 0.0
C2310 C 0.50259 0.70766 0.78699 0.0
C2311 C 0.49725 0.74722 0.79412 0.0
C2312 C 0.479 0.7991 0.78326 0.0
H2313 H 0.3994 0.86519 0.80248 0.0
H2314 H 0.4292 0.83763 0.802 0.0
H2315 H 0.47367 0.83789 0.77963 0.0
H2316 H 0.4848 0.70066 0.7756 0.0
H2317 H 0.46796 0.74007 0.77643 0.0
H2318 H 0.44347 0.7532 0.79858 0.0
C2319 C 0.42256 0.84392 0.79677 0.0
C2320 C 0.46658 0.81935 0.78377 0.0
C2321 C 0.40567 0.86001 0.79705 0.0
C2322 C 0.48855 0.71357 0.7808 0.0
C2323 C 0.4791 0.73621 0.78125 0.0
C2324 C 0.45035 0.77179 0.79446 0.0
C2325 C 0.43028 0.83567 0.78985 0.0
C2326 C 0.44531 0.81562 0.78955 0.0
C2327 C 0.483 0.7529 0.78794 0.0
C2328 C 0.47091 0.77513 0.78859 0.0
H2329 H 0.3997 0.869 0.77829 0.0
H2330 H 0.42737 0.83946 0.77778 0.0
H2331 H 0.42066 0.78741 0.79932 0.0
H2332 H 0.51792 0.72096 0.7985 0.0
H2333 H 0.50058 0.75992 0.79933 0.0
C2334 C 0.25677 0.76946 0.77802 0.0
C2335 C 0.26875 0.78971 0.78424 0.0
C2336 C 0.23405 0.73763 0.77897 0.0
C2337 C 0.17865 0.67894 0.79297 0.0
H2338 H 0.18819 0.61994 0.7802 0.0
C2339 C 0.12813 0.54514 0.79913 0.0
C2340 C 0.11388 0.52432 0.79307 0.0
C2341 C 0.14277 0.57787 0.79807 0.0
C2342 C 0.18501 0.63616 0.78375 0.0
H2343 H 0.26587 0.79276 0.79631 0.0
H2344 H 0.22728 0.73694 0.79801 0.0
H2345 H 0.22219 0.67643 0.77828 0.0
H2346 H 0.1017 0.52149 0.78129 0.0
H2347 H 0.12814 0.57855 0.77941 0.0
H2348 H 0.14236 0.63806 0.79865 0.0
C2349 C 0.23465 0.74569 0.79237 0.0
C2350 C 0.20439 0.66861 0.78263 0.0
C2351 C 0.25695 0.77771 0.7914 0.0
C2352 C 0.11317 0.53683 0.78603 0.0
C2353 C 0.12817 0.5695 0.78495 0.0
C2354 C 0.15959 0.64637 0.79416 0.0
C2355 C 0.22324 0.7251 0.78617 0.0
C2356 C 0.20154 0.6905 0.78723 0.0
C2357 C 0.14364 0.59029 0.79092 0.0
C2358 C 0.16266 0.62474 0.78956 0.0
H2359 H 0.26511 0.77818 0.77242 0.0
H2360 H 0.22522 0.7228 0.77403 0.0
H2361 H 0.17539 0.695 0.79655 0.0
H2362 H 0.1289 0.53625 0.80464 0.0
H2363 H 0.15464 0.59347 0.80276 0.0
C2364 C 0.45124 0.56594 0.79034 0.0
C2365 C 0.46587 0.58798 0.79614 0.0
C2366 C 0.41832 0.54858 0.78978 0.0
C2367 C 0.34359 0.52771 0.79997 0.0
H2368 H 0.31107 0.52085 0.77983 0.0
C2369 C 0.20949 0.46962 0.79379 0.0
C2370 C 0.20062 0.48465 0.78838 0.0
C2371 C 0.24133 0.47878 0.79482 0.0
C2372 C 0.31973 0.52272 0.7855 0.0
H2373 H 0.45756 0.60825 0.8061 0.0
H2374 H 0.40018 0.57868 0.80503 0.0
H2375 H 0.36738 0.54265 0.78172 0.0
H2376 H 0.21837 0.52131 0.77986 0.0
H2377 H 0.27365 0.53768 0.78177 0.0
H2378 H 0.29598 0.50928 0.80376 0.0
C2379 C 0.414 0.57424 0.80097 0.0
C2380 C 0.35205 0.53478 0.78658 0.0
C2381 C 0.44694 0.59134 0.80157 0.0
C2382 C 0.22429 0.50903 0.78403 0.0
C2383 C 0.25605 0.51829 0.7851 0.0
C2384 C 0.31123 0.51585 0.79889 0.0
C2385 C 0.39928 0.55316 0.79497 0.0
C2386 C 0.36449 0.53781 0.79384 0.0
C2387 C 0.265 0.50327 0.79049 0.0
C2388 C 0.29898 0.51367 0.79165 0.0
H2389 H 0.46525 0.56255 0.78613 0.0
H2390 H 0.40781 0.53201 0.78519 0.0
H2391 H 0.35227 0.5293 0.80563 0.0
H2392 H 0.19185 0.45067 0.79721 0.0
H2393 H 0.24735 0.46646 0.79896 0.0
C2394 C 0.38447 0.83754 0.03687 0.0
C2395 C 0.37018 0.8371 0.04374 0.0
C2396 C 0.40643 0.82721 0.03645 0.0
C2397 C 0.43287 0.77895 0.04705 0.0
H2398 H 0.50089 0.8132 0.03246 0.0
C2399 C 0.52793 0.74241 0.04612 0.0
C2400 C 0.52971 0.72956 0.03921 0.0
C2401 C 0.51164 0.75902 0.04673 0.0
C2402 C 0.48197 0.8035 0.03655 0.0
H2403 H 0.36874 0.82699 0.0556 0.0
H2404 H 0.40805 0.81042 0.05495 0.0
H2405 H 0.46668 0.83617 0.03363 0.0
H2406 H 0.51772 0.72607 0.0274 0.0
H2407 H 0.48991 0.75586 0.02846 0.0
H2408 H 0.44876 0.74678 0.05006 0.0
C2409 C 0.40146 0.81745 0.04982 0.0
C2410 C 0.46222 0.81646 0.0372 0.0
C2411 C 0.37905 0.82716 0.05021 0.0
C2412 C 0.51657 0.73543 0.03283 0.0
C2413 C 0.50074 0.75254 0.03341 0.0
C2414 C 0.45297 0.76646 0.04649 0.0
C2415 C 0.41505 0.81677 0.04291 0.0
C2416 C 0.43718 0.80414 0.04241 0.0
C2417 C 0.49746 0.76375 0.04041 0.0
C2418 C 0.4775 0.77842 0.0412 0.0
H2419 H 0.37796 0.84494 0.03178 0.0
H2420 H 0.41591 0.8266 0.031 0.0
H2421 H 0.41348 0.76824 0.051 0.0
H2422 H 0.53848 0.73911 0.05111 0.0
H2423 H 0.50976 0.76784 0.05217 0.0
C2424 C 0.14772 0.55135 0.04975 0.0
C2425 C 0.13955 0.53124 0.04351 0.0
C2426 C 0.15704 0.58324 0.04883 0.0
C2427 C 0.16056 0.64205 0.03484 0.0
H2428 H 0.22659 0.70125 0.04813 0.0
C2429 C 0.24264 0.77723 0.0297 0.0
C2430 C 0.24655 0.79704 0.03582 0.0
C2431 C 0.22517 0.74432 0.03048 0.0
C2432 C 0.20792 0.68494 0.04443 0.0
H2433 H 0.13434 0.52852 0.03143 0.0
H2434 H 0.15212 0.58447 0.02977 0.0
H2435 H 0.20544 0.64482 0.0498 0.0
H2436 H 0.23292 0.79778 0.04737 0.0
H2437 H 0.20357 0.74042 0.04879 0.0
H2438 H 0.16466 0.6829 0.02925 0.0
C2439 C 0.1504 0.57558 0.03541 0.0
C2440 C 0.19559 0.65253 0.0454 0.0
C2441 C 0.1404 0.54349 0.03635 0.0
C2442 C 0.23119 0.78328 0.04261 0.0
C2443 C 0.21421 0.75045 0.04342 0.0
C2444 C 0.1734 0.67462 0.03378 0.0
C2445 C 0.15917 0.59598 0.04164 0.0
C2446 C 0.17168 0.63056 0.04064 0.0
C2447 C 0.21164 0.73073 0.03742 0.0
C2448 C 0.19712 0.69627 0.03858 0.0
H2449 H 0.14682 0.54243 0.05536 0.0
H2450 H 0.1627 0.59788 0.05379 0.0
H2451 H 0.14185 0.62596 0.03113 0.0
H2452 H 0.25398 0.78708 0.02438 0.0
H2453 H 0.22352 0.72953 0.02578 0.0
C2454 C 0.42591 0.5929 0.05114 0.0
C2455 C 0.44763 0.60246 0.04518 0.0
C2456 C 0.39425 0.56997 0.05002 0.0
C2457 C 0.33398 0.54046 0.03575 0.0
H2458 H 0.28709 0.46887 0.049 0.0
C2459 C 0.20103 0.45654 0.03131 0.0
C2460 C 0.18203 0.44627 0.03777 0.0
C2461 C 0.23391 0.47122 0.03187 0.0
C2462 C 0.29971 0.48892 0.04529 0.0
H2463 H 0.45326 0.59507 0.03341 0.0
H2464 H 0.39769 0.55558 0.03144 0.0
H2465 H 0.34392 0.50335 0.05079 0.0
H2466 H 0.18268 0.44144 0.04983 0.0
H2467 H 0.23978 0.46857 0.05088 0.0
H2468 H 0.28997 0.5275 0.03048 0.0
C2469 C 0.40536 0.5657 0.03697 0.0
C2470 C 0.33227 0.5085 0.0463 0.0
C2471 C 0.43713 0.58822 0.03812 0.0
C2472 C 0.19655 0.44968 0.04476 0.0
C2473 C 0.22945 0.46488 0.04534 0.0
C2474 C 0.30139 0.52127 0.03482 0.0
C2475 C 0.38362 0.55658 0.0429 0.0
C2476 C 0.3496 0.53455 0.04157 0.0
C2477 C 0.24863 0.47642 0.03892 0.0
C2478 C 0.28371 0.49537 0.03961 0.0
H2479 H 0.43332 0.60331 0.05666 0.0
H2480 H 0.37785 0.56346 0.05466 0.0
H2481 H 0.3468 0.56067 0.03209 0.0
H2482 H 0.19058 0.4538 0.02581 0.0
H2483 H 0.24777 0.47892 0.02677 0.0
C2484 C 0.14461 0.59206 0.53691 0.0
C2485 C 0.14373 0.60481 0.5439 0.0
C2486 C 0.155 0.57018 0.53634 0.0
C2487 C 0.20214 0.54256 0.54693 0.0
H2488 H 0.17331 0.4791 0.53123 0.0
C2489 C 0.24493 0.45271 0.54485 0.0
C2490 C 0.25994 0.45408 0.53803 0.0
C2491 C 0.22648 0.46701 0.54557 0.0
C2492 C 0.18147 0.49672 0.53564 0.0
H2493 H 0.15125 0.60337 0.55583 0.0
H2494 H 0.16785 0.56409 0.5549 0.0
H2495 H 0.14814 0.51122 0.53276 0.0
H2496 H 0.26533 0.46939 0.52644 0.0
H2497 H 0.23237 0.49381 0.52767 0.0
H2498 H 0.23503 0.52751 0.54987 0.0
C2499 C 0.16185 0.57187 0.5498 0.0
C2500 C 0.16726 0.51529 0.5365 0.0
C2501 C 0.15211 0.59424 0.55035 0.0
C2502 C 0.25429 0.46814 0.53179 0.0
C2503 C 0.23539 0.48204 0.53248 0.0
C2504 C 0.21587 0.52362 0.54615 0.0
C2505 C 0.16418 0.56009 0.54277 0.0
C2506 C 0.17768 0.53874 0.54211 0.0
C2507 C 0.2221 0.48236 0.53944 0.0
C2508 C 0.2059 0.5008 0.54046 0.0
H2509 H 0.13846 0.59992 0.53184 0.0
H2510 H 0.15688 0.56212 0.53081 0.0
H2511 H 0.21145 0.56079 0.55119 0.0
H2512 H 0.24801 0.44129 0.54971 0.0
H2513 H 0.21609 0.4666 0.55097 0.0
C2514 C 0.40886 0.55382 0.53886 0.0
C2515 C 0.38428 0.54416 0.54413 0.0
C2516 C 0.43101 0.5859 0.53792 0.0
C2517 C 0.46311 0.66382 0.54731 0.0
H2518 H 0.49016 0.69722 0.52727 0.0
C2519 C 0.55114 0.79565 0.54282 0.0
C2520 C 0.54361 0.81046 0.53709 0.0
C2521 C 0.5358 0.7627 0.54326 0.0
C2522 C 0.48277 0.68828 0.5329 0.0
H2523 H 0.3637 0.56076 0.5525 0.0
H2524 H 0.40183 0.61652 0.55075 0.0
H2525 H 0.45434 0.64066 0.52901 0.0
H2526 H 0.51523 0.80246 0.52712 0.0
H2527 H 0.4879 0.74496 0.52797 0.0
H2528 H 0.49019 0.71145 0.55118 0.0
C2529 C 0.40444 0.59932 0.54745 0.0
C2530 C 0.46252 0.65579 0.53391 0.0
C2531 C 0.38242 0.5673 0.54843 0.0
C2532 C 0.5216 0.79171 0.53159 0.0
C2533 C 0.50601 0.75871 0.53207 0.0
C2534 C 0.48317 0.69625 0.5463 0.0
C2535 C 0.42903 0.60904 0.54219 0.0
C2536 C 0.45211 0.64324 0.54112 0.0
C2537 C 0.51235 0.74381 0.53802 0.0
C2538 C 0.493 0.70897 0.53908 0.0
H2539 H 0.41109 0.53662 0.53548 0.0
H2540 H 0.44986 0.59253 0.53388 0.0
H2541 H 0.45599 0.65491 0.55295 0.0
H2542 H 0.56835 0.80954 0.54708 0.0
H2543 H 0.54183 0.75203 0.54781 0.0
C2544 C 0.44617 0.85705 0.54138 0.0
C2545 C 0.45647 0.84033 0.54588 0.0
C2546 C 0.41392 0.84621 0.54049 0.0
C2547 C 0.33521 0.79184 0.54875 0.0
H2548 H 0.30492 0.79507 0.52887 0.0
C2549 C 0.20346 0.74758 0.54321 0.0
C2550 C 0.19049 0.72913 0.53674 0.0
C2551 C 0.23618 0.76452 0.54428 0.0
C2552 C 0.31297 0.79387 0.53445 0.0
H2553 H 0.44086 0.79923 0.55304 0.0
H2554 H 0.38473 0.78005 0.55139 0.0
H2555 H 0.36137 0.81737 0.53099 0.0
H2556 H 0.20163 0.71466 0.52622 0.0
H2557 H 0.25861 0.7437 0.52814 0.0
H2558 H 0.28675 0.76712 0.55214 0.0
C2559 C 0.40156 0.80187 0.54865 0.0
C2560 C 0.34539 0.80702 0.53569 0.0
C2561 C 0.43379 0.81279 0.54956 0.0
C2562 C 0.21091 0.72875 0.53125 0.0
C2563 C 0.24362 0.74554 0.53234 0.0
C2564 C 0.30279 0.77857 0.5475 0.0
C2565 C 0.39122 0.81833 0.54406 0.0
C2566 C 0.35688 0.80588 0.54284 0.0
C2567 C 0.25663 0.76326 0.53892 0.0
C2568 C 0.29124 0.77914 0.54032 0.0
H2569 H 0.46299 0.87848 0.5385 0.0
H2570 H 0.4068 0.85974 0.53702 0.0
H2571 H 0.34327 0.79094 0.55435 0.0
H2572 H 0.18834 0.74868 0.54749 0.0
H2573 H 0.24543 0.77842 0.54934 0.0
C2574 C 0.29403 0.52628 0.28432 0.0
C2575 C 0.28966 0.49895 0.28801 0.0
C2576 C 0.27134 0.53559 0.28488 0.0
C2577 C 0.20508 0.52567 0.2968 0.0
H2578 H 0.18826 0.56492 0.2799 0.0
C2579 C 0.14175 0.59797 0.29989 0.0
C2580 C 0.1225 0.59746 0.29398 0.0
C2581 C 0.15904 0.58239 0.29919 0.0
C2582 C 0.19228 0.5536 0.28466 0.0
H2583 H 0.25757 0.45954 0.29504 0.0
H2584 H 0.21773 0.47545 0.29588 0.0
H2585 H 0.22381 0.54402 0.27837 0.0
H2586 H 0.10479 0.57872 0.28291 0.0
H2587 H 0.13441 0.55095 0.28175 0.0
H2588 H 0.17308 0.53477 0.30305 0.0
C2589 C 0.23901 0.49006 0.29268 0.0
C2590 C 0.21307 0.54202 0.2838 0.0
C2591 C 0.2618 0.48085 0.29216 0.0
C2592 C 0.11978 0.5799 0.28751 0.0
C2593 C 0.13688 0.56411 0.28684 0.0
C2594 C 0.18413 0.53709 0.29764 0.0
C2595 C 0.24362 0.51768 0.28909 0.0
C2596 C 0.22005 0.52829 0.28989 0.0
C2597 C 0.15724 0.56573 0.2926 0.0
C2598 C 0.17776 0.55154 0.2916 0.0
H2599 H 0.31528 0.54089 0.28111 0.0
H2600 H 0.27592 0.55728 0.28214 0.0
H2601 H 0.21012 0.51551 0.30163 0.0
H2602 H 0.14443 0.61143 0.30494 0.0
H2603 H 0.17475 0.58447 0.30372 0.0
C2604 C 0.47858 0.7747 0.28557 0.0
C2605 C 0.50299 0.79864 0.28985 0.0
C2606 C 0.46969 0.743 0.28668 0.0
C2607 C 0.47307 0.68868 0.30056 0.0
H2608 H 0.44849 0.63216 0.28347 0.0
C2609 C 0.40143 0.55241 0.30318 0.0
C2610 C 0.40657 0.53426 0.29786 0.0
C2611 C 0.41741 0.5854 0.30262 0.0
C2612 C 0.45572 0.64764 0.28831 0.0
H2613 H 0.53745 0.80795 0.29861 0.0
H2614 H 0.52223 0.75267 0.30044 0.0
H2615 H 0.46851 0.68825 0.28148 0.0
H2616 H 0.43414 0.5364 0.28812 0.0
H2617 H 0.46255 0.59392 0.28725 0.0
H2618 H 0.4606 0.648 0.30738 0.0
C2619 C 0.50964 0.7584 0.29631 0.0
C2620 C 0.46676 0.67977 0.28717 0.0
C2621 C 0.51847 0.79013 0.29522 0.0
C2622 C 0.42935 0.54977 0.29224 0.0
C2623 C 0.4455 0.58272 0.29172 0.0
C2624 C 0.46212 0.65649 0.3017 0.0
C2625 C 0.48509 0.73446 0.29206 0.0
C2626 C 0.47516 0.70062 0.29328 0.0
C2627 C 0.43903 0.6009 0.29677 0.0
C2628 C 0.45297 0.63552 0.29559 0.0
H2629 H 0.46601 0.78034 0.28142 0.0
H2630 H 0.45032 0.72513 0.28339 0.0
H2631 H 0.47912 0.70404 0.3054 0.0
H2632 H 0.38391 0.5411 0.30756 0.0
H2633 H 0.41163 0.5986 0.30657 0.0
C2634 C 0.44785 0.87248 0.30317 0.0
C2635 C 0.46605 0.88581 0.29668 0.0
C2636 C 0.41485 0.85732 0.30286 0.0
C2637 C 0.34722 0.84263 0.29026 0.0
H2638 H 0.30313 0.76515 0.30181 0.0
C2639 C 0.22472 0.73543 0.28291 0.0
C2640 C 0.20229 0.72378 0.28872 0.0
C2641 C 0.25585 0.75908 0.28433 0.0
C2642 C 0.31513 0.78692 0.29862 0.0
H2643 H 0.46387 0.89597 0.28494 0.0
H2644 H 0.40678 0.86801 0.28427 0.0
H2645 H 0.35967 0.79993 0.3036 0.0
H2646 H 0.1948 0.7279 0.30056 0.0
H2647 H 0.2496 0.76854 0.30308 0.0
H2648 H 0.3026 0.8281 0.28495 0.0
C2649 C 0.41768 0.86954 0.28965 0.0
C2650 C 0.34754 0.80706 0.29967 0.0
C2651 C 0.45062 0.88519 0.29 0.0
C2652 C 0.21154 0.73647 0.29597 0.0
C2653 C 0.24283 0.75962 0.29742 0.0
C2654 C 0.31492 0.82211 0.2891 0.0
C2655 C 0.39926 0.85476 0.29604 0.0
C2656 C 0.36417 0.83502 0.29544 0.0
C2657 C 0.26523 0.771 0.29162 0.0
C2658 C 0.29874 0.79395 0.29322 0.0
H2659 H 0.45903 0.87298 0.30845 0.0
H2660 H 0.40159 0.84708 0.30796 0.0
H2661 H 0.35893 0.86425 0.28702 0.0
H2662 H 0.21823 0.72621 0.27727 0.0
H2663 H 0.27285 0.7674 0.27979 0.0
loop_
_geom_bond_atom_site_label_1
_geom_bond_atom_site_label_2
_geom_bond_distance
_geom_bond_site_symmetry_2
_ccdc_geom_bond_type
Mg0 O1 2.028 . S
Mg0 O7 1.986 . S
Mg0 O9 2.114 . S
Mg0 O10 2.251 . S
Mg0 O13 2.010 . S
O1 Mg0 2.028 . S
O1 C4 1.250 . S
O2 Mg3 2.028 . S
O2 C4 1.248 . S
Mg3 O2 2.028 . S
Mg3 O8 2.032 . S
Mg3 O10 2.079 . S
C4 O1 1.250 . S
C4 O2 1.248 . S
C5 O6 1.264 . S
C5 O13 1.249 . S
O6 C5 1.264 . S
O7 Mg0 1.986 . S
O7 C11 1.246 . S
O8 Mg3 2.032 . S
O8 C11 1.259 . S
O9 Mg0 2.114 . S
O9 C12 1.252 . S
O10 Mg0 2.251 . S
O10 Mg3 2.079 . S
O10 C12 1.273 . S
C11 O7 1.246 . S
C11 O8 1.259 . S
C12 O9 1.252 . S
C12 O10 1.273 . S
O13 Mg0 2.010 . S
O13 C5 1.249 . S
Mg14 O15 2.028 . S
Mg14 O21 1.986 . S
Mg14 O23 2.114 . S
Mg14 O24 2.251 . S
Mg14 O27 2.010 . S
O15 Mg14 2.028 . S
O15 C18 1.250 . S
O16 Mg17 2.028 . S
O16 C18 1.248 . S
Mg17 O16 2.028 . S
Mg17 O22 2.032 . S
Mg17 O24 2.079 . S
C18 O15 1.250 . S
C18 O16 1.248 . S
C19 O20 1.264 . S
C19 O27 1.249 . S
O20 C19 1.264 . S
O21 Mg14 1.986 . S
O21 C25 1.246 . S
O22 Mg17 2.032 . S
O22 C25 1.259 . S
O23 Mg14 2.114 . S
O23 C26 1.252 . S
O24 Mg14 2.251 . S
O24 Mg17 2.079 . S
O24 C26 1.273 . S
C25 O21 1.246 . S
C25 O22 1.259 . S
C26 O23 1.252 . S
C26 O24 1.273 . S
O27 Mg14 2.010 . S
O27 C19 1.249 . S
Mg28 O29 2.028 . S
Mg28 O35 1.986 . S
Mg28 O37 2.114 . S
Mg28 O38 2.251 . S
Mg28 O41 2.010 . S
O29 Mg28 2.028 . S
O29 C32 1.250 . S
O30 Mg31 2.028 . S
O30 C32 1.248 . S
Mg31 O30 2.028 . S
Mg31 O36 2.032 . S
Mg31 O38 2.079 . S
C32 O29 1.250 . S
C32 O30 1.248 . S
C33 O34 1.264 . S
C33 O41 1.249 . S
O34 C33 1.264 . S
O35 Mg28 1.986 . S
O35 C39 1.246 . S
O36 Mg31 2.032 . S
O36 C39 1.259 . S
O37 Mg28 2.114 . S
O37 C40 1.252 . S
O38 Mg28 2.251 . S
O38 Mg31 2.079 . S
O38 C40 1.273 . S
C39 O35 1.246 . S
C39 O36 1.259 . S
C40 O37 1.252 . S
C40 O38 1.273 . S
O41 Mg28 2.010 . S
O41 C33 1.249 . S
Mg42 O43 2.028 . S
Mg42 O49 1.986 . S
Mg42 O51 2.114 . S
Mg42 O52 2.251 . S
Mg42 O55 2.010 . S
O43 Mg42 2.028 . S
O43 C46 1.250 . S
O44 Mg45 2.028 . S
O44 C46 1.248 . S
Mg45 O44 2.028 . S
Mg45 O50 2.032 . S
Mg45 O52 2.079 . S
C46 O43 1.250 . S
C46 O44 1.248 . S
C47 O48 1.264 . S
C47 O55 1.249 . S
O48 C47 1.264 . S
O49 Mg42 1.986 . S
O49 C53 1.246 . S
O50 Mg45 2.032 . S
O50 C53 1.259 . S
O51 Mg42 2.114 . S
O51 C54 1.252 . S
O52 Mg42 2.251 . S
O52 Mg45 2.079 . S
O52 C54 1.273 . S
C53 O49 1.246 . S
C53 O50 1.259 . S
C54 O51 1.252 . S
C54 O52 1.273 . S
O55 Mg42 2.010 . S
O55 C47 1.249 . S
Mg56 O57 2.028 . S
Mg56 O63 1.986 . S
Mg56 O65 2.114 . S
Mg56 O66 2.251 . S
Mg56 O69 2.010 . S
O57 Mg56 2.028 . S
O57 C60 1.250 . S
O58 Mg59 2.028 . S
O58 C60 1.248 . S
Mg59 O58 2.028 . S
Mg59 O64 2.032 . S
Mg59 O66 2.079 . S
C60 O57 1.250 . S
C60 O58 1.248 . S
C61 O62 1.264 . S
C61 O69 1.249 . S
O62 C61 1.264 . S
O63 Mg56 1.986 . S
O63 C67 1.246 . S
O64 Mg59 2.032 . S
O64 C67 1.259 . S
O65 Mg56 2.114 . S
O65 C68 1.252 . S
O66 Mg56 2.251 . S
O66 Mg59 2.079 . S
O66 C68 1.273 . S
C67 O63 1.246 . S
C67 O64 1.259 . S
C68 O65 1.252 . S
C68 O66 1.273 . S
O69 Mg56 2.010 . S
O69 C61 1.249 . S
Mg70 O71 2.028 . S
Mg70 O77 1.986 . S
Mg70 O79 2.114 . S
Mg70 O80 2.251 . S
Mg70 O83 2.010 . S
O71 Mg70 2.028 . S
O71 C74 1.250 . S
O72 Mg73 2.028 . S
O72 C74 1.248 . S
Mg73 O72 2.028 . S
Mg73 O78 2.032 . S
Mg73 O80 2.079 . S
C74 O71 1.250 . S
C74 O72 1.248 . S
C75 O76 1.264 . S
C75 O83 1.249 . S
O76 C75 1.264 . S
O77 Mg70 1.986 . S
O77 C81 1.246 . S
O78 Mg73 2.032 . S
O78 C81 1.259 . S
O79 Mg70 2.114 . S
O79 C82 1.252 . S
O80 Mg70 2.251 . S
O80 Mg73 2.079 . S
O80 C82 1.273 . S
C81 O77 1.246 . S
C81 O78 1.259 . S
C82 O79 1.252 . S
C82 O80 1.273 . S
O83 Mg70 2.010 . S
O83 C75 1.249 . S
Mg84 O85 2.028 . S
Mg84 O91 1.986 . S
Mg84 O93 2.114 . S
Mg84 O94 2.251 . S
Mg84 O97 2.010 . S
O85 Mg84 2.028 . S
O85 C88 1.250 . S
O86 Mg87 2.028 . S
O86 C88 1.248 . S
Mg87 O86 2.028 . S
Mg87 O92 2.032 . S
Mg87 O94 2.079 . S
C88 O85 1.250 . S
C88 O86 1.248 . S
C89 O90 1.264 . S
C89 O97 1.249 . S
O90 C89 1.264 . S
O91 Mg84 1.986 . S
O91 C95 1.246 . S
O92 Mg87 2.032 . S
O92 C95 1.259 . S
O93 Mg84 2.114 . S
O93 C96 1.252 . S
O94 Mg84 2.251 . S
O94 Mg87 2.079 . S
O94 C96 1.273 . S
C95 O91 1.246 . S
C95 O92 1.259 . S
C96 O93 1.252 . S
C96 O94 1.273 . S
O97 Mg84 2.010 . S
O97 C89 1.249 . S
Mg98 O99 2.028 . S
Mg98 O105 1.986 . S
Mg98 O107 2.114 . S
Mg98 O108 2.251 . S
Mg98 O111 2.010 . S
O99 Mg98 2.028 . S
O99 C102 1.250 . S
O100 Mg101 2.028 . S
O100 C102 1.248 . S
Mg101 O100 2.028 . S
Mg101 O106 2.032 . S
Mg101 O108 2.079 . S
C102 O99 1.250 . S
C102 O100 1.248 . S
C103 O104 1.264 . S
C103 O111 1.249 . S
O104 C103 1.264 . S
O105 Mg98 1.986 . S
O105 C109 1.246 . S
O106 Mg101 2.032 . S
O106 C109 1.259 . S
O107 Mg98 2.114 . S
O107 C110 1.252 . S
O108 Mg98 2.251 . S
O108 Mg101 2.079 . S
O108 C110 1.273 . S
C109 O105 1.246 . S
C109 O106 1.259 . S
C110 O107 1.252 . S
C110 O108 1.273 . S
O111 Mg98 2.010 . S
O111 C103 1.249 . S
Mg112 O113 2.028 . S
Mg112 O119 1.986 . S
Mg112 O121 2.114 . S
Mg112 O122 2.251 . S
Mg112 O125 2.010 . S
O113 Mg112 2.028 . S
O113 C116 1.250 . S
O114 Mg115 2.028 . S
O114 C116 1.248 . S
Mg115 O114 2.028 . S
Mg115 O120 2.032 . S
Mg115 O122 2.079 . S
C116 O113 1.250 . S
C116 O114 1.248 . S
C117 O118 1.264 . S
C117 O125 1.249 . S
O118 C117 1.264 . S
O119 Mg112 1.986 . S
O119 C123 1.246 . S
O120 Mg115 2.032 . S
O120 C123 1.259 . S
O121 Mg112 2.114 . S
O121 C124 1.252 . S
O122 Mg112 2.251 . S
O122 Mg115 2.079 . S
O122 C124 1.273 . S
C123 O119 1.246 . S
C123 O120 1.259 . S
C124 O121 1.252 . S
C124 O122 1.273 . S
O125 Mg112 2.010 . S
O125 C117 1.249 . S
Mg126 O127 2.028 . S
Mg126 O133 1.986 . S
Mg126 O135 2.114 . S
Mg126 O136 2.251 . S
Mg126 O139 2.010 . S
O127 Mg126 2.028 . S
O127 C130 1.250 . S
O128 Mg129 2.028 . S
O128 C130 1.248 . S
Mg129 O128 2.028 . S
Mg129 O134 2.032 . S
Mg129 O136 2.079 . S
C130 O127 1.250 . S
C130 O128 1.248 . S
C131 O132 1.264 . S
C131 O139 1.249 . S
O132 C131 1.264 . S
O133 Mg126 1.986 . S
O133 C137 1.246 . S
O134 Mg129 2.032 . S
O134 C137 1.259 . S
O135 Mg126 2.114 . S
O135 C138 1.252 . S
O136 Mg126 2.251 . S
O136 Mg129 2.079 . S
O136 C138 1.273 . S
C137 O133 1.246 . S
C137 O134 1.259 . S
C138 O135 1.252 . S
C138 O136 1.273 . S
O139 Mg126 2.010 . S
O139 C131 1.249 . S
Mg140 O141 2.028 . S
Mg140 O147 1.986 . S
Mg140 O149 2.114 . S
Mg140 O150 2.251 . S
Mg140 O153 2.010 . S
O141 Mg140 2.028 . S
O141 C144 1.250 . S
O142 Mg143 2.028 . S
O142 C144 1.248 . S
Mg143 O142 2.028 . S
Mg143 O148 2.032 . S
Mg143 O150 2.079 . S
C144 O141 1.250 . S
C144 O142 1.248 . S
C145 O146 1.264 . S
C145 O153 1.249 . S
O146 C145 1.264 . S
O147 Mg140 1.986 . S
O147 C151 1.246 . S
O148 Mg143 2.032 . S
O148 C151 1.259 . S
O149 Mg140 2.114 . S
O149 C152 1.252 . S
O150 Mg140 2.251 . S
O150 Mg143 2.079 . S
O150 C152 1.273 . S
C151 O147 1.246 . S
C151 O148 1.259 . S
C152 O149 1.252 . S
C152 O150 1.273 . S
O153 Mg140 2.010 . S
O153 C145 1.249 . S
Mg154 O155 2.028 . S
Mg154 O161 1.986 . S
Mg154 O163 2.114 . S
Mg154 O164 2.251 . S
Mg154 O167 2.010 . S
O155 Mg154 2.028 . S
O155 C158 1.250 . S
O156 Mg157 2.028 . S
O156 C158 1.248 . S
Mg157 O156 2.028 . S
Mg157 O162 2.032 . S
Mg157 O164 2.079 . S
C158 O155 1.250 . S
C158 O156 1.248 . S
C159 O160 1.264 . S
C159 O167 1.249 . S
O160 C159 1.264 . S
O161 Mg154 1.986 . S
O161 C165 1.246 . S
O162 Mg157 2.032 . S
O162 C165 1.259 . S
O163 Mg154 2.114 . S
O163 C166 1.252 . S
O164 Mg154 2.251 . S
O164 Mg157 2.079 . S
O164 C166 1.273 . S
C165 O161 1.246 . S
C165 O162 1.259 . S
C166 O163 1.252 . S
C166 O164 1.273 . S
O167 Mg154 2.010 . S
O167 C159 1.249 . S
Mg168 O169 2.028 . S
Mg168 O175 1.986 . S
Mg168 O177 2.114 . S
Mg168 O178 2.251 . S
Mg168 O181 2.010 . S
O169 Mg168 2.028 . S
O169 C172 1.250 . S
O170 Mg171 2.028 . S
O170 C172 1.248 . S
Mg171 O170 2.028 . S
Mg171 O176 2.032 . S
Mg171 O178 2.079 . S
C172 O169 1.250 . S
C172 O170 1.248 . S
C173 O174 1.264 . S
C173 O181 1.249 . S
O174 C173 1.264 . S
O175 Mg168 1.986 . S
O175 C179 1.246 . S
O176 Mg171 2.032 . S
O176 C179 1.259 . S
O177 Mg168 2.114 . S
O177 C180 1.252 . S
O178 Mg168 2.251 . S
O178 Mg171 2.079 . S
O178 C180 1.273 . S
C179 O175 1.246 . S
C179 O176 1.259 . S
C180 O177 1.252 . S
C180 O178 1.273 . S
O181 Mg168 2.010 . S
O181 C173 1.249 . S
Mg182 O183 2.028 . S
Mg182 O189 1.986 . S
Mg182 O191 2.114 . S
Mg182 O192 2.251 . S
Mg182 O195 2.010 . S
O183 Mg182 2.028 . S
O183 C186 1.250 . S
O184 Mg185 2.028 . S
O184 C186 1.248 . S
Mg185 O184 2.028 . S
Mg185 O190 2.032 . S
Mg185 O192 2.079 . S
C186 O183 1.250 . S
C186 O184 1.248 . S
C187 O188 1.264 . S
C187 O195 1.249 . S
O188 C187 1.264 . S
O189 Mg182 1.986 . S
O189 C193 1.246 . S
O190 Mg185 2.032 . S
O190 C193 1.259 . S
O191 Mg182 2.114 . S
O191 C194 1.252 . S
O192 Mg182 2.251 . S
O192 Mg185 2.079 . S
O192 C194 1.273 . S
C193 O189 1.246 . S
C193 O190 1.259 . S
C194 O191 1.252 . S
C194 O192 1.273 . S
O195 Mg182 2.010 . S
O195 C187 1.249 . S
Mg196 O197 2.028 . S
Mg196 O203 1.986 . S
Mg196 O205 2.114 . S
Mg196 O206 2.251 . S
Mg196 O209 2.010 . S
O197 Mg196 2.028 . S
O197 C200 1.250 . S
O198 Mg199 2.028 . S
O198 C200 1.248 . S
Mg199 O198 2.028 . S
Mg199 O204 2.032 . S
Mg199 O206 2.079 . S
C200 O197 1.250 . S
C200 O198 1.248 . S
C201 O202 1.264 . S
C201 O209 1.249 . S
O202 C201 1.264 . S
O203 Mg196 1.986 . S
O203 C207 1.246 . S
O204 Mg199 2.032 . S
O204 C207 1.259 . S
O205 Mg196 2.114 . S
O205 C208 1.252 . S
O206 Mg196 2.251 . S
O206 Mg199 2.079 . S
O206 C208 1.273 . S
C207 O203 1.246 . S
C207 O204 1.259 . S
C208 O205 1.252 . S
C208 O206 1.273 . S
O209 Mg196 2.010 . S
O209 C201 1.249 . S
Mg210 O211 2.028 . S
Mg210 O217 1.986 . S
Mg210 O219 2.114 . S
Mg210 O220 2.251 . S
Mg210 O223 2.010 . S
O211 Mg210 2.028 . S
O211 C214 1.250 . S
O212 Mg213 2.028 . S
O212 C214 1.248 . S
Mg213 O212 2.028 . S
Mg213 O218 2.032 . S
Mg213 O220 2.079 . S
C214 O211 1.250 . S
C214 O212 1.248 . S
C215 O216 1.264 . S
C215 O223 1.249 . S
O216 C215 1.264 . S
O217 Mg210 1.986 . S
O217 C221 1.246 . S
O218 Mg213 2.032 . S
O218 C221 1.259 . S
O219 Mg210 2.114 . S
O219 C222 1.252 . S
O220 Mg210 2.251 . S
O220 Mg213 2.079 . S
O220 C222 1.273 . S
C221 O217 1.246 . S
C221 O218 1.259 . S
C222 O219 1.252 . S
C222 O220 1.273 . S
O223 Mg210 2.010 . S
O223 C215 1.249 . S
Mg224 O225 2.028 . S
Mg224 O231 1.986 . S
Mg224 O233 2.114 . S
Mg224 O234 2.251 . S
Mg224 O237 2.010 . S
O225 Mg224 2.028 . S
O225 C228 1.250 . S
O226 Mg227 2.028 . S
O226 C228 1.248 . S
Mg227 O226 2.028 . S
Mg227 O232 2.032 . S
Mg227 O234 2.079 . S
C228 O225 1.250 . S
C228 O226 1.248 . S
C229 O230 1.264 . S
C229 O237 1.249 . S
O230 C229 1.264 . S
O231 Mg224 1.986 . S
O231 C235 1.246 . S
O232 Mg227 2.032 . S
O232 C235 1.259 . S
O233 Mg224 2.114 . S
O233 C236 1.252 . S
O234 Mg224 2.251 . S
O234 Mg227 2.079 . S
O234 C236 1.273 . S
C235 O231 1.246 . S
C235 O232 1.259 . S
C236 O233 1.252 . S
C236 O234 1.273 . S
O237 Mg224 2.010 . S
O237 C229 1.249 . S
Mg238 O239 2.028 . S
Mg238 O245 1.986 . S
Mg238 O247 2.114 . S
Mg238 O248 2.251 . S
Mg238 O251 2.010 . S
O239 Mg238 2.028 . S
O239 C242 1.250 . S
O240 Mg241 2.028 . S
O240 C242 1.248 . S
Mg241 O240 2.028 . S
Mg241 O246 2.032 . S
Mg241 O248 2.079 . S
C242 O239 1.250 . S
C242 O240 1.248 . S
C243 O244 1.264 . S
C243 O251 1.249 . S
O244 C243 1.264 . S
O245 Mg238 1.986 . S
O245 C249 1.246 . S
O246 Mg241 2.032 . S
O246 C249 1.259 . S
O247 Mg238 2.114 . S
O247 C250 1.252 . S
O248 Mg238 2.251 . S
O248 Mg241 2.079 . S
O248 C250 1.273 . S
C249 O245 1.246 . S
C249 O246 1.259 . S
C250 O247 1.252 . S
C250 O248 1.273 . S
O251 Mg238 2.010 . S
O251 C243 1.249 . S
Mg252 O253 2.028 . S
Mg252 O259 1.986 . S
Mg252 O261 2.114 . S
Mg252 O262 2.251 . S
Mg252 O265 2.010 . S
O253 Mg252 2.028 . S
O253 C256 1.250 . S
O254 Mg255 2.028 . S
O254 C256 1.248 . S
Mg255 O254 2.028 . S
Mg255 O260 2.032 . S
Mg255 O262 2.079 . S
C256 O253 1.250 . S
C256 O254 1.248 . S
C257 O258 1.264 . S
C257 O265 1.249 . S
O258 C257 1.264 . S
O259 Mg252 1.986 . S
O259 C263 1.246 . S
O260 Mg255 2.032 . S
O260 C263 1.259 . S
O261 Mg252 2.114 . S
O261 C264 1.252 . S
O262 Mg252 2.251 . S
O262 Mg255 2.079 . S
O262 C264 1.273 . S
C263 O259 1.246 . S
C263 O260 1.259 . S
C264 O261 1.252 . S
C264 O262 1.273 . S
O265 Mg252 2.010 . S
O265 C257 1.249 . S
Mg266 O267 2.028 . S
Mg266 O273 1.986 . S
Mg266 O275 2.114 . S
Mg266 O276 2.251 . S
Mg266 O279 2.010 . S
O267 Mg266 2.028 . S
O267 C270 1.250 . S
O268 Mg269 2.028 . S
O268 C270 1.248 . S
Mg269 O268 2.028 . S
Mg269 O274 2.032 . S
Mg269 O276 2.079 . S
C270 O267 1.250 . S
C270 O268 1.248 . S
C271 O272 1.264 . S
C271 O279 1.249 . S
O272 C271 1.264 . S
O273 Mg266 1.986 . S
O273 C277 1.246 . S
O274 Mg269 2.032 . S
O274 C277 1.259 . S
O275 Mg266 2.114 . S
O275 C278 1.252 . S
O276 Mg266 2.251 . S
O276 Mg269 2.079 . S
O276 C278 1.273 . S
C277 O273 1.246 . S
C277 O274 1.259 . S
C278 O275 1.252 . S
C278 O276 1.273 . S
O279 Mg266 2.010 . S
O279 C271 1.249 . S
Mg280 O281 2.028 . S
Mg280 O287 1.986 . S
Mg280 O289 2.114 . S
Mg280 O290 2.251 . S
Mg280 O293 2.010 . S
O281 Mg280 2.028 . S
O281 C284 1.250 . S
O282 Mg283 2.028 . S
O282 C284 1.248 . S
Mg283 O282 2.028 . S
Mg283 O288 2.032 . S
Mg283 O290 2.079 . S
C284 O281 1.250 . S
C284 O282 1.248 . S
C285 O286 1.264 . S
C285 O293 1.249 . S
O286 C285 1.264 . S
O287 Mg280 1.986 . S
O287 C291 1.246 . S
O288 Mg283 2.032 . S
O288 C291 1.259 . S
O289 Mg280 2.114 . S
O289 C292 1.252 . S
O290 Mg280 2.251 . S
O290 Mg283 2.079 . S
O290 C292 1.273 . S
C291 O287 1.246 . S
C291 O288 1.259 . S
C292 O289 1.252 . S
C292 O290 1.273 . S
O293 Mg280 2.010 . S
O293 C285 1.249 . S
Mg294 O295 2.028 . S
Mg294 O301 1.986 . S
Mg294 O303 2.114 . S
Mg294 O304 2.251 . S
Mg294 O307 2.010 . S
O295 Mg294 2.028 . S
O295 C298 1.250 . S
O296 Mg297 2.028 . S
O296 C298 1.248 . S
Mg297 O296 2.028 . S
Mg297 O302 2.032 . S
Mg297 O304 2.079 . S
C298 O295 1.250 . S
C298 O296 1.248 . S
C299 O300 1.264 . S
C299 O307 1.249 . S
O300 C299 1.264 . S
O301 Mg294 1.986 . S
O301 C305 1.246 . S
O302 Mg297 2.032 . S
O302 C305 1.259 . S
O303 Mg294 2.114 . S
O303 C306 1.252 . S
O304 Mg294 2.251 . S
O304 Mg297 2.079 . S
O304 C306 1.273 . S
C305 O301 1.246 . S
C305 O302 1.259 . S
C306 O303 1.252 . S
C306 O304 1.273 . S
O307 Mg294 2.010 . S
O307 C299 1.249 . S
Mg308 O309 2.028 . S
Mg308 O315 1.986 . S
Mg308 O317 2.114 . S
Mg308 O318 2.251 . S
Mg308 O321 2.010 . S
O309 Mg308 2.028 . S
O309 C312 1.250 . S
O310 Mg311 2.028 . S
O310 C312 1.248 . S
Mg311 O310 2.028 . S
Mg311 O316 2.032 . S
Mg311 O318 2.079 . S
C312 O309 1.250 . S
C312 O310 1.248 . S
C313 O314 1.264 . S
C313 O321 1.249 . S
O314 C313 1.264 . S
O315 Mg308 1.986 . S
O315 C319 1.246 . S
O316 Mg311 2.032 . S
O316 C319 1.259 . S
O317 Mg308 2.114 . S
O317 C320 1.252 . S
O318 Mg308 2.251 . S
O318 Mg311 2.079 . S
O318 C320 1.273 . S
C319 O315 1.246 . S
C319 O316 1.259 . S
C320 O317 1.252 . S
C320 O318 1.273 . S
O321 Mg308 2.010 . S
O321 C313 1.249 . S
Mg322 O323 2.028 . S
Mg322 O329 1.986 . S
Mg322 O331 2.114 . S
Mg322 O332 2.251 . S
Mg322 O335 2.010 . S
O323 Mg322 2.028 . S
O323 C326 1.250 . S
O324 Mg325 2.028 . S
O324 C326 1.248 . S
Mg325 O324 2.028 . S
Mg325 O330 2.032 . S
Mg325 O332 2.079 . S
C326 O323 1.250 . S
C326 O324 1.248 . S
C327 O328 1.264 . S
C327 O335 1.249 . S
O328 C327 1.264 . S
O329 Mg322 1.986 . S
O329 C333 1.246 . S
O330 Mg325 2.032 . S
O330 C333 1.259 . S
O331 Mg322 2.114 . S
O331 C334 1.252 . S
O332 Mg322 2.251 . S
O332 Mg325 2.079 . S
O332 C334 1.273 . S
C333 O329 1.246 . S
C333 O330 1.259 . S
C334 O331 1.252 . S
C334 O332 1.273 . S
O335 Mg322 2.010 . S
O335 C327 1.249 . S
Mg336 O337 2.028 . S
Mg336 O343 1.986 . S
Mg336 O345 2.114 . S
Mg336 O346 2.251 . S
Mg336 O349 2.010 . S
O337 Mg336 2.028 . S
O337 C340 1.250 . S
O338 Mg339 2.028 . S
O338 C340 1.248 . S
Mg339 O338 2.028 . S
Mg339 O344 2.032 . S
Mg339 O346 2.079 . S
C340 O337 1.250 . S
C340 O338 1.248 . S
C341 O342 1.264 . S
C341 O349 1.249 . S
O342 C341 1.264 . S
O343 Mg336 1.986 . S
O343 C347 1.246 . S
O344 Mg339 2.032 . S
O344 C347 1.259 . S
O345 Mg336 2.114 . S
O345 C348 1.252 . S
O346 Mg336 2.251 . S
O346 Mg339 2.079 . S
O346 C348 1.273 . S
C347 O343 1.246 . S
C347 O344 1.259 . S
C348 O345 1.252 . S
C348 O346 1.273 . S
O349 Mg336 2.010 . S
O349 C341 1.249 . S
Mg350 O351 2.028 . S
Mg350 O357 1.986 . S
Mg350 O359 2.114 . S
Mg350 O360 2.251 . S
Mg350 O363 2.010 . S
O351 Mg350 2.028 . S
O351 C354 1.250 . S
O352 Mg353 2.028 . S
O352 C354 1.248 . S
Mg353 O352 2.028 . S
Mg353 O358 2.032 . S
Mg353 O360 2.079 . S
C354 O351 1.250 . S
C354 O352 1.248 . S
C355 O356 1.264 . S
C355 O363 1.249 . S
O356 C355 1.264 . S
O357 Mg350 1.986 . S
O357 C361 1.246 . S
O358 Mg353 2.032 . S
O358 C361 1.259 . S
O359 Mg350 2.114 . S
O359 C362 1.252 . S
O360 Mg350 2.251 . S
O360 Mg353 2.079 . S
O360 C362 1.273 . S
C361 O357 1.246 . S
C361 O358 1.259 . S
C362 O359 1.252 . S
C362 O360 1.273 . S
O363 Mg350 2.010 . S
O363 C355 1.249 . S
Mg364 O365 2.028 . S
Mg364 O371 1.986 . S
Mg364 O373 2.114 . S
Mg364 O374 2.251 . S
Mg364 O377 2.010 . S
O365 Mg364 2.028 . S
O365 C368 1.250 . S
O366 Mg367 2.028 . S
O366 C368 1.248 . S
Mg367 O366 2.028 . S
Mg367 O372 2.032 . S
Mg367 O374 2.079 . S
C368 O365 1.250 . S
C368 O366 1.248 . S
C369 O370 1.264 . S
C369 O377 1.249 . S
O370 C369 1.264 . S
O371 Mg364 1.986 . S
O371 C375 1.246 . S
O372 Mg367 2.032 . S
O372 C375 1.259 . S
O373 Mg364 2.114 . S
O373 C376 1.252 . S
O374 Mg364 2.251 . S
O374 Mg367 2.079 . S
O374 C376 1.273 . S
C375 O371 1.246 . S
C375 O372 1.259 . S
C376 O373 1.252 . S
C376 O374 1.273 . S
O377 Mg364 2.010 . S
O377 C369 1.249 . S
Mg378 O379 2.028 . S
Mg378 O385 1.986 . S
Mg378 O387 2.114 . S
Mg378 O388 2.251 . S
Mg378 O391 2.010 . S
O379 Mg378 2.028 . S
O379 C382 1.250 . S
O380 Mg381 2.028 . S
O380 C382 1.248 . S
Mg381 O380 2.028 . S
Mg381 O386 2.032 . S
Mg381 O388 2.079 . S
C382 O379 1.250 . S
C382 O380 1.248 . S
C383 O384 1.264 . S
C383 O391 1.249 . S
O384 C383 1.264 . S
O385 Mg378 1.986 . S
O385 C389 1.246 . S
O386 Mg381 2.032 . S
O386 C389 1.259 . S
O387 Mg378 2.114 . S
O387 C390 1.252 . S
O388 Mg378 2.251 . S
O388 Mg381 2.079 . S
O388 C390 1.273 . S
C389 O385 1.246 . S
C389 O386 1.259 . S
C390 O387 1.252 . S
C390 O388 1.273 . S
O391 Mg378 2.010 . S
O391 C383 1.249 . S
Mg392 O393 2.028 . S
Mg392 O399 1.986 . S
Mg392 O401 2.114 . S
Mg392 O402 2.251 . S
Mg392 O405 2.010 . S
O393 Mg392 2.028 . S
O393 C396 1.250 . S
O394 Mg395 2.028 . S
O394 C396 1.248 . S
Mg395 O394 2.028 . S
Mg395 O400 2.032 . S
Mg395 O402 2.079 . S
C396 O393 1.250 . S
C396 O394 1.248 . S
C397 O398 1.264 . S
C397 O405 1.249 . S
O398 C397 1.264 . S
O399 Mg392 1.986 . S
O399 C403 1.246 . S
O400 Mg395 2.032 . S
O400 C403 1.259 . S
O401 Mg392 2.114 . S
O401 C404 1.252 . S
O402 Mg392 2.251 . S
O402 Mg395 2.079 . S
O402 C404 1.273 . S
C403 O399 1.246 . S
C403 O400 1.259 . S
C404 O401 1.252 . S
C404 O402 1.273 . S
O405 Mg392 2.010 . S
O405 C397 1.249 . S
Mg406 O407 2.028 . S
Mg406 O413 1.986 . S
Mg406 O415 2.114 . S
Mg406 O416 2.251 . S
Mg406 O419 2.010 . S
O407 Mg406 2.028 . S
O407 C410 1.250 . S
O408 Mg409 2.028 . S
O408 C410 1.248 . S
Mg409 O408 2.028 . S
Mg409 O414 2.032 . S
Mg409 O416 2.079 . S
C410 O407 1.250 . S
C410 O408 1.248 . S
C411 O412 1.264 . S
C411 O419 1.249 . S
O412 C411 1.264 . S
O413 Mg406 1.986 . S
O413 C417 1.246 . S
O414 Mg409 2.032 . S
O414 C417 1.259 . S
O415 Mg406 2.114 . S
O415 C418 1.252 . S
O416 Mg406 2.251 . S
O416 Mg409 2.079 . S
O416 C418 1.273 . S
C417 O413 1.246 . S
C417 O414 1.259 . S
C418 O415 1.252 . S
C418 O416 1.273 . S
O419 Mg406 2.010 . S
O419 C411 1.249 . S
Mg420 O421 2.028 . S
Mg420 O427 1.986 . S
Mg420 O429 2.114 . S
Mg420 O430 2.251 . S
Mg420 O433 2.010 . S
O421 Mg420 2.028 . S
O421 C424 1.250 . S
O422 Mg423 2.028 . S
O422 C424 1.248 . S
Mg423 O422 2.028 . S
Mg423 O428 2.032 . S
Mg423 O430 2.079 . S
C424 O421 1.250 . S
C424 O422 1.248 . S
C425 O426 1.264 . S
C425 O433 1.249 . S
O426 C425 1.264 . S
O427 Mg420 1.986 . S
O427 C431 1.246 . S
O428 Mg423 2.032 . S
O428 C431 1.259 . S
O429 Mg420 2.114 . S
O429 C432 1.252 . S
O430 Mg420 2.251 . S
O430 Mg423 2.079 . S
O430 C432 1.273 . S
C431 O427 1.246 . S
C431 O428 1.259 . S
C432 O429 1.252 . S
C432 O430 1.273 . S
O433 Mg420 2.010 . S
O433 C425 1.249 . S
Mg434 O435 2.028 . S
Mg434 O441 1.986 . S
Mg434 O443 2.114 . S
Mg434 O444 2.251 . S
Mg434 O447 2.010 . S
O435 Mg434 2.028 . S
O435 C438 1.250 . S
O436 Mg437 2.028 . S
O436 C438 1.248 . S
Mg437 O436 2.028 . S
Mg437 O442 2.032 . S
Mg437 O444 2.079 . S
C438 O435 1.250 . S
C438 O436 1.248 . S
C439 O440 1.264 . S
C439 O447 1.249 . S
O440 C439 1.264 . S
O441 Mg434 1.986 . S
O441 C445 1.246 . S
O442 Mg437 2.032 . S
O442 C445 1.259 . S
O443 Mg434 2.114 . S
O443 C446 1.252 . S
O444 Mg434 2.251 . S
O444 Mg437 2.079 . S
O444 C446 1.273 . S
C445 O441 1.246 . S
C445 O442 1.259 . S
C446 O443 1.252 . S
C446 O444 1.273 . S
O447 Mg434 2.010 . S
O447 C439 1.249 . S
Mg448 O449 2.028 . S
Mg448 O455 1.986 . S
Mg448 O457 2.114 . S
Mg448 O458 2.251 . S
Mg448 O461 2.010 . S
O449 Mg448 2.028 . S
O449 C452 1.250 . S
O450 Mg451 2.028 . S
O450 C452 1.248 . S
Mg451 O450 2.028 . S
Mg451 O456 2.032 . S
Mg451 O458 2.079 . S
C452 O449 1.250 . S
C452 O450 1.248 . S
C453 O454 1.264 . S
C453 O461 1.249 . S
O454 C453 1.264 . S
O455 Mg448 1.986 . S
O455 C459 1.246 . S
O456 Mg451 2.032 . S
O456 C459 1.259 . S
O457 Mg448 2.114 . S
O457 C460 1.252 . S
O458 Mg448 2.251 . S
O458 Mg451 2.079 . S
O458 C460 1.273 . S
C459 O455 1.246 . S
C459 O456 1.259 . S
C460 O457 1.252 . S
C460 O458 1.273 . S
O461 Mg448 2.010 . S
O461 C453 1.249 . S
Mg462 O463 2.028 . S
Mg462 O469 1.986 . S
Mg462 O471 2.114 . S
Mg462 O472 2.251 . S
Mg462 O475 2.010 . S
O463 Mg462 2.028 . S
O463 C466 1.250 . S
O464 Mg465 2.028 . S
O464 C466 1.248 . S
Mg465 O464 2.028 . S
Mg465 O470 2.032 . S
Mg465 O472 2.079 . S
C466 O463 1.250 . S
C466 O464 1.248 . S
C467 O468 1.264 . S
C467 O475 1.249 . S
O468 C467 1.264 . S
O469 Mg462 1.986 . S
O469 C473 1.246 . S
O470 Mg465 2.032 . S
O470 C473 1.259 . S
O471 Mg462 2.114 . S
O471 C474 1.252 . S
O472 Mg462 2.251 . S
O472 Mg465 2.079 . S
O472 C474 1.273 . S
C473 O469 1.246 . S
C473 O470 1.259 . S
C474 O471 1.252 . S
C474 O472 1.273 . S
O475 Mg462 2.010 . S
O475 C467 1.249 . S
Mg476 O477 2.028 . S
Mg476 O483 1.986 . S
Mg476 O485 2.114 . S
Mg476 O486 2.251 . S
Mg476 O489 2.010 . S
O477 Mg476 2.028 . S
O477 C480 1.250 . S
O478 Mg479 2.028 . S
O478 C480 1.248 . S
Mg479 O478 2.028 . S
Mg479 O484 2.032 . S
Mg479 O486 2.079 . S
C480 O477 1.250 . S
C480 O478 1.248 . S
C481 O482 1.264 . S
C481 O489 1.249 . S
O482 C481 1.264 . S
O483 Mg476 1.986 . S
O483 C487 1.246 . S
O484 Mg479 2.032 . S
O484 C487 1.259 . S
O485 Mg476 2.114 . S
O485 C488 1.252 . S
O486 Mg476 2.251 . S
O486 Mg479 2.079 . S
O486 C488 1.273 . S
C487 O483 1.246 . S
C487 O484 1.259 . S
C488 O485 1.252 . S
C488 O486 1.273 . S
O489 Mg476 2.010 . S
O489 C481 1.249 . S
Mg490 O491 2.028 . S
Mg490 O497 1.986 . S
Mg490 O499 2.114 . S
Mg490 O500 2.251 . S
Mg490 O503 2.010 . S
O491 Mg490 2.028 . S
O491 C494 1.250 . S
O492 Mg493 2.028 . S
O492 C494 1.248 . S
Mg493 O492 2.028 . S
Mg493 O498 2.032 . S
Mg493 O500 2.079 . S
C494 O491 1.250 . S
C494 O492 1.248 . S
C495 O496 1.264 . S
C495 O503 1.249 . S
O496 C495 1.264 . S
O497 Mg490 1.986 . S
O497 C501 1.246 . S
O498 Mg493 2.032 . S
O498 C501 1.259 . S
O499 Mg490 2.114 . S
O499 C502 1.252 . S
O500 Mg490 2.251 . S
O500 Mg493 2.079 . S
O500 C502 1.273 . S
C501 O497 1.246 . S
C501 O498 1.259 . S
C502 O499 1.252 . S
C502 O500 1.273 . S
O503 Mg490 2.010 . S
O503 C495 1.249 . S
C504 C505 1.349 . S
C504 C506 1.327 . S
C504 H529 0.950 . S
C505 C504 1.349 . S
C505 C521 1.349 . S
C506 C504 1.327 . S
C506 C525 1.429 . S
C506 H530 0.950 . S
C507 C524 1.574 . S
C507 C526 1.368 . S
C507 H531 0.949 . S
H508 C512 0.949 . S
C509 C510 1.349 . S
C509 C511 1.327 . S
C509 H532 0.950 . S
C510 C509 1.349 . S
C510 C522 1.349 . S
C511 C509 1.327 . S
C511 C527 1.429 . S
C511 H533 0.950 . S
C512 H508 0.949 . S
C512 C520 1.574 . S
C512 C528 1.368 . S
H513 C521 0.950 . S
H514 C519 0.950 . S
H515 C520 0.949 . S
H516 C522 0.950 . S
H517 C523 0.950 . S
H518 C524 0.949 . S
C519 H514 0.950 . S
C519 C521 1.327 . S
C519 C525 1.429 . S
C520 C512 1.574 . S
C520 H515 0.949 . S
C520 C526 1.368 . S
C521 C505 1.349 . S
C521 H513 0.950 . S
C521 C519 1.327 . S
C522 C510 1.349 . S
C522 H516 0.950 . S
C522 C523 1.327 . S
C523 H517 0.950 . S
C523 C522 1.327 . S
C523 C527 1.429 . S
C524 C507 1.574 . S
C524 H518 0.949 . S
C524 C528 1.368 . S
C525 C506 1.429 . S
C525 C519 1.429 . S
C525 C526 1.523 . S
C526 C507 1.368 . S
C526 C520 1.368 . S
C526 C525 1.523 . S
C527 C511 1.429 . S
C527 C523 1.429 . S
C527 C528 1.523 . S
C528 C512 1.368 . S
C528 C524 1.368 . S
C528 C527 1.523 . S
H529 C504 0.950 . S
H530 C506 0.950 . S
H531 C507 0.949 . S
H532 C509 0.950 . S
H533 C511 0.950 . S
C534 C535 1.349 . S
C534 C536 1.327 . S
C534 H559 0.950 . S
C535 C534 1.349 . S
C535 C551 1.349 . S
C536 C534 1.327 . S
C536 C555 1.429 . S
C536 H560 0.950 . S
C537 C554 1.574 . S
C537 C556 1.368 . S
C537 H561 0.949 . S
H538 C542 0.949 . S
C539 C540 1.349 . S
C539 C541 1.327 . S
C539 H562 0.950 . S
C540 C539 1.349 . S
C540 C552 1.349 . S
C541 C539 1.327 . S
C541 C557 1.429 . S
C541 H563 0.950 . S
C542 H538 0.949 . S
C542 C550 1.574 . S
C542 C558 1.368 . S
H543 C551 0.950 . S
H544 C549 0.950 . S
H545 C550 0.949 . S
H546 C552 0.950 . S
H547 C553 0.950 . S
H548 C554 0.949 . S
C549 H544 0.950 . S
C549 C551 1.327 . S
C549 C555 1.429 . S
C550 C542 1.574 . S
C550 H545 0.949 . S
C550 C556 1.368 . S
C551 C535 1.349 . S
C551 H543 0.950 . S
C551 C549 1.327 . S
C552 C540 1.349 . S
C552 H546 0.950 . S
C552 C553 1.327 . S
C553 H547 0.950 . S
C553 C552 1.327 . S
C553 C557 1.429 . S
C554 C537 1.574 . S
C554 H548 0.949 . S
C554 C558 1.368 . S
C555 C536 1.429 . S
C555 C549 1.429 . S
C555 C556 1.523 . S
C556 C537 1.368 . S
C556 C550 1.368 . S
C556 C555 1.523 . S
C557 C541 1.429 . S
C557 C553 1.429 . S
C557 C558 1.523 . S
C558 C542 1.368 . S
C558 C554 1.368 . S
C558 C557 1.523 . S
H559 C534 0.950 . S
H560 C536 0.950 . S
H561 C537 0.949 . S
H562 C539 0.950 . S
H563 C541 0.950 . S
C564 C565 1.349 . S
C564 C566 1.327 . S
C564 H589 0.950 . S
C565 C564 1.349 . S
C565 C581 1.349 . S
C566 C564 1.327 . S
C566 C585 1.429 . S
C566 H590 0.950 . S
C567 C584 1.574 . S
C567 C586 1.368 . S
C567 H591 0.949 . S
H568 C572 0.949 . S
C569 C570 1.349 . S
C569 C571 1.327 . S
C569 H592 0.950 . S
C570 C569 1.349 . S
C570 C582 1.349 . S
C571 C569 1.327 . S
C571 C587 1.429 . S
C571 H593 0.950 . S
C572 H568 0.949 . S
C572 C580 1.574 . S
C572 C588 1.368 . S
H573 C581 0.950 . S
H574 C579 0.950 . S
H575 C580 0.949 . S
H576 C582 0.950 . S
H577 C583 0.950 . S
H578 C584 0.949 . S
C579 H574 0.950 . S
C579 C581 1.327 . S
C579 C585 1.429 . S
C580 C572 1.574 . S
C580 H575 0.949 . S
C580 C586 1.368 . S
C581 C565 1.349 . S
C581 H573 0.950 . S
C581 C579 1.327 . S
C582 C570 1.349 . S
C582 H576 0.950 . S
C582 C583 1.327 . S
C583 H577 0.950 . S
C583 C582 1.327 . S
C583 C587 1.429 . S
C584 C567 1.574 . S
C584 H578 0.949 . S
C584 C588 1.368 . S
C585 C566 1.429 . S
C585 C579 1.429 . S
C585 C586 1.523 . S
C586 C567 1.368 . S
C586 C580 1.368 . S
C586 C585 1.523 . S
C587 C571 1.429 . S
C587 C583 1.429 . S
C587 C588 1.523 . S
C588 C572 1.368 . S
C588 C584 1.368 . S
C588 C587 1.523 . S
H589 C564 0.950 . S
H590 C566 0.950 . S
H591 C567 0.949 . S
H592 C569 0.950 . S
H593 C571 0.950 . S
C594 C595 1.349 . S
C594 C596 1.327 . S
C594 H619 0.950 . S
C595 C594 1.349 . S
C595 C611 1.349 . S
C596 C594 1.327 . S
C596 C615 1.429 . S
C596 H620 0.950 . S
C597 C614 1.574 . S
C597 C616 1.368 . S
C597 H621 0.949 . S
H598 C602 0.949 . S
C599 C600 1.349 . S
C599 C601 1.327 . S
C599 H622 0.950 . S
C600 C599 1.349 . S
C600 C612 1.349 . S
C601 C599 1.327 . S
C601 C617 1.429 . S
C601 H623 0.950 . S
C602 H598 0.949 . S
C602 C610 1.574 . S
C602 C618 1.368 . S
H603 C611 0.950 . S
H604 C609 0.950 . S
H605 C610 0.949 . S
H606 C612 0.950 . S
H607 C613 0.950 . S
H608 C614 0.949 . S
C609 H604 0.950 . S
C609 C611 1.327 . S
C609 C615 1.429 . S
C610 C602 1.574 . S
C610 H605 0.949 . S
C610 C616 1.368 . S
C611 C595 1.349 . S
C611 H603 0.950 . S
C611 C609 1.327 . S
C612 C600 1.349 . S
C612 H606 0.950 . S
C612 C613 1.327 . S
C613 H607 0.950 . S
C613 C612 1.327 . S
C613 C617 1.429 . S
C614 C597 1.574 . S
C614 H608 0.949 . S
C614 C618 1.368 . S
C615 C596 1.429 . S
C615 C609 1.429 . S
C615 C616 1.523 . S
C616 C597 1.368 . S
C616 C610 1.368 . S
C616 C615 1.523 . S
C617 C601 1.429 . S
C617 C613 1.429 . S
C617 C618 1.523 . S
C618 C602 1.368 . S
C618 C614 1.368 . S
C618 C617 1.523 . S
H619 C594 0.950 . S
H620 C596 0.950 . S
H621 C597 0.949 . S
H622 C599 0.950 . S
H623 C601 0.950 . S
C624 C625 1.349 . S
C624 C626 1.327 . S
C624 H649 0.950 . S
C625 C624 1.349 . S
C625 C641 1.349 . S
C626 C624 1.327 . S
C626 C645 1.429 . S
C626 H650 0.950 . S
C627 C644 1.574 . S
C627 C646 1.368 . S
C627 H651 0.949 . S
H628 C632 0.949 . S
C629 C630 1.349 . S
C629 C631 1.327 . S
C629 H652 0.950 . S
C630 C629 1.349 . S
C630 C642 1.349 . S
C631 C629 1.327 . S
C631 C647 1.429 . S
C631 H653 0.950 . S
C632 H628 0.949 . S
C632 C640 1.574 . S
C632 C648 1.368 . S
H633 C641 0.950 . S
H634 C639 0.950 . S
H635 C640 0.949 . S
H636 C642 0.950 . S
H637 C643 0.950 . S
H638 C644 0.949 . S
C639 H634 0.950 . S
C639 C641 1.327 . S
C639 C645 1.429 . S
C640 C632 1.574 . S
C640 H635 0.949 . S
C640 C646 1.368 . S
C641 C625 1.349 . S
C641 H633 0.950 . S
C641 C639 1.327 . S
C642 C630 1.349 . S
C642 H636 0.950 . S
C642 C643 1.327 . S
C643 H637 0.950 . S
C643 C642 1.327 . S
C643 C647 1.429 . S
C644 C627 1.574 . S
C644 H638 0.949 . S
C644 C648 1.368 . S
C645 C626 1.429 . S
C645 C639 1.429 . S
C645 C646 1.523 . S
C646 C627 1.368 . S
C646 C640 1.368 . S
C646 C645 1.523 . S
C647 C631 1.429 . S
C647 C643 1.429 . S
C647 C648 1.523 . S
C648 C632 1.368 . S
C648 C644 1.368 . S
C648 C647 1.523 . S
H649 C624 0.950 . S
H650 C626 0.950 . S
H651 C627 0.949 . S
H652 C629 0.950 . S
H653 C631 0.950 . S
C654 C655 1.349 . S
C654 C656 1.327 . S
C654 H679 0.950 . S
C655 C654 1.349 . S
C655 C671 1.349 . S
C656 C654 1.327 . S
C656 C675 1.429 . S
C656 H680 0.950 . S
C657 C674 1.574 . S
C657 C676 1.368 . S
C657 H681 0.949 . S
H658 C662 0.949 . S
C659 C660 1.349 . S
C659 C661 1.327 . S
C659 H682 0.950 . S
C660 C659 1.349 . S
C660 C672 1.349 . S
C661 C659 1.327 . S
C661 C677 1.429 . S
C661 H683 0.950 . S
C662 H658 0.949 . S
C662 C670 1.574 . S
C662 C678 1.368 . S
H663 C671 0.950 . S
H664 C669 0.950 . S
H665 C670 0.949 . S
H666 C672 0.950 . S
H667 C673 0.950 . S
H668 C674 0.949 . S
C669 H664 0.950 . S
C669 C671 1.327 . S
C669 C675 1.429 . S
C670 C662 1.574 . S
C670 H665 0.949 . S
C670 C676 1.368 . S
C671 C655 1.349 . S
C671 H663 0.950 . S
C671 C669 1.327 . S
C672 C660 1.349 . S
C672 H666 0.950 . S
C672 C673 1.327 . S
C673 H667 0.950 . S
C673 C672 1.327 . S
C673 C677 1.429 . S
C674 C657 1.574 . S
C674 H668 0.949 . S
C674 C678 1.368 . S
C675 C656 1.429 . S
C675 C669 1.429 . S
C675 C676 1.523 . S
C676 C657 1.368 . S
C676 C670 1.368 . S
C676 C675 1.523 . S
C677 C661 1.429 . S
C677 C673 1.429 . S
C677 C678 1.523 . S
C678 C662 1.368 . S
C678 C674 1.368 . S
C678 C677 1.523 . S
H679 C654 0.950 . S
H680 C656 0.950 . S
H681 C657 0.949 . S
H682 C659 0.950 . S
H683 C661 0.950 . S
C684 C685 1.349 . S
C684 C686 1.327 . S
C684 H709 0.950 . S
C685 C684 1.349 . S
C685 C701 1.349 . S
C686 C684 1.327 . S
C686 C705 1.429 . S
C686 H710 0.950 . S
C687 C704 1.574 . S
C687 C706 1.368 . S
C687 H711 0.949 . S
H688 C692 0.949 . S
C689 C690 1.349 . S
C689 C691 1.327 . S
C689 H712 0.950 . S
C690 C689 1.349 . S
C690 C702 1.349 . S
C691 C689 1.327 . S
C691 C707 1.429 . S
C691 H713 0.950 . S
C692 H688 0.949 . S
C692 C700 1.574 . S
C692 C708 1.368 . S
H693 C701 0.950 . S
H694 C699 0.950 . S
H695 C700 0.949 . S
H696 C702 0.950 . S
H697 C703 0.950 . S
H698 C704 0.949 . S
C699 H694 0.950 . S
C699 C701 1.327 . S
C699 C705 1.429 . S
C700 C692 1.574 . S
C700 H695 0.949 . S
C700 C706 1.368 . S
C701 C685 1.349 . S
C701 H693 0.950 . S
C701 C699 1.327 . S
C702 C690 1.349 . S
C702 H696 0.950 . S
C702 C703 1.327 . S
C703 H697 0.950 . S
C703 C702 1.327 . S
C703 C707 1.429 . S
C704 C687 1.574 . S
C704 H698 0.949 . S
C704 C708 1.368 . S
C705 C686 1.429 . S
C705 C699 1.429 . S
C705 C706 1.523 . S
C706 C687 1.368 . S
C706 C700 1.368 . S
C706 C705 1.523 . S
C707 C691 1.429 . S
C707 C703 1.429 . S
C707 C708 1.523 . S
C708 C692 1.368 . S
C708 C704 1.368 . S
C708 C707 1.523 . S
H709 C684 0.950 . S
H710 C686 0.950 . S
H711 C687 0.949 . S
H712 C689 0.950 . S
H713 C691 0.950 . S
C714 C715 1.349 . S
C714 C716 1.327 . S
C714 H739 0.950 . S
C715 C714 1.349 . S
C715 C731 1.349 . S
C716 C714 1.327 . S
C716 C735 1.429 . S
C716 H740 0.950 . S
C717 C734 1.574 . S
C717 C736 1.368 . S
C717 H741 0.949 . S
H718 C722 0.949 . S
C719 C720 1.349 . S
C719 C721 1.327 . S
C719 H742 0.950 . S
C720 C719 1.349 . S
C720 C732 1.349 . S
C721 C719 1.327 . S
C721 C737 1.429 . S
C721 H743 0.950 . S
C722 H718 0.949 . S
C722 C730 1.574 . S
C722 C738 1.368 . S
H723 C731 0.950 . S
H724 C729 0.950 . S
H725 C730 0.949 . S
H726 C732 0.950 . S
H727 C733 0.950 . S
H728 C734 0.949 . S
C729 H724 0.950 . S
C729 C731 1.327 . S
C729 C735 1.429 . S
C730 C722 1.574 . S
C730 H725 0.949 . S
C730 C736 1.368 . S
C731 C715 1.349 . S
C731 H723 0.950 . S
C731 C729 1.327 . S
C732 C720 1.349 . S
C732 H726 0.950 . S
C732 C733 1.327 . S
C733 H727 0.950 . S
C733 C732 1.327 . S
C733 C737 1.429 . S
C734 C717 1.574 . S
C734 H728 0.949 . S
C734 C738 1.368 . S
C735 C716 1.429 . S
C735 C729 1.429 . S
C735 C736 1.523 . S
C736 C717 1.368 . S
C736 C730 1.368 . S
C736 C735 1.523 . S
C737 C721 1.429 . S
C737 C733 1.429 . S
C737 C738 1.523 . S
C738 C722 1.368 . S
C738 C734 1.368 . S
C738 C737 1.523 . S
H739 C714 0.950 . S
H740 C716 0.950 . S
H741 C717 0.949 . S
H742 C719 0.950 . S
H743 C721 0.950 . S
C744 C745 1.349 . S
C744 C746 1.327 . S
C744 H769 0.950 . S
C745 C744 1.349 . S
C745 C761 1.349 . S
C746 C744 1.327 . S
C746 C765 1.429 . S
C746 H770 0.950 . S
C747 C764 1.574 . S
C747 C766 1.368 . S
C747 H771 0.949 . S
H748 C752 0.949 . S
C749 C750 1.349 . S
C749 C751 1.327 . S
C749 H772 0.950 . S
C750 C749 1.349 . S
C750 C762 1.349 . S
C751 C749 1.327 . S
C751 C767 1.429 . S
C751 H773 0.950 . S
C752 H748 0.949 . S
C752 C760 1.574 . S
C752 C768 1.368 . S
H753 C761 0.950 . S
H754 C759 0.950 . S
H755 C760 0.949 . S
H756 C762 0.950 . S
H757 C763 0.950 . S
H758 C764 0.949 . S
C759 H754 0.950 . S
C759 C761 1.327 . S
C759 C765 1.429 . S
C760 C752 1.574 . S
C760 H755 0.949 . S
C760 C766 1.368 . S
C761 C745 1.349 . S
C761 H753 0.950 . S
C761 C759 1.327 . S
C762 C750 1.349 . S
C762 H756 0.950 . S
C762 C763 1.327 . S
C763 H757 0.950 . S
C763 C762 1.327 . S
C763 C767 1.429 . S
C764 C747 1.574 . S
C764 H758 0.949 . S
C764 C768 1.368 . S
C765 C746 1.429 . S
C765 C759 1.429 . S
C765 C766 1.523 . S
C766 C747 1.368 . S
C766 C760 1.368 . S
C766 C765 1.523 . S
C767 C751 1.429 . S
C767 C763 1.429 . S
C767 C768 1.523 . S
C768 C752 1.368 . S
C768 C764 1.368 . S
C768 C767 1.523 . S
H769 C744 0.950 . S
H770 C746 0.950 . S
H771 C747 0.949 . S
H772 C749 0.950 . S
H773 C751 0.950 . S
C774 C775 1.349 . S
C774 C776 1.327 . S
C774 H799 0.950 . S
C775 C774 1.349 . S
C775 C791 1.349 . S
C776 C774 1.327 . S
C776 C795 1.429 . S
C776 H800 0.950 . S
C777 C794 1.574 . S
C777 C796 1.368 . S
C777 H801 0.949 . S
H778 C782 0.949 . S
C779 C780 1.349 . S
C779 C781 1.327 . S
C779 H802 0.950 . S
C780 C779 1.349 . S
C780 C792 1.349 . S
C781 C779 1.327 . S
C781 C797 1.429 . S
C781 H803 0.950 . S
C782 H778 0.949 . S
C782 C790 1.574 . S
C782 C798 1.368 . S
H783 C791 0.950 . S
H784 C789 0.950 . S
H785 C790 0.949 . S
H786 C792 0.950 . S
H787 C793 0.950 . S
H788 C794 0.949 . S
C789 H784 0.950 . S
C789 C791 1.327 . S
C789 C795 1.429 . S
C790 C782 1.574 . S
C790 H785 0.949 . S
C790 C796 1.368 . S
C791 C775 1.349 . S
C791 H783 0.950 . S
C791 C789 1.327 . S
C792 C780 1.349 . S
C792 H786 0.950 . S
C792 C793 1.327 . S
C793 H787 0.950 . S
C793 C792 1.327 . S
C793 C797 1.429 . S
C794 C777 1.574 . S
C794 H788 0.949 . S
C794 C798 1.368 . S
C795 C776 1.429 . S
C795 C789 1.429 . S
C795 C796 1.523 . S
C796 C777 1.368 . S
C796 C790 1.368 . S
C796 C795 1.523 . S
C797 C781 1.429 . S
C797 C793 1.429 . S
C797 C798 1.523 . S
C798 C782 1.368 . S
C798 C794 1.368 . S
C798 C797 1.523 . S
H799 C774 0.950 . S
H800 C776 0.950 . S
H801 C777 0.949 . S
H802 C779 0.950 . S
H803 C781 0.950 . S
C804 C805 1.349 . S
C804 C806 1.327 . S
C804 H829 0.950 . S
C805 C804 1.349 . S
C805 C821 1.349 . S
C806 C804 1.327 . S
C806 C825 1.429 . S
C806 H830 0.950 . S
C807 C824 1.574 . S
C807 C826 1.368 . S
C807 H831 0.949 . S
H808 C812 0.949 . S
C809 C810 1.349 . S
C809 C811 1.327 . S
C809 H832 0.950 . S
C810 C809 1.349 . S
C810 C822 1.349 . S
C811 C809 1.327 . S
C811 C827 1.429 . S
C811 H833 0.950 . S
C812 H808 0.949 . S
C812 C820 1.574 . S
C812 C828 1.368 . S
H813 C821 0.950 . S
H814 C819 0.950 . S
H815 C820 0.949 . S
H816 C822 0.950 . S
H817 C823 0.950 . S
H818 C824 0.949 . S
C819 H814 0.950 . S
C819 C821 1.327 . S
C819 C825 1.429 . S
C820 C812 1.574 . S
C820 H815 0.949 . S
C820 C826 1.368 . S
C821 C805 1.349 . S
C821 H813 0.950 . S
C821 C819 1.327 . S
C822 C810 1.349 . S
C822 H816 0.950 . S
C822 C823 1.327 . S
C823 H817 0.950 . S
C823 C822 1.327 . S
C823 C827 1.429 . S
C824 C807 1.574 . S
C824 H818 0.949 . S
C824 C828 1.368 . S
C825 C806 1.429 . S
C825 C819 1.429 . S
C825 C826 1.523 . S
C826 C807 1.368 . S
C826 C820 1.368 . S
C826 C825 1.523 . S
C827 C811 1.429 . S
C827 C823 1.429 . S
C827 C828 1.523 . S
C828 C812 1.368 . S
C828 C824 1.368 . S
C828 C827 1.523 . S
H829 C804 0.950 . S
H830 C806 0.950 . S
H831 C807 0.949 . S
H832 C809 0.950 . S
H833 C811 0.950 . S
C834 C835 1.349 . S
C834 C836 1.327 . S
C834 H859 0.950 . S
C835 C834 1.349 . S
C835 C851 1.349 . S
C836 C834 1.327 . S
C836 C855 1.429 . S
C836 H860 0.950 . S
C837 C854 1.574 . S
C837 C856 1.368 . S
C837 H861 0.949 . S
H838 C842 0.949 . S
C839 C840 1.349 . S
C839 C841 1.327 . S
C839 H862 0.950 . S
C840 C839 1.349 . S
C840 C852 1.349 . S
C841 C839 1.327 . S
C841 C857 1.429 . S
C841 H863 0.950 . S
C842 H838 0.949 . S
C842 C850 1.574 . S
C842 C858 1.368 . S
H843 C851 0.950 . S
H844 C849 0.950 . S
H845 C850 0.949 . S
H846 C852 0.950 . S
H847 C853 0.950 . S
H848 C854 0.949 . S
C849 H844 0.950 . S
C849 C851 1.327 . S
C849 C855 1.429 . S
C850 C842 1.574 . S
C850 H845 0.949 . S
C850 C856 1.368 . S
C851 C835 1.349 . S
C851 H843 0.950 . S
C851 C849 1.327 . S
C852 C840 1.349 . S
C852 H846 0.950 . S
C852 C853 1.327 . S
C853 H847 0.950 . S
C853 C852 1.327 . S
C853 C857 1.429 . S
C854 C837 1.574 . S
C854 H848 0.949 . S
C854 C858 1.368 . S
C855 C836 1.429 . S
C855 C849 1.429 . S
C855 C856 1.523 . S
C856 C837 1.368 . S
C856 C850 1.368 . S
C856 C855 1.523 . S
C857 C841 1.429 . S
C857 C853 1.429 . S
C857 C858 1.523 . S
C858 C842 1.368 . S
C858 C854 1.368 . S
C858 C857 1.523 . S
H859 C834 0.950 . S
H860 C836 0.950 . S
H861 C837 0.949 . S
H862 C839 0.950 . S
H863 C841 0.950 . S
C864 C865 1.349 . S
C864 C866 1.327 . S
C864 H889 0.950 . S
C865 C864 1.349 . S
C865 C881 1.349 . S
C866 C864 1.327 . S
C866 C885 1.429 . S
C866 H890 0.950 . S
C867 C884 1.574 . S
C867 C886 1.368 1_655 S
C867 H891 0.949 . S
H868 C872 0.949 . S
C869 C870 1.349 . S
C869 C871 1.327 . S
C869 H892 0.950 . S
C870 C869 1.349 . S
C870 C882 1.349 . S
C871 C869 1.327 . S
C871 C887 1.429 . S
C871 H893 0.950 . S
C872 H868 0.949 . S
C872 C880 1.574 . S
C872 C888 1.368 1_455 S
H873 C881 0.950 . S
H874 C879 0.950 1_655 S
H875 C880 0.949 . S
H876 C882 0.950 . S
H877 C883 0.950 1_455 S
H878 C884 0.949 . S
C879 H874 0.950 1_455 S
C879 C881 1.327 . S
C879 C885 1.429 . S
C880 C872 1.574 . S
C880 H875 0.949 . S
C880 C886 1.368 . S
C881 C865 1.349 . S
C881 H873 0.950 . S
C881 C879 1.327 . S
C882 C870 1.349 . S
C882 H876 0.950 . S
C882 C883 1.327 . S
C883 H877 0.950 1_655 S
C883 C882 1.327 . S
C883 C887 1.429 . S
C884 C867 1.574 . S
C884 H878 0.949 . S
C884 C888 1.368 . S
C885 C866 1.429 . S
C885 C879 1.429 . S
C885 C886 1.523 . S
C886 C867 1.368 1_455 S
C886 C880 1.368 . S
C886 C885 1.523 . S
C887 C871 1.429 . S
C887 C883 1.429 . S
C887 C888 1.523 . S
C888 C872 1.368 1_655 S
C888 C884 1.368 . S
C888 C887 1.523 . S
H889 C864 0.950 . S
H890 C866 0.950 . S
H891 C867 0.949 . S
H892 C869 0.950 . S
H893 C871 0.950 . S
C894 C895 1.349 . S
C894 C896 1.327 . S
C894 H919 0.950 . S
C895 C894 1.349 . S
C895 C911 1.349 . S
C896 C894 1.327 . S
C896 C915 1.429 . S
C896 H920 0.950 . S
C897 C914 1.574 . S
C897 C916 1.368 . S
C897 H921 0.949 . S
H898 C902 0.949 . S
C899 C900 1.349 . S
C899 C901 1.327 . S
C899 H922 0.950 . S
C900 C899 1.349 . S
C900 C912 1.349 . S
C901 C899 1.327 . S
C901 C917 1.429 . S
C901 H923 0.950 . S
C902 H898 0.949 . S
C902 C910 1.574 . S
C902 C918 1.368 . S
H903 C911 0.950 . S
H904 C909 0.950 . S
H905 C910 0.949 . S
H906 C912 0.950 . S
H907 C913 0.950 . S
H908 C914 0.949 . S
C909 H904 0.950 . S
C909 C911 1.327 . S
C909 C915 1.429 . S
C910 C902 1.574 . S
C910 H905 0.949 . S
C910 C916 1.368 . S
C911 C895 1.349 . S
C911 H903 0.950 . S
C911 C909 1.327 . S
C912 C900 1.349 . S
C912 H906 0.950 . S
C912 C913 1.327 . S
C913 H907 0.950 . S
C913 C912 1.327 . S
C913 C917 1.429 . S
C914 C897 1.574 . S
C914 H908 0.949 . S
C914 C918 1.368 . S
C915 C896 1.429 . S
C915 C909 1.429 . S
C915 C916 1.523 . S
C916 C897 1.368 . S
C916 C910 1.368 . S
C916 C915 1.523 . S
C917 C901 1.429 . S
C917 C913 1.429 . S
C917 C918 1.523 . S
C918 C902 1.368 . S
C918 C914 1.368 . S
C918 C917 1.523 . S
H919 C894 0.950 . S
H920 C896 0.950 . S
H921 C897 0.949 . S
H922 C899 0.950 . S
H923 C901 0.950 . S
C924 C925 1.349 . S
C924 C926 1.327 . S
C924 H949 0.950 . S
C925 C924 1.349 . S
C925 C941 1.349 . S
C926 C924 1.327 . S
C926 C945 1.429 . S
C926 H950 0.950 . S
C927 C944 1.574 . S
C927 C946 1.368 . S
C927 H951 0.949 . S
H928 C932 0.949 . S
C929 C930 1.349 . S
C929 C931 1.327 . S
C929 H952 0.950 . S
C930 C929 1.349 . S
C930 C942 1.349 . S
C931 C929 1.327 . S
C931 C947 1.429 . S
C931 H953 0.950 . S
C932 H928 0.949 . S
C932 C940 1.574 . S
C932 C948 1.368 . S
H933 C941 0.950 . S
H934 C939 0.950 . S
H935 C940 0.949 . S
H936 C942 0.950 . S
H937 C943 0.950 . S
H938 C944 0.949 . S
C939 H934 0.950 . S
C939 C941 1.327 . S
C939 C945 1.429 . S
C940 C932 1.574 . S
C940 H935 0.949 . S
C940 C946 1.368 1_565 S
C941 C925 1.349 . S
C941 H933 0.950 . S
C941 C939 1.327 . S
C942 C930 1.349 . S
C942 H936 0.950 . S
C942 C943 1.327 . S
C943 H937 0.950 . S
C943 C942 1.327 . S
C943 C947 1.429 . S
C944 C927 1.574 . S
C944 H938 0.949 . S
C944 C948 1.368 1_545 S
C945 C926 1.429 . S
C945 C939 1.429 . S
C945 C946 1.523 . S
C946 C927 1.368 . S
C946 C940 1.368 1_545 S
C946 C945 1.523 . S
C947 C931 1.429 . S
C947 C943 1.429 . S
C947 C948 1.523 . S
C948 C932 1.368 . S
C948 C944 1.368 1_565 S
C948 C947 1.523 . S
H949 C924 0.950 . S
H950 C926 0.950 . S
H951 C927 0.949 . S
H952 C929 0.950 . S
H953 C931 0.950 . S
C954 C955 1.349 . S
C954 C956 1.327 . S
C954 H979 0.950 . S
C955 C954 1.349 . S
C955 C971 1.349 . S
C956 C954 1.327 . S
C956 C975 1.429 . S
C956 H980 0.950 . S
C957 C974 1.518 1_554 S
C957 C976 1.368 1_545 S
C957 H981 0.949 . S
H958 C962 0.949 . S
C959 C960 1.349 . S
C959 C961 1.327 . S
C959 H982 0.950 . S
C960 C959 1.349 . S
C960 C972 1.349 . S
C961 C959 1.327 . S
C961 C977 1.429 . S
C961 H983 0.950 . S
C962 H958 0.949 . S
C962 C970 1.518 1_556 S
C962 C978 1.368 1_565 S
H963 C971 0.950 . S
H964 C969 0.950 1_545 S
H965 C970 0.946 . S
H966 C972 0.950 . S
H967 C973 0.950 1_565 S
H968 C974 0.946 . S
C969 H964 0.950 1_565 S
C969 C971 1.327 . S
C969 C975 1.429 . S
C970 C962 1.518 1_554 S
C970 H965 0.946 . S
C970 C976 1.419 . S
C971 C955 1.349 . S
C971 H963 0.950 . S
C971 C969 1.327 . S
C972 C960 1.349 . S
C972 H966 0.950 . S
C972 C973 1.327 . S
C973 H967 0.950 1_545 S
C973 C972 1.327 . S
C973 C977 1.429 . S
C974 C957 1.518 1_556 S
C974 H968 0.946 . S
C974 C978 1.419 . S
C975 C956 1.429 . S
C975 C969 1.429 . S
C975 C976 1.523 . S
C976 C957 1.368 1_565 S
C976 C970 1.419 . S
C976 C975 1.523 . S
C977 C961 1.429 . S
C977 C973 1.429 . S
C977 C978 1.523 . S
C978 C962 1.368 1_545 S
C978 C974 1.419 . S
C978 C977 1.523 . S
H979 C954 0.950 . S
H980 C956 0.950 . S
H981 C957 0.949 . S
H982 C959 0.950 . S
H983 C961 0.950 . S
C984 C985 1.349 . S
C984 C986 1.327 . S
C984 H1009 0.950 . S
C985 C984 1.349 . S
C985 C1001 1.349 . S
C986 C984 1.327 . S
C986 C1005 1.429 . S
C986 H1010 0.950 . S
C987 C1004 1.574 1_656 S
C987 C1006 1.368 . S
C987 H1011 0.949 . S
H988 C992 0.949 . S
C989 C990 1.349 . S
C989 C991 1.327 . S
C989 H1012 0.950 . S
C990 C989 1.349 . S
C990 C1002 1.349 . S
C991 C989 1.327 . S
C991 C1007 1.429 . S
C991 H1013 0.950 . S
C992 H988 0.949 . S
C992 C1000 1.574 1_454 S
C992 C1008 1.368 . S
H993 C1001 0.950 . S
H994 C999 0.950 . S
H995 C1000 0.949 . S
H996 C1002 0.950 . S
H997 C1003 0.950 . S
H998 C1004 0.949 . S
C999 H994 0.950 . S
C999 C1001 1.327 . S
C999 C1005 1.429 . S
C1000 C992 1.574 1_656 S
C1000 H995 0.949 . S
C1000 C1006 1.368 . S
C1001 C985 1.349 . S
C1001 H993 0.950 . S
C1001 C999 1.327 . S
C1002 C990 1.349 . S
C1002 H996 0.950 . S
C1002 C1003 1.327 . S
C1003 H997 0.950 . S
C1003 C1002 1.327 . S
C1003 C1007 1.429 . S
C1004 C987 1.574 1_454 S
C1004 H998 0.949 . S
C1004 C1008 1.368 . S
C1005 C986 1.429 . S
C1005 C999 1.429 . S
C1005 C1006 1.523 . S
C1006 C987 1.368 . S
C1006 C1000 1.368 . S
C1006 C1005 1.523 . S
C1007 C991 1.429 . S
C1007 C1003 1.429 . S
C1007 C1008 1.523 . S
C1008 C992 1.368 . S
C1008 C1004 1.368 . S
C1008 C1007 1.523 . S
H1009 C984 0.950 . S
H1010 C986 0.950 . S
H1011 C987 0.949 . S
H1012 C989 0.950 . S
H1013 C991 0.950 . S
C1014 C1015 1.349 . S
C1014 C1016 1.327 . S
C1014 H1039 0.950 . S
C1015 C1014 1.349 . S
C1015 C1031 1.349 . S
C1016 C1014 1.327 . S
C1016 C1035 1.429 . S
C1016 H1040 0.950 . S
C1017 C1034 1.533 1_556 S
C1017 C1036 1.368 . S
C1017 H1041 0.949 . S
H1018 C1022 0.949 . S
C1019 C1020 1.349 . S
C1019 C1021 1.327 . S
C1019 H1042 0.950 . S
C1020 C1019 1.349 . S
C1020 C1032 1.349 . S
C1021 C1019 1.327 . S
C1021 C1037 1.429 . S
C1021 H1043 0.950 . S
C1022 H1018 0.949 . S
C1022 C1030 1.533 1_554 S
C1022 C1038 1.368 . S
H1023 C1031 0.950 . S
H1024 C1029 0.950 . S
H1025 C1030 0.947 . S
H1026 C1032 0.950 . S
H1027 C1033 0.950 . S
H1028 C1034 0.947 . S
C1029 H1024 0.950 . S
C1029 C1031 1.327 . S
C1029 C1035 1.429 . S
C1030 C1022 1.533 1_556 S
C1030 H1025 0.947 . S
C1030 C1036 1.406 . S
C1031 C1015 1.349 . S
C1031 H1023 0.950 . S
C1031 C1029 1.327 . S
C1032 C1020 1.349 . S
C1032 H1026 0.950 . S
C1032 C1033 1.327 . S
C1033 H1027 0.950 . S
C1033 C1032 1.327 . S
C1033 C1037 1.429 . S
C1034 C1017 1.533 1_554 S
C1034 H1028 0.947 . S
C1034 C1038 1.406 . S
C1035 C1016 1.429 . S
C1035 C1029 1.429 . S
C1035 C1036 1.523 . S
C1036 C1017 1.368 . S
C1036 C1030 1.406 . S
C1036 C1035 1.523 . S
C1037 C1021 1.429 . S
C1037 C1033 1.429 . S
C1037 C1038 1.523 . S
C1038 C1022 1.368 . S
C1038 C1034 1.406 . S
C1038 C1037 1.523 . S
H1039 C1014 0.950 . S
H1040 C1016 0.950 . S
H1041 C1017 0.949 . S
H1042 C1019 0.950 . S
H1043 C1021 0.950 . S
C1044 C1045 1.349 . S
C1044 C1046 1.327 . S
C1044 H1069 0.950 . S
C1045 C1044 1.349 . S
C1045 C1061 1.349 . S
C1046 C1044 1.327 . S
C1046 C1065 1.429 . S
C1046 H1070 0.950 . S
C1047 C1064 1.547 1_545 S
C1047 C1066 1.368 . S
C1047 H1071 0.949 . S
H1048 C1052 0.949 . S
C1049 C1050 1.349 . S
C1049 C1051 1.327 . S
C1049 H1072 0.950 . S
C1050 C1049 1.349 . S
C1050 C1062 1.349 . S
C1051 C1049 1.327 . S
C1051 C1067 1.429 . S
C1051 H1073 0.950 . S
C1052 H1048 0.949 . S
C1052 C1060 1.574 . S
C1052 C1068 1.368 . S
H1053 C1061 0.950 . S
H1054 C1059 0.950 . S
H1055 C1060 0.949 . S
H1056 C1062 0.950 . S
H1057 C1063 0.950 . S
H1058 C1064 0.947 1_545 S
C1059 H1054 0.950 . S
C1059 C1061 1.327 . S
C1059 C1065 1.429 . S
C1060 C1052 1.574 . S
C1060 H1055 0.949 . S
C1060 C1066 1.368 1_565 S
C1061 C1045 1.349 . S
C1061 H1053 0.950 . S
C1061 C1059 1.327 . S
C1062 C1050 1.349 . S
C1062 H1056 0.950 . S
C1062 C1063 1.327 . S
C1063 H1057 0.950 . S
C1063 C1062 1.327 . S
C1063 C1067 1.429 . S
C1064 C1047 1.547 1_565 S
C1064 H1058 0.947 1_565 S
C1064 C1068 1.399 . S
C1065 C1046 1.429 . S
C1065 C1059 1.429 . S
C1065 C1066 1.523 . S
C1066 C1047 1.368 . S
C1066 C1060 1.368 1_545 S
C1066 C1065 1.523 . S
C1067 C1051 1.429 . S
C1067 C1063 1.429 . S
C1067 C1068 1.523 . S
C1068 C1052 1.368 . S
C1068 C1064 1.399 . S
C1068 C1067 1.523 . S
H1069 C1044 0.950 . S
H1070 C1046 0.950 . S
H1071 C1047 0.949 . S
H1072 C1049 0.950 . S
H1073 C1051 0.950 . S
C1074 C1075 1.349 . S
C1074 C1076 1.327 . S
C1074 H1099 0.950 . S
C1075 C1074 1.349 . S
C1075 C1091 1.349 . S
C1076 C1074 1.327 . S
C1076 C1095 1.429 . S
C1076 H1100 0.950 . S
C1077 C1094 1.574 . S
C1077 C1096 1.368 . S
C1077 H1101 0.949 . S
H1078 C1082 0.949 . S
C1079 C1080 1.349 . S
C1079 C1081 1.327 . S
C1079 H1102 0.950 . S
C1080 C1079 1.349 . S
C1080 C1092 1.349 . S
C1081 C1079 1.327 . S
C1081 C1097 1.429 . S
C1081 H1103 0.950 . S
C1082 H1078 0.949 . S
C1082 C1090 1.574 1_655 S
C1082 C1098 1.368 . S
H1083 C1091 0.950 . S
H1084 C1089 0.950 . S
H1085 C1090 0.949 1_655 S
H1086 C1092 0.950 . S
H1087 C1093 0.950 . S
H1088 C1094 0.949 . S
C1089 H1084 0.950 . S
C1089 C1091 1.327 . S
C1089 C1095 1.429 . S
C1090 C1082 1.574 1_455 S
C1090 H1085 0.949 1_455 S
C1090 C1096 1.368 . S
C1091 C1075 1.349 . S
C1091 H1083 0.950 . S
C1091 C1089 1.327 . S
C1092 C1080 1.349 . S
C1092 H1086 0.950 . S
C1092 C1093 1.327 . S
C1093 H1087 0.950 . S
C1093 C1092 1.327 . S
C1093 C1097 1.429 . S
C1094 C1077 1.574 . S
C1094 H1088 0.949 . S
C1094 C1098 1.368 1_455 S
C1095 C1076 1.429 . S
C1095 C1089 1.429 . S
C1095 C1096 1.523 . S
C1096 C1077 1.368 . S
C1096 C1090 1.368 . S
C1096 C1095 1.523 . S
C1097 C1081 1.429 . S
C1097 C1093 1.429 . S
C1097 C1098 1.523 . S
C1098 C1082 1.368 . S
C1098 C1094 1.368 1_655 S
C1098 C1097 1.523 . S
H1099 C1074 0.950 . S
H1100 C1076 0.950 . S
H1101 C1077 0.949 . S
H1102 C1079 0.950 . S
H1103 C1081 0.950 . S
C1104 C1105 1.349 . S
C1104 C1106 1.327 . S
C1104 H1129 0.950 . S
C1105 C1104 1.349 . S
C1105 C1121 1.349 . S
C1106 C1104 1.327 . S
C1106 C1125 1.429 . S
C1106 H1130 0.950 . S
C1107 C1124 1.574 . S
C1107 C1126 1.368 . S
C1107 H1131 0.949 . S
H1108 C1112 0.949 . S
C1109 C1110 1.349 . S
C1109 C1111 1.327 . S
C1109 H1132 0.950 . S
C1110 C1109 1.349 . S
C1110 C1122 1.349 . S
C1111 C1109 1.327 . S
C1111 C1127 1.429 . S
C1111 H1133 0.950 . S
C1112 H1108 0.949 . S
C1112 C1120 1.574 . S
C1112 C1128 1.368 . S
H1113 C1121 0.950 . S
H1114 C1119 0.950 . S
H1115 C1120 0.949 . S
H1116 C1122 0.950 . S
H1117 C1123 0.950 . S
H1118 C1124 0.949 . S
C1119 H1114 0.950 . S
C1119 C1121 1.327 . S
C1119 C1125 1.429 . S
C1120 C1112 1.574 . S
C1120 H1115 0.949 . S
C1120 C1126 1.368 . S
C1121 C1105 1.349 . S
C1121 H1113 0.950 . S
C1121 C1119 1.327 . S
C1122 C1110 1.349 . S
C1122 H1116 0.950 . S
C1122 C1123 1.327 . S
C1123 H1117 0.950 . S
C1123 C1122 1.327 . S
C1123 C1127 1.429 . S
C1124 C1107 1.574 . S
C1124 H1118 0.949 . S
C1124 C1128 1.368 . S
C1125 C1106 1.429 . S
C1125 C1119 1.429 . S
C1125 C1126 1.523 . S
C1126 C1107 1.368 . S
C1126 C1120 1.368 . S
C1126 C1125 1.523 . S
C1127 C1111 1.429 . S
C1127 C1123 1.429 . S
C1127 C1128 1.523 . S
C1128 C1112 1.368 . S
C1128 C1124 1.368 . S
C1128 C1127 1.523 . S
H1129 C1104 0.950 . S
H1130 C1106 0.950 . S
H1131 C1107 0.949 . S
H1132 C1109 0.950 . S
H1133 C1111 0.950 . S
C1134 C1135 1.349 . S
C1134 C1136 1.327 . S
C1134 H1159 0.950 . S
C1135 C1134 1.349 . S
C1135 C1151 1.349 . S
C1136 C1134 1.327 . S
C1136 C1155 1.429 . S
C1136 H1160 0.950 . S
C1137 C1154 1.574 . S
C1137 C1156 1.368 1_455 S
C1137 H1161 0.949 . S
H1138 C1142 0.949 . S
C1139 C1140 1.349 . S
C1139 C1141 1.327 . S
C1139 H1162 0.950 . S
C1140 C1139 1.349 . S
C1140 C1152 1.349 . S
C1141 C1139 1.327 . S
C1141 C1157 1.429 . S
C1141 H1163 0.950 . S
C1142 H1138 0.949 . S
C1142 C1150 1.574 . S
C1142 C1158 1.368 1_655 S
H1143 C1151 0.950 . S
H1144 C1149 0.950 1_455 S
H1145 C1150 0.949 . S
H1146 C1152 0.950 . S
H1147 C1153 0.950 1_655 S
H1148 C1154 0.949 . S
C1149 H1144 0.950 1_655 S
C1149 C1151 1.327 . S
C1149 C1155 1.429 . S
C1150 C1142 1.574 . S
C1150 H1145 0.949 . S
C1150 C1156 1.368 . S
C1151 C1135 1.349 . S
C1151 H1143 0.950 . S
C1151 C1149 1.327 . S
C1152 C1140 1.349 . S
C1152 H1146 0.950 . S
C1152 C1153 1.327 . S
C1153 H1147 0.950 1_455 S
C1153 C1152 1.327 . S
C1153 C1157 1.429 . S
C1154 C1137 1.574 . S
C1154 H1148 0.949 . S
C1154 C1158 1.368 . S
C1155 C1136 1.429 . S
C1155 C1149 1.429 . S
C1155 C1156 1.523 . S
C1156 C1137 1.368 1_655 S
C1156 C1150 1.368 . S
C1156 C1155 1.523 . S
C1157 C1141 1.429 . S
C1157 C1153 1.429 . S
C1157 C1158 1.523 . S
C1158 C1142 1.368 1_455 S
C1158 C1154 1.368 . S
C1158 C1157 1.523 . S
H1159 C1134 0.950 . S
H1160 C1136 0.950 . S
H1161 C1137 0.949 . S
H1162 C1139 0.950 . S
H1163 C1141 0.950 . S
C1164 C1165 1.349 . S
C1164 C1166 1.327 . S
C1164 H1189 0.950 . S
C1165 C1164 1.349 . S
C1165 C1181 1.349 . S
C1166 C1164 1.327 . S
C1166 C1185 1.429 . S
C1166 H1190 0.950 . S
C1167 C1184 1.574 . S
C1167 C1186 1.368 . S
C1167 H1191 0.949 . S
H1168 C1172 0.949 . S
C1169 C1170 1.349 . S
C1169 C1171 1.327 . S
C1169 H1192 0.950 . S
C1170 C1169 1.349 . S
C1170 C1182 1.349 . S
C1171 C1169 1.327 . S
C1171 C1187 1.429 . S
C1171 H1193 0.950 . S
C1172 H1168 0.949 . S
C1172 C1180 1.574 . S
C1172 C1188 1.368 . S
H1173 C1181 0.950 . S
H1174 C1179 0.950 . S
H1175 C1180 0.949 . S
H1176 C1182 0.950 . S
H1177 C1183 0.950 . S
H1178 C1184 0.949 . S
C1179 H1174 0.950 . S
C1179 C1181 1.327 . S
C1179 C1185 1.429 . S
C1180 C1172 1.574 . S
C1180 H1175 0.949 . S
C1180 C1186 1.368 . S
C1181 C1165 1.349 . S
C1181 H1173 0.950 . S
C1181 C1179 1.327 . S
C1182 C1170 1.349 . S
C1182 H1176 0.950 . S
C1182 C1183 1.327 . S
C1183 H1177 0.950 . S
C1183 C1182 1.327 . S
C1183 C1187 1.429 . S
C1184 C1167 1.574 . S
C1184 H1178 0.949 . S
C1184 C1188 1.368 . S
C1185 C1166 1.429 . S
C1185 C1179 1.429 . S
C1185 C1186 1.523 . S
C1186 C1167 1.368 . S
C1186 C1180 1.368 . S
C1186 C1185 1.523 . S
C1187 C1171 1.429 . S
C1187 C1183 1.429 . S
C1187 C1188 1.523 . S
C1188 C1172 1.368 . S
C1188 C1184 1.368 . S
C1188 C1187 1.523 . S
H1189 C1164 0.950 . S
H1190 C1166 0.950 . S
H1191 C1167 0.949 . S
H1192 C1169 0.950 . S
H1193 C1171 0.950 . S
C1194 C1195 1.349 . S
C1194 C1196 1.327 . S
C1194 H1219 0.950 . S
C1195 C1194 1.349 . S
C1195 C1211 1.349 . S
C1196 C1194 1.327 . S
C1196 C1215 1.429 . S
C1196 H1220 0.950 . S
C1197 C1214 1.574 . S
C1197 C1216 1.368 . S
C1197 H1221 0.949 . S
H1198 C1202 0.949 . S
C1199 C1200 1.349 . S
C1199 C1201 1.327 . S
C1199 H1222 0.950 . S
C1200 C1199 1.349 . S
C1200 C1212 1.349 . S
C1201 C1199 1.327 . S
C1201 C1217 1.429 . S
C1201 H1223 0.950 1_565 S
C1202 H1198 0.949 . S
C1202 C1210 1.574 . S
C1202 C1218 1.368 . S
H1203 C1211 0.950 . S
H1204 C1209 0.950 . S
H1205 C1210 0.949 . S
H1206 C1212 0.950 . S
H1207 C1213 0.950 . S
H1208 C1214 0.949 . S
C1209 H1204 0.950 . S
C1209 C1211 1.327 . S
C1209 C1215 1.429 . S
C1210 C1202 1.574 . S
C1210 H1205 0.949 . S
C1210 C1216 1.368 1_565 S
C1211 C1195 1.349 . S
C1211 H1203 0.950 . S
C1211 C1209 1.327 . S
C1212 C1200 1.349 . S
C1212 H1206 0.950 . S
C1212 C1213 1.327 . S
C1213 H1207 0.950 . S
C1213 C1212 1.327 . S
C1213 C1217 1.429 . S
C1214 C1197 1.574 . S
C1214 H1208 0.949 . S
C1214 C1218 1.368 1_545 S
C1215 C1196 1.429 . S
C1215 C1209 1.429 . S
C1215 C1216 1.523 . S
C1216 C1197 1.368 . S
C1216 C1210 1.368 1_545 S
C1216 C1215 1.523 . S
C1217 C1201 1.429 . S
C1217 C1213 1.429 . S
C1217 C1218 1.523 . S
C1218 C1202 1.368 . S
C1218 C1214 1.368 1_565 S
C1218 C1217 1.523 . S
H1219 C1194 0.950 . S
H1220 C1196 0.950 . S
H1221 C1197 0.949 . S
H1222 C1199 0.950 . S
H1223 C1201 0.950 1_545 S
C1224 C1225 1.349 . S
C1224 C1226 1.327 . S
C1224 H1249 0.950 . S
C1225 C1224 1.349 . S
C1225 C1241 1.349 . S
C1226 C1224 1.327 . S
C1226 C1245 1.429 . S
C1226 H1250 0.950 1_565 S
C1227 C1244 1.574 . S
C1227 C1246 1.368 . S
C1227 H1251 0.949 . S
H1228 C1232 0.949 . S
C1229 C1230 1.349 . S
C1229 C1231 1.327 . S
C1229 H1252 0.950 . S
C1230 C1229 1.349 . S
C1230 C1242 1.349 . S
C1231 C1229 1.327 . S
C1231 C1247 1.429 . S
C1231 H1253 0.950 1_545 S
C1232 H1228 0.949 . S
C1232 C1240 1.574 . S
C1232 C1248 1.368 . S
H1233 C1241 0.950 . S
H1234 C1239 0.950 . S
H1235 C1240 0.949 . S
H1236 C1242 0.950 . S
H1237 C1243 0.950 . S
H1238 C1244 0.949 . S
C1239 H1234 0.950 . S
C1239 C1241 1.327 . S
C1239 C1245 1.429 . S
C1240 C1232 1.574 . S
C1240 H1235 0.949 . S
C1240 C1246 1.368 1_545 S
C1241 C1225 1.349 . S
C1241 H1233 0.950 . S
C1241 C1239 1.327 . S
C1242 C1230 1.349 . S
C1242 H1236 0.950 . S
C1242 C1243 1.327 . S
C1243 H1237 0.950 . S
C1243 C1242 1.327 . S
C1243 C1247 1.429 . S
C1244 C1227 1.574 . S
C1244 H1238 0.949 . S
C1244 C1248 1.368 1_565 S
C1245 C1226 1.429 . S
C1245 C1239 1.429 . S
C1245 C1246 1.523 . S
C1246 C1227 1.368 . S
C1246 C1240 1.368 1_565 S
C1246 C1245 1.523 . S
C1247 C1231 1.429 . S
C1247 C1243 1.429 . S
C1247 C1248 1.523 . S
C1248 C1232 1.368 . S
C1248 C1244 1.368 1_545 S
C1248 C1247 1.523 . S
H1249 C1224 0.950 . S
H1250 C1226 0.950 1_545 S
H1251 C1227 0.949 . S
H1252 C1229 0.950 . S
H1253 C1231 0.950 1_565 S
C1254 C1255 1.349 . S
C1254 C1256 1.327 . S
C1254 H1279 0.950 . S
C1255 C1254 1.349 . S
C1255 C1271 1.349 . S
C1256 C1254 1.327 . S
C1256 C1275 1.429 . S
C1256 H1280 0.950 . S
C1257 C1274 1.574 . S
C1257 C1276 1.368 1_455 S
C1257 H1281 0.949 . S
H1258 C1262 0.949 . S
C1259 C1260 1.349 . S
C1259 C1261 1.327 . S
C1259 H1282 0.950 . S
C1260 C1259 1.349 . S
C1260 C1272 1.349 . S
C1261 C1259 1.327 . S
C1261 C1277 1.429 . S
C1261 H1283 0.950 . S
C1262 H1258 0.949 . S
C1262 C1270 1.574 . S
C1262 C1278 1.368 1_655 S
H1263 C1271 0.950 . S
H1264 C1269 0.970 . S
H1265 C1270 0.949 . S
H1266 C1272 0.950 . S
H1267 C1273 0.950 1_655 S
H1268 C1274 0.949 . S
C1269 H1264 0.970 . S
C1269 C1271 1.327 . S
C1269 C1275 1.429 . S
C1270 C1262 1.574 . S
C1270 H1265 0.949 . S
C1270 C1276 1.368 . S
C1271 C1255 1.349 . S
C1271 H1263 0.950 . S
C1271 C1269 1.327 . S
C1272 C1260 1.349 . S
C1272 H1266 0.950 . S
C1272 C1273 1.327 . S
C1273 H1267 0.950 1_455 S
C1273 C1272 1.327 . S
C1273 C1277 1.429 . S
C1274 C1257 1.574 . S
C1274 H1268 0.949 . S
C1274 C1278 1.368 . S
C1275 C1256 1.429 . S
C1275 C1269 1.429 . S
C1275 C1276 1.523 . S
C1276 C1257 1.368 1_655 S
C1276 C1270 1.368 . S
C1276 C1275 1.523 . S
C1277 C1261 1.429 . S
C1277 C1273 1.429 . S
C1277 C1278 1.523 . S
C1278 C1262 1.368 1_455 S
C1278 C1274 1.368 . S
C1278 C1277 1.523 . S
H1279 C1254 0.950 . S
H1280 C1256 0.950 . S
H1281 C1257 0.949 . S
H1282 C1259 0.950 . S
H1283 C1261 0.950 . S
C1284 C1285 1.349 . S
C1284 C1286 1.327 . S
C1284 H1309 0.950 . S
C1285 C1284 1.349 . S
C1285 C1301 1.349 . S
C1286 C1284 1.327 . S
C1286 C1305 1.429 . S
C1286 H1310 0.950 . S
C1287 C1304 1.574 . S
C1287 C1306 1.368 . S
C1287 H1311 0.949 . S
H1288 C1292 0.949 . S
C1289 C1290 1.349 . S
C1289 C1291 1.327 . S
C1289 H1312 0.950 . S
C1290 C1289 1.349 . S
C1290 C1302 1.349 . S
C1291 C1289 1.327 . S
C1291 C1307 1.429 . S
C1291 H1313 0.950 . S
C1292 H1288 0.949 . S
C1292 C1300 1.574 . S
C1292 C1308 1.368 . S
H1293 C1301 0.950 . S
H1294 C1299 0.950 . S
H1295 C1300 0.949 . S
H1296 C1302 0.950 . S
H1297 C1303 0.950 . S
H1298 C1304 0.949 . S
C1299 H1294 0.950 . S
C1299 C1301 1.327 . S
C1299 C1305 1.429 . S
C1300 C1292 1.574 . S
C1300 H1295 0.949 . S
C1300 C1306 1.368 . S
C1301 C1285 1.349 . S
C1301 H1293 0.950 . S
C1301 C1299 1.327 . S
C1302 C1290 1.349 . S
C1302 H1296 0.950 . S
C1302 C1303 1.327 . S
C1303 H1297 0.950 . S
C1303 C1302 1.327 . S
C1303 C1307 1.429 . S
C1304 C1287 1.574 . S
C1304 H1298 0.949 . S
C1304 C1308 1.368 . S
C1305 C1286 1.429 . S
C1305 C1299 1.429 . S
C1305 C1306 1.523 . S
C1306 C1287 1.368 . S
C1306 C1300 1.368 . S
C1306 C1305 1.523 . S
C1307 C1291 1.429 . S
C1307 C1303 1.429 . S
C1307 C1308 1.523 . S
C1308 C1292 1.368 . S
C1308 C1304 1.368 . S
C1308 C1307 1.523 . S
H1309 C1284 0.950 . S
H1310 C1286 0.950 . S
H1311 C1287 0.949 . S
H1312 C1289 0.950 . S
H1313 C1291 0.950 . S
C1314 C1315 1.349 . S
C1314 C1316 1.327 . S
C1314 H1339 0.950 . S
C1315 C1314 1.349 . S
C1315 C1331 1.349 . S
C1316 C1314 1.327 . S
C1316 C1335 1.429 . S
C1316 H1340 0.950 . S
C1317 C1334 1.574 . S
C1317 C1336 1.368 1_455 S
C1317 H1341 0.949 . S
H1318 C1322 0.949 . S
C1319 C1320 1.349 . S
C1319 C1321 1.327 . S
C1319 H1342 0.950 . S
C1320 C1319 1.349 . S
C1320 C1332 1.349 . S
C1321 C1319 1.327 . S
C1321 C1337 1.429 . S
C1321 H1343 0.950 . S
C1322 H1318 0.949 . S
C1322 C1330 1.574 . S
C1322 C1338 1.368 1_655 S
H1323 C1331 0.950 . S
H1324 C1329 0.950 1_455 S
H1325 C1330 0.949 . S
H1326 C1332 0.950 . S
H1327 C1333 0.950 1_655 S
H1328 C1334 0.949 . S
C1329 H1324 0.950 1_655 S
C1329 C1331 1.327 . S
C1329 C1335 1.429 . S
C1330 C1322 1.574 . S
C1330 H1325 0.949 . S
C1330 C1336 1.368 . S
C1331 C1315 1.349 . S
C1331 H1323 0.950 . S
C1331 C1329 1.327 . S
C1332 C1320 1.349 . S
C1332 H1326 0.950 . S
C1332 C1333 1.327 . S
C1333 H1327 0.950 1_455 S
C1333 C1332 1.327 . S
C1333 C1337 1.429 . S
C1334 C1317 1.574 . S
C1334 H1328 0.949 . S
C1334 C1338 1.368 . S
C1335 C1316 1.429 . S
C1335 C1329 1.429 . S
C1335 C1336 1.523 . S
C1336 C1317 1.368 1_655 S
C1336 C1330 1.368 . S
C1336 C1335 1.523 . S
C1337 C1321 1.429 . S
C1337 C1333 1.429 . S
C1337 C1338 1.523 . S
C1338 C1322 1.368 1_455 S
C1338 C1334 1.368 . S
C1338 C1337 1.523 . S
H1339 C1314 0.950 . S
H1340 C1316 0.950 . S
H1341 C1317 0.949 . S
H1342 C1319 0.950 . S
H1343 C1321 0.950 . S
C1344 C1345 1.349 . S
C1344 C1346 1.327 . S
C1344 H1369 0.950 . S
C1345 C1344 1.349 . S
C1345 C1361 1.349 . S
C1346 C1344 1.327 . S
C1346 C1365 1.429 . S
C1346 H1370 0.950 . S
C1347 C1364 1.574 . S
C1347 C1366 1.368 . S
C1347 H1371 0.949 . S
H1348 C1352 0.949 . S
C1349 C1350 1.349 . S
C1349 C1351 1.327 . S
C1349 H1372 0.950 . S
C1350 C1349 1.349 . S
C1350 C1362 1.349 . S
C1351 C1349 1.327 . S
C1351 C1367 1.429 . S
C1351 H1373 0.950 . S
C1352 H1348 0.949 . S
C1352 C1360 1.574 . S
C1352 C1368 1.368 . S
H1353 C1361 0.950 . S
H1354 C1359 0.950 . S
H1355 C1360 0.949 . S
H1356 C1362 0.950 . S
H1357 C1363 0.950 . S
H1358 C1364 0.949 . S
C1359 H1354 0.950 . S
C1359 C1361 1.327 . S
C1359 C1365 1.429 . S
C1360 C1352 1.574 . S
C1360 H1355 0.949 . S
C1360 C1366 1.368 . S
C1361 C1345 1.349 . S
C1361 H1353 0.950 . S
C1361 C1359 1.327 . S
C1362 C1350 1.349 . S
C1362 H1356 0.950 . S
C1362 C1363 1.327 . S
C1363 H1357 0.950 . S
C1363 C1362 1.327 . S
C1363 C1367 1.429 . S
C1364 C1347 1.574 . S
C1364 H1358 0.949 . S
C1364 C1368 1.368 . S
C1365 C1346 1.429 . S
C1365 C1359 1.429 . S
C1365 C1366 1.523 . S
C1366 C1347 1.368 . S
C1366 C1360 1.368 . S
C1366 C1365 1.523 . S
C1367 C1351 1.429 . S
C1367 C1363 1.429 . S
C1367 C1368 1.523 . S
C1368 C1352 1.368 . S
C1368 C1364 1.368 . S
C1368 C1367 1.523 . S
H1369 C1344 0.950 . S
H1370 C1346 0.950 . S
H1371 C1347 0.949 . S
H1372 C1349 0.950 . S
H1373 C1351 0.950 . S
C1374 C1375 1.349 . S
C1374 C1376 1.327 . S
C1374 H1399 0.950 . S
C1375 C1374 1.349 . S
C1375 C1391 1.349 . S
C1376 C1374 1.327 . S
C1376 C1395 1.429 . S
C1376 H1400 0.950 . S
C1377 C1394 1.574 1_545 S
C1377 C1396 1.368 . S
C1377 H1401 0.949 . S
H1378 C1382 0.949 . S
C1379 C1380 1.349 . S
C1379 C1381 1.327 . S
C1379 H1402 0.950 . S
C1380 C1379 1.349 . S
C1380 C1392 1.349 . S
C1381 C1379 1.327 . S
C1381 C1397 1.429 . S
C1381 H1403 0.950 . S
C1382 H1378 0.949 . S
C1382 C1390 1.574 . S
C1382 C1398 1.368 . S
H1383 C1391 0.950 . S
H1384 C1389 0.950 . S
H1385 C1390 0.947 1_545 S
H1386 C1392 0.950 . S
H1387 C1393 0.950 . S
H1388 C1394 0.949 . S
C1389 H1384 0.950 . S
C1389 C1391 1.327 . S
C1389 C1395 1.429 . S
C1390 C1382 1.574 . S
C1390 H1385 0.947 1_565 S
C1390 C1396 1.368 1_565 S
C1391 C1375 1.349 . S
C1391 H1383 0.950 . S
C1391 C1389 1.327 . S
C1392 C1380 1.349 . S
C1392 H1386 0.950 . S
C1392 C1393 1.327 . S
C1393 H1387 0.950 . S
C1393 C1392 1.327 . S
C1393 C1397 1.429 . S
C1394 C1377 1.574 1_565 S
C1394 H1388 0.949 . S
C1394 C1398 1.368 . S
C1395 C1376 1.429 . S
C1395 C1389 1.429 . S
C1395 C1396 1.523 . S
C1396 C1377 1.368 . S
C1396 C1390 1.368 1_545 S
C1396 C1395 1.523 . S
C1397 C1381 1.429 . S
C1397 C1393 1.429 . S
C1397 C1398 1.523 . S
C1398 C1382 1.368 . S
C1398 C1394 1.368 . S
C1398 C1397 1.523 . S
H1399 C1374 0.950 . S
H1400 C1376 0.950 . S
H1401 C1377 0.949 . S
H1402 C1379 0.950 . S
H1403 C1381 0.950 . S
C1404 C1405 1.349 . S
C1404 C1406 1.327 . S
C1404 H1429 0.950 . S
C1405 C1404 1.349 . S
C1405 C1421 1.349 . S
C1406 C1404 1.327 . S
C1406 C1425 1.429 . S
C1406 H1430 0.950 . S
C1407 C1424 1.574 . S
C1407 C1426 1.368 . S
C1407 H1431 0.949 . S
H1408 C1412 0.949 . S
C1409 C1410 1.349 . S
C1409 C1411 1.327 . S
C1409 H1432 0.950 . S
C1410 C1409 1.349 . S
C1410 C1422 1.349 . S
C1411 C1409 1.327 . S
C1411 C1427 1.429 . S
C1411 H1433 0.950 . S
C1412 H1408 0.949 . S
C1412 C1420 1.574 . S
C1412 C1428 1.368 . S
H1413 C1421 0.950 . S
H1414 C1419 0.950 . S
H1415 C1420 0.949 . S
H1416 C1422 0.950 . S
H1417 C1423 0.950 . S
H1418 C1424 0.949 . S
C1419 H1414 0.950 . S
C1419 C1421 1.327 . S
C1419 C1425 1.429 . S
C1420 C1412 1.574 . S
C1420 H1415 0.949 . S
C1420 C1426 1.368 . S
C1421 C1405 1.349 . S
C1421 H1413 0.950 . S
C1421 C1419 1.327 . S
C1422 C1410 1.349 . S
C1422 H1416 0.950 . S
C1422 C1423 1.327 . S
C1423 H1417 0.950 . S
C1423 C1422 1.327 . S
C1423 C1427 1.429 . S
C1424 C1407 1.574 . S
C1424 H1418 0.949 . S
C1424 C1428 1.368 . S
C1425 C1406 1.429 . S
C1425 C1419 1.429 . S
C1425 C1426 1.523 . S
C1426 C1407 1.368 . S
C1426 C1420 1.368 . S
C1426 C1425 1.523 . S
C1427 C1411 1.429 . S
C1427 C1423 1.429 . S
C1427 C1428 1.523 . S
C1428 C1412 1.368 . S
C1428 C1424 1.368 . S
C1428 C1427 1.523 . S
H1429 C1404 0.950 . S
H1430 C1406 0.950 . S
H1431 C1407 0.949 . S
H1432 C1409 0.950 . S
H1433 C1411 0.950 . S
C1434 C1435 1.349 . S
C1434 C1436 1.327 . S
C1434 H1459 0.950 . S
C1435 C1434 1.349 . S
C1435 C1451 1.349 . S
C1436 C1434 1.327 . S
C1436 C1455 1.429 . S
C1436 H1460 0.950 . S
C1437 C1454 1.552 1_545 S
C1437 C1456 1.396 . S
C1437 H1461 0.944 . S
H1438 C1442 0.944 . S
C1439 C1440 1.349 . S
C1439 C1441 1.327 . S
C1439 H1462 0.950 . S
C1440 C1439 1.349 . S
C1440 C1452 1.349 . S
C1441 C1439 1.327 . S
C1441 C1457 1.429 . S
C1441 H1463 0.950 . S
C1442 H1438 0.944 . S
C1442 C1450 1.553 1_565 S
C1442 C1458 1.396 . S
H1443 C1451 0.950 . S
H1444 C1449 0.950 . S
H1445 C1450 0.949 . S
H1446 C1452 0.950 . S
H1447 C1453 0.950 . S
H1448 C1454 0.949 . S
C1449 H1444 0.950 . S
C1449 C1451 1.327 . S
C1449 C1455 1.429 . S
C1450 C1442 1.553 1_545 S
C1450 H1445 0.949 . S
C1450 C1456 1.368 . S
C1451 C1435 1.349 . S
C1451 H1443 0.950 . S
C1451 C1449 1.327 . S
C1452 C1440 1.349 . S
C1452 H1446 0.950 . S
C1452 C1453 1.327 . S
C1453 H1447 0.950 . S
C1453 C1452 1.327 . S
C1453 C1457 1.429 . S
C1454 C1437 1.552 1_565 S
C1454 H1448 0.949 . S
C1454 C1458 1.368 . S
C1455 C1436 1.429 . S
C1455 C1449 1.429 . S
C1455 C1456 1.523 . S
C1456 C1437 1.396 . S
C1456 C1450 1.368 . S
C1456 C1455 1.523 . S
C1457 C1441 1.429 . S
C1457 C1453 1.429 . S
C1457 C1458 1.523 . S
C1458 C1442 1.396 . S
C1458 C1454 1.368 . S
C1458 C1457 1.523 . S
H1459 C1434 0.950 . S
H1460 C1436 0.950 . S
H1461 C1437 0.944 . S
H1462 C1439 0.950 . S
H1463 C1441 0.950 . S
C1464 C1465 1.349 . S
C1464 C1466 1.327 . S
C1464 H1489 0.950 . S
C1465 C1464 1.349 . S
C1465 C1481 1.349 . S
C1466 C1464 1.327 . S
C1466 C1485 1.429 . S
C1466 H1490 0.950 . S
C1467 C1484 1.574 1_655 S
C1467 C1486 1.368 . S
C1467 H1491 0.949 . S
H1468 C1472 0.949 . S
C1469 C1470 1.349 . S
C1469 C1471 1.327 . S
C1469 H1492 0.950 . S
C1470 C1469 1.349 . S
C1470 C1482 1.349 . S
C1471 C1469 1.327 . S
C1471 C1487 1.429 . S
C1471 H1493 0.950 . S
C1472 H1468 0.949 . S
C1472 C1480 1.574 1_455 S
C1472 C1488 1.368 . S
H1473 C1481 0.950 . S
H1474 C1479 0.950 . S
H1475 C1480 0.949 . S
H1476 C1482 0.950 . S
H1477 C1483 0.950 . S
H1478 C1484 0.949 . S
C1479 H1474 0.950 . S
C1479 C1481 1.327 . S
C1479 C1485 1.429 . S
C1480 C1472 1.574 1_655 S
C1480 H1475 0.949 . S
C1480 C1486 1.368 . S
C1481 C1465 1.349 . S
C1481 H1473 0.950 . S
C1481 C1479 1.327 . S
C1482 C1470 1.349 . S
C1482 H1476 0.950 . S
C1482 C1483 1.327 . S
C1483 H1477 0.950 . S
C1483 C1482 1.327 . S
C1483 C1487 1.429 . S
C1484 C1467 1.574 1_455 S
C1484 H1478 0.949 . S
C1484 C1488 1.368 . S
C1485 C1466 1.429 . S
C1485 C1479 1.429 . S
C1485 C1486 1.523 . S
C1486 C1467 1.368 . S
C1486 C1480 1.368 . S
C1486 C1485 1.523 . S
C1487 C1471 1.429 . S
C1487 C1483 1.429 . S
C1487 C1488 1.523 . S
C1488 C1472 1.368 . S
C1488 C1484 1.368 . S
C1488 C1487 1.523 . S
H1489 C1464 0.950 . S
H1490 C1466 0.950 . S
H1491 C1467 0.949 . S
H1492 C1469 0.950 . S
H1493 C1471 0.950 . S
C1494 C1495 1.349 . S
C1494 C1496 1.327 . S
C1494 H1519 0.950 . S
C1495 C1494 1.349 . S
C1495 C1511 1.349 . S
C1496 C1494 1.327 . S
C1496 C1515 1.429 . S
C1496 H1520 0.950 . S
C1497 C1514 1.574 . S
C1497 C1516 1.368 . S
C1497 H1521 0.949 . S
H1498 C1502 0.949 . S
C1499 C1500 1.349 . S
C1499 C1501 1.327 . S
C1499 H1522 0.950 . S
C1500 C1499 1.349 . S
C1500 C1512 1.349 . S
C1501 C1499 1.327 . S
C1501 C1517 1.429 . S
C1501 H1523 0.950 . S
C1502 H1498 0.949 . S
C1502 C1510 1.574 . S
C1502 C1518 1.368 . S
H1503 C1511 0.950 . S
H1504 C1509 0.950 . S
H1505 C1510 0.949 . S
H1506 C1512 0.950 . S
H1507 C1513 0.950 . S
H1508 C1514 0.949 . S
C1509 H1504 0.950 . S
C1509 C1511 1.327 . S
C1509 C1515 1.429 . S
C1510 C1502 1.574 . S
C1510 H1505 0.949 . S
C1510 C1516 1.368 . S
C1511 C1495 1.349 . S
C1511 H1503 0.950 . S
C1511 C1509 1.327 . S
C1512 C1500 1.349 . S
C1512 H1506 0.950 . S
C1512 C1513 1.327 . S
C1513 H1507 0.950 . S
C1513 C1512 1.327 . S
C1513 C1517 1.429 . S
C1514 C1497 1.574 . S
C1514 H1508 0.949 . S
C1514 C1518 1.368 . S
C1515 C1496 1.429 . S
C1515 C1509 1.429 . S
C1515 C1516 1.523 . S
C1516 C1497 1.368 . S
C1516 C1510 1.368 . S
C1516 C1515 1.523 . S
C1517 C1501 1.429 . S
C1517 C1513 1.429 . S
C1517 C1518 1.523 . S
C1518 C1502 1.368 . S
C1518 C1514 1.368 . S
C1518 C1517 1.523 . S
H1519 C1494 0.950 . S
H1520 C1496 0.950 . S
H1521 C1497 0.949 . S
H1522 C1499 0.950 . S
H1523 C1501 0.950 . S
C1524 C1525 1.349 . S
C1524 C1526 1.327 . S
C1524 H1549 0.950 . S
C1525 C1524 1.349 . S
C1525 C1541 1.349 . S
C1526 C1524 1.327 . S
C1526 C1545 1.429 . S
C1526 H1550 0.950 . S
C1527 C1544 1.574 . S
C1527 C1546 1.368 . S
C1527 H1551 0.949 . S
H1528 C1532 0.949 . S
C1529 C1530 1.349 . S
C1529 C1531 1.327 . S
C1529 H1552 0.950 . S
C1530 C1529 1.349 . S
C1530 C1542 1.349 . S
C1531 C1529 1.327 . S
C1531 C1547 1.429 . S
C1531 H1553 0.950 . S
C1532 H1528 0.949 . S
C1532 C1540 1.574 . S
C1532 C1548 1.368 . S
H1533 C1541 0.950 . S
H1534 C1539 0.950 . S
H1535 C1540 0.949 . S
H1536 C1542 0.950 . S
H1537 C1543 0.950 . S
H1538 C1544 0.949 . S
C1539 H1534 0.950 . S
C1539 C1541 1.327 . S
C1539 C1545 1.429 . S
C1540 C1532 1.574 . S
C1540 H1535 0.949 . S
C1540 C1546 1.368 1_545 S
C1541 C1525 1.349 . S
C1541 H1533 0.950 . S
C1541 C1539 1.327 . S
C1542 C1530 1.349 . S
C1542 H1536 0.950 . S
C1542 C1543 1.327 . S
C1543 H1537 0.950 . S
C1543 C1542 1.327 . S
C1543 C1547 1.429 . S
C1544 C1527 1.574 . S
C1544 H1538 0.949 . S
C1544 C1548 1.368 1_565 S
C1545 C1526 1.429 . S
C1545 C1539 1.429 . S
C1545 C1546 1.523 . S
C1546 C1527 1.368 . S
C1546 C1540 1.368 1_565 S
C1546 C1545 1.523 . S
C1547 C1531 1.429 . S
C1547 C1543 1.429 . S
C1547 C1548 1.523 . S
C1548 C1532 1.368 . S
C1548 C1544 1.368 1_545 S
C1548 C1547 1.523 . S
H1549 C1524 0.950 . S
H1550 C1526 0.950 . S
H1551 C1527 0.949 . S
H1552 C1529 0.950 . S
H1553 C1531 0.950 . S
C1554 C1555 1.349 . S
C1554 C1556 1.327 . S
C1554 H1579 0.950 . S
C1555 C1554 1.349 . S
C1555 C1571 1.349 . S
C1556 C1554 1.327 . S
C1556 C1575 1.429 . S
C1556 H1580 0.950 . S
C1557 C1574 1.574 1_655 S
C1557 C1576 1.368 . S
C1557 H1581 0.949 . S
H1558 C1562 0.949 . S
C1559 C1560 1.349 . S
C1559 C1561 1.327 . S
C1559 H1582 0.950 . S
C1560 C1559 1.349 . S
C1560 C1572 1.349 . S
C1561 C1559 1.327 . S
C1561 C1577 1.429 . S
C1561 H1583 0.950 . S
C1562 H1558 0.949 . S
C1562 C1570 1.574 1_455 S
C1562 C1578 1.368 . S
H1563 C1571 0.950 . S
H1564 C1569 0.950 . S
H1565 C1570 0.949 . S
H1566 C1572 0.950 . S
H1567 C1573 0.950 . S
H1568 C1574 0.949 . S
C1569 H1564 0.950 . S
C1569 C1571 1.327 . S
C1569 C1575 1.429 . S
C1570 C1562 1.574 1_655 S
C1570 H1565 0.949 . S
C1570 C1576 1.368 . S
C1571 C1555 1.349 . S
C1571 H1563 0.950 . S
C1571 C1569 1.327 . S
C1572 C1560 1.349 . S
C1572 H1566 0.950 . S
C1572 C1573 1.327 . S
C1573 H1567 0.950 . S
C1573 C1572 1.327 . S
C1573 C1577 1.429 . S
C1574 C1557 1.574 1_455 S
C1574 H1568 0.949 . S
C1574 C1578 1.368 . S
C1575 C1556 1.429 . S
C1575 C1569 1.429 . S
C1575 C1576 1.523 . S
C1576 C1557 1.368 . S
C1576 C1570 1.368 . S
C1576 C1575 1.523 . S
C1577 C1561 1.429 . S
C1577 C1573 1.429 . S
C1577 C1578 1.523 . S
C1578 C1562 1.368 . S
C1578 C1574 1.368 . S
C1578 C1577 1.523 . S
H1579 C1554 0.950 . S
H1580 C1556 0.950 . S
H1581 C1557 0.949 . S
H1582 C1559 0.950 . S
H1583 C1561 0.950 . S
C1584 C1585 1.349 . S
C1584 C1586 1.327 . S
C1584 H1609 0.950 . S
C1585 C1584 1.349 . S
C1585 C1601 1.349 . S
C1586 C1584 1.327 . S
C1586 C1605 1.429 . S
C1586 H1610 0.950 . S
C1587 C1604 1.574 . S
C1587 C1606 1.368 . S
C1587 H1611 0.949 . S
H1588 C1592 0.949 . S
C1589 C1590 1.349 . S
C1589 C1591 1.327 . S
C1589 H1612 0.950 . S
C1590 C1589 1.349 . S
C1590 C1602 1.349 . S
C1591 C1589 1.327 . S
C1591 C1607 1.429 . S
C1591 H1613 0.950 . S
C1592 H1588 0.949 . S
C1592 C1600 1.574 . S
C1592 C1608 1.368 . S
H1593 C1601 0.950 1_655 S
H1594 C1599 0.950 . S
H1595 C1600 0.949 . S
H1596 C1602 0.950 . S
H1597 C1603 0.950 . S
H1598 C1604 0.949 . S
C1599 H1594 0.950 . S
C1599 C1601 1.327 . S
C1599 C1605 1.429 . S
C1600 C1592 1.574 . S
C1600 H1595 0.949 . S
C1600 C1606 1.368 . S
C1601 C1585 1.349 . S
C1601 H1593 0.950 1_455 S
C1601 C1599 1.327 . S
C1602 C1590 1.349 . S
C1602 H1596 0.950 . S
C1602 C1603 1.327 . S
C1603 H1597 0.950 . S
C1603 C1602 1.327 . S
C1603 C1607 1.429 . S
C1604 C1587 1.574 . S
C1604 H1598 0.949 . S
C1604 C1608 1.368 . S
C1605 C1586 1.429 . S
C1605 C1599 1.429 . S
C1605 C1606 1.523 . S
C1606 C1587 1.368 . S
C1606 C1600 1.368 . S
C1606 C1605 1.523 . S
C1607 C1591 1.429 . S
C1607 C1603 1.429 . S
C1607 C1608 1.523 . S
C1608 C1592 1.368 . S
C1608 C1604 1.368 . S
C1608 C1607 1.523 . S
H1609 C1584 0.950 . S
H1610 C1586 0.950 . S
H1611 C1587 0.949 . S
H1612 C1589 0.950 . S
H1613 C1591 0.950 . S
C1614 C1615 1.349 . S
C1614 C1616 1.327 . S
C1614 H1639 0.950 . S
C1615 C1614 1.349 . S
C1615 C1631 1.349 . S
C1616 C1614 1.327 . S
C1616 C1635 1.429 . S
C1616 H1640 0.950 . S
C1617 C1634 1.574 . S
C1617 C1636 1.379 . S
C1617 H1641 0.949 1_565 S
H1618 C1622 0.949 . S
C1619 C1620 1.349 . S
C1619 C1621 1.327 . S
C1619 H1642 0.950 . S
C1620 C1619 1.349 . S
C1620 C1632 1.349 . S
C1621 C1619 1.327 . S
C1621 C1637 1.429 . S
C1621 H1643 0.950 . S
C1622 H1618 0.949 . S
C1622 C1630 1.574 . S
C1622 C1638 1.368 . S
H1623 C1631 0.950 . S
H1624 C1629 0.950 . S
H1625 C1630 0.949 . S
H1626 C1632 0.950 . S
H1627 C1633 0.950 . S
H1628 C1634 0.949 . S
C1629 H1624 0.950 . S
C1629 C1631 1.327 . S
C1629 C1635 1.429 . S
C1630 C1622 1.574 . S
C1630 H1625 0.949 . S
C1630 C1636 1.372 . S
C1631 C1615 1.349 . S
C1631 H1623 0.950 . S
C1631 C1629 1.327 . S
C1632 C1620 1.349 . S
C1632 H1626 0.950 . S
C1632 C1633 1.327 . S
C1633 H1627 0.950 . S
C1633 C1632 1.327 . S
C1633 C1637 1.429 . S
C1634 C1617 1.574 . S
C1634 H1628 0.949 . S
C1634 C1638 1.368 . S
C1635 C1616 1.429 . S
C1635 C1629 1.429 . S
C1635 C1636 1.505 1_545 S
C1636 C1617 1.379 . S
C1636 C1630 1.372 . S
C1636 C1635 1.505 1_565 S
C1637 C1621 1.429 . S
C1637 C1633 1.429 . S
C1637 C1638 1.523 . S
C1638 C1622 1.368 . S
C1638 C1634 1.368 . S
C1638 C1637 1.523 . S
H1639 C1614 0.950 . S
H1640 C1616 0.950 . S
H1641 C1617 0.949 1_545 S
H1642 C1619 0.950 . S
H1643 C1621 0.950 . S
C1644 C1645 1.349 . S
C1644 C1646 1.327 . S
C1644 H1669 0.950 . S
C1645 C1644 1.349 . S
C1645 C1661 1.349 . S
C1646 C1644 1.327 . S
C1646 C1665 1.429 . S
C1646 H1670 0.950 . S
C1647 C1664 1.574 . S
C1647 C1666 1.361 . S
C1647 H1671 0.949 1_455 S
H1648 C1652 0.949 . S
C1649 C1650 1.330 1_545 S
C1649 C1651 1.320 1_545 S
C1649 H1672 0.977 . S
C1650 C1649 1.330 1_565 S
C1650 C1662 1.349 . S
C1651 C1649 1.320 1_565 S
C1651 C1667 1.429 . S
C1651 H1673 0.950 . S
C1652 H1648 0.949 . S
C1652 C1660 1.574 . S
C1652 C1668 1.368 . S
H1653 C1661 0.950 . S
H1654 C1659 0.950 . S
H1655 C1660 0.949 . S
H1656 C1662 0.950 . S
H1657 C1663 0.950 . S
H1658 C1664 0.949 . S
C1659 H1654 0.950 . S
C1659 C1661 1.327 . S
C1659 C1665 1.429 . S
C1660 C1652 1.574 . S
C1660 H1655 0.949 . S
C1660 C1666 1.385 . S
C1661 C1645 1.349 . S
C1661 H1653 0.950 . S
C1661 C1659 1.327 . S
C1662 C1650 1.349 . S
C1662 H1656 0.950 . S
C1662 C1663 1.327 . S
C1663 H1657 0.950 . S
C1663 C1662 1.327 . S
C1663 C1667 1.429 . S
C1664 C1647 1.574 . S
C1664 H1658 0.949 . S
C1664 C1668 1.368 . S
C1665 C1646 1.429 . S
C1665 C1659 1.429 . S
C1665 C1666 1.511 1_655 S
C1666 C1647 1.361 . S
C1666 C1660 1.385 . S
C1666 C1665 1.511 1_455 S
C1667 C1651 1.429 . S
C1667 C1663 1.429 . S
C1667 C1668 1.523 . S
C1668 C1652 1.368 . S
C1668 C1664 1.368 . S
C1668 C1667 1.523 . S
H1669 C1644 0.950 . S
H1670 C1646 0.950 . S
H1671 C1647 0.949 1_655 S
H1672 C1649 0.977 . S
H1673 C1651 0.950 . S
C1674 C1675 1.349 . S
C1674 C1676 1.327 . S
C1674 H1699 0.950 . S
C1675 C1674 1.349 . S
C1675 C1691 1.349 . S
C1676 C1674 1.327 . S
C1676 C1695 1.429 . S
C1676 H1700 0.950 . S
C1677 C1694 1.574 . S
C1677 C1696 1.368 . S
C1677 H1701 0.949 . S
H1678 C1682 0.949 . S
C1679 C1680 1.349 . S
C1679 C1681 1.327 . S
C1679 H1702 0.950 . S
C1680 C1679 1.349 . S
C1680 C1692 1.349 . S
C1681 C1679 1.327 . S
C1681 C1697 1.429 . S
C1681 H1703 0.950 . S
C1682 H1678 0.949 . S
C1682 C1690 1.574 . S
C1682 C1698 1.368 . S
H1683 C1691 0.950 . S
H1684 C1689 0.950 . S
H1685 C1690 0.949 . S
H1686 C1692 0.950 1_565 S
H1687 C1693 0.950 . S
H1688 C1694 0.949 . S
C1689 H1684 0.950 . S
C1689 C1691 1.327 . S
C1689 C1695 1.429 . S
C1690 C1682 1.574 . S
C1690 H1685 0.949 . S
C1690 C1696 1.368 . S
C1691 C1675 1.349 . S
C1691 H1683 0.950 . S
C1691 C1689 1.327 . S
C1692 C1680 1.349 . S
C1692 H1686 0.950 1_545 S
C1692 C1693 1.327 . S
C1693 H1687 0.950 . S
C1693 C1692 1.327 . S
C1693 C1697 1.429 . S
C1694 C1677 1.574 . S
C1694 H1688 0.949 . S
C1694 C1698 1.368 . S
C1695 C1676 1.429 . S
C1695 C1689 1.429 . S
C1695 C1696 1.523 . S
C1696 C1677 1.368 . S
C1696 C1690 1.368 . S
C1696 C1695 1.523 . S
C1697 C1681 1.429 . S
C1697 C1693 1.429 . S
C1697 C1698 1.523 . S
C1698 C1682 1.368 . S
C1698 C1694 1.368 . S
C1698 C1697 1.523 . S
H1699 C1674 0.950 . S
H1700 C1676 0.950 . S
H1701 C1677 0.949 . S
H1702 C1679 0.950 . S
H1703 C1681 0.950 . S
C1704 C1705 1.349 . S
C1704 C1706 1.327 . S
C1704 H1729 0.950 . S
C1705 C1704 1.349 . S
C1705 C1721 1.349 . S
C1706 C1704 1.327 . S
C1706 C1725 1.429 . S
C1706 H1730 0.950 . S
C1707 C1724 1.574 . S
C1707 C1726 1.368 . S
C1707 H1731 0.949 . S
H1708 C1712 0.949 . S
C1709 C1710 1.349 . S
C1709 C1711 1.327 . S
C1709 H1732 0.950 . S
C1710 C1709 1.349 . S
C1710 C1722 1.349 . S
C1711 C1709 1.327 . S
C1711 C1727 1.429 . S
C1711 H1733 0.950 . S
C1712 H1708 0.949 . S
C1712 C1720 1.574 . S
C1712 C1728 1.382 . S
H1713 C1721 0.950 1_455 S
H1714 C1719 0.950 . S
H1715 C1720 0.949 . S
H1716 C1722 0.950 . S
H1717 C1723 0.950 . S
H1718 C1724 0.949 1_565 S
C1719 H1714 0.950 . S
C1719 C1721 1.327 . S
C1719 C1725 1.429 . S
C1720 C1712 1.574 . S
C1720 H1715 0.949 . S
C1720 C1726 1.368 . S
C1721 C1705 1.349 . S
C1721 H1713 0.950 1_655 S
C1721 C1719 1.327 . S
C1722 C1710 1.349 . S
C1722 H1716 0.950 . S
C1722 C1723 1.327 . S
C1723 H1717 0.950 . S
C1723 C1722 1.327 . S
C1723 C1727 1.429 . S
C1724 C1707 1.574 . S
C1724 H1718 0.949 1_545 S
C1724 C1728 1.364 . S
C1725 C1706 1.429 . S
C1725 C1719 1.429 . S
C1725 C1726 1.523 . S
C1726 C1707 1.368 . S
C1726 C1720 1.368 . S
C1726 C1725 1.523 . S
C1727 C1711 1.429 . S
C1727 C1723 1.429 . S
C1727 C1728 1.511 1_565 S
C1728 C1712 1.382 . S
C1728 C1724 1.364 . S
C1728 C1727 1.511 1_545 S
H1729 C1704 0.950 . S
H1730 C1706 0.950 . S
H1731 C1707 0.949 . S
H1732 C1709 0.950 . S
H1733 C1711 0.950 . S
C1734 C1735 1.349 . S
C1734 C1736 1.327 . S
C1734 H1759 0.950 . S
C1735 C1734 1.349 . S
C1735 C1751 1.349 . S
C1736 C1734 1.327 . S
C1736 C1755 1.429 . S
C1736 H1760 0.950 . S
C1737 C1754 1.574 . S
C1737 C1756 1.378 . S
C1737 H1761 0.949 . S
H1738 C1742 0.949 . S
C1739 C1740 1.349 . S
C1739 C1741 1.327 . S
C1739 H1762 0.950 . S
C1740 C1739 1.349 . S
C1740 C1752 1.349 . S
C1741 C1739 1.327 . S
C1741 C1757 1.429 . S
C1741 H1763 0.950 . S
C1742 H1738 0.949 . S
C1742 C1750 1.574 . S
C1742 C1758 1.368 . S
H1743 C1751 0.950 . S
H1744 C1749 0.950 . S
H1745 C1750 0.949 1_455 S
H1746 C1752 0.950 . S
H1747 C1753 0.950 . S
H1748 C1754 0.949 . S
C1749 H1744 0.950 . S
C1749 C1751 1.327 . S
C1749 C1755 1.429 . S
C1750 C1742 1.574 . S
C1750 H1745 0.949 1_655 S
C1750 C1756 1.373 . S
C1751 C1735 1.349 . S
C1751 H1743 0.950 . S
C1751 C1749 1.327 . S
C1752 C1740 1.349 . S
C1752 H1746 0.950 . S
C1752 C1753 1.327 . S
C1753 H1747 0.950 . S
C1753 C1752 1.327 . S
C1753 C1757 1.429 . S
C1754 C1737 1.574 . S
C1754 H1748 0.949 . S
C1754 C1758 1.368 . S
C1755 C1736 1.429 . S
C1755 C1749 1.429 . S
C1755 C1756 1.505 1_455 S
C1756 C1737 1.378 . S
C1756 C1750 1.373 . S
C1756 C1755 1.505 1_655 S
C1757 C1741 1.429 . S
C1757 C1753 1.429 . S
C1757 C1758 1.523 . S
C1758 C1742 1.368 . S
C1758 C1754 1.368 . S
C1758 C1757 1.523 . S
H1759 C1734 0.950 . S
H1760 C1736 0.950 . S
H1761 C1737 0.949 . S
H1762 C1739 0.950 . S
H1763 C1741 0.950 . S
C1764 C1765 1.349 . S
C1764 C1766 1.327 . S
C1764 H1789 0.950 . S
C1765 C1764 1.349 . S
C1765 C1781 1.349 . S
C1766 C1764 1.327 . S
C1766 C1785 1.429 . S
C1766 H1790 0.950 . S
C1767 C1784 1.574 . S
C1767 C1786 1.368 . S
C1767 H1791 0.949 . S
H1768 C1772 0.949 . S
C1769 C1770 1.349 . S
C1769 C1771 1.327 . S
C1769 H1792 0.950 . S
C1770 C1769 1.349 . S
C1770 C1782 1.349 . S
C1771 C1769 1.327 . S
C1771 C1787 1.429 . S
C1771 H1793 0.950 . S
C1772 H1768 0.949 . S
C1772 C1780 1.574 . S
C1772 C1788 1.368 . S
H1773 C1781 0.950 . S
H1774 C1779 0.950 . S
H1775 C1780 0.949 . S
H1776 C1782 0.950 1_455 S
H1777 C1783 0.950 . S
H1778 C1784 0.949 . S
C1779 H1774 0.950 . S
C1779 C1781 1.327 . S
C1779 C1785 1.429 . S
C1780 C1772 1.574 . S
C1780 H1775 0.949 . S
C1780 C1786 1.368 . S
C1781 C1765 1.349 . S
C1781 H1773 0.950 . S
C1781 C1779 1.327 . S
C1782 C1770 1.349 . S
C1782 H1776 0.950 1_655 S
C1782 C1783 1.327 . S
C1783 H1777 0.950 . S
C1783 C1782 1.327 . S
C1783 C1787 1.429 . S
C1784 C1767 1.574 . S
C1784 H1778 0.949 . S
C1784 C1788 1.368 . S
C1785 C1766 1.429 . S
C1785 C1779 1.429 . S
C1785 C1786 1.523 . S
C1786 C1767 1.368 . S
C1786 C1780 1.368 . S
C1786 C1785 1.523 . S
C1787 C1771 1.429 . S
C1787 C1783 1.429 . S
C1787 C1788 1.523 . S
C1788 C1772 1.368 . S
C1788 C1784 1.368 . S
C1788 C1787 1.523 . S
H1789 C1764 0.950 . S
H1790 C1766 0.950 . S
H1791 C1767 0.949 . S
H1792 C1769 0.950 . S
H1793 C1771 0.950 . S
C1794 C1795 1.349 . S
C1794 C1796 1.327 . S
C1794 H1819 0.950 . S
C1795 C1794 1.349 . S
C1795 C1811 1.349 . S
C1796 C1794 1.327 . S
C1796 C1815 1.429 . S
C1796 H1820 0.950 . S
C1797 C1814 1.574 . S
C1797 C1816 1.376 . S
C1797 H1821 0.949 1_545 S
H1798 C1802 0.949 . S
C1799 C1800 1.349 . S
C1799 C1801 1.327 . S
C1799 H1822 0.950 . S
C1800 C1799 1.349 . S
C1800 C1812 1.349 . S
C1801 C1799 1.327 . S
C1801 C1817 1.429 . S
C1801 H1823 0.950 . S
C1802 H1798 0.949 . S
C1802 C1810 1.574 . S
C1802 C1818 1.368 . S
H1803 C1811 0.950 . S
H1804 C1809 0.950 . S
H1805 C1810 0.949 . S
H1806 C1812 0.950 . S
H1807 C1813 0.950 . S
H1808 C1814 0.949 . S
C1809 H1804 0.950 . S
C1809 C1811 1.327 . S
C1809 C1815 1.429 . S
C1810 C1802 1.574 . S
C1810 H1805 0.949 . S
C1810 C1816 1.374 . S
C1811 C1795 1.349 . S
C1811 H1803 0.950 . S
C1811 C1809 1.327 . S
C1812 C1800 1.349 . S
C1812 H1806 0.950 . S
C1812 C1813 1.327 . S
C1813 H1807 0.950 . S
C1813 C1812 1.327 . S
C1813 C1817 1.429 . S
C1814 C1797 1.574 . S
C1814 H1808 0.949 . S
C1814 C1818 1.368 . S
C1815 C1796 1.429 . S
C1815 C1809 1.429 . S
C1815 C1816 1.505 1_565 S
C1816 C1797 1.376 . S
C1816 C1810 1.374 . S
C1816 C1815 1.505 1_545 S
C1817 C1801 1.429 . S
C1817 C1813 1.429 . S
C1817 C1818 1.523 . S
C1818 C1802 1.368 . S
C1818 C1814 1.368 . S
C1818 C1817 1.523 . S
H1819 C1794 0.950 . S
H1820 C1796 0.950 . S
H1821 C1797 0.949 1_565 S
H1822 C1799 0.950 . S
H1823 C1801 0.950 . S
C1824 C1825 1.349 . S
C1824 C1826 1.327 . S
C1824 H1849 0.950 . S
C1825 C1824 1.349 . S
C1825 C1841 1.349 . S
C1826 C1824 1.327 . S
C1826 C1845 1.429 . S
C1826 H1850 0.950 . S
C1827 C1844 1.574 . S
C1827 C1846 1.364 . S
C1827 H1851 0.949 1_655 S
H1828 C1832 0.949 . S
C1829 C1830 1.349 . S
C1829 C1831 1.327 . S
C1829 H1852 0.950 1_545 S
C1830 C1829 1.349 . S
C1830 C1842 1.349 . S
C1831 C1829 1.327 . S
C1831 C1847 1.429 . S
C1831 H1853 0.950 . S
C1832 H1828 0.949 . S
C1832 C1840 1.574 . S
C1832 C1848 1.368 . S
H1833 C1841 0.950 . S
H1834 C1839 0.950 . S
H1835 C1840 0.949 . S
H1836 C1842 0.950 . S
H1837 C1843 0.950 . S
H1838 C1844 0.949 . S
C1839 H1834 0.950 . S
C1839 C1841 1.327 . S
C1839 C1845 1.429 . S
C1840 C1832 1.574 . S
C1840 H1835 0.949 . S
C1840 C1846 1.382 . S
C1841 C1825 1.349 . S
C1841 H1833 0.950 . S
C1841 C1839 1.327 . S
C1842 C1830 1.349 . S
C1842 H1836 0.950 . S
C1842 C1843 1.327 . S
C1843 H1837 0.950 . S
C1843 C1842 1.327 . S
C1843 C1847 1.429 . S
C1844 C1827 1.574 . S
C1844 H1838 0.949 . S
C1844 C1848 1.368 . S
C1845 C1826 1.429 . S
C1845 C1839 1.429 . S
C1845 C1846 1.511 1_455 S
C1846 C1827 1.364 . S
C1846 C1840 1.382 . S
C1846 C1845 1.511 1_655 S
C1847 C1831 1.429 . S
C1847 C1843 1.429 . S
C1847 C1848 1.523 . S
C1848 C1832 1.368 . S
C1848 C1844 1.368 . S
C1848 C1847 1.523 . S
H1849 C1824 0.950 . S
H1850 C1826 0.950 . S
H1851 C1827 0.949 1_455 S
H1852 C1829 0.950 1_565 S
H1853 C1831 0.950 . S
C1854 C1855 1.349 . S
C1854 C1856 1.327 . S
C1854 H1879 0.950 . S
C1855 C1854 1.349 . S
C1855 C1871 1.349 . S
C1856 C1854 1.327 . S
C1856 C1875 1.429 . S
C1856 H1880 0.950 . S
C1857 C1874 1.574 . S
C1857 C1876 1.368 . S
C1857 H1881 0.949 . S
H1858 C1862 0.949 . S
C1859 C1860 1.349 . S
C1859 C1861 1.327 . S
C1859 H1882 0.950 . S
C1860 C1859 1.349 . S
C1860 C1872 1.349 . S
C1861 C1859 1.327 . S
C1861 C1877 1.429 . S
C1861 H1883 0.950 . S
C1862 H1858 0.949 . S
C1862 C1870 1.574 . S
C1862 C1878 1.368 . S
H1863 C1871 0.950 . S
H1864 C1869 0.950 . S
H1865 C1870 0.949 . S
H1866 C1872 0.950 . S
H1867 C1873 0.950 . S
H1868 C1874 0.949 . S
C1869 H1864 0.950 . S
C1869 C1871 1.327 . S
C1869 C1875 1.429 . S
C1870 C1862 1.574 . S
C1870 H1865 0.949 . S
C1870 C1876 1.368 . S
C1871 C1855 1.349 . S
C1871 H1863 0.950 . S
C1871 C1869 1.327 . S
C1872 C1860 1.349 . S
C1872 H1866 0.950 . S
C1872 C1873 1.327 . S
C1873 H1867 0.950 . S
C1873 C1872 1.327 . S
C1873 C1877 1.429 . S
C1874 C1857 1.574 . S
C1874 H1868 0.949 . S
C1874 C1878 1.368 . S
C1875 C1856 1.429 . S
C1875 C1869 1.429 . S
C1875 C1876 1.523 . S
C1876 C1857 1.368 . S
C1876 C1870 1.368 . S
C1876 C1875 1.523 . S
C1877 C1861 1.429 . S
C1877 C1873 1.429 . S
C1877 C1878 1.523 . S
C1878 C1862 1.368 . S
C1878 C1874 1.368 . S
C1878 C1877 1.523 . S
H1879 C1854 0.950 . S
H1880 C1856 0.950 . S
H1881 C1857 0.949 . S
H1882 C1859 0.950 . S
H1883 C1861 0.950 . S
C1884 C1885 1.349 . S
C1884 C1886 1.327 . S
C1884 H1909 0.950 . S
C1885 C1884 1.349 . S
C1885 C1901 1.349 . S
C1886 C1884 1.327 . S
C1886 C1905 1.429 . S
C1886 H1910 0.950 . S
C1887 C1904 1.574 . S
C1887 C1906 1.369 . S
C1887 H1911 0.949 1_565 S
H1888 C1892 0.949 . S
C1889 C1890 1.349 . S
C1889 C1891 1.327 . S
C1889 H1912 0.950 . S
C1890 C1889 1.349 . S
C1890 C1902 1.349 . S
C1891 C1889 1.327 . S
C1891 C1907 1.429 . S
C1891 H1913 0.950 . S
C1892 H1888 0.949 . S
C1892 C1900 1.574 . S
C1892 C1908 1.368 . S
H1893 C1901 0.950 . S
H1894 C1899 0.950 . S
H1895 C1900 0.949 . S
H1896 C1902 0.950 . S
H1897 C1903 0.950 . S
H1898 C1904 0.949 . S
C1899 H1894 0.950 . S
C1899 C1901 1.327 . S
C1899 C1905 1.429 . S
C1900 C1892 1.574 . S
C1900 H1895 0.949 . S
C1900 C1906 1.377 . S
C1901 C1885 1.349 . S
C1901 H1893 0.950 . S
C1901 C1899 1.327 . S
C1902 C1890 1.349 . S
C1902 H1896 0.950 . S
C1902 C1903 1.327 . S
C1903 H1897 0.950 . S
C1903 C1902 1.327 . S
C1903 C1907 1.429 . S
C1904 C1887 1.574 . S
C1904 H1898 0.949 . S
C1904 C1908 1.368 . S
C1905 C1886 1.429 . S
C1905 C1899 1.429 . S
C1905 C1906 1.511 1_545 S
C1906 C1887 1.369 . S
C1906 C1900 1.377 . S
C1906 C1905 1.511 1_565 S
C1907 C1891 1.429 . S
C1907 C1903 1.429 . S
C1907 C1908 1.523 . S
C1908 C1892 1.368 . S
C1908 C1904 1.368 . S
C1908 C1907 1.523 . S
H1909 C1884 0.950 . S
H1910 C1886 0.950 . S
H1911 C1887 0.949 1_545 S
H1912 C1889 0.950 . S
H1913 C1891 0.950 . S
C1914 C1915 1.349 . S
C1914 C1916 1.327 . S
C1914 H1939 0.950 . S
C1915 C1914 1.349 . S
C1915 C1931 1.349 . S
C1916 C1914 1.327 . S
C1916 C1935 1.429 . S
C1916 H1940 0.950 . S
C1917 C1934 1.574 . S
C1917 C1936 1.368 . S
C1917 H1941 0.949 . S
H1918 C1922 0.956 . S
C1919 C1920 1.349 . S
C1919 C1921 1.327 . S
C1919 H1942 0.950 . S
C1920 C1919 1.349 . S
C1920 C1932 1.349 . S
C1921 C1919 1.327 . S
C1921 C1937 1.429 . S
C1921 H1943 0.950 . S
C1922 H1918 0.956 . S
C1922 C1930 1.574 . S
C1922 C1938 1.372 . S
H1923 C1931 0.950 . S
H1924 C1929 0.950 . S
H1925 C1930 0.949 . S
H1926 C1932 0.950 . S
H1927 C1933 0.950 . S
H1928 C1934 0.964 . S
C1929 H1924 0.950 . S
C1929 C1931 1.327 . S
C1929 C1935 1.429 . S
C1930 C1922 1.574 . S
C1930 H1925 0.949 . S
C1930 C1936 1.368 . S
C1931 C1915 1.349 . S
C1931 H1923 0.950 . S
C1931 C1929 1.327 . S
C1932 C1920 1.349 . S
C1932 H1926 0.950 . S
C1932 C1933 1.327 . S
C1933 H1927 0.950 . S
C1933 C1932 1.327 . S
C1933 C1937 1.429 . S
C1934 C1917 1.574 . S
C1934 H1928 0.964 . S
C1934 C1938 1.379 . S
C1935 C1916 1.429 . S
C1935 C1929 1.429 . S
C1935 C1936 1.523 . S
C1936 C1917 1.368 . S
C1936 C1930 1.368 . S
C1936 C1935 1.523 . S
C1937 C1921 1.429 . S
C1937 C1933 1.429 . S
C1937 C1938 1.505 1_655 S
C1938 C1922 1.372 . S
C1938 C1934 1.379 . S
C1938 C1937 1.505 1_455 S
H1939 C1914 0.950 . S
H1940 C1916 0.950 . S
H1941 C1917 0.949 . S
H1942 C1919 0.950 . S
H1943 C1921 0.950 . S
C1944 C1945 1.349 . S
C1944 C1946 1.327 . S
C1944 H1969 0.950 . S
C1945 C1944 1.349 . S
C1945 C1961 1.349 . S
C1946 C1944 1.327 . S
C1946 C1965 1.429 . S
C1946 H1970 0.950 . S
C1947 C1964 1.574 . S
C1947 C1966 1.368 . S
C1947 H1971 0.949 . S
H1948 C1952 0.949 . S
C1949 C1950 1.349 . S
C1949 C1951 1.327 . S
C1949 H1972 0.950 . S
C1950 C1949 1.349 . S
C1950 C1962 1.349 . S
C1951 C1949 1.327 . S
C1951 C1967 1.429 . S
C1951 H1973 0.950 . S
C1952 H1948 0.949 . S
C1952 C1960 1.574 . S
C1952 C1968 1.368 . S
H1953 C1961 0.950 . S
H1954 C1959 0.950 . S
H1955 C1960 0.949 . S
H1956 C1962 0.950 . S
H1957 C1963 0.950 . S
H1958 C1964 0.949 . S
C1959 H1954 0.950 . S
C1959 C1961 1.327 . S
C1959 C1965 1.429 . S
C1960 C1952 1.574 . S
C1960 H1955 0.949 . S
C1960 C1966 1.368 . S
C1961 C1945 1.349 . S
C1961 H1953 0.950 . S
C1961 C1959 1.327 . S
C1962 C1950 1.349 . S
C1962 H1956 0.950 . S
C1962 C1963 1.327 . S
C1963 H1957 0.950 . S
C1963 C1962 1.327 . S
C1963 C1967 1.429 . S
C1964 C1947 1.574 . S
C1964 H1958 0.949 . S
C1964 C1968 1.368 . S
C1965 C1946 1.429 . S
C1965 C1959 1.429 . S
C1965 C1966 1.523 . S
C1966 C1947 1.368 . S
C1966 C1960 1.368 . S
C1966 C1965 1.523 . S
C1967 C1951 1.429 . S
C1967 C1963 1.429 . S
C1967 C1968 1.523 . S
C1968 C1952 1.368 . S
C1968 C1964 1.368 . S
C1968 C1967 1.523 . S
H1969 C1944 0.950 . S
H1970 C1946 0.950 . S
H1971 C1947 0.949 . S
H1972 C1949 0.950 . S
H1973 C1951 0.950 . S
C1974 C1975 1.349 . S
C1974 C1976 1.327 . S
C1974 H1999 0.950 . S
C1975 C1974 1.349 . S
C1975 C1991 1.349 . S
C1976 C1974 1.327 . S
C1976 C1995 1.429 . S
C1976 H2000 0.950 . S
C1977 C1994 1.574 . S
C1977 C1996 1.368 . S
C1977 H2001 0.949 . S
H1978 C1982 0.949 . S
C1979 C1980 1.349 . S
C1979 C1981 1.327 . S
C1979 H2002 0.950 . S
C1980 C1979 1.349 . S
C1980 C1992 1.349 . S
C1981 C1979 1.327 . S
C1981 C1997 1.429 . S
C1981 H2003 0.950 . S
C1982 H1978 0.949 . S
C1982 C1990 1.574 . S
C1982 C1998 1.368 . S
H1983 C1991 0.950 . S
H1984 C1989 0.950 . S
H1985 C1990 0.949 . S
H1986 C1992 0.950 . S
H1987 C1993 0.950 . S
H1988 C1994 0.949 . S
C1989 H1984 0.950 . S
C1989 C1991 1.327 . S
C1989 C1995 1.429 . S
C1990 C1982 1.574 . S
C1990 H1985 0.949 . S
C1990 C1996 1.368 . S
C1991 C1975 1.349 . S
C1991 H1983 0.950 . S
C1991 C1989 1.327 . S
C1992 C1980 1.349 . S
C1992 H1986 0.950 . S
C1992 C1993 1.327 . S
C1993 H1987 0.950 . S
C1993 C1992 1.327 . S
C1993 C1997 1.429 . S
C1994 C1977 1.574 . S
C1994 H1988 0.949 . S
C1994 C1998 1.368 . S
C1995 C1976 1.429 . S
C1995 C1989 1.429 . S
C1995 C1996 1.523 . S
C1996 C1977 1.368 . S
C1996 C1990 1.368 . S
C1996 C1995 1.523 . S
C1997 C1981 1.429 . S
C1997 C1993 1.429 . S
C1997 C1998 1.523 . S
C1998 C1982 1.368 . S
C1998 C1994 1.368 . S
C1998 C1997 1.523 . S
H1999 C1974 0.950 . S
H2000 C1976 0.950 . S
H2001 C1977 0.949 . S
H2002 C1979 0.950 . S
H2003 C1981 0.950 . S
C2004 C2005 1.349 . S
C2004 C2006 1.327 . S
C2004 H2029 0.950 . S
C2005 C2004 1.349 . S
C2005 C2021 1.349 . S
C2006 C2004 1.327 . S
C2006 C2025 1.429 . S
C2006 H2030 0.950 . S
C2007 C2024 1.574 . S
C2007 C2026 1.368 . S
C2007 H2031 0.949 . S
H2008 C2012 0.949 . S
C2009 C2010 1.349 . S
C2009 C2011 1.327 . S
C2009 H2032 0.950 . S
C2010 C2009 1.349 . S
C2010 C2022 1.349 . S
C2011 C2009 1.327 . S
C2011 C2027 1.429 . S
C2011 H2033 0.950 . S
C2012 H2008 0.949 . S
C2012 C2020 1.574 . S
C2012 C2028 1.368 . S
H2013 C2021 0.950 . S
H2014 C2019 0.950 . S
H2015 C2020 0.949 . S
H2016 C2022 0.950 . S
H2017 C2023 0.950 . S
H2018 C2024 0.949 . S
C2019 H2014 0.950 . S
C2019 C2021 1.327 . S
C2019 C2025 1.429 . S
C2020 C2012 1.574 . S
C2020 H2015 0.949 . S
C2020 C2026 1.368 . S
C2021 C2005 1.349 . S
C2021 H2013 0.950 . S
C2021 C2019 1.327 . S
C2022 C2010 1.349 . S
C2022 H2016 0.950 . S
C2022 C2023 1.327 . S
C2023 H2017 0.950 . S
C2023 C2022 1.327 . S
C2023 C2027 1.429 . S
C2024 C2007 1.574 . S
C2024 H2018 0.949 . S
C2024 C2028 1.368 . S
C2025 C2006 1.429 . S
C2025 C2019 1.429 . S
C2025 C2026 1.523 . S
C2026 C2007 1.368 . S
C2026 C2020 1.368 . S
C2026 C2025 1.523 . S
C2027 C2011 1.429 . S
C2027 C2023 1.429 . S
C2027 C2028 1.523 . S
C2028 C2012 1.368 . S
C2028 C2024 1.368 . S
C2028 C2027 1.523 . S
H2029 C2004 0.950 . S
H2030 C2006 0.950 . S
H2031 C2007 0.949 . S
H2032 C2009 0.950 . S
H2033 C2011 0.950 . S
C2034 C2035 1.349 . S
C2034 C2036 1.327 . S
C2034 H2059 0.950 . S
C2035 C2034 1.349 . S
C2035 C2051 1.349 . S
C2036 C2034 1.327 . S
C2036 C2055 1.429 . S
C2036 H2060 0.950 . S
C2037 C2054 1.574 . S
C2037 C2056 1.368 . S
C2037 H2061 0.949 . S
H2038 C2042 0.949 . S
C2039 C2040 1.349 . S
C2039 C2041 1.327 . S
C2039 H2062 0.950 . S
C2040 C2039 1.349 . S
C2040 C2052 1.349 . S
C2041 C2039 1.327 . S
C2041 C2057 1.429 . S
C2041 H2063 0.950 . S
C2042 H2038 0.949 . S
C2042 C2050 1.574 . S
C2042 C2058 1.368 . S
H2043 C2051 0.950 . S
H2044 C2049 0.950 . S
H2045 C2050 0.949 . S
H2046 C2052 0.950 . S
H2047 C2053 0.950 . S
H2048 C2054 0.949 . S
C2049 H2044 0.950 . S
C2049 C2051 1.327 . S
C2049 C2055 1.429 . S
C2050 C2042 1.574 . S
C2050 H2045 0.949 . S
C2050 C2056 1.368 . S
C2051 C2035 1.349 . S
C2051 H2043 0.950 . S
C2051 C2049 1.327 . S
C2052 C2040 1.349 . S
C2052 H2046 0.950 . S
C2052 C2053 1.327 . S
C2053 H2047 0.950 . S
C2053 C2052 1.327 . S
C2053 C2057 1.429 . S
C2054 C2037 1.574 . S
C2054 H2048 0.949 . S
C2054 C2058 1.368 . S
C2055 C2036 1.429 . S
C2055 C2049 1.429 . S
C2055 C2056 1.523 . S
C2056 C2037 1.368 . S
C2056 C2050 1.368 . S
C2056 C2055 1.523 . S
C2057 C2041 1.429 . S
C2057 C2053 1.429 . S
C2057 C2058 1.523 . S
C2058 C2042 1.368 . S
C2058 C2054 1.368 . S
C2058 C2057 1.523 . S
H2059 C2034 0.950 . S
H2060 C2036 0.950 . S
H2061 C2037 0.949 . S
H2062 C2039 0.950 . S
H2063 C2041 0.950 . S
C2064 C2065 1.349 . S
C2064 C2066 1.327 . S
C2064 H2089 0.950 . S
C2065 C2064 1.349 . S
C2065 C2081 1.349 . S
C2066 C2064 1.327 . S
C2066 C2085 1.429 . S
C2066 H2090 0.950 . S
C2067 C2084 1.574 . S
C2067 C2086 1.368 . S
C2067 H2091 0.949 . S
H2068 C2072 0.949 . S
C2069 C2070 1.349 . S
C2069 C2071 1.327 . S
C2069 H2092 0.950 . S
C2070 C2069 1.349 . S
C2070 C2082 1.349 . S
C2071 C2069 1.327 . S
C2071 C2087 1.429 . S
C2071 H2093 0.950 . S
C2072 H2068 0.949 . S
C2072 C2080 1.574 . S
C2072 C2088 1.368 . S
H2073 C2081 0.950 . S
H2074 C2079 0.950 . S
H2075 C2080 0.949 . S
H2076 C2082 0.950 . S
H2077 C2083 0.950 . S
H2078 C2084 0.949 . S
C2079 H2074 0.950 . S
C2079 C2081 1.327 . S
C2079 C2085 1.429 . S
C2080 C2072 1.574 . S
C2080 H2075 0.949 . S
C2080 C2086 1.368 . S
C2081 C2065 1.349 . S
C2081 H2073 0.950 . S
C2081 C2079 1.327 . S
C2082 C2070 1.349 . S
C2082 H2076 0.950 . S
C2082 C2083 1.327 . S
C2083 H2077 0.950 . S
C2083 C2082 1.327 . S
C2083 C2087 1.429 . S
C2084 C2067 1.574 . S
C2084 H2078 0.949 . S
C2084 C2088 1.368 . S
C2085 C2066 1.429 . S
C2085 C2079 1.429 . S
C2085 C2086 1.523 . S
C2086 C2067 1.368 . S
C2086 C2080 1.368 . S
C2086 C2085 1.523 . S
C2087 C2071 1.429 . S
C2087 C2083 1.429 . S
C2087 C2088 1.523 . S
C2088 C2072 1.368 . S
C2088 C2084 1.368 . S
C2088 C2087 1.523 . S
H2089 C2064 0.950 . S
H2090 C2066 0.950 . S
H2091 C2067 0.949 . S
H2092 C2069 0.950 . S
H2093 C2071 0.950 . S
C2094 C2095 1.349 . S
C2094 C2096 1.327 . S
C2094 H2119 0.950 . S
C2095 C2094 1.349 . S
C2095 C2111 1.349 . S
C2096 C2094 1.327 . S
C2096 C2115 1.429 . S
C2096 H2120 0.950 . S
C2097 C2114 1.574 . S
C2097 C2116 1.368 . S
C2097 H2121 0.949 . S
H2098 C2102 0.949 . S
C2099 C2100 1.349 . S
C2099 C2101 1.327 . S
C2099 H2122 0.950 . S
C2100 C2099 1.349 . S
C2100 C2112 1.349 . S
C2101 C2099 1.327 . S
C2101 C2117 1.429 . S
C2101 H2123 0.950 . S
C2102 H2098 0.949 . S
C2102 C2110 1.574 . S
C2102 C2118 1.368 . S
H2103 C2111 0.950 . S
H2104 C2109 0.950 . S
H2105 C2110 0.949 . S
H2106 C2112 0.950 . S
H2107 C2113 0.950 . S
H2108 C2114 0.949 . S
C2109 H2104 0.950 . S
C2109 C2111 1.327 . S
C2109 C2115 1.429 . S
C2110 C2102 1.574 . S
C2110 H2105 0.949 . S
C2110 C2116 1.368 . S
C2111 C2095 1.349 . S
C2111 H2103 0.950 . S
C2111 C2109 1.327 . S
C2112 C2100 1.349 . S
C2112 H2106 0.950 . S
C2112 C2113 1.327 . S
C2113 H2107 0.950 . S
C2113 C2112 1.327 . S
C2113 C2117 1.429 . S
C2114 C2097 1.574 . S
C2114 H2108 0.949 . S
C2114 C2118 1.368 . S
C2115 C2096 1.429 . S
C2115 C2109 1.429 . S
C2115 C2116 1.523 . S
C2116 C2097 1.368 . S
C2116 C2110 1.368 . S
C2116 C2115 1.523 . S
C2117 C2101 1.429 . S
C2117 C2113 1.429 . S
C2117 C2118 1.523 . S
C2118 C2102 1.368 . S
C2118 C2114 1.368 . S
C2118 C2117 1.523 . S
H2119 C2094 0.950 . S
H2120 C2096 0.950 . S
H2121 C2097 0.949 . S
H2122 C2099 0.950 . S
H2123 C2101 0.950 . S
C2124 C2125 1.349 . S
C2124 C2126 1.327 . S
C2124 H2149 0.950 . S
C2125 C2124 1.349 . S
C2125 C2141 1.349 . S
C2126 C2124 1.327 . S
C2126 C2145 1.429 . S
C2126 H2150 0.950 . S
C2127 C2144 1.574 . S
C2127 C2146 1.368 . S
C2127 H2151 0.949 . S
H2128 C2132 0.949 . S
C2129 C2130 1.349 . S
C2129 C2131 1.327 . S
C2129 H2152 0.950 . S
C2130 C2129 1.349 . S
C2130 C2142 1.349 . S
C2131 C2129 1.327 . S
C2131 C2147 1.429 . S
C2131 H2153 0.950 . S
C2132 H2128 0.949 . S
C2132 C2140 1.574 . S
C2132 C2148 1.368 . S
H2133 C2141 0.950 . S
H2134 C2139 0.950 . S
H2135 C2140 0.949 . S
H2136 C2142 0.950 . S
H2137 C2143 0.950 . S
H2138 C2144 0.949 . S
C2139 H2134 0.950 . S
C2139 C2141 1.327 . S
C2139 C2145 1.429 . S
C2140 C2132 1.574 . S
C2140 H2135 0.949 . S
C2140 C2146 1.368 . S
C2141 C2125 1.349 . S
C2141 H2133 0.950 . S
C2141 C2139 1.327 . S
C2142 C2130 1.349 . S
C2142 H2136 0.950 . S
C2142 C2143 1.327 . S
C2143 H2137 0.950 . S
C2143 C2142 1.327 . S
C2143 C2147 1.429 . S
C2144 C2127 1.574 . S
C2144 H2138 0.949 . S
C2144 C2148 1.368 . S
C2145 C2126 1.429 . S
C2145 C2139 1.429 . S
C2145 C2146 1.523 . S
C2146 C2127 1.368 . S
C2146 C2140 1.368 . S
C2146 C2145 1.523 . S
C2147 C2131 1.429 . S
C2147 C2143 1.429 . S
C2147 C2148 1.523 . S
C2148 C2132 1.368 . S
C2148 C2144 1.368 . S
C2148 C2147 1.523 . S
H2149 C2124 0.950 . S
H2150 C2126 0.950 . S
H2151 C2127 0.949 . S
H2152 C2129 0.950 . S
H2153 C2131 0.950 . S
C2154 C2155 1.349 . S
C2154 C2156 1.327 . S
C2154 H2179 0.950 . S
C2155 C2154 1.349 . S
C2155 C2171 1.349 . S
C2156 C2154 1.327 . S
C2156 C2175 1.429 . S
C2156 H2180 0.950 . S
C2157 C2174 1.574 . S
C2157 C2176 1.368 . S
C2157 H2181 0.949 . S
H2158 C2162 0.949 . S
C2159 C2160 1.349 . S
C2159 C2161 1.327 . S
C2159 H2182 0.950 . S
C2160 C2159 1.349 . S
C2160 C2172 1.349 . S
C2161 C2159 1.327 . S
C2161 C2177 1.429 . S
C2161 H2183 0.950 . S
C2162 H2158 0.949 . S
C2162 C2170 1.574 . S
C2162 C2178 1.368 . S
H2163 C2171 0.950 . S
H2164 C2169 0.950 . S
H2165 C2170 0.949 . S
H2166 C2172 0.950 . S
H2167 C2173 0.950 . S
H2168 C2174 0.949 . S
C2169 H2164 0.950 . S
C2169 C2171 1.327 . S
C2169 C2175 1.429 . S
C2170 C2162 1.574 . S
C2170 H2165 0.949 . S
C2170 C2176 1.368 . S
C2171 C2155 1.349 . S
C2171 H2163 0.950 . S
C2171 C2169 1.327 . S
C2172 C2160 1.349 . S
C2172 H2166 0.950 . S
C2172 C2173 1.327 . S
C2173 H2167 0.950 . S
C2173 C2172 1.327 . S
C2173 C2177 1.429 . S
C2174 C2157 1.574 . S
C2174 H2168 0.949 . S
C2174 C2178 1.368 . S
C2175 C2156 1.429 . S
C2175 C2169 1.429 . S
C2175 C2176 1.523 . S
C2176 C2157 1.368 . S
C2176 C2170 1.368 . S
C2176 C2175 1.523 . S
C2177 C2161 1.429 . S
C2177 C2173 1.429 . S
C2177 C2178 1.523 . S
C2178 C2162 1.368 . S
C2178 C2174 1.368 . S
C2178 C2177 1.523 . S
H2179 C2154 0.950 . S
H2180 C2156 0.950 . S
H2181 C2157 0.949 . S
H2182 C2159 0.950 . S
H2183 C2161 0.950 . S
C2184 C2185 1.349 . S
C2184 C2186 1.327 . S
C2184 H2209 0.950 . S
C2185 C2184 1.349 . S
C2185 C2201 1.349 . S
C2186 C2184 1.327 . S
C2186 C2205 1.429 . S
C2186 H2210 0.950 . S
C2187 C2204 1.574 . S
C2187 C2206 1.368 . S
C2187 H2211 0.949 . S
H2188 C2192 0.949 . S
C2189 C2190 1.349 . S
C2189 C2191 1.327 . S
C2189 H2212 0.950 . S
C2190 C2189 1.349 . S
C2190 C2202 1.349 . S
C2191 C2189 1.327 . S
C2191 C2207 1.429 . S
C2191 H2213 0.950 . S
C2192 H2188 0.949 . S
C2192 C2200 1.574 . S
C2192 C2208 1.368 . S
H2193 C2201 0.950 . S
H2194 C2199 0.950 . S
H2195 C2200 0.949 . S
H2196 C2202 0.950 . S
H2197 C2203 0.950 . S
H2198 C2204 0.949 . S
C2199 H2194 0.950 . S
C2199 C2201 1.327 . S
C2199 C2205 1.429 . S
C2200 C2192 1.574 . S
C2200 H2195 0.949 . S
C2200 C2206 1.368 . S
C2201 C2185 1.349 . S
C2201 H2193 0.950 . S
C2201 C2199 1.327 . S
C2202 C2190 1.349 . S
C2202 H2196 0.950 . S
C2202 C2203 1.327 . S
C2203 H2197 0.950 . S
C2203 C2202 1.327 . S
C2203 C2207 1.429 . S
C2204 C2187 1.574 . S
C2204 H2198 0.949 . S
C2204 C2208 1.368 . S
C2205 C2186 1.429 . S
C2205 C2199 1.429 . S
C2205 C2206 1.523 . S
C2206 C2187 1.368 . S
C2206 C2200 1.368 . S
C2206 C2205 1.523 . S
C2207 C2191 1.429 . S
C2207 C2203 1.429 . S
C2207 C2208 1.523 . S
C2208 C2192 1.368 . S
C2208 C2204 1.368 . S
C2208 C2207 1.523 . S
H2209 C2184 0.950 . S
H2210 C2186 0.950 . S
H2211 C2187 0.949 . S
H2212 C2189 0.950 . S
H2213 C2191 0.950 . S
C2214 C2215 1.349 . S
C2214 C2216 1.327 . S
C2214 H2239 0.950 . S
C2215 C2214 1.349 . S
C2215 C2231 1.349 . S
C2216 C2214 1.327 . S
C2216 C2235 1.429 . S
C2216 H2240 0.950 . S
C2217 C2234 1.574 . S
C2217 C2236 1.368 . S
C2217 H2241 0.949 . S
H2218 C2222 0.949 . S
C2219 C2220 1.349 . S
C2219 C2221 1.327 . S
C2219 H2242 0.950 . S
C2220 C2219 1.349 . S
C2220 C2232 1.349 . S
C2221 C2219 1.327 . S
C2221 C2237 1.429 . S
C2221 H2243 0.950 . S
C2222 H2218 0.949 . S
C2222 C2230 1.574 . S
C2222 C2238 1.368 . S
H2223 C2231 0.950 . S
H2224 C2229 0.950 . S
H2225 C2230 0.949 . S
H2226 C2232 0.950 . S
H2227 C2233 0.950 . S
H2228 C2234 0.949 . S
C2229 H2224 0.950 . S
C2229 C2231 1.327 . S
C2229 C2235 1.429 . S
C2230 C2222 1.574 . S
C2230 H2225 0.949 . S
C2230 C2236 1.368 . S
C2231 C2215 1.349 . S
C2231 H2223 0.950 . S
C2231 C2229 1.327 . S
C2232 C2220 1.349 . S
C2232 H2226 0.950 . S
C2232 C2233 1.327 . S
C2233 H2227 0.950 . S
C2233 C2232 1.327 . S
C2233 C2237 1.429 . S
C2234 C2217 1.574 . S
C2234 H2228 0.949 . S
C2234 C2238 1.368 . S
C2235 C2216 1.429 . S
C2235 C2229 1.429 . S
C2235 C2236 1.523 . S
C2236 C2217 1.368 . S
C2236 C2230 1.368 . S
C2236 C2235 1.523 . S
C2237 C2221 1.429 . S
C2237 C2233 1.429 . S
C2237 C2238 1.523 . S
C2238 C2222 1.368 . S
C2238 C2234 1.368 . S
C2238 C2237 1.523 . S
H2239 C2214 0.950 . S
H2240 C2216 0.950 . S
H2241 C2217 0.949 . S
H2242 C2219 0.950 . S
H2243 C2221 0.950 . S
C2244 C2245 1.349 . S
C2244 C2246 1.327 . S
C2244 H2269 0.950 . S
C2245 C2244 1.349 . S
C2245 C2261 1.349 . S
C2246 C2244 1.327 . S
C2246 C2265 1.429 . S
C2246 H2270 0.950 . S
C2247 C2264 1.574 . S
C2247 C2266 1.368 . S
C2247 H2271 0.949 . S
H2248 C2252 0.949 . S
C2249 C2250 1.349 . S
C2249 C2251 1.327 . S
C2249 H2272 0.950 . S
C2250 C2249 1.349 . S
C2250 C2262 1.349 . S
C2251 C2249 1.327 . S
C2251 C2267 1.429 . S
C2251 H2273 0.950 . S
C2252 H2248 0.949 . S
C2252 C2260 1.574 . S
C2252 C2268 1.368 . S
H2253 C2261 0.950 . S
H2254 C2259 0.950 . S
H2255 C2260 0.949 . S
H2256 C2262 0.950 . S
H2257 C2263 0.950 . S
H2258 C2264 0.949 . S
C2259 H2254 0.950 . S
C2259 C2261 1.327 . S
C2259 C2265 1.429 . S
C2260 C2252 1.574 . S
C2260 H2255 0.949 . S
C2260 C2266 1.368 . S
C2261 C2245 1.349 . S
C2261 H2253 0.950 . S
C2261 C2259 1.327 . S
C2262 C2250 1.349 . S
C2262 H2256 0.950 . S
C2262 C2263 1.327 . S
C2263 H2257 0.950 . S
C2263 C2262 1.327 . S
C2263 C2267 1.429 . S
C2264 C2247 1.574 . S
C2264 H2258 0.949 . S
C2264 C2268 1.368 . S
C2265 C2246 1.429 . S
C2265 C2259 1.429 . S
C2265 C2266 1.523 . S
C2266 C2247 1.368 . S
C2266 C2260 1.368 . S
C2266 C2265 1.523 . S
C2267 C2251 1.429 . S
C2267 C2263 1.429 . S
C2267 C2268 1.523 . S
C2268 C2252 1.368 . S
C2268 C2264 1.368 . S
C2268 C2267 1.523 . S
H2269 C2244 0.950 . S
H2270 C2246 0.950 . S
H2271 C2247 0.949 . S
H2272 C2249 0.950 . S
H2273 C2251 0.950 . S
C2274 C2275 1.349 . S
C2274 C2276 1.327 . S
C2274 H2299 0.950 . S
C2275 C2274 1.349 . S
C2275 C2291 1.349 . S
C2276 C2274 1.327 . S
C2276 C2295 1.429 . S
C2276 H2300 0.950 . S
C2277 C2294 1.574 . S
C2277 C2296 1.368 . S
C2277 H2301 0.949 . S
H2278 C2282 0.949 . S
C2279 C2280 1.349 . S
C2279 C2281 1.327 . S
C2279 H2302 0.950 . S
C2280 C2279 1.349 . S
C2280 C2292 1.349 . S
C2281 C2279 1.327 . S
C2281 C2297 1.429 . S
C2281 H2303 0.950 . S
C2282 H2278 0.949 . S
C2282 C2290 1.574 . S
C2282 C2298 1.368 . S
H2283 C2291 0.950 . S
H2284 C2289 0.950 . S
H2285 C2290 0.949 . S
H2286 C2292 0.950 . S
H2287 C2293 0.950 . S
H2288 C2294 0.949 . S
C2289 H2284 0.950 . S
C2289 C2291 1.327 . S
C2289 C2295 1.429 . S
C2290 C2282 1.574 . S
C2290 H2285 0.949 . S
C2290 C2296 1.368 . S
C2291 C2275 1.349 . S
C2291 H2283 0.950 . S
C2291 C2289 1.327 . S
C2292 C2280 1.349 . S
C2292 H2286 0.950 . S
C2292 C2293 1.327 . S
C2293 H2287 0.950 . S
C2293 C2292 1.327 . S
C2293 C2297 1.429 . S
C2294 C2277 1.574 . S
C2294 H2288 0.949 . S
C2294 C2298 1.368 . S
C2295 C2276 1.429 . S
C2295 C2289 1.429 . S
C2295 C2296 1.523 . S
C2296 C2277 1.368 . S
C2296 C2290 1.368 . S
C2296 C2295 1.523 . S
C2297 C2281 1.429 . S
C2297 C2293 1.429 . S
C2297 C2298 1.523 . S
C2298 C2282 1.368 . S
C2298 C2294 1.368 . S
C2298 C2297 1.523 . S
H2299 C2274 0.950 . S
H2300 C2276 0.950 . S
H2301 C2277 0.949 . S
H2302 C2279 0.950 . S
H2303 C2281 0.950 . S
C2304 C2305 1.349 . S
C2304 C2306 1.327 . S
C2304 H2329 0.950 . S
C2305 C2304 1.349 . S
C2305 C2321 1.349 . S
C2306 C2304 1.327 . S
C2306 C2325 1.429 . S
C2306 H2330 0.950 . S
C2307 C2324 1.574 . S
C2307 C2326 1.368 . S
C2307 H2331 0.949 . S
H2308 C2312 0.949 . S
C2309 C2310 1.349 . S
C2309 C2311 1.327 . S
C2309 H2332 0.950 . S
C2310 C2309 1.349 . S
C2310 C2322 1.349 . S
C2311 C2309 1.327 . S
C2311 C2327 1.429 . S
C2311 H2333 0.950 . S
C2312 H2308 0.949 . S
C2312 C2320 1.574 . S
C2312 C2328 1.368 . S
H2313 C2321 0.950 . S
H2314 C2319 0.950 . S
H2315 C2320 0.949 . S
H2316 C2322 0.950 . S
H2317 C2323 0.950 . S
H2318 C2324 0.949 . S
C2319 H2314 0.950 . S
C2319 C2321 1.327 . S
C2319 C2325 1.429 . S
C2320 C2312 1.574 . S
C2320 H2315 0.949 . S
C2320 C2326 1.368 . S
C2321 C2305 1.349 . S
C2321 H2313 0.950 . S
C2321 C2319 1.327 . S
C2322 C2310 1.349 . S
C2322 H2316 0.950 . S
C2322 C2323 1.327 . S
C2323 H2317 0.950 . S
C2323 C2322 1.327 . S
C2323 C2327 1.429 . S
C2324 C2307 1.574 . S
C2324 H2318 0.949 . S
C2324 C2328 1.368 . S
C2325 C2306 1.429 . S
C2325 C2319 1.429 . S
C2325 C2326 1.523 . S
C2326 C2307 1.368 . S
C2326 C2320 1.368 . S
C2326 C2325 1.523 . S
C2327 C2311 1.429 . S
C2327 C2323 1.429 . S
C2327 C2328 1.523 . S
C2328 C2312 1.368 . S
C2328 C2324 1.368 . S
C2328 C2327 1.523 . S
H2329 C2304 0.950 . S
H2330 C2306 0.950 . S
H2331 C2307 0.949 . S
H2332 C2309 0.950 . S
H2333 C2311 0.950 . S
C2334 C2335 1.349 . S
C2334 C2336 1.327 . S
C2334 H2359 0.950 . S
C2335 C2334 1.349 . S
C2335 C2351 1.349 . S
C2336 C2334 1.327 . S
C2336 C2355 1.429 . S
C2336 H2360 0.950 . S
C2337 C2354 1.574 . S
C2337 C2356 1.368 . S
C2337 H2361 0.949 . S
H2338 C2342 0.949 . S
C2339 C2340 1.349 . S
C2339 C2341 1.327 . S
C2339 H2362 0.950 . S
C2340 C2339 1.349 . S
C2340 C2352 1.349 . S
C2341 C2339 1.327 . S
C2341 C2357 1.429 . S
C2341 H2363 0.950 . S
C2342 H2338 0.949 . S
C2342 C2350 1.574 . S
C2342 C2358 1.368 . S
H2343 C2351 0.950 . S
H2344 C2349 0.950 . S
H2345 C2350 0.949 . S
H2346 C2352 0.950 . S
H2347 C2353 0.950 . S
H2348 C2354 0.949 . S
C2349 H2344 0.950 . S
C2349 C2351 1.327 . S
C2349 C2355 1.429 . S
C2350 C2342 1.574 . S
C2350 H2345 0.949 . S
C2350 C2356 1.368 . S
C2351 C2335 1.349 . S
C2351 H2343 0.950 . S
C2351 C2349 1.327 . S
C2352 C2340 1.349 . S
C2352 H2346 0.950 . S
C2352 C2353 1.327 . S
C2353 H2347 0.950 . S
C2353 C2352 1.327 . S
C2353 C2357 1.429 . S
C2354 C2337 1.574 . S
C2354 H2348 0.949 . S
C2354 C2358 1.368 . S
C2355 C2336 1.429 . S
C2355 C2349 1.429 . S
C2355 C2356 1.523 . S
C2356 C2337 1.368 . S
C2356 C2350 1.368 . S
C2356 C2355 1.523 . S
C2357 C2341 1.429 . S
C2357 C2353 1.429 . S
C2357 C2358 1.523 . S
C2358 C2342 1.368 . S
C2358 C2354 1.368 . S
C2358 C2357 1.523 . S
H2359 C2334 0.950 . S
H2360 C2336 0.950 . S
H2361 C2337 0.949 . S
H2362 C2339 0.950 . S
H2363 C2341 0.950 . S
C2364 C2365 1.349 . S
C2364 C2366 1.327 . S
C2364 H2389 0.950 . S
C2365 C2364 1.349 . S
C2365 C2381 1.349 . S
C2366 C2364 1.327 . S
C2366 C2385 1.429 . S
C2366 H2390 0.950 . S
C2367 C2384 1.574 . S
C2367 C2386 1.368 . S
C2367 H2391 0.949 . S
H2368 C2372 0.949 . S
C2369 C2370 1.349 . S
C2369 C2371 1.327 . S
C2369 H2392 0.950 . S
C2370 C2369 1.349 . S
C2370 C2382 1.349 . S
C2371 C2369 1.327 . S
C2371 C2387 1.429 . S
C2371 H2393 0.950 . S
C2372 H2368 0.949 . S
C2372 C2380 1.574 . S
C2372 C2388 1.368 . S
H2373 C2381 0.950 . S
H2374 C2379 0.950 . S
H2375 C2380 0.949 . S
H2376 C2382 0.950 . S
H2377 C2383 0.950 . S
H2378 C2384 0.949 . S
C2379 H2374 0.950 . S
C2379 C2381 1.327 . S
C2379 C2385 1.429 . S
C2380 C2372 1.574 . S
C2380 H2375 0.949 . S
C2380 C2386 1.368 . S
C2381 C2365 1.349 . S
C2381 H2373 0.950 . S
C2381 C2379 1.327 . S
C2382 C2370 1.349 . S
C2382 H2376 0.950 . S
C2382 C2383 1.327 . S
C2383 H2377 0.950 . S
C2383 C2382 1.327 . S
C2383 C2387 1.429 . S
C2384 C2367 1.574 . S
C2384 H2378 0.949 . S
C2384 C2388 1.368 . S
C2385 C2366 1.429 . S
C2385 C2379 1.429 . S
C2385 C2386 1.523 . S
C2386 C2367 1.368 . S
C2386 C2380 1.368 . S
C2386 C2385 1.523 . S
C2387 C2371 1.429 . S
C2387 C2383 1.429 . S
C2387 C2388 1.523 . S
C2388 C2372 1.368 . S
C2388 C2384 1.368 . S
C2388 C2387 1.523 . S
H2389 C2364 0.950 . S
H2390 C2366 0.950 . S
H2391 C2367 0.949 . S
H2392 C2369 0.950 . S
H2393 C2371 0.950 . S
C2394 C2395 1.349 . S
C2394 C2396 1.327 . S
C2394 H2419 0.950 . S
C2395 C2394 1.349 . S
C2395 C2411 1.349 . S
C2396 C2394 1.327 . S
C2396 C2415 1.429 . S
C2396 H2420 0.950 . S
C2397 C2414 1.574 . S
C2397 C2416 1.368 . S
C2397 H2421 0.949 . S
H2398 C2402 0.949 . S
C2399 C2400 1.349 . S
C2399 C2401 1.327 . S
C2399 H2422 0.950 . S
C2400 C2399 1.349 . S
C2400 C2412 1.349 . S
C2401 C2399 1.327 . S
C2401 C2417 1.429 . S
C2401 H2423 0.950 . S
C2402 H2398 0.949 . S
C2402 C2410 1.574 . S
C2402 C2418 1.368 . S
H2403 C2411 0.950 . S
H2404 C2409 0.950 . S
H2405 C2410 0.949 . S
H2406 C2412 0.950 . S
H2407 C2413 0.950 . S
H2408 C2414 0.949 . S
C2409 H2404 0.950 . S
C2409 C2411 1.327 . S
C2409 C2415 1.429 . S
C2410 C2402 1.574 . S
C2410 H2405 0.949 . S
C2410 C2416 1.368 . S
C2411 C2395 1.349 . S
C2411 H2403 0.950 . S
C2411 C2409 1.327 . S
C2412 C2400 1.349 . S
C2412 H2406 0.950 . S
C2412 C2413 1.327 . S
C2413 H2407 0.950 . S
C2413 C2412 1.327 . S
C2413 C2417 1.429 . S
C2414 C2397 1.574 . S
C2414 H2408 0.949 . S
C2414 C2418 1.368 . S
C2415 C2396 1.429 . S
C2415 C2409 1.429 . S
C2415 C2416 1.523 . S
C2416 C2397 1.368 . S
C2416 C2410 1.368 . S
C2416 C2415 1.523 . S
C2417 C2401 1.429 . S
C2417 C2413 1.429 . S
C2417 C2418 1.523 . S
C2418 C2402 1.368 . S
C2418 C2414 1.368 . S
C2418 C2417 1.523 . S
H2419 C2394 0.950 . S
H2420 C2396 0.950 . S
H2421 C2397 0.949 . S
H2422 C2399 0.950 . S
H2423 C2401 0.950 . S
C2424 C2425 1.349 . S
C2424 C2426 1.327 . S
C2424 H2449 0.950 . S
C2425 C2424 1.349 . S
C2425 C2441 1.349 . S
C2426 C2424 1.327 . S
C2426 C2445 1.429 . S
C2426 H2450 0.950 . S
C2427 C2444 1.574 . S
C2427 C2446 1.368 . S
C2427 H2451 0.949 . S
H2428 C2432 0.949 . S
C2429 C2430 1.349 . S
C2429 C2431 1.327 . S
C2429 H2452 0.950 . S
C2430 C2429 1.349 . S
C2430 C2442 1.349 . S
C2431 C2429 1.327 . S
C2431 C2447 1.429 . S
C2431 H2453 0.950 . S
C2432 H2428 0.949 . S
C2432 C2440 1.574 . S
C2432 C2448 1.368 . S
H2433 C2441 0.950 . S
H2434 C2439 0.950 . S
H2435 C2440 0.949 . S
H2436 C2442 0.950 . S
H2437 C2443 0.950 . S
H2438 C2444 0.949 . S
C2439 H2434 0.950 . S
C2439 C2441 1.327 . S
C2439 C2445 1.429 . S
C2440 C2432 1.574 . S
C2440 H2435 0.949 . S
C2440 C2446 1.368 . S
C2441 C2425 1.349 . S
C2441 H2433 0.950 . S
C2441 C2439 1.327 . S
C2442 C2430 1.349 . S
C2442 H2436 0.950 . S
C2442 C2443 1.327 . S
C2443 H2437 0.950 . S
C2443 C2442 1.327 . S
C2443 C2447 1.429 . S
C2444 C2427 1.574 . S
C2444 H2438 0.949 . S
C2444 C2448 1.368 . S
C2445 C2426 1.429 . S
C2445 C2439 1.429 . S
C2445 C2446 1.523 . S
C2446 C2427 1.368 . S
C2446 C2440 1.368 . S
C2446 C2445 1.523 . S
C2447 C2431 1.429 . S
C2447 C2443 1.429 . S
C2447 C2448 1.523 . S
C2448 C2432 1.368 . S
C2448 C2444 1.368 . S
C2448 C2447 1.523 . S
H2449 C2424 0.950 . S
H2450 C2426 0.950 . S
H2451 C2427 0.949 . S
H2452 C2429 0.950 . S
H2453 C2431 0.950 . S
C2454 C2455 1.349 . S
C2454 C2456 1.327 . S
C2454 H2479 0.950 . S
C2455 C2454 1.349 . S
C2455 C2471 1.349 . S
C2456 C2454 1.327 . S
C2456 C2475 1.429 . S
C2456 H2480 0.950 . S
C2457 C2474 1.574 . S
C2457 C2476 1.368 . S
C2457 H2481 0.949 . S
H2458 C2462 0.949 . S
C2459 C2460 1.349 . S
C2459 C2461 1.327 . S
C2459 H2482 0.950 . S
C2460 C2459 1.349 . S
C2460 C2472 1.349 . S
C2461 C2459 1.327 . S
C2461 C2477 1.429 . S
C2461 H2483 0.950 . S
C2462 H2458 0.949 . S
C2462 C2470 1.574 . S
C2462 C2478 1.368 . S
H2463 C2471 0.950 . S
H2464 C2469 0.950 . S
H2465 C2470 0.949 . S
H2466 C2472 0.950 . S
H2467 C2473 0.950 . S
H2468 C2474 0.949 . S
C2469 H2464 0.950 . S
C2469 C2471 1.327 . S
C2469 C2475 1.429 . S
C2470 C2462 1.574 . S
C2470 H2465 0.949 . S
C2470 C2476 1.368 . S
C2471 C2455 1.349 . S
C2471 H2463 0.950 . S
C2471 C2469 1.327 . S
C2472 C2460 1.349 . S
C2472 H2466 0.950 . S
C2472 C2473 1.327 . S
C2473 H2467 0.950 . S
C2473 C2472 1.327 . S
C2473 C2477 1.429 . S
C2474 C2457 1.574 . S
C2474 H2468 0.949 . S
C2474 C2478 1.368 . S
C2475 C2456 1.429 . S
C2475 C2469 1.429 . S
C2475 C2476 1.523 . S
C2476 C2457 1.368 . S
C2476 C2470 1.368 . S
C2476 C2475 1.523 . S
C2477 C2461 1.429 . S
C2477 C2473 1.429 . S
C2477 C2478 1.523 . S
C2478 C2462 1.368 . S
C2478 C2474 1.368 . S
C2478 C2477 1.523 . S
H2479 C2454 0.950 . S
H2480 C2456 0.950 . S
H2481 C2457 0.949 . S
H2482 C2459 0.950 . S
H2483 C2461 0.950 . S
C2484 C2485 1.349 . S
C2484 C2486 1.327 . S
C2484 H2509 0.950 . S
C2485 C2484 1.349 . S
C2485 C2501 1.349 . S
C2486 C2484 1.327 . S
C2486 C2505 1.429 . S
C2486 H2510 0.950 . S
C2487 C2504 1.574 . S
C2487 C2506 1.368 . S
C2487 H2511 0.949 . S
H2488 C2492 0.949 . S
C2489 C2490 1.349 . S
C2489 C2491 1.327 . S
C2489 H2512 0.950 . S
C2490 C2489 1.349 . S
C2490 C2502 1.349 . S
C2491 C2489 1.327 . S
C2491 C2507 1.429 . S
C2491 H2513 0.950 . S
C2492 H2488 0.949 . S
C2492 C2500 1.574 . S
C2492 C2508 1.368 . S
H2493 C2501 0.950 . S
H2494 C2499 0.950 . S
H2495 C2500 0.949 . S
H2496 C2502 0.950 . S
H2497 C2503 0.950 . S
H2498 C2504 0.949 . S
C2499 H2494 0.950 . S
C2499 C2501 1.327 . S
C2499 C2505 1.429 . S
C2500 C2492 1.574 . S
C2500 H2495 0.949 . S
C2500 C2506 1.368 . S
C2501 C2485 1.349 . S
C2501 H2493 0.950 . S
C2501 C2499 1.327 . S
C2502 C2490 1.349 . S
C2502 H2496 0.950 . S
C2502 C2503 1.327 . S
C2503 H2497 0.950 . S
C2503 C2502 1.327 . S
C2503 C2507 1.429 . S
C2504 C2487 1.574 . S
C2504 H2498 0.949 . S
C2504 C2508 1.368 . S
C2505 C2486 1.429 . S
C2505 C2499 1.429 . S
C2505 C2506 1.523 . S
C2506 C2487 1.368 . S
C2506 C2500 1.368 . S
C2506 C2505 1.523 . S
C2507 C2491 1.429 . S
C2507 C2503 1.429 . S
C2507 C2508 1.523 . S
C2508 C2492 1.368 . S
C2508 C2504 1.368 . S
C2508 C2507 1.523 . S
H2509 C2484 0.950 . S
H2510 C2486 0.950 . S
H2511 C2487 0.949 . S
H2512 C2489 0.950 . S
H2513 C2491 0.950 . S
C2514 C2515 1.349 . S
C2514 C2516 1.327 . S
C2514 H2539 0.950 . S
C2515 C2514 1.349 . S
C2515 C2531 1.349 . S
C2516 C2514 1.327 . S
C2516 C2535 1.429 . S
C2516 H2540 0.950 . S
C2517 C2534 1.574 . S
C2517 C2536 1.368 . S
C2517 H2541 0.949 . S
H2518 C2522 0.949 . S
C2519 C2520 1.349 . S
C2519 C2521 1.327 . S
C2519 H2542 0.950 . S
C2520 C2519 1.349 . S
C2520 C2532 1.349 . S
C2521 C2519 1.327 . S
C2521 C2537 1.429 . S
C2521 H2543 0.950 . S
C2522 H2518 0.949 . S
C2522 C2530 1.574 . S
C2522 C2538 1.368 . S
H2523 C2531 0.950 . S
H2524 C2529 0.950 . S
H2525 C2530 0.949 . S
H2526 C2532 0.950 . S
H2527 C2533 0.950 . S
H2528 C2534 0.949 . S
C2529 H2524 0.950 . S
C2529 C2531 1.327 . S
C2529 C2535 1.429 . S
C2530 C2522 1.574 . S
C2530 H2525 0.949 . S
C2530 C2536 1.368 . S
C2531 C2515 1.349 . S
C2531 H2523 0.950 . S
C2531 C2529 1.327 . S
C2532 C2520 1.349 . S
C2532 H2526 0.950 . S
C2532 C2533 1.327 . S
C2533 H2527 0.950 . S
C2533 C2532 1.327 . S
C2533 C2537 1.429 . S
C2534 C2517 1.574 . S
C2534 H2528 0.949 . S
C2534 C2538 1.368 . S
C2535 C2516 1.429 . S
C2535 C2529 1.429 . S
C2535 C2536 1.523 . S
C2536 C2517 1.368 . S
C2536 C2530 1.368 . S
C2536 C2535 1.523 . S
C2537 C2521 1.429 . S
C2537 C2533 1.429 . S
C2537 C2538 1.523 . S
C2538 C2522 1.368 . S
C2538 C2534 1.368 . S
C2538 C2537 1.523 . S
H2539 C2514 0.950 . S
H2540 C2516 0.950 . S
H2541 C2517 0.949 . S
H2542 C2519 0.950 . S
H2543 C2521 0.950 . S
C2544 C2545 1.349 . S
C2544 C2546 1.327 . S
C2544 H2569 0.950 . S
C2545 C2544 1.349 . S
C2545 C2561 1.349 . S
C2546 C2544 1.327 . S
C2546 C2565 1.429 . S
C2546 H2570 0.950 . S
C2547 C2564 1.574 . S
C2547 C2566 1.368 . S
C2547 H2571 0.949 . S
H2548 C2552 0.949 . S
C2549 C2550 1.349 . S
C2549 C2551 1.327 . S
C2549 H2572 0.950 . S
C2550 C2549 1.349 . S
C2550 C2562 1.349 . S
C2551 C2549 1.327 . S
C2551 C2567 1.429 . S
C2551 H2573 0.950 . S
C2552 H2548 0.949 . S
C2552 C2560 1.574 . S
C2552 C2568 1.368 . S
H2553 C2561 0.950 . S
H2554 C2559 0.950 . S
H2555 C2560 0.949 . S
H2556 C2562 0.950 . S
H2557 C2563 0.950 . S
H2558 C2564 0.949 . S
C2559 H2554 0.950 . S
C2559 C2561 1.327 . S
C2559 C2565 1.429 . S
C2560 C2552 1.574 . S
C2560 H2555 0.949 . S
C2560 C2566 1.368 . S
C2561 C2545 1.349 . S
C2561 H2553 0.950 . S
C2561 C2559 1.327 . S
C2562 C2550 1.349 . S
C2562 H2556 0.950 . S
C2562 C2563 1.327 . S
C2563 H2557 0.950 . S
C2563 C2562 1.327 . S
C2563 C2567 1.429 . S
C2564 C2547 1.574 . S
C2564 H2558 0.949 . S
C2564 C2568 1.368 . S
C2565 C2546 1.429 . S
C2565 C2559 1.429 . S
C2565 C2566 1.523 . S
C2566 C2547 1.368 . S
C2566 C2560 1.368 . S
C2566 C2565 1.523 . S
C2567 C2551 1.429 . S
C2567 C2563 1.429 . S
C2567 C2568 1.523 . S
C2568 C2552 1.368 . S
C2568 C2564 1.368 . S
C2568 C2567 1.523 . S
H2569 C2544 0.950 . S
H2570 C2546 0.950 . S
H2571 C2547 0.949 . S
H2572 C2549 0.950 . S
H2573 C2551 0.950 . S
C2574 C2575 1.349 . S
C2574 C2576 1.327 . S
C2574 H2599 0.950 . S
C2575 C2574 1.349 . S
C2575 C2591 1.349 . S
C2576 C2574 1.327 . S
C2576 C2595 1.429 . S
C2576 H2600 0.950 . S
C2577 C2594 1.574 . S
C2577 C2596 1.368 . S
C2577 H2601 0.949 . S
H2578 C2582 0.949 . S
C2579 C2580 1.349 . S
C2579 C2581 1.327 . S
C2579 H2602 0.950 . S
C2580 C2579 1.349 . S
C2580 C2592 1.349 . S
C2581 C2579 1.327 . S
C2581 C2597 1.429 . S
C2581 H2603 0.950 . S
C2582 H2578 0.949 . S
C2582 C2590 1.574 . S
C2582 C2598 1.368 . S
H2583 C2591 0.950 . S
H2584 C2589 0.950 . S
H2585 C2590 0.949 . S
H2586 C2592 0.950 . S
H2587 C2593 0.950 . S
H2588 C2594 0.949 . S
C2589 H2584 0.950 . S
C2589 C2591 1.327 . S
C2589 C2595 1.429 . S
C2590 C2582 1.574 . S
C2590 H2585 0.949 . S
C2590 C2596 1.368 . S
C2591 C2575 1.349 . S
C2591 H2583 0.950 . S
C2591 C2589 1.327 . S
C2592 C2580 1.349 . S
C2592 H2586 0.950 . S
C2592 C2593 1.327 . S
C2593 H2587 0.950 . S
C2593 C2592 1.327 . S
C2593 C2597 1.429 . S
C2594 C2577 1.574 . S
C2594 H2588 0.949 . S
C2594 C2598 1.368 . S
C2595 C2576 1.429 . S
C2595 C2589 1.429 . S
C2595 C2596 1.523 . S
C2596 C2577 1.368 . S
C2596 C2590 1.368 . S
C2596 C2595 1.523 . S
C2597 C2581 1.429 . S
C2597 C2593 1.429 . S
C2597 C2598 1.523 . S
C2598 C2582 1.368 . S
C2598 C2594 1.368 . S
C2598 C2597 1.523 . S
H2599 C2574 0.950 . S
H2600 C2576 0.950 . S
H2601 C2577 0.949 . S
H2602 C2579 0.950 . S
H2603 C2581 0.950 . S
C2604 C2605 1.349 . S
C2604 C2606 1.327 . S
C2604 H2629 0.950 . S
C2605 C2604 1.349 . S
C2605 C2621 1.349 . S
C2606 C2604 1.327 . S
C2606 C2625 1.429 . S
C2606 H2630 0.950 . S
C2607 C2624 1.574 . S
C2607 C2626 1.368 . S
C2607 H2631 0.949 . S
H2608 C2612 0.949 . S
C2609 C2610 1.349 . S
C2609 C2611 1.327 . S
C2609 H2632 0.950 . S
C2610 C2609 1.349 . S
C2610 C2622 1.349 . S
C2611 C2609 1.327 . S
C2611 C2627 1.429 . S
C2611 H2633 0.950 . S
C2612 H2608 0.949 . S
C2612 C2620 1.574 . S
C2612 C2628 1.368 . S
H2613 C2621 0.950 . S
H2614 C2619 0.950 . S
H2615 C2620 0.949 . S
H2616 C2622 0.950 . S
H2617 C2623 0.950 . S
H2618 C2624 0.949 . S
C2619 H2614 0.950 . S
C2619 C2621 1.327 . S
C2619 C2625 1.429 . S
C2620 C2612 1.574 . S
C2620 H2615 0.949 . S
C2620 C2626 1.368 . S
C2621 C2605 1.349 . S
C2621 H2613 0.950 . S
C2621 C2619 1.327 . S
C2622 C2610 1.349 . S
C2622 H2616 0.950 . S
C2622 C2623 1.327 . S
C2623 H2617 0.950 . S
C2623 C2622 1.327 . S
C2623 C2627 1.429 . S
C2624 C2607 1.574 . S
C2624 H2618 0.949 . S
C2624 C2628 1.368 . S
C2625 C2606 1.429 . S
C2625 C2619 1.429 . S
C2625 C2626 1.523 . S
C2626 C2607 1.368 . S
C2626 C2620 1.368 . S
C2626 C2625 1.523 . S
C2627 C2611 1.429 . S
C2627 C2623 1.429 . S
C2627 C2628 1.523 . S
C2628 C2612 1.368 . S
C2628 C2624 1.368 . S
C2628 C2627 1.523 . S
H2629 C2604 0.950 . S
H2630 C2606 0.950 . S
H2631 C2607 0.949 . S
H2632 C2609 0.950 . S
H2633 C2611 0.950 . S
C2634 C2635 1.349 . S
C2634 C2636 1.327 . S
C2634 H2659 0.950 . S
C2635 C2634 1.349 . S
C2635 C2651 1.349 . S
C2636 C2634 1.327 . S
C2636 C2655 1.429 . S
C2636 H2660 0.950 . S
C2637 C2654 1.574 . S
C2637 C2656 1.368 . S
C2637 H2661 0.949 . S
H2638 C2642 0.949 . S
C2639 C2640 1.349 . S
C2639 C2641 1.327 . S
C2639 H2662 0.950 . S
C2640 C2639 1.349 . S
C2640 C2652 1.349 . S
C2641 C2639 1.327 . S
C2641 C2657 1.429 . S
C2641 H2663 0.950 . S
C2642 H2638 0.949 . S
C2642 C2650 1.574 . S
C2642 C2658 1.368 . S
H2643 C2651 0.950 . S
H2644 C2649 0.950 . S
H2645 C2650 0.949 . S
H2646 C2652 0.950 . S
H2647 C2653 0.950 . S
H2648 C2654 0.949 . S
C2649 H2644 0.950 . S
C2649 C2651 1.327 . S
C2649 C2655 1.429 . S
C2650 C2642 1.574 . S
C2650 H2645 0.949 . S
C2650 C2656 1.368 . S
C2651 C2635 1.349 . S
C2651 H2643 0.950 . S
C2651 C2649 1.327 . S
C2652 C2640 1.349 . S
C2652 H2646 0.950 . S
C2652 C2653 1.327 . S
C2653 H2647 0.950 . S
C2653 C2652 1.327 . S
C2653 C2657 1.429 . S
C2654 C2637 1.574 . S
C2654 H2648 0.949 . S
C2654 C2658 1.368 . S
C2655 C2636 1.429 . S
C2655 C2649 1.429 . S
C2655 C2656 1.523 . S
C2656 C2637 1.368 . S
C2656 C2650 1.368 . S
C2656 C2655 1.523 . S
C2657 C2641 1.429 . S
C2657 C2653 1.429 . S
C2657 C2658 1.523 . S
C2658 C2642 1.368 . S
C2658 C2654 1.368 . S
C2658 C2657 1.523 . S
H2659 C2634 0.950 . S
H2660 C2636 0.950 . S
H2661 C2637 0.949 . S
H2662 C2639 0.950 . S
H2663 C2641 0.950 . S
C505 C5 1.195 . S
C510 C257 1.195 . S
C535 C271 1.195 . S
C540 C19 1.195 . S
C565 C285 1.196 . S
C570 C33 1.196 . S
C595 C47 1.195 . S
C600 C467 1.195 . S
C625 C61 1.196 . S
C630 C481 1.196 . S
C655 C75 1.195 . S
C660 C495 1.195 . S
C685 C341 1.195 . S
C690 C89 1.195 . S
C715 C103 1.195 . S
C720 C355 1.195 . S
C745 C117 1.196 . S
C750 C369 1.196 . S
C775 C215 1.195 . S
C780 C131 1.195 . S
C805 C229 1.196 . S
C810 C145 1.196 . S
C835 C243 1.195 . S
C840 C159 1.195 . S
C865 C425 1.195 . S
C870 C173 1.195 . S
C895 C439 1.196 . S
C900 C187 1.196 . S
C925 C201 1.196 . S
C930 C453 1.196 . S
C955 C383 1.195 . S
C960 C299 1.195 . S
C985 C313 1.196 . S
C990 C397 1.196 . S
C1015 C327 1.196 . S
C1020 C411 1.196 . S
C1045 C11 1.346 . S
C1050 C389 1.346 . S
C1075 C403 1.347 . S
C1080 C25 1.347 . S
C1105 C417 1.347 . S
C1110 C39 1.347 . S
C1135 C179 1.347 . S
C1140 C53 1.347 . S
C1165 C193 1.347 . S
C1170 C67 1.347 . S
C1195 C207 1.347 . S
C1200 C81 1.347 . S
C1225 C95 1.346 . S
C1230 C305 1.346 . S
C1255 C319 1.347 . S
C1260 C109 1.347 . S
C1285 C333 1.347 . S
C1290 C123 1.347 . S
C1315 C137 1.347 . S
C1320 C431 1.347 . S
C1345 C151 1.347 . S
C1350 C445 1.347 . S
C1375 C165 1.347 . S
C1380 C459 1.347 . S
C1405 C221 1.346 . S
C1410 C347 1.346 . S
C1435 C235 1.347 . S
C1440 C361 1.347 . S
C1465 C249 1.347 . S
C1470 C375 1.347 . S
C1495 C263 1.346 . S
C1500 C473 1.346 . S
C1525 C487 1.347 . S
C1530 C277 1.347 . S
C1555 C291 1.347 . S
C1560 C501 1.347 . S
C1585 C26 0.649 1_455 S
C1590 C4 0.677 . S
C1615 C18 0.677 . S
C1620 C40 0.649 . S
C1645 C32 0.677 . S
C1650 C12 0.649 1_565 S
C1675 C46 0.677 . S
C1680 C82 0.649 1_545 S
C1705 C54 0.649 1_655 S
C1710 C60 0.677 . S
C1735 C74 0.677 . S
C1740 C68 0.649 . S
C1765 C88 0.677 . S
C1770 C110 0.649 1_655 S
C1795 C102 0.677 . S
C1800 C124 0.649 . S
C1825 C116 0.677 . S
C1830 C96 0.649 1_545 S
C1855 C166 0.649 1_565 S
C1860 C130 0.677 . S
C1885 C144 0.677 . S
C1890 C138 0.649 1_455 S
C1915 C152 0.649 . S
C1920 C158 0.677 . S
C1945 C194 0.649 . S
C1950 C172 0.677 . S
C1975 C208 0.649 . S
C1980 C186 0.677 . S
C2005 C180 0.649 . S
C2010 C200 0.677 . S
C2035 C214 0.677 . S
C2040 C250 0.649 . S
C2065 C228 0.677 . S
C2070 C222 0.649 . S
C2095 C242 0.677 . S
C2100 C236 0.649 . S
C2125 C278 0.649 . S
C2130 C256 0.677 . S
C2155 C270 0.677 . S
C2160 C292 0.649 . S
C2185 C284 0.677 . S
C2190 C264 0.649 . S
C2215 C298 0.677 . S
C2220 C334 0.649 . S
C2245 C312 0.677 . S
C2250 C306 0.649 . S
C2275 C320 0.649 . S
C2280 C326 0.677 . S
C2305 C362 0.649 . S
C2310 C340 0.677 . S
C2335 C354 0.677 . S
C2340 C376 0.649 . S
C2365 C348 0.649 . S
C2370 C368 0.677 . S
C2395 C382 0.677 . S
C2400 C418 0.649 . S
C2425 C396 0.677 . S
C2430 C390 0.649 . S
C2455 C410 0.677 . S
C2460 C404 0.649 . S
C2485 C424 0.677 . S
C2490 C446 0.649 . S
C2515 C438 0.677 . S
C2520 C460 0.649 . S
C2545 C452 0.677 . S
C2550 C432 0.649 . S
C2575 C466 0.677 . S
C2580 C502 0.649 . S
C2605 C480 0.677 . S
C2610 C474 0.649 . S
C2635 C488 0.649 . S
C2640 C494 0.677 . S
