# Generated by pormake.
# Topology rho, (4)-cn, num edge types: 1
# Building blocks:
#     Node 0, Type 0, BuildingBlock: AZAVOO_clean_sbu_0, # of connection points: 4
#     Node 1, Type 0, BuildingBlock: AZAVOO_clean_sbu_0, # of connection points: 4
#     Node 2, Type 0, BuildingBlock: AZAVOO_clean_sbu_0, # of connection points: 4
#     Node 3, Type 0, BuildingBlock: AZAVOO_clean_sbu_0, # of connection points: 4
#     Node 4, Type 0, BuildingBlock: AZAVOO_clean_sbu_0, # of connection points: 4
#     Node 5, Type 0, BuildingBlock: AZAVOO_clean_sbu_0, # of connection points: 4
#     Node 6, Type 0, BuildingBlock: AZAVOO_clean_sbu_0, # of connection points: 4
#     Node 7, Type 0, BuildingBlock: AZAVOO_clean_sbu_0, # of connection points: 4
#     Node 8, Type 0, BuildingBlock: AZAVOO_clean_sbu_0, # of connection points: 4
#     Node 9, Type 0, BuildingBlock: AZAVOO_clean_sbu_0, # of connection points: 4
#     Node 10, Type 0, BuildingBlock: AZAVOO_clean_sbu_0, # of connection points: 4
#     Node 11, Type 0, BuildingBlock: AZAVOO_clean_sbu_0, # of connection points: 4
#     Node 12, Type 0, BuildingBlock: AZAVOO_clean_sbu_0, # of connection points: 4
#     Node 13, Type 0, BuildingBlock: AZAVOO_clean_sbu_0, # of connection points: 4
#     Node 14, Type 0, BuildingBlock: AZAVOO_clean_sbu_0, # of connection points: 4
#     Node 15, Type 0, BuildingBlock: AZAVOO_clean_sbu_0, # of connection points: 4
#     Node 16, Type 0, BuildingBlock: AZAVOO_clean_sbu_0, # of connection points: 4
#     Node 17, Type 0, BuildingBlock: AZAVOO_clean_sbu_0, # of connection points: 4
#     Node 18, Type 0, BuildingBlock: AZAVOO_clean_sbu_0, # of connection points: 4
#     Node 19, Type 0, BuildingBlock: AZAVOO_clean_sbu_0, # of connection points: 4
#     Node 20, Type 0, BuildingBlock: AZAVOO_clean_sbu_0, # of connection points: 4
#     Node 21, Type 0, BuildingBlock: AZAVOO_clean_sbu_0, # of connection points: 4
#     Node 22, Type 0, BuildingBlock: AZAVOO_clean_sbu_0, # of connection points: 4
#     Node 23, Type 0, BuildingBlock: AZAVOO_clean_sbu_0, # of connection points: 4
#     Node 24, Type 0, BuildingBlock: AZAVOO_clean_sbu_0, # of connection points: 4
#     Node 25, Type 0, BuildingBlock: AZAVOO_clean_sbu_0, # of connection points: 4
#     Node 26, Type 0, BuildingBlock: AZAVOO_clean_sbu_0, # of connection points: 4
#     Node 27, Type 0, BuildingBlock: AZAVOO_clean_sbu_0, # of connection points: 4
#     Node 28, Type 0, BuildingBlock: AZAVOO_clean_sbu_0, # of connection points: 4
#     Node 29, Type 0, BuildingBlock: AZAVOO_clean_sbu_0, # of connection points: 4
#     Node 30, Type 0, BuildingBlock: AZAVOO_clean_sbu_0, # of connection points: 4
#     Node 31, Type 0, BuildingBlock: AZAVOO_clean_sbu_0, # of connection points: 4
#     Node 32, Type 0, BuildingBlock: AZAVOO_clean_sbu_0, # of connection points: 4
#     Node 33, Type 0, BuildingBlock: AZAVOO_clean_sbu_0, # of connection points: 4
#     Node 34, Type 0, BuildingBlock: AZAVOO_clean_sbu_0, # of connection points: 4
#     Node 35, Type 0, BuildingBlock: AZAVOO_clean_sbu_0, # of connection points: 4
#     Node 36, Type 0, BuildingBlock: AZAVOO_clean_sbu_0, # of connection points: 4
#     Node 37, Type 0, BuildingBlock: AZAVOO_clean_sbu_0, # of connection points: 4
#     Node 38, Type 0, BuildingBlock: AZAVOO_clean_sbu_0, # of connection points: 4
#     Node 39, Type 0, BuildingBlock: AZAVOO_clean_sbu_0, # of connection points: 4
#     Node 40, Type 0, BuildingBlock: AZAVOO_clean_sbu_0, # of connection points: 4
#     Node 41, Type 0, BuildingBlock: AZAVOO_clean_sbu_0, # of connection points: 4
#     Node 42, Type 0, BuildingBlock: AZAVOO_clean_sbu_0, # of connection points: 4
#     Node 43, Type 0, BuildingBlock: AZAVOO_clean_sbu_0, # of connection points: 4
#     Node 44, Type 0, BuildingBlock: AZAVOO_clean_sbu_0, # of connection points: 4
#     Node 45, Type 0, BuildingBlock: AZAVOO_clean_sbu_0, # of connection points: 4
#     Node 46, Type 0, BuildingBlock: AZAVOO_clean_sbu_0, # of connection points: 4
#     Node 47, Type 0, BuildingBlock: AZAVOO_clean_sbu_0, # of connection points: 4
#     Edge 48, Type (0, 0), BuildingBlock: OJICUG_clean_linker_0, # of connection points: 2
#     Edge 49, Type (0, 0), BuildingBlock: OJICUG_clean_linker_0, # of connection points: 2
#     Edge 50, Type (0, 0), BuildingBlock: OJICUG_clean_linker_0, # of connection points: 2
#     Edge 51, Type (0, 0), BuildingBlock: OJICUG_clean_linker_0, # of connection points: 2
#     Edge 52, Type (0, 0), BuildingBlock: OJICUG_clean_linker_0, # of connection points: 2
#     Edge 53, Type (0, 0), BuildingBlock: OJICUG_clean_linker_0, # of connection points: 2
#     Edge 54, Type (0, 0), BuildingBlock: OJICUG_clean_linker_0, # of connection points: 2
#     Edge 55, Type (0, 0), BuildingBlock: OJICUG_clean_linker_0, # of connection points: 2
#     Edge 56, Type (0, 0), BuildingBlock: OJICUG_clean_linker_0, # of connection points: 2
#     Edge 57, Type (0, 0), BuildingBlock: OJICUG_clean_linker_0, # of connection points: 2
#     Edge 58, Type (0, 0), BuildingBlock: OJICUG_clean_linker_0, # of connection points: 2
#     Edge 59, Type (0, 0), BuildingBlock: OJICUG_clean_linker_0, # of connection points: 2
#     Edge 60, Type (0, 0), BuildingBlock: OJICUG_clean_linker_0, # of connection points: 2
#     Edge 61, Type (0, 0), BuildingBlock: OJICUG_clean_linker_0, # of connection points: 2
#     Edge 62, Type (0, 0), BuildingBlock: OJICUG_clean_linker_0, # of connection points: 2
#     Edge 63, Type (0, 0), BuildingBlock: OJICUG_clean_linker_0, # of connection points: 2
#     Edge 64, Type (0, 0), BuildingBlock: OJICUG_clean_linker_0, # of connection points: 2
#     Edge 65, Type (0, 0), BuildingBlock: OJICUG_clean_linker_0, # of connection points: 2
#     Edge 66, Type (0, 0), BuildingBlock: OJICUG_clean_linker_0, # of connection points: 2
#     Edge 67, Type (0, 0), BuildingBlock: OJICUG_clean_linker_0, # of connection points: 2
#     Edge 68, Type (0, 0), BuildingBlock: OJICUG_clean_linker_0, # of connection points: 2
#     Edge 69, Type (0, 0), BuildingBlock: OJICUG_clean_linker_0, # of connection points: 2
#     Edge 70, Type (0, 0), BuildingBlock: OJICUG_clean_linker_0, # of connection points: 2
#     Edge 71, Type (0, 0), BuildingBlock: OJICUG_clean_linker_0, # of connection points: 2
#     Edge 72, Type (0, 0), BuildingBlock: OJICUG_clean_linker_0, # of connection points: 2
#     Edge 73, Type (0, 0), BuildingBlock: OJICUG_clean_linker_0, # of connection points: 2
#     Edge 74, Type (0, 0), BuildingBlock: OJICUG_clean_linker_0, # of connection points: 2
#     Edge 75, Type (0, 0), BuildingBlock: OJICUG_clean_linker_0, # of connection points: 2
#     Edge 76, Type (0, 0), BuildingBlock: OJICUG_clean_linker_0, # of connection points: 2
#     Edge 77, Type (0, 0), BuildingBlock: OJICUG_clean_linker_0, # of connection points: 2
#     Edge 78, Type (0, 0), BuildingBlock: OJICUG_clean_linker_0, # of connection points: 2
#     Edge 79, Type (0, 0), BuildingBlock: OJICUG_clean_linker_0, # of connection points: 2
#     Edge 80, Type (0, 0), BuildingBlock: OJICUG_clean_linker_0, # of connection points: 2
#     Edge 81, Type (0, 0), BuildingBlock: OJICUG_clean_linker_0, # of connection points: 2
#     Edge 82, Type (0, 0), BuildingBlock: OJICUG_clean_linker_0, # of connection points: 2
#     Edge 83, Type (0, 0), BuildingBlock: OJICUG_clean_linker_0, # of connection points: 2
#     Edge 84, Type (0, 0), BuildingBlock: OJICUG_clean_linker_0, # of connection points: 2
#     Edge 85, Type (0, 0), BuildingBlock: OJICUG_clean_linker_0, # of connection points: 2
#     Edge 86, Type (0, 0), BuildingBlock: OJICUG_clean_linker_0, # of connection points: 2
#     Edge 87, Type (0, 0), BuildingBlock: OJICUG_clean_linker_0, # of connection points: 2
#     Edge 88, Type (0, 0), BuildingBlock: OJICUG_clean_linker_0, # of connection points: 2
#     Edge 89, Type (0, 0), BuildingBlock: OJICUG_clean_linker_0, # of connection points: 2
#     Edge 90, Type (0, 0), BuildingBlock: OJICUG_clean_linker_0, # of connection points: 2
#     Edge 91, Type (0, 0), BuildingBlock: OJICUG_clean_linker_0, # of connection points: 2
#     Edge 92, Type (0, 0), BuildingBlock: OJICUG_clean_linker_0, # of connection points: 2
#     Edge 93, Type (0, 0), BuildingBlock: OJICUG_clean_linker_0, # of connection points: 2
#     Edge 94, Type (0, 0), BuildingBlock: OJICUG_clean_linker_0, # of connection points: 2
#     Edge 95, Type (0, 0), BuildingBlock: OJICUG_clean_linker_0, # of connection points: 2
#     Edge 96, Type (0, 0), BuildingBlock: OJICUG_clean_linker_0, # of connection points: 2
#     Edge 97, Type (0, 0), BuildingBlock: OJICUG_clean_linker_0, # of connection points: 2
#     Edge 98, Type (0, 0), BuildingBlock: OJICUG_clean_linker_0, # of connection points: 2
#     Edge 99, Type (0, 0), BuildingBlock: OJICUG_clean_linker_0, # of connection points: 2
#     Edge 100, Type (0, 0), BuildingBlock: OJICUG_clean_linker_0, # of connection points: 2
#     Edge 101, Type (0, 0), BuildingBlock: OJICUG_clean_linker_0, # of connection points: 2
#     Edge 102, Type (0, 0), BuildingBlock: OJICUG_clean_linker_0, # of connection points: 2
#     Edge 103, Type (0, 0), BuildingBlock: OJICUG_clean_linker_0, # of connection points: 2
#     Edge 104, Type (0, 0), BuildingBlock: OJICUG_clean_linker_0, # of connection points: 2
#     Edge 105, Type (0, 0), BuildingBlock: OJICUG_clean_linker_0, # of connection points: 2
#     Edge 106, Type (0, 0), BuildingBlock: OJICUG_clean_linker_0, # of connection points: 2
#     Edge 107, Type (0, 0), BuildingBlock: OJICUG_clean_linker_0, # of connection points: 2
#     Edge 108, Type (0, 0), BuildingBlock: OJICUG_clean_linker_0, # of connection points: 2
#     Edge 109, Type (0, 0), BuildingBlock: OJICUG_clean_linker_0, # of connection points: 2
#     Edge 110, Type (0, 0), BuildingBlock: OJICUG_clean_linker_0, # of connection points: 2
#     Edge 111, Type (0, 0), BuildingBlock: OJICUG_clean_linker_0, # of connection points: 2
#     Edge 112, Type (0, 0), BuildingBlock: OJICUG_clean_linker_0, # of connection points: 2
#     Edge 113, Type (0, 0), BuildingBlock: OJICUG_clean_linker_0, # of connection points: 2
#     Edge 114, Type (0, 0), BuildingBlock: OJICUG_clean_linker_0, # of connection points: 2
#     Edge 115, Type (0, 0), BuildingBlock: OJICUG_clean_linker_0, # of connection points: 2
#     Edge 116, Type (0, 0), BuildingBlock: OJICUG_clean_linker_0, # of connection points: 2
#     Edge 117, Type (0, 0), BuildingBlock: OJICUG_clean_linker_0, # of connection points: 2
#     Edge 118, Type (0, 0), BuildingBlock: OJICUG_clean_linker_0, # of connection points: 2
#     Edge 119, Type (0, 0), BuildingBlock: OJICUG_clean_linker_0, # of connection points: 2
#     Edge 120, Type (0, 0), BuildingBlock: OJICUG_clean_linker_0, # of connection points: 2
#     Edge 121, Type (0, 0), BuildingBlock: OJICUG_clean_linker_0, # of connection points: 2
#     Edge 122, Type (0, 0), BuildingBlock: OJICUG_clean_linker_0, # of connection points: 2
#     Edge 123, Type (0, 0), BuildingBlock: OJICUG_clean_linker_0, # of connection points: 2
#     Edge 124, Type (0, 0), BuildingBlock: OJICUG_clean_linker_0, # of connection points: 2
#     Edge 125, Type (0, 0), BuildingBlock: OJICUG_clean_linker_0, # of connection points: 2
#     Edge 126, Type (0, 0), BuildingBlock: OJICUG_clean_linker_0, # of connection points: 2
#     Edge 127, Type (0, 0), BuildingBlock: OJICUG_clean_linker_0, # of connection points: 2
#     Edge 128, Type (0, 0), BuildingBlock: OJICUG_clean_linker_0, # of connection points: 2
#     Edge 129, Type (0, 0), BuildingBlock: OJICUG_clean_linker_0, # of connection points: 2
#     Edge 130, Type (0, 0), BuildingBlock: OJICUG_clean_linker_0, # of connection points: 2
#     Edge 131, Type (0, 0), BuildingBlock: OJICUG_clean_linker_0, # of connection points: 2
#     Edge 132, Type (0, 0), BuildingBlock: OJICUG_clean_linker_0, # of connection points: 2
#     Edge 133, Type (0, 0), BuildingBlock: OJICUG_clean_linker_0, # of connection points: 2
#     Edge 134, Type (0, 0), BuildingBlock: OJICUG_clean_linker_0, # of connection points: 2
#     Edge 135, Type (0, 0), BuildingBlock: OJICUG_clean_linker_0, # of connection points: 2
#     Edge 136, Type (0, 0), BuildingBlock: OJICUG_clean_linker_0, # of connection points: 2
#     Edge 137, Type (0, 0), BuildingBlock: OJICUG_clean_linker_0, # of connection points: 2
#     Edge 138, Type (0, 0), BuildingBlock: OJICUG_clean_linker_0, # of connection points: 2
#     Edge 139, Type (0, 0), BuildingBlock: OJICUG_clean_linker_0, # of connection points: 2
#     Edge 140, Type (0, 0), BuildingBlock: OJICUG_clean_linker_0, # of connection points: 2
#     Edge 141, Type (0, 0), BuildingBlock: OJICUG_clean_linker_0, # of connection points: 2
#     Edge 142, Type (0, 0), BuildingBlock: OJICUG_clean_linker_0, # of connection points: 2
#     Edge 143, Type (0, 0), BuildingBlock: OJICUG_clean_linker_0, # of connection points: 2
# Relax obj value: 0.210
# Max RMSD: 0.253
# Mean RMSD: 0.232
data_MOF--net-rho--node1-AZAVOO_clean_sbu_0--edge1-OJICUG_clean_linker_0
_symmetry_space_group_name_H-M    P1
_symmetry_Int_Tables_number       1
_symmetry_cell_setting            triclinic
loop_
_symmetry_equiv_pos_as_xyz
'x, y, z'
_cell_length_a     52.529838
_cell_length_b     51.490627
_cell_length_c     51.426586
_cell_angle_alpha  90.241036
_cell_angle_beta   89.941408
_cell_angle_gamma 90.256207
loop_
_atom_site_label
_atom_site_type_symbol
_atom_site_fract_x
_atom_site_fract_y
_atom_site_fract_z
_atom_type_partial_charge
Mg0 Mg 0.12228 0.2657 0.43856 0.0
O1 O 0.08076 0.25507 0.42883 0.0
O2 O 0.06951 0.22085 0.45297 0.0
Mg3 Mg 0.10371 0.20859 0.47676 0.0
C4 C 0.0644 0.2381 0.43605 0.0
C5 C 0.13863 0.29107 0.38446 0.0
O6 O 0.15487 0.27181 0.38301 0.0
O7 O 0.13545 0.23172 0.41372 0.0
O8 O 0.12327 0.19824 0.43837 0.0
O9 O 0.10838 0.28994 0.4719 0.0
O10 O 0.11843 0.2484 0.47463 0.0
C11 C 0.13328 0.20738 0.41766 0.0
C12 C 0.10924 0.26884 0.48549 0.0
O13 O 0.12385 0.29303 0.404 0.0
Mg14 Mg 0.78028 0.07576 0.3777 0.0
O15 O 0.7585 0.07325 0.41663 0.0
O16 O 0.73151 0.03973 0.41312 0.0
Mg17 Mg 0.73476 0.02176 0.37264 0.0
C18 C 0.74138 0.05834 0.4262 0.0
C19 C 0.79802 0.13166 0.3697 0.0
O20 O 0.78927 0.12489 0.34672 0.0
O21 O 0.74584 0.09391 0.35767 0.0
O22 O 0.72048 0.05913 0.35434 0.0
O23 O 0.80802 0.04624 0.3931 0.0
O24 O 0.77348 0.03701 0.37038 0.0
C25 C 0.72521 0.08308 0.35011 0.0
C26 C 0.79263 0.029 0.38345 0.0
O27 O 0.79652 0.11546 0.38824 0.0
Mg28 Mg 0.88366 0.7256 0.44255 0.0
O29 O 0.92543 0.73589 0.43441 0.0
O30 O 0.93575 0.77276 0.45496 0.0
Mg31 Mg 0.8997 0.78726 0.47455 0.0
C32 C 0.94156 0.75355 0.44041 0.0
C33 C 0.87089 0.69024 0.39304 0.0
O34 O 0.8513 0.7057 0.38999 0.0
O35 O 0.87184 0.75553 0.41263 0.0
O36 O 0.88268 0.79201 0.43364 0.0
O37 O 0.8951 0.70569 0.4787 0.0
O38 O 0.88497 0.74729 0.47704 0.0
C39 C 0.87395 0.78019 0.4136 0.0
C40 C 0.89347 0.728 0.49027 0.0
O41 O 0.88609 0.69396 0.41191 0.0
Mg42 Mg 0.22825 0.90872 0.37606 0.0
O43 O 0.24486 0.91408 0.41753 0.0
O44 O 0.27114 0.94831 0.41559 0.0
Mg45 Mg 0.27286 0.96369 0.37418 0.0
C46 C 0.26016 0.93024 0.42838 0.0
C47 C 0.21006 0.85351 0.36667 0.0
O48 O 0.21995 0.86065 0.34432 0.0
O49 O 0.26509 0.89048 0.36105 0.0
O50 O 0.28997 0.92579 0.35986 0.0
O51 O 0.19835 0.93803 0.38679 0.0
O52 O 0.23506 0.94721 0.3678 0.0
C53 C 0.28632 0.90156 0.356 0.0
C54 C 0.21444 0.95522 0.37841 0.0
O55 O 0.21126 0.86918 0.38582 0.0
Mg56 Mg 0.11752 0.74645 0.60657 0.0
O57 O 0.11151 0.73053 0.56392 0.0
O58 O 0.07917 0.70189 0.56459 0.0
Mg59 Mg 0.07596 0.68947 0.60623 0.0
C60 C 0.0954 0.71568 0.55225 0.0
C61 C 0.16196 0.7821 0.61366 0.0
O62 O 0.15718 0.77241 0.63677 0.0
O63 O 0.14423 0.71424 0.62085 0.0
O64 O 0.11879 0.68824 0.6012 0.0
O65 O 0.08317 0.7707 0.60216 0.0
O66 O 0.08199 0.73092 0.61835 0.0
C67 C 0.13107 0.69355 0.62166 0.0
C68 C 0.07008 0.7518 0.61206 0.0
O69 O 0.14958 0.77331 0.59432 0.0
Mg70 Mg 0.28233 0.13666 0.5924 0.0
O71 O 0.256 0.101 0.59198 0.0
O72 O 0.22804 0.1044 0.55934 0.0
Mg73 Mg 0.23699 0.14263 0.53862 0.0
C74 C 0.23726 0.09216 0.57868 0.0
C75 C 0.30585 0.14548 0.64626 0.0
O76 O 0.30152 0.16935 0.63854 0.0
O77 O 0.25 0.16039 0.60991 0.0
O78 O 0.22473 0.1648 0.57523 0.0
O79 O 0.30897 0.11622 0.56535 0.0
O80 O 0.27617 0.14014 0.55302 0.0
C81 C 0.23015 0.16949 0.59901 0.0
C82 C 0.29421 0.12437 0.54704 0.0
O83 O 0.29827 0.12673 0.6321 0.0
Mg84 Mg 0.90071 0.22452 0.6121 0.0
O85 O 0.90958 0.23899 0.5707 0.0
O86 O 0.94111 0.26803 0.57411 0.0
Mg87 Mg 0.9535 0.27133 0.6164 0.0
C88 C 0.92487 0.25543 0.56053 0.0
C89 C 0.84513 0.20819 0.61375 0.0
O90 O 0.84823 0.22119 0.63557 0.0
O91 O 0.88067 0.26282 0.62225 0.0
O92 O 0.91496 0.28859 0.62588 0.0
O93 O 0.93179 0.19356 0.61032 0.0
O94 O 0.93655 0.23361 0.62478 0.0
C95 C 0.89095 0.28483 0.62708 0.0
C96 C 0.9462 0.21125 0.62066 0.0
O97 O 0.86391 0.20595 0.59833 0.0
Mg98 Mg 0.73243 0.87029 0.60498 0.0
O99 O 0.73749 0.91488 0.60477 0.0
O100 O 0.76966 0.92319 0.57748 0.0
Mg101 Mg 0.78432 0.88551 0.55969 0.0
C102 C 0.7524 0.9308 0.59322 0.0
C103 C 0.70482 0.85043 0.65292 0.0
O104 O 0.71725 0.82998 0.64445 0.0
O105 O 0.76864 0.86414 0.62926 0.0
O106 O 0.79839 0.87174 0.59906 0.0
O107 O 0.70609 0.87302 0.57005 0.0
O108 O 0.74769 0.86765 0.56863 0.0
C109 C 0.79194 0.86498 0.622 0.0
C110 C 0.72667 0.87043 0.55642 0.0
O111 O 0.70735 0.87179 0.64086 0.0
Mg112 Mg 0.40594 0.0956 0.23798 0.0
O113 O 0.40521 0.05158 0.22924 0.0
O114 O 0.42874 0.04682 0.19336 0.0
Mg115 Mg 0.44648 0.08532 0.18112 0.0
C116 C 0.41473 0.03737 0.2113 0.0
C117 C 0.35967 0.11411 0.26576 0.0
O118 O 0.36817 0.13411 0.25248 0.0
O119 O 0.37997 0.10484 0.20387 0.0
O120 O 0.40756 0.1023 0.17094 0.0
O121 O 0.44096 0.09169 0.26299 0.0
O122 O 0.44132 0.09961 0.22094 0.0
C123 C 0.38555 0.10789 0.17994 0.0
C124 C 0.45389 0.09612 0.24199 0.0
O125 O 0.3717 0.09279 0.26439 0.0
Mg126 Mg 0.87552 0.38664 0.25759 0.0
O127 O 0.88819 0.42955 0.26824 0.0
O128 O 0.92319 0.42728 0.29311 0.0
Mg129 Mg 0.91966 0.38769 0.31114 0.0
C130 C 0.90739 0.44029 0.27954 0.0
C131 C 0.83399 0.38688 0.2155 0.0
O132 O 0.83901 0.36192 0.21613 0.0
O133 O 0.84931 0.37953 0.29327 0.0
O134 O 0.87886 0.40128 0.31229 0.0
O135 O 0.90839 0.38553 0.23066 0.0
O136 O 0.91067 0.37236 0.27157 0.0
C137 C 0.86081 0.38517 0.31425 0.0
C138 C 0.92199 0.37707 0.24978 0.0
O139 O 0.84426 0.40195 0.23212 0.0
Mg140 Mg 0.61054 0.90086 0.2349 0.0
O141 O 0.612 0.94421 0.22391 0.0
O142 O 0.58516 0.94798 0.19046 0.0
Mg143 Mg 0.56389 0.91031 0.18269 0.0
C144 C 0.6014 0.95771 0.20618 0.0
C145 C 0.65973 0.88268 0.25851 0.0
O146 O 0.6518 0.86291 0.24441 0.0
O147 O 0.63207 0.88821 0.19825 0.0
O148 O 0.59995 0.88981 0.16995 0.0
O149 O 0.578 0.90691 0.26335 0.0
O150 O 0.57382 0.89772 0.22178 0.0
C151 C 0.62261 0.88322 0.17589 0.0
C152 C 0.56324 0.90181 0.24382 0.0
O153 O 0.64689 0.90354 0.25834 0.0
Mg154 Mg 0.12338 0.56734 0.2469 0.0
O155 O 0.08063 0.57355 0.23967 0.0
O156 O 0.06678 0.54496 0.20997 0.0
Mg157 Mg 0.10097 0.52169 0.1965 0.0
C158 C 0.06286 0.56371 0.22574 0.0
C159 C 0.13144 0.60173 0.29526 0.0
O160 O 0.13783 0.57857 0.30359 0.0
O161 O 0.13233 0.58913 0.20923 0.0
O162 O 0.11745 0.55961 0.18097 0.0
O163 O 0.11388 0.53616 0.27556 0.0
O164 O 0.11999 0.52904 0.23368 0.0
C165 C 0.12744 0.58172 0.18602 0.0
C166 C 0.1136 0.52018 0.25608 0.0
O167 O 0.12499 0.60437 0.27158 0.0
Mg168 Mg 0.37852 0.88869 0.75175 0.0
O169 O 0.3872 0.93158 0.7661 0.0
O170 O 0.41594 0.92902 0.79838 0.0
Mg171 Mg 0.41112 0.88858 0.8136 0.0
C172 C 0.40323 0.94218 0.78188 0.0
C173 C 0.34197 0.88608 0.70528 0.0
O174 O 0.34488 0.8612 0.70991 0.0
O175 O 0.34601 0.87904 0.78082 0.0
O176 O 0.37045 0.90032 0.80659 0.0
O177 O 0.41553 0.89061 0.73191 0.0
O178 O 0.4112 0.87581 0.77214 0.0
C179 C 0.35321 0.88339 0.80396 0.0
C180 C 0.42595 0.88264 0.7532 0.0
O181 O 0.35192 0.90271 0.72057 0.0
Mg182 Mg 0.11394 0.46338 0.70368 0.0
O183 O 0.07653 0.44943 0.72157 0.0
O184 O 0.06686 0.47242 0.75707 0.0
Mg185 Mg 0.10039 0.50015 0.7633 0.0
C186 C 0.06176 0.45455 0.74058 0.0
C187 C 0.12834 0.40836 0.67967 0.0
O188 O 0.14921 0.41113 0.69347 0.0
O189 O 0.13526 0.44194 0.73508 0.0
O190 O 0.1251 0.4644 0.77091 0.0
O191 O 0.09213 0.49354 0.68224 0.0
O192 O 0.10908 0.49933 0.72125 0.0
C193 C 0.13624 0.44548 0.75958 0.0
C194 C 0.09481 0.50785 0.70286 0.0
O195 O 0.11246 0.42691 0.67864 0.0
Mg196 Mg 0.63933 0.06261 0.7608 0.0
O197 O 0.59707 0.06267 0.75118 0.0
O198 O 0.58529 0.02827 0.7275 0.0
Mg199 Mg 0.62227 0.00573 0.72068 0.0
C200 C 0.58009 0.04944 0.7393 0.0
C201 C 0.64731 0.11678 0.79238 0.0
O202 O 0.66925 0.10729 0.79992 0.0
O203 O 0.6478 0.07615 0.71905 0.0
O204 O 0.63666 0.0402 0.69711 0.0
O205 O 0.63059 0.03727 0.7951 0.0
O206 O 0.63992 0.0224 0.75589 0.0
C207 C 0.6449 0.06356 0.69771 0.0
C208 C 0.6326 0.01777 0.77928 0.0
O209 O 0.63359 0.10391 0.77645 0.0
Mg210 Mg 0.84286 0.57243 0.71409 0.0
O211 O 0.88099 0.58735 0.7301 0.0
O212 O 0.89217 0.56332 0.76416 0.0
Mg213 Mg 0.86123 0.53216 0.76965 0.0
C214 C 0.89635 0.58204 0.7485 0.0
C215 C 0.8314 0.63099 0.69661 0.0
O216 O 0.8178 0.63282 0.71796 0.0
O217 O 0.82229 0.59082 0.74827 0.0
O218 O 0.83257 0.56354 0.78035 0.0
O219 O 0.86392 0.54377 0.68926 0.0
O220 O 0.84966 0.5358 0.72887 0.0
C221 C 0.82054 0.58322 0.77176 0.0
C222 C 0.86237 0.52822 0.70895 0.0
O223 O 0.84126 0.60935 0.69028 0.0
Mg224 Mg 0.22019 0.34754 0.06618 0.0
O225 O 0.23057 0.39107 0.06623 0.0
O226 O 0.26479 0.39665 0.04093 0.0
Mg227 Mg 0.27754 0.35719 0.02611 0.0
C228 C 0.24727 0.4057 0.05552 0.0
C229 C 0.18307 0.33271 0.10996 0.0
O230 O 0.18897 0.31026 0.09935 0.0
O231 O 0.25282 0.3383 0.09402 0.0
O232 O 0.28606 0.34451 0.06751 0.0
O233 O 0.19779 0.3537 0.02926 0.0
O234 O 0.23837 0.34306 0.03056 0.0
C235 C 0.27675 0.33849 0.08963 0.0
C236 C 0.21895 0.34952 0.017 0.0
O237 O 0.19275 0.35328 0.10045 0.0
Mg238 Mg 0.22687 0.58734 0.85671 0.0
O239 O 0.21191 0.58379 0.89851 0.0
O240 O 0.18269 0.55212 0.89884 0.0
Mg241 Mg 0.17804 0.53644 0.85756 0.0
C242 C 0.1959 0.56946 0.91053 0.0
C243 C 0.2492 0.64343 0.85113 0.0
O244 O 0.23861 0.64083 0.82812 0.0
O245 O 0.19095 0.60844 0.84374 0.0
O246 O 0.16267 0.5759 0.844 0.0
O247 O 0.25543 0.55721 0.86625 0.0
O248 O 0.21751 0.54837 0.8497 0.0
C249 C 0.16847 0.59968 0.83997 0.0
C250 C 0.23842 0.54011 0.85975 0.0
O251 O 0.24681 0.62519 0.86752 0.0
Mg252 Mg 0.38194 0.24617 0.91359 0.0
O253 O 0.42356 0.25816 0.90643 0.0
O254 O 0.43314 0.29235 0.93144 0.0
Mg255 Mg 0.39708 0.30276 0.95416 0.0
C256 C 0.43938 0.27526 0.91458 0.0
C257 C 0.38102 0.19531 0.88234 0.0
O258 O 0.37601 0.18736 0.90605 0.0
O259 O 0.36792 0.28001 0.88952 0.0
O260 O 0.37666 0.31338 0.91605 0.0
O261 O 0.3945 0.22132 0.94616 0.0
O262 O 0.38328 0.26242 0.9509 0.0
C263 C 0.36754 0.30424 0.89484 0.0
C264 C 0.39212 0.24149 0.96105 0.0
O265 O 0.38374 0.21948 0.87825 0.0
Mg266 Mg 0.74559 0.41732 0.88125 0.0
O267 O 0.76324 0.41455 0.92242 0.0
O268 O 0.79334 0.44542 0.92427 0.0
Mg269 Mg 0.79669 0.46608 0.8855 0.0
C270 C 0.78036 0.42731 0.93487 0.0
C271 C 0.72029 0.36603 0.86466 0.0
O272 O 0.73032 0.37483 0.84298 0.0
O273 O 0.77964 0.39714 0.86206 0.0
O274 O 0.80883 0.42866 0.86516 0.0
O275 O 0.71944 0.44737 0.89777 0.0
O276 O 0.7566 0.45619 0.87958 0.0
C277 C 0.80204 0.40594 0.8579 0.0
C278 C 0.73722 0.46409 0.89264 0.0
O279 O 0.72401 0.37879 0.88559 0.0
Mg280 Mg 0.58562 0.72914 0.94128 0.0
O281 O 0.54409 0.72272 0.92899 0.0
O282 O 0.52892 0.68919 0.95182 0.0
Mg283 Mg 0.56009 0.67472 0.97871 0.0
C284 C 0.52614 0.70694 0.93483 0.0
C285 C 0.61064 0.75771 0.89204 0.0
O286 O 0.62737 0.73886 0.89118 0.0
O287 O 0.59686 0.69416 0.91762 0.0
O288 O 0.5832 0.66175 0.94283 0.0
O289 O 0.57332 0.75571 0.97216 0.0
O290 O 0.57806 0.71334 0.97768 0.0
C291 C 0.59457 0.66999 0.92243 0.0
C292 C 0.57115 0.73554 0.98693 0.0
O293 O 0.59239 0.75704 0.90827 0.0
Mg294 Mg 0.76019 0.65764 0.10662 0.0
O295 O 0.74704 0.61685 0.0952 0.0
O296 O 0.72046 0.61755 0.06132 0.0
Mg297 Mg 0.71493 0.66064 0.05246 0.0
C298 C 0.73314 0.60522 0.07839 0.0
C299 C 0.78316 0.65619 0.16237 0.0
O300 O 0.77472 0.68017 0.16186 0.0
O301 O 0.72205 0.66497 0.12706 0.0
O302 O 0.6964 0.66598 0.09234 0.0
O303 O 0.79078 0.65431 0.07646 0.0
O304 O 0.75229 0.67018 0.06946 0.0
C305 C 0.69997 0.66722 0.11688 0.0
C306 C 0.77394 0.66293 0.06033 0.0
O307 O 0.77887 0.64146 0.14298 0.0
Mg308 Mg 0.36163 0.74618 0.10811 0.0
O309 O 0.37005 0.75729 0.06466 0.0
O310 O 0.40107 0.78731 0.06396 0.0
Mg311 Mg 0.39802 0.80577 0.10379 0.0
C312 C 0.38648 0.77107 0.05233 0.0
C313 C 0.33791 0.69376 0.10581 0.0
O314 O 0.35645 0.69261 0.1229 0.0
O315 O 0.3305 0.77682 0.11608 0.0
O316 O 0.35635 0.80044 0.09425 0.0
O317 O 0.39823 0.72517 0.10878 0.0
O318 O 0.3953 0.76615 0.12152 0.0
C319 C 0.34022 0.79909 0.11243 0.0
C320 C 0.40922 0.74586 0.11777 0.0
O321 O 0.33343 0.71535 0.0949 0.0
Mg322 Mg 0.60928 0.26086 0.09353 0.0
O323 O 0.6054 0.24768 0.05043 0.0
O324 O 0.58076 0.2122 0.05115 0.0
Mg325 Mg 0.56842 0.20297 0.09242 0.0
C326 C 0.59394 0.22897 0.03878 0.0
C327 C 0.65123 0.29771 0.10547 0.0
O328 O 0.64458 0.2868 0.12753 0.0
O329 O 0.63721 0.22812 0.10326 0.0
O330 O 0.6095 0.19504 0.10406 0.0
O331 O 0.57347 0.28461 0.09126 0.0
O332 O 0.57498 0.24355 0.10298 0.0
C333 C 0.63196 0.20417 0.10704 0.0
C334 C 0.56162 0.26393 0.09896 0.0
O335 O 0.64077 0.28972 0.08464 0.0
Mg336 Mg 0.92047 0.76906 0.65458 0.0
O337 O 0.91759 0.75669 0.6113 0.0
O338 O 0.94166 0.72132 0.60571 0.0
Mg339 Mg 0.95716 0.7092 0.64489 0.0
C340 C 0.92692 0.7388 0.59682 0.0
C341 C 0.87015 0.80167 0.66428 0.0
O342 O 0.86733 0.78613 0.68428 0.0
O343 O 0.89172 0.73726 0.6643 0.0
O344 O 0.91576 0.70237 0.65617 0.0
O345 O 0.95614 0.79073 0.64522 0.0
O346 O 0.95487 0.74964 0.65747 0.0
C347 C 0.89458 0.71273 0.66238 0.0
C348 C 0.9678 0.76889 0.64855 0.0
O349 O 0.88912 0.79883 0.64915 0.0
Mg350 Mg 0.23101 0.9355 0.59568 0.0
O351 O 0.24532 0.93282 0.55366 0.0
O352 O 0.2768 0.96163 0.54909 0.0
Mg353 Mg 0.28123 0.98446 0.58731 0.0
C354 C 0.26247 0.94373 0.53988 0.0
C355 C 0.2129 0.88137 0.61069 0.0
O356 O 0.22415 0.89009 0.63182 0.0
O357 O 0.26681 0.91633 0.61167 0.0
O358 O 0.29484 0.94906 0.60974 0.0
O359 O 0.20335 0.96769 0.58469 0.0
O360 O 0.24251 0.97352 0.59892 0.0
C361 C 0.28856 0.92621 0.61696 0.0
C362 C 0.22161 0.9834 0.5912 0.0
O363 O 0.21148 0.89618 0.59103 0.0
Mg364 Mg 0.0923 0.24356 0.64945 0.0
O365 O 0.08735 0.25213 0.60663 0.0
O366 O 0.05129 0.27318 0.59818 0.0
Mg367 Mg 0.03284 0.27859 0.63833 0.0
C368 C 0.07207 0.26277 0.59075 0.0
C369 C 0.14806 0.21923 0.65326 0.0
O370 O 0.14119 0.21152 0.67656 0.0
O371 O 0.10348 0.28611 0.65584 0.0
O372 O 0.0662 0.30552 0.64836 0.0
O373 O 0.06971 0.2069 0.64347 0.0
O374 O 0.05337 0.24499 0.65458 0.0
C375 C 0.08989 0.30655 0.6539 0.0
C376 C 0.04992 0.22109 0.64803 0.0
O377 O 0.13278 0.23254 0.63969 0.0
Mg378 Mg 0.73099 0.09043 0.59433 0.0
O379 O 0.72587 0.08227 0.5501 0.0
O380 O 0.69942 0.04833 0.5445 0.0
Mg381 Mg 0.679 0.04353 0.58331 0.0
C382 C 0.71503 0.06523 0.53553 0.0
C383 C 0.75725 0.14235 0.60356 0.0
O384 O 0.74157 0.14059 0.62341 0.0
O385 O 0.69627 0.11717 0.59732 0.0
O386 O 0.67473 0.08698 0.57878 0.0
O387 O 0.7574 0.0573 0.59574 0.0
O388 O 0.71607 0.05245 0.60262 0.0
C389 C 0.67671 0.10273 0.59769 0.0
C390 C 0.7382 0.04199 0.59971 0.0
O391 O 0.75681 0.12467 0.5863 0.0
Mg392 Mg 0.91537 0.24751 0.39007 0.0
O393 O 0.9148 0.25666 0.43403 0.0
O394 O 0.94292 0.28864 0.44078 0.0
Mg395 Mg 0.95978 0.30117 0.40203 0.0
C396 C 0.92679 0.27211 0.44926 0.0
C397 C 0.86469 0.22037 0.37561 0.0
O398 O 0.86886 0.2342 0.35461 0.0
O399 O 0.89193 0.2833 0.38028 0.0
O400 O 0.92077 0.31458 0.38723 0.0
O401 O 0.94708 0.22034 0.39756 0.0
O402 O 0.95258 0.2617 0.38742 0.0
C403 C 0.89851 0.30717 0.38033 0.0
C404 C 0.96224 0.24007 0.39499 0.0
O405 O 0.88005 0.22242 0.39456 0.0
Mg406 Mg 0.74981 0.86803 0.39788 0.0
O407 O 0.76752 0.90841 0.39958 0.0
O408 O 0.7955 0.91253 0.43194 0.0
Mg409 Mg 0.79655 0.87258 0.45082 0.0
C410 C 0.7836 0.92182 0.41254 0.0
C411 C 0.73142 0.86299 0.34019 0.0
O412 O 0.74251 0.84027 0.34218 0.0
O413 O 0.786 0.85238 0.37862 0.0
O414 O 0.81195 0.85598 0.41296 0.0
O415 O 0.72042 0.8785 0.42837 0.0
O416 O 0.75844 0.86235 0.43631 0.0
C417 C 0.80781 0.84986 0.38924 0.0
C418 C 0.73711 0.87068 0.44507 0.0
O419 O 0.73174 0.87843 0.35948 0.0
Mg420 Mg 0.08793 0.74126 0.38346 0.0
O421 O 0.09384 0.72777 0.42572 0.0
O422 O 0.06562 0.69604 0.43285 0.0
Mg423 Mg 0.04292 0.68819 0.39594 0.0
C424 C 0.08341 0.71109 0.4407 0.0
C425 C 0.13947 0.76762 0.36705 0.0
O426 O 0.13431 0.75549 0.34514 0.0
O427 O 0.10784 0.70559 0.36625 0.0
O428 O 0.07871 0.67478 0.37431 0.0
O429 O 0.05843 0.76842 0.39826 0.0
O430 O 0.05018 0.72855 0.3844 0.0
C431 C 0.10005 0.68208 0.36489 0.0
C432 C 0.04229 0.74954 0.39536 0.0
O433 O 0.12461 0.7647 0.38632 0.0
Mg434 Mg 0.26063 0.1148 0.39736 0.0
O435 O 0.24222 0.07458 0.39702 0.0
O436 O 0.21768 0.06884 0.43207 0.0
Mg437 Mg 0.22009 0.10665 0.45502 0.0
C438 C 0.22702 0.06076 0.41063 0.0
C439 C 0.28233 0.12803 0.34347 0.0
O440 O 0.27892 0.15148 0.35302 0.0
O441 O 0.22309 0.1322 0.3841 0.0
O442 O 0.20082 0.12658 0.42083 0.0
O443 O 0.29348 0.1014 0.42151 0.0
O444 O 0.25689 0.11593 0.43713 0.0
C445 C 0.20263 0.13431 0.39732 0.0
C446 C 0.27903 0.10632 0.44129 0.0
O447 O 0.27476 0.10862 0.35648 0.0
Mg448 Mg 0.58041 0.85895 0.7653 0.0
O449 O 0.59177 0.89982 0.7775 0.0
O450 O 0.56931 0.91365 0.81151 0.0
Mg451 Mg 0.54227 0.87993 0.8213 0.0
C452 C 0.58647 0.91718 0.79433 0.0
C453 C 0.62901 0.83969 0.73362 0.0
O454 O 0.62397 0.81706 0.74419 0.0
O455 O 0.60177 0.84145 0.79948 0.0
O456 O 0.57571 0.85368 0.83169 0.0
O457 O 0.54917 0.87431 0.74039 0.0
O458 O 0.54452 0.86358 0.78166 0.0
C459 C 0.59526 0.84145 0.82342 0.0
C460 C 0.53464 0.87236 0.76065 0.0
O461 O 0.61503 0.85903 0.73897 0.0
Mg462 Mg 0.03588 0.6556 0.75757 0.0
O463 O 0.04378 0.61599 0.73923 0.0
O464 O 0.01927 0.6078 0.70465 0.0
Mg465 Mg -0.00191 0.64584 0.69833 0.0
C466 C 0.03656 0.60113 0.72069 0.0
C467 C 0.09171 0.65766 0.78534 0.0
O468 O 0.09798 0.67639 0.76926 0.0
O469 O 0.06161 0.67284 0.72615 0.0
O470 O 0.0381 0.66296 0.69123 0.0
O471 O 0.00393 0.63839 0.77983 0.0
O472 O -0.00059 0.65449 0.74038 0.0
C473 C 0.05847 0.67188 0.70158 0.0
C474 C 0.98984 0.6415 0.75949 0.0
O475 O 0.06939 0.64804 0.78461 0.0
Mg476 Mg 0.43346 0.10698 0.74598 0.0
O477 O 0.42344 0.06574 0.76001 0.0
O478 O 0.45009 0.05712 0.79267 0.0
Mg479 Mg 0.47606 0.09187 0.80013 0.0
C480 C 0.43195 0.0505 0.77747 0.0
C481 C 0.38498 0.13003 0.72188 0.0
O482 O 0.39447 0.15008 0.73451 0.0
O483 O 0.41424 0.12537 0.78133 0.0
O484 O 0.44159 0.11573 0.81317 0.0
O485 O 0.4629 0.08956 0.7195 0.0
O486 O 0.47035 0.10325 0.75955 0.0
C487 C 0.42114 0.12631 0.80511 0.0
C488 C 0.47849 0.09191 0.73888 0.0
O489 O 0.39664 0.10847 0.7228 0.0
Mg490 Mg 0.9246 0.37701 0.75061 0.0
O491 O 0.91286 0.41698 0.73532 0.0
O492 O 0.93567 0.42737 0.70009 0.0
Mg493 Mg 0.96021 0.39234 0.6911 0.0
C494 C 0.9187 0.43267 0.71703 0.0
C495 C 0.87191 0.36509 0.78256 0.0
O496 O 0.86623 0.34682 0.7656 0.0
O497 O 0.89998 0.35862 0.71897 0.0
O498 O 0.92298 0.36985 0.68416 0.0
O499 O 0.9559 0.39554 0.77291 0.0
O500 O 0.95997 0.38163 0.7324 0.0
C501 C 0.90333 0.3593 0.69439 0.0
C502 C 0.96944 0.3941 0.75194 0.0
O503 O 0.89222 0.37834 0.77994 0.0
Mg504 Mg 0.60899 0.12516 0.23942 0.0
O505 O 0.61078 0.08268 0.22505 0.0
O506 O 0.58496 0.07909 0.19072 0.0
Mg507 Mg 0.56794 0.1185 0.18232 0.0
C508 C 0.60049 0.06923 0.20693 0.0
C509 C 0.65723 0.13176 0.27753 0.0
O510 O 0.65687 0.15674 0.27251 0.0
O511 O 0.63523 0.13861 0.20622 0.0
O512 O 0.60792 0.13351 0.1733 0.0
O513 O 0.5755 0.1145 0.26383 0.0
O514 O 0.57256 0.12886 0.22353 0.0
C515 C 0.62989 0.13964 0.18203 0.0
C516 C 0.56151 0.11923 0.24373 0.0
O517 O 0.64172 0.11649 0.26622 0.0
Mg518 Mg 0.91513 0.61017 0.25082 0.0
O519 O 0.91218 0.56657 0.26168 0.0
O520 O 0.944 0.56001 0.28969 0.0
Mg521 Mg 0.96611 0.59728 0.29763 0.0
C522 C 0.92517 0.55162 0.27635 0.0
C523 C 0.86338 0.63064 0.23387 0.0
O524 O 0.87284 0.64951 0.24823 0.0
O525 O 0.89818 0.6225 0.28984 0.0
O526 O 0.93104 0.61567 0.31646 0.0
O527 O 0.943 0.59963 0.21946 0.0
O528 O 0.95365 0.61062 0.25954 0.0
C529 C 0.90836 0.62348 0.31236 0.0
C530 C 0.96048 0.60235 0.23703 0.0
O531 O 0.87606 0.60976 0.23146 0.0
Mg532 Mg 0.40948 0.87016 0.25077 0.0
O533 O 0.40721 0.91277 0.23622 0.0
O534 O 0.43221 0.91509 0.20108 0.0
Mg535 Mg 0.44904 0.87554 0.19248 0.0
C536 C 0.41721 0.92561 0.21752 0.0
C537 C 0.36091 0.86072 0.28617 0.0
O538 O 0.36072 0.83731 0.27593 0.0
O539 O 0.38267 0.85639 0.21821 0.0
O540 O 0.4089 0.86076 0.18419 0.0
O541 O 0.44356 0.88119 0.27427 0.0
O542 O 0.44505 0.86637 0.23387 0.0
C543 C 0.38728 0.85482 0.19386 0.0
C544 C 0.45677 0.87625 0.2536 0.0
O545 O 0.37719 0.87739 0.27864 0.0
Mg546 Mg 0.07787 0.35439 0.24134 0.0
O547 O 0.08317 0.39803 0.24886 0.0
O548 O 0.05986 0.40978 0.28329 0.0
Mg549 Mg 0.03945 0.37371 0.29824 0.0
C550 C 0.07537 0.4152 0.26498 0.0
C551 C 0.11305 0.33516 0.19725 0.0
O552 O 0.09801 0.31509 0.20118 0.0
O553 O 0.10412 0.34518 0.27588 0.0
O554 O 0.07807 0.35695 0.30833 0.0
O555 O 0.04242 0.36195 0.21787 0.0
O556 O 0.04291 0.35508 0.26014 0.0
C557 C 0.0992 0.3479 0.30013 0.0
C558 C 0.03011 0.36034 0.23964 0.0
O559 O 0.11042 0.35515 0.21159 0.0
Mg560 Mg 0.74307 0.6296 0.91034 0.0
O561 O 0.74359 0.58615 0.91708 0.0
O562 O 0.72327 0.57487 0.95331 0.0
Mg563 Mg 0.7106 0.61357 0.971 0.0
C564 C 0.73543 0.56891 0.93269 0.0
C565 C 0.76383 0.63469 0.85168 0.0
O566 O 0.76312 0.66007 0.85419 0.0
O567 O 0.7017 0.62614 0.89784 0.0
O568 O 0.68377 0.61712 0.9363 0.0
O569 O 0.77829 0.63558 0.93441 0.0
O570 O 0.73868 0.63717 0.94923 0.0
C571 C 0.68223 0.62099 0.91181 0.0
C572 C 0.76267 0.63913 0.95358 0.0
O573 O 0.75684 0.62029 0.87032 0.0
Mg574 Mg 0.73405 0.44527 0.09505 0.0
O575 O 0.75358 0.43662 0.0563 0.0
O576 O 0.78882 0.46079 0.05401 0.0
Mg577 Mg 0.79034 0.48745 0.08986 0.0
C578 C 0.77379 0.44368 0.04448 0.0
C579 C 0.70821 0.39373 0.11014 0.0
O580 O 0.71771 0.40157 0.13248 0.0
O581 O 0.76483 0.42403 0.11799 0.0
O582 O 0.79616 0.45359 0.11748 0.0
O583 O 0.71184 0.47871 0.07732 0.0
O584 O 0.74935 0.48219 0.09598 0.0
C585 C 0.7865 0.43236 0.1257 0.0
C586 C 0.73081 0.49325 0.08442 0.0
O587 O 0.7109 0.40808 0.09029 0.0
Mg588 Mg 0.56068 0.74096 0.15567 0.0
O589 O 0.55746 0.74147 0.11116 0.0
O590 O 0.53278 0.77469 0.09937 0.0
Mg591 Mg 0.52365 0.79761 0.13575 0.0
C592 C 0.54604 0.75473 0.0938 0.0
C593 C 0.61238 0.71158 0.16523 0.0
O594 O 0.61493 0.72918 0.18363 0.0
O595 O 0.59051 0.77316 0.1534 0.0
O596 O 0.5666 0.80587 0.13911 0.0
O597 O 0.52455 0.71848 0.15633 0.0
O598 O 0.52635 0.76138 0.15796 0.0
C599 C 0.5882 0.79634 0.14519 0.0
C600 C 0.51291 0.74057 0.15508 0.0
O601 O 0.59203 0.71096 0.15186 0.0
Mg602 Mg 0.23501 0.56512 0.0758 0.0
O603 O 0.2186 0.56947 0.03455 0.0
O604 O 0.18523 0.54257 0.0319 0.0
Mg605 Mg 0.1803 0.52128 0.07024 0.0
C606 C 0.20007 0.55945 0.02185 0.0
C607 C 0.2782 0.60143 0.08615 0.0
O608 O 0.28267 0.5806 0.10007 0.0
O609 O 0.20285 0.58852 0.0936 0.0
O610 O 0.17113 0.55958 0.09104 0.0
O611 O 0.25963 0.53232 0.06253 0.0
O612 O 0.22087 0.52747 0.07843 0.0
C613 C 0.17987 0.58178 0.09791 0.0
C614 C 0.24088 0.51706 0.06857 0.0
O615 O 0.25882 0.60157 0.07145 0.0
Mg616 Mg 0.40816 0.25507 0.13069 0.0
O617 O 0.4078 0.2492 0.08619 0.0
O618 O 0.43599 0.21833 0.07608 0.0
Mg619 Mg 0.45251 0.20289 0.11354 0.0
C620 C 0.41944 0.23511 0.06949 0.0
C621 C 0.3529 0.27999 0.1399 0.0
O622 O 0.34889 0.26117 0.1566 0.0
O623 O 0.38359 0.21841 0.13553 0.0
O624 O 0.41254 0.18886 0.12388 0.0
O625 O 0.44087 0.28255 0.12599 0.0
O626 O 0.4448 0.2403 0.13221 0.0
C627 C 0.39 0.19495 0.13087 0.0
C628 C 0.45532 0.26228 0.12701 0.0
O629 O 0.37382 0.28118 0.12753 0.0
Mg630 Mg 0.2419 0.37014 0.85846 0.0
O631 O 0.24615 0.41474 0.86434 0.0
O632 O 0.26864 0.42461 0.90006 0.0
Mg633 Mg 0.29085 0.38723 0.90527 0.0
C634 C 0.25459 0.43127 0.88094 0.0
C635 C 0.19444 0.37935 0.82615 0.0
O636 O 0.18503 0.37151 0.84845 0.0
O637 O 0.27877 0.36435 0.83451 0.0
O638 O 0.2932 0.39242 0.86177 0.0
O639 O 0.2145 0.37047 0.89159 0.0
O640 O 0.25571 0.36357 0.89686 0.0
C641 C 0.29779 0.37364 0.84665 0.0
C642 C 0.23341 0.36622 0.90701 0.0
O643 O 0.21837 0.37897 0.82278 0.0
Mg644 Mg 0.59071 0.25941 0.87094 0.0
O645 O 0.59379 0.24493 0.91293 0.0
O646 O 0.56474 0.21359 0.918 0.0
Mg647 Mg 0.54249 0.20845 0.87994 0.0
C648 C 0.58261 0.22796 0.92695 0.0
C649 C 0.64296 0.2861 0.85715 0.0
O650 O 0.63706 0.27658 0.83418 0.0
O651 O 0.61032 0.22261 0.85456 0.0
O652 O 0.57775 0.19463 0.85782 0.0
O653 O 0.56075 0.28772 0.88419 0.0
O654 O 0.55225 0.24842 0.86943 0.0
C655 C 0.60024 0.20032 0.85023 0.0
C656 C 0.54413 0.26964 0.87963 0.0
O657 O 0.62829 0.2815 0.87626 0.0
Mg658 Mg 0.38198 0.73672 0.88281 0.0
O659 O 0.38199 0.74982 0.92619 0.0
O660 O 0.4156 0.77633 0.93033 0.0
Mg661 Mg 0.43553 0.78174 0.89156 0.0
C662 C 0.39656 0.76431 0.94005 0.0
C663 C 0.32857 0.71939 0.86604 0.0
O664 O 0.33697 0.73189 0.8455 0.0
O665 O 0.36594 0.77558 0.86939 0.0
O666 O 0.39997 0.80122 0.87504 0.0
O667 O 0.40822 0.70467 0.89359 0.0
O668 O 0.421 0.74341 0.88048 0.0
C669 C 0.37687 0.79771 0.8681 0.0
C670 C 0.42663 0.72107 0.88989 0.0
O671 O 0.34239 0.71887 0.88631 0.0
C672 C 0.11455 0.3472 0.34558 0.0
C673 C 0.1164 0.33742 0.3201 0.0
H674 H 0.12027 0.34004 0.38601 0.0
C675 C 0.13028 0.31458 0.31558 0.0
H676 H 0.1043 0.36499 0.34959 0.0
C677 C 0.13959 0.30026 0.33662 0.0
C678 C 0.13494 0.30864 0.36226 0.0
H679 H 0.13194 0.30661 0.29613 0.0
H680 H 0.1485 0.28168 0.33289 0.0
C681 C 0.12359 0.33287 0.36646 0.0
C682 C 0.68413 0.08527 0.32638 0.0
C683 C 0.70689 0.09755 0.33393 0.0
H684 H 0.65097 0.08634 0.30275 0.0
C685 C 0.71255 0.12238 0.32404 0.0
H686 H 0.67892 0.0663 0.33376 0.0
C687 C 0.69616 0.1341 0.30607 0.0
C688 C 0.67412 0.121 0.29764 0.0
H689 H 0.72994 0.13236 0.32951 0.0
H690 H 0.70113 0.15293 0.2982 0.0
C691 C 0.66808 0.09674 0.30841 0.0
C692 C 0.86558 0.67015 0.34875 0.0
C693 C 0.87705 0.67017 0.37343 0.0
H694 H 0.86635 0.65504 0.30984 0.0
C695 C 0.89622 0.65202 0.37869 0.0
H696 H 0.85062 0.68381 0.3442 0.0
C697 C 0.9051 0.63555 0.3592 0.0
C698 C 0.89508 0.63687 0.33392 0.0
H699 H 0.90515 0.65121 0.39765 0.0
H700 H 0.92067 0.62261 0.36369 0.0
C701 C 0.87453 0.65362 0.32911 0.0
C702 C 0.34881 0.88905 0.32316 0.0
C703 C 0.34281 0.86806 0.30679 0.0
H704 H 0.33595 0.91539 0.35228 0.0
C705 C 0.31923 0.85538 0.30965 0.0
H706 H 0.36709 0.89881 0.32185 0.0
C707 C 0.30113 0.86503 0.32723 0.0
C708 C 0.30658 0.88731 0.34217 0.0
H709 H 0.31428 0.83896 0.2974 0.0
H710 H 0.28247 0.85603 0.32794 0.0
C711 C 0.33098 0.89847 0.34073 0.0
C712 C 0.09409 0.7003 0.68483 0.0
C713 C 0.08023 0.67691 0.68422 0.0
H714 H 0.12163 0.72431 0.66521 0.0
C715 C 0.08648 0.65791 0.66573 0.0
H716 H 0.08966 0.71511 0.69913 0.0
C717 C 0.10505 0.66272 0.64706 0.0
C718 C 0.11737 0.68694 0.64594 0.0
H719 H 0.07641 0.63949 0.66525 0.0
H720 H 0.10855 0.64808 0.6323 0.0
C721 C 0.11251 0.70541 0.66563 0.0
C722 C 0.33222 0.16159 0.68347 0.0
C723 C 0.3232 0.14071 0.66835 0.0
H724 H 0.35866 0.17456 0.71234 0.0
C725 C 0.33298 0.11575 0.67282 0.0
H726 H 0.32497 0.18104 0.68063 0.0
C727 C 0.35246 0.11205 0.69092 0.0
C728 C 0.36244 0.13322 0.70499 0.0
H729 H 0.32639 0.09922 0.66156 0.0
H730 H 0.36024 0.09275 0.69324 0.0
C731 C 0.35159 0.15788 0.70163 0.0
C732 C 0.88112 0.33077 0.63211 0.0
C733 C 0.87671 0.30527 0.64048 0.0
H734 H 0.89324 0.36879 0.6435 0.0
C735 C 0.87115 0.30092 0.66684 0.0
H736 H 0.88516 0.33462 0.61181 0.0
C737 C 0.87629 0.32039 0.6852 0.0
C738 C 0.88649 0.34424 0.67697 0.0
H739 H 0.86749 0.28138 0.67371 0.0
H740 H 0.87581 0.31545 0.70565 0.0
C741 C 0.88621 0.35021 0.65034 0.0
C742 C 0.68251 0.82383 0.68676 0.0
C743 C 0.68679 0.84804 0.67489 0.0
H744 H 0.66093 0.80217 0.71467 0.0
C745 C 0.67289 0.86966 0.6835 0.0
H746 H 0.69297 0.80679 0.68062 0.0
C747 C 0.65458 0.86699 0.703 0.0
C748 C 0.64972 0.84264 0.71433 0.0
H749 H 0.67581 0.88859 0.67486 0.0
H750 H 0.64391 0.88401 0.70885 0.0
C751 C 0.66415 0.82116 0.70628 0.0
C752 C 0.32741 0.09562 0.29639 0.0
C753 C 0.33766 0.11714 0.28332 0.0
H754 H 0.30137 0.08212 0.32532 0.0
C755 C 0.32746 0.1419 0.2881 0.0
H756 H 0.33467 0.07627 0.29289 0.0
C757 C 0.30844 0.14531 0.30675 0.0
C758 C 0.29913 0.12399 0.32082 0.0
H759 H 0.33482 0.15886 0.27815 0.0
H760 H 0.30172 0.16477 0.31078 0.0
C761 C 0.30823 0.099 0.31488 0.0
C762 C 0.86625 0.3199 0.34695 0.0
C763 C 0.88186 0.32669 0.36816 0.0
H764 H 0.84695 0.33333 0.31284 0.0
C765 C 0.88531 0.35304 0.37432 0.0
H766 H 0.86324 0.2997 0.34178 0.0
C767 C 0.87589 0.3722 0.35794 0.0
C768 C 0.86306 0.36542 0.33491 0.0
H769 H 0.89694 0.35884 0.39075 0.0
H770 H 0.88049 0.39231 0.36219 0.0
C771 C 0.85695 0.33917 0.33034 0.0
C772 C 0.71158 0.85074 0.29766 0.0
C773 C 0.71601 0.86941 0.31712 0.0
H774 H 0.69041 0.84041 0.26366 0.0
C775 C 0.70394 0.89367 0.31537 0.0
H776 H 0.72074 0.83195 0.29834 0.0
C777 C 0.68659 0.89855 0.29547 0.0
C778 C 0.68092 0.87925 0.27698 0.0
H779 H 0.70717 0.9086 0.32992 0.0
H780 H 0.67684 0.91705 0.29526 0.0
C781 C 0.69417 0.8556 0.2778 0.0
C782 C 0.12729 0.64922 0.30574 0.0
C783 C 0.12807 0.62326 0.31405 0.0
H784 H 0.11873 0.6887 0.316 0.0
C785 C 0.12341 0.61768 0.34037 0.0
H786 H 0.13095 0.65406 0.2856 0.0
C787 C 0.11602 0.63733 0.35753 0.0
C788 C 0.11393 0.66304 0.34891 0.0
H789 H 0.12387 0.59788 0.34738 0.0
H790 H 0.11076 0.63226 0.37725 0.0
C791 C 0.12058 0.66903 0.32316 0.0
C792 C 0.31093 0.87958 0.6688 0.0
C793 C 0.32965 0.89476 0.68116 0.0
H794 H 0.28309 0.87754 0.63838 0.0
C795 C 0.33694 0.91852 0.67016 0.0
H796 H 0.30524 0.861 0.67679 0.0
C797 C 0.32495 0.92758 0.64789 0.0
C798 C 0.30491 0.91339 0.63643 0.0
H799 H 0.35176 0.93032 0.67895 0.0
H800 H 0.33058 0.94643 0.64055 0.0
C801 C 0.29844 0.88895 0.64672 0.0
C802 C 0.09738 0.37949 0.65676 0.0
C803 C 0.1207 0.38248 0.66976 0.0
H804 H 0.06949 0.35335 0.64164 0.0
C805 C 0.13502 0.36022 0.67562 0.0
H806 H 0.08592 0.39619 0.65179 0.0
C807 C 0.1255 0.33541 0.66979 0.0
C808 C 0.10147 0.33248 0.65811 0.0
H809 H 0.15309 0.36188 0.68563 0.0
H810 H 0.13653 0.31858 0.67526 0.0
C811 C 0.08786 0.35483 0.65108 0.0
C812 C 0.67638 0.10591 0.64663 0.0
C813 C 0.66725 0.09437 0.62351 0.0
H814 H 0.6764 0.10533 0.68838 0.0
C815 C 0.64917 0.07433 0.62526 0.0
H816 H 0.69003 0.12172 0.646 0.0
C817 C 0.64153 0.06495 0.64942 0.0
C818 C 0.65147 0.07563 0.67252 0.0
H819 H 0.64121 0.06548 0.60791 0.0
H820 H 0.62798 0.04903 0.64994 0.0
C821 C 0.66851 0.09664 0.67093 0.0
C822 C 0.85674 0.69897 0.68856 0.0
C823 C 0.87317 0.69507 0.6674 0.0
H824 H 0.82995 0.68129 0.71456 0.0
C825 C 0.87137 0.67205 0.65283 0.0
H826 H 0.85774 0.7167 0.69993 0.0
C827 C 0.85541 0.65205 0.66088 0.0
C828 C 0.84123 0.65459 0.68388 0.0
H829 H 0.8835 0.66889 0.63606 0.0
H830 H 0.85573 0.63388 0.65019 0.0
C831 C 0.84084 0.67873 0.69684 0.0
C832 C 0.32022 0.33595 0.10785 0.0
C833 C 0.29463 0.3281 0.10896 0.0
H834 H 0.35871 0.32693 0.11715 0.0
C835 C 0.28781 0.30686 0.12462 0.0
H836 H 0.32594 0.35248 0.0962 0.0
C837 C 0.30674 0.29202 0.13661 0.0
C838 C 0.33256 0.29834 0.13299 0.0
H839 H 0.26819 0.3004 0.12574 0.0
H840 H 0.30126 0.27458 0.14696 0.0
C841 C 0.33899 0.32122 0.11973 0.0
C842 C 0.2913 0.7023 0.84087 0.0
C843 C 0.30555 0.7028 0.864 0.0
H844 H 0.26215 0.68332 0.81875 0.0
C845 C 0.29904 0.68552 0.88404 0.0
H846 H 0.29566 0.7155 0.82513 0.0
C847 C 0.27981 0.667 0.88035 0.0
C848 C 0.26667 0.66544 0.85657 0.0
H849 H 0.30954 0.68549 0.90216 0.0
H850 H 0.27598 0.65326 0.89577 0.0
C851 C 0.27205 0.68383 0.8372 0.0
C852 C 0.33883 0.36588 0.86925 0.0
C853 C 0.31893 0.35618 0.85372 0.0
H854 H 0.37002 0.35706 0.89423 0.0
C855 C 0.31799 0.32943 0.84816 0.0
H856 H 0.34035 0.38647 0.87349 0.0
C857 C 0.33516 0.31249 0.86003 0.0
C858 C 0.35345 0.32207 0.87765 0.0
H859 H 0.30305 0.32137 0.83604 0.0
H860 H 0.33296 0.29181 0.85676 0.0
C861 C 0.35584 0.34902 0.88116 0.0
C862 C 0.66951 0.31698 0.88392 0.0
C863 C 0.66475 0.30434 0.86007 0.0
H864 H 0.69089 0.34628 0.9042 0.0
C865 C 0.67997 0.31064 0.8385 0.0
H866 H 0.65821 0.31253 0.90097 0.0
C867 C 0.69867 0.32995 0.84037 0.0
C868 C 0.70264 0.34346 0.86385 0.0
H869 H 0.67696 0.3012 0.81989 0.0
H870 H 0.70951 0.33478 0.82311 0.0
C871 C 0.68827 0.33633 0.88579 0.0
C872 C 0.65219 0.64814 0.88726 0.0
C873 C 0.65659 0.62541 0.90147 0.0
H874 H 0.62762 0.68066 0.88242 0.0
C875 C 0.63597 0.6129 0.91357 0.0
H876 H 0.66767 0.65788 0.87727 0.0
C877 C 0.61299 0.62596 0.91663 0.0
C878 C 0.61075 0.65163 0.90778 0.0
H879 H 0.63879 0.59491 0.92402 0.0
H880 H 0.59863 0.61745 0.92915 0.0
C881 C 0.62921 0.66131 0.89043 0.0
C882 C 0.6588 0.7001 0.16738 0.0
C883 C 0.63444 0.69588 0.15675 0.0
H884 H 0.69901 0.6939 0.16319 0.0
C885 C 0.63179 0.67865 0.13567 0.0
H886 H 0.66144 0.71313 0.18375 0.0
C887 C 0.65319 0.66781 0.12396 0.0
C888 C 0.67771 0.67376 0.13315 0.0
H889 H 0.6133 0.67464 0.12723 0.0
H890 H 0.65058 0.65577 0.10682 0.0
C891 C 0.68032 0.68903 0.15569 0.0
C892 C 0.30219 0.67092 0.08245 0.0
C893 C 0.32298 0.67017 0.09962 0.0
H894 H 0.27168 0.64964 0.06453 0.0
C895 C 0.32952 0.64646 0.11119 0.0
H896 H 0.29677 0.6889 0.07316 0.0
C897 C 0.31532 0.62409 0.1062 0.0
C898 C 0.29418 0.62487 0.08955 0.0
H899 H 0.34554 0.64513 0.12436 0.0
H900 H 0.32074 0.60625 0.11577 0.0
C901 C 0.2879 0.64844 0.07746 0.0
C902 C 0.69226 0.3528 0.13043 0.0
C903 C 0.69479 0.36848 0.10829 0.0
H904 H 0.67688 0.31805 0.14676 0.0
C905 C 0.68433 0.3598 0.08461 0.0
H906 H 0.70027 0.35877 0.14892 0.0
C907 C 0.67095 0.33626 0.08334 0.0
C908 C 0.66776 0.32102 0.10573 0.0
H909 H 0.68614 0.37136 0.06715 0.0
H910 H 0.66255 0.33038 0.065 0.0
C911 C 0.6789 0.32936 0.12916 0.0
C912 C 0.61771 0.79957 0.83235 0.0
C913 C 0.60702 0.8229 0.84155 0.0
H914 H 0.62731 0.76007 0.84147 0.0
C915 C 0.6023 0.82575 0.86828 0.0
H916 H 0.62154 0.79681 0.81182 0.0
C917 C 0.60507 0.80475 0.8849 0.0
C918 C 0.61307 0.78062 0.87525 0.0
H919 H 0.59446 0.84361 0.87604 0.0
H920 H 0.59963 0.80704 0.90512 0.0
C921 C 0.62082 0.77849 0.84921 0.0
C922 C 0.123 0.60927 0.83001 0.0
C923 C 0.1487 0.61682 0.8289 0.0
H924 H 0.08497 0.61639 0.81759 0.0
C925 C 0.15527 0.63957 0.81533 0.0
H926 H 0.11723 0.59203 0.84052 0.0
C927 C 0.13665 0.65358 0.80189 0.0
C928 C 0.11112 0.6452 0.80201 0.0
H929 H 0.17493 0.6459 0.81412 0.0
H930 H 0.14239 0.67042 0.79075 0.0
C931 C 0.10446 0.62332 0.81685 0.0
C932 C 0.40538 0.1345 0.84998 0.0
C933 C 0.40656 0.14205 0.82382 0.0
H934 H 0.39573 0.14526 0.88891 0.0
C935 C 0.39665 0.16624 0.81653 0.0
H936 H 0.41287 0.11591 0.85603 0.0
C937 C 0.3874 0.18338 0.83547 0.0
C938 C 0.38734 0.17626 0.86183 0.0
H939 H 0.39752 0.17254 0.79647 0.0
H940 H 0.38103 0.20245 0.82959 0.0
C941 C 0.39555 0.15131 0.86876 0.0
C942 C 0.82887 0.3634 0.80428 0.0
C943 C 0.85441 0.37173 0.80412 0.0
H944 H 0.79197 0.36755 0.82185 0.0
C945 C 0.86302 0.38821 0.82412 0.0
H946 H 0.82174 0.35053 0.78922 0.0
C947 C 0.84618 0.39775 0.8427 0.0
C948 C 0.82025 0.39108 0.8418 0.0
H949 H 0.88268 0.3946 0.82493 0.0
H950 H 0.85332 0.41132 0.85713 0.0
C951 C 0.81187 0.37302 0.82303 0.0
C952 C 0.64874 0.16097 0.11718 0.0
C953 C 0.64925 0.18777 0.1223 0.0
H954 H 0.64264 0.1234 0.13358 0.0
C955 C 0.65516 0.19625 0.14763 0.0
H956 H 0.64457 0.15392 0.09775 0.0
C957 C 0.65387 0.17868 0.16834 0.0
C958 C 0.64703 0.15272 0.16351 0.0
H959 H 0.65592 0.21683 0.15209 0.0
H960 H 0.65386 0.18628 0.18803 0.0
C961 C 0.64749 0.14346 0.13779 0.0
C962 C 0.82711 0.65885 0.2205 0.0
C963 C 0.84027 0.63524 0.21812 0.0
H964 H 0.79857 0.68387 0.20497 0.0
C965 C 0.83241 0.61727 0.19908 0.0
H966 H 0.83249 0.67304 0.23513 0.0
C967 C 0.81287 0.6235 0.18175 0.0
C968 C 0.80081 0.64782 0.18312 0.0
H969 H 0.84205 0.59884 0.19683 0.0
H970 H 0.80798 0.60968 0.1666 0.0
C971 C 0.8076 0.66507 0.20321 0.0
C972 C 0.35489 0.84107 0.13071 0.0
C973 C 0.34493 0.81614 0.13514 0.0
H974 H 0.37599 0.87309 0.14629 0.0
C975 C 0.34403 0.80665 0.16078 0.0
H976 H 0.35554 0.84899 0.11123 0.0
C977 C 0.35558 0.82071 0.18104 0.0
C978 C 0.36818 0.84421 0.17575 0.0
H979 H 0.3364 0.78751 0.16482 0.0
H980 H 0.35671 0.81208 0.20018 0.0
C981 C 0.36656 0.85488 0.15076 0.0
C982 C 0.16135 0.35688 0.14645 0.0
C983 C 0.1655 0.33367 0.13258 0.0
H984 H 0.14174 0.37557 0.17798 0.0
C985 C 0.15274 0.31102 0.14059 0.0
H986 H 0.17096 0.37465 0.14085 0.0
C987 C 0.13601 0.31156 0.16171 0.0
C988 C 0.1317 0.33473 0.17554 0.0
H989 H 0.15548 0.29279 0.1304 0.0
H990 H 0.12636 0.29375 0.16712 0.0
C991 C 0.14469 0.35738 0.16779 0.0
C992 C 0.77702 0.59488 0.82815 0.0
C993 C 0.77559 0.62213 0.82887 0.0
H994 H 0.79248 0.56145 0.80951 0.0
C995 C 0.78712 0.63662 0.80893 0.0
H996 H 0.76809 0.58302 0.84296 0.0
C997 C 0.80097 0.62398 0.78935 0.0
C998 C 0.80364 0.59686 0.78986 0.0
H999 H 0.7862 0.65763 0.80895 0.0
H1000 H 0.81053 0.63543 0.77463 0.0
C1001 C 0.79106 0.58244 0.80901 0.0
C1002 C 0.34444 0.83679 0.81623 0.0
C1003 C 0.3526 0.86198 0.82309 0.0
H1004 H 0.34545 0.79624 0.82574 0.0
C1005 C 0.36385 0.86598 0.84759 0.0
H1006 H 0.33546 0.8331 0.79762 0.0
C1007 C 0.36975 0.84499 0.86341 0.0
C1008 C 0.36403 0.81959 0.85535 0.0
H1009 H 0.36987 0.88521 0.85371 0.0
H1010 H 0.38028 0.84849 0.88121 0.0
C1011 C 0.35005 0.8157 0.83236 0.0
C1012 C 0.15575 0.40522 0.81701 0.0
C1013 C 0.17818 0.39357 0.80788 0.0
H1014 H 0.12519 0.4312 0.8089 0.0
C1015 C 0.18601 0.3979 0.78213 0.0
H1016 H 0.14932 0.40236 0.83682 0.0
C1017 C 0.1719 0.41417 0.76598 0.0
C1018 C 0.15021 0.42683 0.77564 0.0
H1019 H 0.20326 0.38913 0.77467 0.0
H1020 H 0.17846 0.41761 0.74631 0.0
C1021 C 0.14207 0.42193 0.80114 0.0
C1022 C 0.61025 0.14494 0.80318 0.0
C1023 C 0.63645 0.14007 0.80532 0.0
H1024 H 0.57857 0.1675 0.81581 0.0
C1025 C 0.6513 0.15646 0.82132 0.0
H1026 H 0.59815 0.13281 0.7911 0.0
C1027 C 0.63996 0.17687 0.83537 0.0
C1028 C 0.61352 0.18072 0.83407 0.0
H1029 H 0.67156 0.15324 0.82334 0.0
H1030 H 0.65163 0.18894 0.84793 0.0
C1031 C 0.59895 0.16478 0.81752 0.0
C1032 C 0.80463 0.38306 0.17711 0.0
C1033 C 0.82093 0.39808 0.19285 0.0
H1034 H 0.78059 0.38216 0.1433 0.0
C1035 C 0.8263 0.42381 0.18581 0.0
H1036 H 0.80034 0.36309 0.18207 0.0
C1037 C 0.8158 0.43432 0.16345 0.0
C1038 C 0.79918 0.41959 0.14779 0.0
H1039 H 0.83905 0.43579 0.19733 0.0
H1040 H 0.82031 0.45432 0.15883 0.0
C1041 C 0.79351 0.39387 0.15489 0.0
C1042 C 0.63774 0.83841 0.17506 0.0
C1043 C 0.63263 0.86106 0.16077 0.0
H1044 H 0.62616 0.79897 0.18146 0.0
C1045 C 0.62328 0.85814 0.13532 0.0
H1046 H 0.64606 0.83974 0.19429 0.0
C1047 C 0.61115 0.83499 0.12827 0.0
C1048 C 0.61013 0.81428 0.14593 0.0
H1049 H 0.62018 0.8751 0.12333 0.0
H1050 H 0.59983 0.83452 0.11067 0.0
C1051 C 0.62598 0.815 0.16789 0.0
C1052 C 0.12447 0.59366 0.13976 0.0
C1053 C 0.13733 0.59623 0.16357 0.0
H1054 H 0.12852 0.58779 0.09882 0.0
C1055 C 0.16284 0.60445 0.16356 0.0
H1056 H 0.10462 0.58784 0.13932 0.0
C1057 C 0.17655 0.60464 0.14021 0.0
C1058 C 0.16471 0.59639 0.11706 0.0
H1059 H 0.17311 0.60679 0.18169 0.0
H1060 H 0.19702 0.60714 0.14108 0.0
C1061 C 0.13814 0.59367 0.11654 0.0
C1062 C 0.36311 0.17251 0.16336 0.0
C1063 C 0.37323 0.17318 0.13812 0.0
H1064 H 0.3577 0.14916 0.19716 0.0
C1065 C 0.37564 0.14978 0.12419 0.0
H1066 H 0.36068 0.19031 0.17439 0.0
C1067 C 0.37405 0.12614 0.13724 0.0
C1068 C 0.37022 0.12596 0.16426 0.0
H1069 H 0.38283 0.14986 0.10442 0.0
H1070 H 0.38019 0.10871 0.12721 0.0
C1071 C 0.36139 0.14877 0.17643 0.0
C1072 C 0.85674 0.84166 0.64117 0.0
C1073 C 0.85063 0.82122 0.65804 0.0
H1074 H 0.84295 0.8724 0.61746 0.0
C1075 C 0.82545 0.81864 0.667 0.0
H1076 H 0.87608 0.84452 0.6344 0.0
C1077 C 0.80625 0.83468 0.65717 0.0
C1078 C 0.8121 0.85357 0.63838 0.0
H1079 H 0.82027 0.80318 0.68023 0.0
H1080 H 0.7867 0.83095 0.66277 0.0
C1081 C 0.83773 0.85776 0.6316 0.0
C1082 C 0.84201 0.1833 0.39715 0.0
C1083 C 0.8448 0.19995 0.37571 0.0
H1084 H 0.82485 0.14867 0.41218 0.0
C1085 C 0.82993 0.19547 0.35344 0.0
H1086 H 0.85306 0.18633 0.41468 0.0
C1087 C 0.81382 0.17388 0.35201 0.0
C1088 C 0.81218 0.15635 0.37284 0.0
H1089 H 0.83146 0.20803 0.33667 0.0
H1090 H 0.80333 0.17046 0.33419 0.0
C1091 C 0.82583 0.16171 0.39573 0.0
C1092 C 0.82141 0.80713 0.37409 0.0
C1093 C 0.82741 0.83357 0.3772 0.0
H1094 H 0.83232 0.76837 0.38389 0.0
C1095 C 0.85281 0.84071 0.38192 0.0
H1096 H 0.802 0.80114 0.37008 0.0
C1097 C 0.87005 0.82205 0.39034 0.0
C1098 C 0.86205 0.79618 0.3933 0.0
H1099 H 0.85797 0.86102 0.38392 0.0
H1100 H 0.88829 0.82845 0.39789 0.0
C1101 C 0.83874 0.78834 0.38237 0.0
C1102 C 0.16375 0.80242 0.39078 0.0
C1103 C 0.16017 0.7872 0.36827 0.0
H1104 H 0.18247 0.83524 0.40805 0.0
C1105 C 0.17518 0.79233 0.34626 0.0
H1106 H 0.15261 0.79887 0.40816 0.0
C1107 C 0.19232 0.81316 0.34624 0.0
C1108 C 0.1948 0.82932 0.36821 0.0
H1109 H 0.17306 0.78087 0.32868 0.0
H1110 H 0.20292 0.81713 0.32861 0.0
C1111 C 0.18089 0.82328 0.39075 0.0
C1112 C 0.18722 0.17674 0.38228 0.0
C1113 C 0.18182 0.15068 0.38809 0.0
H1114 H 0.17521 0.21611 0.38728 0.0
C1115 C 0.15692 0.14353 0.39494 0.0
H1116 H 0.20633 0.18264 0.37689 0.0
C1117 C 0.13919 0.1626 0.40106 0.0
C1118 C 0.1463 0.18891 0.40031 0.0
H1119 H 0.15233 0.12345 0.39923 0.0
H1120 H 0.12115 0.15672 0.40946 0.0
C1121 C 0.16943 0.19593 0.38845 0.0
C1122 C 0.19608 0.20267 0.60139 0.0
C1123 C 0.21188 0.185 0.61426 0.0
H1124 H 0.16404 0.22773 0.60372 0.0
C1125 C 0.20839 0.18081 0.64102 0.0
H1126 H 0.19855 0.20654 0.58084 0.0
C1127 C 0.18825 0.19281 0.65424 0.0
C1128 C 0.17158 0.2094 0.64091 0.0
H1129 H 0.22036 0.16726 0.65139 0.0
H1130 H 0.18519 0.18834 0.67456 0.0
C1131 C 0.1763 0.21486 0.61458 0.0
C1132 C 0.79723 0.16127 0.5849 0.0
C1133 C 0.77777 0.16203 0.60367 0.0
H1134 H 0.83387 0.17542 0.57328 0.0
C1135 C 0.77943 0.18015 0.62409 0.0
H1136 H 0.79642 0.14763 0.56883 0.0
C1137 C 0.80087 0.19601 0.62665 0.0
C1138 C 0.82108 0.19408 0.60884 0.0
H1139 H 0.76465 0.18138 0.63874 0.0
H1140 H 0.80198 0.20909 0.64316 0.0
C1141 C 0.81871 0.17717 0.58746 0.0
C1142 C 0.20332 0.83921 0.63246 0.0
C1143 C 0.20175 0.85495 0.61027 0.0
H1144 H 0.19235 0.8037 0.65072 0.0
C1145 C 0.18904 0.84536 0.58815 0.0
H1146 H 0.21321 0.84586 0.64973 0.0
C1147 C 0.17718 0.82097 0.58867 0.0
C1148 C 0.17774 0.80582 0.61135 0.0
H1149 H 0.18772 0.85693 0.57067 0.0
H1150 H 0.16675 0.81447 0.57167 0.0
C1151 C 0.19143 0.81495 0.633 0.0
C1152 C 0.10602 0.24679 0.52821 0.0
C1153 C 0.09871 0.26733 0.51203 0.0
H1154 H 0.1032 0.22926 0.56562 0.0
C1155 C 0.08138 0.28585 0.52145 0.0
H1156 H 0.11936 0.23223 0.52152 0.0
C1157 C 0.07173 0.2839 0.5468 0.0
C1158 C 0.07968 0.26369 0.56315 0.0
H1159 H 0.07531 0.30178 0.50928 0.0
H1160 H 0.05873 0.29861 0.55384 0.0
C1161 C 0.09676 0.24509 0.5535 0.0
C1162 C 0.73927 0.08156 0.4965 0.0
C1163 C 0.72102 0.06463 0.5073 0.0
H1164 H 0.75997 0.09303 0.46244 0.0
C1165 C 0.70879 0.04661 0.49089 0.0
H1166 H 0.74902 0.09573 0.50852 0.0
C1167 C 0.71498 0.0451 0.46454 0.0
C1168 C 0.73363 0.06156 0.4538 0.0
H1169 H 0.69454 0.03333 0.49842 0.0
H1170 H 0.70537 0.03067 0.4527 0.0
C1171 C 0.7455 0.08003 0.47004 0.0
C1172 C 0.9171 0.71193 0.52896 0.0
C1173 C 0.90271 0.73149 0.51718 0.0
H1174 H 0.93626 0.69903 0.56303 0.0
C1175 C 0.89702 0.75409 0.53144 0.0
H1176 H 0.92192 0.69434 0.51845 0.0
C1177 C 0.90514 0.75679 0.55724 0.0
C1178 C 0.91933 0.73702 0.56913 0.0
H1179 H 0.8859 0.7695 0.52285 0.0
H1180 H 0.90013 0.77422 0.5679 0.0
C1181 C 0.92543 0.71471 0.55455 0.0
C1182 C 0.28151 0.94658 0.46884 0.0
C1183 C 0.26335 0.93015 0.45708 0.0
H1184 H 0.29568 0.96354 0.50397 0.0
C1185 C 0.24669 0.91598 0.47314 0.0
H1186 H 0.29483 0.95763 0.45715 0.0
C1187 C 0.24715 0.91945 0.50018 0.0
C1188 C 0.26432 0.93711 0.51176 0.0
H1189 H 0.23248 0.90314 0.46478 0.0
H1190 H 0.23334 0.90904 0.51187 0.0
C1191 C 0.28201 0.94999 0.49579 0.0
C1192 C 0.08239 0.69268 0.51162 0.0
C1193 C 0.09525 0.71361 0.52347 0.0
H1194 H 0.06912 0.67519 0.47652 0.0
C1195 C 0.10672 0.73248 0.50755 0.0
H1196 H 0.07373 0.67747 0.52319 0.0
C1197 C 0.10405 0.73112 0.48039 0.0
C1198 C 0.08997 0.71081 0.46877 0.0
H1199 H 0.11689 0.74875 0.51606 0.0
H1200 H 0.11212 0.74651 0.46865 0.0
C1201 C 0.07982 0.69127 0.48472 0.0
C1202 C 0.30978 0.11633 0.47644 0.0
C1203 C 0.28776 0.10323 0.46805 0.0
H1204 H 0.32915 0.13357 0.50907 0.0
C1205 C 0.27101 0.09264 0.48638 0.0
H1206 H 0.32277 0.12487 0.46247 0.0
C1207 C 0.27474 0.09743 0.51273 0.0
C1208 C 0.29508 0.11307 0.52097 0.0
H1209 H 0.25408 0.08222 0.48024 0.0
H1210 H 0.26081 0.09033 0.52645 0.0
C1211 C 0.31337 0.1214 0.50295 0.0
C1212 C 0.93825 0.28078 0.52141 0.0
C1213 C 0.92383 0.26041 0.53215 0.0
H1214 H 0.9501 0.30072 0.48719 0.0
C1215 C 0.9088 0.24497 0.51548 0.0
H1216 H 0.94984 0.29329 0.53362 0.0
C1217 C 0.90894 0.24928 0.48859 0.0
C1218 C 0.92402 0.26919 0.47783 0.0
H1219 H 0.89735 0.22921 0.52312 0.0
H1220 H 0.89772 0.23659 0.4762 0.0
C1221 C 0.9383 0.28515 0.49467 0.0
C1222 C 0.71158 0.8828 0.48515 0.0
C1223 C 0.7328 0.87092 0.4734 0.0
H1224 H 0.69262 0.89198 0.52127 0.0
C1225 C 0.75058 0.85819 0.48911 0.0
H1226 H 0.69743 0.8925 0.47342 0.0
C1227 C 0.74791 0.85796 0.51581 0.0
C1228 C 0.72726 0.87028 0.52783 0.0
H1229 H 0.76676 0.84814 0.48084 0.0
H1230 H 0.76222 0.84795 0.5271 0.0
C1231 C 0.70876 0.88241 0.51237 0.0
C1232 C 0.49636 0.0945 0.26445 0.0
C1233 C 0.48182 0.0996 0.24216 0.0
H1234 H 0.53315 0.09656 0.28241 0.0
C1235 C 0.49383 0.11052 0.22034 0.0
H1236 H 0.48757 0.08626 0.28162 0.0
C1237 C 0.51962 0.11687 0.22096 0.0
C1238 C 0.53422 0.11204 0.24323 0.0
H1239 H 0.48315 0.11508 0.20296 0.0
H1240 H 0.52788 0.12605 0.20406 0.0
C1241 C 0.5224 0.10053 0.26493 0.0
C1242 C 0.89968 0.51198 0.26259 0.0
C1243 C 0.91949 0.52333 0.27725 0.0
H1244 H 0.8802 0.47677 0.25165 0.0
C1245 C 0.9349 0.50711 0.29243 0.0
H1246 H 0.88749 0.52389 0.25062 0.0
C1247 C 0.93091 0.4804 0.29285 0.0
C1248 C 0.91125 0.46888 0.27821 0.0
H1249 H 0.95038 0.51497 0.30397 0.0
H1250 H 0.94337 0.46879 0.30484 0.0
C1251 C 0.89556 0.48498 0.26311 0.0
C1252 C 0.52275 0.88457 0.2263 0.0
C1253 C 0.53559 0.89756 0.2465 0.0
H1254 H 0.48863 0.86662 0.21328 0.0
C1255 C 0.52228 0.90378 0.26937 0.0
H1256 H 0.53251 0.87891 0.20861 0.0
C1257 C 0.49647 0.89707 0.27183 0.0
C1258 C 0.48386 0.88371 0.2516 0.0
H1259 H 0.53181 0.91354 0.28534 0.0
H1260 H 0.4865 0.90209 0.28958 0.0
C1261 C 0.49739 0.87747 0.22896 0.0
C1262 C 0.10819 0.4752 0.23864 0.0
C1263 C 0.10408 0.49331 0.25871 0.0
H1264 H 0.10243 0.4364 0.22485 0.0
C1265 C 0.09049 0.48559 0.28089 0.0
H1266 H 0.11877 0.48053 0.22137 0.0
C1267 C 0.08094 0.46029 0.28284 0.0
C1268 C 0.08505 0.44213 0.26274 0.0
H1269 H 0.08698 0.49916 0.29664 0.0
H1270 H 0.07049 0.45493 0.30019 0.0
C1271 C 0.09887 0.44987 0.24067 0.0
C1272 C 0.46954 0.88916 0.73473 0.0
C1273 C 0.45388 0.88228 0.75584 0.0
H1274 H 0.50752 0.89165 0.71973 0.0
C1275 C 0.46518 0.87429 0.77915 0.0
H1276 H 0.46137 0.89555 0.71653 0.0
C1277 C 0.49156 0.87228 0.78102 0.0
C1278 C 0.50719 0.8781 0.75958 0.0
H1279 H 0.45366 0.86893 0.79577 0.0
H1280 H 0.49959 0.86522 0.79902 0.0
C1281 C 0.49597 0.88703 0.73656 0.0
C1282 C 0.0853 0.54798 0.72812 0.0
C1283 C 0.07975 0.53166 0.70691 0.0
H1284 H 0.07586 0.58223 0.74934 0.0
C1285 C 0.05936 0.53793 0.69048 0.0
H1286 H 0.10106 0.5439 0.74099 0.0
C1287 C 0.04479 0.56016 0.69524 0.0
C1288 C 0.05041 0.57649 0.71651 0.0
H1289 H 0.05457 0.52562 0.67405 0.0
H1290 H 0.02933 0.56466 0.68211 0.0
C1291 C 0.07078 0.57004 0.73292 0.0
C1292 C 0.52225 0.08909 0.7569 0.0
C1293 C 0.50431 0.08071 0.73843 0.0
H1294 H 0.56002 0.08583 0.77163 0.0
C1295 C 0.51126 0.06155 0.72026 0.0
H1296 H 0.51752 0.10392 0.77108 0.0
C1297 C 0.53576 0.05088 0.72073 0.0
C1298 C 0.55376 0.05951 0.73913 0.0
H1299 H 0.49774 0.05468 0.70588 0.0
H1300 H 0.54072 0.03619 0.70649 0.0
C1301 C 0.54668 0.07873 0.75717 0.0
C1302 C 0.89597 0.49792 0.69228 0.0
C1303 C 0.87656 0.50363 0.71013 0.0
H1304 H 0.92482 0.47106 0.6806 0.0
C1305 C 0.87111 0.48588 0.73008 0.0
H1306 H 0.9006 0.51129 0.67676 0.0
C1307 C 0.88497 0.46305 0.73243 0.0
C1308 C 0.90457 0.45732 0.71479 0.0
H1309 H 0.85601 0.48955 0.74396 0.0
H1310 H 0.88016 0.44985 0.74805 0.0
C1311 C 0.9099 0.47496 0.69461 0.0
C1312 C 0.22319 0.47236 0.07471 0.0
C1313 C 0.24231 0.48868 0.06463 0.0
H1314 H 0.20984 0.43344 0.08 0.0
C1315 C 0.26318 0.47752 0.05181 0.0
H1316 H 0.20697 0.48034 0.08494 0.0
C1317 C 0.26487 0.45058 0.04904 0.0
C1318 C 0.24577 0.4342 0.05916 0.0
H1319 H 0.27826 0.48957 0.04395 0.0
H1320 H 0.2812 0.44262 0.03896 0.0
C1321 C 0.22493 0.44543 0.07205 0.0
C1322 C 0.22636 0.49331 0.85418 0.0
C1323 C 0.24194 0.51233 0.86578 0.0
H1324 H 0.21812 0.45276 0.84984 0.0
C1325 C 0.26095 0.50456 0.88327 0.0
H1326 H 0.21154 0.49872 0.84064 0.0
C1327 C 0.26449 0.47829 0.88884 0.0
C1328 C 0.24935 0.45918 0.87674 0.0
H1329 H 0.27313 0.51879 0.89267 0.0
H1330 H 0.27954 0.47295 0.90214 0.0
C1331 C 0.23014 0.46699 0.85946 0.0
C1332 C 0.47391 0.25485 0.88779 0.0
C1333 C 0.46599 0.27469 0.90479 0.0
H1334 H 0.50457 0.2379 0.86644 0.0
C1335 C 0.48393 0.29351 0.91278 0.0
H1336 H 0.46067 0.24007 0.88113 0.0
C1337 C 0.50925 0.29223 0.90429 0.0
C1338 C 0.51719 0.27203 0.88778 0.0
H1339 H 0.47851 0.30912 0.9258 0.0
H1340 H 0.52267 0.30679 0.91103 0.0
C1341 C 0.49917 0.25354 0.87943 0.0
C1342 C 0.72132 0.52228 0.93506 0.0
C1343 C 0.73752 0.5414 0.92458 0.0
H1344 H 0.70815 0.48281 0.93285 0.0
C1345 C 0.75389 0.5346 0.90404 0.0
H1346 H 0.70831 0.52695 0.95073 0.0
C1347 C 0.75368 0.50951 0.8938 0.0
C1348 C 0.73703 0.49059 0.90373 0.0
H1349 H 0.76655 0.54885 0.89544 0.0
H1350 H 0.76626 0.50511 0.87769 0.0
C1351 C 0.72098 0.49711 0.92461 0.0
C1352 C 0.45709 0.69538 0.9167 0.0
C1353 C 0.45255 0.71598 0.89957 0.0
H1354 H 0.48384 0.67641 0.94135 0.0
C1355 C 0.47272 0.73275 0.893 0.0
H1356 H 0.44193 0.68214 0.92211 0.0
C1357 C 0.49674 0.72955 0.90406 0.0
C1358 C 0.50111 0.7095 0.92194 0.0
H1359 H 0.46989 0.74859 0.87955 0.0
H1360 H 0.51175 0.74309 0.89891 0.0
C1361 C 0.48111 0.6922 0.92781 0.0
C1362 C 0.75081 0.56304 0.09292 0.0
C1363 C 0.73245 0.57649 0.07859 0.0
H1364 H 0.76464 0.52665 0.10578 0.0
C1365 C 0.71375 0.56223 0.06495 0.0
H1366 H 0.76561 0.57329 0.1035 0.0
C1367 C 0.71316 0.53499 0.06627 0.0
C1368 C 0.73147 0.52172 0.08094 0.0
H1369 H 0.69934 0.5721 0.0537 0.0
H1370 H 0.69833 0.52441 0.05608 0.0
C1371 C 0.75036 0.53611 0.09402 0.0
C1372 C 0.47447 0.72014 0.13476 0.0
C1373 C 0.48621 0.742 0.14603 0.0
H1374 H 0.44127 0.70441 0.11649 0.0
C1375 C 0.47269 0.7655 0.14718 0.0
H1376 H 0.48443 0.70182 0.13332 0.0
C1377 C 0.44789 0.76704 0.13738 0.0
C1378 C 0.43616 0.74513 0.12616 0.0
H1379 H 0.48119 0.78267 0.15582 0.0
H1380 H 0.43782 0.7853 0.1389 0.0
C1381 C 0.44978 0.72172 0.12485 0.0
C1382 C 0.51875 0.28551 0.10012 0.0
C1383 C 0.53408 0.26369 0.10464 0.0
H1384 H 0.48156 0.30231 0.10377 0.0
C1385 C 0.52331 0.24183 0.11672 0.0
H1386 H 0.52662 0.30273 0.09107 0.0
C1387 C 0.49789 0.24172 0.12421 0.0
C1388 C 0.48245 0.26338 0.11967 0.0
H1389 H 0.53464 0.22487 0.12101 0.0
H1390 H 0.49047 0.22466 0.13388 0.0
C1391 C 0.49307 0.28535 0.10756 0.0
C1392 C 0.56174 0.72472 0.0588 0.0
C1393 C 0.54967 0.74796 0.06614 0.0
H1394 H 0.57766 0.7023 0.02761 0.0
C1395 C 0.54244 0.76563 0.04678 0.0
H1396 H 0.56734 0.71062 0.07325 0.0
C1397 C 0.54852 0.76095 0.02084 0.0
C1398 C 0.56165 0.73837 0.01367 0.0
H1399 H 0.53298 0.78364 0.0517 0.0
H1400 H 0.54356 0.77542 0.0065 0.0
C1401 C 0.56753 0.71988 0.03269 0.0
C1402 C 0.21356 0.5838 0.95367 0.0
C1403 C 0.19458 0.57081 0.93928 0.0
H1404 H 0.23023 0.59049 0.99111 0.0
C1405 C 0.17579 0.55671 0.9527 0.0
H1406 H 0.2283 0.5949 0.94395 0.0
C1407 C 0.17687 0.55423 0.97967 0.0
C1408 C 0.19684 0.56569 0.99392 0.0
H1409 H 0.16072 0.5467 0.94228 0.0
H1410 H 0.16256 0.54239 0.98917 0.0
C1411 C 0.21471 0.58123 0.98073 0.0
C1412 C 0.39889 0.25862 0.03238 0.0
C1413 C 0.41314 0.23754 0.04159 0.0
H1414 H 0.38129 0.27657 -0.00049 0.0
C1415 C 0.42105 0.21829 0.02389 0.0
H1416 H 0.39259 0.2738 0.0455 0.0
C1417 C 0.41442 0.21977 0.99771 0.0
C1418 C 0.4 0.24068 0.98854 0.0
H1419 H 0.43201 0.20175 0.03031 0.0
H1420 H 0.42052 0.20443 0.98467 0.0
C1421 C 0.39251 0.26025 0.00604 0.0
C1422 C 0.79999 0.44221 0.00374 0.0
C1423 C 0.77839 0.434 0.01765 0.0
H1424 H 0.81795 0.44579 0.96665 0.0
C1425 C 0.7599 0.41889 0.00468 0.0
H1426 H 0.81484 0.45348 0.01316 0.0
C1427 C 0.76174 0.41438 0.97787 0.0
C1428 C 0.78207 0.42493 0.96354 0.0
H1429 H 0.74315 0.41194 0.01484 0.0
H1430 H 0.74623 0.40438 0.96816 0.0
C1431 C 0.80182 0.4377 0.97702 0.0
C1432 C 0.60284 0.24635 0.96748 0.0
C1433 C 0.58872 0.22654 0.9551 0.0
H1434 H 0.61563 0.26278 0.00362 0.0
C1435 C 0.57854 0.20644 0.97032 0.0
H1436 H 0.61098 0.26215 0.95634 0.0
C1437 C 0.58127 0.20677 0.99731 0.0
C1438 C 0.59415 0.22729 0.00991 0.0
H1439 H 0.56776 0.19075 0.96148 0.0
H1440 H 0.5725 0.19124 0.00834 0.0
C1441 C 0.60548 0.24676 0.99462 0.0
C1442 C 0.76149 0.67567 0.01608 0.0
C1443 C 0.77684 0.66029 0.03203 0.0
H1444 H 0.74524 0.68073 0.97849 0.0
C1445 C 0.79119 0.64009 0.02085 0.0
H1446 H 0.75048 0.69154 0.02414 0.0
C1447 C 0.7883 0.63399 0.99438 0.0
C1448 C 0.771 0.64804 0.97924 0.0
H1449 H 0.80307 0.62789 0.03286 0.0
H1450 H 0.79805 0.6173 0.98631 0.0
C1451 C 0.75847 0.66949 0.99 0.0
C1452 C 0.37479 0.7508 0.98184 0.0
C1453 C 0.39257 0.76646 0.9686 0.0
H1454 H 0.35894 0.73973 0.01872 0.0
C1455 C 0.40787 0.78363 0.98317 0.0
H1456 H 0.36278 0.73728 0.97125 0.0
C1457 C 0.40581 0.78491 0.01015 0.0
C1458 C 0.38834 0.7691 0.02353 0.0
H1459 H 0.42176 0.79607 0.97379 0.0
H1460 H 0.4181 0.79837 0.02048 0.0
C1461 C 0.3727 0.7521 0.00905 0.0
C1462 C 0.20266 0.3655 0.97387 0.0
C1463 C 0.22195 0.35403 0.98878 0.0
H1464 H 0.19118 0.37854 0.93607 0.0
C1465 C 0.24488 0.34702 0.97655 0.0
H1466 H 0.18478 0.37106 0.98274 0.0
C1467 C 0.24874 0.35178 0.95023 0.0
C1468 C 0.22954 0.36312 0.93525 0.0
H1469 H 0.25992 0.3375 0.98718 0.0
H1470 H 0.26662 0.34594 0.94151 0.0
C1471 C 0.20638 0.36989 0.94724 0.0
C1472 C 0.95832 0.60879 0.7758 0.0
C1473 C 0.96526 0.62739 0.75711 0.0
H1474 H 0.93143 0.5799 0.78773 0.0
C1475 C 0.94899 0.63149 0.73586 0.0
H1476 H 0.9704 0.60509 0.79242 0.0
C1477 C 0.92649 0.61701 0.73318 0.0
C1478 C 0.91982 0.598 0.75164 0.0
H1479 H 0.95367 0.64579 0.72122 0.0
H1480 H 0.91447 0.62055 0.71647 0.0
C1481 C 0.93596 0.59423 0.77306 0.0
C1482 C 0.39995 0.98616 0.7605 0.0
C1483 C 0.40787 0.97061 0.78137 0.0
H1484 H 0.40128 0.02386 0.74282 0.0
C1485 C 0.42173 0.98222 0.80175 0.0
H1486 H 0.38918 0.97782 0.74455 0.0
C1487 C 0.42858 0.00832 0.80079 0.0
C1488 C 0.42179 0.02368 0.77944 0.0
H1489 H 0.42785 0.97102 0.81838 0.0
H1490 H 0.43978 0.01628 0.81664 0.0
C1491 C 0.40686 0.01252 0.75955 0.0
C1492 C 0.03148 0.42014 0.72494 0.0
C1493 C 0.03821 0.43893 0.74368 0.0
H1494 H 0.00467 0.39107 0.713 0.0
C1495 C 0.0224 0.44237 0.76548 0.0
H1496 H 0.04327 0.41685 0.70796 0.0
C1497 C 0.00028 0.42748 0.76838 0.0
C1498 C 0.99343 0.40895 0.74946 0.0
H1499 H 0.02706 0.45656 0.78035 0.0
H1500 H 0.98839 0.43075 0.78528 0.0
C1501 C 0.00931 0.40535 0.72779 0.0
C1502 C 0.59363 0.9634 0.80922 0.0
C1503 C 0.60006 0.94245 0.79284 0.0
H1504 H 0.59915 0.00387 0.81801 0.0
C1505 C 0.61902 0.94612 0.77388 0.0
H1506 H 0.57921 0.9612 0.82412 0.0
C1507 C 0.63032 0.97037 0.77045 0.0
C1508 C 0.62307 0.9916 0.78592 0.0
H1509 H 0.62473 0.93042 0.76109 0.0
H1510 H 0.64434 0.97264 0.75515 0.0
C1511 C 0.60512 0.9878 0.80583 0.0
C1512 C 0.96382 0.36347 0.26772 0.0
C1513 C 0.94972 0.37352 0.24698 0.0
H1514 H -3e-05 0.35108 0.28144 0.0
C1515 C 0.96227 0.37946 0.22353 0.0
H1516 H 0.95473 0.35847 0.28595 0.0
C1517 C 0.98849 0.37531 0.22093 0.0
C1518 C 0.00251 0.36522 0.24176 0.0
H1519 H 0.95184 0.38719 0.20716 0.0
H1520 H -0.00227 0.37998 0.20269 0.0
C1521 C 0.98986 0.35932 0.26512 0.0
C1522 C 0.59709 0.02697 0.18336 0.0
C1523 C 0.60505 0.04091 0.20545 0.0
H1524 H 0.59024 0.98989 0.1661 0.0
C1525 C 0.61517 0.0272 0.22665 0.0
H1526 H 0.58961 0.0369 0.1665 0.0
C1527 C 0.61555 -3e-05 0.22642 0.0
C1528 C 0.6058 0.9861 0.20499 0.0
H1529 H 0.62158 0.0374 0.24392 0.0
H1530 H 0.62215 0.98986 0.24354 0.0
C1531 C 0.59748 -6e-05 0.18312 0.0
C1532 C 0.0177 0.56681 0.21015 0.0
C1533 C 0.03682 0.57437 0.22785 0.0
H1534 H 0.97853 0.57 0.19894 0.0
C1535 C 0.03078 0.59213 0.24769 0.0
H1536 H 0.02177 0.5533 0.19451 0.0
C1537 C 0.00607 0.60159 0.25018 0.0
C1538 C 0.98687 0.59365 0.23283 0.0
H1539 H 0.04503 0.59846 0.26157 0.0
H1540 H 0.00197 0.61503 0.26588 0.0
C1541 C 0.99297 0.57648 0.21255 0.0
C1542 C 0.41906 0.99369 0.19062 0.0
C1543 C 0.41141 0.00875 0.21207 0.0
H1544 H 0.42652 0.95591 0.17544 0.0
C1545 C 0.40287 0.99599 0.23465 0.0
H1546 H 0.4254 0.00277 0.17277 0.0
C1547 C 0.40351 0.96878 0.23619 0.0
C1548 C 0.41272 0.95393 0.2152 0.0
H1549 H 0.39679 0.00702 0.25151 0.0
H1550 H 0.3979 0.95951 0.25419 0.0
C1551 C 0.41972 0.96671 0.19216 0.0
C1552 C 0.76507 0.0031 0.59098 0.0
C1553 C 0.74167 0.01348 0.5991 0.0
H1554 H 0.78678 0.96905 0.58294 0.0
C1555 C 0.72203 0.99642 0.60654 0.0
H1556 H 0.78064 0.01568 0.58518 0.0
C1557 C 0.72569 0.96947 0.60555 0.0
C1558 C 0.74894 0.95915 0.59678 0.0
H1559 H 0.70384 0.00387 0.61304 0.0
H1560 H 0.71011 0.95675 0.61099 0.0
C1561 C 0.76861 0.97631 0.5897 0.0
C1562 C 0.80533 0.99235 0.41276 0.0
C1563 C 0.79414 0.0012 0.38968 0.0
H1564 H 0.81058 0.96004 0.4384 0.0
C1565 C 0.78143 0.98344 0.37344 0.0
H1566 H 0.81514 0.00573 0.42564 0.0
C1567 C 0.7786 0.95765 0.38071 0.0
C1568 C 0.78851 0.94888 0.40442 0.0
H1569 H 0.7729 0.98968 0.35534 0.0
H1570 H 0.76814 0.94472 0.36788 0.0
C1571 C 0.80252 0.9663 0.4201 0.0
C1572 C 0.97433 0.73198 0.41237 0.0
C1573 C 0.96752 0.75232 0.42927 0.0
H1574 H 0.00307 0.71544 0.38809 0.0
C1575 C 0.98552 0.77193 0.43472 0.0
H1576 H 0.96093 0.71665 0.40759 0.0
C1577 C 0.00974 0.7712 0.42351 0.0
C1578 C 0.01649 0.75083 0.40668 0.0
H1579 H 0.9809 0.78794 0.44759 0.0
H1580 H 0.0232 0.78652 0.42818 0.0
C1581 C -0.00147 0.73127 0.40119 0.0
C1582 C 0.2062 0.01708 0.41666 0.0
C1583 C 0.22032 0.03448 0.40117 0.0
H1584 H 0.19273 0.9779 0.42129 0.0
C1585 C 0.22883 0.02626 0.3766 0.0
H1586 H 0.19915 0.02292 0.43558 0.0
C1587 C 0.22493 0.00079 0.36847 0.0
C1588 C 0.2124 0.98296 0.38463 0.0
H1589 H 0.23934 0.03922 0.36394 0.0
H1590 H 0.23285 0.99468 0.34997 0.0
C1591 C 0.20223 0.99143 0.4084 0.0
C1592 C 0.03061 0.25893 0.40882 0.0
C1593 C 0.03863 0.23824 0.4245 0.0
H1594 H 0.00018 0.27562 0.38696 0.0
C1595 C 0.02164 0.2176 0.42931 0.0
H1596 H 0.04324 0.27507 0.40464 0.0
C1597 C -0.00293 0.21787 0.41908 0.0
C1598 C 0.98885 0.23886 0.404 0.0
H1599 H 0.02724 0.20124 0.44114 0.0
H1600 H 0.98434 0.20187 0.42351 0.0
C1601 C 0.00592 0.25927 0.39873 0.0
C1602 C 0.21346 0.05151 0.56572 0.0
C1603 C 0.22808 0.06551 0.58409 0.0
H1604 H 0.19953 0.01395 0.5536 0.0
C1605 C 0.23656 0.05275 0.60648 0.0
H1606 H 0.20658 0.06084 0.54826 0.0
C1607 C 0.23258 0.02623 0.60935 0.0
C1608 C 0.21986 0.01184 0.59007 0.0
H1609 H 0.2475 0.06294 0.62121 0.0
H1610 H 0.24063 0.01667 0.62617 0.0
C1611 C 0.20931 0.02475 0.56874 0.0
C1612 C 0.97934 0.21819 0.65338 0.0
C1613 C 0.97238 0.20684 0.62956 0.0
H1614 H 0.00957 0.23115 0.6779 0.0
C1615 C 0.99122 0.19578 0.61366 0.0
H1616 H 0.9651 0.22664 0.66608 0.0
C1617 C 0.01702 0.19826 0.62064 0.0
C1618 C 0.02382 0.21185 0.64342 0.0
H1619 H 0.98621 0.18712 0.59512 0.0
H1620 H 0.03156 0.19146 0.60734 0.0
C1621 C 0.00476 0.22075 0.66018 0.0
C1622 C 0.03025 0.77827 0.6129 0.0
C1623 C 0.04323 0.75541 0.61948 0.0
H1624 H -0.00385 0.80062 0.61711 0.0
C1625 C 0.03126 0.73721 0.6357 0.0
H1626 H 0.03911 0.79276 0.6006 0.0
C1627 C 0.00699 0.74194 0.6455 0.0
C1628 C 0.99398 0.7648 0.63903 0.0
H1629 H 0.04092 0.7196 0.64151 0.0
H1630 H -0.00141 0.72778 0.65846 0.0
C1631 C 0.00579 0.78292 0.62257 0.0
loop_
_geom_bond_atom_site_label_1
_geom_bond_atom_site_label_2
_geom_bond_distance
_geom_bond_site_symmetry_2
_ccdc_geom_bond_type
Mg0 O1 2.028 . S
Mg0 O7 1.986 . S
Mg0 O9 2.114 . S
Mg0 O10 2.251 . S
Mg0 O13 2.010 . S
O1 Mg0 2.028 . S
O1 C4 1.250 . S
O2 Mg3 2.028 . S
O2 C4 1.248 . S
Mg3 O2 2.028 . S
Mg3 O8 2.032 . S
Mg3 O10 2.079 . S
C4 O1 1.250 . S
C4 O2 1.248 . S
C5 O6 1.264 . S
C5 O13 1.249 . S
O6 C5 1.264 . S
O7 Mg0 1.986 . S
O7 C11 1.246 . S
O8 Mg3 2.032 . S
O8 C11 1.259 . S
O9 Mg0 2.114 . S
O9 C12 1.252 . S
O10 Mg0 2.251 . S
O10 Mg3 2.079 . S
O10 C12 1.273 . S
C11 O7 1.246 . S
C11 O8 1.259 . S
C12 O9 1.252 . S
C12 O10 1.273 . S
O13 Mg0 2.010 . S
O13 C5 1.249 . S
Mg14 O15 2.028 . S
Mg14 O21 1.986 . S
Mg14 O23 2.114 . S
Mg14 O24 2.251 . S
Mg14 O27 2.010 . S
O15 Mg14 2.028 . S
O15 C18 1.250 . S
O16 Mg17 2.028 . S
O16 C18 1.248 . S
Mg17 O16 2.028 . S
Mg17 O22 2.032 . S
Mg17 O24 2.079 . S
C18 O15 1.250 . S
C18 O16 1.248 . S
C19 O20 1.264 . S
C19 O27 1.249 . S
O20 C19 1.264 . S
O21 Mg14 1.986 . S
O21 C25 1.246 . S
O22 Mg17 2.032 . S
O22 C25 1.259 . S
O23 Mg14 2.114 . S
O23 C26 1.252 . S
O24 Mg14 2.251 . S
O24 Mg17 2.079 . S
O24 C26 1.273 . S
C25 O21 1.246 . S
C25 O22 1.259 . S
C26 O23 1.252 . S
C26 O24 1.273 . S
O27 Mg14 2.010 . S
O27 C19 1.249 . S
Mg28 O29 2.028 . S
Mg28 O35 1.986 . S
Mg28 O37 2.114 . S
Mg28 O38 2.251 . S
Mg28 O41 2.010 . S
O29 Mg28 2.028 . S
O29 C32 1.250 . S
O30 Mg31 2.028 . S
O30 C32 1.248 . S
Mg31 O30 2.028 . S
Mg31 O36 2.032 . S
Mg31 O38 2.079 . S
C32 O29 1.250 . S
C32 O30 1.248 . S
C33 O34 1.264 . S
C33 O41 1.249 . S
O34 C33 1.264 . S
O35 Mg28 1.986 . S
O35 C39 1.246 . S
O36 Mg31 2.032 . S
O36 C39 1.259 . S
O37 Mg28 2.114 . S
O37 C40 1.252 . S
O38 Mg28 2.251 . S
O38 Mg31 2.079 . S
O38 C40 1.273 . S
C39 O35 1.246 . S
C39 O36 1.259 . S
C40 O37 1.252 . S
C40 O38 1.273 . S
O41 Mg28 2.010 . S
O41 C33 1.249 . S
Mg42 O43 2.028 . S
Mg42 O49 1.986 . S
Mg42 O51 2.114 . S
Mg42 O52 2.251 . S
Mg42 O55 2.010 . S
O43 Mg42 2.028 . S
O43 C46 1.250 . S
O44 Mg45 2.028 . S
O44 C46 1.248 . S
Mg45 O44 2.028 . S
Mg45 O50 2.032 . S
Mg45 O52 2.079 . S
C46 O43 1.250 . S
C46 O44 1.248 . S
C47 O48 1.264 . S
C47 O55 1.249 . S
O48 C47 1.264 . S
O49 Mg42 1.986 . S
O49 C53 1.246 . S
O50 Mg45 2.032 . S
O50 C53 1.259 . S
O51 Mg42 2.114 . S
O51 C54 1.252 . S
O52 Mg42 2.251 . S
O52 Mg45 2.079 . S
O52 C54 1.273 . S
C53 O49 1.246 . S
C53 O50 1.259 . S
C54 O51 1.252 . S
C54 O52 1.273 . S
O55 Mg42 2.010 . S
O55 C47 1.249 . S
Mg56 O57 2.028 . S
Mg56 O63 1.986 . S
Mg56 O65 2.114 . S
Mg56 O66 2.251 . S
Mg56 O69 2.010 . S
O57 Mg56 2.028 . S
O57 C60 1.250 . S
O58 Mg59 2.028 . S
O58 C60 1.248 . S
Mg59 O58 2.028 . S
Mg59 O64 2.032 . S
Mg59 O66 2.079 . S
C60 O57 1.250 . S
C60 O58 1.248 . S
C61 O62 1.264 . S
C61 O69 1.249 . S
O62 C61 1.264 . S
O63 Mg56 1.986 . S
O63 C67 1.246 . S
O64 Mg59 2.032 . S
O64 C67 1.259 . S
O65 Mg56 2.114 . S
O65 C68 1.252 . S
O66 Mg56 2.251 . S
O66 Mg59 2.079 . S
O66 C68 1.273 . S
C67 O63 1.246 . S
C67 O64 1.259 . S
C68 O65 1.252 . S
C68 O66 1.273 . S
O69 Mg56 2.010 . S
O69 C61 1.249 . S
Mg70 O71 2.028 . S
Mg70 O77 1.986 . S
Mg70 O79 2.114 . S
Mg70 O80 2.251 . S
Mg70 O83 2.010 . S
O71 Mg70 2.028 . S
O71 C74 1.250 . S
O72 Mg73 2.028 . S
O72 C74 1.248 . S
Mg73 O72 2.028 . S
Mg73 O78 2.032 . S
Mg73 O80 2.079 . S
C74 O71 1.250 . S
C74 O72 1.248 . S
C75 O76 1.264 . S
C75 O83 1.249 . S
O76 C75 1.264 . S
O77 Mg70 1.986 . S
O77 C81 1.246 . S
O78 Mg73 2.032 . S
O78 C81 1.259 . S
O79 Mg70 2.114 . S
O79 C82 1.252 . S
O80 Mg70 2.251 . S
O80 Mg73 2.079 . S
O80 C82 1.273 . S
C81 O77 1.246 . S
C81 O78 1.259 . S
C82 O79 1.252 . S
C82 O80 1.273 . S
O83 Mg70 2.010 . S
O83 C75 1.249 . S
Mg84 O85 2.028 . S
Mg84 O91 1.986 . S
Mg84 O93 2.114 . S
Mg84 O94 2.251 . S
Mg84 O97 2.010 . S
O85 Mg84 2.028 . S
O85 C88 1.250 . S
O86 Mg87 2.028 . S
O86 C88 1.248 . S
Mg87 O86 2.028 . S
Mg87 O92 2.032 . S
Mg87 O94 2.079 . S
C88 O85 1.250 . S
C88 O86 1.248 . S
C89 O90 1.264 . S
C89 O97 1.249 . S
O90 C89 1.264 . S
O91 Mg84 1.986 . S
O91 C95 1.246 . S
O92 Mg87 2.032 . S
O92 C95 1.259 . S
O93 Mg84 2.114 . S
O93 C96 1.252 . S
O94 Mg84 2.251 . S
O94 Mg87 2.079 . S
O94 C96 1.273 . S
C95 O91 1.246 . S
C95 O92 1.259 . S
C96 O93 1.252 . S
C96 O94 1.273 . S
O97 Mg84 2.010 . S
O97 C89 1.249 . S
Mg98 O99 2.028 . S
Mg98 O105 1.986 . S
Mg98 O107 2.114 . S
Mg98 O108 2.251 . S
Mg98 O111 2.010 . S
O99 Mg98 2.028 . S
O99 C102 1.250 . S
O100 Mg101 2.028 . S
O100 C102 1.248 . S
Mg101 O100 2.028 . S
Mg101 O106 2.032 . S
Mg101 O108 2.079 . S
C102 O99 1.250 . S
C102 O100 1.248 . S
C103 O104 1.264 . S
C103 O111 1.249 . S
O104 C103 1.264 . S
O105 Mg98 1.986 . S
O105 C109 1.246 . S
O106 Mg101 2.032 . S
O106 C109 1.259 . S
O107 Mg98 2.114 . S
O107 C110 1.252 . S
O108 Mg98 2.251 . S
O108 Mg101 2.079 . S
O108 C110 1.273 . S
C109 O105 1.246 . S
C109 O106 1.259 . S
C110 O107 1.252 . S
C110 O108 1.273 . S
O111 Mg98 2.010 . S
O111 C103 1.249 . S
Mg112 O113 2.028 . S
Mg112 O119 1.986 . S
Mg112 O121 2.114 . S
Mg112 O122 2.251 . S
Mg112 O125 2.010 . S
O113 Mg112 2.028 . S
O113 C116 1.250 . S
O114 Mg115 2.028 . S
O114 C116 1.248 . S
Mg115 O114 2.028 . S
Mg115 O120 2.032 . S
Mg115 O122 2.079 . S
C116 O113 1.250 . S
C116 O114 1.248 . S
C117 O118 1.264 . S
C117 O125 1.249 . S
O118 C117 1.264 . S
O119 Mg112 1.986 . S
O119 C123 1.246 . S
O120 Mg115 2.032 . S
O120 C123 1.259 . S
O121 Mg112 2.114 . S
O121 C124 1.252 . S
O122 Mg112 2.251 . S
O122 Mg115 2.079 . S
O122 C124 1.273 . S
C123 O119 1.246 . S
C123 O120 1.259 . S
C124 O121 1.252 . S
C124 O122 1.273 . S
O125 Mg112 2.010 . S
O125 C117 1.249 . S
Mg126 O127 2.028 . S
Mg126 O133 1.986 . S
Mg126 O135 2.114 . S
Mg126 O136 2.251 . S
Mg126 O139 2.010 . S
O127 Mg126 2.028 . S
O127 C130 1.250 . S
O128 Mg129 2.028 . S
O128 C130 1.248 . S
Mg129 O128 2.028 . S
Mg129 O134 2.032 . S
Mg129 O136 2.079 . S
C130 O127 1.250 . S
C130 O128 1.248 . S
C131 O132 1.264 . S
C131 O139 1.249 . S
O132 C131 1.264 . S
O133 Mg126 1.986 . S
O133 C137 1.246 . S
O134 Mg129 2.032 . S
O134 C137 1.259 . S
O135 Mg126 2.114 . S
O135 C138 1.252 . S
O136 Mg126 2.251 . S
O136 Mg129 2.079 . S
O136 C138 1.273 . S
C137 O133 1.246 . S
C137 O134 1.259 . S
C138 O135 1.252 . S
C138 O136 1.273 . S
O139 Mg126 2.010 . S
O139 C131 1.249 . S
Mg140 O141 2.028 . S
Mg140 O147 1.986 . S
Mg140 O149 2.114 . S
Mg140 O150 2.251 . S
Mg140 O153 2.010 . S
O141 Mg140 2.028 . S
O141 C144 1.250 . S
O142 Mg143 2.028 . S
O142 C144 1.248 . S
Mg143 O142 2.028 . S
Mg143 O148 2.032 . S
Mg143 O150 2.079 . S
C144 O141 1.250 . S
C144 O142 1.248 . S
C145 O146 1.264 . S
C145 O153 1.249 . S
O146 C145 1.264 . S
O147 Mg140 1.986 . S
O147 C151 1.246 . S
O148 Mg143 2.032 . S
O148 C151 1.259 . S
O149 Mg140 2.114 . S
O149 C152 1.252 . S
O150 Mg140 2.251 . S
O150 Mg143 2.079 . S
O150 C152 1.273 . S
C151 O147 1.246 . S
C151 O148 1.259 . S
C152 O149 1.252 . S
C152 O150 1.273 . S
O153 Mg140 2.010 . S
O153 C145 1.249 . S
Mg154 O155 2.028 . S
Mg154 O161 1.986 . S
Mg154 O163 2.114 . S
Mg154 O164 2.251 . S
Mg154 O167 2.010 . S
O155 Mg154 2.028 . S
O155 C158 1.250 . S
O156 Mg157 2.028 . S
O156 C158 1.248 . S
Mg157 O156 2.028 . S
Mg157 O162 2.032 . S
Mg157 O164 2.079 . S
C158 O155 1.250 . S
C158 O156 1.248 . S
C159 O160 1.264 . S
C159 O167 1.249 . S
O160 C159 1.264 . S
O161 Mg154 1.986 . S
O161 C165 1.246 . S
O162 Mg157 2.032 . S
O162 C165 1.259 . S
O163 Mg154 2.114 . S
O163 C166 1.252 . S
O164 Mg154 2.251 . S
O164 Mg157 2.079 . S
O164 C166 1.273 . S
C165 O161 1.246 . S
C165 O162 1.259 . S
C166 O163 1.252 . S
C166 O164 1.273 . S
O167 Mg154 2.010 . S
O167 C159 1.249 . S
Mg168 O169 2.028 . S
Mg168 O175 1.986 . S
Mg168 O177 2.114 . S
Mg168 O178 2.251 . S
Mg168 O181 2.010 . S
O169 Mg168 2.028 . S
O169 C172 1.250 . S
O170 Mg171 2.028 . S
O170 C172 1.248 . S
Mg171 O170 2.028 . S
Mg171 O176 2.032 . S
Mg171 O178 2.079 . S
C172 O169 1.250 . S
C172 O170 1.248 . S
C173 O174 1.264 . S
C173 O181 1.249 . S
O174 C173 1.264 . S
O175 Mg168 1.986 . S
O175 C179 1.246 . S
O176 Mg171 2.032 . S
O176 C179 1.259 . S
O177 Mg168 2.114 . S
O177 C180 1.252 . S
O178 Mg168 2.251 . S
O178 Mg171 2.079 . S
O178 C180 1.273 . S
C179 O175 1.246 . S
C179 O176 1.259 . S
C180 O177 1.252 . S
C180 O178 1.273 . S
O181 Mg168 2.010 . S
O181 C173 1.249 . S
Mg182 O183 2.028 . S
Mg182 O189 1.986 . S
Mg182 O191 2.114 . S
Mg182 O192 2.251 . S
Mg182 O195 2.010 . S
O183 Mg182 2.028 . S
O183 C186 1.250 . S
O184 Mg185 2.028 . S
O184 C186 1.248 . S
Mg185 O184 2.028 . S
Mg185 O190 2.032 . S
Mg185 O192 2.079 . S
C186 O183 1.250 . S
C186 O184 1.248 . S
C187 O188 1.264 . S
C187 O195 1.249 . S
O188 C187 1.264 . S
O189 Mg182 1.986 . S
O189 C193 1.246 . S
O190 Mg185 2.032 . S
O190 C193 1.259 . S
O191 Mg182 2.114 . S
O191 C194 1.252 . S
O192 Mg182 2.251 . S
O192 Mg185 2.079 . S
O192 C194 1.273 . S
C193 O189 1.246 . S
C193 O190 1.259 . S
C194 O191 1.252 . S
C194 O192 1.273 . S
O195 Mg182 2.010 . S
O195 C187 1.249 . S
Mg196 O197 2.028 . S
Mg196 O203 1.986 . S
Mg196 O205 2.114 . S
Mg196 O206 2.251 . S
Mg196 O209 2.010 . S
O197 Mg196 2.028 . S
O197 C200 1.250 . S
O198 Mg199 2.028 . S
O198 C200 1.248 . S
Mg199 O198 2.028 . S
Mg199 O204 2.032 . S
Mg199 O206 2.079 . S
C200 O197 1.250 . S
C200 O198 1.248 . S
C201 O202 1.264 . S
C201 O209 1.249 . S
O202 C201 1.264 . S
O203 Mg196 1.986 . S
O203 C207 1.246 . S
O204 Mg199 2.032 . S
O204 C207 1.259 . S
O205 Mg196 2.114 . S
O205 C208 1.252 . S
O206 Mg196 2.251 . S
O206 Mg199 2.079 . S
O206 C208 1.273 . S
C207 O203 1.246 . S
C207 O204 1.259 . S
C208 O205 1.252 . S
C208 O206 1.273 . S
O209 Mg196 2.010 . S
O209 C201 1.249 . S
Mg210 O211 2.028 . S
Mg210 O217 1.986 . S
Mg210 O219 2.114 . S
Mg210 O220 2.251 . S
Mg210 O223 2.010 . S
O211 Mg210 2.028 . S
O211 C214 1.250 . S
O212 Mg213 2.028 . S
O212 C214 1.248 . S
Mg213 O212 2.028 . S
Mg213 O218 2.032 . S
Mg213 O220 2.079 . S
C214 O211 1.250 . S
C214 O212 1.248 . S
C215 O216 1.264 . S
C215 O223 1.249 . S
O216 C215 1.264 . S
O217 Mg210 1.986 . S
O217 C221 1.246 . S
O218 Mg213 2.032 . S
O218 C221 1.259 . S
O219 Mg210 2.114 . S
O219 C222 1.252 . S
O220 Mg210 2.251 . S
O220 Mg213 2.079 . S
O220 C222 1.273 . S
C221 O217 1.246 . S
C221 O218 1.259 . S
C222 O219 1.252 . S
C222 O220 1.273 . S
O223 Mg210 2.010 . S
O223 C215 1.249 . S
Mg224 O225 2.028 . S
Mg224 O231 1.986 . S
Mg224 O233 2.114 . S
Mg224 O234 2.251 . S
Mg224 O237 2.010 . S
O225 Mg224 2.028 . S
O225 C228 1.250 . S
O226 Mg227 2.028 . S
O226 C228 1.248 . S
Mg227 O226 2.028 . S
Mg227 O232 2.032 . S
Mg227 O234 2.079 . S
C228 O225 1.250 . S
C228 O226 1.248 . S
C229 O230 1.264 . S
C229 O237 1.249 . S
O230 C229 1.264 . S
O231 Mg224 1.986 . S
O231 C235 1.246 . S
O232 Mg227 2.032 . S
O232 C235 1.259 . S
O233 Mg224 2.114 . S
O233 C236 1.252 . S
O234 Mg224 2.251 . S
O234 Mg227 2.079 . S
O234 C236 1.273 . S
C235 O231 1.246 . S
C235 O232 1.259 . S
C236 O233 1.252 . S
C236 O234 1.273 . S
O237 Mg224 2.010 . S
O237 C229 1.249 . S
Mg238 O239 2.028 . S
Mg238 O245 1.986 . S
Mg238 O247 2.114 . S
Mg238 O248 2.251 . S
Mg238 O251 2.010 . S
O239 Mg238 2.028 . S
O239 C242 1.250 . S
O240 Mg241 2.028 . S
O240 C242 1.248 . S
Mg241 O240 2.028 . S
Mg241 O246 2.032 . S
Mg241 O248 2.079 . S
C242 O239 1.250 . S
C242 O240 1.248 . S
C243 O244 1.264 . S
C243 O251 1.249 . S
O244 C243 1.264 . S
O245 Mg238 1.986 . S
O245 C249 1.246 . S
O246 Mg241 2.032 . S
O246 C249 1.259 . S
O247 Mg238 2.114 . S
O247 C250 1.252 . S
O248 Mg238 2.251 . S
O248 Mg241 2.079 . S
O248 C250 1.273 . S
C249 O245 1.246 . S
C249 O246 1.259 . S
C250 O247 1.252 . S
C250 O248 1.273 . S
O251 Mg238 2.010 . S
O251 C243 1.249 . S
Mg252 O253 2.028 . S
Mg252 O259 1.986 . S
Mg252 O261 2.114 . S
Mg252 O262 2.251 . S
Mg252 O265 2.010 . S
O253 Mg252 2.028 . S
O253 C256 1.250 . S
O254 Mg255 2.028 . S
O254 C256 1.248 . S
Mg255 O254 2.028 . S
Mg255 O260 2.032 . S
Mg255 O262 2.079 . S
C256 O253 1.250 . S
C256 O254 1.248 . S
C257 O258 1.264 . S
C257 O265 1.249 . S
O258 C257 1.264 . S
O259 Mg252 1.986 . S
O259 C263 1.246 . S
O260 Mg255 2.032 . S
O260 C263 1.259 . S
O261 Mg252 2.114 . S
O261 C264 1.252 . S
O262 Mg252 2.251 . S
O262 Mg255 2.079 . S
O262 C264 1.273 . S
C263 O259 1.246 . S
C263 O260 1.259 . S
C264 O261 1.252 . S
C264 O262 1.273 . S
O265 Mg252 2.010 . S
O265 C257 1.249 . S
Mg266 O267 2.028 . S
Mg266 O273 1.986 . S
Mg266 O275 2.114 . S
Mg266 O276 2.251 . S
Mg266 O279 2.010 . S
O267 Mg266 2.028 . S
O267 C270 1.250 . S
O268 Mg269 2.028 . S
O268 C270 1.248 . S
Mg269 O268 2.028 . S
Mg269 O274 2.032 . S
Mg269 O276 2.079 . S
C270 O267 1.250 . S
C270 O268 1.248 . S
C271 O272 1.264 . S
C271 O279 1.249 . S
O272 C271 1.264 . S
O273 Mg266 1.986 . S
O273 C277 1.246 . S
O274 Mg269 2.032 . S
O274 C277 1.259 . S
O275 Mg266 2.114 . S
O275 C278 1.252 . S
O276 Mg266 2.251 . S
O276 Mg269 2.079 . S
O276 C278 1.273 . S
C277 O273 1.246 . S
C277 O274 1.259 . S
C278 O275 1.252 . S
C278 O276 1.273 . S
O279 Mg266 2.010 . S
O279 C271 1.249 . S
Mg280 O281 2.028 . S
Mg280 O287 1.986 . S
Mg280 O289 2.114 . S
Mg280 O290 2.251 . S
Mg280 O293 2.010 . S
O281 Mg280 2.028 . S
O281 C284 1.250 . S
O282 Mg283 2.028 . S
O282 C284 1.248 . S
Mg283 O282 2.028 . S
Mg283 O288 2.032 . S
Mg283 O290 2.079 . S
C284 O281 1.250 . S
C284 O282 1.248 . S
C285 O286 1.264 . S
C285 O293 1.249 . S
O286 C285 1.264 . S
O287 Mg280 1.986 . S
O287 C291 1.246 . S
O288 Mg283 2.032 . S
O288 C291 1.259 . S
O289 Mg280 2.114 . S
O289 C292 1.252 . S
O290 Mg280 2.251 . S
O290 Mg283 2.079 . S
O290 C292 1.273 . S
C291 O287 1.246 . S
C291 O288 1.259 . S
C292 O289 1.252 . S
C292 O290 1.273 . S
O293 Mg280 2.010 . S
O293 C285 1.249 . S
Mg294 O295 2.028 . S
Mg294 O301 1.986 . S
Mg294 O303 2.114 . S
Mg294 O304 2.251 . S
Mg294 O307 2.010 . S
O295 Mg294 2.028 . S
O295 C298 1.250 . S
O296 Mg297 2.028 . S
O296 C298 1.248 . S
Mg297 O296 2.028 . S
Mg297 O302 2.032 . S
Mg297 O304 2.079 . S
C298 O295 1.250 . S
C298 O296 1.248 . S
C299 O300 1.264 . S
C299 O307 1.249 . S
O300 C299 1.264 . S
O301 Mg294 1.986 . S
O301 C305 1.246 . S
O302 Mg297 2.032 . S
O302 C305 1.259 . S
O303 Mg294 2.114 . S
O303 C306 1.252 . S
O304 Mg294 2.251 . S
O304 Mg297 2.079 . S
O304 C306 1.273 . S
C305 O301 1.246 . S
C305 O302 1.259 . S
C306 O303 1.252 . S
C306 O304 1.273 . S
O307 Mg294 2.010 . S
O307 C299 1.249 . S
Mg308 O309 2.028 . S
Mg308 O315 1.986 . S
Mg308 O317 2.114 . S
Mg308 O318 2.251 . S
Mg308 O321 2.010 . S
O309 Mg308 2.028 . S
O309 C312 1.250 . S
O310 Mg311 2.028 . S
O310 C312 1.248 . S
Mg311 O310 2.028 . S
Mg311 O316 2.032 . S
Mg311 O318 2.079 . S
C312 O309 1.250 . S
C312 O310 1.248 . S
C313 O314 1.264 . S
C313 O321 1.249 . S
O314 C313 1.264 . S
O315 Mg308 1.986 . S
O315 C319 1.246 . S
O316 Mg311 2.032 . S
O316 C319 1.259 . S
O317 Mg308 2.114 . S
O317 C320 1.252 . S
O318 Mg308 2.251 . S
O318 Mg311 2.079 . S
O318 C320 1.273 . S
C319 O315 1.246 . S
C319 O316 1.259 . S
C320 O317 1.252 . S
C320 O318 1.273 . S
O321 Mg308 2.010 . S
O321 C313 1.249 . S
Mg322 O323 2.028 . S
Mg322 O329 1.986 . S
Mg322 O331 2.114 . S
Mg322 O332 2.251 . S
Mg322 O335 2.010 . S
O323 Mg322 2.028 . S
O323 C326 1.250 . S
O324 Mg325 2.028 . S
O324 C326 1.248 . S
Mg325 O324 2.028 . S
Mg325 O330 2.032 . S
Mg325 O332 2.079 . S
C326 O323 1.250 . S
C326 O324 1.248 . S
C327 O328 1.264 . S
C327 O335 1.249 . S
O328 C327 1.264 . S
O329 Mg322 1.986 . S
O329 C333 1.246 . S
O330 Mg325 2.032 . S
O330 C333 1.259 . S
O331 Mg322 2.114 . S
O331 C334 1.252 . S
O332 Mg322 2.251 . S
O332 Mg325 2.079 . S
O332 C334 1.273 . S
C333 O329 1.246 . S
C333 O330 1.259 . S
C334 O331 1.252 . S
C334 O332 1.273 . S
O335 Mg322 2.010 . S
O335 C327 1.249 . S
Mg336 O337 2.028 . S
Mg336 O343 1.986 . S
Mg336 O345 2.114 . S
Mg336 O346 2.251 . S
Mg336 O349 2.010 . S
O337 Mg336 2.028 . S
O337 C340 1.250 . S
O338 Mg339 2.028 . S
O338 C340 1.248 . S
Mg339 O338 2.028 . S
Mg339 O344 2.032 . S
Mg339 O346 2.079 . S
C340 O337 1.250 . S
C340 O338 1.248 . S
C341 O342 1.264 . S
C341 O349 1.249 . S
O342 C341 1.264 . S
O343 Mg336 1.986 . S
O343 C347 1.246 . S
O344 Mg339 2.032 . S
O344 C347 1.259 . S
O345 Mg336 2.114 . S
O345 C348 1.252 . S
O346 Mg336 2.251 . S
O346 Mg339 2.079 . S
O346 C348 1.273 . S
C347 O343 1.246 . S
C347 O344 1.259 . S
C348 O345 1.252 . S
C348 O346 1.273 . S
O349 Mg336 2.010 . S
O349 C341 1.249 . S
Mg350 O351 2.028 . S
Mg350 O357 1.986 . S
Mg350 O359 2.114 . S
Mg350 O360 2.251 . S
Mg350 O363 2.010 . S
O351 Mg350 2.028 . S
O351 C354 1.250 . S
O352 Mg353 2.028 . S
O352 C354 1.248 . S
Mg353 O352 2.028 . S
Mg353 O358 2.032 . S
Mg353 O360 2.079 . S
C354 O351 1.250 . S
C354 O352 1.248 . S
C355 O356 1.264 . S
C355 O363 1.249 . S
O356 C355 1.264 . S
O357 Mg350 1.986 . S
O357 C361 1.246 . S
O358 Mg353 2.032 . S
O358 C361 1.259 . S
O359 Mg350 2.114 . S
O359 C362 1.252 . S
O360 Mg350 2.251 . S
O360 Mg353 2.079 . S
O360 C362 1.273 . S
C361 O357 1.246 . S
C361 O358 1.259 . S
C362 O359 1.252 . S
C362 O360 1.273 . S
O363 Mg350 2.010 . S
O363 C355 1.249 . S
Mg364 O365 2.028 . S
Mg364 O371 1.986 . S
Mg364 O373 2.114 . S
Mg364 O374 2.251 . S
Mg364 O377 2.010 . S
O365 Mg364 2.028 . S
O365 C368 1.250 . S
O366 Mg367 2.028 . S
O366 C368 1.248 . S
Mg367 O366 2.028 . S
Mg367 O372 2.032 . S
Mg367 O374 2.079 . S
C368 O365 1.250 . S
C368 O366 1.248 . S
C369 O370 1.264 . S
C369 O377 1.249 . S
O370 C369 1.264 . S
O371 Mg364 1.986 . S
O371 C375 1.246 . S
O372 Mg367 2.032 . S
O372 C375 1.259 . S
O373 Mg364 2.114 . S
O373 C376 1.252 . S
O374 Mg364 2.251 . S
O374 Mg367 2.079 . S
O374 C376 1.273 . S
C375 O371 1.246 . S
C375 O372 1.259 . S
C376 O373 1.252 . S
C376 O374 1.273 . S
O377 Mg364 2.010 . S
O377 C369 1.249 . S
Mg378 O379 2.028 . S
Mg378 O385 1.986 . S
Mg378 O387 2.114 . S
Mg378 O388 2.251 . S
Mg378 O391 2.010 . S
O379 Mg378 2.028 . S
O379 C382 1.250 . S
O380 Mg381 2.028 . S
O380 C382 1.248 . S
Mg381 O380 2.028 . S
Mg381 O386 2.032 . S
Mg381 O388 2.079 . S
C382 O379 1.250 . S
C382 O380 1.248 . S
C383 O384 1.264 . S
C383 O391 1.249 . S
O384 C383 1.264 . S
O385 Mg378 1.986 . S
O385 C389 1.246 . S
O386 Mg381 2.032 . S
O386 C389 1.259 . S
O387 Mg378 2.114 . S
O387 C390 1.252 . S
O388 Mg378 2.251 . S
O388 Mg381 2.079 . S
O388 C390 1.273 . S
C389 O385 1.246 . S
C389 O386 1.259 . S
C390 O387 1.252 . S
C390 O388 1.273 . S
O391 Mg378 2.010 . S
O391 C383 1.249 . S
Mg392 O393 2.028 . S
Mg392 O399 1.986 . S
Mg392 O401 2.114 . S
Mg392 O402 2.251 . S
Mg392 O405 2.010 . S
O393 Mg392 2.028 . S
O393 C396 1.250 . S
O394 Mg395 2.028 . S
O394 C396 1.248 . S
Mg395 O394 2.028 . S
Mg395 O400 2.032 . S
Mg395 O402 2.079 . S
C396 O393 1.250 . S
C396 O394 1.248 . S
C397 O398 1.264 . S
C397 O405 1.249 . S
O398 C397 1.264 . S
O399 Mg392 1.986 . S
O399 C403 1.246 . S
O400 Mg395 2.032 . S
O400 C403 1.259 . S
O401 Mg392 2.114 . S
O401 C404 1.252 . S
O402 Mg392 2.251 . S
O402 Mg395 2.079 . S
O402 C404 1.273 . S
C403 O399 1.246 . S
C403 O400 1.259 . S
C404 O401 1.252 . S
C404 O402 1.273 . S
O405 Mg392 2.010 . S
O405 C397 1.249 . S
Mg406 O407 2.028 . S
Mg406 O413 1.986 . S
Mg406 O415 2.114 . S
Mg406 O416 2.251 . S
Mg406 O419 2.010 . S
O407 Mg406 2.028 . S
O407 C410 1.250 . S
O408 Mg409 2.028 . S
O408 C410 1.248 . S
Mg409 O408 2.028 . S
Mg409 O414 2.032 . S
Mg409 O416 2.079 . S
C410 O407 1.250 . S
C410 O408 1.248 . S
C411 O412 1.264 . S
C411 O419 1.249 . S
O412 C411 1.264 . S
O413 Mg406 1.986 . S
O413 C417 1.246 . S
O414 Mg409 2.032 . S
O414 C417 1.259 . S
O415 Mg406 2.114 . S
O415 C418 1.252 . S
O416 Mg406 2.251 . S
O416 Mg409 2.079 . S
O416 C418 1.273 . S
C417 O413 1.246 . S
C417 O414 1.259 . S
C418 O415 1.252 . S
C418 O416 1.273 . S
O419 Mg406 2.010 . S
O419 C411 1.249 . S
Mg420 O421 2.028 . S
Mg420 O427 1.986 . S
Mg420 O429 2.114 . S
Mg420 O430 2.251 . S
Mg420 O433 2.010 . S
O421 Mg420 2.028 . S
O421 C424 1.250 . S
O422 Mg423 2.028 . S
O422 C424 1.248 . S
Mg423 O422 2.028 . S
Mg423 O428 2.032 . S
Mg423 O430 2.079 . S
C424 O421 1.250 . S
C424 O422 1.248 . S
C425 O426 1.264 . S
C425 O433 1.249 . S
O426 C425 1.264 . S
O427 Mg420 1.986 . S
O427 C431 1.246 . S
O428 Mg423 2.032 . S
O428 C431 1.259 . S
O429 Mg420 2.114 . S
O429 C432 1.252 . S
O430 Mg420 2.251 . S
O430 Mg423 2.079 . S
O430 C432 1.273 . S
C431 O427 1.246 . S
C431 O428 1.259 . S
C432 O429 1.252 . S
C432 O430 1.273 . S
O433 Mg420 2.010 . S
O433 C425 1.249 . S
Mg434 O435 2.028 . S
Mg434 O441 1.986 . S
Mg434 O443 2.114 . S
Mg434 O444 2.251 . S
Mg434 O447 2.010 . S
O435 Mg434 2.028 . S
O435 C438 1.250 . S
O436 Mg437 2.028 . S
O436 C438 1.248 . S
Mg437 O436 2.028 . S
Mg437 O442 2.032 . S
Mg437 O444 2.079 . S
C438 O435 1.250 . S
C438 O436 1.248 . S
C439 O440 1.264 . S
C439 O447 1.249 . S
O440 C439 1.264 . S
O441 Mg434 1.986 . S
O441 C445 1.246 . S
O442 Mg437 2.032 . S
O442 C445 1.259 . S
O443 Mg434 2.114 . S
O443 C446 1.252 . S
O444 Mg434 2.251 . S
O444 Mg437 2.079 . S
O444 C446 1.273 . S
C445 O441 1.246 . S
C445 O442 1.259 . S
C446 O443 1.252 . S
C446 O444 1.273 . S
O447 Mg434 2.010 . S
O447 C439 1.249 . S
Mg448 O449 2.028 . S
Mg448 O455 1.986 . S
Mg448 O457 2.114 . S
Mg448 O458 2.251 . S
Mg448 O461 2.010 . S
O449 Mg448 2.028 . S
O449 C452 1.250 . S
O450 Mg451 2.028 . S
O450 C452 1.248 . S
Mg451 O450 2.028 . S
Mg451 O456 2.032 . S
Mg451 O458 2.079 . S
C452 O449 1.250 . S
C452 O450 1.248 . S
C453 O454 1.264 . S
C453 O461 1.249 . S
O454 C453 1.264 . S
O455 Mg448 1.986 . S
O455 C459 1.246 . S
O456 Mg451 2.032 . S
O456 C459 1.259 . S
O457 Mg448 2.114 . S
O457 C460 1.252 . S
O458 Mg448 2.251 . S
O458 Mg451 2.079 . S
O458 C460 1.273 . S
C459 O455 1.246 . S
C459 O456 1.259 . S
C460 O457 1.252 . S
C460 O458 1.273 . S
O461 Mg448 2.010 . S
O461 C453 1.249 . S
Mg462 O463 2.028 . S
Mg462 O469 1.986 . S
Mg462 O471 2.114 . S
Mg462 O472 2.251 . S
Mg462 O475 2.010 . S
O463 Mg462 2.028 . S
O463 C466 1.250 . S
O464 Mg465 2.028 . S
O464 C466 1.248 . S
Mg465 O464 2.028 . S
Mg465 O470 2.032 . S
Mg465 O472 2.079 . S
C466 O463 1.250 . S
C466 O464 1.248 . S
C467 O468 1.264 . S
C467 O475 1.249 . S
O468 C467 1.264 . S
O469 Mg462 1.986 . S
O469 C473 1.246 . S
O470 Mg465 2.032 . S
O470 C473 1.259 . S
O471 Mg462 2.114 . S
O471 C474 1.252 . S
O472 Mg462 2.251 . S
O472 Mg465 2.079 . S
O472 C474 1.273 . S
C473 O469 1.246 . S
C473 O470 1.259 . S
C474 O471 1.252 . S
C474 O472 1.273 . S
O475 Mg462 2.010 . S
O475 C467 1.249 . S
Mg476 O477 2.028 . S
Mg476 O483 1.986 . S
Mg476 O485 2.114 . S
Mg476 O486 2.251 . S
Mg476 O489 2.010 . S
O477 Mg476 2.028 . S
O477 C480 1.250 . S
O478 Mg479 2.028 . S
O478 C480 1.248 . S
Mg479 O478 2.028 . S
Mg479 O484 2.032 . S
Mg479 O486 2.079 . S
C480 O477 1.250 . S
C480 O478 1.248 . S
C481 O482 1.264 . S
C481 O489 1.249 . S
O482 C481 1.264 . S
O483 Mg476 1.986 . S
O483 C487 1.246 . S
O484 Mg479 2.032 . S
O484 C487 1.259 . S
O485 Mg476 2.114 . S
O485 C488 1.252 . S
O486 Mg476 2.251 . S
O486 Mg479 2.079 . S
O486 C488 1.273 . S
C487 O483 1.246 . S
C487 O484 1.259 . S
C488 O485 1.252 . S
C488 O486 1.273 . S
O489 Mg476 2.010 . S
O489 C481 1.249 . S
Mg490 O491 2.028 . S
Mg490 O497 1.986 . S
Mg490 O499 2.114 . S
Mg490 O500 2.251 . S
Mg490 O503 2.010 . S
O491 Mg490 2.028 . S
O491 C494 1.250 . S
O492 Mg493 2.028 . S
O492 C494 1.248 . S
Mg493 O492 2.028 . S
Mg493 O498 2.032 . S
Mg493 O500 2.079 . S
C494 O491 1.250 . S
C494 O492 1.248 . S
C495 O496 1.264 . S
C495 O503 1.249 . S
O496 C495 1.264 . S
O497 Mg490 1.986 . S
O497 C501 1.246 . S
O498 Mg493 2.032 . S
O498 C501 1.259 . S
O499 Mg490 2.114 . S
O499 C502 1.252 . S
O500 Mg490 2.251 . S
O500 Mg493 2.079 . S
O500 C502 1.273 . S
C501 O497 1.246 . S
C501 O498 1.259 . S
C502 O499 1.252 . S
C502 O500 1.273 . S
O503 Mg490 2.010 . S
O503 C495 1.249 . S
Mg504 O505 2.028 . S
Mg504 O511 1.986 . S
Mg504 O513 2.114 . S
Mg504 O514 2.251 . S
Mg504 O517 2.010 . S
O505 Mg504 2.028 . S
O505 C508 1.250 . S
O506 Mg507 2.028 . S
O506 C508 1.248 . S
Mg507 O506 2.028 . S
Mg507 O512 2.032 . S
Mg507 O514 2.079 . S
C508 O505 1.250 . S
C508 O506 1.248 . S
C509 O510 1.264 . S
C509 O517 1.249 . S
O510 C509 1.264 . S
O511 Mg504 1.986 . S
O511 C515 1.246 . S
O512 Mg507 2.032 . S
O512 C515 1.259 . S
O513 Mg504 2.114 . S
O513 C516 1.252 . S
O514 Mg504 2.251 . S
O514 Mg507 2.079 . S
O514 C516 1.273 . S
C515 O511 1.246 . S
C515 O512 1.259 . S
C516 O513 1.252 . S
C516 O514 1.273 . S
O517 Mg504 2.010 . S
O517 C509 1.249 . S
Mg518 O519 2.028 . S
Mg518 O525 1.986 . S
Mg518 O527 2.114 . S
Mg518 O528 2.251 . S
Mg518 O531 2.010 . S
O519 Mg518 2.028 . S
O519 C522 1.250 . S
O520 Mg521 2.028 . S
O520 C522 1.248 . S
Mg521 O520 2.028 . S
Mg521 O526 2.032 . S
Mg521 O528 2.079 . S
C522 O519 1.250 . S
C522 O520 1.248 . S
C523 O524 1.264 . S
C523 O531 1.249 . S
O524 C523 1.264 . S
O525 Mg518 1.986 . S
O525 C529 1.246 . S
O526 Mg521 2.032 . S
O526 C529 1.259 . S
O527 Mg518 2.114 . S
O527 C530 1.252 . S
O528 Mg518 2.251 . S
O528 Mg521 2.079 . S
O528 C530 1.273 . S
C529 O525 1.246 . S
C529 O526 1.259 . S
C530 O527 1.252 . S
C530 O528 1.273 . S
O531 Mg518 2.010 . S
O531 C523 1.249 . S
Mg532 O533 2.028 . S
Mg532 O539 1.986 . S
Mg532 O541 2.114 . S
Mg532 O542 2.251 . S
Mg532 O545 2.010 . S
O533 Mg532 2.028 . S
O533 C536 1.250 . S
O534 Mg535 2.028 . S
O534 C536 1.248 . S
Mg535 O534 2.028 . S
Mg535 O540 2.032 . S
Mg535 O542 2.079 . S
C536 O533 1.250 . S
C536 O534 1.248 . S
C537 O538 1.264 . S
C537 O545 1.249 . S
O538 C537 1.264 . S
O539 Mg532 1.986 . S
O539 C543 1.246 . S
O540 Mg535 2.032 . S
O540 C543 1.259 . S
O541 Mg532 2.114 . S
O541 C544 1.252 . S
O542 Mg532 2.251 . S
O542 Mg535 2.079 . S
O542 C544 1.273 . S
C543 O539 1.246 . S
C543 O540 1.259 . S
C544 O541 1.252 . S
C544 O542 1.273 . S
O545 Mg532 2.010 . S
O545 C537 1.249 . S
Mg546 O547 2.028 . S
Mg546 O553 1.986 . S
Mg546 O555 2.114 . S
Mg546 O556 2.251 . S
Mg546 O559 2.010 . S
O547 Mg546 2.028 . S
O547 C550 1.250 . S
O548 Mg549 2.028 . S
O548 C550 1.248 . S
Mg549 O548 2.028 . S
Mg549 O554 2.032 . S
Mg549 O556 2.079 . S
C550 O547 1.250 . S
C550 O548 1.248 . S
C551 O552 1.264 . S
C551 O559 1.249 . S
O552 C551 1.264 . S
O553 Mg546 1.986 . S
O553 C557 1.246 . S
O554 Mg549 2.032 . S
O554 C557 1.259 . S
O555 Mg546 2.114 . S
O555 C558 1.252 . S
O556 Mg546 2.251 . S
O556 Mg549 2.079 . S
O556 C558 1.273 . S
C557 O553 1.246 . S
C557 O554 1.259 . S
C558 O555 1.252 . S
C558 O556 1.273 . S
O559 Mg546 2.010 . S
O559 C551 1.249 . S
Mg560 O561 2.028 . S
Mg560 O567 1.986 . S
Mg560 O569 2.114 . S
Mg560 O570 2.251 . S
Mg560 O573 2.010 . S
O561 Mg560 2.028 . S
O561 C564 1.250 . S
O562 Mg563 2.028 . S
O562 C564 1.248 . S
Mg563 O562 2.028 . S
Mg563 O568 2.032 . S
Mg563 O570 2.079 . S
C564 O561 1.250 . S
C564 O562 1.248 . S
C565 O566 1.264 . S
C565 O573 1.249 . S
O566 C565 1.264 . S
O567 Mg560 1.986 . S
O567 C571 1.246 . S
O568 Mg563 2.032 . S
O568 C571 1.259 . S
O569 Mg560 2.114 . S
O569 C572 1.252 . S
O570 Mg560 2.251 . S
O570 Mg563 2.079 . S
O570 C572 1.273 . S
C571 O567 1.246 . S
C571 O568 1.259 . S
C572 O569 1.252 . S
C572 O570 1.273 . S
O573 Mg560 2.010 . S
O573 C565 1.249 . S
Mg574 O575 2.028 . S
Mg574 O581 1.986 . S
Mg574 O583 2.114 . S
Mg574 O584 2.251 . S
Mg574 O587 2.010 . S
O575 Mg574 2.028 . S
O575 C578 1.250 . S
O576 Mg577 2.028 . S
O576 C578 1.248 . S
Mg577 O576 2.028 . S
Mg577 O582 2.032 . S
Mg577 O584 2.079 . S
C578 O575 1.250 . S
C578 O576 1.248 . S
C579 O580 1.264 . S
C579 O587 1.249 . S
O580 C579 1.264 . S
O581 Mg574 1.986 . S
O581 C585 1.246 . S
O582 Mg577 2.032 . S
O582 C585 1.259 . S
O583 Mg574 2.114 . S
O583 C586 1.252 . S
O584 Mg574 2.251 . S
O584 Mg577 2.079 . S
O584 C586 1.273 . S
C585 O581 1.246 . S
C585 O582 1.259 . S
C586 O583 1.252 . S
C586 O584 1.273 . S
O587 Mg574 2.010 . S
O587 C579 1.249 . S
Mg588 O589 2.028 . S
Mg588 O595 1.986 . S
Mg588 O597 2.114 . S
Mg588 O598 2.251 . S
Mg588 O601 2.010 . S
O589 Mg588 2.028 . S
O589 C592 1.250 . S
O590 Mg591 2.028 . S
O590 C592 1.248 . S
Mg591 O590 2.028 . S
Mg591 O596 2.032 . S
Mg591 O598 2.079 . S
C592 O589 1.250 . S
C592 O590 1.248 . S
C593 O594 1.264 . S
C593 O601 1.249 . S
O594 C593 1.264 . S
O595 Mg588 1.986 . S
O595 C599 1.246 . S
O596 Mg591 2.032 . S
O596 C599 1.259 . S
O597 Mg588 2.114 . S
O597 C600 1.252 . S
O598 Mg588 2.251 . S
O598 Mg591 2.079 . S
O598 C600 1.273 . S
C599 O595 1.246 . S
C599 O596 1.259 . S
C600 O597 1.252 . S
C600 O598 1.273 . S
O601 Mg588 2.010 . S
O601 C593 1.249 . S
Mg602 O603 2.028 . S
Mg602 O609 1.986 . S
Mg602 O611 2.114 . S
Mg602 O612 2.251 . S
Mg602 O615 2.010 . S
O603 Mg602 2.028 . S
O603 C606 1.250 . S
O604 Mg605 2.028 . S
O604 C606 1.248 . S
Mg605 O604 2.028 . S
Mg605 O610 2.032 . S
Mg605 O612 2.079 . S
C606 O603 1.250 . S
C606 O604 1.248 . S
C607 O608 1.264 . S
C607 O615 1.249 . S
O608 C607 1.264 . S
O609 Mg602 1.986 . S
O609 C613 1.246 . S
O610 Mg605 2.032 . S
O610 C613 1.259 . S
O611 Mg602 2.114 . S
O611 C614 1.252 . S
O612 Mg602 2.251 . S
O612 Mg605 2.079 . S
O612 C614 1.273 . S
C613 O609 1.246 . S
C613 O610 1.259 . S
C614 O611 1.252 . S
C614 O612 1.273 . S
O615 Mg602 2.010 . S
O615 C607 1.249 . S
Mg616 O617 2.028 . S
Mg616 O623 1.986 . S
Mg616 O625 2.114 . S
Mg616 O626 2.251 . S
Mg616 O629 2.010 . S
O617 Mg616 2.028 . S
O617 C620 1.250 . S
O618 Mg619 2.028 . S
O618 C620 1.248 . S
Mg619 O618 2.028 . S
Mg619 O624 2.032 . S
Mg619 O626 2.079 . S
C620 O617 1.250 . S
C620 O618 1.248 . S
C621 O622 1.264 . S
C621 O629 1.249 . S
O622 C621 1.264 . S
O623 Mg616 1.986 . S
O623 C627 1.246 . S
O624 Mg619 2.032 . S
O624 C627 1.259 . S
O625 Mg616 2.114 . S
O625 C628 1.252 . S
O626 Mg616 2.251 . S
O626 Mg619 2.079 . S
O626 C628 1.273 . S
C627 O623 1.246 . S
C627 O624 1.259 . S
C628 O625 1.252 . S
C628 O626 1.273 . S
O629 Mg616 2.010 . S
O629 C621 1.249 . S
Mg630 O631 2.028 . S
Mg630 O637 1.986 . S
Mg630 O639 2.114 . S
Mg630 O640 2.251 . S
Mg630 O643 2.010 . S
O631 Mg630 2.028 . S
O631 C634 1.250 . S
O632 Mg633 2.028 . S
O632 C634 1.248 . S
Mg633 O632 2.028 . S
Mg633 O638 2.032 . S
Mg633 O640 2.079 . S
C634 O631 1.250 . S
C634 O632 1.248 . S
C635 O636 1.264 . S
C635 O643 1.249 . S
O636 C635 1.264 . S
O637 Mg630 1.986 . S
O637 C641 1.246 . S
O638 Mg633 2.032 . S
O638 C641 1.259 . S
O639 Mg630 2.114 . S
O639 C642 1.252 . S
O640 Mg630 2.251 . S
O640 Mg633 2.079 . S
O640 C642 1.273 . S
C641 O637 1.246 . S
C641 O638 1.259 . S
C642 O639 1.252 . S
C642 O640 1.273 . S
O643 Mg630 2.010 . S
O643 C635 1.249 . S
Mg644 O645 2.028 . S
Mg644 O651 1.986 . S
Mg644 O653 2.114 . S
Mg644 O654 2.251 . S
Mg644 O657 2.010 . S
O645 Mg644 2.028 . S
O645 C648 1.250 . S
O646 Mg647 2.028 . S
O646 C648 1.248 . S
Mg647 O646 2.028 . S
Mg647 O652 2.032 . S
Mg647 O654 2.079 . S
C648 O645 1.250 . S
C648 O646 1.248 . S
C649 O650 1.264 . S
C649 O657 1.249 . S
O650 C649 1.264 . S
O651 Mg644 1.986 . S
O651 C655 1.246 . S
O652 Mg647 2.032 . S
O652 C655 1.259 . S
O653 Mg644 2.114 . S
O653 C656 1.252 . S
O654 Mg644 2.251 . S
O654 Mg647 2.079 . S
O654 C656 1.273 . S
C655 O651 1.246 . S
C655 O652 1.259 . S
C656 O653 1.252 . S
C656 O654 1.273 . S
O657 Mg644 2.010 . S
O657 C649 1.249 . S
Mg658 O659 2.028 . S
Mg658 O665 1.986 . S
Mg658 O667 2.114 . S
Mg658 O668 2.251 . S
Mg658 O671 2.010 . S
O659 Mg658 2.028 . S
O659 C662 1.250 . S
O660 Mg661 2.028 . S
O660 C662 1.248 . S
Mg661 O660 2.028 . S
Mg661 O666 2.032 . S
Mg661 O668 2.079 . S
C662 O659 1.250 . S
C662 O660 1.248 . S
C663 O664 1.264 . S
C663 O671 1.249 . S
O664 C663 1.264 . S
O665 Mg658 1.986 . S
O665 C669 1.246 . S
O666 Mg661 2.032 . S
O666 C669 1.259 . S
O667 Mg658 2.114 . S
O667 C670 1.252 . S
O668 Mg658 2.251 . S
O668 Mg661 2.079 . S
O668 C670 1.273 . S
C669 O665 1.246 . S
C669 O666 1.259 . S
C670 O667 1.252 . S
C670 O668 1.273 . S
O671 Mg658 2.010 . S
O671 C663 1.249 . S
C672 C673 1.387 . S
C672 H676 0.950 . S
C672 C681 1.390 . S
C673 C672 1.387 . S
C673 C675 1.387 . S
H674 C681 0.950 . S
C675 C673 1.387 . S
C675 C677 1.390 . S
C675 H679 0.950 . S
H676 C672 0.950 . S
C677 C675 1.390 . S
C677 C678 1.387 . S
C677 H680 0.950 . S
C678 C677 1.387 . S
C678 C681 1.387 . S
H679 C675 0.950 . S
H680 C677 0.950 . S
C681 C672 1.390 . S
C681 H674 0.950 . S
C681 C678 1.387 . S
C682 C683 1.387 . S
C682 H686 0.950 . S
C682 C691 1.390 . S
C683 C682 1.387 . S
C683 C685 1.387 . S
H684 C691 0.950 . S
C685 C683 1.387 . S
C685 C687 1.390 . S
C685 H689 0.950 . S
H686 C682 0.950 . S
C687 C685 1.390 . S
C687 C688 1.387 . S
C687 H690 0.950 . S
C688 C687 1.387 . S
C688 C691 1.387 . S
H689 C685 0.950 . S
H690 C687 0.950 . S
C691 C682 1.390 . S
C691 H684 0.950 . S
C691 C688 1.387 . S
C692 C693 1.387 . S
C692 H696 0.950 . S
C692 C701 1.390 . S
C693 C692 1.387 . S
C693 C695 1.387 . S
H694 C701 0.950 . S
C695 C693 1.387 . S
C695 C697 1.390 . S
C695 H699 0.950 . S
H696 C692 0.950 . S
C697 C695 1.390 . S
C697 C698 1.387 . S
C697 H700 0.950 . S
C698 C697 1.387 . S
C698 C701 1.387 . S
H699 C695 0.950 . S
H700 C697 0.950 . S
C701 C692 1.390 . S
C701 H694 0.950 . S
C701 C698 1.387 . S
C702 C703 1.387 . S
C702 H706 0.950 . S
C702 C711 1.390 . S
C703 C702 1.387 . S
C703 C705 1.387 . S
H704 C711 0.950 . S
C705 C703 1.387 . S
C705 C707 1.390 . S
C705 H709 0.950 . S
H706 C702 0.950 . S
C707 C705 1.390 . S
C707 C708 1.387 . S
C707 H710 0.950 . S
C708 C707 1.387 . S
C708 C711 1.387 . S
H709 C705 0.950 . S
H710 C707 0.950 . S
C711 C702 1.390 . S
C711 H704 0.950 . S
C711 C708 1.387 . S
C712 C713 1.387 . S
C712 H716 0.950 . S
C712 C721 1.390 . S
C713 C712 1.387 . S
C713 C715 1.387 . S
H714 C721 0.950 . S
C715 C713 1.387 . S
C715 C717 1.390 . S
C715 H719 0.950 . S
H716 C712 0.950 . S
C717 C715 1.390 . S
C717 C718 1.387 . S
C717 H720 0.950 . S
C718 C717 1.387 . S
C718 C721 1.387 . S
H719 C715 0.950 . S
H720 C717 0.950 . S
C721 C712 1.390 . S
C721 H714 0.950 . S
C721 C718 1.387 . S
C722 C723 1.387 . S
C722 H726 0.950 . S
C722 C731 1.390 . S
C723 C722 1.387 . S
C723 C725 1.387 . S
H724 C731 0.950 . S
C725 C723 1.387 . S
C725 C727 1.390 . S
C725 H729 0.950 . S
H726 C722 0.950 . S
C727 C725 1.390 . S
C727 C728 1.387 . S
C727 H730 0.950 . S
C728 C727 1.387 . S
C728 C731 1.387 . S
H729 C725 0.950 . S
H730 C727 0.950 . S
C731 C722 1.390 . S
C731 H724 0.950 . S
C731 C728 1.387 . S
C732 C733 1.387 . S
C732 H736 0.950 . S
C732 C741 1.390 . S
C733 C732 1.387 . S
C733 C735 1.387 . S
H734 C741 0.950 . S
C735 C733 1.387 . S
C735 C737 1.390 . S
C735 H739 0.950 . S
H736 C732 0.950 . S
C737 C735 1.390 . S
C737 C738 1.387 . S
C737 H740 0.950 . S
C738 C737 1.387 . S
C738 C741 1.387 . S
H739 C735 0.950 . S
H740 C737 0.950 . S
C741 C732 1.390 . S
C741 H734 0.950 . S
C741 C738 1.387 . S
C742 C743 1.387 . S
C742 H746 0.950 . S
C742 C751 1.390 . S
C743 C742 1.387 . S
C743 C745 1.387 . S
H744 C751 0.950 . S
C745 C743 1.387 . S
C745 C747 1.390 . S
C745 H749 0.950 . S
H746 C742 0.950 . S
C747 C745 1.390 . S
C747 C748 1.387 . S
C747 H750 0.950 . S
C748 C747 1.387 . S
C748 C751 1.387 . S
H749 C745 0.950 . S
H750 C747 0.950 . S
C751 C742 1.390 . S
C751 H744 0.950 . S
C751 C748 1.387 . S
C752 C753 1.387 . S
C752 H756 0.950 . S
C752 C761 1.390 . S
C753 C752 1.387 . S
C753 C755 1.387 . S
H754 C761 0.950 . S
C755 C753 1.387 . S
C755 C757 1.390 . S
C755 H759 0.950 . S
H756 C752 0.950 . S
C757 C755 1.390 . S
C757 C758 1.387 . S
C757 H760 0.950 . S
C758 C757 1.387 . S
C758 C761 1.387 . S
H759 C755 0.950 . S
H760 C757 0.950 . S
C761 C752 1.390 . S
C761 H754 0.950 . S
C761 C758 1.387 . S
C762 C763 1.387 . S
C762 H766 0.950 . S
C762 C771 1.390 . S
C763 C762 1.387 . S
C763 C765 1.387 . S
H764 C771 0.950 . S
C765 C763 1.387 . S
C765 C767 1.390 . S
C765 H769 0.950 . S
H766 C762 0.950 . S
C767 C765 1.390 . S
C767 C768 1.387 . S
C767 H770 0.950 . S
C768 C767 1.387 . S
C768 C771 1.387 . S
H769 C765 0.950 . S
H770 C767 0.950 . S
C771 C762 1.390 . S
C771 H764 0.950 . S
C771 C768 1.387 . S
C772 C773 1.387 . S
C772 H776 0.950 . S
C772 C781 1.390 . S
C773 C772 1.387 . S
C773 C775 1.387 . S
H774 C781 0.950 . S
C775 C773 1.387 . S
C775 C777 1.390 . S
C775 H779 0.950 . S
H776 C772 0.950 . S
C777 C775 1.390 . S
C777 C778 1.387 . S
C777 H780 0.950 . S
C778 C777 1.387 . S
C778 C781 1.387 . S
H779 C775 0.950 . S
H780 C777 0.950 . S
C781 C772 1.390 . S
C781 H774 0.950 . S
C781 C778 1.387 . S
C782 C783 1.387 . S
C782 H786 0.950 . S
C782 C791 1.390 . S
C783 C782 1.387 . S
C783 C785 1.387 . S
H784 C791 0.950 . S
C785 C783 1.387 . S
C785 C787 1.390 . S
C785 H789 0.950 . S
H786 C782 0.950 . S
C787 C785 1.390 . S
C787 C788 1.387 . S
C787 H790 0.950 . S
C788 C787 1.387 . S
C788 C791 1.387 . S
H789 C785 0.950 . S
H790 C787 0.950 . S
C791 C782 1.390 . S
C791 H784 0.950 . S
C791 C788 1.387 . S
C792 C793 1.387 . S
C792 H796 0.950 . S
C792 C801 1.390 . S
C793 C792 1.387 . S
C793 C795 1.387 . S
H794 C801 0.950 . S
C795 C793 1.387 . S
C795 C797 1.390 . S
C795 H799 0.950 . S
H796 C792 0.950 . S
C797 C795 1.390 . S
C797 C798 1.387 . S
C797 H800 0.950 . S
C798 C797 1.387 . S
C798 C801 1.387 . S
H799 C795 0.950 . S
H800 C797 0.950 . S
C801 C792 1.390 . S
C801 H794 0.950 . S
C801 C798 1.387 . S
C802 C803 1.387 . S
C802 H806 0.950 . S
C802 C811 1.390 . S
C803 C802 1.387 . S
C803 C805 1.387 . S
H804 C811 0.950 . S
C805 C803 1.387 . S
C805 C807 1.390 . S
C805 H809 0.950 . S
H806 C802 0.950 . S
C807 C805 1.390 . S
C807 C808 1.387 . S
C807 H810 0.950 . S
C808 C807 1.387 . S
C808 C811 1.387 . S
H809 C805 0.950 . S
H810 C807 0.950 . S
C811 C802 1.390 . S
C811 H804 0.950 . S
C811 C808 1.387 . S
C812 C813 1.387 . S
C812 H816 0.950 . S
C812 C821 1.390 . S
C813 C812 1.387 . S
C813 C815 1.387 . S
H814 C821 0.950 . S
C815 C813 1.387 . S
C815 C817 1.390 . S
C815 H819 0.950 . S
H816 C812 0.950 . S
C817 C815 1.390 . S
C817 C818 1.387 . S
C817 H820 0.950 . S
C818 C817 1.387 . S
C818 C821 1.387 . S
H819 C815 0.950 . S
H820 C817 0.950 . S
C821 C812 1.390 . S
C821 H814 0.950 . S
C821 C818 1.387 . S
C822 C823 1.387 . S
C822 H826 0.950 . S
C822 C831 1.390 . S
C823 C822 1.387 . S
C823 C825 1.387 . S
H824 C831 0.950 . S
C825 C823 1.387 . S
C825 C827 1.390 . S
C825 H829 0.950 . S
H826 C822 0.950 . S
C827 C825 1.390 . S
C827 C828 1.387 . S
C827 H830 0.950 . S
C828 C827 1.387 . S
C828 C831 1.387 . S
H829 C825 0.950 . S
H830 C827 0.950 . S
C831 C822 1.390 . S
C831 H824 0.950 . S
C831 C828 1.387 . S
C832 C833 1.387 . S
C832 H836 0.950 . S
C832 C841 1.390 . S
C833 C832 1.387 . S
C833 C835 1.387 . S
H834 C841 0.950 . S
C835 C833 1.387 . S
C835 C837 1.390 . S
C835 H839 0.950 . S
H836 C832 0.950 . S
C837 C835 1.390 . S
C837 C838 1.387 . S
C837 H840 0.950 . S
C838 C837 1.387 . S
C838 C841 1.387 . S
H839 C835 0.950 . S
H840 C837 0.950 . S
C841 C832 1.390 . S
C841 H834 0.950 . S
C841 C838 1.387 . S
C842 C843 1.387 . S
C842 H846 0.950 . S
C842 C851 1.390 . S
C843 C842 1.387 . S
C843 C845 1.387 . S
H844 C851 0.950 . S
C845 C843 1.387 . S
C845 C847 1.390 . S
C845 H849 0.950 . S
H846 C842 0.950 . S
C847 C845 1.390 . S
C847 C848 1.387 . S
C847 H850 0.950 . S
C848 C847 1.387 . S
C848 C851 1.387 . S
H849 C845 0.950 . S
H850 C847 0.950 . S
C851 C842 1.390 . S
C851 H844 0.950 . S
C851 C848 1.387 . S
C852 C853 1.387 . S
C852 H856 0.950 . S
C852 C861 1.390 . S
C853 C852 1.387 . S
C853 C855 1.387 . S
H854 C861 0.950 . S
C855 C853 1.387 . S
C855 C857 1.390 . S
C855 H859 0.950 . S
H856 C852 0.950 . S
C857 C855 1.390 . S
C857 C858 1.387 . S
C857 H860 0.950 . S
C858 C857 1.387 . S
C858 C861 1.387 . S
H859 C855 0.950 . S
H860 C857 0.950 . S
C861 C852 1.390 . S
C861 H854 0.950 . S
C861 C858 1.387 . S
C862 C863 1.387 . S
C862 H866 0.950 . S
C862 C871 1.390 . S
C863 C862 1.387 . S
C863 C865 1.387 . S
H864 C871 0.950 . S
C865 C863 1.387 . S
C865 C867 1.390 . S
C865 H869 0.950 . S
H866 C862 0.950 . S
C867 C865 1.390 . S
C867 C868 1.387 . S
C867 H870 0.950 . S
C868 C867 1.387 . S
C868 C871 1.387 . S
H869 C865 0.950 . S
H870 C867 0.950 . S
C871 C862 1.390 . S
C871 H864 0.950 . S
C871 C868 1.387 . S
C872 C873 1.387 . S
C872 H876 0.950 . S
C872 C881 1.390 . S
C873 C872 1.387 . S
C873 C875 1.387 . S
H874 C881 0.950 . S
C875 C873 1.387 . S
C875 C877 1.390 . S
C875 H879 0.950 . S
H876 C872 0.950 . S
C877 C875 1.390 . S
C877 C878 1.387 . S
C877 H880 0.950 . S
C878 C877 1.387 . S
C878 C881 1.387 . S
H879 C875 0.950 . S
H880 C877 0.950 . S
C881 C872 1.390 . S
C881 H874 0.950 . S
C881 C878 1.387 . S
C882 C883 1.387 . S
C882 H886 0.950 . S
C882 C891 1.390 . S
C883 C882 1.387 . S
C883 C885 1.387 . S
H884 C891 0.950 . S
C885 C883 1.387 . S
C885 C887 1.390 . S
C885 H889 0.950 . S
H886 C882 0.950 . S
C887 C885 1.390 . S
C887 C888 1.387 . S
C887 H890 0.950 . S
C888 C887 1.387 . S
C888 C891 1.387 . S
H889 C885 0.950 . S
H890 C887 0.950 . S
C891 C882 1.390 . S
C891 H884 0.950 . S
C891 C888 1.387 . S
C892 C893 1.387 . S
C892 H896 0.950 . S
C892 C901 1.390 . S
C893 C892 1.387 . S
C893 C895 1.387 . S
H894 C901 0.950 . S
C895 C893 1.387 . S
C895 C897 1.390 . S
C895 H899 0.950 . S
H896 C892 0.950 . S
C897 C895 1.390 . S
C897 C898 1.387 . S
C897 H900 0.950 . S
C898 C897 1.387 . S
C898 C901 1.387 . S
H899 C895 0.950 . S
H900 C897 0.950 . S
C901 C892 1.390 . S
C901 H894 0.950 . S
C901 C898 1.387 . S
C902 C903 1.387 . S
C902 H906 0.950 . S
C902 C911 1.390 . S
C903 C902 1.387 . S
C903 C905 1.387 . S
H904 C911 0.950 . S
C905 C903 1.387 . S
C905 C907 1.390 . S
C905 H909 0.950 . S
H906 C902 0.950 . S
C907 C905 1.390 . S
C907 C908 1.387 . S
C907 H910 0.950 . S
C908 C907 1.387 . S
C908 C911 1.387 . S
H909 C905 0.950 . S
H910 C907 0.950 . S
C911 C902 1.390 . S
C911 H904 0.950 . S
C911 C908 1.387 . S
C912 C913 1.387 . S
C912 H916 0.950 . S
C912 C921 1.390 . S
C913 C912 1.387 . S
C913 C915 1.387 . S
H914 C921 0.950 . S
C915 C913 1.387 . S
C915 C917 1.390 . S
C915 H919 0.950 . S
H916 C912 0.950 . S
C917 C915 1.390 . S
C917 C918 1.387 . S
C917 H920 0.950 . S
C918 C917 1.387 . S
C918 C921 1.387 . S
H919 C915 0.950 . S
H920 C917 0.950 . S
C921 C912 1.390 . S
C921 H914 0.950 . S
C921 C918 1.387 . S
C922 C923 1.387 . S
C922 H926 0.950 . S
C922 C931 1.390 . S
C923 C922 1.387 . S
C923 C925 1.387 . S
H924 C931 0.950 . S
C925 C923 1.387 . S
C925 C927 1.390 . S
C925 H929 0.950 . S
H926 C922 0.950 . S
C927 C925 1.390 . S
C927 C928 1.387 . S
C927 H930 0.950 . S
C928 C927 1.387 . S
C928 C931 1.387 . S
H929 C925 0.950 . S
H930 C927 0.950 . S
C931 C922 1.390 . S
C931 H924 0.950 . S
C931 C928 1.387 . S
C932 C933 1.387 . S
C932 H936 0.950 . S
C932 C941 1.390 . S
C933 C932 1.387 . S
C933 C935 1.387 . S
H934 C941 0.950 . S
C935 C933 1.387 . S
C935 C937 1.390 . S
C935 H939 0.950 . S
H936 C932 0.950 . S
C937 C935 1.390 . S
C937 C938 1.387 . S
C937 H940 0.950 . S
C938 C937 1.387 . S
C938 C941 1.387 . S
H939 C935 0.950 . S
H940 C937 0.950 . S
C941 C932 1.390 . S
C941 H934 0.950 . S
C941 C938 1.387 . S
C942 C943 1.387 . S
C942 H946 0.950 . S
C942 C951 1.390 . S
C943 C942 1.387 . S
C943 C945 1.387 . S
H944 C951 0.950 . S
C945 C943 1.387 . S
C945 C947 1.390 . S
C945 H949 0.950 . S
H946 C942 0.950 . S
C947 C945 1.390 . S
C947 C948 1.387 . S
C947 H950 0.950 . S
C948 C947 1.387 . S
C948 C951 1.387 . S
H949 C945 0.950 . S
H950 C947 0.950 . S
C951 C942 1.390 . S
C951 H944 0.950 . S
C951 C948 1.387 . S
C952 C953 1.387 . S
C952 H956 0.950 . S
C952 C961 1.390 . S
C953 C952 1.387 . S
C953 C955 1.387 . S
H954 C961 0.950 . S
C955 C953 1.387 . S
C955 C957 1.390 . S
C955 H959 0.950 . S
H956 C952 0.950 . S
C957 C955 1.390 . S
C957 C958 1.387 . S
C957 H960 0.950 . S
C958 C957 1.387 . S
C958 C961 1.387 . S
H959 C955 0.950 . S
H960 C957 0.950 . S
C961 C952 1.390 . S
C961 H954 0.950 . S
C961 C958 1.387 . S
C962 C963 1.387 . S
C962 H966 0.950 . S
C962 C971 1.390 . S
C963 C962 1.387 . S
C963 C965 1.387 . S
H964 C971 0.950 . S
C965 C963 1.387 . S
C965 C967 1.390 . S
C965 H969 0.950 . S
H966 C962 0.950 . S
C967 C965 1.390 . S
C967 C968 1.387 . S
C967 H970 0.950 . S
C968 C967 1.387 . S
C968 C971 1.387 . S
H969 C965 0.950 . S
H970 C967 0.950 . S
C971 C962 1.390 . S
C971 H964 0.950 . S
C971 C968 1.387 . S
C972 C973 1.387 . S
C972 H976 0.950 . S
C972 C981 1.390 . S
C973 C972 1.387 . S
C973 C975 1.387 . S
H974 C981 0.950 . S
C975 C973 1.387 . S
C975 C977 1.390 . S
C975 H979 0.950 . S
H976 C972 0.950 . S
C977 C975 1.390 . S
C977 C978 1.387 . S
C977 H980 0.950 . S
C978 C977 1.387 . S
C978 C981 1.387 . S
H979 C975 0.950 . S
H980 C977 0.950 . S
C981 C972 1.390 . S
C981 H974 0.950 . S
C981 C978 1.387 . S
C982 C983 1.387 . S
C982 H986 0.950 . S
C982 C991 1.390 . S
C983 C982 1.387 . S
C983 C985 1.387 . S
H984 C991 0.950 . S
C985 C983 1.387 . S
C985 C987 1.390 . S
C985 H989 0.950 . S
H986 C982 0.950 . S
C987 C985 1.390 . S
C987 C988 1.387 . S
C987 H990 0.950 . S
C988 C987 1.387 . S
C988 C991 1.387 . S
H989 C985 0.950 . S
H990 C987 0.950 . S
C991 C982 1.390 . S
C991 H984 0.950 . S
C991 C988 1.387 . S
C992 C993 1.387 . S
C992 H996 0.950 . S
C992 C1001 1.390 . S
C993 C992 1.387 . S
C993 C995 1.387 . S
H994 C1001 0.950 . S
C995 C993 1.387 . S
C995 C997 1.390 . S
C995 H999 0.950 . S
H996 C992 0.950 . S
C997 C995 1.390 . S
C997 C998 1.387 . S
C997 H1000 0.950 . S
C998 C997 1.387 . S
C998 C1001 1.387 . S
H999 C995 0.950 . S
H1000 C997 0.950 . S
C1001 C992 1.390 . S
C1001 H994 0.950 . S
C1001 C998 1.387 . S
C1002 C1003 1.387 . S
C1002 H1006 0.950 . S
C1002 C1011 1.390 . S
C1003 C1002 1.387 . S
C1003 C1005 1.387 . S
H1004 C1011 0.950 . S
C1005 C1003 1.387 . S
C1005 C1007 1.390 . S
C1005 H1009 0.950 . S
H1006 C1002 0.950 . S
C1007 C1005 1.390 . S
C1007 C1008 1.387 . S
C1007 H1010 0.950 . S
C1008 C1007 1.387 . S
C1008 C1011 1.387 . S
H1009 C1005 0.950 . S
H1010 C1007 0.950 . S
C1011 C1002 1.390 . S
C1011 H1004 0.950 . S
C1011 C1008 1.387 . S
C1012 C1013 1.387 . S
C1012 H1016 0.950 . S
C1012 C1021 1.390 . S
C1013 C1012 1.387 . S
C1013 C1015 1.387 . S
H1014 C1021 0.950 . S
C1015 C1013 1.387 . S
C1015 C1017 1.390 . S
C1015 H1019 0.950 . S
H1016 C1012 0.950 . S
C1017 C1015 1.390 . S
C1017 C1018 1.387 . S
C1017 H1020 0.950 . S
C1018 C1017 1.387 . S
C1018 C1021 1.387 . S
H1019 C1015 0.950 . S
H1020 C1017 0.950 . S
C1021 C1012 1.390 . S
C1021 H1014 0.950 . S
C1021 C1018 1.387 . S
C1022 C1023 1.387 . S
C1022 H1026 0.950 . S
C1022 C1031 1.390 . S
C1023 C1022 1.387 . S
C1023 C1025 1.387 . S
H1024 C1031 0.950 . S
C1025 C1023 1.387 . S
C1025 C1027 1.390 . S
C1025 H1029 0.950 . S
H1026 C1022 0.950 . S
C1027 C1025 1.390 . S
C1027 C1028 1.387 . S
C1027 H1030 0.950 . S
C1028 C1027 1.387 . S
C1028 C1031 1.387 . S
H1029 C1025 0.950 . S
H1030 C1027 0.950 . S
C1031 C1022 1.390 . S
C1031 H1024 0.950 . S
C1031 C1028 1.387 . S
C1032 C1033 1.387 . S
C1032 H1036 0.950 . S
C1032 C1041 1.390 . S
C1033 C1032 1.387 . S
C1033 C1035 1.387 . S
H1034 C1041 0.950 . S
C1035 C1033 1.387 . S
C1035 C1037 1.390 . S
C1035 H1039 0.950 . S
H1036 C1032 0.950 . S
C1037 C1035 1.390 . S
C1037 C1038 1.387 . S
C1037 H1040 0.950 . S
C1038 C1037 1.387 . S
C1038 C1041 1.387 . S
H1039 C1035 0.950 . S
H1040 C1037 0.950 . S
C1041 C1032 1.390 . S
C1041 H1034 0.950 . S
C1041 C1038 1.387 . S
C1042 C1043 1.387 . S
C1042 H1046 0.950 . S
C1042 C1051 1.390 . S
C1043 C1042 1.387 . S
C1043 C1045 1.387 . S
H1044 C1051 0.950 . S
C1045 C1043 1.387 . S
C1045 C1047 1.390 . S
C1045 H1049 0.950 . S
H1046 C1042 0.950 . S
C1047 C1045 1.390 . S
C1047 C1048 1.387 . S
C1047 H1050 0.950 . S
C1048 C1047 1.387 . S
C1048 C1051 1.387 . S
H1049 C1045 0.950 . S
H1050 C1047 0.950 . S
C1051 C1042 1.390 . S
C1051 H1044 0.950 . S
C1051 C1048 1.387 . S
C1052 C1053 1.387 . S
C1052 H1056 0.950 . S
C1052 C1061 1.390 . S
C1053 C1052 1.387 . S
C1053 C1055 1.387 . S
H1054 C1061 0.950 . S
C1055 C1053 1.387 . S
C1055 C1057 1.390 . S
C1055 H1059 0.950 . S
H1056 C1052 0.950 . S
C1057 C1055 1.390 . S
C1057 C1058 1.387 . S
C1057 H1060 0.950 . S
C1058 C1057 1.387 . S
C1058 C1061 1.387 . S
H1059 C1055 0.950 . S
H1060 C1057 0.950 . S
C1061 C1052 1.390 . S
C1061 H1054 0.950 . S
C1061 C1058 1.387 . S
C1062 C1063 1.387 . S
C1062 H1066 0.950 . S
C1062 C1071 1.390 . S
C1063 C1062 1.387 . S
C1063 C1065 1.387 . S
H1064 C1071 0.950 . S
C1065 C1063 1.387 . S
C1065 C1067 1.390 . S
C1065 H1069 0.950 . S
H1066 C1062 0.950 . S
C1067 C1065 1.390 . S
C1067 C1068 1.387 . S
C1067 H1070 0.950 . S
C1068 C1067 1.387 . S
C1068 C1071 1.387 . S
H1069 C1065 0.950 . S
H1070 C1067 0.950 . S
C1071 C1062 1.390 . S
C1071 H1064 0.950 . S
C1071 C1068 1.387 . S
C1072 C1073 1.387 . S
C1072 H1076 0.950 . S
C1072 C1081 1.390 . S
C1073 C1072 1.387 . S
C1073 C1075 1.387 . S
H1074 C1081 0.950 . S
C1075 C1073 1.387 . S
C1075 C1077 1.390 . S
C1075 H1079 0.950 . S
H1076 C1072 0.950 . S
C1077 C1075 1.390 . S
C1077 C1078 1.387 . S
C1077 H1080 0.950 . S
C1078 C1077 1.387 . S
C1078 C1081 1.387 . S
H1079 C1075 0.950 . S
H1080 C1077 0.950 . S
C1081 C1072 1.390 . S
C1081 H1074 0.950 . S
C1081 C1078 1.387 . S
C1082 C1083 1.387 . S
C1082 H1086 0.950 . S
C1082 C1091 1.390 . S
C1083 C1082 1.387 . S
C1083 C1085 1.387 . S
H1084 C1091 0.950 . S
C1085 C1083 1.387 . S
C1085 C1087 1.390 . S
C1085 H1089 0.950 . S
H1086 C1082 0.950 . S
C1087 C1085 1.390 . S
C1087 C1088 1.387 . S
C1087 H1090 0.950 . S
C1088 C1087 1.387 . S
C1088 C1091 1.387 . S
H1089 C1085 0.950 . S
H1090 C1087 0.950 . S
C1091 C1082 1.390 . S
C1091 H1084 0.950 . S
C1091 C1088 1.387 . S
C1092 C1093 1.387 . S
C1092 H1096 0.950 . S
C1092 C1101 1.390 . S
C1093 C1092 1.387 . S
C1093 C1095 1.387 . S
H1094 C1101 0.950 . S
C1095 C1093 1.387 . S
C1095 C1097 1.390 . S
C1095 H1099 0.950 . S
H1096 C1092 0.950 . S
C1097 C1095 1.390 . S
C1097 C1098 1.387 . S
C1097 H1100 0.950 . S
C1098 C1097 1.387 . S
C1098 C1101 1.387 . S
H1099 C1095 0.950 . S
H1100 C1097 0.950 . S
C1101 C1092 1.390 . S
C1101 H1094 0.950 . S
C1101 C1098 1.387 . S
C1102 C1103 1.387 . S
C1102 H1106 0.950 . S
C1102 C1111 1.390 . S
C1103 C1102 1.387 . S
C1103 C1105 1.387 . S
H1104 C1111 0.950 . S
C1105 C1103 1.387 . S
C1105 C1107 1.390 . S
C1105 H1109 0.950 . S
H1106 C1102 0.950 . S
C1107 C1105 1.390 . S
C1107 C1108 1.387 . S
C1107 H1110 0.950 . S
C1108 C1107 1.387 . S
C1108 C1111 1.387 . S
H1109 C1105 0.950 . S
H1110 C1107 0.950 . S
C1111 C1102 1.390 . S
C1111 H1104 0.950 . S
C1111 C1108 1.387 . S
C1112 C1113 1.387 . S
C1112 H1116 0.950 . S
C1112 C1121 1.390 . S
C1113 C1112 1.387 . S
C1113 C1115 1.387 . S
H1114 C1121 0.950 . S
C1115 C1113 1.387 . S
C1115 C1117 1.390 . S
C1115 H1119 0.950 . S
H1116 C1112 0.950 . S
C1117 C1115 1.390 . S
C1117 C1118 1.387 . S
C1117 H1120 0.950 . S
C1118 C1117 1.387 . S
C1118 C1121 1.387 . S
H1119 C1115 0.950 . S
H1120 C1117 0.950 . S
C1121 C1112 1.390 . S
C1121 H1114 0.950 . S
C1121 C1118 1.387 . S
C1122 C1123 1.387 . S
C1122 H1126 0.950 . S
C1122 C1131 1.390 . S
C1123 C1122 1.387 . S
C1123 C1125 1.387 . S
H1124 C1131 0.950 . S
C1125 C1123 1.387 . S
C1125 C1127 1.390 . S
C1125 H1129 0.950 . S
H1126 C1122 0.950 . S
C1127 C1125 1.390 . S
C1127 C1128 1.387 . S
C1127 H1130 0.950 . S
C1128 C1127 1.387 . S
C1128 C1131 1.387 . S
H1129 C1125 0.950 . S
H1130 C1127 0.950 . S
C1131 C1122 1.390 . S
C1131 H1124 0.950 . S
C1131 C1128 1.387 . S
C1132 C1133 1.387 . S
C1132 H1136 0.950 . S
C1132 C1141 1.390 . S
C1133 C1132 1.387 . S
C1133 C1135 1.387 . S
H1134 C1141 0.950 . S
C1135 C1133 1.387 . S
C1135 C1137 1.390 . S
C1135 H1139 0.950 . S
H1136 C1132 0.950 . S
C1137 C1135 1.390 . S
C1137 C1138 1.387 . S
C1137 H1140 0.950 . S
C1138 C1137 1.387 . S
C1138 C1141 1.387 . S
H1139 C1135 0.950 . S
H1140 C1137 0.950 . S
C1141 C1132 1.390 . S
C1141 H1134 0.950 . S
C1141 C1138 1.387 . S
C1142 C1143 1.387 . S
C1142 H1146 0.950 . S
C1142 C1151 1.390 . S
C1143 C1142 1.387 . S
C1143 C1145 1.387 . S
H1144 C1151 0.950 . S
C1145 C1143 1.387 . S
C1145 C1147 1.390 . S
C1145 H1149 0.950 . S
H1146 C1142 0.950 . S
C1147 C1145 1.390 . S
C1147 C1148 1.387 . S
C1147 H1150 0.950 . S
C1148 C1147 1.387 . S
C1148 C1151 1.387 . S
H1149 C1145 0.950 . S
H1150 C1147 0.950 . S
C1151 C1142 1.390 . S
C1151 H1144 0.950 . S
C1151 C1148 1.387 . S
C1152 C1153 1.387 . S
C1152 H1156 0.950 . S
C1152 C1161 1.390 . S
C1153 C1152 1.387 . S
C1153 C1155 1.387 . S
H1154 C1161 0.950 . S
C1155 C1153 1.387 . S
C1155 C1157 1.390 . S
C1155 H1159 0.950 . S
H1156 C1152 0.950 . S
C1157 C1155 1.390 . S
C1157 C1158 1.387 . S
C1157 H1160 0.950 . S
C1158 C1157 1.387 . S
C1158 C1161 1.387 . S
H1159 C1155 0.950 . S
H1160 C1157 0.950 . S
C1161 C1152 1.390 . S
C1161 H1154 0.950 . S
C1161 C1158 1.387 . S
C1162 C1163 1.387 . S
C1162 H1166 0.950 . S
C1162 C1171 1.390 . S
C1163 C1162 1.387 . S
C1163 C1165 1.387 . S
H1164 C1171 0.950 . S
C1165 C1163 1.387 . S
C1165 C1167 1.390 . S
C1165 H1169 0.950 . S
H1166 C1162 0.950 . S
C1167 C1165 1.390 . S
C1167 C1168 1.387 . S
C1167 H1170 0.950 . S
C1168 C1167 1.387 . S
C1168 C1171 1.387 . S
H1169 C1165 0.950 . S
H1170 C1167 0.950 . S
C1171 C1162 1.390 . S
C1171 H1164 0.950 . S
C1171 C1168 1.387 . S
C1172 C1173 1.387 . S
C1172 H1176 0.950 . S
C1172 C1181 1.390 . S
C1173 C1172 1.387 . S
C1173 C1175 1.387 . S
H1174 C1181 0.950 . S
C1175 C1173 1.387 . S
C1175 C1177 1.390 . S
C1175 H1179 0.950 . S
H1176 C1172 0.950 . S
C1177 C1175 1.390 . S
C1177 C1178 1.387 . S
C1177 H1180 0.950 . S
C1178 C1177 1.387 . S
C1178 C1181 1.387 . S
H1179 C1175 0.950 . S
H1180 C1177 0.950 . S
C1181 C1172 1.390 . S
C1181 H1174 0.950 . S
C1181 C1178 1.387 . S
C1182 C1183 1.387 . S
C1182 H1186 0.950 . S
C1182 C1191 1.390 . S
C1183 C1182 1.387 . S
C1183 C1185 1.387 . S
H1184 C1191 0.950 . S
C1185 C1183 1.387 . S
C1185 C1187 1.390 . S
C1185 H1189 0.950 . S
H1186 C1182 0.950 . S
C1187 C1185 1.390 . S
C1187 C1188 1.387 . S
C1187 H1190 0.950 . S
C1188 C1187 1.387 . S
C1188 C1191 1.387 . S
H1189 C1185 0.950 . S
H1190 C1187 0.950 . S
C1191 C1182 1.390 . S
C1191 H1184 0.950 . S
C1191 C1188 1.387 . S
C1192 C1193 1.387 . S
C1192 H1196 0.950 . S
C1192 C1201 1.390 . S
C1193 C1192 1.387 . S
C1193 C1195 1.387 . S
H1194 C1201 0.950 . S
C1195 C1193 1.387 . S
C1195 C1197 1.390 . S
C1195 H1199 0.950 . S
H1196 C1192 0.950 . S
C1197 C1195 1.390 . S
C1197 C1198 1.387 . S
C1197 H1200 0.950 . S
C1198 C1197 1.387 . S
C1198 C1201 1.387 . S
H1199 C1195 0.950 . S
H1200 C1197 0.950 . S
C1201 C1192 1.390 . S
C1201 H1194 0.950 . S
C1201 C1198 1.387 . S
C1202 C1203 1.387 . S
C1202 H1206 0.950 . S
C1202 C1211 1.390 . S
C1203 C1202 1.387 . S
C1203 C1205 1.387 . S
H1204 C1211 0.950 . S
C1205 C1203 1.387 . S
C1205 C1207 1.390 . S
C1205 H1209 0.950 . S
H1206 C1202 0.950 . S
C1207 C1205 1.390 . S
C1207 C1208 1.387 . S
C1207 H1210 0.950 . S
C1208 C1207 1.387 . S
C1208 C1211 1.387 . S
H1209 C1205 0.950 . S
H1210 C1207 0.950 . S
C1211 C1202 1.390 . S
C1211 H1204 0.950 . S
C1211 C1208 1.387 . S
C1212 C1213 1.387 . S
C1212 H1216 0.950 . S
C1212 C1221 1.390 . S
C1213 C1212 1.387 . S
C1213 C1215 1.387 . S
H1214 C1221 0.950 . S
C1215 C1213 1.387 . S
C1215 C1217 1.390 . S
C1215 H1219 0.950 . S
H1216 C1212 0.950 . S
C1217 C1215 1.390 . S
C1217 C1218 1.387 . S
C1217 H1220 0.950 . S
C1218 C1217 1.387 . S
C1218 C1221 1.387 . S
H1219 C1215 0.950 . S
H1220 C1217 0.950 . S
C1221 C1212 1.390 . S
C1221 H1214 0.950 . S
C1221 C1218 1.387 . S
C1222 C1223 1.387 . S
C1222 H1226 0.950 . S
C1222 C1231 1.390 . S
C1223 C1222 1.387 . S
C1223 C1225 1.387 . S
H1224 C1231 0.950 . S
C1225 C1223 1.387 . S
C1225 C1227 1.390 . S
C1225 H1229 0.950 . S
H1226 C1222 0.950 . S
C1227 C1225 1.390 . S
C1227 C1228 1.387 . S
C1227 H1230 0.950 . S
C1228 C1227 1.387 . S
C1228 C1231 1.387 . S
H1229 C1225 0.950 . S
H1230 C1227 0.950 . S
C1231 C1222 1.390 . S
C1231 H1224 0.950 . S
C1231 C1228 1.387 . S
C1232 C1233 1.387 . S
C1232 H1236 0.950 . S
C1232 C1241 1.390 . S
C1233 C1232 1.387 . S
C1233 C1235 1.387 . S
H1234 C1241 0.950 . S
C1235 C1233 1.387 . S
C1235 C1237 1.390 . S
C1235 H1239 0.950 . S
H1236 C1232 0.950 . S
C1237 C1235 1.390 . S
C1237 C1238 1.387 . S
C1237 H1240 0.950 . S
C1238 C1237 1.387 . S
C1238 C1241 1.387 . S
H1239 C1235 0.950 . S
H1240 C1237 0.950 . S
C1241 C1232 1.390 . S
C1241 H1234 0.950 . S
C1241 C1238 1.387 . S
C1242 C1243 1.387 . S
C1242 H1246 0.950 . S
C1242 C1251 1.390 . S
C1243 C1242 1.387 . S
C1243 C1245 1.387 . S
H1244 C1251 0.950 . S
C1245 C1243 1.387 . S
C1245 C1247 1.390 . S
C1245 H1249 0.950 . S
H1246 C1242 0.950 . S
C1247 C1245 1.390 . S
C1247 C1248 1.387 . S
C1247 H1250 0.950 . S
C1248 C1247 1.387 . S
C1248 C1251 1.387 . S
H1249 C1245 0.950 . S
H1250 C1247 0.950 . S
C1251 C1242 1.390 . S
C1251 H1244 0.950 . S
C1251 C1248 1.387 . S
C1252 C1253 1.387 . S
C1252 H1256 0.950 . S
C1252 C1261 1.390 . S
C1253 C1252 1.387 . S
C1253 C1255 1.387 . S
H1254 C1261 0.950 . S
C1255 C1253 1.387 . S
C1255 C1257 1.390 . S
C1255 H1259 0.950 . S
H1256 C1252 0.950 . S
C1257 C1255 1.390 . S
C1257 C1258 1.387 . S
C1257 H1260 0.950 . S
C1258 C1257 1.387 . S
C1258 C1261 1.387 . S
H1259 C1255 0.950 . S
H1260 C1257 0.950 . S
C1261 C1252 1.390 . S
C1261 H1254 0.950 . S
C1261 C1258 1.387 . S
C1262 C1263 1.387 . S
C1262 H1266 0.950 . S
C1262 C1271 1.390 . S
C1263 C1262 1.387 . S
C1263 C1265 1.387 . S
H1264 C1271 0.950 . S
C1265 C1263 1.387 . S
C1265 C1267 1.390 . S
C1265 H1269 0.950 . S
H1266 C1262 0.950 . S
C1267 C1265 1.390 . S
C1267 C1268 1.387 . S
C1267 H1270 0.950 . S
C1268 C1267 1.387 . S
C1268 C1271 1.387 . S
H1269 C1265 0.950 . S
H1270 C1267 0.950 . S
C1271 C1262 1.390 . S
C1271 H1264 0.950 . S
C1271 C1268 1.387 . S
C1272 C1273 1.387 . S
C1272 H1276 0.950 . S
C1272 C1281 1.390 . S
C1273 C1272 1.387 . S
C1273 C1275 1.387 . S
H1274 C1281 0.950 . S
C1275 C1273 1.387 . S
C1275 C1277 1.390 . S
C1275 H1279 0.950 . S
H1276 C1272 0.950 . S
C1277 C1275 1.390 . S
C1277 C1278 1.387 . S
C1277 H1280 0.950 . S
C1278 C1277 1.387 . S
C1278 C1281 1.387 . S
H1279 C1275 0.950 . S
H1280 C1277 0.950 . S
C1281 C1272 1.390 . S
C1281 H1274 0.950 . S
C1281 C1278 1.387 . S
C1282 C1283 1.387 . S
C1282 H1286 0.950 . S
C1282 C1291 1.390 . S
C1283 C1282 1.387 . S
C1283 C1285 1.387 . S
H1284 C1291 0.950 . S
C1285 C1283 1.387 . S
C1285 C1287 1.390 . S
C1285 H1289 0.950 . S
H1286 C1282 0.950 . S
C1287 C1285 1.390 . S
C1287 C1288 1.387 . S
C1287 H1290 0.950 . S
C1288 C1287 1.387 . S
C1288 C1291 1.387 . S
H1289 C1285 0.950 . S
H1290 C1287 0.950 . S
C1291 C1282 1.390 . S
C1291 H1284 0.950 . S
C1291 C1288 1.387 . S
C1292 C1293 1.387 . S
C1292 H1296 0.950 . S
C1292 C1301 1.390 . S
C1293 C1292 1.387 . S
C1293 C1295 1.387 . S
H1294 C1301 0.950 . S
C1295 C1293 1.387 . S
C1295 C1297 1.390 . S
C1295 H1299 0.950 . S
H1296 C1292 0.950 . S
C1297 C1295 1.390 . S
C1297 C1298 1.387 . S
C1297 H1300 0.950 . S
C1298 C1297 1.387 . S
C1298 C1301 1.387 . S
H1299 C1295 0.950 . S
H1300 C1297 0.950 . S
C1301 C1292 1.390 . S
C1301 H1294 0.950 . S
C1301 C1298 1.387 . S
C1302 C1303 1.387 . S
C1302 H1306 0.950 . S
C1302 C1311 1.390 . S
C1303 C1302 1.387 . S
C1303 C1305 1.387 . S
H1304 C1311 0.950 . S
C1305 C1303 1.387 . S
C1305 C1307 1.390 . S
C1305 H1309 0.950 . S
H1306 C1302 0.950 . S
C1307 C1305 1.390 . S
C1307 C1308 1.387 . S
C1307 H1310 0.950 . S
C1308 C1307 1.387 . S
C1308 C1311 1.387 . S
H1309 C1305 0.950 . S
H1310 C1307 0.950 . S
C1311 C1302 1.390 . S
C1311 H1304 0.950 . S
C1311 C1308 1.387 . S
C1312 C1313 1.387 . S
C1312 H1316 0.950 . S
C1312 C1321 1.390 . S
C1313 C1312 1.387 . S
C1313 C1315 1.387 . S
H1314 C1321 0.950 . S
C1315 C1313 1.387 . S
C1315 C1317 1.390 . S
C1315 H1319 0.950 . S
H1316 C1312 0.950 . S
C1317 C1315 1.390 . S
C1317 C1318 1.387 . S
C1317 H1320 0.950 . S
C1318 C1317 1.387 . S
C1318 C1321 1.387 . S
H1319 C1315 0.950 . S
H1320 C1317 0.950 . S
C1321 C1312 1.390 . S
C1321 H1314 0.950 . S
C1321 C1318 1.387 . S
C1322 C1323 1.387 . S
C1322 H1326 0.950 . S
C1322 C1331 1.390 . S
C1323 C1322 1.387 . S
C1323 C1325 1.387 . S
H1324 C1331 0.950 . S
C1325 C1323 1.387 . S
C1325 C1327 1.390 . S
C1325 H1329 0.950 . S
H1326 C1322 0.950 . S
C1327 C1325 1.390 . S
C1327 C1328 1.387 . S
C1327 H1330 0.950 . S
C1328 C1327 1.387 . S
C1328 C1331 1.387 . S
H1329 C1325 0.950 . S
H1330 C1327 0.950 . S
C1331 C1322 1.390 . S
C1331 H1324 0.950 . S
C1331 C1328 1.387 . S
C1332 C1333 1.387 . S
C1332 H1336 0.950 . S
C1332 C1341 1.390 . S
C1333 C1332 1.387 . S
C1333 C1335 1.387 . S
H1334 C1341 0.950 . S
C1335 C1333 1.387 . S
C1335 C1337 1.390 . S
C1335 H1339 0.950 . S
H1336 C1332 0.950 . S
C1337 C1335 1.390 . S
C1337 C1338 1.387 . S
C1337 H1340 0.950 . S
C1338 C1337 1.387 . S
C1338 C1341 1.387 . S
H1339 C1335 0.950 . S
H1340 C1337 0.950 . S
C1341 C1332 1.390 . S
C1341 H1334 0.950 . S
C1341 C1338 1.387 . S
C1342 C1343 1.387 . S
C1342 H1346 0.950 . S
C1342 C1351 1.390 . S
C1343 C1342 1.387 . S
C1343 C1345 1.387 . S
H1344 C1351 0.950 . S
C1345 C1343 1.387 . S
C1345 C1347 1.390 . S
C1345 H1349 0.950 . S
H1346 C1342 0.950 . S
C1347 C1345 1.390 . S
C1347 C1348 1.387 . S
C1347 H1350 0.950 . S
C1348 C1347 1.387 . S
C1348 C1351 1.387 . S
H1349 C1345 0.950 . S
H1350 C1347 0.950 . S
C1351 C1342 1.390 . S
C1351 H1344 0.950 . S
C1351 C1348 1.387 . S
C1352 C1353 1.387 . S
C1352 H1356 0.950 . S
C1352 C1361 1.390 . S
C1353 C1352 1.387 . S
C1353 C1355 1.387 . S
H1354 C1361 0.950 . S
C1355 C1353 1.387 . S
C1355 C1357 1.390 . S
C1355 H1359 0.950 . S
H1356 C1352 0.950 . S
C1357 C1355 1.390 . S
C1357 C1358 1.387 . S
C1357 H1360 0.950 . S
C1358 C1357 1.387 . S
C1358 C1361 1.387 . S
H1359 C1355 0.950 . S
H1360 C1357 0.950 . S
C1361 C1352 1.390 . S
C1361 H1354 0.950 . S
C1361 C1358 1.387 . S
C1362 C1363 1.387 . S
C1362 H1366 0.950 . S
C1362 C1371 1.390 . S
C1363 C1362 1.387 . S
C1363 C1365 1.387 . S
H1364 C1371 0.950 . S
C1365 C1363 1.387 . S
C1365 C1367 1.390 . S
C1365 H1369 0.950 . S
H1366 C1362 0.950 . S
C1367 C1365 1.390 . S
C1367 C1368 1.387 . S
C1367 H1370 0.950 . S
C1368 C1367 1.387 . S
C1368 C1371 1.387 . S
H1369 C1365 0.950 . S
H1370 C1367 0.950 . S
C1371 C1362 1.390 . S
C1371 H1364 0.950 . S
C1371 C1368 1.387 . S
C1372 C1373 1.387 . S
C1372 H1376 0.950 . S
C1372 C1381 1.390 . S
C1373 C1372 1.387 . S
C1373 C1375 1.387 . S
H1374 C1381 0.950 . S
C1375 C1373 1.387 . S
C1375 C1377 1.390 . S
C1375 H1379 0.950 . S
H1376 C1372 0.950 . S
C1377 C1375 1.390 . S
C1377 C1378 1.387 . S
C1377 H1380 0.950 . S
C1378 C1377 1.387 . S
C1378 C1381 1.387 . S
H1379 C1375 0.950 . S
H1380 C1377 0.950 . S
C1381 C1372 1.390 . S
C1381 H1374 0.950 . S
C1381 C1378 1.387 . S
C1382 C1383 1.387 . S
C1382 H1386 0.950 . S
C1382 C1391 1.390 . S
C1383 C1382 1.387 . S
C1383 C1385 1.387 . S
H1384 C1391 0.950 . S
C1385 C1383 1.387 . S
C1385 C1387 1.390 . S
C1385 H1389 0.950 . S
H1386 C1382 0.950 . S
C1387 C1385 1.390 . S
C1387 C1388 1.387 . S
C1387 H1390 0.950 . S
C1388 C1387 1.387 . S
C1388 C1391 1.387 . S
H1389 C1385 0.950 . S
H1390 C1387 0.950 . S
C1391 C1382 1.390 . S
C1391 H1384 0.950 . S
C1391 C1388 1.387 . S
C1392 C1393 1.387 . S
C1392 H1396 0.950 . S
C1392 C1401 1.390 1_554 S
C1393 C1392 1.387 . S
C1393 C1395 1.387 . S
H1394 C1401 0.950 . S
C1395 C1393 1.387 . S
C1395 C1397 1.390 1_554 S
C1395 H1399 0.950 . S
H1396 C1392 0.950 . S
C1397 C1395 1.390 1_556 S
C1397 C1398 1.387 . S
C1397 H1400 0.950 . S
C1398 C1397 1.387 . S
C1398 C1401 1.387 . S
H1399 C1395 0.950 . S
H1400 C1397 0.950 . S
C1401 C1392 1.390 1_556 S
C1401 H1394 0.950 . S
C1401 C1398 1.387 . S
C1402 C1403 1.387 . S
C1402 H1406 0.950 . S
C1402 C1411 1.390 1_556 S
C1403 C1402 1.387 . S
C1403 C1405 1.387 . S
H1404 C1411 0.950 . S
C1405 C1403 1.387 . S
C1405 C1407 1.390 1_556 S
C1405 H1409 0.950 . S
H1406 C1402 0.950 . S
C1407 C1405 1.390 1_554 S
C1407 C1408 1.387 . S
C1407 H1410 0.950 . S
C1408 C1407 1.387 . S
C1408 C1411 1.387 . S
H1409 C1405 0.950 . S
H1410 C1407 0.950 . S
C1411 C1402 1.390 1_554 S
C1411 H1404 0.950 . S
C1411 C1408 1.387 . S
C1412 C1413 1.387 . S
C1412 H1416 0.950 . S
C1412 C1421 1.390 1_554 S
C1413 C1412 1.387 . S
C1413 C1415 1.387 . S
H1414 C1421 0.950 . S
C1415 C1413 1.387 . S
C1415 C1417 1.390 1_554 S
C1415 H1419 0.950 . S
H1416 C1412 0.950 . S
C1417 C1415 1.390 1_556 S
C1417 C1418 1.387 . S
C1417 H1420 0.950 . S
C1418 C1417 1.387 . S
C1418 C1421 1.387 . S
H1419 C1415 0.950 . S
H1420 C1417 0.950 . S
C1421 C1412 1.390 1_556 S
C1421 H1414 0.950 . S
C1421 C1418 1.387 . S
C1422 C1423 1.387 . S
C1422 H1426 0.950 . S
C1422 C1431 1.390 1_554 S
C1423 C1422 1.387 . S
C1423 C1425 1.387 . S
H1424 C1431 0.950 . S
C1425 C1423 1.387 . S
C1425 C1427 1.390 1_554 S
C1425 H1429 0.950 . S
H1426 C1422 0.950 . S
C1427 C1425 1.390 1_556 S
C1427 C1428 1.387 . S
C1427 H1430 0.950 . S
C1428 C1427 1.387 . S
C1428 C1431 1.387 . S
H1429 C1425 0.950 . S
H1430 C1427 0.950 . S
C1431 C1422 1.390 1_556 S
C1431 H1424 0.950 . S
C1431 C1428 1.387 . S
C1432 C1433 1.387 . S
C1432 H1436 0.950 . S
C1432 C1441 1.390 1_556 S
C1433 C1432 1.387 . S
C1433 C1435 1.387 . S
H1434 C1441 0.950 . S
C1435 C1433 1.387 . S
C1435 C1437 1.390 1_556 S
C1435 H1439 0.950 . S
H1436 C1432 0.950 . S
C1437 C1435 1.390 1_554 S
C1437 C1438 1.387 . S
C1437 H1440 0.950 . S
C1438 C1437 1.387 . S
C1438 C1441 1.387 . S
H1439 C1435 0.950 . S
H1440 C1437 0.950 . S
C1441 C1432 1.390 1_554 S
C1441 H1434 0.950 . S
C1441 C1438 1.387 . S
C1442 C1443 1.387 . S
C1442 H1446 0.950 . S
C1442 C1451 1.390 1_554 S
C1443 C1442 1.387 . S
C1443 C1445 1.387 . S
H1444 C1451 0.950 . S
C1445 C1443 1.387 . S
C1445 C1447 1.390 1_554 S
C1445 H1449 0.950 . S
H1446 C1442 0.950 . S
C1447 C1445 1.390 1_556 S
C1447 C1448 1.387 . S
C1447 H1450 0.950 . S
C1448 C1447 1.387 . S
C1448 C1451 1.387 . S
H1449 C1445 0.950 . S
H1450 C1447 0.950 . S
C1451 C1442 1.390 1_556 S
C1451 H1444 0.950 . S
C1451 C1448 1.387 . S
C1452 C1453 1.387 . S
C1452 H1456 0.950 . S
C1452 C1461 1.390 1_556 S
C1453 C1452 1.387 . S
C1453 C1455 1.387 . S
H1454 C1461 0.950 . S
C1455 C1453 1.387 . S
C1455 C1457 1.390 1_556 S
C1455 H1459 0.950 . S
H1456 C1452 0.950 . S
C1457 C1455 1.390 1_554 S
C1457 C1458 1.387 . S
C1457 H1460 0.950 . S
C1458 C1457 1.387 . S
C1458 C1461 1.387 . S
H1459 C1455 0.950 . S
H1460 C1457 0.950 . S
C1461 C1452 1.390 1_554 S
C1461 H1454 0.950 . S
C1461 C1458 1.387 . S
C1462 C1463 1.387 . S
C1462 H1466 0.950 . S
C1462 C1471 1.390 1_554 S
C1463 C1462 1.387 . S
C1463 C1465 1.387 . S
H1464 C1471 0.950 . S
C1465 C1463 1.387 . S
C1465 C1467 1.390 1_554 S
C1465 H1469 0.950 . S
H1466 C1462 0.950 . S
C1467 C1465 1.390 1_556 S
C1467 C1468 1.387 . S
C1467 H1470 0.950 . S
C1468 C1467 1.387 . S
C1468 C1471 1.387 . S
H1469 C1465 0.950 . S
H1470 C1467 0.950 . S
C1471 C1462 1.390 1_556 S
C1471 H1464 0.950 . S
C1471 C1468 1.387 . S
C1472 C1473 1.387 . S
C1472 H1476 0.950 . S
C1472 C1481 1.390 1_455 S
C1473 C1472 1.387 . S
C1473 C1475 1.387 . S
H1474 C1481 0.950 . S
C1475 C1473 1.387 . S
C1475 C1477 1.390 1_455 S
C1475 H1479 0.950 . S
H1476 C1472 0.950 . S
C1477 C1475 1.390 1_655 S
C1477 C1478 1.387 . S
C1477 H1480 0.950 . S
C1478 C1477 1.387 . S
C1478 C1481 1.387 . S
H1479 C1475 0.950 . S
H1480 C1477 0.950 . S
C1481 C1472 1.390 1_655 S
C1481 H1474 0.950 . S
C1481 C1478 1.387 . S
C1482 C1483 1.387 . S
C1482 H1486 0.950 . S
C1482 C1491 1.390 1_565 S
C1483 C1482 1.387 . S
C1483 C1485 1.387 . S
H1484 C1491 0.950 . S
C1485 C1483 1.387 . S
C1485 C1487 1.390 1_565 S
C1485 H1489 0.950 . S
H1486 C1482 0.950 . S
C1487 C1485 1.390 1_545 S
C1487 C1488 1.387 . S
C1487 H1490 0.950 . S
C1488 C1487 1.387 . S
C1488 C1491 1.387 . S
H1489 C1485 0.950 . S
H1490 C1487 0.950 . S
C1491 C1482 1.390 1_545 S
C1491 H1484 0.950 . S
C1491 C1488 1.387 . S
C1492 C1493 1.387 . S
C1492 H1496 0.950 . S
C1492 C1501 1.390 1_455 S
C1493 C1492 1.387 . S
C1493 C1495 1.387 . S
H1494 C1501 0.950 . S
C1495 C1493 1.387 . S
C1495 C1497 1.390 1_455 S
C1495 H1499 0.950 . S
H1496 C1492 0.950 . S
C1497 C1495 1.390 1_655 S
C1497 C1498 1.387 . S
C1497 H1500 0.950 . S
C1498 C1497 1.387 . S
C1498 C1501 1.387 . S
H1499 C1495 0.950 . S
H1500 C1497 0.950 . S
C1501 C1492 1.390 1_655 S
C1501 H1494 0.950 . S
C1501 C1498 1.387 . S
C1502 C1503 1.387 . S
C1502 H1506 0.950 . S
C1502 C1511 1.390 1_565 S
C1503 C1502 1.387 . S
C1503 C1505 1.387 . S
H1504 C1511 0.950 . S
C1505 C1503 1.387 . S
C1505 C1507 1.390 1_565 S
C1505 H1509 0.950 . S
H1506 C1502 0.950 . S
C1507 C1505 1.390 1_545 S
C1507 C1508 1.387 . S
C1507 H1510 0.950 . S
C1508 C1507 1.387 . S
C1508 C1511 1.387 . S
H1509 C1505 0.950 . S
H1510 C1507 0.950 . S
C1511 C1502 1.390 1_545 S
C1511 H1504 0.950 . S
C1511 C1508 1.387 . S
C1512 C1513 1.387 . S
C1512 H1516 0.950 . S
C1512 C1521 1.390 1_655 S
C1513 C1512 1.387 . S
C1513 C1515 1.387 . S
H1514 C1521 0.950 . S
C1515 C1513 1.387 . S
C1515 C1517 1.390 1_655 S
C1515 H1519 0.950 . S
H1516 C1512 0.950 . S
C1517 C1515 1.390 1_455 S
C1517 C1518 1.387 . S
C1517 H1520 0.950 . S
C1518 C1517 1.387 . S
C1518 C1521 1.387 . S
H1519 C1515 0.950 . S
H1520 C1517 0.950 . S
C1521 C1512 1.390 1_455 S
C1521 H1514 0.950 . S
C1521 C1518 1.387 . S
C1522 C1523 1.387 . S
C1522 H1526 0.950 . S
C1522 C1531 1.390 1_545 S
C1523 C1522 1.387 . S
C1523 C1525 1.387 . S
H1524 C1531 0.950 . S
C1525 C1523 1.387 . S
C1525 C1527 1.390 1_545 S
C1525 H1529 0.950 . S
H1526 C1522 0.950 . S
C1527 C1525 1.390 1_565 S
C1527 C1528 1.387 . S
C1527 H1530 0.950 . S
C1528 C1527 1.387 . S
C1528 C1531 1.387 . S
H1529 C1525 0.950 . S
H1530 C1527 0.950 . S
C1531 C1522 1.390 1_565 S
C1531 H1524 0.950 . S
C1531 C1528 1.387 . S
C1532 C1533 1.387 . S
C1532 H1536 0.950 . S
C1532 C1541 1.390 1_455 S
C1533 C1532 1.387 . S
C1533 C1535 1.387 . S
H1534 C1541 0.950 . S
C1535 C1533 1.387 . S
C1535 C1537 1.390 1_455 S
C1535 H1539 0.950 . S
H1536 C1532 0.950 . S
C1537 C1535 1.390 1_655 S
C1537 C1538 1.387 . S
C1537 H1540 0.950 . S
C1538 C1537 1.387 . S
C1538 C1541 1.387 . S
H1539 C1535 0.950 . S
H1540 C1537 0.950 . S
C1541 C1532 1.390 1_655 S
C1541 H1534 0.950 . S
C1541 C1538 1.387 . S
C1542 C1543 1.387 . S
C1542 H1546 0.950 . S
C1542 C1551 1.390 1_545 S
C1543 C1542 1.387 . S
C1543 C1545 1.387 . S
H1544 C1551 0.950 . S
C1545 C1543 1.387 . S
C1545 C1547 1.390 1_545 S
C1545 H1549 0.950 . S
H1546 C1542 0.950 . S
C1547 C1545 1.390 1_565 S
C1547 C1548 1.387 . S
C1547 H1550 0.950 . S
C1548 C1547 1.387 . S
C1548 C1551 1.387 . S
H1549 C1545 0.950 . S
H1550 C1547 0.950 . S
C1551 C1542 1.390 1_565 S
C1551 H1544 0.950 . S
C1551 C1548 1.387 . S
C1552 C1553 1.387 . S
C1552 H1556 0.950 . S
C1552 C1561 1.390 1_545 S
C1553 C1552 1.387 . S
C1553 C1555 1.387 . S
H1554 C1561 0.950 . S
C1555 C1553 1.387 . S
C1555 C1557 1.390 1_545 S
C1555 H1559 0.950 . S
H1556 C1552 0.950 . S
C1557 C1555 1.390 1_565 S
C1557 C1558 1.387 . S
C1557 H1560 0.950 . S
C1558 C1557 1.387 . S
C1558 C1561 1.387 . S
H1559 C1555 0.950 . S
H1560 C1557 0.950 . S
C1561 C1552 1.390 1_565 S
C1561 H1554 0.950 . S
C1561 C1558 1.387 . S
C1562 C1563 1.387 . S
C1562 H1566 0.950 . S
C1562 C1571 1.390 1_545 S
C1563 C1562 1.387 . S
C1563 C1565 1.387 . S
H1564 C1571 0.950 . S
C1565 C1563 1.387 . S
C1565 C1567 1.390 1_545 S
C1565 H1569 0.950 . S
H1566 C1562 0.950 . S
C1567 C1565 1.390 1_565 S
C1567 C1568 1.387 . S
C1567 H1570 0.950 . S
C1568 C1567 1.387 . S
C1568 C1571 1.387 . S
H1569 C1565 0.950 . S
H1570 C1567 0.950 . S
C1571 C1562 1.390 1_565 S
C1571 H1564 0.950 . S
C1571 C1568 1.387 . S
C1572 C1573 1.387 . S
C1572 H1576 0.950 . S
C1572 C1581 1.390 1_655 S
C1573 C1572 1.387 . S
C1573 C1575 1.387 . S
H1574 C1581 0.950 . S
C1575 C1573 1.387 . S
C1575 C1577 1.390 1_655 S
C1575 H1579 0.950 . S
H1576 C1572 0.950 . S
C1577 C1575 1.390 1_455 S
C1577 C1578 1.387 . S
C1577 H1580 0.950 . S
C1578 C1577 1.387 . S
C1578 C1581 1.387 . S
H1579 C1575 0.950 . S
H1580 C1577 0.950 . S
C1581 C1572 1.390 1_455 S
C1581 H1574 0.950 . S
C1581 C1578 1.387 . S
C1582 C1583 1.387 . S
C1582 H1586 0.950 . S
C1582 C1591 1.390 1_545 S
C1583 C1582 1.387 . S
C1583 C1585 1.387 . S
H1584 C1591 0.950 . S
C1585 C1583 1.387 . S
C1585 C1587 1.390 1_545 S
C1585 H1589 0.950 . S
H1586 C1582 0.950 . S
C1587 C1585 1.390 1_565 S
C1587 C1588 1.387 . S
C1587 H1590 0.950 . S
C1588 C1587 1.387 . S
C1588 C1591 1.387 . S
H1589 C1585 0.950 . S
H1590 C1587 0.950 . S
C1591 C1582 1.390 1_565 S
C1591 H1584 0.950 . S
C1591 C1588 1.387 . S
C1592 C1593 1.387 . S
C1592 H1596 0.950 . S
C1592 C1601 1.390 1_455 S
C1593 C1592 1.387 . S
C1593 C1595 1.387 . S
H1594 C1601 0.950 . S
C1595 C1593 1.387 . S
C1595 C1597 1.390 1_455 S
C1595 H1599 0.950 . S
H1596 C1592 0.950 . S
C1597 C1595 1.390 1_655 S
C1597 C1598 1.387 . S
C1597 H1600 0.950 . S
C1598 C1597 1.387 . S
C1598 C1601 1.387 . S
H1599 C1595 0.950 . S
H1600 C1597 0.950 . S
C1601 C1592 1.390 1_655 S
C1601 H1594 0.950 . S
C1601 C1598 1.387 . S
C1602 C1603 1.387 . S
C1602 H1606 0.950 . S
C1602 C1611 1.390 1_545 S
C1603 C1602 1.387 . S
C1603 C1605 1.387 . S
H1604 C1611 0.950 . S
C1605 C1603 1.387 . S
C1605 C1607 1.390 1_545 S
C1605 H1609 0.950 . S
H1606 C1602 0.950 . S
C1607 C1605 1.390 1_565 S
C1607 C1608 1.387 . S
C1607 H1610 0.950 . S
C1608 C1607 1.387 . S
C1608 C1611 1.387 . S
H1609 C1605 0.950 . S
H1610 C1607 0.950 . S
C1611 C1602 1.390 1_565 S
C1611 H1604 0.950 . S
C1611 C1608 1.387 . S
C1612 C1613 1.387 . S
C1612 H1616 0.950 . S
C1612 C1621 1.390 1_655 S
C1613 C1612 1.387 . S
C1613 C1615 1.387 . S
H1614 C1621 0.950 . S
C1615 C1613 1.387 . S
C1615 C1617 1.390 1_655 S
C1615 H1619 0.950 . S
H1616 C1612 0.950 . S
C1617 C1615 1.390 1_455 S
C1617 C1618 1.387 . S
C1617 H1620 0.950 . S
C1618 C1617 1.387 . S
C1618 C1621 1.387 . S
H1619 C1615 0.950 . S
H1620 C1617 0.950 . S
C1621 C1612 1.390 1_455 S
C1621 H1614 0.950 . S
C1621 C1618 1.387 . S
C1622 C1623 1.387 . S
C1622 H1626 0.950 . S
C1622 C1631 1.390 1_455 S
C1623 C1622 1.387 . S
C1623 C1625 1.387 . S
H1624 C1631 0.950 . S
C1625 C1623 1.387 . S
C1625 C1627 1.390 1_455 S
C1625 H1629 0.950 . S
H1626 C1622 0.950 . S
C1627 C1625 1.390 1_655 S
C1627 C1628 1.387 . S
C1627 H1630 0.950 . S
C1628 C1627 1.387 . S
C1628 C1631 1.387 . S
H1629 C1625 0.950 . S
H1630 C1627 0.950 . S
C1631 C1622 1.390 1_655 S
C1631 H1624 0.950 . S
C1631 C1628 1.387 . S
C673 C557 1.235 . S
C678 C5 1.136 . S
C683 C25 1.366 . S
C688 C509 1.227 . S
C693 C33 1.198 . S
C698 C529 1.308 . S
C703 C537 1.229 . S
C708 C53 1.367 . S
C713 C473 1.360 . S
C718 C67 1.335 . S
C723 C75 1.168 . S
C728 C481 1.149 . S
C733 C95 1.333 . S
C738 C501 1.359 . S
C743 C103 1.105 . S
C748 C453 1.112 . S
C753 C117 1.129 . S
C758 C439 1.156 . S
C763 C403 1.373 . S
C768 C137 1.350 . S
C773 C411 1.158 . S
C778 C145 1.127 . S
C783 C159 1.229 . S
C788 C431 1.335 . S
C793 C173 1.182 . S
C798 C361 1.326 . S
C803 C187 1.179 . S
C808 C375 1.263 . S
C813 C389 1.356 . S
C818 C207 1.357 . S
C823 C347 1.264 . S
C828 C215 1.177 . S
C833 C235 1.260 . S
C838 C621 1.156 . S
C843 C663 1.243 . S
C848 C243 1.227 . S
C853 C641 1.299 . S
C858 C263 1.318 . S
C863 C649 1.231 . S
C868 C271 1.205 . S
C873 C571 1.279 . S
C878 C291 1.304 . S
C883 C593 1.177 . S
C888 C305 1.272 . S
C893 C313 1.183 . S
C898 C607 1.197 . S
C903 C579 1.189 . S
C908 C327 1.155 . S
C913 C459 1.242 . S
C918 C285 1.135 . S
C923 C249 1.386 . S
C928 C467 1.281 . S
C933 C487 1.315 . S
C938 C257 1.203 . S
C943 C495 1.285 . S
C948 C277 1.388 . S
C953 C333 1.340 . S
C958 C515 1.344 . S
C963 C523 1.155 . S
C968 C299 1.168 . S
C973 C319 1.338 . S
C978 C543 1.340 . S
C983 C229 1.106 . S
C988 C551 1.116 . S
C993 C565 1.164 . S
C998 C221 1.272 . S
C1003 C179 1.354 . S
C1008 C669 1.376 . S
C1013 C635 1.163 . S
C1018 C193 1.273 . S
C1023 C201 1.234 . S
C1028 C655 1.340 . S
C1033 C131 1.181 . S
C1038 C585 1.324 . S
C1043 C151 1.274 . S
C1048 C599 1.275 . S
C1053 C165 1.354 . S
C1058 C613 1.353 . S
C1063 C627 1.275 . S
C1068 C123 1.272 . S
C1073 C341 1.146 . S
C1078 C109 1.248 . S
C1083 C397 1.222 . S
C1088 C19 1.222 . S
C1093 C417 1.285 . S
C1098 C39 1.301 . S
C1103 C425 1.211 . S
C1108 C47 1.196 . S
C1113 C445 1.265 . S
C1118 C11 1.288 . S
C1123 C81 1.263 . S
C1128 C369 1.169 . S
C1133 C383 1.182 . S
C1138 C89 1.177 . S
C1143 C355 1.173 . S
C1148 C61 1.147 . S
C1153 C12 1.244 . S
C1158 C368 1.233 . S
C1163 C382 1.350 . S
C1168 C18 1.362 . S
C1173 C40 1.239 . S
C1178 C340 1.225 . S
C1183 C46 1.350 . S
C1188 C354 1.347 . S
C1193 C60 1.313 . S
C1198 C424 1.331 . S
C1203 C446 1.114 . S
C1208 C82 1.109 . S
C1213 C88 1.316 . S
C1218 C396 1.328 . S
C1223 C418 1.119 . S
C1228 C110 1.117 . S
C1233 C124 1.339 . S
C1238 C516 1.336 . S
C1243 C522 1.349 . S
C1248 C130 1.322 . S
C1253 C152 1.344 . S
C1258 C544 1.343 . S
C1263 C166 1.218 . S
C1268 C550 1.209 . S
C1273 C180 1.211 . S
C1278 C460 1.207 . S
C1283 C194 1.293 . S
C1288 C466 1.288 . S
C1293 C488 1.344 . S
C1298 C200 1.318 . S
C1303 C222 1.289 . S
C1308 C494 1.281 . S
C1313 C614 1.288 . S
C1318 C228 1.259 . S
C1323 C250 1.296 . S
C1328 C634 1.258 . S
C1333 C256 1.336 . S
C1338 C656 1.359 . S
C1343 C564 1.232 . S
C1348 C278 1.268 . S
C1353 C670 1.412 . S
C1358 C284 1.386 . S
C1363 C298 1.211 . S
C1368 C586 1.233 . S
C1373 C600 1.291 . S
C1378 C320 1.307 . S
C1383 C334 1.278 . S
C1388 C628 1.264 . S
C1393 C592 1.247 . S
C1398 C292 1.264 . S
C1403 C242 1.359 . S
C1408 C606 1.349 . S
C1413 C620 1.238 . S
C1418 C264 1.258 . S
C1423 C578 1.347 . S
C1428 C270 1.350 . S
C1433 C648 1.333 . S
C1438 C326 1.314 . S
C1443 C306 1.127 . S
C1448 C572 1.128 . S
C1453 C662 1.331 . S
C1458 C312 1.314 . S
C1463 C236 1.134 . S
C1468 C642 1.132 . S
C1473 C474 1.367 . S
C1478 C214 1.362 . S
C1483 C172 1.318 . S
C1488 C480 1.345 . S
C1493 C186 1.369 . S
C1498 C502 1.376 . S
C1503 C452 1.203 . S
C1508 C208 1.217 . S
C1513 C138 1.205 . S
C1518 C558 1.204 . S
C1523 C508 1.281 . S
C1528 C144 1.283 . S
C1533 C158 1.314 . S
C1538 C530 1.338 . S
C1543 C116 1.277 . S
C1548 C536 1.273 . S
C1553 C390 1.273 . S
C1558 C102 1.243 . S
C1563 C26 1.234 . S
C1568 C410 1.197 . S
C1573 C32 1.311 . S
C1578 C432 1.338 . S
C1583 C438 1.171 . S
C1588 C54 1.205 . S
C1593 C4 1.363 . S
C1598 C404 1.394 . S
C1603 C74 1.189 . S
C1608 C362 1.214 . S
C1613 C96 1.247 . S
C1618 C376 1.235 . S
C1623 C68 1.219 . S
C1628 C348 1.205 . S
