# Generated by pormake.
# Topology xfu, (5)-cn, num edge types: 1
# Building blocks:
#     Node 0, Type 0, BuildingBlock: XOMCOT_clean_sbu_1, # of connection points: 5
#     Node 1, Type 0, BuildingBlock: XOMCOT_clean_sbu_1, # of connection points: 5
#     Node 2, Type 0, BuildingBlock: XOMCOT_clean_sbu_1, # of connection points: 5
#     Node 3, Type 0, BuildingBlock: XOMCOT_clean_sbu_1, # of connection points: 5
#     Node 4, Type 0, BuildingBlock: XOMCOT_clean_sbu_1, # of connection points: 5
#     Node 5, Type 0, BuildingBlock: XOMCOT_clean_sbu_1, # of connection points: 5
#     Node 6, Type 0, BuildingBlock: XOMCOT_clean_sbu_1, # of connection points: 5
#     Node 7, Type 0, BuildingBlock: XOMCOT_clean_sbu_1, # of connection points: 5
#     Edge 8, Type (0, 0), BuildingBlock: XIVTED_clean_linker_0, # of connection points: 2
#     Edge 9, Type (0, 0), BuildingBlock: XIVTED_clean_linker_0, # of connection points: 2
#     Edge 10, Type (0, 0), BuildingBlock: XIVTED_clean_linker_0, # of connection points: 2
#     Edge 11, Type (0, 0), BuildingBlock: XIVTED_clean_linker_0, # of connection points: 2
#     Edge 12, Type (0, 0), BuildingBlock: XIVTED_clean_linker_0, # of connection points: 2
#     Edge 13, Type (0, 0), BuildingBlock: XIVTED_clean_linker_0, # of connection points: 2
#     Edge 14, Type (0, 0), BuildingBlock: XIVTED_clean_linker_0, # of connection points: 2
#     Edge 15, Type (0, 0), BuildingBlock: XIVTED_clean_linker_0, # of connection points: 2
#     Edge 16, Type (0, 0), BuildingBlock: XIVTED_clean_linker_0, # of connection points: 2
#     Edge 17, Type (0, 0), BuildingBlock: XIVTED_clean_linker_0, # of connection points: 2
#     Edge 18, Type (0, 0), BuildingBlock: XIVTED_clean_linker_0, # of connection points: 2
#     Edge 19, Type (0, 0), BuildingBlock: XIVTED_clean_linker_0, # of connection points: 2
#     Edge 20, Type (0, 0), BuildingBlock: XIVTED_clean_linker_0, # of connection points: 2
#     Edge 21, Type (0, 0), BuildingBlock: XIVTED_clean_linker_0, # of connection points: 2
#     Edge 22, Type (0, 0), BuildingBlock: XIVTED_clean_linker_0, # of connection points: 2
#     Edge 23, Type (0, 0), BuildingBlock: XIVTED_clean_linker_0, # of connection points: 2
#     Edge 24, Type (0, 0), BuildingBlock: XIVTED_clean_linker_0, # of connection points: 2
#     Edge 25, Type (0, 0), BuildingBlock: XIVTED_clean_linker_0, # of connection points: 2
#     Edge 26, Type (0, 0), BuildingBlock: XIVTED_clean_linker_0, # of connection points: 2
#     Edge 27, Type (0, 0), BuildingBlock: XIVTED_clean_linker_0, # of connection points: 2
# Relax obj value: 0.497
# Max RMSD: 0.275
# Mean RMSD: 0.275
data_MOF--net-xfu--node1-XOMCOT_clean_sbu_1--edge1-XIVTED_clean_linker_0
_symmetry_space_group_name_H-M    P1
_symmetry_Int_Tables_number       1
_symmetry_cell_setting            triclinic
loop_
_symmetry_equiv_pos_as_xyz
'x, y, z'
_cell_length_a     27.921077
_cell_length_b     28.01616
_cell_length_c     53.694214
_cell_angle_alpha  90.428116
_cell_angle_beta   90.740725
_cell_angle_gamma 90.053363
loop_
_atom_site_label
_atom_site_type_symbol
_atom_site_fract_x
_atom_site_fract_y
_atom_site_fract_z
_atom_type_partial_charge
C0 C 1.01831 0.34124 0.60809 0.0
C1 C 1.01788 0.38788 0.61609 0.0
N2 N 0.06282 0.40031 0.62298 0.0
N3 N 0.06344 0.32421 0.60964 0.0
C4 C 0.08981 0.36136 0.61818 0.0
H5 H 0.98693 0.32024 0.60353 0.0
Co6 Co 0.08452 0.26126 0.60543 0.0
C7 C 0.16649 0.28536 0.58791 0.0
O8 O 0.17199 0.27842 0.61195 0.0
N9 N 0.10682 0.19902 0.60004 0.0
C10 C 0.13879 0.12617 0.60151 0.0
C11 C 0.12515 0.1655 0.61546 0.0
C12 C 0.11224 0.18052 0.57706 0.0
N13 N 0.13091 0.13642 0.57739 0.0
O14 O 0.02787 0.25089 0.58382 0.0
H15 H 0.12842 0.16935 0.63547 0.0
H16 H 0.10168 0.19888 0.56018 0.0
O17 O 0.12441 0.28166 0.57839 0.0
C18 C 1.00081 0.21877 0.57401 0.0
O19 O 1.01158 0.1734 0.57627 0.0
N20 N 0.0502 0.24166 0.63438 0.0
C21 C 0.03805 0.20411 0.68216 0.0
C22 C 0.04805 0.25266 0.67879 0.0
C23 C 0.05665 0.26977 0.65506 0.0
C24 C 0.03041 0.19731 0.63705 0.0
C25 C 0.02563 0.17718 0.66078 0.0
H26 H 0.07284 0.30444 0.65399 0.0
H27 H 0.02459 0.17452 0.6211 0.0
H28 H 0.12703 0.35786 0.62367 0.0
H29 H 0.98617 0.40949 0.61852 0.0
H30 H 0.15385 0.09317 0.60843 0.0
H31 H 0.05429 0.2766 0.69439 0.0
H32 H 1.01656 0.13975 0.66194 0.0
C33 C 0.78154 0.48065 0.12222 0.0
C34 C 0.74915 0.48751 0.14108 0.0
N35 N 0.75189 0.53347 0.1484 0.0
N36 N 0.80414 0.52227 0.11776 0.0
C37 C 0.78472 0.55378 0.13376 0.0
H38 H 0.78988 0.44692 0.1134 0.0
Co39 Co 0.85626 0.53367 0.09749 0.0
C40 C 0.78733 0.61177 0.07907 0.0
O41 O 0.74735 0.58717 0.08015 0.0
N42 N 0.90729 0.54601 0.07692 0.0
C43 C 0.97773 0.56336 0.06065 0.0
C44 C 0.95485 0.54718 0.08159 0.0
C45 C 0.9021 0.56058 0.05322 0.0
N46 N 0.9442 0.57174 0.04293 0.0
O47 O 0.82752 0.49286 0.07202 0.0
H48 H 0.97157 0.53805 0.0992 0.0
H49 H 0.86771 0.56433 0.0439 0.0
O50 O 0.82694 0.59225 0.08516 0.0
C51 C 0.85068 0.45339 0.07192 0.0
O52 O 0.88894 0.4501 0.08633 0.0
N53 N 0.88634 0.56827 0.1234 0.0
C54 C 0.92518 0.61231 0.16568 0.0
C55 C 0.91817 0.6382 0.14368 0.0
C56 C 0.89852 0.61545 0.12265 0.0
C57 C 0.89561 0.54205 0.14419 0.0
C58 C 0.91415 0.56356 0.16573 0.0
H59 H 0.89319 0.63573 0.10586 0.0
H60 H 0.88707 0.50437 0.14426 0.0
H61 H 0.79646 0.59049 0.13566 0.0
H62 H 0.72797 0.46023 0.14995 0.0
H63 H 1.01591 0.5683 0.05857 0.0
H64 H 0.92694 0.67582 0.1429 0.0
H65 H 0.92008 0.54222 0.18222 0.0
C66 C 0.63044 0.23639 0.62635 0.0
C67 C 0.61814 0.19519 0.63848 0.0
N68 N 0.57139 0.19777 0.64429 0.0
N69 N 0.59158 0.2647 0.62445 0.0
C70 C 0.55619 0.24013 0.6354 0.0
H71 H 0.66594 0.24585 0.6203 0.0
Co72 Co 0.58958 0.32663 0.61261 0.0
C73 C 0.51309 0.27904 0.58041 0.0
O74 O 0.53665 0.23897 0.57712 0.0
N75 N 0.58763 0.38843 0.60094 0.0
C76 C 0.59167 0.46716 0.5976 0.0
C77 C 0.59742 0.42923 0.6135 0.0
C78 C 0.57638 0.40207 0.57764 0.0
N79 N 0.57856 0.4498 0.57505 0.0
O80 O 0.63108 0.30801 0.58564 0.0
H81 H 0.60855 0.43118 0.63284 0.0
H82 H 0.56693 0.37727 0.56283 0.0
O83 O 0.53183 0.31274 0.5933 0.0
C84 C 0.67289 0.32604 0.5884 0.0
O85 O 0.68077 0.3556 0.60712 0.0
N86 N 0.55307 0.34577 0.63989 0.0
C87 C 0.50992 0.38283 0.68229 0.0
C88 C 0.48446 0.3798 0.65965 0.0
C89 C 0.50688 0.36166 0.63853 0.0
C90 C 0.57809 0.34765 0.66183 0.0
C91 C 0.55722 0.3662 0.6833 0.0
H92 H 0.48748 0.36216 0.62104 0.0
H93 H 0.61495 0.33582 0.66243 0.0
H94 H 0.52067 0.25447 0.63815 0.0
H95 H 0.64225 0.16647 0.64344 0.0
H96 H 0.59811 0.50436 0.60208 0.0
H97 H 0.44816 0.39315 0.65804 0.0
H98 H 0.578 0.36792 0.70046 0.0
C99 C 0.79709 0.10784 0.11645 0.0
C100 C 0.83111 0.10425 0.13513 0.0
N101 N 0.8323 0.05859 0.1428 0.0
N102 N 0.77737 0.06453 0.11224 0.0
C103 C 0.79975 0.0353 0.12848 0.0
H104 H 0.78591 0.14042 0.10745 0.0
Co105 Co 0.72502 0.05001 0.09188 0.0
C106 C 0.79386 0.97073 0.07495 0.0
O107 O 0.8339 0.9954 0.07555 0.0
N108 N 0.67318 0.03465 0.0715 0.0
C109 C 0.60121 1.01633 0.05631 0.0
C110 C 0.6262 0.03256 0.07696 0.0
C111 C 0.67591 0.02025 0.04756 0.0
N112 N 0.63271 1.00867 0.03792 0.0
O113 O 0.75245 0.08857 0.06582 0.0
H114 H 0.61113 0.04198 0.09478 0.0
H115 H 0.70915 0.01781 0.03747 0.0
O116 O 0.75456 0.99084 0.08067 0.0
C117 C 0.72869 0.12759 0.06436 0.0
O118 O 0.68914 0.13124 0.07725 0.0
N119 N 0.69664 0.01834 0.11833 0.0
C120 C 0.65948 0.98375 0.16247 0.0
C121 C 0.67332 0.9522 0.14344 0.0
C122 C 0.69152 0.97027 0.12131 0.0
C123 C 0.68153 0.04946 0.13616 0.0
C124 C 0.66294 0.03296 0.15843 0.0
H125 H 0.70201 0.94558 0.10692 0.0
H126 H 0.68538 0.08744 0.13328 0.0
H127 H 0.79104 0.99787 0.13035 0.0
H128 H 0.85124 0.13347 0.14342 0.0
H129 H 0.56279 1.01168 0.05473 0.0
H130 H 0.67031 0.91394 0.1457 0.0
H131 H 0.65291 0.05853 0.17266 0.0
C132 C 0.1237 0.79393 0.34375 0.0
C133 C 0.11569 0.75902 0.32609 0.0
N134 N 0.06978 0.76199 0.31831 0.0
N135 N 0.083 0.81891 0.3472 0.0
C136 C 0.05056 0.79808 0.33163 0.0
H137 H 0.158 0.80242 0.3522 0.0
Co138 Co 0.07884 0.87703 0.36447 0.0
C139 C 1.00203 0.81782 0.38858 0.0
O140 O 0.02644 0.77785 0.38716 0.0
N141 N 0.07542 0.93506 0.38142 0.0
C142 C 0.08557 1.01158 0.3909 0.0
C143 C 0.08068 0.97902 0.37177 0.0
C144 C 0.07658 0.94175 0.40633 0.0
N145 N 0.08365 0.98794 0.41264 0.0
O146 O 0.12168 0.85253 0.39017 0.0
H147 H 0.08386 0.98662 0.35215 0.0
H148 H 0.07645 0.91272 0.41951 0.0
O149 O 0.02086 0.85667 0.38128 0.0
C150 C 0.16254 0.87284 0.38811 0.0
O151 O 0.16767 0.90503 0.37066 0.0
N152 N 0.04201 0.90225 0.33845 0.0
C153 C 0.9961 0.93801 0.29627 0.0
C154 C 0.97128 0.93311 0.31867 0.0
C155 C 0.99507 0.91555 0.33971 0.0
C156 C 0.06701 0.90805 0.31707 0.0
C157 C 0.0447 0.92565 0.29569 0.0
H158 H 0.97577 0.91313 0.35691 0.0
H159 H 0.10446 0.89825 0.3166 0.0
H160 H 1.01472 0.81171 0.32854 0.0
H161 H 0.1423 0.73502 0.31857 0.0
H162 H 0.09231 0.04939 0.38888 0.0
H163 H 0.934 0.94335 0.32 0.0
H164 H 0.06513 0.92872 0.27877 0.0
C165 C 0.29209 0.61474 0.83058 0.0
C166 C 0.32957 0.60381 0.81508 0.0
N167 N 0.33808 0.5566 0.81662 0.0
N168 N 0.27726 0.57459 0.84181 0.0
C169 C 0.30666 0.54006 0.83334 0.0
H170 H 0.27466 0.64904 0.83226 0.0
Co171 Co 0.22147 0.56843 0.85996 0.0
C172 C 0.21218 0.4657 0.87113 0.0
O173 O 0.16665 0.47018 0.86501 0.0
N174 N 0.16559 0.56325 0.87899 0.0
C175 C 0.12316 0.54968 0.91291 0.0
C176 C 0.16652 0.54372 0.90196 0.0
C177 C 0.12155 0.58326 0.87703 0.0
N178 N 0.095 0.57445 0.89726 0.0
O179 O 0.25277 0.59799 0.88828 0.0
H180 H 0.1978 0.52827 0.91082 0.0
H181 H 0.11022 0.60669 0.86222 0.0
O182 O 0.2399 0.50236 0.87017 0.0
C183 C 0.23611 0.6405 0.88815 0.0
O184 O 0.20595 0.65248 0.87027 0.0
N185 N 0.19038 0.54636 0.83077 0.0
C186 C 0.15823 0.53511 0.7817 0.0
C187 C 0.18584 0.49964 0.79317 0.0
C188 C 0.20212 0.50619 0.81756 0.0
C189 C 0.16349 0.58114 0.81978 0.0
C190 C 0.14618 0.57588 0.79543 0.0
H191 H 0.22667 0.4801 0.8249 0.0
H192 H 0.15834 0.6148 0.82928 0.0
H193 H 0.30333 0.5028 0.83807 0.0
H194 H 0.34651 0.62791 0.80221 0.0
H195 H 0.11419 0.54026 0.93182 0.0
H196 H 0.19623 0.46776 0.78306 0.0
H197 H 0.12604 0.60466 0.78695 0.0
C198 C 0.49971 0.81378 0.34712 0.0
C199 C 0.50156 0.84772 0.32879 0.0
N200 N 0.54779 0.85907 0.32518 0.0
N201 N 0.54456 0.80398 0.35519 0.0
C202 C 0.57287 0.83293 0.34181 0.0
H203 H 0.46795 0.79463 0.35251 0.0
Co204 Co 0.56218 0.75138 0.37427 0.0
C205 C 0.6417 0.81861 0.394 0.0
O206 O 0.61583 0.85685 0.3983 0.0
N207 N 0.5808 0.69783 0.39326 0.0
C208 C 0.62454 0.63642 0.40669 0.0
C209 C 0.62168 0.67275 0.38986 0.0
C210 C 0.56002 0.67622 0.41284 0.0
N211 N 0.58572 0.63873 0.42111 0.0
O212 O 0.52555 0.77735 0.40147 0.0
H213 H 0.64865 0.68051 0.37628 0.0
H214 H 0.52691 0.68737 0.42119 0.0
O215 O 0.6218 0.78092 0.38536 0.0
C216 C 0.48417 0.75774 0.39981 0.0
O217 O 0.47808 0.72273 0.38362 0.0
N218 N 0.59188 0.72506 0.34644 0.0
C219 C 0.62398 0.68033 0.30333 0.0
C220 C 0.65172 0.71576 0.31526 0.0
C221 C 0.63521 0.73753 0.33691 0.0
C222 C 0.56418 0.69123 0.33501 0.0
C223 C 0.57967 0.66807 0.31353 0.0
H224 H 0.65744 0.76432 0.34579 0.0
H225 H 0.52988 0.68205 0.3428 0.0
H226 H 0.61148 0.83248 0.34292 0.0
H227 H 0.47167 0.85942 0.31734 0.0
H228 H 0.65368 0.61122 0.40872 0.0
H229 H 0.6857 0.72712 0.30783 0.0
H230 H 0.55731 0.64052 0.30521 0.0
C231 C 0.25373 0.97477 0.82845 0.0
C232 C 0.21325 0.98242 0.81411 0.0
N233 N 0.19833 0.02767 0.81794 0.0
N234 N 0.26445 1.01493 0.84125 0.0
C235 C 0.22969 0.04613 0.83486 0.0
H236 H 0.27559 0.94293 0.82844 0.0
Co237 Co 0.32066 0.02459 0.8595 0.0
C238 C 0.3276 0.12819 0.86909 0.0
O239 O 0.37272 0.12412 0.86266 0.0
N240 N 0.37729 0.03313 0.87875 0.0
C241 C 0.42119 0.05168 0.91232 0.0
C242 C 0.37693 0.05481 0.90136 0.0
C243 C 0.422 1.01463 0.87714 0.0
N244 N 0.44942 0.02656 0.89706 0.0
O245 O 0.29152 0.99609 0.88802 0.0
H246 H 0.34559 0.07005 0.90997 0.0
H247 H 0.43355 0.99017 0.86282 0.0
O248 O 0.30058 0.09091 0.86891 0.0
C249 C 0.30964 0.95422 0.88857 0.0
O250 O 0.33972 0.9418 0.87106 0.0
N251 N 0.34975 0.046 0.83025 0.0
C252 C 0.39185 0.0637 0.78444 0.0
C253 C 0.35698 0.09465 0.79389 0.0
C254 C 0.3355 0.08455 0.81655 0.0
C255 C 0.38077 1.01376 0.82037 0.0
C256 C 0.40311 0.02236 0.79779 0.0
H257 H 0.30693 0.10748 0.82271 0.0
H258 H 0.38696 0.98022 0.82961 0.0
H259 H 0.22892 0.08255 0.84154 0.0
H260 H 0.19824 0.95755 0.80062 0.0
H261 H 0.4309 0.06341 0.93098 0.0
H262 H 0.34638 0.12649 0.78393 0.0
H263 H 0.42806 0.99628 0.79056 0.0
H264 H 0.1405 0.06382 0.42385 0.0
H265 H 0.10179 0.04504 0.57079 0.0
H266 H 0.05553 0.95327 0.4573 0.0
H267 H 0.17169 0.16218 0.53465 0.0
H268 H 0.09572 1.00309 0.53041 0.0
H269 H 0.16137 0.09395 0.46512 0.0
C270 C 0.12579 0.04611 0.43987 0.0
C271 C 0.09557 1.00636 0.43705 0.0
C272 C 0.11316 0.0376 0.53141 0.0
C273 C 0.12016 0.04028 0.48463 0.0
C274 C 0.11708 0.06112 0.55443 0.0
C275 C 0.13706 0.10695 0.55577 0.0
C276 C 0.12956 0.06029 0.50984 0.0
C277 C 0.15578 0.12693 0.53416 0.0
C278 C 0.13818 0.06304 0.46351 0.0
C279 C 0.0789 0.98402 0.45863 0.0
N280 N 0.1512 0.10369 0.51204 0.0
N281 N 0.09117 1.00148 0.48154 0.0
H282 H 0.89161 0.5486 0.00193 0.0
H283 H 0.08885 0.66214 0.91688 0.0
H284 H 1.01195 0.63338 0.02722 0.0
H285 H 1.00687 0.53684 0.89815 0.0
H286 H 0.03309 0.6801 0.9505 0.0
H287 H 0.90893 0.57069 0.95899 0.0
C288 C 0.9211 0.57265 -0.00153 0.0
C289 C 0.95118 0.58837 0.01802 0.0
C290 C 0.0259 0.64993 0.93828 0.0
C291 C 0.97071 0.61404 0.96914 0.0
C292 C 0.05717 0.64022 0.91887 0.0
C293 C 0.05243 0.59767 0.90522 0.0
C294 C 0.99001 0.61666 0.94377 0.0
C295 C 1.01152 0.5698 0.90856 0.0
C296 C 0.93081 0.58533 0.97401 0.0
C297 C 0.98883 0.61947 0.01256 0.0
N298 N 0.98243 0.57894 0.92805 0.0
N299 N 0.99793 0.63086 -0.01145 0.0
H300 H 0.54908 0.54159 0.57037 0.0
H301 H 0.60591 0.54518 0.4255 0.0
H302 H 0.59303 0.41799 0.52804 0.0
H303 H 0.54354 0.66472 0.46429 0.0
H304 H 0.59684 0.49676 0.4627 0.0
H305 H 0.54277 0.58676 0.53162 0.0
C306 C 0.55726 0.52397 0.55294 0.0
C307 C 0.57187 0.47609 0.55243 0.0
C308 C 0.58468 0.53344 0.46307 0.0
C309 C 0.56452 0.52719 0.50817 0.0
C310 C 0.59008 0.56105 0.44189 0.0
C311 C 0.57592 0.60897 0.44202 0.0
C312 C 0.56552 0.55414 0.48466 0.0
C313 C 0.55478 0.6278 0.4635 0.0
C314 C 0.55332 0.5496 0.53084 0.0
C315 C 0.58125 0.45467 0.52931 0.0
N316 N 0.55074 0.60044 0.48414 0.0
N317 N 0.5778 0.48049 0.50814 0.0
H318 H 0.46247 0.93764 0.91367 0.0
H319 H 0.67619 0.04014 -0.00359 0.0
H320 H 0.53433 0.0707 0.90071 0.0
H321 H 0.5647 0.94662 0.02189 0.0
H322 H 0.64819 0.02728 0.95343 0.0
H323 H 0.52526 0.91629 0.94398 0.0
C324 C 0.49308 0.96103 0.91624 0.0
C325 C 0.49364 1.00593 0.90501 0.0
C326 C 0.63072 1.00862 0.9684 0.0
C327 C 0.56416 0.98283 0.93978 0.0
C328 C 0.6466 1.01593 -0.00714 0.0
C329 C 0.62186 0.99523 0.01263 0.0
C330 C 0.59015 0.98014 0.9638 0.0
C331 C 0.5838 0.96415 0.00713 0.0
C332 C 0.52845 0.94923 0.9337 0.0
C333 C 0.53313 0.03577 0.90915 0.0
N334 N 0.56866 0.958 -0.0168 0.0
N335 N 0.5665 0.02418 0.92667 0.0
H336 H 0.1263 0.99113 0.78837 0.0
H337 H 0.10059 0.23579 0.71893 0.0
H338 H 0.1895 0.12429 0.81339 0.0
H339 H 1.00448 0.11816 0.70191 0.0
H340 H 0.12709 0.19554 0.75553 0.0
H341 H 0.07668 0.03568 0.75865 0.0
C342 C 0.12963 0.02957 0.78788 0.0
C343 C 0.16331 0.05356 0.80322 0.0
C344 C 0.09966 0.1786 0.74408 0.0
C345 C 0.10607 0.10468 0.76938 0.0
C346 C 0.08356 0.20213 0.72296 0.0
C347 C 0.04934 0.18112 0.70674 0.0
C348 C 0.08303 0.13259 0.74911 0.0
C349 C 0.03138 0.1359 0.71331 0.0
C350 C 0.10093 0.05497 0.771 0.0
C351 C 0.16472 0.10364 0.80209 0.0
N352 N 0.04902 0.1128 0.73376 0.0
N353 N 0.1371 0.12723 0.78529 0.0
H354 H 0.11465 0.73741 0.27578 0.0
H355 H 0.889 0.60948 0.21268 0.0
H356 H 0.97718 0.73508 0.31141 0.0
H357 H 1.00527 0.66775 0.1704 0.0
H358 H 0.92343 0.64608 0.25059 0.0
H359 H 0.07826 0.70148 0.23854 0.0
C360 C 0.07687 0.72877 0.27586 0.0
C361 C 0.04888 0.73888 0.29675 0.0
C362 C 0.94122 0.65098 0.23298 0.0
C363 C 1.00693 0.69811 0.2541 0.0
C364 C 0.92179 0.63 0.21144 0.0
C365 C 0.94449 0.63566 0.18848 0.0
C366 C 0.9841 0.67695 0.23156 0.0
C367 C 0.98661 0.66283 0.18774 0.0
C368 C 0.05603 0.70874 0.25451 0.0
C369 C 0.99986 0.72787 0.29563 0.0
N370 N 1.00532 0.68212 0.20903 0.0
N371 N 0.9804 0.70774 0.27468 0.0
H372 H 0.31672 0.46847 0.79859 0.0
H373 H 0.54862 0.45075 0.7134 0.0
H374 H 0.42256 0.58047 0.79561 0.0
H375 H 0.42089 0.36668 0.70105 0.0
H376 H 0.50946 0.4912 0.74829 0.0
H377 H 0.36144 0.42316 0.76774 0.0
C378 C 0.34986 0.4832 0.79176 0.0
C379 C 0.36617 0.52825 0.79979 0.0
C380 C 0.49015 0.46375 0.738 0.0
C381 C 0.41718 0.47673 0.76413 0.0
C382 C 0.51253 0.44047 0.71824 0.0
C383 C 0.48783 0.40543 0.70434 0.0
C384 C 0.44299 0.45145 0.74406 0.0
C385 C 0.44098 0.3938 0.71117 0.0
C386 C 0.37511 0.45749 0.77395 0.0
C387 C 0.40876 0.54599 0.78981 0.0
N388 N 0.42008 0.41672 0.73058 0.0
N389 N 0.4329 0.52015 0.77248 0.0
H390 H 0.50721 0.93161 0.2993 0.0
H391 H 0.69836 0.91159 0.18999 0.0
H392 H 0.6305 0.83886 0.30126 0.0
H393 H 0.58436 1.01549 0.19045 0.0
H394 H 0.67316 0.8842 0.23084 0.0
H395 H 0.53494 0.96399 0.25973 0.0
C396 C 0.54031 0.91846 0.29154 0.0
C397 C 0.56656 0.88261 0.30365 0.0
C398 C 0.65363 0.91302 0.22204 0.0
C399 C 0.59827 0.91897 0.2584 0.0
C400 C 0.66773 0.92833 0.19862 0.0
C401 C 0.64326 0.9657 0.18679 0.0
C402 C 0.6146 0.93506 0.23371 0.0
C403 C 0.6044 0.98677 0.19902 0.0
C404 C 0.55613 0.93689 0.26899 0.0
C405 C 0.6094 0.86695 0.29286 0.0
N406 N 0.59116 0.97106 0.2218 0.0
N407 N 0.62367 0.88496 0.27079 0.0
H408 H 0.90726 0.91343 0.27835 0.0
H409 H 0.91797 0.08847 0.1614 0.0
H410 H 0.02912 1.00252 0.26246 0.0
H411 H 0.80416 0.98713 0.17313 0.0
H412 H 0.95866 0.05904 0.1989 0.0
H413 H 0.86776 0.94208 0.24045 0.0
C414 C 0.92555 0.93926 0.26695 0.0
C415 C 0.97149 0.95567 0.27355 0.0
C416 C 0.92489 0.04309 0.19318 0.0
C417 C 0.92677 0.9883 0.23006 0.0
C418 C 0.90164 0.05999 0.17185 0.0
C419 C 0.85776 0.04013 0.16409 0.0
C420 C 0.90387 1.00633 0.20695 0.0
C421 C 0.83829 1.00299 0.17818 0.0
C422 C 0.90317 0.95535 0.24523 0.0
C423 C 0.99388 0.98859 0.25791 0.0
N424 N 0.86137 0.98745 0.19898 0.0
N425 N 0.97125 1.00392 0.23692 0.0
H426 H 0.07071 0.55165 0.75987 0.0
H427 H 0.15191 0.43685 0.63098 0.0
H428 H 0.21525 0.509 0.74312 0.0
H429 H 1.00477 0.45182 0.65358 0.0
H430 H 0.17673 0.48514 0.66696 0.0
H431 H 0.04765 0.53593 0.71637 0.0
C432 C 0.09765 0.53958 0.74693 0.0
C433 C 0.14461 0.53049 0.75512 0.0
C434 C 0.13892 0.47851 0.66373 0.0
C435 C 0.11875 0.51269 0.70557 0.0
C436 C 0.12474 0.45091 0.64321 0.0
C437 C 0.07634 0.43876 0.63963 0.0
C438 C 0.10442 0.49413 0.68073 0.0
C439 C 0.04255 0.45943 0.65563 0.0
C440 C 0.08454 0.53061 0.72217 0.0
C441 C 0.17832 0.51516 0.73765 0.0
N442 N 0.05733 0.4853 0.67576 0.0
N443 N 0.16462 0.50627 0.71374 0.0
H444 H 0.57146 0.6503 0.26237 0.0
H445 H 0.79867 0.58998 0.18137 0.0
H446 H 0.7161 0.65544 0.29196 0.0
H447 H 0.66223 0.523 0.16614 0.0
H448 H 0.76645 0.62456 0.21947 0.0
H449 H 0.60165 0.61207 0.22461 0.0
C450 C 0.60944 0.6431 0.26109 0.0
C451 C 0.6413 0.65638 0.28042 0.0
C452 C 0.7435 0.60231 0.20782 0.0
C453 C 0.67587 0.6138 0.23707 0.0
C454 C 0.7617 0.58298 0.18601 0.0
C455 C 0.73273 0.55406 0.17063 0.0
C456 C 0.69581 0.59318 0.21412 0.0
C457 C 0.68543 0.54518 0.17765 0.0
C458 C 0.62656 0.62148 0.23948 0.0
C459 C 0.69026 0.6469 0.27741 0.0
N460 N 0.66814 0.56506 0.1989 0.0
N461 N 0.70606 0.62651 0.25607 0.0
H462 H 0.35294 0.09919 0.7412 0.0
H463 H 0.608 0.13891 0.67977 0.0
H464 H 0.48674 0.05268 0.77404 0.0
H465 H 0.47496 0.18639 0.64646 0.0
H466 H 0.56294 0.0968 0.71126 0.0
H467 H 0.39576 0.12263 0.70381 0.0
C468 C 0.39131 0.09382 0.74051 0.0
C469 C 0.41642 0.0745 0.76087 0.0
C470 C 0.54353 0.11602 0.69691 0.0
C471 C 0.46554 0.1008 0.71811 0.0
C472 C 0.5693 0.13984 0.67876 0.0
C473 C 0.54528 0.16698 0.66063 0.0
C474 C 0.49338 0.1195 0.69704 0.0
C475 C 0.49499 0.16696 0.66045 0.0
C476 C 0.41568 0.10688 0.71911 0.0
C477 C 0.46593 0.0673 0.75876 0.0
N478 N 0.4707 0.14409 0.67858 0.0
N479 N 0.48893 0.08087 0.73786 0.0
H480 H 0.96947 0.30668 0.5587 0.0
H481 H 0.69386 0.23504 0.57227 0.0
H482 H 0.9207 0.16225 0.56952 0.0
H483 H 0.74825 0.37904 0.57376 0.0
H484 H 0.77363 0.20655 0.5601 0.0
H485 H 0.88632 0.33197 0.55311 0.0
C486 C 0.94131 0.28015 0.5596 0.0
C487 C 0.95208 0.23251 0.56525 0.0
C488 C 0.76774 0.2445 0.5625 0.0
C489 C 0.85652 0.26121 0.55883 0.0
C490 C 0.72211 0.26076 0.56917 0.0
C491 C 0.71471 0.30939 0.57417 0.0
C492 C 0.80583 0.27725 0.5607 0.0
C493 C 0.75265 0.34119 0.57025 0.0
C494 C 0.89378 0.29459 0.55636 0.0
C495 C 0.91412 0.19949 0.5655 0.0
N496 N 0.7966 0.32456 0.56404 0.0
N497 N 0.86799 0.21458 0.5628 0.0
H498 H 0.75777 0.42921 0.05836 0.0
H499 H 0.82325 0.15204 0.05667 0.0
H500 H 0.9023 0.37511 0.05922 0.0
H501 H 0.67918 0.20592 0.04945 0.0
H502 H 0.85369 0.23325 0.05039 0.0
H503 H 0.7287 0.34851 0.04805 0.0
C504 C 0.78344 0.40072 0.05571 0.0
C505 C 0.83246 0.40887 0.05991 0.0
C506 C 0.8154 0.22716 0.04966 0.0
C507 C 0.79959 0.31623 0.04865 0.0
C508 C 0.79808 0.18061 0.05299 0.0
C509 C 0.74861 0.1722 0.05383 0.0
C510 C 0.783 0.26552 0.04728 0.0
C511 C 0.71764 0.21084 0.04924 0.0
C512 C 0.76688 0.3545 0.05002 0.0
C513 C 0.8641 0.37038 0.05647 0.0
N514 N 0.73524 0.25576 0.04659 0.0
N515 N 0.84715 0.3258 0.05142 0.0
H516 H 0.40964 0.70656 0.41711 0.0
H517 H 0.23705 0.92923 0.402 0.0
H518 H 0.45897 0.85119 0.40861 0.0
H519 H 0.18767 0.78368 0.40547 0.0
H520 H 0.31676 0.90345 0.41525 0.0
H521 H 0.32862 0.73612 0.42405 0.0
C522 C 0.40363 0.74477 0.41753 0.0
C523 C 0.441 0.77651 0.41217 0.0
C524 C 0.28843 0.87715 0.41364 0.0
C525 C 0.34783 0.81062 0.41934 0.0
C526 C 0.24278 0.89186 0.40614 0.0
C527 C 0.20583 0.85842 0.40237 0.0
C528 C 0.2976 0.82841 0.41709 0.0
C529 C 0.21513 0.8106 0.40817 0.0
C530 C 0.35723 0.7616 0.42131 0.0
C531 C 0.43126 0.82555 0.41285 0.0
N532 N 0.26039 0.79686 0.41478 0.0
N533 N 0.38538 0.84107 0.41582 0.0
H534 H 0.37009 0.90446 0.91804 0.0
H535 H 0.32666 0.66937 0.90149 0.0
H536 H 0.221 0.91768 0.89792 0.0
H537 H 0.17741 0.69974 0.9129 0.0
H538 H 0.34652 0.75011 0.91555 0.0
H539 H 0.35529 0.82346 0.93262 0.0
C540 C 0.33376 0.89076 0.91761 0.0
C541 C 0.2967 0.91743 0.90664 0.0
C542 C 0.30954 0.73877 0.91622 0.0
C543 C 0.28004 0.8237 0.92159 0.0
C544 C 0.29836 0.69227 0.90829 0.0
C545 C 0.25043 0.67821 0.90595 0.0
C546 C 0.27228 0.7712 0.92159 0.0
C547 C 0.21487 0.70958 0.91436 0.0
C548 C 0.32551 0.8441 0.92543 0.0
C549 C 0.25044 0.89824 0.90636 0.0
N550 N 0.22635 0.75497 0.92117 0.0
N551 N 0.24361 0.85202 0.91314 0.0
H552 H 0.45981 0.36052 0.57633 0.0
H553 H 0.21281 0.36433 0.57117 0.0
H554 H 0.44973 0.20797 0.56636 0.0
H555 H 0.22188 0.2112 0.57401 0.0
H556 H 0.29776 0.36797 0.56124 0.0
H557 H 0.37418 0.36703 0.56954 0.0
C558 C 0.43952 0.32831 0.57237 0.0
C559 C 0.46211 0.28353 0.57233 0.0
C560 C 0.28163 0.33332 0.56374 0.0
C561 C 0.36259 0.29055 0.56404 0.0
C562 C 0.23254 0.33137 0.56878 0.0
C563 C 0.21031 0.28743 0.57301 0.0
C564 C 0.30896 0.29094 0.56373 0.0
C565 C 0.23768 0.24578 0.57046 0.0
C566 C 0.39014 0.33204 0.56824 0.0
C567 C 0.43394 0.24324 0.5667 0.0
N568 N 0.2856 0.24858 0.56637 0.0
N569 N 0.3857 0.24766 0.56316 0.0
H570 H 0.70998 0.67289 0.07716 0.0
H571 H 0.87121 0.9095 0.07386 0.0
H572 H 0.86341 0.67031 0.06879 0.0
H573 H 0.71715 0.91107 0.06659 0.0
H574 H 0.86936 0.82206 0.07153 0.0
H575 H 0.71164 0.75994 0.07282 0.0
C576 C 0.74398 0.69047 0.07424 0.0
C577 C 0.7867 0.66404 0.07382 0.0
C578 C 0.83596 0.84156 0.07032 0.0
C579 C 0.78896 0.76411 0.06907 0.0
C580 C 0.83702 0.8916 0.07158 0.0
C581 C 0.79424 0.91794 0.07084 0.0
C582 C 0.79178 0.81745 0.06843 0.0
C583 C 0.75103 0.89246 0.06782 0.0
C584 C 0.74494 0.74029 0.07183 0.0
C585 C 0.82967 0.68909 0.06991 0.0
N586 N 0.75089 0.84385 0.06698 0.0
N587 N 0.82974 0.73754 0.06794 0.0
H588 H 0.70145 0.89576 0.40313 0.0
H589 H 0.94234 0.7401 0.39218 0.0
H590 H 0.70396 0.74325 0.39155 0.0
H591 H 0.94217 0.89381 0.39774 0.0
H592 H 0.85522 0.74035 0.39636 0.0
H593 H 0.7894 0.89565 0.40516 0.0
C594 C 0.72033 0.86221 0.40121 0.0
C595 C 0.69496 0.81949 0.39701 0.0
C596 C 0.87421 0.77406 0.39681 0.0
C597 C 0.79588 0.81909 0.39931 0.0
C598 C 0.92415 0.77392 0.39457 0.0
C599 C 0.94987 0.81702 0.39433 0.0
C600 C 0.84946 0.81762 0.3989 0.0
C601 C 0.92395 0.8597 0.39745 0.0
C602 C 0.77062 0.86218 0.40231 0.0
C603 C 0.72166 0.77716 0.39463 0.0
N604 N 0.87532 0.85894 0.39945 0.0
N605 N 0.77038 0.77808 0.39573 0.0
H606 H 0.2337 0.1581 0.87362 0.0
H607 H 0.3061 0.4354 0.87469 0.0
H608 H 0.37954 0.2094 0.87619 0.0
H609 H 0.16031 0.38472 0.87824 0.0
H610 H 0.33398 0.35266 0.87803 0.0
H611 H 0.20582 0.24082 0.87805 0.0
C612 C 0.2598 0.18658 0.87539 0.0
C613 C 0.30897 0.17675 0.8743 0.0
C614 C 0.29588 0.35975 0.87829 0.0
C615 C 0.27752 0.27139 0.87917 0.0
C616 C 0.28002 0.40703 0.87647 0.0
C617 C 0.23083 0.41705 0.87596 0.0
C618 C 0.2623 0.32228 0.87954 0.0
C619 C 0.19861 0.37874 0.87828 0.0
C620 C 0.24395 0.23383 0.87785 0.0
C621 C 0.34123 0.21519 0.87664 0.0
N622 N 0.21485 0.33317 0.87976 0.0
N623 N 0.32498 0.26066 0.87878 0.0
loop_
_geom_bond_atom_site_label_1
_geom_bond_atom_site_label_2
_geom_bond_distance
_geom_bond_site_symmetry_2
_ccdc_geom_bond_type
C0 C1 1.351 . S
C0 N3 1.368 . S
C0 H5 0.931 1_455 S
C1 C0 1.351 . S
C1 N2 1.373 . S
C1 H29 0.938 . S
N2 C1 1.373 . S
N2 C4 1.340 . S
N3 C0 1.368 . S
N3 C4 1.321 . S
N3 Co6 2.135 . S
C4 N2 1.340 . S
C4 N3 1.321 . S
C4 H28 0.930 . S
H5 C0 0.931 1_655 S
Co6 N3 2.135 . S
Co6 N9 2.121 . S
Co6 O14 2.055 1_455 S
Co6 O17 2.039 . S
Co6 N20 2.140 . S
C7 O8 1.227 . S
C7 O17 1.265 . S
O8 C7 1.227 . S
N9 Co6 2.121 . S
N9 C11 1.375 . S
N9 C12 1.313 . S
C10 C11 1.338 . S
C10 N13 1.377 . S
C10 H30 0.930 . S
C11 N9 1.375 . S
C11 C10 1.338 . S
C11 H15 0.931 . S
C12 N9 1.313 . S
C12 N13 1.344 . S
C12 H16 0.930 1_455 S
N13 C10 1.377 . S
N13 C12 1.344 . S
O14 Co6 2.055 1_655 S
O14 C18 1.253 . S
H15 C11 0.931 . S
H16 C12 0.930 1_655 S
O17 Co6 2.039 . S
O17 C7 1.265 . S
C18 O14 1.253 . S
C18 O19 1.227 . S
O19 C18 1.227 . S
N20 Co6 2.140 . S
N20 C23 1.346 . S
N20 C24 1.345 . S
C21 C22 1.387 . S
C21 C25 1.391 . S
C22 C21 1.387 . S
C22 C23 1.369 . S
C22 H31 0.929 . S
C23 N20 1.346 . S
C23 C22 1.369 . S
C23 H26 0.928 . S
C24 N20 1.345 . S
C24 C25 1.371 . S
C24 H27 0.931 . S
C25 C21 1.391 . S
C25 C24 1.371 . S
C25 H32 0.930 . S
H26 C23 0.928 . S
H27 C24 0.931 . S
H28 C4 0.930 . S
H29 C1 0.938 . S
H30 C10 0.930 . S
H31 C22 0.929 . S
H32 C25 0.930 . S
C33 C34 1.351 . S
C33 N36 1.368 . S
C33 H38 0.931 . S
C34 C33 1.351 . S
C34 N35 1.373 . S
C34 H62 0.930 . S
N35 C34 1.373 . S
N35 C37 1.340 . S
N36 C33 1.368 . S
N36 C37 1.321 . S
N36 Co39 2.135 . S
C37 N35 1.340 . S
C37 N36 1.321 . S
C37 H61 0.930 . S
H38 C33 0.931 . S
Co39 N36 2.135 . S
Co39 N42 2.121 . S
Co39 O47 2.055 . S
Co39 O50 2.039 . S
Co39 N53 2.140 . S
C40 O41 1.227 . S
C40 O50 1.265 . S
O41 C40 1.227 . S
N42 Co39 2.121 . S
N42 C44 1.375 . S
N42 C45 1.313 . S
C43 C44 1.338 . S
C43 N46 1.377 . S
C43 H63 0.930 . S
C44 N42 1.375 . S
C44 C43 1.338 . S
C44 H48 0.931 . S
C45 N42 1.313 . S
C45 N46 1.344 . S
C45 H49 0.930 . S
N46 C43 1.377 . S
N46 C45 1.344 . S
O47 Co39 2.055 . S
O47 C51 1.253 . S
H48 C44 0.931 . S
H49 C45 0.930 . S
O50 Co39 2.039 . S
O50 C40 1.265 . S
C51 O47 1.253 . S
C51 O52 1.227 . S
O52 C51 1.227 . S
N53 Co39 2.140 . S
N53 C56 1.346 . S
N53 C57 1.345 . S
C54 C55 1.387 . S
C54 C58 1.391 . S
C55 C54 1.387 . S
C55 C56 1.369 . S
C55 H64 0.929 . S
C56 N53 1.346 . S
C56 C55 1.369 . S
C56 H59 0.928 . S
C57 N53 1.345 . S
C57 C58 1.371 . S
C57 H60 0.931 . S
C58 C54 1.391 . S
C58 C57 1.371 . S
C58 H65 0.930 . S
H59 C56 0.928 . S
H60 C57 0.931 . S
H61 C37 0.930 . S
H62 C34 0.930 . S
H63 C43 0.930 . S
H64 C55 0.929 . S
H65 C58 0.930 . S
C66 C67 1.351 . S
C66 N69 1.368 . S
C66 H71 0.931 . S
C67 C66 1.351 . S
C67 N68 1.373 . S
C67 H95 0.930 . S
N68 C67 1.373 . S
N68 C70 1.340 . S
N69 C66 1.368 . S
N69 C70 1.321 . S
N69 Co72 2.135 . S
C70 N68 1.340 . S
C70 N69 1.321 . S
C70 H94 0.930 . S
H71 C66 0.931 . S
Co72 N69 2.135 . S
Co72 N75 2.121 . S
Co72 O80 2.055 . S
Co72 O83 2.039 . S
Co72 N86 2.140 . S
C73 O74 1.227 . S
C73 O83 1.265 . S
O74 C73 1.227 . S
N75 Co72 2.121 . S
N75 C77 1.375 . S
N75 C78 1.313 . S
C76 C77 1.338 . S
C76 N79 1.377 . S
C76 H96 0.930 . S
C77 N75 1.375 . S
C77 C76 1.338 . S
C77 H81 0.931 . S
C78 N75 1.313 . S
C78 N79 1.344 . S
C78 H82 0.930 . S
N79 C76 1.377 . S
N79 C78 1.344 . S
O80 Co72 2.055 . S
O80 C84 1.253 . S
H81 C77 0.931 . S
H82 C78 0.930 . S
O83 Co72 2.039 . S
O83 C73 1.265 . S
C84 O80 1.253 . S
C84 O85 1.227 . S
O85 C84 1.227 . S
N86 Co72 2.140 . S
N86 C89 1.346 . S
N86 C90 1.345 . S
C87 C88 1.387 . S
C87 C91 1.391 . S
C88 C87 1.387 . S
C88 C89 1.369 . S
C88 H97 0.929 . S
C89 N86 1.346 . S
C89 C88 1.369 . S
C89 H92 0.928 . S
C90 N86 1.345 . S
C90 C91 1.371 . S
C90 H93 0.931 . S
C91 C87 1.391 . S
C91 C90 1.371 . S
C91 H98 0.930 . S
H92 C89 0.928 . S
H93 C90 0.931 . S
H94 C70 0.930 . S
H95 C67 0.930 . S
H96 C76 0.930 . S
H97 C88 0.929 . S
H98 C91 0.930 . S
C99 C100 1.351 . S
C99 N102 1.368 . S
C99 H104 0.931 . S
C100 C99 1.351 . S
C100 N101 1.373 . S
C100 H128 0.930 . S
N101 C100 1.373 . S
N101 C103 1.340 1_545 S
N102 C99 1.368 . S
N102 C103 1.321 1_545 S
N102 Co105 2.135 . S
C103 N101 1.340 1_565 S
C103 N102 1.321 1_565 S
C103 H127 0.930 . S
H104 C99 0.931 . S
Co105 N102 2.135 . S
Co105 N108 2.121 . S
Co105 O113 2.055 . S
Co105 O116 2.039 1_545 S
Co105 N119 2.140 . S
C106 O107 1.227 . S
C106 O116 1.265 . S
O107 C106 1.227 . S
N108 Co105 2.121 . S
N108 C110 1.375 1_545 S
N108 C111 1.313 . S
C109 C110 1.338 . S
C109 N112 1.377 1_565 S
C109 H129 0.930 . S
C110 N108 1.375 1_565 S
C110 C109 1.338 . S
C110 H114 0.931 . S
C111 N108 1.313 . S
C111 N112 1.344 . S
C111 H115 0.930 . S
N112 C109 1.377 1_545 S
N112 C111 1.344 . S
O113 Co105 2.055 . S
O113 C117 1.253 . S
H114 C110 0.931 . S
H115 C111 0.930 . S
O116 Co105 2.039 1_565 S
O116 C106 1.265 . S
C117 O113 1.253 . S
C117 O118 1.227 . S
O118 C117 1.227 . S
N119 Co105 2.140 . S
N119 C122 1.346 1_545 S
N119 C123 1.345 . S
C120 C121 1.387 . S
C120 C124 1.391 1_565 S
C121 C120 1.387 . S
C121 C122 1.369 . S
C121 H130 0.929 . S
C122 N119 1.346 1_565 S
C122 C121 1.369 . S
C122 H125 0.928 . S
C123 N119 1.345 . S
C123 C124 1.371 . S
C123 H126 0.931 . S
C124 C120 1.391 1_545 S
C124 C123 1.371 . S
C124 H131 0.930 . S
H125 C122 0.928 . S
H126 C123 0.931 . S
H127 C103 0.930 . S
H128 C100 0.930 . S
H129 C109 0.930 . S
H130 C121 0.929 . S
H131 C124 0.930 . S
C132 C133 1.351 . S
C132 N135 1.368 . S
C132 H137 0.931 . S
C133 C132 1.351 . S
C133 N134 1.373 . S
C133 H161 0.930 . S
N134 C133 1.373 . S
N134 C136 1.340 1_455 S
N135 C132 1.368 . S
N135 C136 1.321 1_455 S
N135 Co138 2.135 . S
C136 N134 1.340 1_655 S
C136 N135 1.321 1_655 S
C136 H160 0.930 . S
H137 C132 0.931 . S
Co138 N135 2.135 . S
Co138 N141 2.121 . S
Co138 O146 2.055 . S
Co138 O149 2.039 1_455 S
Co138 N152 2.140 . S
C139 O140 1.227 . S
C139 O149 1.265 . S
O140 C139 1.227 . S
N141 Co138 2.121 . S
N141 C143 1.375 1_455 S
N141 C144 1.313 . S
C142 C143 1.338 . S
C142 N145 1.377 1_655 S
C142 H162 0.930 . S
C143 N141 1.375 1_655 S
C143 C142 1.338 . S
C143 H147 0.931 . S
C144 N141 1.313 . S
C144 N145 1.344 . S
C144 H148 0.930 . S
N145 C142 1.377 1_455 S
N145 C144 1.344 . S
O146 Co138 2.055 . S
O146 C150 1.253 . S
H147 C143 0.931 . S
H148 C144 0.930 . S
O149 Co138 2.039 1_655 S
O149 C139 1.265 . S
C150 O146 1.253 . S
C150 O151 1.227 . S
O151 C150 1.227 . S
N152 Co138 2.140 . S
N152 C155 1.346 1_455 S
N152 C156 1.345 . S
C153 C154 1.387 . S
C153 C157 1.391 1_655 S
C154 C153 1.387 . S
C154 C155 1.369 . S
C154 H163 0.929 . S
C155 N152 1.346 1_655 S
C155 C154 1.369 . S
C155 H158 0.928 . S
C156 N152 1.345 . S
C156 C157 1.371 . S
C156 H159 0.931 . S
C157 C153 1.391 1_455 S
C157 C156 1.371 . S
C157 H164 0.930 . S
H158 C155 0.928 . S
H159 C156 0.931 . S
H160 C136 0.930 . S
H161 C133 0.930 . S
H162 C142 0.930 . S
H163 C154 0.929 . S
H164 C157 0.930 . S
C165 C166 1.351 . S
C165 N168 1.368 . S
C165 H170 0.931 . S
C166 C165 1.351 . S
C166 N167 1.373 . S
C166 H194 0.930 . S
N167 C166 1.373 . S
N167 C169 1.340 . S
N168 C165 1.368 . S
N168 C169 1.321 . S
N168 Co171 2.135 . S
C169 N167 1.340 . S
C169 N168 1.321 . S
C169 H193 0.930 . S
H170 C165 0.931 . S
Co171 N168 2.135 . S
Co171 N174 2.121 . S
Co171 O179 2.055 . S
Co171 O182 2.039 . S
Co171 N185 2.140 . S
C172 O173 1.227 . S
C172 O182 1.265 . S
O173 C172 1.227 . S
N174 Co171 2.121 . S
N174 C176 1.375 . S
N174 C177 1.313 . S
C175 C176 1.338 . S
C175 N178 1.377 . S
C175 H195 0.930 . S
C176 N174 1.375 . S
C176 C175 1.338 . S
C176 H180 0.931 . S
C177 N174 1.313 . S
C177 N178 1.344 . S
C177 H181 0.930 . S
N178 C175 1.377 . S
N178 C177 1.344 . S
O179 Co171 2.055 . S
O179 C183 1.253 . S
H180 C176 0.931 . S
H181 C177 0.930 . S
O182 Co171 2.039 . S
O182 C172 1.265 . S
C183 O179 1.253 . S
C183 O184 1.227 . S
O184 C183 1.227 . S
N185 Co171 2.140 . S
N185 C188 1.346 . S
N185 C189 1.345 . S
C186 C187 1.387 . S
C186 C190 1.391 . S
C187 C186 1.387 . S
C187 C188 1.369 . S
C187 H196 0.929 . S
C188 N185 1.346 . S
C188 C187 1.369 . S
C188 H191 0.928 . S
C189 N185 1.345 . S
C189 C190 1.371 . S
C189 H192 0.931 . S
C190 C186 1.391 . S
C190 C189 1.371 . S
C190 H197 0.930 . S
H191 C188 0.928 . S
H192 C189 0.931 . S
H193 C169 0.930 . S
H194 C166 0.930 . S
H195 C175 0.930 . S
H196 C187 0.929 . S
H197 C190 0.930 . S
C198 C199 1.351 . S
C198 N201 1.368 . S
C198 H203 0.931 . S
C199 C198 1.351 . S
C199 N200 1.373 . S
C199 H227 0.930 . S
N200 C199 1.373 . S
N200 C202 1.340 . S
N201 C198 1.368 . S
N201 C202 1.321 . S
N201 Co204 2.135 . S
C202 N200 1.340 . S
C202 N201 1.321 . S
C202 H226 0.930 . S
H203 C198 0.931 . S
Co204 N201 2.135 . S
Co204 N207 2.121 . S
Co204 O212 2.055 . S
Co204 O215 2.039 . S
Co204 N218 2.140 . S
C205 O206 1.227 . S
C205 O215 1.265 . S
O206 C205 1.227 . S
N207 Co204 2.121 . S
N207 C209 1.375 . S
N207 C210 1.313 . S
C208 C209 1.338 . S
C208 N211 1.377 . S
C208 H228 0.930 . S
C209 N207 1.375 . S
C209 C208 1.338 . S
C209 H213 0.931 . S
C210 N207 1.313 . S
C210 N211 1.344 . S
C210 H214 0.930 . S
N211 C208 1.377 . S
N211 C210 1.344 . S
O212 Co204 2.055 . S
O212 C216 1.253 . S
H213 C209 0.931 . S
H214 C210 0.930 . S
O215 Co204 2.039 . S
O215 C205 1.265 . S
C216 O212 1.253 . S
C216 O217 1.227 . S
O217 C216 1.227 . S
N218 Co204 2.140 . S
N218 C221 1.346 . S
N218 C222 1.345 . S
C219 C220 1.387 . S
C219 C223 1.391 . S
C220 C219 1.387 . S
C220 C221 1.369 . S
C220 H229 0.929 . S
C221 N218 1.346 . S
C221 C220 1.369 . S
C221 H224 0.928 . S
C222 N218 1.345 . S
C222 C223 1.371 . S
C222 H225 0.931 . S
C223 C219 1.391 . S
C223 C222 1.371 . S
C223 H230 0.930 . S
H224 C221 0.928 . S
H225 C222 0.931 . S
H226 C202 0.930 . S
H227 C199 0.930 . S
H228 C208 0.930 . S
H229 C220 0.929 . S
H230 C223 0.930 . S
C231 C232 1.351 . S
C231 N234 1.368 . S
C231 H236 0.931 1_545 S
C232 C231 1.351 . S
C232 N233 1.373 . S
C232 H260 0.926 1_545 S
N233 C232 1.373 . S
N233 C235 1.340 . S
N234 C231 1.368 . S
N234 C235 1.321 . S
N234 Co237 2.135 . S
C235 N233 1.340 . S
C235 N234 1.321 . S
C235 H259 0.930 . S
H236 C231 0.931 1_565 S
Co237 N234 2.135 . S
Co237 N240 2.121 . S
Co237 O245 2.055 1_545 S
Co237 O248 2.039 . S
Co237 N251 2.140 . S
C238 O239 1.227 . S
C238 O248 1.265 . S
O239 C238 1.227 . S
N240 Co237 2.121 . S
N240 C242 1.375 . S
N240 C243 1.313 . S
C241 C242 1.338 . S
C241 N244 1.377 . S
C241 H261 0.930 . S
C242 N240 1.375 . S
C242 C241 1.338 . S
C242 H246 0.931 . S
C243 N240 1.313 . S
C243 N244 1.344 . S
C243 H247 0.930 1_545 S
N244 C241 1.377 . S
N244 C243 1.344 . S
O245 Co237 2.055 1_565 S
O245 C249 1.253 . S
H246 C242 0.931 . S
H247 C243 0.930 1_565 S
O248 Co237 2.039 . S
O248 C238 1.265 . S
C249 O245 1.253 . S
C249 O250 1.227 . S
O250 C249 1.227 . S
N251 Co237 2.140 . S
N251 C254 1.346 . S
N251 C255 1.345 . S
C252 C253 1.387 . S
C252 C256 1.391 . S
C253 C252 1.387 . S
C253 C254 1.369 . S
C253 H262 0.929 . S
C254 N251 1.346 . S
C254 C253 1.369 . S
C254 H257 0.928 . S
C255 N251 1.345 . S
C255 C256 1.371 . S
C255 H258 0.931 . S
C256 C252 1.391 . S
C256 C255 1.371 . S
C256 H263 0.930 . S
H257 C254 0.928 . S
H258 C255 0.931 . S
H259 C235 0.930 . S
H260 C232 0.926 1_565 S
H261 C241 0.930 . S
H262 C253 0.929 . S
H263 C256 0.930 . S
H264 C270 0.930 1_655 S
H265 C274 0.930 . S
H266 C279 0.929 . S
H267 C277 0.929 . S
H268 C272 0.929 . S
H269 C278 0.929 1_655 S
C270 H264 0.930 1_455 S
C270 C271 1.367 . S
C270 C278 1.378 1_565 S
C271 C270 1.367 . S
C271 C279 1.433 . S
C272 H268 0.929 . S
C272 C274 1.378 . S
C272 C276 1.350 . S
C273 C276 1.463 . S
C273 C278 1.350 . S
C273 N281 1.427 1_545 S
C274 H265 0.930 . S
C274 C272 1.378 . S
C274 C275 1.367 . S
C275 C274 1.367 . S
C275 C277 1.433 1_455 S
C276 C272 1.350 . S
C276 C273 1.463 . S
C276 N280 1.427 1_455 S
C277 H267 0.929 . S
C277 C275 1.433 1_655 S
C277 N280 1.384 . S
C278 H269 0.929 1_455 S
C278 C270 1.378 1_545 S
C278 C273 1.350 . S
C279 H266 0.929 . S
C279 C271 1.433 . S
C279 N281 1.384 . S
N280 C276 1.427 1_655 S
N280 C277 1.384 . S
N281 C273 1.427 1_565 S
N281 C279 1.384 . S
H282 C288 0.930 . S
H283 C292 0.930 . S
H284 C297 0.929 . S
H285 C295 0.929 . S
H286 C290 0.929 1_554 S
H287 C296 0.929 1_556 S
C288 H282 0.930 . S
C288 C289 1.367 . S
C288 C296 1.378 . S
C289 C288 1.367 . S
C289 C297 1.433 . S
C290 H286 0.929 1_556 S
C290 C292 1.378 . S
C290 C294 1.350 . S
C291 C294 1.463 1_554 S
C291 C296 1.350 1_455 S
C291 N299 1.427 . S
C292 H283 0.930 . S
C292 C290 1.378 . S
C292 C293 1.367 . S
C293 C292 1.367 . S
C293 C295 1.433 . S
C294 C290 1.350 . S
C294 C291 1.463 1_556 S
C294 N298 1.427 . S
C295 H285 0.929 . S
C295 C293 1.433 . S
C295 N298 1.384 . S
C296 H287 0.929 1_554 S
C296 C288 1.378 . S
C296 C291 1.350 1_655 S
C297 H284 0.929 . S
C297 C289 1.433 . S
C297 N299 1.384 1_655 S
N298 C294 1.427 . S
N298 C295 1.384 . S
N299 C291 1.427 . S
N299 C297 1.384 1_455 S
H300 C306 0.930 . S
H301 C310 0.930 . S
H302 C315 0.929 . S
H303 C313 0.929 . S
H304 C308 0.929 . S
H305 C314 0.929 . S
C306 H300 0.930 . S
C306 C307 1.367 . S
C306 C314 1.378 . S
C307 C306 1.367 . S
C307 C315 1.433 . S
C308 H304 0.929 . S
C308 C310 1.378 . S
C308 C312 1.350 . S
C309 C312 1.463 . S
C309 C314 1.350 . S
C309 N317 1.427 . S
C310 H301 0.930 . S
C310 C308 1.378 . S
C310 C311 1.367 . S
C311 C310 1.367 . S
C311 C313 1.433 . S
C312 C308 1.350 . S
C312 C309 1.463 . S
C312 N316 1.427 . S
C313 H303 0.929 . S
C313 C311 1.433 . S
C313 N316 1.384 . S
C314 H305 0.929 . S
C314 C306 1.378 . S
C314 C309 1.350 . S
C315 H302 0.929 . S
C315 C307 1.433 . S
C315 N317 1.384 . S
N316 C312 1.427 . S
N316 C313 1.384 . S
N317 C309 1.427 . S
N317 C315 1.384 . S
H318 C324 0.930 . S
H319 C328 0.930 . S
H320 C333 0.929 . S
H321 C331 0.929 1_565 S
H322 C326 0.929 1_556 S
H323 C332 0.929 1_554 S
C324 H318 0.930 . S
C324 C325 1.367 1_565 S
C324 C332 1.378 . S
C325 C324 1.367 1_545 S
C325 C333 1.433 . S
C326 H322 0.929 1_554 S
C326 C328 1.378 . S
C326 C330 1.350 . S
C327 C330 1.463 1_556 S
C327 C332 1.350 1_545 S
C327 N335 1.427 . S
C328 H319 0.930 . S
C328 C326 1.378 . S
C328 C329 1.367 . S
C329 C328 1.367 . S
C329 C331 1.433 . S
C330 C326 1.350 . S
C330 C327 1.463 1_554 S
C330 N334 1.427 1_545 S
C331 H321 0.929 1_545 S
C331 C329 1.433 . S
C331 N334 1.384 1_545 S
C332 H323 0.929 1_556 S
C332 C324 1.378 . S
C332 C327 1.350 1_565 S
C333 H320 0.929 . S
C333 C325 1.433 . S
C333 N335 1.384 . S
N334 C330 1.427 1_565 S
N334 C331 1.384 1_565 S
N335 C327 1.427 . S
N335 C333 1.384 . S
H336 C342 0.930 . S
H337 C346 0.930 . S
H338 C351 0.929 . S
H339 C349 0.929 . S
H340 C344 0.929 . S
H341 C350 0.929 . S
C342 H336 0.930 . S
C342 C343 1.367 . S
C342 C350 1.378 . S
C343 C342 1.367 . S
C343 C351 1.433 . S
C344 H340 0.929 . S
C344 C346 1.378 . S
C344 C348 1.350 . S
C345 C348 1.463 . S
C345 C350 1.350 . S
C345 N353 1.427 . S
C346 H337 0.930 . S
C346 C344 1.378 . S
C346 C347 1.367 . S
C347 C346 1.367 . S
C347 C349 1.433 . S
C348 C344 1.350 . S
C348 C345 1.463 . S
C348 N352 1.427 . S
C349 H339 0.929 . S
C349 C347 1.433 . S
C349 N352 1.384 . S
C350 H341 0.929 . S
C350 C342 1.378 . S
C350 C345 1.350 . S
C351 H338 0.929 . S
C351 C343 1.433 . S
C351 N353 1.384 . S
N352 C348 1.427 . S
N352 C349 1.384 . S
N353 C345 1.427 . S
N353 C351 1.384 . S
H354 C360 0.930 1_455 S
H355 C364 0.930 . S
H356 C369 0.929 . S
H357 C367 0.929 . S
H358 C362 0.929 . S
H359 C368 0.929 . S
C360 H354 0.930 1_655 S
C360 C361 1.367 . S
C360 C368 1.378 . S
C361 C360 1.367 . S
C361 C369 1.433 . S
C362 H358 0.929 . S
C362 C364 1.378 . S
C362 C366 1.350 . S
C363 C366 1.463 . S
C363 C368 1.350 . S
C363 N371 1.427 . S
C364 H355 0.930 . S
C364 C362 1.378 . S
C364 C365 1.367 . S
C365 C364 1.367 . S
C365 C367 1.433 . S
C366 C362 1.350 . S
C366 C363 1.463 . S
C366 N370 1.427 . S
C367 H357 0.929 . S
C367 C365 1.433 . S
C367 N370 1.384 . S
C368 H359 0.929 . S
C368 C360 1.378 . S
C368 C363 1.350 . S
C369 H356 0.929 . S
C369 C361 1.433 . S
C369 N371 1.384 . S
N370 C366 1.427 . S
N370 C367 1.384 . S
N371 C363 1.427 . S
N371 C369 1.384 . S
H372 C378 0.930 . S
H373 C382 0.930 . S
H374 C387 0.929 . S
H375 C385 0.929 . S
H376 C380 0.929 . S
H377 C386 0.929 . S
C378 H372 0.930 . S
C378 C379 1.367 . S
C378 C386 1.378 . S
C379 C378 1.367 . S
C379 C387 1.433 . S
C380 H376 0.929 . S
C380 C382 1.378 . S
C380 C384 1.350 . S
C381 C384 1.463 . S
C381 C386 1.350 . S
C381 N389 1.427 . S
C382 H373 0.930 . S
C382 C380 1.378 . S
C382 C383 1.367 . S
C383 C382 1.367 . S
C383 C385 1.433 . S
C384 C380 1.350 . S
C384 C381 1.463 . S
C384 N388 1.427 . S
C385 H375 0.929 . S
C385 C383 1.433 . S
C385 N388 1.384 . S
C386 H377 0.929 . S
C386 C378 1.378 . S
C386 C381 1.350 . S
C387 H374 0.929 . S
C387 C379 1.433 . S
C387 N389 1.384 . S
N388 C384 1.427 . S
N388 C385 1.384 . S
N389 C381 1.427 . S
N389 C387 1.384 . S
H390 C396 0.930 . S
H391 C400 0.930 1_545 S
H392 C405 0.929 . S
H393 C403 0.929 . S
H394 C398 0.929 . S
H395 C404 0.929 . S
C396 H390 0.930 . S
C396 C397 1.367 . S
C396 C404 1.378 . S
C397 C396 1.367 . S
C397 C405 1.433 . S
C398 H394 0.929 . S
C398 C400 1.378 . S
C398 C402 1.350 . S
C399 C402 1.463 . S
C399 C404 1.350 . S
C399 N407 1.427 . S
C400 H391 0.930 1_565 S
C400 C398 1.378 . S
C400 C401 1.367 . S
C401 C400 1.367 . S
C401 C403 1.433 . S
C402 C398 1.350 . S
C402 C399 1.463 . S
C402 N406 1.427 . S
C403 H393 0.929 . S
C403 C401 1.433 . S
C403 N406 1.384 . S
C404 H395 0.929 . S
C404 C396 1.378 . S
C404 C399 1.350 . S
C405 H392 0.929 . S
C405 C397 1.433 . S
C405 N407 1.384 . S
N406 C402 1.427 . S
N406 C403 1.384 . S
N407 C399 1.427 . S
N407 C405 1.384 . S
H408 C414 0.930 1_455 S
H409 C418 0.930 . S
H410 C423 0.929 . S
H411 C421 0.929 . S
H412 C416 0.929 . S
H413 C422 0.929 . S
C414 H408 0.930 1_655 S
C414 C415 1.367 . S
C414 C422 1.378 . S
C415 C414 1.367 . S
C415 C423 1.433 . S
C416 H412 0.929 . S
C416 C418 1.378 . S
C416 C420 1.350 1_545 S
C417 C420 1.463 . S
C417 C422 1.350 . S
C417 N425 1.427 . S
C418 H409 0.930 . S
C418 C416 1.378 . S
C418 C419 1.367 1_545 S
C419 C418 1.367 1_565 S
C419 C421 1.433 . S
C420 C416 1.350 1_565 S
C420 C417 1.463 . S
C420 N424 1.427 . S
C421 H411 0.929 . S
C421 C419 1.433 . S
C421 N424 1.384 . S
C422 H413 0.929 . S
C422 C414 1.378 . S
C422 C417 1.350 . S
C423 H410 0.929 . S
C423 C415 1.433 . S
C423 N425 1.384 . S
N424 C420 1.427 . S
N424 C421 1.384 . S
N425 C417 1.427 . S
N425 C423 1.384 . S
H426 C432 0.930 . S
H427 C436 0.930 . S
H428 C441 0.929 . S
H429 C439 0.929 . S
H430 C434 0.929 . S
H431 C440 0.929 . S
C432 H426 0.930 . S
C432 C433 1.367 . S
C432 C440 1.378 . S
C433 C432 1.367 . S
C433 C441 1.433 . S
C434 H430 0.929 . S
C434 C436 1.378 . S
C434 C438 1.350 . S
C435 C438 1.463 . S
C435 C440 1.350 . S
C435 N443 1.427 . S
C436 H427 0.930 . S
C436 C434 1.378 . S
C436 C437 1.367 . S
C437 C436 1.367 . S
C437 C439 1.433 . S
C438 C434 1.350 . S
C438 C435 1.463 . S
C438 N442 1.427 . S
C439 H429 0.929 . S
C439 C437 1.433 . S
C439 N442 1.384 . S
C440 H431 0.929 . S
C440 C432 1.378 . S
C440 C435 1.350 . S
C441 H428 0.929 . S
C441 C433 1.433 . S
C441 N443 1.384 . S
N442 C438 1.427 . S
N442 C439 1.384 . S
N443 C435 1.427 . S
N443 C441 1.384 . S
H444 C450 0.930 . S
H445 C454 0.930 . S
H446 C459 0.929 . S
H447 C457 0.929 . S
H448 C452 0.929 . S
H449 C458 0.929 . S
C450 H444 0.930 . S
C450 C451 1.367 . S
C450 C458 1.378 . S
C451 C450 1.367 . S
C451 C459 1.433 . S
C452 H448 0.929 . S
C452 C454 1.378 . S
C452 C456 1.350 . S
C453 C456 1.463 . S
C453 C458 1.350 . S
C453 N461 1.427 . S
C454 H445 0.930 . S
C454 C452 1.378 . S
C454 C455 1.367 . S
C455 C454 1.367 . S
C455 C457 1.433 . S
C456 C452 1.350 . S
C456 C453 1.463 . S
C456 N460 1.427 . S
C457 H447 0.929 . S
C457 C455 1.433 . S
C457 N460 1.384 . S
C458 H449 0.929 . S
C458 C450 1.378 . S
C458 C453 1.350 . S
C459 H446 0.929 . S
C459 C451 1.433 . S
C459 N461 1.384 . S
N460 C456 1.427 . S
N460 C457 1.384 . S
N461 C453 1.427 . S
N461 C459 1.384 . S
H462 C468 0.930 . S
H463 C472 0.930 . S
H464 C477 0.929 . S
H465 C475 0.929 . S
H466 C470 0.929 . S
H467 C476 0.929 . S
C468 H462 0.930 . S
C468 C469 1.367 . S
C468 C476 1.378 . S
C469 C468 1.367 . S
C469 C477 1.433 . S
C470 H466 0.929 . S
C470 C472 1.378 . S
C470 C474 1.350 . S
C471 C474 1.463 . S
C471 C476 1.350 . S
C471 N479 1.427 . S
C472 H463 0.930 . S
C472 C470 1.378 . S
C472 C473 1.367 . S
C473 C472 1.367 . S
C473 C475 1.433 . S
C474 C470 1.350 . S
C474 C471 1.463 . S
C474 N478 1.427 . S
C475 H465 0.929 . S
C475 C473 1.433 . S
C475 N478 1.384 . S
C476 H467 0.929 . S
C476 C468 1.378 . S
C476 C471 1.350 . S
C477 H464 0.929 . S
C477 C469 1.433 . S
C477 N479 1.384 . S
N478 C474 1.427 . S
N478 C475 1.384 . S
N479 C471 1.427 . S
N479 C477 1.384 . S
H480 C486 0.930 . S
H481 C490 0.930 . S
H482 C495 0.929 . S
H483 C493 0.929 . S
H484 C488 0.929 . S
H485 C494 0.929 . S
C486 H480 0.930 . S
C486 C487 1.367 . S
C486 C494 1.378 . S
C487 C486 1.367 . S
C487 C495 1.433 . S
C488 H484 0.929 . S
C488 C490 1.378 . S
C488 C492 1.350 . S
C489 C492 1.463 . S
C489 C494 1.350 . S
C489 N497 1.427 . S
C490 H481 0.930 . S
C490 C488 1.378 . S
C490 C491 1.367 . S
C491 C490 1.367 . S
C491 C493 1.433 . S
C492 C488 1.350 . S
C492 C489 1.463 . S
C492 N496 1.427 . S
C493 H483 0.929 . S
C493 C491 1.433 . S
C493 N496 1.384 . S
C494 H485 0.929 . S
C494 C486 1.378 . S
C494 C489 1.350 . S
C495 H482 0.929 . S
C495 C487 1.433 . S
C495 N497 1.384 . S
N496 C492 1.427 . S
N496 C493 1.384 . S
N497 C489 1.427 . S
N497 C495 1.384 . S
H498 C504 0.930 . S
H499 C508 0.930 . S
H500 C513 0.929 . S
H501 C511 0.929 . S
H502 C506 0.929 . S
H503 C512 0.929 . S
C504 H498 0.930 . S
C504 C505 1.367 . S
C504 C512 1.378 . S
C505 C504 1.367 . S
C505 C513 1.433 . S
C506 H502 0.929 . S
C506 C508 1.378 . S
C506 C510 1.350 . S
C507 C510 1.463 . S
C507 C512 1.350 . S
C507 N515 1.427 . S
C508 H499 0.930 . S
C508 C506 1.378 . S
C508 C509 1.367 . S
C509 C508 1.367 . S
C509 C511 1.433 . S
C510 C506 1.350 . S
C510 C507 1.463 . S
C510 N514 1.427 . S
C511 H501 0.929 . S
C511 C509 1.433 . S
C511 N514 1.384 . S
C512 H503 0.929 . S
C512 C504 1.378 . S
C512 C507 1.350 . S
C513 H500 0.929 . S
C513 C505 1.433 . S
C513 N515 1.384 . S
N514 C510 1.427 . S
N514 C511 1.384 . S
N515 C507 1.427 . S
N515 C513 1.384 . S
H516 C522 0.930 . S
H517 C526 0.930 . S
H518 C531 0.929 . S
H519 C529 0.929 . S
H520 C524 0.929 . S
H521 C530 0.929 . S
C522 H516 0.930 . S
C522 C523 1.367 . S
C522 C530 1.378 . S
C523 C522 1.367 . S
C523 C531 1.433 . S
C524 H520 0.929 . S
C524 C526 1.378 . S
C524 C528 1.350 . S
C525 C528 1.463 . S
C525 C530 1.350 . S
C525 N533 1.427 . S
C526 H517 0.930 . S
C526 C524 1.378 . S
C526 C527 1.367 . S
C527 C526 1.367 . S
C527 C529 1.433 . S
C528 C524 1.350 . S
C528 C525 1.463 . S
C528 N532 1.427 . S
C529 H519 0.929 . S
C529 C527 1.433 . S
C529 N532 1.384 . S
C530 H521 0.929 . S
C530 C522 1.378 . S
C530 C525 1.350 . S
C531 H518 0.929 . S
C531 C523 1.433 . S
C531 N533 1.384 . S
N532 C528 1.427 . S
N532 C529 1.384 . S
N533 C525 1.427 . S
N533 C531 1.384 . S
H534 C540 0.930 . S
H535 C544 0.930 . S
H536 C549 0.929 . S
H537 C547 0.929 . S
H538 C542 0.929 . S
H539 C548 0.929 . S
C540 H534 0.930 . S
C540 C541 1.367 . S
C540 C548 1.378 . S
C541 C540 1.367 . S
C541 C549 1.433 . S
C542 H538 0.929 . S
C542 C544 1.378 . S
C542 C546 1.350 . S
C543 C546 1.463 . S
C543 C548 1.350 . S
C543 N551 1.427 . S
C544 H535 0.930 . S
C544 C542 1.378 . S
C544 C545 1.367 . S
C545 C544 1.367 . S
C545 C547 1.433 . S
C546 C542 1.350 . S
C546 C543 1.463 . S
C546 N550 1.427 . S
C547 H537 0.929 . S
C547 C545 1.433 . S
C547 N550 1.384 . S
C548 H539 0.929 . S
C548 C540 1.378 . S
C548 C543 1.350 . S
C549 H536 0.929 . S
C549 C541 1.433 . S
C549 N551 1.384 . S
N550 C546 1.427 . S
N550 C547 1.384 . S
N551 C543 1.427 . S
N551 C549 1.384 . S
H552 C558 0.930 . S
H553 C562 0.930 . S
H554 C567 0.929 . S
H555 C565 0.929 . S
H556 C560 0.929 . S
H557 C566 0.929 . S
C558 H552 0.930 . S
C558 C559 1.367 . S
C558 C566 1.378 . S
C559 C558 1.367 . S
C559 C567 1.433 . S
C560 H556 0.929 . S
C560 C562 1.378 . S
C560 C564 1.350 . S
C561 C564 1.463 . S
C561 C566 1.350 . S
C561 N569 1.427 . S
C562 H553 0.930 . S
C562 C560 1.378 . S
C562 C563 1.367 . S
C563 C562 1.367 . S
C563 C565 1.433 . S
C564 C560 1.350 . S
C564 C561 1.463 . S
C564 N568 1.427 . S
C565 H555 0.929 . S
C565 C563 1.433 . S
C565 N568 1.384 . S
C566 H557 0.929 . S
C566 C558 1.378 . S
C566 C561 1.350 . S
C567 H554 0.929 . S
C567 C559 1.433 . S
C567 N569 1.384 . S
N568 C564 1.427 . S
N568 C565 1.384 . S
N569 C561 1.427 . S
N569 C567 1.384 . S
H570 C576 0.930 . S
H571 C580 0.930 . S
H572 C585 0.929 . S
H573 C583 0.929 . S
H574 C578 0.929 . S
H575 C584 0.929 . S
C576 H570 0.930 . S
C576 C577 1.367 . S
C576 C584 1.378 . S
C577 C576 1.367 . S
C577 C585 1.433 . S
C578 H574 0.929 . S
C578 C580 1.378 . S
C578 C582 1.350 . S
C579 C582 1.463 . S
C579 C584 1.350 . S
C579 N587 1.427 . S
C580 H571 0.930 . S
C580 C578 1.378 . S
C580 C581 1.367 . S
C581 C580 1.367 . S
C581 C583 1.433 . S
C582 C578 1.350 . S
C582 C579 1.463 . S
C582 N586 1.427 . S
C583 H573 0.929 . S
C583 C581 1.433 . S
C583 N586 1.384 . S
C584 H575 0.929 . S
C584 C576 1.378 . S
C584 C579 1.350 . S
C585 H572 0.929 . S
C585 C577 1.433 . S
C585 N587 1.384 . S
N586 C582 1.427 . S
N586 C583 1.384 . S
N587 C579 1.427 . S
N587 C585 1.384 . S
H588 C594 0.930 . S
H589 C598 0.930 . S
H590 C603 0.929 . S
H591 C601 0.929 . S
H592 C596 0.929 . S
H593 C602 0.929 . S
C594 H588 0.930 . S
C594 C595 1.367 . S
C594 C602 1.378 . S
C595 C594 1.367 . S
C595 C603 1.433 . S
C596 H592 0.929 . S
C596 C598 1.378 . S
C596 C600 1.350 . S
C597 C600 1.463 . S
C597 C602 1.350 . S
C597 N605 1.427 . S
C598 H589 0.930 . S
C598 C596 1.378 . S
C598 C599 1.367 . S
C599 C598 1.367 . S
C599 C601 1.433 . S
C600 C596 1.350 . S
C600 C597 1.463 . S
C600 N604 1.427 . S
C601 H591 0.929 . S
C601 C599 1.433 . S
C601 N604 1.384 . S
C602 H593 0.929 . S
C602 C594 1.378 . S
C602 C597 1.350 . S
C603 H590 0.929 . S
C603 C595 1.433 . S
C603 N605 1.384 . S
N604 C600 1.427 . S
N604 C601 1.384 . S
N605 C597 1.427 . S
N605 C603 1.384 . S
H606 C612 0.930 . S
H607 C616 0.930 . S
H608 C621 0.929 . S
H609 C619 0.929 . S
H610 C614 0.929 . S
H611 C620 0.929 . S
C612 H606 0.930 . S
C612 C613 1.367 . S
C612 C620 1.378 . S
C613 C612 1.367 . S
C613 C621 1.433 . S
C614 H610 0.929 . S
C614 C616 1.378 . S
C614 C618 1.350 . S
C615 C618 1.463 . S
C615 C620 1.350 . S
C615 N623 1.427 . S
C616 H607 0.930 . S
C616 C614 1.378 . S
C616 C617 1.367 . S
C617 C616 1.367 . S
C617 C619 1.433 . S
C618 C614 1.350 . S
C618 C615 1.463 . S
C618 N622 1.427 . S
C619 H609 0.929 . S
C619 C617 1.433 . S
C619 N622 1.384 . S
C620 H611 0.929 . S
C620 C612 1.378 . S
C620 C615 1.350 . S
C621 H608 0.929 . S
C621 C613 1.433 . S
C621 N623 1.384 . S
N622 C618 1.427 . S
N622 C619 1.384 . S
N623 C615 1.427 . S
N623 C621 1.384 . S
C271 N145 1.611 . S
C275 N13 1.611 . S
C289 N46 1.623 . S
C293 N178 1.623 . S
C307 N79 1.613 . S
C311 N211 1.613 . S
C325 N244 1.626 . S
C329 N112 1.626 . S
C343 N233 0.686 . S
C347 C21 0.676 . S
C361 N134 0.678 1_655 S
C365 C54 0.688 . S
C379 N167 0.705 . S
C383 C87 0.703 . S
C397 N200 0.676 . S
C401 C120 0.684 . S
C415 C153 0.680 . S
C419 N101 0.676 1_565 S
C433 C186 0.704 . S
C437 N2 0.702 . S
C451 C219 0.703 . S
C455 N35 0.694 . S
C469 C252 0.691 . S
C473 N68 0.680 . S
C487 C18 1.532 . S
C491 C84 1.537 . S
C505 C51 1.535 . S
C509 C117 1.536 . S
C523 C216 1.528 . S
C527 C150 1.529 . S
C541 C249 1.536 . S
C545 C183 1.530 . S
C559 C73 1.026 . S
C563 C7 1.002 . S
C577 C40 1.025 . S
C581 C106 1.028 . S
C595 C205 1.028 . S
C599 C139 1.026 . S
C613 C238 1.005 . S
C617 C172 1.029 . S
