# Generated by pormake.
# Topology vcc, (6)-cn, num edge types: 1
# Building blocks:
#     Node 0, Type 0, BuildingBlock: LEVNOQ01_clean_sbu_1, # of connection points: 6
#     Node 1, Type 0, BuildingBlock: LEVNOQ01_clean_sbu_1, # of connection points: 6
#     Node 2, Type 0, BuildingBlock: LEVNOQ01_clean_sbu_1, # of connection points: 6
#     Node 3, Type 0, BuildingBlock: LEVNOQ01_clean_sbu_1, # of connection points: 6
#     Node 4, Type 0, BuildingBlock: LEVNOQ01_clean_sbu_1, # of connection points: 6
#     Node 5, Type 0, BuildingBlock: LEVNOQ01_clean_sbu_1, # of connection points: 6
#     Node 6, Type 0, BuildingBlock: LEVNOQ01_clean_sbu_1, # of connection points: 6
#     Node 7, Type 0, BuildingBlock: LEVNOQ01_clean_sbu_1, # of connection points: 6
#     Node 8, Type 0, BuildingBlock: LEVNOQ01_clean_sbu_1, # of connection points: 6
#     Node 9, Type 0, BuildingBlock: LEVNOQ01_clean_sbu_1, # of connection points: 6
#     Node 10, Type 0, BuildingBlock: LEVNOQ01_clean_sbu_1, # of connection points: 6
#     Node 11, Type 0, BuildingBlock: LEVNOQ01_clean_sbu_1, # of connection points: 6
#     Node 12, Type 0, BuildingBlock: LEVNOQ01_clean_sbu_1, # of connection points: 6
#     Node 13, Type 0, BuildingBlock: LEVNOQ01_clean_sbu_1, # of connection points: 6
#     Node 14, Type 0, BuildingBlock: LEVNOQ01_clean_sbu_1, # of connection points: 6
#     Node 15, Type 0, BuildingBlock: LEVNOQ01_clean_sbu_1, # of connection points: 6
#     Node 16, Type 0, BuildingBlock: LEVNOQ01_clean_sbu_1, # of connection points: 6
#     Node 17, Type 0, BuildingBlock: LEVNOQ01_clean_sbu_1, # of connection points: 6
#     Node 18, Type 0, BuildingBlock: LEVNOQ01_clean_sbu_1, # of connection points: 6
#     Node 19, Type 0, BuildingBlock: LEVNOQ01_clean_sbu_1, # of connection points: 6
#     Node 20, Type 0, BuildingBlock: LEVNOQ01_clean_sbu_1, # of connection points: 6
#     Node 21, Type 0, BuildingBlock: LEVNOQ01_clean_sbu_1, # of connection points: 6
#     Node 22, Type 0, BuildingBlock: LEVNOQ01_clean_sbu_1, # of connection points: 6
#     Node 23, Type 0, BuildingBlock: LEVNOQ01_clean_sbu_1, # of connection points: 6
#     Node 24, Type 0, BuildingBlock: LEVNOQ01_clean_sbu_1, # of connection points: 6
#     Node 25, Type 0, BuildingBlock: LEVNOQ01_clean_sbu_1, # of connection points: 6
#     Node 26, Type 0, BuildingBlock: LEVNOQ01_clean_sbu_1, # of connection points: 6
#     Node 27, Type 0, BuildingBlock: LEVNOQ01_clean_sbu_1, # of connection points: 6
#     Node 28, Type 0, BuildingBlock: LEVNOQ01_clean_sbu_1, # of connection points: 6
#     Node 29, Type 0, BuildingBlock: LEVNOQ01_clean_sbu_1, # of connection points: 6
#     Node 30, Type 0, BuildingBlock: LEVNOQ01_clean_sbu_1, # of connection points: 6
#     Node 31, Type 0, BuildingBlock: LEVNOQ01_clean_sbu_1, # of connection points: 6
#     Edge 32, Type (0, 0), BuildingBlock: OJICUG_clean_linker_0, # of connection points: 2
#     Edge 33, Type (0, 0), BuildingBlock: OJICUG_clean_linker_0, # of connection points: 2
#     Edge 34, Type (0, 0), BuildingBlock: OJICUG_clean_linker_0, # of connection points: 2
#     Edge 35, Type (0, 0), BuildingBlock: OJICUG_clean_linker_0, # of connection points: 2
#     Edge 36, Type (0, 0), BuildingBlock: OJICUG_clean_linker_0, # of connection points: 2
#     Edge 37, Type (0, 0), BuildingBlock: OJICUG_clean_linker_0, # of connection points: 2
#     Edge 38, Type (0, 0), BuildingBlock: OJICUG_clean_linker_0, # of connection points: 2
#     Edge 39, Type (0, 0), BuildingBlock: OJICUG_clean_linker_0, # of connection points: 2
#     Edge 40, Type (0, 0), BuildingBlock: OJICUG_clean_linker_0, # of connection points: 2
#     Edge 41, Type (0, 0), BuildingBlock: OJICUG_clean_linker_0, # of connection points: 2
#     Edge 42, Type (0, 0), BuildingBlock: OJICUG_clean_linker_0, # of connection points: 2
#     Edge 43, Type (0, 0), BuildingBlock: OJICUG_clean_linker_0, # of connection points: 2
#     Edge 44, Type (0, 0), BuildingBlock: OJICUG_clean_linker_0, # of connection points: 2
#     Edge 45, Type (0, 0), BuildingBlock: OJICUG_clean_linker_0, # of connection points: 2
#     Edge 46, Type (0, 0), BuildingBlock: OJICUG_clean_linker_0, # of connection points: 2
#     Edge 47, Type (0, 0), BuildingBlock: OJICUG_clean_linker_0, # of connection points: 2
#     Edge 48, Type (0, 0), BuildingBlock: OJICUG_clean_linker_0, # of connection points: 2
#     Edge 49, Type (0, 0), BuildingBlock: OJICUG_clean_linker_0, # of connection points: 2
#     Edge 50, Type (0, 0), BuildingBlock: OJICUG_clean_linker_0, # of connection points: 2
#     Edge 51, Type (0, 0), BuildingBlock: OJICUG_clean_linker_0, # of connection points: 2
#     Edge 52, Type (0, 0), BuildingBlock: OJICUG_clean_linker_0, # of connection points: 2
#     Edge 53, Type (0, 0), BuildingBlock: OJICUG_clean_linker_0, # of connection points: 2
#     Edge 54, Type (0, 0), BuildingBlock: OJICUG_clean_linker_0, # of connection points: 2
#     Edge 55, Type (0, 0), BuildingBlock: OJICUG_clean_linker_0, # of connection points: 2
#     Edge 56, Type (0, 0), BuildingBlock: OJICUG_clean_linker_0, # of connection points: 2
#     Edge 57, Type (0, 0), BuildingBlock: OJICUG_clean_linker_0, # of connection points: 2
#     Edge 58, Type (0, 0), BuildingBlock: OJICUG_clean_linker_0, # of connection points: 2
#     Edge 59, Type (0, 0), BuildingBlock: OJICUG_clean_linker_0, # of connection points: 2
#     Edge 60, Type (0, 0), BuildingBlock: OJICUG_clean_linker_0, # of connection points: 2
#     Edge 61, Type (0, 0), BuildingBlock: OJICUG_clean_linker_0, # of connection points: 2
#     Edge 62, Type (0, 0), BuildingBlock: OJICUG_clean_linker_0, # of connection points: 2
#     Edge 63, Type (0, 0), BuildingBlock: OJICUG_clean_linker_0, # of connection points: 2
#     Edge 64, Type (0, 0), BuildingBlock: OJICUG_clean_linker_0, # of connection points: 2
#     Edge 65, Type (0, 0), BuildingBlock: OJICUG_clean_linker_0, # of connection points: 2
#     Edge 66, Type (0, 0), BuildingBlock: OJICUG_clean_linker_0, # of connection points: 2
#     Edge 67, Type (0, 0), BuildingBlock: OJICUG_clean_linker_0, # of connection points: 2
#     Edge 68, Type (0, 0), BuildingBlock: OJICUG_clean_linker_0, # of connection points: 2
#     Edge 69, Type (0, 0), BuildingBlock: OJICUG_clean_linker_0, # of connection points: 2
#     Edge 70, Type (0, 0), BuildingBlock: OJICUG_clean_linker_0, # of connection points: 2
#     Edge 71, Type (0, 0), BuildingBlock: OJICUG_clean_linker_0, # of connection points: 2
#     Edge 72, Type (0, 0), BuildingBlock: OJICUG_clean_linker_0, # of connection points: 2
#     Edge 73, Type (0, 0), BuildingBlock: OJICUG_clean_linker_0, # of connection points: 2
#     Edge 74, Type (0, 0), BuildingBlock: OJICUG_clean_linker_0, # of connection points: 2
#     Edge 75, Type (0, 0), BuildingBlock: OJICUG_clean_linker_0, # of connection points: 2
#     Edge 76, Type (0, 0), BuildingBlock: OJICUG_clean_linker_0, # of connection points: 2
#     Edge 77, Type (0, 0), BuildingBlock: OJICUG_clean_linker_0, # of connection points: 2
#     Edge 78, Type (0, 0), BuildingBlock: OJICUG_clean_linker_0, # of connection points: 2
#     Edge 79, Type (0, 0), BuildingBlock: OJICUG_clean_linker_0, # of connection points: 2
#     Edge 80, Type (0, 0), BuildingBlock: OJICUG_clean_linker_0, # of connection points: 2
#     Edge 81, Type (0, 0), BuildingBlock: OJICUG_clean_linker_0, # of connection points: 2
#     Edge 82, Type (0, 0), BuildingBlock: OJICUG_clean_linker_0, # of connection points: 2
#     Edge 83, Type (0, 0), BuildingBlock: OJICUG_clean_linker_0, # of connection points: 2
#     Edge 84, Type (0, 0), BuildingBlock: OJICUG_clean_linker_0, # of connection points: 2
#     Edge 85, Type (0, 0), BuildingBlock: OJICUG_clean_linker_0, # of connection points: 2
#     Edge 86, Type (0, 0), BuildingBlock: OJICUG_clean_linker_0, # of connection points: 2
#     Edge 87, Type (0, 0), BuildingBlock: OJICUG_clean_linker_0, # of connection points: 2
#     Edge 88, Type (0, 0), BuildingBlock: OJICUG_clean_linker_0, # of connection points: 2
#     Edge 89, Type (0, 0), BuildingBlock: OJICUG_clean_linker_0, # of connection points: 2
#     Edge 90, Type (0, 0), BuildingBlock: OJICUG_clean_linker_0, # of connection points: 2
#     Edge 91, Type (0, 0), BuildingBlock: OJICUG_clean_linker_0, # of connection points: 2
#     Edge 92, Type (0, 0), BuildingBlock: OJICUG_clean_linker_0, # of connection points: 2
#     Edge 93, Type (0, 0), BuildingBlock: OJICUG_clean_linker_0, # of connection points: 2
#     Edge 94, Type (0, 0), BuildingBlock: OJICUG_clean_linker_0, # of connection points: 2
#     Edge 95, Type (0, 0), BuildingBlock: OJICUG_clean_linker_0, # of connection points: 2
#     Edge 96, Type (0, 0), BuildingBlock: OJICUG_clean_linker_0, # of connection points: 2
#     Edge 97, Type (0, 0), BuildingBlock: OJICUG_clean_linker_0, # of connection points: 2
#     Edge 98, Type (0, 0), BuildingBlock: OJICUG_clean_linker_0, # of connection points: 2
#     Edge 99, Type (0, 0), BuildingBlock: OJICUG_clean_linker_0, # of connection points: 2
#     Edge 100, Type (0, 0), BuildingBlock: OJICUG_clean_linker_0, # of connection points: 2
#     Edge 101, Type (0, 0), BuildingBlock: OJICUG_clean_linker_0, # of connection points: 2
#     Edge 102, Type (0, 0), BuildingBlock: OJICUG_clean_linker_0, # of connection points: 2
#     Edge 103, Type (0, 0), BuildingBlock: OJICUG_clean_linker_0, # of connection points: 2
#     Edge 104, Type (0, 0), BuildingBlock: OJICUG_clean_linker_0, # of connection points: 2
#     Edge 105, Type (0, 0), BuildingBlock: OJICUG_clean_linker_0, # of connection points: 2
#     Edge 106, Type (0, 0), BuildingBlock: OJICUG_clean_linker_0, # of connection points: 2
#     Edge 107, Type (0, 0), BuildingBlock: OJICUG_clean_linker_0, # of connection points: 2
#     Edge 108, Type (0, 0), BuildingBlock: OJICUG_clean_linker_0, # of connection points: 2
#     Edge 109, Type (0, 0), BuildingBlock: OJICUG_clean_linker_0, # of connection points: 2
#     Edge 110, Type (0, 0), BuildingBlock: OJICUG_clean_linker_0, # of connection points: 2
#     Edge 111, Type (0, 0), BuildingBlock: OJICUG_clean_linker_0, # of connection points: 2
#     Edge 112, Type (0, 0), BuildingBlock: OJICUG_clean_linker_0, # of connection points: 2
#     Edge 113, Type (0, 0), BuildingBlock: OJICUG_clean_linker_0, # of connection points: 2
#     Edge 114, Type (0, 0), BuildingBlock: OJICUG_clean_linker_0, # of connection points: 2
#     Edge 115, Type (0, 0), BuildingBlock: OJICUG_clean_linker_0, # of connection points: 2
#     Edge 116, Type (0, 0), BuildingBlock: OJICUG_clean_linker_0, # of connection points: 2
#     Edge 117, Type (0, 0), BuildingBlock: OJICUG_clean_linker_0, # of connection points: 2
#     Edge 118, Type (0, 0), BuildingBlock: OJICUG_clean_linker_0, # of connection points: 2
#     Edge 119, Type (0, 0), BuildingBlock: OJICUG_clean_linker_0, # of connection points: 2
#     Edge 120, Type (0, 0), BuildingBlock: OJICUG_clean_linker_0, # of connection points: 2
#     Edge 121, Type (0, 0), BuildingBlock: OJICUG_clean_linker_0, # of connection points: 2
#     Edge 122, Type (0, 0), BuildingBlock: OJICUG_clean_linker_0, # of connection points: 2
#     Edge 123, Type (0, 0), BuildingBlock: OJICUG_clean_linker_0, # of connection points: 2
#     Edge 124, Type (0, 0), BuildingBlock: OJICUG_clean_linker_0, # of connection points: 2
#     Edge 125, Type (0, 0), BuildingBlock: OJICUG_clean_linker_0, # of connection points: 2
#     Edge 126, Type (0, 0), BuildingBlock: OJICUG_clean_linker_0, # of connection points: 2
#     Edge 127, Type (0, 0), BuildingBlock: OJICUG_clean_linker_0, # of connection points: 2
# Relax obj value: 0.091
# Max RMSD: 0.138
# Mean RMSD: 0.138
data_MOF--net-vcc--node1-LEVNOQ01_clean_sbu_1--edge1-OJICUG_clean_linker_0
_symmetry_space_group_name_H-M    P1
_symmetry_Int_Tables_number       1
_symmetry_cell_setting            triclinic
loop_
_symmetry_equiv_pos_as_xyz
'x, y, z'
_cell_length_a     37.918129
_cell_length_b     45.127054
_cell_length_c     29.084534
_cell_angle_alpha  89.998641
_cell_angle_beta   90.007201
_cell_angle_gamma 90.052651
loop_
_atom_site_label
_atom_site_type_symbol
_atom_site_fract_x
_atom_site_fract_y
_atom_site_fract_z
_atom_type_partial_charge
O0 O 0.33161 0.94677 0.14903 0.0
Mg1 Mg 0.28547 0.92711 0.11621 0.0
O2 O 0.34699 0.97855 0.09363 0.0
Mg3 Mg 0.29567 0.98026 0.05203 0.0
O4 O 0.29755 0.92946 0.04872 0.0
O5 O 0.28744 0.88651 0.08275 0.0
O6 O 0.24281 0.98177 0.01196 0.0
O7 O 0.32478 0.97135 0.98174 0.0
Mg8 Mg 0.30784 0.02211 -0.00603 0.0
O9 O 0.29625 0.03331 0.05959 0.0
O10 O 0.26458 0.00652 0.95306 0.0
O11 O 0.36038 0.00854 0.98265 0.0
O12 O 0.30487 0.06619 0.0024 0.0
C13 C 0.24225 0.97129 0.14365 0.0
C14 C 0.35308 0.96571 0.13204 0.0
C15 C 0.29845 0.90081 0.04715 0.0
C16 C 0.23943 -0.00779 0.97141 0.0
C17 C 0.35143 0.98433 0.96469 0.0
C18 C 0.29837 0.06065 0.04507 0.0
O19 O 0.23588 0.94494 0.13185 0.0
O20 O 0.2659 0.98582 0.12208 0.0
O21 O 0.86844 0.26976 0.1427 0.0
Mg22 Mg 0.91288 0.28696 0.10435 0.0
O23 O 0.85076 0.24122 0.08518 0.0
Mg24 Mg 0.90422 0.24108 0.04793 0.0
O25 O 0.8989 0.2927 0.03757 0.0
O26 O 0.91009 0.33022 0.08585 0.0
O27 O 0.95863 0.24085 0.01109 0.0
O28 O 0.87785 0.24799 0.97546 0.0
Mg29 Mg 0.89588 0.198 -0.00925 0.0
O30 O 0.90572 0.18828 0.05762 0.0
O31 O 0.93955 0.21469 0.95202 0.0
O32 O 0.84348 0.21002 0.97467 0.0
O33 O 0.90053 0.15428 0.00125 0.0
C34 C 0.95668 0.25014 0.13965 0.0
C35 C 0.84553 0.25261 0.12478 0.0
C36 C 0.89971 0.32096 0.04613 0.0
C37 C 0.9634 0.23022 0.97088 0.0
C38 C 0.853 0.23392 0.95614 0.0
C39 C 0.90529 0.16068 0.04403 0.0
O40 O 0.96439 0.27524 0.12364 0.0
O41 O 0.93186 0.23564 0.12048 0.0
O42 O 0.33543 0.26715 0.07342 0.0
Mg43 Mg 0.29164 0.28433 0.11286 0.0
O44 O 0.35294 0.23896 0.13119 0.0
Mg45 Mg 0.29918 0.23955 0.16778 0.0
O46 O 0.3057 0.29134 0.17942 0.0
O47 O 0.29575 0.32783 0.12869 0.0
O48 O 0.24446 0.24005 0.20396 0.0
O49 O 0.32603 0.24631 0.24041 0.0
Mg50 Mg 0.3062 0.19734 0.22308 0.0
O51 O 0.29669 0.18668 0.15659 0.0
O52 O 0.26316 0.21392 0.26303 0.0
O53 O 0.35881 0.20729 0.24082 0.0
O54 O 0.30053 0.15352 0.21425 0.0
C55 C 0.24693 0.24927 0.07613 0.0
C56 C 0.35827 0.25008 0.09146 0.0
C57 C 0.30564 0.31938 0.16901 0.0
C58 C 0.23947 0.22954 0.24417 0.0
C59 C 0.3509 0.23174 0.25885 0.0
C60 C 0.29648 0.15929 0.17116 0.0
O61 O 0.23976 0.27435 0.09257 0.0
O62 O 0.27148 0.23434 0.09504 0.0
O63 O 0.87198 0.9516 0.07515 0.0
Mg64 Mg 0.91755 0.93382 0.11101 0.0
O65 O 0.85547 0.98212 0.13121 0.0
Mg66 Mg 0.90806 0.98366 0.17014 0.0
O67 O 0.90416 0.93244 0.17839 0.0
O68 O 0.91593 0.89182 0.13769 0.0
O69 O 0.962 0.98512 0.2082 0.0
O70 O 0.88028 0.97612 0.24167 0.0
Mg71 Mg 0.89807 0.02633 0.22651 0.0
O72 O 0.9082 0.03649 0.16001 0.0
O73 O 0.94167 0.01104 0.2667 0.0
O74 O 0.84575 0.01404 0.24198 0.0
O75 O 0.90169 0.07022 0.21647 0.0
C76 C 0.96092 0.97403 0.07864 0.0
C77 C 0.84969 0.9696 0.09253 0.0
C78 C 0.9049 0.90375 0.17534 0.0
C79 C 0.96621 -0.00389 0.24828 0.0
C80 C 0.85443 -0.01033 0.25963 0.0
C81 C 0.90688 0.06403 0.17371 0.0
O82 O 0.96827 0.94858 0.09351 0.0
O83 O 0.93642 -0.01147 0.09844 0.0
O84 O 0.62254 0.02163 0.82435 0.0
Mg85 Mg 0.66772 0.03963 0.86072 0.0
O86 O 0.6057 -0.00809 0.88121 0.0
Mg87 Mg 0.65836 -0.00892 0.92018 0.0
O88 O 0.65404 0.04241 0.92798 0.0
O89 O 0.66575 0.08211 0.88488 0.0
O90 O 0.71239 -0.00967 0.9579 0.0
O91 O 0.63055 -0.0013 -0.00804 0.0
Mg92 Mg 0.64921 0.94842 0.97746 0.0
O93 O 0.65888 0.93833 0.91085 0.0
O94 O 0.69287 0.96442 0.01691 0.0
O95 O 0.59688 0.96014 -0.00651 0.0
O96 O 0.65333 0.90455 0.9674 0.0
C97 C 0.71122 0.00011 0.82843 0.0
C98 C 0.60013 0.00384 0.84202 0.0
C99 C 0.65485 0.07101 0.92321 0.0
C100 C 0.71704 0.97958 -0.00197 0.0
C101 C 0.60497 0.9849 0.01032 0.0
C102 C 0.65799 0.91079 0.92455 0.0
O103 O 0.7187 0.02561 0.84307 0.0
O104 O 0.68667 0.98575 0.84844 0.0
O105 O 0.08516 0.70547 0.82799 0.0
Mg106 Mg 0.04014 0.68839 0.86546 0.0
O107 O 0.1027 0.73392 0.88575 0.0
Mg108 Mg 0.04891 0.73457 0.92231 0.0
O109 O 0.05373 0.68296 0.93236 0.0
O110 O 0.0423 0.64519 0.88474 0.0
O111 O -0.00604 0.73521 0.95828 0.0
O112 O 0.07443 0.72747 -0.00486 0.0
Mg113 Mg 0.05677 0.778 0.98037 0.0
O114 O 0.04839 0.7873 0.91296 0.0
O115 O 0.01216 0.76179 0.0174 0.0
O116 O 0.10839 0.76565 -0.00054 0.0
O117 O 0.0529 0.82167 0.96887 0.0
C118 C -0.00286 0.7258 0.83 0.0
C119 C 0.10811 0.72245 0.84623 0.0
C120 C 0.05277 0.65465 0.9243 0.0
C121 C -0.01139 0.74616 -0.00183 0.0
C122 C 0.09892 0.74112 0.01593 0.0
C123 C 0.04893 0.81499 0.92605 0.0
O124 O -0.01112 0.70088 0.84619 0.0
O125 O 0.02207 0.74009 0.84933 0.0
O126 O 0.62022 0.70546 0.89633 0.0
Mg127 Mg 0.66546 0.687 0.86084 0.0
O128 O 0.60351 0.73391 0.83798 0.0
Mg129 Mg 0.65708 0.73408 0.80085 0.0
O130 O 0.65241 0.68262 0.79365 0.0
O131 O 0.66329 0.64398 0.83948 0.0
O132 O 0.71194 0.73424 0.7645 0.0
O133 O 0.63145 0.72593 0.7285 0.0
Mg134 Mg 0.64915 0.77703 0.74066 0.0
O135 O 0.65761 0.78683 0.80789 0.0
O136 O 0.69397 0.76029 0.70469 0.0
O137 O 0.59757 0.76397 0.72225 0.0
O138 O 0.65291 0.82082 0.75146 0.0
C139 C 0.70876 0.72622 0.89337 0.0
C140 C 0.59779 0.72274 0.87766 0.0
C141 C 0.65309 0.65417 0.80024 0.0
C142 C 0.7174 0.7448 0.72437 0.0
C143 C 0.60704 0.73915 0.70696 0.0
C144 C 0.65703 0.81443 0.79437 0.0
O145 O 0.71652 0.70083 0.87864 0.0
O146 O 0.68405 0.74036 0.87337 0.0
O147 O 0.08508 0.02158 0.89274 0.0
Mg148 Mg 0.03978 0.03897 0.85606 0.0
O149 O 0.102 -0.00794 0.83583 0.0
Mg150 Mg 0.04882 -0.00899 0.798 0.0
O151 O 0.05306 0.04238 0.78874 0.0
O152 O 0.04155 0.08161 0.83309 0.0
O153 O -0.00541 -0.0102 0.76062 0.0
O154 O 0.07563 -0.00169 0.72604 0.0
Mg155 Mg 0.0583 0.9479 0.74095 0.0
O156 O 0.04833 0.93825 0.80773 0.0
O157 O 0.01434 0.96379 0.7018 0.0
O158 O 0.11065 0.96077 0.7262 0.0
O159 O 0.05463 0.90409 0.75183 0.0
C160 C -0.00348 0.00023 0.89002 0.0
C161 C 0.10764 0.00405 0.87492 0.0
C162 C 0.05205 0.07092 0.79431 0.0
C163 C -0.00994 0.97891 0.72052 0.0
C164 C 0.10122 0.98468 0.7077 0.0
C165 C 0.0495 0.91061 0.79449 0.0
O166 O -0.01122 0.02547 0.87467 0.0
O167 O 0.02113 0.98583 0.87028 0.0
O168 O 0.33615 0.45664 0.64377 0.0
Mg169 Mg 0.292 0.43912 0.6053 0.0
O170 O 0.35357 0.48501 0.586 0.0
Mg171 Mg 0.29969 0.48457 0.54978 0.0
O172 O 0.30598 0.43296 0.53865 0.0
O173 O 0.2957 0.39575 0.58789 0.0
O174 O 0.24477 0.48409 0.51403 0.0
O175 O 0.3253 0.47812 0.47682 0.0
Mg176 Mg 0.30626 0.52801 0.49221 0.0
O177 O 0.29771 0.53729 0.55957 0.0
O178 O 0.26236 0.51083 0.45479 0.0
O179 O 0.35829 0.51694 0.47323 0.0
O180 O 0.30097 0.57158 0.50337 0.0
C181 C 0.24782 0.47488 0.64173 0.0
C182 C 0.35894 0.47379 0.62567 0.0
C183 C 0.30577 0.40479 0.54793 0.0
C184 C 0.23922 0.49477 0.47402 0.0
C185 C 0.34928 0.49247 0.45613 0.0
C186 C 0.29741 0.56495 0.54626 0.0
O187 O 0.24028 0.44992 0.6251 0.0
O188 O 0.27256 0.48968 0.6229 0.0
O189 O 0.87165 0.77268 0.64634 0.0
Mg190 Mg 0.91672 0.79171 0.6108 0.0
O191 O 0.85479 0.74285 0.58948 0.0
Mg192 Mg 0.90741 0.74229 0.55043 0.0
O193 O 0.90295 0.79348 0.54367 0.0
O194 O 0.91423 0.83395 0.58493 0.0
O195 O 0.96154 0.742 0.51282 0.0
O196 O 0.88057 0.75002 0.4786 0.0
Mg197 Mg 0.89882 0.69915 0.49075 0.0
O198 O 0.90794 0.68942 0.55788 0.0
O199 O 0.94307 0.71586 0.45335 0.0
O200 O 0.84682 0.71175 0.4739 0.0
O201 O 0.90285 0.65542 0.5015 0.0
C202 C 0.96039 0.75139 0.64157 0.0
C203 C 0.84937 0.7547 0.62879 0.0
C204 C 0.90329 0.82214 0.54714 0.0
C205 C 0.9667 0.73137 0.4727 0.0
C206 C 0.85606 0.73643 0.45777 0.0
C207 C 0.90724 0.66181 0.54435 0.0
O208 O 0.96772 0.77682 0.62655 0.0
O209 O 0.93559 0.73696 0.62219 0.0
O210 O 0.33593 0.7714 0.57919 0.0
Mg211 Mg 0.29123 0.78886 0.61688 0.0
O212 O 0.35301 0.74164 0.63569 0.0
Mg213 Mg 0.29994 0.74115 0.67392 0.0
O214 O 0.30528 0.7925 0.68393 0.0
O215 O 0.2939 0.83159 0.63915 0.0
O216 O 0.24573 0.74085 0.71131 0.0
O217 O 0.32737 0.74799 0.74581 0.0
Mg218 Mg 0.3081 0.69812 0.73057 0.0
O219 O 0.29829 0.68843 0.66375 0.0
O220 O 0.26473 0.71453 0.77015 0.0
O221 O 0.36062 0.70925 0.7469 0.0
O222 O 0.30313 0.65438 0.72005 0.0
C223 C 0.24727 0.75109 0.58252 0.0
C224 C 0.35848 0.75369 0.59659 0.0
C225 C 0.30461 0.82101 0.67791 0.0
C226 C 0.24088 0.73009 0.75141 0.0
C227 C 0.35243 0.73377 0.76445 0.0
C228 C 0.29858 0.66082 0.67726 0.0
O229 O 0.23982 0.77624 0.59851 0.0
O230 O 0.2719 0.73641 0.60173 0.0
O231 O 0.86856 0.457 0.5752 0.0
Mg232 Mg 0.91272 0.43942 0.61348 0.0
O233 O 0.85089 0.48542 0.63286 0.0
Mg234 Mg 0.90433 0.48512 0.6701 0.0
O235 O 0.89839 0.4335 0.68006 0.0
O236 O 0.90941 0.39608 0.63155 0.0
O237 O 0.9588 0.48465 0.70664 0.0
O238 O 0.87806 0.47827 0.74263 0.0
Mg239 Mg 0.89708 0.52834 0.72822 0.0
O240 O 0.90634 0.53791 0.66115 0.0
O241 O 0.94066 0.51088 0.76611 0.0
O242 O 0.84471 0.51682 0.74515 0.0
O243 O 0.90246 0.57199 0.71758 0.0
C244 C 0.9567 0.47619 0.57836 0.0
C245 C 0.84574 0.47418 0.59313 0.0
C246 C 0.89894 0.40526 0.67125 0.0
C247 C 0.96399 0.49502 0.74691 0.0
C248 C 0.85376 0.49253 0.76276 0.0
C249 C 0.9065 0.56552 0.6747 0.0
O250 O 0.96433 0.45109 0.59436 0.0
O251 O 0.9319 0.49069 0.59752 0.0
O252 O 0.61871 0.51946 0.32586 0.0
Mg253 Mg 0.6629 0.53696 0.36438 0.0
O254 O 0.60065 0.49065 0.38294 0.0
Mg255 Mg 0.65393 0.49057 0.42055 0.0
O256 O 0.64814 0.54207 0.43085 0.0
O257 O 0.65975 0.58013 0.38387 0.0
O258 O 0.70836 0.49085 0.4573 0.0
O259 O 0.62758 0.49735 0.4928 0.0
Mg260 Mg 0.64663 0.44712 0.47884 0.0
O261 O 0.65552 0.43776 0.4115 0.0
O262 O 0.6904 0.46432 0.51658 0.0
O263 O 0.59454 0.45859 0.49693 0.0
O264 O 0.65173 0.40352 0.46773 0.0
C265 C 0.70687 0.4999 0.32979 0.0
C266 C 0.59571 0.50222 0.34338 0.0
C267 C 0.64883 0.57042 0.42308 0.0
C268 C 0.71367 0.4803 0.49744 0.0
C269 C 0.60352 0.48319 0.51361 0.0
C270 C 0.65559 0.4101 0.42486 0.0
O271 O 0.7146 0.52479 0.34657 0.0
O272 O 0.6817 0.48538 0.34811 0.0
O273 O 0.08531 0.20342 0.32331 0.0
Mg274 Mg 0.04069 0.18541 0.36056 0.0
O275 O 0.1019 0.23385 0.37932 0.0
Mg276 Mg 0.04903 0.23406 0.41814 0.0
O277 O 0.05445 0.18281 0.42783 0.0
O278 O 0.04365 0.14297 0.38454 0.0
O279 O -0.00497 0.23391 0.45572 0.0
O280 O 0.0769 0.22726 0.48998 0.0
Mg281 Mg 0.05725 0.27643 0.4741 0.0
O282 O 0.04679 0.28696 0.40779 0.0
O283 O 0.0145 0.25978 0.51469 0.0
O284 O 0.11011 0.26605 0.48984 0.0
O285 O 0.05169 0.3202 0.46527 0.0
C286 C -0.00383 0.2236 0.32687 0.0
C287 C 0.10752 0.22159 0.3404 0.0
C288 C 0.05409 0.1542 0.42299 0.0
C289 C -0.0095 0.24433 0.49606 0.0
C290 C 0.10203 0.2417 0.50812 0.0
C291 C 0.04685 0.31436 0.42233 0.0
O292 O -0.01062 0.19811 0.34205 0.0
O293 O 0.02053 0.23851 0.34631 0.0
O294 O 0.61913 0.20394 0.39315 0.0
Mg295 Mg 0.6635 0.18638 0.35501 0.0
O296 O 0.60132 0.23315 0.33634 0.0
Mg297 Mg 0.65429 0.23362 0.29807 0.0
O298 O 0.64869 0.1822 0.28837 0.0
O299 O 0.66055 0.14346 0.3337 0.0
O300 O 0.70848 0.23391 0.26065 0.0
O301 O 0.62752 0.22674 0.22588 0.0
Mg302 Mg 0.64596 0.27694 0.24035 0.0
O303 O 0.65566 0.28644 0.30739 0.0
O304 O 0.68964 0.26032 0.20172 0.0
O305 O 0.59362 0.26497 0.22391 0.0
O306 O 0.65059 0.32061 0.25124 0.0
C307 C 0.70743 0.22415 0.38899 0.0
C308 C 0.59629 0.22137 0.37575 0.0
C309 C 0.64936 0.15373 0.29498 0.0
C310 C 0.71337 0.24467 0.22054 0.0
C311 C 0.60291 0.2408 0.20608 0.0
C312 C 0.6552 0.31409 0.29401 0.0
O313 O 0.71505 0.19913 0.37265 0.0
O314 O 0.6824 0.23865 0.37032 0.0
O315 O 0.08525 0.52077 0.39542 0.0
Mg316 Mg 0.04177 0.53904 0.35657 0.0
O317 O 0.10233 0.49171 0.33824 0.0
Mg318 Mg 0.04931 0.49278 0.30001 0.0
O319 O 0.05652 0.54427 0.28988 0.0
O320 O 0.04632 0.58219 0.33772 0.0
O321 O -0.00483 0.49391 0.26273 0.0
O322 O 0.07706 0.49932 0.22791 0.0
Mg323 Mg 0.05639 0.45047 0.24404 0.0
O324 O 0.04596 0.43993 0.31028 0.0
O325 O 0.01399 0.46783 0.20366 0.0
O326 O 0.10948 0.46014 0.22848 0.0
O327 O 0.04994 0.40673 0.25266 0.0
C328 C -0.00345 0.50297 0.3913 0.0
C329 C 0.10762 0.503 0.37791 0.0
C330 C 0.05672 0.57257 0.29823 0.0
C331 C -0.00964 0.48361 0.22237 0.0
C332 C 0.1019 0.48449 0.20992 0.0
C333 C 0.04553 0.41256 0.29568 0.0
O334 O -0.01016 0.52838 0.37573 0.0
O335 O 0.02084 0.48797 0.37199 0.0
O336 O 0.8352 0.95095 0.64323 0.0
Mg337 Mg 0.78972 0.93274 0.60773 0.0
O338 O 0.85191 0.98047 0.58601 0.0
Mg339 Mg 0.79871 0.98122 0.54794 0.0
O340 O 0.8031 0.92986 0.54048 0.0
O341 O 0.79152 0.89019 0.58364 0.0
O342 O 0.7442 0.98188 0.51079 0.0
O343 O 0.82493 0.97346 0.47575 0.0
Mg344 Mg 0.80751 0.0241 0.48916 0.0
O345 O 0.79821 0.03413 0.55608 0.0
O346 O 0.76312 0.00788 0.45145 0.0
O347 O 0.85948 0.01125 0.47239 0.0
O348 O 0.80385 0.0679 0.49945 0.0
C349 C 0.74666 0.97253 0.64023 0.0
C350 C 0.85762 0.9686 0.62523 0.0
C351 C 0.80237 0.90125 0.54527 0.0
C352 C 0.7392 -0.00738 0.47066 0.0
C353 C 0.8498 0.98692 0.45545 0.0
C354 C 0.79909 0.06169 0.54229 0.0
O355 O 0.73889 0.94713 0.62544 0.0
O356 O 0.77128 0.98679 0.6202 0.0
O357 O 0.36918 0.26721 0.64346 0.0
Mg358 Mg 0.41371 0.28442 0.60528 0.0
O359 O 0.35099 0.23908 0.58568 0.0
Mg360 Mg 0.4044 0.23864 0.5485 0.0
O361 O 0.39938 0.29029 0.53876 0.0
O362 O 0.41118 0.32776 0.58685 0.0
O363 O 0.45893 0.23833 0.51187 0.0
O364 O 0.37845 0.24574 0.476 0.0
Mg365 Mg 0.39649 0.19477 0.48944 0.0
O366 O 0.40491 0.18597 0.55703 0.0
O367 O 0.44099 0.21158 0.45271 0.0
O368 O 0.3448 0.20738 0.47116 0.0
O369 O 0.40044 0.15115 0.5018 0.0
C370 C 0.45712 0.24703 0.63995 0.0
C371 C 0.34602 0.25035 0.62542 0.0
C372 C 0.40039 0.31855 0.5473 0.0
C373 C 0.46431 0.22751 0.4719 0.0
C374 C 0.35417 0.232 0.45492 0.0
C375 C 0.40434 0.15817 0.5445 0.0
O376 O 0.4652 0.27195 0.62357 0.0
O377 O 0.43189 0.2328 0.62118 0.0
O378 O 0.83536 0.26815 0.57442 0.0
Mg379 Mg 0.79106 0.28487 0.61341 0.0
O380 O 0.85307 0.23933 0.63149 0.0
Mg381 Mg 0.79951 0.23905 0.66853 0.0
O382 O 0.8052 0.29064 0.68016 0.0
O383 O 0.79416 0.32812 0.63171 0.0
O384 O 0.74497 0.23888 0.70502 0.0
O385 O 0.82639 0.24564 0.74113 0.0
Mg386 Mg 0.80726 0.19637 0.724 0.0
O387 O 0.79772 0.18626 0.65731 0.0
O388 O 0.76403 0.2127 0.7639 0.0
O389 O 0.85981 0.20702 0.74102 0.0
O390 O 0.80213 0.15259 0.71423 0.0
C391 C 0.74707 0.2488 0.57689 0.0
C392 C 0.85831 0.25099 0.5921 0.0
C393 C 0.80456 0.31889 0.67142 0.0
C394 C 0.74018 0.22825 0.7452 0.0
C395 C 0.85138 0.23119 0.75952 0.0
C396 C 0.79789 0.15874 0.67128 0.0
O397 O 0.73945 0.27374 0.59347 0.0
O398 O 0.77182 0.23408 0.59578 0.0
O399 O 0.36831 0.95402 0.57935 0.0
Mg400 Mg 0.41377 0.93602 0.615 0.0
O401 O 0.35157 0.98286 0.63721 0.0
Mg402 Mg 0.40544 0.98355 0.67382 0.0
O403 O 0.40098 0.93213 0.68227 0.0
O404 O 0.41184 0.89316 0.63715 0.0
O405 O 0.46063 0.98408 0.70947 0.0
O406 O 0.38035 0.97585 0.74653 0.0
Mg407 Mg 0.39847 0.02745 0.73442 0.0
O408 O 0.40526 0.03619 0.66635 0.0
O409 O 0.44412 0.01124 0.76887 0.0
O410 O 0.34777 0.01447 0.75636 0.0
O411 O 0.40158 0.07108 0.72154 0.0
C412 C 0.45704 0.97491 0.58136 0.0
C413 C 0.34577 0.97131 0.59779 0.0
C414 C 0.40175 0.90363 0.67626 0.0
C415 C 0.46696 -0.00476 0.749 0.0
C416 C 0.35677 -0.01096 0.76964 0.0
C417 C 0.40473 0.06401 0.67875 0.0
O418 O 0.46481 0.94974 0.59699 0.0
O419 O 0.43219 -0.01075 0.60075 0.0
O420 O 0.12039 0.02604 0.32664 0.0
Mg421 Mg 0.16615 0.04423 0.36165 0.0
O422 O 0.10381 -0.00412 0.38323 0.0
Mg423 Mg 0.15625 -0.00536 0.4228 0.0
O424 O 0.15295 0.04589 0.42912 0.0
O425 O 0.16497 0.08631 0.38812 0.0
O426 O 0.20976 -0.0067 0.4616 0.0
O427 O 0.12865 0.00252 0.49414 0.0
Mg428 Mg 0.14499 0.95198 0.48026 0.0
O429 O 0.15663 0.94167 0.41429 0.0
O430 O 0.18863 0.96798 0.5204 0.0
O431 O 0.09231 0.96604 0.49038 0.0
O432 O 0.14826 0.90804 0.47054 0.0
C433 C 0.20894 0.00307 0.33067 0.0
C434 C 0.09812 0.00809 0.34427 0.0
C435 C 0.15384 0.07456 0.42586 0.0
C436 C 0.21351 0.98264 0.50199 0.0
C437 C 0.10229 -0.01092 0.51093 0.0
C438 C 0.15481 0.91415 0.42805 0.0
O439 O 0.21652 0.02885 0.34397 0.0
O440 O 0.18465 -0.011 0.35166 0.0
O441 O 0.5849 0.70531 0.32579 0.0
Mg442 Mg 0.53971 0.6872 0.36188 0.0
O443 O 0.60175 0.7341 0.38368 0.0
Mg444 Mg 0.54886 0.73441 0.42209 0.0
O445 O 0.55318 0.68292 0.42905 0.0
O446 O 0.54164 0.64426 0.3835 0.0
O447 O 0.49497 0.73483 0.46001 0.0
O448 O 0.57638 0.72612 0.49346 0.0
Mg449 Mg 0.55857 0.77692 0.48061 0.0
O450 O 0.5482 0.78716 0.41427 0.0
O451 O 0.51486 0.7602 0.51948 0.0
O452 O 0.61099 0.76401 0.49431 0.0
O453 O 0.55471 0.82091 0.47069 0.0
C454 C 0.49613 0.7266 0.33007 0.0
C455 C 0.6074 0.72269 0.34418 0.0
C456 C 0.55224 0.65445 0.42257 0.0
C457 C 0.4906 0.74517 0.50047 0.0
C458 C 0.60237 0.73948 0.51149 0.0
C459 C 0.54937 0.81469 0.42796 0.0
O460 O 0.48866 0.70097 0.34409 0.0
O461 O 0.52071 0.74073 0.35041 0.0
O462 O 0.12246 0.70665 0.3963 0.0
Mg463 Mg 0.16713 0.6899 0.35788 0.0
O464 O 0.105 0.73577 0.33937 0.0
Mg465 Mg 0.15825 0.73665 0.30191 0.0
O466 O 0.15315 0.6851 0.29089 0.0
O467 O 0.16456 0.64688 0.33764 0.0
O468 O 0.21269 0.73764 0.26493 0.0
O469 O 0.13105 0.72955 0.22976 0.0
Mg470 Mg 0.14946 0.7792 0.24663 0.0
O471 O 0.15905 0.78943 0.3133 0.0
O472 O 0.19296 0.76386 0.20647 0.0
O473 O 0.09722 0.76796 0.22899 0.0
O474 O 0.15366 0.82306 0.25652 0.0
C475 C 0.21076 0.727 0.39349 0.0
C476 C 0.09962 0.72393 0.37861 0.0
C477 C 0.15393 0.6567 0.29837 0.0
C478 C 0.21721 0.74864 0.22493 0.0
C479 C 0.10556 0.74345 0.21151 0.0
C480 C 0.15824 0.81695 0.29941 0.0
O481 O 0.21853 0.70201 0.37717 0.0
O482 O 0.18603 0.74159 0.37435 0.0
O483 O 0.58399 0.02042 0.39467 0.0
Mg484 Mg 0.53891 0.03815 0.358 0.0
O485 O 0.60067 -0.0084 0.33689 0.0
Mg486 Mg 0.54671 -0.00899 0.30066 0.0
O487 O 0.5518 0.04247 0.29069 0.0
O488 O 0.54147 0.0811 0.33689 0.0
O489 O 0.49135 -0.00977 0.26535 0.0
O490 O 0.57181 -0.00181 0.22746 0.0
Mg491 Mg 0.55387 0.94759 0.24235 0.0
O492 O 0.54652 0.93831 0.31009 0.0
O493 O 0.5086 0.96309 0.20641 0.0
O494 O 0.60488 0.95964 0.22024 0.0
O495 O 0.55038 0.90394 0.25413 0.0
C496 C 0.49541 0.00052 0.39335 0.0
C497 C 0.60648 0.00307 0.37634 0.0
C498 C 0.55135 0.07093 0.29751 0.0
C499 C 0.48535 0.97882 0.22591 0.0
C500 C 0.5958 0.9847 0.20546 0.0
C501 C 0.54698 0.91062 0.29702 0.0
O502 O 0.48771 0.02562 0.3774 0.0
O503 O 0.52003 0.98592 0.37393 0.0
O504 O 0.83578 0.45844 0.14426 0.0
Mg505 Mg 0.79189 0.44092 0.10525 0.0
O506 O 0.85275 0.48755 0.08717 0.0
Mg507 Mg 0.7991 0.4868 0.05033 0.0
O508 O 0.80585 0.43533 0.03839 0.0
O509 O 0.79601 0.39773 0.08708 0.0
O510 O 0.74446 0.4859 0.01421 0.0
O511 O 0.82609 0.48064 0.97777 0.0
Mg512 Mg 0.80548 0.52952 -0.00515 0.0
O513 O 0.79614 0.53951 0.06166 0.0
O514 O 0.76262 0.51237 0.95518 0.0
O515 O 0.85808 0.52019 0.97663 0.0
O516 O 0.79908 0.57317 0.00459 0.0
C517 C 0.74704 0.47605 0.14196 0.0
C518 C 0.85829 0.47603 0.12658 0.0
C519 C 0.80585 0.40709 0.0472 0.0
C520 C 0.73926 0.49637 0.97404 0.0
C521 C 0.85057 0.49553 0.95897 0.0
C522 C 0.79541 0.56699 0.04761 0.0
O523 O 0.74003 0.45097 0.12535 0.0
O524 O 0.77141 0.49124 0.12309 0.0
O525 O 0.37107 0.77817 0.14598 0.0
Mg526 Mg 0.41641 0.79624 0.1101 0.0
O527 O 0.35455 0.74789 0.08961 0.0
Mg528 Mg 0.40738 0.74689 0.05092 0.0
O529 O 0.40307 0.79828 0.04264 0.0
O530 O 0.41454 0.83849 0.08457 0.0
O531 O 0.46143 0.74581 0.0131 0.0
O532 O 0.38046 0.75419 0.97892 0.0
Mg533 Mg 0.39746 0.70426 -0.00554 0.0
O534 O 0.40814 0.69377 0.06074 0.0
O535 O 0.44113 0.7199 0.95451 0.0
O536 O 0.34491 0.71708 0.98042 0.0
O537 O 0.40103 0.66041 0.0038 0.0
C538 C 0.45971 0.75634 0.14304 0.0
C539 C 0.34885 0.76012 0.12854 0.0
C540 C 0.4037 0.82697 0.04651 0.0
C541 C 0.46564 0.7349 0.97296 0.0
C542 C 0.3549 0.74043 0.96071 0.0
C543 C 0.40678 0.6663 0.04654 0.0
O544 O 0.46708 0.78196 0.1288 0.0
O545 O 0.43538 0.74192 0.12269 0.0
O546 O 0.83471 0.7746 0.07671 0.0
Mg547 Mg 0.79024 0.79292 0.11393 0.0
O548 O 0.8513 0.74462 0.13325 0.0
Mg549 Mg 0.79861 0.74453 0.17226 0.0
O550 O 0.80425 0.79587 0.18117 0.0
O551 O 0.79336 0.83546 0.13738 0.0
O552 O 0.74466 0.7444 0.21003 0.0
O553 O 0.82654 0.75147 0.24405 0.0
Mg554 Mg 0.8072 0.70197 0.22829 0.0
O555 O 0.7965 0.69168 0.16204 0.0
O556 O 0.7642 0.71825 0.2687 0.0
O557 O 0.86005 0.71294 0.24322 0.0
O558 O 0.80212 0.65814 0.21894 0.0
C559 C 0.74582 0.75453 0.08074 0.0
C560 C 0.85686 0.75651 0.09404 0.0
C561 C 0.804 0.82446 0.17589 0.0
C562 C 0.74009 0.73361 0.25015 0.0
C563 C 0.85199 0.7372 0.2617 0.0
C564 C 0.79693 0.6642 0.17615 0.0
O565 O 0.73891 0.78013 0.09539 0.0
O566 O 0.77008 0.73983 0.10068 0.0
O567 O 0.36969 0.45985 0.07461 0.0
Mg568 Mg 0.41321 0.4428 0.11464 0.0
O569 O 0.35145 0.48809 0.13199 0.0
Mg570 Mg 0.40477 0.48758 0.16934 0.0
O571 O 0.39813 0.43578 0.18072 0.0
O572 O 0.40924 0.39927 0.13044 0.0
O573 O 0.45913 0.48681 0.20604 0.0
O574 O 0.37743 0.48073 0.24144 0.0
Mg575 Mg 0.39765 0.52991 0.22531 0.0
O576 O 0.40736 0.54052 0.15877 0.0
O577 O 0.44044 0.51286 0.26521 0.0
O578 O 0.34503 0.51998 0.2429 0.0
O579 O 0.40361 0.57372 0.2164 0.0
C580 C 0.45768 0.47808 0.07857 0.0
C581 C 0.34658 0.47686 0.09224 0.0
C582 C 0.39853 0.40773 0.1704 0.0
C583 C 0.46401 0.49708 0.2464 0.0
C584 C 0.35266 0.49525 0.2602 0.0
C585 C 0.40769 0.56792 0.17332 0.0
O586 O 0.46526 0.45328 0.09572 0.0
O587 O 0.43278 0.49286 0.09695 0.0
O588 O 0.11855 0.51887 0.82529 0.0
Mg589 Mg 0.16273 0.53699 0.86316 0.0
O590 O 0.10105 0.48995 0.88259 0.0
Mg591 Mg 0.1543 0.49029 0.92019 0.0
O592 O 0.14827 0.5417 0.92982 0.0
O593 O 0.15927 0.58007 0.88327 0.0
O594 O 0.20872 0.49105 0.95676 0.0
O595 O 0.12793 0.49709 -0.00745 0.0
Mg596 Mg 0.14758 0.44677 0.97918 0.0
O597 O 0.15615 0.43753 0.91172 0.0
O598 O 0.19135 0.4645 0.01633 0.0
O599 O 0.09549 0.45799 -0.00247 0.0
O600 O 0.15303 0.4032 0.96786 0.0
C601 C 0.20704 0.49979 0.82907 0.0
C602 C 0.09587 0.5014 0.843 0.0
C603 C 0.14869 0.57008 0.92247 0.0
C604 C 0.21431 0.48066 -0.00308 0.0
C605 C 0.10412 0.48282 0.0137 0.0
C606 C 0.15649 0.40986 0.92496 0.0
O607 O 0.21443 0.52489 0.84533 0.0
O608 O 0.18211 0.48514 0.84772 0.0
O609 O 0.58595 0.2026 0.82457 0.0
Mg610 Mg 0.54178 0.18496 0.86299 0.0
O611 O 0.6029 0.23245 0.88095 0.0
Mg612 Mg 0.54964 0.23223 0.91886 0.0
O613 O 0.55607 0.1809 0.92999 0.0
O614 O 0.54544 0.14212 0.88409 0.0
O615 O 0.49529 0.23177 0.95572 0.0
O616 O 0.57699 0.22605 -0.00865 0.0
Mg617 Mg 0.55698 0.27473 0.9739 0.0
O618 O 0.54679 0.28508 0.90751 0.0
O619 O 0.5143 0.25804 0.0145 0.0
O620 O 0.60991 0.265 -0.00975 0.0
O621 O 0.55098 0.31843 0.96491 0.0
C622 C 0.49716 0.22145 0.82737 0.0
C623 C 0.60838 0.22048 0.8418 0.0
C624 C 0.55591 0.15244 0.92314 0.0
C625 C 0.4905 0.24235 -0.00409 0.0
C626 C 0.60183 0.24092 0.00936 0.0
C627 C 0.54651 0.3125 0.92194 0.0
O628 O 0.49016 0.1962 0.84337 0.0
O629 O 0.52157 0.23646 0.8465 0.0
O630 O 0.11781 0.20452 0.89206 0.0
Mg631 Mg 0.16226 0.18672 0.85435 0.0
O632 O 0.10053 0.23371 0.835 0.0
Mg633 Mg 0.15385 0.23382 0.79743 0.0
O634 O 0.14823 0.18242 0.78744 0.0
O635 O 0.15921 0.14377 0.83337 0.0
O636 O 0.20831 0.23372 0.76074 0.0
O637 O 0.12758 0.22706 0.72502 0.0
Mg638 Mg 0.14644 0.27733 0.73924 0.0
O639 O 0.15547 0.28659 0.80656 0.0
O640 O 0.19033 0.26031 0.70155 0.0
O641 O 0.09433 0.26565 0.72135 0.0
O642 O 0.15138 0.32094 0.75054 0.0
C643 C 0.20638 0.22417 0.88879 0.0
C644 C 0.09519 0.22205 0.87441 0.0
C645 C 0.14876 0.15397 0.79425 0.0
C646 C 0.21364 0.24439 0.72068 0.0
C647 C 0.10342 0.24117 0.70438 0.0
C648 C 0.15544 0.31428 0.79335 0.0
O649 O 0.21379 0.19907 0.87258 0.0
O650 O 0.18155 0.23882 0.86997 0.0
O651 O 0.58466 0.51964 0.89478 0.0
Mg652 Mg 0.54091 0.5373 0.85559 0.0
O653 O 0.60247 0.49052 0.838 0.0
Mg654 Mg 0.54957 0.49084 0.79956 0.0
O655 O 0.55613 0.54229 0.78919 0.0
O656 O 0.54469 0.58041 0.83611 0.0
O657 O 0.49556 0.49144 0.76206 0.0
O658 O 0.57735 0.4977 0.72781 0.0
Mg659 Mg 0.55741 0.44856 0.74346 0.0
O660 O 0.54683 0.43798 0.80971 0.0
O661 O 0.51485 0.46558 0.70299 0.0
O662 O 0.61037 0.45886 0.72794 0.0
O663 O 0.55153 0.40478 0.75215 0.0
C664 C 0.49623 0.50076 0.88988 0.0
C665 C 0.60746 0.50214 0.8775 0.0
C666 C 0.55575 0.57064 0.79702 0.0
C667 C 0.49099 0.48115 0.72164 0.0
C668 C 0.60244 0.48324 0.70971 0.0
C669 C 0.54675 0.41059 0.79511 0.0
O670 O 0.48892 0.52573 0.87312 0.0
O671 O 0.52113 0.48598 0.87152 0.0
C672 C 0.34652 0.83515 0.00787 0.0
C673 C 0.38069 0.84562 0.01739 0.0
H674 H 0.29151 0.8458 0.00918 0.0
C675 C 0.38677 0.87636 0.01603 0.0
H676 H 0.34097 0.81158 0.00819 0.0
C677 C 0.35829 0.89609 0.01514 0.0
C678 C 0.32362 0.88511 0.01702 0.0
H679 H 0.41292 0.88506 0.02272 0.0
H680 H 0.36354 0.91936 0.02138 0.0
C681 C 0.31799 0.85483 0.00833 0.0
C682 C 0.81686 0.3571 0.01513 0.0
C683 C 0.82749 0.38676 0.01951 0.0
H684 H 0.8332 0.31179 0.01671 0.0
C685 C 0.86338 0.39381 0.01443 0.0
H686 H 0.78933 0.35115 0.01906 0.0
C687 C 0.88865 0.37124 0.0151 0.0
C688 C 0.87804 0.34153 0.01887 0.0
H689 H 0.87228 0.41654 0.01785 0.0
H690 H 0.91618 0.37716 0.01904 0.0
C691 C 0.84212 0.33454 0.01377 0.0
C692 C 0.3406 0.393 0.20065 0.0
C693 C 0.37671 0.38658 0.19642 0.0
H694 H 0.28818 0.37553 0.19502 0.0
C695 C 0.38787 0.35704 0.20028 0.0
H696 H 0.33129 0.41562 0.1974 0.0
C697 C 0.36305 0.33407 0.20093 0.0
C698 C 0.32701 0.3405 0.19571 0.0
H699 H 0.41555 0.35155 0.19679 0.0
H700 H 0.37242 0.31146 0.19791 0.0
C701 C 0.3158 0.37004 0.19928 0.0
C702 C 0.81911 0.87374 0.20817 0.0
C703 C 0.82701 0.84344 0.20436 0.0
H704 H 0.83947 0.91788 0.20528 0.0
C705 C 0.86211 0.83426 0.21059 0.0
H706 H 0.79224 0.88138 0.20372 0.0
C707 C 0.88936 0.85521 0.20976 0.0
C708 C 0.88155 0.88543 0.20436 0.0
H709 H 0.86901 0.81102 0.208 0.0
H710 H 0.9163 0.84749 0.20648 0.0
C711 C 0.84634 0.8947 0.2091 0.0
C712 C 0.59639 0.08136 0.95604 0.0
C713 C 0.63186 0.08999 0.95153 0.0
H714 H 0.54267 0.09561 0.95037 0.0
C715 C 0.64049 0.12009 0.95657 0.0
H716 H 0.58894 0.05828 0.95235 0.0
C717 C 0.61382 0.14149 0.95728 0.0
C718 C 0.57847 0.13292 0.95117 0.0
H719 H 0.66764 0.1273 0.9533 0.0
H720 H 0.62134 0.16461 0.95461 0.0
C721 C 0.56974 0.10277 0.95488 0.0
C722 C 0.11055 0.64184 0.95687 0.0
C723 C 0.0748 0.6343 0.95151 0.0
H724 H 0.16373 0.62618 0.95149 0.0
C725 C 0.0649 0.60439 0.95482 0.0
H726 H 0.11893 0.66476 0.95435 0.0
C727 C 0.0907 0.58225 0.95516 0.0
C728 C 0.12644 0.58992 0.95026 0.0
H729 H 0.03751 0.59804 0.95073 0.0
H730 H 0.08232 0.5594 0.95138 0.0
C731 C 0.13634 0.61972 0.9552 0.0
C732 C 0.59548 0.64244 0.76593 0.0
C733 C 0.63101 0.63444 0.77192 0.0
H734 H 0.54198 0.62725 0.76933 0.0
C735 C 0.64046 0.60449 0.76775 0.0
H736 H 0.58744 0.6654 0.76905 0.0
C737 C 0.61431 0.58262 0.76593 0.0
C738 C 0.57863 0.59059 0.77023 0.0
H739 H 0.66767 0.59778 0.77228 0.0
H740 H 0.62227 0.55965 0.76911 0.0
C741 C 0.5693 0.62056 0.76608 0.0
C742 C 0.09105 0.14219 0.76031 0.0
C743 C 0.12661 0.13423 0.76605 0.0
H744 H 0.0376 0.12702 0.76472 0.0
C745 C 0.13605 0.10428 0.76189 0.0
H746 H 0.08302 0.16516 0.7633 0.0
C747 C 0.10991 0.08239 0.76071 0.0
C748 C 0.07428 0.09037 0.76573 0.0
H749 H 0.1633 0.09759 0.7661 0.0
H750 H 0.11793 0.05944 0.76409 0.0
C751 C 0.06489 0.12031 0.76106 0.0
C752 C 0.34246 0.33202 0.51573 0.0
C753 C 0.37839 0.33913 0.52048 0.0
H754 H 0.28961 0.34848 0.521 0.0
C755 C 0.38884 0.36886 0.51653 0.0
H756 H 0.33367 0.30925 0.51887 0.0
C757 C 0.36348 0.39135 0.51571 0.0
C758 C 0.32759 0.38423 0.52086 0.0
H759 H 0.41637 0.37488 0.52025 0.0
H760 H 0.37229 0.41412 0.51884 0.0
C761 C 0.3171 0.35451 0.51695 0.0
C762 C 0.8606 0.89151 0.51109 0.0
C763 C 0.82545 0.88229 0.51696 0.0
H764 H 0.91475 0.87842 0.51608 0.0
C765 C 0.81759 0.85196 0.51327 0.0
H766 H 0.86747 0.91478 0.51356 0.0
C767 C 0.84484 0.83105 0.51296 0.0
C768 C 0.88 0.84042 0.51806 0.0
H769 H 0.7907 0.84428 0.51743 0.0
H770 H 0.83798 0.80787 0.51687 0.0
C771 C 0.88785 0.87063 0.51253 0.0
C772 C 0.3443 0.89219 0.71121 0.0
C773 C 0.37978 0.88408 0.70504 0.0
H774 H 0.29074 0.87724 0.7074 0.0
C775 C 0.38907 0.85409 0.70919 0.0
H776 H 0.33638 0.91519 0.70827 0.0
C777 C 0.36281 0.83231 0.71067 0.0
C778 C 0.3272 0.84044 0.70604 0.0
H779 H 0.41625 0.84729 0.70467 0.0
H780 H 0.37067 0.80933 0.70725 0.0
C781 C 0.31801 0.87042 0.71075 0.0
C782 C 0.86227 0.33245 0.70354 0.0
C783 C 0.82636 0.33947 0.69856 0.0
H784 H 0.91511 0.34904 0.69849 0.0
C785 C 0.81584 0.36917 0.70245 0.0
H786 H 0.8711 0.3097 0.70047 0.0
C787 C 0.84117 0.39173 0.70333 0.0
C788 C 0.87707 0.3847 0.69833 0.0
H789 H 0.78832 0.37511 0.69856 0.0
H790 H 0.83233 0.41447 0.70011 0.0
C791 C 0.8876 0.35501 0.7024 0.0
C792 C 0.59087 0.58278 0.45582 0.0
C793 C 0.62653 0.59056 0.45035 0.0
H794 H 0.53755 0.59821 0.45129 0.0
C795 C 0.63622 0.62048 0.45418 0.0
H796 H 0.58265 0.55984 0.45293 0.0
C797 C 0.61027 0.6425 0.45524 0.0
C798 C 0.57456 0.63469 0.45043 0.0
H799 H 0.66355 0.62702 0.45005 0.0
H800 H 0.61848 0.66541 0.45183 0.0
C801 C 0.56491 0.60479 0.45494 0.0
C802 C 0.13855 0.12323 0.45974 0.0
C803 C 0.13048 0.09303 0.45452 0.0
H804 H 0.11873 0.16752 0.45666 0.0
C805 C 0.09512 0.08399 0.45856 0.0
H806 H 0.16561 0.13076 0.45701 0.0
C807 C 0.06814 0.1051 0.45654 0.0
C808 C 0.07645 0.13532 0.45237 0.0
H809 H 0.08807 0.06082 0.45492 0.0
H810 H 0.04127 0.09758 0.4515 0.0
C811 C 0.11152 0.14434 0.45947 0.0
C812 C 0.63531 0.10412 0.26317 0.0
C813 C 0.62627 0.13413 0.26778 0.0
H814 H 0.61679 0.0594 0.2657 0.0
C815 C 0.59065 0.14234 0.26362 0.0
H816 H 0.66258 0.09725 0.26625 0.0
C817 C 0.5643 0.12063 0.26528 0.0
C818 C 0.57349 0.0906 0.26913 0.0
H819 H 0.58291 0.16535 0.26707 0.0
H820 H 0.53717 0.1275 0.26998 0.0
C821 C 0.60893 0.08241 0.26286 0.0
C822 C 0.09591 0.64444 0.26571 0.0
C823 C 0.13157 0.63662 0.27099 0.0
H824 H 0.04253 0.62909 0.27051 0.0
C825 C 0.1411 0.60666 0.26723 0.0
H826 H 0.0878 0.66739 0.26861 0.0
C827 C 0.11503 0.58469 0.26634 0.0
C828 C 0.07936 0.59255 0.27112 0.0
H829 H 0.1684 0.60008 0.27129 0.0
H830 H 0.12312 0.56176 0.26972 0.0
C831 C 0.06985 0.62248 0.26681 0.0
C832 C 0.20912 0.96286 0.21677 0.0
C833 C 0.23158 0.98082 0.19022 0.0
H834 H 0.18526 0.95523 0.28222 0.0
C835 C 0.24758 0.00557 0.21088 0.0
H836 H 0.1966 0.94346 0.20207 0.0
C837 C 0.24152 0.01203 0.25715 0.0
C838 C 0.21918 -0.00603 0.28374 0.0
H839 H 0.26543 0.01963 0.19165 0.0
H840 H 0.25404 0.0314 0.2719 0.0
C841 C 0.20307 0.96931 0.263 0.0
C842 C -0.00067 0.2558 0.25694 0.0
C843 C -0.01577 0.23157 0.28006 0.0
H844 H 0.00344 0.28011 0.19408 0.0
C845 C 0.96102 0.21284 0.25594 0.0
H846 H 0.01768 0.27043 0.27427 0.0
C847 C 0.95325 0.21812 0.20973 0.0
C848 C 0.96842 0.24231 0.18659 0.0
H849 H 0.94917 0.19381 0.27258 0.0
H850 H 0.93492 0.20349 0.1924 0.0
C851 C -0.00842 0.26107 0.21072 0.0
C852 C 0.20347 0.25577 0.95942 0.0
C853 C 0.21841 0.23172 0.93573 0.0
H854 H 0.19986 0.27965 0.02275 0.0
C855 C 0.24167 0.2128 0.95931 0.0
H856 H 0.18508 0.27054 0.94251 0.0
C857 C 0.2497 0.21772 0.00554 0.0
C858 C 0.2348 0.24178 0.02922 0.0
H859 H 0.25339 0.19387 0.94225 0.0
H860 H 0.26807 0.20293 0.02245 0.0
C861 C 0.21154 0.26072 0.00566 0.0
C862 C -0.00495 0.96352 0.00685 0.0
C863 C 0.9719 0.982 0.03143 0.0
H864 H 0.02015 0.95419 0.94265 0.0
C865 C 0.95583 0.00582 0.00846 0.0
H866 H 0.00764 0.94479 0.02337 0.0
C867 C 0.96257 0.01091 0.96192 0.0
C868 C -0.01432 -0.00761 0.93733 0.0
H869 H 0.93748 0.02024 0.02614 0.0
H870 H 0.94998 0.02963 0.94539 0.0
C871 C 0.0018 0.96861 0.96033 0.0
C872 C 0.74525 0.01021 0.75636 0.0
C873 C 0.72215 -0.00815 0.78133 0.0
H874 H 0.77027 0.01909 0.69192 0.0
C875 C 0.70609 0.96782 0.75883 0.0
H876 H 0.75781 0.02911 0.7725 0.0
C877 C 0.7128 0.96237 0.71239 0.0
C878 C 0.73588 0.98074 0.68741 0.0
H879 H 0.68777 0.9535 0.7768 0.0
H880 H 0.70022 0.94349 0.69626 0.0
C881 C 0.75197 0.00476 0.70992 0.0
C882 C 0.00232 0.75698 0.75924 0.0
C883 C -0.01385 0.73338 0.78266 0.0
H884 H 0.00787 0.78054 0.69592 0.0
C885 C 0.96271 0.71486 0.75854 0.0
H886 H 0.02091 0.7714 0.77656 0.0
C887 C 0.95563 0.71981 0.71204 0.0
C888 C 0.97171 0.74349 0.68866 0.0
H889 H 0.9501 0.69626 0.77541 0.0
H890 H 0.93702 0.70541 0.69473 0.0
C891 C -0.00475 0.76193 0.71276 0.0
C892 C 0.74299 0.71632 0.96522 0.0
C893 C 0.71986 0.73464 0.94033 0.0
H894 H 0.76844 0.70766 0.02935 0.0
C895 C 0.70413 0.75884 0.96273 0.0
H896 H 0.75531 0.6973 0.94917 0.0
C897 C 0.7113 0.76454 0.00901 0.0
C898 C 0.73443 0.7462 0.03387 0.0
H899 H 0.6858 0.77314 0.94478 0.0
H900 H 0.69905 0.78357 0.0251 0.0
C901 C 0.7501 0.72197 0.01147 0.0
C902 C 0.20412 0.46833 0.75829 0.0
C903 C 0.21922 0.49224 0.78219 0.0
H904 H 0.2004 0.44465 0.69481 0.0
C905 C 0.2428 0.51106 0.75885 0.0
H906 H 0.1855 0.45365 0.775 0.0
C907 C 0.25093 0.50618 0.71264 0.0
C908 C 0.23579 0.48229 0.68872 0.0
H909 H 0.25466 0.52986 0.77609 0.0
H910 H 0.26953 0.52087 0.69592 0.0
C911 C 0.21226 0.46345 0.71207 0.0
C912 C 0.20614 0.75802 0.46451 0.0
C913 C 0.22189 0.73431 0.44089 0.0
H914 H 0.2008 0.7813 0.52812 0.0
C915 C 0.24488 0.71539 0.46493 0.0
H916 H 0.18792 0.77277 0.44724 0.0
C917 C 0.25185 0.72 0.51154 0.0
C918 C 0.2361 0.74372 0.53515 0.0
H919 H 0.25718 0.69672 0.44792 0.0
H920 H 0.27008 0.70527 0.52879 0.0
C921 C 0.2131 0.76263 0.51111 0.0
C922 C -0.00106 0.47044 0.46086 0.0
C923 C -0.01552 0.49506 0.43809 0.0
H924 H 0.0025 0.44573 0.52336 0.0
C925 C 0.96184 0.51408 0.4625 0.0
H926 H 0.01683 0.45556 0.4433 0.0
C927 C 0.95399 0.50867 0.50867 0.0
C928 C 0.96852 0.48408 0.53146 0.0
H929 H 0.95052 0.53342 0.44614 0.0
H930 H 0.9361 0.52353 0.52626 0.0
C931 C -0.00887 0.46506 0.50703 0.0
C932 C 0.75002 0.50713 0.21306 0.0
C933 C 0.73506 0.4832 0.18905 0.0
H934 H 0.75385 0.53058 0.2767 0.0
C935 C 0.71189 0.46405 0.21243 0.0
H936 H 0.76835 0.52206 0.19631 0.0
C937 C 0.70395 0.46868 0.25876 0.0
C938 C 0.7189 0.49262 0.28275 0.0
H939 H 0.70019 0.44521 0.1951 0.0
H940 H 0.68562 0.45376 0.27552 0.0
C941 C 0.74212 0.51173 0.25939 0.0
C942 C 0.70395 0.25541 0.45995 0.0
C943 C 0.71931 0.23163 0.43605 0.0
H944 H 0.69974 0.27891 0.52354 0.0
C945 C 0.74281 0.21286 0.45952 0.0
H946 H 0.68538 0.27005 0.44313 0.0
C947 C 0.75063 0.21764 0.50587 0.0
C948 C 0.73525 0.2414 0.52978 0.0
H949 H 0.75486 0.19415 0.44229 0.0
H950 H 0.76919 0.20298 0.52269 0.0
C951 C 0.71178 0.2602 0.50629 0.0
C952 C 0.46162 0.21037 0.75682 0.0
C953 C 0.48517 0.22906 0.78043 0.0
H954 H 0.43501 0.20087 0.69364 0.0
C955 C 0.50047 0.25299 0.75677 0.0
H956 H 0.44963 0.19155 0.77389 0.0
C957 C 0.49255 0.258 0.71053 0.0
C958 C 0.46899 0.23933 0.68691 0.0
H959 H 0.51908 0.26758 0.77369 0.0
H960 H 0.50459 0.27681 0.6935 0.0
C961 C 0.45364 0.21543 0.71058 0.0
C962 C 0.49223 0.96424 0.51049 0.0
C963 C 0.46855 0.9827 0.53428 0.0
H964 H 0.51846 0.95479 0.44707 0.0
C965 C 0.45276 0.00639 0.51069 0.0
H966 H 0.50463 0.94561 0.52749 0.0
C967 C 0.46034 0.0114 0.46432 0.0
C968 C 0.48397 -0.00711 0.44052 0.0
H969 H 0.43405 0.02079 0.52775 0.0
H970 H 0.44796 0.03003 0.44729 0.0
C971 C 0.49977 0.96922 0.46414 0.0
C972 C 0.49398 0.76574 0.21515 0.0
C973 C 0.47074 0.74768 0.1899 0.0
H974 H 0.51947 0.77376 0.27952 0.0
C975 C 0.45475 0.72342 0.21189 0.0
H976 H 0.5065 0.78479 0.19939 0.0
C977 C 0.46171 0.71742 0.25809 0.0
C978 C 0.48499 0.73544 0.28333 0.0
H979 H 0.43632 0.70931 0.1937 0.0
H980 H 0.44919 0.69836 0.27382 0.0
C981 C 0.50098 0.75971 0.26135 0.0
C982 C 0.49213 0.46564 0.00778 0.0
C983 C 0.46934 0.485 0.03127 0.0
H984 H 0.51762 0.45484 0.94438 0.0
C985 C 0.45425 0.50881 0.00716 0.0
H986 H 0.50389 0.44686 0.02517 0.0
C987 C 0.46168 0.5131 0.96062 0.0
C988 C 0.4845 0.49376 0.93713 0.0
H989 H 0.43621 0.52391 0.02401 0.0
H990 H 0.44991 0.53187 0.94323 0.0
C991 C 0.49956 0.46992 0.96122 0.0
C992 C 0.38015 0.00116 0.8929 0.0
C993 C 0.35968 0.97976 0.91559 0.0
H994 H 0.39313 0.0216 0.82914 0.0
C995 C 0.34095 0.95873 0.88918 0.0
H996 H 0.39514 0.01753 0.91191 0.0
C997 C 0.34034 0.96087 0.84106 0.0
C998 C 0.35793 0.9843 0.81936 0.0
H999 H 0.32507 0.94185 0.90572 0.0
H1000 H 0.32499 0.94519 0.82115 0.0
C1001 C 0.37872 0.00372 0.84544 0.0
C1002 C 0.845 0.26069 0.88105 0.0
C1003 C 0.85271 0.23482 0.90579 0.0
H1004 H 0.83869 0.28003 0.81397 0.0
C1005 C 0.86473 0.20965 0.88229 0.0
H1006 H 0.83685 0.28063 0.89883 0.0
C1007 C 0.86761 0.20971 0.83481 0.0
C1008 C 0.85747 0.2347 0.80931 0.0
H1009 H 0.87218 0.18975 0.90078 0.0
H1010 H 0.87592 0.18944 0.81808 0.0
C1011 C 0.84673 0.26047 0.83284 0.0
C1012 C 0.37397 0.21266 0.33274 0.0
C1013 C 0.35822 0.23595 0.30827 0.0
H1014 H 0.38307 0.1928 0.39805 0.0
C1015 C 0.34321 0.25975 0.3329 0.0
H1016 H 0.38596 0.19406 0.31515 0.0
C1017 C 0.342 0.25912 0.38111 0.0
C1018 C 0.35494 0.23436 0.40474 0.0
H1019 H 0.33097 0.27807 0.31492 0.0
H1020 H 0.32992 0.27727 0.39968 0.0
C1021 C 0.37183 0.21167 0.38029 0.0
C1022 C 0.86149 0.96066 0.3328 0.0
C1023 C 0.84669 0.98479 0.30876 0.0
H1024 H 0.87428 0.94226 0.3992 0.0
C1025 C 0.83081 0.00779 0.33373 0.0
H1026 H 0.87381 0.94255 0.31438 0.0
C1027 C 0.83266 0.00817 0.3813 0.0
C1028 C 0.84931 0.98514 0.40524 0.0
H1029 H 0.819 0.02665 0.3166 0.0
H1030 H 0.8214 0.02688 0.39947 0.0
C1031 C 0.86236 0.96066 0.38103 0.0
C1032 C 0.5748 0.96992 0.08213 0.0
C1033 C 0.59616 -0.00952 0.05901 0.0
H1034 H 0.55979 0.95139 0.14657 0.0
C1035 C 0.61473 0.01188 0.08487 0.0
H1036 H 0.55993 0.95329 0.06349 0.0
C1037 C 0.61419 0.01097 0.1331 0.0
C1038 C 0.5955 -0.01157 0.1555 0.0
H1039 H 0.63134 0.02811 0.06798 0.0
H1040 H 0.62949 0.02686 0.15264 0.0
C1041 C 0.57494 0.96863 0.12978 0.0
C1042 C 0.11363 0.71506 0.08982 0.0
C1043 C 0.09851 0.73887 0.06609 0.0
H1044 H 0.12725 0.69742 0.15602 0.0
C1045 C 0.08048 0.76094 0.09051 0.0
H1046 H 0.12673 0.6974 0.07128 0.0
C1047 C 0.07938 0.76041 0.13814 0.0
C1048 C 0.0973 0.73825 0.16259 0.0
H1049 H 0.06776 0.7791 0.07266 0.0
H1050 H 0.06652 0.7786 0.15571 0.0
C1051 C 0.11336 0.7149 0.13805 0.0
C1052 C 0.59226 0.71245 0.63361 0.0
C1053 C 0.60804 0.73615 0.65692 0.0
H1054 H 0.57857 0.69444 0.56765 0.0
C1055 C 0.62724 0.75739 0.63223 0.0
H1056 H 0.57821 0.69541 0.65239 0.0
C1057 C 0.62895 0.75621 0.58468 0.0
C1058 C 0.61029 0.73433 0.56051 0.0
H1059 H 0.64033 0.77552 0.64973 0.0
H1060 H 0.64274 0.77383 0.56688 0.0
C1061 C 0.59304 0.7117 0.58539 0.0
C1062 C 0.10408 0.961 0.63165 0.0
C1063 C 0.10484 0.98719 0.65759 0.0
H1064 H 0.10065 0.94127 0.56562 0.0
C1065 C 0.10278 0.01467 0.63494 0.0
H1066 H 0.10467 0.93944 0.64804 0.0
C1067 C 0.10085 0.01574 0.58677 0.0
C1068 C 0.09924 -0.01067 0.56125 0.0
H1069 H 0.10258 0.03512 0.65444 0.0
H1070 H 0.10054 0.03702 0.56951 0.0
C1071 C 0.10078 0.96205 0.5843 0.0
C1072 C 0.33152 0.51375 0.38215 0.0
C1073 C 0.3485 0.49079 0.4059 0.0
H1074 H 0.31736 0.53216 0.31752 0.0
C1075 C 0.36146 0.46634 0.38154 0.0
H1076 H 0.32019 0.53235 0.4005 0.0
C1077 C 0.36022 0.46631 0.33333 0.0
C1078 C 0.3452 0.49041 0.30942 0.0
H1079 H 0.37358 0.44798 0.39956 0.0
H1080 H 0.37249 0.44822 0.31483 0.0
C1081 C 0.32938 0.51336 0.33457 0.0
C1082 C 0.84407 0.76408 0.38437 0.0
C1083 C 0.85647 0.73897 0.4076 0.0
H1084 H 0.83329 0.78357 0.31845 0.0
C1085 C 0.87268 0.71611 0.38276 0.0
H1086 H 0.83256 0.78236 0.40325 0.0
C1087 C 0.87473 0.71734 0.33523 0.0
C1088 C 0.8595 0.74104 0.31114 0.0
H1089 H 0.88354 0.69695 0.40019 0.0
H1090 H 0.88621 0.69862 0.31737 0.0
C1091 C 0.84512 0.76494 0.33615 0.0
C1092 C 0.34895 0.7646 0.83627 0.0
C1093 C 0.3588 0.73813 0.81397 0.0
H1094 H 0.33996 0.7863 0.90129 0.0
C1095 C 0.36819 0.71344 0.8406 0.0
H1096 H 0.34149 0.78394 0.81648 0.0
C1097 C 0.36545 0.71439 0.88805 0.0
C1098 C 0.35433 0.7403 0.91037 0.0
H1099 H 0.37578 0.69265 0.82482 0.0
H1100 H 0.37231 0.69471 0.90745 0.0
C1101 C 0.34738 0.76583 0.88444 0.0
C1102 C 0.84291 0.46621 0.8376 0.0
C1103 C 0.85417 0.4912 0.81306 0.0
H1104 H 0.83329 0.44769 0.90448 0.0
C1105 C 0.86947 0.51505 0.83669 0.0
H1106 H 0.83213 0.4472 0.8197 0.0
C1107 C 0.87174 0.51485 0.88425 0.0
C1108 C 0.85772 0.49113 0.90957 0.0
H1109 H 0.87957 0.53414 0.81826 0.0
H1110 H 0.88251 0.53424 0.90115 0.0
C1111 C 0.8442 0.46634 0.88582 0.0
C1112 C 0.59486 0.51122 0.6357 0.0
C1113 C 0.60925 0.48708 0.66013 0.0
H1114 H 0.58148 0.52902 0.56914 0.0
C1115 C 0.62353 0.46321 0.63546 0.0
H1116 H 0.58374 0.52998 0.65385 0.0
C1117 C 0.62056 0.46213 0.58799 0.0
C1118 C 0.60434 0.48527 0.5638 0.0
H1119 H 0.635 0.44431 0.65288 0.0
H1120 H 0.63085 0.44292 0.57009 0.0
C1121 C 0.59289 0.5105 0.58756 0.0
C1122 C 0.11959 0.26286 0.63005 0.0
C1123 C 0.10409 0.2393 0.65414 0.0
H1124 H 0.13338 0.28118 0.56527 0.0
C1125 C 0.09322 0.21394 0.63019 0.0
H1126 H 0.12945 0.2822 0.64805 0.0
C1127 C 0.09506 0.21342 0.58201 0.0
C1128 C 0.1088 0.23791 0.55773 0.0
H1129 H 0.08236 0.19512 0.6485 0.0
H1130 H 0.08442 0.1945 0.56373 0.0
C1131 C 0.12246 0.26199 0.58256 0.0
C1132 C 0.59709 0.21262 0.0836 0.0
C1133 C 0.60781 0.23811 0.05929 0.0
H1134 H 0.58705 0.19331 0.15017 0.0
C1135 C 0.61775 0.26348 0.08404 0.0
H1136 H 0.58919 0.19277 0.06533 0.0
C1137 C 0.61467 0.26418 0.1315 0.0
C1138 C 0.60266 0.23928 0.15575 0.0
H1139 H 0.62607 0.28355 0.06672 0.0
H1140 H 0.62201 0.28434 0.14939 0.0
C1141 C 0.59516 0.21305 0.1318 0.0
C1142 C 0.09297 0.51074 0.08704 0.0
C1143 C 0.10473 0.48538 0.06388 0.0
H1144 H 0.08323 0.53071 0.15287 0.0
C1145 C 0.12086 0.46248 0.08872 0.0
H1146 H 0.08159 0.52907 0.06814 0.0
C1147 C 0.12345 0.46394 0.13621 0.0
C1148 C 0.10889 0.48795 0.16028 0.0
H1149 H 0.13138 0.44318 0.07131 0.0
H1150 H 0.13489 0.44521 0.15411 0.0
C1151 C 0.09457 0.51185 0.13522 0.0
C1152 C 0.29431 0.13911 0.09096 0.0
C1153 C 0.2935 0.13427 0.13858 0.0
H1154 H 0.29634 0.11964 0.0241 0.0
C1155 C 0.2919 0.10496 0.15514 0.0
H1156 H 0.29547 0.16138 0.07712 0.0
C1157 C 0.29244 0.08098 0.1248 0.0
C1158 C 0.29464 0.0858 0.07727 0.0
H1159 H 0.29103 0.10042 0.19169 0.0
H1160 H 0.29209 0.05872 0.13869 0.0
C1161 C 0.29492 0.11512 0.06063 0.0
C1162 C 0.91071 0.08313 0.09305 0.0
C1163 C 0.9097 0.08868 0.14046 0.0
H1164 H 0.91029 0.10153 0.02544 0.0
C1165 C 0.90959 0.11825 0.15602 0.0
H1166 H 0.91091 0.06065 0.07999 0.0
C1167 C 0.9092 0.14175 0.12479 0.0
C1168 C 0.90886 0.13616 0.07737 0.0
H1169 H 0.90905 0.12333 0.19241 0.0
H1170 H 0.90823 0.16421 0.13784 0.0
C1171 C 0.91026 0.10662 0.06183 0.0
C1172 C 0.66042 0.83321 0.87524 0.0
C1173 C 0.66006 0.83891 0.82785 0.0
H1174 H 0.66028 0.85146 0.94296 0.0
C1175 C 0.66121 0.86849 0.81246 0.0
H1176 H 0.65964 0.81071 0.88815 0.0
C1177 C 0.66154 0.8919 0.84381 0.0
C1178 C 0.66071 0.88622 0.89119 0.0
H1179 H 0.6612 0.87367 0.7761 0.0
H1180 H 0.66159 0.9144 0.83087 0.0
C1181 C 0.66073 0.85663 0.9066 0.0
C1182 C 0.04515 0.86895 0.90712 0.0
C1183 C 0.0462 0.83927 0.89217 0.0
H1184 H 0.04525 0.91476 0.88807 0.0
C1185 C 0.04617 0.83331 0.84486 0.0
H1186 H 0.04493 0.87434 0.94341 0.0
C1187 C 0.0463 0.85655 0.81317 0.0
C1188 C 0.04642 0.88624 0.82816 0.0
H1189 H 0.04688 0.81073 0.83226 0.0
H1190 H 0.04699 0.85118 0.77689 0.0
C1191 C 0.04524 0.89218 0.87545 0.0
C1192 C 0.29509 0.60673 0.65892 0.0
C1193 C 0.29517 0.63638 0.64376 0.0
H1194 H 0.2956 0.56087 0.64009 0.0
C1195 C 0.29365 0.64223 0.59646 0.0
H1196 H 0.29603 0.60143 0.69522 0.0
C1197 C 0.29333 0.61892 0.56492 0.0
C1198 C 0.29454 0.58928 0.58003 0.0
H1199 H 0.29356 0.66477 0.58371 0.0
H1200 H 0.2929 0.62424 0.52861 0.0
C1201 C 0.29476 0.58342 0.62737 0.0
C1202 C 0.90994 0.60767 0.56244 0.0
C1203 C 0.91012 0.63729 0.5778 0.0
H1204 H 0.90875 0.56177 0.58092 0.0
C1205 C 0.91145 0.64298 0.62516 0.0
H1206 H 0.90916 0.60248 0.5261 0.0
C1207 C 0.91129 0.61956 0.65654 0.0
C1208 C 0.90982 0.58997 0.64119 0.0
H1209 H 0.91175 0.66549 0.63807 0.0
H1210 H 0.91158 0.62475 0.6929 0.0
C1211 C 0.9098 0.58427 0.59382 0.0
C1212 C 0.65959 0.33273 0.3749 0.0
C1213 C 0.65845 0.33853 0.32757 0.0
H1214 H 0.6598 0.3508 0.44272 0.0
C1215 C 0.65872 0.36817 0.31236 0.0
H1216 H 0.65953 0.31019 0.3877 0.0
C1217 C 0.65882 0.39152 0.34385 0.0
C1218 C 0.65864 0.38571 0.3912 0.0
H1219 H 0.6581 0.37345 0.27604 0.0
H1220 H 0.65815 0.41406 0.33107 0.0
C1221 C 0.65967 0.35607 0.40639 0.0
C1222 C 0.04148 0.33435 0.34232 0.0
C1223 C 0.04296 0.33933 0.38986 0.0
H1224 H 0.04082 0.35361 0.27528 0.0
C1225 C 0.0425 0.36869 0.40632 0.0
H1226 H 0.04164 0.31204 0.32857 0.0
C1227 C 0.04206 0.39257 0.37583 0.0
C1228 C 0.04209 0.3876 0.32825 0.0
H1229 H 0.04334 0.37333 0.44284 0.0
H1230 H 0.04277 0.41488 0.38956 0.0
C1231 C 0.04105 0.35824 0.31182 0.0
C1232 C 0.79473 0.08093 0.62286 0.0
C1233 C 0.7958 0.08636 0.57542 0.0
H1234 H 0.7943 0.09954 0.69034 0.0
C1235 C 0.79519 0.11587 0.55964 0.0
H1236 H 0.79506 0.05849 0.63608 0.0
C1237 C 0.79477 0.13947 0.59068 0.0
C1238 C 0.795 0.13404 0.63814 0.0
H1239 H 0.79573 0.12086 0.52322 0.0
H1240 H 0.79518 0.1619 0.57745 0.0
C1241 C 0.79435 0.10452 0.6539 0.0
C1242 C 0.40757 0.14068 0.62606 0.0
C1243 C 0.40689 0.13419 0.57893 0.0
H1244 H 0.40757 0.12362 0.69451 0.0
C1245 C 0.40722 0.10434 0.56476 0.0
H1246 H 0.40737 0.1634 0.63806 0.0
C1247 C 0.40725 0.08146 0.59708 0.0
C1248 C 0.40693 0.08796 0.64422 0.0
H1249 H 0.40688 0.09854 0.52863 0.0
H1250 H 0.40684 0.05874 0.58509 0.0
C1251 C 0.40759 0.11781 0.65837 0.0
C1252 C 0.16063 0.83631 0.38007 0.0
C1253 C 0.16075 0.84167 0.33258 0.0
H1254 H 0.15882 0.85502 0.44748 0.0
C1255 C 0.16128 0.87118 0.31676 0.0
H1256 H 0.1603 0.81388 0.39335 0.0
C1257 C 0.16039 0.8948 0.34773 0.0
C1258 C 0.15891 0.88943 0.39516 0.0
H1259 H 0.16158 0.87612 0.28032 0.0
H1260 H 0.15985 0.9172 0.33445 0.0
C1261 C 0.15968 0.85994 0.41105 0.0
C1262 C 0.54399 0.8334 0.34738 0.0
C1263 C 0.54597 0.83922 0.39464 0.0
H1264 H 0.54254 0.85136 0.27956 0.0
C1265 C 0.54623 0.86886 0.40983 0.0
H1266 H 0.54372 0.81087 0.33462 0.0
C1267 C 0.54562 0.89219 0.37827 0.0
C1268 C 0.5448 0.88632 0.33093 0.0
H1269 H 0.54756 0.87412 0.44613 0.0
H1270 H 0.54661 0.91475 0.39096 0.0
C1271 C 0.54342 0.85669 0.31586 0.0
C1272 C 0.79102 0.62115 0.06489 0.0
C1273 C 0.79225 0.59167 0.08074 0.0
H1274 H 0.79143 0.6672 0.08253 0.0
C1275 C 0.79249 0.58631 0.12822 0.0
H1276 H 0.79058 0.62609 0.02845 0.0
C1277 C 0.79291 0.60995 0.15918 0.0
C1278 C 0.7931 0.63944 0.14328 0.0
H1279 H 0.79333 0.5639 0.14152 0.0
H1280 H 0.79393 0.60503 0.1956 0.0
C1281 C 0.79144 0.64479 0.09584 0.0
C1282 C 0.4119 0.62231 0.15716 0.0
C1283 C 0.4109 0.59294 0.14072 0.0
H1284 H 0.4115 0.66854 0.14042 0.0
C1285 C 0.41102 0.588 0.09313 0.0
H1286 H 0.41205 0.62693 0.1937 0.0
C1287 C 0.41073 0.61192 0.06266 0.0
C1288 C 0.41036 0.6413 0.07911 0.0
H1289 H 0.41038 0.56571 0.07936 0.0
H1290 H 0.41003 0.60729 0.02613 0.0
C1291 C 0.41165 0.64624 0.12667 0.0
C1292 C 0.16004 0.35586 0.90609 0.0
C1293 C 0.1593 0.38555 0.89113 0.0
H1294 H 0.15947 0.31004 0.88702 0.0
C1295 C 0.15954 0.39152 0.84382 0.0
H1296 H 0.1601 0.35046 0.94237 0.0
C1297 C 0.15925 0.36828 0.81215 0.0
C1298 C 0.15871 0.33859 0.82712 0.0
H1299 H 0.15909 0.4141 0.83121 0.0
H1300 H 0.15871 0.37368 0.77587 0.0
C1301 C 0.15974 0.33262 0.87441 0.0
C1302 C 0.54184 0.36677 0.90568 0.0
C1303 C 0.54289 0.3374 0.8893 0.0
H1304 H 0.54207 0.41295 0.88887 0.0
C1305 C 0.5425 0.33238 0.84174 0.0
H1306 H 0.54185 0.37144 0.94221 0.0
C1307 C 0.54258 0.35625 0.8112 0.0
C1308 C 0.54303 0.38562 0.82761 0.0
H1309 H 0.54316 0.31006 0.82804 0.0
H1310 H 0.54317 0.35159 0.77467 0.0
C1311 C 0.5419 0.39063 0.87515 0.0
C1312 C 0.20436 -0.00962 0.89875 0.0
C1313 C 0.20529 -0.00909 0.94707 0.0
H1314 H 0.17248 -0.00651 0.83801 0.0
C1315 C 0.17356 -0.00614 0.97151 0.0
H1316 H 0.2285 -0.01177 0.87911 0.0
C1317 C 0.1417 -0.00219 0.94799 0.0
C1318 C 0.1409 -0.002 0.89967 0.0
H1319 H 0.1736 -0.00534 0.00874 0.0
H1320 H 0.11772 0.00105 0.96761 0.0
C1321 C 0.17237 -0.00657 0.87526 0.0
C1322 C 0.06125 0.22746 0.94777 0.0
C1323 C 0.06203 0.22797 0.89941 0.0
H1324 H 0.02922 0.22893 0.0086 0.0
C1325 C 0.0305 0.23256 0.87518 0.0
H1326 H 0.08529 0.22418 0.96726 0.0
C1327 C -0.00152 0.23468 0.89876 0.0
C1328 C -0.00245 0.23316 0.94702 0.0
H1329 H 0.03035 0.23303 0.83794 0.0
H1330 H 0.97427 0.23667 0.87918 0.0
C1331 C 0.0293 0.23045 0.97142 0.0
C1332 C 0.17357 0.22957 0.24343 0.0
C1333 C 0.20527 0.23261 0.26787 0.0
H1334 H 0.1176 0.22305 0.24754 0.0
C1335 C 0.20423 0.23452 0.3161 0.0
H1336 H 0.17374 0.22773 0.20629 0.0
C1337 C 0.17216 0.23247 0.33961 0.0
C1338 C 0.14069 0.22753 0.31537 0.0
H1339 H 0.22839 0.23678 0.3357 0.0
H1340 H 0.17223 0.23325 0.37684 0.0
C1341 C 0.14157 0.22662 0.26704 0.0
C1342 C 0.00159 -0.00647 0.32047 0.0
C1343 C 0.0005 -0.00545 0.27218 0.0
H1344 H 0.03357 -0.0036 0.38112 0.0
C1345 C 0.0321 -0.00198 0.24763 0.0
H1346 H 0.97753 -0.009 0.34017 0.0
C1347 C 0.064 0.00206 0.27109 0.0
C1348 C 0.06493 0.00184 0.31944 0.0
H1349 H 0.03189 -0.00078 0.21042 0.0
H1350 H 0.08788 0.00575 0.25145 0.0
C1351 C 0.03359 -0.00332 0.34387 0.0
C1352 C 0.7851 0.98046 0.09271 0.0
C1353 C 0.8163 0.9754 0.06797 0.0
H1354 H 0.72894 0.98556 0.08964 0.0
C1355 C 0.81503 0.97478 0.01966 0.0
H1356 H 0.78535 0.98103 0.12995 0.0
C1357 C 0.78291 0.97833 -0.00346 0.0
C1358 C 0.75146 0.98168 0.02145 0.0
H1359 H 0.8388 0.97115 -0.00021 0.0
H1360 H 0.78243 0.97683 0.95937 0.0
C1361 C 0.75289 0.98311 0.06968 0.0
C1362 C 0.953 0.7412 0.06961 0.0
C1363 C 0.95421 0.74346 0.02143 0.0
H1364 H 0.92103 0.74293 0.13029 0.0
C1365 C 0.92272 0.74759 -0.00306 0.0
H1366 H 0.97702 0.73816 0.08924 0.0
C1367 C 0.89082 0.75126 0.02054 0.0
C1368 C 0.88983 0.75004 0.06888 0.0
H1369 H 0.92307 0.74976 0.95985 0.0
H1370 H 0.86704 0.75563 0.00105 0.0
C1371 C 0.92103 0.744 0.09308 0.0
C1372 C 0.78516 0.74212 0.62971 0.0
C1373 C 0.81633 0.74829 0.65392 0.0
H1374 H 0.72915 0.73626 0.63344 0.0
C1375 C 0.81526 0.7497 0.70225 0.0
H1376 H 0.78521 0.74089 0.59251 0.0
C1377 C 0.78331 0.74613 0.7258 0.0
C1378 C 0.75184 0.74189 0.70127 0.0
H1379 H 0.83901 0.75416 0.72177 0.0
H1380 H 0.7829 0.74848 0.76287 0.0
C1381 C 0.75315 0.73939 0.65312 0.0
C1382 C 0.92234 0.97937 0.62524 0.0
C1383 C 0.89098 0.97467 0.64983 0.0
H1384 H -0.02146 0.98418 0.62865 0.0
C1385 C 0.89207 0.97447 0.69818 0.0
H1386 H 0.92226 0.97961 0.58799 0.0
C1387 C 0.92412 0.97801 0.72149 0.0
C1388 C 0.95572 0.98096 0.69678 0.0
H1389 H 0.86819 0.97111 0.71796 0.0
H1390 H 0.92441 0.97681 0.75869 0.0
C1391 C 0.95448 0.98202 0.64849 0.0
C1392 C 0.17338 0.49469 0.4751 0.0
C1393 C 0.205 0.49125 0.45067 0.0
H1394 H 0.11752 0.50172 0.47087 0.0
C1395 C 0.20392 0.48891 0.4025 0.0
H1396 H 0.17361 0.49688 0.5122 0.0
C1397 C 0.17192 0.49111 0.37896 0.0
C1398 C 0.14056 0.49661 0.4031 0.0
H1399 H 0.22806 0.48636 0.38294 0.0
H1400 H 0.17201 0.49012 0.34174 0.0
C1401 C 0.14143 0.49775 0.45144 0.0
C1402 C 0.03484 0.73389 0.37831 0.0
C1403 C 0.06613 0.72936 0.40312 0.0
H1404 H -0.02143 0.73787 0.38125 0.0
C1405 C 0.06482 0.72867 0.45143 0.0
H1406 H 0.0351 0.73448 0.34107 0.0
C1407 C 0.03259 0.73154 0.47449 0.0
C1408 C 0.0011 0.73429 0.4495 0.0
H1409 H 0.08866 0.72543 0.47135 0.0
H1410 H 0.0321 0.72994 0.51165 0.0
C1411 C 0.00256 0.73587 0.40127 0.0
C1412 C 0.17497 0.73076 0.75027 0.0
C1413 C 0.20661 0.73285 0.77509 0.0
H1414 H 0.11883 0.72518 0.75358 0.0
C1415 C 0.20535 0.73382 0.82338 0.0
H1416 H 0.17527 0.72968 0.71306 0.0
C1417 C 0.1731 0.73187 0.84652 0.0
C1418 C 0.14164 0.72799 0.8218 0.0
H1419 H 0.22944 0.73535 0.8433 0.0
H1420 H 0.17298 0.73197 0.88377 0.0
C1421 C 0.14278 0.72792 0.77345 0.0
C1422 C 0.06187 0.49626 0.76968 0.0
C1423 C 0.06269 0.49556 0.81802 0.0
H1424 H 0.0297 0.4955 0.70893 0.0
C1425 C 0.03114 0.49113 0.84229 0.0
H1426 H 0.08591 0.49942 0.75016 0.0
C1427 C -0.00094 0.48949 0.81879 0.0
C1428 C -0.00192 0.49135 0.77056 0.0
H1429 H 0.03104 0.49051 0.87953 0.0
H1430 H 0.97485 0.48768 0.8384 0.0
C1431 C 0.02983 0.49375 0.74608 0.0
C1432 C 0.74884 0.4857 0.56925 0.0
C1433 C 0.7478 0.48397 0.52101 0.0
H1434 H 0.78091 0.48465 0.6299 0.0
C1435 C 0.77951 0.48175 0.49643 0.0
H1436 H 0.72466 0.48737 0.58893 0.0
C1437 C 0.81159 0.47931 0.51993 0.0
C1438 C 0.81249 0.47991 0.56828 0.0
H1439 H 0.77933 0.4801 0.45926 0.0
H1440 H 0.83562 0.4763 0.50033 0.0
C1441 C 0.78096 0.48413 0.59266 0.0
C1442 C 0.92463 0.24333 0.49552 0.0
C1443 C 0.95641 0.24134 0.52005 0.0
H1444 H 0.86848 0.24858 0.49938 0.0
C1445 C 0.95543 0.24016 0.56833 0.0
H1446 H 0.92472 0.24456 0.45831 0.0
C1447 C 0.9233 0.24182 0.59176 0.0
C1448 C 0.89169 0.24561 0.56734 0.0
H1449 H -0.02037 0.23869 0.58801 0.0
H1450 H 0.92336 0.24159 0.62901 0.0
C1451 C 0.89256 0.24588 0.519 0.0
C1452 C 0.74862 0.24045 0.14853 0.0
C1453 C 0.74756 0.24176 0.1968 0.0
H1454 H 0.78068 0.24219 0.08789 0.0
C1455 C 0.77926 0.24425 0.22138 0.0
H1456 H 0.72446 0.23863 0.12881 0.0
C1457 C 0.81131 0.2472 0.19792 0.0
C1458 C 0.81223 0.24685 0.14957 0.0
H1459 H 0.77908 0.24562 0.25857 0.0
H1460 H 0.83531 0.25029 0.21757 0.0
C1461 C 0.78073 0.24252 0.12514 0.0
C1462 C 0.92306 0.48631 0.12688 0.0
C1463 C 0.89155 0.48201 0.15132 0.0
H1464 H -0.02063 0.48998 0.13058 0.0
C1465 C 0.89247 0.48168 0.19966 0.0
H1466 H 0.92309 0.48662 0.08963 0.0
C1467 C 0.92452 0.48452 0.22312 0.0
C1468 C 0.95625 0.48686 0.19855 0.0
H1469 H 0.86846 0.47862 0.21929 0.0
H1470 H 0.92469 0.48311 0.2603 0.0
C1471 C 0.95519 0.48825 0.15028 0.0
C1472 C 0.70327 -0.01091 0.39906 0.0
C1473 C 0.70472 -0.00971 0.44734 0.0
H1474 H 0.67086 -0.00844 0.33876 0.0
C1475 C 0.67326 -0.00655 0.47224 0.0
H1476 H 0.72723 0.98679 0.37906 0.0
C1477 C 0.64115 -0.00289 0.44912 0.0
C1478 C 0.63987 -0.00316 0.40077 0.0
H1479 H 0.67373 -0.00521 0.50943 0.0
H1480 H 0.61738 0.00065 0.46905 0.0
C1481 C 0.67108 -0.00813 0.37601 0.0
C1482 C 0.49948 0.23306 0.40016 0.0
C1483 C 0.49848 0.23101 0.44837 0.0
H1484 H 0.53145 0.2323 0.33942 0.0
C1485 C 0.5302 0.22834 0.47283 0.0
H1486 H 0.47528 0.23506 0.38056 0.0
C1487 C 0.56224 0.22586 0.4492 0.0
C1488 C 0.56309 0.22688 0.40086 0.0
H1489 H 0.53004 0.22642 0.50996 0.0
H1490 H 0.58627 0.22257 0.46868 0.0
C1491 C 0.53155 0.23147 0.37665 0.0
C1492 C 0.67429 0.22845 0.74472 0.0
C1493 C 0.70606 0.23121 0.76909 0.0
H1494 H 0.61828 0.22226 0.74895 0.0
C1495 C 0.70513 0.23293 0.81734 0.0
H1496 H 0.67436 0.22678 0.70756 0.0
C1497 C 0.67309 0.23099 0.84094 0.0
C1498 C 0.64154 0.22635 0.81675 0.0
H1499 H 0.72935 0.235 0.83688 0.0
H1500 H 0.67323 0.23162 0.87818 0.0
C1501 C 0.64232 0.2256 0.76841 0.0
C1502 C 0.53285 -0.00386 0.74621 0.0
C1503 C 0.50165 -0.00789 0.77135 0.0
H1504 H 0.58871 0.00369 0.74917 0.0
C1505 C 0.50348 -0.01046 0.81945 0.0
H1506 H 0.53202 -0.00145 0.70916 0.0
C1507 C 0.53579 -0.00806 0.84222 0.0
C1508 C 0.56676 -0.00214 0.81742 0.0
H1509 H 0.47968 0.98658 0.83958 0.0
H1510 H 0.53625 -0.00936 0.87942 0.0
C1511 C 0.56513 -0.0006 0.76913 0.0
C1512 C 0.2488 0.98448 0.57456 0.0
C1513 C 0.24773 0.98421 0.52622 0.0
H1514 H 0.28086 0.98129 0.63515 0.0
C1515 C 0.27946 0.98175 0.50164 0.0
H1516 H 0.22467 0.98626 0.59432 0.0
C1517 C 0.31143 0.97799 0.525 0.0
C1518 C 0.31237 0.97748 0.57333 0.0
H1519 H 0.27935 0.98117 0.4644 0.0
H1520 H 0.3354 0.97509 0.50523 0.0
C1521 C 0.28089 0.98162 0.5979 0.0
C1522 C 0.39268 0.74865 0.52335 0.0
C1523 C 0.39175 0.74795 0.57168 0.0
H1524 H 0.42485 0.74716 0.46266 0.0
C1525 C 0.42321 0.74322 0.59602 0.0
H1526 H 0.36871 0.75205 0.50377 0.0
C1527 C 0.4553 0.74103 0.57258 0.0
C1528 C 0.45637 0.74262 0.52432 0.0
H1529 H 0.42325 0.74262 0.63326 0.0
H1530 H 0.47944 0.73884 0.59225 0.0
C1531 C 0.42468 0.74557 0.49982 0.0
C1532 C 0.28443 0.74831 0.1293 0.0
C1533 C 0.31576 0.7538 0.15355 0.0
H1534 H 0.2284 0.74253 0.13325 0.0
C1535 C 0.31492 0.75439 0.2019 0.0
H1536 H 0.28435 0.74773 0.09206 0.0
C1537 C 0.28308 0.75046 0.22552 0.0
C1538 C 0.25147 0.74672 0.2011 0.0
H1539 H 0.3388 0.75834 0.22141 0.0
H1540 H 0.2829 0.752 0.26269 0.0
C1541 C 0.25249 0.74526 0.15284 0.0
C1542 C 0.41962 0.97522 0.22842 0.0
C1543 C 0.45058 0.98096 0.20354 0.0
H1544 H 0.36433 0.96515 0.22497 0.0
C1545 C 0.44874 0.98379 0.1555 0.0
H1546 H 0.42052 0.97249 0.26541 0.0
C1547 C 0.4167 0.98007 0.13249 0.0
C1548 C 0.38609 0.97252 0.15698 0.0
H1549 H 0.47238 -0.01205 0.13557 0.0
H1550 H 0.41626 0.9817 0.09533 0.0
C1551 C 0.38766 0.97064 0.20524 0.0
C1552 C 0.64138 0.49749 0.95101 0.0
C1553 C 0.64061 0.49656 0.90268 0.0
H1554 H 0.67348 0.49701 0.01184 0.0
C1555 C 0.67221 0.49215 0.87853 0.0
H1556 H 0.6173 0.50067 0.97044 0.0
C1557 C 0.70427 0.49068 0.90211 0.0
C1558 C 0.70519 0.49268 0.95032 0.0
H1559 H 0.67237 0.49138 0.84129 0.0
H1560 H 0.72851 0.48884 0.88257 0.0
C1561 C 0.6734 0.49514 0.9747 0.0
C1562 C 0.56353 0.72986 0.95045 0.0
C1563 C 0.56451 0.72929 0.9021 0.0
H1564 H 0.53137 0.73326 0.01096 0.0
C1565 C 0.53313 0.73374 0.87745 0.0
H1566 H 0.58744 0.72673 0.97027 0.0
C1567 C 0.50107 0.73689 0.9007 0.0
C1568 C 0.49993 0.73658 0.94903 0.0
H1569 H 0.53313 0.73339 0.8402 0.0
H1570 H 0.47698 0.73882 0.88086 0.0
C1571 C 0.53157 0.73389 0.97372 0.0
C1572 C 0.64207 0.72919 0.2716 0.0
C1573 C 0.64081 0.72894 0.31992 0.0
H1574 H 0.67467 0.73207 0.21143 0.0
C1575 C 0.67206 0.73343 0.34487 0.0
H1576 H 0.61827 0.72602 0.25158 0.0
C1577 C 0.70429 0.7363 0.32196 0.0
C1578 C 0.70571 0.73567 0.27368 0.0
H1579 H 0.67182 0.73332 0.38212 0.0
H1580 H 0.72827 0.73825 0.34202 0.0
C1581 C 0.67422 0.73296 0.24865 0.0
C1582 C 0.52985 0.49527 0.24615 0.0
C1583 C 0.49796 0.49338 0.27043 0.0
H1584 H 0.58602 0.50015 0.25054 0.0
C1585 C 0.49872 0.49171 0.31869 0.0
H1586 H 0.5299 0.49684 0.20898 0.0
C1587 C 0.53075 0.49297 0.34238 0.0
C1588 C 0.56248 0.49682 0.31827 0.0
H1589 H 0.47441 0.49026 0.33815 0.0
H1590 H 0.53051 0.49248 0.37963 0.0
C1591 C 0.56184 0.49741 0.26992 0.0
C1592 C 0.28169 0.48602 0.09179 0.0
C1593 C 0.31325 0.4821 0.06735 0.0
H1594 H 0.22533 0.48841 0.08824 0.0
C1595 C 0.31228 0.48117 0.01903 0.0
H1596 H 0.2817 0.48676 0.12903 0.0
C1597 C 0.2801 0.48299 -0.00438 0.0
C1598 C 0.2484 0.4849 0.0203 0.0
H1599 H 0.33633 0.47837 -0.0006 0.0
H1600 H 0.27987 0.48111 0.95848 0.0
C1601 C 0.2495 0.48696 0.06849 0.0
C1602 C 0.42311 0.24023 0.09133 0.0
C1603 C 0.3916 0.24424 0.06681 0.0
H1604 H 0.47942 0.23669 0.08777 0.0
C1605 C 0.39255 0.24434 0.01846 0.0
H1606 H 0.42312 0.24009 0.12859 0.0
C1607 C 0.42463 0.24149 -0.00492 0.0
C1608 C 0.45634 0.23936 0.01973 0.0
H1609 H 0.36854 0.24719 -0.00125 0.0
H1610 H 0.42481 0.24268 0.95788 0.0
C1611 C 0.45526 0.23826 0.06801 0.0
C1612 C 0.31164 0.24545 0.69851 0.0
C1613 C 0.31264 0.24493 0.65017 0.0
H1614 H 0.27925 0.24456 0.75906 0.0
C1615 C 0.28112 0.24088 0.62566 0.0
H1616 H 0.33565 0.24833 0.71822 0.0
C1617 C 0.24894 0.23932 0.64894 0.0
C1618 C 0.24781 0.24089 0.69719 0.0
H1619 H 0.28114 0.24041 0.58841 0.0
H1620 H 0.22479 0.23773 0.62915 0.0
C1621 C 0.27949 0.24303 0.72188 0.0
C1622 C 0.45597 0.48531 0.64933 0.0
C1623 C 0.45694 0.48428 0.69763 0.0
H1624 H 0.42393 0.48349 0.58864 0.0
C1625 C 0.42515 0.4824 0.72216 0.0
H1626 H 0.48018 0.48671 0.62966 0.0
C1627 C 0.3931 0.47967 0.69867 0.0
C1628 C 0.39226 0.47964 0.65033 0.0
H1629 H 0.42524 0.4813 0.75937 0.0
H1630 H 0.36903 0.47699 0.71831 0.0
C1631 C 0.42385 0.48346 0.62589 0.0
loop_
_geom_bond_atom_site_label_1
_geom_bond_atom_site_label_2
_geom_bond_distance
_geom_bond_site_symmetry_2
_ccdc_geom_bond_type
O0 Mg1 1.990 . S
O0 C14 1.253 . S
Mg1 O0 1.990 . S
Mg1 O4 2.180 . S
Mg1 O5 2.117 . S
Mg1 O19 2.030 . S
O2 Mg3 2.072 . S
O2 C14 1.260 1_545 S
Mg3 O2 2.072 . S
Mg3 O4 2.102 1_545 S
Mg3 O6 2.079 1_545 S
Mg3 O7 2.073 1_545 S
Mg3 O9 2.096 . S
Mg3 O20 2.079 . S
O4 Mg1 2.180 . S
O4 Mg3 2.102 1_565 S
O4 C15 1.279 . S
O5 Mg1 2.117 . S
O5 C15 1.250 . S
O6 Mg3 2.079 1_565 S
O6 C16 1.264 1_564 S
O7 Mg3 2.073 1_565 S
O7 C17 1.260 1_564 S
Mg8 O9 2.180 1_556 S
Mg8 O10 2.030 . S
Mg8 O11 1.990 . S
Mg8 O12 2.117 1_556 S
O9 Mg3 2.096 . S
O9 Mg8 2.180 1_554 S
O9 C18 1.279 . S
O10 Mg8 2.030 . S
O10 C16 1.248 . S
O11 Mg8 1.990 . S
O11 C17 1.253 . S
O12 Mg8 2.117 1_554 S
O12 C18 1.250 . S
C13 O19 1.248 . S
C13 O20 1.261 1_565 S
C14 O0 1.253 . S
C14 O2 1.260 1_565 S
C15 O4 1.279 . S
C15 O5 1.250 . S
C16 O6 1.264 1_546 S
C16 O10 1.248 . S
C17 O7 1.260 1_546 S
C17 O11 1.253 . S
C18 O9 1.279 . S
C18 O12 1.250 . S
O19 Mg1 2.030 . S
O19 C13 1.248 . S
O20 Mg3 2.079 . S
O20 C13 1.261 1_545 S
O21 Mg22 1.990 . S
O21 C35 1.253 . S
Mg22 O21 1.990 . S
Mg22 O25 2.180 . S
Mg22 O26 2.117 . S
Mg22 O40 2.030 . S
O23 Mg24 2.072 . S
O23 C35 1.260 . S
Mg24 O23 2.072 . S
Mg24 O25 2.099 . S
Mg24 O27 2.079 . S
Mg24 O28 2.072 . S
Mg24 O30 2.099 . S
Mg24 O41 2.079 . S
O25 Mg22 2.180 . S
O25 Mg24 2.099 . S
O25 C36 1.279 . S
O26 Mg22 2.117 . S
O26 C36 1.250 . S
O27 Mg24 2.079 . S
O27 C37 1.264 1_554 S
O28 Mg24 2.072 . S
O28 C38 1.260 1_554 S
Mg29 O30 2.180 1_556 S
Mg29 O31 2.030 . S
Mg29 O32 1.990 . S
Mg29 O33 2.117 1_556 S
O30 Mg24 2.099 . S
O30 Mg29 2.180 1_554 S
O30 C39 1.279 . S
O31 Mg29 2.030 . S
O31 C37 1.248 . S
O32 Mg29 1.990 . S
O32 C38 1.253 . S
O33 Mg29 2.117 1_554 S
O33 C39 1.250 . S
C34 O40 1.248 . S
C34 O41 1.264 . S
C35 O21 1.253 . S
C35 O23 1.260 . S
C36 O25 1.279 . S
C36 O26 1.250 . S
C37 O27 1.264 1_556 S
C37 O31 1.248 . S
C38 O28 1.260 1_556 S
C38 O32 1.253 . S
C39 O30 1.279 . S
C39 O33 1.250 . S
O40 Mg22 2.030 . S
O40 C34 1.248 . S
O41 Mg24 2.079 . S
O41 C34 1.264 . S
O42 Mg43 1.990 . S
O42 C56 1.253 . S
Mg43 O42 1.990 . S
Mg43 O46 2.180 . S
Mg43 O47 2.117 . S
Mg43 O61 2.030 . S
O44 Mg45 2.072 . S
O44 C56 1.260 . S
Mg45 O44 2.072 . S
Mg45 O46 2.099 . S
Mg45 O48 2.079 . S
Mg45 O49 2.072 . S
Mg45 O51 2.099 . S
Mg45 O62 2.079 . S
O46 Mg43 2.180 . S
O46 Mg45 2.099 . S
O46 C57 1.279 . S
O47 Mg43 2.117 . S
O47 C57 1.250 . S
O48 Mg45 2.079 . S
O48 C58 1.264 . S
O49 Mg45 2.072 . S
O49 C59 1.260 . S
Mg50 O51 2.180 . S
Mg50 O52 2.030 . S
Mg50 O53 1.990 . S
Mg50 O54 2.117 . S
O51 Mg45 2.099 . S
O51 Mg50 2.180 . S
O51 C60 1.279 . S
O52 Mg50 2.030 . S
O52 C58 1.248 . S
O53 Mg50 1.990 . S
O53 C59 1.253 . S
O54 Mg50 2.117 . S
O54 C60 1.250 . S
C55 O61 1.248 . S
C55 O62 1.264 . S
C56 O42 1.253 . S
C56 O44 1.260 . S
C57 O46 1.279 . S
C57 O47 1.250 . S
C58 O48 1.264 . S
C58 O52 1.248 . S
C59 O49 1.260 . S
C59 O53 1.253 . S
C60 O51 1.279 . S
C60 O54 1.250 . S
O61 Mg43 2.030 . S
O61 C55 1.248 . S
O62 Mg45 2.079 . S
O62 C55 1.264 . S
O63 Mg64 1.990 . S
O63 C77 1.253 . S
Mg64 O63 1.990 . S
Mg64 O67 2.180 . S
Mg64 O68 2.117 . S
Mg64 O82 2.030 . S
O65 Mg66 2.072 . S
O65 C77 1.260 1_545 S
Mg66 O65 2.072 . S
Mg66 O67 2.102 1_545 S
Mg66 O69 2.079 1_545 S
Mg66 O70 2.073 1_545 S
Mg66 O72 2.096 . S
Mg66 O83 2.079 . S
O67 Mg64 2.180 . S
O67 Mg66 2.102 1_565 S
O67 C78 1.279 . S
O68 Mg64 2.117 . S
O68 C78 1.250 . S
O69 Mg66 2.079 1_565 S
O69 C79 1.264 1_565 S
O70 Mg66 2.073 1_565 S
O70 C80 1.260 1_565 S
Mg71 O72 2.180 . S
Mg71 O73 2.030 . S
Mg71 O74 1.990 . S
Mg71 O75 2.117 . S
O72 Mg66 2.096 . S
O72 Mg71 2.180 . S
O72 C81 1.279 . S
O73 Mg71 2.030 . S
O73 C79 1.248 . S
O74 Mg71 1.990 . S
O74 C80 1.253 . S
O75 Mg71 2.117 . S
O75 C81 1.250 . S
C76 O82 1.248 . S
C76 O83 1.261 1_565 S
C77 O63 1.253 . S
C77 O65 1.260 1_565 S
C78 O67 1.279 . S
C78 O68 1.250 . S
C79 O69 1.264 1_545 S
C79 O73 1.248 . S
C80 O70 1.260 1_545 S
C80 O74 1.253 . S
C81 O72 1.279 . S
C81 O75 1.250 . S
O82 Mg64 2.030 . S
O82 C76 1.248 . S
O83 Mg66 2.079 . S
O83 C76 1.261 1_545 S
O84 Mg85 1.990 . S
O84 C98 1.253 . S
Mg85 O84 1.990 . S
Mg85 O88 2.180 . S
Mg85 O89 2.117 . S
Mg85 O103 2.030 . S
O86 Mg87 2.072 . S
O86 C98 1.260 1_565 S
Mg87 O86 2.072 . S
Mg87 O88 2.102 1_565 S
Mg87 O90 2.079 1_565 S
Mg87 O91 2.073 1_565 S
Mg87 O93 2.096 . S
Mg87 O104 2.079 . S
O88 Mg85 2.180 . S
O88 Mg87 2.102 1_545 S
O88 C99 1.279 . S
O89 Mg85 2.117 . S
O89 C99 1.250 . S
O90 Mg87 2.079 1_545 S
O90 C100 1.264 1_546 S
O91 Mg87 2.073 1_545 S
O91 C101 1.260 1_546 S
Mg92 O93 2.180 1_554 S
Mg92 O94 2.030 . S
Mg92 O95 1.990 . S
Mg92 O96 2.117 1_554 S
O93 Mg87 2.096 . S
O93 Mg92 2.180 1_556 S
O93 C102 1.279 . S
O94 Mg92 2.030 . S
O94 C100 1.248 . S
O95 Mg92 1.990 . S
O95 C101 1.253 . S
O96 Mg92 2.117 1_556 S
O96 C102 1.250 . S
C97 O103 1.248 . S
C97 O104 1.261 1_545 S
C98 O84 1.253 . S
C98 O86 1.260 1_545 S
C99 O88 1.279 . S
C99 O89 1.250 . S
C100 O90 1.264 1_564 S
C100 O94 1.248 . S
C101 O91 1.260 1_564 S
C101 O95 1.253 . S
C102 O93 1.279 . S
C102 O96 1.250 . S
O103 Mg85 2.030 . S
O103 C97 1.248 . S
O104 Mg87 2.079 . S
O104 C97 1.261 1_565 S
O105 Mg106 1.990 . S
O105 C119 1.253 . S
Mg106 O105 1.990 . S
Mg106 O109 2.180 . S
Mg106 O110 2.117 . S
Mg106 O124 2.030 . S
O107 Mg108 2.072 . S
O107 C119 1.260 . S
Mg108 O107 2.072 . S
Mg108 O109 2.099 . S
Mg108 O111 2.079 . S
Mg108 O112 2.072 . S
Mg108 O114 2.099 . S
Mg108 O125 2.079 . S
O109 Mg106 2.180 . S
O109 Mg108 2.099 . S
O109 C120 1.279 . S
O110 Mg106 2.117 . S
O110 C120 1.250 . S
O111 Mg108 2.079 . S
O111 C121 1.264 1_556 S
O112 Mg108 2.072 . S
O112 C122 1.260 1_556 S
Mg113 O114 2.180 1_554 S
Mg113 O115 2.030 . S
Mg113 O116 1.990 . S
Mg113 O117 2.117 1_554 S
O114 Mg108 2.099 . S
O114 Mg113 2.180 1_556 S
O114 C123 1.279 . S
O115 Mg113 2.030 . S
O115 C121 1.248 . S
O116 Mg113 1.990 . S
O116 C122 1.253 . S
O117 Mg113 2.117 1_556 S
O117 C123 1.250 . S
C118 O124 1.248 . S
C118 O125 1.264 . S
C119 O105 1.253 . S
C119 O107 1.260 . S
C120 O109 1.279 . S
C120 O110 1.250 . S
C121 O111 1.264 1_554 S
C121 O115 1.248 . S
C122 O112 1.260 1_554 S
C122 O116 1.253 . S
C123 O114 1.279 . S
C123 O117 1.250 . S
O124 Mg106 2.030 . S
O124 C118 1.248 . S
O125 Mg108 2.079 . S
O125 C118 1.264 . S
O126 Mg127 1.990 . S
O126 C140 1.253 . S
Mg127 O126 1.990 . S
Mg127 O130 2.180 . S
Mg127 O131 2.117 . S
Mg127 O145 2.030 . S
O128 Mg129 2.072 . S
O128 C140 1.260 . S
Mg129 O128 2.072 . S
Mg129 O130 2.099 . S
Mg129 O132 2.079 . S
Mg129 O133 2.072 . S
Mg129 O135 2.099 . S
Mg129 O146 2.079 . S
O130 Mg127 2.180 . S
O130 Mg129 2.099 . S
O130 C141 1.279 . S
O131 Mg127 2.117 . S
O131 C141 1.250 . S
O132 Mg129 2.079 . S
O132 C142 1.264 . S
O133 Mg129 2.072 . S
O133 C143 1.260 . S
Mg134 O135 2.180 . S
Mg134 O136 2.030 . S
Mg134 O137 1.990 . S
Mg134 O138 2.117 . S
O135 Mg129 2.099 . S
O135 Mg134 2.180 . S
O135 C144 1.279 . S
O136 Mg134 2.030 . S
O136 C142 1.248 . S
O137 Mg134 1.990 . S
O137 C143 1.253 . S
O138 Mg134 2.117 . S
O138 C144 1.250 . S
C139 O145 1.248 . S
C139 O146 1.264 . S
C140 O126 1.253 . S
C140 O128 1.260 . S
C141 O130 1.279 . S
C141 O131 1.250 . S
C142 O132 1.264 . S
C142 O136 1.248 . S
C143 O133 1.260 . S
C143 O137 1.253 . S
C144 O135 1.279 . S
C144 O138 1.250 . S
O145 Mg127 2.030 . S
O145 C139 1.248 . S
O146 Mg129 2.079 . S
O146 C139 1.264 . S
O147 Mg148 1.990 . S
O147 C161 1.253 . S
Mg148 O147 1.990 . S
Mg148 O151 2.180 . S
Mg148 O152 2.117 . S
Mg148 O166 2.030 . S
O149 Mg150 2.072 . S
O149 C161 1.260 1_565 S
Mg150 O149 2.072 . S
Mg150 O151 2.102 1_565 S
Mg150 O153 2.079 1_565 S
Mg150 O154 2.073 1_565 S
Mg150 O156 2.096 . S
Mg150 O167 2.079 . S
O151 Mg148 2.180 . S
O151 Mg150 2.102 1_545 S
O151 C162 1.279 . S
O152 Mg148 2.117 . S
O152 C162 1.250 . S
O153 Mg150 2.079 1_545 S
O153 C163 1.264 1_545 S
O154 Mg150 2.073 1_545 S
O154 C164 1.260 1_545 S
Mg155 O156 2.180 . S
Mg155 O157 2.030 . S
Mg155 O158 1.990 . S
Mg155 O159 2.117 . S
O156 Mg150 2.096 . S
O156 Mg155 2.180 . S
O156 C165 1.279 . S
O157 Mg155 2.030 . S
O157 C163 1.248 . S
O158 Mg155 1.990 . S
O158 C164 1.253 . S
O159 Mg155 2.117 . S
O159 C165 1.250 . S
C160 O166 1.248 . S
C160 O167 1.261 1_545 S
C161 O147 1.253 . S
C161 O149 1.260 1_545 S
C162 O151 1.279 . S
C162 O152 1.250 . S
C163 O153 1.264 1_565 S
C163 O157 1.248 . S
C164 O154 1.260 1_565 S
C164 O158 1.253 . S
C165 O156 1.279 . S
C165 O159 1.250 . S
O166 Mg148 2.030 . S
O166 C160 1.248 . S
O167 Mg150 2.079 . S
O167 C160 1.261 1_565 S
O168 Mg169 1.990 . S
O168 C182 1.253 . S
Mg169 O168 1.990 . S
Mg169 O172 2.180 . S
Mg169 O173 2.117 . S
Mg169 O187 2.030 . S
O170 Mg171 2.072 . S
O170 C182 1.260 . S
Mg171 O170 2.072 . S
Mg171 O172 2.099 . S
Mg171 O174 2.079 . S
Mg171 O175 2.072 . S
Mg171 O177 2.099 . S
Mg171 O188 2.079 . S
O172 Mg169 2.180 . S
O172 Mg171 2.099 . S
O172 C183 1.279 . S
O173 Mg169 2.117 . S
O173 C183 1.250 . S
O174 Mg171 2.079 . S
O174 C184 1.264 . S
O175 Mg171 2.072 . S
O175 C185 1.260 . S
Mg176 O177 2.180 . S
Mg176 O178 2.030 . S
Mg176 O179 1.990 . S
Mg176 O180 2.117 . S
O177 Mg171 2.099 . S
O177 Mg176 2.180 . S
O177 C186 1.279 . S
O178 Mg176 2.030 . S
O178 C184 1.248 . S
O179 Mg176 1.990 . S
O179 C185 1.253 . S
O180 Mg176 2.117 . S
O180 C186 1.250 . S
C181 O187 1.248 . S
C181 O188 1.264 . S
C182 O168 1.253 . S
C182 O170 1.260 . S
C183 O172 1.279 . S
C183 O173 1.250 . S
C184 O174 1.264 . S
C184 O178 1.248 . S
C185 O175 1.260 . S
C185 O179 1.253 . S
C186 O177 1.279 . S
C186 O180 1.250 . S
O187 Mg169 2.030 . S
O187 C181 1.248 . S
O188 Mg171 2.079 . S
O188 C181 1.264 . S
O189 Mg190 1.990 . S
O189 C203 1.253 . S
Mg190 O189 1.990 . S
Mg190 O193 2.180 . S
Mg190 O194 2.117 . S
Mg190 O208 2.030 . S
O191 Mg192 2.072 . S
O191 C203 1.260 . S
Mg192 O191 2.072 . S
Mg192 O193 2.099 . S
Mg192 O195 2.079 . S
Mg192 O196 2.072 . S
Mg192 O198 2.099 . S
Mg192 O209 2.079 . S
O193 Mg190 2.180 . S
O193 Mg192 2.099 . S
O193 C204 1.279 . S
O194 Mg190 2.117 . S
O194 C204 1.250 . S
O195 Mg192 2.079 . S
O195 C205 1.264 . S
O196 Mg192 2.072 . S
O196 C206 1.260 . S
Mg197 O198 2.180 . S
Mg197 O199 2.030 . S
Mg197 O200 1.990 . S
Mg197 O201 2.117 . S
O198 Mg192 2.099 . S
O198 Mg197 2.180 . S
O198 C207 1.279 . S
O199 Mg197 2.030 . S
O199 C205 1.248 . S
O200 Mg197 1.990 . S
O200 C206 1.253 . S
O201 Mg197 2.117 . S
O201 C207 1.250 . S
C202 O208 1.248 . S
C202 O209 1.264 . S
C203 O189 1.253 . S
C203 O191 1.260 . S
C204 O193 1.279 . S
C204 O194 1.250 . S
C205 O195 1.264 . S
C205 O199 1.248 . S
C206 O196 1.260 . S
C206 O200 1.253 . S
C207 O198 1.279 . S
C207 O201 1.250 . S
O208 Mg190 2.030 . S
O208 C202 1.248 . S
O209 Mg192 2.079 . S
O209 C202 1.264 . S
O210 Mg211 1.990 . S
O210 C224 1.253 . S
Mg211 O210 1.990 . S
Mg211 O214 2.180 . S
Mg211 O215 2.117 . S
Mg211 O229 2.030 . S
O212 Mg213 2.072 . S
O212 C224 1.260 . S
Mg213 O212 2.072 . S
Mg213 O214 2.099 . S
Mg213 O216 2.079 . S
Mg213 O217 2.072 . S
Mg213 O219 2.099 . S
Mg213 O230 2.079 . S
O214 Mg211 2.180 . S
O214 Mg213 2.099 . S
O214 C225 1.279 . S
O215 Mg211 2.117 . S
O215 C225 1.250 . S
O216 Mg213 2.079 . S
O216 C226 1.264 . S
O217 Mg213 2.072 . S
O217 C227 1.260 . S
Mg218 O219 2.180 . S
Mg218 O220 2.030 . S
Mg218 O221 1.990 . S
Mg218 O222 2.117 . S
O219 Mg213 2.099 . S
O219 Mg218 2.180 . S
O219 C228 1.279 . S
O220 Mg218 2.030 . S
O220 C226 1.248 . S
O221 Mg218 1.990 . S
O221 C227 1.253 . S
O222 Mg218 2.117 . S
O222 C228 1.250 . S
C223 O229 1.248 . S
C223 O230 1.264 . S
C224 O210 1.253 . S
C224 O212 1.260 . S
C225 O214 1.279 . S
C225 O215 1.250 . S
C226 O216 1.264 . S
C226 O220 1.248 . S
C227 O217 1.260 . S
C227 O221 1.253 . S
C228 O219 1.279 . S
C228 O222 1.250 . S
O229 Mg211 2.030 . S
O229 C223 1.248 . S
O230 Mg213 2.079 . S
O230 C223 1.264 . S
O231 Mg232 1.990 . S
O231 C245 1.253 . S
Mg232 O231 1.990 . S
Mg232 O235 2.180 . S
Mg232 O236 2.117 . S
Mg232 O250 2.030 . S
O233 Mg234 2.072 . S
O233 C245 1.260 . S
Mg234 O233 2.072 . S
Mg234 O235 2.099 . S
Mg234 O237 2.079 . S
Mg234 O238 2.072 . S
Mg234 O240 2.099 . S
Mg234 O251 2.079 . S
O235 Mg232 2.180 . S
O235 Mg234 2.099 . S
O235 C246 1.279 . S
O236 Mg232 2.117 . S
O236 C246 1.250 . S
O237 Mg234 2.079 . S
O237 C247 1.264 . S
O238 Mg234 2.072 . S
O238 C248 1.260 . S
Mg239 O240 2.180 . S
Mg239 O241 2.030 . S
Mg239 O242 1.990 . S
Mg239 O243 2.117 . S
O240 Mg234 2.099 . S
O240 Mg239 2.180 . S
O240 C249 1.279 . S
O241 Mg239 2.030 . S
O241 C247 1.248 . S
O242 Mg239 1.990 . S
O242 C248 1.253 . S
O243 Mg239 2.117 . S
O243 C249 1.250 . S
C244 O250 1.248 . S
C244 O251 1.264 . S
C245 O231 1.253 . S
C245 O233 1.260 . S
C246 O235 1.279 . S
C246 O236 1.250 . S
C247 O237 1.264 . S
C247 O241 1.248 . S
C248 O238 1.260 . S
C248 O242 1.253 . S
C249 O240 1.279 . S
C249 O243 1.250 . S
O250 Mg232 2.030 . S
O250 C244 1.248 . S
O251 Mg234 2.079 . S
O251 C244 1.264 . S
O252 Mg253 1.990 . S
O252 C266 1.253 . S
Mg253 O252 1.990 . S
Mg253 O256 2.180 . S
Mg253 O257 2.117 . S
Mg253 O271 2.030 . S
O254 Mg255 2.072 . S
O254 C266 1.260 . S
Mg255 O254 2.072 . S
Mg255 O256 2.099 . S
Mg255 O258 2.079 . S
Mg255 O259 2.072 . S
Mg255 O261 2.099 . S
Mg255 O272 2.079 . S
O256 Mg253 2.180 . S
O256 Mg255 2.099 . S
O256 C267 1.279 . S
O257 Mg253 2.117 . S
O257 C267 1.250 . S
O258 Mg255 2.079 . S
O258 C268 1.264 . S
O259 Mg255 2.072 . S
O259 C269 1.260 . S
Mg260 O261 2.180 . S
Mg260 O262 2.030 . S
Mg260 O263 1.990 . S
Mg260 O264 2.117 . S
O261 Mg255 2.099 . S
O261 Mg260 2.180 . S
O261 C270 1.279 . S
O262 Mg260 2.030 . S
O262 C268 1.248 . S
O263 Mg260 1.990 . S
O263 C269 1.253 . S
O264 Mg260 2.117 . S
O264 C270 1.250 . S
C265 O271 1.248 . S
C265 O272 1.264 . S
C266 O252 1.253 . S
C266 O254 1.260 . S
C267 O256 1.279 . S
C267 O257 1.250 . S
C268 O258 1.264 . S
C268 O262 1.248 . S
C269 O259 1.260 . S
C269 O263 1.253 . S
C270 O261 1.279 . S
C270 O264 1.250 . S
O271 Mg253 2.030 . S
O271 C265 1.248 . S
O272 Mg255 2.079 . S
O272 C265 1.264 . S
O273 Mg274 1.990 . S
O273 C287 1.253 . S
Mg274 O273 1.990 . S
Mg274 O277 2.180 . S
Mg274 O278 2.117 . S
Mg274 O292 2.030 . S
O275 Mg276 2.072 . S
O275 C287 1.260 . S
Mg276 O275 2.072 . S
Mg276 O277 2.099 . S
Mg276 O279 2.079 . S
Mg276 O280 2.072 . S
Mg276 O282 2.099 . S
Mg276 O293 2.079 . S
O277 Mg274 2.180 . S
O277 Mg276 2.099 . S
O277 C288 1.279 . S
O278 Mg274 2.117 . S
O278 C288 1.250 . S
O279 Mg276 2.079 . S
O279 C289 1.264 . S
O280 Mg276 2.072 . S
O280 C290 1.260 . S
Mg281 O282 2.180 . S
Mg281 O283 2.030 . S
Mg281 O284 1.990 . S
Mg281 O285 2.117 . S
O282 Mg276 2.099 . S
O282 Mg281 2.180 . S
O282 C291 1.279 . S
O283 Mg281 2.030 . S
O283 C289 1.248 . S
O284 Mg281 1.990 . S
O284 C290 1.253 . S
O285 Mg281 2.117 . S
O285 C291 1.250 . S
C286 O292 1.248 . S
C286 O293 1.264 . S
C287 O273 1.253 . S
C287 O275 1.260 . S
C288 O277 1.279 . S
C288 O278 1.250 . S
C289 O279 1.264 . S
C289 O283 1.248 . S
C290 O280 1.260 . S
C290 O284 1.253 . S
C291 O282 1.279 . S
C291 O285 1.250 . S
O292 Mg274 2.030 . S
O292 C286 1.248 . S
O293 Mg276 2.079 . S
O293 C286 1.264 . S
O294 Mg295 1.990 . S
O294 C308 1.253 . S
Mg295 O294 1.990 . S
Mg295 O298 2.180 . S
Mg295 O299 2.117 . S
Mg295 O313 2.030 . S
O296 Mg297 2.072 . S
O296 C308 1.260 . S
Mg297 O296 2.072 . S
Mg297 O298 2.099 . S
Mg297 O300 2.079 . S
Mg297 O301 2.072 . S
Mg297 O303 2.099 . S
Mg297 O314 2.079 . S
O298 Mg295 2.180 . S
O298 Mg297 2.099 . S
O298 C309 1.279 . S
O299 Mg295 2.117 . S
O299 C309 1.250 . S
O300 Mg297 2.079 . S
O300 C310 1.264 . S
O301 Mg297 2.072 . S
O301 C311 1.260 . S
Mg302 O303 2.180 . S
Mg302 O304 2.030 . S
Mg302 O305 1.990 . S
Mg302 O306 2.117 . S
O303 Mg297 2.099 . S
O303 Mg302 2.180 . S
O303 C312 1.279 . S
O304 Mg302 2.030 . S
O304 C310 1.248 . S
O305 Mg302 1.990 . S
O305 C311 1.253 . S
O306 Mg302 2.117 . S
O306 C312 1.250 . S
C307 O313 1.248 . S
C307 O314 1.264 . S
C308 O294 1.253 . S
C308 O296 1.260 . S
C309 O298 1.279 . S
C309 O299 1.250 . S
C310 O300 1.264 . S
C310 O304 1.248 . S
C311 O301 1.260 . S
C311 O305 1.253 . S
C312 O303 1.279 . S
C312 O306 1.250 . S
O313 Mg295 2.030 . S
O313 C307 1.248 . S
O314 Mg297 2.079 . S
O314 C307 1.264 . S
O315 Mg316 1.990 . S
O315 C329 1.253 . S
Mg316 O315 1.990 . S
Mg316 O319 2.180 . S
Mg316 O320 2.117 . S
Mg316 O334 2.030 . S
O317 Mg318 2.072 . S
O317 C329 1.260 . S
Mg318 O317 2.072 . S
Mg318 O319 2.099 . S
Mg318 O321 2.079 . S
Mg318 O322 2.072 . S
Mg318 O324 2.099 . S
Mg318 O335 2.079 . S
O319 Mg316 2.180 . S
O319 Mg318 2.099 . S
O319 C330 1.279 . S
O320 Mg316 2.117 . S
O320 C330 1.250 . S
O321 Mg318 2.079 . S
O321 C331 1.264 . S
O322 Mg318 2.072 . S
O322 C332 1.260 . S
Mg323 O324 2.180 . S
Mg323 O325 2.030 . S
Mg323 O326 1.990 . S
Mg323 O327 2.117 . S
O324 Mg318 2.099 . S
O324 Mg323 2.180 . S
O324 C333 1.279 . S
O325 Mg323 2.030 . S
O325 C331 1.248 . S
O326 Mg323 1.990 . S
O326 C332 1.253 . S
O327 Mg323 2.117 . S
O327 C333 1.250 . S
C328 O334 1.248 . S
C328 O335 1.264 . S
C329 O315 1.253 . S
C329 O317 1.260 . S
C330 O319 1.279 . S
C330 O320 1.250 . S
C331 O321 1.264 . S
C331 O325 1.248 . S
C332 O322 1.260 . S
C332 O326 1.253 . S
C333 O324 1.279 . S
C333 O327 1.250 . S
O334 Mg316 2.030 . S
O334 C328 1.248 . S
O335 Mg318 2.079 . S
O335 C328 1.264 . S
O336 Mg337 1.990 . S
O336 C350 1.253 . S
Mg337 O336 1.990 . S
Mg337 O340 2.180 . S
Mg337 O341 2.117 . S
Mg337 O355 2.030 . S
O338 Mg339 2.072 . S
O338 C350 1.260 1_545 S
Mg339 O338 2.072 . S
Mg339 O340 2.102 1_545 S
Mg339 O342 2.079 1_545 S
Mg339 O343 2.073 1_545 S
Mg339 O345 2.096 . S
Mg339 O356 2.079 . S
O340 Mg337 2.180 . S
O340 Mg339 2.102 1_565 S
O340 C351 1.279 . S
O341 Mg337 2.117 . S
O341 C351 1.250 . S
O342 Mg339 2.079 1_565 S
O342 C352 1.264 1_565 S
O343 Mg339 2.073 1_565 S
O343 C353 1.260 1_565 S
Mg344 O345 2.180 . S
Mg344 O346 2.030 . S
Mg344 O347 1.990 . S
Mg344 O348 2.117 . S
O345 Mg339 2.096 . S
O345 Mg344 2.180 . S
O345 C354 1.279 . S
O346 Mg344 2.030 . S
O346 C352 1.248 . S
O347 Mg344 1.990 . S
O347 C353 1.253 . S
O348 Mg344 2.117 . S
O348 C354 1.250 . S
C349 O355 1.248 . S
C349 O356 1.261 1_565 S
C350 O336 1.253 . S
C350 O338 1.260 1_565 S
C351 O340 1.279 . S
C351 O341 1.250 . S
C352 O342 1.264 1_545 S
C352 O346 1.248 . S
C353 O343 1.260 1_545 S
C353 O347 1.253 . S
C354 O345 1.279 . S
C354 O348 1.250 . S
O355 Mg337 2.030 . S
O355 C349 1.248 . S
O356 Mg339 2.079 . S
O356 C349 1.261 1_545 S
O357 Mg358 1.990 . S
O357 C371 1.253 . S
Mg358 O357 1.990 . S
Mg358 O361 2.180 . S
Mg358 O362 2.117 . S
Mg358 O376 2.030 . S
O359 Mg360 2.072 . S
O359 C371 1.260 . S
Mg360 O359 2.072 . S
Mg360 O361 2.099 . S
Mg360 O363 2.079 . S
Mg360 O364 2.072 . S
Mg360 O366 2.099 . S
Mg360 O377 2.079 . S
O361 Mg358 2.180 . S
O361 Mg360 2.099 . S
O361 C372 1.279 . S
O362 Mg358 2.117 . S
O362 C372 1.250 . S
O363 Mg360 2.079 . S
O363 C373 1.264 . S
O364 Mg360 2.072 . S
O364 C374 1.260 . S
Mg365 O366 2.180 . S
Mg365 O367 2.030 . S
Mg365 O368 1.990 . S
Mg365 O369 2.117 . S
O366 Mg360 2.099 . S
O366 Mg365 2.180 . S
O366 C375 1.279 . S
O367 Mg365 2.030 . S
O367 C373 1.248 . S
O368 Mg365 1.990 . S
O368 C374 1.253 . S
O369 Mg365 2.117 . S
O369 C375 1.250 . S
C370 O376 1.248 . S
C370 O377 1.264 . S
C371 O357 1.253 . S
C371 O359 1.260 . S
C372 O361 1.279 . S
C372 O362 1.250 . S
C373 O363 1.264 . S
C373 O367 1.248 . S
C374 O364 1.260 . S
C374 O368 1.253 . S
C375 O366 1.279 . S
C375 O369 1.250 . S
O376 Mg358 2.030 . S
O376 C370 1.248 . S
O377 Mg360 2.079 . S
O377 C370 1.264 . S
O378 Mg379 1.990 . S
O378 C392 1.253 . S
Mg379 O378 1.990 . S
Mg379 O382 2.180 . S
Mg379 O383 2.117 . S
Mg379 O397 2.030 . S
O380 Mg381 2.072 . S
O380 C392 1.260 . S
Mg381 O380 2.072 . S
Mg381 O382 2.099 . S
Mg381 O384 2.079 . S
Mg381 O385 2.072 . S
Mg381 O387 2.099 . S
Mg381 O398 2.079 . S
O382 Mg379 2.180 . S
O382 Mg381 2.099 . S
O382 C393 1.279 . S
O383 Mg379 2.117 . S
O383 C393 1.250 . S
O384 Mg381 2.079 . S
O384 C394 1.264 . S
O385 Mg381 2.072 . S
O385 C395 1.260 . S
Mg386 O387 2.180 . S
Mg386 O388 2.030 . S
Mg386 O389 1.990 . S
Mg386 O390 2.117 . S
O387 Mg381 2.099 . S
O387 Mg386 2.180 . S
O387 C396 1.279 . S
O388 Mg386 2.030 . S
O388 C394 1.248 . S
O389 Mg386 1.990 . S
O389 C395 1.253 . S
O390 Mg386 2.117 . S
O390 C396 1.250 . S
C391 O397 1.248 . S
C391 O398 1.264 . S
C392 O378 1.253 . S
C392 O380 1.260 . S
C393 O382 1.279 . S
C393 O383 1.250 . S
C394 O384 1.264 . S
C394 O388 1.248 . S
C395 O385 1.260 . S
C395 O389 1.253 . S
C396 O387 1.279 . S
C396 O390 1.250 . S
O397 Mg379 2.030 . S
O397 C391 1.248 . S
O398 Mg381 2.079 . S
O398 C391 1.264 . S
O399 Mg400 1.990 . S
O399 C413 1.253 . S
Mg400 O399 1.990 . S
Mg400 O403 2.180 . S
Mg400 O404 2.117 . S
Mg400 O418 2.030 . S
O401 Mg402 2.072 . S
O401 C413 1.260 1_545 S
Mg402 O401 2.072 . S
Mg402 O403 2.102 1_545 S
Mg402 O405 2.079 1_545 S
Mg402 O406 2.073 1_545 S
Mg402 O408 2.096 . S
Mg402 O419 2.079 . S
O403 Mg400 2.180 . S
O403 Mg402 2.102 1_565 S
O403 C414 1.279 . S
O404 Mg400 2.117 . S
O404 C414 1.250 . S
O405 Mg402 2.079 1_565 S
O405 C415 1.264 1_565 S
O406 Mg402 2.073 1_565 S
O406 C416 1.260 1_565 S
Mg407 O408 2.180 . S
Mg407 O409 2.030 . S
Mg407 O410 1.990 . S
Mg407 O411 2.117 . S
O408 Mg402 2.096 . S
O408 Mg407 2.180 . S
O408 C417 1.279 . S
O409 Mg407 2.030 . S
O409 C415 1.248 . S
O410 Mg407 1.990 . S
O410 C416 1.253 . S
O411 Mg407 2.117 . S
O411 C417 1.250 . S
C412 O418 1.248 . S
C412 O419 1.261 1_565 S
C413 O399 1.253 . S
C413 O401 1.260 1_565 S
C414 O403 1.279 . S
C414 O404 1.250 . S
C415 O405 1.264 1_545 S
C415 O409 1.248 . S
C416 O406 1.260 1_545 S
C416 O410 1.253 . S
C417 O408 1.279 . S
C417 O411 1.250 . S
O418 Mg400 2.030 . S
O418 C412 1.248 . S
O419 Mg402 2.079 . S
O419 C412 1.261 1_545 S
O420 Mg421 1.990 . S
O420 C434 1.253 . S
Mg421 O420 1.990 . S
Mg421 O424 2.180 . S
Mg421 O425 2.117 . S
Mg421 O439 2.030 . S
O422 Mg423 2.072 . S
O422 C434 1.260 1_565 S
Mg423 O422 2.072 . S
Mg423 O424 2.102 1_565 S
Mg423 O426 2.079 1_565 S
Mg423 O427 2.073 1_565 S
Mg423 O429 2.096 . S
Mg423 O440 2.079 . S
O424 Mg421 2.180 . S
O424 Mg423 2.102 1_545 S
O424 C435 1.279 . S
O425 Mg421 2.117 . S
O425 C435 1.250 . S
O426 Mg423 2.079 1_545 S
O426 C436 1.264 1_545 S
O427 Mg423 2.073 1_545 S
O427 C437 1.260 1_545 S
Mg428 O429 2.180 . S
Mg428 O430 2.030 . S
Mg428 O431 1.990 . S
Mg428 O432 2.117 . S
O429 Mg423 2.096 . S
O429 Mg428 2.180 . S
O429 C438 1.279 . S
O430 Mg428 2.030 . S
O430 C436 1.248 . S
O431 Mg428 1.990 . S
O431 C437 1.253 . S
O432 Mg428 2.117 . S
O432 C438 1.250 . S
C433 O439 1.248 . S
C433 O440 1.261 1_545 S
C434 O420 1.253 . S
C434 O422 1.260 1_545 S
C435 O424 1.279 . S
C435 O425 1.250 . S
C436 O426 1.264 1_565 S
C436 O430 1.248 . S
C437 O427 1.260 1_565 S
C437 O431 1.253 . S
C438 O429 1.279 . S
C438 O432 1.250 . S
O439 Mg421 2.030 . S
O439 C433 1.248 . S
O440 Mg423 2.079 . S
O440 C433 1.261 1_565 S
O441 Mg442 1.990 . S
O441 C455 1.253 . S
Mg442 O441 1.990 . S
Mg442 O445 2.180 . S
Mg442 O446 2.117 . S
Mg442 O460 2.030 . S
O443 Mg444 2.072 . S
O443 C455 1.260 . S
Mg444 O443 2.072 . S
Mg444 O445 2.099 . S
Mg444 O447 2.079 . S
Mg444 O448 2.072 . S
Mg444 O450 2.099 . S
Mg444 O461 2.079 . S
O445 Mg442 2.180 . S
O445 Mg444 2.099 . S
O445 C456 1.279 . S
O446 Mg442 2.117 . S
O446 C456 1.250 . S
O447 Mg444 2.079 . S
O447 C457 1.264 . S
O448 Mg444 2.072 . S
O448 C458 1.260 . S
Mg449 O450 2.180 . S
Mg449 O451 2.030 . S
Mg449 O452 1.990 . S
Mg449 O453 2.117 . S
O450 Mg444 2.099 . S
O450 Mg449 2.180 . S
O450 C459 1.279 . S
O451 Mg449 2.030 . S
O451 C457 1.248 . S
O452 Mg449 1.990 . S
O452 C458 1.253 . S
O453 Mg449 2.117 . S
O453 C459 1.250 . S
C454 O460 1.248 . S
C454 O461 1.264 . S
C455 O441 1.253 . S
C455 O443 1.260 . S
C456 O445 1.279 . S
C456 O446 1.250 . S
C457 O447 1.264 . S
C457 O451 1.248 . S
C458 O448 1.260 . S
C458 O452 1.253 . S
C459 O450 1.279 . S
C459 O453 1.250 . S
O460 Mg442 2.030 . S
O460 C454 1.248 . S
O461 Mg444 2.079 . S
O461 C454 1.264 . S
O462 Mg463 1.990 . S
O462 C476 1.253 . S
Mg463 O462 1.990 . S
Mg463 O466 2.180 . S
Mg463 O467 2.117 . S
Mg463 O481 2.030 . S
O464 Mg465 2.072 . S
O464 C476 1.260 . S
Mg465 O464 2.072 . S
Mg465 O466 2.099 . S
Mg465 O468 2.079 . S
Mg465 O469 2.072 . S
Mg465 O471 2.099 . S
Mg465 O482 2.079 . S
O466 Mg463 2.180 . S
O466 Mg465 2.099 . S
O466 C477 1.279 . S
O467 Mg463 2.117 . S
O467 C477 1.250 . S
O468 Mg465 2.079 . S
O468 C478 1.264 . S
O469 Mg465 2.072 . S
O469 C479 1.260 . S
Mg470 O471 2.180 . S
Mg470 O472 2.030 . S
Mg470 O473 1.990 . S
Mg470 O474 2.117 . S
O471 Mg465 2.099 . S
O471 Mg470 2.180 . S
O471 C480 1.279 . S
O472 Mg470 2.030 . S
O472 C478 1.248 . S
O473 Mg470 1.990 . S
O473 C479 1.253 . S
O474 Mg470 2.117 . S
O474 C480 1.250 . S
C475 O481 1.248 . S
C475 O482 1.264 . S
C476 O462 1.253 . S
C476 O464 1.260 . S
C477 O466 1.279 . S
C477 O467 1.250 . S
C478 O468 1.264 . S
C478 O472 1.248 . S
C479 O469 1.260 . S
C479 O473 1.253 . S
C480 O471 1.279 . S
C480 O474 1.250 . S
O481 Mg463 2.030 . S
O481 C475 1.248 . S
O482 Mg465 2.079 . S
O482 C475 1.264 . S
O483 Mg484 1.990 . S
O483 C497 1.253 . S
Mg484 O483 1.990 . S
Mg484 O487 2.180 . S
Mg484 O488 2.117 . S
Mg484 O502 2.030 . S
O485 Mg486 2.072 . S
O485 C497 1.260 1_565 S
Mg486 O485 2.072 . S
Mg486 O487 2.102 1_565 S
Mg486 O489 2.079 1_565 S
Mg486 O490 2.073 1_565 S
Mg486 O492 2.096 . S
Mg486 O503 2.079 . S
O487 Mg484 2.180 . S
O487 Mg486 2.102 1_545 S
O487 C498 1.279 . S
O488 Mg484 2.117 . S
O488 C498 1.250 . S
O489 Mg486 2.079 1_545 S
O489 C499 1.264 1_545 S
O490 Mg486 2.073 1_545 S
O490 C500 1.260 1_545 S
Mg491 O492 2.180 . S
Mg491 O493 2.030 . S
Mg491 O494 1.990 . S
Mg491 O495 2.117 . S
O492 Mg486 2.096 . S
O492 Mg491 2.180 . S
O492 C501 1.279 . S
O493 Mg491 2.030 . S
O493 C499 1.248 . S
O494 Mg491 1.990 . S
O494 C500 1.253 . S
O495 Mg491 2.117 . S
O495 C501 1.250 . S
C496 O502 1.248 . S
C496 O503 1.261 1_545 S
C497 O483 1.253 . S
C497 O485 1.260 1_545 S
C498 O487 1.279 . S
C498 O488 1.250 . S
C499 O489 1.264 1_565 S
C499 O493 1.248 . S
C500 O490 1.260 1_565 S
C500 O494 1.253 . S
C501 O492 1.279 . S
C501 O495 1.250 . S
O502 Mg484 2.030 . S
O502 C496 1.248 . S
O503 Mg486 2.079 . S
O503 C496 1.261 1_565 S
O504 Mg505 1.990 . S
O504 C518 1.253 . S
Mg505 O504 1.990 . S
Mg505 O508 2.180 . S
Mg505 O509 2.117 . S
Mg505 O523 2.030 . S
O506 Mg507 2.072 . S
O506 C518 1.260 . S
Mg507 O506 2.072 . S
Mg507 O508 2.099 . S
Mg507 O510 2.079 . S
Mg507 O511 2.072 . S
Mg507 O513 2.099 . S
Mg507 O524 2.079 . S
O508 Mg505 2.180 . S
O508 Mg507 2.099 . S
O508 C519 1.279 . S
O509 Mg505 2.117 . S
O509 C519 1.250 . S
O510 Mg507 2.079 . S
O510 C520 1.264 1_554 S
O511 Mg507 2.072 . S
O511 C521 1.260 1_554 S
Mg512 O513 2.180 1_556 S
Mg512 O514 2.030 . S
Mg512 O515 1.990 . S
Mg512 O516 2.117 1_556 S
O513 Mg507 2.099 . S
O513 Mg512 2.180 1_554 S
O513 C522 1.279 . S
O514 Mg512 2.030 . S
O514 C520 1.248 . S
O515 Mg512 1.990 . S
O515 C521 1.253 . S
O516 Mg512 2.117 1_554 S
O516 C522 1.250 . S
C517 O523 1.248 . S
C517 O524 1.264 . S
C518 O504 1.253 . S
C518 O506 1.260 . S
C519 O508 1.279 . S
C519 O509 1.250 . S
C520 O510 1.264 1_556 S
C520 O514 1.248 . S
C521 O511 1.260 1_556 S
C521 O515 1.253 . S
C522 O513 1.279 . S
C522 O516 1.250 . S
O523 Mg505 2.030 . S
O523 C517 1.248 . S
O524 Mg507 2.079 . S
O524 C517 1.264 . S
O525 Mg526 1.990 . S
O525 C539 1.253 . S
Mg526 O525 1.990 . S
Mg526 O529 2.180 . S
Mg526 O530 2.117 . S
Mg526 O544 2.030 . S
O527 Mg528 2.072 . S
O527 C539 1.260 . S
Mg528 O527 2.072 . S
Mg528 O529 2.099 . S
Mg528 O531 2.079 . S
Mg528 O532 2.072 . S
Mg528 O534 2.099 . S
Mg528 O545 2.079 . S
O529 Mg526 2.180 . S
O529 Mg528 2.099 . S
O529 C540 1.279 . S
O530 Mg526 2.117 . S
O530 C540 1.250 . S
O531 Mg528 2.079 . S
O531 C541 1.264 1_554 S
O532 Mg528 2.072 . S
O532 C542 1.260 1_554 S
Mg533 O534 2.180 1_556 S
Mg533 O535 2.030 . S
Mg533 O536 1.990 . S
Mg533 O537 2.117 1_556 S
O534 Mg528 2.099 . S
O534 Mg533 2.180 1_554 S
O534 C543 1.279 . S
O535 Mg533 2.030 . S
O535 C541 1.248 . S
O536 Mg533 1.990 . S
O536 C542 1.253 . S
O537 Mg533 2.117 1_554 S
O537 C543 1.250 . S
C538 O544 1.248 . S
C538 O545 1.264 . S
C539 O525 1.253 . S
C539 O527 1.260 . S
C540 O529 1.279 . S
C540 O530 1.250 . S
C541 O531 1.264 1_556 S
C541 O535 1.248 . S
C542 O532 1.260 1_556 S
C542 O536 1.253 . S
C543 O534 1.279 . S
C543 O537 1.250 . S
O544 Mg526 2.030 . S
O544 C538 1.248 . S
O545 Mg528 2.079 . S
O545 C538 1.264 . S
O546 Mg547 1.990 . S
O546 C560 1.253 . S
Mg547 O546 1.990 . S
Mg547 O550 2.180 . S
Mg547 O551 2.117 . S
Mg547 O565 2.030 . S
O548 Mg549 2.072 . S
O548 C560 1.260 . S
Mg549 O548 2.072 . S
Mg549 O550 2.099 . S
Mg549 O552 2.079 . S
Mg549 O553 2.072 . S
Mg549 O555 2.099 . S
Mg549 O566 2.079 . S
O550 Mg547 2.180 . S
O550 Mg549 2.099 . S
O550 C561 1.279 . S
O551 Mg547 2.117 . S
O551 C561 1.250 . S
O552 Mg549 2.079 . S
O552 C562 1.264 . S
O553 Mg549 2.072 . S
O553 C563 1.260 . S
Mg554 O555 2.180 . S
Mg554 O556 2.030 . S
Mg554 O557 1.990 . S
Mg554 O558 2.117 . S
O555 Mg549 2.099 . S
O555 Mg554 2.180 . S
O555 C564 1.279 . S
O556 Mg554 2.030 . S
O556 C562 1.248 . S
O557 Mg554 1.990 . S
O557 C563 1.253 . S
O558 Mg554 2.117 . S
O558 C564 1.250 . S
C559 O565 1.248 . S
C559 O566 1.264 . S
C560 O546 1.253 . S
C560 O548 1.260 . S
C561 O550 1.279 . S
C561 O551 1.250 . S
C562 O552 1.264 . S
C562 O556 1.248 . S
C563 O553 1.260 . S
C563 O557 1.253 . S
C564 O555 1.279 . S
C564 O558 1.250 . S
O565 Mg547 2.030 . S
O565 C559 1.248 . S
O566 Mg549 2.079 . S
O566 C559 1.264 . S
O567 Mg568 1.990 . S
O567 C581 1.253 . S
Mg568 O567 1.990 . S
Mg568 O571 2.180 . S
Mg568 O572 2.117 . S
Mg568 O586 2.030 . S
O569 Mg570 2.072 . S
O569 C581 1.260 . S
Mg570 O569 2.072 . S
Mg570 O571 2.099 . S
Mg570 O573 2.079 . S
Mg570 O574 2.072 . S
Mg570 O576 2.099 . S
Mg570 O587 2.079 . S
O571 Mg568 2.180 . S
O571 Mg570 2.099 . S
O571 C582 1.279 . S
O572 Mg568 2.117 . S
O572 C582 1.250 . S
O573 Mg570 2.079 . S
O573 C583 1.264 . S
O574 Mg570 2.072 . S
O574 C584 1.260 . S
Mg575 O576 2.180 . S
Mg575 O577 2.030 . S
Mg575 O578 1.990 . S
Mg575 O579 2.117 . S
O576 Mg570 2.099 . S
O576 Mg575 2.180 . S
O576 C585 1.279 . S
O577 Mg575 2.030 . S
O577 C583 1.248 . S
O578 Mg575 1.990 . S
O578 C584 1.253 . S
O579 Mg575 2.117 . S
O579 C585 1.250 . S
C580 O586 1.248 . S
C580 O587 1.264 . S
C581 O567 1.253 . S
C581 O569 1.260 . S
C582 O571 1.279 . S
C582 O572 1.250 . S
C583 O573 1.264 . S
C583 O577 1.248 . S
C584 O574 1.260 . S
C584 O578 1.253 . S
C585 O576 1.279 . S
C585 O579 1.250 . S
O586 Mg568 2.030 . S
O586 C580 1.248 . S
O587 Mg570 2.079 . S
O587 C580 1.264 . S
O588 Mg589 1.990 . S
O588 C602 1.253 . S
Mg589 O588 1.990 . S
Mg589 O592 2.180 . S
Mg589 O593 2.117 . S
Mg589 O607 2.030 . S
O590 Mg591 2.072 . S
O590 C602 1.260 . S
Mg591 O590 2.072 . S
Mg591 O592 2.099 . S
Mg591 O594 2.079 . S
Mg591 O595 2.072 . S
Mg591 O597 2.099 . S
Mg591 O608 2.079 . S
O592 Mg589 2.180 . S
O592 Mg591 2.099 . S
O592 C603 1.279 . S
O593 Mg589 2.117 . S
O593 C603 1.250 . S
O594 Mg591 2.079 . S
O594 C604 1.264 1_556 S
O595 Mg591 2.072 . S
O595 C605 1.260 1_556 S
Mg596 O597 2.180 1_554 S
Mg596 O598 2.030 . S
Mg596 O599 1.990 . S
Mg596 O600 2.117 1_554 S
O597 Mg591 2.099 . S
O597 Mg596 2.180 1_556 S
O597 C606 1.279 . S
O598 Mg596 2.030 . S
O598 C604 1.248 . S
O599 Mg596 1.990 . S
O599 C605 1.253 . S
O600 Mg596 2.117 1_556 S
O600 C606 1.250 . S
C601 O607 1.248 . S
C601 O608 1.264 . S
C602 O588 1.253 . S
C602 O590 1.260 . S
C603 O592 1.279 . S
C603 O593 1.250 . S
C604 O594 1.264 1_554 S
C604 O598 1.248 . S
C605 O595 1.260 1_554 S
C605 O599 1.253 . S
C606 O597 1.279 . S
C606 O600 1.250 . S
O607 Mg589 2.030 . S
O607 C601 1.248 . S
O608 Mg591 2.079 . S
O608 C601 1.264 . S
O609 Mg610 1.990 . S
O609 C623 1.253 . S
Mg610 O609 1.990 . S
Mg610 O613 2.180 . S
Mg610 O614 2.117 . S
Mg610 O628 2.030 . S
O611 Mg612 2.072 . S
O611 C623 1.260 . S
Mg612 O611 2.072 . S
Mg612 O613 2.099 . S
Mg612 O615 2.079 . S
Mg612 O616 2.072 . S
Mg612 O618 2.099 . S
Mg612 O629 2.079 . S
O613 Mg610 2.180 . S
O613 Mg612 2.099 . S
O613 C624 1.279 . S
O614 Mg610 2.117 . S
O614 C624 1.250 . S
O615 Mg612 2.079 . S
O615 C625 1.264 1_556 S
O616 Mg612 2.072 . S
O616 C626 1.260 1_556 S
Mg617 O618 2.180 1_554 S
Mg617 O619 2.030 . S
Mg617 O620 1.990 . S
Mg617 O621 2.117 1_554 S
O618 Mg612 2.099 . S
O618 Mg617 2.180 1_556 S
O618 C627 1.279 . S
O619 Mg617 2.030 . S
O619 C625 1.248 . S
O620 Mg617 1.990 . S
O620 C626 1.253 . S
O621 Mg617 2.117 1_556 S
O621 C627 1.250 . S
C622 O628 1.248 . S
C622 O629 1.264 . S
C623 O609 1.253 . S
C623 O611 1.260 . S
C624 O613 1.279 . S
C624 O614 1.250 . S
C625 O615 1.264 1_554 S
C625 O619 1.248 . S
C626 O616 1.260 1_554 S
C626 O620 1.253 . S
C627 O618 1.279 . S
C627 O621 1.250 . S
O628 Mg610 2.030 . S
O628 C622 1.248 . S
O629 Mg612 2.079 . S
O629 C622 1.264 . S
O630 Mg631 1.990 . S
O630 C644 1.253 . S
Mg631 O630 1.990 . S
Mg631 O634 2.180 . S
Mg631 O635 2.117 . S
Mg631 O649 2.030 . S
O632 Mg633 2.072 . S
O632 C644 1.260 . S
Mg633 O632 2.072 . S
Mg633 O634 2.099 . S
Mg633 O636 2.079 . S
Mg633 O637 2.072 . S
Mg633 O639 2.099 . S
Mg633 O650 2.079 . S
O634 Mg631 2.180 . S
O634 Mg633 2.099 . S
O634 C645 1.279 . S
O635 Mg631 2.117 . S
O635 C645 1.250 . S
O636 Mg633 2.079 . S
O636 C646 1.264 . S
O637 Mg633 2.072 . S
O637 C647 1.260 . S
Mg638 O639 2.180 . S
Mg638 O640 2.030 . S
Mg638 O641 1.990 . S
Mg638 O642 2.117 . S
O639 Mg633 2.099 . S
O639 Mg638 2.180 . S
O639 C648 1.279 . S
O640 Mg638 2.030 . S
O640 C646 1.248 . S
O641 Mg638 1.990 . S
O641 C647 1.253 . S
O642 Mg638 2.117 . S
O642 C648 1.250 . S
C643 O649 1.248 . S
C643 O650 1.264 . S
C644 O630 1.253 . S
C644 O632 1.260 . S
C645 O634 1.279 . S
C645 O635 1.250 . S
C646 O636 1.264 . S
C646 O640 1.248 . S
C647 O637 1.260 . S
C647 O641 1.253 . S
C648 O639 1.279 . S
C648 O642 1.250 . S
O649 Mg631 2.030 . S
O649 C643 1.248 . S
O650 Mg633 2.079 . S
O650 C643 1.264 . S
O651 Mg652 1.990 . S
O651 C665 1.253 . S
Mg652 O651 1.990 . S
Mg652 O655 2.180 . S
Mg652 O656 2.117 . S
Mg652 O670 2.030 . S
O653 Mg654 2.072 . S
O653 C665 1.260 . S
Mg654 O653 2.072 . S
Mg654 O655 2.099 . S
Mg654 O657 2.079 . S
Mg654 O658 2.072 . S
Mg654 O660 2.099 . S
Mg654 O671 2.079 . S
O655 Mg652 2.180 . S
O655 Mg654 2.099 . S
O655 C666 1.279 . S
O656 Mg652 2.117 . S
O656 C666 1.250 . S
O657 Mg654 2.079 . S
O657 C667 1.264 . S
O658 Mg654 2.072 . S
O658 C668 1.260 . S
Mg659 O660 2.180 . S
Mg659 O661 2.030 . S
Mg659 O662 1.990 . S
Mg659 O663 2.117 . S
O660 Mg654 2.099 . S
O660 Mg659 2.180 . S
O660 C669 1.279 . S
O661 Mg659 2.030 . S
O661 C667 1.248 . S
O662 Mg659 1.990 . S
O662 C668 1.253 . S
O663 Mg659 2.117 . S
O663 C669 1.250 . S
C664 O670 1.248 . S
C664 O671 1.264 . S
C665 O651 1.253 . S
C665 O653 1.260 . S
C666 O655 1.279 . S
C666 O656 1.250 . S
C667 O657 1.264 . S
C667 O661 1.248 . S
C668 O658 1.260 . S
C668 O662 1.253 . S
C669 O660 1.279 . S
C669 O663 1.250 . S
O670 Mg652 2.030 . S
O670 C664 1.248 . S
O671 Mg654 2.079 . S
O671 C664 1.264 . S
C672 C673 1.385 . S
C672 H676 0.952 1_554 S
C672 C681 1.390 . S
C673 C672 1.385 . S
C673 C675 1.387 . S
H674 C681 0.952 1_556 S
C675 C673 1.387 . S
C675 C677 1.390 . S
C675 H679 0.950 . S
H676 C672 0.952 1_556 S
C677 C675 1.390 . S
C677 C678 1.387 . S
C677 H680 0.950 . S
C678 C677 1.387 . S
C678 C681 1.385 . S
H679 C675 0.950 . S
H680 C677 0.950 . S
C681 C672 1.390 . S
C681 H674 0.952 1_554 S
C681 C678 1.385 . S
C682 C683 1.385 . S
C682 H686 0.952 1_554 S
C682 C691 1.390 . S
C683 C682 1.385 . S
C683 C685 1.387 . S
H684 C691 0.952 1_556 S
C685 C683 1.387 . S
C685 C687 1.390 . S
C685 H689 0.950 . S
H686 C682 0.952 1_556 S
C687 C685 1.390 . S
C687 C688 1.387 . S
C687 H690 0.950 . S
C688 C687 1.387 . S
C688 C691 1.385 . S
H689 C685 0.950 . S
H690 C687 0.950 . S
C691 C682 1.390 . S
C691 H684 0.952 1_554 S
C691 C688 1.385 . S
C692 C693 1.387 . S
C692 H696 0.950 . S
C692 C701 1.390 . S
C693 C692 1.387 . S
C693 C695 1.387 . S
H694 C701 0.950 . S
C695 C693 1.387 . S
C695 C697 1.390 . S
C695 H699 0.950 . S
H696 C692 0.950 . S
C697 C695 1.390 . S
C697 C698 1.387 . S
C697 H700 0.950 . S
C698 C697 1.387 . S
C698 C701 1.387 . S
H699 C695 0.950 . S
H700 C697 0.950 . S
C701 C692 1.390 . S
C701 H694 0.950 . S
C701 C698 1.387 . S
C702 C703 1.387 . S
C702 H706 0.950 . S
C702 C711 1.390 . S
C703 C702 1.387 . S
C703 C705 1.387 . S
H704 C711 0.950 . S
C705 C703 1.387 . S
C705 C707 1.390 . S
C705 H709 0.950 . S
H706 C702 0.950 . S
C707 C705 1.390 . S
C707 C708 1.387 . S
C707 H710 0.950 . S
C708 C707 1.387 . S
C708 C711 1.387 . S
H709 C705 0.950 . S
H710 C707 0.950 . S
C711 C702 1.390 . S
C711 H704 0.950 . S
C711 C708 1.387 . S
C712 C713 1.387 . S
C712 H716 0.950 . S
C712 C721 1.390 . S
C713 C712 1.387 . S
C713 C715 1.385 . S
H714 C721 0.950 . S
C715 C713 1.385 . S
C715 C717 1.390 . S
C715 H719 0.952 1_556 S
H716 C712 0.950 . S
C717 C715 1.390 . S
C717 C718 1.385 . S
C717 H720 0.952 1_556 S
C718 C717 1.385 . S
C718 C721 1.387 . S
H719 C715 0.952 1_554 S
H720 C717 0.952 1_554 S
C721 C712 1.390 . S
C721 H714 0.950 . S
C721 C718 1.387 . S
C722 C723 1.385 . S
C722 H726 0.952 1_556 S
C722 C731 1.390 . S
C723 C722 1.385 . S
C723 C725 1.387 . S
H724 C731 0.952 1_554 S
C725 C723 1.387 . S
C725 C727 1.390 . S
C725 H729 0.950 . S
H726 C722 0.952 1_554 S
C727 C725 1.390 . S
C727 C728 1.387 . S
C727 H730 0.950 . S
C728 C727 1.387 . S
C728 C731 1.385 . S
H729 C725 0.950 . S
H730 C727 0.950 . S
C731 C722 1.390 . S
C731 H724 0.952 1_556 S
C731 C728 1.385 . S
C732 C733 1.387 . S
C732 H736 0.950 . S
C732 C741 1.390 . S
C733 C732 1.387 . S
C733 C735 1.387 . S
H734 C741 0.950 . S
C735 C733 1.387 . S
C735 C737 1.390 . S
C735 H739 0.950 . S
H736 C732 0.950 . S
C737 C735 1.390 . S
C737 C738 1.387 . S
C737 H740 0.950 . S
C738 C737 1.387 . S
C738 C741 1.387 . S
H739 C735 0.950 . S
H740 C737 0.950 . S
C741 C732 1.390 . S
C741 H734 0.950 . S
C741 C738 1.387 . S
C742 C743 1.387 . S
C742 H746 0.950 . S
C742 C751 1.390 . S
C743 C742 1.387 . S
C743 C745 1.387 . S
H744 C751 0.950 . S
C745 C743 1.387 . S
C745 C747 1.390 . S
C745 H749 0.950 . S
H746 C742 0.950 . S
C747 C745 1.390 . S
C747 C748 1.387 . S
C747 H750 0.950 . S
C748 C747 1.387 . S
C748 C751 1.387 . S
H749 C745 0.950 . S
H750 C747 0.950 . S
C751 C742 1.390 . S
C751 H744 0.950 . S
C751 C748 1.387 . S
C752 C753 1.387 . S
C752 H756 0.950 . S
C752 C761 1.390 . S
C753 C752 1.387 . S
C753 C755 1.387 . S
H754 C761 0.950 . S
C755 C753 1.387 . S
C755 C757 1.390 . S
C755 H759 0.950 . S
H756 C752 0.950 . S
C757 C755 1.390 . S
C757 C758 1.387 . S
C757 H760 0.950 . S
C758 C757 1.387 . S
C758 C761 1.387 . S
H759 C755 0.950 . S
H760 C757 0.950 . S
C761 C752 1.390 . S
C761 H754 0.950 . S
C761 C758 1.387 . S
C762 C763 1.387 . S
C762 H766 0.950 . S
C762 C771 1.390 . S
C763 C762 1.387 . S
C763 C765 1.387 . S
H764 C771 0.950 . S
C765 C763 1.387 . S
C765 C767 1.390 . S
C765 H769 0.950 . S
H766 C762 0.950 . S
C767 C765 1.390 . S
C767 C768 1.387 . S
C767 H770 0.950 . S
C768 C767 1.387 . S
C768 C771 1.387 . S
H769 C765 0.950 . S
H770 C767 0.950 . S
C771 C762 1.390 . S
C771 H764 0.950 . S
C771 C768 1.387 . S
C772 C773 1.387 . S
C772 H776 0.950 . S
C772 C781 1.390 . S
C773 C772 1.387 . S
C773 C775 1.387 . S
H774 C781 0.950 . S
C775 C773 1.387 . S
C775 C777 1.390 . S
C775 H779 0.950 . S
H776 C772 0.950 . S
C777 C775 1.390 . S
C777 C778 1.387 . S
C777 H780 0.950 . S
C778 C777 1.387 . S
C778 C781 1.387 . S
H779 C775 0.950 . S
H780 C777 0.950 . S
C781 C772 1.390 . S
C781 H774 0.950 . S
C781 C778 1.387 . S
C782 C783 1.387 . S
C782 H786 0.950 . S
C782 C791 1.390 . S
C783 C782 1.387 . S
C783 C785 1.387 . S
H784 C791 0.950 . S
C785 C783 1.387 . S
C785 C787 1.390 . S
C785 H789 0.950 . S
H786 C782 0.950 . S
C787 C785 1.390 . S
C787 C788 1.387 . S
C787 H790 0.950 . S
C788 C787 1.387 . S
C788 C791 1.387 . S
H789 C785 0.950 . S
H790 C787 0.950 . S
C791 C782 1.390 . S
C791 H784 0.950 . S
C791 C788 1.387 . S
C792 C793 1.387 . S
C792 H796 0.950 . S
C792 C801 1.390 . S
C793 C792 1.387 . S
C793 C795 1.387 . S
H794 C801 0.950 . S
C795 C793 1.387 . S
C795 C797 1.390 . S
C795 H799 0.950 . S
H796 C792 0.950 . S
C797 C795 1.390 . S
C797 C798 1.387 . S
C797 H800 0.950 . S
C798 C797 1.387 . S
C798 C801 1.387 . S
H799 C795 0.950 . S
H800 C797 0.950 . S
C801 C792 1.390 . S
C801 H794 0.950 . S
C801 C798 1.387 . S
C802 C803 1.387 . S
C802 H806 0.950 . S
C802 C811 1.390 . S
C803 C802 1.387 . S
C803 C805 1.387 . S
H804 C811 0.950 . S
C805 C803 1.387 . S
C805 C807 1.390 . S
C805 H809 0.950 . S
H806 C802 0.950 . S
C807 C805 1.390 . S
C807 C808 1.387 . S
C807 H810 0.950 . S
C808 C807 1.387 . S
C808 C811 1.387 . S
H809 C805 0.950 . S
H810 C807 0.950 . S
C811 C802 1.390 . S
C811 H804 0.950 . S
C811 C808 1.387 . S
C812 C813 1.387 . S
C812 H816 0.950 . S
C812 C821 1.390 . S
C813 C812 1.387 . S
C813 C815 1.387 . S
H814 C821 0.950 . S
C815 C813 1.387 . S
C815 C817 1.390 . S
C815 H819 0.950 . S
H816 C812 0.950 . S
C817 C815 1.390 . S
C817 C818 1.387 . S
C817 H820 0.950 . S
C818 C817 1.387 . S
C818 C821 1.387 . S
H819 C815 0.950 . S
H820 C817 0.950 . S
C821 C812 1.390 . S
C821 H814 0.950 . S
C821 C818 1.387 . S
C822 C823 1.387 . S
C822 H826 0.950 . S
C822 C831 1.390 . S
C823 C822 1.387 . S
C823 C825 1.387 . S
H824 C831 0.950 . S
C825 C823 1.387 . S
C825 C827 1.390 . S
C825 H829 0.950 . S
H826 C822 0.950 . S
C827 C825 1.390 . S
C827 C828 1.387 . S
C827 H830 0.950 . S
C828 C827 1.387 . S
C828 C831 1.387 . S
H829 C825 0.950 . S
H830 C827 0.950 . S
C831 C822 1.390 . S
C831 H824 0.950 . S
C831 C828 1.387 . S
C832 C833 1.387 . S
C832 H836 0.950 . S
C832 C841 1.390 . S
C833 C832 1.387 . S
C833 C835 1.387 1_565 S
H834 C841 0.950 . S
C835 C833 1.387 1_545 S
C835 C837 1.390 . S
C835 H839 0.950 . S
H836 C832 0.950 . S
C837 C835 1.390 . S
C837 C838 1.387 . S
C837 H840 0.950 . S
C838 C837 1.387 . S
C838 C841 1.387 1_545 S
H839 C835 0.950 . S
H840 C837 0.950 . S
C841 C832 1.390 . S
C841 H834 0.950 . S
C841 C838 1.387 1_565 S
C842 C843 1.387 . S
C842 H846 0.950 . S
C842 C851 1.390 1_455 S
C843 C842 1.387 . S
C843 C845 1.387 . S
H844 C851 0.950 . S
C845 C843 1.387 . S
C845 C847 1.390 1_455 S
C845 H849 0.950 . S
H846 C842 0.950 . S
C847 C845 1.390 1_655 S
C847 C848 1.387 . S
C847 H850 0.950 . S
C848 C847 1.387 . S
C848 C851 1.387 . S
H849 C845 0.950 . S
H850 C847 0.950 . S
C851 C842 1.390 1_655 S
C851 H844 0.950 . S
C851 C848 1.387 . S
C852 C853 1.387 . S
C852 H856 0.950 . S
C852 C861 1.390 1_556 S
C853 C852 1.387 . S
C853 C855 1.387 . S
H854 C861 0.950 . S
C855 C853 1.387 . S
C855 C857 1.390 1_556 S
C855 H859 0.950 . S
H856 C852 0.950 . S
C857 C855 1.390 1_554 S
C857 C858 1.387 . S
C857 H860 0.950 . S
C858 C857 1.387 . S
C858 C861 1.387 . S
H859 C855 0.950 . S
H860 C857 0.950 . S
C861 C852 1.390 1_554 S
C861 H854 0.950 . S
C861 C858 1.387 . S
C862 C863 1.387 . S
C862 H866 0.950 . S
C862 C871 1.390 1_654 S
C863 C862 1.387 . S
C863 C865 1.387 1_565 S
H864 C871 0.950 . S
C865 C863 1.387 1_545 S
C865 C867 1.390 1_654 S
C865 H869 0.950 . S
H866 C862 0.950 . S
C867 C865 1.390 1_456 S
C867 C868 1.387 . S
C867 H870 0.950 . S
C868 C867 1.387 . S
C868 C871 1.387 1_545 S
H869 C865 0.950 . S
H870 C867 0.950 . S
C871 C862 1.390 1_456 S
C871 H864 0.950 . S
C871 C868 1.387 1_565 S
C872 C873 1.387 . S
C872 H876 0.950 . S
C872 C881 1.390 . S
C873 C872 1.387 . S
C873 C875 1.387 1_545 S
H874 C881 0.950 . S
C875 C873 1.387 1_565 S
C875 C877 1.390 . S
C875 H879 0.950 . S
H876 C872 0.950 . S
C877 C875 1.390 . S
C877 C878 1.387 . S
C877 H880 0.950 . S
C878 C877 1.387 . S
C878 C881 1.387 1_565 S
H879 C875 0.950 . S
H880 C877 0.950 . S
C881 C872 1.390 . S
C881 H874 0.950 . S
C881 C878 1.387 1_545 S
C882 C883 1.387 . S
C882 H886 0.950 . S
C882 C891 1.390 1_455 S
C883 C882 1.387 . S
C883 C885 1.387 . S
H884 C891 0.950 . S
C885 C883 1.387 . S
C885 C887 1.390 1_455 S
C885 H889 0.950 . S
H886 C882 0.950 . S
C887 C885 1.390 1_655 S
C887 C888 1.387 . S
C887 H890 0.950 . S
C888 C887 1.387 . S
C888 C891 1.387 . S
H889 C885 0.950 . S
H890 C887 0.950 . S
C891 C882 1.390 1_655 S
C891 H884 0.950 . S
C891 C888 1.387 . S
C892 C893 1.387 . S
C892 H896 0.950 . S
C892 C901 1.390 1_556 S
C893 C892 1.387 . S
C893 C895 1.387 . S
H894 C901 0.950 . S
C895 C893 1.387 . S
C895 C897 1.390 1_556 S
C895 H899 0.950 . S
H896 C892 0.950 . S
C897 C895 1.390 1_554 S
C897 C898 1.387 . S
C897 H900 0.950 . S
C898 C897 1.387 . S
C898 C901 1.387 . S
H899 C895 0.950 . S
H900 C897 0.950 . S
C901 C892 1.390 1_554 S
C901 H894 0.950 . S
C901 C898 1.387 . S
C902 C903 1.387 . S
C902 H906 0.950 . S
C902 C911 1.390 . S
C903 C902 1.387 . S
C903 C905 1.387 . S
H904 C911 0.950 . S
C905 C903 1.387 . S
C905 C907 1.390 . S
C905 H909 0.950 . S
H906 C902 0.950 . S
C907 C905 1.390 . S
C907 C908 1.387 . S
C907 H910 0.950 . S
C908 C907 1.387 . S
C908 C911 1.387 . S
H909 C905 0.950 . S
H910 C907 0.950 . S
C911 C902 1.390 . S
C911 H904 0.950 . S
C911 C908 1.387 . S
C912 C913 1.387 . S
C912 H916 0.950 . S
C912 C921 1.390 . S
C913 C912 1.387 . S
C913 C915 1.387 . S
H914 C921 0.950 . S
C915 C913 1.387 . S
C915 C917 1.390 . S
C915 H919 0.950 . S
H916 C912 0.950 . S
C917 C915 1.390 . S
C917 C918 1.387 . S
C917 H920 0.950 . S
C918 C917 1.387 . S
C918 C921 1.387 . S
H919 C915 0.950 . S
H920 C917 0.950 . S
C921 C912 1.390 . S
C921 H914 0.950 . S
C921 C918 1.387 . S
C922 C923 1.387 . S
C922 H926 0.950 . S
C922 C931 1.390 1_455 S
C923 C922 1.387 . S
C923 C925 1.387 . S
H924 C931 0.950 . S
C925 C923 1.387 . S
C925 C927 1.390 1_455 S
C925 H929 0.950 . S
H926 C922 0.950 . S
C927 C925 1.390 1_655 S
C927 C928 1.387 . S
C927 H930 0.950 . S
C928 C927 1.387 . S
C928 C931 1.387 . S
H929 C925 0.950 . S
H930 C927 0.950 . S
C931 C922 1.390 1_655 S
C931 H924 0.950 . S
C931 C928 1.387 . S
C932 C933 1.387 . S
C932 H936 0.950 . S
C932 C941 1.390 . S
C933 C932 1.387 . S
C933 C935 1.387 . S
H934 C941 0.950 . S
C935 C933 1.387 . S
C935 C937 1.390 . S
C935 H939 0.950 . S
H936 C932 0.950 . S
C937 C935 1.390 . S
C937 C938 1.387 . S
C937 H940 0.950 . S
C938 C937 1.387 . S
C938 C941 1.387 . S
H939 C935 0.950 . S
H940 C937 0.950 . S
C941 C932 1.390 . S
C941 H934 0.950 . S
C941 C938 1.387 . S
C942 C943 1.387 . S
C942 H946 0.950 . S
C942 C951 1.390 . S
C943 C942 1.387 . S
C943 C945 1.387 . S
H944 C951 0.950 . S
C945 C943 1.387 . S
C945 C947 1.390 . S
C945 H949 0.950 . S
H946 C942 0.950 . S
C947 C945 1.390 . S
C947 C948 1.387 . S
C947 H950 0.950 . S
C948 C947 1.387 . S
C948 C951 1.387 . S
H949 C945 0.950 . S
H950 C947 0.950 . S
C951 C942 1.390 . S
C951 H944 0.950 . S
C951 C948 1.387 . S
C952 C953 1.387 . S
C952 H956 0.950 . S
C952 C961 1.390 . S
C953 C952 1.387 . S
C953 C955 1.387 . S
H954 C961 0.950 . S
C955 C953 1.387 . S
C955 C957 1.390 . S
C955 H959 0.950 . S
H956 C952 0.950 . S
C957 C955 1.390 . S
C957 C958 1.387 . S
C957 H960 0.950 . S
C958 C957 1.387 . S
C958 C961 1.387 . S
H959 C955 0.950 . S
H960 C957 0.950 . S
C961 C952 1.390 . S
C961 H954 0.950 . S
C961 C958 1.387 . S
C962 C963 1.387 . S
C962 H966 0.950 . S
C962 C971 1.390 . S
C963 C962 1.387 . S
C963 C965 1.387 1_565 S
H964 C971 0.950 . S
C965 C963 1.387 1_545 S
C965 C967 1.390 . S
C965 H969 0.950 . S
H966 C962 0.950 . S
C967 C965 1.390 . S
C967 C968 1.387 . S
C967 H970 0.950 . S
C968 C967 1.387 . S
C968 C971 1.387 1_545 S
H969 C965 0.950 . S
H970 C967 0.950 . S
C971 C962 1.390 . S
C971 H964 0.950 . S
C971 C968 1.387 1_565 S
C972 C973 1.387 . S
C972 H976 0.950 . S
C972 C981 1.390 . S
C973 C972 1.387 . S
C973 C975 1.387 . S
H974 C981 0.950 . S
C975 C973 1.387 . S
C975 C977 1.390 . S
C975 H979 0.950 . S
H976 C972 0.950 . S
C977 C975 1.390 . S
C977 C978 1.387 . S
C977 H980 0.950 . S
C978 C977 1.387 . S
C978 C981 1.387 . S
H979 C975 0.950 . S
H980 C977 0.950 . S
C981 C972 1.390 . S
C981 H974 0.950 . S
C981 C978 1.387 . S
C982 C983 1.387 . S
C982 H986 0.950 . S
C982 C991 1.390 1_554 S
C983 C982 1.387 . S
C983 C985 1.387 . S
H984 C991 0.950 . S
C985 C983 1.387 . S
C985 C987 1.390 1_554 S
C985 H989 0.950 . S
H986 C982 0.950 . S
C987 C985 1.390 1_556 S
C987 C988 1.387 . S
C987 H990 0.950 . S
C988 C987 1.387 . S
C988 C991 1.387 . S
H989 C985 0.950 . S
H990 C987 0.950 . S
C991 C982 1.390 1_556 S
C991 H984 0.950 . S
C991 C988 1.387 . S
C992 C993 1.387 . S
C992 H996 0.950 . S
C992 C1001 1.390 . S
C993 C992 1.387 . S
C993 C995 1.387 1_545 S
H994 C1001 0.950 . S
C995 C993 1.387 1_565 S
C995 C997 1.390 . S
C995 H999 0.950 . S
H996 C992 0.950 . S
C997 C995 1.390 . S
C997 C998 1.387 1_565 S
C997 H1000 0.950 . S
C998 C997 1.387 1_545 S
C998 C1001 1.387 . S
H999 C995 0.950 . S
H1000 C997 0.950 . S
C1001 C992 1.390 . S
C1001 H994 0.950 . S
C1001 C998 1.387 . S
C1002 C1003 1.387 . S
C1002 H1006 0.950 . S
C1002 C1011 1.390 . S
C1003 C1002 1.387 . S
C1003 C1005 1.387 . S
H1004 C1011 0.950 . S
C1005 C1003 1.387 . S
C1005 C1007 1.390 . S
C1005 H1009 0.950 . S
H1006 C1002 0.950 . S
C1007 C1005 1.390 . S
C1007 C1008 1.387 . S
C1007 H1010 0.950 . S
C1008 C1007 1.387 . S
C1008 C1011 1.387 . S
H1009 C1005 0.950 . S
H1010 C1007 0.950 . S
C1011 C1002 1.390 . S
C1011 H1004 0.950 . S
C1011 C1008 1.387 . S
C1012 C1013 1.387 . S
C1012 H1016 0.950 . S
C1012 C1021 1.390 . S
C1013 C1012 1.387 . S
C1013 C1015 1.387 . S
H1014 C1021 0.950 . S
C1015 C1013 1.387 . S
C1015 C1017 1.390 . S
C1015 H1019 0.950 . S
H1016 C1012 0.950 . S
C1017 C1015 1.390 . S
C1017 C1018 1.387 . S
C1017 H1020 0.950 . S
C1018 C1017 1.387 . S
C1018 C1021 1.387 . S
H1019 C1015 0.950 . S
H1020 C1017 0.950 . S
C1021 C1012 1.390 . S
C1021 H1014 0.950 . S
C1021 C1018 1.387 . S
C1022 C1023 1.387 1_565 S
C1022 H1026 0.950 . S
C1022 C1031 1.390 . S
C1023 C1022 1.387 1_545 S
C1023 C1025 1.387 . S
H1024 C1031 0.950 . S
C1025 C1023 1.387 . S
C1025 C1027 1.390 . S
C1025 H1029 0.950 . S
H1026 C1022 0.950 . S
C1027 C1025 1.390 . S
C1027 C1028 1.387 . S
C1027 H1030 0.950 . S
C1028 C1027 1.387 . S
C1028 C1031 1.387 1_545 S
H1029 C1025 0.950 . S
H1030 C1027 0.950 . S
C1031 C1022 1.390 . S
C1031 H1024 0.950 . S
C1031 C1028 1.387 1_565 S
C1032 C1033 1.387 . S
C1032 H1036 0.950 . S
C1032 C1041 1.390 . S
C1033 C1032 1.387 . S
C1033 C1035 1.387 1_565 S
H1034 C1041 0.950 . S
C1035 C1033 1.387 1_545 S
C1035 C1037 1.390 . S
C1035 H1039 0.950 . S
H1036 C1032 0.950 . S
C1037 C1035 1.390 . S
C1037 C1038 1.387 1_545 S
C1037 H1040 0.950 . S
C1038 C1037 1.387 1_565 S
C1038 C1041 1.387 . S
H1039 C1035 0.950 . S
H1040 C1037 0.950 . S
C1041 C1032 1.390 . S
C1041 H1034 0.950 . S
C1041 C1038 1.387 . S
C1042 C1043 1.387 . S
C1042 H1046 0.950 . S
C1042 C1051 1.390 . S
C1043 C1042 1.387 . S
C1043 C1045 1.387 . S
H1044 C1051 0.950 . S
C1045 C1043 1.387 . S
C1045 C1047 1.390 . S
C1045 H1049 0.950 . S
H1046 C1042 0.950 . S
C1047 C1045 1.390 . S
C1047 C1048 1.387 . S
C1047 H1050 0.950 . S
C1048 C1047 1.387 . S
C1048 C1051 1.387 . S
H1049 C1045 0.950 . S
H1050 C1047 0.950 . S
C1051 C1042 1.390 . S
C1051 H1044 0.950 . S
C1051 C1048 1.387 . S
C1052 C1053 1.387 . S
C1052 H1056 0.950 . S
C1052 C1061 1.390 . S
C1053 C1052 1.387 . S
C1053 C1055 1.387 . S
H1054 C1061 0.950 . S
C1055 C1053 1.387 . S
C1055 C1057 1.390 . S
C1055 H1059 0.950 . S
H1056 C1052 0.950 . S
C1057 C1055 1.390 . S
C1057 C1058 1.387 . S
C1057 H1060 0.950 . S
C1058 C1057 1.387 . S
C1058 C1061 1.387 . S
H1059 C1055 0.950 . S
H1060 C1057 0.950 . S
C1061 C1052 1.390 . S
C1061 H1054 0.950 . S
C1061 C1058 1.387 . S
C1062 C1063 1.387 . S
C1062 H1066 0.950 . S
C1062 C1071 1.390 . S
C1063 C1062 1.387 . S
C1063 C1065 1.387 1_565 S
H1064 C1071 0.950 . S
C1065 C1063 1.387 1_545 S
C1065 C1067 1.390 . S
C1065 H1069 0.950 . S
H1066 C1062 0.950 . S
C1067 C1065 1.390 . S
C1067 C1068 1.387 1_545 S
C1067 H1070 0.950 . S
C1068 C1067 1.387 1_565 S
C1068 C1071 1.387 . S
H1069 C1065 0.950 . S
H1070 C1067 0.950 . S
C1071 C1062 1.390 . S
C1071 H1064 0.950 . S
C1071 C1068 1.387 . S
C1072 C1073 1.387 . S
C1072 H1076 0.950 . S
C1072 C1081 1.390 . S
C1073 C1072 1.387 . S
C1073 C1075 1.387 . S
H1074 C1081 0.950 . S
C1075 C1073 1.387 . S
C1075 C1077 1.390 . S
C1075 H1079 0.950 . S
H1076 C1072 0.950 . S
C1077 C1075 1.390 . S
C1077 C1078 1.387 . S
C1077 H1080 0.950 . S
C1078 C1077 1.387 . S
C1078 C1081 1.387 . S
H1079 C1075 0.950 . S
H1080 C1077 0.950 . S
C1081 C1072 1.390 . S
C1081 H1074 0.950 . S
C1081 C1078 1.387 . S
C1082 C1083 1.387 . S
C1082 H1086 0.950 . S
C1082 C1091 1.390 . S
C1083 C1082 1.387 . S
C1083 C1085 1.387 . S
H1084 C1091 0.950 . S
C1085 C1083 1.387 . S
C1085 C1087 1.390 . S
C1085 H1089 0.950 . S
H1086 C1082 0.950 . S
C1087 C1085 1.390 . S
C1087 C1088 1.387 . S
C1087 H1090 0.950 . S
C1088 C1087 1.387 . S
C1088 C1091 1.387 . S
H1089 C1085 0.950 . S
H1090 C1087 0.950 . S
C1091 C1082 1.390 . S
C1091 H1084 0.950 . S
C1091 C1088 1.387 . S
C1092 C1093 1.387 . S
C1092 H1096 0.950 . S
C1092 C1101 1.390 . S
C1093 C1092 1.387 . S
C1093 C1095 1.387 . S
H1094 C1101 0.950 . S
C1095 C1093 1.387 . S
C1095 C1097 1.390 . S
C1095 H1099 0.950 . S
H1096 C1092 0.950 . S
C1097 C1095 1.390 . S
C1097 C1098 1.387 . S
C1097 H1100 0.950 . S
C1098 C1097 1.387 . S
C1098 C1101 1.387 . S
H1099 C1095 0.950 . S
H1100 C1097 0.950 . S
C1101 C1092 1.390 . S
C1101 H1094 0.950 . S
C1101 C1098 1.387 . S
C1102 C1103 1.387 . S
C1102 H1106 0.950 . S
C1102 C1111 1.390 . S
C1103 C1102 1.387 . S
C1103 C1105 1.387 . S
H1104 C1111 0.950 . S
C1105 C1103 1.387 . S
C1105 C1107 1.390 . S
C1105 H1109 0.950 . S
H1106 C1102 0.950 . S
C1107 C1105 1.390 . S
C1107 C1108 1.387 . S
C1107 H1110 0.950 . S
C1108 C1107 1.387 . S
C1108 C1111 1.387 . S
H1109 C1105 0.950 . S
H1110 C1107 0.950 . S
C1111 C1102 1.390 . S
C1111 H1104 0.950 . S
C1111 C1108 1.387 . S
C1112 C1113 1.387 . S
C1112 H1116 0.950 . S
C1112 C1121 1.390 . S
C1113 C1112 1.387 . S
C1113 C1115 1.387 . S
H1114 C1121 0.950 . S
C1115 C1113 1.387 . S
C1115 C1117 1.390 . S
C1115 H1119 0.950 . S
H1116 C1112 0.950 . S
C1117 C1115 1.390 . S
C1117 C1118 1.387 . S
C1117 H1120 0.950 . S
C1118 C1117 1.387 . S
C1118 C1121 1.387 . S
H1119 C1115 0.950 . S
H1120 C1117 0.950 . S
C1121 C1112 1.390 . S
C1121 H1114 0.950 . S
C1121 C1118 1.387 . S
C1122 C1123 1.387 . S
C1122 H1126 0.950 . S
C1122 C1131 1.390 . S
C1123 C1122 1.387 . S
C1123 C1125 1.387 . S
H1124 C1131 0.950 . S
C1125 C1123 1.387 . S
C1125 C1127 1.390 . S
C1125 H1129 0.950 . S
H1126 C1122 0.950 . S
C1127 C1125 1.390 . S
C1127 C1128 1.387 . S
C1127 H1130 0.950 . S
C1128 C1127 1.387 . S
C1128 C1131 1.387 . S
H1129 C1125 0.950 . S
H1130 C1127 0.950 . S
C1131 C1122 1.390 . S
C1131 H1124 0.950 . S
C1131 C1128 1.387 . S
C1132 C1133 1.387 . S
C1132 H1136 0.950 . S
C1132 C1141 1.390 . S
C1133 C1132 1.387 . S
C1133 C1135 1.387 . S
H1134 C1141 0.950 . S
C1135 C1133 1.387 . S
C1135 C1137 1.390 . S
C1135 H1139 0.950 . S
H1136 C1132 0.950 . S
C1137 C1135 1.390 . S
C1137 C1138 1.387 . S
C1137 H1140 0.950 . S
C1138 C1137 1.387 . S
C1138 C1141 1.387 . S
H1139 C1135 0.950 . S
H1140 C1137 0.950 . S
C1141 C1132 1.390 . S
C1141 H1134 0.950 . S
C1141 C1138 1.387 . S
C1142 C1143 1.387 . S
C1142 H1146 0.950 . S
C1142 C1151 1.390 . S
C1143 C1142 1.387 . S
C1143 C1145 1.387 . S
H1144 C1151 0.950 . S
C1145 C1143 1.387 . S
C1145 C1147 1.390 . S
C1145 H1149 0.950 . S
H1146 C1142 0.950 . S
C1147 C1145 1.390 . S
C1147 C1148 1.387 . S
C1147 H1150 0.950 . S
C1148 C1147 1.387 . S
C1148 C1151 1.387 . S
H1149 C1145 0.950 . S
H1150 C1147 0.950 . S
C1151 C1142 1.390 . S
C1151 H1144 0.950 . S
C1151 C1148 1.387 . S
C1152 C1153 1.387 . S
C1152 H1156 0.950 . S
C1152 C1161 1.390 . S
C1153 C1152 1.387 . S
C1153 C1155 1.387 . S
H1154 C1161 0.950 . S
C1155 C1153 1.387 . S
C1155 C1157 1.390 . S
C1155 H1159 0.950 . S
H1156 C1152 0.950 . S
C1157 C1155 1.390 . S
C1157 C1158 1.387 . S
C1157 H1160 0.950 . S
C1158 C1157 1.387 . S
C1158 C1161 1.387 . S
H1159 C1155 0.950 . S
H1160 C1157 0.950 . S
C1161 C1152 1.390 . S
C1161 H1154 0.950 . S
C1161 C1158 1.387 . S
C1162 C1163 1.387 . S
C1162 H1166 0.950 . S
C1162 C1171 1.390 . S
C1163 C1162 1.387 . S
C1163 C1165 1.387 . S
H1164 C1171 0.950 . S
C1165 C1163 1.387 . S
C1165 C1167 1.390 . S
C1165 H1169 0.950 . S
H1166 C1162 0.950 . S
C1167 C1165 1.390 . S
C1167 C1168 1.387 . S
C1167 H1170 0.950 . S
C1168 C1167 1.387 . S
C1168 C1171 1.387 . S
H1169 C1165 0.950 . S
H1170 C1167 0.950 . S
C1171 C1162 1.390 . S
C1171 H1164 0.950 . S
C1171 C1168 1.387 . S
C1172 C1173 1.387 . S
C1172 H1176 0.950 . S
C1172 C1181 1.390 . S
C1173 C1172 1.387 . S
C1173 C1175 1.387 . S
H1174 C1181 0.950 . S
C1175 C1173 1.387 . S
C1175 C1177 1.390 . S
C1175 H1179 0.950 . S
H1176 C1172 0.950 . S
C1177 C1175 1.390 . S
C1177 C1178 1.387 . S
C1177 H1180 0.950 . S
C1178 C1177 1.387 . S
C1178 C1181 1.387 . S
H1179 C1175 0.950 . S
H1180 C1177 0.950 . S
C1181 C1172 1.390 . S
C1181 H1174 0.950 . S
C1181 C1178 1.387 . S
C1182 C1183 1.387 . S
C1182 H1186 0.950 . S
C1182 C1191 1.390 . S
C1183 C1182 1.387 . S
C1183 C1185 1.387 . S
H1184 C1191 0.950 . S
C1185 C1183 1.387 . S
C1185 C1187 1.390 . S
C1185 H1189 0.950 . S
H1186 C1182 0.950 . S
C1187 C1185 1.390 . S
C1187 C1188 1.387 . S
C1187 H1190 0.950 . S
C1188 C1187 1.387 . S
C1188 C1191 1.387 . S
H1189 C1185 0.950 . S
H1190 C1187 0.950 . S
C1191 C1182 1.390 . S
C1191 H1184 0.950 . S
C1191 C1188 1.387 . S
C1192 C1193 1.387 . S
C1192 H1196 0.950 . S
C1192 C1201 1.390 . S
C1193 C1192 1.387 . S
C1193 C1195 1.387 . S
H1194 C1201 0.950 . S
C1195 C1193 1.387 . S
C1195 C1197 1.390 . S
C1195 H1199 0.950 . S
H1196 C1192 0.950 . S
C1197 C1195 1.390 . S
C1197 C1198 1.387 . S
C1197 H1200 0.950 . S
C1198 C1197 1.387 . S
C1198 C1201 1.387 . S
H1199 C1195 0.950 . S
H1200 C1197 0.950 . S
C1201 C1192 1.390 . S
C1201 H1194 0.950 . S
C1201 C1198 1.387 . S
C1202 C1203 1.387 . S
C1202 H1206 0.950 . S
C1202 C1211 1.390 . S
C1203 C1202 1.387 . S
C1203 C1205 1.387 . S
H1204 C1211 0.950 . S
C1205 C1203 1.387 . S
C1205 C1207 1.390 . S
C1205 H1209 0.950 . S
H1206 C1202 0.950 . S
C1207 C1205 1.390 . S
C1207 C1208 1.387 . S
C1207 H1210 0.950 . S
C1208 C1207 1.387 . S
C1208 C1211 1.387 . S
H1209 C1205 0.950 . S
H1210 C1207 0.950 . S
C1211 C1202 1.390 . S
C1211 H1204 0.950 . S
C1211 C1208 1.387 . S
C1212 C1213 1.387 . S
C1212 H1216 0.950 . S
C1212 C1221 1.390 . S
C1213 C1212 1.387 . S
C1213 C1215 1.387 . S
H1214 C1221 0.950 . S
C1215 C1213 1.387 . S
C1215 C1217 1.390 . S
C1215 H1219 0.950 . S
H1216 C1212 0.950 . S
C1217 C1215 1.390 . S
C1217 C1218 1.387 . S
C1217 H1220 0.950 . S
C1218 C1217 1.387 . S
C1218 C1221 1.387 . S
H1219 C1215 0.950 . S
H1220 C1217 0.950 . S
C1221 C1212 1.390 . S
C1221 H1214 0.950 . S
C1221 C1218 1.387 . S
C1222 C1223 1.387 . S
C1222 H1226 0.950 . S
C1222 C1231 1.390 . S
C1223 C1222 1.387 . S
C1223 C1225 1.387 . S
H1224 C1231 0.950 . S
C1225 C1223 1.387 . S
C1225 C1227 1.390 . S
C1225 H1229 0.950 . S
H1226 C1222 0.950 . S
C1227 C1225 1.390 . S
C1227 C1228 1.387 . S
C1227 H1230 0.950 . S
C1228 C1227 1.387 . S
C1228 C1231 1.387 . S
H1229 C1225 0.950 . S
H1230 C1227 0.950 . S
C1231 C1222 1.390 . S
C1231 H1224 0.950 . S
C1231 C1228 1.387 . S
C1232 C1233 1.387 . S
C1232 H1236 0.950 . S
C1232 C1241 1.390 . S
C1233 C1232 1.387 . S
C1233 C1235 1.387 . S
H1234 C1241 0.950 . S
C1235 C1233 1.387 . S
C1235 C1237 1.390 . S
C1235 H1239 0.950 . S
H1236 C1232 0.950 . S
C1237 C1235 1.390 . S
C1237 C1238 1.387 . S
C1237 H1240 0.950 . S
C1238 C1237 1.387 . S
C1238 C1241 1.387 . S
H1239 C1235 0.950 . S
H1240 C1237 0.950 . S
C1241 C1232 1.390 . S
C1241 H1234 0.950 . S
C1241 C1238 1.387 . S
C1242 C1243 1.387 . S
C1242 H1246 0.950 . S
C1242 C1251 1.390 . S
C1243 C1242 1.387 . S
C1243 C1245 1.387 . S
H1244 C1251 0.950 . S
C1245 C1243 1.387 . S
C1245 C1247 1.390 . S
C1245 H1249 0.950 . S
H1246 C1242 0.950 . S
C1247 C1245 1.390 . S
C1247 C1248 1.387 . S
C1247 H1250 0.950 . S
C1248 C1247 1.387 . S
C1248 C1251 1.387 . S
H1249 C1245 0.950 . S
H1250 C1247 0.950 . S
C1251 C1242 1.390 . S
C1251 H1244 0.950 . S
C1251 C1248 1.387 . S
C1252 C1253 1.387 . S
C1252 H1256 0.950 . S
C1252 C1261 1.390 . S
C1253 C1252 1.387 . S
C1253 C1255 1.387 . S
H1254 C1261 0.950 . S
C1255 C1253 1.387 . S
C1255 C1257 1.390 . S
C1255 H1259 0.950 . S
H1256 C1252 0.950 . S
C1257 C1255 1.390 . S
C1257 C1258 1.387 . S
C1257 H1260 0.950 . S
C1258 C1257 1.387 . S
C1258 C1261 1.387 . S
H1259 C1255 0.950 . S
H1260 C1257 0.950 . S
C1261 C1252 1.390 . S
C1261 H1254 0.950 . S
C1261 C1258 1.387 . S
C1262 C1263 1.387 . S
C1262 H1266 0.950 . S
C1262 C1271 1.390 . S
C1263 C1262 1.387 . S
C1263 C1265 1.387 . S
H1264 C1271 0.950 . S
C1265 C1263 1.387 . S
C1265 C1267 1.390 . S
C1265 H1269 0.950 . S
H1266 C1262 0.950 . S
C1267 C1265 1.390 . S
C1267 C1268 1.387 . S
C1267 H1270 0.950 . S
C1268 C1267 1.387 . S
C1268 C1271 1.387 . S
H1269 C1265 0.950 . S
H1270 C1267 0.950 . S
C1271 C1262 1.390 . S
C1271 H1264 0.950 . S
C1271 C1268 1.387 . S
C1272 C1273 1.387 . S
C1272 H1276 0.950 . S
C1272 C1281 1.390 . S
C1273 C1272 1.387 . S
C1273 C1275 1.387 . S
H1274 C1281 0.950 . S
C1275 C1273 1.387 . S
C1275 C1277 1.390 . S
C1275 H1279 0.950 . S
H1276 C1272 0.950 . S
C1277 C1275 1.390 . S
C1277 C1278 1.387 . S
C1277 H1280 0.950 . S
C1278 C1277 1.387 . S
C1278 C1281 1.387 . S
H1279 C1275 0.950 . S
H1280 C1277 0.950 . S
C1281 C1272 1.390 . S
C1281 H1274 0.950 . S
C1281 C1278 1.387 . S
C1282 C1283 1.387 . S
C1282 H1286 0.950 . S
C1282 C1291 1.390 . S
C1283 C1282 1.387 . S
C1283 C1285 1.387 . S
H1284 C1291 0.950 . S
C1285 C1283 1.387 . S
C1285 C1287 1.390 . S
C1285 H1289 0.950 . S
H1286 C1282 0.950 . S
C1287 C1285 1.390 . S
C1287 C1288 1.387 . S
C1287 H1290 0.950 . S
C1288 C1287 1.387 . S
C1288 C1291 1.387 . S
H1289 C1285 0.950 . S
H1290 C1287 0.950 . S
C1291 C1282 1.390 . S
C1291 H1284 0.950 . S
C1291 C1288 1.387 . S
C1292 C1293 1.387 . S
C1292 H1296 0.950 . S
C1292 C1301 1.390 . S
C1293 C1292 1.387 . S
C1293 C1295 1.387 . S
H1294 C1301 0.950 . S
C1295 C1293 1.387 . S
C1295 C1297 1.390 . S
C1295 H1299 0.950 . S
H1296 C1292 0.950 . S
C1297 C1295 1.390 . S
C1297 C1298 1.387 . S
C1297 H1300 0.950 . S
C1298 C1297 1.387 . S
C1298 C1301 1.387 . S
H1299 C1295 0.950 . S
H1300 C1297 0.950 . S
C1301 C1292 1.390 . S
C1301 H1294 0.950 . S
C1301 C1298 1.387 . S
C1302 C1303 1.387 . S
C1302 H1306 0.950 . S
C1302 C1311 1.390 . S
C1303 C1302 1.387 . S
C1303 C1305 1.387 . S
H1304 C1311 0.950 . S
C1305 C1303 1.387 . S
C1305 C1307 1.390 . S
C1305 H1309 0.950 . S
H1306 C1302 0.950 . S
C1307 C1305 1.390 . S
C1307 C1308 1.387 . S
C1307 H1310 0.950 . S
C1308 C1307 1.387 . S
C1308 C1311 1.387 . S
H1309 C1305 0.950 . S
H1310 C1307 0.950 . S
C1311 C1302 1.390 . S
C1311 H1304 0.950 . S
C1311 C1308 1.387 . S
C1312 C1313 1.387 1_545 S
C1312 H1316 0.950 . S
C1312 C1321 1.390 . S
C1313 C1312 1.387 1_565 S
C1313 C1315 1.387 . S
H1314 C1321 0.950 . S
C1315 C1313 1.387 . S
C1315 C1317 1.390 . S
C1315 H1319 0.950 . S
H1316 C1312 0.950 . S
C1317 C1315 1.390 . S
C1317 C1318 1.387 . S
C1317 H1320 0.950 . S
C1318 C1317 1.387 . S
C1318 C1321 1.387 1_565 S
H1319 C1315 0.950 . S
H1320 C1317 0.950 . S
C1321 C1312 1.390 . S
C1321 H1314 0.950 . S
C1321 C1318 1.387 1_545 S
C1322 C1323 1.387 . S
C1322 H1326 0.950 . S
C1322 C1331 1.390 . S
C1323 C1322 1.387 . S
C1323 C1325 1.387 . S
H1324 C1331 0.950 . S
C1325 C1323 1.387 . S
C1325 C1327 1.390 . S
C1325 H1329 0.950 . S
H1326 C1322 0.950 . S
C1327 C1325 1.390 . S
C1327 C1328 1.387 . S
C1327 H1330 0.950 . S
C1328 C1327 1.387 . S
C1328 C1331 1.387 . S
H1329 C1325 0.950 . S
H1330 C1327 0.950 . S
C1331 C1322 1.390 . S
C1331 H1324 0.950 . S
C1331 C1328 1.387 . S
C1332 C1333 1.387 . S
C1332 H1336 0.950 . S
C1332 C1341 1.390 . S
C1333 C1332 1.387 . S
C1333 C1335 1.387 . S
H1334 C1341 0.950 . S
C1335 C1333 1.387 . S
C1335 C1337 1.390 . S
C1335 H1339 0.950 . S
H1336 C1332 0.950 . S
C1337 C1335 1.390 . S
C1337 C1338 1.387 . S
C1337 H1340 0.950 . S
C1338 C1337 1.387 . S
C1338 C1341 1.387 . S
H1339 C1335 0.950 . S
H1340 C1337 0.950 . S
C1341 C1332 1.390 . S
C1341 H1334 0.950 . S
C1341 C1338 1.387 . S
C1342 C1343 1.387 1_545 S
C1342 H1346 0.950 . S
C1342 C1351 1.390 . S
C1343 C1342 1.387 1_565 S
C1343 C1345 1.387 . S
H1344 C1351 0.950 . S
C1345 C1343 1.387 . S
C1345 C1347 1.390 . S
C1345 H1349 0.950 . S
H1346 C1342 0.950 . S
C1347 C1345 1.390 . S
C1347 C1348 1.387 . S
C1347 H1350 0.950 . S
C1348 C1347 1.387 . S
C1348 C1351 1.387 1_565 S
H1349 C1345 0.950 . S
H1350 C1347 0.950 . S
C1351 C1342 1.390 . S
C1351 H1344 0.950 . S
C1351 C1348 1.387 1_545 S
C1352 C1353 1.387 1_565 S
C1352 H1356 0.950 . S
C1352 C1361 1.390 . S
C1353 C1352 1.387 1_545 S
C1353 C1355 1.387 . S
H1354 C1361 0.950 . S
C1355 C1353 1.387 . S
C1355 C1357 1.390 . S
C1355 H1359 0.950 . S
H1356 C1352 0.950 . S
C1357 C1355 1.390 . S
C1357 C1358 1.387 . S
C1357 H1360 0.950 . S
C1358 C1357 1.387 . S
C1358 C1361 1.387 1_545 S
H1359 C1355 0.950 . S
H1360 C1357 0.950 . S
C1361 C1352 1.390 . S
C1361 H1354 0.950 . S
C1361 C1358 1.387 1_565 S
C1362 C1363 1.387 . S
C1362 H1366 0.950 . S
C1362 C1371 1.390 . S
C1363 C1362 1.387 . S
C1363 C1365 1.387 . S
H1364 C1371 0.950 . S
C1365 C1363 1.387 . S
C1365 C1367 1.390 . S
C1365 H1369 0.950 . S
H1366 C1362 0.950 . S
C1367 C1365 1.390 . S
C1367 C1368 1.387 . S
C1367 H1370 0.950 . S
C1368 C1367 1.387 . S
C1368 C1371 1.387 . S
H1369 C1365 0.950 . S
H1370 C1367 0.950 . S
C1371 C1362 1.390 . S
C1371 H1364 0.950 . S
C1371 C1368 1.387 . S
C1372 C1373 1.387 . S
C1372 H1376 0.950 . S
C1372 C1381 1.390 . S
C1373 C1372 1.387 . S
C1373 C1375 1.387 . S
H1374 C1381 0.950 . S
C1375 C1373 1.387 . S
C1375 C1377 1.390 . S
C1375 H1379 0.950 . S
H1376 C1372 0.950 . S
C1377 C1375 1.390 . S
C1377 C1378 1.387 . S
C1377 H1380 0.950 . S
C1378 C1377 1.387 . S
C1378 C1381 1.387 . S
H1379 C1375 0.950 . S
H1380 C1377 0.950 . S
C1381 C1372 1.390 . S
C1381 H1374 0.950 . S
C1381 C1378 1.387 . S
C1382 C1383 1.387 1_565 S
C1382 H1386 0.950 . S
C1382 C1391 1.390 . S
C1383 C1382 1.387 1_545 S
C1383 C1385 1.387 . S
H1384 C1391 0.950 . S
C1385 C1383 1.387 . S
C1385 C1387 1.390 . S
C1385 H1389 0.950 . S
H1386 C1382 0.950 . S
C1387 C1385 1.390 . S
C1387 C1388 1.387 . S
C1387 H1390 0.950 . S
C1388 C1387 1.387 . S
C1388 C1391 1.387 1_545 S
H1389 C1385 0.950 . S
H1390 C1387 0.950 . S
C1391 C1382 1.390 . S
C1391 H1384 0.950 . S
C1391 C1388 1.387 1_565 S
C1392 C1393 1.387 . S
C1392 H1396 0.950 . S
C1392 C1401 1.390 . S
C1393 C1392 1.387 . S
C1393 C1395 1.387 . S
H1394 C1401 0.950 . S
C1395 C1393 1.387 . S
C1395 C1397 1.390 . S
C1395 H1399 0.950 . S
H1396 C1392 0.950 . S
C1397 C1395 1.390 . S
C1397 C1398 1.387 . S
C1397 H1400 0.950 . S
C1398 C1397 1.387 . S
C1398 C1401 1.387 . S
H1399 C1395 0.950 . S
H1400 C1397 0.950 . S
C1401 C1392 1.390 . S
C1401 H1394 0.950 . S
C1401 C1398 1.387 . S
C1402 C1403 1.387 . S
C1402 H1406 0.950 . S
C1402 C1411 1.390 . S
C1403 C1402 1.387 . S
C1403 C1405 1.387 . S
H1404 C1411 0.950 . S
C1405 C1403 1.387 . S
C1405 C1407 1.390 . S
C1405 H1409 0.950 . S
H1406 C1402 0.950 . S
C1407 C1405 1.390 . S
C1407 C1408 1.387 . S
C1407 H1410 0.950 . S
C1408 C1407 1.387 . S
C1408 C1411 1.387 . S
H1409 C1405 0.950 . S
H1410 C1407 0.950 . S
C1411 C1402 1.390 . S
C1411 H1404 0.950 . S
C1411 C1408 1.387 . S
C1412 C1413 1.387 . S
C1412 H1416 0.950 . S
C1412 C1421 1.390 . S
C1413 C1412 1.387 . S
C1413 C1415 1.387 . S
H1414 C1421 0.950 . S
C1415 C1413 1.387 . S
C1415 C1417 1.390 . S
C1415 H1419 0.950 . S
H1416 C1412 0.950 . S
C1417 C1415 1.390 . S
C1417 C1418 1.387 . S
C1417 H1420 0.950 . S
C1418 C1417 1.387 . S
C1418 C1421 1.387 . S
H1419 C1415 0.950 . S
H1420 C1417 0.950 . S
C1421 C1412 1.390 . S
C1421 H1414 0.950 . S
C1421 C1418 1.387 . S
C1422 C1423 1.387 . S
C1422 H1426 0.950 . S
C1422 C1431 1.390 . S
C1423 C1422 1.387 . S
C1423 C1425 1.387 . S
H1424 C1431 0.950 . S
C1425 C1423 1.387 . S
C1425 C1427 1.390 . S
C1425 H1429 0.950 . S
H1426 C1422 0.950 . S
C1427 C1425 1.390 . S
C1427 C1428 1.387 . S
C1427 H1430 0.950 . S
C1428 C1427 1.387 . S
C1428 C1431 1.387 . S
H1429 C1425 0.950 . S
H1430 C1427 0.950 . S
C1431 C1422 1.390 . S
C1431 H1424 0.950 . S
C1431 C1428 1.387 . S
C1432 C1433 1.387 . S
C1432 H1436 0.950 . S
C1432 C1441 1.390 . S
C1433 C1432 1.387 . S
C1433 C1435 1.387 . S
H1434 C1441 0.950 . S
C1435 C1433 1.387 . S
C1435 C1437 1.390 . S
C1435 H1439 0.950 . S
H1436 C1432 0.950 . S
C1437 C1435 1.390 . S
C1437 C1438 1.387 . S
C1437 H1440 0.950 . S
C1438 C1437 1.387 . S
C1438 C1441 1.387 . S
H1439 C1435 0.950 . S
H1440 C1437 0.950 . S
C1441 C1432 1.390 . S
C1441 H1434 0.950 . S
C1441 C1438 1.387 . S
C1442 C1443 1.387 . S
C1442 H1446 0.950 . S
C1442 C1451 1.390 . S
C1443 C1442 1.387 . S
C1443 C1445 1.387 . S
H1444 C1451 0.950 . S
C1445 C1443 1.387 . S
C1445 C1447 1.390 . S
C1445 H1449 0.950 . S
H1446 C1442 0.950 . S
C1447 C1445 1.390 . S
C1447 C1448 1.387 . S
C1447 H1450 0.950 . S
C1448 C1447 1.387 . S
C1448 C1451 1.387 . S
H1449 C1445 0.950 . S
H1450 C1447 0.950 . S
C1451 C1442 1.390 . S
C1451 H1444 0.950 . S
C1451 C1448 1.387 . S
C1452 C1453 1.387 . S
C1452 H1456 0.950 . S
C1452 C1461 1.390 . S
C1453 C1452 1.387 . S
C1453 C1455 1.387 . S
H1454 C1461 0.950 . S
C1455 C1453 1.387 . S
C1455 C1457 1.390 . S
C1455 H1459 0.950 . S
H1456 C1452 0.950 . S
C1457 C1455 1.390 . S
C1457 C1458 1.387 . S
C1457 H1460 0.950 . S
C1458 C1457 1.387 . S
C1458 C1461 1.387 . S
H1459 C1455 0.950 . S
H1460 C1457 0.950 . S
C1461 C1452 1.390 . S
C1461 H1454 0.950 . S
C1461 C1458 1.387 . S
C1462 C1463 1.387 . S
C1462 H1466 0.950 . S
C1462 C1471 1.390 . S
C1463 C1462 1.387 . S
C1463 C1465 1.387 . S
H1464 C1471 0.950 . S
C1465 C1463 1.387 . S
C1465 C1467 1.390 . S
C1465 H1469 0.950 . S
H1466 C1462 0.950 . S
C1467 C1465 1.390 . S
C1467 C1468 1.387 . S
C1467 H1470 0.950 . S
C1468 C1467 1.387 . S
C1468 C1471 1.387 . S
H1469 C1465 0.950 . S
H1470 C1467 0.950 . S
C1471 C1462 1.390 . S
C1471 H1464 0.950 . S
C1471 C1468 1.387 . S
C1472 C1473 1.387 1_545 S
C1472 H1476 0.950 . S
C1472 C1481 1.390 . S
C1473 C1472 1.387 1_565 S
C1473 C1475 1.387 . S
H1474 C1481 0.950 . S
C1475 C1473 1.387 . S
C1475 C1477 1.390 . S
C1475 H1479 0.950 . S
H1476 C1472 0.950 . S
C1477 C1475 1.390 . S
C1477 C1478 1.387 . S
C1477 H1480 0.950 . S
C1478 C1477 1.387 . S
C1478 C1481 1.387 1_565 S
H1479 C1475 0.950 . S
H1480 C1477 0.950 . S
C1481 C1472 1.390 . S
C1481 H1474 0.950 . S
C1481 C1478 1.387 1_545 S
C1482 C1483 1.387 . S
C1482 H1486 0.950 . S
C1482 C1491 1.390 . S
C1483 C1482 1.387 . S
C1483 C1485 1.387 . S
H1484 C1491 0.950 . S
C1485 C1483 1.387 . S
C1485 C1487 1.390 . S
C1485 H1489 0.950 . S
H1486 C1482 0.950 . S
C1487 C1485 1.390 . S
C1487 C1488 1.387 . S
C1487 H1490 0.950 . S
C1488 C1487 1.387 . S
C1488 C1491 1.387 . S
H1489 C1485 0.950 . S
H1490 C1487 0.950 . S
C1491 C1482 1.390 . S
C1491 H1484 0.950 . S
C1491 C1488 1.387 . S
C1492 C1493 1.387 . S
C1492 H1496 0.950 . S
C1492 C1501 1.390 . S
C1493 C1492 1.387 . S
C1493 C1495 1.387 . S
H1494 C1501 0.950 . S
C1495 C1493 1.387 . S
C1495 C1497 1.390 . S
C1495 H1499 0.950 . S
H1496 C1492 0.950 . S
C1497 C1495 1.390 . S
C1497 C1498 1.387 . S
C1497 H1500 0.950 . S
C1498 C1497 1.387 . S
C1498 C1501 1.387 . S
H1499 C1495 0.950 . S
H1500 C1497 0.950 . S
C1501 C1492 1.390 . S
C1501 H1494 0.950 . S
C1501 C1498 1.387 . S
C1502 C1503 1.387 . S
C1502 H1506 0.950 . S
C1502 C1511 1.390 . S
C1503 C1502 1.387 . S
C1503 C1505 1.387 1_565 S
H1504 C1511 0.950 . S
C1505 C1503 1.387 1_545 S
C1505 C1507 1.390 . S
C1505 H1509 0.950 . S
H1506 C1502 0.950 . S
C1507 C1505 1.390 . S
C1507 C1508 1.387 1_545 S
C1507 H1510 0.950 . S
C1508 C1507 1.387 1_565 S
C1508 C1511 1.387 . S
H1509 C1505 0.950 . S
H1510 C1507 0.950 . S
C1511 C1502 1.390 . S
C1511 H1504 0.950 . S
C1511 C1508 1.387 . S
C1512 C1513 1.387 1_565 S
C1512 H1516 0.950 . S
C1512 C1521 1.390 . S
C1513 C1512 1.387 1_545 S
C1513 C1515 1.387 . S
H1514 C1521 0.950 . S
C1515 C1513 1.387 . S
C1515 C1517 1.390 . S
C1515 H1519 0.950 . S
H1516 C1512 0.950 . S
C1517 C1515 1.390 . S
C1517 C1518 1.387 . S
C1517 H1520 0.950 . S
C1518 C1517 1.387 . S
C1518 C1521 1.387 1_545 S
H1519 C1515 0.950 . S
H1520 C1517 0.950 . S
C1521 C1512 1.390 . S
C1521 H1514 0.950 . S
C1521 C1518 1.387 1_565 S
C1522 C1523 1.387 . S
C1522 H1526 0.950 . S
C1522 C1531 1.390 . S
C1523 C1522 1.387 . S
C1523 C1525 1.387 . S
H1524 C1531 0.950 . S
C1525 C1523 1.387 . S
C1525 C1527 1.390 . S
C1525 H1529 0.950 . S
H1526 C1522 0.950 . S
C1527 C1525 1.390 . S
C1527 C1528 1.387 . S
C1527 H1530 0.950 . S
C1528 C1527 1.387 . S
C1528 C1531 1.387 . S
H1529 C1525 0.950 . S
H1530 C1527 0.950 . S
C1531 C1522 1.390 . S
C1531 H1524 0.950 . S
C1531 C1528 1.387 . S
C1532 C1533 1.387 . S
C1532 H1536 0.950 . S
C1532 C1541 1.390 . S
C1533 C1532 1.387 . S
C1533 C1535 1.387 . S
H1534 C1541 0.950 . S
C1535 C1533 1.387 . S
C1535 C1537 1.390 . S
C1535 H1539 0.950 . S
H1536 C1532 0.950 . S
C1537 C1535 1.390 . S
C1537 C1538 1.387 . S
C1537 H1540 0.950 . S
C1538 C1537 1.387 . S
C1538 C1541 1.387 . S
H1539 C1535 0.950 . S
H1540 C1537 0.950 . S
C1541 C1532 1.390 . S
C1541 H1534 0.950 . S
C1541 C1538 1.387 . S
C1542 C1543 1.387 1_565 S
C1542 H1546 0.950 . S
C1542 C1551 1.390 . S
C1543 C1542 1.387 1_545 S
C1543 C1545 1.387 . S
H1544 C1551 0.950 . S
C1545 C1543 1.387 . S
C1545 C1547 1.390 . S
C1545 H1549 0.950 . S
H1546 C1542 0.950 . S
C1547 C1545 1.390 . S
C1547 C1548 1.387 . S
C1547 H1550 0.950 . S
C1548 C1547 1.387 . S
C1548 C1551 1.387 1_545 S
H1549 C1545 0.950 . S
H1550 C1547 0.950 . S
C1551 C1542 1.390 . S
C1551 H1544 0.950 . S
C1551 C1548 1.387 1_565 S
C1552 C1553 1.387 . S
C1552 H1556 0.950 . S
C1552 C1561 1.390 . S
C1553 C1552 1.387 . S
C1553 C1555 1.387 . S
H1554 C1561 0.950 . S
C1555 C1553 1.387 . S
C1555 C1557 1.390 . S
C1555 H1559 0.950 . S
H1556 C1552 0.950 . S
C1557 C1555 1.390 . S
C1557 C1558 1.387 . S
C1557 H1560 0.950 . S
C1558 C1557 1.387 . S
C1558 C1561 1.387 . S
H1559 C1555 0.950 . S
H1560 C1557 0.950 . S
C1561 C1552 1.390 . S
C1561 H1554 0.950 . S
C1561 C1558 1.387 . S
C1562 C1563 1.387 . S
C1562 H1566 0.950 . S
C1562 C1571 1.390 . S
C1563 C1562 1.387 . S
C1563 C1565 1.387 . S
H1564 C1571 0.950 . S
C1565 C1563 1.387 . S
C1565 C1567 1.390 . S
C1565 H1569 0.950 . S
H1566 C1562 0.950 . S
C1567 C1565 1.390 . S
C1567 C1568 1.387 . S
C1567 H1570 0.950 . S
C1568 C1567 1.387 . S
C1568 C1571 1.387 . S
H1569 C1565 0.950 . S
H1570 C1567 0.950 . S
C1571 C1562 1.390 . S
C1571 H1564 0.950 . S
C1571 C1568 1.387 . S
C1572 C1573 1.387 . S
C1572 H1576 0.950 . S
C1572 C1581 1.390 . S
C1573 C1572 1.387 . S
C1573 C1575 1.387 . S
H1574 C1581 0.950 . S
C1575 C1573 1.387 . S
C1575 C1577 1.390 . S
C1575 H1579 0.950 . S
H1576 C1572 0.950 . S
C1577 C1575 1.390 . S
C1577 C1578 1.387 . S
C1577 H1580 0.950 . S
C1578 C1577 1.387 . S
C1578 C1581 1.387 . S
H1579 C1575 0.950 . S
H1580 C1577 0.950 . S
C1581 C1572 1.390 . S
C1581 H1574 0.950 . S
C1581 C1578 1.387 . S
C1582 C1583 1.387 . S
C1582 H1586 0.950 . S
C1582 C1591 1.390 . S
C1583 C1582 1.387 . S
C1583 C1585 1.387 . S
H1584 C1591 0.950 . S
C1585 C1583 1.387 . S
C1585 C1587 1.390 . S
C1585 H1589 0.950 . S
H1586 C1582 0.950 . S
C1587 C1585 1.390 . S
C1587 C1588 1.387 . S
C1587 H1590 0.950 . S
C1588 C1587 1.387 . S
C1588 C1591 1.387 . S
H1589 C1585 0.950 . S
H1590 C1587 0.950 . S
C1591 C1582 1.390 . S
C1591 H1584 0.950 . S
C1591 C1588 1.387 . S
C1592 C1593 1.387 . S
C1592 H1596 0.950 . S
C1592 C1601 1.390 . S
C1593 C1592 1.387 . S
C1593 C1595 1.387 . S
H1594 C1601 0.950 . S
C1595 C1593 1.387 . S
C1595 C1597 1.390 . S
C1595 H1599 0.950 . S
H1596 C1592 0.950 . S
C1597 C1595 1.390 . S
C1597 C1598 1.387 . S
C1597 H1600 0.950 . S
C1598 C1597 1.387 . S
C1598 C1601 1.387 . S
H1599 C1595 0.950 . S
H1600 C1597 0.950 . S
C1601 C1592 1.390 . S
C1601 H1594 0.950 . S
C1601 C1598 1.387 . S
C1602 C1603 1.387 . S
C1602 H1606 0.950 . S
C1602 C1611 1.390 . S
C1603 C1602 1.387 . S
C1603 C1605 1.387 . S
H1604 C1611 0.950 . S
C1605 C1603 1.387 . S
C1605 C1607 1.390 . S
C1605 H1609 0.950 . S
H1606 C1602 0.950 . S
C1607 C1605 1.390 . S
C1607 C1608 1.387 . S
C1607 H1610 0.950 . S
C1608 C1607 1.387 . S
C1608 C1611 1.387 . S
H1609 C1605 0.950 . S
H1610 C1607 0.950 . S
C1611 C1602 1.390 . S
C1611 H1604 0.950 . S
C1611 C1608 1.387 . S
C1612 C1613 1.387 . S
C1612 H1616 0.950 . S
C1612 C1621 1.390 . S
C1613 C1612 1.387 . S
C1613 C1615 1.387 . S
H1614 C1621 0.950 . S
C1615 C1613 1.387 . S
C1615 C1617 1.390 . S
C1615 H1619 0.950 . S
H1616 C1612 0.950 . S
C1617 C1615 1.390 . S
C1617 C1618 1.387 . S
C1617 H1620 0.950 . S
C1618 C1617 1.387 . S
C1618 C1621 1.387 . S
H1619 C1615 0.950 . S
H1620 C1617 0.950 . S
C1621 C1612 1.390 . S
C1621 H1614 0.950 . S
C1621 C1618 1.387 . S
C1622 C1623 1.387 . S
C1622 H1626 0.950 . S
C1622 C1631 1.390 . S
C1623 C1622 1.387 . S
C1623 C1625 1.387 . S
H1624 C1631 0.950 . S
C1625 C1623 1.387 . S
C1625 C1627 1.390 . S
C1625 H1629 0.950 . S
H1626 C1622 0.950 . S
C1627 C1625 1.390 . S
C1627 C1628 1.387 . S
C1627 H1630 0.950 . S
C1628 C1627 1.387 . S
C1628 C1631 1.387 . S
H1629 C1625 0.950 . S
H1630 C1627 0.950 . S
C1631 C1622 1.390 . S
C1631 H1624 0.950 . S
C1631 C1628 1.387 . S
C673 C540 1.347 . S
C678 C15 1.347 . S
C683 C519 1.347 . S
C688 C36 1.347 . S
C693 C582 1.345 . S
C698 C57 1.345 . S
C703 C561 1.347 . S
C708 C78 1.347 . S
C713 C99 1.347 . S
C718 C624 1.347 . S
C723 C120 1.345 . S
C728 C603 1.345 . S
C733 C141 1.345 . S
C738 C666 1.345 . S
C743 C645 1.347 . S
C748 C162 1.347 . S
C753 C372 1.347 . S
C758 C183 1.347 . S
C763 C351 1.347 . S
C768 C204 1.347 . S
C773 C414 1.345 . S
C778 C225 1.345 . S
C783 C393 1.347 . S
C788 C246 1.347 . S
C793 C267 1.345 . S
C798 C456 1.345 . S
C803 C435 1.347 . S
C808 C288 1.347 . S
C813 C309 1.347 . S
C818 C498 1.347 . S
C823 C477 1.345 . S
C828 C330 1.345 . S
C833 C13 1.498 . S
C838 C433 1.498 . S
C843 C286 1.498 . S
C848 C34 1.498 . S
C853 C643 1.498 . S
C858 C55 1.498 . S
C863 C76 1.498 . S
C868 C160 1.498 . S
C873 C97 1.497 . S
C878 C349 1.497 . S
C883 C118 1.498 . S
C888 C202 1.498 . S
C893 C139 1.498 . S
C898 C559 1.498 . S
C903 C601 1.498 . S
C908 C181 1.498 . S
C913 C475 1.498 . S
C918 C223 1.498 . S
C923 C328 1.498 . S
C928 C244 1.498 . S
C933 C517 1.498 . S
C938 C265 1.498 . S
C943 C307 1.498 . S
C948 C391 1.498 . S
C953 C622 1.497 . S
C958 C370 1.497 . S
C963 C412 1.498 . S
C968 C496 1.498 . S
C973 C538 1.498 . S
C978 C454 1.498 . S
C983 C580 1.498 . S
C988 C664 1.498 . S
C993 C17 1.405 . S
C998 C416 1.405 . S
C1003 C38 1.408 . S
C1008 C395 1.408 . S
C1013 C59 1.405 . S
C1018 C374 1.405 . S
C1023 C80 1.408 . S
C1028 C353 1.408 . S
C1033 C101 1.408 . S
C1038 C500 1.408 . S
C1043 C122 1.405 . S
C1048 C479 1.405 . S
C1053 C143 1.405 . S
C1058 C458 1.405 . S
C1063 C164 1.408 . S
C1068 C437 1.408 . S
C1073 C185 1.405 . S
C1078 C584 1.405 . S
C1083 C206 1.408 . S
C1088 C563 1.408 . S
C1093 C227 1.408 . S
C1098 C542 1.408 . S
C1103 C248 1.408 . S
C1108 C521 1.408 . S
C1113 C668 1.405 . S
C1118 C269 1.405 . S
C1123 C647 1.408 . S
C1128 C290 1.408 . S
C1133 C626 1.405 . S
C1138 C311 1.405 . S
C1143 C605 1.405 . S
C1148 C332 1.405 . S
C1153 C60 1.519 . S
C1158 C18 1.519 . S
C1163 C81 1.519 . S
C1168 C39 1.519 . S
C1173 C144 1.519 . S
C1178 C102 1.519 . S
C1183 C123 1.523 . S
C1188 C165 1.523 . S
C1193 C228 1.523 . S
C1198 C186 1.523 . S
C1203 C207 1.523 . S
C1208 C249 1.523 . S
C1213 C312 1.523 . S
C1218 C270 1.523 . S
C1223 C291 1.523 . S
C1228 C333 1.523 . S
C1233 C354 1.519 . S
C1238 C396 1.519 . S
C1243 C375 1.523 . S
C1248 C417 1.523 . S
C1253 C480 1.519 . S
C1258 C438 1.519 . S
C1263 C459 1.523 . S
C1268 C501 1.523 . S
C1273 C522 1.519 . S
C1278 C564 1.519 . S
C1283 C585 1.523 . S
C1288 C543 1.523 . S
C1293 C606 1.519 . S
C1298 C648 1.519 . S
C1303 C627 1.523 . S
C1308 C669 1.523 . S
C1313 C16 1.317 1_565 S
C1318 C161 1.299 1_565 S
C1323 C644 1.298 . S
C1328 C37 1.315 1_455 S
C1333 C58 1.315 . S
C1338 C287 1.298 . S
C1343 C79 1.317 1_465 S
C1348 C434 1.299 1_565 S
C1353 C77 1.298 1_545 S
C1358 C100 1.315 1_545 S
C1363 C121 1.315 1_655 S
C1368 C560 1.298 . S
C1373 C203 1.298 . S
C1378 C142 1.315 . S
C1383 C350 1.298 1_545 S
C1388 C163 1.315 1_645 S
C1393 C184 1.317 . S
C1398 C329 1.299 . S
C1403 C476 1.299 . S
C1408 C205 1.317 1_455 S
C1413 C226 1.315 . S
C1418 C119 1.298 . S
C1423 C602 1.298 . S
C1428 C247 1.315 1_455 S
C1433 C268 1.315 . S
C1438 C245 1.298 . S
C1443 C289 1.317 1_655 S
C1448 C392 1.299 . S
C1453 C310 1.315 . S
C1458 C35 1.298 . S
C1463 C518 1.298 . S
C1468 C331 1.315 1_655 S
C1473 C352 1.317 1_565 S
C1478 C497 1.299 1_565 S
C1483 C373 1.317 . S
C1488 C308 1.299 . S
C1493 C394 1.315 . S
C1498 C623 1.298 . S
C1503 C415 1.315 1_565 S
C1508 C98 1.298 1_565 S
C1513 C436 1.315 1_545 S
C1518 C413 1.298 1_545 S
C1523 C224 1.299 . S
C1528 C457 1.317 . S
C1533 C539 1.298 . S
C1538 C478 1.315 . S
C1543 C499 1.315 1_545 S
C1548 C14 1.299 1_545 S
C1553 C665 1.298 . S
C1558 C520 1.315 . S
C1563 C140 1.298 . S
C1568 C541 1.315 . S
C1573 C455 1.298 . S
C1578 C562 1.315 . S
C1583 C583 1.315 . S
C1588 C266 1.298 . S
C1593 C581 1.298 . S
C1598 C604 1.315 . S
C1603 C56 1.298 . S
C1608 C625 1.315 . S
C1613 C371 1.299 . S
C1618 C646 1.317 . S
C1623 C667 1.315 . S
C1628 C182 1.298 . S
