# Generated by pormake.
# Topology wgp, (5)-cn, num edge types: 1
# Building blocks:
#     Node 0, Type 0, BuildingBlock: BEQFEK_clean_sbu_0, # of connection points: 5
#     Node 1, Type 0, BuildingBlock: BEQFEK_clean_sbu_0, # of connection points: 5
#     Node 2, Type 0, BuildingBlock: BEQFEK_clean_sbu_0, # of connection points: 5
#     Node 3, Type 0, BuildingBlock: BEQFEK_clean_sbu_0, # of connection points: 5
#     Node 4, Type 0, BuildingBlock: BEQFEK_clean_sbu_0, # of connection points: 5
#     Node 5, Type 0, BuildingBlock: BEQFEK_clean_sbu_0, # of connection points: 5
#     Node 6, Type 0, BuildingBlock: BEQFEK_clean_sbu_0, # of connection points: 5
#     Node 7, Type 0, BuildingBlock: BEQFEK_clean_sbu_0, # of connection points: 5
#     Node 8, Type 0, BuildingBlock: BEQFEK_clean_sbu_0, # of connection points: 5
#     Node 9, Type 0, BuildingBlock: BEQFEK_clean_sbu_0, # of connection points: 5
#     Node 10, Type 0, BuildingBlock: BEQFEK_clean_sbu_0, # of connection points: 5
#     Node 11, Type 0, BuildingBlock: BEQFEK_clean_sbu_0, # of connection points: 5
#     Node 12, Type 0, BuildingBlock: BEQFEK_clean_sbu_0, # of connection points: 5
#     Node 13, Type 0, BuildingBlock: BEQFEK_clean_sbu_0, # of connection points: 5
#     Node 14, Type 0, BuildingBlock: BEQFEK_clean_sbu_0, # of connection points: 5
#     Node 15, Type 0, BuildingBlock: BEQFEK_clean_sbu_0, # of connection points: 5
#     Node 16, Type 0, BuildingBlock: BEQFEK_clean_sbu_0, # of connection points: 5
#     Node 17, Type 0, BuildingBlock: BEQFEK_clean_sbu_0, # of connection points: 5
#     Node 18, Type 0, BuildingBlock: BEQFEK_clean_sbu_0, # of connection points: 5
#     Node 19, Type 0, BuildingBlock: BEQFEK_clean_sbu_0, # of connection points: 5
#     Node 20, Type 0, BuildingBlock: BEQFEK_clean_sbu_0, # of connection points: 5
#     Node 21, Type 0, BuildingBlock: BEQFEK_clean_sbu_0, # of connection points: 5
#     Node 22, Type 0, BuildingBlock: BEQFEK_clean_sbu_0, # of connection points: 5
#     Node 23, Type 0, BuildingBlock: BEQFEK_clean_sbu_0, # of connection points: 5
#     Node 24, Type 0, BuildingBlock: BEQFEK_clean_sbu_0, # of connection points: 5
#     Node 25, Type 0, BuildingBlock: BEQFEK_clean_sbu_0, # of connection points: 5
#     Node 26, Type 0, BuildingBlock: BEQFEK_clean_sbu_0, # of connection points: 5
#     Node 27, Type 0, BuildingBlock: BEQFEK_clean_sbu_0, # of connection points: 5
#     Node 28, Type 0, BuildingBlock: BEQFEK_clean_sbu_0, # of connection points: 5
#     Node 29, Type 0, BuildingBlock: BEQFEK_clean_sbu_0, # of connection points: 5
#     Node 30, Type 0, BuildingBlock: BEQFEK_clean_sbu_0, # of connection points: 5
#     Node 31, Type 0, BuildingBlock: BEQFEK_clean_sbu_0, # of connection points: 5
#     Edge 32, Type (0, 0), BuildingBlock: OJICUG_clean_linker_0, # of connection points: 2
#     Edge 33, Type (0, 0), BuildingBlock: OJICUG_clean_linker_0, # of connection points: 2
#     Edge 34, Type (0, 0), BuildingBlock: OJICUG_clean_linker_0, # of connection points: 2
#     Edge 35, Type (0, 0), BuildingBlock: OJICUG_clean_linker_0, # of connection points: 2
#     Edge 36, Type (0, 0), BuildingBlock: OJICUG_clean_linker_0, # of connection points: 2
#     Edge 37, Type (0, 0), BuildingBlock: OJICUG_clean_linker_0, # of connection points: 2
#     Edge 38, Type (0, 0), BuildingBlock: OJICUG_clean_linker_0, # of connection points: 2
#     Edge 39, Type (0, 0), BuildingBlock: OJICUG_clean_linker_0, # of connection points: 2
#     Edge 40, Type (0, 0), BuildingBlock: OJICUG_clean_linker_0, # of connection points: 2
#     Edge 41, Type (0, 0), BuildingBlock: OJICUG_clean_linker_0, # of connection points: 2
#     Edge 42, Type (0, 0), BuildingBlock: OJICUG_clean_linker_0, # of connection points: 2
#     Edge 43, Type (0, 0), BuildingBlock: OJICUG_clean_linker_0, # of connection points: 2
#     Edge 44, Type (0, 0), BuildingBlock: OJICUG_clean_linker_0, # of connection points: 2
#     Edge 45, Type (0, 0), BuildingBlock: OJICUG_clean_linker_0, # of connection points: 2
#     Edge 46, Type (0, 0), BuildingBlock: OJICUG_clean_linker_0, # of connection points: 2
#     Edge 47, Type (0, 0), BuildingBlock: OJICUG_clean_linker_0, # of connection points: 2
#     Edge 48, Type (0, 0), BuildingBlock: OJICUG_clean_linker_0, # of connection points: 2
#     Edge 49, Type (0, 0), BuildingBlock: OJICUG_clean_linker_0, # of connection points: 2
#     Edge 50, Type (0, 0), BuildingBlock: OJICUG_clean_linker_0, # of connection points: 2
#     Edge 51, Type (0, 0), BuildingBlock: OJICUG_clean_linker_0, # of connection points: 2
#     Edge 52, Type (0, 0), BuildingBlock: OJICUG_clean_linker_0, # of connection points: 2
#     Edge 53, Type (0, 0), BuildingBlock: OJICUG_clean_linker_0, # of connection points: 2
#     Edge 54, Type (0, 0), BuildingBlock: OJICUG_clean_linker_0, # of connection points: 2
#     Edge 55, Type (0, 0), BuildingBlock: OJICUG_clean_linker_0, # of connection points: 2
#     Edge 56, Type (0, 0), BuildingBlock: OJICUG_clean_linker_0, # of connection points: 2
#     Edge 57, Type (0, 0), BuildingBlock: OJICUG_clean_linker_0, # of connection points: 2
#     Edge 58, Type (0, 0), BuildingBlock: OJICUG_clean_linker_0, # of connection points: 2
#     Edge 59, Type (0, 0), BuildingBlock: OJICUG_clean_linker_0, # of connection points: 2
#     Edge 60, Type (0, 0), BuildingBlock: OJICUG_clean_linker_0, # of connection points: 2
#     Edge 61, Type (0, 0), BuildingBlock: OJICUG_clean_linker_0, # of connection points: 2
#     Edge 62, Type (0, 0), BuildingBlock: OJICUG_clean_linker_0, # of connection points: 2
#     Edge 63, Type (0, 0), BuildingBlock: OJICUG_clean_linker_0, # of connection points: 2
#     Edge 64, Type (0, 0), BuildingBlock: OJICUG_clean_linker_0, # of connection points: 2
#     Edge 65, Type (0, 0), BuildingBlock: OJICUG_clean_linker_0, # of connection points: 2
#     Edge 66, Type (0, 0), BuildingBlock: OJICUG_clean_linker_0, # of connection points: 2
#     Edge 67, Type (0, 0), BuildingBlock: OJICUG_clean_linker_0, # of connection points: 2
#     Edge 68, Type (0, 0), BuildingBlock: OJICUG_clean_linker_0, # of connection points: 2
#     Edge 69, Type (0, 0), BuildingBlock: OJICUG_clean_linker_0, # of connection points: 2
#     Edge 70, Type (0, 0), BuildingBlock: OJICUG_clean_linker_0, # of connection points: 2
#     Edge 71, Type (0, 0), BuildingBlock: OJICUG_clean_linker_0, # of connection points: 2
#     Edge 72, Type (0, 0), BuildingBlock: OJICUG_clean_linker_0, # of connection points: 2
#     Edge 73, Type (0, 0), BuildingBlock: OJICUG_clean_linker_0, # of connection points: 2
#     Edge 74, Type (0, 0), BuildingBlock: OJICUG_clean_linker_0, # of connection points: 2
#     Edge 75, Type (0, 0), BuildingBlock: OJICUG_clean_linker_0, # of connection points: 2
#     Edge 76, Type (0, 0), BuildingBlock: OJICUG_clean_linker_0, # of connection points: 2
#     Edge 77, Type (0, 0), BuildingBlock: OJICUG_clean_linker_0, # of connection points: 2
#     Edge 78, Type (0, 0), BuildingBlock: OJICUG_clean_linker_0, # of connection points: 2
#     Edge 79, Type (0, 0), BuildingBlock: OJICUG_clean_linker_0, # of connection points: 2
#     Edge 80, Type (0, 0), BuildingBlock: OJICUG_clean_linker_0, # of connection points: 2
#     Edge 81, Type (0, 0), BuildingBlock: OJICUG_clean_linker_0, # of connection points: 2
#     Edge 82, Type (0, 0), BuildingBlock: OJICUG_clean_linker_0, # of connection points: 2
#     Edge 83, Type (0, 0), BuildingBlock: OJICUG_clean_linker_0, # of connection points: 2
#     Edge 84, Type (0, 0), BuildingBlock: OJICUG_clean_linker_0, # of connection points: 2
#     Edge 85, Type (0, 0), BuildingBlock: OJICUG_clean_linker_0, # of connection points: 2
#     Edge 86, Type (0, 0), BuildingBlock: OJICUG_clean_linker_0, # of connection points: 2
#     Edge 87, Type (0, 0), BuildingBlock: OJICUG_clean_linker_0, # of connection points: 2
#     Edge 88, Type (0, 0), BuildingBlock: OJICUG_clean_linker_0, # of connection points: 2
#     Edge 89, Type (0, 0), BuildingBlock: OJICUG_clean_linker_0, # of connection points: 2
#     Edge 90, Type (0, 0), BuildingBlock: OJICUG_clean_linker_0, # of connection points: 2
#     Edge 91, Type (0, 0), BuildingBlock: OJICUG_clean_linker_0, # of connection points: 2
#     Edge 92, Type (0, 0), BuildingBlock: OJICUG_clean_linker_0, # of connection points: 2
#     Edge 93, Type (0, 0), BuildingBlock: OJICUG_clean_linker_0, # of connection points: 2
#     Edge 94, Type (0, 0), BuildingBlock: OJICUG_clean_linker_0, # of connection points: 2
#     Edge 95, Type (0, 0), BuildingBlock: OJICUG_clean_linker_0, # of connection points: 2
#     Edge 96, Type (0, 0), BuildingBlock: OJICUG_clean_linker_0, # of connection points: 2
#     Edge 97, Type (0, 0), BuildingBlock: OJICUG_clean_linker_0, # of connection points: 2
#     Edge 98, Type (0, 0), BuildingBlock: OJICUG_clean_linker_0, # of connection points: 2
#     Edge 99, Type (0, 0), BuildingBlock: OJICUG_clean_linker_0, # of connection points: 2
#     Edge 100, Type (0, 0), BuildingBlock: OJICUG_clean_linker_0, # of connection points: 2
#     Edge 101, Type (0, 0), BuildingBlock: OJICUG_clean_linker_0, # of connection points: 2
#     Edge 102, Type (0, 0), BuildingBlock: OJICUG_clean_linker_0, # of connection points: 2
#     Edge 103, Type (0, 0), BuildingBlock: OJICUG_clean_linker_0, # of connection points: 2
#     Edge 104, Type (0, 0), BuildingBlock: OJICUG_clean_linker_0, # of connection points: 2
#     Edge 105, Type (0, 0), BuildingBlock: OJICUG_clean_linker_0, # of connection points: 2
#     Edge 106, Type (0, 0), BuildingBlock: OJICUG_clean_linker_0, # of connection points: 2
#     Edge 107, Type (0, 0), BuildingBlock: OJICUG_clean_linker_0, # of connection points: 2
#     Edge 108, Type (0, 0), BuildingBlock: OJICUG_clean_linker_0, # of connection points: 2
#     Edge 109, Type (0, 0), BuildingBlock: OJICUG_clean_linker_0, # of connection points: 2
#     Edge 110, Type (0, 0), BuildingBlock: OJICUG_clean_linker_0, # of connection points: 2
#     Edge 111, Type (0, 0), BuildingBlock: OJICUG_clean_linker_0, # of connection points: 2
# Relax obj value: 0.313
# Max RMSD: 0.177
# Mean RMSD: 0.177
data_MOF--net-wgp--node1-BEQFEK_clean_sbu_0--edge1-OJICUG_clean_linker_0
_symmetry_space_group_name_H-M    P1
_symmetry_Int_Tables_number       1
_symmetry_cell_setting            triclinic
loop_
_symmetry_equiv_pos_as_xyz
'x, y, z'
_cell_length_a     27.466109
_cell_length_b     27.475714
_cell_length_c     80.286992
_cell_angle_alpha  89.990524
_cell_angle_beta   90.012441
_cell_angle_gamma 89.97503
loop_
_atom_site_label
_atom_site_type_symbol
_atom_site_fract_x
_atom_site_fract_y
_atom_site_fract_z
_atom_type_partial_charge
Co0 Co 0.30411 0.21654 0.09892 0.0
Co1 Co 0.3551 0.11586 0.0953 0.0
C2 C 0.29723 0.1596 0.06724 0.0
O3 O 0.28889 0.19713 0.07599 0.0
O4 O 0.32193 0.12423 0.07306 0.0
C5 C 0.22266 0.28002 0.09672 0.0
O6 O 0.20101 0.24115 0.09073 0.0
C7 C 0.3505 0.0112 0.09237 0.0
C8 C 0.42049 0.98608 0.10286 0.0
C9 C 0.37601 0.96974 0.09693 0.0
N10 N 0.37793 0.05027 0.09587 0.0
N11 N 0.42019 0.03512 0.10183 0.0
C12 C 0.30075 0.01439 0.08477 0.0
H13 H 0.27777 0.03987 0.09206 0.0
H14 H 0.28276 0.97844 0.08379 0.0
H15 H 0.30416 0.02962 0.07204 0.0
C16 C 0.25311 0.16418 0.12678 0.0
N17 N 0.28608 0.16685 0.1143 0.0
N18 N 0.31016 0.12544 0.11348 0.0
C19 C 0.2946 0.09615 0.12592 0.0
C20 C 0.25729 0.11916 0.13448 0.0
C21 C 0.21879 0.20413 0.13146 0.0
H22 H 0.23793 0.23964 0.13112 0.0
H23 H 0.18852 0.20525 0.12232 0.0
H24 H 0.20329 0.19806 0.14406 0.0
O25 O 0.37512 0.23286 0.10054 0.0
O26 O 0.41193 0.16148 0.0973 0.0
H27 H 0.35441 0.04598 0.12737 0.0
H28 H 0.30815 0.03649 0.1429 0.0
C29 C 0.31475 0.04684 0.12975 0.0
H30 H 0.29624 0.01977 0.1218 0.0
H31 H 0.44784 0.05822 0.10593 0.0
O32 O 0.26623 0.27688 0.10202 0.0
C33 C 0.41397 0.20751 0.09944 0.0
Co34 Co 0.05229 0.05479 0.34877 0.0
Co35 Co 0.15165 0.10679 0.34432 0.0
C36 C 0.10727 0.047 0.31677 0.0
O37 O 0.07016 0.03861 0.32573 0.0
O38 O 0.14256 0.07234 0.32232 0.0
C39 C 0.9887 0.97363 0.34739 0.0
O40 O 0.02501 0.95379 0.33918 0.0
C41 C 0.25583 0.10276 0.34094 0.0
C42 C 0.28099 0.17419 0.35018 0.0
C43 C 0.29728 0.12914 0.34477 0.0
N44 N 0.21678 0.13034 0.34429 0.0
N45 N 0.23188 0.1734 0.34952 0.0
C46 C 0.25264 0.05196 0.33422 0.0
H47 H 0.22586 0.03058 0.34153 0.0
H48 H 0.28836 0.03324 0.33411 0.0
H49 H 0.23905 0.05367 0.32123 0.0
C50 C 0.10644 1.0055 0.37642 0.0
N51 N 0.10289 0.03808 0.36386 0.0
N52 N 0.14376 0.06289 0.36284 0.0
C53 C 0.17354 0.04837 0.37531 0.0
C54 C 0.15145 0.01084 0.38403 0.0
C55 C 0.06731 0.9704 0.38122 0.0
H56 H 0.03198 0.98975 0.38215 0.0
H57 H 0.064 0.94218 0.37141 0.0
H58 H 0.0756 0.95239 0.39327 0.0
O59 O 0.03491 0.12555 0.35018 0.0
O60 O 0.10561 0.16308 0.34632 0.0
H61 H 0.23279 0.06456 0.39214 0.0
H62 H 0.24977 0.04991 0.37126 0.0
C63 C 0.22258 0.06939 0.37888 0.0
H64 H 0.22325 0.10868 0.37587 0.0
H65 H 0.20876 0.20138 0.35335 0.0
O66 O 0.99342 0.01637 0.35326 0.0
C67 C 0.0597 0.16463 0.34876 0.0
Co68 Co 0.20913 0.7992 0.59933 0.0
Co69 Co 0.16032 0.89951 0.59255 0.0
C70 C 0.21934 0.85293 0.56627 0.0
O71 O 0.22712 0.81682 0.57589 0.0
O72 O 0.19341 0.88879 0.57095 0.0
C73 C 0.29146 0.73618 0.59969 0.0
O74 O 0.31289 0.77301 0.59227 0.0
C75 C 0.14945 1.00329 0.58478 0.0
C76 C 0.10221 0.0277 0.60536 0.0
C77 C 0.13127 0.04467 0.59252 0.0
N78 N 0.13372 0.96392 0.59314 0.0
N79 N 0.10399 0.97871 0.60505 0.0
C80 C 0.18343 1.00131 0.57019 0.0
H81 H 0.21871 0.98504 0.57393 0.0
H82 H 0.18969 0.03798 0.56481 0.0
H83 H 0.16746 0.97749 0.56046 0.0
C84 C 0.25429 0.85526 0.62753 0.0
N85 N 0.22439 0.85089 0.61422 0.0
N86 N 0.20763 0.89404 0.61016 0.0
C87 C 0.22914 0.92766 0.61992 0.0
C88 C 0.25851 0.90452 0.63173 0.0
C89 C 0.27689 0.81273 0.63622 0.0
H90 H 0.25488 0.77945 0.63413 0.0
H91 H 0.31394 0.80653 0.63113 0.0
H92 H 0.27977 0.81965 0.6498 0.0
O93 O 0.13921 0.7815 0.60043 0.0
O94 O 0.1039 0.85258 0.59544 0.0
H95 H 0.19527 0.99781 0.62094 0.0
H96 H 0.2612 0.9998 0.62099 0.0
C97 C 0.22882 0.9808 0.61593 0.0
H98 H 0.22971 0.98523 0.60231 0.0
H99 H 0.08814 0.95561 0.61382 0.0
O100 O 0.24754 0.74053 0.60447 0.0
C101 C 0.10092 0.80701 0.59847 0.0
Co102 Co 0.46885 0.96028 0.85008 0.0
Co103 Co 0.36903 0.90813 0.84615 0.0
C104 C 0.4135 0.96651 0.81821 0.0
O105 O 0.45087 0.97553 0.82697 0.0
O106 O 0.37838 0.94153 0.82405 0.0
C107 C 0.53266 0.04121 0.8482 0.0
O108 O 0.49643 0.06033 0.83975 0.0
C109 C 0.26487 0.91358 0.84284 0.0
C110 C 0.2386 0.84294 0.8524 0.0
C111 C 0.22299 0.88809 0.84684 0.0
N112 N 0.3035 0.88545 0.84626 0.0
N113 N 0.2877 0.84285 0.85169 0.0
C114 C 0.26886 0.96401 0.83585 0.0
H115 H 0.2949 0.98572 0.84335 0.0
H116 H 0.23324 0.9828 0.83516 0.0
H117 H 0.28376 0.96159 0.82305 0.0
C118 C 0.41483 0.01099 0.8775 0.0
N119 N 0.41832 0.97771 0.86515 0.0
N120 N 0.37754 0.95267 0.8644 0.0
C121 C 0.34795 0.96767 0.87684 0.0
C122 C 0.37 1.00583 0.88525 0.0
C123 C 0.45384 0.04661 0.88195 0.0
H124 H 0.48924 0.02745 0.88306 0.0
H125 H 0.45704 0.07403 0.87187 0.0
H126 H 0.44551 0.06554 0.89383 0.0
O127 O 0.48572 0.88936 0.85167 0.0
O128 O 0.41476 0.85182 0.84827 0.0
H129 H 0.29876 0.90698 0.87787 0.0
H130 H 0.28946 0.95153 0.89399 0.0
C131 C 0.29919 0.94638 0.88072 0.0
H132 H 0.27147 0.96532 0.87315 0.0
H133 H 0.31039 0.8146 0.85561 0.0
O134 O 0.52797 0.99883 0.85439 0.0
C135 C 0.46076 0.85028 0.85049 0.0
Co136 Co 0.30582 0.79957 0.46734 0.0
Co137 Co 0.35892 0.89842 0.47197 0.0
C138 C 0.30115 0.85212 0.49976 0.0
O139 O 0.29145 0.81559 0.49069 0.0
O140 O 0.32629 0.88744 0.49413 0.0
C141 C 0.22504 0.73588 0.4693 0.0
O142 O 0.20675 0.77124 0.47837 0.0
C143 C 0.35364 1.00257 0.47563 0.0
C144 C 0.42477 0.02863 0.46642 0.0
C145 C 0.37945 0.04436 0.47177 0.0
N146 N 0.38174 0.96386 0.47227 0.0
N147 N 0.42463 0.97954 0.46707 0.0
C148 C 0.30275 0.99889 0.48226 0.0
H149 H 0.27952 0.9788 0.4733 0.0
H150 H 0.28665 0.03507 0.4849 0.0
H151 H 0.30323 0.97781 0.494 0.0
C152 C 0.25398 0.85664 0.44079 0.0
N153 N 0.28811 0.85143 0.45281 0.0
N154 N 0.31375 0.89172 0.45386 0.0
C155 C 0.29831 0.92283 0.44196 0.0
C156 C 0.25893 0.90256 0.43363 0.0
C157 C 0.21556 0.81957 0.43714 0.0
H158 H 0.23303 0.7842 0.43419 0.0
H159 H 0.19271 0.81448 0.44838 0.0
H160 H 0.19166 0.83068 0.42669 0.0
O161 O 0.37669 0.78224 0.46536 0.0
O162 O 0.41479 0.85268 0.46922 0.0
H163 H 0.31871 0.97692 0.42383 0.0
H164 H 0.30735 0.99951 0.44435 0.0
C165 C 0.32355 0.96908 0.4373 0.0
H166 H 0.36296 0.96663 0.44008 0.0
H167 H 0.45291 0.95681 0.46322 0.0
O168 O 0.26677 0.74119 0.46267 0.0
C169 C 0.41598 0.80686 0.46661 0.0
Co170 Co 0.46473 0.05528 0.71853 0.0
Co171 Co 0.36352 0.10369 0.72472 0.0
C172 C 0.40975 0.04661 0.75146 0.0
O173 O 0.44598 0.03875 0.74192 0.0
O174 O 0.37361 0.07189 0.7466 0.0
C175 C 0.52774 0.97235 0.71843 0.0
O176 O 0.48851 0.94888 0.72322 0.0
C177 C 0.25886 0.11399 0.73157 0.0
C178 C 0.23577 0.16068 0.71065 0.0
C179 C 0.21792 0.13171 0.72339 0.0
N180 N 0.29881 0.12981 0.72355 0.0
N181 N 0.28474 0.1592 0.71143 0.0
C182 C 0.26002 0.08082 0.74639 0.0
H183 H 0.27671 0.04544 0.74302 0.0
H184 H 0.22302 0.07472 0.75154 0.0
H185 H 0.28317 0.0974 0.75619 0.0
C186 C 0.40967 0.00927 0.6901 0.0
N187 N 0.41358 0.03897 0.70348 0.0
N188 N 0.37021 0.05561 0.70738 0.0
C189 C 0.33695 0.03419 0.69745 0.0
C190 C 0.36053 1.00523 0.68566 0.0
C191 C 0.45247 0.98668 0.68158 0.0
H192 H 0.486 1.00779 0.68423 0.0
H193 H 0.45754 0.94906 0.68631 0.0
H194 H 0.44647 0.98509 0.66792 0.0
O195 O 0.48177 0.12522 0.71707 0.0
O196 O 0.41032 0.1603 0.7217 0.0
H197 H 0.26658 0.06761 0.69619 0.0
H198 H 0.26501 1.00175 0.69601 0.0
C199 C 0.28363 0.03414 0.70123 0.0
H200 H 0.27862 0.03292 0.71482 0.0
H201 H 0.30842 0.17505 0.70284 0.0
O202 O 0.52468 0.0172 0.71464 0.0
C203 C 0.45597 0.16342 0.71877 0.0
Co204 Co 0.21357 0.21642 0.96818 0.0
Co205 Co 0.16033 0.11729 0.97218 0.0
C206 C 0.21949 0.16093 1.00009 0.0
O207 O 0.22887 0.19808 0.99125 0.0
O208 O 0.19375 0.12621 0.99434 0.0
C209 C 0.29405 0.28105 0.97039 0.0
O210 O 0.31276 0.2458 0.97941 0.0
C211 C 0.16547 0.01313 0.97528 0.0
C212 C 0.09465 0.98728 0.96571 0.0
C213 C 0.13985 0.97144 0.97117 0.0
N214 N 0.13739 0.05189 0.972 0.0
N215 N 0.09468 0.03635 0.96657 0.0
C216 C 0.21613 0.01674 0.98212 0.0
H217 H 0.23851 0.04073 0.97408 0.0
H218 H 0.23384 0.98071 0.98345 0.0
H219 H 0.2145 0.03377 0.99461 0.0
C220 C 0.26517 0.1609 0.94124 0.0
N221 N 0.23076 0.16564 0.95319 0.0
N222 N 0.20516 0.12528 0.95401 0.0
C223 C 0.22092 0.09466 0.94203 0.0
C224 C 0.26046 0.11524 0.9339 0.0
C225 C 0.30387 0.19795 0.93793 0.0
H226 H 0.28668 0.23366 0.93529 0.0
H227 H 0.32672 0.20204 0.94923 0.0
H228 H 0.32766 0.18743 0.92739 0.0
O229 O 0.14263 0.23394 0.96657 0.0
O230 O 0.1044 0.16339 0.96997 0.0
H231 H 0.15679 0.05024 0.93984 0.0
H232 H 0.20183 0.04032 0.92382 0.0
C233 C 0.19634 0.04818 0.93726 0.0
H234 H 0.21259 0.01803 0.94442 0.0
H235 H 0.06646 0.05918 0.96274 0.0
O236 O 0.25232 0.27537 0.96378 0.0
C237 C 0.10329 0.20938 0.96773 0.0
Co238 Co 0.04885 0.96187 0.21795 0.0
Co239 Co 0.14821 0.90907 0.22174 0.0
C240 C 0.10504 0.9677 0.2498 0.0
O241 O 0.06758 0.97673 0.24106 0.0
O242 O 0.13995 0.94239 0.24396 0.0
C243 C 0.98444 0.04251 0.2205 0.0
O244 O 0.0197 0.06078 0.22961 0.0
C245 C 0.25245 0.91305 0.22485 0.0
C246 C 0.27765 0.84216 0.21514 0.0
C247 C 0.2939 0.88695 0.2208 0.0
N248 N 0.21341 0.88557 0.2214 0.0
N249 N 0.22855 0.84283 0.21588 0.0
C250 C 0.24927 0.96349 0.23188 0.0
H251 H 0.22261 0.98534 0.22467 0.0
H252 H 0.285 0.98214 0.23215 0.0
H253 H 0.2356 0.96113 0.24484 0.0
C254 C 0.10364 0.01403 0.19095 0.0
N255 N 0.09936 0.97945 0.20287 0.0
N256 N 0.14005 0.95433 0.20366 0.0
C257 C 0.17057 0.97075 0.19174 0.0
C258 C 0.14942 0.01007 0.18363 0.0
C259 C 0.06606 0.05227 0.18767 0.0
H260 H 0.0305 0.03466 0.18512 0.0
H261 H 0.06191 0.07518 0.19894 0.0
H262 H 0.07613 0.07606 0.17708 0.0
O263 O 0.03111 0.891 0.21619 0.0
O264 O 0.10191 0.85318 0.21955 0.0
H265 H 0.21659 0.90774 0.18959 0.0
H266 H 0.22628 0.95349 0.17379 0.0
C267 C 0.21784 0.94739 0.18715 0.0
H268 H 0.24715 0.96414 0.19458 0.0
H269 H 0.20544 0.81499 0.21193 0.0
O270 O 0.98999 1.00096 0.21376 0.0
C271 C 0.0559 0.85178 0.21731 0.0
Co272 Co 0.71448 0.80206 0.9686 0.0
Co273 Co 0.66094 0.90112 0.97272 0.0
C274 C 0.71824 0.85612 1.00081 0.0
O275 O 0.72806 0.81932 0.99187 0.0
O276 O 0.69303 0.89122 0.99506 0.0
C277 C 0.79485 0.73755 0.9713 0.0
O278 O 0.81239 0.77234 0.98078 0.0
C279 C 0.66549 1.00539 0.976 0.0
C280 C 0.59505 0.03086 0.96598 0.0
C281 C 0.63991 0.04695 0.97165 0.0
N282 N 0.63777 0.96647 0.9726 0.0
N283 N 0.59524 0.98181 0.96693 0.0
C284 C 0.7159 1.00211 0.98309 0.0
H285 H 0.73981 0.98169 0.97442 0.0
H286 H 0.7317 0.03843 0.98569 0.0
H287 H 0.71463 0.98155 0.99493 0.0
C288 C 0.76697 0.85828 0.94212 0.0
N289 N 0.7324 0.85345 0.954 0.0
N290 N 0.70673 0.89378 0.95482 0.0
C291 C 0.72259 0.92452 0.94288 0.0
C292 C 0.76225 0.90398 0.9348 0.0
C293 C 0.80553 0.8211 0.93877 0.0
H294 H 0.78815 0.78589 0.93555 0.0
H295 H 0.82734 0.81557 0.95023 0.0
H296 H 0.83033 0.83233 0.92859 0.0
O297 O 0.64377 0.78469 0.96633 0.0
O298 O 0.60532 0.8551 0.96988 0.0
H299 H 0.7031 0.97825 0.9245 0.0
H300 H 0.71331 1.00119 0.94504 0.0
C301 C 0.69754 0.97065 0.93795 0.0
H302 H 0.65799 0.96822 0.94048 0.0
H303 H 0.56735 0.95883 0.96294 0.0
O304 O 0.75381 0.74346 0.96422 0.0
C305 C 0.60438 0.80925 0.96733 0.0
Co306 Co 0.96481 0.96057 0.7186 0.0
Co307 Co 0.86355 0.91227 0.72479 0.0
C308 C 0.90973 0.96931 0.75151 0.0
O309 O 0.94598 0.97711 0.74197 0.0
O310 O 0.87358 0.94409 0.74666 0.0
C311 C 0.02777 0.0435 0.71848 0.0
O312 O 0.98851 0.06698 0.72325 0.0
C313 C 0.75887 0.90198 0.73161 0.0
C314 C 0.7359 0.85525 0.71069 0.0
C315 C 0.71798 0.88422 0.72341 0.0
N316 N 0.79886 0.88616 0.7236 0.0
N317 N 0.78487 0.85676 0.71148 0.0
C318 C 0.75995 0.93515 0.74643 0.0
H319 H 0.77662 0.97053 0.74306 0.0
H320 H 0.72292 0.94125 0.75155 0.0
H321 H 0.78308 0.91857 0.75624 0.0
C322 C 0.9098 1.00654 0.69016 0.0
N323 N 0.91369 0.97687 0.70355 0.0
N324 N 0.87031 0.96029 0.70745 0.0
C325 C 0.83707 0.98173 0.69751 0.0
C326 C 0.86068 0.01062 0.68571 0.0
C327 C 0.95262 0.02906 0.68163 0.0
H328 H 0.98615 1.00791 0.68429 0.0
H329 H 0.95769 0.06668 0.68635 0.0
H330 H 0.94663 0.03061 0.66797 0.0
O331 O 0.98182 0.89064 0.71717 0.0
O332 O 0.91036 0.85566 0.72182 0.0
H333 H 0.76668 0.9484 0.69626 0.0
H334 H 0.76514 0.01425 0.69605 0.0
C335 C 0.78374 0.98186 0.70128 0.0
H336 H 0.77872 0.98312 0.71488 0.0
H337 H 0.8086 0.84091 0.70291 0.0
O338 O 0.02475 0.99863 0.71472 0.0
C339 C 0.956 0.85248 0.71889 0.0
Co340 Co 0.80692 0.21674 0.46767 0.0
Co341 Co 0.859 0.11716 0.47214 0.0
C342 C 0.80096 0.16325 0.49988 0.0
O343 O 0.79192 0.20014 0.49089 0.0
O344 O 0.82579 0.12773 0.49423 0.0
C345 C 0.72572 0.27998 0.46921 0.0
O346 O 0.70673 0.24387 0.47774 0.0
C347 C 0.85357 0.01298 0.47572 0.0
C348 C 0.92435 0.98674 0.46624 0.0
C349 C 0.87914 0.97111 0.47173 0.0
N350 N 0.88169 0.05161 0.47232 0.0
N351 N 0.92439 0.03582 0.46696 0.0
C352 C 0.80301 0.01693 0.48261 0.0
H353 H 0.78032 0.03996 0.47433 0.0
H354 H 0.78564 0.98092 0.4844 0.0
H355 H 0.80471 0.03527 0.49488 0.0
C356 C 0.75664 0.16198 0.4404 0.0
N357 N 0.78944 0.16563 0.45289 0.0
N358 N 0.81446 0.12486 0.45384 0.0
C359 C 0.79993 0.09508 0.4414 0.0
C360 C 0.7621 0.11703 0.43277 0.0
C361 C 0.72158 0.20115 0.43557 0.0
H362 H 0.74112 0.2363 0.4344 0.0
H363 H 0.69371 0.20501 0.44547 0.0
H364 H 0.70311 0.19257 0.42362 0.0
O365 O 0.87772 0.2335 0.46586 0.0
O366 O 0.9153 0.16272 0.46967 0.0
H367 H 0.86121 0.04652 0.44055 0.0
H368 H 0.81724 0.03692 0.42425 0.0
C369 C 0.82188 0.04657 0.43755 0.0
H370 H 0.80306 0.01855 0.44501 0.0
H371 H 0.95263 0.05849 0.46304 0.0
O372 O 0.76819 0.2754 0.46309 0.0
C373 C 0.9168 0.20858 0.46714 0.0
Co374 Co 0.54881 0.05324 0.21781 0.0
Co375 Co 0.64779 0.10668 0.22189 0.0
C376 C 0.60458 0.04686 0.24966 0.0
O377 O 0.56732 0.03772 0.24085 0.0
O378 O 0.63931 0.07264 0.24394 0.0
C379 C 0.48481 0.97233 0.22006 0.0
O380 O 0.52 0.95404 0.22921 0.0
C381 C 0.75195 0.10237 0.22515 0.0
C382 C 0.77753 0.17344 0.21575 0.0
C383 C 0.79356 0.12838 0.22125 0.0
N384 N 0.71304 0.13014 0.22176 0.0
N385 N 0.72841 0.17299 0.21642 0.0
C386 C 0.7485 0.05169 0.23198 0.0
H387 H 0.72248 0.02999 0.22446 0.0
H388 H 0.78428 0.03315 0.23248 0.0
H389 H 0.73392 0.05359 0.24482 0.0
C390 C 0.60453 1.00221 0.1908 0.0
N391 N 0.59965 0.03657 0.20275 0.0
N392 N 0.64002 0.06216 0.20364 0.0
C393 C 0.67083 0.04639 0.1917 0.0
C394 C 0.65031 1.0069 0.18352 0.0
C395 C 0.5676 0.96339 0.18749 0.0
H396 H 0.53185 0.98047 0.1848 0.0
H397 H 0.5635 0.94062 0.1988 0.0
H398 H 0.57825 0.93957 0.17697 0.0
O399 O 0.53055 0.12405 0.21645 0.0
O400 O 0.60111 0.16224 0.21991 0.0
H401 H 0.71574 0.11019 0.18969 0.0
H402 H 0.72613 0.06496 0.17377 0.0
C403 C 0.71767 0.07062 0.18715 0.0
H404 H 0.74736 0.05423 0.19451 0.0
H405 H 0.70545 0.20106 0.21254 0.0
O406 O 0.4903 0.01399 0.21339 0.0
C407 C 0.55507 0.16337 0.21774 0.0
Co408 Co 0.70891 0.2164 0.59939 0.0
Co409 Co 0.66013 0.11604 0.59269 0.0
C410 C 0.71883 0.1626 0.56634 0.0
O411 O 0.7267 0.19871 0.57594 0.0
O412 O 0.69292 0.12679 0.57105 0.0
C413 C 0.79127 0.27929 0.59965 0.0
O414 O 0.81267 0.24228 0.59232 0.0
C415 C 0.64934 0.01232 0.58488 0.0
C416 C 0.60238 0.98767 0.6055 0.0
C417 C 0.63129 0.97085 0.59259 0.0
N418 N 0.63367 0.05159 0.5933 0.0
N419 N 0.60411 0.03666 0.60523 0.0
C420 C 0.68319 0.01444 0.57025 0.0
H421 H 0.71844 0.03076 0.57397 0.0
H422 H 0.68951 0.97781 0.56485 0.0
H423 H 0.66705 0.03826 0.56055 0.0
C424 C 0.75434 0.16039 0.62755 0.0
N425 N 0.72435 0.16473 0.61426 0.0
N426 N 0.70762 0.12158 0.61022 0.0
C427 C 0.72924 0.08797 0.61997 0.0
C428 C 0.75864 0.11114 0.63175 0.0
C429 C 0.7769 0.20294 0.63622 0.0
H430 H 0.75487 0.23621 0.63412 0.0
H431 H 0.81395 0.20912 0.63113 0.0
H432 H 0.77978 0.19604 0.6498 0.0
O433 O 0.63899 0.23405 0.60058 0.0
O434 O 0.60371 0.16293 0.59567 0.0
H435 H 0.69547 0.0178 0.62102 0.0
H436 H 0.76141 0.01584 0.62101 0.0
C437 C 0.72895 0.03482 0.61599 0.0
H438 H 0.72973 0.03039 0.60236 0.0
H439 H 0.58834 0.05967 0.61406 0.0
O440 O 0.74733 0.2751 0.60444 0.0
C441 C 0.60071 0.2085 0.5987 0.0
Co442 Co 0.55265 0.96383 0.34891 0.0
Co443 Co 0.6516 0.91035 0.34451 0.0
C444 C 0.60658 0.96859 0.31668 0.0
O445 O 0.56984 0.9781 0.32568 0.0
O446 O 0.64173 0.94319 0.32231 0.0
C447 C 0.48857 0.0445 0.34645 0.0
O448 O 0.52371 0.06235 0.33719 0.0
C449 C 0.75583 0.91473 0.34111 0.0
C450 C 0.78132 0.84393 0.35081 0.0
C451 C 0.79741 0.8889 0.34525 0.0
N452 N 0.7169 0.88701 0.34449 0.0
N453 N 0.73223 0.84428 0.34997 0.0
C454 C 0.75251 0.96533 0.3342 0.0
H455 H 0.73136 0.98876 0.34281 0.0
H456 H 0.78881 0.98155 0.33189 0.0
H457 H 0.73262 0.96423 0.32221 0.0
C458 C 0.60903 0.01523 0.37561 0.0
N459 N 0.60412 0.98116 0.36357 0.0
N460 N 0.64446 0.95554 0.3626 0.0
C461 C 0.67531 0.97093 0.37458 0.0
C462 C 0.65479 0.01023 0.38287 0.0
C463 C 0.57184 0.05364 0.37916 0.0
H464 H 0.53659 0.03614 0.38227 0.0
H465 H 0.56636 0.07598 0.36782 0.0
H466 H 0.58305 0.07796 0.38947 0.0
O467 O 0.53502 0.89314 0.35091 0.0
O468 O 0.60542 0.8548 0.34715 0.0
H469 H 0.7191 0.90633 0.37666 0.0
H470 H 0.72947 0.95095 0.39277 0.0
C471 C 0.72157 0.94579 0.37932 0.0
H472 H 0.75194 0.96178 0.3722 0.0
H473 H 0.70925 0.81633 0.35391 0.0
O474 O 0.49416 1.00318 0.35337 0.0
C475 C 0.55957 0.85379 0.34972 0.0
Co476 Co 0.80413 0.79818 0.09962 0.0
Co477 Co 0.85645 0.89758 0.09551 0.0
C478 C 0.79601 0.85458 0.06792 0.0
O479 O 0.78753 0.81713 0.07671 0.0
O480 O 0.82168 0.88945 0.07358 0.0
C481 C 0.72276 0.73466 0.09805 0.0
O482 O 0.70297 0.771 0.08984 0.0
C483 C 0.85276 1.0017 0.09217 0.0
C484 C 0.92434 0.02683 0.10129 0.0
C485 C 0.87934 0.04311 0.09582 0.0
N486 N 0.88023 0.96264 0.0956 0.0
N487 N 0.92337 0.97772 0.10079 0.0
C488 C 0.80186 0.99862 0.08551 0.0
H489 H 0.80368 0.98993 0.07204 0.0
H490 H 0.78186 0.9686 0.09172 0.0
H491 H 0.78166 0.03325 0.08695 0.0
C492 C 0.75499 0.85189 0.12742 0.0
N493 N 0.7879 0.8484 0.11496 0.0
N494 N 0.81261 0.88934 0.114 0.0
C495 C 0.79759 0.91916 0.12637 0.0
C496 C 0.75995 0.89695 0.13501 0.0
C497 C 0.71952 0.81289 0.13201 0.0
H498 H 0.73863 0.77742 0.13291 0.0
H499 H 0.69148 0.81001 0.12212 0.0
H500 H 0.7013 0.82103 0.14404 0.0
O501 O 0.87487 0.78017 0.10067 0.0
O502 O 0.91243 0.851 0.09717 0.0
H503 H 0.8571 0.96984 0.12697 0.0
H504 H 0.8122 0.97935 0.14297 0.0
C505 C 0.81769 0.96868 0.12979 0.0
H506 H 0.79806 0.99526 0.12195 0.0
H507 H 0.95133 0.95459 0.10465 0.0
O508 O 0.76546 0.73935 0.10397 0.0
C509 C 0.91397 0.80494 0.09927 0.0
Co510 Co 0.96893 0.05617 0.85003 0.0
Co511 Co 0.86913 0.10844 0.84604 0.0
C512 C 0.91351 0.04963 0.81819 0.0
O513 O 0.95087 0.04062 0.82696 0.0
O514 O 0.87843 0.07478 0.824 0.0
C515 C 0.03255 0.97505 0.84829 0.0
O516 O 0.99626 0.95582 0.83991 0.0
C517 C 0.76498 0.10278 0.84278 0.0
C518 C 0.73852 0.17355 0.85217 0.0
C519 C 0.72304 0.12825 0.84673 0.0
N520 N 0.80354 0.13106 0.84612 0.0
N521 N 0.78762 0.17374 0.85144 0.0
C522 C 0.76912 0.05222 0.83591 0.0
H523 H 0.79522 0.03071 0.84346 0.0
H524 H 0.73355 0.03334 0.83527 0.0
H525 H 0.78399 0.05442 0.8231 0.0
C526 C 0.91516 1.00631 0.87764 0.0
N527 N 0.91849 0.03917 0.86516 0.0
N528 N 0.8777 0.06421 0.86437 0.0
C529 C 0.84824 0.04963 0.87689 0.0
C530 C 0.87043 0.01177 0.88543 0.0
C531 C 0.95429 0.97092 0.88222 0.0
H532 H 0.98964 0.99018 0.88323 0.0
H533 H 0.95752 0.94317 0.87225 0.0
H534 H 0.94609 0.95237 0.89417 0.0
O535 O 0.98591 0.127 0.85148 0.0
O536 O 0.91497 0.16466 0.84806 0.0
H537 H 0.79915 0.11045 0.87783 0.0
H538 H 0.78977 0.06616 0.89402 0.0
C539 C 0.79951 0.07109 0.88074 0.0
H540 H 0.77173 0.05214 0.87321 0.0
H541 H 0.81023 0.20211 0.85529 0.0
O542 O 0.02795 0.01756 0.85438 0.0
C543 C 0.961 0.1661 0.85025 0.0
Co544 Co 0.80177 0.71753 0.59825 0.0
Co545 Co 0.85423 0.61757 0.59473 0.0
C546 C 0.79624 0.66085 0.56653 0.0
O547 O 0.78695 0.6982 0.57526 0.0
O548 O 0.82153 0.62599 0.57241 0.0
C549 C 0.72052 0.78133 0.59566 0.0
O550 O 0.69962 0.74333 0.58879 0.0
C551 C 0.84937 0.51285 0.592 0.0
C552 C 0.9195 0.4877 0.60235 0.0
C553 C 0.87477 0.47139 0.59663 0.0
N554 N 0.87706 0.55191 0.59529 0.0
N555 N 0.91941 0.53671 0.60116 0.0
C556 C 0.79929 0.51597 0.58464 0.0
H557 H 0.77557 0.53849 0.59274 0.0
H558 H 0.78272 0.47967 0.58268 0.0
H559 H 0.80155 0.5344 0.57239 0.0
C560 C 0.74944 0.66319 0.62554 0.0
N561 N 0.78384 0.66733 0.61354 0.0
N562 N 0.80882 0.62651 0.61275 0.0
C563 C 0.79252 0.59614 0.62474 0.0
C564 C 0.75336 0.61739 0.63288 0.0
C565 C 0.71155 0.70099 0.62897 0.0
H566 H 0.72894 0.73732 0.62987 0.0
H567 H 0.68535 0.70179 0.61847 0.0
H568 H 0.69112 0.6933 0.64057 0.0
O569 O 0.87283 0.73475 0.59988 0.0
O570 O 0.91044 0.66369 0.59688 0.0
H571 H 0.81023 0.54124 0.64294 0.0
H572 H 0.80004 0.5193 0.62227 0.0
C573 C 0.81632 0.54923 0.62955 0.0
H574 H 0.85599 0.55086 0.62718 0.0
H575 H 0.94726 0.5598 0.60511 0.0
O576 O 0.76343 0.7775 0.60151 0.0
C577 C 0.91197 0.70979 0.59889 0.0
Co578 Co 0.55302 0.55276 0.84813 0.0
Co579 Co 0.65175 0.60631 0.84358 0.0
C580 C 0.60627 0.54838 0.81574 0.0
O581 O 0.56973 0.53874 0.82483 0.0
O582 O 0.64149 0.57374 0.82133 0.0
C583 C 0.48884 0.47218 0.84575 0.0
O584 O 0.52367 0.45445 0.83632 0.0
C585 C 0.75604 0.60213 0.8402 0.0
C586 C 0.78113 0.67316 0.84979 0.0
C587 C 0.79747 0.62815 0.84435 0.0
N588 N 0.71696 0.62976 0.84349 0.0
N589 N 0.73206 0.67263 0.8489 0.0
C590 C 0.75306 0.55134 0.83344 0.0
H591 H 0.73382 0.52754 0.84245 0.0
H592 H 0.78947 0.53604 0.8306 0.0
H593 H 0.7315 0.55162 0.82179 0.0
C594 C 0.60989 0.50123 0.87472 0.0
N595 N 0.60479 0.53523 0.86266 0.0
N596 N 0.64501 0.561 0.86167 0.0
C597 C 0.67591 0.54585 0.87367 0.0
C598 C 0.65562 0.50647 0.88199 0.0
C599 C 0.57284 0.46274 0.87831 0.0
H600 H 0.56668 0.44094 0.86689 0.0
H601 H 0.58456 0.43791 0.88841 0.0
H602 H 0.53781 0.4802 0.88173 0.0
O603 O 0.53535 0.62349 0.85029 0.0
O604 O 0.60564 0.66185 0.84641 0.0
H605 H 0.72927 0.56681 0.892 0.0
H606 H 0.75254 0.5558 0.87155 0.0
C607 C 0.72174 0.57159 0.87851 0.0
H608 H 0.71891 0.61097 0.87573 0.0
H609 H 0.70893 0.70056 0.85276 0.0
O610 O 0.49466 0.51337 0.85271 0.0
C611 C 0.55985 0.66285 0.84911 0.0
Co612 Co 0.71263 0.29824 0.09846 0.0
Co613 Co 0.65962 0.39765 0.09464 0.0
C614 C 0.71805 0.35414 0.06656 0.0
O615 O 0.7272 0.31675 0.07531 0.0
O616 O 0.69276 0.38905 0.07241 0.0
C617 C 0.79307 0.23361 0.09572 0.0
O618 O 0.81059 0.26839 0.08623 0.0
C619 C 0.66382 0.50198 0.0916 0.0
C620 C 0.59327 0.52714 0.10161 0.0
C621 C 0.63803 0.54342 0.09591 0.0
N622 N 0.63626 0.46294 0.09499 0.0
N623 N 0.59369 0.47809 0.10067 0.0
C624 C 0.71414 0.49884 0.08445 0.0
H625 H 0.7372 0.47511 0.09237 0.0
H626 H 0.73137 0.53503 0.08298 0.0
H627 H 0.712 0.48171 0.07198 0.0
C628 C 0.76498 0.35345 0.12531 0.0
N629 N 0.7303 0.349 0.11343 0.0
N630 N 0.70494 0.38954 0.11268 0.0
C631 C 0.72119 0.42006 0.12463 0.0
C632 C 0.76074 0.39914 0.13268 0.0
C633 C 0.80347 0.31608 0.12853 0.0
H634 H 0.78602 0.28071 0.13149 0.0
H635 H 0.82549 0.31116 0.11708 0.0
H636 H 0.82806 0.32678 0.13883 0.0
O637 O 0.64166 0.28064 0.1003 0.0
O638 O 0.60378 0.35141 0.09693 0.0
H639 H 0.70302 0.47475 0.14283 0.0
H640 H 0.71329 0.49671 0.12216 0.0
C641 C 0.69707 0.46677 0.12943 0.0
H642 H 0.65744 0.46497 0.12699 0.0
H643 H 0.56587 0.45498 0.10464 0.0
O644 O 0.75194 0.23944 0.10275 0.0
C645 C 0.60242 0.30544 0.09921 0.0
Co646 Co 0.96735 0.46237 0.34818 0.0
Co647 Co 0.86808 0.40908 0.34423 0.0
C648 C 0.91174 0.46807 0.31629 0.0
O649 O 0.94894 0.47747 0.3251 0.0
O650 O 0.87703 0.44237 0.32205 0.0
C651 C 0.03212 0.54273 0.34574 0.0
O652 O 0.99721 0.56079 0.3364 0.0
C653 C 0.76379 0.41433 0.34127 0.0
C654 C 0.73803 0.34372 0.35101 0.0
C655 C 0.72213 0.38888 0.34555 0.0
N656 N 0.8026 0.38623 0.34448 0.0
N657 N 0.78709 0.34362 0.34999 0.0
C658 C 0.7673 0.46494 0.33438 0.0
H659 H 0.78968 0.48791 0.34278 0.0
H660 H 0.7311 0.48185 0.33247 0.0
H661 H 0.78602 0.46357 0.32218 0.0
C662 C 0.91192 0.51391 0.37512 0.0
N663 N 0.91653 0.47959 0.36315 0.0
N664 N 0.87618 0.45395 0.36237 0.0
C665 C 0.84569 0.46956 0.37443 0.0
C666 C 0.86637 0.50906 0.38255 0.0
C667 C 0.94902 0.55258 0.3784 0.0
H668 H 0.9845 0.53531 0.38138 0.0
H669 H 0.95387 0.57473 0.36698 0.0
H670 H 0.93811 0.577 0.38872 0.0
O671 O 0.98482 0.39142 0.34984 0.0
O672 O 0.91421 0.35321 0.34648 0.0
H673 H 0.79202 0.44996 0.39281 0.0
H674 H 0.76898 0.46068 0.3723 0.0
C675 C 0.79951 0.44463 0.37934 0.0
H676 H 0.80178 0.40514 0.37671 0.0
H677 H 0.80996 0.31542 0.35381 0.0
O678 O 0.02625 0.50137 0.35259 0.0
C679 C 0.96021 0.35209 0.34873 0.0
Co680 Co 0.80603 0.30154 0.96767 0.0
Co681 Co 0.85788 0.40093 0.97222 0.0
C682 C 0.79786 0.35647 0.99968 0.0
O683 O 0.78959 0.31939 0.99069 0.0
O684 O 0.82325 0.39178 0.99418 0.0
C685 C 0.72477 0.23811 0.96894 0.0
O686 O 0.70473 0.27466 0.97697 0.0
C687 C 0.85369 0.50501 0.97574 0.0
C688 C 0.92522 0.53043 0.96667 0.0
C689 C 0.8801 0.54655 0.97209 0.0
N690 N 0.88134 0.46607 0.97232 0.0
N691 N 0.92445 0.48133 0.96718 0.0
C692 C 0.80281 0.50163 0.98239 0.0
H693 H 0.78203 0.47368 0.97541 0.0
H694 H 0.78344 0.53698 0.98199 0.0
H695 H 0.80454 0.48958 0.99556 0.0
C696 C 0.75723 0.35551 0.93989 0.0
N697 N 0.7895 0.35211 0.95255 0.0
N698 N 0.81408 0.39309 0.95367 0.0
C699 C 0.79962 0.42289 0.94121 0.0
C700 C 0.76247 0.4006 0.93234 0.0
C701 C 0.72259 0.31614 0.93493 0.0
H702 H 0.74221 0.28093 0.93414 0.0
H703 H 0.6939 0.31275 0.94458 0.0
H704 H 0.70512 0.32424 0.92277 0.0
O705 O 0.87678 0.28422 0.96633 0.0
O706 O 0.91426 0.35491 0.97024 0.0
H707 H 0.8596 0.473 0.94074 0.0
H708 H 0.81515 0.48286 0.92459 0.0
C709 C 0.82025 0.47219 0.93779 0.0
H710 H 0.80073 0.49898 0.94557 0.0
H711 H 0.95252 0.45832 0.96334 0.0
O712 O 0.76766 0.24266 0.96318 0.0
C713 C 0.91585 0.30901 0.96779 0.0
Co714 Co 0.96676 0.55367 0.21754 0.0
Co715 Co 0.86603 0.60454 0.22127 0.0
C716 C 0.90992 0.54652 0.24925 0.0
O717 O 0.94742 0.5383 0.24046 0.0
O718 O 0.87448 0.57123 0.24348 0.0
C719 C 0.02995 0.47211 0.21972 0.0
O720 O 0.99089 0.45054 0.22559 0.0
C721 C 0.76139 0.5998 0.22434 0.0
C722 C 0.73597 0.66975 0.21393 0.0
C723 C 0.71979 0.62526 0.21989 0.0
N724 N 0.80037 0.62728 0.22077 0.0
N725 N 0.78505 0.66951 0.21484 0.0
C726 C 0.7648 0.55007 0.23193 0.0
H727 H 0.79083 0.5274 0.22476 0.0
H728 H 0.72899 0.5317 0.23274 0.0
H729 H 0.77945 0.55362 0.24474 0.0
C730 C 0.91435 0.50291 0.18965 0.0
N731 N 0.91702 0.53575 0.20217 0.0
N732 N 0.87553 0.55969 0.20306 0.0
C733 C 0.84615 0.54413 0.19063 0.0
C734 C 0.86922 0.507 0.18201 0.0
C735 C 0.9544 0.46881 0.18488 0.0
H736 H 0.98989 0.488 0.18531 0.0
H737 H 0.95554 0.4383 0.19392 0.0
H738 H 0.94841 0.45366 0.17223 0.0
O739 O 0.9831 0.62463 0.21597 0.0
O740 O 0.91171 0.6614 0.21928 0.0
H741 H 0.79567 0.60369 0.18928 0.0
H742 H 0.78595 0.55728 0.17382 0.0
C743 C 0.79664 0.56402 0.18693 0.0
H744 H 0.76984 0.54548 0.19498 0.0
H745 H 0.80805 0.69721 0.21072 0.0
O746 O 0.02706 0.51572 0.21446 0.0
C747 C 0.95775 0.66346 0.21712 0.0
Co748 Co 0.71346 0.71567 0.46726 0.0
Co749 Co 0.66127 0.61609 0.47128 0.0
C750 C 0.71992 0.66007 0.49918 0.0
O751 O 0.72876 0.69734 0.49034 0.0
O752 O 0.69475 0.62494 0.49344 0.0
C753 C 0.79427 0.77977 0.46922 0.0
O754 O 0.81387 0.74347 0.4775 0.0
C755 C 0.66545 0.51197 0.4746 0.0
C756 C 0.59461 0.4866 0.46489 0.0
C757 C 0.63945 0.47045 0.47057 0.0
N758 N 0.63788 0.55092 0.47111 0.0
N759 N 0.59514 0.53568 0.4656 0.0
C760 C 0.7159 0.51532 0.48163 0.0
H761 H 0.73771 0.54182 0.47436 0.0
H762 H 0.73458 0.47961 0.48201 0.0
H763 H 0.7135 0.52932 0.49455 0.0
C764 C 0.76369 0.66199 0.43972 0.0
N765 N 0.73074 0.6653 0.45217 0.0
N766 N 0.70587 0.62444 0.453 0.0
C767 C 0.72071 0.59492 0.44052 0.0
C768 C 0.75852 0.61715 0.43198 0.0
C769 C 0.79891 0.70123 0.43514 0.0
H770 H 0.77948 0.7365 0.43412 0.0
H771 H 0.82665 0.70459 0.44511 0.0
H772 H 0.8175 0.69307 0.42318 0.0
O773 O 0.64267 0.73279 0.46557 0.0
O774 O 0.60506 0.66198 0.46908 0.0
H775 H 0.66022 0.5455 0.43954 0.0
H776 H 0.70512 0.53581 0.42355 0.0
C777 C 0.69968 0.546 0.43677 0.0
H778 H 0.7186 0.51867 0.4445 0.0
H779 H 0.56726 0.55872 0.46162 0.0
O780 O 0.75187 0.77486 0.46306 0.0
C781 C 0.60356 0.70791 0.46673 0.0
Co782 Co 0.54578 0.4624 0.71708 0.0
Co783 Co 0.64547 0.41024 0.72086 0.0
C784 C 0.60296 0.4701 0.74869 0.0
O785 O 0.56522 0.47852 0.74002 0.0
O786 O 0.63784 0.44468 0.74288 0.0
C787 C 0.48205 0.54366 0.71912 0.0
O788 O 0.51802 0.56263 0.72773 0.0
C789 C 0.74974 0.41335 0.72407 0.0
C790 C 0.77447 0.34211 0.71453 0.0
C791 C 0.79102 0.38675 0.72022 0.0
N792 N 0.71051 0.38625 0.72055 0.0
N793 N 0.72536 0.34331 0.71511 0.0
C794 C 0.74694 0.46392 0.73101 0.0
H795 H 0.71715 0.48447 0.72486 0.0
H796 H 0.78175 0.4839 0.72976 0.0
H797 H 0.73802 0.4615 0.74445 0.0
C798 C 0.59903 0.51241 0.68932 0.0
N799 N 0.59581 0.47909 0.70167 0.0
N800 N 0.6369 0.45455 0.7025 0.0
C801 C 0.66658 0.47014 0.69016 0.0
C802 C 0.6441 0.50793 0.68167 0.0
C803 C 0.5598 0.54787 0.68491 0.0
H804 H 0.52448 0.52857 0.68385 0.0
H805 H 0.55658 0.57527 0.69499 0.0
H806 H 0.56793 0.56683 0.67302 0.0
O807 O 0.52773 0.39158 0.71592 0.0
O808 O 0.59881 0.35426 0.71923 0.0
H809 H 0.71756 0.41089 0.68925 0.0
H810 H 0.7268 0.45657 0.67347 0.0
C811 C 0.7162 0.4504 0.68663 0.0
H812 H 0.7427 0.46977 0.69458 0.0
H813 H 0.70205 0.31564 0.71114 0.0
O814 O 0.48689 0.50138 0.71287 0.0
C815 C 0.5527 0.35255 0.71723 0.0
Co816 Co 0.21432 0.30043 0.46799 0.0
Co817 Co 0.16094 0.39943 0.47213 0.0
C818 C 0.21945 0.35512 0.50005 0.0
O819 O 0.22901 0.31817 0.49115 0.0
O820 O 0.19391 0.39004 0.49434 0.0
C821 C 0.29474 0.23578 0.47027 0.0
O822 O 0.31339 0.27098 0.47931 0.0
C823 C 0.16545 0.50361 0.47531 0.0
C824 C 0.09448 0.52903 0.46571 0.0
C825 C 0.13955 0.54513 0.47119 0.0
N826 N 0.13767 0.46468 0.47201 0.0
N827 N 0.09485 0.47997 0.46658 0.0
C828 C 0.21616 0.50032 0.48214 0.0
H829 H 0.2391 0.47778 0.47379 0.0
H830 H 0.23301 0.53658 0.48392 0.0
H831 H 0.21494 0.48186 0.49439 0.0
C832 C 0.26603 0.35634 0.44121 0.0
N833 N 0.2317 0.35149 0.45317 0.0
N834 N 0.20599 0.39179 0.45403 0.0
C835 C 0.22155 0.42249 0.44204 0.0
C836 C 0.2611 0.402 0.43389 0.0
C837 C 0.30471 0.3193 0.43783 0.0
H838 H 0.32732 0.3147 0.44916 0.0
H839 H 0.32873 0.33013 0.42739 0.0
H840 H 0.28747 0.28374 0.435 0.0
O841 O 0.14352 0.28296 0.46613 0.0
O842 O 0.10525 0.35345 0.46967 0.0
H843 H 0.20187 0.47648 0.42377 0.0
H844 H 0.21258 0.49909 0.44433 0.0
C845 C 0.19654 0.46873 0.43722 0.0
H846 H 0.15704 0.4664 0.43985 0.0
H847 H 0.06682 0.45696 0.46273 0.0
O848 O 0.25314 0.24159 0.46358 0.0
C849 C 0.10419 0.30756 0.46726 0.0
Co850 Co 0.46446 0.45955 0.21819 0.0
Co851 Co 0.36412 0.41052 0.22501 0.0
C852 C 0.41092 0.46921 0.25131 0.0
O853 O 0.44688 0.47714 0.24164 0.0
O854 O 0.37501 0.44333 0.24665 0.0
C855 C 0.52756 0.54181 0.21802 0.0
O856 O 0.49094 0.56291 0.22568 0.0
C857 C 0.26022 0.39998 0.23263 0.0
C858 C 0.23601 0.35266 0.21204 0.0
C859 C 0.21887 0.38203 0.22478 0.0
N860 N 0.29969 0.38394 0.22439 0.0
N861 N 0.28501 0.35413 0.21249 0.0
C862 C 0.26214 0.43398 0.24721 0.0
H863 H 0.27849 0.4692 0.24347 0.0
H864 H 0.22543 0.44029 0.25257 0.0
H865 H 0.2859 0.41799 0.25696 0.0
C866 C 0.40837 0.50402 0.18993 0.0
N867 N 0.41268 0.47459 0.20335 0.0
N868 N 0.36953 0.45785 0.20742 0.0
C869 C 0.33594 0.47895 0.19753 0.0
C870 C 0.35915 0.50795 0.18566 0.0
C871 C 0.45097 0.52628 0.18119 0.0
H872 H 0.48421 0.50425 0.18335 0.0
H873 H 0.45724 0.56342 0.18617 0.0
H874 H 0.44407 0.52884 0.1676 0.0
O875 O 0.48214 0.38983 0.217 0.0
O876 O 0.41117 0.35427 0.22198 0.0
H877 H 0.2659 0.44489 0.19646 0.0
H878 H 0.26368 0.51076 0.1962 0.0
C879 C 0.28271 0.47859 0.2014 0.0
H880 H 0.27803 0.47987 0.21501 0.0
H881 H 0.30822 0.33808 0.2038 0.0
O882 O 0.52307 0.49809 0.21304 0.0
C883 C 0.45674 0.35148 0.2189 0.0
Co884 Co 0.30721 0.71715 0.96728 0.0
Co885 Co 0.3603 0.61795 0.9716 0.0
C886 C 0.30265 0.66365 0.99951 0.0
O887 O 0.29294 0.70044 0.99057 0.0
O888 O 0.32775 0.62844 0.99378 0.0
C889 C 0.22647 0.78102 0.96947 0.0
O890 O 0.20829 0.74557 0.97851 0.0
C891 C 0.35455 0.51384 0.97512 0.0
C892 C 0.42541 0.4873 0.9658 0.0
C893 C 0.38006 0.47188 0.97123 0.0
N894 N 0.38283 0.55236 0.97173 0.0
N895 N 0.42555 0.5364 0.96645 0.0
C896 C 0.30382 0.51788 0.98187 0.0
H897 H 0.30504 0.5373 0.99394 0.0
H898 H 0.28102 0.53984 0.97329 0.0
H899 H 0.2868 0.48185 0.98398 0.0
C900 C 0.25521 0.66086 0.94064 0.0
N901 N 0.28948 0.6657 0.95263 0.0
N902 N 0.315 0.6253 0.95356 0.0
C903 C 0.29929 0.59445 0.94163 0.0
C904 C 0.25992 0.61506 0.9334 0.0
C905 C 0.21684 0.69812 0.93711 0.0
H906 H 0.23435 0.73355 0.93429 0.0
H907 H 0.19397 0.7029 0.94836 0.0
H908 H 0.19296 0.68738 0.92662 0.0
O909 O 0.37807 0.73424 0.96533 0.0
O910 O 0.41624 0.66368 0.96895 0.0
H911 H 0.31885 0.54009 0.92348 0.0
H912 H 0.30778 0.51771 0.94405 0.0
C913 C 0.32406 0.54796 0.93693 0.0
H914 H 0.36355 0.55009 0.9396 0.0
H915 H 0.45393 0.55895 0.96258 0.0
O916 O 0.26815 0.77577 0.96279 0.0
C917 C 0.41737 0.70957 0.96648 0.0
Co918 Co 0.04577 0.55344 0.71785 0.0
Co919 Co 0.1455 0.60576 0.72132 0.0
C920 C 0.10337 0.54658 0.7494 0.0
O921 O 0.06552 0.53787 0.74082 0.0
O922 O 0.13813 0.57186 0.74345 0.0
C923 C 0.98178 0.47238 0.72014 0.0
O924 O 0.01743 0.4537 0.72899 0.0
C925 C 0.24984 0.60254 0.72425 0.0
C926 C 0.27435 0.67354 0.71445 0.0
C927 C 0.29104 0.62895 0.72016 0.0
N928 N 0.21054 0.62967 0.72082 0.0
N929 N 0.22526 0.67249 0.71523 0.0
C930 C 0.24716 0.55213 0.73133 0.0
H931 H 0.21825 0.53102 0.72494 0.0
H932 H 0.28236 0.5326 0.73055 0.0
H933 H 0.23687 0.55479 0.74466 0.0
C934 C 0.0987 0.5029 0.69014 0.0
N935 N 0.09562 0.53644 0.70242 0.0
N936 N 0.13662 0.56114 0.70308 0.0
C937 C 0.16601 0.54552 0.69067 0.0
C938 C 0.14353 0.50747 0.68233 0.0
C939 C 0.05953 0.46721 0.68593 0.0
H940 H 0.0242 0.48645 0.68474 0.0
H941 H 0.05629 0.44032 0.69617 0.0
H942 H 0.0677 0.44767 0.67415 0.0
O943 O 0.02773 0.62426 0.71652 0.0
O944 O 0.09883 0.66166 0.71961 0.0
H945 H 0.21647 0.60514 0.68949 0.0
H946 H 0.22538 0.55951 0.67367 0.0
C947 C 0.2153 0.56561 0.68688 0.0
H948 H 0.24228 0.54644 0.69469 0.0
H949 H 0.20188 0.70013 0.71128 0.0
O950 O 0.98685 0.51442 0.71373 0.0
C951 C 0.0527 0.66332 0.71767 0.0
Co952 Co 0.21048 0.71465 0.09907 0.0
Co953 Co 0.16152 0.6144 0.09212 0.0
C954 C 0.22078 0.66124 0.06598 0.0
O955 O 0.22853 0.69718 0.07566 0.0
O956 O 0.19481 0.62535 0.07057 0.0
C957 C 0.29282 0.77753 0.09939 0.0
O958 O 0.31401 0.74078 0.09184 0.0
C959 C 0.15107 0.51061 0.08436 0.0
C960 C 0.1034 0.48618 0.10483 0.0
C961 C 0.13296 0.4692 0.09211 0.0
N962 N 0.13491 0.54998 0.09262 0.0
N963 N 0.10491 0.53517 0.10445 0.0
C964 C 0.18534 0.51267 0.06986 0.0
H965 H 0.22054 0.52888 0.0737 0.0
H966 H 0.1917 0.47604 0.06446 0.0
H967 H 0.16958 0.53658 0.06011 0.0
C968 C 0.25451 0.65844 0.12739 0.0
N969 N 0.22524 0.66282 0.11393 0.0
N970 N 0.20852 0.61972 0.10981 0.0
C971 C 0.22947 0.58608 0.11971 0.0
C972 C 0.25834 0.60921 0.13164 0.0
C973 C 0.27674 0.70096 0.13618 0.0
H974 H 0.25478 0.73423 0.134 0.0
H975 H 0.31396 0.70719 0.13125 0.0
H976 H 0.27913 0.69402 0.14977 0.0
O977 O 0.14073 0.73244 0.10011 0.0
O978 O 0.10524 0.6615 0.09503 0.0
H979 H 0.19534 0.51608 0.12069 0.0
H980 H 0.26123 0.51381 0.12106 0.0
C981 C 0.22913 0.53288 0.11581 0.0
H982 H 0.23058 0.52826 0.1022 0.0
H983 H 0.08873 0.55828 0.11315 0.0
O984 O 0.24901 0.77317 0.10429 0.0
C985 C 0.1024 0.70706 0.09811 0.0
Co986 Co 0.05272 0.46315 0.84878 0.0
Co987 Co 0.15199 0.41085 0.84437 0.0
C988 C 0.10727 0.46956 0.81665 0.0
O989 O 0.07032 0.47836 0.82565 0.0
O990 O 0.14267 0.44444 0.82224 0.0
C991 C 0.98914 0.54433 0.84719 0.0
O992 O 0.02545 0.56407 0.83895 0.0
C993 C 0.25614 0.41434 0.84087 0.0
C994 C 0.28112 0.34297 0.85024 0.0
C995 C 0.29753 0.38781 0.84468 0.0
N996 N 0.21703 0.38704 0.84436 0.0
N997 N 0.23202 0.34401 0.84967 0.0
C998 C 0.25308 0.46504 0.83405 0.0
H999 H 0.226 0.4865 0.8412 0.0
H1000 H 0.28877 0.48379 0.83406 0.0
H1001 H 0.23995 0.46312 0.821 0.0
C1002 C 0.10701 0.51287 0.87624 0.0
N1003 N 0.10346 0.48018 0.86373 0.0
N1004 N 0.14434 0.45536 0.86272 0.0
C1005 C 0.17417 0.47002 0.87514 0.0
C1006 C 0.15205 0.50761 0.88383 0.0
C1007 C 0.06778 0.54788 0.88106 0.0
H1008 H 0.03254 0.52842 0.88206 0.0
H1009 H 0.06425 0.57602 0.87122 0.0
H1010 H 0.07613 0.566 0.89308 0.0
O1011 O 0.03527 0.3926 0.85054 0.0
O1012 O 0.1059 0.35487 0.8467 0.0
H1013 H 0.22385 0.40966 0.87584 0.0
H1014 H 0.23364 0.45424 0.89194 0.0
C1015 C 0.22325 0.44904 0.87872 0.0
H1016 H 0.25034 0.46825 0.87099 0.0
H1017 H 0.20883 0.31622 0.8536 0.0
O1018 O 0.99393 0.50173 0.85317 0.0
C1019 C 0.06004 0.35347 0.84924 0.0
Co1020 Co 0.30154 0.29769 0.59907 0.0
Co1021 Co 0.35376 0.39775 0.59551 0.0
C1022 C 0.29574 0.35454 0.56737 0.0
O1023 O 0.28667 0.31714 0.5761 0.0
O1024 O 0.32091 0.38948 0.57323 0.0
C1025 C 0.2203 0.23409 0.59638 0.0
O1026 O 0.19941 0.27231 0.58962 0.0
C1027 C 0.34918 0.50244 0.59266 0.0
C1028 C 0.4193 0.52747 0.60304 0.0
C1029 C 0.37468 0.54387 0.59723 0.0
N1030 N 0.37672 0.46333 0.59606 0.0
N1031 N 0.41906 0.47844 0.60195 0.0
C1032 C 0.29922 0.49938 0.58522 0.0
H1033 H 0.27568 0.47595 0.59307 0.0
H1034 H 0.28223 0.53563 0.58355 0.0
H1035 H 0.30187 0.48193 0.57281 0.0
C1036 C 0.24923 0.35191 0.62638 0.0
N1037 N 0.28362 0.34783 0.61437 0.0
N1038 N 0.30841 0.38876 0.61354 0.0
C1039 C 0.29191 0.41918 0.62548 0.0
C1040 C 0.25289 0.39779 0.63366 0.0
C1041 C 0.21153 0.31399 0.62985 0.0
H1042 H 0.18503 0.31336 0.61944 0.0
H1043 H 0.19141 0.32146 0.64153 0.0
H1044 H 0.22901 0.27767 0.63062 0.0
O1045 O 0.37257 0.28046 0.60064 0.0
O1046 O 0.40998 0.35157 0.59757 0.0
H1047 H 0.30888 0.47478 0.64351 0.0
H1048 H 0.29874 0.49597 0.62273 0.0
C1049 C 0.31521 0.46642 0.63015 0.0
H1050 H 0.35492 0.46504 0.62786 0.0
H1051 H 0.44681 0.4553 0.60597 0.0
O1052 O 0.2632 0.23771 0.60224 0.0
C1053 C 0.41164 0.30547 0.59959 0.0
Co1054 Co 0.4684 0.55675 0.34985 0.0
Co1055 Co 0.36864 0.60872 0.34573 0.0
C1056 C 0.41363 0.55061 0.31785 0.0
O1057 O 0.45086 0.54166 0.3267 0.0
O1058 O 0.37828 0.57544 0.32363 0.0
C1059 C 0.53168 0.47553 0.34818 0.0
O1060 O 0.49507 0.45615 0.33999 0.0
C1061 C 0.26459 0.60351 0.34214 0.0
C1062 C 0.23817 0.67441 0.35143 0.0
C1063 C 0.22266 0.62928 0.34585 0.0
N1064 N 0.30316 0.63151 0.3457 0.0
N1065 N 0.2873 0.67425 0.35099 0.0
C1066 C 0.26868 0.55297 0.33525 0.0
H1067 H 0.2971 0.53235 0.34209 0.0
H1068 H 0.23366 0.53303 0.33562 0.0
H1069 H 0.28044 0.55544 0.32207 0.0
C1070 C 0.41435 0.50619 0.37725 0.0
N1071 N 0.41777 0.53928 0.36484 0.0
N1072 N 0.37679 0.564 0.36395 0.0
C1073 C 0.34701 0.54882 0.37631 0.0
C1074 C 0.36929 0.51104 0.38485 0.0
C1075 C 0.45367 0.47114 0.38195 0.0
H1076 H 0.48894 0.49057 0.38288 0.0
H1077 H 0.45695 0.44304 0.3721 0.0
H1078 H 0.44556 0.45295 0.39398 0.0
O1079 O 0.48528 0.62748 0.35156 0.0
O1080 O 0.41437 0.66502 0.348 0.0
H1081 H 0.29698 0.60888 0.37718 0.0
H1082 H 0.28737 0.5638 0.39312 0.0
C1083 C 0.29778 0.56941 0.37993 0.0
H1084 H 0.27074 0.55031 0.37212 0.0
H1085 H 0.30992 0.70247 0.35495 0.0
O1086 O 0.52734 0.51818 0.35417 0.0
C1087 C 0.46032 0.66655 0.35036 0.0
C1088 C 0.17925 0.08151 0.14427 0.0
C1089 C 0.22667 0.09769 0.14779 0.0
H1090 H 0.11753 0.04028 0.15282 0.0
C1091 C 0.24675 0.08818 0.1635 0.0
H1092 H 0.16332 0.08803 0.13213 0.0
C1093 C 0.22064 0.06135 0.17531 0.0
C1094 C 0.17398 0.04322 0.17161 0.0
H1095 H 0.28333 0.10019 0.16645 0.0
H1096 H 0.23744 0.05378 0.18724 0.0
C1097 C 0.15311 0.05431 0.15608 0.0
C1098 C 0.18889 0.93291 0.39401 0.0
C1099 C 0.17366 0.98076 0.39734 0.0
H1100 H 0.22881 0.87064 0.40281 0.0
C1101 C 0.1838 1.00128 0.41293 0.0
H1102 H 0.1818 0.91662 0.38197 0.0
C1103 C 0.21008 0.97501 0.42485 0.0
C1104 C 0.22701 0.92775 0.42138 0.0
H1105 H 0.17239 0.03812 0.41574 0.0
H1106 H 0.2179 0.99201 0.43672 0.0
C1107 C 0.2156 0.90666 0.40592 0.0
C1108 C 0.26767 0.97177 0.6526 0.0
C1109 C 0.28592 0.9285 0.64568 0.0
H1110 H 0.27971 0.03254 0.66834 0.0
C1111 C 0.33024 0.91025 0.65201 0.0
H1112 H 0.23288 0.98639 0.64877 0.0
C1113 C 0.35477 0.93441 0.66504 0.0
C1114 C 0.33686 0.97869 0.67145 0.0
H1115 H 0.34628 0.87756 0.64692 0.0
H1116 H 0.38736 0.91803 0.67009 0.0
C1117 C 0.29393 0.99763 0.66448 0.0
C1118 C 0.33754 0.01667 0.91407 0.0
C1119 C 0.34778 0.03653 0.89838 0.0
H1120 H 0.30263 0.02661 0.93768 0.0
C1121 C 0.33228 0.08412 0.89476 0.0
H1122 H 0.34918 0.98004 0.91711 0.0
C1123 C 0.30507 0.11068 0.90645 0.0
C1124 C 0.29333 0.09008 0.92196 0.0
H1125 H 0.33946 0.09992 0.88265 0.0
H1126 H 0.29163 0.14645 0.90313 0.0
C1127 C 0.31069 0.0432 0.92575 0.0
C1128 C 0.8333 0.93377 0.89541 0.0
C1129 C 0.84848 0.98161 0.89874 0.0
H1130 H 0.79321 0.87159 0.90416 0.0
C1131 C 0.83826 1.00215 0.91433 0.0
H1132 H 0.84049 0.91745 0.88337 0.0
C1133 C 0.81171 0.97602 0.92618 0.0
C1134 C 0.7947 0.92885 0.92267 0.0
H1135 H 0.84968 0.03898 0.91715 0.0
H1136 H 0.80364 0.9931 0.93803 0.0
C1137 C 0.80641 0.9076 0.90727 0.0
C1138 C 0.79414 0.01811 0.66452 0.0
C1139 C 0.83703 0.0371 0.67149 0.0
H1140 H 0.73309 0.02931 0.64881 0.0
C1141 C 0.85492 0.08135 0.66506 0.0
H1142 H 0.77996 0.98321 0.66839 0.0
C1143 C 0.83038 0.10547 0.65202 0.0
C1144 C 0.78608 0.08719 0.6457 0.0
H1145 H 0.88749 0.09774 0.67011 0.0
H1146 H 0.84639 0.13815 0.64691 0.0
C1147 C 0.76787 0.04394 0.65263 0.0
C1148 C 0.72693 0.05915 0.3918 0.0
C1149 C 0.67968 0.04209 0.39518 0.0
H1150 H 0.78983 0.09682 0.40105 0.0
C1151 C 0.65831 0.05324 0.41061 0.0
H1152 H 0.74411 0.05152 0.37994 0.0
C1153 C 0.68437 0.07973 0.42261 0.0
C1154 C 0.73225 0.09503 0.41938 0.0
H1155 H 0.62225 0.03997 0.41363 0.0
H1156 H 0.6679 0.08661 0.43464 0.0
C1157 C 0.75298 0.08527 0.40379 0.0
C1158 C 0.65502 0.96209 0.15611 0.0
C1159 C 0.6756 0.97401 0.17161 0.0
H1160 H 0.6658 0.9274 0.13236 0.0
C1161 C 0.72253 0.95677 0.17541 0.0
H1162 H 0.61923 0.97544 0.15277 0.0
C1163 C 0.74912 0.92986 0.16376 0.0
C1164 C 0.72923 0.91935 0.1481 0.0
H1165 H 0.73911 0.96493 0.18733 0.0
H1166 H 0.7858 0.91837 0.1668 0.0
C1167 C 0.68161 0.93476 0.14446 0.0
C1168 C 0.70941 0.61277 0.66051 0.0
C1169 C 0.72019 0.59258 0.64485 0.0
H1170 H 0.67595 0.60162 0.68446 0.0
C1171 C 0.70208 0.54602 0.641 0.0
H1172 H 0.7236 0.64814 0.66393 0.0
C1173 C 0.67549 0.5194 0.65274 0.0
C1174 C 0.6661 0.53888 0.66854 0.0
H1175 H 0.70952 0.52966 0.62899 0.0
H1176 H 0.66343 0.48297 0.64964 0.0
C1177 C 0.68236 0.58616 0.67224 0.0
C1178 C 0.68466 0.43715 0.92187 0.0
C1179 C 0.73286 0.42247 0.91886 0.0
H1180 H 0.62238 0.47623 0.91263 0.0
C1181 C 0.75411 0.43273 0.90338 0.0
H1182 H 0.66778 0.42992 0.93381 0.0
C1183 C 0.72818 0.45861 0.89128 0.0
C1184 C 0.68055 0.475 0.89444 0.0
H1185 H 0.79124 0.42171 0.90081 0.0
H1186 H 0.74574 0.46652 0.87951 0.0
C1187 C 0.65873 0.46345 0.90977 0.0
C1188 C 0.81112 0.47079 0.14118 0.0
C1189 C 0.79369 0.42379 0.14474 0.0
H1190 H 0.84929 0.5337 0.15018 0.0
C1191 C 0.80532 0.40264 0.16018 0.0
H1192 H 0.80316 0.48782 0.12932 0.0
C1193 C 0.83235 0.42879 0.17203 0.0
C1194 C 0.84783 0.47652 0.16865 0.0
H1195 H 0.79184 0.36677 0.16334 0.0
H1196 H 0.83931 0.4126 0.18411 0.0
C1197 C 0.8378 0.49691 0.15302 0.0
C1198 C 0.86281 0.55323 0.4101 0.0
C1199 C 0.84152 0.54153 0.39469 0.0
H1200 H 0.85297 0.58725 0.43401 0.0
C1201 C 0.79431 0.55858 0.3912 0.0
H1202 H 0.89885 0.54004 0.41319 0.0
C1203 C 0.76816 0.58508 0.40307 0.0
C1204 C 0.78873 0.59527 0.41866 0.0
H1205 H 0.7772 0.55056 0.37936 0.0
H1206 H 0.7313 0.59648 0.40026 0.0
C1207 C 0.83662 0.58009 0.42198 0.0
C1208 C 0.31057 0.47424 0.42548 0.0
C1209 C 0.29358 0.42714 0.42184 0.0
H1210 H 0.3484 0.53749 0.41662 0.0
C1211 C 0.30529 0.40629 0.40637 0.0
H1212 H 0.30252 0.49102 0.43737 0.0
C1213 C 0.33216 0.43277 0.39458 0.0
C1214 C 0.34729 0.48054 0.39806 0.0
H1215 H 0.2921 0.37035 0.40315 0.0
H1216 H 0.33938 0.41676 0.3825 0.0
C1217 C 0.33704 0.50071 0.41369 0.0
C1218 C 0.35343 0.57906 0.16522 0.0
C1219 C 0.33527 0.53482 0.17158 0.0
H1220 H 0.34561 0.63587 0.14707 0.0
C1221 C 0.29223 0.51621 0.16461 0.0
H1222 H 0.38598 0.5953 0.17034 0.0
C1223 C 0.26634 0.5422 0.15266 0.0
C1224 C 0.28506 0.58525 0.14573 0.0
H1225 H 0.27776 0.48141 0.16848 0.0
H1226 H 0.23154 0.5278 0.14874 0.0
C1227 C 0.32928 0.60331 0.15215 0.0
C1228 C 0.18405 0.51703 0.91275 0.0
C1229 C 0.17417 0.5376 0.89714 0.0
H1230 H 0.21814 0.52605 0.93655 0.0
C1231 C 0.18968 0.58533 0.89381 0.0
H1232 H 0.17241 0.48025 0.91556 0.0
C1233 C 0.21649 0.61141 0.90572 0.0
C1234 C 0.22772 0.5902 0.92118 0.0
H1235 H 0.18277 0.60165 0.88176 0.0
H1236 H 0.22995 0.64731 0.90262 0.0
C1237 C 0.21044 0.54311 0.92467 0.0
C1238 C 0.20916 0.4026 0.66131 0.0
C1239 C 0.21956 0.42254 0.64559 0.0
H1240 H 0.17601 0.41403 0.68529 0.0
C1241 C 0.201 0.46887 0.64164 0.0
H1242 H 0.2237 0.3674 0.6648 0.0
C1243 C 0.17436 0.49554 0.65335 0.0
C1244 C 0.1654 0.47635 0.66923 0.0
H1245 H 0.20816 0.48503 0.62958 0.0
H1246 H 0.16198 0.53183 0.65019 0.0
C1247 C 0.18208 0.42926 0.67302 0.0
C1248 C 0.25033 0.20295 1.02551 0.0
C1249 C 0.2388 0.15923 1.01734 0.0
H1250 H 0.27728 0.23712 0.04754 0.0
C1251 C 0.24717 0.11492 1.02567 0.0
H1252 H 0.2443 0.23774 1.01949 0.0
C1253 C 0.26725 0.11454 0.04178 0.0
C1254 C 0.27814 0.15849 0.04995 0.0
H1255 H 0.23891 0.08064 1.01967 0.0
H1256 H 0.27342 0.08 0.04792 0.0
C1257 C 0.26923 0.2026 0.04163 0.0
C1258 C 0.06384 0.01683 0.29151 0.0
C1259 C 0.10806 0.0272 0.29956 0.0
H1260 H 0.02841 0.99048 0.26961 0.0
C1261 C 0.15194 0.01727 0.29117 0.0
H1262 H 0.02936 0.02409 0.29758 0.0
C1263 C 0.15138 0.99682 0.27512 0.0
C1264 C 0.10695 0.9871 0.26705 0.0
H1265 H 0.18658 0.0246 0.2971 0.0
H1266 H 0.18562 0.98945 0.26894 0.0
C1267 C 0.06328 0.99756 0.27543 0.0
C1268 C 0.25223 0.8091 0.54136 0.0
C1269 C 0.24112 0.85315 0.54938 0.0
H1270 H 0.2793 0.77439 0.51937 0.0
C1271 C 0.25128 0.8972 0.54113 0.0
H1272 H 0.24485 0.77458 0.54738 0.0
C1273 C 0.27214 0.89712 0.5252 0.0
C1274 C 0.28212 0.85299 0.51704 0.0
H1275 H 0.24354 0.93174 0.54706 0.0
H1276 H 0.27939 0.93155 0.51914 0.0
C1277 C 0.27191 0.80902 0.52531 0.0
C1278 C 0.36717 0.99571 0.79303 0.0
C1279 C 0.41169 0.98568 0.80096 0.0
H1280 H 0.33156 0.02385 0.77125 0.0
C1281 C 0.45528 0.99557 0.79242 0.0
H1282 H 0.33302 0.98872 0.79931 0.0
C1283 C 0.45447 0.01484 0.77632 0.0
C1284 C 0.41006 0.02579 0.76849 0.0
H1285 H 0.49021 0.98813 0.79816 0.0
H1286 H 0.48875 0.02185 0.7701 0.0
C1287 C 0.36636 0.01614 0.77702 0.0
C1288 C 0.74645 0.81291 1.02636 0.0
C1289 C 0.73675 0.85705 1.01816 0.0
H1290 H 0.77216 0.77774 0.04839 0.0
C1291 C 0.74666 0.901 1.02648 0.0
H1292 H 0.73916 0.7784 1.02032 0.0
C1293 C 0.76676 0.90062 0.04258 0.0
C1294 C 0.7761 0.85628 0.05076 0.0
H1295 H 0.73984 0.93558 1.02045 0.0
H1296 H 0.77438 0.93491 0.04869 0.0
C1297 C 0.76535 0.81254 0.04248 0.0
C1298 C 0.86715 0.02041 0.79304 0.0
C1299 C 0.91169 0.03034 0.80097 0.0
H1300 H 0.83153 0.99232 0.77127 0.0
C1301 C 0.95527 0.02029 0.79245 0.0
H1302 H 0.83301 0.02755 0.7993 0.0
C1303 C 0.95446 1.00098 0.77636 0.0
C1304 C 0.91004 0.99015 0.76853 0.0
H1305 H 0.99021 0.02766 0.79819 0.0
H1306 H 0.98874 0.99384 0.77015 0.0
C1307 C 0.86634 0.99994 0.77704 0.0
C1308 C 0.75208 0.20632 0.54147 0.0
C1309 C 0.74056 0.16231 0.54944 0.0
H1310 H 0.77962 0.24097 0.51955 0.0
C1311 C 0.75034 0.11824 0.54116 0.0
H1312 H 0.74502 0.24085 0.54752 0.0
C1313 C 0.77125 0.11825 0.52523 0.0
C1314 C 0.78169 0.16235 0.51712 0.0
H1315 H 0.74228 0.08372 0.54704 0.0
H1316 H 0.77821 0.08381 0.51913 0.0
C1317 C 0.77185 0.20634 0.52543 0.0
C1318 C 0.56315 0.99751 0.29127 0.0
C1319 C 0.60736 0.98756 0.29939 0.0
H1320 H 0.52782 0.02345 0.26929 0.0
C1321 C 0.65128 0.99755 0.29105 0.0
H1322 H 0.52867 0.99018 0.29733 0.0
C1323 C 0.65078 0.01782 0.27498 0.0
C1324 C 0.60638 0.02728 0.26686 0.0
H1325 H 0.6859 0.99056 0.29703 0.0
H1326 H 0.68504 0.02539 0.26885 0.0
C1327 C 0.56267 0.01657 0.27517 0.0
C1328 C 0.76814 0.61501 0.54097 0.0
C1329 C 0.7775 0.65925 0.5492 0.0
H1330 H 0.74138 0.58034 0.51877 0.0
C1331 C 0.76746 0.7031 0.54086 0.0
H1332 H 0.77524 0.58065 0.54711 0.0
C1333 C 0.74896 0.70292 0.52468 0.0
C1334 C 0.73895 0.65889 0.51647 0.0
H1335 H 0.77433 0.73783 0.5468 0.0
H1336 H 0.74201 0.73752 0.51866 0.0
C1337 C 0.74845 0.61483 0.52481 0.0
C1338 C 0.56157 0.50039 0.77432 0.0
C1339 C 0.60511 0.48994 0.76586 0.0
H1340 H 0.52801 0.52648 0.7966 0.0
C1341 C 0.64968 0.49969 0.77384 0.0
H1342 H 0.52661 0.49328 0.76857 0.0
C1343 C 0.65048 0.51991 0.78992 0.0
C1344 C 0.60674 0.52957 0.79842 0.0
H1345 H 0.68382 0.49232 0.7676 0.0
H1346 H 0.68523 0.52708 0.7958 0.0
C1347 C 0.56238 0.51941 0.79043 0.0
C1348 C 0.76783 0.40106 1.02523 0.0
C1349 C 0.77783 0.35721 1.01685 0.0
H1350 H 0.73985 0.4347 0.04744 0.0
C1351 C 0.76734 0.31298 1.02488 0.0
H1352 H 0.77524 0.4357 1.01933 0.0
C1353 C 0.74793 0.31241 0.04093 0.0
C1354 C 0.73743 0.35605 0.04931 0.0
H1355 H 0.77465 0.27853 1.0188 0.0
H1356 H 0.7408 0.27754 0.04674 0.0
C1357 C 0.74724 0.40048 0.04126 0.0
C1358 C 0.9536 0.49909 0.29086 0.0
C1359 C 0.90992 0.48745 0.29905 0.0
H1360 H 0.98762 0.52634 0.26885 0.0
C1361 C 0.86554 0.49592 0.29077 0.0
H1362 H 0.98844 0.49299 0.29684 0.0
C1363 C 0.86503 0.5162 0.27469 0.0
C1364 C 0.90893 0.52722 0.2665 0.0
H1365 H 0.83128 0.48759 0.29678 0.0
H1366 H 0.83043 0.52245 0.26859 0.0
C1367 C 0.95312 0.5182 0.27477 0.0
C1368 C 0.26739 0.31219 0.54169 0.0
C1369 C 0.27692 0.35607 0.55006 0.0
H1370 H 0.24234 0.2777 0.51945 0.0
C1371 C 0.26697 0.40028 0.54189 0.0
H1372 H 0.27471 0.27748 0.54759 0.0
C1373 C 0.24723 0.40039 0.52574 0.0
C1374 C 0.23829 0.35631 0.51736 0.0
H1375 H 0.27365 0.43466 0.54806 0.0
H1376 H 0.23973 0.43487 0.51974 0.0
C1377 C 0.24885 0.31231 0.52552 0.0
C1378 C 0.45535 0.50219 0.27606 0.0
C1379 C 0.41109 0.49066 0.26824 0.0
H1380 H 0.49072 0.52957 0.29787 0.0
C1381 C 0.36726 0.50017 0.27672 0.0
H1382 H 0.48972 0.49532 0.26986 0.0
C1383 C 0.36779 0.52088 0.29268 0.0
C1384 C 0.41217 0.53137 0.30061 0.0
H1385 H 0.33255 0.49206 0.27097 0.0
H1386 H 0.33354 0.52766 0.29894 0.0
C1387 C 0.4559 0.52175 0.29212 0.0
C1388 C 0.25378 0.70562 0.04122 0.0
C1389 C 0.24259 0.66138 0.0491 0.0
H1390 H 0.28096 0.74087 1.01936 0.0
C1391 C 0.2527 0.61753 0.04073 0.0
H1392 H 0.24645 0.74 0.04734 0.0
C1393 C 0.27359 0.61799 1.0248 0.0
C1394 C 0.28364 0.66233 1.01678 0.0
H1395 H 0.24489 0.58285 0.04655 0.0
H1396 H 0.28079 0.58372 1.01864 0.0
C1397 C 0.2735 0.70609 1.02518 0.0
C1398 C 0.15134 0.49823 0.7908 0.0
C1399 C 0.10766 0.48852 0.79934 0.0
H1400 H 0.18445 0.52537 0.76838 0.0
C1401 C 0.06323 0.49832 0.79133 0.0
H1402 H 0.18613 0.4913 0.79669 0.0
C1403 C 0.06228 0.51693 0.77517 0.0
C1404 C 0.10573 0.5273 0.76665 0.0
H1405 H 0.02891 0.49118 0.79751 0.0
H1406 H 0.02725 0.52371 0.7694 0.0
C1407 C 0.15037 0.51803 0.77466 0.0
C1408 C 0.29225 0.86527 0.10723 0.0
C1409 C 0.317 0.8255 0.10025 0.0
H1410 H 0.2917 0.94169 0.11168 0.0
C1411 C 0.36318 0.83302 0.09309 0.0
H1412 H 0.25691 0.86077 0.11301 0.0
C1413 C 0.38315 0.87989 0.09232 0.0
C1414 C 0.3569 0.9198 0.09848 0.0
H1415 H 0.38332 0.80302 0.08769 0.0
H1416 H 0.41825 0.88517 0.08644 0.0
C1417 C 0.31203 0.91183 0.10636 0.0
C1418 C 0.40248 0.04769 0.35604 0.0
C1419 C 0.44113 0.06953 0.34742 0.0
H1420 H 0.32701 0.04969 0.36196 0.0
C1421 C 0.4329 0.11353 0.33887 0.0
H1422 H 0.40761 0.01411 0.3629 0.0
C1423 C 0.38623 0.13402 0.33837 0.0
C1424 C 0.34729 0.11039 0.34622 0.0
H1425 H 0.46212 0.13143 0.3322 0.0
H1426 H 0.38023 0.16723 0.33139 0.0
C1427 C 0.35612 0.06794 0.35544 0.0
C1428 C 0.14579 0.18166 0.59411 0.0
C1429 C 0.19666 0.18605 0.59541 0.0
H1430 H 0.08485 0.13272 0.59233 0.0
C1431 C 0.22549 0.14395 0.59509 0.0
H1432 H 0.12277 0.21368 0.59433 0.0
C1433 C 0.20406 0.09835 0.59343 0.0
C1434 C 0.15326 0.09364 0.59232 0.0
H1435 H 0.2648 0.14621 0.59592 0.0
H1436 H 0.22745 0.06672 0.59341 0.0
C1437 C 0.12416 0.1356 0.59286 0.0
C1438 C 0.13365 0.88351 0.84097 0.0
C1439 C 0.17326 0.90772 0.84821 0.0
H1440 H 0.05747 0.88609 0.83521 0.0
C1441 C 0.16532 0.95149 0.85679 0.0
H1442 H 0.13892 0.8493 0.83451 0.0
C1443 C 0.1192 0.97233 0.85731 0.0
C1444 C 0.07987 0.94976 0.84929 0.0
H1445 H 0.19493 0.97027 0.86286 0.0
H1446 H 0.11477 1.00683 0.86366 0.0
C1447 C 0.08721 0.90456 0.8414 0.0
C1448 C 0.29547 0.14876 0.46169 0.0
C1449 C 0.31928 0.1881 0.46928 0.0
H1450 H 0.29582 0.07281 0.4566 0.0
C1451 C 0.36498 0.18045 0.47678 0.0
H1452 H 0.26045 0.1534 0.45569 0.0
C1453 C 0.38547 0.13379 0.47722 0.0
C1454 C 0.36013 0.09423 0.47043 0.0
H1455 H 0.38439 0.2102 0.48263 0.0
H1456 H 0.42019 0.12835 0.48335 0.0
C1457 C 0.31565 0.10239 0.46229 0.0
C1458 C 0.11797 0.0379 0.72096 0.0
C1459 C 0.07609 0.06691 0.71961 0.0
H1460 H 0.19508 0.03559 0.72359 0.0
C1461 C 0.08093 0.11786 0.72012 0.0
H1462 H 0.11552 0.99855 0.72071 0.0
C1463 C 0.12705 0.13926 0.7217 0.0
C1464 C 0.16871 0.11001 0.72329 0.0
H1465 H 0.04921 0.14112 0.71911 0.0
H1466 H 0.1302 0.17856 0.72166 0.0
C1467 C 0.16363 0.05917 0.72287 0.0
C1468 C 0.15587 0.83559 0.97626 0.0
C1469 C 0.20122 0.82832 0.96847 0.0
H1470 H 0.10052 0.88722 0.98312 0.0
C1471 C 0.22406 0.86773 0.96059 0.0
H1472 H 0.1372 0.80576 0.98233 0.0
C1473 C 0.20336 0.91387 0.96121 0.0
C1474 C 0.15936 0.92171 0.96967 0.0
H1475 H 0.25876 0.86338 0.95435 0.0
H1476 H 0.22252 0.94355 0.95533 0.0
C1477 C 0.13488 0.88202 0.97673 0.0
C1478 C 0.35266 0.94891 0.21064 0.0
C1479 C 0.34389 0.90583 0.21951 0.0
H1480 H 0.40397 1.00342 0.2037 0.0
C1481 C 0.38283 0.88187 0.22727 0.0
H1482 H 0.32357 0.96754 0.20423 0.0
C1483 C 0.42939 0.90259 0.22703 0.0
C1484 C 0.43752 0.94717 0.21884 0.0
H1485 H 0.37687 0.84821 0.23399 0.0
H1486 H 0.45859 0.8844 0.23363 0.0
C1487 C 0.39891 0.96938 0.21029 0.0
C1488 C 0.70462 0.10407 0.96231 0.0
C1489 C 0.65936 0.09668 0.97 0.0
H1490 H 0.76041 0.15438 0.95576 0.0
C1491 C 0.63329 0.13691 0.976 0.0
H1492 H 0.72508 0.074 0.95722 0.0
C1493 C 0.65377 0.18353 0.97523 0.0
C1494 C 0.70022 0.19043 0.96821 0.0
H1495 H 0.59796 0.13207 0.98176 0.0
H1496 H 0.63378 0.21385 0.98048 0.0
C1497 C 0.72481 0.15036 0.9614 0.0
C1498 C 0.66361 0.95674 0.72285 0.0
C1499 C 0.66875 0.9059 0.7233 0.0
H1500 H 0.61543 0.01733 0.72064 0.0
C1501 C 0.62712 0.87663 0.72171 0.0
H1502 H 0.69504 0.98033 0.72356 0.0
C1503 C 0.58098 0.898 0.72011 0.0
C1504 C 0.57608 0.94895 0.71957 0.0
H1505 H 0.63033 0.83733 0.72169 0.0
H1506 H 0.5493 0.87473 0.7191 0.0
C1507 C 0.61793 0.97799 0.72091 0.0
C1508 C 0.88497 0.88141 0.47679 0.0
C1509 C 0.85961 0.92135 0.47024 0.0
H1510 H 0.88395 0.80472 0.48173 0.0
C1511 C 0.81513 0.91362 0.46206 0.0
H1512 H 0.91973 0.88651 0.48292 0.0
C1513 C 0.79491 0.86729 0.46122 0.0
C1514 C 0.81877 0.82753 0.46854 0.0
H1515 H 0.79539 0.94348 0.4565 0.0
H1516 H 0.75991 0.86299 0.45518 0.0
C1517 C 0.8645 0.83478 0.47607 0.0
C1518 C 0.92905 0.11233 0.22749 0.0
C1519 C 0.93711 0.06769 0.21932 0.0
H1520 H 0.87665 0.16691 0.23441 0.0
C1521 C 0.89844 0.04552 0.21081 0.0
H1522 H 0.9583 0.1305 0.23406 0.0
C1523 C 0.85221 0.06612 0.21114 0.0
C1524 C 0.84352 0.1093 0.21998 0.0
H1525 H 0.90343 0.01143 0.20425 0.0
H1526 H 0.82308 0.04751 0.20475 0.0
C1527 C 0.88252 0.13319 0.22771 0.0
C1528 C 0.72559 0.87152 0.59483 0.0
C1529 C 0.69682 0.82939 0.59492 0.0
H1530 H 0.72744 0.94882 0.59353 0.0
C1531 C 0.64594 0.83382 0.59363 0.0
H1532 H 0.7649 0.86924 0.59567 0.0
C1533 C 0.62425 0.87991 0.59259 0.0
C1534 C 0.6533 0.92189 0.59226 0.0
H1535 H 0.62296 0.80178 0.59368 0.0
H1536 H 0.58495 0.8828 0.59204 0.0
C1537 C 0.7041 0.91717 0.59338 0.0
C1538 C 0.85503 0.95291 0.35477 0.0
C1539 C 0.84725 0.90815 0.3468 0.0
H1540 H 0.90567 0.00835 0.36138 0.0
C1541 C 0.88717 0.88249 0.34037 0.0
H1542 H 0.8252 0.97301 0.3602 0.0
C1543 C 0.93383 0.90296 0.34098 0.0
C1544 C 0.94107 0.94899 0.34828 0.0
H1545 H 0.88202 0.84753 0.33439 0.0
H1546 H 0.96387 0.88333 0.3354 0.0
C1547 C 0.90136 0.9731 0.35552 0.0
C1548 C 0.88244 0.13099 0.08788 0.0
C1549 C 0.86074 0.09321 0.09693 0.0
H1550 H 0.87777 0.20566 0.08031 0.0
C1551 C 0.81983 0.10307 0.10682 0.0
H1552 H 0.91442 0.12416 0.08034 0.0
C1553 C 0.79894 0.14921 0.10688 0.0
C1554 C 0.81874 0.18658 0.09708 0.0
H1555 H 0.80322 0.07482 0.11424 0.0
H1556 H 0.76649 0.15514 0.11427 0.0
C1557 C 0.86143 0.17743 0.08788 0.0
C1558 C 0.63372 0.13265 0.8408 0.0
C1559 C 0.67332 0.10858 0.84811 0.0
H1560 H 0.55758 0.12997 0.83499 0.0
C1561 C 0.66539 0.06492 0.85675 0.0
H1562 H 0.63898 0.16678 0.83428 0.0
C1563 C 0.6193 0.04404 0.85727 0.0
C1564 C 0.57998 0.06649 0.84918 0.0
H1565 H 0.69501 0.04625 0.86288 0.0
H1566 H 0.61486 0.00962 0.86367 0.0
C1567 C 0.58731 0.11158 0.84123 0.0
C1568 C 0.79017 0.36746 0.60688 0.0
C1569 C 0.81541 0.3273 0.60039 0.0
H1570 H 0.78918 0.44406 0.6108 0.0
C1571 C 0.86211 0.33443 0.59358 0.0
H1572 H 0.75439 0.36329 0.61238 0.0
C1573 C 0.88215 0.38125 0.59268 0.0
C1574 C 0.85548 0.42152 0.59835 0.0
H1575 H 0.88262 0.30413 0.58856 0.0
H1576 H 0.91769 0.38619 0.58708 0.0
C1577 C 0.80999 0.41396 0.60587 0.0
C1578 C 0.85509 0.56421 0.85396 0.0
C1579 C 0.84735 0.60908 0.84605 0.0
H1580 H 0.90579 0.50896 0.86072 0.0
C1581 C 0.88736 0.63507 0.83986 0.0
H1582 H 0.82519 0.54383 0.8592 0.0
C1583 C 0.93412 0.61484 0.84065 0.0
C1584 C 0.94136 0.56874 0.8479 0.0
H1585 H 0.88224 0.67012 0.83393 0.0
H1586 H 0.96427 0.63473 0.83525 0.0
C1587 C 0.90151 0.54429 0.85491 0.0
C1588 C 0.72194 0.64745 0.10633 0.0
C1589 C 0.69806 0.68707 0.09893 0.0
H1590 H 0.72163 0.57138 0.11114 0.0
C1591 C 0.65221 0.67974 0.09149 0.0
H1592 H 0.75702 0.65182 0.11232 0.0
C1593 C 0.63173 0.6331 0.09088 0.0
C1594 C 0.6572 0.59327 0.09747 0.0
H1595 H 0.63276 0.70971 0.08578 0.0
H1596 H 0.59695 0.62787 0.08477 0.0
C1597 C 0.70172 0.60114 0.10559 0.0
C1598 C 0.66523 0.45325 0.35535 0.0
C1599 C 0.67248 0.40857 0.34726 0.0
H1600 H 0.61522 0.50912 0.36214 0.0
C1601 C 0.63223 0.38346 0.34083 0.0
H1602 H 0.69533 0.47293 0.36077 0.0
C1603 C 0.58579 0.40442 0.34155 0.0
C1604 C 0.57909 0.4504 0.34895 0.0
H1605 H 0.63697 0.34857 0.33476 0.0
H1606 H 0.55549 0.38521 0.33596 0.0
C1607 C 0.61912 0.47394 0.3562 0.0
C1608 C 0.88423 0.63499 0.97923 0.0
C1609 C 0.86135 0.59658 0.97084 0.0
H1610 H 0.88087 0.71034 0.98604 0.0
C1611 C 0.8195 0.60589 0.96136 0.0
H1612 H 0.91697 0.6286 0.98643 0.0
C1613 C 0.79902 0.65218 0.96101 0.0
C1614 C 0.82009 0.69025 0.97015 0.0
H1615 H 0.80189 0.57717 0.95444 0.0
H1616 H 0.76589 0.65769 0.95393 0.0
C1617 C 0.86356 0.68157 0.97897 0.0
C1618 C 0.66164 0.56142 0.21052 0.0
C1619 C 0.66981 0.60611 0.21849 0.0
H1620 H 0.61042 0.50634 0.20396 0.0
C1621 C 0.63008 0.63212 0.2249 0.0
H1622 H 0.69136 0.5413 0.20501 0.0
C1623 C 0.58321 0.61207 0.22428 0.0
C1624 C 0.5755 0.56605 0.21704 0.0
H1625 H 0.63551 0.66708 0.23085 0.0
H1626 H 0.55337 0.63202 0.22986 0.0
C1627 C 0.61508 0.54155 0.20982 0.0
C1628 C 0.7225 0.36615 0.45979 0.0
C1629 C 0.70031 0.32717 0.46813 0.0
H1630 H 0.72036 0.44167 0.45402 0.0
C1631 C 0.65554 0.33483 0.47626 0.0
H1632 H 0.75665 0.36144 0.45324 0.0
C1633 C 0.63464 0.38132 0.47667 0.0
C1634 C 0.6586 0.4206 0.46914 0.0
H1635 H 0.63737 0.30534 0.48269 0.0
H1636 H 0.60084 0.38692 0.48336 0.0
C1637 C 0.70182 0.41229 0.4603 0.0
C1638 C 0.87923 0.38283 0.7278 0.0
C1639 C 0.84116 0.40521 0.71906 0.0
H1640 H 0.95422 0.38678 0.73508 0.0
C1641 C 0.85079 0.44666 0.70942 0.0
H1642 H 0.87257 0.35041 0.73513 0.0
C1643 C 0.89698 0.46739 0.70932 0.0
C1644 C 0.93466 0.44688 0.71881 0.0
H1645 H 0.82232 0.4638 0.70222 0.0
H1646 H 0.90273 0.50024 0.70212 0.0
C1647 C 0.92576 0.40366 0.72774 0.0
C1648 C 0.22329 0.64907 0.46058 0.0
C1649 C 0.20002 0.68851 0.4683 0.0
H1650 H 0.22242 0.57315 0.45553 0.0
C1651 C 0.15454 0.68115 0.47599 0.0
H1652 H 0.25811 0.65349 0.45443 0.0
C1653 C 0.13384 0.63462 0.47652 0.0
C1654 C 0.15876 0.59493 0.46963 0.0
H1655 H 0.13555 0.711 0.48194 0.0
H1656 H 0.09937 0.62935 0.48282 0.0
C1657 C 0.2029 0.60284 0.46127 0.0
C1658 C 0.08204 0.39729 0.22203 0.0
C1659 C 0.07787 0.44824 0.22104 0.0
H1660 H 0.13064 0.33609 0.22388 0.0
C1661 C 0.12003 0.47685 0.22202 0.0
H1662 H 0.05 0.37442 0.22131 0.0
C1663 C 0.16544 0.45515 0.22399 0.0
C1664 C 0.16994 0.40428 0.22478 0.0
H1665 H 0.11796 0.51619 0.22143 0.0
H1666 H 0.1971 0.47843 0.22445 0.0
C1667 C 0.12793 0.37542 0.22361 0.0
C1668 C 0.36454 0.33611 0.9768 0.0
C1669 C 0.31891 0.32854 0.96924 0.0
H1670 H 0.42001 0.38801 0.98325 0.0
C1671 C 0.29555 0.36776 0.9614 0.0
H1672 H 0.38362 0.30644 0.98283 0.0
C1673 C 0.31612 0.41398 0.9618 0.0
C1674 C 0.36049 0.4221 0.97001 0.0
H1675 H 0.26062 0.36317 0.95534 0.0
H1676 H 0.29667 0.44352 0.95591 0.0
C1677 C 0.38538 0.3826 0.97706 0.0
C1678 C 0.3964 0.5476 0.70908 0.0
C1679 C 0.43477 0.56898 0.71799 0.0
H1680 H 0.3212 0.55032 0.70271 0.0
C1681 C 0.42641 0.61285 0.7266 0.0
H1682 H 0.40168 0.5142 0.70214 0.0
C1683 C 0.37981 0.63356 0.72691 0.0
C1684 C 0.34112 0.61035 0.71878 0.0
H1685 H 0.45541 0.6304 0.73349 0.0
H1686 H 0.37364 0.66656 0.73398 0.0
C1687 C 0.35014 0.56816 0.70945 0.0
C1688 C 0.22759 0.37014 0.09481 0.0
C1689 C 0.19888 0.32801 0.09553 0.0
H1690 H 0.22933 0.44728 0.09269 0.0
C1691 C 0.14795 0.33231 0.09444 0.0
H1692 H 0.26693 0.36799 0.09549 0.0
C1693 C 0.12617 0.37826 0.09298 0.0
C1694 C 0.15513 0.42025 0.09204 0.0
H1695 H 0.125 0.3003 0.09497 0.0
H1696 H 0.08685 0.38105 0.09261 0.0
C1697 C 0.20599 0.41564 0.09296 0.0
C1698 C 0.4329 0.40335 0.83824 0.0
C1699 C 0.44146 0.44713 0.84688 0.0
H1700 H 0.37993 0.34989 0.83085 0.0
C1701 C 0.40317 0.46877 0.85575 0.0
H1702 H 0.46185 0.3856 0.83138 0.0
C1703 C 0.35679 0.44855 0.85531 0.0
C1704 C 0.34761 0.40636 0.846 0.0
H1705 H 0.40857 0.50217 0.86267 0.0
H1706 H 0.32792 0.46665 0.86201 0.0
C1707 C 0.38622 0.38291 0.8379 0.0
C1708 C 0.31024 0.60172 0.60644 0.0
C1709 C 0.35554 0.59383 0.59882 0.0
H1710 H 0.25482 0.6527 0.61287 0.0
C1711 C 0.38213 0.63384 0.59292 0.0
H1712 H 0.28953 0.57181 0.61154 0.0
C1713 C 0.36214 0.68072 0.59368 0.0
C1714 C 0.31559 0.68816 0.60057 0.0
H1715 H 0.41753 0.62865 0.58725 0.0
H1716 H 0.38256 0.71082 0.58848 0.0
C1717 C 0.29047 0.64828 0.6073 0.0
C1718 C 0.08782 0.61207 0.33858 0.0
C1719 C 0.07935 0.56804 0.34707 0.0
H1720 H 0.14046 0.66631 0.3316 0.0
C1721 C 0.1175 0.54667 0.35611 0.0
H1722 H 0.05899 0.62964 0.3316 0.0
C1723 C 0.16366 0.5675 0.356 0.0
C1724 C 0.17276 0.61 0.34684 0.0
H1725 H 0.11214 0.5131 0.36295 0.0
H1726 H 0.19245 0.54971 0.36286 0.0
C1727 C 0.13425 0.63308 0.33855 0.0
C1728 C 0.51064 0.30709 0.10026 0.0
C1729 C 0.55429 0.28022 0.10005 0.0
H1730 H 0.43267 0.3056 0.10036 0.0
C1731 C 0.55129 0.22904 0.10016 0.0
H1732 H 0.51134 0.34651 0.10023 0.0
C1733 C 0.50595 0.20546 0.10014 0.0
C1734 C 0.46231 0.23237 0.10014 0.0
H1735 H 0.58401 0.20705 0.09998 0.0
H1736 H 0.50518 0.16605 0.10001 0.0
C1737 C 0.46536 0.28353 0.10036 0.0
C1738 C 0.03697 0.30159 0.34946 0.0
C1739 C 0.98576 0.30418 0.3495 0.0
H1740 H 0.10036 0.25602 0.34915 0.0
C1741 C 0.95923 0.26036 0.3498 0.0
H1742 H 0.0587 0.33446 0.34922 0.0
C1743 C 0.98318 0.21529 0.34985 0.0
C1744 C 0.03437 0.21267 0.34948 0.0
H1745 H 0.9198 0.26078 0.34988 0.0
H1746 H 0.96141 0.18243 0.34992 0.0
C1747 C 0.06093 0.25648 0.34939 0.0
C1748 C 0.00879 0.80963 0.59863 0.0
C1749 C 0.05231 0.78261 0.59923 0.0
H1750 H 0.9307 0.80821 0.5982 0.0
C1751 C 0.04902 0.73151 0.60022 0.0
H1752 H 0.00976 0.84898 0.59791 0.0
C1753 C 1.00369 0.70808 0.60029 0.0
C1754 C 0.96016 0.73501 0.59951 0.0
H1755 H 0.0816 0.70933 0.60069 0.0
H1756 H 1.00285 0.6687 0.60086 0.0
C1757 C 0.96335 0.78617 0.59884 0.0
C1758 C 0.45939 0.75847 0.85104 0.0
C1759 C 0.48604 0.80223 0.85105 0.0
H1760 H 0.46147 0.68051 0.85055 0.0
C1761 C 0.53723 0.79956 0.85103 0.0
H1762 H 0.41996 0.759 0.85109 0.0
C1763 C 0.56107 0.75446 0.85063 0.0
C1764 C 0.53444 0.71071 0.85035 0.0
H1765 H 0.55905 0.83238 0.85103 0.0
H1766 H 0.6005 0.75399 0.85039 0.0
C1767 C 0.48326 0.71334 0.85075 0.0
C1768 C 0.55282 0.7843 0.46564 0.0
C1769 C 0.55552 0.73314 0.46586 0.0
H1770 H 0.50717 0.84755 0.46572 0.0
C1771 C 0.51177 0.70647 0.46568 0.0
H1772 H 0.58564 0.80614 0.46577 0.0
C1773 C 0.46661 0.73031 0.46555 0.0
C1774 C 0.46393 0.78148 0.46571 0.0
H1775 H 0.51231 0.66705 0.46578 0.0
H1776 H 0.43377 0.7085 0.46562 0.0
C1777 C 0.50769 0.80813 0.46563 0.0
C1778 C 0.53131 0.21547 0.71685 0.0
C1779 C 0.48019 0.21207 0.71777 0.0
H1780 H 0.59401 0.26173 0.71599 0.0
C1781 C 0.45302 0.25552 0.71805 0.0
H1782 H 0.55361 0.18296 0.71662 0.0
C1783 C 0.47638 0.301 0.71758 0.0
C1784 C 0.52756 0.3043 0.71694 0.0
H1785 H 0.41365 0.25446 0.71872 0.0
H1786 H 0.45425 0.33362 0.71796 0.0
C1787 C 0.55462 0.26083 0.71651 0.0
C1788 C 1.00775 0.31018 0.96717 0.0
C1789 C 0.9639 0.28367 0.96708 0.0
H1790 H 0.08576 0.30787 0.9673 0.0
C1791 C 0.96647 0.23249 0.96669 0.0
H1792 H 1.00732 0.34959 0.96742 0.0
C1793 C 0.01153 0.20851 0.96671 0.0
C1794 C 0.05538 0.23498 0.967 0.0
H1795 H 0.93358 0.21076 0.96661 0.0
H1796 H 0.01191 0.16909 0.96661 0.0
C1797 C 0.05285 0.28618 0.96707 0.0
C1798 C 0.03385 0.71478 0.21621 0.0
C1799 C 0.98267 0.71177 0.21644 0.0
H1800 H 0.0969 0.76068 0.21631 0.0
C1801 C 0.95579 0.75543 0.21645 0.0
H1802 H 0.0559 0.68208 0.2162 0.0
C1803 C 0.97943 0.80072 0.21643 0.0
C1804 C 0.03064 0.80368 0.21651 0.0
H1805 H 0.91636 0.75469 0.21659 0.0
H1806 H 0.95746 0.83346 0.2166 0.0
C1807 C 0.05747 0.76002 0.2163 0.0
C1808 C 0.46768 0.78623 0.96554 0.0
C1809 C 0.46525 0.73505 0.96567 0.0
H1810 H 0.51302 0.84966 0.96599 0.0
C1811 C 0.50913 0.70857 0.96567 0.0
H1812 H 0.43475 0.80792 0.96555 0.0
C1813 C 0.55416 0.73258 0.96584 0.0
C1814 C 0.55657 0.78376 0.96613 0.0
H1815 H 0.50879 0.66915 0.96572 0.0
H1816 H 0.58709 0.7109 0.96606 0.0
C1817 C 0.5127 0.81024 0.96583 0.0
C1818 C 0.97637 0.71489 0.71795 0.0
C1819 C 0.02755 0.71155 0.71728 0.0
H1820 H 0.91366 0.7615 0.71906 0.0
C1821 C 0.0546 0.75499 0.71672 0.0
H1822 H 0.95425 0.6823 0.71843 0.0
C1823 C 0.0313 0.80037 0.71698 0.0
C1824 C 0.98019 0.80381 0.71795 0.0
H1825 H 0.09399 0.75404 0.71616 0.0
H1826 H 0.0536 0.83285 0.71666 0.0
C1827 C 0.95302 0.7604 0.71835 0.0
C1828 C 0.96745 0.28492 0.46594 0.0
C1829 C 0.96482 0.23376 0.46628 0.0
H1830 H 0.013 0.34817 0.46599 0.0
C1831 C 0.0086 0.20709 0.46633 0.0
H1832 H 0.93461 0.30675 0.46589 0.0
C1833 C 0.05372 0.23094 0.4663 0.0
C1834 C 0.05631 0.28212 0.46634 0.0
H1835 H 1.00809 0.16768 0.46654 0.0
H1836 H 0.08659 0.20916 0.46654 0.0
C1837 C 0.01254 0.30875 0.46603 0.0
C1838 C 0.47827 0.21414 0.21798 0.0
C1839 C 0.52946 0.2113 0.21729 0.0
H1840 H 0.41515 0.26018 0.21912 0.0
C1841 C 0.55613 0.25496 0.21669 0.0
H1842 H 0.45645 0.18135 0.21849 0.0
C1843 C 0.53244 0.3001 0.21695 0.0
C1844 C 0.48132 0.30306 0.21796 0.0
H1845 H 0.59553 0.25437 0.21611 0.0
H1846 H 0.55445 0.33279 0.2166 0.0
C1847 C 0.45452 0.25942 0.21839 0.0
C1848 C 0.54873 0.28393 0.60058 0.0
C1849 C 0.55209 0.23284 0.59958 0.0
H1850 H 0.50245 0.34668 0.60135 0.0
C1851 C 0.50862 0.20576 0.59909 0.0
H1852 H 0.58127 0.30615 0.60098 0.0
C1853 C 0.46315 0.22917 0.59942 0.0
C1854 C 0.45987 0.28032 0.60011 0.0
H1855 H 0.50966 0.16641 0.59836 0.0
H1856 H 0.43053 0.20709 0.59886 0.0
C1857 C 0.50336 0.3073 0.60077 0.0
C1858 C 0.56068 0.76217 0.35102 0.0
C1859 C 0.53409 0.80596 0.35076 0.0
H1860 H 0.55858 0.68427 0.35124 0.0
C1861 C 0.48289 0.80342 0.35098 0.0
H1862 H 0.60011 0.76258 0.35092 0.0
C1863 C 0.45897 0.75834 0.35107 0.0
C1864 C 0.48558 0.71455 0.35108 0.0
H1865 H 0.46114 0.8363 0.35078 0.0
H1866 H 0.41954 0.75788 0.35099 0.0
C1867 C 0.53678 0.71712 0.35124 0.0
C1868 C 0.01035 0.70474 0.09858 0.0
C1869 C 0.05394 0.73162 0.09895 0.0
H1870 H 0.93227 0.70648 0.09854 0.0
C1871 C 0.05088 0.78274 0.09985 0.0
H1872 H 0.01118 0.66538 0.09793 0.0
C1873 C 1.00566 0.80635 0.10009 0.0
C1874 C 0.96205 0.77957 0.09959 0.0
H1875 H 0.08354 0.8048 0.10015 0.0
H1876 H 1.00496 0.84574 0.10061 0.0
C1877 C 0.96502 0.72839 0.09897 0.0
C1878 C 0.06141 0.26177 0.85037 0.0
C1879 C 0.03476 0.30553 0.85023 0.0
H1880 H 0.05935 0.18384 0.85062 0.0
C1881 C 0.98357 0.30293 0.85065 0.0
H1882 H 0.10083 0.26224 0.85011 0.0
C1883 C 0.9597 0.25784 0.85087 0.0
C1884 C 0.98634 0.21408 0.85079 0.0
H1885 H 0.96176 0.33577 0.85056 0.0
H1886 H 0.92027 0.25737 0.85097 0.0
C1887 C 0.03754 0.21669 0.8507 0.0
loop_
_geom_bond_atom_site_label_1
_geom_bond_atom_site_label_2
_geom_bond_distance
_geom_bond_site_symmetry_2
_ccdc_geom_bond_type
Co0 O3 1.970 . S
Co0 N17 1.989 . S
Co0 O25 1.967 . S
Co0 O32 1.920 . S
Co1 O4 1.966 . S
Co1 N10 2.022 . S
Co1 N18 1.993 . S
Co1 O26 1.941 . S
C2 O3 1.258 . S
C2 O4 1.263 . S
O3 Co0 1.970 . S
O3 C2 1.258 . S
O4 Co1 1.966 . S
O4 C2 1.263 . S
C5 O6 1.235 . S
C5 O32 1.289 . S
O6 C5 1.235 . S
C7 C9 1.400 1_545 S
C7 N10 1.351 . S
C7 C12 1.501 . S
C8 C9 1.387 . S
C8 N11 1.341 1_565 S
C9 C7 1.400 1_565 S
C9 C8 1.387 . S
N10 Co1 2.022 . S
N10 C7 1.351 . S
N10 N11 1.365 . S
N11 C8 1.341 1_545 S
N11 N10 1.365 . S
N11 H31 0.862 . S
C12 C7 1.501 . S
C12 H13 0.961 . S
C12 H14 0.961 . S
C12 H15 0.960 . S
H13 C12 0.961 . S
H14 C12 0.961 . S
H15 C12 0.960 . S
C16 N17 1.342 . S
C16 C20 1.401 . S
C16 C21 1.499 . S
N17 Co0 1.989 . S
N17 C16 1.342 . S
N17 N18 1.388 . S
N18 Co1 1.993 . S
N18 N17 1.388 . S
N18 C19 1.346 . S
C19 N18 1.346 . S
C19 C20 1.396 . S
C19 C29 1.510 . S
C20 C16 1.401 . S
C20 C19 1.396 . S
C21 C16 1.499 . S
C21 H22 0.959 . S
C21 H23 0.960 . S
C21 H24 0.961 . S
H22 C21 0.959 . S
H23 C21 0.960 . S
H24 C21 0.961 . S
O25 Co0 1.967 . S
O25 C33 1.258 . S
O26 Co1 1.941 . S
O26 C33 1.266 . S
H27 C29 0.959 . S
H28 C29 0.961 . S
C29 C19 1.510 . S
C29 H27 0.959 . S
C29 H28 0.961 . S
C29 H30 0.960 . S
H30 C29 0.960 . S
H31 N11 0.862 . S
O32 Co0 1.920 . S
O32 C5 1.289 . S
C33 O25 1.258 . S
C33 O26 1.266 . S
Co34 O37 1.970 . S
Co34 N51 1.989 1_545 S
Co34 O59 1.967 . S
Co34 O66 1.920 1_455 S
Co35 O38 1.966 . S
Co35 N44 2.022 . S
Co35 N52 1.993 . S
Co35 O60 1.941 . S
C36 O37 1.258 . S
C36 O38 1.263 . S
O37 Co34 1.970 . S
O37 C36 1.258 . S
O38 Co35 1.966 . S
O38 C36 1.263 . S
C39 O40 1.235 . S
C39 O66 1.289 1_565 S
O40 C39 1.235 . S
C41 C43 1.400 . S
C41 N44 1.351 . S
C41 C46 1.501 . S
C42 C43 1.387 . S
C42 N45 1.341 . S
C43 C41 1.400 . S
C43 C42 1.387 . S
N44 Co35 2.022 . S
N44 C41 1.351 . S
N44 N45 1.365 . S
N45 C42 1.341 . S
N45 N44 1.365 . S
N45 H65 0.862 . S
C46 C41 1.501 . S
C46 H47 0.961 . S
C46 H48 0.961 1_545 S
C46 H49 0.960 . S
H47 C46 0.961 . S
H48 C46 0.961 1_565 S
H49 C46 0.960 . S
C50 N51 1.342 . S
C50 C54 1.401 . S
C50 C55 1.499 1_455 S
N51 Co34 1.989 1_565 S
N51 C50 1.342 . S
N51 N52 1.388 1_565 S
N52 Co35 1.993 . S
N52 N51 1.388 1_545 S
N52 C53 1.346 1_545 S
C53 N52 1.346 1_565 S
C53 C54 1.396 . S
C53 C63 1.510 . S
C54 C50 1.401 . S
C54 C53 1.396 . S
C55 C50 1.499 1_655 S
C55 H56 0.959 . S
C55 H57 0.960 . S
C55 H58 0.961 . S
H56 C55 0.959 . S
H57 C55 0.960 . S
H58 C55 0.961 . S
O59 Co34 1.967 . S
O59 C67 1.258 . S
O60 Co35 1.941 . S
O60 C67 1.266 . S
H61 C63 0.959 . S
H62 C63 0.961 . S
C63 C53 1.510 . S
C63 H61 0.959 . S
C63 H62 0.961 . S
C63 H64 0.960 . S
H64 C63 0.960 . S
H65 N45 0.862 . S
O66 Co34 1.920 1_655 S
O66 C39 1.289 1_545 S
C67 O59 1.258 . S
C67 O60 1.266 . S
Co68 O71 1.970 . S
Co68 N85 1.989 . S
Co68 O93 1.967 . S
Co68 O100 1.920 . S
Co69 O72 1.966 . S
Co69 N78 2.022 . S
Co69 N86 1.993 . S
Co69 O94 1.941 . S
C70 O71 1.258 . S
C70 O72 1.263 . S
O71 Co68 1.970 . S
O71 C70 1.258 . S
O72 Co69 1.966 . S
O72 C70 1.263 . S
C73 O74 1.235 . S
C73 O100 1.289 . S
O74 C73 1.235 . S
C75 C77 1.400 1_565 S
C75 N78 1.351 . S
C75 C80 1.501 . S
C76 C77 1.387 . S
C76 N79 1.341 1_545 S
C77 C75 1.400 1_545 S
C77 C76 1.387 . S
N78 Co69 2.022 . S
N78 C75 1.351 . S
N78 N79 1.365 . S
N79 C76 1.341 1_565 S
N79 N78 1.365 . S
N79 H99 0.862 . S
C80 C75 1.501 . S
C80 H81 0.961 . S
C80 H82 0.961 . S
C80 H83 0.960 . S
H81 C80 0.961 . S
H82 C80 0.961 . S
H83 C80 0.960 . S
C84 N85 1.342 . S
C84 C88 1.401 . S
C84 C89 1.499 . S
N85 Co68 1.989 . S
N85 C84 1.342 . S
N85 N86 1.388 . S
N86 Co69 1.993 . S
N86 N85 1.388 . S
N86 C87 1.346 . S
C87 N86 1.346 . S
C87 C88 1.396 . S
C87 C97 1.510 . S
C88 C84 1.401 . S
C88 C87 1.396 . S
C89 C84 1.499 . S
C89 H90 0.959 . S
C89 H91 0.960 . S
C89 H92 0.961 . S
H90 C89 0.959 . S
H91 C89 0.960 . S
H92 C89 0.961 . S
O93 Co68 1.967 . S
O93 C101 1.258 . S
O94 Co69 1.941 . S
O94 C101 1.266 . S
H95 C97 0.959 . S
H96 C97 0.961 . S
C97 C87 1.510 . S
C97 H95 0.959 . S
C97 H96 0.961 . S
C97 H98 0.960 . S
H98 C97 0.960 . S
H99 N79 0.862 . S
O100 Co68 1.920 . S
O100 C73 1.289 . S
C101 O93 1.258 . S
C101 O94 1.266 . S
Co102 O105 1.970 . S
Co102 N119 1.989 1_565 S
Co102 O127 1.967 . S
Co102 O134 1.920 . S
Co103 O106 1.966 . S
Co103 N112 2.022 . S
Co103 N120 1.993 . S
Co103 O128 1.941 . S
C104 O105 1.258 . S
C104 O106 1.263 . S
O105 Co102 1.970 . S
O105 C104 1.258 . S
O106 Co103 1.966 . S
O106 C104 1.263 . S
C107 O108 1.235 . S
C107 O134 1.289 1_545 S
O108 C107 1.235 . S
C109 C111 1.400 . S
C109 N112 1.351 . S
C109 C114 1.501 . S
C110 C111 1.387 . S
C110 N113 1.341 . S
C111 C109 1.400 . S
C111 C110 1.387 . S
N112 Co103 2.022 . S
N112 C109 1.351 . S
N112 N113 1.365 . S
N113 C110 1.341 . S
N113 N112 1.365 . S
N113 H133 0.862 . S
C114 C109 1.501 . S
C114 H115 0.961 . S
C114 H116 0.961 1_565 S
C114 H117 0.960 . S
H115 C114 0.961 . S
H116 C114 0.961 1_545 S
H117 C114 0.960 . S
C118 N119 1.342 . S
C118 C122 1.401 . S
C118 C123 1.499 . S
N119 Co102 1.989 1_545 S
N119 C118 1.342 . S
N119 N120 1.388 1_545 S
N120 Co103 1.993 . S
N120 N119 1.388 1_565 S
N120 C121 1.346 1_565 S
C121 N120 1.346 1_545 S
C121 C122 1.396 . S
C121 C131 1.510 . S
C122 C118 1.401 . S
C122 C121 1.396 . S
C123 C118 1.499 . S
C123 H124 0.959 . S
C123 H125 0.960 . S
C123 H126 0.961 . S
H124 C123 0.959 . S
H125 C123 0.960 . S
H126 C123 0.961 . S
O127 Co102 1.967 . S
O127 C135 1.258 . S
O128 Co103 1.941 . S
O128 C135 1.266 . S
H129 C131 0.959 . S
H130 C131 0.961 . S
C131 C121 1.510 . S
C131 H129 0.959 . S
C131 H130 0.961 . S
C131 H132 0.960 . S
H132 C131 0.960 . S
H133 N113 0.862 . S
O134 Co102 1.920 . S
O134 C107 1.289 1_565 S
C135 O127 1.258 . S
C135 O128 1.266 . S
Co136 O139 1.970 . S
Co136 N153 1.989 . S
Co136 O161 1.967 . S
Co136 O168 1.920 . S
Co137 O140 1.966 . S
Co137 N146 2.022 . S
Co137 N154 1.993 . S
Co137 O162 1.941 . S
C138 O139 1.258 . S
C138 O140 1.263 . S
O139 Co136 1.970 . S
O139 C138 1.258 . S
O140 Co137 1.966 . S
O140 C138 1.263 . S
C141 O142 1.235 . S
C141 O168 1.289 . S
O142 C141 1.235 . S
C143 C145 1.400 1_565 S
C143 N146 1.351 . S
C143 C148 1.501 . S
C144 C145 1.387 . S
C144 N147 1.341 1_545 S
C145 C143 1.400 1_545 S
C145 C144 1.387 . S
N146 Co137 2.022 . S
N146 C143 1.351 . S
N146 N147 1.365 . S
N147 C144 1.341 1_565 S
N147 N146 1.365 . S
N147 H167 0.862 . S
C148 C143 1.501 . S
C148 H149 0.961 . S
C148 H150 0.961 . S
C148 H151 0.960 . S
H149 C148 0.961 . S
H150 C148 0.961 . S
H151 C148 0.960 . S
C152 N153 1.342 . S
C152 C156 1.401 . S
C152 C157 1.499 . S
N153 Co136 1.989 . S
N153 C152 1.342 . S
N153 N154 1.388 . S
N154 Co137 1.993 . S
N154 N153 1.388 . S
N154 C155 1.346 . S
C155 N154 1.346 . S
C155 C156 1.396 . S
C155 C165 1.510 . S
C156 C152 1.401 . S
C156 C155 1.396 . S
C157 C152 1.499 . S
C157 H158 0.959 . S
C157 H159 0.960 . S
C157 H160 0.961 . S
H158 C157 0.959 . S
H159 C157 0.960 . S
H160 C157 0.961 . S
O161 Co136 1.967 . S
O161 C169 1.258 . S
O162 Co137 1.941 . S
O162 C169 1.266 . S
H163 C165 0.959 . S
H164 C165 0.961 . S
C165 C155 1.510 . S
C165 H163 0.959 . S
C165 H164 0.961 . S
C165 H166 0.960 . S
H166 C165 0.960 . S
H167 N147 0.862 . S
O168 Co136 1.920 . S
O168 C141 1.289 . S
C169 O161 1.258 . S
C169 O162 1.266 . S
Co170 O173 1.970 . S
Co170 N187 1.989 1_545 S
Co170 O195 1.967 . S
Co170 O202 1.920 . S
Co171 O174 1.966 . S
Co171 N180 2.022 . S
Co171 N188 1.993 . S
Co171 O196 1.941 . S
C172 O173 1.258 . S
C172 O174 1.263 . S
O173 Co170 1.970 . S
O173 C172 1.258 . S
O174 Co171 1.966 . S
O174 C172 1.263 . S
C175 O176 1.235 . S
C175 O202 1.289 1_565 S
O176 C175 1.235 . S
C177 C179 1.400 . S
C177 N180 1.351 . S
C177 C182 1.501 . S
C178 C179 1.387 . S
C178 N181 1.341 . S
C179 C177 1.400 . S
C179 C178 1.387 . S
N180 Co171 2.022 . S
N180 C177 1.351 . S
N180 N181 1.365 . S
N181 C178 1.341 . S
N181 N180 1.365 . S
N181 H201 0.862 . S
C182 C177 1.501 . S
C182 H183 0.961 . S
C182 H184 0.961 1_545 S
C182 H185 0.960 . S
H183 C182 0.961 . S
H184 C182 0.961 1_565 S
H185 C182 0.960 . S
C186 N187 1.342 . S
C186 C190 1.401 . S
C186 C191 1.499 . S
N187 Co170 1.989 1_565 S
N187 C186 1.342 . S
N187 N188 1.388 1_565 S
N188 Co171 1.993 . S
N188 N187 1.388 1_545 S
N188 C189 1.346 1_545 S
C189 N188 1.346 1_565 S
C189 C190 1.396 . S
C189 C199 1.510 . S
C190 C186 1.401 . S
C190 C189 1.396 . S
C191 C186 1.499 . S
C191 H192 0.959 . S
C191 H193 0.960 . S
C191 H194 0.961 . S
H192 C191 0.959 . S
H193 C191 0.960 . S
H194 C191 0.961 . S
O195 Co170 1.967 . S
O195 C203 1.258 . S
O196 Co171 1.941 . S
O196 C203 1.266 . S
H197 C199 0.959 . S
H198 C199 0.961 . S
C199 C189 1.510 . S
C199 H197 0.959 . S
C199 H198 0.961 . S
C199 H200 0.960 . S
H200 C199 0.960 . S
H201 N181 0.862 . S
O202 Co170 1.920 . S
O202 C175 1.289 1_545 S
C203 O195 1.258 . S
C203 O196 1.266 . S
Co204 O207 1.970 . S
Co204 N221 1.989 . S
Co204 O229 1.967 . S
Co204 O236 1.920 . S
Co205 O208 1.966 . S
Co205 N214 2.022 . S
Co205 N222 1.993 . S
Co205 O230 1.941 . S
C206 O207 1.258 . S
C206 O208 1.263 . S
O207 Co204 1.970 . S
O207 C206 1.258 . S
O208 Co205 1.966 . S
O208 C206 1.263 . S
C209 O210 1.235 . S
C209 O236 1.289 . S
O210 C209 1.235 . S
C211 C213 1.400 1_545 S
C211 N214 1.351 . S
C211 C216 1.501 . S
C212 C213 1.387 . S
C212 N215 1.341 1_565 S
C213 C211 1.400 1_565 S
C213 C212 1.387 . S
N214 Co205 2.022 . S
N214 C211 1.351 . S
N214 N215 1.365 . S
N215 C212 1.341 1_545 S
N215 N214 1.365 . S
N215 H235 0.862 . S
C216 C211 1.501 . S
C216 H217 0.961 . S
C216 H218 0.961 . S
C216 H219 0.960 . S
H217 C216 0.961 . S
H218 C216 0.961 . S
H219 C216 0.960 . S
C220 N221 1.342 . S
C220 C224 1.401 . S
C220 C225 1.499 . S
N221 Co204 1.989 . S
N221 C220 1.342 . S
N221 N222 1.388 . S
N222 Co205 1.993 . S
N222 N221 1.388 . S
N222 C223 1.346 . S
C223 N222 1.346 . S
C223 C224 1.396 . S
C223 C233 1.510 . S
C224 C220 1.401 . S
C224 C223 1.396 . S
C225 C220 1.499 . S
C225 H226 0.959 . S
C225 H227 0.960 . S
C225 H228 0.961 . S
H226 C225 0.959 . S
H227 C225 0.960 . S
H228 C225 0.961 . S
O229 Co204 1.967 . S
O229 C237 1.258 . S
O230 Co205 1.941 . S
O230 C237 1.266 . S
H231 C233 0.959 . S
H232 C233 0.961 . S
C233 C223 1.510 . S
C233 H231 0.959 . S
C233 H232 0.961 . S
C233 H234 0.960 . S
H234 C233 0.960 . S
H235 N215 0.862 . S
O236 Co204 1.920 . S
O236 C209 1.289 . S
C237 O229 1.258 . S
C237 O230 1.266 . S
Co238 O241 1.970 . S
Co238 N255 1.989 1_565 S
Co238 O263 1.967 . S
Co238 O270 1.920 1_455 S
Co239 O242 1.966 . S
Co239 N248 2.022 . S
Co239 N256 1.993 . S
Co239 O264 1.941 . S
C240 O241 1.258 . S
C240 O242 1.263 . S
O241 Co238 1.970 . S
O241 C240 1.258 . S
O242 Co239 1.966 . S
O242 C240 1.263 . S
C243 O244 1.235 . S
C243 O270 1.289 1_545 S
O244 C243 1.235 . S
C245 C247 1.400 . S
C245 N248 1.351 . S
C245 C250 1.501 . S
C246 C247 1.387 . S
C246 N249 1.341 . S
C247 C245 1.400 . S
C247 C246 1.387 . S
N248 Co239 2.022 . S
N248 C245 1.351 . S
N248 N249 1.365 . S
N249 C246 1.341 . S
N249 N248 1.365 . S
N249 H269 0.862 . S
C250 C245 1.501 . S
C250 H251 0.961 . S
C250 H252 0.961 1_565 S
C250 H253 0.960 . S
H251 C250 0.961 . S
H252 C250 0.961 1_545 S
H253 C250 0.960 . S
C254 N255 1.342 . S
C254 C258 1.401 . S
C254 C259 1.499 1_455 S
N255 Co238 1.989 1_545 S
N255 C254 1.342 . S
N255 N256 1.388 1_545 S
N256 Co239 1.993 . S
N256 N255 1.388 1_565 S
N256 C257 1.346 1_565 S
C257 N256 1.346 1_545 S
C257 C258 1.396 . S
C257 C267 1.510 . S
C258 C254 1.401 . S
C258 C257 1.396 . S
C259 C254 1.499 1_655 S
C259 H260 0.959 . S
C259 H261 0.960 . S
C259 H262 0.961 . S
H260 C259 0.959 . S
H261 C259 0.960 . S
H262 C259 0.961 . S
O263 Co238 1.967 . S
O263 C271 1.258 . S
O264 Co239 1.941 . S
O264 C271 1.266 . S
H265 C267 0.959 . S
H266 C267 0.961 . S
C267 C257 1.510 . S
C267 H265 0.959 . S
C267 H266 0.961 . S
C267 H268 0.960 . S
H268 C267 0.960 . S
H269 N249 0.862 . S
O270 Co238 1.920 1_655 S
O270 C243 1.289 1_565 S
C271 O263 1.258 . S
C271 O264 1.266 . S
Co272 O275 1.970 . S
Co272 N289 1.989 . S
Co272 O297 1.967 . S
Co272 O304 1.920 . S
Co273 O276 1.966 . S
Co273 N282 2.022 . S
Co273 N290 1.993 . S
Co273 O298 1.941 . S
C274 O275 1.258 . S
C274 O276 1.263 . S
O275 Co272 1.970 . S
O275 C274 1.258 . S
O276 Co273 1.966 . S
O276 C274 1.263 . S
C277 O278 1.235 . S
C277 O304 1.289 . S
O278 C277 1.235 . S
C279 C281 1.400 1_565 S
C279 N282 1.351 . S
C279 C284 1.501 . S
C280 C281 1.387 . S
C280 N283 1.341 1_545 S
C281 C279 1.400 1_545 S
C281 C280 1.387 . S
N282 Co273 2.022 . S
N282 C279 1.351 . S
N282 N283 1.365 . S
N283 C280 1.341 1_565 S
N283 N282 1.365 . S
N283 H303 0.862 . S
C284 C279 1.501 . S
C284 H285 0.961 . S
C284 H286 0.961 . S
C284 H287 0.960 . S
H285 C284 0.961 . S
H286 C284 0.961 . S
H287 C284 0.960 . S
C288 N289 1.342 . S
C288 C292 1.401 . S
C288 C293 1.499 . S
N289 Co272 1.989 . S
N289 C288 1.342 . S
N289 N290 1.388 . S
N290 Co273 1.993 . S
N290 N289 1.388 . S
N290 C291 1.346 . S
C291 N290 1.346 . S
C291 C292 1.396 . S
C291 C301 1.510 . S
C292 C288 1.401 . S
C292 C291 1.396 . S
C293 C288 1.499 . S
C293 H294 0.959 . S
C293 H295 0.960 . S
C293 H296 0.961 . S
H294 C293 0.959 . S
H295 C293 0.960 . S
H296 C293 0.961 . S
O297 Co272 1.967 . S
O297 C305 1.258 . S
O298 Co273 1.941 . S
O298 C305 1.266 . S
H299 C301 0.959 . S
H300 C301 0.961 . S
C301 C291 1.510 . S
C301 H299 0.959 . S
C301 H300 0.961 . S
C301 H302 0.960 . S
H302 C301 0.960 . S
H303 N283 0.862 . S
O304 Co272 1.920 . S
O304 C277 1.289 . S
C305 O297 1.258 . S
C305 O298 1.266 . S
Co306 O309 1.970 . S
Co306 N323 1.989 1_565 S
Co306 O331 1.967 . S
Co306 O338 1.920 1_655 S
Co307 O310 1.966 . S
Co307 N316 2.022 . S
Co307 N324 1.993 . S
Co307 O332 1.941 . S
C308 O309 1.258 . S
C308 O310 1.263 . S
O309 Co306 1.970 . S
O309 C308 1.258 . S
O310 Co307 1.966 . S
O310 C308 1.263 . S
C311 O312 1.235 . S
C311 O338 1.289 1_545 S
O312 C311 1.235 . S
C313 C315 1.400 . S
C313 N316 1.351 . S
C313 C318 1.501 . S
C314 C315 1.387 . S
C314 N317 1.341 . S
C315 C313 1.400 . S
C315 C314 1.387 . S
N316 Co307 2.022 . S
N316 C313 1.351 . S
N316 N317 1.365 . S
N317 C314 1.341 . S
N317 N316 1.365 . S
N317 H337 0.862 . S
C318 C313 1.501 . S
C318 H319 0.961 . S
C318 H320 0.961 1_565 S
C318 H321 0.960 . S
H319 C318 0.961 . S
H320 C318 0.961 1_545 S
H321 C318 0.960 . S
C322 N323 1.342 . S
C322 C326 1.401 . S
C322 C327 1.499 1_655 S
N323 Co306 1.989 1_545 S
N323 C322 1.342 . S
N323 N324 1.388 1_545 S
N324 Co307 1.993 . S
N324 N323 1.388 1_565 S
N324 C325 1.346 1_565 S
C325 N324 1.346 1_545 S
C325 C326 1.396 . S
C325 C335 1.510 . S
C326 C322 1.401 . S
C326 C325 1.396 . S
C327 C322 1.499 1_455 S
C327 H328 0.959 . S
C327 H329 0.960 . S
C327 H330 0.961 . S
H328 C327 0.959 . S
H329 C327 0.960 . S
H330 C327 0.961 . S
O331 Co306 1.967 . S
O331 C339 1.258 . S
O332 Co307 1.941 . S
O332 C339 1.266 . S
H333 C335 0.959 . S
H334 C335 0.961 . S
C335 C325 1.510 . S
C335 H333 0.959 . S
C335 H334 0.961 . S
C335 H336 0.960 . S
H336 C335 0.960 . S
H337 N317 0.862 . S
O338 Co306 1.920 1_455 S
O338 C311 1.289 1_565 S
C339 O331 1.258 . S
C339 O332 1.266 . S
Co340 O343 1.970 . S
Co340 N357 1.989 . S
Co340 O365 1.967 . S
Co340 O372 1.920 . S
Co341 O344 1.966 . S
Co341 N350 2.022 . S
Co341 N358 1.993 . S
Co341 O366 1.941 . S
C342 O343 1.258 . S
C342 O344 1.263 . S
O343 Co340 1.970 . S
O343 C342 1.258 . S
O344 Co341 1.966 . S
O344 C342 1.263 . S
C345 O346 1.235 . S
C345 O372 1.289 . S
O346 C345 1.235 . S
C347 C349 1.400 1_545 S
C347 N350 1.351 . S
C347 C352 1.501 . S
C348 C349 1.387 . S
C348 N351 1.341 1_565 S
C349 C347 1.400 1_565 S
C349 C348 1.387 . S
N350 Co341 2.022 . S
N350 C347 1.351 . S
N350 N351 1.365 . S
N351 C348 1.341 1_545 S
N351 N350 1.365 . S
N351 H371 0.862 . S
C352 C347 1.501 . S
C352 H353 0.961 . S
C352 H354 0.961 . S
C352 H355 0.960 . S
H353 C352 0.961 . S
H354 C352 0.961 . S
H355 C352 0.960 . S
C356 N357 1.342 . S
C356 C360 1.401 . S
C356 C361 1.499 . S
N357 Co340 1.989 . S
N357 C356 1.342 . S
N357 N358 1.388 . S
N358 Co341 1.993 . S
N358 N357 1.388 . S
N358 C359 1.346 . S
C359 N358 1.346 . S
C359 C360 1.396 . S
C359 C369 1.510 . S
C360 C356 1.401 . S
C360 C359 1.396 . S
C361 C356 1.499 . S
C361 H362 0.959 . S
C361 H363 0.960 . S
C361 H364 0.961 . S
H362 C361 0.959 . S
H363 C361 0.960 . S
H364 C361 0.961 . S
O365 Co340 1.967 . S
O365 C373 1.258 . S
O366 Co341 1.941 . S
O366 C373 1.266 . S
H367 C369 0.959 . S
H368 C369 0.961 . S
C369 C359 1.510 . S
C369 H367 0.959 . S
C369 H368 0.961 . S
C369 H370 0.960 . S
H370 C369 0.960 . S
H371 N351 0.862 . S
O372 Co340 1.920 . S
O372 C345 1.289 . S
C373 O365 1.258 . S
C373 O366 1.266 . S
Co374 O377 1.970 . S
Co374 N391 1.989 1_545 S
Co374 O399 1.967 . S
Co374 O406 1.920 . S
Co375 O378 1.966 . S
Co375 N384 2.022 . S
Co375 N392 1.993 . S
Co375 O400 1.941 . S
C376 O377 1.258 . S
C376 O378 1.263 . S
O377 Co374 1.970 . S
O377 C376 1.258 . S
O378 Co375 1.966 . S
O378 C376 1.263 . S
C379 O380 1.235 . S
C379 O406 1.289 1_565 S
O380 C379 1.235 . S
C381 C383 1.400 . S
C381 N384 1.351 . S
C381 C386 1.501 . S
C382 C383 1.387 . S
C382 N385 1.341 . S
C383 C381 1.400 . S
C383 C382 1.387 . S
N384 Co375 2.022 . S
N384 C381 1.351 . S
N384 N385 1.365 . S
N385 C382 1.341 . S
N385 N384 1.365 . S
N385 H405 0.862 . S
C386 C381 1.501 . S
C386 H387 0.961 . S
C386 H388 0.961 1_545 S
C386 H389 0.960 . S
H387 C386 0.961 . S
H388 C386 0.961 1_565 S
H389 C386 0.960 . S
C390 N391 1.342 . S
C390 C394 1.401 . S
C390 C395 1.499 . S
N391 Co374 1.989 1_565 S
N391 C390 1.342 . S
N391 N392 1.388 1_565 S
N392 Co375 1.993 . S
N392 N391 1.388 1_545 S
N392 C393 1.346 1_545 S
C393 N392 1.346 1_565 S
C393 C394 1.396 . S
C393 C403 1.510 . S
C394 C390 1.401 . S
C394 C393 1.396 . S
C395 C390 1.499 . S
C395 H396 0.959 . S
C395 H397 0.960 . S
C395 H398 0.961 . S
H396 C395 0.959 . S
H397 C395 0.960 . S
H398 C395 0.961 . S
O399 Co374 1.967 . S
O399 C407 1.258 . S
O400 Co375 1.941 . S
O400 C407 1.266 . S
H401 C403 0.959 . S
H402 C403 0.961 . S
C403 C393 1.510 . S
C403 H401 0.959 . S
C403 H402 0.961 . S
C403 H404 0.960 . S
H404 C403 0.960 . S
H405 N385 0.862 . S
O406 Co374 1.920 . S
O406 C379 1.289 1_545 S
C407 O399 1.258 . S
C407 O400 1.266 . S
Co408 O411 1.970 . S
Co408 N425 1.989 . S
Co408 O433 1.967 . S
Co408 O440 1.920 . S
Co409 O412 1.966 . S
Co409 N418 2.022 . S
Co409 N426 1.993 . S
Co409 O434 1.941 . S
C410 O411 1.258 . S
C410 O412 1.263 . S
O411 Co408 1.970 . S
O411 C410 1.258 . S
O412 Co409 1.966 . S
O412 C410 1.263 . S
C413 O414 1.235 . S
C413 O440 1.289 . S
O414 C413 1.235 . S
C415 C417 1.400 1_545 S
C415 N418 1.351 . S
C415 C420 1.501 . S
C416 C417 1.387 . S
C416 N419 1.341 1_565 S
C417 C415 1.400 1_565 S
C417 C416 1.387 . S
N418 Co409 2.022 . S
N418 C415 1.351 . S
N418 N419 1.365 . S
N419 C416 1.341 1_545 S
N419 N418 1.365 . S
N419 H439 0.862 . S
C420 C415 1.501 . S
C420 H421 0.961 . S
C420 H422 0.961 . S
C420 H423 0.960 . S
H421 C420 0.961 . S
H422 C420 0.961 . S
H423 C420 0.960 . S
C424 N425 1.342 . S
C424 C428 1.401 . S
C424 C429 1.499 . S
N425 Co408 1.989 . S
N425 C424 1.342 . S
N425 N426 1.388 . S
N426 Co409 1.993 . S
N426 N425 1.388 . S
N426 C427 1.346 . S
C427 N426 1.346 . S
C427 C428 1.396 . S
C427 C437 1.510 . S
C428 C424 1.401 . S
C428 C427 1.396 . S
C429 C424 1.499 . S
C429 H430 0.959 . S
C429 H431 0.960 . S
C429 H432 0.961 . S
H430 C429 0.959 . S
H431 C429 0.960 . S
H432 C429 0.961 . S
O433 Co408 1.967 . S
O433 C441 1.258 . S
O434 Co409 1.941 . S
O434 C441 1.266 . S
H435 C437 0.959 . S
H436 C437 0.961 . S
C437 C427 1.510 . S
C437 H435 0.959 . S
C437 H436 0.961 . S
C437 H438 0.960 . S
H438 C437 0.960 . S
H439 N419 0.862 . S
O440 Co408 1.920 . S
O440 C413 1.289 . S
C441 O433 1.258 . S
C441 O434 1.266 . S
Co442 O445 1.970 . S
Co442 N459 1.989 1_565 S
Co442 O467 1.967 . S
Co442 O474 1.920 . S
Co443 O446 1.966 . S
Co443 N452 2.022 . S
Co443 N460 1.993 . S
Co443 O468 1.941 . S
C444 O445 1.258 . S
C444 O446 1.263 . S
O445 Co442 1.970 . S
O445 C444 1.258 . S
O446 Co443 1.966 . S
O446 C444 1.263 . S
C447 O448 1.235 . S
C447 O474 1.289 1_545 S
O448 C447 1.235 . S
C449 C451 1.400 . S
C449 N452 1.351 . S
C449 C454 1.501 . S
C450 C451 1.387 . S
C450 N453 1.341 . S
C451 C449 1.400 . S
C451 C450 1.387 . S
N452 Co443 2.022 . S
N452 C449 1.351 . S
N452 N453 1.365 . S
N453 C450 1.341 . S
N453 N452 1.365 . S
N453 H473 0.862 . S
C454 C449 1.501 . S
C454 H455 0.961 . S
C454 H456 0.961 1_565 S
C454 H457 0.960 . S
H455 C454 0.961 . S
H456 C454 0.961 1_545 S
H457 C454 0.960 . S
C458 N459 1.342 . S
C458 C462 1.401 . S
C458 C463 1.499 . S
N459 Co442 1.989 1_545 S
N459 C458 1.342 . S
N459 N460 1.388 1_545 S
N460 Co443 1.993 . S
N460 N459 1.388 1_565 S
N460 C461 1.346 1_565 S
C461 N460 1.346 1_545 S
C461 C462 1.396 . S
C461 C471 1.510 . S
C462 C458 1.401 . S
C462 C461 1.396 . S
C463 C458 1.499 . S
C463 H464 0.959 . S
C463 H465 0.960 . S
C463 H466 0.961 . S
H464 C463 0.959 . S
H465 C463 0.960 . S
H466 C463 0.961 . S
O467 Co442 1.967 . S
O467 C475 1.258 . S
O468 Co443 1.941 . S
O468 C475 1.266 . S
H469 C471 0.959 . S
H470 C471 0.961 . S
C471 C461 1.510 . S
C471 H469 0.959 . S
C471 H470 0.961 . S
C471 H472 0.960 . S
H472 C471 0.960 . S
H473 N453 0.862 . S
O474 Co442 1.920 . S
O474 C447 1.289 1_565 S
C475 O467 1.258 . S
C475 O468 1.266 . S
Co476 O479 1.970 . S
Co476 N493 1.989 . S
Co476 O501 1.967 . S
Co476 O508 1.920 . S
Co477 O480 1.966 . S
Co477 N486 2.022 . S
Co477 N494 1.993 . S
Co477 O502 1.941 . S
C478 O479 1.258 . S
C478 O480 1.263 . S
O479 Co476 1.970 . S
O479 C478 1.258 . S
O480 Co477 1.966 . S
O480 C478 1.263 . S
C481 O482 1.235 . S
C481 O508 1.289 . S
O482 C481 1.235 . S
C483 C485 1.400 1_565 S
C483 N486 1.351 . S
C483 C488 1.501 . S
C484 C485 1.387 . S
C484 N487 1.341 1_545 S
C485 C483 1.400 1_545 S
C485 C484 1.387 . S
N486 Co477 2.022 . S
N486 C483 1.351 . S
N486 N487 1.365 . S
N487 C484 1.341 1_565 S
N487 N486 1.365 . S
N487 H507 0.862 . S
C488 C483 1.501 . S
C488 H489 0.961 . S
C488 H490 0.961 . S
C488 H491 0.960 . S
H489 C488 0.961 . S
H490 C488 0.961 . S
H491 C488 0.960 . S
C492 N493 1.342 . S
C492 C496 1.401 . S
C492 C497 1.499 . S
N493 Co476 1.989 . S
N493 C492 1.342 . S
N493 N494 1.388 . S
N494 Co477 1.993 . S
N494 N493 1.388 . S
N494 C495 1.346 . S
C495 N494 1.346 . S
C495 C496 1.396 . S
C495 C505 1.510 . S
C496 C492 1.401 . S
C496 C495 1.396 . S
C497 C492 1.499 . S
C497 H498 0.959 . S
C497 H499 0.960 . S
C497 H500 0.961 . S
H498 C497 0.959 . S
H499 C497 0.960 . S
H500 C497 0.961 . S
O501 Co476 1.967 . S
O501 C509 1.258 . S
O502 Co477 1.941 . S
O502 C509 1.266 . S
H503 C505 0.959 . S
H504 C505 0.961 . S
C505 C495 1.510 . S
C505 H503 0.959 . S
C505 H504 0.961 . S
C505 H506 0.960 . S
H506 C505 0.960 . S
H507 N487 0.862 . S
O508 Co476 1.920 . S
O508 C481 1.289 . S
C509 O501 1.258 . S
C509 O502 1.266 . S
Co510 O513 1.970 . S
Co510 N527 1.989 1_545 S
Co510 O535 1.967 . S
Co510 O542 1.920 1_655 S
Co511 O514 1.966 . S
Co511 N520 2.022 . S
Co511 N528 1.993 . S
Co511 O536 1.941 . S
C512 O513 1.258 . S
C512 O514 1.263 . S
O513 Co510 1.970 . S
O513 C512 1.258 . S
O514 Co511 1.966 . S
O514 C512 1.263 . S
C515 O516 1.235 . S
C515 O542 1.289 1_565 S
O516 C515 1.235 . S
C517 C519 1.400 . S
C517 N520 1.351 . S
C517 C522 1.501 . S
C518 C519 1.387 . S
C518 N521 1.341 . S
C519 C517 1.400 . S
C519 C518 1.387 . S
N520 Co511 2.022 . S
N520 C517 1.351 . S
N520 N521 1.365 . S
N521 C518 1.341 . S
N521 N520 1.365 . S
N521 H541 0.862 . S
C522 C517 1.501 . S
C522 H523 0.961 . S
C522 H524 0.961 1_545 S
C522 H525 0.960 . S
H523 C522 0.961 . S
H524 C522 0.961 1_565 S
H525 C522 0.960 . S
C526 N527 1.342 . S
C526 C530 1.401 . S
C526 C531 1.499 1_655 S
N527 Co510 1.989 1_565 S
N527 C526 1.342 . S
N527 N528 1.388 1_565 S
N528 Co511 1.993 . S
N528 N527 1.388 1_545 S
N528 C529 1.346 1_545 S
C529 N528 1.346 1_565 S
C529 C530 1.396 . S
C529 C539 1.510 . S
C530 C526 1.401 . S
C530 C529 1.396 . S
C531 C526 1.499 1_455 S
C531 H532 0.959 . S
C531 H533 0.960 . S
C531 H534 0.961 . S
H532 C531 0.959 . S
H533 C531 0.960 . S
H534 C531 0.961 . S
O535 Co510 1.967 . S
O535 C543 1.258 . S
O536 Co511 1.941 . S
O536 C543 1.266 . S
H537 C539 0.959 . S
H538 C539 0.961 . S
C539 C529 1.510 . S
C539 H537 0.959 . S
C539 H538 0.961 . S
C539 H540 0.960 . S
H540 C539 0.960 . S
H541 N521 0.862 . S
O542 Co510 1.920 1_455 S
O542 C515 1.289 1_545 S
C543 O535 1.258 . S
C543 O536 1.266 . S
Co544 O547 1.970 . S
Co544 N561 1.989 . S
Co544 O569 1.967 . S
Co544 O576 1.920 . S
Co545 O548 1.966 . S
Co545 N554 2.022 . S
Co545 N562 1.993 . S
Co545 O570 1.941 . S
C546 O547 1.258 . S
C546 O548 1.263 . S
O547 Co544 1.970 . S
O547 C546 1.258 . S
O548 Co545 1.966 . S
O548 C546 1.263 . S
C549 O550 1.235 . S
C549 O576 1.289 . S
O550 C549 1.235 . S
C551 C553 1.400 . S
C551 N554 1.351 . S
C551 C556 1.501 . S
C552 C553 1.387 . S
C552 N555 1.341 . S
C553 C551 1.400 . S
C553 C552 1.387 . S
N554 Co545 2.022 . S
N554 C551 1.351 . S
N554 N555 1.365 . S
N555 C552 1.341 . S
N555 N554 1.365 . S
N555 H575 0.862 . S
C556 C551 1.501 . S
C556 H557 0.961 . S
C556 H558 0.961 . S
C556 H559 0.960 . S
H557 C556 0.961 . S
H558 C556 0.961 . S
H559 C556 0.960 . S
C560 N561 1.342 . S
C560 C564 1.401 . S
C560 C565 1.499 . S
N561 Co544 1.989 . S
N561 C560 1.342 . S
N561 N562 1.388 . S
N562 Co545 1.993 . S
N562 N561 1.388 . S
N562 C563 1.346 . S
C563 N562 1.346 . S
C563 C564 1.396 . S
C563 C573 1.510 . S
C564 C560 1.401 . S
C564 C563 1.396 . S
C565 C560 1.499 . S
C565 H566 0.959 . S
C565 H567 0.960 . S
C565 H568 0.961 . S
H566 C565 0.959 . S
H567 C565 0.960 . S
H568 C565 0.961 . S
O569 Co544 1.967 . S
O569 C577 1.258 . S
O570 Co545 1.941 . S
O570 C577 1.266 . S
H571 C573 0.959 . S
H572 C573 0.961 . S
C573 C563 1.510 . S
C573 H571 0.959 . S
C573 H572 0.961 . S
C573 H574 0.960 . S
H574 C573 0.960 . S
H575 N555 0.862 . S
O576 Co544 1.920 . S
O576 C549 1.289 . S
C577 O569 1.258 . S
C577 O570 1.266 . S
Co578 O581 1.970 . S
Co578 N595 1.989 . S
Co578 O603 1.967 . S
Co578 O610 1.920 . S
Co579 O582 1.966 . S
Co579 N588 2.022 . S
Co579 N596 1.993 . S
Co579 O604 1.941 . S
C580 O581 1.258 . S
C580 O582 1.263 . S
O581 Co578 1.970 . S
O581 C580 1.258 . S
O582 Co579 1.966 . S
O582 C580 1.263 . S
C583 O584 1.235 . S
C583 O610 1.289 . S
O584 C583 1.235 . S
C585 C587 1.400 . S
C585 N588 1.351 . S
C585 C590 1.501 . S
C586 C587 1.387 . S
C586 N589 1.341 . S
C587 C585 1.400 . S
C587 C586 1.387 . S
N588 Co579 2.022 . S
N588 C585 1.351 . S
N588 N589 1.365 . S
N589 C586 1.341 . S
N589 N588 1.365 . S
N589 H609 0.862 . S
C590 C585 1.501 . S
C590 H591 0.961 . S
C590 H592 0.961 . S
C590 H593 0.960 . S
H591 C590 0.961 . S
H592 C590 0.961 . S
H593 C590 0.960 . S
C594 N595 1.342 . S
C594 C598 1.401 . S
C594 C599 1.499 . S
N595 Co578 1.989 . S
N595 C594 1.342 . S
N595 N596 1.388 . S
N596 Co579 1.993 . S
N596 N595 1.388 . S
N596 C597 1.346 . S
C597 N596 1.346 . S
C597 C598 1.396 . S
C597 C607 1.510 . S
C598 C594 1.401 . S
C598 C597 1.396 . S
C599 C594 1.499 . S
C599 H600 0.959 . S
C599 H601 0.960 . S
C599 H602 0.961 . S
H600 C599 0.959 . S
H601 C599 0.960 . S
H602 C599 0.961 . S
O603 Co578 1.967 . S
O603 C611 1.258 . S
O604 Co579 1.941 . S
O604 C611 1.266 . S
H605 C607 0.959 . S
H606 C607 0.961 . S
C607 C597 1.510 . S
C607 H605 0.959 . S
C607 H606 0.961 . S
C607 H608 0.960 . S
H608 C607 0.960 . S
H609 N589 0.862 . S
O610 Co578 1.920 . S
O610 C583 1.289 . S
C611 O603 1.258 . S
C611 O604 1.266 . S
Co612 O615 1.970 . S
Co612 N629 1.989 . S
Co612 O637 1.967 . S
Co612 O644 1.920 . S
Co613 O616 1.966 . S
Co613 N622 2.022 . S
Co613 N630 1.993 . S
Co613 O638 1.941 . S
C614 O615 1.258 . S
C614 O616 1.263 . S
O615 Co612 1.970 . S
O615 C614 1.258 . S
O616 Co613 1.966 . S
O616 C614 1.263 . S
C617 O618 1.235 . S
C617 O644 1.289 . S
O618 C617 1.235 . S
C619 C621 1.400 . S
C619 N622 1.351 . S
C619 C624 1.501 . S
C620 C621 1.387 . S
C620 N623 1.341 . S
C621 C619 1.400 . S
C621 C620 1.387 . S
N622 Co613 2.022 . S
N622 C619 1.351 . S
N622 N623 1.365 . S
N623 C620 1.341 . S
N623 N622 1.365 . S
N623 H643 0.862 . S
C624 C619 1.501 . S
C624 H625 0.961 . S
C624 H626 0.961 . S
C624 H627 0.960 . S
H625 C624 0.961 . S
H626 C624 0.961 . S
H627 C624 0.960 . S
C628 N629 1.342 . S
C628 C632 1.401 . S
C628 C633 1.499 . S
N629 Co612 1.989 . S
N629 C628 1.342 . S
N629 N630 1.388 . S
N630 Co613 1.993 . S
N630 N629 1.388 . S
N630 C631 1.346 . S
C631 N630 1.346 . S
C631 C632 1.396 . S
C631 C641 1.510 . S
C632 C628 1.401 . S
C632 C631 1.396 . S
C633 C628 1.499 . S
C633 H634 0.959 . S
C633 H635 0.960 . S
C633 H636 0.961 . S
H634 C633 0.959 . S
H635 C633 0.960 . S
H636 C633 0.961 . S
O637 Co612 1.967 . S
O637 C645 1.258 . S
O638 Co613 1.941 . S
O638 C645 1.266 . S
H639 C641 0.959 . S
H640 C641 0.961 . S
C641 C631 1.510 . S
C641 H639 0.959 . S
C641 H640 0.961 . S
C641 H642 0.960 . S
H642 C641 0.960 . S
H643 N623 0.862 . S
O644 Co612 1.920 . S
O644 C617 1.289 . S
C645 O637 1.258 . S
C645 O638 1.266 . S
Co646 O649 1.970 . S
Co646 N663 1.989 . S
Co646 O671 1.967 . S
Co646 O678 1.920 1_655 S
Co647 O650 1.966 . S
Co647 N656 2.022 . S
Co647 N664 1.993 . S
Co647 O672 1.941 . S
C648 O649 1.258 . S
C648 O650 1.263 . S
O649 Co646 1.970 . S
O649 C648 1.258 . S
O650 Co647 1.966 . S
O650 C648 1.263 . S
C651 O652 1.235 . S
C651 O678 1.289 . S
O652 C651 1.235 . S
C653 C655 1.400 . S
C653 N656 1.351 . S
C653 C658 1.501 . S
C654 C655 1.387 . S
C654 N657 1.341 . S
C655 C653 1.400 . S
C655 C654 1.387 . S
N656 Co647 2.022 . S
N656 C653 1.351 . S
N656 N657 1.365 . S
N657 C654 1.341 . S
N657 N656 1.365 . S
N657 H677 0.862 . S
C658 C653 1.501 . S
C658 H659 0.961 . S
C658 H660 0.961 . S
C658 H661 0.960 . S
H659 C658 0.961 . S
H660 C658 0.961 . S
H661 C658 0.960 . S
C662 N663 1.342 . S
C662 C666 1.401 . S
C662 C667 1.499 1_655 S
N663 Co646 1.989 . S
N663 C662 1.342 . S
N663 N664 1.388 . S
N664 Co647 1.993 . S
N664 N663 1.388 . S
N664 C665 1.346 . S
C665 N664 1.346 . S
C665 C666 1.396 . S
C665 C675 1.510 . S
C666 C662 1.401 . S
C666 C665 1.396 . S
C667 C662 1.499 1_455 S
C667 H668 0.959 . S
C667 H669 0.960 . S
C667 H670 0.961 . S
H668 C667 0.959 . S
H669 C667 0.960 . S
H670 C667 0.961 . S
O671 Co646 1.967 . S
O671 C679 1.258 . S
O672 Co647 1.941 . S
O672 C679 1.266 . S
H673 C675 0.959 . S
H674 C675 0.961 . S
C675 C665 1.510 . S
C675 H673 0.959 . S
C675 H674 0.961 . S
C675 H676 0.960 . S
H676 C675 0.960 . S
H677 N657 0.862 . S
O678 Co646 1.920 1_455 S
O678 C651 1.289 . S
C679 O671 1.258 . S
C679 O672 1.266 . S
Co680 O683 1.970 . S
Co680 N697 1.989 . S
Co680 O705 1.967 . S
Co680 O712 1.920 . S
Co681 O684 1.966 . S
Co681 N690 2.022 . S
Co681 N698 1.993 . S
Co681 O706 1.941 . S
C682 O683 1.258 . S
C682 O684 1.263 . S
O683 Co680 1.970 . S
O683 C682 1.258 . S
O684 Co681 1.966 . S
O684 C682 1.263 . S
C685 O686 1.235 . S
C685 O712 1.289 . S
O686 C685 1.235 . S
C687 C689 1.400 . S
C687 N690 1.351 . S
C687 C692 1.501 . S
C688 C689 1.387 . S
C688 N691 1.341 . S
C689 C687 1.400 . S
C689 C688 1.387 . S
N690 Co681 2.022 . S
N690 C687 1.351 . S
N690 N691 1.365 . S
N691 C688 1.341 . S
N691 N690 1.365 . S
N691 H711 0.862 . S
C692 C687 1.501 . S
C692 H693 0.961 . S
C692 H694 0.961 . S
C692 H695 0.960 . S
H693 C692 0.961 . S
H694 C692 0.961 . S
H695 C692 0.960 . S
C696 N697 1.342 . S
C696 C700 1.401 . S
C696 C701 1.499 . S
N697 Co680 1.989 . S
N697 C696 1.342 . S
N697 N698 1.388 . S
N698 Co681 1.993 . S
N698 N697 1.388 . S
N698 C699 1.346 . S
C699 N698 1.346 . S
C699 C700 1.396 . S
C699 C709 1.510 . S
C700 C696 1.401 . S
C700 C699 1.396 . S
C701 C696 1.499 . S
C701 H702 0.959 . S
C701 H703 0.960 . S
C701 H704 0.961 . S
H702 C701 0.959 . S
H703 C701 0.960 . S
H704 C701 0.961 . S
O705 Co680 1.967 . S
O705 C713 1.258 . S
O706 Co681 1.941 . S
O706 C713 1.266 . S
H707 C709 0.959 . S
H708 C709 0.961 . S
C709 C699 1.510 . S
C709 H707 0.959 . S
C709 H708 0.961 . S
C709 H710 0.960 . S
H710 C709 0.960 . S
H711 N691 0.862 . S
O712 Co680 1.920 . S
O712 C685 1.289 . S
C713 O705 1.258 . S
C713 O706 1.266 . S
Co714 O717 1.970 . S
Co714 N731 1.989 . S
Co714 O739 1.967 . S
Co714 O746 1.920 1_655 S
Co715 O718 1.966 . S
Co715 N724 2.022 . S
Co715 N732 1.993 . S
Co715 O740 1.941 . S
C716 O717 1.258 . S
C716 O718 1.263 . S
O717 Co714 1.970 . S
O717 C716 1.258 . S
O718 Co715 1.966 . S
O718 C716 1.263 . S
C719 O720 1.235 . S
C719 O746 1.289 . S
O720 C719 1.235 . S
C721 C723 1.400 . S
C721 N724 1.351 . S
C721 C726 1.501 . S
C722 C723 1.387 . S
C722 N725 1.341 . S
C723 C721 1.400 . S
C723 C722 1.387 . S
N724 Co715 2.022 . S
N724 C721 1.351 . S
N724 N725 1.365 . S
N725 C722 1.341 . S
N725 N724 1.365 . S
N725 H745 0.862 . S
C726 C721 1.501 . S
C726 H727 0.961 . S
C726 H728 0.961 . S
C726 H729 0.960 . S
H727 C726 0.961 . S
H728 C726 0.961 . S
H729 C726 0.960 . S
C730 N731 1.342 . S
C730 C734 1.401 . S
C730 C735 1.499 1_655 S
N731 Co714 1.989 . S
N731 C730 1.342 . S
N731 N732 1.388 . S
N732 Co715 1.993 . S
N732 N731 1.388 . S
N732 C733 1.346 . S
C733 N732 1.346 . S
C733 C734 1.396 . S
C733 C743 1.510 . S
C734 C730 1.401 . S
C734 C733 1.396 . S
C735 C730 1.499 1_455 S
C735 H736 0.959 . S
C735 H737 0.960 . S
C735 H738 0.961 . S
H736 C735 0.959 . S
H737 C735 0.960 . S
H738 C735 0.961 . S
O739 Co714 1.967 . S
O739 C747 1.258 . S
O740 Co715 1.941 . S
O740 C747 1.266 . S
H741 C743 0.959 . S
H742 C743 0.961 . S
C743 C733 1.510 . S
C743 H741 0.959 . S
C743 H742 0.961 . S
C743 H744 0.960 . S
H744 C743 0.960 . S
H745 N725 0.862 . S
O746 Co714 1.920 1_455 S
O746 C719 1.289 . S
C747 O739 1.258 . S
C747 O740 1.266 . S
Co748 O751 1.970 . S
Co748 N765 1.989 . S
Co748 O773 1.967 . S
Co748 O780 1.920 . S
Co749 O752 1.966 . S
Co749 N758 2.022 . S
Co749 N766 1.993 . S
Co749 O774 1.941 . S
C750 O751 1.258 . S
C750 O752 1.263 . S
O751 Co748 1.970 . S
O751 C750 1.258 . S
O752 Co749 1.966 . S
O752 C750 1.263 . S
C753 O754 1.235 . S
C753 O780 1.289 . S
O754 C753 1.235 . S
C755 C757 1.400 . S
C755 N758 1.351 . S
C755 C760 1.501 . S
C756 C757 1.387 . S
C756 N759 1.341 . S
C757 C755 1.400 . S
C757 C756 1.387 . S
N758 Co749 2.022 . S
N758 C755 1.351 . S
N758 N759 1.365 . S
N759 C756 1.341 . S
N759 N758 1.365 . S
N759 H779 0.862 . S
C760 C755 1.501 . S
C760 H761 0.961 . S
C760 H762 0.961 . S
C760 H763 0.960 . S
H761 C760 0.961 . S
H762 C760 0.961 . S
H763 C760 0.960 . S
C764 N765 1.342 . S
C764 C768 1.401 . S
C764 C769 1.499 . S
N765 Co748 1.989 . S
N765 C764 1.342 . S
N765 N766 1.388 . S
N766 Co749 1.993 . S
N766 N765 1.388 . S
N766 C767 1.346 . S
C767 N766 1.346 . S
C767 C768 1.396 . S
C767 C777 1.510 . S
C768 C764 1.401 . S
C768 C767 1.396 . S
C769 C764 1.499 . S
C769 H770 0.959 . S
C769 H771 0.960 . S
C769 H772 0.961 . S
H770 C769 0.959 . S
H771 C769 0.960 . S
H772 C769 0.961 . S
O773 Co748 1.967 . S
O773 C781 1.258 . S
O774 Co749 1.941 . S
O774 C781 1.266 . S
H775 C777 0.959 . S
H776 C777 0.961 . S
C777 C767 1.510 . S
C777 H775 0.959 . S
C777 H776 0.961 . S
C777 H778 0.960 . S
H778 C777 0.960 . S
H779 N759 0.862 . S
O780 Co748 1.920 . S
O780 C753 1.289 . S
C781 O773 1.258 . S
C781 O774 1.266 . S
Co782 O785 1.970 . S
Co782 N799 1.989 . S
Co782 O807 1.967 . S
Co782 O814 1.920 . S
Co783 O786 1.966 . S
Co783 N792 2.022 . S
Co783 N800 1.993 . S
Co783 O808 1.941 . S
C784 O785 1.258 . S
C784 O786 1.263 . S
O785 Co782 1.970 . S
O785 C784 1.258 . S
O786 Co783 1.966 . S
O786 C784 1.263 . S
C787 O788 1.235 . S
C787 O814 1.289 . S
O788 C787 1.235 . S
C789 C791 1.400 . S
C789 N792 1.351 . S
C789 C794 1.501 . S
C790 C791 1.387 . S
C790 N793 1.341 . S
C791 C789 1.400 . S
C791 C790 1.387 . S
N792 Co783 2.022 . S
N792 C789 1.351 . S
N792 N793 1.365 . S
N793 C790 1.341 . S
N793 N792 1.365 . S
N793 H813 0.862 . S
C794 C789 1.501 . S
C794 H795 0.961 . S
C794 H796 0.961 . S
C794 H797 0.960 . S
H795 C794 0.961 . S
H796 C794 0.961 . S
H797 C794 0.960 . S
C798 N799 1.342 . S
C798 C802 1.401 . S
C798 C803 1.499 . S
N799 Co782 1.989 . S
N799 C798 1.342 . S
N799 N800 1.388 . S
N800 Co783 1.993 . S
N800 N799 1.388 . S
N800 C801 1.346 . S
C801 N800 1.346 . S
C801 C802 1.396 . S
C801 C811 1.510 . S
C802 C798 1.401 . S
C802 C801 1.396 . S
C803 C798 1.499 . S
C803 H804 0.959 . S
C803 H805 0.960 . S
C803 H806 0.961 . S
H804 C803 0.959 . S
H805 C803 0.960 . S
H806 C803 0.961 . S
O807 Co782 1.967 . S
O807 C815 1.258 . S
O808 Co783 1.941 . S
O808 C815 1.266 . S
H809 C811 0.959 . S
H810 C811 0.961 . S
C811 C801 1.510 . S
C811 H809 0.959 . S
C811 H810 0.961 . S
C811 H812 0.960 . S
H812 C811 0.960 . S
H813 N793 0.862 . S
O814 Co782 1.920 . S
O814 C787 1.289 . S
C815 O807 1.258 . S
C815 O808 1.266 . S
Co816 O819 1.970 . S
Co816 N833 1.989 . S
Co816 O841 1.967 . S
Co816 O848 1.920 . S
Co817 O820 1.966 . S
Co817 N826 2.022 . S
Co817 N834 1.993 . S
Co817 O842 1.941 . S
C818 O819 1.258 . S
C818 O820 1.263 . S
O819 Co816 1.970 . S
O819 C818 1.258 . S
O820 Co817 1.966 . S
O820 C818 1.263 . S
C821 O822 1.235 . S
C821 O848 1.289 . S
O822 C821 1.235 . S
C823 C825 1.400 . S
C823 N826 1.351 . S
C823 C828 1.501 . S
C824 C825 1.387 . S
C824 N827 1.341 . S
C825 C823 1.400 . S
C825 C824 1.387 . S
N826 Co817 2.022 . S
N826 C823 1.351 . S
N826 N827 1.365 . S
N827 C824 1.341 . S
N827 N826 1.365 . S
N827 H847 0.862 . S
C828 C823 1.501 . S
C828 H829 0.961 . S
C828 H830 0.961 . S
C828 H831 0.960 . S
H829 C828 0.961 . S
H830 C828 0.961 . S
H831 C828 0.960 . S
C832 N833 1.342 . S
C832 C836 1.401 . S
C832 C837 1.499 . S
N833 Co816 1.989 . S
N833 C832 1.342 . S
N833 N834 1.388 . S
N834 Co817 1.993 . S
N834 N833 1.388 . S
N834 C835 1.346 . S
C835 N834 1.346 . S
C835 C836 1.396 . S
C835 C845 1.510 . S
C836 C832 1.401 . S
C836 C835 1.396 . S
C837 C832 1.499 . S
C837 H838 0.959 . S
C837 H839 0.960 . S
C837 H840 0.961 . S
H838 C837 0.959 . S
H839 C837 0.960 . S
H840 C837 0.961 . S
O841 Co816 1.967 . S
O841 C849 1.258 . S
O842 Co817 1.941 . S
O842 C849 1.266 . S
H843 C845 0.959 . S
H844 C845 0.961 . S
C845 C835 1.510 . S
C845 H843 0.959 . S
C845 H844 0.961 . S
C845 H846 0.960 . S
H846 C845 0.960 . S
H847 N827 0.862 . S
O848 Co816 1.920 . S
O848 C821 1.289 . S
C849 O841 1.258 . S
C849 O842 1.266 . S
Co850 O853 1.970 . S
Co850 N867 1.989 . S
Co850 O875 1.967 . S
Co850 O882 1.920 . S
Co851 O854 1.966 . S
Co851 N860 2.022 . S
Co851 N868 1.993 . S
Co851 O876 1.941 . S
C852 O853 1.258 . S
C852 O854 1.263 . S
O853 Co850 1.970 . S
O853 C852 1.258 . S
O854 Co851 1.966 . S
O854 C852 1.263 . S
C855 O856 1.235 . S
C855 O882 1.289 . S
O856 C855 1.235 . S
C857 C859 1.400 . S
C857 N860 1.351 . S
C857 C862 1.501 . S
C858 C859 1.387 . S
C858 N861 1.341 . S
C859 C857 1.400 . S
C859 C858 1.387 . S
N860 Co851 2.022 . S
N860 C857 1.351 . S
N860 N861 1.365 . S
N861 C858 1.341 . S
N861 N860 1.365 . S
N861 H881 0.862 . S
C862 C857 1.501 . S
C862 H863 0.961 . S
C862 H864 0.961 . S
C862 H865 0.960 . S
H863 C862 0.961 . S
H864 C862 0.961 . S
H865 C862 0.960 . S
C866 N867 1.342 . S
C866 C870 1.401 . S
C866 C871 1.499 . S
N867 Co850 1.989 . S
N867 C866 1.342 . S
N867 N868 1.388 . S
N868 Co851 1.993 . S
N868 N867 1.388 . S
N868 C869 1.346 . S
C869 N868 1.346 . S
C869 C870 1.396 . S
C869 C879 1.510 . S
C870 C866 1.401 . S
C870 C869 1.396 . S
C871 C866 1.499 . S
C871 H872 0.959 . S
C871 H873 0.960 . S
C871 H874 0.961 . S
H872 C871 0.959 . S
H873 C871 0.960 . S
H874 C871 0.961 . S
O875 Co850 1.967 . S
O875 C883 1.258 . S
O876 Co851 1.941 . S
O876 C883 1.266 . S
H877 C879 0.959 . S
H878 C879 0.961 . S
C879 C869 1.510 . S
C879 H877 0.959 . S
C879 H878 0.961 . S
C879 H880 0.960 . S
H880 C879 0.960 . S
H881 N861 0.862 . S
O882 Co850 1.920 . S
O882 C855 1.289 . S
C883 O875 1.258 . S
C883 O876 1.266 . S
Co884 O887 1.970 . S
Co884 N901 1.989 . S
Co884 O909 1.967 . S
Co884 O916 1.920 . S
Co885 O888 1.966 . S
Co885 N894 2.022 . S
Co885 N902 1.993 . S
Co885 O910 1.941 . S
C886 O887 1.258 . S
C886 O888 1.263 . S
O887 Co884 1.970 . S
O887 C886 1.258 . S
O888 Co885 1.966 . S
O888 C886 1.263 . S
C889 O890 1.235 . S
C889 O916 1.289 . S
O890 C889 1.235 . S
C891 C893 1.400 . S
C891 N894 1.351 . S
C891 C896 1.501 . S
C892 C893 1.387 . S
C892 N895 1.341 . S
C893 C891 1.400 . S
C893 C892 1.387 . S
N894 Co885 2.022 . S
N894 C891 1.351 . S
N894 N895 1.365 . S
N895 C892 1.341 . S
N895 N894 1.365 . S
N895 H915 0.862 . S
C896 C891 1.501 . S
C896 H897 0.961 . S
C896 H898 0.961 . S
C896 H899 0.960 . S
H897 C896 0.961 . S
H898 C896 0.961 . S
H899 C896 0.960 . S
C900 N901 1.342 . S
C900 C904 1.401 . S
C900 C905 1.499 . S
N901 Co884 1.989 . S
N901 C900 1.342 . S
N901 N902 1.388 . S
N902 Co885 1.993 . S
N902 N901 1.388 . S
N902 C903 1.346 . S
C903 N902 1.346 . S
C903 C904 1.396 . S
C903 C913 1.510 . S
C904 C900 1.401 . S
C904 C903 1.396 . S
C905 C900 1.499 . S
C905 H906 0.959 . S
C905 H907 0.960 . S
C905 H908 0.961 . S
H906 C905 0.959 . S
H907 C905 0.960 . S
H908 C905 0.961 . S
O909 Co884 1.967 . S
O909 C917 1.258 . S
O910 Co885 1.941 . S
O910 C917 1.266 . S
H911 C913 0.959 . S
H912 C913 0.961 . S
C913 C903 1.510 . S
C913 H911 0.959 . S
C913 H912 0.961 . S
C913 H914 0.960 . S
H914 C913 0.960 . S
H915 N895 0.862 . S
O916 Co884 1.920 . S
O916 C889 1.289 . S
C917 O909 1.258 . S
C917 O910 1.266 . S
Co918 O921 1.970 . S
Co918 N935 1.989 . S
Co918 O943 1.967 . S
Co918 O950 1.920 1_455 S
Co919 O922 1.966 . S
Co919 N928 2.022 . S
Co919 N936 1.993 . S
Co919 O944 1.941 . S
C920 O921 1.258 . S
C920 O922 1.263 . S
O921 Co918 1.970 . S
O921 C920 1.258 . S
O922 Co919 1.966 . S
O922 C920 1.263 . S
C923 O924 1.235 . S
C923 O950 1.289 . S
O924 C923 1.235 . S
C925 C927 1.400 . S
C925 N928 1.351 . S
C925 C930 1.501 . S
C926 C927 1.387 . S
C926 N929 1.341 . S
C927 C925 1.400 . S
C927 C926 1.387 . S
N928 Co919 2.022 . S
N928 C925 1.351 . S
N928 N929 1.365 . S
N929 C926 1.341 . S
N929 N928 1.365 . S
N929 H949 0.862 . S
C930 C925 1.501 . S
C930 H931 0.961 . S
C930 H932 0.961 . S
C930 H933 0.960 . S
H931 C930 0.961 . S
H932 C930 0.961 . S
H933 C930 0.960 . S
C934 N935 1.342 . S
C934 C938 1.401 . S
C934 C939 1.499 1_455 S
N935 Co918 1.989 . S
N935 C934 1.342 . S
N935 N936 1.388 . S
N936 Co919 1.993 . S
N936 N935 1.388 . S
N936 C937 1.346 . S
C937 N936 1.346 . S
C937 C938 1.396 . S
C937 C947 1.510 . S
C938 C934 1.401 . S
C938 C937 1.396 . S
C939 C934 1.499 1_655 S
C939 H940 0.959 . S
C939 H941 0.960 . S
C939 H942 0.961 . S
H940 C939 0.959 . S
H941 C939 0.960 . S
H942 C939 0.961 . S
O943 Co918 1.967 . S
O943 C951 1.258 . S
O944 Co919 1.941 . S
O944 C951 1.266 . S
H945 C947 0.959 . S
H946 C947 0.961 . S
C947 C937 1.510 . S
C947 H945 0.959 . S
C947 H946 0.961 . S
C947 H948 0.960 . S
H948 C947 0.960 . S
H949 N929 0.862 . S
O950 Co918 1.920 1_655 S
O950 C923 1.289 . S
C951 O943 1.258 . S
C951 O944 1.266 . S
Co952 O955 1.970 . S
Co952 N969 1.989 . S
Co952 O977 1.967 . S
Co952 O984 1.920 . S
Co953 O956 1.966 . S
Co953 N962 2.022 . S
Co953 N970 1.993 . S
Co953 O978 1.941 . S
C954 O955 1.258 . S
C954 O956 1.263 . S
O955 Co952 1.970 . S
O955 C954 1.258 . S
O956 Co953 1.966 . S
O956 C954 1.263 . S
C957 O958 1.235 . S
C957 O984 1.289 . S
O958 C957 1.235 . S
C959 C961 1.400 . S
C959 N962 1.351 . S
C959 C964 1.501 . S
C960 C961 1.387 . S
C960 N963 1.341 . S
C961 C959 1.400 . S
C961 C960 1.387 . S
N962 Co953 2.022 . S
N962 C959 1.351 . S
N962 N963 1.365 . S
N963 C960 1.341 . S
N963 N962 1.365 . S
N963 H983 0.862 . S
C964 C959 1.501 . S
C964 H965 0.961 . S
C964 H966 0.961 . S
C964 H967 0.960 . S
H965 C964 0.961 . S
H966 C964 0.961 . S
H967 C964 0.960 . S
C968 N969 1.342 . S
C968 C972 1.401 . S
C968 C973 1.499 . S
N969 Co952 1.989 . S
N969 C968 1.342 . S
N969 N970 1.388 . S
N970 Co953 1.993 . S
N970 N969 1.388 . S
N970 C971 1.346 . S
C971 N970 1.346 . S
C971 C972 1.396 . S
C971 C981 1.510 . S
C972 C968 1.401 . S
C972 C971 1.396 . S
C973 C968 1.499 . S
C973 H974 0.959 . S
C973 H975 0.960 . S
C973 H976 0.961 . S
H974 C973 0.959 . S
H975 C973 0.960 . S
H976 C973 0.961 . S
O977 Co952 1.967 . S
O977 C985 1.258 . S
O978 Co953 1.941 . S
O978 C985 1.266 . S
H979 C981 0.959 . S
H980 C981 0.961 . S
C981 C971 1.510 . S
C981 H979 0.959 . S
C981 H980 0.961 . S
C981 H982 0.960 . S
H982 C981 0.960 . S
H983 N963 0.862 . S
O984 Co952 1.920 . S
O984 C957 1.289 . S
C985 O977 1.258 . S
C985 O978 1.266 . S
Co986 O989 1.970 . S
Co986 N1003 1.989 . S
Co986 O1011 1.967 . S
Co986 O1018 1.920 1_455 S
Co987 O990 1.966 . S
Co987 N996 2.022 . S
Co987 N1004 1.993 . S
Co987 O1012 1.941 . S
C988 O989 1.258 . S
C988 O990 1.263 . S
O989 Co986 1.970 . S
O989 C988 1.258 . S
O990 Co987 1.966 . S
O990 C988 1.263 . S
C991 O992 1.235 . S
C991 O1018 1.289 . S
O992 C991 1.235 . S
C993 C995 1.400 . S
C993 N996 1.351 . S
C993 C998 1.501 . S
C994 C995 1.387 . S
C994 N997 1.341 . S
C995 C993 1.400 . S
C995 C994 1.387 . S
N996 Co987 2.022 . S
N996 C993 1.351 . S
N996 N997 1.365 . S
N997 C994 1.341 . S
N997 N996 1.365 . S
N997 H1017 0.862 . S
C998 C993 1.501 . S
C998 H999 0.961 . S
C998 H1000 0.961 . S
C998 H1001 0.960 . S
H999 C998 0.961 . S
H1000 C998 0.961 . S
H1001 C998 0.960 . S
C1002 N1003 1.342 . S
C1002 C1006 1.401 . S
C1002 C1007 1.499 1_455 S
N1003 Co986 1.989 . S
N1003 C1002 1.342 . S
N1003 N1004 1.388 . S
N1004 Co987 1.993 . S
N1004 N1003 1.388 . S
N1004 C1005 1.346 . S
C1005 N1004 1.346 . S
C1005 C1006 1.396 . S
C1005 C1015 1.510 . S
C1006 C1002 1.401 . S
C1006 C1005 1.396 . S
C1007 C1002 1.499 1_655 S
C1007 H1008 0.959 . S
C1007 H1009 0.960 . S
C1007 H1010 0.961 . S
H1008 C1007 0.959 . S
H1009 C1007 0.960 . S
H1010 C1007 0.961 . S
O1011 Co986 1.967 . S
O1011 C1019 1.258 . S
O1012 Co987 1.941 . S
O1012 C1019 1.266 . S
H1013 C1015 0.959 . S
H1014 C1015 0.961 . S
C1015 C1005 1.510 . S
C1015 H1013 0.959 . S
C1015 H1014 0.961 . S
C1015 H1016 0.960 . S
H1016 C1015 0.960 . S
H1017 N997 0.862 . S
O1018 Co986 1.920 1_655 S
O1018 C991 1.289 . S
C1019 O1011 1.258 . S
C1019 O1012 1.266 . S
Co1020 O1023 1.970 . S
Co1020 N1037 1.989 . S
Co1020 O1045 1.967 . S
Co1020 O1052 1.920 . S
Co1021 O1024 1.966 . S
Co1021 N1030 2.022 . S
Co1021 N1038 1.993 . S
Co1021 O1046 1.941 . S
C1022 O1023 1.258 . S
C1022 O1024 1.263 . S
O1023 Co1020 1.970 . S
O1023 C1022 1.258 . S
O1024 Co1021 1.966 . S
O1024 C1022 1.263 . S
C1025 O1026 1.235 . S
C1025 O1052 1.289 . S
O1026 C1025 1.235 . S
C1027 C1029 1.400 . S
C1027 N1030 1.351 . S
C1027 C1032 1.501 . S
C1028 C1029 1.387 . S
C1028 N1031 1.341 . S
C1029 C1027 1.400 . S
C1029 C1028 1.387 . S
N1030 Co1021 2.022 . S
N1030 C1027 1.351 . S
N1030 N1031 1.365 . S
N1031 C1028 1.341 . S
N1031 N1030 1.365 . S
N1031 H1051 0.862 . S
C1032 C1027 1.501 . S
C1032 H1033 0.961 . S
C1032 H1034 0.961 . S
C1032 H1035 0.960 . S
H1033 C1032 0.961 . S
H1034 C1032 0.961 . S
H1035 C1032 0.960 . S
C1036 N1037 1.342 . S
C1036 C1040 1.401 . S
C1036 C1041 1.499 . S
N1037 Co1020 1.989 . S
N1037 C1036 1.342 . S
N1037 N1038 1.388 . S
N1038 Co1021 1.993 . S
N1038 N1037 1.388 . S
N1038 C1039 1.346 . S
C1039 N1038 1.346 . S
C1039 C1040 1.396 . S
C1039 C1049 1.510 . S
C1040 C1036 1.401 . S
C1040 C1039 1.396 . S
C1041 C1036 1.499 . S
C1041 H1042 0.959 . S
C1041 H1043 0.960 . S
C1041 H1044 0.961 . S
H1042 C1041 0.959 . S
H1043 C1041 0.960 . S
H1044 C1041 0.961 . S
O1045 Co1020 1.967 . S
O1045 C1053 1.258 . S
O1046 Co1021 1.941 . S
O1046 C1053 1.266 . S
H1047 C1049 0.959 . S
H1048 C1049 0.961 . S
C1049 C1039 1.510 . S
C1049 H1047 0.959 . S
C1049 H1048 0.961 . S
C1049 H1050 0.960 . S
H1050 C1049 0.960 . S
H1051 N1031 0.862 . S
O1052 Co1020 1.920 . S
O1052 C1025 1.289 . S
C1053 O1045 1.258 . S
C1053 O1046 1.266 . S
Co1054 O1057 1.970 . S
Co1054 N1071 1.989 . S
Co1054 O1079 1.967 . S
Co1054 O1086 1.920 . S
Co1055 O1058 1.966 . S
Co1055 N1064 2.022 . S
Co1055 N1072 1.993 . S
Co1055 O1080 1.941 . S
C1056 O1057 1.258 . S
C1056 O1058 1.263 . S
O1057 Co1054 1.970 . S
O1057 C1056 1.258 . S
O1058 Co1055 1.966 . S
O1058 C1056 1.263 . S
C1059 O1060 1.235 . S
C1059 O1086 1.289 . S
O1060 C1059 1.235 . S
C1061 C1063 1.400 . S
C1061 N1064 1.351 . S
C1061 C1066 1.501 . S
C1062 C1063 1.387 . S
C1062 N1065 1.341 . S
C1063 C1061 1.400 . S
C1063 C1062 1.387 . S
N1064 Co1055 2.022 . S
N1064 C1061 1.351 . S
N1064 N1065 1.365 . S
N1065 C1062 1.341 . S
N1065 N1064 1.365 . S
N1065 H1085 0.862 . S
C1066 C1061 1.501 . S
C1066 H1067 0.961 . S
C1066 H1068 0.961 . S
C1066 H1069 0.960 . S
H1067 C1066 0.961 . S
H1068 C1066 0.961 . S
H1069 C1066 0.960 . S
C1070 N1071 1.342 . S
C1070 C1074 1.401 . S
C1070 C1075 1.499 . S
N1071 Co1054 1.989 . S
N1071 C1070 1.342 . S
N1071 N1072 1.388 . S
N1072 Co1055 1.993 . S
N1072 N1071 1.388 . S
N1072 C1073 1.346 . S
C1073 N1072 1.346 . S
C1073 C1074 1.396 . S
C1073 C1083 1.510 . S
C1074 C1070 1.401 . S
C1074 C1073 1.396 . S
C1075 C1070 1.499 . S
C1075 H1076 0.959 . S
C1075 H1077 0.960 . S
C1075 H1078 0.961 . S
H1076 C1075 0.959 . S
H1077 C1075 0.960 . S
H1078 C1075 0.961 . S
O1079 Co1054 1.967 . S
O1079 C1087 1.258 . S
O1080 Co1055 1.941 . S
O1080 C1087 1.266 . S
H1081 C1083 0.959 . S
H1082 C1083 0.961 . S
C1083 C1073 1.510 . S
C1083 H1081 0.959 . S
C1083 H1082 0.961 . S
C1083 H1084 0.960 . S
H1084 C1083 0.960 . S
H1085 N1065 0.862 . S
O1086 Co1054 1.920 . S
O1086 C1059 1.289 . S
C1087 O1079 1.258 . S
C1087 O1080 1.266 . S
C1088 C1089 1.387 . S
C1088 H1092 0.950 . S
C1088 C1097 1.390 . S
C1089 C1088 1.387 . S
C1089 C1091 1.387 . S
H1090 C1097 0.950 . S
C1091 C1089 1.387 . S
C1091 C1093 1.390 . S
C1091 H1095 0.950 . S
H1092 C1088 0.950 . S
C1093 C1091 1.390 . S
C1093 C1094 1.387 . S
C1093 H1096 0.950 . S
C1094 C1093 1.387 . S
C1094 C1097 1.387 . S
H1095 C1091 0.950 . S
H1096 C1093 0.950 . S
C1097 C1088 1.390 . S
C1097 H1090 0.950 . S
C1097 C1094 1.387 . S
C1098 C1099 1.387 . S
C1098 H1102 0.950 . S
C1098 C1107 1.390 . S
C1099 C1098 1.387 . S
C1099 C1101 1.387 . S
H1100 C1107 0.950 . S
C1101 C1099 1.387 . S
C1101 C1103 1.390 . S
C1101 H1105 0.950 . S
H1102 C1098 0.950 . S
C1103 C1101 1.390 . S
C1103 C1104 1.387 . S
C1103 H1106 0.950 . S
C1104 C1103 1.387 . S
C1104 C1107 1.387 . S
H1105 C1101 0.950 . S
H1106 C1103 0.950 . S
C1107 C1098 1.390 . S
C1107 H1100 0.950 . S
C1107 C1104 1.387 . S
C1108 C1109 1.387 . S
C1108 H1112 0.950 . S
C1108 C1117 1.390 . S
C1109 C1108 1.387 . S
C1109 C1111 1.387 . S
H1110 C1117 0.950 . S
C1111 C1109 1.387 . S
C1111 C1113 1.390 . S
C1111 H1115 0.950 . S
H1112 C1108 0.950 . S
C1113 C1111 1.390 . S
C1113 C1114 1.387 . S
C1113 H1116 0.950 . S
C1114 C1113 1.387 . S
C1114 C1117 1.387 . S
H1115 C1111 0.950 . S
H1116 C1113 0.950 . S
C1117 C1108 1.390 . S
C1117 H1110 0.950 . S
C1117 C1114 1.387 . S
C1118 C1119 1.387 . S
C1118 H1122 0.950 . S
C1118 C1127 1.390 . S
C1119 C1118 1.387 . S
C1119 C1121 1.387 . S
H1120 C1127 0.950 . S
C1121 C1119 1.387 . S
C1121 C1123 1.390 . S
C1121 H1125 0.950 . S
H1122 C1118 0.950 . S
C1123 C1121 1.390 . S
C1123 C1124 1.387 . S
C1123 H1126 0.950 . S
C1124 C1123 1.387 . S
C1124 C1127 1.387 . S
H1125 C1121 0.950 . S
H1126 C1123 0.950 . S
C1127 C1118 1.390 . S
C1127 H1120 0.950 . S
C1127 C1124 1.387 . S
C1128 C1129 1.387 . S
C1128 H1132 0.950 . S
C1128 C1137 1.390 . S
C1129 C1128 1.387 . S
C1129 C1131 1.387 . S
H1130 C1137 0.950 . S
C1131 C1129 1.387 . S
C1131 C1133 1.390 . S
C1131 H1135 0.950 . S
H1132 C1128 0.950 . S
C1133 C1131 1.390 . S
C1133 C1134 1.387 . S
C1133 H1136 0.950 . S
C1134 C1133 1.387 . S
C1134 C1137 1.387 . S
H1135 C1131 0.950 . S
H1136 C1133 0.950 . S
C1137 C1128 1.390 . S
C1137 H1130 0.950 . S
C1137 C1134 1.387 . S
C1138 C1139 1.387 . S
C1138 H1142 0.950 . S
C1138 C1147 1.390 . S
C1139 C1138 1.387 . S
C1139 C1141 1.387 . S
H1140 C1147 0.950 . S
C1141 C1139 1.387 . S
C1141 C1143 1.390 . S
C1141 H1145 0.950 . S
H1142 C1138 0.950 . S
C1143 C1141 1.390 . S
C1143 C1144 1.387 . S
C1143 H1146 0.950 . S
C1144 C1143 1.387 . S
C1144 C1147 1.387 . S
H1145 C1141 0.950 . S
H1146 C1143 0.950 . S
C1147 C1138 1.390 . S
C1147 H1140 0.950 . S
C1147 C1144 1.387 . S
C1148 C1149 1.387 . S
C1148 H1152 0.950 . S
C1148 C1157 1.390 . S
C1149 C1148 1.387 . S
C1149 C1151 1.387 . S
H1150 C1157 0.950 . S
C1151 C1149 1.387 . S
C1151 C1153 1.390 . S
C1151 H1155 0.950 . S
H1152 C1148 0.950 . S
C1153 C1151 1.390 . S
C1153 C1154 1.387 . S
C1153 H1156 0.950 . S
C1154 C1153 1.387 . S
C1154 C1157 1.387 . S
H1155 C1151 0.950 . S
H1156 C1153 0.950 . S
C1157 C1148 1.390 . S
C1157 H1150 0.950 . S
C1157 C1154 1.387 . S
C1158 C1159 1.387 . S
C1158 H1162 0.950 . S
C1158 C1167 1.390 . S
C1159 C1158 1.387 . S
C1159 C1161 1.387 . S
H1160 C1167 0.950 . S
C1161 C1159 1.387 . S
C1161 C1163 1.390 . S
C1161 H1165 0.950 . S
H1162 C1158 0.950 . S
C1163 C1161 1.390 . S
C1163 C1164 1.387 . S
C1163 H1166 0.950 . S
C1164 C1163 1.387 . S
C1164 C1167 1.387 . S
H1165 C1161 0.950 . S
H1166 C1163 0.950 . S
C1167 C1158 1.390 . S
C1167 H1160 0.950 . S
C1167 C1164 1.387 . S
C1168 C1169 1.387 . S
C1168 H1172 0.950 . S
C1168 C1177 1.390 . S
C1169 C1168 1.387 . S
C1169 C1171 1.387 . S
H1170 C1177 0.950 . S
C1171 C1169 1.387 . S
C1171 C1173 1.390 . S
C1171 H1175 0.950 . S
H1172 C1168 0.950 . S
C1173 C1171 1.390 . S
C1173 C1174 1.387 . S
C1173 H1176 0.950 . S
C1174 C1173 1.387 . S
C1174 C1177 1.387 . S
H1175 C1171 0.950 . S
H1176 C1173 0.950 . S
C1177 C1168 1.390 . S
C1177 H1170 0.950 . S
C1177 C1174 1.387 . S
C1178 C1179 1.387 . S
C1178 H1182 0.950 . S
C1178 C1187 1.390 . S
C1179 C1178 1.387 . S
C1179 C1181 1.387 . S
H1180 C1187 0.950 . S
C1181 C1179 1.387 . S
C1181 C1183 1.390 . S
C1181 H1185 0.950 . S
H1182 C1178 0.950 . S
C1183 C1181 1.390 . S
C1183 C1184 1.387 . S
C1183 H1186 0.950 . S
C1184 C1183 1.387 . S
C1184 C1187 1.387 . S
H1185 C1181 0.950 . S
H1186 C1183 0.950 . S
C1187 C1178 1.390 . S
C1187 H1180 0.950 . S
C1187 C1184 1.387 . S
C1188 C1189 1.387 . S
C1188 H1192 0.950 . S
C1188 C1197 1.390 . S
C1189 C1188 1.387 . S
C1189 C1191 1.387 . S
H1190 C1197 0.950 . S
C1191 C1189 1.387 . S
C1191 C1193 1.390 . S
C1191 H1195 0.950 . S
H1192 C1188 0.950 . S
C1193 C1191 1.390 . S
C1193 C1194 1.387 . S
C1193 H1196 0.950 . S
C1194 C1193 1.387 . S
C1194 C1197 1.387 . S
H1195 C1191 0.950 . S
H1196 C1193 0.950 . S
C1197 C1188 1.390 . S
C1197 H1190 0.950 . S
C1197 C1194 1.387 . S
C1198 C1199 1.387 . S
C1198 H1202 0.950 . S
C1198 C1207 1.390 . S
C1199 C1198 1.387 . S
C1199 C1201 1.387 . S
H1200 C1207 0.950 . S
C1201 C1199 1.387 . S
C1201 C1203 1.390 . S
C1201 H1205 0.950 . S
H1202 C1198 0.950 . S
C1203 C1201 1.390 . S
C1203 C1204 1.387 . S
C1203 H1206 0.950 . S
C1204 C1203 1.387 . S
C1204 C1207 1.387 . S
H1205 C1201 0.950 . S
H1206 C1203 0.950 . S
C1207 C1198 1.390 . S
C1207 H1200 0.950 . S
C1207 C1204 1.387 . S
C1208 C1209 1.387 . S
C1208 H1212 0.950 . S
C1208 C1217 1.390 . S
C1209 C1208 1.387 . S
C1209 C1211 1.387 . S
H1210 C1217 0.950 . S
C1211 C1209 1.387 . S
C1211 C1213 1.390 . S
C1211 H1215 0.950 . S
H1212 C1208 0.950 . S
C1213 C1211 1.390 . S
C1213 C1214 1.387 . S
C1213 H1216 0.950 . S
C1214 C1213 1.387 . S
C1214 C1217 1.387 . S
H1215 C1211 0.950 . S
H1216 C1213 0.950 . S
C1217 C1208 1.390 . S
C1217 H1210 0.950 . S
C1217 C1214 1.387 . S
C1218 C1219 1.387 . S
C1218 H1222 0.950 . S
C1218 C1227 1.390 . S
C1219 C1218 1.387 . S
C1219 C1221 1.387 . S
H1220 C1227 0.950 . S
C1221 C1219 1.387 . S
C1221 C1223 1.390 . S
C1221 H1225 0.950 . S
H1222 C1218 0.950 . S
C1223 C1221 1.390 . S
C1223 C1224 1.387 . S
C1223 H1226 0.950 . S
C1224 C1223 1.387 . S
C1224 C1227 1.387 . S
H1225 C1221 0.950 . S
H1226 C1223 0.950 . S
C1227 C1218 1.390 . S
C1227 H1220 0.950 . S
C1227 C1224 1.387 . S
C1228 C1229 1.387 . S
C1228 H1232 0.950 . S
C1228 C1237 1.390 . S
C1229 C1228 1.387 . S
C1229 C1231 1.387 . S
H1230 C1237 0.950 . S
C1231 C1229 1.387 . S
C1231 C1233 1.390 . S
C1231 H1235 0.950 . S
H1232 C1228 0.950 . S
C1233 C1231 1.390 . S
C1233 C1234 1.387 . S
C1233 H1236 0.950 . S
C1234 C1233 1.387 . S
C1234 C1237 1.387 . S
H1235 C1231 0.950 . S
H1236 C1233 0.950 . S
C1237 C1228 1.390 . S
C1237 H1230 0.950 . S
C1237 C1234 1.387 . S
C1238 C1239 1.387 . S
C1238 H1242 0.950 . S
C1238 C1247 1.390 . S
C1239 C1238 1.387 . S
C1239 C1241 1.387 . S
H1240 C1247 0.950 . S
C1241 C1239 1.387 . S
C1241 C1243 1.390 . S
C1241 H1245 0.950 . S
H1242 C1238 0.950 . S
C1243 C1241 1.390 . S
C1243 C1244 1.387 . S
C1243 H1246 0.950 . S
C1244 C1243 1.387 . S
C1244 C1247 1.387 . S
H1245 C1241 0.950 . S
H1246 C1243 0.950 . S
C1247 C1238 1.390 . S
C1247 H1240 0.950 . S
C1247 C1244 1.387 . S
C1248 C1249 1.387 . S
C1248 H1252 0.950 . S
C1248 C1257 1.390 1_556 S
C1249 C1248 1.387 . S
C1249 C1251 1.387 . S
H1250 C1257 0.950 . S
C1251 C1249 1.387 . S
C1251 C1253 1.390 1_556 S
C1251 H1255 0.950 . S
H1252 C1248 0.950 . S
C1253 C1251 1.390 1_554 S
C1253 C1254 1.387 . S
C1253 H1256 0.950 . S
C1254 C1253 1.387 . S
C1254 C1257 1.387 . S
H1255 C1251 0.950 . S
H1256 C1253 0.950 . S
C1257 C1248 1.390 1_554 S
C1257 H1250 0.950 . S
C1257 C1254 1.387 . S
C1258 C1259 1.387 . S
C1258 H1262 0.950 1_455 S
C1258 C1267 1.390 1_545 S
C1259 C1258 1.387 . S
C1259 C1261 1.387 . S
H1260 C1267 0.950 1_655 S
C1261 C1259 1.387 . S
C1261 C1263 1.390 1_545 S
C1261 H1265 0.950 . S
H1262 C1258 0.950 1_655 S
C1263 C1261 1.390 1_565 S
C1263 C1264 1.387 . S
C1263 H1266 0.950 . S
C1264 C1263 1.387 . S
C1264 C1267 1.387 . S
H1265 C1261 0.950 . S
H1266 C1263 0.950 . S
C1267 C1258 1.390 1_565 S
C1267 H1260 0.950 1_455 S
C1267 C1264 1.387 . S
C1268 C1269 1.387 . S
C1268 H1272 0.950 . S
C1268 C1277 1.390 . S
C1269 C1268 1.387 . S
C1269 C1271 1.387 . S
H1270 C1277 0.950 . S
C1271 C1269 1.387 . S
C1271 C1273 1.390 . S
C1271 H1275 0.950 . S
H1272 C1268 0.950 . S
C1273 C1271 1.390 . S
C1273 C1274 1.387 . S
C1273 H1276 0.950 . S
C1274 C1273 1.387 . S
C1274 C1277 1.387 . S
H1275 C1271 0.950 . S
H1276 C1273 0.950 . S
C1277 C1268 1.390 . S
C1277 H1270 0.950 . S
C1277 C1274 1.387 . S
C1278 C1279 1.387 . S
C1278 H1282 0.950 . S
C1278 C1287 1.390 1_565 S
C1279 C1278 1.387 . S
C1279 C1281 1.387 . S
H1280 C1287 0.950 . S
C1281 C1279 1.387 . S
C1281 C1283 1.390 1_565 S
C1281 H1285 0.950 . S
H1282 C1278 0.950 . S
C1283 C1281 1.390 1_545 S
C1283 C1284 1.387 . S
C1283 H1286 0.950 . S
C1284 C1283 1.387 . S
C1284 C1287 1.387 . S
H1285 C1281 0.950 . S
H1286 C1283 0.950 . S
C1287 C1278 1.390 1_545 S
C1287 H1280 0.950 . S
C1287 C1284 1.387 . S
C1288 C1289 1.387 . S
C1288 H1292 0.950 . S
C1288 C1297 1.390 1_556 S
C1289 C1288 1.387 . S
C1289 C1291 1.387 . S
H1290 C1297 0.950 . S
C1291 C1289 1.387 . S
C1291 C1293 1.390 1_556 S
C1291 H1295 0.950 . S
H1292 C1288 0.950 . S
C1293 C1291 1.390 1_554 S
C1293 C1294 1.387 . S
C1293 H1296 0.950 . S
C1294 C1293 1.387 . S
C1294 C1297 1.387 . S
H1295 C1291 0.950 . S
H1296 C1293 0.950 . S
C1297 C1288 1.390 1_554 S
C1297 H1290 0.950 . S
C1297 C1294 1.387 . S
C1298 C1299 1.387 . S
C1298 H1302 0.950 . S
C1298 C1307 1.390 1_545 S
C1299 C1298 1.387 . S
C1299 C1301 1.387 . S
H1300 C1307 0.950 . S
C1301 C1299 1.387 . S
C1301 C1303 1.390 1_545 S
C1301 H1305 0.950 1_655 S
H1302 C1298 0.950 . S
C1303 C1301 1.390 1_565 S
C1303 C1304 1.387 . S
C1303 H1306 0.950 1_655 S
C1304 C1303 1.387 . S
C1304 C1307 1.387 . S
H1305 C1301 0.950 1_455 S
H1306 C1303 0.950 1_455 S
C1307 C1298 1.390 1_565 S
C1307 H1300 0.950 . S
C1307 C1304 1.387 . S
C1308 C1309 1.387 . S
C1308 H1312 0.950 . S
C1308 C1317 1.390 . S
C1309 C1308 1.387 . S
C1309 C1311 1.387 . S
H1310 C1317 0.950 . S
C1311 C1309 1.387 . S
C1311 C1313 1.390 . S
C1311 H1315 0.950 . S
H1312 C1308 0.950 . S
C1313 C1311 1.390 . S
C1313 C1314 1.387 . S
C1313 H1316 0.950 . S
C1314 C1313 1.387 . S
C1314 C1317 1.387 . S
H1315 C1311 0.950 . S
H1316 C1313 0.950 . S
C1317 C1308 1.390 . S
C1317 H1310 0.950 . S
C1317 C1314 1.387 . S
C1318 C1319 1.387 . S
C1318 H1322 0.950 . S
C1318 C1327 1.390 1_565 S
C1319 C1318 1.387 . S
C1319 C1321 1.387 . S
H1320 C1327 0.950 . S
C1321 C1319 1.387 . S
C1321 C1323 1.390 1_565 S
C1321 H1325 0.950 . S
H1322 C1318 0.950 . S
C1323 C1321 1.390 1_545 S
C1323 C1324 1.387 . S
C1323 H1326 0.950 . S
C1324 C1323 1.387 . S
C1324 C1327 1.387 . S
H1325 C1321 0.950 . S
H1326 C1323 0.950 . S
C1327 C1318 1.390 1_545 S
C1327 H1320 0.950 . S
C1327 C1324 1.387 . S
C1328 C1329 1.387 . S
C1328 H1332 0.950 . S
C1328 C1337 1.390 . S
C1329 C1328 1.387 . S
C1329 C1331 1.387 . S
H1330 C1337 0.950 . S
C1331 C1329 1.387 . S
C1331 C1333 1.390 . S
C1331 H1335 0.950 . S
H1332 C1328 0.950 . S
C1333 C1331 1.390 . S
C1333 C1334 1.387 . S
C1333 H1336 0.950 . S
C1334 C1333 1.387 . S
C1334 C1337 1.387 . S
H1335 C1331 0.950 . S
H1336 C1333 0.950 . S
C1337 C1328 1.390 . S
C1337 H1330 0.950 . S
C1337 C1334 1.387 . S
C1338 C1339 1.387 . S
C1338 H1342 0.950 . S
C1338 C1347 1.390 . S
C1339 C1338 1.387 . S
C1339 C1341 1.387 . S
H1340 C1347 0.950 . S
C1341 C1339 1.387 . S
C1341 C1343 1.390 . S
C1341 H1345 0.950 . S
H1342 C1338 0.950 . S
C1343 C1341 1.390 . S
C1343 C1344 1.387 . S
C1343 H1346 0.950 . S
C1344 C1343 1.387 . S
C1344 C1347 1.387 . S
H1345 C1341 0.950 . S
H1346 C1343 0.950 . S
C1347 C1338 1.390 . S
C1347 H1340 0.950 . S
C1347 C1344 1.387 . S
C1348 C1349 1.387 . S
C1348 H1352 0.950 . S
C1348 C1357 1.390 1_556 S
C1349 C1348 1.387 . S
C1349 C1351 1.387 . S
H1350 C1357 0.950 . S
C1351 C1349 1.387 . S
C1351 C1353 1.390 1_556 S
C1351 H1355 0.950 . S
H1352 C1348 0.950 . S
C1353 C1351 1.390 1_554 S
C1353 C1354 1.387 . S
C1353 H1356 0.950 . S
C1354 C1353 1.387 . S
C1354 C1357 1.387 . S
H1355 C1351 0.950 . S
H1356 C1353 0.950 . S
C1357 C1348 1.390 1_554 S
C1357 H1350 0.950 . S
C1357 C1354 1.387 . S
C1358 C1359 1.387 . S
C1358 H1362 0.950 1_655 S
C1358 C1367 1.390 . S
C1359 C1358 1.387 . S
C1359 C1361 1.387 . S
H1360 C1367 0.950 1_455 S
C1361 C1359 1.387 . S
C1361 C1363 1.390 . S
C1361 H1365 0.950 . S
H1362 C1358 0.950 1_455 S
C1363 C1361 1.390 . S
C1363 C1364 1.387 . S
C1363 H1366 0.950 . S
C1364 C1363 1.387 . S
C1364 C1367 1.387 . S
H1365 C1361 0.950 . S
H1366 C1363 0.950 . S
C1367 C1358 1.390 . S
C1367 H1360 0.950 1_655 S
C1367 C1364 1.387 . S
C1368 C1369 1.387 . S
C1368 H1372 0.950 . S
C1368 C1377 1.390 . S
C1369 C1368 1.387 . S
C1369 C1371 1.387 . S
H1370 C1377 0.950 . S
C1371 C1369 1.387 . S
C1371 C1373 1.390 . S
C1371 H1375 0.950 . S
H1372 C1368 0.950 . S
C1373 C1371 1.390 . S
C1373 C1374 1.387 . S
C1373 H1376 0.950 . S
C1374 C1373 1.387 . S
C1374 C1377 1.387 . S
H1375 C1371 0.950 . S
H1376 C1373 0.950 . S
C1377 C1368 1.390 . S
C1377 H1370 0.950 . S
C1377 C1374 1.387 . S
C1378 C1379 1.387 . S
C1378 H1382 0.950 . S
C1378 C1387 1.390 . S
C1379 C1378 1.387 . S
C1379 C1381 1.387 . S
H1380 C1387 0.950 . S
C1381 C1379 1.387 . S
C1381 C1383 1.390 . S
C1381 H1385 0.950 . S
H1382 C1378 0.950 . S
C1383 C1381 1.390 . S
C1383 C1384 1.387 . S
C1383 H1386 0.950 . S
C1384 C1383 1.387 . S
C1384 C1387 1.387 . S
H1385 C1381 0.950 . S
H1386 C1383 0.950 . S
C1387 C1378 1.390 . S
C1387 H1380 0.950 . S
C1387 C1384 1.387 . S
C1388 C1389 1.387 . S
C1388 H1392 0.950 . S
C1388 C1397 1.390 1_554 S
C1389 C1388 1.387 . S
C1389 C1391 1.387 . S
H1390 C1397 0.950 . S
C1391 C1389 1.387 . S
C1391 C1393 1.390 1_554 S
C1391 H1395 0.950 . S
H1392 C1388 0.950 . S
C1393 C1391 1.390 1_556 S
C1393 C1394 1.387 . S
C1393 H1396 0.950 . S
C1394 C1393 1.387 . S
C1394 C1397 1.387 . S
H1395 C1391 0.950 . S
H1396 C1393 0.950 . S
C1397 C1388 1.390 1_556 S
C1397 H1390 0.950 . S
C1397 C1394 1.387 . S
C1398 C1399 1.387 . S
C1398 H1402 0.950 . S
C1398 C1407 1.390 . S
C1399 C1398 1.387 . S
C1399 C1401 1.387 . S
H1400 C1407 0.950 . S
C1401 C1399 1.387 . S
C1401 C1403 1.390 . S
C1401 H1405 0.950 1_455 S
H1402 C1398 0.950 . S
C1403 C1401 1.390 . S
C1403 C1404 1.387 . S
C1403 H1406 0.950 1_455 S
C1404 C1403 1.387 . S
C1404 C1407 1.387 . S
H1405 C1401 0.950 1_655 S
H1406 C1403 0.950 1_655 S
C1407 C1398 1.390 . S
C1407 H1400 0.950 . S
C1407 C1404 1.387 . S
C1408 C1409 1.387 . S
C1408 H1412 0.950 . S
C1408 C1417 1.390 . S
C1409 C1408 1.387 . S
C1409 C1411 1.387 . S
H1410 C1417 0.950 . S
C1411 C1409 1.387 . S
C1411 C1413 1.390 . S
C1411 H1415 0.950 . S
H1412 C1408 0.950 . S
C1413 C1411 1.390 . S
C1413 C1414 1.387 . S
C1413 H1416 0.950 . S
C1414 C1413 1.387 . S
C1414 C1417 1.387 . S
H1415 C1411 0.950 . S
H1416 C1413 0.950 . S
C1417 C1408 1.390 . S
C1417 H1410 0.950 . S
C1417 C1414 1.387 . S
C1418 C1419 1.387 1_565 S
C1418 H1422 0.950 . S
C1418 C1427 1.390 . S
C1419 C1418 1.387 1_545 S
C1419 C1421 1.387 . S
H1420 C1427 0.950 . S
C1421 C1419 1.387 . S
C1421 C1423 1.390 . S
C1421 H1425 0.950 . S
H1422 C1418 0.950 . S
C1423 C1421 1.390 . S
C1423 C1424 1.387 . S
C1423 H1426 0.950 . S
C1424 C1423 1.387 . S
C1424 C1427 1.387 1_545 S
H1425 C1421 0.950 . S
H1426 C1423 0.950 . S
C1427 C1418 1.390 . S
C1427 H1420 0.950 . S
C1427 C1424 1.387 1_565 S
C1428 C1429 1.387 . S
C1428 H1432 0.950 . S
C1428 C1437 1.390 . S
C1429 C1428 1.387 . S
C1429 C1431 1.387 . S
H1430 C1437 0.950 . S
C1431 C1429 1.387 . S
C1431 C1433 1.390 . S
C1431 H1435 0.950 . S
H1432 C1428 0.950 . S
C1433 C1431 1.390 . S
C1433 C1434 1.387 . S
C1433 H1436 0.950 . S
C1434 C1433 1.387 . S
C1434 C1437 1.387 . S
H1435 C1431 0.950 . S
H1436 C1433 0.950 . S
C1437 C1428 1.390 . S
C1437 H1430 0.950 . S
C1437 C1434 1.387 . S
C1438 C1439 1.387 . S
C1438 H1442 0.950 . S
C1438 C1447 1.390 . S
C1439 C1438 1.387 . S
C1439 C1441 1.387 1_565 S
H1440 C1447 0.950 . S
C1441 C1439 1.387 1_545 S
C1441 C1443 1.390 . S
C1441 H1445 0.950 . S
H1442 C1438 0.950 . S
C1443 C1441 1.390 . S
C1443 C1444 1.387 1_545 S
C1443 H1446 0.950 . S
C1444 C1443 1.387 1_565 S
C1444 C1447 1.387 . S
H1445 C1441 0.950 . S
H1446 C1443 0.950 . S
C1447 C1438 1.390 . S
C1447 H1440 0.950 . S
C1447 C1444 1.387 . S
C1448 C1449 1.387 . S
C1448 H1452 0.950 . S
C1448 C1457 1.390 . S
C1449 C1448 1.387 . S
C1449 C1451 1.387 . S
H1450 C1457 0.950 . S
C1451 C1449 1.387 . S
C1451 C1453 1.390 . S
C1451 H1455 0.950 . S
H1452 C1448 0.950 . S
C1453 C1451 1.390 . S
C1453 C1454 1.387 . S
C1453 H1456 0.950 . S
C1454 C1453 1.387 . S
C1454 C1457 1.387 . S
H1455 C1451 0.950 . S
H1456 C1453 0.950 . S
C1457 C1448 1.390 . S
C1457 H1450 0.950 . S
C1457 C1454 1.387 . S
C1458 C1459 1.387 1_565 S
C1458 H1462 0.950 . S
C1458 C1467 1.390 . S
C1459 C1458 1.387 1_545 S
C1459 C1461 1.387 . S
H1460 C1467 0.950 . S
C1461 C1459 1.387 . S
C1461 C1463 1.390 . S
C1461 H1465 0.950 . S
H1462 C1458 0.950 . S
C1463 C1461 1.390 . S
C1463 C1464 1.387 . S
C1463 H1466 0.950 . S
C1464 C1463 1.387 . S
C1464 C1467 1.387 1_545 S
H1465 C1461 0.950 . S
H1466 C1463 0.950 . S
C1467 C1458 1.390 . S
C1467 H1460 0.950 . S
C1467 C1464 1.387 1_565 S
C1468 C1469 1.387 . S
C1468 H1472 0.950 . S
C1468 C1477 1.390 . S
C1469 C1468 1.387 . S
C1469 C1471 1.387 . S
H1470 C1477 0.950 . S
C1471 C1469 1.387 . S
C1471 C1473 1.390 . S
C1471 H1475 0.950 . S
H1472 C1468 0.950 . S
C1473 C1471 1.390 . S
C1473 C1474 1.387 . S
C1473 H1476 0.950 . S
C1474 C1473 1.387 . S
C1474 C1477 1.387 . S
H1475 C1471 0.950 . S
H1476 C1473 0.950 . S
C1477 C1468 1.390 . S
C1477 H1470 0.950 . S
C1477 C1474 1.387 . S
C1478 C1479 1.387 1_545 S
C1478 H1482 0.950 . S
C1478 C1487 1.390 . S
C1479 C1478 1.387 1_565 S
C1479 C1481 1.387 . S
H1480 C1487 0.950 . S
C1481 C1479 1.387 . S
C1481 C1483 1.390 . S
C1481 H1485 0.950 . S
H1482 C1478 0.950 . S
C1483 C1481 1.390 . S
C1483 C1484 1.387 . S
C1483 H1486 0.950 . S
C1484 C1483 1.387 . S
C1484 C1487 1.387 1_565 S
H1485 C1481 0.950 . S
H1486 C1483 0.950 . S
C1487 C1478 1.390 . S
C1487 H1480 0.950 . S
C1487 C1484 1.387 1_545 S
C1488 C1489 1.387 . S
C1488 H1492 0.950 . S
C1488 C1497 1.390 . S
C1489 C1488 1.387 . S
C1489 C1491 1.387 . S
H1490 C1497 0.950 . S
C1491 C1489 1.387 . S
C1491 C1493 1.390 . S
C1491 H1495 0.950 . S
H1492 C1488 0.950 . S
C1493 C1491 1.390 . S
C1493 C1494 1.387 . S
C1493 H1496 0.950 . S
C1494 C1493 1.387 . S
C1494 C1497 1.387 . S
H1495 C1491 0.950 . S
H1496 C1493 0.950 . S
C1497 C1488 1.390 . S
C1497 H1490 0.950 . S
C1497 C1494 1.387 . S
C1498 C1499 1.387 1_545 S
C1498 H1502 0.950 . S
C1498 C1507 1.390 . S
C1499 C1498 1.387 1_565 S
C1499 C1501 1.387 . S
H1500 C1507 0.950 . S
C1501 C1499 1.387 . S
C1501 C1503 1.390 . S
C1501 H1505 0.950 . S
H1502 C1498 0.950 . S
C1503 C1501 1.390 . S
C1503 C1504 1.387 . S
C1503 H1506 0.950 . S
C1504 C1503 1.387 . S
C1504 C1507 1.387 1_565 S
H1505 C1501 0.950 . S
H1506 C1503 0.950 . S
C1507 C1498 1.390 . S
C1507 H1500 0.950 . S
C1507 C1504 1.387 1_545 S
C1508 C1509 1.387 . S
C1508 H1512 0.950 . S
C1508 C1517 1.390 . S
C1509 C1508 1.387 . S
C1509 C1511 1.387 . S
H1510 C1517 0.950 . S
C1511 C1509 1.387 . S
C1511 C1513 1.390 . S
C1511 H1515 0.950 . S
H1512 C1508 0.950 . S
C1513 C1511 1.390 . S
C1513 C1514 1.387 . S
C1513 H1516 0.950 . S
C1514 C1513 1.387 . S
C1514 C1517 1.387 . S
H1515 C1511 0.950 . S
H1516 C1513 0.950 . S
C1517 C1508 1.390 . S
C1517 H1510 0.950 . S
C1517 C1514 1.387 . S
C1518 C1519 1.387 . S
C1518 H1522 0.950 . S
C1518 C1527 1.390 . S
C1519 C1518 1.387 . S
C1519 C1521 1.387 1_545 S
H1520 C1527 0.950 . S
C1521 C1519 1.387 1_565 S
C1521 C1523 1.390 . S
C1521 H1525 0.950 . S
H1522 C1518 0.950 . S
C1523 C1521 1.390 . S
C1523 C1524 1.387 1_565 S
C1523 H1526 0.950 . S
C1524 C1523 1.387 1_545 S
C1524 C1527 1.387 . S
H1525 C1521 0.950 . S
H1526 C1523 0.950 . S
C1527 C1518 1.390 . S
C1527 H1520 0.950 . S
C1527 C1524 1.387 . S
C1528 C1529 1.387 . S
C1528 H1532 0.950 . S
C1528 C1537 1.390 . S
C1529 C1528 1.387 . S
C1529 C1531 1.387 . S
H1530 C1537 0.950 . S
C1531 C1529 1.387 . S
C1531 C1533 1.390 . S
C1531 H1535 0.950 . S
H1532 C1528 0.950 . S
C1533 C1531 1.390 . S
C1533 C1534 1.387 . S
C1533 H1536 0.950 . S
C1534 C1533 1.387 . S
C1534 C1537 1.387 . S
H1535 C1531 0.950 . S
H1536 C1533 0.950 . S
C1537 C1528 1.390 . S
C1537 H1530 0.950 . S
C1537 C1534 1.387 . S
C1538 C1539 1.387 1_545 S
C1538 H1542 0.950 . S
C1538 C1547 1.390 . S
C1539 C1538 1.387 1_565 S
C1539 C1541 1.387 . S
H1540 C1547 0.950 . S
C1541 C1539 1.387 . S
C1541 C1543 1.390 . S
C1541 H1545 0.950 . S
H1542 C1538 0.950 . S
C1543 C1541 1.390 . S
C1543 C1544 1.387 . S
C1543 H1546 0.950 . S
C1544 C1543 1.387 . S
C1544 C1547 1.387 1_565 S
H1545 C1541 0.950 . S
H1546 C1543 0.950 . S
C1547 C1538 1.390 . S
C1547 H1540 0.950 . S
C1547 C1544 1.387 1_545 S
C1548 C1549 1.387 . S
C1548 H1552 0.950 . S
C1548 C1557 1.390 . S
C1549 C1548 1.387 . S
C1549 C1551 1.387 . S
H1550 C1557 0.950 . S
C1551 C1549 1.387 . S
C1551 C1553 1.390 . S
C1551 H1555 0.950 . S
H1552 C1548 0.950 . S
C1553 C1551 1.390 . S
C1553 C1554 1.387 . S
C1553 H1556 0.950 . S
C1554 C1553 1.387 . S
C1554 C1557 1.387 . S
H1555 C1551 0.950 . S
H1556 C1553 0.950 . S
C1557 C1548 1.390 . S
C1557 H1550 0.950 . S
C1557 C1554 1.387 . S
C1558 C1559 1.387 . S
C1558 H1562 0.950 . S
C1558 C1567 1.390 . S
C1559 C1558 1.387 . S
C1559 C1561 1.387 1_545 S
H1560 C1567 0.950 . S
C1561 C1559 1.387 1_565 S
C1561 C1563 1.390 . S
C1561 H1565 0.950 . S
H1562 C1558 0.950 . S
C1563 C1561 1.390 . S
C1563 C1564 1.387 1_565 S
C1563 H1566 0.950 . S
C1564 C1563 1.387 1_545 S
C1564 C1567 1.387 . S
H1565 C1561 0.950 . S
H1566 C1563 0.950 . S
C1567 C1558 1.390 . S
C1567 H1560 0.950 . S
C1567 C1564 1.387 . S
C1568 C1569 1.387 . S
C1568 H1572 0.950 . S
C1568 C1577 1.390 . S
C1569 C1568 1.387 . S
C1569 C1571 1.387 . S
H1570 C1577 0.950 . S
C1571 C1569 1.387 . S
C1571 C1573 1.390 . S
C1571 H1575 0.950 . S
H1572 C1568 0.950 . S
C1573 C1571 1.390 . S
C1573 C1574 1.387 . S
C1573 H1576 0.950 . S
C1574 C1573 1.387 . S
C1574 C1577 1.387 . S
H1575 C1571 0.950 . S
H1576 C1573 0.950 . S
C1577 C1568 1.390 . S
C1577 H1570 0.950 . S
C1577 C1574 1.387 . S
C1578 C1579 1.387 . S
C1578 H1582 0.950 . S
C1578 C1587 1.390 . S
C1579 C1578 1.387 . S
C1579 C1581 1.387 . S
H1580 C1587 0.950 . S
C1581 C1579 1.387 . S
C1581 C1583 1.390 . S
C1581 H1585 0.950 . S
H1582 C1578 0.950 . S
C1583 C1581 1.390 . S
C1583 C1584 1.387 . S
C1583 H1586 0.950 . S
C1584 C1583 1.387 . S
C1584 C1587 1.387 . S
H1585 C1581 0.950 . S
H1586 C1583 0.950 . S
C1587 C1578 1.390 . S
C1587 H1580 0.950 . S
C1587 C1584 1.387 . S
C1588 C1589 1.387 . S
C1588 H1592 0.950 . S
C1588 C1597 1.390 . S
C1589 C1588 1.387 . S
C1589 C1591 1.387 . S
H1590 C1597 0.950 . S
C1591 C1589 1.387 . S
C1591 C1593 1.390 . S
C1591 H1595 0.950 . S
H1592 C1588 0.950 . S
C1593 C1591 1.390 . S
C1593 C1594 1.387 . S
C1593 H1596 0.950 . S
C1594 C1593 1.387 . S
C1594 C1597 1.387 . S
H1595 C1591 0.950 . S
H1596 C1593 0.950 . S
C1597 C1588 1.390 . S
C1597 H1590 0.950 . S
C1597 C1594 1.387 . S
C1598 C1599 1.387 . S
C1598 H1602 0.950 . S
C1598 C1607 1.390 . S
C1599 C1598 1.387 . S
C1599 C1601 1.387 . S
H1600 C1607 0.950 . S
C1601 C1599 1.387 . S
C1601 C1603 1.390 . S
C1601 H1605 0.950 . S
H1602 C1598 0.950 . S
C1603 C1601 1.390 . S
C1603 C1604 1.387 . S
C1603 H1606 0.950 . S
C1604 C1603 1.387 . S
C1604 C1607 1.387 . S
H1605 C1601 0.950 . S
H1606 C1603 0.950 . S
C1607 C1598 1.390 . S
C1607 H1600 0.950 . S
C1607 C1604 1.387 . S
C1608 C1609 1.387 . S
C1608 H1612 0.950 . S
C1608 C1617 1.390 . S
C1609 C1608 1.387 . S
C1609 C1611 1.387 . S
H1610 C1617 0.950 . S
C1611 C1609 1.387 . S
C1611 C1613 1.390 . S
C1611 H1615 0.950 . S
H1612 C1608 0.950 . S
C1613 C1611 1.390 . S
C1613 C1614 1.387 . S
C1613 H1616 0.950 . S
C1614 C1613 1.387 . S
C1614 C1617 1.387 . S
H1615 C1611 0.950 . S
H1616 C1613 0.950 . S
C1617 C1608 1.390 . S
C1617 H1610 0.950 . S
C1617 C1614 1.387 . S
C1618 C1619 1.387 . S
C1618 H1622 0.950 . S
C1618 C1627 1.390 . S
C1619 C1618 1.387 . S
C1619 C1621 1.387 . S
H1620 C1627 0.950 . S
C1621 C1619 1.387 . S
C1621 C1623 1.390 . S
C1621 H1625 0.950 . S
H1622 C1618 0.950 . S
C1623 C1621 1.390 . S
C1623 C1624 1.387 . S
C1623 H1626 0.950 . S
C1624 C1623 1.387 . S
C1624 C1627 1.387 . S
H1625 C1621 0.950 . S
H1626 C1623 0.950 . S
C1627 C1618 1.390 . S
C1627 H1620 0.950 . S
C1627 C1624 1.387 . S
C1628 C1629 1.387 . S
C1628 H1632 0.950 . S
C1628 C1637 1.390 . S
C1629 C1628 1.387 . S
C1629 C1631 1.387 . S
H1630 C1637 0.950 . S
C1631 C1629 1.387 . S
C1631 C1633 1.390 . S
C1631 H1635 0.950 . S
H1632 C1628 0.950 . S
C1633 C1631 1.390 . S
C1633 C1634 1.387 . S
C1633 H1636 0.950 . S
C1634 C1633 1.387 . S
C1634 C1637 1.387 . S
H1635 C1631 0.950 . S
H1636 C1633 0.950 . S
C1637 C1628 1.390 . S
C1637 H1630 0.950 . S
C1637 C1634 1.387 . S
C1638 C1639 1.387 . S
C1638 H1642 0.950 . S
C1638 C1647 1.390 . S
C1639 C1638 1.387 . S
C1639 C1641 1.387 . S
H1640 C1647 0.950 . S
C1641 C1639 1.387 . S
C1641 C1643 1.390 . S
C1641 H1645 0.950 . S
H1642 C1638 0.950 . S
C1643 C1641 1.390 . S
C1643 C1644 1.387 . S
C1643 H1646 0.950 . S
C1644 C1643 1.387 . S
C1644 C1647 1.387 . S
H1645 C1641 0.950 . S
H1646 C1643 0.950 . S
C1647 C1638 1.390 . S
C1647 H1640 0.950 . S
C1647 C1644 1.387 . S
C1648 C1649 1.387 . S
C1648 H1652 0.950 . S
C1648 C1657 1.390 . S
C1649 C1648 1.387 . S
C1649 C1651 1.387 . S
H1650 C1657 0.950 . S
C1651 C1649 1.387 . S
C1651 C1653 1.390 . S
C1651 H1655 0.950 . S
H1652 C1648 0.950 . S
C1653 C1651 1.390 . S
C1653 C1654 1.387 . S
C1653 H1656 0.950 . S
C1654 C1653 1.387 . S
C1654 C1657 1.387 . S
H1655 C1651 0.950 . S
H1656 C1653 0.950 . S
C1657 C1648 1.390 . S
C1657 H1650 0.950 . S
C1657 C1654 1.387 . S
C1658 C1659 1.387 . S
C1658 H1662 0.950 . S
C1658 C1667 1.390 . S
C1659 C1658 1.387 . S
C1659 C1661 1.387 . S
H1660 C1667 0.950 . S
C1661 C1659 1.387 . S
C1661 C1663 1.390 . S
C1661 H1665 0.950 . S
H1662 C1658 0.950 . S
C1663 C1661 1.390 . S
C1663 C1664 1.387 . S
C1663 H1666 0.950 . S
C1664 C1663 1.387 . S
C1664 C1667 1.387 . S
H1665 C1661 0.950 . S
H1666 C1663 0.950 . S
C1667 C1658 1.390 . S
C1667 H1660 0.950 . S
C1667 C1664 1.387 . S
C1668 C1669 1.387 . S
C1668 H1672 0.950 . S
C1668 C1677 1.390 . S
C1669 C1668 1.387 . S
C1669 C1671 1.387 . S
H1670 C1677 0.950 . S
C1671 C1669 1.387 . S
C1671 C1673 1.390 . S
C1671 H1675 0.950 . S
H1672 C1668 0.950 . S
C1673 C1671 1.390 . S
C1673 C1674 1.387 . S
C1673 H1676 0.950 . S
C1674 C1673 1.387 . S
C1674 C1677 1.387 . S
H1675 C1671 0.950 . S
H1676 C1673 0.950 . S
C1677 C1668 1.390 . S
C1677 H1670 0.950 . S
C1677 C1674 1.387 . S
C1678 C1679 1.387 . S
C1678 H1682 0.950 . S
C1678 C1687 1.390 . S
C1679 C1678 1.387 . S
C1679 C1681 1.387 . S
H1680 C1687 0.950 . S
C1681 C1679 1.387 . S
C1681 C1683 1.390 . S
C1681 H1685 0.950 . S
H1682 C1678 0.950 . S
C1683 C1681 1.390 . S
C1683 C1684 1.387 . S
C1683 H1686 0.950 . S
C1684 C1683 1.387 . S
C1684 C1687 1.387 . S
H1685 C1681 0.950 . S
H1686 C1683 0.950 . S
C1687 C1678 1.390 . S
C1687 H1680 0.950 . S
C1687 C1684 1.387 . S
C1688 C1689 1.387 . S
C1688 H1692 0.950 . S
C1688 C1697 1.390 . S
C1689 C1688 1.387 . S
C1689 C1691 1.387 . S
H1690 C1697 0.950 . S
C1691 C1689 1.387 . S
C1691 C1693 1.390 . S
C1691 H1695 0.950 . S
H1692 C1688 0.950 . S
C1693 C1691 1.390 . S
C1693 C1694 1.387 . S
C1693 H1696 0.950 . S
C1694 C1693 1.387 . S
C1694 C1697 1.387 . S
H1695 C1691 0.950 . S
H1696 C1693 0.950 . S
C1697 C1688 1.390 . S
C1697 H1690 0.950 . S
C1697 C1694 1.387 . S
C1698 C1699 1.387 . S
C1698 H1702 0.950 . S
C1698 C1707 1.390 . S
C1699 C1698 1.387 . S
C1699 C1701 1.387 . S
H1700 C1707 0.950 . S
C1701 C1699 1.387 . S
C1701 C1703 1.390 . S
C1701 H1705 0.950 . S
H1702 C1698 0.950 . S
C1703 C1701 1.390 . S
C1703 C1704 1.387 . S
C1703 H1706 0.950 . S
C1704 C1703 1.387 . S
C1704 C1707 1.387 . S
H1705 C1701 0.950 . S
H1706 C1703 0.950 . S
C1707 C1698 1.390 . S
C1707 H1700 0.950 . S
C1707 C1704 1.387 . S
C1708 C1709 1.387 . S
C1708 H1712 0.950 . S
C1708 C1717 1.390 . S
C1709 C1708 1.387 . S
C1709 C1711 1.387 . S
H1710 C1717 0.950 . S
C1711 C1709 1.387 . S
C1711 C1713 1.390 . S
C1711 H1715 0.950 . S
H1712 C1708 0.950 . S
C1713 C1711 1.390 . S
C1713 C1714 1.387 . S
C1713 H1716 0.950 . S
C1714 C1713 1.387 . S
C1714 C1717 1.387 . S
H1715 C1711 0.950 . S
H1716 C1713 0.950 . S
C1717 C1708 1.390 . S
C1717 H1710 0.950 . S
C1717 C1714 1.387 . S
C1718 C1719 1.387 . S
C1718 H1722 0.950 . S
C1718 C1727 1.390 . S
C1719 C1718 1.387 . S
C1719 C1721 1.387 . S
H1720 C1727 0.950 . S
C1721 C1719 1.387 . S
C1721 C1723 1.390 . S
C1721 H1725 0.950 . S
H1722 C1718 0.950 . S
C1723 C1721 1.390 . S
C1723 C1724 1.387 . S
C1723 H1726 0.950 . S
C1724 C1723 1.387 . S
C1724 C1727 1.387 . S
H1725 C1721 0.950 . S
H1726 C1723 0.950 . S
C1727 C1718 1.390 . S
C1727 H1720 0.950 . S
C1727 C1724 1.387 . S
C1728 C1729 1.387 . S
C1728 H1732 0.950 . S
C1728 C1737 1.390 . S
C1729 C1728 1.387 . S
C1729 C1731 1.387 . S
H1730 C1737 0.950 . S
C1731 C1729 1.387 . S
C1731 C1733 1.390 . S
C1731 H1735 0.950 . S
H1732 C1728 0.950 . S
C1733 C1731 1.390 . S
C1733 C1734 1.387 . S
C1733 H1736 0.950 . S
C1734 C1733 1.387 . S
C1734 C1737 1.387 . S
H1735 C1731 0.950 . S
H1736 C1733 0.950 . S
C1737 C1728 1.390 . S
C1737 H1730 0.950 . S
C1737 C1734 1.387 . S
C1738 C1739 1.387 . S
C1738 H1742 0.950 . S
C1738 C1747 1.390 1_655 S
C1739 C1738 1.387 . S
C1739 C1741 1.387 . S
H1740 C1747 0.950 . S
C1741 C1739 1.387 . S
C1741 C1743 1.390 1_655 S
C1741 H1745 0.950 . S
H1742 C1738 0.950 . S
C1743 C1741 1.390 1_455 S
C1743 C1744 1.387 . S
C1743 H1746 0.950 . S
C1744 C1743 1.387 . S
C1744 C1747 1.387 . S
H1745 C1741 0.950 . S
H1746 C1743 0.950 . S
C1747 C1738 1.390 1_455 S
C1747 H1740 0.950 . S
C1747 C1744 1.387 . S
C1748 C1749 1.387 . S
C1748 H1752 0.950 . S
C1748 C1757 1.390 1_455 S
C1749 C1748 1.387 . S
C1749 C1751 1.387 . S
H1750 C1757 0.950 . S
C1751 C1749 1.387 . S
C1751 C1753 1.390 1_455 S
C1751 H1755 0.950 . S
H1752 C1748 0.950 . S
C1753 C1751 1.390 1_655 S
C1753 C1754 1.387 . S
C1753 H1756 0.950 . S
C1754 C1753 1.387 . S
C1754 C1757 1.387 . S
H1755 C1751 0.950 . S
H1756 C1753 0.950 . S
C1757 C1748 1.390 1_655 S
C1757 H1750 0.950 . S
C1757 C1754 1.387 . S
C1758 C1759 1.387 . S
C1758 H1762 0.950 . S
C1758 C1767 1.390 . S
C1759 C1758 1.387 . S
C1759 C1761 1.387 . S
H1760 C1767 0.950 . S
C1761 C1759 1.387 . S
C1761 C1763 1.390 . S
C1761 H1765 0.950 . S
H1762 C1758 0.950 . S
C1763 C1761 1.390 . S
C1763 C1764 1.387 . S
C1763 H1766 0.950 . S
C1764 C1763 1.387 . S
C1764 C1767 1.387 . S
H1765 C1761 0.950 . S
H1766 C1763 0.950 . S
C1767 C1758 1.390 . S
C1767 H1760 0.950 . S
C1767 C1764 1.387 . S
C1768 C1769 1.387 . S
C1768 H1772 0.950 . S
C1768 C1777 1.390 . S
C1769 C1768 1.387 . S
C1769 C1771 1.387 . S
H1770 C1777 0.950 . S
C1771 C1769 1.387 . S
C1771 C1773 1.390 . S
C1771 H1775 0.950 . S
H1772 C1768 0.950 . S
C1773 C1771 1.390 . S
C1773 C1774 1.387 . S
C1773 H1776 0.950 . S
C1774 C1773 1.387 . S
C1774 C1777 1.387 . S
H1775 C1771 0.950 . S
H1776 C1773 0.950 . S
C1777 C1768 1.390 . S
C1777 H1770 0.950 . S
C1777 C1774 1.387 . S
C1778 C1779 1.387 . S
C1778 H1782 0.950 . S
C1778 C1787 1.390 . S
C1779 C1778 1.387 . S
C1779 C1781 1.387 . S
H1780 C1787 0.950 . S
C1781 C1779 1.387 . S
C1781 C1783 1.390 . S
C1781 H1785 0.950 . S
H1782 C1778 0.950 . S
C1783 C1781 1.390 . S
C1783 C1784 1.387 . S
C1783 H1786 0.950 . S
C1784 C1783 1.387 . S
C1784 C1787 1.387 . S
H1785 C1781 0.950 . S
H1786 C1783 0.950 . S
C1787 C1778 1.390 . S
C1787 H1780 0.950 . S
C1787 C1784 1.387 . S
C1788 C1789 1.387 . S
C1788 H1792 0.950 . S
C1788 C1797 1.390 1_655 S
C1789 C1788 1.387 . S
C1789 C1791 1.387 . S
H1790 C1797 0.950 . S
C1791 C1789 1.387 . S
C1791 C1793 1.390 1_655 S
C1791 H1795 0.950 . S
H1792 C1788 0.950 . S
C1793 C1791 1.390 1_455 S
C1793 C1794 1.387 . S
C1793 H1796 0.950 . S
C1794 C1793 1.387 . S
C1794 C1797 1.387 . S
H1795 C1791 0.950 . S
H1796 C1793 0.950 . S
C1797 C1788 1.390 1_455 S
C1797 H1790 0.950 . S
C1797 C1794 1.387 . S
C1798 C1799 1.387 . S
C1798 H1802 0.950 . S
C1798 C1807 1.390 1_655 S
C1799 C1798 1.387 . S
C1799 C1801 1.387 . S
H1800 C1807 0.950 . S
C1801 C1799 1.387 . S
C1801 C1803 1.390 1_655 S
C1801 H1805 0.950 . S
H1802 C1798 0.950 . S
C1803 C1801 1.390 1_455 S
C1803 C1804 1.387 . S
C1803 H1806 0.950 . S
C1804 C1803 1.387 . S
C1804 C1807 1.387 . S
H1805 C1801 0.950 . S
H1806 C1803 0.950 . S
C1807 C1798 1.390 1_455 S
C1807 H1800 0.950 . S
C1807 C1804 1.387 . S
C1808 C1809 1.387 . S
C1808 H1812 0.950 . S
C1808 C1817 1.390 . S
C1809 C1808 1.387 . S
C1809 C1811 1.387 . S
H1810 C1817 0.950 . S
C1811 C1809 1.387 . S
C1811 C1813 1.390 . S
C1811 H1815 0.950 . S
H1812 C1808 0.950 . S
C1813 C1811 1.390 . S
C1813 C1814 1.387 . S
C1813 H1816 0.950 . S
C1814 C1813 1.387 . S
C1814 C1817 1.387 . S
H1815 C1811 0.950 . S
H1816 C1813 0.950 . S
C1817 C1808 1.390 . S
C1817 H1810 0.950 . S
C1817 C1814 1.387 . S
C1818 C1819 1.387 . S
C1818 H1822 0.950 . S
C1818 C1827 1.390 1_455 S
C1819 C1818 1.387 . S
C1819 C1821 1.387 . S
H1820 C1827 0.950 . S
C1821 C1819 1.387 . S
C1821 C1823 1.390 1_455 S
C1821 H1825 0.950 . S
H1822 C1818 0.950 . S
C1823 C1821 1.390 1_655 S
C1823 C1824 1.387 . S
C1823 H1826 0.950 . S
C1824 C1823 1.387 . S
C1824 C1827 1.387 . S
H1825 C1821 0.950 . S
H1826 C1823 0.950 . S
C1827 C1818 1.390 1_655 S
C1827 H1820 0.950 . S
C1827 C1824 1.387 . S
C1828 C1829 1.387 . S
C1828 H1832 0.950 . S
C1828 C1837 1.390 1_655 S
C1829 C1828 1.387 . S
C1829 C1831 1.387 . S
H1830 C1837 0.950 . S
C1831 C1829 1.387 . S
C1831 C1833 1.390 1_655 S
C1831 H1835 0.950 . S
H1832 C1828 0.950 . S
C1833 C1831 1.390 1_455 S
C1833 C1834 1.387 . S
C1833 H1836 0.950 . S
C1834 C1833 1.387 . S
C1834 C1837 1.387 . S
H1835 C1831 0.950 . S
H1836 C1833 0.950 . S
C1837 C1828 1.390 1_455 S
C1837 H1830 0.950 . S
C1837 C1834 1.387 . S
C1838 C1839 1.387 . S
C1838 H1842 0.950 . S
C1838 C1847 1.390 . S
C1839 C1838 1.387 . S
C1839 C1841 1.387 . S
H1840 C1847 0.950 . S
C1841 C1839 1.387 . S
C1841 C1843 1.390 . S
C1841 H1845 0.950 . S
H1842 C1838 0.950 . S
C1843 C1841 1.390 . S
C1843 C1844 1.387 . S
C1843 H1846 0.950 . S
C1844 C1843 1.387 . S
C1844 C1847 1.387 . S
H1845 C1841 0.950 . S
H1846 C1843 0.950 . S
C1847 C1838 1.390 . S
C1847 H1840 0.950 . S
C1847 C1844 1.387 . S
C1848 C1849 1.387 . S
C1848 H1852 0.950 . S
C1848 C1857 1.390 . S
C1849 C1848 1.387 . S
C1849 C1851 1.387 . S
H1850 C1857 0.950 . S
C1851 C1849 1.387 . S
C1851 C1853 1.390 . S
C1851 H1855 0.950 . S
H1852 C1848 0.950 . S
C1853 C1851 1.390 . S
C1853 C1854 1.387 . S
C1853 H1856 0.950 . S
C1854 C1853 1.387 . S
C1854 C1857 1.387 . S
H1855 C1851 0.950 . S
H1856 C1853 0.950 . S
C1857 C1848 1.390 . S
C1857 H1850 0.950 . S
C1857 C1854 1.387 . S
C1858 C1859 1.387 . S
C1858 H1862 0.950 . S
C1858 C1867 1.390 . S
C1859 C1858 1.387 . S
C1859 C1861 1.387 . S
H1860 C1867 0.950 . S
C1861 C1859 1.387 . S
C1861 C1863 1.390 . S
C1861 H1865 0.950 . S
H1862 C1858 0.950 . S
C1863 C1861 1.390 . S
C1863 C1864 1.387 . S
C1863 H1866 0.950 . S
C1864 C1863 1.387 . S
C1864 C1867 1.387 . S
H1865 C1861 0.950 . S
H1866 C1863 0.950 . S
C1867 C1858 1.390 . S
C1867 H1860 0.950 . S
C1867 C1864 1.387 . S
C1868 C1869 1.387 . S
C1868 H1872 0.950 . S
C1868 C1877 1.390 1_455 S
C1869 C1868 1.387 . S
C1869 C1871 1.387 . S
H1870 C1877 0.950 . S
C1871 C1869 1.387 . S
C1871 C1873 1.390 1_455 S
C1871 H1875 0.950 . S
H1872 C1868 0.950 . S
C1873 C1871 1.390 1_655 S
C1873 C1874 1.387 . S
C1873 H1876 0.950 . S
C1874 C1873 1.387 . S
C1874 C1877 1.387 . S
H1875 C1871 0.950 . S
H1876 C1873 0.950 . S
C1877 C1868 1.390 1_655 S
C1877 H1870 0.950 . S
C1877 C1874 1.387 . S
C1878 C1879 1.387 . S
C1878 H1882 0.950 . S
C1878 C1887 1.390 1_455 S
C1879 C1878 1.387 . S
C1879 C1881 1.387 . S
H1880 C1887 0.950 . S
C1881 C1879 1.387 . S
C1881 C1883 1.390 1_455 S
C1881 H1885 0.950 . S
H1882 C1878 0.950 . S
C1883 C1881 1.390 1_655 S
C1883 C1884 1.387 . S
C1883 H1886 0.950 . S
C1884 C1883 1.387 . S
C1884 C1887 1.387 . S
H1885 C1881 0.950 . S
H1886 C1883 0.950 . S
C1887 C1878 1.390 1_655 S
C1887 H1880 0.950 . S
C1887 C1884 1.387 . S
C1089 C20 1.907 . S
C1094 C258 1.906 . S
C1099 C54 1.906 . S
C1104 C156 1.905 . S
C1109 C88 1.905 . S
C1114 C190 1.905 . S
C1119 C122 1.906 . S
C1124 C224 1.907 . S
C1129 C530 1.906 . S
C1134 C292 1.906 . S
C1139 C326 1.907 . S
C1144 C428 1.907 . S
C1149 C462 1.906 . S
C1154 C360 1.907 . S
C1159 C394 1.907 . S
C1164 C496 1.906 . S
C1169 C564 1.906 . S
C1174 C802 1.907 . S
C1179 C700 1.907 . S
C1184 C598 1.907 . S
C1189 C632 1.906 . S
C1194 C734 1.905 . S
C1199 C666 1.906 . S
C1204 C768 1.907 . S
C1209 C836 1.907 . S
C1214 C1074 1.907 . S
C1219 C870 1.905 . S
C1224 C972 1.905 . S
C1229 C1006 1.907 . S
C1234 C904 1.906 . S
C1239 C1040 1.906 . S
C1244 C938 1.905 . S
C1249 C206 1.634 . S
C1254 C2 1.634 . S
C1259 C36 1.634 . S
C1264 C240 1.634 . S
C1269 C70 1.634 . S
C1274 C138 1.634 . S
C1279 C104 1.634 . S
C1284 C172 1.634 . S
C1289 C274 1.634 . S
C1294 C478 1.634 . S
C1299 C512 1.634 . S
C1304 C308 1.634 . S
C1309 C410 1.634 . S
C1314 C342 1.634 . S
C1319 C444 1.634 . S
C1324 C376 1.634 . S
C1329 C546 1.634 . S
C1334 C750 1.634 . S
C1339 C784 1.634 . S
C1344 C580 1.634 . S
C1349 C682 1.634 . S
C1354 C614 1.634 . S
C1359 C648 1.634 . S
C1364 C716 1.634 . S
C1369 C1022 1.634 . S
C1374 C818 1.634 . S
C1379 C852 1.634 . S
C1384 C1056 1.634 . S
C1389 C954 1.634 . S
C1394 C886 1.634 . S
C1399 C988 1.634 . S
C1404 C920 1.634 . S
C1409 C957 0.858 . S
C1414 C9 0.833 . S
C1419 C447 0.858 . S
C1424 C43 0.832 . S
C1429 C1025 0.863 . S
C1434 C77 0.837 . S
C1439 C111 0.838 . S
C1444 C515 0.863 . S
C1449 C821 0.861 . S
C1454 C145 0.833 . S
C1459 C311 0.858 . S
C1464 C179 0.832 . S
C1469 C889 0.863 . S
C1474 C213 0.839 . S
C1479 C247 0.832 . S
C1484 C379 0.858 . S
C1489 C281 0.839 . S
C1494 C685 0.863 . S
C1499 C315 0.838 . S
C1504 C175 0.863 . S
C1509 C349 0.833 . S
C1514 C753 0.858 . S
C1519 C243 0.858 . S
C1524 C383 0.832 . S
C1529 C549 0.863 . S
C1534 C417 0.838 . S
C1539 C451 0.839 . S
C1544 C39 0.863 . S
C1549 C485 0.834 . S
C1554 C617 0.859 . S
C1559 C519 0.832 . S
C1564 C107 0.858 . S
C1569 C413 0.858 . S
C1574 C553 0.833 . S
C1579 C587 0.831 . S
C1584 C991 0.858 . S
C1589 C481 0.858 . S
C1594 C621 0.831 . S
C1599 C655 0.832 . S
C1604 C1059 0.858 . S
C1609 C689 0.839 . S
C1614 C277 0.863 . S
C1619 C723 0.832 . S
C1624 C855 0.858 . S
C1629 C345 0.858 . S
C1634 C757 0.833 . S
C1639 C791 0.838 . S
C1644 C923 0.863 . S
C1649 C141 0.863 . S
C1654 C825 0.839 . S
C1659 C719 0.858 . S
C1664 C859 0.831 . S
C1669 C209 0.858 . S
C1674 C893 0.833 . S
C1679 C787 0.863 . S
C1684 C927 0.838 . S
C1689 C5 0.863 . S
C1694 C961 0.837 . S
C1699 C583 0.858 . S
C1704 C995 0.832 . S
C1709 C1029 0.839 . S
C1714 C73 0.863 . S
C1719 C651 0.858 . S
C1724 C1063 0.832 . S
C1729 C645 2.376 . S
C1734 C33 2.376 . S
C1739 C679 2.377 . S
C1744 C67 2.377 . S
C1749 C101 2.377 . S
C1754 C577 2.377 . S
C1759 C135 2.376 . S
C1764 C611 2.376 . S
C1769 C781 2.377 . S
C1774 C169 2.377 . S
C1779 C203 2.376 . S
C1784 C815 2.376 . S
C1789 C713 2.376 . S
C1794 C237 2.376 . S
C1799 C747 2.377 . S
C1804 C271 2.377 . S
C1809 C917 2.377 . S
C1814 C305 2.377 . S
C1819 C951 2.376 . S
C1824 C339 2.376 . S
C1829 C373 2.376 . S
C1834 C849 2.376 . S
C1839 C407 2.376 . S
C1844 C883 2.376 . S
C1849 C441 2.377 . S
C1854 C1053 2.377 . S
C1859 C475 2.376 . S
C1864 C1087 2.376 . S
C1869 C985 2.376 . S
C1874 C509 2.376 . S
C1879 C1019 2.377 . S
C1884 C543 2.377 . S
