# Generated by pormake.
# Topology hjm, (4)-cn, num edge types: 1
# Building blocks:
#     Node 0, Type 0, BuildingBlock: ICAMEG_clean_sbu_1, # of connection points: 4
#     Node 1, Type 0, BuildingBlock: ICAMEG_clean_sbu_1, # of connection points: 4
#     Node 2, Type 0, BuildingBlock: ICAMEG_clean_sbu_1, # of connection points: 4
#     Node 3, Type 0, BuildingBlock: ICAMEG_clean_sbu_1, # of connection points: 4
#     Node 4, Type 0, BuildingBlock: ICAMEG_clean_sbu_1, # of connection points: 4
#     Node 5, Type 0, BuildingBlock: ICAMEG_clean_sbu_1, # of connection points: 4
#     Node 6, Type 0, BuildingBlock: ICAMEG_clean_sbu_1, # of connection points: 4
#     Node 7, Type 0, BuildingBlock: ICAMEG_clean_sbu_1, # of connection points: 4
#     Edge 8, Type (0, 0), BuildingBlock: EZIPEK_clean_linker_0, # of connection points: 2
#     Edge 9, Type (0, 0), BuildingBlock: EZIPEK_clean_linker_0, # of connection points: 2
#     Edge 10, Type (0, 0), BuildingBlock: EZIPEK_clean_linker_0, # of connection points: 2
#     Edge 11, Type (0, 0), BuildingBlock: EZIPEK_clean_linker_0, # of connection points: 2
#     Edge 12, Type (0, 0), BuildingBlock: EZIPEK_clean_linker_0, # of connection points: 2
#     Edge 13, Type (0, 0), BuildingBlock: EZIPEK_clean_linker_0, # of connection points: 2
#     Edge 14, Type (0, 0), BuildingBlock: EZIPEK_clean_linker_0, # of connection points: 2
#     Edge 15, Type (0, 0), BuildingBlock: EZIPEK_clean_linker_0, # of connection points: 2
#     Edge 16, Type (0, 0), BuildingBlock: EZIPEK_clean_linker_0, # of connection points: 2
#     Edge 17, Type (0, 0), BuildingBlock: EZIPEK_clean_linker_0, # of connection points: 2
#     Edge 18, Type (0, 0), BuildingBlock: EZIPEK_clean_linker_0, # of connection points: 2
#     Edge 19, Type (0, 0), BuildingBlock: EZIPEK_clean_linker_0, # of connection points: 2
#     Edge 20, Type (0, 0), BuildingBlock: EZIPEK_clean_linker_0, # of connection points: 2
#     Edge 21, Type (0, 0), BuildingBlock: EZIPEK_clean_linker_0, # of connection points: 2
#     Edge 22, Type (0, 0), BuildingBlock: EZIPEK_clean_linker_0, # of connection points: 2
#     Edge 23, Type (0, 0), BuildingBlock: EZIPEK_clean_linker_0, # of connection points: 2
# Relax obj value: 0.161
# Max RMSD: 0.207
# Mean RMSD: 0.207
data_MOF--net-hjm--node1-ICAMEG_clean_sbu_1--edge1-EZIPEK_clean_linker_0
_symmetry_space_group_name_H-M    P1
_symmetry_Int_Tables_number       1
_symmetry_cell_setting            triclinic
loop_
_symmetry_equiv_pos_as_xyz
'x, y, z'
_cell_length_a     19.269943
_cell_length_b     22.074627
_cell_length_c     19.7044
_cell_angle_alpha  90.382859
_cell_angle_beta   66.905893
_cell_angle_gamma 90.321739
loop_
_atom_site_label
_atom_site_type_symbol
_atom_site_fract_x
_atom_site_fract_y
_atom_site_fract_z
_atom_type_partial_charge
Co0 Co 0.17606 0.2699 0.24595 0.0
Co1 Co 0.17918 0.11653 0.29634 0.0
O2 O 0.12392 0.19798 0.30374 0.0
C3 C 0.08594 0.33889 0.39989 0.0
O4 O 0.082 0.28826 0.4351 0.0
C5 C 0.02983 0.04392 0.38241 0.0
O6 O 0.96738 0.06953 0.38827 0.0
O7 O 0.21056 0.11283 0.18208 0.0
O8 O 0.21693 0.21221 0.16239 0.0
H9 H 0.43953 0.03964 0.25348 0.0
H10 H 0.98963 0.27933 0.33343 0.0
O11 O 0.12605 0.33851 0.32869 0.0
H12 H 0.11658 0.37461 0.04357 0.0
H13 H 0.27118 0.44743 0.06359 0.0
H14 H 0.33149 0.25755 0.14631 0.0
H15 H 0.17148 0.28992 0.09734 0.0
H16 H 0.20413 0.41633 0.20077 0.0
O17 O 0.08567 0.05784 0.32023 0.0
H18 H 0.33983 0.08394 0.21412 0.0
H19 H 0.13943 -0.03876 0.33351 0.0
H20 H 0.41226 0.29933 0.03181 0.0
H21 H 0.90149 0.41688 0.25664 0.0
H22 H 0.36745 0.38566 0.98113 0.0
H23 H 0.98862 0.43771 0.11329 0.0
O24 O 0.27004 0.26238 0.27622 0.0
H25 H -0.00968 0.19561 0.53742 0.0
H26 H 0.24664 0.1345 0.4164 0.0
H27 H 0.19543 0.13806 0.54947 0.0
H28 H 0.06423 0.17708 0.61116 0.0
H29 H 0.03509 0.16062 0.41037 0.0
H30 H 0.27856 0.8769 0.41252 0.0
H31 H 0.33774 0.93475 0.3571 0.0
O32 O 0.28191 0.16435 0.27949 0.0
C33 C 0.22842 0.15888 0.13748 0.0
C34 C 0.38453 0.02008 0.27951 0.0
C35 C 0.29328 0.9195 0.37058 0.0
N36 N 0.2324 0.03542 0.28615 0.0
C37 C 0.3177 0.05154 0.25824 0.0
C38 C 0.19408 -0.02506 0.33019 0.0
C39 C 0.37843 -0.03801 0.33301 0.0
C40 C 0.00332 0.29624 0.27762 0.0
N41 N 0.08502 0.28023 0.2154 0.0
C42 C 0.94133 0.38327 0.22733 0.0
C43 C -0.00132 0.3978 0.13908 0.0
C44 C 0.0797 0.35922 0.09765 0.0
C45 C 0.11582 0.30428 0.1339 0.0
C46 C 0.28044 0.40652 0.08593 0.0
C47 C 0.31452 0.30013 0.13186 0.0
C48 C 0.2389 0.38588 0.15845 0.0
N49 N 0.24679 0.32712 0.17432 0.0
C50 C 0.36146 0.32267 0.06426 0.0
C51 C 0.33864 0.37237 0.03767 0.0
C52 C 0.31303 0.21723 0.27518 0.0
C53 C 0.04372 0.17281 0.51292 0.0
C54 C 0.18847 0.13275 0.44315 0.0
C55 C 0.15914 0.14142 0.51948 0.0
C56 C 0.08601 0.16295 0.55431 0.0
N57 N 0.14357 0.1305 0.40436 0.0
C58 C 0.07197 0.15453 0.43906 0.0
Co59 Co 0.80535 0.27436 0.2143 0.0
Co60 Co 0.7902 0.12315 0.18472 0.0
O61 O 0.85121 0.20153 0.15761 0.0
C62 C 0.8931 0.34173 0.0563 0.0
O63 O 0.8941 0.29331 0.01683 0.0
C64 C 0.94846 0.07715 0.07712 0.0
O65 O 0.979 0.13117 0.06495 0.0
O66 O 0.80001 0.12586 0.28699 0.0
O67 O 0.7596 0.22161 0.30546 0.0
H68 H 0.55485 0.03778 0.18185 0.0
H69 H -0.00629 0.27499 0.12557 0.0
O70 O 0.85772 0.33845 0.12788 0.0
H71 H 0.8822 0.3936 0.41511 0.0
H72 H 0.76685 0.44477 0.38067 0.0
H73 H 0.64453 0.28341 0.31925 0.0
H74 H 0.88967 0.342 0.34237 0.0
H75 H 0.80788 0.41789 0.23928 0.0
O76 O 0.88528 0.07075 0.13201 0.0
H77 H 0.62726 0.08258 0.25237 0.0
H78 H 0.84589 -0.03088 0.16434 0.0
H79 H 0.57342 0.34331 0.41578 0.0
H80 H 0.10348 0.40359 0.19653 0.0
H81 H 0.63965 0.422 0.45768 0.0
H82 H 0.01318 0.43896 0.33598 0.0
O83 O 0.71096 0.26199 0.18835 0.0
H84 H 0.87806 0.13502 0.91031 0.0
H85 H 0.65257 0.13765 0.13731 0.0
H86 H 0.63959 0.12421 0.02311 0.0
H87 H 0.75102 0.12063 0.90821 0.0
H88 H 0.88679 0.15771 0.02774 0.0
H89 H 0.7337 0.87172 0.05764 0.0
H90 H 0.66839 0.92998 0.10138 0.0
O91 O 0.68629 0.17028 0.23479 0.0
C92 C 0.77702 0.17316 0.33066 0.0
C93 C 0.60765 0.01636 0.1723 0.0
C94 C 0.71158 0.91622 0.09689 0.0
N95 N 0.7416 0.03716 0.20362 0.0
C96 C 0.65933 0.04996 0.21219 0.0
C97 C 0.79003 -0.02319 0.16427 0.0
C98 C 0.62639 -0.04337 0.11781 0.0
C99 C 0.98059 0.29572 0.17975 0.0
N100 N 0.89773 0.2856 0.24201 0.0
C101 C 0.05329 0.37979 0.22544 0.0
C102 C -0.00207 0.40015 0.31255 0.0
C103 C 0.91133 0.36773 0.3578 0.0
C104 C 0.86748 0.31242 0.32194 0.0
C105 C 0.73455 0.42126 0.35586 0.0
C106 C 0.66868 0.32637 0.31919 0.0
C107 C 0.76642 0.39536 0.28538 0.0
N108 N 0.74281 0.33953 0.27682 0.0
C109 C 0.6253 0.3624 0.37791 0.0
C110 C 0.66206 0.40628 0.40144 0.0
C111 C 0.66092 0.22049 0.21893 0.0
C112 C 0.82859 0.13517 0.96024 0.0
C113 C 0.70411 0.13908 0.08952 0.0
C114 C 0.69495 0.13237 0.02315 0.0
C115 C 0.75798 0.12809 0.95854 0.0
N116 N 0.77447 0.13326 0.09189 0.0
C117 C 0.8348 0.14236 0.0276 0.0
Co118 Co 0.80519 0.62245 0.71458 0.0
Co119 Co 0.78504 0.7763 0.68189 0.0
O120 O 0.84625 0.69664 0.65558 0.0
C121 C 0.90266 0.56151 0.56006 0.0
O122 O 0.92706 0.61616 0.53714 0.0
C123 C 0.93911 0.81882 0.57051 0.0
O124 O 0.96656 0.76392 0.55513 0.0
O125 O 0.79176 0.7744 0.7849 0.0
O126 O 0.76379 0.67485 0.80428 0.0
H127 H 0.5563 0.87032 0.66776 0.0
H128 H 0.00113 0.63039 0.61865 0.0
O129 O 0.85083 0.55825 0.62674 0.0
H130 H 0.89264 0.50899 0.89286 0.0
H131 H 0.74818 0.48518 0.93097 0.0
H132 H 0.63282 0.57978 0.78205 0.0
H133 H 0.82935 0.59853 0.85457 0.0
H134 H 0.81372 0.49346 0.795 0.0
O135 O 0.88053 0.82696 0.62961 0.0
H136 H 0.62309 0.81744 0.73782 0.0
H137 H 0.84231 0.92924 0.67165 0.0
H138 H 0.55995 0.56357 0.90608 0.0
H139 H 0.11187 0.49633 0.67456 0.0
H140 H 0.62044 0.52363 -0.01161 0.0
H141 H 0.03047 0.46275 0.81828 0.0
O142 O 0.70826 0.6366 0.6923 0.0
H143 H 0.85594 0.76784 0.40319 0.0
H144 H 0.64457 0.75722 0.64064 0.0
H145 H 0.62029 0.76429 0.53481 0.0
H146 H 0.72577 0.78217 0.41279 0.0
H147 H 0.8755 0.74286 0.51581 0.0
H148 H 0.74257 0.0368 0.56464 0.0
H149 H 0.67564 -0.02228 0.59909 0.0
O150 O 0.68381 0.73045 0.73343 0.0
C151 C 0.76788 0.72763 0.82912 0.0
C152 C 0.60851 0.89059 0.66313 0.0
C153 C 0.71852 -0.00997 0.59818 0.0
N154 N 0.73706 0.86315 0.70075 0.0
C155 C 0.65599 0.85287 0.70395 0.0
C156 C 0.78776 0.92371 0.66753 0.0
C157 C 0.63291 -0.04818 0.61156 0.0
C158 C 0.9897 0.60817 0.67124 0.0
N159 N 0.90569 0.6134 0.73518 0.0
C160 C 0.06604 0.52367 0.7091 0.0
C161 C 0.01188 0.49965 0.79468 0.0
C162 C 0.92579 0.52886 0.84033 0.0
C163 C 0.88199 0.58362 0.81255 0.0
C164 C 0.72339 0.50603 0.89672 0.0
C165 C 0.66332 0.56288 0.81154 0.0
C166 C 0.76299 0.51451 0.82046 0.0
N167 N 0.74064 0.55626 0.78324 0.0
C168 C 0.618 0.54991 0.88443 0.0
C169 C 0.65079 0.52687 0.92952 0.0
C170 C 0.65862 0.67894 0.72127 0.0
C171 C 0.81042 0.77045 0.45686 0.0
C172 C 0.69409 0.75829 0.59135 0.0
C173 C 0.67828 0.76497 0.52881 0.0
C174 C 0.73705 0.77567 0.46155 0.0
N175 N 0.76618 0.76629 0.5892 0.0
C176 C 0.82302 0.76094 0.52131 0.0
Co177 Co 0.17767 0.63498 0.75056 0.0
Co178 Co 0.17832 0.78817 0.78849 0.0
O179 O 0.12263 0.70717 0.80285 0.0
C180 C 0.07667 0.56632 0.90498 0.0
O181 O 0.07034 0.61542 0.94455 0.0
C182 C 0.02806 0.85603 0.88153 0.0
O183 O 0.96331 0.83297 0.88961 0.0
O184 O 0.1947 0.78438 0.67751 0.0
O185 O 0.23357 0.68931 0.6643 0.0
H186 H 0.43937 0.86511 0.72645 0.0
H187 H -0.0015 0.61941 0.82526 0.0
O188 O 0.11849 0.56922 0.83418 0.0
H189 H 0.1253 0.53295 0.52037 0.0
H190 H 0.25084 0.45846 0.58267 0.0
H191 H 0.34118 0.63512 0.66059 0.0
H192 H 0.11068 0.57686 0.60143 0.0
H193 H 0.18715 0.491 0.72189 0.0
O194 O 0.08166 0.84245 0.81786 0.0
H195 H 0.33411 0.82326 0.69254 0.0
H196 H 0.13841 0.94376 0.82877 0.0
H197 H 0.42649 0.57812 0.56466 0.0
H198 H 0.91716 0.4813 0.73192 0.0
H199 H 0.37225 0.49687 0.51238 0.0
H200 H 0.00814 0.46706 0.59414 0.0
O201 O 0.26292 0.64598 0.79052 0.0
H202 H 0.00841 0.71628 0.03778 0.0
H203 H 0.26268 0.76401 0.89375 0.0
H204 H 0.22638 0.76801 0.02538 0.0
H205 H 0.09788 0.73111 0.09752 0.0
H206 H 0.04242 0.74812 0.91272 0.0
H207 H 0.28507 0.01901 0.90901 0.0
H208 H 0.34313 -0.03524 0.8453 0.0
O209 O 0.28502 0.74195 0.76409 0.0
C210 C 0.21608 0.73579 0.63682 0.0
C211 C 0.38516 0.88408 0.75766 0.0
C212 C 0.2983 -0.02002 0.86211 0.0
N213 N 0.23033 0.87155 0.77048 0.0
C214 C 0.31549 0.85567 0.73712 0.0
C215 C 0.19421 0.92992 0.82071 0.0
C216 C 0.38285 0.93816 0.81662 0.0
C217 C 0.01367 0.60438 0.76825 0.0
N218 N 0.09394 0.62422 0.71001 0.0
C219 C 0.95457 0.51796 0.71024 0.0
C220 C 0.01321 0.50828 0.62106 0.0
C221 C 0.09328 0.551 0.58175 0.0
C222 C 0.12822 0.60599 0.62673 0.0
C223 C 0.27328 0.48965 0.60986 0.0
C224 C 0.32189 0.59076 0.65487 0.0
C225 C 0.23218 0.51485 0.67972 0.0
N226 N 0.248 0.5726 0.69107 0.0
C227 C 0.37243 0.55825 0.59634 0.0
C228 C 0.34356 0.51214 0.56797 0.0
C229 C 0.31117 0.69 0.77474 0.0
C230 C 0.06322 0.73608 0.00845 0.0
C231 C 0.2058 0.77164 0.92597 0.0
C232 C 0.18461 0.76595 0.00148 0.0
C233 C 0.11246 0.7458 0.04254 0.0
N234 N 0.1541 0.77881 0.89543 0.0
C235 C 0.08371 0.75541 0.93614 0.0
Co236 Co 0.67901 0.79457 0.25346 0.0
Co237 Co 0.71093 0.64794 0.2893 0.0
O238 O 0.64382 0.71904 0.31514 0.0
C239 C 0.57812 0.84005 0.4117 0.0
O240 O 0.58011 0.78691 0.43961 0.0
C241 C 0.5583 0.56829 0.39449 0.0
O242 O 0.51703 0.61572 0.42498 0.0
O243 O 0.70356 0.64853 0.18727 0.0
O244 O 0.74168 0.74524 0.16369 0.0
H245 H 0.95091 0.54889 0.13318 0.0
H246 H 0.49195 0.75727 0.33221 0.0
O247 O 0.61508 0.84772 0.34203 0.0
H248 H 0.60551 0.85572 0.04435 0.0
H249 H 0.71582 0.03648 0.06276 0.0
H250 H 0.82956 0.82705 0.13523 0.0
H251 H 0.67101 0.78721 0.09999 0.0
H252 H 0.62759 0.94976 0.26103 0.0
O253 O 0.62359 0.57757 0.33837 0.0
H254 H 0.83347 0.60323 0.14654 0.0
H255 H 0.73051 0.54317 0.36706 0.0
H256 H 0.88862 0.887 0.01687 0.0
H257 H 0.38621 0.87662 0.25255 0.0
H258 H 0.84654 -0.00765 0.97927 0.0
H259 H 0.48025 0.92052 0.11905 0.0
O260 O 0.77285 0.80089 0.27864 0.0
H261 H 0.63162 0.63236 0.56558 0.0
H262 H 0.84635 0.65508 0.32955 0.0
H263 H 0.86869 0.62593 0.43736 0.0
H264 H 0.76026 0.60821 0.55598 0.0
H265 H 0.61131 0.66192 0.45363 0.0
H266 H 0.85361 0.51191 0.36409 0.0
H267 H 0.95911 0.51638 0.25337 0.0
O268 O 0.80427 0.70488 0.24718 0.0
C269 C 0.72818 0.69344 0.14129 0.0
C270 C 0.90261 0.54942 0.18521 0.0
C271 C 0.84758 0.52726 0.31456 0.0
N272 N 0.77773 0.58029 0.25969 0.0
C273 C 0.83563 0.57784 0.19219 0.0
C274 C 0.77884 0.5451 0.31523 0.0
C275 C 0.90916 0.53055 0.24972 0.0
C276 C 0.5076 0.78064 0.27947 0.0
N277 N 0.5897 0.7713 0.21857 0.0
C278 C 0.43899 0.86743 0.23253 0.0
C279 C 0.49371 0.88235 0.14459 0.0
C280 C 0.57341 0.84375 0.10128 0.0
C281 C 0.61381 0.79189 0.13628 0.0
C282 C 0.74082 0.01071 0.09165 0.0
C283 C 0.80166 0.86924 0.13604 0.0
C284 C 0.67798 0.94284 0.21105 0.0
N285 N 0.72321 0.87989 0.20029 0.0
C286 C 0.84577 0.91076 0.05946 0.0
C287 C 0.8198 -0.02343 0.03528 0.0
C288 C 0.8244 0.75962 0.25561 0.0
C289 C 0.67833 0.63378 0.5126 0.0
C290 C 0.79798 0.65132 0.38075 0.0
C291 C 0.8115 0.63263 0.44191 0.0
C292 C 0.75085 0.62231 0.50797 0.0
N293 N 0.72584 0.65347 0.38271 0.0
C294 C 0.66681 0.65028 0.44912 0.0
Co295 Co 0.30391 0.79666 0.21846 0.0
Co296 Co 0.27892 0.65136 0.17264 0.0
O297 O 0.34134 0.72361 0.15691 0.0
C298 C 0.3599 0.87724 0.0786 0.0
O299 O 0.29353 0.87746 0.07447 0.0
C300 C 0.42153 0.5717 0.05943 0.0
O301 O 0.45491 0.61666 0.0162 0.0
O302 O 0.27581 0.64928 0.27888 0.0
O303 O 0.2407 0.74667 0.30406 0.0
H304 H 0.04632 0.53372 0.30293 0.0
H305 H 0.49171 0.75659 0.13317 0.0
O306 O 0.37001 0.84671 0.12935 0.0
H307 H 0.3873 0.86009 0.41834 0.0
H308 H 0.29912 0.05435 0.39203 0.0
H309 H 0.16093 0.82631 0.35355 0.0
H310 H 0.31633 0.78877 0.36698 0.0
H311 H 0.34744 0.95071 0.2058 0.0
O312 O 0.37074 0.58466 0.12648 0.0
H313 H 0.15063 0.59958 0.30143 0.0
H314 H 0.2784 0.54671 0.08244 0.0
H315 H 0.12226 0.88009 0.47653 0.0
H316 H 0.60164 0.87649 0.20374 0.0
H317 H 0.22464 0.00144 0.42577 0.0
H318 H 0.51354 0.9219 0.34176 0.0
O319 O 0.20909 0.80203 0.19338 0.0
H320 H 0.41003 0.67351 0.90664 0.0
H321 H 0.16318 0.63786 0.10163 0.0
H322 H 0.1833 0.6083 0.97599 0.0
H323 H 0.31107 0.61759 0.87992 0.0
H324 H 0.38496 0.706 0.03055 0.0
H325 H 0.16896 0.49788 0.07295 0.0
H326 H 0.05627 0.49164 0.17757 0.0
O327 O 0.18145 0.70407 0.21224 0.0
C328 C 0.25084 0.69434 0.32529 0.0
C329 C 0.0977 0.53599 0.25414 0.0
C330 C 0.16642 0.51632 0.12498 0.0
N331 N 0.21778 0.58009 0.19006 0.0
C332 C 0.15766 0.57146 0.25445 0.0
C333 C 0.22801 0.54365 0.1313 0.0
C334 C 0.10099 0.5139 0.18615 0.0
C335 C 0.47808 0.77999 0.18591 0.0
N336 N 0.3955 0.77289 0.24872 0.0
C337 C 0.55012 0.86639 0.2296 0.0
C338 C 0.49753 0.88422 0.31655 0.0
C339 C 0.41688 0.84777 0.36151 0.0
C340 C 0.37296 0.79615 0.32935 0.0
C341 C 0.26205 0.01386 0.38401 0.0
C342 C 0.1922 0.86677 0.3518 0.0
C343 C 0.30367 0.9442 0.26105 0.0
N344 N 0.26066 0.88018 0.27841 0.0
C345 C 0.15944 0.90598 0.43198 0.0
C346 C 0.18744 -0.02666 0.45382 0.0
C347 C 0.15906 0.7589 0.20954 0.0
C348 C 0.35368 0.66961 0.94716 0.0
C349 C 0.21716 0.64653 0.05888 0.0
C350 C 0.2275 0.63068 -0.01275 0.0
C351 C 0.29796 0.63936 0.93188 0.0
N352 N 0.27782 0.66254 0.07477 0.0
C353 C 0.34024 0.68464 0.01944 0.0
Co354 Co 0.30584 0.10855 0.71916 0.0
Co355 Co 0.27976 0.25354 0.68064 0.0
O356 O 0.34327 0.18132 0.65503 0.0
C357 C 0.37562 0.04364 0.56469 0.0
O358 O 0.33456 0.07311 0.5362 0.0
C359 C 0.42415 0.32802 0.55919 0.0
O360 O 0.45897 0.27972 0.52294 0.0
O361 O 0.28973 0.25332 0.78368 0.0
O362 O 0.24493 0.15919 0.80813 0.0
H363 H 0.03677 0.34452 0.82603 0.0
H364 H 0.49419 0.15037 0.63492 0.0
O365 O 0.36922 0.05516 0.63095 0.0
H366 H 0.39393 0.03788 0.91462 0.0
H367 H 0.29798 0.85253 0.87822 0.0
H368 H 0.16558 0.07808 0.86506 0.0
H369 H 0.31904 0.10842 0.86637 0.0
H370 H 0.34506 -0.04057 0.69576 0.0
O371 O 0.37082 0.32 0.62633 0.0
H372 H 0.15207 0.29087 0.8168 0.0
H373 H 0.26921 0.36262 0.60425 0.0
H374 H 0.12983 0.01093 0.98013 0.0
H375 H 0.60918 0.03187 0.69982 0.0
H376 H 0.17794 0.89916 -0.00693 0.0
H377 H 0.51923 -0.01923 0.83608 0.0
O378 O 0.2118 0.10321 0.69416 0.0
H379 H 0.35305 0.23436 0.40826 0.0
H380 H 0.14321 0.26237 0.64368 0.0
H381 H 0.12953 0.29646 0.53277 0.0
H382 H 0.23707 0.28444 0.4112 0.0
H383 H 0.36792 0.20939 0.52235 0.0
H384 H 0.15226 0.40466 0.6042 0.0
H385 H 0.04044 0.39905 0.71048 0.0
O386 O 0.18411 0.19993 0.72311 0.0
C387 C 0.26386 0.20866 0.83046 0.0
C388 C 0.08791 0.34917 0.77727 0.0
C389 C 0.15398 0.38485 0.65365 0.0
N390 N 0.216 0.32295 0.7096 0.0
C391 C 0.15357 0.32072 0.77331 0.0
C392 C 0.22001 0.36195 0.65526 0.0
C393 C 0.0885 0.37875 0.71464 0.0
C394 C 0.48105 0.12523 0.68613 0.0
N395 N 0.39817 0.12956 0.74944 0.0
C396 C 0.55567 0.03876 0.7249 0.0
C397 C 0.5029 0.01769 0.81099 0.0
C398 C 0.42141 0.05134 0.85771 0.0
C399 C 0.37598 0.10315 0.82848 0.0
C400 C 0.26583 0.88643 0.86597 0.0
C401 C 0.19451 0.03553 0.85512 0.0
C402 C 0.30293 -0.03699 0.75221 0.0
N403 N 0.26076 0.02617 0.77794 0.0
C404 C 0.16501 -0.01059 0.93034 0.0
C405 C 0.19661 0.91971 0.93916 0.0
C406 C 0.16254 0.1463 0.71271 0.0
C407 C 0.30747 0.24213 0.45928 0.0
C408 C 0.19138 0.25886 0.59193 0.0
C409 C 0.18256 0.27758 0.52864 0.0
C410 C 0.24236 0.2704 0.46125 0.0
N411 N 0.26185 0.24648 0.58989 0.0
C412 C 0.3167 0.23015 0.52452 0.0
Co413 Co 0.68001 0.1103 0.75588 0.0
Co414 Co 0.70938 0.25908 0.79582 0.0
O415 O 0.64391 0.18845 0.80852 0.0
C416 C 0.61987 0.02876 0.89298 0.0
O417 O 0.68889 0.01965 0.88815 0.0
C418 C 0.56348 0.34045 0.8898 0.0
O419 O 0.52503 0.29433 0.92617 0.0
O420 O 0.72641 0.25525 0.68608 0.0
O421 O 0.74788 0.15468 0.6659 0.0
H422 H 0.96572 0.33377 0.68511 0.0
H423 H 0.49297 0.14434 0.83398 0.0
O424 O 0.60842 0.06648 0.84886 0.0
H425 H 0.61221 0.05498 0.54079 0.0
H426 H 0.71122 0.86037 0.56399 0.0
H427 H 0.8311 0.07346 0.65408 0.0
H428 H 0.67245 0.12824 0.59914 0.0
H429 H 0.62484 -0.04866 0.75844 0.0
O430 O 0.62233 0.32931 0.82779 0.0
H431 H 0.85561 0.28675 0.67569 0.0
H432 H 0.71212 0.37927 0.86833 0.0
H433 H 0.89874 0.01983 0.53596 0.0
H434 H 0.39165 0.02582 0.74508 0.0
H435 H 0.78869 0.90645 0.55462 0.0
H436 H 0.48782 -0.01339 0.61113 0.0
O437 O 0.77374 0.10535 0.78358 0.0
H438 H 0.54616 0.21867 0.06191 0.0
H439 H 0.79341 0.29465 0.8997 0.0
H440 H 0.75727 0.30182 0.02944 0.0
H441 H 0.6352 0.26542 0.10939 0.0
H442 H 0.58823 0.20413 0.93028 0.0
H443 H 0.82307 0.4132 0.89039 0.0
H444 H 0.94499 0.39031 0.80566 0.0
O445 O 0.80267 0.20319 0.76977 0.0
C446 C 0.74914 0.20871 0.64176 0.0
C447 C 0.91037 0.34497 0.72556 0.0
C448 C 0.82914 0.39194 0.83912 0.0
N449 N 0.77847 0.32607 0.77574 0.0
C450 C 0.84737 0.31914 0.71951 0.0
C451 C 0.76724 0.37118 0.8262 0.0
C452 C 0.90018 0.37722 0.79 0.0
C453 C 0.50996 0.12229 0.77998 0.0
N454 N 0.59195 0.13466 0.71997 0.0
C455 C 0.44469 0.03603 0.72725 0.0
C456 C 0.50021 0.02442 0.6386 0.0
C457 C 0.57907 0.06519 0.59813 0.0
C458 C 0.61704 0.11727 0.63636 0.0
C459 C 0.74391 0.89451 0.58763 0.0
C460 C 0.80302 0.0327 0.64917 0.0
C461 C 0.67662 -0.04068 0.71108 0.0
N462 N 0.72228 0.02145 0.70775 0.0
C463 C 0.85147 -0.00466 0.57115 0.0
C464 C 0.83014 0.93238 0.53642 0.0
C465 C 0.8241 0.14806 0.77063 0.0
C466 C 0.6004 0.23631 0.02519 0.0
C467 C 0.73944 0.27768 0.93183 0.0
C468 C 0.71937 0.28215 0.00697 0.0
C469 C 0.64898 0.26279 0.05296 0.0
N470 N 0.69148 0.25453 0.90199 0.0
C471 C 0.62565 0.22828 0.94931 0.0
C472 C 0.02174 -0.02235 0.49793 0.0
C473 C 0.01786 -0.01778 0.42629 0.0
C474 C 0.97603 0.87421 0.44557 0.0
C475 C 0.97343 0.87232 0.51849 0.0
N476 N 0.01663 0.9187 0.6033 0.0
N477 N 0.95038 0.93725 0.35914 0.0
C478 C -0.00107 0.92424 0.54328 0.0
C479 C 0.98474 0.93075 0.40689 0.0
N480 N 0.04136 0.02672 0.52691 0.0
N481 N 0.97079 0.82202 0.41149 0.0
H482 H 0.95499 -0.02387 0.32795 0.0
H483 H 0.90902 0.90638 0.35985 0.0
H484 H 0.97586 0.77942 0.43093 0.0
H485 H 0.96838 0.8217 0.36025 0.0
H486 H 0.03058 0.03247 0.5825 0.0
H487 H 0.07665 0.05676 0.49127 0.0
H488 H 0.06056 0.94406 0.60695 0.0
H489 H -0.00104 0.88259 0.64011 0.0
C490 C 0.01712 0.915 0.00176 0.0
C491 C 0.02084 0.91543 0.92738 0.0
C492 C 0.98953 0.02536 0.94792 0.0
C493 C 0.98179 0.02381 0.02284 0.0
N494 N 0.01885 -0.02964 0.10765 0.0
N495 N 0.98082 -0.02962 0.84494 0.0
C496 C 0.00318 -0.03076 0.04625 0.0
C497 C -0.00042 -0.02929 0.90464 0.0
N498 N 0.00919 0.8613 0.03665 0.0
N499 N -0.00896 0.07932 0.91514 0.0
H500 H 0.98841 0.93304 0.8101 0.0
H501 H 0.94846 0.00494 0.83699 0.0
H502 H 0.98819 0.1208 0.94094 0.0
H503 H 0.00338 0.08217 0.85928 0.0
H504 H 0.00657 0.85669 0.09001 0.0
H505 H 0.98393 0.82593 0.02004 0.0
H506 H 0.05205 0.93678 0.11623 0.0
H507 H 0.00941 0.00826 0.14204 0.0
C508 C 0.45823 0.40525 0.44508 0.0
C509 C 0.45423 0.39162 0.51909 0.0
C510 C 0.52497 0.49063 0.50594 0.0
C511 C 0.52782 0.50454 0.43341 0.0
N512 N 0.49054 0.47024 0.33705 0.0
N513 N 0.4934 0.42845 0.61437 0.0
C514 C 0.49251 0.4603 0.40452 0.0
C515 C 0.49053 0.43601 0.54704 0.0
N516 N 0.43416 0.36424 0.40779 0.0
N517 N 0.55561 0.53082 0.53814 0.0
H518 H 0.47054 0.39129 0.64841 0.0
H519 H 0.47054 0.39129 0.64841 0.0
H520 H 0.56082 0.57577 0.523 0.0
H521 H 0.56896 0.51946 0.5825 0.0
H522 H 0.41479 0.32145 0.42787 0.0
H523 H 0.41479 0.32145 0.42787 0.0
H524 H 0.46354 0.44084 0.31349 0.0
H525 H 0.51511 0.50835 0.30553 0.0
C526 C 0.44553 0.49209 0.95241 0.0
C527 C 0.44758 0.50654 0.02348 0.0
C528 C 0.53453 0.41716 5e-05 0.0
C529 C 0.53448 0.40409 0.92803 0.0
N530 N 0.48364 0.42964 0.83938 0.0
N531 N 0.49553 0.47918 0.11359 0.0
C532 C 0.48912 0.44274 0.90501 0.0
C533 C 0.49118 0.46677 0.04736 0.0
N534 N 0.39974 0.52607 0.93055 0.0
N535 N 0.58035 0.38298 0.02175 0.0
H536 H 0.46356 0.51319 0.14878 0.0
H537 H 0.53082 0.45738 0.13399 0.0
H538 H 0.62089 0.35581 0.9838 0.0
H539 H 0.58147 0.38326 0.07394 0.0
H540 H 0.3998 0.5266 0.87786 0.0
H541 H 0.35889 0.55274 0.96864 0.0
H542 H 0.44737 0.45084 0.81962 0.0
H543 H 0.51545 0.39552 0.80419 0.0
C544 C 0.90649 0.45871 0.02752 0.0
C545 C 0.93929 0.39953 0.01603 0.0
C546 C 0.06333 0.4494 0.93572 0.0
C547 C 0.02984 0.50829 0.94456 0.0
N548 N 0.91515 0.5667 -0.00307 0.0
N549 N 0.05179 0.33989 0.95917 0.0
C550 C 0.95056 0.51216 -0.00855 0.0
C551 C 0.01827 0.39553 0.96882 0.0
N552 N 0.8318 0.46376 0.0726 0.0
N553 N 0.13953 0.4453 0.89648 0.0
H554 H 0.02412 0.30071 0.98506 0.0
H555 H 0.10872 0.33179 0.93021 0.0
H556 H 0.17377 0.48311 0.8758 0.0
H557 H 0.17076 0.40566 0.88561 0.0
H558 H 0.80325 0.50435 0.0902 0.0
H559 H 0.7972 0.42632 0.09442 0.0
H560 H 0.85728 0.57318 0.02235 0.0
H561 H 0.94195 0.60542 0.96882 0.0
C562 C 0.96107 0.39019 0.49541 0.0
C563 C 0.03905 0.39544 0.44426 0.0
C564 C 0.0215 0.50858 0.4585 0.0
C565 C 0.94453 0.50406 0.51202 0.0
N566 N 0.84209 0.4368 0.57762 0.0
N567 N 0.14481 0.46183 0.38864 0.0
C568 C 0.91531 0.44358 0.52937 0.0
C569 C 0.06952 0.45546 0.43088 0.0
N570 N 0.92744 0.33425 0.50678 0.0
N571 N 0.05042 0.56464 0.43497 0.0
H572 H 0.18138 0.42498 0.37217 0.0
H573 H 0.17265 0.50292 0.37223 0.0
H574 H 0.01808 0.59857 0.42542 0.0
H575 H 0.10687 0.57607 0.41957 0.0
H576 H 0.87056 0.32634 0.53769 0.0
H577 H 0.95371 0.29508 0.47959 0.0
H578 H 0.8193 0.39683 0.60516 0.0
H579 H 0.80319 0.47199 0.59012 0.0
C580 C 0.48531 0.01654 -0.00843 0.0
C581 C 0.55499 -0.01016 0.94445 0.0
C582 C 0.49505 0.88894 0.98241 0.0
C583 C 0.42423 0.91572 0.02625 0.0
N584 N 0.35366 0.00794 0.07191 0.0
N585 N 0.62305 0.8969 0.89362 0.0
C586 C 0.41992 -0.01982 0.0297 0.0
C587 C 0.55883 0.92519 0.93998 0.0
N588 N 0.47936 0.07744 0.00283 0.0
N589 N 0.50477 0.82795 0.98127 0.0
H590 H 0.62776 0.84982 0.88878 0.0
H591 H 0.67084 0.91961 0.85828 0.0
H592 H 0.46249 0.79702 0.00997 0.0
H593 H 0.46249 0.79702 0.00997 0.0
H594 H 0.52412 0.10778 0.98017 0.0
H595 H 0.52412 0.10778 0.98017 0.0
H596 H 0.34811 0.05496 0.0758 0.0
H597 H 0.3043 -0.01559 0.10232 0.0
C598 C 0.5552 -0.04762 0.44788 0.0
C599 C 0.52803 0.89128 0.45911 0.0
C600 C 0.39966 0.93129 0.53497 0.0
C601 C 0.42658 -0.00811 0.52203 0.0
N602 N 0.52884 0.06085 0.46285 0.0
N603 N 0.42444 0.82318 0.52568 0.0
C604 C 0.50396 0.00244 0.4765 0.0
C605 C 0.45077 0.88102 0.50751 0.0
N606 N 0.63121 -0.03781 0.41314 0.0
N607 N 0.32355 0.92187 0.56973 0.0
H608 H 0.45437 0.78436 0.50203 0.0
H609 H 0.37199 0.81267 0.56613 0.0
H610 H 0.28501 -0.04277 0.58971 0.0
H611 H 0.29722 0.88008 0.57326 0.0
H612 H 0.65701 0.00449 0.40581 0.0
H613 H 0.6702 0.92691 0.39676 0.0
H614 H 0.58155 0.07352 0.4243 0.0
H615 H 0.49534 0.09747 0.49018 0.0
C616 C 0.17389 0.72623 0.45764 0.0
C617 C 0.23681 0.69316 0.40707 0.0
C618 C 0.28833 0.69504 0.50273 0.0
C619 C 0.22778 0.73027 0.55365 0.0
N620 N 0.11597 0.78549 0.57165 0.0
N621 N 0.36344 0.65965 0.37907 0.0
C622 C 0.17237 0.74884 0.52776 0.0
C623 C 0.29677 0.68202 0.42886 0.0
N624 N 0.11546 0.73663 0.43709 0.0
N625 N 0.32601 0.65941 0.53033 0.0
H626 H 0.37216 0.64695 0.3254 0.0
H627 H 0.41257 0.65879 0.38901 0.0
H628 H 0.29164 0.62208 0.55232 0.0
H629 H 0.38249 0.64861 0.50199 0.0
H630 H 0.10869 0.71283 0.39405 0.0
H631 H 0.08022 0.77335 0.45604 0.0
H632 H 0.07883 0.80643 0.55396 0.0
H633 H 0.10901 0.79943 0.62433 0.0
C634 C 0.79184 0.75452 0.94512 0.0
C635 C 0.74649 0.72684 0.91357 0.0
C636 C 0.68116 0.6739 0.03578 0.0
C637 C 0.73982 0.69155 0.05904 0.0
N638 N 0.85974 0.74187 0.02397 0.0
N639 N 0.63246 0.67068 0.93882 0.0
C640 C 0.79783 0.72933 0.00951 0.0
C641 C 0.68693 0.68888 0.96192 0.0
N642 N 0.81945 0.81041 0.92147 0.0
N643 N 0.61814 0.64617 0.08535 0.0
H644 H 0.63464 0.67985 0.8866 0.0
H645 H 0.58534 0.64615 0.97053 0.0
H646 H 0.61252 0.63389 0.13806 0.0
H647 H 0.56891 0.6377 0.07723 0.0
H648 H 0.83468 0.83863 0.9554 0.0
H649 H 0.81252 0.83211 0.87775 0.0
H650 H 0.90461 0.76662 -0.01218 0.0
H651 H 0.86891 0.72202 0.06751 0.0
C652 C 0.72378 0.22669 0.45982 0.0
C653 C 0.76655 0.1778 0.41428 0.0
C654 C 0.81486 0.16386 0.513 0.0
C655 C 0.76971 0.21127 0.55818 0.0
N656 N 0.68018 0.28961 0.57072 0.0
N657 N 0.82265 0.08407 0.42423 0.0
C658 C 0.72561 0.24407 0.52947 0.0
C659 C 0.80502 0.14208 0.44762 0.0
N660 N 0.67608 0.2568 0.43882 0.0
N661 N 0.86883 0.14027 0.53286 0.0
H662 H 0.81192 0.0653 0.38069 0.0
H663 H 0.83799 0.05283 0.45505 0.0
H664 H 0.90933 0.11096 0.49995 0.0
H665 H 0.87806 0.15611 0.57859 0.0
H666 H 0.64282 0.23446 0.4158 0.0
H667 H 0.6694 0.30217 0.45162 0.0
H668 H 0.63365 0.30674 0.56282 0.0
H669 H 0.68967 0.31244 0.6125 0.0
C670 C 0.31366 0.18905 0.00379 0.0
C671 C 0.24872 0.15735 0.05349 0.0
C672 C 0.19107 0.17473 0.96329 0.0
C673 C 0.25419 0.20732 0.91329 0.0
N674 N 0.37358 0.25163 0.89325 0.0
N675 N 0.13523 0.10651 0.0682 0.0
C676 C 0.31501 0.21621 0.9359 0.0
C677 C 0.19122 0.14529 0.02835 0.0
N678 N 0.37689 0.18804 0.01863 0.0
N679 N 0.12743 0.17638 0.95055 0.0
H680 H 0.13459 0.08387 0.11467 0.0
H681 H 0.09516 0.09077 0.05007 0.0
H682 H 0.11638 0.21468 0.92614 0.0
H683 H 0.08924 0.14118 0.96362 0.0
H684 H 0.42983 0.20105 0.98073 0.0
H685 H 0.37681 0.1685 0.06679 0.0
H686 H 0.41581 0.26566 0.90964 0.0
H687 H 0.3755 0.27199 0.84499 0.0
C688 C 0.44177 0.18241 0.29542 0.0
C689 C 0.4024 0.22562 0.26732 0.0
C690 C 0.5311 0.28111 0.22699 0.0
C691 C 0.57045 0.22994 0.24165 0.0
N692 N 0.53623 0.16679 0.34639 0.0
N693 N 0.42015 0.32684 0.21627 0.0
C694 C 0.5183 0.18984 0.29131 0.0
C695 C 0.45045 0.27815 0.23654 0.0
N696 N 0.40347 0.13515 0.33459 0.0
N697 N 0.56809 0.33541 0.21124 0.0
H698 H 0.45249 0.35999 0.18024 0.0
H699 H 0.36261 0.33463 0.23594 0.0
H700 H 0.62398 0.34053 0.20467 0.0
H701 H 0.54194 0.37642 0.21113 0.0
H702 H 0.42632 0.10094 0.35568 0.0
H703 H 0.34967 0.12988 0.34048 0.0
H704 H 0.49514 0.15018 0.39472 0.0
H705 H 0.58697 0.17585 0.35161 0.0
C706 C 0.52874 0.62309 0.7223 0.0
C707 C 0.56912 0.67309 0.73874 0.0
C708 C 0.44363 0.72582 0.78505 0.0
C709 C 0.40109 0.68034 0.76443 0.0
N710 N 0.4081 0.57203 0.74211 0.0
N711 N 0.53605 0.74724 0.83581 0.0
C712 C 0.44542 0.6247 0.7417 0.0
C713 C 0.51852 0.71738 0.78375 0.0
N714 N 0.56796 0.57118 0.69533 0.0
N715 N 0.4093 0.77717 0.81578 0.0
H716 H 0.58673 0.74475 0.8419 0.0
H717 H 0.49484 0.76753 0.88126 0.0
H718 H 0.3592 0.78541 0.81349 0.0
H719 H 0.4344 0.81323 0.83225 0.0
H720 H 0.54368 0.52845 0.70103 0.0
H721 H 0.62646 0.56984 0.67047 0.0
H722 H 0.43331 0.53123 0.71935 0.0
H723 H 0.35008 0.56785 0.76981 0.0
C724 C 0.02249 0.7176 0.23737 0.0
C725 C 0.07176 0.7687 0.22453 0.0
C726 C 0.95227 0.82615 0.23447 0.0
C727 C 0.91105 0.77051 0.23855 0.0
N728 N 0.95133 0.67709 0.17414 0.0
N729 N 0.07129 0.8782 0.22242 0.0
C730 C 0.9577 0.71968 0.22126 0.0
C731 C 0.03359 0.8254 0.22422 0.0
N732 N 0.04138 0.66258 0.25265 0.0
N733 N 0.91594 0.87911 0.23579 0.0
H734 H 0.12534 0.87997 0.22174 0.0
H735 H 0.04797 0.92097 0.22727 0.0
H736 H 0.85972 0.88079 0.24281 0.0
H737 H 0.94054 0.9216 0.2297 0.0
H738 H -0.00131 0.63126 0.27969 0.0
H739 H 0.08711 0.64344 0.21151 0.0
H740 H -0.0071 0.64414 0.15166 0.0
H741 H 0.91531 0.6825 0.14681 0.0
C742 C 0.03812 0.0856 0.71496 0.0
C743 C 0.07513 0.13734 0.73106 0.0
C744 C 0.94815 0.18586 0.78273 0.0
C745 C 0.91015 0.13833 0.7612 0.0
N746 N 0.92078 0.03376 0.72465 0.0
N747 N 0.04342 0.20999 0.82815 0.0
C748 C 0.95586 0.08534 0.73259 0.0
C749 C 0.0244 0.18139 0.77647 0.0
N750 N 0.07908 0.0341 0.69131 0.0
N751 N 0.90639 0.23132 0.82395 0.0
H752 H 0.08971 0.19562 0.83754 0.0
H753 H 0.00762 0.23714 0.87081 0.0
H754 H 0.85251 0.21974 0.85852 0.0
H755 H 0.92852 0.27171 0.83448 0.0
H756 H 0.05464 -0.0085 0.70198 0.0
H757 H 0.13759 0.03298 0.6691 0.0
H758 H 0.94842 -0.00564 0.70033 0.0
H759 H 0.86269 0.02833 0.74938 0.0
loop_
_geom_bond_atom_site_label_1
_geom_bond_atom_site_label_2
_geom_bond_distance
_geom_bond_site_symmetry_2
_ccdc_geom_bond_type
Co0 O2 2.143 . S
Co0 O8 2.074 . S
Co0 O11 2.093 . S
Co0 O24 2.097 . S
Co0 N41 2.151 . S
Co0 N49 2.214 . S
Co1 O2 2.160 . S
Co1 O7 2.058 . S
Co1 O17 2.057 . S
Co1 O32 2.037 . S
Co1 N36 2.145 . S
Co1 N57 2.257 . S
O2 Co0 2.143 . S
O2 Co1 2.160 . S
C3 O4 1.278 . S
C3 O11 1.224 . S
O4 C3 1.278 . S
C5 O6 1.245 . S
C5 O17 1.232 . S
O6 C5 1.245 . S
O7 Co1 2.058 . S
O7 C33 1.269 . S
O8 Co0 2.074 . S
O8 C33 1.257 . S
H9 C34 0.930 . S
H10 C40 0.930 . S
O11 Co0 2.093 . S
O11 C3 1.224 . S
H12 C44 0.929 . S
H13 C46 0.930 . S
H14 C47 0.930 . S
H15 C45 0.929 . S
H16 C48 0.928 . S
O17 Co1 2.057 . S
O17 C5 1.232 . S
H18 C37 0.929 . S
H19 C38 0.929 . S
H20 C50 0.931 . S
H21 C42 0.929 . S
H22 C51 0.930 . S
H23 C43 0.931 . S
O24 Co0 2.097 . S
O24 C52 1.214 . S
H25 C53 0.929 . S
H26 C54 0.929 . S
H27 C55 0.930 . S
H28 C56 0.929 . S
H29 C58 0.930 . S
H30 C35 0.930 . S
H31 C39 0.930 . S
O32 Co1 2.037 . S
O32 C52 1.234 . S
C33 O7 1.269 . S
C33 O8 1.257 . S
C34 H9 0.930 . S
C34 C37 1.388 . S
C34 C39 1.418 1_545 S
C35 H30 0.930 . S
C35 C38 1.404 1_565 S
C35 C39 1.353 . S
N36 Co1 2.145 . S
N36 C37 1.397 . S
N36 C38 1.334 . S
C37 H18 0.929 . S
C37 C34 1.388 . S
C37 N36 1.397 . S
C38 H19 0.929 . S
C38 C35 1.404 1_545 S
C38 N36 1.334 . S
C39 H31 0.930 . S
C39 C34 1.418 1_565 S
C39 C35 1.353 . S
C40 H10 0.930 . S
C40 N41 1.330 . S
C40 C42 1.446 1_455 S
N41 Co0 2.151 . S
N41 C40 1.330 . S
N41 C45 1.418 . S
C42 H21 0.929 . S
C42 C40 1.446 1_655 S
C42 C43 1.332 . S
C43 H23 0.931 . S
C43 C42 1.332 . S
C43 C44 1.267 1_655 S
C44 H12 0.929 . S
C44 C43 1.267 1_455 S
C44 C45 1.251 . S
C45 H15 0.929 . S
C45 N41 1.418 . S
C45 C44 1.251 . S
C46 H13 0.930 . S
C46 C48 1.406 . S
C46 C51 1.261 . S
C47 H14 0.930 . S
C47 N49 1.325 . S
C47 C50 1.357 . S
C48 H16 0.928 . S
C48 C46 1.406 . S
C48 N49 1.261 . S
N49 Co0 2.214 . S
N49 C47 1.325 . S
N49 C48 1.261 . S
C50 H20 0.931 . S
C50 C47 1.357 . S
C50 C51 1.312 . S
C51 H22 0.930 . S
C51 C46 1.261 . S
C51 C50 1.312 . S
C52 O24 1.214 . S
C52 O32 1.234 . S
C53 H25 0.929 . S
C53 C56 1.391 . S
C53 C58 1.391 . S
C54 H26 0.929 . S
C54 C55 1.390 . S
C54 N57 1.391 . S
C55 H27 0.930 . S
C55 C54 1.390 . S
C55 C56 1.392 . S
C56 H28 0.929 . S
C56 C53 1.391 . S
C56 C55 1.392 . S
N57 Co1 2.257 . S
N57 C54 1.391 . S
N57 C58 1.388 . S
C58 H29 0.930 . S
C58 C53 1.391 . S
C58 N57 1.388 . S
Co59 O61 2.143 . S
Co59 O67 2.074 . S
Co59 O70 2.093 . S
Co59 O83 2.097 . S
Co59 N100 2.151 . S
Co59 N108 2.214 . S
Co60 O61 2.160 . S
Co60 O66 2.058 . S
Co60 O76 2.057 . S
Co60 O91 2.037 . S
Co60 N95 2.145 . S
Co60 N116 2.257 . S
O61 Co59 2.143 . S
O61 Co60 2.160 . S
C62 O63 1.278 . S
C62 O70 1.224 . S
O63 C62 1.278 . S
C64 O65 1.245 . S
C64 O76 1.232 . S
O65 C64 1.245 . S
O66 Co60 2.058 . S
O66 C92 1.269 . S
O67 Co59 2.074 . S
O67 C92 1.257 . S
H68 C93 0.930 . S
H69 C99 0.930 . S
O70 Co59 2.093 . S
O70 C62 1.224 . S
H71 C103 0.929 . S
H72 C105 0.930 . S
H73 C106 0.930 . S
H74 C104 0.929 . S
H75 C107 0.928 . S
O76 Co60 2.057 . S
O76 C64 1.232 . S
H77 C96 0.929 . S
H78 C97 0.929 . S
H79 C109 0.931 . S
H80 C101 0.929 . S
H81 C110 0.930 . S
H82 C102 0.931 . S
O83 Co59 2.097 . S
O83 C111 1.214 . S
H84 C112 0.929 . S
H85 C113 0.929 . S
H86 C114 0.930 . S
H87 C115 0.929 . S
H88 C117 0.929 1_554 S
H89 C94 0.930 . S
H90 C98 0.930 . S
O91 Co60 2.037 . S
O91 C111 1.234 . S
C92 O66 1.269 . S
C92 O67 1.257 . S
C93 H68 0.930 . S
C93 C96 1.388 . S
C93 C98 1.418 1_545 S
C94 H89 0.930 . S
C94 C97 1.404 1_565 S
C94 C98 1.353 . S
N95 Co60 2.145 . S
N95 C96 1.397 . S
N95 C97 1.334 . S
C96 H77 0.929 . S
C96 C93 1.388 . S
C96 N95 1.397 . S
C97 H78 0.929 . S
C97 C94 1.404 1_545 S
C97 N95 1.334 . S
C98 H90 0.930 . S
C98 C93 1.418 1_565 S
C98 C94 1.353 . S
C99 H69 0.930 . S
C99 N100 1.330 . S
C99 C101 1.446 1_655 S
N100 Co59 2.151 . S
N100 C99 1.330 . S
N100 C104 1.418 . S
C101 H80 0.929 . S
C101 C99 1.446 1_455 S
C101 C102 1.332 . S
C102 H82 0.931 . S
C102 C101 1.332 . S
C102 C103 1.267 1_455 S
C103 H71 0.929 . S
C103 C102 1.267 1_655 S
C103 C104 1.251 . S
C104 H74 0.929 . S
C104 N100 1.418 . S
C104 C103 1.251 . S
C105 H72 0.930 . S
C105 C107 1.406 . S
C105 C110 1.261 . S
C106 H73 0.930 . S
C106 N108 1.325 . S
C106 C109 1.357 . S
C107 H75 0.928 . S
C107 C105 1.406 . S
C107 N108 1.261 . S
N108 Co59 2.214 . S
N108 C106 1.325 . S
N108 C107 1.261 . S
C109 H79 0.931 . S
C109 C106 1.357 . S
C109 C110 1.312 . S
C110 H81 0.930 . S
C110 C105 1.261 . S
C110 C109 1.312 . S
C111 O83 1.214 . S
C111 O91 1.234 . S
C112 H84 0.929 . S
C112 C115 1.391 . S
C112 C117 1.394 . S
C113 H85 0.929 . S
C113 C114 1.390 1_554 S
C113 N116 1.391 . S
C114 H86 0.930 . S
C114 C113 1.390 1_556 S
C114 C115 1.392 . S
C115 H87 0.929 . S
C115 C112 1.391 . S
C115 C114 1.392 . S
N116 Co60 2.257 . S
N116 C113 1.391 . S
N116 C117 1.386 1_554 S
C117 H88 0.929 1_556 S
C117 C112 1.394 . S
C117 N116 1.386 1_556 S
Co118 O120 2.143 . S
Co118 O126 2.074 . S
Co118 O129 2.093 . S
Co118 O142 2.097 . S
Co118 N159 2.151 . S
Co118 N167 2.214 . S
Co119 O120 2.160 . S
Co119 O125 2.058 . S
Co119 O135 2.057 . S
Co119 O150 2.037 . S
Co119 N154 2.145 . S
Co119 N175 2.257 . S
O120 Co118 2.143 . S
O120 Co119 2.160 . S
C121 O122 1.278 . S
C121 O129 1.224 . S
O122 C121 1.278 . S
C123 O124 1.245 . S
C123 O135 1.232 . S
O124 C123 1.245 . S
O125 Co119 2.058 . S
O125 C151 1.269 . S
O126 Co118 2.074 . S
O126 C151 1.257 . S
H127 C152 0.930 . S
H128 C158 0.930 . S
O129 Co118 2.093 . S
O129 C121 1.224 . S
H130 C162 0.929 . S
H131 C164 0.930 . S
H132 C165 0.930 . S
H133 C163 0.929 . S
H134 C166 0.928 . S
O135 Co119 2.057 . S
O135 C123 1.232 . S
H136 C155 0.929 . S
H137 C156 0.929 . S
H138 C168 0.931 . S
H139 C160 0.929 . S
H140 C169 0.930 . S
H141 C161 0.931 . S
O142 Co118 2.097 . S
O142 C170 1.214 . S
H143 C171 0.929 . S
H144 C172 0.929 . S
H145 C173 0.930 . S
H146 C174 0.929 . S
H147 C176 0.930 . S
H148 C153 0.930 . S
H149 C157 0.930 . S
O150 Co119 2.037 . S
O150 C170 1.234 . S
C151 O125 1.269 . S
C151 O126 1.257 . S
C152 H127 0.930 . S
C152 C155 1.388 . S
C152 C157 1.418 1_565 S
C153 H148 0.930 . S
C153 C156 1.404 1_545 S
C153 C157 1.353 . S
N154 Co119 2.145 . S
N154 C155 1.397 . S
N154 C156 1.334 . S
C155 H136 0.929 . S
C155 C152 1.388 . S
C155 N154 1.397 . S
C156 H137 0.929 . S
C156 C153 1.404 1_565 S
C156 N154 1.334 . S
C157 H149 0.930 . S
C157 C152 1.418 1_545 S
C157 C153 1.353 . S
C158 H128 0.930 . S
C158 N159 1.330 . S
C158 C160 1.446 1_655 S
N159 Co118 2.151 . S
N159 C158 1.330 . S
N159 C163 1.418 . S
C160 H139 0.929 . S
C160 C158 1.446 1_455 S
C160 C161 1.332 . S
C161 H141 0.931 . S
C161 C160 1.332 . S
C161 C162 1.267 1_455 S
C162 H130 0.929 . S
C162 C161 1.267 1_655 S
C162 C163 1.251 . S
C163 H133 0.929 . S
C163 N159 1.418 . S
C163 C162 1.251 . S
C164 H131 0.930 . S
C164 C166 1.406 . S
C164 C169 1.261 . S
C165 H132 0.930 . S
C165 N167 1.325 . S
C165 C168 1.357 . S
C166 H134 0.928 . S
C166 C164 1.406 . S
C166 N167 1.261 . S
N167 Co118 2.214 . S
N167 C165 1.325 . S
N167 C166 1.261 . S
C168 H138 0.931 . S
C168 C165 1.357 . S
C168 C169 1.312 . S
C169 H140 0.930 . S
C169 C164 1.261 . S
C169 C168 1.312 . S
C170 O142 1.214 . S
C170 O150 1.234 . S
C171 H143 0.929 . S
C171 C174 1.391 . S
C171 C176 1.391 . S
C172 H144 0.929 . S
C172 C173 1.390 . S
C172 N175 1.391 . S
C173 H145 0.930 . S
C173 C172 1.390 . S
C173 C174 1.392 . S
C174 H146 0.929 . S
C174 C171 1.391 . S
C174 C173 1.392 . S
N175 Co119 2.257 . S
N175 C172 1.391 . S
N175 C176 1.388 . S
C176 H147 0.930 . S
C176 C171 1.391 . S
C176 N175 1.388 . S
Co177 O179 2.143 . S
Co177 O185 2.074 . S
Co177 O188 2.093 . S
Co177 O201 2.097 . S
Co177 N218 2.151 . S
Co177 N226 2.214 . S
Co178 O179 2.160 . S
Co178 O184 2.058 . S
Co178 O194 2.057 . S
Co178 O209 2.037 . S
Co178 N213 2.145 . S
Co178 N234 2.257 . S
O179 Co177 2.143 . S
O179 Co178 2.160 . S
C180 O181 1.278 . S
C180 O188 1.224 . S
O181 C180 1.278 . S
C182 O183 1.245 . S
C182 O194 1.232 . S
O183 C182 1.245 . S
O184 Co178 2.058 . S
O184 C210 1.269 . S
O185 Co177 2.074 . S
O185 C210 1.257 . S
H186 C211 0.930 . S
H187 C217 0.930 . S
O188 Co177 2.093 . S
O188 C180 1.224 . S
H189 C221 0.929 . S
H190 C223 0.930 . S
H191 C224 0.930 . S
H192 C222 0.929 . S
H193 C225 0.928 . S
O194 Co178 2.057 . S
O194 C182 1.232 . S
H195 C214 0.929 . S
H196 C215 0.929 . S
H197 C227 0.931 . S
H198 C219 0.929 . S
H199 C228 0.930 . S
H200 C220 0.931 . S
O201 Co177 2.097 . S
O201 C229 1.214 . S
H202 C230 0.929 . S
H203 C231 0.929 . S
H204 C232 0.930 . S
H205 C233 0.929 . S
H206 C235 0.929 1_556 S
H207 C212 0.930 . S
H208 C216 0.930 . S
O209 Co178 2.037 . S
O209 C229 1.234 . S
C210 O184 1.269 . S
C210 O185 1.257 . S
C211 H186 0.930 . S
C211 C214 1.388 . S
C211 C216 1.418 1_565 S
C212 H207 0.930 . S
C212 C215 1.404 1_545 S
C212 C216 1.353 . S
N213 Co178 2.145 . S
N213 C214 1.397 . S
N213 C215 1.334 . S
C214 H195 0.929 . S
C214 C211 1.388 . S
C214 N213 1.397 . S
C215 H196 0.929 . S
C215 C212 1.404 1_565 S
C215 N213 1.334 . S
C216 H208 0.930 . S
C216 C211 1.418 1_545 S
C216 C212 1.353 . S
C217 H187 0.930 . S
C217 N218 1.330 . S
C217 C219 1.446 1_455 S
N218 Co177 2.151 . S
N218 C217 1.330 . S
N218 C222 1.418 . S
C219 H198 0.929 . S
C219 C217 1.446 1_655 S
C219 C220 1.332 . S
C220 H200 0.931 . S
C220 C219 1.332 . S
C220 C221 1.267 1_655 S
C221 H189 0.929 . S
C221 C220 1.267 1_455 S
C221 C222 1.251 . S
C222 H192 0.929 . S
C222 N218 1.418 . S
C222 C221 1.251 . S
C223 H190 0.930 . S
C223 C225 1.406 . S
C223 C228 1.261 . S
C224 H191 0.930 . S
C224 N226 1.325 . S
C224 C227 1.357 . S
C225 H193 0.928 . S
C225 C223 1.406 . S
C225 N226 1.261 . S
N226 Co177 2.214 . S
N226 C224 1.325 . S
N226 C225 1.261 . S
C227 H197 0.931 . S
C227 C224 1.357 . S
C227 C228 1.312 . S
C228 H199 0.930 . S
C228 C223 1.261 . S
C228 C227 1.312 . S
C229 O201 1.214 . S
C229 O209 1.234 . S
C230 H202 0.929 . S
C230 C233 1.391 . S
C230 C235 1.394 . S
C231 H203 0.929 . S
C231 C232 1.390 1_556 S
C231 N234 1.391 . S
C232 H204 0.930 . S
C232 C231 1.390 1_554 S
C232 C233 1.392 . S
C233 H205 0.929 . S
C233 C230 1.391 . S
C233 C232 1.392 . S
N234 Co178 2.257 . S
N234 C231 1.391 . S
N234 C235 1.386 1_556 S
C235 H206 0.929 1_554 S
C235 C230 1.394 . S
C235 N234 1.386 1_554 S
Co236 O238 2.143 . S
Co236 O244 2.074 . S
Co236 O247 2.093 . S
Co236 O260 2.097 . S
Co236 N277 2.151 . S
Co236 N285 2.214 . S
Co237 O238 2.160 . S
Co237 O243 2.058 . S
Co237 O253 2.057 . S
Co237 O268 2.037 . S
Co237 N272 2.145 . S
Co237 N293 2.257 . S
O238 Co236 2.143 . S
O238 Co237 2.160 . S
C239 O240 1.278 . S
C239 O247 1.224 . S
O240 C239 1.278 . S
C241 O242 1.245 . S
C241 O253 1.232 . S
O242 C241 1.245 . S
O243 Co237 2.058 . S
O243 C269 1.269 . S
O244 Co236 2.074 . S
O244 C269 1.257 . S
H245 C270 0.930 . S
H246 C276 0.930 . S
O247 Co236 2.093 . S
O247 C239 1.224 . S
H248 C280 0.929 . S
H249 C282 0.930 . S
H250 C283 0.930 . S
H251 C281 0.929 . S
H252 C284 0.928 . S
O253 Co237 2.057 . S
O253 C241 1.232 . S
H254 C273 0.929 . S
H255 C274 0.929 . S
H256 C286 0.931 . S
H257 C278 0.929 . S
H258 C287 0.930 . S
H259 C279 0.931 . S
O260 Co236 2.097 . S
O260 C288 1.214 . S
H261 C289 0.929 . S
H262 C290 0.929 . S
H263 C291 0.930 . S
H264 C292 0.929 . S
H265 C294 0.930 . S
H266 C271 0.930 . S
H267 C275 0.930 . S
O268 Co237 2.037 . S
O268 C288 1.234 . S
C269 O243 1.269 . S
C269 O244 1.257 . S
C270 H245 0.930 . S
C270 C273 1.388 . S
C270 C275 1.418 . S
C271 H266 0.930 . S
C271 C274 1.404 . S
C271 C275 1.353 . S
N272 Co237 2.145 . S
N272 C273 1.397 . S
N272 C274 1.334 . S
C273 H254 0.929 . S
C273 C270 1.388 . S
C273 N272 1.397 . S
C274 H255 0.929 . S
C274 C271 1.404 . S
C274 N272 1.334 . S
C275 H267 0.930 . S
C275 C270 1.418 . S
C275 C271 1.353 . S
C276 H246 0.930 . S
C276 N277 1.330 . S
C276 C278 1.446 . S
N277 Co236 2.151 . S
N277 C276 1.330 . S
N277 C281 1.418 . S
C278 H257 0.929 . S
C278 C276 1.446 . S
C278 C279 1.332 . S
C279 H259 0.931 . S
C279 C278 1.332 . S
C279 C280 1.267 . S
C280 H248 0.929 . S
C280 C279 1.267 . S
C280 C281 1.251 . S
C281 H251 0.929 . S
C281 N277 1.418 . S
C281 C280 1.251 . S
C282 H249 0.930 . S
C282 C284 1.406 . S
C282 C287 1.261 . S
C283 H250 0.930 . S
C283 N285 1.325 . S
C283 C286 1.357 . S
C284 H252 0.928 . S
C284 C282 1.406 . S
C284 N285 1.261 1_545 S
N285 Co236 2.214 . S
N285 C283 1.325 . S
N285 C284 1.261 1_565 S
C286 H256 0.931 . S
C286 C283 1.357 . S
C286 C287 1.312 1_565 S
C287 H258 0.930 . S
C287 C282 1.261 . S
C287 C286 1.312 1_545 S
C288 O260 1.214 . S
C288 O268 1.234 . S
C289 H261 0.929 . S
C289 C292 1.391 . S
C289 C294 1.391 . S
C290 H262 0.929 . S
C290 C291 1.390 . S
C290 N293 1.391 . S
C291 H263 0.930 . S
C291 C290 1.390 . S
C291 C292 1.392 . S
C292 H264 0.929 . S
C292 C289 1.391 . S
C292 C291 1.392 . S
N293 Co237 2.257 . S
N293 C290 1.391 . S
N293 C294 1.388 . S
C294 H265 0.930 . S
C294 C289 1.391 . S
C294 N293 1.388 . S
Co295 O297 2.143 . S
Co295 O303 2.074 . S
Co295 O306 2.093 . S
Co295 O319 2.097 . S
Co295 N336 2.151 . S
Co295 N344 2.214 . S
Co296 O297 2.160 . S
Co296 O302 2.058 . S
Co296 O312 2.057 . S
Co296 O327 2.037 . S
Co296 N331 2.145 . S
Co296 N352 2.257 . S
O297 Co295 2.143 . S
O297 Co296 2.160 . S
C298 O299 1.278 . S
C298 O306 1.224 . S
O299 C298 1.278 . S
C300 O301 1.245 . S
C300 O312 1.232 . S
O301 C300 1.245 . S
O302 Co296 2.058 . S
O302 C328 1.269 . S
O303 Co295 2.074 . S
O303 C328 1.257 . S
H304 C329 0.930 . S
H305 C335 0.930 . S
O306 Co295 2.093 . S
O306 C298 1.224 . S
H307 C339 0.929 . S
H308 C341 0.930 . S
H309 C342 0.930 . S
H310 C340 0.929 . S
H311 C343 0.928 . S
O312 Co296 2.057 . S
O312 C300 1.232 . S
H313 C332 0.929 . S
H314 C333 0.929 . S
H315 C345 0.931 . S
H316 C337 0.929 . S
H317 C346 0.930 . S
H318 C338 0.931 . S
O319 Co295 2.097 . S
O319 C347 1.214 . S
H320 C348 0.929 . S
H321 C349 0.929 . S
H322 C350 0.930 . S
H323 C351 0.929 . S
H324 C353 0.929 1_554 S
H325 C330 0.930 . S
H326 C334 0.930 . S
O327 Co296 2.037 . S
O327 C347 1.234 . S
C328 O302 1.269 . S
C328 O303 1.257 . S
C329 H304 0.930 . S
C329 C332 1.388 . S
C329 C334 1.418 . S
C330 H325 0.930 . S
C330 C333 1.404 . S
C330 C334 1.353 . S
N331 Co296 2.145 . S
N331 C332 1.397 . S
N331 C333 1.334 . S
C332 H313 0.929 . S
C332 C329 1.388 . S
C332 N331 1.397 . S
C333 H314 0.929 . S
C333 C330 1.404 . S
C333 N331 1.334 . S
C334 H326 0.930 . S
C334 C329 1.418 . S
C334 C330 1.353 . S
C335 H305 0.930 . S
C335 N336 1.330 . S
C335 C337 1.446 . S
N336 Co295 2.151 . S
N336 C335 1.330 . S
N336 C340 1.418 . S
C337 H316 0.929 . S
C337 C335 1.446 . S
C337 C338 1.332 . S
C338 H318 0.931 . S
C338 C337 1.332 . S
C338 C339 1.267 . S
C339 H307 0.929 . S
C339 C338 1.267 . S
C339 C340 1.251 . S
C340 H310 0.929 . S
C340 N336 1.418 . S
C340 C339 1.251 . S
C341 H308 0.930 . S
C341 C343 1.406 . S
C341 C346 1.261 . S
C342 H309 0.930 . S
C342 N344 1.325 . S
C342 C345 1.357 . S
C343 H311 0.928 . S
C343 C341 1.406 . S
C343 N344 1.261 1_545 S
N344 Co295 2.214 . S
N344 C342 1.325 . S
N344 C343 1.261 1_565 S
C345 H315 0.931 . S
C345 C342 1.357 . S
C345 C346 1.312 1_565 S
C346 H317 0.930 . S
C346 C341 1.261 . S
C346 C345 1.312 1_545 S
C347 O319 1.214 . S
C347 O327 1.234 . S
C348 H320 0.929 . S
C348 C351 1.391 . S
C348 C353 1.394 . S
C349 H321 0.929 . S
C349 C350 1.390 1_554 S
C349 N352 1.391 . S
C350 H322 0.930 . S
C350 C349 1.390 1_556 S
C350 C351 1.392 . S
C351 H323 0.929 . S
C351 C348 1.391 . S
C351 C350 1.392 . S
N352 Co296 2.257 . S
N352 C349 1.391 . S
N352 C353 1.386 1_554 S
C353 H324 0.929 1_556 S
C353 C348 1.394 . S
C353 N352 1.386 1_556 S
Co354 O356 2.143 . S
Co354 O362 2.074 . S
Co354 O365 2.093 . S
Co354 O378 2.097 . S
Co354 N395 2.151 . S
Co354 N403 2.214 . S
Co355 O356 2.160 . S
Co355 O361 2.058 . S
Co355 O371 2.057 . S
Co355 O386 2.037 . S
Co355 N390 2.145 . S
Co355 N411 2.257 . S
O356 Co354 2.143 . S
O356 Co355 2.160 . S
C357 O358 1.278 . S
C357 O365 1.224 . S
O358 C357 1.278 . S
C359 O360 1.245 . S
C359 O371 1.232 . S
O360 C359 1.245 . S
O361 Co355 2.058 . S
O361 C387 1.269 . S
O362 Co354 2.074 . S
O362 C387 1.257 . S
H363 C388 0.930 . S
H364 C394 0.930 . S
O365 Co354 2.093 . S
O365 C357 1.224 . S
H366 C398 0.929 . S
H367 C400 0.930 . S
H368 C401 0.930 . S
H369 C399 0.929 . S
H370 C402 0.928 . S
O371 Co355 2.057 . S
O371 C359 1.232 . S
H372 C391 0.929 . S
H373 C392 0.929 . S
H374 C404 0.931 . S
H375 C396 0.929 . S
H376 C405 0.930 . S
H377 C397 0.931 . S
O378 Co354 2.097 . S
O378 C406 1.214 . S
H379 C407 0.929 . S
H380 C408 0.929 . S
H381 C409 0.930 . S
H382 C410 0.929 . S
H383 C412 0.930 . S
H384 C389 0.930 . S
H385 C393 0.930 . S
O386 Co355 2.037 . S
O386 C406 1.234 . S
C387 O361 1.269 . S
C387 O362 1.257 . S
C388 H363 0.930 . S
C388 C391 1.388 . S
C388 C393 1.418 . S
C389 H384 0.930 . S
C389 C392 1.404 . S
C389 C393 1.353 . S
N390 Co355 2.145 . S
N390 C391 1.397 . S
N390 C392 1.334 . S
C391 H372 0.929 . S
C391 C388 1.388 . S
C391 N390 1.397 . S
C392 H373 0.929 . S
C392 C389 1.404 . S
C392 N390 1.334 . S
C393 H385 0.930 . S
C393 C388 1.418 . S
C393 C389 1.353 . S
C394 H364 0.930 . S
C394 N395 1.330 . S
C394 C396 1.446 . S
N395 Co354 2.151 . S
N395 C394 1.330 . S
N395 C399 1.418 . S
C396 H375 0.929 . S
C396 C394 1.446 . S
C396 C397 1.332 . S
C397 H377 0.931 . S
C397 C396 1.332 . S
C397 C398 1.267 . S
C398 H366 0.929 . S
C398 C397 1.267 . S
C398 C399 1.251 . S
C399 H369 0.929 . S
C399 N395 1.418 . S
C399 C398 1.251 . S
C400 H367 0.930 . S
C400 C402 1.406 . S
C400 C405 1.261 . S
C401 H368 0.930 . S
C401 N403 1.325 . S
C401 C404 1.357 . S
C402 H370 0.928 . S
C402 C400 1.406 . S
C402 N403 1.261 1_565 S
N403 Co354 2.214 . S
N403 C401 1.325 . S
N403 C402 1.261 1_545 S
C404 H374 0.931 . S
C404 C401 1.357 . S
C404 C405 1.312 1_545 S
C405 H376 0.930 . S
C405 C400 1.261 . S
C405 C404 1.312 1_565 S
C406 O378 1.214 . S
C406 O386 1.234 . S
C407 H379 0.929 . S
C407 C410 1.391 . S
C407 C412 1.391 . S
C408 H380 0.929 . S
C408 C409 1.390 . S
C408 N411 1.391 . S
C409 H381 0.930 . S
C409 C408 1.390 . S
C409 C410 1.392 . S
C410 H382 0.929 . S
C410 C407 1.391 . S
C410 C409 1.392 . S
N411 Co355 2.257 . S
N411 C408 1.391 . S
N411 C412 1.388 . S
C412 H383 0.930 . S
C412 C407 1.391 . S
C412 N411 1.388 . S
Co413 O415 2.143 . S
Co413 O421 2.074 . S
Co413 O424 2.093 . S
Co413 O437 2.097 . S
Co413 N454 2.151 . S
Co413 N462 2.214 . S
Co414 O415 2.160 . S
Co414 O420 2.058 . S
Co414 O430 2.057 . S
Co414 O445 2.037 . S
Co414 N449 2.145 . S
Co414 N470 2.257 . S
O415 Co413 2.143 . S
O415 Co414 2.160 . S
C416 O417 1.278 . S
C416 O424 1.224 . S
O417 C416 1.278 . S
C418 O419 1.245 . S
C418 O430 1.232 . S
O419 C418 1.245 . S
O420 Co414 2.058 . S
O420 C446 1.269 . S
O421 Co413 2.074 . S
O421 C446 1.257 . S
H422 C447 0.930 . S
H423 C453 0.930 . S
O424 Co413 2.093 . S
O424 C416 1.224 . S
H425 C457 0.929 . S
H426 C459 0.930 . S
H427 C460 0.930 . S
H428 C458 0.929 . S
H429 C461 0.928 . S
O430 Co414 2.057 . S
O430 C418 1.232 . S
H431 C450 0.929 . S
H432 C451 0.929 . S
H433 C463 0.931 . S
H434 C455 0.929 . S
H435 C464 0.930 . S
H436 C456 0.931 . S
O437 Co413 2.097 . S
O437 C465 1.214 . S
H438 C466 0.929 . S
H439 C467 0.929 . S
H440 C468 0.930 . S
H441 C469 0.929 . S
H442 C471 0.929 1_556 S
H443 C448 0.930 . S
H444 C452 0.930 . S
O445 Co414 2.037 . S
O445 C465 1.234 . S
C446 O420 1.269 . S
C446 O421 1.257 . S
C447 H422 0.930 . S
C447 C450 1.388 . S
C447 C452 1.418 . S
C448 H443 0.930 . S
C448 C451 1.404 . S
C448 C452 1.353 . S
N449 Co414 2.145 . S
N449 C450 1.397 . S
N449 C451 1.334 . S
C450 H431 0.929 . S
C450 C447 1.388 . S
C450 N449 1.397 . S
C451 H432 0.929 . S
C451 C448 1.404 . S
C451 N449 1.334 . S
C452 H444 0.930 . S
C452 C447 1.418 . S
C452 C448 1.353 . S
C453 H423 0.930 . S
C453 N454 1.330 . S
C453 C455 1.446 . S
N454 Co413 2.151 . S
N454 C453 1.330 . S
N454 C458 1.418 . S
C455 H434 0.929 . S
C455 C453 1.446 . S
C455 C456 1.332 . S
C456 H436 0.931 . S
C456 C455 1.332 . S
C456 C457 1.267 . S
C457 H425 0.929 . S
C457 C456 1.267 . S
C457 C458 1.251 . S
C458 H428 0.929 . S
C458 N454 1.418 . S
C458 C457 1.251 . S
C459 H426 0.930 . S
C459 C461 1.406 . S
C459 C464 1.261 . S
C460 H427 0.930 . S
C460 N462 1.325 . S
C460 C463 1.357 . S
C461 H429 0.928 . S
C461 C459 1.406 . S
C461 N462 1.261 1_565 S
N462 Co413 2.214 . S
N462 C460 1.325 . S
N462 C461 1.261 1_545 S
C463 H433 0.931 . S
C463 C460 1.357 . S
C463 C464 1.312 1_545 S
C464 H435 0.930 . S
C464 C459 1.261 . S
C464 C463 1.312 1_565 S
C465 O437 1.214 . S
C465 O445 1.234 . S
C466 H438 0.929 . S
C466 C469 1.391 . S
C466 C471 1.394 . S
C467 H439 0.929 . S
C467 C468 1.390 1_556 S
C467 N470 1.391 . S
C468 H440 0.930 . S
C468 C467 1.390 1_554 S
C468 C469 1.392 . S
C469 H441 0.929 . S
C469 C466 1.391 . S
C469 C468 1.392 . S
N470 Co414 2.257 . S
N470 C467 1.391 . S
N470 C471 1.386 1_556 S
C471 H442 0.929 1_554 S
C471 C466 1.394 . S
C471 N470 1.386 1_554 S
C472 C473 1.363 . S
C472 C478 1.379 1_545 S
C472 N480 1.356 . S
C473 C472 1.363 . S
C473 C479 1.363 1_455 S
C474 C475 1.363 . S
C474 C479 1.379 1_565 S
C474 N481 1.356 . S
C475 C474 1.363 . S
C475 C478 1.363 1_655 S
N476 C478 1.356 . S
N476 H488 0.984 . S
N476 H489 0.985 . S
N477 C479 1.356 . S
N477 H482 0.984 . S
N477 H483 0.985 . S
C478 C472 1.379 1_565 S
C478 C475 1.363 1_455 S
C478 N476 1.356 . S
C479 C473 1.363 1_655 S
C479 C474 1.379 1_545 S
C479 N477 1.356 . S
N480 C472 1.356 . S
N480 H486 0.984 . S
N480 H487 0.984 . S
N481 C474 1.356 . S
N481 H484 0.984 . S
N481 H485 0.985 . S
H482 N477 0.984 . S
H483 N477 0.985 . S
H484 N481 0.984 . S
H485 N481 0.985 . S
H486 N480 0.984 . S
H487 N480 0.984 . S
H488 N476 0.984 . S
H489 N476 0.985 . S
C490 C491 1.363 . S
C490 C496 1.379 1_566 S
C490 N498 1.356 . S
C491 C490 1.363 . S
C491 C497 1.363 1_455 S
C492 C493 1.363 . S
C492 C497 1.379 1_544 S
C492 N499 1.356 . S
C493 C492 1.363 . S
C493 C496 1.363 1_655 S
N494 C496 1.356 . S
N494 H506 0.984 . S
N494 H507 0.985 . S
N495 C497 1.356 . S
N495 H500 0.984 . S
N495 H501 0.985 . S
C496 C490 1.379 1_544 S
C496 C493 1.363 1_455 S
C496 N494 1.356 . S
C497 C491 1.363 1_655 S
C497 C492 1.379 1_566 S
C497 N495 1.356 . S
N498 C490 1.356 . S
N498 H504 0.984 . S
N498 H505 0.984 . S
N499 C492 1.356 . S
N499 H502 0.984 . S
N499 H503 0.985 . S
H500 N495 0.984 . S
H501 N495 0.985 . S
H502 N499 0.984 . S
H503 N499 0.985 . S
H504 N498 0.984 . S
H505 N498 0.984 . S
H506 N494 0.984 . S
H507 N494 0.985 . S
C508 C509 1.363 . S
C508 C514 1.379 . S
C508 N516 1.356 . S
C509 C508 1.363 . S
C509 C515 1.363 . S
C510 C511 1.363 . S
C510 C515 1.379 . S
C510 N517 1.356 . S
C511 C510 1.363 . S
C511 C514 1.363 . S
N512 C514 1.356 . S
N512 H524 0.984 . S
N512 H525 0.985 . S
N513 C515 1.356 . S
N513 H518 0.984 . S
N513 H519 0.985 . S
C514 C508 1.379 . S
C514 C511 1.363 . S
C514 N512 1.356 . S
C515 C509 1.363 . S
C515 C510 1.379 . S
C515 N513 1.356 . S
N516 C508 1.356 . S
N516 H522 0.984 . S
N516 H523 0.984 . S
N517 C510 1.356 . S
N517 H520 0.984 . S
N517 H521 0.985 . S
H518 N513 0.984 . S
H519 N513 0.985 . S
H520 N517 0.984 . S
H521 N517 0.985 . S
H522 N516 0.984 . S
H523 N516 0.984 . S
H524 N512 0.984 . S
H525 N512 0.985 . S
C526 C527 1.363 1_556 S
C526 C532 1.379 . S
C526 N534 1.356 . S
C527 C526 1.363 1_554 S
C527 C533 1.363 . S
C528 C529 1.363 1_554 S
C528 C533 1.379 . S
C528 N535 1.356 . S
C529 C528 1.363 1_556 S
C529 C532 1.363 . S
N530 C532 1.356 . S
N530 H542 0.984 . S
N530 H543 0.985 . S
N531 C533 1.356 . S
N531 H536 0.984 . S
N531 H537 0.985 . S
C532 C526 1.379 . S
C532 C529 1.363 . S
C532 N530 1.356 . S
C533 C527 1.363 . S
C533 C528 1.379 . S
C533 N531 1.356 . S
N534 C526 1.356 . S
N534 H540 0.984 . S
N534 H541 0.984 1_556 S
N535 C528 1.356 . S
N535 H538 0.984 1_554 S
N535 H539 0.985 . S
H536 N531 0.984 . S
H537 N531 0.985 . S
H538 N535 0.984 1_556 S
H539 N535 0.985 . S
H540 N534 0.984 . S
H541 N534 0.984 1_554 S
H542 N530 0.984 . S
H543 N530 0.985 . S
C544 C545 1.363 . S
C544 C550 1.379 . S
C544 N552 1.356 . S
C545 C544 1.363 . S
C545 C551 1.363 1_654 S
C546 C547 1.363 . S
C546 C551 1.379 . S
C546 N553 1.356 . S
C547 C546 1.363 . S
C547 C550 1.363 1_456 S
N548 C550 1.356 1_455 S
N548 H560 0.984 1_455 S
N548 H561 0.985 . S
N549 C551 1.356 1_655 S
N549 H554 0.984 . S
N549 H555 0.985 1_655 S
C550 C544 1.379 . S
C550 C547 1.363 1_654 S
C550 N548 1.356 1_655 S
C551 C545 1.363 1_456 S
C551 C546 1.379 . S
C551 N549 1.356 1_455 S
N552 C544 1.356 . S
N552 H558 0.984 . S
N552 H559 0.984 . S
N553 C546 1.356 . S
N553 H556 0.984 . S
N553 H557 0.985 . S
H554 N549 0.984 . S
H555 N549 0.985 1_455 S
H556 N553 0.984 . S
H557 N553 0.985 . S
H558 N552 0.984 . S
H559 N552 0.984 . S
H560 N548 0.984 1_655 S
H561 N548 0.985 . S
C562 C563 1.355 1_655 S
C562 C568 1.389 . S
C562 N570 1.351 1_655 S
C563 C562 1.355 1_455 S
C563 C569 1.363 . S
C564 C565 1.355 1_455 S
C564 C569 1.389 . S
C564 N571 1.351 1_455 S
C565 C564 1.355 1_655 S
C565 C568 1.363 . S
N566 C568 1.356 . S
N566 H578 0.984 . S
N566 H579 0.985 . S
N567 C569 1.356 . S
N567 H572 0.984 . S
N567 H573 0.985 . S
C568 C562 1.389 . S
C568 C565 1.363 . S
C568 N566 1.356 . S
C569 C563 1.363 . S
C569 C564 1.389 . S
C569 N567 1.356 . S
N570 C562 1.351 1_455 S
N570 H576 0.984 1_455 S
N570 H577 0.984 . S
N571 C564 1.351 1_655 S
N571 H574 0.984 . S
N571 H575 0.985 1_655 S
H572 N567 0.984 . S
H573 N567 0.985 . S
H574 N571 0.984 . S
H575 N571 0.985 1_455 S
H576 N570 0.984 1_655 S
H577 N570 0.984 . S
H578 N566 0.984 . S
H579 N566 0.985 . S
C580 C581 1.363 . S
C580 C586 1.379 1_545 S
C580 N588 1.356 . S
C581 C580 1.363 . S
C581 C587 1.363 1_556 S
C582 C583 1.363 . S
C582 C587 1.379 1_565 S
C582 N589 1.356 . S
C583 C582 1.363 . S
C583 C586 1.363 1_554 S
N584 C586 1.356 . S
N584 H596 0.984 . S
N584 H597 0.985 . S
N585 C587 1.356 . S
N585 H590 0.984 . S
N585 H591 0.985 . S
C586 C580 1.379 1_565 S
C586 C583 1.363 1_556 S
C586 N584 1.356 . S
C587 C581 1.363 1_554 S
C587 C582 1.379 1_545 S
C587 N585 1.356 . S
N588 C580 1.356 . S
N588 H594 0.984 . S
N588 H595 0.984 . S
N589 C582 1.356 . S
N589 H592 0.984 . S
N589 H593 0.985 . S
H590 N585 0.984 . S
H591 N585 0.985 . S
H592 N589 0.984 . S
H593 N589 0.985 . S
H594 N588 0.984 . S
H595 N588 0.984 . S
H596 N584 0.984 . S
H597 N584 0.985 . S
C598 C599 1.363 1_545 S
C598 C604 1.379 . S
C598 N606 1.356 . S
C599 C598 1.363 1_565 S
C599 C605 1.363 . S
C600 C601 1.363 1_565 S
C600 C605 1.379 . S
C600 N607 1.356 . S
C601 C600 1.363 1_545 S
C601 C604 1.363 . S
N602 C604 1.356 . S
N602 H614 0.984 . S
N602 H615 0.985 . S
N603 C605 1.356 . S
N603 H608 0.984 . S
N603 H609 0.985 . S
C604 C598 1.379 . S
C604 C601 1.363 . S
C604 N602 1.356 . S
C605 C599 1.363 . S
C605 C600 1.379 . S
C605 N603 1.356 . S
N606 C598 1.356 . S
N606 H612 0.984 . S
N606 H613 0.984 1_545 S
N607 C600 1.356 . S
N607 H610 0.984 1_565 S
N607 H611 0.985 . S
H608 N603 0.984 . S
H609 N603 0.985 . S
H610 N607 0.984 1_545 S
H611 N607 0.985 . S
H612 N606 0.984 . S
H613 N606 0.984 1_565 S
H614 N602 0.984 . S
H615 N602 0.985 . S
C616 C617 1.363 . S
C616 C622 1.379 . S
C616 N624 1.356 . S
C617 C616 1.363 . S
C617 C623 1.363 . S
C618 C619 1.363 . S
C618 C623 1.379 . S
C618 N625 1.356 . S
C619 C618 1.363 . S
C619 C622 1.363 . S
N620 C622 1.356 . S
N620 H632 0.984 . S
N620 H633 0.985 . S
N621 C623 1.356 . S
N621 H626 0.984 . S
N621 H627 0.985 . S
C622 C616 1.379 . S
C622 C619 1.363 . S
C622 N620 1.356 . S
C623 C617 1.363 . S
C623 C618 1.379 . S
C623 N621 1.356 . S
N624 C616 1.356 . S
N624 H630 0.984 . S
N624 H631 0.984 . S
N625 C618 1.356 . S
N625 H628 0.984 . S
N625 H629 0.985 . S
H626 N621 0.984 . S
H627 N621 0.985 . S
H628 N625 0.984 . S
H629 N625 0.985 . S
H630 N624 0.984 . S
H631 N624 0.984 . S
H632 N620 0.984 . S
H633 N620 0.985 . S
C634 C635 1.363 . S
C634 C640 1.379 1_556 S
C634 N642 1.356 . S
C635 C634 1.363 . S
C635 C641 1.363 . S
C636 C637 1.363 . S
C636 C641 1.379 1_554 S
C636 N643 1.356 . S
C637 C636 1.363 . S
C637 C640 1.363 . S
N638 C640 1.356 . S
N638 H650 0.984 . S
N638 H651 0.985 . S
N639 C641 1.356 . S
N639 H644 0.984 . S
N639 H645 0.985 . S
C640 C634 1.379 1_554 S
C640 C637 1.363 . S
C640 N638 1.356 . S
C641 C635 1.363 . S
C641 C636 1.379 1_556 S
C641 N639 1.356 . S
N642 C634 1.356 . S
N642 H648 0.984 . S
N642 H649 0.984 . S
N643 C636 1.356 . S
N643 H646 0.984 . S
N643 H647 0.985 . S
H644 N639 0.984 . S
H645 N639 0.985 . S
H646 N643 0.984 . S
H647 N643 0.985 . S
H648 N642 0.984 . S
H649 N642 0.984 . S
H650 N638 0.984 . S
H651 N638 0.985 . S
C652 C653 1.363 . S
C652 C658 1.379 . S
C652 N660 1.356 . S
C653 C652 1.363 . S
C653 C659 1.363 . S
C654 C655 1.363 . S
C654 C659 1.379 . S
C654 N661 1.356 . S
C655 C654 1.363 . S
C655 C658 1.363 . S
N656 C658 1.356 . S
N656 H668 0.984 . S
N656 H669 0.985 . S
N657 C659 1.356 . S
N657 H662 0.984 . S
N657 H663 0.985 . S
C658 C652 1.379 . S
C658 C655 1.363 . S
C658 N656 1.356 . S
C659 C653 1.363 . S
C659 C654 1.379 . S
C659 N657 1.356 . S
N660 C652 1.356 . S
N660 H666 0.984 . S
N660 H667 0.984 . S
N661 C654 1.356 . S
N661 H664 0.984 . S
N661 H665 0.985 . S
H662 N657 0.984 . S
H663 N657 0.985 . S
H664 N661 0.984 . S
H665 N661 0.985 . S
H666 N660 0.984 . S
H667 N660 0.984 . S
H668 N656 0.984 . S
H669 N656 0.985 . S
C670 C671 1.363 . S
C670 C676 1.379 1_554 S
C670 N678 1.356 . S
C671 C670 1.363 . S
C671 C677 1.363 . S
C672 C673 1.363 . S
C672 C677 1.379 1_556 S
C672 N679 1.356 . S
C673 C672 1.363 . S
C673 C676 1.363 . S
N674 C676 1.356 . S
N674 H686 0.984 . S
N674 H687 0.985 . S
N675 C677 1.356 . S
N675 H680 0.984 . S
N675 H681 0.985 . S
C676 C670 1.379 1_556 S
C676 C673 1.363 . S
C676 N674 1.356 . S
C677 C671 1.363 . S
C677 C672 1.379 1_554 S
C677 N675 1.356 . S
N678 C670 1.356 . S
N678 H684 0.984 . S
N678 H685 0.984 . S
N679 C672 1.356 . S
N679 H682 0.984 . S
N679 H683 0.985 . S
H680 N675 0.984 . S
H681 N675 0.985 . S
H682 N679 0.984 . S
H683 N679 0.985 . S
H684 N678 0.984 . S
H685 N678 0.984 . S
H686 N674 0.984 . S
H687 N674 0.985 . S
C688 C689 1.363 . S
C688 C694 1.379 . S
C688 N696 1.356 . S
C689 C688 1.363 . S
C689 C695 1.363 . S
C690 C691 1.363 . S
C690 C695 1.379 . S
C690 N697 1.356 . S
C691 C690 1.363 . S
C691 C694 1.363 . S
N692 C694 1.356 . S
N692 H704 0.984 . S
N692 H705 0.985 . S
N693 C695 1.356 . S
N693 H698 0.984 . S
N693 H699 0.985 . S
C694 C688 1.379 . S
C694 C691 1.363 . S
C694 N692 1.356 . S
C695 C689 1.363 . S
C695 C690 1.379 . S
C695 N693 1.356 . S
N696 C688 1.356 . S
N696 H702 0.984 . S
N696 H703 0.984 . S
N697 C690 1.356 . S
N697 H700 0.984 . S
N697 H701 0.985 . S
H698 N693 0.984 . S
H699 N693 0.985 . S
H700 N697 0.984 . S
H701 N697 0.985 . S
H702 N696 0.984 . S
H703 N696 0.984 . S
H704 N692 0.984 . S
H705 N692 0.985 . S
C706 C707 1.363 . S
C706 C712 1.379 . S
C706 N714 1.356 . S
C707 C706 1.363 . S
C707 C713 1.363 . S
C708 C709 1.363 . S
C708 C713 1.379 . S
C708 N715 1.356 . S
C709 C708 1.363 . S
C709 C712 1.363 . S
N710 C712 1.356 . S
N710 H722 0.984 . S
N710 H723 0.985 . S
N711 C713 1.356 . S
N711 H716 0.984 . S
N711 H717 0.985 . S
C712 C706 1.379 . S
C712 C709 1.363 . S
C712 N710 1.356 . S
C713 C707 1.363 . S
C713 C708 1.379 . S
C713 N711 1.356 . S
N714 C706 1.356 . S
N714 H720 0.984 . S
N714 H721 0.984 . S
N715 C708 1.356 . S
N715 H718 0.984 . S
N715 H719 0.985 . S
H716 N711 0.984 . S
H717 N711 0.985 . S
H718 N715 0.984 . S
H719 N715 0.985 . S
H720 N714 0.984 . S
H721 N714 0.984 . S
H722 N710 0.984 . S
H723 N710 0.985 . S
C724 C725 1.363 . S
C724 C730 1.379 1_455 S
C724 N732 1.356 . S
C725 C724 1.363 . S
C725 C731 1.363 . S
C726 C727 1.363 . S
C726 C731 1.379 1_655 S
C726 N733 1.356 . S
C727 C726 1.363 . S
C727 C730 1.363 . S
N728 C730 1.356 . S
N728 H740 0.984 . S
N728 H741 0.985 . S
N729 C731 1.356 . S
N729 H734 0.984 . S
N729 H735 0.985 . S
C730 C724 1.379 1_655 S
C730 C727 1.363 . S
C730 N728 1.356 . S
C731 C725 1.363 . S
C731 C726 1.379 1_455 S
C731 N729 1.356 . S
N732 C724 1.356 . S
N732 H738 0.984 . S
N732 H739 0.984 . S
N733 C726 1.356 . S
N733 H736 0.984 . S
N733 H737 0.985 . S
H734 N729 0.984 . S
H735 N729 0.985 . S
H736 N733 0.984 . S
H737 N733 0.985 . S
H738 N732 0.984 . S
H739 N732 0.984 . S
H740 N728 0.984 . S
H741 N728 0.985 . S
C742 C743 1.363 . S
C742 C748 1.379 1_455 S
C742 N750 1.356 . S
C743 C742 1.363 . S
C743 C749 1.363 . S
C744 C745 1.363 . S
C744 C749 1.379 1_655 S
C744 N751 1.356 . S
C745 C744 1.363 . S
C745 C748 1.363 . S
N746 C748 1.356 . S
N746 H758 0.984 . S
N746 H759 0.985 . S
N747 C749 1.356 . S
N747 H752 0.984 . S
N747 H753 0.985 . S
C748 C742 1.379 1_655 S
C748 C745 1.363 . S
C748 N746 1.356 . S
C749 C743 1.363 . S
C749 C744 1.379 1_455 S
C749 N747 1.356 . S
N750 C742 1.356 . S
N750 H756 0.984 . S
N750 H757 0.984 . S
N751 C744 1.356 . S
N751 H754 0.984 . S
N751 H755 0.985 . S
H752 N747 0.984 . S
H753 N747 0.985 . S
H754 N751 0.984 . S
H755 N751 0.985 . S
H756 N750 0.984 . S
H757 N750 0.984 . S
H758 N746 0.984 . S
H759 N746 0.985 . S
C473 C5 2.007 . S
C475 C123 2.007 . S
C491 C182 2.007 . S
C493 C64 2.007 . S
C509 C359 2.007 . S
C511 C241 2.007 . S
C527 C300 2.007 . S
C529 C418 2.007 . S
C545 C62 1.342 . S
C547 C180 1.342 . S
C563 C3 1.342 . S
C565 C121 1.342 . S
C581 C416 1.342 . S
C583 C298 1.342 . S
C599 C239 1.342 . S
C601 C357 1.342 . S
C617 C328 1.597 . S
C619 C210 1.597 . S
C635 C151 1.597 . S
C637 C269 1.597 . S
C653 C92 1.597 . S
C655 C446 1.597 . S
C671 C33 1.597 . S
C673 C387 1.597 . S
C689 C52 1.624 . S
C691 C111 1.624 . S
C707 C170 1.624 . S
C709 C229 1.624 . S
C725 C347 1.624 . S
C727 C288 1.624 . S
C743 C406 1.624 . S
C745 C465 1.624 . S
