# Generated by pormake.
# Topology whv, (6)-cn, num edge types: 1
# Building blocks:
#     Node 0, Type 0, BuildingBlock: VOLQOD_clean_sbu_1, # of connection points: 6
#     Node 1, Type 0, BuildingBlock: VOLQOD_clean_sbu_1, # of connection points: 6
#     Node 2, Type 0, BuildingBlock: VOLQOD_clean_sbu_1, # of connection points: 6
#     Node 3, Type 0, BuildingBlock: VOLQOD_clean_sbu_1, # of connection points: 6
#     Node 4, Type 0, BuildingBlock: VOLQOD_clean_sbu_1, # of connection points: 6
#     Node 5, Type 0, BuildingBlock: VOLQOD_clean_sbu_1, # of connection points: 6
#     Node 6, Type 0, BuildingBlock: VOLQOD_clean_sbu_1, # of connection points: 6
#     Node 7, Type 0, BuildingBlock: VOLQOD_clean_sbu_1, # of connection points: 6
#     Node 8, Type 0, BuildingBlock: VOLQOD_clean_sbu_1, # of connection points: 6
#     Node 9, Type 0, BuildingBlock: VOLQOD_clean_sbu_1, # of connection points: 6
#     Node 10, Type 0, BuildingBlock: VOLQOD_clean_sbu_1, # of connection points: 6
#     Node 11, Type 0, BuildingBlock: VOLQOD_clean_sbu_1, # of connection points: 6
#     Node 12, Type 0, BuildingBlock: VOLQOD_clean_sbu_1, # of connection points: 6
#     Node 13, Type 0, BuildingBlock: VOLQOD_clean_sbu_1, # of connection points: 6
#     Node 14, Type 0, BuildingBlock: VOLQOD_clean_sbu_1, # of connection points: 6
#     Node 15, Type 0, BuildingBlock: VOLQOD_clean_sbu_1, # of connection points: 6
#     Edge 16, Type (0, 0), BuildingBlock: UVAHIK_clean_linker_0, # of connection points: 2
#     Edge 17, Type (0, 0), BuildingBlock: UVAHIK_clean_linker_0, # of connection points: 2
#     Edge 18, Type (0, 0), BuildingBlock: UVAHIK_clean_linker_0, # of connection points: 2
#     Edge 19, Type (0, 0), BuildingBlock: UVAHIK_clean_linker_0, # of connection points: 2
#     Edge 20, Type (0, 0), BuildingBlock: UVAHIK_clean_linker_0, # of connection points: 2
#     Edge 21, Type (0, 0), BuildingBlock: UVAHIK_clean_linker_0, # of connection points: 2
#     Edge 22, Type (0, 0), BuildingBlock: UVAHIK_clean_linker_0, # of connection points: 2
#     Edge 23, Type (0, 0), BuildingBlock: UVAHIK_clean_linker_0, # of connection points: 2
#     Edge 24, Type (0, 0), BuildingBlock: UVAHIK_clean_linker_0, # of connection points: 2
#     Edge 25, Type (0, 0), BuildingBlock: UVAHIK_clean_linker_0, # of connection points: 2
#     Edge 26, Type (0, 0), BuildingBlock: UVAHIK_clean_linker_0, # of connection points: 2
#     Edge 27, Type (0, 0), BuildingBlock: UVAHIK_clean_linker_0, # of connection points: 2
#     Edge 28, Type (0, 0), BuildingBlock: UVAHIK_clean_linker_0, # of connection points: 2
#     Edge 29, Type (0, 0), BuildingBlock: UVAHIK_clean_linker_0, # of connection points: 2
#     Edge 30, Type (0, 0), BuildingBlock: UVAHIK_clean_linker_0, # of connection points: 2
#     Edge 31, Type (0, 0), BuildingBlock: UVAHIK_clean_linker_0, # of connection points: 2
#     Edge 32, Type (0, 0), BuildingBlock: UVAHIK_clean_linker_0, # of connection points: 2
#     Edge 33, Type (0, 0), BuildingBlock: UVAHIK_clean_linker_0, # of connection points: 2
#     Edge 34, Type (0, 0), BuildingBlock: UVAHIK_clean_linker_0, # of connection points: 2
#     Edge 35, Type (0, 0), BuildingBlock: UVAHIK_clean_linker_0, # of connection points: 2
#     Edge 36, Type (0, 0), BuildingBlock: UVAHIK_clean_linker_0, # of connection points: 2
#     Edge 37, Type (0, 0), BuildingBlock: UVAHIK_clean_linker_0, # of connection points: 2
#     Edge 38, Type (0, 0), BuildingBlock: UVAHIK_clean_linker_0, # of connection points: 2
#     Edge 39, Type (0, 0), BuildingBlock: UVAHIK_clean_linker_0, # of connection points: 2
#     Edge 40, Type (0, 0), BuildingBlock: UVAHIK_clean_linker_0, # of connection points: 2
#     Edge 41, Type (0, 0), BuildingBlock: UVAHIK_clean_linker_0, # of connection points: 2
#     Edge 42, Type (0, 0), BuildingBlock: UVAHIK_clean_linker_0, # of connection points: 2
#     Edge 43, Type (0, 0), BuildingBlock: UVAHIK_clean_linker_0, # of connection points: 2
#     Edge 44, Type (0, 0), BuildingBlock: UVAHIK_clean_linker_0, # of connection points: 2
#     Edge 45, Type (0, 0), BuildingBlock: UVAHIK_clean_linker_0, # of connection points: 2
#     Edge 46, Type (0, 0), BuildingBlock: UVAHIK_clean_linker_0, # of connection points: 2
#     Edge 47, Type (0, 0), BuildingBlock: UVAHIK_clean_linker_0, # of connection points: 2
#     Edge 48, Type (0, 0), BuildingBlock: UVAHIK_clean_linker_0, # of connection points: 2
#     Edge 49, Type (0, 0), BuildingBlock: UVAHIK_clean_linker_0, # of connection points: 2
#     Edge 50, Type (0, 0), BuildingBlock: UVAHIK_clean_linker_0, # of connection points: 2
#     Edge 51, Type (0, 0), BuildingBlock: UVAHIK_clean_linker_0, # of connection points: 2
#     Edge 52, Type (0, 0), BuildingBlock: UVAHIK_clean_linker_0, # of connection points: 2
#     Edge 53, Type (0, 0), BuildingBlock: UVAHIK_clean_linker_0, # of connection points: 2
#     Edge 54, Type (0, 0), BuildingBlock: UVAHIK_clean_linker_0, # of connection points: 2
#     Edge 55, Type (0, 0), BuildingBlock: UVAHIK_clean_linker_0, # of connection points: 2
#     Edge 56, Type (0, 0), BuildingBlock: UVAHIK_clean_linker_0, # of connection points: 2
#     Edge 57, Type (0, 0), BuildingBlock: UVAHIK_clean_linker_0, # of connection points: 2
#     Edge 58, Type (0, 0), BuildingBlock: UVAHIK_clean_linker_0, # of connection points: 2
#     Edge 59, Type (0, 0), BuildingBlock: UVAHIK_clean_linker_0, # of connection points: 2
#     Edge 60, Type (0, 0), BuildingBlock: UVAHIK_clean_linker_0, # of connection points: 2
#     Edge 61, Type (0, 0), BuildingBlock: UVAHIK_clean_linker_0, # of connection points: 2
#     Edge 62, Type (0, 0), BuildingBlock: UVAHIK_clean_linker_0, # of connection points: 2
#     Edge 63, Type (0, 0), BuildingBlock: UVAHIK_clean_linker_0, # of connection points: 2
# Relax obj value: 0.298
# Max RMSD: 0.250
# Mean RMSD: 0.250
data_MOF--net-whv--node1-VOLQOD_clean_sbu_1--edge1-UVAHIK_clean_linker_0
_symmetry_space_group_name_H-M    P1
_symmetry_Int_Tables_number       1
_symmetry_cell_setting            triclinic
loop_
_symmetry_equiv_pos_as_xyz
'x, y, z'
_cell_length_a     68.436033
_cell_length_b     68.257598
_cell_length_c     34.099617
_cell_angle_alpha  89.880743
_cell_angle_beta   89.989118
_cell_angle_gamma 89.98271
loop_
_atom_site_label
_atom_site_type_symbol
_atom_site_fract_x
_atom_site_fract_y
_atom_site_fract_z
_atom_type_partial_charge
O0 O 0.29766 0.18546 0.95313 0.0
Zn1 Zn 0.30873 0.16703 0.99266 0.0
O2 O 0.31316 0.18094 0.04152 0.0
Zn3 Zn 0.3409 0.17982 0.05512 0.0
Zn4 Zn 0.30398 0.20774 0.03752 0.0
Zn5 Zn 0.29784 0.16846 0.08149 0.0
O6 O 0.34536 0.16041 0.10025 0.0
O7 O 0.31484 0.15136 0.11364 0.0
O8 O 0.33364 0.15685 0.96897 0.0
O9 O 0.35598 0.16943 0.00889 0.0
O10 O 0.35185 0.20732 0.06411 0.0
O11 O 0.3269 0.22534 0.04265 0.0
O12 O 0.28612 0.21529 0.08214 0.0
O13 O 0.28798 0.14626 -0.00212 0.0
O14 O 0.28509 0.18783 0.11683 0.0
O15 O 0.27672 0.15217 0.05769 0.0
C16 C 0.29068 0.20272 0.95397 0.0
C17 C 0.33316 0.14981 0.11918 0.0
C18 C 0.34441 0.22388 0.0549 0.0
C19 C 0.35141 0.16026 0.9777 0.0
C20 C 0.2808 0.20583 0.11253 0.0
C21 C 0.27529 0.14361 0.02472 0.0
O22 O 0.29114 0.21299 0.98513 0.0
O23 O 0.54788 0.55572 0.19408 0.0
Zn24 Zn 0.56975 0.56398 0.22812 0.0
O25 O 0.56038 0.56776 0.28125 0.0
Zn26 Zn 0.56469 0.59509 0.29667 0.0
Zn27 Zn 0.53287 0.56058 0.28427 0.0
Zn28 Zn 0.57453 0.55027 0.31558 0.0
O29 O 0.58486 0.59676 0.34074 0.0
O30 O 0.59336 0.56546 0.34742 0.0
O31 O 0.57991 0.5887 0.20368 0.0
O32 O 0.57528 0.61057 0.25087 0.0
O33 O 0.53877 0.6084 0.30912 0.0
O34 O 0.51754 0.58467 0.29518 0.0
O35 O 0.52723 0.54232 0.32915 0.0
O36 O 0.58864 0.5415 0.22438 0.0
O37 O 0.55671 0.53678 0.35359 0.0
O38 O 0.58895 0.5297 0.28511 0.0
C39 C 0.5306 0.54948 0.19928 0.0
C40 C 0.59549 0.58343 0.35622 0.0
C41 C 0.52128 0.60216 0.30549 0.0
C42 C 0.58053 0.60626 0.2161 0.0
C43 C 0.53827 0.5346 0.35491 0.0
C44 C 0.59382 0.52852 0.24916 0.0
O45 O 0.52286 0.54913 0.23326 0.0
O46 O 0.18399 0.79032 0.44525 0.0
Zn47 Zn 0.17526 0.81242 0.4783 0.0
O48 O 0.17147 0.80349 0.53176 0.0
Zn49 Zn 0.14399 0.80703 0.54644 0.0
Zn50 Zn 0.17969 0.77629 0.53617 0.0
Zn51 Zn 0.18813 0.8186 0.56581 0.0
O52 O 0.14128 0.82831 0.58832 0.0
O53 O 0.17217 0.83795 0.59469 0.0
O54 O 0.15056 0.82216 0.45324 0.0
O55 O 0.12853 0.81646 0.49967 0.0
O56 O 0.13175 0.78071 0.5608 0.0
O57 O 0.15619 0.76017 0.54747 0.0
O58 O 0.19765 0.77185 0.58192 0.0
O59 O 0.19748 0.83159 0.47411 0.0
O60 O 0.20142 0.80174 0.60593 0.0
O61 O 0.20875 0.83279 0.53514 0.0
C62 C 0.19121 0.77347 0.45152 0.0
C63 C 0.15411 0.83987 0.60265 0.0
C64 C 0.13862 0.76337 0.55787 0.0
C65 C 0.13293 0.82204 0.46511 0.0
C66 C 0.2044 0.78337 0.60787 0.0
C67 C 0.21016 0.83724 0.49898 0.0
O68 O 0.19208 0.76626 0.48598 0.0
O69 O 0.93463 0.43895 0.69336 0.0
Zn70 Zn 0.9147 0.42817 0.73008 0.0
O71 O 0.92587 0.42584 0.78231 0.0
Zn72 Zn 0.92546 0.39843 0.79915 0.0
Zn73 Zn 0.95231 0.4361 0.78244 0.0
Zn74 Zn 0.91065 0.44169 0.81762 0.0
O75 O 0.90533 0.39434 0.84289 0.0
O76 O 0.89382 0.42462 0.85032 0.0
O77 O 0.90667 0.40211 0.70764 0.0
O78 O 0.91744 0.38164 0.75353 0.0
O79 O 0.95287 0.38876 0.8126 0.0
O80 O 0.97063 0.41416 0.79252 0.0
O81 O 0.9568 0.45522 0.82622 0.0
O82 O 0.89343 0.44844 0.7279 0.0
O83 O 0.92766 0.45683 0.85432 0.0
O84 O 0.89414 0.46092 0.78795 0.0
C85 C 0.95123 0.44708 0.69715 0.0
C86 C 0.89353 0.40647 0.85885 0.0
C87 C 0.96939 0.39673 0.80557 0.0
C88 C 0.91001 0.38478 0.71985 0.0
C89 C 0.94566 0.4614 0.85339 0.0
C90 C 0.88811 0.46134 0.75265 0.0
O91 O 0.95964 0.44811 0.73039 0.0
O92 O 0.68861 0.80492 0.11499 0.0
Zn93 Zn 0.6778 0.82538 0.07937 0.0
O94 O 0.67244 0.81401 0.02816 0.0
Zn95 Zn 0.64461 0.81652 0.01533 0.0
Zn96 Zn 0.68081 0.78683 0.02747 0.0
Zn97 Zn 0.68783 0.82764 0.9897 0.0
O98 O 0.64048 0.83596 0.97019 0.0
O99 O 0.67104 0.84543 0.9586 0.0
O100 O 0.65332 0.83509 0.10566 0.0
O101 O 0.63042 0.82747 0.06207 0.0
O102 O 0.63228 0.78957 0.0064 0.0
O103 O 0.6574 0.77018 0.02104 0.0
O104 O 0.69801 0.78053 0.98142 0.0
O105 O 0.69919 0.84572 0.07699 0.0
O106 O 0.70036 0.80934 0.95184 0.0
O107 O 0.70909 0.84299 0.01527 0.0
C108 C 0.69493 0.78753 0.11087 0.0
C109 C 0.65279 0.84681 0.95216 0.0
C110 C 0.63955 0.77253 0.01182 0.0
C111 C 0.63545 0.83423 0.09537 0.0
C112 C 0.70384 0.79107 0.95291 0.0
C113 C 0.71132 0.84971 0.04975 0.0
O114 O 0.69383 0.77873 0.07805 0.0
O115 O 0.43911 0.44056 0.86799 0.0
Zn116 Zn 0.41944 0.42849 0.83312 0.0
O117 O 0.43131 0.42371 0.78233 0.0
Zn118 Zn 0.43061 0.39565 0.77178 0.0
Zn119 Zn 0.4579 0.43381 0.781 0.0
Zn120 Zn 0.41656 0.43779 0.7432 0.0
O121 O 0.41059 0.38968 0.72965 0.0
O122 O 0.39915 0.41932 0.71455 0.0
O123 O 0.41109 0.40379 0.86087 0.0
O124 O 0.4216 0.38099 0.81964 0.0
O125 O 0.45783 0.38521 0.76039 0.0
O126 O 0.47612 0.41135 0.77384 0.0
O127 O 0.46267 0.45116 0.73411 0.0
O128 O 0.39822 0.44892 0.83028 0.0
O129 O 0.43402 0.45063 0.70384 0.0
O130 O 0.40061 0.45896 0.76851 0.0
C131 C 0.45594 0.44815 0.8642 0.0
C132 C 0.39878 0.40076 0.71096 0.0
C133 C 0.47448 0.39339 0.76446 0.0
C134 C 0.41392 0.38588 0.85218 0.0
C135 C 0.45191 0.4556 0.70496 0.0
C136 C 0.39386 0.46098 0.80307 0.0
O137 O 0.465 0.44778 0.83153 0.0
O138 O 0.80788 0.1985 0.62414 0.0
Zn139 Zn 0.81521 0.17525 0.59295 0.0
O140 O 0.81907 0.18276 0.53875 0.0
Zn141 Zn 0.84629 0.17844 0.52362 0.0
Zn142 Zn 0.81143 0.20994 0.53192 0.0
Zn143 Zn 0.80222 0.167 0.50659 0.0
O144 O 0.84844 0.15707 0.48194 0.0
O145 O 0.81779 0.14611 0.48118 0.0
O146 O 0.83957 0.1648 0.61794 0.0
O147 O 0.86149 0.16884 0.57059 0.0
O148 O 0.85932 0.20423 0.50902 0.0
O149 O 0.83536 0.2255 0.52064 0.0
O150 O 0.79368 0.21345 0.4856 0.0
O151 O 0.7921 0.15733 0.59944 0.0
O152 O 0.78964 0.18305 0.4642 0.0
O153 O 0.78101 0.15458 0.53852 0.0
C154 C 0.80069 0.21521 0.61632 0.0
C155 C 0.83565 0.14451 0.47135 0.0
C156 C 0.85298 0.22178 0.51128 0.0
C157 C 0.8571 0.16397 0.60559 0.0
C158 C 0.7869 0.20141 0.4606 0.0
C159 C 0.77929 0.15138 0.57513 0.0
O160 O 0.79924 0.22133 0.5811 0.0
O161 O 0.05233 0.54742 0.36247 0.0
Zn162 Zn 0.07169 0.56056 0.32773 0.0
O163 O 0.05891 0.56716 0.27854 0.0
Zn164 Zn 0.06003 0.59539 0.27101 0.0
Zn165 Zn 0.03214 0.55783 0.27773 0.0
Zn166 Zn 0.07258 0.55397 0.23697 0.0
O167 O 0.08075 0.60216 0.23043 0.0
O168 O 0.09053 0.57271 0.21028 0.0
O169 O 0.0807 0.58438 0.35786 0.0
O170 O 0.06839 0.60823 0.32109 0.0
O171 O 0.0331 0.60668 0.25975 0.0
O172 O 0.01437 0.58078 0.27277 0.0
O173 O 0.02633 0.5416 0.22997 0.0
O174 O 0.09282 0.54026 0.32063 0.0
O175 O 0.05419 0.54325 0.19698 0.0
O176 O 0.08785 0.53134 0.25881 0.0
C177 C 0.035 0.54094 0.35908 0.0
C178 C 0.09191 0.59131 0.20974 0.0
C179 C 0.01632 0.5988 0.26402 0.0
C180 C 0.07683 0.60244 0.35227 0.0
C181 C 0.03633 0.53826 0.19922 0.0
C182 C 0.09574 0.52855 0.29217 0.0
O183 O 0.02531 0.54317 0.32745 0.0
O184 O 0.79456 0.68429 0.4451 0.0
Zn185 Zn 0.80799 0.66584 0.48167 0.0
O186 O 0.81308 0.67908 0.53111 0.0
Zn187 Zn 0.84115 0.67962 0.54093 0.0
Zn188 Zn 0.80244 0.7054 0.53018 0.0
Zn189 Zn 0.79993 0.66495 0.57233 0.0
O190 O 0.84831 0.66003 0.5837 0.0
O191 O 0.81909 0.64909 0.60243 0.0
O192 O 0.83275 0.65753 0.45424 0.0
O193 O 0.85534 0.67086 0.49254 0.0
O194 O 0.85081 0.7074 0.55089 0.0
O195 O 0.82432 0.72438 0.53427 0.0
O196 O 0.78531 0.71092 0.57685 0.0
O197 O 0.78873 0.64375 0.48798 0.0
O198 O 0.78663 0.68291 0.60974 0.0
O199 O 0.77948 0.64725 0.54995 0.0
C200 C 0.78691 0.7012 0.44811 0.0
C201 C 0.83764 0.64879 0.60466 0.0
C202 C 0.84223 0.72369 0.54419 0.0
C203 C 0.85051 0.66188 0.46132 0.0
C204 C 0.78119 0.70067 0.60695 0.0
C205 C 0.77738 0.63944 0.51636 0.0
O206 O 0.78802 0.71097 0.47983 0.0
O207 O 0.05584 0.05068 0.6899 0.0
Zn208 Zn 0.07589 0.06109 0.72665 0.0
O209 O 0.06399 0.06505 0.7779 0.0
Zn210 Zn 0.06563 0.09267 0.79267 0.0
Zn211 Zn 0.03707 0.05613 0.77775 0.0
Zn212 Zn 0.07784 0.04914 0.81517 0.0
O213 O 0.08523 0.09643 0.83723 0.0
O214 O 0.0951 0.06578 0.84746 0.0
O215 O 0.08534 0.0864 0.70262 0.0
O216 O 0.07524 0.10824 0.74638 0.0
O217 O 0.03866 0.1039 0.80448 0.0
O218 O 0.01976 0.07902 0.7863 0.0
O219 O 0.03111 0.03772 0.82232 0.0
O220 O 0.0964 0.03978 0.72734 0.0
O221 O 0.05981 0.03547 0.85195 0.0
O222 O 0.09358 0.02859 0.78818 0.0
C223 C 0.03866 0.04379 0.69332 0.0
C224 C 0.09617 0.08401 0.85473 0.0
C225 C 0.0218 0.09656 0.7981 0.0
C226 C 0.08288 0.10411 0.71335 0.0
C227 C 0.04168 0.03156 0.85044 0.0
C228 C 0.1004 0.02709 0.75362 0.0
O229 O 0.02971 0.04395 0.72607 0.0
O230 O 0.69079 0.30299 0.94947 0.0
Zn231 Zn 0.67945 0.32211 0.98668 0.0
O232 O 0.67411 0.30875 0.03571 0.0
Zn233 Zn 0.64604 0.3092 0.04455 0.0
Zn234 Zn 0.68414 0.28212 0.03492 0.0
Zn235 Zn 0.68758 0.32253 0.07677 0.0
O236 O 0.63945 0.32938 0.08624 0.0
O237 O 0.66884 0.33982 0.10508 0.0
O238 O 0.65532 0.33235 0.9599 0.0
O239 O 0.63226 0.31807 0.99562 0.0
O240 O 0.63563 0.28188 0.05556 0.0
O241 O 0.66171 0.26371 0.04114 0.0
O242 O 0.70145 0.27634 0.08139 0.0
O243 O 0.70046 0.34251 0.9923 0.0
O244 O 0.69942 0.30398 0.11523 0.0
O245 O 0.70949 0.33861 0.05432 0.0
C246 C 0.69811 0.28591 0.95167 0.0
C247 C 0.65027 0.3407 0.10664 0.0
C248 C 0.6438 0.26524 0.05077 0.0
C249 C 0.6375 0.3278 0.96553 0.0
C250 C 0.70498 0.28627 0.11217 0.0
C251 C 0.71216 0.34603 0.02046 0.0
O252 O 0.69786 0.27613 0.98357 0.0
O253 O 0.4312 0.94221 0.19203 0.0
Zn254 Zn 0.41221 0.93004 0.22896 0.0
O255 O 0.42538 0.92478 0.27845 0.0
Zn256 Zn 0.42577 0.89666 0.28799 0.0
Zn257 Zn 0.45166 0.93538 0.27799 0.0
Zn258 Zn 0.41132 0.93786 0.31961 0.0
O259 O 0.40587 0.88954 0.3299 0.0
O260 O 0.39469 0.91874 0.3485 0.0
O261 O 0.40312 0.90531 0.20189 0.0
O262 O 0.41736 0.88271 0.23911 0.0
O263 O 0.45332 0.88681 0.29929 0.0
O264 O 0.47046 0.91347 0.28434 0.0
O265 O 0.45685 0.95319 0.32379 0.0
O266 O 0.3913 0.95075 0.23455 0.0
O267 O 0.4294 0.95046 0.35788 0.0
O268 O 0.39484 0.95931 0.2969 0.0
C269 C 0.44826 0.94946 0.19474 0.0
C270 C 0.39436 0.90012 0.35038 0.0
C271 C 0.46965 0.89548 0.29408 0.0
C272 C 0.40798 0.88756 0.20834 0.0
C273 C 0.44686 0.95661 0.35452 0.0
C274 C 0.38754 0.96221 0.26305 0.0
O275 O 0.45783 0.94878 0.22676 0.0
O276 O 0.18458 0.29809 0.62492 0.0
Zn277 Zn 0.17558 0.3206 0.59305 0.0
O278 O 0.17132 0.31236 0.5395 0.0
Zn279 Zn 0.1438 0.31589 0.52536 0.0
Zn280 Zn 0.17971 0.28534 0.53371 0.0
Zn281 Zn 0.18752 0.32814 0.50586 0.0
O282 O 0.14079 0.3369 0.48265 0.0
O283 O 0.17122 0.34846 0.48042 0.0
O284 O 0.15113 0.33037 0.61884 0.0
O285 O 0.12882 0.32559 0.57256 0.0
O286 O 0.13136 0.28951 0.51241 0.0
O287 O 0.15617 0.26909 0.52366 0.0
O288 O 0.1968 0.28179 0.48643 0.0
O289 O 0.19792 0.33956 0.59736 0.0
O290 O 0.19972 0.31201 0.46321 0.0
O291 O 0.20889 0.34124 0.53616 0.0
C292 C 0.19208 0.28146 0.61771 0.0
C293 C 0.15325 0.34964 0.47114 0.0
C294 C 0.13839 0.27221 0.51473 0.0
C295 C 0.13346 0.33077 0.60722 0.0
C296 C 0.20279 0.29368 0.46026 0.0
C297 C 0.21059 0.34522 0.57244 0.0
O298 O 0.19283 0.27478 0.58286 0.0
O299 O 0.93725 0.94233 0.3619 0.0
Zn300 Zn 0.91738 0.9307 0.32639 0.0
O301 O 0.92945 0.92524 0.27597 0.0
Zn302 Zn 0.92695 0.89741 0.26337 0.0
Zn303 Zn 0.95658 0.93345 0.27582 0.0
Zn304 Zn 0.91629 0.94079 0.23732 0.0
O305 O 0.90744 0.89341 0.21869 0.0
O306 O 0.89803 0.92411 0.20742 0.0
O307 O 0.90794 0.90618 0.35321 0.0
O308 O 0.91594 0.88317 0.31011 0.0
O309 O 0.95379 0.88497 0.25468 0.0
O310 O 0.97315 0.90975 0.2716 0.0
O311 O 0.96341 0.94993 0.22869 0.0
O312 O 0.89659 0.95168 0.32283 0.0
O313 O 0.93477 0.95251 0.19894 0.0
O314 O 0.90158 0.96268 0.26236 0.0
C315 C 0.95454 0.94888 0.35816 0.0
C316 C 0.89647 0.90582 0.20118 0.0
C317 C 0.97075 0.89194 0.26174 0.0
C318 C 0.909 0.88824 0.34322 0.0
C319 C 0.95305 0.95563 0.19986 0.0
C320 C 0.8938 0.96443 0.29604 0.0
O321 O 0.9638 0.94741 0.32587 0.0
O322 O 0.30643 0.69144 0.12261 0.0
Zn323 Zn 0.31496 0.67005 0.08737 0.0
O324 O 0.31826 0.68016 0.0347 0.0
Zn325 Zn 0.34576 0.67781 0.01964 0.0
Zn326 Zn 0.30922 0.70712 0.0324 0.0
Zn327 Zn 0.30185 0.66517 2e-05 0.0
O328 O 0.34893 0.65685 0.97707 0.0
O329 O 0.31826 0.64652 0.97018 0.0
O330 O 0.3398 0.65968 0.11073 0.0
O331 O 0.36164 0.66885 0.06623 0.0
O332 O 0.35702 0.70464 0.00577 0.0
O333 O 0.33211 0.72416 0.02151 0.0
O334 O 0.29089 0.71186 0.98729 0.0
O335 O 0.29279 0.65088 0.09078 0.0
O336 O 0.28838 0.68236 0.96081 0.0
O337 O 0.28122 0.65048 0.02999 0.0
C338 C 0.29859 0.70813 0.11769 0.0
C339 C 0.33637 0.64515 0.96215 0.0
C340 C 0.34964 0.72169 0.01011 0.0
C341 C 0.35746 0.6616 0.09965 0.0
C342 C 0.28469 0.70062 0.9603 0.0
C343 C 0.27994 0.64561 0.06595 0.0
O344 O 0.29702 0.71579 0.08371 0.0
O345 O 0.55095 0.04744 0.86096 0.0
Zn346 Zn 0.57055 0.06085 0.82731 0.0
O347 O 0.55831 0.06776 0.77774 0.0
Zn348 Zn 0.55882 0.09611 0.77179 0.0
Zn349 Zn 0.53171 0.05799 0.77535 0.0
Zn350 Zn 0.57282 0.05533 0.73616 0.0
O351 O 0.57906 0.10389 0.73118 0.0
O352 O 0.59022 0.075 0.71062 0.0
O353 O 0.57967 0.08435 0.85813 0.0
O354 O 0.56746 0.10851 0.82209 0.0
O355 O 0.53168 0.10718 0.76223 0.0
O356 O 0.51342 0.08062 0.77184 0.0
O357 O 0.52682 0.04215 0.72674 0.0
O358 O 0.59165 0.04066 0.82058 0.0
O359 O 0.5551 0.04418 0.69528 0.0
O360 O 0.5888 0.033 0.75762 0.0
C361 C 0.53389 0.04046 0.85617 0.0
C362 C 0.59078 0.09366 0.71051 0.0
C363 C 0.51503 0.09891 0.7654 0.0
C364 C 0.57596 0.10246 0.853 0.0
C365 C 0.53729 0.03892 0.69657 0.0
C366 C 0.59579 0.02968 0.7916 0.0
O367 O 0.52472 0.04257 0.82392 0.0
C368 C 0.2411 0.13364 0.04115 0.0
C369 C 0.25717 0.13278 0.01545 0.0
C370 C 0.22284 0.12669 0.02946 0.0
C371 C 0.19754 0.09579 0.95739 0.0
H372 H 0.15486 0.13273 0.97005 0.0
C373 C 0.11842 0.10986 0.88223 0.0
C374 C 0.11141 0.09051 0.88248 0.0
C375 C 0.13495 0.11484 0.90426 0.0
C376 C 0.16664 0.1223 0.96639 0.0
H377 H 0.26695 0.12268 0.95842 0.0
H378 H 0.23509 0.11034 0.93827 0.0
H379 H 0.18697 0.14024 -0.00228 0.0
H380 H 0.11517 0.06168 0.90851 0.0
H381 H 0.14373 0.07043 0.94686 0.0
H382 H 0.17744 0.07806 0.92525 0.0
C383 C 0.23663 0.11651 0.96734 0.0
C384 C 0.18493 0.12647 0.98251 0.0
C385 C 0.25487 0.12362 0.97887 0.0
C386 C 0.12041 0.07664 0.90711 0.0
C387 C 0.13681 0.08161 0.92902 0.0
C388 C 0.17924 0.09154 0.94156 0.0
C389 C 0.22033 0.11854 0.99206 0.0
C390 C 0.2006 0.11335 0.97776 0.0
C391 C 0.14463 0.10056 0.92685 0.0
C392 C 0.16366 0.10483 0.9456 0.0
H393 H 0.24235 0.14055 0.06961 0.0
H394 H 0.21055 0.12813 0.04929 0.0
H395 H 0.20934 0.0854 0.95343 0.0
H396 H 0.11178 0.12085 0.86356 0.0
H397 H 0.14071 0.12957 0.90202 0.0
C398 C 0.62502 0.36678 0.11385 0.0
C399 C 0.64145 0.35696 0.1288 0.0
C400 C 0.61932 0.38477 0.12967 0.0
C401 C 0.62061 0.41714 0.21302 0.0
H402 H 0.6268 0.45948 0.13801 0.0
C403 C 0.61256 0.49755 0.26113 0.0
C404 C 0.60309 0.51032 0.23496 0.0
C405 C 0.61853 0.47897 0.24883 0.0
C406 C 0.62466 0.44788 0.15927 0.0
H407 H 0.66387 0.35734 0.17371 0.0
H408 H 0.65332 0.38846 0.20237 0.0
H409 H 0.63186 0.42575 0.11719 0.0
H410 H 0.59292 0.51383 0.17512 0.0
H411 H 0.60255 0.48138 0.15413 0.0
H412 H 0.61264 0.43897 0.25485 0.0
C413 C 0.64514 0.38239 0.17807 0.0
C414 C 0.62763 0.42858 0.14728 0.0
C415 C 0.65115 0.36465 0.16169 0.0
C416 C 0.60039 0.50443 0.19591 0.0
C417 C 0.60599 0.48574 0.18383 0.0
C418 C 0.61719 0.43643 0.22489 0.0
C419 C 0.62965 0.39289 0.16125 0.0
C420 C 0.62562 0.4131 0.17404 0.0
C421 C 0.61481 0.47259 0.2103 0.0
C422 C 0.61919 0.45209 0.19815 0.0
H423 H 0.61742 0.36126 0.08829 0.0
H424 H 0.60728 0.39268 0.11638 0.0
H425 H 0.61905 0.40534 0.2341 0.0
H426 H 0.61493 0.50175 0.29138 0.0
H427 H 0.62575 0.46949 0.26981 0.0
C428 C 0.37158 0.90034 0.40728 0.0
C429 C 0.37877 0.8909 0.37374 0.0
C430 C 0.35454 0.89374 0.42546 0.0
C431 C 0.31756 0.85328 0.42487 0.0
H432 H 0.2832 0.89465 0.46144 0.0
C433 C 0.23473 0.84332 0.44633 0.0
C434 C 0.22828 0.84664 0.48489 0.0
C435 C 0.25338 0.84921 0.43472 0.0
C436 C 0.29273 0.88298 0.4515 0.0
H437 H 0.37436 0.86671 0.33373 0.0
H438 H 0.34417 0.85563 0.36422 0.0
H439 H 0.31606 0.90276 0.43919 0.0
H440 H 0.23582 0.85971 0.5408 0.0
H441 H 0.26827 0.87071 0.51978 0.0
H442 H 0.29359 0.83375 0.43541 0.0
C443 C 0.35188 0.86778 0.37745 0.0
C444 C 0.31164 0.88753 0.43909 0.0
C445 C 0.3692 0.87413 0.35982 0.0
C446 C 0.24042 0.85696 0.51092 0.0
C447 C 0.25894 0.86322 0.49898 0.0
C448 C 0.29851 0.84882 0.43651 0.0
C449 C 0.34402 0.87785 0.40986 0.0
C450 C 0.32431 0.87275 0.42542 0.0
C451 C 0.26573 0.85889 0.46116 0.0
C452 C 0.28595 0.86366 0.44969 0.0
H453 H 0.37883 0.91322 0.41876 0.0
H454 H 0.34933 0.90149 0.45108 0.0
H455 H 0.32694 0.84143 0.41534 0.0
H456 H 0.22579 0.83528 0.42568 0.0
H457 H 0.25832 0.84589 0.40528 0.0
C458 C 0.86212 0.62213 0.61285 0.0
C459 C 0.84656 0.63309 0.62823 0.0
C460 C 0.86709 0.60411 0.62965 0.0
C461 C 0.86529 0.57259 0.71443 0.0
H462 H 0.85314 0.53042 0.64235 0.0
C463 C 0.8696 0.49236 0.7651 0.0
C464 C 0.8779 0.47906 0.73848 0.0
C465 C 0.86381 0.511 0.75263 0.0
C466 C 0.85691 0.54194 0.66276 0.0
H467 H 0.82512 0.63485 0.67489 0.0
H468 H 0.83446 0.60369 0.70528 0.0
H469 H 0.85043 0.56432 0.62056 0.0
H470 H 0.88567 0.47452 0.67748 0.0
H471 H 0.87634 0.50698 0.65608 0.0
H472 H 0.87259 0.55044 0.75624 0.0
C473 C 0.84252 0.60888 0.67995 0.0
C474 C 0.8553 0.56134 0.65021 0.0
C475 C 0.83722 0.62664 0.66262 0.0
C476 C 0.87918 0.48434 0.69873 0.0
C477 C 0.87376 0.50306 0.68641 0.0
C478 C 0.86734 0.55316 0.72679 0.0
C479 C 0.85691 0.59714 0.66258 0.0
C480 C 0.85954 0.57677 0.6759 0.0
C481 C 0.86654 0.51686 0.7134 0.0
C482 C 0.86321 0.53755 0.70107 0.0
H483 H 0.86937 0.62669 0.5861 0.0
H484 H 0.87827 0.59521 0.61593 0.0
H485 H 0.86852 0.58436 0.7347 0.0
H486 H 0.86829 0.48864 0.7959 0.0
H487 H 0.85776 0.52099 0.77404 0.0
C488 C 0.7331 0.86704 0.09754 0.0
C489 C 0.7298 0.85981 0.05955 0.0
C490 C 0.75169 0.87343 0.10859 0.0
C491 C 0.79118 0.89411 0.1168 0.0
H492 H 0.83339 0.85787 0.09369 0.0
C493 C 0.87033 0.91313 0.15258 0.0
C494 C 0.88033 0.89924 0.17559 0.0
C495 C 0.85297 0.90821 0.13377 0.0
C496 C 0.82173 0.86809 0.10027 0.0
H497 H 0.74324 0.85467 0.00272 0.0
H498 H 0.77561 0.86575 0.02225 0.0
H499 H 0.8003 0.85092 0.0701 0.0
H500 H 0.88071 0.86889 0.19449 0.0
H501 H 0.85021 0.86022 0.1611 0.0
H502 H 0.81248 0.91119 0.14727 0.0
C503 C 0.76384 0.86628 0.04347 0.0
C504 C 0.80288 0.86423 0.08656 0.0
C505 C 0.74524 0.86009 0.03228 0.0
C506 C 0.87332 0.8799 0.17702 0.0
C507 C 0.85589 0.87495 0.15796 0.0
C508 C 0.81003 0.89809 0.13009 0.0
C509 C 0.76734 0.87255 0.08197 0.0
C510 C 0.78743 0.87715 0.09492 0.0
C511 C 0.84525 0.88928 0.13734 0.0
C512 C 0.82546 0.88508 0.12209 0.0
H513 H 0.72154 0.86704 0.11923 0.0
H514 H 0.75403 0.8782 0.13851 0.0
H515 H 0.77953 0.90431 0.12356 0.0
H516 H 0.87548 0.92809 0.15031 0.0
H517 H 0.84526 0.91941 0.11737 0.0
C518 C 0.37592 0.48199 0.85135 0.0
C519 C 0.38338 0.47925 0.81333 0.0
C520 C 0.3693 0.5004 0.86326 0.0
C521 C 0.37763 0.55232 0.84328 0.0
H522 H 0.33155 0.56002 0.90755 0.0
C523 C 0.32837 0.61802 0.9161 0.0
C524 C 0.34258 0.62865 0.93694 0.0
C525 C 0.33325 0.60073 0.89687 0.0
C526 C 0.34439 0.55813 0.88937 0.0
H527 H 0.38868 0.49353 0.75732 0.0
H528 H 0.37708 0.52561 0.77826 0.0
H529 H 0.3387 0.52756 0.88145 0.0
H530 H 0.37334 0.63002 0.95189 0.0
H531 H 0.38192 0.59958 0.91795 0.0
H532 H 0.38339 0.58292 0.85159 0.0
C533 C 0.3766 0.51354 0.7989 0.0
C534 C 0.34854 0.53952 0.8747 0.0
C535 C 0.38306 0.49509 0.78685 0.0
C536 C 0.36207 0.62217 0.93612 0.0
C537 C 0.36698 0.60476 0.9167 0.0
C538 C 0.37356 0.57093 0.85827 0.0
C539 C 0.37012 0.51648 0.8375 0.0
C540 C 0.36521 0.53641 0.85157 0.0
C541 C 0.35246 0.59361 0.8979 0.0
C542 C 0.35689 0.57402 0.88144 0.0
H543 H 0.37594 0.47012 0.87248 0.0
H544 H 0.36442 0.50225 0.89325 0.0
H545 H 0.39072 0.55027 0.82591 0.0
H546 H 0.31325 0.62273 0.91558 0.0
H547 H 0.32185 0.59267 0.88189 0.0
C548 C 0.6159 0.12001 0.70549 0.0
C549 C 0.60705 0.10323 0.68967 0.0
C550 C 0.63382 0.12656 0.69085 0.0
C551 C 0.66774 0.12531 0.60871 0.0
H552 H 0.70853 0.1239 0.68762 0.0
C553 C 0.74861 0.13216 0.56514 0.0
C554 C 0.76082 0.14305 0.58997 0.0
C555 C 0.72986 0.12682 0.5773 0.0
C556 C 0.69734 0.12472 0.66525 0.0
H557 H 0.60908 0.08108 0.64438 0.0
H558 H 0.64009 0.093 0.61794 0.0
H559 H 0.6747 0.11828 0.70669 0.0
H560 H 0.76318 0.15651 0.64731 0.0
H561 H 0.73037 0.14789 0.668 0.0
H562 H 0.6901 0.1323 0.56732 0.0
C563 C 0.63332 0.10085 0.64196 0.0
C564 C 0.67797 0.12147 0.67624 0.0
C565 C 0.61564 0.09404 0.65711 0.0
C566 C 0.75419 0.14791 0.62768 0.0
C567 C 0.73532 0.14291 0.63956 0.0
C568 C 0.68707 0.12896 0.59776 0.0
C569 C 0.64288 0.11671 0.65965 0.0
C570 C 0.66305 0.12163 0.64805 0.0
C571 C 0.72276 0.1326 0.61427 0.0
C572 C 0.70217 0.12857 0.62586 0.0
H573 H 0.60966 0.12728 0.73078 0.0
H574 H 0.64095 0.1389 0.70476 0.0
H575 H 0.65641 0.1255 0.58651 0.0
H576 H 0.7534 0.12812 0.53597 0.0
H577 H 0.72084 0.11841 0.55742 0.0
C578 C 0.13113 0.36608 0.42202 0.0
C579 C 0.14712 0.36679 0.44774 0.0
C580 C 0.12648 0.38239 0.39872 0.0
C581 C 0.14786 0.42996 0.36425 0.0
H582 H 0.09381 0.44392 0.34495 0.0
C583 C 0.11846 0.50787 0.33218 0.0
C584 C 0.10582 0.5098 0.29995 0.0
C585 C 0.12524 0.4894 0.34353 0.0
C586 C 0.10897 0.44002 0.34976 0.0
H587 H 0.1702 0.38529 0.47066 0.0
H588 H 0.16164 0.41371 0.43199 0.0
H589 H 0.10138 0.41328 0.37874 0.0
H590 H 0.09094 0.49402 0.25348 0.0
H591 H 0.10242 0.4617 0.2742 0.0
H592 H 0.15524 0.45743 0.3374 0.0
C593 C 0.15316 0.40046 0.42802 0.0
C594 C 0.11334 0.42244 0.36895 0.0
C595 C 0.15798 0.38418 0.45058 0.0
C596 C 0.10079 0.49303 0.27828 0.0
C597 C 0.10721 0.47453 0.2902 0.0
C598 C 0.14345 0.4477 0.34584 0.0
C599 C 0.13756 0.39976 0.40128 0.0
C600 C 0.13284 0.41737 0.37718 0.0
C601 C 0.11916 0.47256 0.32335 0.0
C602 C 0.12398 0.45298 0.33897 0.0
H603 H 0.12257 0.35281 0.4192 0.0
H604 H 0.11442 0.38126 0.37831 0.0
H605 H 0.16308 0.42632 0.36896 0.0
H606 H 0.12255 0.52053 0.34942 0.0
H607 H 0.13442 0.48816 0.36931 0.0
C608 C 0.62113 0.57363 0.40431 0.0
C609 C 0.61159 0.58858 0.38324 0.0
C610 C 0.63803 0.57759 0.42557 0.0
C611 C 0.66842 0.61662 0.46805 0.0
H612 H 0.71108 0.58086 0.44549 0.0
C613 C 0.75656 0.61946 0.47124 0.0
C614 C 0.75964 0.62772 0.50846 0.0
C615 C 0.73827 0.61196 0.46111 0.0
C616 C 0.69928 0.5909 0.4522 0.0
H617 H 0.61167 0.61966 0.36999 0.0
H618 H 0.64142 0.6266 0.40729 0.0
H619 H 0.67866 0.57438 0.41881 0.0
H620 H 0.74631 0.6332 0.56522 0.0
H621 H 0.71442 0.6201 0.54736 0.0
H622 H 0.68925 0.63345 0.5005 0.0
C623 C 0.63569 0.61181 0.40726 0.0
C624 C 0.6807 0.58714 0.43719 0.0
C625 C 0.61869 0.60784 0.38586 0.0
C626 C 0.74443 0.62705 0.53621 0.0
C627 C 0.72611 0.61969 0.52595 0.0
C628 C 0.687 0.62031 0.48333 0.0
C629 C 0.64581 0.59658 0.42635 0.0
C630 C 0.66514 0.60009 0.44456 0.0
C631 C 0.7227 0.61266 0.48792 0.0
C632 C 0.70266 0.60762 0.47507 0.0
H633 H 0.61589 0.55866 0.40346 0.0
H634 H 0.6453 0.56565 0.44066 0.0
H635 H 0.65667 0.62677 0.47435 0.0
H636 H 0.76797 0.61967 0.44922 0.0
H637 H 0.73604 0.60666 0.43153 0.0
C638 C 0.12881 0.86355 0.62764 0.0
C639 C 0.14827 0.85697 0.62655 0.0
C640 C 0.1242 0.88146 0.64541 0.0
C641 C 0.11871 0.91657 0.70135 0.0
H642 H 0.15286 0.95943 0.67105 0.0
C643 C 0.11184 0.9932 0.7695 0.0
C644 C 0.11052 0.00875 0.74247 0.0
C645 C 0.11784 0.97465 0.75737 0.0
C646 C 0.14322 0.94761 0.67972 0.0
H647 H 0.17788 0.86334 0.64576 0.0
H648 H 0.16979 0.89433 0.6765 0.0
H649 H 0.15942 0.9264 0.64703 0.0
H650 H 0.11578 0.01726 0.68201 0.0
H651 H 0.12658 0.98485 0.66103 0.0
H652 H 0.10241 0.93787 0.73378 0.0
C653 C 0.15819 0.8859 0.66302 0.0
C654 C 0.14703 0.9287 0.66625 0.0
C655 C 0.16277 0.86808 0.64551 0.0
C656 C 0.1166 0.00562 0.70359 0.0
C657 C 0.12278 0.98706 0.69154 0.0
C658 C 0.11501 0.93547 0.71517 0.0
C659 C 0.13899 0.89304 0.6622 0.0
C660 C 0.1348 0.913 0.67689 0.0
C661 C 0.12287 0.97128 0.71807 0.0
C662 C 0.12721 0.95117 0.7044 0.0
H663 H 0.11732 0.85534 0.6133 0.0
H664 H 0.10925 0.88667 0.64442 0.0
H665 H 0.1091 0.90472 0.71006 0.0
H666 H 0.10736 0.99507 0.79974 0.0
H667 H 0.11813 0.9628 0.77856 0.0
C668 C 0.87151 0.38017 0.88583 0.0
C669 C 0.87816 0.39965 0.88614 0.0
C670 C 0.85477 0.37491 0.90705 0.0
C671 C 0.80959 0.39764 0.9419 0.0
H672 H 0.80146 0.34867 -0.0027 0.0
C673 C 0.74644 0.35522 0.03831 0.0
C674 C 0.73064 0.35648 0.01202 0.0
C675 C 0.76496 0.36192 0.02738 0.0
C676 C 0.8036 0.36251 0.98229 0.0
H677 H 0.87353 0.42843 0.91157 0.0
H678 H 0.84466 0.41919 0.94862 0.0
H679 H 0.83389 0.35652 0.97131 0.0
H680 H 0.72166 0.36687 0.9546 0.0
H681 H 0.75388 0.37879 0.93583 0.0
H682 H 0.77932 0.40355 0.95232 0.0
C683 C 0.85199 0.40811 0.93129 0.0
C684 C 0.82209 0.36688 0.96711 0.0
C685 C 0.86859 0.41337 0.91013 0.0
C686 C 0.73351 0.36565 0.97553 0.0
C687 C 0.75197 0.37252 0.96478 0.0
C688 C 0.79113 0.3932 0.95678 0.0
C689 C 0.8445 0.38903 0.92893 0.0
C690 C 0.82524 0.38447 0.94662 0.0
C691 C 0.76798 0.37023 0.99017 0.0
C692 C 0.7879 0.37554 0.97687 0.0
H693 H 0.87859 0.36929 0.86761 0.0
H694 H 0.8493 0.36007 0.90467 0.0
H695 H 0.81149 0.4112 0.9258 0.0
H696 H 0.74477 0.34821 0.06663 0.0
H697 H 0.777 0.36022 0.04771 0.0
C698 C 0.36924 0.98483 0.21806 0.0
C699 C 0.37735 0.98096 0.25517 0.0
C700 C 0.36306 0.00374 0.20826 0.0
C701 C 0.34348 0.04408 0.20306 0.0
H702 H 0.38155 0.085 0.22345 0.0
C703 C 0.32635 0.12421 0.16953 0.0
C704 C 0.33994 0.13376 0.1451 0.0
C705 C 0.33114 0.10665 0.18804 0.0
C706 C 0.37081 0.07371 0.21766 0.0
H707 H 0.38424 0.99374 0.31183 0.0
H708 H 0.37353 0.02667 0.29446 0.0
H709 H 0.38791 0.05146 0.24581 0.0
H710 H 0.36973 0.13312 0.12349 0.0
H711 H 0.37819 0.10231 0.15644 0.0
H712 H 0.32645 0.06621 0.1746 0.0
C713 C 0.37214 0.01509 0.27296 0.0
C714 C 0.37435 0.0546 0.23069 0.0
C715 C 0.3781 -0.00383 0.28295 0.0
C716 C 0.35896 0.12612 0.14211 0.0
C717 C 0.36378 0.10849 0.16089 0.0
C718 C 0.33983 0.0632 0.19051 0.0
C719 C 0.36504 0.01916 0.23522 0.0
C720 C 0.36077 0.03958 0.22325 0.0
C721 C 0.34965 0.09826 0.1828 0.0
C722 C 0.35349 0.07819 0.1975 0.0
H723 H 0.36844 0.97347 0.19599 0.0
H724 H 0.35764 0.0065 0.17892 0.0
H725 H 0.33278 0.03279 0.19701 0.0
H726 H 0.31165 0.12983 0.17298 0.0
H727 H 0.32011 0.09928 0.20544 0.0
C728 C 0.37419 0.40257 0.65721 0.0
C729 C 0.38261 0.39209 0.68843 0.0
C730 C 0.35651 0.39646 0.64089 0.0
C731 C 0.31159 0.37666 0.67202 0.0
H732 H 0.29974 0.3649 0.56346 0.0
C733 C 0.23555 0.34997 0.6247 0.0
C734 C 0.22898 0.35401 0.58654 0.0
C735 C 0.25436 0.35528 0.63624 0.0
C736 C 0.30269 0.36854 0.59376 0.0
H737 H 0.37975 0.36653 0.72586 0.0
H738 H 0.34843 0.35619 0.69795 0.0
H739 H 0.33349 0.37134 0.58293 0.0
H740 H 0.23644 0.36784 0.53128 0.0
H741 H 0.26892 0.37817 0.55211 0.0
H742 H 0.28097 0.37495 0.68301 0.0
C743 C 0.35573 0.36893 0.68589 0.0
C744 C 0.32205 0.37196 0.60486 0.0
C745 C 0.37364 0.37478 0.70161 0.0
C746 C 0.24119 0.36445 0.56083 0.0
C747 C 0.25989 0.37014 0.57266 0.0
C748 C 0.29222 0.37369 0.66085 0.0
C749 C 0.34684 0.38004 0.65615 0.0
C750 C 0.32661 0.37583 0.64413 0.0
C751 C 0.26693 0.36514 0.61017 0.0
C752 C 0.28749 0.36939 0.62162 0.0
H753 H 0.38084 0.41596 0.64656 0.0
H754 H 0.34982 0.40524 0.61803 0.0
H755 H 0.31482 0.38002 0.70238 0.0
H756 H 0.22658 0.34171 0.64503 0.0
H757 H 0.25926 0.35084 0.6651 0.0
C758 C 0.83037 0.10978 0.45302 0.0
C759 C 0.84138 0.12701 0.44886 0.0
C760 C 0.83519 0.09302 0.43199 0.0
C761 C 0.87538 0.07003 0.37544 0.0
H762 H 0.83391 0.0341 0.34622 0.0
C763 C 0.88794 0.0 0.28417 0.0
C764 C 0.88382 0.98295 0.30592 0.0
C765 C 0.88136 0.01823 0.29703 0.0
C766 C 0.84557 0.04407 0.35414 0.0
H767 H 0.86606 0.1403 0.41935 0.0
H768 H 0.87412 0.11111 0.38096 0.0
H769 H 0.82569 0.06551 0.37597 0.0
H770 H 0.86855 0.97148 0.35675 0.0
H771 H 0.85641 0.00347 0.37842 0.0
H772 H 0.89515 0.04857 0.35238 0.0
C773 C 0.86202 0.11041 0.40136 0.0
C774 C 0.84095 0.06199 0.37148 0.0
C775 C 0.8574 0.12716 0.42317 0.0
C776 C 0.87196 0.98436 0.33945 0.0
C777 C 0.86502 0.0026 0.35181 0.0
C778 C 0.87995 0.05229 0.35727 0.0
C779 C 0.85092 0.09311 0.40549 0.0
C780 C 0.85581 0.07501 0.38328 0.0
C781 C 0.87017 0.01968 0.33128 0.0
C782 C 0.8651 0.03906 0.34723 0.0
H783 H 0.81812 0.10911 0.47312 0.0
H784 H 0.82667 0.0799 0.43708 0.0
H785 H 0.88724 0.07948 0.38451 0.0
H786 H 0.89713 -0.00056 0.25833 0.0
H787 H 0.88541 0.03127 0.28076 0.0
C788 C 0.11572 0.59063 0.1545 0.0
C789 C 0.10838 0.60002 0.18806 0.0
C790 C 0.1335 0.59646 0.13816 0.0
C791 C 0.1801 0.61275 0.169 0.0
H792 H 0.19033 0.62829 0.06156 0.0
C793 C 0.25603 0.63894 0.11948 0.0
C794 C 0.26172 0.63643 0.08024 0.0
C795 C 0.23735 0.63357 0.13178 0.0
C796 C 0.18783 0.62357 0.09146 0.0
H797 H 0.11337 0.62333 0.22992 0.0
H798 H 0.14488 0.63316 0.20188 0.0
H799 H 0.15676 0.6224 0.08286 0.0
H800 H 0.25277 0.62511 0.0237 0.0
H801 H 0.22049 0.61467 0.04564 0.0
H802 H 0.21096 0.61289 0.17762 0.0
C803 C 0.13666 0.6215 0.18805 0.0
C804 C 0.16857 0.62046 0.10366 0.0
C805 C 0.11863 0.61598 0.20385 0.0
C806 C 0.24875 0.62733 0.05409 0.0
C807 C 0.23015 0.62158 0.06661 0.0
C808 C 0.19935 0.61541 0.15666 0.0
C809 C 0.1444 0.61146 0.15568 0.0
C810 C 0.16459 0.61525 0.14262 0.0
C811 C 0.22399 0.62516 0.10535 0.0
C812 C 0.20351 0.62108 0.11782 0.0
H813 H 0.10808 0.57827 0.14182 0.0
H814 H 0.13928 0.5885 0.11325 0.0
H815 H 0.17732 0.60834 0.19904 0.0
H816 H 0.26559 0.64612 0.14029 0.0
H817 H 0.23316 0.63689 0.16165 0.0
C818 C 0.65986 0.87121 0.89967 0.0
C819 C 0.6462 0.86237 0.92493 0.0
C820 C 0.655 0.88796 0.87844 0.0
C821 C 0.64609 0.93089 0.86763 0.0
H822 H 0.59698 0.9406 0.81441 0.0
C823 C 0.61571 0.00798 0.83525 0.0
C824 C 0.6063 0.01111 0.79914 0.0
C825 C 0.62238 0.98933 0.84555 0.0
C826 C 0.61086 0.938 0.82879 0.0
H827 H 0.61627 0.86342 0.94566 0.0
H828 H 0.60772 0.89293 0.90835 0.0
H829 H 0.60391 0.90793 0.8408 0.0
H830 H 0.59746 -0.0027 0.74465 0.0
H831 H 0.6091 0.96471 0.76285 0.0
H832 H 0.65291 0.96098 0.85636 0.0
C833 C 0.62222 0.88678 0.9051 0.0
C834 C 0.61471 0.91939 0.8442 0.0
C835 C 0.6271 0.86991 0.92646 0.0
C836 C 0.60468 0.99541 0.77267 0.0
C837 C 0.61116 0.9767 0.78319 0.0
C838 C 0.64216 0.94949 0.85259 0.0
C839 C 0.63635 0.8963 0.88191 0.0
C840 C 0.63234 0.91569 0.86394 0.0
C841 C 0.61963 0.97341 0.82011 0.0
C842 C 0.62446 0.95329 0.83328 0.0
H843 H 0.67462 0.86559 0.89727 0.0
H844 H 0.66605 0.89473 0.86014 0.0
H845 H 0.65971 0.92854 0.88312 0.0
H846 H 0.6172 0.01976 0.85628 0.0
H847 H 0.62881 0.9872 0.87427 0.0
C848 C 0.38594 0.16251 0.9539 0.0
C849 C 0.36699 0.15485 0.9496 0.0
C850 C 0.40034 0.1586 0.92601 0.0
C851 C 0.41483 0.12281 0.85272 0.0
H852 H 0.44924 0.16403 0.81554 0.0
C853 C 0.47923 0.10269 0.75605 0.0
C854 C 0.49712 0.11078 0.76796 0.0
C855 C 0.46164 0.11095 0.76841 0.0
C856 C 0.4398 0.15234 0.8257 0.0
H857 H 0.3484 0.13687 0.91277 0.0
H858 H 0.37376 0.12973 0.86442 0.0
H859 H 0.42189 0.17214 0.85866 0.0
H860 H 0.51075 0.13471 0.79926 0.0
H861 H 0.48012 0.14881 0.82205 0.0
H862 H 0.43309 0.10283 0.82182 0.0
C863 C 0.37735 0.13887 0.88933 0.0
C864 C 0.42415 0.157 0.85035 0.0
C865 C 0.36286 0.14295 0.91703 0.0
C866 C 0.49713 0.12829 0.78944 0.0
C867 C 0.47951 0.13635 0.80252 0.0
C868 C 0.43056 0.11812 0.82848 0.0
C869 C 0.39619 0.14679 0.89341 0.0
C870 C 0.41172 0.14222 0.86459 0.0
C871 C 0.46159 0.12718 0.79376 0.0
C872 C 0.44346 0.13277 0.81513 0.0
H873 H 0.38961 0.17182 0.97852 0.0
H874 H 0.41483 0.16464 0.9302 0.0
H875 H 0.40561 0.1111 0.8636 0.0
H876 H 0.47887 0.08927 0.73914 0.0
H877 H 0.44811 0.10389 0.76 0.0
C878 C 0.5829 0.61945 0.14778 0.0
C879 C 0.58522 0.62226 0.18834 0.0
C880 C 0.58499 0.63514 0.12171 0.0
C881 C 0.58651 0.68982 0.11941 0.0
H882 H 0.61026 0.68159 0.01762 0.0
C883 C 0.63574 0.73647 0.00795 0.0
C884 C 0.62702 0.75493 0.01274 0.0
C885 C 0.62612 0.71954 0.02002 0.0
C886 C 0.60357 0.68418 0.04592 0.0
H887 H 0.59225 0.64353 0.23325 0.0
H888 H 0.59693 0.67064 0.18778 0.0
H889 H 0.60429 0.65373 0.06029 0.0
H890 H 0.60048 0.77 0.02969 0.0
H891 H 0.58328 0.74021 0.04989 0.0
H892 H 0.58725 0.7204 0.10641 0.0
C893 C 0.59271 0.65654 0.17606 0.0
C894 C 0.59994 0.66812 0.07033 0.0
C895 C 0.59029 0.64093 0.20217 0.0
C896 C 0.60758 0.75596 0.02578 0.0
C897 C 0.59786 0.73891 0.03784 0.0
C898 C 0.59044 0.7059 0.09528 0.0
C899 C 0.58975 0.65395 0.13551 0.0
C900 C 0.59187 0.67078 0.10789 0.0
C901 C 0.60743 0.72062 0.03701 0.0
C902 C 0.59957 0.70336 0.05869 0.0
H903 H 0.57873 0.60529 0.13622 0.0
H904 H 0.58237 0.63256 0.09084 0.0
H905 H 0.57972 0.69242 0.1476 0.0
H906 H 0.65066 0.73521 -0.00242 0.0
H907 H 0.6341 0.70586 0.01896 0.0
C908 C 0.98638 0.8591 0.2728 0.0
C909 C 0.98809 0.87906 0.26333 0.0
C910 C 0.0029 0.84839 0.28436 0.0
C911 C 0.03482 0.8372 0.34178 0.0
H912 H 0.08763 0.85108 0.31156 0.0
C913 C 0.09829 0.83146 0.45095 0.0
C914 C 0.11708 0.82689 0.43725 0.0
C915 C 0.08301 0.83478 0.4246 0.0
C916 C 0.07305 0.84669 0.32016 0.0
H917 H 0.0086 0.90286 0.2543 0.0
H918 H 0.03701 0.88459 0.27491 0.0
H919 H 0.06054 0.85999 0.26922 0.0
H920 H 0.13457 0.82201 0.38511 0.0
H921 H 0.10785 0.82723 0.33918 0.0
H922 H 0.04734 0.8236 0.39235 0.0
C923 C 0.02317 0.87695 0.27345 0.0
C924 C 0.05744 0.85201 0.29599 0.0
C925 C 0.00677 0.88755 0.2619 0.0
C926 C 0.1203 0.82576 0.3966 0.0
C927 C 0.10494 0.82877 0.37023 0.0
C928 C 0.05045 0.83161 0.36564 0.0
C929 C 0.02136 0.85749 0.28655 0.0
C930 C 0.03806 0.84804 0.30726 0.0
C931 C 0.08607 0.83327 0.38387 0.0
C932 C 0.06972 0.83694 0.35592 0.0
H933 H 0.97217 0.85214 0.27404 0.0
H934 H 0.00105 0.8333 0.29346 0.0
H935 H 0.02014 0.83394 0.35166 0.0
H936 H 0.09537 0.83251 0.4821 0.0
H937 H 0.06884 0.83872 0.43628 0.0
C938 C 0.85969 0.25734 0.50305 0.0
C939 C 0.86675 0.2384 0.51089 0.0
C940 C 0.87002 0.27376 0.5158 0.0
C941 C 0.89801 0.28479 0.60143 0.0
H942 H 0.90001 0.33746 0.55891 0.0
C943 C 0.91715 0.3504 0.69957 0.0
C944 C 0.90707 0.36805 0.69302 0.0
C945 C 0.91572 0.33499 0.67293 0.0
C946 C 0.89938 0.32286 0.57132 0.0
H947 H 0.89124 0.22179 0.53378 0.0
H948 H 0.90927 0.25054 0.5563 0.0
H949 H 0.89331 0.30983 0.51539 0.0
H950 H 0.88743 0.38329 0.65354 0.0
H951 H 0.8841 0.35601 0.60794 0.0
H952 H 0.90274 0.2976 0.65755 0.0
C953 C 0.89568 0.25265 0.54054 0.0
C954 C 0.89577 0.30705 0.54628 0.0
C955 C 0.88544 0.23621 0.52735 0.0
C956 C 0.89535 0.36986 0.65941 0.0
C957 C 0.89365 0.35429 0.63302 0.0
C958 C 0.90135 0.30055 0.62647 0.0
C959 C 0.88748 0.27147 0.53692 0.0
C960 C 0.89475 0.28789 0.56124 0.0
C961 C 0.90389 0.33666 0.63936 0.0
C962 C 0.90175 0.31984 0.61192 0.0
H963 H 0.84537 0.25943 0.49016 0.0
H964 H 0.86333 0.28806 0.51255 0.0
H965 H 0.89685 0.27025 0.61402 0.0
H966 H 0.92659 0.34863 0.72483 0.0
H967 H 0.92413 0.32184 0.6785 0.0
C968 C 0.62398 0.83962 0.16432 0.0
C969 C 0.62001 0.83939 0.12387 0.0
C970 C 0.60887 0.84227 0.19143 0.0
C971 C 0.5546 0.83991 0.19903 0.0
H972 H 0.56236 0.87221 0.291 0.0
C973 C 0.50597 0.89463 0.2948 0.0
C974 C 0.48819 0.88435 0.29445 0.0
C975 C 0.52338 0.88525 0.28517 0.0
C976 C 0.55993 0.8631 0.26551 0.0
H977 H 0.59726 0.84253 0.08008 0.0
H978 H 0.57113 0.84799 0.12703 0.0
H979 H 0.58999 0.86476 0.24872 0.0
H980 H 0.47501 0.85566 0.28819 0.0
H981 H 0.50565 0.83904 0.27224 0.0
H982 H 0.52434 0.83951 0.21388 0.0
C983 C 0.58574 0.84538 0.13807 0.0
C984 C 0.57585 0.85866 0.24142 0.0
C985 C 0.60077 0.84249 0.11106 0.0
C986 C 0.48847 0.86401 0.28835 0.0
C987 C 0.506 0.85455 0.27883 0.0
C988 C 0.53866 0.84457 0.22276 0.0
C989 C 0.58951 0.84494 0.17863 0.0
C990 C 0.57324 0.84758 0.20711 0.0
C991 C 0.5235 0.86529 0.2752 0.0
C992 C 0.54099 0.85681 0.25555 0.0
H993 H 0.63864 0.83708 0.17514 0.0
H994 H 0.61231 0.84173 0.22241 0.0
H995 H 0.55214 0.83083 0.17351 0.0
H996 H 0.50631 0.91029 0.29995 0.0
H997 H 0.53643 0.89412 0.28257 0.0
C998 C 0.34716 0.26015 0.05225 0.0
C999 C 0.35649 0.24184 0.05418 0.0
C1000 C 0.35757 0.27692 0.04209 0.0
C1001 C 0.38182 0.31217 0.02309 0.0
H1002 H 0.41605 0.30218 0.9349 0.0
C1003 C 0.40831 0.37479 0.9214 0.0
C1004 C 0.40937 0.37042 0.8812 0.0
C1005 C 0.40539 0.35987 0.94898 0.0
C1006 C 0.40642 0.30526 0.95931 0.0
H1007 H 0.38446 0.22707 0.05091 0.0
H1008 H 0.40291 0.25662 0.03398 0.0
H1009 H 0.40509 0.27505 0.97525 0.0
H1010 H 0.40777 0.3471 0.8383 0.0
H1011 H 0.40171 0.3213 0.8859 0.0
H1012 H 0.38179 0.34215 0.0051 0.0
C1013 C 0.38737 0.25787 0.03932 0.0
C1014 C 0.40044 0.28969 0.98307 0.0
C1015 C 0.37686 0.24097 0.04943 0.0
C1016 C 0.40714 0.35091 0.8691 0.0
C1017 C 0.4039 0.33607 0.89654 0.0
C1018 C 0.38753 0.3277 -0.00108 0.0
C1019 C 0.37766 0.27589 0.03382 0.0
C1020 C 0.38746 0.29283 0.01442 0.0
C1021 C 0.40317 0.34029 0.93692 0.0
C1022 C 0.39935 0.32434 0.96587 0.0
H1023 H 0.33149 0.26138 0.05623 0.0
H1024 H 0.34945 0.29038 0.03793 0.0
H1025 H 0.3722 0.31524 0.04754 0.0
H1026 H 0.41023 0.38968 0.93166 0.0
H1027 H 0.40514 0.3637 0.97977 0.0
C1028 C 0.89178 0.1547 0.61961 0.0
C1029 C 0.87295 0.15905 0.6334 0.0
C1030 C 0.90713 0.15169 0.64588 0.0
C1031 C 0.93958 0.15621 0.70458 0.0
H1032 H 0.93097 0.12625 0.79967 0.0
C1033 C 0.00509 0.12917 0.79253 0.0
C1034 C 0.00409 0.10892 0.79953 0.0
C1035 C 0.98811 0.1397 0.78338 0.0
C1036 C 0.93363 0.13472 0.77332 0.0
H1037 H 0.85544 0.16364 0.68567 0.0
H1038 H 0.88231 0.15877 0.73146 0.0
H1039 H 0.90333 0.13481 0.7583 0.0
H1040 H 0.98444 0.08428 0.80709 0.0
H1041 H 0.95518 0.10229 0.79062 0.0
H1042 H 0.97 0.15479 0.71786 0.0
C1043 C 0.88517 0.15731 0.70038 0.0
C1044 C 0.91772 0.1398 0.74972 0.0
C1045 C 0.86975 0.16009 0.67409 0.0
C1046 C 0.9857 0.09984 0.80129 0.0
C1047 C 0.96883 0.11028 0.79215 0.0
C1048 C 0.9555 0.15092 0.72789 0.0
C1049 C 0.9041 0.15321 0.6866 0.0
C1050 C 0.92059 0.15002 0.71434 0.0
C1051 C 0.96991 0.13011 0.78116 0.0
C1052 C 0.9528 0.13949 0.76182 0.0
H1053 H 0.89471 0.15371 0.58846 0.0
H1054 H 0.92138 0.14802 0.63417 0.0
H1055 H 0.94227 0.1646 0.67814 0.0
H1056 H 0.01907 0.13658 0.79118 0.0
H1057 H 0.98939 0.15507 0.77589 0.0
C1058 C 0.07333 0.63599 0.38071 0.0
C1059 C 0.08105 0.61693 0.38342 0.0
C1060 C 0.07655 0.64959 0.41047 0.0
C1061 C 0.11137 0.66227 0.48648 0.0
H1062 H 0.07077 0.69824 0.51995 0.0
C1063 C 0.13295 0.72859 0.57557 0.0
C1064 C 0.12564 0.74625 0.56036 0.0
C1065 C 0.12392 0.71084 0.56651 0.0
C1066 C 0.08228 0.68832 0.51096 0.0
H1067 H 0.09817 0.59723 0.41976 0.0
H1068 H 0.10412 0.62127 0.47157 0.0
H1069 H 0.06246 0.67056 0.47778 0.0
H1070 H 0.10223 0.75954 0.52698 0.0
H1071 H 0.08677 0.72859 0.50993 0.0
H1072 H 0.13143 0.68044 0.51731 0.0
C1073 C 0.09548 0.62554 0.44635 0.0
C1074 C 0.07751 0.67247 0.48686 0.0
C1075 C 0.09209 0.61181 0.41668 0.0
C1076 C 0.10804 0.7461 0.53933 0.0
C1077 C 0.0992 0.72829 0.52954 0.0
C1078 C 0.11618 0.67818 0.51022 0.0
C1079 C 0.0877 0.64456 0.44353 0.0
C1080 C 0.09211 0.6596 0.47356 0.0
C1081 C 0.10771 0.71039 0.54117 0.0
C1082 C 0.10179 0.69173 0.52197 0.0
H1083 H 0.06467 0.64043 0.35565 0.0
H1084 H 0.07066 0.66424 0.40715 0.0
H1085 H 0.12297 0.65273 0.47637 0.0
H1086 H 0.14647 0.72838 0.59209 0.0
H1087 H 0.13049 0.6974 0.57708 0.0
C1088 C 0.86173 0.64541 0.39946 0.0
C1089 C 0.8658 0.65734 0.43201 0.0
C1090 C 0.87624 0.64149 0.37166 0.0
C1091 C 0.9237 0.65909 0.33381 0.0
H1092 H 0.93286 0.60445 0.30945 0.0
C1093 C -0.00193 0.62869 0.2842 0.0
C1094 C -0.00148 0.61088 0.26382 0.0
C1095 C 0.98016 0.63717 0.29435 0.0
C1096 C 0.9303 0.61986 0.31489 0.0
H1097 H 0.88821 0.67482 0.46041 0.0
H1098 H 0.91341 0.66791 0.41206 0.0
H1099 H 0.90446 0.61354 0.34785 0.0
H1100 H 0.981 0.58913 0.23395 0.0
H1101 H 0.94981 0.60444 0.24964 0.0
H1102 H 0.94978 0.66539 0.30144 0.0
C1103 C 0.89899 0.6617 0.4079 0.0
C1104 C 0.914 0.62503 0.33715 0.0
C1105 C 0.88459 0.66546 0.43584 0.0
C1106 C 0.98097 0.60281 0.25005 0.0
C1107 C 0.96312 0.61147 0.25943 0.0
C1108 C 0.93995 0.65394 0.31116 0.0
C1109 C 0.89501 0.64961 0.37563 0.0
C1110 C 0.91081 0.64462 0.3477 0.0
C1111 C 0.96245 0.6281 0.28369 0.0
C1112 C 0.94372 0.63419 0.30225 0.0
H1113 H 0.84739 0.63899 0.39555 0.0
H1114 H 0.87278 0.63214 0.34699 0.0
H1115 H 0.92142 0.67436 0.34111 0.0
H1116 H 0.01143 0.6351 0.2954 0.0
H1117 H 0.98027 0.64993 0.31315 0.0
C1118 C 0.10883 0.25452 0.53765 0.0
C1119 C 0.12547 0.25503 0.51366 0.0
C1120 C 0.10064 0.23654 0.54855 0.0
C1121 C 0.11867 0.18623 0.56292 0.0
H1122 H 0.06652 0.1777 0.60384 0.0
C1123 C 0.09717 0.11657 0.65015 0.0
C1124 C 0.08728 0.12022 0.68555 0.0
C1125 C 0.10006 0.13164 0.62288 0.0
C1126 C 0.08114 0.1799 0.59244 0.0
H1127 H 0.14509 0.23766 0.47815 0.0
H1128 H 0.13008 0.20638 0.49498 0.0
H1129 H 0.07299 0.20628 0.56255 0.0
H1130 H 0.07267 0.14262 0.71995 0.0
H1131 H 0.07776 0.16879 0.67244 0.0
H1132 H 0.12684 0.16001 0.59326 0.0
C1133 C 0.12386 0.21966 0.50702 0.0
C1134 C 0.08486 0.19626 0.56883 0.0
C1135 C 0.1323 0.23757 0.49688 0.0
C1136 C 0.08044 0.13928 0.6931 0.0
C1137 C 0.08313 0.15425 0.66569 0.0
C1138 C 0.11489 0.1698 0.5861 0.0
C1139 C 0.1088 0.21882 0.53507 0.0
C1140 C 0.10381 0.19991 0.55457 0.0
C1141 C 0.0929 0.15058 0.63026 0.0
C1142 C 0.09623 0.16674 0.60194 0.0
H1143 H 0.10345 0.26779 0.5513 0.0
H1144 H 0.08909 0.23656 0.57024 0.0
H1145 H 0.13355 0.18866 0.55334 0.0
H1146 H 0.10256 0.10205 0.64335 0.0
H1147 H 0.10764 0.12842 0.59577 0.0
C1148 C 0.60394 0.32456 0.93727 0.0
C1149 C 0.6227 0.33292 0.93557 0.0
C1150 C 0.59009 0.32875 0.90842 0.0
C1151 C 0.57613 0.3667 0.83939 0.0
H1152 H 0.54162 0.32677 0.79765 0.0
C1153 C 0.51002 0.39026 0.75123 0.0
C1154 C 0.49247 0.38159 0.76359 0.0
C1155 C 0.5279 0.38155 0.76028 0.0
C1156 C 0.55111 0.3381 0.80904 0.0
H1157 H 0.64165 0.35217 0.90203 0.0
H1158 H 0.61722 0.35978 0.85195 0.0
H1159 H 0.56936 0.31724 0.83862 0.0
H1160 H 0.47963 0.35631 0.79202 0.0
H1161 H 0.51081 0.34141 0.80925 0.0
H1162 H 0.55749 0.38767 0.81216 0.0
C1163 C 0.61335 0.34991 0.87561 0.0
C1164 C 0.567 0.33264 0.83243 0.0
C1165 C 0.6273 0.34556 0.90429 0.0
C1166 C 0.49299 0.36321 0.78199 0.0
C1167 C 0.51092 0.35468 0.79181 0.0
C1168 C 0.56018 0.37218 0.81641 0.0
C1169 C 0.59462 0.34152 0.87741 0.0
C1170 C 0.57937 0.34694 0.84855 0.0
C1171 C 0.52859 0.36428 0.7828 0.0
C1172 C 0.54719 0.358 0.80165 0.0
H1173 H 0.59993 0.31466 0.9608 0.0
H1174 H 0.57567 0.32233 0.91089 0.0
H1175 H 0.58529 0.37806 0.85178 0.0
H1176 H 0.50994 0.40436 0.73659 0.0
H1177 H 0.5412 0.38902 0.75173 0.0
C1178 C 0.37959 0.74006 0.02862 0.0
C1179 C 0.36198 0.73929 0.00769 0.0
C1180 C 0.38782 0.75818 0.03831 0.0
C1181 C 0.3694 0.80789 0.05709 0.0
H1182 H 0.42307 0.81756 0.08758 0.0
C1183 C 0.39216 0.87643 0.1456 0.0
C1184 C 0.40379 0.87232 0.17861 0.0
C1185 C 0.38887 0.86205 0.11716 0.0
C1186 C 0.40803 0.81506 0.07908 0.0
H1187 H 0.34044 0.75639 0.97621 0.0
H1188 H 0.35538 0.78793 0.99098 0.0
H1189 H 0.41534 0.78916 0.04691 0.0
H1190 H 0.42127 0.84989 0.20724 0.0
H1191 H 0.41544 0.82494 0.15789 0.0
H1192 H 0.36205 0.8335 0.08995 0.0
C1193 C 0.36243 0.77473 0.00155 0.0
C1194 C 0.40359 0.7988 0.05583 0.0
C1195 C 0.354 0.75668 0.99261 0.0
C1196 C 0.41215 0.85358 0.18233 0.0
C1197 C 0.40901 0.83931 0.1538 0.0
C1198 C 0.37387 0.8242 0.07998 0.0
C1199 C 0.37869 0.77577 0.02667 0.0
C1200 C 0.38413 0.79469 0.04543 0.0
C1201 C 0.39732 0.84335 0.12095 0.0
C1202 C 0.39313 0.82766 0.09214 0.0
H1203 H 0.38588 0.72684 0.04092 0.0
H1204 H 0.40032 0.75833 0.05777 0.0
H1205 H 0.35419 0.80508 0.05049 0.0
H1206 H 0.38558 0.89074 0.14173 0.0
H1207 H 0.37981 0.86557 0.09208 0.0
C1208 C 0.09873 0.33946 0.62236 0.0
C1209 C 0.11783 0.33577 0.63547 0.0
C1210 C 0.08366 0.34274 0.64917 0.0
C1211 C 0.07417 0.35654 0.75246 0.0
H1212 H 0.02189 0.33948 0.72535 0.0
C1213 C 0.98726 0.36472 0.80117 0.0
C1214 C 0.98758 0.38508 0.80696 0.0
C1215 C 0.00447 0.35475 0.7913 0.0
C1216 C 0.03642 0.34396 0.73407 0.0
H1217 H 0.13609 0.33263 0.68714 0.0
H1218 H 0.10974 0.33795 0.73391 0.0
H1219 H 0.04925 0.32979 0.68455 0.0
H1220 H 0.0064 0.41053 0.8117 0.0
H1221 H 0.03602 0.39345 0.794 0.0
H1222 H 0.06133 0.37058 0.80221 0.0
C1223 C 0.10644 0.33869 0.70289 0.0
C1224 C 0.05211 0.33872 0.71011 0.0
C1225 C 0.12156 0.33563 0.67603 0.0
C1226 C 0.00564 0.39486 0.80689 0.0
C1227 C 0.02274 0.38497 0.797 0.0
C1228 C 0.0585 0.36159 0.77671 0.0
C1229 C 0.08726 0.34215 0.68981 0.0
C1230 C 0.07107 0.34556 0.71816 0.0
C1231 C 0.02222 0.36499 0.78711 0.0
C1232 C 0.03931 0.356 0.76698 0.0
H1233 H 0.09538 0.33977 0.59132 0.0
H1234 H 0.0692 0.34587 0.63793 0.0
H1235 H 0.08855 0.36206 0.75969 0.0
H1236 H 0.97357 0.35677 0.8012 0.0
H1237 H 0.00364 0.33925 0.78475 0.0
C1238 C 0.87382 0.74227 0.53855 0.0
C1239 C 0.85342 0.74222 0.54324 0.0
C1240 C 0.88356 0.75961 0.52846 0.0
C1241 C 0.89507 0.7917 0.47178 0.0
H1242 H 0.87511 0.84362 0.49448 0.0
C1243 C 0.90067 0.85347 0.359 0.0
C1244 C 0.90355 0.87281 0.37168 0.0
C1245 C 0.89712 0.83852 0.38602 0.0
C1246 C 0.88116 0.82931 0.48813 0.0
H1247 H 0.82758 0.76063 0.54528 0.0
H1248 H 0.84426 0.79042 0.52695 0.0
H1249 H 0.86621 0.81628 0.53668 0.0
H1250 H 0.90487 0.89167 0.42275 0.0
H1251 H 0.89906 0.86548 0.47007 0.0
H1252 H 0.9102 0.80473 0.42355 0.0
C1253 C 0.85294 0.77732 0.53114 0.0
C1254 C 0.87588 0.81356 0.51215 0.0
C1255 C 0.84328 0.7601 0.54132 0.0
C1256 C 0.90252 0.87693 0.41201 0.0
C1257 C 0.8992 0.8619 0.43915 0.0
C1258 C 0.90055 0.80748 0.44811 0.0
C1259 C 0.87306 0.77716 0.52288 0.0
C1260 C 0.88213 0.79443 0.50332 0.0
C1261 C 0.89664 0.84247 0.4265 0.0
C1262 C 0.89303 0.82634 0.45502 0.0
H1263 H 0.88206 0.72874 0.54012 0.0
H1264 H 0.89915 0.75906 0.52316 0.0
H1265 H 0.90013 0.77722 0.46381 0.0
H1266 H 0.90124 0.84984 0.32811 0.0
H1267 H 0.89465 0.82386 0.37505 0.0
C1268 C 0.36941 0.64727 0.16305 0.0
C1269 C 0.3734 0.65697 0.12752 0.0
C1270 C 0.38422 0.64417 0.19058 0.0
C1271 C 0.43252 0.66211 0.22176 0.0
H1272 H 0.43924 0.60965 0.26309 0.0
C1273 C 0.50518 0.63249 0.2819 0.0
C1274 C 0.50475 0.61588 0.30614 0.0
C1275 C 0.4877 0.64129 0.26991 0.0
C1276 C 0.43736 0.62456 0.25289 0.0
H1277 H 0.39615 0.67102 0.09312 0.0
H1278 H 0.42197 0.66553 0.14116 0.0
H1279 H 0.41149 0.61684 0.22135 0.0
H1280 H 0.48627 0.59699 0.34114 0.0
H1281 H 0.45588 0.61313 0.32252 0.0
H1282 H 0.45857 0.66979 0.25294 0.0
C1283 C 0.40733 0.66048 0.14777 0.0
C1284 C 0.42146 0.62861 0.22863 0.0
C1285 C 0.39257 0.6634 0.12007 0.0
C1286 C 0.4869 0.60976 0.32226 0.0
C1287 C 0.4695 0.61883 0.31106 0.0
C1288 C 0.44836 0.65812 0.24646 0.0
C1289 C 0.40329 0.65089 0.18334 0.0
C1290 C 0.41912 0.64728 0.21209 0.0
C1291 C 0.46959 0.63378 0.28257 0.0
C1292 C 0.45123 0.63916 0.26165 0.0
H1293 H 0.35479 0.64219 0.16979 0.0
H1294 H 0.3807 0.63676 0.2178 0.0
H1295 H 0.43087 0.67674 0.20981 0.0
H1296 H 0.51877 0.63731 0.26876 0.0
H1297 H 0.48843 0.65275 0.24796 0.0
C1298 C 0.59323 0.11173 0.91531 0.0
C1299 C 0.58083 0.11678 0.88401 0.0
C1300 C 0.59776 0.1255 0.94426 0.0
C1301 C 0.58177 0.17244 0.98757 0.0
H1302 H 0.637 0.18125 0.00486 0.0
C1303 C 0.61361 0.24666 0.03401 0.0
C1304 C 0.63211 0.24715 0.05165 0.0
C1305 C 0.6049 0.2287 0.02492 0.0
C1306 C 0.62147 0.17877 0.00147 0.0
H1307 H 0.563 0.14006 0.85925 0.0
H1308 H 0.57093 0.16393 0.90961 0.0
H1309 H 0.62656 0.15317 0.96688 0.0
H1310 H 0.65501 0.22959 0.07787 0.0
H1311 H 0.63939 0.19829 0.06407 0.0
H1312 H 0.57668 0.1983 0.02152 0.0
C1313 C 0.57708 0.14935 0.91188 0.0
C1314 C 0.61551 0.16265 0.97945 0.0
C1315 C 0.57273 0.13571 0.88277 0.0
C1316 C 0.64081 0.22954 0.06379 0.0
C1317 C 0.63194 0.21163 0.05552 0.0
C1318 C 0.58771 0.18849 0.01003 0.0
C1319 C 0.58976 0.14446 0.94271 0.0
C1320 C 0.59566 0.15966 0.97127 0.0
C1321 C 0.61443 0.21095 0.03396 0.0
C1322 C 0.60769 0.1922 0.01626 0.0
H1323 H 0.59963 0.09724 0.91718 0.0
H1324 H 0.60758 0.12136 0.96778 0.0
H1325 H 0.56632 0.1703 0.98209 0.0
H1326 H 0.60667 0.26006 0.02414 0.0
H1327 H 0.59147 0.22883 0.00816 0.0
C1328 C 0.26327 0.20531 0.17674 0.0
C1329 C 0.27037 0.21602 0.14451 0.0
C1330 C 0.2548 0.21488 0.20854 0.0
C1331 C 0.25483 0.26205 0.25935 0.0
H1332 H 0.21017 0.23985 0.31357 0.0
C1333 C 0.21765 0.2985 0.39369 0.0
C1334 C 0.21209 0.28587 0.42438 0.0
C1335 C 0.22467 0.29092 0.35835 0.0
C1336 C 0.22275 0.24613 0.29891 0.0
H1337 H 0.27365 0.2452 0.11996 0.0
H1338 H 0.25869 0.26195 0.1757 0.0
H1339 H 0.22136 0.22517 0.25249 0.0
H1340 H 0.21025 0.2554 0.44247 0.0
H1341 H 0.22266 0.24227 0.38107 0.0
H1342 H 0.25629 0.28291 0.30613 0.0
C1343 C 0.2599 0.24613 0.17635 0.0
C1344 C 0.22912 0.23776 0.26391 0.0
C1345 C 0.26833 0.23652 0.14435 0.0
C1346 C 0.2143 0.26556 0.41941 0.0
C1347 C 0.22126 0.258 0.3841 0.0
C1348 C 0.24842 0.27046 0.29441 0.0
C1349 C 0.25324 0.2354 0.20893 0.0
C1350 C 0.24541 0.24543 0.24408 0.0
C1351 C 0.2262 0.27058 0.35298 0.0
C1352 C 0.23251 0.26237 0.31485 0.0
H1353 H 0.26458 0.1895 0.17785 0.0
H1354 H 0.25003 0.20622 0.23341 0.0
H1355 H 0.26756 0.26815 0.24495 0.0
H1356 H 0.21614 0.31422 0.39654 0.0
H1357 H 0.22831 0.30096 0.33482 0.0
C1358 C 0.44878 0.4713 0.63889 0.0
C1359 C 0.46062 0.4655 0.67053 0.0
C1360 C 0.45711 0.47904 0.60488 0.0
C1361 C 0.50231 0.50116 0.56533 0.0
H1362 H 0.48197 0.48285 0.46573 0.0
C1363 C 0.5413 0.51743 0.41955 0.0
C1364 C 0.52945 0.52427 0.38874 0.0
C1365 C 0.53292 0.50954 0.45338 0.0
C1366 C 0.48769 0.4882 0.49331 0.0
H1367 H 0.4905 0.46379 0.69164 0.0
H1368 H 0.50504 0.4771 0.63209 0.0
H1369 H 0.46717 0.47146 0.52671 0.0
H1370 H 0.4995 0.52749 0.36875 0.0
H1371 H 0.4849 0.5137 0.42788 0.0
H1372 H 0.5229 0.51782 0.53186 0.0
C1373 C 0.48928 0.47585 0.63376 0.0
C1374 C 0.47919 0.48174 0.52823 0.0
C1375 C 0.48094 0.46816 0.66786 0.0
C1376 C 0.50905 0.52237 0.39192 0.0
C1377 C 0.50068 0.51441 0.42574 0.0
C1378 C 0.51084 0.50757 0.53041 0.0
C1379 C 0.47747 0.4811 0.60168 0.0
C1380 C 0.48639 0.48817 0.56463 0.0
C1381 C 0.51252 0.50825 0.45708 0.0
C1382 C 0.50363 0.50115 0.49405 0.0
H1383 H 0.43305 0.46959 0.64007 0.0
H1384 H 0.44759 0.4833 0.58096 0.0
H1385 H 0.50801 0.5066 0.59286 0.0
H1386 H 0.55707 0.51859 0.41803 0.0
H1387 H 0.54241 0.50461 0.47682 0.0
C1388 C 0.21688 0.75476 0.64659 0.0
C1389 C 0.21463 0.77513 0.64239 0.0
C1390 C 0.22487 0.74688 0.68083 0.0
C1391 C 0.23191 0.75844 0.78504 0.0
H1392 H 0.26768 0.7144 0.78266 0.0
C1393 C 0.27213 0.72952 0.9225 0.0
C1394 C 0.27439 0.70912 0.92614 0.0
C1395 C 0.26422 0.73764 0.88839 0.0
C1396 C 0.25751 0.72654 0.78381 0.0
H1397 H 0.21968 0.80323 0.67035 0.0
H1398 H 0.23382 0.78945 0.72987 0.0
H1399 H 0.25621 0.72868 0.72125 0.0
H1400 H 0.26932 0.68122 0.89741 0.0
H1401 H 0.25531 0.6954 0.83821 0.0
H1402 H 0.23319 0.75628 0.84762 0.0
C1403 C 0.22909 0.77958 0.70692 0.0
C1404 C 0.25099 0.73475 0.74864 0.0
C1405 C 0.22112 0.78747 0.67267 0.0
C1406 C 0.26791 0.697 0.8955 0.0
C1407 C 0.26001 0.70512 0.86143 0.0
C1408 C 0.23843 0.75023 0.82022 0.0
C1409 C 0.23078 0.7592 0.71159 0.0
C1410 C 0.2381 0.75076 0.74889 0.0
C1411 C 0.2584 0.72553 0.85723 0.0
C1412 C 0.25127 0.73417 0.81997 0.0
H1413 H 0.21202 0.74482 0.62387 0.0
H1414 H 0.22584 0.7311 0.68369 0.0
H1415 H 0.22173 0.77058 0.78617 0.0
H1416 H 0.27699 0.73929 0.9455 0.0
H1417 H 0.26329 0.75343 0.88591 0.0
C1418 C 0.00645 0.5264 0.16412 0.0
C1419 C 0.02674 0.5296 0.16451 0.0
C1420 C -0.00278 0.51972 0.13018 0.0
C1421 C 0.00383 0.5176 0.02304 0.0
H1422 H 0.9629 0.47842 0.02818 0.0
C1423 C 0.97422 0.47667 0.88758 0.0
C1424 C 0.95408 0.47266 0.88628 0.0
C1425 C 0.98251 0.48525 0.92076 0.0
C1426 C 0.97411 0.48958 0.02634 0.0
H1427 H 0.05332 0.52771 0.12992 0.0
H1428 H 0.03723 0.51578 0.07102 0.0
H1429 H 0.97873 0.48923 0.08836 0.0
H1430 H 0.92671 0.47546 0.91804 0.0
H1431 H 0.9412 0.49057 0.97573 0.0
H1432 H -0.00065 0.51775 0.96091 0.0
C1433 C 0.02842 0.51881 0.0967 0.0
C1434 C 0.9832 0.49574 0.06079 0.0
C1435 C 0.03765 0.5255 0.13057 0.0
C1436 C 0.94229 0.47822 0.91816 0.0
C1437 C 0.95059 0.48676 0.95133 0.0
C1438 C -0.00523 0.51141 0.98857 0.0
C1439 C 0.00808 0.51609 0.09598 0.0
C1440 C -0.00177 0.50973 0.05948 0.0
C1441 C 0.97083 0.48999 0.95328 0.0
C1442 C 0.97988 0.49728 0.98987 0.0
H1443 H -0.0024 0.52947 0.18971 0.0
H1444 H 0.98149 0.51791 0.13043 0.0
H1445 H 0.01514 0.52867 0.02117 0.0
H1446 H 0.98372 0.4726 0.86353 0.0
H1447 H -0.00183 0.48746 0.92154 0.0
C1448 C 0.71624 0.76138 0.91771 0.0
C1449 C 0.7136 0.78179 0.91907 0.0
C1450 C 0.72382 0.75253 0.88412 0.0
C1451 C 0.75121 0.76273 0.79306 0.0
H1452 H 0.72538 0.71578 0.75555 0.0
C1453 C 0.7677 0.73012 0.64126 0.0
C1454 C 0.77106 0.70981 0.64049 0.0
C1455 C 0.75987 0.73895 0.67464 0.0
C1456 C 0.73281 0.72881 0.76584 0.0
H1457 H 0.71745 0.80896 0.88668 0.0
H1458 H 0.73048 0.79348 0.82816 0.0
H1459 H 0.7145 0.73096 0.81648 0.0
H1460 H 0.7681 0.68274 0.67356 0.0
H1461 H 0.75451 0.69818 0.7317 0.0
H1462 H 0.76947 0.7606 0.74235 0.0
C1463 C 0.72685 0.78434 0.85312 0.0
C1464 C 0.72665 0.73744 0.80076 0.0
C1465 C 0.71929 0.79319 0.88664 0.0
C1466 C 0.76575 0.69843 0.67321 0.0
C1467 C 0.75787 0.70725 0.70648 0.0
C1468 C 0.75733 0.75412 0.7581 0.0
C1469 C 0.72893 0.7639 0.85129 0.0
C1470 C 0.7358 0.75448 0.81474 0.0
C1471 C 0.75516 0.72762 0.70777 0.0
C1472 C 0.7482 0.73707 0.74417 0.0
H1473 H 0.71207 0.75218 0.94224 0.0
H1474 H 0.72556 0.73675 0.88376 0.0
H1475 H 0.75869 0.77571 0.80336 0.0
H1476 H 0.77158 0.73929 0.6165 0.0
H1477 H 0.75767 0.75466 0.67468 0.0
C1478 C 0.7196 0.28798 0.17917 0.0
C1479 C 0.7146 0.27681 0.14608 0.0
C1480 C 0.72712 0.27896 0.21262 0.0
C1481 C 0.75074 0.23397 0.24892 0.0
H1482 H 0.73076 0.25176 0.34921 0.0
C1483 C 0.77104 0.19633 0.39517 0.0
C1484 C 0.77653 0.209 0.42571 0.0
C1485 C 0.76246 0.20373 0.36106 0.0
C1486 C 0.73655 0.24672 0.32144 0.0
H1487 H 0.71411 0.24745 0.12179 0.0
H1488 H 0.72716 0.23167 0.1805 0.0
H1489 H 0.71845 0.26639 0.28886 0.0
H1490 H 0.77686 0.23934 0.44472 0.0
H1491 H 0.76194 0.2522 0.38525 0.0
H1492 H 0.76892 0.21435 0.28168 0.0
C1493 C 0.72536 0.24743 0.18035 0.0
C1494 C 0.72955 0.25512 0.28689 0.0
C1495 C 0.71785 0.25647 0.14677 0.0
C1496 C 0.77281 0.22916 0.42179 0.0
C1497 C 0.76417 0.23654 0.38779 0.0
C1498 C 0.75773 0.22553 0.28353 0.0
C1499 C 0.72978 0.25857 0.21383 0.0
C1500 C 0.73674 0.24901 0.25029 0.0
C1501 C 0.7591 0.22393 0.35692 0.0
C1502 C 0.75085 0.23199 0.32014 0.0
H1503 H 0.71744 0.3037 0.17954 0.0
H1504 H 0.73079 0.28798 0.23765 0.0
H1505 H 0.75667 0.22908 0.22116 0.0
H1506 H 0.77367 0.18071 0.39725 0.0
H1507 H 0.75849 0.19366 0.33789 0.0
C1508 C 0.0442 0.01401 0.91462 0.0
C1509 C 0.03258 0.02103 0.88363 0.0
C1510 C 0.03558 0.00607 0.9481 0.0
C1511 C 0.99014 0.00853 0.00427 0.0
H1512 H 0.01113 0.96323 0.05868 0.0
C1513 C 0.95097 0.97168 0.13413 0.0
C1514 C 0.96245 0.96495 0.16558 0.0
C1515 C 0.95974 0.97895 0.10022 0.0
C1516 C 0.00528 0.97605 0.04406 0.0
H1517 H 0.0028 0.0244 0.86275 0.0
H1518 H 0.98775 0.01035 0.92122 0.0
H1519 H 0.02569 0.97368 -0.00326 0.0
H1520 H 0.99216 0.96115 0.18655 0.0
H1521 H 0.00748 0.97407 0.12724 0.0
H1522 H 0.96978 0.01096 0.05159 0.0
C1523 C 0.00354 0.01129 0.91974 0.0
C1524 C 0.01355 0.98198 0.00856 0.0
C1525 C 0.01216 0.0192 0.88616 0.0
C1526 C 0.98291 0.96618 0.16281 0.0
C1527 C 0.99168 0.97343 0.12877 0.0
C1528 C 0.98188 0.00262 0.03976 0.0
C1529 C 0.01516 0.005 0.95133 0.0
C1530 C 0.00604 -0.00174 0.98831 0.0
C1531 C 0.98017 0.97966 0.09697 0.0
C1532 C 0.98935 0.98631 0.05998 0.0
H1533 H 0.05998 0.01515 0.91358 0.0
H1534 H 0.0449 0.00147 0.97208 0.0
H1535 H 0.98429 0.02137 0.9897 0.0
H1536 H 0.93517 0.97097 0.13528 0.0
H1537 H 0.95048 0.98346 0.07606 0.0
C1538 C 0.53957 0.02635 0.62781 0.0
C1539 C 0.52839 0.02965 0.66177 0.0
C1540 C 0.53094 0.01851 0.59426 0.0
C1541 C 0.48819 0.99052 0.56049 0.0
H1542 H 0.50055 0.0135 0.45933 0.0
C1543 C 0.44504 0.97084 0.4219 0.0
C1544 C 0.45597 0.96693 0.3879 0.0
C1545 C 0.45392 0.97916 0.45466 0.0
C1546 C 0.4971 0.00683 0.48733 0.0
H1547 H 0.49942 0.02704 0.68722 0.0
H1548 H 0.48438 0.01348 0.62856 0.0
H1549 H 0.51624 0.02612 0.51839 0.0
H1550 H 0.4847 0.96924 0.36127 0.0
H1551 H 0.50022 0.98369 0.41871 0.0
H1552 H 0.46906 0.97124 0.52953 0.0
C1553 C 0.49986 0.01679 0.62806 0.0
C1554 C 0.5061 0.01402 0.52111 0.0
C1555 C 0.50847 0.02464 0.66162 0.0
C1556 C 0.47586 0.97207 0.38698 0.0
C1557 C 0.48474 0.98041 0.41982 0.0
C1558 C 0.4792 0.98334 0.52676 0.0
C1559 C 0.51097 0.01378 0.59396 0.0
C1560 C 0.50169 0.00596 0.55804 0.0
C1561 C 0.47391 0.98376 0.45418 0.0
C1562 C 0.48351 0.99146 0.48986 0.0
H1563 H 0.55497 0.02998 0.62695 0.0
H1564 H 0.53993 0.01608 0.56858 0.0
H1565 H 0.48473 0.98381 0.58846 0.0
H1566 H 0.42966 0.96719 0.42353 0.0
H1567 H 0.44513 0.98191 0.4805 0.0
C1568 C 0.19892 0.27797 0.68905 0.0
C1569 C 0.20111 0.2707 0.65073 0.0
C1570 C 0.20895 0.26951 0.72019 0.0
C1571 C 0.23373 0.22562 0.75499 0.0
H1572 H 0.26058 0.26232 0.82307 0.0
C1573 C 0.28307 0.20021 0.88248 0.0
C1574 C 0.28155 0.21059 0.91796 0.0
C1575 C 0.27402 0.20716 0.84856 0.0
C1576 C 0.253 0.2519 0.80462 0.0
H1577 H 0.21485 0.24815 0.61547 0.0
H1578 H 0.23244 0.23314 0.6706 0.0
H1579 H 0.24297 0.27441 0.76589 0.0
H1580 H 0.26938 0.23647 0.94556 0.0
H1581 H 0.25328 0.24846 0.88643 0.0
H1582 H 0.24342 0.20312 0.79422 0.0
C1583 C 0.22295 0.24553 0.67608 0.0
C1584 C 0.24299 0.25881 0.77182 0.0
C1585 C 0.2129 0.25411 0.64461 0.0
C1586 C 0.27091 0.22818 0.91867 0.0
C1587 C 0.26176 0.23509 0.88473 0.0
C1588 C 0.24367 0.21869 0.78803 0.0
C1589 C 0.22139 0.25351 0.71394 0.0
C1590 C 0.23305 0.24578 0.747 0.0
C1591 C 0.26317 0.22461 0.84933 0.0
C1592 C 0.25323 0.23179 0.81344 0.0
H1593 H 0.18976 0.29057 0.69504 0.0
H1594 H 0.20716 0.27566 0.74924 0.0
H1595 H 0.22607 0.21531 0.73642 0.0
H1596 H 0.29126 0.18666 0.8808 0.0
H1597 H 0.27565 0.19892 0.82165 0.0
C1598 C 0.45569 0.45559 0.93561 0.0
C1599 C 0.46446 0.45806 0.89862 0.0
C1600 C 0.46255 0.4658 0.96806 0.0
C1601 C 0.48885 0.51026 0.99524 0.0
H1602 H 0.49356 0.48455 0.09639 0.0
C1603 C 0.52762 0.54495 0.12715 0.0
C1604 C 0.52012 0.54159 0.16496 0.0
C1605 C 0.51936 0.53588 0.09466 0.0
C1606 C 0.49199 0.492 0.06849 0.0
H1607 H 0.48763 0.47287 0.86689 0.0
H1608 H 0.49977 0.49078 0.92411 0.0
H1609 H 0.48362 0.46563 0.03924 0.0
H1610 H 0.49746 0.52678 0.19813 0.0
H1611 H 0.48283 0.51091 0.1409 0.0
H1612 H 0.49728 0.53663 0.0245 0.0
C1613 C 0.48742 0.481 0.92762 0.0
C1614 C 0.48643 0.48115 0.03574 0.0
C1615 C 0.48059 0.47067 0.89499 0.0
C1616 C 0.50359 0.52961 0.16938 0.0
C1617 C 0.49532 0.52043 0.13671 0.0
C1618 C 0.49438 0.52113 0.02803 0.0
C1619 C 0.47834 0.47875 0.96437 0.0
C1620 C 0.48485 0.49016 -0.00121 0.0
C1621 C 0.50338 0.52321 0.09914 0.0
C1622 C 0.49609 0.51208 0.06495 0.0
H1623 H 0.44328 0.44593 0.93954 0.0
H1624 H 0.45513 0.46391 0.99588 0.0
H1625 H 0.4874 0.51765 0.96724 0.0
H1626 H 0.54028 0.55422 0.12264 0.0
H1627 H 0.52603 0.53818 0.0662 0.0
C1628 C 0.19499 0.76896 0.37964 0.0
C1629 C 0.20005 0.76319 0.41791 0.0
C1630 C 0.20526 0.76182 0.34751 0.0
C1631 C 0.25363 0.74345 0.32203 0.0
H1632 H 0.22916 0.73172 0.22219 0.0
C1633 C 0.2949 0.71117 0.19001 0.0
C1634 C 0.28972 0.71761 0.15222 0.0
C1635 C 0.28463 0.71765 0.22275 0.0
C1636 C 0.23619 0.73524 0.24975 0.0
H1637 H 0.21913 0.74458 0.45244 0.0
H1638 H 0.23714 0.73189 0.39583 0.0
H1639 H 0.20882 0.73853 0.27929 0.0
H1640 H 0.27043 0.73673 0.11928 0.0
H1641 H 0.25245 0.74821 0.17688 0.0
H1642 H 0.281 0.74015 0.29243 0.0
C1643 C 0.22533 0.74217 0.39096 0.0
C1644 C 0.22457 0.73899 0.28247 0.0
C1645 C 0.21492 0.74927 0.42327 0.0
C1646 C 0.27473 0.73151 0.14803 0.0
C1647 C 0.26434 0.73792 0.18091 0.0
C1648 C 0.26526 0.73966 0.28929 0.0
C1649 C 0.22087 0.74876 0.35286 0.0
C1650 C 0.23316 0.74322 0.31891 0.0
C1651 C 0.26891 0.73067 0.21845 0.0
C1652 C 0.25666 0.73559 0.2528 0.0
H1653 H 0.18349 0.77958 0.37453 0.0
H1654 H 0.20156 0.76729 0.31861 0.0
H1655 H 0.26067 0.74704 0.34954 0.0
H1656 H 0.30649 0.70056 0.19424 0.0
H1657 H 0.28843 0.71172 0.25124 0.0
C1658 C 0.03666 0.5292 0.42835 0.0
C1659 C 0.02616 0.53075 0.39302 0.0
C1660 C 0.02852 0.51985 0.46078 0.0
C1661 C 0.99143 0.48404 0.48983 0.0
H1662 H -0.00319 0.50831 0.59206 0.0
C1663 C 0.95043 0.45606 0.62614 0.0
C1664 C 0.96047 0.45589 0.66213 0.0
C1665 C 0.95871 0.46478 0.59312 0.0
C1666 C -0.00458 0.50122 0.56381 0.0
H1667 H -0.00112 0.52354 0.36403 0.0
H1668 H 0.98459 0.50715 0.42108 0.0
H1669 H 0.01029 0.52455 0.53438 0.0
H1670 H 0.98723 0.46453 0.69147 0.0
H1671 H 0.00184 0.47958 0.63346 0.0
H1672 H 0.97664 0.46065 0.51928 0.0
C1673 C -0.0008 0.51314 0.42336 0.0
C1674 C 0.00307 0.51054 0.53078 0.0
C1675 C 0.00734 0.52259 0.3908 0.0
C1676 C 0.97909 0.46448 0.66424 0.0
C1677 C 0.98741 0.47318 0.63108 0.0
C1678 C 0.98382 0.47468 0.5229 0.0
C1679 C 0.0097 0.51178 0.45869 0.0
C1680 C 0.00117 0.50204 0.49349 0.0
C1681 C 0.97725 0.47349 0.59523 0.0
C1682 C 0.98573 0.48318 0.56024 0.0
H1683 H 0.05123 0.53524 0.43113 0.0
H1684 H 0.03706 0.51876 0.48744 0.0
H1685 H 0.99 0.47703 0.46151 0.0
H1686 H 0.93601 0.44966 0.62345 0.0
H1687 H 0.95039 0.46503 0.56611 0.0
C1688 C 0.71096 0.75838 0.14241 0.0
C1689 C 0.7037 0.7776 0.14516 0.0
C1690 C 0.71928 0.74925 0.17512 0.0
C1691 C 0.72108 0.7519 0.28317 0.0
H1692 H 0.76972 0.72337 0.27145 0.0
C1693 C 0.76832 0.72833 0.41519 0.0
C1694 C 0.7766 0.7095 0.41379 0.0
C1695 C 0.75883 0.73608 0.38238 0.0
C1696 C 0.75601 0.7311 0.27511 0.0
H1697 H 0.69953 0.80228 0.18448 0.0
H1698 H 0.71417 0.78645 0.24104 0.0
H1699 H 0.754 0.73751 0.2138 0.0
H1700 H 0.78118 0.68397 0.37692 0.0
H1701 H 0.76452 0.69746 0.32006 0.0
H1702 H 0.72318 0.74562 0.34453 0.0
C1703 C 0.71319 0.77833 0.21385 0.0
C1704 C 0.74701 0.73916 0.2421 0.0
C1705 C 0.70491 0.78744 0.18128 0.0
C1706 C 0.77506 0.69857 0.379 0.0
C1707 C 0.7656 0.70632 0.34629 0.0
C1708 C 0.73009 0.74385 0.31617 0.0
C1709 C 0.72046 0.75915 0.21116 0.0
C1710 C 0.72952 0.74976 0.24584 0.0
C1711 C 0.75745 0.72517 0.34757 0.0
C1712 C 0.7477 0.73346 0.31251 0.0
H1713 H 0.71021 0.75039 0.11505 0.0
H1714 H 0.72464 0.73439 0.17231 0.0
H1715 H 0.70745 0.75975 0.28686 0.0
H1716 H 0.76928 0.73714 0.4415 0.0
H1717 H 0.75285 0.75075 0.38406 0.0
C1718 C 0.79784 0.22153 0.68781 0.0
C1719 C 0.79277 0.22673 0.64923 0.0
C1720 C 0.78851 0.23018 0.71959 0.0
C1721 C 0.74197 0.25293 0.74496 0.0
H1722 H 0.76799 0.26277 0.84406 0.0
C1723 C 0.70359 0.28637 0.87954 0.0
C1724 C 0.70771 0.27801 0.91636 0.0
C1725 C 0.7138 0.28047 0.8463 0.0
C1726 C 0.76054 0.25989 0.81664 0.0
H1727 H 0.77474 0.24593 0.61369 0.0
H1728 H 0.75844 0.26132 0.66968 0.0
H1729 H 0.78734 0.25443 0.78635 0.0
H1730 H 0.72533 0.25649 0.94704 0.0
H1731 H 0.74333 0.24615 0.88851 0.0
H1732 H 0.71516 0.25843 0.77538 0.0
C1733 C 0.76948 0.25027 0.6751 0.0
C1734 C 0.77159 0.25522 0.78359 0.0
C1735 C 0.77891 0.2416 0.64311 0.0
C1736 C 0.72185 0.26317 0.91905 0.0
C1737 C 0.73223 0.25738 0.8857 0.0
C1738 C 0.73093 0.25772 0.77797 0.0
C1739 C 0.77389 0.24429 0.71362 0.0
C1740 C 0.76241 0.25143 0.74751 0.0
C1741 C 0.72844 0.26618 0.84915 0.0
C1742 C 0.7401 0.26102 0.8142 0.0
H1743 H 0.80859 0.21023 0.69357 0.0
H1744 H 0.79213 0.22508 0.7488 0.0
H1745 H 0.73443 0.24975 0.71778 0.0
H1746 H 0.69268 0.29777 0.87646 0.0
H1747 H 0.71065 0.28757 0.81855 0.0
C1748 C 0.95356 0.95956 0.42803 0.0
C1749 C 0.96369 0.95857 0.39219 0.0
C1750 C 0.96182 0.96888 0.46026 0.0
C1751 C -0.00183 0.00571 0.48753 0.0
H1752 H 0.99383 0.98178 0.59048 0.0
C1753 C 0.03934 0.03469 0.62247 0.0
C1754 C 0.02934 0.03499 0.6585 0.0
C1755 C 0.03103 0.02581 0.58975 0.0
C1756 C -0.00507 0.98876 0.562 0.0
H1757 H 0.99052 0.96655 0.36221 0.0
H1758 H 0.00504 0.98282 0.41895 0.0
H1759 H 0.98056 0.96492 0.53346 0.0
H1760 H 0.00259 0.02649 0.6882 0.0
H1761 H 0.98798 0.01108 0.6307 0.0
H1762 H 0.01252 0.02958 0.5161 0.0
C1763 C 0.9906 0.97648 0.42175 0.0
C1764 C 0.98739 0.97909 0.52937 0.0
C1765 C 0.98234 0.96708 0.38938 0.0
C1766 C 0.0107 0.02645 0.66092 0.0
C1767 C 0.00238 0.01754 0.62808 0.0
C1768 C 0.00569 0.0154 0.52018 0.0
C1769 C 0.9804 0.97744 0.45748 0.0
C1770 C 0.98891 0.98748 0.49184 0.0
C1771 C 0.01254 0.01704 0.59226 0.0
C1772 C 0.00414 0.00702 0.55774 0.0
H1773 H 0.93915 0.95321 0.43127 0.0
H1774 H 0.95351 0.96964 0.48725 0.0
H1775 H -0.00072 0.01265 0.45901 0.0
H1776 H 0.05374 0.04111 0.61953 0.0
H1777 H 0.03931 0.02544 0.56268 0.0
C1778 C 0.50556 0.02265 0.88654 0.0
C1779 C 0.52476 0.02984 0.88919 0.0
C1780 C 0.49702 0.01304 0.91846 0.0
C1781 C 0.50929 0.98749 0.01076 0.0
H1782 H 0.45646 0.00136 0.04107 0.0
C1783 C 0.47626 0.9657 0.16012 0.0
C1784 C 0.45698 0.95864 0.15962 0.0
C1785 C 0.48443 0.974 0.12642 0.0
C1786 C 0.47116 -0.0028 0.03271 0.0
H1787 H 0.55009 0.03238 0.92731 0.0
H1788 H 0.53514 0.01589 0.9827 0.0
H1789 H 0.47075 0.0159 0.9823 0.0
H1790 H 0.43113 0.95485 0.12337 0.0
H1791 H 0.44545 0.96919 0.06482 0.0
H1792 H 0.50975 0.96892 0.06137 0.0
C1793 C 0.52677 0.01744 0.95592 0.0
C1794 C 0.4793 0.00547 -0.00096 0.0
C1795 C 0.53527 0.02703 0.92417 0.0
C1796 C 0.44603 0.96016 0.12484 0.0
C1797 C 0.45417 0.96848 0.09129 0.0
C1798 C 0.50115 0.97924 0.04445 0.0
C1799 C 0.50755 0.0104 0.95348 0.0
C1800 C 0.4985 0.0008 0.98789 0.0
C1801 C 0.47345 0.97544 0.09169 0.0
C1802 C 0.48205 0.9841 0.05586 0.0
H1803 H 0.4971 0.02454 0.85997 0.0
H1804 H 0.48222 0.0076 0.91569 0.0
H1805 H 0.52402 0.9834 0.00254 0.0
H1806 H 0.48507 0.96476 0.18643 0.0
H1807 H 0.49928 0.97945 0.12763 0.0
loop_
_geom_bond_atom_site_label_1
_geom_bond_atom_site_label_2
_geom_bond_distance
_geom_bond_site_symmetry_2
_ccdc_geom_bond_type
O0 Zn1 1.953 . S
O0 C16 1.225 . S
Zn1 O0 1.953 . S
Zn1 O2 1.949 1_556 S
Zn1 O8 1.919 . S
Zn1 O13 1.924 . S
O2 Zn1 1.949 1_554 S
O2 Zn3 1.923 . S
O2 Zn4 1.950 . S
O2 Zn5 1.945 . S
Zn3 O2 1.923 . S
Zn3 O6 1.933 . S
Zn3 O9 1.941 1_554 S
Zn3 O10 1.965 . S
Zn4 O2 1.950 . S
Zn4 O11 1.938 . S
Zn4 O12 1.906 . S
Zn4 O22 1.953 1_554 S
Zn5 O2 1.945 . S
Zn5 O7 1.932 . S
Zn5 O14 1.977 . S
Zn5 O15 1.910 . S
O6 Zn3 1.933 . S
O6 C17 1.226 . S
O7 Zn5 1.932 . S
O7 C17 1.307 . S
O8 Zn1 1.919 . S
O8 C19 1.253 . S
O9 Zn3 1.941 1_556 S
O9 C19 1.283 . S
O10 Zn3 1.965 . S
O10 C18 1.303 . S
O11 Zn4 1.938 . S
O11 C18 1.247 . S
O12 Zn4 1.906 . S
O12 C20 1.304 . S
O13 Zn1 1.924 . S
O13 C21 1.311 . S
O14 Zn5 1.977 . S
O14 C20 1.272 . S
O15 Zn5 1.910 . S
O15 C21 1.231 1_554 S
C16 O0 1.225 . S
C16 O22 1.298 . S
C17 O6 1.226 . S
C17 O7 1.307 . S
C18 O10 1.303 . S
C18 O11 1.247 . S
C19 O8 1.253 . S
C19 O9 1.283 . S
C20 O12 1.304 . S
C20 O14 1.272 . S
C21 O13 1.311 . S
C21 O15 1.231 1_556 S
O22 Zn4 1.953 1_556 S
O22 C16 1.298 . S
O23 Zn24 1.953 . S
O23 C39 1.225 . S
Zn24 O23 1.953 . S
Zn24 O25 1.949 . S
Zn24 O31 1.919 . S
Zn24 O36 1.924 . S
O25 Zn24 1.949 . S
O25 Zn26 1.923 . S
O25 Zn27 1.950 . S
O25 Zn28 1.945 . S
Zn26 O25 1.923 . S
Zn26 O29 1.933 . S
Zn26 O32 1.941 . S
Zn26 O33 1.965 . S
Zn27 O25 1.950 . S
Zn27 O34 1.938 . S
Zn27 O35 1.906 . S
Zn27 O45 1.953 . S
Zn28 O25 1.945 . S
Zn28 O30 1.932 . S
Zn28 O37 1.977 . S
Zn28 O38 1.910 . S
O29 Zn26 1.933 . S
O29 C40 1.226 . S
O30 Zn28 1.932 . S
O30 C40 1.307 . S
O31 Zn24 1.919 . S
O31 C42 1.253 . S
O32 Zn26 1.941 . S
O32 C42 1.283 . S
O33 Zn26 1.965 . S
O33 C41 1.303 . S
O34 Zn27 1.938 . S
O34 C41 1.247 . S
O35 Zn27 1.906 . S
O35 C43 1.304 . S
O36 Zn24 1.924 . S
O36 C44 1.311 . S
O37 Zn28 1.977 . S
O37 C43 1.272 . S
O38 Zn28 1.910 . S
O38 C44 1.231 . S
C39 O23 1.225 . S
C39 O45 1.298 . S
C40 O29 1.226 . S
C40 O30 1.307 . S
C41 O33 1.303 . S
C41 O34 1.247 . S
C42 O31 1.253 . S
C42 O32 1.283 . S
C43 O35 1.304 . S
C43 O37 1.272 . S
C44 O36 1.311 . S
C44 O38 1.231 . S
O45 Zn27 1.953 . S
O45 C39 1.298 . S
O46 Zn47 1.953 . S
O46 C62 1.225 . S
Zn47 O46 1.953 . S
Zn47 O48 1.949 . S
Zn47 O54 1.919 . S
Zn47 O59 1.924 . S
O48 Zn47 1.949 . S
O48 Zn49 1.923 . S
O48 Zn50 1.950 . S
O48 Zn51 1.945 . S
Zn49 O48 1.923 . S
Zn49 O52 1.933 . S
Zn49 O55 1.941 . S
Zn49 O56 1.965 . S
Zn50 O48 1.950 . S
Zn50 O57 1.938 . S
Zn50 O58 1.906 . S
Zn50 O68 1.953 . S
Zn51 O48 1.945 . S
Zn51 O53 1.932 . S
Zn51 O60 1.977 . S
Zn51 O61 1.910 . S
O52 Zn49 1.933 . S
O52 C63 1.226 . S
O53 Zn51 1.932 . S
O53 C63 1.307 . S
O54 Zn47 1.919 . S
O54 C65 1.253 . S
O55 Zn49 1.941 . S
O55 C65 1.283 . S
O56 Zn49 1.965 . S
O56 C64 1.303 . S
O57 Zn50 1.938 . S
O57 C64 1.247 . S
O58 Zn50 1.906 . S
O58 C66 1.304 . S
O59 Zn47 1.924 . S
O59 C67 1.311 . S
O60 Zn51 1.977 . S
O60 C66 1.272 . S
O61 Zn51 1.910 . S
O61 C67 1.231 . S
C62 O46 1.225 . S
C62 O68 1.298 . S
C63 O52 1.226 . S
C63 O53 1.307 . S
C64 O56 1.303 . S
C64 O57 1.247 . S
C65 O54 1.253 . S
C65 O55 1.283 . S
C66 O58 1.304 . S
C66 O60 1.272 . S
C67 O59 1.311 . S
C67 O61 1.231 . S
O68 Zn50 1.953 . S
O68 C62 1.298 . S
O69 Zn70 1.953 . S
O69 C85 1.225 . S
Zn70 O69 1.953 . S
Zn70 O71 1.949 . S
Zn70 O77 1.919 . S
Zn70 O82 1.924 . S
O71 Zn70 1.949 . S
O71 Zn72 1.923 . S
O71 Zn73 1.950 . S
O71 Zn74 1.945 . S
Zn72 O71 1.923 . S
Zn72 O75 1.933 . S
Zn72 O78 1.941 . S
Zn72 O79 1.965 . S
Zn73 O71 1.950 . S
Zn73 O80 1.938 . S
Zn73 O81 1.906 . S
Zn73 O91 1.953 . S
Zn74 O71 1.945 . S
Zn74 O76 1.932 . S
Zn74 O83 1.977 . S
Zn74 O84 1.910 . S
O75 Zn72 1.933 . S
O75 C86 1.226 . S
O76 Zn74 1.932 . S
O76 C86 1.307 . S
O77 Zn70 1.919 . S
O77 C88 1.253 . S
O78 Zn72 1.941 . S
O78 C88 1.283 . S
O79 Zn72 1.965 . S
O79 C87 1.303 . S
O80 Zn73 1.938 . S
O80 C87 1.247 . S
O81 Zn73 1.906 . S
O81 C89 1.304 . S
O82 Zn70 1.924 . S
O82 C90 1.311 . S
O83 Zn74 1.977 . S
O83 C89 1.272 . S
O84 Zn74 1.910 . S
O84 C90 1.231 . S
C85 O69 1.225 . S
C85 O91 1.298 . S
C86 O75 1.226 . S
C86 O76 1.307 . S
C87 O79 1.303 . S
C87 O80 1.247 . S
C88 O77 1.253 . S
C88 O78 1.283 . S
C89 O81 1.304 . S
C89 O83 1.272 . S
C90 O82 1.311 . S
C90 O84 1.231 . S
O91 Zn73 1.953 . S
O91 C85 1.298 . S
O92 Zn93 1.953 . S
O92 C108 1.225 . S
Zn93 O92 1.953 . S
Zn93 O94 1.949 . S
Zn93 O100 1.919 . S
Zn93 O105 1.924 . S
O94 Zn93 1.949 . S
O94 Zn95 1.923 . S
O94 Zn96 1.950 . S
O94 Zn97 1.945 . S
Zn95 O94 1.923 . S
Zn95 O98 1.933 1_554 S
Zn95 O101 1.941 . S
Zn95 O102 1.965 . S
Zn96 O94 1.950 . S
Zn96 O103 1.938 . S
Zn96 O104 1.906 1_554 S
Zn96 O114 1.953 . S
Zn97 O94 1.945 . S
Zn97 O99 1.932 1_554 S
Zn97 O106 1.977 1_554 S
Zn97 O107 1.910 . S
O98 Zn95 1.933 1_556 S
O98 C109 1.226 . S
O99 Zn97 1.932 1_556 S
O99 C109 1.307 . S
O100 Zn93 1.919 . S
O100 C111 1.253 . S
O101 Zn95 1.941 . S
O101 C111 1.283 . S
O102 Zn95 1.965 . S
O102 C110 1.303 . S
O103 Zn96 1.938 . S
O103 C110 1.247 . S
O104 Zn96 1.906 1_556 S
O104 C112 1.304 . S
O105 Zn93 1.924 . S
O105 C113 1.311 . S
O106 Zn97 1.977 1_556 S
O106 C112 1.272 . S
O107 Zn97 1.910 . S
O107 C113 1.231 . S
C108 O92 1.225 . S
C108 O114 1.298 . S
C109 O98 1.226 . S
C109 O99 1.307 . S
C110 O102 1.303 . S
C110 O103 1.247 . S
C111 O100 1.253 . S
C111 O101 1.283 . S
C112 O104 1.304 . S
C112 O106 1.272 . S
C113 O105 1.311 . S
C113 O107 1.231 . S
O114 Zn96 1.953 . S
O114 C108 1.298 . S
O115 Zn116 1.953 . S
O115 C131 1.225 . S
Zn116 O115 1.953 . S
Zn116 O117 1.949 . S
Zn116 O123 1.919 . S
Zn116 O128 1.924 . S
O117 Zn116 1.949 . S
O117 Zn118 1.923 . S
O117 Zn119 1.950 . S
O117 Zn120 1.945 . S
Zn118 O117 1.923 . S
Zn118 O121 1.933 . S
Zn118 O124 1.941 . S
Zn118 O125 1.965 . S
Zn119 O117 1.950 . S
Zn119 O126 1.938 . S
Zn119 O127 1.906 . S
Zn119 O137 1.953 . S
Zn120 O117 1.945 . S
Zn120 O122 1.932 . S
Zn120 O129 1.977 . S
Zn120 O130 1.910 . S
O121 Zn118 1.933 . S
O121 C132 1.226 . S
O122 Zn120 1.932 . S
O122 C132 1.307 . S
O123 Zn116 1.919 . S
O123 C134 1.253 . S
O124 Zn118 1.941 . S
O124 C134 1.283 . S
O125 Zn118 1.965 . S
O125 C133 1.303 . S
O126 Zn119 1.938 . S
O126 C133 1.247 . S
O127 Zn119 1.906 . S
O127 C135 1.304 . S
O128 Zn116 1.924 . S
O128 C136 1.311 . S
O129 Zn120 1.977 . S
O129 C135 1.272 . S
O130 Zn120 1.910 . S
O130 C136 1.231 . S
C131 O115 1.225 . S
C131 O137 1.298 . S
C132 O121 1.226 . S
C132 O122 1.307 . S
C133 O125 1.303 . S
C133 O126 1.247 . S
C134 O123 1.253 . S
C134 O124 1.283 . S
C135 O127 1.304 . S
C135 O129 1.272 . S
C136 O128 1.311 . S
C136 O130 1.231 . S
O137 Zn119 1.953 . S
O137 C131 1.298 . S
O138 Zn139 1.953 . S
O138 C154 1.225 . S
Zn139 O138 1.953 . S
Zn139 O140 1.949 . S
Zn139 O146 1.919 . S
Zn139 O151 1.924 . S
O140 Zn139 1.949 . S
O140 Zn141 1.923 . S
O140 Zn142 1.950 . S
O140 Zn143 1.945 . S
Zn141 O140 1.923 . S
Zn141 O144 1.933 . S
Zn141 O147 1.941 . S
Zn141 O148 1.965 . S
Zn142 O140 1.950 . S
Zn142 O149 1.938 . S
Zn142 O150 1.906 . S
Zn142 O160 1.953 . S
Zn143 O140 1.945 . S
Zn143 O145 1.932 . S
Zn143 O152 1.977 . S
Zn143 O153 1.910 . S
O144 Zn141 1.933 . S
O144 C155 1.226 . S
O145 Zn143 1.932 . S
O145 C155 1.307 . S
O146 Zn139 1.919 . S
O146 C157 1.253 . S
O147 Zn141 1.941 . S
O147 C157 1.283 . S
O148 Zn141 1.965 . S
O148 C156 1.303 . S
O149 Zn142 1.938 . S
O149 C156 1.247 . S
O150 Zn142 1.906 . S
O150 C158 1.304 . S
O151 Zn139 1.924 . S
O151 C159 1.311 . S
O152 Zn143 1.977 . S
O152 C158 1.272 . S
O153 Zn143 1.910 . S
O153 C159 1.231 . S
C154 O138 1.225 . S
C154 O160 1.298 . S
C155 O144 1.226 . S
C155 O145 1.307 . S
C156 O148 1.303 . S
C156 O149 1.247 . S
C157 O146 1.253 . S
C157 O147 1.283 . S
C158 O150 1.304 . S
C158 O152 1.272 . S
C159 O151 1.311 . S
C159 O153 1.231 . S
O160 Zn142 1.953 . S
O160 C154 1.298 . S
O161 Zn162 1.953 . S
O161 C177 1.225 . S
Zn162 O161 1.953 . S
Zn162 O163 1.949 . S
Zn162 O169 1.919 . S
Zn162 O174 1.924 . S
O163 Zn162 1.949 . S
O163 Zn164 1.923 . S
O163 Zn165 1.950 . S
O163 Zn166 1.945 . S
Zn164 O163 1.923 . S
Zn164 O167 1.933 . S
Zn164 O170 1.941 . S
Zn164 O171 1.965 . S
Zn165 O163 1.950 . S
Zn165 O172 1.938 . S
Zn165 O173 1.906 . S
Zn165 O183 1.953 . S
Zn166 O163 1.945 . S
Zn166 O168 1.932 . S
Zn166 O175 1.977 . S
Zn166 O176 1.910 . S
O167 Zn164 1.933 . S
O167 C178 1.226 . S
O168 Zn166 1.932 . S
O168 C178 1.307 . S
O169 Zn162 1.919 . S
O169 C180 1.253 . S
O170 Zn164 1.941 . S
O170 C180 1.283 . S
O171 Zn164 1.965 . S
O171 C179 1.303 . S
O172 Zn165 1.938 . S
O172 C179 1.247 . S
O173 Zn165 1.906 . S
O173 C181 1.304 . S
O174 Zn162 1.924 . S
O174 C182 1.311 . S
O175 Zn166 1.977 . S
O175 C181 1.272 . S
O176 Zn166 1.910 . S
O176 C182 1.231 . S
C177 O161 1.225 . S
C177 O183 1.298 . S
C178 O167 1.226 . S
C178 O168 1.307 . S
C179 O171 1.303 . S
C179 O172 1.247 . S
C180 O169 1.253 . S
C180 O170 1.283 . S
C181 O173 1.304 . S
C181 O175 1.272 . S
C182 O174 1.311 . S
C182 O176 1.231 . S
O183 Zn165 1.953 . S
O183 C177 1.298 . S
O184 Zn185 1.953 . S
O184 C200 1.225 . S
Zn185 O184 1.953 . S
Zn185 O186 1.949 . S
Zn185 O192 1.919 . S
Zn185 O197 1.924 . S
O186 Zn185 1.949 . S
O186 Zn187 1.923 . S
O186 Zn188 1.950 . S
O186 Zn189 1.945 . S
Zn187 O186 1.923 . S
Zn187 O190 1.933 . S
Zn187 O193 1.941 . S
Zn187 O194 1.965 . S
Zn188 O186 1.950 . S
Zn188 O195 1.938 . S
Zn188 O196 1.906 . S
Zn188 O206 1.953 . S
Zn189 O186 1.945 . S
Zn189 O191 1.932 . S
Zn189 O198 1.977 . S
Zn189 O199 1.910 . S
O190 Zn187 1.933 . S
O190 C201 1.226 . S
O191 Zn189 1.932 . S
O191 C201 1.307 . S
O192 Zn185 1.919 . S
O192 C203 1.253 . S
O193 Zn187 1.941 . S
O193 C203 1.283 . S
O194 Zn187 1.965 . S
O194 C202 1.303 . S
O195 Zn188 1.938 . S
O195 C202 1.247 . S
O196 Zn188 1.906 . S
O196 C204 1.304 . S
O197 Zn185 1.924 . S
O197 C205 1.311 . S
O198 Zn189 1.977 . S
O198 C204 1.272 . S
O199 Zn189 1.910 . S
O199 C205 1.231 . S
C200 O184 1.225 . S
C200 O206 1.298 . S
C201 O190 1.226 . S
C201 O191 1.307 . S
C202 O194 1.303 . S
C202 O195 1.247 . S
C203 O192 1.253 . S
C203 O193 1.283 . S
C204 O196 1.304 . S
C204 O198 1.272 . S
C205 O197 1.311 . S
C205 O199 1.231 . S
O206 Zn188 1.953 . S
O206 C200 1.298 . S
O207 Zn208 1.953 . S
O207 C223 1.225 . S
Zn208 O207 1.953 . S
Zn208 O209 1.949 . S
Zn208 O215 1.919 . S
Zn208 O220 1.924 . S
O209 Zn208 1.949 . S
O209 Zn210 1.923 . S
O209 Zn211 1.950 . S
O209 Zn212 1.945 . S
Zn210 O209 1.923 . S
Zn210 O213 1.933 . S
Zn210 O216 1.941 . S
Zn210 O217 1.965 . S
Zn211 O209 1.950 . S
Zn211 O218 1.938 . S
Zn211 O219 1.906 . S
Zn211 O229 1.953 . S
Zn212 O209 1.945 . S
Zn212 O214 1.932 . S
Zn212 O221 1.977 . S
Zn212 O222 1.910 . S
O213 Zn210 1.933 . S
O213 C224 1.226 . S
O214 Zn212 1.932 . S
O214 C224 1.307 . S
O215 Zn208 1.919 . S
O215 C226 1.253 . S
O216 Zn210 1.941 . S
O216 C226 1.283 . S
O217 Zn210 1.965 . S
O217 C225 1.303 . S
O218 Zn211 1.938 . S
O218 C225 1.247 . S
O219 Zn211 1.906 . S
O219 C227 1.304 . S
O220 Zn208 1.924 . S
O220 C228 1.311 . S
O221 Zn212 1.977 . S
O221 C227 1.272 . S
O222 Zn212 1.910 . S
O222 C228 1.231 . S
C223 O207 1.225 . S
C223 O229 1.298 . S
C224 O213 1.226 . S
C224 O214 1.307 . S
C225 O217 1.303 . S
C225 O218 1.247 . S
C226 O215 1.253 . S
C226 O216 1.283 . S
C227 O219 1.304 . S
C227 O221 1.272 . S
C228 O220 1.311 . S
C228 O222 1.231 . S
O229 Zn211 1.953 . S
O229 C223 1.298 . S
O230 Zn231 1.953 . S
O230 C246 1.225 . S
Zn231 O230 1.953 . S
Zn231 O232 1.949 1_556 S
Zn231 O238 1.919 . S
Zn231 O243 1.924 . S
O232 Zn231 1.949 1_554 S
O232 Zn233 1.923 . S
O232 Zn234 1.950 . S
O232 Zn235 1.945 . S
Zn233 O232 1.923 . S
Zn233 O236 1.933 . S
Zn233 O239 1.941 1_554 S
Zn233 O240 1.965 . S
Zn234 O232 1.950 . S
Zn234 O241 1.938 . S
Zn234 O242 1.906 . S
Zn234 O252 1.953 1_554 S
Zn235 O232 1.945 . S
Zn235 O237 1.932 . S
Zn235 O244 1.977 . S
Zn235 O245 1.910 . S
O236 Zn233 1.933 . S
O236 C247 1.226 . S
O237 Zn235 1.932 . S
O237 C247 1.307 . S
O238 Zn231 1.919 . S
O238 C249 1.253 . S
O239 Zn233 1.941 1_556 S
O239 C249 1.283 . S
O240 Zn233 1.965 . S
O240 C248 1.303 . S
O241 Zn234 1.938 . S
O241 C248 1.247 . S
O242 Zn234 1.906 . S
O242 C250 1.304 . S
O243 Zn231 1.924 . S
O243 C251 1.311 . S
O244 Zn235 1.977 . S
O244 C250 1.272 . S
O245 Zn235 1.910 . S
O245 C251 1.231 1_554 S
C246 O230 1.225 . S
C246 O252 1.298 . S
C247 O236 1.226 . S
C247 O237 1.307 . S
C248 O240 1.303 . S
C248 O241 1.247 . S
C249 O238 1.253 . S
C249 O239 1.283 . S
C250 O242 1.304 . S
C250 O244 1.272 . S
C251 O243 1.311 . S
C251 O245 1.231 1_556 S
O252 Zn234 1.953 1_556 S
O252 C246 1.298 . S
O253 Zn254 1.953 . S
O253 C269 1.225 . S
Zn254 O253 1.953 . S
Zn254 O255 1.949 . S
Zn254 O261 1.919 . S
Zn254 O266 1.924 . S
O255 Zn254 1.949 . S
O255 Zn256 1.923 . S
O255 Zn257 1.950 . S
O255 Zn258 1.945 . S
Zn256 O255 1.923 . S
Zn256 O259 1.933 . S
Zn256 O262 1.941 . S
Zn256 O263 1.965 . S
Zn257 O255 1.950 . S
Zn257 O264 1.938 . S
Zn257 O265 1.906 . S
Zn257 O275 1.953 . S
Zn258 O255 1.945 . S
Zn258 O260 1.932 . S
Zn258 O267 1.977 . S
Zn258 O268 1.910 . S
O259 Zn256 1.933 . S
O259 C270 1.226 . S
O260 Zn258 1.932 . S
O260 C270 1.307 . S
O261 Zn254 1.919 . S
O261 C272 1.253 . S
O262 Zn256 1.941 . S
O262 C272 1.283 . S
O263 Zn256 1.965 . S
O263 C271 1.303 . S
O264 Zn257 1.938 . S
O264 C271 1.247 . S
O265 Zn257 1.906 . S
O265 C273 1.304 . S
O266 Zn254 1.924 . S
O266 C274 1.311 . S
O267 Zn258 1.977 . S
O267 C273 1.272 . S
O268 Zn258 1.910 . S
O268 C274 1.231 . S
C269 O253 1.225 . S
C269 O275 1.298 . S
C270 O259 1.226 . S
C270 O260 1.307 . S
C271 O263 1.303 . S
C271 O264 1.247 . S
C272 O261 1.253 . S
C272 O262 1.283 . S
C273 O265 1.304 . S
C273 O267 1.272 . S
C274 O266 1.311 . S
C274 O268 1.231 . S
O275 Zn257 1.953 . S
O275 C269 1.298 . S
O276 Zn277 1.953 . S
O276 C292 1.225 . S
Zn277 O276 1.953 . S
Zn277 O278 1.949 . S
Zn277 O284 1.919 . S
Zn277 O289 1.924 . S
O278 Zn277 1.949 . S
O278 Zn279 1.923 . S
O278 Zn280 1.950 . S
O278 Zn281 1.945 . S
Zn279 O278 1.923 . S
Zn279 O282 1.933 . S
Zn279 O285 1.941 . S
Zn279 O286 1.965 . S
Zn280 O278 1.950 . S
Zn280 O287 1.938 . S
Zn280 O288 1.906 . S
Zn280 O298 1.953 . S
Zn281 O278 1.945 . S
Zn281 O283 1.932 . S
Zn281 O290 1.977 . S
Zn281 O291 1.910 . S
O282 Zn279 1.933 . S
O282 C293 1.226 . S
O283 Zn281 1.932 . S
O283 C293 1.307 . S
O284 Zn277 1.919 . S
O284 C295 1.253 . S
O285 Zn279 1.941 . S
O285 C295 1.283 . S
O286 Zn279 1.965 . S
O286 C294 1.303 . S
O287 Zn280 1.938 . S
O287 C294 1.247 . S
O288 Zn280 1.906 . S
O288 C296 1.304 . S
O289 Zn277 1.924 . S
O289 C297 1.311 . S
O290 Zn281 1.977 . S
O290 C296 1.272 . S
O291 Zn281 1.910 . S
O291 C297 1.231 . S
C292 O276 1.225 . S
C292 O298 1.298 . S
C293 O282 1.226 . S
C293 O283 1.307 . S
C294 O286 1.303 . S
C294 O287 1.247 . S
C295 O284 1.253 . S
C295 O285 1.283 . S
C296 O288 1.304 . S
C296 O290 1.272 . S
C297 O289 1.311 . S
C297 O291 1.231 . S
O298 Zn280 1.953 . S
O298 C292 1.298 . S
O299 Zn300 1.953 . S
O299 C315 1.225 . S
Zn300 O299 1.953 . S
Zn300 O301 1.949 . S
Zn300 O307 1.919 . S
Zn300 O312 1.924 . S
O301 Zn300 1.949 . S
O301 Zn302 1.923 . S
O301 Zn303 1.950 . S
O301 Zn304 1.945 . S
Zn302 O301 1.923 . S
Zn302 O305 1.933 . S
Zn302 O308 1.941 . S
Zn302 O309 1.965 . S
Zn303 O301 1.950 . S
Zn303 O310 1.938 . S
Zn303 O311 1.906 . S
Zn303 O321 1.953 . S
Zn304 O301 1.945 . S
Zn304 O306 1.932 . S
Zn304 O313 1.977 . S
Zn304 O314 1.910 . S
O305 Zn302 1.933 . S
O305 C316 1.226 . S
O306 Zn304 1.932 . S
O306 C316 1.307 . S
O307 Zn300 1.919 . S
O307 C318 1.253 . S
O308 Zn302 1.941 . S
O308 C318 1.283 . S
O309 Zn302 1.965 . S
O309 C317 1.303 . S
O310 Zn303 1.938 . S
O310 C317 1.247 . S
O311 Zn303 1.906 . S
O311 C319 1.304 . S
O312 Zn300 1.924 . S
O312 C320 1.311 . S
O313 Zn304 1.977 . S
O313 C319 1.272 . S
O314 Zn304 1.910 . S
O314 C320 1.231 . S
C315 O299 1.225 . S
C315 O321 1.298 . S
C316 O305 1.226 . S
C316 O306 1.307 . S
C317 O309 1.303 . S
C317 O310 1.247 . S
C318 O307 1.253 . S
C318 O308 1.283 . S
C319 O311 1.304 . S
C319 O313 1.272 . S
C320 O312 1.311 . S
C320 O314 1.231 . S
O321 Zn303 1.953 . S
O321 C315 1.298 . S
O322 Zn323 1.953 . S
O322 C338 1.225 . S
Zn323 O322 1.953 . S
Zn323 O324 1.949 . S
Zn323 O330 1.919 . S
Zn323 O335 1.924 . S
O324 Zn323 1.949 . S
O324 Zn325 1.923 . S
O324 Zn326 1.950 . S
O324 Zn327 1.945 . S
Zn325 O324 1.923 . S
Zn325 O328 1.933 1_554 S
Zn325 O331 1.941 . S
Zn325 O332 1.965 . S
Zn326 O324 1.950 . S
Zn326 O333 1.938 . S
Zn326 O334 1.906 1_554 S
Zn326 O344 1.953 . S
Zn327 O324 1.945 . S
Zn327 O329 1.932 1_554 S
Zn327 O336 1.977 1_554 S
Zn327 O337 1.910 . S
O328 Zn325 1.933 1_556 S
O328 C339 1.226 . S
O329 Zn327 1.932 1_556 S
O329 C339 1.307 . S
O330 Zn323 1.919 . S
O330 C341 1.253 . S
O331 Zn325 1.941 . S
O331 C341 1.283 . S
O332 Zn325 1.965 . S
O332 C340 1.303 . S
O333 Zn326 1.938 . S
O333 C340 1.247 . S
O334 Zn326 1.906 1_556 S
O334 C342 1.304 . S
O335 Zn323 1.924 . S
O335 C343 1.311 . S
O336 Zn327 1.977 1_556 S
O336 C342 1.272 . S
O337 Zn327 1.910 . S
O337 C343 1.231 . S
C338 O322 1.225 . S
C338 O344 1.298 . S
C339 O328 1.226 . S
C339 O329 1.307 . S
C340 O332 1.303 . S
C340 O333 1.247 . S
C341 O330 1.253 . S
C341 O331 1.283 . S
C342 O334 1.304 . S
C342 O336 1.272 . S
C343 O335 1.311 . S
C343 O337 1.231 . S
O344 Zn326 1.953 . S
O344 C338 1.298 . S
O345 Zn346 1.953 . S
O345 C361 1.225 . S
Zn346 O345 1.953 . S
Zn346 O347 1.949 . S
Zn346 O353 1.919 . S
Zn346 O358 1.924 . S
O347 Zn346 1.949 . S
O347 Zn348 1.923 . S
O347 Zn349 1.950 . S
O347 Zn350 1.945 . S
Zn348 O347 1.923 . S
Zn348 O351 1.933 . S
Zn348 O354 1.941 . S
Zn348 O355 1.965 . S
Zn349 O347 1.950 . S
Zn349 O356 1.938 . S
Zn349 O357 1.906 . S
Zn349 O367 1.953 . S
Zn350 O347 1.945 . S
Zn350 O352 1.932 . S
Zn350 O359 1.977 . S
Zn350 O360 1.910 . S
O351 Zn348 1.933 . S
O351 C362 1.226 . S
O352 Zn350 1.932 . S
O352 C362 1.307 . S
O353 Zn346 1.919 . S
O353 C364 1.253 . S
O354 Zn348 1.941 . S
O354 C364 1.283 . S
O355 Zn348 1.965 . S
O355 C363 1.303 . S
O356 Zn349 1.938 . S
O356 C363 1.247 . S
O357 Zn349 1.906 . S
O357 C365 1.304 . S
O358 Zn346 1.924 . S
O358 C366 1.311 . S
O359 Zn350 1.977 . S
O359 C365 1.272 . S
O360 Zn350 1.910 . S
O360 C366 1.231 . S
C361 O345 1.225 . S
C361 O367 1.298 . S
C362 O351 1.226 . S
C362 O352 1.307 . S
C363 O355 1.303 . S
C363 O356 1.247 . S
C364 O353 1.253 . S
C364 O354 1.283 . S
C365 O357 1.304 . S
C365 O359 1.272 . S
C366 O358 1.311 . S
C366 O360 1.231 . S
O367 Zn349 1.953 . S
O367 C361 1.298 . S
C368 C369 1.349 1_554 S
C368 C370 1.327 1_554 S
C368 H393 0.950 . S
C369 C368 1.349 1_556 S
C369 C385 1.349 . S
C370 C368 1.327 1_556 S
C370 C389 1.429 . S
C370 H394 0.950 1_556 S
C371 C388 1.574 . S
C371 C390 1.368 . S
C371 H395 0.949 . S
H372 C376 0.949 . S
C373 C374 1.349 . S
C373 C375 1.327 . S
C373 H396 0.950 . S
C374 C373 1.349 . S
C374 C386 1.349 . S
C375 C373 1.327 . S
C375 C391 1.429 . S
C375 H397 0.950 . S
C376 H372 0.949 . S
C376 C384 1.574 . S
C376 C392 1.368 . S
H377 C385 0.950 . S
H378 C383 0.950 . S
H379 C384 0.949 . S
H380 C386 0.950 . S
H381 C387 0.950 . S
H382 C388 0.949 . S
C383 H378 0.950 . S
C383 C385 1.327 . S
C383 C389 1.429 . S
C384 C376 1.574 . S
C384 H379 0.949 . S
C384 C390 1.368 . S
C385 C369 1.349 . S
C385 H377 0.950 . S
C385 C383 1.327 . S
C386 C374 1.349 . S
C386 H380 0.950 . S
C386 C387 1.327 . S
C387 H381 0.950 . S
C387 C386 1.327 . S
C387 C391 1.429 . S
C388 C371 1.574 . S
C388 H382 0.949 . S
C388 C392 1.368 . S
C389 C370 1.429 . S
C389 C383 1.429 . S
C389 C390 1.523 . S
C390 C371 1.368 . S
C390 C384 1.368 . S
C390 C389 1.523 . S
C391 C375 1.429 . S
C391 C387 1.429 . S
C391 C392 1.523 . S
C392 C376 1.368 . S
C392 C388 1.368 . S
C392 C391 1.523 . S
H393 C368 0.950 . S
H394 C370 0.950 1_554 S
H395 C371 0.949 . S
H396 C373 0.950 . S
H397 C375 0.950 . S
C398 C399 1.349 . S
C398 C400 1.327 . S
C398 H423 0.950 . S
C399 C398 1.349 . S
C399 C415 1.349 . S
C400 C398 1.327 . S
C400 C419 1.429 . S
C400 H424 0.950 . S
C401 C418 1.574 . S
C401 C420 1.368 . S
C401 H425 0.949 . S
H402 C406 0.949 . S
C403 C404 1.349 . S
C403 C405 1.327 . S
C403 H426 0.950 . S
C404 C403 1.349 . S
C404 C416 1.349 . S
C405 C403 1.327 . S
C405 C421 1.429 . S
C405 H427 0.950 . S
C406 H402 0.949 . S
C406 C414 1.574 . S
C406 C422 1.368 . S
H407 C415 0.950 . S
H408 C413 0.950 . S
H409 C414 0.949 . S
H410 C416 0.950 . S
H411 C417 0.950 . S
H412 C418 0.949 . S
C413 H408 0.950 . S
C413 C415 1.327 . S
C413 C419 1.429 . S
C414 C406 1.574 . S
C414 H409 0.949 . S
C414 C420 1.368 . S
C415 C399 1.349 . S
C415 H407 0.950 . S
C415 C413 1.327 . S
C416 C404 1.349 . S
C416 H410 0.950 . S
C416 C417 1.327 . S
C417 H411 0.950 . S
C417 C416 1.327 . S
C417 C421 1.429 . S
C418 C401 1.574 . S
C418 H412 0.949 . S
C418 C422 1.368 . S
C419 C400 1.429 . S
C419 C413 1.429 . S
C419 C420 1.523 . S
C420 C401 1.368 . S
C420 C414 1.368 . S
C420 C419 1.523 . S
C421 C405 1.429 . S
C421 C417 1.429 . S
C421 C422 1.523 . S
C422 C406 1.368 . S
C422 C418 1.368 . S
C422 C421 1.523 . S
H423 C398 0.950 . S
H424 C400 0.950 . S
H425 C401 0.949 . S
H426 C403 0.950 . S
H427 C405 0.950 . S
C428 C429 1.349 . S
C428 C430 1.327 . S
C428 H453 0.950 . S
C429 C428 1.349 . S
C429 C445 1.349 . S
C430 C428 1.327 . S
C430 C449 1.429 . S
C430 H454 0.950 . S
C431 C448 1.574 . S
C431 C450 1.368 . S
C431 H455 0.949 . S
H432 C436 0.949 . S
C433 C434 1.349 . S
C433 C435 1.327 . S
C433 H456 0.950 . S
C434 C433 1.349 . S
C434 C446 1.349 . S
C435 C433 1.327 . S
C435 C451 1.429 . S
C435 H457 0.950 . S
C436 H432 0.949 . S
C436 C444 1.574 . S
C436 C452 1.368 . S
H437 C445 0.950 . S
H438 C443 0.950 . S
H439 C444 0.949 . S
H440 C446 0.950 . S
H441 C447 0.950 . S
H442 C448 0.949 . S
C443 H438 0.950 . S
C443 C445 1.327 . S
C443 C449 1.429 . S
C444 C436 1.574 . S
C444 H439 0.949 . S
C444 C450 1.368 . S
C445 C429 1.349 . S
C445 H437 0.950 . S
C445 C443 1.327 . S
C446 C434 1.349 . S
C446 H440 0.950 . S
C446 C447 1.327 . S
C447 H441 0.950 . S
C447 C446 1.327 . S
C447 C451 1.429 . S
C448 C431 1.574 . S
C448 H442 0.949 . S
C448 C452 1.368 . S
C449 C430 1.429 . S
C449 C443 1.429 . S
C449 C450 1.523 . S
C450 C431 1.368 . S
C450 C444 1.368 . S
C450 C449 1.523 . S
C451 C435 1.429 . S
C451 C447 1.429 . S
C451 C452 1.523 . S
C452 C436 1.368 . S
C452 C448 1.368 . S
C452 C451 1.523 . S
H453 C428 0.950 . S
H454 C430 0.950 . S
H455 C431 0.949 . S
H456 C433 0.950 . S
H457 C435 0.950 . S
C458 C459 1.349 . S
C458 C460 1.327 . S
C458 H483 0.950 . S
C459 C458 1.349 . S
C459 C475 1.349 . S
C460 C458 1.327 . S
C460 C479 1.429 . S
C460 H484 0.950 . S
C461 C478 1.574 . S
C461 C480 1.368 . S
C461 H485 0.949 . S
H462 C466 0.949 . S
C463 C464 1.349 . S
C463 C465 1.327 . S
C463 H486 0.950 . S
C464 C463 1.349 . S
C464 C476 1.349 . S
C465 C463 1.327 . S
C465 C481 1.429 . S
C465 H487 0.950 . S
C466 H462 0.949 . S
C466 C474 1.574 . S
C466 C482 1.368 . S
H467 C475 0.950 . S
H468 C473 0.950 . S
H469 C474 0.949 . S
H470 C476 0.950 . S
H471 C477 0.950 . S
H472 C478 0.949 . S
C473 H468 0.950 . S
C473 C475 1.327 . S
C473 C479 1.429 . S
C474 C466 1.574 . S
C474 H469 0.949 . S
C474 C480 1.368 . S
C475 C459 1.349 . S
C475 H467 0.950 . S
C475 C473 1.327 . S
C476 C464 1.349 . S
C476 H470 0.950 . S
C476 C477 1.327 . S
C477 H471 0.950 . S
C477 C476 1.327 . S
C477 C481 1.429 . S
C478 C461 1.574 . S
C478 H472 0.949 . S
C478 C482 1.368 . S
C479 C460 1.429 . S
C479 C473 1.429 . S
C479 C480 1.523 . S
C480 C461 1.368 . S
C480 C474 1.368 . S
C480 C479 1.523 . S
C481 C465 1.429 . S
C481 C477 1.429 . S
C481 C482 1.523 . S
C482 C466 1.368 . S
C482 C478 1.368 . S
C482 C481 1.523 . S
H483 C458 0.950 . S
H484 C460 0.950 . S
H485 C461 0.949 . S
H486 C463 0.950 . S
H487 C465 0.950 . S
C488 C489 1.349 . S
C488 C490 1.327 . S
C488 H513 0.950 . S
C489 C488 1.349 . S
C489 C505 1.349 . S
C490 C488 1.327 . S
C490 C509 1.429 . S
C490 H514 0.950 . S
C491 C508 1.574 . S
C491 C510 1.368 . S
C491 H515 0.949 . S
H492 C496 0.949 . S
C493 C494 1.349 . S
C493 C495 1.327 . S
C493 H516 0.950 . S
C494 C493 1.349 . S
C494 C506 1.349 . S
C495 C493 1.327 . S
C495 C511 1.429 . S
C495 H517 0.950 . S
C496 H492 0.949 . S
C496 C504 1.574 . S
C496 C512 1.368 . S
H497 C505 0.950 . S
H498 C503 0.950 . S
H499 C504 0.949 . S
H500 C506 0.950 . S
H501 C507 0.950 . S
H502 C508 0.949 . S
C503 H498 0.950 . S
C503 C505 1.327 . S
C503 C509 1.429 . S
C504 C496 1.574 . S
C504 H499 0.949 . S
C504 C510 1.368 . S
C505 C489 1.349 . S
C505 H497 0.950 . S
C505 C503 1.327 . S
C506 C494 1.349 . S
C506 H500 0.950 . S
C506 C507 1.327 . S
C507 H501 0.950 . S
C507 C506 1.327 . S
C507 C511 1.429 . S
C508 C491 1.574 . S
C508 H502 0.949 . S
C508 C512 1.368 . S
C509 C490 1.429 . S
C509 C503 1.429 . S
C509 C510 1.523 . S
C510 C491 1.368 . S
C510 C504 1.368 . S
C510 C509 1.523 . S
C511 C495 1.429 . S
C511 C507 1.429 . S
C511 C512 1.523 . S
C512 C496 1.368 . S
C512 C508 1.368 . S
C512 C511 1.523 . S
H513 C488 0.950 . S
H514 C490 0.950 . S
H515 C491 0.949 . S
H516 C493 0.950 . S
H517 C495 0.950 . S
C518 C519 1.349 . S
C518 C520 1.327 . S
C518 H543 0.950 . S
C519 C518 1.349 . S
C519 C535 1.349 . S
C520 C518 1.327 . S
C520 C539 1.429 . S
C520 H544 0.950 . S
C521 C538 1.574 . S
C521 C540 1.368 . S
C521 H545 0.949 . S
H522 C526 0.949 . S
C523 C524 1.349 . S
C523 C525 1.327 . S
C523 H546 0.950 . S
C524 C523 1.349 . S
C524 C536 1.349 . S
C525 C523 1.327 . S
C525 C541 1.429 . S
C525 H547 0.950 . S
C526 H522 0.949 . S
C526 C534 1.574 . S
C526 C542 1.368 . S
H527 C535 0.950 . S
H528 C533 0.950 . S
H529 C534 0.949 . S
H530 C536 0.950 1_554 S
H531 C537 0.950 . S
H532 C538 0.949 . S
C533 H528 0.950 . S
C533 C535 1.327 . S
C533 C539 1.429 . S
C534 C526 1.574 . S
C534 H529 0.949 . S
C534 C540 1.368 . S
C535 C519 1.349 . S
C535 H527 0.950 . S
C535 C533 1.327 . S
C536 C524 1.349 . S
C536 H530 0.950 1_556 S
C536 C537 1.327 . S
C537 H531 0.950 . S
C537 C536 1.327 . S
C537 C541 1.429 . S
C538 C521 1.574 . S
C538 H532 0.949 . S
C538 C542 1.368 . S
C539 C520 1.429 . S
C539 C533 1.429 . S
C539 C540 1.523 . S
C540 C521 1.368 . S
C540 C534 1.368 . S
C540 C539 1.523 . S
C541 C525 1.429 . S
C541 C537 1.429 . S
C541 C542 1.523 . S
C542 C526 1.368 . S
C542 C538 1.368 . S
C542 C541 1.523 . S
H543 C518 0.950 . S
H544 C520 0.950 . S
H545 C521 0.949 . S
H546 C523 0.950 . S
H547 C525 0.950 . S
C548 C549 1.349 . S
C548 C550 1.327 . S
C548 H573 0.950 . S
C549 C548 1.349 . S
C549 C565 1.349 . S
C550 C548 1.327 . S
C550 C569 1.429 . S
C550 H574 0.950 . S
C551 C568 1.574 . S
C551 C570 1.368 . S
C551 H575 0.949 . S
H552 C556 0.949 . S
C553 C554 1.349 . S
C553 C555 1.327 . S
C553 H576 0.950 . S
C554 C553 1.349 . S
C554 C566 1.349 . S
C555 C553 1.327 . S
C555 C571 1.429 . S
C555 H577 0.950 . S
C556 H552 0.949 . S
C556 C564 1.574 . S
C556 C572 1.368 . S
H557 C565 0.950 . S
H558 C563 0.950 . S
H559 C564 0.949 . S
H560 C566 0.950 . S
H561 C567 0.950 . S
H562 C568 0.949 . S
C563 H558 0.950 . S
C563 C565 1.327 . S
C563 C569 1.429 . S
C564 C556 1.574 . S
C564 H559 0.949 . S
C564 C570 1.368 . S
C565 C549 1.349 . S
C565 H557 0.950 . S
C565 C563 1.327 . S
C566 C554 1.349 . S
C566 H560 0.950 . S
C566 C567 1.327 . S
C567 H561 0.950 . S
C567 C566 1.327 . S
C567 C571 1.429 . S
C568 C551 1.574 . S
C568 H562 0.949 . S
C568 C572 1.368 . S
C569 C550 1.429 . S
C569 C563 1.429 . S
C569 C570 1.523 . S
C570 C551 1.368 . S
C570 C564 1.368 . S
C570 C569 1.523 . S
C571 C555 1.429 . S
C571 C567 1.429 . S
C571 C572 1.523 . S
C572 C556 1.368 . S
C572 C568 1.368 . S
C572 C571 1.523 . S
H573 C548 0.950 . S
H574 C550 0.950 . S
H575 C551 0.949 . S
H576 C553 0.950 . S
H577 C555 0.950 . S
C578 C579 1.349 . S
C578 C580 1.327 . S
C578 H603 0.950 . S
C579 C578 1.349 . S
C579 C595 1.349 . S
C580 C578 1.327 . S
C580 C599 1.429 . S
C580 H604 0.950 . S
C581 C598 1.574 . S
C581 C600 1.368 . S
C581 H605 0.949 . S
H582 C586 0.949 . S
C583 C584 1.349 . S
C583 C585 1.327 . S
C583 H606 0.950 . S
C584 C583 1.349 . S
C584 C596 1.349 . S
C585 C583 1.327 . S
C585 C601 1.429 . S
C585 H607 0.950 . S
C586 H582 0.949 . S
C586 C594 1.574 . S
C586 C602 1.368 . S
H587 C595 0.950 . S
H588 C593 0.950 . S
H589 C594 0.949 . S
H590 C596 0.950 . S
H591 C597 0.950 . S
H592 C598 0.949 . S
C593 H588 0.950 . S
C593 C595 1.327 . S
C593 C599 1.429 . S
C594 C586 1.574 . S
C594 H589 0.949 . S
C594 C600 1.368 . S
C595 C579 1.349 . S
C595 H587 0.950 . S
C595 C593 1.327 . S
C596 C584 1.349 . S
C596 H590 0.950 . S
C596 C597 1.327 . S
C597 H591 0.950 . S
C597 C596 1.327 . S
C597 C601 1.429 . S
C598 C581 1.574 . S
C598 H592 0.949 . S
C598 C602 1.368 . S
C599 C580 1.429 . S
C599 C593 1.429 . S
C599 C600 1.523 . S
C600 C581 1.368 . S
C600 C594 1.368 . S
C600 C599 1.523 . S
C601 C585 1.429 . S
C601 C597 1.429 . S
C601 C602 1.523 . S
C602 C586 1.368 . S
C602 C598 1.368 . S
C602 C601 1.523 . S
H603 C578 0.950 . S
H604 C580 0.950 . S
H605 C581 0.949 . S
H606 C583 0.950 . S
H607 C585 0.950 . S
C608 C609 1.349 . S
C608 C610 1.327 . S
C608 H633 0.950 . S
C609 C608 1.349 . S
C609 C625 1.349 . S
C610 C608 1.327 . S
C610 C629 1.429 . S
C610 H634 0.950 . S
C611 C628 1.574 . S
C611 C630 1.368 . S
C611 H635 0.949 . S
H612 C616 0.949 . S
C613 C614 1.349 . S
C613 C615 1.327 . S
C613 H636 0.950 . S
C614 C613 1.349 . S
C614 C626 1.349 . S
C615 C613 1.327 . S
C615 C631 1.429 . S
C615 H637 0.950 . S
C616 H612 0.949 . S
C616 C624 1.574 . S
C616 C632 1.368 . S
H617 C625 0.950 . S
H618 C623 0.950 . S
H619 C624 0.949 . S
H620 C626 0.950 . S
H621 C627 0.950 . S
H622 C628 0.949 . S
C623 H618 0.950 . S
C623 C625 1.327 . S
C623 C629 1.429 . S
C624 C616 1.574 . S
C624 H619 0.949 . S
C624 C630 1.368 . S
C625 C609 1.349 . S
C625 H617 0.950 . S
C625 C623 1.327 . S
C626 C614 1.349 . S
C626 H620 0.950 . S
C626 C627 1.327 . S
C627 H621 0.950 . S
C627 C626 1.327 . S
C627 C631 1.429 . S
C628 C611 1.574 . S
C628 H622 0.949 . S
C628 C632 1.368 . S
C629 C610 1.429 . S
C629 C623 1.429 . S
C629 C630 1.523 . S
C630 C611 1.368 . S
C630 C624 1.368 . S
C630 C629 1.523 . S
C631 C615 1.429 . S
C631 C627 1.429 . S
C631 C632 1.523 . S
C632 C616 1.368 . S
C632 C628 1.368 . S
C632 C631 1.523 . S
H633 C608 0.950 . S
H634 C610 0.950 . S
H635 C611 0.949 . S
H636 C613 0.950 . S
H637 C615 0.950 . S
C638 C639 1.349 . S
C638 C640 1.327 . S
C638 H663 0.950 . S
C639 C638 1.349 . S
C639 C655 1.349 . S
C640 C638 1.327 . S
C640 C659 1.429 . S
C640 H664 0.950 . S
C641 C658 1.574 . S
C641 C660 1.368 . S
C641 H665 0.949 . S
H642 C646 0.949 . S
C643 C644 1.349 . S
C643 C645 1.327 . S
C643 H666 0.950 . S
C644 C643 1.349 . S
C644 C656 1.349 . S
C645 C643 1.327 . S
C645 C661 1.429 . S
C645 H667 0.950 . S
C646 H642 0.949 . S
C646 C654 1.574 . S
C646 C662 1.368 . S
H647 C655 0.950 . S
H648 C653 0.950 . S
H649 C654 0.949 . S
H650 C656 0.950 1_545 S
H651 C657 0.950 . S
H652 C658 0.949 . S
C653 H648 0.950 . S
C653 C655 1.327 . S
C653 C659 1.429 . S
C654 C646 1.574 . S
C654 H649 0.949 . S
C654 C660 1.368 . S
C655 C639 1.349 . S
C655 H647 0.950 . S
C655 C653 1.327 . S
C656 C644 1.349 . S
C656 H650 0.950 1_565 S
C656 C657 1.327 . S
C657 H651 0.950 . S
C657 C656 1.327 . S
C657 C661 1.429 . S
C658 C641 1.574 . S
C658 H652 0.949 . S
C658 C662 1.368 . S
C659 C640 1.429 . S
C659 C653 1.429 . S
C659 C660 1.523 . S
C660 C641 1.368 . S
C660 C654 1.368 . S
C660 C659 1.523 . S
C661 C645 1.429 . S
C661 C657 1.429 . S
C661 C662 1.523 . S
C662 C646 1.368 . S
C662 C658 1.368 . S
C662 C661 1.523 . S
H663 C638 0.950 . S
H664 C640 0.950 . S
H665 C641 0.949 . S
H666 C643 0.950 . S
H667 C645 0.950 . S
C668 C669 1.349 . S
C668 C670 1.327 . S
C668 H693 0.950 . S
C669 C668 1.349 . S
C669 C685 1.349 . S
C670 C668 1.327 . S
C670 C689 1.429 . S
C670 H694 0.950 . S
C671 C688 1.574 . S
C671 C690 1.368 . S
C671 H695 0.949 . S
H672 C676 0.949 . S
C673 C674 1.349 . S
C673 C675 1.327 . S
C673 H696 0.950 . S
C674 C673 1.349 . S
C674 C686 1.349 . S
C675 C673 1.327 . S
C675 C691 1.429 . S
C675 H697 0.950 . S
C676 H672 0.949 . S
C676 C684 1.574 . S
C676 C692 1.368 . S
H677 C685 0.950 . S
H678 C683 0.950 . S
H679 C684 0.949 . S
H680 C686 0.950 . S
H681 C687 0.950 . S
H682 C688 0.949 . S
C683 H678 0.950 . S
C683 C685 1.327 . S
C683 C689 1.429 . S
C684 C676 1.574 . S
C684 H679 0.949 . S
C684 C690 1.368 . S
C685 C669 1.349 . S
C685 H677 0.950 . S
C685 C683 1.327 . S
C686 C674 1.349 . S
C686 H680 0.950 . S
C686 C687 1.327 . S
C687 H681 0.950 . S
C687 C686 1.327 . S
C687 C691 1.429 . S
C688 C671 1.574 . S
C688 H682 0.949 . S
C688 C692 1.368 . S
C689 C670 1.429 . S
C689 C683 1.429 . S
C689 C690 1.523 . S
C690 C671 1.368 . S
C690 C684 1.368 . S
C690 C689 1.523 . S
C691 C675 1.429 . S
C691 C687 1.429 . S
C691 C692 1.523 . S
C692 C676 1.368 . S
C692 C688 1.368 . S
C692 C691 1.523 . S
H693 C668 0.950 . S
H694 C670 0.950 . S
H695 C671 0.949 . S
H696 C673 0.950 . S
H697 C675 0.950 . S
C698 C699 1.349 . S
C698 C700 1.327 . S
C698 H723 0.950 . S
C699 C698 1.349 . S
C699 C715 1.349 . S
C700 C698 1.327 . S
C700 C719 1.429 . S
C700 H724 0.950 . S
C701 C718 1.574 . S
C701 C720 1.368 . S
C701 H725 0.949 . S
H702 C706 0.949 . S
C703 C704 1.349 . S
C703 C705 1.327 . S
C703 H726 0.950 . S
C704 C703 1.349 . S
C704 C716 1.349 . S
C705 C703 1.327 . S
C705 C721 1.429 . S
C705 H727 0.950 . S
C706 H702 0.949 . S
C706 C714 1.574 . S
C706 C722 1.368 . S
H707 C715 0.950 1_565 S
H708 C713 0.950 . S
H709 C714 0.949 . S
H710 C716 0.950 . S
H711 C717 0.950 . S
H712 C718 0.949 . S
C713 H708 0.950 . S
C713 C715 1.327 . S
C713 C719 1.429 . S
C714 C706 1.574 . S
C714 H709 0.949 . S
C714 C720 1.368 . S
C715 C699 1.349 . S
C715 H707 0.950 1_545 S
C715 C713 1.327 . S
C716 C704 1.349 . S
C716 H710 0.950 . S
C716 C717 1.327 . S
C717 H711 0.950 . S
C717 C716 1.327 . S
C717 C721 1.429 . S
C718 C701 1.574 . S
C718 H712 0.949 . S
C718 C722 1.368 . S
C719 C700 1.429 . S
C719 C713 1.429 . S
C719 C720 1.523 . S
C720 C701 1.368 . S
C720 C714 1.368 . S
C720 C719 1.523 . S
C721 C705 1.429 . S
C721 C717 1.429 . S
C721 C722 1.523 . S
C722 C706 1.368 . S
C722 C718 1.368 . S
C722 C721 1.523 . S
H723 C698 0.950 . S
H724 C700 0.950 . S
H725 C701 0.949 . S
H726 C703 0.950 . S
H727 C705 0.950 . S
C728 C729 1.349 . S
C728 C730 1.327 . S
C728 H753 0.950 . S
C729 C728 1.349 . S
C729 C745 1.349 . S
C730 C728 1.327 . S
C730 C749 1.429 . S
C730 H754 0.950 . S
C731 C748 1.574 . S
C731 C750 1.368 . S
C731 H755 0.949 . S
H732 C736 0.949 . S
C733 C734 1.349 . S
C733 C735 1.327 . S
C733 H756 0.950 . S
C734 C733 1.349 . S
C734 C746 1.349 . S
C735 C733 1.327 . S
C735 C751 1.429 . S
C735 H757 0.950 . S
C736 H732 0.949 . S
C736 C744 1.574 . S
C736 C752 1.368 . S
H737 C745 0.950 . S
H738 C743 0.950 . S
H739 C744 0.949 . S
H740 C746 0.950 . S
H741 C747 0.950 . S
H742 C748 0.949 . S
C743 H738 0.950 . S
C743 C745 1.327 . S
C743 C749 1.429 . S
C744 C736 1.574 . S
C744 H739 0.949 . S
C744 C750 1.368 . S
C745 C729 1.349 . S
C745 H737 0.950 . S
C745 C743 1.327 . S
C746 C734 1.349 . S
C746 H740 0.950 . S
C746 C747 1.327 . S
C747 H741 0.950 . S
C747 C746 1.327 . S
C747 C751 1.429 . S
C748 C731 1.574 . S
C748 H742 0.949 . S
C748 C752 1.368 . S
C749 C730 1.429 . S
C749 C743 1.429 . S
C749 C750 1.523 . S
C750 C731 1.368 . S
C750 C744 1.368 . S
C750 C749 1.523 . S
C751 C735 1.429 . S
C751 C747 1.429 . S
C751 C752 1.523 . S
C752 C736 1.368 . S
C752 C748 1.368 . S
C752 C751 1.523 . S
H753 C728 0.950 . S
H754 C730 0.950 . S
H755 C731 0.949 . S
H756 C733 0.950 . S
H757 C735 0.950 . S
C758 C759 1.349 . S
C758 C760 1.327 . S
C758 H783 0.950 . S
C759 C758 1.349 . S
C759 C775 1.349 . S
C760 C758 1.327 . S
C760 C779 1.429 . S
C760 H784 0.950 . S
C761 C778 1.574 . S
C761 C780 1.368 . S
C761 H785 0.949 . S
H762 C766 0.949 . S
C763 C764 1.349 . S
C763 C765 1.327 . S
C763 H786 0.950 . S
C764 C763 1.349 . S
C764 C776 1.349 . S
C765 C763 1.327 . S
C765 C781 1.429 . S
C765 H787 0.950 . S
C766 H762 0.949 . S
C766 C774 1.574 . S
C766 C782 1.368 . S
H767 C775 0.950 . S
H768 C773 0.950 . S
H769 C774 0.949 . S
H770 C776 0.950 1_565 S
H771 C777 0.950 . S
H772 C778 0.949 . S
C773 H768 0.950 . S
C773 C775 1.327 . S
C773 C779 1.429 . S
C774 C766 1.574 . S
C774 H769 0.949 . S
C774 C780 1.368 . S
C775 C759 1.349 . S
C775 H767 0.950 . S
C775 C773 1.327 . S
C776 C764 1.349 . S
C776 H770 0.950 1_545 S
C776 C777 1.327 . S
C777 H771 0.950 . S
C777 C776 1.327 . S
C777 C781 1.429 . S
C778 C761 1.574 . S
C778 H772 0.949 . S
C778 C782 1.368 . S
C779 C760 1.429 . S
C779 C773 1.429 . S
C779 C780 1.523 . S
C780 C761 1.368 . S
C780 C774 1.368 . S
C780 C779 1.523 . S
C781 C765 1.429 . S
C781 C777 1.429 . S
C781 C782 1.523 . S
C782 C766 1.368 . S
C782 C778 1.368 . S
C782 C781 1.523 . S
H783 C758 0.950 . S
H784 C760 0.950 . S
H785 C761 0.949 . S
H786 C763 0.950 . S
H787 C765 0.950 . S
C788 C789 1.349 . S
C788 C790 1.327 . S
C788 H813 0.950 . S
C789 C788 1.349 . S
C789 C805 1.349 . S
C790 C788 1.327 . S
C790 C809 1.429 . S
C790 H814 0.950 . S
C791 C808 1.574 . S
C791 C810 1.368 . S
C791 H815 0.949 . S
H792 C796 0.949 . S
C793 C794 1.349 . S
C793 C795 1.327 . S
C793 H816 0.950 . S
C794 C793 1.349 . S
C794 C806 1.349 . S
C795 C793 1.327 . S
C795 C811 1.429 . S
C795 H817 0.950 . S
C796 H792 0.949 . S
C796 C804 1.574 . S
C796 C812 1.368 . S
H797 C805 0.950 . S
H798 C803 0.950 . S
H799 C804 0.949 . S
H800 C806 0.950 . S
H801 C807 0.950 . S
H802 C808 0.949 . S
C803 H798 0.950 . S
C803 C805 1.327 . S
C803 C809 1.429 . S
C804 C796 1.574 . S
C804 H799 0.949 . S
C804 C810 1.368 . S
C805 C789 1.349 . S
C805 H797 0.950 . S
C805 C803 1.327 . S
C806 C794 1.349 . S
C806 H800 0.950 . S
C806 C807 1.327 . S
C807 H801 0.950 . S
C807 C806 1.327 . S
C807 C811 1.429 . S
C808 C791 1.574 . S
C808 H802 0.949 . S
C808 C812 1.368 . S
C809 C790 1.429 . S
C809 C803 1.429 . S
C809 C810 1.523 . S
C810 C791 1.368 . S
C810 C804 1.368 . S
C810 C809 1.523 . S
C811 C795 1.429 . S
C811 C807 1.429 . S
C811 C812 1.523 . S
C812 C796 1.368 . S
C812 C808 1.368 . S
C812 C811 1.523 . S
H813 C788 0.950 . S
H814 C790 0.950 . S
H815 C791 0.949 . S
H816 C793 0.950 . S
H817 C795 0.950 . S
C818 C819 1.349 . S
C818 C820 1.327 . S
C818 H843 0.950 . S
C819 C818 1.349 . S
C819 C835 1.349 . S
C820 C818 1.327 . S
C820 C839 1.429 . S
C820 H844 0.950 . S
C821 C838 1.574 . S
C821 C840 1.368 . S
C821 H845 0.949 . S
H822 C826 0.949 . S
C823 C824 1.349 . S
C823 C825 1.327 . S
C823 H846 0.950 1_565 S
C824 C823 1.349 . S
C824 C836 1.349 . S
C825 C823 1.327 . S
C825 C841 1.429 . S
C825 H847 0.950 . S
C826 H822 0.949 . S
C826 C834 1.574 . S
C826 C842 1.368 . S
H827 C835 0.950 . S
H828 C833 0.950 . S
H829 C834 0.949 . S
H830 C836 0.950 . S
H831 C837 0.950 . S
H832 C838 0.949 . S
C833 H828 0.950 . S
C833 C835 1.327 . S
C833 C839 1.429 . S
C834 C826 1.574 . S
C834 H829 0.949 . S
C834 C840 1.368 . S
C835 C819 1.349 . S
C835 H827 0.950 . S
C835 C833 1.327 . S
C836 C824 1.349 . S
C836 H830 0.950 . S
C836 C837 1.327 . S
C837 H831 0.950 . S
C837 C836 1.327 . S
C837 C841 1.429 . S
C838 C821 1.574 . S
C838 H832 0.949 . S
C838 C842 1.368 . S
C839 C820 1.429 . S
C839 C833 1.429 . S
C839 C840 1.523 . S
C840 C821 1.368 . S
C840 C834 1.368 . S
C840 C839 1.523 . S
C841 C825 1.429 . S
C841 C837 1.429 . S
C841 C842 1.523 . S
C842 C826 1.368 . S
C842 C838 1.368 . S
C842 C841 1.523 . S
H843 C818 0.950 . S
H844 C820 0.950 . S
H845 C821 0.949 . S
H846 C823 0.950 1_545 S
H847 C825 0.950 . S
C848 C849 1.349 . S
C848 C850 1.327 . S
C848 H873 0.950 . S
C849 C848 1.349 . S
C849 C865 1.349 . S
C850 C848 1.327 . S
C850 C869 1.429 . S
C850 H874 0.950 . S
C851 C868 1.574 . S
C851 C870 1.368 . S
C851 H875 0.949 . S
H852 C856 0.949 . S
C853 C854 1.349 . S
C853 C855 1.327 . S
C853 H876 0.950 . S
C854 C853 1.349 . S
C854 C866 1.349 . S
C855 C853 1.327 . S
C855 C871 1.429 . S
C855 H877 0.950 . S
C856 H852 0.949 . S
C856 C864 1.574 . S
C856 C872 1.368 . S
H857 C865 0.950 . S
H858 C863 0.950 . S
H859 C864 0.949 . S
H860 C866 0.950 . S
H861 C867 0.950 . S
H862 C868 0.949 . S
C863 H858 0.950 . S
C863 C865 1.327 . S
C863 C869 1.429 . S
C864 C856 1.574 . S
C864 H859 0.949 . S
C864 C870 1.368 . S
C865 C849 1.349 . S
C865 H857 0.950 . S
C865 C863 1.327 . S
C866 C854 1.349 . S
C866 H860 0.950 . S
C866 C867 1.327 . S
C867 H861 0.950 . S
C867 C866 1.327 . S
C867 C871 1.429 . S
C868 C851 1.574 . S
C868 H862 0.949 . S
C868 C872 1.368 . S
C869 C850 1.429 . S
C869 C863 1.429 . S
C869 C870 1.523 . S
C870 C851 1.368 . S
C870 C864 1.368 . S
C870 C869 1.523 . S
C871 C855 1.429 . S
C871 C867 1.429 . S
C871 C872 1.523 . S
C872 C856 1.368 . S
C872 C868 1.368 . S
C872 C871 1.523 . S
H873 C848 0.950 . S
H874 C850 0.950 . S
H875 C851 0.949 . S
H876 C853 0.950 . S
H877 C855 0.950 . S
C878 C879 1.349 . S
C878 C880 1.327 . S
C878 H903 0.950 . S
C879 C878 1.349 . S
C879 C895 1.349 . S
C880 C878 1.327 . S
C880 C899 1.429 . S
C880 H904 0.950 . S
C881 C898 1.574 . S
C881 C900 1.368 . S
C881 H905 0.949 . S
H882 C886 0.949 . S
C883 C884 1.349 . S
C883 C885 1.327 . S
C883 H906 0.950 . S
C884 C883 1.349 . S
C884 C896 1.349 . S
C885 C883 1.327 . S
C885 C901 1.429 . S
C885 H907 0.950 . S
C886 H882 0.949 . S
C886 C894 1.574 . S
C886 C902 1.368 . S
H887 C895 0.950 . S
H888 C893 0.950 . S
H889 C894 0.949 . S
H890 C896 0.950 . S
H891 C897 0.950 . S
H892 C898 0.949 . S
C893 H888 0.950 . S
C893 C895 1.327 . S
C893 C899 1.429 . S
C894 C886 1.574 . S
C894 H889 0.949 . S
C894 C900 1.368 . S
C895 C879 1.349 . S
C895 H887 0.950 . S
C895 C893 1.327 . S
C896 C884 1.349 . S
C896 H890 0.950 . S
C896 C897 1.327 . S
C897 H891 0.950 . S
C897 C896 1.327 . S
C897 C901 1.429 . S
C898 C881 1.574 . S
C898 H892 0.949 . S
C898 C902 1.368 . S
C899 C880 1.429 . S
C899 C893 1.429 . S
C899 C900 1.523 . S
C900 C881 1.368 . S
C900 C894 1.368 . S
C900 C899 1.523 . S
C901 C885 1.429 . S
C901 C897 1.429 . S
C901 C902 1.523 . S
C902 C886 1.368 . S
C902 C898 1.368 . S
C902 C901 1.523 . S
H903 C878 0.950 . S
H904 C880 0.950 . S
H905 C881 0.949 . S
H906 C883 0.950 . S
H907 C885 0.950 . S
C908 C909 1.349 . S
C908 C910 1.327 . S
C908 H933 0.950 . S
C909 C908 1.349 . S
C909 C925 1.349 . S
C910 C908 1.327 . S
C910 C929 1.429 . S
C910 H934 0.950 . S
C911 C928 1.574 . S
C911 C930 1.368 . S
C911 H935 0.949 . S
H912 C916 0.949 . S
C913 C914 1.349 . S
C913 C915 1.327 . S
C913 H936 0.950 . S
C914 C913 1.349 . S
C914 C926 1.349 . S
C915 C913 1.327 . S
C915 C931 1.429 . S
C915 H937 0.950 . S
C916 H912 0.949 . S
C916 C924 1.574 . S
C916 C932 1.368 . S
H917 C925 0.947 1_655 S
H918 C923 0.950 . S
H919 C924 0.949 . S
H920 C926 0.950 . S
H921 C927 0.950 . S
H922 C928 0.949 . S
C923 H918 0.950 . S
C923 C925 1.327 . S
C923 C929 1.429 . S
C924 C916 1.574 . S
C924 H919 0.949 . S
C924 C930 1.368 . S
C925 C909 1.349 . S
C925 H917 0.947 1_455 S
C925 C923 1.327 . S
C926 C914 1.349 . S
C926 H920 0.950 . S
C926 C927 1.327 . S
C927 H921 0.950 . S
C927 C926 1.327 . S
C927 C931 1.429 . S
C928 C911 1.574 . S
C928 H922 0.949 . S
C928 C932 1.368 . S
C929 C910 1.429 . S
C929 C923 1.429 . S
C929 C930 1.523 . S
C930 C911 1.368 . S
C930 C924 1.368 . S
C930 C929 1.523 . S
C931 C915 1.429 . S
C931 C927 1.429 . S
C931 C932 1.523 . S
C932 C916 1.368 . S
C932 C928 1.368 . S
C932 C931 1.523 . S
H933 C908 0.950 . S
H934 C910 0.950 . S
H935 C911 0.949 . S
H936 C913 0.950 . S
H937 C915 0.950 . S
C938 C939 1.349 . S
C938 C940 1.327 . S
C938 H963 0.950 . S
C939 C938 1.349 . S
C939 C955 1.349 . S
C940 C938 1.327 . S
C940 C959 1.429 . S
C940 H964 0.950 . S
C941 C958 1.574 . S
C941 C960 1.368 . S
C941 H965 0.949 . S
H942 C946 0.949 . S
C943 C944 1.349 . S
C943 C945 1.327 . S
C943 H966 0.950 . S
C944 C943 1.349 . S
C944 C956 1.349 . S
C945 C943 1.327 . S
C945 C961 1.429 . S
C945 H967 0.950 . S
C946 H942 0.949 . S
C946 C954 1.574 . S
C946 C962 1.368 . S
H947 C955 0.950 . S
H948 C953 0.950 . S
H949 C954 0.949 . S
H950 C956 0.950 . S
H951 C957 0.950 . S
H952 C958 0.949 . S
C953 H948 0.950 . S
C953 C955 1.327 . S
C953 C959 1.429 . S
C954 C946 1.574 . S
C954 H949 0.949 . S
C954 C960 1.368 . S
C955 C939 1.349 . S
C955 H947 0.950 . S
C955 C953 1.327 . S
C956 C944 1.349 . S
C956 H950 0.950 . S
C956 C957 1.327 . S
C957 H951 0.950 . S
C957 C956 1.327 . S
C957 C961 1.429 . S
C958 C941 1.574 . S
C958 H952 0.949 . S
C958 C962 1.368 . S
C959 C940 1.429 . S
C959 C953 1.429 . S
C959 C960 1.523 . S
C960 C941 1.368 . S
C960 C954 1.368 . S
C960 C959 1.523 . S
C961 C945 1.429 . S
C961 C957 1.429 . S
C961 C962 1.523 . S
C962 C946 1.368 . S
C962 C958 1.368 . S
C962 C961 1.523 . S
H963 C938 0.950 . S
H964 C940 0.950 . S
H965 C941 0.949 . S
H966 C943 0.950 . S
H967 C945 0.950 . S
C968 C969 1.349 . S
C968 C970 1.327 . S
C968 H993 0.950 . S
C969 C968 1.349 . S
C969 C985 1.349 . S
C970 C968 1.327 . S
C970 C989 1.429 . S
C970 H994 0.950 . S
C971 C988 1.574 . S
C971 C990 1.368 . S
C971 H995 0.949 . S
H972 C976 0.949 . S
C973 C974 1.349 . S
C973 C975 1.327 . S
C973 H996 0.950 . S
C974 C973 1.349 . S
C974 C986 1.349 . S
C975 C973 1.327 . S
C975 C991 1.429 . S
C975 H997 0.950 . S
C976 H972 0.949 . S
C976 C984 1.574 . S
C976 C992 1.368 . S
H977 C985 0.950 . S
H978 C983 0.950 . S
H979 C984 0.949 . S
H980 C986 0.950 . S
H981 C987 0.950 . S
H982 C988 0.949 . S
C983 H978 0.950 . S
C983 C985 1.327 . S
C983 C989 1.429 . S
C984 C976 1.574 . S
C984 H979 0.949 . S
C984 C990 1.368 . S
C985 C969 1.349 . S
C985 H977 0.950 . S
C985 C983 1.327 . S
C986 C974 1.349 . S
C986 H980 0.950 . S
C986 C987 1.327 . S
C987 H981 0.950 . S
C987 C986 1.327 . S
C987 C991 1.429 . S
C988 C971 1.574 . S
C988 H982 0.949 . S
C988 C992 1.368 . S
C989 C970 1.429 . S
C989 C983 1.429 . S
C989 C990 1.523 . S
C990 C971 1.368 . S
C990 C984 1.368 . S
C990 C989 1.523 . S
C991 C975 1.429 . S
C991 C987 1.429 . S
C991 C992 1.523 . S
C992 C976 1.368 . S
C992 C988 1.368 . S
C992 C991 1.523 . S
H993 C968 0.950 . S
H994 C970 0.950 . S
H995 C971 0.949 . S
H996 C973 0.950 . S
H997 C975 0.950 . S
C998 C999 1.349 1_556 S
C998 C1000 1.327 . S
C998 H1023 0.950 . S
C999 C998 1.349 1_554 S
C999 C1015 1.349 . S
C1000 C998 1.327 . S
C1000 C1019 1.429 . S
C1000 H1024 0.950 . S
C1001 C1018 1.574 . S
C1001 C1020 1.368 . S
C1001 H1025 0.949 1_556 S
H1002 C1006 0.949 . S
C1003 C1004 1.349 . S
C1003 C1005 1.327 . S
C1003 H1026 0.950 . S
C1004 C1003 1.349 . S
C1004 C1016 1.349 . S
C1005 C1003 1.327 . S
C1005 C1021 1.429 . S
C1005 H1027 0.950 . S
C1006 H1002 0.949 . S
C1006 C1014 1.574 . S
C1006 C1022 1.368 . S
H1007 C1015 0.950 . S
H1008 C1013 0.950 . S
H1009 C1014 0.949 . S
H1010 C1016 0.950 . S
H1011 C1017 0.950 . S
H1012 C1018 0.949 . S
C1013 H1008 0.950 . S
C1013 C1015 1.327 . S
C1013 C1019 1.429 1_554 S
C1014 C1006 1.574 . S
C1014 H1009 0.949 . S
C1014 C1020 1.368 . S
C1015 C999 1.349 . S
C1015 H1007 0.950 . S
C1015 C1013 1.327 . S
C1016 C1004 1.349 . S
C1016 H1010 0.950 . S
C1016 C1017 1.327 . S
C1017 H1011 0.950 . S
C1017 C1016 1.327 . S
C1017 C1021 1.429 . S
C1018 C1001 1.574 . S
C1018 H1012 0.949 . S
C1018 C1022 1.368 . S
C1019 C1000 1.429 . S
C1019 C1013 1.429 1_556 S
C1019 C1020 1.523 . S
C1020 C1001 1.368 . S
C1020 C1014 1.368 . S
C1020 C1019 1.523 . S
C1021 C1005 1.429 . S
C1021 C1017 1.429 . S
C1021 C1022 1.523 . S
C1022 C1006 1.368 . S
C1022 C1018 1.368 . S
C1022 C1021 1.523 . S
H1023 C998 0.950 . S
H1024 C1000 0.950 . S
H1025 C1001 0.949 1_554 S
H1026 C1003 0.950 . S
H1027 C1005 0.950 . S
C1028 C1029 1.349 . S
C1028 C1030 1.327 . S
C1028 H1053 0.950 . S
C1029 C1028 1.349 . S
C1029 C1045 1.349 . S
C1030 C1028 1.327 . S
C1030 C1049 1.429 . S
C1030 H1054 0.950 . S
C1031 C1048 1.574 . S
C1031 C1050 1.368 . S
C1031 H1055 0.949 . S
H1032 C1036 0.949 . S
C1033 C1034 1.349 . S
C1033 C1035 1.327 . S
C1033 H1056 0.950 . S
C1034 C1033 1.349 . S
C1034 C1046 1.349 . S
C1035 C1033 1.327 . S
C1035 C1051 1.429 . S
C1035 H1057 0.950 . S
C1036 H1032 0.949 . S
C1036 C1044 1.574 . S
C1036 C1052 1.368 . S
H1037 C1045 0.950 . S
H1038 C1043 0.950 . S
H1039 C1044 0.949 . S
H1040 C1046 0.950 . S
H1041 C1047 0.950 . S
H1042 C1048 0.949 . S
C1043 H1038 0.950 . S
C1043 C1045 1.327 . S
C1043 C1049 1.429 . S
C1044 C1036 1.574 . S
C1044 H1039 0.949 . S
C1044 C1050 1.368 . S
C1045 C1029 1.349 . S
C1045 H1037 0.950 . S
C1045 C1043 1.327 . S
C1046 C1034 1.349 . S
C1046 H1040 0.950 . S
C1046 C1047 1.327 . S
C1047 H1041 0.950 . S
C1047 C1046 1.327 . S
C1047 C1051 1.429 . S
C1048 C1031 1.574 . S
C1048 H1042 0.949 . S
C1048 C1052 1.368 . S
C1049 C1030 1.429 . S
C1049 C1043 1.429 . S
C1049 C1050 1.523 . S
C1050 C1031 1.368 . S
C1050 C1044 1.368 . S
C1050 C1049 1.523 . S
C1051 C1035 1.429 . S
C1051 C1047 1.429 . S
C1051 C1052 1.523 . S
C1052 C1036 1.368 . S
C1052 C1048 1.368 . S
C1052 C1051 1.523 . S
H1053 C1028 0.950 . S
H1054 C1030 0.950 . S
H1055 C1031 0.949 . S
H1056 C1033 0.950 . S
H1057 C1035 0.950 . S
C1058 C1059 1.349 . S
C1058 C1060 1.327 . S
C1058 H1083 0.950 . S
C1059 C1058 1.349 . S
C1059 C1075 1.349 . S
C1060 C1058 1.327 . S
C1060 C1079 1.429 . S
C1060 H1084 0.950 . S
C1061 C1078 1.574 . S
C1061 C1080 1.368 . S
C1061 H1085 0.949 . S
H1062 C1066 0.949 . S
C1063 C1064 1.349 . S
C1063 C1065 1.327 . S
C1063 H1086 0.950 . S
C1064 C1063 1.349 . S
C1064 C1076 1.349 . S
C1065 C1063 1.327 . S
C1065 C1081 1.429 . S
C1065 H1087 0.950 . S
C1066 H1062 0.949 . S
C1066 C1074 1.574 . S
C1066 C1082 1.368 . S
H1067 C1075 0.950 . S
H1068 C1073 0.950 . S
H1069 C1074 0.949 . S
H1070 C1076 0.950 . S
H1071 C1077 0.950 . S
H1072 C1078 0.949 . S
C1073 H1068 0.950 . S
C1073 C1075 1.327 . S
C1073 C1079 1.429 . S
C1074 C1066 1.574 . S
C1074 H1069 0.949 . S
C1074 C1080 1.368 . S
C1075 C1059 1.349 . S
C1075 H1067 0.950 . S
C1075 C1073 1.327 . S
C1076 C1064 1.349 . S
C1076 H1070 0.950 . S
C1076 C1077 1.327 . S
C1077 H1071 0.950 . S
C1077 C1076 1.327 . S
C1077 C1081 1.429 . S
C1078 C1061 1.574 . S
C1078 H1072 0.949 . S
C1078 C1082 1.368 . S
C1079 C1060 1.429 . S
C1079 C1073 1.429 . S
C1079 C1080 1.523 . S
C1080 C1061 1.368 . S
C1080 C1074 1.368 . S
C1080 C1079 1.523 . S
C1081 C1065 1.429 . S
C1081 C1077 1.429 . S
C1081 C1082 1.523 . S
C1082 C1066 1.368 . S
C1082 C1078 1.368 . S
C1082 C1081 1.523 . S
H1083 C1058 0.950 . S
H1084 C1060 0.950 . S
H1085 C1061 0.949 . S
H1086 C1063 0.950 . S
H1087 C1065 0.950 . S
C1088 C1089 1.349 . S
C1088 C1090 1.327 . S
C1088 H1113 0.950 . S
C1089 C1088 1.349 . S
C1089 C1105 1.349 . S
C1090 C1088 1.327 . S
C1090 C1109 1.429 . S
C1090 H1114 0.950 . S
C1091 C1108 1.574 . S
C1091 C1110 1.368 . S
C1091 H1115 0.949 . S
H1092 C1096 0.949 . S
C1093 C1094 1.349 . S
C1093 C1095 1.327 . S
C1093 H1116 0.950 1_655 S
C1094 C1093 1.349 . S
C1094 C1106 1.349 . S
C1095 C1093 1.327 . S
C1095 C1111 1.429 . S
C1095 H1117 0.950 . S
C1096 H1092 0.949 . S
C1096 C1104 1.574 . S
C1096 C1112 1.368 . S
H1097 C1105 0.950 . S
H1098 C1103 0.950 . S
H1099 C1104 0.949 . S
H1100 C1106 0.950 . S
H1101 C1107 0.950 . S
H1102 C1108 0.949 . S
C1103 H1098 0.950 . S
C1103 C1105 1.327 . S
C1103 C1109 1.429 . S
C1104 C1096 1.574 . S
C1104 H1099 0.949 . S
C1104 C1110 1.368 . S
C1105 C1089 1.349 . S
C1105 H1097 0.950 . S
C1105 C1103 1.327 . S
C1106 C1094 1.349 . S
C1106 H1100 0.950 . S
C1106 C1107 1.327 . S
C1107 H1101 0.950 . S
C1107 C1106 1.327 . S
C1107 C1111 1.429 . S
C1108 C1091 1.574 . S
C1108 H1102 0.949 . S
C1108 C1112 1.368 . S
C1109 C1090 1.429 . S
C1109 C1103 1.429 . S
C1109 C1110 1.523 . S
C1110 C1091 1.368 . S
C1110 C1104 1.368 . S
C1110 C1109 1.523 . S
C1111 C1095 1.429 . S
C1111 C1107 1.429 . S
C1111 C1112 1.523 . S
C1112 C1096 1.368 . S
C1112 C1108 1.368 . S
C1112 C1111 1.523 . S
H1113 C1088 0.950 . S
H1114 C1090 0.950 . S
H1115 C1091 0.949 . S
H1116 C1093 0.950 1_455 S
H1117 C1095 0.950 . S
C1118 C1119 1.349 . S
C1118 C1120 1.327 . S
C1118 H1143 0.950 . S
C1119 C1118 1.349 . S
C1119 C1135 1.349 . S
C1120 C1118 1.327 . S
C1120 C1139 1.429 . S
C1120 H1144 0.950 . S
C1121 C1138 1.574 . S
C1121 C1140 1.368 . S
C1121 H1145 0.949 . S
H1122 C1126 0.949 . S
C1123 C1124 1.349 . S
C1123 C1125 1.327 . S
C1123 H1146 0.950 . S
C1124 C1123 1.349 . S
C1124 C1136 1.349 . S
C1125 C1123 1.327 . S
C1125 C1141 1.429 . S
C1125 H1147 0.950 . S
C1126 H1122 0.949 . S
C1126 C1134 1.574 . S
C1126 C1142 1.368 . S
H1127 C1135 0.950 . S
H1128 C1133 0.950 . S
H1129 C1134 0.949 . S
H1130 C1136 0.950 . S
H1131 C1137 0.950 . S
H1132 C1138 0.949 . S
C1133 H1128 0.950 . S
C1133 C1135 1.327 . S
C1133 C1139 1.429 . S
C1134 C1126 1.574 . S
C1134 H1129 0.949 . S
C1134 C1140 1.368 . S
C1135 C1119 1.349 . S
C1135 H1127 0.950 . S
C1135 C1133 1.327 . S
C1136 C1124 1.349 . S
C1136 H1130 0.950 . S
C1136 C1137 1.327 . S
C1137 H1131 0.950 . S
C1137 C1136 1.327 . S
C1137 C1141 1.429 . S
C1138 C1121 1.574 . S
C1138 H1132 0.949 . S
C1138 C1142 1.368 . S
C1139 C1120 1.429 . S
C1139 C1133 1.429 . S
C1139 C1140 1.523 . S
C1140 C1121 1.368 . S
C1140 C1134 1.368 . S
C1140 C1139 1.523 . S
C1141 C1125 1.429 . S
C1141 C1137 1.429 . S
C1141 C1142 1.523 . S
C1142 C1126 1.368 . S
C1142 C1138 1.368 . S
C1142 C1141 1.523 . S
H1143 C1118 0.950 . S
H1144 C1120 0.950 . S
H1145 C1121 0.949 . S
H1146 C1123 0.950 . S
H1147 C1125 0.950 . S
C1148 C1149 1.349 . S
C1148 C1150 1.327 . S
C1148 H1173 0.950 . S
C1149 C1148 1.349 . S
C1149 C1165 1.349 . S
C1150 C1148 1.327 . S
C1150 C1169 1.429 . S
C1150 H1174 0.950 . S
C1151 C1168 1.574 . S
C1151 C1170 1.368 . S
C1151 H1175 0.949 . S
H1152 C1156 0.949 . S
C1153 C1154 1.349 . S
C1153 C1155 1.327 . S
C1153 H1176 0.950 . S
C1154 C1153 1.349 . S
C1154 C1166 1.349 . S
C1155 C1153 1.327 . S
C1155 C1171 1.429 . S
C1155 H1177 0.950 . S
C1156 H1152 0.949 . S
C1156 C1164 1.574 . S
C1156 C1172 1.368 . S
H1157 C1165 0.950 . S
H1158 C1163 0.950 . S
H1159 C1164 0.949 . S
H1160 C1166 0.950 . S
H1161 C1167 0.950 . S
H1162 C1168 0.949 . S
C1163 H1158 0.950 . S
C1163 C1165 1.327 . S
C1163 C1169 1.429 . S
C1164 C1156 1.574 . S
C1164 H1159 0.949 . S
C1164 C1170 1.368 . S
C1165 C1149 1.349 . S
C1165 H1157 0.950 . S
C1165 C1163 1.327 . S
C1166 C1154 1.349 . S
C1166 H1160 0.950 . S
C1166 C1167 1.327 . S
C1167 H1161 0.950 . S
C1167 C1166 1.327 . S
C1167 C1171 1.429 . S
C1168 C1151 1.574 . S
C1168 H1162 0.949 . S
C1168 C1172 1.368 . S
C1169 C1150 1.429 . S
C1169 C1163 1.429 . S
C1169 C1170 1.523 . S
C1170 C1151 1.368 . S
C1170 C1164 1.368 . S
C1170 C1169 1.523 . S
C1171 C1155 1.429 . S
C1171 C1167 1.429 . S
C1171 C1172 1.523 . S
C1172 C1156 1.368 . S
C1172 C1168 1.368 . S
C1172 C1171 1.523 . S
H1173 C1148 0.950 . S
H1174 C1150 0.950 . S
H1175 C1151 0.949 . S
H1176 C1153 0.950 . S
H1177 C1155 0.950 . S
C1178 C1179 1.349 . S
C1178 C1180 1.327 . S
C1178 H1203 0.950 . S
C1179 C1178 1.349 . S
C1179 C1195 1.349 . S
C1180 C1178 1.327 . S
C1180 C1199 1.429 . S
C1180 H1204 0.950 . S
C1181 C1198 1.574 . S
C1181 C1200 1.368 . S
C1181 H1205 0.949 . S
H1182 C1186 0.949 . S
C1183 C1184 1.349 . S
C1183 C1185 1.327 . S
C1183 H1206 0.950 . S
C1184 C1183 1.349 . S
C1184 C1196 1.349 . S
C1185 C1183 1.327 . S
C1185 C1201 1.429 . S
C1185 H1207 0.950 . S
C1186 H1182 0.949 . S
C1186 C1194 1.574 . S
C1186 C1202 1.368 . S
H1187 C1195 0.950 . S
H1188 C1193 0.950 . S
H1189 C1194 0.949 . S
H1190 C1196 0.950 . S
H1191 C1197 0.950 . S
H1192 C1198 0.949 . S
C1193 H1188 0.950 . S
C1193 C1195 1.327 . S
C1193 C1199 1.429 . S
C1194 C1186 1.574 . S
C1194 H1189 0.949 . S
C1194 C1200 1.368 . S
C1195 C1179 1.349 . S
C1195 H1187 0.950 . S
C1195 C1193 1.327 . S
C1196 C1184 1.349 . S
C1196 H1190 0.950 . S
C1196 C1197 1.327 . S
C1197 H1191 0.950 . S
C1197 C1196 1.327 . S
C1197 C1201 1.429 . S
C1198 C1181 1.574 . S
C1198 H1192 0.949 . S
C1198 C1202 1.368 . S
C1199 C1180 1.429 . S
C1199 C1193 1.429 . S
C1199 C1200 1.523 . S
C1200 C1181 1.368 . S
C1200 C1194 1.368 . S
C1200 C1199 1.523 . S
C1201 C1185 1.429 . S
C1201 C1197 1.429 . S
C1201 C1202 1.523 . S
C1202 C1186 1.368 . S
C1202 C1198 1.368 . S
C1202 C1201 1.523 . S
H1203 C1178 0.950 . S
H1204 C1180 0.950 . S
H1205 C1181 0.949 . S
H1206 C1183 0.950 . S
H1207 C1185 0.950 . S
C1208 C1209 1.349 . S
C1208 C1210 1.327 . S
C1208 H1233 0.950 . S
C1209 C1208 1.349 . S
C1209 C1225 1.349 . S
C1210 C1208 1.327 . S
C1210 C1229 1.429 . S
C1210 H1234 0.950 . S
C1211 C1228 1.574 . S
C1211 C1230 1.368 . S
C1211 H1235 0.949 . S
H1212 C1216 0.949 . S
C1213 C1214 1.349 . S
C1213 C1215 1.327 . S
C1213 H1236 0.950 . S
C1214 C1213 1.349 . S
C1214 C1226 1.349 . S
C1215 C1213 1.327 . S
C1215 C1231 1.429 . S
C1215 H1237 0.950 . S
C1216 H1212 0.949 . S
C1216 C1224 1.574 . S
C1216 C1232 1.368 . S
H1217 C1225 0.950 . S
H1218 C1223 0.950 . S
H1219 C1224 0.949 . S
H1220 C1226 0.950 1_655 S
H1221 C1227 0.950 . S
H1222 C1228 0.949 . S
C1223 H1218 0.950 . S
C1223 C1225 1.327 . S
C1223 C1229 1.429 . S
C1224 C1216 1.574 . S
C1224 H1219 0.949 . S
C1224 C1230 1.368 . S
C1225 C1209 1.349 . S
C1225 H1217 0.950 . S
C1225 C1223 1.327 . S
C1226 C1214 1.349 . S
C1226 H1220 0.950 1_455 S
C1226 C1227 1.327 . S
C1227 H1221 0.950 . S
C1227 C1226 1.327 . S
C1227 C1231 1.429 . S
C1228 C1211 1.574 . S
C1228 H1222 0.949 . S
C1228 C1232 1.368 . S
C1229 C1210 1.429 . S
C1229 C1223 1.429 . S
C1229 C1230 1.523 . S
C1230 C1211 1.368 . S
C1230 C1224 1.368 . S
C1230 C1229 1.523 . S
C1231 C1215 1.429 . S
C1231 C1227 1.429 . S
C1231 C1232 1.523 . S
C1232 C1216 1.368 . S
C1232 C1228 1.368 . S
C1232 C1231 1.523 . S
H1233 C1208 0.950 . S
H1234 C1210 0.950 . S
H1235 C1211 0.949 . S
H1236 C1213 0.950 . S
H1237 C1215 0.950 . S
C1238 C1239 1.349 . S
C1238 C1240 1.327 . S
C1238 H1263 0.950 . S
C1239 C1238 1.349 . S
C1239 C1255 1.349 . S
C1240 C1238 1.327 . S
C1240 C1259 1.429 . S
C1240 H1264 0.950 . S
C1241 C1258 1.574 . S
C1241 C1260 1.368 . S
C1241 H1265 0.949 . S
H1242 C1246 0.949 . S
C1243 C1244 1.349 . S
C1243 C1245 1.327 . S
C1243 H1266 0.950 . S
C1244 C1243 1.349 . S
C1244 C1256 1.349 . S
C1245 C1243 1.327 . S
C1245 C1261 1.429 . S
C1245 H1267 0.950 . S
C1246 H1242 0.949 . S
C1246 C1254 1.574 . S
C1246 C1262 1.368 . S
H1247 C1255 0.950 . S
H1248 C1253 0.950 . S
H1249 C1254 0.949 . S
H1250 C1256 0.950 . S
H1251 C1257 0.950 . S
H1252 C1258 0.949 . S
C1253 H1248 0.950 . S
C1253 C1255 1.327 . S
C1253 C1259 1.429 . S
C1254 C1246 1.574 . S
C1254 H1249 0.949 . S
C1254 C1260 1.368 . S
C1255 C1239 1.349 . S
C1255 H1247 0.950 . S
C1255 C1253 1.327 . S
C1256 C1244 1.349 . S
C1256 H1250 0.950 . S
C1256 C1257 1.327 . S
C1257 H1251 0.950 . S
C1257 C1256 1.327 . S
C1257 C1261 1.429 . S
C1258 C1241 1.574 . S
C1258 H1252 0.949 . S
C1258 C1262 1.368 . S
C1259 C1240 1.429 . S
C1259 C1253 1.429 . S
C1259 C1260 1.523 . S
C1260 C1241 1.368 . S
C1260 C1254 1.368 . S
C1260 C1259 1.523 . S
C1261 C1245 1.429 . S
C1261 C1257 1.429 . S
C1261 C1262 1.523 . S
C1262 C1246 1.368 . S
C1262 C1258 1.368 . S
C1262 C1261 1.523 . S
H1263 C1238 0.950 . S
H1264 C1240 0.950 . S
H1265 C1241 0.949 . S
H1266 C1243 0.950 . S
H1267 C1245 0.950 . S
C1268 C1269 1.349 . S
C1268 C1270 1.327 . S
C1268 H1293 0.950 . S
C1269 C1268 1.349 . S
C1269 C1285 1.349 . S
C1270 C1268 1.327 . S
C1270 C1289 1.429 . S
C1270 H1294 0.950 . S
C1271 C1288 1.574 . S
C1271 C1290 1.368 . S
C1271 H1295 0.949 . S
H1272 C1276 0.949 . S
C1273 C1274 1.349 . S
C1273 C1275 1.327 . S
C1273 H1296 0.950 . S
C1274 C1273 1.349 . S
C1274 C1286 1.349 . S
C1275 C1273 1.327 . S
C1275 C1291 1.429 . S
C1275 H1297 0.950 . S
C1276 H1272 0.949 . S
C1276 C1284 1.574 . S
C1276 C1292 1.368 . S
H1277 C1285 0.950 . S
H1278 C1283 0.950 . S
H1279 C1284 0.949 . S
H1280 C1286 0.950 . S
H1281 C1287 0.950 . S
H1282 C1288 0.949 . S
C1283 H1278 0.950 . S
C1283 C1285 1.327 . S
C1283 C1289 1.429 . S
C1284 C1276 1.574 . S
C1284 H1279 0.949 . S
C1284 C1290 1.368 . S
C1285 C1269 1.349 . S
C1285 H1277 0.950 . S
C1285 C1283 1.327 . S
C1286 C1274 1.349 . S
C1286 H1280 0.950 . S
C1286 C1287 1.327 . S
C1287 H1281 0.950 . S
C1287 C1286 1.327 . S
C1287 C1291 1.429 . S
C1288 C1271 1.574 . S
C1288 H1282 0.949 . S
C1288 C1292 1.368 . S
C1289 C1270 1.429 . S
C1289 C1283 1.429 . S
C1289 C1290 1.523 . S
C1290 C1271 1.368 . S
C1290 C1284 1.368 . S
C1290 C1289 1.523 . S
C1291 C1275 1.429 . S
C1291 C1287 1.429 . S
C1291 C1292 1.523 . S
C1292 C1276 1.368 . S
C1292 C1288 1.368 . S
C1292 C1291 1.523 . S
H1293 C1268 0.950 . S
H1294 C1270 0.950 . S
H1295 C1271 0.949 . S
H1296 C1273 0.950 . S
H1297 C1275 0.950 . S
C1298 C1299 1.349 . S
C1298 C1300 1.327 . S
C1298 H1323 0.950 . S
C1299 C1298 1.349 . S
C1299 C1315 1.349 . S
C1300 C1298 1.327 . S
C1300 C1319 1.429 . S
C1300 H1324 0.950 . S
C1301 C1318 1.574 . S
C1301 C1320 1.368 . S
C1301 H1325 0.949 . S
H1302 C1306 0.949 1_554 S
C1303 C1304 1.349 1_556 S
C1303 C1305 1.327 . S
C1303 H1326 0.950 . S
C1304 C1303 1.349 1_554 S
C1304 C1316 1.349 . S
C1305 C1303 1.327 . S
C1305 C1321 1.429 . S
C1305 H1327 0.950 . S
C1306 H1302 0.949 1_556 S
C1306 C1314 1.574 . S
C1306 C1322 1.368 . S
H1307 C1315 0.950 . S
H1308 C1313 0.950 . S
H1309 C1314 0.949 . S
H1310 C1316 0.950 . S
H1311 C1317 0.950 . S
H1312 C1318 0.949 . S
C1313 H1308 0.950 . S
C1313 C1315 1.327 . S
C1313 C1319 1.429 . S
C1314 C1306 1.574 . S
C1314 H1309 0.949 . S
C1314 C1320 1.368 . S
C1315 C1299 1.349 . S
C1315 H1307 0.950 . S
C1315 C1313 1.327 . S
C1316 C1304 1.349 . S
C1316 H1310 0.950 . S
C1316 C1317 1.327 . S
C1317 H1311 0.950 . S
C1317 C1316 1.327 . S
C1317 C1321 1.429 1_554 S
C1318 C1301 1.574 . S
C1318 H1312 0.949 . S
C1318 C1322 1.368 . S
C1319 C1300 1.429 . S
C1319 C1313 1.429 . S
C1319 C1320 1.523 . S
C1320 C1301 1.368 . S
C1320 C1314 1.368 . S
C1320 C1319 1.523 . S
C1321 C1305 1.429 . S
C1321 C1317 1.429 1_556 S
C1321 C1322 1.523 . S
C1322 C1306 1.368 . S
C1322 C1318 1.368 . S
C1322 C1321 1.523 . S
H1323 C1298 0.950 . S
H1324 C1300 0.950 . S
H1325 C1301 0.949 . S
H1326 C1303 0.950 . S
H1327 C1305 0.950 . S
C1328 C1329 1.349 . S
C1328 C1330 1.327 . S
C1328 H1353 0.950 . S
C1329 C1328 1.349 . S
C1329 C1345 1.349 . S
C1330 C1328 1.327 . S
C1330 C1349 1.429 . S
C1330 H1354 0.950 . S
C1331 C1348 1.574 . S
C1331 C1350 1.368 . S
C1331 H1355 0.949 . S
H1332 C1336 0.949 . S
C1333 C1334 1.349 . S
C1333 C1335 1.327 . S
C1333 H1356 0.950 . S
C1334 C1333 1.349 . S
C1334 C1346 1.349 . S
C1335 C1333 1.327 . S
C1335 C1351 1.429 . S
C1335 H1357 0.950 . S
C1336 H1332 0.949 . S
C1336 C1344 1.574 . S
C1336 C1352 1.368 . S
H1337 C1345 0.950 . S
H1338 C1343 0.950 . S
H1339 C1344 0.949 . S
H1340 C1346 0.950 . S
H1341 C1347 0.950 . S
H1342 C1348 0.949 . S
C1343 H1338 0.950 . S
C1343 C1345 1.327 . S
C1343 C1349 1.429 . S
C1344 C1336 1.574 . S
C1344 H1339 0.949 . S
C1344 C1350 1.368 . S
C1345 C1329 1.349 . S
C1345 H1337 0.950 . S
C1345 C1343 1.327 . S
C1346 C1334 1.349 . S
C1346 H1340 0.950 . S
C1346 C1347 1.327 . S
C1347 H1341 0.950 . S
C1347 C1346 1.327 . S
C1347 C1351 1.429 . S
C1348 C1331 1.574 . S
C1348 H1342 0.949 . S
C1348 C1352 1.368 . S
C1349 C1330 1.429 . S
C1349 C1343 1.429 . S
C1349 C1350 1.523 . S
C1350 C1331 1.368 . S
C1350 C1344 1.368 . S
C1350 C1349 1.523 . S
C1351 C1335 1.429 . S
C1351 C1347 1.429 . S
C1351 C1352 1.523 . S
C1352 C1336 1.368 . S
C1352 C1348 1.368 . S
C1352 C1351 1.523 . S
H1353 C1328 0.950 . S
H1354 C1330 0.950 . S
H1355 C1331 0.949 . S
H1356 C1333 0.950 . S
H1357 C1335 0.950 . S
C1358 C1359 1.349 . S
C1358 C1360 1.327 . S
C1358 H1383 0.950 . S
C1359 C1358 1.349 . S
C1359 C1375 1.349 . S
C1360 C1358 1.327 . S
C1360 C1379 1.429 . S
C1360 H1384 0.950 . S
C1361 C1378 1.574 . S
C1361 C1380 1.368 . S
C1361 H1385 0.949 . S
H1362 C1366 0.949 . S
C1363 C1364 1.349 . S
C1363 C1365 1.327 . S
C1363 H1386 0.950 . S
C1364 C1363 1.349 . S
C1364 C1376 1.349 . S
C1365 C1363 1.327 . S
C1365 C1381 1.429 . S
C1365 H1387 0.950 . S
C1366 H1362 0.949 . S
C1366 C1374 1.574 . S
C1366 C1382 1.368 . S
H1367 C1375 0.950 . S
H1368 C1373 0.950 . S
H1369 C1374 0.949 . S
H1370 C1376 0.950 . S
H1371 C1377 0.950 . S
H1372 C1378 0.949 . S
C1373 H1368 0.950 . S
C1373 C1375 1.327 . S
C1373 C1379 1.429 . S
C1374 C1366 1.574 . S
C1374 H1369 0.949 . S
C1374 C1380 1.368 . S
C1375 C1359 1.349 . S
C1375 H1367 0.950 . S
C1375 C1373 1.327 . S
C1376 C1364 1.349 . S
C1376 H1370 0.950 . S
C1376 C1377 1.327 . S
C1377 H1371 0.950 . S
C1377 C1376 1.327 . S
C1377 C1381 1.429 . S
C1378 C1361 1.574 . S
C1378 H1372 0.949 . S
C1378 C1382 1.368 . S
C1379 C1360 1.429 . S
C1379 C1373 1.429 . S
C1379 C1380 1.523 . S
C1380 C1361 1.368 . S
C1380 C1374 1.368 . S
C1380 C1379 1.523 . S
C1381 C1365 1.429 . S
C1381 C1377 1.429 . S
C1381 C1382 1.523 . S
C1382 C1366 1.368 . S
C1382 C1378 1.368 . S
C1382 C1381 1.523 . S
H1383 C1358 0.950 . S
H1384 C1360 0.950 . S
H1385 C1361 0.949 . S
H1386 C1363 0.950 . S
H1387 C1365 0.950 . S
C1388 C1389 1.349 . S
C1388 C1390 1.327 . S
C1388 H1413 0.950 . S
C1389 C1388 1.349 . S
C1389 C1405 1.349 . S
C1390 C1388 1.327 . S
C1390 C1409 1.429 . S
C1390 H1414 0.950 . S
C1391 C1408 1.574 . S
C1391 C1410 1.368 . S
C1391 H1415 0.949 . S
H1392 C1396 0.949 . S
C1393 C1394 1.349 . S
C1393 C1395 1.327 . S
C1393 H1416 0.950 . S
C1394 C1393 1.349 . S
C1394 C1406 1.349 . S
C1395 C1393 1.327 . S
C1395 C1411 1.429 . S
C1395 H1417 0.950 . S
C1396 H1392 0.949 . S
C1396 C1404 1.574 . S
C1396 C1412 1.368 . S
H1397 C1405 0.950 . S
H1398 C1403 0.950 . S
H1399 C1404 0.949 . S
H1400 C1406 0.950 . S
H1401 C1407 0.950 . S
H1402 C1408 0.949 . S
C1403 H1398 0.950 . S
C1403 C1405 1.327 . S
C1403 C1409 1.429 . S
C1404 C1396 1.574 . S
C1404 H1399 0.949 . S
C1404 C1410 1.368 . S
C1405 C1389 1.349 . S
C1405 H1397 0.950 . S
C1405 C1403 1.327 . S
C1406 C1394 1.349 . S
C1406 H1400 0.950 . S
C1406 C1407 1.327 . S
C1407 H1401 0.950 . S
C1407 C1406 1.327 . S
C1407 C1411 1.429 . S
C1408 C1391 1.574 . S
C1408 H1402 0.949 . S
C1408 C1412 1.368 . S
C1409 C1390 1.429 . S
C1409 C1403 1.429 . S
C1409 C1410 1.523 . S
C1410 C1391 1.368 . S
C1410 C1404 1.368 . S
C1410 C1409 1.523 . S
C1411 C1395 1.429 . S
C1411 C1407 1.429 . S
C1411 C1412 1.523 . S
C1412 C1396 1.368 . S
C1412 C1408 1.368 . S
C1412 C1411 1.523 . S
H1413 C1388 0.950 . S
H1414 C1390 0.950 . S
H1415 C1391 0.949 . S
H1416 C1393 0.950 . S
H1417 C1395 0.950 . S
C1418 C1419 1.349 . S
C1418 C1420 1.327 . S
C1418 H1443 0.950 . S
C1419 C1418 1.349 . S
C1419 C1435 1.349 . S
C1420 C1418 1.327 . S
C1420 C1439 1.429 . S
C1420 H1444 0.950 . S
C1421 C1438 1.555 1_554 S
C1421 C1440 1.368 . S
C1421 H1445 0.949 . S
H1422 C1426 0.949 . S
C1423 C1424 1.349 . S
C1423 C1425 1.327 . S
C1423 H1446 0.950 . S
C1424 C1423 1.349 . S
C1424 C1436 1.349 . S
C1425 C1423 1.327 . S
C1425 C1441 1.429 . S
C1425 H1447 0.950 . S
C1426 H1422 0.949 . S
C1426 C1434 1.574 . S
C1426 C1442 1.368 . S
H1427 C1435 0.950 . S
H1428 C1433 0.950 . S
H1429 C1434 0.949 . S
H1430 C1436 0.950 . S
H1431 C1437 0.950 . S
H1432 C1438 0.967 . S
C1433 H1428 0.950 . S
C1433 C1435 1.327 . S
C1433 C1439 1.429 . S
C1434 C1426 1.574 . S
C1434 H1429 0.949 . S
C1434 C1440 1.368 1_655 S
C1435 C1419 1.349 . S
C1435 H1427 0.950 . S
C1435 C1433 1.327 . S
C1436 C1424 1.349 . S
C1436 H1430 0.950 . S
C1436 C1437 1.327 . S
C1437 H1431 0.950 . S
C1437 C1436 1.327 . S
C1437 C1441 1.429 . S
C1438 C1421 1.555 1_556 S
C1438 H1432 0.967 . S
C1438 C1442 1.367 1_456 S
C1439 C1420 1.429 . S
C1439 C1433 1.429 . S
C1439 C1440 1.523 . S
C1440 C1421 1.368 . S
C1440 C1434 1.368 1_455 S
C1440 C1439 1.523 . S
C1441 C1425 1.429 . S
C1441 C1437 1.429 . S
C1441 C1442 1.523 1_556 S
C1442 C1426 1.368 . S
C1442 C1438 1.367 1_654 S
C1442 C1441 1.523 1_554 S
H1443 C1418 0.950 . S
H1444 C1420 0.950 . S
H1445 C1421 0.949 . S
H1446 C1423 0.950 . S
H1447 C1425 0.950 . S
C1448 C1449 1.349 . S
C1448 C1450 1.327 . S
C1448 H1473 0.950 . S
C1449 C1448 1.349 . S
C1449 C1465 1.349 . S
C1450 C1448 1.327 . S
C1450 C1469 1.429 . S
C1450 H1474 0.950 . S
C1451 C1468 1.574 . S
C1451 C1470 1.368 . S
C1451 H1475 0.949 . S
H1452 C1456 0.949 . S
C1453 C1454 1.349 . S
C1453 C1455 1.327 . S
C1453 H1476 0.950 . S
C1454 C1453 1.349 . S
C1454 C1466 1.349 . S
C1455 C1453 1.327 . S
C1455 C1471 1.429 . S
C1455 H1477 0.950 . S
C1456 H1452 0.949 . S
C1456 C1464 1.574 . S
C1456 C1472 1.368 . S
H1457 C1465 0.950 . S
H1458 C1463 0.950 . S
H1459 C1464 0.949 . S
H1460 C1466 0.950 . S
H1461 C1467 0.950 . S
H1462 C1468 0.949 . S
C1463 H1458 0.950 . S
C1463 C1465 1.327 . S
C1463 C1469 1.429 . S
C1464 C1456 1.574 . S
C1464 H1459 0.949 . S
C1464 C1470 1.368 . S
C1465 C1449 1.349 . S
C1465 H1457 0.950 . S
C1465 C1463 1.327 . S
C1466 C1454 1.349 . S
C1466 H1460 0.950 . S
C1466 C1467 1.327 . S
C1467 H1461 0.950 . S
C1467 C1466 1.327 . S
C1467 C1471 1.429 . S
C1468 C1451 1.574 . S
C1468 H1462 0.949 . S
C1468 C1472 1.368 . S
C1469 C1450 1.429 . S
C1469 C1463 1.429 . S
C1469 C1470 1.523 . S
C1470 C1451 1.368 . S
C1470 C1464 1.368 . S
C1470 C1469 1.523 . S
C1471 C1455 1.429 . S
C1471 C1467 1.429 . S
C1471 C1472 1.523 . S
C1472 C1456 1.368 . S
C1472 C1468 1.368 . S
C1472 C1471 1.523 . S
H1473 C1448 0.950 . S
H1474 C1450 0.950 . S
H1475 C1451 0.949 . S
H1476 C1453 0.950 . S
H1477 C1455 0.950 . S
C1478 C1479 1.349 . S
C1478 C1480 1.327 . S
C1478 H1503 0.950 . S
C1479 C1478 1.349 . S
C1479 C1495 1.349 . S
C1480 C1478 1.327 . S
C1480 C1499 1.429 . S
C1480 H1504 0.950 . S
C1481 C1498 1.574 . S
C1481 C1500 1.368 . S
C1481 H1505 0.949 . S
H1482 C1486 0.949 . S
C1483 C1484 1.349 . S
C1483 C1485 1.327 . S
C1483 H1506 0.950 . S
C1484 C1483 1.349 . S
C1484 C1496 1.349 . S
C1485 C1483 1.327 . S
C1485 C1501 1.429 . S
C1485 H1507 0.950 . S
C1486 H1482 0.949 . S
C1486 C1494 1.574 . S
C1486 C1502 1.368 . S
H1487 C1495 0.950 . S
H1488 C1493 0.950 . S
H1489 C1494 0.949 . S
H1490 C1496 0.950 . S
H1491 C1497 0.950 . S
H1492 C1498 0.949 . S
C1493 H1488 0.950 . S
C1493 C1495 1.327 . S
C1493 C1499 1.429 . S
C1494 C1486 1.574 . S
C1494 H1489 0.949 . S
C1494 C1500 1.368 . S
C1495 C1479 1.349 . S
C1495 H1487 0.950 . S
C1495 C1493 1.327 . S
C1496 C1484 1.349 . S
C1496 H1490 0.950 . S
C1496 C1497 1.327 . S
C1497 H1491 0.950 . S
C1497 C1496 1.327 . S
C1497 C1501 1.429 . S
C1498 C1481 1.574 . S
C1498 H1492 0.949 . S
C1498 C1502 1.368 . S
C1499 C1480 1.429 . S
C1499 C1493 1.429 . S
C1499 C1500 1.523 . S
C1500 C1481 1.368 . S
C1500 C1494 1.368 . S
C1500 C1499 1.523 . S
C1501 C1485 1.429 . S
C1501 C1497 1.429 . S
C1501 C1502 1.523 . S
C1502 C1486 1.368 . S
C1502 C1498 1.368 . S
C1502 C1501 1.523 . S
H1503 C1478 0.950 . S
H1504 C1480 0.950 . S
H1505 C1481 0.949 . S
H1506 C1483 0.950 . S
H1507 C1485 0.950 . S
C1508 C1509 1.349 . S
C1508 C1510 1.312 1_545 S
C1508 H1533 0.950 1_545 S
C1509 C1508 1.349 . S
C1509 C1525 1.349 . S
C1510 C1508 1.312 1_565 S
C1510 C1529 1.397 1_565 S
C1510 H1534 1.000 . S
C1511 C1528 1.574 . S
C1511 C1530 1.368 1_655 S
C1511 H1535 0.949 . S
H1512 C1516 0.949 . S
C1513 C1514 1.349 . S
C1513 C1515 1.312 1_565 S
C1513 H1536 0.950 1_565 S
C1514 C1513 1.349 . S
C1514 C1526 1.349 . S
C1515 C1513 1.312 1_545 S
C1515 C1531 1.397 1_545 S
C1515 H1537 1.000 . S
C1516 H1512 0.949 . S
C1516 C1524 1.574 . S
C1516 C1532 1.368 1_455 S
H1517 C1525 0.950 . S
H1518 C1523 0.950 . S
H1519 C1524 0.949 1_556 S
H1520 C1526 0.950 . S
H1521 C1527 0.950 . S
H1522 C1528 0.949 . S
C1523 H1518 0.950 . S
C1523 C1525 1.327 . S
C1523 C1529 1.429 . S
C1524 C1516 1.574 . S
C1524 H1519 0.949 1_554 S
C1524 C1530 1.368 1_565 S
C1525 C1509 1.349 . S
C1525 H1517 0.950 . S
C1525 C1523 1.327 . S
C1526 C1514 1.349 . S
C1526 H1520 0.950 . S
C1526 C1527 1.327 . S
C1527 H1521 0.950 . S
C1527 C1526 1.327 . S
C1527 C1531 1.429 . S
C1528 C1511 1.574 . S
C1528 H1522 0.949 . S
C1528 C1532 1.368 1_545 S
C1529 C1510 1.397 1_545 S
C1529 C1523 1.429 . S
C1529 C1530 1.523 1_556 S
C1530 C1511 1.368 1_455 S
C1530 C1524 1.368 1_545 S
C1530 C1529 1.523 1_554 S
C1531 C1515 1.397 1_565 S
C1531 C1527 1.429 . S
C1531 C1532 1.523 . S
C1532 C1516 1.368 1_655 S
C1532 C1528 1.368 1_565 S
C1532 C1531 1.523 . S
H1533 C1508 0.950 1_565 S
H1534 C1510 1.000 . S
H1535 C1511 0.949 . S
H1536 C1513 0.950 1_545 S
H1537 C1515 1.000 . S
C1538 C1539 1.349 . S
C1538 C1540 1.327 . S
C1538 H1563 0.950 . S
C1539 C1538 1.349 . S
C1539 C1555 1.349 . S
C1540 C1538 1.327 . S
C1540 C1559 1.429 . S
C1540 H1564 0.950 . S
C1541 C1558 1.574 . S
C1541 C1560 1.368 1_565 S
C1541 H1565 0.949 . S
H1542 C1546 0.949 . S
C1543 C1544 1.349 . S
C1543 C1545 1.327 . S
C1543 H1566 0.950 . S
C1544 C1543 1.349 . S
C1544 C1556 1.349 . S
C1545 C1543 1.327 . S
C1545 C1561 1.429 . S
C1545 H1567 0.950 . S
C1546 H1542 0.949 . S
C1546 C1554 1.574 . S
C1546 C1562 1.368 1_545 S
H1547 C1555 0.950 1_565 S
H1548 C1553 0.950 . S
H1549 C1554 0.949 . S
H1550 C1556 0.950 1_545 S
H1551 C1557 0.950 . S
H1552 C1558 0.949 . S
C1553 H1548 0.950 . S
C1553 C1555 1.327 1_565 S
C1553 C1559 1.429 1_565 S
C1554 C1546 1.574 . S
C1554 H1549 0.949 . S
C1554 C1560 1.368 . S
C1555 C1539 1.349 . S
C1555 H1547 0.950 1_545 S
C1555 C1553 1.327 1_545 S
C1556 C1544 1.349 . S
C1556 H1550 0.950 1_565 S
C1556 C1557 1.327 1_565 S
C1557 H1551 0.950 . S
C1557 C1556 1.327 1_545 S
C1557 C1561 1.429 1_545 S
C1558 C1541 1.574 . S
C1558 H1552 0.949 . S
C1558 C1562 1.368 . S
C1559 C1540 1.429 . S
C1559 C1553 1.429 1_545 S
C1559 C1560 1.523 . S
C1560 C1541 1.368 1_545 S
C1560 C1554 1.368 . S
C1560 C1559 1.523 . S
C1561 C1545 1.429 . S
C1561 C1557 1.429 1_565 S
C1561 C1562 1.523 . S
C1562 C1546 1.368 1_565 S
C1562 C1558 1.368 . S
C1562 C1561 1.523 . S
H1563 C1538 0.950 . S
H1564 C1540 0.950 . S
H1565 C1541 0.949 . S
H1566 C1543 0.950 . S
H1567 C1545 0.950 . S
C1568 C1569 1.349 . S
C1568 C1570 1.327 . S
C1568 H1593 0.950 . S
C1569 C1568 1.349 . S
C1569 C1585 1.349 . S
C1570 C1568 1.327 . S
C1570 C1589 1.429 . S
C1570 H1594 0.950 . S
C1571 C1588 1.574 . S
C1571 C1590 1.368 . S
C1571 H1595 0.949 . S
H1572 C1576 0.949 . S
C1573 C1574 1.349 . S
C1573 C1575 1.327 . S
C1573 H1596 0.950 . S
C1574 C1573 1.349 . S
C1574 C1586 1.349 . S
C1575 C1573 1.327 . S
C1575 C1591 1.429 . S
C1575 H1597 0.950 . S
C1576 H1572 0.949 . S
C1576 C1584 1.574 . S
C1576 C1592 1.368 . S
H1577 C1585 0.950 . S
H1578 C1583 0.950 . S
H1579 C1584 0.949 . S
H1580 C1586 0.950 . S
H1581 C1587 0.950 . S
H1582 C1588 0.949 . S
C1583 H1578 0.950 . S
C1583 C1585 1.327 . S
C1583 C1589 1.429 . S
C1584 C1576 1.574 . S
C1584 H1579 0.949 . S
C1584 C1590 1.368 . S
C1585 C1569 1.349 . S
C1585 H1577 0.950 . S
C1585 C1583 1.327 . S
C1586 C1574 1.349 . S
C1586 H1580 0.950 . S
C1586 C1587 1.327 . S
C1587 H1581 0.950 . S
C1587 C1586 1.327 . S
C1587 C1591 1.429 . S
C1588 C1571 1.574 . S
C1588 H1582 0.949 . S
C1588 C1592 1.368 . S
C1589 C1570 1.429 . S
C1589 C1583 1.429 . S
C1589 C1590 1.523 . S
C1590 C1571 1.368 . S
C1590 C1584 1.368 . S
C1590 C1589 1.523 . S
C1591 C1575 1.429 . S
C1591 C1587 1.429 . S
C1591 C1592 1.523 . S
C1592 C1576 1.368 . S
C1592 C1588 1.368 . S
C1592 C1591 1.523 . S
H1593 C1568 0.950 . S
H1594 C1570 0.950 . S
H1595 C1571 0.949 . S
H1596 C1573 0.950 . S
H1597 C1575 0.950 . S
C1598 C1599 1.349 . S
C1598 C1600 1.327 . S
C1598 H1623 0.950 . S
C1599 C1598 1.349 . S
C1599 C1615 1.349 . S
C1600 C1598 1.327 . S
C1600 C1619 1.429 . S
C1600 H1624 0.950 . S
C1601 C1618 1.574 . S
C1601 C1620 1.368 . S
C1601 H1625 0.949 1_554 S
H1602 C1606 0.949 . S
C1603 C1604 1.349 . S
C1603 C1605 1.327 . S
C1603 H1626 0.950 . S
C1604 C1603 1.349 . S
C1604 C1616 1.349 . S
C1605 C1603 1.327 . S
C1605 C1621 1.429 . S
C1605 H1627 0.950 . S
C1606 H1602 0.949 . S
C1606 C1614 1.574 . S
C1606 C1622 1.368 . S
H1607 C1615 0.950 . S
H1608 C1613 0.950 . S
H1609 C1614 0.949 . S
H1610 C1616 0.950 . S
H1611 C1617 0.950 . S
H1612 C1618 0.949 . S
C1613 H1608 0.950 . S
C1613 C1615 1.327 . S
C1613 C1619 1.429 . S
C1614 C1606 1.574 . S
C1614 H1609 0.949 . S
C1614 C1620 1.368 . S
C1615 C1599 1.349 . S
C1615 H1607 0.950 . S
C1615 C1613 1.327 . S
C1616 C1604 1.349 . S
C1616 H1610 0.950 . S
C1616 C1617 1.327 . S
C1617 H1611 0.950 . S
C1617 C1616 1.327 . S
C1617 C1621 1.429 . S
C1618 C1601 1.574 . S
C1618 H1612 0.949 . S
C1618 C1622 1.368 . S
C1619 C1600 1.429 . S
C1619 C1613 1.429 . S
C1619 C1620 1.523 1_556 S
C1620 C1601 1.368 . S
C1620 C1614 1.368 . S
C1620 C1619 1.523 1_554 S
C1621 C1605 1.429 . S
C1621 C1617 1.429 . S
C1621 C1622 1.523 . S
C1622 C1606 1.368 . S
C1622 C1618 1.368 . S
C1622 C1621 1.523 . S
H1623 C1598 0.950 . S
H1624 C1600 0.950 . S
H1625 C1601 0.949 1_556 S
H1626 C1603 0.950 . S
H1627 C1605 0.950 . S
C1628 C1629 1.349 . S
C1628 C1630 1.327 . S
C1628 H1653 0.950 . S
C1629 C1628 1.349 . S
C1629 C1645 1.349 . S
C1630 C1628 1.327 . S
C1630 C1649 1.429 . S
C1630 H1654 0.950 . S
C1631 C1648 1.574 . S
C1631 C1650 1.368 . S
C1631 H1655 0.949 . S
H1632 C1636 0.949 . S
C1633 C1634 1.349 . S
C1633 C1635 1.327 . S
C1633 H1656 0.950 . S
C1634 C1633 1.349 . S
C1634 C1646 1.349 . S
C1635 C1633 1.327 . S
C1635 C1651 1.429 . S
C1635 H1657 0.950 . S
C1636 H1632 0.949 . S
C1636 C1644 1.574 . S
C1636 C1652 1.368 . S
H1637 C1645 0.950 . S
H1638 C1643 0.950 . S
H1639 C1644 0.949 . S
H1640 C1646 0.950 . S
H1641 C1647 0.950 . S
H1642 C1648 0.949 . S
C1643 H1638 0.950 . S
C1643 C1645 1.327 . S
C1643 C1649 1.429 . S
C1644 C1636 1.574 . S
C1644 H1639 0.949 . S
C1644 C1650 1.368 . S
C1645 C1629 1.349 . S
C1645 H1637 0.950 . S
C1645 C1643 1.327 . S
C1646 C1634 1.349 . S
C1646 H1640 0.950 . S
C1646 C1647 1.327 . S
C1647 H1641 0.950 . S
C1647 C1646 1.327 . S
C1647 C1651 1.429 . S
C1648 C1631 1.574 . S
C1648 H1642 0.949 . S
C1648 C1652 1.368 . S
C1649 C1630 1.429 . S
C1649 C1643 1.429 . S
C1649 C1650 1.523 . S
C1650 C1631 1.368 . S
C1650 C1644 1.368 . S
C1650 C1649 1.523 . S
C1651 C1635 1.429 . S
C1651 C1647 1.429 . S
C1651 C1652 1.523 . S
C1652 C1636 1.368 . S
C1652 C1648 1.368 . S
C1652 C1651 1.523 . S
H1653 C1628 0.950 . S
H1654 C1630 0.950 . S
H1655 C1631 0.949 . S
H1656 C1633 0.950 . S
H1657 C1635 0.950 . S
C1658 C1659 1.349 . S
C1658 C1660 1.327 . S
C1658 H1683 0.950 . S
C1659 C1658 1.349 . S
C1659 C1675 1.349 . S
C1660 C1658 1.327 . S
C1660 C1679 1.429 . S
C1660 H1684 0.950 . S
C1661 C1678 1.574 . S
C1661 C1680 1.368 1_655 S
C1661 H1685 0.949 . S
H1662 C1666 0.949 . S
C1663 C1664 1.349 . S
C1663 C1665 1.327 . S
C1663 H1686 0.950 . S
C1664 C1663 1.349 . S
C1664 C1676 1.349 . S
C1665 C1663 1.327 . S
C1665 C1681 1.429 . S
C1665 H1687 0.950 . S
C1666 H1662 0.949 . S
C1666 C1674 1.574 . S
C1666 C1682 1.368 1_455 S
H1667 C1675 0.950 1_655 S
H1668 C1673 0.950 . S
H1669 C1674 0.949 . S
H1670 C1676 0.950 1_455 S
H1671 C1677 0.950 . S
H1672 C1678 0.949 . S
C1673 H1668 0.950 . S
C1673 C1675 1.327 1_655 S
C1673 C1679 1.429 1_655 S
C1674 C1666 1.574 . S
C1674 H1669 0.949 . S
C1674 C1680 1.368 . S
C1675 C1659 1.349 . S
C1675 H1667 0.950 1_455 S
C1675 C1673 1.327 1_455 S
C1676 C1664 1.349 . S
C1676 H1670 0.950 1_655 S
C1676 C1677 1.327 1_655 S
C1677 H1671 0.950 . S
C1677 C1676 1.327 1_455 S
C1677 C1681 1.429 1_455 S
C1678 C1661 1.574 . S
C1678 H1672 0.949 . S
C1678 C1682 1.368 . S
C1679 C1660 1.429 . S
C1679 C1673 1.429 1_455 S
C1679 C1680 1.523 . S
C1680 C1661 1.368 1_455 S
C1680 C1674 1.368 . S
C1680 C1679 1.523 . S
C1681 C1665 1.429 . S
C1681 C1677 1.429 1_655 S
C1681 C1682 1.523 . S
C1682 C1666 1.368 1_655 S
C1682 C1678 1.368 . S
C1682 C1681 1.523 . S
H1683 C1658 0.950 . S
H1684 C1660 0.950 . S
H1685 C1661 0.949 . S
H1686 C1663 0.950 . S
H1687 C1665 0.950 . S
C1688 C1689 1.349 . S
C1688 C1690 1.327 . S
C1688 H1713 0.950 . S
C1689 C1688 1.349 . S
C1689 C1705 1.349 . S
C1690 C1688 1.327 . S
C1690 C1709 1.429 . S
C1690 H1714 0.950 . S
C1691 C1708 1.574 . S
C1691 C1710 1.368 . S
C1691 H1715 0.949 . S
H1692 C1696 0.949 . S
C1693 C1694 1.349 . S
C1693 C1695 1.327 . S
C1693 H1716 0.950 . S
C1694 C1693 1.349 . S
C1694 C1706 1.349 . S
C1695 C1693 1.327 . S
C1695 C1711 1.429 . S
C1695 H1717 0.950 . S
C1696 H1692 0.949 . S
C1696 C1704 1.574 . S
C1696 C1712 1.368 . S
H1697 C1705 0.950 . S
H1698 C1703 0.950 . S
H1699 C1704 0.949 . S
H1700 C1706 0.950 . S
H1701 C1707 0.950 . S
H1702 C1708 0.949 . S
C1703 H1698 0.950 . S
C1703 C1705 1.327 . S
C1703 C1709 1.429 . S
C1704 C1696 1.574 . S
C1704 H1699 0.949 . S
C1704 C1710 1.368 . S
C1705 C1689 1.349 . S
C1705 H1697 0.950 . S
C1705 C1703 1.327 . S
C1706 C1694 1.349 . S
C1706 H1700 0.950 . S
C1706 C1707 1.327 . S
C1707 H1701 0.950 . S
C1707 C1706 1.327 . S
C1707 C1711 1.429 . S
C1708 C1691 1.574 . S
C1708 H1702 0.949 . S
C1708 C1712 1.368 . S
C1709 C1690 1.429 . S
C1709 C1703 1.429 . S
C1709 C1710 1.523 . S
C1710 C1691 1.368 . S
C1710 C1704 1.368 . S
C1710 C1709 1.523 . S
C1711 C1695 1.429 . S
C1711 C1707 1.429 . S
C1711 C1712 1.523 . S
C1712 C1696 1.368 . S
C1712 C1708 1.368 . S
C1712 C1711 1.523 . S
H1713 C1688 0.950 . S
H1714 C1690 0.950 . S
H1715 C1691 0.949 . S
H1716 C1693 0.950 . S
H1717 C1695 0.950 . S
C1718 C1719 1.349 . S
C1718 C1720 1.327 . S
C1718 H1743 0.950 . S
C1719 C1718 1.349 . S
C1719 C1735 1.349 . S
C1720 C1718 1.327 . S
C1720 C1739 1.429 . S
C1720 H1744 0.950 . S
C1721 C1738 1.574 . S
C1721 C1740 1.368 . S
C1721 H1745 0.949 . S
H1722 C1726 0.949 . S
C1723 C1724 1.349 . S
C1723 C1725 1.327 . S
C1723 H1746 0.950 . S
C1724 C1723 1.349 . S
C1724 C1736 1.349 . S
C1725 C1723 1.327 . S
C1725 C1741 1.429 . S
C1725 H1747 0.950 . S
C1726 H1722 0.949 . S
C1726 C1734 1.574 . S
C1726 C1742 1.368 . S
H1727 C1735 0.950 . S
H1728 C1733 0.950 . S
H1729 C1734 0.949 . S
H1730 C1736 0.950 . S
H1731 C1737 0.950 . S
H1732 C1738 0.949 . S
C1733 H1728 0.950 . S
C1733 C1735 1.327 . S
C1733 C1739 1.429 . S
C1734 C1726 1.574 . S
C1734 H1729 0.949 . S
C1734 C1740 1.368 . S
C1735 C1719 1.349 . S
C1735 H1727 0.950 . S
C1735 C1733 1.327 . S
C1736 C1724 1.349 . S
C1736 H1730 0.950 . S
C1736 C1737 1.327 . S
C1737 H1731 0.950 . S
C1737 C1736 1.327 . S
C1737 C1741 1.429 . S
C1738 C1721 1.574 . S
C1738 H1732 0.949 . S
C1738 C1742 1.368 . S
C1739 C1720 1.429 . S
C1739 C1733 1.429 . S
C1739 C1740 1.523 . S
C1740 C1721 1.368 . S
C1740 C1734 1.368 . S
C1740 C1739 1.523 . S
C1741 C1725 1.429 . S
C1741 C1737 1.429 . S
C1741 C1742 1.523 . S
C1742 C1726 1.368 . S
C1742 C1738 1.368 . S
C1742 C1741 1.523 . S
H1743 C1718 0.950 . S
H1744 C1720 0.950 . S
H1745 C1721 0.949 . S
H1746 C1723 0.950 . S
H1747 C1725 0.950 . S
C1748 C1749 1.349 . S
C1748 C1750 1.327 . S
C1748 H1773 0.931 1_655 S
C1749 C1748 1.349 . S
C1749 C1765 1.349 . S
C1750 C1748 1.327 . S
C1750 C1769 1.429 . S
C1750 H1774 0.950 1_655 S
C1751 C1768 1.574 . S
C1751 C1770 1.368 1_545 S
C1751 H1775 0.949 . S
H1752 C1756 0.949 . S
C1753 C1754 1.349 . S
C1753 C1755 1.327 . S
C1753 H1776 0.931 1_455 S
C1754 C1753 1.349 . S
C1754 C1766 1.349 . S
C1755 C1753 1.327 . S
C1755 C1771 1.429 . S
C1755 H1777 0.950 1_455 S
C1756 H1752 0.949 . S
C1756 C1764 1.574 . S
C1756 C1772 1.368 1_565 S
H1757 C1765 0.950 . S
H1758 C1763 0.950 1_545 S
H1759 C1764 0.949 . S
H1760 C1766 0.950 . S
H1761 C1767 0.950 1_565 S
H1762 C1768 0.949 . S
C1763 H1758 0.950 1_565 S
C1763 C1765 1.327 . S
C1763 C1769 1.429 . S
C1764 C1756 1.574 . S
C1764 H1759 0.949 . S
C1764 C1770 1.368 1_455 S
C1765 C1749 1.349 . S
C1765 H1757 0.950 . S
C1765 C1763 1.327 . S
C1766 C1754 1.349 . S
C1766 H1760 0.950 . S
C1766 C1767 1.327 . S
C1767 H1761 0.950 1_545 S
C1767 C1766 1.327 . S
C1767 C1771 1.429 . S
C1768 C1751 1.574 . S
C1768 H1762 0.949 . S
C1768 C1772 1.368 1_655 S
C1769 C1750 1.429 . S
C1769 C1763 1.429 . S
C1769 C1770 1.523 . S
C1770 C1751 1.368 1_565 S
C1770 C1764 1.368 1_655 S
C1770 C1769 1.523 . S
C1771 C1755 1.429 . S
C1771 C1767 1.429 . S
C1771 C1772 1.523 . S
C1772 C1756 1.368 1_545 S
C1772 C1768 1.368 1_455 S
C1772 C1771 1.523 . S
H1773 C1748 0.931 1_455 S
H1774 C1750 0.950 1_455 S
H1775 C1751 0.949 . S
H1776 C1753 0.931 1_655 S
H1777 C1755 0.950 1_655 S
C1778 C1779 1.349 . S
C1778 C1780 1.327 . S
C1778 H1803 0.950 . S
C1779 C1778 1.349 . S
C1779 C1795 1.349 . S
C1780 C1778 1.327 . S
C1780 C1799 1.429 . S
C1780 H1804 0.950 1_545 S
C1781 C1798 1.574 . S
C1781 C1800 1.368 . S
C1781 H1805 0.949 . S
H1782 C1786 0.949 . S
C1783 C1784 1.349 . S
C1783 C1785 1.327 . S
C1783 H1806 0.950 . S
C1784 C1783 1.349 . S
C1784 C1796 1.349 . S
C1785 C1783 1.327 . S
C1785 C1801 1.429 . S
C1785 H1807 0.950 1_565 S
C1786 H1782 0.949 . S
C1786 C1794 1.563 1_554 S
C1786 C1802 1.368 . S
H1787 C1795 0.950 . S
H1788 C1793 0.950 . S
H1789 C1794 0.959 . S
H1790 C1796 0.950 . S
H1791 C1797 0.950 . S
H1792 C1798 0.949 . S
C1793 H1788 0.950 . S
C1793 C1795 1.327 . S
C1793 C1799 1.429 . S
C1794 C1786 1.563 1_556 S
C1794 H1789 0.959 . S
C1794 C1800 1.368 1_566 S
C1795 C1779 1.349 . S
C1795 H1787 0.950 . S
C1795 C1793 1.327 . S
C1796 C1784 1.349 . S
C1796 H1790 0.950 . S
C1796 C1797 1.327 . S
C1797 H1791 0.950 . S
C1797 C1796 1.327 . S
C1797 C1801 1.429 . S
C1798 C1781 1.574 . S
C1798 H1792 0.949 . S
C1798 C1802 1.368 1_545 S
C1799 C1780 1.429 . S
C1799 C1793 1.429 . S
C1799 C1800 1.523 1_556 S
C1800 C1781 1.368 . S
C1800 C1794 1.368 1_544 S
C1800 C1799 1.523 1_554 S
C1801 C1785 1.429 . S
C1801 C1797 1.429 . S
C1801 C1802 1.523 . S
C1802 C1786 1.368 . S
C1802 C1798 1.368 1_565 S
C1802 C1801 1.523 . S
H1803 C1778 0.950 . S
H1804 C1780 0.950 1_565 S
H1805 C1781 0.949 . S
H1806 C1783 0.950 . S
H1807 C1785 0.950 1_545 S
C369 C21 1.636 . S
C374 C224 1.600 . S
C399 C247 1.600 . S
C404 C44 1.636 . S
C429 C270 1.600 . S
C434 C67 1.637 . S
C459 C201 1.600 . S
C464 C90 1.636 . S
C489 C113 1.637 . S
C494 C316 1.600 . S
C519 C136 1.636 . S
C524 C339 1.600 . S
C549 C362 1.600 . S
C554 C159 1.636 . S
C579 C293 1.600 . S
C584 C182 1.636 . S
C609 C40 1.600 . S
C614 C205 1.637 . S
C639 C63 1.600 . S
C644 C228 1.636 1_565 S
C669 C86 1.600 . S
C674 C251 1.636 . S
C699 C274 1.636 1_545 S
C704 C17 1.600 . S
C729 C132 1.600 . S
C734 C297 1.636 . S
C759 C155 1.600 . S
C764 C320 1.636 1_545 S
C789 C178 1.600 . S
C794 C343 1.637 . S
C819 C109 1.600 . S
C824 C366 1.636 1_565 S
C849 C19 1.475 . S
C854 C363 1.495 . S
C879 C42 1.476 . S
C884 C110 1.495 . S
C909 C317 1.495 1_455 S
C914 C65 1.475 . S
C939 C156 1.495 . S
C944 C88 1.476 . S
C969 C111 1.475 . S
C974 C271 1.495 . S
C999 C18 1.495 . S
C1004 C134 1.476 . S
C1029 C157 1.475 . S
C1034 C225 1.495 1_655 S
C1059 C180 1.476 . S
C1064 C64 1.495 . S
C1089 C203 1.475 . S
C1094 C179 1.495 1_655 S
C1119 C294 1.495 . S
C1124 C226 1.476 . S
C1149 C249 1.475 . S
C1154 C133 1.495 . S
C1179 C340 1.495 . S
C1184 C272 1.476 . S
C1209 C295 1.475 . S
C1214 C87 1.495 1_455 S
C1239 C202 1.495 . S
C1244 C318 1.476 . S
C1269 C341 1.475 . S
C1274 C41 1.495 . S
C1299 C364 1.476 . S
C1304 C248 1.495 . S
C1329 C20 1.446 . S
C1334 C296 1.446 . S
C1359 C135 1.446 . S
C1364 C43 1.446 . S
C1389 C66 1.446 . S
C1394 C342 1.446 . S
C1419 C181 1.447 . S
C1424 C89 1.447 . S
C1449 C112 1.446 . S
C1454 C204 1.446 . S
C1479 C250 1.446 . S
C1484 C158 1.446 . S
C1509 C227 1.447 . S
C1514 C319 1.447 . S
C1539 C365 1.446 . S
C1544 C273 1.446 . S
C1569 C292 0.541 . S
C1574 C16 0.541 . S
C1599 C131 0.541 . S
C1604 C39 0.541 . S
C1629 C62 0.541 . S
C1634 C338 0.541 . S
C1659 C177 0.541 . S
C1664 C85 0.541 . S
C1689 C108 0.541 . S
C1694 C200 0.541 . S
C1719 C154 0.541 . S
C1724 C246 0.541 . S
C1749 C315 0.541 . S
C1754 C223 0.541 . S
C1779 C361 0.541 . S
C1784 C269 0.541 . S
