# Generated by pormake.
# Topology zni, (4)-cn, num edge types: 1
# Building blocks:
#     Node 0, Type 0, BuildingBlock: TATPOV_clean_sbu_0, # of connection points: 4
#     Node 1, Type 0, BuildingBlock: TATPOV_clean_sbu_0, # of connection points: 4
#     Node 2, Type 0, BuildingBlock: TATPOV_clean_sbu_0, # of connection points: 4
#     Node 3, Type 0, BuildingBlock: TATPOV_clean_sbu_0, # of connection points: 4
#     Node 4, Type 0, BuildingBlock: TATPOV_clean_sbu_0, # of connection points: 4
#     Node 5, Type 0, BuildingBlock: TATPOV_clean_sbu_0, # of connection points: 4
#     Node 6, Type 0, BuildingBlock: TATPOV_clean_sbu_0, # of connection points: 4
#     Node 7, Type 0, BuildingBlock: TATPOV_clean_sbu_0, # of connection points: 4
#     Node 8, Type 0, BuildingBlock: TATPOV_clean_sbu_0, # of connection points: 4
#     Node 9, Type 0, BuildingBlock: TATPOV_clean_sbu_0, # of connection points: 4
#     Node 10, Type 0, BuildingBlock: TATPOV_clean_sbu_0, # of connection points: 4
#     Node 11, Type 0, BuildingBlock: TATPOV_clean_sbu_0, # of connection points: 4
#     Node 12, Type 0, BuildingBlock: TATPOV_clean_sbu_0, # of connection points: 4
#     Node 13, Type 0, BuildingBlock: TATPOV_clean_sbu_0, # of connection points: 4
#     Node 14, Type 0, BuildingBlock: TATPOV_clean_sbu_0, # of connection points: 4
#     Node 15, Type 0, BuildingBlock: TATPOV_clean_sbu_0, # of connection points: 4
#     Node 16, Type 0, BuildingBlock: TATPOV_clean_sbu_0, # of connection points: 4
#     Node 17, Type 0, BuildingBlock: TATPOV_clean_sbu_0, # of connection points: 4
#     Node 18, Type 0, BuildingBlock: TATPOV_clean_sbu_0, # of connection points: 4
#     Node 19, Type 0, BuildingBlock: TATPOV_clean_sbu_0, # of connection points: 4
#     Node 20, Type 0, BuildingBlock: TATPOV_clean_sbu_0, # of connection points: 4
#     Node 21, Type 0, BuildingBlock: TATPOV_clean_sbu_0, # of connection points: 4
#     Node 22, Type 0, BuildingBlock: TATPOV_clean_sbu_0, # of connection points: 4
#     Node 23, Type 0, BuildingBlock: TATPOV_clean_sbu_0, # of connection points: 4
#     Node 24, Type 0, BuildingBlock: TATPOV_clean_sbu_0, # of connection points: 4
#     Node 25, Type 0, BuildingBlock: TATPOV_clean_sbu_0, # of connection points: 4
#     Node 26, Type 0, BuildingBlock: TATPOV_clean_sbu_0, # of connection points: 4
#     Node 27, Type 0, BuildingBlock: TATPOV_clean_sbu_0, # of connection points: 4
#     Node 28, Type 0, BuildingBlock: TATPOV_clean_sbu_0, # of connection points: 4
#     Node 29, Type 0, BuildingBlock: TATPOV_clean_sbu_0, # of connection points: 4
#     Node 30, Type 0, BuildingBlock: TATPOV_clean_sbu_0, # of connection points: 4
#     Node 31, Type 0, BuildingBlock: TATPOV_clean_sbu_0, # of connection points: 4
#     Edge 32, Type (0, 0), BuildingBlock: EZIPEK_clean_linker_0, # of connection points: 2
#     Edge 33, Type (0, 0), BuildingBlock: EZIPEK_clean_linker_0, # of connection points: 2
#     Edge 34, Type (0, 0), BuildingBlock: EZIPEK_clean_linker_0, # of connection points: 2
#     Edge 35, Type (0, 0), BuildingBlock: EZIPEK_clean_linker_0, # of connection points: 2
#     Edge 36, Type (0, 0), BuildingBlock: EZIPEK_clean_linker_0, # of connection points: 2
#     Edge 37, Type (0, 0), BuildingBlock: EZIPEK_clean_linker_0, # of connection points: 2
#     Edge 38, Type (0, 0), BuildingBlock: EZIPEK_clean_linker_0, # of connection points: 2
#     Edge 39, Type (0, 0), BuildingBlock: EZIPEK_clean_linker_0, # of connection points: 2
#     Edge 40, Type (0, 0), BuildingBlock: EZIPEK_clean_linker_0, # of connection points: 2
#     Edge 41, Type (0, 0), BuildingBlock: EZIPEK_clean_linker_0, # of connection points: 2
#     Edge 42, Type (0, 0), BuildingBlock: EZIPEK_clean_linker_0, # of connection points: 2
#     Edge 43, Type (0, 0), BuildingBlock: EZIPEK_clean_linker_0, # of connection points: 2
#     Edge 44, Type (0, 0), BuildingBlock: EZIPEK_clean_linker_0, # of connection points: 2
#     Edge 45, Type (0, 0), BuildingBlock: EZIPEK_clean_linker_0, # of connection points: 2
#     Edge 46, Type (0, 0), BuildingBlock: EZIPEK_clean_linker_0, # of connection points: 2
#     Edge 47, Type (0, 0), BuildingBlock: EZIPEK_clean_linker_0, # of connection points: 2
#     Edge 48, Type (0, 0), BuildingBlock: EZIPEK_clean_linker_0, # of connection points: 2
#     Edge 49, Type (0, 0), BuildingBlock: EZIPEK_clean_linker_0, # of connection points: 2
#     Edge 50, Type (0, 0), BuildingBlock: EZIPEK_clean_linker_0, # of connection points: 2
#     Edge 51, Type (0, 0), BuildingBlock: EZIPEK_clean_linker_0, # of connection points: 2
#     Edge 52, Type (0, 0), BuildingBlock: EZIPEK_clean_linker_0, # of connection points: 2
#     Edge 53, Type (0, 0), BuildingBlock: EZIPEK_clean_linker_0, # of connection points: 2
#     Edge 54, Type (0, 0), BuildingBlock: EZIPEK_clean_linker_0, # of connection points: 2
#     Edge 55, Type (0, 0), BuildingBlock: EZIPEK_clean_linker_0, # of connection points: 2
#     Edge 56, Type (0, 0), BuildingBlock: EZIPEK_clean_linker_0, # of connection points: 2
#     Edge 57, Type (0, 0), BuildingBlock: EZIPEK_clean_linker_0, # of connection points: 2
#     Edge 58, Type (0, 0), BuildingBlock: EZIPEK_clean_linker_0, # of connection points: 2
#     Edge 59, Type (0, 0), BuildingBlock: EZIPEK_clean_linker_0, # of connection points: 2
#     Edge 60, Type (0, 0), BuildingBlock: EZIPEK_clean_linker_0, # of connection points: 2
#     Edge 61, Type (0, 0), BuildingBlock: EZIPEK_clean_linker_0, # of connection points: 2
#     Edge 62, Type (0, 0), BuildingBlock: EZIPEK_clean_linker_0, # of connection points: 2
#     Edge 63, Type (0, 0), BuildingBlock: EZIPEK_clean_linker_0, # of connection points: 2
#     Edge 64, Type (0, 0), BuildingBlock: EZIPEK_clean_linker_0, # of connection points: 2
#     Edge 65, Type (0, 0), BuildingBlock: EZIPEK_clean_linker_0, # of connection points: 2
#     Edge 66, Type (0, 0), BuildingBlock: EZIPEK_clean_linker_0, # of connection points: 2
#     Edge 67, Type (0, 0), BuildingBlock: EZIPEK_clean_linker_0, # of connection points: 2
#     Edge 68, Type (0, 0), BuildingBlock: EZIPEK_clean_linker_0, # of connection points: 2
#     Edge 69, Type (0, 0), BuildingBlock: EZIPEK_clean_linker_0, # of connection points: 2
#     Edge 70, Type (0, 0), BuildingBlock: EZIPEK_clean_linker_0, # of connection points: 2
#     Edge 71, Type (0, 0), BuildingBlock: EZIPEK_clean_linker_0, # of connection points: 2
#     Edge 72, Type (0, 0), BuildingBlock: EZIPEK_clean_linker_0, # of connection points: 2
#     Edge 73, Type (0, 0), BuildingBlock: EZIPEK_clean_linker_0, # of connection points: 2
#     Edge 74, Type (0, 0), BuildingBlock: EZIPEK_clean_linker_0, # of connection points: 2
#     Edge 75, Type (0, 0), BuildingBlock: EZIPEK_clean_linker_0, # of connection points: 2
#     Edge 76, Type (0, 0), BuildingBlock: EZIPEK_clean_linker_0, # of connection points: 2
#     Edge 77, Type (0, 0), BuildingBlock: EZIPEK_clean_linker_0, # of connection points: 2
#     Edge 78, Type (0, 0), BuildingBlock: EZIPEK_clean_linker_0, # of connection points: 2
#     Edge 79, Type (0, 0), BuildingBlock: EZIPEK_clean_linker_0, # of connection points: 2
#     Edge 80, Type (0, 0), BuildingBlock: EZIPEK_clean_linker_0, # of connection points: 2
#     Edge 81, Type (0, 0), BuildingBlock: EZIPEK_clean_linker_0, # of connection points: 2
#     Edge 82, Type (0, 0), BuildingBlock: EZIPEK_clean_linker_0, # of connection points: 2
#     Edge 83, Type (0, 0), BuildingBlock: EZIPEK_clean_linker_0, # of connection points: 2
#     Edge 84, Type (0, 0), BuildingBlock: EZIPEK_clean_linker_0, # of connection points: 2
#     Edge 85, Type (0, 0), BuildingBlock: EZIPEK_clean_linker_0, # of connection points: 2
#     Edge 86, Type (0, 0), BuildingBlock: EZIPEK_clean_linker_0, # of connection points: 2
#     Edge 87, Type (0, 0), BuildingBlock: EZIPEK_clean_linker_0, # of connection points: 2
#     Edge 88, Type (0, 0), BuildingBlock: EZIPEK_clean_linker_0, # of connection points: 2
#     Edge 89, Type (0, 0), BuildingBlock: EZIPEK_clean_linker_0, # of connection points: 2
#     Edge 90, Type (0, 0), BuildingBlock: EZIPEK_clean_linker_0, # of connection points: 2
#     Edge 91, Type (0, 0), BuildingBlock: EZIPEK_clean_linker_0, # of connection points: 2
#     Edge 92, Type (0, 0), BuildingBlock: EZIPEK_clean_linker_0, # of connection points: 2
#     Edge 93, Type (0, 0), BuildingBlock: EZIPEK_clean_linker_0, # of connection points: 2
#     Edge 94, Type (0, 0), BuildingBlock: EZIPEK_clean_linker_0, # of connection points: 2
#     Edge 95, Type (0, 0), BuildingBlock: EZIPEK_clean_linker_0, # of connection points: 2
# Relax obj value: 0.193
# Max RMSD: 0.113
# Mean RMSD: 0.113
data_MOF--net-zni--node1-TATPOV_clean_sbu_0--edge1-EZIPEK_clean_linker_0
_symmetry_space_group_name_H-M    P1
_symmetry_Int_Tables_number       1
_symmetry_cell_setting            triclinic
loop_
_symmetry_equiv_pos_as_xyz
'x, y, z'
_cell_length_a     40.672356
_cell_length_b     40.688061
_cell_length_c     23.360608
_cell_angle_alpha  89.995478
_cell_angle_beta   89.972028
_cell_angle_gamma 89.984513
loop_
_atom_site_label
_atom_site_type_symbol
_atom_site_fract_x
_atom_site_fract_y
_atom_site_fract_z
_atom_type_partial_charge
Zn0 Zn 0.09919 0.13854 0.47942 0.0
Zn1 Zn 0.12 0.10262 0.39647 0.0
O2 O 0.14192 0.08063 0.46726 0.0
O3 O 0.12722 0.11501 0.53547 0.0
O4 O 0.13189 0.07099 0.333 0.0
O5 O 0.05182 0.12707 0.47112 0.0
O6 O 0.06843 0.10386 0.39109 0.0
C7 C 0.143 0.08994 0.51927 0.0
C8 C 0.13601 0.17564 0.3966 0.0
O9 O 0.14175 0.14727 0.37546 0.0
O10 O 0.11705 0.17839 0.43935 0.0
C11 C 0.16119 0.06251 0.321 0.0
O12 O 0.18592 0.07619 0.34821 0.0
C13 C 0.04517 0.11332 0.42404 0.0
Zn14 Zn 0.12205 0.85611 0.73713 0.0
Zn15 Zn 0.15983 0.87622 0.6535 0.0
O16 O 0.17965 0.90179 0.72152 0.0
O17 O 0.14476 0.88792 0.78946 0.0
O18 O 0.1905 0.88685 0.58776 0.0
O19 O 0.13677 0.80916 0.73234 0.0
O20 O 0.16495 0.82516 0.65789 0.0
C21 C 0.16938 0.90432 0.77274 0.0
C22 C 0.08523 0.88828 0.6496 0.0
O23 O 0.1138 0.89396 0.62915 0.0
O24 O 0.08218 0.87087 0.69418 0.0
C25 C 0.21062 0.91078 0.5876 0.0
O26 O 0.21078 0.93184 0.63018 0.0
C27 C 0.15619 0.80217 0.69186 0.0
Zn28 Zn 0.3986 0.87858 -0.00304 0.0
Zn29 Zn 0.38153 0.91396 0.91023 0.0
O30 O 0.35952 0.93886 0.97767 0.0
O31 O 0.36821 0.90371 0.04764 0.0
O32 O 0.37206 0.94402 0.84338 0.0
O33 O 0.44643 0.89013 0.9925 0.0
O34 O 0.43292 0.91154 0.90926 0.0
C35 C 0.35513 0.92984 0.02922 0.0
C36 C 0.3644 0.84102 0.91208 0.0
O37 O 0.35925 0.86938 0.89048 0.0
O38 O 0.38233 0.8383 0.95613 0.0
C39 C 0.34602 0.96125 0.84039 0.0
O40 O 0.32315 0.95821 0.87975 0.0
C41 C 0.45487 0.90258 0.94514 0.0
Zn42 Zn 0.37717 0.14686 0.24021 0.0
Zn43 Zn 0.34188 0.12247 0.15823 0.0
O44 O 0.32443 0.09555 0.22696 0.0
O45 O 0.35743 0.11438 0.29415 0.0
O46 O 0.31203 0.10812 0.09401 0.0
O47 O 0.35861 0.19216 0.23417 0.0
O48 O 0.33184 0.17292 0.16048 0.0
C49 C 0.3347 0.0952 0.27837 0.0
C50 C 0.41737 0.11752 0.15452 0.0
O51 O 0.38955 0.10922 0.13359 0.0
O52 O 0.41858 0.13517 0.19906 0.0
C53 C 0.30234 0.07889 0.08467 0.0
O54 O 0.31388 0.05456 0.1157 0.0
C55 C 0.33868 0.19696 0.19352 0.0
Zn56 Zn 0.12449 0.85906 0.01623 0.0
Zn57 Zn 0.13738 0.90212 0.09756 0.0
O58 O 0.16166 0.92127 0.02699 0.0
O59 O 0.15509 0.88206 0.96309 0.0
O60 O 0.14453 0.93757 0.15719 0.0
O61 O 0.07614 0.86921 0.01677 0.0
O62 O 0.08635 0.89932 0.0931 0.0
C63 C 0.16738 0.90934 0.97763 0.0
C64 C 0.15528 0.82967 0.11399 0.0
O65 O 0.15755 0.85939 0.13121 0.0
O66 O 0.14147 0.82309 0.06684 0.0
C67 C 0.17023 0.95535 0.15954 0.0
O68 O 0.19449 0.95034 0.12348 0.0
C69 C 0.06592 0.8861 0.0586 0.0
Zn70 Zn 0.39568 0.86195 0.24748 0.0
Zn71 Zn 0.35739 0.87707 0.3369 0.0
O72 O 0.34122 0.90964 0.275 0.0
O73 O 0.37392 0.89776 0.20269 0.0
O74 O 0.32641 0.88536 0.40334 0.0
O75 O 0.379 0.8153 0.24537 0.0
O76 O 0.34929 0.82754 0.32046 0.0
C77 C 0.35105 0.91486 0.22413 0.0
C78 C 0.43246 0.8832 0.34541 0.0
O79 O 0.40416 0.88654 0.36835 0.0
O80 O 0.43536 0.87264 0.29475 0.0
C81 C 0.30888 0.91109 0.40864 0.0
O82 O 0.31157 0.93511 0.37139 0.0
C83 C 0.35843 0.80655 0.28303 0.0
Zn84 Zn 0.39018 0.14825 0.50806 0.0
Zn85 Zn 0.3755 0.11256 0.5976 0.0
O86 O 0.35194 0.0884 0.53099 0.0
O87 O 0.36043 0.12182 0.45839 0.0
O88 O 0.36792 0.08144 0.66392 0.0
O89 O 0.43844 0.13886 0.5121 0.0
O90 O 0.42668 0.11559 0.59478 0.0
C91 C 0.34738 0.09621 0.47889 0.0
C92 C 0.35775 0.18522 0.59732 0.0
O93 O 0.35434 0.15712 0.62092 0.0
O94 O 0.37289 0.1876 0.55012 0.0
C95 C 0.34325 0.06225 0.66642 0.0
O96 O 0.3202 0.0639 0.62717 0.0
C97 C 0.4478 0.12579 0.55841 0.0
Zn98 Zn 0.11013 0.14312 0.77691 0.0
Zn99 Zn 0.153 0.1185 0.85188 0.0
O100 O 0.16829 0.09501 0.77844 0.0
O101 O 0.13394 0.11724 0.71641 0.0
O102 O 0.18633 0.10452 0.91123 0.0
O103 O 0.1218 0.18973 0.7959 0.0
O104 O 0.15941 0.16933 0.85324 0.0
C105 C 0.15749 0.09792 0.7276 0.0
C106 C 0.0784 0.10563 0.86384 0.0
O107 O 0.10779 0.10166 0.88195 0.0
O108 O 0.07292 0.12223 0.81908 0.0
C109 C 0.19968 0.07636 0.91535 0.0
O110 O 0.19151 0.05279 0.87972 0.0
C111 C 0.14492 0.19413 0.83125 0.0
Zn112 Zn 0.90331 0.87909 0.50243 0.0
Zn113 Zn 0.87919 0.91676 0.58422 0.0
O114 O 0.8579 0.93845 0.51414 0.0
O115 O 0.88041 0.90858 0.44589 0.0
O116 O 0.8649 0.94683 0.64771 0.0
O117 O 0.94994 0.88642 0.52608 0.0
O118 O 0.93021 0.92075 0.58988 0.0
C119 C 0.86184 0.93191 0.46145 0.0
C120 C 0.86344 0.84271 0.58101 0.0
O121 O 0.85993 0.87075 0.60479 0.0
O122 O 0.8804 0.84016 0.5358 0.0
C123 C 0.83607 0.95846 0.65318 0.0
O124 O 0.81252 0.94887 0.61854 0.0
C125 C 0.95475 0.90658 0.56639 0.0
Zn126 Zn 0.87679 0.15316 0.24832 0.0
Zn127 Zn 0.83847 0.13281 0.33179 0.0
O128 O 0.82021 0.10554 0.2646 0.0
O129 O 0.84834 0.12779 0.19387 0.0
O130 O 0.80852 0.12037 0.39688 0.0
O131 O 0.86799 0.2006 0.26754 0.0
O132 O 0.83017 0.1831 0.32712 0.0
C133 C 0.82652 0.10805 0.21149 0.0
C134 C 0.91359 0.12114 0.33449 0.0
O135 O 0.88568 0.12073 0.3596 0.0
O136 O 0.91621 0.13213 0.28409 0.0
C137 C 0.79903 0.09139 0.40874 0.0
O138 O 0.8105 0.06629 0.37954 0.0
C139 C 0.84534 0.20679 0.30309 0.0
Zn140 Zn 0.60414 0.14048 0.02583 0.0
Zn141 Zn 0.62568 0.09463 0.09854 0.0
O142 O 0.64703 0.07817 0.02417 0.0
O143 O 0.62715 0.11486 0.96382 0.0
O144 O 0.63884 0.06041 0.15643 0.0
O145 O 0.55692 0.13192 0.04631 0.0
O146 O 0.57458 0.09174 0.10122 0.0
C147 C 0.64436 0.08954 0.97371 0.0
C148 C 0.64471 0.16776 0.11325 0.0
O149 O 0.64609 0.13789 0.1299 0.0
O150 O 0.62863 0.17537 0.06886 0.0
C151 C 0.66795 0.04959 0.16268 0.0
O152 O 0.69195 0.06157 0.13136 0.0
C153 C 0.5509 0.10852 0.08039 0.0
Zn154 Zn 0.61904 0.86316 0.76379 0.0
Zn155 Zn 0.66069 0.88166 0.84517 0.0
O156 O 0.67691 0.90979 0.77737 0.0
O157 O 0.64476 0.89111 0.70873 0.0
O158 O 0.69349 0.89228 0.90707 0.0
O159 O 0.62907 0.81522 0.77826 0.0
O160 O 0.66763 0.83138 0.83756 0.0
C161 C 0.66781 0.90972 0.72531 0.0
C162 C 0.58599 0.89366 0.85693 0.0
O163 O 0.61482 0.89425 0.87867 0.0
O164 O 0.58143 0.88281 0.80688 0.0
C165 C 0.70494 0.92073 0.91738 0.0
O166 O 0.69373 0.94631 0.88914 0.0
C167 C 0.65207 0.80826 0.81267 0.0
Zn168 Zn 0.89878 0.13553 0.98214 0.0
Zn169 Zn 0.87736 0.10057 0.89635 0.0
O170 O 0.84736 0.08357 0.96113 0.0
O171 O 0.86392 0.11552 0.03158 0.0
O172 O 0.86464 0.07122 0.83062 0.0
O173 O 0.94397 0.11626 0.98097 0.0
O174 O 0.92733 0.08942 0.90533 0.0
C175 C 0.84514 0.09325 0.01271 0.0
C176 C 0.87334 0.17592 0.89225 0.0
O177 O 0.86579 0.1482 0.87023 0.0
O178 O 0.889 0.17697 0.93903 0.0
C179 C 0.83559 0.06076 0.82224 0.0
O180 O 0.81154 0.07027 0.85588 0.0
C181 C 0.95 0.09592 0.94144 0.0
Zn182 Zn 0.61951 0.16305 0.73221 0.0
Zn183 Zn 0.6557 0.13881 0.64781 0.0
O184 O 0.66903 0.10901 0.71567 0.0
O185 O 0.63793 0.12904 0.78467 0.0
O186 O 0.68618 0.12371 0.58485 0.0
O187 O 0.6402 0.20769 0.7265 0.0
O188 O 0.66841 0.1883 0.65434 0.0
C189 C 0.659 0.10848 0.76722 0.0
C190 C 0.58051 0.1382 0.63955 0.0
O191 O 0.60831 0.13072 0.61774 0.0
O192 O 0.57883 0.15281 0.68725 0.0
C193 C 0.6982 0.09494 0.58081 0.0
O194 O 0.68984 0.07214 0.61782 0.0
C195 C 0.66145 0.21216 0.68772 0.0
Zn196 Zn 0.61881 0.86618 0.48963 0.0
Zn197 Zn 0.63711 0.90158 0.40258 0.0
O198 O 0.66011 0.92507 0.47054 0.0
O199 O 0.64826 0.89141 0.54142 0.0
O200 O 0.64708 0.93224 0.33706 0.0
O201 O 0.57108 0.8772 0.48289 0.0
O202 O 0.58581 0.90028 0.40154 0.0
C203 C 0.6629 0.91663 0.52275 0.0
C204 C 0.65235 0.82851 0.403 0.0
O205 O 0.65754 0.85662 0.38049 0.0
O206 O 0.63563 0.82632 0.44856 0.0
C207 C 0.67482 0.94605 0.33004 0.0
O208 O 0.69916 0.93958 0.36518 0.0
C209 C 0.56341 0.89075 0.43609 0.0
Zn210 Zn 0.89483 0.86167 0.23566 0.0
Zn211 Zn 0.85749 0.87961 0.1477 0.0
O212 O 0.84318 0.91206 0.21102 0.0
O213 O 0.8756 0.8979 0.28239 0.0
O214 O 0.82568 0.89062 0.08405 0.0
O215 O 0.87561 0.81617 0.23773 0.0
O216 O 0.84689 0.83034 0.16254 0.0
C217 C 0.85342 0.91622 0.26188 0.0
C218 C 0.93258 0.88181 0.13776 0.0
O219 O 0.90452 0.8872 0.1151 0.0
O220 O 0.93479 0.87041 0.18798 0.0
C221 C 0.8127 0.91885 0.07771 0.0
O222 O 0.82139 0.94324 0.11125 0.0
C223 C 0.85474 0.80873 0.19978 0.0
Zn224 Zn 0.59918 0.64023 0.96237 0.0
Zn225 Zn 0.6244 0.60085 0.8851 0.0
O226 O 0.64742 0.58358 0.95766 0.0
O227 O 0.62389 0.6152 0.0225 0.0
O228 O 0.63904 0.56859 0.8249 0.0
O229 O 0.55266 0.62952 0.94298 0.0
O230 O 0.5735 0.59398 0.88236 0.0
C231 C 0.64363 0.59235 0.0095 0.0
C232 C 0.63748 0.67537 0.87992 0.0
O233 O 0.64194 0.6468 0.85853 0.0
O234 O 0.6202 0.67875 0.92458 0.0
C235 C 0.6684 0.56371 0.80834 0.0
O236 O 0.69243 0.5818 0.82877 0.0
C237 C 0.5485 0.60743 0.90567 0.0
Zn238 Zn 0.62664 0.34616 0.24008 0.0
Zn239 Zn 0.65989 0.36421 0.1477 0.0
O240 O 0.67779 0.39634 0.20898 0.0
O241 O 0.64841 0.38216 0.2843 0.0
O242 O 0.68741 0.37575 0.0788 0.0
O243 O 0.64581 0.30054 0.23805 0.0
O244 O 0.67115 0.31481 0.15931 0.0
C245 C 0.66985 0.40035 0.26118 0.0
C246 C 0.58449 0.3667 0.14861 0.0
O247 O 0.61156 0.37209 0.12256 0.0
O248 O 0.58435 0.35511 0.19885 0.0
C249 C 0.69694 0.40485 0.06793 0.0
O250 O 0.68704 0.42938 0.10017 0.0
C251 C 0.6648 0.29307 0.19716 0.0
Zn252 Zn 0.9024 0.37093 0.45721 0.0
Zn253 Zn 0.87818 0.41203 0.3819 0.0
O254 O 0.85555 0.42918 0.45472 0.0
O255 O 0.8781 0.39587 0.518 0.0
O256 O 0.86463 0.44536 0.32294 0.0
O257 O 0.94924 0.38077 0.43866 0.0
O258 O 0.92922 0.41786 0.38004 0.0
C259 C 0.85905 0.41949 0.50609 0.0
C260 C 0.86289 0.338 0.37416 0.0
O261 O 0.85918 0.36697 0.35401 0.0
O262 O 0.88038 0.33348 0.41822 0.0
C263 C 0.83534 0.45363 0.31078 0.0
O264 O 0.81045 0.43835 0.33477 0.0
C265 C 0.95391 0.40356 0.4028 0.0
Zn266 Zn 0.89253 0.66075 0.70897 0.0
Zn267 Zn 0.85025 0.63486 0.63464 0.0
O268 O 0.83428 0.61277 0.70865 0.0
O269 O 0.86798 0.63626 0.77032 0.0
O270 O 0.81829 0.61835 0.57548 0.0
O271 O 0.88007 0.70671 0.68675 0.0
O272 O 0.84227 0.68536 0.63089 0.0
C273 C 0.84444 0.61686 0.75961 0.0
C274 C 0.92524 0.62232 0.62514 0.0
O275 O 0.89599 0.61837 0.60642 0.0
O276 O 0.93048 0.63925 0.66959 0.0
C277 C 0.81193 0.58833 0.5652 0.0
O278 O 0.82778 0.56507 0.59275 0.0
C279 C 0.85657 0.71051 0.65192 0.0
Zn280 Zn 0.62171 0.36784 0.4978 0.0
Zn281 Zn 0.6363 0.41007 0.57845 0.0
O282 O 0.66035 0.4298 0.50816 0.0
O283 O 0.65271 0.39054 0.44468 0.0
O284 O 0.64465 0.44465 0.63833 0.0
O285 O 0.57365 0.37973 0.49853 0.0
O286 O 0.58518 0.40843 0.57578 0.0
C287 C 0.66551 0.41767 0.45877 0.0
C288 C 0.65333 0.33744 0.59398 0.0
O289 O 0.6567 0.36715 0.61055 0.0
O290 O 0.63814 0.33107 0.54801 0.0
C291 C 0.67316 0.45548 0.65017 0.0
O292 O 0.69907 0.44323 0.62425 0.0
C293 C 0.56412 0.39632 0.54122 0.0
Zn294 Zn 0.89879 0.36281 0.76263 0.0
Zn295 Zn 0.85476 0.38321 0.83999 0.0
O296 O 0.84105 0.40917 0.76812 0.0
O297 O 0.87451 0.38864 0.70303 0.0
O298 O 0.82022 0.395 0.89907 0.0
O299 O 0.88883 0.31535 0.7804 0.0
O300 O 0.84894 0.33268 0.83625 0.0
C301 C 0.85117 0.40763 0.71673 0.0
C302 C 0.92892 0.39569 0.85654 0.0
O303 O 0.89956 0.3967 0.87596 0.0
O304 O 0.93479 0.38399 0.80747 0.0
C305 C 0.79434 0.41159 0.88883 0.0
O306 O 0.7898 0.42473 0.83812 0.0
C307 C 0.8653 0.30913 0.81415 0.0
Zn308 Zn 0.90191 0.65386 0.02014 0.0
Zn309 Zn 0.88164 0.60902 0.09456 0.0
O310 O 0.85644 0.5949 0.0222 0.0
O311 O 0.87234 0.63331 0.96165 0.0
O312 O 0.86914 0.57341 0.15037 0.0
O313 O 0.94902 0.63934 0.02657 0.0
O314 O 0.9324 0.60344 0.08987 0.0
C315 C 0.85548 0.60798 0.97279 0.0
C316 C 0.8686 0.6826 0.1155 0.0
O317 O 0.8649 0.65266 0.13058 0.0
O318 O 0.88416 0.68971 0.07026 0.0
C319 C 0.8396 0.56572 0.16199 0.0
O320 O 0.8152 0.58207 0.13867 0.0
C321 C 0.95563 0.61587 0.06017 0.0
Zn322 Zn 0.61416 0.64824 0.27466 0.0
Zn323 Zn 0.65682 0.62106 0.34736 0.0
O324 O 0.66995 0.5976 0.27278 0.0
O325 O 0.63646 0.62249 0.21241 0.0
O326 O 0.69031 0.60547 0.40482 0.0
O327 O 0.62842 0.69394 0.29505 0.0
O328 O 0.66637 0.67115 0.3488 0.0
C329 C 0.65913 0.60194 0.22229 0.0
C330 C 0.58193 0.61191 0.36256 0.0
O331 O 0.61129 0.60689 0.37998 0.0
O332 O 0.57663 0.6283 0.31753 0.0
C333 C 0.70662 0.57884 0.40305 0.0
O334 O 0.7014 0.55752 0.36187 0.0
C335 C 0.65268 0.69681 0.32851 0.0
Zn336 Zn 0.39255 0.35225 0.01597 0.0
Zn337 Zn 0.37918 0.39441 0.10014 0.0
O338 O 0.35995 0.41788 0.0292 0.0
O339 O 0.36713 0.38066 0.96187 0.0
O340 O 0.37124 0.42755 0.1631 0.0
O341 O 0.44126 0.3585 0.02606 0.0
O342 O 0.42993 0.3892 0.10131 0.0
C343 C 0.35636 0.40837 0.97772 0.0
C344 C 0.35514 0.3229 0.10659 0.0
O345 O 0.35476 0.3522 0.12616 0.0
O346 O 0.37003 0.31647 0.06035 0.0
C347 C 0.346 0.44599 0.16441 0.0
O348 O 0.32294 0.44264 0.1255 0.0
C349 C 0.45079 0.37489 0.06898 0.0
Zn350 Zn 0.38003 0.6618 0.76278 0.0
Zn351 Zn 0.3419 0.63433 0.84023 0.0
O352 O 0.32242 0.61475 0.76638 0.0
O353 O 0.35287 0.64005 0.70195 0.0
O354 O 0.31128 0.61746 0.90157 0.0
O355 O 0.37085 0.70747 0.789 0.0
O356 O 0.33643 0.68517 0.8501 0.0
C357 C 0.32993 0.62032 0.71446 0.0
C358 C 0.41633 0.61998 0.83794 0.0
O359 O 0.3881 0.61517 0.86043 0.0
O360 O 0.41913 0.63881 0.79512 0.0
C361 C 0.29537 0.59061 0.89888 0.0
O362 O 0.29912 0.57097 0.85478 0.0
C363 C 0.34998 0.71068 0.82872 0.0
Zn364 Zn 0.10994 0.64086 0.51073 0.0
Zn365 Zn 0.12689 0.59963 0.59413 0.0
O366 O 0.15368 0.58112 0.52631 0.0
O367 O 0.14154 0.61723 0.45924 0.0
O368 O 0.13725 0.56793 0.65848 0.0
O369 O 0.06263 0.62642 0.51443 0.0
O370 O 0.07633 0.59406 0.58525 0.0
C371 C 0.15702 0.59193 0.47558 0.0
C372 C 0.13959 0.67449 0.60418 0.0
O373 O 0.14258 0.64531 0.62371 0.0
O374 O 0.12574 0.67948 0.55649 0.0
C375 C 0.16365 0.55122 0.66099 0.0
O376 O 0.18662 0.55529 0.6221 0.0
C377 C 0.05447 0.60493 0.55094 0.0
Zn378 Zn 0.12637 0.3584 0.25847 0.0
Zn379 Zn 0.16198 0.38268 0.34256 0.0
O380 O 0.18329 0.40644 0.27437 0.0
O381 O 0.15511 0.38382 0.20409 0.0
O382 O 0.19075 0.39629 0.40836 0.0
O383 O 0.13521 0.31162 0.27925 0.0
O384 O 0.16748 0.33167 0.34584 0.0
C385 C 0.17727 0.4033 0.22129 0.0
C386 C 0.08755 0.39595 0.33711 0.0
O387 O 0.11515 0.40029 0.36205 0.0
O388 O 0.08616 0.37914 0.2916 0.0
C389 C 0.20068 0.42531 0.41867 0.0
O390 O 0.19035 0.44994 0.38706 0.0
C391 C 0.15473 0.30696 0.32053 0.0
Zn392 Zn 0.40012 0.64895 0.46769 0.0
Zn393 Zn 0.38043 0.60501 0.39041 0.0
O394 O 0.35046 0.59315 0.45858 0.0
O395 O 0.36604 0.63076 0.52086 0.0
O396 O 0.37008 0.57066 0.33024 0.0
O397 O 0.44627 0.63124 0.46922 0.0
O398 O 0.43023 0.59629 0.40391 0.0
C399 C 0.34786 0.60675 0.50738 0.0
C400 C 0.37278 0.67953 0.36864 0.0
O401 O 0.368 0.64981 0.35312 0.0
O402 O 0.38711 0.68585 0.41541 0.0
C403 C 0.34671 0.54995 0.33329 0.0
O404 O 0.32591 0.55107 0.37626 0.0
C405 C 0.45274 0.60713 0.43693 0.0
Zn406 Zn 0.121 0.65026 0.23894 0.0
Zn407 Zn 0.16031 0.63045 0.15515 0.0
O408 O 0.17741 0.6015 0.22112 0.0
O409 O 0.14242 0.61616 0.28859 0.0
O410 O 0.18988 0.61834 0.08927 0.0
O411 O 0.13932 0.69623 0.23634 0.0
O412 O 0.17026 0.68022 0.16504 0.0
C413 C 0.16634 0.59873 0.27182 0.0
C414 C 0.08463 0.62408 0.146 0.0
O415 O 0.11344 0.61866 0.12641 0.0
O416 O 0.08083 0.63836 0.19363 0.0
C417 C 0.19801 0.5891 0.07631 0.0
O418 O 0.18585 0.56423 0.10524 0.0
C419 C 0.16137 0.70273 0.19982 0.0
Zn420 Zn 0.1136 0.36895 0.99289 0.0
Zn421 Zn 0.13247 0.40168 0.90457 0.0
O422 O 0.15931 0.42288 0.97071 0.0
O423 O 0.14741 0.38968 0.04215 0.0
O424 O 0.14226 0.43189 0.83771 0.0
O425 O 0.06736 0.38561 0.99328 0.0
O426 O 0.08111 0.40377 0.90792 0.0
C427 C 0.16346 0.41367 0.02225 0.0
C428 C 0.14151 0.32772 0.90509 0.0
O429 O 0.14922 0.35516 0.88216 0.0
O430 O 0.12463 0.32728 0.95066 0.0
C431 C 0.16744 0.4504 0.8351 0.0
O432 O 0.19023 0.44854 0.87475 0.0
C433 C 0.05915 0.39771 0.94558 0.0
Zn434 Zn 0.39834 0.36616 0.7183 0.0
Zn435 Zn 0.35703 0.3923 0.64282 0.0
O436 O 0.34598 0.41832 0.71635 0.0
O437 O 0.37791 0.39382 0.77949 0.0
O438 O 0.32415 0.40871 0.584 0.0
O439 O 0.3822 0.32053 0.70046 0.0
O440 O 0.3444 0.34293 0.64603 0.0
C441 C 0.35629 0.41507 0.76743 0.0
C442 C 0.43252 0.396 0.62632 0.0
O443 O 0.4035 0.40068 0.60695 0.0
O444 O 0.43687 0.38282 0.6747 0.0
C445 C 0.299 0.426 0.59611 0.0
O446 O 0.29461 0.43677 0.64852 0.0
C447 C 0.35758 0.31741 0.66781 0.0
C448 C 0.15352 0.04019 0.22182 0.0
C449 C 0.16701 0.03649 0.27749 0.0
C450 C 0.18883 0.98236 0.25038 0.0
C451 C 0.17103 0.98409 0.19838 0.0
N452 N 0.13529 0.01383 0.13431 0.0
N453 N 0.19436 1.00229 0.34754 0.0
C454 C 0.15307 0.01282 0.18396 0.0
C455 C 0.18425 0.00728 0.29239 0.0
N456 N 0.14235 0.07028 0.20439 0.0
N457 N 0.21009 0.95691 0.25969 0.0
H458 H 0.19068 0.0193 0.38026 0.0
H459 H 0.20386 0.98005 0.36215 0.0
H460 H 0.2132 0.93764 0.23073 0.0
H461 H 0.22673 0.95646 0.29355 0.0
H462 H 0.13531 0.07546 0.16251 0.0
H463 H 0.14318 0.09108 0.23046 0.0
H464 H 0.11856 0.03239 0.12467 0.0
H465 H 0.13583 0.99506 0.10389 0.0
C466 C 0.22613 0.91734 0.48436 0.0
C467 C 0.2359 0.91292 0.54211 0.0
C468 C 0.2938 0.91221 0.51267 0.0
C469 C 0.28382 0.9129 0.45455 0.0
N470 N 0.24031 0.9108 0.38431 0.0
N471 N 0.27857 0.90068 0.61082 0.0
C472 C 0.24992 0.9142 0.44009 0.0
C473 C 0.26964 0.90904 0.55629 0.0
N474 N 0.19427 0.92537 0.47196 0.0
N475 N 0.32632 0.9155 0.52629 0.0
H476 H 0.26172 0.89774 0.64408 0.0
H477 H 0.30235 0.89369 0.62196 0.0
H478 H 0.34471 0.9181 0.49546 0.0
H479 H 0.33475 0.91865 0.56802 0.0
H480 H 0.18639 0.93227 0.43129 0.0
H481 H 0.17623 0.92804 0.50338 0.0
H482 H 0.21589 0.90791 0.37191 0.0
H483 H 0.25687 0.90795 0.35058 0.0
C484 C 0.34379 1.0027 0.69464 0.0
C485 C 0.34195 0.03632 0.71084 0.0
C486 C 0.34362 0.02068 0.81211 0.0
C487 C 0.34315 0.98703 0.79595 0.0
N488 N 0.33668 0.94576 0.72286 0.0
N489 N 0.33372 0.07719 0.78407 0.0
C490 C 0.34142 0.97796 0.73745 0.0
C491 C 0.34 0.04528 0.76936 0.0
N492 N 0.34939 0.99442 0.63873 0.0
N493 N 0.34912 0.02923 0.8679 0.0
H494 H 0.33077 0.09587 0.75389 0.0
H495 H 0.32851 0.08461 0.82572 0.0
H496 H 0.352 0.01207 0.90068 0.0
H497 H 0.35379 0.05325 0.88093 0.0
H498 H 0.35466 0.97058 0.62536 0.0
H499 H 0.35164 0.01173 0.60605 0.0
H500 H 0.33173 0.93803 0.68127 0.0
H501 H 0.33479 0.927 0.75314 0.0
C502 C 0.22252 0.05577 0.00838 0.0
C503 C 0.22755 0.07196 0.95539 0.0
C504 C 0.28438 0.08456 0.98281 0.0
C505 C 0.27773 0.07292 0.03889 0.0
N506 N 0.23934 0.05016 0.10736 0.0
N507 N 0.26266 0.10227 0.8911 0.0
C508 C 0.24668 0.05869 0.05217 0.0
C509 C 0.25841 0.08638 0.94219 0.0
N510 N 0.1945 0.0379 0.01698 0.0
N511 N 0.31582 0.09305 0.96813 0.0
H512 H 0.24499 0.10219 0.85874 0.0
H513 H 0.28291 0.11695 0.88173 0.0
H514 H 0.33563 0.09067 -0.00381 0.0
H515 H 0.32296 0.0997 0.927 0.0
H516 H 0.19099 0.02251 0.05208 0.0
H517 H 0.17585 0.03626 0.98648 0.0
H518 H 0.21592 0.04326 0.1208 0.0
H519 H 0.2559 0.05246 0.14112 0.0
C520 C 0.83807 0.97569 0.75557 0.0
C521 C 0.82986 0.98339 0.69815 0.0
C522 C 0.81685 0.03998 0.72675 0.0
C523 C 0.83041 0.03352 0.78142 0.0
N524 N 0.85501 0.99578 0.84858 0.0
N525 N 0.81385 0.02364 0.62719 0.0
C526 C 0.84115 1.00145 0.79618 0.0
C527 C 0.81931 0.01562 0.68324 0.0
N528 N 0.84202 0.94358 0.77147 0.0
N529 N 0.80191 0.06947 0.71634 0.0
H530 H 0.81586 0.00684 0.59373 0.0
H531 H 0.8098 0.04759 0.61312 0.0
H532 H 0.80048 0.0881 0.74693 0.0
H533 H 0.78847 0.07433 0.67938 0.0
H534 H 0.84498 0.93604 0.81375 0.0
H535 H 0.83906 0.92407 0.74292 0.0
H536 H 0.86706 0.97403 0.85919 0.0
H537 H 0.856 0.0135 0.8808 0.0
C538 C 0.78241 0.09911 0.51073 0.0
C539 C 0.77491 0.08659 0.45562 0.0
C540 C 0.71969 0.0714 0.48895 0.0
C541 C 0.72548 0.08903 0.54024 0.0
N542 N 0.76193 0.12022 0.60094 0.0
N543 N 0.73561 0.06264 0.39015 0.0
C544 C 0.75682 0.1029 0.55157 0.0
C545 C 0.74351 0.07265 0.44431 0.0
N546 N 0.81427 0.1064 0.52447 0.0
N547 N 0.69136 0.0537 0.48279 0.0
H548 H 0.75202 0.06352 0.35594 0.0
H549 H 0.71199 0.05573 0.37795 0.0
H550 H 0.67304 0.05308 0.51404 0.0
H551 H 0.68733 0.03741 0.44916 0.0
H552 H 0.82192 0.11253 0.56563 0.0
H553 H 0.83371 0.10308 0.49587 0.0
H554 H 0.7828 0.1344 0.60838 0.0
H555 H 0.74453 0.12175 0.63367 0.0
C556 C 0.66468 0.00486 0.30473 0.0
C557 C 0.67751 0.97368 0.28924 0.0
C558 C 0.68705 0.99293 0.19124 0.0
C559 C 0.67451 0.0243 0.20691 0.0
N560 N 0.65974 0.06269 0.28118 0.0
N561 N 0.70774 0.93995 0.22293 0.0
C562 C 0.66582 0.03103 0.26455 0.0
C563 C 0.69108 0.9684 0.23414 0.0
N564 N 0.65076 0.00927 0.35749 0.0
N565 N 0.69323 0.98591 0.135 0.0
H566 H 0.71047 0.92126 0.25318 0.0
H567 H 0.72122 0.93606 0.18565 0.0
H568 H 0.69028 1.00299 0.10215 0.0
H569 H 0.69891 0.96246 0.12016 0.0
H570 H 0.63735 0.03009 0.36878 0.0
H571 H 0.65105 0.99128 0.38932 0.0
H572 H 0.65639 0.06972 0.32364 0.0
H573 H 0.66125 0.08258 0.25311 0.0
C574 C 0.76253 0.9376 0.94459 0.0
C575 C 0.73145 0.92441 0.96051 0.0
C576 C 0.75348 0.90884 0.05438 0.0
C577 C 0.78425 0.92271 0.03889 0.0
N578 N 0.81603 0.95699 0.97563 0.0
N579 N 0.69505 0.90529 0.03482 0.0
C580 C 0.78804 0.93944 0.98613 0.0
C581 C 0.72626 0.91229 0.01674 0.0
N582 N 0.76846 0.94634 0.889 0.0
N583 N 0.75036 0.89207 0.10484 0.0
H584 H 0.67442 0.90845 0.00885 0.0
H585 H 0.68914 0.89954 0.07702 0.0
H586 H 0.76901 0.89084 0.1354 0.0
H587 H 0.72987 0.87793 0.11522 0.0
H588 H 0.79167 0.95266 0.8737 0.0
H589 H 0.75088 0.94465 0.85671 0.0
H590 H 0.81848 0.97294 0.94105 0.0
H591 H 0.83573 0.95788 0.00417 0.0
C592 C 0.66353 0.51506 0.66966 0.0
C593 C 0.67645 0.48444 0.68808 0.0
C594 C 0.69165 0.50871 0.78059 0.0
C595 C 0.67479 0.53795 0.76484 0.0
N596 N 0.6449 0.56979 0.69506 0.0
N597 N 0.70213 0.451 0.7605 0.0
C598 C 0.66097 0.54141 0.70936 0.0
C599 C 0.69086 0.48108 0.74308 0.0
N600 N 0.65462 0.51912 0.61362 0.0
N601 N 0.70799 0.50722 0.83169 0.0
H602 H 0.70237 0.43042 0.73387 0.0
H603 H 0.70947 0.44569 0.80214 0.0
H604 H 0.70773 0.52624 0.86154 0.0
H605 H 0.72365 0.4881 0.84322 0.0
H606 H 0.64829 0.54165 0.59566 0.0
H607 H 0.65622 0.50033 0.58334 0.0
H608 H 0.63048 0.57243 0.65856 0.0
H609 H 0.64484 0.59062 0.72112 0.0
C610 C 0.77524 0.42714 0.98709 0.0
C611 C 0.76811 0.41342 0.93272 0.0
C612 C 0.71187 0.4014 0.96423 0.0
C613 C 0.72062 0.41049 0.02078 0.0
N614 N 0.76204 0.42841 0.08811 0.0
N615 N 0.73086 0.38347 0.87119 0.0
C616 C 0.7526 0.42272 0.0328 0.0
C617 C 0.73663 0.39974 0.92142 0.0
N618 N 0.8033 0.44508 0.99467 0.0
N619 N 0.67974 0.39501 0.95119 0.0
H620 H 0.7484 0.38094 0.83897 0.0
H621 H 0.70959 0.36992 0.86345 0.0
H622 H 0.66091 0.39632 0.98147 0.0
H623 H 0.67132 0.39164 0.9095 0.0
H624 H 0.80801 0.45871 0.03147 0.0
H625 H 0.82032 0.44906 0.96194 0.0
H626 H 0.78616 0.43378 0.09981 0.0
H627 H 0.74648 0.42507 0.12309 0.0
C628 C 0.81831 0.5117 0.28989 0.0
C629 C 0.83001 0.48089 0.26976 0.0
C630 C 0.8405 0.50479 0.175 0.0
C631 C 0.83305 0.53631 0.19748 0.0
N632 N 0.81616 0.57079 0.27591 0.0
N633 N 0.85112 0.44697 0.19362 0.0
C634 C 0.82171 0.54 0.25453 0.0
C635 C 0.84059 0.47708 0.21221 0.0
N636 N 0.80433 0.51398 0.34301 0.0
N637 N 0.84691 0.50145 0.11778 0.0
H638 H 0.84907 0.42572 0.21836 0.0
H639 H 0.86284 0.44296 0.15466 0.0
H640 H 0.8465 0.52123 0.08934 0.0
H641 H 0.8504 0.47903 0.09733 0.0
H642 H 0.79203 0.53477 0.3577 0.0
H643 H 0.80282 0.49424 0.3713 0.0
H644 H 0.81233 0.57564 0.3191 0.0
H645 H 0.81755 0.592 0.25095 0.0
C646 C 0.73424 0.55717 0.49113 0.0
C647 C 0.73593 0.57576 0.44 0.0
C648 C 0.79155 0.59379 0.46489 0.0
C649 C 0.78744 0.5802 0.52035 0.0
N650 N 0.7538 0.55058 0.58839 0.0
N651 N 0.76556 0.6125 0.37748 0.0
C652 C 0.75876 0.56176 0.53387 0.0
C653 C 0.76453 0.59411 0.42646 0.0
N654 N 0.70914 0.53532 0.49888 0.0
N655 N 0.82162 0.60554 0.44853 0.0
H656 H 0.74714 0.61177 0.34642 0.0
H657 H 0.78389 0.62967 0.36889 0.0
H658 H 0.84219 0.60472 0.47517 0.0
H659 H 0.82706 0.613 0.40696 0.0
H660 H 0.70859 0.51838 0.53229 0.0
H661 H 0.69047 0.53203 0.46879 0.0
H662 H 0.73172 0.54035 0.60227 0.0
H663 H 0.77082 0.55375 0.62124 0.0
C664 C 0.34336 0.46455 0.26659 0.0
C665 C 0.34381 0.4726 0.20755 0.0
C666 C 0.34081 0.53125 0.23149 0.0
C667 C 0.34438 0.52328 0.29027 0.0
N668 N 0.35499 0.48253 0.36322 0.0
N669 N 0.34819 0.51368 0.13326 0.0
C670 C 0.34707 0.48996 0.30782 0.0
C671 C 0.34378 0.50599 0.18973 0.0
N672 N 0.33856 0.43272 0.28333 0.0
N673 N 0.33373 0.56282 0.21566 0.0
H674 H 0.35083 0.49601 0.10126 0.0
H675 H 0.35213 0.53755 0.1187 0.0
H676 H 0.33084 0.58186 0.24515 0.0
H677 H 0.32779 0.5696 0.17395 0.0
H678 H 0.33449 0.42588 0.32572 0.0
H679 H 0.33551 0.41348 0.25428 0.0
H680 H 0.36067 0.45885 0.37696 0.0
H681 H 0.35885 0.50034 0.39458 0.0
C682 C 0.21236 0.59503 0.9729 0.0
C683 C 0.2211 0.5836 0.02819 0.0
C684 C 0.27574 0.56813 0.99253 0.0
C685 C 0.26872 0.58462 0.94058 0.0
N686 N 0.23091 0.61423 0.88008 0.0
N687 N 0.26135 0.56016 0.09232 0.0
C688 C 0.23704 0.59791 0.93014 0.0
C689 C 0.25269 0.56981 0.03833 0.0
N690 N 0.18025 0.60233 0.96108 0.0
N691 N 0.30441 0.55085 -0.00218 0.0
H692 H 0.24535 0.56117 0.12714 0.0
H693 H 0.28506 0.55311 0.10365 0.0
H694 H 0.32186 0.54963 0.96512 0.0
H695 H 0.30956 0.53541 0.03218 0.0
H696 H 0.17163 0.60775 0.9202 0.0
H697 H 0.16152 0.59988 0.99133 0.0
H698 H 0.20972 0.62795 0.87272 0.0
H699 H 0.2479 0.61557 0.84668 0.0
C700 C 0.1713 0.4673 0.73216 0.0
C701 C 0.16921 0.47632 0.79065 0.0
C702 C 0.1693 0.53465 0.76381 0.0
C703 C 0.16732 0.52549 0.70537 0.0
N704 N 0.1624 0.48318 0.6334 0.0
N705 N 0.16202 0.51832 0.86274 0.0
C706 C 0.16747 0.49182 0.68928 0.0
C707 C 0.16732 0.50996 0.80677 0.0
N708 N 0.17786 0.43542 0.71764 0.0
N709 N 0.17389 0.56691 0.77818 0.0
H710 H 0.16007 0.50107 0.89557 0.0
H711 H 0.15682 0.54217 0.87615 0.0
H712 H 0.17548 0.58563 0.74777 0.0
H713 H 0.17907 0.57476 0.81962 0.0
H714 H 0.18321 0.42795 0.67605 0.0
H715 H 0.18092 0.41684 0.74797 0.0
H716 H 0.15834 0.45909 0.62019 0.0
H717 H 0.15948 0.5003 0.60058 0.0
C718 C 0.2162 0.41846 0.52134 0.0
C719 C 0.22425 0.43061 0.46621 0.0
C720 C 0.27882 0.44663 0.50125 0.0
C721 C 0.27248 0.42975 0.55317 0.0
N722 N 0.23644 0.3956 0.61014 0.0
N723 N 0.26477 0.45302 0.4012 0.0
C724 C 0.2414 0.41483 0.56289 0.0
C725 C 0.25585 0.44424 0.45552 0.0
N726 N 0.18429 0.41086 0.5342 0.0
N727 N 0.30652 0.46539 0.49601 0.0
H728 H 0.24908 0.45116 0.36611 0.0
H729 H 0.28866 0.45957 0.39 0.0
H730 H 0.32385 0.46761 0.52872 0.0
H731 H 0.31064 0.48119 0.46167 0.0
H732 H 0.1764 0.40449 0.57513 0.0
H733 H 0.16506 0.41415 0.5052 0.0
H734 H 0.21559 0.38112 0.61591 0.0
H735 H 0.25432 0.39165 0.64134 0.0
C736 C 0.16173 0.23009 0.41464 0.0
C737 C 0.15162 0.2062 0.37415 0.0
C738 C 0.16061 0.24693 0.29869 0.0
C739 C 0.16053 0.27246 0.3403 0.0
N740 N 0.15798 0.28697 0.44151 0.0
N741 N 0.1407 0.19272 0.27485 0.0
C742 C 0.16102 0.26383 0.39943 0.0
C743 C 0.15147 0.21453 0.31511 0.0
N744 N 0.17156 0.22049 0.46797 0.0
N745 N 0.16957 0.25364 0.24358 0.0
H746 H 0.13343 0.16882 0.28419 0.0
H747 H 0.1367 0.19933 0.23231 0.0
H748 H 0.17789 0.27682 0.23101 0.0
H749 H 0.17248 0.23544 0.21258 0.0
H750 H 0.18165 0.23674 0.49767 0.0
H751 H 0.17322 0.19575 0.47956 0.0
H752 H 0.15468 0.28077 0.48444 0.0
H753 H 0.15547 0.31201 0.43427 0.0
C754 C 0.99689 0.91334 0.64657 0.0
C755 C 0.98914 0.91161 0.58718 0.0
C756 C 0.0473 0.90099 0.5654 0.0
C757 C 0.05478 0.90281 0.62466 0.0
N758 N 0.03923 0.92555 0.71603 0.0
N759 N 0.0096 0.91774 0.49069 0.0
C760 C 0.03038 0.91421 0.66321 0.0
C761 C 0.01529 0.91014 0.54675 0.0
N762 N 0.97309 0.91135 0.68776 0.0
N763 N 0.06953 0.88871 0.52716 0.0
H764 H 0.98681 0.92619 0.47636 0.0
H765 H 0.02835 0.91949 0.46039 0.0
H766 H 0.09309 0.88115 0.53837 0.0
H767 H 0.06351 0.88364 0.4847 0.0
H768 H 0.97864 0.90917 0.73116 0.0
H769 H 0.94819 0.90834 0.67947 0.0
H770 H 0.02255 0.93653 0.74405 0.0
H771 H 0.06379 0.92751 0.72859 0.0
C772 C 0.35111 0.80299 0.82818 0.0
C773 C 0.34992 0.81037 0.88763 0.0
C774 C 0.34116 0.75211 0.90953 0.0
C775 C 0.34284 0.74456 0.8501 0.0
N776 N 0.33478 0.76474 0.75404 0.0
N777 N 0.329 0.79406 0.9799 0.0
C778 C 0.34279 0.77074 0.80983 0.0
C779 C 0.33975 0.78557 0.92652 0.0
N780 N 0.36224 0.82548 0.78933 0.0
N781 N 0.3435 0.72814 0.95029 0.0
H782 H 0.32664 0.81855 0.99265 0.0
H783 H 0.31885 0.77713 0.00838 0.0
H784 H 0.34589 0.70324 0.94138 0.0
H785 H 0.34605 0.73343 0.99372 0.0
H786 H 0.36698 0.81949 0.74673 0.0
H787 H 0.36923 0.84929 0.79979 0.0
H788 H 0.33184 0.78339 0.72387 0.0
H789 H 0.32725 0.74158 0.73997 0.0
C790 C 0.47326 0.09441 0.16965 0.0
C791 C 0.44916 0.10568 0.13047 0.0
C792 C 0.49096 0.10469 0.05503 0.0
C793 C 0.51606 0.1022 0.09727 0.0
N794 N 0.5299 0.09874 0.19833 0.0
N795 N 0.43561 0.12292 0.03424 0.0
C796 C 0.50702 0.09749 0.15554 0.0
C797 C 0.45792 0.11066 0.07232 0.0
N798 N 0.46379 0.08107 0.22073 0.0
N799 N 0.49865 0.10092 -0.00151 0.0
H800 H 0.41121 0.12776 0.04473 0.0
H801 H 0.44204 0.13052 0.99313 0.0
H802 H 0.52234 0.09505 0.98469 0.0
H803 H 0.48093 0.09982 0.96632 0.0
H804 H 0.4803 0.07001 0.24892 0.0
H805 H 0.43909 0.07771 0.23147 0.0
H806 H 0.52352 0.09877 0.24156 0.0
H807 H 0.55476 0.10328 0.1917 0.0
C808 C 0.19311 0.74688 0.14589 0.0
C809 C 0.17274 0.73766 0.19242 0.0
C810 C 0.15354 0.79433 0.20245 0.0
C811 C 0.16781 0.80173 0.14847 0.0
N812 N 0.20622 0.78797 0.07372 0.0
N813 N 0.15274 0.75705 0.28332 0.0
C814 C 0.18972 0.779 0.12225 0.0
C815 C 0.15899 0.76285 0.22681 0.0
N816 N 0.21686 0.72573 0.12718 0.0
N817 N 0.13275 0.8161 0.22841 0.0
H818 H 0.1599 0.73523 0.30325 0.0
H819 H 0.14498 0.77523 0.31168 0.0
H820 H 0.1282 0.83962 0.21277 0.0
H821 H 0.11844 0.81002 0.26387 0.0
H822 H 0.23371 0.73121 0.09507 0.0
H823 H 0.22232 0.70405 0.14903 0.0
H824 H 0.21953 0.77175 0.04825 0.0
H825 H 0.20595 0.81205 0.05825 0.0
C826 C 0.51231 0.85927 0.41312 0.0
C827 C 0.52852 0.89012 0.41771 0.0
C828 C 0.47919 0.91795 0.38128 0.0
C829 C 0.46283 0.8872 0.37929 0.0
N830 N 0.46053 0.83016 0.40621 0.0
N831 N 0.52601 0.94929 0.416 0.0
C832 C 0.47834 0.85842 0.39981 0.0
C833 C 0.51152 0.91969 0.40474 0.0
N834 N 0.52979 0.83063 0.41742 0.0
N835 N 0.46418 0.94516 0.35911 0.0
H836 H 0.54961 0.95128 0.43311 0.0
H837 H 0.51382 0.97171 0.41264 0.0
H838 H 0.44003 0.94479 0.34402 0.0
H839 H 0.47605 0.96757 0.35312 0.0
H840 H 0.51987 0.80763 0.4082 0.0
H841 H 0.5551 0.82981 0.42431 0.0
H842 H 0.46965 0.80923 0.42639 0.0
H843 H 0.43552 0.82874 0.39649 0.0
C844 C 0.35206 0.22544 0.68057 0.0
C845 C 0.345 0.21622 0.62322 0.0
C846 C 0.33733 0.27394 0.59693 0.0
C847 C 0.34588 0.2835 0.65373 0.0
N848 N 0.34644 0.26762 0.75318 0.0
N849 N 0.31617 0.23026 0.53682 0.0
C850 C 0.34815 0.25891 0.69681 0.0
C851 C 0.33228 0.24011 0.58513 0.0
N852 N 0.36447 0.20324 0.7187 0.0
N853 N 0.33675 0.29604 0.55287 0.0
H854 H 0.31186 0.20546 0.52801 0.0
H855 H 0.30406 0.24658 0.50963 0.0
H856 H 0.34146 0.32098 0.5571 0.0
H857 H 0.33434 0.2889 0.51023 0.0
H858 H 0.37388 0.21009 0.75844 0.0
H859 H 0.36707 0.17833 0.71003 0.0
H860 H 0.34536 0.25048 0.78629 0.0
H861 H 0.34213 0.29181 0.76609 0.0
C862 C 0.04155 0.10119 0.95029 0.0
C863 C 0.04965 0.09118 0.89381 0.0
C864 C 0.99439 0.06749 0.88246 0.0
C865 C 0.98474 0.08416 0.93298 0.0
N866 N 1.0028 0.09644 0.02868 0.0
N867 N 0.03681 0.05882 0.81044 0.0
C868 C 0.00956 0.09449 0.97155 0.0
C869 C 0.02706 0.07189 0.86161 0.0
N870 N 0.06319 0.11927 0.98202 0.0
N871 N 0.97306 0.04612 0.85697 0.0
H872 H 0.06123 0.0596 0.79668 0.0
H873 H 0.02098 0.04771 0.78132 0.0
H874 H 0.95093 0.03941 0.87626 0.0
H875 H 0.97864 0.03207 0.82108 0.0
H876 H 0.05672 0.13071 0.02032 0.0
H877 H 0.08704 0.12456 0.96872 0.0
H878 H 0.02059 0.10144 0.05955 0.0
H879 H 0.98038 0.08849 0.0455 0.0
C880 C 0.84128 0.75423 0.57814 0.0
C881 C 0.84686 0.74472 0.63596 0.0
C882 C 0.85326 0.80265 0.66326 0.0
C883 C 0.84908 0.81189 0.60502 0.0
N884 N 0.82429 0.79817 0.51467 0.0
N885 N 0.84339 0.76082 0.7351 0.0
C886 C 0.83774 0.78814 0.56528 0.0
C887 C 0.84782 0.76934 0.67907 0.0
N888 N 0.84207 0.73181 0.53461 0.0
N889 N 0.86443 0.8246 0.70297 0.0
H890 H 0.83804 0.73676 0.74755 0.0
H891 H 0.84118 0.77806 0.76788 0.0
H892 H 0.86804 0.84943 0.69481 0.0
H893 H 0.87189 0.81756 0.74386 0.0
H894 H 0.84179 0.73863 0.49161 0.0
H895 H 0.84588 0.70678 0.54032 0.0
H896 H 0.81325 0.78201 0.48587 0.0
H897 H 0.82093 0.82302 0.50505 0.0
C898 C 0.95929 0.14454 0.39099 0.0
C899 C 0.94438 0.11631 0.36705 0.0
C900 C 0.99425 0.08427 0.38722 0.0
C901 C 0.01051 0.11367 0.40391 0.0
N902 N 0.0102 0.1731 0.40902 0.0
N903 N 0.9475 0.05963 0.33839 0.0
C904 C 0.99342 0.14416 0.40287 0.0
C905 C 0.96178 0.08615 0.36421 0.0
N906 N 0.94087 0.17199 0.40171 0.0
N907 N 0.00945 0.05464 0.39481 0.0
H908 H 0.92327 0.06003 0.32367 0.0
H909 H 0.96003 0.03796 0.32914 0.0
H910 H 0.03308 0.0525 0.41174 0.0
H911 H 0.99777 0.03216 0.3886 0.0
H912 H 0.94974 0.19211 0.42457 0.0
H913 H 0.91577 0.17337 0.39281 0.0
H914 H 0.99946 0.19606 0.40265 0.0
H915 H 0.03564 0.1744 0.41394 0.0
C916 C 0.66136 0.23325 0.2251 0.0
C917 C 0.67419 0.25768 0.18814 0.0
C918 C 0.68313 0.21575 0.1146 0.0
C919 C 0.66147 0.19456 0.14502 0.0
N920 N 0.63163 0.182 0.23202 0.0
N921 N 0.71335 0.2675 0.11316 0.0
C922 C 0.65186 0.20246 0.20184 0.0
C923 C 0.69025 0.2475 0.13734 0.0
N924 N 0.65957 0.23913 0.28252 0.0
N925 N 0.69587 0.20567 0.06337 0.0
H926 H 0.72143 0.28885 0.13354 0.0
H927 H 0.72703 0.26154 0.07701 0.0
H928 H 0.69286 0.1817 0.04825 0.0
H929 H 0.70904 0.22073 0.03566 0.0
H930 H 0.65268 0.22136 0.31229 0.0
H931 H 0.66943 0.2604 0.30068 0.0
H932 H 0.62062 0.18873 0.27055 0.0
H933 H 0.62422 0.15904 0.21722 0.0
C934 C 0.53864 0.92935 0.88708 0.0
C935 C 0.55642 0.89954 0.8923 0.0
C936 C 0.50799 0.87217 0.93167 0.0
C937 C 0.49021 0.90225 0.92874 0.0
N938 N 0.49053 0.961 0.91494 0.0
N939 N 0.56121 0.84548 0.93329 0.0
C940 C 0.50614 0.9314 0.90986 0.0
C941 C 0.54216 0.87206 0.91979 0.0
N942 N 0.55257 0.95531 0.85903 0.0
N943 N 0.49187 0.84314 0.94109 0.0
H944 H 0.58633 0.84446 0.92437 0.0
H945 H 0.55285 0.82602 0.95838 0.0
H946 H 0.46647 0.84137 0.94601 0.0
H947 H 0.50318 0.82025 0.9376 0.0
H948 H 0.53972 0.97649 0.84781 0.0
H949 H 0.57689 0.95491 0.84473 0.0
H950 H 0.5019 0.98344 0.9068 0.0
H951 H 0.46695 0.96331 0.93208 0.0
C952 C 0.86276 0.24885 0.79013 0.0
C953 C 0.8593 0.27431 0.83148 0.0
C954 C 0.85043 0.23213 0.90451 0.0
C955 C 0.86258 0.20773 0.86676 0.0
N956 N 0.88229 0.19365 0.77211 0.0
N957 N 0.85537 0.28871 0.93247 0.0
C958 C 0.86881 0.21606 0.80874 0.0
C959 C 0.85402 0.26571 0.88987 0.0
N960 N 0.85989 0.25592 0.7332 0.0
N961 N 0.83579 0.22321 0.95481 0.0
H962 H 0.86109 0.31332 0.92595 0.0
H963 H 0.85469 0.28245 0.97573 0.0
H964 H 0.83187 0.19866 0.96586 0.0
H965 H 0.82423 0.24009 0.98173 0.0
H966 H 0.85957 0.23786 0.70157 0.0
H967 H 0.85397 0.27938 0.71839 0.0
H968 H 0.89062 0.19986 0.73131 0.0
H969 H 0.88757 0.16952 0.78369 0.0
C970 C 0.53419 0.10166 0.60704 0.0
C971 C 0.54948 0.13299 0.60788 0.0
C972 C 0.49832 0.15908 0.57729 0.0
C973 C 0.48309 0.12768 0.57401 0.0
N974 N 0.48779 0.06865 0.57543 0.0
N975 N 0.54924 0.18988 0.57984 0.0
C976 C 0.50144 0.09876 0.58574 0.0
C977 C 0.53251 0.16112 0.58817 0.0
N978 N 0.55047 0.07504 0.62867 0.0
N979 N 0.47979 0.18711 0.57397 0.0
H980 H 0.57445 0.19205 0.58726 0.0
H981 H 0.53891 0.21041 0.56015 0.0
H982 H 0.45434 0.18704 0.56877 0.0
H983 H 0.48914 0.21045 0.58232 0.0
H984 H 0.53944 0.05229 0.63551 0.0
H985 H 0.5748 0.07625 0.64267 0.0
H986 H 0.50088 0.0467 0.57782 0.0
H987 H 0.4639 0.06581 0.55995 0.0
C988 C 0.66289 0.75555 0.30231 0.0
C989 C 0.66375 0.73052 0.3447 0.0
C990 C 0.67589 0.77283 0.41597 0.0
C991 C 0.66484 0.79736 0.3775 0.0
N992 N 0.64788 0.81165 0.28109 0.0
N993 N 0.66945 0.71657 0.44559 0.0
C994 C 0.65908 0.78888 0.31936 0.0
C995 C 0.67066 0.73926 0.40248 0.0
N996 N 0.66582 0.74742 0.24581 0.0
N997 N 0.69059 0.78183 0.46611 0.0
H998 H 0.66412 0.69184 0.43969 0.0
H999 H 0.67077 0.72305 0.48869 0.0
H1000 H 0.6951 0.80642 0.47623 0.0
H1001 H 0.70147 0.76496 0.49386 0.0
H1002 H 0.668 0.76489 0.2134 0.0
H1003 H 0.66996 0.7233 0.23237 0.0
H1004 H 0.63941 0.80536 0.24044 0.0
H1005 H 0.64516 0.83646 0.29048 0.0
C1006 C 0.97969 0.9153 0.09931 0.0
C1007 C 0.96334 0.88467 0.1044 0.0
C1008 C 0.0138 0.85549 0.07934 0.0
C1009 C 0.03022 0.88607 0.07202 0.0
N1010 N 0.02731 0.94507 0.0637 0.0
N1011 N 0.96173 0.82677 0.08409 0.0
C1012 C 0.01268 0.91606 0.0785 0.0
C1013 C 0.97942 0.85519 0.08895 0.0
N1014 N 0.96413 0.94338 0.11642 0.0
N1015 N 0.03129 0.82678 0.08164 0.0
H1016 H 0.93637 0.82589 0.09092 0.0
H1017 H 0.97151 0.80506 0.06762 0.0
H1018 H 0.05683 0.82566 0.0785 0.0
H1019 H 0.02086 0.80432 0.09294 0.0
H1020 H 0.97587 0.96601 0.1202 0.0
H1021 H 0.93961 0.9436 0.12962 0.0
H1022 H 0.01488 0.96744 0.06241 0.0
H1023 H 0.0513 0.94635 0.04801 0.0
C1024 C 0.65471 0.74885 0.783 0.0
C1025 C 0.65848 0.77294 0.82674 0.0
C1026 C 0.66627 0.72817 0.89545 0.0
C1027 C 0.65279 0.70561 0.85583 0.0
N1028 N 0.6342 0.69466 0.7594 0.0
N1029 N 0.66411 0.7839 0.92898 0.0
C1030 C 0.64762 0.71571 0.79842 0.0
C1031 C 0.66407 0.76231 0.88412 0.0
N1032 N 0.65818 0.75758 0.72689 0.0
N1033 N 0.68014 0.71686 0.9449 0.0
H1034 H 0.65972 0.80895 0.92532 0.0
H1035 H 0.66484 0.7762 0.97152 0.0
H1036 H 0.68225 0.69176 0.95363 0.0
H1037 H 0.69266 0.7321 0.97338 0.0
H1038 H 0.65818 0.74055 0.69357 0.0
H1039 H 0.66495 0.78129 0.71452 0.0
H1040 H 0.62632 0.70223 0.71905 0.0
H1041 H 0.62915 0.67011 0.76831 0.0
C1042 C 0.50065 0.34254 0.09631 0.0
C1043 C 0.48599 0.37361 0.08536 0.0
C1044 C 0.53775 0.40109 0.11083 0.0
C1045 C 0.55257 0.36987 0.11886 0.0
N1046 N 0.551 0.31123 0.10528 0.0
N1047 N 0.49179 0.43208 0.07197 0.0
C1048 C 0.53488 0.34073 0.10691 0.0
C1049 C 0.50491 0.40286 0.08959 0.0
N1050 N 0.48158 0.31492 0.1002 0.0
N1051 N 0.55462 0.42889 0.12545 0.0
H1052 H 0.4679 0.43414 0.05614 0.0
H1053 H 0.50532 0.45372 0.06868 0.0
H1054 H 0.57899 0.42839 0.13936 0.0
H1055 H 0.54398 0.45216 0.12692 0.0
H1056 H 0.49053 0.29232 0.11419 0.0
H1057 H 0.4561 0.31512 0.09527 0.0
H1058 H 0.54009 0.28955 0.09109 0.0
H1059 H 0.57623 0.30908 0.11249 0.0
C1060 C 0.83341 0.252 0.37625 0.0
C1061 C 0.83868 0.24187 0.3185 0.0
C1062 C 0.85054 0.29909 0.2916 0.0
C1063 C 0.84631 0.30863 0.3495 0.0
N1064 N 0.81918 0.29733 0.43877 0.0
N1065 N 0.83815 0.25827 0.21918 0.0
C1066 C 0.83239 0.28608 0.38872 0.0
C1067 C 0.84246 0.26634 0.27541 0.0
N1068 N 0.83243 0.22992 0.42034 0.0
N1069 N 0.86402 0.32024 0.25279 0.0
H1070 H 0.83067 0.23485 0.20642 0.0
H1071 H 0.83818 0.27564 0.18638 0.0
H1072 H 0.86974 0.34456 0.26228 0.0
H1073 H 0.87123 0.31294 0.2119 0.0
H1074 H 0.83225 0.23714 0.46316 0.0
H1075 H 0.83507 0.20469 0.41581 0.0
H1076 H 0.8063 0.28224 0.46705 0.0
H1077 H 0.81796 0.32239 0.44829 0.0
C1078 C 0.97494 0.58613 0.6279 0.0
C1079 C 0.95399 0.60733 0.59607 0.0
C1080 C 0.99518 0.60981 0.51988 0.0
C1081 C 0.01869 0.59643 0.55816 0.0
N1082 N 0.0261 0.55522 0.63092 0.0
N1083 N 0.94319 0.63806 0.50952 0.0
C1084 C 0.00719 0.57936 0.60714 0.0
C1085 C 0.9634 0.61804 0.54062 0.0
N1086 N 0.96419 0.57341 0.67873 0.0
N1087 N 1.00281 0.61298 0.46323 0.0
H1088 H 0.91954 0.64442 0.52258 0.0
H1089 H 0.95067 0.64998 0.47225 0.0
H1090 H 0.02479 0.60391 0.4464 0.0
H1091 H 0.98589 0.62022 0.43224 0.0
H1092 H 0.97931 0.56128 0.70779 0.0
H1093 H 0.93991 0.57587 0.6926 0.0
H1094 H 0.01864 0.54057 0.66502 0.0
H1095 H 0.04754 0.54677 0.61134 0.0
C1096 C 0.66204 0.27274 0.7103 0.0
C1097 C 0.67341 0.24648 0.6758 0.0
C1098 C 0.68666 0.28573 0.59973 0.0
C1099 C 0.66655 0.30944 0.62776 0.0
N1100 N 0.63608 0.32607 0.71211 0.0
N1101 N 0.71284 0.23187 0.60356 0.0
C1102 C 0.65533 0.30357 0.68448 0.0
C1103 C 0.69089 0.25408 0.62503 0.0
N1104 N 0.65899 0.26843 0.768 0.0
N1105 N 0.70082 0.29341 0.54836 0.0
H1106 H 0.71929 0.21067 0.62604 0.0
H1107 H 0.72747 0.23591 0.56773 0.0
H1108 H 0.70024 0.31716 0.53148 0.0
H1109 H 0.71272 0.27652 0.52212 0.0
H1110 H 0.65324 0.28745 0.79614 0.0
H1111 H 0.66674 0.24686 0.78811 0.0
H1112 H 0.62397 0.32099 0.75042 0.0
H1113 H 0.63031 0.34905 0.69532 0.0
C1114 C 0.01055 0.42954 0.90721 0.0
C1115 C 0.02366 0.40016 0.9309 0.0
C1116 C 0.96893 0.37501 0.92718 0.0
C1117 C 0.95757 0.40171 0.89395 0.0
N1118 N 0.96691 0.45454 0.85095 0.0
N1119 N 0.01609 0.34234 0.9527 0.0
C1120 C 0.97813 0.42923 0.884 0.0
C1121 C 1.00298 0.37231 0.939 0.0
N1122 N 0.02877 0.45774 0.9079 0.0
N1123 N 0.94737 0.35152 0.94557 0.0
H1124 H 0.04121 0.33803 0.95694 0.0
H1125 H 1.00238 0.32072 0.95317 0.0
H1126 H 0.92226 0.35246 0.93676 0.0
H1127 H 0.95385 0.3331 0.97446 0.0
H1128 H 0.01953 0.48056 0.89575 0.0
H1129 H 0.0523 0.45884 0.92557 0.0
H1130 H 0.98182 0.47357 0.83631 0.0
H1131 H 0.94269 0.45558 0.83621 0.0
C1132 C 0.82603 0.76345 0.14445 0.0
C1133 C 0.84451 0.77346 0.19272 0.0
C1134 C 0.86605 0.7177 0.20416 0.0
C1135 C 0.85401 0.71 0.14877 0.0
N1136 N 0.81737 0.72222 0.07059 0.0
N1137 N 0.86326 0.75506 0.28496 0.0
C1138 C 0.83181 0.73171 0.12076 0.0
C1139 C 0.85855 0.7489 0.22813 0.0
N1140 N 0.80195 0.78358 0.12374 0.0
N1141 N 0.88653 0.69644 0.23202 0.0
H1142 H 0.85477 0.77664 0.3041 0.0
H1143 H 0.87123 0.73734 0.314 0.0
H1144 H 0.8922 0.67313 0.21643 0.0
H1145 H 0.8993 0.70266 0.26911 0.0
H1146 H 0.78628 0.77741 0.09024 0.0
H1147 H 0.79511 0.80507 0.14501 0.0
H1148 H 0.80403 0.73791 0.04421 0.0
H1149 H 0.81942 0.69832 0.0547 0.0
C1150 C 0.54443 0.61295 0.44805 0.0
C1151 C 0.55299 0.59928 0.39419 0.0
C1152 C 0.49792 0.57494 0.3863 0.0
C1153 C 0.48765 0.59517 0.43233 0.0
N1154 N 0.5043 0.61502 0.52484 0.0
N1155 N 0.54037 0.56276 0.31613 0.0
C1156 C 0.51199 0.60838 0.46915 0.0
C1157 C 0.53059 0.57831 0.36511 0.0
N1158 N 0.56626 0.63236 0.47689 0.0
N1159 N 0.47728 0.55128 0.36571 0.0
H1160 H 0.56475 0.56304 0.30211 0.0
H1161 H 0.52441 0.55047 0.28869 0.0
H1162 H 0.45516 0.54554 0.38597 0.0
H1163 H 0.48374 0.53448 0.33408 0.0
H1164 H 0.55983 0.64642 0.51243 0.0
H1165 H 0.59047 0.6358 0.4636 0.0
H1166 H 0.52155 0.62238 0.55518 0.0
H1167 H 0.48147 0.60882 0.54219 0.0
C1168 C 0.31895 0.27321 0.10612 0.0
C1169 C 0.33925 0.2952 0.13754 0.0
C1170 C 0.33799 0.25701 0.2181 0.0
C1171 C 0.32798 0.23162 0.1805 0.0
N1172 N 0.29624 0.21814 0.09661 0.0
N1173 N 0.36731 0.30822 0.22635 0.0
C1174 C 0.31414 0.24054 0.12688 0.0
C1175 C 0.34781 0.28767 0.195 0.0
N1176 N 0.30405 0.28404 0.05718 0.0
N1177 N 0.33746 0.25189 0.27582 0.0
H1178 H 0.37564 0.33089 0.21173 0.0
H1179 H 0.37719 0.30156 0.26585 0.0
H1180 H 0.32788 0.23034 0.29347 0.0
H1181 H 0.34226 0.27039 0.30553 0.0
H1182 H 0.2876 0.27022 0.03309 0.0
H1183 H 0.30631 0.30827 0.043 0.0
H1184 H 0.28928 0.22117 0.0541 0.0
H1185 H 0.28699 0.19683 0.11545 0.0
C1186 C 0.45649 0.60615 0.91813 0.0
C1187 C 0.44692 0.60419 0.8598 0.0
C1188 C 0.50415 0.59514 0.83118 0.0
C1189 C 0.51408 0.59866 0.88931 0.0
N1190 N 0.49823 0.59252 0.98822 0.0
N1191 N 0.45932 0.58193 0.76688 0.0
C1192 C 0.48965 0.59902 0.93285 0.0
C1193 C 0.47007 0.59332 0.81857 0.0
N1194 N 0.43505 0.61686 0.95907 0.0
N1195 N 0.52641 0.59626 0.78738 0.0
H1196 H 0.43431 0.57986 0.75734 0.0
H1197 H 0.47491 0.5712 0.73677 0.0
H1198 H 0.55164 0.59845 0.79287 0.0
H1199 H 0.51939 0.5977 0.74455 0.0
H1200 H 0.44238 0.62256 0.00065 0.0
H1201 H 0.41042 0.62199 0.95118 0.0
H1202 H 0.48105 0.58991 0.02102 0.0
H1203 H 0.52216 0.58593 -0.00032 0.0
C1204 C 0.17554 0.72444 0.60724 0.0
C1205 C 0.15293 0.70329 0.63552 0.0
C1206 C 0.15066 0.74188 0.71548 0.0
C1207 C 0.16436 0.76664 0.67997 0.0
N1208 N 0.20202 0.77805 0.60278 0.0
N1209 N 0.11937 0.6915 0.71854 0.0
C1210 C 0.18082 0.75684 0.62901 0.0
C1211 C 0.14115 0.7115 0.69082 0.0
N1212 N 0.19233 0.71301 0.56054 0.0
N1213 N 0.14819 0.74688 0.77309 0.0
H1214 H 0.1115 0.66903 0.70219 0.0
H1215 H 0.10729 0.69847 0.75599 0.0
H1216 H 0.15839 0.76749 0.79286 0.0
H1217 H 0.14051 0.7287 0.80155 0.0
H1218 H 0.21021 0.7262 0.53856 0.0
H1219 H 0.18985 0.68893 0.54575 0.0
H1220 H 0.21161 0.77466 0.56194 0.0
H1221 H 0.21145 0.79861 0.62373 0.0
C1222 C 0.03286 0.42096 0.31873 0.0
C1223 C 0.05606 0.40966 0.35953 0.0
C1224 C 0.01259 0.41144 0.43188 0.0
C1225 C 0.98848 0.41249 0.38786 0.0
N1226 N 0.97695 0.41657 0.28591 0.0
N1227 N 0.06725 0.39383 0.45779 0.0
C1228 C 0.99878 0.4176 0.33031 0.0
C1229 C 0.04601 0.40549 0.41734 0.0
N1230 N 0.04355 0.43433 0.26845 0.0
N1231 N 1.00352 0.41631 0.48753 0.0
H1232 H 0.09202 0.38927 0.45025 0.0
H1233 H 0.05958 0.38663 0.49849 0.0
H1234 H 0.97942 0.42219 0.4991 0.0
H1235 H 0.02045 0.41841 0.52081 0.0
H1236 H 0.02775 0.44533 0.23899 0.0
H1237 H 0.06852 0.43773 0.25976 0.0
H1238 H 0.98438 0.41659 0.24319 0.0
H1239 H 0.95185 0.41267 0.29064 0.0
C1240 C 0.33605 0.72862 0.36053 0.0
C1241 C 0.35972 0.7075 0.33487 0.0
C1242 C 0.36623 0.74668 0.25623 0.0
C1243 C 0.3499 0.77076 0.28972 0.0
N1244 N 0.30451 0.77932 0.35378 0.0
N1245 N 0.39582 0.69499 0.25579 0.0
C1246 C 0.33009 0.76011 0.33602 0.0
C1247 C 0.37374 0.71569 0.28115 0.0
N1248 N 0.32023 0.71884 0.40929 0.0
N1249 N 0.3728 0.75282 0.19994 0.0
H1250 H 0.40149 0.67185 0.27219 0.0
H1251 H 0.40987 0.70157 0.2203 0.0
H1252 H 0.364 0.77382 0.17937 0.0
H1253 H 0.3826 0.73536 0.17214 0.0
H1254 H 0.30573 0.73428 0.43427 0.0
H1255 H 0.32234 0.69506 0.42568 0.0
H1256 H 0.28778 0.77252 0.38531 0.0
H1257 H 0.29769 0.80055 0.33168 0.0
C1258 C 0.01592 0.62105 0.0358 0.0
C1259 C 0.99099 0.60643 0.06979 0.0
C1260 C 0.03234 0.59158 0.14148 0.0
C1261 C 0.05491 0.61331 0.11437 0.0
N1262 N 0.06872 0.64831 0.03422 0.0
N1263 N 0.98049 0.56209 0.13553 0.0
C1264 C 0.04724 0.62726 0.06031 0.0
C1265 C 1.00057 0.58684 0.11713 0.0
N1266 N 0.01012 0.62716 0.97923 0.0
N1267 N 0.04115 0.57614 0.19116 0.0
H1268 H 0.95962 0.55501 0.11279 0.0
H1269 H 0.98662 0.54563 0.16789 0.0
H1270 H 0.06505 0.57687 0.20734 0.0
H1271 H 0.02471 0.5635 0.21727 0.0
H1272 H 0.02815 0.63539 0.95098 0.0
H1273 H 0.98853 0.61952 0.95911 0.0
H1274 H 0.06254 0.66231 -0.00153 0.0
H1275 H 0.09199 0.6536 0.05038 0.0
C1276 C 0.15833 0.23743 0.90655 0.0
C1277 C 0.15339 0.2285 0.84825 0.0
C1278 C 0.14725 0.28682 0.82299 0.0
C1279 C 0.15237 0.29552 0.88119 0.0
N1280 N 0.17658 0.28007 0.97138 0.0
N1281 N 0.15641 0.2458 0.74954 0.0
C1282 C 0.16279 0.27107 0.92044 0.0
C1283 C 0.15232 0.25363 0.80594 0.0
N1284 N 0.15605 0.21477 0.94956 0.0
N1285 N 0.13555 0.30926 0.78459 0.0
H1286 H 0.16167 0.22192 0.73601 0.0
H1287 H 0.15848 0.26348 0.71743 0.0
H1288 H 0.13101 0.33374 0.79465 0.0
H1289 H 0.12793 0.30281 0.7435 0.0
H1290 H 0.15616 0.22132 0.99271 0.0
H1291 H 0.15058 0.19009 0.94327 0.0
H1292 H 0.187 0.26317 -0.0004 0.0
H1293 H 0.18098 0.30462 0.98188 0.0
C1294 C 0.48048 0.4289 0.5898 0.0
C1295 C 0.46187 0.3995 0.58949 0.0
C1296 C 0.50958 0.36852 0.55622 0.0
C1297 C 0.52837 0.39803 0.55458 0.0
N1298 N 0.52946 0.45732 0.55677 0.0
N1299 N 0.45535 0.34395 0.55642 0.0
C1300 C 0.5131 0.42864 0.5673 0.0
C1301 C 0.47532 0.37032 0.56662 0.0
N1302 N 0.46735 0.45667 0.61337 0.0
N1303 N 0.52467 0.33851 0.55305 0.0
H1304 H 0.43007 0.34462 0.56412 0.0
H1305 H 0.46323 0.32294 0.5349 0.0
H1306 H 0.55005 0.33546 0.55031 0.0
H1307 H 0.51235 0.31641 0.5599 0.0
H1308 H 0.48088 0.47793 0.62111 0.0
H1309 H 0.44304 0.45773 0.62763 0.0
H1310 H 0.51861 0.48041 0.56049 0.0
H1311 H 0.55304 0.45794 0.53919 0.0
C1312 C 0.19029 0.0904 0.58369 0.0
C1313 C 0.16289 0.07286 0.56268 0.0
C1314 C 0.15062 0.05298 0.65856 0.0
C1315 C 0.17086 0.07837 0.67994 0.0
N1316 N 0.21754 0.11339 0.66768 0.0
N1317 N 0.12438 0.02906 0.57437 0.0
C1318 C 0.19408 0.09373 0.64389 0.0
C1319 C 0.14626 0.05037 0.59836 0.0
N1320 N 0.21036 0.10597 0.54559 0.0
N1321 N 0.13398 0.0336 0.69639 0.0
H1322 H 0.1216 0.02761 0.52997 0.0
H1323 H 0.10986 0.01271 0.59744 0.0
H1324 H 0.13742 0.03611 0.74051 0.0
H1325 H 0.11836 0.01453 0.68467 0.0
H1326 H 0.23077 0.1199 0.55697 0.0
H1327 H 0.2068 0.10342 0.5015 0.0
H1328 H 0.23469 0.12683 0.64438 0.0
H1329 H 0.21998 0.11539 0.71207 0.0
C1330 C 0.16772 0.9495 0.84225 0.0
C1331 C 0.1865 0.92462 0.81558 0.0
C1332 C 0.21163 0.91034 0.90647 0.0
C1333 C 0.18584 0.92761 0.93362 0.0
N1334 N 0.1503 0.97447 0.93227 0.0
N1335 N 0.23566 0.89237 0.81599 0.0
C1336 C 0.16823 0.95171 0.90294 0.0
C1337 C 0.21244 0.90949 0.8457 0.0
N1338 N 0.14742 0.96837 0.80941 0.0
N1339 N 0.23268 0.89233 0.9393 0.0
H1340 H 0.2356 0.8919 0.77129 0.0
H1341 H 0.25563 0.8806 0.83482 0.0
H1342 H 0.23127 0.89306 0.98395 0.0
H1343 H 0.25114 0.87727 0.92307 0.0
H1344 H 0.13108 0.9857 0.82564 0.0
H1345 H 0.1475 0.96631 0.76481 0.0
H1346 H 0.13692 0.99322 0.91295 0.0
H1347 H 0.15093 0.97552 0.97693 0.0
C1348 C 0.30893 0.93462 0.09481 0.0
C1349 C 0.33675 0.94997 0.07064 0.0
C1350 C 0.35696 0.96424 0.16493 0.0
C1351 C 0.33573 0.93989 0.18719 0.0
N1352 N 0.28324 0.91354 0.18188 0.0
N1353 N 0.37637 0.99284 0.07949 0.0
C1354 C 0.30813 0.92986 0.15509 0.0
C1355 C 0.35634 0.97042 0.10514 0.0
N1356 N 0.28587 0.92166 0.05909 0.0
N1357 N 0.37972 0.97818 0.20016 0.0
H1358 H 0.37603 0.99597 0.03508 0.0
H1359 H 0.39126 0.00924 0.10176 0.0
H1360 H 0.38002 0.97288 0.24393 0.0
H1361 H 0.3978 0.99449 0.18651 0.0
H1362 H 0.2655 0.90834 0.07275 0.0
H1363 H 0.28759 0.92506 0.01482 0.0
H1364 H 0.26213 0.90521 0.16135 0.0
H1365 H 0.2834 0.91013 0.22621 0.0
C1366 C 0.34549 0.05162 0.40839 0.0
C1367 C 0.32799 0.07554 0.43971 0.0
C1368 C 0.29507 0.08842 0.35566 0.0
C1369 C 0.32008 0.07392 0.32247 0.0
N1370 N 0.36092 0.03217 0.31329 0.0
N1371 N 0.27934 0.10791 0.45053 0.0
C1372 C 0.34175 0.05112 0.34793 0.0
C1373 C 0.29958 0.09008 0.41589 0.0
N1374 N 0.36737 0.03194 0.4363 0.0
N1375 N 0.26924 0.103 0.32857 0.0
H1376 H 0.28328 0.10886 0.49471 0.0
H1377 H 0.25906 0.12114 0.4362 0.0
H1378 H 0.26695 0.10188 0.28406 0.0
H1379 H 0.24973 0.1143 0.34962 0.0
H1380 H 0.38139 0.01383 0.41651 0.0
H1381 H 0.3699 0.03303 0.48077 0.0
H1382 H 0.37894 0.01608 0.32789 0.0
H1383 H 0.35796 0.03281 0.26886 0.0
C1384 C 0.86163 0.96511 0.32061 0.0
C1385 C 0.83934 0.94138 0.29985 0.0
C1386 C 0.81558 0.9351 0.39459 0.0
C1387 C 0.84425 0.95007 0.41648 0.0
N1388 N 0.88622 0.99054 0.40495 0.0
N1389 N 0.78682 0.91567 0.30932 0.0
C1390 C 0.86381 0.96992 0.38065 0.0
C1391 C 0.81275 0.93127 0.33433 0.0
N1392 N 0.88269 0.97977 0.28304 0.0
N1393 N 0.79337 0.92199 0.43188 0.0
H1394 H 0.78561 0.91284 0.26491 0.0
H1395 H 0.76624 0.90736 0.33145 0.0
H1396 H 0.79604 0.92507 0.47605 0.0
H1397 H 0.77259 0.90887 0.41958 0.0
H1398 H 0.90092 0.99639 0.29467 0.0
H1399 H 0.88105 0.97509 0.23914 0.0
H1400 H 0.90191 0.00579 0.38193 0.0
H1401 H 0.88766 0.99306 0.44941 0.0
C1402 C 0.79547 0.10063 0.07031 0.0
C1403 C 0.82092 0.07932 0.05268 0.0
C1404 C 0.82757 0.05937 0.15002 0.0
C1405 C 0.8101 0.08743 0.16842 0.0
N1406 N 0.76644 0.12533 0.15102 0.0
N1407 N 0.85054 0.02947 0.06862 0.0
C1408 C 0.78938 0.10415 0.12983 0.0
C1409 C 0.83257 0.05487 0.09031 0.0
N1410 N 0.78018 0.11963 0.03031 0.0
N1411 N 0.84185 0.03958 0.18997 0.0
H1412 H 0.8542 0.02707 0.02453 0.0
H1413 H 0.86003 0.01033 0.0931 0.0
H1414 H 0.83792 0.04342 0.23367 0.0
H1415 H 0.85683 0.01963 0.18022 0.0
H1416 H 0.76265 0.13746 0.03971 0.0
H1417 H 0.78539 0.11682 0.98677 0.0
H1418 H 0.75002 0.13858 0.12583 0.0
H1419 H 0.76308 0.12794 0.19515 0.0
C1420 C 0.64846 0.06029 0.82704 0.0
C1421 C 0.6712 0.08433 0.80893 0.0
C1422 C 0.69085 0.0914 0.90633 0.0
C1423 C 0.6622 0.07493 0.92515 0.0
N1424 N 0.62068 0.03447 0.908 0.0
N1425 N 0.7224 0.11149 0.82459 0.0
C1426 C 0.64389 0.05537 0.88674 0.0
C1427 C 0.69588 0.09534 0.84656 0.0
N1428 N 0.62971 0.04482 0.78687 0.0
N1429 N 0.71096 0.10572 0.9458 0.0
H1430 H 0.72523 0.11446 0.78042 0.0
H1431 H 0.7421 0.11984 0.84896 0.0
H1432 H 0.70729 0.10226 0.98967 0.0
H1433 H 0.73079 0.12073 0.9355 0.0
H1434 H 0.61161 0.02756 0.7961 0.0
H1435 H 0.63347 0.04906 0.74322 0.0
H1436 H 0.6056 0.0197 0.88293 0.0
H1437 H 0.61768 0.03129 0.95208 0.0
C1438 C 0.66354 0.95877 0.59685 0.0
C1439 C 0.68185 0.93609 0.56431 0.0
C1440 C 0.7096 0.91674 0.65014 0.0
C1441 C 0.68364 0.93076 0.68201 0.0
N1442 N 0.64387 0.97369 0.69207 0.0
N1443 N 0.73102 0.90464 0.55473 0.0
C1444 C 0.66396 0.95565 0.65743 0.0
C1445 C 0.70876 0.91973 0.58954 0.0
N1446 N 0.64388 0.9807 0.56907 0.0
N1447 N 0.73276 0.89847 0.67782 0.0
H1448 H 0.72926 0.90677 0.51024 0.0
H1449 H 0.75125 0.8914 0.56922 0.0
H1450 H 0.73286 0.89658 0.72242 0.0
H1451 H 0.75206 0.88639 0.65751 0.0
H1452 H 0.62932 0.99815 0.58951 0.0
H1453 H 0.64376 0.98201 0.52439 0.0
H1454 H 0.6274 0.99136 0.67748 0.0
H1455 H 0.6446 0.97092 0.73653 0.0
C1456 C 0.69003 0.59537 0.07661 0.0
C1457 C 0.6627 0.57742 0.05628 0.0
C1458 C 0.65122 0.55757 0.15256 0.0
C1459 C 0.67167 0.58289 0.17341 0.0
N1460 N 0.71783 0.61845 0.15997 0.0
N1461 N 0.62374 0.53404 0.06935 0.0
C1462 C 0.69432 0.59861 0.13672 0.0
C1463 C 0.64611 0.55517 0.09256 0.0
N1464 N 0.7099 0.61095 0.03814 0.0
N1465 N 0.63522 0.53789 0.19079 0.0
H1466 H 0.62053 0.53239 0.02506 0.0
H1467 H 0.60903 0.51814 0.09298 0.0
H1468 H 0.6392 0.54021 0.2348 0.0
H1469 H 0.61976 0.51861 0.17944 0.0
H1470 H 0.73043 0.6248 0.04914 0.0
H1471 H 0.70628 0.60836 0.99409 0.0
H1472 H 0.73447 0.6323 0.1363 0.0
H1473 H 0.72078 0.62028 0.20429 0.0
C1474 C 0.71133 0.41834 0.39128 0.0
C1475 C 0.68417 0.43538 0.4144 0.0
C1476 C 0.66587 0.45038 0.31902 0.0
C1477 C 0.68608 0.42492 0.29781 0.0
N1478 N 0.73671 0.39545 0.30535 0.0
N1479 N 0.64596 0.47951 0.4036 0.0
C1480 C 0.7126 0.41342 0.3311 0.0
C1481 C 0.66563 0.45638 0.37895 0.0
N1482 N 0.73327 0.4042 0.42784 0.0
N1483 N 0.64492 0.46588 0.28234 0.0
H1484 H 0.64588 0.48296 0.44792 0.0
H1485 H 0.63163 0.49611 0.38069 0.0
H1486 H 0.6455 0.46088 0.23846 0.0
H1487 H 0.62766 0.48335 0.29478 0.0
H1488 H 0.75298 0.38967 0.41499 0.0
H1489 H 0.73136 0.40787 0.47201 0.0
H1490 H 0.75698 0.38579 0.32666 0.0
H1491 H 0.73674 0.39182 0.26107 0.0
C1492 C 0.81211 0.41243 0.637 0.0
C1493 C 0.83632 0.42763 0.67111 0.0
C1494 C 0.85759 0.45703 0.58826 0.0
C1495 C 0.84056 0.43433 0.5536 0.0
N1496 N 0.79457 0.39855 0.54015 0.0
N1497 N 0.87372 0.47221 0.68532 0.0
C1498 C 0.81453 0.41552 0.57658 0.0
C1499 C 0.85562 0.45343 0.64864 0.0
N1500 N 0.78882 0.39336 0.66276 0.0
N1501 N 0.87736 0.4798 0.56277 0.0
H1502 H 0.87181 0.46918 0.72962 0.0
H1503 H 0.88949 0.49096 0.67262 0.0
H1504 H 0.87849 0.48189 0.51822 0.0
H1505 H 0.89128 0.49709 0.58483 0.0
H1506 H 0.77015 0.38116 0.64103 0.0
H1507 H 0.78759 0.39136 0.7073 0.0
H1508 H 0.77591 0.38275 0.55313 0.0
H1509 H 0.79682 0.40114 0.49582 0.0
C1510 C 0.81045 0.61327 0.90356 0.0
C1511 C 0.83609 0.59368 0.9258 0.0
C1512 C 0.84809 0.57248 0.8306 0.0
C1513 C 0.82985 0.59905 0.80817 0.0
N1514 N 0.78609 0.6379 0.81839 0.0
N1515 N 0.87162 0.5471 0.91587 0.0
C1516 C 0.80761 0.61649 0.84323 0.0
C1517 C 0.85162 0.56992 0.89097 0.0
N1518 N 0.79088 0.63023 0.94068 0.0
N1519 N 0.86364 0.55166 0.79362 0.0
H1520 H 0.87364 0.54525 0.96031 0.0
H1521 H 0.88534 0.52981 0.89341 0.0
H1522 H 0.86077 0.55403 0.74936 0.0
H1523 H 0.87776 0.5316 0.80611 0.0
H1524 H 0.77139 0.64518 0.92834 0.0
H1525 H 0.79358 0.62761 0.98494 0.0
H1526 H 0.77014 0.65312 0.84095 0.0
H1527 H 0.78413 0.63974 0.77391 0.0
C1528 C 0.36373 0.45421 0.84644 0.0
C1529 C 0.34206 0.43386 0.81527 0.0
C1530 C 0.31472 0.41709 0.90305 0.0
C1531 C 0.34191 0.42977 0.93348 0.0
N1532 N 0.38347 0.47123 0.94047 0.0
N1533 N 0.28942 0.40779 0.80979 0.0
C1534 C 0.36297 0.45284 0.90722 0.0
C1535 C 0.31433 0.42006 0.84247 0.0
N1536 N 0.38655 0.47219 0.81728 0.0
N1537 N 0.29135 0.39985 0.93223 0.0
H1538 H 0.28971 0.41001 0.76526 0.0
H1539 H 0.26801 0.39753 0.82634 0.0
H1540 H 0.29206 0.3981 0.97685 0.0
H1541 H 0.27169 0.38775 0.91311 0.0
H1542 H 0.40493 0.48609 0.83657 0.0
H1543 H 0.38649 0.47304 0.77256 0.0
H1544 H 0.39951 0.48894 0.9246 0.0
H1545 H 0.38253 0.46996 0.98508 0.0
C1546 C 0.32997 0.57382 0.64722 0.0
C1547 C 0.31413 0.6026 0.66696 0.0
C1548 C 0.30063 0.6184 0.56948 0.0
C1549 C 0.32414 0.59525 0.55058 0.0
N1550 N 0.35017 0.54314 0.56457 0.0
N1551 N 0.27374 0.64425 0.65131 0.0
C1552 C 0.33438 0.56968 0.58727 0.0
C1553 C 0.29497 0.62162 0.62917 0.0
N1554 N 0.34316 0.55261 0.68618 0.0
N1555 N 0.28661 0.63899 0.5304 0.0
H1556 H 0.27039 0.64641 0.69551 0.0
H1557 H 0.25854 0.65923 0.62679 0.0
H1558 H 0.2913 0.63636 0.48666 0.0
H1559 H 0.27052 0.65798 0.54066 0.0
H1560 H 0.35718 0.53212 0.67556 0.0
H1561 H 0.33941 0.55582 0.73007 0.0
H1562 H 0.35822 0.52308 0.58837 0.0
H1563 H 0.35321 0.5406 0.52039 0.0
C1564 C 0.16098 0.55045 0.3998 0.0
C1565 C 0.17713 0.57467 0.43261 0.0
C1566 C 0.20694 0.59295 0.34803 0.0
C1567 C 0.18238 0.5777 0.31482 0.0
N1568 N 0.14378 0.53394 0.30401 0.0
N1569 N 0.22239 0.61162 0.44337 0.0
C1570 C 0.1628 0.55272 0.33918 0.0
C1571 C 0.20345 0.59258 0.4085 0.0
N1572 N 0.14212 0.52756 0.42691 0.0
N1573 N 0.23146 0.60978 0.32115 0.0
H1574 H 0.21957 0.61088 0.48783 0.0
H1575 H 0.24019 0.62792 0.42869 0.0
H1576 H 0.23314 0.61015 0.27652 0.0
H1577 H 0.25089 0.62107 0.34239 0.0
H1578 H 0.12975 0.50867 0.40601 0.0
H1579 H 0.14087 0.52661 0.47155 0.0
H1580 H 0.12695 0.5165 0.31824 0.0
H1581 H 0.14541 0.53628 0.25955 0.0
C1582 C 0.17598 0.45083 0.15709 0.0
C1583 C 0.19389 0.4236 0.17793 0.0
C1584 C 0.21247 0.41064 0.08175 0.0
C1585 C 0.18645 0.43031 0.06121 0.0
N1586 N 0.15418 0.47884 0.07275 0.0
N1587 N 0.23886 0.38652 0.16566 0.0
C1588 C 0.17266 0.45458 0.09688 0.0
C1589 C 0.21635 0.40724 0.14187 0.0
N1590 N 0.1598 0.47049 0.19506 0.0
N1591 N 0.2304 0.3928 0.04347 0.0
H1592 H 0.24079 0.38417 0.21009 0.0
H1593 H 0.25601 0.37305 0.14239 0.0
H1594 H 0.22647 0.39534 -0.00052 0.0
H1595 H 0.24904 0.37651 0.05466 0.0
H1596 H 0.14449 0.48984 0.1834 0.0
H1597 H 0.16254 0.4672 0.23917 0.0
H1598 H 0.14295 0.49767 0.0957 0.0
H1599 H 0.15175 0.48057 0.02831 0.0
loop_
_geom_bond_atom_site_label_1
_geom_bond_atom_site_label_2
_geom_bond_distance
_geom_bond_site_symmetry_2
_ccdc_geom_bond_type
Zn0 O3 2.031 . S
Zn0 O5 2.049 . S
Zn0 O10 2.067 . S
Zn1 O2 1.962 . S
Zn1 O4 1.986 . S
Zn1 O6 1.996 . S
Zn1 O9 1.943 . S
O2 Zn1 1.962 . S
O2 C7 1.254 . S
O3 Zn0 2.031 . S
O3 C7 1.269 . S
O4 Zn1 1.986 . S
O4 C11 1.262 . S
O5 Zn0 2.049 . S
O5 C13 1.260 . S
O6 Zn1 1.996 . S
O6 C13 1.257 . S
C7 O2 1.254 . S
C7 O3 1.269 . S
C8 O9 1.249 . S
C8 O10 1.270 . S
O9 Zn1 1.943 . S
O9 C8 1.249 . S
O10 Zn0 2.067 . S
O10 C8 1.270 . S
C11 O4 1.262 . S
C11 O12 1.232 . S
O12 C11 1.232 . S
C13 O5 1.260 . S
C13 O6 1.257 . S
Zn14 O17 2.031 . S
Zn14 O19 2.049 . S
Zn14 O24 2.067 . S
Zn15 O16 1.962 . S
Zn15 O18 1.986 . S
Zn15 O20 1.996 . S
Zn15 O23 1.943 . S
O16 Zn15 1.962 . S
O16 C21 1.254 . S
O17 Zn14 2.031 . S
O17 C21 1.269 . S
O18 Zn15 1.986 . S
O18 C25 1.262 . S
O19 Zn14 2.049 . S
O19 C27 1.260 . S
O20 Zn15 1.996 . S
O20 C27 1.257 . S
C21 O16 1.254 . S
C21 O17 1.269 . S
C22 O23 1.249 . S
C22 O24 1.270 . S
O23 Zn15 1.943 . S
O23 C22 1.249 . S
O24 Zn14 2.067 . S
O24 C22 1.270 . S
C25 O18 1.262 . S
C25 O26 1.232 . S
O26 C25 1.232 . S
C27 O19 1.260 . S
C27 O20 1.257 . S
Zn28 O31 2.031 1_556 S
Zn28 O33 2.049 . S
Zn28 O38 2.067 . S
Zn29 O30 1.962 . S
Zn29 O32 1.986 . S
Zn29 O34 1.996 . S
Zn29 O37 1.943 . S
O30 Zn29 1.962 . S
O30 C35 1.254 1_556 S
O31 Zn28 2.031 1_554 S
O31 C35 1.269 . S
O32 Zn29 1.986 . S
O32 C39 1.262 . S
O33 Zn28 2.049 . S
O33 C41 1.260 . S
O34 Zn29 1.996 . S
O34 C41 1.257 . S
C35 O30 1.254 1_554 S
C35 O31 1.269 . S
C36 O37 1.249 . S
C36 O38 1.270 . S
O37 Zn29 1.943 . S
O37 C36 1.249 . S
O38 Zn28 2.067 . S
O38 C36 1.270 . S
C39 O32 1.262 . S
C39 O40 1.232 . S
O40 C39 1.232 . S
C41 O33 1.260 . S
C41 O34 1.257 . S
Zn42 O45 2.031 . S
Zn42 O47 2.049 . S
Zn42 O52 2.067 . S
Zn43 O44 1.962 . S
Zn43 O46 1.986 . S
Zn43 O48 1.996 . S
Zn43 O51 1.943 . S
O44 Zn43 1.962 . S
O44 C49 1.254 . S
O45 Zn42 2.031 . S
O45 C49 1.269 . S
O46 Zn43 1.986 . S
O46 C53 1.262 . S
O47 Zn42 2.049 . S
O47 C55 1.260 . S
O48 Zn43 1.996 . S
O48 C55 1.257 . S
C49 O44 1.254 . S
C49 O45 1.269 . S
C50 O51 1.249 . S
C50 O52 1.270 . S
O51 Zn43 1.943 . S
O51 C50 1.249 . S
O52 Zn42 2.067 . S
O52 C50 1.270 . S
C53 O46 1.262 . S
C53 O54 1.232 . S
O54 C53 1.232 . S
C55 O47 1.260 . S
C55 O48 1.257 . S
Zn56 O59 2.031 1_554 S
Zn56 O61 2.049 . S
Zn56 O66 2.067 . S
Zn57 O58 1.962 . S
Zn57 O60 1.986 . S
Zn57 O62 1.996 . S
Zn57 O65 1.943 . S
O58 Zn57 1.962 . S
O58 C63 1.254 1_554 S
O59 Zn56 2.031 1_556 S
O59 C63 1.269 . S
O60 Zn57 1.986 . S
O60 C67 1.262 . S
O61 Zn56 2.049 . S
O61 C69 1.260 . S
O62 Zn57 1.996 . S
O62 C69 1.257 . S
C63 O58 1.254 1_556 S
C63 O59 1.269 . S
C64 O65 1.249 . S
C64 O66 1.270 . S
O65 Zn57 1.943 . S
O65 C64 1.249 . S
O66 Zn56 2.067 . S
O66 C64 1.270 . S
C67 O60 1.262 . S
C67 O68 1.232 . S
O68 C67 1.232 . S
C69 O61 1.260 . S
C69 O62 1.257 . S
Zn70 O73 2.031 . S
Zn70 O75 2.049 . S
Zn70 O80 2.067 . S
Zn71 O72 1.962 . S
Zn71 O74 1.986 . S
Zn71 O76 1.996 . S
Zn71 O79 1.943 . S
O72 Zn71 1.962 . S
O72 C77 1.254 . S
O73 Zn70 2.031 . S
O73 C77 1.269 . S
O74 Zn71 1.986 . S
O74 C81 1.262 . S
O75 Zn70 2.049 . S
O75 C83 1.260 . S
O76 Zn71 1.996 . S
O76 C83 1.257 . S
C77 O72 1.254 . S
C77 O73 1.269 . S
C78 O79 1.249 . S
C78 O80 1.270 . S
O79 Zn71 1.943 . S
O79 C78 1.249 . S
O80 Zn70 2.067 . S
O80 C78 1.270 . S
C81 O74 1.262 . S
C81 O82 1.232 . S
O82 C81 1.232 . S
C83 O75 1.260 . S
C83 O76 1.257 . S
Zn84 O87 2.031 . S
Zn84 O89 2.049 . S
Zn84 O94 2.067 . S
Zn85 O86 1.962 . S
Zn85 O88 1.986 . S
Zn85 O90 1.996 . S
Zn85 O93 1.943 . S
O86 Zn85 1.962 . S
O86 C91 1.254 . S
O87 Zn84 2.031 . S
O87 C91 1.269 . S
O88 Zn85 1.986 . S
O88 C95 1.262 . S
O89 Zn84 2.049 . S
O89 C97 1.260 . S
O90 Zn85 1.996 . S
O90 C97 1.257 . S
C91 O86 1.254 . S
C91 O87 1.269 . S
C92 O93 1.249 . S
C92 O94 1.270 . S
O93 Zn85 1.943 . S
O93 C92 1.249 . S
O94 Zn84 2.067 . S
O94 C92 1.270 . S
C95 O88 1.262 . S
C95 O96 1.232 . S
O96 C95 1.232 . S
C97 O89 1.260 . S
C97 O90 1.257 . S
Zn98 O101 2.031 . S
Zn98 O103 2.049 . S
Zn98 O108 2.067 . S
Zn99 O100 1.962 . S
Zn99 O102 1.986 . S
Zn99 O104 1.996 . S
Zn99 O107 1.943 . S
O100 Zn99 1.962 . S
O100 C105 1.254 . S
O101 Zn98 2.031 . S
O101 C105 1.269 . S
O102 Zn99 1.986 . S
O102 C109 1.262 . S
O103 Zn98 2.049 . S
O103 C111 1.260 . S
O104 Zn99 1.996 . S
O104 C111 1.257 . S
C105 O100 1.254 . S
C105 O101 1.269 . S
C106 O107 1.249 . S
C106 O108 1.270 . S
O107 Zn99 1.943 . S
O107 C106 1.249 . S
O108 Zn98 2.067 . S
O108 C106 1.270 . S
C109 O102 1.262 . S
C109 O110 1.232 . S
O110 C109 1.232 . S
C111 O103 1.260 . S
C111 O104 1.257 . S
Zn112 O115 2.031 . S
Zn112 O117 2.049 . S
Zn112 O122 2.067 . S
Zn113 O114 1.962 . S
Zn113 O116 1.986 . S
Zn113 O118 1.996 . S
Zn113 O121 1.943 . S
O114 Zn113 1.962 . S
O114 C119 1.254 . S
O115 Zn112 2.031 . S
O115 C119 1.269 . S
O116 Zn113 1.986 . S
O116 C123 1.262 . S
O117 Zn112 2.049 . S
O117 C125 1.260 . S
O118 Zn113 1.996 . S
O118 C125 1.257 . S
C119 O114 1.254 . S
C119 O115 1.269 . S
C120 O121 1.249 . S
C120 O122 1.270 . S
O121 Zn113 1.943 . S
O121 C120 1.249 . S
O122 Zn112 2.067 . S
O122 C120 1.270 . S
C123 O116 1.262 . S
C123 O124 1.232 . S
O124 C123 1.232 . S
C125 O117 1.260 . S
C125 O118 1.257 . S
Zn126 O129 2.031 . S
Zn126 O131 2.049 . S
Zn126 O136 2.067 . S
Zn127 O128 1.962 . S
Zn127 O130 1.986 . S
Zn127 O132 1.996 . S
Zn127 O135 1.943 . S
O128 Zn127 1.962 . S
O128 C133 1.254 . S
O129 Zn126 2.031 . S
O129 C133 1.269 . S
O130 Zn127 1.986 . S
O130 C137 1.262 . S
O131 Zn126 2.049 . S
O131 C139 1.260 . S
O132 Zn127 1.996 . S
O132 C139 1.257 . S
C133 O128 1.254 . S
C133 O129 1.269 . S
C134 O135 1.249 . S
C134 O136 1.270 . S
O135 Zn127 1.943 . S
O135 C134 1.249 . S
O136 Zn126 2.067 . S
O136 C134 1.270 . S
C137 O130 1.262 . S
C137 O138 1.232 . S
O138 C137 1.232 . S
C139 O131 1.260 . S
C139 O132 1.257 . S
Zn140 O143 2.031 1_554 S
Zn140 O145 2.049 . S
Zn140 O150 2.067 . S
Zn141 O142 1.962 . S
Zn141 O144 1.986 . S
Zn141 O146 1.996 . S
Zn141 O149 1.943 . S
O142 Zn141 1.962 . S
O142 C147 1.254 1_554 S
O143 Zn140 2.031 1_556 S
O143 C147 1.269 . S
O144 Zn141 1.986 . S
O144 C151 1.262 . S
O145 Zn140 2.049 . S
O145 C153 1.260 . S
O146 Zn141 1.996 . S
O146 C153 1.257 . S
C147 O142 1.254 1_556 S
C147 O143 1.269 . S
C148 O149 1.249 . S
C148 O150 1.270 . S
O149 Zn141 1.943 . S
O149 C148 1.249 . S
O150 Zn140 2.067 . S
O150 C148 1.270 . S
C151 O144 1.262 . S
C151 O152 1.232 . S
O152 C151 1.232 . S
C153 O145 1.260 . S
C153 O146 1.257 . S
Zn154 O157 2.031 . S
Zn154 O159 2.049 . S
Zn154 O164 2.067 . S
Zn155 O156 1.962 . S
Zn155 O158 1.986 . S
Zn155 O160 1.996 . S
Zn155 O163 1.943 . S
O156 Zn155 1.962 . S
O156 C161 1.254 . S
O157 Zn154 2.031 . S
O157 C161 1.269 . S
O158 Zn155 1.986 . S
O158 C165 1.262 . S
O159 Zn154 2.049 . S
O159 C167 1.260 . S
O160 Zn155 1.996 . S
O160 C167 1.257 . S
C161 O156 1.254 . S
C161 O157 1.269 . S
C162 O163 1.249 . S
C162 O164 1.270 . S
O163 Zn155 1.943 . S
O163 C162 1.249 . S
O164 Zn154 2.067 . S
O164 C162 1.270 . S
C165 O158 1.262 . S
C165 O166 1.232 . S
O166 C165 1.232 . S
C167 O159 1.260 . S
C167 O160 1.257 . S
Zn168 O171 2.031 1_556 S
Zn168 O173 2.049 . S
Zn168 O178 2.067 . S
Zn169 O170 1.962 . S
Zn169 O172 1.986 . S
Zn169 O174 1.996 . S
Zn169 O177 1.943 . S
O170 Zn169 1.962 . S
O170 C175 1.254 1_556 S
O171 Zn168 2.031 1_554 S
O171 C175 1.269 . S
O172 Zn169 1.986 . S
O172 C179 1.262 . S
O173 Zn168 2.049 . S
O173 C181 1.260 . S
O174 Zn169 1.996 . S
O174 C181 1.257 . S
C175 O170 1.254 1_554 S
C175 O171 1.269 . S
C176 O177 1.249 . S
C176 O178 1.270 . S
O177 Zn169 1.943 . S
O177 C176 1.249 . S
O178 Zn168 2.067 . S
O178 C176 1.270 . S
C179 O172 1.262 . S
C179 O180 1.232 . S
O180 C179 1.232 . S
C181 O173 1.260 . S
C181 O174 1.257 . S
Zn182 O185 2.031 . S
Zn182 O187 2.049 . S
Zn182 O192 2.067 . S
Zn183 O184 1.962 . S
Zn183 O186 1.986 . S
Zn183 O188 1.996 . S
Zn183 O191 1.943 . S
O184 Zn183 1.962 . S
O184 C189 1.254 . S
O185 Zn182 2.031 . S
O185 C189 1.269 . S
O186 Zn183 1.986 . S
O186 C193 1.262 . S
O187 Zn182 2.049 . S
O187 C195 1.260 . S
O188 Zn183 1.996 . S
O188 C195 1.257 . S
C189 O184 1.254 . S
C189 O185 1.269 . S
C190 O191 1.249 . S
C190 O192 1.270 . S
O191 Zn183 1.943 . S
O191 C190 1.249 . S
O192 Zn182 2.067 . S
O192 C190 1.270 . S
C193 O186 1.262 . S
C193 O194 1.232 . S
O194 C193 1.232 . S
C195 O187 1.260 . S
C195 O188 1.257 . S
Zn196 O199 2.031 . S
Zn196 O201 2.049 . S
Zn196 O206 2.067 . S
Zn197 O198 1.962 . S
Zn197 O200 1.986 . S
Zn197 O202 1.996 . S
Zn197 O205 1.943 . S
O198 Zn197 1.962 . S
O198 C203 1.254 . S
O199 Zn196 2.031 . S
O199 C203 1.269 . S
O200 Zn197 1.986 . S
O200 C207 1.262 . S
O201 Zn196 2.049 . S
O201 C209 1.260 . S
O202 Zn197 1.996 . S
O202 C209 1.257 . S
C203 O198 1.254 . S
C203 O199 1.269 . S
C204 O205 1.249 . S
C204 O206 1.270 . S
O205 Zn197 1.943 . S
O205 C204 1.249 . S
O206 Zn196 2.067 . S
O206 C204 1.270 . S
C207 O200 1.262 . S
C207 O208 1.232 . S
O208 C207 1.232 . S
C209 O201 1.260 . S
C209 O202 1.257 . S
Zn210 O213 2.031 . S
Zn210 O215 2.049 . S
Zn210 O220 2.067 . S
Zn211 O212 1.962 . S
Zn211 O214 1.986 . S
Zn211 O216 1.996 . S
Zn211 O219 1.943 . S
O212 Zn211 1.962 . S
O212 C217 1.254 . S
O213 Zn210 2.031 . S
O213 C217 1.269 . S
O214 Zn211 1.986 . S
O214 C221 1.262 . S
O215 Zn210 2.049 . S
O215 C223 1.260 . S
O216 Zn211 1.996 . S
O216 C223 1.257 . S
C217 O212 1.254 . S
C217 O213 1.269 . S
C218 O219 1.249 . S
C218 O220 1.270 . S
O219 Zn211 1.943 . S
O219 C218 1.249 . S
O220 Zn210 2.067 . S
O220 C218 1.270 . S
C221 O214 1.262 . S
C221 O222 1.232 . S
O222 C221 1.232 . S
C223 O215 1.260 . S
C223 O216 1.257 . S
Zn224 O227 2.031 1_556 S
Zn224 O229 2.049 . S
Zn224 O234 2.067 . S
Zn225 O226 1.962 . S
Zn225 O228 1.986 . S
Zn225 O230 1.996 . S
Zn225 O233 1.943 . S
O226 Zn225 1.962 . S
O226 C231 1.254 1_556 S
O227 Zn224 2.031 1_554 S
O227 C231 1.269 . S
O228 Zn225 1.986 . S
O228 C235 1.262 . S
O229 Zn224 2.049 . S
O229 C237 1.260 . S
O230 Zn225 1.996 . S
O230 C237 1.257 . S
C231 O226 1.254 1_554 S
C231 O227 1.269 . S
C232 O233 1.249 . S
C232 O234 1.270 . S
O233 Zn225 1.943 . S
O233 C232 1.249 . S
O234 Zn224 2.067 . S
O234 C232 1.270 . S
C235 O228 1.262 . S
C235 O236 1.232 . S
O236 C235 1.232 . S
C237 O229 1.260 . S
C237 O230 1.257 . S
Zn238 O241 2.031 . S
Zn238 O243 2.049 . S
Zn238 O248 2.067 . S
Zn239 O240 1.962 . S
Zn239 O242 1.986 . S
Zn239 O244 1.996 . S
Zn239 O247 1.943 . S
O240 Zn239 1.962 . S
O240 C245 1.254 . S
O241 Zn238 2.031 . S
O241 C245 1.269 . S
O242 Zn239 1.986 . S
O242 C249 1.262 . S
O243 Zn238 2.049 . S
O243 C251 1.260 . S
O244 Zn239 1.996 . S
O244 C251 1.257 . S
C245 O240 1.254 . S
C245 O241 1.269 . S
C246 O247 1.249 . S
C246 O248 1.270 . S
O247 Zn239 1.943 . S
O247 C246 1.249 . S
O248 Zn238 2.067 . S
O248 C246 1.270 . S
C249 O242 1.262 . S
C249 O250 1.232 . S
O250 C249 1.232 . S
C251 O243 1.260 . S
C251 O244 1.257 . S
Zn252 O255 2.031 . S
Zn252 O257 2.049 . S
Zn252 O262 2.067 . S
Zn253 O254 1.962 . S
Zn253 O256 1.986 . S
Zn253 O258 1.996 . S
Zn253 O261 1.943 . S
O254 Zn253 1.962 . S
O254 C259 1.254 . S
O255 Zn252 2.031 . S
O255 C259 1.269 . S
O256 Zn253 1.986 . S
O256 C263 1.262 . S
O257 Zn252 2.049 . S
O257 C265 1.260 . S
O258 Zn253 1.996 . S
O258 C265 1.257 . S
C259 O254 1.254 . S
C259 O255 1.269 . S
C260 O261 1.249 . S
C260 O262 1.270 . S
O261 Zn253 1.943 . S
O261 C260 1.249 . S
O262 Zn252 2.067 . S
O262 C260 1.270 . S
C263 O256 1.262 . S
C263 O264 1.232 . S
O264 C263 1.232 . S
C265 O257 1.260 . S
C265 O258 1.257 . S
Zn266 O269 2.031 . S
Zn266 O271 2.049 . S
Zn266 O276 2.067 . S
Zn267 O268 1.962 . S
Zn267 O270 1.986 . S
Zn267 O272 1.996 . S
Zn267 O275 1.943 . S
O268 Zn267 1.962 . S
O268 C273 1.254 . S
O269 Zn266 2.031 . S
O269 C273 1.269 . S
O270 Zn267 1.986 . S
O270 C277 1.262 . S
O271 Zn266 2.049 . S
O271 C279 1.260 . S
O272 Zn267 1.996 . S
O272 C279 1.257 . S
C273 O268 1.254 . S
C273 O269 1.269 . S
C274 O275 1.249 . S
C274 O276 1.270 . S
O275 Zn267 1.943 . S
O275 C274 1.249 . S
O276 Zn266 2.067 . S
O276 C274 1.270 . S
C277 O270 1.262 . S
C277 O278 1.232 . S
O278 C277 1.232 . S
C279 O271 1.260 . S
C279 O272 1.257 . S
Zn280 O283 2.031 . S
Zn280 O285 2.049 . S
Zn280 O290 2.067 . S
Zn281 O282 1.962 . S
Zn281 O284 1.986 . S
Zn281 O286 1.996 . S
Zn281 O289 1.943 . S
O282 Zn281 1.962 . S
O282 C287 1.254 . S
O283 Zn280 2.031 . S
O283 C287 1.269 . S
O284 Zn281 1.986 . S
O284 C291 1.262 . S
O285 Zn280 2.049 . S
O285 C293 1.260 . S
O286 Zn281 1.996 . S
O286 C293 1.257 . S
C287 O282 1.254 . S
C287 O283 1.269 . S
C288 O289 1.249 . S
C288 O290 1.270 . S
O289 Zn281 1.943 . S
O289 C288 1.249 . S
O290 Zn280 2.067 . S
O290 C288 1.270 . S
C291 O284 1.262 . S
C291 O292 1.232 . S
O292 C291 1.232 . S
C293 O285 1.260 . S
C293 O286 1.257 . S
Zn294 O297 2.031 . S
Zn294 O299 2.049 . S
Zn294 O304 2.067 . S
Zn295 O296 1.962 . S
Zn295 O298 1.986 . S
Zn295 O300 1.996 . S
Zn295 O303 1.943 . S
O296 Zn295 1.962 . S
O296 C301 1.254 . S
O297 Zn294 2.031 . S
O297 C301 1.269 . S
O298 Zn295 1.986 . S
O298 C305 1.262 . S
O299 Zn294 2.049 . S
O299 C307 1.260 . S
O300 Zn295 1.996 . S
O300 C307 1.257 . S
C301 O296 1.254 . S
C301 O297 1.269 . S
C302 O303 1.249 . S
C302 O304 1.270 . S
O303 Zn295 1.943 . S
O303 C302 1.249 . S
O304 Zn294 2.067 . S
O304 C302 1.270 . S
C305 O298 1.262 . S
C305 O306 1.232 . S
O306 C305 1.232 . S
C307 O299 1.260 . S
C307 O300 1.257 . S
Zn308 O311 2.031 1_554 S
Zn308 O313 2.049 . S
Zn308 O318 2.067 . S
Zn309 O310 1.962 . S
Zn309 O312 1.986 . S
Zn309 O314 1.996 . S
Zn309 O317 1.943 . S
O310 Zn309 1.962 . S
O310 C315 1.254 1_554 S
O311 Zn308 2.031 1_556 S
O311 C315 1.269 . S
O312 Zn309 1.986 . S
O312 C319 1.262 . S
O313 Zn308 2.049 . S
O313 C321 1.260 . S
O314 Zn309 1.996 . S
O314 C321 1.257 . S
C315 O310 1.254 1_556 S
C315 O311 1.269 . S
C316 O317 1.249 . S
C316 O318 1.270 . S
O317 Zn309 1.943 . S
O317 C316 1.249 . S
O318 Zn308 2.067 . S
O318 C316 1.270 . S
C319 O312 1.262 . S
C319 O320 1.232 . S
O320 C319 1.232 . S
C321 O313 1.260 . S
C321 O314 1.257 . S
Zn322 O325 2.031 . S
Zn322 O327 2.049 . S
Zn322 O332 2.067 . S
Zn323 O324 1.962 . S
Zn323 O326 1.986 . S
Zn323 O328 1.996 . S
Zn323 O331 1.943 . S
O324 Zn323 1.962 . S
O324 C329 1.254 . S
O325 Zn322 2.031 . S
O325 C329 1.269 . S
O326 Zn323 1.986 . S
O326 C333 1.262 . S
O327 Zn322 2.049 . S
O327 C335 1.260 . S
O328 Zn323 1.996 . S
O328 C335 1.257 . S
C329 O324 1.254 . S
C329 O325 1.269 . S
C330 O331 1.249 . S
C330 O332 1.270 . S
O331 Zn323 1.943 . S
O331 C330 1.249 . S
O332 Zn322 2.067 . S
O332 C330 1.270 . S
C333 O326 1.262 . S
C333 O334 1.232 . S
O334 C333 1.232 . S
C335 O327 1.260 . S
C335 O328 1.257 . S
Zn336 O339 2.031 1_554 S
Zn336 O341 2.049 . S
Zn336 O346 2.067 . S
Zn337 O338 1.962 . S
Zn337 O340 1.986 . S
Zn337 O342 1.996 . S
Zn337 O345 1.943 . S
O338 Zn337 1.962 . S
O338 C343 1.254 1_554 S
O339 Zn336 2.031 1_556 S
O339 C343 1.269 . S
O340 Zn337 1.986 . S
O340 C347 1.262 . S
O341 Zn336 2.049 . S
O341 C349 1.260 . S
O342 Zn337 1.996 . S
O342 C349 1.257 . S
C343 O338 1.254 1_556 S
C343 O339 1.269 . S
C344 O345 1.249 . S
C344 O346 1.270 . S
O345 Zn337 1.943 . S
O345 C344 1.249 . S
O346 Zn336 2.067 . S
O346 C344 1.270 . S
C347 O340 1.262 . S
C347 O348 1.232 . S
O348 C347 1.232 . S
C349 O341 1.260 . S
C349 O342 1.257 . S
Zn350 O353 2.031 . S
Zn350 O355 2.049 . S
Zn350 O360 2.067 . S
Zn351 O352 1.962 . S
Zn351 O354 1.986 . S
Zn351 O356 1.996 . S
Zn351 O359 1.943 . S
O352 Zn351 1.962 . S
O352 C357 1.254 . S
O353 Zn350 2.031 . S
O353 C357 1.269 . S
O354 Zn351 1.986 . S
O354 C361 1.262 . S
O355 Zn350 2.049 . S
O355 C363 1.260 . S
O356 Zn351 1.996 . S
O356 C363 1.257 . S
C357 O352 1.254 . S
C357 O353 1.269 . S
C358 O359 1.249 . S
C358 O360 1.270 . S
O359 Zn351 1.943 . S
O359 C358 1.249 . S
O360 Zn350 2.067 . S
O360 C358 1.270 . S
C361 O354 1.262 . S
C361 O362 1.232 . S
O362 C361 1.232 . S
C363 O355 1.260 . S
C363 O356 1.257 . S
Zn364 O367 2.031 . S
Zn364 O369 2.049 . S
Zn364 O374 2.067 . S
Zn365 O366 1.962 . S
Zn365 O368 1.986 . S
Zn365 O370 1.996 . S
Zn365 O373 1.943 . S
O366 Zn365 1.962 . S
O366 C371 1.254 . S
O367 Zn364 2.031 . S
O367 C371 1.269 . S
O368 Zn365 1.986 . S
O368 C375 1.262 . S
O369 Zn364 2.049 . S
O369 C377 1.260 . S
O370 Zn365 1.996 . S
O370 C377 1.257 . S
C371 O366 1.254 . S
C371 O367 1.269 . S
C372 O373 1.249 . S
C372 O374 1.270 . S
O373 Zn365 1.943 . S
O373 C372 1.249 . S
O374 Zn364 2.067 . S
O374 C372 1.270 . S
C375 O368 1.262 . S
C375 O376 1.232 . S
O376 C375 1.232 . S
C377 O369 1.260 . S
C377 O370 1.257 . S
Zn378 O381 2.031 . S
Zn378 O383 2.049 . S
Zn378 O388 2.067 . S
Zn379 O380 1.962 . S
Zn379 O382 1.986 . S
Zn379 O384 1.996 . S
Zn379 O387 1.943 . S
O380 Zn379 1.962 . S
O380 C385 1.254 . S
O381 Zn378 2.031 . S
O381 C385 1.269 . S
O382 Zn379 1.986 . S
O382 C389 1.262 . S
O383 Zn378 2.049 . S
O383 C391 1.260 . S
O384 Zn379 1.996 . S
O384 C391 1.257 . S
C385 O380 1.254 . S
C385 O381 1.269 . S
C386 O387 1.249 . S
C386 O388 1.270 . S
O387 Zn379 1.943 . S
O387 C386 1.249 . S
O388 Zn378 2.067 . S
O388 C386 1.270 . S
C389 O382 1.262 . S
C389 O390 1.232 . S
O390 C389 1.232 . S
C391 O383 1.260 . S
C391 O384 1.257 . S
Zn392 O395 2.031 . S
Zn392 O397 2.049 . S
Zn392 O402 2.067 . S
Zn393 O394 1.962 . S
Zn393 O396 1.986 . S
Zn393 O398 1.996 . S
Zn393 O401 1.943 . S
O394 Zn393 1.962 . S
O394 C399 1.254 . S
O395 Zn392 2.031 . S
O395 C399 1.269 . S
O396 Zn393 1.986 . S
O396 C403 1.262 . S
O397 Zn392 2.049 . S
O397 C405 1.260 . S
O398 Zn393 1.996 . S
O398 C405 1.257 . S
C399 O394 1.254 . S
C399 O395 1.269 . S
C400 O401 1.249 . S
C400 O402 1.270 . S
O401 Zn393 1.943 . S
O401 C400 1.249 . S
O402 Zn392 2.067 . S
O402 C400 1.270 . S
C403 O396 1.262 . S
C403 O404 1.232 . S
O404 C403 1.232 . S
C405 O397 1.260 . S
C405 O398 1.257 . S
Zn406 O409 2.031 . S
Zn406 O411 2.049 . S
Zn406 O416 2.067 . S
Zn407 O408 1.962 . S
Zn407 O410 1.986 . S
Zn407 O412 1.996 . S
Zn407 O415 1.943 . S
O408 Zn407 1.962 . S
O408 C413 1.254 . S
O409 Zn406 2.031 . S
O409 C413 1.269 . S
O410 Zn407 1.986 . S
O410 C417 1.262 . S
O411 Zn406 2.049 . S
O411 C419 1.260 . S
O412 Zn407 1.996 . S
O412 C419 1.257 . S
C413 O408 1.254 . S
C413 O409 1.269 . S
C414 O415 1.249 . S
C414 O416 1.270 . S
O415 Zn407 1.943 . S
O415 C414 1.249 . S
O416 Zn406 2.067 . S
O416 C414 1.270 . S
C417 O410 1.262 . S
C417 O418 1.232 . S
O418 C417 1.232 . S
C419 O411 1.260 . S
C419 O412 1.257 . S
Zn420 O423 2.031 1_556 S
Zn420 O425 2.049 . S
Zn420 O430 2.067 . S
Zn421 O422 1.962 . S
Zn421 O424 1.986 . S
Zn421 O426 1.996 . S
Zn421 O429 1.943 . S
O422 Zn421 1.962 . S
O422 C427 1.254 1_556 S
O423 Zn420 2.031 1_554 S
O423 C427 1.269 . S
O424 Zn421 1.986 . S
O424 C431 1.262 . S
O425 Zn420 2.049 . S
O425 C433 1.260 . S
O426 Zn421 1.996 . S
O426 C433 1.257 . S
C427 O422 1.254 1_554 S
C427 O423 1.269 . S
C428 O429 1.249 . S
C428 O430 1.270 . S
O429 Zn421 1.943 . S
O429 C428 1.249 . S
O430 Zn420 2.067 . S
O430 C428 1.270 . S
C431 O424 1.262 . S
C431 O432 1.232 . S
O432 C431 1.232 . S
C433 O425 1.260 . S
C433 O426 1.257 . S
Zn434 O437 2.031 . S
Zn434 O439 2.049 . S
Zn434 O444 2.067 . S
Zn435 O436 1.962 . S
Zn435 O438 1.986 . S
Zn435 O440 1.996 . S
Zn435 O443 1.943 . S
O436 Zn435 1.962 . S
O436 C441 1.254 . S
O437 Zn434 2.031 . S
O437 C441 1.269 . S
O438 Zn435 1.986 . S
O438 C445 1.262 . S
O439 Zn434 2.049 . S
O439 C447 1.260 . S
O440 Zn435 1.996 . S
O440 C447 1.257 . S
C441 O436 1.254 . S
C441 O437 1.269 . S
C442 O443 1.249 . S
C442 O444 1.270 . S
O443 Zn435 1.943 . S
O443 C442 1.249 . S
O444 Zn434 2.067 . S
O444 C442 1.270 . S
C445 O438 1.262 . S
C445 O446 1.232 . S
O446 C445 1.232 . S
C447 O439 1.260 . S
C447 O440 1.257 . S
C448 C449 1.363 . S
C448 C454 1.379 1_545 S
C448 N456 1.356 . S
C449 C448 1.363 . S
C449 C455 1.363 . S
C450 C451 1.363 . S
C450 C455 1.379 1_565 S
C450 N457 1.356 . S
C451 C450 1.363 . S
C451 C454 1.363 . S
N452 C454 1.356 . S
N452 H464 0.984 . S
N452 H465 0.985 . S
N453 C455 1.356 . S
N453 H458 0.984 . S
N453 H459 0.985 . S
C454 C448 1.379 1_565 S
C454 C451 1.363 . S
C454 N452 1.356 . S
C455 C449 1.363 . S
C455 C450 1.379 1_545 S
C455 N453 1.356 . S
N456 C448 1.356 . S
N456 H462 0.984 . S
N456 H463 0.984 . S
N457 C450 1.356 . S
N457 H460 0.984 . S
N457 H461 0.985 . S
H458 N453 0.984 . S
H459 N453 0.985 . S
H460 N457 0.984 . S
H461 N457 0.985 . S
H462 N456 0.984 . S
H463 N456 0.984 . S
H464 N452 0.984 . S
H465 N452 0.985 . S
C466 C467 1.363 . S
C466 C472 1.379 . S
C466 N474 1.356 . S
C467 C466 1.363 . S
C467 C473 1.363 . S
C468 C469 1.363 . S
C468 C473 1.379 . S
C468 N475 1.356 . S
C469 C468 1.363 . S
C469 C472 1.363 . S
N470 C472 1.356 . S
N470 H482 0.984 . S
N470 H483 0.985 . S
N471 C473 1.356 . S
N471 H476 0.984 . S
N471 H477 0.985 . S
C472 C466 1.379 . S
C472 C469 1.363 . S
C472 N470 1.356 . S
C473 C467 1.363 . S
C473 C468 1.379 . S
C473 N471 1.356 . S
N474 C466 1.356 . S
N474 H480 0.984 . S
N474 H481 0.984 . S
N475 C468 1.356 . S
N475 H478 0.984 . S
N475 H479 0.985 . S
H476 N471 0.984 . S
H477 N471 0.985 . S
H478 N475 0.984 . S
H479 N475 0.985 . S
H480 N474 0.984 . S
H481 N474 0.984 . S
H482 N470 0.984 . S
H483 N470 0.985 . S
C484 C485 1.363 1_565 S
C484 C490 1.379 . S
C484 N492 1.356 . S
C485 C484 1.363 1_545 S
C485 C491 1.363 . S
C486 C487 1.363 1_545 S
C486 C491 1.379 . S
C486 N493 1.356 . S
C487 C486 1.363 1_565 S
C487 C490 1.363 . S
N488 C490 1.356 . S
N488 H500 0.984 . S
N488 H501 0.985 . S
N489 C491 1.356 . S
N489 H494 0.984 . S
N489 H495 0.985 . S
C490 C484 1.379 . S
C490 C487 1.363 . S
C490 N488 1.356 . S
C491 C485 1.363 . S
C491 C486 1.379 . S
C491 N489 1.356 . S
N492 C484 1.356 . S
N492 H498 0.984 . S
N492 H499 0.984 1_565 S
N493 C486 1.356 . S
N493 H496 0.984 1_545 S
N493 H497 0.985 . S
H494 N489 0.984 . S
H495 N489 0.985 . S
H496 N493 0.984 1_565 S
H497 N493 0.985 . S
H498 N492 0.984 . S
H499 N492 0.984 1_545 S
H500 N488 0.984 . S
H501 N488 0.985 . S
C502 C503 1.363 . S
C502 C508 1.379 1_556 S
C502 N510 1.356 . S
C503 C502 1.363 . S
C503 C509 1.363 . S
C504 C505 1.363 . S
C504 C509 1.379 1_554 S
C504 N511 1.356 . S
C505 C504 1.363 . S
C505 C508 1.363 . S
N506 C508 1.356 . S
N506 H518 0.984 . S
N506 H519 0.985 . S
N507 C509 1.356 . S
N507 H512 0.984 . S
N507 H513 0.985 . S
C508 C502 1.379 1_554 S
C508 C505 1.363 . S
C508 N506 1.356 . S
C509 C503 1.363 . S
C509 C504 1.379 1_556 S
C509 N507 1.356 . S
N510 C502 1.356 . S
N510 H516 0.984 1_556 S
N510 H517 0.984 . S
N511 C504 1.356 . S
N511 H514 0.984 . S
N511 H515 0.985 1_554 S
H512 N507 0.984 . S
H513 N507 0.985 . S
H514 N511 0.984 . S
H515 N511 0.985 1_556 S
H516 N510 0.984 1_554 S
H517 N510 0.984 . S
H518 N506 0.984 . S
H519 N506 0.985 . S
C520 C521 1.363 . S
C520 C526 1.379 . S
C520 N528 1.356 . S
C521 C520 1.363 . S
C521 C527 1.363 1_565 S
C522 C523 1.363 . S
C522 C527 1.379 . S
C522 N529 1.356 . S
C523 C522 1.363 . S
C523 C526 1.363 1_545 S
N524 C526 1.356 . S
N524 H536 0.984 . S
N524 H537 0.985 1_565 S
N525 C527 1.356 . S
N525 H530 0.984 1_545 S
N525 H531 0.985 . S
C526 C520 1.379 . S
C526 C523 1.363 1_565 S
C526 N524 1.356 . S
C527 C521 1.363 1_545 S
C527 C522 1.379 . S
C527 N525 1.356 . S
N528 C520 1.356 . S
N528 H534 0.984 . S
N528 H535 0.984 . S
N529 C522 1.356 . S
N529 H532 0.984 . S
N529 H533 0.985 . S
H530 N525 0.984 1_565 S
H531 N525 0.985 . S
H532 N529 0.984 . S
H533 N529 0.985 . S
H534 N528 0.984 . S
H535 N528 0.984 . S
H536 N524 0.984 . S
H537 N524 0.985 1_545 S
C538 C539 1.363 . S
C538 C544 1.379 . S
C538 N546 1.356 . S
C539 C538 1.363 . S
C539 C545 1.363 . S
C540 C541 1.363 . S
C540 C545 1.379 . S
C540 N547 1.356 . S
C541 C540 1.363 . S
C541 C544 1.363 . S
N542 C544 1.356 . S
N542 H554 0.984 . S
N542 H555 0.985 . S
N543 C545 1.356 . S
N543 H548 0.984 . S
N543 H549 0.985 . S
C544 C538 1.379 . S
C544 C541 1.363 . S
C544 N542 1.356 . S
C545 C539 1.363 . S
C545 C540 1.379 . S
C545 N543 1.356 . S
N546 C538 1.356 . S
N546 H552 0.984 . S
N546 H553 0.984 . S
N547 C540 1.356 . S
N547 H550 0.984 . S
N547 H551 0.985 . S
H548 N543 0.984 . S
H549 N543 0.985 . S
H550 N547 0.984 . S
H551 N547 0.985 . S
H552 N546 0.984 . S
H553 N546 0.984 . S
H554 N542 0.984 . S
H555 N542 0.985 . S
C556 C557 1.363 1_545 S
C556 C562 1.379 . S
C556 N564 1.356 1_545 S
C557 C556 1.363 1_565 S
C557 C563 1.363 . S
C558 C559 1.363 1_565 S
C558 C563 1.379 . S
C558 N565 1.356 1_565 S
C559 C558 1.363 1_545 S
C559 C562 1.363 . S
N560 C562 1.356 . S
N560 H572 0.984 . S
N560 H573 0.985 . S
N561 C563 1.356 . S
N561 H566 0.984 . S
N561 H567 0.985 . S
C562 C556 1.379 . S
C562 C559 1.363 . S
C562 N560 1.356 . S
C563 C557 1.363 . S
C563 C558 1.379 . S
C563 N561 1.356 . S
N564 C556 1.356 1_565 S
N564 H570 0.984 1_565 S
N564 H571 0.984 . S
N565 C558 1.356 1_545 S
N565 H568 0.984 . S
N565 H569 0.985 1_545 S
H566 N561 0.984 . S
H567 N561 0.985 . S
H568 N565 0.984 . S
H569 N565 0.985 1_565 S
H570 N564 0.984 1_545 S
H571 N564 0.984 . S
H572 N560 0.984 . S
H573 N560 0.985 . S
C574 C575 1.363 . S
C574 C580 1.379 1_556 S
C574 N582 1.356 . S
C575 C574 1.363 . S
C575 C581 1.363 . S
C576 C577 1.363 . S
C576 C581 1.379 1_554 S
C576 N583 1.356 . S
C577 C576 1.363 . S
C577 C580 1.363 . S
N578 C580 1.356 . S
N578 H590 0.984 1_554 S
N578 H591 0.985 . S
N579 C581 1.356 . S
N579 H584 0.984 . S
N579 H585 0.985 1_556 S
C580 C574 1.379 1_554 S
C580 C577 1.363 . S
C580 N578 1.356 . S
C581 C575 1.363 . S
C581 C576 1.379 1_556 S
C581 N579 1.356 . S
N582 C574 1.356 . S
N582 H588 0.984 . S
N582 H589 0.984 . S
N583 C576 1.356 . S
N583 H586 0.984 . S
N583 H587 0.985 . S
H584 N579 0.984 . S
H585 N579 0.985 1_554 S
H586 N583 0.984 . S
H587 N583 0.985 . S
H588 N582 0.984 . S
H589 N582 0.984 . S
H590 N578 0.984 1_556 S
H591 N578 0.985 . S
C592 C593 1.363 . S
C592 C598 1.379 . S
C592 N600 1.356 . S
C593 C592 1.363 . S
C593 C599 1.363 . S
C594 C595 1.363 . S
C594 C599 1.379 . S
C594 N601 1.356 . S
C595 C594 1.363 . S
C595 C598 1.363 . S
N596 C598 1.356 . S
N596 H608 0.984 . S
N596 H609 0.985 . S
N597 C599 1.356 . S
N597 H602 0.984 . S
N597 H603 0.985 . S
C598 C592 1.379 . S
C598 C595 1.363 . S
C598 N596 1.356 . S
C599 C593 1.363 . S
C599 C594 1.379 . S
C599 N597 1.356 . S
N600 C592 1.356 . S
N600 H606 0.984 . S
N600 H607 0.984 . S
N601 C594 1.356 . S
N601 H604 0.984 . S
N601 H605 0.985 . S
H602 N597 0.984 . S
H603 N597 0.985 . S
H604 N601 0.984 . S
H605 N601 0.985 . S
H606 N600 0.984 . S
H607 N600 0.984 . S
H608 N596 0.984 . S
H609 N596 0.985 . S
C610 C611 1.363 . S
C610 C616 1.379 1_556 S
C610 N618 1.356 . S
C611 C610 1.363 . S
C611 C617 1.363 . S
C612 C613 1.363 . S
C612 C617 1.379 1_554 S
C612 N619 1.356 . S
C613 C612 1.363 . S
C613 C616 1.363 . S
N614 C616 1.356 . S
N614 H626 0.984 . S
N614 H627 0.985 . S
N615 C617 1.356 . S
N615 H620 0.984 . S
N615 H621 0.985 . S
C616 C610 1.379 1_554 S
C616 C613 1.363 . S
C616 N614 1.356 . S
C617 C611 1.363 . S
C617 C612 1.379 1_556 S
C617 N615 1.356 . S
N618 C610 1.356 . S
N618 H624 0.984 1_556 S
N618 H625 0.984 . S
N619 C612 1.356 . S
N619 H622 0.984 . S
N619 H623 0.985 1_554 S
H620 N615 0.984 . S
H621 N615 0.985 . S
H622 N619 0.984 . S
H623 N619 0.985 1_556 S
H624 N618 0.984 1_554 S
H625 N618 0.984 . S
H626 N614 0.984 . S
H627 N614 0.985 . S
C628 C629 1.363 . S
C628 C634 1.379 . S
C628 N636 1.356 . S
C629 C628 1.363 . S
C629 C635 1.363 . S
C630 C631 1.363 . S
C630 C635 1.379 . S
C630 N637 1.356 . S
C631 C630 1.363 . S
C631 C634 1.363 . S
N632 C634 1.356 . S
N632 H644 0.984 . S
N632 H645 0.985 . S
N633 C635 1.356 . S
N633 H638 0.984 . S
N633 H639 0.985 . S
C634 C628 1.379 . S
C634 C631 1.363 . S
C634 N632 1.356 . S
C635 C629 1.363 . S
C635 C630 1.379 . S
C635 N633 1.356 . S
N636 C628 1.356 . S
N636 H642 0.984 . S
N636 H643 0.984 . S
N637 C630 1.356 . S
N637 H640 0.984 . S
N637 H641 0.985 . S
H638 N633 0.984 . S
H639 N633 0.985 . S
H640 N637 0.984 . S
H641 N637 0.985 . S
H642 N636 0.984 . S
H643 N636 0.984 . S
H644 N632 0.984 . S
H645 N632 0.985 . S
C646 C647 1.363 . S
C646 C652 1.379 . S
C646 N654 1.356 . S
C647 C646 1.363 . S
C647 C653 1.363 . S
C648 C649 1.363 . S
C648 C653 1.379 . S
C648 N655 1.356 . S
C649 C648 1.363 . S
C649 C652 1.363 . S
N650 C652 1.356 . S
N650 H662 0.984 . S
N650 H663 0.985 . S
N651 C653 1.356 . S
N651 H656 0.984 . S
N651 H657 0.985 . S
C652 C646 1.379 . S
C652 C649 1.363 . S
C652 N650 1.356 . S
C653 C647 1.363 . S
C653 C648 1.379 . S
C653 N651 1.356 . S
N654 C646 1.356 . S
N654 H660 0.984 . S
N654 H661 0.984 . S
N655 C648 1.356 . S
N655 H658 0.984 . S
N655 H659 0.985 . S
H656 N651 0.984 . S
H657 N651 0.985 . S
H658 N655 0.984 . S
H659 N655 0.985 . S
H660 N654 0.984 . S
H661 N654 0.984 . S
H662 N650 0.984 . S
H663 N650 0.985 . S
C664 C665 1.363 . S
C664 C670 1.379 . S
C664 N672 1.356 . S
C665 C664 1.363 . S
C665 C671 1.363 . S
C666 C667 1.363 . S
C666 C671 1.379 . S
C666 N673 1.356 . S
C667 C666 1.363 . S
C667 C670 1.363 . S
N668 C670 1.356 . S
N668 H680 0.984 . S
N668 H681 0.985 . S
N669 C671 1.356 . S
N669 H674 0.984 . S
N669 H675 0.985 . S
C670 C664 1.379 . S
C670 C667 1.363 . S
C670 N668 1.356 . S
C671 C665 1.363 . S
C671 C666 1.379 . S
C671 N669 1.356 . S
N672 C664 1.356 . S
N672 H678 0.984 . S
N672 H679 0.984 . S
N673 C666 1.356 . S
N673 H676 0.984 . S
N673 H677 0.985 . S
H674 N669 0.984 . S
H675 N669 0.985 . S
H676 N673 0.984 . S
H677 N673 0.985 . S
H678 N672 0.984 . S
H679 N672 0.984 . S
H680 N668 0.984 . S
H681 N668 0.985 . S
C682 C683 1.363 . S
C682 C688 1.379 1_554 S
C682 N690 1.356 . S
C683 C682 1.363 . S
C683 C689 1.363 . S
C684 C685 1.363 . S
C684 C689 1.379 1_556 S
C684 N691 1.356 . S
C685 C684 1.363 . S
C685 C688 1.363 . S
N686 C688 1.356 . S
N686 H698 0.984 . S
N686 H699 0.985 . S
N687 C689 1.356 . S
N687 H692 0.984 . S
N687 H693 0.985 . S
C688 C682 1.379 1_556 S
C688 C685 1.363 . S
C688 N686 1.356 . S
C689 C683 1.363 . S
C689 C684 1.379 1_554 S
C689 N687 1.356 . S
N690 C682 1.356 . S
N690 H696 0.984 1_554 S
N690 H697 0.984 . S
N691 C684 1.356 . S
N691 H694 0.984 . S
N691 H695 0.985 1_556 S
H692 N687 0.984 . S
H693 N687 0.985 . S
H694 N691 0.984 . S
H695 N691 0.985 1_554 S
H696 N690 0.984 1_556 S
H697 N690 0.984 . S
H698 N686 0.984 . S
H699 N686 0.985 . S
C700 C701 1.363 . S
C700 C706 1.379 . S
C700 N708 1.356 . S
C701 C700 1.363 . S
C701 C707 1.363 . S
C702 C703 1.363 . S
C702 C707 1.379 . S
C702 N709 1.356 . S
C703 C702 1.363 . S
C703 C706 1.363 . S
N704 C706 1.356 . S
N704 H716 0.984 . S
N704 H717 0.985 . S
N705 C707 1.356 . S
N705 H710 0.984 . S
N705 H711 0.985 . S
C706 C700 1.379 . S
C706 C703 1.363 . S
C706 N704 1.356 . S
C707 C701 1.363 . S
C707 C702 1.379 . S
C707 N705 1.356 . S
N708 C700 1.356 . S
N708 H714 0.984 . S
N708 H715 0.984 . S
N709 C702 1.356 . S
N709 H712 0.984 . S
N709 H713 0.985 . S
H710 N705 0.984 . S
H711 N705 0.985 . S
H712 N709 0.984 . S
H713 N709 0.985 . S
H714 N708 0.984 . S
H715 N708 0.984 . S
H716 N704 0.984 . S
H717 N704 0.985 . S
C718 C719 1.363 . S
C718 C724 1.379 . S
C718 N726 1.356 . S
C719 C718 1.363 . S
C719 C725 1.363 . S
C720 C721 1.363 . S
C720 C725 1.379 . S
C720 N727 1.356 . S
C721 C720 1.363 . S
C721 C724 1.363 . S
N722 C724 1.356 . S
N722 H734 0.984 . S
N722 H735 0.985 . S
N723 C725 1.356 . S
N723 H728 0.984 . S
N723 H729 0.985 . S
C724 C718 1.379 . S
C724 C721 1.363 . S
C724 N722 1.356 . S
C725 C719 1.363 . S
C725 C720 1.379 . S
C725 N723 1.356 . S
N726 C718 1.356 . S
N726 H732 0.984 . S
N726 H733 0.984 . S
N727 C720 1.356 . S
N727 H730 0.984 . S
N727 H731 0.985 . S
H728 N723 0.984 . S
H729 N723 0.985 . S
H730 N727 0.984 . S
H731 N727 0.985 . S
H732 N726 0.984 . S
H733 N726 0.984 . S
H734 N722 0.984 . S
H735 N722 0.985 . S
C736 C737 1.363 . S
C736 C742 1.379 . S
C736 N744 1.356 . S
C737 C736 1.363 . S
C737 C743 1.363 . S
C738 C739 1.363 . S
C738 C743 1.379 . S
C738 N745 1.356 . S
C739 C738 1.363 . S
C739 C742 1.363 . S
N740 C742 1.356 . S
N740 H752 0.984 . S
N740 H753 0.985 . S
N741 C743 1.356 . S
N741 H746 0.984 . S
N741 H747 0.985 . S
C742 C736 1.379 . S
C742 C739 1.363 . S
C742 N740 1.356 . S
C743 C737 1.363 . S
C743 C738 1.379 . S
C743 N741 1.356 . S
N744 C736 1.356 . S
N744 H750 0.984 . S
N744 H751 0.984 . S
N745 C738 1.356 . S
N745 H748 0.984 . S
N745 H749 0.985 . S
H746 N741 0.984 . S
H747 N741 0.985 . S
H748 N745 0.984 . S
H749 N745 0.985 . S
H750 N744 0.984 . S
H751 N744 0.984 . S
H752 N740 0.984 . S
H753 N740 0.985 . S
C754 C755 1.363 1_455 S
C754 C760 1.379 . S
C754 N762 1.356 1_455 S
C755 C754 1.363 1_655 S
C755 C761 1.363 1_655 S
C756 C757 1.363 . S
C756 C761 1.379 . S
C756 N763 1.356 . S
C757 C756 1.363 . S
C757 C760 1.363 . S
N758 C760 1.356 . S
N758 H770 0.984 . S
N758 H771 0.985 . S
N759 C761 1.356 1_655 S
N759 H764 0.984 . S
N759 H765 0.985 . S
C760 C754 1.379 . S
C760 C757 1.363 . S
C760 N758 1.356 . S
C761 C755 1.363 1_455 S
C761 C756 1.379 . S
C761 N759 1.356 1_455 S
N762 C754 1.356 1_655 S
N762 H768 0.984 . S
N762 H769 0.984 . S
N763 C756 1.356 . S
N763 H766 0.984 . S
N763 H767 0.985 . S
H764 N759 0.984 . S
H765 N759 0.985 . S
H766 N763 0.984 . S
H767 N763 0.985 . S
H768 N762 0.984 . S
H769 N762 0.984 . S
H770 N758 0.984 . S
H771 N758 0.985 . S
C772 C773 1.363 . S
C772 C778 1.379 . S
C772 N780 1.356 . S
C773 C772 1.363 . S
C773 C779 1.363 . S
C774 C775 1.363 . S
C774 C779 1.379 . S
C774 N781 1.356 . S
C775 C774 1.363 . S
C775 C778 1.363 . S
N776 C778 1.356 . S
N776 H788 0.984 . S
N776 H789 0.985 . S
N777 C779 1.356 . S
N777 H782 0.984 . S
N777 H783 0.985 . S
C778 C772 1.379 . S
C778 C775 1.363 . S
C778 N776 1.356 . S
C779 C773 1.363 . S
C779 C774 1.379 . S
C779 N777 1.356 . S
N780 C772 1.356 . S
N780 H786 0.984 . S
N780 H787 0.984 . S
N781 C774 1.356 . S
N781 H784 0.984 . S
N781 H785 0.985 . S
H782 N777 0.984 . S
H783 N777 0.985 . S
H784 N781 0.984 . S
H785 N781 0.985 . S
H786 N780 0.984 . S
H787 N780 0.984 . S
H788 N776 0.984 . S
H789 N776 0.985 . S
C790 C791 1.363 . S
C790 C796 1.379 . S
C790 N798 1.356 . S
C791 C790 1.363 . S
C791 C797 1.363 . S
C792 C793 1.363 . S
C792 C797 1.379 . S
C792 N799 1.356 . S
C793 C792 1.363 . S
C793 C796 1.363 . S
N794 C796 1.356 . S
N794 H806 0.984 . S
N794 H807 0.985 . S
N795 C797 1.356 . S
N795 H800 0.984 . S
N795 H801 0.985 . S
C796 C790 1.379 . S
C796 C793 1.363 . S
C796 N794 1.356 . S
C797 C791 1.363 . S
C797 C792 1.379 . S
C797 N795 1.356 . S
N798 C790 1.356 . S
N798 H804 0.984 . S
N798 H805 0.984 . S
N799 C792 1.356 . S
N799 H802 0.984 . S
N799 H803 0.985 . S
H800 N795 0.984 . S
H801 N795 0.985 . S
H802 N799 0.984 . S
H803 N799 0.985 . S
H804 N798 0.984 . S
H805 N798 0.984 . S
H806 N794 0.984 . S
H807 N794 0.985 . S
C808 C809 1.363 . S
C808 C814 1.379 . S
C808 N816 1.356 . S
C809 C808 1.363 . S
C809 C815 1.363 . S
C810 C811 1.363 . S
C810 C815 1.379 . S
C810 N817 1.356 . S
C811 C810 1.363 . S
C811 C814 1.363 . S
N812 C814 1.356 . S
N812 H824 0.984 . S
N812 H825 0.985 . S
N813 C815 1.356 . S
N813 H818 0.984 . S
N813 H819 0.985 . S
C814 C808 1.379 . S
C814 C811 1.363 . S
C814 N812 1.356 . S
C815 C809 1.363 . S
C815 C810 1.379 . S
C815 N813 1.356 . S
N816 C808 1.356 . S
N816 H822 0.984 . S
N816 H823 0.984 . S
N817 C810 1.356 . S
N817 H820 0.984 . S
N817 H821 0.985 . S
H818 N813 0.984 . S
H819 N813 0.985 . S
H820 N817 0.984 . S
H821 N817 0.985 . S
H822 N816 0.984 . S
H823 N816 0.984 . S
H824 N812 0.984 . S
H825 N812 0.985 . S
C826 C827 1.363 . S
C826 C832 1.379 . S
C826 N834 1.356 . S
C827 C826 1.363 . S
C827 C833 1.363 . S
C828 C829 1.363 . S
C828 C833 1.379 . S
C828 N835 1.356 . S
C829 C828 1.363 . S
C829 C832 1.363 . S
N830 C832 1.356 . S
N830 H842 0.984 . S
N830 H843 0.985 . S
N831 C833 1.356 . S
N831 H836 0.984 . S
N831 H837 0.985 . S
C832 C826 1.379 . S
C832 C829 1.363 . S
C832 N830 1.356 . S
C833 C827 1.363 . S
C833 C828 1.379 . S
C833 N831 1.356 . S
N834 C826 1.356 . S
N834 H840 0.984 . S
N834 H841 0.984 . S
N835 C828 1.356 . S
N835 H838 0.984 . S
N835 H839 0.985 . S
H836 N831 0.984 . S
H837 N831 0.985 . S
H838 N835 0.984 . S
H839 N835 0.985 . S
H840 N834 0.984 . S
H841 N834 0.984 . S
H842 N830 0.984 . S
H843 N830 0.985 . S
C844 C845 1.363 . S
C844 C850 1.379 . S
C844 N852 1.356 . S
C845 C844 1.363 . S
C845 C851 1.363 . S
C846 C847 1.363 . S
C846 C851 1.379 . S
C846 N853 1.356 . S
C847 C846 1.363 . S
C847 C850 1.363 . S
N848 C850 1.356 . S
N848 H860 0.984 . S
N848 H861 0.985 . S
N849 C851 1.356 . S
N849 H854 0.984 . S
N849 H855 0.985 . S
C850 C844 1.379 . S
C850 C847 1.363 . S
C850 N848 1.356 . S
C851 C845 1.363 . S
C851 C846 1.379 . S
C851 N849 1.356 . S
N852 C844 1.356 . S
N852 H858 0.984 . S
N852 H859 0.984 . S
N853 C846 1.356 . S
N853 H856 0.984 . S
N853 H857 0.985 . S
H854 N849 0.984 . S
H855 N849 0.985 . S
H856 N853 0.984 . S
H857 N853 0.985 . S
H858 N852 0.984 . S
H859 N852 0.984 . S
H860 N848 0.984 . S
H861 N848 0.985 . S
C862 C863 1.363 . S
C862 C868 1.379 . S
C862 N870 1.356 . S
C863 C862 1.363 . S
C863 C869 1.363 . S
C864 C865 1.363 1_455 S
C864 C869 1.379 . S
C864 N871 1.356 1_455 S
C865 C864 1.363 1_655 S
C865 C868 1.363 1_655 S
N866 C868 1.356 1_655 S
N866 H878 0.984 1_556 S
N866 H879 0.985 . S
N867 C869 1.356 . S
N867 H872 0.984 . S
N867 H873 0.985 . S
C868 C862 1.379 . S
C868 C865 1.363 1_455 S
C868 N866 1.356 1_455 S
C869 C863 1.363 . S
C869 C864 1.379 . S
C869 N867 1.356 . S
N870 C862 1.356 . S
N870 H876 0.984 1_556 S
N870 H877 0.984 . S
N871 C864 1.356 1_655 S
N871 H874 0.984 . S
N871 H875 0.985 . S
H872 N867 0.984 . S
H873 N867 0.985 . S
H874 N871 0.984 . S
H875 N871 0.985 . S
H876 N870 0.984 1_554 S
H877 N870 0.984 . S
H878 N866 0.984 1_554 S
H879 N866 0.985 . S
C880 C881 1.363 . S
C880 C886 1.379 . S
C880 N888 1.356 . S
C881 C880 1.363 . S
C881 C887 1.363 . S
C882 C883 1.363 . S
C882 C887 1.379 . S
C882 N889 1.356 . S
C883 C882 1.363 . S
C883 C886 1.363 . S
N884 C886 1.356 . S
N884 H896 0.984 . S
N884 H897 0.985 . S
N885 C887 1.356 . S
N885 H890 0.984 . S
N885 H891 0.985 . S
C886 C880 1.379 . S
C886 C883 1.363 . S
C886 N884 1.356 . S
C887 C881 1.363 . S
C887 C882 1.379 . S
C887 N885 1.356 . S
N888 C880 1.356 . S
N888 H894 0.984 . S
N888 H895 0.984 . S
N889 C882 1.356 . S
N889 H892 0.984 . S
N889 H893 0.985 . S
H890 N885 0.984 . S
H891 N885 0.985 . S
H892 N889 0.984 . S
H893 N889 0.985 . S
H894 N888 0.984 . S
H895 N888 0.984 . S
H896 N884 0.984 . S
H897 N884 0.985 . S
C898 C899 1.363 . S
C898 C904 1.379 . S
C898 N906 1.356 . S
C899 C898 1.363 . S
C899 C905 1.363 . S
C900 C901 1.363 1_655 S
C900 C905 1.379 . S
C900 N907 1.356 1_655 S
C901 C900 1.363 1_455 S
C901 C904 1.363 1_455 S
N902 C904 1.356 1_455 S
N902 H914 0.984 . S
N902 H915 0.985 . S
N903 C905 1.356 . S
N903 H908 0.984 . S
N903 H909 0.985 . S
C904 C898 1.379 . S
C904 C901 1.363 1_655 S
C904 N902 1.356 1_655 S
C905 C899 1.363 . S
C905 C900 1.379 . S
C905 N903 1.356 . S
N906 C898 1.356 . S
N906 H912 0.984 . S
N906 H913 0.984 . S
N907 C900 1.356 1_455 S
N907 H910 0.984 . S
N907 H911 0.985 . S
H908 N903 0.984 . S
H909 N903 0.985 . S
H910 N907 0.984 . S
H911 N907 0.985 . S
H912 N906 0.984 . S
H913 N906 0.984 . S
H914 N902 0.984 . S
H915 N902 0.985 . S
C916 C917 1.363 . S
C916 C922 1.379 . S
C916 N924 1.356 . S
C917 C916 1.363 . S
C917 C923 1.363 . S
C918 C919 1.363 . S
C918 C923 1.379 . S
C918 N925 1.356 . S
C919 C918 1.363 . S
C919 C922 1.363 . S
N920 C922 1.356 . S
N920 H932 0.984 . S
N920 H933 0.985 . S
N921 C923 1.356 . S
N921 H926 0.984 . S
N921 H927 0.985 . S
C922 C916 1.379 . S
C922 C919 1.363 . S
C922 N920 1.356 . S
C923 C917 1.363 . S
C923 C918 1.379 . S
C923 N921 1.356 . S
N924 C916 1.356 . S
N924 H930 0.984 . S
N924 H931 0.984 . S
N925 C918 1.356 . S
N925 H928 0.984 . S
N925 H929 0.985 . S
H926 N921 0.984 . S
H927 N921 0.985 . S
H928 N925 0.984 . S
H929 N925 0.985 . S
H930 N924 0.984 . S
H931 N924 0.984 . S
H932 N920 0.984 . S
H933 N920 0.985 . S
C934 C935 1.363 . S
C934 C940 1.379 . S
C934 N942 1.356 . S
C935 C934 1.363 . S
C935 C941 1.363 . S
C936 C937 1.363 . S
C936 C941 1.379 . S
C936 N943 1.356 . S
C937 C936 1.363 . S
C937 C940 1.363 . S
N938 C940 1.356 . S
N938 H950 0.984 . S
N938 H951 0.985 . S
N939 C941 1.356 . S
N939 H944 0.984 . S
N939 H945 0.985 . S
C940 C934 1.379 . S
C940 C937 1.363 . S
C940 N938 1.356 . S
C941 C935 1.363 . S
C941 C936 1.379 . S
C941 N939 1.356 . S
N942 C934 1.356 . S
N942 H948 0.984 . S
N942 H949 0.984 . S
N943 C936 1.356 . S
N943 H946 0.984 . S
N943 H947 0.985 . S
H944 N939 0.984 . S
H945 N939 0.985 . S
H946 N943 0.984 . S
H947 N943 0.985 . S
H948 N942 0.984 . S
H949 N942 0.984 . S
H950 N938 0.984 . S
H951 N938 0.985 . S
C952 C953 1.363 . S
C952 C958 1.379 . S
C952 N960 1.356 . S
C953 C952 1.363 . S
C953 C959 1.363 . S
C954 C955 1.363 . S
C954 C959 1.379 . S
C954 N961 1.356 . S
C955 C954 1.363 . S
C955 C958 1.363 . S
N956 C958 1.356 . S
N956 H968 0.984 . S
N956 H969 0.985 . S
N957 C959 1.356 . S
N957 H962 0.984 . S
N957 H963 0.985 . S
C958 C952 1.379 . S
C958 C955 1.363 . S
C958 N956 1.356 . S
C959 C953 1.363 . S
C959 C954 1.379 . S
C959 N957 1.356 . S
N960 C952 1.356 . S
N960 H966 0.984 . S
N960 H967 0.984 . S
N961 C954 1.356 . S
N961 H964 0.984 . S
N961 H965 0.985 . S
H962 N957 0.984 . S
H963 N957 0.985 . S
H964 N961 0.984 . S
H965 N961 0.985 . S
H966 N960 0.984 . S
H967 N960 0.984 . S
H968 N956 0.984 . S
H969 N956 0.985 . S
C970 C971 1.363 . S
C970 C976 1.379 . S
C970 N978 1.356 . S
C971 C970 1.363 . S
C971 C977 1.363 . S
C972 C973 1.363 . S
C972 C977 1.379 . S
C972 N979 1.356 . S
C973 C972 1.363 . S
C973 C976 1.363 . S
N974 C976 1.356 . S
N974 H986 0.984 . S
N974 H987 0.985 . S
N975 C977 1.356 . S
N975 H980 0.984 . S
N975 H981 0.985 . S
C976 C970 1.379 . S
C976 C973 1.363 . S
C976 N974 1.356 . S
C977 C971 1.363 . S
C977 C972 1.379 . S
C977 N975 1.356 . S
N978 C970 1.356 . S
N978 H984 0.984 . S
N978 H985 0.984 . S
N979 C972 1.356 . S
N979 H982 0.984 . S
N979 H983 0.985 . S
H980 N975 0.984 . S
H981 N975 0.985 . S
H982 N979 0.984 . S
H983 N979 0.985 . S
H984 N978 0.984 . S
H985 N978 0.984 . S
H986 N974 0.984 . S
H987 N974 0.985 . S
C988 C989 1.363 . S
C988 C994 1.379 . S
C988 N996 1.356 . S
C989 C988 1.363 . S
C989 C995 1.363 . S
C990 C991 1.363 . S
C990 C995 1.379 . S
C990 N997 1.356 . S
C991 C990 1.363 . S
C991 C994 1.363 . S
N992 C994 1.356 . S
N992 H1004 0.984 . S
N992 H1005 0.985 . S
N993 C995 1.356 . S
N993 H998 0.984 . S
N993 H999 0.985 . S
C994 C988 1.379 . S
C994 C991 1.363 . S
C994 N992 1.356 . S
C995 C989 1.363 . S
C995 C990 1.379 . S
C995 N993 1.356 . S
N996 C988 1.356 . S
N996 H1002 0.984 . S
N996 H1003 0.984 . S
N997 C990 1.356 . S
N997 H1000 0.984 . S
N997 H1001 0.985 . S
H998 N993 0.984 . S
H999 N993 0.985 . S
H1000 N997 0.984 . S
H1001 N997 0.985 . S
H1002 N996 0.984 . S
H1003 N996 0.984 . S
H1004 N992 0.984 . S
H1005 N992 0.985 . S
C1006 C1007 1.363 . S
C1006 C1012 1.379 . S
C1006 N1014 1.356 . S
C1007 C1006 1.363 . S
C1007 C1013 1.363 . S
C1008 C1009 1.363 1_655 S
C1008 C1013 1.379 . S
C1008 N1015 1.356 1_655 S
C1009 C1008 1.363 1_455 S
C1009 C1012 1.363 1_455 S
N1010 C1012 1.356 1_455 S
N1010 H1022 0.984 . S
N1010 H1023 0.985 . S
N1011 C1013 1.356 . S
N1011 H1016 0.984 . S
N1011 H1017 0.985 . S
C1012 C1006 1.379 . S
C1012 C1009 1.363 1_655 S
C1012 N1010 1.356 1_655 S
C1013 C1007 1.363 . S
C1013 C1008 1.379 . S
C1013 N1011 1.356 . S
N1014 C1006 1.356 . S
N1014 H1020 0.984 . S
N1014 H1021 0.984 . S
N1015 C1008 1.356 1_455 S
N1015 H1018 0.984 . S
N1015 H1019 0.985 . S
H1016 N1011 0.984 . S
H1017 N1011 0.985 . S
H1018 N1015 0.984 . S
H1019 N1015 0.985 . S
H1020 N1014 0.984 . S
H1021 N1014 0.984 . S
H1022 N1010 0.984 . S
H1023 N1010 0.985 . S
C1024 C1025 1.363 . S
C1024 C1030 1.379 . S
C1024 N1032 1.356 . S
C1025 C1024 1.363 . S
C1025 C1031 1.363 . S
C1026 C1027 1.363 . S
C1026 C1031 1.379 . S
C1026 N1033 1.356 . S
C1027 C1026 1.363 . S
C1027 C1030 1.363 . S
N1028 C1030 1.356 . S
N1028 H1040 0.984 . S
N1028 H1041 0.985 . S
N1029 C1031 1.356 . S
N1029 H1034 0.984 . S
N1029 H1035 0.985 . S
C1030 C1024 1.379 . S
C1030 C1027 1.363 . S
C1030 N1028 1.356 . S
C1031 C1025 1.363 . S
C1031 C1026 1.379 . S
C1031 N1029 1.356 . S
N1032 C1024 1.356 . S
N1032 H1038 0.984 . S
N1032 H1039 0.984 . S
N1033 C1026 1.356 . S
N1033 H1036 0.984 . S
N1033 H1037 0.985 . S
H1034 N1029 0.984 . S
H1035 N1029 0.985 . S
H1036 N1033 0.984 . S
H1037 N1033 0.985 . S
H1038 N1032 0.984 . S
H1039 N1032 0.984 . S
H1040 N1028 0.984 . S
H1041 N1028 0.985 . S
C1042 C1043 1.363 . S
C1042 C1048 1.379 . S
C1042 N1050 1.356 . S
C1043 C1042 1.363 . S
C1043 C1049 1.363 . S
C1044 C1045 1.363 . S
C1044 C1049 1.379 . S
C1044 N1051 1.356 . S
C1045 C1044 1.363 . S
C1045 C1048 1.363 . S
N1046 C1048 1.356 . S
N1046 H1058 0.984 . S
N1046 H1059 0.985 . S
N1047 C1049 1.356 . S
N1047 H1052 0.984 . S
N1047 H1053 0.985 . S
C1048 C1042 1.379 . S
C1048 C1045 1.363 . S
C1048 N1046 1.356 . S
C1049 C1043 1.363 . S
C1049 C1044 1.379 . S
C1049 N1047 1.356 . S
N1050 C1042 1.356 . S
N1050 H1056 0.984 . S
N1050 H1057 0.984 . S
N1051 C1044 1.356 . S
N1051 H1054 0.984 . S
N1051 H1055 0.985 . S
H1052 N1047 0.984 . S
H1053 N1047 0.985 . S
H1054 N1051 0.984 . S
H1055 N1051 0.985 . S
H1056 N1050 0.984 . S
H1057 N1050 0.984 . S
H1058 N1046 0.984 . S
H1059 N1046 0.985 . S
C1060 C1061 1.363 . S
C1060 C1066 1.379 . S
C1060 N1068 1.356 . S
C1061 C1060 1.363 . S
C1061 C1067 1.363 . S
C1062 C1063 1.363 . S
C1062 C1067 1.379 . S
C1062 N1069 1.356 . S
C1063 C1062 1.363 . S
C1063 C1066 1.363 . S
N1064 C1066 1.356 . S
N1064 H1076 0.984 . S
N1064 H1077 0.985 . S
N1065 C1067 1.356 . S
N1065 H1070 0.984 . S
N1065 H1071 0.985 . S
C1066 C1060 1.379 . S
C1066 C1063 1.363 . S
C1066 N1064 1.356 . S
C1067 C1061 1.363 . S
C1067 C1062 1.379 . S
C1067 N1065 1.356 . S
N1068 C1060 1.356 . S
N1068 H1074 0.984 . S
N1068 H1075 0.984 . S
N1069 C1062 1.356 . S
N1069 H1072 0.984 . S
N1069 H1073 0.985 . S
H1070 N1065 0.984 . S
H1071 N1065 0.985 . S
H1072 N1069 0.984 . S
H1073 N1069 0.985 . S
H1074 N1068 0.984 . S
H1075 N1068 0.984 . S
H1076 N1064 0.984 . S
H1077 N1064 0.985 . S
C1078 C1079 1.363 . S
C1078 C1084 1.379 . S
C1078 N1086 1.356 . S
C1079 C1078 1.363 . S
C1079 C1085 1.363 . S
C1080 C1081 1.363 1_655 S
C1080 C1085 1.379 . S
C1080 N1087 1.356 1_655 S
C1081 C1080 1.363 1_455 S
C1081 C1084 1.363 1_455 S
N1082 C1084 1.356 1_455 S
N1082 H1094 0.984 . S
N1082 H1095 0.985 . S
N1083 C1085 1.356 . S
N1083 H1088 0.984 . S
N1083 H1089 0.985 . S
C1084 C1078 1.379 . S
C1084 C1081 1.363 1_655 S
C1084 N1082 1.356 1_655 S
C1085 C1079 1.363 . S
C1085 C1080 1.379 . S
C1085 N1083 1.356 . S
N1086 C1078 1.356 . S
N1086 H1092 0.984 . S
N1086 H1093 0.984 . S
N1087 C1080 1.356 1_455 S
N1087 H1090 0.984 . S
N1087 H1091 0.985 . S
H1088 N1083 0.984 . S
H1089 N1083 0.985 . S
H1090 N1087 0.984 . S
H1091 N1087 0.985 . S
H1092 N1086 0.984 . S
H1093 N1086 0.984 . S
H1094 N1082 0.984 . S
H1095 N1082 0.985 . S
C1096 C1097 1.363 . S
C1096 C1102 1.379 . S
C1096 N1104 1.356 . S
C1097 C1096 1.363 . S
C1097 C1103 1.363 . S
C1098 C1099 1.363 . S
C1098 C1103 1.379 . S
C1098 N1105 1.356 . S
C1099 C1098 1.363 . S
C1099 C1102 1.363 . S
N1100 C1102 1.356 . S
N1100 H1112 0.984 . S
N1100 H1113 0.985 . S
N1101 C1103 1.356 . S
N1101 H1106 0.984 . S
N1101 H1107 0.985 . S
C1102 C1096 1.379 . S
C1102 C1099 1.363 . S
C1102 N1100 1.356 . S
C1103 C1097 1.363 . S
C1103 C1098 1.379 . S
C1103 N1101 1.356 . S
N1104 C1096 1.356 . S
N1104 H1110 0.984 . S
N1104 H1111 0.984 . S
N1105 C1098 1.356 . S
N1105 H1108 0.984 . S
N1105 H1109 0.985 . S
H1106 N1101 0.984 . S
H1107 N1101 0.985 . S
H1108 N1105 0.984 . S
H1109 N1105 0.985 . S
H1110 N1104 0.984 . S
H1111 N1104 0.984 . S
H1112 N1100 0.984 . S
H1113 N1100 0.985 . S
C1114 C1115 1.363 1_655 S
C1114 C1120 1.379 . S
C1114 N1122 1.356 1_655 S
C1115 C1114 1.363 1_455 S
C1115 C1121 1.363 1_455 S
C1116 C1117 1.363 . S
C1116 C1121 1.379 . S
C1116 N1123 1.356 . S
C1117 C1116 1.363 . S
C1117 C1120 1.363 . S
N1118 C1120 1.356 . S
N1118 H1130 0.984 . S
N1118 H1131 0.985 . S
N1119 C1121 1.356 1_455 S
N1119 H1124 0.984 . S
N1119 H1125 0.985 . S
C1120 C1114 1.379 . S
C1120 C1117 1.363 . S
C1120 N1118 1.356 . S
C1121 C1115 1.363 1_655 S
C1121 C1116 1.379 . S
C1121 N1119 1.356 1_655 S
N1122 C1114 1.356 1_455 S
N1122 H1128 0.984 . S
N1122 H1129 0.984 . S
N1123 C1116 1.356 . S
N1123 H1126 0.984 . S
N1123 H1127 0.985 . S
H1124 N1119 0.984 . S
H1125 N1119 0.985 . S
H1126 N1123 0.984 . S
H1127 N1123 0.985 . S
H1128 N1122 0.984 . S
H1129 N1122 0.984 . S
H1130 N1118 0.984 . S
H1131 N1118 0.985 . S
C1132 C1133 1.363 . S
C1132 C1138 1.379 . S
C1132 N1140 1.356 . S
C1133 C1132 1.363 . S
C1133 C1139 1.363 . S
C1134 C1135 1.363 . S
C1134 C1139 1.379 . S
C1134 N1141 1.356 . S
C1135 C1134 1.363 . S
C1135 C1138 1.363 . S
N1136 C1138 1.356 . S
N1136 H1148 0.984 . S
N1136 H1149 0.985 . S
N1137 C1139 1.356 . S
N1137 H1142 0.984 . S
N1137 H1143 0.985 . S
C1138 C1132 1.379 . S
C1138 C1135 1.363 . S
C1138 N1136 1.356 . S
C1139 C1133 1.363 . S
C1139 C1134 1.379 . S
C1139 N1137 1.356 . S
N1140 C1132 1.356 . S
N1140 H1146 0.984 . S
N1140 H1147 0.984 . S
N1141 C1134 1.356 . S
N1141 H1144 0.984 . S
N1141 H1145 0.985 . S
H1142 N1137 0.984 . S
H1143 N1137 0.985 . S
H1144 N1141 0.984 . S
H1145 N1141 0.985 . S
H1146 N1140 0.984 . S
H1147 N1140 0.984 . S
H1148 N1136 0.984 . S
H1149 N1136 0.985 . S
C1150 C1151 1.363 . S
C1150 C1156 1.379 . S
C1150 N1158 1.356 . S
C1151 C1150 1.363 . S
C1151 C1157 1.363 . S
C1152 C1153 1.363 . S
C1152 C1157 1.379 . S
C1152 N1159 1.356 . S
C1153 C1152 1.363 . S
C1153 C1156 1.363 . S
N1154 C1156 1.356 . S
N1154 H1166 0.984 . S
N1154 H1167 0.985 . S
N1155 C1157 1.356 . S
N1155 H1160 0.984 . S
N1155 H1161 0.985 . S
C1156 C1150 1.379 . S
C1156 C1153 1.363 . S
C1156 N1154 1.356 . S
C1157 C1151 1.363 . S
C1157 C1152 1.379 . S
C1157 N1155 1.356 . S
N1158 C1150 1.356 . S
N1158 H1164 0.984 . S
N1158 H1165 0.984 . S
N1159 C1152 1.356 . S
N1159 H1162 0.984 . S
N1159 H1163 0.985 . S
H1160 N1155 0.984 . S
H1161 N1155 0.985 . S
H1162 N1159 0.984 . S
H1163 N1159 0.985 . S
H1164 N1158 0.984 . S
H1165 N1158 0.984 . S
H1166 N1154 0.984 . S
H1167 N1154 0.985 . S
C1168 C1169 1.363 . S
C1168 C1174 1.379 . S
C1168 N1176 1.356 . S
C1169 C1168 1.363 . S
C1169 C1175 1.363 . S
C1170 C1171 1.363 . S
C1170 C1175 1.379 . S
C1170 N1177 1.356 . S
C1171 C1170 1.363 . S
C1171 C1174 1.363 . S
N1172 C1174 1.356 . S
N1172 H1184 0.984 . S
N1172 H1185 0.985 . S
N1173 C1175 1.356 . S
N1173 H1178 0.984 . S
N1173 H1179 0.985 . S
C1174 C1168 1.379 . S
C1174 C1171 1.363 . S
C1174 N1172 1.356 . S
C1175 C1169 1.363 . S
C1175 C1170 1.379 . S
C1175 N1173 1.356 . S
N1176 C1168 1.356 . S
N1176 H1182 0.984 . S
N1176 H1183 0.984 . S
N1177 C1170 1.356 . S
N1177 H1180 0.984 . S
N1177 H1181 0.985 . S
H1178 N1173 0.984 . S
H1179 N1173 0.985 . S
H1180 N1177 0.984 . S
H1181 N1177 0.985 . S
H1182 N1176 0.984 . S
H1183 N1176 0.984 . S
H1184 N1172 0.984 . S
H1185 N1172 0.985 . S
C1186 C1187 1.363 . S
C1186 C1192 1.379 . S
C1186 N1194 1.356 . S
C1187 C1186 1.363 . S
C1187 C1193 1.363 . S
C1188 C1189 1.363 . S
C1188 C1193 1.379 . S
C1188 N1195 1.356 . S
C1189 C1188 1.363 . S
C1189 C1192 1.363 . S
N1190 C1192 1.356 . S
N1190 H1202 0.984 1_556 S
N1190 H1203 0.985 . S
N1191 C1193 1.356 . S
N1191 H1196 0.984 . S
N1191 H1197 0.985 . S
C1192 C1186 1.379 . S
C1192 C1189 1.363 . S
C1192 N1190 1.356 . S
C1193 C1187 1.363 . S
C1193 C1188 1.379 . S
C1193 N1191 1.356 . S
N1194 C1186 1.356 . S
N1194 H1200 0.984 1_556 S
N1194 H1201 0.984 . S
N1195 C1188 1.356 . S
N1195 H1198 0.984 . S
N1195 H1199 0.985 . S
H1196 N1191 0.984 . S
H1197 N1191 0.985 . S
H1198 N1195 0.984 . S
H1199 N1195 0.985 . S
H1200 N1194 0.984 1_554 S
H1201 N1194 0.984 . S
H1202 N1190 0.984 1_554 S
H1203 N1190 0.985 . S
C1204 C1205 1.363 . S
C1204 C1210 1.379 . S
C1204 N1212 1.356 . S
C1205 C1204 1.363 . S
C1205 C1211 1.363 . S
C1206 C1207 1.363 . S
C1206 C1211 1.379 . S
C1206 N1213 1.356 . S
C1207 C1206 1.363 . S
C1207 C1210 1.363 . S
N1208 C1210 1.356 . S
N1208 H1220 0.984 . S
N1208 H1221 0.985 . S
N1209 C1211 1.356 . S
N1209 H1214 0.984 . S
N1209 H1215 0.985 . S
C1210 C1204 1.379 . S
C1210 C1207 1.363 . S
C1210 N1208 1.356 . S
C1211 C1205 1.363 . S
C1211 C1206 1.379 . S
C1211 N1209 1.356 . S
N1212 C1204 1.356 . S
N1212 H1218 0.984 . S
N1212 H1219 0.984 . S
N1213 C1206 1.356 . S
N1213 H1216 0.984 . S
N1213 H1217 0.985 . S
H1214 N1209 0.984 . S
H1215 N1209 0.985 . S
H1216 N1213 0.984 . S
H1217 N1213 0.985 . S
H1218 N1212 0.984 . S
H1219 N1212 0.984 . S
H1220 N1208 0.984 . S
H1221 N1208 0.985 . S
C1222 C1223 1.363 . S
C1222 C1228 1.379 . S
C1222 N1230 1.356 . S
C1223 C1222 1.363 . S
C1223 C1229 1.363 . S
C1224 C1225 1.363 1_455 S
C1224 C1229 1.379 . S
C1224 N1231 1.356 1_455 S
C1225 C1224 1.363 1_655 S
C1225 C1228 1.363 1_655 S
N1226 C1228 1.356 1_655 S
N1226 H1238 0.984 . S
N1226 H1239 0.985 . S
N1227 C1229 1.356 . S
N1227 H1232 0.984 . S
N1227 H1233 0.985 . S
C1228 C1222 1.379 . S
C1228 C1225 1.363 1_455 S
C1228 N1226 1.356 1_455 S
C1229 C1223 1.363 . S
C1229 C1224 1.379 . S
C1229 N1227 1.356 . S
N1230 C1222 1.356 . S
N1230 H1236 0.984 . S
N1230 H1237 0.984 . S
N1231 C1224 1.356 1_655 S
N1231 H1234 0.984 . S
N1231 H1235 0.985 . S
H1232 N1227 0.984 . S
H1233 N1227 0.985 . S
H1234 N1231 0.984 . S
H1235 N1231 0.985 . S
H1236 N1230 0.984 . S
H1237 N1230 0.984 . S
H1238 N1226 0.984 . S
H1239 N1226 0.985 . S
C1240 C1241 1.363 . S
C1240 C1246 1.379 . S
C1240 N1248 1.356 . S
C1241 C1240 1.363 . S
C1241 C1247 1.363 . S
C1242 C1243 1.363 . S
C1242 C1247 1.379 . S
C1242 N1249 1.356 . S
C1243 C1242 1.363 . S
C1243 C1246 1.363 . S
N1244 C1246 1.356 . S
N1244 H1256 0.984 . S
N1244 H1257 0.985 . S
N1245 C1247 1.356 . S
N1245 H1250 0.984 . S
N1245 H1251 0.985 . S
C1246 C1240 1.379 . S
C1246 C1243 1.363 . S
C1246 N1244 1.356 . S
C1247 C1241 1.363 . S
C1247 C1242 1.379 . S
C1247 N1245 1.356 . S
N1248 C1240 1.356 . S
N1248 H1254 0.984 . S
N1248 H1255 0.984 . S
N1249 C1242 1.356 . S
N1249 H1252 0.984 . S
N1249 H1253 0.985 . S
H1250 N1245 0.984 . S
H1251 N1245 0.985 . S
H1252 N1249 0.984 . S
H1253 N1249 0.985 . S
H1254 N1248 0.984 . S
H1255 N1248 0.984 . S
H1256 N1244 0.984 . S
H1257 N1244 0.985 . S
C1258 C1259 1.363 1_455 S
C1258 C1264 1.379 . S
C1258 N1266 1.356 1_455 S
C1259 C1258 1.363 1_655 S
C1259 C1265 1.363 1_655 S
C1260 C1261 1.363 . S
C1260 C1265 1.379 . S
C1260 N1267 1.356 . S
C1261 C1260 1.363 . S
C1261 C1264 1.363 . S
N1262 C1264 1.356 . S
N1262 H1274 0.984 . S
N1262 H1275 0.985 . S
N1263 C1265 1.356 1_655 S
N1263 H1268 0.984 . S
N1263 H1269 0.985 . S
C1264 C1258 1.379 . S
C1264 C1261 1.363 . S
C1264 N1262 1.356 . S
C1265 C1259 1.363 1_455 S
C1265 C1260 1.379 . S
C1265 N1263 1.356 1_455 S
N1266 C1258 1.356 1_655 S
N1266 H1272 0.984 . S
N1266 H1273 0.984 . S
N1267 C1260 1.356 . S
N1267 H1270 0.984 . S
N1267 H1271 0.985 . S
H1268 N1263 0.984 . S
H1269 N1263 0.985 . S
H1270 N1267 0.984 . S
H1271 N1267 0.985 . S
H1272 N1266 0.984 . S
H1273 N1266 0.984 . S
H1274 N1262 0.984 . S
H1275 N1262 0.985 . S
C1276 C1277 1.363 . S
C1276 C1282 1.379 . S
C1276 N1284 1.356 . S
C1277 C1276 1.363 . S
C1277 C1283 1.363 . S
C1278 C1279 1.363 . S
C1278 C1283 1.379 . S
C1278 N1285 1.356 . S
C1279 C1278 1.363 . S
C1279 C1282 1.363 . S
N1280 C1282 1.356 . S
N1280 H1292 0.984 . S
N1280 H1293 0.985 . S
N1281 C1283 1.356 . S
N1281 H1286 0.984 . S
N1281 H1287 0.985 . S
C1282 C1276 1.379 . S
C1282 C1279 1.363 . S
C1282 N1280 1.356 . S
C1283 C1277 1.363 . S
C1283 C1278 1.379 . S
C1283 N1281 1.356 . S
N1284 C1276 1.356 . S
N1284 H1290 0.984 . S
N1284 H1291 0.984 . S
N1285 C1278 1.356 . S
N1285 H1288 0.984 . S
N1285 H1289 0.985 . S
H1286 N1281 0.984 . S
H1287 N1281 0.985 . S
H1288 N1285 0.984 . S
H1289 N1285 0.985 . S
H1290 N1284 0.984 . S
H1291 N1284 0.984 . S
H1292 N1280 0.984 . S
H1293 N1280 0.985 . S
C1294 C1295 1.363 . S
C1294 C1300 1.379 . S
C1294 N1302 1.356 . S
C1295 C1294 1.363 . S
C1295 C1301 1.363 . S
C1296 C1297 1.363 . S
C1296 C1301 1.379 . S
C1296 N1303 1.356 . S
C1297 C1296 1.363 . S
C1297 C1300 1.363 . S
N1298 C1300 1.356 . S
N1298 H1310 0.984 . S
N1298 H1311 0.985 . S
N1299 C1301 1.356 . S
N1299 H1304 0.984 . S
N1299 H1305 0.985 . S
C1300 C1294 1.379 . S
C1300 C1297 1.363 . S
C1300 N1298 1.356 . S
C1301 C1295 1.363 . S
C1301 C1296 1.379 . S
C1301 N1299 1.356 . S
N1302 C1294 1.356 . S
N1302 H1308 0.984 . S
N1302 H1309 0.984 . S
N1303 C1296 1.356 . S
N1303 H1306 0.984 . S
N1303 H1307 0.985 . S
H1304 N1299 0.984 . S
H1305 N1299 0.985 . S
H1306 N1303 0.984 . S
H1307 N1303 0.985 . S
H1308 N1302 0.984 . S
H1309 N1302 0.984 . S
H1310 N1298 0.984 . S
H1311 N1298 0.985 . S
C1312 C1313 1.363 . S
C1312 C1318 1.379 . S
C1312 N1320 1.356 . S
C1313 C1312 1.363 . S
C1313 C1319 1.363 . S
C1314 C1315 1.363 . S
C1314 C1319 1.379 . S
C1314 N1321 1.356 . S
C1315 C1314 1.363 . S
C1315 C1318 1.363 . S
N1316 C1318 1.356 . S
N1316 H1328 0.984 . S
N1316 H1329 0.985 . S
N1317 C1319 1.356 . S
N1317 H1322 0.984 . S
N1317 H1323 0.985 . S
C1318 C1312 1.379 . S
C1318 C1315 1.363 . S
C1318 N1316 1.356 . S
C1319 C1313 1.363 . S
C1319 C1314 1.379 . S
C1319 N1317 1.356 . S
N1320 C1312 1.356 . S
N1320 H1326 0.984 . S
N1320 H1327 0.984 . S
N1321 C1314 1.356 . S
N1321 H1324 0.984 . S
N1321 H1325 0.985 . S
H1322 N1317 0.984 . S
H1323 N1317 0.985 . S
H1324 N1321 0.984 . S
H1325 N1321 0.985 . S
H1326 N1320 0.984 . S
H1327 N1320 0.984 . S
H1328 N1316 0.984 . S
H1329 N1316 0.985 . S
C1330 C1331 1.363 . S
C1330 C1336 1.379 . S
C1330 N1338 1.356 . S
C1331 C1330 1.363 . S
C1331 C1337 1.363 . S
C1332 C1333 1.363 . S
C1332 C1337 1.379 . S
C1332 N1339 1.356 . S
C1333 C1332 1.363 . S
C1333 C1336 1.363 . S
N1334 C1336 1.356 . S
N1334 H1346 0.984 . S
N1334 H1347 0.985 . S
N1335 C1337 1.356 . S
N1335 H1340 0.984 . S
N1335 H1341 0.985 . S
C1336 C1330 1.379 . S
C1336 C1333 1.363 . S
C1336 N1334 1.356 . S
C1337 C1331 1.363 . S
C1337 C1332 1.379 . S
C1337 N1335 1.356 . S
N1338 C1330 1.356 . S
N1338 H1344 0.984 . S
N1338 H1345 0.984 . S
N1339 C1332 1.356 . S
N1339 H1342 0.984 . S
N1339 H1343 0.985 . S
H1340 N1335 0.984 . S
H1341 N1335 0.985 . S
H1342 N1339 0.984 . S
H1343 N1339 0.985 . S
H1344 N1338 0.984 . S
H1345 N1338 0.984 . S
H1346 N1334 0.984 . S
H1347 N1334 0.985 . S
C1348 C1349 1.363 . S
C1348 C1354 1.379 . S
C1348 N1356 1.356 . S
C1349 C1348 1.363 . S
C1349 C1355 1.363 . S
C1350 C1351 1.363 . S
C1350 C1355 1.379 . S
C1350 N1357 1.356 . S
C1351 C1350 1.363 . S
C1351 C1354 1.363 . S
N1352 C1354 1.356 . S
N1352 H1364 0.984 . S
N1352 H1365 0.985 . S
N1353 C1355 1.356 . S
N1353 H1358 0.984 . S
N1353 H1359 0.985 . S
C1354 C1348 1.379 . S
C1354 C1351 1.363 . S
C1354 N1352 1.356 . S
C1355 C1349 1.363 . S
C1355 C1350 1.379 . S
C1355 N1353 1.356 . S
N1356 C1348 1.356 . S
N1356 H1362 0.984 . S
N1356 H1363 0.984 1_554 S
N1357 C1350 1.356 . S
N1357 H1360 0.984 . S
N1357 H1361 0.985 . S
H1358 N1353 0.984 . S
H1359 N1353 0.985 . S
H1360 N1357 0.984 . S
H1361 N1357 0.985 . S
H1362 N1356 0.984 . S
H1363 N1356 0.984 1_556 S
H1364 N1352 0.984 . S
H1365 N1352 0.985 . S
C1366 C1367 1.363 . S
C1366 C1372 1.379 . S
C1366 N1374 1.356 . S
C1367 C1366 1.363 . S
C1367 C1373 1.363 . S
C1368 C1369 1.363 . S
C1368 C1373 1.379 . S
C1368 N1375 1.356 . S
C1369 C1368 1.363 . S
C1369 C1372 1.363 . S
N1370 C1372 1.356 . S
N1370 H1382 0.984 . S
N1370 H1383 0.985 . S
N1371 C1373 1.356 . S
N1371 H1376 0.984 . S
N1371 H1377 0.985 . S
C1372 C1366 1.379 . S
C1372 C1369 1.363 . S
C1372 N1370 1.356 . S
C1373 C1367 1.363 . S
C1373 C1368 1.379 . S
C1373 N1371 1.356 . S
N1374 C1366 1.356 . S
N1374 H1380 0.984 . S
N1374 H1381 0.984 . S
N1375 C1368 1.356 . S
N1375 H1378 0.984 . S
N1375 H1379 0.985 . S
H1376 N1371 0.984 . S
H1377 N1371 0.985 . S
H1378 N1375 0.984 . S
H1379 N1375 0.985 . S
H1380 N1374 0.984 . S
H1381 N1374 0.984 . S
H1382 N1370 0.984 . S
H1383 N1370 0.985 . S
C1384 C1385 1.363 . S
C1384 C1390 1.379 . S
C1384 N1392 1.356 . S
C1385 C1384 1.363 . S
C1385 C1391 1.363 . S
C1386 C1387 1.363 . S
C1386 C1391 1.379 . S
C1386 N1393 1.356 . S
C1387 C1386 1.363 . S
C1387 C1390 1.363 . S
N1388 C1390 1.356 . S
N1388 H1400 0.984 . S
N1388 H1401 0.985 . S
N1389 C1391 1.356 . S
N1389 H1394 0.984 . S
N1389 H1395 0.985 . S
C1390 C1384 1.379 . S
C1390 C1387 1.363 . S
C1390 N1388 1.356 . S
C1391 C1385 1.363 . S
C1391 C1386 1.379 . S
C1391 N1389 1.356 . S
N1392 C1384 1.356 . S
N1392 H1398 0.984 . S
N1392 H1399 0.984 . S
N1393 C1386 1.356 . S
N1393 H1396 0.984 . S
N1393 H1397 0.985 . S
H1394 N1389 0.984 . S
H1395 N1389 0.985 . S
H1396 N1393 0.984 . S
H1397 N1393 0.985 . S
H1398 N1392 0.984 . S
H1399 N1392 0.984 . S
H1400 N1388 0.984 . S
H1401 N1388 0.985 . S
C1402 C1403 1.363 . S
C1402 C1408 1.379 . S
C1402 N1410 1.356 . S
C1403 C1402 1.363 . S
C1403 C1409 1.363 . S
C1404 C1405 1.363 . S
C1404 C1409 1.379 . S
C1404 N1411 1.356 . S
C1405 C1404 1.363 . S
C1405 C1408 1.363 . S
N1406 C1408 1.356 . S
N1406 H1418 0.984 . S
N1406 H1419 0.985 . S
N1407 C1409 1.356 . S
N1407 H1412 0.984 . S
N1407 H1413 0.985 . S
C1408 C1402 1.379 . S
C1408 C1405 1.363 . S
C1408 N1406 1.356 . S
C1409 C1403 1.363 . S
C1409 C1404 1.379 . S
C1409 N1407 1.356 . S
N1410 C1402 1.356 . S
N1410 H1416 0.984 . S
N1410 H1417 0.984 . S
N1411 C1404 1.356 . S
N1411 H1414 0.984 . S
N1411 H1415 0.985 . S
H1412 N1407 0.984 . S
H1413 N1407 0.985 . S
H1414 N1411 0.984 . S
H1415 N1411 0.985 . S
H1416 N1410 0.984 . S
H1417 N1410 0.984 . S
H1418 N1406 0.984 . S
H1419 N1406 0.985 . S
C1420 C1421 1.363 . S
C1420 C1426 1.379 . S
C1420 N1428 1.356 . S
C1421 C1420 1.363 . S
C1421 C1427 1.363 . S
C1422 C1423 1.363 . S
C1422 C1427 1.379 . S
C1422 N1429 1.356 . S
C1423 C1422 1.363 . S
C1423 C1426 1.363 . S
N1424 C1426 1.356 . S
N1424 H1436 0.984 . S
N1424 H1437 0.985 . S
N1425 C1427 1.356 . S
N1425 H1430 0.984 . S
N1425 H1431 0.985 . S
C1426 C1420 1.379 . S
C1426 C1423 1.363 . S
C1426 N1424 1.356 . S
C1427 C1421 1.363 . S
C1427 C1422 1.379 . S
C1427 N1425 1.356 . S
N1428 C1420 1.356 . S
N1428 H1434 0.984 . S
N1428 H1435 0.984 . S
N1429 C1422 1.356 . S
N1429 H1432 0.984 . S
N1429 H1433 0.985 . S
H1430 N1425 0.984 . S
H1431 N1425 0.985 . S
H1432 N1429 0.984 . S
H1433 N1429 0.985 . S
H1434 N1428 0.984 . S
H1435 N1428 0.984 . S
H1436 N1424 0.984 . S
H1437 N1424 0.985 . S
C1438 C1439 1.363 . S
C1438 C1444 1.379 . S
C1438 N1446 1.356 . S
C1439 C1438 1.363 . S
C1439 C1445 1.363 . S
C1440 C1441 1.363 . S
C1440 C1445 1.379 . S
C1440 N1447 1.356 . S
C1441 C1440 1.363 . S
C1441 C1444 1.363 . S
N1442 C1444 1.356 . S
N1442 H1454 0.984 . S
N1442 H1455 0.985 . S
N1443 C1445 1.356 . S
N1443 H1448 0.984 . S
N1443 H1449 0.985 . S
C1444 C1438 1.379 . S
C1444 C1441 1.363 . S
C1444 N1442 1.356 . S
C1445 C1439 1.363 . S
C1445 C1440 1.379 . S
C1445 N1443 1.356 . S
N1446 C1438 1.356 . S
N1446 H1452 0.984 . S
N1446 H1453 0.984 . S
N1447 C1440 1.356 . S
N1447 H1450 0.984 . S
N1447 H1451 0.985 . S
H1448 N1443 0.984 . S
H1449 N1443 0.985 . S
H1450 N1447 0.984 . S
H1451 N1447 0.985 . S
H1452 N1446 0.984 . S
H1453 N1446 0.984 . S
H1454 N1442 0.984 . S
H1455 N1442 0.985 . S
C1456 C1457 1.363 . S
C1456 C1462 1.379 . S
C1456 N1464 1.356 . S
C1457 C1456 1.363 . S
C1457 C1463 1.363 . S
C1458 C1459 1.363 . S
C1458 C1463 1.379 . S
C1458 N1465 1.356 . S
C1459 C1458 1.363 . S
C1459 C1462 1.363 . S
N1460 C1462 1.356 . S
N1460 H1472 0.984 . S
N1460 H1473 0.985 . S
N1461 C1463 1.356 . S
N1461 H1466 0.984 . S
N1461 H1467 0.985 . S
C1462 C1456 1.379 . S
C1462 C1459 1.363 . S
C1462 N1460 1.356 . S
C1463 C1457 1.363 . S
C1463 C1458 1.379 . S
C1463 N1461 1.356 . S
N1464 C1456 1.356 . S
N1464 H1470 0.984 . S
N1464 H1471 0.984 1_554 S
N1465 C1458 1.356 . S
N1465 H1468 0.984 . S
N1465 H1469 0.985 . S
H1466 N1461 0.984 . S
H1467 N1461 0.985 . S
H1468 N1465 0.984 . S
H1469 N1465 0.985 . S
H1470 N1464 0.984 . S
H1471 N1464 0.984 1_556 S
H1472 N1460 0.984 . S
H1473 N1460 0.985 . S
C1474 C1475 1.363 . S
C1474 C1480 1.379 . S
C1474 N1482 1.356 . S
C1475 C1474 1.363 . S
C1475 C1481 1.363 . S
C1476 C1477 1.363 . S
C1476 C1481 1.379 . S
C1476 N1483 1.356 . S
C1477 C1476 1.363 . S
C1477 C1480 1.363 . S
N1478 C1480 1.356 . S
N1478 H1490 0.984 . S
N1478 H1491 0.985 . S
N1479 C1481 1.356 . S
N1479 H1484 0.984 . S
N1479 H1485 0.985 . S
C1480 C1474 1.379 . S
C1480 C1477 1.363 . S
C1480 N1478 1.356 . S
C1481 C1475 1.363 . S
C1481 C1476 1.379 . S
C1481 N1479 1.356 . S
N1482 C1474 1.356 . S
N1482 H1488 0.984 . S
N1482 H1489 0.984 . S
N1483 C1476 1.356 . S
N1483 H1486 0.984 . S
N1483 H1487 0.985 . S
H1484 N1479 0.984 . S
H1485 N1479 0.985 . S
H1486 N1483 0.984 . S
H1487 N1483 0.985 . S
H1488 N1482 0.984 . S
H1489 N1482 0.984 . S
H1490 N1478 0.984 . S
H1491 N1478 0.985 . S
C1492 C1493 1.363 . S
C1492 C1498 1.379 . S
C1492 N1500 1.356 . S
C1493 C1492 1.363 . S
C1493 C1499 1.363 . S
C1494 C1495 1.363 . S
C1494 C1499 1.379 . S
C1494 N1501 1.356 . S
C1495 C1494 1.363 . S
C1495 C1498 1.363 . S
N1496 C1498 1.356 . S
N1496 H1508 0.984 . S
N1496 H1509 0.985 . S
N1497 C1499 1.356 . S
N1497 H1502 0.984 . S
N1497 H1503 0.985 . S
C1498 C1492 1.379 . S
C1498 C1495 1.363 . S
C1498 N1496 1.356 . S
C1499 C1493 1.363 . S
C1499 C1494 1.379 . S
C1499 N1497 1.356 . S
N1500 C1492 1.356 . S
N1500 H1506 0.984 . S
N1500 H1507 0.984 . S
N1501 C1494 1.356 . S
N1501 H1504 0.984 . S
N1501 H1505 0.985 . S
H1502 N1497 0.984 . S
H1503 N1497 0.985 . S
H1504 N1501 0.984 . S
H1505 N1501 0.985 . S
H1506 N1500 0.984 . S
H1507 N1500 0.984 . S
H1508 N1496 0.984 . S
H1509 N1496 0.985 . S
C1510 C1511 1.363 . S
C1510 C1516 1.379 . S
C1510 N1518 1.356 . S
C1511 C1510 1.363 . S
C1511 C1517 1.363 . S
C1512 C1513 1.363 . S
C1512 C1517 1.379 . S
C1512 N1519 1.356 . S
C1513 C1512 1.363 . S
C1513 C1516 1.363 . S
N1514 C1516 1.356 . S
N1514 H1526 0.984 . S
N1514 H1527 0.985 . S
N1515 C1517 1.356 . S
N1515 H1520 0.984 . S
N1515 H1521 0.985 . S
C1516 C1510 1.379 . S
C1516 C1513 1.363 . S
C1516 N1514 1.356 . S
C1517 C1511 1.363 . S
C1517 C1512 1.379 . S
C1517 N1515 1.356 . S
N1518 C1510 1.356 . S
N1518 H1524 0.984 . S
N1518 H1525 0.984 1_556 S
N1519 C1512 1.356 . S
N1519 H1522 0.984 . S
N1519 H1523 0.985 . S
H1520 N1515 0.984 . S
H1521 N1515 0.985 . S
H1522 N1519 0.984 . S
H1523 N1519 0.985 . S
H1524 N1518 0.984 . S
H1525 N1518 0.984 1_554 S
H1526 N1514 0.984 . S
H1527 N1514 0.985 . S
C1528 C1529 1.363 . S
C1528 C1534 1.379 . S
C1528 N1536 1.356 . S
C1529 C1528 1.363 . S
C1529 C1535 1.363 . S
C1530 C1531 1.363 . S
C1530 C1535 1.379 . S
C1530 N1537 1.356 . S
C1531 C1530 1.363 . S
C1531 C1534 1.363 . S
N1532 C1534 1.356 . S
N1532 H1544 0.984 . S
N1532 H1545 0.985 . S
N1533 C1535 1.356 . S
N1533 H1538 0.984 . S
N1533 H1539 0.985 . S
C1534 C1528 1.379 . S
C1534 C1531 1.363 . S
C1534 N1532 1.356 . S
C1535 C1529 1.363 . S
C1535 C1530 1.379 . S
C1535 N1533 1.356 . S
N1536 C1528 1.356 . S
N1536 H1542 0.984 . S
N1536 H1543 0.984 . S
N1537 C1530 1.356 . S
N1537 H1540 0.984 1_556 S
N1537 H1541 0.985 . S
H1538 N1533 0.984 . S
H1539 N1533 0.985 . S
H1540 N1537 0.984 1_554 S
H1541 N1537 0.985 . S
H1542 N1536 0.984 . S
H1543 N1536 0.984 . S
H1544 N1532 0.984 . S
H1545 N1532 0.985 . S
C1546 C1547 1.363 . S
C1546 C1552 1.379 . S
C1546 N1554 1.356 . S
C1547 C1546 1.363 . S
C1547 C1553 1.363 . S
C1548 C1549 1.363 . S
C1548 C1553 1.379 . S
C1548 N1555 1.356 . S
C1549 C1548 1.363 . S
C1549 C1552 1.363 . S
N1550 C1552 1.356 . S
N1550 H1562 0.984 . S
N1550 H1563 0.985 . S
N1551 C1553 1.356 . S
N1551 H1556 0.984 . S
N1551 H1557 0.985 . S
C1552 C1546 1.379 . S
C1552 C1549 1.363 . S
C1552 N1550 1.356 . S
C1553 C1547 1.363 . S
C1553 C1548 1.379 . S
C1553 N1551 1.356 . S
N1554 C1546 1.356 . S
N1554 H1560 0.984 . S
N1554 H1561 0.984 . S
N1555 C1548 1.356 . S
N1555 H1558 0.984 . S
N1555 H1559 0.985 . S
H1556 N1551 0.984 . S
H1557 N1551 0.985 . S
H1558 N1555 0.984 . S
H1559 N1555 0.985 . S
H1560 N1554 0.984 . S
H1561 N1554 0.984 . S
H1562 N1550 0.984 . S
H1563 N1550 0.985 . S
C1564 C1565 1.363 . S
C1564 C1570 1.379 . S
C1564 N1572 1.356 . S
C1565 C1564 1.363 . S
C1565 C1571 1.363 . S
C1566 C1567 1.363 . S
C1566 C1571 1.379 . S
C1566 N1573 1.356 . S
C1567 C1566 1.363 . S
C1567 C1570 1.363 . S
N1568 C1570 1.356 . S
N1568 H1580 0.984 . S
N1568 H1581 0.985 . S
N1569 C1571 1.356 . S
N1569 H1574 0.984 . S
N1569 H1575 0.985 . S
C1570 C1564 1.379 . S
C1570 C1567 1.363 . S
C1570 N1568 1.356 . S
C1571 C1565 1.363 . S
C1571 C1566 1.379 . S
C1571 N1569 1.356 . S
N1572 C1564 1.356 . S
N1572 H1578 0.984 . S
N1572 H1579 0.984 . S
N1573 C1566 1.356 . S
N1573 H1576 0.984 . S
N1573 H1577 0.985 . S
H1574 N1569 0.984 . S
H1575 N1569 0.985 . S
H1576 N1573 0.984 . S
H1577 N1573 0.985 . S
H1578 N1572 0.984 . S
H1579 N1572 0.984 . S
H1580 N1568 0.984 . S
H1581 N1568 0.985 . S
C1582 C1583 1.363 . S
C1582 C1588 1.379 . S
C1582 N1590 1.356 . S
C1583 C1582 1.363 . S
C1583 C1589 1.363 . S
C1584 C1585 1.363 . S
C1584 C1589 1.379 . S
C1584 N1591 1.356 . S
C1585 C1584 1.363 . S
C1585 C1588 1.363 . S
N1586 C1588 1.356 . S
N1586 H1598 0.984 . S
N1586 H1599 0.985 . S
N1587 C1589 1.356 . S
N1587 H1592 0.984 . S
N1587 H1593 0.985 . S
C1588 C1582 1.379 . S
C1588 C1585 1.363 . S
C1588 N1586 1.356 . S
C1589 C1583 1.363 . S
C1589 C1584 1.379 . S
C1589 N1587 1.356 . S
N1590 C1582 1.356 . S
N1590 H1596 0.984 . S
N1590 H1597 0.984 . S
N1591 C1584 1.356 . S
N1591 H1594 0.984 1_554 S
N1591 H1595 0.985 . S
H1592 N1587 0.984 . S
H1593 N1587 0.985 . S
H1594 N1591 0.984 1_556 S
H1595 N1591 0.985 . S
H1596 N1590 0.984 . S
H1597 N1590 0.984 . S
H1598 N1586 0.984 . S
H1599 N1586 0.985 . S
C449 C11 1.392 . S
C451 C67 1.392 . S
C467 C25 1.392 . S
C469 C81 1.392 . S
C485 C95 1.392 . S
C487 C39 1.392 . S
C503 C109 1.392 . S
C505 C53 1.392 . S
C521 C123 1.392 . S
C523 C179 1.392 . S
C539 C137 1.392 . S
C541 C193 1.392 . S
C557 C207 1.392 . S
C559 C151 1.392 . S
C575 C165 1.392 . S
C577 C221 1.392 . S
C593 C291 1.392 . S
C595 C235 1.392 . S
C611 C305 1.392 . S
C613 C249 1.392 . S
C629 C263 1.392 . S
C631 C319 1.392 . S
C647 C333 1.392 . S
C649 C277 1.392 . S
C665 C347 1.392 . S
C667 C403 1.392 . S
C683 C417 1.392 . S
C685 C361 1.392 . S
C701 C431 1.392 . S
C703 C375 1.392 . S
C719 C389 1.392 . S
C721 C445 1.392 . S
C737 C8 1.347 . S
C739 C391 1.384 . S
C755 C125 1.384 . S
C757 C22 1.347 . S
C773 C36 1.347 . S
C775 C363 1.384 . S
C791 C50 1.346 . S
C793 C153 1.384 . S
C809 C419 1.384 . S
C811 C64 1.346 . S
C827 C209 1.384 . S
C829 C78 1.347 . S
C845 C92 1.347 . S
C847 C447 1.384 . S
C863 C106 1.347 . S
C865 C181 1.384 . S
C881 C279 1.384 . S
C883 C120 1.347 . S
C899 C134 1.347 . S
C901 C13 1.384 . S
C917 C251 1.384 . S
C919 C148 1.347 . S
C935 C162 1.346 . S
C937 C41 1.384 . S
C953 C307 1.384 . S
C955 C176 1.346 . S
C971 C190 1.347 . S
C973 C97 1.384 . S
C989 C335 1.384 . S
C991 C204 1.347 . S
C1007 C218 1.347 . S
C1009 C69 1.384 . S
C1025 C167 1.384 . S
C1027 C232 1.347 . S
C1043 C349 1.384 . S
C1045 C246 1.347 . S
C1061 C139 1.384 . S
C1063 C260 1.347 . S
C1079 C274 1.346 . S
C1081 C377 1.384 . S
C1097 C195 1.384 . S
C1099 C288 1.346 . S
C1115 C433 1.384 . S
C1117 C302 1.347 . S
C1133 C223 1.384 . S
C1135 C316 1.347 . S
C1151 C330 1.347 . S
C1153 C405 1.384 . S
C1169 C344 1.347 . S
C1171 C55 1.384 . S
C1187 C358 1.347 . S
C1189 C237 1.384 . S
C1205 C372 1.347 . S
C1207 C27 1.384 . S
C1223 C386 1.346 . S
C1225 C265 1.384 . S
C1241 C400 1.346 . S
C1243 C83 1.384 . S
C1259 C321 1.384 . S
C1261 C414 1.347 . S
C1277 C111 1.384 . S
C1279 C428 1.347 . S
C1295 C442 1.347 . S
C1297 C293 1.384 . S
C1313 C7 1.251 . S
C1315 C105 1.251 . S
C1331 C21 1.251 . S
C1333 C63 1.251 . S
C1349 C35 1.252 . S
C1351 C77 1.252 . S
C1367 C91 1.251 . S
C1369 C49 1.251 . S
C1385 C217 1.251 . S
C1387 C119 1.251 . S
C1403 C175 1.251 . S
C1405 C133 1.251 . S
C1421 C189 1.252 . S
C1423 C147 1.252 . S
C1439 C203 1.251 . S
C1441 C161 1.251 . S
C1457 C231 1.251 . S
C1459 C329 1.251 . S
C1475 C287 1.251 . S
C1477 C245 1.251 . S
C1493 C301 1.252 . S
C1495 C259 1.252 . S
C1511 C315 1.251 . S
C1513 C273 1.251 . S
C1529 C441 1.251 . S
C1531 C343 1.251 . S
C1547 C357 1.251 . S
C1549 C399 1.251 . S
C1565 C371 1.252 . S
C1567 C413 1.252 . S
C1583 C385 1.251 . S
C1585 C427 1.251 . S
