# Generated by pormake.
# Topology snp, (6)-cn, num edge types: 1
# Building blocks:
#     Node 0, Type 0, BuildingBlock: KUMBUR_clean_sbu_1, # of connection points: 6
#     Node 1, Type 0, BuildingBlock: KUMBUR_clean_sbu_1, # of connection points: 6
#     Node 2, Type 0, BuildingBlock: KUMBUR_clean_sbu_1, # of connection points: 6
#     Node 3, Type 0, BuildingBlock: KUMBUR_clean_sbu_1, # of connection points: 6
#     Edge 4, Type (0, 0), BuildingBlock: KIFKEQ_clean_linker_1, # of connection points: 2
#     Edge 5, Type (0, 0), BuildingBlock: KIFKEQ_clean_linker_1, # of connection points: 2
#     Edge 6, Type (0, 0), BuildingBlock: KIFKEQ_clean_linker_1, # of connection points: 2
#     Edge 7, Type (0, 0), BuildingBlock: KIFKEQ_clean_linker_1, # of connection points: 2
#     Edge 8, Type (0, 0), BuildingBlock: KIFKEQ_clean_linker_1, # of connection points: 2
#     Edge 9, Type (0, 0), BuildingBlock: KIFKEQ_clean_linker_1, # of connection points: 2
#     Edge 10, Type (0, 0), BuildingBlock: KIFKEQ_clean_linker_1, # of connection points: 2
#     Edge 11, Type (0, 0), BuildingBlock: KIFKEQ_clean_linker_1, # of connection points: 2
#     Edge 12, Type (0, 0), BuildingBlock: KIFKEQ_clean_linker_1, # of connection points: 2
#     Edge 13, Type (0, 0), BuildingBlock: KIFKEQ_clean_linker_1, # of connection points: 2
#     Edge 14, Type (0, 0), BuildingBlock: KIFKEQ_clean_linker_1, # of connection points: 2
#     Edge 15, Type (0, 0), BuildingBlock: KIFKEQ_clean_linker_1, # of connection points: 2
# Relax obj value: 0.374
# Max RMSD: 0.306
# Mean RMSD: 0.259
data_MOF--net-snp--node1-KUMBUR_clean_sbu_1--edge1-KIFKEQ_clean_linker_1
_symmetry_space_group_name_H-M    P1
_symmetry_Int_Tables_number       1
_symmetry_cell_setting            triclinic
loop_
_symmetry_equiv_pos_as_xyz
'x, y, z'
_cell_length_a     24.513051
_cell_length_b     24.750716
_cell_length_c     30.614894
_cell_angle_alpha  96.811986
_cell_angle_beta   79.668647
_cell_angle_gamma 153.67756
loop_
_atom_site_label
_atom_site_type_symbol
_atom_site_fract_x
_atom_site_fract_y
_atom_site_fract_z
_atom_type_partial_charge
Tb0 Tb 0.86227 0.65072 0.15175 0.0
C1 C 0.3856 0.11376 0.24605 0.0
N2 N 0.45137 0.21404 0.26314 0.0
C3 C 0.25938 0.09293 0.29228 0.0
C4 C 0.25546 0.00283 0.24807 0.0
C5 C 0.38723 0.19906 0.29064 0.0
C6 C 0.19482 -0.00269 0.26851 0.0
C7 C 0.37596 0.00865 0.22137 0.0
C8 C 0.44478 0.116 0.23315 0.0
C9 C 0.24885 0.90146 0.21961 0.0
C10 C 0.1886 0.89841 0.23319 0.0
Tb11 Tb 0.66015 0.38127 0.25975 0.0
N12 N 0.56739 0.22026 0.23684 0.0
C13 C 0.43439 0.00938 0.21524 0.0
C14 C 0.62101 0.21781 0.23492 0.0
C15 C 0.55581 0.11283 0.22363 0.0
H16 H 0.43347 0.26693 0.31273 0.0
H17 H 0.59684 0.10945 0.22223 0.0
H18 H 0.09941 0.77023 0.10964 0.0
H19 H 0.85434 0.85585 0.20753 0.0
H20 H 0.71141 0.29511 0.24409 0.0
H21 H 0.3842 -0.07176 0.20683 0.0
H22 H 0.75917 0.68135 0.19246 0.0
H23 H 0.20979 0.08264 0.31349 0.0
H24 H 0.19531 0.81908 0.20968 0.0
H25 H 0.08941 0.81338 0.23385 0.0
H26 H 0.32518 -0.02988 0.10481 0.0
H27 H 0.09679 0.91645 0.26921 0.0
H28 H 0.08102 0.0647 0.19643 0.0
N29 N 0.07255 0.82644 0.14604 0.0
C30 C 0.13066 -0.07529 0.15867 0.0
C31 C 0.27113 -0.04198 0.11986 0.0
C32 C 0.26125 0.04417 0.1486 0.0
C33 C 0.1415 0.84295 0.12472 0.0
C34 C 0.33067 0.05904 0.13064 0.0
N35 N -0.06734 0.79213 0.18254 0.0
C36 C 0.85866 0.77247 0.19175 0.0
C37 C 0.11625 0.00928 0.18188 0.0
C38 C 0.05914 0.90752 0.17726 0.0
C39 C 0.04068 -0.01097 0.19369 0.0
C40 C 0.91165 0.87034 0.19934 0.0
H41 H 0.42965 0.1488 0.1229 0.0
H42 H 0.41766 0.23736 0.1428 0.0
H43 H 0.28533 0.20212 0.16344 0.0
O44 O 0.7807 0.63012 0.11202 0.0
O45 O 0.86954 0.68531 0.22273 0.0
O46 O 0.84044 0.5829 0.25936 0.0
O47 O -0.04657 0.74675 0.08624 0.0
O48 O 0.66556 0.49227 0.18477 0.0
O49 O 0.62067 0.43013 0.25761 0.0
O50 O 0.6826 0.34766 0.30738 0.0
O51 O 0.64735 0.33757 0.18925 0.0
O52 O 0.74588 0.47873 0.134 0.0
O53 O 0.60417 0.35718 0.32888 0.0
O54 O 0.85813 0.54974 0.22855 0.0
O55 O 0.90832 0.60126 0.15326 0.0
C56 C 0.85922 0.65233 0.25962 0.0
C57 C 0.91867 0.80629 1.06083 0.0
C58 C -0.07913 0.8864 1.01178 0.0
C59 C -0.01249 -0.02441 1.04162 0.0
C60 C -0.00758 0.90463 0.08547 0.0
C61 C 0.02613 -0.01298 1.07663 0.0
C62 C 0.89539 0.80732 1.02035 0.0
C63 C 0.62423 0.46784 0.22814 0.0
C64 C 0.8725 0.71003 0.07864 0.0
C65 C 0.31807 0.14523 0.15322 0.0
C66 C 0.24439 0.12666 0.16733 0.0
C67 C 0.67578 0.37552 0.14755 0.0
C68 C 0.51303 0.20589 0.36998 0.0
C69 C 0.36924 0.07203 0.44175 0.0
C70 C 0.30045 -0.02723 0.41842 0.0
C71 C 0.44194 0.10307 0.34951 0.0
C72 C 0.47537 0.18965 0.41684 0.0
C73 C 0.33655 -0.01171 0.37314 0.0
C74 C 0.90221 0.56645 0.18791 0.0
C75 C 0.62262 0.3263 0.34125 0.0
H76 H 0.01573 0.04176 1.03696 0.0
H77 H 0.03 -0.07846 0.11051 0.0
H78 H 0.0835 0.06136 0.09742 0.0
H79 H 0.86163 0.75016 0.99543 0.0
H80 H 0.2177 0.88157 0.43548 0.0
H81 H 0.4674 0.11049 0.31488 0.0
H82 H 0.52908 0.26746 0.43373 0.0
H83 H 0.28271 0.91048 0.35618 0.0
Tb84 Tb 0.22271 0.50267 0.7692 0.0
C85 C 0.76488 -0.0087 0.70265 0.0
N86 N 0.66447 -0.07591 0.68899 0.0
C87 C 0.77648 0.10531 0.67714 0.0
C88 C 0.87307 0.11752 0.70542 0.0
C89 C 0.67005 -0.01987 0.67575 0.0
C90 C 0.87811 0.17381 0.69154 0.0
C91 C 0.86325 0.00146 0.72688 0.0
C92 C 0.7634 -0.06444 0.71094 0.0
C93 C -0.03319 0.12506 0.73297 0.0
C94 C -0.02638 0.18368 0.72059 0.0
Tb95 Tb 0.51838 0.73171 0.67582 0.0
N96 N 0.66078 0.81473 0.70551 0.0
C97 C 0.85369 -0.06023 0.73786 0.0
C98 C 0.65467 0.7559 0.71267 0.0
C99 C 0.74975 0.81681 0.73014 0.0
H100 H 0.598 -0.06703 0.66095 0.0
H101 H 0.74163 0.76829 0.7382 0.0
H102 H 0.20049 0.3875 0.83954 0.0
H103 H 0.87763 0.33616 0.73653 0.0
H104 H 0.57502 0.66137 0.7062 0.0
H105 H -0.07517 -0.01392 0.75332 0.0
H106 H 0.08734 0.48201 0.7315 0.0
H107 H 0.78169 0.14977 0.66574 0.0
H108 H 0.04213 0.17598 0.74703 0.0
H109 H 0.05606 0.27962 0.7239 0.0
H110 H 0.03839 0.20725 0.89247 0.0
H111 H -0.03977 0.27039 0.69072 0.0
H112 H 0.69643 0.13365 0.77935 0.0
N113 N 0.07662 0.32874 0.81465 0.0
C114 C -0.04376 0.23903 0.81812 0.0
C115 C 0.01384 0.21465 0.87149 0.0
C116 C 0.8597 0.13287 0.84802 0.0
C117 C 0.10606 0.31727 0.84086 0.0
C118 C 0.89039 0.12279 0.87547 0.0
N119 N 0.02856 0.36603 0.76848 0.0
C120 C 0.01022 0.39553 0.74963 0.0
C121 C 0.80865 0.17061 0.79855 0.0
C122 C -0.06871 0.25811 0.79405 0.0
C123 C 0.78896 0.19815 0.77677 0.0
C124 C 0.89079 0.31214 0.75266 0.0
H125 H 0.81954 0.04472 0.9 0.0
H126 H 0.66121 -0.04053 0.87291 0.0
H127 H 0.61588 -0.00806 0.82933 0.0
O128 O 0.34143 0.66571 0.79444 0.0
O129 O 0.1714 0.45828 0.69915 0.0
O130 O 0.3431 0.57514 0.64692 0.0
O131 O 0.16176 0.4937 0.83215 0.0
O132 O 0.37542 0.68316 0.73788 0.0
O133 O 0.42704 0.7278 0.66657 0.0
O134 O 0.58622 0.72616 0.62873 0.0
O135 O 0.53153 0.74873 0.75064 0.0
O136 O 0.35147 0.55886 0.78955 0.0
O137 O 0.64314 0.85766 0.618 0.0
O138 O 0.39552 0.55289 0.68232 0.0
O139 O 0.25933 0.44812 0.75073 0.0
C140 C 0.22395 0.48523 0.65709 0.0
C141 C 0.32594 0.66514 0.87149 0.0
C142 C 0.41349 0.79369 0.93175 0.0
C143 C 0.45362 0.77973 0.94372 0.0
C144 C 0.3606 0.64704 0.88545 0.0
C145 C 0.42701 0.70666 0.92069 0.0
C146 C 0.35209 0.7382 0.89472 0.0
C147 C 0.37145 0.70513 0.70356 0.0
C148 C 0.26669 0.61206 0.83187 0.0
C149 C 0.73658 0.04255 0.85085 0.0
C150 C 0.71086 0.061 0.82595 0.0
C151 C 0.47413 0.67176 0.78403 0.0
C152 C 0.78617 0.91108 0.58764 0.0
C153 C 0.91465 -0.04195 0.53521 0.0
C154 C 0.02215 0.07471 0.55 0.0
C155 C 0.89444 0.03022 0.60076 0.0
C156 C 0.79751 0.87535 0.55614 0.0
C157 C 0.01142 0.10974 0.58323 0.0
C158 C 0.31307 0.4642 0.71475 0.0
C159 C 0.65913 0.82045 0.60388 0.0
H160 H 0.49813 0.8184 0.97281 0.0
H161 H 0.33543 0.5861 0.86941 0.0
H162 H 0.45441 0.69308 0.9311 0.0
H163 H 0.32029 0.74774 0.88519 0.0
H164 H 0.11383 0.14007 0.53462 0.0
H165 H 0.88968 0.06266 0.62375 0.0
H166 H 0.71404 0.78364 0.54595 0.0
H167 H 0.0944 0.20016 0.59421 0.0
Tb168 Tb -0.07351 0.13877 0.23396 0.0
C169 C 0.40139 0.61073 0.29254 0.0
N170 N 0.45786 0.70992 0.29721 0.0
C171 C 0.26204 0.58278 0.31412 0.0
C172 C 0.27211 0.4933 0.2967 0.0
C173 C 0.39131 0.69855 0.30532 0.0
C174 C 0.20291 0.48038 0.31123 0.0
C175 C 0.4175 0.52633 0.28141 0.0
C176 C 0.47087 0.62414 0.29042 0.0
C177 C 0.29153 0.41194 0.27825 0.0
C178 C 0.21802 0.394 0.28923 0.0
Tb179 Tb 0.63869 0.8624 0.32035 0.0
N180 N 0.58784 0.73076 0.30071 0.0
C181 C 0.49051 0.54467 0.27914 0.0
C182 C 0.64986 0.73977 0.30646 0.0
C183 C 0.60466 0.64885 0.29389 0.0
H184 H 0.43674 0.77723 0.31097 0.0
H185 H 0.65763 0.65936 0.29543 0.0
H186 H 0.07258 0.15063 0.19904 0.0
H187 H 0.08679 0.48653 0.24844 0.0
H188 H 0.72975 0.81201 0.32252 0.0
H189 H 0.45957 0.47946 0.26595 0.0
H190 H -0.05119 0.28874 0.26976 0.0
H191 H 0.20805 0.57226 0.32455 0.0
H192 H 0.24809 0.33471 0.27117 0.0
H193 H 0.12019 0.30236 0.29153 0.0
H194 H 0.26169 0.28798 0.14573 0.0
H195 H 0.10394 0.39296 0.32091 0.0
H196 H 0.28998 0.64587 0.19925 0.0
N197 N 0.12013 0.27644 0.20355 0.0
C198 C 0.20419 0.38821 0.1897 0.0
C199 C 0.24752 0.31806 0.15841 0.0
C200 C 0.31156 0.46847 0.15847 0.0
C201 C 0.14181 0.24151 0.18944 0.0
C202 C 0.33026 0.43009 0.14173 0.0
N203 N 0.067 0.33204 0.2321 0.0
C204 C 0.03373 0.35529 0.24717 0.0
C205 C 0.26162 0.53368 0.19268 0.0
C206 C 0.1776 0.41824 0.20529 0.0
C207 C 0.22853 0.55858 0.20843 0.0
C208 C 0.11344 0.46845 0.23573 0.0
H209 H 0.40589 0.48418 0.11529 0.0
H210 H 0.46997 0.64009 0.11727 0.0
H211 H 0.43744 0.70574 0.15208 0.0
O212 O 0.87392 0.14013 0.18832 0.0
O213 O -0.05805 0.19333 0.30589 0.0
O214 O 0.7843 0.02249 0.35779 0.0
O215 O -0.05477 0.12254 0.16639 0.0
O216 O 0.74179 0.01095 0.2413 0.0
O217 O 0.66257 -0.02916 0.3101 0.0
O218 O 0.54004 0.73207 0.3683 0.0
O219 O 0.64091 0.83273 0.24549 0.0
O220 O 0.84175 -0.01647 0.22164 0.0
O221 O 0.52226 0.80286 0.37626 0.0
O222 O 0.80151 -0.03539 0.33346 0.0
O223 O -0.05606 0.08251 0.26705 0.0
C224 C 0.88932 0.14175 0.34883 0.0
C225 C 0.00089 0.23664 0.11727 0.0
C226 C 0.1491 0.43503 0.08967 0.0
C227 C 0.18963 0.43414 1.05125 0.0
C228 C 0.04216 0.23711 0.07873 0.0
C229 C 0.1356 0.33521 1.04576 0.0
C230 C 0.05189 0.33402 0.12182 0.0
C231 C 0.70439 0.01949 0.27 0.0
C232 C 0.91366 0.14014 0.15399 0.0
C233 C 0.39281 0.58124 0.14384 0.0
C234 C 0.37158 0.61667 0.16264 0.0
C235 C 0.72462 0.87524 0.21656 0.0
C236 C 0.48601 0.72301 0.44112 0.0
C237 C 0.47584 0.65565 0.50074 0.0
C238 C 0.4813 0.70793 0.53101 0.0
C239 C 0.49351 0.7759 0.47157 0.0
C240 C 0.47266 0.65961 0.45623 0.0
C241 C 0.48957 0.76682 0.51653 0.0
C242 C 0.90293 0.03428 0.30752 0.0
C243 C 0.48877 0.72868 0.39344 0.0
H244 H 0.26261 0.50958 1.02527 0.0
H245 H 0.00386 0.16274 1.07461 0.0
H246 H 0.1676 0.33549 1.01618 0.0
H247 H 0.02068 0.33442 0.15144 0.0
H248 H 0.48058 0.70549 0.56592 0.0
H249 H 0.50178 0.82339 0.46077 0.0
H250 H 0.45966 0.61304 0.43282 0.0
H251 H 0.49448 0.80687 0.54027 0.0
Tb252 Tb -0.04706 0.74734 0.87218 0.0
C253 C 0.46771 0.32076 0.92183 0.0
N254 N 0.55001 0.36257 0.89035 0.0
C255 C 0.54927 0.29466 0.94028 0.0
C256 C 0.43693 0.27954 0.9656 0.0
C257 C 0.57457 0.33237 0.89736 0.0
C258 C 0.48558 0.27404 0.97515 0.0
C259 C 0.34123 0.29131 0.94348 0.0
C260 C 0.42331 0.33006 0.91142 0.0
C261 C 0.31024 0.24989 0.98701 0.0
C262 C 0.36104 0.24762 0.99839 0.0
Tb263 Tb 0.62886 0.47486 0.82874 0.0
N264 N 0.47545 0.39384 0.87215 0.0
C265 C 0.30047 0.30423 0.93176 0.0
C266 C 0.43943 0.41072 0.86111 0.0
C267 C 0.34833 0.36244 0.89007 0.0
H268 H 0.61214 0.33532 0.87058 0.0
H269 H 0.31877 0.37448 0.88098 0.0
H270 H 0.18355 -0.08059 0.78296 0.0
H271 H 0.86665 0.5868 1.02865 0.0
H272 H 0.4826 0.46359 0.83041 0.0
H273 H 0.23541 0.27333 0.95514 0.0
H274 H 0.84486 0.63426 0.97847 0.0
H275 H 0.57858 0.28113 0.94609 0.0
H276 H 0.25154 0.22456 1.01257 0.0
H277 H 0.33898 0.21863 1.03245 0.0
H278 H 0.33264 -0.02255 0.7558 0.0
H279 H 0.46873 0.24754 1.00863 0.0
H280 H -0.01673 0.60439 1.00144 0.0
N281 N 0.09278 0.80226 0.83961 0.0
C282 C 0.10005 0.76728 0.86472 0.0
C283 C 0.2663 0.91644 0.78605 0.0
C284 C 0.19042 0.80512 0.85107 0.0
C285 C 0.17746 0.87917 0.80115 0.0
C286 C 0.2731 0.87961 0.8111 0.0
N287 N -0.0514 0.67978 0.92077 0.0
C288 C 0.89319 0.63962 0.96457 0.0
C289 C 0.03754 0.67431 0.93463 0.0
C290 C 0.02518 0.70349 0.90638 0.0
C291 C -0.02641 0.62497 0.97841 0.0
C292 C 0.90534 0.61232 0.99378 0.0
H293 H 0.3453 0.91263 0.79998 0.0
H294 H 0.26844 0.80095 0.86884 0.0
H295 H 0.13119 0.68257 0.94107 0.0
O296 O 0.00833 0.84724 0.92435 0.0
O297 O -0.01756 0.77457 0.7985 0.0
O298 O 0.79048 0.59968 0.77233 0.0
O299 O 0.14432 -0.06379 0.8691 0.0
O300 O 0.83341 0.57197 0.86464 0.0
O301 O 0.72818 0.4835 0.80719 0.0
O302 O 0.48644 0.3024 0.80395 0.0
O303 O 0.65774 0.56101 0.8883 0.0
O304 O 0.78544 0.6277 0.92465 0.0
O305 O 0.53334 0.42216 0.78323 0.0
O306 O 0.7548 0.64994 0.80439 0.0
O307 O 0.88135 0.76049 0.85663 0.0
C308 C 0.91554 0.70931 0.76557 0.0
C309 C 0.19154 -0.02102 0.94215 0.0
C310 C 0.27778 -0.02283 0.96875 0.0
C311 C 0.25671 -0.01332 1.01209 0.0
C312 C 0.17269 -0.01089 0.98562 0.0
C313 C 0.20564 -0.00644 1.02042 0.0
C314 C 0.25039 -0.02064 0.93333 0.0
C315 C 0.80992 0.53093 0.82544 0.0
C316 C 0.12602 -0.0568 0.90987 0.0
C317 C 0.19905 0.77183 0.87851 0.0
C318 C 0.12114 0.70462 0.91976 0.0
C319 C 0.69563 0.58536 0.92619 0.0
C320 C 0.4815 0.30975 0.72816 0.0
C321 C 0.51213 0.35401 0.65005 0.0
C322 C 0.51811 0.30299 0.63672 0.0
C323 C 0.48745 0.25873 0.71425 0.0
C324 C 0.4911 0.35443 0.6958 0.0
C325 C 0.50551 0.25541 0.66876 0.0
C326 C 0.85818 0.75619 0.81959 0.0
C327 C 0.47217 0.32365 0.77571 0.0
H328 H 0.28567 -0.00507 1.03932 0.0
H329 H 0.13278 -0.0057 0.9924 0.0
H330 H 0.19326 0.004 1.05381 0.0
H331 H 0.27161 -0.02195 0.89964 0.0
H332 H 0.53365 0.301 0.60167 0.0
H333 H 0.47961 0.22272 0.73834 0.0
H334 H 0.48362 0.39125 0.70633 0.0
H335 H 0.51035 0.21632 0.65829 0.0
H336 H 0.05257 0.18017 0.37046 0.0
H337 H 0.91073 -0.06545 0.27914 0.0
H338 H 0.24444 0.29622 0.36296 0.0
H339 H 0.09097 0.03602 0.27738 0.0
H340 H 0.46373 0.37667 0.18689 0.0
H341 H 0.2611 0.23434 0.22831 0.0
H342 H 0.39516 0.35117 0.3527 0.0
H343 H 0.59724 0.49729 0.31171 0.0
C344 C 0.05985 0.14731 0.35094 0.0
C345 C -0.02713 0.05477 0.32308 0.0
C346 C 0.16803 0.21172 0.34732 0.0
C347 C 0.18444 0.17883 0.31683 0.0
C348 C 0.08242 0.06687 0.29858 0.0
C349 C -0.02094 0.00815 0.29988 0.0
C350 C 0.44833 0.37093 0.22287 0.0
C351 C 0.54083 0.44009 0.24628 0.0
C352 C 0.33245 0.28673 0.24647 0.0
C353 C 0.30952 0.27276 0.29353 0.0
C354 C 0.40868 0.35589 0.31663 0.0
C355 C 0.52512 0.4419 0.29288 0.0
H356 H 0.08479 -0.01468 0.84021 0.0
H357 H 0.85942 0.7911 0.73731 0.0
H358 H 0.24349 0.17676 0.8 0.0
H359 H 0.0143 -0.01604 0.69803 0.0
H360 H 0.23349 0.31697 0.65296 0.0
H361 H 0.16937 0.16774 0.66516 0.0
H362 H 0.27383 0.28852 0.79685 0.0
H363 H 0.34984 0.44274 0.78141 0.0
C364 C 0.06772 -0.01646 0.80928 0.0
C365 C -0.04488 0.87271 0.79356 0.0
C366 C 0.15953 0.0945 0.78592 0.0
C367 C 0.13899 0.09835 0.74732 0.0
C368 C 0.03325 -0.01285 0.72854 0.0
C369 C -0.05822 0.87534 0.75168 0.0
C370 C 0.24879 0.31495 0.68322 0.0
C371 C 0.29617 0.39065 0.71643 0.0
C372 C 0.20909 0.22719 0.69095 0.0
C373 C 0.2124 0.21142 0.73267 0.0
C374 C 0.26986 0.29556 0.76395 0.0
C375 C 0.31216 0.38422 0.75561 0.0
H376 H 0.69988 0.0467 0.18718 0.0
H377 H 0.73177 0.14319 0.32071 0.0
H378 H 0.80154 0.21478 0.15748 0.0
H379 H 0.8163 0.30099 0.29199 0.0
H380 H 0.012 0.61175 0.24472 0.0
H381 H -0.01736 0.49213 0.25901 0.0
H382 H 0.81166 0.30887 0.14075 0.0
H383 H 0.8587 0.44305 0.12375 0.0
C384 C 0.72908 0.10454 0.21042 0.0
C385 C 0.71826 0.08827 0.25601 0.0
C386 C 0.78677 0.20127 0.19322 0.0
C387 C 0.82632 0.2796 0.22152 0.0
C388 C 0.79664 0.25012 0.26819 0.0
C389 C 0.74296 0.1556 0.2852 0.0
C390 C -0.02639 0.55006 0.22049 0.0
C391 C -0.06895 0.5322 0.18422 0.0
C392 C -0.04613 0.4786 0.22932 0.0
C393 C 0.88552 0.38245 0.20332 0.0
C394 C 0.86069 0.37798 0.16302 0.0
C395 C 0.88576 0.45401 0.15326 0.0
H396 H 0.37559 0.78676 0.7731 0.0
H397 H 0.247 0.64764 0.64663 0.0
H398 H 0.2223 0.72184 0.79919 0.0
H399 H 0.09869 0.5937 0.67154 0.0
H400 H 0.89675 0.58325 0.73587 0.0
H401 H 0.04295 0.64002 0.69935 0.0
H402 H 0.00435 0.5352 0.82316 0.0
H403 H 0.86555 0.48737 0.85997 0.0
C404 C 0.31402 0.7419 0.75068 0.0
C405 C 0.31583 0.712 0.70934 0.0
C406 C 0.22666 0.70637 0.76557 0.0
C407 C 0.14308 0.64731 0.73859 0.0
C408 C 0.15906 0.6361 0.69395 0.0
C409 C 0.24522 0.6684 0.67934 0.0
C410 C 0.92025 0.57327 0.75532 0.0
C411 C 0.87474 0.5373 0.80147 0.0
C412 C 0.00341 0.60467 0.73417 0.0
C413 C 0.04041 0.5973 0.75845 0.0
C414 C -0.01685 0.54776 0.80355 0.0
C415 C 0.90247 0.51921 0.82479 0.0
H416 H 0.05543 -0.01227 0.50991 0.0
H417 H 0.78809 0.8541 0.46825 0.0
H418 H 0.04734 0.91519 0.44332 0.0
H419 H 0.76597 0.76782 0.40715 0.0
H420 H 0.8303 0.73545 0.27575 0.0
H421 H 0.8604 0.82094 0.33994 0.0
H422 H -0.0708 0.74322 0.40675 0.0
H423 H 0.90687 0.66308 0.33885 0.0
C424 C -0.00534 -0.05769 0.48675 0.0
C425 C -0.07955 -0.07585 0.49457 0.0
C426 C -0.01178 0.89891 0.44915 0.0
C427 C 0.9063 0.83571 0.41951 0.0
C428 C 0.83326 0.81896 0.42794 0.0
C429 C 0.84353 0.86608 0.46388 0.0
C430 C 0.85457 0.73861 0.30338 0.0
C431 C 0.86832 0.69444 0.30167 0.0
C432 C 0.87041 0.78668 0.34098 0.0
C433 C 0.89743 0.78964 0.37899 0.0
C434 C 0.91013 0.74409 0.37786 0.0
C435 C 0.89557 0.6966 0.33933 0.0
H436 H 0.60073 0.00713 0.97387 0.0
H437 H 0.21042 0.67724 0.96635 0.0
H438 H 0.55351 -0.0097 1.05423 0.0
H439 H 0.16462 0.66196 1.04538 0.0
H440 H 0.04075 0.43889 0.12439 0.0
H441 H 0.13651 0.61216 0.11731 0.0
H442 H 0.4923 0.84651 1.06618 0.0
H443 H 0.39695 0.67538 1.07268 0.0
C444 C 0.5061 -0.06445 0.98883 0.0
C445 C 0.4075 0.83748 0.9647 0.0
C446 C 0.47859 -0.07437 1.03505 0.0
C447 C 0.35333 0.81306 1.05622 0.0
C448 C 0.26181 0.7424 1.03043 0.0
C449 C 0.28812 0.75173 0.98435 0.0
C450 C 0.1401 0.52838 0.11267 0.0
C451 C 0.20998 0.54233 0.09616 0.0
C452 C 0.19543 0.6282 0.10912 0.0
C453 C 0.31972 0.74143 0.08742 0.0
C454 C 0.39437 0.75979 0.08047 0.0
C455 C 0.33917 0.66047 0.08328 0.0
H456 H 0.4064 0.25985 0.57464 0.0
H457 H 0.65521 0.57113 0.65098 0.0
H458 H 0.4032 0.33201 0.52891 0.0
H459 H 0.65177 0.64249 0.60566 0.0
H460 H 0.55629 0.62779 0.44981 0.0
H461 H 0.57399 0.55511 0.47647 0.0
H462 H 0.42714 0.49579 0.6099 0.0
H463 H 0.40213 0.55971 0.58379 0.0
C464 C 0.4626 0.34491 0.58085 0.0
C465 C 0.5282 0.40802 0.61702 0.0
C466 C 0.46138 0.38644 0.55459 0.0
C467 C 0.52661 0.49201 0.56417 0.0
C468 C 0.60033 0.56037 0.5979 0.0
C469 C 0.60132 0.51895 0.62402 0.0
C470 C 0.52294 0.59507 0.48466 0.0
C471 C 0.477 0.60055 0.51481 0.0
C472 C 0.53433 0.55426 0.49978 0.0
C473 C 0.50199 0.52034 0.54528 0.0
C474 C 0.45147 0.52039 0.57462 0.0
C475 C 0.43814 0.5585 0.55951 0.0
H476 H 0.21289 0.83177 1.01375 0.0
H477 H 0.48673 0.12367 0.90856 0.0
H478 H 0.37488 -0.05613 1.0493 0.0
H479 H 0.65178 0.23473 0.94298 0.0
H480 H 0.68344 0.40048 1.06206 0.0
H481 H 0.65098 0.31045 0.99943 0.0
H482 H 0.55289 0.09724 0.08439 0.0
H483 H 0.60487 0.20434 0.14718 0.0
C484 C 0.30791 0.91607 0.99615 0.0
C485 C 0.33983 -0.02219 0.96215 0.0
C486 C 0.40219 -0.01863 1.01682 0.0
C487 C 0.52641 0.10478 1.00182 0.0
C488 C 0.55573 0.14343 0.95756 0.0
C489 C 0.46098 0.07976 0.93768 0.0
C490 C 0.66321 0.34084 1.06727 0.0
C491 C 0.64982 0.31253 0.11002 0.0
C492 C 0.64207 0.28652 1.03094 0.0
C493 C 0.59655 0.19375 1.03624 0.0
C494 C 0.58736 0.16787 0.07873 0.0
C495 C 0.61413 0.22704 0.11515 0.0
H496 H 0.73032 0.8986 0.12707 0.0
H497 H 0.65227 0.7021 0.20985 0.0
H498 H 0.68599 0.79769 1.0632 0.0
H499 H 0.61168 0.60361 0.14695 0.0
H500 H 0.65081 0.51779 1.01489 0.0
H501 H 0.63093 0.56128 0.08474 0.0
H502 H 0.57815 0.65026 1.01424 0.0
H503 H 0.58777 0.59627 0.9451 0.0
C504 C 0.70418 0.83416 0.13223 0.0
C505 C 0.69105 0.80709 0.17588 0.0
C506 C 0.68072 0.77669 0.09451 0.0
C507 C 0.64624 0.69083 0.09735 0.0
C508 C 0.63714 0.66723 0.141 0.0
C509 C 0.65801 0.72279 0.17857 0.0
C510 C 0.63463 0.54638 1.01383 0.0
C511 C 0.64137 0.57204 0.97175 0.0
C512 C 0.62454 0.57346 1.05474 0.0
C513 C 0.62137 0.62836 1.05584 0.0
C514 C 0.59683 0.6242 1.01544 0.0
C515 C 0.60289 0.59317 0.97492 0.0
H516 H 0.31543 0.12376 0.49582 0.0
H517 H 0.31633 -0.04871 0.50136 0.0
H518 H 0.20454 0.03921 0.57382 0.0
H519 H 0.20459 0.86606 0.5779 0.0
H520 H 0.84248 0.6003 0.68664 0.0
H521 H -0.03961 0.69908 0.61047 0.0
H522 H 0.25631 0.05315 0.65954 0.0
H523 H 0.14443 -0.04411 0.73606 0.0
C524 C 0.29519 0.07081 0.51376 0.0
C525 C 0.32592 0.04523 0.49178 0.0
C526 C 0.23066 0.02146 0.55841 0.0
C527 C 0.19453 -0.05522 0.58216 0.0
C528 C 0.22933 -0.07671 0.5607 0.0
C529 C 0.29446 -0.02677 0.5167 0.0
C530 C -0.06651 0.69935 0.68146 0.0
C531 C -0.01542 0.76928 0.71824 0.0
C532 C 0.00095 0.75609 0.63761 0.0
C533 C 0.11913 0.88469 0.62869 0.0
C534 C 0.16711 -0.0455 0.66506 0.0
C535 C 0.10239 0.89806 0.70912 0.0
H536 H 0.40045 0.53295 0.84633 0.0
H537 H 0.71436 0.90893 0.80334 0.0
H538 H 0.51789 0.59903 0.89778 0.0
H539 H 0.83719 -0.02677 0.85039 0.0
H540 H 0.89571 0.82872 0.92333 0.0
H541 H 0.79127 0.78198 0.87069 0.0
H542 H 0.75935 0.89999 0.96045 0.0
H543 H 0.85906 -0.05682 1.01265 0.0
C544 C 0.49524 0.62987 0.84665 0.0
C545 C 0.54743 0.7143 0.81791 0.0
C546 C 0.56343 0.66798 0.87659 0.0
C547 C 0.68823 0.79269 0.87946 0.0
C548 C 0.74053 0.8771 0.85102 0.0
C549 C 0.67072 0.83927 0.82234 0.0
C550 C 0.86525 0.84294 0.93204 0.0
C551 C 0.87733 0.8787 0.97481 0.0
C552 C 0.80747 0.81842 0.90142 0.0
C553 C 0.76275 0.83292 0.91099 0.0
C554 C 0.78754 0.88265 0.95157 0.0
C555 C 0.84477 0.90651 0.98219 0.0
H556 H 0.1274 0.33141 0.37246 0.0
H557 H 0.77858 0.10297 0.42864 0.0
H558 H 0.1933 0.40203 0.4451 0.0
H559 H 0.84669 0.17757 0.50189 0.0
H560 H 0.08665 0.44359 0.62357 0.0
H561 H 0.01056 0.3706 0.55126 0.0
H562 H 0.13168 0.31044 0.52217 0.0
H563 H 0.19614 0.37235 0.59555 0.0
C564 C 0.06537 0.29884 0.39924 0.0
C565 C -0.05247 0.21266 0.39176 0.0
C566 C 0.10324 0.33877 0.4423 0.0
C567 C 0.02701 0.29736 0.48122 0.0
C568 C 0.91086 0.21451 0.47382 0.0
C569 C 0.8717 0.17192 0.43089 0.0
C570 C 0.09556 0.41308 0.6023 0.0
C571 C 0.15337 0.41933 0.61622 0.0
C572 C 0.05206 0.37131 0.56001 0.0
C573 C 0.06662 0.33629 0.5286 0.0
C574 C 0.12049 0.33894 0.54348 0.0
C575 C 0.15961 0.37649 0.58605 0.0
loop_
_geom_bond_atom_site_label_1
_geom_bond_atom_site_label_2
_geom_bond_distance
_geom_bond_site_symmetry_2
_ccdc_geom_bond_type
Tb0 N29 2.616 1_655 S
Tb0 N35 2.572 1_655 S
Tb0 O44 2.465 . S
Tb0 O45 2.387 . S
Tb0 O47 2.428 1_655 S
Tb0 O48 2.308 . S
Tb0 O52 2.349 . S
Tb0 O55 2.393 1_655 S
Tb0 C64 2.802 1_655 S
C1 N2 1.379 . S
C1 C4 1.416 1_545 S
C1 C8 1.424 . S
N2 C1 1.379 . S
N2 C5 1.334 . S
N2 Tb11 2.617 . S
C3 C5 1.390 1_565 S
C3 C6 1.339 . S
C3 H23 0.930 . S
C4 C1 1.416 1_565 S
C4 C6 1.416 . S
C4 C10 1.448 . S
C5 N2 1.334 . S
C5 C3 1.390 1_545 S
C5 H16 0.930 . S
C6 C3 1.339 . S
C6 C4 1.416 . S
C6 H27 0.930 1_455 S
C7 C8 1.413 1_565 S
C7 C9 1.427 . S
C7 C13 1.416 . S
C8 C1 1.424 . S
C8 C7 1.413 1_545 S
C8 N12 1.361 . S
C9 C7 1.427 . S
C9 C10 1.328 . S
C9 H24 0.929 . S
C10 C4 1.448 . S
C10 C9 1.328 . S
C10 H25 0.930 1_455 S
Tb11 N2 2.617 . S
Tb11 N12 2.572 . S
Tb11 O46 2.349 . S
Tb11 O49 2.393 . S
Tb11 O50 2.465 . S
Tb11 O51 2.387 . S
Tb11 O53 2.428 . S
Tb11 O54 2.308 . S
Tb11 C75 2.802 . S
N12 C8 1.361 . S
N12 Tb11 2.572 . S
N12 C14 1.340 . S
C13 C7 1.416 . S
C13 C15 1.332 1_565 S
C13 H21 0.931 . S
C14 N12 1.340 . S
C14 C15 1.407 . S
C14 H20 0.930 . S
C15 C13 1.332 1_545 S
C15 C14 1.407 . S
C15 H17 0.929 . S
H16 C5 0.930 . S
H17 C15 0.929 . S
H18 C33 0.930 1_565 S
H19 C40 0.929 . S
H20 C14 0.930 . S
H21 C13 0.931 . S
H22 C36 0.930 1_655 S
H23 C3 0.930 . S
H24 C9 0.929 . S
H25 C10 0.930 1_655 S
H26 C31 0.930 . S
H27 C6 0.930 1_655 S
H28 C39 0.931 . S
N29 Tb0 2.616 1_455 S
N29 C30 1.372 1_565 S
N29 C33 1.343 1_565 S
C30 N29 1.372 1_545 S
C30 C32 1.416 . S
C30 C38 1.424 . S
C31 H26 0.930 . S
C31 C33 1.390 . S
C31 C34 1.339 . S
C32 C30 1.416 . S
C32 C34 1.416 . S
C32 C65 1.448 . S
C33 H18 0.930 1_545 S
C33 N29 1.343 1_545 S
C33 C31 1.390 . S
C34 C31 1.339 . S
C34 C32 1.416 . S
C34 H41 0.930 . S
N35 Tb0 2.572 1_455 S
N35 C36 1.340 . S
N35 C38 1.361 1_565 S
C36 H22 0.930 1_455 S
C36 N35 1.340 . S
C36 C40 1.407 1_565 S
C37 C38 1.413 . S
C37 C39 1.416 . S
C37 C66 1.427 . S
C38 C30 1.424 . S
C38 N35 1.361 1_545 S
C38 C37 1.413 . S
C39 H28 0.931 . S
C39 C37 1.416 . S
C39 C40 1.332 . S
C40 H19 0.929 . S
C40 C36 1.407 1_545 S
C40 C39 1.332 . S
H41 C34 0.930 . S
H42 C65 0.930 . S
H43 C66 0.929 . S
O44 Tb0 2.465 . S
O44 C64 1.264 1_655 S
O45 Tb0 2.387 . S
O45 C56 1.264 . S
O46 Tb11 2.349 . S
O46 C56 1.243 . S
O47 Tb0 2.428 1_455 S
O47 C64 1.256 . S
O48 Tb0 2.308 . S
O48 C63 1.266 . S
O49 Tb11 2.393 . S
O49 C63 1.248 . S
O50 Tb11 2.465 . S
O50 C75 1.264 . S
O51 Tb11 2.387 . S
O51 C67 1.264 . S
O52 Tb0 2.349 . S
O52 C67 1.243 . S
O53 Tb11 2.428 . S
O53 C75 1.256 . S
O54 Tb11 2.308 . S
O54 C74 1.266 . S
O55 Tb0 2.393 1_455 S
O55 C74 1.248 1_455 S
C56 O45 1.264 . S
C56 O46 1.243 . S
C57 C60 1.399 1_554 S
C57 C62 1.375 1_554 S
C57 C64 1.496 . S
C58 C59 1.399 1_565 S
C58 C62 1.404 . S
C59 C58 1.399 1_545 S
C59 C61 1.380 . S
C59 H76 0.929 . S
C60 C57 1.399 1_556 S
C60 C61 1.392 1_565 S
C60 H77 0.929 1_565 S
C61 C59 1.380 . S
C61 C60 1.392 1_545 S
C61 H78 0.929 . S
C62 C57 1.375 1_556 S
C62 C58 1.404 . S
C62 H79 0.925 1_456 S
C63 O48 1.266 . S
C63 O49 1.248 . S
C64 Tb0 2.802 1_455 S
C64 O44 1.264 1_455 S
C64 O47 1.256 . S
C64 C57 1.496 . S
C65 C32 1.448 . S
C65 H42 0.930 . S
C65 C66 1.328 . S
C66 C37 1.427 . S
C66 H43 0.929 . S
C66 C65 1.328 . S
C67 O51 1.264 . S
C67 O52 1.243 . S
C68 C71 1.399 . S
C68 C72 1.383 . S
C68 C75 1.496 . S
C69 C70 1.399 . S
C69 C72 1.389 . S
C70 C69 1.399 . S
C70 C73 1.380 . S
C70 H80 0.929 . S
C71 C68 1.399 . S
C71 C73 1.392 . S
C71 H81 0.929 . S
C72 C68 1.383 . S
C72 C69 1.389 . S
C72 H82 0.931 . S
C73 C70 1.380 . S
C73 C71 1.392 . S
C73 H83 0.929 . S
C74 O54 1.266 . S
C74 O55 1.248 1_655 S
C75 Tb11 2.802 . S
C75 O50 1.264 . S
C75 O53 1.256 . S
C75 C68 1.496 . S
H76 C59 0.929 . S
H77 C60 0.929 1_545 S
H78 C61 0.929 . S
H79 C62 0.925 1_654 S
H80 C70 0.929 . S
H81 C71 0.929 . S
H82 C72 0.931 . S
H83 C73 0.929 . S
Tb84 N113 2.617 . S
Tb84 N119 2.572 . S
Tb84 O128 2.465 . S
Tb84 O129 2.387 . S
Tb84 O131 2.428 . S
Tb84 O132 2.308 . S
Tb84 O136 2.349 . S
Tb84 O139 2.393 . S
Tb84 C148 2.802 . S
C85 N86 1.379 . S
C85 C88 1.416 . S
C85 C92 1.424 . S
N86 C85 1.379 . S
N86 C89 1.334 . S
N86 Tb95 2.617 1_445 S
C87 C89 1.390 . S
C87 C90 1.339 . S
C87 H107 0.930 . S
C88 C85 1.416 . S
C88 C90 1.416 . S
C88 C94 1.448 . S
C89 N86 1.334 . S
C89 C87 1.390 . S
C89 H100 0.930 1_455 S
C90 C87 1.339 . S
C90 C88 1.416 . S
C90 H111 0.930 . S
C91 C92 1.413 . S
C91 C93 1.427 . S
C91 C97 1.416 . S
C92 C85 1.424 . S
C92 C91 1.413 . S
C92 N96 1.361 1_455 S
C93 C91 1.427 . S
C93 C94 1.328 . S
C93 H108 0.929 . S
C94 C88 1.448 . S
C94 C93 1.328 . S
C94 H109 0.930 . S
Tb95 N86 2.617 1_665 S
Tb95 N96 2.572 1_565 S
Tb95 O130 2.349 . S
Tb95 O133 2.393 . S
Tb95 O134 2.465 . S
Tb95 O135 2.387 . S
Tb95 O137 2.428 1_565 S
Tb95 O138 2.308 . S
Tb95 C159 2.802 1_565 S
N96 C92 1.361 1_655 S
N96 Tb95 2.572 1_545 S
N96 C98 1.340 . S
C97 C91 1.416 . S
C97 C99 1.332 . S
C97 H105 0.931 . S
C98 N96 1.340 . S
C98 C99 1.407 1_655 S
C98 H104 0.930 1_545 S
C99 C97 1.332 . S
C99 C98 1.407 1_455 S
C99 H101 0.929 . S
H100 C89 0.930 1_655 S
H101 C99 0.929 . S
H102 C117 0.930 . S
H103 C124 0.929 . S
H104 C98 0.930 1_565 S
H105 C97 0.931 . S
H106 C120 0.930 . S
H107 C87 0.930 . S
H108 C93 0.929 . S
H109 C94 0.930 . S
H110 C115 0.930 1_655 S
H111 C90 0.930 . S
H112 C123 0.931 . S
N113 Tb84 2.617 . S
N113 C114 1.379 . S
N113 C117 1.334 . S
C114 N113 1.379 . S
C114 C116 1.416 1_455 S
C114 C122 1.424 . S
C115 H110 0.930 1_455 S
C115 C117 1.390 . S
C115 C118 1.339 1_455 S
C116 C114 1.416 1_655 S
C116 C118 1.416 . S
C116 C149 1.448 . S
C117 H102 0.930 . S
C117 N113 1.334 . S
C117 C115 1.390 . S
C118 C115 1.339 1_655 S
C118 C116 1.416 . S
C118 H125 0.930 1_545 S
N119 Tb84 2.572 . S
N119 C120 1.340 . S
N119 C122 1.361 . S
C120 H106 0.930 . S
C120 N119 1.340 . S
C120 C124 1.407 . S
C121 C122 1.413 1_655 S
C121 C123 1.416 . S
C121 C150 1.427 . S
C122 C114 1.424 . S
C122 N119 1.361 . S
C122 C121 1.413 1_455 S
C123 H112 0.931 . S
C123 C121 1.416 . S
C123 C124 1.332 1_655 S
C124 H103 0.929 . S
C124 C120 1.407 . S
C124 C123 1.332 1_455 S
H125 C118 0.930 1_565 S
H126 C149 0.930 1_565 S
H127 C150 0.929 . S
O128 Tb84 2.465 . S
O128 C148 1.264 . S
O129 Tb84 2.387 . S
O129 C140 1.264 . S
O130 Tb95 2.349 . S
O130 C140 1.243 . S
O131 Tb84 2.428 . S
O131 C148 1.256 . S
O132 Tb84 2.308 . S
O132 C147 1.266 . S
O133 Tb95 2.393 . S
O133 C147 1.248 . S
O134 Tb95 2.465 . S
O134 C159 1.264 1_565 S
O135 Tb95 2.387 . S
O135 C151 1.264 . S
O136 Tb84 2.349 . S
O136 C151 1.243 . S
O137 Tb95 2.428 1_545 S
O137 C159 1.256 . S
O138 Tb95 2.308 . S
O138 C158 1.266 . S
O139 Tb84 2.393 . S
O139 C158 1.248 . S
C140 O129 1.264 . S
C140 O130 1.243 . S
C141 C144 1.399 . S
C141 C146 1.383 . S
C141 C148 1.496 . S
C142 C143 1.399 . S
C142 C146 1.389 . S
C143 C142 1.399 . S
C143 C145 1.380 . S
C143 H160 0.929 . S
C144 C141 1.399 . S
C144 C145 1.392 . S
C144 H161 0.929 . S
C145 C143 1.380 . S
C145 C144 1.392 . S
C145 H162 0.929 . S
C146 C141 1.383 . S
C146 C142 1.389 . S
C146 H163 0.931 . S
C147 O132 1.266 . S
C147 O133 1.248 . S
C148 Tb84 2.802 . S
C148 O128 1.264 . S
C148 O131 1.256 . S
C148 C141 1.496 . S
C149 C116 1.448 . S
C149 H126 0.930 1_545 S
C149 C150 1.328 . S
C150 C121 1.427 . S
C150 H127 0.929 . S
C150 C149 1.328 . S
C151 O135 1.264 . S
C151 O136 1.243 . S
C152 C155 1.399 1_655 S
C152 C156 1.383 1_545 S
C152 C159 1.496 . S
C153 C154 1.399 1_655 S
C153 C156 1.389 1_545 S
C154 C153 1.399 1_455 S
C154 C157 1.380 . S
C154 H164 0.929 . S
C155 C152 1.399 1_455 S
C155 C157 1.392 . S
C155 H165 0.929 . S
C156 C152 1.383 1_565 S
C156 C153 1.389 1_565 S
C156 H166 0.931 . S
C157 C154 1.380 . S
C157 C155 1.392 . S
C157 H167 0.929 . S
C158 O138 1.266 . S
C158 O139 1.248 . S
C159 Tb95 2.802 1_545 S
C159 O134 1.264 1_545 S
C159 O137 1.256 . S
C159 C152 1.496 . S
H160 C143 0.929 . S
H161 C144 0.929 . S
H162 C145 0.929 . S
H163 C146 0.931 . S
H164 C154 0.929 . S
H165 C155 0.929 . S
H166 C156 0.931 . S
H167 C157 0.929 . S
Tb168 N197 2.617 1_655 S
Tb168 N203 2.572 1_655 S
Tb168 O212 2.465 . S
Tb168 O213 2.387 . S
Tb168 O215 2.428 1_655 S
Tb168 O216 2.308 . S
Tb168 O220 2.349 1_545 S
Tb168 O223 2.393 . S
Tb168 C232 2.802 1_655 S
C169 N170 1.379 . S
C169 C172 1.416 . S
C169 C176 1.424 . S
N170 C169 1.379 . S
N170 C173 1.334 . S
N170 Tb179 2.617 . S
C171 C173 1.390 . S
C171 C174 1.339 . S
C171 H191 0.930 . S
C172 C169 1.416 . S
C172 C174 1.416 . S
C172 C178 1.448 . S
C173 N170 1.334 . S
C173 C171 1.390 . S
C173 H184 0.930 . S
C174 C171 1.339 . S
C174 C172 1.416 . S
C174 H195 0.930 1_455 S
C175 C176 1.413 . S
C175 C177 1.427 . S
C175 C181 1.416 . S
C176 C169 1.424 . S
C176 C175 1.413 . S
C176 N180 1.361 . S
C177 C175 1.427 . S
C177 C178 1.328 . S
C177 H192 0.929 . S
C178 C172 1.448 . S
C178 C177 1.328 . S
C178 H193 0.930 1_455 S
Tb179 N170 2.617 . S
Tb179 N180 2.572 . S
Tb179 O214 2.349 1_565 S
Tb179 O217 2.393 . S
Tb179 O218 2.465 . S
Tb179 O219 2.387 . S
Tb179 O221 2.428 . S
Tb179 O222 2.308 . S
Tb179 C243 2.802 . S
N180 C176 1.361 . S
N180 Tb179 2.572 . S
N180 C182 1.340 . S
C181 C175 1.416 . S
C181 C183 1.332 . S
C181 H189 0.931 . S
C182 N180 1.340 . S
C182 C183 1.407 . S
C182 H188 0.930 . S
C183 C181 1.332 . S
C183 C182 1.407 . S
C183 H185 0.929 . S
H184 C173 0.930 . S
H185 C183 0.929 . S
H186 C201 0.930 . S
H187 C208 0.929 . S
H188 C182 0.930 . S
H189 C181 0.931 . S
H190 C204 0.930 1_655 S
H191 C171 0.930 . S
H192 C177 0.929 . S
H193 C178 0.930 1_655 S
H194 C199 0.930 . S
H195 C174 0.930 1_655 S
H196 C207 0.931 . S
N197 Tb168 2.617 1_455 S
N197 C198 1.379 . S
N197 C201 1.334 . S
C198 N197 1.379 . S
C198 C200 1.416 . S
C198 C206 1.424 . S
C199 H194 0.930 . S
C199 C201 1.390 . S
C199 C202 1.339 . S
C200 C198 1.416 . S
C200 C202 1.416 . S
C200 C233 1.448 . S
C201 H186 0.930 . S
C201 N197 1.334 . S
C201 C199 1.390 . S
C202 C199 1.339 . S
C202 C200 1.416 . S
C202 H209 0.930 . S
N203 Tb168 2.572 1_455 S
N203 C204 1.340 . S
N203 C206 1.361 . S
C204 H190 0.930 1_455 S
C204 N203 1.340 . S
C204 C208 1.407 . S
C205 C206 1.413 . S
C205 C207 1.416 . S
C205 C234 1.427 . S
C206 C198 1.424 . S
C206 N203 1.361 . S
C206 C205 1.413 . S
C207 H196 0.931 . S
C207 C205 1.416 . S
C207 C208 1.332 . S
C208 H187 0.929 . S
C208 C204 1.407 . S
C208 C207 1.332 . S
H209 C202 0.930 . S
H210 C233 0.930 . S
H211 C234 0.929 . S
O212 Tb168 2.465 . S
O212 C232 1.264 1_655 S
O213 Tb168 2.387 . S
O213 C224 1.264 . S
O214 Tb179 2.349 1_545 S
O214 C224 1.243 . S
O215 Tb168 2.428 1_455 S
O215 C232 1.256 . S
O216 Tb168 2.308 . S
O216 C231 1.266 1_545 S
O217 Tb179 2.393 . S
O217 C231 1.248 . S
O218 Tb179 2.465 . S
O218 C243 1.264 . S
O219 Tb179 2.387 . S
O219 C235 1.264 . S
O220 Tb168 2.349 1_565 S
O220 C235 1.243 . S
O221 Tb179 2.428 . S
O221 C243 1.256 . S
O222 Tb179 2.308 . S
O222 C242 1.266 1_565 S
O223 Tb168 2.393 . S
O223 C242 1.248 . S
C224 O213 1.264 . S
C224 O214 1.243 . S
C225 C228 1.399 . S
C225 C230 1.383 . S
C225 C232 1.496 . S
C226 C227 1.399 1_554 S
C226 C230 1.389 . S
C227 C226 1.399 1_556 S
C227 C229 1.380 1_556 S
C227 H244 0.929 . S
C228 C225 1.399 . S
C228 C229 1.392 . S
C228 H245 0.929 . S
C229 C227 1.380 1_554 S
C229 C228 1.392 . S
C229 H246 0.929 1_554 S
C230 C225 1.383 . S
C230 C226 1.389 . S
C230 H247 0.931 1_455 S
C231 O216 1.266 1_565 S
C231 O217 1.248 . S
C232 Tb168 2.802 1_455 S
C232 O212 1.264 1_455 S
C232 O215 1.256 . S
C232 C225 1.496 . S
C233 C200 1.448 . S
C233 H210 0.930 . S
C233 C234 1.328 . S
C234 C205 1.427 . S
C234 H211 0.929 . S
C234 C233 1.328 . S
C235 O219 1.264 . S
C235 O220 1.243 . S
C236 C239 1.399 . S
C236 C240 1.383 . S
C236 C243 1.496 . S
C237 C238 1.399 . S
C237 C240 1.389 . S
C238 C237 1.399 . S
C238 C241 1.380 . S
C238 H248 0.929 . S
C239 C236 1.399 . S
C239 C241 1.392 . S
C239 H249 0.929 . S
C240 C236 1.383 . S
C240 C237 1.389 . S
C240 H250 0.931 . S
C241 C238 1.380 . S
C241 C239 1.392 . S
C241 H251 0.929 . S
C242 O222 1.266 1_545 S
C242 O223 1.248 . S
C243 Tb179 2.802 . S
C243 O218 1.264 . S
C243 O221 1.256 . S
C243 C236 1.496 . S
H244 C227 0.929 . S
H245 C228 0.929 . S
H246 C229 0.929 1_556 S
H247 C230 0.931 1_655 S
H248 C238 0.929 . S
H249 C239 0.929 . S
H250 C240 0.931 . S
H251 C241 0.929 . S
Tb252 N281 2.617 1_565 S
Tb252 N287 2.572 1_565 S
Tb252 O296 2.465 . S
Tb252 O297 2.387 . S
Tb252 O299 2.428 1_565 S
Tb252 O300 2.308 . S
Tb252 O304 2.349 . S
Tb252 O307 2.393 1_565 S
Tb252 C316 2.802 1_565 S
C253 N254 1.379 . S
C253 C256 1.416 . S
C253 C260 1.424 . S
N254 C253 1.379 . S
N254 C257 1.334 . S
N254 Tb263 2.617 . S
C255 C257 1.390 . S
C255 C258 1.339 . S
C255 H275 0.930 . S
C256 C253 1.416 . S
C256 C258 1.416 . S
C256 C262 1.448 . S
C257 N254 1.334 . S
C257 C255 1.390 . S
C257 H268 0.930 . S
C258 C255 1.339 . S
C258 C256 1.416 . S
C258 H279 0.930 . S
C259 C260 1.413 . S
C259 C261 1.427 . S
C259 C265 1.416 . S
C260 C253 1.424 . S
C260 C259 1.413 . S
C260 N264 1.361 . S
C261 C259 1.427 . S
C261 C262 1.328 . S
C261 H276 0.929 . S
C262 C256 1.448 . S
C262 C261 1.328 . S
C262 H277 0.930 . S
Tb263 N254 2.617 . S
Tb263 N264 2.572 . S
Tb263 O298 2.349 1_655 S
Tb263 O301 2.393 . S
Tb263 O302 2.465 . S
Tb263 O303 2.387 . S
Tb263 O305 2.428 . S
Tb263 O306 2.308 . S
Tb263 C327 2.802 . S
N264 C260 1.361 . S
N264 Tb263 2.572 . S
N264 C266 1.340 . S
C265 C259 1.416 . S
C265 C267 1.332 . S
C265 H273 0.931 . S
C266 N264 1.340 . S
C266 C267 1.407 . S
C266 H272 0.930 . S
C267 C265 1.332 . S
C267 C266 1.407 . S
C267 H269 0.929 . S
H268 C257 0.930 . S
H269 C267 0.929 . S
H270 C285 0.930 . S
H271 C292 0.929 . S
H272 C266 0.930 . S
H273 C265 0.931 . S
H274 C288 0.930 1_565 S
H275 C255 0.930 . S
H276 C261 0.929 . S
H277 C262 0.930 . S
H278 C283 0.930 . S
H279 C258 0.930 . S
H280 C291 0.931 . S
N281 Tb252 2.617 1_545 S
N281 C282 1.379 . S
N281 C285 1.334 . S
C282 N281 1.379 . S
C282 C284 1.416 . S
C282 C290 1.424 . S
C283 H278 0.930 . S
C283 C285 1.390 . S
C283 C286 1.339 . S
C284 C282 1.416 . S
C284 C286 1.416 . S
C284 C317 1.448 . S
C285 H270 0.930 . S
C285 N281 1.334 . S
C285 C283 1.390 . S
C286 C283 1.339 . S
C286 C284 1.416 . S
C286 H293 0.930 . S
N287 Tb252 2.572 1_545 S
N287 C288 1.340 . S
N287 C290 1.361 . S
C288 H274 0.930 1_545 S
C288 N287 1.340 . S
C288 C292 1.407 . S
C289 C290 1.413 . S
C289 C291 1.416 . S
C289 C318 1.427 . S
C290 C282 1.424 . S
C290 N287 1.361 . S
C290 C289 1.413 . S
C291 H280 0.931 . S
C291 C289 1.416 . S
C291 C292 1.332 . S
C292 H271 0.929 . S
C292 C288 1.407 . S
C292 C291 1.332 . S
H293 C286 0.930 . S
H294 C317 0.930 . S
H295 C318 0.929 . S
O296 Tb252 2.465 . S
O296 C316 1.264 1_565 S
O297 Tb252 2.387 . S
O297 C308 1.264 . S
O298 Tb263 2.349 1_455 S
O298 C308 1.243 . S
O299 Tb252 2.428 1_545 S
O299 C316 1.256 . S
O300 Tb252 2.308 . S
O300 C315 1.266 1_455 S
O301 Tb263 2.393 . S
O301 C315 1.248 . S
O302 Tb263 2.465 . S
O302 C327 1.264 . S
O303 Tb263 2.387 . S
O303 C319 1.264 . S
O304 Tb252 2.349 . S
O304 C319 1.243 1_455 S
O305 Tb263 2.428 . S
O305 C327 1.256 . S
O306 Tb263 2.308 . S
O306 C326 1.266 1_655 S
O307 Tb252 2.393 1_545 S
O307 C326 1.248 1_545 S
C308 O297 1.264 . S
C308 O298 1.243 . S
C309 C312 1.399 . S
C309 C314 1.383 . S
C309 C316 1.496 . S
C310 C311 1.399 . S
C310 C314 1.389 . S
C311 C310 1.399 . S
C311 C313 1.380 . S
C311 H328 0.929 . S
C312 C309 1.399 . S
C312 C313 1.392 . S
C312 H329 0.929 . S
C313 C311 1.380 . S
C313 C312 1.392 . S
C313 H330 0.929 . S
C314 C309 1.383 . S
C314 C310 1.389 . S
C314 H331 0.931 1_545 S
C315 O300 1.266 1_655 S
C315 O301 1.248 . S
C316 Tb252 2.802 1_545 S
C316 O296 1.264 1_545 S
C316 O299 1.256 . S
C316 C309 1.496 . S
C317 C284 1.448 . S
C317 H294 0.930 . S
C317 C318 1.328 . S
C318 C289 1.427 . S
C318 H295 0.929 . S
C318 C317 1.328 . S
C319 O303 1.264 . S
C319 O304 1.243 1_655 S
C320 C323 1.399 . S
C320 C324 1.383 . S
C320 C327 1.496 . S
C321 C322 1.399 . S
C321 C324 1.389 . S
C322 C321 1.399 . S
C322 C325 1.380 . S
C322 H332 0.929 . S
C323 C320 1.399 . S
C323 C325 1.392 . S
C323 H333 0.929 . S
C324 C320 1.383 . S
C324 C321 1.389 . S
C324 H334 0.931 . S
C325 C322 1.380 . S
C325 C323 1.392 . S
C325 H335 0.929 . S
C326 O306 1.266 1_455 S
C326 O307 1.248 1_565 S
C327 Tb263 2.802 . S
C327 O302 1.264 . S
C327 O305 1.256 . S
C327 C320 1.496 . S
H328 C311 0.929 . S
H329 C312 0.929 . S
H330 C313 0.929 . S
H331 C314 0.931 1_565 S
H332 C322 0.929 . S
H333 C323 0.929 . S
H334 C324 0.931 . S
H335 C325 0.929 . S
H336 C344 0.950 . S
H337 C349 0.950 . S
H338 C346 0.950 . S
H339 C348 0.950 . S
H340 C350 0.950 . S
H341 C352 0.950 . S
H342 C354 0.950 . S
H343 C355 0.950 . S
C344 H336 0.950 . S
C344 C345 1.386 1_455 S
C344 C346 1.391 . S
C345 C344 1.386 1_655 S
C345 C349 1.393 1_545 S
C346 H338 0.950 . S
C346 C344 1.391 . S
C346 C347 1.400 . S
C347 C346 1.400 . S
C347 C348 1.398 . S
C347 C353 1.491 . S
C348 H339 0.950 . S
C348 C347 1.398 . S
C348 C349 1.391 1_445 S
C349 H337 0.950 . S
C349 C345 1.393 1_565 S
C349 C348 1.391 1_665 S
C350 H340 0.950 . S
C350 C351 1.386 . S
C350 C352 1.391 . S
C351 C350 1.386 . S
C351 C355 1.393 . S
C352 H341 0.950 . S
C352 C350 1.391 . S
C352 C353 1.400 . S
C353 C347 1.491 . S
C353 C352 1.400 . S
C353 C354 1.398 . S
C354 H342 0.950 . S
C354 C353 1.398 . S
C354 C355 1.391 . S
C355 H343 0.950 . S
C355 C351 1.393 . S
C355 C354 1.391 . S
H356 C364 0.950 1_665 S
H357 C369 0.950 . S
H358 C366 0.950 . S
H359 C368 0.950 . S
H360 C370 0.950 . S
H361 C372 0.950 . S
H362 C374 0.950 . S
H363 C375 0.950 . S
C364 H356 0.950 1_445 S
C364 C365 1.365 1_545 S
C364 C366 1.391 . S
C365 C364 1.365 1_565 S
C365 C369 1.398 1_565 S
C366 H358 0.950 . S
C366 C364 1.391 . S
C366 C367 1.400 . S
C367 C366 1.400 . S
C367 C368 1.398 . S
C367 C373 1.491 . S
C368 H359 0.950 . S
C368 C367 1.398 . S
C368 C369 1.391 . S
C369 H357 0.950 . S
C369 C365 1.398 1_545 S
C369 C368 1.391 . S
C370 H360 0.950 . S
C370 C371 1.386 . S
C370 C372 1.391 . S
C371 C370 1.386 . S
C371 C375 1.393 . S
C372 H361 0.950 . S
C372 C370 1.391 . S
C372 C373 1.400 . S
C373 C367 1.491 . S
C373 C372 1.400 . S
C373 C374 1.398 . S
C374 H362 0.950 . S
C374 C373 1.398 . S
C374 C375 1.391 . S
C375 H363 0.950 . S
C375 C371 1.393 . S
C375 C374 1.391 . S
H376 C384 0.950 . S
H377 C389 0.950 . S
H378 C386 0.950 . S
H379 C388 0.950 . S
H380 C390 0.950 . S
H381 C392 0.950 . S
H382 C394 0.950 . S
H383 C395 0.950 . S
C384 H376 0.950 . S
C384 C385 1.386 . S
C384 C386 1.391 . S
C385 C384 1.386 . S
C385 C389 1.393 . S
C386 H378 0.950 . S
C386 C384 1.391 . S
C386 C387 1.400 . S
C387 C386 1.400 . S
C387 C388 1.398 . S
C387 C393 1.491 . S
C388 H379 0.950 . S
C388 C387 1.398 . S
C388 C389 1.391 . S
C389 H377 0.950 . S
C389 C385 1.393 . S
C389 C388 1.391 . S
C390 H380 0.950 . S
C390 C391 1.386 . S
C390 C392 1.391 . S
C391 C390 1.386 . S
C391 C395 1.393 . S
C392 H381 0.950 . S
C392 C390 1.391 . S
C392 C393 1.400 . S
C393 C387 1.491 . S
C393 C392 1.400 . S
C393 C394 1.398 . S
C394 H382 0.950 . S
C394 C393 1.398 . S
C394 C395 1.391 . S
C395 H383 0.950 . S
C395 C391 1.393 . S
C395 C394 1.391 . S
H396 C404 0.950 . S
H397 C409 0.950 1_545 S
H398 C406 0.950 . S
H399 C408 0.950 . S
H400 C410 0.950 . S
H401 C412 0.950 . S
H402 C414 0.950 . S
H403 C415 0.950 1_655 S
C404 H396 0.950 . S
C404 C405 1.386 . S
C404 C406 1.391 . S
C405 C404 1.386 . S
C405 C409 1.393 . S
C406 H398 0.950 . S
C406 C404 1.391 . S
C406 C407 1.400 . S
C407 C406 1.400 . S
C407 C408 1.398 . S
C407 C413 1.491 . S
C408 H399 0.950 . S
C408 C407 1.398 . S
C408 C409 1.391 . S
C409 H397 0.950 1_565 S
C409 C405 1.393 . S
C409 C408 1.391 . S
C410 H400 0.950 . S
C410 C411 1.386 . S
C410 C412 1.391 . S
C411 C410 1.386 . S
C411 C415 1.393 . S
C412 H401 0.950 . S
C412 C410 1.391 . S
C412 C413 1.400 . S
C413 C407 1.491 . S
C413 C412 1.400 . S
C413 C414 1.398 . S
C414 H402 0.950 . S
C414 C413 1.398 . S
C414 C415 1.391 . S
C415 H403 0.950 1_455 S
C415 C411 1.393 . S
C415 C414 1.391 . S
H416 C424 0.950 1_455 S
H417 C429 0.950 1_545 S
H418 C426 0.950 . S
H419 C428 0.950 . S
H420 C430 0.950 . S
H421 C432 0.950 . S
H422 C434 0.950 . S
H423 C435 0.950 . S
C424 H416 0.950 1_655 S
C424 C425 1.386 . S
C424 C426 1.391 . S
C425 C424 1.386 . S
C425 C429 1.393 . S
C426 H418 0.950 . S
C426 C424 1.391 . S
C426 C427 1.400 . S
C427 C426 1.400 . S
C427 C428 1.398 . S
C427 C433 1.491 . S
C428 H419 0.950 . S
C428 C427 1.398 . S
C428 C429 1.391 . S
C429 H417 0.950 1_565 S
C429 C425 1.393 . S
C429 C428 1.391 . S
C430 H420 0.950 . S
C430 C431 1.386 . S
C430 C432 1.391 . S
C431 C430 1.386 . S
C431 C435 1.393 . S
C432 H421 0.950 . S
C432 C430 1.391 . S
C432 C433 1.400 . S
C433 C427 1.491 . S
C433 C432 1.400 . S
C433 C434 1.398 . S
C434 H422 0.950 . S
C434 C433 1.398 . S
C434 C435 1.391 . S
C435 H423 0.950 . S
C435 C431 1.393 . S
C435 C434 1.391 . S
H436 C444 0.950 . S
H437 C449 0.950 . S
H438 C446 0.950 . S
H439 C448 0.950 1_655 S
H440 C450 0.950 . S
H441 C452 0.950 . S
H442 C454 0.950 . S
H443 C455 0.950 . S
C444 H436 0.950 . S
C444 C445 1.386 . S
C444 C446 1.391 . S
C445 C444 1.386 . S
C445 C449 1.393 . S
C446 H438 0.950 . S
C446 C444 1.391 . S
C446 C447 1.400 . S
C447 C446 1.400 . S
C447 C448 1.398 . S
C447 C453 1.491 . S
C448 H439 0.950 1_455 S
C448 C447 1.398 . S
C448 C449 1.391 . S
C449 H437 0.950 . S
C449 C445 1.393 . S
C449 C448 1.391 . S
C450 H440 0.950 . S
C450 C451 1.386 1_655 S
C450 C452 1.391 1_554 S
C451 C450 1.386 1_455 S
C451 C455 1.393 . S
C452 H441 0.950 . S
C452 C450 1.391 1_556 S
C452 C453 1.400 1_655 S
C453 C447 1.491 . S
C453 C452 1.400 1_455 S
C453 C454 1.398 . S
C454 H442 0.950 . S
C454 C453 1.398 . S
C454 C455 1.391 1_556 S
C455 H443 0.950 . S
C455 C451 1.393 . S
C455 C454 1.391 1_554 S
H456 C464 0.950 . S
H457 C469 0.950 . S
H458 C466 0.950 . S
H459 C468 0.950 . S
H460 C470 0.950 . S
H461 C472 0.950 . S
H462 C474 0.950 . S
H463 C475 0.950 . S
C464 H456 0.950 . S
C464 C465 1.386 . S
C464 C466 1.391 . S
C465 C464 1.386 . S
C465 C469 1.393 . S
C466 H458 0.950 . S
C466 C464 1.391 . S
C466 C467 1.400 . S
C467 C466 1.400 . S
C467 C468 1.398 . S
C467 C473 1.491 . S
C468 H459 0.950 . S
C468 C467 1.398 . S
C468 C469 1.391 . S
C469 H457 0.950 . S
C469 C465 1.393 . S
C469 C468 1.391 . S
C470 H460 0.950 . S
C470 C471 1.386 . S
C470 C472 1.391 . S
C471 C470 1.386 . S
C471 C475 1.393 . S
C472 H461 0.950 . S
C472 C470 1.391 . S
C472 C473 1.400 . S
C473 C467 1.491 . S
C473 C472 1.400 . S
C473 C474 1.398 . S
C474 H462 0.950 . S
C474 C473 1.398 . S
C474 C475 1.391 . S
C475 H463 0.950 . S
C475 C471 1.393 . S
C475 C474 1.391 . S
H476 C484 0.950 1_565 S
H477 C489 0.950 . S
H478 C486 0.950 . S
H479 C488 0.950 . S
H480 C490 0.950 . S
H481 C492 0.950 1_556 S
H482 C494 0.950 . S
H483 C495 0.950 . S
C484 H476 0.950 1_545 S
C484 C485 1.386 . S
C484 C486 1.391 . S
C485 C484 1.386 . S
C485 C489 1.393 . S
C486 H478 0.950 . S
C486 C484 1.391 . S
C486 C487 1.400 . S
C487 C486 1.400 . S
C487 C488 1.398 . S
C487 C493 1.491 1_556 S
C488 H479 0.950 . S
C488 C487 1.398 . S
C488 C489 1.391 . S
C489 H477 0.950 . S
C489 C485 1.393 . S
C489 C488 1.391 . S
C490 H480 0.950 . S
C490 C491 1.386 . S
C490 C492 1.391 . S
C491 C490 1.386 . S
C491 C495 1.393 . S
C492 H481 0.950 1_554 S
C492 C490 1.391 . S
C492 C493 1.400 . S
C493 C487 1.491 1_554 S
C493 C492 1.400 . S
C493 C494 1.398 . S
C494 H482 0.950 . S
C494 C493 1.398 . S
C494 C495 1.391 . S
C495 H483 0.950 . S
C495 C491 1.393 . S
C495 C494 1.391 . S
H496 C504 0.950 . S
H497 C509 0.950 . S
H498 C506 0.950 1_556 S
H499 C508 0.950 . S
H500 C510 0.950 . S
H501 C512 0.950 . S
H502 C514 0.950 . S
H503 C515 0.950 . S
C504 H496 0.950 . S
C504 C505 1.386 . S
C504 C506 1.391 . S
C505 C504 1.386 . S
C505 C509 1.393 . S
C506 H498 0.950 1_554 S
C506 C504 1.391 . S
C506 C507 1.400 . S
C507 C506 1.400 . S
C507 C508 1.398 . S
C507 C513 1.491 1_554 S
C508 H499 0.950 . S
C508 C507 1.398 . S
C508 C509 1.391 . S
C509 H497 0.950 . S
C509 C505 1.393 . S
C509 C508 1.391 . S
C510 H500 0.950 . S
C510 C511 1.386 . S
C510 C512 1.391 . S
C511 C510 1.386 . S
C511 C515 1.393 . S
C512 H501 0.950 . S
C512 C510 1.391 . S
C512 C513 1.400 . S
C513 C507 1.491 1_556 S
C513 C512 1.400 . S
C513 C514 1.398 . S
C514 H502 0.950 . S
C514 C513 1.398 . S
C514 C515 1.391 . S
C515 H503 0.950 . S
C515 C511 1.393 . S
C515 C514 1.391 . S
H516 C524 0.950 . S
H517 C529 0.950 1_565 S
H518 C526 0.950 . S
H519 C528 0.950 . S
H520 C530 0.950 . S
H521 C532 0.950 . S
H522 C534 0.950 . S
H523 C535 0.950 . S
C524 H516 0.950 . S
C524 C525 1.386 . S
C524 C526 1.391 . S
C525 C524 1.386 . S
C525 C529 1.393 . S
C526 H518 0.950 . S
C526 C524 1.391 . S
C526 C527 1.400 . S
C527 C526 1.400 . S
C527 C528 1.398 1_545 S
C527 C533 1.491 . S
C528 H519 0.950 . S
C528 C527 1.398 1_565 S
C528 C529 1.391 1_565 S
C529 H517 0.950 1_545 S
C529 C525 1.393 . S
C529 C528 1.391 1_545 S
C530 H520 0.950 . S
C530 C531 1.386 . S
C530 C532 1.391 . S
C531 C530 1.386 . S
C531 C535 1.393 1_565 S
C532 H521 0.950 . S
C532 C530 1.391 . S
C532 C533 1.400 1_565 S
C533 C527 1.491 . S
C533 C532 1.400 1_545 S
C533 C534 1.398 . S
C534 H522 0.950 . S
C534 C533 1.398 . S
C534 C535 1.391 . S
C535 H523 0.950 . S
C535 C531 1.393 1_545 S
C535 C534 1.391 . S
H536 C544 0.950 . S
H537 C549 0.950 . S
H538 C546 0.950 . S
H539 C548 0.950 . S
H540 C550 0.950 . S
H541 C552 0.950 . S
H542 C554 0.950 . S
H543 C555 0.950 . S
C544 H536 0.950 . S
C544 C545 1.386 . S
C544 C546 1.391 . S
C545 C544 1.386 . S
C545 C549 1.393 . S
C546 H538 0.950 . S
C546 C544 1.391 . S
C546 C547 1.400 . S
C547 C546 1.400 . S
C547 C548 1.398 . S
C547 C553 1.491 . S
C548 H539 0.950 . S
C548 C547 1.398 . S
C548 C549 1.391 . S
C549 H537 0.950 . S
C549 C545 1.393 . S
C549 C548 1.391 . S
C550 H540 0.950 . S
C550 C551 1.386 1_455 S
C550 C552 1.391 1_455 S
C551 C550 1.386 1_655 S
C551 C555 1.393 . S
C552 H541 0.950 . S
C552 C550 1.391 1_655 S
C552 C553 1.400 . S
C553 C547 1.491 . S
C553 C552 1.400 . S
C553 C554 1.398 . S
C554 H542 0.950 . S
C554 C553 1.398 . S
C554 C555 1.391 . S
C555 H543 0.950 . S
C555 C551 1.393 . S
C555 C554 1.391 . S
H556 C564 0.950 . S
H557 C569 0.950 . S
H558 C566 0.950 . S
H559 C568 0.950 . S
H560 C570 0.950 . S
H561 C572 0.950 . S
H562 C574 0.950 . S
H563 C575 0.950 . S
C564 H556 0.950 . S
C564 C565 1.386 1_455 S
C564 C566 1.391 . S
C565 C564 1.386 1_655 S
C565 C569 1.393 . S
C566 H558 0.950 . S
C566 C564 1.391 . S
C566 C567 1.400 . S
C567 C566 1.400 . S
C567 C568 1.398 . S
C567 C573 1.491 . S
C568 H559 0.950 . S
C568 C567 1.398 . S
C568 C569 1.391 1_455 S
C569 H557 0.950 . S
C569 C565 1.393 . S
C569 C568 1.391 1_655 S
C570 H560 0.950 . S
C570 C571 1.386 . S
C570 C572 1.391 . S
C571 C570 1.386 . S
C571 C575 1.393 . S
C572 H561 0.950 . S
C572 C570 1.391 . S
C572 C573 1.400 . S
C573 C567 1.491 . S
C573 C572 1.400 . S
C573 C574 1.398 . S
C574 H562 0.950 . S
C574 C573 1.398 . S
C574 C575 1.391 . S
C575 H563 0.950 . S
C575 C571 1.393 . S
C575 C574 1.391 . S
C345 C242 0.749 . S
C351 C63 0.749 . S
C365 C326 0.902 . S
C371 C158 0.845 . S
C385 C231 1.782 1_545 S
C391 C74 1.782 . S
C405 C147 1.849 . S
C411 C315 1.788 1_455 S
C425 C153 0.857 1_565 S
C431 C56 0.871 . S
C445 C142 1.096 . S
C451 C226 0.778 . S
C465 C321 0.784 . S
C471 C237 0.761 . S
C485 C310 0.753 . S
C491 C67 0.736 . S
C505 C235 3.373 . S
C511 C319 3.391 . S
C525 C69 1.607 . S
C531 C308 1.989 . S
C545 C151 3.124 . S
C551 C58 3.093 1_655 S
C565 C224 2.889 . S
C571 C140 2.958 . S
