# Generated by pormake.
# Topology wkj, (6)-cn, num edge types: 1
# Building blocks:
#     Node 0, Type 0, BuildingBlock: JUFBIX_clean_sbu_0, # of connection points: 6
#     Node 1, Type 0, BuildingBlock: JUFBIX_clean_sbu_0, # of connection points: 6
#     Node 2, Type 0, BuildingBlock: JUFBIX_clean_sbu_0, # of connection points: 6
#     Node 3, Type 0, BuildingBlock: JUFBIX_clean_sbu_0, # of connection points: 6
#     Node 4, Type 0, BuildingBlock: JUFBIX_clean_sbu_0, # of connection points: 6
#     Node 5, Type 0, BuildingBlock: JUFBIX_clean_sbu_0, # of connection points: 6
#     Node 6, Type 0, BuildingBlock: JUFBIX_clean_sbu_0, # of connection points: 6
#     Node 7, Type 0, BuildingBlock: JUFBIX_clean_sbu_0, # of connection points: 6
#     Node 8, Type 0, BuildingBlock: JUFBIX_clean_sbu_0, # of connection points: 6
#     Node 9, Type 0, BuildingBlock: JUFBIX_clean_sbu_0, # of connection points: 6
#     Node 10, Type 0, BuildingBlock: JUFBIX_clean_sbu_0, # of connection points: 6
#     Node 11, Type 0, BuildingBlock: JUFBIX_clean_sbu_0, # of connection points: 6
#     Edge 12, Type (0, 0), BuildingBlock: EZIPEK_clean_linker_0, # of connection points: 2
#     Edge 13, Type (0, 0), BuildingBlock: EZIPEK_clean_linker_0, # of connection points: 2
#     Edge 14, Type (0, 0), BuildingBlock: EZIPEK_clean_linker_0, # of connection points: 2
#     Edge 15, Type (0, 0), BuildingBlock: EZIPEK_clean_linker_0, # of connection points: 2
#     Edge 16, Type (0, 0), BuildingBlock: EZIPEK_clean_linker_0, # of connection points: 2
#     Edge 17, Type (0, 0), BuildingBlock: EZIPEK_clean_linker_0, # of connection points: 2
#     Edge 18, Type (0, 0), BuildingBlock: EZIPEK_clean_linker_0, # of connection points: 2
#     Edge 19, Type (0, 0), BuildingBlock: EZIPEK_clean_linker_0, # of connection points: 2
#     Edge 20, Type (0, 0), BuildingBlock: EZIPEK_clean_linker_0, # of connection points: 2
#     Edge 21, Type (0, 0), BuildingBlock: EZIPEK_clean_linker_0, # of connection points: 2
#     Edge 22, Type (0, 0), BuildingBlock: EZIPEK_clean_linker_0, # of connection points: 2
#     Edge 23, Type (0, 0), BuildingBlock: EZIPEK_clean_linker_0, # of connection points: 2
#     Edge 24, Type (0, 0), BuildingBlock: EZIPEK_clean_linker_0, # of connection points: 2
#     Edge 25, Type (0, 0), BuildingBlock: EZIPEK_clean_linker_0, # of connection points: 2
#     Edge 26, Type (0, 0), BuildingBlock: EZIPEK_clean_linker_0, # of connection points: 2
#     Edge 27, Type (0, 0), BuildingBlock: EZIPEK_clean_linker_0, # of connection points: 2
#     Edge 28, Type (0, 0), BuildingBlock: EZIPEK_clean_linker_0, # of connection points: 2
#     Edge 29, Type (0, 0), BuildingBlock: EZIPEK_clean_linker_0, # of connection points: 2
#     Edge 30, Type (0, 0), BuildingBlock: EZIPEK_clean_linker_0, # of connection points: 2
#     Edge 31, Type (0, 0), BuildingBlock: EZIPEK_clean_linker_0, # of connection points: 2
#     Edge 32, Type (0, 0), BuildingBlock: EZIPEK_clean_linker_0, # of connection points: 2
#     Edge 33, Type (0, 0), BuildingBlock: EZIPEK_clean_linker_0, # of connection points: 2
#     Edge 34, Type (0, 0), BuildingBlock: EZIPEK_clean_linker_0, # of connection points: 2
#     Edge 35, Type (0, 0), BuildingBlock: EZIPEK_clean_linker_0, # of connection points: 2
#     Edge 36, Type (0, 0), BuildingBlock: EZIPEK_clean_linker_0, # of connection points: 2
#     Edge 37, Type (0, 0), BuildingBlock: EZIPEK_clean_linker_0, # of connection points: 2
#     Edge 38, Type (0, 0), BuildingBlock: EZIPEK_clean_linker_0, # of connection points: 2
#     Edge 39, Type (0, 0), BuildingBlock: EZIPEK_clean_linker_0, # of connection points: 2
#     Edge 40, Type (0, 0), BuildingBlock: EZIPEK_clean_linker_0, # of connection points: 2
#     Edge 41, Type (0, 0), BuildingBlock: EZIPEK_clean_linker_0, # of connection points: 2
#     Edge 42, Type (0, 0), BuildingBlock: EZIPEK_clean_linker_0, # of connection points: 2
#     Edge 43, Type (0, 0), BuildingBlock: EZIPEK_clean_linker_0, # of connection points: 2
#     Edge 44, Type (0, 0), BuildingBlock: EZIPEK_clean_linker_0, # of connection points: 2
#     Edge 45, Type (0, 0), BuildingBlock: EZIPEK_clean_linker_0, # of connection points: 2
#     Edge 46, Type (0, 0), BuildingBlock: EZIPEK_clean_linker_0, # of connection points: 2
#     Edge 47, Type (0, 0), BuildingBlock: EZIPEK_clean_linker_0, # of connection points: 2
# Relax obj value: 0.898
# Max RMSD: 0.266
# Mean RMSD: 0.262
data_MOF--net-wkj--node1-JUFBIX_clean_sbu_0--edge1-EZIPEK_clean_linker_0
_symmetry_space_group_name_H-M    P1
_symmetry_Int_Tables_number       1
_symmetry_cell_setting            triclinic
loop_
_symmetry_equiv_pos_as_xyz
'x, y, z'
_cell_length_a     37.159894
_cell_length_b     37.106548
_cell_length_c     20.315899
_cell_angle_alpha  90.116618
_cell_angle_beta   89.930152
_cell_angle_gamma 120.25171
loop_
_atom_site_label
_atom_site_type_symbol
_atom_site_fract_x
_atom_site_fract_y
_atom_site_fract_z
_atom_type_partial_charge
Co0 Co 0.42749 0.06967 0.18321 0.0
C1 C 0.47825 0.04555 0.24146 0.0
Co2 Co 0.47929 0.11843 0.23665 0.0
C3 C 0.34974 0.02775 0.11499 0.0
C4 C 0.38464 0.99639 0.10431 0.0
N5 N 0.38467 0.02853 0.13541 0.0
N6 N 0.32894 -0.0025 0.07045 0.0
C7 C 0.35029 0.97724 0.06442 0.0
H8 H 0.34125 0.05074 0.12839 0.0
H9 H 0.4095 0.98928 0.10653 0.0
C10 C 0.42896 0.14511 0.18202 0.0
N11 N 0.52195 0.16 0.28352 0.0
C12 C 0.53377 0.15699 0.34466 0.0
C13 C 0.54671 0.2004 0.26636 0.0
N14 N 0.56463 0.19383 0.36641 0.0
C15 C 0.57315 0.22152 0.31786 0.0
C16 C 0.50258 0.11374 0.10566 0.0
O17 O 0.41077 0.10898 0.15647 0.0
O18 O 0.45904 0.15481 0.22081 0.0
O19 O 0.51431 0.13736 0.15641 0.0
O20 O 0.46491 0.08349 0.10553 0.0
O21 O 0.49978 0.08412 0.25326 0.0
H22 H 0.54492 0.21375 0.22005 0.0
H23 H 0.51951 0.12855 0.37338 0.0
O24 O 0.44399 0.03177 0.21127 0.0
O25 O 0.39073 0.05357 0.26067 0.0
O26 O 0.4444 0.09618 0.31916 0.0
C27 C 0.4065 0.06601 0.3178 0.0
H28 H 0.34314 0.95254 1.02945 0.0
H29 H 0.59609 0.25444 0.32022 0.0
Co30 Co 0.34227 0.39806 0.63553 0.0
C31 C 0.42181 0.44152 0.67468 0.0
Co32 Co 0.35715 0.45574 0.68612 0.0
C33 C 0.31689 0.3409 0.52828 0.0
C34 C 0.31549 0.31024 0.61766 0.0
N35 N 0.32693 0.34829 0.59233 0.0
N36 N 0.29986 0.30027 0.51264 0.0
C37 C 0.29906 0.28068 0.56854 0.0
H38 H 0.3216 0.36476 0.49314 0.0
H39 H 0.31749 0.30365 0.66881 0.0
C40 C 0.27584 0.41222 0.63755 0.0
N41 N 0.36912 0.50334 0.73193 0.0
C42 C 0.39337 0.51762 0.78577 0.0
C43 C 0.35158 0.5274 0.72649 0.0
N44 N 0.39071 0.54867 0.81534 0.0
C45 C 0.36418 0.55485 0.77866 0.0
C46 C 0.37564 0.47084 0.55092 0.0
O47 O 0.28812 0.38764 0.6193 0.0
O48 O 0.30023 0.4428 0.67416 0.0
O49 O 0.3724 0.4873 0.60408 0.0
O50 O 0.36237 0.43148 0.55181 0.0
O51 O 0.41162 0.4677 0.69411 0.0
H52 H 0.33013 0.52442 0.68829 0.0
H53 H 0.41106 0.50408 0.80511 0.0
O54 O 0.39481 0.40781 0.64827 0.0
O55 O 0.32719 0.36778 0.71976 0.0
O56 O 0.34665 0.42607 0.77064 0.0
C57 C 0.33887 0.38849 0.77331 0.0
H58 H 0.2873 0.24758 0.57364 0.0
H59 H 0.3543 0.57715 0.78941 0.0
Co60 Co 0.92238 0.35833 0.83899 0.0
C61 C 0.94533 0.43149 0.90568 0.0
Co62 Co 0.87391 0.3585 0.89873 0.0
C63 C 0.96649 0.32808 0.76326 0.0
C64 C 0.9931 0.39427 0.75441 0.0
N65 N 0.96379 0.36065 0.787 0.0
N66 N -0.00479 0.33998 0.71551 0.0
C67 C 0.01262 0.38159 0.71078 0.0
H68 H 0.94536 0.29581 0.77601 0.0
H69 H -0.00282 0.42515 0.75728 0.0
C70 C 0.84952 0.28279 0.83406 0.0
N71 N 0.83144 0.35402 0.95321 0.0
C72 C 0.83675 0.37494 1.01 0.0
C73 C 0.79116 0.32301 0.95465 0.0
N74 N 0.80207 0.35771 0.04752 0.0
C75 C 0.77336 0.32468 1.01316 0.0
C76 C 0.8751 0.38904 0.76956 0.0
O77 O 0.88559 0.30251 0.8092 0.0
O78 O 0.83923 0.30124 0.87588 0.0
O79 O 0.85292 0.37686 0.82227 0.0
O80 O 0.90524 0.38177 0.76586 0.0
O81 O 0.90726 0.41344 0.92105 0.0
H82 H 0.77619 0.29882 0.91788 0.0
H83 H 0.86646 0.4003 1.0264 0.0
O84 O 0.95788 0.41231 0.86921 0.0
O85 O 0.94227 0.33834 0.91258 0.0
O86 O 0.89887 0.34469 0.97641 0.0
C87 C 0.93077 0.34006 0.97123 0.0
H88 H 0.03497 0.40059 0.67372 0.0
H89 H 0.74233 0.30247 1.03027 0.0
Co90 Co 0.55041 0.91893 0.32528 0.0
C91 C 0.51009 0.95249 0.38969 0.0
Co92 Co 0.49428 0.87309 0.37561 0.0
C93 C 0.6088 0.95627 0.22399 0.0
C94 C 0.62859 0.99471 0.31004 0.0
N95 N 0.59766 0.95823 0.28571 0.0
N96 N 0.64486 0.9903 0.20785 0.0
C97 C 0.65786 0.01485 0.26153 0.0
H98 H 0.58922 0.93182 0.1896 0.0
H99 H 0.62881 0.0067 0.35872 0.0
C100 C 0.5345 0.83903 0.30259 0.0
N101 N 0.44788 0.83341 0.42295 0.0
C102 C 0.4285 0.84278 0.47045 0.0
C103 C 0.43305 0.79201 0.43061 0.0
N104 N 0.40369 0.80992 0.50807 0.0
C105 C 0.40587 0.77747 0.48345 0.0
C106 C 0.47634 0.88713 0.24458 0.0
O107 O 0.5603 0.87722 0.29247 0.0
O108 O 0.50539 0.82997 0.34401 0.0
O109 O 0.46017 0.8657 0.29688 0.0
O110 O 0.516 0.91141 0.24545 0.0
O111 O 0.48398 0.91506 0.4033 0.0
H112 H 0.44337 0.77395 0.40298 0.0
H113 H 0.43433 0.87372 0.48141 0.0
O114 O 0.54119 0.96016 0.35452 0.0
O115 O 0.58352 0.92858 0.40371 0.0
O116 O 0.52788 0.88412 0.45561 0.0
C117 C 0.56533 0.91446 0.45836 0.0
H118 H 0.68421 0.04632 0.26336 0.0
H119 H 0.39089 0.74643 0.5043 0.0
Co120 Co 0.64524 0.58962 0.51204 0.0
C121 C 0.57324 0.5385 0.57042 0.0
Co122 Co 0.64768 0.54165 0.57042 0.0
C123 C 0.6719 0.65326 0.41461 0.0
C124 C 0.6325 0.65758 0.48707 0.0
N125 N 0.64761 0.6333 0.46666 0.0
N126 N 0.674 0.69012 0.40255 0.0
C127 C 0.64826 0.69216 0.44769 0.0
H128 H 0.68747 0.6405 0.38638 0.0
H129 H 0.61233 0.65119 0.5292 0.0
C130 C 0.72254 0.59322 0.51422 0.0
N131 N 0.64683 0.4995 0.61897 0.0
C132 C 0.6305 0.48708 0.6795 0.0
C133 C 0.66181 0.47426 0.60234 0.0
N134 N 0.63465 0.45518 0.7011 0.0
C135 C 0.65433 0.44679 0.65317 0.0
C136 C 0.61943 0.5153 0.43666 0.0
O137 O 0.70318 0.61052 0.49152 0.0
O138 O 0.70352 0.56186 0.55134 0.0
O139 O 0.6299 0.50516 0.49064 0.0
O140 O 0.62657 0.55287 0.43247 0.0
O141 O 0.59353 0.52174 0.58987 0.0
H142 H 0.6771 0.47575 0.55624 0.0
H143 H 0.61563 0.50098 0.70719 0.0
O144 O 0.58934 0.56978 0.5327 0.0
O145 O 0.66046 0.62438 0.5914 0.0
O146 O 0.66244 0.57747 0.65097 0.0
C147 C 0.66484 0.61307 0.64848 0.0
H148 H 0.64004 0.71618 0.45147 0.0
H149 H 0.66246 0.4226 0.65494 0.0
Co150 Co 0.06189 0.62308 0.97019 0.0
C151 C 0.05026 0.55563 0.03775 0.0
Co152 Co 0.11716 0.63399 1.02573 0.0
C153 C 0.01122 0.64426 0.89519 0.0
C154 C -0.0034 0.58136 0.87707 0.0
N155 N 0.01753 0.61389 0.91836 0.0
N156 N 0.99116 0.6336 0.83722 0.0
C157 C 0.98056 0.59361 0.82667 0.0
H158 H 0.02755 0.67599 0.91345 0.0
H159 H -0.00165 0.55313 0.87788 0.0
C160 C 0.13183 0.70222 0.95107 0.0
N161 N 0.161 0.64361 0.08306 0.0
C162 C 0.16765 0.61385 0.10876 0.0
C163 C 0.17315 0.67256 0.13117 0.0
N164 N 0.1786 0.62059 0.17335 0.0
C165 C 0.18267 0.65803 0.18685 0.0
C166 C 0.11751 0.60409 0.89692 0.0
O167 O 0.09358 0.67873 0.93748 0.0
O168 O 0.14746 0.69089 0.99652 0.0
O169 O 0.14002 0.61699 0.94938 0.0
O170 O 0.08375 0.6052 0.897 0.0
O171 O 0.08813 0.57832 0.05257 0.0
H172 H 0.16838 0.69901 0.12995 0.0
H173 H 0.15859 0.5848 0.08352 0.0
O174 O 0.0329 0.56962 1.00027 0.0
O175 O 0.0375 0.63755 0.0433 0.0
O176 O 0.09088 0.64738 0.1006 0.0
C177 C 0.05426 0.64249 0.09972 0.0
H178 H 0.96761 0.57664 0.78124 0.0
H179 H 0.1874 0.67176 0.23542 0.0
Co180 Co 0.93337 0.57297 0.47646 0.0
C181 C 0.94505 0.51192 0.42851 0.0
Co182 Co 0.88118 0.52563 0.41817 0.0
C183 C 0.96808 0.62941 0.58092 0.0
C184 C 0.01511 0.6419 0.50969 0.0
N185 N 0.97558 0.61379 0.52634 0.0
N186 N 0.00029 0.6671 0.59786 0.0
C187 C 0.03056 0.67448 0.55399 0.0
H188 H 0.93875 0.6136 0.6069 0.0
H189 H 0.03095 0.64028 0.46618 0.0
C190 C 0.86606 0.5859 0.4675 0.0
N191 N 0.8383 0.48843 0.36362 0.0
C192 C 0.83001 0.4509 0.34005 0.0
C193 C 0.8192 0.5014 0.32125 0.0
N194 N 0.80897 0.44162 0.28242 0.0
C195 C 0.80143 0.47296 0.27155 0.0
C196 C 0.87694 0.50032 0.552 0.0
O197 O 0.90214 0.60068 0.49168 0.0
O198 O 0.85154 0.55349 0.43247 0.0
O199 O 0.85585 0.4904 0.49811 0.0
O200 O 0.90929 0.53686 0.55463 0.0
O201 O 0.9091 0.49815 0.40518 0.0
H202 H 0.82237 0.53201 0.32139 0.0
H203 H 0.84351 0.43332 0.35997 0.0
O204 O 0.9631 0.54552 0.46168 0.0
O205 O 0.95942 0.60703 0.39837 0.0
O206 O 0.91001 0.55964 0.33792 0.0
C207 C 0.94577 0.59287 0.34112 0.0
H208 H 0.06145 0.70152 0.55269 0.0
H209 H 0.78768 0.47702 0.22724 0.0
Co210 Co 0.30528 0.91397 0.7411 0.0
C211 C 0.24601 0.83604 0.79103 0.0
Co212 Co 0.3263 0.89311 0.83314 0.0
C213 C 0.32614 0.95353 0.60758 0.0
C214 C 0.26927 0.94793 0.64199 0.0
N215 N 0.29756 0.93679 0.65811 0.0
N216 N 0.31699 0.97462 0.56162 0.0
C217 C 0.28087 0.97067 0.58355 0.0
H218 H 0.35432 0.95176 0.60587 0.0
H219 H 0.24277 0.94166 0.67225 0.0
C220 C 0.38236 0.97021 0.79175 0.0
N221 N 0.34424 0.8758 0.91195 0.0
C222 C 0.36915 0.89651 0.96509 0.0
C223 C 0.33669 0.83649 0.91968 0.0
N224 N 0.377 0.87143 1.0051 0.0
C225 C 0.35645 0.83381 0.97539 0.0
C226 C 0.34512 0.86857 0.71532 0.0
O227 O 0.35629 0.96313 0.74642 0.0
O228 O 0.37583 0.94193 0.8329 0.0
O229 O 0.34845 0.86688 0.77765 0.0
O230 O 0.32889 0.88861 0.6914 0.0
O231 O 0.27519 0.84487 0.83208 0.0
H232 H 0.31863 0.81121 0.88573 0.0
H233 H 0.38227 0.92958 0.97329 0.0
O234 O 0.25141 0.86102 0.74274 0.0
O235 O 0.28181 0.93888 0.79432 0.0
O236 O 0.30267 0.9189 0.88279 0.0
C237 C 0.28415 0.93663 0.85683 0.0
H238 H 0.26434 0.98412 0.55975 0.0
H239 H 0.35579 0.80594 0.99286 0.0
Co240 Co 0.43778 0.37588 0.14612 0.0
C241 C 0.49147 0.44888 0.09128 0.0
Co242 Co 0.48572 0.37353 0.08722 0.0
C243 C 0.36205 0.3421 0.21884 0.0
C244 C 0.40189 0.40736 0.23737 0.0
N245 N 0.39728 0.37599 0.19811 0.0
N246 N 0.34652 0.35041 0.27276 0.0
C247 C 0.37072 0.39164 0.2836 0.0
H248 H 0.35165 0.31071 0.20188 0.0
H249 H 0.42891 0.43824 0.23793 0.0
C250 C 0.43372 0.29784 0.14151 0.0
N251 N 0.52601 0.37345 0.03483 0.0
C252 C 0.53726 0.3901 0.97429 0.0
C253 C 0.55076 0.35741 0.04799 0.0
N254 N 0.568 0.38518 0.94934 0.0
C255 C 0.57679 0.3646 0.99506 0.0
C256 C 0.51376 0.40163 0.21867 0.0
O257 O 0.41694 0.31732 0.16642 0.0
O258 O 0.46474 0.3172 0.10403 0.0
O259 O 0.52379 0.39037 0.16519 0.0
O260 O 0.47629 0.39431 0.2225 0.0
O261 O 0.50708 0.42799 0.0699 0.0
H262 H 0.54998 0.34167 0.09318 0.0
H263 H 0.52345 0.40587 0.94905 0.0
O264 O 0.45864 0.43207 0.12566 0.0
O265 O 0.40078 0.36095 0.07091 0.0
O266 O 0.44804 0.36012 1.00973 0.0
C267 C 0.41214 0.35709 1.0135 0.0
H268 H 0.36948 0.40788 0.32714 0.0
H269 H 0.60038 0.35581 0.99049 0.0
Co270 Co 0.08886 0.406 0.38675 0.0
C271 C 0.16001 0.42263 0.46294 0.0
Co272 Co 0.1045 0.4505 0.4763 0.0
C273 C 0.05812 0.3861 0.24728 0.0
C274 C 0.06003 0.33495 0.29083 0.0
N275 N 0.07375 0.37585 0.30126 0.0
N276 N 0.03472 0.35353 0.20554 0.0
C277 C 0.03655 0.32146 0.23316 0.0
H278 H 0.06114 0.41627 0.24101 0.0
H279 H 0.06337 0.31496 0.32596 0.0
C280 C 0.03522 0.43401 0.40651 0.0
N281 N 0.10688 0.48018 0.56029 0.0
C282 C 0.13374 0.51113 0.60309 0.0
C283 C 0.0695 0.46707 0.58955 0.0
N284 N 0.1138 0.51672 0.65624 0.0
C285 C 0.07351 0.4888 0.6464 0.0
C286 C 0.14262 0.49378 0.36526 0.0
O287 O 0.0416 0.40975 0.3717 0.0
O288 O 0.05958 0.4548 0.45262 0.0
O289 O 0.13987 0.50063 0.42666 0.0
O290 O 0.12191 0.45655 0.34359 0.0
O291 O 0.14908 0.44463 0.49677 0.0
H292 H 0.04011 0.44237 0.57096 0.0
H293 H 0.16707 0.52926 0.59548 0.0
O294 O 0.13962 0.40357 0.40996 0.0
O295 O 0.05651 0.35646 0.43357 0.0
O296 O 0.06947 0.39835 0.51921 0.0
C297 C 0.05285 0.3617 0.49448 0.0
H298 H 0.02004 0.28971 0.21497 0.0
H299 H 0.04833 0.48439 0.67852 0.0
Co300 Co 0.62461 0.05592 0.80106 0.0
C301 C 0.54644 0.03421 0.76796 0.0
Co302 Co 0.62165 0.10462 0.74663 0.0
C303 C 0.65121 0.02614 0.9031 0.0
C304 C 0.60976 0.97512 0.84157 0.0
N305 N 0.6297 0.01705 0.84699 0.0
N306 N 0.64377 0.99178 0.93561 0.0
C307 C 0.61805 0.9593 0.89715 0.0
H308 H 0.66629 0.05687 0.9252 0.0
H309 H 0.58753 0.95729 0.8034 0.0
C310 C 0.70191 0.12949 0.78484 0.0
N311 N 0.61929 0.14627 0.70128 0.0
C312 C 0.60486 0.14594 0.64054 0.0
C313 C 0.6361 0.18624 0.72205 0.0
N314 N 0.61214 0.18393 0.62297 0.0
C315 C 0.63176 0.20959 0.67368 0.0
C316 C 0.60472 0.10737 0.88214 0.0
O317 O 0.68404 0.09323 0.80957 0.0
O318 O 0.67982 0.14047 0.75297 0.0
O319 O 0.61222 0.12725 0.82817 0.0
O320 O 0.61257 0.07751 0.88367 0.0
O321 O 0.5644 0.06993 0.74114 0.0
H322 H 0.65198 0.19807 0.76849 0.0
H323 H 0.59066 0.11902 0.60868 0.0
O324 O 0.56748 0.01993 0.79416 0.0
O325 O 0.63207 0.03204 0.72111 0.0
O326 O 0.6275 0.07914 0.66385 0.0
C327 C 0.62865 0.04518 0.66507 0.0
H328 H 0.60242 0.92687 0.91189 0.0
H329 H 0.64323 0.24281 0.6745 0.0
Co330 Co 0.58048 0.67755 0.06206 0.0
C331 C 0.54441 0.71763 0.13504 0.0
Co332 Co 0.53935 0.64181 0.15182 0.0
C333 C 0.60694 0.67653 0.92619 0.0
C334 C 0.6496 0.73506 0.97015 0.0
N335 N 0.61203 0.70081 0.98071 0.0
N336 N 0.63968 0.69357 0.88351 0.0
C337 C 0.6663 0.73083 0.91106 0.0
H338 H 0.58097 0.6451 0.92048 0.0
H339 H 0.66564 0.7599 1.00566 0.0
C340 C 0.57914 0.60621 0.08526 0.0
N341 N 0.50401 0.60417 0.22476 0.0
C342 C 0.49075 0.60409 0.28844 0.0
C343 C 0.48432 0.5628 0.21091 0.0
N344 N 0.46454 0.56451 0.31291 0.0
C345 C 0.46135 0.53929 0.26323 0.0
C346 C 0.49681 0.62373 0.03362 0.0
O347 O 0.59322 0.63651 0.04671 0.0
O348 O 0.55426 0.60277 0.13074 0.0
O349 O 0.49213 0.61561 0.0949 0.0
O350 O 0.53244 0.64958 1.01084 0.0
O351 O 0.528 0.68431 0.17001 0.0
H352 H 0.486 0.54959 0.16454 0.0
H353 H 0.49986 0.63233 0.31618 0.0
O354 O 0.56668 0.72091 0.08376 0.0
O355 O 0.62773 0.70457 0.11746 0.0
O356 O 0.58791 0.66963 0.20367 0.0
C357 C 0.62343 0.69579 0.17891 0.0
H358 H 0.697 0.75243 0.89207 0.0
H359 H 0.44276 0.50563 0.26434 0.0
C360 C 0.41155 0.19716 0.2257 0.0
C361 C 0.41552 0.17612 0.17022 0.0
C362 C 0.41125 0.22674 0.09835 0.0
C363 C 0.41805 0.25287 0.15364 0.0
N364 N 0.42577 0.26325 0.2713 0.0
N365 N 0.41841 0.17055 0.05197 0.0
C366 C 0.41749 0.23783 0.21797 0.0
C367 C 0.41414 0.19016 0.10583 0.0
N368 N 0.4023 0.17812 0.28582 0.0
N369 N 0.40222 0.23722 0.03869 0.0
H370 H 0.41967 0.14323 0.0548 0.0
H371 H 0.42307 0.1827 1.00453 0.0
H372 H 0.39924 0.26352 0.03243 0.0
H373 H 0.39346 0.21779 0.99758 0.0
H374 H 0.39568 0.19039 0.3272 0.0
H375 H 0.39676 0.14783 0.29221 0.0
H376 H 0.43066 0.25555 0.31843 0.0
H377 H 0.43076 0.29336 0.26771 0.0
C378 C 0.21296 0.37568 0.56144 0.0
C379 C 0.24037 0.41142 0.59989 0.0
C380 C 0.22473 0.45467 0.52855 0.0
C381 C 0.19532 0.41927 0.49241 0.0
N382 N 0.16931 0.34745 0.46361 0.0
N383 N 0.25381 0.47891 0.63616 0.0
C384 C 0.19174 0.38001 0.50554 0.0
C385 C 0.24126 0.44938 0.588 0.0
N386 N 0.20486 0.33724 0.58191 0.0
N387 N 0.23617 0.49369 0.50629 0.0
H388 H 0.2584 0.47271 0.68449 0.0
H389 H 0.25255 0.50621 0.63101 0.0
H390 H 0.22514 0.49836 0.4617 0.0
H391 H 0.25971 0.52075 0.52834 0.0
H392 H 0.18346 0.30928 0.55969 0.0
H393 H 0.21635 0.33304 0.62632 0.0
H394 H 0.16682 0.31837 0.46775 0.0
H395 H 0.15594 0.3506 0.42064 0.0
C396 C 0.80457 0.22675 0.75172 0.0
C397 C 0.8196 0.23835 0.81719 0.0
C398 C 0.76688 0.16856 0.85619 0.0
C399 C 0.74742 0.16026 0.79341 0.0
N400 N 0.75646 0.17242 0.67708 0.0
N401 N 0.81904 0.21943 0.93066 0.0
C402 C 0.7692 0.18668 0.73973 0.0
C403 C 0.80216 0.20869 0.86895 0.0
N404 N 0.82227 0.25494 0.70179 0.0
N405 N 0.75308 0.1377 0.9023 0.0
H406 H 0.84724 0.24666 0.94013 0.0
H407 H 0.80486 0.20227 0.97288 0.0
H408 H 0.73127 0.10691 0.89179 0.0
H409 H 0.76688 0.14086 0.94805 0.0
H410 H 0.80943 0.25085 0.65499 0.0
H411 H 0.84941 0.28351 0.70766 0.0
H412 H 0.7725 0.18818 0.63487 0.0
H413 H 0.73181 0.14236 0.66759 0.0
C414 C 0.50066 0.74414 0.18696 0.0
C415 C 0.53974 0.75307 0.16074 0.0
C416 C 0.57441 0.81451 0.2324 0.0
C417 C 0.53542 0.8069 0.25777 0.0
N418 N 0.46037 0.7702 0.24055 0.0
N419 N 0.61063 0.80702 0.13904 0.0
C420 C 0.49812 0.77326 0.23001 0.0
C421 C 0.5755 0.79175 0.17662 0.0
N422 N 0.46559 0.70771 0.17005 0.0
N423 N 0.61066 0.84203 0.26339 0.0
H424 H 0.61221 0.79234 0.09636 0.0
H425 H 0.63637 0.8367 0.14612 0.0
H426 H 0.61132 0.85639 0.30791 0.0
H427 H 0.6396 0.8464 0.24941 0.0
H428 H 0.43729 0.69619 0.19469 0.0
H429 H 0.46541 0.6883 0.1326 0.0
H430 H 0.43341 0.74934 0.21528 0.0
H431 H 0.45617 0.79098 0.26891 0.0
C432 C 0.78139 0.60977 0.43526 0.0
C433 C 0.76711 0.6089 0.50035 0.0
C434 C 0.8267 0.60644 0.5456 0.0
C435 C 0.83952 0.60434 0.48055 0.0
N436 N 0.83863 0.61913 0.36559 0.0
N437 N 0.78422 0.62349 0.61501 0.0
C438 C 0.82011 0.61144 0.42607 0.0
C439 C 0.79291 0.61347 0.55463 0.0
N440 N 0.75693 0.60596 0.38256 0.0
N441 N 0.84394 0.59803 0.59844 0.0
H442 H 0.75959 0.62905 0.62221 0.0
H443 H 0.8038 0.63057 0.65558 0.0
H444 H 0.86836 0.59211 0.59445 0.0
H445 H 0.83206 0.59408 0.64603 0.0
H446 H 0.76338 0.6009 0.33465 0.0
H447 H 0.729 0.60587 0.38692 0.0
H448 H 0.82785 0.62779 0.32471 0.0
H449 H 0.86731 0.62092 0.35837 0.0
C450 C 0.21249 0.76181 0.81675 0.0
C451 C 0.20686 0.79599 0.80477 0.0
C452 C 0.14731 0.76572 0.88155 0.0
C453 C 0.15896 0.73636 0.9035 0.0
N454 N 0.20731 0.71014 0.89266 0.0
N455 N 0.16456 0.82731 0.81492 0.0
C456 C 0.19263 0.73523 0.8711 0.0
C457 C 0.17231 0.79649 0.83311 0.0
N458 N 0.23824 0.75561 0.77637 0.0
N459 N 0.11325 0.765 0.90857 0.0
H460 H 0.18144 0.84835 0.7775 0.0
H461 H 0.14222 0.83254 0.83652 0.0
H462 H 0.09716 0.74635 0.94874 0.0
H463 H 0.10033 0.78228 0.89101 0.0
H464 H 0.24032 0.72864 0.77673 0.0
H465 H 0.25403 0.77577 0.7377 0.0
H466 H 0.23507 0.71284 0.87591 0.0
H467 H 0.19497 0.68916 0.93105 0.0
C468 C 0.54435 0.11669 0.92823 0.0
C469 C 0.5818 0.11511 0.93936 0.0
C470 C 0.57109 0.11957 0.06009 0.0
C471 C 0.5327 0.1191 0.0488 0.0
N472 N 0.48987 0.1288 0.97112 0.0
N473 N 0.63448 0.12348 1.01617 0.0
C474 C 0.52155 0.12096 0.98246 0.0
C475 C 0.596 0.11884 1.00559 0.0
N476 N 0.52881 0.1119 0.86584 0.0
N477 N 0.58378 0.12033 0.12335 0.0
H478 H 0.65374 0.12449 0.97798 0.0
H479 H 0.64922 0.1296 0.06162 0.0
H480 H 0.56909 0.1244 0.16379 0.0
H481 H 0.60847 0.11632 0.13692 0.0
H482 H 0.49945 0.10732 0.855 0.0
H483 H 0.54318 0.10873 0.82426 0.0
H484 H 0.48271 0.1358 0.92514 0.0
H485 H 0.47326 0.13275 1.00905 0.0
C486 C 0.46327 0.55319 0.4361 0.0
C487 C 0.44188 0.5482 0.37578 0.0
C488 C 0.37705 0.4923 0.42947 0.0
C489 C 0.39804 0.49829 0.49068 0.0
N490 N 0.46025 0.54184 0.55423 0.0
N491 N 0.37597 0.51985 0.321 0.0
C492 C 0.44072 0.53126 0.49457 0.0
C493 C 0.39799 0.51967 0.37461 0.0
N494 N 0.50571 0.5769 0.43686 0.0
N495 N 0.33688 0.46033 0.42338 0.0
H496 H 0.39015 0.54056 0.28199 0.0
H497 H 0.3436 0.50293 0.31814 0.0
H498 H 0.31973 0.44156 0.46285 0.0
H499 H 0.32135 0.45081 0.37849 0.0
H500 H 0.52392 0.57823 0.47673 0.0
H501 H 0.52302 0.59293 0.39562 0.0
H502 H 0.48888 0.56883 0.56186 0.0
H503 H 0.447 0.52515 0.5972 0.0
C504 C 0.87138 0.45382 0.72873 0.0
C505 C 0.86901 0.41476 0.71465 0.0
C506 C 0.86268 0.42774 0.595 0.0
C507 C 0.86859 0.46845 0.60834 0.0
N508 N 0.87719 0.51906 0.69022 0.0
N509 N 0.86555 0.36676 0.63191 0.0
C510 C 0.8723 0.4808 0.67606 0.0
C511 C 0.86521 0.40246 0.6471 0.0
N512 N 0.87325 0.46564 0.79301 0.0
N513 N 0.85495 0.41265 0.53201 0.0
H514 H 0.86349 0.3457 0.66745 0.0
H515 H 0.87017 0.35893 0.58468 0.0
H516 H 0.85778 0.4303 0.49077 0.0
H517 H 0.84359 0.38143 0.52029 0.0
H518 H 0.87019 0.49066 0.8086 0.0
H519 H 0.87628 0.4494 0.83223 0.0
H520 H 0.88633 0.53376 0.73575 0.0
H521 H 0.87269 0.53694 0.6553 0.0
C522 C 0.44284 0.91193 0.07432 0.0
C523 C 0.40054 0.87978 0.06754 0.0
C524 C 0.40773 0.85063 0.17359 0.0
C525 C 0.44933 0.88495 0.1842 0.0
N526 N 0.49737 0.95648 0.15064 0.0
N527 N 0.33995 0.82801 0.1247 0.0
C528 C 0.46432 0.91801 0.13625 0.0
C529 C 0.38228 0.85229 0.12172 0.0
N530 N 0.4634 0.93616 1.02142 0.0
N531 N 0.39224 0.81495 0.20988 0.0
H532 H 0.32051 0.82997 0.08964 0.0
H533 H 0.32435 0.81014 0.16582 0.0
H534 H 0.40885 0.80952 0.24541 0.0
H535 H 0.36398 0.78821 0.19886 0.0
H536 H 0.49531 0.95737 1.02193 0.0
H537 H 0.44952 0.93208 0.9754 0.0
H538 H 0.50701 0.98203 0.11951 0.0
H539 H 0.51093 0.96474 0.19708 0.0
C540 C 0.53425 0.41564 0.34176 0.0
C541 C 0.54553 0.42656 0.27443 0.0
C542 C 0.61053 0.4902 0.31498 0.0
C543 C 0.59579 0.48267 0.38132 0.0
N544 N 0.54475 0.43457 0.45833 0.0
N545 N 0.59785 0.47376 0.19772 0.0
C546 C 0.55819 0.44404 0.39468 0.0
C547 C 0.58506 0.46333 0.26151 0.0
N548 N 0.50096 0.377 0.35497 0.0
N549 N 0.64994 0.52258 0.30348 0.0
H550 H 0.58083 0.45641 0.15731 0.0
H551 H 0.62458 0.50085 0.18327 0.0
H552 H 0.66915 0.54184 0.34099 0.0
H553 H 0.66531 0.52871 0.25856 0.0
H554 H 0.49091 0.36457 0.40162 0.0
H555 H 0.48485 0.35518 0.31808 0.0
H556 H 0.51766 0.408 0.47296 0.0
H557 H 0.55978 0.45409 0.49805 0.0
C558 C 0.12602 0.60376 0.77122 0.0
C559 C 0.12884 0.58817 0.83414 0.0
C560 C 0.13554 0.53265 0.77497 0.0
C561 C 0.12821 0.54569 0.71294 0.0
N562 N 0.1151 0.59313 0.65255 0.0
N563 N 0.14841 0.54441 0.89316 0.0
C564 C 0.12385 0.58162 0.71146 0.0
C565 C 0.13764 0.55483 0.83505 0.0
N566 N 0.12759 0.64128 0.76844 0.0
N567 N 0.13761 0.49697 0.77666 0.0
H568 H 0.14946 0.55889 0.93759 0.0
H569 H 0.15917 0.52349 0.89701 0.0
H570 H 0.1375 0.48136 0.73377 0.0
H571 H 0.13738 0.48174 0.81973 0.0
H572 H 0.13 0.65703 0.72487 0.0
H573 H 0.13099 0.65888 0.81046 0.0
H574 H 0.10581 0.61517 0.6476 0.0
H575 H 0.11522 0.57877 0.60838 0.0
C576 C 0.29643 0.00214 0.90484 0.0
C577 C 0.27035 0.95858 0.90133 0.0
C578 C 0.2617 0.95512 1.02007 0.0
C579 C 0.29869 0.99404 1.02342 0.0
N580 N 0.34484 0.06027 0.97284 0.0
N581 N 0.21651 0.89608 0.95022 0.0
C582 C 0.31289 0.02014 0.96714 0.0
C583 C 0.24777 0.93634 0.95749 0.0
N584 N 0.30729 0.02502 0.84836 0.0
N585 N 0.24355 0.93503 0.07727 0.0
H586 H 0.20744 0.88298 0.90345 0.0
H587 H 0.19986 0.87636 0.98894 0.0
H588 H 0.25549 0.94921 0.12279 0.0
H589 H 0.21634 0.90613 0.07971 0.0
H590 H 0.32527 0.05742 0.84719 0.0
H591 H 0.29479 0.01116 0.80294 0.0
H592 H 0.3603 0.07942 0.93292 0.0
H593 H 0.35585 0.07446 1.01839 0.0
C594 C 0.28448 0.31236 0.34201 0.0
C595 C 0.32479 0.32103 0.32414 0.0
C596 C 0.32587 0.28134 0.41848 0.0
C597 C 0.2935 0.28537 0.44628 0.0
N598 N 0.23503 0.29465 0.43191 0.0
N599 N 0.38614 0.31628 0.3491 0.0
C600 C 0.26943 0.29597 0.40569 0.0
C601 C 0.34578 0.30509 0.36212 0.0
N602 N 0.2622 0.32193 0.29945 0.0
N603 N 0.33978 0.25814 0.44939 0.0
H604 H 0.40355 0.33635 0.31126 0.0
H605 H 0.40375 0.30885 0.38016 0.0
H606 H 0.32494 0.24048 0.49102 0.0
H607 H 0.36231 0.25256 0.4291 0.0
H608 H 0.23168 0.31476 0.30803 0.0
H609 H 0.27384 0.33473 0.25315 0.0
H610 H 0.21783 0.30585 0.40819 0.0
H611 H 0.22461 0.28271 0.47909 0.0
C612 C 0.98729 0.3095 0.5453 0.0
C613 C 0.03044 0.32612 0.53905 0.0
C614 C 0.03662 0.31752 0.65614 0.0
C615 C -0.00219 0.31499 0.66407 0.0
N616 N 0.93053 0.2958 0.61947 0.0
N617 N 0.09262 0.33046 0.5802 0.0
C618 C 0.97055 0.30495 0.60951 0.0
C619 C 0.05355 0.32352 0.59195 0.0
N620 N 0.96363 0.30073 0.48991 0.0
N621 N 0.05844 0.31898 0.71093 0.0
H622 H 0.10392 0.33455 0.53215 0.0
H623 H 0.11259 0.3306 0.61616 0.0
H624 H 0.04546 0.31543 0.75782 0.0
H625 H 0.08799 0.3224 0.71017 0.0
H626 H 0.93137 0.28719 0.49012 0.0
H627 H 0.97685 0.30484 0.44314 0.0
H628 H 0.91021 0.29284 0.58191 0.0
H629 H 0.91755 0.29077 0.66636 0.0
C630 C 0.67892 0.98877 0.10658 0.0
C631 C 0.65508 0.0025 0.14119 0.0
C632 C 0.62068 0.00403 0.04114 0.0
C633 C 0.64544 0.99158 1.00555 0.0
N634 N 0.70253 0.97871 1.00029 0.0
N635 N 0.61177 0.03345 0.14177 0.0
C636 C 0.67616 0.9861 0.03707 0.0
C637 C 0.62942 0.0144 0.10796 0.0
N638 N 0.70233 0.97642 0.14101 0.0
N639 N 0.58791 0.00435 1.0112 0.0
H640 H 0.61751 0.04095 0.19155 0.0
H641 H 0.59468 0.04528 0.11953 0.0
H642 H 0.5787 0.99392 0.96317 0.0
H643 H 0.56733 0.01112 0.0354 0.0
H644 H 0.71716 0.96186 0.11955 0.0
H645 H 0.70543 0.97962 0.19211 0.0
H646 H 0.72803 0.97799 1.01989 0.0
H647 H 0.69996 0.97558 0.94917 0.0
C648 C 0.70471 0.702 0.29122 0.0
C649 C 0.69168 0.71653 0.34527 0.0
C650 C 0.65945 0.74316 0.27269 0.0
C651 C 0.65924 0.71596 0.22355 0.0
N652 N 0.69196 0.67995 0.17665 0.0
N653 N 0.68804 0.77656 0.37789 0.0
C654 C 0.68637 0.6997 0.22894 0.0
C655 C 0.68019 0.74652 0.33237 0.0
N656 N 0.73442 0.69131 0.30031 0.0
N657 N 0.637 0.76256 0.26428 0.0
H658 H 0.704 0.7785 0.42131 0.0
H659 H 0.68215 0.80084 0.36978 0.0
H660 H 0.62201 0.76024 0.21998 0.0
H661 H 0.63214 0.77896 0.30156 0.0
H662 H 0.74681 0.6819 0.26251 0.0
H663 H 0.74887 0.69554 0.34607 0.0
H664 H 0.70857 0.66429 0.17925 0.0
H665 H 0.67921 0.67901 0.13049 0.0
C666 C 0.03707 0.68653 0.75511 0.0
C667 C -0.00288 0.6621 0.78513 0.0
C668 C 0.96522 0.67671 0.69221 0.0
C669 C 0.00261 0.68948 0.65746 0.0
N670 N 0.07546 0.73738 0.6699 0.0
N671 N 0.92497 0.64242 0.79059 0.0
C672 C 0.03924 0.7056 0.6943 0.0
C673 C 0.96178 0.6611 0.7571 0.0
N674 N 0.07181 0.68791 0.77982 0.0
N675 N 0.93291 0.67641 0.6602 0.0
H676 H 0.92284 0.63128 0.83845 0.0
H677 H 0.89706 0.63798 0.77147 0.0
H678 H 0.93635 0.68688 0.6116 0.0
H679 H 0.90439 0.66804 0.68194 0.0
H680 H 0.10058 0.70334 0.75611 0.0
H681 H 0.07134 0.6705 0.81993 0.0
H682 H 0.1031 0.75185 0.69687 0.0
H683 H 0.07575 0.75218 0.62606 0.0
C684 C 0.45397 0.98166 0.30825 0.0
C685 C 0.48759 0.01825 0.28098 0.0
C686 C 0.53097 0.02393 0.37471 0.0
C687 C 0.49881 0.9848 0.39559 0.0
N688 N 0.42512 0.94281 0.409 0.0
N689 N 0.56156 0.06577 0.27779 0.0
C690 C 0.45833 0.9705 0.37259 0.0
C691 C 0.52727 0.03751 0.31184 0.0
N692 N 0.42043 0.95543 0.27081 0.0
N693 N 0.56726 0.04332 0.40925 0.0
H694 H 0.55931 0.07111 0.22811 0.0
H695 H 0.59189 0.07936 0.29567 0.0
H696 H 0.57151 0.02935 0.45057 0.0
H697 H 0.59147 0.07331 0.39862 0.0
H698 H 0.39692 0.92666 0.28814 0.0
H699 H 0.41926 0.95988 0.22037 0.0
H700 H 0.3944 0.93179 0.39442 0.0
H701 H 0.42934 0.93441 0.45619 0.0
C702 C 0.49422 0.49254 0.69738 0.0
C703 C 0.46565 0.45664 0.66208 0.0
C704 C 0.50275 0.48418 0.56041 0.0
C705 C 0.53144 0.52027 0.5944 0.0
N706 N 0.55568 0.56171 0.69279 0.0
N707 N 0.45504 0.41036 0.57154 0.0
C708 C 0.52745 0.5254 0.6626 0.0
C709 C 0.47426 0.44969 0.59725 0.0
N710 N 0.48786 0.49492 0.76307 0.0
N711 N 0.5035 0.48302 0.49333 0.0
H712 H 0.43744 0.38416 0.60095 0.0
H713 H 0.46021 0.40367 0.52387 0.0
H714 H 0.52493 0.50869 0.46581 0.0
H715 H 0.48078 0.45828 0.46579 0.0
H716 H 0.50611 0.52073 0.7926 0.0
H717 H 0.46383 0.4696 0.78806 0.0
H718 H 0.55637 0.5674 0.74304 0.0
H719 H 0.57815 0.58697 0.66576 0.0
C720 C 0.01789 0.47627 0.94568 0.0
C721 C 0.97555 0.46625 0.94717 0.0
C722 C 0.9861 0.49546 0.05778 0.0
C723 C 0.02876 0.511 0.04934 0.0
N724 N 0.08008 0.4959 1.00995 0.0
N725 N 0.9242 0.47974 0.99703 0.0
C726 C 0.04197 0.49224 1.00317 0.0
C727 C 0.96031 0.47871 1.00193 0.0
N728 N 0.03598 0.47482 0.88807 0.0
N729 N 0.97284 0.50474 0.11426 0.0
H730 H 0.90851 0.47481 0.95239 0.0
H731 H 0.91291 0.49063 0.0344 0.0
H732 H -0.00574 0.52239 0.15084 0.0
H733 H 0.94151 0.49313 0.12541 0.0
H734 H 0.06674 0.48179 0.88446 0.0
H735 H 0.02163 0.47219 0.84286 0.0
H736 H 0.09124 0.48165 0.97828 0.0
H737 H 0.09887 0.51102 0.05051 0.0
C738 C 0.9754 0.43188 0.45358 0.0
C739 C -0.0006 0.43838 0.3966 0.0
C740 C 0.978 0.48523 0.35361 0.0
C741 C 0.96433 0.48735 0.4177 0.0
N742 N 0.95339 0.46559 0.5317 0.0
N743 N 0.02588 0.47265 0.29216 0.0
C744 C 0.96341 0.46113 0.46871 0.0
C745 C 0.00041 0.46443 0.34528 0.0
N746 N 0.96725 0.39973 0.49494 0.0
N747 N 0.97053 0.5036 0.30143 0.0
H748 H 0.04374 0.45863 0.2856 0.0
H749 H 0.03138 0.49549 0.2574 0.0
H750 H 0.95542 0.5207 0.30559 0.0
H751 H 0.97596 0.49825 0.2532 0.0
H752 H 0.94776 0.39204 0.53581 0.0
H753 H 0.97738 0.37879 0.48405 0.0
H754 H 0.95595 0.44929 0.57141 0.0
H755 H 0.94633 0.48841 0.54521 0.0
C756 C 0.44786 0.01468 0.84599 0.0
C757 C 0.42405 0.00633 0.7882 0.0
C758 C 0.47785 0.00798 0.72194 0.0
C759 C 0.50185 0.01425 0.77857 0.0
N760 N 0.50867 0.01875 0.89722 0.0
N761 N 0.42531 0.01879 0.67224 0.0
C762 C 0.48681 0.01659 0.84191 0.0
C763 C 0.44266 0.01205 0.72635 0.0
N764 N 0.43139 0.01834 0.90402 0.0
N765 N 0.48679 0.99424 0.66578 0.0
H766 H 0.39995 0.02343 0.67658 0.0
H767 H 0.43901 0.0243 0.62572 0.0
H768 H 0.50889 0.98479 0.6667 0.0
H769 H 0.46823 0.98634 0.62372 0.0
H770 H 0.44674 0.02541 0.94908 0.0
H771 H 0.40232 0.01637 0.90519 0.0
H772 H 0.499 0.01977 0.94488 0.0
H773 H 0.53558 0.01677 0.89591 0.0
C774 C 0.56528 0.54967 1.01505 0.0
C775 C 0.58554 0.57149 0.07243 0.0
C776 C 0.54345 0.51354 0.14156 0.0
C777 C 0.51769 0.49321 0.08634 0.0
N778 N 0.5045 0.48913 0.96937 0.0
N779 N 0.61117 0.56887 0.17812 0.0
C780 C 0.52904 0.51023 1.02207 0.0
C781 C 0.58181 0.54988 0.13037 0.0
N782 N 0.57963 0.56838 0.95567 0.0
N783 N 0.53033 0.49969 0.20406 0.0
H784 H 0.63799 0.59749 0.16904 0.0
H785 H 0.61011 0.55534 0.22344 0.0
H786 H 0.50107 0.47439 0.21439 0.0
H787 H 0.54672 0.51585 0.24591 0.0
H788 H 0.56692 0.55473 0.91044 0.0
H789 H 0.60644 0.59763 0.95306 0.0
H790 H 0.51045 0.50022 0.9213 0.0
H791 H 0.47662 0.46084 0.97458 0.0
C792 C 0.36833 0.04116 0.50257 0.0
C793 C 0.34031 0.99725 0.50177 0.0
C794 C 0.35628 -0.00241 0.38243 0.0
C795 C 0.38249 0.04242 0.38134 0.0
N796 N 0.40598 0.10654 0.44175 0.0
N797 N 0.30237 0.93512 0.43787 0.0
C798 C 0.38667 0.06398 0.44213 0.0
C799 C 0.33284 0.97614 0.44064 0.0
N800 N 0.37754 0.06125 0.56179 0.0
N801 N 0.35518 0.97454 0.32917 0.0
H802 H 0.28622 0.91839 0.47958 0.0
H803 H 0.29075 0.91868 0.39406 0.0
H804 H 0.37241 0.98712 0.28663 0.0
H805 H 0.3404 0.94213 0.32932 0.0
H806 H 0.40124 0.09201 0.56848 0.0
H807 H 0.36316 0.04587 0.60537 0.0
H808 H 0.40692 0.12422 0.48222 0.0
H809 H 0.41743 0.12422 0.39905 0.0
C810 C 0.39829 0.34966 0.88689 0.0
C811 C 0.38644 0.35497 0.9515 0.0
C812 C 0.33933 0.37664 0.89899 0.0
C813 C 0.35199 0.37276 0.83432 0.0
N814 N 0.38835 0.34605 0.7688 0.0
N815 N 0.32925 0.35284 1.01208 0.0
C816 C 0.37983 0.35642 0.82903 0.0
C817 C 0.35233 0.36266 0.95567 0.0
N818 N 0.42692 0.33713 0.87998 0.0
N819 N 0.31389 0.39298 0.90697 0.0
H820 H 0.33203 0.3355 0.04987 0.0
H821 H 0.30254 0.35511 1.01672 0.0
H822 H 0.30016 0.39963 0.8677 0.0
H823 H 0.30833 0.40202 0.9527 0.0
H824 H 0.44473 0.34227 0.83767 0.0
H825 H 0.43212 0.32051 0.9163 0.0
H826 H 0.40294 0.32864 0.76208 0.0
H827 H 0.37856 0.35181 0.72461 0.0
C828 C 0.93934 0.32459 0.09442 0.0
C829 C 0.95778 0.34266 0.03216 0.0
C830 C 0.02744 0.36591 0.08513 0.0
C831 C 0.00904 0.35141 0.14793 0.0
N832 N 0.94717 0.32257 0.21371 0.0
N833 N 0.02258 0.38869 0.97533 0.0
C834 C 0.96488 0.33243 0.15269 0.0
C835 C 0.00273 0.36531 1.02951 0.0
N836 N 0.89736 0.29777 0.09762 0.0
N837 N 0.06899 0.37994 0.07829 0.0
H838 H 0.00734 0.39282 0.93587 0.0
H839 H 0.05471 0.40795 0.97208 0.0
H840 H 0.08773 0.38204 0.11801 0.0
H841 H 0.08406 0.3861 0.03298 0.0
H842 H 0.88231 0.28047 0.13938 0.0
H843 H 0.87803 0.28933 0.0565 0.0
H844 H 0.91601 0.31301 0.2225 0.0
H845 H 0.96479 0.32773 0.25634 0.0
C846 C 0.64026 0.99614 0.58787 0.0
C847 C 0.61685 0.01566 0.60575 0.0
C848 C 0.55732 0.9596 0.54543 0.0
C849 C 0.58173 0.94338 0.51874 0.0
N850 N 0.64963 0.95043 0.51159 0.0
N851 N 0.55747 0.02231 0.57584 0.0
C852 C 0.62434 0.96317 0.53889 0.0
C853 C 0.57701 -0.0004 0.57621 0.0
N854 N 0.67789 0.00927 0.61712 0.0
N855 N 0.51493 0.93637 0.54489 0.0
H856 H 0.56987 0.05164 0.59674 0.0
H857 H 0.53041 0.0132 0.54864 0.0
H858 H 0.49909 0.90457 0.53546 0.0
H859 H 0.49594 0.94681 0.56473 0.0
H860 H 0.69452 0.9937 0.61207 0.0
H861 H 0.69157 0.03493 0.64877 0.0
H862 H 0.6818 0.96624 0.51824 0.0
H863 H 0.63834 0.92486 0.47985 0.0
C864 C 0.64314 0.68528 0.76117 0.0
C865 C 0.64769 0.67412 0.82593 0.0
C866 C 0.67026 0.6268 0.77684 0.0
C867 C 0.66591 0.63833 0.71099 0.0
N868 N 0.66838 0.69548 0.6492 0.0
N869 N 0.6773 0.64331 0.89442 0.0
C870 C 0.65797 0.67235 0.70553 0.0
C871 C 0.6644 0.64724 0.83337 0.0
N872 N 0.62487 0.70889 0.75249 0.0
N873 N 0.68148 0.5974 0.78639 0.0
H874 H 0.6741 0.65825 0.9357 0.0
H875 H 0.69393 0.62813 0.90338 0.0
H876 H 0.69532 0.58862 0.75009 0.0
H877 H 0.6778 0.58236 0.83125 0.0
H878 H 0.61662 0.71461 0.70629 0.0
H879 H 0.61469 0.71947 0.79203 0.0
H880 H 0.66532 0.72174 0.64397 0.0
H881 H 0.68696 0.69342 0.61273 0.0
C882 C 0.03458 0.61352 0.21871 0.0
C883 C 0.02829 0.63381 0.1637 0.0
C884 C 0.96528 0.6252 0.22346 0.0
C885 C 0.97503 0.60963 0.28084 0.0
N886 N 0.02795 0.60031 0.33518 0.0
N887 N 0.99083 0.66676 0.12331 0.0
C888 C 0.01277 0.6082 0.27933 0.0
C889 C -0.00563 0.64173 0.16883 0.0
N890 N 0.05826 0.59508 0.21242 0.0
N891 N 0.92831 0.62464 0.22096 0.0
H892 H 0.0126 0.68159 0.08591 0.0
H893 H 0.96923 0.67671 0.12715 0.0
H894 H 0.90763 0.61497 0.26054 0.0
H895 H 0.91707 0.63106 0.17828 0.0
H896 H 0.06027 0.57643 0.24888 0.0
H897 H 0.07043 0.59233 0.16818 0.0
H898 H 0.05787 0.60454 0.33793 0.0
H899 H 0.01254 0.59257 0.37984 0.0
C900 C 0.61889 0.20019 0.4417 0.0
C901 C 0.58194 0.20133 0.431 0.0
C902 C 0.56812 0.19715 0.54892 0.0
C903 C 0.6046 0.19512 0.55949 0.0
N904 N 0.66922 0.20301 0.52069 0.0
N905 N 0.52542 0.20891 0.47129 0.0
C906 C 0.63164 0.19962 0.50714 0.0
C907 C 0.55802 0.20277 0.48399 0.0
N908 N 0.64015 0.19717 0.38908 0.0
N909 N 0.54231 0.19147 0.60072 0.0
H910 H 0.51762 0.21282 0.42354 0.0
H911 H 0.50813 0.21317 0.50759 0.0
H912 H 0.54955 0.18773 0.6489 0.0
H913 H 0.51301 0.18838 0.59592 0.0
H914 H 0.66488 0.19166 0.39318 0.0
H915 H 0.6315 0.19812 0.34056 0.0
H916 H 0.69204 0.20964 0.48539 0.0
H917 H 0.67881 0.20227 0.56868 0.0
C918 C 0.40684 0.54294 0.93081 0.0
C919 C 0.41033 0.5683 0.8764 0.0
C920 C 0.45758 0.62996 0.94004 0.0
C921 C 0.46164 0.60405 0.98707 0.0
N922 N 0.44376 0.53445 1.02127 0.0
N923 N 0.44424 0.63649 0.82585 0.0
C924 C 0.43678 0.56003 0.98177 0.0
C925 C 0.4366 0.61213 0.88024 0.0
N926 N 0.37503 0.50254 0.93336 0.0
N927 N 0.47408 0.67155 0.95235 0.0
H928 H 0.43171 0.62446 0.77974 0.0
H929 H 0.46648 0.66817 0.82511 0.0
H930 H 0.48863 0.68525 0.99684 0.0
H931 H 0.46915 0.69113 0.92163 0.0
H932 H 0.36941 0.48351 0.97429 0.0
H933 H 0.35169 0.48987 0.89763 0.0
H934 H 0.42902 0.50227 1.01426 0.0
H935 H 0.46725 0.54557 0.05645 0.0
C936 C 0.76582 0.37614 0.13305 0.0
C937 C 0.79903 0.36995 0.11379 0.0
C938 C 0.83838 0.40772 0.21092 0.0
C939 C 0.80411 0.41166 0.23272 0.0
N940 N 0.73069 0.38685 0.22494 0.0
N941 N 0.85796 0.3645 0.14942 0.0
C942 C 0.76608 0.39101 0.19745 0.0
C943 C 0.83216 0.38029 0.15822 0.0
N944 N 0.73606 0.37145 0.08901 0.0
N945 N 0.87765 0.43275 0.23478 0.0
H946 H 0.85259 0.34254 0.11286 0.0
H947 H 0.88119 0.36943 0.1831 0.0
H948 H 0.88559 0.45766 0.2664 0.0
H949 H 0.90349 0.43224 0.21583 0.0
H950 H 0.71345 0.3793 0.10007 0.0
H951 H 0.73657 0.36429 0.0396 0.0
H952 H 0.70148 0.36957 0.20297 0.0
H953 H 0.73027 0.39695 0.2728 0.0
C954 C 0.34436 0.80659 0.56567 0.0
C955 C 0.38502 0.81302 0.56803 0.0
C956 C 0.39903 0.85256 0.67083 0.0
C957 C 0.35791 0.84601 0.66906 0.0
N958 N 0.28872 0.81021 0.62076 0.0
N959 N 0.44799 0.83326 0.62743 0.0
C960 C 0.32964 0.82072 0.61852 0.0
C961 C 0.41107 0.8327 0.62286 0.0
N962 N 0.32091 0.78931 0.51041 0.0
N963 N 0.42764 0.88051 0.71424 0.0
H964 H 0.45744 0.81943 0.59182 0.0
H965 H 0.4672 0.84392 0.66869 0.0
H966 H 0.42085 0.8972 0.74843 0.0
H967 H 0.45922 0.8901 0.71264 0.0
H968 H 0.29314 0.78877 0.5007 0.0
H969 H 0.33063 0.77737 0.47218 0.0
H970 H 0.26589 0.78799 0.59002 0.0
H971 H 0.2765 0.8212 0.65638 0.0
C972 C 0.58135 0.39725 0.76679 0.0
C973 C 0.62034 0.43457 0.76313 0.0
C974 C 0.62598 0.43799 0.88306 0.0
C975 C 0.58754 0.40005 0.88667 0.0
N976 N 0.53122 0.34003 0.83473 0.0
N977 N 0.68294 0.48768 0.81427 0.0
C978 C 0.56608 0.37849 0.82911 0.0
C979 C 0.64374 0.454 0.82043 0.0
N980 N 0.55836 0.38106 0.71082 0.0
N981 N 0.6442 0.4595 0.93955 0.0
H982 H 0.69622 0.50002 0.76854 0.0
H983 H 0.70335 0.50149 0.85356 0.0
H984 H 0.63172 0.44826 0.98608 0.0
H985 H 0.67006 0.48945 0.94043 0.0
H986 H 0.5278 0.3563 0.71044 0.0
H987 H 0.56919 0.39422 0.66451 0.0
H988 H 0.51567 0.32082 0.79482 0.0
H989 H 0.5195 0.32598 0.88027 0.0
C990 C 0.19084 0.57076 0.32976 0.0
C991 C 0.16349 0.52786 0.31476 0.0
C992 C 0.14545 0.54707 0.21226 0.0
C993 C 0.17483 0.58984 0.22159 0.0
N994 N 0.23556 0.63966 0.283 0.0
N995 N 0.14125 0.48112 0.22003 0.0
C996 C 0.20066 0.60123 0.27886 0.0
C997 C 0.14967 0.51774 0.24886 0.0
N998 N 0.20876 0.58236 0.39038 0.0
N999 N 0.11096 0.5338 0.17437 0.0
H1000 H 0.15056 0.46143 0.24088 0.0
H1001 H 0.13107 0.47423 0.17127 0.0
H1002 H 0.1019 0.55425 0.15689 0.0
H1003 H 0.08852 0.5022 0.17019 0.0
H1004 H 0.22497 0.61336 0.40592 0.0
H1005 H 0.20715 0.56086 0.4249 0.0
H1006 H 0.25686 0.64842 0.3215 0.0
H1007 H 0.24571 0.66078 0.24405 0.0
loop_
_geom_bond_atom_site_label_1
_geom_bond_atom_site_label_2
_geom_bond_distance
_geom_bond_site_symmetry_2
_ccdc_geom_bond_type
Co0 N5 2.057 . S
Co0 O17 2.021 . S
Co0 O20 2.062 . S
Co0 O24 2.117 . S
Co0 O25 2.020 . S
C1 O21 1.259 . S
C1 O24 1.258 . S
Co2 N11 2.057 . S
Co2 O18 2.117 . S
Co2 O19 2.020 . S
Co2 O21 2.021 . S
Co2 O26 2.062 . S
C3 N5 1.316 . S
C3 N6 1.347 1_554 S
C3 H8 0.931 . S
C4 N5 1.375 1_565 S
C4 C7 1.350 . S
C4 H9 0.930 . S
N5 Co0 2.057 . S
N5 C3 1.316 . S
N5 C4 1.375 1_545 S
N6 C3 1.347 1_556 S
N6 C7 1.373 1_546 S
C7 C4 1.350 . S
C7 N6 1.373 1_564 S
C7 H28 0.931 . S
H8 C3 0.931 . S
H9 C4 0.930 . S
C10 O17 1.259 . S
C10 O18 1.258 . S
N11 Co2 2.057 . S
N11 C12 1.316 . S
N11 C13 1.375 . S
C12 N11 1.316 . S
C12 N14 1.347 . S
C12 H23 0.931 . S
C13 N11 1.375 . S
C13 C15 1.350 . S
C13 H22 0.930 . S
N14 C12 1.347 . S
N14 C15 1.373 . S
C15 C13 1.350 . S
C15 N14 1.373 . S
C15 H29 0.931 . S
C16 O19 1.256 . S
C16 O20 1.255 . S
O17 Co0 2.021 . S
O17 C10 1.259 . S
O18 Co2 2.117 . S
O18 C10 1.258 . S
O19 Co2 2.020 . S
O19 C16 1.256 . S
O20 Co0 2.062 . S
O20 C16 1.255 . S
O21 C1 1.259 . S
O21 Co2 2.021 . S
H22 C13 0.930 . S
H23 C12 0.931 . S
O24 Co0 2.117 . S
O24 C1 1.258 . S
O25 Co0 2.020 . S
O25 C27 1.256 . S
O26 Co2 2.062 . S
O26 C27 1.255 . S
C27 O25 1.256 . S
C27 O26 1.255 . S
H28 C7 0.931 . S
H29 C15 0.931 . S
Co30 N35 2.057 . S
Co30 O47 2.021 . S
Co30 O50 2.062 . S
Co30 O54 2.117 . S
Co30 O55 2.020 . S
C31 O51 1.259 . S
C31 O54 1.258 . S
Co32 N41 2.057 . S
Co32 O48 2.117 . S
Co32 O49 2.020 . S
Co32 O51 2.021 . S
Co32 O56 2.062 . S
C33 N35 1.316 . S
C33 N36 1.347 . S
C33 H38 0.931 . S
C34 N35 1.375 . S
C34 C37 1.350 . S
C34 H39 0.930 . S
N35 Co30 2.057 . S
N35 C33 1.316 . S
N35 C34 1.375 . S
N36 C33 1.347 . S
N36 C37 1.373 . S
C37 C34 1.350 . S
C37 N36 1.373 . S
C37 H58 0.931 . S
H38 C33 0.931 . S
H39 C34 0.930 . S
C40 O47 1.259 . S
C40 O48 1.258 . S
N41 Co32 2.057 . S
N41 C42 1.316 . S
N41 C43 1.375 . S
C42 N41 1.316 . S
C42 N44 1.347 . S
C42 H53 0.931 . S
C43 N41 1.375 . S
C43 C45 1.350 . S
C43 H52 0.930 . S
N44 C42 1.347 . S
N44 C45 1.373 . S
C45 C43 1.350 . S
C45 N44 1.373 . S
C45 H59 0.931 . S
C46 O49 1.256 . S
C46 O50 1.255 . S
O47 Co30 2.021 . S
O47 C40 1.259 . S
O48 Co32 2.117 . S
O48 C40 1.258 . S
O49 Co32 2.020 . S
O49 C46 1.256 . S
O50 Co30 2.062 . S
O50 C46 1.255 . S
O51 C31 1.259 . S
O51 Co32 2.021 . S
H52 C43 0.930 . S
H53 C42 0.931 . S
O54 Co30 2.117 . S
O54 C31 1.258 . S
O55 Co30 2.020 . S
O55 C57 1.256 . S
O56 Co32 2.062 . S
O56 C57 1.255 . S
C57 O55 1.256 . S
C57 O56 1.255 . S
H58 C37 0.931 . S
H59 C45 0.931 . S
Co60 N65 2.057 . S
Co60 O77 2.021 . S
Co60 O80 2.062 . S
Co60 O84 2.117 . S
Co60 O85 2.020 . S
C61 O81 1.259 . S
C61 O84 1.258 . S
Co62 N71 2.057 . S
Co62 O78 2.117 . S
Co62 O79 2.020 . S
Co62 O81 2.021 . S
Co62 O86 2.062 . S
C63 N65 1.316 . S
C63 N66 1.347 . S
C63 H68 0.931 . S
C64 N65 1.375 1_455 S
C64 C67 1.350 . S
C64 H69 0.930 . S
N65 Co60 2.057 . S
N65 C63 1.316 . S
N65 C64 1.375 1_655 S
N66 C63 1.347 . S
N66 C67 1.373 1_655 S
C67 C64 1.350 . S
C67 N66 1.373 1_455 S
C67 H88 0.931 . S
H68 C63 0.931 . S
H69 C64 0.930 . S
C70 O77 1.259 . S
C70 O78 1.258 . S
N71 Co62 2.057 . S
N71 C72 1.316 1_556 S
N71 C73 1.375 . S
C72 N71 1.316 1_554 S
C72 N74 1.347 . S
C72 H83 0.931 . S
C73 N71 1.375 . S
C73 C75 1.350 1_556 S
C73 H82 0.930 . S
N74 C72 1.347 . S
N74 C75 1.373 . S
C75 C73 1.350 1_554 S
C75 N74 1.373 . S
C75 H89 0.931 . S
C76 O79 1.256 . S
C76 O80 1.255 . S
O77 Co60 2.021 . S
O77 C70 1.259 . S
O78 Co62 2.117 . S
O78 C70 1.258 . S
O79 Co62 2.020 . S
O79 C76 1.256 . S
O80 Co60 2.062 . S
O80 C76 1.255 . S
O81 C61 1.259 . S
O81 Co62 2.021 . S
H82 C73 0.930 . S
H83 C72 0.931 . S
O84 Co60 2.117 . S
O84 C61 1.258 . S
O85 Co60 2.020 . S
O85 C87 1.256 . S
O86 Co62 2.062 . S
O86 C87 1.255 . S
C87 O85 1.256 . S
C87 O86 1.255 . S
H88 C67 0.931 . S
H89 C75 0.931 . S
Co90 N95 2.057 . S
Co90 O107 2.021 . S
Co90 O110 2.062 . S
Co90 O114 2.117 . S
Co90 O115 2.020 . S
C91 O111 1.259 . S
C91 O114 1.258 . S
Co92 N101 2.057 . S
Co92 O108 2.117 . S
Co92 O109 2.020 . S
Co92 O111 2.021 . S
Co92 O116 2.062 . S
C93 N95 1.316 . S
C93 N96 1.347 . S
C93 H98 0.931 . S
C94 N95 1.375 . S
C94 C97 1.350 1_565 S
C94 H99 0.930 1_565 S
N95 Co90 2.057 . S
N95 C93 1.316 . S
N95 C94 1.375 . S
N96 C93 1.347 . S
N96 C97 1.373 1_565 S
C97 C94 1.350 1_545 S
C97 N96 1.373 1_545 S
C97 H118 0.931 . S
H98 C93 0.931 . S
H99 C94 0.930 1_545 S
C100 O107 1.259 . S
C100 O108 1.258 . S
N101 Co92 2.057 . S
N101 C102 1.316 . S
N101 C103 1.375 . S
C102 N101 1.316 . S
C102 N104 1.347 . S
C102 H113 0.931 . S
C103 N101 1.375 . S
C103 C105 1.350 . S
C103 H112 0.930 . S
N104 C102 1.347 . S
N104 C105 1.373 . S
C105 C103 1.350 . S
C105 N104 1.373 . S
C105 H119 0.931 . S
C106 O109 1.256 . S
C106 O110 1.255 . S
O107 Co90 2.021 . S
O107 C100 1.259 . S
O108 Co92 2.117 . S
O108 C100 1.258 . S
O109 Co92 2.020 . S
O109 C106 1.256 . S
O110 Co90 2.062 . S
O110 C106 1.255 . S
O111 C91 1.259 . S
O111 Co92 2.021 . S
H112 C103 0.930 . S
H113 C102 0.931 . S
O114 Co90 2.117 . S
O114 C91 1.258 . S
O115 Co90 2.020 . S
O115 C117 1.256 . S
O116 Co92 2.062 . S
O116 C117 1.255 . S
C117 O115 1.256 . S
C117 O116 1.255 . S
H118 C97 0.931 . S
H119 C105 0.931 . S
Co120 N125 2.057 . S
Co120 O137 2.021 . S
Co120 O140 2.062 . S
Co120 O144 2.117 . S
Co120 O145 2.020 . S
C121 O141 1.259 . S
C121 O144 1.258 . S
Co122 N131 2.057 . S
Co122 O138 2.117 . S
Co122 O139 2.020 . S
Co122 O141 2.021 . S
Co122 O146 2.062 . S
C123 N125 1.316 . S
C123 N126 1.347 . S
C123 H128 0.931 . S
C124 N125 1.375 . S
C124 C127 1.350 . S
C124 H129 0.930 . S
N125 Co120 2.057 . S
N125 C123 1.316 . S
N125 C124 1.375 . S
N126 C123 1.347 . S
N126 C127 1.373 . S
C127 C124 1.350 . S
C127 N126 1.373 . S
C127 H148 0.931 . S
H128 C123 0.931 . S
H129 C124 0.930 . S
C130 O137 1.259 . S
C130 O138 1.258 . S
N131 Co122 2.057 . S
N131 C132 1.316 . S
N131 C133 1.375 . S
C132 N131 1.316 . S
C132 N134 1.347 . S
C132 H143 0.931 . S
C133 N131 1.375 . S
C133 C135 1.350 . S
C133 H142 0.930 . S
N134 C132 1.347 . S
N134 C135 1.373 . S
C135 C133 1.350 . S
C135 N134 1.373 . S
C135 H149 0.931 . S
C136 O139 1.256 . S
C136 O140 1.255 . S
O137 Co120 2.021 . S
O137 C130 1.259 . S
O138 Co122 2.117 . S
O138 C130 1.258 . S
O139 Co122 2.020 . S
O139 C136 1.256 . S
O140 Co120 2.062 . S
O140 C136 1.255 . S
O141 C121 1.259 . S
O141 Co122 2.021 . S
H142 C133 0.930 . S
H143 C132 0.931 . S
O144 Co120 2.117 . S
O144 C121 1.258 . S
O145 Co120 2.020 . S
O145 C147 1.256 . S
O146 Co122 2.062 . S
O146 C147 1.255 . S
C147 O145 1.256 . S
C147 O146 1.255 . S
H148 C127 0.931 . S
H149 C135 0.931 . S
Co150 N155 2.057 . S
Co150 O167 2.021 . S
Co150 O170 2.062 . S
Co150 O174 2.117 . S
Co150 O175 2.020 . S
C151 O171 1.259 1_556 S
C151 O174 1.258 . S
Co152 N161 2.057 . S
Co152 O168 2.117 1_554 S
Co152 O169 2.020 1_554 S
Co152 O171 2.021 . S
Co152 O176 2.062 . S
C153 N155 1.316 . S
C153 N156 1.347 . S
C153 H158 0.931 . S
C154 N155 1.375 . S
C154 C157 1.350 1_455 S
C154 H159 0.930 1_455 S
N155 Co150 2.057 . S
N155 C153 1.316 . S
N155 C154 1.375 . S
N156 C153 1.347 . S
N156 C157 1.373 1_455 S
C157 C154 1.350 1_655 S
C157 N156 1.373 1_655 S
C157 H178 0.931 . S
H158 C153 0.931 . S
H159 C154 0.930 1_655 S
C160 O167 1.259 . S
C160 O168 1.258 . S
N161 Co152 2.057 . S
N161 C162 1.316 . S
N161 C163 1.375 . S
C162 N161 1.316 . S
C162 N164 1.347 . S
C162 H173 0.931 . S
C163 N161 1.375 . S
C163 C165 1.350 . S
C163 H172 0.930 . S
N164 C162 1.347 . S
N164 C165 1.373 . S
C165 C163 1.350 . S
C165 N164 1.373 . S
C165 H179 0.931 . S
C166 O169 1.256 . S
C166 O170 1.255 . S
O167 Co150 2.021 . S
O167 C160 1.259 . S
O168 Co152 2.117 1_556 S
O168 C160 1.258 . S
O169 Co152 2.020 1_556 S
O169 C166 1.256 . S
O170 Co150 2.062 . S
O170 C166 1.255 . S
O171 C151 1.259 1_554 S
O171 Co152 2.021 . S
H172 C163 0.930 . S
H173 C162 0.931 . S
O174 Co150 2.117 . S
O174 C151 1.258 . S
O175 Co150 2.020 . S
O175 C177 1.256 1_556 S
O176 Co152 2.062 . S
O176 C177 1.255 . S
C177 O175 1.256 1_554 S
C177 O176 1.255 . S
H178 C157 0.931 . S
H179 C165 0.931 . S
Co180 N185 2.057 . S
Co180 O197 2.021 . S
Co180 O200 2.062 . S
Co180 O204 2.117 . S
Co180 O205 2.020 . S
C181 O201 1.259 . S
C181 O204 1.258 . S
Co182 N191 2.057 . S
Co182 O198 2.117 . S
Co182 O199 2.020 . S
Co182 O201 2.021 . S
Co182 O206 2.062 . S
C183 N185 1.316 . S
C183 N186 1.347 . S
C183 H188 0.931 . S
C184 N185 1.375 . S
C184 C187 1.350 1_655 S
C184 H189 0.930 1_655 S
N185 Co180 2.057 . S
N185 C183 1.316 . S
N185 C184 1.375 . S
N186 C183 1.347 . S
N186 C187 1.373 1_655 S
C187 C184 1.350 1_455 S
C187 N186 1.373 1_455 S
C187 H208 0.931 . S
H188 C183 0.931 . S
H189 C184 0.930 1_455 S
C190 O197 1.259 . S
C190 O198 1.258 . S
N191 Co182 2.057 . S
N191 C192 1.316 . S
N191 C193 1.375 . S
C192 N191 1.316 . S
C192 N194 1.347 . S
C192 H203 0.931 . S
C193 N191 1.375 . S
C193 C195 1.350 . S
C193 H202 0.930 . S
N194 C192 1.347 . S
N194 C195 1.373 . S
C195 C193 1.350 . S
C195 N194 1.373 . S
C195 H209 0.931 . S
C196 O199 1.256 . S
C196 O200 1.255 . S
O197 Co180 2.021 . S
O197 C190 1.259 . S
O198 Co182 2.117 . S
O198 C190 1.258 . S
O199 Co182 2.020 . S
O199 C196 1.256 . S
O200 Co180 2.062 . S
O200 C196 1.255 . S
O201 C181 1.259 . S
O201 Co182 2.021 . S
H202 C193 0.930 . S
H203 C192 0.931 . S
O204 Co180 2.117 . S
O204 C181 1.258 . S
O205 Co180 2.020 . S
O205 C207 1.256 . S
O206 Co182 2.062 . S
O206 C207 1.255 . S
C207 O205 1.256 . S
C207 O206 1.255 . S
H208 C187 0.931 . S
H209 C195 0.931 . S
Co210 N215 2.057 . S
Co210 O227 2.021 . S
Co210 O230 2.062 . S
Co210 O234 2.117 . S
Co210 O235 2.020 . S
C211 O231 1.259 . S
C211 O234 1.258 . S
Co212 N221 2.057 . S
Co212 O228 2.117 . S
Co212 O229 2.020 . S
Co212 O231 2.021 . S
Co212 O236 2.062 . S
C213 N215 1.316 . S
C213 N216 1.347 . S
C213 H218 0.931 . S
C214 N215 1.375 . S
C214 C217 1.350 . S
C214 H219 0.930 . S
N215 Co210 2.057 . S
N215 C213 1.316 . S
N215 C214 1.375 . S
N216 C213 1.347 . S
N216 C217 1.373 . S
C217 C214 1.350 . S
C217 N216 1.373 . S
C217 H238 0.931 . S
H218 C213 0.931 . S
H219 C214 0.930 . S
C220 O227 1.259 . S
C220 O228 1.258 . S
N221 Co212 2.057 . S
N221 C222 1.316 . S
N221 C223 1.375 . S
C222 N221 1.316 . S
C222 N224 1.347 . S
C222 H233 0.931 . S
C223 N221 1.375 . S
C223 C225 1.350 . S
C223 H232 0.930 . S
N224 C222 1.347 . S
N224 C225 1.373 . S
C225 C223 1.350 . S
C225 N224 1.373 . S
C225 H239 0.931 . S
C226 O229 1.256 . S
C226 O230 1.255 . S
O227 Co210 2.021 . S
O227 C220 1.259 . S
O228 Co212 2.117 . S
O228 C220 1.258 . S
O229 Co212 2.020 . S
O229 C226 1.256 . S
O230 Co210 2.062 . S
O230 C226 1.255 . S
O231 C211 1.259 . S
O231 Co212 2.021 . S
H232 C223 0.930 . S
H233 C222 0.931 . S
O234 Co210 2.117 . S
O234 C211 1.258 . S
O235 Co210 2.020 . S
O235 C237 1.256 . S
O236 Co212 2.062 . S
O236 C237 1.255 . S
C237 O235 1.256 . S
C237 O236 1.255 . S
H238 C217 0.931 . S
H239 C225 0.931 . S
Co240 N245 2.057 . S
Co240 O257 2.021 . S
Co240 O260 2.062 . S
Co240 O264 2.117 . S
Co240 O265 2.020 . S
C241 O261 1.259 . S
C241 O264 1.258 . S
Co242 N251 2.057 1_554 S
Co242 O258 2.117 . S
Co242 O259 2.020 . S
Co242 O261 2.021 . S
Co242 O266 2.062 1_554 S
C243 N245 1.316 . S
C243 N246 1.347 . S
C243 H248 0.931 . S
C244 N245 1.375 . S
C244 C247 1.350 . S
C244 H249 0.930 . S
N245 Co240 2.057 . S
N245 C243 1.316 . S
N245 C244 1.375 . S
N246 C243 1.347 . S
N246 C247 1.373 . S
C247 C244 1.350 . S
C247 N246 1.373 . S
C247 H268 0.931 . S
H248 C243 0.931 . S
H249 C244 0.930 . S
C250 O257 1.259 . S
C250 O258 1.258 . S
N251 Co242 2.057 1_556 S
N251 C252 1.316 . S
N251 C253 1.375 . S
C252 N251 1.316 . S
C252 N254 1.347 . S
C252 H263 0.931 . S
C253 N251 1.375 . S
C253 C255 1.350 . S
C253 H262 0.930 . S
N254 C252 1.347 . S
N254 C255 1.373 . S
C255 C253 1.350 . S
C255 N254 1.373 . S
C255 H269 0.931 . S
C256 O259 1.256 . S
C256 O260 1.255 . S
O257 Co240 2.021 . S
O257 C250 1.259 . S
O258 Co242 2.117 . S
O258 C250 1.258 . S
O259 Co242 2.020 . S
O259 C256 1.256 . S
O260 Co240 2.062 . S
O260 C256 1.255 . S
O261 C241 1.259 . S
O261 Co242 2.021 . S
H262 C253 0.930 . S
H263 C252 0.931 . S
O264 Co240 2.117 . S
O264 C241 1.258 . S
O265 Co240 2.020 . S
O265 C267 1.256 1_554 S
O266 Co242 2.062 1_556 S
O266 C267 1.255 . S
C267 O265 1.256 1_556 S
C267 O266 1.255 . S
H268 C247 0.931 . S
H269 C255 0.931 . S
Co270 N275 2.057 . S
Co270 O287 2.021 . S
Co270 O290 2.062 . S
Co270 O294 2.117 . S
Co270 O295 2.020 . S
C271 O291 1.259 . S
C271 O294 1.258 . S
Co272 N281 2.057 . S
Co272 O288 2.117 . S
Co272 O289 2.020 . S
Co272 O291 2.021 . S
Co272 O296 2.062 . S
C273 N275 1.316 . S
C273 N276 1.347 . S
C273 H278 0.931 . S
C274 N275 1.375 . S
C274 C277 1.350 . S
C274 H279 0.930 . S
N275 Co270 2.057 . S
N275 C273 1.316 . S
N275 C274 1.375 . S
N276 C273 1.347 . S
N276 C277 1.373 . S
C277 C274 1.350 . S
C277 N276 1.373 . S
C277 H298 0.931 . S
H278 C273 0.931 . S
H279 C274 0.930 . S
C280 O287 1.259 . S
C280 O288 1.258 . S
N281 Co272 2.057 . S
N281 C282 1.316 . S
N281 C283 1.375 . S
C282 N281 1.316 . S
C282 N284 1.347 . S
C282 H293 0.931 . S
C283 N281 1.375 . S
C283 C285 1.350 . S
C283 H292 0.930 . S
N284 C282 1.347 . S
N284 C285 1.373 . S
C285 C283 1.350 . S
C285 N284 1.373 . S
C285 H299 0.931 . S
C286 O289 1.256 . S
C286 O290 1.255 . S
O287 Co270 2.021 . S
O287 C280 1.259 . S
O288 Co272 2.117 . S
O288 C280 1.258 . S
O289 Co272 2.020 . S
O289 C286 1.256 . S
O290 Co270 2.062 . S
O290 C286 1.255 . S
O291 C271 1.259 . S
O291 Co272 2.021 . S
H292 C283 0.930 . S
H293 C282 0.931 . S
O294 Co270 2.117 . S
O294 C271 1.258 . S
O295 Co270 2.020 . S
O295 C297 1.256 . S
O296 Co272 2.062 . S
O296 C297 1.255 . S
C297 O295 1.256 . S
C297 O296 1.255 . S
H298 C277 0.931 . S
H299 C285 0.931 . S
Co300 N305 2.057 . S
Co300 O317 2.021 . S
Co300 O320 2.062 . S
Co300 O324 2.117 . S
Co300 O325 2.020 . S
C301 O321 1.259 . S
C301 O324 1.258 . S
Co302 N311 2.057 . S
Co302 O318 2.117 . S
Co302 O319 2.020 . S
Co302 O321 2.021 . S
Co302 O326 2.062 . S
C303 N305 1.316 . S
C303 N306 1.347 . S
C303 H308 0.931 . S
C304 N305 1.375 . S
C304 C307 1.350 1_545 S
C304 H309 0.930 1_545 S
N305 Co300 2.057 . S
N305 C303 1.316 . S
N305 C304 1.375 . S
N306 C303 1.347 . S
N306 C307 1.373 1_545 S
C307 C304 1.350 1_565 S
C307 N306 1.373 1_565 S
C307 H328 0.931 . S
H308 C303 0.931 . S
H309 C304 0.930 1_565 S
C310 O317 1.259 . S
C310 O318 1.258 . S
N311 Co302 2.057 . S
N311 C312 1.316 . S
N311 C313 1.375 . S
C312 N311 1.316 . S
C312 N314 1.347 . S
C312 H323 0.931 . S
C313 N311 1.375 . S
C313 C315 1.350 . S
C313 H322 0.930 . S
N314 C312 1.347 . S
N314 C315 1.373 . S
C315 C313 1.350 . S
C315 N314 1.373 . S
C315 H329 0.931 . S
C316 O319 1.256 . S
C316 O320 1.255 . S
O317 Co300 2.021 . S
O317 C310 1.259 . S
O318 Co302 2.117 . S
O318 C310 1.258 . S
O319 Co302 2.020 . S
O319 C316 1.256 . S
O320 Co300 2.062 . S
O320 C316 1.255 . S
O321 C301 1.259 . S
O321 Co302 2.021 . S
H322 C313 0.930 . S
H323 C312 0.931 . S
O324 Co300 2.117 . S
O324 C301 1.258 . S
O325 Co300 2.020 . S
O325 C327 1.256 . S
O326 Co302 2.062 . S
O326 C327 1.255 . S
C327 O325 1.256 . S
C327 O326 1.255 . S
H328 C307 0.931 . S
H329 C315 0.931 . S
Co330 N335 2.057 1_554 S
Co330 O347 2.021 . S
Co330 O350 2.062 1_554 S
Co330 O354 2.117 . S
Co330 O355 2.020 . S
C331 O351 1.259 . S
C331 O354 1.258 . S
Co332 N341 2.057 . S
Co332 O348 2.117 . S
Co332 O349 2.020 . S
Co332 O351 2.021 . S
Co332 O356 2.062 . S
C333 N335 1.316 . S
C333 N336 1.347 . S
C333 H338 0.931 . S
C334 N335 1.375 . S
C334 C337 1.350 . S
C334 H339 0.930 . S
N335 Co330 2.057 1_556 S
N335 C333 1.316 . S
N335 C334 1.375 . S
N336 C333 1.347 . S
N336 C337 1.373 . S
C337 C334 1.350 . S
C337 N336 1.373 . S
C337 H358 0.931 . S
H338 C333 0.931 . S
H339 C334 0.930 . S
C340 O347 1.259 . S
C340 O348 1.258 . S
N341 Co332 2.057 . S
N341 C342 1.316 . S
N341 C343 1.375 . S
C342 N341 1.316 . S
C342 N344 1.347 . S
C342 H353 0.931 . S
C343 N341 1.375 . S
C343 C345 1.350 . S
C343 H352 0.930 . S
N344 C342 1.347 . S
N344 C345 1.373 . S
C345 C343 1.350 . S
C345 N344 1.373 . S
C345 H359 0.931 . S
C346 O349 1.262 . S
C346 O350 1.253 1_554 S
O347 Co330 2.021 . S
O347 C340 1.259 . S
O348 Co332 2.117 . S
O348 C340 1.258 . S
O349 Co332 2.020 . S
O349 C346 1.262 . S
O350 Co330 2.062 1_556 S
O350 C346 1.253 1_556 S
O351 C331 1.259 . S
O351 Co332 2.021 . S
H352 C343 0.930 . S
H353 C342 0.931 . S
O354 Co330 2.117 . S
O354 C331 1.258 . S
O355 Co330 2.020 . S
O355 C357 1.256 . S
O356 Co332 2.062 . S
O356 C357 1.255 . S
C357 O355 1.256 . S
C357 O356 1.255 . S
H358 C337 0.931 . S
H359 C345 0.931 . S
C360 C361 1.363 . S
C360 C366 1.379 . S
C360 N368 1.356 . S
C361 C360 1.363 . S
C361 C367 1.363 . S
C362 C363 1.363 . S
C362 C367 1.379 . S
C362 N369 1.356 . S
C363 C362 1.363 . S
C363 C366 1.363 . S
N364 C366 1.356 . S
N364 H376 0.984 . S
N364 H377 0.985 . S
N365 C367 1.356 . S
N365 H370 0.984 . S
N365 H371 0.985 . S
C366 C360 1.379 . S
C366 C363 1.363 . S
C366 N364 1.356 . S
C367 C361 1.363 . S
C367 C362 1.379 . S
C367 N365 1.356 . S
N368 C360 1.356 . S
N368 H374 0.984 . S
N368 H375 0.984 . S
N369 C362 1.356 . S
N369 H372 0.984 1_554 S
N369 H373 0.985 1_554 S
H370 N365 0.984 . S
H371 N365 0.985 . S
H372 N369 0.984 1_556 S
H373 N369 0.985 1_556 S
H374 N368 0.984 . S
H375 N368 0.984 . S
H376 N364 0.984 . S
H377 N364 0.985 . S
C378 C379 1.363 . S
C378 C384 1.379 . S
C378 N386 1.356 . S
C379 C378 1.363 . S
C379 C385 1.363 . S
C380 C381 1.363 . S
C380 C385 1.379 . S
C380 N387 1.356 . S
C381 C380 1.363 . S
C381 C384 1.363 . S
N382 C384 1.356 . S
N382 H394 0.984 . S
N382 H395 0.985 . S
N383 C385 1.356 . S
N383 H388 0.984 . S
N383 H389 0.985 . S
C384 C378 1.379 . S
C384 C381 1.363 . S
C384 N382 1.356 . S
C385 C379 1.363 . S
C385 C380 1.379 . S
C385 N383 1.356 . S
N386 C378 1.356 . S
N386 H392 0.984 . S
N386 H393 0.984 . S
N387 C380 1.356 . S
N387 H390 0.984 . S
N387 H391 0.985 . S
H388 N383 0.984 . S
H389 N383 0.985 . S
H390 N387 0.984 . S
H391 N387 0.985 . S
H392 N386 0.984 . S
H393 N386 0.984 . S
H394 N382 0.984 . S
H395 N382 0.985 . S
C396 C397 1.363 . S
C396 C402 1.379 . S
C396 N404 1.356 . S
C397 C396 1.363 . S
C397 C403 1.363 . S
C398 C399 1.363 . S
C398 C403 1.379 . S
C398 N405 1.356 . S
C399 C398 1.363 . S
C399 C402 1.363 . S
N400 C402 1.356 . S
N400 H412 0.984 . S
N400 H413 0.985 . S
N401 C403 1.356 . S
N401 H406 0.984 . S
N401 H407 0.985 . S
C402 C396 1.379 . S
C402 C399 1.363 . S
C402 N400 1.356 . S
C403 C397 1.363 . S
C403 C398 1.379 . S
C403 N401 1.356 . S
N404 C396 1.356 . S
N404 H410 0.984 . S
N404 H411 0.984 . S
N405 C398 1.356 . S
N405 H408 0.984 . S
N405 H409 0.985 . S
H406 N401 0.984 . S
H407 N401 0.985 . S
H408 N405 0.984 . S
H409 N405 0.985 . S
H410 N404 0.984 . S
H411 N404 0.984 . S
H412 N400 0.984 . S
H413 N400 0.985 . S
C414 C415 1.363 . S
C414 C420 1.379 . S
C414 N422 1.356 . S
C415 C414 1.363 . S
C415 C421 1.363 . S
C416 C417 1.363 . S
C416 C421 1.379 . S
C416 N423 1.356 . S
C417 C416 1.363 . S
C417 C420 1.363 . S
N418 C420 1.356 . S
N418 H430 0.984 . S
N418 H431 0.985 . S
N419 C421 1.356 . S
N419 H424 0.984 . S
N419 H425 0.985 . S
C420 C414 1.379 . S
C420 C417 1.363 . S
C420 N418 1.356 . S
C421 C415 1.363 . S
C421 C416 1.379 . S
C421 N419 1.356 . S
N422 C414 1.356 . S
N422 H428 0.984 . S
N422 H429 0.984 . S
N423 C416 1.356 . S
N423 H426 0.984 . S
N423 H427 0.985 . S
H424 N419 0.984 . S
H425 N419 0.985 . S
H426 N423 0.984 . S
H427 N423 0.985 . S
H428 N422 0.984 . S
H429 N422 0.984 . S
H430 N418 0.984 . S
H431 N418 0.985 . S
C432 C433 1.363 . S
C432 C438 1.379 . S
C432 N440 1.356 . S
C433 C432 1.363 . S
C433 C439 1.363 . S
C434 C435 1.363 . S
C434 C439 1.379 . S
C434 N441 1.356 . S
C435 C434 1.363 . S
C435 C438 1.363 . S
N436 C438 1.356 . S
N436 H448 0.984 . S
N436 H449 0.985 . S
N437 C439 1.356 . S
N437 H442 0.984 . S
N437 H443 0.985 . S
C438 C432 1.379 . S
C438 C435 1.363 . S
C438 N436 1.356 . S
C439 C433 1.363 . S
C439 C434 1.379 . S
C439 N437 1.356 . S
N440 C432 1.356 . S
N440 H446 0.984 . S
N440 H447 0.984 . S
N441 C434 1.356 . S
N441 H444 0.984 . S
N441 H445 0.985 . S
H442 N437 0.984 . S
H443 N437 0.985 . S
H444 N441 0.984 . S
H445 N441 0.985 . S
H446 N440 0.984 . S
H447 N440 0.984 . S
H448 N436 0.984 . S
H449 N436 0.985 . S
C450 C451 1.363 . S
C450 C456 1.379 . S
C450 N458 1.356 . S
C451 C450 1.363 . S
C451 C457 1.363 . S
C452 C453 1.363 . S
C452 C457 1.379 . S
C452 N459 1.356 . S
C453 C452 1.363 . S
C453 C456 1.363 . S
N454 C456 1.356 . S
N454 H466 0.984 . S
N454 H467 0.985 . S
N455 C457 1.356 . S
N455 H460 0.984 . S
N455 H461 0.985 . S
C456 C450 1.379 . S
C456 C453 1.363 . S
C456 N454 1.356 . S
C457 C451 1.363 . S
C457 C452 1.379 . S
C457 N455 1.356 . S
N458 C450 1.356 . S
N458 H464 0.984 . S
N458 H465 0.984 . S
N459 C452 1.356 . S
N459 H462 0.984 . S
N459 H463 0.985 . S
H460 N455 0.984 . S
H461 N455 0.985 . S
H462 N459 0.984 . S
H463 N459 0.985 . S
H464 N458 0.984 . S
H465 N458 0.984 . S
H466 N454 0.984 . S
H467 N454 0.985 . S
C468 C469 1.363 . S
C468 C474 1.379 . S
C468 N476 1.356 . S
C469 C468 1.363 . S
C469 C475 1.363 . S
C470 C471 1.363 . S
C470 C475 1.379 1_554 S
C470 N477 1.356 . S
C471 C470 1.363 . S
C471 C474 1.363 1_554 S
N472 C474 1.356 . S
N472 H484 0.984 . S
N472 H485 0.985 1_556 S
N473 C475 1.356 . S
N473 H478 0.984 . S
N473 H479 0.985 . S
C474 C468 1.379 . S
C474 C471 1.363 1_556 S
C474 N472 1.356 . S
C475 C469 1.363 . S
C475 C470 1.379 1_556 S
C475 N473 1.356 . S
N476 C468 1.356 . S
N476 H482 0.984 . S
N476 H483 0.984 . S
N477 C470 1.356 . S
N477 H480 0.984 . S
N477 H481 0.985 . S
H478 N473 0.984 . S
H479 N473 0.985 . S
H480 N477 0.984 . S
H481 N477 0.985 . S
H482 N476 0.984 . S
H483 N476 0.984 . S
H484 N472 0.984 . S
H485 N472 0.985 1_554 S
C486 C487 1.363 . S
C486 C492 1.379 . S
C486 N494 1.356 . S
C487 C486 1.363 . S
C487 C493 1.363 . S
C488 C489 1.363 . S
C488 C493 1.379 . S
C488 N495 1.356 . S
C489 C488 1.363 . S
C489 C492 1.363 . S
N490 C492 1.356 . S
N490 H502 0.984 . S
N490 H503 0.985 . S
N491 C493 1.356 . S
N491 H496 0.984 . S
N491 H497 0.985 . S
C492 C486 1.379 . S
C492 C489 1.363 . S
C492 N490 1.356 . S
C493 C487 1.363 . S
C493 C488 1.379 . S
C493 N491 1.356 . S
N494 C486 1.356 . S
N494 H500 0.984 . S
N494 H501 0.984 . S
N495 C488 1.356 . S
N495 H498 0.984 . S
N495 H499 0.985 . S
H496 N491 0.984 . S
H497 N491 0.985 . S
H498 N495 0.984 . S
H499 N495 0.985 . S
H500 N494 0.984 . S
H501 N494 0.984 . S
H502 N490 0.984 . S
H503 N490 0.985 . S
C504 C505 1.363 . S
C504 C510 1.379 . S
C504 N512 1.356 . S
C505 C504 1.363 . S
C505 C511 1.363 . S
C506 C507 1.363 . S
C506 C511 1.379 . S
C506 N513 1.356 . S
C507 C506 1.363 . S
C507 C510 1.363 . S
N508 C510 1.356 . S
N508 H520 0.984 . S
N508 H521 0.985 . S
N509 C511 1.356 . S
N509 H514 0.984 . S
N509 H515 0.985 . S
C510 C504 1.379 . S
C510 C507 1.363 . S
C510 N508 1.356 . S
C511 C505 1.363 . S
C511 C506 1.379 . S
C511 N509 1.356 . S
N512 C504 1.356 . S
N512 H518 0.984 . S
N512 H519 0.984 . S
N513 C506 1.356 . S
N513 H516 0.984 . S
N513 H517 0.985 . S
H514 N509 0.984 . S
H515 N509 0.985 . S
H516 N513 0.984 . S
H517 N513 0.985 . S
H518 N512 0.984 . S
H519 N512 0.984 . S
H520 N508 0.984 . S
H521 N508 0.985 . S
C522 C523 1.363 . S
C522 C528 1.379 . S
C522 N530 1.356 1_554 S
C523 C522 1.363 . S
C523 C529 1.363 . S
C524 C525 1.363 . S
C524 C529 1.379 . S
C524 N531 1.356 . S
C525 C524 1.363 . S
C525 C528 1.363 . S
N526 C528 1.356 . S
N526 H538 0.984 . S
N526 H539 0.985 . S
N527 C529 1.356 . S
N527 H532 0.984 . S
N527 H533 0.985 . S
C528 C522 1.379 . S
C528 C525 1.363 . S
C528 N526 1.356 . S
C529 C523 1.363 . S
C529 C524 1.379 . S
C529 N527 1.356 . S
N530 C522 1.356 1_556 S
N530 H536 0.984 . S
N530 H537 0.984 . S
N531 C524 1.356 . S
N531 H534 0.984 . S
N531 H535 0.985 . S
H532 N527 0.984 . S
H533 N527 0.985 . S
H534 N531 0.984 . S
H535 N531 0.985 . S
H536 N530 0.984 . S
H537 N530 0.984 . S
H538 N526 0.984 . S
H539 N526 0.985 . S
C540 C541 1.363 . S
C540 C546 1.379 . S
C540 N548 1.356 . S
C541 C540 1.363 . S
C541 C547 1.363 . S
C542 C543 1.363 . S
C542 C547 1.379 . S
C542 N549 1.356 . S
C543 C542 1.363 . S
C543 C546 1.363 . S
N544 C546 1.356 . S
N544 H556 0.984 . S
N544 H557 0.985 . S
N545 C547 1.356 . S
N545 H550 0.984 . S
N545 H551 0.985 . S
C546 C540 1.379 . S
C546 C543 1.363 . S
C546 N544 1.356 . S
C547 C541 1.363 . S
C547 C542 1.379 . S
C547 N545 1.356 . S
N548 C540 1.356 . S
N548 H554 0.984 . S
N548 H555 0.984 . S
N549 C542 1.356 . S
N549 H552 0.984 . S
N549 H553 0.985 . S
H550 N545 0.984 . S
H551 N545 0.985 . S
H552 N549 0.984 . S
H553 N549 0.985 . S
H554 N548 0.984 . S
H555 N548 0.984 . S
H556 N544 0.984 . S
H557 N544 0.985 . S
C558 C559 1.363 . S
C558 C564 1.379 . S
C558 N566 1.356 . S
C559 C558 1.363 . S
C559 C565 1.363 . S
C560 C561 1.363 . S
C560 C565 1.379 . S
C560 N567 1.356 . S
C561 C560 1.363 . S
C561 C564 1.363 . S
N562 C564 1.356 . S
N562 H574 0.984 . S
N562 H575 0.985 . S
N563 C565 1.356 . S
N563 H568 0.984 . S
N563 H569 0.985 . S
C564 C558 1.379 . S
C564 C561 1.363 . S
C564 N562 1.356 . S
C565 C559 1.363 . S
C565 C560 1.379 . S
C565 N563 1.356 . S
N566 C558 1.356 . S
N566 H572 0.984 . S
N566 H573 0.984 . S
N567 C560 1.356 . S
N567 H570 0.984 . S
N567 H571 0.985 . S
H568 N563 0.984 . S
H569 N563 0.985 . S
H570 N567 0.984 . S
H571 N567 0.985 . S
H572 N566 0.984 . S
H573 N566 0.984 . S
H574 N562 0.984 . S
H575 N562 0.985 . S
C576 C577 1.363 . S
C576 C582 1.379 1_565 S
C576 N584 1.356 . S
C577 C576 1.363 . S
C577 C583 1.363 . S
C578 C579 1.363 1_565 S
C578 C583 1.379 . S
C578 N585 1.356 . S
C579 C578 1.363 1_545 S
C579 C582 1.363 . S
N580 C582 1.356 . S
N580 H592 0.984 . S
N580 H593 0.985 . S
N581 C583 1.356 . S
N581 H586 0.984 . S
N581 H587 0.985 . S
C582 C576 1.379 1_545 S
C582 C579 1.363 . S
C582 N580 1.356 . S
C583 C577 1.363 . S
C583 C578 1.379 . S
C583 N581 1.356 . S
N584 C576 1.356 . S
N584 H590 0.984 1_565 S
N584 H591 0.984 . S
N585 C578 1.356 . S
N585 H588 0.984 1_556 S
N585 H589 0.984 1_556 S
H586 N581 0.984 . S
H587 N581 0.985 . S
H588 N585 0.984 1_554 S
H589 N585 0.984 1_554 S
H590 N584 0.984 1_545 S
H591 N584 0.984 . S
H592 N580 0.984 . S
H593 N580 0.985 . S
C594 C595 1.363 . S
C594 C600 1.379 . S
C594 N602 1.356 . S
C595 C594 1.363 . S
C595 C601 1.363 . S
C596 C597 1.363 . S
C596 C601 1.379 . S
C596 N603 1.356 . S
C597 C596 1.363 . S
C597 C600 1.363 . S
N598 C600 1.356 . S
N598 H610 0.984 . S
N598 H611 0.985 . S
N599 C601 1.356 . S
N599 H604 0.984 . S
N599 H605 0.985 . S
C600 C594 1.379 . S
C600 C597 1.363 . S
C600 N598 1.356 . S
C601 C595 1.363 . S
C601 C596 1.379 . S
C601 N599 1.356 . S
N602 C594 1.356 . S
N602 H608 0.984 . S
N602 H609 0.984 . S
N603 C596 1.356 . S
N603 H606 0.984 . S
N603 H607 0.985 . S
H604 N599 0.984 . S
H605 N599 0.985 . S
H606 N603 0.984 . S
H607 N603 0.985 . S
H608 N602 0.984 . S
H609 N602 0.984 . S
H610 N598 0.984 . S
H611 N598 0.985 . S
C612 C613 1.363 . S
C612 C618 1.379 1_455 S
C612 N620 1.356 . S
C613 C612 1.363 . S
C613 C619 1.363 . S
C614 C615 1.363 1_455 S
C614 C619 1.379 . S
C614 N621 1.356 . S
C615 C614 1.363 1_655 S
C615 C618 1.363 . S
N616 C618 1.356 . S
N616 H628 0.984 . S
N616 H629 0.985 . S
N617 C619 1.356 . S
N617 H622 0.984 . S
N617 H623 0.985 . S
C618 C612 1.379 1_655 S
C618 C615 1.363 . S
C618 N616 1.356 . S
C619 C613 1.363 . S
C619 C614 1.379 . S
C619 N617 1.356 . S
N620 C612 1.356 . S
N620 H626 0.984 . S
N620 H627 0.984 . S
N621 C614 1.356 . S
N621 H624 0.984 1_455 S
N621 H625 0.985 . S
H622 N617 0.984 . S
H623 N617 0.985 . S
H624 N621 0.984 1_655 S
H625 N621 0.985 . S
H626 N620 0.984 . S
H627 N620 0.984 . S
H628 N616 0.984 . S
H629 N616 0.985 . S
C630 C631 1.363 . S
C630 C636 1.366 1_564 S
C630 N638 1.356 . S
C631 C630 1.363 . S
C631 C637 1.363 . S
C632 C633 1.363 1_554 S
C632 C637 1.379 1_545 S
C632 N639 1.356 1_554 S
C633 C632 1.363 1_556 S
C633 C636 1.385 . S
N634 C636 1.354 . S
N634 H646 0.984 1_545 S
N634 H647 0.985 . S
N635 C637 1.356 . S
N635 H640 0.984 . S
N635 H641 0.982 . S
C636 C630 1.366 1_546 S
C636 C633 1.385 . S
C636 N634 1.354 . S
C637 C631 1.363 . S
C637 C632 1.379 1_565 S
C637 N635 1.356 . S
N638 C630 1.356 . S
N638 H644 0.984 . S
N638 H645 0.984 . S
N639 C632 1.356 1_556 S
N639 H642 0.984 . S
N639 H643 0.985 . S
H640 N635 0.984 . S
H641 N635 0.982 . S
H642 N639 0.984 . S
H643 N639 0.985 . S
H644 N638 0.984 . S
H645 N638 0.984 . S
H646 N634 0.984 1_565 S
H647 N634 0.985 . S
C648 C649 1.363 . S
C648 C654 1.379 . S
C648 N656 1.356 . S
C649 C648 1.363 . S
C649 C655 1.363 . S
C650 C651 1.363 . S
C650 C655 1.379 . S
C650 N657 1.356 . S
C651 C650 1.363 . S
C651 C654 1.363 . S
N652 C654 1.356 . S
N652 H664 0.984 . S
N652 H665 0.985 . S
N653 C655 1.356 . S
N653 H658 0.984 . S
N653 H659 0.985 . S
C654 C648 1.379 . S
C654 C651 1.363 . S
C654 N652 1.356 . S
C655 C649 1.363 . S
C655 C650 1.379 . S
C655 N653 1.356 . S
N656 C648 1.356 . S
N656 H662 0.984 . S
N656 H663 0.984 . S
N657 C650 1.356 . S
N657 H660 0.984 . S
N657 H661 0.985 . S
H658 N653 0.984 . S
H659 N653 0.985 . S
H660 N657 0.984 . S
H661 N657 0.985 . S
H662 N656 0.984 . S
H663 N656 0.984 . S
H664 N652 0.984 . S
H665 N652 0.985 . S
C666 C667 1.363 . S
C666 C672 1.379 . S
C666 N674 1.356 . S
C667 C666 1.363 . S
C667 C673 1.363 1_455 S
C668 C669 1.363 . S
C668 C673 1.379 . S
C668 N675 1.356 . S
C669 C668 1.363 . S
C669 C672 1.363 1_655 S
N670 C672 1.356 . S
N670 H682 0.984 . S
N670 H683 0.985 1_455 S
N671 C673 1.356 . S
N671 H676 0.984 1_655 S
N671 H677 0.985 . S
C672 C666 1.379 . S
C672 C669 1.363 1_455 S
C672 N670 1.356 . S
C673 C667 1.363 1_655 S
C673 C668 1.379 . S
C673 N671 1.356 . S
N674 C666 1.356 . S
N674 H680 0.984 . S
N674 H681 0.984 . S
N675 C668 1.356 . S
N675 H678 0.984 . S
N675 H679 0.985 . S
H676 N671 0.984 1_455 S
H677 N671 0.985 . S
H678 N675 0.984 . S
H679 N675 0.985 . S
H680 N674 0.984 . S
H681 N674 0.984 . S
H682 N670 0.984 . S
H683 N670 0.985 1_655 S
C684 C685 1.363 1_565 S
C684 C690 1.379 . S
C684 N692 1.356 . S
C685 C684 1.363 1_545 S
C685 C691 1.363 . S
C686 C687 1.363 1_545 S
C686 C691 1.379 . S
C686 N693 1.356 . S
C687 C686 1.363 1_565 S
C687 C690 1.363 . S
N688 C690 1.356 . S
N688 H700 0.984 . S
N688 H701 0.985 . S
N689 C691 1.356 . S
N689 H694 0.984 . S
N689 H695 0.985 . S
C690 C684 1.379 . S
C690 C687 1.363 . S
C690 N688 1.356 . S
C691 C685 1.363 . S
C691 C686 1.379 . S
C691 N689 1.356 . S
N692 C684 1.356 . S
N692 H698 0.984 . S
N692 H699 0.984 . S
N693 C686 1.356 . S
N693 H696 0.984 . S
N693 H697 0.985 . S
H694 N689 0.984 . S
H695 N689 0.985 . S
H696 N693 0.984 . S
H697 N693 0.985 . S
H698 N692 0.984 . S
H699 N692 0.984 . S
H700 N688 0.984 . S
H701 N688 0.985 . S
C702 C703 1.363 . S
C702 C708 1.379 . S
C702 N710 1.356 . S
C703 C702 1.363 . S
C703 C709 1.363 . S
C704 C705 1.363 . S
C704 C709 1.379 . S
C704 N711 1.356 . S
C705 C704 1.363 . S
C705 C708 1.363 . S
N706 C708 1.356 . S
N706 H718 0.984 . S
N706 H719 0.985 . S
N707 C709 1.356 . S
N707 H712 0.984 . S
N707 H713 0.985 . S
C708 C702 1.379 . S
C708 C705 1.363 . S
C708 N706 1.356 . S
C709 C703 1.363 . S
C709 C704 1.379 . S
C709 N707 1.356 . S
N710 C702 1.356 . S
N710 H716 0.984 . S
N710 H717 0.984 . S
N711 C704 1.356 . S
N711 H714 0.984 . S
N711 H715 0.985 . S
H712 N707 0.984 . S
H713 N707 0.985 . S
H714 N711 0.984 . S
H715 N711 0.985 . S
H716 N710 0.984 . S
H717 N710 0.984 . S
H718 N706 0.984 . S
H719 N706 0.985 . S
C720 C721 1.363 1_455 S
C720 C726 1.379 . S
C720 N728 1.356 . S
C721 C720 1.363 1_655 S
C721 C727 1.363 . S
C722 C723 1.363 1_655 S
C722 C727 1.379 . S
C722 N729 1.356 . S
C723 C722 1.363 1_455 S
C723 C726 1.363 . S
N724 C726 1.356 . S
N724 H736 0.984 . S
N724 H737 0.985 . S
N725 C727 1.356 . S
N725 H730 0.984 . S
N725 H731 0.985 . S
C726 C720 1.379 . S
C726 C723 1.363 . S
C726 N724 1.356 . S
C727 C721 1.363 . S
C727 C722 1.379 . S
C727 N725 1.356 . S
N728 C720 1.356 . S
N728 H734 0.984 . S
N728 H735 0.984 . S
N729 C722 1.356 . S
N729 H732 0.984 1_556 S
N729 H733 0.985 . S
H730 N725 0.984 . S
H731 N725 0.985 . S
H732 N729 0.984 1_554 S
H733 N729 0.985 . S
H734 N728 0.984 . S
H735 N728 0.984 . S
H736 N724 0.984 . S
H737 N724 0.985 . S
C738 C739 1.363 1_655 S
C738 C744 1.379 . S
C738 N746 1.356 1_655 S
C739 C738 1.363 1_455 S
C739 C745 1.363 . S
C740 C741 1.363 1_455 S
C740 C745 1.379 . S
C740 N747 1.356 . S
C741 C740 1.363 1_655 S
C741 C744 1.363 . S
N742 C744 1.356 . S
N742 H754 0.984 . S
N742 H755 0.985 . S
N743 C745 1.356 . S
N743 H748 0.984 . S
N743 H749 0.985 . S
C744 C738 1.379 . S
C744 C741 1.363 . S
C744 N742 1.356 . S
C745 C739 1.363 . S
C745 C740 1.379 . S
C745 N743 1.356 . S
N746 C738 1.356 1_455 S
N746 H752 0.984 1_455 S
N746 H753 0.984 . S
N747 C740 1.356 . S
N747 H750 0.984 1_455 S
N747 H751 0.985 . S
H748 N743 0.984 . S
H749 N743 0.985 . S
H750 N747 0.984 1_655 S
H751 N747 0.985 . S
H752 N746 0.984 1_655 S
H753 N746 0.984 . S
H754 N742 0.984 . S
H755 N742 0.985 . S
C756 C757 1.363 . S
C756 C762 1.379 1_565 S
C756 N764 1.356 . S
C757 C756 1.363 . S
C757 C763 1.363 . S
C758 C759 1.363 . S
C758 C763 1.379 1_545 S
C758 N765 1.356 . S
C759 C758 1.363 . S
C759 C762 1.363 . S
N760 C762 1.356 . S
N760 H772 0.984 . S
N760 H773 0.985 . S
N761 C763 1.356 . S
N761 H766 0.984 . S
N761 H767 0.985 . S
C762 C756 1.379 1_545 S
C762 C759 1.363 . S
C762 N760 1.356 . S
C763 C757 1.363 . S
C763 C758 1.379 1_565 S
C763 N761 1.356 . S
N764 C756 1.356 . S
N764 H770 0.984 . S
N764 H771 0.984 . S
N765 C758 1.356 . S
N765 H768 0.984 . S
N765 H769 0.985 . S
H766 N761 0.984 . S
H767 N761 0.985 . S
H768 N765 0.984 . S
H769 N765 0.985 . S
H770 N764 0.984 . S
H771 N764 0.984 . S
H772 N760 0.984 . S
H773 N760 0.985 . S
C774 C775 1.363 . S
C774 C780 1.379 . S
C774 N782 1.356 1_554 S
C775 C774 1.363 . S
C775 C781 1.363 . S
C776 C777 1.363 . S
C776 C781 1.379 . S
C776 N783 1.356 . S
C777 C776 1.363 . S
C777 C780 1.363 . S
N778 C780 1.356 1_556 S
N778 H790 0.984 . S
N778 H791 0.985 . S
N779 C781 1.356 . S
N779 H784 0.984 . S
N779 H785 0.985 . S
C780 C774 1.379 . S
C780 C777 1.363 . S
C780 N778 1.356 1_554 S
C781 C775 1.363 . S
C781 C776 1.379 . S
C781 N779 1.356 . S
N782 C774 1.356 1_556 S
N782 H788 0.984 . S
N782 H789 0.984 1_556 S
N783 C776 1.356 . S
N783 H786 0.984 . S
N783 H787 0.985 . S
H784 N779 0.984 . S
H785 N779 0.985 . S
H786 N783 0.984 . S
H787 N783 0.985 . S
H788 N782 0.984 . S
H789 N782 0.984 1_554 S
H790 N778 0.984 . S
H791 N778 0.985 . S
C792 C793 1.363 1_545 S
C792 C798 1.379 . S
C792 N800 1.356 . S
C793 C792 1.363 1_565 S
C793 C799 1.363 . S
C794 C795 1.363 1_565 S
C794 C799 1.379 . S
C794 N801 1.356 . S
C795 C794 1.363 1_545 S
C795 C798 1.363 . S
N796 C798 1.356 . S
N796 H808 0.984 . S
N796 H809 0.985 . S
N797 C799 1.356 . S
N797 H802 0.984 . S
N797 H803 0.985 . S
C798 C792 1.379 . S
C798 C795 1.363 . S
C798 N796 1.356 . S
C799 C793 1.363 . S
C799 C794 1.379 . S
C799 N797 1.356 . S
N800 C792 1.356 . S
N800 H806 0.984 . S
N800 H807 0.984 . S
N801 C794 1.356 . S
N801 H804 0.984 1_565 S
N801 H805 0.985 . S
H802 N797 0.984 . S
H803 N797 0.985 . S
H804 N801 0.984 1_545 S
H805 N801 0.985 . S
H806 N800 0.984 . S
H807 N800 0.984 . S
H808 N796 0.984 . S
H809 N796 0.985 . S
C810 C811 1.363 . S
C810 C816 1.379 . S
C810 N818 1.356 . S
C811 C810 1.363 . S
C811 C817 1.363 . S
C812 C813 1.363 . S
C812 C817 1.379 . S
C812 N819 1.356 . S
C813 C812 1.363 . S
C813 C816 1.363 . S
N814 C816 1.356 . S
N814 H826 0.984 . S
N814 H827 0.985 . S
N815 C817 1.356 . S
N815 H820 0.984 . S
N815 H821 0.985 . S
C816 C810 1.379 . S
C816 C813 1.363 . S
C816 N814 1.356 . S
C817 C811 1.363 . S
C817 C812 1.379 . S
C817 N815 1.356 . S
N818 C810 1.356 . S
N818 H824 0.984 . S
N818 H825 0.984 . S
N819 C812 1.356 . S
N819 H822 0.984 . S
N819 H823 0.985 . S
H820 N815 0.984 . S
H821 N815 0.985 . S
H822 N819 0.984 . S
H823 N819 0.985 . S
H824 N818 0.984 . S
H825 N818 0.984 . S
H826 N814 0.984 . S
H827 N814 0.985 . S
C828 C829 1.363 . S
C828 C834 1.379 . S
C828 N836 1.356 . S
C829 C828 1.363 . S
C829 C835 1.363 1_655 S
C830 C831 1.363 . S
C830 C835 1.379 . S
C830 N837 1.356 . S
C831 C830 1.363 . S
C831 C834 1.363 1_455 S
N832 C834 1.356 . S
N832 H844 0.984 . S
N832 H845 0.985 . S
N833 C835 1.356 1_556 S
N833 H838 0.984 1_455 S
N833 H839 0.985 . S
C834 C828 1.379 . S
C834 C831 1.363 1_655 S
C834 N832 1.356 . S
C835 C829 1.363 1_455 S
C835 C830 1.379 . S
C835 N833 1.356 1_554 S
N836 C828 1.356 . S
N836 H842 0.984 . S
N836 H843 0.984 . S
N837 C830 1.356 . S
N837 H840 0.984 . S
N837 H841 0.985 . S
H838 N833 0.984 1_655 S
H839 N833 0.985 . S
H840 N837 0.984 . S
H841 N837 0.985 . S
H842 N836 0.984 . S
H843 N836 0.984 . S
H844 N832 0.984 . S
H845 N832 0.985 . S
C846 C847 1.363 . S
C846 C852 1.379 1_545 S
C846 N854 1.356 . S
C847 C846 1.363 . S
C847 C853 1.363 . S
C848 C849 1.363 . S
C848 C853 1.379 1_565 S
C848 N855 1.356 . S
C849 C848 1.363 . S
C849 C852 1.363 . S
N850 C852 1.356 . S
N850 H862 0.984 . S
N850 H863 0.985 . S
N851 C853 1.356 . S
N851 H856 0.984 . S
N851 H857 0.985 . S
C852 C846 1.379 1_565 S
C852 C849 1.363 . S
C852 N850 1.356 . S
C853 C847 1.363 . S
C853 C848 1.379 1_545 S
C853 N851 1.356 . S
N854 C846 1.356 . S
N854 H860 0.984 . S
N854 H861 0.984 . S
N855 C848 1.356 . S
N855 H858 0.984 . S
N855 H859 0.985 . S
H856 N851 0.984 . S
H857 N851 0.985 . S
H858 N855 0.984 . S
H859 N855 0.985 . S
H860 N854 0.984 . S
H861 N854 0.984 . S
H862 N850 0.984 . S
H863 N850 0.985 . S
C864 C865 1.363 . S
C864 C870 1.379 . S
C864 N872 1.356 . S
C865 C864 1.363 . S
C865 C871 1.363 . S
C866 C867 1.363 . S
C866 C871 1.379 . S
C866 N873 1.356 . S
C867 C866 1.363 . S
C867 C870 1.363 . S
N868 C870 1.356 . S
N868 H880 0.984 . S
N868 H881 0.985 . S
N869 C871 1.356 . S
N869 H874 0.984 . S
N869 H875 0.985 . S
C870 C864 1.379 . S
C870 C867 1.363 . S
C870 N868 1.356 . S
C871 C865 1.363 . S
C871 C866 1.379 . S
C871 N869 1.356 . S
N872 C864 1.356 . S
N872 H878 0.984 . S
N872 H879 0.984 . S
N873 C866 1.356 . S
N873 H876 0.984 . S
N873 H877 0.985 . S
H874 N869 0.984 . S
H875 N869 0.985 . S
H876 N873 0.984 . S
H877 N873 0.985 . S
H878 N872 0.984 . S
H879 N872 0.984 . S
H880 N868 0.984 . S
H881 N868 0.985 . S
C882 C883 1.363 . S
C882 C888 1.379 . S
C882 N890 1.356 . S
C883 C882 1.363 . S
C883 C889 1.363 . S
C884 C885 1.363 . S
C884 C889 1.379 1_655 S
C884 N891 1.356 . S
C885 C884 1.363 . S
C885 C888 1.363 1_655 S
N886 C888 1.356 1_655 S
N886 H898 0.984 1_655 S
N886 H899 0.985 . S
N887 C889 1.356 . S
N887 H892 0.984 . S
N887 H893 0.985 1_455 S
C888 C882 1.379 . S
C888 C885 1.363 1_455 S
C888 N886 1.356 1_455 S
C889 C883 1.363 . S
C889 C884 1.379 1_455 S
C889 N887 1.356 . S
N890 C882 1.356 . S
N890 H896 0.984 . S
N890 H897 0.984 . S
N891 C884 1.356 . S
N891 H894 0.984 . S
N891 H895 0.985 . S
H892 N887 0.984 . S
H893 N887 0.985 1_655 S
H894 N891 0.984 . S
H895 N891 0.985 . S
H896 N890 0.984 . S
H897 N890 0.984 . S
H898 N886 0.984 1_455 S
H899 N886 0.985 . S
C900 C901 1.363 . S
C900 C906 1.379 . S
C900 N908 1.356 . S
C901 C900 1.363 . S
C901 C907 1.363 . S
C902 C903 1.363 . S
C902 C907 1.379 . S
C902 N909 1.356 . S
C903 C902 1.363 . S
C903 C906 1.363 . S
N904 C906 1.356 . S
N904 H916 0.984 . S
N904 H917 0.985 . S
N905 C907 1.356 . S
N905 H910 0.984 . S
N905 H911 0.985 . S
C906 C900 1.379 . S
C906 C903 1.363 . S
C906 N904 1.356 . S
C907 C901 1.363 . S
C907 C902 1.379 . S
C907 N905 1.356 . S
N908 C900 1.356 . S
N908 H914 0.984 . S
N908 H915 0.984 . S
N909 C902 1.356 . S
N909 H912 0.984 . S
N909 H913 0.985 . S
H910 N905 0.984 . S
H911 N905 0.985 . S
H912 N909 0.984 . S
H913 N909 0.985 . S
H914 N908 0.984 . S
H915 N908 0.984 . S
H916 N904 0.984 . S
H917 N904 0.985 . S
C918 C919 1.363 . S
C918 C924 1.379 . S
C918 N926 1.356 . S
C919 C918 1.363 . S
C919 C925 1.363 . S
C920 C921 1.363 . S
C920 C925 1.379 . S
C920 N927 1.356 1_556 S
C921 C920 1.363 . S
C921 C924 1.363 . S
N922 C924 1.356 . S
N922 H934 0.984 . S
N922 H935 0.985 . S
N923 C925 1.356 . S
N923 H928 0.984 . S
N923 H929 0.985 . S
C924 C918 1.379 . S
C924 C921 1.363 . S
C924 N922 1.356 . S
C925 C919 1.363 . S
C925 C920 1.379 . S
C925 N923 1.356 . S
N926 C918 1.356 . S
N926 H932 0.984 . S
N926 H933 0.984 . S
N927 C920 1.356 1_554 S
N927 H930 0.984 . S
N927 H931 0.985 . S
H928 N923 0.984 . S
H929 N923 0.985 . S
H930 N927 0.984 . S
H931 N927 0.985 . S
H932 N926 0.984 . S
H933 N926 0.984 . S
H934 N922 0.984 . S
H935 N922 0.985 . S
C936 C937 1.363 . S
C936 C942 1.379 . S
C936 N944 1.356 . S
C937 C936 1.363 . S
C937 C943 1.363 . S
C938 C939 1.363 . S
C938 C943 1.379 . S
C938 N945 1.356 . S
C939 C938 1.363 . S
C939 C942 1.363 . S
N940 C942 1.356 . S
N940 H952 0.984 . S
N940 H953 0.985 . S
N941 C943 1.356 . S
N941 H946 0.984 . S
N941 H947 0.985 . S
C942 C936 1.379 . S
C942 C939 1.363 . S
C942 N940 1.356 . S
C943 C937 1.363 . S
C943 C938 1.379 . S
C943 N941 1.356 . S
N944 C936 1.356 . S
N944 H950 0.984 . S
N944 H951 0.984 . S
N945 C938 1.356 . S
N945 H948 0.984 . S
N945 H949 0.985 . S
H946 N941 0.984 . S
H947 N941 0.985 . S
H948 N945 0.984 . S
H949 N945 0.985 . S
H950 N944 0.984 . S
H951 N944 0.984 . S
H952 N940 0.984 . S
H953 N940 0.985 . S
C954 C955 1.363 . S
C954 C960 1.379 . S
C954 N962 1.356 . S
C955 C954 1.363 . S
C955 C961 1.363 . S
C956 C957 1.363 . S
C956 C961 1.379 . S
C956 N963 1.356 . S
C957 C956 1.363 . S
C957 C960 1.363 . S
N958 C960 1.356 . S
N958 H970 0.984 . S
N958 H971 0.985 . S
N959 C961 1.356 . S
N959 H964 0.984 . S
N959 H965 0.985 . S
C960 C954 1.379 . S
C960 C957 1.363 . S
C960 N958 1.356 . S
C961 C955 1.363 . S
C961 C956 1.379 . S
C961 N959 1.356 . S
N962 C954 1.356 . S
N962 H968 0.984 . S
N962 H969 0.984 . S
N963 C956 1.356 . S
N963 H966 0.984 . S
N963 H967 0.985 . S
H964 N959 0.984 . S
H965 N959 0.985 . S
H966 N963 0.984 . S
H967 N963 0.985 . S
H968 N962 0.984 . S
H969 N962 0.984 . S
H970 N958 0.984 . S
H971 N958 0.985 . S
C972 C973 1.363 . S
C972 C978 1.379 . S
C972 N980 1.356 . S
C973 C972 1.363 . S
C973 C979 1.363 . S
C974 C975 1.363 . S
C974 C979 1.379 . S
C974 N981 1.356 . S
C975 C974 1.363 . S
C975 C978 1.363 . S
N976 C978 1.356 . S
N976 H988 0.984 . S
N976 H989 0.985 . S
N977 C979 1.356 . S
N977 H982 0.984 . S
N977 H983 0.985 . S
C978 C972 1.379 . S
C978 C975 1.363 . S
C978 N976 1.356 . S
C979 C973 1.363 . S
C979 C974 1.379 . S
C979 N977 1.356 . S
N980 C972 1.356 . S
N980 H986 0.984 . S
N980 H987 0.984 . S
N981 C974 1.356 . S
N981 H984 0.984 . S
N981 H985 0.985 . S
H982 N977 0.984 . S
H983 N977 0.985 . S
H984 N981 0.984 . S
H985 N981 0.985 . S
H986 N980 0.984 . S
H987 N980 0.984 . S
H988 N976 0.984 . S
H989 N976 0.985 . S
C990 C991 1.363 . S
C990 C996 1.379 . S
C990 N998 1.356 . S
C991 C990 1.363 . S
C991 C997 1.363 . S
C992 C993 1.363 . S
C992 C997 1.379 . S
C992 N999 1.356 . S
C993 C992 1.363 . S
C993 C996 1.363 . S
N994 C996 1.356 . S
N994 H1006 0.984 . S
N994 H1007 0.985 . S
N995 C997 1.356 . S
N995 H1000 0.984 . S
N995 H1001 0.985 . S
C996 C990 1.379 . S
C996 C993 1.363 . S
C996 N994 1.356 . S
C997 C991 1.363 . S
C997 C992 1.379 . S
C997 N995 1.356 . S
N998 C990 1.356 . S
N998 H1004 0.984 . S
N998 H1005 0.984 . S
N999 C992 1.356 . S
N999 H1002 0.984 . S
N999 H1003 0.985 . S
H1000 N995 0.984 . S
H1001 N995 0.985 . S
H1002 N999 0.984 . S
H1003 N999 0.985 . S
H1004 N998 0.984 . S
H1005 N998 0.984 . S
H1006 N994 0.984 . S
H1007 N994 0.985 . S
C361 C10 0.891 . S
C363 C250 0.886 . S
C379 C40 1.351 . S
C381 C271 1.363 . S
C397 C70 0.891 . S
C399 C310 0.886 . S
C415 C331 1.363 . S
C417 C100 1.351 . S
C433 C130 0.890 . S
C435 C190 0.886 . S
C451 C211 1.363 . S
C453 C160 1.352 . S
C469 C316 2.273 . S
C471 C16 2.307 . S
C487 N344 1.652 . S
C489 C46 1.767 . S
C505 C76 2.307 . S
C507 C196 2.273 . S
C523 N224 1.652 1_554 S
C525 C106 1.767 . S
C541 C256 2.273 . S
C543 C136 2.307 . S
C559 C166 1.767 . S
C561 N284 1.652 . S
C577 C237 0.936 . S
C579 N6 0.847 . S
C595 N246 0.689 . S
C597 N36 0.693 . S
C613 C297 0.935 . S
C615 N66 0.847 . S
C631 N96 0.693 . S
C633 N306 0.690 . S
C649 N126 0.847 . S
C651 C357 0.936 . S
C667 N156 0.693 . S
C669 N186 0.689 . S
C685 C1 1.195 . S
C687 C91 1.178 . S
C703 C31 1.178 . S
C705 C121 1.195 . S
C721 C61 1.195 . S
C723 C151 1.178 . S
C739 C280 1.030 . S
C741 C181 1.010 . S
C757 C220 1.030 . S
C759 C301 1.011 . S
C775 C340 1.030 . S
C777 C241 1.010 . S
C793 N216 2.223 . S
C795 C27 2.225 . S
C811 C267 2.330 . S
C813 C57 2.350 . S
C829 C87 2.225 1_554 S
C831 N276 2.223 . S
C847 C327 2.330 . S
C849 C117 2.350 . S
C865 N336 2.223 . S
C867 C147 2.225 . S
C883 C177 2.350 . S
C885 C207 2.329 . S
C901 N14 0.726 . S
C903 N314 0.726 . S
C919 N44 1.284 . S
C921 C346 1.285 1_556 S
C937 N74 0.726 . S
C939 N194 0.726 . S
C955 N104 1.284 . S
C957 C226 1.290 . S
C973 N134 0.726 . S
C975 N254 0.726 . S
C991 C286 1.290 . S
C993 N164 1.284 . S
