# Generated by pormake.
# Topology mdf, (4)-cn, num edge types: 1
# Building blocks:
#     Node 0, Type 0, BuildingBlock: NAHDIM_clean_sbu_0, # of connection points: 4
#     Node 1, Type 0, BuildingBlock: NAHDIM_clean_sbu_0, # of connection points: 4
#     Node 2, Type 0, BuildingBlock: NAHDIM_clean_sbu_0, # of connection points: 4
#     Node 3, Type 0, BuildingBlock: NAHDIM_clean_sbu_0, # of connection points: 4
#     Node 4, Type 0, BuildingBlock: NAHDIM_clean_sbu_0, # of connection points: 4
#     Node 5, Type 0, BuildingBlock: NAHDIM_clean_sbu_0, # of connection points: 4
#     Node 6, Type 0, BuildingBlock: NAHDIM_clean_sbu_0, # of connection points: 4
#     Node 7, Type 0, BuildingBlock: NAHDIM_clean_sbu_0, # of connection points: 4
#     Edge 8, Type (0, 0), BuildingBlock: XIVTED_clean_linker_0, # of connection points: 2
#     Edge 9, Type (0, 0), BuildingBlock: XIVTED_clean_linker_0, # of connection points: 2
#     Edge 10, Type (0, 0), BuildingBlock: XIVTED_clean_linker_0, # of connection points: 2
#     Edge 11, Type (0, 0), BuildingBlock: XIVTED_clean_linker_0, # of connection points: 2
#     Edge 12, Type (0, 0), BuildingBlock: XIVTED_clean_linker_0, # of connection points: 2
#     Edge 13, Type (0, 0), BuildingBlock: XIVTED_clean_linker_0, # of connection points: 2
#     Edge 14, Type (0, 0), BuildingBlock: XIVTED_clean_linker_0, # of connection points: 2
#     Edge 15, Type (0, 0), BuildingBlock: XIVTED_clean_linker_0, # of connection points: 2
#     Edge 16, Type (0, 0), BuildingBlock: XIVTED_clean_linker_0, # of connection points: 2
#     Edge 17, Type (0, 0), BuildingBlock: XIVTED_clean_linker_0, # of connection points: 2
#     Edge 18, Type (0, 0), BuildingBlock: XIVTED_clean_linker_0, # of connection points: 2
#     Edge 19, Type (0, 0), BuildingBlock: XIVTED_clean_linker_0, # of connection points: 2
#     Edge 20, Type (0, 0), BuildingBlock: XIVTED_clean_linker_0, # of connection points: 2
#     Edge 21, Type (0, 0), BuildingBlock: XIVTED_clean_linker_0, # of connection points: 2
#     Edge 22, Type (0, 0), BuildingBlock: XIVTED_clean_linker_0, # of connection points: 2
#     Edge 23, Type (0, 0), BuildingBlock: XIVTED_clean_linker_0, # of connection points: 2
# Relax obj value: 0.050
# Max RMSD: 0.056
# Mean RMSD: 0.056
data_MOF--net-mdf--node1-NAHDIM_clean_sbu_0--edge1-XIVTED_clean_linker_0
_symmetry_space_group_name_H-M    P1
_symmetry_Int_Tables_number       1
_symmetry_cell_setting            triclinic
loop_
_symmetry_equiv_pos_as_xyz
'x, y, z'
_cell_length_a     35.291407
_cell_length_b     35.373034
_cell_length_c     14.996996
_cell_angle_alpha  90.061078
_cell_angle_beta   89.794031
_cell_angle_gamma 96.141398
loop_
_atom_site_label
_atom_site_type_symbol
_atom_site_fract_x
_atom_site_fract_y
_atom_site_fract_z
_atom_type_partial_charge
C0 C 0.25748 0.60024 0.51481 0.0
O1 O 0.27446 0.62067 0.4502 0.0
O2 O 0.27448 0.57584 0.29278 0.0
Zn3 Zn 0.25925 0.53776 0.38955 0.0
O4 O 0.21221 0.50302 0.35813 0.0
C5 C 0.336 0.51758 0.4203 0.0
O6 O 0.34555 0.5545 0.42291 0.0
O7 O 0.24913 0.5647 0.50372 0.0
C8 C 0.20938 0.4843 0.28566 0.0
O9 O 0.23724 0.48889 0.22702 0.0
C10 C 0.25299 0.58593 0.23134 0.0
O11 O 0.21743 0.57075 0.22689 0.0
O12 O 0.3014 0.50485 0.40769 0.0
C13 C 0.3827 0.76502 0.50246 0.0
O14 O 0.37495 0.77433 0.58482 0.0
O15 O 0.40748 0.71123 0.68937 0.0
Zn16 Zn 0.44219 0.7292 0.58756 0.0
O17 O 0.48113 0.77289 0.62081 0.0
C18 C 0.4822 0.6619 0.59396 0.0
O19 O 0.47485 0.66327 0.67977 0.0
O20 O 0.41038 0.74571 0.48756 0.0
C21 C 0.5019 0.77307 0.68991 0.0
O22 O 0.49719 0.7443 0.74561 0.0
C23 C 0.40056 0.73136 0.75653 0.0
O24 O 0.41736 0.76619 0.76363 0.0
O25 O 0.47041 0.68663 0.5426 0.0
C26 C 0.26846 0.89435 -0.00415 0.0
O27 O 0.27733 0.88628 0.91334 0.0
O28 O 0.21898 0.91881 0.80762 0.0
Zn29 Zn 0.23481 0.95405 0.90894 0.0
O30 O 0.27852 0.99236 0.87228 0.0
C31 C 0.17103 0.99744 0.89121 0.0
O32 O 0.18058 0.99682 0.8065 0.0
O33 O 0.25044 0.92292 0.01089 0.0
C34 C 0.28389 0.02469 0.90989 0.0
O35 O 0.26083 0.03287 0.9744 0.0
C36 C 0.23103 0.92432 0.7283 0.0
O37 O 0.2545 0.95469 0.7099 0.0
O38 O 0.19024 0.98081 0.94764 0.0
C39 C 0.11398 0.71061 0.00449 0.0
O40 O 0.10851 0.69463 0.08317 0.0
O41 O 0.09651 0.78162 0.17451 0.0
Zn42 Zn 0.0624 0.75872 0.07739 0.0
O43 O 0.02481 0.71616 0.12397 0.0
C44 C 0.02565 0.82742 0.07259 0.0
O45 O 0.03879 0.83048 0.1544 0.0
O46 O 0.09616 0.7388 0.98471 0.0
C47 C 0.00243 0.72219 0.18781 0.0
O48 O 0.00488 0.7561 0.22451 0.0
C49 C 0.10399 0.76459 0.24578 0.0
O50 O 0.08845 0.72967 0.25989 0.0
O51 O 0.03283 0.79918 0.02523 0.0
C52 C 0.72177 0.08692 0.98809 0.0
O53 O 0.70636 0.08803 0.90868 0.0
O54 O 0.77917 0.07092 0.79551 0.0
Zn55 Zn 0.76416 0.03496 0.89705 0.0
O56 O 0.72057 0.9953 0.86651 0.0
C57 C 0.83025 0.99458 0.87503 0.0
O58 O 0.82224 0.99803 0.79015 0.0
O59 O 0.74802 0.0656 0.00057 0.0
C60 C 0.717 0.9773 0.79308 0.0
O61 O 0.74263 0.9847 0.73 0.0
C62 C 0.7579 0.07886 0.73143 0.0
O63 O 0.72281 0.06239 0.7266 0.0
O64 O 0.80945 0.00855 0.93319 0.0
C65 C 0.88194 0.27123 -0.004 0.0
O66 O 0.87595 0.28375 0.07678 0.0
O67 O 0.90251 0.21436 0.18671 0.0
Zn68 Zn 0.93787 0.23278 0.08644 0.0
O69 O 0.97586 0.27702 0.12086 0.0
C70 C 0.97849 0.16629 0.09819 0.0
O71 O 0.97033 0.16847 0.18345 0.0
O72 O 0.90713 0.24864 0.98402 0.0
C73 C 0.99554 0.27821 0.19181 0.0
O74 O 0.99037 0.25001 0.24899 0.0
C75 C 0.89468 0.23383 0.2543 0.0
O76 O 0.91042 0.269 0.26275 0.0
O77 O 0.96705 0.19041 0.04465 0.0
C78 C 0.77527 0.39749 0.47311 0.0
O79 O 0.78279 0.3869 0.39152 0.0
O80 O 0.72505 0.42101 0.28304 0.0
Zn81 Zn 0.74208 0.45709 0.38187 0.0
O82 O 0.78547 0.49517 0.34258 0.0
C83 C 0.67748 0.50025 0.36765 0.0
O84 O 0.68572 0.4997 0.28219 0.0
O85 O 0.75846 0.4271 0.48501 0.0
C86 C 0.79421 0.52474 0.38947 0.0
O87 O 0.7747 0.52964 0.46259 0.0
C88 C 0.73352 0.42723 0.20163 0.0
O89 O 0.75442 0.4588 0.17929 0.0
O90 O 0.69784 0.48402 0.42236 0.0
C91 C 0.60321 0.21856 0.49153 0.0
O92 O 0.6136 0.21288 0.57405 0.0
O93 O 0.58404 0.28127 0.66925 0.0
Zn94 Zn 0.54662 0.25768 0.57937 0.0
O95 O 0.51103 0.21566 0.63418 0.0
C96 C 0.52694 0.3329 0.53346 0.0
O97 O 0.56208 0.34396 0.55807 0.0
O98 O 0.57496 0.23714 0.47724 0.0
C99 C 0.48689 0.224 0.6921 0.0
O100 O 0.48669 0.25966 0.71657 0.0
C101 C 0.59183 0.26555 0.74205 0.0
O102 O 0.57495 0.23164 0.76156 0.0
O103 O 0.51491 0.29772 0.53546 0.0
H104 H 0.39604 0.7543 0.93015 0.0
H105 H 0.22817 0.59381 0.06019 0.0
H106 H 0.34477 0.67202 0.74156 0.0
H107 H 0.31431 0.63926 0.24644 0.0
H108 H 0.25994 0.63424 0.94315 0.0
H109 H 0.35491 0.72384 0.04754 0.0
C110 C 0.3759 0.73008 0.91332 0.0
C111 C 0.37416 0.71524 0.8265 0.0
C112 C 0.27148 0.63559 0.01003 0.0
C113 C 0.32698 0.68079 0.95955 0.0
C114 C 0.2534 0.61268 0.07672 0.0
C115 C 0.26901 0.61289 0.16263 0.0
C116 C 0.30481 0.65932 0.03016 0.0
C117 C 0.30171 0.63788 0.18064 0.0
C118 C 0.35257 0.71272 0.98022 0.0
C119 C 0.34744 0.68393 0.80807 0.0
N120 N 0.31859 0.66009 0.11486 0.0
N121 N 0.32489 0.66767 0.87415 0.0
H122 H 0.38951 0.74871 0.32513 0.0
H123 H 0.24992 0.89967 0.17247 0.0
H124 H 0.32637 0.81251 0.50868 0.0
H125 H 0.31341 0.836 0.98938 0.0
H126 H 0.27266 0.86344 0.29602 0.0
H127 H 0.35691 0.77567 0.20105 0.0
C128 C 0.36865 0.76826 0.3394 0.0
C129 C 0.36101 0.77878 0.42737 0.0
C130 C 0.2815 0.85728 0.2288 0.0
C131 C 0.32372 0.80988 0.28559 0.0
C132 C 0.26859 0.87801 0.1582 0.0
C133 C 0.28022 0.8712 0.07058 0.0
C134 C 0.30644 0.82972 0.2117 0.0
C135 C 0.304 0.84245 0.05593 0.0
C136 C 0.35002 0.78362 0.26848 0.0
C137 C 0.3334 0.80388 0.44189 0.0
N138 N 0.31659 0.82298 0.12591 0.0
N139 N 0.31598 0.81884 0.37163 0.0
H140 H 0.15097 0.83059 0.2259 0.0
H141 H 0.18918 0.8551 0.74648 0.0
H142 H 0.11277 0.74484 0.42038 0.0
H143 H 0.2421 0.9321 0.5481 0.0
H144 H 0.16349 0.81285 0.62761 0.0
H145 H 0.18734 0.86653 0.3419 0.0
C146 C 0.15035 0.81925 0.29302 0.0
C147 C 0.12843 0.78491 0.31386 0.0
C148 C 0.18095 0.83884 0.61003 0.0
C149 C 0.16973 0.82608 0.44711 0.0
C150 C 0.19553 0.86306 0.67788 0.0
C151 C 0.21745 0.89742 0.65711 0.0
C152 C 0.18802 0.84918 0.52068 0.0
C153 C 0.22512 0.90604 0.56712 0.0
C154 C 0.17121 0.83975 0.35918 0.0
C155 C 0.1291 0.77131 0.40157 0.0
N156 N 0.2101 0.88225 0.50215 0.0
N157 N 0.14906 0.79217 0.46527 0.0
H158 H 0.14694 0.64415 0.01306 0.0
H159 H 0.25459 0.67631 0.54465 0.0
H160 H 0.14166 0.74378 0.84933 0.0
H161 H 0.23015 0.56636 0.66923 0.0
H162 H 0.22508 0.70533 0.67184 0.0
H163 H 0.18846 0.61905 0.90183 0.0
C164 C 0.15468 0.66085 0.954 0.0
C165 C 0.14042 0.69588 0.93981 0.0
C166 C 0.2265 0.6749 0.67152 0.0
C167 C 0.18833 0.66759 0.8132 0.0
C168 C 0.24346 0.65833 0.5992 0.0
C169 C 0.24427 0.61878 0.59575 0.0
C170 C 0.21057 0.65177 0.74105 0.0
C171 C 0.22963 0.5969 0.66856 0.0
C172 C 0.17841 0.64652 0.89065 0.0
C173 C 0.15161 0.71642 0.86237 0.0
N174 N 0.21315 0.61367 0.73802 0.0
N175 N 0.17486 0.70193 0.80182 0.0
H176 H 0.73162 0.08625 0.56144 0.0
H177 H 0.89033 0.2552 0.42921 0.0
H178 H 0.81869 0.13315 0.74385 0.0
H179 H 0.84179 0.17202 0.23937 0.0
H180 H 0.85228 0.22141 0.54748 0.0
H181 H 0.76042 0.12864 0.44453 0.0
C182 C 0.75655 0.10569 0.57709 0.0
C183 C 0.77313 0.1059 0.66199 0.0
C184 C 0.84983 0.21084 0.47969 0.0
C185 C 0.80569 0.15452 0.52955 0.0
C186 C 0.87136 0.23012 0.41227 0.0
C187 C 0.86952 0.21605 0.32474 0.0
C188 C 0.82589 0.17775 0.45885 0.0
C189 C 0.84442 0.18349 0.3063 0.0
C190 C 0.77296 0.12973 0.51044 0.0
C191 C 0.80534 0.13173 0.67886 0.0
N192 N 0.82358 0.16537 0.37288 0.0
N193 N 0.82061 0.15502 0.61315 0.0
H194 H 0.88714 0.25052 0.82083 0.0
H195 H 0.75943 0.40881 0.64912 0.0
H196 H 0.83037 0.32378 -0.00447 0.0
H197 H 0.81675 0.33629 0.47365 0.0
H198 H 0.78076 0.37423 0.77682 0.0
H199 H 0.85705 0.27765 0.69313 0.0
C200 C 0.86818 0.27217 0.83243 0.0
C201 C 0.86159 0.28522 0.91895 0.0
C202 C 0.78859 0.36578 0.71042 0.0
C203 C 0.8272 0.31651 0.77299 0.0
C204 C 0.77647 0.38557 0.63739 0.0
C205 C 0.78668 0.37569 0.55057 0.0
C206 C 0.81127 0.33601 0.69665 0.0
C207 C 0.80844 0.34506 0.53941 0.0
C208 C 0.85101 0.28765 0.75941 0.0
C209 C 0.83651 0.31308 0.92999 0.0
N210 N 0.82024 0.32646 0.61172 0.0
N211 N 0.82044 0.328 0.85774 0.0
H212 H 0.69431 0.35706 0.22627 0.0
H213 H 0.63799 0.33159 0.714 0.0
H214 H 0.73742 0.43542 0.02002 0.0
H215 H 0.60574 0.24689 0.91524 0.0
H216 H 0.67771 0.36813 0.82337 0.0
H217 H 0.66477 0.31457 0.11212 0.0
C218 C 0.69774 0.36526 0.15689 0.0
C219 C 0.71801 0.40007 0.13268 0.0
C220 C 0.66216 0.34144 0.84353 0.0
C221 C 0.68412 0.35156 0.00162 0.0
C222 C 0.6394 0.32057 0.78114 0.0
C223 C 0.61818 0.28633 0.80584 0.0
C224 C 0.66342 0.32819 0.93157 0.0
C225 C 0.62143 0.27325 0.89346 0.0
C226 C 0.68092 0.34091 0.09171 0.0
C227 C 0.72183 0.409 0.04175 0.0
N228 N 0.64332 0.29441 0.95344 0.0
N229 N 0.70472 0.38505 0.97953 0.0
H230 H 0.74533 0.08969 0.16244 0.0
H231 H 0.58914 0.22527 0.31338 0.0
H232 H 0.66628 0.13506 0.98266 0.0
H233 H 0.66323 0.17541 0.49789 0.0
H234 H 0.62081 0.19632 0.19013 0.0
H235 H 0.71932 0.12477 0.28492 0.0
C236 C 0.7226 0.10711 0.14864 0.0
C237 C 0.70773 0.1092 0.06229 0.0
C238 C 0.63024 0.19177 0.25753 0.0
C239 C 0.67785 0.14932 0.20201 0.0
C240 C 0.61215 0.20831 0.32802 0.0
C241 C 0.62334 0.20251 0.41619 0.0
C242 C 0.65972 0.16917 0.27516 0.0
C243 C 0.65351 0.18045 0.431 0.0
C244 C 0.70776 0.12711 0.2186 0.0
C245 C 0.67845 0.13238 0.0482 0.0
N246 N 0.67055 0.16442 0.36117 0.0
N247 N 0.66438 0.15139 0.11739 0.0
H248 H 0.32558 0.44015 0.41041 0.0
H249 H 0.54128 0.41079 0.53046 0.0
H250 H 0.41241 0.53368 0.4563 0.0
H251 H 0.45261 0.31929 0.48167 0.0
H252 H 0.49583 0.45661 0.49809 0.0
H253 H 0.37294 0.39587 0.43162 0.0
C254 C 0.35466 0.45143 0.42493 0.0
C255 C 0.36498 0.49073 0.43192 0.0
C256 C 0.48642 0.4265 0.49416 0.0
C257 C 0.4196 0.43994 0.45639 0.0
C258 C 0.51235 0.40032 0.5125 0.0
C259 C 0.5007 0.36111 0.50917 0.0
C260 C 0.44861 0.41334 0.47244 0.0
C261 C 0.46288 0.3492 0.48541 0.0
C262 C 0.38176 0.42606 0.43694 0.0
C263 C 0.40318 0.5036 0.4505 0.0
N264 N 0.43823 0.37518 0.46831 0.0
N265 N 0.42912 0.47824 0.46238 0.0
H266 H 0.66937 0.94222 0.91934 0.0
H267 H 0.53183 0.82662 0.57037 0.0
H268 H 0.69014 0.94601 0.63549 0.0
H269 H 0.54094 0.79136 0.84424 0.0
H270 H 0.58357 0.87723 0.59558 0.0
H271 H 0.61591 0.89329 0.89516 0.0
C272 C 0.66261 0.93287 0.8519 0.0
C273 C 0.68431 0.94813 0.77927 0.0
C274 C 0.57419 0.85841 0.65009 0.0
C275 C 0.62304 0.89247 0.7513 0.0
C276 C 0.54455 0.82965 0.63596 0.0
C277 C 0.53213 0.80467 0.70531 0.0
C278 C 0.59114 0.86261 0.73452 0.0
C279 C 0.54976 0.80987 0.78882 0.0
C280 C 0.63221 0.90486 0.83827 0.0
C281 C 0.67431 0.93486 0.6934 0.0
N282 N 0.5783 0.83838 0.80123 0.0
N283 N 0.64427 0.90791 0.68172 0.0
H284 H 0.99892 0.15283 0.92578 0.0
H285 H 0.14343 0.00345 0.06088 0.0
H286 H 0.01364 0.11468 0.19562 0.0
H287 H 0.12645 0.0395 0.79029 0.0
H288 H 0.09321 0.04107 0.11036 0.0
H289 H 0.04261 0.10849 0.87384 0.0
C290 C 0.01118 0.13499 0.97413 0.0
C291 C 0.00283 0.1377 0.06534 0.0
C292 C 0.10033 0.04062 0.0401 0.0
C293 C 0.05306 0.08693 0.00624 0.0
C294 C 0.12904 0.01916 0.01176 0.0
C295 C 0.13937 0.01855 0.92132 0.0
C296 C 0.08186 0.06177 0.97767 0.0
C297 C 0.11958 0.03929 0.8607 0.0
C298 C 0.03615 0.10965 0.94436 0.0
C299 C 0.0194 0.11368 0.12477 0.0
N300 N 0.09192 0.06023 0.89005 0.0
N301 N 0.04392 0.08948 0.09423 0.0
H302 H 0.98583 0.65032 0.11961 0.0
H303 H 0.81765 0.59264 0.4699 0.0
H304 H 0.9524 0.72494 0.32684 0.0
H305 H 0.84259 0.52225 0.24639 0.0
H306 H 0.86927 0.63995 0.42292 0.0
H307 H 0.93598 0.60153 0.16979 0.0
C308 C 0.96811 0.65642 0.17583 0.0
C309 C 0.97326 0.69184 0.21893 0.0
C310 C 0.86349 0.61416 0.38412 0.0
C311 C 0.91613 0.63611 0.27665 0.0
C312 C 0.83401 0.58708 0.41097 0.0
C313 C 0.82571 0.55342 0.36195 0.0
C314 C 0.88499 0.60756 0.30775 0.0
C315 C 0.84792 0.54781 0.28614 0.0
C316 C 0.9396 0.62856 0.20432 0.0
C317 C 0.94943 0.69811 0.29141 0.0
N318 N 0.87654 0.5746 0.26138 0.0
N319 N 0.92193 0.67056 0.3179 0.0
H320 H 0.33848 0.0163 0.78295 0.0
H321 H 0.43241 0.23204 0.81905 0.0
H322 H 0.30061 0.0979 0.96849 0.0
H323 H 0.47622 0.14828 0.64859 0.0
H324 H 0.38403 0.18319 0.87472 0.0
H325 H 0.3891 0.06417 0.73276 0.0
C326 C 0.34083 0.04425 0.8133 0.0
C327 C 0.3152 0.05309 0.88003 0.0
C328 C 0.40429 0.17544 0.82537 0.0
C329 C 0.37309 0.10809 0.82263 0.0
C330 C 0.43196 0.20334 0.7935 0.0
C331 C 0.45839 0.19429 0.72886 0.0
C332 C 0.40289 0.13816 0.79219 0.0
C333 C 0.45641 0.15658 0.69835 0.0
C334 C 0.36979 0.07157 0.78462 0.0
C335 C 0.31969 0.08978 0.91692 0.0
N336 N 0.42906 0.12995 0.73005 0.0
N337 N 0.34799 0.11594 0.88755 0.0
H338 H 0.8598 0.98889 0.04242 0.0
H339 H 0.99603 0.83215 0.90451 0.0
H340 H 0.87307 0.95158 0.77098 0.0
H341 H 0.9977 0.88543 0.16383 0.0
H342 H 0.95113 0.87557 0.85371 0.0
H343 H 0.9103 0.95101 0.08801 0.0
C344 C 0.87342 0.97283 0.99232 0.0
C345 C 0.86205 0.97326 0.9028 0.0
C346 C 0.96153 0.87791 0.92154 0.0
C347 C 0.9198 0.92964 0.95466 0.0
C348 C 0.98714 0.8531 0.95062 0.0
C349 C 0.00049 0.855 0.03873 0.0
C350 C 0.94894 0.9046 0.9812 0.0
C351 C 0.98809 0.88283 0.09542 0.0
C352 C 0.90233 0.95127 0.01837 0.0
C353 C 0.88087 0.95204 0.84074 0.0
N354 N 0.96282 0.90632 0.06589 0.0
N355 N 0.90863 0.93087 0.86794 0.0
H356 H 0.03113 0.29934 0.34879 0.0
H357 H 0.18548 0.45119 0.12768 0.0
H358 H 0.02753 0.32996 0.07064 0.0
H359 H 0.15761 0.45302 0.40803 0.0
H360 H 0.13167 0.40242 0.10477 0.0
H361 H 0.08178 0.35139 0.37183 0.0
C362 C 0.04094 0.31705 0.29265 0.0
C363 C 0.02512 0.31033 0.20769 0.0
C364 C 0.13726 0.41371 0.17115 0.0
C365 C 0.08321 0.3695 0.23337 0.0
C366 C 0.16799 0.44141 0.18432 0.0
C367 C 0.17602 0.45615 0.26987 0.0
C368 C 0.11486 0.40016 0.24432 0.0
C369 C 0.15236 0.44253 0.34088 0.0
C370 C 0.06971 0.34679 0.30591 0.0
C371 C 0.03883 0.33422 0.13734 0.0
N372 N 0.12305 0.41504 0.32667 0.0
N373 N 0.06734 0.36255 0.15157 0.0
H374 H 0.50109 0.6502 0.41969 0.0
H375 H 0.65098 0.50395 0.53886 0.0
H376 H 0.51889 0.60985 0.68633 0.0
H377 H 0.63098 0.54209 0.27138 0.0
H378 H 0.59984 0.53938 0.59281 0.0
H379 H 0.54539 0.60744 0.3629 0.0
C380 C 0.51413 0.63218 0.46631 0.0
C381 C 0.50651 0.63387 0.55808 0.0
C382 C 0.6065 0.53988 0.52226 0.0
C383 C 0.55747 0.58493 0.4934 0.0
C384 C 0.63577 0.51969 0.49136 0.0
C385 C 0.6455 0.52029 0.40048 0.0
C386 C 0.58688 0.561 0.46198 0.0
C387 C 0.6246 0.54097 0.34204 0.0
C388 C 0.53945 0.60775 0.43377 0.0
C389 C 0.52406 0.60964 0.61515 0.0
N390 N 0.59643 0.56068 0.37388 0.0
N391 N 0.54894 0.58638 0.58194 0.0
loop_
_geom_bond_atom_site_label_1
_geom_bond_atom_site_label_2
_geom_bond_distance
_geom_bond_site_symmetry_2
_ccdc_geom_bond_type
C0 O1 1.160 . S
C0 O7 1.185 . S
O1 C0 1.160 . S
O2 Zn3 1.899 . S
O2 C10 1.284 . S
Zn3 O2 1.899 . S
Zn3 O4 2.032 . S
Zn3 O7 2.086 . S
Zn3 O12 1.977 . S
O4 Zn3 2.032 . S
O4 C8 1.278 . S
C5 O6 1.203 . S
C5 O12 1.267 . S
O6 C5 1.203 . S
O7 C0 1.185 . S
O7 Zn3 2.086 . S
C8 O4 1.278 . S
C8 O9 1.211 . S
O9 C8 1.211 . S
C10 O2 1.284 . S
C10 O11 1.273 . S
O11 C10 1.273 . S
O12 Zn3 1.977 . S
O12 C5 1.267 . S
C13 O14 1.160 . S
C13 O20 1.185 . S
O14 C13 1.160 . S
O15 Zn16 1.899 . S
O15 C23 1.284 . S
Zn16 O15 1.899 . S
Zn16 O17 2.032 . S
Zn16 O20 2.086 . S
Zn16 O25 1.977 . S
O17 Zn16 2.032 . S
O17 C21 1.278 . S
C18 O19 1.203 . S
C18 O25 1.267 . S
O19 C18 1.203 . S
O20 C13 1.185 . S
O20 Zn16 2.086 . S
C21 O17 1.278 . S
C21 O22 1.211 . S
O22 C21 1.211 . S
C23 O15 1.284 . S
C23 O24 1.273 . S
O24 C23 1.273 . S
O25 Zn16 1.977 . S
O25 C18 1.267 . S
C26 O27 1.160 1_554 S
C26 O33 1.185 . S
O27 C26 1.160 1_556 S
O28 Zn29 1.899 . S
O28 C36 1.284 . S
Zn29 O28 1.899 . S
Zn29 O30 2.032 . S
Zn29 O33 2.086 1_556 S
Zn29 O38 1.977 . S
O30 Zn29 2.032 . S
O30 C34 1.278 1_565 S
C31 O32 1.200 1_545 S
C31 O38 1.253 1_545 S
O32 C31 1.200 1_565 S
O33 C26 1.185 . S
O33 Zn29 2.086 1_554 S
C34 O30 1.278 1_545 S
C34 O35 1.211 . S
O35 C34 1.211 . S
C36 O28 1.284 . S
C36 O37 1.273 . S
O37 C36 1.273 . S
O38 Zn29 1.977 . S
O38 C31 1.253 1_565 S
C39 O40 1.160 1_556 S
C39 O46 1.185 . S
O40 C39 1.160 1_554 S
O41 Zn42 1.899 . S
O41 C49 1.284 . S
Zn42 O41 1.899 . S
Zn42 O43 2.032 . S
Zn42 O46 2.086 1_554 S
Zn42 O51 1.977 . S
O43 Zn42 2.032 . S
O43 C47 1.278 1_455 S
C44 O45 1.200 1_655 S
C44 O51 1.253 1_655 S
O45 C44 1.200 1_455 S
O46 C39 1.185 . S
O46 Zn42 2.086 1_556 S
C47 O43 1.278 1_655 S
C47 O48 1.211 . S
O48 C47 1.211 . S
C49 O41 1.284 . S
C49 O50 1.273 . S
O50 C49 1.273 . S
O51 Zn42 1.977 . S
O51 C44 1.253 1_455 S
C52 O53 1.160 1_554 S
C52 O59 1.185 . S
O53 C52 1.160 1_556 S
O54 Zn55 1.899 . S
O54 C62 1.284 . S
Zn55 O54 1.899 . S
Zn55 O56 2.032 . S
Zn55 O59 2.086 1_556 S
Zn55 O64 1.977 . S
O56 Zn55 2.032 . S
O56 C60 1.278 1_545 S
C57 O58 1.200 1_565 S
C57 O64 1.253 1_565 S
O58 C57 1.200 1_545 S
O59 C52 1.185 . S
O59 Zn55 2.086 1_554 S
C60 O56 1.278 1_565 S
C60 O61 1.211 . S
O61 C60 1.211 . S
C62 O54 1.284 . S
C62 O63 1.273 . S
O63 C62 1.273 . S
O64 Zn55 1.977 . S
O64 C57 1.253 1_545 S
C65 O66 1.160 1_556 S
C65 O72 1.185 . S
O66 C65 1.160 1_554 S
O67 Zn68 1.899 . S
O67 C75 1.284 . S
Zn68 O67 1.899 . S
Zn68 O69 2.032 . S
Zn68 O72 2.086 1_554 S
Zn68 O77 1.977 . S
O69 Zn68 2.032 . S
O69 C73 1.278 1_655 S
C70 O71 1.200 1_455 S
C70 O77 1.253 1_455 S
O71 C70 1.200 1_655 S
O72 C65 1.185 . S
O72 Zn68 2.086 1_556 S
C73 O69 1.278 1_455 S
C73 O74 1.211 . S
O74 C73 1.211 . S
C75 O67 1.284 . S
C75 O76 1.273 . S
O76 C75 1.273 . S
O77 Zn68 1.977 . S
O77 C70 1.253 1_655 S
C78 O79 1.160 . S
C78 O85 1.185 . S
O79 C78 1.160 . S
O80 Zn81 1.899 . S
O80 C88 1.284 . S
Zn81 O80 1.899 . S
Zn81 O82 2.032 . S
Zn81 O85 2.086 . S
Zn81 O90 1.977 . S
O82 Zn81 2.032 . S
O82 C86 1.278 . S
C83 O84 1.203 . S
C83 O90 1.267 . S
O84 C83 1.203 . S
O85 C78 1.185 . S
O85 Zn81 2.086 . S
C86 O82 1.278 . S
C86 O87 1.211 . S
O87 C86 1.211 . S
C88 O80 1.284 . S
C88 O89 1.273 . S
O89 C88 1.273 . S
O90 Zn81 1.977 . S
O90 C83 1.267 . S
C91 O92 1.160 . S
C91 O98 1.185 . S
O92 C91 1.160 . S
O93 Zn94 1.899 . S
O93 C101 1.284 . S
Zn94 O93 1.899 . S
Zn94 O95 2.032 . S
Zn94 O98 2.086 . S
Zn94 O103 1.977 . S
O95 Zn94 2.032 . S
O95 C99 1.278 . S
C96 O97 1.203 . S
C96 O103 1.267 . S
O97 C96 1.203 . S
O98 C91 1.185 . S
O98 Zn94 2.086 . S
C99 O95 1.278 . S
C99 O100 1.211 . S
O100 C99 1.211 . S
C101 O93 1.284 . S
C101 O102 1.273 . S
O102 C101 1.273 . S
O103 Zn94 1.977 . S
O103 C96 1.267 . S
H104 C110 0.930 . S
H105 C114 0.930 . S
H106 C119 0.929 . S
H107 C117 0.929 . S
H108 C112 0.929 1_556 S
H109 C118 0.929 1_554 S
C110 H104 0.930 . S
C110 C111 1.367 . S
C110 C118 1.378 . S
C111 C110 1.367 . S
C111 C119 1.433 . S
C112 H108 0.929 1_554 S
C112 C114 1.378 . S
C112 C116 1.350 . S
C113 C116 1.463 1_556 S
C113 C118 1.350 . S
C113 N121 1.427 . S
C114 H105 0.930 . S
C114 C112 1.378 . S
C114 C115 1.367 . S
C115 C114 1.367 . S
C115 C117 1.433 . S
C116 C112 1.350 . S
C116 C113 1.463 1_554 S
C116 N120 1.427 . S
C117 H107 0.929 . S
C117 C115 1.433 . S
C117 N120 1.384 . S
C118 H109 0.929 1_556 S
C118 C110 1.378 . S
C118 C113 1.350 . S
C119 H106 0.929 . S
C119 C111 1.433 . S
C119 N121 1.384 . S
N120 C116 1.427 . S
N120 C117 1.384 . S
N121 C113 1.427 . S
N121 C119 1.384 . S
H122 C128 0.930 . S
H123 C132 0.930 . S
H124 C137 0.929 . S
H125 C135 0.929 . S
H126 C130 0.929 . S
H127 C136 0.929 . S
C128 H122 0.930 . S
C128 C129 1.367 . S
C128 C136 1.378 . S
C129 C128 1.367 . S
C129 C137 1.433 . S
C130 H126 0.929 . S
C130 C132 1.378 . S
C130 C134 1.350 . S
C131 C134 1.463 . S
C131 C136 1.350 . S
C131 N139 1.427 . S
C132 H123 0.930 . S
C132 C130 1.378 . S
C132 C133 1.367 . S
C133 C132 1.367 . S
C133 C135 1.433 . S
C134 C130 1.350 . S
C134 C131 1.463 . S
C134 N138 1.427 . S
C135 H125 0.929 . S
C135 C133 1.433 . S
C135 N138 1.384 . S
C136 H127 0.929 . S
C136 C128 1.378 . S
C136 C131 1.350 . S
C137 H124 0.929 . S
C137 C129 1.433 . S
C137 N139 1.384 . S
N138 C134 1.427 . S
N138 C135 1.384 . S
N139 C131 1.427 . S
N139 C137 1.384 . S
H140 C146 0.930 . S
H141 C150 0.930 . S
H142 C155 0.929 . S
H143 C153 0.929 . S
H144 C148 0.929 . S
H145 C154 0.929 . S
C146 H140 0.930 . S
C146 C147 1.367 . S
C146 C154 1.378 . S
C147 C146 1.367 . S
C147 C155 1.433 . S
C148 H144 0.929 . S
C148 C150 1.378 . S
C148 C152 1.350 . S
C149 C152 1.463 . S
C149 C154 1.350 . S
C149 N157 1.427 . S
C150 H141 0.930 . S
C150 C148 1.378 . S
C150 C151 1.367 . S
C151 C150 1.367 . S
C151 C153 1.433 . S
C152 C148 1.350 . S
C152 C149 1.463 . S
C152 N156 1.427 . S
C153 H143 0.929 . S
C153 C151 1.433 . S
C153 N156 1.384 . S
C154 H145 0.929 . S
C154 C146 1.378 . S
C154 C149 1.350 . S
C155 H142 0.929 . S
C155 C147 1.433 . S
C155 N157 1.384 . S
N156 C152 1.427 . S
N156 C153 1.384 . S
N157 C149 1.427 . S
N157 C155 1.384 . S
H158 C164 0.930 . S
H159 C168 0.930 . S
H160 C173 0.929 . S
H161 C171 0.929 . S
H162 C166 0.929 . S
H163 C172 0.929 . S
C164 H158 0.930 . S
C164 C165 1.367 . S
C164 C172 1.378 . S
C165 C164 1.367 . S
C165 C173 1.433 . S
C166 H162 0.929 . S
C166 C168 1.378 . S
C166 C170 1.350 . S
C167 C170 1.463 . S
C167 C172 1.350 . S
C167 N175 1.427 . S
C168 H159 0.930 . S
C168 C166 1.378 . S
C168 C169 1.367 . S
C169 C168 1.367 . S
C169 C171 1.433 . S
C170 C166 1.350 . S
C170 C167 1.463 . S
C170 N174 1.427 . S
C171 H161 0.929 . S
C171 C169 1.433 . S
C171 N174 1.384 . S
C172 H163 0.929 . S
C172 C164 1.378 . S
C172 C167 1.350 . S
C173 H160 0.929 . S
C173 C165 1.433 . S
C173 N175 1.384 . S
N174 C170 1.427 . S
N174 C171 1.384 . S
N175 C167 1.427 . S
N175 C173 1.384 . S
H176 C182 0.930 . S
H177 C186 0.930 . S
H178 C191 0.929 . S
H179 C189 0.929 . S
H180 C184 0.929 . S
H181 C190 0.929 . S
C182 H176 0.930 . S
C182 C183 1.367 . S
C182 C190 1.378 . S
C183 C182 1.367 . S
C183 C191 1.433 . S
C184 H180 0.929 . S
C184 C186 1.378 . S
C184 C188 1.350 . S
C185 C188 1.463 . S
C185 C190 1.350 . S
C185 N193 1.427 . S
C186 H177 0.930 . S
C186 C184 1.378 . S
C186 C187 1.367 . S
C187 C186 1.367 . S
C187 C189 1.433 . S
C188 C184 1.350 . S
C188 C185 1.463 . S
C188 N192 1.427 . S
C189 H179 0.929 . S
C189 C187 1.433 . S
C189 N192 1.384 . S
C190 H181 0.929 . S
C190 C182 1.378 . S
C190 C185 1.350 . S
C191 H178 0.929 . S
C191 C183 1.433 . S
C191 N193 1.384 . S
N192 C188 1.427 . S
N192 C189 1.384 . S
N193 C185 1.427 . S
N193 C191 1.384 . S
H194 C200 0.930 . S
H195 C204 0.930 . S
H196 C209 0.929 . S
H197 C207 0.929 . S
H198 C202 0.929 . S
H199 C208 0.929 . S
C200 H194 0.930 . S
C200 C201 1.367 . S
C200 C208 1.378 . S
C201 C200 1.367 . S
C201 C209 1.433 . S
C202 H198 0.929 . S
C202 C204 1.378 . S
C202 C206 1.350 . S
C203 C206 1.463 . S
C203 C208 1.350 . S
C203 N211 1.427 . S
C204 H195 0.930 . S
C204 C202 1.378 . S
C204 C205 1.367 . S
C205 C204 1.367 . S
C205 C207 1.433 . S
C206 C202 1.350 . S
C206 C203 1.463 . S
C206 N210 1.427 . S
C207 H197 0.929 . S
C207 C205 1.433 . S
C207 N210 1.384 . S
C208 H199 0.929 . S
C208 C200 1.378 . S
C208 C203 1.350 . S
C209 H196 0.929 . S
C209 C201 1.433 . S
C209 N211 1.384 . S
N210 C206 1.427 . S
N210 C207 1.384 . S
N211 C203 1.427 . S
N211 C209 1.384 . S
H212 C218 0.930 . S
H213 C222 0.930 . S
H214 C227 0.929 . S
H215 C225 0.929 . S
H216 C220 0.929 . S
H217 C226 0.929 . S
C218 H212 0.930 . S
C218 C219 1.367 . S
C218 C226 1.378 . S
C219 C218 1.367 . S
C219 C227 1.433 . S
C220 H216 0.929 . S
C220 C222 1.378 . S
C220 C224 1.350 . S
C221 C224 1.463 1_554 S
C221 C226 1.350 . S
C221 N229 1.427 . S
C222 H213 0.930 . S
C222 C220 1.378 . S
C222 C223 1.367 . S
C223 C222 1.367 . S
C223 C225 1.433 . S
C224 C220 1.350 . S
C224 C221 1.463 1_556 S
C224 N228 1.427 . S
C225 H215 0.929 . S
C225 C223 1.433 . S
C225 N228 1.384 . S
C226 H217 0.929 . S
C226 C218 1.378 . S
C226 C221 1.350 . S
C227 H214 0.929 . S
C227 C219 1.433 . S
C227 N229 1.384 . S
N228 C224 1.427 . S
N228 C225 1.384 . S
N229 C221 1.427 . S
N229 C227 1.384 . S
H230 C236 0.930 . S
H231 C240 0.930 . S
H232 C245 0.929 . S
H233 C243 0.929 . S
H234 C238 0.929 . S
H235 C244 0.929 . S
C236 H230 0.930 . S
C236 C237 1.367 . S
C236 C244 1.378 . S
C237 C236 1.367 . S
C237 C245 1.433 . S
C238 H234 0.929 . S
C238 C240 1.378 . S
C238 C242 1.350 . S
C239 C242 1.463 . S
C239 C244 1.350 . S
C239 N247 1.427 . S
C240 H231 0.930 . S
C240 C238 1.378 . S
C240 C241 1.367 . S
C241 C240 1.367 . S
C241 C243 1.433 . S
C242 C238 1.350 . S
C242 C239 1.463 . S
C242 N246 1.427 . S
C243 H233 0.929 . S
C243 C241 1.433 . S
C243 N246 1.384 . S
C244 H235 0.929 . S
C244 C236 1.378 . S
C244 C239 1.350 . S
C245 H232 0.929 . S
C245 C237 1.433 . S
C245 N247 1.384 . S
N246 C242 1.427 . S
N246 C243 1.384 . S
N247 C239 1.427 . S
N247 C245 1.384 . S
H248 C254 0.930 . S
H249 C258 0.930 . S
H250 C263 0.929 . S
H251 C261 0.929 . S
H252 C256 0.929 . S
H253 C262 0.929 . S
C254 H248 0.930 . S
C254 C255 1.367 . S
C254 C262 1.378 . S
C255 C254 1.367 . S
C255 C263 1.433 . S
C256 H252 0.929 . S
C256 C258 1.378 . S
C256 C260 1.350 . S
C257 C260 1.463 . S
C257 C262 1.350 . S
C257 N265 1.427 . S
C258 H249 0.930 . S
C258 C256 1.378 . S
C258 C259 1.367 . S
C259 C258 1.367 . S
C259 C261 1.433 . S
C260 C256 1.350 . S
C260 C257 1.463 . S
C260 N264 1.427 . S
C261 H251 0.929 . S
C261 C259 1.433 . S
C261 N264 1.384 . S
C262 H253 0.929 . S
C262 C254 1.378 . S
C262 C257 1.350 . S
C263 H250 0.929 . S
C263 C255 1.433 . S
C263 N265 1.384 . S
N264 C260 1.427 . S
N264 C261 1.384 . S
N265 C257 1.427 . S
N265 C263 1.384 . S
H266 C272 0.930 . S
H267 C276 0.930 . S
H268 C281 0.929 . S
H269 C279 0.929 . S
H270 C274 0.929 . S
H271 C280 0.929 . S
C272 H266 0.930 . S
C272 C273 1.367 . S
C272 C280 1.378 . S
C273 C272 1.367 . S
C273 C281 1.433 . S
C274 H270 0.929 . S
C274 C276 1.378 . S
C274 C278 1.350 . S
C275 C278 1.463 . S
C275 C280 1.350 . S
C275 N283 1.427 . S
C276 H267 0.930 . S
C276 C274 1.378 . S
C276 C277 1.367 . S
C277 C276 1.367 . S
C277 C279 1.433 . S
C278 C274 1.350 . S
C278 C275 1.463 . S
C278 N282 1.427 . S
C279 H269 0.929 . S
C279 C277 1.433 . S
C279 N282 1.384 . S
C280 H271 0.929 . S
C280 C272 1.378 . S
C280 C275 1.350 . S
C281 H268 0.929 . S
C281 C273 1.433 . S
C281 N283 1.384 . S
N282 C278 1.427 . S
N282 C279 1.384 . S
N283 C275 1.427 . S
N283 C281 1.384 . S
H284 C290 0.930 . S
H285 C294 0.930 1_565 S
H286 C299 0.929 . S
H287 C297 0.929 . S
H288 C292 0.929 . S
H289 C298 0.929 . S
C290 H284 0.930 . S
C290 C291 1.367 1_556 S
C290 C298 1.378 . S
C291 C290 1.367 1_554 S
C291 C299 1.433 . S
C292 H288 0.929 . S
C292 C294 1.378 . S
C292 C296 1.350 1_554 S
C293 C296 1.463 1_554 S
C293 C298 1.350 1_554 S
C293 N301 1.427 . S
C294 H285 0.930 1_545 S
C294 C292 1.378 . S
C294 C295 1.367 1_554 S
C295 C294 1.367 1_556 S
C295 C297 1.433 . S
C296 C292 1.350 1_556 S
C296 C293 1.463 1_556 S
C296 N300 1.427 . S
C297 H287 0.929 . S
C297 C295 1.433 . S
C297 N300 1.384 . S
C298 H289 0.929 . S
C298 C290 1.378 . S
C298 C293 1.350 1_556 S
C299 H286 0.929 . S
C299 C291 1.433 . S
C299 N301 1.384 . S
N300 C296 1.427 . S
N300 C297 1.384 . S
N301 C293 1.427 . S
N301 C299 1.384 . S
H302 C308 0.930 . S
H303 C312 0.930 . S
H304 C317 0.929 . S
H305 C315 0.929 . S
H306 C310 0.929 . S
H307 C316 0.929 . S
C308 H302 0.930 . S
C308 C309 1.367 . S
C308 C316 1.378 . S
C309 C308 1.367 . S
C309 C317 1.433 . S
C310 H306 0.929 . S
C310 C312 1.378 . S
C310 C314 1.350 . S
C311 C314 1.463 . S
C311 C316 1.350 . S
C311 N319 1.427 . S
C312 H303 0.930 . S
C312 C310 1.378 . S
C312 C313 1.367 . S
C313 C312 1.367 . S
C313 C315 1.433 . S
C314 C310 1.350 . S
C314 C311 1.463 . S
C314 N318 1.427 . S
C315 H305 0.929 . S
C315 C313 1.433 . S
C315 N318 1.384 . S
C316 H307 0.929 . S
C316 C308 1.378 . S
C316 C311 1.350 . S
C317 H304 0.929 . S
C317 C309 1.433 . S
C317 N319 1.384 . S
N318 C314 1.427 . S
N318 C315 1.384 . S
N319 C311 1.427 . S
N319 C317 1.384 . S
H320 C326 0.930 . S
H321 C330 0.930 . S
H322 C335 0.929 . S
H323 C333 0.929 . S
H324 C328 0.929 . S
H325 C334 0.929 . S
C326 H320 0.930 . S
C326 C327 1.367 . S
C326 C334 1.378 . S
C327 C326 1.367 . S
C327 C335 1.433 . S
C328 H324 0.929 . S
C328 C330 1.378 . S
C328 C332 1.350 . S
C329 C332 1.463 . S
C329 C334 1.350 . S
C329 N337 1.427 . S
C330 H321 0.930 . S
C330 C328 1.378 . S
C330 C331 1.367 . S
C331 C330 1.367 . S
C331 C333 1.433 . S
C332 C328 1.350 . S
C332 C329 1.463 . S
C332 N336 1.427 . S
C333 H323 0.929 . S
C333 C331 1.433 . S
C333 N336 1.384 . S
C334 H325 0.929 . S
C334 C326 1.378 . S
C334 C329 1.350 . S
C335 H322 0.929 . S
C335 C327 1.433 . S
C335 N337 1.384 . S
N336 C332 1.427 . S
N336 C333 1.384 . S
N337 C329 1.427 . S
N337 C335 1.384 . S
H338 C344 0.930 . S
H339 C348 0.930 . S
H340 C353 0.929 . S
H341 C351 0.929 . S
H342 C346 0.929 . S
H343 C352 0.929 . S
C344 H338 0.930 . S
C344 C345 1.367 1_554 S
C344 C352 1.378 . S
C345 C344 1.367 1_556 S
C345 C353 1.433 . S
C346 H342 0.929 . S
C346 C348 1.378 . S
C346 C350 1.350 1_556 S
C347 C350 1.463 1_556 S
C347 C352 1.350 1_556 S
C347 N355 1.427 . S
C348 H339 0.930 . S
C348 C346 1.378 . S
C348 C349 1.367 1_556 S
C349 C348 1.367 1_554 S
C349 C351 1.433 . S
C350 C346 1.350 1_554 S
C350 C347 1.463 1_554 S
C350 N354 1.427 . S
C351 H341 0.929 . S
C351 C349 1.433 . S
C351 N354 1.384 . S
C352 H343 0.929 . S
C352 C344 1.378 . S
C352 C347 1.350 1_554 S
C353 H340 0.929 . S
C353 C345 1.433 . S
C353 N355 1.384 . S
N354 C350 1.427 . S
N354 C351 1.384 . S
N355 C347 1.427 . S
N355 C353 1.384 . S
H356 C362 0.930 . S
H357 C366 0.930 . S
H358 C371 0.929 . S
H359 C369 0.929 . S
H360 C364 0.929 . S
H361 C370 0.929 . S
C362 H356 0.930 . S
C362 C363 1.367 . S
C362 C370 1.378 . S
C363 C362 1.367 . S
C363 C371 1.433 . S
C364 H360 0.929 . S
C364 C366 1.378 . S
C364 C368 1.350 . S
C365 C368 1.463 . S
C365 C370 1.350 . S
C365 N373 1.427 . S
C366 H357 0.930 . S
C366 C364 1.378 . S
C366 C367 1.367 . S
C367 C366 1.367 . S
C367 C369 1.433 . S
C368 C364 1.350 . S
C368 C365 1.463 . S
C368 N372 1.427 . S
C369 H359 0.929 . S
C369 C367 1.433 . S
C369 N372 1.384 . S
C370 H361 0.929 . S
C370 C362 1.378 . S
C370 C365 1.350 . S
C371 H358 0.929 . S
C371 C363 1.433 . S
C371 N373 1.384 . S
N372 C368 1.427 . S
N372 C369 1.384 . S
N373 C365 1.427 . S
N373 C371 1.384 . S
H374 C380 0.930 . S
H375 C384 0.930 . S
H376 C389 0.929 . S
H377 C387 0.929 . S
H378 C382 0.929 . S
H379 C388 0.929 . S
C380 H374 0.930 . S
C380 C381 1.367 . S
C380 C388 1.378 . S
C381 C380 1.367 . S
C381 C389 1.433 . S
C382 H378 0.929 . S
C382 C384 1.378 . S
C382 C386 1.350 . S
C383 C386 1.463 . S
C383 C388 1.350 . S
C383 N391 1.427 . S
C384 H375 0.930 . S
C384 C382 1.378 . S
C384 C385 1.367 . S
C385 C384 1.367 . S
C385 C387 1.433 . S
C386 C382 1.350 . S
C386 C383 1.463 . S
C386 N390 1.427 . S
C387 H377 0.929 . S
C387 C385 1.433 . S
C387 N390 1.384 . S
C388 H379 0.929 . S
C388 C380 1.378 . S
C388 C383 1.350 . S
C389 H376 0.929 . S
C389 C381 1.433 . S
C389 N391 1.384 . S
N390 C386 1.427 . S
N390 C387 1.384 . S
N391 C383 1.427 . S
N391 C389 1.384 . S
C111 C23 1.378 . S
C115 C10 1.379 . S
C129 C13 1.396 . S
C133 C26 1.401 . S
C147 C49 1.386 . S
C151 C36 1.384 . S
C165 C39 1.399 . S
C169 C0 1.393 . S
C183 C62 1.378 . S
C187 C75 1.377 . S
C201 C65 1.397 . S
C205 C78 1.401 . S
C219 C88 1.385 . S
C223 C101 1.383 . S
C237 C52 1.395 . S
C241 C91 1.401 . S
C255 C5 1.433 . S
C259 C96 1.433 . S
C273 C60 1.433 . S
C277 C21 1.429 . S
C291 C70 1.455 . S
C295 C31 1.454 . S
C309 C47 1.437 . S
C313 C86 1.426 . S
C327 C34 1.438 . S
C331 C99 1.426 . S
C345 C57 1.456 . S
C349 C44 1.457 . S
C363 C73 1.432 . S
C367 C8 1.438 . S
C381 C18 1.436 . S
C385 C83 1.436 . S
