# Generated by pormake.
# Topology sin, (3)-cn, num edge types: 1
# Building blocks:
#     Node 0, Type 0, BuildingBlock: OLANEW_clean_sbu_2, # of connection points: 3
#     Node 1, Type 0, BuildingBlock: OLANEW_clean_sbu_2, # of connection points: 3
#     Node 2, Type 0, BuildingBlock: OLANEW_clean_sbu_2, # of connection points: 3
#     Node 3, Type 0, BuildingBlock: OLANEW_clean_sbu_2, # of connection points: 3
#     Node 4, Type 0, BuildingBlock: OLANEW_clean_sbu_2, # of connection points: 3
#     Node 5, Type 0, BuildingBlock: OLANEW_clean_sbu_2, # of connection points: 3
#     Node 6, Type 0, BuildingBlock: OLANEW_clean_sbu_2, # of connection points: 3
#     Node 7, Type 0, BuildingBlock: OLANEW_clean_sbu_2, # of connection points: 3
#     Node 8, Type 0, BuildingBlock: OLANEW_clean_sbu_2, # of connection points: 3
#     Node 9, Type 0, BuildingBlock: OLANEW_clean_sbu_2, # of connection points: 3
#     Node 10, Type 0, BuildingBlock: OLANEW_clean_sbu_2, # of connection points: 3
#     Node 11, Type 0, BuildingBlock: OLANEW_clean_sbu_2, # of connection points: 3
#     Node 12, Type 0, BuildingBlock: OLANEW_clean_sbu_2, # of connection points: 3
#     Node 13, Type 0, BuildingBlock: OLANEW_clean_sbu_2, # of connection points: 3
#     Node 14, Type 0, BuildingBlock: OLANEW_clean_sbu_2, # of connection points: 3
#     Node 15, Type 0, BuildingBlock: OLANEW_clean_sbu_2, # of connection points: 3
#     Node 16, Type 0, BuildingBlock: OLANEW_clean_sbu_2, # of connection points: 3
#     Node 17, Type 0, BuildingBlock: OLANEW_clean_sbu_2, # of connection points: 3
#     Node 18, Type 0, BuildingBlock: OLANEW_clean_sbu_2, # of connection points: 3
#     Node 19, Type 0, BuildingBlock: OLANEW_clean_sbu_2, # of connection points: 3
#     Node 20, Type 0, BuildingBlock: OLANEW_clean_sbu_2, # of connection points: 3
#     Node 21, Type 0, BuildingBlock: OLANEW_clean_sbu_2, # of connection points: 3
#     Node 22, Type 0, BuildingBlock: OLANEW_clean_sbu_2, # of connection points: 3
#     Node 23, Type 0, BuildingBlock: OLANEW_clean_sbu_2, # of connection points: 3
#     Node 24, Type 0, BuildingBlock: OLANEW_clean_sbu_2, # of connection points: 3
#     Node 25, Type 0, BuildingBlock: OLANEW_clean_sbu_2, # of connection points: 3
#     Node 26, Type 0, BuildingBlock: OLANEW_clean_sbu_2, # of connection points: 3
#     Node 27, Type 0, BuildingBlock: OLANEW_clean_sbu_2, # of connection points: 3
#     Node 28, Type 0, BuildingBlock: OLANEW_clean_sbu_2, # of connection points: 3
#     Node 29, Type 0, BuildingBlock: OLANEW_clean_sbu_2, # of connection points: 3
#     Node 30, Type 0, BuildingBlock: OLANEW_clean_sbu_2, # of connection points: 3
#     Node 31, Type 0, BuildingBlock: OLANEW_clean_sbu_2, # of connection points: 3
#     Node 32, Type 0, BuildingBlock: OLANEW_clean_sbu_2, # of connection points: 3
#     Node 33, Type 0, BuildingBlock: OLANEW_clean_sbu_2, # of connection points: 3
#     Node 34, Type 0, BuildingBlock: OLANEW_clean_sbu_2, # of connection points: 3
#     Node 35, Type 0, BuildingBlock: OLANEW_clean_sbu_2, # of connection points: 3
#     Node 36, Type 0, BuildingBlock: OLANEW_clean_sbu_2, # of connection points: 3
#     Node 37, Type 0, BuildingBlock: OLANEW_clean_sbu_2, # of connection points: 3
#     Node 38, Type 0, BuildingBlock: OLANEW_clean_sbu_2, # of connection points: 3
#     Node 39, Type 0, BuildingBlock: OLANEW_clean_sbu_2, # of connection points: 3
#     Node 40, Type 0, BuildingBlock: OLANEW_clean_sbu_2, # of connection points: 3
#     Node 41, Type 0, BuildingBlock: OLANEW_clean_sbu_2, # of connection points: 3
#     Node 42, Type 0, BuildingBlock: OLANEW_clean_sbu_2, # of connection points: 3
#     Node 43, Type 0, BuildingBlock: OLANEW_clean_sbu_2, # of connection points: 3
#     Node 44, Type 0, BuildingBlock: OLANEW_clean_sbu_2, # of connection points: 3
#     Node 45, Type 0, BuildingBlock: OLANEW_clean_sbu_2, # of connection points: 3
#     Node 46, Type 0, BuildingBlock: OLANEW_clean_sbu_2, # of connection points: 3
#     Node 47, Type 0, BuildingBlock: OLANEW_clean_sbu_2, # of connection points: 3
#     Edge 48, Type (0, 0), BuildingBlock: KIFKEQ_clean_linker_1, # of connection points: 2
#     Edge 49, Type (0, 0), BuildingBlock: KIFKEQ_clean_linker_1, # of connection points: 2
#     Edge 50, Type (0, 0), BuildingBlock: KIFKEQ_clean_linker_1, # of connection points: 2
#     Edge 51, Type (0, 0), BuildingBlock: KIFKEQ_clean_linker_1, # of connection points: 2
#     Edge 52, Type (0, 0), BuildingBlock: KIFKEQ_clean_linker_1, # of connection points: 2
#     Edge 53, Type (0, 0), BuildingBlock: KIFKEQ_clean_linker_1, # of connection points: 2
#     Edge 54, Type (0, 0), BuildingBlock: KIFKEQ_clean_linker_1, # of connection points: 2
#     Edge 55, Type (0, 0), BuildingBlock: KIFKEQ_clean_linker_1, # of connection points: 2
#     Edge 56, Type (0, 0), BuildingBlock: KIFKEQ_clean_linker_1, # of connection points: 2
#     Edge 57, Type (0, 0), BuildingBlock: KIFKEQ_clean_linker_1, # of connection points: 2
#     Edge 58, Type (0, 0), BuildingBlock: KIFKEQ_clean_linker_1, # of connection points: 2
#     Edge 59, Type (0, 0), BuildingBlock: KIFKEQ_clean_linker_1, # of connection points: 2
#     Edge 60, Type (0, 0), BuildingBlock: KIFKEQ_clean_linker_1, # of connection points: 2
#     Edge 61, Type (0, 0), BuildingBlock: KIFKEQ_clean_linker_1, # of connection points: 2
#     Edge 62, Type (0, 0), BuildingBlock: KIFKEQ_clean_linker_1, # of connection points: 2
#     Edge 63, Type (0, 0), BuildingBlock: KIFKEQ_clean_linker_1, # of connection points: 2
#     Edge 64, Type (0, 0), BuildingBlock: KIFKEQ_clean_linker_1, # of connection points: 2
#     Edge 65, Type (0, 0), BuildingBlock: KIFKEQ_clean_linker_1, # of connection points: 2
#     Edge 66, Type (0, 0), BuildingBlock: KIFKEQ_clean_linker_1, # of connection points: 2
#     Edge 67, Type (0, 0), BuildingBlock: KIFKEQ_clean_linker_1, # of connection points: 2
#     Edge 68, Type (0, 0), BuildingBlock: KIFKEQ_clean_linker_1, # of connection points: 2
#     Edge 69, Type (0, 0), BuildingBlock: KIFKEQ_clean_linker_1, # of connection points: 2
#     Edge 70, Type (0, 0), BuildingBlock: KIFKEQ_clean_linker_1, # of connection points: 2
#     Edge 71, Type (0, 0), BuildingBlock: KIFKEQ_clean_linker_1, # of connection points: 2
#     Edge 72, Type (0, 0), BuildingBlock: KIFKEQ_clean_linker_1, # of connection points: 2
#     Edge 73, Type (0, 0), BuildingBlock: KIFKEQ_clean_linker_1, # of connection points: 2
#     Edge 74, Type (0, 0), BuildingBlock: KIFKEQ_clean_linker_1, # of connection points: 2
#     Edge 75, Type (0, 0), BuildingBlock: KIFKEQ_clean_linker_1, # of connection points: 2
#     Edge 76, Type (0, 0), BuildingBlock: KIFKEQ_clean_linker_1, # of connection points: 2
#     Edge 77, Type (0, 0), BuildingBlock: KIFKEQ_clean_linker_1, # of connection points: 2
#     Edge 78, Type (0, 0), BuildingBlock: KIFKEQ_clean_linker_1, # of connection points: 2
#     Edge 79, Type (0, 0), BuildingBlock: KIFKEQ_clean_linker_1, # of connection points: 2
#     Edge 80, Type (0, 0), BuildingBlock: KIFKEQ_clean_linker_1, # of connection points: 2
#     Edge 81, Type (0, 0), BuildingBlock: KIFKEQ_clean_linker_1, # of connection points: 2
#     Edge 82, Type (0, 0), BuildingBlock: KIFKEQ_clean_linker_1, # of connection points: 2
#     Edge 83, Type (0, 0), BuildingBlock: KIFKEQ_clean_linker_1, # of connection points: 2
#     Edge 84, Type (0, 0), BuildingBlock: KIFKEQ_clean_linker_1, # of connection points: 2
#     Edge 85, Type (0, 0), BuildingBlock: KIFKEQ_clean_linker_1, # of connection points: 2
#     Edge 86, Type (0, 0), BuildingBlock: KIFKEQ_clean_linker_1, # of connection points: 2
#     Edge 87, Type (0, 0), BuildingBlock: KIFKEQ_clean_linker_1, # of connection points: 2
#     Edge 88, Type (0, 0), BuildingBlock: KIFKEQ_clean_linker_1, # of connection points: 2
#     Edge 89, Type (0, 0), BuildingBlock: KIFKEQ_clean_linker_1, # of connection points: 2
#     Edge 90, Type (0, 0), BuildingBlock: KIFKEQ_clean_linker_1, # of connection points: 2
#     Edge 91, Type (0, 0), BuildingBlock: KIFKEQ_clean_linker_1, # of connection points: 2
#     Edge 92, Type (0, 0), BuildingBlock: KIFKEQ_clean_linker_1, # of connection points: 2
#     Edge 93, Type (0, 0), BuildingBlock: KIFKEQ_clean_linker_1, # of connection points: 2
#     Edge 94, Type (0, 0), BuildingBlock: KIFKEQ_clean_linker_1, # of connection points: 2
#     Edge 95, Type (0, 0), BuildingBlock: KIFKEQ_clean_linker_1, # of connection points: 2
#     Edge 96, Type (0, 0), BuildingBlock: KIFKEQ_clean_linker_1, # of connection points: 2
#     Edge 97, Type (0, 0), BuildingBlock: KIFKEQ_clean_linker_1, # of connection points: 2
#     Edge 98, Type (0, 0), BuildingBlock: KIFKEQ_clean_linker_1, # of connection points: 2
#     Edge 99, Type (0, 0), BuildingBlock: KIFKEQ_clean_linker_1, # of connection points: 2
#     Edge 100, Type (0, 0), BuildingBlock: KIFKEQ_clean_linker_1, # of connection points: 2
#     Edge 101, Type (0, 0), BuildingBlock: KIFKEQ_clean_linker_1, # of connection points: 2
#     Edge 102, Type (0, 0), BuildingBlock: KIFKEQ_clean_linker_1, # of connection points: 2
#     Edge 103, Type (0, 0), BuildingBlock: KIFKEQ_clean_linker_1, # of connection points: 2
#     Edge 104, Type (0, 0), BuildingBlock: KIFKEQ_clean_linker_1, # of connection points: 2
#     Edge 105, Type (0, 0), BuildingBlock: KIFKEQ_clean_linker_1, # of connection points: 2
#     Edge 106, Type (0, 0), BuildingBlock: KIFKEQ_clean_linker_1, # of connection points: 2
#     Edge 107, Type (0, 0), BuildingBlock: KIFKEQ_clean_linker_1, # of connection points: 2
#     Edge 108, Type (0, 0), BuildingBlock: KIFKEQ_clean_linker_1, # of connection points: 2
#     Edge 109, Type (0, 0), BuildingBlock: KIFKEQ_clean_linker_1, # of connection points: 2
#     Edge 110, Type (0, 0), BuildingBlock: KIFKEQ_clean_linker_1, # of connection points: 2
#     Edge 111, Type (0, 0), BuildingBlock: KIFKEQ_clean_linker_1, # of connection points: 2
#     Edge 112, Type (0, 0), BuildingBlock: KIFKEQ_clean_linker_1, # of connection points: 2
#     Edge 113, Type (0, 0), BuildingBlock: KIFKEQ_clean_linker_1, # of connection points: 2
#     Edge 114, Type (0, 0), BuildingBlock: KIFKEQ_clean_linker_1, # of connection points: 2
#     Edge 115, Type (0, 0), BuildingBlock: KIFKEQ_clean_linker_1, # of connection points: 2
#     Edge 116, Type (0, 0), BuildingBlock: KIFKEQ_clean_linker_1, # of connection points: 2
#     Edge 117, Type (0, 0), BuildingBlock: KIFKEQ_clean_linker_1, # of connection points: 2
#     Edge 118, Type (0, 0), BuildingBlock: KIFKEQ_clean_linker_1, # of connection points: 2
#     Edge 119, Type (0, 0), BuildingBlock: KIFKEQ_clean_linker_1, # of connection points: 2
# Relax obj value: 0.034
# Max RMSD: 0.037
# Mean RMSD: 0.019
data_MOF--net-sin--node1-OLANEW_clean_sbu_2--edge1-KIFKEQ_clean_linker_1
_symmetry_space_group_name_H-M    P1
_symmetry_Int_Tables_number       1
_symmetry_cell_setting            triclinic
loop_
_symmetry_equiv_pos_as_xyz
'x, y, z'
_cell_length_a     84.419775
_cell_length_b     84.76969
_cell_length_c     84.78208
_cell_angle_alpha  89.622348
_cell_angle_beta   89.542542
_cell_angle_gamma 89.603521
loop_
_atom_site_label
_atom_site_type_symbol
_atom_site_fract_x
_atom_site_fract_y
_atom_site_fract_z
_atom_type_partial_charge
O0 O 0.97118 0.36797 0.4296 0.0
Cd1 Cd 0.97392 0.39619 0.43468 0.0
O2 O -0.00388 0.36181 0.43415 0.0
Cd3 Cd 0.00495 0.38559 0.43806 0.0
O4 O 0.02611 0.39998 0.43474 0.0
C5 C 0.03342 0.3977 0.42178 0.0
O6 O 0.02729 0.38795 0.41154 0.0
C7 C 0.98217 0.35769 0.43052 0.0
C8 C 0.94413 0.40998 0.43957 0.0
O9 O 0.94973 0.408 0.42562 0.0
O10 O 0.95269 0.40561 0.45125 0.0
O11 O 0.95014 0.93387 0.28593 0.0
Cd12 Cd 0.94124 0.95811 0.29876 0.0
O13 O 0.97504 0.94086 0.28788 0.0
Cd14 Cd 0.00035 0.93738 0.28315 0.0
O15 O 0.02497 0.93246 0.2766 0.0
C16 C 0.02922 0.9332 0.26219 0.0
O17 O 0.01866 0.93707 0.25152 0.0
C18 C 0.96474 0.93083 0.28377 0.0
C19 C 0.93428 0.95229 0.33048 0.0
O20 O 0.9239 0.95015 0.31977 0.0
O21 O 0.94795 0.95735 0.32622 0.0
O22 O 0.7003 0.80639 0.93641 0.0
Cd23 Cd 0.69937 0.77837 0.94339 0.0
O24 O 0.67547 0.8114 0.94291 0.0
Cd25 Cd 0.66817 0.78709 0.94716 0.0
O26 O 0.64788 0.77152 0.94449 0.0
C27 C 0.64098 0.77251 0.93125 0.0
O28 O 0.6471 0.78171 0.92028 0.0
C29 C 0.68892 0.81616 0.93808 0.0
C30 C 0.73011 0.76601 0.9447 0.0
O31 O 0.72197 0.76519 0.93204 0.0
O32 O 0.72363 0.77247 0.95678 0.0
O33 O 0.71286 0.24892 0.80436 0.0
Cd34 Cd 0.7099 0.22461 0.81978 0.0
O35 O 0.68887 0.24484 0.79569 0.0
Cd36 Cd 0.66745 0.25015 0.78214 0.0
O37 O 0.64465 0.25671 0.77184 0.0
C38 C 0.63574 0.24656 0.7655 0.0
O39 O 0.64051 0.23179 0.76482 0.0
C40 C 0.70109 0.25353 0.79624 0.0
C41 C 0.7228 0.22713 0.84988 0.0
O42 O 0.73043 0.22013 0.8388 0.0
O43 O 0.70912 0.23294 0.84675 0.0
O44 O 0.99336 0.81184 0.25 0.0
Cd45 Cd -0.00308 0.78521 0.23959 0.0
O46 O -3e-05 0.82253 0.22719 0.0
Cd47 Cd 0.01232 0.801 0.22004 0.0
O48 O 0.03344 0.78617 0.22254 0.0
C49 C 0.03838 0.78417 0.23654 0.0
O50 O 0.03016 0.79029 0.24825 0.0
C51 C 0.99443 0.82395 0.24111 0.0
C52 C 0.96717 0.7723 0.23409 0.0
O53 O 0.97497 0.76853 0.24648 0.0
O54 O 0.97354 0.78187 0.2242 0.0
O55 O 0.71499 0.93207 0.89419 0.0
Cd56 Cd 0.72011 0.95709 0.88071 0.0
O57 O 0.68947 0.93694 0.8956 0.0
Cd58 Cd 0.66485 0.93214 0.90238 0.0
O59 O 0.64012 0.92586 0.90679 0.0
C60 C 0.63466 0.92423 0.92072 0.0
O61 O 0.64409 0.92649 0.93274 0.0
C62 C 0.70115 0.92772 0.89817 0.0
C63 C 0.72501 0.952 0.84855 0.0
O64 O 0.73631 0.95036 0.85844 0.0
O65 O 0.71137 0.95625 0.85382 0.0
O66 O 0.7135 0.37489 0.76179 0.0
Cd67 Cd 0.71385 0.40358 0.75861 0.0
O68 O 0.68897 0.37213 0.75371 0.0
Cd69 Cd 0.68325 0.39731 0.75268 0.0
O70 O 0.66562 0.41577 0.75729 0.0
C71 C 0.65418 0.41724 0.74773 0.0
O72 O 0.65418 0.40854 0.73495 0.0
C73 C 0.70192 0.36605 0.75841 0.0
C74 C 0.74384 0.41345 0.74869 0.0
O75 O 0.7406 0.41139 0.76335 0.0
O76 O 0.73283 0.41102 0.73869 0.0
O77 O 0.96074 0.24811 0.37142 0.0
Cd78 Cd 0.96458 0.22569 0.35375 0.0
O79 O 0.98467 0.24292 0.37983 0.0
Cd80 Cd 0.00705 0.24798 0.39164 0.0
O81 O 0.0311 0.25282 0.39956 0.0
C82 C 0.03396 0.25891 0.41289 0.0
O83 O 0.02208 0.26237 0.42239 0.0
C84 C 0.97229 0.25157 0.38026 0.0
C85 C 0.95151 0.23062 0.32396 0.0
O86 O 0.94424 0.22235 0.33442 0.0
O87 O 0.96486 0.23664 0.32759 0.0
O88 O 0.41894 0.976 0.37971 0.0
Cd89 Cd 0.42378 0.98016 0.40782 0.0
O90 O 0.44366 0.9786 0.37183 0.0
Cd91 Cd 0.44913 0.98967 0.39428 0.0
O92 O 0.44482 0.01203 0.4063 0.0
C93 C 0.43312 0.01973 0.40076 0.0
O94 O 0.42493 0.01342 0.38932 0.0
C95 C 0.42933 0.97533 0.36879 0.0
C96 C 0.42942 0.95144 0.4232 0.0
O97 O 0.41529 0.95627 0.42043 0.0
O98 O 0.44096 0.96024 0.41883 0.0
O99 O 0.24967 0.80249 0.71365 0.0
Cd100 Cd 0.22408 0.81613 0.71477 0.0
O101 O 0.24461 0.79559 0.68935 0.0
Cd102 Cd 0.24939 0.78356 0.66698 0.0
O103 O 0.25519 0.77304 0.64415 0.0
C104 C 0.24457 0.76687 0.63567 0.0
O105 O 0.22986 0.76671 0.64085 0.0
C106 C 0.254 0.79565 0.70102 0.0
C107 C 0.22723 0.8469 0.72582 0.0
O108 O 0.22407 0.83547 0.73528 0.0
O109 O 0.22884 0.84378 0.71112 0.0
O110 O 0.26053 0.19428 0.86343 0.0
Cd111 Cd 0.25529 0.19197 0.89174 0.0
O112 O 0.23817 0.18367 0.85586 0.0
Cd113 Cd 0.23435 0.17307 0.87912 0.0
O114 O 0.23753 0.15175 0.89345 0.0
C115 C 0.25116 0.14531 0.89266 0.0
O116 O 0.26228 0.15233 0.88432 0.0
C117 C 0.25095 0.19084 0.8525 0.0
C118 C 0.25201 0.22248 0.90368 0.0
O119 O 0.26565 0.21583 0.90248 0.0
O120 O 0.23985 0.21454 0.89965 0.0
O121 O 0.43697 0.37054 0.2162 0.0
Cd122 Cd 0.46156 0.35695 0.22326 0.0
O123 O 0.44508 0.37523 0.19195 0.0
Cd124 Cd 0.44256 0.38544 0.16826 0.0
O125 O 0.4357 0.39346 0.1447 0.0
C126 C 0.44552 0.39936 0.1349 0.0
O127 O 0.4604 0.40088 0.13902 0.0
C128 C 0.43436 0.37623 0.20255 0.0
C129 C 0.45569 0.32603 0.23314 0.0
O130 O 0.45441 0.33761 0.24272 0.0
O131 O 0.45984 0.32903 0.21886 0.0
O132 O 0.41983 0.1909 0.31445 0.0
Cd133 Cd 0.42695 0.18677 0.28675 0.0
O134 O 0.44186 0.18113 0.32426 0.0
Cd135 Cd 0.44783 0.16999 0.30183 0.0
O136 O 0.44496 0.14817 0.28862 0.0
C137 C 0.43211 0.14096 0.29157 0.0
O138 O 0.42181 0.14749 0.30128 0.0
C139 C 0.42865 0.18814 0.32626 0.0
C140 C 0.43326 0.21588 0.27251 0.0
O141 O 0.41909 0.21065 0.27362 0.0
O142 O 0.44453 0.20723 0.27788 0.0
O143 O 0.42322 0.80125 0.48221 0.0
Cd144 Cd 0.44787 0.81501 0.4878 0.0
O145 O 0.42799 0.78002 0.49659 0.0
Cd146 Cd 0.44872 0.78852 0.50909 0.0
O147 O 0.45472 0.78638 0.53405 0.0
C148 C 0.45224 0.7728 0.53998 0.0
O149 O 0.44786 0.76139 0.53057 0.0
C150 C 0.41926 0.78756 0.48696 0.0
C151 C 0.4465 0.84515 0.47431 0.0
O152 O 0.45054 0.8331 0.46612 0.0
O153 O 0.44339 0.84304 0.48899 0.0
O154 O 0.25685 0.98257 0.8089 0.0
Cd155 Cd 0.24755 0.98616 0.78184 0.0
O156 O 0.23458 0.99101 0.81964 0.0
Cd157 Cd 0.2269 0.00125 0.79728 0.0
O158 O 0.22825 0.02145 0.78125 0.0
C159 C 0.22107 0.03405 0.78523 0.0
O160 O 0.21221 0.03393 0.79804 0.0
C161 C 0.2483 0.98491 0.8211 0.0
C162 C 0.24226 0.95683 0.76809 0.0
O163 O 0.25561 0.96379 0.76647 0.0
O164 O 0.23135 0.96383 0.77604 0.0
O165 O 0.26067 0.38324 0.93873 0.0
Cd166 Cd 0.23602 0.37103 0.93029 0.0
O167 O 0.25185 0.3852 0.96306 0.0
Cd168 Cd 0.25371 0.39255 0.98769 0.0
O169 O 0.25667 0.39977 0.01218 0.0
C170 C 0.25548 0.41421 0.01601 0.0
O171 O 0.25234 0.42477 0.00504 0.0
C172 C 0.26289 0.38722 0.95296 0.0
C173 C 0.23979 0.33855 0.92609 0.0
O174 O 0.24334 0.34838 0.91508 0.0
O175 O 0.2344 0.34406 0.93913 0.0
O176 O 0.38368 0.41096 0.98167 0.0
Cd177 Cd 0.41187 0.41494 0.98678 0.0
O178 O 0.37656 0.43589 0.9835 0.0
Cd179 Cd 0.39887 0.44081 -0.00473 0.0
O180 O 0.41201 0.43696 0.01709 0.0
C181 C 0.40757 0.4249 0.02491 0.0
O182 O 0.39637 0.41604 0.01905 0.0
C183 C 0.37314 0.42167 0.98035 0.0
C184 C 0.42821 0.42061 0.95855 0.0
O185 O 0.42491 0.40655 0.96305 0.0
O186 O 0.42395 0.43206 0.96745 0.0
O187 O 0.86733 0.25985 0.1867 0.0
Cd188 Cd 0.8945 0.24988 0.18426 0.0
O189 O 0.85758 0.23706 0.17939 0.0
Cd190 Cd 0.87994 0.23034 0.16811 0.0
O191 O 0.89512 0.23243 0.14719 0.0
C192 C 0.88999 0.22665 0.13442 0.0
O193 O 0.8766 0.21884 0.13476 0.0
C194 C 0.8555 0.25083 0.18494 0.0
C195 C 0.90747 0.24548 0.21419 0.0
O196 O 0.91083 0.25773 0.20592 0.0
O197 O 0.89818 0.23525 0.20826 0.0
O198 O 0.80799 0.72526 0.23814 0.0
Cd199 Cd 0.82482 0.72194 0.21476 0.0
O200 O 0.80261 0.70041 0.23451 0.0
Cd201 Cd 0.79387 0.67664 0.2396 0.0
O202 O 0.7867 0.65214 0.24295 0.0
C203 C 0.77303 0.64866 0.24824 0.0
O204 O 0.76305 0.66008 0.2518 0.0
C205 C 0.80081 0.71288 0.24264 0.0
C206 C 0.85557 0.73285 0.21907 0.0
O207 O 0.84534 0.74118 0.21157 0.0
O208 O 0.85127 0.71944 0.22461 0.0
O209 O 0.78432 0.91161 0.70552 0.0
Cd210 Cd 0.75699 0.92109 0.70372 0.0
O211 O 0.79503 0.93347 0.69649 0.0
Cd212 Cd 0.77257 0.94148 0.68658 0.0
O213 O 0.75966 0.94173 0.66433 0.0
C214 C 0.76745 0.94652 0.65235 0.0
O215 O 0.78185 0.95187 0.6544 0.0
C216 C 0.79656 0.91983 0.70263 0.0
C217 C 0.74637 0.92836 0.73407 0.0
O218 O 0.74561 0.91427 0.72876 0.0
O219 O 0.75179 0.93915 0.72488 0.0
O220 O 0.3892 0.94792 0.25221 0.0
Cd221 Cd 0.37685 0.94553 0.22636 0.0
O222 O 0.38972 0.97346 0.24814 0.0
Cd223 Cd 0.39546 -0.00208 0.25386 0.0
O224 O 0.39999 0.02289 0.25814 0.0
C225 C 0.41389 0.02778 0.26089 0.0
O226 O 0.42567 0.01758 0.26125 0.0
C227 C 0.39247 0.96165 0.25707 0.0
C228 C 0.34518 0.93643 0.22888 0.0
O229 O 0.35625 0.92618 0.22693 0.0
O230 O 0.34909 0.95099 0.22964 0.0
O231 O 0.29634 0.76219 0.47891 0.0
Cd232 Cd 0.26802 0.75664 0.48075 0.0
O233 O 0.30358 0.73742 0.48198 0.0
Cd234 Cd 0.28053 0.73197 0.49239 0.0
O235 O 0.26795 0.73399 0.51492 0.0
C236 C 0.27601 0.73009 0.52695 0.0
O237 O 0.29037 0.72437 0.52479 0.0
C238 C 0.30713 0.75165 0.47879 0.0
C239 C 0.25762 0.74823 0.45084 0.0
O240 O 0.25822 0.76272 0.45501 0.0
O241 O 0.26156 0.73765 0.46097 0.0
O242 O 0.78811 0.46531 0.43804 0.0
Cd243 Cd 0.802 0.46124 0.46295 0.0
O244 O 0.78255 0.4901 0.44317 0.0
Cd245 Cd 0.77446 0.51395 0.43682 0.0
O246 O 0.76943 0.53803 0.42871 0.0
C247 C 0.75821 0.54631 0.43447 0.0
O248 O 0.74918 0.54024 0.44561 0.0
C249 C 0.78177 0.47834 0.43397 0.0
C250 C 0.83308 0.45084 0.45788 0.0
O251 O 0.82149 0.44115 0.45802 0.0
O252 O 0.83001 0.46548 0.46019 0.0
O253 O 0.88778 0.71996 0.92034 0.0
Cd254 Cd 0.87608 0.72044 0.94681 0.0
O255 O 0.88942 0.69425 0.92282 0.0
Cd256 Cd 0.89646 0.67057 0.91519 0.0
O257 O 0.90331 0.6466 0.90849 0.0
C258 C 0.91014 0.63746 0.9183 0.0
O259 O 0.91311 0.64265 0.93253 0.0
C260 C 0.8915 0.70665 0.91454 0.0
C261 C 0.84432 0.72987 0.9464 0.0
O262 O 0.85538 0.73989 0.94853 0.0
O263 O 0.84827 0.71538 0.94445 0.0
O264 O 0.48234 0.85619 0.92185 0.0
Cd265 Cd 0.48544 0.88441 0.92672 0.0
O266 O 0.48393 0.84889 0.94673 0.0
Cd267 Cd 0.49425 0.87168 0.95236 0.0
O268 O 0.51549 0.88605 0.9496 0.0
C269 C 0.52449 0.88176 0.93831 0.0
O270 O 0.52004 0.86992 0.92948 0.0
C271 C 0.48135 0.84548 0.93239 0.0
C272 C 0.45574 0.89805 0.93236 0.0
O273 O 0.46105 0.89622 0.91829 0.0
O274 O 0.46458 0.89366 0.94383 0.0
O275 O 0.4893 0.41651 0.80848 0.0
Cd276 Cd 0.49649 0.43968 0.8238 0.0
O277 O 0.50295 0.42306 0.7872 0.0
Cd278 Cd 0.51682 0.44215 0.79716 0.0
O279 O 0.54193 0.44795 0.79472 0.0
C280 C 0.54679 0.45293 0.78137 0.0
O281 O 0.53632 0.45598 0.77035 0.0
C282 C 0.49331 0.41391 0.79424 0.0
C283 C 0.4823 0.43791 0.85363 0.0
O284 O 0.47462 0.44309 0.84167 0.0
O285 O 0.4968 0.43379 0.85158 0.0
O286 O 0.19551 0.31717 0.42703 0.0
Cd287 Cd 0.19096 0.29142 0.4394 0.0
O288 O 0.18398 0.32972 0.44669 0.0
Cd289 Cd 0.1717 0.30853 0.45471 0.0
O290 O 0.15013 0.29471 0.45204 0.0
C291 C 0.14439 0.29503 0.43822 0.0
O292 O 0.1521 0.30271 0.42708 0.0
C293 C 0.19205 0.33003 0.43396 0.0
C294 C 0.21976 0.27569 0.44392 0.0
O295 O 0.21092 0.27235 0.4322 0.0
O296 O 0.21494 0.28629 0.45355 0.0
O297 O 0.22489 0.73693 0.29221 0.0
Cd298 Cd 0.23139 0.7125 0.30621 0.0
O299 O 0.20016 0.72987 0.28917 0.0
Cd300 Cd 0.17593 0.73286 0.28052 0.0
O301 O 0.1516 0.73758 0.27319 0.0
C302 C 0.14883 0.74645 0.26137 0.0
O303 O 0.16082 0.75258 0.25354 0.0
C304 C 0.21103 0.74006 0.28731 0.0
C305 C 0.23655 0.71886 0.338 0.0
O306 O 0.24768 0.72027 0.32773 0.0
O307 O 0.22298 0.71422 0.33329 0.0
O308 O 0.48033 0.2966 0.75206 0.0
Cd309 Cd 0.48317 0.27043 0.74037 0.0
O310 O 0.48368 0.30812 0.72897 0.0
Cd311 Cd 0.49509 0.28695 0.7196 0.0
O312 O 0.51782 0.27496 0.72305 0.0
C313 C 0.52477 0.27938 0.7355 0.0
O314 O 0.51759 0.28973 0.7446 0.0
C315 C 0.48013 0.30903 0.74355 0.0
C316 C 0.45334 0.25838 0.73365 0.0
O317 O 0.46 0.2684 0.72442 0.0
O318 O 0.46084 0.25385 0.74598 0.0
O319 O 0.22614 0.43853 0.37527 0.0
Cd320 Cd 0.22857 0.46303 0.36011 0.0
O321 O 0.20085 0.44387 0.37765 0.0
Cd322 Cd 0.17593 0.43943 0.38349 0.0
O323 O 0.15088 0.43524 0.38856 0.0
C324 C 0.14621 0.43132 0.40232 0.0
O325 O 0.15668 0.4298 0.41363 0.0
C326 C 0.21253 0.43473 0.38049 0.0
C327 C 0.23822 0.45767 0.32903 0.0
O328 O 0.24834 0.46053 0.33982 0.0
O329 O 0.22353 0.45731 0.33296 0.0
O330 O 0.20296 0.86109 0.24919 0.0
Cd331 Cd 0.20099 0.88902 0.24208 0.0
O332 O 0.17823 0.85528 0.24373 0.0
Cd333 Cd 0.16991 0.8794 0.23967 0.0
O334 O 0.14991 0.89579 0.24151 0.0
C335 C 0.13789 0.89306 0.23304 0.0
O336 O 0.13862 0.88142 0.2229 0.0
C337 C 0.19199 0.85097 0.24803 0.0
C338 C 0.23143 0.90138 0.23848 0.0
O339 O 0.22396 0.90242 0.25165 0.0
O340 O 0.22441 0.89475 0.22695 0.0
O341 O 0.44824 0.73019 0.89389 0.0
Cd342 Cd 0.44384 0.70515 0.88058 0.0
O343 O 0.47361 0.72464 0.89309 0.0
Cd344 Cd 0.49867 0.72892 0.89784 0.0
O345 O 0.52382 0.73298 0.90196 0.0
C346 C 0.52854 0.73762 0.91534 0.0
O347 O 0.51808 0.73992 0.92667 0.0
C348 C 0.46243 0.73416 0.89662 0.0
C349 C 0.43754 0.71045 0.84871 0.0
O350 O 0.42625 0.70904 0.85881 0.0
O351 O 0.4518 0.70919 0.85366 0.0
O352 O 0.9262 0.4849 0.85805 0.0
Cd353 Cd 0.93039 0.48661 0.88651 0.0
O354 O 0.95105 0.48884 0.85123 0.0
Cd355 Cd 0.95549 0.49842 0.87458 0.0
O356 O 0.9505 0.51979 0.88805 0.0
C357 C 0.9375 0.52652 0.8845 0.0
O358 O 0.92832 0.51981 0.87409 0.0
C359 C 0.93695 0.48542 0.84745 0.0
C360 C 0.93507 0.45647 0.89923 0.0
O361 O 0.9211 0.4621 0.89723 0.0
O362 O 0.94688 0.46516 0.8954 0.0
O363 O 0.74191 0.29463 0.22213 0.0
Cd364 Cd 0.71649 0.30633 0.22981 0.0
O365 O 0.73551 0.29464 0.19708 0.0
Cd366 Cd 0.73982 0.28857 0.17233 0.0
O367 O 0.74421 0.28176 0.14784 0.0
C368 C 0.75165 0.26905 0.14474 0.0
O369 O 0.75665 0.26014 0.15646 0.0
C370 C 0.7455 0.29168 0.20786 0.0
C371 C 0.71974 0.33783 0.23857 0.0
O372 O 0.72215 0.32659 0.24847 0.0
O373 O 0.71574 0.3342 0.22451 0.0
O374 O 0.75473 0.70538 0.36117 0.0
Cd375 Cd 0.74435 0.70116 0.3879 0.0
O376 O 0.73486 0.69331 0.34987 0.0
Cd377 Cd 0.72735 0.6822 0.37199 0.0
O378 O 0.72819 0.66155 0.38758 0.0
C379 C 0.74189 0.65639 0.39113 0.0
O380 O 0.75435 0.66424 0.38614 0.0
C381 C 0.74743 0.70145 0.34875 0.0
C382 C 0.73818 0.7301 0.40243 0.0
O383 O 0.75154 0.72304 0.40415 0.0
O384 O 0.72769 0.7234 0.39398 0.0
O385 O 0.91608 0.87507 0.69457 0.0
Cd386 Cd 0.94097 0.86248 0.68649 0.0
O387 O 0.9032 0.86127 0.677 0.0
Cd388 Cd 0.92403 0.85686 0.66221 0.0
O389 O 0.93193 0.86404 0.63865 0.0
C390 C 0.93661 0.87813 0.63657 0.0
O391 O 0.93812 0.88726 0.64893 0.0
C392 C 0.90306 0.87046 0.68879 0.0
C393 C 0.94188 0.83173 0.69863 0.0
O394 O 0.94761 0.84328 0.70637 0.0
O395 O 0.93599 0.83468 0.68503 0.0
O396 O 0.92246 0.69797 0.79146 0.0
Cd397 Cd 0.93049 0.69436 0.76388 0.0
O398 O 0.94612 0.69239 0.80073 0.0
Cd399 Cd 0.95287 0.68118 0.77855 0.0
O400 O 0.95036 0.65914 0.7656 0.0
C401 C 0.93782 0.65155 0.76895 0.0
O402 O 0.92762 0.65781 0.77893 0.0
C403 C 0.93196 0.69713 0.80301 0.0
C404 C 0.9339 0.72347 0.74856 0.0
O405 O 0.92068 0.71613 0.74849 0.0
O406 O 0.94556 0.717 0.75579 0.0
O407 O 0.93227 0.30027 0.95324 0.0
Cd408 Cd 0.95722 0.31358 0.94719 0.0
O409 O 0.93946 0.29504 0.97753 0.0
Cd410 Cd 0.93613 0.28692 0.00196 0.0
O411 O 0.93119 0.27781 0.02569 0.0
C412 C 0.92935 0.26309 0.02798 0.0
O413 O 0.93059 0.25349 0.01592 0.0
C414 C 0.92921 0.29414 0.96663 0.0
C415 C 0.95229 0.34473 0.93739 0.0
O416 O 0.95142 0.33329 0.92764 0.0
O417 O 0.9555 0.34147 0.95181 0.0
O418 O 0.73854 0.47902 0.31482 0.0
Cd419 Cd 0.73345 0.4808 0.28651 0.0
O420 O 0.73329 0.50397 0.31982 0.0
Cd421 Cd 0.72931 0.5116 0.29555 0.0
O422 O 0.73318 0.53187 0.28002 0.0
C423 C 0.74722 0.53719 0.27992 0.0
O424 O 0.75812 0.52956 0.28796 0.0
C425 C 0.7373 0.49028 0.32459 0.0
C426 C 0.73058 0.45057 0.27396 0.0
O427 O 0.74417 0.45699 0.27552 0.0
O428 O 0.71829 0.45852 0.27815 0.0
O429 O 0.74041 0.8818 0.46405 0.0
Cd430 Cd 0.71515 0.86804 0.46198 0.0
O431 O 0.73452 0.88866 0.48831 0.0
Cd432 Cd 0.73879 0.90039 0.51085 0.0
O433 O 0.74482 0.9102 0.53381 0.0
C434 C 0.73432 0.91617 0.54284 0.0
O435 O 0.71952 0.9166 0.53817 0.0
C436 C 0.74427 0.88856 0.47678 0.0
C437 C 0.71936 0.83789 0.44943 0.0
O438 O 0.71619 0.84975 0.44051 0.0
O439 O 0.72046 0.84028 0.46429 0.0
O440 O 0.86749 0.91813 0.47392 0.0
Cd441 Cd 0.89631 0.92048 0.47441 0.0
O442 O 0.86339 0.9261 0.49826 0.0
Cd443 Cd 0.88842 0.92623 0.50465 0.0
O444 O 0.90644 0.91966 0.5219 0.0
C445 C 0.907 0.92757 0.53457 0.0
O446 O 0.89772 0.93998 0.53605 0.0
C447 C 0.85799 0.92164 0.48508 0.0
C448 C 0.90724 0.9273 0.44398 0.0
O449 O 0.90515 0.91303 0.44859 0.0
O450 O 0.90445 0.93837 0.45387 0.0
O451 O 0.37525 0.75502 0.70571 0.0
Cd452 Cd 0.40293 0.74635 0.70525 0.0
O453 O 0.37097 0.74807 0.68116 0.0
Cd454 Cd 0.39577 0.74362 0.67499 0.0
O455 O 0.41448 0.74612 0.65718 0.0
C456 C 0.41589 0.75975 0.65101 0.0
O457 O 0.407 0.77131 0.65644 0.0
C458 C 0.36581 0.75335 0.69424 0.0
C459 C 0.41229 0.73746 0.73556 0.0
O460 O 0.41479 0.75144 0.73031 0.0
O461 O 0.40556 0.72763 0.7264 0.0
O462 O 0.29535 0.21409 0.73471 0.0
Cd463 Cd 0.31067 0.21098 0.71035 0.0
O464 O 0.28936 0.18922 0.73203 0.0
Cd465 Cd 0.28077 0.16578 0.73873 0.0
O466 O 0.27174 0.14238 0.7446 0.0
C467 C 0.25691 0.13988 0.74511 0.0
O468 O 0.24709 0.15159 0.74211 0.0
C469 C 0.28848 0.20185 0.74005 0.0
C470 C 0.34187 0.22066 0.71445 0.0
O471 O 0.33177 0.22966 0.70756 0.0
O472 O 0.33727 0.20708 0.71929 0.0
O473 O 0.31544 0.42186 0.19094 0.0
Cd474 Cd 0.28835 0.43162 0.18767 0.0
O475 O 0.32351 0.42871 0.16713 0.0
Cd476 Cd 0.30023 0.43507 0.15795 0.0
O477 O 0.28471 0.43439 0.13747 0.0
C478 C 0.28827 0.44303 0.12567 0.0
O479 O 0.30021 0.4528 0.12684 0.0
C480 C 0.32647 0.42303 0.18071 0.0
C481 C 0.27532 0.4382 0.2173 0.0
O482 O 0.27332 0.42474 0.21084 0.0
O483 O 0.28323 0.44862 0.20963 0.0
O484 O 0.89959 0.45777 0.73119 0.0
Cd485 Cd 0.88568 0.45117 0.70698 0.0
O486 O 0.89855 0.48313 0.72588 0.0
Cd487 Cd 0.90335 0.50804 0.7306 0.0
O488 O 0.90737 0.53311 0.73492 0.0
C489 C 0.9212 0.53824 0.73763 0.0
O490 O 0.93316 0.52824 0.73783 0.0
C491 C 0.90239 0.4719 0.73515 0.0
C492 C 0.85451 0.44284 0.71424 0.0
O493 O 0.86576 0.43263 0.71474 0.0
O494 O 0.85794 0.45698 0.71007 0.0
O495 O 0.8096 0.25276 0.98497 0.0
Cd496 Cd 0.78351 0.24076 0.98833 0.0
O497 O 0.82157 0.23209 -0.00463 0.0
Cd498 Cd 0.79986 0.22462 0.00731 0.0
O499 O 0.7857 0.22781 0.02876 0.0
C500 C 0.78447 0.24196 0.03353 0.0
O501 O 0.79078 0.25325 0.02491 0.0
C502 C 0.8223 0.24522 0.98805 0.0
C503 C 0.76938 0.23698 0.95892 0.0
O504 O 0.76547 0.24854 0.96784 0.0
O505 O 0.77977 0.22713 0.96396 0.0
O506 O 0.30007 0.95332 0.93296 0.0
Cd507 Cd 0.31335 0.94759 0.95789 0.0
O508 O 0.29632 0.97821 0.93889 0.0
Cd509 Cd 0.28998 0.00301 0.93457 0.0
O510 O 0.28457 0.02799 0.93052 0.0
C511 C 0.27117 0.03238 0.92526 0.0
O512 O 0.26045 0.02167 0.92225 0.0
C513 C 0.29477 0.9669 0.92923 0.0
C514 C 0.34448 0.93742 0.95272 0.0
O515 O 0.33288 0.92777 0.95212 0.0
O516 O 0.3414 0.9519 0.95584 0.0
O517 O 0.37281 0.21017 0.43926 0.0
Cd518 Cd 0.35544 0.20715 0.46228 0.0
O519 O 0.37795 0.18501 0.44201 0.0
Cd520 Cd 0.38634 0.16131 0.43575 0.0
O521 O 0.39275 0.13674 0.43108 0.0
C522 C 0.40711 0.13217 0.43043 0.0
O523 O 0.41842 0.1425 0.4325 0.0
C524 C 0.37985 0.19783 0.43433 0.0
C525 C 0.3262 0.22213 0.45817 0.0
O526 O 0.33719 0.22866 0.46612 0.0
O527 O 0.32902 0.20857 0.45215 0.0
H528 H 0.92033 0.41275 0.41813 0.0
H529 H 0.93172 0.42243 0.46669 0.0
H530 H 0.89351 0.42297 0.4225 0.0
H531 H 0.90493 0.43291 0.47094 0.0
H532 H 0.86064 0.4661 0.46452 0.0
H533 H 0.88778 0.45665 0.46005 0.0
H534 H 0.86971 0.41367 0.44022 0.0
H535 H 0.8426 0.42294 0.44491 0.0
C536 C 0.91715 0.41716 0.4297 0.0
C537 C 0.92812 0.41676 0.44208 0.0
C538 C 0.90179 0.42294 0.4322 0.0
C539 C 0.89719 0.42869 0.44705 0.0
C540 C 0.90823 0.42861 0.45935 0.0
C541 C 0.92351 0.42256 0.45693 0.0
C542 C 0.86247 0.45464 0.45921 0.0
C543 C 0.8495 0.44525 0.45508 0.0
C544 C 0.87798 0.44922 0.45672 0.0
C545 C 0.88079 0.43446 0.44977 0.0
C546 C 0.86784 0.42515 0.4455 0.0
C547 C 0.85235 0.43043 0.44825 0.0
H548 H 0.90843 0.90714 0.41902 0.0
H549 H 0.91712 0.95557 0.43179 0.0
H550 H 0.91534 0.91328 0.39166 0.0
H551 H 0.92411 0.96165 0.40438 0.0
H552 H 0.95145 0.96038 0.35641 0.0
H553 H 0.94547 0.95432 0.38406 0.0
H554 H 0.90302 0.93019 0.37004 0.0
H555 H 0.9089 0.93629 0.34244 0.0
C556 C 0.91191 0.91907 0.41602 0.0
C557 C 0.9122 0.93088 0.42757 0.0
C558 C 0.91578 0.92259 0.40034 0.0
C559 C 0.9202 0.93795 0.39591 0.0
C560 C 0.92083 0.94969 0.4075 0.0
C561 C 0.91677 0.94621 0.42316 0.0
C562 C 0.94083 0.9538 0.35924 0.0
C563 C 0.93064 0.94882 0.34725 0.0
C564 C 0.93739 0.95039 0.37506 0.0
C565 C 0.92382 0.94175 0.37917 0.0
C566 C 0.91365 0.93674 0.36719 0.0
C567 C 0.91697 0.94032 0.3514 0.0
H568 H 0.75165 0.76983 0.96823 0.0
H569 H 0.74596 0.74871 0.92239 0.0
H570 H 0.77914 0.76076 0.96877 0.0
H571 H 0.77349 0.73967 0.92296 0.0
H572 H 0.81857 0.71239 0.93823 0.0
H573 H 0.79079 0.72069 0.93804 0.0
H574 H 0.80423 0.76694 0.95403 0.0
H575 H 0.83198 0.75867 0.95424 0.0
C576 C 0.75624 0.7632 0.9583 0.0
C577 C 0.74662 0.76002 0.94525 0.0
C578 C 0.77201 0.75809 0.95857 0.0
C579 C 0.77848 0.74955 0.94589 0.0
C580 C 0.7688 0.74613 0.93296 0.0
C581 C 0.75306 0.75137 0.93261 0.0
C582 C 0.81559 0.72432 0.94171 0.0
C583 C 0.82748 0.73487 0.94626 0.0
C584 C 0.7997 0.72909 0.94153 0.0
C585 C 0.79534 0.74445 0.94604 0.0
C586 C 0.80721 0.75497 0.95065 0.0
C587 C 0.82311 0.75026 0.95068 0.0
H588 H 0.7437 0.20713 0.86416 0.0
H589 H 0.71705 0.25008 0.87154 0.0
H590 H 0.75429 0.20886 0.89069 0.0
H591 H 0.72849 0.25263 0.89762 0.0
H592 H 0.74029 0.24697 0.9491 0.0
H593 H 0.72867 0.24396 0.92313 0.0
H594 H 0.77174 0.22108 0.90682 0.0
H595 H 0.7827 0.22308 0.93315 0.0
C596 C 0.7403 0.21708 0.87143 0.0
C597 C 0.72954 0.22845 0.86583 0.0
C598 C 0.74646 0.21818 0.88664 0.0
C599 C 0.74237 0.23094 0.89649 0.0
C600 C 0.73171 0.24242 0.89068 0.0
C601 C 0.72522 0.24106 0.87563 0.0
C602 C 0.74719 0.24123 0.93994 0.0
C603 C 0.76235 0.23521 0.94313 0.0
C604 C 0.7406 0.2396 0.92495 0.0
C605 C 0.74922 0.23231 0.91265 0.0
C606 C 0.76451 0.22643 0.91594 0.0
C607 C 0.77089 0.22768 0.93104 0.0
H608 H 0.87555 0.72621 0.24331 0.0
H609 H 0.8724 0.75211 0.19948 0.0
H610 H 0.90232 0.73586 0.24706 0.0
H611 H 0.89959 0.76081 0.20241 0.0
H612 H 0.94313 0.78663 0.21827 0.0
H613 H 0.9162 0.77737 0.21504 0.0
H614 H 0.92836 0.73424 0.23994 0.0
H615 H 0.95494 0.74426 0.24418 0.0
C616 C 0.88072 0.73383 0.23437 0.0
C617 C 0.87192 0.73849 0.22116 0.0
C618 C 0.89616 0.73927 0.23641 0.0
C619 C 0.90335 0.74917 0.22504 0.0
C620 C 0.89449 0.75357 0.21167 0.0
C621 C 0.87889 0.74849 0.20988 0.0
C622 C 0.93999 0.77517 0.22303 0.0
C623 C 0.95108 0.76617 0.23149 0.0
C624 C 0.92454 0.76975 0.22109 0.0
C625 C 0.9199 0.75496 0.22716 0.0
C626 C 0.93122 0.74584 0.23538 0.0
C627 C 0.94655 0.75149 0.23771 0.0
H628 H 0.74907 0.93507 0.83515 0.0
H629 H 0.7068 0.96166 0.8237 0.0
H630 H 0.7532 0.92931 0.80721 0.0
H631 H 0.71117 0.9561 0.79566 0.0
H632 H 0.73986 0.9572 0.74699 0.0
H633 H 0.73387 0.96304 0.77468 0.0
H634 H 0.73708 0.91343 0.78607 0.0
H635 H 0.74276 0.90752 0.75842 0.0
C636 C 0.74071 0.93975 0.82666 0.0
C637 C 0.72761 0.94881 0.8316 0.0
C638 C 0.74303 0.93638 0.8107 0.0
C639 C 0.73247 0.94224 0.79934 0.0
C640 C 0.71949 0.95149 0.80422 0.0
C641 C 0.71698 0.95462 0.82023 0.0
C642 C 0.73915 0.94754 0.75539 0.0
C643 C 0.7418 0.93191 0.75055 0.0
C644 C 0.73567 0.95088 0.77119 0.0
C645 C 0.7351 0.93868 0.78246 0.0
C646 C 0.73756 0.92305 0.7776 0.0
C647 C 0.74074 0.91968 0.76177 0.0
H648 H 0.82728 0.4598 0.70928 0.0
H649 H 0.8447 0.41611 0.72941 0.0
H650 H 0.80032 0.45283 0.71737 0.0
H651 H 0.81779 0.40927 0.73759 0.0
H652 H 0.77093 0.41332 0.76603 0.0
H653 H 0.79759 0.42045 0.75731 0.0
H654 H 0.77978 0.4315 0.71092 0.0
H655 H 0.75307 0.42423 0.71957 0.0
C656 C 0.82535 0.44871 0.7154 0.0
C657 C 0.83811 0.4385 0.71871 0.0
C658 C 0.80992 0.44471 0.71996 0.0
C659 C 0.807 0.43055 0.72815 0.0
C660 C 0.81974 0.42033 0.73142 0.0
C661 C 0.83512 0.42421 0.72666 0.0
C662 C 0.77268 0.4173 0.75398 0.0
C663 C 0.7599 0.41819 0.74348 0.0
C664 C 0.78795 0.4213 0.74898 0.0
C665 C 0.79074 0.42648 0.73343 0.0
C666 C 0.77794 0.42762 0.72299 0.0
C667 C 0.76268 0.4234 0.72793 0.0
H668 H 0.89411 0.22952 0.2388 0.0
H669 H 0.9353 0.25658 0.22568 0.0
H670 H 0.90417 0.22655 0.26545 0.0
H671 H 0.94611 0.25265 0.25194 0.0
H672 H 0.95601 0.25554 0.30402 0.0
H673 H 0.94495 0.25952 0.27788 0.0
H674 H 0.92186 0.21416 0.28149 0.0
H675 H 0.93199 0.21094 0.30808 0.0
C676 C 0.90547 0.23463 0.2416 0.0
C677 C 0.91392 0.24329 0.23021 0.0
C678 C 0.91135 0.23284 0.25688 0.0
C679 C 0.92607 0.23929 0.26104 0.0
C680 C 0.93459 0.24779 0.24945 0.0
C681 C 0.92848 0.24995 0.2343 0.0
C682 C 0.94849 0.2465 0.2992 0.0
C683 C 0.94481 0.23297 0.30807 0.0
C684 C 0.94223 0.24868 0.28411 0.0
C685 C 0.93248 0.23715 0.27733 0.0
C686 C 0.92897 0.22352 0.28629 0.0
C687 C 0.93488 0.22157 0.30154 0.0
H688 H 0.44177 0.85192 0.44324 0.0
H689 H 0.44757 0.87393 0.48864 0.0
H690 H 0.43783 0.87791 0.43108 0.0
H691 H 0.44407 0.89997 0.47629 0.0
H692 H 0.45565 0.94192 0.43953 0.0
H693 H 0.46028 0.91625 0.45229 0.0
H694 H 0.41456 0.90045 0.43677 0.0
H695 H 0.40967 0.92619 0.42441 0.0
C696 C 0.44238 0.86231 0.45058 0.0
C697 C 0.44496 0.86091 0.46689 0.0
C698 C 0.44006 0.87713 0.44363 0.0
C699 C 0.44065 0.89084 0.45279 0.0
C700 C 0.44362 0.88952 0.46901 0.0
C701 C 0.44557 0.87466 0.47605 0.0
C702 C 0.44658 0.93298 0.43889 0.0
C703 C 0.43229 0.93604 0.431 0.0
C704 C 0.44922 0.91836 0.44623 0.0
C705 C 0.43778 0.90646 0.44543 0.0
C706 C 0.42356 0.90946 0.43746 0.0
C707 C 0.42076 0.92418 0.43046 0.0
H708 H 0.26191 0.94023 0.74837 0.0
H709 H 0.21668 0.93764 0.77245 0.0
H710 H 0.25795 0.91381 0.73789 0.0
H711 H 0.21272 0.91125 0.76188 0.0
H712 H 0.2214 0.85775 0.75561 0.0
H713 H 0.22472 0.88453 0.76539 0.0
H714 H 0.24043 0.8997 0.71916 0.0
H715 H 0.23719 0.8729 0.70935 0.0
C716 C 0.2511 0.93406 0.75137 0.0
C717 C 0.23962 0.94103 0.76127 0.0
C718 C 0.2488 0.91896 0.7453 0.0
C719 C 0.23504 0.91045 0.74909 0.0
C720 C 0.22352 0.91746 0.75889 0.0
C721 C 0.22576 0.93261 0.76487 0.0
C722 C 0.22554 0.8668 0.74752 0.0
C723 C 0.22904 0.86319 0.73171 0.0
C724 C 0.22736 0.88215 0.75311 0.0
C725 C 0.23283 0.89421 0.74304 0.0
C726 C 0.23633 0.89061 0.72723 0.0
C727 C 0.23439 0.87528 0.7216 0.0
H728 H 0.27556 0.24413 0.90672 0.0
H729 H 0.22495 0.23846 0.91197 0.0
H730 H 0.27281 0.27208 0.91306 0.0
H731 H 0.22228 0.26643 0.91845 0.0
H732 H 0.22763 0.3145 0.94405 0.0
H733 H 0.23079 0.28611 0.93982 0.0
H734 H 0.25986 0.29545 0.89874 0.0
H735 H 0.25662 0.32376 0.90283 0.0
C736 C 0.26387 0.2488 0.90939 0.0
C737 C 0.25046 0.2391 0.90878 0.0
C738 C 0.26231 0.26482 0.91293 0.0
C739 C 0.24733 0.27142 0.91617 0.0
C740 C 0.23398 0.26162 0.91609 0.0
C741 C 0.23551 0.24564 0.91232 0.0
C742 C 0.23472 0.31049 0.93414 0.0
C743 C 0.24186 0.32137 0.92376 0.0
C744 C 0.23646 0.29425 0.93169 0.0
C745 C 0.24559 0.2886 0.91898 0.0
C746 C 0.25288 0.29948 0.90872 0.0
C747 C 0.25094 0.31569 0.91102 0.0
H748 H 0.46432 0.29851 0.21866 0.0
H749 H 0.43957 0.31669 0.25955 0.0
H750 H 0.45888 0.27153 0.2276 0.0
H751 H 0.43396 0.28976 0.26829 0.0
H752 H 0.41208 0.23979 0.26743 0.0
H753 H 0.4175 0.26635 0.25746 0.0
H754 H 0.46698 0.25424 0.25209 0.0
H755 H 0.46165 0.2277 0.2623 0.0
C756 C 0.45768 0.29675 0.22951 0.0
C757 C 0.45238 0.30971 0.23842 0.0
C758 C 0.45464 0.28133 0.23464 0.0
C759 C 0.44598 0.27861 0.2486 0.0
C760 C 0.44056 0.29156 0.25742 0.0
C761 C 0.44385 0.30695 0.25246 0.0
C762 C 0.4241 0.24275 0.26405 0.0
C763 C 0.43645 0.23167 0.26569 0.0
C764 C 0.4272 0.25797 0.25842 0.0
C765 C 0.44265 0.26232 0.25406 0.0
C766 C 0.45494 0.25114 0.25531 0.0
C767 C 0.4519 0.23599 0.26121 0.0
H768 H 0.49624 0.43696 0.88262 0.0
H769 H 0.45073 0.43506 0.85979 0.0
H770 H 0.48318 0.43344 0.90836 0.0
H771 H 0.43783 0.43106 0.88547 0.0
H772 H 0.4292 0.40146 0.93289 0.0
H773 H 0.44229 0.40642 0.90749 0.0
H774 H 0.45928 0.45097 0.92458 0.0
H775 H 0.44576 0.4463 0.94992 0.0
C776 C 0.48348 0.4358 0.88311 0.0
C777 C 0.47449 0.43629 0.86922 0.0
C778 C 0.47604 0.43384 0.8978 0.0
C779 C 0.45956 0.43196 0.89879 0.0
C780 C 0.45057 0.43245 0.88494 0.0
C781 C 0.45795 0.43479 0.8703 0.0
C782 C 0.43573 0.41231 0.93124 0.0
C783 C 0.43646 0.4235 0.94336 0.0
C784 C 0.44315 0.41515 0.91672 0.0
C785 C 0.45174 0.42906 0.91418 0.0
C786 C 0.45273 0.44015 0.92634 0.0
C787 C 0.44497 0.43749 0.94076 0.0
H788 H 0.24806 0.91939 0.25918 0.0
H789 H 0.25195 0.89659 0.21386 0.0
H790 H 0.27548 0.92819 0.25669 0.0
H791 H 0.27934 0.90538 0.21142 0.0
H792 H 0.33273 0.90739 0.22311 0.0
H793 H 0.30505 0.89942 0.2252 0.0
H794 H 0.29198 0.94651 0.23969 0.0
H795 H 0.31967 0.95454 0.23758 0.0
C796 C 0.25474 0.91631 0.24867 0.0
C797 C 0.24783 0.90727 0.23673 0.0
C798 C 0.27041 0.92141 0.24722 0.0
C799 C 0.27956 0.91743 0.23389 0.0
C800 C 0.27262 0.90849 0.2219 0.0
C801 C 0.2569 0.90354 0.22327 0.0
C802 C 0.32396 0.91605 0.22674 0.0
C803 C 0.3284 0.9316 0.23017 0.0
C804 C 0.3081 0.9115 0.22785 0.0
C805 C 0.29636 0.92235 0.23258 0.0
C806 C 0.3008 0.93787 0.23612 0.0
C807 C 0.31664 0.94247 0.23484 0.0
H808 H 0.21816 0.71112 0.36358 0.0
H809 H 0.26097 0.73561 0.35019 0.0
H810 H 0.22252 0.71813 0.39119 0.0
H811 H 0.26516 0.74275 0.37769 0.0
H812 H 0.25578 0.76761 0.42512 0.0
H813 H 0.25023 0.76029 0.39792 0.0
H814 H 0.24392 0.71186 0.41253 0.0
H815 H 0.24967 0.7191 0.43979 0.0
C816 C 0.22848 0.71799 0.36653 0.0
C817 C 0.23923 0.72281 0.35473 0.0
C818 C 0.23099 0.72194 0.38231 0.0
C819 C 0.24413 0.73103 0.38652 0.0
C820 C 0.25485 0.73586 0.37472 0.0
C821 C 0.2525 0.73169 0.35901 0.0
C822 C 0.2531 0.75542 0.42257 0.0
C823 C 0.2532 0.74392 0.43459 0.0
C824 C 0.25002 0.75123 0.40699 0.0
C825 C 0.24672 0.73551 0.40315 0.0
C826 C 0.24636 0.72407 0.41521 0.0
C827 C 0.2497 0.72822 0.43077 0.0
H828 H 0.44354 0.90961 0.95998 0.0
H829 H 0.43166 0.90124 0.91128 0.0
H830 H 0.41669 0.91965 0.96485 0.0
H831 H 0.40481 0.91106 0.91625 0.0
H832 H 0.35414 0.9101 0.93867 0.0
H833 H 0.38128 0.90116 0.93359 0.0
H834 H 0.39915 0.94335 0.9552 0.0
H835 H 0.37197 0.95246 0.9601 0.0
C836 C 0.43522 0.90994 0.95033 0.0
C837 C 0.4397 0.90463 0.93525 0.0
C838 C 0.4199 0.91574 0.9531 0.0
C839 C 0.4087 0.91607 0.94093 0.0
C840 C 0.41319 0.91082 0.92586 0.0
C841 C 0.42858 0.90528 0.92301 0.0
C842 C 0.36385 0.91747 0.94233 0.0
C843 C 0.36093 0.93198 0.94977 0.0
C844 C 0.37936 0.91239 0.93935 0.0
C845 C 0.39227 0.92159 0.94399 0.0
C846 C 0.38939 0.93602 0.95158 0.0
C847 C 0.37385 0.94124 0.95431 0.0
H848 H 0.24569 0.28711 0.45877 0.0
H849 H 0.22869 0.24637 0.43399 0.0
H850 H 0.27146 0.27453 0.46173 0.0
H851 H 0.25406 0.23316 0.43791 0.0
H852 H 0.30548 0.21843 0.43403 0.0
H853 H 0.28007 0.2316 0.43031 0.0
H854 H 0.28601 0.25578 0.47468 0.0
H855 H 0.31191 0.24343 0.47764 0.0
C856 C 0.24743 0.27533 0.45416 0.0
C857 C 0.23522 0.26772 0.44613 0.0
C858 C 0.2622 0.26801 0.45596 0.0
C859 C 0.26501 0.2527 0.45013 0.0
C860 C 0.2526 0.24505 0.44228 0.0
C861 C 0.23796 0.25256 0.44013 0.0
C862 C 0.30132 0.22662 0.44293 0.0
C863 C 0.31066 0.22996 0.45609 0.0
C864 C 0.28666 0.23411 0.44089 0.0
C865 C 0.28078 0.24482 0.4522 0.0
C866 C 0.29016 0.24795 0.46549 0.0
C867 C 0.305 0.24077 0.46729 0.0
H868 H 0.42966 0.27375 0.71824 0.0
H869 H 0.4409 0.22984 0.74171 0.0
H870 H 0.4028 0.26476 0.71382 0.0
H871 H 0.41444 0.22015 0.73625 0.0
H872 H 0.36158 0.21224 0.73834 0.0
H873 H 0.38833 0.22144 0.74301 0.0
H874 H 0.38638 0.24904 0.69989 0.0
H875 H 0.35916 0.24073 0.69608 0.0
C876 C 0.42641 0.26203 0.72221 0.0
C877 C 0.4373 0.2525 0.73035 0.0
C878 C 0.41101 0.25677 0.71957 0.0
C879 C 0.40625 0.24163 0.72461 0.0
C880 C 0.41739 0.23201 0.73249 0.0
C881 C 0.43265 0.23748 0.73552 0.0
C882 C 0.36692 0.22031 0.72991 0.0
C883 C 0.35831 0.22583 0.71689 0.0
C884 C 0.38235 0.22551 0.73249 0.0
C885 C 0.38974 0.23603 0.72184 0.0
C886 C 0.3811 0.24128 0.70862 0.0
C887 C 0.36551 0.23642 0.70631 0.0
H888 H 0.2202 0.44778 0.30436 0.0
H889 H 0.26784 0.46135 0.31637 0.0
H890 H 0.22869 0.44337 0.27712 0.0
H891 H 0.27629 0.4569 0.28916 0.0
H892 H 0.28102 0.46391 0.23563 0.0
H893 H 0.2717 0.46877 0.26249 0.0
H894 H 0.24636 0.4247 0.26222 0.0
H895 H 0.25564 0.41981 0.23532 0.0
C896 C 0.23247 0.44982 0.3012 0.0
C897 C 0.24334 0.45493 0.31253 0.0
C898 C 0.23734 0.44723 0.28562 0.0
C899 C 0.25314 0.44982 0.28101 0.0
C900 C 0.26399 0.45497 0.29233 0.0
C901 C 0.25916 0.45743 0.30793 0.0
C902 C 0.2734 0.45529 0.24126 0.0
C903 C 0.26909 0.44146 0.23334 0.0
C904 C 0.26814 0.45803 0.25668 0.0
C905 C 0.25835 0.44709 0.26448 0.0
C906 C 0.2538 0.4334 0.25647 0.0
C907 C 0.25917 0.43058 0.24109 0.0
H908 H 0.40907 0.70886 0.83372 0.0
H909 H 0.45848 0.71948 0.82566 0.0
H910 H 0.40348 0.71487 0.8061 0.0
H911 H 0.45282 0.72555 0.79805 0.0
H912 H 0.43076 0.75375 0.75609 0.0
H913 H 0.43726 0.74663 0.78327 0.0
H914 H 0.41018 0.70387 0.77907 0.0
H915 H 0.40371 0.71091 0.75187 0.0
C916 C 0.41874 0.71243 0.82605 0.0
C917 C 0.43421 0.7137 0.83188 0.0
C918 C 0.41554 0.71579 0.81022 0.0
C919 C 0.42772 0.72068 0.79994 0.0
C920 C 0.44319 0.72192 0.80575 0.0
C921 C 0.44643 0.71837 0.82153 0.0
C922 C 0.42625 0.74279 0.76094 0.0
C923 C 0.41671 0.7329 0.75184 0.0
C924 C 0.43004 0.73869 0.77647 0.0
C925 C 0.4242 0.72472 0.78328 0.0
C926 C 0.41473 0.71478 0.77415 0.0
C927 C 0.41111 0.71878 0.75856 0.0
H928 H 0.96014 0.3718 0.95277 0.0
H929 H 0.93851 0.35491 0.91012 0.0
H930 H 0.95596 0.39903 0.94388 0.0
H931 H 0.93417 0.38212 0.90138 0.0
H932 H 0.91328 0.43292 0.90153 0.0
H933 H 0.9174 0.40593 0.91104 0.0
H934 H 0.96632 0.41644 0.92065 0.0
H935 H 0.9623 0.44342 0.91095 0.0
C936 C 0.95445 0.3739 0.94154 0.0
C937 C 0.94966 0.36122 0.93213 0.0
C938 C 0.95213 0.38946 0.93643 0.0
C939 C 0.94473 0.39265 0.92196 0.0
C940 C 0.9398 0.37998 0.91264 0.0
C941 C 0.94236 0.36443 0.91761 0.0
C942 C 0.9249 0.4295 0.90572 0.0
C943 C 0.93747 0.44029 0.90547 0.0
C944 C 0.92727 0.41404 0.91108 0.0
C945 C 0.94218 0.40912 0.91654 0.0
C946 C 0.95469 0.41997 0.91658 0.0
C947 C 0.95239 0.43537 0.91097 0.0
H948 H 0.75402 0.42846 0.27077 0.0
H949 H 0.70391 0.43591 0.26354 0.0
H950 H 0.75151 0.40126 0.26179 0.0
H951 H 0.70149 0.40873 0.25439 0.0
H952 H 0.70908 0.36419 0.22309 0.0
H953 H 0.71179 0.39171 0.23113 0.0
H954 H 0.73721 0.37663 0.27261 0.0
H955 H 0.73437 0.34913 0.26473 0.0
C956 C 0.7425 0.42433 0.26717 0.0
C957 C 0.72915 0.43432 0.2679 0.0
C958 C 0.74106 0.40875 0.2621 0.0
C959 C 0.7263 0.40291 0.25743 0.0
C960 C 0.71302 0.41298 0.25784 0.0
C961 C 0.7144 0.42849 0.26314 0.0
C962 C 0.71526 0.36675 0.23392 0.0
C963 C 0.7215 0.3545 0.24329 0.0
C964 C 0.71674 0.38248 0.23854 0.0
C965 C 0.72473 0.38627 0.25247 0.0
C966 C 0.73111 0.37403 0.26175 0.0
C967 C 0.7294 0.3583 0.25727 0.0
H968 H 0.72936 0.81118 0.46476 0.0
H969 H 0.71483 0.8285 0.41901 0.0
H970 H 0.73357 0.78495 0.45369 0.0
H971 H 0.71913 0.80229 0.40797 0.0
H972 H 0.7125 0.74947 0.39823 0.0
H973 H 0.70767 0.77535 0.40984 0.0
H974 H 0.75201 0.77185 0.43471 0.0
H975 H 0.75683 0.74593 0.42319 0.0
C976 C 0.72705 0.8094 0.45235 0.0
C977 C 0.72176 0.82193 0.44276 0.0
C978 C 0.72955 0.79439 0.446 0.0
C979 C 0.72669 0.79156 0.42996 0.0
C980 C 0.72128 0.80406 0.42041 0.0
C981 C 0.71891 0.8191 0.42672 0.0
C982 C 0.7212 0.75419 0.40621 0.0
C983 C 0.73506 0.74564 0.40977 0.0
C984 C 0.71847 0.76906 0.41279 0.0
C985 C 0.72947 0.77565 0.42317 0.0
C986 C 0.74324 0.76702 0.42687 0.0
C987 C 0.74603 0.7522 0.4202 0.0
H988 H 0.91166 0.73969 0.73154 0.0
H989 H 0.95994 0.74253 0.74779 0.0
H990 H 0.91419 0.76559 0.71915 0.0
H991 H 0.96252 0.76837 0.73519 0.0
H992 H 0.9539 0.82166 0.72686 0.0
H993 H 0.95236 0.79532 0.7385 0.0
H994 H 0.92789 0.77883 0.69728 0.0
H995 H 0.92922 0.80522 0.68572 0.0
C996 C 0.92285 0.7458 0.7324 0.0
C997 C 0.93559 0.73904 0.74068 0.0
C998 C 0.92433 0.76061 0.72521 0.0
C999 C 0.93857 0.76905 0.72617 0.0
C1000 C 0.95134 0.76226 0.73438 0.0
C1001 C 0.94988 0.74741 0.74153 0.0
C1002 C 0.94825 0.81241 0.72024 0.0
C1003 C 0.94165 0.81556 0.70537 0.0
C1004 C 0.94745 0.79728 0.72688 0.0
C1005 C 0.93996 0.78498 0.71884 0.0
C1006 C 0.93354 0.7881 0.70387 0.0
C1007 C 0.9344 0.8032 0.69721 0.0
H1008 H 0.0034 0.33323 0.42978 0.0
H1009 H 0.95421 0.34454 0.42112 0.0
H1010 H -0.00055 0.30692 0.41946 0.0
H1011 H 0.95015 0.31795 0.41114 0.0
H1012 H 0.95674 0.27892 0.37346 0.0
H1013 H 0.95771 0.30375 0.38774 0.0
H1014 H 0.98713 0.28168 0.4232 0.0
H1015 H 0.98614 0.25687 0.40882 0.0
C1016 C 0.99165 0.33002 0.42593 0.0
C1017 C 0.97916 0.34108 0.42614 0.0
C1018 C 0.98936 0.31485 0.42009 0.0
C1019 C 0.97451 0.31032 0.41436 0.0
C1020 C 0.96182 0.32114 0.41521 0.0
C1021 C 0.96412 0.33636 0.42103 0.0
C1022 C 0.96328 0.27935 0.38439 0.0
C1023 C 0.97175 0.2661 0.38979 0.0
C1024 C 0.96377 0.29356 0.39263 0.0
C1025 C 0.97264 0.29478 0.40655 0.0
C1026 C 0.9805 0.28126 0.41233 0.0
C1027 C 0.98004 0.26707 0.40404 0.0
H1028 H 0.98837 0.85069 0.22393 0.0
H1029 H 0.98988 0.83276 0.27174 0.0
H1030 H 0.98128 0.87685 0.23389 0.0
H1031 H 0.98297 0.85895 0.28162 0.0
H1032 H 0.98954 0.91197 0.29226 0.0
H1033 H -0.00328 0.88616 0.28152 0.0
H1034 H 0.95749 0.88928 0.24927 0.0
H1035 H 0.95032 0.91516 0.26002 0.0
C1036 C 0.98718 0.85233 0.23655 0.0
C1037 C 0.98969 0.83967 0.24706 0.0
C1038 C 0.98307 0.86727 0.24222 0.0
C1039 C 0.98166 0.86989 0.25851 0.0
C1040 C 0.98414 0.85725 0.26901 0.0
C1041 C 0.98799 0.84226 0.26334 0.0
C1042 C 0.98266 0.90728 0.28266 0.0
C1043 C 0.96956 0.91565 0.27675 0.0
C1044 C 0.98663 0.89244 0.27668 0.0
C1045 C 0.97765 0.88577 0.26457 0.0
C1046 C 0.96467 0.89423 0.25852 0.0
C1047 C 0.96055 0.90897 0.26468 0.0
H1048 H 0.71571 0.83063 0.92686 0.0
H1049 H 0.66681 0.83983 0.93949 0.0
H1050 H 0.71852 0.85798 0.91823 0.0
H1051 H 0.66972 0.86718 0.93108 0.0
H1052 H 0.67609 0.90772 0.89487 0.0
H1053 H 0.67316 0.88131 0.90594 0.0
H1054 H 0.71892 0.88517 0.92798 0.0
H1055 H 0.72172 0.91176 0.91706 0.0
C1056 C 0.70561 0.8385 0.92794 0.0
C1057 C 0.69102 0.833 0.93379 0.0
C1058 C 0.70724 0.85421 0.92307 0.0
C1059 C 0.69432 0.86473 0.92391 0.0
C1060 C 0.67984 0.85931 0.93007 0.0
C1061 C 0.67821 0.84364 0.93497 0.0
C1062 C 0.68527 0.90317 0.90252 0.0
C1063 C 0.69892 0.912 0.90547 0.0
C1064 C 0.68367 0.88796 0.90874 0.0
C1065 C 0.69577 0.88117 0.91791 0.0
C1066 C 0.70944 0.89002 0.92086 0.0
C1067 C 0.71101 0.90525 0.91467 0.0
H1068 H 0.72661 0.26816 0.78293 0.0
H1069 H 0.6767 0.27441 0.7925 0.0
H1070 H 0.72762 0.29463 0.77131 0.0
H1071 H 0.67762 0.30071 0.781 0.0
H1072 H 0.68049 0.34356 0.75018 0.0
H1073 H 0.68091 0.31562 0.75704 0.0
H1074 H 0.72595 0.32158 0.78004 0.0
H1075 H 0.72576 0.34942 0.77279 0.0
C1076 C 0.71582 0.27513 0.78236 0.0
C1077 C 0.70149 0.26906 0.78824 0.0
C1078 C 0.7164 0.2903 0.77578 0.0
C1079 C 0.70268 0.29979 0.77511 0.0
C1080 C 0.68833 0.29361 0.78092 0.0
C1081 C 0.68776 0.27845 0.78743 0.0
C1082 C 0.69059 0.33888 0.75653 0.0
C1083 C 0.70303 0.34878 0.76106 0.0
C1084 C 0.69078 0.32287 0.76055 0.0
C1085 C 0.70337 0.31637 0.76926 0.0
C1086 C 0.71613 0.32613 0.7732 0.0
C1087 C 0.71598 0.34214 0.76911 0.0
H1088 H 0.44828 0.96853 0.34322 0.0
H1089 H 0.3993 0.97471 0.35727 0.0
H1090 H 0.43999 0.96496 0.31585 0.0
H1091 H 0.39116 0.97131 0.33001 0.0
H1092 H 0.38566 0.98512 0.27787 0.0
H1093 H 0.39531 0.98786 0.30478 0.0
H1094 H 0.423 0.94519 0.29953 0.0
H1095 H 0.41337 0.94249 0.27247 0.0
C1096 C 0.43577 0.96902 0.3405 0.0
C1097 C 0.42446 0.97194 0.35242 0.0
C1098 C 0.43105 0.96695 0.32486 0.0
C1099 C 0.41496 0.96801 0.32084 0.0
C1100 C 0.40366 0.97063 0.33278 0.0
C1101 C 0.40834 0.97247 0.3484 0.0
C1102 C 0.39408 0.97653 0.28233 0.0
C1103 C 0.39899 0.96375 0.27302 0.0
C1104 C 0.39943 0.97798 0.29779 0.0
C1105 C 0.40988 0.96672 0.30421 0.0
C1106 C 0.41503 0.95408 0.29481 0.0
C1107 C 0.40949 0.95251 0.2794 0.0
H1108 H 0.27393 0.79438 0.67555 0.0
H1109 H 0.27013 0.78082 0.72457 0.0
H1110 H 0.30042 0.78294 0.67424 0.0
H1111 H 0.29672 0.76927 0.72332 0.0
H1112 H 0.35127 0.76811 0.71916 0.0
H1113 H 0.32393 0.77743 0.72091 0.0
H1114 H 0.31473 0.75828 0.6748 0.0
H1115 H 0.34213 0.74934 0.67287 0.0
C1116 C 0.27858 0.78853 0.68592 0.0
C1117 C 0.26981 0.78813 0.70004 0.0
C1118 C 0.29383 0.78205 0.68521 0.0
C1119 C 0.30068 0.77507 0.69865 0.0
C1120 C 0.29187 0.77468 0.71279 0.0
C1121 C 0.27662 0.78122 0.7135 0.0
C1122 C 0.34339 0.76581 0.70944 0.0
C1123 C 0.34893 0.75807 0.69583 0.0
C1124 C 0.32768 0.77108 0.71047 0.0
C1125 C 0.31714 0.76868 0.69796 0.0
C1126 C 0.32259 0.76058 0.68454 0.0
C1127 C 0.3383 0.75537 0.68347 0.0
H1128 H 0.29511 0.22157 0.76424 0.0
H1129 H 0.26416 0.18348 0.75151 0.0
H1130 H 0.28454 0.2209 0.79101 0.0
H1131 H 0.25452 0.18186 0.77856 0.0
H1132 H 0.23198 0.18895 0.82649 0.0
H1133 H 0.23944 0.19355 0.79899 0.0
H1134 H 0.28705 0.20469 0.81347 0.0
H1135 H 0.27941 0.20075 0.84085 0.0
C1136 C 0.28611 0.21297 0.76718 0.0
C1137 C 0.28095 0.20214 0.75588 0.0
C1138 C 0.28015 0.21247 0.78259 0.0
C1139 C 0.26893 0.20108 0.78712 0.0
C1140 C 0.26319 0.19077 0.77558 0.0
C1141 C 0.26902 0.19141 0.7601 0.0
C1142 C 0.24399 0.19254 0.82378 0.0
C1143 C 0.2551 0.19446 0.83586 0.0
C1144 C 0.24831 0.19508 0.808 0.0
C1145 C 0.26388 0.19945 0.80394 0.0
C1146 C 0.27488 0.20162 0.8161 0.0
C1147 C 0.27052 0.19925 0.83185 0.0
H1148 H 0.33692 0.40903 0.20797 0.0
H1149 H 0.35271 0.42395 0.16162 0.0
H1150 H 0.36322 0.39828 0.21327 0.0
H1151 H 0.37905 0.41348 0.16707 0.0
H1152 H 0.41723 0.37536 0.17535 0.0
H1153 H 0.3916 0.38769 0.17025 0.0
H1154 H 0.39057 0.40594 0.21772 0.0
H1155 H 0.41634 0.39367 0.22273 0.0
C1156 C 0.34602 0.41015 0.19897 0.0
C1157 C 0.34267 0.41729 0.18434 0.0
C1158 C 0.36113 0.40406 0.20204 0.0
C1159 C 0.37322 0.40497 0.19057 0.0
C1160 C 0.36993 0.41237 0.17606 0.0
C1161 C 0.35485 0.41846 0.17299 0.0
C1162 C 0.41176 0.38239 0.18453 0.0
C1163 C 0.41899 0.38394 0.19928 0.0
C1164 C 0.397 0.38935 0.18166 0.0
C1165 C 0.38908 0.3979 0.19355 0.0
C1166 C 0.39629 0.39934 0.20836 0.0
C1167 C 0.41106 0.39238 0.21121 0.0
H1168 H 0.39941 0.19911 0.33495 0.0
H1169 H 0.44493 0.1858 0.35406 0.0
H1170 H 0.38905 0.20285 0.36144 0.0
H1171 H 0.43469 0.19011 0.38068 0.0
H1172 H 0.40462 0.17876 0.42489 0.0
H1173 H 0.41713 0.17783 0.39897 0.0
H1174 H 0.38952 0.21847 0.38446 0.0
H1175 H 0.37619 0.21859 0.41002 0.0
C1176 C 0.40731 0.19725 0.3448 0.0
C1177 C 0.42298 0.19205 0.34236 0.0
C1178 C 0.40138 0.19949 0.36005 0.0
C1179 C 0.411 0.19673 0.37327 0.0
C1180 C 0.42686 0.19208 0.3708 0.0
C1181 C 0.43276 0.18971 0.35552 0.0
C1182 C 0.40093 0.18723 0.41606 0.0
C1183 C 0.38891 0.1983 0.4193 0.0
C1184 C 0.4084 0.18696 0.40127 0.0
C1185 C 0.40419 0.19794 0.38948 0.0
C1186 C 0.39279 0.20958 0.39309 0.0
C1187 C 0.38524 0.20974 0.40781 0.0
H1188 H 0.3978 0.79963 0.46588 0.0
H1189 H 0.40571 0.76031 0.49764 0.0
H1190 H 0.37125 0.78995 0.46056 0.0
H1191 H 0.37911 0.75097 0.49274 0.0
H1192 H 0.33303 0.73215 0.4761 0.0
H1193 H 0.36081 0.73981 0.47474 0.0
H1194 H 0.34682 0.78896 0.47491 0.0
H1195 H 0.31916 0.78132 0.47572 0.0
C1196 C 0.39394 0.78886 0.47163 0.0
C1197 C 0.40384 0.78083 0.4823 0.0
C1198 C 0.37868 0.78336 0.46865 0.0
C1199 C 0.37295 0.76975 0.47632 0.0
C1200 C 0.38314 0.76137 0.48645 0.0
C1201 C 0.3984 0.76681 0.48936 0.0
C1202 C 0.3359 0.7446 0.47561 0.0
C1203 C 0.32387 0.75614 0.47617 0.0
C1204 C 0.35183 0.74898 0.47491 0.0
C1205 C 0.35609 0.765 0.47487 0.0
C1206 C 0.34401 0.7765 0.47473 0.0
C1207 C 0.3281 0.77213 0.47531 0.0
H1208 H 0.2325 0.98578 0.84942 0.0
H1209 H 0.27845 0.97601 0.82874 0.0
H1210 H 0.24327 0.9809 0.87561 0.0
H1211 H 0.28932 0.97166 0.85488 0.0
H1212 H 0.30091 0.95039 0.90252 0.0
H1213 H 0.28908 0.95383 0.87663 0.0
H1214 H 0.26048 0.99234 0.89453 0.0
H1215 H 0.27155 0.98811 0.92067 0.0
C1216 C 0.2449 0.9826 0.85046 0.0
C1217 C 0.25461 0.98127 0.83698 0.0
C1218 C 0.25111 0.97992 0.86549 0.0
C1219 C 0.26719 0.97594 0.8674 0.0
C1220 C 0.27683 0.97447 0.85388 0.0
C1221 C 0.27061 0.97704 0.83886 0.0
C1222 C 0.29207 0.95957 0.90093 0.0
C1223 C 0.28754 0.96932 0.91355 0.0
C1224 C 0.28538 0.96164 0.88604 0.0
C1225 C 0.27397 0.9735 0.8834 0.0
C1226 C 0.26922 0.98307 0.89612 0.0
C1227 C 0.27585 0.98091 0.91105 0.0
H1228 H 0.36024 0.39231 0.98033 0.0
H1229 H 0.34904 0.44123 0.97058 0.0
H1230 H 0.33311 0.38506 0.97419 0.0
H1231 H 0.32181 0.43382 0.96423 0.0
H1232 H 0.28153 0.40734 0.93608 0.0
H1233 H 0.30804 0.41665 0.94284 0.0
H1234 H 0.30573 0.39052 0.98666 0.0
H1235 H 0.27933 0.38118 0.97988 0.0
C1236 C 0.35202 0.40152 0.97679 0.0
C1237 C 0.3568 0.41736 0.97594 0.0
C1238 C 0.33646 0.39736 0.97339 0.0
C1239 C 0.32537 0.4089 0.96885 0.0
C1240 C 0.33016 0.42471 0.96769 0.0
C1241 C 0.34571 0.42893 0.97135 0.0
C1242 C 0.28665 0.40376 0.94723 0.0
C1243 C 0.27831 0.39376 0.95758 0.0
C1244 C 0.30175 0.40913 0.95112 0.0
C1245 C 0.30889 0.4043 0.96526 0.0
C1246 C 0.30048 0.3944 0.97567 0.0
C1247 C 0.2853 0.38923 0.97189 0.0
H1248 H 0.7618 0.26944 0.22445 0.0
H1249 H 0.7648 0.29918 0.18303 0.0
H1250 H 0.78842 0.25907 0.21886 0.0
H1251 H 0.79142 0.28888 0.17749 0.0
H1252 H 0.84537 0.28133 0.18782 0.0
H1253 H 0.81839 0.29076 0.19296 0.0
H1254 H 0.80211 0.24268 0.19588 0.0
H1255 H 0.82904 0.23317 0.19046 0.0
C1256 C 0.76812 0.27365 0.2141 0.0
C1257 C 0.76119 0.28492 0.20403 0.0
C1258 C 0.78328 0.2677 0.21089 0.0
C1259 C 0.79191 0.2732 0.19776 0.0
C1260 C 0.78499 0.28449 0.1877 0.0
C1261 C 0.76972 0.29023 0.19076 0.0
C1262 C 0.83606 0.27277 0.18961 0.0
C1263 C 0.83932 0.25651 0.18873 0.0
C1264 C 0.82062 0.27817 0.19244 0.0
C1265 C 0.80822 0.26743 0.19474 0.0
C1266 C 0.8115 0.25118 0.19418 0.0
C1267 C 0.82688 0.24577 0.19104 0.0
H1268 H 0.77708 0.71226 0.34175 0.0
H1269 H 0.73288 0.69944 0.32011 0.0
H1270 H 0.78892 0.71621 0.31581 0.0
H1271 H 0.7445 0.70406 0.29411 0.0
H1272 H 0.77585 0.69389 0.25108 0.0
H1273 H 0.76264 0.69226 0.27658 0.0
H1274 H 0.78998 0.73185 0.29279 0.0
H1275 H 0.8041 0.73256 0.26764 0.0
C1276 C 0.76979 0.71056 0.33145 0.0
C1277 C 0.75407 0.70542 0.333 0.0
C1278 C 0.77656 0.71292 0.31653 0.0
C1279 C 0.76772 0.71039 0.30278 0.0
C1280 C 0.75179 0.70581 0.30439 0.0
C1281 C 0.74508 0.70326 0.31931 0.0
C1282 C 0.77937 0.70194 0.26022 0.0
C1283 C 0.79151 0.71289 0.25754 0.0
C1284 C 0.77149 0.70129 0.27476 0.0
C1285 C 0.77533 0.71181 0.2869 0.0
C1286 C 0.78695 0.72329 0.2839 0.0
C1287 C 0.79495 0.72381 0.26941 0.0
H1288 H 0.89783 0.8961 0.70772 0.0
H1289 H 0.87363 0.85891 0.68321 0.0
H1290 H 0.87225 0.90806 0.71467 0.0
H1291 H 0.84824 0.87082 0.69009 0.0
H1292 H 0.80407 0.88987 0.71226 0.0
H1293 H 0.83019 0.87744 0.71246 0.0
H1294 H 0.85137 0.9216 0.69835 0.0
H1295 H 0.82528 0.93412 0.69822 0.0
C1296 C 0.88707 0.89034 0.70405 0.0
C1297 C 0.88775 0.87663 0.69482 0.0
C1298 C 0.87245 0.89723 0.70795 0.0
C1299 C 0.85826 0.8904 0.70289 0.0
C1300 C 0.85895 0.87628 0.69432 0.0
C1301 C 0.87352 0.86951 0.69028 0.0
C1302 C 0.81431 0.89702 0.70945 0.0
C1303 C 0.81255 0.91295 0.70502 0.0
C1304 C 0.82926 0.88987 0.70953 0.0
C1305 C 0.8428 0.89851 0.70528 0.0
C1306 C 0.84117 0.91466 0.70178 0.0
C1307 C 0.82619 0.9218 0.70161 0.0
H1308 H 0.75559 0.49579 0.42598 0.0
H1309 H 0.79037 0.4634 0.40698 0.0
H1310 H 0.74331 0.49806 0.4001 0.0
H1311 H 0.77824 0.4657 0.38107 0.0
H1312 H 0.74576 0.46264 0.33933 0.0
H1313 H 0.75512 0.45919 0.36627 0.0
H1314 H 0.74862 0.50909 0.37446 0.0
H1315 H 0.73884 0.51246 0.34776 0.0
C1316 C 0.76079 0.48941 0.41619 0.0
C1317 C 0.77417 0.47974 0.41838 0.0
C1318 C 0.75369 0.4906 0.40138 0.0
C1319 C 0.75981 0.48211 0.38846 0.0
C1320 C 0.77306 0.47224 0.39078 0.0
C1321 C 0.78009 0.471 0.4056 0.0
C1322 C 0.74616 0.47284 0.34694 0.0
C1323 C 0.74162 0.48783 0.34134 0.0
C1324 C 0.75164 0.47089 0.36236 0.0
C1325 C 0.75277 0.48389 0.37251 0.0
C1326 C 0.74775 0.49879 0.36705 0.0
C1327 C 0.74221 0.50073 0.35167 0.0
H1328 H 0.90132 0.69886 0.81332 0.0
H1329 H 0.94961 0.70255 0.82938 0.0
H1330 H 0.8918 0.70169 0.84043 0.0
H1331 H 0.93997 0.70562 0.85651 0.0
H1332 H 0.9121 0.72682 0.90012 0.0
H1333 H 0.92224 0.72559 0.87294 0.0
H1334 H 0.89496 0.68349 0.86522 0.0
H1335 H 0.88492 0.68468 0.89231 0.0
C1336 C 0.90989 0.70049 0.82259 0.0
C1337 C 0.92622 0.70043 0.81921 0.0
C1338 C 0.90444 0.70201 0.83811 0.0
C1339 C 0.91517 0.70377 0.85053 0.0
C1340 C 0.93147 0.70432 0.84712 0.0
C1341 C 0.93696 0.70252 0.83161 0.0
C1342 C 0.90838 0.71727 0.89261 0.0
C1343 C 0.89796 0.70569 0.89835 0.0
C1344 C 0.91419 0.71655 0.87712 0.0
C1345 C 0.90936 0.70445 0.86703 0.0
C1346 C 0.89883 0.69296 0.87276 0.0
C1347 C 0.89325 0.69353 0.8883 0.0
H1348 H 0.48699 0.75358 0.8892 0.0
H1349 H 0.44489 0.75045 0.91825 0.0
H1350 H 0.4916 0.78022 0.89878 0.0
H1351 H 0.44937 0.77731 0.9277 0.0
H1352 H 0.47403 0.82036 0.95163 0.0
H1353 H 0.46964 0.79298 0.9438 0.0
H1354 H 0.47688 0.80609 0.895 0.0
H1355 H 0.48117 0.83334 0.90271 0.0
C1356 C 0.47894 0.75844 0.89793 0.0
C1357 C 0.46576 0.74984 0.90323 0.0
C1358 C 0.48143 0.77378 0.90322 0.0
C1359 C 0.47082 0.78082 0.91396 0.0
C1360 C 0.4578 0.77211 0.91952 0.0
C1361 C 0.45521 0.7568 0.91407 0.0
C1362 C 0.47462 0.8174 0.93923 0.0
C1363 C 0.47797 0.82903 0.92779 0.0
C1364 C 0.47206 0.80175 0.93476 0.0
C1365 C 0.47305 0.79742 0.91881 0.0
C1366 C 0.47626 0.80907 0.9074 0.0
C1367 C 0.47861 0.8247 0.91182 0.0
H1368 H 0.47283 0.3913 0.80536 0.0
H1369 H 0.50121 0.40403 0.76463 0.0
H1370 H 0.46585 0.36653 0.79271 0.0
H1371 H 0.49468 0.37924 0.75229 0.0
H1372 H 0.4754 0.33733 0.72861 0.0
H1373 H 0.47494 0.36344 0.74044 0.0
H1374 H 0.47916 0.34222 0.78672 0.0
H1375 H 0.47906 0.31613 0.77494 0.0
C1376 C 0.47748 0.38889 0.79367 0.0
C1377 C 0.48768 0.39961 0.78607 0.0
C1378 C 0.47354 0.37465 0.78646 0.0
C1379 C 0.47975 0.37082 0.7715 0.0
C1380 C 0.48946 0.38185 0.76369 0.0
C1381 C 0.49333 0.39606 0.77085 0.0
C1382 C 0.47595 0.33824 0.74133 0.0
C1383 C 0.47747 0.32466 0.75082 0.0
C1384 C 0.47578 0.35321 0.74812 0.0
C1385 C 0.47727 0.35497 0.76452 0.0
C1386 C 0.47786 0.34134 0.77407 0.0
C1387 C 0.47789 0.32635 0.76729 0.0
H1388 H 0.19061 0.35918 0.44752 0.0
H1389 H 0.20381 0.33557 0.40431 0.0
H1390 H 0.19674 0.38454 0.43536 0.0
H1391 H 0.20935 0.36094 0.39194 0.0
H1392 H 0.23025 0.40796 0.37757 0.0
H1393 H 0.22673 0.38285 0.39129 0.0
H1394 H 0.18637 0.40227 0.41638 0.0
H1395 H 0.19071 0.42761 0.40354 0.0
C1396 C 0.19482 0.3594 0.43541 0.0
C1397 C 0.19668 0.34535 0.42687 0.0
C1398 C 0.19822 0.37397 0.42839 0.0
C1399 C 0.20342 0.37485 0.41261 0.0
C1400 C 0.20558 0.36074 0.40418 0.0
C1401 C 0.20232 0.34616 0.41125 0.0
C1402 C 0.22068 0.40686 0.38609 0.0
C1403 C 0.21042 0.41963 0.38908 0.0
C1404 C 0.21857 0.39242 0.39385 0.0
C1405 C 0.20613 0.39041 0.40482 0.0
C1406 C 0.19611 0.40335 0.40806 0.0
C1407 C 0.19833 0.41781 0.40039 0.0
H1408 H 0.21931 0.83777 0.25948 0.0
H1409 H 0.1715 0.82621 0.24605 0.0
H1410 H 0.2237 0.81053 0.26778 0.0
H1411 H 0.17604 0.79891 0.25403 0.0
H1412 H 0.18407 0.758 0.28946 0.0
H1413 H 0.17946 0.78422 0.27845 0.0
H1414 H 0.22659 0.78381 0.25816 0.0
H1415 H 0.23111 0.75747 0.26915 0.0
C1416 C 0.20979 0.82939 0.25814 0.0
C1417 C 0.19503 0.83421 0.25218 0.0
C1418 C 0.21234 0.81374 0.26281 0.0
C1419 C 0.2002 0.80254 0.26161 0.0
C1420 C 0.18556 0.80729 0.25533 0.0
C1421 C 0.183 0.82294 0.25068 0.0
C1422 C 0.19324 0.76327 0.28221 0.0
C1423 C 0.2078 0.75552 0.27983 0.0
C1424 C 0.19066 0.77838 0.27601 0.0
C1425 C 0.20265 0.78611 0.26739 0.0
C1426 C 0.21717 0.77826 0.26489 0.0
C1427 C 0.21973 0.76316 0.27111 0.0
H1428 H 0.92477 0.45449 0.75044 0.0
H1429 H 0.89493 0.49576 0.75533 0.0
H1430 H 0.93418 0.45798 0.77745 0.0
H1431 H 0.90441 0.49931 0.7822 0.0
H1432 H 0.90741 0.48499 0.83479 0.0
H1433 H 0.90032 0.48251 0.80712 0.0
H1434 H 0.94975 0.47798 0.79446 0.0
H1435 H 0.95697 0.48061 0.82226 0.0
C1436 C 0.92045 0.46445 0.7572 0.0
C1437 C 0.90933 0.47501 0.75072 0.0
C1438 C 0.92587 0.46647 0.7726 0.0
C1439 C 0.91999 0.47889 0.78189 0.0
C1440 C 0.90909 0.48961 0.77529 0.0
C1441 C 0.90385 0.48772 0.75984 0.0
C1442 C 0.91679 0.4834 0.82615 0.0
C1443 C 0.93276 0.48301 0.83073 0.0
C1444 C 0.91272 0.48211 0.81029 0.0
C1445 C 0.9245 0.4802 0.79867 0.0
C1446 C 0.94046 0.47944 0.80322 0.0
C1447 C 0.94457 0.48097 0.8191 0.0
H1448 H 0.90144 0.30094 0.95199 0.0
H1449 H 0.922 0.2695 0.98656 0.0
H1450 H 0.87578 0.28857 0.95604 0.0
H1451 H 0.89615 0.25804 0.99169 0.0
H1452 H 0.85101 0.23014 0.98718 0.0
H1453 H 0.8768 0.24148 0.98119 0.0
H1454 H 0.85468 0.28713 0.9742 0.0
H1455 H 0.82886 0.27559 0.97947 0.0
C1456 C 0.90042 0.29154 0.96066 0.0
C1457 C 0.91366 0.28659 0.96938 0.0
C1458 C 0.88567 0.28454 0.9631 0.0
C1459 C 0.88376 0.27243 0.97437 0.0
C1460 C 0.89711 0.26729 0.98288 0.0
C1461 C 0.91191 0.27418 0.98027 0.0
C1462 C 0.85166 0.24258 0.98426 0.0
C1463 C 0.83789 0.25197 0.9838 0.0
C1464 C 0.86648 0.24912 0.98094 0.0
C1465 C 0.86791 0.26527 0.97729 0.0
C1466 C 0.85407 0.27461 0.9767 0.0
C1467 C 0.83924 0.26801 0.97981 0.0
H1468 H 0.84256 0.90957 0.45964 0.0
H1469 H 0.83426 0.9287 0.50613 0.0
H1470 H 0.81456 0.90338 0.45757 0.0
H1471 H 0.80615 0.92287 0.50387 0.0
H1472 H 0.76344 0.88906 0.50254 0.0
H1473 H 0.7902 0.89933 0.50419 0.0
H1474 H 0.78805 0.91378 0.45526 0.0
H1475 H 0.76117 0.90341 0.45368 0.0
C1476 C 0.83473 0.91269 0.46932 0.0
C1477 C 0.8407 0.9195 0.48311 0.0
C1478 C 0.81863 0.90922 0.46809 0.0
C1479 C 0.8081 0.91253 0.4806 0.0
C1480 C 0.81398 0.91991 0.49413 0.0
C1481 C 0.83009 0.92334 0.49538 0.0
C1482 C 0.76847 0.89489 0.4923 0.0
C1483 C 0.76008 0.89577 0.47809 0.0
C1484 C 0.78388 0.9007 0.4932 0.0
C1485 C 0.79128 0.90746 0.47987 0.0
C1486 C 0.78277 0.90851 0.4657 0.0
C1487 C 0.76737 0.90264 0.4648 0.0
H1488 H 0.13243 0.42127 0.42991 0.0
H1489 H 0.12153 0.43414 0.38178 0.0
H1490 H 0.10469 0.41474 0.4346 0.0
H1491 H 0.09378 0.42793 0.38657 0.0
H1492 H 0.05156 0.39493 0.39521 0.0
H1493 H 0.07835 0.40434 0.39078 0.0
H1494 H 0.07794 0.4258 0.43686 0.0
H1495 H 0.05109 0.41607 0.44146 0.0
C1496 C 0.1241 0.42285 0.42037 0.0
C1497 C 0.12923 0.42811 0.40543 0.0
C1498 C 0.10817 0.41921 0.42309 0.0
C1499 C 0.09702 0.42076 0.41094 0.0
C1500 C 0.1021 0.42638 0.39612 0.0
C1501 C 0.11802 0.43 0.39339 0.0
C1502 C 0.0571 0.40176 0.40438 0.0
C1503 C 0.04919 0.40469 0.41872 0.0
C1504 C 0.07246 0.40724 0.40179 0.0
C1505 C 0.08032 0.41581 0.41347 0.0
C1506 C 0.07229 0.41907 0.4277 0.0
C1507 C 0.05687 0.41359 0.43029 0.0
H1508 H 0.13116 0.91525 0.25554 0.0
H1509 H 0.11014 0.88971 0.21713 0.0
H1510 H 0.10536 0.92679 0.26197 0.0
H1511 H 0.08438 0.90103 0.22372 0.0
H1512 H 0.04189 0.93283 0.2324 0.0
H1513 H 0.06872 0.9253 0.22451 0.0
H1514 H 0.08059 0.91686 0.27332 0.0
H1515 H 0.05387 0.92463 0.28125 0.0
C1516 C 0.12109 0.91221 0.24837 0.0
C1517 C 0.1227 0.90147 0.23589 0.0
C1518 C 0.10628 0.91874 0.25212 0.0
C1519 C 0.09278 0.91473 0.24344 0.0
C1520 C 0.09454 0.90448 0.23056 0.0
C1521 C 0.10932 0.89793 0.22684 0.0
C1522 C 0.05025 0.92947 0.24146 0.0
C1523 C 0.0457 0.92926 0.25745 0.0
C1524 C 0.06561 0.9251 0.23692 0.0
C1525 C 0.07679 0.92045 0.24828 0.0
C1526 C 0.07234 0.92057 0.26429 0.0
C1527 C 0.05697 0.92492 0.26883 0.0
H1528 H 0.55324 0.73328 0.89471 0.0
H1529 H 0.54236 0.74912 0.94194 0.0
H1530 H 0.58106 0.7395 0.89866 0.0
H1531 H 0.57013 0.75566 0.94576 0.0
H1532 H 0.62339 0.75502 0.95226 0.0
H1533 H 0.59672 0.74473 0.94854 0.0
H1534 H 0.59671 0.7631 0.90088 0.0
H1535 H 0.62335 0.77304 0.90446 0.0
C1536 C 0.55678 0.73807 0.90594 0.0
C1537 C 0.54555 0.7408 0.91797 0.0
C1538 C 0.57272 0.74169 0.90819 0.0
C1539 C 0.57782 0.74815 0.9225 0.0
C1540 C 0.56665 0.75053 0.93466 0.0
C1541 C 0.55069 0.74689 0.93242 0.0
C1542 C 0.61776 0.75668 0.94093 0.0
C1543 C 0.62547 0.76492 0.92869 0.0
C1544 C 0.60244 0.75088 0.93884 0.0
C1545 C 0.59454 0.75316 0.92445 0.0
C1546 C 0.60249 0.76096 0.91206 0.0
C1547 C 0.61776 0.76675 0.91415 0.0
H1548 H 0.54391 0.25889 0.7189 0.0
H1549 H 0.54222 0.28724 0.76107 0.0
H1550 H 0.57105 0.25082 0.7252 0.0
H1551 H 0.56905 0.27905 0.76741 0.0
H1552 H 0.62238 0.276 0.7654 0.0
H1553 H 0.59576 0.2835 0.75733 0.0
H1554 H 0.58628 0.2352 0.74475 0.0
H1555 H 0.61308 0.22769 0.75259 0.0
C1556 C 0.54928 0.26332 0.72954 0.0
C1557 C 0.54092 0.27376 0.73944 0.0
C1558 C 0.56479 0.25866 0.73317 0.0
C1559 C 0.57226 0.26442 0.74672 0.0
C1560 C 0.56377 0.27464 0.75671 0.0
C1561 C 0.54832 0.27925 0.75312 0.0
C1562 C 0.61468 0.26697 0.76084 0.0
C1563 C 0.61984 0.25122 0.75975 0.0
C1564 C 0.59937 0.27126 0.75629 0.0
C1565 C 0.58884 0.25991 0.75056 0.0
C1566 C 0.59413 0.24423 0.74904 0.0
C1567 C 0.60947 0.23992 0.75361 0.0
H1568 H 0.05162 0.77769 0.26511 0.0
H1569 H 0.06021 0.77326 0.21501 0.0
H1570 H 0.07795 0.76722 0.27038 0.0
H1571 H 0.08658 0.7625 0.22034 0.0
H1572 H 0.13881 0.76523 0.23701 0.0
H1573 H 0.11168 0.77264 0.23046 0.0
H1574 H 0.09433 0.7435 0.26876 0.0
H1575 H 0.12146 0.73628 0.27548 0.0
C1576 C 0.05905 0.7743 0.25521 0.0
C1577 C 0.05383 0.7764 0.23963 0.0
C1578 C 0.07414 0.7682 0.25825 0.0
C1579 C 0.08439 0.76407 0.24578 0.0
C1580 C 0.07903 0.76576 0.23019 0.0
C1581 C 0.06388 0.77183 0.22715 0.0
C1582 C 0.12921 0.76033 0.24398 0.0
C1583 C 0.13232 0.75025 0.25684 0.0
C1584 C 0.11365 0.76449 0.24015 0.0
C1585 C 0.10084 0.75869 0.24911 0.0
C1586 C 0.10394 0.74833 0.26175 0.0
C1587 C 0.11949 0.74415 0.26556 0.0
H1588 H 0.61214 0.9188 0.89845 0.0
H1589 H 0.61943 0.91875 0.94885 0.0
H1590 H 0.58505 0.90993 0.9026 0.0
H1591 H 0.59238 0.90956 0.95298 0.0
H1592 H 0.53825 0.90567 0.95496 0.0
H1593 H 0.56443 0.91716 0.95061 0.0
H1594 H 0.57216 0.88594 0.91117 0.0
H1595 H 0.54604 0.87473 0.9153 0.0
C1596 C 0.60797 0.91691 0.91042 0.0
C1597 C 0.618 0.9194 0.92332 0.0
C1598 C 0.59245 0.91175 0.9128 0.0
C1599 C 0.58657 0.90894 0.92812 0.0
C1600 C 0.59648 0.91176 0.94103 0.0
C1601 C 0.61203 0.91693 0.93866 0.0
C1602 C 0.54552 0.90135 0.94531 0.0
C1603 C 0.54005 0.88928 0.93548 0.0
C1604 C 0.56055 0.90786 0.94287 0.0
C1605 C 0.57039 0.90248 0.93053 0.0
C1606 C 0.56481 0.89054 0.92063 0.0
C1607 C 0.54984 0.88403 0.92307 0.0
H1608 H 0.64885 0.43432 0.77465 0.0
H1609 H 0.6273 0.42154 0.73051 0.0
H1610 H 0.62409 0.4469 0.78302 0.0
H1611 H 0.60258 0.43373 0.73899 0.0
H1612 H 0.56102 0.46235 0.75383 0.0
H1613 H 0.58832 0.45752 0.74554 0.0
H1614 H 0.59845 0.43712 0.79123 0.0
H1615 H 0.5713 0.4423 0.79964 0.0
C1616 C 0.63891 0.43437 0.76665 0.0
C1617 C 0.64001 0.42678 0.75197 0.0
C1618 C 0.62469 0.4415 0.77149 0.0
C1619 C 0.61129 0.44122 0.76175 0.0
C1620 C 0.61268 0.43434 0.74674 0.0
C1621 C 0.62687 0.42723 0.74191 0.0
C1622 C 0.56915 0.45712 0.76222 0.0
C1623 C 0.56391 0.45252 0.77734 0.0
C1624 C 0.58479 0.45426 0.75743 0.0
C1625 C 0.59554 0.44672 0.76763 0.0
C1626 C 0.59055 0.44306 0.78309 0.0
C1627 C 0.57492 0.44596 0.7879 0.0
H1628 H 0.12404 0.28012 0.45882 0.0
H1629 H 0.1293 0.29416 0.40997 0.0
H1630 H 0.09766 0.26994 0.4532 0.0
H1631 H 0.10298 0.28432 0.40448 0.0
H1632 H 0.06102 0.25309 0.39595 0.0
H1633 H 0.08804 0.26015 0.40261 0.0
H1634 H 0.07137 0.28036 0.44639 0.0
H1635 H 0.0443 0.27301 0.43988 0.0
C1636 C 0.11962 0.28097 0.44688 0.0
C1637 C 0.12878 0.28797 0.43485 0.0
C1638 C 0.10446 0.27523 0.44369 0.0
C1639 C 0.0982 0.27633 0.42839 0.0
C1640 C 0.10751 0.28307 0.41634 0.0
C1641 C 0.1226 0.28881 0.41952 0.0
C1642 C 0.0631 0.25895 0.40705 0.0
C1643 C 0.05047 0.26258 0.41733 0.0
C1644 C 0.0786 0.26306 0.41083 0.0
C1645 C 0.08186 0.27092 0.42498 0.0
C1646 C 0.06929 0.27418 0.43547 0.0
C1647 C 0.05375 0.27006 0.43168 0.0
H1648 H 0.44836 0.03729 0.42307 0.0
H1649 H 0.40888 0.03862 0.39094 0.0
H1650 H 0.44204 0.06422 0.43133 0.0
H1651 H 0.40281 0.06546 0.39891 0.0
H1652 H 0.38652 0.10775 0.42687 0.0
H1653 H 0.39276 0.08031 0.42106 0.0
H1654 H 0.44269 0.09116 0.4207 0.0
H1655 H 0.43647 0.11861 0.42686 0.0
C1656 C 0.43833 0.0433 0.4178 0.0
C1657 C 0.42913 0.0358 0.40636 0.0
C1658 C 0.43477 0.05876 0.42246 0.0
C1659 C 0.42191 0.067 0.41579 0.0
C1660 C 0.41265 0.05939 0.40447 0.0
C1661 C 0.4162 0.04401 0.39983 0.0
C1662 C 0.39884 0.1043 0.4256 0.0
C1663 C 0.41099 0.11541 0.42724 0.0
C1664 C 0.40242 0.08857 0.42221 0.0
C1665 C 0.41823 0.08355 0.42032 0.0
C1666 C 0.4304 0.0946 0.42224 0.0
C1667 C 0.42682 0.11036 0.42566 0.0
H1668 H 0.22473 0.75337 0.61429 0.0
H1669 H 0.27376 0.76549 0.62158 0.0
H1670 H 0.23156 0.74296 0.5883 0.0
H1671 H 0.2805 0.75537 0.59557 0.0
H1672 H 0.29061 0.72311 0.55473 0.0
H1673 H 0.28243 0.73072 0.5812 0.0
H1674 H 0.24024 0.75265 0.56233 0.0
H1675 H 0.24829 0.74477 0.53578 0.0
C1676 C 0.23696 0.75381 0.61036 0.0
C1677 C 0.2487 0.76027 0.62002 0.0
C1678 C 0.24085 0.74792 0.59544 0.0
C1679 C 0.25657 0.74831 0.58987 0.0
C1680 C 0.26831 0.75466 0.59959 0.0
C1681 C 0.26442 0.76056 0.61448 0.0
C1682 C 0.27951 0.72942 0.55621 0.0
C1683 C 0.27016 0.73343 0.54311 0.0
C1684 C 0.27487 0.73387 0.57139 0.0
C1685 C 0.26077 0.74245 0.57387 0.0
C1686 C 0.25112 0.74596 0.56084 0.0
C1687 C 0.25576 0.7415 0.54562 0.0
H1688 H 0.27886 0.12859 0.89251 0.0
H1689 H 0.23017 0.12614 0.90841 0.0
H1690 H 0.28334 0.10171 0.90167 0.0
H1691 H 0.23478 0.09924 0.91791 0.0
H1692 H 0.24438 0.0456 0.91271 0.0
H1693 H 0.23945 0.07331 0.90649 0.0
H1694 H 0.28536 0.08526 0.92495 0.0
H1695 H 0.29044 0.05752 0.93086 0.0
C1696 C 0.26915 0.12239 0.89815 0.0
C1697 C 0.25413 0.1295 0.89964 0.0
C1698 C 0.27175 0.10698 0.9035 0.0
C1699 C 0.25941 0.09828 0.91049 0.0
C1700 C 0.24448 0.10554 0.91238 0.0
C1701 C 0.24187 0.121 0.90703 0.0
C1702 C 0.2534 0.05414 0.91551 0.0
C1703 C 0.26785 0.04932 0.92218 0.0
C1704 C 0.25052 0.07005 0.91205 0.0
C1705 C 0.26203 0.08152 0.91518 0.0
C1706 C 0.27634 0.07672 0.92217 0.0
C1707 C 0.27922 0.06081 0.92562 0.0
H1708 H 0.40065 0.3997 0.04374 0.0
H1709 H 0.42925 0.44177 0.04181 0.0
H1710 H 0.41025 0.39402 0.07012 0.0
H1711 H 0.43869 0.43618 0.06849 0.0
H1712 H 0.46354 0.41103 0.11049 0.0
H1713 H 0.45496 0.41741 0.08374 0.0
H1714 H 0.40703 0.40472 0.09641 0.0
H1715 H 0.4156 0.39808 0.12298 0.0
C1716 C 0.409 0.40776 0.04894 0.0
C1717 C 0.41413 0.42124 0.04068 0.0
C1718 C 0.41442 0.40455 0.06414 0.0
C1719 C 0.42511 0.41473 0.07149 0.0
C1720 C 0.43053 0.42805 0.06311 0.0
C1721 C 0.42508 0.43128 0.04786 0.0
C1722 C 0.45116 0.40964 0.10757 0.0
C1723 C 0.44028 0.40394 0.11885 0.0
C1724 C 0.44624 0.41338 0.09226 0.0
C1725 C 0.43034 0.41146 0.0879 0.0
C1726 C 0.41942 0.40606 0.09929 0.0
C1727 C 0.42433 0.40233 0.11456 0.0
H1728 H 0.45147 0.12306 0.2725 0.0
H1729 H 0.40616 0.12261 0.29658 0.0
H1730 H 0.44707 0.09607 0.26366 0.0
H1731 H 0.40195 0.09567 0.28809 0.0
H1732 H 0.39241 0.05205 0.25964 0.0
H1733 H 0.39682 0.07979 0.2653 0.0
H1734 H 0.44604 0.06963 0.27495 0.0
H1735 H 0.44172 0.04191 0.26892 0.0
C1736 C 0.44055 0.11724 0.27585 0.0
C1737 C 0.42918 0.12498 0.28528 0.0
C1738 C 0.43808 0.10174 0.27087 0.0
C1739 C 0.42417 0.09368 0.27519 0.0
C1740 C 0.4127 0.10158 0.28435 0.0
C1741 C 0.41516 0.11703 0.28931 0.0
C1742 C 0.4042 0.05573 0.2629 0.0
C1743 C 0.41669 0.04473 0.26391 0.0
C1744 C 0.40671 0.07163 0.26621 0.0
C1745 C 0.42177 0.07694 0.27066 0.0
C1746 C 0.43434 0.06599 0.27138 0.0
C1747 C 0.43183 0.05007 0.26803 0.0
H1748 H 0.41836 0.78653 0.63319 0.0
H1749 H 0.43532 0.73839 0.63605 0.0
H1750 H 0.43086 0.78946 0.60748 0.0
H1751 H 0.44836 0.7415 0.61043 0.0
H1752 H 0.44436 0.74595 0.55598 0.0
H1753 H 0.43917 0.74302 0.58401 0.0
H1754 H 0.45413 0.79103 0.59151 0.0
H1755 H 0.45883 0.79414 0.56321 0.0
C1756 C 0.42506 0.77665 0.62848 0.0
C1757 C 0.42563 0.76214 0.63658 0.0
C1758 C 0.43236 0.77838 0.61374 0.0
C1759 C 0.44053 0.76567 0.60676 0.0
C1760 C 0.44192 0.75144 0.61531 0.0
C1761 C 0.43451 0.74968 0.63004 0.0
C1762 C 0.44679 0.75584 0.56361 0.0
C1763 C 0.45178 0.77037 0.55731 0.0
C1764 C 0.44391 0.75411 0.57976 0.0
C1765 C 0.44607 0.76684 0.59006 0.0
C1766 C 0.45205 0.78108 0.58388 0.0
C1767 C 0.45484 0.78284 0.56767 0.0
H1768 H 0.24167 0.03922 0.76064 0.0
H1769 H 0.20806 0.06303 0.79114 0.0
H1770 H 0.24936 0.06455 0.74921 0.0
H1771 H 0.21593 0.08832 0.77988 0.0
H1772 H 0.226 0.13081 0.74845 0.0
H1773 H 0.21606 0.10485 0.75606 0.0
H1774 H 0.2641 0.08725 0.75897 0.0
H1775 H 0.27403 0.11306 0.75116 0.0
C1776 C 0.23579 0.04982 0.76479 0.0
C1777 C 0.22434 0.04911 0.7769 0.0
C1778 C 0.24028 0.06434 0.75831 0.0
C1779 C 0.23338 0.07845 0.76375 0.0
C1780 C 0.22141 0.07766 0.77534 0.0
C1781 C 0.21695 0.06316 0.78185 0.0
C1782 C 0.23444 0.12137 0.75063 0.0
C1783 C 0.25082 0.12403 0.74926 0.0
C1784 C 0.22874 0.10652 0.75503 0.0
C1785 C 0.23928 0.09399 0.75811 0.0
C1786 C 0.25565 0.09659 0.75646 0.0
C1787 C 0.26135 0.11143 0.75211 0.0
H1788 H 0.26572 0.42129 0.11818 0.0
H1789 H 0.2937 0.45904 0.09811 0.0
H1790 H 0.25572 0.41514 0.09202 0.0
H1791 H 0.28391 0.45272 0.07199 0.0
H1792 H 0.25521 0.44415 0.02792 0.0
H1793 H 0.26072 0.45221 0.0549 0.0
H1794 H 0.26749 0.4034 0.06834 0.0
H1795 H 0.26175 0.39532 0.0415 0.0
C1796 C 0.2696 0.42839 0.10823 0.0
C1797 C 0.28062 0.44057 0.11022 0.0
C1798 C 0.26395 0.4248 0.09323 0.0
C1799 C 0.26914 0.43333 0.0799 0.0
C1800 C 0.27957 0.44598 0.08201 0.0
C1801 C 0.28525 0.44955 0.097 0.0
C1802 C 0.25776 0.43513 0.03666 0.0
C1803 C 0.25812 0.41909 0.03253 0.0
C1804 C 0.26097 0.43976 0.0521 0.0
C1805 C 0.26456 0.42845 0.06377 0.0
C1806 C 0.26456 0.4124 0.0597 0.0
C1807 C 0.26139 0.40777 0.04427 0.0
H1808 H 0.92599 0.27969 0.05539 0.0
H1809 H 0.92367 0.23249 0.03663 0.0
H1810 H 0.91816 0.2697 0.08128 0.0
H1811 H 0.91609 0.22247 0.06263 0.0
H1812 H 0.88192 0.21602 0.10527 0.0
H1813 H 0.89289 0.22407 0.07986 0.0
H1814 H 0.92696 0.25329 0.10344 0.0
H1815 H 0.9158 0.24543 0.12894 0.0
C1816 C 0.92395 0.26716 0.05681 0.0
C1817 C 0.92537 0.25691 0.0439 0.0
C1818 C 0.91957 0.26141 0.0717 0.0
C1819 C 0.91648 0.24528 0.07403 0.0
C1820 C 0.9182 0.23498 0.06119 0.0
C1821 C 0.92261 0.24073 0.0463 0.0
C1822 C 0.89186 0.22403 0.10507 0.0
C1823 C 0.8979 0.23017 0.11914 0.0
C1824 C 0.89821 0.22858 0.09048 0.0
C1825 C 0.91074 0.2394 0.08961 0.0
C1826 C 0.91715 0.24512 0.10371 0.0
C1827 C 0.91082 0.24053 0.11832 0.0
H1828 H 0.7759 0.55166 0.27827 0.0
H1829 H 0.72687 0.55778 0.26513 0.0
H1830 H 0.78163 0.5782 0.26899 0.0
H1831 H 0.73271 0.58436 0.25549 0.0
H1832 H 0.74579 0.63712 0.26153 0.0
H1833 H 0.73932 0.60966 0.26713 0.0
H1834 H 0.78368 0.59491 0.24595 0.0
H1835 H 0.79032 0.62236 0.24069 0.0
C1836 C 0.76638 0.55858 0.27317 0.0
C1837 C 0.7509 0.55263 0.27254 0.0
C1838 C 0.76969 0.5738 0.26776 0.0
C1839 C 0.75761 0.58345 0.26155 0.0
C1840 C 0.74223 0.5773 0.26042 0.0
C1841 C 0.73891 0.56204 0.26584 0.0
C1842 C 0.75413 0.62801 0.25799 0.0
C1843 C 0.76864 0.63195 0.2508 0.0
C1844 C 0.75036 0.61225 0.2611 0.0
C1845 C 0.76101 0.60007 0.25705 0.0
C1846 C 0.77532 0.60401 0.24945 0.0
C1847 C 0.7791 0.61976 0.24638 0.0
H1848 H 0.73957 0.93283 0.64349 0.0
H1849 H 0.78146 0.95534 0.62459 0.0
H1850 H 0.73108 0.92677 0.61677 0.0
H1851 H 0.77283 0.94954 0.59794 0.0
H1852 H 0.76376 0.91695 0.55596 0.0
H1853 H 0.77086 0.92579 0.58219 0.0
H1854 H 0.72194 0.93796 0.59168 0.0
H1855 H 0.71475 0.92884 0.56545 0.0
C1856 C 0.74685 0.9367 0.63364 0.0
C1857 C 0.76127 0.94444 0.63619 0.0
C1858 C 0.74195 0.93328 0.61831 0.0
C1859 C 0.75137 0.93753 0.60522 0.0
C1860 C 0.76546 0.94583 0.60777 0.0
C1861 C 0.77035 0.94925 0.62307 0.0
C1862 C 0.7545 0.92157 0.56359 0.0
C1863 C 0.73867 0.92214 0.5586 0.0
C1864 C 0.7586 0.92674 0.57861 0.0
C1865 C 0.74697 0.93262 0.58903 0.0
C1866 C 0.73115 0.93335 0.584 0.0
C1867 C 0.72705 0.92819 0.56893 0.0
H1868 H 0.77476 0.56226 0.41167 0.0
H1869 H 0.73555 0.56745 0.44436 0.0
H1870 H 0.77049 0.58913 0.40232 0.0
H1871 H 0.73146 0.59452 0.43515 0.0
H1872 H 0.71887 0.63562 0.40063 0.0
H1873 H 0.72262 0.60922 0.41175 0.0
H1874 H 0.77328 0.61609 0.41137 0.0
H1875 H 0.76958 0.64228 0.40004 0.0
C1876 C 0.76526 0.56915 0.41691 0.0
C1877 C 0.75551 0.56268 0.42878 0.0
C1878 C 0.76288 0.58461 0.41162 0.0
C1879 C 0.7507 0.59403 0.41806 0.0
C1880 C 0.74087 0.58755 0.42986 0.0
C1881 C 0.74327 0.57205 0.43518 0.0
C1882 C 0.73079 0.63154 0.40305 0.0
C1883 C 0.74393 0.64102 0.39932 0.0
C1884 C 0.73294 0.61643 0.40948 0.0
C1885 C 0.74826 0.61048 0.4123 0.0
C1886 C 0.76134 0.62019 0.40906 0.0
C1887 C 0.7592 0.63526 0.40265 0.0
H1888 H 0.92412 0.61464 0.9366 0.0
H1889 H 0.90589 0.62326 0.88982 0.0
H1890 H 0.93057 0.58752 0.92932 0.0
H1891 H 0.9126 0.59631 0.88249 0.0
H1892 H 0.91029 0.5432 0.8795 0.0
H1893 H 0.90376 0.56972 0.88827 0.0
H1894 H 0.94856 0.57221 0.91238 0.0
H1895 H 0.95501 0.54543 0.90381 0.0
C1896 C 0.92155 0.61079 0.92475 0.0
C1897 C 0.91442 0.62111 0.91381 0.0
C1898 C 0.92532 0.59526 0.92056 0.0
C1899 C 0.92202 0.58972 0.90535 0.0
C1900 C 0.91505 0.60011 0.89439 0.0
C1901 C 0.91129 0.61561 0.89856 0.0
C1902 C 0.91873 0.54933 0.88675 0.0
C1903 C 0.93322 0.54222 0.89088 0.0
C1904 C 0.91502 0.5646 0.8917 0.0
C1905 C 0.92571 0.57316 0.90087 0.0
C1906 C 0.94003 0.5659 0.90539 0.0
C1907 C 0.94375 0.55058 0.90044 0.0
H1908 H 0.74256 0.28453 0.11784 0.0
H1909 H 0.76806 0.24323 0.13412 0.0
H1910 H 0.74859 0.27746 0.09062 0.0
H1911 H 0.77437 0.23635 0.10691 0.0
H1912 H 0.77253 0.22132 0.05562 0.0
H1913 H 0.76304 0.22742 0.0822 0.0
H1914 H 0.77164 0.27692 0.07352 0.0
H1915 H 0.78077 0.2709 0.04697 0.0
C1916 C 0.74945 0.27394 0.11562 0.0
C1917 C 0.75489 0.26449 0.12817 0.0
C1918 C 0.75296 0.26992 0.10001 0.0
C1919 C 0.76201 0.25637 0.09657 0.0
C1920 C 0.7672 0.24676 0.10912 0.0
C1921 C 0.76368 0.25078 0.12474 0.0
C1922 C 0.77222 0.23352 0.05934 0.0
C1923 C 0.77747 0.24561 0.04918 0.0
C1924 C 0.76689 0.237 0.07461 0.0
C1925 C 0.76665 0.25265 0.08003 0.0
C1926 C 0.77148 0.26476 0.06969 0.0
C1927 C 0.77681 0.26128 0.05447 0.0
H1928 H 0.94558 0.90794 0.62799 0.0
H1929 H 0.92935 0.86391 0.60869 0.0
H1930 H 0.94262 0.92051 0.60223 0.0
H1931 H 0.92597 0.87656 0.58311 0.0
H1932 H 0.92558 0.90095 0.53642 0.0
H1933 H 0.93708 0.8892 0.56011 0.0
H1934 H 0.91977 0.92861 0.58752 0.0
H1935 H 0.90869 0.94048 0.56389 0.0
C1936 C 0.9416 0.90088 0.61821 0.0
C1937 C 0.93749 0.88497 0.62046 0.0
C1938 C 0.93981 0.90812 0.60345 0.0
C1939 C 0.93383 0.89963 0.59063 0.0
C1940 C 0.93072 0.88345 0.59266 0.0
C1941 C 0.93257 0.8762 0.60739 0.0
C1942 C 0.9245 0.90724 0.54746 0.0
C1943 C 0.91604 0.92156 0.5483 0.0
C1944 C 0.93102 0.90046 0.56105 0.0
C1945 C 0.92922 0.90786 0.57577 0.0
C1946 C 0.92155 0.92263 0.57639 0.0
C1947 C 0.91507 0.92941 0.56282 0.0
H1948 H 0.9125 0.63253 0.77466 0.0
H1949 H 0.95706 0.63418 0.74928 0.0
H1950 H 0.90865 0.60556 0.76608 0.0
H1951 H 0.95301 0.60715 0.74036 0.0
H1952 H 0.94893 0.55284 0.74514 0.0
H1953 H 0.95284 0.58056 0.75143 0.0
H1954 H 0.90319 0.58983 0.7432 0.0
H1955 H 0.8992 0.56207 0.73727 0.0
C1956 C 0.92142 0.6272 0.7671 0.0
C1957 C 0.93512 0.63551 0.76271 0.0
C1958 C 0.91915 0.61173 0.76209 0.0
C1959 C 0.93051 0.60416 0.75252 0.0
C1960 C 0.94411 0.61257 0.74788 0.0
C1961 C 0.94639 0.62809 0.75291 0.0
C1962 C 0.93885 0.5608 0.74462 0.0
C1963 C 0.92373 0.5552 0.74081 0.0
C1964 C 0.94112 0.57672 0.74812 0.0
C1965 C 0.92832 0.58743 0.74787 0.0
C1966 C 0.91326 0.58187 0.74374 0.0
C1967 C 0.91099 0.56595 0.74027 0.0
loop_
_geom_bond_atom_site_label_1
_geom_bond_atom_site_label_2
_geom_bond_distance
_geom_bond_site_symmetry_2
_ccdc_geom_bond_type
O0 Cd1 2.300 . S
O0 C7 1.275 . S
Cd1 O0 2.300 . S
Cd1 O9 2.381 . S
Cd1 O10 2.378 . S
O2 Cd3 2.385 . S
O2 C7 1.255 1_455 S
Cd3 O2 2.385 . S
Cd3 O4 2.317 . S
O4 Cd3 2.317 . S
O4 C5 1.232 . S
C5 O4 1.232 . S
C5 O6 1.218 . S
O6 C5 1.218 . S
C7 O0 1.275 . S
C7 O2 1.255 1_655 S
C8 O9 1.258 . S
C8 O10 1.256 . S
O9 Cd1 2.381 . S
O9 C8 1.258 . S
O10 Cd1 2.378 . S
O10 C8 1.256 . S
O11 Cd12 2.300 . S
O11 C18 1.275 . S
Cd12 O11 2.300 . S
Cd12 O20 2.381 . S
Cd12 O21 2.378 . S
O13 Cd14 2.385 . S
O13 C18 1.255 1_455 S
Cd14 O13 2.385 . S
Cd14 O15 2.317 . S
O15 Cd14 2.317 . S
O15 C16 1.232 . S
C16 O15 1.232 . S
C16 O17 1.218 . S
O17 C16 1.218 . S
C18 O11 1.275 . S
C18 O13 1.255 1_655 S
C19 O20 1.258 . S
C19 O21 1.256 . S
O20 Cd12 2.381 . S
O20 C19 1.258 . S
O21 Cd12 2.378 . S
O21 C19 1.256 . S
O22 Cd23 2.300 . S
O22 C29 1.275 . S
Cd23 O22 2.300 . S
Cd23 O31 2.381 . S
Cd23 O32 2.378 . S
O24 Cd25 2.385 . S
O24 C29 1.255 . S
Cd25 O24 2.385 . S
Cd25 O26 2.317 . S
O26 Cd25 2.317 . S
O26 C27 1.232 . S
C27 O26 1.232 . S
C27 O28 1.218 . S
O28 C27 1.218 . S
C29 O22 1.275 . S
C29 O24 1.255 . S
C30 O31 1.258 . S
C30 O32 1.256 . S
O31 Cd23 2.381 . S
O31 C30 1.258 . S
O32 Cd23 2.378 . S
O32 C30 1.256 . S
O33 Cd34 2.300 . S
O33 C40 1.275 . S
Cd34 O33 2.300 . S
Cd34 O42 2.381 . S
Cd34 O43 2.378 . S
O35 Cd36 2.385 . S
O35 C40 1.255 . S
Cd36 O35 2.385 . S
Cd36 O37 2.317 . S
O37 Cd36 2.317 . S
O37 C38 1.232 . S
C38 O37 1.232 . S
C38 O39 1.218 . S
O39 C38 1.218 . S
C40 O33 1.275 . S
C40 O35 1.255 . S
C41 O42 1.258 . S
C41 O43 1.256 . S
O42 Cd34 2.381 . S
O42 C41 1.258 . S
O43 Cd34 2.378 . S
O43 C41 1.256 . S
O44 Cd45 2.300 . S
O44 C51 1.275 . S
Cd45 O44 2.300 . S
Cd45 O53 2.381 . S
Cd45 O54 2.378 . S
O46 Cd47 2.385 . S
O46 C51 1.255 1_455 S
Cd47 O46 2.385 . S
Cd47 O48 2.317 . S
O48 Cd47 2.317 . S
O48 C49 1.232 . S
C49 O48 1.232 . S
C49 O50 1.218 . S
O50 C49 1.218 . S
C51 O44 1.275 . S
C51 O46 1.255 1_655 S
C52 O53 1.258 . S
C52 O54 1.256 . S
O53 Cd45 2.381 . S
O53 C52 1.258 . S
O54 Cd45 2.378 . S
O54 C52 1.256 . S
O55 Cd56 2.300 . S
O55 C62 1.275 . S
Cd56 O55 2.300 . S
Cd56 O64 2.381 . S
Cd56 O65 2.378 . S
O57 Cd58 2.385 . S
O57 C62 1.255 . S
Cd58 O57 2.385 . S
Cd58 O59 2.317 . S
O59 Cd58 2.317 . S
O59 C60 1.232 . S
C60 O59 1.232 . S
C60 O61 1.218 . S
O61 C60 1.218 . S
C62 O55 1.275 . S
C62 O57 1.255 . S
C63 O64 1.258 . S
C63 O65 1.256 . S
O64 Cd56 2.381 . S
O64 C63 1.258 . S
O65 Cd56 2.378 . S
O65 C63 1.256 . S
O66 Cd67 2.300 . S
O66 C73 1.275 . S
Cd67 O66 2.300 . S
Cd67 O75 2.381 . S
Cd67 O76 2.378 . S
O68 Cd69 2.385 . S
O68 C73 1.255 . S
Cd69 O68 2.385 . S
Cd69 O70 2.317 . S
O70 Cd69 2.317 . S
O70 C71 1.232 . S
C71 O70 1.232 . S
C71 O72 1.218 . S
O72 C71 1.218 . S
C73 O66 1.275 . S
C73 O68 1.255 . S
C74 O75 1.258 . S
C74 O76 1.256 . S
O75 Cd67 2.381 . S
O75 C74 1.258 . S
O76 Cd67 2.378 . S
O76 C74 1.256 . S
O77 Cd78 2.300 . S
O77 C84 1.275 . S
Cd78 O77 2.300 . S
Cd78 O86 2.381 . S
Cd78 O87 2.378 . S
O79 Cd80 2.385 . S
O79 C84 1.255 1_455 S
Cd80 O79 2.385 . S
Cd80 O81 2.317 . S
O81 Cd80 2.317 . S
O81 C82 1.232 . S
C82 O81 1.232 . S
C82 O83 1.218 . S
O83 C82 1.218 . S
C84 O77 1.275 . S
C84 O79 1.255 1_655 S
C85 O86 1.258 . S
C85 O87 1.256 . S
O86 Cd78 2.381 . S
O86 C85 1.258 . S
O87 Cd78 2.378 . S
O87 C85 1.256 . S
O88 Cd89 2.300 . S
O88 C95 1.275 . S
Cd89 O88 2.300 . S
Cd89 O97 2.381 . S
Cd89 O98 2.378 . S
O90 Cd91 2.385 . S
O90 C95 1.255 1_545 S
Cd91 O90 2.385 . S
Cd91 O92 2.317 . S
O92 Cd91 2.317 . S
O92 C93 1.232 . S
C93 O92 1.232 . S
C93 O94 1.218 . S
O94 C93 1.218 . S
C95 O88 1.275 . S
C95 O90 1.255 1_565 S
C96 O97 1.258 . S
C96 O98 1.256 . S
O97 Cd89 2.381 . S
O97 C96 1.258 . S
O98 Cd89 2.378 . S
O98 C96 1.256 . S
O99 Cd100 2.300 . S
O99 C106 1.275 . S
Cd100 O99 2.300 . S
Cd100 O108 2.381 . S
Cd100 O109 2.378 . S
O101 Cd102 2.385 . S
O101 C106 1.255 . S
Cd102 O101 2.385 . S
Cd102 O103 2.317 . S
O103 Cd102 2.317 . S
O103 C104 1.232 . S
C104 O103 1.232 . S
C104 O105 1.218 . S
O105 C104 1.218 . S
C106 O99 1.275 . S
C106 O101 1.255 . S
C107 O108 1.258 . S
C107 O109 1.256 . S
O108 Cd100 2.381 . S
O108 C107 1.258 . S
O109 Cd100 2.378 . S
O109 C107 1.256 . S
O110 Cd111 2.300 . S
O110 C117 1.275 . S
Cd111 O110 2.300 . S
Cd111 O119 2.381 . S
Cd111 O120 2.378 . S
O112 Cd113 2.385 . S
O112 C117 1.255 . S
Cd113 O112 2.385 . S
Cd113 O114 2.317 . S
O114 Cd113 2.317 . S
O114 C115 1.232 . S
C115 O114 1.232 . S
C115 O116 1.218 . S
O116 C115 1.218 . S
C117 O110 1.275 . S
C117 O112 1.255 . S
C118 O119 1.258 . S
C118 O120 1.256 . S
O119 Cd111 2.381 . S
O119 C118 1.258 . S
O120 Cd111 2.378 . S
O120 C118 1.256 . S
O121 Cd122 2.300 . S
O121 C128 1.275 . S
Cd122 O121 2.300 . S
Cd122 O130 2.381 . S
Cd122 O131 2.378 . S
O123 Cd124 2.385 . S
O123 C128 1.255 . S
Cd124 O123 2.385 . S
Cd124 O125 2.317 . S
O125 Cd124 2.317 . S
O125 C126 1.232 . S
C126 O125 1.232 . S
C126 O127 1.218 . S
O127 C126 1.218 . S
C128 O121 1.275 . S
C128 O123 1.255 . S
C129 O130 1.258 . S
C129 O131 1.256 . S
O130 Cd122 2.381 . S
O130 C129 1.258 . S
O131 Cd122 2.378 . S
O131 C129 1.256 . S
O132 Cd133 2.300 . S
O132 C139 1.275 . S
Cd133 O132 2.300 . S
Cd133 O141 2.381 . S
Cd133 O142 2.378 . S
O134 Cd135 2.385 . S
O134 C139 1.255 . S
Cd135 O134 2.385 . S
Cd135 O136 2.317 . S
O136 Cd135 2.317 . S
O136 C137 1.232 . S
C137 O136 1.232 . S
C137 O138 1.218 . S
O138 C137 1.218 . S
C139 O132 1.275 . S
C139 O134 1.255 . S
C140 O141 1.258 . S
C140 O142 1.256 . S
O141 Cd133 2.381 . S
O141 C140 1.258 . S
O142 Cd133 2.378 . S
O142 C140 1.256 . S
O143 Cd144 2.300 . S
O143 C150 1.275 . S
Cd144 O143 2.300 . S
Cd144 O152 2.381 . S
Cd144 O153 2.378 . S
O145 Cd146 2.385 . S
O145 C150 1.255 . S
Cd146 O145 2.385 . S
Cd146 O147 2.317 . S
O147 Cd146 2.317 . S
O147 C148 1.232 . S
C148 O147 1.232 . S
C148 O149 1.218 . S
O149 C148 1.218 . S
C150 O143 1.275 . S
C150 O145 1.255 . S
C151 O152 1.258 . S
C151 O153 1.256 . S
O152 Cd144 2.381 . S
O152 C151 1.258 . S
O153 Cd144 2.378 . S
O153 C151 1.256 . S
O154 Cd155 2.300 . S
O154 C161 1.275 . S
Cd155 O154 2.300 . S
Cd155 O163 2.381 . S
Cd155 O164 2.378 . S
O156 Cd157 2.385 . S
O156 C161 1.255 1_545 S
Cd157 O156 2.385 . S
Cd157 O158 2.317 . S
O158 Cd157 2.317 . S
O158 C159 1.232 . S
C159 O158 1.232 . S
C159 O160 1.218 . S
O160 C159 1.218 . S
C161 O154 1.275 . S
C161 O156 1.255 1_565 S
C162 O163 1.258 . S
C162 O164 1.256 . S
O163 Cd155 2.381 . S
O163 C162 1.258 . S
O164 Cd155 2.378 . S
O164 C162 1.256 . S
O165 Cd166 2.300 . S
O165 C172 1.275 . S
Cd166 O165 2.300 . S
Cd166 O174 2.381 . S
Cd166 O175 2.378 . S
O167 Cd168 2.385 . S
O167 C172 1.255 1_554 S
Cd168 O167 2.385 . S
Cd168 O169 2.317 . S
O169 Cd168 2.317 . S
O169 C170 1.232 . S
C170 O169 1.232 . S
C170 O171 1.218 . S
O171 C170 1.218 . S
C172 O165 1.275 . S
C172 O167 1.255 1_556 S
C173 O174 1.258 . S
C173 O175 1.256 . S
O174 Cd166 2.381 . S
O174 C173 1.258 . S
O175 Cd166 2.378 . S
O175 C173 1.256 . S
O176 Cd177 2.300 . S
O176 C183 1.275 . S
Cd177 O176 2.300 . S
Cd177 O185 2.381 . S
Cd177 O186 2.378 . S
O178 Cd179 2.385 . S
O178 C183 1.255 1_554 S
Cd179 O178 2.385 . S
Cd179 O180 2.317 . S
O180 Cd179 2.317 . S
O180 C181 1.232 . S
C181 O180 1.232 . S
C181 O182 1.218 . S
O182 C181 1.218 . S
C183 O176 1.275 . S
C183 O178 1.255 1_556 S
C184 O185 1.258 . S
C184 O186 1.256 . S
O185 Cd177 2.381 . S
O185 C184 1.258 . S
O186 Cd177 2.378 . S
O186 C184 1.256 . S
O187 Cd188 2.300 . S
O187 C194 1.275 . S
Cd188 O187 2.300 . S
Cd188 O196 2.381 . S
Cd188 O197 2.378 . S
O189 Cd190 2.385 . S
O189 C194 1.255 . S
Cd190 O189 2.385 . S
Cd190 O191 2.317 . S
O191 Cd190 2.317 . S
O191 C192 1.232 . S
C192 O191 1.232 . S
C192 O193 1.218 . S
O193 C192 1.218 . S
C194 O187 1.275 . S
C194 O189 1.255 . S
C195 O196 1.258 . S
C195 O197 1.256 . S
O196 Cd188 2.381 . S
O196 C195 1.258 . S
O197 Cd188 2.378 . S
O197 C195 1.256 . S
O198 Cd199 2.300 . S
O198 C205 1.275 . S
Cd199 O198 2.300 . S
Cd199 O207 2.381 . S
Cd199 O208 2.378 . S
O200 Cd201 2.385 . S
O200 C205 1.255 . S
Cd201 O200 2.385 . S
Cd201 O202 2.317 . S
O202 Cd201 2.317 . S
O202 C203 1.232 . S
C203 O202 1.232 . S
C203 O204 1.218 . S
O204 C203 1.218 . S
C205 O198 1.275 . S
C205 O200 1.255 . S
C206 O207 1.258 . S
C206 O208 1.256 . S
O207 Cd199 2.381 . S
O207 C206 1.258 . S
O208 Cd199 2.378 . S
O208 C206 1.256 . S
O209 Cd210 2.300 . S
O209 C216 1.275 . S
Cd210 O209 2.300 . S
Cd210 O218 2.381 . S
Cd210 O219 2.378 . S
O211 Cd212 2.385 . S
O211 C216 1.255 . S
Cd212 O211 2.385 . S
Cd212 O213 2.317 . S
O213 Cd212 2.317 . S
O213 C214 1.232 . S
C214 O213 1.232 . S
C214 O215 1.218 . S
O215 C214 1.218 . S
C216 O209 1.275 . S
C216 O211 1.255 . S
C217 O218 1.258 . S
C217 O219 1.256 . S
O218 Cd210 2.381 . S
O218 C217 1.258 . S
O219 Cd210 2.378 . S
O219 C217 1.256 . S
O220 Cd221 2.300 . S
O220 C227 1.275 . S
Cd221 O220 2.300 . S
Cd221 O229 2.381 . S
Cd221 O230 2.378 . S
O222 Cd223 2.385 . S
O222 C227 1.255 1_545 S
Cd223 O222 2.385 . S
Cd223 O224 2.317 . S
O224 Cd223 2.317 . S
O224 C225 1.232 . S
C225 O224 1.232 . S
C225 O226 1.218 . S
O226 C225 1.218 . S
C227 O220 1.275 . S
C227 O222 1.255 1_565 S
C228 O229 1.258 . S
C228 O230 1.256 . S
O229 Cd221 2.381 . S
O229 C228 1.258 . S
O230 Cd221 2.378 . S
O230 C228 1.256 . S
O231 Cd232 2.300 . S
O231 C238 1.275 . S
Cd232 O231 2.300 . S
Cd232 O240 2.381 . S
Cd232 O241 2.378 . S
O233 Cd234 2.385 . S
O233 C238 1.255 . S
Cd234 O233 2.385 . S
Cd234 O235 2.317 . S
O235 Cd234 2.317 . S
O235 C236 1.232 . S
C236 O235 1.232 . S
C236 O237 1.218 . S
O237 C236 1.218 . S
C238 O231 1.275 . S
C238 O233 1.255 . S
C239 O240 1.258 . S
C239 O241 1.256 . S
O240 Cd232 2.381 . S
O240 C239 1.258 . S
O241 Cd232 2.378 . S
O241 C239 1.256 . S
O242 Cd243 2.300 . S
O242 C249 1.275 . S
Cd243 O242 2.300 . S
Cd243 O251 2.381 . S
Cd243 O252 2.378 . S
O244 Cd245 2.385 . S
O244 C249 1.255 . S
Cd245 O244 2.385 . S
Cd245 O246 2.317 . S
O246 Cd245 2.317 . S
O246 C247 1.232 . S
C247 O246 1.232 . S
C247 O248 1.218 . S
O248 C247 1.218 . S
C249 O242 1.275 . S
C249 O244 1.255 . S
C250 O251 1.258 . S
C250 O252 1.256 . S
O251 Cd243 2.381 . S
O251 C250 1.258 . S
O252 Cd243 2.378 . S
O252 C250 1.256 . S
O253 Cd254 2.300 . S
O253 C260 1.275 . S
Cd254 O253 2.300 . S
Cd254 O262 2.381 . S
Cd254 O263 2.378 . S
O255 Cd256 2.385 . S
O255 C260 1.255 . S
Cd256 O255 2.385 . S
Cd256 O257 2.317 . S
O257 Cd256 2.317 . S
O257 C258 1.232 . S
C258 O257 1.232 . S
C258 O259 1.218 . S
O259 C258 1.218 . S
C260 O253 1.275 . S
C260 O255 1.255 . S
C261 O262 1.258 . S
C261 O263 1.256 . S
O262 Cd254 2.381 . S
O262 C261 1.258 . S
O263 Cd254 2.378 . S
O263 C261 1.256 . S
O264 Cd265 2.300 . S
O264 C271 1.275 . S
Cd265 O264 2.300 . S
Cd265 O273 2.381 . S
Cd265 O274 2.378 . S
O266 Cd267 2.385 . S
O266 C271 1.255 . S
Cd267 O266 2.385 . S
Cd267 O268 2.317 . S
O268 Cd267 2.317 . S
O268 C269 1.232 . S
C269 O268 1.232 . S
C269 O270 1.218 . S
O270 C269 1.218 . S
C271 O264 1.275 . S
C271 O266 1.255 . S
C272 O273 1.258 . S
C272 O274 1.256 . S
O273 Cd265 2.381 . S
O273 C272 1.258 . S
O274 Cd265 2.378 . S
O274 C272 1.256 . S
O275 Cd276 2.300 . S
O275 C282 1.275 . S
Cd276 O275 2.300 . S
Cd276 O284 2.381 . S
Cd276 O285 2.378 . S
O277 Cd278 2.385 . S
O277 C282 1.255 . S
Cd278 O277 2.385 . S
Cd278 O279 2.317 . S
O279 Cd278 2.317 . S
O279 C280 1.232 . S
C280 O279 1.232 . S
C280 O281 1.218 . S
O281 C280 1.218 . S
C282 O275 1.275 . S
C282 O277 1.255 . S
C283 O284 1.258 . S
C283 O285 1.256 . S
O284 Cd276 2.381 . S
O284 C283 1.258 . S
O285 Cd276 2.378 . S
O285 C283 1.256 . S
O286 Cd287 2.300 . S
O286 C293 1.275 . S
Cd287 O286 2.300 . S
Cd287 O295 2.381 . S
Cd287 O296 2.378 . S
O288 Cd289 2.385 . S
O288 C293 1.255 . S
Cd289 O288 2.385 . S
Cd289 O290 2.317 . S
O290 Cd289 2.317 . S
O290 C291 1.232 . S
C291 O290 1.232 . S
C291 O292 1.218 . S
O292 C291 1.218 . S
C293 O286 1.275 . S
C293 O288 1.255 . S
C294 O295 1.258 . S
C294 O296 1.256 . S
O295 Cd287 2.381 . S
O295 C294 1.258 . S
O296 Cd287 2.378 . S
O296 C294 1.256 . S
O297 Cd298 2.300 . S
O297 C304 1.275 . S
Cd298 O297 2.300 . S
Cd298 O306 2.381 . S
Cd298 O307 2.378 . S
O299 Cd300 2.385 . S
O299 C304 1.255 . S
Cd300 O299 2.385 . S
Cd300 O301 2.317 . S
O301 Cd300 2.317 . S
O301 C302 1.232 . S
C302 O301 1.232 . S
C302 O303 1.218 . S
O303 C302 1.218 . S
C304 O297 1.275 . S
C304 O299 1.255 . S
C305 O306 1.258 . S
C305 O307 1.256 . S
O306 Cd298 2.381 . S
O306 C305 1.258 . S
O307 Cd298 2.378 . S
O307 C305 1.256 . S
O308 Cd309 2.300 . S
O308 C315 1.275 . S
Cd309 O308 2.300 . S
Cd309 O317 2.381 . S
Cd309 O318 2.378 . S
O310 Cd311 2.385 . S
O310 C315 1.255 . S
Cd311 O310 2.385 . S
Cd311 O312 2.317 . S
O312 Cd311 2.317 . S
O312 C313 1.232 . S
C313 O312 1.232 . S
C313 O314 1.218 . S
O314 C313 1.218 . S
C315 O308 1.275 . S
C315 O310 1.255 . S
C316 O317 1.258 . S
C316 O318 1.256 . S
O317 Cd309 2.381 . S
O317 C316 1.258 . S
O318 Cd309 2.378 . S
O318 C316 1.256 . S
O319 Cd320 2.300 . S
O319 C326 1.275 . S
Cd320 O319 2.300 . S
Cd320 O328 2.381 . S
Cd320 O329 2.378 . S
O321 Cd322 2.385 . S
O321 C326 1.255 . S
Cd322 O321 2.385 . S
Cd322 O323 2.317 . S
O323 Cd322 2.317 . S
O323 C324 1.232 . S
C324 O323 1.232 . S
C324 O325 1.218 . S
O325 C324 1.218 . S
C326 O319 1.275 . S
C326 O321 1.255 . S
C327 O328 1.258 . S
C327 O329 1.256 . S
O328 Cd320 2.381 . S
O328 C327 1.258 . S
O329 Cd320 2.378 . S
O329 C327 1.256 . S
O330 Cd331 2.300 . S
O330 C337 1.275 . S
Cd331 O330 2.300 . S
Cd331 O339 2.381 . S
Cd331 O340 2.378 . S
O332 Cd333 2.385 . S
O332 C337 1.255 . S
Cd333 O332 2.385 . S
Cd333 O334 2.317 . S
O334 Cd333 2.317 . S
O334 C335 1.232 . S
C335 O334 1.232 . S
C335 O336 1.218 . S
O336 C335 1.218 . S
C337 O330 1.275 . S
C337 O332 1.255 . S
C338 O339 1.258 . S
C338 O340 1.256 . S
O339 Cd331 2.381 . S
O339 C338 1.258 . S
O340 Cd331 2.378 . S
O340 C338 1.256 . S
O341 Cd342 2.300 . S
O341 C348 1.275 . S
Cd342 O341 2.300 . S
Cd342 O350 2.381 . S
Cd342 O351 2.378 . S
O343 Cd344 2.385 . S
O343 C348 1.255 . S
Cd344 O343 2.385 . S
Cd344 O345 2.317 . S
O345 Cd344 2.317 . S
O345 C346 1.232 . S
C346 O345 1.232 . S
C346 O347 1.218 . S
O347 C346 1.218 . S
C348 O341 1.275 . S
C348 O343 1.255 . S
C349 O350 1.258 . S
C349 O351 1.256 . S
O350 Cd342 2.381 . S
O350 C349 1.258 . S
O351 Cd342 2.378 . S
O351 C349 1.256 . S
O352 Cd353 2.300 . S
O352 C359 1.275 . S
Cd353 O352 2.300 . S
Cd353 O361 2.381 . S
Cd353 O362 2.378 . S
O354 Cd355 2.385 . S
O354 C359 1.255 . S
Cd355 O354 2.385 . S
Cd355 O356 2.317 . S
O356 Cd355 2.317 . S
O356 C357 1.232 . S
C357 O356 1.232 . S
C357 O358 1.218 . S
O358 C357 1.218 . S
C359 O352 1.275 . S
C359 O354 1.255 . S
C360 O361 1.258 . S
C360 O362 1.256 . S
O361 Cd353 2.381 . S
O361 C360 1.258 . S
O362 Cd353 2.378 . S
O362 C360 1.256 . S
O363 Cd364 2.300 . S
O363 C370 1.275 . S
Cd364 O363 2.300 . S
Cd364 O372 2.381 . S
Cd364 O373 2.378 . S
O365 Cd366 2.385 . S
O365 C370 1.255 . S
Cd366 O365 2.385 . S
Cd366 O367 2.317 . S
O367 Cd366 2.317 . S
O367 C368 1.232 . S
C368 O367 1.232 . S
C368 O369 1.218 . S
O369 C368 1.218 . S
C370 O363 1.275 . S
C370 O365 1.255 . S
C371 O372 1.258 . S
C371 O373 1.256 . S
O372 Cd364 2.381 . S
O372 C371 1.258 . S
O373 Cd364 2.378 . S
O373 C371 1.256 . S
O374 Cd375 2.300 . S
O374 C381 1.275 . S
Cd375 O374 2.300 . S
Cd375 O383 2.381 . S
Cd375 O384 2.378 . S
O376 Cd377 2.385 . S
O376 C381 1.255 . S
Cd377 O376 2.385 . S
Cd377 O378 2.317 . S
O378 Cd377 2.317 . S
O378 C379 1.232 . S
C379 O378 1.232 . S
C379 O380 1.218 . S
O380 C379 1.218 . S
C381 O374 1.275 . S
C381 O376 1.255 . S
C382 O383 1.258 . S
C382 O384 1.256 . S
O383 Cd375 2.381 . S
O383 C382 1.258 . S
O384 Cd375 2.378 . S
O384 C382 1.256 . S
O385 Cd386 2.300 . S
O385 C392 1.275 . S
Cd386 O385 2.300 . S
Cd386 O394 2.381 . S
Cd386 O395 2.378 . S
O387 Cd388 2.385 . S
O387 C392 1.255 . S
Cd388 O387 2.385 . S
Cd388 O389 2.317 . S
O389 Cd388 2.317 . S
O389 C390 1.232 . S
C390 O389 1.232 . S
C390 O391 1.218 . S
O391 C390 1.218 . S
C392 O385 1.275 . S
C392 O387 1.255 . S
C393 O394 1.258 . S
C393 O395 1.256 . S
O394 Cd386 2.381 . S
O394 C393 1.258 . S
O395 Cd386 2.378 . S
O395 C393 1.256 . S
O396 Cd397 2.300 . S
O396 C403 1.275 . S
Cd397 O396 2.300 . S
Cd397 O405 2.381 . S
Cd397 O406 2.378 . S
O398 Cd399 2.385 . S
O398 C403 1.255 . S
Cd399 O398 2.385 . S
Cd399 O400 2.317 . S
O400 Cd399 2.317 . S
O400 C401 1.232 . S
C401 O400 1.232 . S
C401 O402 1.218 . S
O402 C401 1.218 . S
C403 O396 1.275 . S
C403 O398 1.255 . S
C404 O405 1.258 . S
C404 O406 1.256 . S
O405 Cd397 2.381 . S
O405 C404 1.258 . S
O406 Cd397 2.378 . S
O406 C404 1.256 . S
O407 Cd408 2.300 . S
O407 C414 1.275 . S
Cd408 O407 2.300 . S
Cd408 O416 2.381 . S
Cd408 O417 2.378 . S
O409 Cd410 2.385 . S
O409 C414 1.255 1_554 S
Cd410 O409 2.385 . S
Cd410 O411 2.317 . S
O411 Cd410 2.317 . S
O411 C412 1.232 . S
C412 O411 1.232 . S
C412 O413 1.218 . S
O413 C412 1.218 . S
C414 O407 1.275 . S
C414 O409 1.255 1_556 S
C415 O416 1.258 . S
C415 O417 1.256 . S
O416 Cd408 2.381 . S
O416 C415 1.258 . S
O417 Cd408 2.378 . S
O417 C415 1.256 . S
O418 Cd419 2.300 . S
O418 C425 1.275 . S
Cd419 O418 2.300 . S
Cd419 O427 2.381 . S
Cd419 O428 2.378 . S
O420 Cd421 2.385 . S
O420 C425 1.255 . S
Cd421 O420 2.385 . S
Cd421 O422 2.317 . S
O422 Cd421 2.317 . S
O422 C423 1.232 . S
C423 O422 1.232 . S
C423 O424 1.218 . S
O424 C423 1.218 . S
C425 O418 1.275 . S
C425 O420 1.255 . S
C426 O427 1.258 . S
C426 O428 1.256 . S
O427 Cd419 2.381 . S
O427 C426 1.258 . S
O428 Cd419 2.378 . S
O428 C426 1.256 . S
O429 Cd430 2.300 . S
O429 C436 1.275 . S
Cd430 O429 2.300 . S
Cd430 O438 2.381 . S
Cd430 O439 2.378 . S
O431 Cd432 2.385 . S
O431 C436 1.255 . S
Cd432 O431 2.385 . S
Cd432 O433 2.317 . S
O433 Cd432 2.317 . S
O433 C434 1.232 . S
C434 O433 1.232 . S
C434 O435 1.218 . S
O435 C434 1.218 . S
C436 O429 1.275 . S
C436 O431 1.255 . S
C437 O438 1.258 . S
C437 O439 1.256 . S
O438 Cd430 2.381 . S
O438 C437 1.258 . S
O439 Cd430 2.378 . S
O439 C437 1.256 . S
O440 Cd441 2.300 . S
O440 C447 1.275 . S
Cd441 O440 2.300 . S
Cd441 O449 2.381 . S
Cd441 O450 2.378 . S
O442 Cd443 2.385 . S
O442 C447 1.255 . S
Cd443 O442 2.385 . S
Cd443 O444 2.317 . S
O444 Cd443 2.317 . S
O444 C445 1.232 . S
C445 O444 1.232 . S
C445 O446 1.218 . S
O446 C445 1.218 . S
C447 O440 1.275 . S
C447 O442 1.255 . S
C448 O449 1.258 . S
C448 O450 1.256 . S
O449 Cd441 2.381 . S
O449 C448 1.258 . S
O450 Cd441 2.378 . S
O450 C448 1.256 . S
O451 Cd452 2.300 . S
O451 C458 1.275 . S
Cd452 O451 2.300 . S
Cd452 O460 2.381 . S
Cd452 O461 2.378 . S
O453 Cd454 2.385 . S
O453 C458 1.255 . S
Cd454 O453 2.385 . S
Cd454 O455 2.317 . S
O455 Cd454 2.317 . S
O455 C456 1.232 . S
C456 O455 1.232 . S
C456 O457 1.218 . S
O457 C456 1.218 . S
C458 O451 1.275 . S
C458 O453 1.255 . S
C459 O460 1.258 . S
C459 O461 1.256 . S
O460 Cd452 2.381 . S
O460 C459 1.258 . S
O461 Cd452 2.378 . S
O461 C459 1.256 . S
O462 Cd463 2.300 . S
O462 C469 1.275 . S
Cd463 O462 2.300 . S
Cd463 O471 2.381 . S
Cd463 O472 2.378 . S
O464 Cd465 2.385 . S
O464 C469 1.255 . S
Cd465 O464 2.385 . S
Cd465 O466 2.317 . S
O466 Cd465 2.317 . S
O466 C467 1.232 . S
C467 O466 1.232 . S
C467 O468 1.218 . S
O468 C467 1.218 . S
C469 O462 1.275 . S
C469 O464 1.255 . S
C470 O471 1.258 . S
C470 O472 1.256 . S
O471 Cd463 2.381 . S
O471 C470 1.258 . S
O472 Cd463 2.378 . S
O472 C470 1.256 . S
O473 Cd474 2.300 . S
O473 C480 1.275 . S
Cd474 O473 2.300 . S
Cd474 O482 2.381 . S
Cd474 O483 2.378 . S
O475 Cd476 2.385 . S
O475 C480 1.255 . S
Cd476 O475 2.385 . S
Cd476 O477 2.317 . S
O477 Cd476 2.317 . S
O477 C478 1.232 . S
C478 O477 1.232 . S
C478 O479 1.218 . S
O479 C478 1.218 . S
C480 O473 1.275 . S
C480 O475 1.255 . S
C481 O482 1.258 . S
C481 O483 1.256 . S
O482 Cd474 2.381 . S
O482 C481 1.258 . S
O483 Cd474 2.378 . S
O483 C481 1.256 . S
O484 Cd485 2.300 . S
O484 C491 1.275 . S
Cd485 O484 2.300 . S
Cd485 O493 2.381 . S
Cd485 O494 2.378 . S
O486 Cd487 2.385 . S
O486 C491 1.255 . S
Cd487 O486 2.385 . S
Cd487 O488 2.317 . S
O488 Cd487 2.317 . S
O488 C489 1.232 . S
C489 O488 1.232 . S
C489 O490 1.218 . S
O490 C489 1.218 . S
C491 O484 1.275 . S
C491 O486 1.255 . S
C492 O493 1.258 . S
C492 O494 1.256 . S
O493 Cd485 2.381 . S
O493 C492 1.258 . S
O494 Cd485 2.378 . S
O494 C492 1.256 . S
O495 Cd496 2.300 . S
O495 C502 1.275 . S
Cd496 O495 2.300 . S
Cd496 O504 2.381 . S
Cd496 O505 2.378 . S
O497 Cd498 2.385 . S
O497 C502 1.255 1_554 S
Cd498 O497 2.385 . S
Cd498 O499 2.317 . S
O499 Cd498 2.317 . S
O499 C500 1.232 . S
C500 O499 1.232 . S
C500 O501 1.218 . S
O501 C500 1.218 . S
C502 O495 1.275 . S
C502 O497 1.255 1_556 S
C503 O504 1.258 . S
C503 O505 1.256 . S
O504 Cd496 2.381 . S
O504 C503 1.258 . S
O505 Cd496 2.378 . S
O505 C503 1.256 . S
O506 Cd507 2.300 . S
O506 C513 1.275 . S
Cd507 O506 2.300 . S
Cd507 O515 2.381 . S
Cd507 O516 2.378 . S
O508 Cd509 2.385 . S
O508 C513 1.255 1_545 S
Cd509 O508 2.385 . S
Cd509 O510 2.317 . S
O510 Cd509 2.317 . S
O510 C511 1.232 . S
C511 O510 1.232 . S
C511 O512 1.218 . S
O512 C511 1.218 . S
C513 O506 1.275 . S
C513 O508 1.255 1_565 S
C514 O515 1.258 . S
C514 O516 1.256 . S
O515 Cd507 2.381 . S
O515 C514 1.258 . S
O516 Cd507 2.378 . S
O516 C514 1.256 . S
O517 Cd518 2.300 . S
O517 C524 1.275 . S
Cd518 O517 2.300 . S
Cd518 O526 2.381 . S
Cd518 O527 2.378 . S
O519 Cd520 2.385 . S
O519 C524 1.255 . S
Cd520 O519 2.385 . S
Cd520 O521 2.317 . S
O521 Cd520 2.317 . S
O521 C522 1.232 . S
C522 O521 1.232 . S
C522 O523 1.218 . S
O523 C522 1.218 . S
C524 O517 1.275 . S
C524 O519 1.255 . S
C525 O526 1.258 . S
C525 O527 1.256 . S
O526 Cd518 2.381 . S
O526 C525 1.258 . S
O527 Cd518 2.378 . S
O527 C525 1.256 . S
H528 C536 0.950 . S
H529 C541 0.950 . S
H530 C538 0.950 . S
H531 C540 0.950 . S
H532 C542 0.950 . S
H533 C544 0.950 . S
H534 C546 0.950 . S
H535 C547 0.950 . S
C536 H528 0.950 . S
C536 C537 1.386 . S
C536 C538 1.391 . S
C537 C536 1.386 . S
C537 C541 1.393 . S
C538 H530 0.950 . S
C538 C536 1.391 . S
C538 C539 1.400 . S
C539 C538 1.400 . S
C539 C540 1.398 . S
C539 C545 1.491 . S
C540 H531 0.950 . S
C540 C539 1.398 . S
C540 C541 1.391 . S
C541 H529 0.950 . S
C541 C537 1.393 . S
C541 C540 1.391 . S
C542 H532 0.950 . S
C542 C543 1.386 . S
C542 C544 1.391 . S
C543 C542 1.386 . S
C543 C547 1.393 . S
C544 H533 0.950 . S
C544 C542 1.391 . S
C544 C545 1.400 . S
C545 C539 1.491 . S
C545 C544 1.400 . S
C545 C546 1.398 . S
C546 H534 0.950 . S
C546 C545 1.398 . S
C546 C547 1.391 . S
C547 H535 0.950 . S
C547 C543 1.393 . S
C547 C546 1.391 . S
H548 C556 0.950 . S
H549 C561 0.950 . S
H550 C558 0.950 . S
H551 C560 0.950 . S
H552 C562 0.950 . S
H553 C564 0.950 . S
H554 C566 0.950 . S
H555 C567 0.950 . S
C556 H548 0.950 . S
C556 C557 1.386 . S
C556 C558 1.391 . S
C557 C556 1.386 . S
C557 C561 1.393 . S
C558 H550 0.950 . S
C558 C556 1.391 . S
C558 C559 1.400 . S
C559 C558 1.400 . S
C559 C560 1.398 . S
C559 C565 1.491 . S
C560 H551 0.950 . S
C560 C559 1.398 . S
C560 C561 1.391 . S
C561 H549 0.950 . S
C561 C557 1.393 . S
C561 C560 1.391 . S
C562 H552 0.950 . S
C562 C563 1.386 . S
C562 C564 1.391 . S
C563 C562 1.386 . S
C563 C567 1.393 . S
C564 H553 0.950 . S
C564 C562 1.391 . S
C564 C565 1.400 . S
C565 C559 1.491 . S
C565 C564 1.400 . S
C565 C566 1.398 . S
C566 H554 0.950 . S
C566 C565 1.398 . S
C566 C567 1.391 . S
C567 H555 0.950 . S
C567 C563 1.393 . S
C567 C566 1.391 . S
H568 C576 0.950 . S
H569 C581 0.950 . S
H570 C578 0.950 . S
H571 C580 0.950 . S
H572 C582 0.950 . S
H573 C584 0.950 . S
H574 C586 0.950 . S
H575 C587 0.950 . S
C576 H568 0.950 . S
C576 C577 1.386 . S
C576 C578 1.391 . S
C577 C576 1.386 . S
C577 C581 1.393 . S
C578 H570 0.950 . S
C578 C576 1.391 . S
C578 C579 1.400 . S
C579 C578 1.400 . S
C579 C580 1.398 . S
C579 C585 1.491 . S
C580 H571 0.950 . S
C580 C579 1.398 . S
C580 C581 1.391 . S
C581 H569 0.950 . S
C581 C577 1.393 . S
C581 C580 1.391 . S
C582 H572 0.950 . S
C582 C583 1.386 . S
C582 C584 1.391 . S
C583 C582 1.386 . S
C583 C587 1.393 . S
C584 H573 0.950 . S
C584 C582 1.391 . S
C584 C585 1.400 . S
C585 C579 1.491 . S
C585 C584 1.400 . S
C585 C586 1.398 . S
C586 H574 0.950 . S
C586 C585 1.398 . S
C586 C587 1.391 . S
C587 H575 0.950 . S
C587 C583 1.393 . S
C587 C586 1.391 . S
H588 C596 0.950 . S
H589 C601 0.950 . S
H590 C598 0.950 . S
H591 C600 0.950 . S
H592 C602 0.950 . S
H593 C604 0.950 . S
H594 C606 0.950 . S
H595 C607 0.950 . S
C596 H588 0.950 . S
C596 C597 1.386 . S
C596 C598 1.391 . S
C597 C596 1.386 . S
C597 C601 1.393 . S
C598 H590 0.950 . S
C598 C596 1.391 . S
C598 C599 1.400 . S
C599 C598 1.400 . S
C599 C600 1.398 . S
C599 C605 1.491 . S
C600 H591 0.950 . S
C600 C599 1.398 . S
C600 C601 1.391 . S
C601 H589 0.950 . S
C601 C597 1.393 . S
C601 C600 1.391 . S
C602 H592 0.950 . S
C602 C603 1.386 . S
C602 C604 1.391 . S
C603 C602 1.386 . S
C603 C607 1.393 . S
C604 H593 0.950 . S
C604 C602 1.391 . S
C604 C605 1.400 . S
C605 C599 1.491 . S
C605 C604 1.400 . S
C605 C606 1.398 . S
C606 H594 0.950 . S
C606 C605 1.398 . S
C606 C607 1.391 . S
C607 H595 0.950 . S
C607 C603 1.393 . S
C607 C606 1.391 . S
H608 C616 0.950 . S
H609 C621 0.950 . S
H610 C618 0.950 . S
H611 C620 0.950 . S
H612 C622 0.950 . S
H613 C624 0.950 . S
H614 C626 0.950 . S
H615 C627 0.950 . S
C616 H608 0.950 . S
C616 C617 1.386 . S
C616 C618 1.391 . S
C617 C616 1.386 . S
C617 C621 1.393 . S
C618 H610 0.950 . S
C618 C616 1.391 . S
C618 C619 1.400 . S
C619 C618 1.400 . S
C619 C620 1.398 . S
C619 C625 1.491 . S
C620 H611 0.950 . S
C620 C619 1.398 . S
C620 C621 1.391 . S
C621 H609 0.950 . S
C621 C617 1.393 . S
C621 C620 1.391 . S
C622 H612 0.950 . S
C622 C623 1.386 . S
C622 C624 1.391 . S
C623 C622 1.386 . S
C623 C627 1.393 . S
C624 H613 0.950 . S
C624 C622 1.391 . S
C624 C625 1.400 . S
C625 C619 1.491 . S
C625 C624 1.400 . S
C625 C626 1.398 . S
C626 H614 0.950 . S
C626 C625 1.398 . S
C626 C627 1.391 . S
C627 H615 0.950 . S
C627 C623 1.393 . S
C627 C626 1.391 . S
H628 C636 0.950 . S
H629 C641 0.950 . S
H630 C638 0.950 . S
H631 C640 0.950 . S
H632 C642 0.950 . S
H633 C644 0.950 . S
H634 C646 0.950 . S
H635 C647 0.950 . S
C636 H628 0.950 . S
C636 C637 1.386 . S
C636 C638 1.391 . S
C637 C636 1.386 . S
C637 C641 1.393 . S
C638 H630 0.950 . S
C638 C636 1.391 . S
C638 C639 1.400 . S
C639 C638 1.400 . S
C639 C640 1.398 . S
C639 C645 1.491 . S
C640 H631 0.950 . S
C640 C639 1.398 . S
C640 C641 1.391 . S
C641 H629 0.950 . S
C641 C637 1.393 . S
C641 C640 1.391 . S
C642 H632 0.950 . S
C642 C643 1.386 . S
C642 C644 1.391 . S
C643 C642 1.386 . S
C643 C647 1.393 . S
C644 H633 0.950 . S
C644 C642 1.391 . S
C644 C645 1.400 . S
C645 C639 1.491 . S
C645 C644 1.400 . S
C645 C646 1.398 . S
C646 H634 0.950 . S
C646 C645 1.398 . S
C646 C647 1.391 . S
C647 H635 0.950 . S
C647 C643 1.393 . S
C647 C646 1.391 . S
H648 C656 0.950 . S
H649 C661 0.950 . S
H650 C658 0.950 . S
H651 C660 0.950 . S
H652 C662 0.950 . S
H653 C664 0.950 . S
H654 C666 0.950 . S
H655 C667 0.950 . S
C656 H648 0.950 . S
C656 C657 1.386 . S
C656 C658 1.391 . S
C657 C656 1.386 . S
C657 C661 1.393 . S
C658 H650 0.950 . S
C658 C656 1.391 . S
C658 C659 1.400 . S
C659 C658 1.400 . S
C659 C660 1.398 . S
C659 C665 1.491 . S
C660 H651 0.950 . S
C660 C659 1.398 . S
C660 C661 1.391 . S
C661 H649 0.950 . S
C661 C657 1.393 . S
C661 C660 1.391 . S
C662 H652 0.950 . S
C662 C663 1.386 . S
C662 C664 1.391 . S
C663 C662 1.386 . S
C663 C667 1.393 . S
C664 H653 0.950 . S
C664 C662 1.391 . S
C664 C665 1.400 . S
C665 C659 1.491 . S
C665 C664 1.400 . S
C665 C666 1.398 . S
C666 H654 0.950 . S
C666 C665 1.398 . S
C666 C667 1.391 . S
C667 H655 0.950 . S
C667 C663 1.393 . S
C667 C666 1.391 . S
H668 C676 0.950 . S
H669 C681 0.950 . S
H670 C678 0.950 . S
H671 C680 0.950 . S
H672 C682 0.950 . S
H673 C684 0.950 . S
H674 C686 0.950 . S
H675 C687 0.950 . S
C676 H668 0.950 . S
C676 C677 1.386 . S
C676 C678 1.391 . S
C677 C676 1.386 . S
C677 C681 1.393 . S
C678 H670 0.950 . S
C678 C676 1.391 . S
C678 C679 1.400 . S
C679 C678 1.400 . S
C679 C680 1.398 . S
C679 C685 1.491 . S
C680 H671 0.950 . S
C680 C679 1.398 . S
C680 C681 1.391 . S
C681 H669 0.950 . S
C681 C677 1.393 . S
C681 C680 1.391 . S
C682 H672 0.950 . S
C682 C683 1.386 . S
C682 C684 1.391 . S
C683 C682 1.386 . S
C683 C687 1.393 . S
C684 H673 0.950 . S
C684 C682 1.391 . S
C684 C685 1.400 . S
C685 C679 1.491 . S
C685 C684 1.400 . S
C685 C686 1.398 . S
C686 H674 0.950 . S
C686 C685 1.398 . S
C686 C687 1.391 . S
C687 H675 0.950 . S
C687 C683 1.393 . S
C687 C686 1.391 . S
H688 C696 0.950 . S
H689 C701 0.950 . S
H690 C698 0.950 . S
H691 C700 0.950 . S
H692 C702 0.950 . S
H693 C704 0.950 . S
H694 C706 0.950 . S
H695 C707 0.950 . S
C696 H688 0.950 . S
C696 C697 1.386 . S
C696 C698 1.391 . S
C697 C696 1.386 . S
C697 C701 1.393 . S
C698 H690 0.950 . S
C698 C696 1.391 . S
C698 C699 1.400 . S
C699 C698 1.400 . S
C699 C700 1.398 . S
C699 C705 1.491 . S
C700 H691 0.950 . S
C700 C699 1.398 . S
C700 C701 1.391 . S
C701 H689 0.950 . S
C701 C697 1.393 . S
C701 C700 1.391 . S
C702 H692 0.950 . S
C702 C703 1.386 . S
C702 C704 1.391 . S
C703 C702 1.386 . S
C703 C707 1.393 . S
C704 H693 0.950 . S
C704 C702 1.391 . S
C704 C705 1.400 . S
C705 C699 1.491 . S
C705 C704 1.400 . S
C705 C706 1.398 . S
C706 H694 0.950 . S
C706 C705 1.398 . S
C706 C707 1.391 . S
C707 H695 0.950 . S
C707 C703 1.393 . S
C707 C706 1.391 . S
H708 C716 0.950 . S
H709 C721 0.950 . S
H710 C718 0.950 . S
H711 C720 0.950 . S
H712 C722 0.950 . S
H713 C724 0.950 . S
H714 C726 0.950 . S
H715 C727 0.950 . S
C716 H708 0.950 . S
C716 C717 1.386 . S
C716 C718 1.391 . S
C717 C716 1.386 . S
C717 C721 1.393 . S
C718 H710 0.950 . S
C718 C716 1.391 . S
C718 C719 1.400 . S
C719 C718 1.400 . S
C719 C720 1.398 . S
C719 C725 1.491 . S
C720 H711 0.950 . S
C720 C719 1.398 . S
C720 C721 1.391 . S
C721 H709 0.950 . S
C721 C717 1.393 . S
C721 C720 1.391 . S
C722 H712 0.950 . S
C722 C723 1.386 . S
C722 C724 1.391 . S
C723 C722 1.386 . S
C723 C727 1.393 . S
C724 H713 0.950 . S
C724 C722 1.391 . S
C724 C725 1.400 . S
C725 C719 1.491 . S
C725 C724 1.400 . S
C725 C726 1.398 . S
C726 H714 0.950 . S
C726 C725 1.398 . S
C726 C727 1.391 . S
C727 H715 0.950 . S
C727 C723 1.393 . S
C727 C726 1.391 . S
H728 C736 0.950 . S
H729 C741 0.950 . S
H730 C738 0.950 . S
H731 C740 0.950 . S
H732 C742 0.950 . S
H733 C744 0.950 . S
H734 C746 0.950 . S
H735 C747 0.950 . S
C736 H728 0.950 . S
C736 C737 1.386 . S
C736 C738 1.391 . S
C737 C736 1.386 . S
C737 C741 1.393 . S
C738 H730 0.950 . S
C738 C736 1.391 . S
C738 C739 1.400 . S
C739 C738 1.400 . S
C739 C740 1.398 . S
C739 C745 1.491 . S
C740 H731 0.950 . S
C740 C739 1.398 . S
C740 C741 1.391 . S
C741 H729 0.950 . S
C741 C737 1.393 . S
C741 C740 1.391 . S
C742 H732 0.950 . S
C742 C743 1.386 . S
C742 C744 1.391 . S
C743 C742 1.386 . S
C743 C747 1.393 . S
C744 H733 0.950 . S
C744 C742 1.391 . S
C744 C745 1.400 . S
C745 C739 1.491 . S
C745 C744 1.400 . S
C745 C746 1.398 . S
C746 H734 0.950 . S
C746 C745 1.398 . S
C746 C747 1.391 . S
C747 H735 0.950 . S
C747 C743 1.393 . S
C747 C746 1.391 . S
H748 C756 0.950 . S
H749 C761 0.950 . S
H750 C758 0.950 . S
H751 C760 0.950 . S
H752 C762 0.950 . S
H753 C764 0.950 . S
H754 C766 0.950 . S
H755 C767 0.950 . S
C756 H748 0.950 . S
C756 C757 1.386 . S
C756 C758 1.391 . S
C757 C756 1.386 . S
C757 C761 1.393 . S
C758 H750 0.950 . S
C758 C756 1.391 . S
C758 C759 1.400 . S
C759 C758 1.400 . S
C759 C760 1.398 . S
C759 C765 1.491 . S
C760 H751 0.950 . S
C760 C759 1.398 . S
C760 C761 1.391 . S
C761 H749 0.950 . S
C761 C757 1.393 . S
C761 C760 1.391 . S
C762 H752 0.950 . S
C762 C763 1.386 . S
C762 C764 1.391 . S
C763 C762 1.386 . S
C763 C767 1.393 . S
C764 H753 0.950 . S
C764 C762 1.391 . S
C764 C765 1.400 . S
C765 C759 1.491 . S
C765 C764 1.400 . S
C765 C766 1.398 . S
C766 H754 0.950 . S
C766 C765 1.398 . S
C766 C767 1.391 . S
C767 H755 0.950 . S
C767 C763 1.393 . S
C767 C766 1.391 . S
H768 C776 0.950 . S
H769 C781 0.950 . S
H770 C778 0.950 . S
H771 C780 0.950 . S
H772 C782 0.950 . S
H773 C784 0.950 . S
H774 C786 0.950 . S
H775 C787 0.950 . S
C776 H768 0.950 . S
C776 C777 1.386 . S
C776 C778 1.391 . S
C777 C776 1.386 . S
C777 C781 1.393 . S
C778 H770 0.950 . S
C778 C776 1.391 . S
C778 C779 1.400 . S
C779 C778 1.400 . S
C779 C780 1.398 . S
C779 C785 1.491 . S
C780 H771 0.950 . S
C780 C779 1.398 . S
C780 C781 1.391 . S
C781 H769 0.950 . S
C781 C777 1.393 . S
C781 C780 1.391 . S
C782 H772 0.950 . S
C782 C783 1.386 . S
C782 C784 1.391 . S
C783 C782 1.386 . S
C783 C787 1.393 . S
C784 H773 0.950 . S
C784 C782 1.391 . S
C784 C785 1.400 . S
C785 C779 1.491 . S
C785 C784 1.400 . S
C785 C786 1.398 . S
C786 H774 0.950 . S
C786 C785 1.398 . S
C786 C787 1.391 . S
C787 H775 0.950 . S
C787 C783 1.393 . S
C787 C786 1.391 . S
H788 C796 0.950 . S
H789 C801 0.950 . S
H790 C798 0.950 . S
H791 C800 0.950 . S
H792 C802 0.950 . S
H793 C804 0.950 . S
H794 C806 0.950 . S
H795 C807 0.950 . S
C796 H788 0.950 . S
C796 C797 1.386 . S
C796 C798 1.391 . S
C797 C796 1.386 . S
C797 C801 1.393 . S
C798 H790 0.950 . S
C798 C796 1.391 . S
C798 C799 1.400 . S
C799 C798 1.400 . S
C799 C800 1.398 . S
C799 C805 1.491 . S
C800 H791 0.950 . S
C800 C799 1.398 . S
C800 C801 1.391 . S
C801 H789 0.950 . S
C801 C797 1.393 . S
C801 C800 1.391 . S
C802 H792 0.950 . S
C802 C803 1.386 . S
C802 C804 1.391 . S
C803 C802 1.386 . S
C803 C807 1.393 . S
C804 H793 0.950 . S
C804 C802 1.391 . S
C804 C805 1.400 . S
C805 C799 1.491 . S
C805 C804 1.400 . S
C805 C806 1.398 . S
C806 H794 0.950 . S
C806 C805 1.398 . S
C806 C807 1.391 . S
C807 H795 0.950 . S
C807 C803 1.393 . S
C807 C806 1.391 . S
H808 C816 0.950 . S
H809 C821 0.950 . S
H810 C818 0.950 . S
H811 C820 0.950 . S
H812 C822 0.950 . S
H813 C824 0.950 . S
H814 C826 0.950 . S
H815 C827 0.950 . S
C816 H808 0.950 . S
C816 C817 1.386 . S
C816 C818 1.391 . S
C817 C816 1.386 . S
C817 C821 1.393 . S
C818 H810 0.950 . S
C818 C816 1.391 . S
C818 C819 1.400 . S
C819 C818 1.400 . S
C819 C820 1.398 . S
C819 C825 1.491 . S
C820 H811 0.950 . S
C820 C819 1.398 . S
C820 C821 1.391 . S
C821 H809 0.950 . S
C821 C817 1.393 . S
C821 C820 1.391 . S
C822 H812 0.950 . S
C822 C823 1.386 . S
C822 C824 1.391 . S
C823 C822 1.386 . S
C823 C827 1.393 . S
C824 H813 0.950 . S
C824 C822 1.391 . S
C824 C825 1.400 . S
C825 C819 1.491 . S
C825 C824 1.400 . S
C825 C826 1.398 . S
C826 H814 0.950 . S
C826 C825 1.398 . S
C826 C827 1.391 . S
C827 H815 0.950 . S
C827 C823 1.393 . S
C827 C826 1.391 . S
H828 C836 0.950 . S
H829 C841 0.950 . S
H830 C838 0.950 . S
H831 C840 0.950 . S
H832 C842 0.950 . S
H833 C844 0.950 . S
H834 C846 0.950 . S
H835 C847 0.950 . S
C836 H828 0.950 . S
C836 C837 1.386 . S
C836 C838 1.391 . S
C837 C836 1.386 . S
C837 C841 1.393 . S
C838 H830 0.950 . S
C838 C836 1.391 . S
C838 C839 1.400 . S
C839 C838 1.400 . S
C839 C840 1.398 . S
C839 C845 1.491 . S
C840 H831 0.950 . S
C840 C839 1.398 . S
C840 C841 1.391 . S
C841 H829 0.950 . S
C841 C837 1.393 . S
C841 C840 1.391 . S
C842 H832 0.950 . S
C842 C843 1.386 . S
C842 C844 1.391 . S
C843 C842 1.386 . S
C843 C847 1.393 . S
C844 H833 0.950 . S
C844 C842 1.391 . S
C844 C845 1.400 . S
C845 C839 1.491 . S
C845 C844 1.400 . S
C845 C846 1.398 . S
C846 H834 0.950 . S
C846 C845 1.398 . S
C846 C847 1.391 . S
C847 H835 0.950 . S
C847 C843 1.393 . S
C847 C846 1.391 . S
H848 C856 0.950 . S
H849 C861 0.950 . S
H850 C858 0.950 . S
H851 C860 0.950 . S
H852 C862 0.950 . S
H853 C864 0.950 . S
H854 C866 0.950 . S
H855 C867 0.950 . S
C856 H848 0.950 . S
C856 C857 1.386 . S
C856 C858 1.391 . S
C857 C856 1.386 . S
C857 C861 1.393 . S
C858 H850 0.950 . S
C858 C856 1.391 . S
C858 C859 1.400 . S
C859 C858 1.400 . S
C859 C860 1.398 . S
C859 C865 1.491 . S
C860 H851 0.950 . S
C860 C859 1.398 . S
C860 C861 1.391 . S
C861 H849 0.950 . S
C861 C857 1.393 . S
C861 C860 1.391 . S
C862 H852 0.950 . S
C862 C863 1.386 . S
C862 C864 1.391 . S
C863 C862 1.386 . S
C863 C867 1.393 . S
C864 H853 0.950 . S
C864 C862 1.391 . S
C864 C865 1.400 . S
C865 C859 1.491 . S
C865 C864 1.400 . S
C865 C866 1.398 . S
C866 H854 0.950 . S
C866 C865 1.398 . S
C866 C867 1.391 . S
C867 H855 0.950 . S
C867 C863 1.393 . S
C867 C866 1.391 . S
H868 C876 0.950 . S
H869 C881 0.950 . S
H870 C878 0.950 . S
H871 C880 0.950 . S
H872 C882 0.950 . S
H873 C884 0.950 . S
H874 C886 0.950 . S
H875 C887 0.950 . S
C876 H868 0.950 . S
C876 C877 1.386 . S
C876 C878 1.391 . S
C877 C876 1.386 . S
C877 C881 1.393 . S
C878 H870 0.950 . S
C878 C876 1.391 . S
C878 C879 1.400 . S
C879 C878 1.400 . S
C879 C880 1.398 . S
C879 C885 1.491 . S
C880 H871 0.950 . S
C880 C879 1.398 . S
C880 C881 1.391 . S
C881 H869 0.950 . S
C881 C877 1.393 . S
C881 C880 1.391 . S
C882 H872 0.950 . S
C882 C883 1.386 . S
C882 C884 1.391 . S
C883 C882 1.386 . S
C883 C887 1.393 . S
C884 H873 0.950 . S
C884 C882 1.391 . S
C884 C885 1.400 . S
C885 C879 1.491 . S
C885 C884 1.400 . S
C885 C886 1.398 . S
C886 H874 0.950 . S
C886 C885 1.398 . S
C886 C887 1.391 . S
C887 H875 0.950 . S
C887 C883 1.393 . S
C887 C886 1.391 . S
H888 C896 0.950 . S
H889 C901 0.950 . S
H890 C898 0.950 . S
H891 C900 0.950 . S
H892 C902 0.950 . S
H893 C904 0.950 . S
H894 C906 0.950 . S
H895 C907 0.950 . S
C896 H888 0.950 . S
C896 C897 1.386 . S
C896 C898 1.391 . S
C897 C896 1.386 . S
C897 C901 1.393 . S
C898 H890 0.950 . S
C898 C896 1.391 . S
C898 C899 1.400 . S
C899 C898 1.400 . S
C899 C900 1.398 . S
C899 C905 1.491 . S
C900 H891 0.950 . S
C900 C899 1.398 . S
C900 C901 1.391 . S
C901 H889 0.950 . S
C901 C897 1.393 . S
C901 C900 1.391 . S
C902 H892 0.950 . S
C902 C903 1.386 . S
C902 C904 1.391 . S
C903 C902 1.386 . S
C903 C907 1.393 . S
C904 H893 0.950 . S
C904 C902 1.391 . S
C904 C905 1.400 . S
C905 C899 1.491 . S
C905 C904 1.400 . S
C905 C906 1.398 . S
C906 H894 0.950 . S
C906 C905 1.398 . S
C906 C907 1.391 . S
C907 H895 0.950 . S
C907 C903 1.393 . S
C907 C906 1.391 . S
H908 C916 0.950 . S
H909 C921 0.950 . S
H910 C918 0.950 . S
H911 C920 0.950 . S
H912 C922 0.950 . S
H913 C924 0.950 . S
H914 C926 0.950 . S
H915 C927 0.950 . S
C916 H908 0.950 . S
C916 C917 1.386 . S
C916 C918 1.391 . S
C917 C916 1.386 . S
C917 C921 1.393 . S
C918 H910 0.950 . S
C918 C916 1.391 . S
C918 C919 1.400 . S
C919 C918 1.400 . S
C919 C920 1.398 . S
C919 C925 1.491 . S
C920 H911 0.950 . S
C920 C919 1.398 . S
C920 C921 1.391 . S
C921 H909 0.950 . S
C921 C917 1.393 . S
C921 C920 1.391 . S
C922 H912 0.950 . S
C922 C923 1.386 . S
C922 C924 1.391 . S
C923 C922 1.386 . S
C923 C927 1.393 . S
C924 H913 0.950 . S
C924 C922 1.391 . S
C924 C925 1.400 . S
C925 C919 1.491 . S
C925 C924 1.400 . S
C925 C926 1.398 . S
C926 H914 0.950 . S
C926 C925 1.398 . S
C926 C927 1.391 . S
C927 H915 0.950 . S
C927 C923 1.393 . S
C927 C926 1.391 . S
H928 C936 0.950 . S
H929 C941 0.950 . S
H930 C938 0.950 . S
H931 C940 0.950 . S
H932 C942 0.950 . S
H933 C944 0.950 . S
H934 C946 0.950 . S
H935 C947 0.950 . S
C936 H928 0.950 . S
C936 C937 1.386 . S
C936 C938 1.391 . S
C937 C936 1.386 . S
C937 C941 1.393 . S
C938 H930 0.950 . S
C938 C936 1.391 . S
C938 C939 1.400 . S
C939 C938 1.400 . S
C939 C940 1.398 . S
C939 C945 1.491 . S
C940 H931 0.950 . S
C940 C939 1.398 . S
C940 C941 1.391 . S
C941 H929 0.950 . S
C941 C937 1.393 . S
C941 C940 1.391 . S
C942 H932 0.950 . S
C942 C943 1.386 . S
C942 C944 1.391 . S
C943 C942 1.386 . S
C943 C947 1.393 . S
C944 H933 0.950 . S
C944 C942 1.391 . S
C944 C945 1.400 . S
C945 C939 1.491 . S
C945 C944 1.400 . S
C945 C946 1.398 . S
C946 H934 0.950 . S
C946 C945 1.398 . S
C946 C947 1.391 . S
C947 H935 0.950 . S
C947 C943 1.393 . S
C947 C946 1.391 . S
H948 C956 0.950 . S
H949 C961 0.950 . S
H950 C958 0.950 . S
H951 C960 0.950 . S
H952 C962 0.950 . S
H953 C964 0.950 . S
H954 C966 0.950 . S
H955 C967 0.950 . S
C956 H948 0.950 . S
C956 C957 1.386 . S
C956 C958 1.391 . S
C957 C956 1.386 . S
C957 C961 1.393 . S
C958 H950 0.950 . S
C958 C956 1.391 . S
C958 C959 1.400 . S
C959 C958 1.400 . S
C959 C960 1.398 . S
C959 C965 1.491 . S
C960 H951 0.950 . S
C960 C959 1.398 . S
C960 C961 1.391 . S
C961 H949 0.950 . S
C961 C957 1.393 . S
C961 C960 1.391 . S
C962 H952 0.950 . S
C962 C963 1.386 . S
C962 C964 1.391 . S
C963 C962 1.386 . S
C963 C967 1.393 . S
C964 H953 0.950 . S
C964 C962 1.391 . S
C964 C965 1.400 . S
C965 C959 1.491 . S
C965 C964 1.400 . S
C965 C966 1.398 . S
C966 H954 0.950 . S
C966 C965 1.398 . S
C966 C967 1.391 . S
C967 H955 0.950 . S
C967 C963 1.393 . S
C967 C966 1.391 . S
H968 C976 0.950 . S
H969 C981 0.950 . S
H970 C978 0.950 . S
H971 C980 0.950 . S
H972 C982 0.950 . S
H973 C984 0.950 . S
H974 C986 0.950 . S
H975 C987 0.950 . S
C976 H968 0.950 . S
C976 C977 1.386 . S
C976 C978 1.391 . S
C977 C976 1.386 . S
C977 C981 1.393 . S
C978 H970 0.950 . S
C978 C976 1.391 . S
C978 C979 1.400 . S
C979 C978 1.400 . S
C979 C980 1.398 . S
C979 C985 1.491 . S
C980 H971 0.950 . S
C980 C979 1.398 . S
C980 C981 1.391 . S
C981 H969 0.950 . S
C981 C977 1.393 . S
C981 C980 1.391 . S
C982 H972 0.950 . S
C982 C983 1.386 . S
C982 C984 1.391 . S
C983 C982 1.386 . S
C983 C987 1.393 . S
C984 H973 0.950 . S
C984 C982 1.391 . S
C984 C985 1.400 . S
C985 C979 1.491 . S
C985 C984 1.400 . S
C985 C986 1.398 . S
C986 H974 0.950 . S
C986 C985 1.398 . S
C986 C987 1.391 . S
C987 H975 0.950 . S
C987 C983 1.393 . S
C987 C986 1.391 . S
H988 C996 0.950 . S
H989 C1001 0.950 . S
H990 C998 0.950 . S
H991 C1000 0.950 . S
H992 C1002 0.950 . S
H993 C1004 0.950 . S
H994 C1006 0.950 . S
H995 C1007 0.950 . S
C996 H988 0.950 . S
C996 C997 1.386 . S
C996 C998 1.391 . S
C997 C996 1.386 . S
C997 C1001 1.393 . S
C998 H990 0.950 . S
C998 C996 1.391 . S
C998 C999 1.400 . S
C999 C998 1.400 . S
C999 C1000 1.398 . S
C999 C1005 1.491 . S
C1000 H991 0.950 . S
C1000 C999 1.398 . S
C1000 C1001 1.391 . S
C1001 H989 0.950 . S
C1001 C997 1.393 . S
C1001 C1000 1.391 . S
C1002 H992 0.950 . S
C1002 C1003 1.386 . S
C1002 C1004 1.391 . S
C1003 C1002 1.386 . S
C1003 C1007 1.393 . S
C1004 H993 0.950 . S
C1004 C1002 1.391 . S
C1004 C1005 1.400 . S
C1005 C999 1.491 . S
C1005 C1004 1.400 . S
C1005 C1006 1.398 . S
C1006 H994 0.950 . S
C1006 C1005 1.398 . S
C1006 C1007 1.391 . S
C1007 H995 0.950 . S
C1007 C1003 1.393 . S
C1007 C1006 1.391 . S
H1008 C1016 0.950 . S
H1009 C1021 0.950 . S
H1010 C1018 0.950 . S
H1011 C1020 0.950 . S
H1012 C1022 0.950 . S
H1013 C1024 0.950 . S
H1014 C1026 0.950 . S
H1015 C1027 0.950 . S
C1016 H1008 0.950 . S
C1016 C1017 1.392 . S
C1016 C1018 1.391 . S
C1017 C1016 1.392 . S
C1017 C1021 1.385 1_455 S
C1018 H1010 0.950 . S
C1018 C1016 1.391 . S
C1018 C1019 1.400 1_455 S
C1019 C1018 1.400 1_655 S
C1019 C1020 1.398 . S
C1019 C1025 1.491 . S
C1020 H1011 0.950 . S
C1020 C1019 1.398 . S
C1020 C1021 1.391 . S
C1021 H1009 0.950 . S
C1021 C1017 1.385 1_655 S
C1021 C1020 1.391 . S
C1022 H1012 0.950 . S
C1022 C1023 1.386 . S
C1022 C1024 1.391 . S
C1023 C1022 1.386 . S
C1023 C1027 1.393 1_655 S
C1024 H1013 0.950 . S
C1024 C1022 1.391 . S
C1024 C1025 1.400 . S
C1025 C1019 1.491 . S
C1025 C1024 1.400 . S
C1025 C1026 1.398 1_655 S
C1026 H1014 0.950 . S
C1026 C1025 1.398 1_455 S
C1026 C1027 1.391 . S
C1027 H1015 0.950 . S
C1027 C1023 1.393 1_455 S
C1027 C1026 1.391 . S
H1028 C1036 0.948 1_455 S
H1029 C1041 0.950 . S
H1030 C1038 0.950 . S
H1031 C1040 0.950 . S
H1032 C1042 0.950 . S
H1033 C1044 0.950 . S
H1034 C1046 0.950 . S
H1035 C1047 0.950 . S
C1036 H1028 0.948 1_655 S
C1036 C1037 1.386 . S
C1036 C1038 1.395 . S
C1037 C1036 1.386 . S
C1037 C1041 1.395 . S
C1038 H1030 0.950 . S
C1038 C1036 1.395 . S
C1038 C1039 1.400 . S
C1039 C1038 1.400 . S
C1039 C1040 1.398 . S
C1039 C1045 1.491 . S
C1040 H1031 0.950 . S
C1040 C1039 1.398 . S
C1040 C1041 1.391 . S
C1041 H1029 0.950 . S
C1041 C1037 1.395 . S
C1041 C1040 1.391 . S
C1042 H1032 0.950 . S
C1042 C1043 1.386 . S
C1042 C1044 1.391 . S
C1043 C1042 1.386 . S
C1043 C1047 1.393 . S
C1044 H1033 0.950 . S
C1044 C1042 1.391 . S
C1044 C1045 1.400 . S
C1045 C1039 1.491 . S
C1045 C1044 1.400 . S
C1045 C1046 1.398 . S
C1046 H1034 0.950 . S
C1046 C1045 1.398 . S
C1046 C1047 1.391 . S
C1047 H1035 0.950 . S
C1047 C1043 1.393 . S
C1047 C1046 1.391 . S
H1048 C1056 0.950 . S
H1049 C1061 0.950 . S
H1050 C1058 0.950 . S
H1051 C1060 0.950 . S
H1052 C1062 0.950 . S
H1053 C1064 0.950 . S
H1054 C1066 0.950 . S
H1055 C1067 0.950 . S
C1056 H1048 0.950 . S
C1056 C1057 1.386 . S
C1056 C1058 1.391 . S
C1057 C1056 1.386 . S
C1057 C1061 1.393 . S
C1058 H1050 0.950 . S
C1058 C1056 1.391 . S
C1058 C1059 1.400 . S
C1059 C1058 1.400 . S
C1059 C1060 1.398 . S
C1059 C1065 1.491 . S
C1060 H1051 0.950 . S
C1060 C1059 1.398 . S
C1060 C1061 1.391 . S
C1061 H1049 0.950 . S
C1061 C1057 1.393 . S
C1061 C1060 1.391 . S
C1062 H1052 0.950 . S
C1062 C1063 1.386 . S
C1062 C1064 1.391 . S
C1063 C1062 1.386 . S
C1063 C1067 1.393 . S
C1064 H1053 0.950 . S
C1064 C1062 1.391 . S
C1064 C1065 1.400 . S
C1065 C1059 1.491 . S
C1065 C1064 1.400 . S
C1065 C1066 1.398 . S
C1066 H1054 0.950 . S
C1066 C1065 1.398 . S
C1066 C1067 1.391 . S
C1067 H1055 0.950 . S
C1067 C1063 1.393 . S
C1067 C1066 1.391 . S
H1068 C1076 0.950 . S
H1069 C1081 0.950 . S
H1070 C1078 0.950 . S
H1071 C1080 0.950 . S
H1072 C1082 0.950 . S
H1073 C1084 0.950 . S
H1074 C1086 0.950 . S
H1075 C1087 0.950 . S
C1076 H1068 0.950 . S
C1076 C1077 1.386 . S
C1076 C1078 1.391 . S
C1077 C1076 1.386 . S
C1077 C1081 1.393 . S
C1078 H1070 0.950 . S
C1078 C1076 1.391 . S
C1078 C1079 1.400 . S
C1079 C1078 1.400 . S
C1079 C1080 1.398 . S
C1079 C1085 1.491 . S
C1080 H1071 0.950 . S
C1080 C1079 1.398 . S
C1080 C1081 1.391 . S
C1081 H1069 0.950 . S
C1081 C1077 1.393 . S
C1081 C1080 1.391 . S
C1082 H1072 0.950 . S
C1082 C1083 1.386 . S
C1082 C1084 1.391 . S
C1083 C1082 1.386 . S
C1083 C1087 1.393 . S
C1084 H1073 0.950 . S
C1084 C1082 1.391 . S
C1084 C1085 1.400 . S
C1085 C1079 1.491 . S
C1085 C1084 1.400 . S
C1085 C1086 1.398 . S
C1086 H1074 0.950 . S
C1086 C1085 1.398 . S
C1086 C1087 1.391 . S
C1087 H1075 0.950 . S
C1087 C1083 1.393 . S
C1087 C1086 1.391 . S
H1088 C1096 0.950 . S
H1089 C1101 0.950 . S
H1090 C1098 0.950 . S
H1091 C1100 0.946 1_545 S
H1092 C1102 0.950 . S
H1093 C1104 0.949 1_545 S
H1094 C1106 0.950 . S
H1095 C1107 0.950 . S
C1096 H1088 0.950 . S
C1096 C1097 1.397 . S
C1096 C1098 1.391 . S
C1097 C1096 1.397 . S
C1097 C1101 1.388 1_565 S
C1098 H1090 0.950 . S
C1098 C1096 1.391 . S
C1098 C1099 1.400 . S
C1099 C1098 1.400 . S
C1099 C1100 1.402 . S
C1099 C1105 1.491 . S
C1100 H1091 0.946 1_565 S
C1100 C1099 1.402 . S
C1100 C1101 1.389 1_565 S
C1101 H1089 0.950 . S
C1101 C1097 1.388 1_545 S
C1101 C1100 1.389 1_545 S
C1102 H1092 0.950 . S
C1102 C1103 1.386 . S
C1102 C1104 1.391 . S
C1103 C1102 1.386 . S
C1103 C1107 1.393 . S
C1104 H1093 0.949 1_565 S
C1104 C1102 1.391 . S
C1104 C1105 1.400 . S
C1105 C1099 1.491 . S
C1105 C1104 1.400 . S
C1105 C1106 1.398 . S
C1106 H1094 0.950 . S
C1106 C1105 1.398 . S
C1106 C1107 1.391 . S
C1107 H1095 0.950 . S
C1107 C1103 1.393 . S
C1107 C1106 1.391 . S
H1108 C1116 0.950 . S
H1109 C1121 0.950 . S
H1110 C1118 0.950 . S
H1111 C1120 0.950 . S
H1112 C1122 0.950 . S
H1113 C1124 0.950 . S
H1114 C1126 0.950 . S
H1115 C1127 0.950 . S
C1116 H1108 0.950 . S
C1116 C1117 1.386 . S
C1116 C1118 1.391 . S
C1117 C1116 1.386 . S
C1117 C1121 1.393 . S
C1118 H1110 0.950 . S
C1118 C1116 1.391 . S
C1118 C1119 1.400 . S
C1119 C1118 1.400 . S
C1119 C1120 1.398 . S
C1119 C1125 1.491 . S
C1120 H1111 0.950 . S
C1120 C1119 1.398 . S
C1120 C1121 1.391 . S
C1121 H1109 0.950 . S
C1121 C1117 1.393 . S
C1121 C1120 1.391 . S
C1122 H1112 0.950 . S
C1122 C1123 1.386 . S
C1122 C1124 1.391 . S
C1123 C1122 1.386 . S
C1123 C1127 1.393 . S
C1124 H1113 0.950 . S
C1124 C1122 1.391 . S
C1124 C1125 1.400 . S
C1125 C1119 1.491 . S
C1125 C1124 1.400 . S
C1125 C1126 1.398 . S
C1126 H1114 0.950 . S
C1126 C1125 1.398 . S
C1126 C1127 1.391 . S
C1127 H1115 0.950 . S
C1127 C1123 1.393 . S
C1127 C1126 1.391 . S
H1128 C1136 0.950 . S
H1129 C1141 0.950 . S
H1130 C1138 0.950 . S
H1131 C1140 0.950 . S
H1132 C1142 0.950 . S
H1133 C1144 0.950 . S
H1134 C1146 0.950 . S
H1135 C1147 0.950 . S
C1136 H1128 0.950 . S
C1136 C1137 1.386 . S
C1136 C1138 1.391 . S
C1137 C1136 1.386 . S
C1137 C1141 1.393 . S
C1138 H1130 0.950 . S
C1138 C1136 1.391 . S
C1138 C1139 1.400 . S
C1139 C1138 1.400 . S
C1139 C1140 1.398 . S
C1139 C1145 1.491 . S
C1140 H1131 0.950 . S
C1140 C1139 1.398 . S
C1140 C1141 1.391 . S
C1141 H1129 0.950 . S
C1141 C1137 1.393 . S
C1141 C1140 1.391 . S
C1142 H1132 0.950 . S
C1142 C1143 1.386 . S
C1142 C1144 1.391 . S
C1143 C1142 1.386 . S
C1143 C1147 1.393 . S
C1144 H1133 0.950 . S
C1144 C1142 1.391 . S
C1144 C1145 1.400 . S
C1145 C1139 1.491 . S
C1145 C1144 1.400 . S
C1145 C1146 1.398 . S
C1146 H1134 0.950 . S
C1146 C1145 1.398 . S
C1146 C1147 1.391 . S
C1147 H1135 0.950 . S
C1147 C1143 1.393 . S
C1147 C1146 1.391 . S
H1148 C1156 0.950 . S
H1149 C1161 0.950 . S
H1150 C1158 0.950 . S
H1151 C1160 0.950 . S
H1152 C1162 0.950 . S
H1153 C1164 0.950 . S
H1154 C1166 0.950 . S
H1155 C1167 0.950 . S
C1156 H1148 0.950 . S
C1156 C1157 1.386 . S
C1156 C1158 1.391 . S
C1157 C1156 1.386 . S
C1157 C1161 1.393 . S
C1158 H1150 0.950 . S
C1158 C1156 1.391 . S
C1158 C1159 1.400 . S
C1159 C1158 1.400 . S
C1159 C1160 1.398 . S
C1159 C1165 1.491 . S
C1160 H1151 0.950 . S
C1160 C1159 1.398 . S
C1160 C1161 1.391 . S
C1161 H1149 0.950 . S
C1161 C1157 1.393 . S
C1161 C1160 1.391 . S
C1162 H1152 0.950 . S
C1162 C1163 1.386 . S
C1162 C1164 1.391 . S
C1163 C1162 1.386 . S
C1163 C1167 1.393 . S
C1164 H1153 0.950 . S
C1164 C1162 1.391 . S
C1164 C1165 1.400 . S
C1165 C1159 1.491 . S
C1165 C1164 1.400 . S
C1165 C1166 1.398 . S
C1166 H1154 0.950 . S
C1166 C1165 1.398 . S
C1166 C1167 1.391 . S
C1167 H1155 0.950 . S
C1167 C1163 1.393 . S
C1167 C1166 1.391 . S
H1168 C1176 0.950 . S
H1169 C1181 0.950 . S
H1170 C1178 0.950 . S
H1171 C1180 0.950 . S
H1172 C1182 0.950 . S
H1173 C1184 0.950 . S
H1174 C1186 0.950 . S
H1175 C1187 0.950 . S
C1176 H1168 0.950 . S
C1176 C1177 1.386 . S
C1176 C1178 1.391 . S
C1177 C1176 1.386 . S
C1177 C1181 1.393 . S
C1178 H1170 0.950 . S
C1178 C1176 1.391 . S
C1178 C1179 1.400 . S
C1179 C1178 1.400 . S
C1179 C1180 1.398 . S
C1179 C1185 1.491 . S
C1180 H1171 0.950 . S
C1180 C1179 1.398 . S
C1180 C1181 1.391 . S
C1181 H1169 0.950 . S
C1181 C1177 1.393 . S
C1181 C1180 1.391 . S
C1182 H1172 0.950 . S
C1182 C1183 1.386 . S
C1182 C1184 1.391 . S
C1183 C1182 1.386 . S
C1183 C1187 1.393 . S
C1184 H1173 0.950 . S
C1184 C1182 1.391 . S
C1184 C1185 1.400 . S
C1185 C1179 1.491 . S
C1185 C1184 1.400 . S
C1185 C1186 1.398 . S
C1186 H1174 0.950 . S
C1186 C1185 1.398 . S
C1186 C1187 1.391 . S
C1187 H1175 0.950 . S
C1187 C1183 1.393 . S
C1187 C1186 1.391 . S
H1188 C1196 0.950 . S
H1189 C1201 0.950 . S
H1190 C1198 0.950 . S
H1191 C1200 0.950 . S
H1192 C1202 0.950 . S
H1193 C1204 0.950 . S
H1194 C1206 0.950 . S
H1195 C1207 0.950 . S
C1196 H1188 0.950 . S
C1196 C1197 1.386 . S
C1196 C1198 1.391 . S
C1197 C1196 1.386 . S
C1197 C1201 1.393 . S
C1198 H1190 0.950 . S
C1198 C1196 1.391 . S
C1198 C1199 1.400 . S
C1199 C1198 1.400 . S
C1199 C1200 1.398 . S
C1199 C1205 1.491 . S
C1200 H1191 0.950 . S
C1200 C1199 1.398 . S
C1200 C1201 1.391 . S
C1201 H1189 0.950 . S
C1201 C1197 1.393 . S
C1201 C1200 1.391 . S
C1202 H1192 0.950 . S
C1202 C1203 1.386 . S
C1202 C1204 1.391 . S
C1203 C1202 1.386 . S
C1203 C1207 1.393 . S
C1204 H1193 0.950 . S
C1204 C1202 1.391 . S
C1204 C1205 1.400 . S
C1205 C1199 1.491 . S
C1205 C1204 1.400 . S
C1205 C1206 1.398 . S
C1206 H1194 0.950 . S
C1206 C1205 1.398 . S
C1206 C1207 1.391 . S
C1207 H1195 0.950 . S
C1207 C1203 1.393 . S
C1207 C1206 1.391 . S
H1208 C1216 0.950 . S
H1209 C1221 0.950 . S
H1210 C1218 0.950 . S
H1211 C1220 0.950 . S
H1212 C1222 0.950 . S
H1213 C1224 0.950 . S
H1214 C1226 0.950 . S
H1215 C1227 0.950 . S
C1216 H1208 0.950 . S
C1216 C1217 1.376 1_545 S
C1216 C1218 1.391 . S
C1217 C1216 1.376 1_565 S
C1217 C1221 1.405 . S
C1218 H1210 0.950 . S
C1218 C1216 1.391 . S
C1218 C1219 1.400 1_545 S
C1219 C1218 1.400 1_565 S
C1219 C1220 1.398 . S
C1219 C1225 1.491 . S
C1220 H1211 0.950 . S
C1220 C1219 1.398 . S
C1220 C1221 1.391 . S
C1221 H1209 0.950 . S
C1221 C1217 1.405 . S
C1221 C1220 1.391 . S
C1222 H1212 0.950 . S
C1222 C1223 1.386 . S
C1222 C1224 1.391 . S
C1223 C1222 1.386 . S
C1223 C1227 1.393 1_565 S
C1224 H1213 0.950 . S
C1224 C1222 1.391 . S
C1224 C1225 1.400 . S
C1225 C1219 1.491 . S
C1225 C1224 1.400 . S
C1225 C1226 1.398 1_565 S
C1226 H1214 0.950 . S
C1226 C1225 1.398 1_545 S
C1226 C1227 1.391 . S
C1227 H1215 0.950 . S
C1227 C1223 1.393 1_545 S
C1227 C1226 1.391 . S
H1228 C1236 0.950 . S
H1229 C1241 0.950 . S
H1230 C1238 0.950 . S
H1231 C1240 0.950 . S
H1232 C1242 0.950 . S
H1233 C1244 0.950 . S
H1234 C1246 0.950 . S
H1235 C1247 0.975 . S
C1236 H1228 0.950 . S
C1236 C1237 1.394 . S
C1236 C1238 1.391 . S
C1237 C1236 1.394 . S
C1237 C1241 1.383 1_554 S
C1238 H1230 0.950 . S
C1238 C1236 1.391 . S
C1238 C1239 1.400 1_554 S
C1239 C1238 1.400 1_556 S
C1239 C1240 1.398 . S
C1239 C1245 1.491 . S
C1240 H1231 0.950 . S
C1240 C1239 1.398 . S
C1240 C1241 1.391 . S
C1241 H1229 0.950 . S
C1241 C1237 1.383 1_556 S
C1241 C1240 1.391 . S
C1242 H1232 0.950 . S
C1242 C1243 1.386 . S
C1242 C1244 1.391 . S
C1243 C1242 1.386 . S
C1243 C1247 1.365 1_556 S
C1244 H1233 0.950 . S
C1244 C1242 1.391 . S
C1244 C1245 1.400 . S
C1245 C1239 1.491 . S
C1245 C1244 1.400 . S
C1245 C1246 1.398 1_556 S
C1246 H1234 0.950 . S
C1246 C1245 1.398 1_554 S
C1246 C1247 1.396 . S
C1247 H1235 0.975 . S
C1247 C1243 1.365 1_554 S
C1247 C1246 1.396 . S
H1248 C1256 0.950 . S
H1249 C1261 0.950 . S
H1250 C1258 0.950 . S
H1251 C1260 0.950 . S
H1252 C1262 0.950 . S
H1253 C1264 0.950 . S
H1254 C1266 0.950 . S
H1255 C1267 0.950 . S
C1256 H1248 0.950 . S
C1256 C1257 1.386 . S
C1256 C1258 1.391 . S
C1257 C1256 1.386 . S
C1257 C1261 1.393 . S
C1258 H1250 0.950 . S
C1258 C1256 1.391 . S
C1258 C1259 1.400 . S
C1259 C1258 1.400 . S
C1259 C1260 1.398 . S
C1259 C1265 1.491 . S
C1260 H1251 0.950 . S
C1260 C1259 1.398 . S
C1260 C1261 1.391 . S
C1261 H1249 0.950 . S
C1261 C1257 1.393 . S
C1261 C1260 1.391 . S
C1262 H1252 0.950 . S
C1262 C1263 1.386 . S
C1262 C1264 1.391 . S
C1263 C1262 1.386 . S
C1263 C1267 1.393 . S
C1264 H1253 0.950 . S
C1264 C1262 1.391 . S
C1264 C1265 1.400 . S
C1265 C1259 1.491 . S
C1265 C1264 1.400 . S
C1265 C1266 1.398 . S
C1266 H1254 0.950 . S
C1266 C1265 1.398 . S
C1266 C1267 1.391 . S
C1267 H1255 0.950 . S
C1267 C1263 1.393 . S
C1267 C1266 1.391 . S
H1268 C1276 0.950 . S
H1269 C1281 0.950 . S
H1270 C1278 0.950 . S
H1271 C1280 0.950 . S
H1272 C1282 0.950 . S
H1273 C1284 0.950 . S
H1274 C1286 0.950 . S
H1275 C1287 0.950 . S
C1276 H1268 0.950 . S
C1276 C1277 1.386 . S
C1276 C1278 1.391 . S
C1277 C1276 1.386 . S
C1277 C1281 1.393 . S
C1278 H1270 0.950 . S
C1278 C1276 1.391 . S
C1278 C1279 1.400 . S
C1279 C1278 1.400 . S
C1279 C1280 1.398 . S
C1279 C1285 1.491 . S
C1280 H1271 0.950 . S
C1280 C1279 1.398 . S
C1280 C1281 1.391 . S
C1281 H1269 0.950 . S
C1281 C1277 1.393 . S
C1281 C1280 1.391 . S
C1282 H1272 0.950 . S
C1282 C1283 1.386 . S
C1282 C1284 1.391 . S
C1283 C1282 1.386 . S
C1283 C1287 1.393 . S
C1284 H1273 0.950 . S
C1284 C1282 1.391 . S
C1284 C1285 1.400 . S
C1285 C1279 1.491 . S
C1285 C1284 1.400 . S
C1285 C1286 1.398 . S
C1286 H1274 0.950 . S
C1286 C1285 1.398 . S
C1286 C1287 1.391 . S
C1287 H1275 0.950 . S
C1287 C1283 1.393 . S
C1287 C1286 1.391 . S
H1288 C1296 0.950 . S
H1289 C1301 0.950 . S
H1290 C1298 0.950 . S
H1291 C1300 0.950 . S
H1292 C1302 0.950 . S
H1293 C1304 0.950 . S
H1294 C1306 0.950 . S
H1295 C1307 0.950 . S
C1296 H1288 0.950 . S
C1296 C1297 1.386 . S
C1296 C1298 1.391 . S
C1297 C1296 1.386 . S
C1297 C1301 1.393 . S
C1298 H1290 0.950 . S
C1298 C1296 1.391 . S
C1298 C1299 1.400 . S
C1299 C1298 1.400 . S
C1299 C1300 1.398 . S
C1299 C1305 1.491 . S
C1300 H1291 0.950 . S
C1300 C1299 1.398 . S
C1300 C1301 1.391 . S
C1301 H1289 0.950 . S
C1301 C1297 1.393 . S
C1301 C1300 1.391 . S
C1302 H1292 0.950 . S
C1302 C1303 1.386 . S
C1302 C1304 1.391 . S
C1303 C1302 1.386 . S
C1303 C1307 1.393 . S
C1304 H1293 0.950 . S
C1304 C1302 1.391 . S
C1304 C1305 1.400 . S
C1305 C1299 1.491 . S
C1305 C1304 1.400 . S
C1305 C1306 1.398 . S
C1306 H1294 0.950 . S
C1306 C1305 1.398 . S
C1306 C1307 1.391 . S
C1307 H1295 0.950 . S
C1307 C1303 1.393 . S
C1307 C1306 1.391 . S
H1308 C1316 0.950 . S
H1309 C1321 0.950 . S
H1310 C1318 0.950 . S
H1311 C1320 0.950 . S
H1312 C1322 0.950 . S
H1313 C1324 0.950 . S
H1314 C1326 0.950 . S
H1315 C1327 0.950 . S
C1316 H1308 0.950 . S
C1316 C1317 1.386 . S
C1316 C1318 1.391 . S
C1317 C1316 1.386 . S
C1317 C1321 1.393 . S
C1318 H1310 0.950 . S
C1318 C1316 1.391 . S
C1318 C1319 1.400 . S
C1319 C1318 1.400 . S
C1319 C1320 1.398 . S
C1319 C1325 1.491 . S
C1320 H1311 0.950 . S
C1320 C1319 1.398 . S
C1320 C1321 1.391 . S
C1321 H1309 0.950 . S
C1321 C1317 1.393 . S
C1321 C1320 1.391 . S
C1322 H1312 0.950 . S
C1322 C1323 1.386 . S
C1322 C1324 1.391 . S
C1323 C1322 1.386 . S
C1323 C1327 1.393 . S
C1324 H1313 0.950 . S
C1324 C1322 1.391 . S
C1324 C1325 1.400 . S
C1325 C1319 1.491 . S
C1325 C1324 1.400 . S
C1325 C1326 1.398 . S
C1326 H1314 0.950 . S
C1326 C1325 1.398 . S
C1326 C1327 1.391 . S
C1327 H1315 0.950 . S
C1327 C1323 1.393 . S
C1327 C1326 1.391 . S
H1328 C1336 0.950 . S
H1329 C1341 0.950 . S
H1330 C1338 0.950 . S
H1331 C1340 0.950 . S
H1332 C1342 0.950 . S
H1333 C1344 0.950 . S
H1334 C1346 0.950 . S
H1335 C1347 0.950 . S
C1336 H1328 0.950 . S
C1336 C1337 1.386 . S
C1336 C1338 1.391 . S
C1337 C1336 1.386 . S
C1337 C1341 1.393 . S
C1338 H1330 0.950 . S
C1338 C1336 1.391 . S
C1338 C1339 1.400 . S
C1339 C1338 1.400 . S
C1339 C1340 1.398 . S
C1339 C1345 1.491 . S
C1340 H1331 0.950 . S
C1340 C1339 1.398 . S
C1340 C1341 1.391 . S
C1341 H1329 0.950 . S
C1341 C1337 1.393 . S
C1341 C1340 1.391 . S
C1342 H1332 0.950 . S
C1342 C1343 1.386 . S
C1342 C1344 1.391 . S
C1343 C1342 1.386 . S
C1343 C1347 1.393 . S
C1344 H1333 0.950 . S
C1344 C1342 1.391 . S
C1344 C1345 1.400 . S
C1345 C1339 1.491 . S
C1345 C1344 1.400 . S
C1345 C1346 1.398 . S
C1346 H1334 0.950 . S
C1346 C1345 1.398 . S
C1346 C1347 1.391 . S
C1347 H1335 0.950 . S
C1347 C1343 1.393 . S
C1347 C1346 1.391 . S
H1348 C1356 0.950 . S
H1349 C1361 0.950 . S
H1350 C1358 0.950 . S
H1351 C1360 0.950 . S
H1352 C1362 0.950 . S
H1353 C1364 0.950 . S
H1354 C1366 0.950 . S
H1355 C1367 0.950 . S
C1356 H1348 0.950 . S
C1356 C1357 1.386 . S
C1356 C1358 1.391 . S
C1357 C1356 1.386 . S
C1357 C1361 1.393 . S
C1358 H1350 0.950 . S
C1358 C1356 1.391 . S
C1358 C1359 1.400 . S
C1359 C1358 1.400 . S
C1359 C1360 1.398 . S
C1359 C1365 1.491 . S
C1360 H1351 0.950 . S
C1360 C1359 1.398 . S
C1360 C1361 1.391 . S
C1361 H1349 0.950 . S
C1361 C1357 1.393 . S
C1361 C1360 1.391 . S
C1362 H1352 0.950 . S
C1362 C1363 1.386 . S
C1362 C1364 1.391 . S
C1363 C1362 1.386 . S
C1363 C1367 1.393 . S
C1364 H1353 0.950 . S
C1364 C1362 1.391 . S
C1364 C1365 1.400 . S
C1365 C1359 1.491 . S
C1365 C1364 1.400 . S
C1365 C1366 1.398 . S
C1366 H1354 0.950 . S
C1366 C1365 1.398 . S
C1366 C1367 1.391 . S
C1367 H1355 0.950 . S
C1367 C1363 1.393 . S
C1367 C1366 1.391 . S
H1368 C1376 0.950 . S
H1369 C1381 0.950 . S
H1370 C1378 0.950 . S
H1371 C1380 0.950 . S
H1372 C1382 0.950 . S
H1373 C1384 0.950 . S
H1374 C1386 0.950 . S
H1375 C1387 0.950 . S
C1376 H1368 0.950 . S
C1376 C1377 1.386 . S
C1376 C1378 1.391 . S
C1377 C1376 1.386 . S
C1377 C1381 1.393 . S
C1378 H1370 0.950 . S
C1378 C1376 1.391 . S
C1378 C1379 1.400 . S
C1379 C1378 1.400 . S
C1379 C1380 1.398 . S
C1379 C1385 1.491 . S
C1380 H1371 0.950 . S
C1380 C1379 1.398 . S
C1380 C1381 1.391 . S
C1381 H1369 0.950 . S
C1381 C1377 1.393 . S
C1381 C1380 1.391 . S
C1382 H1372 0.950 . S
C1382 C1383 1.386 . S
C1382 C1384 1.391 . S
C1383 C1382 1.386 . S
C1383 C1387 1.393 . S
C1384 H1373 0.950 . S
C1384 C1382 1.391 . S
C1384 C1385 1.400 . S
C1385 C1379 1.491 . S
C1385 C1384 1.400 . S
C1385 C1386 1.398 . S
C1386 H1374 0.950 . S
C1386 C1385 1.398 . S
C1386 C1387 1.391 . S
C1387 H1375 0.950 . S
C1387 C1383 1.393 . S
C1387 C1386 1.391 . S
H1388 C1396 0.950 . S
H1389 C1401 0.950 . S
H1390 C1398 0.950 . S
H1391 C1400 0.950 . S
H1392 C1402 0.950 . S
H1393 C1404 0.950 . S
H1394 C1406 0.950 . S
H1395 C1407 0.950 . S
C1396 H1388 0.950 . S
C1396 C1397 1.386 . S
C1396 C1398 1.391 . S
C1397 C1396 1.386 . S
C1397 C1401 1.393 . S
C1398 H1390 0.950 . S
C1398 C1396 1.391 . S
C1398 C1399 1.400 . S
C1399 C1398 1.400 . S
C1399 C1400 1.398 . S
C1399 C1405 1.491 . S
C1400 H1391 0.950 . S
C1400 C1399 1.398 . S
C1400 C1401 1.391 . S
C1401 H1389 0.950 . S
C1401 C1397 1.393 . S
C1401 C1400 1.391 . S
C1402 H1392 0.950 . S
C1402 C1403 1.386 . S
C1402 C1404 1.391 . S
C1403 C1402 1.386 . S
C1403 C1407 1.393 . S
C1404 H1393 0.950 . S
C1404 C1402 1.391 . S
C1404 C1405 1.400 . S
C1405 C1399 1.491 . S
C1405 C1404 1.400 . S
C1405 C1406 1.398 . S
C1406 H1394 0.950 . S
C1406 C1405 1.398 . S
C1406 C1407 1.391 . S
C1407 H1395 0.950 . S
C1407 C1403 1.393 . S
C1407 C1406 1.391 . S
H1408 C1416 0.950 . S
H1409 C1421 0.950 . S
H1410 C1418 0.950 . S
H1411 C1420 0.950 . S
H1412 C1422 0.950 . S
H1413 C1424 0.950 . S
H1414 C1426 0.950 . S
H1415 C1427 0.950 . S
C1416 H1408 0.950 . S
C1416 C1417 1.386 . S
C1416 C1418 1.391 . S
C1417 C1416 1.386 . S
C1417 C1421 1.393 . S
C1418 H1410 0.950 . S
C1418 C1416 1.391 . S
C1418 C1419 1.400 . S
C1419 C1418 1.400 . S
C1419 C1420 1.398 . S
C1419 C1425 1.491 . S
C1420 H1411 0.950 . S
C1420 C1419 1.398 . S
C1420 C1421 1.391 . S
C1421 H1409 0.950 . S
C1421 C1417 1.393 . S
C1421 C1420 1.391 . S
C1422 H1412 0.950 . S
C1422 C1423 1.386 . S
C1422 C1424 1.391 . S
C1423 C1422 1.386 . S
C1423 C1427 1.393 . S
C1424 H1413 0.950 . S
C1424 C1422 1.391 . S
C1424 C1425 1.400 . S
C1425 C1419 1.491 . S
C1425 C1424 1.400 . S
C1425 C1426 1.398 . S
C1426 H1414 0.950 . S
C1426 C1425 1.398 . S
C1426 C1427 1.391 . S
C1427 H1415 0.950 . S
C1427 C1423 1.393 . S
C1427 C1426 1.391 . S
H1428 C1436 0.950 . S
H1429 C1441 0.950 . S
H1430 C1438 0.950 . S
H1431 C1440 0.950 . S
H1432 C1442 0.950 . S
H1433 C1444 0.950 . S
H1434 C1446 0.950 . S
H1435 C1447 0.950 . S
C1436 H1428 0.950 . S
C1436 C1437 1.386 . S
C1436 C1438 1.391 . S
C1437 C1436 1.386 . S
C1437 C1441 1.393 . S
C1438 H1430 0.950 . S
C1438 C1436 1.391 . S
C1438 C1439 1.400 . S
C1439 C1438 1.400 . S
C1439 C1440 1.398 . S
C1439 C1445 1.491 . S
C1440 H1431 0.950 . S
C1440 C1439 1.398 . S
C1440 C1441 1.391 . S
C1441 H1429 0.950 . S
C1441 C1437 1.393 . S
C1441 C1440 1.391 . S
C1442 H1432 0.950 . S
C1442 C1443 1.386 . S
C1442 C1444 1.391 . S
C1443 C1442 1.386 . S
C1443 C1447 1.393 . S
C1444 H1433 0.950 . S
C1444 C1442 1.391 . S
C1444 C1445 1.400 . S
C1445 C1439 1.491 . S
C1445 C1444 1.400 . S
C1445 C1446 1.398 . S
C1446 H1434 0.950 . S
C1446 C1445 1.398 . S
C1446 C1447 1.391 . S
C1447 H1435 0.950 . S
C1447 C1443 1.393 . S
C1447 C1446 1.391 . S
H1448 C1456 0.950 . S
H1449 C1461 0.950 . S
H1450 C1458 0.950 . S
H1451 C1460 0.950 . S
H1452 C1462 0.950 . S
H1453 C1464 0.950 . S
H1454 C1466 0.950 . S
H1455 C1467 0.950 . S
C1456 H1448 0.950 . S
C1456 C1457 1.386 . S
C1456 C1458 1.391 . S
C1457 C1456 1.386 . S
C1457 C1461 1.393 1_556 S
C1458 H1450 0.950 . S
C1458 C1456 1.391 . S
C1458 C1459 1.400 . S
C1459 C1458 1.400 . S
C1459 C1460 1.398 1_556 S
C1459 C1465 1.491 . S
C1460 H1451 0.950 . S
C1460 C1459 1.398 1_554 S
C1460 C1461 1.391 . S
C1461 H1449 0.950 . S
C1461 C1457 1.393 1_554 S
C1461 C1460 1.391 . S
C1462 H1452 0.950 . S
C1462 C1463 1.388 . S
C1462 C1464 1.391 . S
C1463 C1462 1.388 . S
C1463 C1467 1.390 1_554 S
C1464 H1453 0.950 . S
C1464 C1462 1.391 . S
C1464 C1465 1.400 1_554 S
C1465 C1459 1.491 . S
C1465 C1464 1.400 1_556 S
C1465 C1466 1.398 . S
C1466 H1454 0.950 . S
C1466 C1465 1.398 . S
C1466 C1467 1.391 . S
C1467 H1455 0.950 . S
C1467 C1463 1.390 1_556 S
C1467 C1466 1.391 . S
H1468 C1476 0.950 . S
H1469 C1481 0.950 . S
H1470 C1478 0.950 . S
H1471 C1480 0.950 . S
H1472 C1482 0.950 . S
H1473 C1484 0.950 . S
H1474 C1486 0.950 . S
H1475 C1487 0.950 . S
C1476 H1468 0.950 . S
C1476 C1477 1.386 . S
C1476 C1478 1.391 . S
C1477 C1476 1.386 . S
C1477 C1481 1.393 . S
C1478 H1470 0.950 . S
C1478 C1476 1.391 . S
C1478 C1479 1.400 . S
C1479 C1478 1.400 . S
C1479 C1480 1.398 . S
C1479 C1485 1.491 . S
C1480 H1471 0.950 . S
C1480 C1479 1.398 . S
C1480 C1481 1.391 . S
C1481 H1469 0.950 . S
C1481 C1477 1.393 . S
C1481 C1480 1.391 . S
C1482 H1472 0.950 . S
C1482 C1483 1.386 . S
C1482 C1484 1.391 . S
C1483 C1482 1.386 . S
C1483 C1487 1.393 . S
C1484 H1473 0.950 . S
C1484 C1482 1.391 . S
C1484 C1485 1.400 . S
C1485 C1479 1.491 . S
C1485 C1484 1.400 . S
C1485 C1486 1.398 . S
C1486 H1474 0.950 . S
C1486 C1485 1.398 . S
C1486 C1487 1.391 . S
C1487 H1475 0.950 . S
C1487 C1483 1.393 . S
C1487 C1486 1.391 . S
H1488 C1496 0.950 . S
H1489 C1501 0.950 . S
H1490 C1498 0.950 . S
H1491 C1500 0.950 . S
H1492 C1502 0.950 . S
H1493 C1504 0.950 . S
H1494 C1506 0.950 . S
H1495 C1507 0.950 . S
C1496 H1488 0.950 . S
C1496 C1497 1.386 . S
C1496 C1498 1.391 . S
C1497 C1496 1.386 . S
C1497 C1501 1.393 . S
C1498 H1490 0.950 . S
C1498 C1496 1.391 . S
C1498 C1499 1.400 . S
C1499 C1498 1.400 . S
C1499 C1500 1.398 . S
C1499 C1505 1.491 . S
C1500 H1491 0.950 . S
C1500 C1499 1.398 . S
C1500 C1501 1.391 . S
C1501 H1489 0.950 . S
C1501 C1497 1.393 . S
C1501 C1500 1.391 . S
C1502 H1492 0.950 . S
C1502 C1503 1.386 . S
C1502 C1504 1.391 . S
C1503 C1502 1.386 . S
C1503 C1507 1.393 . S
C1504 H1493 0.950 . S
C1504 C1502 1.391 . S
C1504 C1505 1.400 . S
C1505 C1499 1.491 . S
C1505 C1504 1.400 . S
C1505 C1506 1.398 . S
C1506 H1494 0.950 . S
C1506 C1505 1.398 . S
C1506 C1507 1.391 . S
C1507 H1495 0.950 . S
C1507 C1503 1.393 . S
C1507 C1506 1.391 . S
H1508 C1516 0.950 . S
H1509 C1521 0.950 . S
H1510 C1518 0.950 . S
H1511 C1520 0.950 . S
H1512 C1522 0.950 . S
H1513 C1524 0.950 . S
H1514 C1526 0.950 . S
H1515 C1527 0.950 . S
C1516 H1508 0.950 . S
C1516 C1517 1.386 . S
C1516 C1518 1.391 . S
C1517 C1516 1.386 . S
C1517 C1521 1.393 . S
C1518 H1510 0.950 . S
C1518 C1516 1.391 . S
C1518 C1519 1.400 . S
C1519 C1518 1.400 . S
C1519 C1520 1.398 . S
C1519 C1525 1.491 . S
C1520 H1511 0.950 . S
C1520 C1519 1.398 . S
C1520 C1521 1.391 . S
C1521 H1509 0.950 . S
C1521 C1517 1.393 . S
C1521 C1520 1.391 . S
C1522 H1512 0.950 . S
C1522 C1523 1.386 . S
C1522 C1524 1.391 . S
C1523 C1522 1.386 . S
C1523 C1527 1.393 . S
C1524 H1513 0.950 . S
C1524 C1522 1.391 . S
C1524 C1525 1.400 . S
C1525 C1519 1.491 . S
C1525 C1524 1.400 . S
C1525 C1526 1.398 . S
C1526 H1514 0.950 . S
C1526 C1525 1.398 . S
C1526 C1527 1.391 . S
C1527 H1515 0.950 . S
C1527 C1523 1.393 . S
C1527 C1526 1.391 . S
H1528 C1536 0.950 . S
H1529 C1541 0.950 . S
H1530 C1538 0.950 . S
H1531 C1540 0.950 . S
H1532 C1542 0.950 . S
H1533 C1544 0.950 . S
H1534 C1546 0.950 . S
H1535 C1547 0.950 . S
C1536 H1528 0.950 . S
C1536 C1537 1.386 . S
C1536 C1538 1.391 . S
C1537 C1536 1.386 . S
C1537 C1541 1.393 . S
C1538 H1530 0.950 . S
C1538 C1536 1.391 . S
C1538 C1539 1.400 . S
C1539 C1538 1.400 . S
C1539 C1540 1.398 . S
C1539 C1545 1.491 . S
C1540 H1531 0.950 . S
C1540 C1539 1.398 . S
C1540 C1541 1.391 . S
C1541 H1529 0.950 . S
C1541 C1537 1.393 . S
C1541 C1540 1.391 . S
C1542 H1532 0.950 . S
C1542 C1543 1.386 . S
C1542 C1544 1.391 . S
C1543 C1542 1.386 . S
C1543 C1547 1.393 . S
C1544 H1533 0.950 . S
C1544 C1542 1.391 . S
C1544 C1545 1.400 . S
C1545 C1539 1.491 . S
C1545 C1544 1.400 . S
C1545 C1546 1.398 . S
C1546 H1534 0.950 . S
C1546 C1545 1.398 . S
C1546 C1547 1.391 . S
C1547 H1535 0.950 . S
C1547 C1543 1.393 . S
C1547 C1546 1.391 . S
H1548 C1556 0.950 . S
H1549 C1561 0.950 . S
H1550 C1558 0.950 . S
H1551 C1560 0.950 . S
H1552 C1562 0.950 . S
H1553 C1564 0.950 . S
H1554 C1566 0.950 . S
H1555 C1567 0.950 . S
C1556 H1548 0.950 . S
C1556 C1557 1.386 . S
C1556 C1558 1.391 . S
C1557 C1556 1.386 . S
C1557 C1561 1.393 . S
C1558 H1550 0.950 . S
C1558 C1556 1.391 . S
C1558 C1559 1.400 . S
C1559 C1558 1.400 . S
C1559 C1560 1.398 . S
C1559 C1565 1.491 . S
C1560 H1551 0.950 . S
C1560 C1559 1.398 . S
C1560 C1561 1.391 . S
C1561 H1549 0.950 . S
C1561 C1557 1.393 . S
C1561 C1560 1.391 . S
C1562 H1552 0.950 . S
C1562 C1563 1.386 . S
C1562 C1564 1.391 . S
C1563 C1562 1.386 . S
C1563 C1567 1.393 . S
C1564 H1553 0.950 . S
C1564 C1562 1.391 . S
C1564 C1565 1.400 . S
C1565 C1559 1.491 . S
C1565 C1564 1.400 . S
C1565 C1566 1.398 . S
C1566 H1554 0.950 . S
C1566 C1565 1.398 . S
C1566 C1567 1.391 . S
C1567 H1555 0.950 . S
C1567 C1563 1.393 . S
C1567 C1566 1.391 . S
H1568 C1576 0.950 . S
H1569 C1581 0.950 . S
H1570 C1578 0.950 . S
H1571 C1580 0.950 . S
H1572 C1582 0.950 . S
H1573 C1584 0.950 . S
H1574 C1586 0.950 . S
H1575 C1587 0.950 . S
C1576 H1568 0.950 . S
C1576 C1577 1.386 . S
C1576 C1578 1.391 . S
C1577 C1576 1.386 . S
C1577 C1581 1.393 . S
C1578 H1570 0.950 . S
C1578 C1576 1.391 . S
C1578 C1579 1.400 . S
C1579 C1578 1.400 . S
C1579 C1580 1.398 . S
C1579 C1585 1.491 . S
C1580 H1571 0.950 . S
C1580 C1579 1.398 . S
C1580 C1581 1.391 . S
C1581 H1569 0.950 . S
C1581 C1577 1.393 . S
C1581 C1580 1.391 . S
C1582 H1572 0.950 . S
C1582 C1583 1.386 . S
C1582 C1584 1.391 . S
C1583 C1582 1.386 . S
C1583 C1587 1.393 . S
C1584 H1573 0.950 . S
C1584 C1582 1.391 . S
C1584 C1585 1.400 . S
C1585 C1579 1.491 . S
C1585 C1584 1.400 . S
C1585 C1586 1.398 . S
C1586 H1574 0.950 . S
C1586 C1585 1.398 . S
C1586 C1587 1.391 . S
C1587 H1575 0.950 . S
C1587 C1583 1.393 . S
C1587 C1586 1.391 . S
H1588 C1596 0.950 . S
H1589 C1601 0.950 . S
H1590 C1598 0.950 . S
H1591 C1600 0.950 . S
H1592 C1602 0.950 . S
H1593 C1604 0.950 . S
H1594 C1606 0.950 . S
H1595 C1607 0.950 . S
C1596 H1588 0.950 . S
C1596 C1597 1.386 . S
C1596 C1598 1.391 . S
C1597 C1596 1.386 . S
C1597 C1601 1.393 . S
C1598 H1590 0.950 . S
C1598 C1596 1.391 . S
C1598 C1599 1.400 . S
C1599 C1598 1.400 . S
C1599 C1600 1.398 . S
C1599 C1605 1.491 . S
C1600 H1591 0.950 . S
C1600 C1599 1.398 . S
C1600 C1601 1.391 . S
C1601 H1589 0.950 . S
C1601 C1597 1.393 . S
C1601 C1600 1.391 . S
C1602 H1592 0.950 . S
C1602 C1603 1.386 . S
C1602 C1604 1.391 . S
C1603 C1602 1.386 . S
C1603 C1607 1.393 . S
C1604 H1593 0.950 . S
C1604 C1602 1.391 . S
C1604 C1605 1.400 . S
C1605 C1599 1.491 . S
C1605 C1604 1.400 . S
C1605 C1606 1.398 . S
C1606 H1594 0.950 . S
C1606 C1605 1.398 . S
C1606 C1607 1.391 . S
C1607 H1595 0.950 . S
C1607 C1603 1.393 . S
C1607 C1606 1.391 . S
H1608 C1616 0.950 . S
H1609 C1621 0.950 . S
H1610 C1618 0.950 . S
H1611 C1620 0.950 . S
H1612 C1622 0.950 . S
H1613 C1624 0.950 . S
H1614 C1626 0.950 . S
H1615 C1627 0.950 . S
C1616 H1608 0.950 . S
C1616 C1617 1.386 . S
C1616 C1618 1.391 . S
C1617 C1616 1.386 . S
C1617 C1621 1.393 . S
C1618 H1610 0.950 . S
C1618 C1616 1.391 . S
C1618 C1619 1.400 . S
C1619 C1618 1.400 . S
C1619 C1620 1.398 . S
C1619 C1625 1.491 . S
C1620 H1611 0.950 . S
C1620 C1619 1.398 . S
C1620 C1621 1.391 . S
C1621 H1609 0.950 . S
C1621 C1617 1.393 . S
C1621 C1620 1.391 . S
C1622 H1612 0.950 . S
C1622 C1623 1.386 . S
C1622 C1624 1.391 . S
C1623 C1622 1.386 . S
C1623 C1627 1.393 . S
C1624 H1613 0.950 . S
C1624 C1622 1.391 . S
C1624 C1625 1.400 . S
C1625 C1619 1.491 . S
C1625 C1624 1.400 . S
C1625 C1626 1.398 . S
C1626 H1614 0.950 . S
C1626 C1625 1.398 . S
C1626 C1627 1.391 . S
C1627 H1615 0.950 . S
C1627 C1623 1.393 . S
C1627 C1626 1.391 . S
H1628 C1636 0.950 . S
H1629 C1641 0.950 . S
H1630 C1638 0.950 . S
H1631 C1640 0.950 . S
H1632 C1642 0.950 . S
H1633 C1644 0.950 . S
H1634 C1646 0.950 . S
H1635 C1647 0.950 . S
C1636 H1628 0.950 . S
C1636 C1637 1.386 . S
C1636 C1638 1.391 . S
C1637 C1636 1.386 . S
C1637 C1641 1.393 . S
C1638 H1630 0.950 . S
C1638 C1636 1.391 . S
C1638 C1639 1.400 . S
C1639 C1638 1.400 . S
C1639 C1640 1.398 . S
C1639 C1645 1.491 . S
C1640 H1631 0.950 . S
C1640 C1639 1.398 . S
C1640 C1641 1.391 . S
C1641 H1629 0.950 . S
C1641 C1637 1.393 . S
C1641 C1640 1.391 . S
C1642 H1632 0.950 . S
C1642 C1643 1.386 . S
C1642 C1644 1.391 . S
C1643 C1642 1.386 . S
C1643 C1647 1.393 . S
C1644 H1633 0.950 . S
C1644 C1642 1.391 . S
C1644 C1645 1.400 . S
C1645 C1639 1.491 . S
C1645 C1644 1.400 . S
C1645 C1646 1.398 . S
C1646 H1634 0.950 . S
C1646 C1645 1.398 . S
C1646 C1647 1.391 . S
C1647 H1635 0.950 . S
C1647 C1643 1.393 . S
C1647 C1646 1.391 . S
H1648 C1656 0.950 . S
H1649 C1661 0.950 . S
H1650 C1658 0.950 . S
H1651 C1660 0.950 . S
H1652 C1662 0.950 . S
H1653 C1664 0.950 . S
H1654 C1666 0.950 . S
H1655 C1667 0.950 . S
C1656 H1648 0.950 . S
C1656 C1657 1.386 . S
C1656 C1658 1.391 . S
C1657 C1656 1.386 . S
C1657 C1661 1.393 . S
C1658 H1650 0.950 . S
C1658 C1656 1.391 . S
C1658 C1659 1.400 . S
C1659 C1658 1.400 . S
C1659 C1660 1.398 . S
C1659 C1665 1.491 . S
C1660 H1651 0.950 . S
C1660 C1659 1.398 . S
C1660 C1661 1.391 . S
C1661 H1649 0.950 . S
C1661 C1657 1.393 . S
C1661 C1660 1.391 . S
C1662 H1652 0.950 . S
C1662 C1663 1.386 . S
C1662 C1664 1.391 . S
C1663 C1662 1.386 . S
C1663 C1667 1.393 . S
C1664 H1653 0.950 . S
C1664 C1662 1.391 . S
C1664 C1665 1.400 . S
C1665 C1659 1.491 . S
C1665 C1664 1.400 . S
C1665 C1666 1.398 . S
C1666 H1654 0.950 . S
C1666 C1665 1.398 . S
C1666 C1667 1.391 . S
C1667 H1655 0.950 . S
C1667 C1663 1.393 . S
C1667 C1666 1.391 . S
H1668 C1676 0.950 . S
H1669 C1681 0.950 . S
H1670 C1678 0.950 . S
H1671 C1680 0.950 . S
H1672 C1682 0.950 . S
H1673 C1684 0.950 . S
H1674 C1686 0.950 . S
H1675 C1687 0.950 . S
C1676 H1668 0.950 . S
C1676 C1677 1.386 . S
C1676 C1678 1.391 . S
C1677 C1676 1.386 . S
C1677 C1681 1.393 . S
C1678 H1670 0.950 . S
C1678 C1676 1.391 . S
C1678 C1679 1.400 . S
C1679 C1678 1.400 . S
C1679 C1680 1.398 . S
C1679 C1685 1.491 . S
C1680 H1671 0.950 . S
C1680 C1679 1.398 . S
C1680 C1681 1.391 . S
C1681 H1669 0.950 . S
C1681 C1677 1.393 . S
C1681 C1680 1.391 . S
C1682 H1672 0.950 . S
C1682 C1683 1.386 . S
C1682 C1684 1.391 . S
C1683 C1682 1.386 . S
C1683 C1687 1.393 . S
C1684 H1673 0.950 . S
C1684 C1682 1.391 . S
C1684 C1685 1.400 . S
C1685 C1679 1.491 . S
C1685 C1684 1.400 . S
C1685 C1686 1.398 . S
C1686 H1674 0.950 . S
C1686 C1685 1.398 . S
C1686 C1687 1.391 . S
C1687 H1675 0.950 . S
C1687 C1683 1.393 . S
C1687 C1686 1.391 . S
H1688 C1696 0.950 . S
H1689 C1701 0.950 . S
H1690 C1698 0.950 . S
H1691 C1700 0.950 . S
H1692 C1702 0.950 . S
H1693 C1704 0.950 . S
H1694 C1706 0.950 . S
H1695 C1707 0.950 . S
C1696 H1688 0.950 . S
C1696 C1697 1.386 . S
C1696 C1698 1.391 . S
C1697 C1696 1.386 . S
C1697 C1701 1.393 . S
C1698 H1690 0.950 . S
C1698 C1696 1.391 . S
C1698 C1699 1.400 . S
C1699 C1698 1.400 . S
C1699 C1700 1.398 . S
C1699 C1705 1.491 . S
C1700 H1691 0.950 . S
C1700 C1699 1.398 . S
C1700 C1701 1.391 . S
C1701 H1689 0.950 . S
C1701 C1697 1.393 . S
C1701 C1700 1.391 . S
C1702 H1692 0.950 . S
C1702 C1703 1.386 . S
C1702 C1704 1.391 . S
C1703 C1702 1.386 . S
C1703 C1707 1.393 . S
C1704 H1693 0.950 . S
C1704 C1702 1.391 . S
C1704 C1705 1.400 . S
C1705 C1699 1.491 . S
C1705 C1704 1.400 . S
C1705 C1706 1.398 . S
C1706 H1694 0.950 . S
C1706 C1705 1.398 . S
C1706 C1707 1.391 . S
C1707 H1695 0.950 . S
C1707 C1703 1.393 . S
C1707 C1706 1.391 . S
H1708 C1716 0.950 . S
H1709 C1721 0.950 . S
H1710 C1718 0.950 . S
H1711 C1720 0.950 . S
H1712 C1722 0.950 . S
H1713 C1724 0.950 . S
H1714 C1726 0.950 . S
H1715 C1727 0.950 . S
C1716 H1708 0.950 . S
C1716 C1717 1.386 . S
C1716 C1718 1.391 . S
C1717 C1716 1.386 . S
C1717 C1721 1.393 . S
C1718 H1710 0.950 . S
C1718 C1716 1.391 . S
C1718 C1719 1.400 . S
C1719 C1718 1.400 . S
C1719 C1720 1.398 . S
C1719 C1725 1.491 . S
C1720 H1711 0.950 . S
C1720 C1719 1.398 . S
C1720 C1721 1.391 . S
C1721 H1709 0.950 . S
C1721 C1717 1.393 . S
C1721 C1720 1.391 . S
C1722 H1712 0.950 . S
C1722 C1723 1.386 . S
C1722 C1724 1.391 . S
C1723 C1722 1.386 . S
C1723 C1727 1.393 . S
C1724 H1713 0.950 . S
C1724 C1722 1.391 . S
C1724 C1725 1.400 . S
C1725 C1719 1.491 . S
C1725 C1724 1.400 . S
C1725 C1726 1.398 . S
C1726 H1714 0.950 . S
C1726 C1725 1.398 . S
C1726 C1727 1.391 . S
C1727 H1715 0.950 . S
C1727 C1723 1.393 . S
C1727 C1726 1.391 . S
H1728 C1736 0.950 . S
H1729 C1741 0.950 . S
H1730 C1738 0.950 . S
H1731 C1740 0.950 . S
H1732 C1742 0.950 . S
H1733 C1744 0.950 . S
H1734 C1746 0.950 . S
H1735 C1747 0.950 . S
C1736 H1728 0.950 . S
C1736 C1737 1.386 . S
C1736 C1738 1.391 . S
C1737 C1736 1.386 . S
C1737 C1741 1.393 . S
C1738 H1730 0.950 . S
C1738 C1736 1.391 . S
C1738 C1739 1.400 . S
C1739 C1738 1.400 . S
C1739 C1740 1.398 . S
C1739 C1745 1.491 . S
C1740 H1731 0.950 . S
C1740 C1739 1.398 . S
C1740 C1741 1.391 . S
C1741 H1729 0.950 . S
C1741 C1737 1.393 . S
C1741 C1740 1.391 . S
C1742 H1732 0.950 . S
C1742 C1743 1.386 . S
C1742 C1744 1.391 . S
C1743 C1742 1.386 . S
C1743 C1747 1.393 . S
C1744 H1733 0.950 . S
C1744 C1742 1.391 . S
C1744 C1745 1.400 . S
C1745 C1739 1.491 . S
C1745 C1744 1.400 . S
C1745 C1746 1.398 . S
C1746 H1734 0.950 . S
C1746 C1745 1.398 . S
C1746 C1747 1.391 . S
C1747 H1735 0.950 . S
C1747 C1743 1.393 . S
C1747 C1746 1.391 . S
H1748 C1756 0.950 . S
H1749 C1761 0.950 . S
H1750 C1758 0.950 . S
H1751 C1760 0.950 . S
H1752 C1762 0.950 . S
H1753 C1764 0.950 . S
H1754 C1766 0.950 . S
H1755 C1767 0.950 . S
C1756 H1748 0.950 . S
C1756 C1757 1.386 . S
C1756 C1758 1.391 . S
C1757 C1756 1.386 . S
C1757 C1761 1.393 . S
C1758 H1750 0.950 . S
C1758 C1756 1.391 . S
C1758 C1759 1.400 . S
C1759 C1758 1.400 . S
C1759 C1760 1.398 . S
C1759 C1765 1.491 . S
C1760 H1751 0.950 . S
C1760 C1759 1.398 . S
C1760 C1761 1.391 . S
C1761 H1749 0.950 . S
C1761 C1757 1.393 . S
C1761 C1760 1.391 . S
C1762 H1752 0.950 . S
C1762 C1763 1.386 . S
C1762 C1764 1.391 . S
C1763 C1762 1.386 . S
C1763 C1767 1.393 . S
C1764 H1753 0.950 . S
C1764 C1762 1.391 . S
C1764 C1765 1.400 . S
C1765 C1759 1.491 . S
C1765 C1764 1.400 . S
C1765 C1766 1.398 . S
C1766 H1754 0.950 . S
C1766 C1765 1.398 . S
C1766 C1767 1.391 . S
C1767 H1755 0.950 . S
C1767 C1763 1.393 . S
C1767 C1766 1.391 . S
H1768 C1776 0.950 . S
H1769 C1781 0.950 . S
H1770 C1778 0.950 . S
H1771 C1780 0.950 . S
H1772 C1782 0.950 . S
H1773 C1784 0.950 . S
H1774 C1786 0.950 . S
H1775 C1787 0.950 . S
C1776 H1768 0.950 . S
C1776 C1777 1.386 . S
C1776 C1778 1.391 . S
C1777 C1776 1.386 . S
C1777 C1781 1.393 . S
C1778 H1770 0.950 . S
C1778 C1776 1.391 . S
C1778 C1779 1.400 . S
C1779 C1778 1.400 . S
C1779 C1780 1.398 . S
C1779 C1785 1.491 . S
C1780 H1771 0.950 . S
C1780 C1779 1.398 . S
C1780 C1781 1.391 . S
C1781 H1769 0.950 . S
C1781 C1777 1.393 . S
C1781 C1780 1.391 . S
C1782 H1772 0.950 . S
C1782 C1783 1.386 . S
C1782 C1784 1.391 . S
C1783 C1782 1.386 . S
C1783 C1787 1.393 . S
C1784 H1773 0.950 . S
C1784 C1782 1.391 . S
C1784 C1785 1.400 . S
C1785 C1779 1.491 . S
C1785 C1784 1.400 . S
C1785 C1786 1.398 . S
C1786 H1774 0.950 . S
C1786 C1785 1.398 . S
C1786 C1787 1.391 . S
C1787 H1775 0.950 . S
C1787 C1783 1.393 . S
C1787 C1786 1.391 . S
H1788 C1796 0.950 . S
H1789 C1801 0.950 . S
H1790 C1798 0.950 . S
H1791 C1800 0.950 . S
H1792 C1802 0.950 . S
H1793 C1804 0.950 . S
H1794 C1806 0.950 . S
H1795 C1807 0.950 . S
C1796 H1788 0.950 . S
C1796 C1797 1.386 . S
C1796 C1798 1.391 . S
C1797 C1796 1.386 . S
C1797 C1801 1.393 . S
C1798 H1790 0.950 . S
C1798 C1796 1.391 . S
C1798 C1799 1.400 . S
C1799 C1798 1.400 . S
C1799 C1800 1.398 . S
C1799 C1805 1.491 . S
C1800 H1791 0.950 . S
C1800 C1799 1.398 . S
C1800 C1801 1.391 . S
C1801 H1789 0.950 . S
C1801 C1797 1.393 . S
C1801 C1800 1.391 . S
C1802 H1792 0.950 . S
C1802 C1803 1.386 . S
C1802 C1804 1.391 . S
C1803 C1802 1.386 . S
C1803 C1807 1.393 . S
C1804 H1793 0.950 . S
C1804 C1802 1.391 . S
C1804 C1805 1.400 . S
C1805 C1799 1.491 . S
C1805 C1804 1.400 . S
C1805 C1806 1.398 . S
C1806 H1794 0.950 . S
C1806 C1805 1.398 . S
C1806 C1807 1.391 . S
C1807 H1795 0.950 . S
C1807 C1803 1.393 . S
C1807 C1806 1.391 . S
H1808 C1816 0.950 . S
H1809 C1821 0.950 . S
H1810 C1818 0.950 . S
H1811 C1820 0.950 . S
H1812 C1822 0.950 . S
H1813 C1824 0.950 . S
H1814 C1826 0.950 . S
H1815 C1827 0.950 . S
C1816 H1808 0.950 . S
C1816 C1817 1.386 . S
C1816 C1818 1.391 . S
C1817 C1816 1.386 . S
C1817 C1821 1.393 . S
C1818 H1810 0.950 . S
C1818 C1816 1.391 . S
C1818 C1819 1.400 . S
C1819 C1818 1.400 . S
C1819 C1820 1.398 . S
C1819 C1825 1.491 . S
C1820 H1811 0.950 . S
C1820 C1819 1.398 . S
C1820 C1821 1.391 . S
C1821 H1809 0.950 . S
C1821 C1817 1.393 . S
C1821 C1820 1.391 . S
C1822 H1812 0.950 . S
C1822 C1823 1.386 . S
C1822 C1824 1.391 . S
C1823 C1822 1.386 . S
C1823 C1827 1.393 . S
C1824 H1813 0.950 . S
C1824 C1822 1.391 . S
C1824 C1825 1.400 . S
C1825 C1819 1.491 . S
C1825 C1824 1.400 . S
C1825 C1826 1.398 . S
C1826 H1814 0.950 . S
C1826 C1825 1.398 . S
C1826 C1827 1.391 . S
C1827 H1815 0.950 . S
C1827 C1823 1.393 . S
C1827 C1826 1.391 . S
H1828 C1836 0.950 . S
H1829 C1841 0.950 . S
H1830 C1838 0.950 . S
H1831 C1840 0.950 . S
H1832 C1842 0.950 . S
H1833 C1844 0.950 . S
H1834 C1846 0.950 . S
H1835 C1847 0.950 . S
C1836 H1828 0.950 . S
C1836 C1837 1.386 . S
C1836 C1838 1.391 . S
C1837 C1836 1.386 . S
C1837 C1841 1.393 . S
C1838 H1830 0.950 . S
C1838 C1836 1.391 . S
C1838 C1839 1.400 . S
C1839 C1838 1.400 . S
C1839 C1840 1.398 . S
C1839 C1845 1.491 . S
C1840 H1831 0.950 . S
C1840 C1839 1.398 . S
C1840 C1841 1.391 . S
C1841 H1829 0.950 . S
C1841 C1837 1.393 . S
C1841 C1840 1.391 . S
C1842 H1832 0.950 . S
C1842 C1843 1.386 . S
C1842 C1844 1.391 . S
C1843 C1842 1.386 . S
C1843 C1847 1.393 . S
C1844 H1833 0.950 . S
C1844 C1842 1.391 . S
C1844 C1845 1.400 . S
C1845 C1839 1.491 . S
C1845 C1844 1.400 . S
C1845 C1846 1.398 . S
C1846 H1834 0.950 . S
C1846 C1845 1.398 . S
C1846 C1847 1.391 . S
C1847 H1835 0.950 . S
C1847 C1843 1.393 . S
C1847 C1846 1.391 . S
H1848 C1856 0.950 . S
H1849 C1861 0.950 . S
H1850 C1858 0.950 . S
H1851 C1860 0.950 . S
H1852 C1862 0.950 . S
H1853 C1864 0.950 . S
H1854 C1866 0.950 . S
H1855 C1867 0.950 . S
C1856 H1848 0.950 . S
C1856 C1857 1.386 . S
C1856 C1858 1.391 . S
C1857 C1856 1.386 . S
C1857 C1861 1.393 . S
C1858 H1850 0.950 . S
C1858 C1856 1.391 . S
C1858 C1859 1.400 . S
C1859 C1858 1.400 . S
C1859 C1860 1.398 . S
C1859 C1865 1.491 . S
C1860 H1851 0.950 . S
C1860 C1859 1.398 . S
C1860 C1861 1.391 . S
C1861 H1849 0.950 . S
C1861 C1857 1.393 . S
C1861 C1860 1.391 . S
C1862 H1852 0.950 . S
C1862 C1863 1.386 . S
C1862 C1864 1.391 . S
C1863 C1862 1.386 . S
C1863 C1867 1.393 . S
C1864 H1853 0.950 . S
C1864 C1862 1.391 . S
C1864 C1865 1.400 . S
C1865 C1859 1.491 . S
C1865 C1864 1.400 . S
C1865 C1866 1.398 . S
C1866 H1854 0.950 . S
C1866 C1865 1.398 . S
C1866 C1867 1.391 . S
C1867 H1855 0.950 . S
C1867 C1863 1.393 . S
C1867 C1866 1.391 . S
H1868 C1876 0.950 . S
H1869 C1881 0.950 . S
H1870 C1878 0.950 . S
H1871 C1880 0.950 . S
H1872 C1882 0.950 . S
H1873 C1884 0.950 . S
H1874 C1886 0.950 . S
H1875 C1887 0.950 . S
C1876 H1868 0.950 . S
C1876 C1877 1.386 . S
C1876 C1878 1.391 . S
C1877 C1876 1.386 . S
C1877 C1881 1.393 . S
C1878 H1870 0.950 . S
C1878 C1876 1.391 . S
C1878 C1879 1.400 . S
C1879 C1878 1.400 . S
C1879 C1880 1.398 . S
C1879 C1885 1.491 . S
C1880 H1871 0.950 . S
C1880 C1879 1.398 . S
C1880 C1881 1.391 . S
C1881 H1869 0.950 . S
C1881 C1877 1.393 . S
C1881 C1880 1.391 . S
C1882 H1872 0.950 . S
C1882 C1883 1.386 . S
C1882 C1884 1.391 . S
C1883 C1882 1.386 . S
C1883 C1887 1.393 . S
C1884 H1873 0.950 . S
C1884 C1882 1.391 . S
C1884 C1885 1.400 . S
C1885 C1879 1.491 . S
C1885 C1884 1.400 . S
C1885 C1886 1.398 . S
C1886 H1874 0.950 . S
C1886 C1885 1.398 . S
C1886 C1887 1.391 . S
C1887 H1875 0.950 . S
C1887 C1883 1.393 . S
C1887 C1886 1.391 . S
H1888 C1896 0.950 . S
H1889 C1901 0.950 . S
H1890 C1898 0.950 . S
H1891 C1900 0.950 . S
H1892 C1902 0.950 . S
H1893 C1904 0.950 . S
H1894 C1906 0.950 . S
H1895 C1907 0.950 . S
C1896 H1888 0.950 . S
C1896 C1897 1.386 . S
C1896 C1898 1.391 . S
C1897 C1896 1.386 . S
C1897 C1901 1.393 . S
C1898 H1890 0.950 . S
C1898 C1896 1.391 . S
C1898 C1899 1.400 . S
C1899 C1898 1.400 . S
C1899 C1900 1.398 . S
C1899 C1905 1.491 . S
C1900 H1891 0.950 . S
C1900 C1899 1.398 . S
C1900 C1901 1.391 . S
C1901 H1889 0.950 . S
C1901 C1897 1.393 . S
C1901 C1900 1.391 . S
C1902 H1892 0.950 . S
C1902 C1903 1.386 . S
C1902 C1904 1.391 . S
C1903 C1902 1.386 . S
C1903 C1907 1.393 . S
C1904 H1893 0.950 . S
C1904 C1902 1.391 . S
C1904 C1905 1.400 . S
C1905 C1899 1.491 . S
C1905 C1904 1.400 . S
C1905 C1906 1.398 . S
C1906 H1894 0.950 . S
C1906 C1905 1.398 . S
C1906 C1907 1.391 . S
C1907 H1895 0.950 . S
C1907 C1903 1.393 . S
C1907 C1906 1.391 . S
H1908 C1916 0.950 . S
H1909 C1921 0.950 . S
H1910 C1918 0.950 . S
H1911 C1920 0.950 . S
H1912 C1922 0.950 . S
H1913 C1924 0.950 . S
H1914 C1926 0.950 . S
H1915 C1927 0.950 . S
C1916 H1908 0.950 . S
C1916 C1917 1.386 . S
C1916 C1918 1.391 . S
C1917 C1916 1.386 . S
C1917 C1921 1.393 . S
C1918 H1910 0.950 . S
C1918 C1916 1.391 . S
C1918 C1919 1.400 . S
C1919 C1918 1.400 . S
C1919 C1920 1.398 . S
C1919 C1925 1.491 . S
C1920 H1911 0.950 . S
C1920 C1919 1.398 . S
C1920 C1921 1.391 . S
C1921 H1909 0.950 . S
C1921 C1917 1.393 . S
C1921 C1920 1.391 . S
C1922 H1912 0.950 . S
C1922 C1923 1.386 . S
C1922 C1924 1.391 . S
C1923 C1922 1.386 . S
C1923 C1927 1.393 . S
C1924 H1913 0.950 . S
C1924 C1922 1.391 . S
C1924 C1925 1.400 . S
C1925 C1919 1.491 . S
C1925 C1924 1.400 . S
C1925 C1926 1.398 . S
C1926 H1914 0.950 . S
C1926 C1925 1.398 . S
C1926 C1927 1.391 . S
C1927 H1915 0.950 . S
C1927 C1923 1.393 . S
C1927 C1926 1.391 . S
H1928 C1936 0.950 . S
H1929 C1941 0.950 . S
H1930 C1938 0.950 . S
H1931 C1940 0.950 . S
H1932 C1942 0.950 . S
H1933 C1944 0.950 . S
H1934 C1946 0.950 . S
H1935 C1947 0.950 . S
C1936 H1928 0.950 . S
C1936 C1937 1.386 . S
C1936 C1938 1.391 . S
C1937 C1936 1.386 . S
C1937 C1941 1.393 . S
C1938 H1930 0.950 . S
C1938 C1936 1.391 . S
C1938 C1939 1.400 . S
C1939 C1938 1.400 . S
C1939 C1940 1.398 . S
C1939 C1945 1.491 . S
C1940 H1931 0.950 . S
C1940 C1939 1.398 . S
C1940 C1941 1.391 . S
C1941 H1929 0.950 . S
C1941 C1937 1.393 . S
C1941 C1940 1.391 . S
C1942 H1932 0.950 . S
C1942 C1943 1.386 . S
C1942 C1944 1.391 . S
C1943 C1942 1.386 . S
C1943 C1947 1.393 . S
C1944 H1933 0.950 . S
C1944 C1942 1.391 . S
C1944 C1945 1.400 . S
C1945 C1939 1.491 . S
C1945 C1944 1.400 . S
C1945 C1946 1.398 . S
C1946 H1934 0.950 . S
C1946 C1945 1.398 . S
C1946 C1947 1.391 . S
C1947 H1935 0.950 . S
C1947 C1943 1.393 . S
C1947 C1946 1.391 . S
H1948 C1956 0.950 . S
H1949 C1961 0.950 . S
H1950 C1958 0.950 . S
H1951 C1960 0.950 . S
H1952 C1962 0.950 . S
H1953 C1964 0.950 . S
H1954 C1966 0.950 . S
H1955 C1967 0.950 . S
C1956 H1948 0.950 . S
C1956 C1957 1.386 . S
C1956 C1958 1.391 . S
C1957 C1956 1.386 . S
C1957 C1961 1.393 . S
C1958 H1950 0.950 . S
C1958 C1956 1.391 . S
C1958 C1959 1.400 . S
C1959 C1958 1.400 . S
C1959 C1960 1.398 . S
C1959 C1965 1.491 . S
C1960 H1951 0.950 . S
C1960 C1959 1.398 . S
C1960 C1961 1.391 . S
C1961 H1949 0.950 . S
C1961 C1957 1.393 . S
C1961 C1960 1.391 . S
C1962 H1952 0.950 . S
C1962 C1963 1.386 . S
C1962 C1964 1.391 . S
C1963 C1962 1.386 . S
C1963 C1967 1.393 . S
C1964 H1953 0.950 . S
C1964 C1962 1.391 . S
C1964 C1965 1.400 . S
C1965 C1959 1.491 . S
C1965 C1964 1.400 . S
C1965 C1966 1.398 . S
C1966 H1954 0.950 . S
C1966 C1965 1.398 . S
C1966 C1967 1.391 . S
C1967 H1955 0.950 . S
C1967 C1963 1.393 . S
C1967 C1966 1.391 . S
C537 C8 1.815 . S
C543 C250 1.761 . S
C557 C448 1.846 . S
C563 C19 1.768 . S
C577 C30 1.803 . S
C583 C261 1.743 . S
C597 C41 1.751 . S
C603 C503 1.823 . S
C617 C206 1.753 . S
C623 C52 1.817 . S
C637 C63 1.731 . S
C643 C217 1.797 . S
C657 C492 1.727 . S
C663 C74 1.782 . S
C677 C195 1.802 . S
C683 C85 1.731 . S
C697 C151 1.753 . S
C703 C96 1.823 . S
C717 C162 1.809 . S
C723 C107 1.759 . S
C737 C118 1.798 . S
C743 C173 1.725 . S
C757 C129 1.660 . S
C763 C140 1.704 . S
C777 C283 1.776 . S
C783 C184 1.830 . S
C797 C338 1.794 . S
C803 C228 1.727 . S
C817 C305 1.695 . S
C823 C239 1.742 . S
C837 C272 1.845 . S
C843 C514 1.784 . S
C857 C294 1.703 . S
C863 C525 1.644 . S
C877 C316 1.743 . S
C883 C470 1.679 . S
C897 C327 1.656 . S
C903 C481 1.699 . S
C917 C349 1.711 . S
C923 C459 1.781 . S
C937 C415 1.791 . S
C943 C360 1.844 . S
C957 C426 1.738 . S
C963 C371 1.675 . S
C977 C437 1.721 . S
C983 C382 1.777 . S
C997 C404 1.795 . S
C1003 C393 1.737 . S
C1017 C7 1.641 1_455 S
C1023 C84 1.542 . S
C1037 C51 1.619 . S
C1043 C18 1.533 . S
C1057 C29 1.609 . S
C1063 C62 1.530 . S
C1077 C40 1.547 . S
C1083 C73 1.630 . S
C1097 C95 1.634 . S
C1103 C227 1.554 . S
C1117 C106 1.515 . S
C1123 C458 1.624 . S
C1137 C469 1.469 . S
C1143 C117 1.544 . S
C1157 C480 1.578 . S
C1163 C128 1.505 . S
C1177 C139 1.579 . S
C1183 C524 1.501 . S
C1197 C150 1.536 . S
C1203 C238 1.630 . S
C1217 C161 1.618 . S
C1223 C513 1.523 . S
C1237 C183 1.642 1_554 S
C1243 C172 1.545 . S
C1257 C370 1.453 . S
C1263 C194 1.529 . S
C1277 C381 1.634 . S
C1283 C205 1.544 . S
C1297 C392 1.508 . S
C1303 C216 1.602 . S
C1317 C249 1.519 . S
C1323 C425 1.627 . S
C1337 C403 1.613 . S
C1343 C260 1.510 . S
C1357 C348 1.485 . S
C1363 C271 1.597 . S
C1377 C282 1.538 . S
C1383 C315 1.630 . S
C1397 C293 1.565 . S
C1403 C326 1.475 . S
C1417 C337 1.541 . S
C1423 C304 1.473 . S
C1437 C491 1.488 . S
C1443 C359 1.585 . S
C1457 C414 1.553 . S
C1463 C502 1.629 1_554 S
C1477 C447 1.595 . S
C1483 C436 1.509 . S
C1497 C324 1.152 . S
C1503 C5 1.371 . S
C1517 C335 1.691 . S
C1523 C16 1.403 . S
C1537 C346 1.319 . S
C1543 C27 1.624 . S
C1557 C313 1.541 . S
C1563 C38 1.276 . S
C1577 C49 1.479 . S
C1583 C302 1.185 . S
C1597 C60 1.351 . S
C1603 C269 1.640 . S
C1617 C71 1.549 . S
C1623 C280 1.281 . S
C1637 C291 1.604 . S
C1643 C82 1.352 . S
C1657 C93 1.389 . S
C1663 C522 1.178 . S
C1677 C104 1.285 . S
C1683 C236 1.540 . S
C1697 C115 1.703 . S
C1703 C511 1.400 . S
C1717 C181 1.414 . S
C1723 C126 1.157 . S
C1737 C137 1.607 . S
C1743 C225 1.368 . S
C1757 C456 1.566 . S
C1763 C148 1.262 . S
C1777 C159 1.474 . S
C1783 C467 1.185 . S
C1797 C478 1.609 . S
C1803 C170 1.332 . S
C1817 C412 1.397 . S
C1823 C192 1.696 . S
C1837 C423 1.561 . S
C1843 C203 1.257 . S
C1857 C214 1.598 . S
C1863 C434 1.346 . S
C1877 C247 1.304 . S
C1883 C379 1.578 . S
C1897 C258 1.337 . S
C1903 C357 1.612 . S
C1917 C368 1.200 . S
C1923 C500 1.483 . S
C1937 C390 1.378 . S
C1943 C445 1.631 . S
C1957 C401 1.618 . S
C1963 C489 1.316 . S
