# Generated by pormake.
# Topology wfw, (7)-cn, num edge types: 1
# Building blocks:
#     Node 0, Type 0, BuildingBlock: HICVOG_clean_sbu_0, # of connection points: 7
#     Node 1, Type 0, BuildingBlock: HICVOG_clean_sbu_0, # of connection points: 7
#     Node 2, Type 0, BuildingBlock: HICVOG_clean_sbu_0, # of connection points: 7
#     Node 3, Type 0, BuildingBlock: HICVOG_clean_sbu_0, # of connection points: 7
#     Node 4, Type 0, BuildingBlock: HICVOG_clean_sbu_0, # of connection points: 7
#     Node 5, Type 0, BuildingBlock: HICVOG_clean_sbu_0, # of connection points: 7
#     Node 6, Type 0, BuildingBlock: HICVOG_clean_sbu_0, # of connection points: 7
#     Node 7, Type 0, BuildingBlock: HICVOG_clean_sbu_0, # of connection points: 7
#     Node 8, Type 0, BuildingBlock: HICVOG_clean_sbu_0, # of connection points: 7
#     Node 9, Type 0, BuildingBlock: HICVOG_clean_sbu_0, # of connection points: 7
#     Node 10, Type 0, BuildingBlock: HICVOG_clean_sbu_0, # of connection points: 7
#     Node 11, Type 0, BuildingBlock: HICVOG_clean_sbu_0, # of connection points: 7
#     Node 12, Type 0, BuildingBlock: HICVOG_clean_sbu_0, # of connection points: 7
#     Node 13, Type 0, BuildingBlock: HICVOG_clean_sbu_0, # of connection points: 7
#     Node 14, Type 0, BuildingBlock: HICVOG_clean_sbu_0, # of connection points: 7
#     Node 15, Type 0, BuildingBlock: HICVOG_clean_sbu_0, # of connection points: 7
#     Edge 16, Type (0, 0), None
#     Edge 17, Type (0, 0), None
#     Edge 18, Type (0, 0), None
#     Edge 19, Type (0, 0), None
#     Edge 20, Type (0, 0), None
#     Edge 21, Type (0, 0), None
#     Edge 22, Type (0, 0), None
#     Edge 23, Type (0, 0), None
#     Edge 24, Type (0, 0), None
#     Edge 25, Type (0, 0), None
#     Edge 26, Type (0, 0), None
#     Edge 27, Type (0, 0), None
#     Edge 28, Type (0, 0), None
#     Edge 29, Type (0, 0), None
#     Edge 30, Type (0, 0), None
#     Edge 31, Type (0, 0), None
#     Edge 32, Type (0, 0), None
#     Edge 33, Type (0, 0), None
#     Edge 34, Type (0, 0), None
#     Edge 35, Type (0, 0), None
#     Edge 36, Type (0, 0), None
#     Edge 37, Type (0, 0), None
#     Edge 38, Type (0, 0), None
#     Edge 39, Type (0, 0), None
#     Edge 40, Type (0, 0), None
#     Edge 41, Type (0, 0), None
#     Edge 42, Type (0, 0), None
#     Edge 43, Type (0, 0), None
#     Edge 44, Type (0, 0), None
#     Edge 45, Type (0, 0), None
#     Edge 46, Type (0, 0), None
#     Edge 47, Type (0, 0), None
#     Edge 48, Type (0, 0), None
#     Edge 49, Type (0, 0), None
#     Edge 50, Type (0, 0), None
#     Edge 51, Type (0, 0), None
#     Edge 52, Type (0, 0), None
#     Edge 53, Type (0, 0), None
#     Edge 54, Type (0, 0), None
#     Edge 55, Type (0, 0), None
#     Edge 56, Type (0, 0), None
#     Edge 57, Type (0, 0), None
#     Edge 58, Type (0, 0), None
#     Edge 59, Type (0, 0), None
#     Edge 60, Type (0, 0), None
#     Edge 61, Type (0, 0), None
#     Edge 62, Type (0, 0), None
#     Edge 63, Type (0, 0), None
#     Edge 64, Type (0, 0), None
#     Edge 65, Type (0, 0), None
#     Edge 66, Type (0, 0), None
#     Edge 67, Type (0, 0), None
#     Edge 68, Type (0, 0), None
#     Edge 69, Type (0, 0), None
#     Edge 70, Type (0, 0), None
#     Edge 71, Type (0, 0), None
# Relax obj value: 0.117
# Max RMSD: 0.173
# Mean RMSD: 0.173
data_MOF--net-wfw--node1-HICVOG_clean_sbu_0--edge1-none
_symmetry_space_group_name_H-M    P1
_symmetry_Int_Tables_number       1
_symmetry_cell_setting            triclinic
loop_
_symmetry_equiv_pos_as_xyz
'x, y, z'
_cell_length_a     23.058125
_cell_length_b     23.060111
_cell_length_c     18.883232
_cell_angle_alpha  89.999682
_cell_angle_beta   90.000391
_cell_angle_gamma 89.999358
loop_
_atom_site_label
_atom_site_type_symbol
_atom_site_fract_x
_atom_site_fract_y
_atom_site_fract_z
_atom_type_partial_charge
Zn0 Zn 0.57058 0.27294 0.42191 0.0
C1 C 0.62797 0.14755 0.28749 0.0
N2 N 0.65797 0.13249 0.34577 0.0
C3 C 0.63916 0.17078 0.39423 0.0
N4 N 0.60132 0.20881 0.36668 0.0
N5 N 0.5916 0.19358 0.29992 0.0
C6 C 0.54253 0.2641 0.12375 0.0
O7 O 0.57743 0.29026 0.16841 0.0
O8 O 0.52504 0.24193 0.50684 0.0
Zn9 Zn 0.51617 0.21634 0.25186 0.0
N10 N 0.63141 0.32473 0.44759 0.0
C11 C 0.72644 0.36169 0.43335 0.0
C12 C 0.68064 0.32821 0.40843 0.0
C13 C 0.62515 0.35467 0.50873 0.0
N14 N 0.72147 0.3883 0.49729 0.0
C15 C 0.67237 0.38453 0.53671 0.0
O16 O 0.48311 0.29939 0.26712 0.0
C17 C 0.48583 0.33435 0.31888 0.0
O18 O 0.51616 0.32254 0.37249 0.0
H19 H 0.68456 0.30418 0.35947 0.0
H20 H 0.58432 0.35344 0.536 0.0
C21 C 0.41552 0.12898 0.27727 0.0
C22 C 0.38062 0.10258 0.33011 0.0
C23 C 0.42801 0.15818 0.41855 0.0
C24 C 0.46174 0.18406 0.36723 0.0
N25 N 0.45645 0.16874 0.29813 0.0
N26 N 0.3888 0.11817 0.39886 0.0
H27 H 0.41082 0.11771 0.22195 0.0
C28 C 0.51277 0.24381 0.57262 0.0
O29 O 0.47436 0.207 0.59736 0.0
O30 O 0.51668 0.21835 0.14497 0.0
H31 H 0.4923 0.21663 0.38232 0.0
H32 H 0.76633 0.36466 0.40352 0.0
H33 H 0.43245 0.16984 0.47366 0.0
Zn34 Zn 0.32891 0.51613 0.25188 0.0
C35 C 0.37448 0.63916 0.39427 0.0
N36 N 0.41275 0.65799 0.34579 0.0
C37 C 0.39775 0.62794 0.28754 0.0
N38 N 0.35181 0.59147 0.30003 0.0
N39 N 0.3365 0.60125 0.36675 0.0
C40 C 0.3014 0.51266 0.57263 0.0
O41 O 0.33817 0.47422 0.59736 0.0
O42 O 0.32691 0.51666 0.14499 0.0
Zn43 Zn 0.27234 0.57054 0.42195 0.0
N44 N 0.37644 0.45634 0.29811 0.0
C45 C 0.38688 0.42779 0.41852 0.0
C46 C 0.36106 0.46158 0.3672 0.0
C47 C 0.41622 0.41544 0.27727 0.0
N48 N 0.42692 0.3886 0.39883 0.0
C49 C 0.44258 0.3805 0.3301 0.0
O50 O 0.22268 0.5162 0.37249 0.0
C51 C 0.21084 0.4859 0.31887 0.0
O52 O 0.24581 0.48315 0.26712 0.0
H53 H 0.3285 0.49215 0.38229 0.0
H54 H 0.42756 0.41078 0.22196 0.0
C55 C 0.19062 0.62513 0.50878 0.0
C56 C 0.16077 0.67235 0.53676 0.0
C57 C 0.18363 0.72643 0.43342 0.0
C58 C 0.21711 0.68062 0.40849 0.0
N59 N 0.22057 0.63139 0.44764 0.0
N60 N 0.15702 0.72145 0.49736 0.0
H61 H 0.19183 0.5843 0.53603 0.0
C62 C 0.28116 0.54251 0.12377 0.0
O63 O 0.255 0.57743 0.1684 0.0
O64 O 0.3033 0.52494 0.50686 0.0
H65 H 0.24114 0.68453 0.35953 0.0
H66 H 0.37516 0.43219 0.47361 0.0
H67 H 0.18068 0.76631 0.4036 0.0
Zn68 Zn 0.97473 0.2723 0.42192 0.0
C69 C 0.91735 0.39768 0.28749 0.0
N70 N 0.88736 0.41275 0.34577 0.0
C71 C 0.90617 0.37447 0.39424 0.0
N72 N 0.944 0.33643 0.36669 0.0
N73 N 0.95372 0.35165 0.29993 0.0
C74 C 1.00281 0.28112 0.12375 0.0
O75 O 0.96791 0.25494 0.16839 0.0
O76 O 1.02029 0.30328 0.50685 0.0
Zn77 Zn 0.02915 0.32888 0.25188 0.0
N78 N 0.91388 0.22053 0.44761 0.0
C79 C 0.81885 0.18356 0.43335 0.0
C80 C 0.86466 0.21705 0.40843 0.0
C81 C 0.92013 0.19061 0.50875 0.0
N82 N 0.82381 0.15697 0.4973 0.0
C83 C 0.8729 0.16075 0.53673 0.0
O84 O 0.0622 0.24581 0.26713 0.0
C85 C 0.05945 0.21085 0.3189 0.0
O86 O 0.02911 0.22268 0.37249 0.0
H87 H 0.86074 0.24106 0.35946 0.0
H88 H 0.96095 0.19183 0.53602 0.0
C89 C 0.12977 0.41626 0.27727 0.0
C90 C 0.16465 0.44268 0.33011 0.0
C91 C 0.1173 0.38707 0.41856 0.0
C92 C 0.08358 0.36117 0.36724 0.0
N93 N 0.08887 0.37648 0.29813 0.0
N94 N 0.15649 0.42711 0.39886 0.0
H95 H 0.13447 0.42753 0.22195 0.0
C96 C 0.03256 0.3014 0.57263 0.0
O97 O 0.07101 0.33818 0.59735 0.0
O98 O 0.02865 0.32687 0.14498 0.0
H99 H 0.05304 0.32858 0.38233 0.0
H100 H 0.77897 0.18058 0.4035 0.0
H101 H 0.11286 0.37542 0.47366 0.0
Zn102 Zn 0.27298 0.97469 0.42194 0.0
C103 C 0.14758 0.91731 0.28751 0.0
N104 N 0.13252 0.88732 0.34579 0.0
C105 C 0.1708 0.90613 0.39426 0.0
N106 N 0.20884 0.94396 0.36671 0.0
N107 N 0.19362 0.95368 0.29995 0.0
C108 C 0.26415 1.00276 0.12375 0.0
O109 O 0.29032 0.96784 0.16839 0.0
O110 O 0.242 1.02026 0.50687 0.0
Zn111 Zn 0.2164 0.02911 0.25189 0.0
N112 N 0.32476 0.91386 0.44764 0.0
C113 C 0.36175 0.81884 0.4334 0.0
C114 C 0.32824 0.86463 0.40849 0.0
C115 C 0.35472 0.92013 0.50877 0.0
N116 N 0.38836 0.82382 0.49733 0.0
C117 C 0.38459 0.87292 0.53675 0.0
O118 O 0.29948 0.06213 0.26713 0.0
C119 C 0.33444 0.05937 0.31889 0.0
O120 O 0.32262 0.02906 0.3725 0.0
H121 H 0.30421 0.86071 0.35952 0.0
H122 H 0.3535 0.96096 0.53602 0.0
C123 C 0.12905 0.12976 0.27729 0.0
C124 C 0.10265 0.16466 0.33013 0.0
C125 C 0.15824 0.11727 0.41858 0.0
C126 C 0.18412 0.08354 0.36725 0.0
N127 N 0.16881 0.08883 0.29815 0.0
N128 N 0.11823 0.15648 0.39887 0.0
H129 H 0.11779 0.13447 0.22197 0.0
C130 C 0.24389 0.03252 0.57264 0.0
O131 O 0.20712 0.07097 0.59738 0.0
O132 O 0.2184 0.0286 0.145 0.0
H133 H 0.2167 0.05298 0.38234 0.0
H134 H 0.36472 0.77896 0.40357 0.0
H135 H 0.16989 0.11282 0.47368 0.0
Zn136 Zn 1.01619 0.82889 0.25256 0.0
C137 C 0.13924 0.87442 0.11014 0.0
N138 N 0.15812 0.91266 0.15862 0.0
C139 C 0.12807 0.89765 0.21688 0.0
N140 N 0.09153 0.85177 0.20438 0.0
N141 N 0.1013 0.83647 0.13766 0.0
C142 C 1.01263 0.80137 0.9318 0.0
O143 O 0.97417 0.83814 0.90711 0.0
O144 O 1.01676 0.82687 0.35945 0.0
Zn145 Zn 0.07056 0.77232 0.08247 0.0
N146 N 0.95639 0.87642 0.20635 0.0
C147 C 0.92776 0.8868 0.08596 0.0
C148 C 0.96158 0.86101 0.13727 0.0
C149 C 0.91551 0.91623 0.2272 0.0
N150 N 0.8886 0.92686 0.10565 0.0
C151 C 0.88054 0.94257 0.17437 0.0
O152 O 1.01623 0.72266 0.13195 0.0
C153 C 0.98594 0.71082 0.18558 0.0
O154 O 0.98319 0.7458 0.23733 0.0
H155 H 0.99215 0.82844 0.12218 0.0
H156 H 0.91089 0.9276 0.2825 0.0
C157 C 0.1252 0.69065 0.99562 0.0
C158 C 0.17242 0.66079 0.96766 0.0
C159 C 0.22644 0.68356 0.07107 0.0
C160 C 0.18063 0.71705 0.09597 0.0
N161 N 0.13143 0.72056 0.05678 0.0
N162 N 0.2215 0.65698 0.00711 0.0
H163 H 0.08438 0.69189 0.96833 0.0
C164 C 0.04266 0.78113 0.38063 0.0
O165 O 0.07761 0.75504 0.33596 0.0
O166 O 0.02495 0.80326 0.99757 0.0
H167 H 0.18453 0.74105 0.14496 0.0
H168 H 0.93212 0.87505 0.03088 0.0
H169 H 0.26631 0.68057 0.10094 0.0
Zn170 Zn 0.71635 1.01614 0.25254 0.0
C171 C 0.6709 0.13922 0.11013 0.0
N172 N 0.63265 0.1581 0.1586 0.0
C173 C 0.64764 0.12804 0.21685 0.0
N174 N 0.69351 0.09149 0.20437 0.0
N175 N 0.70883 0.10126 0.13765 0.0
C176 C 0.7439 1.01262 0.93179 0.0
O177 O 0.70713 0.97416 0.90708 0.0
O178 O 0.71835 1.0167 0.35943 0.0
Zn179 Zn 0.77299 0.0705 0.08247 0.0
N180 N 0.6688 0.95637 0.20632 0.0
C181 C 0.65836 0.9278 0.08592 0.0
C182 C 0.68418 0.96159 0.13723 0.0
C183 C 0.629 0.91549 0.22718 0.0
N184 N 0.61831 0.88863 0.10562 0.0
C185 C 0.60264 0.88054 0.17435 0.0
O186 O 0.82263 1.01615 0.13195 0.0
C187 C 0.83442 0.98586 0.1856 0.0
O188 O 0.79943 0.98311 0.23732 0.0
H189 H 0.71676 0.99215 0.12214 0.0
H190 H 0.61765 0.91085 0.28249 0.0
C191 C 0.85467 0.12511 0.99561 0.0
C192 C 0.88453 0.17233 0.96764 0.0
C193 C 0.86178 0.22634 0.07106 0.0
C194 C 0.82829 0.18054 0.09597 0.0
N195 N 0.82477 0.13134 0.05678 0.0
N196 N 0.88834 0.2214 0.0071 0.0
H197 H 0.85343 0.08429 0.96832 0.0
C198 C 0.76411 0.04256 0.38063 0.0
O199 O 0.79025 0.07748 0.33598 0.0
O200 O 0.74203 0.02491 0.99756 0.0
H201 H 0.80429 0.18444 0.14497 0.0
H202 H 0.67009 0.93218 0.03083 0.0
H203 H 0.86478 0.2662 0.10093 0.0
Zn204 Zn 0.52915 0.71633 0.25255 0.0
C205 C 0.40608 0.67081 0.11016 0.0
N206 N 0.38721 0.63256 0.15865 0.0
C207 C 0.41726 0.64757 0.21689 0.0
N208 N 0.4538 0.69346 0.20439 0.0
N209 N 0.44402 0.70876 0.13767 0.0
C210 C 0.53266 0.74384 0.93181 0.0
O211 O 0.57111 0.70706 0.90711 0.0
O212 O 0.5286 0.71835 0.35944 0.0
Zn213 Zn 0.47475 0.77292 0.08247 0.0
N214 N 0.58894 0.66881 0.20633 0.0
C215 C 0.61756 0.65845 0.08594 0.0
C216 C 0.58374 0.68423 0.13725 0.0
C217 C 0.62983 0.629 0.22717 0.0
N218 N 0.65673 0.61839 0.10562 0.0
C219 C 0.66479 0.60267 0.17434 0.0
O220 O 0.52908 0.82259 0.13194 0.0
C221 C 0.55937 0.83441 0.18558 0.0
O222 O 0.56214 0.79942 0.23731 0.0
H223 H 0.55317 0.7168 0.12217 0.0
H224 H 0.63444 0.61762 0.28247 0.0
C225 C 0.42011 0.85458 0.99561 0.0
C226 C 0.37289 0.88444 0.96765 0.0
C227 C 0.31886 0.86168 0.07107 0.0
C228 C 0.36467 0.82818 0.09597 0.0
N229 N 0.41388 0.82467 0.05678 0.0
N230 N 0.32381 0.88825 0.0071 0.0
H231 H 0.46093 0.85334 0.96833 0.0
C232 C 0.50272 0.7641 0.38063 0.0
O233 O 0.46778 0.79022 0.33597 0.0
O234 O 0.52035 0.74196 0.99757 0.0
H235 H 0.36077 0.80419 0.14497 0.0
H236 H 0.61321 0.67021 0.03086 0.0
H237 H 0.279 0.86468 0.10094 0.0
Zn238 Zn 0.82896 0.52907 0.25253 0.0
C239 C 0.87441 0.40598 0.11013 0.0
N240 N 0.91266 0.3871 0.15861 0.0
C241 C 0.89767 0.41717 0.21685 0.0
N242 N 0.85179 0.45372 0.20436 0.0
N243 N 0.83647 0.44394 0.13765 0.0
C244 C 0.80145 0.53258 0.93177 0.0
O245 O 0.83824 0.57101 0.90706 0.0
O246 O 0.82692 0.5285 0.35942 0.0
Zn247 Zn 0.77233 0.47471 0.08245 0.0
N248 N 0.87654 0.58883 0.20632 0.0
C249 C 0.88703 0.61735 0.08591 0.0
C250 C 0.86118 0.58359 0.13723 0.0
C251 C 0.91632 0.62974 0.22718 0.0
N252 N 0.92707 0.65654 0.10561 0.0
C253 C 0.9427 0.66466 0.17435 0.0
O254 O 0.7227 0.52909 0.13191 0.0
C255 C 0.7109 0.55938 0.18555 0.0
O256 O 0.7459 0.56211 0.23729 0.0
H257 H 0.82861 0.55303 0.12213 0.0
H258 H 0.92763 0.6344 0.2825 0.0
C259 C 0.69062 0.42013 0.99559 0.0
C260 C 0.66074 0.37292 0.96763 0.0
C261 C 0.68352 0.31888 0.07104 0.0
C262 C 0.71702 0.36468 0.09594 0.0
N263 N 0.72053 0.41389 0.05675 0.0
N264 N 0.65694 0.32384 0.00708 0.0
H265 H 0.69186 0.46094 0.96831 0.0
C266 C 0.78117 0.50264 0.38059 0.0
O267 O 0.75505 0.46772 0.33592 0.0
O268 O 0.80332 0.52029 0.99754 0.0
H269 H 0.74102 0.36078 0.14493 0.0
H270 H 0.87534 0.61294 0.03082 0.0
H271 H 0.68053 0.27902 0.1009 0.0
Zn272 Zn 0.47474 0.77231 0.58247 0.0
C273 C 0.41737 0.89769 0.71689 0.0
N274 N 0.38737 0.91276 0.65861 0.0
C275 C 0.40617 0.87447 0.61014 0.0
N276 N 0.44401 0.83644 0.63769 0.0
N277 N 0.45374 0.85166 0.70445 0.0
C278 C 0.5028 0.78113 0.88064 0.0
O279 O 0.4679 0.75489 0.83605 0.0
O280 O 0.52029 0.80329 0.49754 0.0
Zn281 Zn 0.52916 0.82887 0.75251 0.0
N282 N 0.41389 0.72054 0.55678 0.0
C283 C 0.31886 0.68356 0.57103 0.0
C284 C 0.36467 0.71706 0.59595 0.0
C285 C 0.42014 0.69061 0.49564 0.0
N286 N 0.32383 0.65696 0.50709 0.0
C287 C 0.37292 0.66075 0.46766 0.0
O288 O 0.56219 0.7458 0.73726 0.0
C289 C 0.55945 0.71084 0.68549 0.0
O290 O 0.52912 0.72268 0.6319 0.0
H291 H 0.36075 0.74107 0.64492 0.0
H292 H 0.46097 0.69184 0.46837 0.0
C293 C 0.62977 0.91625 0.72712 0.0
C294 C 0.66468 0.94266 0.67429 0.0
C295 C 0.61738 0.88699 0.58585 0.0
C296 C 0.58363 0.86112 0.63716 0.0
N297 N 0.58889 0.87646 0.70626 0.0
N298 N 0.65655 0.92704 0.60555 0.0
H299 H 0.63445 0.92755 0.78244 0.0
C300 C 0.53257 0.80143 0.43177 0.0
O301 O 0.57101 0.83821 0.40705 0.0
O302 O 0.52865 0.82687 0.8594 0.0
H303 H 0.55308 0.82853 0.62207 0.0
H304 H 0.27898 0.68058 0.60088 0.0
H305 H 0.61297 0.87531 0.53075 0.0
Zn306 Zn 0.77297 0.47469 0.58243 0.0
C307 C 0.64759 0.41729 0.71685 0.0
N308 N 0.63254 0.38729 0.65857 0.0
C309 C 0.67083 0.4061 0.61011 0.0
N310 N 0.70885 0.44394 0.63766 0.0
N311 N 0.69362 0.45367 0.70442 0.0
C312 C 0.76414 0.50271 0.88062 0.0
O313 O 0.79037 0.4678 0.83603 0.0
O314 O 0.74197 0.52023 0.4975 0.0
Zn315 Zn 0.7164 0.52909 0.75248 0.0
N316 N 0.82476 0.41386 0.55674 0.0
C317 C 0.86174 0.31884 0.57098 0.0
C318 C 0.82824 0.36464 0.59589 0.0
C319 C 0.85471 0.42013 0.4956 0.0
N320 N 0.88835 0.32382 0.50704 0.0
C321 C 0.88458 0.37292 0.46763 0.0
O322 O 0.79948 0.56212 0.73724 0.0
C323 C 0.83443 0.55939 0.68546 0.0
O324 O 0.82259 0.52907 0.63186 0.0
H325 H 0.80421 0.36071 0.64486 0.0
H326 H 0.85348 0.46096 0.46835 0.0
C327 C 0.62906 0.62975 0.7271 0.0
C328 C 0.60265 0.66464 0.67426 0.0
C329 C 0.65822 0.61725 0.5858 0.0
C330 C 0.68411 0.58352 0.63712 0.0
N331 N 0.66881 0.58882 0.70623 0.0
N332 N 0.61821 0.65646 0.60551 0.0
H333 H 0.6178 0.63446 0.78242 0.0
C334 C 0.74383 0.53249 0.43172 0.0
O335 O 0.70704 0.57091 0.40699 0.0
O336 O 0.71841 0.52858 0.85937 0.0
H337 H 0.71668 0.55296 0.62203 0.0
H338 H 0.86471 0.27896 0.60081 0.0
H339 H 0.66986 0.61279 0.5307 0.0
Zn340 Zn 0.07059 0.77294 0.58246 0.0
C341 C 0.12798 0.64755 0.71689 0.0
N342 N 0.15799 0.6325 0.65862 0.0
C343 C 0.1392 0.6708 0.61016 0.0
N344 N 0.10135 0.70883 0.63771 0.0
N345 N 0.09161 0.69358 0.70446 0.0
C346 C 0.04251 0.76409 0.88064 0.0
O347 O 0.0774 0.79034 0.83605 0.0
O348 O 0.02508 0.74192 0.49753 0.0
Zn349 Zn 1.01617 0.71634 0.7525 0.0
N350 N 0.13142 0.82474 0.55677 0.0
C351 C 0.22645 0.8617 0.571 0.0
C352 C 0.18065 0.82822 0.59593 0.0
C353 C 0.12514 0.85468 0.49564 0.0
N354 N 0.22146 0.88831 0.50706 0.0
C355 C 0.17236 0.88454 0.46765 0.0
O356 O 0.98312 0.79939 0.73725 0.0
C357 C 0.98582 0.83435 0.68548 0.0
O358 O 1.01616 0.82254 0.63187 0.0
H359 H 0.18458 0.80419 0.64489 0.0
H360 H 0.08431 0.85345 0.46838 0.0
C361 C 0.91552 0.62899 0.72709 0.0
C362 C 0.88064 0.60258 0.67424 0.0
C363 C 0.92806 0.65814 0.5858 0.0
C364 C 0.96177 0.68403 0.63712 0.0
N365 N 0.95646 0.66874 0.70623 0.0
N366 N 0.88884 0.61814 0.60549 0.0
H367 H 0.91079 0.61774 0.78241 0.0
C368 C 1.01283 0.74377 0.43175 0.0
O369 O 0.97443 0.70696 0.407 0.0
O370 O 1.01666 0.71835 0.85939 0.0
H371 H 0.99234 0.7166 0.62204 0.0
H372 H 0.26634 0.86467 0.60082 0.0
H373 H 0.93253 0.66978 0.53069 0.0
Zn374 Zn 0.82891 1.01612 0.75251 0.0
C375 C 0.87445 0.13918 0.61013 0.0
N376 N 0.91273 0.158 0.6586 0.0
C377 C 0.89774 0.12793 0.71685 0.0
N378 N 0.8518 0.09147 0.70436 0.0
N379 N 0.83648 0.10126 0.63765 0.0
C380 C 0.80142 1.01269 0.43177 0.0
O381 O 0.8382 0.97425 0.40704 0.0
O382 O 0.82691 1.01665 0.8594 0.0
Zn383 Zn 0.77232 0.07054 0.58245 0.0
N384 N 0.87644 0.95634 0.70627 0.0
C385 C 0.88687 0.92779 0.58586 0.0
C386 C 0.86105 0.96158 0.63718 0.0
C387 C 0.91622 0.91543 0.72711 0.0
N388 N 0.92691 0.8886 0.60554 0.0
C389 C 0.94257 0.8805 0.67427 0.0
O390 O 0.72266 1.0162 0.6319 0.0
C391 C 0.71083 0.98591 0.68553 0.0
O392 O 0.74582 0.98314 0.73727 0.0
H393 H 0.82849 0.99215 0.6221 0.0
H394 H 0.92757 0.91078 0.78242 0.0
C395 C 0.69061 0.12512 0.49561 0.0
C396 C 0.66075 0.17234 0.46762 0.0
C397 C 0.6836 0.22642 0.57096 0.0
C398 C 0.71708 0.18062 0.59589 0.0
N399 N 0.72055 0.13139 0.55674 0.0
N400 N 0.65699 0.22144 0.50703 0.0
H401 H 0.69182 0.08429 0.46836 0.0
C402 C 0.78117 0.04252 0.88063 0.0
O403 O 0.75494 0.07743 0.83604 0.0
O404 O 0.8033 0.02496 0.49754 0.0
H405 H 0.74111 0.18454 0.64486 0.0
H406 H 0.87515 0.93219 0.53077 0.0
H407 H 0.68063 0.26631 0.60079 0.0
Zn408 Zn 0.02914 0.21633 0.75183 0.0
C409 C 0.90607 0.1708 0.89423 0.0
N410 N 0.88721 0.13255 0.84575 0.0
C411 C 0.91726 0.14756 0.7875 0.0
N412 N 0.95379 0.19345 0.79999 0.0
N413 N 0.94402 0.20876 0.86671 0.0
C414 C 0.03265 0.24381 0.07258 0.0
O415 O 0.07109 0.20702 0.09727 0.0
O416 O 0.02858 0.21836 0.64495 0.0
Zn417 Zn 0.97474 0.27291 0.92191 0.0
N418 N 0.08893 0.16879 0.79805 0.0
C419 C 0.11754 0.15841 0.91844 0.0
C420 C 0.08373 0.1842 0.86713 0.0
C421 C 0.12981 0.12898 0.7772 0.0
N422 N 0.15671 0.11835 0.89875 0.0
C423 C 0.16477 0.10264 0.83003 0.0
O424 O 0.02909 0.32257 0.87245 0.0
C425 C 0.05939 0.3344 0.81882 0.0
O426 O 0.06214 0.29941 0.76708 0.0
H427 H 0.05316 0.21677 0.88222 0.0
H428 H 0.13443 0.11762 0.72189 0.0
C429 C 0.92009 0.35456 0.00877 0.0
C430 C 0.87286 0.38441 0.03673 0.0
C431 C 0.81884 0.36163 0.93332 0.0
C432 C 0.86465 0.32815 0.90841 0.0
N433 N 0.91387 0.32466 0.9476 0.0
N434 N 0.82378 0.38821 0.99729 0.0
H435 H 0.96091 0.35332 0.03605 0.0
C436 C 1.00269 0.26409 0.62376 0.0
O437 O 0.96777 0.29028 0.66838 0.0
O438 O 1.02033 0.24194 0.00681 0.0
H439 H 0.86076 0.30416 0.85942 0.0
H440 H 0.11318 0.17015 0.97352 0.0
H441 H 0.77897 0.36463 0.90346 0.0
Zn442 Zn 0.32896 0.02909 0.75184 0.0
C443 C 0.37442 0.90599 0.89424 0.0
N444 N 0.41268 0.88712 0.84577 0.0
C445 C 0.39769 0.91719 0.78752 0.0
N446 N 0.35181 0.95374 0.80001 0.0
N447 N 0.33649 0.94396 0.86673 0.0
C448 C 0.30147 0.03259 0.07259 0.0
O449 O 0.33827 0.07102 0.09729 0.0
O450 O 0.32694 0.02853 0.64496 0.0
Zn451 Zn 0.27234 0.97471 0.92192 0.0
N452 N 0.37651 0.08887 0.79806 0.0
C453 C 0.38692 0.11743 0.91846 0.0
C454 C 0.36112 0.08364 0.86715 0.0
C455 C 0.41629 0.12977 0.77721 0.0
N456 N 0.42696 0.15662 0.89878 0.0
C457 C 0.44264 0.16472 0.83005 0.0
O458 O 0.22269 0.02907 0.87245 0.0
C459 C 0.21089 0.05936 0.81881 0.0
O460 O 0.24588 0.0621 0.76708 0.0
H461 H 0.32855 0.05307 0.88223 0.0
H462 H 0.42763 0.13442 0.72191 0.0
C463 C 0.19067 0.9201 0.00878 0.0
C464 C 0.1608 0.87288 0.03674 0.0
C465 C 0.18356 0.81886 0.93332 0.0
C466 C 0.21705 0.86466 0.90841 0.0
N467 N 0.22057 0.91387 0.94761 0.0
N468 N 0.15698 0.82381 0.99728 0.0
H469 H 0.19191 0.96091 0.03607 0.0
C470 C 0.2812 1.00264 0.62377 0.0
O471 O 0.25501 0.96772 0.66839 0.0
O472 O 0.30333 1.02028 0.00682 0.0
H473 H 0.24104 0.86076 0.85941 0.0
H474 H 0.3752 0.11305 0.97355 0.0
H475 H 0.18055 0.779 0.90345 0.0
Zn476 Zn 0.57059 0.2723 0.9219 0.0
C477 C 0.62805 0.39763 0.78748 0.0
N478 N 0.65804 0.41271 0.84575 0.0
C479 C 0.6392 0.37444 0.89422 0.0
N480 N 0.60133 0.33643 0.86667 0.0
N481 N 0.59161 0.35166 0.79991 0.0
C482 C 0.54262 0.28115 0.62374 0.0
O483 O 0.57753 0.25496 0.66836 0.0
O484 O 0.52502 0.30328 0.00682 0.0
Zn485 Zn 0.51618 0.3289 0.75184 0.0
N486 N 0.63145 0.22055 0.94759 0.0
C487 C 0.72648 0.18357 0.93333 0.0
C488 C 0.68067 0.21705 0.90841 0.0
C489 C 0.62522 0.19064 0.00876 0.0
N490 N 0.72153 0.15698 0.99729 0.0
C491 C 0.67244 0.16079 0.03673 0.0
O492 O 0.48314 0.24584 0.76709 0.0
C493 C 0.48589 0.21086 0.81884 0.0
O494 O 0.51621 0.22266 0.87246 0.0
H495 H 0.68457 0.24105 0.85942 0.0
H496 H 0.5844 0.19188 0.03604 0.0
C497 C 0.41554 0.41627 0.77723 0.0
C498 C 0.38062 0.44265 0.83006 0.0
C499 C 0.42794 0.387 0.91849 0.0
C500 C 0.4617 0.36114 0.86718 0.0
N501 N 0.45645 0.37649 0.79808 0.0
N502 N 0.38875 0.42703 0.8988 0.0
H503 H 0.41087 0.42758 0.72191 0.0
C504 C 0.51271 0.30143 0.07258 0.0
O505 O 0.47427 0.33822 0.09727 0.0
O506 O 0.51671 0.32688 0.64495 0.0
H507 H 0.49226 0.32856 0.88227 0.0
H508 H 0.76635 0.18057 0.90347 0.0
H509 H 0.43235 0.37531 0.97359 0.0
Zn510 Zn 0.21637 0.51614 0.75186 0.0
C511 C 0.17089 0.63923 0.89425 0.0
N512 N 0.13264 0.6581 0.84577 0.0
C513 C 0.14764 0.62804 0.78753 0.0
N514 N 0.19351 0.59149 0.80002 0.0
N515 N 0.20883 0.60127 0.86674 0.0
C516 C 0.24387 0.51264 0.07261 0.0
O517 O 0.20709 0.47418 0.09731 0.0
O518 O 0.21837 0.51669 0.64497 0.0
Zn519 Zn 0.27297 0.57052 0.92194 0.0
N520 N 0.16882 0.45637 0.79808 0.0
C521 C 0.15835 0.42782 0.91848 0.0
C522 C 0.18419 0.4616 0.86717 0.0
C523 C 0.12902 0.41548 0.77722 0.0
N524 N 0.1183 0.38865 0.89878 0.0
C525 C 0.10265 0.38055 0.83005 0.0
O526 O 0.32263 0.51618 0.87246 0.0
C527 C 0.33445 0.48589 0.81883 0.0
O528 O 0.29947 0.48313 0.76709 0.0
H529 H 0.21677 0.49215 0.88226 0.0
H530 H 0.11769 0.41083 0.72191 0.0
C531 C 0.35465 0.62513 0.0088 0.0
C532 C 0.38451 0.67234 0.03676 0.0
C533 C 0.36175 0.72637 0.93334 0.0
C534 C 0.32825 0.68057 0.90844 0.0
N535 N 0.32474 0.63136 0.94763 0.0
N536 N 0.38833 0.72142 0.99731 0.0
H537 H 0.35341 0.58431 0.03608 0.0
C538 C 0.26411 0.54257 0.62376 0.0
O539 O 0.29032 0.57749 0.66836 0.0
O540 O 0.242 0.52493 0.00684 0.0
H541 H 0.30426 0.68447 0.85944 0.0
H542 H 0.17006 0.43221 0.97357 0.0
H543 H 0.36476 0.76623 0.90348 0.0
loop_
_geom_bond_atom_site_label_1
_geom_bond_atom_site_label_2
_geom_bond_distance
_geom_bond_site_symmetry_2
_ccdc_geom_bond_type
Zn0 N4 2.020 . S
Zn0 O8 2.019 . S
Zn0 N10 2.119 . S
Zn0 O18 1.975 . S
C1 N2 1.334 . S
C1 N5 1.336 . S
N2 C1 1.334 . S
N2 C3 1.334 . S
C3 N2 1.334 . S
C3 N4 1.336 . S
N4 Zn0 2.020 . S
N4 C3 1.336 . S
N4 N5 1.354 . S
N5 C1 1.336 . S
N5 N4 1.354 . S
N5 Zn9 2.020 . S
C6 O7 1.244 . S
C6 O30 1.257 . S
O7 C6 1.244 . S
O8 Zn0 2.019 . S
O8 C28 1.257 . S
Zn9 N5 2.020 . S
Zn9 O16 1.975 . S
Zn9 N25 2.119 . S
Zn9 O30 2.019 . S
N10 Zn0 2.119 . S
N10 C12 1.334 . S
N10 C13 1.328 . S
C11 C12 1.391 . S
C11 N14 1.329 . S
C11 H32 0.930 . S
C12 N10 1.334 . S
C12 C11 1.391 . S
C12 H19 0.930 . S
C13 N10 1.328 . S
C13 C15 1.392 . S
C13 H20 0.930 . S
N14 C11 1.329 . S
N14 C15 1.331 . S
C15 C13 1.392 . S
C15 N14 1.331 . S
O16 Zn9 1.975 . S
O16 C17 1.252 . S
C17 O16 1.252 . S
C17 O18 1.252 . S
O18 Zn0 1.975 . S
O18 C17 1.252 . S
H19 C12 0.930 . S
H20 C13 0.930 . S
C21 C22 1.392 . S
C21 N25 1.328 . S
C21 H27 0.930 . S
C22 C21 1.392 . S
C22 N26 1.331 . S
C23 C24 1.391 . S
C23 N26 1.329 . S
C23 H33 0.930 . S
C24 C23 1.391 . S
C24 N25 1.334 . S
C24 H31 0.930 . S
N25 Zn9 2.119 . S
N25 C21 1.328 . S
N25 C24 1.334 . S
N26 C22 1.331 . S
N26 C23 1.329 . S
H27 C21 0.930 . S
C28 O8 1.257 . S
C28 O29 1.244 . S
O29 C28 1.244 . S
O30 C6 1.257 . S
O30 Zn9 2.019 . S
H31 C24 0.930 . S
H32 C11 0.930 . S
H33 C23 0.930 . S
Zn34 N38 2.020 . S
Zn34 O42 2.019 . S
Zn34 N44 2.119 . S
Zn34 O52 1.975 . S
C35 N36 1.334 . S
C35 N39 1.336 . S
N36 C35 1.334 . S
N36 C37 1.334 . S
C37 N36 1.334 . S
C37 N38 1.336 . S
N38 Zn34 2.020 . S
N38 C37 1.336 . S
N38 N39 1.354 . S
N39 C35 1.336 . S
N39 N38 1.354 . S
N39 Zn43 2.020 . S
C40 O41 1.244 . S
C40 O64 1.257 . S
O41 C40 1.244 . S
O42 Zn34 2.019 . S
O42 C62 1.257 . S
Zn43 N39 2.020 . S
Zn43 O50 1.975 . S
Zn43 N59 2.119 . S
Zn43 O64 2.019 . S
N44 Zn34 2.119 . S
N44 C46 1.334 . S
N44 C47 1.328 . S
C45 C46 1.391 . S
C45 N48 1.329 . S
C45 H66 0.930 . S
C46 N44 1.334 . S
C46 C45 1.391 . S
C46 H53 0.930 . S
C47 N44 1.328 . S
C47 C49 1.392 . S
C47 H54 0.930 . S
N48 C45 1.329 . S
N48 C49 1.331 . S
C49 C47 1.392 . S
C49 N48 1.331 . S
O50 Zn43 1.975 . S
O50 C51 1.252 . S
C51 O50 1.252 . S
C51 O52 1.252 . S
O52 Zn34 1.975 . S
O52 C51 1.252 . S
H53 C46 0.930 . S
H54 C47 0.930 . S
C55 C56 1.392 . S
C55 N59 1.328 . S
C55 H61 0.930 . S
C56 C55 1.392 . S
C56 N60 1.331 . S
C57 C58 1.391 . S
C57 N60 1.329 . S
C57 H67 0.930 . S
C58 C57 1.391 . S
C58 N59 1.334 . S
C58 H65 0.930 . S
N59 Zn43 2.119 . S
N59 C55 1.328 . S
N59 C58 1.334 . S
N60 C56 1.331 . S
N60 C57 1.329 . S
H61 C55 0.930 . S
C62 O42 1.257 . S
C62 O63 1.244 . S
O63 C62 1.244 . S
O64 C40 1.257 . S
O64 Zn43 2.019 . S
H65 C58 0.930 . S
H66 C45 0.930 . S
H67 C57 0.930 . S
Zn68 N72 2.020 . S
Zn68 O76 2.019 . S
Zn68 N78 2.119 . S
Zn68 O86 1.975 1_655 S
C69 N70 1.334 . S
C69 N73 1.336 . S
N70 C69 1.334 . S
N70 C71 1.334 . S
C71 N70 1.334 . S
C71 N72 1.336 . S
N72 Zn68 2.020 . S
N72 C71 1.336 . S
N72 N73 1.354 . S
N73 C69 1.336 . S
N73 N72 1.354 . S
N73 Zn77 2.020 1_655 S
C74 O75 1.244 . S
C74 O98 1.257 1_655 S
O75 C74 1.244 . S
O76 Zn68 2.019 . S
O76 C96 1.257 . S
Zn77 N73 2.020 1_455 S
Zn77 O84 1.975 . S
Zn77 N93 2.119 . S
Zn77 O98 2.019 . S
N78 Zn68 2.119 . S
N78 C80 1.334 . S
N78 C81 1.328 . S
C79 C80 1.391 . S
C79 N82 1.329 . S
C79 H100 0.930 . S
C80 N78 1.334 . S
C80 C79 1.391 . S
C80 H87 0.930 . S
C81 N78 1.328 . S
C81 C83 1.392 . S
C81 H88 0.930 . S
N82 C79 1.329 . S
N82 C83 1.331 . S
C83 C81 1.392 . S
C83 N82 1.331 . S
O84 Zn77 1.975 . S
O84 C85 1.252 . S
C85 O84 1.252 . S
C85 O86 1.252 . S
O86 Zn68 1.975 1_455 S
O86 C85 1.252 . S
H87 C80 0.930 . S
H88 C81 0.930 . S
C89 C90 1.392 . S
C89 N93 1.328 . S
C89 H95 0.930 . S
C90 C89 1.392 . S
C90 N94 1.331 . S
C91 C92 1.391 . S
C91 N94 1.329 . S
C91 H101 0.930 . S
C92 C91 1.391 . S
C92 N93 1.334 . S
C92 H99 0.930 . S
N93 Zn77 2.119 . S
N93 C89 1.328 . S
N93 C92 1.334 . S
N94 C90 1.331 . S
N94 C91 1.329 . S
H95 C89 0.930 . S
C96 O76 1.257 . S
C96 O97 1.244 . S
O97 C96 1.244 . S
O98 C74 1.257 1_455 S
O98 Zn77 2.019 . S
H99 C92 0.930 . S
H100 C79 0.930 . S
H101 C91 0.930 . S
Zn102 N106 2.020 . S
Zn102 O110 2.019 . S
Zn102 N112 2.119 . S
Zn102 O120 1.975 1_565 S
C103 N104 1.334 . S
C103 N107 1.336 . S
N104 C103 1.334 . S
N104 C105 1.334 . S
C105 N104 1.334 . S
C105 N106 1.336 . S
N106 Zn102 2.020 . S
N106 C105 1.336 . S
N106 N107 1.354 . S
N107 C103 1.336 . S
N107 N106 1.354 . S
N107 Zn111 2.020 1_565 S
C108 O109 1.244 . S
C108 O132 1.257 1_565 S
O109 C108 1.244 . S
O110 Zn102 2.019 . S
O110 C130 1.257 . S
Zn111 N107 2.020 1_545 S
Zn111 O118 1.975 . S
Zn111 N127 2.119 . S
Zn111 O132 2.019 . S
N112 Zn102 2.119 . S
N112 C114 1.334 . S
N112 C115 1.328 . S
C113 C114 1.391 . S
C113 N116 1.329 . S
C113 H134 0.930 . S
C114 N112 1.334 . S
C114 C113 1.391 . S
C114 H121 0.930 . S
C115 N112 1.328 . S
C115 C117 1.392 . S
C115 H122 0.930 . S
N116 C113 1.329 . S
N116 C117 1.331 . S
C117 C115 1.392 . S
C117 N116 1.331 . S
O118 Zn111 1.975 . S
O118 C119 1.252 . S
C119 O118 1.252 . S
C119 O120 1.252 . S
O120 Zn102 1.975 1_545 S
O120 C119 1.252 . S
H121 C114 0.930 . S
H122 C115 0.930 . S
C123 C124 1.392 . S
C123 N127 1.328 . S
C123 H129 0.930 . S
C124 C123 1.392 . S
C124 N128 1.331 . S
C125 C126 1.391 . S
C125 N128 1.329 . S
C125 H135 0.930 . S
C126 C125 1.391 . S
C126 N127 1.334 . S
C126 H133 0.930 . S
N127 Zn111 2.119 . S
N127 C123 1.328 . S
N127 C126 1.334 . S
N128 C124 1.331 . S
N128 C125 1.329 . S
H129 C123 0.930 . S
C130 O110 1.257 . S
C130 O131 1.244 . S
O131 C130 1.244 . S
O132 C108 1.257 1_545 S
O132 Zn111 2.019 . S
H133 C126 0.930 . S
H134 C113 0.930 . S
H135 C125 0.930 . S
Zn136 N140 2.020 1_655 S
Zn136 O144 2.019 . S
Zn136 N146 2.119 . S
Zn136 O154 1.975 . S
C137 N138 1.334 . S
C137 N141 1.336 . S
N138 C137 1.334 . S
N138 C139 1.334 . S
C139 N138 1.334 . S
C139 N140 1.336 . S
N140 Zn136 2.020 1_455 S
N140 C139 1.336 . S
N140 N141 1.354 . S
N141 C137 1.336 . S
N141 N140 1.354 . S
N141 Zn145 2.020 . S
C142 O143 1.244 . S
C142 O166 1.257 . S
O143 C142 1.244 . S
O144 Zn136 2.019 . S
O144 C164 1.257 1_655 S
Zn145 N141 2.020 . S
Zn145 O152 1.975 1_455 S
Zn145 N161 2.119 . S
Zn145 O166 2.019 1_554 S
N146 Zn136 2.119 . S
N146 C148 1.334 . S
N146 C149 1.328 . S
C147 C148 1.391 . S
C147 N150 1.329 . S
C147 H168 0.930 . S
C148 N146 1.334 . S
C148 C147 1.391 . S
C148 H155 0.930 . S
C149 N146 1.328 . S
C149 C151 1.392 . S
C149 H156 0.930 . S
N150 C147 1.329 . S
N150 C151 1.331 . S
C151 C149 1.392 . S
C151 N150 1.331 . S
O152 Zn145 1.975 1_655 S
O152 C153 1.252 . S
C153 O152 1.252 . S
C153 O154 1.252 . S
O154 Zn136 1.975 . S
O154 C153 1.252 . S
H155 C148 0.930 . S
H156 C149 0.930 . S
C157 C158 1.392 . S
C157 N161 1.328 . S
C157 H163 0.930 1_554 S
C158 C157 1.392 . S
C158 N162 1.331 . S
C159 C160 1.391 . S
C159 N162 1.329 . S
C159 H169 0.930 . S
C160 C159 1.391 . S
C160 N161 1.334 . S
C160 H167 0.930 . S
N161 Zn145 2.119 . S
N161 C157 1.328 . S
N161 C160 1.334 . S
N162 C158 1.331 . S
N162 C159 1.329 . S
H163 C157 0.930 1_556 S
C164 O144 1.257 1_455 S
C164 O165 1.244 . S
O165 C164 1.244 . S
O166 C142 1.257 . S
O166 Zn145 2.019 1_556 S
H167 C160 0.930 . S
H168 C147 0.930 . S
H169 C159 0.930 . S
Zn170 N174 2.020 1_565 S
Zn170 O178 2.019 . S
Zn170 N180 2.119 . S
Zn170 O188 1.975 . S
C171 N172 1.334 . S
C171 N175 1.336 . S
N172 C171 1.334 . S
N172 C173 1.334 . S
C173 N172 1.334 . S
C173 N174 1.336 . S
N174 Zn170 2.020 1_545 S
N174 C173 1.336 . S
N174 N175 1.354 . S
N175 C171 1.336 . S
N175 N174 1.354 . S
N175 Zn179 2.020 . S
C176 O177 1.244 . S
C176 O200 1.257 . S
O177 C176 1.244 . S
O178 Zn170 2.019 . S
O178 C198 1.257 1_565 S
Zn179 N175 2.020 . S
Zn179 O186 1.975 1_545 S
Zn179 N195 2.119 . S
Zn179 O200 2.019 1_554 S
N180 Zn170 2.119 . S
N180 C182 1.334 . S
N180 C183 1.328 . S
C181 C182 1.391 . S
C181 N184 1.329 . S
C181 H202 0.930 . S
C182 N180 1.334 . S
C182 C181 1.391 . S
C182 H189 0.930 . S
C183 N180 1.328 . S
C183 C185 1.392 . S
C183 H190 0.930 . S
N184 C181 1.329 . S
N184 C185 1.331 . S
C185 C183 1.392 . S
C185 N184 1.331 . S
O186 Zn179 1.975 1_565 S
O186 C187 1.252 . S
C187 O186 1.252 . S
C187 O188 1.252 . S
O188 Zn170 1.975 . S
O188 C187 1.252 . S
H189 C182 0.930 . S
H190 C183 0.930 . S
C191 C192 1.392 . S
C191 N195 1.328 . S
C191 H197 0.930 1_554 S
C192 C191 1.392 . S
C192 N196 1.331 . S
C193 C194 1.391 . S
C193 N196 1.329 . S
C193 H203 0.930 . S
C194 C193 1.391 . S
C194 N195 1.334 . S
C194 H201 0.930 . S
N195 Zn179 2.119 . S
N195 C191 1.328 . S
N195 C194 1.334 . S
N196 C192 1.331 . S
N196 C193 1.329 . S
H197 C191 0.930 1_556 S
C198 O178 1.257 1_545 S
C198 O199 1.244 . S
O199 C198 1.244 . S
O200 C176 1.257 . S
O200 Zn179 2.019 1_556 S
H201 C194 0.930 . S
H202 C181 0.930 . S
H203 C193 0.930 . S
Zn204 N208 2.020 . S
Zn204 O212 2.019 . S
Zn204 N214 2.119 . S
Zn204 O222 1.975 . S
C205 N206 1.334 . S
C205 N209 1.336 . S
N206 C205 1.334 . S
N206 C207 1.334 . S
C207 N206 1.334 . S
C207 N208 1.336 . S
N208 Zn204 2.020 . S
N208 C207 1.336 . S
N208 N209 1.354 . S
N209 C205 1.336 . S
N209 N208 1.354 . S
N209 Zn213 2.020 . S
C210 O211 1.244 . S
C210 O234 1.257 . S
O211 C210 1.244 . S
O212 Zn204 2.019 . S
O212 C232 1.257 . S
Zn213 N209 2.020 . S
Zn213 O220 1.975 . S
Zn213 N229 2.119 . S
Zn213 O234 2.019 1_554 S
N214 Zn204 2.119 . S
N214 C216 1.334 . S
N214 C217 1.328 . S
C215 C216 1.391 . S
C215 N218 1.329 . S
C215 H236 0.930 . S
C216 N214 1.334 . S
C216 C215 1.391 . S
C216 H223 0.930 . S
C217 N214 1.328 . S
C217 C219 1.392 . S
C217 H224 0.930 . S
N218 C215 1.329 . S
N218 C219 1.331 . S
C219 C217 1.392 . S
C219 N218 1.331 . S
O220 Zn213 1.975 . S
O220 C221 1.252 . S
C221 O220 1.252 . S
C221 O222 1.252 . S
O222 Zn204 1.975 . S
O222 C221 1.252 . S
H223 C216 0.930 . S
H224 C217 0.930 . S
C225 C226 1.392 . S
C225 N229 1.328 . S
C225 H231 0.930 1_554 S
C226 C225 1.392 . S
C226 N230 1.331 . S
C227 C228 1.391 . S
C227 N230 1.329 . S
C227 H237 0.930 . S
C228 C227 1.391 . S
C228 N229 1.334 . S
C228 H235 0.930 . S
N229 Zn213 2.119 . S
N229 C225 1.328 . S
N229 C228 1.334 . S
N230 C226 1.331 . S
N230 C227 1.329 . S
H231 C225 0.930 1_556 S
C232 O212 1.257 . S
C232 O233 1.244 . S
O233 C232 1.244 . S
O234 C210 1.257 . S
O234 Zn213 2.019 1_556 S
H235 C228 0.930 . S
H236 C215 0.930 . S
H237 C227 0.930 . S
Zn238 N242 2.020 . S
Zn238 O246 2.019 . S
Zn238 N248 2.119 . S
Zn238 O256 1.975 . S
C239 N240 1.334 . S
C239 N243 1.336 . S
N240 C239 1.334 . S
N240 C241 1.334 . S
C241 N240 1.334 . S
C241 N242 1.336 . S
N242 Zn238 2.020 . S
N242 C241 1.336 . S
N242 N243 1.354 . S
N243 C239 1.336 . S
N243 N242 1.354 . S
N243 Zn247 2.020 . S
C244 O245 1.244 . S
C244 O268 1.257 . S
O245 C244 1.244 . S
O246 Zn238 2.019 . S
O246 C266 1.257 . S
Zn247 N243 2.020 . S
Zn247 O254 1.975 . S
Zn247 N263 2.119 . S
Zn247 O268 2.019 1_554 S
N248 Zn238 2.119 . S
N248 C250 1.334 . S
N248 C251 1.328 . S
C249 C250 1.391 . S
C249 N252 1.329 . S
C249 H270 0.930 . S
C250 N248 1.334 . S
C250 C249 1.391 . S
C250 H257 0.930 . S
C251 N248 1.328 . S
C251 C253 1.392 . S
C251 H258 0.930 . S
N252 C249 1.329 . S
N252 C253 1.331 . S
C253 C251 1.392 . S
C253 N252 1.331 . S
O254 Zn247 1.975 . S
O254 C255 1.252 . S
C255 O254 1.252 . S
C255 O256 1.252 . S
O256 Zn238 1.975 . S
O256 C255 1.252 . S
H257 C250 0.930 . S
H258 C251 0.930 . S
C259 C260 1.392 . S
C259 N263 1.328 . S
C259 H265 0.930 1_554 S
C260 C259 1.392 . S
C260 N264 1.331 . S
C261 C262 1.391 . S
C261 N264 1.329 . S
C261 H271 0.930 . S
C262 C261 1.391 . S
C262 N263 1.334 . S
C262 H269 0.930 . S
N263 Zn247 2.119 . S
N263 C259 1.328 . S
N263 C262 1.334 . S
N264 C260 1.331 . S
N264 C261 1.329 . S
H265 C259 0.930 1_556 S
C266 O246 1.257 . S
C266 O267 1.244 . S
O267 C266 1.244 . S
O268 C244 1.257 . S
O268 Zn247 2.019 1_556 S
H269 C262 0.930 . S
H270 C249 0.930 . S
H271 C261 0.930 . S
Zn272 N276 2.020 . S
Zn272 O280 2.019 . S
Zn272 N282 2.119 . S
Zn272 O290 1.975 . S
C273 N274 1.334 . S
C273 N277 1.336 . S
N274 C273 1.334 . S
N274 C275 1.334 . S
C275 N274 1.334 . S
C275 N276 1.336 . S
N276 Zn272 2.020 . S
N276 C275 1.336 . S
N276 N277 1.354 . S
N277 C273 1.336 . S
N277 N276 1.354 . S
N277 Zn281 2.020 . S
C278 O279 1.244 . S
C278 O302 1.257 . S
O279 C278 1.244 . S
O280 Zn272 2.019 . S
O280 C300 1.257 . S
Zn281 N277 2.020 . S
Zn281 O288 1.975 . S
Zn281 N297 2.119 . S
Zn281 O302 2.019 . S
N282 Zn272 2.119 . S
N282 C284 1.334 . S
N282 C285 1.328 . S
C283 C284 1.391 . S
C283 N286 1.329 . S
C283 H304 0.930 . S
C284 N282 1.334 . S
C284 C283 1.391 . S
C284 H291 0.930 . S
C285 N282 1.328 . S
C285 C287 1.392 . S
C285 H292 0.930 . S
N286 C283 1.329 . S
N286 C287 1.331 . S
C287 C285 1.392 . S
C287 N286 1.331 . S
O288 Zn281 1.975 . S
O288 C289 1.252 . S
C289 O288 1.252 . S
C289 O290 1.252 . S
O290 Zn272 1.975 . S
O290 C289 1.252 . S
H291 C284 0.930 . S
H292 C285 0.930 . S
C293 C294 1.392 . S
C293 N297 1.328 . S
C293 H299 0.930 . S
C294 C293 1.392 . S
C294 N298 1.331 . S
C295 C296 1.391 . S
C295 N298 1.329 . S
C295 H305 0.930 . S
C296 C295 1.391 . S
C296 N297 1.334 . S
C296 H303 0.930 . S
N297 Zn281 2.119 . S
N297 C293 1.328 . S
N297 C296 1.334 . S
N298 C294 1.331 . S
N298 C295 1.329 . S
H299 C293 0.930 . S
C300 O280 1.257 . S
C300 O301 1.244 . S
O301 C300 1.244 . S
O302 C278 1.257 . S
O302 Zn281 2.019 . S
H303 C296 0.930 . S
H304 C283 0.930 . S
H305 C295 0.930 . S
Zn306 N310 2.020 . S
Zn306 O314 2.019 . S
Zn306 N316 2.119 . S
Zn306 O324 1.975 . S
C307 N308 1.334 . S
C307 N311 1.336 . S
N308 C307 1.334 . S
N308 C309 1.334 . S
C309 N308 1.334 . S
C309 N310 1.336 . S
N310 Zn306 2.020 . S
N310 C309 1.336 . S
N310 N311 1.354 . S
N311 C307 1.336 . S
N311 N310 1.354 . S
N311 Zn315 2.020 . S
C312 O313 1.244 . S
C312 O336 1.257 . S
O313 C312 1.244 . S
O314 Zn306 2.019 . S
O314 C334 1.257 . S
Zn315 N311 2.020 . S
Zn315 O322 1.975 . S
Zn315 N331 2.119 . S
Zn315 O336 2.019 . S
N316 Zn306 2.119 . S
N316 C318 1.334 . S
N316 C319 1.328 . S
C317 C318 1.391 . S
C317 N320 1.329 . S
C317 H338 0.930 . S
C318 N316 1.334 . S
C318 C317 1.391 . S
C318 H325 0.930 . S
C319 N316 1.328 . S
C319 C321 1.392 . S
C319 H326 0.930 . S
N320 C317 1.329 . S
N320 C321 1.331 . S
C321 C319 1.392 . S
C321 N320 1.331 . S
O322 Zn315 1.975 . S
O322 C323 1.252 . S
C323 O322 1.252 . S
C323 O324 1.252 . S
O324 Zn306 1.975 . S
O324 C323 1.252 . S
H325 C318 0.930 . S
H326 C319 0.930 . S
C327 C328 1.392 . S
C327 N331 1.328 . S
C327 H333 0.930 . S
C328 C327 1.392 . S
C328 N332 1.331 . S
C329 C330 1.391 . S
C329 N332 1.329 . S
C329 H339 0.930 . S
C330 C329 1.391 . S
C330 N331 1.334 . S
C330 H337 0.930 . S
N331 Zn315 2.119 . S
N331 C327 1.328 . S
N331 C330 1.334 . S
N332 C328 1.331 . S
N332 C329 1.329 . S
H333 C327 0.930 . S
C334 O314 1.257 . S
C334 O335 1.244 . S
O335 C334 1.244 . S
O336 C312 1.257 . S
O336 Zn315 2.019 . S
H337 C330 0.930 . S
H338 C317 0.930 . S
H339 C329 0.930 . S
Zn340 N344 2.020 . S
Zn340 O348 2.019 . S
Zn340 N350 2.119 . S
Zn340 O358 1.975 1_455 S
C341 N342 1.334 . S
C341 N345 1.336 . S
N342 C341 1.334 . S
N342 C343 1.334 . S
C343 N342 1.334 . S
C343 N344 1.336 . S
N344 Zn340 2.020 . S
N344 C343 1.336 . S
N344 N345 1.354 . S
N345 C341 1.336 . S
N345 N344 1.354 . S
N345 Zn349 2.020 1_455 S
C346 O347 1.244 . S
C346 O370 1.257 1_455 S
O347 C346 1.244 . S
O348 Zn340 2.019 . S
O348 C368 1.257 . S
Zn349 N345 2.020 1_655 S
Zn349 O356 1.975 . S
Zn349 N365 2.119 . S
Zn349 O370 2.019 . S
N350 Zn340 2.119 . S
N350 C352 1.334 . S
N350 C353 1.328 . S
C351 C352 1.391 . S
C351 N354 1.329 . S
C351 H372 0.930 . S
C352 N350 1.334 . S
C352 C351 1.391 . S
C352 H359 0.930 . S
C353 N350 1.328 . S
C353 C355 1.392 . S
C353 H360 0.930 . S
N354 C351 1.329 . S
N354 C355 1.331 . S
C355 C353 1.392 . S
C355 N354 1.331 . S
O356 Zn349 1.975 . S
O356 C357 1.252 . S
C357 O356 1.252 . S
C357 O358 1.252 . S
O358 Zn340 1.975 1_655 S
O358 C357 1.252 . S
H359 C352 0.930 . S
H360 C353 0.930 . S
C361 C362 1.392 . S
C361 N365 1.328 . S
C361 H367 0.930 . S
C362 C361 1.392 . S
C362 N366 1.331 . S
C363 C364 1.391 . S
C363 N366 1.329 . S
C363 H373 0.930 . S
C364 C363 1.391 . S
C364 N365 1.334 . S
C364 H371 0.930 . S
N365 Zn349 2.119 . S
N365 C361 1.328 . S
N365 C364 1.334 . S
N366 C362 1.331 . S
N366 C363 1.329 . S
H367 C361 0.930 . S
C368 O348 1.257 . S
C368 O369 1.244 . S
O369 C368 1.244 . S
O370 C346 1.257 1_655 S
O370 Zn349 2.019 . S
H371 C364 0.930 . S
H372 C351 0.930 . S
H373 C363 0.930 . S
Zn374 N378 2.020 1_565 S
Zn374 O382 2.019 . S
Zn374 N384 2.119 . S
Zn374 O392 1.975 . S
C375 N376 1.334 . S
C375 N379 1.336 . S
N376 C375 1.334 . S
N376 C377 1.334 . S
C377 N376 1.334 . S
C377 N378 1.336 . S
N378 Zn374 2.020 1_545 S
N378 C377 1.336 . S
N378 N379 1.354 . S
N379 C375 1.336 . S
N379 N378 1.354 . S
N379 Zn383 2.020 . S
C380 O381 1.244 . S
C380 O404 1.257 . S
O381 C380 1.244 . S
O382 Zn374 2.019 . S
O382 C402 1.257 1_565 S
Zn383 N379 2.020 . S
Zn383 O390 1.975 1_545 S
Zn383 N399 2.119 . S
Zn383 O404 2.019 . S
N384 Zn374 2.119 . S
N384 C386 1.334 . S
N384 C387 1.328 . S
C385 C386 1.391 . S
C385 N388 1.329 . S
C385 H406 0.930 . S
C386 N384 1.334 . S
C386 C385 1.391 . S
C386 H393 0.930 . S
C387 N384 1.328 . S
C387 C389 1.392 . S
C387 H394 0.930 . S
N388 C385 1.329 . S
N388 C389 1.331 . S
C389 C387 1.392 . S
C389 N388 1.331 . S
O390 Zn383 1.975 1_565 S
O390 C391 1.252 . S
C391 O390 1.252 . S
C391 O392 1.252 . S
O392 Zn374 1.975 . S
O392 C391 1.252 . S
H393 C386 0.930 . S
H394 C387 0.930 . S
C395 C396 1.392 . S
C395 N399 1.328 . S
C395 H401 0.930 . S
C396 C395 1.392 . S
C396 N400 1.331 . S
C397 C398 1.391 . S
C397 N400 1.329 . S
C397 H407 0.930 . S
C398 C397 1.391 . S
C398 N399 1.334 . S
C398 H405 0.930 . S
N399 Zn383 2.119 . S
N399 C395 1.328 . S
N399 C398 1.334 . S
N400 C396 1.331 . S
N400 C397 1.329 . S
H401 C395 0.930 . S
C402 O382 1.257 1_545 S
C402 O403 1.244 . S
O403 C402 1.244 . S
O404 C380 1.257 . S
O404 Zn383 2.019 . S
H405 C398 0.930 . S
H406 C385 0.930 . S
H407 C397 0.930 . S
Zn408 N412 2.020 1_455 S
Zn408 O416 2.019 . S
Zn408 N418 2.119 . S
Zn408 O426 1.975 . S
C409 N410 1.334 . S
C409 N413 1.336 . S
N410 C409 1.334 . S
N410 C411 1.334 . S
C411 N410 1.334 . S
C411 N412 1.336 . S
N412 Zn408 2.020 1_655 S
N412 C411 1.336 . S
N412 N413 1.354 . S
N413 C409 1.336 . S
N413 N412 1.354 . S
N413 Zn417 2.020 . S
C414 O415 1.244 . S
C414 O438 1.257 . S
O415 C414 1.244 . S
O416 Zn408 2.019 . S
O416 C436 1.257 1_455 S
Zn417 N413 2.020 . S
Zn417 O424 1.975 1_655 S
Zn417 N433 2.119 . S
Zn417 O438 2.019 1_556 S
N418 Zn408 2.119 . S
N418 C420 1.334 . S
N418 C421 1.328 . S
C419 C420 1.391 . S
C419 N422 1.329 . S
C419 H440 0.930 . S
C420 N418 1.334 . S
C420 C419 1.391 . S
C420 H427 0.930 . S
C421 N418 1.328 . S
C421 C423 1.392 . S
C421 H428 0.930 . S
N422 C419 1.329 . S
N422 C423 1.331 . S
C423 C421 1.392 . S
C423 N422 1.331 . S
O424 Zn417 1.975 1_455 S
O424 C425 1.252 . S
C425 O424 1.252 . S
C425 O426 1.252 . S
O426 Zn408 1.975 . S
O426 C425 1.252 . S
H427 C420 0.930 . S
H428 C421 0.930 . S
C429 C430 1.392 . S
C429 N433 1.328 . S
C429 H435 0.930 1_556 S
C430 C429 1.392 . S
C430 N434 1.331 . S
C431 C432 1.391 . S
C431 N434 1.329 . S
C431 H441 0.930 . S
C432 C431 1.391 . S
C432 N433 1.334 . S
C432 H439 0.930 . S
N433 Zn417 2.119 . S
N433 C429 1.328 . S
N433 C432 1.334 . S
N434 C430 1.331 . S
N434 C431 1.329 . S
H435 C429 0.930 1_554 S
C436 O416 1.257 1_655 S
C436 O437 1.244 . S
O437 C436 1.244 . S
O438 C414 1.257 . S
O438 Zn417 2.019 1_554 S
H439 C432 0.930 . S
H440 C419 0.930 . S
H441 C431 0.930 . S
Zn442 N446 2.020 1_545 S
Zn442 O450 2.019 . S
Zn442 N452 2.119 . S
Zn442 O460 1.975 . S
C443 N444 1.334 . S
C443 N447 1.336 . S
N444 C443 1.334 . S
N444 C445 1.334 . S
C445 N444 1.334 . S
C445 N446 1.336 . S
N446 Zn442 2.020 1_565 S
N446 C445 1.336 . S
N446 N447 1.354 . S
N447 C443 1.336 . S
N447 N446 1.354 . S
N447 Zn451 2.020 . S
C448 O449 1.244 . S
C448 O472 1.257 . S
O449 C448 1.244 . S
O450 Zn442 2.019 . S
O450 C470 1.257 1_545 S
Zn451 N447 2.020 . S
Zn451 O458 1.975 1_565 S
Zn451 N467 2.119 . S
Zn451 O472 2.019 1_556 S
N452 Zn442 2.119 . S
N452 C454 1.334 . S
N452 C455 1.328 . S
C453 C454 1.391 . S
C453 N456 1.329 . S
C453 H474 0.930 . S
C454 N452 1.334 . S
C454 C453 1.391 . S
C454 H461 0.930 . S
C455 N452 1.328 . S
C455 C457 1.392 . S
C455 H462 0.930 . S
N456 C453 1.329 . S
N456 C457 1.331 . S
C457 C455 1.392 . S
C457 N456 1.331 . S
O458 Zn451 1.975 1_545 S
O458 C459 1.252 . S
C459 O458 1.252 . S
C459 O460 1.252 . S
O460 Zn442 1.975 . S
O460 C459 1.252 . S
H461 C454 0.930 . S
H462 C455 0.930 . S
C463 C464 1.392 . S
C463 N467 1.328 . S
C463 H469 0.930 1_556 S
C464 C463 1.392 . S
C464 N468 1.331 . S
C465 C466 1.391 . S
C465 N468 1.329 . S
C465 H475 0.930 . S
C466 C465 1.391 . S
C466 N467 1.334 . S
C466 H473 0.930 . S
N467 Zn451 2.119 . S
N467 C463 1.328 . S
N467 C466 1.334 . S
N468 C464 1.331 . S
N468 C465 1.329 . S
H469 C463 0.930 1_554 S
C470 O450 1.257 1_565 S
C470 O471 1.244 . S
O471 C470 1.244 . S
O472 C448 1.257 . S
O472 Zn451 2.019 1_554 S
H473 C466 0.930 . S
H474 C453 0.930 . S
H475 C465 0.930 . S
Zn476 N480 2.020 . S
Zn476 O484 2.019 1_556 S
Zn476 N486 2.119 . S
Zn476 O494 1.975 . S
C477 N478 1.334 . S
C477 N481 1.336 . S
N478 C477 1.334 . S
N478 C479 1.334 . S
C479 N478 1.334 . S
C479 N480 1.336 . S
N480 Zn476 2.020 . S
N480 C479 1.336 . S
N480 N481 1.354 . S
N481 C477 1.336 . S
N481 N480 1.354 . S
N481 Zn485 2.020 . S
C482 O483 1.244 . S
C482 O506 1.257 . S
O483 C482 1.244 . S
O484 Zn476 2.019 1_554 S
O484 C504 1.257 . S
Zn485 N481 2.020 . S
Zn485 O492 1.975 . S
Zn485 N501 2.119 . S
Zn485 O506 2.019 . S
N486 Zn476 2.119 . S
N486 C488 1.334 . S
N486 C489 1.328 . S
C487 C488 1.391 . S
C487 N490 1.329 . S
C487 H508 0.930 . S
C488 N486 1.334 . S
C488 C487 1.391 . S
C488 H495 0.930 . S
C489 N486 1.328 . S
C489 C491 1.392 . S
C489 H496 0.930 1_556 S
N490 C487 1.329 . S
N490 C491 1.331 . S
C491 C489 1.392 . S
C491 N490 1.331 . S
O492 Zn485 1.975 . S
O492 C493 1.252 . S
C493 O492 1.252 . S
C493 O494 1.252 . S
O494 Zn476 1.975 . S
O494 C493 1.252 . S
H495 C488 0.930 . S
H496 C489 0.930 1_554 S
C497 C498 1.392 . S
C497 N501 1.328 . S
C497 H503 0.930 . S
C498 C497 1.392 . S
C498 N502 1.331 . S
C499 C500 1.391 . S
C499 N502 1.329 . S
C499 H509 0.930 . S
C500 C499 1.391 . S
C500 N501 1.334 . S
C500 H507 0.930 . S
N501 Zn485 2.119 . S
N501 C497 1.328 . S
N501 C500 1.334 . S
N502 C498 1.331 . S
N502 C499 1.329 . S
H503 C497 0.930 . S
C504 O484 1.257 . S
C504 O505 1.244 . S
O505 C504 1.244 . S
O506 C482 1.257 . S
O506 Zn485 2.019 . S
H507 C500 0.930 . S
H508 C487 0.930 . S
H509 C499 0.930 . S
Zn510 N514 2.020 . S
Zn510 O518 2.019 . S
Zn510 N520 2.119 . S
Zn510 O528 1.975 . S
C511 N512 1.334 . S
C511 N515 1.336 . S
N512 C511 1.334 . S
N512 C513 1.334 . S
C513 N512 1.334 . S
C513 N514 1.336 . S
N514 Zn510 2.020 . S
N514 C513 1.336 . S
N514 N515 1.354 . S
N515 C511 1.336 . S
N515 N514 1.354 . S
N515 Zn519 2.020 . S
C516 O517 1.244 . S
C516 O540 1.257 . S
O517 C516 1.244 . S
O518 Zn510 2.019 . S
O518 C538 1.257 . S
Zn519 N515 2.020 . S
Zn519 O526 1.975 . S
Zn519 N535 2.119 . S
Zn519 O540 2.019 1_556 S
N520 Zn510 2.119 . S
N520 C522 1.334 . S
N520 C523 1.328 . S
C521 C522 1.391 . S
C521 N524 1.329 . S
C521 H542 0.930 . S
C522 N520 1.334 . S
C522 C521 1.391 . S
C522 H529 0.930 . S
C523 N520 1.328 . S
C523 C525 1.392 . S
C523 H530 0.930 . S
N524 C521 1.329 . S
N524 C525 1.331 . S
C525 C523 1.392 . S
C525 N524 1.331 . S
O526 Zn519 1.975 . S
O526 C527 1.252 . S
C527 O526 1.252 . S
C527 O528 1.252 . S
O528 Zn510 1.975 . S
O528 C527 1.252 . S
H529 C522 0.930 . S
H530 C523 0.930 . S
C531 C532 1.392 . S
C531 N535 1.328 . S
C531 H537 0.930 1_556 S
C532 C531 1.392 . S
C532 N536 1.331 . S
C533 C534 1.391 . S
C533 N536 1.329 . S
C533 H543 0.930 . S
C534 C533 1.391 . S
C534 N535 1.334 . S
C534 H541 0.930 . S
N535 Zn519 2.119 . S
N535 C531 1.328 . S
N535 C534 1.334 . S
N536 C532 1.331 . S
N536 C533 1.329 . S
H537 C531 0.930 1_554 S
C538 O518 1.257 . S
C538 O539 1.244 . S
O539 C538 1.244 . S
O540 C516 1.257 . S
O540 Zn519 2.019 1_554 S
H541 C534 0.930 . S
H542 C521 0.930 . S
H543 C533 0.930 . S
C1 C173 2.564 . S
C37 C207 2.564 . S
C241 C69 2.564 . S
C103 C139 2.564 . S
C445 C273 2.564 . S
C307 C477 2.564 . S
C341 C513 2.564 . S
C411 C377 2.564 . S
C504 C6 1.392 . S
C516 C62 1.392 . S
C74 C414 1.392 . S
C108 C448 1.392 . S
C164 C368 1.392 . S
C198 C380 1.392 . S
C232 C300 1.392 . S
C334 C266 1.392 . S
C210 C278 1.392 . S
C312 C244 1.392 . S
C346 C142 1.392 . S
C402 C176 1.392 . S
C436 C96 1.392 . S
C130 C470 1.392 . S
C482 C28 1.392 . S
C538 C40 1.392 . S
C3 C396 2.472 . S
C35 C287 2.472 . S
C321 C71 2.472 . S
C105 C355 2.472 . S
C464 C137 2.472 1_556 S
C171 C491 2.472 1_554 S
C205 C532 2.472 1_554 S
C239 C430 2.472 1_554 S
C275 C117 2.472 . S
C15 C309 2.472 . S
C56 C343 2.472 . S
C83 C375 2.472 . S
C192 C409 2.472 1_554 S
C226 C443 2.472 1_554 S
C260 C479 2.472 1_554 S
C158 C511 2.472 1_554 S
C22 C119 2.709 . S
C49 C17 2.709 . S
C51 C90 2.709 . S
C85 C124 2.709 . S
C187 C151 2.709 . S
C221 C185 2.709 . S
C255 C219 2.709 . S
C153 C253 2.709 . S
C391 C294 2.709 . S
C328 C289 2.709 . S
C362 C323 2.709 . S
C357 C389 2.709 . S
C459 C423 2.709 . S
C457 C493 2.709 . S
C527 C498 2.709 . S
C425 C525 2.709 . S
