# Generated by pormake.
# Topology wiv, (6)-cn, num edge types: 1
# Building blocks:
#     Node 0, Type 0, BuildingBlock: JUFBIX_clean_sbu_0, # of connection points: 6
#     Node 1, Type 0, BuildingBlock: JUFBIX_clean_sbu_0, # of connection points: 6
#     Node 2, Type 0, BuildingBlock: JUFBIX_clean_sbu_0, # of connection points: 6
#     Node 3, Type 0, BuildingBlock: JUFBIX_clean_sbu_0, # of connection points: 6
#     Node 4, Type 0, BuildingBlock: JUFBIX_clean_sbu_0, # of connection points: 6
#     Node 5, Type 0, BuildingBlock: JUFBIX_clean_sbu_0, # of connection points: 6
#     Node 6, Type 0, BuildingBlock: JUFBIX_clean_sbu_0, # of connection points: 6
#     Node 7, Type 0, BuildingBlock: JUFBIX_clean_sbu_0, # of connection points: 6
#     Node 8, Type 0, BuildingBlock: JUFBIX_clean_sbu_0, # of connection points: 6
#     Node 9, Type 0, BuildingBlock: JUFBIX_clean_sbu_0, # of connection points: 6
#     Node 10, Type 0, BuildingBlock: JUFBIX_clean_sbu_0, # of connection points: 6
#     Node 11, Type 0, BuildingBlock: JUFBIX_clean_sbu_0, # of connection points: 6
#     Node 12, Type 0, BuildingBlock: JUFBIX_clean_sbu_0, # of connection points: 6
#     Node 13, Type 0, BuildingBlock: JUFBIX_clean_sbu_0, # of connection points: 6
#     Node 14, Type 0, BuildingBlock: JUFBIX_clean_sbu_0, # of connection points: 6
#     Node 15, Type 0, BuildingBlock: JUFBIX_clean_sbu_0, # of connection points: 6
#     Edge 16, Type (0, 0), BuildingBlock: AJUNOK_clean_linker_0, # of connection points: 2
#     Edge 17, Type (0, 0), BuildingBlock: AJUNOK_clean_linker_0, # of connection points: 2
#     Edge 18, Type (0, 0), BuildingBlock: AJUNOK_clean_linker_0, # of connection points: 2
#     Edge 19, Type (0, 0), BuildingBlock: AJUNOK_clean_linker_0, # of connection points: 2
#     Edge 20, Type (0, 0), BuildingBlock: AJUNOK_clean_linker_0, # of connection points: 2
#     Edge 21, Type (0, 0), BuildingBlock: AJUNOK_clean_linker_0, # of connection points: 2
#     Edge 22, Type (0, 0), BuildingBlock: AJUNOK_clean_linker_0, # of connection points: 2
#     Edge 23, Type (0, 0), BuildingBlock: AJUNOK_clean_linker_0, # of connection points: 2
#     Edge 24, Type (0, 0), BuildingBlock: AJUNOK_clean_linker_0, # of connection points: 2
#     Edge 25, Type (0, 0), BuildingBlock: AJUNOK_clean_linker_0, # of connection points: 2
#     Edge 26, Type (0, 0), BuildingBlock: AJUNOK_clean_linker_0, # of connection points: 2
#     Edge 27, Type (0, 0), BuildingBlock: AJUNOK_clean_linker_0, # of connection points: 2
#     Edge 28, Type (0, 0), BuildingBlock: AJUNOK_clean_linker_0, # of connection points: 2
#     Edge 29, Type (0, 0), BuildingBlock: AJUNOK_clean_linker_0, # of connection points: 2
#     Edge 30, Type (0, 0), BuildingBlock: AJUNOK_clean_linker_0, # of connection points: 2
#     Edge 31, Type (0, 0), BuildingBlock: AJUNOK_clean_linker_0, # of connection points: 2
#     Edge 32, Type (0, 0), BuildingBlock: AJUNOK_clean_linker_0, # of connection points: 2
#     Edge 33, Type (0, 0), BuildingBlock: AJUNOK_clean_linker_0, # of connection points: 2
#     Edge 34, Type (0, 0), BuildingBlock: AJUNOK_clean_linker_0, # of connection points: 2
#     Edge 35, Type (0, 0), BuildingBlock: AJUNOK_clean_linker_0, # of connection points: 2
#     Edge 36, Type (0, 0), BuildingBlock: AJUNOK_clean_linker_0, # of connection points: 2
#     Edge 37, Type (0, 0), BuildingBlock: AJUNOK_clean_linker_0, # of connection points: 2
#     Edge 38, Type (0, 0), BuildingBlock: AJUNOK_clean_linker_0, # of connection points: 2
#     Edge 39, Type (0, 0), BuildingBlock: AJUNOK_clean_linker_0, # of connection points: 2
#     Edge 40, Type (0, 0), BuildingBlock: AJUNOK_clean_linker_0, # of connection points: 2
#     Edge 41, Type (0, 0), BuildingBlock: AJUNOK_clean_linker_0, # of connection points: 2
#     Edge 42, Type (0, 0), BuildingBlock: AJUNOK_clean_linker_0, # of connection points: 2
#     Edge 43, Type (0, 0), BuildingBlock: AJUNOK_clean_linker_0, # of connection points: 2
#     Edge 44, Type (0, 0), BuildingBlock: AJUNOK_clean_linker_0, # of connection points: 2
#     Edge 45, Type (0, 0), BuildingBlock: AJUNOK_clean_linker_0, # of connection points: 2
#     Edge 46, Type (0, 0), BuildingBlock: AJUNOK_clean_linker_0, # of connection points: 2
#     Edge 47, Type (0, 0), BuildingBlock: AJUNOK_clean_linker_0, # of connection points: 2
#     Edge 48, Type (0, 0), BuildingBlock: AJUNOK_clean_linker_0, # of connection points: 2
#     Edge 49, Type (0, 0), BuildingBlock: AJUNOK_clean_linker_0, # of connection points: 2
#     Edge 50, Type (0, 0), BuildingBlock: AJUNOK_clean_linker_0, # of connection points: 2
#     Edge 51, Type (0, 0), BuildingBlock: AJUNOK_clean_linker_0, # of connection points: 2
#     Edge 52, Type (0, 0), BuildingBlock: AJUNOK_clean_linker_0, # of connection points: 2
#     Edge 53, Type (0, 0), BuildingBlock: AJUNOK_clean_linker_0, # of connection points: 2
#     Edge 54, Type (0, 0), BuildingBlock: AJUNOK_clean_linker_0, # of connection points: 2
#     Edge 55, Type (0, 0), BuildingBlock: AJUNOK_clean_linker_0, # of connection points: 2
#     Edge 56, Type (0, 0), BuildingBlock: AJUNOK_clean_linker_0, # of connection points: 2
#     Edge 57, Type (0, 0), BuildingBlock: AJUNOK_clean_linker_0, # of connection points: 2
#     Edge 58, Type (0, 0), BuildingBlock: AJUNOK_clean_linker_0, # of connection points: 2
#     Edge 59, Type (0, 0), BuildingBlock: AJUNOK_clean_linker_0, # of connection points: 2
#     Edge 60, Type (0, 0), BuildingBlock: AJUNOK_clean_linker_0, # of connection points: 2
#     Edge 61, Type (0, 0), BuildingBlock: AJUNOK_clean_linker_0, # of connection points: 2
#     Edge 62, Type (0, 0), BuildingBlock: AJUNOK_clean_linker_0, # of connection points: 2
#     Edge 63, Type (0, 0), BuildingBlock: AJUNOK_clean_linker_0, # of connection points: 2
# Relax obj value: 0.325
# Max RMSD: 0.142
# Mean RMSD: 0.126
data_MOF--net-wiv--node1-JUFBIX_clean_sbu_0--edge1-AJUNOK_clean_linker_0
_symmetry_space_group_name_H-M    P1
_symmetry_Int_Tables_number       1
_symmetry_cell_setting            triclinic
loop_
_symmetry_equiv_pos_as_xyz
'x, y, z'
_cell_length_a     52.590228
_cell_length_b     46.120281
_cell_length_c     11.370671
_cell_angle_alpha  83.322839
_cell_angle_beta   90.020245
_cell_angle_gamma 89.832224
loop_
_atom_site_label
_atom_site_type_symbol
_atom_site_fract_x
_atom_site_fract_y
_atom_site_fract_z
_atom_type_partial_charge
Co0 Co 0.38988 0.15002 0.20019 0.0
C1 C 0.4083 0.08886 0.23818 0.0
Co2 Co 0.43268 0.14706 0.20812 0.0
C3 C 0.33779 0.15733 0.10089 0.0
C4 C 0.33784 0.13966 0.28296 0.0
N5 N 0.35357 0.1506 0.19533 0.0
N6 N 0.31311 0.15037 0.12537 0.0
C7 C 0.3132 0.13967 0.24096 0.0
H8 H 0.34436 0.16609 1.01402 0.0
H9 H 0.34393 0.13101 0.37092 0.0
C10 C 0.41237 0.20814 0.17516 0.0
N11 N 0.47002 0.14827 0.20241 0.0
C12 C 0.4904 0.14168 0.27693 0.0
C13 C 0.481 0.16318 0.10618 0.0
N14 N 0.51306 0.15204 0.22916 0.0
C15 C 0.50676 0.16534 0.12179 0.0
C16 C 0.41099 0.14769 0.97022 0.0
O17 O 0.39113 0.19425 0.17977 0.0
O18 O 0.4326 0.19208 0.18342 0.0
O19 O 0.43159 0.14574 0.03106 0.0
O20 O 0.39035 0.1499 1.02744 0.0
O21 O 0.43038 0.10157 0.23628 0.0
H22 H 0.4708 0.17352 0.03005 0.0
H23 H 0.48851 0.13091 0.36626 0.0
O24 O 0.38893 0.10594 0.22147 0.0
O25 O 0.39069 0.15001 0.37626 0.0
O26 O 0.43245 0.14815 0.38147 0.0
C27 C 0.41133 0.14907 0.43764 0.0
H28 H 0.29669 0.13205 0.29208 0.0
H29 H 0.51993 0.17674 0.05951 0.0
Co30 Co 0.17257 0.62833 0.84146 0.0
C31 C 0.22288 0.65032 0.82211 0.0
Co32 Co 0.17303 0.67591 0.81802 0.0
C33 C 0.15545 0.5744 0.78051 0.0
C34 C 0.18647 0.56809 0.90337 0.0
N35 N 0.17114 0.58872 0.84714 0.0
N36 N 0.16055 0.54577 0.79147 0.0
C37 C 0.18013 0.54148 0.86786 0.0
H38 H 0.14171 0.585 0.71872 0.0
H39 H 0.20206 0.57238 0.96093 0.0
C40 C 0.1227 0.65303 0.82824 0.0
N41 N 0.17413 0.7164 0.82081 0.0
C42 C 0.18437 0.72827 0.91334 0.0
C43 C 0.1589 0.73747 0.7675 0.0
N44 N 0.17461 0.75474 0.92738 0.0
C45 C 0.15928 0.7611 0.83213 0.0
C46 C 0.17253 0.65466 0.59452 0.0
O47 O 0.13541 0.62939 0.84541 0.0
O48 O 0.13533 0.67686 0.8143 0.0
O49 O 0.17354 0.67881 0.64055 0.0
O50 O 0.17171 0.63124 0.66653 0.0
O51 O 0.21071 0.67448 0.8188 0.0
H52 H 0.14628 0.73471 0.69449 0.0
H53 H 0.19647 0.71609 0.97841 0.0
O54 O 0.20982 0.62691 0.83455 0.0
O55 O 0.17348 0.62513 1.01771 0.0
O56 O 0.17211 0.67231 0.99471 0.0
C57 C 0.17275 0.64885 0.06553 0.0
H58 H 0.18989 0.52092 0.89115 0.0
H59 H 0.14776 0.78053 0.81343 0.0
Co60 Co 0.64941 0.89519 0.07998 0.0
C61 C 0.62501 0.94909 0.07109 0.0
Co62 Co 0.60691 0.89377 0.0881 0.0
C63 C 0.70228 0.89029 0.99151 0.0
C64 C 0.69875 0.91757 0.13024 0.0
N65 N 0.6853 0.89933 0.07023 0.0
N66 N 0.7258 0.90226 1.0 0.0
C67 C 0.72322 0.91962 0.08727 0.0
H68 H 0.69717 0.87608 0.92604 0.0
H69 H 0.69081 0.9302 0.19588 0.0
C70 C 0.63154 0.83967 0.1056 0.0
N71 N 0.57103 0.8898 0.09591 0.0
C72 C 0.55363 0.89795 0.17484 0.0
C73 C 0.55732 0.87497 1.0226 0.0
N74 N 0.52973 0.88896 0.15209 0.0
C75 C 0.53219 0.87449 0.05635 0.0
C76 C 0.6272 0.89565 0.84948 0.0
O77 O 0.65203 0.85436 0.0981 0.0
O78 O 0.61023 0.85287 0.10011 0.0
O79 O 0.60661 0.89568 0.91048 0.0
O80 O 0.64816 0.89548 0.90648 0.0
O81 O 0.60435 0.93475 0.07991 0.0
H82 H 0.56518 0.86452 0.95035 0.0
H83 H 0.55833 0.91031 0.24707 0.0
O84 O 0.64605 0.9359 0.06335 0.0
O85 O 0.64971 0.8949 0.25837 0.0
O86 O 0.60819 0.89199 0.26093 0.0
C87 C 0.62892 0.89343 0.31868 0.0
H88 H 0.73729 0.9346 0.11376 0.0
H89 H 0.51688 0.86382 1.01461 0.0
Co90 Co 0.89223 0.40289 0.04162 0.0
C91 C 0.93168 0.39133 0.87988 0.0
Co92 Co 0.87823 0.39129 0.86877 0.0
C93 C 0.88648 0.43934 0.19281 0.0
C94 C 0.92936 0.40845 0.35814 0.0
N95 N 0.90384 0.41514 0.19927 0.0
N96 N 0.91128 0.44751 0.29817 0.0
C97 C 0.92483 0.42993 0.43746 0.0
H98 H 0.86609 0.43914 0.20764 0.0
H99 H 0.94439 0.39282 0.39016 0.0
C100 C 0.8368 0.40202 1.00945 0.0
N101 N 0.86671 0.3839 0.72439 0.0
C102 C 0.87844 0.39798 0.63118 0.0
C103 C 0.84292 0.37869 0.68573 0.0
N104 N 0.8629 0.40367 0.53929 0.0
C105 C 0.84046 0.39131 0.56979 0.0
C106 C 0.88286 0.33884 0.0421 0.0
O107 O 0.8541 0.40566 0.08615 0.0
O108 O 0.84409 0.3964 0.90959 0.0
O109 O 0.87625 0.34759 0.93432 0.0
O110 O 0.8902 0.3591 0.10311 0.0
O111 O 0.9125 0.38519 0.82066 0.0
H112 H 0.8275 0.36981 0.74159 0.0
H113 H 0.89702 0.40781 0.63502 0.0
O114 O 0.92763 0.40026 0.97985 0.0
O115 O 0.89454 0.44538 0.9742 0.0
O116 O 0.88096 0.43642 0.80404 0.0
C117 C 0.88942 0.45552 0.86859 0.0
H118 H 0.93868 0.43858 0.49469 0.0
H119 H 0.82341 0.3931 0.51607 0.0
Co120 Co 0.39001 0.40116 0.10119 0.0
C121 C 0.40757 0.46238 0.06525 0.0
Co122 Co 0.4328 0.40405 0.09392 0.0
C123 C 0.33746 0.40378 0.19343 0.0
C124 C 0.33905 0.38657 1.02719 0.0
N125 N 0.35384 0.39853 0.1055 0.0
N126 N 0.31333 0.39494 0.17439 0.0
C127 C 0.31436 0.38455 0.06839 0.0
H128 H 0.34325 0.41286 0.27258 0.0
H129 H 0.34587 0.37865 0.94713 0.0
C130 C 0.41316 0.34299 0.12505 0.0
N131 N 0.47021 0.40331 0.1004 0.0
C132 C 0.49081 0.41086 1.02854 0.0
C133 C 0.48102 0.38759 0.19534 0.0
N134 N 0.51346 0.40025 0.07669 0.0
C135 C 0.50686 0.38577 0.18146 0.0
C136 C 0.41099 0.40293 0.33175 0.0
O137 O 0.39202 0.35707 0.11971 0.0
O138 O 0.43339 0.3589 0.11791 0.0
O139 O 0.43157 0.4052 0.27093 0.0
O140 O 0.39037 0.40064 0.27442 0.0
O141 O 0.4297 0.44956 0.06665 0.0
H142 H 0.47066 0.37649 0.26923 0.0
H143 H 0.48912 0.42247 0.94053 0.0
O144 O 0.38818 0.44536 0.08171 0.0
O145 O 0.39096 0.40172 0.92509 0.0
O146 O 0.43272 0.40314 0.92034 0.0
C147 C 0.4116 0.40243 0.86394 0.0
H148 H 0.29849 0.37578 1.02356 0.0
H149 H 0.51989 0.37386 0.24328 0.0
Co150 Co 0.39021 0.64666 0.76655 0.0
C151 C 0.43252 0.65839 0.90747 0.0
Co152 Co 0.37945 0.65954 0.93652 0.0
C153 C 0.42078 0.65229 0.57158 0.0
C154 C 0.40458 0.60978 0.58748 0.0
N155 N 0.40185 0.63629 0.62498 0.0
N156 N 0.43583 0.63725 0.50411 0.0
C157 C 0.42529 0.61037 0.51251 0.0
H158 H 0.42451 0.67441 0.58858 0.0
H159 H 0.39358 0.59067 0.6192 0.0
C160 C 0.33616 0.6485 0.80737 0.0
N161 N 0.37151 0.6716 0.08059 0.0
C162 C 0.38669 0.69161 0.12159 0.0
C163 C 0.36257 0.65541 0.17724 0.0
N164 N 0.39237 0.68461 0.23605 0.0
C165 C 0.37496 0.66402 0.27391 0.0
C166 C 0.38295 0.71075 0.75543 0.0
O167 O 0.35257 0.64195 0.72984 0.0
O168 O 0.3445 0.6564 0.90321 0.0
O169 O 0.37848 0.70279 0.86538 0.0
O170 O 0.38801 0.68972 0.69457 0.0
O171 O 0.41451 0.66319 0.97504 0.0
H172 H 0.35224 0.63521 0.17597 0.0
H173 H 0.39905 0.70549 0.06356 0.0
O174 O 0.42671 0.65091 0.80743 0.0
O175 O 0.39295 0.60485 0.8325 0.0
O176 O 0.38133 0.61472 1.00623 0.0
C177 C 0.38877 0.59517 0.94015 0.0
H178 H 0.43186 0.59249 0.46652 0.0
H179 H 0.37586 0.6508 0.35909 0.0
Co180 Co 0.65031 0.65795 0.22159 0.0
C181 C 0.6285 0.60368 0.23118 0.0
Co182 Co 0.60761 0.65884 0.21423 0.0
C183 C 0.70152 0.65085 0.32813 0.0
C184 C 0.70297 0.668 0.14551 0.0
N185 N 0.68652 0.65758 0.23105 0.0
N186 N 0.72647 0.65709 0.30708 0.0
C187 C 0.72732 0.66757 0.19139 0.0
H188 H 0.69423 0.64185 0.41345 0.0
H189 H 0.69755 0.67662 0.05649 0.0
C190 C 0.63026 0.71331 0.19561 0.0
N191 N 0.57123 0.66054 0.20735 0.0
C192 C 0.55446 0.65549 0.1203 0.0
C193 C 0.55648 0.67105 0.28987 0.0
N194 N 0.53016 0.66305 0.14487 0.0
C195 C 0.53156 0.67236 0.25271 0.0
C196 C 0.62791 0.65732 0.45243 0.0
O197 O 0.65071 0.69858 0.20254 0.0
O198 O 0.60896 0.70015 0.20224 0.0
O199 O 0.60734 0.65681 0.39176 0.0
O200 O 0.6488 0.65799 0.39507 0.0
O201 O 0.60745 0.61756 0.22238 0.0
H202 H 0.56342 0.67845 0.37065 0.0
H203 H 0.56001 0.64745 0.03858 0.0
O204 O 0.64932 0.61729 0.23902 0.0
O205 O 0.65059 0.65795 0.04345 0.0
O206 O 0.60901 0.66077 0.04113 0.0
C207 C 0.62976 0.65943 0.98326 0.0
H208 H 0.74422 0.67562 0.14419 0.0
H209 H 0.51568 0.68009 0.30115 0.0
Co210 Co 0.67401 0.42396 0.96618 0.0
C211 C 0.72382 0.40109 0.98563 0.0
Co212 Co 0.67334 0.37625 0.98878 0.0
C213 C 0.65898 0.47785 0.03741 0.0
C214 C 0.68128 0.4849 0.87907 0.0
N215 N 0.67225 0.46375 0.96014 0.0
N216 N 0.65935 0.50681 1.00823 0.0
C217 C 0.67323 0.51163 0.90854 0.0
H218 H 0.64868 0.46715 0.11258 0.0
H219 H 0.69267 0.48113 0.80309 0.0
C220 C 0.62356 0.39969 0.97931 0.0
N221 N 0.67441 0.33568 0.98543 0.0
C222 C 0.68453 0.32353 0.89308 0.0
C223 C 0.65938 0.3147 0.04018 0.0
N224 N 0.675 0.29689 0.88122 0.0
C225 C 0.65981 0.29082 0.97689 0.0
C226 C 0.67356 0.39723 0.21282 0.0
O227 O 0.63654 0.42314 0.96461 0.0
O228 O 0.63591 0.37561 0.99095 0.0
O229 O 0.67347 0.37324 0.16548 0.0
O230 O 0.67383 0.42091 0.14223 0.0
O231 O 0.71104 0.37737 0.99004 0.0
H232 H 0.64692 0.31763 0.11357 0.0
H233 H 0.69643 0.3355 0.8268 0.0
O234 O 0.71132 0.42504 0.97103 0.0
O235 O 0.67449 0.427 0.78835 0.0
O236 O 0.67249 0.37989 0.81294 0.0
C237 C 0.67324 0.4032 0.74135 0.0
H238 H 0.67742 0.53288 0.86172 0.0
H239 H 0.64844 0.27137 0.99661 0.0
Co240 Co 0.88941 0.64849 0.70352 0.0
C241 C 0.90835 0.58777 0.74109 0.0
Co242 Co 0.93221 0.6464 0.71097 0.0
C243 C 0.83745 0.65612 0.60456 0.0
C244 C 0.83741 0.63804 0.78628 0.0
N245 N 0.8532 0.64886 0.69866 0.0
N246 N 0.81262 0.65028 0.6301 0.0
C247 C 0.81271 0.63887 0.74485 0.0
H248 H 0.84408 0.66497 0.51772 0.0
H249 H 0.84354 0.62881 0.87351 0.0
C250 C 0.91108 0.707 0.67866 0.0
N251 N 0.96956 0.64817 0.7048 0.0
C252 C 0.99029 0.64096 0.77644 0.0
C253 C 0.98001 0.66443 0.61054 0.0
N254 N 1.01269 0.65231 0.72888 0.0
C255 C 1.00578 0.66688 0.62458 0.0
C256 C 0.91082 0.6467 0.47332 0.0
O257 O 0.89019 0.69249 0.68327 0.0
O258 O 0.93164 0.69154 0.68669 0.0
O259 O 0.93123 0.64514 0.53531 0.0
O260 O 0.88993 0.6484 0.52936 0.0
O261 O 0.9303 0.60083 0.73884 0.0
H262 H 0.96939 0.67543 0.53701 0.0
H263 H 0.98886 0.629 0.86389 0.0
O264 O 0.88879 0.60454 0.72477 0.0
O265 O 0.89024 0.64851 0.881 0.0
O266 O 0.93203 0.64739 0.88294 0.0
C267 C 0.91112 0.64795 0.94079 0.0
H268 H 0.79628 0.63022 0.79423 0.0
H269 H 0.01853 0.6792 0.56305 0.0
Co270 Co 0.67218 0.12707 0.33854 0.0
C271 C 0.72281 0.1485 0.31862 0.0
Co272 Co 0.67368 0.17478 0.31729 0.0
C273 C 0.65613 0.07349 0.27019 0.0
C274 C 0.67922 0.06598 0.42607 0.0
N275 N 0.66994 0.08732 0.34619 0.0
N276 N 0.65644 0.04452 0.29875 0.0
C277 C 0.67081 0.0394 0.39695 0.0
H278 H 0.64558 0.0844 0.19605 0.0
H279 H 0.69111 0.06954 0.50068 0.0
C280 C 0.62286 0.15267 0.32763 0.0
N281 N 0.67496 0.21541 0.31693 0.0
C282 C 0.68682 0.22789 0.404 0.0
C283 C 0.65708 0.23501 0.27564 0.0
N284 N 0.6758 0.25313 0.42587 0.0
C285 C 0.65738 0.25801 0.34332 0.0
C286 C 0.6726 0.15338 0.09286 0.0
O287 O 0.63504 0.12864 0.34183 0.0
O288 O 0.636 0.1761 0.31617 0.0
O289 O 0.67384 0.17727 0.14055 0.0
O290 O 0.67138 0.12971 0.16303 0.0
O291 O 0.71096 0.17283 0.31603 0.0
H292 H 0.64235 0.23088 0.21335 0.0
H293 H 0.70061 0.21644 0.46282 0.0
O294 O 0.7096 0.12511 0.33157 0.0
O295 O 0.67294 0.12453 0.51638 0.0
O296 O 0.67361 0.17182 0.49335 0.0
C297 C 0.67352 0.1483 0.56412 0.0
H298 H 0.67517 1.01805 0.44271 0.0
H299 H 0.64303 0.27493 0.34206 0.0
Co300 Co 0.15023 0.39495 0.57037 0.0
C301 C 0.13077 0.45112 0.55571 0.0
Co302 Co 0.10758 0.3978 0.57566 0.0
C303 C 0.20223 0.3883 0.47661 0.0
C304 C 0.20184 0.40827 0.63686 0.0
N305 N 0.18643 0.39531 0.56392 0.0
N306 N 0.22667 0.39673 0.49138 0.0
C307 C 0.22632 0.40916 0.593 0.0
H308 H 0.19562 0.37869 0.40009 0.0
H309 H 0.19549 0.41803 0.71375 0.0
C310 C 0.12799 0.34145 0.59762 0.0
N311 N 0.07112 0.39862 0.58062 0.0
C312 C 0.05462 0.39315 0.67333 0.0
C313 C 0.05573 0.40508 0.48601 0.0
N314 N 0.02985 0.39558 0.63915 0.0
C315 C 0.03069 0.40313 0.52127 0.0
C316 C 0.12849 0.3971 0.33836 0.0
O317 O 0.14939 0.35433 0.58833 0.0
O318 O 0.10749 0.35641 0.59212 0.0
O319 O 0.10773 0.39855 0.3972 0.0
O320 O 0.14915 0.39547 0.39773 0.0
O321 O 0.10885 0.43934 0.56229 0.0
H322 H 0.06211 0.41103 0.39619 0.0
H323 H 0.06054 0.38701 0.76395 0.0
O324 O 0.15044 0.43524 0.55376 0.0
O325 O 0.15032 0.39454 0.747 0.0
O326 O 0.10876 0.39695 0.74975 0.0
C327 C 0.12973 0.39573 0.80727 0.0
H328 H 0.24249 0.41902 0.63162 0.0
H329 H 1.01425 0.40729 0.46434 0.0
Co330 Co 0.39043 0.90386 0.53082 0.0
C331 C 0.43063 0.89398 0.37957 0.0
Co332 Co 0.37748 0.89301 0.36113 0.0
C333 C 0.38306 0.93466 0.71695 0.0
C334 C 0.40877 0.89956 0.76895 0.0
N335 N 0.39929 0.91594 0.67374 0.0
N336 N 0.37731 0.92631 0.83034 0.0
C337 C 0.39557 0.90647 0.86638 0.0
H338 H 0.37025 0.94835 0.66003 0.0
H339 H 0.41996 0.87997 0.76547 0.0
C340 C 0.33548 0.90314 0.4982 0.0
N341 N 0.3654 0.88199 0.22187 0.0
C342 C 0.34587 0.89626 0.16496 0.0
C343 C 0.36481 0.85508 0.18687 0.0
N344 N 0.33249 0.87957 0.09689 0.0
C345 C 0.34468 0.85351 0.11033 0.0
C346 C 0.38289 0.84073 0.54113 0.0
O347 O 0.35277 0.90791 0.57208 0.0
O348 O 0.34276 0.89644 0.40042 0.0
O349 O 0.37697 0.84959 0.43301 0.0
O350 O 0.38933 0.86108 0.60303 0.0
O351 O 0.41176 0.88926 0.3144 0.0
H352 H 0.3772 0.83721 0.21979 0.0
H353 H 0.3409 0.91844 0.17791 0.0
O354 O 0.4263 0.89962 0.48551 0.0
O355 O 0.39283 0.94589 0.46455 0.0
O356 O 0.37908 0.93771 0.2923 0.0
C357 C 0.38771 0.95648 0.3588 0.0
H358 H 0.395 0.89247 0.94979 0.0
H359 H 0.33991 0.83488 0.06501 0.0
Co360 Co 0.88942 0.90013 0.60553 0.0
C361 C 0.90824 0.96101 0.56813 0.0
Co362 Co 0.93229 0.90249 0.59856 0.0
C363 C 0.83777 0.89352 0.70717 0.0
C364 C 0.83683 0.90997 0.52387 0.0
N365 N 0.85308 0.89988 0.61109 0.0
N366 N 0.81287 0.89977 0.68424 0.0
C367 C 0.81231 0.90978 0.56803 0.0
H368 H 0.8448 0.88479 0.79325 0.0
H369 H 0.84248 0.91823 0.43484 0.0
C370 C 0.91122 0.84178 0.63014 0.0
N371 N 0.96965 0.90073 0.60403 0.0
C372 C 0.99033 0.9086 0.5332 0.0
C373 C 0.98026 0.88405 0.69697 0.0
N374 N 1.01285 0.89718 0.57982 0.0
C375 C 1.00606 0.88192 0.6828 0.0
C376 C 0.91091 0.90158 0.8366 0.0
O377 O 0.89029 0.85631 0.62557 0.0
O378 O 0.93176 0.85719 0.62226 0.0
O379 O 0.93146 0.90364 0.7756 0.0
O380 O 0.89018 0.89995 0.77935 0.0
O381 O 0.93023 0.9479 0.5714 0.0
H382 H 0.96972 0.8727 0.76981 0.0
H383 H 0.98879 0.92117 0.44698 0.0
O384 O 0.88871 0.94429 0.58412 0.0
O385 O 0.89014 0.89995 0.42902 0.0
O386 O 0.93196 0.90176 0.42514 0.0
C387 C 0.91092 0.90072 0.3685 0.0
H388 H 0.79552 0.91778 0.5194 0.0
H389 H 0.01895 0.86942 0.74351 0.0
Co390 Co 0.89028 0.14531 0.26842 0.0
C391 C 0.93151 0.15583 0.41687 0.0
Co392 Co 0.87897 0.15731 0.43814 0.0
C393 C 0.8834 0.11348 0.08507 0.0
C394 C 0.90785 0.14933 1.02856 0.0
N395 N 0.89884 0.13329 0.12547 0.0
N396 N 0.87789 0.12025 0.97043 0.0
C397 C 0.89528 0.14082 0.93218 0.0
H398 H 0.87088 0.09983 0.14329 0.0
H399 H 0.91831 0.16946 0.02946 0.0
C400 C 0.83586 0.14731 0.30476 0.0
N401 N 0.86651 0.16756 0.57838 0.0
C402 C 0.84829 0.15087 0.63419 0.0
C403 C 0.86261 0.19428 0.61228 0.0
N404 N 0.83259 0.16566 0.69982 0.0
C405 C 0.84195 0.19313 0.68753 0.0
C406 C 0.88326 0.20893 0.25794 0.0
O407 O 0.85232 0.14034 0.23052 0.0
O408 O 0.84444 0.15528 0.3981 0.0
O409 O 0.87897 0.20063 0.36816 0.0
O410 O 0.88817 0.18814 0.19535 0.0
O411 O 0.91306 0.16023 0.48502 0.0
H412 H 0.87287 0.21376 0.57861 0.0
H413 H 0.84544 0.1284 0.61982 0.0
O414 O 0.92647 0.15025 0.3113 0.0
O415 O 0.89363 0.10352 0.33429 0.0
O416 O 0.88026 0.11239 0.50567 0.0
C417 C 0.8887 0.09332 0.44032 0.0
H418 H 0.89438 0.15397 0.84683 0.0
H419 H 0.83465 0.21103 0.73139 0.0
Co420 Co 0.15092 0.16086 0.71586 0.0
C421 C 0.1306 0.10551 0.72399 0.0
Co422 Co 0.10833 0.15949 0.71024 0.0
C423 C 0.2025 0.15288 0.81835 0.0
C424 C 0.20311 0.17473 0.64222 0.0
N425 N 0.18713 0.16162 0.72439 0.0
N426 N 0.22729 0.16035 0.79887 0.0
C427 C 0.22754 0.174 0.68724 0.0
H428 H 0.19539 0.14235 0.90149 0.0
H429 H 0.19727 0.18524 0.55644 0.0
C430 C 0.12874 0.21514 0.69135 0.0
N431 N 0.07221 0.16028 0.7036 0.0
C432 C 0.05524 0.15268 0.62169 0.0
C433 C 0.05783 0.17328 0.78046 0.0
N434 N 0.03092 0.16041 0.64565 0.0
C435 C 0.03282 0.1733 0.74586 0.0
C436 C 0.12888 0.15897 0.94797 0.0
O437 O 0.15003 0.20191 0.69802 0.0
O438 O 0.10833 0.20045 0.69761 0.0
O439 O 0.10811 0.15763 0.88911 0.0
O440 O 0.14951 0.1605 0.88854 0.0
O441 O 0.10914 0.11849 0.71926 0.0
H442 H 0.06515 0.18324 0.85499 0.0
H443 H 0.06066 0.14194 0.54579 0.0
O444 O 0.15105 0.1199 0.73127 0.0
O445 O 0.15127 0.16116 0.53936 0.0
O446 O 0.10962 0.16122 0.53586 0.0
C447 C 0.13059 0.16116 0.47874 0.0
H448 H 0.24416 0.18335 0.64149 0.0
H449 H 1.01723 0.183 0.78977 0.0
Co450 Co 0.1722 0.92348 0.46576 0.0
C451 C 0.22297 0.90152 0.48423 0.0
Co452 Co 0.17387 0.87577 0.49014 0.0
C453 C 0.15814 0.9784 0.53241 0.0
C454 C 0.18089 0.98367 0.37505 0.0
N455 N 0.17086 0.9633 0.45664 0.0
N456 N 0.15972 1.00723 0.50127 0.0
C457 C 0.17394 1.01094 0.40241 0.0
H458 H 0.14755 0.96852 0.60825 0.0
H459 H 0.19242 0.97899 0.30075 0.0
C460 C 0.12292 0.89889 0.47963 0.0
N461 N 0.17473 0.83513 0.49187 0.0
C462 C 0.18644 0.82212 0.40578 0.0
C463 C 0.15671 0.81597 0.53431 0.0
N464 N 0.17527 0.79689 0.3858 0.0
C465 C 0.15683 0.79264 0.46834 0.0
C466 C 0.17295 0.89743 0.71291 0.0
O467 O 0.13519 0.92277 0.46605 0.0
O468 O 0.13598 0.87526 0.48976 0.0
O469 O 0.17371 0.87345 0.66589 0.0
O470 O 0.17216 0.9211 0.64215 0.0
O471 O 0.21135 0.87702 0.49404 0.0
H472 H 0.14202 0.82061 0.59607 0.0
H473 H 0.20023 0.83317 0.34606 0.0
O474 O 0.20944 0.92467 0.46736 0.0
O475 O 0.17212 0.92573 0.28877 0.0
O476 O 0.17415 0.8785 0.31349 0.0
C477 C 0.17335 0.9019 0.24193 0.0
H478 H 0.17913 0.03179 0.35488 0.0
H479 H 0.14233 0.77597 0.47046 0.0
C480 C 0.41285 1.00516 0.37455 0.0
C481 C 0.39333 0.98998 0.31887 0.0
C482 C 0.41831 0.03591 0.34588 0.0
C483 C 0.40418 0.05465 0.26134 0.0
H484 H 0.42434 0.993 0.44241 0.0
H485 H 0.43341 0.04526 0.39396 0.0
S486 S 0.35077 0.02783 0.08766 0.0
N487 N 0.36016 0.99787 0.17053 0.0
N488 N 0.36929 0.05443 0.12204 0.0
C489 C 0.38456 0.03987 0.2053 0.0
C490 C 0.3795 1.00834 0.23198 0.0
C491 C 0.05331 0.67817 0.76222 0.0
C492 C 0.03882 0.65215 0.77466 0.0
C493 C 0.07987 0.67838 0.78376 0.0
C494 C 0.09374 0.65249 0.81765 0.0
H495 H 0.04405 0.69868 0.73197 0.0
H496 H 0.08973 0.69908 0.76979 0.0
S497 S 0.06505 0.57823 0.86567 0.0
N498 N 0.04057 0.59976 0.82641 0.0
N499 N 0.09008 0.59978 0.86625 0.0
C500 C 0.07931 0.62631 0.83378 0.0
C501 C 0.05212 0.62622 0.8127 0.0
C502 C 0.61778 0.98138 0.22442 0.0
C503 C 0.62627 0.9782 0.10923 0.0
C504 C 0.62734 1.0036 0.28576 0.0
C505 C 0.64502 1.02361 0.2322 0.0
H506 H 0.60561 0.965 0.27151 0.0
H507 H 0.62163 1.0046 0.37671 0.0
S508 S 0.67088 0.02671 0.92841 0.0
N509 N 0.65196 0.99796 0.94162 0.0
N510 N 0.66888 0.04079 0.05526 0.0
C511 C 0.65202 1.02214 0.11411 0.0
C512 C 0.64283 0.99914 0.05277 0.0
C513 C 0.97882 0.40468 0.86906 0.0
C514 C 0.95794 0.38943 0.82785 0.0
C515 C 1.00275 0.40552 0.81108 0.0
C516 C 1.00675 0.39122 0.70947 0.0
H517 H 0.97642 0.41694 0.94395 0.0
H518 H 1.01788 0.41848 0.84277 0.0
S519 S 0.95994 0.34461 0.57621 0.0
N520 N 0.94423 0.35707 0.68562 0.0
N521 N 0.98866 0.35888 0.57845 0.0
C522 C 0.9865 0.37474 0.67148 0.0
C523 C 0.96232 0.37378 0.73006 0.0
C524 C 0.41873 0.51518 0.96056 0.0
C525 C 0.40361 0.4967 0.04151 0.0
C526 C 0.41384 0.54605 0.93092 0.0
C527 C 0.39398 0.56169 0.98243 0.0
H528 H 0.43423 0.50551 0.91592 0.0
H529 H 0.42604 0.55795 0.8656 0.0
S530 S 0.34869 0.525 0.20318 0.0
N531 N 0.36727 0.49787 0.17284 0.0
N532 N 0.35927 0.55469 0.12284 0.0
C533 C 0.37912 0.54368 0.06591 0.0
C534 C 0.38356 0.51198 0.09335 0.0
C535 C 0.50126 0.64021 1.00626 0.0
C536 C 0.50745 0.6636 0.07089 0.0
C537 C 0.4776 0.63921 0.94655 0.0
C538 C 0.45932 0.66162 0.94901 0.0
H539 H 0.51427 0.62197 1.00639 0.0
H540 H 0.47309 0.62013 0.90341 0.0
S541 S 0.46796 0.72996 0.08703 0.0
N542 N 0.49441 0.71138 0.11947 0.0
N543 N 0.45047 0.70929 1.00982 0.0
C544 C 0.46602 0.6858 1.00713 0.0
C545 C 0.48989 0.68685 0.06722 0.0
C546 C 0.62078 0.57028 0.08204 0.0
C547 C 0.63022 0.57438 0.19474 0.0
C548 C 0.62995 0.54759 1.02196 0.0
C549 C 0.64821 0.52803 0.07444 0.0
H550 H 0.60804 0.58622 0.03555 0.0
H551 H 0.62348 0.54586 0.93261 0.0
S552 S 0.67655 0.52721 0.37265 0.0
N553 N 0.65738 0.55587 0.35944 0.0
N554 N 0.67362 0.51218 0.24832 0.0
C555 C 0.6562 0.53041 0.19049 0.0
C556 C 0.6474 0.55389 0.25044 0.0
C557 C 0.55412 0.37461 0.04037 0.0
C558 C 0.53958 0.40067 0.03064 0.0
C559 C 0.5807 0.37446 1.01961 0.0
C560 C 0.59457 0.40045 0.98939 0.0
H561 H 0.54487 0.354 0.0681 0.0
H562 H 0.59058 0.35369 0.03132 0.0
S563 S 0.56577 0.47488 0.94978 0.0
N564 N 0.54129 0.45324 0.98558 0.0
N565 N 0.59087 0.45332 0.94731 0.0
C566 C 0.58012 0.42671 0.9761 0.0
C567 C 0.55288 0.42674 0.99633 0.0
C568 C 0.91491 0.50422 0.87585 0.0
C569 C 0.89467 0.48888 0.82636 0.0
C570 C 0.91992 0.53499 0.84528 0.0
C571 C 0.90457 0.55354 0.76522 0.0
H572 H 0.92731 0.49218 0.94025 0.0
H573 H 0.93566 0.54452 0.88849 0.0
S574 S 0.84856 0.52595 0.60973 0.0
N575 N 0.85926 0.49622 0.68982 0.0
N576 N 0.8676 0.5528 0.6373 0.0
C577 C 0.88416 0.53852 0.71545 0.0
C578 C 0.87955 0.50698 0.7441 0.0
C579 C 0.57987 0.12652 0.32186 0.0
C580 C 0.59388 0.15292 0.31786 0.0
C581 C 0.55313 0.12614 0.30206 0.0
C582 C 0.53893 0.15212 0.27743 0.0
H583 H 0.58977 0.1058 0.33656 0.0
H584 H 0.54374 0.10535 0.29999 0.0
S585 S 0.56524 0.22711 0.26497 0.0
N586 N 0.59032 0.20583 0.29378 0.0
N587 N 0.54084 0.20498 0.25626 0.0
C588 C 0.55245 0.17855 0.27763 0.0
C589 C 0.57956 0.17899 0.298 0.0
C590 C 0.12629 0.51529 0.72677 0.0
C591 C 0.15125 0.52583 0.71504 0.0
C592 C 0.1181 0.49306 0.66149 0.0
C593 C 0.13472 0.48122 0.58239 0.0
H594 H 0.11371 0.523 0.7919 0.0
H595 H 0.09961 0.4834 0.6812 0.0
S596 S 0.20004 0.50674 0.50314 0.0
N597 N 0.19104 0.52655 0.6079 0.0
N598 N 0.17562 0.48557 0.48131 0.0
C599 C 0.15868 0.4943 0.5605 0.0
C600 C 0.16706 0.51632 0.62862 0.0
C601 C 0.50324 0.88709 0.33622 0.0
C602 C 0.50594 0.89363 0.21238 0.0
C603 C 0.47908 0.88792 0.3918 0.0
C604 C 0.45677 0.89513 0.32528 0.0
H605 H 0.51969 0.88022 0.38959 0.0
H606 H 0.47777 0.88193 0.48655 0.0
S607 S 0.45458 0.9186 1.00103 0.0
N608 N 0.48478 0.91073 1.02813 0.0
N609 N 0.43996 0.91223 0.12978 0.0
C610 C 0.45971 0.90314 0.20228 0.0
C611 C 0.48407 0.90239 0.14671 0.0
C612 C 0.88273 1.01005 0.58273 0.0
C613 C 0.9045 0.99527 0.54255 0.0
C614 C 0.87812 0.04111 0.55556 0.0
C615 C 0.89448 0.06002 0.48238 0.0
H616 H 0.86881 0.99736 0.63648 0.0
H617 H 0.86098 0.05017 0.58939 0.0
S618 S 0.9542 0.03386 0.35093 0.0
N619 N 0.94278 1.00381 0.42534 0.0
N620 N 0.93388 0.06022 0.37103 0.0
C621 C 0.91623 0.04548 0.4415 0.0
C622 C 0.92127 1.0141 0.47199 0.0
C623 C 0.98437 0.15282 0.64793 0.0
C624 C 1.00715 0.15654 0.58297 0.0
C625 C 0.9606 0.15236 0.59244 0.0
C626 C 0.95799 0.15534 0.46806 0.0
H627 H 0.98483 0.15051 0.74373 0.0
H628 H 0.94398 0.14969 0.64891 0.0
S629 S 1.01162 0.16413 0.25461 0.0
N630 N 0.02562 0.16237 0.38549 0.0
N631 N 0.98078 0.16083 0.28083 0.0
C632 C 0.98063 0.15795 0.40099 0.0
C633 C 1.00515 0.15867 0.45825 0.0
C634 C 0.15918 0.03323 0.67708 0.0
C635 C 0.14942 0.02934 0.56517 0.0
C636 C 0.15129 0.05687 0.7351 0.0
C637 C 0.1328 0.07653 0.68422 0.0
H638 H 0.17398 1.01885 0.71635 0.0
H639 H 0.16059 0.06068 0.81694 0.0
S640 S 0.10008 0.07369 0.39654 0.0
N641 N 0.1197 0.04545 0.40838 0.0
N642 N 0.10393 0.08942 0.51863 0.0
C643 C 0.12168 0.07148 0.57587 0.0
C644 C 0.13028 0.04796 0.51569 0.0
C645 C 0.08062 0.87263 0.52386 0.0
C646 C 0.09395 0.89883 0.49061 0.0
C647 C 0.05407 0.87227 0.54579 0.0
C648 C 0.03904 0.89799 0.53436 0.0
H649 H 0.09091 0.85213 0.53704 0.0
H650 H 0.04524 0.85152 0.5754 0.0
S651 S 0.06373 0.97252 0.44452 0.0
N652 N 0.08921 0.95149 0.44328 0.0
N653 N 0.03972 0.95045 0.48369 0.0
C654 C 0.0518 0.92423 0.4968 0.0
C655 C 0.07899 0.92472 0.47541 0.0
C656 C 0.39086 0.26009 0.15432 0.0
C657 C 0.41332 0.2426 0.16178 0.0
C658 C 0.39107 0.29157 0.14307 0.0
C659 C 0.41377 0.30852 0.13821 0.0
H660 H 0.37257 0.24933 0.15732 0.0
H661 H 0.37292 0.30278 0.13798 0.0
S662 S 0.47843 0.27477 0.15402 0.0
N663 N 0.45939 0.24615 0.16318 0.0
N664 N 0.45977 0.30385 0.14245 0.0
C665 C 0.43641 0.29135 0.14557 0.0
C666 C 0.43619 0.25923 0.1571 0.0
C667 C 0.29362 0.6736 0.82181 0.0
C668 C 0.30744 0.64919 0.79095 0.0
C669 C 0.26669 0.67396 0.82906 0.0
C670 C 0.25182 0.64955 0.80936 0.0
H671 H 0.30385 0.69267 0.84311 0.0
H672 H 0.25751 0.6934 0.85386 0.0
S673 S 0.27815 0.57981 0.72481 0.0
N674 N 0.30371 0.59996 0.73828 0.0
N675 N 0.25353 0.60013 0.75411 0.0
C676 C 0.26536 0.625 0.77692 0.0
C677 C 0.29289 0.62493 0.76719 0.0
C678 C 0.60899 0.79206 0.13939 0.0
C679 C 0.63207 0.80748 0.12609 0.0
C680 C 0.60863 0.76168 0.16319 0.0
C681 C 0.63133 0.74548 0.17458 0.0
H682 H 0.59092 0.80347 0.13195 0.0
H683 H 0.59035 0.75089 0.17229 0.0
S684 S 0.69695 0.77533 0.14686 0.0
N685 N 0.67828 0.80427 0.12547 0.0
N686 N 0.67768 0.74709 0.1703 0.0
C687 C 0.65462 0.76058 0.16135 0.0
C688 C 0.65497 0.79159 0.13696 0.0
C689 C 0.79355 0.42692 1.0282 0.0
C690 C 0.80829 0.40117 0.03096 0.0
C691 C 0.76656 0.42672 1.01478 0.0
C692 C 0.75277 0.40082 1.00208 0.0
H693 H 0.80304 0.44764 0.03089 0.0
H694 H 0.75647 0.44728 1.01198 0.0
S695 S 0.7824 0.32745 1.00208 0.0
N696 N 0.80675 0.3491 1.01885 0.0
N697 N 0.75688 0.34853 0.99522 0.0
C698 C 0.7674 0.37492 1.00689 0.0
C699 C 0.79474 0.37519 1.02037 0.0
C700 C 0.93382 0.75849 0.66001 0.0
C701 C 0.91114 0.74145 0.66567 0.0
C702 C 0.93387 0.79005 0.64901 0.0
C703 C 0.91125 0.80732 0.643 0.0
H704 H 0.95198 0.7473 0.66412 0.0
H705 H 0.95206 0.80104 0.64522 0.0
S706 S 0.84629 0.77472 0.65375 0.0
N707 N 0.86513 0.74585 0.66381 0.0
N708 N 0.86521 0.8034 0.64403 0.0
C709 C 0.8885 0.79051 0.64865 0.0
C710 C 0.88845 0.75849 0.65961 0.0
C711 C 0.79329 0.16986 0.34111 0.0
C712 C 0.80715 0.14818 0.28947 0.0
C713 C 0.76645 0.16993 0.34787 0.0
C714 C 0.75163 0.14782 0.30644 0.0
H715 H 0.80341 0.18698 0.37909 0.0
H716 H 0.75725 0.18716 0.38936 0.0
S717 S 0.77778 0.08661 0.15643 0.0
N718 N 0.80341 0.10468 0.18976 0.0
N719 N 0.75316 0.10416 0.20514 0.0
C720 C 0.76509 0.12621 0.25209 0.0
C721 C 0.79263 0.12657 0.24271 0.0
C722 C 0.15022 0.29342 0.62466 0.0
C723 C 0.12727 0.30928 0.61985 0.0
C724 C 0.15047 0.26307 0.6495 0.0
C725 C 0.12778 0.2473 0.67037 0.0
H726 H 0.16828 0.30446 0.60934 0.0
H727 H 0.16867 0.25194 0.65138 0.0
S728 S 0.06249 0.27839 0.66956 0.0
N729 N 0.08117 0.30696 0.63903 0.0
N730 N 0.08162 0.24978 0.68571 0.0
C731 C 0.10463 0.26283 0.66619 0.0
C732 C 0.10438 0.29383 0.64082 0.0
C733 C 0.29303 0.88078 0.56482 0.0
C734 C 0.30718 0.90543 0.51785 0.0
C735 C 0.26609 0.8797 0.5544 0.0
C736 C 0.25181 0.90322 0.49609 0.0
H737 H 0.30297 0.86158 0.60554 0.0
H738 H 0.25641 0.86002 0.59117 0.0
S739 S 0.2798 0.97249 0.35296 0.0
N740 N 0.3047 0.95351 0.40722 0.0
N741 N 0.25468 0.95202 0.3901 0.0
C742 C 0.26582 0.92816 0.4504 0.0
C743 C 0.2932 0.92906 0.46015 0.0
C744 C 0.26882 0.17762 0.87191 0.0
C745 C 0.24869 0.1572 0.88162 0.0
C746 C 0.28972 0.17517 0.95063 0.0
C747 C 0.29154 0.15228 0.0438 0.0
H748 H 0.26832 0.19605 0.80377 0.0
H749 H 0.30439 0.19167 0.93957 0.0
S750 S 0.24552 0.09119 0.10199 0.0
N751 N 0.23316 0.11201 0.98825 0.0
N752 N 0.27204 0.10748 0.13537 0.0
C753 C 0.27182 0.13137 0.05339 0.0
C754 C 0.25056 0.13382 0.97293 0.0
C755 C 0.19587 0.76198 0.11754 0.0
C756 C 0.17517 0.76768 0.03836 0.0
C757 C 0.19576 0.7712 0.23138 0.0
C758 C 0.17488 0.78626 0.27138 0.0
H759 H 0.2124 0.75027 0.09142 0.0
H760 H 0.21205 0.76648 0.28874 0.0
S761 S 0.11679 0.80912 0.10064 0.0
N762 N 0.1335 0.7909 1.01057 0.0
N763 N 0.1339 0.80851 0.22253 0.0
C764 C 0.15445 0.79291 0.19333 0.0
C765 C 0.15444 0.78361 0.07748 0.0
C766 C 0.74556 0.89285 0.80727 0.0
C767 C 0.74811 0.89986 0.92441 0.0
C768 C 0.7667 0.89244 0.73053 0.0
C769 C 0.79154 0.89886 0.76688 0.0
H770 H 0.72697 0.88835 0.77301 0.0
H771 H 0.76353 0.88716 0.64139 0.0
S772 S 0.80906 0.9189 0.06337 0.0
N773 N 0.77825 0.91253 0.07294 0.0
N774 N 0.81717 0.91333 0.92765 0.0
C775 C 0.79445 0.9057 0.88369 0.0
C776 C 0.77302 0.90584 0.9623 0.0
C777 C 0.88176 0.28169 1.02836 0.0
C778 C 0.88238 0.30563 0.09745 0.0
C779 C 0.88219 0.25136 0.07905 0.0
C780 C 0.88278 0.24218 0.20351 0.0
H781 H 0.88129 0.28635 0.93286 0.0
H782 H 0.88191 0.23481 1.01889 0.0
S783 S 0.88387 0.29505 0.42807 0.0
N784 N 0.88334 0.31648 0.30123 0.0
N785 N 0.88363 0.26126 0.39345 0.0
C786 C 0.88305 0.26588 0.27336 0.0
C787 C 0.883 0.29668 0.22186 0.0
C788 C 0.28812 0.41734 0.32643 0.0
C789 C 0.29149 0.39491 0.25363 0.0
C790 C 0.267 0.41782 0.40285 0.0
C791 C 0.24821 0.3958 0.41088 0.0
H792 H 0.30175 0.43496 0.32306 0.0
H793 H 0.26524 0.43591 0.45497 0.0
S794 S 0.24928 0.33046 0.24869 0.0
N795 N 0.27487 0.34891 0.20129 0.0
N796 N 0.23549 0.34991 0.34386 0.0
C797 C 0.25157 0.37298 0.34008 0.0
C798 C 0.27307 0.37249 0.26213 0.0
C799 C 0.38574 0.76764 0.76778 0.0
C800 C 0.38255 0.74385 0.69933 0.0
C801 C 0.38596 0.79796 0.71746 0.0
C802 C 0.38254 0.80736 0.59426 0.0
H803 H 0.38847 0.76284 0.86242 0.0
H804 H 0.38877 0.81434 0.77707 0.0
S805 S 0.37172 0.75493 0.37278 0.0
N806 N 0.37512 0.73323 0.49808 0.0
N807 N 0.37488 0.78861 0.40658 0.0
C808 C 0.37888 0.78379 0.52518 0.0
C809 C 0.37907 0.75292 0.57613 0.0
C810 C 0.77255 0.64897 0.35255 0.0
C811 C 0.74773 0.65516 0.39024 0.0
C812 C 0.79359 0.6478 0.43027 0.0
C813 C 0.79088 0.65277 0.5497 0.0
H814 H 0.77573 0.64464 0.26216 0.0
H815 H 0.81208 0.64241 0.39693 0.0
S816 S 0.7306 0.67296 0.69069 0.0
N817 N 0.72223 0.66843 0.55409 0.0
N818 N 0.76143 0.66615 0.69921 0.0
C819 C 0.76626 0.65954 0.58802 0.0
C820 C 0.74484 0.66074 0.50886 0.0
C821 C 0.69685 0.27781 0.58186 0.0
C822 C 0.67566 0.2635 0.5409 0.0
C823 C 0.69681 0.28766 0.69471 0.0
C824 C 0.6757 0.28324 0.77196 0.0
H825 H 0.71339 0.28166 0.52565 0.0
H826 H 0.71347 0.29894 0.72153 0.0
S827 S 0.61609 0.24493 0.70599 0.0
N828 N 0.63374 0.24377 0.58667 0.0
N829 N 0.63315 0.26252 0.79665 0.0
C830 C 0.65467 0.26806 0.73212 0.0
C831 C 0.65479 0.25815 0.6173 0.0
C832 C 0.43357 0.1484 0.64134 0.0
C833 C 0.41086 0.14875 0.57355 0.0
C834 C 0.43355 0.14793 0.7673 0.0
C835 C 0.41081 0.14775 0.83437 0.0
H836 H 0.45175 0.14853 0.59665 0.0
H837 H 0.45169 0.14782 0.81247 0.0
S838 S 0.34581 0.14786 0.70328 0.0
N839 N 0.36477 0.14856 0.58733 0.0
N840 N 0.36469 0.14744 0.8194 0.0
C841 C 0.38798 0.14792 0.76764 0.0
C842 C 0.388 0.14847 0.6396 0.0
C843 C 0.17423 0.67817 0.37556 0.0
C844 C 0.17242 0.65301 0.45946 0.0
C845 C 0.17429 0.67661 0.25067 0.0
C846 C 0.17263 0.64979 0.2008 0.0
H847 H 0.17566 0.69946 0.40641 0.0
H848 H 0.17574 0.69686 0.19246 0.0
S849 S 0.16668 0.57718 0.37842 0.0
N850 N 0.16835 0.60008 0.47942 0.0
N851 N 0.16857 0.5974 0.24911 0.0
C852 C 0.17068 0.62453 0.28353 0.0
C853 C 0.17055 0.62607 0.41053 0.0
C854 C 0.65069 0.8955 0.52248 0.0
C855 C 0.62828 0.89388 0.45432 0.0
C856 C 0.65014 0.89614 0.64788 0.0
C857 C 0.62715 0.89534 0.71392 0.0
H858 H 0.66899 0.89628 0.47865 0.0
H859 H 0.66812 0.89729 0.69357 0.0
S860 S 0.56279 0.89112 0.58122 0.0
N861 N 0.58211 0.89145 0.46671 0.0
N862 N 0.58123 0.89282 0.69767 0.0
C863 C 0.60464 0.89379 0.64688 0.0
C864 C 0.60517 0.89303 0.51947 0.0
C865 C 0.8886 0.47789 0.3831 0.0
C866 C 0.91076 0.47696 0.30521 0.0
C867 C 0.87184 0.45413 0.44229 0.0
C868 C 0.87059 0.42218 0.43858 0.0
H869 H 0.88413 0.49954 0.40497 0.0
H870 H 0.85852 0.46187 0.50411 0.0
S871 S 0.93305 0.37949 0.20283 0.0
N872 N 0.9424 0.42799 0.18158 0.0
N873 N 0.89874 0.37764 0.32376 0.0
C874 C 0.88817 0.41027 0.3687 0.0
C875 C 0.92248 0.45103 0.25886 0.0
C876 C 0.43358 0.40467 0.53361 0.0
C877 C 0.41086 0.40282 0.46764 0.0
C878 C 0.43368 0.40448 0.65945 0.0
C879 C 0.41107 0.40252 0.72815 0.0
H880 H 0.45164 0.40624 0.48764 0.0
H881 H 0.45183 0.40596 0.70327 0.0
S882 S 0.34613 0.39707 0.60186 0.0
N883 N 0.3649 0.39872 0.485 0.0
N884 N 0.3651 0.39867 0.71658 0.0
C885 C 0.38824 0.40069 0.66324 0.0
C886 C 0.38814 0.40075 0.53542 0.0
C887 C 0.42925 0.65165 0.23792 0.0
C888 C 0.41856 0.67855 0.26345 0.0
C889 C 0.4497 0.63954 0.30564 0.0
C890 C 0.45314 0.65051 0.41415 0.0
H891 H 0.41983 0.63837 0.17888 0.0
H892 H 0.4551 0.61727 0.29607 0.0
S893 S 0.44993 0.72875 0.44764 0.0
N894 N 0.42788 0.72352 0.34833 0.0
N895 N 0.46518 0.69727 0.47768 0.0
C896 C 0.45314 0.68129 0.40173 0.0
C897 C 0.43291 0.69533 0.33385 0.0
C898 C 0.65149 0.65699 0.77961 0.0
C899 C 0.62911 0.6591 0.84754 0.0
C900 C 0.65091 0.65635 0.65421 0.0
C901 C 0.62792 0.65763 0.58797 0.0
H902 H 0.66979 0.65579 0.82361 0.0
H903 H 0.66884 0.65477 0.60872 0.0
S904 S 0.56365 0.66359 0.71979 0.0
N905 N 0.58301 0.66285 0.83435 0.0
N906 N 0.58205 0.66125 0.6037 0.0
C907 C 0.60544 0.65971 0.65473 0.0
C908 C 0.60601 0.66054 0.78205 0.0
C909 C 0.68071 0.42536 0.52345 0.0
C910 C 0.67271 0.40181 0.60626 0.0
C911 C 0.68094 0.42367 0.3986 0.0
C912 C 0.6733 0.39829 0.34794 0.0
H913 H 0.68712 0.44533 0.55526 0.0
H914 H 0.68742 0.44256 0.34104 0.0
S915 S 0.64708 0.33194 0.52144 0.0
N916 N 0.65461 0.35305 0.6238 0.0
N917 N 0.65528 0.35003 0.3934 0.0
C918 C 0.66467 0.37493 0.4294 0.0
C919 C 0.66432 0.37665 0.55631 0.0
C920 C 0.8886 0.64857 0.14344 0.0
C921 C 0.91133 0.64768 0.07676 0.0
C922 C 0.88859 0.64821 0.26935 0.0
C923 C 0.91129 0.64685 0.3375 0.0
H924 H 0.87047 0.64958 0.09796 0.0
H925 H 0.87042 0.649 0.31369 0.0
S926 S 0.97627 0.64402 0.20932 0.0
N927 N 0.95743 0.64534 0.09268 0.0
N928 N 0.95733 0.64458 0.32478 0.0
C929 C 0.93412 0.6459 0.27196 0.0
C930 C 0.93415 0.64633 0.14393 0.0
C931 C 0.6638 0.12664 0.78058 0.0
C932 C 0.67395 0.1493 0.69943 0.0
C933 C 0.66333 0.12815 0.90557 0.0
C934 C 0.67291 0.15246 0.95783 0.0
H935 H 0.65579 0.10758 0.74727 0.0
H936 H 0.65513 0.11002 0.9619 0.0
S937 S 0.70573 0.21526 0.78998 0.0
N938 N 0.69652 0.19543 0.68597 0.0
N939 N 0.69538 0.19821 0.91634 0.0
C940 C 0.68378 0.17476 0.8782 0.0
C941 C 0.68436 0.1732 0.7513 0.0
C942 C 0.10653 0.39689 0.1341 0.0
C943 C 0.12904 0.39701 0.20257 0.0
C944 C 0.10694 0.39644 1.00861 0.0
C945 C 0.12988 0.39602 0.94279 0.0
H946 H 0.08825 0.39707 0.17782 0.0
H947 H 0.08889 0.39638 0.96274 0.0
S948 S 0.19449 0.39663 0.0761 0.0
N949 N 0.17524 0.39714 0.19044 0.0
N950 N 0.17589 0.39604 0.95944 0.0
C951 C 0.1525 0.39622 1.01006 0.0
C952 C 0.15211 0.39677 0.13755 0.0
C953 C 0.32141 0.87865 0.8958 0.0
C954 C 0.31584 0.89075 1.00029 0.0
C955 C 0.34226 0.89098 0.83205 0.0
C956 C 0.35132 0.91873 0.85542 0.0
H957 H 0.31696 0.85601 0.8888 0.0
H958 H 0.35288 0.87772 0.77664 0.0
S959 S 0.31377 0.96988 1.01278 0.0
N960 N 0.30009 0.93774 0.04717 0.0
N961 N 0.33801 0.96464 0.92442 0.0
C962 C 0.33504 0.93575 0.91689 0.0
C963 C 0.31454 0.9214 0.98118 0.0
C964 C 0.93111 0.91221 0.16071 0.0
C965 C 0.91073 0.90052 0.23302 0.0
C966 C 0.93119 0.91239 0.03482 0.0
C967 C 0.91091 0.90082 0.97269 0.0
H968 H 0.94719 0.92169 0.20168 0.0
H969 H 0.94729 0.92202 0.98557 0.0
S970 S 0.85482 0.86316 0.11972 0.0
N971 N 0.87079 0.87446 0.23073 0.0
N972 N 0.87103 0.87443 0.99872 0.0
C973 C 0.89083 0.88824 0.04455 0.0
C974 C 0.89071 0.88819 0.17242 0.0
C975 C 0.84056 0.15253 0.96635 0.0
C976 C 0.8517 0.1258 0.94197 0.0
C977 C 0.81968 0.16378 0.89943 0.0
C978 C 0.81606 0.15215 0.79236 0.0
H979 H 0.84981 0.16624 1.02433 0.0
H980 H 0.81386 0.18598 0.90776 0.0
S981 S 0.82115 0.07381 0.76336 0.0
N982 N 0.84332 0.08014 0.86059 0.0
N983 N 0.80505 0.1047 0.73257 0.0
C984 C 0.81685 0.12137 0.80671 0.0
C985 C 0.83756 0.10824 0.87398 0.0
C986 C 0.10708 0.15865 0.15301 0.0
C987 C 0.12952 0.15922 0.08375 0.0
C988 C 0.10761 0.15932 0.27839 0.0
C989 C 0.1306 0.16059 0.34337 0.0
H990 H 0.08877 0.15776 0.11 0.0
H991 H 0.08962 0.1588 0.32491 0.0
S992 S 0.19505 0.1621 0.20789 0.0
N993 N 0.17571 0.16101 0.0942 0.0
N994 N 0.17657 0.16197 0.32523 0.0
C995 C 0.15314 0.16098 0.27542 0.0
C996 C 0.15263 0.16039 0.14796 0.0
C997 C 0.16353 0.92249 0.90052 0.0
C998 C 0.1732 0.89824 0.84799 0.0
C999 C 0.16378 0.92374 1.02566 0.0
C1000 C 0.17378 0.90086 0.1067 0.0
H1001 H 0.15542 0.94075 0.8443 0.0
H1002 H 0.15575 0.9428 0.05919 0.0
S1003 S 0.20543 0.83467 1.01585 0.0
N1004 N 0.19542 0.85212 0.88935 0.0
N1005 N 0.19612 0.85444 0.12008 0.0
C1006 C 0.1842 0.87695 0.05469 0.0
C1007 C 0.18385 0.87565 0.9276 0.0
loop_
_geom_bond_atom_site_label_1
_geom_bond_atom_site_label_2
_geom_bond_distance
_geom_bond_site_symmetry_2
_ccdc_geom_bond_type
Co0 N5 2.057 . S
Co0 O17 2.021 . S
Co0 O20 2.062 1_554 S
Co0 O24 2.117 . S
Co0 O25 2.020 . S
C1 O21 1.259 . S
C1 O24 1.258 . S
Co2 N11 2.057 . S
Co2 O18 2.117 . S
Co2 O19 2.020 1_554 S
Co2 O21 2.021 . S
Co2 O26 2.062 . S
C3 N5 1.316 . S
C3 N6 1.347 . S
C3 H8 0.931 . S
C4 N5 1.375 . S
C4 C7 1.350 . S
C4 H9 0.930 . S
N5 Co0 2.057 . S
N5 C3 1.316 . S
N5 C4 1.375 . S
N6 C3 1.347 . S
N6 C7 1.373 . S
C7 C4 1.350 . S
C7 N6 1.373 . S
C7 H28 0.931 . S
H8 C3 0.931 . S
H9 C4 0.930 . S
C10 O17 1.259 . S
C10 O18 1.258 . S
N11 Co2 2.057 . S
N11 C12 1.316 . S
N11 C13 1.375 . S
C12 N11 1.316 . S
C12 N14 1.347 . S
C12 H23 0.931 . S
C13 N11 1.375 . S
C13 C15 1.350 . S
C13 H22 0.930 . S
N14 C12 1.347 . S
N14 C15 1.373 . S
C15 C13 1.350 . S
C15 N14 1.373 . S
C15 H29 0.931 . S
C16 O19 1.256 . S
C16 O20 1.255 . S
O17 Co0 2.021 . S
O17 C10 1.259 . S
O18 Co2 2.117 . S
O18 C10 1.258 . S
O19 Co2 2.020 1_556 S
O19 C16 1.256 . S
O20 Co0 2.062 1_556 S
O20 C16 1.255 . S
O21 C1 1.259 . S
O21 Co2 2.021 . S
H22 C13 0.930 . S
H23 C12 0.931 . S
O24 Co0 2.117 . S
O24 C1 1.258 . S
O25 Co0 2.020 . S
O25 C27 1.256 . S
O26 Co2 2.062 . S
O26 C27 1.255 . S
C27 O25 1.256 . S
C27 O26 1.255 . S
H28 C7 0.931 . S
H29 C15 0.931 . S
Co30 N35 2.057 . S
Co30 O47 2.021 . S
Co30 O50 2.062 . S
Co30 O54 2.117 . S
Co30 O55 2.020 1_556 S
C31 O51 1.259 . S
C31 O54 1.258 . S
Co32 N41 2.057 . S
Co32 O48 2.117 . S
Co32 O49 2.020 . S
Co32 O51 2.021 . S
Co32 O56 2.062 1_556 S
C33 N35 1.316 . S
C33 N36 1.347 . S
C33 H38 0.931 . S
C34 N35 1.375 . S
C34 C37 1.350 . S
C34 H39 0.930 . S
N35 Co30 2.057 . S
N35 C33 1.316 . S
N35 C34 1.375 . S
N36 C33 1.347 . S
N36 C37 1.373 . S
C37 C34 1.350 . S
C37 N36 1.373 . S
C37 H58 0.931 . S
H38 C33 0.931 . S
H39 C34 0.930 . S
C40 O47 1.259 . S
C40 O48 1.258 . S
N41 Co32 2.057 . S
N41 C42 1.316 . S
N41 C43 1.375 . S
C42 N41 1.316 . S
C42 N44 1.347 . S
C42 H53 0.931 . S
C43 N41 1.375 . S
C43 C45 1.350 . S
C43 H52 0.930 . S
N44 C42 1.347 . S
N44 C45 1.373 . S
C45 C43 1.350 . S
C45 N44 1.373 . S
C45 H59 0.931 . S
C46 O49 1.256 . S
C46 O50 1.255 . S
O47 Co30 2.021 . S
O47 C40 1.259 . S
O48 Co32 2.117 . S
O48 C40 1.258 . S
O49 Co32 2.020 . S
O49 C46 1.256 . S
O50 Co30 2.062 . S
O50 C46 1.255 . S
O51 C31 1.259 . S
O51 Co32 2.021 . S
H52 C43 0.930 . S
H53 C42 0.931 . S
O54 Co30 2.117 . S
O54 C31 1.258 . S
O55 Co30 2.020 1_554 S
O55 C57 1.256 . S
O56 Co32 2.062 1_554 S
O56 C57 1.255 . S
C57 O55 1.256 . S
C57 O56 1.255 . S
H58 C37 0.931 . S
H59 C45 0.931 . S
Co60 N65 2.057 . S
Co60 O77 2.021 . S
Co60 O80 2.062 1_554 S
Co60 O84 2.117 . S
Co60 O85 2.020 . S
C61 O81 1.259 . S
C61 O84 1.258 . S
Co62 N71 2.057 . S
Co62 O78 2.117 . S
Co62 O79 2.020 1_554 S
Co62 O81 2.021 . S
Co62 O86 2.062 . S
C63 N65 1.316 . S
C63 N66 1.347 . S
C63 H68 0.931 . S
C64 N65 1.375 . S
C64 C67 1.350 . S
C64 H69 0.930 . S
N65 Co60 2.057 . S
N65 C63 1.316 . S
N65 C64 1.375 . S
N66 C63 1.347 . S
N66 C67 1.373 . S
C67 C64 1.350 . S
C67 N66 1.373 . S
C67 H88 0.931 . S
H68 C63 0.931 . S
H69 C64 0.930 . S
C70 O77 1.259 . S
C70 O78 1.258 . S
N71 Co62 2.057 . S
N71 C72 1.316 . S
N71 C73 1.375 . S
C72 N71 1.316 . S
C72 N74 1.347 . S
C72 H83 0.931 . S
C73 N71 1.375 . S
C73 C75 1.350 . S
C73 H82 0.930 . S
N74 C72 1.347 . S
N74 C75 1.373 . S
C75 C73 1.350 . S
C75 N74 1.373 . S
C75 H89 0.931 . S
C76 O79 1.256 . S
C76 O80 1.255 . S
O77 Co60 2.021 . S
O77 C70 1.259 . S
O78 Co62 2.117 . S
O78 C70 1.258 . S
O79 Co62 2.020 1_556 S
O79 C76 1.256 . S
O80 Co60 2.062 1_556 S
O80 C76 1.255 . S
O81 C61 1.259 . S
O81 Co62 2.021 . S
H82 C73 0.930 . S
H83 C72 0.931 . S
O84 Co60 2.117 . S
O84 C61 1.258 . S
O85 Co60 2.020 . S
O85 C87 1.256 . S
O86 Co62 2.062 . S
O86 C87 1.255 . S
C87 O85 1.256 . S
C87 O86 1.255 . S
H88 C67 0.931 . S
H89 C75 0.931 . S
Co90 N95 2.057 . S
Co90 O107 2.021 . S
Co90 O110 2.062 . S
Co90 O114 2.117 1_554 S
Co90 O115 2.020 1_554 S
C91 O111 1.259 . S
C91 O114 1.258 . S
Co92 N101 2.057 . S
Co92 O108 2.117 . S
Co92 O109 2.020 . S
Co92 O111 2.021 . S
Co92 O116 2.062 . S
C93 N95 1.316 . S
C93 N96 1.347 . S
C93 H98 0.931 . S
C94 N95 1.375 . S
C94 C97 1.350 . S
C94 H99 0.930 . S
N95 Co90 2.057 . S
N95 C93 1.316 . S
N95 C94 1.375 . S
N96 C93 1.347 . S
N96 C97 1.373 . S
C97 C94 1.350 . S
C97 N96 1.373 . S
C97 H118 0.931 . S
H98 C93 0.931 . S
H99 C94 0.930 . S
C100 O107 1.259 1_556 S
C100 O108 1.258 . S
N101 Co92 2.057 . S
N101 C102 1.316 . S
N101 C103 1.375 . S
C102 N101 1.316 . S
C102 N104 1.347 . S
C102 H113 0.931 . S
C103 N101 1.375 . S
C103 C105 1.350 . S
C103 H112 0.930 . S
N104 C102 1.347 . S
N104 C105 1.373 . S
C105 C103 1.350 . S
C105 N104 1.373 . S
C105 H119 0.931 . S
C106 O109 1.256 . S
C106 O110 1.255 1_556 S
O107 Co90 2.021 . S
O107 C100 1.259 1_554 S
O108 Co92 2.117 . S
O108 C100 1.258 . S
O109 Co92 2.020 . S
O109 C106 1.256 . S
O110 Co90 2.062 . S
O110 C106 1.255 1_554 S
O111 C91 1.259 . S
O111 Co92 2.021 . S
H112 C103 0.930 . S
H113 C102 0.931 . S
O114 Co90 2.117 1_556 S
O114 C91 1.258 . S
O115 Co90 2.020 1_556 S
O115 C117 1.256 . S
O116 Co92 2.062 . S
O116 C117 1.255 . S
C117 O115 1.256 . S
C117 O116 1.255 . S
H118 C97 0.931 . S
H119 C105 0.931 . S
Co120 N125 2.057 . S
Co120 O137 2.021 . S
Co120 O140 2.062 . S
Co120 O144 2.117 . S
Co120 O145 2.020 1_554 S
C121 O141 1.259 . S
C121 O144 1.258 . S
Co122 N131 2.057 . S
Co122 O138 2.117 . S
Co122 O139 2.020 . S
Co122 O141 2.021 . S
Co122 O146 2.062 1_554 S
C123 N125 1.316 . S
C123 N126 1.347 . S
C123 H128 0.931 . S
C124 N125 1.375 . S
C124 C127 1.350 . S
C124 H129 0.930 . S
N125 Co120 2.057 . S
N125 C123 1.316 . S
N125 C124 1.375 . S
N126 C123 1.347 . S
N126 C127 1.373 . S
C127 C124 1.350 . S
C127 N126 1.373 . S
C127 H148 0.931 . S
H128 C123 0.931 . S
H129 C124 0.930 . S
C130 O137 1.259 . S
C130 O138 1.258 . S
N131 Co122 2.057 . S
N131 C132 1.316 . S
N131 C133 1.375 . S
C132 N131 1.316 . S
C132 N134 1.347 . S
C132 H143 0.931 . S
C133 N131 1.375 . S
C133 C135 1.350 . S
C133 H142 0.930 . S
N134 C132 1.347 . S
N134 C135 1.373 . S
C135 C133 1.350 . S
C135 N134 1.373 . S
C135 H149 0.931 . S
C136 O139 1.256 . S
C136 O140 1.255 . S
O137 Co120 2.021 . S
O137 C130 1.259 . S
O138 Co122 2.117 . S
O138 C130 1.258 . S
O139 Co122 2.020 . S
O139 C136 1.256 . S
O140 Co120 2.062 . S
O140 C136 1.255 . S
O141 C121 1.259 . S
O141 Co122 2.021 . S
H142 C133 0.930 . S
H143 C132 0.931 . S
O144 Co120 2.117 . S
O144 C121 1.258 . S
O145 Co120 2.020 1_556 S
O145 C147 1.256 . S
O146 Co122 2.062 1_556 S
O146 C147 1.255 . S
C147 O145 1.256 . S
C147 O146 1.255 . S
H148 C127 0.931 . S
H149 C135 0.931 . S
Co150 N155 2.057 . S
Co150 O167 2.021 . S
Co150 O170 2.062 . S
Co150 O174 2.117 . S
Co150 O175 2.020 . S
C151 O171 1.259 . S
C151 O174 1.258 . S
Co152 N161 2.057 1_556 S
Co152 O168 2.117 . S
Co152 O169 2.020 . S
Co152 O171 2.021 . S
Co152 O176 2.062 . S
C153 N155 1.316 . S
C153 N156 1.347 . S
C153 H158 0.931 . S
C154 N155 1.375 . S
C154 C157 1.350 . S
C154 H159 0.930 . S
N155 Co150 2.057 . S
N155 C153 1.316 . S
N155 C154 1.375 . S
N156 C153 1.347 . S
N156 C157 1.373 . S
C157 C154 1.350 . S
C157 N156 1.373 . S
C157 H178 0.931 . S
H158 C153 0.931 . S
H159 C154 0.930 . S
C160 O167 1.259 . S
C160 O168 1.258 . S
N161 Co152 2.057 1_554 S
N161 C162 1.316 . S
N161 C163 1.375 . S
C162 N161 1.316 . S
C162 N164 1.347 . S
C162 H173 0.931 . S
C163 N161 1.375 . S
C163 C165 1.350 . S
C163 H172 0.930 . S
N164 C162 1.347 . S
N164 C165 1.373 . S
C165 C163 1.350 . S
C165 N164 1.373 . S
C165 H179 0.931 . S
C166 O169 1.256 . S
C166 O170 1.255 . S
O167 Co150 2.021 . S
O167 C160 1.259 . S
O168 Co152 2.117 . S
O168 C160 1.258 . S
O169 Co152 2.020 . S
O169 C166 1.256 . S
O170 Co150 2.062 . S
O170 C166 1.255 . S
O171 C151 1.259 . S
O171 Co152 2.021 . S
H172 C163 0.930 . S
H173 C162 0.931 . S
O174 Co150 2.117 . S
O174 C151 1.258 . S
O175 Co150 2.020 . S
O175 C177 1.256 . S
O176 Co152 2.062 . S
O176 C177 1.255 . S
C177 O175 1.256 . S
C177 O176 1.255 . S
H178 C157 0.931 . S
H179 C165 0.931 . S
Co180 N185 2.057 . S
Co180 O197 2.021 . S
Co180 O200 2.062 . S
Co180 O204 2.117 . S
Co180 O205 2.020 1_554 S
C181 O201 1.259 . S
C181 O204 1.258 . S
Co182 N191 2.057 . S
Co182 O198 2.117 . S
Co182 O199 2.020 . S
Co182 O201 2.021 . S
Co182 O206 2.062 1_554 S
C183 N185 1.316 . S
C183 N186 1.347 . S
C183 H188 0.931 . S
C184 N185 1.375 . S
C184 C187 1.350 . S
C184 H189 0.930 . S
N185 Co180 2.057 . S
N185 C183 1.316 . S
N185 C184 1.375 . S
N186 C183 1.347 . S
N186 C187 1.373 . S
C187 C184 1.350 . S
C187 N186 1.373 . S
C187 H208 0.931 . S
H188 C183 0.931 . S
H189 C184 0.930 . S
C190 O197 1.259 . S
C190 O198 1.258 . S
N191 Co182 2.057 . S
N191 C192 1.316 . S
N191 C193 1.375 . S
C192 N191 1.316 . S
C192 N194 1.347 . S
C192 H203 0.931 . S
C193 N191 1.375 . S
C193 C195 1.350 . S
C193 H202 0.930 . S
N194 C192 1.347 . S
N194 C195 1.373 . S
C195 C193 1.350 . S
C195 N194 1.373 . S
C195 H209 0.931 . S
C196 O199 1.256 . S
C196 O200 1.255 . S
O197 Co180 2.021 . S
O197 C190 1.259 . S
O198 Co182 2.117 . S
O198 C190 1.258 . S
O199 Co182 2.020 . S
O199 C196 1.256 . S
O200 Co180 2.062 . S
O200 C196 1.255 . S
O201 C181 1.259 . S
O201 Co182 2.021 . S
H202 C193 0.930 . S
H203 C192 0.931 . S
O204 Co180 2.117 . S
O204 C181 1.258 . S
O205 Co180 2.020 1_556 S
O205 C207 1.256 . S
O206 Co182 2.062 1_556 S
O206 C207 1.255 . S
C207 O205 1.256 . S
C207 O206 1.255 . S
H208 C187 0.931 . S
H209 C195 0.931 . S
Co210 N215 2.057 . S
Co210 O227 2.021 . S
Co210 O230 2.062 1_556 S
Co210 O234 2.117 . S
Co210 O235 2.020 . S
C211 O231 1.259 . S
C211 O234 1.258 . S
Co212 N221 2.057 . S
Co212 O228 2.117 . S
Co212 O229 2.020 1_556 S
Co212 O231 2.021 . S
Co212 O236 2.062 . S
C213 N215 1.316 . S
C213 N216 1.347 . S
C213 H218 0.931 . S
C214 N215 1.375 . S
C214 C217 1.350 . S
C214 H219 0.930 . S
N215 Co210 2.057 . S
N215 C213 1.316 . S
N215 C214 1.375 . S
N216 C213 1.347 . S
N216 C217 1.373 . S
C217 C214 1.350 . S
C217 N216 1.373 . S
C217 H238 0.931 . S
H218 C213 0.931 . S
H219 C214 0.930 . S
C220 O227 1.259 . S
C220 O228 1.258 . S
N221 Co212 2.057 . S
N221 C222 1.316 . S
N221 C223 1.375 . S
C222 N221 1.316 . S
C222 N224 1.347 . S
C222 H233 0.931 . S
C223 N221 1.375 . S
C223 C225 1.350 . S
C223 H232 0.930 . S
N224 C222 1.347 . S
N224 C225 1.373 . S
C225 C223 1.350 . S
C225 N224 1.373 . S
C225 H239 0.931 . S
C226 O229 1.256 . S
C226 O230 1.255 . S
O227 Co210 2.021 . S
O227 C220 1.259 . S
O228 Co212 2.117 . S
O228 C220 1.258 . S
O229 Co212 2.020 1_554 S
O229 C226 1.256 . S
O230 Co210 2.062 1_554 S
O230 C226 1.255 . S
O231 C211 1.259 . S
O231 Co212 2.021 . S
H232 C223 0.930 . S
H233 C222 0.931 . S
O234 Co210 2.117 . S
O234 C211 1.258 . S
O235 Co210 2.020 . S
O235 C237 1.256 . S
O236 Co212 2.062 . S
O236 C237 1.255 . S
C237 O235 1.256 . S
C237 O236 1.255 . S
H238 C217 0.931 . S
H239 C225 0.931 . S
Co240 N245 2.057 . S
Co240 O257 2.021 . S
Co240 O260 2.062 . S
Co240 O264 2.117 . S
Co240 O265 2.020 . S
C241 O261 1.259 . S
C241 O264 1.258 . S
Co242 N251 2.057 . S
Co242 O258 2.117 . S
Co242 O259 2.020 . S
Co242 O261 2.021 . S
Co242 O266 2.062 . S
C243 N245 1.316 . S
C243 N246 1.347 . S
C243 H248 0.931 . S
C244 N245 1.375 . S
C244 C247 1.350 . S
C244 H249 0.930 . S
N245 Co240 2.057 . S
N245 C243 1.316 . S
N245 C244 1.375 . S
N246 C243 1.347 . S
N246 C247 1.373 . S
C247 C244 1.350 . S
C247 N246 1.373 . S
C247 H268 0.931 . S
H248 C243 0.931 . S
H249 C244 0.930 . S
C250 O257 1.259 . S
C250 O258 1.258 . S
N251 Co242 2.057 . S
N251 C252 1.316 . S
N251 C253 1.375 . S
C252 N251 1.316 . S
C252 N254 1.347 . S
C252 H263 0.931 . S
C253 N251 1.375 . S
C253 C255 1.350 . S
C253 H262 0.930 . S
N254 C252 1.347 . S
N254 C255 1.373 . S
C255 C253 1.350 . S
C255 N254 1.373 . S
C255 H269 0.931 1_655 S
C256 O259 1.256 . S
C256 O260 1.255 . S
O257 Co240 2.021 . S
O257 C250 1.259 . S
O258 Co242 2.117 . S
O258 C250 1.258 . S
O259 Co242 2.020 . S
O259 C256 1.256 . S
O260 Co240 2.062 . S
O260 C256 1.255 . S
O261 C241 1.259 . S
O261 Co242 2.021 . S
H262 C253 0.930 . S
H263 C252 0.931 . S
O264 Co240 2.117 . S
O264 C241 1.258 . S
O265 Co240 2.020 . S
O265 C267 1.256 . S
O266 Co242 2.062 . S
O266 C267 1.255 . S
C267 O265 1.256 . S
C267 O266 1.255 . S
H268 C247 0.931 . S
H269 C255 0.931 1_455 S
Co270 N275 2.057 . S
Co270 O287 2.021 . S
Co270 O290 2.062 . S
Co270 O294 2.117 . S
Co270 O295 2.020 . S
C271 O291 1.259 . S
C271 O294 1.258 . S
Co272 N281 2.057 . S
Co272 O288 2.117 . S
Co272 O289 2.020 . S
Co272 O291 2.021 . S
Co272 O296 2.062 . S
C273 N275 1.316 . S
C273 N276 1.347 1_545 S
C273 H278 0.931 . S
C274 N275 1.375 . S
C274 C277 1.350 1_545 S
C274 H279 0.930 . S
N275 Co270 2.057 . S
N275 C273 1.316 . S
N275 C274 1.375 . S
N276 C273 1.347 1_565 S
N276 C277 1.373 . S
C277 C274 1.350 1_565 S
C277 N276 1.373 . S
C277 H298 0.931 . S
H278 C273 0.931 . S
H279 C274 0.930 . S
C280 O287 1.259 . S
C280 O288 1.258 . S
N281 Co272 2.057 . S
N281 C282 1.316 . S
N281 C283 1.375 . S
C282 N281 1.316 . S
C282 N284 1.347 . S
C282 H293 0.931 . S
C283 N281 1.375 . S
C283 C285 1.350 . S
C283 H292 0.930 . S
N284 C282 1.347 . S
N284 C285 1.373 . S
C285 C283 1.350 . S
C285 N284 1.373 . S
C285 H299 0.931 . S
C286 O289 1.256 . S
C286 O290 1.255 . S
O287 Co270 2.021 . S
O287 C280 1.259 . S
O288 Co272 2.117 . S
O288 C280 1.258 . S
O289 Co272 2.020 . S
O289 C286 1.256 . S
O290 Co270 2.062 . S
O290 C286 1.255 . S
O291 C271 1.259 . S
O291 Co272 2.021 . S
H292 C283 0.930 . S
H293 C282 0.931 . S
O294 Co270 2.117 . S
O294 C271 1.258 . S
O295 Co270 2.020 . S
O295 C297 1.256 . S
O296 Co272 2.062 . S
O296 C297 1.255 . S
C297 O295 1.256 . S
C297 O296 1.255 . S
H298 C277 0.931 . S
H299 C285 0.931 . S
Co300 N305 2.057 . S
Co300 O317 2.021 . S
Co300 O320 2.062 . S
Co300 O324 2.117 . S
Co300 O325 2.020 . S
C301 O321 1.259 . S
C301 O324 1.258 . S
Co302 N311 2.057 . S
Co302 O318 2.117 . S
Co302 O319 2.020 . S
Co302 O321 2.021 . S
Co302 O326 2.062 . S
C303 N305 1.316 . S
C303 N306 1.347 . S
C303 H308 0.931 . S
C304 N305 1.375 . S
C304 C307 1.350 . S
C304 H309 0.930 . S
N305 Co300 2.057 . S
N305 C303 1.316 . S
N305 C304 1.375 . S
N306 C303 1.347 . S
N306 C307 1.373 . S
C307 C304 1.350 . S
C307 N306 1.373 . S
C307 H328 0.931 . S
H308 C303 0.931 . S
H309 C304 0.930 . S
C310 O317 1.259 . S
C310 O318 1.258 . S
N311 Co302 2.057 . S
N311 C312 1.316 . S
N311 C313 1.375 . S
C312 N311 1.316 . S
C312 N314 1.347 . S
C312 H323 0.931 . S
C313 N311 1.375 . S
C313 C315 1.350 . S
C313 H322 0.930 . S
N314 C312 1.347 . S
N314 C315 1.373 . S
C315 C313 1.350 . S
C315 N314 1.373 . S
C315 H329 0.931 . S
C316 O319 1.256 . S
C316 O320 1.255 . S
O317 Co300 2.021 . S
O317 C310 1.259 . S
O318 Co302 2.117 . S
O318 C310 1.258 . S
O319 Co302 2.020 . S
O319 C316 1.256 . S
O320 Co300 2.062 . S
O320 C316 1.255 . S
O321 C301 1.259 . S
O321 Co302 2.021 . S
H322 C313 0.930 . S
H323 C312 0.931 . S
O324 Co300 2.117 . S
O324 C301 1.258 . S
O325 Co300 2.020 . S
O325 C327 1.256 . S
O326 Co302 2.062 . S
O326 C327 1.255 . S
C327 O325 1.256 . S
C327 O326 1.255 . S
H328 C307 0.931 . S
H329 C315 0.931 . S
Co330 N335 2.057 . S
Co330 O347 2.021 . S
Co330 O350 2.062 . S
Co330 O354 2.117 . S
Co330 O355 2.020 . S
C331 O351 1.259 . S
C331 O354 1.258 . S
Co332 N341 2.057 . S
Co332 O348 2.117 . S
Co332 O349 2.020 . S
Co332 O351 2.021 . S
Co332 O356 2.062 . S
C333 N335 1.316 . S
C333 N336 1.347 . S
C333 H338 0.931 . S
C334 N335 1.375 . S
C334 C337 1.350 . S
C334 H339 0.930 . S
N335 Co330 2.057 . S
N335 C333 1.316 . S
N335 C334 1.375 . S
N336 C333 1.347 . S
N336 C337 1.373 . S
C337 C334 1.350 . S
C337 N336 1.373 . S
C337 H358 0.931 . S
H338 C333 0.931 . S
H339 C334 0.930 . S
C340 O347 1.259 . S
C340 O348 1.258 . S
N341 Co332 2.057 . S
N341 C342 1.316 . S
N341 C343 1.375 . S
C342 N341 1.316 . S
C342 N344 1.347 1_554 S
C342 H353 0.931 . S
C343 N341 1.375 . S
C343 C345 1.350 1_554 S
C343 H352 0.930 . S
N344 C342 1.347 1_556 S
N344 C345 1.373 . S
C345 C343 1.350 1_556 S
C345 N344 1.373 . S
C345 H359 0.931 . S
C346 O349 1.256 . S
C346 O350 1.255 . S
O347 Co330 2.021 . S
O347 C340 1.259 . S
O348 Co332 2.117 . S
O348 C340 1.258 . S
O349 Co332 2.020 . S
O349 C346 1.256 . S
O350 Co330 2.062 . S
O350 C346 1.255 . S
O351 C331 1.259 . S
O351 Co332 2.021 . S
H352 C343 0.930 . S
H353 C342 0.931 . S
O354 Co330 2.117 . S
O354 C331 1.258 . S
O355 Co330 2.020 . S
O355 C357 1.256 . S
O356 Co332 2.062 . S
O356 C357 1.255 . S
C357 O355 1.256 . S
C357 O356 1.255 . S
H358 C337 0.931 . S
H359 C345 0.931 . S
Co360 N365 2.057 . S
Co360 O377 2.021 . S
Co360 O380 2.062 . S
Co360 O384 2.117 . S
Co360 O385 2.020 . S
C361 O381 1.259 . S
C361 O384 1.258 . S
Co362 N371 2.057 . S
Co362 O378 2.117 . S
Co362 O379 2.020 . S
Co362 O381 2.021 . S
Co362 O386 2.062 . S
C363 N365 1.316 . S
C363 N366 1.347 . S
C363 H368 0.931 . S
C364 N365 1.375 . S
C364 C367 1.350 . S
C364 H369 0.930 . S
N365 Co360 2.057 . S
N365 C363 1.316 . S
N365 C364 1.375 . S
N366 C363 1.347 . S
N366 C367 1.373 . S
C367 C364 1.350 . S
C367 N366 1.373 . S
C367 H388 0.931 . S
H368 C363 0.931 . S
H369 C364 0.930 . S
C370 O377 1.259 . S
C370 O378 1.258 . S
N371 Co362 2.057 . S
N371 C372 1.316 . S
N371 C373 1.375 . S
C372 N371 1.316 . S
C372 N374 1.347 . S
C372 H383 0.931 . S
C373 N371 1.375 . S
C373 C375 1.350 . S
C373 H382 0.930 . S
N374 C372 1.347 . S
N374 C375 1.373 . S
C375 C373 1.350 . S
C375 N374 1.373 . S
C375 H389 0.931 1_655 S
C376 O379 1.256 . S
C376 O380 1.255 . S
O377 Co360 2.021 . S
O377 C370 1.259 . S
O378 Co362 2.117 . S
O378 C370 1.258 . S
O379 Co362 2.020 . S
O379 C376 1.256 . S
O380 Co360 2.062 . S
O380 C376 1.255 . S
O381 C361 1.259 . S
O381 Co362 2.021 . S
H382 C373 0.930 . S
H383 C372 0.931 . S
O384 Co360 2.117 . S
O384 C361 1.258 . S
O385 Co360 2.020 . S
O385 C387 1.256 . S
O386 Co362 2.062 . S
O386 C387 1.255 . S
C387 O385 1.256 . S
C387 O386 1.255 . S
H388 C367 0.931 . S
H389 C375 0.931 1_455 S
Co390 N395 2.057 . S
Co390 O407 2.021 . S
Co390 O410 2.062 . S
Co390 O414 2.117 . S
Co390 O415 2.020 . S
C391 O411 1.259 . S
C391 O414 1.258 . S
Co392 N401 2.057 . S
Co392 O408 2.117 . S
Co392 O409 2.020 . S
Co392 O411 2.021 . S
Co392 O416 2.062 . S
C393 N395 1.316 1_556 S
C393 N396 1.347 . S
C393 H398 0.931 . S
C394 N395 1.375 . S
C394 C397 1.350 1_554 S
C394 H399 0.930 . S
N395 Co390 2.057 . S
N395 C393 1.316 1_554 S
N395 C394 1.375 . S
N396 C393 1.347 . S
N396 C397 1.373 . S
C397 C394 1.350 1_556 S
C397 N396 1.373 . S
C397 H418 0.931 . S
H398 C393 0.931 . S
H399 C394 0.930 . S
C400 O407 1.259 . S
C400 O408 1.258 . S
N401 Co392 2.057 . S
N401 C402 1.316 . S
N401 C403 1.375 . S
C402 N401 1.316 . S
C402 N404 1.347 . S
C402 H413 0.931 . S
C403 N401 1.375 . S
C403 C405 1.350 . S
C403 H412 0.930 . S
N404 C402 1.347 . S
N404 C405 1.373 . S
C405 C403 1.350 . S
C405 N404 1.373 . S
C405 H419 0.931 . S
C406 O409 1.256 . S
C406 O410 1.255 . S
O407 Co390 2.021 . S
O407 C400 1.259 . S
O408 Co392 2.117 . S
O408 C400 1.258 . S
O409 Co392 2.020 . S
O409 C406 1.256 . S
O410 Co390 2.062 . S
O410 C406 1.255 . S
O411 C391 1.259 . S
O411 Co392 2.021 . S
H412 C403 0.930 . S
H413 C402 0.931 . S
O414 Co390 2.117 . S
O414 C391 1.258 . S
O415 Co390 2.020 . S
O415 C417 1.256 . S
O416 Co392 2.062 . S
O416 C417 1.255 . S
C417 O415 1.256 . S
C417 O416 1.255 . S
H418 C397 0.931 . S
H419 C405 0.931 . S
Co420 N425 2.057 . S
Co420 O437 2.021 . S
Co420 O440 2.062 . S
Co420 O444 2.117 . S
Co420 O445 2.020 . S
C421 O441 1.259 . S
C421 O444 1.258 . S
Co422 N431 2.057 . S
Co422 O438 2.117 . S
Co422 O439 2.020 . S
Co422 O441 2.021 . S
Co422 O446 2.062 . S
C423 N425 1.316 . S
C423 N426 1.347 . S
C423 H428 0.931 . S
C424 N425 1.375 . S
C424 C427 1.350 . S
C424 H429 0.930 . S
N425 Co420 2.057 . S
N425 C423 1.316 . S
N425 C424 1.375 . S
N426 C423 1.347 . S
N426 C427 1.373 . S
C427 C424 1.350 . S
C427 N426 1.373 . S
C427 H448 0.931 . S
H428 C423 0.931 . S
H429 C424 0.930 . S
C430 O437 1.259 . S
C430 O438 1.258 . S
N431 Co422 2.057 . S
N431 C432 1.316 . S
N431 C433 1.375 . S
C432 N431 1.316 . S
C432 N434 1.347 . S
C432 H443 0.931 . S
C433 N431 1.375 . S
C433 C435 1.350 . S
C433 H442 0.930 . S
N434 C432 1.347 . S
N434 C435 1.373 . S
C435 C433 1.350 . S
C435 N434 1.373 . S
C435 H449 0.931 . S
C436 O439 1.256 . S
C436 O440 1.255 . S
O437 Co420 2.021 . S
O437 C430 1.259 . S
O438 Co422 2.117 . S
O438 C430 1.258 . S
O439 Co422 2.020 . S
O439 C436 1.256 . S
O440 Co420 2.062 . S
O440 C436 1.255 . S
O441 C421 1.259 . S
O441 Co422 2.021 . S
H442 C433 0.930 . S
H443 C432 0.931 . S
O444 Co420 2.117 . S
O444 C421 1.258 . S
O445 Co420 2.020 . S
O445 C447 1.256 . S
O446 Co422 2.062 . S
O446 C447 1.255 . S
C447 O445 1.256 . S
C447 O446 1.255 . S
H448 C427 0.931 . S
H449 C435 0.931 . S
Co450 N455 2.057 . S
Co450 O467 2.021 . S
Co450 O470 2.062 . S
Co450 O474 2.117 . S
Co450 O475 2.020 . S
C451 O471 1.259 . S
C451 O474 1.258 . S
Co452 N461 2.057 . S
Co452 O468 2.117 . S
Co452 O469 2.020 . S
Co452 O471 2.021 . S
Co452 O476 2.062 . S
C453 N455 1.316 . S
C453 N456 1.347 1_565 S
C453 H458 0.931 . S
C454 N455 1.375 . S
C454 C457 1.350 1_565 S
C454 H459 0.930 . S
N455 Co450 2.057 . S
N455 C453 1.316 . S
N455 C454 1.375 . S
N456 C453 1.347 1_545 S
N456 C457 1.373 . S
C457 C454 1.350 1_545 S
C457 N456 1.373 . S
C457 H478 0.931 . S
H458 C453 0.931 . S
H459 C454 0.930 . S
C460 O467 1.259 . S
C460 O468 1.258 . S
N461 Co452 2.057 . S
N461 C462 1.316 . S
N461 C463 1.375 . S
C462 N461 1.316 . S
C462 N464 1.347 . S
C462 H473 0.931 . S
C463 N461 1.375 . S
C463 C465 1.350 . S
C463 H472 0.930 . S
N464 C462 1.347 . S
N464 C465 1.373 . S
C465 C463 1.350 . S
C465 N464 1.373 . S
C465 H479 0.931 . S
C466 O469 1.256 . S
C466 O470 1.255 . S
O467 Co450 2.021 . S
O467 C460 1.259 . S
O468 Co452 2.117 . S
O468 C460 1.258 . S
O469 Co452 2.020 . S
O469 C466 1.256 . S
O470 Co450 2.062 . S
O470 C466 1.255 . S
O471 C451 1.259 . S
O471 Co452 2.021 . S
H472 C463 0.930 . S
H473 C462 0.931 . S
O474 Co450 2.117 . S
O474 C451 1.258 . S
O475 Co450 2.020 . S
O475 C477 1.256 . S
O476 Co452 2.062 . S
O476 C477 1.255 . S
C477 O475 1.256 . S
C477 O476 1.255 . S
H478 C457 0.931 . S
H479 C465 0.931 . S
C480 C481 1.369 . S
C480 C482 1.419 1_565 S
C480 H484 0.930 . S
C481 C480 1.369 . S
C481 C490 1.429 . S
C482 C480 1.419 1_545 S
C482 C483 1.363 . S
C482 H485 0.929 . S
C483 C482 1.363 . S
C483 C489 1.428 . S
H484 C480 0.930 . S
H485 C482 0.929 . S
S486 N487 1.613 1_556 S
S486 N488 1.610 1_566 S
N487 S486 1.613 1_554 S
N487 C490 1.350 . S
N488 S486 1.610 1_544 S
N488 C489 1.351 . S
C489 C483 1.428 . S
C489 N488 1.351 . S
C489 C490 1.434 1_545 S
C490 C481 1.429 . S
C490 N487 1.350 . S
C490 C489 1.434 1_565 S
C491 C492 1.369 . S
C491 C493 1.419 . S
C491 H495 0.930 . S
C492 C491 1.369 . S
C492 C501 1.429 . S
C493 C491 1.419 . S
C493 C494 1.363 . S
C493 H496 0.929 . S
C494 C493 1.363 . S
C494 C500 1.428 . S
H495 C491 0.930 . S
H496 C493 0.929 . S
S497 N498 1.613 . S
S497 N499 1.610 . S
N498 S497 1.613 . S
N498 C501 1.350 . S
N499 S497 1.610 . S
N499 C500 1.351 . S
C500 C494 1.428 . S
C500 N499 1.351 . S
C500 C501 1.434 . S
C501 C492 1.429 . S
C501 N498 1.350 . S
C501 C500 1.434 . S
C502 C503 1.369 . S
C502 C504 1.419 . S
C502 H506 0.930 . S
C503 C502 1.369 . S
C503 C512 1.429 . S
C504 C502 1.419 . S
C504 C505 1.363 . S
C504 H507 0.929 . S
C505 C504 1.363 . S
C505 C511 1.428 . S
H506 C502 0.930 . S
H507 C504 0.929 . S
S508 N509 1.613 1_556 S
S508 N510 1.608 1_566 S
N509 S508 1.613 1_554 S
N509 C512 1.350 . S
N510 S508 1.608 1_544 S
N510 C511 1.344 1_545 S
C511 C505 1.428 . S
C511 N510 1.344 1_565 S
C511 C512 1.434 . S
C512 C503 1.429 . S
C512 N509 1.350 . S
C512 C511 1.434 . S
C513 C514 1.369 . S
C513 C515 1.419 . S
C513 H517 0.930 . S
C514 C513 1.369 . S
C514 C523 1.429 . S
C515 C513 1.419 . S
C515 C516 1.363 . S
C515 H518 0.929 . S
C516 C515 1.363 . S
C516 C522 1.428 . S
H517 C513 0.930 . S
H518 C515 0.929 . S
S519 N520 1.613 . S
S519 N521 1.610 . S
N520 S519 1.613 . S
N520 C523 1.350 . S
N521 S519 1.610 . S
N521 C522 1.351 . S
C522 C516 1.428 . S
C522 N521 1.351 . S
C522 C523 1.434 . S
C523 C514 1.429 . S
C523 N520 1.350 . S
C523 C522 1.434 . S
C524 C525 1.369 1_556 S
C524 C526 1.419 . S
C524 H528 0.930 . S
C525 C524 1.369 1_554 S
C525 C534 1.429 . S
C526 C524 1.419 . S
C526 C527 1.363 . S
C526 H529 0.929 . S
C527 C526 1.363 . S
C527 C533 1.428 1_556 S
H528 C524 0.930 . S
H529 C526 0.929 . S
S530 N531 1.613 . S
S530 N532 1.610 . S
N531 S530 1.613 . S
N531 C534 1.350 . S
N532 S530 1.610 . S
N532 C533 1.351 . S
C533 C527 1.428 1_554 S
C533 N532 1.351 . S
C533 C534 1.434 . S
C534 C525 1.429 . S
C534 N531 1.350 . S
C534 C533 1.434 . S
C535 C536 1.369 . S
C535 C537 1.419 . S
C535 H539 0.930 . S
C536 C535 1.369 . S
C536 C545 1.429 1_556 S
C537 C535 1.419 . S
C537 C538 1.363 . S
C537 H540 0.929 . S
C538 C537 1.363 . S
C538 C544 1.428 . S
H539 C535 0.930 . S
H540 C537 0.929 . S
S541 N542 1.613 . S
S541 N543 1.610 . S
N542 S541 1.613 . S
N542 C545 1.350 . S
N543 S541 1.610 . S
N543 C544 1.351 1_554 S
C544 C538 1.428 . S
C544 N543 1.351 1_556 S
C544 C545 1.434 1_556 S
C545 C536 1.429 1_554 S
C545 N542 1.350 . S
C545 C544 1.434 1_554 S
C546 C547 1.369 1_556 S
C546 C548 1.419 . S
C546 H550 0.930 . S
C547 C546 1.369 1_554 S
C547 C556 1.429 . S
C548 C546 1.419 . S
C548 C549 1.363 . S
C548 H551 0.929 . S
C549 C548 1.363 . S
C549 C555 1.428 1_556 S
H550 C546 0.930 . S
H551 C548 0.929 . S
S552 N553 1.613 . S
S552 N554 1.610 . S
N553 S552 1.613 . S
N553 C556 1.350 . S
N554 S552 1.610 . S
N554 C555 1.351 . S
C555 C549 1.428 1_554 S
C555 N554 1.351 . S
C555 C556 1.434 . S
C556 C547 1.429 . S
C556 N553 1.350 . S
C556 C555 1.434 . S
C557 C558 1.369 1_554 S
C557 C559 1.420 . S
C557 H561 0.930 . S
C558 C557 1.369 1_556 S
C558 C567 1.429 . S
C559 C557 1.420 . S
C559 C560 1.357 1_554 S
C559 H562 0.934 . S
C560 C559 1.357 1_556 S
C560 C566 1.428 . S
H561 C557 0.930 . S
H562 C559 0.934 . S
S563 N564 1.613 . S
S563 N565 1.610 . S
N564 S563 1.613 . S
N564 C567 1.350 . S
N565 S563 1.610 . S
N565 C566 1.351 . S
C566 C560 1.428 . S
C566 N565 1.351 . S
C566 C567 1.434 . S
C567 C558 1.429 . S
C567 N564 1.350 . S
C567 C566 1.434 . S
C568 C569 1.369 . S
C568 C570 1.419 . S
C568 H572 0.930 . S
C569 C568 1.369 . S
C569 C578 1.429 . S
C570 C568 1.419 . S
C570 C571 1.363 . S
C570 H573 0.929 . S
C571 C570 1.363 . S
C571 C577 1.428 . S
H572 C568 0.930 . S
H573 C570 0.929 . S
S574 N575 1.613 . S
S574 N576 1.610 . S
N575 S574 1.613 . S
N575 C578 1.350 . S
N576 S574 1.610 . S
N576 C577 1.351 . S
C577 C571 1.428 . S
C577 N576 1.351 . S
C577 C578 1.434 . S
C578 C569 1.429 . S
C578 N575 1.350 . S
C578 C577 1.434 . S
C579 C580 1.369 . S
C579 C581 1.419 . S
C579 H583 0.930 . S
C580 C579 1.369 . S
C580 C589 1.429 . S
C581 C579 1.419 . S
C581 C582 1.363 . S
C581 H584 0.929 . S
C582 C581 1.363 . S
C582 C588 1.428 . S
H583 C579 0.930 . S
H584 C581 0.929 . S
S585 N586 1.613 . S
S585 N587 1.610 . S
N586 S585 1.613 . S
N586 C589 1.350 . S
N587 S585 1.610 . S
N587 C588 1.351 . S
C588 C582 1.428 . S
C588 N587 1.351 . S
C588 C589 1.434 . S
C589 C580 1.429 . S
C589 N586 1.350 . S
C589 C588 1.434 . S
C590 C591 1.369 . S
C590 C592 1.419 . S
C590 H594 0.930 . S
C591 C590 1.369 . S
C591 C600 1.429 . S
C592 C590 1.419 . S
C592 C593 1.363 . S
C592 H595 0.929 . S
C593 C592 1.363 . S
C593 C599 1.428 . S
H594 C590 0.930 . S
H595 C592 0.929 . S
S596 N597 1.613 . S
S596 N598 1.610 . S
N597 S596 1.613 . S
N597 C600 1.350 . S
N598 S596 1.610 . S
N598 C599 1.351 . S
C599 C593 1.428 . S
C599 N598 1.351 . S
C599 C600 1.434 . S
C600 C591 1.429 . S
C600 N597 1.350 . S
C600 C599 1.434 . S
C601 C602 1.369 . S
C601 C603 1.419 . S
C601 H605 0.930 . S
C602 C601 1.369 . S
C602 C611 1.429 . S
C603 C601 1.419 . S
C603 C604 1.363 . S
C603 H606 0.929 . S
C604 C603 1.363 . S
C604 C610 1.428 . S
H605 C601 0.930 . S
H606 C603 0.929 . S
S607 N608 1.613 . S
S607 N609 1.610 . S
N608 S607 1.613 . S
N608 C611 1.350 . S
N609 S607 1.610 . S
N609 C610 1.351 . S
C610 C604 1.428 . S
C610 N609 1.351 . S
C610 C611 1.434 . S
C611 C602 1.429 . S
C611 N608 1.350 . S
C611 C610 1.434 . S
C612 C613 1.369 . S
C612 C614 1.419 1_565 S
C612 H616 0.930 . S
C613 C612 1.369 . S
C613 C622 1.429 . S
C614 C612 1.419 1_545 S
C614 C615 1.363 . S
C614 H617 0.929 . S
C615 C614 1.363 . S
C615 C621 1.428 . S
H616 C612 0.930 . S
H617 C614 0.929 . S
S618 N619 1.613 . S
S618 N620 1.610 1_565 S
N619 S618 1.613 . S
N619 C622 1.350 . S
N620 S618 1.610 1_545 S
N620 C621 1.351 . S
C621 C615 1.428 . S
C621 N620 1.351 . S
C621 C622 1.434 1_545 S
C622 C613 1.429 . S
C622 N619 1.350 . S
C622 C621 1.434 1_565 S
C623 C624 1.369 . S
C623 C625 1.419 . S
C623 H627 0.930 . S
C624 C623 1.369 . S
C624 C633 1.429 . S
C625 C623 1.419 . S
C625 C626 1.363 . S
C625 H628 0.929 . S
C626 C625 1.363 . S
C626 C632 1.428 . S
H627 C623 0.930 . S
H628 C625 0.929 . S
S629 N630 1.613 . S
S629 N631 1.610 . S
N630 S629 1.613 . S
N630 C633 1.350 . S
N631 S629 1.610 . S
N631 C632 1.351 . S
C632 C626 1.428 . S
C632 N631 1.351 . S
C632 C633 1.434 . S
C633 C624 1.429 . S
C633 N630 1.350 . S
C633 C632 1.434 . S
C634 C635 1.369 . S
C634 C636 1.419 . S
C634 H638 0.930 . S
C635 C634 1.369 . S
C635 C644 1.429 . S
C636 C634 1.419 . S
C636 C637 1.363 . S
C636 H639 0.929 . S
C637 C636 1.363 . S
C637 C643 1.428 . S
H638 C634 0.930 . S
H639 C636 0.929 . S
S640 N641 1.613 . S
S640 N642 1.610 . S
N641 S640 1.613 . S
N641 C644 1.350 . S
N642 S640 1.610 . S
N642 C643 1.351 . S
C643 C637 1.428 . S
C643 N642 1.351 . S
C643 C644 1.434 . S
C644 C635 1.429 . S
C644 N641 1.350 . S
C644 C643 1.434 . S
C645 C646 1.369 . S
C645 C647 1.419 . S
C645 H649 0.930 . S
C646 C645 1.369 . S
C646 C655 1.429 . S
C647 C645 1.419 . S
C647 C648 1.363 . S
C647 H650 0.929 . S
C648 C647 1.363 . S
C648 C654 1.428 . S
H649 C645 0.930 . S
H650 C647 0.929 . S
S651 N652 1.613 . S
S651 N653 1.610 . S
N652 S651 1.613 . S
N652 C655 1.350 . S
N653 S651 1.610 . S
N653 C654 1.351 . S
C654 C648 1.428 . S
C654 N653 1.351 . S
C654 C655 1.434 . S
C655 C646 1.429 . S
C655 N652 1.350 . S
C655 C654 1.434 . S
C656 C657 1.369 . S
C656 C658 1.419 . S
C656 H660 0.930 1_554 S
C657 C656 1.369 . S
C657 C666 1.429 . S
C658 C656 1.419 . S
C658 C659 1.363 . S
C658 H661 0.929 . S
C659 C658 1.363 . S
C659 C665 1.428 . S
H660 C656 0.930 1_556 S
H661 C658 0.929 . S
S662 N663 1.613 . S
S662 N664 1.610 . S
N663 S662 1.613 . S
N663 C666 1.350 . S
N664 S662 1.610 . S
N664 C665 1.351 . S
C665 C659 1.428 . S
C665 N664 1.351 . S
C665 C666 1.434 . S
C666 C657 1.429 . S
C666 N663 1.350 . S
C666 C665 1.434 . S
C667 C668 1.369 . S
C667 C669 1.419 . S
C667 H671 0.930 . S
C668 C667 1.369 . S
C668 C677 1.429 . S
C669 C667 1.419 . S
C669 C670 1.363 . S
C669 H672 0.929 . S
C670 C669 1.363 . S
C670 C676 1.428 . S
H671 C667 0.930 . S
H672 C669 0.929 . S
S673 N674 1.613 . S
S673 N675 1.610 . S
N674 S673 1.613 . S
N674 C677 1.350 . S
N675 S673 1.610 . S
N675 C676 1.351 . S
C676 C670 1.428 . S
C676 N675 1.351 . S
C676 C677 1.434 . S
C677 C668 1.429 . S
C677 N674 1.350 . S
C677 C676 1.434 . S
C678 C679 1.369 . S
C678 C680 1.419 . S
C678 H682 0.930 . S
C679 C678 1.369 . S
C679 C688 1.429 . S
C680 C678 1.419 . S
C680 C681 1.363 . S
C680 H683 0.929 . S
C681 C680 1.363 . S
C681 C687 1.428 . S
H682 C678 0.930 . S
H683 C680 0.929 . S
S684 N685 1.613 1_556 S
S684 N686 1.610 1_556 S
N685 S684 1.613 1_554 S
N685 C688 1.350 . S
N686 S684 1.610 1_554 S
N686 C687 1.351 . S
C687 C681 1.428 . S
C687 N686 1.351 . S
C687 C688 1.434 . S
C688 C679 1.429 . S
C688 N685 1.350 . S
C688 C687 1.434 . S
C689 C690 1.369 . S
C689 C691 1.419 . S
C689 H693 0.930 . S
C690 C689 1.369 . S
C690 C699 1.429 . S
C691 C689 1.419 . S
C691 C692 1.363 . S
C691 H694 0.929 . S
C692 C691 1.363 . S
C692 C698 1.428 . S
H693 C689 0.930 . S
H694 C691 0.929 . S
S695 N696 1.613 . S
S695 N697 1.610 . S
N696 S695 1.613 . S
N696 C699 1.350 . S
N697 S695 1.610 . S
N697 C698 1.351 . S
C698 C692 1.428 . S
C698 N697 1.351 . S
C698 C699 1.434 . S
C699 C690 1.429 . S
C699 N696 1.350 . S
C699 C698 1.434 . S
C700 C701 1.369 . S
C700 C702 1.419 . S
C700 H704 0.930 . S
C701 C700 1.369 . S
C701 C710 1.429 . S
C702 C700 1.419 . S
C702 C703 1.363 . S
C702 H705 0.929 . S
C703 C702 1.363 . S
C703 C709 1.428 . S
H704 C700 0.930 . S
H705 C702 0.929 . S
S706 N707 1.613 . S
S706 N708 1.610 . S
N707 S706 1.613 . S
N707 C710 1.350 . S
N708 S706 1.610 . S
N708 C709 1.351 . S
C709 C703 1.428 . S
C709 N708 1.351 . S
C709 C710 1.434 . S
C710 C701 1.429 . S
C710 N707 1.350 . S
C710 C709 1.434 . S
C711 C712 1.369 . S
C711 C713 1.419 . S
C711 H715 0.930 . S
C712 C711 1.369 . S
C712 C721 1.429 . S
C713 C711 1.419 . S
C713 C714 1.363 . S
C713 H716 0.929 . S
C714 C713 1.363 . S
C714 C720 1.428 . S
H715 C711 0.930 . S
H716 C713 0.929 . S
S717 N718 1.613 . S
S717 N719 1.610 . S
N718 S717 1.613 . S
N718 C721 1.350 . S
N719 S717 1.610 . S
N719 C720 1.351 . S
C720 C714 1.428 . S
C720 N719 1.351 . S
C720 C721 1.434 . S
C721 C712 1.429 . S
C721 N718 1.350 . S
C721 C720 1.434 . S
C722 C723 1.369 . S
C722 C724 1.419 . S
C722 H726 0.930 . S
C723 C722 1.369 . S
C723 C732 1.429 . S
C724 C722 1.419 . S
C724 C725 1.363 . S
C724 H727 0.929 . S
C725 C724 1.363 . S
C725 C731 1.428 . S
H726 C722 0.930 . S
H727 C724 0.929 . S
S728 N729 1.613 . S
S728 N730 1.610 . S
N729 S728 1.613 . S
N729 C732 1.350 . S
N730 S728 1.610 . S
N730 C731 1.351 . S
C731 C725 1.428 . S
C731 N730 1.351 . S
C731 C732 1.434 . S
C732 C723 1.429 . S
C732 N729 1.350 . S
C732 C731 1.434 . S
C733 C734 1.369 . S
C733 C735 1.419 . S
C733 H737 0.930 . S
C734 C733 1.369 . S
C734 C743 1.429 . S
C735 C733 1.419 . S
C735 C736 1.363 . S
C735 H738 0.929 . S
C736 C735 1.363 . S
C736 C742 1.428 . S
H737 C733 0.930 . S
H738 C735 0.929 . S
S739 N740 1.613 . S
S739 N741 1.610 . S
N740 S739 1.613 . S
N740 C743 1.350 . S
N741 S739 1.610 . S
N741 C742 1.351 . S
C742 C736 1.428 . S
C742 N741 1.351 . S
C742 C743 1.434 . S
C743 C734 1.429 . S
C743 N740 1.350 . S
C743 C742 1.434 . S
C744 C745 1.369 . S
C744 C746 1.419 . S
C744 H748 0.930 . S
C745 C744 1.369 . S
C745 C754 1.429 . S
C746 C744 1.419 . S
C746 C747 1.363 . S
C746 H749 0.929 . S
C747 C746 1.363 . S
C747 C753 1.428 . S
H748 C744 0.930 . S
H749 C746 0.929 . S
S750 N751 1.613 1_554 S
S750 N752 1.610 . S
N751 S750 1.613 1_556 S
N751 C754 1.350 . S
N752 S750 1.610 . S
N752 C753 1.351 1_554 S
C753 C747 1.428 . S
C753 N752 1.351 1_556 S
C753 C754 1.434 . S
C754 C745 1.429 . S
C754 N751 1.350 . S
C754 C753 1.434 . S
C755 C756 1.369 . S
C755 C757 1.419 . S
C755 H759 0.930 . S
C756 C755 1.369 . S
C756 C765 1.429 . S
C757 C755 1.419 . S
C757 C758 1.363 . S
C757 H760 0.929 . S
C758 C757 1.363 . S
C758 C764 1.428 . S
H759 C755 0.930 . S
H760 C757 0.929 . S
S761 N762 1.613 1_554 S
S761 N763 1.610 . S
N762 S761 1.613 1_556 S
N762 C765 1.350 1_556 S
N763 S761 1.610 . S
N763 C764 1.351 . S
C764 C758 1.428 . S
C764 N763 1.351 . S
C764 C765 1.434 . S
C765 C756 1.429 . S
C765 N762 1.350 1_554 S
C765 C764 1.434 . S
C766 C767 1.369 . S
C766 C768 1.419 . S
C766 H770 0.930 . S
C767 C766 1.369 . S
C767 C776 1.429 . S
C768 C766 1.419 . S
C768 C769 1.363 . S
C768 H771 0.929 . S
C769 C768 1.363 . S
C769 C775 1.428 . S
H770 C766 0.930 . S
H771 C768 0.929 . S
S772 N773 1.613 . S
S772 N774 1.610 1_554 S
N773 S772 1.613 . S
N773 C776 1.350 1_554 S
N774 S772 1.610 1_556 S
N774 C775 1.351 . S
C775 C769 1.428 . S
C775 N774 1.351 . S
C775 C776 1.434 . S
C776 C767 1.429 . S
C776 N773 1.350 1_556 S
C776 C775 1.434 . S
C777 C778 1.369 . S
C777 C779 1.419 . S
C777 H781 0.930 1_554 S
C778 C777 1.369 . S
C778 C787 1.429 . S
C779 C777 1.419 . S
C779 C780 1.363 . S
C779 H782 0.929 . S
C780 C779 1.363 . S
C780 C786 1.428 . S
H781 C777 0.930 1_556 S
H782 C779 0.929 . S
S783 N784 1.613 . S
S783 N785 1.610 . S
N784 S783 1.613 . S
N784 C787 1.350 . S
N785 S783 1.610 . S
N785 C786 1.351 . S
C786 C780 1.428 . S
C786 N785 1.351 . S
C786 C787 1.434 . S
C787 C778 1.429 . S
C787 N784 1.350 . S
C787 C786 1.434 . S
C788 C789 1.369 . S
C788 C790 1.419 . S
C788 H792 0.930 . S
C789 C788 1.369 . S
C789 C798 1.429 . S
C790 C788 1.419 . S
C790 C791 1.363 . S
C790 H793 0.929 . S
C791 C790 1.363 . S
C791 C797 1.428 . S
H792 C788 0.930 . S
H793 C790 0.929 . S
S794 N795 1.613 . S
S794 N796 1.610 . S
N795 S794 1.613 . S
N795 C798 1.350 . S
N796 S794 1.610 . S
N796 C797 1.351 . S
C797 C791 1.428 . S
C797 N796 1.351 . S
C797 C798 1.434 . S
C798 C789 1.429 . S
C798 N795 1.350 . S
C798 C797 1.434 . S
C799 C800 1.369 . S
C799 C801 1.419 . S
C799 H803 0.930 . S
C800 C799 1.369 . S
C800 C809 1.429 . S
C801 C799 1.419 . S
C801 C802 1.363 . S
C801 H804 0.929 . S
C802 C801 1.363 . S
C802 C808 1.428 . S
H803 C799 0.930 . S
H804 C801 0.929 . S
S805 N806 1.613 . S
S805 N807 1.610 . S
N806 S805 1.613 . S
N806 C809 1.350 . S
N807 S805 1.610 . S
N807 C808 1.351 . S
C808 C802 1.428 . S
C808 N807 1.351 . S
C808 C809 1.434 . S
C809 C800 1.429 . S
C809 N806 1.350 . S
C809 C808 1.434 . S
C810 C811 1.369 . S
C810 C812 1.419 . S
C810 H814 0.930 . S
C811 C810 1.369 . S
C811 C820 1.429 . S
C812 C810 1.419 . S
C812 C813 1.363 . S
C812 H815 0.929 . S
C813 C812 1.363 . S
C813 C819 1.428 . S
H814 C810 0.930 . S
H815 C812 0.929 . S
S816 N817 1.613 . S
S816 N818 1.610 . S
N817 S816 1.613 . S
N817 C820 1.350 . S
N818 S816 1.610 . S
N818 C819 1.351 . S
C819 C813 1.428 . S
C819 N818 1.351 . S
C819 C820 1.434 . S
C820 C811 1.429 . S
C820 N817 1.350 . S
C820 C819 1.434 . S
C821 C822 1.369 . S
C821 C823 1.419 . S
C821 H825 0.930 . S
C822 C821 1.369 . S
C822 C831 1.429 . S
C823 C821 1.419 . S
C823 C824 1.363 . S
C823 H826 0.929 . S
C824 C823 1.363 . S
C824 C830 1.428 . S
H825 C821 0.930 . S
H826 C823 0.929 . S
S827 N828 1.613 . S
S827 N829 1.610 . S
N828 S827 1.613 . S
N828 C831 1.350 . S
N829 S827 1.610 . S
N829 C830 1.351 . S
C830 C824 1.428 . S
C830 N829 1.351 . S
C830 C831 1.434 . S
C831 C822 1.429 . S
C831 N828 1.350 . S
C831 C830 1.434 . S
C832 C833 1.369 . S
C832 C834 1.419 . S
C832 H836 0.930 . S
C833 C832 1.369 . S
C833 C842 1.429 . S
C834 C832 1.419 . S
C834 C835 1.363 . S
C834 H837 0.929 . S
C835 C834 1.363 . S
C835 C841 1.428 . S
H836 C832 0.930 . S
H837 C834 0.929 . S
S838 N839 1.613 . S
S838 N840 1.610 . S
N839 S838 1.613 . S
N839 C842 1.350 . S
N840 S838 1.610 . S
N840 C841 1.351 . S
C841 C835 1.428 . S
C841 N840 1.351 . S
C841 C842 1.434 . S
C842 C833 1.429 . S
C842 N839 1.350 . S
C842 C841 1.434 . S
C843 C844 1.369 . S
C843 C845 1.419 . S
C843 H847 0.930 . S
C844 C843 1.369 . S
C844 C853 1.429 . S
C845 C843 1.419 . S
C845 C846 1.363 . S
C845 H848 0.929 . S
C846 C845 1.363 . S
C846 C852 1.428 . S
H847 C843 0.930 . S
H848 C845 0.929 . S
S849 N850 1.613 . S
S849 N851 1.610 . S
N850 S849 1.613 . S
N850 C853 1.350 . S
N851 S849 1.610 . S
N851 C852 1.351 . S
C852 C846 1.428 . S
C852 N851 1.351 . S
C852 C853 1.434 . S
C853 C844 1.429 . S
C853 N850 1.350 . S
C853 C852 1.434 . S
C854 C855 1.369 . S
C854 C856 1.419 . S
C854 H858 0.930 . S
C855 C854 1.369 . S
C855 C864 1.429 . S
C856 C854 1.419 . S
C856 C857 1.363 . S
C856 H859 0.929 . S
C857 C856 1.363 . S
C857 C863 1.428 . S
H858 C854 0.930 . S
H859 C856 0.929 . S
S860 N861 1.613 . S
S860 N862 1.610 . S
N861 S860 1.613 . S
N861 C864 1.350 . S
N862 S860 1.610 . S
N862 C863 1.351 . S
C863 C857 1.428 . S
C863 N862 1.351 . S
C863 C864 1.434 . S
C864 C855 1.429 . S
C864 N861 1.350 . S
C864 C863 1.434 . S
C865 C866 1.369 . S
C865 C867 1.419 . S
C865 H869 0.930 . S
C866 C865 1.369 . S
C866 C875 1.429 . S
C867 C865 1.419 . S
C867 C868 1.363 . S
C867 H870 0.929 . S
C868 C867 1.363 . S
C868 C874 1.428 . S
H869 C865 0.930 . S
H870 C867 0.929 . S
S871 N872 1.613 . S
S871 N873 1.610 . S
N872 S871 1.613 . S
N872 C875 1.350 . S
N873 S871 1.610 . S
N873 C874 1.351 . S
C874 C868 1.428 . S
C874 N873 1.351 . S
C874 C875 1.434 . S
C875 C866 1.429 . S
C875 N872 1.350 . S
C875 C874 1.434 . S
C876 C877 1.369 . S
C876 C878 1.419 . S
C876 H880 0.930 . S
C877 C876 1.369 . S
C877 C886 1.429 . S
C878 C876 1.419 . S
C878 C879 1.363 . S
C878 H881 0.929 . S
C879 C878 1.363 . S
C879 C885 1.428 . S
H880 C876 0.930 . S
H881 C878 0.929 . S
S882 N883 1.613 . S
S882 N884 1.610 . S
N883 S882 1.613 . S
N883 C886 1.350 . S
N884 S882 1.610 . S
N884 C885 1.351 . S
C885 C879 1.428 . S
C885 N884 1.351 . S
C885 C886 1.434 . S
C886 C877 1.429 . S
C886 N883 1.350 . S
C886 C885 1.434 . S
C887 C888 1.369 . S
C887 C889 1.419 . S
C887 H891 0.930 . S
C888 C887 1.369 . S
C888 C897 1.429 . S
C889 C887 1.419 . S
C889 C890 1.363 . S
C889 H892 0.929 . S
C890 C889 1.363 . S
C890 C896 1.428 . S
H891 C887 0.930 . S
H892 C889 0.929 . S
S893 N894 1.613 . S
S893 N895 1.610 . S
N894 S893 1.613 . S
N894 C897 1.350 . S
N895 S893 1.610 . S
N895 C896 1.351 . S
C896 C890 1.428 . S
C896 N895 1.351 . S
C896 C897 1.434 . S
C897 C888 1.429 . S
C897 N894 1.350 . S
C897 C896 1.434 . S
C898 C899 1.369 . S
C898 C900 1.419 . S
C898 H902 0.930 . S
C899 C898 1.369 . S
C899 C908 1.429 . S
C900 C898 1.419 . S
C900 C901 1.363 . S
C900 H903 0.929 . S
C901 C900 1.363 . S
C901 C907 1.428 . S
H902 C898 0.930 . S
H903 C900 0.929 . S
S904 N905 1.613 . S
S904 N906 1.610 . S
N905 S904 1.613 . S
N905 C908 1.350 . S
N906 S904 1.610 . S
N906 C907 1.351 . S
C907 C901 1.428 . S
C907 N906 1.351 . S
C907 C908 1.434 . S
C908 C899 1.429 . S
C908 N905 1.350 . S
C908 C907 1.434 . S
C909 C910 1.369 . S
C909 C911 1.419 . S
C909 H913 0.930 . S
C910 C909 1.369 . S
C910 C919 1.429 . S
C911 C909 1.419 . S
C911 C912 1.363 . S
C911 H914 0.929 . S
C912 C911 1.363 . S
C912 C918 1.428 . S
H913 C909 0.930 . S
H914 C911 0.929 . S
S915 N916 1.613 . S
S915 N917 1.610 . S
N916 S915 1.613 . S
N916 C919 1.350 . S
N917 S915 1.610 . S
N917 C918 1.351 . S
C918 C912 1.428 . S
C918 N917 1.351 . S
C918 C919 1.434 . S
C919 C910 1.429 . S
C919 N916 1.350 . S
C919 C918 1.434 . S
C920 C921 1.369 . S
C920 C922 1.419 . S
C920 H924 0.930 . S
C921 C920 1.369 . S
C921 C930 1.429 . S
C922 C920 1.419 . S
C922 C923 1.363 . S
C922 H925 0.929 . S
C923 C922 1.363 . S
C923 C929 1.428 . S
H924 C920 0.930 . S
H925 C922 0.929 . S
S926 N927 1.613 . S
S926 N928 1.610 . S
N927 S926 1.613 . S
N927 C930 1.350 . S
N928 S926 1.610 . S
N928 C929 1.351 . S
C929 C923 1.428 . S
C929 N928 1.351 . S
C929 C930 1.434 . S
C930 C921 1.429 . S
C930 N927 1.350 . S
C930 C929 1.434 . S
C931 C932 1.369 . S
C931 C933 1.419 . S
C931 H935 0.930 . S
C932 C931 1.369 . S
C932 C941 1.429 . S
C933 C931 1.419 . S
C933 C934 1.363 . S
C933 H936 0.929 . S
C934 C933 1.363 . S
C934 C940 1.428 . S
H935 C931 0.930 . S
H936 C933 0.929 . S
S937 N938 1.613 . S
S937 N939 1.610 . S
N938 S937 1.613 . S
N938 C941 1.350 . S
N939 S937 1.610 . S
N939 C940 1.351 . S
C940 C934 1.428 . S
C940 N939 1.351 . S
C940 C941 1.434 . S
C941 C932 1.429 . S
C941 N938 1.350 . S
C941 C940 1.434 . S
C942 C943 1.369 . S
C942 C944 1.419 . S
C942 H946 0.930 . S
C943 C942 1.369 . S
C943 C952 1.429 . S
C944 C942 1.419 . S
C944 C945 1.363 . S
C944 H947 0.929 . S
C945 C944 1.363 . S
C945 C951 1.428 . S
H946 C942 0.930 . S
H947 C944 0.929 . S
S948 N949 1.613 . S
S948 N950 1.610 . S
N949 S948 1.613 . S
N949 C952 1.350 . S
N950 S948 1.610 . S
N950 C951 1.351 . S
C951 C945 1.428 . S
C951 N950 1.351 . S
C951 C952 1.434 . S
C952 C943 1.429 . S
C952 N949 1.350 . S
C952 C951 1.434 . S
C953 C954 1.369 . S
C953 C955 1.419 . S
C953 H957 0.930 . S
C954 C953 1.369 . S
C954 C963 1.429 . S
C955 C953 1.419 . S
C955 C956 1.363 . S
C955 H958 0.929 . S
C956 C955 1.363 . S
C956 C962 1.428 . S
H957 C953 0.930 . S
H958 C955 0.929 . S
S959 N960 1.613 . S
S959 N961 1.610 . S
N960 S959 1.613 . S
N960 C963 1.350 . S
N961 S959 1.610 . S
N961 C962 1.351 . S
C962 C956 1.428 . S
C962 N961 1.351 . S
C962 C963 1.434 . S
C963 C954 1.429 . S
C963 N960 1.350 . S
C963 C962 1.434 . S
C964 C965 1.369 . S
C964 C966 1.419 . S
C964 H968 0.930 . S
C965 C964 1.369 . S
C965 C974 1.429 . S
C966 C964 1.419 . S
C966 C967 1.363 1_554 S
C966 H969 0.929 1_554 S
C967 C966 1.363 1_556 S
C967 C973 1.428 1_556 S
H968 C964 0.930 . S
H969 C966 0.929 1_556 S
S970 N971 1.613 . S
S970 N972 1.610 . S
N971 S970 1.613 . S
N971 C974 1.350 . S
N972 S970 1.610 . S
N972 C973 1.351 . S
C973 C967 1.428 1_554 S
C973 N972 1.351 . S
C973 C974 1.434 . S
C974 C965 1.429 . S
C974 N971 1.350 . S
C974 C973 1.434 . S
C975 C976 1.369 . S
C975 C977 1.419 . S
C975 H979 0.930 . S
C976 C975 1.369 . S
C976 C985 1.429 . S
C977 C975 1.419 . S
C977 C978 1.363 . S
C977 H980 0.929 . S
C978 C977 1.363 . S
C978 C984 1.428 . S
H979 C975 0.930 . S
H980 C977 0.929 . S
S981 N982 1.613 . S
S981 N983 1.610 . S
N982 S981 1.613 . S
N982 C985 1.350 . S
N983 S981 1.610 . S
N983 C984 1.351 . S
C984 C978 1.428 . S
C984 N983 1.351 . S
C984 C985 1.434 . S
C985 C976 1.429 . S
C985 N982 1.350 . S
C985 C984 1.434 . S
C986 C987 1.369 1_554 S
C986 C988 1.419 . S
C986 H990 0.930 . S
C987 C986 1.369 1_556 S
C987 C996 1.429 1_556 S
C988 C986 1.419 . S
C988 C989 1.363 . S
C988 H991 0.929 . S
C989 C988 1.363 . S
C989 C995 1.428 . S
H990 C986 0.930 . S
H991 C988 0.929 . S
S992 N993 1.613 1_554 S
S992 N994 1.610 . S
N993 S992 1.613 1_556 S
N993 C996 1.350 1_556 S
N994 S992 1.610 . S
N994 C995 1.351 . S
C995 C989 1.428 . S
C995 N994 1.351 . S
C995 C996 1.434 . S
C996 C987 1.429 1_554 S
C996 N993 1.350 1_554 S
C996 C995 1.434 . S
C997 C998 1.369 . S
C997 C999 1.419 . S
C997 H1001 0.930 . S
C998 C997 1.369 . S
C998 C1007 1.429 . S
C999 C997 1.419 . S
C999 C1000 1.363 . S
C999 H1002 0.929 . S
C1000 C999 1.363 . S
C1000 C1006 1.428 . S
H1001 C997 0.930 . S
H1002 C999 0.929 . S
S1003 N1004 1.613 . S
S1003 N1005 1.610 1_556 S
N1004 S1003 1.613 . S
N1004 C1007 1.350 . S
N1005 S1003 1.610 1_554 S
N1005 C1006 1.351 1_554 S
C1006 C1000 1.428 . S
C1006 N1005 1.351 1_556 S
C1006 C1007 1.434 . S
C1007 C998 1.429 . S
C1007 N1004 1.350 . S
C1007 C1006 1.434 . S
C481 C357 2.197 . S
C483 C1 2.202 . S
C492 N254 1.481 1_455 S
C494 C40 1.511 . S
C503 C61 1.125 . S
C505 N276 1.144 . S
C514 C91 1.537 . S
C516 N314 1.554 1_655 S
C525 C121 2.202 . S
C527 C177 2.198 . S
C536 N194 1.554 1_556 S
C538 C151 1.537 . S
C547 C181 1.125 . S
C549 N216 1.144 . S
C558 N134 1.483 1_556 S
C560 C220 1.512 . S
C569 C117 2.198 . S
C571 C241 2.202 . S
C580 C280 1.513 . S
C582 N14 1.481 . S
C591 N36 1.144 . S
C593 C301 1.123 . S
C602 N74 1.557 . S
C604 C331 1.539 . S
C613 C361 2.201 . S
C615 C417 2.198 . S
C624 N434 1.554 1_655 S
C626 C391 1.540 . S
C635 N456 1.144 . S
C637 C421 1.118 . S
C646 C460 1.511 . S
C648 N374 1.483 1_455 S
C657 C10 1.995 . S
C659 C130 1.997 . S
C668 C160 1.849 . S
C670 C31 1.821 . S
C679 C70 0.839 . S
C681 C190 0.836 . S
C690 C100 1.850 . S
C692 C211 1.819 . S
C701 C250 1.997 . S
C703 C370 1.994 . S
C712 C400 1.851 . S
C714 C271 1.818 . S
C723 C310 0.842 . S
C725 C430 0.839 . S
C734 C340 1.848 . S
C736 C451 1.822 . S
C745 N426 1.585 . S
C747 N6 1.641 1_556 S
C756 N44 1.460 1_554 S
C758 N464 1.454 . S
C767 N66 1.590 1_556 S
C769 N366 1.638 . S
C778 C106 2.437 1_554 S
C780 C406 2.439 . S
C789 N126 1.640 . S
C791 N306 1.584 . S
C800 C166 2.437 . S
C802 C346 2.439 . S
C811 N186 1.591 . S
C813 N246 1.642 . S
C822 N284 1.454 . S
C824 N224 1.462 . S
C833 C27 1.976 . S
C835 C16 1.975 . S
C844 C46 2.000 . S
C846 C57 2.003 . S
C855 C87 1.996 . S
C857 C76 2.000 . S
C866 N96 1.364 . S
C868 N104 1.380 . S
C877 C136 1.975 . S
C879 C147 1.976 . S
C888 N164 1.368 . S
C890 N156 1.376 . S
C899 C207 1.996 . S
C901 C196 2.000 . S
C910 C237 2.000 . S
C912 C226 2.003 . S
C921 C267 1.975 1_554 S
C923 C256 1.975 . S
C932 C297 2.000 . S
C934 C286 2.003 1_556 S
C943 C316 1.999 . S
C945 C327 1.998 1_554 S
C954 N344 1.375 . S
C956 N336 1.372 . S
C965 C387 1.975 . S
C967 C376 1.975 . S
C976 N396 1.379 . S
C978 N404 1.368 . S
C987 C436 1.996 . S
C989 C447 2.000 . S
C998 C466 2.003 . S
C1000 C477 2.000 1_556 S
