# Generated by pormake.
# Topology flu-e, (6)-cn, num edge types: 1
# Building blocks:
#     Node 0, Type 0, BuildingBlock: MAKGUD_clean_sbu_1, # of connection points: 6
#     Node 1, Type 0, BuildingBlock: MAKGUD_clean_sbu_1, # of connection points: 6
#     Node 2, Type 0, BuildingBlock: MAKGUD_clean_sbu_1, # of connection points: 6
#     Node 3, Type 0, BuildingBlock: MAKGUD_clean_sbu_1, # of connection points: 6
#     Node 4, Type 0, BuildingBlock: MAKGUD_clean_sbu_1, # of connection points: 6
#     Node 5, Type 0, BuildingBlock: MAKGUD_clean_sbu_1, # of connection points: 6
#     Node 6, Type 0, BuildingBlock: MAKGUD_clean_sbu_1, # of connection points: 6
#     Node 7, Type 0, BuildingBlock: MAKGUD_clean_sbu_1, # of connection points: 6
#     Node 8, Type 0, BuildingBlock: MAKGUD_clean_sbu_1, # of connection points: 6
#     Node 9, Type 0, BuildingBlock: MAKGUD_clean_sbu_1, # of connection points: 6
#     Node 10, Type 0, BuildingBlock: MAKGUD_clean_sbu_1, # of connection points: 6
#     Node 11, Type 0, BuildingBlock: MAKGUD_clean_sbu_1, # of connection points: 6
#     Node 12, Type 0, BuildingBlock: MAKGUD_clean_sbu_1, # of connection points: 6
#     Node 13, Type 0, BuildingBlock: MAKGUD_clean_sbu_1, # of connection points: 6
#     Node 14, Type 0, BuildingBlock: MAKGUD_clean_sbu_1, # of connection points: 6
#     Node 15, Type 0, BuildingBlock: MAKGUD_clean_sbu_1, # of connection points: 6
#     Node 16, Type 0, BuildingBlock: MAKGUD_clean_sbu_1, # of connection points: 6
#     Node 17, Type 0, BuildingBlock: MAKGUD_clean_sbu_1, # of connection points: 6
#     Node 18, Type 0, BuildingBlock: MAKGUD_clean_sbu_1, # of connection points: 6
#     Node 19, Type 0, BuildingBlock: MAKGUD_clean_sbu_1, # of connection points: 6
#     Node 20, Type 0, BuildingBlock: MAKGUD_clean_sbu_1, # of connection points: 6
#     Node 21, Type 0, BuildingBlock: MAKGUD_clean_sbu_1, # of connection points: 6
#     Node 22, Type 0, BuildingBlock: MAKGUD_clean_sbu_1, # of connection points: 6
#     Node 23, Type 0, BuildingBlock: MAKGUD_clean_sbu_1, # of connection points: 6
#     Node 24, Type 0, BuildingBlock: MAKGUD_clean_sbu_1, # of connection points: 6
#     Node 25, Type 0, BuildingBlock: MAKGUD_clean_sbu_1, # of connection points: 6
#     Node 26, Type 0, BuildingBlock: MAKGUD_clean_sbu_1, # of connection points: 6
#     Node 27, Type 0, BuildingBlock: MAKGUD_clean_sbu_1, # of connection points: 6
#     Node 28, Type 0, BuildingBlock: MAKGUD_clean_sbu_1, # of connection points: 6
#     Node 29, Type 0, BuildingBlock: MAKGUD_clean_sbu_1, # of connection points: 6
#     Node 30, Type 0, BuildingBlock: MAKGUD_clean_sbu_1, # of connection points: 6
#     Node 31, Type 0, BuildingBlock: MAKGUD_clean_sbu_1, # of connection points: 6
#     Edge 32, Type (0, 0), BuildingBlock: OJICUG_clean_linker_0, # of connection points: 2
#     Edge 33, Type (0, 0), BuildingBlock: OJICUG_clean_linker_0, # of connection points: 2
#     Edge 34, Type (0, 0), BuildingBlock: OJICUG_clean_linker_0, # of connection points: 2
#     Edge 35, Type (0, 0), BuildingBlock: OJICUG_clean_linker_0, # of connection points: 2
#     Edge 36, Type (0, 0), BuildingBlock: OJICUG_clean_linker_0, # of connection points: 2
#     Edge 37, Type (0, 0), BuildingBlock: OJICUG_clean_linker_0, # of connection points: 2
#     Edge 38, Type (0, 0), BuildingBlock: OJICUG_clean_linker_0, # of connection points: 2
#     Edge 39, Type (0, 0), BuildingBlock: OJICUG_clean_linker_0, # of connection points: 2
#     Edge 40, Type (0, 0), BuildingBlock: OJICUG_clean_linker_0, # of connection points: 2
#     Edge 41, Type (0, 0), BuildingBlock: OJICUG_clean_linker_0, # of connection points: 2
#     Edge 42, Type (0, 0), BuildingBlock: OJICUG_clean_linker_0, # of connection points: 2
#     Edge 43, Type (0, 0), BuildingBlock: OJICUG_clean_linker_0, # of connection points: 2
#     Edge 44, Type (0, 0), BuildingBlock: OJICUG_clean_linker_0, # of connection points: 2
#     Edge 45, Type (0, 0), BuildingBlock: OJICUG_clean_linker_0, # of connection points: 2
#     Edge 46, Type (0, 0), BuildingBlock: OJICUG_clean_linker_0, # of connection points: 2
#     Edge 47, Type (0, 0), BuildingBlock: OJICUG_clean_linker_0, # of connection points: 2
#     Edge 48, Type (0, 0), BuildingBlock: OJICUG_clean_linker_0, # of connection points: 2
#     Edge 49, Type (0, 0), BuildingBlock: OJICUG_clean_linker_0, # of connection points: 2
#     Edge 50, Type (0, 0), BuildingBlock: OJICUG_clean_linker_0, # of connection points: 2
#     Edge 51, Type (0, 0), BuildingBlock: OJICUG_clean_linker_0, # of connection points: 2
#     Edge 52, Type (0, 0), BuildingBlock: OJICUG_clean_linker_0, # of connection points: 2
#     Edge 53, Type (0, 0), BuildingBlock: OJICUG_clean_linker_0, # of connection points: 2
#     Edge 54, Type (0, 0), BuildingBlock: OJICUG_clean_linker_0, # of connection points: 2
#     Edge 55, Type (0, 0), BuildingBlock: OJICUG_clean_linker_0, # of connection points: 2
#     Edge 56, Type (0, 0), BuildingBlock: OJICUG_clean_linker_0, # of connection points: 2
#     Edge 57, Type (0, 0), BuildingBlock: OJICUG_clean_linker_0, # of connection points: 2
#     Edge 58, Type (0, 0), BuildingBlock: OJICUG_clean_linker_0, # of connection points: 2
#     Edge 59, Type (0, 0), BuildingBlock: OJICUG_clean_linker_0, # of connection points: 2
#     Edge 60, Type (0, 0), BuildingBlock: OJICUG_clean_linker_0, # of connection points: 2
#     Edge 61, Type (0, 0), BuildingBlock: OJICUG_clean_linker_0, # of connection points: 2
#     Edge 62, Type (0, 0), BuildingBlock: OJICUG_clean_linker_0, # of connection points: 2
#     Edge 63, Type (0, 0), BuildingBlock: OJICUG_clean_linker_0, # of connection points: 2
#     Edge 64, Type (0, 0), BuildingBlock: OJICUG_clean_linker_0, # of connection points: 2
#     Edge 65, Type (0, 0), BuildingBlock: OJICUG_clean_linker_0, # of connection points: 2
#     Edge 66, Type (0, 0), BuildingBlock: OJICUG_clean_linker_0, # of connection points: 2
#     Edge 67, Type (0, 0), BuildingBlock: OJICUG_clean_linker_0, # of connection points: 2
#     Edge 68, Type (0, 0), BuildingBlock: OJICUG_clean_linker_0, # of connection points: 2
#     Edge 69, Type (0, 0), BuildingBlock: OJICUG_clean_linker_0, # of connection points: 2
#     Edge 70, Type (0, 0), BuildingBlock: OJICUG_clean_linker_0, # of connection points: 2
#     Edge 71, Type (0, 0), BuildingBlock: OJICUG_clean_linker_0, # of connection points: 2
#     Edge 72, Type (0, 0), BuildingBlock: OJICUG_clean_linker_0, # of connection points: 2
#     Edge 73, Type (0, 0), BuildingBlock: OJICUG_clean_linker_0, # of connection points: 2
#     Edge 74, Type (0, 0), BuildingBlock: OJICUG_clean_linker_0, # of connection points: 2
#     Edge 75, Type (0, 0), BuildingBlock: OJICUG_clean_linker_0, # of connection points: 2
#     Edge 76, Type (0, 0), BuildingBlock: OJICUG_clean_linker_0, # of connection points: 2
#     Edge 77, Type (0, 0), BuildingBlock: OJICUG_clean_linker_0, # of connection points: 2
#     Edge 78, Type (0, 0), BuildingBlock: OJICUG_clean_linker_0, # of connection points: 2
#     Edge 79, Type (0, 0), BuildingBlock: OJICUG_clean_linker_0, # of connection points: 2
#     Edge 80, Type (0, 0), BuildingBlock: OJICUG_clean_linker_0, # of connection points: 2
#     Edge 81, Type (0, 0), BuildingBlock: OJICUG_clean_linker_0, # of connection points: 2
#     Edge 82, Type (0, 0), BuildingBlock: OJICUG_clean_linker_0, # of connection points: 2
#     Edge 83, Type (0, 0), BuildingBlock: OJICUG_clean_linker_0, # of connection points: 2
#     Edge 84, Type (0, 0), BuildingBlock: OJICUG_clean_linker_0, # of connection points: 2
#     Edge 85, Type (0, 0), BuildingBlock: OJICUG_clean_linker_0, # of connection points: 2
#     Edge 86, Type (0, 0), BuildingBlock: OJICUG_clean_linker_0, # of connection points: 2
#     Edge 87, Type (0, 0), BuildingBlock: OJICUG_clean_linker_0, # of connection points: 2
#     Edge 88, Type (0, 0), BuildingBlock: OJICUG_clean_linker_0, # of connection points: 2
#     Edge 89, Type (0, 0), BuildingBlock: OJICUG_clean_linker_0, # of connection points: 2
#     Edge 90, Type (0, 0), BuildingBlock: OJICUG_clean_linker_0, # of connection points: 2
#     Edge 91, Type (0, 0), BuildingBlock: OJICUG_clean_linker_0, # of connection points: 2
#     Edge 92, Type (0, 0), BuildingBlock: OJICUG_clean_linker_0, # of connection points: 2
#     Edge 93, Type (0, 0), BuildingBlock: OJICUG_clean_linker_0, # of connection points: 2
#     Edge 94, Type (0, 0), BuildingBlock: OJICUG_clean_linker_0, # of connection points: 2
#     Edge 95, Type (0, 0), BuildingBlock: OJICUG_clean_linker_0, # of connection points: 2
#     Edge 96, Type (0, 0), BuildingBlock: OJICUG_clean_linker_0, # of connection points: 2
#     Edge 97, Type (0, 0), BuildingBlock: OJICUG_clean_linker_0, # of connection points: 2
#     Edge 98, Type (0, 0), BuildingBlock: OJICUG_clean_linker_0, # of connection points: 2
#     Edge 99, Type (0, 0), BuildingBlock: OJICUG_clean_linker_0, # of connection points: 2
#     Edge 100, Type (0, 0), BuildingBlock: OJICUG_clean_linker_0, # of connection points: 2
#     Edge 101, Type (0, 0), BuildingBlock: OJICUG_clean_linker_0, # of connection points: 2
#     Edge 102, Type (0, 0), BuildingBlock: OJICUG_clean_linker_0, # of connection points: 2
#     Edge 103, Type (0, 0), BuildingBlock: OJICUG_clean_linker_0, # of connection points: 2
#     Edge 104, Type (0, 0), BuildingBlock: OJICUG_clean_linker_0, # of connection points: 2
#     Edge 105, Type (0, 0), BuildingBlock: OJICUG_clean_linker_0, # of connection points: 2
#     Edge 106, Type (0, 0), BuildingBlock: OJICUG_clean_linker_0, # of connection points: 2
#     Edge 107, Type (0, 0), BuildingBlock: OJICUG_clean_linker_0, # of connection points: 2
#     Edge 108, Type (0, 0), BuildingBlock: OJICUG_clean_linker_0, # of connection points: 2
#     Edge 109, Type (0, 0), BuildingBlock: OJICUG_clean_linker_0, # of connection points: 2
#     Edge 110, Type (0, 0), BuildingBlock: OJICUG_clean_linker_0, # of connection points: 2
#     Edge 111, Type (0, 0), BuildingBlock: OJICUG_clean_linker_0, # of connection points: 2
#     Edge 112, Type (0, 0), BuildingBlock: OJICUG_clean_linker_0, # of connection points: 2
#     Edge 113, Type (0, 0), BuildingBlock: OJICUG_clean_linker_0, # of connection points: 2
#     Edge 114, Type (0, 0), BuildingBlock: OJICUG_clean_linker_0, # of connection points: 2
#     Edge 115, Type (0, 0), BuildingBlock: OJICUG_clean_linker_0, # of connection points: 2
#     Edge 116, Type (0, 0), BuildingBlock: OJICUG_clean_linker_0, # of connection points: 2
#     Edge 117, Type (0, 0), BuildingBlock: OJICUG_clean_linker_0, # of connection points: 2
#     Edge 118, Type (0, 0), BuildingBlock: OJICUG_clean_linker_0, # of connection points: 2
#     Edge 119, Type (0, 0), BuildingBlock: OJICUG_clean_linker_0, # of connection points: 2
#     Edge 120, Type (0, 0), BuildingBlock: OJICUG_clean_linker_0, # of connection points: 2
#     Edge 121, Type (0, 0), BuildingBlock: OJICUG_clean_linker_0, # of connection points: 2
#     Edge 122, Type (0, 0), BuildingBlock: OJICUG_clean_linker_0, # of connection points: 2
#     Edge 123, Type (0, 0), BuildingBlock: OJICUG_clean_linker_0, # of connection points: 2
#     Edge 124, Type (0, 0), BuildingBlock: OJICUG_clean_linker_0, # of connection points: 2
#     Edge 125, Type (0, 0), BuildingBlock: OJICUG_clean_linker_0, # of connection points: 2
#     Edge 126, Type (0, 0), BuildingBlock: OJICUG_clean_linker_0, # of connection points: 2
#     Edge 127, Type (0, 0), BuildingBlock: OJICUG_clean_linker_0, # of connection points: 2
# Relax obj value: 0.255
# Max RMSD: 0.307
# Mean RMSD: 0.281
data_MOF--net-flu-e--node1-MAKGUD_clean_sbu_1--edge1-OJICUG_clean_linker_0
_symmetry_space_group_name_H-M    P1
_symmetry_Int_Tables_number       1
_symmetry_cell_setting            triclinic
loop_
_symmetry_equiv_pos_as_xyz
'x, y, z'
_cell_length_a     42.142838
_cell_length_b     39.618598
_cell_length_c     44.193059
_cell_angle_alpha  93.020317
_cell_angle_beta   85.228561
_cell_angle_gamma 90.5833
loop_
_atom_site_label
_atom_site_type_symbol
_atom_site_fract_x
_atom_site_fract_y
_atom_site_fract_z
_atom_type_partial_charge
O0 O 0.21269 0.12569 0.43419 0.0
Tb1 Tb 0.22332 0.16802 0.4046 0.0
C2 C 0.16184 0.2143 0.39738 0.0
O3 O 0.23007 0.20678 0.3449 0.0
Tb4 Tb 0.22394 0.25436 0.37119 0.0
C5 C 0.21716 0.29838 0.32811 0.0
O6 O 0.2627 0.17631 0.37019 0.0
O7 O 0.26355 0.27298 0.39759 0.0
C8 C 0.2937 0.27131 0.38629 0.0
O9 O 0.30046 0.25442 0.36022 0.0
O10 O 0.17558 0.18408 0.39385 0.0
O11 O 0.17822 0.24321 0.39676 0.0
O12 O 0.23938 0.19458 0.44518 0.0
C13 C 0.25679 0.19036 0.34504 0.0
C14 C 0.22215 0.10138 0.41472 0.0
O15 O 0.23599 0.27253 0.32582 0.0
O16 O 0.20204 0.29984 0.3551 0.0
C17 C 0.21834 0.20464 0.46753 0.0
O18 O 0.18794 0.20218 0.46312 0.0
O19 O 0.23194 0.1146 0.38928 0.0
O20 O 0.9392 0.17405 0.48782 0.0
Tb21 Tb 0.9532 0.19466 0.44344 0.0
C22 C 1.02151 0.22212 0.41124 0.0
O23 O 0.92925 0.27397 0.42817 0.0
Tb24 Tb 0.96133 0.26007 0.38851 0.0
C25 C 0.96341 0.30696 0.34667 0.0
O26 O 0.90908 0.22079 0.43281 0.0
O27 O 0.92956 0.22246 0.3699 0.0
C28 C 0.90206 0.23474 0.36362 0.0
O29 O 0.89668 0.26707 0.36994 0.0
O30 O 1.0039 0.19837 0.42499 0.0
O31 O 1.00939 0.24839 0.39913 0.0
O32 O 0.94989 0.14063 0.42869 0.0
C33 C 0.90485 0.25406 0.43503 0.0
C34 C 0.95142 0.19808 0.50443 0.0
O35 O 0.9598 0.31301 0.37606 0.0
O36 O 0.96655 0.27459 0.34101 0.0
C37 C 0.96871 0.11795 0.43905 0.0
O38 O 0.99001 0.12857 0.45752 0.0
O39 O 0.96485 0.22025 0.4866 0.0
O40 O 0.96647 0.88156 0.48506 0.0
Tb41 Tb 0.95892 0.89565 0.43856 0.0
C42 C 0.95102 0.97219 0.41416 0.0
O43 O 0.88637 0.89372 0.4184 0.0
Tb44 Tb 0.90779 0.91787 0.37904 0.0
C45 C 0.86209 0.93742 0.34581 0.0
O46 O 0.92616 0.8568 0.42013 0.0
O47 O 0.93306 0.87722 0.35168 0.0
C48 C 0.91471 0.85353 0.34001 0.0
O49 O 0.88383 0.85585 0.34678 0.0
O50 O 0.9671 0.94953 0.42798 0.0
O51 O 0.92804 0.96444 0.39656 0.0
O52 O 1.00886 0.87915 0.42766 0.0
C53 C 0.89521 0.86265 0.42118 0.0
C54 C 0.94336 0.89954 0.49883 0.0
O55 O 0.85761 0.92088 0.37045 0.0
O56 O 0.89237 0.94271 0.33979 0.0
C57 C 1.03185 0.89474 0.44176 0.0
O58 O 1.02376 0.92004 0.46121 0.0
O59 O 0.92912 0.91506 0.47859 0.0
O60 O 0.25289 0.91541 0.48859 0.0
Tb61 Tb 0.23749 0.8856 0.44934 0.0
C62 C 0.16817 0.86117 0.42507 0.0
O63 O 0.25911 0.80366 0.41993 0.0
Tb64 Tb 0.22955 0.82873 0.3896 0.0
C65 C 0.23677 0.79781 0.33385 0.0
O66 O 0.28005 0.85303 0.43956 0.0
O67 O 0.24397 0.8808 0.38463 0.0
C68 C 0.27458 0.88726 0.38074 0.0
O69 O 0.29484 0.86223 0.38022 0.0
O70 O 0.18665 0.88058 0.44161 0.0
O71 O 0.17955 0.83747 0.40501 0.0
O72 O 0.24052 0.93591 0.4303 0.0
C73 C 0.2821 0.81998 0.43316 0.0
C74 C 0.23626 0.89899 0.50916 0.0
O75 O 0.214 0.79179 0.35471 0.0
O76 O 0.25527 0.82112 0.34447 0.0
C77 C 0.22076 0.95923 0.44315 0.0
O78 O 0.20015 0.95027 0.46531 0.0
O79 O 0.22067 0.87454 0.49607 0.0
O80 O 0.1471 0.97786 0.71941 0.0
Tb81 Tb 0.19089 0.95312 0.69941 0.0
C82 C 0.2258 0.93731 0.63752 0.0
O83 O 0.23111 0.88537 0.70694 0.0
Tb84 Tb 0.26427 0.92281 0.68776 0.0
C85 C 0.31339 0.88489 0.66654 0.0
O86 O 0.19723 0.92022 0.7363 0.0
O87 O 0.27558 0.94852 0.73001 0.0
C88 C 0.282 0.92826 0.75128 0.0
O89 O 0.2804 0.8955 0.74541 0.0
O90 O 0.202 0.92655 0.65553 0.0
O91 O 0.25053 0.95013 0.65004 0.0
O92 O 0.22003 0.99835 0.69641 0.0
C93 C 0.2122 0.89129 0.7318 0.0
C94 C 0.13019 0.96852 0.69706 0.0
O95 O 0.2837 0.87792 0.66325 0.0
O96 O 0.31559 0.9138 0.68161 0.0
C97 C 0.21359 1.02099 0.67707 0.0
O98 O 0.19023 1.01505 0.65956 0.0
O99 O 0.14729 0.95038 0.67679 0.0
O100 O 0.3463 0.1779 0.74492 0.0
Tb101 Tb 0.31745 0.19987 0.71267 0.0
C102 C 0.24877 0.23649 0.71116 0.0
O103 O 0.27617 0.17299 0.65912 0.0
Tb104 Tb 0.22864 0.19468 0.65842 0.0
C105 C 0.17496 0.15879 0.66651 0.0
O106 O 0.30832 0.15039 0.69099 0.0
O107 O 0.22807 0.21873 0.6151 0.0
C108 C 0.2492 0.20981 0.59243 0.0
O109 O 0.27301 0.19055 0.59794 0.0
O110 O 0.27331 0.21916 0.69904 0.0
O111 O 0.22429 0.2348 0.69464 0.0
O112 O 0.35157 0.2363 0.69448 0.0
C113 C 0.28447 0.14661 0.67353 0.0
C114 C 0.3307 0.1912 0.76923 0.0
O115 O 0.1888 0.16693 0.6405 0.0
O116 O 0.19307 0.16864 0.68774 0.0
C117 C 0.34186 0.26351 0.68222 0.0
O118 O 0.3149 0.26229 0.66929 0.0
O119 O 0.30691 0.20893 0.76159 0.0
O120 O 1.02476 0.18774 0.71204 0.0
Tb121 Tb 0.98314 0.20893 0.6933 0.0
C122 C 0.94732 0.20515 0.63658 0.0
O123 O 0.92701 0.22593 0.74001 0.0
Tb124 Tb 0.90623 0.21547 0.69665 0.0
C125 C 0.88598 0.27203 0.67619 0.0
O126 O 0.97315 0.25212 0.72485 0.0
O127 O 0.86689 0.19201 0.72363 0.0
C128 C 0.84709 0.21269 0.74006 0.0
O129 O 0.85108 0.24541 0.73789 0.0
O130 O 0.96933 0.22292 0.64961 0.0
O131 O 0.92524 0.18967 0.65387 0.0
O132 O 0.95403 0.16428 0.7009 0.0
C133 C 0.94809 0.25008 0.7444 0.0
C134 C 1.04314 0.18791 0.6869 0.0
O135 O 0.91267 0.26917 0.68868 0.0
O136 O 0.87048 0.2435 0.67617 0.0
C137 C 0.95933 0.13756 0.68224 0.0
O138 O 0.98157 0.13926 0.65968 0.0
O139 O 1.02819 0.20126 0.66599 0.0
O140 O 0.98458 0.94272 0.67238 0.0
Tb141 Tb 0.93754 0.93715 0.69549 0.0
C142 C 0.9079 1.00834 0.71196 0.0
O143 O 0.93593 0.9347 0.76904 0.0
Tb144 Tb 0.89215 0.95781 0.75942 0.0
C145 C 0.85455 0.96387 0.81068 0.0
O146 O 0.93735 0.89697 0.72851 0.0
O147 O 0.87421 0.91733 0.73042 0.0
C148 C 0.86703 0.88915 0.74388 0.0
O149 O 0.87022 0.8882 0.77315 0.0
O150 O 0.90725 0.98153 0.69301 0.0
O151 O 0.9058 1.00498 0.74124 0.0
O152 O 0.93175 0.91298 0.65029 0.0
C153 C 0.94283 0.90442 0.75721 0.0
C154 C 0.99622 0.96176 0.69361 0.0
O155 O 0.88502 0.95838 0.80868 0.0
O156 O 0.84543 0.96683 0.78351 0.0
C157 C 0.92267 0.93125 0.62837 0.0
O158 O 0.91433 0.96275 0.635 0.0
O159 O 0.9748 0.96695 0.71623 0.0
O160 O 0.52559 0.18879 0.21458 0.0
Tb161 Tb 0.48452 0.21079 0.19565 0.0
C162 C 0.44834 0.20685 0.13914 0.0
O163 O 0.4297 0.2266 0.24322 0.0
Tb164 Tb 0.40832 0.21579 0.2002 0.0
C165 C 0.38659 0.27216 0.18084 0.0
O166 O 0.47485 0.25394 0.22728 0.0
O167 O 0.37 0.19135 0.22775 0.0
C168 C 0.35163 0.21159 0.24619 0.0
O169 O 0.35627 0.24437 0.24542 0.0
O170 O 0.47045 0.22465 0.15202 0.0
O171 O 0.42653 0.1911 0.15654 0.0
O172 O 0.45529 0.1663 0.20328 0.0
C173 C 0.4503 0.25129 0.24731 0.0
C174 C 0.54409 0.18863 0.18951 0.0
O175 O 0.41397 0.26951 0.19211 0.0
O176 O 0.3712 0.24357 0.18152 0.0
C177 C 0.46074 0.13953 0.18474 0.0
O178 O 0.48321 0.1411 0.16238 0.0
O179 O 0.52957 0.20243 0.16853 0.0
O180 O 0.9847 0.44418 0.17361 0.0
Tb181 Tb 0.93756 0.43921 0.19663 0.0
C182 C 0.90833 0.51068 0.21152 0.0
O183 O 0.93211 0.43665 0.27184 0.0
Tb184 Tb 0.8902 0.46083 0.25875 0.0
C185 C 0.84814 0.46907 0.30668 0.0
O186 O 0.93705 0.39971 0.23035 0.0
O187 O 0.8752 0.4199 0.2286 0.0
C188 C 0.86745 0.39158 0.24161 0.0
O189 O 0.86751 0.391 0.27132 0.0
O190 O 0.90783 0.4837 0.19282 0.0
O191 O 0.90552 0.50757 0.2408 0.0
O192 O 0.93177 0.41419 0.15172 0.0
C193 C 0.94079 0.40701 0.2595 0.0
C194 C 0.99634 0.46346 0.19468 0.0
O195 O 0.87865 0.46529 0.30761 0.0
O196 O 0.84142 0.46863 0.27843 0.0
C197 C 0.92349 0.4323 0.12934 0.0
O198 O 0.91631 0.46422 0.13529 0.0
O199 O 0.97488 0.46906 0.2172 0.0
O200 O 0.64714 0.97908 0.21983 0.0
Tb201 Tb 0.69048 0.95351 0.19977 0.0
C202 C 0.72441 0.93872 0.13732 0.0
O203 O 0.73116 0.8861 0.20656 0.0
Tb204 Tb 0.76369 0.92387 0.1869 0.0
C205 C 0.81271 0.88652 0.16446 0.0
O206 O 0.6976 0.92073 0.2365 0.0
O207 O 0.77528 0.94914 0.22925 0.0
C208 C 0.78242 0.92853 0.24999 0.0
O209 O 0.78169 0.89585 0.2434 0.0
O210 O 0.70099 0.92754 0.15553 0.0
O211 O 0.74929 0.9515 0.1496 0.0
O212 O 0.71962 0.99869 0.19637 0.0
C213 C 0.71269 0.8919 0.23173 0.0
C214 C 0.62965 0.96864 0.19824 0.0
O215 O 0.78297 0.87945 0.16154 0.0
O216 O 0.81501 0.91517 0.17993 0.0
C217 C 0.71317 1.02112 0.17685 0.0
O218 O 0.68973 1.01505 0.15945 0.0
O219 O 0.64625 0.94956 0.17831 0.0
O220 O 0.34773 0.67796 0.24525 0.0
Tb221 Tb 0.31883 0.69993 0.21302 0.0
C222 C 0.25024 0.73663 0.21138 0.0
O223 O 0.27761 0.67321 0.15931 0.0
Tb224 Tb 0.23015 0.69503 0.15851 0.0
C225 C 0.17624 0.65947 0.16628 0.0
O226 O 0.3096 0.6505 0.19127 0.0
O227 O 0.22974 0.71924 0.11525 0.0
C228 C 0.25065 0.71004 0.0925 0.0
O229 O 0.27425 0.69042 0.09791 0.0
O230 O 0.27479 0.71933 0.19927 0.0
O231 O 0.22579 0.73505 0.1948 0.0
O232 O 0.35293 0.73654 0.19505 0.0
C233 C 0.28579 0.6468 0.17376 0.0
C234 C 0.33208 0.69115 0.26957 0.0
O235 O 0.19026 0.66759 0.14034 0.0
O236 O 0.19431 0.66908 0.18761 0.0
C237 C 0.34319 0.76384 0.18295 0.0
O238 O 0.31637 0.76261 0.16979 0.0
O239 O 0.30823 0.70882 0.26197 0.0
O240 O 0.46421 0.88258 0.98907 0.0
Tb241 Tb 0.45625 0.89709 0.94277 0.0
C242 C 0.44993 0.97364 0.91704 0.0
O243 O 0.3852 0.89612 0.91981 0.0
Tb244 Tb 0.40812 0.91905 0.88039 0.0
C245 C 0.3628 0.93801 0.8464 0.0
O246 O 0.42381 0.85844 0.92379 0.0
O247 O 0.43371 0.87787 0.85404 0.0
C248 C 0.41574 0.85385 0.84236 0.0
O249 O 0.38477 0.85597 0.84856 0.0
O250 O 0.46365 0.95132 0.93327 0.0
O251 O 0.42925 0.96566 0.89702 0.0
O252 O 0.50608 0.88077 0.93162 0.0
C253 C 0.39316 0.86494 0.9234 0.0
C254 C 0.4407 0.89979 1.00306 0.0
O255 O 0.35808 0.92223 0.87141 0.0
O256 O 0.39314 0.94291 0.84039 0.0
C257 C 0.52914 0.89655 0.94543 0.0
O258 O 0.52118 0.92205 0.96471 0.0
O259 O 0.42605 0.91516 0.98302 0.0
O260 O 0.25194 0.41584 0.98858 0.0
Tb261 Tb 0.23646 0.38596 0.94939 0.0
C262 C 0.16713 0.3619 0.92491 0.0
O263 O 0.25798 0.30425 0.91944 0.0
Tb264 Tb 0.22848 0.32949 0.88914 0.0
C265 C 0.23554 0.29838 0.83343 0.0
O266 O 0.27896 0.35347 0.93933 0.0
O267 O 0.24324 0.38145 0.88404 0.0
C268 C 0.27389 0.38771 0.88021 0.0
O269 O 0.29399 0.36257 0.87991 0.0
O270 O 0.18562 0.38089 0.9418 0.0
O271 O 0.17849 0.33856 0.90448 0.0
O272 O 0.23961 0.43614 0.93021 0.0
C273 C 0.28099 0.32047 0.93274 0.0
C274 C 0.23541 0.39942 1.00921 0.0
O275 O 0.21282 0.29245 0.85436 0.0
O276 O 0.25408 0.32171 0.84395 0.0
C277 C 0.21994 0.45953 0.94306 0.0
O278 O 0.1993 0.45066 0.96522 0.0
O279 O 0.21984 0.37491 0.99619 0.0
O280 O 0.74677 0.12263 0.91752 0.0
Tb281 Tb 0.72536 0.16886 0.90249 0.0
C282 C 0.66287 0.2162 0.89863 0.0
O283 O 0.72794 0.20877 0.84221 0.0
Tb284 Tb 0.7245 0.25551 0.87005 0.0
C285 C 0.71837 0.30051 0.82773 0.0
O286 O 0.76123 0.17612 0.86467 0.0
O287 O 0.76446 0.2731 0.89639 0.0
C288 C 0.79455 0.27121 0.88494 0.0
O289 O 0.80109 0.25416 0.85891 0.0
O290 O 0.67655 0.18589 0.89601 0.0
O291 O 0.6791 0.2451 0.89639 0.0
O292 O 0.7352 0.19511 0.94542 0.0
C293 C 0.75413 0.19118 0.84047 0.0
C294 C 0.72454 0.10168 0.90989 0.0
O295 O 0.73794 0.27531 0.82563 0.0
O296 O 0.7022 0.30091 0.85422 0.0
C297 C 0.71299 0.19848 0.96817 0.0
O298 O 0.68378 0.18872 0.96374 0.0
O299 O 0.70253 0.11872 0.89859 0.0
O300 O 0.93953 0.67531 0.98793 0.0
Tb301 Tb 0.95348 0.69581 0.94349 0.0
C302 C 1.02228 0.72311 0.9125 0.0
O303 O 0.92968 0.77517 0.92706 0.0
Tb304 Tb 0.96283 0.75971 0.88869 0.0
C305 C 0.96427 0.80531 0.84567 0.0
O306 O 0.90924 0.72227 0.93328 0.0
O307 O 0.93431 0.71847 0.87112 0.0
C308 C 0.90599 0.72747 0.8641 0.0
O309 O 0.89777 0.75933 0.86891 0.0
O310 O 1.00424 0.69868 0.92471 0.0
O311 O 1.01041 0.75015 0.90148 0.0
O312 O 0.94966 0.64175 0.92881 0.0
C313 C 0.90523 0.7556 0.93455 0.0
C314 C 0.95202 0.69921 1.00447 0.0
O315 O 0.96045 0.81204 0.87493 0.0
O316 O 0.96795 0.7729 0.84072 0.0
C317 C 0.96815 0.61891 0.9394 0.0
O318 O 0.98932 0.6294 0.95804 0.0
O319 O 0.96556 0.72126 0.98658 0.0
O320 O 0.14731 0.47874 0.21999 0.0
Tb321 Tb 0.19091 0.45392 0.19963 0.0
C322 C 0.22524 0.43804 0.13756 0.0
O323 O 0.23104 0.38605 0.20697 0.0
Tb324 Tb 0.26389 0.42372 0.18767 0.0
C325 C 0.31295 0.38602 0.16599 0.0
O326 O 0.1971 0.42078 0.23639 0.0
O327 O 0.27528 0.44929 0.22997 0.0
C328 C 0.28183 0.42891 0.25111 0.0
O329 O 0.28041 0.39617 0.24506 0.0
O330 O 0.20158 0.42726 0.15572 0.0
O331 O 0.24997 0.45099 0.14999 0.0
O332 O 0.22039 0.49893 0.19669 0.0
C333 C 0.21209 0.39186 0.23182 0.0
C334 C 0.13032 0.46993 0.19756 0.0
O335 O 0.28324 0.37904 0.16282 0.0
O336 O 0.3152 0.41481 0.18124 0.0
C337 C 0.2141 0.52167 0.17738 0.0
O338 O 0.19069 0.51595 0.15988 0.0
O339 O 0.1473 0.45199 0.17704 0.0
O340 O 0.21343 0.62602 0.93452 0.0
Tb341 Tb 0.22392 0.66828 0.90484 0.0
C342 C 0.16247 0.71454 0.89796 0.0
O343 O 0.23092 0.70683 0.84504 0.0
Tb344 Tb 0.22449 0.75434 0.87142 0.0
C345 C 0.21754 0.79823 0.82829 0.0
O346 O 0.26344 0.67647 0.87055 0.0
O347 O 0.26383 0.77331 0.8979 0.0
C348 C 0.29404 0.77159 0.88682 0.0
O349 O 0.30103 0.75442 0.86094 0.0
O350 O 0.17615 0.68431 0.89422 0.0
O351 O 0.17892 0.74337 0.89728 0.0
O352 O 0.24013 0.69479 0.94538 0.0
C353 C 0.25764 0.69044 0.84534 0.0
C354 C 0.22249 0.60167 0.91493 0.0
O355 O 0.23664 0.77262 0.82612 0.0
O356 O 0.20223 0.79954 0.8552 0.0
C357 C 0.21921 0.70491 0.9678 0.0
O358 O 0.18877 0.70252 0.96353 0.0
O359 O 0.23206 0.61484 0.8894 0.0
O360 O 0.44002 0.17568 0.99027 0.0
Tb361 Tb 0.45405 0.19625 0.94583 0.0
C362 C 0.5224 0.22353 0.91309 0.0
O363 O 0.43017 0.27524 0.92953 0.0
Tb364 Tb 0.46201 0.26103 0.88977 0.0
C365 C 0.46377 0.3078 0.84779 0.0
O366 O 0.40997 0.22218 0.93484 0.0
O367 O 0.43001 0.22345 0.87148 0.0
C368 C 0.40254 0.2358 0.86519 0.0
O369 O 0.3973 0.26818 0.87136 0.0
O370 O 0.5049 0.20033 0.92777 0.0
O371 O 0.51018 0.24912 0.90002 0.0
O372 O 0.45048 0.14224 0.93102 0.0
C373 C 0.40574 0.25544 0.93657 0.0
C374 C 0.45196 0.19987 1.0069 0.0
O375 O 0.46049 0.31394 0.87718 0.0
O376 O 0.46681 0.27541 0.84221 0.0
C377 C 0.46867 0.1193 0.94184 0.0
O378 O 0.48967 0.12965 0.96072 0.0
O379 O 0.46526 0.2221 0.98905 0.0
O380 O 0.96593 0.38197 0.98593 0.0
Tb381 Tb 0.95785 0.39644 0.93962 0.0
C382 C 0.95094 0.47304 0.91407 0.0
O383 O 0.88633 0.39544 0.91725 0.0
Tb384 Tb 0.90873 0.4185 0.87767 0.0
C385 C 0.86331 0.43831 0.84419 0.0
O386 O 0.92514 0.35782 0.92085 0.0
O387 O 0.93324 0.37693 0.85087 0.0
C388 C 0.91455 0.35347 0.83935 0.0
O389 O 0.8837 0.35641 0.84599 0.0
O390 O 0.96474 0.45081 0.93033 0.0
O391 O 0.93037 0.46495 0.89398 0.0
O392 O 1.00782 0.38038 0.92809 0.0
C393 C 0.89442 0.36426 0.92071 0.0
C394 C 0.94253 0.39931 0.99998 0.0
O395 O 0.85858 0.42268 0.86929 0.0
O396 O 0.89369 0.44255 0.83782 0.0
C397 C 1.03088 0.39573 0.94226 0.0
O398 O 1.02286 0.42069 0.9621 0.0
O399 O 0.92786 0.41466 0.97995 0.0
O400 O 0.74867 0.91903 0.98791 0.0
Tb401 Tb 0.73536 0.88712 0.94906 0.0
C402 C 0.66493 0.86181 0.92787 0.0
O403 O 0.75745 0.80509 0.92014 0.0
Tb404 Tb 0.72469 0.82901 0.89205 0.0
C405 C 0.72911 0.79747 0.83665 0.0
O406 O 0.77819 0.85466 0.93975 0.0
O407 O 0.74771 0.87762 0.88759 0.0
C408 C 0.77802 0.87768 0.87823 0.0
O409 O 0.79277 0.84871 0.87243 0.0
O410 O 0.68431 0.88327 0.9413 0.0
O411 O 0.67548 0.83584 0.91012 0.0
O412 O 0.74154 0.93647 0.92852 0.0
C413 C 0.78052 0.82167 0.93299 0.0
C414 C 0.73344 0.90173 1.00872 0.0
O415 O 0.72696 0.78273 0.86239 0.0
O416 O 0.72811 0.82999 0.84216 0.0
C417 C 0.71851 0.95901 0.93385 0.0
O418 O 0.69249 0.9505 0.95018 0.0
O419 O 0.71959 0.8758 0.99597 0.0
O420 O 1.02605 0.68899 0.21168 0.0
Tb421 Tb 0.9846 0.71077 0.19316 0.0
C422 C 0.9483 0.70642 0.13666 0.0
O423 O 0.92876 0.72645 0.24031 0.0
Tb424 Tb 0.90753 0.71599 0.19718 0.0
C425 C 0.88672 0.77249 0.17714 0.0
O426 O 0.97429 0.75364 0.22496 0.0
O427 O 0.86853 0.69207 0.22436 0.0
C428 C 0.84876 0.71247 0.24117 0.0
O429 O 0.85254 0.74525 0.23927 0.0
O430 O 0.97029 0.72438 0.14955 0.0
O431 O 0.92641 0.69073 0.15404 0.0
O432 O 0.95576 0.66597 0.20065 0.0
C433 C 0.94944 0.75103 0.24465 0.0
C434 C 1.04465 0.68994 0.18672 0.0
O435 O 0.91357 0.76975 0.18936 0.0
O436 O 0.87134 0.74389 0.1772 0.0
C437 C 0.96135 0.63923 0.1821 0.0
O438 O 0.98383 0.64091 0.15976 0.0
O439 O 1.02989 0.70398 0.16605 0.0
O440 O 0.48345 0.9433 0.17595 0.0
Tb441 Tb 0.43648 0.93922 0.19946 0.0
C442 C 0.40794 1.01099 0.21424 0.0
O443 O 0.43093 0.93654 0.275 0.0
Tb444 Tb 0.38958 0.96109 0.26116 0.0
C445 C 0.34667 0.97007 0.3083 0.0
O446 O 0.43633 0.89985 0.23331 0.0
O447 O 0.3749 0.92012 0.23086 0.0
C448 C 0.36682 0.89187 0.24384 0.0
O449 O 0.36623 0.89143 0.2736 0.0
O450 O 0.40725 0.98406 0.19552 0.0
O451 O 0.40541 1.00776 0.24348 0.0
O452 O 0.43 0.91416 0.15472 0.0
C453 C 0.43999 0.90709 0.26249 0.0
C454 C 0.49549 0.9628 0.19663 0.0
O455 O 0.37711 0.96636 0.30984 0.0
O456 O 0.3405 0.96905 0.27988 0.0
C457 C 0.42161 0.93227 0.13239 0.0
O458 O 0.41463 0.96425 0.13831 0.0
O459 O 0.4743 0.969 0.21928 0.0
O460 O 0.84594 0.17743 0.24318 0.0
Tb461 Tb 0.81699 0.19966 0.21113 0.0
C462 C 0.74789 0.23557 0.21048 0.0
O463 O 0.77537 0.17281 0.15785 0.0
Tb464 Tb 0.7272 0.19318 0.15838 0.0
C465 C 0.67469 0.15589 0.16856 0.0
O466 O 0.8085 0.15032 0.18888 0.0
O467 O 0.72332 0.21707 0.11549 0.0
C468 C 0.74505 0.2113 0.09262 0.0
O469 O 0.77147 0.19608 0.09776 0.0
O470 O 0.77245 0.21851 0.19804 0.0
O471 O 0.72309 0.23349 0.19438 0.0
O472 O 0.85079 0.23661 0.19332 0.0
C473 C 0.78444 0.14635 0.17171 0.0
C474 C 0.83029 0.19041 0.26759 0.0
O475 O 0.68815 0.16279 0.14204 0.0
O476 O 0.69273 0.1677 0.18917 0.0
C477 C 0.84085 0.26403 0.18156 0.0
O478 O 0.81354 0.26311 0.16924 0.0
O479 O 0.80643 0.20815 0.26011 0.0
O480 O 0.52838 0.68928 0.71549 0.0
Tb481 Tb 0.487 0.71054 0.69644 0.0
C482 C 0.45038 0.70616 0.64005 0.0
O483 O 0.43161 0.72591 0.7439 0.0
Tb484 Tb 0.41 0.71528 0.701 0.0
C485 C 0.38783 0.77143 0.68155 0.0
O486 O 0.47662 0.75361 0.72806 0.0
O487 O 0.37164 0.69096 0.72863 0.0
C488 C 0.35318 0.71129 0.74691 0.0
O489 O 0.35783 0.74405 0.746 0.0
O490 O 0.47258 0.72399 0.6528 0.0
O491 O 0.42858 0.69046 0.65752 0.0
O492 O 0.45814 0.66572 0.70385 0.0
C493 C 0.452 0.7508 0.74799 0.0
C494 C 0.54708 0.68971 0.69056 0.0
O495 O 0.41517 0.76908 0.69298 0.0
O496 O 0.37277 0.74265 0.68208 0.0
C497 C 0.46373 0.63904 0.68521 0.0
O498 O 0.48639 0.64073 0.66303 0.0
O499 O 0.53238 0.70321 0.66954 0.0
O500 O 0.64674 0.48016 0.71813 0.0
Tb501 Tb 0.69002 0.4543 0.69839 0.0
C502 C 0.72457 0.43904 0.63634 0.0
O503 O 0.73073 0.38699 0.7059 0.0
Tb504 Tb 0.7636 0.42436 0.68614 0.0
C505 C 0.81238 0.38652 0.66385 0.0
O506 O 0.69695 0.42183 0.73542 0.0
O507 O 0.77557 0.44992 0.72825 0.0
C508 C 0.78237 0.42953 0.74928 0.0
O509 O 0.78094 0.39679 0.7432 0.0
O510 O 0.70098 0.42799 0.65443 0.0
O511 O 0.74936 0.4519 0.64873 0.0
O512 O 0.71933 0.49927 0.6947 0.0
C513 C 0.71211 0.39301 0.73094 0.0
C514 C 0.62932 0.46962 0.69652 0.0
O515 O 0.78259 0.37968 0.66095 0.0
O516 O 0.81487 0.4152 0.67923 0.0
C517 C 0.71332 0.5218 0.6751 0.0
O518 O 0.6899 0.51625 0.65759 0.0
O519 O 0.64592 0.45033 0.67676 0.0
O520 O 0.46499 0.38175 0.48688 0.0
Tb521 Tb 0.45748 0.39617 0.44043 0.0
C522 C 0.45044 0.47301 0.41619 0.0
O523 O 0.38514 0.39524 0.4196 0.0
Tb524 Tb 0.40743 0.41908 0.38042 0.0
C525 C 0.36204 0.43834 0.34666 0.0
O526 O 0.42433 0.35774 0.42197 0.0
O527 O 0.43307 0.37828 0.35358 0.0
C528 C 0.41499 0.35436 0.34188 0.0
O529 O 0.38405 0.35652 0.34828 0.0
O530 O 0.466 0.45011 0.43022 0.0
O531 O 0.42776 0.46556 0.39813 0.0
O532 O 0.50724 0.37936 0.42887 0.0
C533 C 0.3935 0.36406 0.4226 0.0
C534 C 0.44211 0.39999 0.50077 0.0
O535 O 0.35737 0.4221 0.37144 0.0
O536 O 0.39237 0.44355 0.34078 0.0
C537 C 0.53045 0.39416 0.44323 0.0
O538 O 0.52268 0.41886 0.46343 0.0
O539 O 0.42801 0.41576 0.4806 0.0
O540 O 0.74681 0.62079 0.41892 0.0
Tb541 Tb 0.72658 0.66736 0.40327 0.0
C542 C 0.66396 0.71503 0.39973 0.0
O543 O 0.7292 0.70705 0.34283 0.0
Tb544 Tb 0.72566 0.75393 0.37045 0.0
C545 C 0.71953 0.799 0.32817 0.0
O546 O 0.76258 0.67475 0.3655 0.0
O547 O 0.76565 0.77124 0.39683 0.0
C548 C 0.79571 0.76945 0.38527 0.0
O549 O 0.80214 0.75278 0.35904 0.0
O550 O 0.67759 0.6847 0.39786 0.0
O551 O 0.68015 0.74386 0.39672 0.0
O552 O 0.73733 0.69295 0.4463 0.0
C553 C 0.75549 0.68963 0.34119 0.0
C554 C 0.72503 0.60002 0.40993 0.0
O555 O 0.73899 0.7737 0.32596 0.0
O556 O 0.7035 0.79945 0.35472 0.0
C557 C 0.71554 0.69671 0.46941 0.0
O558 O 0.68601 0.68782 0.46542 0.0
O559 O 0.70388 0.61732 0.39766 0.0
O560 O 0.44137 0.67474 0.49125 0.0
Tb561 Tb 0.45504 0.69543 0.44677 0.0
C562 C 0.52344 0.72261 0.41406 0.0
O563 O 0.43122 0.77444 0.43061 0.0
Tb564 Tb 0.46304 0.76021 0.39085 0.0
C565 C 0.4648 0.80717 0.34907 0.0
O566 O 0.41091 0.72143 0.43591 0.0
O567 O 0.431 0.72275 0.3724 0.0
C568 C 0.40358 0.73517 0.36606 0.0
O569 O 0.39834 0.76753 0.37235 0.0
O570 O 0.5059 0.69943 0.42873 0.0
O571 O 0.51124 0.74821 0.40099 0.0
O572 O 0.45134 0.64149 0.43173 0.0
C573 C 0.40672 0.7547 0.43758 0.0
C574 C 0.45326 0.69901 0.50783 0.0
O575 O 0.46158 0.81319 0.37847 0.0
O576 O 0.46778 0.77479 0.34336 0.0
C577 C 0.4698 0.61842 0.44202 0.0
O578 O 0.49115 0.62855 0.4606 0.0
O579 O 0.46631 0.72133 0.48994 0.0
O580 O 0.74951 0.41782 0.48709 0.0
Tb581 Tb 0.73598 0.38553 0.44854 0.0
C582 C 0.66671 0.3608 0.42423 0.0
O583 O 0.75741 0.30385 0.4185 0.0
Tb584 Tb 0.72836 0.32942 0.38802 0.0
C585 C 0.73541 0.29799 0.33248 0.0
O586 O 0.77832 0.35263 0.43946 0.0
O587 O 0.74417 0.38106 0.38297 0.0
C588 C 0.77496 0.38668 0.37955 0.0
O589 O 0.79453 0.36111 0.37961 0.0
O590 O 0.68506 0.37875 0.44203 0.0
O591 O 0.67824 0.33892 0.40258 0.0
O592 O 0.74147 0.43509 0.42825 0.0
C593 C 0.78031 0.31973 0.43227 0.0
C594 C 0.73445 0.40066 0.5081 0.0
O595 O 0.71289 0.29195 0.35355 0.0
O596 O 0.75378 0.32164 0.34274 0.0
C597 C 0.71745 0.45658 0.43118 0.0
O598 O 0.69015 0.44686 0.44456 0.0
O599 O 0.72063 0.37459 0.49559 0.0
O600 O 0.48342 0.44332 0.67425 0.0
Tb601 Tb 0.43635 0.43941 0.69756 0.0
C602 C 0.40779 0.51114 0.7125 0.0
O603 O 0.43036 0.43686 0.77308 0.0
Tb604 Tb 0.38877 0.46108 0.75932 0.0
C605 C 0.34612 0.46973 0.80671 0.0
O606 O 0.436 0.40008 0.73148 0.0
O607 O 0.37424 0.41999 0.7291 0.0
C608 C 0.3664 0.39173 0.74215 0.0
O609 O 0.36601 0.39135 0.77191 0.0
O610 O 0.4072 0.48432 0.69363 0.0
O611 O 0.40459 0.50781 0.74173 0.0
O612 O 0.42994 0.41469 0.65266 0.0
C613 C 0.4395 0.4074 0.76068 0.0
C614 C 0.4953 0.46309 0.69483 0.0
O615 O 0.37658 0.466 0.80806 0.0
O616 O 0.33977 0.46893 0.77835 0.0
C617 C 0.42348 0.43346 0.63006 0.0
O618 O 0.41858 0.46589 0.63582 0.0
O619 O 0.474 0.46945 0.71735 0.0
O620 O 0.84721 0.66668 0.74546 0.0
Tb621 Tb 0.81434 0.69069 0.71762 0.0
C622 C 0.74878 0.72661 0.71847 0.0
O623 O 0.78026 0.67274 0.66052 0.0
Tb624 Tb 0.73266 0.69339 0.65975 0.0
C625 C 0.67871 0.65862 0.67105 0.0
O626 O 0.81301 0.64562 0.68787 0.0
O627 O 0.72918 0.71699 0.61661 0.0
C628 C 0.74983 0.70895 0.59333 0.0
O629 O 0.77517 0.69164 0.59817 0.0
O630 O 0.76318 0.69723 0.71628 0.0
O631 O 0.7319 0.73346 0.69576 0.0
O632 O 0.84134 0.7343 0.70218 0.0
C633 C 0.78933 0.64385 0.67036 0.0
C634 C 0.83339 0.67755 0.77154 0.0
O635 O 0.69304 0.66299 0.64434 0.0
O636 O 0.69646 0.67158 0.69139 0.0
C637 C 0.82845 0.76127 0.69228 0.0
O638 O 0.79978 0.75932 0.6828 0.0
O639 O 0.80845 0.69513 0.76702 0.0
C640 C 0.19412 0.37375 0.28463 0.0
C641 C 0.2106 0.3668 0.25594 0.0
H642 H 0.18316 0.35757 0.33009 0.0
C643 C 0.22804 0.33662 0.25119 0.0
H644 H 0.18059 0.39682 0.28917 0.0
C645 C 0.22976 0.31452 0.27463 0.0
C646 C 0.2139 0.32177 0.30343 0.0
H647 H 0.24113 0.33036 0.22952 0.0
H648 H 0.24389 0.29182 0.27023 0.0
C649 C 0.19568 0.35138 0.30813 0.0
C650 C 0.87279 0.17786 0.30115 0.0
C651 C 0.84365 0.19343 0.29732 0.0
H652 H 0.91444 0.17856 0.32595 0.0
C653 C 0.831 0.21712 0.31964 0.0
H654 H 0.88291 0.15928 0.28431 0.0
C655 C 0.84905 0.22816 0.34334 0.0
C656 C 0.87991 0.21557 0.34507 0.0
H657 H 0.80849 0.22932 0.31733 0.0
H658 H 0.83984 0.24847 0.35889 0.0
C659 C 0.89083 0.18882 0.32499 0.0
C660 C 0.95567 0.82816 0.29998 0.0
C661 C 0.92688 0.82565 0.31831 0.0
H662 H 0.98553 0.80665 0.26203 0.0
C663 C 0.90742 0.7971 0.31374 0.0
H664 H 0.9711 0.84993 0.30281 0.0
C665 C 0.91566 0.77243 0.29079 0.0
C666 C 0.94355 0.77556 0.27133 0.0
H667 H 0.88514 0.79417 0.32745 0.0
H668 H 0.89942 0.75139 0.28773 0.0
C669 C 0.96385 0.80342 0.27657 0.0
C670 C 0.3159 0.93157 0.37914 0.0
C671 C 0.2864 0.9198 0.37038 0.0
H672 H 0.3582 0.95911 0.36631 0.0
C673 C 0.27305 0.93399 0.34599 0.0
H674 H 0.32632 0.92112 0.39819 0.0
C675 C 0.2915 0.95536 0.32739 0.0
C676 C 0.32312 0.96259 0.33341 0.0
H677 H 0.25018 0.92527 0.33903 0.0
H678 H 0.28242 0.96266 0.30647 0.0
C679 C 0.33407 0.95331 0.3609 0.0
C680 C 0.22822 0.83617 0.75128 0.0
C681 C 0.21072 0.86632 0.75597 0.0
H682 H 0.2442 0.7915 0.77043 0.0
C683 C 0.19424 0.87333 0.78464 0.0
H684 H 0.2413 0.82985 0.72961 0.0
C685 C 0.19586 0.85105 0.8082 0.0
C686 C 0.21417 0.82149 0.80356 0.0
H687 H 0.18067 0.89637 0.78913 0.0
H688 H 0.18335 0.85727 0.83016 0.0
C689 C 0.23002 0.81417 0.77478 0.0
C690 C 0.37309 0.17871 0.80294 0.0
C691 C 0.34405 0.19441 0.79896 0.0
H692 H 0.41467 0.17932 0.82783 0.0
C693 C 0.33149 0.21833 0.82112 0.0
H694 H 0.38313 0.15995 0.78623 0.0
C695 C 0.34955 0.22942 0.84481 0.0
C696 C 0.38033 0.21665 0.84668 0.0
H697 H 0.30906 0.23064 0.8187 0.0
H698 H 0.34043 0.24988 0.86023 0.0
C699 C 0.39114 0.18972 0.82677 0.0
C700 C 0.90647 0.29709 0.81323 0.0
C701 C 0.92635 0.3253 0.81779 0.0
H702 H 0.89785 0.25148 0.78728 0.0
C703 C 0.95527 0.32724 0.79955 0.0
H704 H 0.88408 0.29459 0.82688 0.0
C705 C 0.96316 0.30229 0.77623 0.0
C706 C 0.94244 0.2748 0.77098 0.0
H707 H 0.97103 0.34873 0.80236 0.0
H708 H 0.98496 0.3051 0.76177 0.0
C709 C 0.91441 0.27222 0.79036 0.0
C710 C 0.84597 0.93515 0.85886 0.0
C711 C 0.83316 0.95344 0.83645 0.0
H712 H 0.83782 0.89567 0.88986 0.0
C713 C 0.80007 0.95327 0.83443 0.0
H714 H 0.87138 0.93514 0.86112 0.0
C715 C 0.78074 0.93117 0.8515 0.0
C716 C 0.79464 0.90886 0.87008 0.0
H717 H 0.78967 0.96741 0.81745 0.0
H718 H 0.7558 0.92878 0.84744 0.0
C719 C 0.82686 0.91247 0.87523 0.0
C720 C 0.33394 0.18116 0.29323 0.0
C721 C 0.32642 0.19922 0.26825 0.0
H722 H 0.31792 0.16438 0.33754 0.0
C723 C 0.29544 0.21153 0.26768 0.0
H724 H 0.35793 0.1721 0.29449 0.0
C725 C 0.27261 0.20688 0.2919 0.0
C726 C 0.28039 0.19075 0.31792 0.0
H727 H 0.28918 0.22593 0.24888 0.0
H728 H 0.24909 0.21716 0.29061 0.0
C729 C 0.31112 0.17706 0.31797 0.0
C730 C 0.95865 0.32257 0.29254 0.0
C731 C 0.96076 0.33238 0.32345 0.0
H732 H 0.95079 0.33828 0.24784 0.0
C733 C 0.95848 0.36677 0.33239 0.0
H734 H 0.96022 0.29615 0.28497 0.0
C735 C 0.95331 0.39075 0.31125 0.0
C736 C 0.95001 0.38109 0.28047 0.0
H737 H 0.96006 0.37517 0.35595 0.0
H738 H 0.95112 0.41696 0.31938 0.0
C739 C 0.95329 0.34669 0.27124 0.0
C740 C 0.78856 0.92364 0.30451 0.0
C741 C 0.79691 0.94017 0.27767 0.0
H742 H 0.80261 0.91061 0.34778 0.0
C743 C 0.82416 0.96078 0.27567 0.0
H744 H 0.76774 0.90733 0.30629 0.0
C745 C 0.84462 0.96192 0.29907 0.0
C746 C 0.83761 0.94295 0.32481 0.0
H747 H 0.83124 0.97326 0.25492 0.0
H748 H 0.86685 0.9758 0.29615 0.0
C749 C 0.80859 0.92536 0.32812 0.0
C750 C 0.21571 0.76281 0.29096 0.0
C751 C 0.24066 0.78172 0.30268 0.0
H752 H 0.19923 0.73423 0.2527 0.0
C753 C 0.26913 0.78574 0.28409 0.0
H754 H 0.19348 0.75942 0.30465 0.0
C755 C 0.27259 0.77091 0.25442 0.0
C756 C 0.24751 0.75215 0.24273 0.0
H757 H 0.28878 0.80024 0.29252 0.0
H758 H 0.2947 0.77435 0.24057 0.0
C759 C 0.21898 0.74853 0.26119 0.0
C760 C 0.32482 0.96003 0.77583 0.0
C761 C 0.2971 0.94016 0.77857 0.0
H762 H 0.36804 0.97463 0.79558 0.0
C763 C 0.28869 0.92452 0.80586 0.0
H764 H 0.33195 0.97179 0.75472 0.0
C765 C 0.30899 0.92642 0.82924 0.0
C766 C 0.33835 0.94328 0.82528 0.0
H767 H 0.26752 0.90878 0.80821 0.0
H768 H 0.30286 0.9124 0.84932 0.0
C769 C 0.34554 0.96133 0.79902 0.0
C770 C 0.21441 0.26314 0.7907 0.0
C771 C 0.23938 0.28212 0.80231 0.0
H772 H 0.19784 0.23433 0.75261 0.0
C773 C 0.26781 0.28602 0.78365 0.0
H774 H 0.1922 0.25983 0.80445 0.0
C775 C 0.27122 0.27102 0.75403 0.0
C776 C 0.24612 0.25219 0.74247 0.0
H777 H 0.28748 0.30057 0.79198 0.0
H778 H 0.29332 0.27438 0.74012 0.0
C779 C 0.21761 0.24868 0.761 0.0
C780 C 0.82899 0.18033 0.78588 0.0
C781 C 0.82186 0.20089 0.76242 0.0
H782 H 0.81332 0.16143 0.82941 0.0
C783 C 0.79151 0.21534 0.76349 0.0
H784 H 0.85245 0.16939 0.78582 0.0
C785 C 0.76905 0.21039 0.78796 0.0
C786 C 0.77671 0.19189 0.81265 0.0
H787 H 0.78549 0.23147 0.74578 0.0
H788 H 0.74602 0.22225 0.78798 0.0
C789 C 0.80667 0.17606 0.81093 0.0
C790 C 0.96015 0.82016 0.79112 0.0
C791 C 0.96173 0.83028 0.82203 0.0
H792 H 0.95312 0.8355 0.74606 0.0
C793 C 0.95916 0.86472 0.83068 0.0
H794 H 0.96199 0.79369 0.78377 0.0
C795 C 0.95428 0.88845 0.80928 0.0
C796 C 0.95152 0.87853 0.77846 0.0
H797 H 0.96035 0.87338 0.85423 0.0
H798 H 0.95187 0.91469 0.81726 0.0
C799 C 0.95507 0.84408 0.76951 0.0
C800 C 0.38305 0.33492 0.18216 0.0
C801 C 0.37334 0.30312 0.17073 0.0
H802 H 0.3711 0.38738 0.18915 0.0
C803 C 0.34804 0.30061 0.1521 0.0
H804 H 0.40275 0.33726 0.19641 0.0
C805 C 0.33047 0.32907 0.14749 0.0
C806 C 0.33771 0.36023 0.1619 0.0
H807 H 0.34062 0.27631 0.14259 0.0
H808 H 0.30959 0.32606 0.13483 0.0
C809 C 0.36514 0.36351 0.17784 0.0
C810 C 0.31196 0.82279 0.91761 0.0
C811 C 0.31954 0.79257 0.90057 0.0
H812 H 0.32917 0.86913 0.93787 0.0
C813 C 0.35206 0.78461 0.89393 0.0
H814 H 0.28732 0.82996 0.923 0.0
C815 C 0.37624 0.80682 0.90312 0.0
C816 C 0.36852 0.83806 0.91843 0.0
H817 H 0.35885 0.76159 0.88078 0.0
H818 H 0.40088 0.80043 0.89661 0.0
C819 C 0.33605 0.84534 0.92606 0.0
C820 C 0.36895 0.30586 0.94473 0.0
C821 C 0.37285 0.27079 0.93864 0.0
H822 H 0.33774 0.34856 0.94814 0.0
C823 C 0.34556 0.25172 0.93203 0.0
H824 H 0.38919 0.32159 0.94986 0.0
C825 C 0.31573 0.26746 0.93059 0.0
C826 C 0.31207 0.30272 0.93618 0.0
H827 H 0.34748 0.22477 0.92683 0.0
H828 H 0.29563 0.252 0.92461 0.0
C829 C 0.33919 0.32145 0.94373 0.0
C830 C 0.85284 0.28419 0.89114 0.0
C831 C 0.82037 0.29203 0.89844 0.0
H832 H 0.90176 0.30002 0.89311 0.0
C833 C 0.81308 0.32204 0.91591 0.0
H834 H 0.85943 0.26134 0.87764 0.0
C835 C 0.83734 0.3445 0.92417 0.0
C836 C 0.86973 0.33735 0.91591 0.0
H837 H 0.78851 0.32915 0.92181 0.0
H838 H 0.83062 0.36815 0.93633 0.0
C839 C 0.8772 0.3063 0.90013 0.0
C840 C 0.83935 0.82259 0.94203 0.0
C841 C 0.81172 0.80393 0.936 0.0
H842 H 0.8897 0.82237 0.94639 0.0
C843 C 0.8149 0.76849 0.93133 0.0
H844 H 0.83829 0.84982 0.94561 0.0
C845 C 0.8447 0.75248 0.93219 0.0
C846 C 0.87247 0.77141 0.93725 0.0
H847 H 0.79439 0.75305 0.92654 0.0
H848 H 0.84614 0.72537 0.92779 0.0
C849 C 0.86909 0.80671 0.94244 0.0
C850 C 0.8483 0.80155 0.14867 0.0
C851 C 0.87359 0.80369 0.16734 0.0
H852 H 0.80963 0.82729 0.13206 0.0
C853 C 0.88315 0.83528 0.17938 0.0
H854 H 0.84096 0.77743 0.13872 0.0
C855 C 0.86508 0.86393 0.17566 0.0
C856 C 0.83762 0.86092 0.15975 0.0
H857 H 0.90282 0.83734 0.19368 0.0
H858 H 0.87092 0.88756 0.18744 0.0
C859 C 0.83054 0.83008 0.14471 0.0
C860 C 0.34611 0.82718 0.18223 0.0
C861 C 0.35457 0.79698 0.19485 0.0
H862 H 0.34387 0.88142 0.18774 0.0
C863 C 0.3695 0.79881 0.22217 0.0
H864 H 0.33447 0.82651 0.16125 0.0
C865 C 0.37375 0.82982 0.23764 0.0
C866 C 0.36401 0.85983 0.2258 0.0
H867 H 0.37619 0.77615 0.23271 0.0
H868 H 0.38417 0.8302 0.25926 0.0
C869 C 0.35126 0.85849 0.19741 0.0
C870 C 0.84425 0.32732 0.18073 0.0
C871 C 0.85303 0.29701 0.19295 0.0
H872 H 0.84245 0.38156 0.18643 0.0
C873 C 0.86913 0.29863 0.2196 0.0
H874 H 0.83173 0.32681 0.16027 0.0
C875 C 0.87413 0.32956 0.23493 0.0
C876 C 0.86403 0.35967 0.22356 0.0
H877 H 0.87612 0.27589 0.22982 0.0
H878 H 0.88537 0.3298 0.25612 0.0
C879 C 0.85016 0.35855 0.19573 0.0
C880 C 0.88076 0.66959 0.80067 0.0
C881 C 0.84899 0.67989 0.80014 0.0
H882 H 0.92423 0.67646 0.82239 0.0
C883 C 0.8346 0.69908 0.82502 0.0
H884 H 0.89231 0.65461 0.78176 0.0
C885 C 0.85284 0.71171 0.84798 0.0
C886 C 0.88559 0.70498 0.84654 0.0
H887 H 0.81005 0.70708 0.82532 0.0
H888 H 0.84189 0.72909 0.86544 0.0
C889 C 0.89901 0.68201 0.82392 0.0
C890 C 0.27251 0.43415 0.84509 0.0
C891 C 0.28594 0.42005 0.86949 0.0
H892 H 0.28178 0.46246 0.80534 0.0
C893 C 0.31562 0.4316 0.87792 0.0
H894 H 0.2495 0.42559 0.83837 0.0
C895 C 0.33384 0.45304 0.8594 0.0
C896 C 0.32272 0.46227 0.83196 0.0
H897 H 0.32613 0.42121 0.89695 0.0
H898 H 0.35806 0.45869 0.8646 0.0
C899 C 0.29099 0.45522 0.82621 0.0
C900 C 0.39235 0.68938 0.32729 0.0
C901 C 0.38145 0.71617 0.34734 0.0
H902 H 0.38451 0.65987 0.28657 0.0
C903 C 0.3507 0.72897 0.34539 0.0
H904 H 0.41586 0.67896 0.32839 0.0
C905 C 0.33274 0.71805 0.32158 0.0
C906 C 0.34537 0.69426 0.29935 0.0
H907 H 0.34151 0.74934 0.3609 0.0
H908 H 0.31033 0.73038 0.31915 0.0
C909 C 0.3744 0.67853 0.30334 0.0
C910 C 0.818 0.42921 0.37721 0.0
C911 C 0.78782 0.41887 0.36913 0.0
H912 H 0.8609 0.45546 0.3638 0.0
C913 C 0.77427 0.43428 0.34547 0.0
H914 H 0.8286 0.41789 0.39575 0.0
C915 C 0.79297 0.45535 0.32676 0.0
C916 C 0.82501 0.46126 0.33205 0.0
H917 H 0.75087 0.42674 0.33905 0.0
H918 H 0.78354 0.46363 0.30634 0.0
C919 C 0.83642 0.45072 0.35893 0.0
C920 C 0.27388 0.70703 0.79228 0.0
C921 C 0.28141 0.69077 0.81832 0.0
H922 H 0.29082 0.72606 0.74935 0.0
C923 C 0.31205 0.67688 0.8185 0.0
H924 H 0.25045 0.71747 0.79089 0.0
C925 C 0.33503 0.68089 0.79388 0.0
C926 C 0.32778 0.69906 0.76887 0.0
H927 H 0.31865 0.66411 0.8381 0.0
H928 H 0.35895 0.67166 0.79525 0.0
C929 C 0.29689 0.71158 0.76817 0.0
C930 C 0.80934 0.42726 0.8272 0.0
C931 C 0.83878 0.44396 0.82324 0.0
H932 H 0.76777 0.40993 0.80616 0.0
C933 C 0.84601 0.46212 0.79705 0.0
H934 H 0.80319 0.41315 0.84722 0.0
C935 C 0.82525 0.46106 0.7739 0.0
C936 C 0.79747 0.4413 0.7766 0.0
H937 H 0.86857 0.47529 0.79363 0.0
H938 H 0.83243 0.47287 0.75283 0.0
C939 C 0.789 0.42559 0.80384 0.0
C940 C 0.30838 0.42663 0.3292 0.0
C941 C 0.33764 0.44373 0.32552 0.0
H942 H 0.26716 0.40888 0.30783 0.0
C943 C 0.34484 0.46208 0.29944 0.0
H944 H 0.30225 0.41237 0.34914 0.0
C945 C 0.32426 0.46084 0.27613 0.0
C946 C 0.29669 0.44072 0.27857 0.0
H947 H 0.36726 0.47557 0.29622 0.0
H948 H 0.33144 0.47283 0.25515 0.0
C949 C 0.28822 0.4248 0.3057 0.0
C950 C 0.80846 0.67536 0.31196 0.0
C951 C 0.77827 0.69065 0.31349 0.0
H952 H 0.85448 0.66942 0.28712 0.0
C953 C 0.7705 0.70895 0.2887 0.0
H954 H 0.81522 0.66091 0.33052 0.0
C955 C 0.79303 0.71421 0.26433 0.0
C956 C 0.82359 0.70028 0.26344 0.0
H957 H 0.74731 0.72041 0.28855 0.0
H958 H 0.78688 0.73018 0.24655 0.0
C959 C 0.83087 0.67994 0.28701 0.0
C960 C 0.38378 0.83418 0.68284 0.0
C961 C 0.37425 0.80228 0.67151 0.0
H962 H 0.37155 0.88659 0.6897 0.0
C963 C 0.34882 0.79952 0.65303 0.0
H964 H 0.40355 0.83673 0.69699 0.0
C965 C 0.33102 0.82783 0.64844 0.0
C966 C 0.33818 0.85911 0.66266 0.0
H967 H 0.3415 0.77513 0.64361 0.0
H968 H 0.3101 0.82462 0.63586 0.0
C969 C 0.36565 0.86263 0.67852 0.0
C970 C 0.3364 0.34428 0.42607 0.0
C971 C 0.3688 0.33713 0.41783 0.0
H972 H 0.28755 0.32904 0.42348 0.0
C973 C 0.37628 0.30612 0.402 0.0
H974 H 0.32968 0.36788 0.4383 0.0
C975 C 0.35191 0.28409 0.39287 0.0
C976 C 0.31944 0.29199 0.40005 0.0
H977 H 0.40084 0.29982 0.39502 0.0
H978 H 0.35852 0.26128 0.37932 0.0
C979 C 0.31213 0.32191 0.41764 0.0
C980 C 0.31675 0.76692 0.43136 0.0
C981 C 0.31315 0.80222 0.43676 0.0
H982 H 0.34839 0.72414 0.42787 0.0
C983 C 0.3403 0.82092 0.44428 0.0
H984 H 0.29663 0.75147 0.42541 0.0
C985 C 0.37002 0.80527 0.44542 0.0
C986 C 0.37385 0.77015 0.43951 0.0
H987 H 0.33891 0.84806 0.44854 0.0
H988 H 0.39028 0.82097 0.45051 0.0
C989 C 0.34654 0.75112 0.43294 0.0
C990 C 0.85403 0.78268 0.39098 0.0
C991 C 0.82157 0.79007 0.39889 0.0
H992 H 0.90288 0.79898 0.39245 0.0
C993 C 0.81426 0.81954 0.41714 0.0
H994 H 0.86064 0.76024 0.3769 0.0
C995 C 0.83845 0.84201 0.4255 0.0
C996 C 0.87081 0.83542 0.41651 0.0
H997 H 0.78969 0.82628 0.42358 0.0
H998 H 0.83169 0.8653 0.43825 0.0
C999 C 0.87836 0.80482 0.40002 0.0
C1000 C 0.81487 0.26656 0.42936 0.0
C1001 C 0.81127 0.30173 0.43561 0.0
H1002 H 0.84655 0.22379 0.42477 0.0
C1003 C 0.83841 0.32018 0.44357 0.0
H1004 H 0.79476 0.25132 0.42304 0.0
C1005 C 0.86814 0.30444 0.44428 0.0
C1006 C 0.87198 0.26947 0.43747 0.0
H1007 H 0.83701 0.34722 0.44848 0.0
H1008 H 0.8884 0.31997 0.44971 0.0
C1009 C 0.84467 0.25065 0.43051 0.0
C1010 C 0.84763 0.30137 0.64783 0.0
C1011 C 0.87299 0.30333 0.66643 0.0
H1012 H 0.80898 0.32734 0.63142 0.0
C1013 C 0.88265 0.33485 0.67855 0.0
H1014 H 0.84019 0.27731 0.63784 0.0
C1015 C 0.86466 0.36359 0.67496 0.0
C1016 C 0.83715 0.36076 0.65911 0.0
H1017 H 0.90236 0.33678 0.69282 0.0
H1018 H 0.87061 0.38716 0.68678 0.0
C1019 C 0.82993 0.32999 0.64402 0.0
C1020 C 0.35024 0.35819 0.69607 0.0
C1021 C 0.36351 0.35965 0.7242 0.0
H1022 H 0.3328 0.32604 0.66036 0.0
C1023 C 0.37354 0.32972 0.73596 0.0
H1024 H 0.34261 0.38106 0.68647 0.0
C1025 C 0.36906 0.29865 0.72069 0.0
C1026 C 0.35356 0.29668 0.69369 0.0
H1027 H 0.38434 0.33022 0.75739 0.0
H1028 H 0.37598 0.27606 0.7312 0.0
C1029 C 0.34486 0.32681 0.6811 0.0
C1030 C 0.83894 0.8562 0.70386 0.0
C1031 C 0.86044 0.85757 0.7265 0.0
H1032 H 0.81148 0.82409 0.67508 0.0
C1033 C 0.87434 0.82767 0.73445 0.0
H1034 H 0.82799 0.87909 0.69741 0.0
C1035 C 0.86587 0.79665 0.72114 0.0
C1036 C 0.84243 0.79466 0.70026 0.0
H1037 H 0.89114 0.82815 0.75172 0.0
H1038 H 0.87633 0.77409 0.72881 0.0
C1039 C 0.82961 0.82482 0.69109 0.0
C1040 C 0.6962 0.35302 0.80751 0.0
C1041 C 0.71498 0.32379 0.80304 0.0
H1042 H 0.68039 0.39794 0.78821 0.0
C1043 C 0.7311 0.31664 0.77435 0.0
H1044 H 0.68346 0.35909 0.82939 0.0
C1045 C 0.72903 0.33843 0.75076 0.0
C1046 C 0.71104 0.36825 0.75526 0.0
H1047 H 0.74562 0.2942 0.77012 0.0
H1048 H 0.74227 0.33222 0.72915 0.0
C1049 C 0.69435 0.37514 0.78387 0.0
C1050 C 0.40984 0.79658 0.81721 0.0
C1051 C 0.4285 0.82586 0.82109 0.0
H1052 H 0.40286 0.75009 0.79198 0.0
C1053 C 0.45696 0.82897 0.80235 0.0
H1054 H 0.38786 0.79319 0.83127 0.0
C1055 C 0.4655 0.8041 0.77915 0.0
C1056 C 0.44593 0.7755 0.77454 0.0
H1057 H 0.47176 0.85131 0.80464 0.0
H1058 H 0.48683 0.80782 0.76424 0.0
C1059 C 0.41848 0.77176 0.79449 0.0
C1060 C 0.69722 0.85153 0.30815 0.0
C1061 C 0.71608 0.82238 0.30355 0.0
H1062 H 0.68117 0.89645 0.28906 0.0
C1063 C 0.73217 0.8154 0.27481 0.0
H1064 H 0.6845 0.85747 0.33007 0.0
C1065 C 0.72994 0.83728 0.25129 0.0
C1066 C 0.71183 0.86701 0.25593 0.0
H1067 H 0.74675 0.79302 0.27047 0.0
H1068 H 0.74315 0.83121 0.22964 0.0
C1069 C 0.69521 0.87372 0.2846 0.0
C1070 C 0.45597 0.32931 0.30172 0.0
C1071 C 0.42755 0.32635 0.32053 0.0
H1072 H 0.48558 0.308 0.26349 0.0
C1073 C 0.40871 0.2972 0.31669 0.0
H1074 H 0.47091 0.35155 0.30398 0.0
C1075 C 0.41713 0.27235 0.29394 0.0
C1076 C 0.44452 0.27595 0.27391 0.0
H1077 H 0.38674 0.29393 0.3308 0.0
H1078 H 0.40136 0.2508 0.29147 0.0
C1079 C 0.46429 0.3044 0.27847 0.0
C1080 C 0.45832 0.36754 0.83343 0.0
C1081 C 0.46076 0.33314 0.82455 0.0
H1082 H 0.45044 0.41762 0.82039 0.0
C1083 C 0.45838 0.32322 0.7937 0.0
H1084 H 0.4601 0.37602 0.85694 0.0
C1085 C 0.45262 0.34722 0.77241 0.0
C1086 C 0.44916 0.38162 0.7816 0.0
H1087 H 0.46006 0.29679 0.78617 0.0
H1088 H 0.44991 0.33872 0.74907 0.0
C1089 C 0.45274 0.3914 0.8123 0.0
C1090 C 0.7383 0.74487 0.80361 0.0
C1091 C 0.73401 0.77998 0.80613 0.0
H1092 H 0.74591 0.70079 0.77404 0.0
C1093 C 0.73506 0.79794 0.77938 0.0
H1094 H 0.73756 0.73031 0.82373 0.0
C1095 C 0.74013 0.78093 0.75064 0.0
C1096 C 0.74478 0.7458 0.74828 0.0
H1097 H 0.73185 0.82508 0.78066 0.0
H1098 H 0.74059 0.79519 0.73035 0.0
C1099 C 0.74354 0.72803 0.77508 0.0
C1100 C 0.71421 0.26222 0.29018 0.0
C1101 C 0.73915 0.28154 0.30145 0.0
H1102 H 0.69748 0.23304 0.25241 0.0
C1103 C 0.76739 0.28557 0.28255 0.0
H1104 H 0.69215 0.2588 0.30413 0.0
C1105 C 0.77063 0.27041 0.253 0.0
C1106 C 0.74553 0.2513 0.24175 0.0
H1107 H 0.78703 0.30037 0.29064 0.0
H1108 H 0.79256 0.27389 0.23888 0.0
C1109 C 0.71724 0.24761 0.26055 0.0
C1110 C 0.4536 0.89093 0.31394 0.0
C1111 C 0.44979 0.88125 0.28326 0.0
H1112 H 0.46128 0.87537 0.35845 0.0
C1113 C 0.45315 0.84688 0.27396 0.0
H1114 H 0.45138 0.91712 0.3221 0.0
C1115 C 0.45906 0.82279 0.29511 0.0
C1116 C 0.46168 0.8326 0.32594 0.0
H1117 H 0.45025 0.83846 0.25063 0.0
H1118 H 0.46065 0.79637 0.28751 0.0
C1119 C 0.45933 0.86697 0.33494 0.0
C1120 C 0.20575 1.01984 0.45465 0.0
C1121 C 0.22194 0.99539 0.43495 0.0
H1122 H 0.19343 0.07189 0.46383 0.0
C1123 C 0.23844 1.0062 0.40812 0.0
H1124 H 0.19291 1.01271 0.47563 0.0
C1125 C 0.23829 1.04055 0.40113 0.0
C1126 C 0.22213 0.0648 0.42109 0.0
H1127 H 0.25116 0.98815 0.39246 0.0
H1128 H 0.25107 1.04818 0.38029 0.0
C1129 C 0.20604 1.05396 0.44794 0.0
C1130 C 1.07339 0.1893 0.413 0.0
C1131 C 1.05746 0.21961 0.40871 0.0
H1132 H 0.11825 0.16358 0.41255 0.0
C1133 C 1.07643 0.24805 0.40124 0.0
H1134 H 1.05987 0.1668 0.41872 0.0
C1135 C 0.1099 0.24634 0.39804 0.0
C1136 C 0.1259 0.21598 0.40176 0.0
H1137 H 1.06542 0.272 0.39786 0.0
H1138 H 0.12323 0.26891 0.39217 0.0
C1139 C 0.10703 0.18745 0.40933 0.0
C1140 C 0.94395 0.06836 0.41088 0.0
C1141 C 0.96548 0.08071 0.43143 0.0
H1142 H 0.92295 1.0253 0.38904 0.0
C1143 C 0.98361 1.05692 0.44529 0.0
H1144 H 0.92966 0.08567 0.39965 0.0
C1145 C 0.97975 1.02186 0.4393 0.0
C1146 C 0.95773 1.00945 0.41913 0.0
H1147 H 1.00053 0.06534 0.46127 0.0
H1148 H 0.99363 1.00453 0.45092 0.0
C1149 C 0.9402 1.03343 0.40478 0.0
C1150 C 0.08873 0.90151 0.4544 0.0
C1151 C 1.06636 0.88461 0.43696 0.0
H1152 H 0.1371 0.90748 0.46467 0.0
C1153 C 1.07771 0.85884 0.41565 0.0
H1154 H 1.08128 0.92141 0.47115 0.0
C1155 C 0.11053 0.85065 0.41181 0.0
C1156 C 0.13283 0.86796 0.42924 0.0
H1157 H 1.06132 0.84518 0.4018 0.0
H1158 H 0.11841 0.83098 0.39501 0.0
C1159 C 0.12114 0.89338 0.45067 0.0
C1160 C 0.24303 0.10739 0.65329 0.0
C1161 C 0.26593 0.11474 0.674 0.0
H1162 H 0.20829 0.07192 0.63801 0.0
C1163 C 0.27176 0.09083 0.69528 0.0
H1164 H 0.23855 0.12502 0.63626 0.0
C1165 C 0.25492 1.06039 0.69606 0.0
C1166 C 0.23176 1.05308 0.67562 0.0
H1167 H 0.28935 0.09559 0.71155 0.0
H1168 H 0.26 1.04267 0.71286 0.0
C1169 C 0.22594 0.07688 0.65418 0.0
C1170 C 0.0895 0.16829 0.65233 0.0
C1171 C 1.07556 0.17412 0.68207 0.0
H1172 H 0.13202 0.15683 0.62404 0.0
C1173 C 0.09324 0.16784 0.7067 0.0
H1174 H 1.0761 0.17223 0.63294 0.0
C1175 C 0.12542 0.15904 0.70161 0.0
C1176 C 0.14007 0.15607 0.67183 0.0
H1177 H 1.08279 0.17169 0.72984 0.0
H1178 H 0.1393 0.15701 0.72099 0.0
C1179 C 0.1214 0.159 0.64724 0.0
C1180 C 0.92095 0.10238 0.71336 0.0
C1181 C 0.94173 0.10564 0.68717 0.0
H1182 H 0.89333 0.06877 0.74143 0.0
C1183 C 0.94711 0.07744 0.66672 0.0
H1184 H 0.91599 0.12371 0.72936 0.0
C1185 C 0.93378 1.04598 0.67347 0.0
C1186 C 0.91506 1.04223 0.70086 0.0
H1187 H 0.96274 0.07928 0.64614 0.0
H1188 H 0.93996 1.02426 0.65829 0.0
C1189 C 0.90786 0.07093 0.7202 0.0
C1190 C 1.04314 0.98192 0.7206 0.0
C1191 C 1.02996 0.97075 0.69364 0.0
H1192 H 1.08615 0.99021 0.74289 0.0
C1193 C 1.04993 0.96395 0.66714 0.0
H1194 H 1.02802 0.98738 0.74128 0.0
C1195 C 1.08275 0.9655 0.66808 0.0
C1196 C 0.09609 0.97391 0.69552 0.0
H1197 H 1.04026 0.95564 0.64601 0.0
H1198 H 0.09768 0.95842 0.64761 0.0
C1199 C 1.07623 0.98353 0.72153 0.0
C1200 C 0.43065 0.18046 0.08981 0.0
C1201 C 0.44867 0.20483 0.10529 0.0
H1202 H 0.41787 0.15952 1.04656 0.0
C1203 C 0.46753 0.22761 0.088 0.0
H1204 H 0.41594 0.1625 0.10234 0.0
C1205 C 0.46835 0.22616 0.05618 0.0
C1206 C 0.45066 0.20162 1.0407 0.0
H1207 H 0.48164 0.24684 0.09906 0.0
H1208 H 0.48307 0.24414 1.04367 0.0
C1209 C 0.43182 0.17873 0.05785 0.0
C1210 C 0.9122 0.42743 1.04517 0.0
C1211 C 0.93539 0.40398 1.03347 0.0
H1212 H 0.89013 0.45429 0.08448 0.0
C1213 C 0.9525 0.38691 1.05401 0.0
H1214 H 0.8985 0.44091 1.03004 0.0
C1215 C 0.94734 0.39428 0.08558 0.0
C1216 C 0.92529 0.41917 0.09705 0.0
H1217 H 0.97049 0.36862 1.04565 0.0
H1218 H 0.96173 0.38182 0.1008 0.0
C1219 C 0.90736 0.43506 0.07646 0.0
C1220 C 0.75106 0.93638 1.05321 0.0
C1221 C 0.73104 0.91121 1.04156 0.0
H1222 H 0.76474 0.96477 0.09274 0.0
C1223 C 0.70829 0.89577 0.06142 0.0
H1224 H 0.76873 0.94877 1.03831 0.0
C1225 C 0.70559 0.90535 0.09244 0.0
C1226 C 0.72598 0.93014 0.10425 0.0
H1227 H 0.69243 0.87645 1.05295 0.0
H1228 H 0.6879 0.89288 0.10724 0.0
C1229 C 0.74874 0.94557 0.08431 0.0
C1230 C 0.21415 0.72513 1.05306 0.0
C1231 C 0.24445 0.71548 0.06043 0.0
H1232 H 0.18246 0.72957 1.018 0.0
C1233 C 0.26764 0.70676 1.03656 0.0
H1234 H 0.19571 0.73199 0.0708 0.0
C1235 C 0.2601 0.70553 1.00621 0.0
C1236 C 0.22909 0.71269 0.99901 0.0
H1237 H 0.2913 0.69938 1.04138 0.0
H1238 H 0.27812 0.69715 0.98859 0.0
C1239 C 0.20653 0.72362 1.02272 0.0
C1240 C 0.41018 0.9276 1.04829 0.0
C1241 C 0.43344 0.90426 1.03653 0.0
H1242 H 0.38805 0.95427 0.08768 0.0
C1243 C 0.45055 0.8871 0.05701 0.0
H1244 H 0.39648 0.94113 1.03319 0.0
C1245 C 0.44536 0.89433 0.08859 0.0
C1246 C 0.42327 0.91915 0.10012 0.0
H1247 H 0.46859 0.86889 1.0486 0.0
H1248 H 0.45978 0.88185 0.10377 0.0
C1249 C 0.40531 0.93508 0.07959 0.0
C1250 C 0.25101 0.44304 0.08481 0.0
C1251 C 0.22724 0.42887 0.10456 0.0
H1252 H 0.27209 0.44484 1.03907 0.0
C1253 C 0.20623 0.40479 0.09265 0.0
H1254 H 0.26753 0.46166 0.09329 0.0
C1255 C 0.20921 0.39475 0.06172 0.0
C1256 C 0.23294 0.40897 1.04205 0.0
H1257 H 0.18775 0.39329 0.1073 0.0
H1258 H 0.19277 0.37609 1.05316 0.0
C1259 C 0.25368 0.43335 1.05381 0.0
C1260 C 0.7613 0.21133 1.03667 0.0
C1261 C 0.7373 0.21485 0.06072 0.0
H1262 H 0.77257 0.20404 0.98859 0.0
C1263 C 0.70549 0.21718 1.05367 0.0
H1264 H 0.78606 0.20959 1.04127 0.0
C1265 C 0.69771 0.21358 1.02343 0.0
C1266 C 0.72158 0.20799 0.9995 0.0
H1267 H 0.68639 0.2198 0.0716 0.0
H1268 H 0.67284 0.21384 1.01892 0.0
C1269 C 0.75356 0.20817 1.00641 0.0
C1270 C 0.93172 0.67829 0.05543 0.0
C1271 C 0.95081 0.70095 1.03826 0.0
H1272 H 0.91559 0.66231 0.09993 0.0
C1273 C 0.96874 0.72529 1.05369 0.0
H1274 H 0.91757 0.65924 1.04417 0.0
C1275 C 0.96789 0.7268 0.0855 0.0
C1276 C 0.94874 0.70427 0.10282 0.0
H1277 H 0.98367 0.74308 1.04115 0.0
H1278 H 0.98217 0.74589 0.09654 0.0
C1279 C 0.93052 0.68008 0.08738 0.0
C1280 C 1.0765 0.48497 0.22234 0.0
C1281 C 0.09623 0.4755 0.1962 0.0
H1282 H 1.02837 0.48877 0.24231 0.0
C1283 C 1.08275 0.46731 0.16879 0.0
H1284 H 1.08655 0.49149 0.24367 0.0
C1285 C 1.04991 0.4658 0.168 0.0
C1286 C 1.03008 0.47244 0.19461 0.0
H1287 H 0.09757 0.46035 0.14822 0.0
H1288 H 1.04012 0.45764 0.14689 0.0
C1289 C 1.04339 0.48344 0.22154 0.0
C1290 C 0.11073 0.74708 0.90017 0.0
C1291 C 0.12657 0.71635 0.90266 0.0
H1292 H 1.06642 0.77325 0.90115 0.0
C1293 C 0.10757 0.68763 0.90933 0.0
H1294 H 0.12415 0.76983 0.89506 0.0
C1295 C 1.07395 0.68966 0.9132 0.0
C1296 C 1.05818 0.72037 0.91009 0.0
H1297 H 0.11867 0.66347 0.9116 0.0
H1298 H 1.06031 0.667 0.91811 0.0
C1299 C 1.0773 0.749 0.90362 0.0
C1300 C 0.47793 1.02311 0.94314 0.0
C1301 C 0.4567 1.01088 0.92213 0.0
H1302 H 0.49843 0.06638 0.96564 0.0
C1303 C 0.44018 1.03498 0.90695 0.0
H1304 H 0.49104 1.00568 0.95539 0.0
C1305 C 0.4442 0.06991 0.91302 0.0
C1306 C 0.46503 0.08209 0.93433 0.0
H1307 H 0.4235 1.02697 0.89061 0.0
H1308 H 0.43071 0.08737 0.90114 0.0
C1309 C 0.4821 1.05812 0.94905 0.0
C1310 C 0.10944 0.35184 0.91159 0.0
C1311 C 0.13181 0.36877 0.9292 0.0
H1312 H 1.0602 0.34671 0.90161 0.0
C1313 C 0.1202 0.39393 0.95093 0.0
H1314 H 0.11726 0.33239 0.89454 0.0
C1315 C 1.08782 0.40215 0.95481 0.0
C1316 C 1.06538 0.3856 0.93722 0.0
H1317 H 0.13621 0.40776 0.96508 0.0
H1318 H 1.08044 0.42182 0.97181 0.0
C1319 C 1.07664 0.3601 0.91558 0.0
C1320 C 0.7507 1.01202 0.9234 0.0
C1321 C 0.72157 0.99434 0.92399 0.0
H1322 H 0.77439 1.06019 0.91926 0.0
C1323 C 0.69399 1.01196 0.91839 0.0
H1324 H 0.77228 0.99924 0.9279 0.0
C1325 C 0.69526 1.04649 0.91298 0.0
C1326 C 0.724 0.06458 0.91378 0.0
H1327 H 0.67116 0.9991 0.91871 0.0
H1328 H 0.67347 1.05926 0.90911 0.0
C1329 C 0.75182 1.04694 0.91873 0.0
C1330 C 0.09449 0.66896 0.20634 0.0
C1331 C 1.077 0.67599 0.18177 0.0
H1332 H 0.14034 0.65718 0.2206 0.0
C1333 C 0.091 0.67058 0.15201 0.0
H1334 H 1.08397 0.67246 0.22949 0.0
C1335 C 0.12279 0.6609 0.14689 0.0
C1336 C 0.14132 0.65718 0.17147 0.0
H1337 H 1.07773 0.67508 0.13266 0.0
H1338 H 0.13348 0.65902 0.1237 0.0
C1339 C 0.12657 0.6598 0.20123 0.0
C1340 C 0.40811 0.07353 0.22209 0.0
C1341 C 0.41557 1.04469 0.20303 0.0
H1342 H 0.41636 0.12629 0.23112 0.0
C1343 C 0.43487 1.04811 0.17594 0.0
H1344 H 0.39311 0.07159 0.24307 0.0
C1345 C 0.44854 0.07943 0.16927 0.0
C1346 C 0.44289 0.10777 0.1895 0.0
H1347 H 0.44121 1.02624 0.161 0.0
H1348 H 0.46461 0.08104 0.14895 0.0
C1349 C 0.42154 0.10483 0.21533 0.0
C1350 C 0.72606 0.07633 0.153 0.0
C1351 C 0.73152 1.05305 0.17497 0.0
H1352 H 0.73912 0.12392 0.13424 0.0
C1353 C 0.75454 1.0607 0.1955 0.0
H1354 H 0.70857 0.07107 0.13672 0.0
C1355 C 0.77153 0.09104 0.19431 0.0
C1356 C 0.76596 0.11447 0.17254 0.0
H1357 H 0.75936 1.04336 0.21269 0.0
H1358 H 0.78894 0.09614 0.21069 0.0
C1359 C 0.74329 0.10671 0.15169 0.0
C1360 C 0.23798 0.54075 0.90112 0.0
C1361 C 0.22217 0.5651 0.92123 0.0
H1362 H 0.25027 0.48822 0.89227 0.0
C1363 C 0.20614 0.55436 0.94814 0.0
H1364 H 0.25069 0.5483 0.88023 0.0
C1365 C 0.20555 0.52023 0.95477 0.0
C1366 C 0.22138 0.49568 0.93493 0.0
H1367 H 0.1938 0.5724 0.96414 0.0
H1368 H 0.19276 0.51317 0.9758 0.0
C1369 C 0.23782 0.50637 0.90804 0.0
C1370 C 0.98217 0.55784 0.94642 0.0
C1371 C 0.96482 0.58166 0.9318 0.0
H1372 H 0.99173 0.50548 0.95256 0.0
C1373 C 0.94413 0.56929 0.91043 0.0
H1374 H 0.99841 0.56623 0.96305 0.0
C1375 C 0.94054 0.53433 0.90421 0.0
C1376 C 0.95735 0.51036 0.91927 0.0
H1377 H 0.93044 0.58663 0.89862 0.0
H1378 H 0.92396 0.52617 0.88782 0.0
C1379 C 0.97842 0.52279 0.94036 0.0
C1380 C 0.25572 0.56075 0.19633 0.0
C1381 C 0.23251 0.55361 0.1759 0.0
H1382 H 0.29037 0.59572 0.2118 0.0
C1383 C 0.22688 0.57744 0.15443 0.0
H1384 H 0.26067 0.543 0.21315 0.0
C1385 C 0.24417 0.60782 0.15352 0.0
C1386 C 0.26709 0.61502 0.17423 0.0
H1387 H 0.20921 0.57261 0.13827 0.0
H1388 H 0.23981 0.62547 0.13647 0.0
C1389 C 0.27277 0.59107 0.19553 0.0
C1390 C 0.93575 0.54768 0.17338 0.0
C1391 C 0.91611 0.54434 0.20029 0.0
H1392 H 0.96576 0.58054 0.14657 0.0
C1393 C 0.90845 0.57325 0.2192 0.0
H1394 H 0.94227 0.52577 0.15857 0.0
C1395 C 0.92194 0.60453 0.21247 0.0
C1396 C 0.94357 0.60741 0.18682 0.0
H1397 H 0.89321 0.57138 0.24004 0.0
H1398 H 0.91655 0.62604 0.22814 0.0
C1399 C 0.94947 0.57899 0.16674 0.0
C1400 C 0.4325 0.67962 0.59084 0.0
C1401 C 0.45055 0.70407 0.6062 0.0
H1402 H 0.41952 0.65859 0.5477 0.0
C1403 C 0.46927 0.72687 0.5888 0.0
H1404 H 0.41791 0.66164 0.60346 0.0
C1405 C 0.46988 0.72538 0.55699 0.0
C1406 C 0.45215 0.70077 0.54163 0.0
H1407 H 0.48339 0.74616 0.59977 0.0
H1408 H 0.48449 0.74339 0.5444 0.0
C1409 C 0.43349 0.67784 0.55889 0.0
C1410 C 0.91299 0.92805 0.54384 0.0
C1411 C 0.93592 0.90426 0.53226 0.0
H1412 H 0.89067 0.95478 0.5831 0.0
C1413 C 0.95244 0.88668 0.55289 0.0
H1414 H 0.89975 0.94193 0.52861 0.0
C1415 C 0.94691 0.89377 0.58445 0.0
C1416 C 0.92505 0.91887 0.59586 0.0
H1417 H 0.97022 0.86811 0.54462 0.0
H1418 H 0.9608 0.8808 0.59976 0.0
C1419 C 0.90775 0.93537 0.57514 0.0
C1420 C 0.7493 0.44537 0.5834 0.0
C1421 C 0.72646 0.43008 0.60334 0.0
H1422 H 0.76955 0.44814 0.53744 0.0
C1423 C 0.70624 0.40507 0.59165 0.0
H1424 H 0.76517 0.46474 0.59177 0.0
C1425 C 0.70917 0.39514 0.56072 0.0
C1426 C 0.73197 0.41046 0.54084 0.0
H1427 H 0.68849 0.39269 0.60646 0.0
H1428 H 0.69341 0.37567 0.55233 0.0
C1429 C 0.75185 0.43585 0.55236 0.0
C1430 C 0.2128 0.2247 0.55282 0.0
C1431 C 0.2431 0.21521 0.56033 0.0
H1432 H 0.18126 0.22902 0.51762 0.0
C1433 C 0.26643 0.20665 0.53654 0.0
H1434 H 0.19425 0.23144 0.5705 0.0
C1435 C 0.25904 0.20541 0.50614 0.0
C1436 C 0.22805 0.21242 0.4988 0.0
H1437 H 0.2901 0.19941 0.54145 0.0
H1438 H 0.27718 0.19716 0.48858 0.0
C1439 C 0.20533 0.22319 0.52244 0.0
C1440 C 0.40794 0.43721 0.57709 0.0
C1441 C 0.42489 0.4203 0.5978 0.0
H1442 H 0.3998 0.44372 0.5306 0.0
C1443 C 0.44588 0.39437 0.58645 0.0
H1444 H 0.39156 0.45728 0.58504 0.0
C1445 C 0.45102 0.38691 0.55489 0.0
C1446 C 0.43491 0.40493 0.53424 0.0
H1447 H 0.45953 0.38113 0.60177 0.0
H1448 H 0.46823 0.36776 0.54663 0.0
C1449 C 0.41271 0.42948 0.54581 0.0
C1450 C 0.2099 0.89428 0.56156 0.0
C1451 C 0.23372 0.90848 0.54199 0.0
H1452 H 0.18829 0.89276 0.60708 0.0
C1453 C 0.25449 0.93276 0.55384 0.0
H1454 H 0.19343 0.87569 0.55293 0.0
C1455 C 0.25176 0.94237 0.58486 0.0
C1456 C 0.2279 0.92823 0.60451 0.0
H1457 H 0.27298 0.94422 0.53917 0.0
H1458 H 0.26831 0.96092 0.59342 0.0
C1459 C 0.20685 0.90425 0.59251 0.0
C1460 C 0.70153 0.71255 0.52482 0.0
C1461 C 0.72486 0.70589 0.50059 0.0
H1462 H 0.69112 0.71957 0.57309 0.0
C1463 C 0.75694 0.70479 0.50706 0.0
H1464 H 0.6766 0.71377 0.52066 0.0
C1465 C 0.76521 0.70783 0.53717 0.0
C1466 C 0.7417 0.71255 0.56153 0.0
H1467 H 0.77556 0.69979 0.48903 0.0
H1468 H 0.78998 0.7051 0.54143 0.0
C1469 C 0.70987 0.71607 0.55492 0.0
C1470 C 0.92971 0.17886 0.58724 0.0
C1471 C 0.94788 0.20305 0.60275 0.0
H1472 H 0.9169 0.15805 0.54399 0.0
C1473 C 0.96706 0.22561 0.58551 0.0
H1474 H 0.91477 0.16107 0.59975 0.0
C1475 C 0.96798 0.22415 0.55369 0.0
C1476 C 0.9501 0.1998 0.5382 0.0
H1477 H 0.98129 0.2447 0.59661 0.0
H1478 H 0.98292 0.24197 0.5412 0.0
C1479 C 0.931 0.1771 0.5553 0.0
C1480 C 0.48386 0.55708 0.44791 0.0
C1481 C 0.46608 0.58127 0.43417 0.0
H1482 H 0.49323 0.50448 0.45323 0.0
C1483 C 0.44443 0.56938 0.41353 0.0
H1484 H 0.50085 0.56511 0.46395 0.0
C1485 C 0.44027 0.53453 0.40722 0.0
C1486 C 0.45747 0.51018 0.42144 0.0
H1487 H 0.43039 0.58701 0.4024 0.0
H1488 H 0.42295 0.52677 0.39142 0.0
C1489 C 0.47958 0.52212 0.44171 0.0
C1490 C 0.75142 0.545 0.41945 0.0
C1491 C 0.7241 0.56283 0.41335 0.0
H1492 H 0.77116 0.49705 0.42883 0.0
C1493 C 0.69551 0.54481 0.41085 0.0
H1494 H 0.77388 0.55818 0.42127 0.0
C1495 C 0.69385 0.51013 0.41565 0.0
C1496 C 0.72092 0.4923 0.42234 0.0
H1497 H 0.6741 0.55773 0.40605 0.0
H1498 H 0.67111 0.49731 0.41455 0.0
C1499 C 0.74995 0.50997 0.42352 0.0
C1500 C 0.45134 0.57911 0.66918 0.0
C1501 C 0.44542 0.60744 0.68937 0.0
H1502 H 0.44341 0.52611 0.6604 0.0
C1503 C 0.42307 0.60472 0.71449 0.0
H1504 H 0.4682 0.58055 0.6494 0.0
C1505 C 0.40879 0.57364 0.72061 0.0
C1506 C 0.4164 0.54478 0.70162 0.0
H1507 H 0.41765 0.62618 0.73022 0.0
H1508 H 0.39296 0.57186 0.74108 0.0
C1509 C 0.43685 0.54801 0.67522 0.0
C1510 C 0.75573 0.55966 0.69369 0.0
C1511 C 0.73248 0.55319 0.67323 0.0
H1512 H 0.79141 0.59319 0.70895 0.0
C1513 C 0.72783 0.57694 0.65138 0.0
H1514 H 0.75996 0.54199 0.7108 0.0
C1515 C 0.74626 0.60661 0.65014 0.0
C1516 C 0.76926 0.61307 0.67091 0.0
H1517 H 0.71015 0.57253 0.63515 0.0
H1518 H 0.74288 0.6242 0.63277 0.0
C1519 C 0.77384 0.58915 0.69256 0.0
C1520 C 0.57724 0.24944 0.90214 0.0
C1521 C 0.55839 0.22124 0.91063 0.0
H1522 H 0.62391 0.27023 0.89213 0.0
C1523 C 0.57453 0.19136 0.91595 0.0
H1524 H 0.5661 0.27307 0.89796 0.0
C1525 C 0.60819 0.18964 0.91223 0.0
C1526 C 0.62692 0.2179 0.90356 0.0
H1527 H 0.56114 0.16905 0.92248 0.0
H1528 H 0.61954 0.16605 0.91618 0.0
C1529 C 0.61072 0.24788 0.89888 0.0
C1530 C 0.61871 0.89586 0.95263 0.0
C1531 C 0.62975 0.86901 0.93247 0.0
H1532 H 0.57937 0.92531 0.97227 0.0
C1533 C 0.60696 0.85061 0.91648 0.0
H1534 H 0.6351 0.91076 0.96553 0.0
C1535 C 0.57428 0.85916 0.92043 0.0
C1536 C 0.56355 0.88633 0.94047 0.0
H1537 H 0.61438 0.82982 0.90067 0.0
H1538 H 0.5575 0.84462 0.90771 0.0
C1539 C 0.58638 0.90432 0.95652 0.0
C1540 C 0.58937 0.16634 0.15499 0.0
C1541 C 0.57599 0.17365 0.18471 0.0
H1542 H 0.63123 0.15271 0.12657 0.0
C1543 C 0.59373 0.16757 0.20935 0.0
H1544 H 0.57584 0.17004 0.13564 0.0
C1545 C 0.6256 0.1577 0.20417 0.0
C1546 C 0.63985 0.15343 0.17431 0.0
H1547 H 0.58364 0.17249 0.23249 0.0
H1548 H 0.63968 0.156 0.22345 0.0
C1549 C 0.62094 0.15591 0.14983 0.0
C1550 C 0.57611 0.98476 0.22306 0.0
C1551 C 0.59555 0.97416 0.19705 0.0
H1552 H 0.52815 0.98962 0.2433 0.0
C1553 C 0.58175 0.96496 0.17001 0.0
H1554 H 0.58641 0.99207 0.2441 0.0
C1555 C 0.54889 0.96365 0.16952 0.0
C1556 C 0.52933 0.97146 0.19608 0.0
H1557 H 0.59635 0.95713 0.14954 0.0
H1558 H 0.53886 0.95476 0.14872 0.0
C1559 C 0.54296 0.98338 0.22258 0.0
C1560 C 0.54866 0.4643 0.6677 0.0
C1561 C 0.52906 0.47201 0.69426 0.0
H1562 H 0.59615 0.45803 0.64775 0.0
C1563 C 0.54262 0.4841 0.72075 0.0
H1564 H 0.53867 0.45532 0.64692 0.0
C1565 C 0.57575 0.48569 0.72124 0.0
C1566 C 0.59524 0.47513 0.69525 0.0
H1567 H 0.52777 0.49028 0.74146 0.0
H1568 H 0.58601 0.49307 0.74229 0.0
C1569 C 0.58151 0.46583 0.6682 0.0
C1570 C 0.57554 0.6905 0.41735 0.0
C1571 C 0.55945 0.72027 0.41162 0.0
H1572 H 0.62052 0.66522 0.41797 0.0
C1573 C 0.57834 0.74831 0.4028 0.0
H1574 H 0.56213 0.66831 0.42416 0.0
C1575 C 0.61182 0.7467 0.39959 0.0
C1576 C 0.62799 0.71683 0.40469 0.0
H1577 H 0.56724 0.77186 0.39829 0.0
H1578 H 0.62503 0.76893 0.39256 0.0
C1579 C 0.60921 0.68873 0.41371 0.0
C1580 C 0.6196 0.39066 0.45227 0.0
C1581 C 0.63133 0.36724 0.42901 0.0
H1582 H 0.57977 0.41716 0.47471 0.0
C1583 C 0.60903 0.35176 0.4104 0.0
H1584 H 0.63552 0.40327 0.46728 0.0
C1585 C 0.57621 0.35989 0.41485 0.0
C1586 C 0.56487 0.38381 0.43792 0.0
H1587 H 0.61693 0.33366 0.39219 0.0
H1588 H 0.55984 0.34774 0.40002 0.0
C1589 C 0.58722 0.39878 0.45656 0.0
C1590 C 0.5934 0.66901 0.65642 0.0
C1591 C 0.57945 0.67574 0.68603 0.0
H1592 H 0.63583 0.65623 0.62845 0.0
C1593 C 0.59701 0.67 0.71087 0.0
H1594 H 0.58008 0.67255 0.6369 0.0
C1595 C 0.62909 0.66076 0.70605 0.0
C1596 C 0.64376 0.65668 0.67633 0.0
H1597 H 0.58654 0.67455 0.73393 0.0
H1598 H 0.64291 0.65912 0.72551 0.0
C1599 C 0.62519 0.65918 0.65161 0.0
loop_
_geom_bond_atom_site_label_1
_geom_bond_atom_site_label_2
_geom_bond_distance
_geom_bond_site_symmetry_2
_ccdc_geom_bond_type
O0 Tb1 2.506 . S
O0 C14 1.265 . S
Tb1 O0 2.506 . S
Tb1 O6 2.312 . S
Tb1 O10 2.271 . S
Tb1 O12 2.338 . S
Tb1 O19 2.441 . S
C2 O10 1.252 . S
C2 O11 1.253 . S
O3 Tb4 2.271 . S
O3 C13 1.252 . S
Tb4 O3 2.271 . S
Tb4 O7 2.338 . S
Tb4 O11 2.312 . S
Tb4 O15 2.441 . S
Tb4 O16 2.506 . S
C5 O15 1.244 . S
C5 O16 1.265 . S
O6 Tb1 2.312 . S
O6 C13 1.253 . S
O7 Tb4 2.338 . S
O7 C8 1.258 . S
C8 O7 1.258 . S
C8 O9 1.251 . S
O9 C8 1.251 . S
O10 Tb1 2.271 . S
O10 C2 1.252 . S
O11 C2 1.253 . S
O11 Tb4 2.312 . S
O12 Tb1 2.338 . S
O12 C17 1.258 . S
C13 O3 1.252 . S
C13 O6 1.253 . S
C14 O0 1.265 . S
C14 O19 1.244 . S
O15 Tb4 2.441 . S
O15 C5 1.244 . S
O16 Tb4 2.506 . S
O16 C5 1.265 . S
C17 O12 1.258 . S
C17 O18 1.251 . S
O18 C17 1.251 . S
O19 Tb1 2.441 . S
O19 C14 1.244 . S
O20 Tb21 2.506 . S
O20 C34 1.265 . S
Tb21 O20 2.506 . S
Tb21 O26 2.312 . S
Tb21 O30 2.271 . S
Tb21 O32 2.338 . S
Tb21 O39 2.441 . S
C22 O30 1.252 . S
C22 O31 1.253 . S
O23 Tb24 2.271 . S
O23 C33 1.252 . S
Tb24 O23 2.271 . S
Tb24 O27 2.338 . S
Tb24 O31 2.312 . S
Tb24 O35 2.441 . S
Tb24 O36 2.506 . S
C25 O35 1.244 . S
C25 O36 1.265 . S
O26 Tb21 2.312 . S
O26 C33 1.253 . S
O27 Tb24 2.338 . S
O27 C28 1.258 . S
C28 O27 1.258 . S
C28 O29 1.251 . S
O29 C28 1.251 . S
O30 Tb21 2.271 . S
O30 C22 1.252 . S
O31 C22 1.253 . S
O31 Tb24 2.312 . S
O32 Tb21 2.338 . S
O32 C37 1.258 . S
C33 O23 1.252 . S
C33 O26 1.253 . S
C34 O20 1.265 . S
C34 O39 1.244 . S
O35 Tb24 2.441 . S
O35 C25 1.244 . S
O36 Tb24 2.506 . S
O36 C25 1.265 . S
C37 O32 1.258 . S
C37 O38 1.251 . S
O38 C37 1.251 . S
O39 Tb21 2.441 . S
O39 C34 1.244 . S
O40 Tb41 2.506 . S
O40 C54 1.265 . S
Tb41 O40 2.506 . S
Tb41 O46 2.312 . S
Tb41 O50 2.271 . S
Tb41 O52 2.338 . S
Tb41 O59 2.441 . S
C42 O50 1.252 . S
C42 O51 1.253 . S
O43 Tb44 2.271 . S
O43 C53 1.252 . S
Tb44 O43 2.271 . S
Tb44 O47 2.338 . S
Tb44 O51 2.312 . S
Tb44 O55 2.441 . S
Tb44 O56 2.506 . S
C45 O55 1.244 . S
C45 O56 1.265 . S
O46 Tb41 2.312 . S
O46 C53 1.253 . S
O47 Tb44 2.338 . S
O47 C48 1.258 . S
C48 O47 1.258 . S
C48 O49 1.251 . S
O49 C48 1.251 . S
O50 Tb41 2.271 . S
O50 C42 1.252 . S
O51 C42 1.253 . S
O51 Tb44 2.312 . S
O52 Tb41 2.338 . S
O52 C57 1.258 . S
C53 O43 1.252 . S
C53 O46 1.253 . S
C54 O40 1.265 . S
C54 O59 1.244 . S
O55 Tb44 2.441 . S
O55 C45 1.244 . S
O56 Tb44 2.506 . S
O56 C45 1.265 . S
C57 O52 1.258 . S
C57 O58 1.251 . S
O58 C57 1.251 . S
O59 Tb41 2.441 . S
O59 C54 1.244 . S
O60 Tb61 2.506 . S
O60 C74 1.265 . S
Tb61 O60 2.506 . S
Tb61 O66 2.312 . S
Tb61 O70 2.271 . S
Tb61 O72 2.338 . S
Tb61 O79 2.441 . S
C62 O70 1.252 . S
C62 O71 1.253 . S
O63 Tb64 2.271 . S
O63 C73 1.252 . S
Tb64 O63 2.271 . S
Tb64 O67 2.338 . S
Tb64 O71 2.312 . S
Tb64 O75 2.441 . S
Tb64 O76 2.506 . S
C65 O75 1.244 . S
C65 O76 1.265 . S
O66 Tb61 2.312 . S
O66 C73 1.253 . S
O67 Tb64 2.338 . S
O67 C68 1.258 . S
C68 O67 1.258 . S
C68 O69 1.251 . S
O69 C68 1.251 . S
O70 Tb61 2.271 . S
O70 C62 1.252 . S
O71 C62 1.253 . S
O71 Tb64 2.312 . S
O72 Tb61 2.338 . S
O72 C77 1.258 . S
C73 O63 1.252 . S
C73 O66 1.253 . S
C74 O60 1.265 . S
C74 O79 1.244 . S
O75 Tb64 2.441 . S
O75 C65 1.244 . S
O76 Tb64 2.506 . S
O76 C65 1.265 . S
C77 O72 1.258 . S
C77 O78 1.251 . S
O78 C77 1.251 . S
O79 Tb61 2.441 . S
O79 C74 1.244 . S
O80 Tb81 2.506 . S
O80 C94 1.265 . S
Tb81 O80 2.506 . S
Tb81 O86 2.312 . S
Tb81 O90 2.271 . S
Tb81 O92 2.338 . S
Tb81 O99 2.441 . S
C82 O90 1.252 . S
C82 O91 1.253 . S
O83 Tb84 2.271 . S
O83 C93 1.252 . S
Tb84 O83 2.271 . S
Tb84 O87 2.338 . S
Tb84 O91 2.312 . S
Tb84 O95 2.441 . S
Tb84 O96 2.506 . S
C85 O95 1.244 . S
C85 O96 1.265 . S
O86 Tb81 2.312 . S
O86 C93 1.253 . S
O87 Tb84 2.338 . S
O87 C88 1.258 . S
C88 O87 1.258 . S
C88 O89 1.251 . S
O89 C88 1.251 . S
O90 Tb81 2.271 . S
O90 C82 1.252 . S
O91 C82 1.253 . S
O91 Tb84 2.312 . S
O92 Tb81 2.338 . S
O92 C97 1.258 . S
C93 O83 1.252 . S
C93 O86 1.253 . S
C94 O80 1.265 . S
C94 O99 1.244 . S
O95 Tb84 2.441 . S
O95 C85 1.244 . S
O96 Tb84 2.506 . S
O96 C85 1.265 . S
C97 O92 1.258 . S
C97 O98 1.251 . S
O98 C97 1.251 . S
O99 Tb81 2.441 . S
O99 C94 1.244 . S
O100 Tb101 2.506 . S
O100 C114 1.265 . S
Tb101 O100 2.506 . S
Tb101 O106 2.312 . S
Tb101 O110 2.271 . S
Tb101 O112 2.338 . S
Tb101 O119 2.441 . S
C102 O110 1.252 . S
C102 O111 1.253 . S
O103 Tb104 2.271 . S
O103 C113 1.252 . S
Tb104 O103 2.271 . S
Tb104 O107 2.338 . S
Tb104 O111 2.312 . S
Tb104 O115 2.441 . S
Tb104 O116 2.506 . S
C105 O115 1.244 . S
C105 O116 1.265 . S
O106 Tb101 2.312 . S
O106 C113 1.253 . S
O107 Tb104 2.338 . S
O107 C108 1.258 . S
C108 O107 1.258 . S
C108 O109 1.251 . S
O109 C108 1.251 . S
O110 Tb101 2.271 . S
O110 C102 1.252 . S
O111 C102 1.253 . S
O111 Tb104 2.312 . S
O112 Tb101 2.338 . S
O112 C117 1.258 . S
C113 O103 1.252 . S
C113 O106 1.253 . S
C114 O100 1.265 . S
C114 O119 1.244 . S
O115 Tb104 2.441 . S
O115 C105 1.244 . S
O116 Tb104 2.506 . S
O116 C105 1.265 . S
C117 O112 1.258 . S
C117 O118 1.251 . S
O118 C117 1.251 . S
O119 Tb101 2.441 . S
O119 C114 1.244 . S
O120 Tb121 2.506 . S
O120 C134 1.265 . S
Tb121 O120 2.506 . S
Tb121 O126 2.312 . S
Tb121 O130 2.271 . S
Tb121 O132 2.338 . S
Tb121 O139 2.441 . S
C122 O130 1.252 . S
C122 O131 1.253 . S
O123 Tb124 2.271 . S
O123 C133 1.252 . S
Tb124 O123 2.271 . S
Tb124 O127 2.338 . S
Tb124 O131 2.312 . S
Tb124 O135 2.441 . S
Tb124 O136 2.506 . S
C125 O135 1.244 . S
C125 O136 1.265 . S
O126 Tb121 2.312 . S
O126 C133 1.253 . S
O127 Tb124 2.338 . S
O127 C128 1.258 . S
C128 O127 1.258 . S
C128 O129 1.251 . S
O129 C128 1.251 . S
O130 Tb121 2.271 . S
O130 C122 1.252 . S
O131 C122 1.253 . S
O131 Tb124 2.312 . S
O132 Tb121 2.338 . S
O132 C137 1.258 . S
C133 O123 1.252 . S
C133 O126 1.253 . S
C134 O120 1.265 . S
C134 O139 1.244 . S
O135 Tb124 2.441 . S
O135 C125 1.244 . S
O136 Tb124 2.506 . S
O136 C125 1.265 . S
C137 O132 1.258 . S
C137 O138 1.251 . S
O138 C137 1.251 . S
O139 Tb121 2.441 . S
O139 C134 1.244 . S
O140 Tb141 2.506 . S
O140 C154 1.265 . S
Tb141 O140 2.506 . S
Tb141 O146 2.312 . S
Tb141 O150 2.271 . S
Tb141 O152 2.338 . S
Tb141 O159 2.441 . S
C142 O150 1.252 . S
C142 O151 1.253 . S
O143 Tb144 2.271 . S
O143 C153 1.252 . S
Tb144 O143 2.271 . S
Tb144 O147 2.338 . S
Tb144 O151 2.312 . S
Tb144 O155 2.441 . S
Tb144 O156 2.506 . S
C145 O155 1.244 . S
C145 O156 1.265 . S
O146 Tb141 2.312 . S
O146 C153 1.253 . S
O147 Tb144 2.338 . S
O147 C148 1.258 . S
C148 O147 1.258 . S
C148 O149 1.251 . S
O149 C148 1.251 . S
O150 Tb141 2.271 . S
O150 C142 1.252 . S
O151 C142 1.253 . S
O151 Tb144 2.312 . S
O152 Tb141 2.338 . S
O152 C157 1.258 . S
C153 O143 1.252 . S
C153 O146 1.253 . S
C154 O140 1.265 . S
C154 O159 1.244 . S
O155 Tb144 2.441 . S
O155 C145 1.244 . S
O156 Tb144 2.506 . S
O156 C145 1.265 . S
C157 O152 1.258 . S
C157 O158 1.251 . S
O158 C157 1.251 . S
O159 Tb141 2.441 . S
O159 C154 1.244 . S
O160 Tb161 2.506 . S
O160 C174 1.265 . S
Tb161 O160 2.506 . S
Tb161 O166 2.312 . S
Tb161 O170 2.271 . S
Tb161 O172 2.338 . S
Tb161 O179 2.441 . S
C162 O170 1.252 . S
C162 O171 1.253 . S
O163 Tb164 2.271 . S
O163 C173 1.252 . S
Tb164 O163 2.271 . S
Tb164 O167 2.338 . S
Tb164 O171 2.312 . S
Tb164 O175 2.441 . S
Tb164 O176 2.506 . S
C165 O175 1.244 . S
C165 O176 1.265 . S
O166 Tb161 2.312 . S
O166 C173 1.253 . S
O167 Tb164 2.338 . S
O167 C168 1.258 . S
C168 O167 1.258 . S
C168 O169 1.251 . S
O169 C168 1.251 . S
O170 Tb161 2.271 . S
O170 C162 1.252 . S
O171 C162 1.253 . S
O171 Tb164 2.312 . S
O172 Tb161 2.338 . S
O172 C177 1.258 . S
C173 O163 1.252 . S
C173 O166 1.253 . S
C174 O160 1.265 . S
C174 O179 1.244 . S
O175 Tb164 2.441 . S
O175 C165 1.244 . S
O176 Tb164 2.506 . S
O176 C165 1.265 . S
C177 O172 1.258 . S
C177 O178 1.251 . S
O178 C177 1.251 . S
O179 Tb161 2.441 . S
O179 C174 1.244 . S
O180 Tb181 2.506 . S
O180 C194 1.265 . S
Tb181 O180 2.506 . S
Tb181 O186 2.312 . S
Tb181 O190 2.271 . S
Tb181 O192 2.338 . S
Tb181 O199 2.441 . S
C182 O190 1.252 . S
C182 O191 1.253 . S
O183 Tb184 2.271 . S
O183 C193 1.252 . S
Tb184 O183 2.271 . S
Tb184 O187 2.338 . S
Tb184 O191 2.312 . S
Tb184 O195 2.441 . S
Tb184 O196 2.506 . S
C185 O195 1.244 . S
C185 O196 1.265 . S
O186 Tb181 2.312 . S
O186 C193 1.253 . S
O187 Tb184 2.338 . S
O187 C188 1.258 . S
C188 O187 1.258 . S
C188 O189 1.251 . S
O189 C188 1.251 . S
O190 Tb181 2.271 . S
O190 C182 1.252 . S
O191 C182 1.253 . S
O191 Tb184 2.312 . S
O192 Tb181 2.338 . S
O192 C197 1.258 . S
C193 O183 1.252 . S
C193 O186 1.253 . S
C194 O180 1.265 . S
C194 O199 1.244 . S
O195 Tb184 2.441 . S
O195 C185 1.244 . S
O196 Tb184 2.506 . S
O196 C185 1.265 . S
C197 O192 1.258 . S
C197 O198 1.251 . S
O198 C197 1.251 . S
O199 Tb181 2.441 . S
O199 C194 1.244 . S
O200 Tb201 2.506 . S
O200 C214 1.265 . S
Tb201 O200 2.506 . S
Tb201 O206 2.312 . S
Tb201 O210 2.271 . S
Tb201 O212 2.338 . S
Tb201 O219 2.441 . S
C202 O210 1.252 . S
C202 O211 1.253 . S
O203 Tb204 2.271 . S
O203 C213 1.252 . S
Tb204 O203 2.271 . S
Tb204 O207 2.338 . S
Tb204 O211 2.312 . S
Tb204 O215 2.441 . S
Tb204 O216 2.506 . S
C205 O215 1.244 . S
C205 O216 1.265 . S
O206 Tb201 2.312 . S
O206 C213 1.253 . S
O207 Tb204 2.338 . S
O207 C208 1.258 . S
C208 O207 1.258 . S
C208 O209 1.251 . S
O209 C208 1.251 . S
O210 Tb201 2.271 . S
O210 C202 1.252 . S
O211 C202 1.253 . S
O211 Tb204 2.312 . S
O212 Tb201 2.338 . S
O212 C217 1.258 . S
C213 O203 1.252 . S
C213 O206 1.253 . S
C214 O200 1.265 . S
C214 O219 1.244 . S
O215 Tb204 2.441 . S
O215 C205 1.244 . S
O216 Tb204 2.506 . S
O216 C205 1.265 . S
C217 O212 1.258 . S
C217 O218 1.251 . S
O218 C217 1.251 . S
O219 Tb201 2.441 . S
O219 C214 1.244 . S
O220 Tb221 2.506 . S
O220 C234 1.265 . S
Tb221 O220 2.506 . S
Tb221 O226 2.312 . S
Tb221 O230 2.271 . S
Tb221 O232 2.338 . S
Tb221 O239 2.441 . S
C222 O230 1.252 . S
C222 O231 1.253 . S
O223 Tb224 2.271 . S
O223 C233 1.252 . S
Tb224 O223 2.271 . S
Tb224 O227 2.338 . S
Tb224 O231 2.312 . S
Tb224 O235 2.441 . S
Tb224 O236 2.506 . S
C225 O235 1.244 . S
C225 O236 1.265 . S
O226 Tb221 2.312 . S
O226 C233 1.253 . S
O227 Tb224 2.338 . S
O227 C228 1.258 . S
C228 O227 1.258 . S
C228 O229 1.251 . S
O229 C228 1.251 . S
O230 Tb221 2.271 . S
O230 C222 1.252 . S
O231 C222 1.253 . S
O231 Tb224 2.312 . S
O232 Tb221 2.338 . S
O232 C237 1.258 . S
C233 O223 1.252 . S
C233 O226 1.253 . S
C234 O220 1.265 . S
C234 O239 1.244 . S
O235 Tb224 2.441 . S
O235 C225 1.244 . S
O236 Tb224 2.506 . S
O236 C225 1.265 . S
C237 O232 1.258 . S
C237 O238 1.251 . S
O238 C237 1.251 . S
O239 Tb221 2.441 . S
O239 C234 1.244 . S
O240 Tb241 2.506 . S
O240 C254 1.265 . S
Tb241 O240 2.506 . S
Tb241 O246 2.312 . S
Tb241 O250 2.271 . S
Tb241 O252 2.338 . S
Tb241 O259 2.441 . S
C242 O250 1.252 . S
C242 O251 1.253 . S
O243 Tb244 2.271 . S
O243 C253 1.252 . S
Tb244 O243 2.271 . S
Tb244 O247 2.338 . S
Tb244 O251 2.312 . S
Tb244 O255 2.441 . S
Tb244 O256 2.506 . S
C245 O255 1.244 . S
C245 O256 1.265 . S
O246 Tb241 2.312 . S
O246 C253 1.253 . S
O247 Tb244 2.338 . S
O247 C248 1.258 . S
C248 O247 1.258 . S
C248 O249 1.251 . S
O249 C248 1.251 . S
O250 Tb241 2.271 . S
O250 C242 1.252 . S
O251 C242 1.253 . S
O251 Tb244 2.312 . S
O252 Tb241 2.338 . S
O252 C257 1.258 . S
C253 O243 1.252 . S
C253 O246 1.253 . S
C254 O240 1.265 . S
C254 O259 1.244 . S
O255 Tb244 2.441 . S
O255 C245 1.244 . S
O256 Tb244 2.506 . S
O256 C245 1.265 . S
C257 O252 1.258 . S
C257 O258 1.251 . S
O258 C257 1.251 . S
O259 Tb241 2.441 . S
O259 C254 1.244 . S
O260 Tb261 2.506 . S
O260 C274 1.265 . S
Tb261 O260 2.506 . S
Tb261 O266 2.312 . S
Tb261 O270 2.271 . S
Tb261 O272 2.338 . S
Tb261 O279 2.441 . S
C262 O270 1.252 . S
C262 O271 1.253 . S
O263 Tb264 2.271 . S
O263 C273 1.252 . S
Tb264 O263 2.271 . S
Tb264 O267 2.338 . S
Tb264 O271 2.312 . S
Tb264 O275 2.441 . S
Tb264 O276 2.506 . S
C265 O275 1.244 . S
C265 O276 1.265 . S
O266 Tb261 2.312 . S
O266 C273 1.253 . S
O267 Tb264 2.338 . S
O267 C268 1.258 . S
C268 O267 1.258 . S
C268 O269 1.251 . S
O269 C268 1.251 . S
O270 Tb261 2.271 . S
O270 C262 1.252 . S
O271 C262 1.253 . S
O271 Tb264 2.312 . S
O272 Tb261 2.338 . S
O272 C277 1.258 . S
C273 O263 1.252 . S
C273 O266 1.253 . S
C274 O260 1.265 . S
C274 O279 1.244 . S
O275 Tb264 2.441 . S
O275 C265 1.244 . S
O276 Tb264 2.506 . S
O276 C265 1.265 . S
C277 O272 1.258 . S
C277 O278 1.251 . S
O278 C277 1.251 . S
O279 Tb261 2.441 . S
O279 C274 1.244 . S
O280 Tb281 2.506 . S
O280 C294 1.265 . S
Tb281 O280 2.506 . S
Tb281 O286 2.312 . S
Tb281 O290 2.271 . S
Tb281 O292 2.338 . S
Tb281 O299 2.441 . S
C282 O290 1.252 . S
C282 O291 1.253 . S
O283 Tb284 2.271 . S
O283 C293 1.252 . S
Tb284 O283 2.271 . S
Tb284 O287 2.338 . S
Tb284 O291 2.312 . S
Tb284 O295 2.441 . S
Tb284 O296 2.506 . S
C285 O295 1.244 . S
C285 O296 1.265 . S
O286 Tb281 2.312 . S
O286 C293 1.253 . S
O287 Tb284 2.338 . S
O287 C288 1.258 . S
C288 O287 1.258 . S
C288 O289 1.251 . S
O289 C288 1.251 . S
O290 Tb281 2.271 . S
O290 C282 1.252 . S
O291 C282 1.253 . S
O291 Tb284 2.312 . S
O292 Tb281 2.338 . S
O292 C297 1.258 . S
C293 O283 1.252 . S
C293 O286 1.253 . S
C294 O280 1.265 . S
C294 O299 1.244 . S
O295 Tb284 2.441 . S
O295 C285 1.244 . S
O296 Tb284 2.506 . S
O296 C285 1.265 . S
C297 O292 1.258 . S
C297 O298 1.251 . S
O298 C297 1.251 . S
O299 Tb281 2.441 . S
O299 C294 1.244 . S
O300 Tb301 2.506 . S
O300 C314 1.265 . S
Tb301 O300 2.506 . S
Tb301 O306 2.312 . S
Tb301 O310 2.271 . S
Tb301 O312 2.338 . S
Tb301 O319 2.441 . S
C302 O310 1.252 . S
C302 O311 1.253 . S
O303 Tb304 2.271 . S
O303 C313 1.252 . S
Tb304 O303 2.271 . S
Tb304 O307 2.338 . S
Tb304 O311 2.312 . S
Tb304 O315 2.441 . S
Tb304 O316 2.506 . S
C305 O315 1.244 . S
C305 O316 1.265 . S
O306 Tb301 2.312 . S
O306 C313 1.253 . S
O307 Tb304 2.338 . S
O307 C308 1.258 . S
C308 O307 1.258 . S
C308 O309 1.251 . S
O309 C308 1.251 . S
O310 Tb301 2.271 . S
O310 C302 1.252 . S
O311 C302 1.253 . S
O311 Tb304 2.312 . S
O312 Tb301 2.338 . S
O312 C317 1.258 . S
C313 O303 1.252 . S
C313 O306 1.253 . S
C314 O300 1.265 . S
C314 O319 1.244 . S
O315 Tb304 2.441 . S
O315 C305 1.244 . S
O316 Tb304 2.506 . S
O316 C305 1.265 . S
C317 O312 1.258 . S
C317 O318 1.251 . S
O318 C317 1.251 . S
O319 Tb301 2.441 . S
O319 C314 1.244 . S
O320 Tb321 2.506 . S
O320 C334 1.265 . S
Tb321 O320 2.506 . S
Tb321 O326 2.312 . S
Tb321 O330 2.271 . S
Tb321 O332 2.338 . S
Tb321 O339 2.441 . S
C322 O330 1.252 . S
C322 O331 1.253 . S
O323 Tb324 2.271 . S
O323 C333 1.252 . S
Tb324 O323 2.271 . S
Tb324 O327 2.338 . S
Tb324 O331 2.312 . S
Tb324 O335 2.441 . S
Tb324 O336 2.506 . S
C325 O335 1.244 . S
C325 O336 1.265 . S
O326 Tb321 2.312 . S
O326 C333 1.253 . S
O327 Tb324 2.338 . S
O327 C328 1.258 . S
C328 O327 1.258 . S
C328 O329 1.251 . S
O329 C328 1.251 . S
O330 Tb321 2.271 . S
O330 C322 1.252 . S
O331 C322 1.253 . S
O331 Tb324 2.312 . S
O332 Tb321 2.338 . S
O332 C337 1.258 . S
C333 O323 1.252 . S
C333 O326 1.253 . S
C334 O320 1.265 . S
C334 O339 1.244 . S
O335 Tb324 2.441 . S
O335 C325 1.244 . S
O336 Tb324 2.506 . S
O336 C325 1.265 . S
C337 O332 1.258 . S
C337 O338 1.251 . S
O338 C337 1.251 . S
O339 Tb321 2.441 . S
O339 C334 1.244 . S
O340 Tb341 2.506 . S
O340 C354 1.265 . S
Tb341 O340 2.506 . S
Tb341 O346 2.312 . S
Tb341 O350 2.271 . S
Tb341 O352 2.338 . S
Tb341 O359 2.441 . S
C342 O350 1.252 . S
C342 O351 1.253 . S
O343 Tb344 2.271 . S
O343 C353 1.252 . S
Tb344 O343 2.271 . S
Tb344 O347 2.338 . S
Tb344 O351 2.312 . S
Tb344 O355 2.441 . S
Tb344 O356 2.506 . S
C345 O355 1.244 . S
C345 O356 1.265 . S
O346 Tb341 2.312 . S
O346 C353 1.253 . S
O347 Tb344 2.338 . S
O347 C348 1.258 . S
C348 O347 1.258 . S
C348 O349 1.251 . S
O349 C348 1.251 . S
O350 Tb341 2.271 . S
O350 C342 1.252 . S
O351 C342 1.253 . S
O351 Tb344 2.312 . S
O352 Tb341 2.338 . S
O352 C357 1.258 . S
C353 O343 1.252 . S
C353 O346 1.253 . S
C354 O340 1.265 . S
C354 O359 1.244 . S
O355 Tb344 2.441 . S
O355 C345 1.244 . S
O356 Tb344 2.506 . S
O356 C345 1.265 . S
C357 O352 1.258 . S
C357 O358 1.251 . S
O358 C357 1.251 . S
O359 Tb341 2.441 . S
O359 C354 1.244 . S
O360 Tb361 2.506 . S
O360 C374 1.265 . S
Tb361 O360 2.506 . S
Tb361 O366 2.312 . S
Tb361 O370 2.271 . S
Tb361 O372 2.338 . S
Tb361 O379 2.441 . S
C362 O370 1.252 . S
C362 O371 1.253 . S
O363 Tb364 2.271 . S
O363 C373 1.252 . S
Tb364 O363 2.271 . S
Tb364 O367 2.338 . S
Tb364 O371 2.312 . S
Tb364 O375 2.441 . S
Tb364 O376 2.506 . S
C365 O375 1.244 . S
C365 O376 1.265 . S
O366 Tb361 2.312 . S
O366 C373 1.253 . S
O367 Tb364 2.338 . S
O367 C368 1.258 . S
C368 O367 1.258 . S
C368 O369 1.251 . S
O369 C368 1.251 . S
O370 Tb361 2.271 . S
O370 C362 1.252 . S
O371 C362 1.253 . S
O371 Tb364 2.312 . S
O372 Tb361 2.338 . S
O372 C377 1.258 . S
C373 O363 1.252 . S
C373 O366 1.253 . S
C374 O360 1.265 . S
C374 O379 1.244 . S
O375 Tb364 2.441 . S
O375 C365 1.244 . S
O376 Tb364 2.506 . S
O376 C365 1.265 . S
C377 O372 1.258 . S
C377 O378 1.251 . S
O378 C377 1.251 . S
O379 Tb361 2.441 . S
O379 C374 1.244 . S
O380 Tb381 2.506 . S
O380 C394 1.265 . S
Tb381 O380 2.506 . S
Tb381 O386 2.312 . S
Tb381 O390 2.271 . S
Tb381 O392 2.338 . S
Tb381 O399 2.441 . S
C382 O390 1.252 . S
C382 O391 1.253 . S
O383 Tb384 2.271 . S
O383 C393 1.252 . S
Tb384 O383 2.271 . S
Tb384 O387 2.338 . S
Tb384 O391 2.312 . S
Tb384 O395 2.441 . S
Tb384 O396 2.506 . S
C385 O395 1.244 . S
C385 O396 1.265 . S
O386 Tb381 2.312 . S
O386 C393 1.253 . S
O387 Tb384 2.338 . S
O387 C388 1.258 . S
C388 O387 1.258 . S
C388 O389 1.251 . S
O389 C388 1.251 . S
O390 Tb381 2.271 . S
O390 C382 1.252 . S
O391 C382 1.253 . S
O391 Tb384 2.312 . S
O392 Tb381 2.338 . S
O392 C397 1.258 . S
C393 O383 1.252 . S
C393 O386 1.253 . S
C394 O380 1.265 . S
C394 O399 1.244 . S
O395 Tb384 2.441 . S
O395 C385 1.244 . S
O396 Tb384 2.506 . S
O396 C385 1.265 . S
C397 O392 1.258 . S
C397 O398 1.251 . S
O398 C397 1.251 . S
O399 Tb381 2.441 . S
O399 C394 1.244 . S
O400 Tb401 2.506 . S
O400 C414 1.265 . S
Tb401 O400 2.506 . S
Tb401 O406 2.312 . S
Tb401 O410 2.271 . S
Tb401 O412 2.338 . S
Tb401 O419 2.441 . S
C402 O410 1.252 . S
C402 O411 1.253 . S
O403 Tb404 2.271 . S
O403 C413 1.252 . S
Tb404 O403 2.271 . S
Tb404 O407 2.338 . S
Tb404 O411 2.312 . S
Tb404 O415 2.441 . S
Tb404 O416 2.506 . S
C405 O415 1.244 . S
C405 O416 1.265 . S
O406 Tb401 2.312 . S
O406 C413 1.253 . S
O407 Tb404 2.338 . S
O407 C408 1.258 . S
C408 O407 1.258 . S
C408 O409 1.251 . S
O409 C408 1.251 . S
O410 Tb401 2.271 . S
O410 C402 1.252 . S
O411 C402 1.253 . S
O411 Tb404 2.312 . S
O412 Tb401 2.338 . S
O412 C417 1.258 . S
C413 O403 1.252 . S
C413 O406 1.253 . S
C414 O400 1.265 . S
C414 O419 1.244 . S
O415 Tb404 2.441 . S
O415 C405 1.244 . S
O416 Tb404 2.506 . S
O416 C405 1.265 . S
C417 O412 1.258 . S
C417 O418 1.251 . S
O418 C417 1.251 . S
O419 Tb401 2.441 . S
O419 C414 1.244 . S
O420 Tb421 2.506 . S
O420 C434 1.265 . S
Tb421 O420 2.506 . S
Tb421 O426 2.312 . S
Tb421 O430 2.271 . S
Tb421 O432 2.338 . S
Tb421 O439 2.441 . S
C422 O430 1.252 . S
C422 O431 1.253 . S
O423 Tb424 2.271 . S
O423 C433 1.252 . S
Tb424 O423 2.271 . S
Tb424 O427 2.338 . S
Tb424 O431 2.312 . S
Tb424 O435 2.441 . S
Tb424 O436 2.506 . S
C425 O435 1.244 . S
C425 O436 1.265 . S
O426 Tb421 2.312 . S
O426 C433 1.253 . S
O427 Tb424 2.338 . S
O427 C428 1.258 . S
C428 O427 1.258 . S
C428 O429 1.251 . S
O429 C428 1.251 . S
O430 Tb421 2.271 . S
O430 C422 1.252 . S
O431 C422 1.253 . S
O431 Tb424 2.312 . S
O432 Tb421 2.338 . S
O432 C437 1.258 . S
C433 O423 1.252 . S
C433 O426 1.253 . S
C434 O420 1.265 . S
C434 O439 1.244 . S
O435 Tb424 2.441 . S
O435 C425 1.244 . S
O436 Tb424 2.506 . S
O436 C425 1.265 . S
C437 O432 1.258 . S
C437 O438 1.251 . S
O438 C437 1.251 . S
O439 Tb421 2.441 . S
O439 C434 1.244 . S
O440 Tb441 2.506 . S
O440 C454 1.265 . S
Tb441 O440 2.506 . S
Tb441 O446 2.312 . S
Tb441 O450 2.271 . S
Tb441 O452 2.338 . S
Tb441 O459 2.441 . S
C442 O450 1.252 . S
C442 O451 1.253 . S
O443 Tb444 2.271 . S
O443 C453 1.252 . S
Tb444 O443 2.271 . S
Tb444 O447 2.338 . S
Tb444 O451 2.312 . S
Tb444 O455 2.441 . S
Tb444 O456 2.506 . S
C445 O455 1.244 . S
C445 O456 1.265 . S
O446 Tb441 2.312 . S
O446 C453 1.253 . S
O447 Tb444 2.338 . S
O447 C448 1.258 . S
C448 O447 1.258 . S
C448 O449 1.251 . S
O449 C448 1.251 . S
O450 Tb441 2.271 . S
O450 C442 1.252 . S
O451 C442 1.253 . S
O451 Tb444 2.312 . S
O452 Tb441 2.338 . S
O452 C457 1.258 . S
C453 O443 1.252 . S
C453 O446 1.253 . S
C454 O440 1.265 . S
C454 O459 1.244 . S
O455 Tb444 2.441 . S
O455 C445 1.244 . S
O456 Tb444 2.506 . S
O456 C445 1.265 . S
C457 O452 1.258 . S
C457 O458 1.251 . S
O458 C457 1.251 . S
O459 Tb441 2.441 . S
O459 C454 1.244 . S
O460 Tb461 2.506 . S
O460 C474 1.265 . S
Tb461 O460 2.506 . S
Tb461 O466 2.312 . S
Tb461 O470 2.271 . S
Tb461 O472 2.338 . S
Tb461 O479 2.441 . S
C462 O470 1.252 . S
C462 O471 1.253 . S
O463 Tb464 2.271 . S
O463 C473 1.252 . S
Tb464 O463 2.271 . S
Tb464 O467 2.338 . S
Tb464 O471 2.312 . S
Tb464 O475 2.441 . S
Tb464 O476 2.506 . S
C465 O475 1.244 . S
C465 O476 1.265 . S
O466 Tb461 2.312 . S
O466 C473 1.253 . S
O467 Tb464 2.338 . S
O467 C468 1.258 . S
C468 O467 1.258 . S
C468 O469 1.251 . S
O469 C468 1.251 . S
O470 Tb461 2.271 . S
O470 C462 1.252 . S
O471 C462 1.253 . S
O471 Tb464 2.312 . S
O472 Tb461 2.338 . S
O472 C477 1.258 . S
C473 O463 1.252 . S
C473 O466 1.253 . S
C474 O460 1.265 . S
C474 O479 1.244 . S
O475 Tb464 2.441 . S
O475 C465 1.244 . S
O476 Tb464 2.506 . S
O476 C465 1.265 . S
C477 O472 1.258 . S
C477 O478 1.251 . S
O478 C477 1.251 . S
O479 Tb461 2.441 . S
O479 C474 1.244 . S
O480 Tb481 2.506 . S
O480 C494 1.265 . S
Tb481 O480 2.506 . S
Tb481 O486 2.312 . S
Tb481 O490 2.271 . S
Tb481 O492 2.338 . S
Tb481 O499 2.441 . S
C482 O490 1.252 . S
C482 O491 1.253 . S
O483 Tb484 2.271 . S
O483 C493 1.252 . S
Tb484 O483 2.271 . S
Tb484 O487 2.338 . S
Tb484 O491 2.312 . S
Tb484 O495 2.441 . S
Tb484 O496 2.506 . S
C485 O495 1.244 . S
C485 O496 1.265 . S
O486 Tb481 2.312 . S
O486 C493 1.253 . S
O487 Tb484 2.338 . S
O487 C488 1.258 . S
C488 O487 1.258 . S
C488 O489 1.251 . S
O489 C488 1.251 . S
O490 Tb481 2.271 . S
O490 C482 1.252 . S
O491 C482 1.253 . S
O491 Tb484 2.312 . S
O492 Tb481 2.338 . S
O492 C497 1.258 . S
C493 O483 1.252 . S
C493 O486 1.253 . S
C494 O480 1.265 . S
C494 O499 1.244 . S
O495 Tb484 2.441 . S
O495 C485 1.244 . S
O496 Tb484 2.506 . S
O496 C485 1.265 . S
C497 O492 1.258 . S
C497 O498 1.251 . S
O498 C497 1.251 . S
O499 Tb481 2.441 . S
O499 C494 1.244 . S
O500 Tb501 2.506 . S
O500 C514 1.265 . S
Tb501 O500 2.506 . S
Tb501 O506 2.312 . S
Tb501 O510 2.271 . S
Tb501 O512 2.338 . S
Tb501 O519 2.441 . S
C502 O510 1.252 . S
C502 O511 1.253 . S
O503 Tb504 2.271 . S
O503 C513 1.252 . S
Tb504 O503 2.271 . S
Tb504 O507 2.338 . S
Tb504 O511 2.312 . S
Tb504 O515 2.441 . S
Tb504 O516 2.506 . S
C505 O515 1.244 . S
C505 O516 1.265 . S
O506 Tb501 2.312 . S
O506 C513 1.253 . S
O507 Tb504 2.338 . S
O507 C508 1.258 . S
C508 O507 1.258 . S
C508 O509 1.251 . S
O509 C508 1.251 . S
O510 Tb501 2.271 . S
O510 C502 1.252 . S
O511 C502 1.253 . S
O511 Tb504 2.312 . S
O512 Tb501 2.338 . S
O512 C517 1.258 . S
C513 O503 1.252 . S
C513 O506 1.253 . S
C514 O500 1.265 . S
C514 O519 1.244 . S
O515 Tb504 2.441 . S
O515 C505 1.244 . S
O516 Tb504 2.506 . S
O516 C505 1.265 . S
C517 O512 1.258 . S
C517 O518 1.251 . S
O518 C517 1.251 . S
O519 Tb501 2.441 . S
O519 C514 1.244 . S
O520 Tb521 2.506 . S
O520 C534 1.265 . S
Tb521 O520 2.506 . S
Tb521 O526 2.312 . S
Tb521 O530 2.271 . S
Tb521 O532 2.338 . S
Tb521 O539 2.441 . S
C522 O530 1.252 . S
C522 O531 1.253 . S
O523 Tb524 2.271 . S
O523 C533 1.252 . S
Tb524 O523 2.271 . S
Tb524 O527 2.338 . S
Tb524 O531 2.312 . S
Tb524 O535 2.441 . S
Tb524 O536 2.506 . S
C525 O535 1.244 . S
C525 O536 1.265 . S
O526 Tb521 2.312 . S
O526 C533 1.253 . S
O527 Tb524 2.338 . S
O527 C528 1.258 . S
C528 O527 1.258 . S
C528 O529 1.251 . S
O529 C528 1.251 . S
O530 Tb521 2.271 . S
O530 C522 1.252 . S
O531 C522 1.253 . S
O531 Tb524 2.312 . S
O532 Tb521 2.338 . S
O532 C537 1.258 . S
C533 O523 1.252 . S
C533 O526 1.253 . S
C534 O520 1.265 . S
C534 O539 1.244 . S
O535 Tb524 2.441 . S
O535 C525 1.244 . S
O536 Tb524 2.506 . S
O536 C525 1.265 . S
C537 O532 1.258 . S
C537 O538 1.251 . S
O538 C537 1.251 . S
O539 Tb521 2.441 . S
O539 C534 1.244 . S
O540 Tb541 2.506 . S
O540 C554 1.265 . S
Tb541 O540 2.506 . S
Tb541 O546 2.312 . S
Tb541 O550 2.271 . S
Tb541 O552 2.338 . S
Tb541 O559 2.441 . S
C542 O550 1.252 . S
C542 O551 1.253 . S
O543 Tb544 2.271 . S
O543 C553 1.252 . S
Tb544 O543 2.271 . S
Tb544 O547 2.338 . S
Tb544 O551 2.312 . S
Tb544 O555 2.441 . S
Tb544 O556 2.506 . S
C545 O555 1.244 . S
C545 O556 1.265 . S
O546 Tb541 2.312 . S
O546 C553 1.253 . S
O547 Tb544 2.338 . S
O547 C548 1.258 . S
C548 O547 1.258 . S
C548 O549 1.251 . S
O549 C548 1.251 . S
O550 Tb541 2.271 . S
O550 C542 1.252 . S
O551 C542 1.253 . S
O551 Tb544 2.312 . S
O552 Tb541 2.338 . S
O552 C557 1.258 . S
C553 O543 1.252 . S
C553 O546 1.253 . S
C554 O540 1.265 . S
C554 O559 1.244 . S
O555 Tb544 2.441 . S
O555 C545 1.244 . S
O556 Tb544 2.506 . S
O556 C545 1.265 . S
C557 O552 1.258 . S
C557 O558 1.251 . S
O558 C557 1.251 . S
O559 Tb541 2.441 . S
O559 C554 1.244 . S
O560 Tb561 2.506 . S
O560 C574 1.265 . S
Tb561 O560 2.506 . S
Tb561 O566 2.312 . S
Tb561 O570 2.271 . S
Tb561 O572 2.338 . S
Tb561 O579 2.441 . S
C562 O570 1.252 . S
C562 O571 1.253 . S
O563 Tb564 2.271 . S
O563 C573 1.252 . S
Tb564 O563 2.271 . S
Tb564 O567 2.338 . S
Tb564 O571 2.312 . S
Tb564 O575 2.441 . S
Tb564 O576 2.506 . S
C565 O575 1.244 . S
C565 O576 1.265 . S
O566 Tb561 2.312 . S
O566 C573 1.253 . S
O567 Tb564 2.338 . S
O567 C568 1.258 . S
C568 O567 1.258 . S
C568 O569 1.251 . S
O569 C568 1.251 . S
O570 Tb561 2.271 . S
O570 C562 1.252 . S
O571 C562 1.253 . S
O571 Tb564 2.312 . S
O572 Tb561 2.338 . S
O572 C577 1.258 . S
C573 O563 1.252 . S
C573 O566 1.253 . S
C574 O560 1.265 . S
C574 O579 1.244 . S
O575 Tb564 2.441 . S
O575 C565 1.244 . S
O576 Tb564 2.506 . S
O576 C565 1.265 . S
C577 O572 1.258 . S
C577 O578 1.251 . S
O578 C577 1.251 . S
O579 Tb561 2.441 . S
O579 C574 1.244 . S
O580 Tb581 2.506 . S
O580 C594 1.265 . S
Tb581 O580 2.506 . S
Tb581 O586 2.312 . S
Tb581 O590 2.271 . S
Tb581 O592 2.338 . S
Tb581 O599 2.441 . S
C582 O590 1.252 . S
C582 O591 1.253 . S
O583 Tb584 2.271 . S
O583 C593 1.252 . S
Tb584 O583 2.271 . S
Tb584 O587 2.338 . S
Tb584 O591 2.312 . S
Tb584 O595 2.441 . S
Tb584 O596 2.506 . S
C585 O595 1.244 . S
C585 O596 1.265 . S
O586 Tb581 2.312 . S
O586 C593 1.253 . S
O587 Tb584 2.338 . S
O587 C588 1.258 . S
C588 O587 1.258 . S
C588 O589 1.251 . S
O589 C588 1.251 . S
O590 Tb581 2.271 . S
O590 C582 1.252 . S
O591 C582 1.253 . S
O591 Tb584 2.312 . S
O592 Tb581 2.338 . S
O592 C597 1.258 . S
C593 O583 1.252 . S
C593 O586 1.253 . S
C594 O580 1.265 . S
C594 O599 1.244 . S
O595 Tb584 2.441 . S
O595 C585 1.244 . S
O596 Tb584 2.506 . S
O596 C585 1.265 . S
C597 O592 1.258 . S
C597 O598 1.251 . S
O598 C597 1.251 . S
O599 Tb581 2.441 . S
O599 C594 1.244 . S
O600 Tb601 2.506 . S
O600 C614 1.265 . S
Tb601 O600 2.506 . S
Tb601 O606 2.312 . S
Tb601 O610 2.271 . S
Tb601 O612 2.338 . S
Tb601 O619 2.441 . S
C602 O610 1.252 . S
C602 O611 1.253 . S
O603 Tb604 2.271 . S
O603 C613 1.252 . S
Tb604 O603 2.271 . S
Tb604 O607 2.338 . S
Tb604 O611 2.312 . S
Tb604 O615 2.441 . S
Tb604 O616 2.506 . S
C605 O615 1.244 . S
C605 O616 1.265 . S
O606 Tb601 2.312 . S
O606 C613 1.253 . S
O607 Tb604 2.338 . S
O607 C608 1.258 . S
C608 O607 1.258 . S
C608 O609 1.251 . S
O609 C608 1.251 . S
O610 Tb601 2.271 . S
O610 C602 1.252 . S
O611 C602 1.253 . S
O611 Tb604 2.312 . S
O612 Tb601 2.338 . S
O612 C617 1.258 . S
C613 O603 1.252 . S
C613 O606 1.253 . S
C614 O600 1.265 . S
C614 O619 1.244 . S
O615 Tb604 2.441 . S
O615 C605 1.244 . S
O616 Tb604 2.506 . S
O616 C605 1.265 . S
C617 O612 1.258 . S
C617 O618 1.251 . S
O618 C617 1.251 . S
O619 Tb601 2.441 . S
O619 C614 1.244 . S
O620 Tb621 2.506 . S
O620 C634 1.265 . S
Tb621 O620 2.506 . S
Tb621 O626 2.312 . S
Tb621 O630 2.271 . S
Tb621 O632 2.338 . S
Tb621 O639 2.441 . S
C622 O630 1.252 . S
C622 O631 1.253 . S
O623 Tb624 2.271 . S
O623 C633 1.252 . S
Tb624 O623 2.271 . S
Tb624 O627 2.338 . S
Tb624 O631 2.312 . S
Tb624 O635 2.441 . S
Tb624 O636 2.506 . S
C625 O635 1.244 . S
C625 O636 1.265 . S
O626 Tb621 2.312 . S
O626 C633 1.253 . S
O627 Tb624 2.338 . S
O627 C628 1.258 . S
C628 O627 1.258 . S
C628 O629 1.251 . S
O629 C628 1.251 . S
O630 Tb621 2.271 . S
O630 C622 1.252 . S
O631 C622 1.253 . S
O631 Tb624 2.312 . S
O632 Tb621 2.338 . S
O632 C637 1.258 . S
C633 O623 1.252 . S
C633 O626 1.253 . S
C634 O620 1.265 . S
C634 O639 1.244 . S
O635 Tb624 2.441 . S
O635 C625 1.244 . S
O636 Tb624 2.506 . S
O636 C625 1.265 . S
C637 O632 1.258 . S
C637 O638 1.251 . S
O638 C637 1.251 . S
O639 Tb621 2.441 . S
O639 C634 1.244 . S
C640 C641 1.387 . S
C640 H644 0.950 . S
C640 C649 1.390 . S
C641 C640 1.387 . S
C641 C643 1.387 . S
H642 C649 0.950 . S
C643 C641 1.387 . S
C643 C645 1.390 . S
C643 H647 0.950 . S
H644 C640 0.950 . S
C645 C643 1.390 . S
C645 C646 1.387 . S
C645 H648 0.950 . S
C646 C645 1.387 . S
C646 C649 1.387 . S
H647 C643 0.950 . S
H648 C645 0.950 . S
C649 C640 1.390 . S
C649 H642 0.950 . S
C649 C646 1.387 . S
C650 C651 1.387 . S
C650 H654 0.950 . S
C650 C659 1.390 . S
C651 C650 1.387 . S
C651 C653 1.387 . S
H652 C659 0.950 . S
C653 C651 1.387 . S
C653 C655 1.390 . S
C653 H657 0.950 . S
H654 C650 0.950 . S
C655 C653 1.390 . S
C655 C656 1.387 . S
C655 H658 0.950 . S
C656 C655 1.387 . S
C656 C659 1.387 . S
H657 C653 0.950 . S
H658 C655 0.950 . S
C659 C650 1.390 . S
C659 H652 0.950 . S
C659 C656 1.387 . S
C660 C661 1.387 . S
C660 H664 0.950 . S
C660 C669 1.390 . S
C661 C660 1.387 . S
C661 C663 1.387 . S
H662 C669 0.950 . S
C663 C661 1.387 . S
C663 C665 1.390 . S
C663 H667 0.950 . S
H664 C660 0.950 . S
C665 C663 1.390 . S
C665 C666 1.387 . S
C665 H668 0.950 . S
C666 C665 1.387 . S
C666 C669 1.387 . S
H667 C663 0.950 . S
H668 C665 0.950 . S
C669 C660 1.390 . S
C669 H662 0.950 . S
C669 C666 1.387 . S
C670 C671 1.387 . S
C670 H674 0.950 . S
C670 C679 1.390 . S
C671 C670 1.387 . S
C671 C673 1.387 . S
H672 C679 0.950 . S
C673 C671 1.387 . S
C673 C675 1.390 . S
C673 H677 0.950 . S
H674 C670 0.950 . S
C675 C673 1.390 . S
C675 C676 1.387 . S
C675 H678 0.950 . S
C676 C675 1.387 . S
C676 C679 1.387 . S
H677 C673 0.950 . S
H678 C675 0.950 . S
C679 C670 1.390 . S
C679 H672 0.950 . S
C679 C676 1.387 . S
C680 C681 1.387 . S
C680 H684 0.950 . S
C680 C689 1.390 . S
C681 C680 1.387 . S
C681 C683 1.387 . S
H682 C689 0.950 . S
C683 C681 1.387 . S
C683 C685 1.390 . S
C683 H687 0.950 . S
H684 C680 0.950 . S
C685 C683 1.390 . S
C685 C686 1.387 . S
C685 H688 0.950 . S
C686 C685 1.387 . S
C686 C689 1.387 . S
H687 C683 0.950 . S
H688 C685 0.950 . S
C689 C680 1.390 . S
C689 H682 0.950 . S
C689 C686 1.387 . S
C690 C691 1.387 . S
C690 H694 0.950 . S
C690 C699 1.390 . S
C691 C690 1.387 . S
C691 C693 1.387 . S
H692 C699 0.950 . S
C693 C691 1.387 . S
C693 C695 1.390 . S
C693 H697 0.950 . S
H694 C690 0.950 . S
C695 C693 1.390 . S
C695 C696 1.387 . S
C695 H698 0.950 . S
C696 C695 1.387 . S
C696 C699 1.387 . S
H697 C693 0.950 . S
H698 C695 0.950 . S
C699 C690 1.390 . S
C699 H692 0.950 . S
C699 C696 1.387 . S
C700 C701 1.387 . S
C700 H704 0.950 . S
C700 C709 1.390 . S
C701 C700 1.387 . S
C701 C703 1.387 . S
H702 C709 0.950 . S
C703 C701 1.387 . S
C703 C705 1.390 . S
C703 H707 0.950 . S
H704 C700 0.950 . S
C705 C703 1.390 . S
C705 C706 1.387 . S
C705 H708 0.950 . S
C706 C705 1.387 . S
C706 C709 1.387 . S
H707 C703 0.950 . S
H708 C705 0.950 . S
C709 C700 1.390 . S
C709 H702 0.950 . S
C709 C706 1.387 . S
C710 C711 1.387 . S
C710 H714 0.950 . S
C710 C719 1.390 . S
C711 C710 1.387 . S
C711 C713 1.387 . S
H712 C719 0.950 . S
C713 C711 1.387 . S
C713 C715 1.390 . S
C713 H717 0.950 . S
H714 C710 0.950 . S
C715 C713 1.390 . S
C715 C716 1.387 . S
C715 H718 0.950 . S
C716 C715 1.387 . S
C716 C719 1.387 . S
H717 C713 0.950 . S
H718 C715 0.950 . S
C719 C710 1.390 . S
C719 H712 0.950 . S
C719 C716 1.387 . S
C720 C721 1.387 . S
C720 H724 0.950 . S
C720 C729 1.390 . S
C721 C720 1.387 . S
C721 C723 1.387 . S
H722 C729 0.950 . S
C723 C721 1.387 . S
C723 C725 1.390 . S
C723 H727 0.950 . S
H724 C720 0.950 . S
C725 C723 1.390 . S
C725 C726 1.387 . S
C725 H728 0.950 . S
C726 C725 1.387 . S
C726 C729 1.387 . S
H727 C723 0.950 . S
H728 C725 0.950 . S
C729 C720 1.390 . S
C729 H722 0.950 . S
C729 C726 1.387 . S
C730 C731 1.387 . S
C730 H734 0.950 . S
C730 C739 1.390 . S
C731 C730 1.387 . S
C731 C733 1.387 . S
H732 C739 0.950 . S
C733 C731 1.387 . S
C733 C735 1.390 . S
C733 H737 0.950 . S
H734 C730 0.950 . S
C735 C733 1.390 . S
C735 C736 1.387 . S
C735 H738 0.950 . S
C736 C735 1.387 . S
C736 C739 1.387 . S
H737 C733 0.950 . S
H738 C735 0.950 . S
C739 C730 1.390 . S
C739 H732 0.950 . S
C739 C736 1.387 . S
C740 C741 1.387 . S
C740 H744 0.950 . S
C740 C749 1.390 . S
C741 C740 1.387 . S
C741 C743 1.387 . S
H742 C749 0.950 . S
C743 C741 1.387 . S
C743 C745 1.390 . S
C743 H747 0.950 . S
H744 C740 0.950 . S
C745 C743 1.390 . S
C745 C746 1.387 . S
C745 H748 0.950 . S
C746 C745 1.387 . S
C746 C749 1.387 . S
H747 C743 0.950 . S
H748 C745 0.950 . S
C749 C740 1.390 . S
C749 H742 0.950 . S
C749 C746 1.387 . S
C750 C751 1.387 . S
C750 H754 0.950 . S
C750 C759 1.390 . S
C751 C750 1.387 . S
C751 C753 1.387 . S
H752 C759 0.950 . S
C753 C751 1.387 . S
C753 C755 1.390 . S
C753 H757 0.950 . S
H754 C750 0.950 . S
C755 C753 1.390 . S
C755 C756 1.387 . S
C755 H758 0.950 . S
C756 C755 1.387 . S
C756 C759 1.387 . S
H757 C753 0.950 . S
H758 C755 0.950 . S
C759 C750 1.390 . S
C759 H752 0.950 . S
C759 C756 1.387 . S
C760 C761 1.387 . S
C760 H764 0.950 . S
C760 C769 1.390 . S
C761 C760 1.387 . S
C761 C763 1.387 . S
H762 C769 0.950 . S
C763 C761 1.387 . S
C763 C765 1.390 . S
C763 H767 0.950 . S
H764 C760 0.950 . S
C765 C763 1.390 . S
C765 C766 1.387 . S
C765 H768 0.950 . S
C766 C765 1.387 . S
C766 C769 1.387 . S
H767 C763 0.950 . S
H768 C765 0.950 . S
C769 C760 1.390 . S
C769 H762 0.950 . S
C769 C766 1.387 . S
C770 C771 1.387 . S
C770 H774 0.950 . S
C770 C779 1.390 . S
C771 C770 1.387 . S
C771 C773 1.387 . S
H772 C779 0.950 . S
C773 C771 1.387 . S
C773 C775 1.390 . S
C773 H777 0.950 . S
H774 C770 0.950 . S
C775 C773 1.390 . S
C775 C776 1.387 . S
C775 H778 0.950 . S
C776 C775 1.387 . S
C776 C779 1.387 . S
H777 C773 0.950 . S
H778 C775 0.950 . S
C779 C770 1.390 . S
C779 H772 0.950 . S
C779 C776 1.387 . S
C780 C781 1.387 . S
C780 H784 0.950 . S
C780 C789 1.390 . S
C781 C780 1.387 . S
C781 C783 1.387 . S
H782 C789 0.950 . S
C783 C781 1.387 . S
C783 C785 1.390 . S
C783 H787 0.950 . S
H784 C780 0.950 . S
C785 C783 1.390 . S
C785 C786 1.387 . S
C785 H788 0.950 . S
C786 C785 1.387 . S
C786 C789 1.387 . S
H787 C783 0.950 . S
H788 C785 0.950 . S
C789 C780 1.390 . S
C789 H782 0.950 . S
C789 C786 1.387 . S
C790 C791 1.387 . S
C790 H794 0.950 . S
C790 C799 1.390 . S
C791 C790 1.387 . S
C791 C793 1.387 . S
H792 C799 0.950 . S
C793 C791 1.387 . S
C793 C795 1.390 . S
C793 H797 0.950 . S
H794 C790 0.950 . S
C795 C793 1.390 . S
C795 C796 1.387 . S
C795 H798 0.950 . S
C796 C795 1.387 . S
C796 C799 1.387 . S
H797 C793 0.950 . S
H798 C795 0.950 . S
C799 C790 1.390 . S
C799 H792 0.950 . S
C799 C796 1.387 . S
C800 C801 1.387 . S
C800 H804 0.950 . S
C800 C809 1.390 . S
C801 C800 1.387 . S
C801 C803 1.387 . S
H802 C809 0.950 . S
C803 C801 1.387 . S
C803 C805 1.390 . S
C803 H807 0.950 . S
H804 C800 0.950 . S
C805 C803 1.390 . S
C805 C806 1.387 . S
C805 H808 0.950 . S
C806 C805 1.387 . S
C806 C809 1.387 . S
H807 C803 0.950 . S
H808 C805 0.950 . S
C809 C800 1.390 . S
C809 H802 0.950 . S
C809 C806 1.387 . S
C810 C811 1.387 . S
C810 H814 0.950 . S
C810 C819 1.390 . S
C811 C810 1.387 . S
C811 C813 1.387 . S
H812 C819 0.950 . S
C813 C811 1.387 . S
C813 C815 1.390 . S
C813 H817 0.950 . S
H814 C810 0.950 . S
C815 C813 1.390 . S
C815 C816 1.387 . S
C815 H818 0.950 . S
C816 C815 1.387 . S
C816 C819 1.387 . S
H817 C813 0.950 . S
H818 C815 0.950 . S
C819 C810 1.390 . S
C819 H812 0.950 . S
C819 C816 1.387 . S
C820 C821 1.387 . S
C820 H824 0.950 . S
C820 C829 1.390 . S
C821 C820 1.387 . S
C821 C823 1.387 . S
H822 C829 0.950 . S
C823 C821 1.387 . S
C823 C825 1.390 . S
C823 H827 0.950 . S
H824 C820 0.950 . S
C825 C823 1.390 . S
C825 C826 1.387 . S
C825 H828 0.950 . S
C826 C825 1.387 . S
C826 C829 1.387 . S
H827 C823 0.950 . S
H828 C825 0.950 . S
C829 C820 1.390 . S
C829 H822 0.950 . S
C829 C826 1.387 . S
C830 C831 1.387 . S
C830 H834 0.950 . S
C830 C839 1.390 . S
C831 C830 1.387 . S
C831 C833 1.387 . S
H832 C839 0.950 . S
C833 C831 1.387 . S
C833 C835 1.390 . S
C833 H837 0.950 . S
H834 C830 0.950 . S
C835 C833 1.390 . S
C835 C836 1.387 . S
C835 H838 0.950 . S
C836 C835 1.387 . S
C836 C839 1.387 . S
H837 C833 0.950 . S
H838 C835 0.950 . S
C839 C830 1.390 . S
C839 H832 0.950 . S
C839 C836 1.387 . S
C840 C841 1.387 . S
C840 H844 0.950 . S
C840 C849 1.390 . S
C841 C840 1.387 . S
C841 C843 1.387 . S
H842 C849 0.950 . S
C843 C841 1.387 . S
C843 C845 1.390 . S
C843 H847 0.950 . S
H844 C840 0.950 . S
C845 C843 1.390 . S
C845 C846 1.387 . S
C845 H848 0.950 . S
C846 C845 1.387 . S
C846 C849 1.387 . S
H847 C843 0.950 . S
H848 C845 0.950 . S
C849 C840 1.390 . S
C849 H842 0.950 . S
C849 C846 1.387 . S
C850 C851 1.387 . S
C850 H854 0.950 . S
C850 C859 1.390 . S
C851 C850 1.387 . S
C851 C853 1.387 . S
H852 C859 0.950 . S
C853 C851 1.387 . S
C853 C855 1.390 . S
C853 H857 0.950 . S
H854 C850 0.950 . S
C855 C853 1.390 . S
C855 C856 1.387 . S
C855 H858 0.950 . S
C856 C855 1.387 . S
C856 C859 1.387 . S
H857 C853 0.950 . S
H858 C855 0.950 . S
C859 C850 1.390 . S
C859 H852 0.950 . S
C859 C856 1.387 . S
C860 C861 1.387 . S
C860 H864 0.950 . S
C860 C869 1.390 . S
C861 C860 1.387 . S
C861 C863 1.387 . S
H862 C869 0.950 . S
C863 C861 1.387 . S
C863 C865 1.390 . S
C863 H867 0.950 . S
H864 C860 0.950 . S
C865 C863 1.390 . S
C865 C866 1.387 . S
C865 H868 0.950 . S
C866 C865 1.387 . S
C866 C869 1.387 . S
H867 C863 0.950 . S
H868 C865 0.950 . S
C869 C860 1.390 . S
C869 H862 0.950 . S
C869 C866 1.387 . S
C870 C871 1.387 . S
C870 H874 0.950 . S
C870 C879 1.390 . S
C871 C870 1.387 . S
C871 C873 1.387 . S
H872 C879 0.950 . S
C873 C871 1.387 . S
C873 C875 1.390 . S
C873 H877 0.950 . S
H874 C870 0.950 . S
C875 C873 1.390 . S
C875 C876 1.387 . S
C875 H878 0.950 . S
C876 C875 1.387 . S
C876 C879 1.387 . S
H877 C873 0.950 . S
H878 C875 0.950 . S
C879 C870 1.390 . S
C879 H872 0.950 . S
C879 C876 1.387 . S
C880 C881 1.387 . S
C880 H884 0.950 . S
C880 C889 1.390 . S
C881 C880 1.387 . S
C881 C883 1.387 . S
H882 C889 0.950 . S
C883 C881 1.387 . S
C883 C885 1.390 . S
C883 H887 0.950 . S
H884 C880 0.950 . S
C885 C883 1.390 . S
C885 C886 1.387 . S
C885 H888 0.950 . S
C886 C885 1.387 . S
C886 C889 1.387 . S
H887 C883 0.950 . S
H888 C885 0.950 . S
C889 C880 1.390 . S
C889 H882 0.950 . S
C889 C886 1.387 . S
C890 C891 1.387 . S
C890 H894 0.950 . S
C890 C899 1.390 . S
C891 C890 1.387 . S
C891 C893 1.387 . S
H892 C899 0.950 . S
C893 C891 1.387 . S
C893 C895 1.390 . S
C893 H897 0.950 . S
H894 C890 0.950 . S
C895 C893 1.390 . S
C895 C896 1.387 . S
C895 H898 0.950 . S
C896 C895 1.387 . S
C896 C899 1.387 . S
H897 C893 0.950 . S
H898 C895 0.950 . S
C899 C890 1.390 . S
C899 H892 0.950 . S
C899 C896 1.387 . S
C900 C901 1.387 . S
C900 H904 0.950 . S
C900 C909 1.390 . S
C901 C900 1.387 . S
C901 C903 1.387 . S
H902 C909 0.950 . S
C903 C901 1.387 . S
C903 C905 1.390 . S
C903 H907 0.950 . S
H904 C900 0.950 . S
C905 C903 1.390 . S
C905 C906 1.387 . S
C905 H908 0.950 . S
C906 C905 1.387 . S
C906 C909 1.387 . S
H907 C903 0.950 . S
H908 C905 0.950 . S
C909 C900 1.390 . S
C909 H902 0.950 . S
C909 C906 1.387 . S
C910 C911 1.387 . S
C910 H914 0.950 . S
C910 C919 1.390 . S
C911 C910 1.387 . S
C911 C913 1.387 . S
H912 C919 0.950 . S
C913 C911 1.387 . S
C913 C915 1.390 . S
C913 H917 0.950 . S
H914 C910 0.950 . S
C915 C913 1.390 . S
C915 C916 1.387 . S
C915 H918 0.950 . S
C916 C915 1.387 . S
C916 C919 1.387 . S
H917 C913 0.950 . S
H918 C915 0.950 . S
C919 C910 1.390 . S
C919 H912 0.950 . S
C919 C916 1.387 . S
C920 C921 1.387 . S
C920 H924 0.950 . S
C920 C929 1.390 . S
C921 C920 1.387 . S
C921 C923 1.387 . S
H922 C929 0.950 . S
C923 C921 1.387 . S
C923 C925 1.390 . S
C923 H927 0.950 . S
H924 C920 0.950 . S
C925 C923 1.390 . S
C925 C926 1.387 . S
C925 H928 0.950 . S
C926 C925 1.387 . S
C926 C929 1.387 . S
H927 C923 0.950 . S
H928 C925 0.950 . S
C929 C920 1.390 . S
C929 H922 0.950 . S
C929 C926 1.387 . S
C930 C931 1.387 . S
C930 H934 0.950 . S
C930 C939 1.390 . S
C931 C930 1.387 . S
C931 C933 1.387 . S
H932 C939 0.950 . S
C933 C931 1.387 . S
C933 C935 1.390 . S
C933 H937 0.950 . S
H934 C930 0.950 . S
C935 C933 1.390 . S
C935 C936 1.387 . S
C935 H938 0.950 . S
C936 C935 1.387 . S
C936 C939 1.387 . S
H937 C933 0.950 . S
H938 C935 0.950 . S
C939 C930 1.390 . S
C939 H932 0.950 . S
C939 C936 1.387 . S
C940 C941 1.387 . S
C940 H944 0.950 . S
C940 C949 1.390 . S
C941 C940 1.387 . S
C941 C943 1.387 . S
H942 C949 0.950 . S
C943 C941 1.387 . S
C943 C945 1.390 . S
C943 H947 0.950 . S
H944 C940 0.950 . S
C945 C943 1.390 . S
C945 C946 1.387 . S
C945 H948 0.950 . S
C946 C945 1.387 . S
C946 C949 1.387 . S
H947 C943 0.950 . S
H948 C945 0.950 . S
C949 C940 1.390 . S
C949 H942 0.950 . S
C949 C946 1.387 . S
C950 C951 1.387 . S
C950 H954 0.950 . S
C950 C959 1.390 . S
C951 C950 1.387 . S
C951 C953 1.387 . S
H952 C959 0.950 . S
C953 C951 1.387 . S
C953 C955 1.390 . S
C953 H957 0.950 . S
H954 C950 0.950 . S
C955 C953 1.390 . S
C955 C956 1.387 . S
C955 H958 0.950 . S
C956 C955 1.387 . S
C956 C959 1.387 . S
H957 C953 0.950 . S
H958 C955 0.950 . S
C959 C950 1.390 . S
C959 H952 0.950 . S
C959 C956 1.387 . S
C960 C961 1.387 . S
C960 H964 0.950 . S
C960 C969 1.390 . S
C961 C960 1.387 . S
C961 C963 1.387 . S
H962 C969 0.950 . S
C963 C961 1.387 . S
C963 C965 1.390 . S
C963 H967 0.950 . S
H964 C960 0.950 . S
C965 C963 1.390 . S
C965 C966 1.387 . S
C965 H968 0.950 . S
C966 C965 1.387 . S
C966 C969 1.387 . S
H967 C963 0.950 . S
H968 C965 0.950 . S
C969 C960 1.390 . S
C969 H962 0.950 . S
C969 C966 1.387 . S
C970 C971 1.387 . S
C970 H974 0.950 . S
C970 C979 1.390 . S
C971 C970 1.387 . S
C971 C973 1.387 . S
H972 C979 0.950 . S
C973 C971 1.387 . S
C973 C975 1.390 . S
C973 H977 0.950 . S
H974 C970 0.950 . S
C975 C973 1.390 . S
C975 C976 1.387 . S
C975 H978 0.950 . S
C976 C975 1.387 . S
C976 C979 1.387 . S
H977 C973 0.950 . S
H978 C975 0.950 . S
C979 C970 1.390 . S
C979 H972 0.950 . S
C979 C976 1.387 . S
C980 C981 1.387 . S
C980 H984 0.950 . S
C980 C989 1.390 . S
C981 C980 1.387 . S
C981 C983 1.387 . S
H982 C989 0.950 . S
C983 C981 1.387 . S
C983 C985 1.390 . S
C983 H987 0.950 . S
H984 C980 0.950 . S
C985 C983 1.390 . S
C985 C986 1.387 . S
C985 H988 0.950 . S
C986 C985 1.387 . S
C986 C989 1.387 . S
H987 C983 0.950 . S
H988 C985 0.950 . S
C989 C980 1.390 . S
C989 H982 0.950 . S
C989 C986 1.387 . S
C990 C991 1.387 . S
C990 H994 0.950 . S
C990 C999 1.390 . S
C991 C990 1.387 . S
C991 C993 1.387 . S
H992 C999 0.950 . S
C993 C991 1.387 . S
C993 C995 1.390 . S
C993 H997 0.950 . S
H994 C990 0.950 . S
C995 C993 1.390 . S
C995 C996 1.387 . S
C995 H998 0.950 . S
C996 C995 1.387 . S
C996 C999 1.387 . S
H997 C993 0.950 . S
H998 C995 0.950 . S
C999 C990 1.390 . S
C999 H992 0.950 . S
C999 C996 1.387 . S
C1000 C1001 1.387 . S
C1000 H1004 0.950 . S
C1000 C1009 1.390 . S
C1001 C1000 1.387 . S
C1001 C1003 1.387 . S
H1002 C1009 0.950 . S
C1003 C1001 1.387 . S
C1003 C1005 1.390 . S
C1003 H1007 0.950 . S
H1004 C1000 0.950 . S
C1005 C1003 1.390 . S
C1005 C1006 1.387 . S
C1005 H1008 0.950 . S
C1006 C1005 1.387 . S
C1006 C1009 1.387 . S
H1007 C1003 0.950 . S
H1008 C1005 0.950 . S
C1009 C1000 1.390 . S
C1009 H1002 0.950 . S
C1009 C1006 1.387 . S
C1010 C1011 1.387 . S
C1010 H1014 0.950 . S
C1010 C1019 1.390 . S
C1011 C1010 1.387 . S
C1011 C1013 1.387 . S
H1012 C1019 0.950 . S
C1013 C1011 1.387 . S
C1013 C1015 1.390 . S
C1013 H1017 0.950 . S
H1014 C1010 0.950 . S
C1015 C1013 1.390 . S
C1015 C1016 1.387 . S
C1015 H1018 0.950 . S
C1016 C1015 1.387 . S
C1016 C1019 1.387 . S
H1017 C1013 0.950 . S
H1018 C1015 0.950 . S
C1019 C1010 1.390 . S
C1019 H1012 0.950 . S
C1019 C1016 1.387 . S
C1020 C1021 1.387 . S
C1020 H1024 0.950 . S
C1020 C1029 1.390 . S
C1021 C1020 1.387 . S
C1021 C1023 1.387 . S
H1022 C1029 0.950 . S
C1023 C1021 1.387 . S
C1023 C1025 1.390 . S
C1023 H1027 0.950 . S
H1024 C1020 0.950 . S
C1025 C1023 1.390 . S
C1025 C1026 1.387 . S
C1025 H1028 0.950 . S
C1026 C1025 1.387 . S
C1026 C1029 1.387 . S
H1027 C1023 0.950 . S
H1028 C1025 0.950 . S
C1029 C1020 1.390 . S
C1029 H1022 0.950 . S
C1029 C1026 1.387 . S
C1030 C1031 1.387 . S
C1030 H1034 0.950 . S
C1030 C1039 1.390 . S
C1031 C1030 1.387 . S
C1031 C1033 1.387 . S
H1032 C1039 0.950 . S
C1033 C1031 1.387 . S
C1033 C1035 1.390 . S
C1033 H1037 0.950 . S
H1034 C1030 0.950 . S
C1035 C1033 1.390 . S
C1035 C1036 1.387 . S
C1035 H1038 0.950 . S
C1036 C1035 1.387 . S
C1036 C1039 1.387 . S
H1037 C1033 0.950 . S
H1038 C1035 0.950 . S
C1039 C1030 1.390 . S
C1039 H1032 0.950 . S
C1039 C1036 1.387 . S
C1040 C1041 1.387 . S
C1040 H1044 0.950 . S
C1040 C1049 1.390 . S
C1041 C1040 1.387 . S
C1041 C1043 1.387 . S
H1042 C1049 0.950 . S
C1043 C1041 1.387 . S
C1043 C1045 1.390 . S
C1043 H1047 0.950 . S
H1044 C1040 0.950 . S
C1045 C1043 1.390 . S
C1045 C1046 1.387 . S
C1045 H1048 0.950 . S
C1046 C1045 1.387 . S
C1046 C1049 1.387 . S
H1047 C1043 0.950 . S
H1048 C1045 0.950 . S
C1049 C1040 1.390 . S
C1049 H1042 0.950 . S
C1049 C1046 1.387 . S
C1050 C1051 1.387 . S
C1050 H1054 0.950 . S
C1050 C1059 1.390 . S
C1051 C1050 1.387 . S
C1051 C1053 1.387 . S
H1052 C1059 0.950 . S
C1053 C1051 1.387 . S
C1053 C1055 1.390 . S
C1053 H1057 0.950 . S
H1054 C1050 0.950 . S
C1055 C1053 1.390 . S
C1055 C1056 1.387 . S
C1055 H1058 0.950 . S
C1056 C1055 1.387 . S
C1056 C1059 1.387 . S
H1057 C1053 0.950 . S
H1058 C1055 0.950 . S
C1059 C1050 1.390 . S
C1059 H1052 0.950 . S
C1059 C1056 1.387 . S
C1060 C1061 1.387 . S
C1060 H1064 0.950 . S
C1060 C1069 1.390 . S
C1061 C1060 1.387 . S
C1061 C1063 1.387 . S
H1062 C1069 0.950 . S
C1063 C1061 1.387 . S
C1063 C1065 1.390 . S
C1063 H1067 0.950 . S
H1064 C1060 0.950 . S
C1065 C1063 1.390 . S
C1065 C1066 1.387 . S
C1065 H1068 0.950 . S
C1066 C1065 1.387 . S
C1066 C1069 1.387 . S
H1067 C1063 0.950 . S
H1068 C1065 0.950 . S
C1069 C1060 1.390 . S
C1069 H1062 0.950 . S
C1069 C1066 1.387 . S
C1070 C1071 1.387 . S
C1070 H1074 0.950 . S
C1070 C1079 1.390 . S
C1071 C1070 1.387 . S
C1071 C1073 1.387 . S
H1072 C1079 0.950 . S
C1073 C1071 1.387 . S
C1073 C1075 1.390 . S
C1073 H1077 0.950 . S
H1074 C1070 0.950 . S
C1075 C1073 1.390 . S
C1075 C1076 1.387 . S
C1075 H1078 0.950 . S
C1076 C1075 1.387 . S
C1076 C1079 1.387 . S
H1077 C1073 0.950 . S
H1078 C1075 0.950 . S
C1079 C1070 1.390 . S
C1079 H1072 0.950 . S
C1079 C1076 1.387 . S
C1080 C1081 1.387 . S
C1080 H1084 0.950 . S
C1080 C1089 1.390 . S
C1081 C1080 1.387 . S
C1081 C1083 1.387 . S
H1082 C1089 0.950 . S
C1083 C1081 1.387 . S
C1083 C1085 1.390 . S
C1083 H1087 0.950 . S
H1084 C1080 0.950 . S
C1085 C1083 1.390 . S
C1085 C1086 1.387 . S
C1085 H1088 0.950 . S
C1086 C1085 1.387 . S
C1086 C1089 1.387 . S
H1087 C1083 0.950 . S
H1088 C1085 0.950 . S
C1089 C1080 1.390 . S
C1089 H1082 0.950 . S
C1089 C1086 1.387 . S
C1090 C1091 1.387 . S
C1090 H1094 0.950 . S
C1090 C1099 1.390 . S
C1091 C1090 1.387 . S
C1091 C1093 1.387 . S
H1092 C1099 0.950 . S
C1093 C1091 1.387 . S
C1093 C1095 1.390 . S
C1093 H1097 0.950 . S
H1094 C1090 0.950 . S
C1095 C1093 1.390 . S
C1095 C1096 1.387 . S
C1095 H1098 0.950 . S
C1096 C1095 1.387 . S
C1096 C1099 1.387 . S
H1097 C1093 0.950 . S
H1098 C1095 0.950 . S
C1099 C1090 1.390 . S
C1099 H1092 0.950 . S
C1099 C1096 1.387 . S
C1100 C1101 1.387 . S
C1100 H1104 0.950 . S
C1100 C1109 1.390 . S
C1101 C1100 1.387 . S
C1101 C1103 1.387 . S
H1102 C1109 0.950 . S
C1103 C1101 1.387 . S
C1103 C1105 1.390 . S
C1103 H1107 0.950 . S
H1104 C1100 0.950 . S
C1105 C1103 1.390 . S
C1105 C1106 1.387 . S
C1105 H1108 0.950 . S
C1106 C1105 1.387 . S
C1106 C1109 1.387 . S
H1107 C1103 0.950 . S
H1108 C1105 0.950 . S
C1109 C1100 1.390 . S
C1109 H1102 0.950 . S
C1109 C1106 1.387 . S
C1110 C1111 1.387 . S
C1110 H1114 0.950 . S
C1110 C1119 1.390 . S
C1111 C1110 1.387 . S
C1111 C1113 1.387 . S
H1112 C1119 0.950 . S
C1113 C1111 1.387 . S
C1113 C1115 1.390 . S
C1113 H1117 0.950 . S
H1114 C1110 0.950 . S
C1115 C1113 1.390 . S
C1115 C1116 1.387 . S
C1115 H1118 0.950 . S
C1116 C1115 1.387 . S
C1116 C1119 1.387 . S
H1117 C1113 0.950 . S
H1118 C1115 0.950 . S
C1119 C1110 1.390 . S
C1119 H1112 0.950 . S
C1119 C1116 1.387 . S
C1120 C1121 1.387 . S
C1120 H1124 0.950 . S
C1120 C1129 1.390 1_565 S
C1121 C1120 1.387 . S
C1121 C1123 1.387 . S
H1122 C1129 0.950 . S
C1123 C1121 1.387 . S
C1123 C1125 1.390 . S
C1123 H1127 0.950 . S
H1124 C1120 0.950 . S
C1125 C1123 1.390 . S
C1125 C1126 1.387 1_565 S
C1125 H1128 0.950 . S
C1126 C1125 1.387 1_545 S
C1126 C1129 1.387 . S
H1127 C1123 0.950 . S
H1128 C1125 0.950 . S
C1129 C1120 1.390 1_545 S
C1129 H1122 0.950 . S
C1129 C1126 1.387 . S
C1130 C1131 1.387 . S
C1130 H1134 0.950 . S
C1130 C1139 1.390 1_655 S
C1131 C1130 1.387 . S
C1131 C1133 1.387 . S
H1132 C1139 0.950 . S
C1133 C1131 1.387 . S
C1133 C1135 1.390 1_655 S
C1133 H1137 0.950 . S
H1134 C1130 0.950 . S
C1135 C1133 1.390 1_455 S
C1135 C1136 1.387 . S
C1135 H1138 0.950 . S
C1136 C1135 1.387 . S
C1136 C1139 1.387 . S
H1137 C1133 0.950 . S
H1138 C1135 0.950 . S
C1139 C1130 1.390 1_455 S
C1139 H1132 0.950 . S
C1139 C1136 1.387 . S
C1140 C1141 1.387 . S
C1140 H1144 0.950 . S
C1140 C1149 1.390 1_545 S
C1141 C1140 1.387 . S
C1141 C1143 1.387 1_545 S
H1142 C1149 0.950 . S
C1143 C1141 1.387 1_565 S
C1143 C1145 1.390 . S
C1143 H1147 0.950 1_565 S
H1144 C1140 0.950 . S
C1145 C1143 1.390 . S
C1145 C1146 1.387 . S
C1145 H1148 0.950 . S
C1146 C1145 1.387 . S
C1146 C1149 1.387 . S
H1147 C1143 0.950 1_545 S
H1148 C1145 0.950 . S
C1149 C1140 1.390 1_565 S
C1149 H1142 0.950 . S
C1149 C1146 1.387 . S
C1150 C1151 1.387 1_455 S
C1150 H1154 0.950 1_455 S
C1150 C1159 1.390 . S
C1151 C1150 1.387 1_655 S
C1151 C1153 1.387 1_655 S
H1152 C1159 0.950 . S
C1153 C1151 1.387 1_455 S
C1153 C1155 1.390 . S
C1153 H1157 0.950 . S
H1154 C1150 0.950 1_655 S
C1155 C1153 1.390 . S
C1155 C1156 1.387 . S
C1155 H1158 0.950 . S
C1156 C1155 1.387 . S
C1156 C1159 1.387 . S
H1157 C1153 0.950 . S
H1158 C1155 0.950 . S
C1159 C1150 1.390 . S
C1159 H1152 0.950 . S
C1159 C1156 1.387 . S
C1160 C1161 1.387 . S
C1160 H1164 0.950 . S
C1160 C1169 1.390 . S
C1161 C1160 1.387 . S
C1161 C1163 1.387 . S
H1162 C1169 0.950 . S
C1163 C1161 1.387 . S
C1163 C1165 1.390 1_545 S
C1163 H1167 0.950 . S
H1164 C1160 0.950 . S
C1165 C1163 1.390 1_565 S
C1165 C1166 1.387 . S
C1165 H1168 0.950 . S
C1166 C1165 1.387 . S
C1166 C1169 1.387 1_565 S
H1167 C1163 0.950 . S
H1168 C1165 0.950 . S
C1169 C1160 1.390 . S
C1169 H1162 0.950 . S
C1169 C1166 1.387 1_545 S
C1170 C1171 1.387 . S
C1170 H1174 0.950 . S
C1170 C1179 1.390 1_655 S
C1171 C1170 1.387 . S
C1171 C1173 1.387 . S
H1172 C1179 0.950 . S
C1173 C1171 1.387 . S
C1173 C1175 1.390 1_655 S
C1173 H1177 0.950 . S
H1174 C1170 0.950 . S
C1175 C1173 1.390 1_455 S
C1175 C1176 1.387 . S
C1175 H1178 0.950 . S
C1176 C1175 1.387 . S
C1176 C1179 1.387 . S
H1177 C1173 0.950 . S
H1178 C1175 0.950 . S
C1179 C1170 1.390 1_455 S
C1179 H1172 0.950 . S
C1179 C1176 1.387 . S
C1180 C1181 1.387 1_565 S
C1180 H1184 0.950 1_565 S
C1180 C1189 1.390 . S
C1181 C1180 1.387 1_545 S
C1181 C1183 1.387 1_545 S
H1182 C1189 0.950 . S
C1183 C1181 1.387 1_565 S
C1183 C1185 1.390 . S
C1183 H1187 0.950 . S
H1184 C1180 0.950 1_545 S
C1185 C1183 1.390 . S
C1185 C1186 1.387 . S
C1185 H1188 0.950 . S
C1186 C1185 1.387 . S
C1186 C1189 1.387 . S
H1187 C1183 0.950 . S
H1188 C1185 0.950 . S
C1189 C1180 1.390 . S
C1189 H1182 0.950 . S
C1189 C1186 1.387 . S
C1190 C1191 1.387 . S
C1190 H1194 0.950 . S
C1190 C1199 1.390 1_655 S
C1191 C1190 1.387 . S
C1191 C1193 1.387 . S
H1192 C1199 0.950 . S
C1193 C1191 1.387 . S
C1193 C1195 1.390 1_655 S
C1193 H1197 0.950 . S
H1194 C1190 0.950 . S
C1195 C1193 1.390 1_455 S
C1195 C1196 1.387 . S
C1195 H1198 0.950 . S
C1196 C1195 1.387 . S
C1196 C1199 1.387 . S
H1197 C1193 0.950 . S
H1198 C1195 0.950 . S
C1199 C1190 1.390 1_455 S
C1199 H1192 0.950 . S
C1199 C1196 1.387 . S
C1200 C1201 1.387 . S
C1200 H1204 0.950 . S
C1200 C1209 1.390 . S
C1201 C1200 1.387 . S
C1201 C1203 1.387 . S
H1202 C1209 0.950 . S
C1203 C1201 1.387 . S
C1203 C1205 1.390 . S
C1203 H1207 0.950 . S
H1204 C1200 0.950 . S
C1205 C1203 1.390 . S
C1205 C1206 1.387 . S
C1205 H1208 0.950 . S
C1206 C1205 1.387 . S
C1206 C1209 1.387 . S
H1207 C1203 0.950 . S
H1208 C1205 0.950 . S
C1209 C1200 1.390 . S
C1209 H1202 0.950 . S
C1209 C1206 1.387 . S
C1210 C1211 1.387 . S
C1210 H1214 0.950 . S
C1210 C1219 1.390 1_556 S
C1211 C1210 1.387 . S
C1211 C1213 1.387 . S
H1212 C1219 0.950 . S
C1213 C1211 1.387 . S
C1213 C1215 1.390 1_556 S
C1213 H1217 0.950 . S
H1214 C1210 0.950 . S
C1215 C1213 1.390 1_554 S
C1215 C1216 1.387 . S
C1215 H1218 0.950 . S
C1216 C1215 1.387 . S
C1216 C1219 1.387 . S
H1217 C1213 0.950 . S
H1218 C1215 0.950 . S
C1219 C1210 1.390 1_554 S
C1219 H1212 0.950 . S
C1219 C1216 1.387 . S
C1220 C1221 1.387 . S
C1220 H1224 0.950 1_554 S
C1220 C1229 1.390 . S
C1221 C1220 1.387 . S
C1221 C1223 1.387 . S
H1222 C1229 0.950 . S
C1223 C1221 1.387 . S
C1223 C1225 1.390 . S
C1223 H1227 0.950 . S
H1224 C1220 0.950 1_556 S
C1225 C1223 1.390 . S
C1225 C1226 1.387 . S
C1225 H1228 0.950 . S
C1226 C1225 1.387 . S
C1226 C1229 1.387 . S
H1227 C1223 0.950 . S
H1228 C1225 0.950 . S
C1229 C1220 1.390 . S
C1229 H1222 0.950 . S
C1229 C1226 1.387 . S
C1230 C1231 1.387 . S
C1230 H1234 0.950 . S
C1230 C1239 1.390 1_554 S
C1231 C1230 1.387 . S
C1231 C1233 1.387 . S
H1232 C1239 0.950 . S
C1233 C1231 1.387 . S
C1233 C1235 1.390 1_554 S
C1233 H1237 0.950 . S
H1234 C1230 0.950 . S
C1235 C1233 1.390 1_556 S
C1235 C1236 1.387 . S
C1235 H1238 0.950 . S
C1236 C1235 1.387 . S
C1236 C1239 1.387 . S
H1237 C1233 0.950 . S
H1238 C1235 0.950 . S
C1239 C1230 1.390 1_556 S
C1239 H1232 0.950 . S
C1239 C1236 1.387 . S
C1240 C1241 1.387 . S
C1240 H1244 0.950 . S
C1240 C1249 1.390 1_556 S
C1241 C1240 1.387 . S
C1241 C1243 1.387 . S
H1242 C1249 0.950 . S
C1243 C1241 1.387 . S
C1243 C1245 1.390 1_556 S
C1243 H1247 0.950 . S
H1244 C1240 0.950 . S
C1245 C1243 1.390 1_554 S
C1245 C1246 1.387 . S
C1245 H1248 0.950 . S
C1246 C1245 1.387 . S
C1246 C1249 1.387 . S
H1247 C1243 0.950 . S
H1248 C1245 0.950 . S
C1249 C1240 1.390 1_554 S
C1249 H1242 0.950 . S
C1249 C1246 1.387 . S
C1250 C1251 1.387 . S
C1250 H1254 0.950 . S
C1250 C1259 1.390 . S
C1251 C1250 1.387 . S
C1251 C1253 1.387 . S
H1252 C1259 0.950 1_556 S
C1253 C1251 1.387 . S
C1253 C1255 1.390 . S
C1253 H1257 0.950 . S
H1254 C1250 0.950 . S
C1255 C1253 1.390 . S
C1255 C1256 1.387 . S
C1255 H1258 0.950 . S
C1256 C1255 1.387 . S
C1256 C1259 1.387 . S
H1257 C1253 0.950 . S
H1258 C1255 0.950 . S
C1259 C1250 1.390 . S
C1259 H1252 0.950 1_554 S
C1259 C1256 1.387 . S
C1260 C1261 1.387 . S
C1260 H1264 0.950 . S
C1260 C1269 1.390 1_554 S
C1261 C1260 1.387 . S
C1261 C1263 1.387 . S
H1262 C1269 0.950 . S
C1263 C1261 1.387 . S
C1263 C1265 1.390 1_554 S
C1263 H1267 0.950 . S
H1264 C1260 0.950 . S
C1265 C1263 1.390 1_556 S
C1265 C1266 1.387 . S
C1265 H1268 0.950 . S
C1266 C1265 1.387 . S
C1266 C1269 1.387 . S
H1267 C1263 0.950 . S
H1268 C1265 0.950 . S
C1269 C1260 1.390 1_556 S
C1269 H1262 0.950 . S
C1269 C1266 1.387 . S
C1270 C1271 1.387 . S
C1270 H1274 0.950 . S
C1270 C1279 1.390 . S
C1271 C1270 1.387 . S
C1271 C1273 1.387 . S
H1272 C1279 0.950 . S
C1273 C1271 1.387 . S
C1273 C1275 1.390 . S
C1273 H1277 0.950 . S
H1274 C1270 0.950 . S
C1275 C1273 1.390 . S
C1275 C1276 1.387 . S
C1275 H1278 0.950 . S
C1276 C1275 1.387 . S
C1276 C1279 1.387 . S
H1277 C1273 0.950 . S
H1278 C1275 0.950 . S
C1279 C1270 1.390 . S
C1279 H1272 0.950 . S
C1279 C1276 1.387 . S
C1280 C1281 1.387 . S
C1280 H1284 0.950 . S
C1280 C1289 1.390 1_455 S
C1281 C1280 1.387 . S
C1281 C1283 1.387 . S
H1282 C1289 0.950 . S
C1283 C1281 1.387 . S
C1283 C1285 1.390 1_455 S
C1283 H1287 0.950 . S
H1284 C1280 0.950 . S
C1285 C1283 1.390 1_655 S
C1285 C1286 1.387 . S
C1285 H1288 0.950 . S
C1286 C1285 1.387 . S
C1286 C1289 1.387 . S
H1287 C1283 0.950 . S
H1288 C1285 0.950 . S
C1289 C1280 1.390 1_655 S
C1289 H1282 0.950 . S
C1289 C1286 1.387 . S
C1290 C1291 1.387 . S
C1290 H1294 0.950 . S
C1290 C1299 1.390 1_455 S
C1291 C1290 1.387 . S
C1291 C1293 1.387 . S
H1292 C1299 0.950 . S
C1293 C1291 1.387 . S
C1293 C1295 1.390 1_455 S
C1293 H1297 0.950 . S
H1294 C1290 0.950 . S
C1295 C1293 1.390 1_655 S
C1295 C1296 1.387 . S
C1295 H1298 0.950 . S
C1296 C1295 1.387 . S
C1296 C1299 1.387 . S
H1297 C1293 0.950 . S
H1298 C1295 0.950 . S
C1299 C1290 1.390 1_655 S
C1299 H1292 0.950 . S
C1299 C1296 1.387 . S
C1300 C1301 1.387 . S
C1300 H1304 0.950 . S
C1300 C1309 1.390 . S
C1301 C1300 1.387 . S
C1301 C1303 1.387 . S
H1302 C1309 0.950 . S
C1303 C1301 1.387 . S
C1303 C1305 1.390 1_565 S
C1303 H1307 0.950 . S
H1304 C1300 0.950 . S
C1305 C1303 1.390 1_545 S
C1305 C1306 1.387 . S
C1305 H1308 0.950 . S
C1306 C1305 1.387 . S
C1306 C1309 1.387 1_545 S
H1307 C1303 0.950 . S
H1308 C1305 0.950 . S
C1309 C1300 1.390 . S
C1309 H1302 0.950 . S
C1309 C1306 1.387 1_565 S
C1310 C1311 1.387 . S
C1310 H1314 0.950 . S
C1310 C1319 1.390 . S
C1311 C1310 1.387 . S
C1311 C1313 1.387 . S
H1312 C1319 0.950 . S
C1313 C1311 1.387 . S
C1313 C1315 1.390 . S
C1313 H1317 0.950 . S
H1314 C1310 0.950 . S
C1315 C1313 1.390 . S
C1315 C1316 1.387 1_455 S
C1315 H1318 0.950 1_455 S
C1316 C1315 1.387 1_655 S
C1316 C1319 1.387 1_655 S
H1317 C1313 0.950 . S
H1318 C1315 0.950 1_655 S
C1319 C1310 1.390 . S
C1319 H1312 0.950 . S
C1319 C1316 1.387 1_455 S
C1320 C1321 1.387 . S
C1320 H1324 0.950 . S
C1320 C1329 1.390 . S
C1321 C1320 1.387 . S
C1321 C1323 1.387 . S
H1322 C1329 0.950 1_545 S
C1323 C1321 1.387 . S
C1323 C1325 1.422 . S
C1323 H1327 0.950 . S
H1324 C1320 0.950 . S
C1325 C1323 1.422 . S
C1325 C1326 1.374 1_565 S
C1325 H1328 0.932 1_565 S
C1326 C1325 1.374 1_545 S
C1326 C1329 1.387 1_545 S
H1327 C1323 0.950 . S
H1328 C1325 0.932 1_545 S
C1329 C1320 1.390 . S
C1329 H1322 0.950 1_565 S
C1329 C1326 1.387 1_565 S
C1330 C1331 1.387 . S
C1330 H1334 0.950 . S
C1330 C1339 1.390 1_655 S
C1331 C1330 1.387 . S
C1331 C1333 1.387 . S
H1332 C1339 0.950 . S
C1333 C1331 1.387 . S
C1333 C1335 1.390 1_655 S
C1333 H1337 0.950 . S
H1334 C1330 0.950 . S
C1335 C1333 1.390 1_455 S
C1335 C1336 1.387 . S
C1335 H1338 0.950 . S
C1336 C1335 1.387 . S
C1336 C1339 1.387 . S
H1337 C1333 0.950 . S
H1338 C1335 0.950 . S
C1339 C1330 1.390 1_455 S
C1339 H1332 0.950 . S
C1339 C1336 1.387 . S
C1340 C1341 1.387 . S
C1340 H1344 0.950 . S
C1340 C1349 1.390 . S
C1341 C1340 1.387 . S
C1341 C1343 1.387 . S
H1342 C1349 0.950 1_545 S
C1343 C1341 1.387 . S
C1343 C1345 1.390 . S
C1343 H1347 0.950 . S
H1344 C1340 0.950 . S
C1345 C1343 1.390 . S
C1345 C1346 1.387 1_565 S
C1345 H1348 0.950 . S
C1346 C1345 1.387 1_545 S
C1346 C1349 1.387 1_545 S
H1347 C1343 0.950 . S
H1348 C1345 0.950 . S
C1349 C1340 1.390 . S
C1349 H1342 0.950 1_565 S
C1349 C1346 1.387 1_565 S
C1350 C1351 1.387 1_545 S
C1350 H1354 0.950 . S
C1350 C1359 1.390 . S
C1351 C1350 1.387 1_565 S
C1351 C1353 1.387 . S
H1352 C1359 0.950 . S
C1353 C1351 1.387 . S
C1353 C1355 1.390 1_565 S
C1353 H1357 0.950 . S
H1354 C1350 0.950 . S
C1355 C1353 1.390 1_545 S
C1355 C1356 1.387 . S
C1355 H1358 0.950 . S
C1356 C1355 1.387 . S
C1356 C1359 1.387 . S
H1357 C1353 0.950 . S
H1358 C1355 0.950 . S
C1359 C1350 1.390 . S
C1359 H1352 0.950 . S
C1359 C1356 1.387 . S
C1360 C1361 1.387 . S
C1360 H1364 0.950 . S
C1360 C1369 1.390 . S
C1361 C1360 1.387 . S
C1361 C1363 1.387 . S
H1362 C1369 0.950 . S
C1363 C1361 1.387 . S
C1363 C1365 1.390 . S
C1363 H1367 0.950 . S
H1364 C1360 0.950 . S
C1365 C1363 1.390 . S
C1365 C1366 1.387 . S
C1365 H1368 0.950 . S
C1366 C1365 1.387 . S
C1366 C1369 1.387 . S
H1367 C1363 0.950 . S
H1368 C1365 0.950 . S
C1369 C1360 1.390 . S
C1369 H1362 0.950 . S
C1369 C1366 1.387 . S
C1370 C1371 1.387 . S
C1370 H1374 0.950 . S
C1370 C1379 1.390 . S
C1371 C1370 1.387 . S
C1371 C1373 1.387 . S
H1372 C1379 0.950 . S
C1373 C1371 1.387 . S
C1373 C1375 1.390 . S
C1373 H1377 0.950 . S
H1374 C1370 0.950 . S
C1375 C1373 1.390 . S
C1375 C1376 1.387 . S
C1375 H1378 0.950 . S
C1376 C1375 1.387 . S
C1376 C1379 1.387 . S
H1377 C1373 0.950 . S
H1378 C1375 0.950 . S
C1379 C1370 1.390 . S
C1379 H1372 0.950 . S
C1379 C1376 1.387 . S
C1380 C1381 1.387 . S
C1380 H1384 0.950 . S
C1380 C1389 1.390 . S
C1381 C1380 1.387 . S
C1381 C1383 1.387 . S
H1382 C1389 0.950 . S
C1383 C1381 1.387 . S
C1383 C1385 1.390 . S
C1383 H1387 0.950 . S
H1384 C1380 0.950 . S
C1385 C1383 1.390 . S
C1385 C1386 1.387 . S
C1385 H1388 0.950 . S
C1386 C1385 1.387 . S
C1386 C1389 1.387 . S
H1387 C1383 0.950 . S
H1388 C1385 0.950 . S
C1389 C1380 1.390 . S
C1389 H1382 0.950 . S
C1389 C1386 1.387 . S
C1390 C1391 1.387 . S
C1390 H1394 0.950 . S
C1390 C1399 1.390 . S
C1391 C1390 1.387 . S
C1391 C1393 1.387 . S
H1392 C1399 0.950 . S
C1393 C1391 1.387 . S
C1393 C1395 1.390 . S
C1393 H1397 0.950 . S
H1394 C1390 0.950 . S
C1395 C1393 1.390 . S
C1395 C1396 1.387 . S
C1395 H1398 0.950 . S
C1396 C1395 1.387 . S
C1396 C1399 1.387 . S
H1397 C1393 0.950 . S
H1398 C1395 0.950 . S
C1399 C1390 1.390 . S
C1399 H1392 0.950 . S
C1399 C1396 1.387 . S
C1400 C1401 1.387 . S
C1400 H1404 0.950 . S
C1400 C1409 1.390 . S
C1401 C1400 1.387 . S
C1401 C1403 1.387 . S
H1402 C1409 0.950 . S
C1403 C1401 1.387 . S
C1403 C1405 1.390 . S
C1403 H1407 0.950 . S
H1404 C1400 0.950 . S
C1405 C1403 1.390 . S
C1405 C1406 1.387 . S
C1405 H1408 0.950 . S
C1406 C1405 1.387 . S
C1406 C1409 1.387 . S
H1407 C1403 0.950 . S
H1408 C1405 0.950 . S
C1409 C1400 1.390 . S
C1409 H1402 0.950 . S
C1409 C1406 1.387 . S
C1410 C1411 1.387 . S
C1410 H1414 0.950 . S
C1410 C1419 1.390 . S
C1411 C1410 1.387 . S
C1411 C1413 1.387 . S
H1412 C1419 0.950 . S
C1413 C1411 1.387 . S
C1413 C1415 1.390 . S
C1413 H1417 0.950 . S
H1414 C1410 0.950 . S
C1415 C1413 1.390 . S
C1415 C1416 1.387 . S
C1415 H1418 0.950 . S
C1416 C1415 1.387 . S
C1416 C1419 1.387 . S
H1417 C1413 0.950 . S
H1418 C1415 0.950 . S
C1419 C1410 1.390 . S
C1419 H1412 0.950 . S
C1419 C1416 1.387 . S
C1420 C1421 1.387 . S
C1420 H1424 0.950 . S
C1420 C1429 1.390 . S
C1421 C1420 1.387 . S
C1421 C1423 1.387 . S
H1422 C1429 0.950 . S
C1423 C1421 1.387 . S
C1423 C1425 1.390 . S
C1423 H1427 0.950 . S
H1424 C1420 0.950 . S
C1425 C1423 1.390 . S
C1425 C1426 1.387 . S
C1425 H1428 0.950 . S
C1426 C1425 1.387 . S
C1426 C1429 1.387 . S
H1427 C1423 0.950 . S
H1428 C1425 0.950 . S
C1429 C1420 1.390 . S
C1429 H1422 0.950 . S
C1429 C1426 1.387 . S
C1430 C1431 1.387 . S
C1430 H1434 0.950 . S
C1430 C1439 1.390 . S
C1431 C1430 1.387 . S
C1431 C1433 1.387 . S
H1432 C1439 0.950 . S
C1433 C1431 1.387 . S
C1433 C1435 1.390 . S
C1433 H1437 0.950 . S
H1434 C1430 0.950 . S
C1435 C1433 1.390 . S
C1435 C1436 1.387 . S
C1435 H1438 0.950 . S
C1436 C1435 1.387 . S
C1436 C1439 1.387 . S
H1437 C1433 0.950 . S
H1438 C1435 0.950 . S
C1439 C1430 1.390 . S
C1439 H1432 0.950 . S
C1439 C1436 1.387 . S
C1440 C1441 1.387 . S
C1440 H1444 0.950 . S
C1440 C1449 1.390 . S
C1441 C1440 1.387 . S
C1441 C1443 1.387 . S
H1442 C1449 0.950 . S
C1443 C1441 1.387 . S
C1443 C1445 1.390 . S
C1443 H1447 0.950 . S
H1444 C1440 0.950 . S
C1445 C1443 1.390 . S
C1445 C1446 1.387 . S
C1445 H1448 0.950 . S
C1446 C1445 1.387 . S
C1446 C1449 1.387 . S
H1447 C1443 0.950 . S
H1448 C1445 0.950 . S
C1449 C1440 1.390 . S
C1449 H1442 0.950 . S
C1449 C1446 1.387 . S
C1450 C1451 1.387 . S
C1450 H1454 0.950 . S
C1450 C1459 1.390 . S
C1451 C1450 1.387 . S
C1451 C1453 1.387 . S
H1452 C1459 0.950 . S
C1453 C1451 1.387 . S
C1453 C1455 1.390 . S
C1453 H1457 0.950 . S
H1454 C1450 0.950 . S
C1455 C1453 1.390 . S
C1455 C1456 1.387 . S
C1455 H1458 0.950 . S
C1456 C1455 1.387 . S
C1456 C1459 1.387 . S
H1457 C1453 0.950 . S
H1458 C1455 0.950 . S
C1459 C1450 1.390 . S
C1459 H1452 0.950 . S
C1459 C1456 1.387 . S
C1460 C1461 1.387 . S
C1460 H1464 0.950 . S
C1460 C1469 1.390 . S
C1461 C1460 1.387 . S
C1461 C1463 1.387 . S
H1462 C1469 0.950 . S
C1463 C1461 1.387 . S
C1463 C1465 1.390 . S
C1463 H1467 0.950 . S
H1464 C1460 0.950 . S
C1465 C1463 1.390 . S
C1465 C1466 1.387 . S
C1465 H1468 0.950 . S
C1466 C1465 1.387 . S
C1466 C1469 1.387 . S
H1467 C1463 0.950 . S
H1468 C1465 0.950 . S
C1469 C1460 1.390 . S
C1469 H1462 0.950 . S
C1469 C1466 1.387 . S
C1470 C1471 1.387 . S
C1470 H1474 0.950 . S
C1470 C1479 1.390 . S
C1471 C1470 1.387 . S
C1471 C1473 1.387 . S
H1472 C1479 0.950 . S
C1473 C1471 1.387 . S
C1473 C1475 1.390 . S
C1473 H1477 0.950 . S
H1474 C1470 0.950 . S
C1475 C1473 1.390 . S
C1475 C1476 1.387 . S
C1475 H1478 0.950 . S
C1476 C1475 1.387 . S
C1476 C1479 1.387 . S
H1477 C1473 0.950 . S
H1478 C1475 0.950 . S
C1479 C1470 1.390 . S
C1479 H1472 0.950 . S
C1479 C1476 1.387 . S
C1480 C1481 1.387 . S
C1480 H1484 0.950 . S
C1480 C1489 1.390 . S
C1481 C1480 1.387 . S
C1481 C1483 1.387 . S
H1482 C1489 0.950 . S
C1483 C1481 1.387 . S
C1483 C1485 1.390 . S
C1483 H1487 0.950 . S
H1484 C1480 0.950 . S
C1485 C1483 1.390 . S
C1485 C1486 1.387 . S
C1485 H1488 0.950 . S
C1486 C1485 1.387 . S
C1486 C1489 1.387 . S
H1487 C1483 0.950 . S
H1488 C1485 0.950 . S
C1489 C1480 1.390 . S
C1489 H1482 0.950 . S
C1489 C1486 1.387 . S
C1490 C1491 1.387 . S
C1490 H1494 0.950 . S
C1490 C1499 1.390 . S
C1491 C1490 1.387 . S
C1491 C1493 1.387 . S
H1492 C1499 0.950 . S
C1493 C1491 1.387 . S
C1493 C1495 1.390 . S
C1493 H1497 0.950 . S
H1494 C1490 0.950 . S
C1495 C1493 1.390 . S
C1495 C1496 1.387 . S
C1495 H1498 0.950 . S
C1496 C1495 1.387 . S
C1496 C1499 1.387 . S
H1497 C1493 0.950 . S
H1498 C1495 0.950 . S
C1499 C1490 1.390 . S
C1499 H1492 0.950 . S
C1499 C1496 1.387 . S
C1500 C1501 1.387 . S
C1500 H1504 0.950 . S
C1500 C1509 1.390 . S
C1501 C1500 1.387 . S
C1501 C1503 1.387 . S
H1502 C1509 0.950 . S
C1503 C1501 1.387 . S
C1503 C1505 1.390 . S
C1503 H1507 0.950 . S
H1504 C1500 0.950 . S
C1505 C1503 1.390 . S
C1505 C1506 1.387 . S
C1505 H1508 0.950 . S
C1506 C1505 1.387 . S
C1506 C1509 1.387 . S
H1507 C1503 0.950 . S
H1508 C1505 0.950 . S
C1509 C1500 1.390 . S
C1509 H1502 0.950 . S
C1509 C1506 1.387 . S
C1510 C1511 1.387 . S
C1510 H1514 0.950 . S
C1510 C1519 1.390 . S
C1511 C1510 1.387 . S
C1511 C1513 1.387 . S
H1512 C1519 0.950 . S
C1513 C1511 1.387 . S
C1513 C1515 1.390 . S
C1513 H1517 0.950 . S
H1514 C1510 0.950 . S
C1515 C1513 1.390 . S
C1515 C1516 1.387 . S
C1515 H1518 0.950 . S
C1516 C1515 1.387 . S
C1516 C1519 1.387 . S
H1517 C1513 0.950 . S
H1518 C1515 0.950 . S
C1519 C1510 1.390 . S
C1519 H1512 0.950 . S
C1519 C1516 1.387 . S
C1520 C1521 1.387 . S
C1520 H1524 0.950 . S
C1520 C1529 1.390 . S
C1521 C1520 1.387 . S
C1521 C1523 1.387 . S
H1522 C1529 0.950 . S
C1523 C1521 1.387 . S
C1523 C1525 1.390 . S
C1523 H1527 0.950 . S
H1524 C1520 0.950 . S
C1525 C1523 1.390 . S
C1525 C1526 1.387 . S
C1525 H1528 0.950 . S
C1526 C1525 1.387 . S
C1526 C1529 1.387 . S
H1527 C1523 0.950 . S
H1528 C1525 0.950 . S
C1529 C1520 1.390 . S
C1529 H1522 0.950 . S
C1529 C1526 1.387 . S
C1530 C1531 1.387 . S
C1530 H1534 0.950 . S
C1530 C1539 1.390 . S
C1531 C1530 1.387 . S
C1531 C1533 1.387 . S
H1532 C1539 0.950 . S
C1533 C1531 1.387 . S
C1533 C1535 1.390 . S
C1533 H1537 0.950 . S
H1534 C1530 0.950 . S
C1535 C1533 1.390 . S
C1535 C1536 1.387 . S
C1535 H1538 0.950 . S
C1536 C1535 1.387 . S
C1536 C1539 1.387 . S
H1537 C1533 0.950 . S
H1538 C1535 0.950 . S
C1539 C1530 1.390 . S
C1539 H1532 0.950 . S
C1539 C1536 1.387 . S
C1540 C1541 1.387 . S
C1540 H1544 0.950 . S
C1540 C1549 1.390 . S
C1541 C1540 1.387 . S
C1541 C1543 1.387 . S
H1542 C1549 0.950 . S
C1543 C1541 1.387 . S
C1543 C1545 1.390 . S
C1543 H1547 0.950 . S
H1544 C1540 0.950 . S
C1545 C1543 1.390 . S
C1545 C1546 1.387 . S
C1545 H1548 0.950 . S
C1546 C1545 1.387 . S
C1546 C1549 1.387 . S
H1547 C1543 0.950 . S
H1548 C1545 0.950 . S
C1549 C1540 1.390 . S
C1549 H1542 0.950 . S
C1549 C1546 1.387 . S
C1550 C1551 1.387 . S
C1550 H1554 0.950 . S
C1550 C1559 1.390 . S
C1551 C1550 1.387 . S
C1551 C1553 1.387 . S
H1552 C1559 0.950 . S
C1553 C1551 1.387 . S
C1553 C1555 1.390 . S
C1553 H1557 0.950 . S
H1554 C1550 0.950 . S
C1555 C1553 1.390 . S
C1555 C1556 1.387 . S
C1555 H1558 0.950 . S
C1556 C1555 1.387 . S
C1556 C1559 1.387 . S
H1557 C1553 0.950 . S
H1558 C1555 0.950 . S
C1559 C1550 1.390 . S
C1559 H1552 0.950 . S
C1559 C1556 1.387 . S
C1560 C1561 1.387 . S
C1560 H1564 0.950 . S
C1560 C1569 1.390 . S
C1561 C1560 1.387 . S
C1561 C1563 1.387 . S
H1562 C1569 0.950 . S
C1563 C1561 1.387 . S
C1563 C1565 1.390 . S
C1563 H1567 0.950 . S
H1564 C1560 0.950 . S
C1565 C1563 1.390 . S
C1565 C1566 1.387 . S
C1565 H1568 0.950 . S
C1566 C1565 1.387 . S
C1566 C1569 1.387 . S
H1567 C1563 0.950 . S
H1568 C1565 0.950 . S
C1569 C1560 1.390 . S
C1569 H1562 0.950 . S
C1569 C1566 1.387 . S
C1570 C1571 1.387 . S
C1570 H1574 0.950 . S
C1570 C1579 1.390 . S
C1571 C1570 1.387 . S
C1571 C1573 1.387 . S
H1572 C1579 0.950 . S
C1573 C1571 1.387 . S
C1573 C1575 1.390 . S
C1573 H1577 0.950 . S
H1574 C1570 0.950 . S
C1575 C1573 1.390 . S
C1575 C1576 1.387 . S
C1575 H1578 0.950 . S
C1576 C1575 1.387 . S
C1576 C1579 1.387 . S
H1577 C1573 0.950 . S
H1578 C1575 0.950 . S
C1579 C1570 1.390 . S
C1579 H1572 0.950 . S
C1579 C1576 1.387 . S
C1580 C1581 1.387 . S
C1580 H1584 0.950 . S
C1580 C1589 1.390 . S
C1581 C1580 1.387 . S
C1581 C1583 1.387 . S
H1582 C1589 0.950 . S
C1583 C1581 1.387 . S
C1583 C1585 1.390 . S
C1583 H1587 0.950 . S
H1584 C1580 0.950 . S
C1585 C1583 1.390 . S
C1585 C1586 1.387 . S
C1585 H1588 0.950 . S
C1586 C1585 1.387 . S
C1586 C1589 1.387 . S
H1587 C1583 0.950 . S
H1588 C1585 0.950 . S
C1589 C1580 1.390 . S
C1589 H1582 0.950 . S
C1589 C1586 1.387 . S
C1590 C1591 1.387 . S
C1590 H1594 0.950 . S
C1590 C1599 1.390 . S
C1591 C1590 1.387 . S
C1591 C1593 1.387 . S
H1592 C1599 0.950 . S
C1593 C1591 1.387 . S
C1593 C1595 1.390 . S
C1593 H1597 0.950 . S
H1594 C1590 0.950 . S
C1595 C1593 1.390 . S
C1595 C1596 1.387 . S
C1595 H1598 0.950 . S
C1596 C1595 1.387 . S
C1596 C1599 1.387 . S
H1597 C1593 0.950 . S
H1598 C1595 0.950 . S
C1599 C1590 1.390 . S
C1599 H1592 0.950 . S
C1599 C1596 1.387 . S
C641 C333 1.897 . S
C646 C5 1.941 . S
C651 C474 1.739 . S
C656 C28 1.602 . S
C661 C48 2.174 . S
C666 C433 2.144 . S
C671 C68 1.191 . S
C676 C445 1.353 . S
C681 C93 1.895 . S
C686 C345 1.941 . S
C691 C114 1.738 . S
C696 C368 1.604 . S
C701 C388 2.172 . S
C706 C133 2.142 . S
C711 C145 1.353 . S
C716 C408 1.190 . S
C721 C168 2.449 . S
C726 C13 2.452 . S
C731 C25 1.722 . S
C736 C193 1.668 . S
C741 C208 1.526 . S
C746 C45 1.569 . S
C751 C65 1.716 . S
C756 C222 1.702 . S
C761 C88 1.525 . S
C766 C245 1.570 . S
C771 C265 1.716 . S
C776 C102 1.702 . S
C781 C128 2.449 . S
C786 C293 2.451 . S
C791 C305 1.722 . S
C796 C153 1.668 . S
C801 C165 0.719 . S
C806 C325 0.715 . S
C811 C348 2.735 . S
C816 C253 2.708 . S
C821 C373 3.359 . S
C826 C273 3.374 . S
C831 C288 2.734 . S
C836 C393 2.710 . S
C841 C413 3.374 . S
C846 C313 3.359 . S
C851 C425 0.717 . S
C856 C205 0.713 . S
C861 C237 1.394 . S
C866 C448 1.383 . S
C871 C477 1.394 . S
C876 C188 1.382 . S
C881 C634 1.738 . S
C886 C308 1.604 . S
C891 C268 1.196 . S
C896 C605 1.353 . S
C901 C568 1.602 . S
C906 C234 1.739 . S
C911 C588 1.194 . S
C916 C185 1.352 . S
C921 C353 2.450 . S
C926 C488 2.449 . S
C931 C385 1.569 . S
C936 C508 1.526 . S
C941 C525 1.569 . S
C946 C328 1.526 . S
C951 C553 2.452 . S
C956 C428 2.449 . S
C961 C485 0.720 . S
C966 C85 0.714 . S
C971 C533 2.708 . S
C976 C8 2.736 . S
C981 C73 3.374 . S
C986 C573 3.359 . S
C991 C548 2.735 . S
C996 C53 2.710 . S
C1001 C593 3.374 . S
C1006 C33 3.359 . S
C1011 C125 0.718 . S
C1016 C505 0.715 . S
C1021 C608 1.383 . S
C1026 C117 1.394 . S
C1031 C148 1.382 . S
C1036 C637 1.394 . S
C1041 C285 1.942 . S
C1046 C513 1.897 . S
C1051 C248 2.172 . S
C1056 C493 2.143 . S
C1061 C545 1.942 . S
C1066 C213 1.897 . S
C1071 C528 2.173 . S
C1076 C173 2.144 . S
C1081 C365 1.721 . S
C1086 C613 1.665 . S
C1091 C405 1.713 . S
C1096 C622 1.699 . S
C1101 C585 1.716 . S
C1106 C462 1.702 . S
C1111 C453 1.666 . S
C1116 C565 1.722 . S
C1121 C77 2.240 . S
C1126 C14 2.301 . S
C1131 C22 3.081 . S
C1136 C2 3.053 . S
C1141 C37 2.523 . S
C1146 C42 2.680 . S
C1151 C57 2.444 . S
C1156 C62 2.752 . S
C1161 C113 1.544 . S
C1166 C97 1.278 . S
C1171 C134 1.399 . S
C1176 C105 1.374 . S
C1181 C137 2.052 . S
C1186 C142 2.272 . S
C1191 C154 1.104 . S
C1196 C94 1.058 . S
C1201 C162 2.202 . S
C1206 C374 2.110 1_554 S
C1211 C394 2.033 . S
C1216 C197 1.917 . S
C1221 C414 1.635 1_554 S
C1226 C202 1.672 . S
C1231 C228 2.297 . S
C1236 C357 2.371 . S
C1241 C254 2.033 . S
C1246 C457 1.916 . S
C1251 C322 1.672 . S
C1256 C274 1.635 1_554 S
C1261 C468 2.294 . S
C1266 C297 2.372 . S
C1271 C314 2.110 1_554 S
C1276 C422 2.202 . S
C1281 C334 1.057 . S
C1286 C194 1.105 . S
C1291 C342 3.055 . S
C1296 C302 3.083 . S
C1301 C242 2.677 . S
C1306 C377 2.524 . S
C1311 C262 2.753 . S
C1316 C397 2.441 . S
C1321 C417 2.239 . S
C1326 C294 2.303 . S
C1331 C434 1.398 . S
C1336 C225 1.376 . S
C1341 C442 2.272 . S
C1346 C177 2.052 . S
C1351 C217 1.279 . S
C1356 C473 1.543 . S
C1361 C354 2.304 . S
C1366 C277 2.238 . S
C1371 C317 2.522 . S
C1376 C382 2.678 . S
C1381 C337 1.279 . S
C1386 C233 1.546 . S
C1391 C182 2.272 . S
C1396 C437 2.051 . S
C1401 C482 2.202 . S
C1406 C574 2.110 . S
C1411 C54 2.034 . S
C1416 C157 1.916 . S
C1421 C502 1.672 . S
C1426 C594 1.635 . S
C1431 C108 2.297 . S
C1436 C17 2.371 . S
C1441 C617 1.917 . S
C1446 C534 2.033 . S
C1451 C74 1.639 . S
C1456 C82 1.673 . S
C1461 C557 2.371 . S
C1466 C628 2.297 . S
C1471 C122 2.202 . S
C1476 C34 2.110 . S
C1481 C577 2.524 . S
C1486 C522 2.677 . S
C1491 C554 2.304 . S
C1496 C597 2.239 . S
C1501 C497 2.052 . S
C1506 C602 2.271 . S
C1511 C517 1.280 . S
C1516 C633 1.546 . S
C1521 C362 3.083 . S
C1526 C282 3.054 . S
C1531 C402 2.753 . S
C1536 C257 2.441 . S
C1541 C174 1.398 . S
C1546 C465 1.374 . S
C1551 C214 1.057 . S
C1556 C454 1.105 . S
C1561 C614 1.102 . S
C1566 C514 1.062 . S
C1571 C562 3.081 . S
C1576 C542 3.054 . S
C1581 C582 2.752 . S
C1586 C537 2.444 . S
C1591 C494 1.398 . S
C1596 C625 1.374 . S
