# Generated by pormake.
# Topology sxb, (6)-cn, num edge types: 1
# Building blocks:
#     Node 0, Type 0, BuildingBlock: MIFKUJ_clean_sbu_0, # of connection points: 6
#     Node 1, Type 0, BuildingBlock: MIFKUJ_clean_sbu_0, # of connection points: 6
#     Node 2, Type 0, BuildingBlock: MIFKUJ_clean_sbu_0, # of connection points: 6
#     Node 3, Type 0, BuildingBlock: MIFKUJ_clean_sbu_0, # of connection points: 6
#     Edge 4, Type (0, 0), BuildingBlock: MIFKUJ_clean_linker_0, # of connection points: 2
#     Edge 5, Type (0, 0), BuildingBlock: MIFKUJ_clean_linker_0, # of connection points: 2
#     Edge 6, Type (0, 0), BuildingBlock: MIFKUJ_clean_linker_0, # of connection points: 2
#     Edge 7, Type (0, 0), BuildingBlock: MIFKUJ_clean_linker_0, # of connection points: 2
#     Edge 8, Type (0, 0), BuildingBlock: MIFKUJ_clean_linker_0, # of connection points: 2
#     Edge 9, Type (0, 0), BuildingBlock: MIFKUJ_clean_linker_0, # of connection points: 2
#     Edge 10, Type (0, 0), BuildingBlock: MIFKUJ_clean_linker_0, # of connection points: 2
#     Edge 11, Type (0, 0), BuildingBlock: MIFKUJ_clean_linker_0, # of connection points: 2
#     Edge 12, Type (0, 0), BuildingBlock: MIFKUJ_clean_linker_0, # of connection points: 2
#     Edge 13, Type (0, 0), BuildingBlock: MIFKUJ_clean_linker_0, # of connection points: 2
#     Edge 14, Type (0, 0), BuildingBlock: MIFKUJ_clean_linker_0, # of connection points: 2
#     Edge 15, Type (0, 0), BuildingBlock: MIFKUJ_clean_linker_0, # of connection points: 2
# Relax obj value: 0.017
# Max RMSD: 0.062
# Mean RMSD: 0.050
data_MOF--net-sxb--node1-MIFKUJ_clean_sbu_0--edge1-MIFKUJ_clean_linker_0
_symmetry_space_group_name_H-M    P1
_symmetry_Int_Tables_number       1
_symmetry_cell_setting            triclinic
loop_
_symmetry_equiv_pos_as_xyz
'x, y, z'
_cell_length_a     22.291421
_cell_length_b     39.510375
_cell_length_c     37.683311
_cell_angle_alpha  95.722957
_cell_angle_beta   96.416841
_cell_angle_gamma 87.049361
loop_
_atom_site_label
_atom_site_type_symbol
_atom_site_fract_x
_atom_site_fract_y
_atom_site_fract_z
_atom_type_partial_charge
Zn0 Zn 0.05411 0.00303 0.98681 0.0
Zn1 Zn 0.92298 0.99077 0.97899 0.0
C2 C 0.09354 0.93642 0.00854 0.0
O3 O 0.10563 0.95413 0.03969 0.0
C4 C 0.8644 0.05422 0.96295 0.0
O5 O 0.83112 0.03272 0.94137 0.0
O6 O 0.13828 0.01829 -0.00911 0.0
O7 O 0.01286 0.0182 0.94013 0.0
O8 O 0.95752 0.97332 0.93337 0.0
C9 C 0.16756 0.00837 0.96448 0.0
O10 O 0.13919 0.99235 0.93571 0.0
O11 O 0.06805 0.95138 0.98209 0.0
C12 C 0.81161 0.98283 0.00325 0.0
O13 O 0.8401 -0.00012 0.03129 0.0
O14 O 0.83947 0.97408 0.97595 0.0
O15 O 0.96247 0.97606 0.02559 0.0
O16 O 0.02143 0.01932 0.03368 0.0
O17 O 0.91057 0.04272 0.98182 0.0
C18 C 0.98492 0.9953 0.91967 0.0
C19 C 0.99089 -0.00176 0.04663 0.0
Zn20 Zn 0.06915 0.03011 0.49056 0.0
Zn21 Zn 0.94472 0.95918 0.48965 0.0
C22 C 0.19264 0.03053 0.51561 0.0
O23 O 0.17184 0.05858 0.53264 0.0
C24 C 0.83071 0.00099 0.4866 0.0
O25 O 0.84933 0.01417 0.45931 0.0
O26 O 0.07556 0.07871 0.48127 0.0
O27 O 0.02164 0.0062 0.4474 0.0
O28 O 0.95237 0.9671 0.4384 0.0
C29 C 0.11091 0.08476 0.45866 0.0
O30 O 0.13635 0.05905 0.44018 0.0
O31 O 0.15544 0.0112 0.49633 0.0
C32 C 0.90666 0.90141 0.5173 0.0
O33 O 0.89141 0.9254 0.54174 0.0
O34 O 0.93577 0.90921 0.49233 0.0
O35 O 0.01689 0.97582 0.52174 0.0
O36 O 0.03236 0.02954 0.53648 0.0
O37 O 0.8656 0.98047 0.50387 0.0
C38 C 0.98598 0.98736 0.4263 0.0
C39 C 0.01164 0.00206 0.54361 0.0
Zn40 Zn 0.56982 0.46209 -0.01091 0.0
Zn41 Zn 0.42309 0.53736 -0.00961 0.0
C42 C 0.57933 0.38831 -0.00823 0.0
O43 O 0.55122 0.39512 0.02064 0.0
C44 C 0.40257 0.60822 0.97985 0.0
O45 O 0.41008 0.5959 0.9469 0.0
O46 O 0.65103 0.48117 -0.00373 0.0
O47 O 0.52136 0.48974 0.95383 0.0
O48 O 0.45164 0.52917 0.94137 0.0
C49 C 0.67553 0.48959 0.96983 0.0
O50 O 0.64539 0.48699 0.93774 0.0
O51 O 0.58692 0.41228 0.97273 0.0
C52 C 0.31534 0.51033 0.00911 0.0
O53 O 0.34579 0.5104 0.04104 0.0
O54 O 0.34011 0.52023 0.98347 0.0
O55 O 0.46941 0.51009 0.0286 0.0
O56 O 0.53983 0.46927 0.03738 0.0
O57 O 0.41024 0.58826 0.00469 0.0
C58 C 0.49096 0.50712 0.9311 0.0
C59 C 0.50156 0.49121 0.04947 0.0
Zn60 Zn 0.54652 0.53285 0.49022 0.0
Zn61 Zn 0.4283 0.46568 0.48529 0.0
C62 C 0.67063 0.5159 0.50409 0.0
O63 O 0.65853 0.53439 0.53359 0.0
C64 C 0.30421 0.47712 0.45631 0.0
O65 O 0.32146 0.45497 0.43068 0.0
O66 O 0.5647 0.5821 0.49174 0.0
O67 O 0.47976 0.52516 0.44974 0.0
O68 O 0.46967 0.46985 0.44104 0.0
C69 C 0.59229 0.58985 0.46611 0.0
O70 O 0.60279 0.56631 0.4401 0.0
O71 O 0.62717 0.50892 0.47987 0.0
C72 C 0.3772 0.40959 0.50828 0.0
O73 O 0.35712 0.43431 0.53042 0.0
O74 O 0.41239 0.41648 0.48592 0.0
O75 O 0.4704 0.47976 0.53408 0.0
O76 O 0.53061 0.52357 0.53978 0.0
O77 O 0.34355 0.48792 0.48149 0.0
C78 C 0.47972 0.49774 0.42919 0.0
C79 C 0.50427 0.50092 0.55325 0.0
H80 H 0.39999 0.65925 0.93608 0.0
H81 H 0.34763 0.71495 0.94244 0.0
H82 H 0.29372 0.69287 0.04381 0.0
H83 H 0.34625 0.63678 0.03759 0.0
H84 H 0.19838 0.71711 -0.00041 0.0
H85 H 0.39923 0.75035 0.04164 0.0
H86 H 0.50883 0.75512 0.04054 0.0
H87 H 0.4761 0.80594 0.94424 0.0
H88 H 0.36635 0.80073 0.94432 0.0
H89 H 0.10599 0.88973 0.05765 0.0
H90 H 0.15533 0.83279 0.05182 0.0
H91 H 0.18724 0.84661 0.94353 0.0
H92 H 0.13604 0.90315 0.94878 0.0
H93 H 0.29273 0.82669 -0.00846 0.0
H94 H 0.09306 0.79325 0.9488 0.0
H95 H 0.98323 0.78942 0.94957 0.0
H96 H 0.01346 0.73975 0.04666 0.0
H97 H 0.12359 0.74377 0.04679 0.0
C98 C 0.37776 0.66637 0.96002 0.0
C99 C 0.37743 0.64356 0.98637 0.0
C100 C 0.34789 0.69831 0.96364 0.0
C101 C 0.31685 0.7082 -0.00635 0.0
C102 C 0.3174 0.68579 0.02042 0.0
C103 C 0.34783 0.65385 0.01697 0.0
C104 C 0.2817 0.74129 -0.00392 0.0
C105 C 0.21924 0.74113 -0.00154 0.0
C106 C 0.30845 0.77257 -0.00655 0.0
C107 C 0.37455 0.77492 -0.00717 0.0
C108 C 0.41542 0.76218 0.01999 0.0
C109 C 0.47759 0.765 0.01958 0.0
C110 C 0.49944 0.78075 -0.00771 0.0
C111 C 0.45915 0.79369 0.96533 0.0
C112 C 0.39696 0.79081 0.96555 0.0
C113 C 0.12252 0.88033 0.03238 0.0
C114 C 0.11684 0.90071 0.00357 0.0
C115 C 0.15066 0.84785 0.02909 0.0
C116 C 0.17483 0.8355 -0.00276 0.0
C117 C 0.16859 0.85563 0.96827 0.0
C118 C 0.13905 0.88779 0.97122 0.0
C119 C 0.2097 0.80244 -0.00492 0.0
C120 C 0.27201 0.80265 -0.00726 0.0
C121 C 0.18282 0.77126 -0.0023 0.0
C122 C 0.11661 0.76925 -0.00193 0.0
C123 C 0.07631 0.78192 0.97059 0.0
C124 C 0.01399 0.7796 0.97079 0.0
C125 C 0.99137 0.76446 -0.00178 0.0
C126 C 0.03105 0.75155 0.02547 0.0
C127 C 0.09344 0.75383 0.02542 0.0
H128 H 0.9431 0.76264 -0.00171 0.0
H129 H 0.54758 0.78299 -0.00791 0.0
H130 H 0.67813 0.37286 0.95529 0.0
H131 H 0.73726 0.31908 0.95111 0.0
H132 H 0.61022 0.27354 0.00866 0.0
H133 H 0.55286 0.32787 0.01455 0.0
H134 H 0.71602 0.2556 0.03451 0.0
H135 H 0.62169 0.25782 0.91212 0.0
H136 H 0.59718 0.28221 0.85421 0.0
H137 H 0.7861 0.28375 0.84164 0.0
H138 H 0.81172 0.25968 0.89966 0.0
H139 H 0.75014 0.0805 0.95055 0.0
H140 H 0.71478 0.14009 0.95721 0.0
H141 H 0.8973 0.17033 -0.01039 0.0
H142 H 0.93301 0.11015 0.98455 0.0
H143 H 0.77933 0.19861 0.92059 0.0
H144 H 0.87204 0.19773 0.04597 0.0
H145 H 0.89234 0.17203 0.10332 0.0
H146 H 0.70177 0.16813 0.10973 0.0
H147 H 0.68044 0.19267 0.05165 0.0
C148 C 0.66231 0.35123 0.9666 0.0
C149 C 0.61054 0.35457 0.98508 0.0
C150 C 0.6962 0.32038 0.96415 0.0
C151 C 0.67811 0.29188 0.97921 0.0
C152 C 0.6255 0.29506 -0.00308 0.0
C153 C 0.59239 0.32609 6e-05 0.0
C154 C 0.71454 0.25901 0.97762 0.0
C155 C 0.72967 0.24326 0.00948 0.0
C156 C 0.73409 0.24298 0.94528 0.0
C157 C 0.7186 0.25729 0.91036 0.0
C158 C 0.65798 0.26356 0.89709 0.0
C159 C 0.6439 0.27729 0.86424 0.0
C160 C 0.69006 0.28461 0.84431 0.0
C161 C 0.7504 0.27811 0.85713 0.0
C162 C 0.76472 0.2644 0.88997 0.0
C163 C 0.78288 0.09976 0.9593 0.0
C164 C 0.8444 0.09063 0.96713 0.0
C165 C 0.7625 0.13379 0.9632 0.0
C166 C 0.80318 0.15954 0.97451 0.0
C167 C 0.86493 0.15074 0.98173 0.0
C168 C 0.8853 0.11643 0.97865 0.0
C169 C 0.77997 0.19548 0.97727 0.0
C170 C 0.76667 0.21153 0.94561 0.0
C171 C 0.76207 0.21181 0.00971 0.0
C172 C 0.77473 0.19617 0.04403 0.0
C173 C 0.83451 0.19059 0.05914 0.0
C174 C 0.84619 0.17639 0.09187 0.0
C175 C 0.79836 0.16817 0.11001 0.0
C176 C 0.73878 0.17425 0.0955 0.0
C177 C 0.72688 0.18819 0.06262 0.0
H178 H 0.80747 0.15732 0.13542 0.0
H179 H 0.67906 0.29525 0.81889 0.0
H180 H 0.0658 0.14376 0.49176 0.0
H181 H 0.11045 0.19955 0.4987 0.0
H182 H 0.24956 0.15992 0.43316 0.0
H183 H 0.20535 0.104 0.4261 0.0
H184 H 0.29529 0.19328 0.4973 0.0
H185 H 0.14385 0.21328 0.40055 0.0
H186 H 0.04096 0.21431 0.36886 0.0
H187 H 0.98056 0.28542 0.45252 0.0
H188 H 0.08293 0.28436 0.48506 0.0
H189 H 0.41662 0.35152 0.47073 0.0
H190 H 0.37087 0.29595 0.46347 0.0
H191 H 0.23826 0.33453 0.53395 0.0
H192 H 0.28374 0.39017 0.54152 0.0
H193 H 0.18896 0.30199 0.46772 0.0
H194 H 0.3402 0.28175 0.56446 0.0
H195 H 0.44289 0.2804 0.5964 0.0
H196 H 0.50366 0.20974 0.51248 0.0
H197 H 0.40146 0.21107 0.47972 0.0
C198 C 0.10531 0.14705 0.47833 0.0
C199 C 0.13216 0.11947 0.45847 0.0
C200 C 0.13072 0.17893 0.48231 0.0
C201 C 0.18329 0.18374 0.46647 0.0
C202 C 0.20905 0.15659 0.44566 0.0
C203 C 0.18347 0.12475 0.44148 0.0
C204 C 0.21316 0.21663 0.47326 0.0
C205 C 0.27244 0.21701 0.49032 0.0
C206 C 0.18252 0.24757 0.46504 0.0
C207 C 0.12096 0.24845 0.44544 0.0
C208 C 0.10852 0.2289 0.41237 0.0
C209 C 0.05031 0.22953 0.39422 0.0
C210 C 0.00421 0.24985 0.40872 0.0
C211 C 0.01629 0.26965 0.44135 0.0
C212 C 0.07442 0.26906 0.45965 0.0
C213 C 0.37812 0.34808 0.48499 0.0
C214 C 0.3536 0.37522 0.50657 0.0
C215 C 0.35216 0.31635 0.48086 0.0
C216 C 0.30119 0.31133 0.49811 0.0
C217 C 0.27746 0.33808 0.52033 0.0
C218 C 0.3037 0.36975 0.52474 0.0
C219 C 0.27109 0.27856 0.49158 0.0
C220 C 0.21178 0.27823 0.47462 0.0
C221 C 0.30171 0.24766 0.49985 0.0
C222 C 0.36329 0.24681 0.51943 0.0
C223 C 0.37559 0.26619 0.55262 0.0
C224 C 0.43368 0.26537 0.57092 0.0
C225 C 0.47982 0.24508 0.55642 0.0
C226 C 0.4679 0.2255 0.52364 0.0
C227 C 0.40987 0.22625 0.50521 0.0
H228 H 0.52477 0.24447 0.57064 0.0
H229 H 0.95917 0.25031 0.39463 0.0
H230 H 0.94176 0.84239 0.47927 0.0
H231 H 0.89003 0.7885 0.47081 0.0
H232 H 0.75799 0.8316 0.53985 0.0
H233 H 0.81092 0.88464 0.54972 0.0
H234 H 0.78259 0.76958 0.55268 0.0
H235 H 0.73416 0.82582 0.44409 0.0
H236 H 0.75785 0.85245 0.39108 0.0
H237 H 0.84823 0.75958 0.35275 0.0
H238 H 0.82569 0.73254 0.40575 0.0
H239 H 0.55896 0.64904 0.50405 0.0
H240 H 0.61044 0.7029 0.51111 0.0
H241 H 0.74019 0.65908 0.44095 0.0
H242 H 0.68734 0.60584 0.4325 0.0
H243 H 0.71761 0.72113 0.42861 0.0
H244 H 0.76589 0.66496 0.53744 0.0
H245 H 0.74095 0.63833 0.59017 0.0
H246 H 0.65013 0.73126 0.62794 0.0
H247 H 0.67394 0.7583 0.57522 0.0
C248 C 0.90219 0.84011 0.49301 0.0
C249 C 0.88028 0.8677 0.51505 0.0
C250 C 0.87236 0.80945 0.48793 0.0
C251 C 0.81925 0.80627 0.50401 0.0
C252 C 0.79874 0.83344 0.52706 0.0
C253 C 0.82914 0.86378 0.53271 0.0
C254 C 0.78398 0.77505 0.49645 0.0
C255 C 0.76788 0.75921 0.52554 0.0
C256 C 0.76564 0.76109 0.46104 0.0
C257 C 0.77871 0.77728 0.42904 0.0
C258 C 0.75938 0.81116 0.42445 0.0
C259 C 0.77257 0.82631 0.39439 0.0
C260 C 0.80465 0.80774 0.36861 0.0
C261 C 0.82345 0.77395 0.37276 0.0
C262 C 0.81044 0.75869 0.40278 0.0
C263 C 0.59813 0.65108 0.48989 0.0
C264 C 0.61951 0.62324 0.468 0.0
C265 C 0.62776 0.68175 0.49411 0.0
C266 C 0.68036 0.68468 0.47745 0.0
C267 C 0.70011 0.65731 0.45437 0.0
C268 C 0.66981 0.62691 0.44954 0.0
C269 C 0.71616 0.71572 0.48485 0.0
C270 C 0.73239 0.7315 0.45576 0.0
C271 C 0.73463 0.72965 0.52025 0.0
C272 C 0.72133 0.71355 0.55228 0.0
C273 C 0.74043 0.67965 0.55694 0.0
C274 C 0.72648 0.66449 0.58682 0.0
C275 C 0.69388 0.68307 0.61235 0.0
C276 C 0.67535 0.71689 0.60813 0.0
C277 C 0.68911 0.73216 0.57829 0.0
H278 H 0.68307 0.67127 0.63544 0.0
H279 H 0.81484 0.81952 0.34537 0.0
H280 H 0.24317 0.99176 0.91276 0.0
H281 H 0.35336 0.98608 0.92117 0.0
H282 H 0.35189 0.0202 0.0335 0.0
H283 H 0.24189 0.0267 0.02519 0.0
H284 H 0.44143 0.04696 0.00658 0.0
H285 H 0.36431 0.93643 0.00527 0.0
H286 H 0.30232 0.88787 0.98101 0.0
H287 H 0.40106 0.87298 0.8888 0.0
H288 H 0.46263 0.92213 0.91203 0.0
H289 H 0.74128 0.99343 0.05827 0.0
H290 H 0.63104 0.99459 0.05392 0.0
H291 H 0.62366 0.96541 0.94013 0.0
H292 H 0.73391 0.96347 0.94434 0.0
H293 H 0.53834 0.9347 0.97061 0.0
H294 H 0.61063 0.04889 0.97218 0.0
H295 H 0.67012 0.09812 -0.00208 0.0
H296 H 0.57958 0.10438 0.0932 0.0
H297 H 0.51993 0.05493 0.06823 0.0
C298 C 0.26636 -0.0015 0.93914 0.0
C299 C 0.23392 0.00941 0.96838 0.0
C300 C 0.32922 0.99503 0.94394 0.0
C301 C 0.36049 0.00199 0.97811 0.0
C302 C 0.32846 0.0145 0.00696 0.0
C303 C 0.26563 0.01823 0.00214 0.0
C304 C 0.42649 0.99545 0.984 0.0
C305 C 0.46256 0.02229 -0.00084 0.0
C306 C 0.45387 0.96327 0.974 0.0
C307 C 0.41767 0.93326 0.96023 0.0
C308 C 0.37253 0.92299 0.97968 0.0
C309 C 0.33747 0.89533 0.96612 0.0
C310 C 0.34764 0.87738 0.93334 0.0
C311 C 0.39313 0.88697 0.91414 0.0
C312 C 0.42809 0.91476 0.92748 0.0
C313 C 0.7162 0.98674 0.03242 0.0
C314 C 0.74608 0.97873 0.00157 0.0
C315 C 0.6533 0.9875 0.02998 0.0
C316 C 0.6194 0.98076 -0.00342 0.0
C317 C 0.64916 0.97082 0.96611 0.0
C318 C 0.7121 0.96976 0.96857 0.0
C319 C 0.55311 0.98632 -0.00713 0.0
C320 C 0.51703 0.95928 0.97814 0.0
C321 C 0.52556 0.01822 0.0036 0.0
C322 C 0.56124 0.04804 0.01848 0.0
C323 C 0.60369 0.06062 -0.00129 0.0
C324 C 0.63739 0.08857 0.01314 0.0
C325 C 0.62873 0.10428 0.04716 0.0
C326 C 0.58626 0.09214 0.06685 0.0
C327 C 0.55246 0.06418 0.05257 0.0
H328 H 0.65478 0.12589 0.05821 0.0
H329 H 0.32027 0.85606 0.92284 0.0
H330 H 0.25519 0.9704 0.49893 0.0
H331 H 0.36465 0.96225 0.49514 0.0
H332 H 0.38677 0.06949 0.52436 0.0
H333 H 0.27854 0.07772 0.52923 0.0
H334 H 0.43774 0.02118 0.4512 0.0
H335 H 0.43732 0.04671 0.58489 0.0
H336 H 0.40051 0.03296 0.64093 0.0
H337 H 0.46143 0.92869 0.62025 0.0
H338 H 0.49771 0.94181 0.56377 0.0
H339 H 0.74799 0.05155 0.46787 0.0
H340 H 0.63969 0.05432 0.47414 0.0
H341 H 0.6592 0.95966 0.52332 0.0
H342 H 0.76755 0.95791 0.51904 0.0
H343 H 0.58388 0.99571 0.55537 0.0
H344 H 0.60025 0.96645 0.43171 0.0
H345 H 0.63178 0.9704 0.37164 0.0
H346 H 0.5371 0.06748 0.36615 0.0
H347 H 0.50564 0.06433 0.42642 0.0
C348 C 0.28359 0.99212 0.50485 0.0
C349 C 0.25847 0.02462 0.5147 0.0
C350 C 0.34585 0.98744 0.50262 0.0
C351 C 0.38339 0.0153 0.50961 0.0
C352 C 0.35837 0.04771 0.51912 0.0
C353 C 0.29661 0.05229 0.52206 0.0
C354 C 0.44886 0.01103 0.50657 0.0
C355 C 0.47003 0.01589 0.47392 0.0
C356 C 0.49021 0.00273 0.53583 0.0
C357 C 0.46951 0.99514 0.57002 0.0
C358 C 0.44232 0.02081 0.59216 0.0
C359 C 0.42168 0.01315 0.62402 0.0
C360 C 0.42845 0.97995 0.6341 0.0
C361 C 0.4561 0.95437 0.61239 0.0
C362 C 0.47672 0.96191 0.58048 0.0
C363 C 0.72916 0.03161 0.48041 0.0
C364 C 0.76629 0.00459 0.49299 0.0
C365 C 0.66712 0.03297 0.48365 0.0
C366 C 0.64067 0.00675 0.49844 0.0
C367 C 0.67816 0.98021 0.51179 0.0
C368 C 0.74029 0.97927 0.50934 0.0
C369 C 0.57411 0.00689 0.49997 0.0
C370 C 0.5523 0.00101 0.53235 0.0
C371 C 0.53206 0.01317 0.46994 0.0
C372 C 0.5511 0.01531 0.43375 0.0
C373 C 0.58656 0.98878 0.41782 0.0
C374 C 0.60435 0.99084 0.38371 0.0
C375 C 0.58659 0.01922 0.36513 0.0
C376 C 0.55089 0.04554 0.3806 0.0
C377 C 0.53302 0.04362 0.41472 0.0
H378 H 0.60039 0.02076 0.33872 0.0
H379 H 0.41241 0.97406 0.65875 0.0
H380 H 0.75303 0.48862 0.03093 0.0
H381 H 0.86194 0.49392 0.03693 0.0
H382 H 0.8528 0.51438 0.92601 0.0
H383 H 0.74338 0.50816 0.91943 0.0
H384 H 0.93474 0.46537 0.9406 0.0
H385 H 0.88767 0.57696 -0.00476 0.0
H386 H 0.84035 0.61953 0.03702 0.0
H387 H 0.93398 0.57295 0.12672 0.0
H388 H 0.98133 0.52983 0.08548 0.0
H389 H 0.2388 0.51267 0.94769 0.0
H390 H 0.12971 0.50752 0.94077 0.0
H391 H 0.13647 0.48537 0.05104 0.0
H392 H 0.24597 0.4912 0.0585 0.0
H393 H 0.05573 0.53562 0.03635 0.0
H394 H 0.10251 0.42393 0.98157 0.0
H395 H 0.14923 0.38116 0.93973 0.0
H396 H 0.05585 0.42798 0.85012 0.0
H397 H 0.00914 0.4713 0.89142 0.0
C398 C 0.77394 0.49477 0.0079 0.0
C399 C 0.73977 0.49769 0.97459 0.0
C400 C 0.83622 0.49798 0.01146 0.0
C401 C 0.86529 0.50473 0.98197 0.0
C402 C 0.83103 0.50911 0.94906 0.0
C403 C 0.76863 0.50564 0.94537 0.0
C404 C 0.93185 0.50427 0.98481 0.0
C405 C 0.9613 0.48118 0.96111 0.0
C406 C 0.96615 0.52409 0.01237 0.0
C407 C 0.93767 0.54999 0.03724 0.0
C408 C 0.89781 0.57563 0.02387 0.0
C409 C 0.87106 0.5999 0.04746 0.0
C410 C 0.88405 0.5989 0.0845 0.0
C411 C 0.92393 0.57368 0.09802 0.0
C412 C 0.9508 0.54935 0.07455 0.0
C413 C 0.2173 0.50622 0.97037 0.0
C414 C 0.25085 0.50267 0.00377 0.0
C415 C 0.15495 0.50309 0.96628 0.0
C416 C 0.12519 0.49595 -0.00464 0.0
C417 C 0.1588 0.49096 0.02832 0.0
C418 C 0.22126 0.49424 0.0325 0.0
C419 C 0.05862 0.49669 -0.00784 0.0
C420 C 0.02917 0.51985 0.0158 0.0
C421 C 0.02433 0.47696 0.96452 0.0
C422 C 0.05278 0.45107 0.93962 0.0
C423 C 0.09237 0.4253 0.95295 0.0
C424 C 0.11875 0.40091 0.92932 0.0
C425 C 0.10564 0.4019 0.8923 0.0
C426 C 0.06602 0.42726 0.87881 0.0
C427 C 0.03953 0.45172 0.90232 0.0
H428 H 0.12608 0.38298 0.87405 0.0
H429 H 0.8633 0.61771 0.10271 0.0
H430 H 0.24959 0.5057 0.51445 0.0
H431 H 0.14121 0.51137 0.52047 0.0
H432 H 0.10196 0.47102 0.4102 0.0
H433 H 0.21032 0.46505 0.40398 0.0
H434 H 0.02423 0.52684 0.43046 0.0
H435 H 0.09475 0.41878 0.47121 0.0
H436 H 0.16249 0.38069 0.50686 0.0
H437 H 0.11442 0.43625 0.60418 0.0
H438 H 0.04643 0.47484 0.56897 0.0
H439 H 0.71715 0.49125 0.44139 0.0
H440 H 0.82412 0.48318 0.43145 0.0
H441 H 0.87575 0.51388 0.5433 0.0
H442 H 0.76956 0.52164 0.55345 0.0
H443 H 0.94717 0.4613 0.52036 0.0
H444 H 0.87955 0.56993 0.4814 0.0
H445 H 0.8128 0.60956 0.44721 0.0
H446 H 0.85655 0.55525 0.34832 0.0
H447 H 0.92339 0.51503 0.38207 0.0
C448 C 0.21796 0.49852 0.49129 0.0
C449 C 0.23873 0.48483 0.45874 0.0
C450 C 0.15597 0.50158 0.49484 0.0
C451 C 0.11344 0.49126 0.4659 0.0
C452 C 0.13391 0.47907 0.43291 0.0
C453 C 0.19591 0.47564 0.42943 0.0
C454 C 0.04789 0.49183 0.47052 0.0
C455 C 0.00723 0.51213 0.44973 0.0
C456 C 0.02577 0.47318 0.49616 0.0
C457 C 0.06596 0.44985 0.51746 0.0
C458 C 0.09891 0.42299 0.50021 0.0
C459 C 0.1373 0.40129 0.52034 0.0
C460 C 0.14302 0.40611 0.55779 0.0
C461 C 0.11003 0.43257 0.57517 0.0
C462 C 0.07143 0.45432 0.55514 0.0
C463 C 0.75129 0.4958 0.46394 0.0
C464 C 0.73468 0.50722 0.49818 0.0
C465 C 0.81247 0.49141 0.45819 0.0
C466 C 0.85817 0.49835 0.48655 0.0
C467 C 0.84152 0.5084 0.52097 0.0
C468 C 0.7806 0.51292 0.52669 0.0
C469 C 0.92328 0.4964 0.48035 0.0
C470 C 0.96397 0.47587 0.50091 0.0
C471 C 0.94547 0.51504 0.45468 0.0
C472 C 0.9059 0.53928 0.43424 0.0
C473 C 0.87461 0.5663 0.45236 0.0
C474 C 0.8368 0.5889 0.43306 0.0
C475 C 0.83015 0.58487 0.39559 0.0
C476 C 0.86163 0.5583 0.37735 0.0
C477 C 0.89956 0.53562 0.39655 0.0
H478 H 0.80077 0.60239 0.3807 0.0
H479 H 0.17288 0.38931 0.57332 0.0
H480 H 0.05677 0.0244 0.39135 0.0
H481 H 0.05425 0.02762 0.32702 0.0
H482 H 0.90729 0.95894 0.30794 0.0
H483 H 0.9102 0.95504 0.37254 0.0
H484 H 0.99228 0.94132 0.26363 0.0
H485 H 0.88306 0.04469 0.30034 0.0
H486 H 0.86723 0.09918 0.33672 0.0
H487 H 0.02353 0.13815 0.3003 0.0
H488 H 0.04074 0.08371 0.26402 0.0
H489 H 0.9166 0.96333 0.08116 0.0
H490 H 0.91301 0.96368 0.14554 0.0
H491 H 0.05755 0.03397 0.16525 0.0
H492 H 0.06007 0.03467 0.10048 0.0
H493 H 0.97273 0.05124 0.20925 0.0
H494 H 0.08369 0.94864 0.1736 0.0
H495 H 0.10101 0.89452 0.13686 0.0
H496 H 0.94462 0.85422 0.1718 0.0
H497 H 0.92575 0.90833 0.20828 0.0
C498 C 0.02375 0.01001 0.37358 0.0
C499 C 0.98369 0.98944 0.38716 0.0
C500 C 0.02217 0.01204 0.33676 0.0
C501 C 0.98005 0.99389 0.31272 0.0
C502 C 0.94006 0.97323 0.32608 0.0
C503 C 0.94177 0.97106 0.36299 0.0
C504 C 0.97913 0.99569 0.27357 0.0
C505 C 0.98704 0.9653 0.25165 0.0
C506 C 0.97411 0.02711 0.25815 0.0
C507 C 0.96348 0.05999 0.2797 0.0
C508 C 0.91429 0.06479 0.30027 0.0
C509 C 0.90503 0.09569 0.32084 0.0
C510 C 0.94444 0.12208 0.32089 0.0
C511 C 0.99307 0.11767 0.30026 0.0
C512 C 0.00255 0.08681 0.27965 0.0
C513 C 0.94759 0.97897 0.09912 0.0
C514 C 0.98888 -0.00115 0.08573 0.0
C515 C 0.94559 0.97903 0.13596 0.0
C516 C 0.98571 -0.00161 0.16021 0.0
C517 C 0.0263 0.01877 0.14697 0.0
C518 C 0.02783 0.01905 0.11001 0.0
C519 C 0.98572 0.99686 0.19934 0.0
C520 C 0.9778 0.02726 0.22124 0.0
C521 C 0.99111 0.96547 0.21482 0.0
C522 C 0.00303 0.93265 0.19345 0.0
C523 C 0.0528 0.92831 0.17329 0.0
C524 C 0.0629 0.89763 0.15252 0.0
C525 C 0.02388 0.87097 0.15195 0.0
C526 C 0.97478 0.8749 0.17224 0.0
C527 C 0.96438 0.90556 0.19299 0.0
H528 H 0.03175 0.84725 0.13582 0.0
H529 H 0.93723 0.14597 0.33686 0.0
H530 H 0.00279 0.04759 0.88045 0.0
H531 H -0.00057 0.04587 0.81503 0.0
H532 H 0.96403 0.93891 0.80506 0.0
H533 H 0.96568 0.94056 0.87039 0.0
H534 H 0.06366 0.96374 0.76455 0.0
H535 H 0.85254 0.97962 0.78447 0.0
H536 H 0.76845 0.00846 0.81438 0.0
H537 H 0.80614 0.10286 0.77559 0.0
H538 H 0.89118 0.07465 0.74592 0.0
H539 H 0.00207 0.94421 0.57655 0.0
H540 H 0.98794 0.94058 0.63947 0.0
H541 H 0.97092 0.05013 0.65602 0.0
H542 H 0.98365 0.05393 0.593 0.0
H543 H 0.89455 0.02148 0.69351 0.0
H544 H 0.10414 0.01054 0.67663 0.0
H545 H 0.19482 0.9868 0.64959 0.0
H546 H 0.16817 0.88918 0.68492 0.0
H547 H 0.0767 0.91225 0.71173 0.0
C548 C 0.99435 0.02372 0.86431 0.0
C549 C 0.98421 0.99424 0.88041 0.0
C550 C 0.99239 0.0228 0.82706 0.0
C551 C 0.98136 0.99229 0.80547 0.0
C552 C 0.97254 0.96265 0.82144 0.0
C553 C 0.97323 0.9637 0.85864 0.0
C554 C 0.97829 0.99154 0.76609 0.0
C555 C 0.02625 0.97576 0.74881 0.0
C556 C 0.93032 0.00824 0.74605 0.0
C557 C 0.87856 0.0251 0.76328 0.0
C558 C 0.84321 0.00659 0.78257 0.0
C559 C 0.79533 0.02281 0.79944 0.0
C560 C 0.78206 0.0575 0.79697 0.0
C561 C 0.81652 0.076 0.77751 0.0
C562 C 0.86453 0.0599 0.76064 0.0
C563 C 0.99378 0.96748 0.59335 0.0
C564 C 0.99426 -0.00063 0.57989 0.0
C565 C 0.98623 0.96538 0.62936 0.0
C566 C 0.97942 0.99512 0.65252 0.0
C567 C 0.97632 0.02688 0.63864 0.0
C568 C 0.98384 0.029 0.60266 0.0
C569 C 0.97983 0.99338 0.69164 0.0
C570 C 0.93163 0.00895 0.70901 0.0
C571 C 0.02824 0.97702 0.7119 0.0
C572 C 0.08314 0.96301 0.69578 0.0
C573 C 0.11728 0.98393 0.67834 0.0
C574 C 0.16888 0.97061 0.66311 0.0
C575 C 0.18713 0.93647 0.66543 0.0
C576 C 0.15388 0.9156 0.68307 0.0
C577 C 0.10216 0.92878 0.69829 0.0
H578 H 0.22712 0.92621 0.65365 0.0
H579 H 0.74499 0.07002 0.81007 0.0
H580 H 0.45895 0.55302 0.3906 0.0
H581 H 0.45925 0.55434 0.32576 0.0
H582 H 0.50676 0.44692 0.31515 0.0
H583 H 0.50519 0.44513 0.37984 0.0
H584 H 0.57875 0.49209 0.27947 0.0
H585 H 0.37303 0.46484 0.29147 0.0
H586 H 0.27493 0.4748 0.31596 0.0
H587 H 0.25179 0.5717 0.27267 0.0
H588 H 0.35035 0.56256 0.24844 0.0
H589 H 0.5368 0.44388 0.09611 0.0
H590 H 0.5293 0.44822 0.16035 0.0
H591 H 0.44091 0.5476 0.15493 0.0
H592 H 0.44693 0.54306 0.08996 0.0
H593 H 0.38999 0.5119 0.19972 0.0
H594 H 0.59022 0.53989 0.18515 0.0
H595 H 0.68939 0.5329 0.16158 0.0
H596 H 0.72526 0.43944 0.21074 0.0
H597 H 0.62588 0.4456 0.23418 0.0
C598 C 0.46951 0.52967 0.37448 0.0
C599 C 0.48178 0.4989 0.39027 0.0
C600 C 0.4695 0.53049 0.3375 0.0
C601 C 0.48275 0.5007 0.31584 0.0
C602 C 0.49632 0.47013 0.33155 0.0
C603 C 0.49522 0.46914 0.36842 0.0
C604 C 0.4825 0.50135 0.27669 0.0
C605 C 0.53751 0.49607 0.26191 0.0
C606 C 0.42883 0.5078 0.2542 0.0
C607 C 0.36941 0.5132 0.26853 0.0
C608 C 0.34733 0.48843 0.28749 0.0
C609 C 0.29158 0.49389 0.30126 0.0
C610 C 0.25723 0.52391 0.29598 0.0
C611 C 0.2785 0.54848 0.27681 0.0
C612 C 0.33429 0.54317 0.26304 0.0
C613 C 0.51552 0.46666 0.10847 0.0
C614 C 0.49302 0.49331 0.088 0.0
C615 C 0.51144 0.46913 0.14526 0.0
C616 C 0.48582 0.49856 0.16259 0.0
C617 C 0.46122 0.52475 0.14211 0.0
C618 C 0.46473 0.52214 0.10504 0.0
C619 C 0.48629 0.50193 0.20219 0.0
C620 C 0.43141 0.50812 0.21717 0.0
C621 C 0.5403 0.4968 0.22502 0.0
C622 C 0.60036 0.49309 0.21119 0.0
C623 C 0.61907 0.51772 0.19073 0.0
C624 C 0.67535 0.51393 0.17742 0.0
C625 C 0.71355 0.48571 0.1846 0.0
C626 C 0.6956 0.46127 0.20518 0.0
C627 C 0.63933 0.46493 0.21853 0.0
H628 H 0.7571 0.48282 0.17426 0.0
H629 H 0.21407 0.52809 0.30665 0.0
H630 H 0.528 0.55275 0.60573 0.0
H631 H 0.53691 0.5498 0.67056 0.0
H632 H 0.51172 0.44148 0.65382 0.0
H633 H 0.49892 0.44483 0.58903 0.0
H634 H 0.44953 0.46456 0.70233 0.0
H635 H 0.65425 0.47943 0.68528 0.0
H636 H 0.73992 0.50542 0.66368 0.0
H637 H 0.70215 0.59917 0.72666 0.0
H638 H 0.61568 0.57392 0.74825 0.0
H639 H 0.53312 0.45082 0.89174 0.0
H640 H 0.54772 0.44555 0.82762 0.0
H641 H 0.49522 0.55165 0.82233 0.0
H642 H 0.47874 0.55684 0.88577 0.0
H643 H 0.6067 0.52333 0.78654 0.0
H644 H 0.39259 0.50651 0.79579 0.0
H645 H 0.31058 0.47748 0.81772 0.0
H646 H 0.37568 0.38159 0.76925 0.0
H647 H 0.45871 0.41005 0.74752 0.0
C648 C 0.52468 0.52832 0.61596 0.0
C649 C 0.51269 0.49904 0.59242 0.0
C650 C 0.53031 0.52655 0.65304 0.0
C651 C 0.52619 0.49526 0.66728 0.0
C652 C 0.51508 0.46593 0.64363 0.0
C653 C 0.50784 0.46785 0.6066 0.0
C654 C 0.53015 0.49346 0.70673 0.0
C655 C 0.48481 0.47684 0.72053 0.0
C656 C 0.57581 0.5096 0.73085 0.0
C657 C 0.62816 0.52483 0.71818 0.0
C658 C 0.66397 0.50566 0.69436 0.0
C659 C 0.7127 0.52025 0.68213 0.0
C660 C 0.72639 0.55394 0.69374 0.0
C661 C 0.69147 0.57308 0.71768 0.0
C662 C 0.64263 0.55862 0.72996 0.0
C663 C 0.52523 0.47302 0.87687 0.0
C664 C 0.50438 0.50416 0.89349 0.0
C665 C 0.53362 0.46999 0.84042 0.0
C666 C 0.52256 0.49826 0.8205 0.0
C667 C 0.50415 0.52965 0.83743 0.0
C668 C 0.4944 0.53249 0.87352 0.0
C669 C 0.526 0.4949 0.78144 0.0
C670 C 0.57246 0.51059 0.76793 0.0
C671 C 0.48227 0.47734 0.75755 0.0
C672 C 0.43227 0.46032 0.77047 0.0
C673 C 0.38979 0.47919 0.79015 0.0
C674 C 0.34304 0.46285 0.80247 0.0
C675 C 0.33805 0.42769 0.79499 0.0
C676 C 0.3797 0.40881 0.77509 0.0
C677 C 0.42658 0.42503 0.76277 0.0
H678 H 0.30181 0.41509 0.80453 0.0
H679 H 0.76411 0.5652 0.68421 0.0
loop_
_geom_bond_atom_site_label_1
_geom_bond_atom_site_label_2
_geom_bond_distance
_geom_bond_site_symmetry_2
_ccdc_geom_bond_type
Zn0 O6 1.969 1_565 S
Zn0 O7 1.965 1_564 S
Zn0 O11 2.024 1_554 S
Zn0 O16 1.969 . S
Zn1 O8 1.969 . S
Zn1 O14 1.969 1_545 S
Zn1 O15 1.965 1_546 S
Zn1 O17 2.024 1_556 S
C2 O3 1.229 . S
C2 O11 1.058 1_554 S
O3 C2 1.229 . S
C4 O5 1.229 . S
C4 O17 1.058 1_556 S
O5 C4 1.229 . S
O6 Zn0 1.969 1_545 S
O6 C9 1.267 1_544 S
O7 Zn0 1.965 1_546 S
O7 C18 1.260 1_455 S
O8 Zn1 1.969 . S
O8 C18 1.258 . S
C9 O6 1.267 1_566 S
C9 O10 1.228 . S
O10 C9 1.228 . S
O11 Zn0 2.024 1_556 S
O11 C2 1.058 1_556 S
C12 O13 1.228 . S
C12 O14 1.267 1_544 S
O13 C12 1.228 . S
O14 Zn1 1.969 1_565 S
O14 C12 1.267 1_566 S
O15 Zn1 1.965 1_564 S
O15 C19 1.260 1_655 S
O16 Zn0 1.969 . S
O16 C19 1.258 . S
O17 Zn1 2.024 1_554 S
O17 C4 1.058 1_554 S
C18 O7 1.260 1_655 S
C18 O8 1.258 . S
C19 O15 1.260 1_455 S
C19 O16 1.258 . S
Zn20 O26 1.969 . S
Zn20 O27 1.965 . S
Zn20 O31 2.024 1_545 S
Zn20 O36 1.969 . S
Zn21 O28 1.969 . S
Zn21 O34 1.969 . S
Zn21 O35 1.965 . S
Zn21 O37 2.024 1_565 S
C22 O23 1.229 . S
C22 O31 1.058 1_545 S
O23 C22 1.229 . S
C24 O25 1.229 . S
C24 O37 1.058 1_565 S
O25 C24 1.229 . S
O26 Zn20 1.969 . S
O26 C29 1.267 . S
O27 Zn20 1.965 . S
O27 C38 1.260 1_455 S
O28 Zn21 1.969 . S
O28 C38 1.258 1_565 S
C29 O26 1.267 . S
C29 O30 1.228 . S
O30 C29 1.228 . S
O31 Zn20 2.024 1_565 S
O31 C22 1.058 1_565 S
C32 O33 1.228 . S
C32 O34 1.267 . S
O33 C32 1.228 . S
O34 Zn21 1.969 . S
O34 C32 1.267 . S
O35 Zn21 1.965 . S
O35 C39 1.260 1_655 S
O36 Zn20 1.969 . S
O36 C39 1.258 1_545 S
O37 Zn21 2.024 1_545 S
O37 C24 1.058 1_545 S
C38 O27 1.260 1_655 S
C38 O28 1.258 1_545 S
C39 O35 1.260 1_455 S
C39 O36 1.258 1_565 S
Zn40 O46 1.969 . S
Zn40 O47 1.965 1_554 S
Zn40 O51 2.024 1_554 S
Zn40 O56 1.969 . S
Zn41 O48 1.969 . S
Zn41 O54 1.969 . S
Zn41 O55 1.965 1_556 S
Zn41 O57 2.024 1_556 S
C42 O43 1.229 . S
C42 O51 1.058 1_554 S
O43 C42 1.229 . S
C44 O45 1.229 . S
C44 O57 1.058 1_556 S
O45 C44 1.229 . S
O46 Zn40 1.969 . S
O46 C49 1.267 1_554 S
O47 Zn40 1.965 1_556 S
O47 C58 1.260 . S
O48 Zn41 1.969 . S
O48 C58 1.258 . S
C49 O46 1.267 1_556 S
C49 O50 1.228 . S
O50 C49 1.228 . S
O51 Zn40 2.024 1_556 S
O51 C42 1.058 1_556 S
C52 O53 1.228 . S
C52 O54 1.267 1_554 S
O53 C52 1.228 . S
O54 Zn41 1.969 . S
O54 C52 1.267 1_556 S
O55 Zn41 1.965 1_554 S
O55 C59 1.260 . S
O56 Zn40 1.969 . S
O56 C59 1.258 . S
O57 Zn41 2.024 1_554 S
O57 C44 1.058 1_554 S
C58 O47 1.260 . S
C58 O48 1.258 . S
C59 O55 1.260 . S
C59 O56 1.258 . S
Zn60 O66 1.969 . S
Zn60 O67 1.965 . S
Zn60 O71 2.024 . S
Zn60 O76 1.969 . S
Zn61 O68 1.969 . S
Zn61 O74 1.969 . S
Zn61 O75 1.965 . S
Zn61 O77 2.024 . S
C62 O63 1.229 . S
C62 O71 1.058 . S
O63 C62 1.229 . S
C64 O65 1.229 . S
C64 O77 1.058 . S
O65 C64 1.229 . S
O66 Zn60 1.969 . S
O66 C69 1.267 . S
O67 Zn60 1.965 . S
O67 C78 1.260 . S
O68 Zn61 1.969 . S
O68 C78 1.258 . S
C69 O66 1.267 . S
C69 O70 1.228 . S
O70 C69 1.228 . S
O71 Zn60 2.024 . S
O71 C62 1.058 . S
C72 O73 1.228 . S
C72 O74 1.267 . S
O73 C72 1.228 . S
O74 Zn61 1.969 . S
O74 C72 1.267 . S
O75 Zn61 1.965 . S
O75 C79 1.260 . S
O76 Zn60 1.969 . S
O76 C79 1.258 . S
O77 Zn61 2.024 . S
O77 C64 1.058 . S
C78 O67 1.260 . S
C78 O68 1.258 . S
C79 O75 1.260 . S
C79 O76 1.258 . S
H80 C98 0.951 . S
H81 C100 0.951 . S
H82 C102 0.950 . S
H83 C103 0.950 . S
H84 C105 0.956 . S
H85 C108 0.950 . S
H86 C109 0.950 . S
H87 C111 0.950 . S
H88 C112 0.950 . S
H89 C113 0.951 . S
H90 C115 0.951 . S
H91 C117 0.950 . S
H92 C118 0.950 . S
H93 C120 0.954 . S
H94 C123 0.950 . S
H95 C124 0.950 . S
H96 C126 0.950 . S
H97 C127 0.950 . S
C98 H80 0.951 . S
C98 C99 1.366 1_556 S
C98 C100 1.388 . S
C99 C98 1.366 1_554 S
C99 C103 1.385 . S
C100 H81 0.951 . S
C100 C98 1.388 . S
C100 C101 1.366 1_556 S
C101 C100 1.366 1_554 S
C101 C102 1.414 . S
C101 C104 1.499 . S
C102 H82 0.950 . S
C102 C101 1.414 . S
C102 C103 1.374 . S
C103 H83 0.950 . S
C103 C99 1.385 . S
C103 C102 1.374 . S
C104 C101 1.499 . S
C104 C105 1.372 . S
C104 C106 1.389 . S
C105 H84 0.956 . S
C105 C104 1.372 . S
C105 C121 1.374 1_554 S
C106 C104 1.389 . S
C106 C107 1.524 . S
C106 C120 1.374 1_554 S
C107 C106 1.524 . S
C107 C108 1.397 . S
C107 C112 1.363 1_554 S
C108 H85 0.950 . S
C108 C107 1.397 . S
C108 C109 1.334 . S
C109 H86 0.950 . S
C109 C108 1.334 . S
C109 C110 1.287 . S
C110 C109 1.287 . S
C110 C111 1.524 1_554 S
C110 H129 0.913 . S
C111 H87 0.950 . S
C111 C110 1.524 1_556 S
C111 C112 1.415 . S
C112 H88 0.950 . S
C112 C107 1.363 1_556 S
C112 C111 1.415 . S
C113 H89 0.951 . S
C113 C114 1.366 1_554 S
C113 C115 1.388 . S
C114 C113 1.366 1_556 S
C114 C118 1.385 . S
C115 H90 0.951 . S
C115 C113 1.388 . S
C115 C116 1.366 1_554 S
C116 C115 1.366 1_556 S
C116 C117 1.414 . S
C116 C119 1.499 . S
C117 H91 0.950 . S
C117 C116 1.414 . S
C117 C118 1.374 . S
C118 H92 0.950 . S
C118 C114 1.385 . S
C118 C117 1.374 . S
C119 C116 1.499 . S
C119 C120 1.372 . S
C119 C121 1.389 . S
C120 H93 0.954 . S
C120 C106 1.374 1_556 S
C120 C119 1.372 . S
C121 C105 1.374 1_556 S
C121 C119 1.389 . S
C121 C122 1.524 . S
C122 C121 1.524 . S
C122 C123 1.397 . S
C122 C127 1.363 1_556 S
C123 H94 0.950 . S
C123 C122 1.397 . S
C123 C124 1.334 . S
C124 H95 0.950 . S
C124 C123 1.334 . S
C124 C125 1.293 . S
C125 C124 1.293 . S
C125 C126 1.527 1_556 S
C125 H128 0.988 1_455 S
C126 H96 0.950 . S
C126 C125 1.527 1_554 S
C126 C127 1.415 . S
C127 H97 0.950 . S
C127 C122 1.363 1_554 S
C127 C126 1.415 . S
H128 C125 0.988 1_655 S
H129 C110 0.913 . S
H130 C148 0.951 . S
H131 C150 0.951 . S
H132 C152 0.950 . S
H133 C153 0.950 . S
H134 C155 0.950 . S
H135 C158 0.950 . S
H136 C159 0.950 . S
H137 C161 0.950 . S
H138 C162 0.950 . S
H139 C163 0.951 . S
H140 C165 0.951 . S
H141 C167 0.950 . S
H142 C168 0.950 . S
H143 C170 0.950 . S
H144 C173 0.950 . S
H145 C174 0.950 . S
H146 C176 0.950 . S
H147 C177 0.950 . S
C148 H130 0.951 . S
C148 C149 1.366 . S
C148 C150 1.388 . S
C149 C148 1.366 . S
C149 C153 1.385 1_556 S
C150 H131 0.951 . S
C150 C148 1.388 . S
C150 C151 1.366 . S
C151 C150 1.366 . S
C151 C152 1.414 1_556 S
C151 C154 1.499 . S
C152 H132 0.950 . S
C152 C151 1.414 1_554 S
C152 C153 1.374 . S
C153 H133 0.950 . S
C153 C149 1.385 1_554 S
C153 C152 1.374 . S
C154 C151 1.499 . S
C154 C155 1.373 1_556 S
C154 C156 1.389 . S
C155 H134 0.950 . S
C155 C154 1.373 1_554 S
C155 C171 1.377 . S
C156 C154 1.389 . S
C156 C157 1.524 . S
C156 C170 1.377 . S
C157 C156 1.524 . S
C157 C158 1.397 . S
C157 C162 1.363 . S
C158 H135 0.950 . S
C158 C157 1.397 . S
C158 C159 1.334 . S
C159 H136 0.950 . S
C159 C158 1.334 . S
C159 C160 1.287 . S
C160 C159 1.287 . S
C160 C161 1.524 . S
C160 H179 0.913 . S
C161 H137 0.950 . S
C161 C160 1.524 . S
C161 C162 1.415 . S
C162 H138 0.950 . S
C162 C157 1.363 . S
C162 C161 1.415 . S
C163 H139 0.951 . S
C163 C164 1.366 . S
C163 C165 1.388 . S
C164 C163 1.366 . S
C164 C168 1.385 1_554 S
C165 H140 0.951 . S
C165 C163 1.388 . S
C165 C166 1.366 . S
C166 C165 1.366 . S
C166 C167 1.414 1_554 S
C166 C169 1.499 . S
C167 H141 0.950 . S
C167 C166 1.414 1_556 S
C167 C168 1.374 . S
C168 H142 0.950 . S
C168 C164 1.385 1_556 S
C168 C167 1.374 . S
C169 C166 1.499 . S
C169 C170 1.373 1_554 S
C169 C171 1.389 . S
C170 H143 0.950 . S
C170 C156 1.377 . S
C170 C169 1.373 1_556 S
C171 C155 1.377 . S
C171 C169 1.389 . S
C171 C172 1.524 . S
C172 C171 1.524 . S
C172 C173 1.397 . S
C172 C177 1.363 . S
C173 H144 0.950 . S
C173 C172 1.397 . S
C173 C174 1.334 . S
C174 H145 0.950 . S
C174 C173 1.334 . S
C174 C175 1.287 . S
C175 C174 1.287 . S
C175 C176 1.524 . S
C175 H178 0.999 . S
C176 H146 0.950 . S
C176 C175 1.524 . S
C176 C177 1.415 . S
C177 H147 0.950 . S
C177 C172 1.363 . S
C177 C176 1.415 . S
H178 C175 0.999 . S
H179 C160 0.913 . S
H180 C198 0.951 . S
H181 C200 0.951 . S
H182 C202 0.950 . S
H183 C203 0.950 . S
H184 C205 0.950 . S
H185 C208 0.950 . S
H186 C209 0.950 . S
H187 C211 0.948 . S
H188 C212 0.950 . S
H189 C213 0.951 . S
H190 C215 0.951 . S
H191 C217 0.950 . S
H192 C218 0.950 . S
H193 C220 0.950 . S
H194 C223 0.950 . S
H195 C224 0.950 . S
H196 C226 0.950 . S
H197 C227 0.950 . S
C198 H180 0.951 . S
C198 C199 1.366 . S
C198 C200 1.388 . S
C199 C198 1.366 . S
C199 C203 1.385 . S
C200 H181 0.951 . S
C200 C198 1.388 . S
C200 C201 1.366 . S
C201 C200 1.366 . S
C201 C202 1.414 . S
C201 C204 1.499 . S
C202 H182 0.950 . S
C202 C201 1.414 . S
C202 C203 1.374 . S
C203 H183 0.950 . S
C203 C199 1.385 . S
C203 C202 1.374 . S
C204 C201 1.499 . S
C204 C205 1.373 . S
C204 C206 1.389 . S
C205 H184 0.950 . S
C205 C204 1.373 . S
C205 C221 1.377 . S
C206 C204 1.389 . S
C206 C207 1.524 . S
C206 C220 1.377 . S
C207 C206 1.524 . S
C207 C208 1.397 . S
C207 C212 1.363 . S
C208 H185 0.950 . S
C208 C207 1.397 . S
C208 C209 1.334 . S
C209 H186 0.950 . S
C209 C208 1.334 . S
C209 C210 1.287 . S
C210 C209 1.287 . S
C210 C211 1.524 . S
C210 H229 0.913 1_455 S
C211 H187 0.948 . S
C211 C210 1.524 . S
C211 C212 1.415 . S
C212 H188 0.950 . S
C212 C207 1.363 . S
C212 C211 1.415 . S
C213 H189 0.951 . S
C213 C214 1.366 . S
C213 C215 1.388 . S
C214 C213 1.366 . S
C214 C218 1.385 . S
C215 H190 0.951 . S
C215 C213 1.388 . S
C215 C216 1.366 . S
C216 C215 1.366 . S
C216 C217 1.414 . S
C216 C219 1.499 . S
C217 H191 0.950 . S
C217 C216 1.414 . S
C217 C218 1.374 . S
C218 H192 0.950 . S
C218 C214 1.385 . S
C218 C217 1.374 . S
C219 C216 1.499 . S
C219 C220 1.373 . S
C219 C221 1.389 . S
C220 H193 0.950 . S
C220 C206 1.377 . S
C220 C219 1.373 . S
C221 C205 1.377 . S
C221 C219 1.389 . S
C221 C222 1.524 . S
C222 C221 1.524 . S
C222 C223 1.397 . S
C222 C227 1.363 . S
C223 H194 0.950 . S
C223 C222 1.397 . S
C223 C224 1.334 . S
C224 H195 0.950 . S
C224 C223 1.334 . S
C224 C225 1.287 . S
C225 C224 1.287 . S
C225 C226 1.524 . S
C225 H228 0.999 . S
C226 H196 0.950 . S
C226 C225 1.524 . S
C226 C227 1.415 . S
C227 H197 0.950 . S
C227 C222 1.363 . S
C227 C226 1.415 . S
H228 C225 0.999 . S
H229 C210 0.913 1_655 S
H230 C248 0.951 . S
H231 C250 0.951 . S
H232 C252 0.950 . S
H233 C253 0.950 . S
H234 C255 0.950 . S
H235 C258 0.950 . S
H236 C259 0.950 . S
H237 C261 0.950 . S
H238 C262 0.950 . S
H239 C263 0.951 . S
H240 C265 0.951 . S
H241 C267 0.950 . S
H242 C268 0.950 . S
H243 C270 0.950 . S
H244 C273 0.950 . S
H245 C274 0.950 . S
H246 C276 0.950 . S
H247 C277 0.950 . S
C248 H230 0.951 . S
C248 C249 1.366 . S
C248 C250 1.388 . S
C249 C248 1.366 . S
C249 C253 1.385 . S
C250 H231 0.951 . S
C250 C248 1.388 . S
C250 C251 1.366 . S
C251 C250 1.366 . S
C251 C252 1.414 . S
C251 C254 1.499 . S
C252 H232 0.950 . S
C252 C251 1.414 . S
C252 C253 1.374 . S
C253 H233 0.950 . S
C253 C249 1.385 . S
C253 C252 1.374 . S
C254 C251 1.499 . S
C254 C255 1.373 . S
C254 C256 1.389 . S
C255 H234 0.950 . S
C255 C254 1.373 . S
C255 C271 1.377 . S
C256 C254 1.389 . S
C256 C257 1.524 . S
C256 C270 1.377 . S
C257 C256 1.524 . S
C257 C258 1.397 . S
C257 C262 1.363 . S
C258 H235 0.950 . S
C258 C257 1.397 . S
C258 C259 1.334 . S
C259 H236 0.950 . S
C259 C258 1.334 . S
C259 C260 1.287 . S
C260 C259 1.287 . S
C260 C261 1.524 . S
C260 H279 0.913 . S
C261 H237 0.950 . S
C261 C260 1.524 . S
C261 C262 1.415 . S
C262 H238 0.950 . S
C262 C257 1.363 . S
C262 C261 1.415 . S
C263 H239 0.951 . S
C263 C264 1.366 . S
C263 C265 1.388 . S
C264 C263 1.366 . S
C264 C268 1.385 . S
C265 H240 0.951 . S
C265 C263 1.388 . S
C265 C266 1.366 . S
C266 C265 1.366 . S
C266 C267 1.414 . S
C266 C269 1.499 . S
C267 H241 0.950 . S
C267 C266 1.414 . S
C267 C268 1.374 . S
C268 H242 0.950 . S
C268 C264 1.385 . S
C268 C267 1.374 . S
C269 C266 1.499 . S
C269 C270 1.373 . S
C269 C271 1.389 . S
C270 H243 0.950 . S
C270 C256 1.377 . S
C270 C269 1.373 . S
C271 C255 1.377 . S
C271 C269 1.389 . S
C271 C272 1.524 . S
C272 C271 1.524 . S
C272 C273 1.397 . S
C272 C277 1.363 . S
C273 H244 0.950 . S
C273 C272 1.397 . S
C273 C274 1.334 . S
C274 H245 0.950 . S
C274 C273 1.334 . S
C274 C275 1.287 . S
C275 C274 1.287 . S
C275 C276 1.524 . S
C275 H278 0.999 . S
C276 H246 0.950 . S
C276 C275 1.524 . S
C276 C277 1.415 . S
C277 H247 0.950 . S
C277 C272 1.363 . S
C277 C276 1.415 . S
H278 C275 0.999 . S
H279 C260 0.913 . S
H280 C298 0.953 . S
H281 C300 0.950 . S
H282 C302 0.950 . S
H283 C303 0.950 . S
H284 C305 0.950 . S
H285 C308 0.950 . S
H286 C309 0.950 . S
H287 C311 0.950 . S
H288 C312 0.950 . S
H289 C313 0.952 1_545 S
H290 C315 0.950 . S
H291 C317 0.950 . S
H292 C318 0.950 . S
H293 C320 0.950 . S
H294 C323 0.950 . S
H295 C324 0.950 . S
H296 C326 0.950 . S
H297 C327 0.950 . S
C298 H280 0.953 . S
C298 C299 1.366 . S
C298 C300 1.387 1_545 S
C299 C298 1.366 . S
C299 C303 1.385 1_556 S
C300 H281 0.950 . S
C300 C298 1.387 1_565 S
C300 C301 1.367 1_565 S
C301 C300 1.367 1_545 S
C301 C302 1.414 1_556 S
C301 C304 1.499 1_546 S
C302 H282 0.950 . S
C302 C301 1.414 1_554 S
C302 C303 1.374 . S
C303 H283 0.950 . S
C303 C299 1.385 1_554 S
C303 C302 1.374 . S
C304 C301 1.499 1_564 S
C304 C305 1.355 1_565 S
C304 C306 1.405 1_554 S
C305 H284 0.950 . S
C305 C304 1.355 1_545 S
C305 C321 1.377 . S
C306 C304 1.405 1_556 S
C306 C307 1.524 . S
C306 C320 1.377 . S
C307 C306 1.524 . S
C307 C308 1.397 . S
C307 C312 1.363 . S
C308 H285 0.950 . S
C308 C307 1.397 . S
C308 C309 1.334 . S
C309 H286 0.950 . S
C309 C308 1.334 . S
C309 C310 1.287 . S
C310 C309 1.287 . S
C310 C311 1.524 . S
C310 H329 0.913 . S
C311 H287 0.950 . S
C311 C310 1.524 . S
C311 C312 1.415 . S
C312 H288 0.950 . S
C312 C307 1.363 . S
C312 C311 1.415 . S
C313 H289 0.952 1_565 S
C313 C314 1.365 . S
C313 C315 1.387 1_565 S
C314 C313 1.365 . S
C314 C318 1.385 1_554 S
C315 H290 0.950 . S
C315 C313 1.387 1_545 S
C315 C316 1.368 . S
C316 C315 1.368 . S
C316 C317 1.414 1_544 S
C316 C319 1.499 1_554 S
C317 H291 0.950 . S
C317 C316 1.414 1_566 S
C317 C318 1.374 . S
C318 H292 0.950 . S
C318 C314 1.385 1_556 S
C318 C317 1.374 . S
C319 C316 1.499 1_556 S
C319 C320 1.373 1_545 S
C319 C321 1.390 1_556 S
C320 H293 0.950 . S
C320 C306 1.377 . S
C320 C319 1.373 1_565 S
C321 C305 1.377 . S
C321 C319 1.390 1_554 S
C321 C322 1.524 . S
C322 C321 1.524 . S
C322 C323 1.397 . S
C322 C327 1.363 . S
C323 H294 0.950 . S
C323 C322 1.397 . S
C323 C324 1.334 . S
C324 H295 0.950 . S
C324 C323 1.334 . S
C324 C325 1.287 . S
C325 C324 1.287 . S
C325 C326 1.524 . S
C325 H328 0.999 . S
C326 H296 0.950 . S
C326 C325 1.524 . S
C326 C327 1.415 . S
C327 H297 0.950 . S
C327 C322 1.363 . S
C327 C326 1.415 . S
H328 C325 0.999 . S
H329 C310 0.913 . S
H330 C348 0.951 . S
H331 C350 0.951 . S
H332 C352 0.950 . S
H333 C353 0.950 . S
H334 C355 0.950 . S
H335 C358 0.950 . S
H336 C359 0.950 . S
H337 C361 0.950 . S
H338 C362 0.950 . S
H339 C363 0.951 . S
H340 C365 0.951 . S
H341 C367 0.950 . S
H342 C368 0.950 . S
H343 C370 0.950 . S
H344 C373 0.950 . S
H345 C374 0.950 . S
H346 C376 0.950 . S
H347 C377 0.950 . S
C348 H330 0.951 . S
C348 C349 1.366 . S
C348 C350 1.388 . S
C349 C348 1.366 . S
C349 C353 1.385 1_565 S
C350 H331 0.951 . S
C350 C348 1.388 . S
C350 C351 1.366 . S
C351 C350 1.366 . S
C351 C352 1.414 1_565 S
C351 C354 1.496 1_565 S
C352 H332 0.950 . S
C352 C351 1.414 1_545 S
C352 C353 1.374 . S
C353 H333 0.950 . S
C353 C349 1.385 1_545 S
C353 C352 1.374 . S
C354 C351 1.496 1_545 S
C354 C355 1.384 . S
C354 C356 1.380 1_545 S
C355 H334 0.950 . S
C355 C354 1.384 . S
C355 C371 1.377 . S
C356 C354 1.380 1_565 S
C356 C357 1.524 . S
C356 C370 1.377 . S
C357 C356 1.524 . S
C357 C358 1.397 1_565 S
C357 C362 1.363 . S
C358 H335 0.950 . S
C358 C357 1.397 1_545 S
C358 C359 1.334 . S
C359 H336 0.950 . S
C359 C358 1.334 . S
C359 C360 1.287 1_545 S
C360 C359 1.287 1_565 S
C360 C361 1.524 . S
C360 H379 0.913 . S
C361 H337 0.950 . S
C361 C360 1.524 . S
C361 C362 1.415 . S
C362 H338 0.950 . S
C362 C357 1.363 . S
C362 C361 1.415 . S
C363 H339 0.951 . S
C363 C364 1.366 . S
C363 C365 1.388 . S
C364 C363 1.366 . S
C364 C368 1.385 1_545 S
C365 H340 0.951 . S
C365 C363 1.388 . S
C365 C366 1.366 . S
C366 C365 1.366 . S
C366 C367 1.414 1_545 S
C366 C369 1.497 1_545 S
C367 H341 0.950 . S
C367 C366 1.414 1_565 S
C367 C368 1.374 . S
C368 H342 0.950 . S
C368 C364 1.385 1_565 S
C368 C367 1.374 . S
C369 C366 1.497 1_565 S
C369 C370 1.381 . S
C369 C371 1.382 1_565 S
C370 H343 0.950 . S
C370 C356 1.377 . S
C370 C369 1.381 . S
C371 C355 1.377 . S
C371 C369 1.382 1_545 S
C371 C372 1.524 . S
C372 C371 1.524 . S
C372 C373 1.397 1_545 S
C372 C377 1.363 . S
C373 H344 0.950 . S
C373 C372 1.397 1_565 S
C373 C374 1.334 . S
C374 H345 0.950 . S
C374 C373 1.334 . S
C374 C375 1.287 1_565 S
C375 C374 1.287 1_545 S
C375 C376 1.524 . S
C375 H378 0.999 . S
C376 H346 0.950 . S
C376 C375 1.524 . S
C376 C377 1.415 . S
C377 H347 0.950 . S
C377 C372 1.363 . S
C377 C376 1.415 . S
H378 C375 0.999 . S
H379 C360 0.913 . S
H380 C398 0.951 . S
H381 C400 0.951 . S
H382 C402 0.950 . S
H383 C403 0.950 . S
H384 C405 0.950 . S
H385 C408 0.950 . S
H386 C409 0.950 . S
H387 C411 0.950 . S
H388 C412 0.950 . S
H389 C413 0.951 . S
H390 C415 0.951 . S
H391 C417 0.950 . S
H392 C418 0.950 . S
H393 C420 0.950 . S
H394 C423 0.950 . S
H395 C424 0.950 . S
H396 C426 0.950 . S
H397 C427 0.950 . S
C398 H380 0.951 . S
C398 C399 1.366 1_554 S
C398 C400 1.388 . S
C399 C398 1.366 1_556 S
C399 C403 1.385 . S
C400 H381 0.951 . S
C400 C398 1.388 . S
C400 C401 1.366 1_554 S
C401 C400 1.366 1_556 S
C401 C402 1.414 . S
C401 C404 1.499 . S
C402 H382 0.950 . S
C402 C401 1.414 . S
C402 C403 1.374 . S
C403 H383 0.950 . S
C403 C399 1.385 . S
C403 C402 1.374 . S
C404 C401 1.499 . S
C404 C405 1.373 . S
C404 C406 1.389 1_556 S
C405 H384 0.950 . S
C405 C404 1.373 . S
C405 C421 1.377 1_655 S
C406 C404 1.389 1_554 S
C406 C407 1.524 . S
C406 C420 1.377 1_655 S
C407 C406 1.524 . S
C407 C408 1.397 . S
C407 C412 1.363 . S
C408 H385 0.950 . S
C408 C407 1.397 . S
C408 C409 1.334 . S
C409 H386 0.950 . S
C409 C408 1.334 . S
C409 C410 1.287 . S
C410 C409 1.287 . S
C410 C411 1.524 . S
C410 H429 0.913 . S
C411 H387 0.950 . S
C411 C410 1.524 . S
C411 C412 1.415 . S
C412 H388 0.950 . S
C412 C407 1.363 . S
C412 C411 1.415 . S
C413 H389 0.951 . S
C413 C414 1.366 1_556 S
C413 C415 1.388 . S
C414 C413 1.366 1_554 S
C414 C418 1.385 . S
C415 H390 0.951 . S
C415 C413 1.388 . S
C415 C416 1.366 1_556 S
C416 C415 1.366 1_554 S
C416 C417 1.414 . S
C416 C419 1.499 . S
C417 H391 0.950 . S
C417 C416 1.414 . S
C417 C418 1.374 . S
C418 H392 0.950 . S
C418 C414 1.385 . S
C418 C417 1.374 . S
C419 C416 1.499 . S
C419 C420 1.373 . S
C419 C421 1.389 1_554 S
C420 H393 0.950 . S
C420 C406 1.377 1_455 S
C420 C419 1.373 . S
C421 C405 1.377 1_455 S
C421 C419 1.389 1_556 S
C421 C422 1.524 . S
C422 C421 1.524 . S
C422 C423 1.397 . S
C422 C427 1.363 . S
C423 H394 0.950 . S
C423 C422 1.397 . S
C423 C424 1.334 . S
C424 H395 0.950 . S
C424 C423 1.334 . S
C424 C425 1.287 . S
C425 C424 1.287 . S
C425 C426 1.524 . S
C425 H428 0.999 . S
C426 H396 0.950 . S
C426 C425 1.524 . S
C426 C427 1.415 . S
C427 H397 0.950 . S
C427 C422 1.363 . S
C427 C426 1.415 . S
H428 C425 0.999 . S
H429 C410 0.913 . S
H430 C448 0.951 . S
H431 C450 0.951 . S
H432 C452 0.950 . S
H433 C453 0.950 . S
H434 C455 0.950 . S
H435 C458 0.950 . S
H436 C459 0.950 . S
H437 C461 0.950 . S
H438 C462 0.950 . S
H439 C463 0.951 . S
H440 C465 0.951 . S
H441 C467 0.950 . S
H442 C468 0.950 . S
H443 C470 0.950 . S
H444 C473 0.950 . S
H445 C474 0.950 . S
H446 C476 0.950 . S
H447 C477 0.950 . S
C448 H430 0.951 . S
C448 C449 1.366 . S
C448 C450 1.388 . S
C449 C448 1.366 . S
C449 C453 1.385 . S
C450 H431 0.951 . S
C450 C448 1.388 . S
C450 C451 1.366 . S
C451 C450 1.366 . S
C451 C452 1.414 . S
C451 C454 1.499 . S
C452 H432 0.950 . S
C452 C451 1.414 . S
C452 C453 1.374 . S
C453 H433 0.950 . S
C453 C449 1.385 . S
C453 C452 1.374 . S
C454 C451 1.499 . S
C454 C455 1.373 . S
C454 C456 1.389 . S
C455 H434 0.950 . S
C455 C454 1.373 . S
C455 C471 1.377 1_455 S
C456 C454 1.389 . S
C456 C457 1.524 . S
C456 C470 1.377 1_455 S
C457 C456 1.524 . S
C457 C458 1.397 . S
C457 C462 1.363 . S
C458 H435 0.950 . S
C458 C457 1.397 . S
C458 C459 1.334 . S
C459 H436 0.950 . S
C459 C458 1.334 . S
C459 C460 1.287 . S
C460 C459 1.287 . S
C460 C461 1.524 . S
C460 H479 0.913 . S
C461 H437 0.950 . S
C461 C460 1.524 . S
C461 C462 1.415 . S
C462 H438 0.950 . S
C462 C457 1.363 . S
C462 C461 1.415 . S
C463 H439 0.951 . S
C463 C464 1.366 . S
C463 C465 1.388 . S
C464 C463 1.366 . S
C464 C468 1.385 . S
C465 H440 0.951 . S
C465 C463 1.388 . S
C465 C466 1.366 . S
C466 C465 1.366 . S
C466 C467 1.414 . S
C466 C469 1.499 . S
C467 H441 0.950 . S
C467 C466 1.414 . S
C467 C468 1.374 . S
C468 H442 0.950 . S
C468 C464 1.385 . S
C468 C467 1.374 . S
C469 C466 1.499 . S
C469 C470 1.373 . S
C469 C471 1.389 . S
C470 H443 0.950 . S
C470 C456 1.377 1_655 S
C470 C469 1.373 . S
C471 C455 1.377 1_655 S
C471 C469 1.389 . S
C471 C472 1.524 . S
C472 C471 1.524 . S
C472 C473 1.397 . S
C472 C477 1.363 . S
C473 H444 0.950 . S
C473 C472 1.397 . S
C473 C474 1.334 . S
C474 H445 0.950 . S
C474 C473 1.334 . S
C474 C475 1.287 . S
C475 C474 1.287 . S
C475 C476 1.524 . S
C475 H478 0.999 . S
C476 H446 0.950 . S
C476 C475 1.524 . S
C476 C477 1.415 . S
C477 H447 0.950 . S
C477 C472 1.363 . S
C477 C476 1.415 . S
H478 C475 0.999 . S
H479 C460 0.913 . S
H480 C498 0.951 . S
H481 C500 0.951 . S
H482 C502 0.950 . S
H483 C503 0.950 . S
H484 C505 0.950 . S
H485 C508 0.950 . S
H486 C509 0.950 . S
H487 C511 0.950 . S
H488 C512 0.950 . S
H489 C513 0.951 . S
H490 C515 0.951 . S
H491 C517 0.950 . S
H492 C518 0.950 . S
H493 C520 0.952 . S
H494 C523 0.950 . S
H495 C524 0.950 . S
H496 C526 0.950 . S
H497 C527 0.950 . S
C498 H480 0.951 . S
C498 C499 1.366 1_455 S
C498 C500 1.388 . S
C499 C498 1.366 1_655 S
C499 C503 1.385 1_545 S
C500 H481 0.951 . S
C500 C498 1.388 . S
C500 C501 1.366 1_455 S
C501 C500 1.366 1_655 S
C501 C502 1.414 1_545 S
C501 C504 1.499 . S
C502 H482 0.950 . S
C502 C501 1.414 1_565 S
C502 C503 1.374 . S
C503 H483 0.950 . S
C503 C499 1.385 1_565 S
C503 C502 1.374 . S
C504 C501 1.499 . S
C504 C505 1.373 1_545 S
C504 C506 1.389 . S
C505 H484 0.950 . S
C505 C504 1.373 1_565 S
C505 C521 1.377 . S
C506 C504 1.389 . S
C506 C507 1.524 . S
C506 C520 1.377 . S
C507 C506 1.524 . S
C507 C508 1.397 . S
C507 C512 1.363 1_655 S
C508 H485 0.950 . S
C508 C507 1.397 . S
C508 C509 1.334 . S
C509 H486 0.950 . S
C509 C508 1.334 . S
C509 C510 1.287 . S
C510 C509 1.287 . S
C510 C511 1.524 1_655 S
C510 H529 0.913 . S
C511 H487 0.950 . S
C511 C510 1.524 1_455 S
C511 C512 1.415 . S
C512 H488 0.950 . S
C512 C507 1.363 1_455 S
C512 C511 1.415 . S
C513 H489 0.951 . S
C513 C514 1.366 1_565 S
C513 C515 1.388 . S
C514 C513 1.366 1_545 S
C514 C518 1.385 1_655 S
C515 H490 0.951 . S
C515 C513 1.388 . S
C515 C516 1.366 . S
C516 C515 1.366 . S
C516 C517 1.414 1_665 S
C516 C519 1.500 1_565 S
C517 H491 0.950 . S
C517 C516 1.414 1_445 S
C517 C518 1.374 . S
C518 H492 0.950 . S
C518 C514 1.385 1_455 S
C518 C517 1.374 . S
C519 C516 1.500 1_545 S
C519 C520 1.389 . S
C519 C521 1.373 1_545 S
C520 H493 0.952 . S
C520 C506 1.377 . S
C520 C519 1.389 . S
C521 C505 1.377 . S
C521 C519 1.373 1_565 S
C521 C522 1.524 1_655 S
C522 C521 1.524 1_455 S
C522 C523 1.397 . S
C522 C527 1.363 1_455 S
C523 H494 0.950 . S
C523 C522 1.397 . S
C523 C524 1.334 . S
C524 H495 0.950 . S
C524 C523 1.334 . S
C524 C525 1.287 . S
C525 C524 1.287 . S
C525 C526 1.524 1_455 S
C525 H528 0.999 . S
C526 H496 0.950 . S
C526 C525 1.524 1_655 S
C526 C527 1.415 . S
C527 H497 0.950 . S
C527 C522 1.363 1_655 S
C527 C526 1.415 . S
H528 C525 0.999 . S
H529 C510 0.913 . S
H530 C548 0.951 . S
H531 C550 0.951 . S
H532 C552 0.950 . S
H533 C553 0.950 . S
H534 C555 0.950 . S
H535 C558 0.950 1_565 S
H536 C559 0.950 . S
H537 C561 0.950 . S
H538 C562 0.950 . S
H539 C563 0.951 . S
H540 C565 0.951 . S
H541 C567 0.950 . S
H542 C568 0.950 . S
H543 C570 0.950 . S
H544 C573 0.950 1_545 S
H545 C574 0.950 . S
H546 C576 0.950 . S
H547 C577 0.950 . S
C548 H530 0.951 . S
C548 C549 1.341 1_645 S
C548 C550 1.388 . S
C549 C548 1.341 1_465 S
C549 C553 1.407 . S
C550 H531 0.951 . S
C550 C548 1.388 . S
C550 C551 1.366 1_645 S
C551 C550 1.366 1_465 S
C551 C552 1.414 . S
C551 C554 1.499 . S
C552 H532 0.950 . S
C552 C551 1.414 . S
C552 C553 1.374 . S
C553 H533 0.950 . S
C553 C549 1.407 . S
C553 C552 1.374 . S
C554 C551 1.499 . S
C554 C555 1.373 . S
C554 C556 1.389 1_465 S
C555 H534 0.950 . S
C555 C554 1.373 . S
C555 C571 1.377 . S
C556 C554 1.389 1_645 S
C556 C557 1.524 . S
C556 C570 1.377 . S
C557 C556 1.524 . S
C557 C558 1.397 . S
C557 C562 1.363 . S
C558 H535 0.950 1_545 S
C558 C557 1.397 . S
C558 C559 1.334 . S
C559 H536 0.950 . S
C559 C558 1.334 . S
C559 C560 1.287 . S
C560 C559 1.287 . S
C560 C561 1.524 . S
C560 H579 0.913 . S
C561 H537 0.950 . S
C561 C560 1.524 . S
C561 C562 1.415 . S
C562 H538 0.950 . S
C562 C557 1.363 . S
C562 C561 1.415 . S
C563 H539 0.951 . S
C563 C564 1.366 . S
C563 C565 1.388 . S
C564 C563 1.366 . S
C564 C568 1.385 1_465 S
C565 H540 0.951 . S
C565 C563 1.388 . S
C565 C566 1.366 . S
C566 C565 1.366 . S
C566 C567 1.414 1_465 S
C566 C569 1.499 1_565 S
C567 H541 0.950 . S
C567 C566 1.414 1_645 S
C567 C568 1.374 . S
C568 H542 0.950 . S
C568 C564 1.385 1_645 S
C568 C567 1.374 . S
C569 C566 1.499 1_545 S
C569 C570 1.373 1_455 S
C569 C571 1.390 1_545 S
C570 H543 0.950 . S
C570 C556 1.377 . S
C570 C569 1.373 1_655 S
C571 C555 1.377 . S
C571 C569 1.390 1_565 S
C571 C572 1.524 . S
C572 C571 1.524 . S
C572 C573 1.397 . S
C572 C577 1.363 . S
C573 H544 0.950 1_565 S
C573 C572 1.397 . S
C573 C574 1.334 . S
C574 H545 0.950 . S
C574 C573 1.334 . S
C574 C575 1.287 . S
C575 C574 1.287 . S
C575 C576 1.524 . S
C575 H578 0.999 . S
C576 H546 0.950 . S
C576 C575 1.524 . S
C576 C577 1.415 . S
C577 H547 0.950 . S
C577 C572 1.363 . S
C577 C576 1.415 . S
H578 C575 0.999 . S
H579 C560 0.913 . S
H580 C598 0.951 . S
H581 C600 0.951 . S
H582 C602 0.950 . S
H583 C603 0.950 . S
H584 C605 0.950 . S
H585 C608 0.950 . S
H586 C609 0.950 . S
H587 C611 0.950 . S
H588 C612 0.950 . S
H589 C613 0.951 . S
H590 C615 0.951 . S
H591 C617 0.950 . S
H592 C618 0.950 . S
H593 C620 0.950 . S
H594 C623 0.950 . S
H595 C624 0.950 . S
H596 C626 0.950 . S
H597 C627 0.950 . S
C598 H580 0.951 . S
C598 C599 1.366 . S
C598 C600 1.388 . S
C599 C598 1.366 . S
C599 C603 1.385 . S
C600 H581 0.951 . S
C600 C598 1.388 . S
C600 C601 1.366 . S
C601 C600 1.366 . S
C601 C602 1.414 . S
C601 C604 1.499 . S
C602 H582 0.950 . S
C602 C601 1.414 . S
C602 C603 1.374 . S
C603 H583 0.950 . S
C603 C599 1.385 . S
C603 C602 1.374 . S
C604 C601 1.499 . S
C604 C605 1.373 . S
C604 C606 1.389 . S
C605 H584 0.950 . S
C605 C604 1.373 . S
C605 C621 1.377 . S
C606 C604 1.389 . S
C606 C607 1.524 . S
C606 C620 1.377 . S
C607 C606 1.524 . S
C607 C608 1.397 . S
C607 C612 1.363 . S
C608 H585 0.950 . S
C608 C607 1.397 . S
C608 C609 1.334 . S
C609 H586 0.950 . S
C609 C608 1.334 . S
C609 C610 1.287 . S
C610 C609 1.287 . S
C610 C611 1.524 . S
C610 H629 0.913 . S
C611 H587 0.950 . S
C611 C610 1.524 . S
C611 C612 1.415 . S
C612 H588 0.950 . S
C612 C607 1.363 . S
C612 C611 1.415 . S
C613 H589 0.951 . S
C613 C614 1.366 . S
C613 C615 1.388 . S
C614 C613 1.366 . S
C614 C618 1.385 . S
C615 H590 0.951 . S
C615 C613 1.388 . S
C615 C616 1.366 . S
C616 C615 1.366 . S
C616 C617 1.414 . S
C616 C619 1.499 . S
C617 H591 0.950 . S
C617 C616 1.414 . S
C617 C618 1.374 . S
C618 H592 0.950 . S
C618 C614 1.385 . S
C618 C617 1.374 . S
C619 C616 1.499 . S
C619 C620 1.373 . S
C619 C621 1.389 . S
C620 H593 0.950 . S
C620 C606 1.377 . S
C620 C619 1.373 . S
C621 C605 1.377 . S
C621 C619 1.389 . S
C621 C622 1.524 . S
C622 C621 1.524 . S
C622 C623 1.397 . S
C622 C627 1.363 . S
C623 H594 0.950 . S
C623 C622 1.397 . S
C623 C624 1.334 . S
C624 H595 0.950 . S
C624 C623 1.334 . S
C624 C625 1.287 . S
C625 C624 1.287 . S
C625 C626 1.524 . S
C625 H628 0.999 . S
C626 H596 0.950 . S
C626 C625 1.524 . S
C626 C627 1.415 . S
C627 H597 0.950 . S
C627 C622 1.363 . S
C627 C626 1.415 . S
H628 C625 0.999 . S
H629 C610 0.913 . S
H630 C648 0.951 . S
H631 C650 0.951 . S
H632 C652 0.950 . S
H633 C653 0.950 . S
H634 C655 0.950 . S
H635 C658 0.950 . S
H636 C659 0.950 . S
H637 C661 0.950 . S
H638 C662 0.950 . S
H639 C663 0.951 . S
H640 C665 0.951 . S
H641 C667 0.950 . S
H642 C668 0.950 . S
H643 C670 0.950 . S
H644 C673 0.950 . S
H645 C674 0.950 . S
H646 C676 0.950 . S
H647 C677 0.950 . S
C648 H630 0.951 . S
C648 C649 1.366 . S
C648 C650 1.388 . S
C649 C648 1.366 . S
C649 C653 1.385 . S
C650 H631 0.951 . S
C650 C648 1.388 . S
C650 C651 1.366 . S
C651 C650 1.366 . S
C651 C652 1.414 . S
C651 C654 1.499 . S
C652 H632 0.950 . S
C652 C651 1.414 . S
C652 C653 1.374 . S
C653 H633 0.950 . S
C653 C649 1.385 . S
C653 C652 1.374 . S
C654 C651 1.499 . S
C654 C655 1.373 . S
C654 C656 1.389 . S
C655 H634 0.950 . S
C655 C654 1.373 . S
C655 C671 1.377 . S
C656 C654 1.389 . S
C656 C657 1.524 . S
C656 C670 1.377 . S
C657 C656 1.524 . S
C657 C658 1.397 . S
C657 C662 1.363 . S
C658 H635 0.950 . S
C658 C657 1.397 . S
C658 C659 1.334 . S
C659 H636 0.950 . S
C659 C658 1.334 . S
C659 C660 1.287 . S
C660 C659 1.287 . S
C660 C661 1.524 . S
C660 H679 0.913 . S
C661 H637 0.950 . S
C661 C660 1.524 . S
C661 C662 1.415 . S
C662 H638 0.950 . S
C662 C657 1.363 . S
C662 C661 1.415 . S
C663 H639 0.951 . S
C663 C664 1.366 . S
C663 C665 1.388 . S
C664 C663 1.366 . S
C664 C668 1.385 . S
C665 H640 0.951 . S
C665 C663 1.388 . S
C665 C666 1.366 . S
C666 C665 1.366 . S
C666 C667 1.414 . S
C666 C669 1.499 . S
C667 H641 0.950 . S
C667 C666 1.414 . S
C667 C668 1.374 . S
C668 H642 0.950 . S
C668 C664 1.385 . S
C668 C667 1.374 . S
C669 C666 1.499 . S
C669 C670 1.373 . S
C669 C671 1.389 . S
C670 H643 0.950 . S
C670 C656 1.377 . S
C670 C669 1.373 . S
C671 C655 1.377 . S
C671 C669 1.389 . S
C671 C672 1.524 . S
C672 C671 1.524 . S
C672 C673 1.397 . S
C672 C677 1.363 . S
C673 H644 0.950 . S
C673 C672 1.397 . S
C673 C674 1.334 . S
C674 H645 0.950 . S
C674 C673 1.334 . S
C674 C675 1.287 . S
C675 C674 1.287 . S
C675 C676 1.524 . S
C675 H678 0.999 . S
C676 H646 0.950 . S
C676 C675 1.524 . S
C676 C677 1.415 . S
C677 H647 0.950 . S
C677 C672 1.363 . S
C677 C676 1.415 . S
H678 C675 0.999 . S
H679 C660 0.913 . S
C99 C44 1.550 1_554 S
C114 C2 1.551 1_556 S
C149 C42 1.550 1_556 S
C164 C4 1.549 1_554 S
C199 C29 1.316 . S
C214 C72 1.313 . S
C249 C32 1.316 . S
C264 C69 1.318 . S
C299 C9 0.998 1_545 S
C314 C12 0.998 1_565 S
C349 C22 1.463 1_565 S
C364 C24 1.463 1_545 S
C399 C49 0.996 . S
C414 C52 0.996 . S
C449 C64 1.464 . S
C464 C62 1.464 . S
C499 C38 1.488 . S
C514 C19 1.477 1_645 S
C549 C18 1.478 1_465 S
C564 C39 1.491 . S
C599 C78 1.488 . S
C614 C59 1.476 . S
C649 C79 1.488 . S
C664 C58 1.483 . S
