# Generated by pormake.
# Topology yfz, (5)-cn, num edge types: 1
# Building blocks:
#     Node 0, Type 0, BuildingBlock: XOMCOT_clean_sbu_0, # of connection points: 5
#     Node 1, Type 0, BuildingBlock: XOMCOT_clean_sbu_0, # of connection points: 5
#     Node 2, Type 0, BuildingBlock: XOMCOT_clean_sbu_0, # of connection points: 5
#     Node 3, Type 0, BuildingBlock: XOMCOT_clean_sbu_0, # of connection points: 5
#     Node 4, Type 0, BuildingBlock: XOMCOT_clean_sbu_0, # of connection points: 5
#     Node 5, Type 0, BuildingBlock: XOMCOT_clean_sbu_0, # of connection points: 5
#     Node 6, Type 0, BuildingBlock: XOMCOT_clean_sbu_0, # of connection points: 5
#     Node 7, Type 0, BuildingBlock: XOMCOT_clean_sbu_0, # of connection points: 5
#     Edge 8, Type (0, 0), BuildingBlock: MIFKUJ_clean_linker_0, # of connection points: 2
#     Edge 9, Type (0, 0), BuildingBlock: MIFKUJ_clean_linker_0, # of connection points: 2
#     Edge 10, Type (0, 0), BuildingBlock: MIFKUJ_clean_linker_0, # of connection points: 2
#     Edge 11, Type (0, 0), BuildingBlock: MIFKUJ_clean_linker_0, # of connection points: 2
#     Edge 12, Type (0, 0), BuildingBlock: MIFKUJ_clean_linker_0, # of connection points: 2
#     Edge 13, Type (0, 0), BuildingBlock: MIFKUJ_clean_linker_0, # of connection points: 2
#     Edge 14, Type (0, 0), BuildingBlock: MIFKUJ_clean_linker_0, # of connection points: 2
#     Edge 15, Type (0, 0), BuildingBlock: MIFKUJ_clean_linker_0, # of connection points: 2
#     Edge 16, Type (0, 0), BuildingBlock: MIFKUJ_clean_linker_0, # of connection points: 2
#     Edge 17, Type (0, 0), BuildingBlock: MIFKUJ_clean_linker_0, # of connection points: 2
#     Edge 18, Type (0, 0), BuildingBlock: MIFKUJ_clean_linker_0, # of connection points: 2
#     Edge 19, Type (0, 0), BuildingBlock: MIFKUJ_clean_linker_0, # of connection points: 2
#     Edge 20, Type (0, 0), BuildingBlock: MIFKUJ_clean_linker_0, # of connection points: 2
#     Edge 21, Type (0, 0), BuildingBlock: MIFKUJ_clean_linker_0, # of connection points: 2
#     Edge 22, Type (0, 0), BuildingBlock: MIFKUJ_clean_linker_0, # of connection points: 2
#     Edge 23, Type (0, 0), BuildingBlock: MIFKUJ_clean_linker_0, # of connection points: 2
#     Edge 24, Type (0, 0), BuildingBlock: MIFKUJ_clean_linker_0, # of connection points: 2
#     Edge 25, Type (0, 0), BuildingBlock: MIFKUJ_clean_linker_0, # of connection points: 2
#     Edge 26, Type (0, 0), BuildingBlock: MIFKUJ_clean_linker_0, # of connection points: 2
#     Edge 27, Type (0, 0), BuildingBlock: MIFKUJ_clean_linker_0, # of connection points: 2
# Relax obj value: 0.170
# Max RMSD: 0.158
# Mean RMSD: 0.158
data_MOF--net-yfz--node1-XOMCOT_clean_sbu_0--edge1-MIFKUJ_clean_linker_0
_symmetry_space_group_name_H-M    P1
_symmetry_Int_Tables_number       1
_symmetry_cell_setting            triclinic
loop_
_symmetry_equiv_pos_as_xyz
'x, y, z'
_cell_length_a     65.87001
_cell_length_b     65.858888
_cell_length_c     22.050363
_cell_angle_alpha  89.999524
_cell_angle_beta   89.977204
_cell_angle_gamma 89.995887
loop_
_atom_site_label
_atom_site_type_symbol
_atom_site_fract_x
_atom_site_fract_y
_atom_site_fract_z
_atom_type_partial_charge
Co0 Co 0.57133 0.10202 0.31741 0.0
C1 C 0.56677 0.09836 0.18168 0.0
C2 C 0.53878 0.09494 0.23 0.0
C3 C 0.53473 0.09406 0.16888 0.0
N4 N 0.55892 0.09735 0.23836 0.0
N5 N 0.55235 0.09622 0.13847 0.0
H6 H 0.58239 0.10152 0.17136 0.0
H7 H 0.5277 0.09419 0.26616 0.0
C8 C 0.55182 0.06103 0.32768 0.0
O9 O 0.55774 0.05691 0.27214 0.0
N10 N 0.5828 0.10697 0.3965 0.0
C11 C 0.60181 0.11307 0.40954 0.0
C12 C 0.6039 0.11389 0.4717 0.0
C13 C 0.5735 0.10441 0.45044 0.0
N14 N 0.58609 0.10844 0.49728 0.0
C15 C 0.60895 0.09349 0.2579 0.0
C16 C 0.61896 0.05904 0.32271 0.0
C17 C 0.63282 0.06665 0.28013 0.0
C18 C 0.62751 0.08402 0.2473 0.0
C19 C 0.60023 0.06879 0.33103 0.0
N20 N 0.59516 0.08559 0.29772 0.0
H21 H 0.60624 0.10788 0.23617 0.0
H22 H 0.59044 0.06344 0.36684 0.0
H23 H 0.61338 0.11647 0.37624 0.0
H24 H 0.55798 0.09925 0.45527 0.0
O25 O 0.58123 0.12798 0.29016 0.0
O26 O 0.55112 0.12298 0.33223 0.0
O27 O 0.55622 0.07802 0.35234 0.0
C28 C 0.56409 0.13559 0.30832 0.0
H29 H 0.51991 0.09209 0.14854 0.0
H30 H 0.61746 0.11827 0.49614 0.0
H31 H 0.62277 0.04599 0.35038 0.0
H32 H 0.63815 0.09097 0.21608 0.0
Co33 Co 0.37545 0.56949 0.81596 0.0
C34 C 0.37982 0.56661 0.68251 0.0
C35 C 0.39473 0.54201 0.72831 0.0
C36 C 0.39657 0.53911 0.66673 0.0
N37 N 0.38428 0.55926 0.73813 0.0
N38 N 0.38711 0.55452 0.63782 0.0
H39 H 0.37077 0.5801 0.6751 0.0
H40 H 0.40019 0.53194 0.7634 0.0
C41 C 0.41248 0.56419 0.89581 0.0
O42 O 0.40985 0.58252 0.91806 0.0
N43 N 0.36623 0.5793 0.89489 0.0
C44 C 0.35472 0.59575 0.90715 0.0
C45 C 0.35167 0.59699 0.96874 0.0
C46 C 0.36903 0.57022 0.94936 0.0
N47 N 0.36087 0.58105 0.99546 0.0
C48 C 0.37622 0.61151 0.78477 0.0
C49 C 0.41774 0.61706 0.78297 0.0
C50 C 0.40503 0.63405 0.77669 0.0
C51 C 0.38404 0.63084 0.77522 0.0
C52 C 0.40915 0.59775 0.79216 0.0
N53 N 0.38858 0.59545 0.79757 0.0
H54 H 0.36003 0.60963 0.78175 0.0
H55 H 0.41912 0.58479 0.79505 0.0
H56 H 0.34842 0.60604 0.87426 0.0
H57 H 0.37728 0.55616 0.9553 0.0
O58 O 0.34913 0.57517 0.78179 0.0
O59 O 0.35767 0.54613 0.82566 0.0
O60 O 0.40066 0.55747 0.85438 0.0
C61 C 0.34393 0.557 0.79823 0.0
H62 H 0.40419 0.52649 0.64509 0.0
H63 H 0.3431 0.60868 0.9919 0.0
H64 H 0.43409 0.61868 0.78197 0.0
H65 H 0.37361 0.64324 0.7667 0.0
Co66 Co 0.90788 0.37707 0.32135 0.0
C67 C 0.90811 0.38255 0.18841 0.0
C68 C 0.93302 0.3981 0.23068 0.0
C69 C 0.93442 0.40075 0.1689 0.0
N70 N 0.91647 0.3868 0.24279 0.0
N71 N 0.9188 0.3909 0.14244 0.0
H72 H 0.89462 0.37338 0.18265 0.0
H73 H 0.94369 0.40358 0.26413 0.0
C74 C 0.91507 0.41498 0.39552 0.0
O75 O 0.89616 0.41434 0.41445 0.0
N76 N 0.89989 0.36669 0.40119 0.0
C77 C 0.8879 0.35051 0.41306 0.0
C78 C 0.88718 0.34728 0.47458 0.0
C79 C 0.90726 0.37215 0.45612 0.0
N80 N 0.8993 0.361 0.50176 0.0
C81 C 0.86466 0.38108 0.31876 0.0
C82 C 0.86289 0.42113 0.28187 0.0
C83 C 0.84478 0.41059 0.293 0.0
C84 C 0.84586 0.39031 0.31115 0.0
C85 C 0.88157 0.41135 0.29145 0.0
N86 N 0.88228 0.3917 0.31173 0.0
H87 H 0.8649 0.36513 0.32837 0.0
H88 H 0.89546 0.41955 0.28238 0.0
H89 H 0.88054 0.34108 0.37956 0.0
H90 H 0.919 0.38332 0.46287 0.0
O91 O 0.89974 0.35191 0.28438 0.0
O92 O 0.9304 0.35803 0.32196 0.0
O93 O 0.92184 0.40121 0.35994 0.0
C94 C 0.91803 0.34544 0.29513 0.0
H95 H 0.94645 0.40863 0.14515 0.0
H96 H 0.87839 0.33568 0.49729 0.0
H97 H 0.86259 0.43674 0.26639 0.0
H98 H 0.83218 0.38143 0.31774 0.0
Co99 Co 0.1027 0.90858 0.8269 0.0
C100 C 0.09817 0.90928 0.6934 0.0
C101 C 0.07891 0.93134 0.73618 0.0
C102 C 0.07637 0.93276 0.67438 0.0
N103 N 0.09245 0.91651 0.74809 0.0
N104 N 0.08858 0.91899 0.64772 0.0
H105 H 0.10922 0.8973 0.68705 0.0
H106 H 0.07166 0.94086 0.76972 0.0
C107 C 0.0649 0.91474 0.90233 0.0
O108 O 0.06627 0.8959 0.92157 0.0
N109 N 0.11354 0.90132 0.90679 0.0
C110 C 0.13028 0.8901 0.91882 0.0
C111 C 0.13372 0.88989 0.98032 0.0
C112 C 0.10787 0.90868 0.96154 0.0
N113 N 0.11947 0.90146 0.00707 0.0
C114 C 0.10019 0.86524 0.82547 0.0
C115 C 0.06034 0.86206 0.78758 0.0
C116 C 0.07161 0.84429 0.79741 0.0
C117 C 0.09177 0.84611 0.81643 0.0
C118 C 0.06933 0.88106 0.79832 0.0
N119 N 0.08894 0.88246 0.81857 0.0
H120 H 0.11609 0.86606 0.83559 0.0
H121 H 0.06059 0.89465 0.78973 0.0
H122 H 0.1399 0.88294 0.8854 0.0
H123 H 0.09622 0.91994 0.96847 0.0
O124 O 0.12804 0.90109 0.78993 0.0
O125 O 0.12097 0.93173 0.82588 0.0
O126 O 0.07822 0.92187 0.86586 0.0
C127 C 0.13394 0.91963 0.7995 0.0
H128 H 0.06688 0.94359 0.65073 0.0
H129 H 0.14575 0.88183 0.00351 0.0
H130 H 0.0448 0.86129 0.77174 0.0
H131 H 0.10127 0.83281 0.82204 0.0
Co132 Co 0.57144 0.38176 0.18007 0.0
C133 C 0.56762 0.38525 0.31553 0.0
C134 C 0.54019 0.39267 0.26854 0.0
C135 C 0.53648 0.39367 0.32983 0.0
N136 N 0.55986 0.38786 0.25929 0.0
N137 N 0.55375 0.38894 0.35935 0.0
H138 H 0.58277 0.38012 0.32496 0.0
H139 H 0.52907 0.39469 0.23297 0.0
C140 C 0.55372 0.42319 0.16597 0.0
O141 O 0.56297 0.42805 0.21674 0.0
N142 N 0.58217 0.37531 0.10111 0.0
C143 C 0.60068 0.36774 0.08861 0.0
C144 C 0.6025 0.36571 0.02671 0.0
C145 C 0.57291 0.37767 0.0471 0.0
N146 N 0.58503 0.37197 1.00059 0.0
C147 C 0.60941 0.39135 0.23598 0.0
C148 C 0.61983 0.42355 0.16204 0.0
C149 C 0.63365 0.41705 0.2063 0.0
C150 C 0.62816 0.40073 0.24348 0.0
C151 C 0.60095 0.41384 0.15661 0.0
N152 N 0.59561 0.3983 0.19473 0.0
H153 H 0.60672 0.37757 0.26078 0.0
H154 H 0.59112 0.4182 0.11967 0.0
H155 H 0.61214 0.36421 0.12212 0.0
H156 H 0.55759 0.38334 0.04219 0.0
O157 O 0.58161 0.35634 0.21043 0.0
O158 O 0.55104 0.36055 0.17075 0.0
O159 O 0.55587 0.40535 0.14383 0.0
C160 C 0.5643 0.3484 0.19545 0.0
H161 H 0.52196 0.39675 0.35091 0.0
H162 H 0.61587 0.36046 1.00289 0.0
H163 H 0.62374 0.43568 0.13099 0.0
H164 H 0.63879 0.39442 0.2759 0.0
Co165 Co 0.10058 0.56714 0.68643 0.0
C166 C 0.09647 0.56407 0.82152 0.0
C167 C 0.08389 0.53842 0.77533 0.0
C168 C 0.08235 0.53513 0.83678 0.0
N169 N 0.09224 0.55684 0.76548 0.0
N170 N 0.09033 0.55127 0.86577 0.0
H171 H 0.10456 0.57793 0.8304 0.0
H172 H 0.07989 0.52769 0.74019 0.0
C173 C 0.05739 0.55427 0.66639 0.0
O174 O 0.05228 0.56439 0.71544 0.0
N175 N 0.10911 0.57669 0.60773 0.0
C176 C 0.11973 0.59367 0.59559 0.0
C177 C 0.1221 0.59524 0.53368 0.0
C178 C 0.10524 0.5681 0.55346 0.0
N179 N 0.11294 0.57917 0.50722 0.0
C180 C 0.09536 0.60639 0.74 0.0
C181 C 0.06559 0.62028 0.6622 0.0
C182 C 0.07394 0.63377 0.70458 0.0
C183 C 0.08879 0.62644 0.74434 0.0
C184 C 0.07265 0.60021 0.65937 0.0
N185 N 0.08707 0.59326 0.69901 0.0
H186 H 0.10823 0.60203 0.76694 0.0
H187 H 0.06734 0.59072 0.62278 0.0
H188 H 0.12506 0.60433 0.62933 0.0
H189 H 0.09702 0.554 0.54803 0.0
O190 O 0.12684 0.57396 0.71944 0.0
O191 O 0.11886 0.5442 0.6786 0.0
O192 O 0.0758 0.5544 0.64796 0.0
C193 C 0.13237 0.55572 0.70456 0.0
H194 H 0.07666 0.52151 0.85836 0.0
H195 H 0.12954 0.60756 0.51003 0.0
H196 H 0.05456 0.62548 0.62925 0.0
H197 H 0.09591 0.63636 0.77726 0.0
Co198 Co 0.90938 0.09749 0.20042 0.0
C199 C 0.91352 0.09411 0.33567 0.0
C200 C 0.94082 0.08633 0.28847 0.0
C201 C 0.94456 0.08538 0.3498 0.0
N202 N 0.92121 0.09139 0.27936 0.0
N203 N 0.92735 0.09028 0.37948 0.0
H204 H 0.89862 0.09995 0.34515 0.0
H205 H 0.95184 0.08396 0.25279 0.0
C206 C 0.92672 0.05583 0.18577 0.0
O207 O 0.91782 0.05092 0.23709 0.0
N208 N 0.89829 0.10387 0.12171 0.0
C209 C 0.87979 0.1116 0.10992 0.0
C210 C 0.87743 0.11295 0.04799 0.0
C211 C 0.90704 0.10081 0.06717 0.0
N212 N 0.89456 0.10614 0.02118 0.0
C213 C 0.87134 0.0888 0.25776 0.0
C214 C 0.86027 0.05655 0.18496 0.0
C215 C 0.84639 0.06374 0.2282 0.0
C216 C 0.85228 0.07998 0.26515 0.0
C217 C 0.8794 0.06573 0.17952 0.0
N218 N 0.88501 0.08138 0.21681 0.0
H219 H 0.87432 0.10262 0.2821 0.0
H220 H 0.88913 0.06096 0.14282 0.0
H221 H 0.8687 0.1157 0.14398 0.0
H222 H 0.92203 0.09438 0.06129 0.0
O223 O 0.89994 0.12317 0.23122 0.0
O224 O 0.93005 0.11821 0.1888 0.0
O225 O 0.9244 0.07365 0.1638 0.0
C226 C 0.91732 0.13064 0.21465 0.0
H227 H 0.95891 0.08157 0.37076 0.0
H228 H 0.86415 0.1186 0.02456 0.0
H229 H 0.85618 0.04439 0.15429 0.0
H230 H 0.84173 0.08676 0.29695 0.0
Co231 Co 0.3767 0.90966 0.6688 0.0
C232 C 0.38031 0.91376 0.80417 0.0
C233 C 0.38894 0.94073 0.75666 0.0
C234 C 0.39007 0.94451 0.81795 0.0
N235 N 0.38325 0.92128 0.74774 0.0
N236 N 0.38463 0.9275 0.84784 0.0
H237 H 0.37402 0.89907 0.81387 0.0
H238 H 0.39164 0.95163 0.72088 0.0
C239 C 0.41894 0.92575 0.65352 0.0
O240 O 0.42376 0.91726 0.70551 0.0
N241 N 0.3699 0.89882 0.59007 0.0
C242 C 0.36143 0.88066 0.57815 0.0
C243 C 0.36007 0.87836 0.51618 0.0
C244 C 0.37341 0.90744 0.53558 0.0
N245 N 0.36764 0.8952 0.48947 0.0
C246 C 0.38357 0.87138 0.72614 0.0
C247 C 0.41521 0.85856 0.6535 0.0
C248 C 0.4069 0.84491 0.69566 0.0
C249 C 0.39124 0.85185 0.73326 0.0
C250 C 0.40725 0.87828 0.64856 0.0
N251 N 0.39175 0.88465 0.68535 0.0
H252 H 0.36999 0.87513 0.75071 0.0
H253 H 0.4127 0.88784 0.6123 0.0
H254 H 0.35682 0.86975 0.61213 0.0
H255 H 0.38047 0.92214 0.52983 0.0
O256 O 0.35059 0.90132 0.69921 0.0
O257 O 0.35689 0.9312 0.65729 0.0
O258 O 0.40107 0.92362 0.63191 0.0
C259 C 0.34385 0.919 0.68273 0.0
H260 H 0.39439 0.95876 0.83869 0.0
H261 H 0.35391 0.86532 0.49269 0.0
H262 H 0.42694 0.85374 0.62224 0.0
H263 H 0.38424 0.84197 0.7665 0.0
H264 H 0.41572 0.94178 0.5394 0.0
H265 H 0.44002 0.96355 0.48666 0.0
H266 H 0.48047 0.96039 0.64009 0.0
H267 H 0.45619 0.93859 0.69342 0.0
H268 H 0.47574 0.99959 0.59686 0.0
H269 H 0.49125 0.93363 0.51569 0.0
H270 H 0.483 0.90086 0.46758 0.0
H271 H 0.46061 0.93202 0.31017 0.0
H272 H 0.46849 0.965 0.35769 0.0
H273 H 0.55619 0.05041 0.44625 0.0
H274 H 0.53619 0.02562 0.50344 0.0
H275 H 0.49952 0.01435 0.34449 0.0
H276 H 0.52076 0.03777 0.28622 0.0
H277 H 0.50377 0.98118 0.39544 0.0
H278 H 0.48623 0.0472 0.47651 0.0
H279 H 0.49354 0.0803 0.52415 0.0
H280 H 0.51757 0.05005 0.68097 0.0
H281 H 0.5109 0.0168 0.63365 0.0
C282 C 0.42981 0.94562 0.56195 0.0
C283 C 0.43402 0.93837 0.62064 0.0
C284 C 0.44372 0.95804 0.53162 0.0
C285 C 0.46214 0.96349 0.55925 0.0
C286 C 0.46636 0.95636 0.6179 0.0
C287 C 0.4525 0.94382 0.64817 0.0
C288 C 0.47685 0.9768 0.52704 0.0
C289 C 0.48211 0.9955 0.55314 0.0
C290 C 0.48479 0.97162 0.46949 0.0
C291 C 0.48032 0.95179 0.44046 0.0
C292 C 0.48446 0.9335 0.47097 0.0
C293 C 0.47987 0.91488 0.44378 0.0
C294 C 0.47125 0.91436 0.3859 0.0
C295 C 0.46727 0.93245 0.35501 0.0
C296 C 0.47183 0.95111 0.38202 0.0
C297 C 0.54392 0.04249 0.42368 0.0
C298 C 0.53991 0.04598 0.36204 0.0
C299 C 0.53234 0.02845 0.45648 0.0
C300 C 0.51585 0.01841 0.42906 0.0
C301 C 0.51207 0.02183 0.36706 0.0
C302 C 0.52415 0.03526 0.33372 0.0
C303 C 0.50247 0.00438 0.46443 0.0
C304 C 0.49747 0.98543 0.43908 0.0
C305 C 0.49455 0.00948 0.5224 0.0
C306 C 0.49825 0.02951 0.55124 0.0
C307 C 0.4932 0.04762 0.52099 0.0
C308 C 0.49728 0.06641 0.54789 0.0
C309 C 0.50615 0.06729 0.60538 0.0
C310 C 0.51085 0.04937 0.63625 0.0
C311 C 0.50693 0.03055 0.60941 0.0
H312 H 0.50933 0.08185 0.62611 0.0
H313 H 0.46769 0.89993 0.36495 0.0
H314 H 0.54491 0.46182 0.20306 0.0
H315 H 0.52173 0.48609 0.15603 0.0
H316 H 0.50924 0.44324 0.01291 0.0
H317 H 0.53224 0.41872 0.06013 0.0
H318 H 0.52121 0.50479 0.04797 0.0
H319 H 0.45979 0.44792 0.9697 0.0
H320 H 0.44604 0.4145 0.99925 0.0
H321 H 0.46424 0.42489 0.18362 0.0
H322 H 0.47784 0.45847 0.15534 0.0
H323 H 0.4235 0.52644 0.85593 0.0
H324 H 0.44851 0.50346 0.90003 0.0
H325 H 0.46214 0.54782 0.03806 0.0
H326 H 0.43726 0.57103 0.99375 0.0
H327 H 0.44968 0.48571 0.00678 0.0
H328 H 0.51095 0.5426 0.08505 0.0
H329 H 0.52472 0.57604 0.05576 0.0
H330 H 0.5068 0.56567 0.87112 0.0
H331 H 0.49317 0.53208 0.89916 0.0
C332 C 0.53729 0.45753 0.16148 0.0
C333 C 0.54036 0.43824 0.13563 0.0
C334 C 0.52406 0.47148 0.13455 0.0
C335 C 0.51353 0.46644 0.08134 0.0
C336 C 0.51692 0.44737 0.05454 0.0
C337 C 0.53015 0.43338 0.08149 0.0
C338 C 0.49882 0.48107 0.05444 0.0
C339 C 0.50551 0.50069 0.03958 0.0
C340 C 0.4784 0.47566 0.0425 0.0
C341 C 0.47002 0.45561 0.06021 0.0
C342 C 0.46078 0.44309 0.01658 0.0
C343 C 0.45303 0.42412 0.0331 0.0
C344 C 0.45433 0.41755 0.09323 0.0
C345 C 0.46332 0.42997 0.13701 0.0
C346 C 0.47107 0.44896 0.12075 0.0
C347 C 0.43189 0.53141 0.89544 0.0
C348 C 0.4284 0.55066 0.92109 0.0
C349 C 0.44616 0.51818 0.92077 0.0
C350 C 0.45733 0.52388 0.97226 0.0
C351 C 0.45394 0.54313 0.99788 0.0
C352 C 0.43967 0.55641 0.97248 0.0
C353 C 0.47211 0.50942 0.99969 0.0
C354 C 0.4654 0.48982 0.01494 0.0
C355 C 0.4925 0.51487 0.01194 0.0
C356 C 0.50087 0.53492 0.99438 0.0
C357 C 0.51002 0.54744 0.03817 0.0
C358 C 0.51779 0.56642 0.02179 0.0
C359 C 0.51658 0.573 0.96166 0.0
C360 C 0.50766 0.56059 0.91773 0.0
C361 C 0.49989 0.54159 0.93385 0.0
H362 H 0.52258 0.58771 0.94908 0.0
H363 H 0.44833 0.40285 0.10591 0.0
H364 H 0.90663 0.44583 0.47522 0.0
H365 H 0.9303 0.47064 0.5178 0.0
H366 H 0.9791 0.44426 0.41382 0.0
H367 H 0.95562 0.41932 0.37146 0.0
H368 H 0.9905 0.45048 0.52897 0.0
H369 H 0.95839 0.48955 0.37322 0.0
H370 H 0.92973 0.50433 0.31649 0.0
H371 H 0.91063 0.53667 0.47569 0.0
H372 H 0.93903 0.52184 0.53365 0.0
H373 H 0.0637 0.52787 0.57237 0.0
H374 H 0.03894 0.50548 0.52405 0.0
H375 H 0.99173 0.52961 0.63881 0.0
H376 H 0.01643 0.55208 0.68765 0.0
H377 H 0.97936 0.52491 0.5184 0.0
H378 H 0.01172 0.48542 0.67377 0.0
H379 H 0.04078 0.47083 0.72911 0.0
H380 H 0.05973 0.4393 0.5683 0.0
H381 H 0.03093 0.45397 0.5117 0.0
C382 C 0.92237 0.44536 0.46112 0.0
C383 C 0.92919 0.43057 0.41982 0.0
C384 C 0.93589 0.45962 0.48538 0.0
C385 C 0.95648 0.45943 0.46869 0.0
C386 C 0.9633 0.44471 0.4274 0.0
C387 C 0.94981 0.43049 0.40306 0.0
C388 C 0.97103 0.47423 0.49538 0.0
C389 C 0.98819 0.46675 0.52587 0.0
C390 C 0.96783 0.49548 0.49262 0.0
C391 C 0.95072 0.50441 0.45795 0.0
C392 C 0.94798 0.49967 0.39629 0.0
C393 C 0.9318 0.50808 0.36388 0.0
C394 C 0.91833 0.52139 0.39251 0.0
C395 C 0.92105 0.52634 0.45359 0.0
C396 C 0.9372 0.51794 0.48624 0.0
C397 C 0.04804 0.52854 0.58717 0.0
C398 C 0.04209 0.5417 0.63425 0.0
C399 C 0.0339 0.51568 0.55956 0.0
C400 C 0.01353 0.51571 0.57827 0.0
C401 C 0.00739 0.5293 0.62376 0.0
C402 C 0.02155 0.54209 0.65175 0.0
C403 C 0.9988 0.50112 0.55164 0.0
C404 C 0.98163 0.50863 0.52135 0.0
C405 C 0.00201 0.47988 0.55436 0.0
C406 C 0.01929 0.47097 0.58834 0.0
C407 C 0.02218 0.47552 0.65006 0.0
C408 C 0.03859 0.46721 0.68169 0.0
C409 C 0.05212 0.45419 0.6522 0.0
C410 C 0.04925 0.44941 0.59106 0.0
C411 C 0.03288 0.45771 0.55919 0.0
H412 H 0.06481 0.44776 0.67677 0.0
H413 H 0.90582 0.52789 0.36733 0.0
H414 H 0.93429 0.01643 0.21825 0.0
H415 H 0.9571 0.99224 0.16888 0.0
H416 H 0.97163 0.03692 0.03262 0.0
H417 H 0.94897 0.06127 0.08192 0.0
H418 H 0.95742 0.97565 0.05612 0.0
H419 H 0.02156 0.03161 0.99335 0.0
H420 H 0.03632 0.06377 0.03016 0.0
H421 H 0.0162 0.05019 0.21092 0.0
H422 H 0.00157 0.01784 0.17534 0.0
H423 H 0.05615 0.95374 0.86831 0.0
H424 H 0.03168 0.97699 0.91414 0.0
H425 H 0.01483 0.93084 0.04356 0.0
H426 H 0.03895 0.90731 0.99702 0.0
H427 H 0.02998 0.99274 0.02388 0.0
H428 H 0.96552 0.93684 0.08566 0.0
H429 H 0.9507 0.90477 0.04841 0.0
H430 H 0.97136 0.91831 0.86816 0.0
H431 H 0.98605 0.95057 0.90417 0.0
C432 C 0.94229 0.02113 0.17769 0.0
C433 C 0.93986 0.04086 0.15427 0.0
C434 C 0.95529 0.00724 0.14943 0.0
C435 C 0.96626 0.01282 0.09745 0.0
C436 C 0.96356 0.03236 0.07321 0.0
C437 C 0.95052 0.04625 0.10135 0.0
C438 C 0.98065 0.99824 0.06896 0.0
C439 C 0.97334 0.97928 0.04969 0.0
C440 C 0.00134 0.00312 0.05943 0.0
C441 C 0.01028 0.02242 0.0815 0.0
C442 C 0.02035 0.03547 0.04097 0.0
C443 C 0.02868 0.05373 0.06162 0.0
C444 C 0.02714 0.05905 0.1228 0.0
C445 C 0.01732 0.04609 0.1635 0.0
C446 C 0.00897 0.0278 0.1431 0.0
C447 C 0.04712 0.94844 0.90618 0.0
C448 C 0.04944 0.92858 0.92869 0.0
C449 C 0.03318 0.9618 0.93253 0.0
C450 C 0.02124 0.95566 0.98199 0.0
C451 C 0.02356 0.93585 0.00472 0.0
C452 C 0.03742 0.92241 0.97811 0.0
C453 C 0.00674 0.97015 0.01055 0.0
C454 C 0.01405 0.98909 0.03006 0.0
C455 C 0.98604 0.96526 0.02013 0.0
C456 C 0.97706 0.94601 0.9978 0.0
C457 C 0.96683 0.933 0.03804 0.0
C458 C 0.95847 0.91478 0.01715 0.0
C459 C 0.96015 0.90947 0.956 0.0
C460 C 0.97014 0.9224 0.91556 0.0
C461 C 0.97851 0.94064 0.93621 0.0
H462 H 0.95368 0.89536 0.93993 0.0
H463 H 0.03358 0.0732 0.13868 0.0
H464 H 0.59164 0.1655 0.28949 0.0
H465 H 0.58541 0.20176 0.27664 0.0
H466 H 0.52109 0.19185 0.29764 0.0
H467 H 0.52728 0.15524 0.31177 0.0
H468 H 0.53468 0.21778 0.19245 0.0
H469 H 0.54017 0.21248 0.40826 0.0
H470 H 0.55549 0.20105 0.50438 0.0
H471 H 0.61059 0.23266 0.46069 0.0
H472 H 0.59573 0.24401 0.36381 0.0
H473 H 0.52798 0.32772 0.18868 0.0
H474 H 0.522 0.29177 0.21305 0.0
H475 H 0.58579 0.28422 0.25157 0.0
H476 H 0.59168 0.31985 0.22903 0.0
H477 H 0.56469 0.26709 0.33693 0.0
H478 H 0.5625 0.26737 0.11706 0.0
H479 H 0.54937 0.27764 0.01691 0.0
H480 H 0.49034 0.25494 0.0642 0.0
H481 H 0.50308 0.24477 0.16498 0.0
C482 C 0.57615 0.17098 0.29153 0.0
C483 C 0.55994 0.15754 0.30177 0.0
C484 C 0.57262 0.19171 0.28425 0.0
C485 C 0.55281 0.19946 0.28635 0.0
C486 C 0.53649 0.18611 0.29592 0.0
C487 C 0.54005 0.16529 0.30426 0.0
C488 C 0.54959 0.22158 0.27852 0.0
C489 C 0.54077 0.22866 0.22461 0.0
C490 C 0.5579 0.23565 0.32005 0.0
C491 C 0.56686 0.22899 0.37855 0.0
C492 C 0.55561 0.21687 0.41891 0.0
C493 C 0.56421 0.21042 0.47359 0.0
C494 C 0.58401 0.2161 0.4886 0.0
C495 C 0.59525 0.22827 0.44901 0.0
C496 C 0.58674 0.23474 0.39424 0.0
C497 C 0.54068 0.31831 0.20214 0.0
C498 C 0.56028 0.32662 0.20705 0.0
C499 C 0.53727 0.29778 0.21595 0.0
C500 C 0.55346 0.28522 0.2341 0.0
C501 C 0.57301 0.29357 0.23822 0.0
C502 C 0.57637 0.31398 0.22505 0.0
C503 C 0.55045 0.26341 0.24961 0.0
C504 C 0.55813 0.25635 0.30519 0.0
C505 C 0.54133 0.24939 0.2092 0.0
C506 C 0.53367 0.25557 0.1488 0.0
C507 C 0.54668 0.26474 0.10628 0.0
C508 C 0.53932 0.27051 0.04938 0.0
C509 C 0.51901 0.26702 0.03428 0.0
C510 C 0.50604 0.25769 0.07601 0.0
C511 C 0.51333 0.25192 0.13302 0.0
H512 H 0.51334 0.27148 0.99019 0.0
H513 H 0.59064 0.2111 0.53094 0.0
H514 H 0.16184 0.54915 0.62137 0.0
H515 H 0.19785 0.54284 0.64109 0.0
H516 H 0.18548 0.54023 0.83344 0.0
H517 H 0.1497 0.54804 0.81336 0.0
H518 H 0.21607 0.56135 0.82165 0.0
H519 H 0.20022 0.49672 0.74005 0.0
H520 H 0.18615 0.4717 0.66832 0.0
H521 H 0.22572 0.49385 0.5284 0.0
H522 H 0.23985 0.51921 0.59904 0.0
H523 H 0.32051 0.53307 0.87154 0.0
H524 H 0.28408 0.52575 0.85897 0.0
H525 H 0.28443 0.55705 0.68725 0.0
H526 H 0.32046 0.56503 0.70063 0.0
H527 H 0.26039 0.51636 0.69893 0.0
H528 H 0.27104 0.58463 0.78558 0.0
H529 H 0.28578 0.60716 0.86332 0.0
H530 H 0.25546 0.5734 1.00321 0.0
H531 H 0.24084 0.55043 0.92621 0.0
C532 C 0.16687 0.54684 0.66765 0.0
C533 C 0.15319 0.54882 0.7159 0.0
C534 C 0.18743 0.54309 0.67903 0.0
C535 C 0.19453 0.54065 0.73885 0.0
C536 C 0.18052 0.54202 0.78692 0.0
C537 C 0.16008 0.54634 0.77555 0.0
C538 C 0.2167 0.53845 0.75144 0.0
C539 C 0.22555 0.5511 0.79555 0.0
C540 C 0.2294 0.52523 0.71753 0.0
C541 C 0.221 0.50997 0.6748 0.0
C542 C 0.20583 0.49635 0.69388 0.0
C543 C 0.19786 0.48209 0.65342 0.0
C544 C 0.20501 0.48121 0.59382 0.0
C545 C 0.22019 0.49456 0.57459 0.0
C546 C 0.22821 0.50886 0.61485 0.0
C547 C 0.31285 0.53798 0.83063 0.0
C548 C 0.32315 0.54966 0.78712 0.0
C549 C 0.29211 0.53382 0.82352 0.0
C550 C 0.28166 0.54085 0.77212 0.0
C551 C 0.29228 0.55141 0.72698 0.0
C552 C 0.31279 0.55603 0.73483 0.0
C553 C 0.25929 0.53932 0.76806 0.0
C554 C 0.25058 0.52614 0.72554 0.0
C555 C 0.24662 0.55164 0.80428 0.0
C556 C 0.25507 0.56569 0.85029 0.0
C557 C 0.26767 0.58191 0.83296 0.0
C558 C 0.27598 0.59477 0.87686 0.0
C559 C 0.27162 0.59167 0.93819 0.0
C560 C 0.25887 0.57575 0.9557 0.0
C561 C 0.25057 0.56281 0.91196 0.0
H562 H 0.27807 0.60164 0.97212 0.0
H563 H 0.19881 0.47016 0.56256 0.0
H564 H 0.94153 0.15591 0.14731 0.0
H565 H 0.94595 0.19264 0.16099 0.0
H566 H 0.90876 0.19023 0.32223 0.0
H567 H 0.90343 0.15399 0.30644 0.0
H568 H 0.89652 0.21935 0.26153 0.0
H569 H 0.963 0.1984 0.32129 0.0
H570 H 0.99602 0.18106 0.31157 0.0
H571 H 0.00995 0.21671 0.1539 0.0
H572 H 0.97688 0.23409 0.16221 0.0
H573 H 0.94621 0.32115 0.35083 0.0
H574 H 0.95072 0.28443 0.33588 0.0
H575 H 0.90735 0.28589 0.18933 0.0
H576 H 0.90229 0.32219 0.2056 0.0
H577 H 0.96129 0.25756 0.24874 0.0
H578 H 0.87523 0.24711 0.20093 0.0
H579 H 0.84293 0.26438 0.22445 0.0
H580 H 0.86942 0.29028 0.38466 0.0
H581 H 0.90174 0.27288 0.3627 0.0
C582 C 0.93452 0.16328 0.18592 0.0
C583 C 0.92204 0.15222 0.2256 0.0
C584 C 0.93712 0.18425 0.19398 0.0
C585 C 0.92777 0.19434 0.24291 0.0
C586 C 0.91599 0.18297 0.28379 0.0
C587 C 0.91298 0.16222 0.27486 0.0
C588 C 0.92894 0.21685 0.24971 0.0
C589 C 0.91076 0.22758 0.25884 0.0
C590 C 0.94747 0.2278 0.24714 0.0
C591 C 0.96738 0.21741 0.24205 0.0
C592 C 0.97304 0.20244 0.28428 0.0
C593 C 0.99178 0.19262 0.27907 0.0
C594 C 0.00505 0.19775 0.23206 0.0
C595 C 0.99964 0.21274 0.19025 0.0
C596 C 0.98091 0.22259 0.19522 0.0
C597 C 0.93796 0.31363 0.31477 0.0
C598 C 0.92367 0.32437 0.28 0.0
C599 C 0.94056 0.29269 0.30618 0.0
C600 C 0.92903 0.28232 0.26235 0.0
C601 C 0.91606 0.29346 0.22434 0.0
C602 C 0.91319 0.3142 0.23363 0.0
C603 C 0.9289 0.25976 0.25997 0.0
C604 C 0.94717 0.24914 0.25152 0.0
C605 C 0.91054 0.24873 0.26536 0.0
C606 C 0.89096 0.25884 0.27979 0.0
C607 C 0.87412 0.25639 0.24135 0.0
C608 C 0.85581 0.26622 0.2544 0.0
C609 C 0.85414 0.27847 0.30592 0.0
C610 C 0.87074 0.28083 0.34469 0.0
C611 C 0.88906 0.27099 0.33196 0.0
H612 H 0.83997 0.2861 0.31584 0.0
H613 H 0.01955 0.19013 0.22811 0.0
H614 H 0.32337 0.95284 0.64252 0.0
H615 H 0.28751 0.96139 0.66063 0.0
H616 H 0.28034 0.90642 0.76475 0.0
H617 H 0.3158 0.89785 0.74708 0.0
H618 H 0.25262 0.9398 0.63017 0.0
H619 H 0.24983 0.91517 0.88325 0.0
H620 H 0.27249 0.91506 0.97222 0.0
H621 H 0.306 0.96515 0.89791 0.0
H622 H 0.28334 0.96578 0.80895 0.0
H623 H 0.16016 0.8995 0.72634 0.0
H624 H 0.19526 0.90806 0.70327 0.0
H625 H 0.19015 0.96256 0.81068 0.0
H626 H 0.15467 0.95395 0.83441 0.0
H627 H 0.22417 0.94063 0.83866 0.0
H628 H 0.19413 0.96695 0.65975 0.0
H629 H 0.17127 0.96673 0.57125 0.0
H630 H 0.20323 0.91558 0.49735 0.0
H631 H 0.22611 0.91528 0.58584 0.0
C632 C 0.31413 0.94266 0.66946 0.0
C633 C 0.32241 0.92469 0.69344 0.0
C634 C 0.29367 0.94754 0.67964 0.0
C635 C 0.28134 0.93467 0.71466 0.0
C636 C 0.28964 0.91674 0.73842 0.0
C637 C 0.30993 0.91181 0.72798 0.0
C638 C 0.25959 0.93934 0.72553 0.0
C639 C 0.24639 0.94026 0.67569 0.0
C640 C 0.25153 0.94037 0.785 0.0
C641 C 0.26491 0.94045 0.83923 0.0
C642 C 0.26192 0.92627 0.88609 0.0
C643 C 0.2748 0.92609 0.93649 0.0
C644 C 0.2907 0.94006 0.94067 0.0
C645 C 0.29371 0.9543 0.89456 0.0
C646 C 0.28086 0.95456 0.84411 0.0
C647 C 0.16639 0.91342 0.7447 0.0
C648 C 0.15467 0.92604 0.78232 0.0
C649 C 0.18646 0.91837 0.7311 0.0
C650 C 0.19529 0.93606 0.75468 0.0
C651 C 0.18358 0.94889 0.79174 0.0
C652 C 0.16333 0.944 0.80509 0.0
C653 C 0.21714 0.94014 0.74332 0.0
C654 C 0.23038 0.94075 0.7931 0.0
C655 C 0.22522 0.94067 0.6838 0.0
C656 C 0.21182 0.94107 0.62963 0.0
C657 C 0.19624 0.9556 0.62476 0.0
C658 C 0.18328 0.95557 0.57458 0.0
C659 C 0.18578 0.94114 0.52873 0.0
C660 C 0.20132 0.92676 0.53287 0.0
C661 C 0.21432 0.92671 0.58299 0.0
H662 H 0.1757 0.94111 0.48999 0.0
H663 H 0.30068 0.93987 0.97965 0.0
H664 H 0.38236 0.81188 0.71085 0.0
H665 H 0.39214 0.77649 0.72239 0.0
H666 H 0.45483 0.79229 0.69271 0.0
H667 H 0.44528 0.82833 0.68372 0.0
H668 H 0.42785 0.75273 0.62509 0.0
H669 H 0.45794 0.78212 0.80839 0.0
H670 H 0.45682 0.8055 0.89574 0.0
H671 H 0.40189 0.77727 0.95813 0.0
H672 H 0.40253 0.75393 0.87059 0.0
H673 H 0.43793 0.64815 0.7111 0.0
H674 H 0.44817 0.68371 0.69659 0.0
H675 H 0.39972 0.70295 0.81525 0.0
H676 H 0.39019 0.66779 0.83202 0.0
H677 H 0.43047 0.7258 0.83508 0.0
H678 H 0.39578 0.70157 0.65421 0.0
H679 H 0.3914 0.6793 0.56519 0.0
H680 H 0.44944 0.69811 0.49647 0.0
H681 H 0.45425 0.72033 0.58555 0.0
C682 C 0.3983 0.80803 0.70753 0.0
C683 C 0.41309 0.82313 0.69779 0.0
C684 C 0.40381 0.7877 0.71344 0.0
C685 C 0.42417 0.78186 0.70884 0.0
C686 C 0.43901 0.7966 0.69654 0.0
C687 C 0.43352 0.81713 0.69126 0.0
C688 C 0.42945 0.76032 0.71981 0.0
C689 C 0.42916 0.74677 0.67081 0.0
C690 C 0.43045 0.75265 0.77953 0.0
C691 C 0.43022 0.7664 0.83275 0.0
C692 C 0.44555 0.78101 0.84049 0.0
C693 C 0.44501 0.79424 0.89008 0.0
C694 C 0.42927 0.7929 0.9324 0.0
C695 C 0.41407 0.7783 0.92531 0.0
C696 C 0.41453 0.76505 0.87577 0.0
C697 C 0.42977 0.65997 0.73497 0.0
C698 C 0.41301 0.65515 0.77186 0.0
C699 C 0.43552 0.68031 0.72625 0.0
C700 C 0.42451 0.69612 0.75397 0.0
C701 C 0.40847 0.69114 0.79313 0.0
C702 C 0.40286 0.67097 0.80216 0.0
C703 C 0.42852 0.71792 0.74031 0.0
C704 C 0.4302 0.73159 0.78902 0.0
C705 C 0.42839 0.72566 0.68027 0.0
C706 C 0.42549 0.71237 0.62682 0.0
C707 C 0.40767 0.70083 0.6203 0.0
C708 C 0.4051 0.68825 0.56983 0.0
C709 C 0.42017 0.68724 0.52531 0.0
C710 C 0.43781 0.69887 0.53108 0.0
C711 C 0.44047 0.71145 0.58153 0.0
H712 H 0.41815 0.67749 0.48626 0.0
H713 H 0.42887 0.80316 0.97073 0.0
H714 H 0.8287 0.4263 0.18878 0.0
H715 H 0.79283 0.43442 0.17028 0.0
H716 H 0.77953 0.42336 0.35913 0.0
H717 H 0.81511 0.4147 0.37694 0.0
H718 H 0.75566 0.40172 0.2916 0.0
H719 H 0.77644 0.47166 0.29187 0.0
H720 H 0.79664 0.50129 0.25978 0.0
H721 H 0.77501 0.49434 0.07728 0.0
H722 H 0.75488 0.46448 0.10812 0.0
H723 H 0.65416 0.42744 0.30898 0.0
H724 H 0.69058 0.43365 0.31877 0.0
H725 H 0.69704 0.43152 0.12432 0.0
H726 H 0.66049 0.4251 0.11413 0.0
H727 H 0.72416 0.4607 0.18787 0.0
H728 H 0.70429 0.39022 0.18837 0.0
H729 H 0.68342 0.36121 0.22171 0.0
H730 H 0.70382 0.3697 0.40489 0.0
H731 H 0.72452 0.39903 0.37278 0.0
C732 C 0.81816 0.42622 0.22649 0.0
C733 C 0.82456 0.4199 0.28423 0.0
C734 C 0.79767 0.43084 0.21597 0.0
C735 C 0.7834 0.42947 0.26331 0.0
C736 C 0.79017 0.42441 0.32179 0.0
C737 C 0.8105 0.41957 0.33206 0.0
C738 C 0.76121 0.43105 0.25131 0.0
C739 C 0.74884 0.41481 0.26973 0.0
C740 C 0.75225 0.44775 0.22082 0.0
C741 C 0.76432 0.4657 0.20219 0.0
C742 C 0.77613 0.47634 0.24478 0.0
C743 C 0.78753 0.4932 0.22684 0.0
C744 C 0.78715 0.49966 0.16649 0.0
C745 C 0.77531 0.4893 0.12399 0.0
C746 C 0.76389 0.47242 0.14169 0.0
C747 C 0.66325 0.42874 0.2682 0.0
C748 C 0.65452 0.42548 0.21084 0.0
C749 C 0.68403 0.43238 0.27386 0.0
C750 C 0.69651 0.43278 0.22231 0.0
C751 C 0.68763 0.43131 0.16462 0.0
C752 C 0.66675 0.42766 0.15889 0.0
C753 C 0.71887 0.43166 0.22969 0.0
C754 C 0.73116 0.44775 0.20993 0.0
C755 C 0.72789 0.41484 0.25904 0.0
C756 C 0.7158 0.39694 0.27826 0.0
C757 C 0.7042 0.386 0.23583 0.0
C758 C 0.69242 0.36949 0.2545 0.0
C759 C 0.69226 0.36365 0.31541 0.0
C760 C 0.70394 0.37426 0.35774 0.0
C761 C 0.71571 0.39083 0.33933 0.0
H762 H 0.68312 0.35086 0.32978 0.0
H763 H 0.796 0.51272 0.15269 0.0
H764 H 0.05171 0.83107 0.69568 0.0
H765 H 0.04326 0.7958 0.66942 0.0
H766 H 0.06512 0.77606 0.84416 0.0
H767 H 0.07333 0.8111 0.87056 0.0
H768 H 0.07021 0.7657 0.65785 0.0
H769 H 0.04157 0.73372 0.88945 0.0
H770 H 0.02003 0.7448 0.9747 0.0
H771 H 0.98907 0.78672 0.85773 0.0
H772 H 0.01021 0.77569 0.77153 0.0
H773 H 0.09992 0.66585 0.71203 0.0
H774 H 0.09171 0.70187 0.71628 0.0
H775 H 0.028 0.68783 0.69943 0.0
H776 H 0.03616 0.65139 0.69637 0.0
H777 H 0.03489 0.71559 0.78868 0.0
H778 H 0.0523 0.70879 0.58098 0.0
H779 H 0.07269 0.6978 0.49312 0.0
H780 H 0.12285 0.73382 0.55536 0.0
H781 H 0.10288 0.74481 0.6441 0.0
C782 C 0.05415 0.81923 0.729 0.0
C783 C 0.06321 0.82378 0.78508 0.0
C784 C 0.04946 0.7991 0.71384 0.0
C785 C 0.05346 0.78326 0.7549 0.0
C786 C 0.0616 0.78799 0.81202 0.0
C787 C 0.06641 0.80801 0.82695 0.0
C788 C 0.05126 0.76165 0.73652 0.0
C789 C 0.06227 0.75478 0.68602 0.0
C790 C 0.04055 0.7474 0.77251 0.0
C791 C 0.02758 0.75393 0.82404 0.0
C792 C 0.03008 0.7452 0.88178 0.0
C793 C 0.01796 0.7515 0.93031 0.0
C794 C 0.00322 0.76648 0.92166 0.0
C795 C 1.00053 0.77516 0.86441 0.0
C796 C 0.01261 0.76891 0.81571 0.0
C797 C 0.08413 0.67036 0.70951 0.0
C798 C 0.06866 0.65573 0.70445 0.0
C799 C 0.07947 0.69101 0.71127 0.0
C800 C 0.05925 0.6976 0.70754 0.0
C801 C 0.04371 0.68308 0.70212 0.0
C802 C 0.04839 0.66231 0.70008 0.0
C803 C 0.05463 0.71965 0.71178 0.0
C804 C 0.04242 0.72656 0.75972 0.0
C805 C 0.06404 0.73398 0.67301 0.0
C806 C 0.07609 0.72756 0.61938 0.0
C807 C 0.06772 0.71428 0.57614 0.0
C808 C 0.0792 0.70806 0.52614 0.0
C809 C 0.09905 0.71509 0.51869 0.0
C810 C 0.10746 0.7284 0.56117 0.0
C811 C 0.09605 0.73466 0.61128 0.0
H812 H 0.10792 0.71025 0.47997 0.0
H813 H 0.99386 0.77134 0.95931 0.0
H814 H 0.82354 0.05587 0.32918 0.0
H815 H 0.78705 0.04936 0.33373 0.0
H816 H 0.78446 0.0482 0.13829 0.0
H817 H 0.8209 0.05526 0.13344 0.0
H818 H 0.75714 0.07385 0.18417 0.0
H819 H 0.77621 0.00498 0.22288 0.0
H820 H 0.79463 0.97725 0.27402 0.0
H821 H 0.76682 0.99334 0.44348 0.0
H822 H 0.74844 0.02136 0.39354 0.0
H823 H 0.65255 0.05698 0.17536 0.0
H824 H 0.68863 0.04915 0.16318 0.0
H825 H 0.69627 0.05035 0.35746 0.0
H826 H 0.66003 0.05773 0.36982 0.0
H827 H 0.7209 0.0221 0.3068 0.0
H828 H 0.70513 0.09248 0.27297 0.0
H829 H 0.68699 0.1211 0.2254 0.0
H830 H 0.70942 0.10316 0.05054 0.0
H831 H 0.72745 0.07423 0.09702 0.0
C832 C 0.81525 0.05393 0.28716 0.0
C833 C 0.82512 0.05618 0.23094 0.0
C834 C 0.7944 0.05004 0.28983 0.0
C835 C 0.78299 0.0482 0.23635 0.0
C836 C 0.79296 0.04952 0.18016 0.0
C837 C 0.81384 0.05338 0.17745 0.0
C838 C 0.76045 0.04701 0.23913 0.0
C839 C 0.74922 0.06224 0.20987 0.0
C840 C 0.75011 0.03229 0.27437 0.0
C841 C 0.76106 0.01538 0.30451 0.0
C842 C 0.77413 0.00271 0.27114 0.0
C843 C 0.78455 0.98692 0.2999 0.0
C844 C 0.78193 0.98356 0.36198 0.0
C845 C 0.76884 0.99597 0.3954 0.0
C846 C 0.7584 0.01179 0.36687 0.0
C847 C 0.66186 0.05514 0.21547 0.0
C848 C 0.65355 0.05813 0.2735 0.0
C849 C 0.68247 0.05072 0.2085 0.0
C850 C 0.69527 0.04962 0.25935 0.0
C851 C 0.68672 0.05118 0.31755 0.0
C852 C 0.66601 0.05537 0.3246 0.0
C853 C 0.71769 0.04887 0.2516 0.0
C854 C 0.72886 0.03346 0.2803 0.0
C855 C 0.72809 0.06354 0.21632 0.0
C856 C 0.71746 0.08107 0.18838 0.0
C857 C 0.70608 0.09456 0.22432 0.0
C858 C 0.69583 0.11084 0.19757 0.0
C859 C 0.697 0.11391 0.13497 0.0
C860 C 0.70849 0.10074 0.09902 0.0
C861 C 0.71874 0.0844 0.12553 0.0
H862 H 0.68905 0.12652 0.11433 0.0
H863 H 0.79 0.97133 0.38416 0.0
H864 H 0.61236 0.09863 0.58697 0.0
H865 H 0.60496 0.0959 0.69537 0.0
H866 H 0.5424 0.11142 0.66132 0.0
H867 H 0.54974 0.11427 0.55256 0.0
H868 H 0.55996 0.13304 0.7592 0.0
H869 H 0.55218 0.06517 0.69057 0.0
H870 H 0.56145 0.03349 0.63795 0.0
H871 H 0.61321 0.02658 0.75456 0.0
H872 H 0.60433 0.05838 0.80748 0.0
H873 H 0.52455 0.10758 0.05402 0.0
H874 H 0.52917 0.1089 0.94427 0.0
H875 H 0.59101 0.08857 0.96482 0.0
H876 H 0.58632 0.08662 0.07473 0.0
H877 H 0.57215 0.06903 0.87226 0.0
H878 H 0.5803 0.1383 0.93765 0.0
H879 H 0.57028 0.16989 0.98971 0.0
H880 H 0.51706 0.17404 0.878 0.0
H881 H 0.52663 0.14231 0.82581 0.0
C882 C 0.59706 0.1016 0.60254 0.0
C883 C 0.58165 0.10672 0.56116 0.0
C884 C 0.59283 0.09989 0.66445 0.0
C885 C 0.57313 0.1034 0.68634 0.0
C886 C 0.55771 0.10867 0.64532 0.0
C887 C 0.56189 0.11015 0.58321 0.0
C888 C 0.56878 0.10166 0.75221 0.0
C889 C 0.56232 0.11897 0.78383 0.0
C890 C 0.57222 0.08339 0.78438 0.0
C891 C 0.57767 0.06426 0.75267 0.0
C892 C 0.56562 0.05698 0.70471 0.0
C893 C 0.57078 0.03898 0.67488 0.0
C894 C 0.58794 0.02805 0.6928 0.0
C895 C 0.59993 0.03508 0.74069 0.0
C896 C 0.59482 0.05308 0.77068 0.0
C897 C 0.53908 0.10319 0.03533 0.0
C898 C 0.55508 0.09704 0.07346 0.0
C899 C 0.54176 0.10414 0.97248 0.0
C900 C 0.56051 0.09906 0.94627 0.0
C901 C 0.57643 0.09263 0.98402 0.0
C902 C 0.57377 0.0917 0.04694 0.0
C903 C 0.56354 0.10049 0.87954 0.0
C904 C 0.56975 0.0831 0.84768 0.0
C905 C 0.55981 0.11869 0.84711 0.0
C906 C 0.55408 0.13782 0.87825 0.0
C907 C 0.56638 0.14586 0.92451 0.0
C908 C 0.56079 0.16381 0.95399 0.0
C909 C 0.54301 0.17394 0.93729 0.0
C910 C 0.53081 0.16617 0.89095 0.0
C911 C 0.53631 0.14821 0.86138 0.0
H912 H 0.53871 0.18783 0.96016 0.0
H913 H 0.59193 0.01411 0.66967 0.0
H914 H 0.38028 0.58947 0.57527 0.0
H915 H 0.37563 0.59311 0.46574 0.0
H916 H 0.38334 0.52852 0.44328 0.0
H917 H 0.3879 0.52476 0.5524 0.0
H918 H 0.40393 0.54836 0.35777 0.0
H919 H 0.33638 0.55028 0.43696 0.0
H920 H 0.30857 0.56213 0.50294 0.0
H921 H 0.31359 0.62203 0.42747 0.0
H922 H 0.34166 0.6106 0.36165 0.0
H923 H 0.3671 0.54487 0.05244 0.0
H924 H 0.37145 0.53926 0.16147 0.0
H925 H 0.36399 0.60343 0.19369 0.0
H926 H 0.3596 0.6091 0.08538 0.0
H927 H 0.34289 0.58242 0.27414 0.0
H928 H 0.41116 0.57944 0.19393 0.0
H929 H 0.43832 0.56634 0.12753 0.0
H930 H 0.43117 0.50687 0.2044 0.0
H931 H 0.40373 0.51954 0.27055 0.0
C932 C 0.38084 0.57602 0.54716 0.0
C933 C 0.38447 0.55682 0.57301 0.0
C934 C 0.37821 0.57812 0.48442 0.0
C935 C 0.37896 0.56106 0.44613 0.0
C936 C 0.38278 0.54193 0.47171 0.0
C937 C 0.38544 0.53982 0.53433 0.0
C938 C 0.37564 0.56309 0.37951 0.0
C939 C 0.39046 0.55559 0.33946 0.0
C940 C 0.35819 0.57271 0.35544 0.0
C941 C 0.34127 0.57963 0.39481 0.0
C942 C 0.33167 0.56602 0.43477 0.0
C943 C 0.31584 0.57265 0.47209 0.0
C944 C 0.30935 0.59283 0.46951 0.0
C945 C 0.31865 0.60641 0.42949 0.0
C946 C 0.33451 0.59986 0.39213 0.0
C947 C 0.36647 0.55779 0.08268 0.0
C948 C 0.36293 0.57744 0.05988 0.0
C949 C 0.36897 0.55457 0.14509 0.0
C950 C 0.36825 0.57096 0.18593 0.0
C951 C 0.36454 0.59052 0.16328 0.0
C952 C 0.36194 0.59373 0.10113 0.0
C953 C 0.37129 0.56792 0.25231 0.0
C954 C 0.35637 0.57519 0.29239 0.0
C955 C 0.38859 0.55796 0.27627 0.0
C956 C 0.40523 0.5504 0.2368 0.0
C957 C 0.41527 0.56354 0.19637 0.0
C958 C 0.43073 0.55619 0.15879 0.0
C959 C 0.43643 0.53578 0.16166 0.0
C960 C 0.42671 0.52268 0.20217 0.0
C961 C 0.41121 0.52993 0.23972 0.0
H962 H 0.44842 0.5301 0.13268 0.0
H963 H 0.29709 0.59794 0.49842 0.0
H964 H 0.90243 0.35832 0.08551 0.0
H965 H 0.89878 0.35343 0.97595 0.0
H966 H 0.92428 0.41281 0.9444 0.0
H967 H 0.92776 0.41786 0.05395 0.0
H968 H 0.89063 0.40485 0.87202 0.0
H969 H 0.95356 0.37268 0.92726 0.0
H970 H 0.97522 0.34931 0.98592 0.0
H971 H 0.94007 0.29856 0.92343 0.0
H972 H 0.91799 0.32168 0.86505 0.0
H973 H 0.91203 0.39517 0.55957 0.0
H974 H 0.91571 0.40015 0.66855 0.0
H975 H 0.89651 0.33842 0.7 0.0
H976 H 0.89372 0.33299 0.59092 0.0
H977 H 0.92678 0.3476 0.77315 0.0
H978 H 0.86376 0.37906 0.71838 0.0
H979 H 0.8414 0.40202 0.66058 0.0
H980 H 0.87557 0.45347 0.72289 0.0
H981 H 0.89832 0.43078 0.78044 0.0
C982 C 0.90699 0.37044 0.05527 0.0
C983 C 0.91545 0.38845 0.07829 0.0
C984 C 0.90505 0.36756 0.99271 0.0
C985 C 0.91147 0.38268 0.95209 0.0
C986 C 0.91931 0.40093 0.97498 0.0
C987 C 0.92141 0.40374 0.03748 0.0
C988 C 0.91047 0.37928 0.88567 0.0
C989 C 0.89872 0.39249 0.85022 0.0
C990 C 0.92066 0.36287 0.85757 0.0
C991 C 0.934 0.34893 0.89229 0.0
C992 C 0.95034 0.35655 0.92642 0.0
C993 C 0.96272 0.34335 0.95955 0.0
C994 C 0.95899 0.32247 0.95854 0.0
C995 C 0.94292 0.31474 0.92424 0.0
C996 C 0.93048 0.32788 0.89109 0.0
C997 C 0.9089 0.38251 0.58941 0.0
C998 C 0.90246 0.36368 0.56611 0.0
C999 C 0.91078 0.38548 0.65193 0.0
C1000 C 0.90601 0.36978 0.69261 0.0
C1001 C 0.90014 0.35081 0.66954 0.0
C1002 C 0.89838 0.34779 0.60703 0.0
C1003 C 0.9069 0.37317 0.7592 0.0
C1004 C 0.91865 0.35996 0.7948 0.0
C1005 C 0.89659 0.38951 0.78748 0.0
C1006 C 0.88286 0.40321 0.75323 0.0
C1007 C 0.8666 0.39526 0.71941 0.0
C1008 C 0.85384 0.40823 0.68674 0.0
C1009 C 0.8571 0.42919 0.68793 0.0
C1010 C 0.87309 0.43723 0.72194 0.0
C1011 C 0.88591 0.42433 0.75463 0.0
H1012 H 0.84721 0.4392 0.66261 0.0
H1013 H 0.96859 0.31227 0.98422 0.0
H1014 H 0.08388 0.9072 0.06558 0.0
H1015 H 0.07879 0.91076 0.17481 0.0
H1016 H 0.1435 0.90677 0.20297 0.0
H1017 H 0.14859 0.90276 0.09366 0.0
H1018 H 0.12438 0.88341 0.28087 0.0
H1019 H 0.11617 0.95284 0.21401 0.0
H1020 H 0.10118 0.98 0.15133 0.0
H1021 H 0.04202 0.96602 0.22166 0.0
H1022 H 0.05663 0.93862 0.28429 0.0
H1023 H 0.12424 0.91221 0.59079 0.0
H1024 H 0.12988 0.90998 0.48125 0.0
H1025 H 0.06556 0.91746 0.4506 0.0
H1026 H 0.06014 0.92058 0.56009 0.0
H1027 H 0.08466 0.93937 0.37352 0.0
H1028 H 0.09137 0.86997 0.43722 0.0
H1029 H 0.10495 0.84162 0.49802 0.0
H1030 H 0.16502 0.85411 0.4321 0.0
H1031 H 0.15183 0.8827 0.37146 0.0
C1032 C 0.09703 0.90736 0.09501 0.0
C1033 C 0.11665 0.90476 0.07108 0.0
C1034 C 0.09411 0.90941 0.15747 0.0
C1035 C 0.11079 0.90931 0.19718 0.0
C1036 C 0.13041 0.90689 0.17327 0.0
C1037 C 0.13331 0.90459 0.11085 0.0
C1038 C 0.10775 0.91099 0.26379 0.0
C1039 C 0.11596 0.89582 0.30122 0.0
C1040 C 0.0962 0.92682 0.29024 0.0
C1041 C 0.08748 0.94358 0.25351 0.0
C1042 C 0.09995 0.9555 0.21591 0.0
C1043 C 0.09152 0.97094 0.18041 0.0
C1044 C 0.07065 0.9747 0.18241 0.0
C1045 C 0.05818 0.96309 0.22014 0.0
C1046 C 0.06653 0.94762 0.25572 0.0
C1047 C 0.11134 0.91315 0.56053 0.0
C1048 C 0.09175 0.91644 0.58366 0.0
C1049 C 0.11453 0.91185 0.49796 0.0
C1050 C 0.0981 0.91323 0.45743 0.0
C1051 C 0.07849 0.91638 0.48076 0.0
C1052 C 0.07538 0.9181 0.54322 0.0
C1053 C 0.10132 0.91178 0.39075 0.0
C1054 C 0.09313 0.92698 0.35327 0.0
C1055 C 0.11269 0.89585 0.36412 0.0
C1056 C 0.12064 0.87858 0.40023 0.0
C1057 C 0.10749 0.86674 0.43599 0.0
C1058 C 0.11512 0.85062 0.47038 0.0
C1059 C 0.13584 0.8461 0.46903 0.0
C1060 C 0.14897 0.85765 0.43315 0.0
C1061 C 0.14143 0.87379 0.39871 0.0
H1062 H 0.14171 0.83361 0.4957 0.0
H1063 H 0.06415 0.98664 0.1548 0.0
H1064 H 0.58061 0.36483 0.41912 0.0
H1065 H 0.58501 0.36192 0.52867 0.0
H1066 H 0.53706 0.40553 0.55668 0.0
H1067 H 0.53302 0.40902 0.44695 0.0
H1068 H 0.56905 0.41319 0.62935 0.0
H1069 H 0.52866 0.35503 0.57759 0.0
H1070 H 0.52029 0.32384 0.52104 0.0
H1071 H 0.57491 0.2956 0.58569 0.0
H1072 H 0.58376 0.32675 0.64198 0.0
H1073 H 0.55719 0.39601 0.94435 0.0
H1074 H 0.55056 0.39826 0.83573 0.0
H1075 H 0.59668 0.35317 0.80176 0.0
H1076 H 0.60278 0.35015 0.91045 0.0
H1077 H 0.56466 0.34633 0.73219 0.0
H1078 H 0.60576 0.40437 0.7809 0.0
H1079 H 0.61482 0.43555 0.83654 0.0
H1080 H 0.55966 0.46395 0.77681 0.0
H1081 H 0.55014 0.43282 0.72144 0.0
C1082 C 0.57114 0.37398 0.44841 0.0
C1083 C 0.55643 0.38716 0.42409 0.0
C1084 C 0.57353 0.37213 0.51115 0.0
C1085 C 0.56119 0.38332 0.55091 0.0
C1086 C 0.54668 0.39668 0.52685 0.0
C1087 C 0.54428 0.39853 0.46411 0.0
C1088 C 0.56352 0.38121 0.61759 0.0
C1089 C 0.56779 0.39862 0.65198 0.0
C1090 C 0.56234 0.36212 0.64691 0.0
C1091 C 0.55696 0.3433 0.61356 0.0
C1092 C 0.53896 0.34222 0.57941 0.0
C1093 C 0.53412 0.32454 0.54745 0.0
C1094 C 0.54708 0.30777 0.54964 0.0
C1095 C 0.56489 0.30862 0.58397 0.0
C1096 C 0.56981 0.32627 0.61596 0.0
C1097 C 0.56575 0.38635 0.91403 0.0
C1098 C 0.58064 0.37298 0.93646 0.0
C1099 C 0.56208 0.38782 0.85173 0.0
C1100 C 0.57336 0.37613 0.81043 0.0
C1101 C 0.58787 0.36243 0.8327 0.0
C1102 C 0.59148 0.36088 0.89496 0.0
C1103 C 0.57025 0.37831 0.74399 0.0
C1104 C 0.56585 0.36092 0.70962 0.0
C1105 C 0.57139 0.39741 0.71462 0.0
C1106 C 0.57714 0.41619 0.74754 0.0
C1107 C 0.5955 0.41721 0.77999 0.0
C1108 C 0.60072 0.43489 0.81142 0.0
C1109 C 0.5878 0.45171 0.81035 0.0
C1110 C 0.56964 0.4509 0.77767 0.0
C1111 C 0.56433 0.43325 0.74622 0.0
H1112 H 0.59187 0.46538 0.83472 0.0
H1113 H 0.54332 0.29409 0.52484 0.0
H1114 H 0.0663 0.53582 0.9541 0.0
H1115 H 0.0704 0.53985 0.06367 0.0
H1116 H 0.12372 0.57654 0.03402 0.0
H1117 H 0.11997 0.57217 0.92444 0.0
H1118 H 0.12964 0.5488 0.12385 0.0
H1119 H 0.07931 0.59858 0.07201 0.0
H1120 H 0.04735 0.61098 0.0271 0.0
H1121 H 0.01325 0.57114 0.14282 0.0
H1122 H 0.04504 0.55827 0.18785 0.0
H1123 H 0.13814 0.59196 0.41761 0.0
H1124 H 0.13428 0.58636 0.30879 0.0
H1125 H 0.07999 0.55145 0.34163 0.0
H1126 H 0.08338 0.55753 0.45049 0.0
H1127 H 0.07441 0.57768 0.2503 0.0
H1128 H 0.12457 0.52821 0.30345 0.0
H1129 H 0.15646 0.51569 0.34848 0.0
H1130 H 0.1908 0.55461 0.23062 0.0
H1131 H 0.15909 0.56759 0.18545 0.0
C1132 C 0.07897 0.54463 0.97089 0.0
C1133 C 0.09274 0.55375 0.93042 0.0
C1134 C 0.08121 0.54706 0.03353 0.0
C1135 C 0.09725 0.55868 0.05706 0.0
C1136 C 0.11118 0.56758 0.01687 0.0
C1137 C 0.1089 0.56522 0.95419 0.0
C1138 C 0.09952 0.5615 0.12359 0.0
C1139 C 0.11767 0.55536 0.15142 0.0
C1140 C 0.0837 0.56958 0.15978 0.0
C1141 C 0.06457 0.57731 0.13285 0.0
C1142 C 0.065 0.59233 0.08752 0.0
C1143 C 0.04692 0.59947 0.06211 0.0
C1144 C 0.02829 0.59181 0.08197 0.0
C1145 C 0.0277 0.57703 0.12741 0.0
C1146 C 0.04575 0.56982 0.15292 0.0
C1147 C 0.12531 0.58317 0.40179 0.0
C1148 C 0.11108 0.5752 0.44302 0.0
C1149 C 0.12324 0.57981 0.3395 0.0
C1150 C 0.10696 0.5683 0.31699 0.0
C1151 C 0.09271 0.56032 0.35794 0.0
C1152 C 0.09478 0.56366 0.42029 0.0
C1153 C 0.10455 0.565 0.25066 0.0
C1154 C 0.08637 0.57107 0.22282 0.0
C1155 C 0.12033 0.55682 0.21449 0.0
C1156 C 0.13944 0.54902 0.24148 0.0
C1157 C 0.13892 0.53422 0.28747 0.0
C1158 C 0.15696 0.52702 0.31296 0.0
C1159 C 0.17564 0.53438 0.29254 0.0
C1160 C 0.17632 0.54894 0.24646 0.0
C1161 C 0.15831 0.55621 0.22085 0.0
H1162 H 0.1896 0.52878 0.31232 0.0
H1163 H 0.0143 0.59736 0.06226 0.0
H1164 H 0.95614 0.0977 0.46501 0.0
H1165 H 0.95114 0.10031 0.57448 0.0
H1166 H 0.88706 0.08946 0.55112 0.0
H1167 H 0.89195 0.08665 0.44162 0.0
H1168 H 0.89382 0.12047 0.62852 0.0
H1169 H 0.91842 0.05222 0.60325 0.0
H1170 H 0.94232 0.02589 0.56818 0.0
H1171 H 0.98989 0.05274 0.67441 0.0
H1172 H 0.96634 0.07941 0.70947 0.0
H1173 H 0.86684 0.10001 0.93236 0.0
H1174 H 0.87317 0.0975 0.82358 0.0
H1175 H 0.93729 0.10576 0.85476 0.0
H1176 H 0.93102 0.10808 0.96403 0.0
H1177 H 0.93136 0.07675 0.77342 0.0
H1178 H 0.907 0.14469 0.79997 0.0
H1179 H 0.88341 0.17132 0.83485 0.0
H1180 H 0.83586 0.14564 0.72598 0.0
H1181 H 0.85911 0.11868 0.69108 0.0
C1182 C 0.94101 0.09565 0.48307 0.0
C1183 C 0.92446 0.09191 0.44427 0.0
C1184 C 0.93817 0.0972 0.54577 0.0
C1185 C 0.91875 0.09489 0.57114 0.0
C1186 C 0.90218 0.09133 0.53258 0.0
C1187 C 0.905 0.0898 0.46989 0.0
C1188 C 0.91564 0.09633 0.6378 0.0
C1189 C 0.90184 0.11074 0.66017 0.0
C1190 C 0.92652 0.08402 0.67924 0.0
C1191 C 0.94067 0.06793 0.65851 0.0
C1192 C 0.93402 0.0526 0.61877 0.0
C1193 C 0.9475 0.0376 0.59896 0.0
C1194 C 0.96763 0.03768 0.61893 0.0
C1195 C 0.9743 0.05272 0.65891 0.0
C1196 C 0.96089 0.06777 0.67881 0.0
C1197 C 0.88227 0.10148 0.9161 0.0
C1198 C 0.8984 0.10443 0.95692 0.0
C1199 C 0.88588 0.10003 0.85381 0.0
C1200 C 0.90568 0.10179 0.83073 0.0
C1201 C 0.92188 0.10439 0.87142 0.0
C1202 C 0.91828 0.10569 0.93389 0.0
C1203 C 0.90943 0.10083 0.76421 0.0
C1204 C 0.92337 0.08653 0.74183 0.0
C1205 C 0.89874 0.1133 0.72272 0.0
C1206 C 0.88475 0.12956 0.74334 0.0
C1207 C 0.89148 0.14464 0.7838 0.0
C1208 C 0.87817 0.15981 0.80352 0.0
C1209 C 0.85814 0.16015 0.78276 0.0
C1210 C 0.85138 0.14535 0.74208 0.0
C1211 C 0.86462 0.13013 0.72226 0.0
H1212 H 0.84786 0.1719 0.79809 0.0
H1213 H 0.97804 0.02605 0.60353 0.0
H1214 H 0.3681 0.93178 0.4326 0.0
H1215 H 0.37152 0.93801 0.32363 0.0
H1216 H 0.37503 0.87351 0.29146 0.0
H1217 H 0.37206 0.8672 0.40028 0.0
H1218 H 0.40351 0.89422 0.22668 0.0
H1219 H 0.33167 0.8989 0.26352 0.0
H1220 H 0.3008 0.91181 0.31367 0.0
H1221 H 0.31466 0.97223 0.25331 0.0
H1222 H 0.3458 0.95971 0.2035 0.0
H1223 H 0.38659 0.89198 0.9102 0.0
H1224 H 0.38376 0.8873 0.0196 0.0
H1225 H 0.37694 0.95195 0.04322 0.0
H1226 H 0.37892 0.95669 0.93352 0.0
H1227 H 0.35072 0.93221 0.11318 0.0
H1228 H 0.42214 0.92776 0.07482 0.0
H1229 H 0.45315 0.91512 0.02478 0.0
H1230 H 0.44046 0.8548 0.08825 0.0
H1231 H 0.40922 0.86704 0.13804 0.0
C1232 C 0.36975 0.91893 0.40241 0.0
C1233 C 0.36969 0.89898 0.42525 0.0
C1234 C 0.37155 0.92251 0.34007 0.0
C1235 C 0.37333 0.90621 0.2993 0.0
C1236 C 0.3736 0.88631 0.32203 0.0
C1237 C 0.37171 0.88272 0.38426 0.0
C1238 C 0.37487 0.90983 0.23292 0.0
C1239 C 0.39186 0.90232 0.20172 0.0
C1240 C 0.35992 0.92086 0.20061 0.0
C1241 C 0.34118 0.9284 0.23035 0.0
C1242 C 0.32823 0.91496 0.26138 0.0
C1243 C 0.31066 0.9222 0.28966 0.0
C1244 C 0.3058 0.94283 0.28683 0.0
C1245 C 0.31846 0.95626 0.25555 0.0
C1246 C 0.33606 0.9491 0.22726 0.0
C1247 C 0.38428 0.90522 0.93844 0.0
C1248 C 0.38304 0.92474 0.91273 0.0
C1249 C 0.38289 0.90253 1.0012 0.0
C1250 C 0.38044 0.9193 0.03985 0.0
C1251 C 0.37894 0.93878 0.01439 0.0
C1252 C 0.38026 0.94148 0.95157 0.0
C1253 C 0.37933 0.9165 0.10675 0.0
C1254 C 0.36242 0.92417 0.1381 0.0
C1255 C 0.3944 0.90568 0.13926 0.0
C1256 C 0.41324 0.89829 0.10969 0.0
C1257 C 0.42589 0.91177 0.07775 0.0
C1258 C 0.44352 0.90469 0.04949 0.0
C1259 C 0.44875 0.88416 0.05321 0.0
C1260 C 0.43638 0.87069 0.08536 0.0
C1261 C 0.41872 0.8777 0.11366 0.0
H1262 H 0.46241 0.87871 0.03129 0.0
H1263 H 0.29219 0.94841 0.30875 0.0
loop_
_geom_bond_atom_site_label_1
_geom_bond_atom_site_label_2
_geom_bond_distance
_geom_bond_site_symmetry_2
_ccdc_geom_bond_type
Co0 N4 2.148 . S
Co0 N10 2.128 . S
Co0 N20 2.194 . S
Co0 O25 2.351 . S
Co0 O26 2.155 . S
Co0 O27 2.096 . S
C1 N4 1.301 . S
C1 N5 1.328 . S
C1 H6 0.930 . S
C2 C3 1.333 . S
C2 N4 1.317 . S
C2 H7 0.930 . S
C3 C2 1.333 . S
C3 N5 1.350 . S
C3 H29 0.931 . S
N4 Co0 2.148 . S
N4 C1 1.301 . S
N4 C2 1.317 . S
N5 C1 1.328 . S
N5 C3 1.350 . S
H6 C1 0.930 . S
H7 C2 0.930 . S
C8 O9 1.224 . S
C8 O27 1.247 . S
O9 C8 1.224 . S
N10 Co0 2.128 . S
N10 C11 1.355 . S
N10 C13 1.311 . S
C11 N10 1.355 . S
C11 C12 1.363 . S
C11 H23 0.929 . S
C12 C11 1.363 . S
C12 N14 1.375 . S
C12 H30 0.931 . S
C13 N10 1.311 . S
C13 N14 1.347 . S
C13 H24 0.929 . S
N14 C12 1.375 . S
N14 C13 1.347 . S
C15 C18 1.365 . S
C15 N20 1.328 . S
C15 H21 0.929 . S
C16 C17 1.362 . S
C16 C19 1.378 . S
C16 H31 0.929 . S
C17 C16 1.362 . S
C17 C18 1.366 . S
C18 C15 1.365 . S
C18 C17 1.366 . S
C18 H32 0.930 . S
C19 C16 1.378 . S
C19 N20 1.315 . S
C19 H22 0.930 . S
N20 Co0 2.194 . S
N20 C15 1.328 . S
N20 C19 1.315 . S
H21 C15 0.929 . S
H22 C19 0.930 . S
H23 C11 0.929 . S
H24 C13 0.929 . S
O25 Co0 2.351 . S
O25 C28 1.244 . S
O26 Co0 2.155 . S
O26 C28 1.240 . S
O27 Co0 2.096 . S
O27 C8 1.247 . S
C28 O25 1.244 . S
C28 O26 1.240 . S
H29 C3 0.931 . S
H30 C12 0.931 . S
H31 C16 0.929 . S
H32 C18 0.930 . S
Co33 N37 2.148 . S
Co33 N43 2.128 . S
Co33 N53 2.194 . S
Co33 O58 2.351 . S
Co33 O59 2.155 . S
Co33 O60 2.096 . S
C34 N37 1.301 . S
C34 N38 1.328 . S
C34 H39 0.930 . S
C35 C36 1.333 . S
C35 N37 1.317 . S
C35 H40 0.930 . S
C36 C35 1.333 . S
C36 N38 1.350 . S
C36 H62 0.931 . S
N37 Co33 2.148 . S
N37 C34 1.301 . S
N37 C35 1.317 . S
N38 C34 1.328 . S
N38 C36 1.350 . S
H39 C34 0.930 . S
H40 C35 0.930 . S
C41 O42 1.224 . S
C41 O60 1.247 . S
O42 C41 1.224 . S
N43 Co33 2.128 . S
N43 C44 1.355 . S
N43 C46 1.311 . S
C44 N43 1.355 . S
C44 C45 1.363 . S
C44 H56 0.929 . S
C45 C44 1.363 . S
C45 N47 1.371 1_556 S
C45 H63 0.931 1_556 S
C46 N43 1.311 . S
C46 N47 1.337 1_556 S
C46 H57 0.929 . S
N47 C45 1.371 1_554 S
N47 C46 1.337 1_554 S
C48 C51 1.365 . S
C48 N53 1.328 . S
C48 H54 0.929 . S
C49 C50 1.362 . S
C49 C52 1.378 . S
C49 H64 0.929 . S
C50 C49 1.362 . S
C50 C51 1.366 . S
C51 C48 1.365 . S
C51 C50 1.366 . S
C51 H65 0.930 . S
C52 C49 1.378 . S
C52 N53 1.315 . S
C52 H55 0.930 . S
N53 Co33 2.194 . S
N53 C48 1.328 . S
N53 C52 1.315 . S
H54 C48 0.929 . S
H55 C52 0.930 . S
H56 C44 0.929 . S
H57 C46 0.929 . S
O58 Co33 2.351 . S
O58 C61 1.244 . S
O59 Co33 2.155 . S
O59 C61 1.240 . S
O60 Co33 2.096 . S
O60 C41 1.247 . S
C61 O58 1.244 . S
C61 O59 1.240 . S
H62 C36 0.931 . S
H63 C45 0.931 1_554 S
H64 C49 0.929 . S
H65 C51 0.930 . S
Co66 N70 2.148 . S
Co66 N76 2.128 . S
Co66 N86 2.194 . S
Co66 O91 2.351 . S
Co66 O92 2.155 . S
Co66 O93 2.096 . S
C67 N70 1.301 . S
C67 N71 1.328 . S
C67 H72 0.930 . S
C68 C69 1.333 . S
C68 N70 1.317 . S
C68 H73 0.930 . S
C69 C68 1.333 . S
C69 N71 1.350 . S
C69 H95 0.931 . S
N70 Co66 2.148 . S
N70 C67 1.301 . S
N70 C68 1.317 . S
N71 C67 1.328 . S
N71 C69 1.350 . S
H72 C67 0.930 . S
H73 C68 0.930 . S
C74 O75 1.224 . S
C74 O93 1.247 . S
O75 C74 1.224 . S
N76 Co66 2.128 . S
N76 C77 1.355 . S
N76 C79 1.311 . S
C77 N76 1.355 . S
C77 C78 1.363 . S
C77 H89 0.929 . S
C78 C77 1.363 . S
C78 N80 1.375 . S
C78 H96 0.931 . S
C79 N76 1.311 . S
C79 N80 1.347 . S
C79 H90 0.929 . S
N80 C78 1.375 . S
N80 C79 1.347 . S
C81 C84 1.365 . S
C81 N86 1.328 . S
C81 H87 0.929 . S
C82 C83 1.362 . S
C82 C85 1.378 . S
C82 H97 0.929 . S
C83 C82 1.362 . S
C83 C84 1.366 . S
C84 C81 1.365 . S
C84 C83 1.366 . S
C84 H98 0.930 . S
C85 C82 1.378 . S
C85 N86 1.315 . S
C85 H88 0.930 . S
N86 Co66 2.194 . S
N86 C81 1.328 . S
N86 C85 1.315 . S
H87 C81 0.929 . S
H88 C85 0.930 . S
H89 C77 0.929 . S
H90 C79 0.929 . S
O91 Co66 2.351 . S
O91 C94 1.244 . S
O92 Co66 2.155 . S
O92 C94 1.240 . S
O93 Co66 2.096 . S
O93 C74 1.247 . S
C94 O91 1.244 . S
C94 O92 1.240 . S
H95 C69 0.931 . S
H96 C78 0.931 . S
H97 C82 0.929 . S
H98 C84 0.930 . S
Co99 N103 2.148 . S
Co99 N109 2.128 . S
Co99 N119 2.194 . S
Co99 O124 2.351 . S
Co99 O125 2.155 . S
Co99 O126 2.096 . S
C100 N103 1.301 . S
C100 N104 1.328 . S
C100 H105 0.930 . S
C101 C102 1.333 . S
C101 N103 1.317 . S
C101 H106 0.930 . S
C102 C101 1.333 . S
C102 N104 1.350 . S
C102 H128 0.931 . S
N103 Co99 2.148 . S
N103 C100 1.301 . S
N103 C101 1.317 . S
N104 C100 1.328 . S
N104 C102 1.350 . S
H105 C100 0.930 . S
H106 C101 0.930 . S
C107 O108 1.224 . S
C107 O126 1.247 . S
O108 C107 1.224 . S
N109 Co99 2.128 . S
N109 C110 1.355 . S
N109 C112 1.311 . S
C110 N109 1.355 . S
C110 C111 1.363 . S
C110 H122 0.929 . S
C111 C110 1.363 . S
C111 N113 1.371 1_556 S
C111 H129 0.931 1_556 S
C112 N109 1.311 . S
C112 N113 1.337 1_556 S
C112 H123 0.929 . S
N113 C111 1.371 1_554 S
N113 C112 1.337 1_554 S
C114 C117 1.365 . S
C114 N119 1.328 . S
C114 H120 0.929 . S
C115 C116 1.362 . S
C115 C118 1.378 . S
C115 H130 0.929 . S
C116 C115 1.362 . S
C116 C117 1.366 . S
C117 C114 1.365 . S
C117 C116 1.366 . S
C117 H131 0.930 . S
C118 C115 1.378 . S
C118 N119 1.315 . S
C118 H121 0.930 . S
N119 Co99 2.194 . S
N119 C114 1.328 . S
N119 C118 1.315 . S
H120 C114 0.929 . S
H121 C118 0.930 . S
H122 C110 0.929 . S
H123 C112 0.929 . S
O124 Co99 2.351 . S
O124 C127 1.244 . S
O125 Co99 2.155 . S
O125 C127 1.240 . S
O126 Co99 2.096 . S
O126 C107 1.247 . S
C127 O124 1.244 . S
C127 O125 1.240 . S
H128 C102 0.931 . S
H129 C111 0.931 1_554 S
H130 C115 0.929 . S
H131 C117 0.930 . S
Co132 N136 2.148 . S
Co132 N142 2.128 . S
Co132 N152 2.194 . S
Co132 O157 2.351 . S
Co132 O158 2.155 . S
Co132 O159 2.096 . S
C133 N136 1.301 . S
C133 N137 1.328 . S
C133 H138 0.930 . S
C134 C135 1.333 . S
C134 N136 1.317 . S
C134 H139 0.930 . S
C135 C134 1.333 . S
C135 N137 1.350 . S
C135 H161 0.931 . S
N136 Co132 2.148 . S
N136 C133 1.301 . S
N136 C134 1.317 . S
N137 C133 1.328 . S
N137 C135 1.350 . S
H138 C133 0.930 . S
H139 C134 0.930 . S
C140 O141 1.224 . S
C140 O159 1.247 . S
O141 C140 1.224 . S
N142 Co132 2.128 . S
N142 C143 1.355 . S
N142 C145 1.311 . S
C143 N142 1.355 . S
C143 C144 1.363 . S
C143 H155 0.929 . S
C144 C143 1.363 . S
C144 N146 1.371 1_554 S
C144 H162 0.931 1_554 S
C145 N142 1.311 . S
C145 N146 1.337 1_554 S
C145 H156 0.929 . S
N146 C144 1.371 1_556 S
N146 C145 1.337 1_556 S
C147 C150 1.365 . S
C147 N152 1.328 . S
C147 H153 0.929 . S
C148 C149 1.362 . S
C148 C151 1.378 . S
C148 H163 0.929 . S
C149 C148 1.362 . S
C149 C150 1.366 . S
C150 C147 1.365 . S
C150 C149 1.366 . S
C150 H164 0.930 . S
C151 C148 1.378 . S
C151 N152 1.315 . S
C151 H154 0.930 . S
N152 Co132 2.194 . S
N152 C147 1.328 . S
N152 C151 1.315 . S
H153 C147 0.929 . S
H154 C151 0.930 . S
H155 C143 0.929 . S
H156 C145 0.929 . S
O157 Co132 2.351 . S
O157 C160 1.244 . S
O158 Co132 2.155 . S
O158 C160 1.240 . S
O159 Co132 2.096 . S
O159 C140 1.247 . S
C160 O157 1.244 . S
C160 O158 1.240 . S
H161 C135 0.931 . S
H162 C144 0.931 1_556 S
H163 C148 0.929 . S
H164 C150 0.930 . S
Co165 N169 2.148 . S
Co165 N175 2.128 . S
Co165 N185 2.194 . S
Co165 O190 2.351 . S
Co165 O191 2.155 . S
Co165 O192 2.096 . S
C166 N169 1.301 . S
C166 N170 1.328 . S
C166 H171 0.930 . S
C167 C168 1.333 . S
C167 N169 1.317 . S
C167 H172 0.930 . S
C168 C167 1.333 . S
C168 N170 1.350 . S
C168 H194 0.931 . S
N169 Co165 2.148 . S
N169 C166 1.301 . S
N169 C167 1.317 . S
N170 C166 1.328 . S
N170 C168 1.350 . S
H171 C166 0.930 . S
H172 C167 0.930 . S
C173 O174 1.224 . S
C173 O192 1.247 . S
O174 C173 1.224 . S
N175 Co165 2.128 . S
N175 C176 1.355 . S
N175 C178 1.311 . S
C176 N175 1.355 . S
C176 C177 1.363 . S
C176 H188 0.929 . S
C177 C176 1.363 . S
C177 N179 1.375 . S
C177 H195 0.931 . S
C178 N175 1.311 . S
C178 N179 1.347 . S
C178 H189 0.929 . S
N179 C177 1.375 . S
N179 C178 1.347 . S
C180 C183 1.365 . S
C180 N185 1.328 . S
C180 H186 0.929 . S
C181 C182 1.362 . S
C181 C184 1.378 . S
C181 H196 0.929 . S
C182 C181 1.362 . S
C182 C183 1.366 . S
C183 C180 1.365 . S
C183 C182 1.366 . S
C183 H197 0.930 . S
C184 C181 1.378 . S
C184 N185 1.315 . S
C184 H187 0.930 . S
N185 Co165 2.194 . S
N185 C180 1.328 . S
N185 C184 1.315 . S
H186 C180 0.929 . S
H187 C184 0.930 . S
H188 C176 0.929 . S
H189 C178 0.929 . S
O190 Co165 2.351 . S
O190 C193 1.244 . S
O191 Co165 2.155 . S
O191 C193 1.240 . S
O192 Co165 2.096 . S
O192 C173 1.247 . S
C193 O190 1.244 . S
C193 O191 1.240 . S
H194 C168 0.931 . S
H195 C177 0.931 . S
H196 C181 0.929 . S
H197 C183 0.930 . S
Co198 N202 2.148 . S
Co198 N208 2.128 . S
Co198 N218 2.194 . S
Co198 O223 2.351 . S
Co198 O224 2.155 . S
Co198 O225 2.096 . S
C199 N202 1.301 . S
C199 N203 1.328 . S
C199 H204 0.930 . S
C200 C201 1.333 . S
C200 N202 1.317 . S
C200 H205 0.930 . S
C201 C200 1.333 . S
C201 N203 1.350 . S
C201 H227 0.931 . S
N202 Co198 2.148 . S
N202 C199 1.301 . S
N202 C200 1.317 . S
N203 C199 1.328 . S
N203 C201 1.350 . S
H204 C199 0.930 . S
H205 C200 0.930 . S
C206 O207 1.224 . S
C206 O225 1.247 . S
O207 C206 1.224 . S
N208 Co198 2.128 . S
N208 C209 1.355 . S
N208 C211 1.311 . S
C209 N208 1.355 . S
C209 C210 1.363 . S
C209 H221 0.929 . S
C210 C209 1.363 . S
C210 N212 1.371 1_554 S
C210 H228 0.931 1_554 S
C211 N208 1.311 . S
C211 N212 1.337 1_554 S
C211 H222 0.929 . S
N212 C210 1.371 1_556 S
N212 C211 1.337 1_556 S
C213 C216 1.365 . S
C213 N218 1.328 . S
C213 H219 0.929 . S
C214 C215 1.362 . S
C214 C217 1.378 . S
C214 H229 0.929 . S
C215 C214 1.362 . S
C215 C216 1.366 . S
C216 C213 1.365 . S
C216 C215 1.366 . S
C216 H230 0.930 . S
C217 C214 1.378 . S
C217 N218 1.315 . S
C217 H220 0.930 . S
N218 Co198 2.194 . S
N218 C213 1.328 . S
N218 C217 1.315 . S
H219 C213 0.929 . S
H220 C217 0.930 . S
H221 C209 0.929 . S
H222 C211 0.929 . S
O223 Co198 2.351 . S
O223 C226 1.244 . S
O224 Co198 2.155 . S
O224 C226 1.240 . S
O225 Co198 2.096 . S
O225 C206 1.247 . S
C226 O223 1.244 . S
C226 O224 1.240 . S
H227 C201 0.931 . S
H228 C210 0.931 1_556 S
H229 C214 0.929 . S
H230 C216 0.930 . S
Co231 N235 2.148 . S
Co231 N241 2.128 . S
Co231 N251 2.194 . S
Co231 O256 2.351 . S
Co231 O257 2.155 . S
Co231 O258 2.096 . S
C232 N235 1.301 . S
C232 N236 1.328 . S
C232 H237 0.930 . S
C233 C234 1.333 . S
C233 N235 1.317 . S
C233 H238 0.930 . S
C234 C233 1.333 . S
C234 N236 1.350 . S
C234 H260 0.931 . S
N235 Co231 2.148 . S
N235 C232 1.301 . S
N235 C233 1.317 . S
N236 C232 1.328 . S
N236 C234 1.350 . S
H237 C232 0.930 . S
H238 C233 0.930 . S
C239 O240 1.224 . S
C239 O258 1.247 . S
O240 C239 1.224 . S
N241 Co231 2.128 . S
N241 C242 1.355 . S
N241 C244 1.311 . S
C242 N241 1.355 . S
C242 C243 1.363 . S
C242 H254 0.929 . S
C243 C242 1.363 . S
C243 N245 1.375 . S
C243 H261 0.931 . S
C244 N241 1.311 . S
C244 N245 1.347 . S
C244 H255 0.929 . S
N245 C243 1.375 . S
N245 C244 1.347 . S
C246 C249 1.365 . S
C246 N251 1.328 . S
C246 H252 0.929 . S
C247 C248 1.362 . S
C247 C250 1.378 . S
C247 H262 0.929 . S
C248 C247 1.362 . S
C248 C249 1.366 . S
C249 C246 1.365 . S
C249 C248 1.366 . S
C249 H263 0.930 . S
C250 C247 1.378 . S
C250 N251 1.315 . S
C250 H253 0.930 . S
N251 Co231 2.194 . S
N251 C246 1.328 . S
N251 C250 1.315 . S
H252 C246 0.929 . S
H253 C250 0.930 . S
H254 C242 0.929 . S
H255 C244 0.929 . S
O256 Co231 2.351 . S
O256 C259 1.244 . S
O257 Co231 2.155 . S
O257 C259 1.240 . S
O258 Co231 2.096 . S
O258 C239 1.247 . S
C259 O256 1.244 . S
C259 O257 1.240 . S
H260 C234 0.931 . S
H261 C243 0.931 . S
H262 C247 0.929 . S
H263 C249 0.930 . S
H264 C282 0.951 . S
H265 C284 0.951 . S
H266 C286 0.950 . S
H267 C287 0.950 . S
H268 C289 0.950 . S
H269 C292 0.950 . S
H270 C293 0.950 . S
H271 C295 0.950 . S
H272 C296 0.950 . S
H273 C297 0.951 . S
H274 C299 0.951 . S
H275 C301 0.950 . S
H276 C302 0.950 . S
H277 C304 0.950 . S
H278 C307 0.950 . S
H279 C308 0.950 . S
H280 C310 0.950 . S
H281 C311 0.950 . S
C282 H264 0.951 . S
C282 C283 1.366 . S
C282 C284 1.388 . S
C283 C282 1.366 . S
C283 C287 1.385 . S
C284 H265 0.951 . S
C284 C282 1.388 . S
C284 C285 1.366 . S
C285 C284 1.366 . S
C285 C286 1.414 . S
C285 C288 1.499 . S
C286 H266 0.950 . S
C286 C285 1.414 . S
C286 C287 1.374 . S
C287 H267 0.950 . S
C287 C283 1.385 . S
C287 C286 1.374 . S
C288 C285 1.499 . S
C288 C289 1.373 1_565 S
C288 C290 1.389 . S
C289 H268 0.950 . S
C289 C288 1.373 1_545 S
C289 C305 1.377 . S
C290 C288 1.389 . S
C290 C291 1.524 . S
C290 C304 1.377 . S
C291 C290 1.524 . S
C291 C292 1.397 . S
C291 C296 1.363 . S
C292 H269 0.950 . S
C292 C291 1.397 . S
C292 C293 1.334 . S
C293 H270 0.950 . S
C293 C292 1.334 . S
C293 C294 1.287 . S
C294 C293 1.287 . S
C294 C295 1.524 . S
C294 H313 0.913 . S
C295 H271 0.950 . S
C295 C294 1.524 . S
C295 C296 1.415 . S
C296 H272 0.950 . S
C296 C291 1.363 . S
C296 C295 1.415 . S
C297 H273 0.951 . S
C297 C298 1.366 . S
C297 C299 1.388 . S
C298 C297 1.366 . S
C298 C302 1.385 . S
C299 H274 0.951 . S
C299 C297 1.388 . S
C299 C300 1.366 . S
C300 C299 1.366 . S
C300 C301 1.414 . S
C300 C303 1.499 . S
C301 H275 0.950 . S
C301 C300 1.414 . S
C301 C302 1.374 . S
C302 H276 0.950 . S
C302 C298 1.385 . S
C302 C301 1.374 . S
C303 C300 1.499 . S
C303 C304 1.373 1_545 S
C303 C305 1.389 . S
C304 H277 0.950 . S
C304 C290 1.377 . S
C304 C303 1.373 1_565 S
C305 C289 1.377 . S
C305 C303 1.389 . S
C305 C306 1.524 . S
C306 C305 1.524 . S
C306 C307 1.397 . S
C306 C311 1.363 . S
C307 H278 0.950 . S
C307 C306 1.397 . S
C307 C308 1.334 . S
C308 H279 0.950 . S
C308 C307 1.334 . S
C308 C309 1.287 . S
C309 C308 1.287 . S
C309 C310 1.524 . S
C309 H312 0.999 . S
C310 H280 0.950 . S
C310 C309 1.524 . S
C310 C311 1.415 . S
C311 H281 0.950 . S
C311 C306 1.363 . S
C311 C310 1.415 . S
H312 C309 0.999 . S
H313 C294 0.913 . S
H314 C332 0.951 . S
H315 C334 0.951 . S
H316 C336 0.950 . S
H317 C337 0.950 . S
H318 C339 0.950 . S
H319 C342 0.950 . S
H320 C343 0.950 . S
H321 C345 0.950 . S
H322 C346 0.950 . S
H323 C347 0.951 . S
H324 C349 0.951 . S
H325 C351 0.950 . S
H326 C352 0.950 . S
H327 C354 0.950 . S
H328 C357 0.950 . S
H329 C358 0.950 . S
H330 C360 0.950 . S
H331 C361 0.950 . S
C332 H314 0.951 . S
C332 C333 1.366 . S
C332 C334 1.388 . S
C333 C332 1.366 . S
C333 C337 1.385 . S
C334 H315 0.951 . S
C334 C332 1.388 . S
C334 C335 1.366 . S
C335 C334 1.366 . S
C335 C336 1.414 . S
C335 C338 1.499 . S
C336 H316 0.950 . S
C336 C335 1.414 . S
C336 C337 1.374 . S
C337 H317 0.950 . S
C337 C333 1.385 . S
C337 C336 1.374 . S
C338 C335 1.499 . S
C338 C339 1.373 . S
C338 C340 1.389 . S
C339 H318 0.950 . S
C339 C338 1.373 . S
C339 C355 1.377 1_554 S
C340 C338 1.389 . S
C340 C341 1.524 . S
C340 C354 1.377 1_554 S
C341 C340 1.524 . S
C341 C342 1.397 1_554 S
C341 C346 1.363 . S
C342 H319 0.950 . S
C342 C341 1.397 1_556 S
C342 C343 1.334 . S
C343 H320 0.950 . S
C343 C342 1.334 . S
C343 C344 1.287 . S
C344 C343 1.287 . S
C344 C345 1.524 1_556 S
C344 H363 0.913 . S
C345 H321 0.950 . S
C345 C344 1.524 1_554 S
C345 C346 1.415 . S
C346 H322 0.950 . S
C346 C341 1.363 . S
C346 C345 1.415 . S
C347 H323 0.951 . S
C347 C348 1.366 . S
C347 C349 1.388 . S
C348 C347 1.366 . S
C348 C352 1.385 . S
C349 H324 0.951 . S
C349 C347 1.388 . S
C349 C350 1.366 . S
C350 C349 1.366 . S
C350 C351 1.414 . S
C350 C353 1.499 . S
C351 H325 0.950 . S
C351 C350 1.414 . S
C351 C352 1.374 . S
C352 H326 0.950 . S
C352 C348 1.385 . S
C352 C351 1.374 . S
C353 C350 1.499 . S
C353 C354 1.373 . S
C353 C355 1.389 . S
C354 H327 0.950 . S
C354 C340 1.377 1_556 S
C354 C353 1.373 . S
C355 C339 1.377 1_556 S
C355 C353 1.389 . S
C355 C356 1.524 . S
C356 C355 1.524 . S
C356 C357 1.397 1_556 S
C356 C361 1.363 . S
C357 H328 0.950 . S
C357 C356 1.397 1_554 S
C357 C358 1.334 . S
C358 H329 0.950 . S
C358 C357 1.334 . S
C358 C359 1.287 . S
C359 C358 1.287 . S
C359 C360 1.524 1_554 S
C359 H362 0.999 . S
C360 H330 0.950 . S
C360 C359 1.524 1_556 S
C360 C361 1.415 . S
C361 H331 0.950 . S
C361 C356 1.363 . S
C361 C360 1.415 . S
H362 C359 0.999 . S
H363 C344 0.913 . S
H364 C382 0.951 . S
H365 C384 0.951 . S
H366 C386 0.950 . S
H367 C387 0.950 . S
H368 C389 0.950 . S
H369 C392 0.950 . S
H370 C393 0.950 . S
H371 C395 0.950 . S
H372 C396 0.950 . S
H373 C397 0.951 . S
H374 C399 0.951 . S
H375 C401 0.950 . S
H376 C402 0.950 . S
H377 C404 0.950 . S
H378 C407 0.950 . S
H379 C408 0.950 . S
H380 C410 0.950 . S
H381 C411 0.950 . S
C382 H364 0.951 . S
C382 C383 1.366 . S
C382 C384 1.388 . S
C383 C382 1.366 . S
C383 C387 1.385 . S
C384 H365 0.951 . S
C384 C382 1.388 . S
C384 C385 1.366 . S
C385 C384 1.366 . S
C385 C386 1.414 . S
C385 C388 1.499 . S
C386 H366 0.950 . S
C386 C385 1.414 . S
C386 C387 1.374 . S
C387 H367 0.950 . S
C387 C383 1.385 . S
C387 C386 1.374 . S
C388 C385 1.499 . S
C388 C389 1.373 . S
C388 C390 1.389 . S
C389 H368 0.950 . S
C389 C388 1.373 . S
C389 C405 1.377 1_655 S
C390 C388 1.389 . S
C390 C391 1.524 . S
C390 C404 1.377 1_655 S
C391 C390 1.524 . S
C391 C392 1.397 1_655 S
C391 C396 1.363 . S
C392 H369 0.950 . S
C392 C391 1.397 1_455 S
C392 C393 1.334 . S
C393 H370 0.950 . S
C393 C392 1.334 . S
C393 C394 1.287 1_455 S
C394 C393 1.287 1_655 S
C394 C395 1.524 . S
C394 H413 0.913 . S
C395 H371 0.950 . S
C395 C394 1.524 . S
C395 C396 1.415 . S
C396 H372 0.950 . S
C396 C391 1.363 . S
C396 C395 1.415 . S
C397 H373 0.951 . S
C397 C398 1.366 . S
C397 C399 1.388 . S
C398 C397 1.366 . S
C398 C402 1.385 . S
C399 H374 0.951 . S
C399 C397 1.388 . S
C399 C400 1.366 . S
C400 C399 1.366 . S
C400 C401 1.414 . S
C400 C403 1.499 . S
C401 H375 0.950 . S
C401 C400 1.414 . S
C401 C402 1.374 . S
C402 H376 0.950 . S
C402 C398 1.385 . S
C402 C401 1.374 . S
C403 C400 1.499 . S
C403 C404 1.373 . S
C403 C405 1.389 . S
C404 H377 0.950 . S
C404 C390 1.377 1_455 S
C404 C403 1.373 . S
C405 C389 1.377 1_455 S
C405 C403 1.389 . S
C405 C406 1.524 . S
C406 C405 1.524 . S
C406 C407 1.397 1_455 S
C406 C411 1.363 . S
C407 H378 0.950 . S
C407 C406 1.397 1_655 S
C407 C408 1.334 . S
C408 H379 0.950 . S
C408 C407 1.334 . S
C408 C409 1.287 1_655 S
C409 C408 1.287 1_455 S
C409 C410 1.524 . S
C409 H412 0.999 . S
C410 H380 0.950 . S
C410 C409 1.524 . S
C410 C411 1.415 . S
C411 H381 0.950 . S
C411 C406 1.363 . S
C411 C410 1.415 . S
H412 C409 0.999 . S
H413 C394 0.913 . S
H414 C432 0.951 . S
H415 C434 0.951 . S
H416 C436 0.950 . S
H417 C437 0.950 . S
H418 C439 0.950 . S
H419 C442 0.950 . S
H420 C443 0.950 1_655 S
H421 C445 0.950 . S
H422 C446 0.950 . S
H423 C447 0.951 . S
H424 C449 0.951 . S
H425 C451 0.950 . S
H426 C452 0.950 . S
H427 C454 0.950 . S
H428 C457 0.953 . S
H429 C458 0.950 1_455 S
H430 C460 0.950 . S
H431 C461 0.950 . S
C432 H414 0.951 . S
C432 C433 1.366 . S
C432 C434 1.388 . S
C433 C432 1.366 . S
C433 C437 1.385 . S
C434 H415 0.951 . S
C434 C432 1.388 . S
C434 C435 1.366 . S
C435 C434 1.366 . S
C435 C436 1.414 . S
C435 C438 1.499 . S
C436 H416 0.950 . S
C436 C435 1.414 . S
C436 C437 1.374 . S
C437 H417 0.950 . S
C437 C433 1.385 . S
C437 C436 1.374 . S
C438 C435 1.499 . S
C438 C439 1.373 1_545 S
C438 C440 1.389 1_655 S
C439 H418 0.950 . S
C439 C438 1.373 1_565 S
C439 C455 1.377 1_554 S
C440 C438 1.389 1_455 S
C440 C441 1.524 . S
C440 C454 1.377 1_554 S
C441 C440 1.524 . S
C441 C442 1.397 1_454 S
C441 C446 1.363 . S
C442 H419 0.950 . S
C442 C441 1.397 1_656 S
C442 C443 1.334 1_655 S
C443 H420 0.950 1_455 S
C443 C442 1.334 1_455 S
C443 C444 1.287 1_556 S
C444 C443 1.287 1_554 S
C444 C445 1.524 . S
C444 H463 0.913 . S
C445 H421 0.950 . S
C445 C444 1.524 . S
C445 C446 1.415 . S
C446 H422 0.950 . S
C446 C441 1.363 . S
C446 C445 1.415 . S
C447 H423 0.951 . S
C447 C448 1.366 . S
C447 C449 1.388 . S
C448 C447 1.366 . S
C448 C452 1.385 . S
C449 H424 0.951 . S
C449 C447 1.388 . S
C449 C450 1.366 . S
C450 C449 1.366 . S
C450 C451 1.414 . S
C450 C453 1.499 . S
C451 H425 0.950 . S
C451 C450 1.414 . S
C451 C452 1.374 . S
C452 H426 0.950 . S
C452 C448 1.385 . S
C452 C451 1.374 . S
C453 C450 1.499 . S
C453 C454 1.373 1_565 S
C453 C455 1.389 1_455 S
C454 H427 0.950 . S
C454 C440 1.377 1_556 S
C454 C453 1.373 1_545 S
C455 C439 1.377 1_556 S
C455 C453 1.389 1_655 S
C455 C456 1.524 . S
C456 C455 1.524 . S
C456 C457 1.394 1_656 S
C456 C461 1.363 . S
C457 H428 0.953 . S
C457 C456 1.394 1_454 S
C457 C458 1.333 1_455 S
C458 H429 0.950 1_655 S
C458 C457 1.333 1_655 S
C458 C459 1.287 1_554 S
C459 C458 1.287 1_556 S
C459 C460 1.524 . S
C459 H462 0.999 . S
C460 H430 0.950 . S
C460 C459 1.524 . S
C460 C461 1.415 . S
C461 H431 0.950 . S
C461 C456 1.363 . S
C461 C460 1.415 . S
H462 C459 0.999 . S
H463 C444 0.913 . S
H464 C482 0.951 . S
H465 C484 0.951 . S
H466 C486 0.950 . S
H467 C487 0.950 . S
H468 C489 0.950 . S
H469 C492 0.950 . S
H470 C493 0.950 . S
H471 C495 0.950 . S
H472 C496 0.950 . S
H473 C497 0.951 . S
H474 C499 0.951 . S
H475 C501 0.950 . S
H476 C502 0.950 . S
H477 C504 0.950 . S
H478 C507 0.950 . S
H479 C508 0.950 . S
H480 C510 0.950 . S
H481 C511 0.950 . S
C482 H464 0.951 . S
C482 C483 1.366 . S
C482 C484 1.388 . S
C483 C482 1.366 . S
C483 C487 1.385 . S
C484 H465 0.951 . S
C484 C482 1.388 . S
C484 C485 1.366 . S
C485 C484 1.366 . S
C485 C486 1.414 . S
C485 C488 1.499 . S
C486 H466 0.950 . S
C486 C485 1.414 . S
C486 C487 1.374 . S
C487 H467 0.950 . S
C487 C483 1.385 . S
C487 C486 1.374 . S
C488 C485 1.499 . S
C488 C489 1.373 . S
C488 C490 1.389 . S
C489 H468 0.950 . S
C489 C488 1.373 . S
C489 C505 1.377 . S
C490 C488 1.389 . S
C490 C491 1.524 . S
C490 C504 1.377 . S
C491 C490 1.524 . S
C491 C492 1.397 . S
C491 C496 1.363 . S
C492 H469 0.950 . S
C492 C491 1.397 . S
C492 C493 1.334 . S
C493 H470 0.950 . S
C493 C492 1.334 . S
C493 C494 1.287 . S
C494 C493 1.287 . S
C494 C495 1.524 . S
C494 H513 0.913 . S
C495 H471 0.950 . S
C495 C494 1.524 . S
C495 C496 1.415 . S
C496 H472 0.950 . S
C496 C491 1.363 . S
C496 C495 1.415 . S
C497 H473 0.951 . S
C497 C498 1.366 . S
C497 C499 1.388 . S
C498 C497 1.366 . S
C498 C502 1.385 . S
C499 H474 0.951 . S
C499 C497 1.388 . S
C499 C500 1.366 . S
C500 C499 1.366 . S
C500 C501 1.414 . S
C500 C503 1.499 . S
C501 H475 0.950 . S
C501 C500 1.414 . S
C501 C502 1.374 . S
C502 H476 0.950 . S
C502 C498 1.385 . S
C502 C501 1.374 . S
C503 C500 1.499 . S
C503 C504 1.373 . S
C503 C505 1.389 . S
C504 H477 0.950 . S
C504 C490 1.377 . S
C504 C503 1.373 . S
C505 C489 1.377 . S
C505 C503 1.389 . S
C505 C506 1.524 . S
C506 C505 1.524 . S
C506 C507 1.397 . S
C506 C511 1.363 . S
C507 H478 0.950 . S
C507 C506 1.397 . S
C507 C508 1.334 . S
C508 H479 0.950 . S
C508 C507 1.334 . S
C508 C509 1.287 . S
C509 C508 1.287 . S
C509 C510 1.524 . S
C509 H512 0.999 . S
C510 H480 0.950 . S
C510 C509 1.524 . S
C510 C511 1.415 . S
C511 H481 0.950 . S
C511 C506 1.363 . S
C511 C510 1.415 . S
H512 C509 0.999 . S
H513 C494 0.913 . S
H514 C532 0.951 . S
H515 C534 0.951 . S
H516 C536 0.950 . S
H517 C537 0.950 . S
H518 C539 0.950 . S
H519 C542 0.950 . S
H520 C543 0.950 . S
H521 C545 0.950 . S
H522 C546 0.950 . S
H523 C547 0.951 . S
H524 C549 0.951 . S
H525 C551 0.950 . S
H526 C552 0.950 . S
H527 C554 0.950 . S
H528 C557 0.950 . S
H529 C558 0.950 . S
H530 C560 0.950 . S
H531 C561 0.950 . S
C532 H514 0.951 . S
C532 C533 1.366 . S
C532 C534 1.388 . S
C533 C532 1.366 . S
C533 C537 1.385 . S
C534 H515 0.951 . S
C534 C532 1.388 . S
C534 C535 1.366 . S
C535 C534 1.366 . S
C535 C536 1.414 . S
C535 C538 1.499 . S
C536 H516 0.950 . S
C536 C535 1.414 . S
C536 C537 1.374 . S
C537 H517 0.950 . S
C537 C533 1.385 . S
C537 C536 1.374 . S
C538 C535 1.499 . S
C538 C539 1.373 . S
C538 C540 1.389 . S
C539 H518 0.950 . S
C539 C538 1.373 . S
C539 C555 1.377 . S
C540 C538 1.389 . S
C540 C541 1.524 . S
C540 C554 1.377 . S
C541 C540 1.524 . S
C541 C542 1.397 . S
C541 C546 1.363 . S
C542 H519 0.950 . S
C542 C541 1.397 . S
C542 C543 1.334 . S
C543 H520 0.950 . S
C543 C542 1.334 . S
C543 C544 1.287 . S
C544 C543 1.287 . S
C544 C545 1.524 . S
C544 H563 0.913 . S
C545 H521 0.950 . S
C545 C544 1.524 . S
C545 C546 1.415 . S
C546 H522 0.950 . S
C546 C541 1.363 . S
C546 C545 1.415 . S
C547 H523 0.951 . S
C547 C548 1.366 . S
C547 C549 1.388 . S
C548 C547 1.366 . S
C548 C552 1.385 . S
C549 H524 0.951 . S
C549 C547 1.388 . S
C549 C550 1.366 . S
C550 C549 1.366 . S
C550 C551 1.414 . S
C550 C553 1.499 . S
C551 H525 0.950 . S
C551 C550 1.414 . S
C551 C552 1.374 . S
C552 H526 0.950 . S
C552 C548 1.385 . S
C552 C551 1.374 . S
C553 C550 1.499 . S
C553 C554 1.373 . S
C553 C555 1.389 . S
C554 H527 0.950 . S
C554 C540 1.377 . S
C554 C553 1.373 . S
C555 C539 1.377 . S
C555 C553 1.389 . S
C555 C556 1.524 . S
C556 C555 1.524 . S
C556 C557 1.397 . S
C556 C561 1.363 . S
C557 H528 0.950 . S
C557 C556 1.397 . S
C557 C558 1.334 . S
C558 H529 0.950 . S
C558 C557 1.334 . S
C558 C559 1.287 . S
C559 C558 1.287 . S
C559 C560 1.524 . S
C559 H562 0.999 . S
C560 H530 0.950 . S
C560 C559 1.524 . S
C560 C561 1.415 . S
C561 H531 0.950 . S
C561 C556 1.363 . S
C561 C560 1.415 . S
H562 C559 0.999 . S
H563 C544 0.913 . S
H564 C582 0.951 . S
H565 C584 0.951 . S
H566 C586 0.950 . S
H567 C587 0.950 . S
H568 C589 0.950 . S
H569 C592 0.950 . S
H570 C593 0.950 . S
H571 C595 0.950 . S
H572 C596 0.950 . S
H573 C597 0.951 . S
H574 C599 0.951 . S
H575 C601 0.950 . S
H576 C602 0.950 . S
H577 C604 0.950 . S
H578 C607 0.950 . S
H579 C608 0.950 . S
H580 C610 0.950 . S
H581 C611 0.950 . S
C582 H564 0.951 . S
C582 C583 1.366 . S
C582 C584 1.388 . S
C583 C582 1.366 . S
C583 C587 1.385 . S
C584 H565 0.951 . S
C584 C582 1.388 . S
C584 C585 1.366 . S
C585 C584 1.366 . S
C585 C586 1.414 . S
C585 C588 1.499 . S
C586 H566 0.950 . S
C586 C585 1.414 . S
C586 C587 1.374 . S
C587 H567 0.950 . S
C587 C583 1.385 . S
C587 C586 1.374 . S
C588 C585 1.499 . S
C588 C589 1.373 . S
C588 C590 1.389 . S
C589 H568 0.950 . S
C589 C588 1.373 . S
C589 C605 1.377 . S
C590 C588 1.389 . S
C590 C591 1.524 . S
C590 C604 1.377 . S
C591 C590 1.524 . S
C591 C592 1.397 . S
C591 C596 1.363 . S
C592 H569 0.950 . S
C592 C591 1.397 . S
C592 C593 1.334 . S
C593 H570 0.950 . S
C593 C592 1.334 . S
C593 C594 1.287 . S
C594 C593 1.287 . S
C594 C595 1.524 . S
C594 H613 0.913 1_655 S
C595 H571 0.950 . S
C595 C594 1.524 . S
C595 C596 1.415 . S
C596 H572 0.950 . S
C596 C591 1.363 . S
C596 C595 1.415 . S
C597 H573 0.951 . S
C597 C598 1.366 . S
C597 C599 1.388 . S
C598 C597 1.366 . S
C598 C602 1.385 . S
C599 H574 0.951 . S
C599 C597 1.388 . S
C599 C600 1.366 . S
C600 C599 1.366 . S
C600 C601 1.414 . S
C600 C603 1.499 . S
C601 H575 0.950 . S
C601 C600 1.414 . S
C601 C602 1.374 . S
C602 H576 0.950 . S
C602 C598 1.385 . S
C602 C601 1.374 . S
C603 C600 1.499 . S
C603 C604 1.373 . S
C603 C605 1.389 . S
C604 H577 0.950 . S
C604 C590 1.377 . S
C604 C603 1.373 . S
C605 C589 1.377 . S
C605 C603 1.389 . S
C605 C606 1.524 . S
C606 C605 1.524 . S
C606 C607 1.397 . S
C606 C611 1.363 . S
C607 H578 0.950 . S
C607 C606 1.397 . S
C607 C608 1.334 . S
C608 H579 0.950 . S
C608 C607 1.334 . S
C608 C609 1.287 . S
C609 C608 1.287 . S
C609 C610 1.524 . S
C609 H612 0.999 . S
C610 H580 0.950 . S
C610 C609 1.524 . S
C610 C611 1.415 . S
C611 H581 0.950 . S
C611 C606 1.363 . S
C611 C610 1.415 . S
H612 C609 0.999 . S
H613 C594 0.913 1_455 S
H614 C632 0.951 . S
H615 C634 0.951 . S
H616 C636 0.950 . S
H617 C637 0.950 . S
H618 C639 0.950 . S
H619 C642 0.950 . S
H620 C643 0.950 . S
H621 C645 0.950 . S
H622 C646 0.950 . S
H623 C647 0.951 . S
H624 C649 0.951 . S
H625 C651 0.950 . S
H626 C652 0.950 . S
H627 C654 0.950 . S
H628 C657 0.950 . S
H629 C658 0.950 . S
H630 C660 0.950 . S
H631 C661 0.950 . S
C632 H614 0.951 . S
C632 C633 1.366 . S
C632 C634 1.388 . S
C633 C632 1.366 . S
C633 C637 1.385 . S
C634 H615 0.951 . S
C634 C632 1.388 . S
C634 C635 1.366 . S
C635 C634 1.366 . S
C635 C636 1.414 . S
C635 C638 1.499 . S
C636 H616 0.950 . S
C636 C635 1.414 . S
C636 C637 1.374 . S
C637 H617 0.950 . S
C637 C633 1.385 . S
C637 C636 1.374 . S
C638 C635 1.499 . S
C638 C639 1.373 . S
C638 C640 1.389 . S
C639 H618 0.950 . S
C639 C638 1.373 . S
C639 C655 1.377 . S
C640 C638 1.389 . S
C640 C641 1.524 . S
C640 C654 1.377 . S
C641 C640 1.524 . S
C641 C642 1.397 . S
C641 C646 1.363 . S
C642 H619 0.950 . S
C642 C641 1.397 . S
C642 C643 1.334 . S
C643 H620 0.950 . S
C643 C642 1.334 . S
C643 C644 1.287 . S
C644 C643 1.287 . S
C644 C645 1.524 . S
C644 H663 0.913 . S
C645 H621 0.950 . S
C645 C644 1.524 . S
C645 C646 1.415 . S
C646 H622 0.950 . S
C646 C641 1.363 . S
C646 C645 1.415 . S
C647 H623 0.951 . S
C647 C648 1.366 . S
C647 C649 1.388 . S
C648 C647 1.366 . S
C648 C652 1.385 . S
C649 H624 0.951 . S
C649 C647 1.388 . S
C649 C650 1.366 . S
C650 C649 1.366 . S
C650 C651 1.414 . S
C650 C653 1.499 . S
C651 H625 0.950 . S
C651 C650 1.414 . S
C651 C652 1.374 . S
C652 H626 0.950 . S
C652 C648 1.385 . S
C652 C651 1.374 . S
C653 C650 1.499 . S
C653 C654 1.373 . S
C653 C655 1.389 . S
C654 H627 0.950 . S
C654 C640 1.377 . S
C654 C653 1.373 . S
C655 C639 1.377 . S
C655 C653 1.389 . S
C655 C656 1.524 . S
C656 C655 1.524 . S
C656 C657 1.397 . S
C656 C661 1.363 . S
C657 H628 0.950 . S
C657 C656 1.397 . S
C657 C658 1.334 . S
C658 H629 0.950 . S
C658 C657 1.334 . S
C658 C659 1.287 . S
C659 C658 1.287 . S
C659 C660 1.524 . S
C659 H662 0.999 . S
C660 H630 0.950 . S
C660 C659 1.524 . S
C660 C661 1.415 . S
C661 H631 0.950 . S
C661 C656 1.363 . S
C661 C660 1.415 . S
H662 C659 0.999 . S
H663 C644 0.913 . S
H664 C682 0.951 . S
H665 C684 0.951 . S
H666 C686 0.950 . S
H667 C687 0.950 . S
H668 C689 0.950 . S
H669 C692 0.950 . S
H670 C693 0.950 . S
H671 C695 0.950 . S
H672 C696 0.950 . S
H673 C697 0.951 . S
H674 C699 0.951 . S
H675 C701 0.950 . S
H676 C702 0.950 . S
H677 C704 0.950 . S
H678 C707 0.950 . S
H679 C708 0.950 . S
H680 C710 0.950 . S
H681 C711 0.950 . S
C682 H664 0.951 . S
C682 C683 1.366 . S
C682 C684 1.388 . S
C683 C682 1.366 . S
C683 C687 1.385 . S
C684 H665 0.951 . S
C684 C682 1.388 . S
C684 C685 1.366 . S
C685 C684 1.366 . S
C685 C686 1.414 . S
C685 C688 1.499 . S
C686 H666 0.950 . S
C686 C685 1.414 . S
C686 C687 1.374 . S
C687 H667 0.950 . S
C687 C683 1.385 . S
C687 C686 1.374 . S
C688 C685 1.499 . S
C688 C689 1.373 . S
C688 C690 1.389 . S
C689 H668 0.950 . S
C689 C688 1.373 . S
C689 C705 1.377 . S
C690 C688 1.389 . S
C690 C691 1.524 . S
C690 C704 1.377 . S
C691 C690 1.524 . S
C691 C692 1.397 . S
C691 C696 1.363 . S
C692 H669 0.950 . S
C692 C691 1.397 . S
C692 C693 1.334 . S
C693 H670 0.950 . S
C693 C692 1.334 . S
C693 C694 1.287 . S
C694 C693 1.287 . S
C694 C695 1.524 . S
C694 H713 0.913 . S
C695 H671 0.950 . S
C695 C694 1.524 . S
C695 C696 1.415 . S
C696 H672 0.950 . S
C696 C691 1.363 . S
C696 C695 1.415 . S
C697 H673 0.951 . S
C697 C698 1.366 . S
C697 C699 1.388 . S
C698 C697 1.366 . S
C698 C702 1.385 . S
C699 H674 0.951 . S
C699 C697 1.388 . S
C699 C700 1.366 . S
C700 C699 1.366 . S
C700 C701 1.414 . S
C700 C703 1.499 . S
C701 H675 0.950 . S
C701 C700 1.414 . S
C701 C702 1.374 . S
C702 H676 0.950 . S
C702 C698 1.385 . S
C702 C701 1.374 . S
C703 C700 1.499 . S
C703 C704 1.373 . S
C703 C705 1.389 . S
C704 H677 0.950 . S
C704 C690 1.377 . S
C704 C703 1.373 . S
C705 C689 1.377 . S
C705 C703 1.389 . S
C705 C706 1.524 . S
C706 C705 1.524 . S
C706 C707 1.397 . S
C706 C711 1.363 . S
C707 H678 0.950 . S
C707 C706 1.397 . S
C707 C708 1.334 . S
C708 H679 0.950 . S
C708 C707 1.334 . S
C708 C709 1.287 . S
C709 C708 1.287 . S
C709 C710 1.524 . S
C709 H712 0.999 . S
C710 H680 0.950 . S
C710 C709 1.524 . S
C710 C711 1.415 . S
C711 H681 0.950 . S
C711 C706 1.363 . S
C711 C710 1.415 . S
H712 C709 0.999 . S
H713 C694 0.913 . S
H714 C732 0.951 . S
H715 C734 0.951 . S
H716 C736 0.950 . S
H717 C737 0.950 . S
H718 C739 0.950 . S
H719 C742 0.950 . S
H720 C743 0.950 . S
H721 C745 0.950 . S
H722 C746 0.950 . S
H723 C747 0.951 . S
H724 C749 0.951 . S
H725 C751 0.950 . S
H726 C752 0.950 . S
H727 C754 0.950 . S
H728 C757 0.950 . S
H729 C758 0.950 . S
H730 C760 0.950 . S
H731 C761 0.950 . S
C732 H714 0.951 . S
C732 C733 1.366 . S
C732 C734 1.388 . S
C733 C732 1.366 . S
C733 C737 1.385 . S
C734 H715 0.951 . S
C734 C732 1.388 . S
C734 C735 1.366 . S
C735 C734 1.366 . S
C735 C736 1.414 . S
C735 C738 1.499 . S
C736 H716 0.950 . S
C736 C735 1.414 . S
C736 C737 1.374 . S
C737 H717 0.950 . S
C737 C733 1.385 . S
C737 C736 1.374 . S
C738 C735 1.499 . S
C738 C739 1.373 . S
C738 C740 1.389 . S
C739 H718 0.950 . S
C739 C738 1.373 . S
C739 C755 1.377 . S
C740 C738 1.389 . S
C740 C741 1.524 . S
C740 C754 1.377 . S
C741 C740 1.524 . S
C741 C742 1.397 . S
C741 C746 1.363 . S
C742 H719 0.950 . S
C742 C741 1.397 . S
C742 C743 1.334 . S
C743 H720 0.950 . S
C743 C742 1.334 . S
C743 C744 1.287 . S
C744 C743 1.287 . S
C744 C745 1.524 . S
C744 H763 0.913 . S
C745 H721 0.950 . S
C745 C744 1.524 . S
C745 C746 1.415 . S
C746 H722 0.950 . S
C746 C741 1.363 . S
C746 C745 1.415 . S
C747 H723 0.951 . S
C747 C748 1.366 . S
C747 C749 1.388 . S
C748 C747 1.366 . S
C748 C752 1.385 . S
C749 H724 0.951 . S
C749 C747 1.388 . S
C749 C750 1.366 . S
C750 C749 1.366 . S
C750 C751 1.414 . S
C750 C753 1.499 . S
C751 H725 0.950 . S
C751 C750 1.414 . S
C751 C752 1.374 . S
C752 H726 0.950 . S
C752 C748 1.385 . S
C752 C751 1.374 . S
C753 C750 1.499 . S
C753 C754 1.373 . S
C753 C755 1.389 . S
C754 H727 0.950 . S
C754 C740 1.377 . S
C754 C753 1.373 . S
C755 C739 1.377 . S
C755 C753 1.389 . S
C755 C756 1.524 . S
C756 C755 1.524 . S
C756 C757 1.397 . S
C756 C761 1.363 . S
C757 H728 0.950 . S
C757 C756 1.397 . S
C757 C758 1.334 . S
C758 H729 0.950 . S
C758 C757 1.334 . S
C758 C759 1.287 . S
C759 C758 1.287 . S
C759 C760 1.524 . S
C759 H762 0.999 . S
C760 H730 0.950 . S
C760 C759 1.524 . S
C760 C761 1.415 . S
C761 H731 0.950 . S
C761 C756 1.363 . S
C761 C760 1.415 . S
H762 C759 0.999 . S
H763 C744 0.913 . S
H764 C782 0.951 . S
H765 C784 0.951 . S
H766 C786 0.950 . S
H767 C787 0.950 . S
H768 C789 0.950 . S
H769 C792 0.950 . S
H770 C793 0.950 . S
H771 C795 0.932 1_655 S
H772 C796 0.950 . S
H773 C797 0.951 . S
H774 C799 0.951 . S
H775 C801 0.950 . S
H776 C802 0.950 . S
H777 C804 0.950 . S
H778 C807 0.950 . S
H779 C808 0.950 . S
H780 C810 0.950 . S
H781 C811 0.950 . S
C782 H764 0.951 . S
C782 C783 1.366 . S
C782 C784 1.388 . S
C783 C782 1.366 . S
C783 C787 1.385 . S
C784 H765 0.951 . S
C784 C782 1.388 . S
C784 C785 1.366 . S
C785 C784 1.366 . S
C785 C786 1.414 . S
C785 C788 1.499 . S
C786 H766 0.950 . S
C786 C785 1.414 . S
C786 C787 1.374 . S
C787 H767 0.950 . S
C787 C783 1.385 . S
C787 C786 1.374 . S
C788 C785 1.499 . S
C788 C789 1.373 . S
C788 C790 1.389 . S
C789 H768 0.950 . S
C789 C788 1.373 . S
C789 C805 1.377 . S
C790 C788 1.389 . S
C790 C791 1.524 . S
C790 C804 1.377 . S
C791 C790 1.524 . S
C791 C792 1.397 . S
C791 C796 1.363 . S
C792 H769 0.950 . S
C792 C791 1.397 . S
C792 C793 1.334 . S
C793 H770 0.950 . S
C793 C792 1.334 . S
C793 C794 1.287 . S
C794 C793 1.287 . S
C794 C795 1.530 . S
C794 H813 0.876 1_455 S
C795 H771 0.932 1_455 S
C795 C794 1.530 . S
C795 C796 1.428 . S
C796 H772 0.950 . S
C796 C791 1.363 . S
C796 C795 1.428 . S
C797 H773 0.951 . S
C797 C798 1.366 . S
C797 C799 1.388 . S
C798 C797 1.366 . S
C798 C802 1.385 . S
C799 H774 0.951 . S
C799 C797 1.388 . S
C799 C800 1.366 . S
C800 C799 1.366 . S
C800 C801 1.414 . S
C800 C803 1.499 . S
C801 H775 0.950 . S
C801 C800 1.414 . S
C801 C802 1.374 . S
C802 H776 0.950 . S
C802 C798 1.385 . S
C802 C801 1.374 . S
C803 C800 1.499 . S
C803 C804 1.373 . S
C803 C805 1.389 . S
C804 H777 0.950 . S
C804 C790 1.377 . S
C804 C803 1.373 . S
C805 C789 1.377 . S
C805 C803 1.389 . S
C805 C806 1.524 . S
C806 C805 1.524 . S
C806 C807 1.397 . S
C806 C811 1.363 . S
C807 H778 0.950 . S
C807 C806 1.397 . S
C807 C808 1.334 . S
C808 H779 0.950 . S
C808 C807 1.334 . S
C808 C809 1.287 . S
C809 C808 1.287 . S
C809 C810 1.524 . S
C809 H812 0.999 . S
C810 H780 0.950 . S
C810 C809 1.524 . S
C810 C811 1.415 . S
C811 H781 0.950 . S
C811 C806 1.363 . S
C811 C810 1.415 . S
H812 C809 0.999 . S
H813 C794 0.876 1_655 S
H814 C832 0.951 . S
H815 C834 0.951 . S
H816 C836 0.950 . S
H817 C837 0.950 . S
H818 C839 0.950 . S
H819 C842 0.950 . S
H820 C843 0.933 1_565 S
H821 C845 0.950 . S
H822 C846 0.950 . S
H823 C847 0.951 . S
H824 C849 0.951 . S
H825 C851 0.950 . S
H826 C852 0.950 . S
H827 C854 0.950 . S
H828 C857 0.950 . S
H829 C858 0.950 . S
H830 C860 0.950 . S
H831 C861 0.950 . S
C832 H814 0.951 . S
C832 C833 1.366 . S
C832 C834 1.388 . S
C833 C832 1.366 . S
C833 C837 1.385 . S
C834 H815 0.951 . S
C834 C832 1.388 . S
C834 C835 1.366 . S
C835 C834 1.366 . S
C835 C836 1.414 . S
C835 C838 1.499 . S
C836 H816 0.950 . S
C836 C835 1.414 . S
C836 C837 1.374 . S
C837 H817 0.950 . S
C837 C833 1.385 . S
C837 C836 1.374 . S
C838 C835 1.499 . S
C838 C839 1.373 . S
C838 C840 1.389 . S
C839 H818 0.950 . S
C839 C838 1.373 . S
C839 C855 1.377 . S
C840 C838 1.389 . S
C840 C841 1.524 . S
C840 C854 1.377 . S
C841 C840 1.524 . S
C841 C842 1.397 . S
C841 C846 1.363 . S
C842 H819 0.950 . S
C842 C841 1.397 . S
C842 C843 1.334 . S
C843 H820 0.933 1_545 S
C843 C842 1.334 . S
C843 C844 1.287 . S
C844 C843 1.287 . S
C844 C845 1.524 . S
C844 H863 0.913 1_545 S
C845 H821 0.950 . S
C845 C844 1.524 . S
C845 C846 1.415 . S
C846 H822 0.950 . S
C846 C841 1.363 . S
C846 C845 1.415 . S
C847 H823 0.951 . S
C847 C848 1.366 . S
C847 C849 1.388 . S
C848 C847 1.366 . S
C848 C852 1.385 . S
C849 H824 0.951 . S
C849 C847 1.388 . S
C849 C850 1.366 . S
C850 C849 1.366 . S
C850 C851 1.414 . S
C850 C853 1.499 . S
C851 H825 0.950 . S
C851 C850 1.414 . S
C851 C852 1.374 . S
C852 H826 0.950 . S
C852 C848 1.385 . S
C852 C851 1.374 . S
C853 C850 1.499 . S
C853 C854 1.373 . S
C853 C855 1.389 . S
C854 H827 0.950 . S
C854 C840 1.377 . S
C854 C853 1.373 . S
C855 C839 1.377 . S
C855 C853 1.389 . S
C855 C856 1.524 . S
C856 C855 1.524 . S
C856 C857 1.397 . S
C856 C861 1.363 . S
C857 H828 0.950 . S
C857 C856 1.397 . S
C857 C858 1.334 . S
C858 H829 0.950 . S
C858 C857 1.334 . S
C858 C859 1.287 . S
C859 C858 1.287 . S
C859 C860 1.524 . S
C859 H862 0.999 . S
C860 H830 0.950 . S
C860 C859 1.524 . S
C860 C861 1.415 . S
C861 H831 0.950 . S
C861 C856 1.363 . S
C861 C860 1.415 . S
H862 C859 0.999 . S
H863 C844 0.913 1_565 S
H864 C882 0.951 . S
H865 C884 0.951 . S
H866 C886 0.950 . S
H867 C887 0.950 . S
H868 C889 0.950 . S
H869 C892 0.950 . S
H870 C893 0.950 . S
H871 C895 0.950 . S
H872 C896 0.950 . S
H873 C897 0.951 . S
H874 C899 0.951 . S
H875 C901 0.950 . S
H876 C902 0.950 . S
H877 C904 0.950 . S
H878 C907 0.950 . S
H879 C908 0.950 . S
H880 C910 0.950 . S
H881 C911 0.950 . S
C882 H864 0.951 . S
C882 C883 1.366 . S
C882 C884 1.388 . S
C883 C882 1.366 . S
C883 C887 1.385 . S
C884 H865 0.951 . S
C884 C882 1.388 . S
C884 C885 1.366 . S
C885 C884 1.366 . S
C885 C886 1.414 . S
C885 C888 1.499 . S
C886 H866 0.950 . S
C886 C885 1.414 . S
C886 C887 1.374 . S
C887 H867 0.950 . S
C887 C883 1.385 . S
C887 C886 1.374 . S
C888 C885 1.499 . S
C888 C889 1.373 . S
C888 C890 1.389 . S
C889 H868 0.950 . S
C889 C888 1.373 . S
C889 C905 1.377 . S
C890 C888 1.389 . S
C890 C891 1.524 . S
C890 C904 1.377 . S
C891 C890 1.524 . S
C891 C892 1.397 . S
C891 C896 1.363 . S
C892 H869 0.950 . S
C892 C891 1.397 . S
C892 C893 1.334 . S
C893 H870 0.950 . S
C893 C892 1.334 . S
C893 C894 1.287 . S
C894 C893 1.287 . S
C894 C895 1.524 . S
C894 H913 0.913 . S
C895 H871 0.950 . S
C895 C894 1.524 . S
C895 C896 1.415 . S
C896 H872 0.950 . S
C896 C891 1.363 . S
C896 C895 1.415 . S
C897 H873 0.951 . S
C897 C898 1.366 . S
C897 C899 1.388 1_554 S
C898 C897 1.366 . S
C898 C902 1.385 . S
C899 H874 0.951 . S
C899 C897 1.388 1_556 S
C899 C900 1.366 . S
C900 C899 1.366 . S
C900 C901 1.414 . S
C900 C903 1.499 . S
C901 H875 0.950 . S
C901 C900 1.414 . S
C901 C902 1.374 1_556 S
C902 H876 0.950 . S
C902 C898 1.385 . S
C902 C901 1.374 1_554 S
C903 C900 1.499 . S
C903 C904 1.373 . S
C903 C905 1.389 . S
C904 H877 0.950 . S
C904 C890 1.377 . S
C904 C903 1.373 . S
C905 C889 1.377 . S
C905 C903 1.389 . S
C905 C906 1.524 . S
C906 C905 1.524 . S
C906 C907 1.397 . S
C906 C911 1.363 . S
C907 H878 0.950 . S
C907 C906 1.397 . S
C907 C908 1.334 . S
C908 H879 0.950 . S
C908 C907 1.334 . S
C908 C909 1.287 . S
C909 C908 1.287 . S
C909 C910 1.524 . S
C909 H912 0.999 . S
C910 H880 0.950 . S
C910 C909 1.524 . S
C910 C911 1.415 . S
C911 H881 0.950 . S
C911 C906 1.363 . S
C911 C910 1.415 . S
H912 C909 0.999 . S
H913 C894 0.913 . S
H914 C932 0.951 . S
H915 C934 0.951 . S
H916 C936 0.950 . S
H917 C937 0.950 . S
H918 C939 0.950 . S
H919 C942 0.950 . S
H920 C943 0.950 . S
H921 C945 0.950 . S
H922 C946 0.950 . S
H923 C947 0.951 . S
H924 C949 0.951 . S
H925 C951 0.950 . S
H926 C952 0.950 . S
H927 C954 0.950 . S
H928 C957 0.950 . S
H929 C958 0.950 . S
H930 C960 0.950 . S
H931 C961 0.950 . S
C932 H914 0.951 . S
C932 C933 1.366 . S
C932 C934 1.388 . S
C933 C932 1.366 . S
C933 C937 1.385 . S
C934 H915 0.951 . S
C934 C932 1.388 . S
C934 C935 1.366 . S
C935 C934 1.366 . S
C935 C936 1.414 . S
C935 C938 1.499 . S
C936 H916 0.950 . S
C936 C935 1.414 . S
C936 C937 1.374 . S
C937 H917 0.950 . S
C937 C933 1.385 . S
C937 C936 1.374 . S
C938 C935 1.499 . S
C938 C939 1.373 . S
C938 C940 1.389 . S
C939 H918 0.950 . S
C939 C938 1.373 . S
C939 C955 1.377 . S
C940 C938 1.389 . S
C940 C941 1.524 . S
C940 C954 1.377 . S
C941 C940 1.524 . S
C941 C942 1.397 . S
C941 C946 1.363 . S
C942 H919 0.950 . S
C942 C941 1.397 . S
C942 C943 1.334 . S
C943 H920 0.950 . S
C943 C942 1.334 . S
C943 C944 1.287 . S
C944 C943 1.287 . S
C944 C945 1.524 . S
C944 H963 0.913 . S
C945 H921 0.950 . S
C945 C944 1.524 . S
C945 C946 1.415 . S
C946 H922 0.950 . S
C946 C941 1.363 . S
C946 C945 1.415 . S
C947 H923 0.951 . S
C947 C948 1.366 . S
C947 C949 1.388 . S
C948 C947 1.366 . S
C948 C952 1.385 . S
C949 H924 0.951 . S
C949 C947 1.388 . S
C949 C950 1.366 . S
C950 C949 1.366 . S
C950 C951 1.414 . S
C950 C953 1.499 . S
C951 H925 0.950 . S
C951 C950 1.414 . S
C951 C952 1.374 . S
C952 H926 0.950 . S
C952 C948 1.385 . S
C952 C951 1.374 . S
C953 C950 1.499 . S
C953 C954 1.373 . S
C953 C955 1.389 . S
C954 H927 0.950 . S
C954 C940 1.377 . S
C954 C953 1.373 . S
C955 C939 1.377 . S
C955 C953 1.389 . S
C955 C956 1.524 . S
C956 C955 1.524 . S
C956 C957 1.397 . S
C956 C961 1.363 . S
C957 H928 0.950 . S
C957 C956 1.397 . S
C957 C958 1.334 . S
C958 H929 0.950 . S
C958 C957 1.334 . S
C958 C959 1.287 . S
C959 C958 1.287 . S
C959 C960 1.524 . S
C959 H962 0.999 . S
C960 H930 0.950 . S
C960 C959 1.524 . S
C960 C961 1.415 . S
C961 H931 0.950 . S
C961 C956 1.363 . S
C961 C960 1.415 . S
H962 C959 0.999 . S
H963 C944 0.913 . S
H964 C982 0.951 . S
H965 C984 0.951 . S
H966 C986 0.950 . S
H967 C987 0.950 . S
H968 C989 0.950 . S
H969 C992 0.950 . S
H970 C993 0.950 . S
H971 C995 0.950 . S
H972 C996 0.950 . S
H973 C997 0.951 . S
H974 C999 0.951 . S
H975 C1001 0.950 . S
H976 C1002 0.950 . S
H977 C1004 0.950 . S
H978 C1007 0.950 . S
H979 C1008 0.950 . S
H980 C1010 0.950 . S
H981 C1011 0.950 . S
C982 H964 0.951 . S
C982 C983 1.366 . S
C982 C984 1.388 1_554 S
C983 C982 1.366 . S
C983 C987 1.385 . S
C984 H965 0.951 . S
C984 C982 1.388 1_556 S
C984 C985 1.366 . S
C985 C984 1.366 . S
C985 C986 1.414 . S
C985 C988 1.499 . S
C986 H966 0.950 . S
C986 C985 1.414 . S
C986 C987 1.374 1_556 S
C987 H967 0.950 . S
C987 C983 1.385 . S
C987 C986 1.374 1_554 S
C988 C985 1.499 . S
C988 C989 1.373 . S
C988 C990 1.389 . S
C989 H968 0.950 . S
C989 C988 1.373 . S
C989 C1005 1.377 . S
C990 C988 1.389 . S
C990 C991 1.524 . S
C990 C1004 1.377 . S
C991 C990 1.524 . S
C991 C992 1.397 . S
C991 C996 1.363 . S
C992 H969 0.950 . S
C992 C991 1.397 . S
C992 C993 1.334 . S
C993 H970 0.950 . S
C993 C992 1.334 . S
C993 C994 1.287 . S
C994 C993 1.287 . S
C994 C995 1.524 . S
C994 H1013 0.913 1_655 S
C995 H971 0.950 . S
C995 C994 1.524 . S
C995 C996 1.415 . S
C996 H972 0.950 . S
C996 C991 1.363 . S
C996 C995 1.415 . S
C997 H973 0.951 . S
C997 C998 1.366 . S
C997 C999 1.388 . S
C998 C997 1.366 . S
C998 C1002 1.385 . S
C999 H974 0.951 . S
C999 C997 1.388 . S
C999 C1000 1.366 . S
C1000 C999 1.366 . S
C1000 C1001 1.414 . S
C1000 C1003 1.499 . S
C1001 H975 0.950 . S
C1001 C1000 1.414 . S
C1001 C1002 1.374 . S
C1002 H976 0.950 . S
C1002 C998 1.385 . S
C1002 C1001 1.374 . S
C1003 C1000 1.499 . S
C1003 C1004 1.373 . S
C1003 C1005 1.389 . S
C1004 H977 0.950 . S
C1004 C990 1.377 . S
C1004 C1003 1.373 . S
C1005 C989 1.377 . S
C1005 C1003 1.389 . S
C1005 C1006 1.524 . S
C1006 C1005 1.524 . S
C1006 C1007 1.397 . S
C1006 C1011 1.363 . S
C1007 H978 0.950 . S
C1007 C1006 1.397 . S
C1007 C1008 1.334 . S
C1008 H979 0.950 . S
C1008 C1007 1.334 . S
C1008 C1009 1.287 . S
C1009 C1008 1.287 . S
C1009 C1010 1.524 . S
C1009 H1012 0.999 . S
C1010 H980 0.950 . S
C1010 C1009 1.524 . S
C1010 C1011 1.415 . S
C1011 H981 0.950 . S
C1011 C1006 1.363 . S
C1011 C1010 1.415 . S
H1012 C1009 0.999 . S
H1013 C994 0.913 1_455 S
H1014 C1032 0.951 . S
H1015 C1034 0.951 . S
H1016 C1036 0.950 . S
H1017 C1037 0.950 . S
H1018 C1039 0.950 . S
H1019 C1042 0.950 . S
H1020 C1043 0.950 . S
H1021 C1045 0.950 . S
H1022 C1046 0.950 . S
H1023 C1047 0.951 . S
H1024 C1049 0.951 . S
H1025 C1051 0.950 . S
H1026 C1052 0.950 . S
H1027 C1054 0.950 . S
H1028 C1057 0.950 . S
H1029 C1058 0.950 . S
H1030 C1060 0.950 . S
H1031 C1061 0.950 . S
C1032 H1014 0.951 . S
C1032 C1033 1.366 . S
C1032 C1034 1.388 . S
C1033 C1032 1.366 . S
C1033 C1037 1.385 . S
C1034 H1015 0.951 . S
C1034 C1032 1.388 . S
C1034 C1035 1.366 . S
C1035 C1034 1.366 . S
C1035 C1036 1.414 . S
C1035 C1038 1.499 . S
C1036 H1016 0.950 . S
C1036 C1035 1.414 . S
C1036 C1037 1.374 . S
C1037 H1017 0.950 . S
C1037 C1033 1.385 . S
C1037 C1036 1.374 . S
C1038 C1035 1.499 . S
C1038 C1039 1.373 . S
C1038 C1040 1.389 . S
C1039 H1018 0.950 . S
C1039 C1038 1.373 . S
C1039 C1055 1.377 . S
C1040 C1038 1.389 . S
C1040 C1041 1.524 . S
C1040 C1054 1.377 . S
C1041 C1040 1.524 . S
C1041 C1042 1.397 . S
C1041 C1046 1.363 . S
C1042 H1019 0.950 . S
C1042 C1041 1.397 . S
C1042 C1043 1.334 . S
C1043 H1020 0.950 . S
C1043 C1042 1.334 . S
C1043 C1044 1.287 . S
C1044 C1043 1.287 . S
C1044 C1045 1.524 . S
C1044 H1063 0.913 . S
C1045 H1021 0.950 . S
C1045 C1044 1.524 . S
C1045 C1046 1.415 . S
C1046 H1022 0.950 . S
C1046 C1041 1.363 . S
C1046 C1045 1.415 . S
C1047 H1023 0.951 . S
C1047 C1048 1.366 . S
C1047 C1049 1.388 . S
C1048 C1047 1.366 . S
C1048 C1052 1.385 . S
C1049 H1024 0.951 . S
C1049 C1047 1.388 . S
C1049 C1050 1.366 . S
C1050 C1049 1.366 . S
C1050 C1051 1.414 . S
C1050 C1053 1.499 . S
C1051 H1025 0.950 . S
C1051 C1050 1.414 . S
C1051 C1052 1.374 . S
C1052 H1026 0.950 . S
C1052 C1048 1.385 . S
C1052 C1051 1.374 . S
C1053 C1050 1.499 . S
C1053 C1054 1.373 . S
C1053 C1055 1.389 . S
C1054 H1027 0.950 . S
C1054 C1040 1.377 . S
C1054 C1053 1.373 . S
C1055 C1039 1.377 . S
C1055 C1053 1.389 . S
C1055 C1056 1.524 . S
C1056 C1055 1.524 . S
C1056 C1057 1.397 . S
C1056 C1061 1.363 . S
C1057 H1028 0.950 . S
C1057 C1056 1.397 . S
C1057 C1058 1.334 . S
C1058 H1029 0.950 . S
C1058 C1057 1.334 . S
C1058 C1059 1.287 . S
C1059 C1058 1.287 . S
C1059 C1060 1.524 . S
C1059 H1062 0.999 . S
C1060 H1030 0.950 . S
C1060 C1059 1.524 . S
C1060 C1061 1.415 . S
C1061 H1031 0.950 . S
C1061 C1056 1.363 . S
C1061 C1060 1.415 . S
H1062 C1059 0.999 . S
H1063 C1044 0.913 . S
H1064 C1082 0.951 . S
H1065 C1084 0.951 . S
H1066 C1086 0.950 . S
H1067 C1087 0.950 . S
H1068 C1089 0.950 . S
H1069 C1092 0.950 . S
H1070 C1093 0.950 . S
H1071 C1095 0.950 . S
H1072 C1096 0.950 . S
H1073 C1097 0.951 . S
H1074 C1099 0.951 . S
H1075 C1101 0.950 . S
H1076 C1102 0.950 . S
H1077 C1104 0.950 . S
H1078 C1107 0.950 . S
H1079 C1108 0.950 . S
H1080 C1110 0.950 . S
H1081 C1111 0.950 . S
C1082 H1064 0.951 . S
C1082 C1083 1.366 . S
C1082 C1084 1.388 . S
C1083 C1082 1.366 . S
C1083 C1087 1.385 . S
C1084 H1065 0.951 . S
C1084 C1082 1.388 . S
C1084 C1085 1.366 . S
C1085 C1084 1.366 . S
C1085 C1086 1.414 . S
C1085 C1088 1.499 . S
C1086 H1066 0.950 . S
C1086 C1085 1.414 . S
C1086 C1087 1.374 . S
C1087 H1067 0.950 . S
C1087 C1083 1.385 . S
C1087 C1086 1.374 . S
C1088 C1085 1.499 . S
C1088 C1089 1.373 . S
C1088 C1090 1.389 . S
C1089 H1068 0.950 . S
C1089 C1088 1.373 . S
C1089 C1105 1.377 . S
C1090 C1088 1.389 . S
C1090 C1091 1.524 . S
C1090 C1104 1.377 . S
C1091 C1090 1.524 . S
C1091 C1092 1.397 . S
C1091 C1096 1.363 . S
C1092 H1069 0.950 . S
C1092 C1091 1.397 . S
C1092 C1093 1.334 . S
C1093 H1070 0.950 . S
C1093 C1092 1.334 . S
C1093 C1094 1.287 . S
C1094 C1093 1.287 . S
C1094 C1095 1.524 . S
C1094 H1113 0.913 . S
C1095 H1071 0.950 . S
C1095 C1094 1.524 . S
C1095 C1096 1.415 . S
C1096 H1072 0.950 . S
C1096 C1091 1.363 . S
C1096 C1095 1.415 . S
C1097 H1073 0.951 . S
C1097 C1098 1.366 . S
C1097 C1099 1.388 . S
C1098 C1097 1.366 . S
C1098 C1102 1.385 . S
C1099 H1074 0.951 . S
C1099 C1097 1.388 . S
C1099 C1100 1.366 . S
C1100 C1099 1.366 . S
C1100 C1101 1.414 . S
C1100 C1103 1.499 . S
C1101 H1075 0.950 . S
C1101 C1100 1.414 . S
C1101 C1102 1.374 . S
C1102 H1076 0.950 . S
C1102 C1098 1.385 . S
C1102 C1101 1.374 . S
C1103 C1100 1.499 . S
C1103 C1104 1.373 . S
C1103 C1105 1.389 . S
C1104 H1077 0.950 . S
C1104 C1090 1.377 . S
C1104 C1103 1.373 . S
C1105 C1089 1.377 . S
C1105 C1103 1.389 . S
C1105 C1106 1.524 . S
C1106 C1105 1.524 . S
C1106 C1107 1.397 . S
C1106 C1111 1.363 . S
C1107 H1078 0.950 . S
C1107 C1106 1.397 . S
C1107 C1108 1.334 . S
C1108 H1079 0.950 . S
C1108 C1107 1.334 . S
C1108 C1109 1.287 . S
C1109 C1108 1.287 . S
C1109 C1110 1.524 . S
C1109 H1112 0.999 . S
C1110 H1080 0.950 . S
C1110 C1109 1.524 . S
C1110 C1111 1.415 . S
C1111 H1081 0.950 . S
C1111 C1106 1.363 . S
C1111 C1110 1.415 . S
H1112 C1109 0.999 . S
H1113 C1094 0.913 . S
H1114 C1132 0.951 . S
H1115 C1134 0.951 . S
H1116 C1136 0.950 . S
H1117 C1137 0.950 . S
H1118 C1139 0.950 . S
H1119 C1142 0.950 . S
H1120 C1143 0.950 . S
H1121 C1145 0.950 . S
H1122 C1146 0.950 . S
H1123 C1147 0.951 . S
H1124 C1149 0.951 . S
H1125 C1151 0.950 . S
H1126 C1152 0.950 . S
H1127 C1154 0.950 . S
H1128 C1157 0.950 . S
H1129 C1158 0.950 . S
H1130 C1160 0.950 . S
H1131 C1161 0.950 . S
C1132 H1114 0.951 . S
C1132 C1133 1.366 . S
C1132 C1134 1.388 1_556 S
C1133 C1132 1.366 . S
C1133 C1137 1.385 . S
C1134 H1115 0.951 . S
C1134 C1132 1.388 1_554 S
C1134 C1135 1.366 . S
C1135 C1134 1.366 . S
C1135 C1136 1.414 . S
C1135 C1138 1.499 . S
C1136 H1116 0.950 . S
C1136 C1135 1.414 . S
C1136 C1137 1.374 1_554 S
C1137 H1117 0.950 . S
C1137 C1133 1.385 . S
C1137 C1136 1.374 1_556 S
C1138 C1135 1.499 . S
C1138 C1139 1.373 . S
C1138 C1140 1.389 . S
C1139 H1118 0.950 . S
C1139 C1138 1.373 . S
C1139 C1155 1.377 . S
C1140 C1138 1.389 . S
C1140 C1141 1.524 . S
C1140 C1154 1.377 . S
C1141 C1140 1.524 . S
C1141 C1142 1.397 . S
C1141 C1146 1.363 . S
C1142 H1119 0.950 . S
C1142 C1141 1.397 . S
C1142 C1143 1.334 . S
C1143 H1120 0.950 . S
C1143 C1142 1.334 . S
C1143 C1144 1.287 . S
C1144 C1143 1.287 . S
C1144 C1145 1.524 . S
C1144 H1163 0.913 . S
C1145 H1121 0.950 . S
C1145 C1144 1.524 . S
C1145 C1146 1.415 . S
C1146 H1122 0.950 . S
C1146 C1141 1.363 . S
C1146 C1145 1.415 . S
C1147 H1123 0.951 . S
C1147 C1148 1.366 . S
C1147 C1149 1.388 . S
C1148 C1147 1.366 . S
C1148 C1152 1.385 . S
C1149 H1124 0.951 . S
C1149 C1147 1.388 . S
C1149 C1150 1.366 . S
C1150 C1149 1.366 . S
C1150 C1151 1.414 . S
C1150 C1153 1.499 . S
C1151 H1125 0.950 . S
C1151 C1150 1.414 . S
C1151 C1152 1.374 . S
C1152 H1126 0.950 . S
C1152 C1148 1.385 . S
C1152 C1151 1.374 . S
C1153 C1150 1.499 . S
C1153 C1154 1.373 . S
C1153 C1155 1.389 . S
C1154 H1127 0.950 . S
C1154 C1140 1.377 . S
C1154 C1153 1.373 . S
C1155 C1139 1.377 . S
C1155 C1153 1.389 . S
C1155 C1156 1.524 . S
C1156 C1155 1.524 . S
C1156 C1157 1.397 . S
C1156 C1161 1.363 . S
C1157 H1128 0.950 . S
C1157 C1156 1.397 . S
C1157 C1158 1.334 . S
C1158 H1129 0.950 . S
C1158 C1157 1.334 . S
C1158 C1159 1.287 . S
C1159 C1158 1.287 . S
C1159 C1160 1.524 . S
C1159 H1162 0.999 . S
C1160 H1130 0.950 . S
C1160 C1159 1.524 . S
C1160 C1161 1.415 . S
C1161 H1131 0.950 . S
C1161 C1156 1.363 . S
C1161 C1160 1.415 . S
H1162 C1159 0.999 . S
H1163 C1144 0.913 . S
H1164 C1182 0.951 . S
H1165 C1184 0.951 . S
H1166 C1186 0.950 . S
H1167 C1187 0.950 . S
H1168 C1189 0.950 . S
H1169 C1192 0.950 . S
H1170 C1193 0.950 . S
H1171 C1195 0.950 1_455 S
H1172 C1196 0.950 . S
H1173 C1197 0.951 . S
H1174 C1199 0.951 . S
H1175 C1201 0.950 . S
H1176 C1202 0.950 . S
H1177 C1204 0.950 . S
H1178 C1207 0.950 . S
H1179 C1208 0.950 . S
H1180 C1210 0.950 . S
H1181 C1211 0.950 . S
C1182 H1164 0.951 . S
C1182 C1183 1.366 . S
C1182 C1184 1.388 . S
C1183 C1182 1.366 . S
C1183 C1187 1.385 . S
C1184 H1165 0.951 . S
C1184 C1182 1.388 . S
C1184 C1185 1.366 . S
C1185 C1184 1.366 . S
C1185 C1186 1.414 . S
C1185 C1188 1.499 . S
C1186 H1166 0.950 . S
C1186 C1185 1.414 . S
C1186 C1187 1.374 . S
C1187 H1167 0.950 . S
C1187 C1183 1.385 . S
C1187 C1186 1.374 . S
C1188 C1185 1.499 . S
C1188 C1189 1.373 . S
C1188 C1190 1.389 . S
C1189 H1168 0.950 . S
C1189 C1188 1.373 . S
C1189 C1205 1.377 . S
C1190 C1188 1.389 . S
C1190 C1191 1.524 . S
C1190 C1204 1.377 . S
C1191 C1190 1.524 . S
C1191 C1192 1.397 . S
C1191 C1196 1.363 . S
C1192 H1169 0.950 . S
C1192 C1191 1.397 . S
C1192 C1193 1.334 . S
C1193 H1170 0.950 . S
C1193 C1192 1.334 . S
C1193 C1194 1.287 . S
C1194 C1193 1.287 . S
C1194 C1195 1.524 . S
C1194 H1213 0.913 1_655 S
C1195 H1171 0.950 1_655 S
C1195 C1194 1.524 . S
C1195 C1196 1.415 . S
C1196 H1172 0.950 . S
C1196 C1191 1.363 . S
C1196 C1195 1.415 . S
C1197 H1173 0.951 . S
C1197 C1198 1.366 . S
C1197 C1199 1.388 . S
C1198 C1197 1.366 . S
C1198 C1202 1.385 . S
C1199 H1174 0.951 . S
C1199 C1197 1.388 . S
C1199 C1200 1.366 . S
C1200 C1199 1.366 . S
C1200 C1201 1.414 . S
C1200 C1203 1.499 . S
C1201 H1175 0.950 . S
C1201 C1200 1.414 . S
C1201 C1202 1.374 . S
C1202 H1176 0.950 . S
C1202 C1198 1.385 . S
C1202 C1201 1.374 . S
C1203 C1200 1.499 . S
C1203 C1204 1.373 . S
C1203 C1205 1.389 . S
C1204 H1177 0.950 . S
C1204 C1190 1.377 . S
C1204 C1203 1.373 . S
C1205 C1189 1.377 . S
C1205 C1203 1.389 . S
C1205 C1206 1.524 . S
C1206 C1205 1.524 . S
C1206 C1207 1.397 . S
C1206 C1211 1.363 . S
C1207 H1178 0.950 . S
C1207 C1206 1.397 . S
C1207 C1208 1.334 . S
C1208 H1179 0.950 . S
C1208 C1207 1.334 . S
C1208 C1209 1.287 . S
C1209 C1208 1.287 . S
C1209 C1210 1.524 . S
C1209 H1212 0.999 . S
C1210 H1180 0.950 . S
C1210 C1209 1.524 . S
C1210 C1211 1.415 . S
C1211 H1181 0.950 . S
C1211 C1206 1.363 . S
C1211 C1210 1.415 . S
H1212 C1209 0.999 . S
H1213 C1194 0.913 1_455 S
H1214 C1232 0.951 . S
H1215 C1234 0.951 . S
H1216 C1236 0.950 . S
H1217 C1237 0.950 . S
H1218 C1239 0.950 . S
H1219 C1242 0.950 . S
H1220 C1243 0.950 . S
H1221 C1245 0.950 . S
H1222 C1246 0.950 . S
H1223 C1247 0.951 . S
H1224 C1249 0.951 . S
H1225 C1251 0.950 . S
H1226 C1252 0.950 . S
H1227 C1254 0.950 . S
H1228 C1257 0.950 . S
H1229 C1258 0.950 . S
H1230 C1260 0.950 . S
H1231 C1261 0.950 . S
C1232 H1214 0.951 . S
C1232 C1233 1.366 . S
C1232 C1234 1.388 . S
C1233 C1232 1.366 . S
C1233 C1237 1.385 . S
C1234 H1215 0.951 . S
C1234 C1232 1.388 . S
C1234 C1235 1.366 . S
C1235 C1234 1.366 . S
C1235 C1236 1.414 . S
C1235 C1238 1.499 . S
C1236 H1216 0.950 . S
C1236 C1235 1.414 . S
C1236 C1237 1.374 . S
C1237 H1217 0.950 . S
C1237 C1233 1.385 . S
C1237 C1236 1.374 . S
C1238 C1235 1.499 . S
C1238 C1239 1.373 . S
C1238 C1240 1.389 . S
C1239 H1218 0.950 . S
C1239 C1238 1.373 . S
C1239 C1255 1.377 . S
C1240 C1238 1.389 . S
C1240 C1241 1.524 . S
C1240 C1254 1.377 . S
C1241 C1240 1.524 . S
C1241 C1242 1.397 . S
C1241 C1246 1.363 . S
C1242 H1219 0.950 . S
C1242 C1241 1.397 . S
C1242 C1243 1.334 . S
C1243 H1220 0.950 . S
C1243 C1242 1.334 . S
C1243 C1244 1.287 . S
C1244 C1243 1.287 . S
C1244 C1245 1.524 . S
C1244 H1263 0.913 . S
C1245 H1221 0.950 . S
C1245 C1244 1.524 . S
C1245 C1246 1.415 . S
C1246 H1222 0.950 . S
C1246 C1241 1.363 . S
C1246 C1245 1.415 . S
C1247 H1223 0.951 . S
C1247 C1248 1.366 . S
C1247 C1249 1.388 1_556 S
C1248 C1247 1.366 . S
C1248 C1252 1.385 . S
C1249 H1224 0.951 . S
C1249 C1247 1.388 1_554 S
C1249 C1250 1.366 . S
C1250 C1249 1.366 . S
C1250 C1251 1.414 . S
C1250 C1253 1.499 . S
C1251 H1225 0.950 . S
C1251 C1250 1.414 . S
C1251 C1252 1.374 1_554 S
C1252 H1226 0.950 . S
C1252 C1248 1.385 . S
C1252 C1251 1.374 1_556 S
C1253 C1250 1.499 . S
C1253 C1254 1.373 . S
C1253 C1255 1.389 . S
C1254 H1227 0.950 . S
C1254 C1240 1.377 . S
C1254 C1253 1.373 . S
C1255 C1239 1.377 . S
C1255 C1253 1.389 . S
C1255 C1256 1.524 . S
C1256 C1255 1.524 . S
C1256 C1257 1.397 . S
C1256 C1261 1.363 . S
C1257 H1228 0.950 . S
C1257 C1256 1.397 . S
C1257 C1258 1.334 . S
C1258 H1229 0.950 . S
C1258 C1257 1.334 . S
C1258 C1259 1.287 . S
C1259 C1258 1.287 . S
C1259 C1260 1.524 . S
C1259 H1262 0.999 . S
C1260 H1230 0.950 . S
C1260 C1259 1.524 . S
C1260 C1261 1.415 . S
C1261 H1231 0.950 . S
C1261 C1256 1.363 . S
C1261 C1260 1.415 . S
H1262 C1259 0.999 . S
H1263 C1244 0.913 . S
C283 C239 0.912 . S
C298 C8 0.912 . S
C333 C140 0.912 . S
C348 C41 0.912 . S
C383 C74 0.911 . S
C398 C173 0.911 . S
C433 C206 0.912 . S
C448 C107 0.912 . S
C483 C28 1.416 . S
C498 C160 1.416 . S
C533 C193 1.416 . S
C548 C61 1.416 . S
C583 C226 1.416 . S
C598 C94 1.416 . S
C633 C259 1.416 . S
C648 C127 1.416 . S
C683 C248 1.513 . S
C698 C50 1.513 . S
C733 C83 1.513 . S
C748 C149 1.513 . S
C783 C116 1.513 . S
C798 C182 1.513 . S
C833 C215 1.513 . S
C848 C17 1.514 . S
C883 N14 1.209 . S
C898 N5 1.212 . S
C933 N38 1.212 . S
C948 N47 1.221 . S
C983 N71 1.213 . S
C998 N80 1.210 . S
C1033 N113 1.221 . S
C1048 N104 1.212 . S
C1083 N137 1.212 . S
C1098 N146 1.222 . S
C1133 N170 1.212 . S
C1148 N179 1.210 . S
C1183 N203 1.213 . S
C1198 N212 1.222 . S
C1233 N245 1.210 . S
C1248 N236 1.213 . S
