# Generated by pormake.
# Topology uoa, (4)-cn, num edge types: 1
# Building blocks:
#     Node 0, Type 0, BuildingBlock: KOZSID_clean_sbu_0, # of connection points: 4
#     Node 1, Type 0, BuildingBlock: KOZSID_clean_sbu_0, # of connection points: 4
#     Node 2, Type 0, BuildingBlock: KOZSID_clean_sbu_0, # of connection points: 4
#     Node 3, Type 0, BuildingBlock: KOZSID_clean_sbu_0, # of connection points: 4
#     Node 4, Type 0, BuildingBlock: KOZSID_clean_sbu_0, # of connection points: 4
#     Node 5, Type 0, BuildingBlock: KOZSID_clean_sbu_0, # of connection points: 4
#     Node 6, Type 0, BuildingBlock: KOZSID_clean_sbu_0, # of connection points: 4
#     Node 7, Type 0, BuildingBlock: KOZSID_clean_sbu_0, # of connection points: 4
#     Node 8, Type 0, BuildingBlock: KOZSID_clean_sbu_0, # of connection points: 4
#     Node 9, Type 0, BuildingBlock: KOZSID_clean_sbu_0, # of connection points: 4
#     Node 10, Type 0, BuildingBlock: KOZSID_clean_sbu_0, # of connection points: 4
#     Node 11, Type 0, BuildingBlock: KOZSID_clean_sbu_0, # of connection points: 4
#     Node 12, Type 0, BuildingBlock: KOZSID_clean_sbu_0, # of connection points: 4
#     Node 13, Type 0, BuildingBlock: KOZSID_clean_sbu_0, # of connection points: 4
#     Node 14, Type 0, BuildingBlock: KOZSID_clean_sbu_0, # of connection points: 4
#     Node 15, Type 0, BuildingBlock: KOZSID_clean_sbu_0, # of connection points: 4
#     Node 16, Type 0, BuildingBlock: KOZSID_clean_sbu_0, # of connection points: 4
#     Node 17, Type 0, BuildingBlock: KOZSID_clean_sbu_0, # of connection points: 4
#     Node 18, Type 0, BuildingBlock: KOZSID_clean_sbu_0, # of connection points: 4
#     Node 19, Type 0, BuildingBlock: KOZSID_clean_sbu_0, # of connection points: 4
#     Node 20, Type 0, BuildingBlock: KOZSID_clean_sbu_0, # of connection points: 4
#     Node 21, Type 0, BuildingBlock: KOZSID_clean_sbu_0, # of connection points: 4
#     Node 22, Type 0, BuildingBlock: KOZSID_clean_sbu_0, # of connection points: 4
#     Node 23, Type 0, BuildingBlock: KOZSID_clean_sbu_0, # of connection points: 4
#     Node 24, Type 0, BuildingBlock: KOZSID_clean_sbu_0, # of connection points: 4
#     Node 25, Type 0, BuildingBlock: KOZSID_clean_sbu_0, # of connection points: 4
#     Node 26, Type 0, BuildingBlock: KOZSID_clean_sbu_0, # of connection points: 4
#     Node 27, Type 0, BuildingBlock: KOZSID_clean_sbu_0, # of connection points: 4
#     Node 28, Type 0, BuildingBlock: KOZSID_clean_sbu_0, # of connection points: 4
#     Node 29, Type 0, BuildingBlock: KOZSID_clean_sbu_0, # of connection points: 4
#     Node 30, Type 0, BuildingBlock: KOZSID_clean_sbu_0, # of connection points: 4
#     Node 31, Type 0, BuildingBlock: KOZSID_clean_sbu_0, # of connection points: 4
#     Edge 32, Type (0, 0), BuildingBlock: CIFDUS_clean_linker_0, # of connection points: 2
#     Edge 33, Type (0, 0), BuildingBlock: CIFDUS_clean_linker_0, # of connection points: 2
#     Edge 34, Type (0, 0), BuildingBlock: CIFDUS_clean_linker_0, # of connection points: 2
#     Edge 35, Type (0, 0), BuildingBlock: CIFDUS_clean_linker_0, # of connection points: 2
#     Edge 36, Type (0, 0), BuildingBlock: CIFDUS_clean_linker_0, # of connection points: 2
#     Edge 37, Type (0, 0), BuildingBlock: CIFDUS_clean_linker_0, # of connection points: 2
#     Edge 38, Type (0, 0), BuildingBlock: CIFDUS_clean_linker_0, # of connection points: 2
#     Edge 39, Type (0, 0), BuildingBlock: CIFDUS_clean_linker_0, # of connection points: 2
#     Edge 40, Type (0, 0), BuildingBlock: CIFDUS_clean_linker_0, # of connection points: 2
#     Edge 41, Type (0, 0), BuildingBlock: CIFDUS_clean_linker_0, # of connection points: 2
#     Edge 42, Type (0, 0), BuildingBlock: CIFDUS_clean_linker_0, # of connection points: 2
#     Edge 43, Type (0, 0), BuildingBlock: CIFDUS_clean_linker_0, # of connection points: 2
#     Edge 44, Type (0, 0), BuildingBlock: CIFDUS_clean_linker_0, # of connection points: 2
#     Edge 45, Type (0, 0), BuildingBlock: CIFDUS_clean_linker_0, # of connection points: 2
#     Edge 46, Type (0, 0), BuildingBlock: CIFDUS_clean_linker_0, # of connection points: 2
#     Edge 47, Type (0, 0), BuildingBlock: CIFDUS_clean_linker_0, # of connection points: 2
#     Edge 48, Type (0, 0), BuildingBlock: CIFDUS_clean_linker_0, # of connection points: 2
#     Edge 49, Type (0, 0), BuildingBlock: CIFDUS_clean_linker_0, # of connection points: 2
#     Edge 50, Type (0, 0), BuildingBlock: CIFDUS_clean_linker_0, # of connection points: 2
#     Edge 51, Type (0, 0), BuildingBlock: CIFDUS_clean_linker_0, # of connection points: 2
#     Edge 52, Type (0, 0), BuildingBlock: CIFDUS_clean_linker_0, # of connection points: 2
#     Edge 53, Type (0, 0), BuildingBlock: CIFDUS_clean_linker_0, # of connection points: 2
#     Edge 54, Type (0, 0), BuildingBlock: CIFDUS_clean_linker_0, # of connection points: 2
#     Edge 55, Type (0, 0), BuildingBlock: CIFDUS_clean_linker_0, # of connection points: 2
#     Edge 56, Type (0, 0), BuildingBlock: CIFDUS_clean_linker_0, # of connection points: 2
#     Edge 57, Type (0, 0), BuildingBlock: CIFDUS_clean_linker_0, # of connection points: 2
#     Edge 58, Type (0, 0), BuildingBlock: CIFDUS_clean_linker_0, # of connection points: 2
#     Edge 59, Type (0, 0), BuildingBlock: CIFDUS_clean_linker_0, # of connection points: 2
#     Edge 60, Type (0, 0), BuildingBlock: CIFDUS_clean_linker_0, # of connection points: 2
#     Edge 61, Type (0, 0), BuildingBlock: CIFDUS_clean_linker_0, # of connection points: 2
#     Edge 62, Type (0, 0), BuildingBlock: CIFDUS_clean_linker_0, # of connection points: 2
#     Edge 63, Type (0, 0), BuildingBlock: CIFDUS_clean_linker_0, # of connection points: 2
#     Edge 64, Type (0, 0), BuildingBlock: CIFDUS_clean_linker_0, # of connection points: 2
#     Edge 65, Type (0, 0), BuildingBlock: CIFDUS_clean_linker_0, # of connection points: 2
#     Edge 66, Type (0, 0), BuildingBlock: CIFDUS_clean_linker_0, # of connection points: 2
#     Edge 67, Type (0, 0), BuildingBlock: CIFDUS_clean_linker_0, # of connection points: 2
#     Edge 68, Type (0, 0), BuildingBlock: CIFDUS_clean_linker_0, # of connection points: 2
#     Edge 69, Type (0, 0), BuildingBlock: CIFDUS_clean_linker_0, # of connection points: 2
#     Edge 70, Type (0, 0), BuildingBlock: CIFDUS_clean_linker_0, # of connection points: 2
#     Edge 71, Type (0, 0), BuildingBlock: CIFDUS_clean_linker_0, # of connection points: 2
#     Edge 72, Type (0, 0), BuildingBlock: CIFDUS_clean_linker_0, # of connection points: 2
#     Edge 73, Type (0, 0), BuildingBlock: CIFDUS_clean_linker_0, # of connection points: 2
#     Edge 74, Type (0, 0), BuildingBlock: CIFDUS_clean_linker_0, # of connection points: 2
#     Edge 75, Type (0, 0), BuildingBlock: CIFDUS_clean_linker_0, # of connection points: 2
#     Edge 76, Type (0, 0), BuildingBlock: CIFDUS_clean_linker_0, # of connection points: 2
#     Edge 77, Type (0, 0), BuildingBlock: CIFDUS_clean_linker_0, # of connection points: 2
#     Edge 78, Type (0, 0), BuildingBlock: CIFDUS_clean_linker_0, # of connection points: 2
#     Edge 79, Type (0, 0), BuildingBlock: CIFDUS_clean_linker_0, # of connection points: 2
#     Edge 80, Type (0, 0), BuildingBlock: CIFDUS_clean_linker_0, # of connection points: 2
#     Edge 81, Type (0, 0), BuildingBlock: CIFDUS_clean_linker_0, # of connection points: 2
#     Edge 82, Type (0, 0), BuildingBlock: CIFDUS_clean_linker_0, # of connection points: 2
#     Edge 83, Type (0, 0), BuildingBlock: CIFDUS_clean_linker_0, # of connection points: 2
#     Edge 84, Type (0, 0), BuildingBlock: CIFDUS_clean_linker_0, # of connection points: 2
#     Edge 85, Type (0, 0), BuildingBlock: CIFDUS_clean_linker_0, # of connection points: 2
#     Edge 86, Type (0, 0), BuildingBlock: CIFDUS_clean_linker_0, # of connection points: 2
#     Edge 87, Type (0, 0), BuildingBlock: CIFDUS_clean_linker_0, # of connection points: 2
#     Edge 88, Type (0, 0), BuildingBlock: CIFDUS_clean_linker_0, # of connection points: 2
#     Edge 89, Type (0, 0), BuildingBlock: CIFDUS_clean_linker_0, # of connection points: 2
#     Edge 90, Type (0, 0), BuildingBlock: CIFDUS_clean_linker_0, # of connection points: 2
#     Edge 91, Type (0, 0), BuildingBlock: CIFDUS_clean_linker_0, # of connection points: 2
#     Edge 92, Type (0, 0), BuildingBlock: CIFDUS_clean_linker_0, # of connection points: 2
#     Edge 93, Type (0, 0), BuildingBlock: CIFDUS_clean_linker_0, # of connection points: 2
#     Edge 94, Type (0, 0), BuildingBlock: CIFDUS_clean_linker_0, # of connection points: 2
#     Edge 95, Type (0, 0), BuildingBlock: CIFDUS_clean_linker_0, # of connection points: 2
# Relax obj value: 0.029
# Max RMSD: 0.239
# Mean RMSD: 0.239
data_MOF--net-uoa--node1-KOZSID_clean_sbu_0--edge1-CIFDUS_clean_linker_0
_symmetry_space_group_name_H-M    P1
_symmetry_Int_Tables_number       1
_symmetry_cell_setting            triclinic
loop_
_symmetry_equiv_pos_as_xyz
'x, y, z'
_cell_length_a     88.552855
_cell_length_b     88.208671
_cell_length_c     29.110717
_cell_angle_alpha  90.029338
_cell_angle_beta   90.063563
_cell_angle_gamma 89.840058
loop_
_atom_site_label
_atom_site_type_symbol
_atom_site_fract_x
_atom_site_fract_y
_atom_site_fract_z
_atom_type_partial_charge
C0 C 0.022 0.121 0.99688 0.0
C1 C 1.00947 0.12762 0.97594 0.0
C2 C 1.00178 0.13526 1.00934 0.0
C3 C 1.00969 0.13257 0.04891 0.0
N4 N 0.02187 0.12363 0.04279 0.0
Co5 Co 0.03506 0.11551 0.09249 0.0
N6 N 0.01943 0.11958 0.14032 0.0
C7 C 1.00806 0.12966 0.13552 0.0
C8 C 1.00033 0.1325 0.17515 0.0
C9 C 1.00727 0.12382 0.20754 0.0
C10 C 0.01878 0.11577 0.18559 0.0
N11 N 0.04814 0.10766 0.14295 0.0
C12 C 0.04466 0.10346 0.18692 0.0
C13 C 0.0574 0.09758 0.20845 0.0
C14 C 0.06922 0.09902 0.17819 0.0
C15 C 0.06314 0.10537 0.13928 0.0
N16 N 0.05029 0.11158 0.0439 0.0
C17 C 0.06506 0.10911 0.05132 0.0
C18 C 0.07281 0.10634 1.01124 0.0
C19 C 0.06221 0.10715 0.97663 0.0
C20 C 0.04849 0.11032 0.99745 0.0
N21 N 0.04394 0.13606 0.10313 0.0
C22 C 0.06219 0.16214 0.12103 0.0
C23 C 0.05896 0.15733 0.07584 0.0
C24 C 0.04979 0.14445 0.06768 0.0
C25 C 0.05543 0.15379 0.15662 0.0
C26 C 0.04644 0.14104 0.14711 0.0
N27 N 0.02741 0.09455 0.0815 0.0
C28 C 0.03421 0.06817 0.06915 0.0
C29 C 0.01977 0.06455 0.05317 0.0
C30 C 1.00893 0.07639 0.05363 0.0
C31 C 1.01296 0.09125 0.06801 0.0
C32 C 0.03775 0.08294 0.08248 0.0
H33 H 1.00452 0.10013 0.06696 0.0
H34 H 0.04926 0.08488 0.092 0.0
H35 H 0.0479 0.14097 0.03258 0.0
H36 H 0.04213 0.13481 0.17599 0.0
C37 C 1.00427 0.13549 0.09272 0.0
C38 C 0.03418 0.11307 0.97208 0.0
C39 C 0.02988 0.10623 0.21028 0.0
C40 C 0.07038 0.10669 0.09634 0.0
H41 H 1.0059 0.12692 0.94054 0.0
H42 H 0.99114 0.1412 1.00567 0.0
H43 H 0.99088 0.14015 0.18009 0.0
H44 H 1.0045 0.12416 0.24363 0.0
H45 H 0.05819 0.09272 0.24245 0.0
H46 H 0.08074 0.09524 0.18332 0.0
H47 H 0.08463 0.1034 1.00767 0.0
H48 H 0.0643 0.10558 0.94032 0.0
H49 H 0.06355 0.16341 0.04675 0.0
H50 H 0.05751 0.15665 0.19222 0.0
H51 H 0.04299 0.05963 0.0713 0.0
H52 H 0.99752 0.07436 0.04184 0.0
C53 C 0.16125 0.77684 0.24254 0.0
C54 C 0.1497 0.76952 0.21919 0.0
C55 C 0.14271 0.7604 0.25054 0.0
C56 C 0.15021 0.76292 0.29109 0.0
N57 N 0.16146 0.77305 0.28755 0.0
Co58 Co 0.17174 0.78329 0.3399 0.0
N59 N 0.16498 0.76731 0.38359 0.0
C60 C 0.1558 0.75561 0.37352 0.0
C61 C 0.15535 0.74477 0.40707 0.0
C62 C 0.16458 0.75006 0.44096 0.0
C63 C 0.16966 0.76426 0.42701 0.0
N64 N 0.1806 0.79423 0.39355 0.0
C65 C 0.181 0.79042 0.43906 0.0
C66 C 0.18665 0.80231 0.46509 0.0
C67 C 0.19001 0.81379 0.43496 0.0
C68 C 0.18614 0.8084 0.39228 0.0
N69 N 0.17918 0.79839 0.29405 0.0
C70 C 0.18599 0.81155 0.30419 0.0
C71 C 0.19181 0.8186 0.26607 0.0
C72 C 0.18853 0.80924 0.22961 0.0
C73 C 0.18077 0.79693 0.24735 0.0
N74 N 0.15276 0.79533 0.3503 0.0
C75 C 0.12789 0.81534 0.36951 0.0
C76 C 0.13412 0.81399 0.32506 0.0
C77 C 0.14641 0.80406 0.31629 0.0
C78 C 0.13443 0.80603 0.40355 0.0
C79 C 0.14652 0.79617 0.39332 0.0
N80 N 0.19146 0.77206 0.33027 0.0
C81 C 0.21791 0.76974 0.35222 0.0
C82 C 0.22222 0.76576 0.30754 0.0
C83 C 0.21052 0.76337 0.27581 0.0
C84 C 0.19533 0.76605 0.28845 0.0
C85 C 0.20271 0.77259 0.36284 0.0
H86 H 0.18685 0.76339 0.264 0.0
H87 H 0.20052 0.77557 0.39768 0.0
H88 H 0.15088 0.80369 0.28187 0.0
H89 H 0.15103 0.78954 0.42111 0.0
C90 C 0.14841 0.7547 0.33137 0.0
C91 C 0.17364 0.7847 0.21959 0.0
C92 C 0.17682 0.77537 0.45804 0.0
C93 C 0.18843 0.81572 0.3501 0.0
H94 H 0.14734 0.76997 0.18271 0.0
H95 H 0.13372 0.75238 0.24407 0.0
H96 H 0.14923 0.73416 0.40666 0.0
H97 H 0.16689 0.74419 0.47278 0.0
H98 H 0.18832 0.80263 0.50188 0.0
H99 H 0.19491 0.82469 0.4432 0.0
H100 H 0.19818 0.82905 0.26501 0.0
H101 H 0.1915 0.81147 0.19439 0.0
H102 H 0.12955 0.82053 0.29681 0.0
H103 H 0.13058 0.80653 0.43875 0.0
H104 H 0.22632 0.77125 0.37887 0.0
H105 H 0.21303 0.75939 0.24145 0.0
C106 C 0.51703 0.91698 0.50049 0.0
C107 C 0.53004 0.9113 0.47974 0.0
C108 C 0.53841 0.90458 0.51338 0.0
C109 C 0.5304 0.90685 0.55293 0.0
N110 N 0.51739 0.91453 0.54635 0.0
Co111 Co 0.50341 0.92172 0.59515 0.0
N112 N 0.51938 0.91963 0.64288 0.0
C113 C 0.53268 0.91235 0.63805 0.0
C114 C 0.54217 0.91405 0.67481 0.0
C115 C 0.53429 0.9227 0.70534 0.0
C116 C 0.5202 0.92553 0.68574 0.0
N117 N 0.48949 0.92846 0.64485 0.0
C118 C 0.49222 0.93134 0.69019 0.0
C119 C 0.47881 0.93389 0.71351 0.0
C120 C 0.46735 0.93235 0.68195 0.0
C121 C 0.47433 0.9289 0.6411 0.0
N122 N 0.48797 0.92419 0.54636 0.0
C123 C 0.47301 0.92538 0.55311 0.0
C124 C 0.46524 0.92763 0.5127 0.0
C125 C 0.47606 0.92789 0.47867 0.0
C126 C 0.48988 0.92582 0.50021 0.0
N127 N 0.49624 0.90052 0.60598 0.0
C128 C 0.47816 0.87441 0.6249 0.0
C129 C 0.48111 0.87919 0.57956 0.0
C130 C 0.49024 0.89204 0.57089 0.0
C131 C 0.48549 0.88256 0.66004 0.0
C132 C 0.49446 0.8953 0.64993 0.0
N133 N 0.50936 0.94314 0.58402 0.0
C134 C 0.50099 0.96891 0.56952 0.0
C135 C 0.51566 0.97374 0.55915 0.0
C136 C 0.52724 0.96271 0.56267 0.0
C137 C 0.52387 0.94754 0.57502 0.0
C138 C 0.49816 0.95387 0.58205 0.0
H139 H 0.53294 0.93935 0.57654 0.0
H140 H 0.48661 0.95091 0.58865 0.0
H141 H 0.4918 0.89554 0.53567 0.0
H142 H 0.49921 0.90147 0.67823 0.0
C143 C 0.53679 0.90593 0.59637 0.0
C144 C 0.5045 0.9244 0.47598 0.0
C145 C 0.50712 0.93033 0.71306 0.0
C146 C 0.46729 0.92706 0.59797 0.0
H147 H 0.53367 0.9123 0.44451 0.0
H148 H 0.54968 0.89992 0.50999 0.0
H149 H 0.55357 0.90975 0.67865 0.0
H150 H 0.53813 0.92578 0.73939 0.0
H151 H 0.47748 0.93627 0.74977 0.0
H152 H 0.45536 0.93361 0.68812 0.0
H153 H 0.45324 0.92955 0.50857 0.0
H154 H 0.47405 0.92944 0.4423 0.0
H155 H 0.47625 0.87319 0.5507 0.0
H156 H 0.48381 0.87962 0.69575 0.0
H157 H 0.49144 0.97653 0.56657 0.0
H158 H 0.53887 0.96567 0.55585 0.0
C159 C 0.36521 0.26975 0.74773 0.0
C160 C 0.36998 0.28313 0.72694 0.0
C161 C 0.3774 0.29131 0.75957 0.0
C162 C 0.37636 0.28287 0.79882 0.0
N163 N 0.36872 0.26982 0.79302 0.0
Co164 Co 0.36245 0.25566 0.84255 0.0
N165 N 0.36549 0.27144 0.89047 0.0
C166 C 0.37313 0.28451 0.88518 0.0
C167 C 0.37264 0.29375 0.92292 0.0
C168 C 0.36437 0.28596 0.95447 0.0
C169 C 0.36044 0.2722 0.93432 0.0
N170 N 0.35656 0.24159 0.8928 0.0
C171 C 0.35378 0.24432 0.93814 0.0
C172 C 0.3515 0.23083 0.96151 0.0
C173 C 0.35308 0.21933 0.92989 0.0
C174 C 0.35629 0.22638 0.88895 0.0
N175 N 0.35917 0.24032 0.79379 0.0
C176 C 0.35833 0.22528 0.80047 0.0
C177 C 0.3557 0.21752 0.76025 0.0
C178 C 0.35487 0.22842 0.72641 0.0
C179 C 0.35698 0.2423 0.74783 0.0
N180 N 0.38364 0.24824 0.84991 0.0
C181 C 0.40876 0.22829 0.86149 0.0
C182 C 0.40389 0.23297 0.8176 0.0
C183 C 0.39148 0.24294 0.81259 0.0
C184 C 0.40151 0.23505 0.89931 0.0
C185 C 0.38926 0.2451 0.89282 0.0
N186 N 0.341 0.26175 0.83488 0.0
C187 C 0.31522 0.25311 0.82772 0.0
C188 C 0.31006 0.26765 0.81684 0.0
C189 C 0.32087 0.27935 0.81504 0.0
C190 C 0.33629 0.27619 0.82464 0.0
C191 C 0.33045 0.25044 0.8363 0.0
H192 H 0.34438 0.28532 0.82318 0.0
H193 H 0.33364 0.23892 0.84293 0.0
H194 H 0.3876 0.24551 0.77829 0.0
H195 H 0.38373 0.24953 0.92291 0.0
C196 C 0.37848 0.28885 0.84243 0.0
C197 C 0.35799 0.25701 0.72344 0.0
C198 C 0.35465 0.25931 0.96091 0.0
C199 C 0.35751 0.21941 0.84545 0.0
H200 H 0.36796 0.28708 0.69238 0.0
H201 H 0.38177 0.3027 0.75603 0.0
H202 H 0.37737 0.30499 0.92664 0.0
H203 H 0.36204 0.28977 0.9891 0.0
H204 H 0.34922 0.22945 0.99779 0.0
H205 H 0.35187 0.2073 0.936 0.0
H206 H 0.35399 0.20545 0.75616 0.0
H207 H 0.35297 0.22641 0.69019 0.0
H208 H 0.40908 0.22835 0.78697 0.0
H209 H 0.40505 0.23238 0.93399 0.0
H210 H 0.3075 0.24361 0.82875 0.0
H211 H 0.31744 0.29083 0.80684 0.0
C212 C 0.02557 0.92193 0.53507 0.0
C213 C 1.01566 0.91342 0.56153 0.0
C214 C 1.00683 0.90542 0.53154 0.0
C215 C 1.01193 0.9093 0.48867 0.0
N216 N 0.0235 0.91914 0.48977 0.0
Co217 Co 0.03474 0.92668 0.43552 0.0
N218 N 0.01759 0.922 0.39359 0.0
C219 C 1.00573 0.91309 0.40398 0.0
C220 C 0.99519 0.91229 0.36961 0.0
C221 C 1.00084 0.92099 0.33488 0.0
C222 C 1.01475 0.92646 0.34972 0.0
N223 N 0.04598 0.93375 0.38035 0.0
C224 C 0.0413 0.93602 0.33609 0.0
C225 C 0.0535 0.93958 0.30829 0.0
C226 C 0.06614 0.93934 0.33583 0.0
C227 C 0.06106 0.93559 0.37895 0.0
N228 N 0.05136 0.9316 0.4788 0.0
C229 C 0.06573 0.9343 0.46672 0.0
C230 C 0.0743 0.93908 0.50338 0.0
C231 C 0.06467 0.93935 0.54057 0.0
C232 C 0.05068 0.93455 0.52488 0.0
N233 N 0.04371 0.90608 0.42528 0.0
C234 C 0.0639 0.88165 0.40528 0.0
C235 C 0.06135 0.88654 0.45069 0.0
C236 C 0.05128 0.89869 0.4599 0.0
C237 C 0.05503 0.8885 0.37092 0.0
C238 C 0.04497 0.90041 0.38158 0.0
N239 N 0.02703 0.94757 0.44577 0.0
C240 C 0.03385 0.97398 0.4542 0.0
C241 C 0.01972 0.97775 0.47247 0.0
C242 C 1.00908 0.96586 0.47605 0.0
C243 C 1.01295 0.95087 0.46253 0.0
C244 C 0.03714 0.95917 0.44085 0.0
H245 H 1.00475 0.94194 0.46671 0.0
H246 H 0.04837 0.95714 0.42866 0.0
H247 H 0.05031 0.90265 0.49488 0.0
H248 H 0.0389 0.9056 0.35363 0.0
C249 C 1.00414 0.90683 0.44775 0.0
C250 C 0.03702 0.9322 0.55403 0.0
C251 C 0.02581 0.93337 0.31828 0.0
C252 C 0.06963 0.93545 0.41987 0.0
H253 H 1.01475 0.91313 0.59858 0.0
H254 H 0.99727 0.89832 0.53998 0.0
H255 H 0.98459 0.90621 0.36987 0.0
H256 H 0.99562 0.92256 0.30158 0.0
H257 H 0.0533 0.9418 0.27174 0.0
H258 H 0.07762 0.94179 0.32565 0.0
H259 H 0.08591 0.94288 0.50268 0.0
H260 H 0.06763 0.94302 0.57483 0.0
H261 H 0.06772 0.88162 0.47875 0.0
H262 H 0.05615 0.88498 0.33544 0.0
H263 H 0.04281 0.98225 0.45176 0.0
H264 H 0.99789 0.96801 0.48951 0.0
C265 C 0.36926 0.77224 0.78525 0.0
C266 C 0.3746 0.75924 0.80718 0.0
C267 C 0.38135 0.7505 0.77448 0.0
C268 C 0.37944 0.75828 0.73428 0.0
N269 N 0.37195 0.77149 0.73959 0.0
Co270 Co 0.36524 0.78525 0.68954 0.0
N271 N 0.36717 0.76879 0.64315 0.0
C272 C 0.37428 0.75542 0.64913 0.0
C273 C 0.37269 0.74568 0.61285 0.0
C274 C 0.36429 0.75347 0.58145 0.0
C275 C 0.36144 0.76773 0.60013 0.0
N276 N 0.3591 0.79896 0.63853 0.0
C277 C 0.35613 0.79589 0.59351 0.0
C278 C 0.35403 0.8092 0.56899 0.0
C279 C 0.35595 0.82095 0.59953 0.0
C280 C 0.35916 0.81421 0.64098 0.0
N281 N 0.36285 0.80117 0.73696 0.0
C282 C 0.36204 0.81615 0.72906 0.0
C283 C 0.35972 0.8243 0.76878 0.0
C284 C 0.35901 0.81371 0.80354 0.0
C285 C 0.3609 0.79964 0.78311 0.0
N286 N 0.38653 0.79196 0.67889 0.0
C287 C 0.41174 0.81091 0.65839 0.0
C288 C 0.40727 0.80807 0.70403 0.0
C289 C 0.39481 0.79851 0.7135 0.0
C290 C 0.40418 0.80263 0.62402 0.0
C291 C 0.39185 0.79324 0.6349 0.0
N292 N 0.34371 0.77984 0.7003 0.0
C293 C 0.31804 0.78907 0.70764 0.0
C294 C 0.31277 0.77482 0.72094 0.0
C295 C 0.32347 0.76298 0.72398 0.0
C296 C 0.33887 0.76569 0.71306 0.0
C297 C 0.33329 0.79133 0.69796 0.0
H298 H 0.34684 0.75643 0.71534 0.0
H299 H 0.33658 0.80267 0.68941 0.0
H300 H 0.39126 0.7973 0.74879 0.0
H301 H 0.38598 0.78787 0.607 0.0
C302 C 0.38046 0.75153 0.69133 0.0
C303 C 0.3619 0.78512 0.80839 0.0
C304 C 0.35658 0.78069 0.57206 0.0
C305 C 0.36087 0.8216 0.68369 0.0
H306 H 0.37333 0.75584 0.84255 0.0
H307 H 0.38579 0.73914 0.77888 0.0
H308 H 0.37691 0.73419 0.60988 0.0
H309 H 0.36133 0.74939 0.54755 0.0
H310 H 0.35166 0.81028 0.53265 0.0
H311 H 0.355 0.83295 0.59235 0.0
H312 H 0.35808 0.83642 0.77196 0.0
H313 H 0.35731 0.81604 0.83968 0.0
H314 H 0.41275 0.81386 0.73225 0.0
H315 H 0.4074 0.80378 0.58833 0.0
H316 H 0.31037 0.79863 0.70528 0.0
H317 H 0.31995 0.75171 0.73393 0.0
C318 C 0.50624 0.11999 0.04034 0.0
C319 C 0.51358 0.1308 0.06693 0.0
C320 C 0.52051 0.14056 0.03706 0.0
C321 C 0.51682 0.13533 0.99412 0.0
N322 N 0.50802 0.12294 0.99505 0.0
Co323 Co 0.49817 0.1138 0.94057 0.0
N324 N 0.51376 0.12212 0.89867 0.0
C325 C 0.52245 0.13424 0.90826 0.0
C326 C 0.53094 0.13896 0.8717 0.0
C327 C 0.52728 0.12933 0.8366 0.0
C328 C 0.51681 0.11907 0.85383 0.0
N329 N 0.48805 0.10562 0.88464 0.0
C330 C 0.49356 0.10311 0.8414 0.0
C331 C 0.48279 0.09574 0.81491 0.0
C332 C 0.47011 0.09423 0.84172 0.0
C333 C 0.47377 0.10044 0.88352 0.0
N334 N 0.48306 0.10533 0.98379 0.0
C335 C 0.46972 0.09937 0.97153 0.0
C336 C 0.46286 0.09193 1.00728 0.0
C337 C 0.4725 0.09334 0.04415 0.0
C338 C 0.48472 0.10188 0.02939 0.0
N339 N 0.48587 0.13272 0.93326 0.0
C340 C 0.4656 0.15779 0.92234 0.0
C341 C 0.46868 0.15136 0.96573 0.0
C342 C 0.47864 0.13895 0.97036 0.0
C343 C 0.47349 0.15154 0.8848 0.0
C344 C 0.48349 0.13917 0.89093 0.0
N345 N 0.50952 0.09423 0.94892 0.0
C346 C 0.50746 0.06674 0.94826 0.0
C347 C 0.51842 0.06518 0.98232 0.0
C348 C 0.52574 0.07849 0.99702 0.0
C349 C 0.52146 0.09281 0.97888 0.0
C350 C 0.50311 0.08107 0.93273 0.0
H351 H 0.52732 0.10271 0.99123 0.0
H352 H 0.49367 0.08103 0.90994 0.0
H353 H 0.48026 0.13422 1.00418 0.0
H354 H 0.48898 0.13457 0.86092 0.0
C355 C 0.52299 0.14031 0.95266 0.0
C356 C 0.49747 0.10726 0.05894 0.0
C357 C 0.50874 0.10794 0.82492 0.0
C358 C 0.46592 0.09796 0.92482 0.0
H359 H 0.51392 0.13159 0.10401 0.0
H360 H 0.5277 0.15004 0.04569 0.0
H361 H 0.53876 0.14836 0.87053 0.0
H362 H 0.53139 0.13027 0.80175 0.0
H363 H 0.48397 0.09132 0.78052 0.0
H364 H 0.45988 0.0882 0.83283 0.0
H365 H 0.45263 0.08527 1.00591 0.0
H366 H 0.47081 0.08811 0.07721 0.0
H367 H 0.46338 0.15579 0.9964 0.0
H368 H 0.47164 0.15581 0.85041 0.0
H369 H 0.50139 0.05691 0.93575 0.0
H370 H 0.53452 0.07789 0.02288 0.0
C371 C 0.16742 0.26507 0.28597 0.0
C372 C 0.16039 0.27671 0.31026 0.0
C373 C 0.1537 0.28594 0.27857 0.0
C374 C 0.15703 0.27952 0.23692 0.0
N375 N 0.16535 0.26675 0.24028 0.0
Co376 Co 0.17276 0.25415 0.18839 0.0
N377 N 0.16983 0.27118 0.14433 0.0
C378 C 0.16217 0.28414 0.15248 0.0
C379 C 0.16297 0.2944 0.11733 0.0
C380 C 0.17141 0.28742 0.08434 0.0
C381 C 0.17507 0.27308 0.101 0.0
N382 N 0.17971 0.24161 0.13547 0.0
C383 C 0.18218 0.24546 0.0907 0.0
C384 C 0.18517 0.23267 0.06449 0.0
C385 C 0.18433 0.22044 0.09358 0.0
C386 C 0.18082 0.22637 0.13592 0.0
N387 N 0.17598 0.2376 0.23355 0.0
C388 C 0.17773 0.22285 0.22339 0.0
C389 C 0.18002 0.21411 0.26194 0.0
C390 C 0.17968 0.22406 0.29844 0.0
C391 C 0.17721 0.23835 0.28013 0.0
N392 N 0.15186 0.24645 0.17687 0.0
C393 C 0.12719 0.22693 0.1553 0.0
C394 C 0.13162 0.22962 0.20108 0.0
C395 C 0.14382 0.23944 0.21109 0.0
C396 C 0.13453 0.23555 0.12136 0.0
C397 C 0.14658 0.24523 0.13281 0.0
N398 N 0.19392 0.26065 0.20018 0.0
C399 C 0.22009 0.25307 0.21038 0.0
C400 C 0.22425 0.2676 0.22506 0.0
C401 C 0.21274 0.27874 0.22583 0.0
C402 C 0.19772 0.27505 0.21333 0.0
C403 C 0.20511 0.24989 0.19835 0.0
H404 H 0.18915 0.28377 0.21508 0.0
H405 H 0.20263 0.23844 0.18841 0.0
H406 H 0.14733 0.24056 0.24645 0.0
H407 H 0.15225 0.25097 0.10534 0.0
C408 C 0.15578 0.28702 0.19518 0.0
C409 C 0.1753 0.25232 0.30759 0.0
C410 C 0.18025 0.26078 0.07089 0.0
C411 C 0.17949 0.21825 0.1774 0.0
H412 H 0.16025 0.27854 0.34701 0.0
H413 H 0.14799 0.29659 0.28501 0.0
H414 H 0.15811 0.30567 0.11597 0.0
H415 H 0.17382 0.29202 0.05068 0.0
H416 H 0.18735 0.23224 0.02793 0.0
H417 H 0.18604 0.20863 0.08482 0.0
H418 H 0.18227 0.20205 0.2633 0.0
H419 H 0.18111 0.22116 0.33431 0.0
H420 H 0.12631 0.22353 0.22898 0.0
H421 H 0.13131 0.2345 0.08561 0.0
H422 H 0.22838 0.24407 0.20781 0.0
H423 H 0.2152 0.29018 0.23695 0.0
C424 C 0.98758 0.93451 0.02432 0.0
C425 C 0.97398 0.93835 0.0449 0.0
C426 C 0.96315 0.93823 1.01073 0.0
C427 C 0.97066 0.93431 0.97109 0.0
N428 N 0.98546 0.93205 0.97842 0.0
Co429 Co 1.00013 0.92623 0.93029 0.0
N430 N 0.98707 0.93311 0.87867 0.0
C431 C 0.97195 0.93404 0.88214 0.0
C432 C 0.9651 0.9358 0.84028 0.0
C433 C 0.97664 0.93597 0.80868 0.0
C434 C 0.9902 0.93502 0.83289 0.0
N435 N 1.01521 0.92017 0.88295 0.0
C436 C 1.01527 0.92239 0.83671 0.0
C437 C 0.02405 0.91135 0.8152 0.0
C438 C 0.03076 0.90296 0.8489 0.0
C439 C 0.02509 0.90868 0.88898 0.0
N440 N 1.01331 0.91894 0.98095 0.0
C441 C 0.02486 0.90912 0.97623 0.0
C442 C 0.03313 0.90731 1.01559 0.0
C443 C 0.02626 0.91642 0.04734 0.0
C444 C 1.01377 0.92296 0.02592 0.0
N445 N 0.99035 0.90575 0.92523 0.0
C446 C 0.97073 0.88027 0.91391 0.0
C447 C 0.97823 0.88692 0.87655 0.0
C448 C 0.98777 0.89948 0.88278 0.0
C449 C 0.97389 0.88637 0.95764 0.0
C450 C 0.98385 0.89886 0.9626 0.0
N451 N 1.00847 0.94711 0.93584 0.0
C452 C 0.02687 0.96527 0.96404 0.0
C453 C 1.0162 0.97724 0.96216 0.0
C454 C 1.00198 0.97373 0.94429 0.0
C455 C 0.99838 0.95889 0.93178 0.0
C456 C 0.0228 0.95033 0.95066 0.0
H457 H 0.98694 0.95697 0.92114 0.0
H458 H 0.03102 0.94132 0.95404 0.0
H459 H 0.99241 0.9045 0.85235 0.0
H460 H 0.98579 0.9033 0.99667 0.0
C461 C 0.96493 0.93439 0.92578 0.0
C462 C 1.00196 0.93183 0.04975 0.0
C463 C 1.00561 0.93336 0.81179 0.0
C464 C 0.02917 0.90399 0.93295 0.0
H465 H 0.97206 0.94075 0.08089 0.0
H466 H 0.9513 0.94102 1.01431 0.0
H467 H 0.95311 0.93646 0.83329 0.0
H468 H 0.97488 0.93546 0.77207 0.0
H469 H 0.0251 0.90908 0.77883 0.0
H470 H 0.0385 0.89355 0.84462 0.0
H471 H 0.04342 0.90081 0.02006 0.0
H472 H 0.03026 0.918 0.08206 0.0
H473 H 0.97624 0.88288 0.84195 0.0
H474 H 0.96867 0.88159 0.98793 0.0
H475 H 0.03812 0.96727 0.97724 0.0
H476 H 0.99339 0.9824 0.94047 0.0
C477 C 0.85442 0.23945 0.78549 0.0
C478 C 0.84678 0.2277 0.8068 0.0
C479 C 0.83937 0.21992 0.77294 0.0
C480 C 0.84291 0.22729 0.73289 0.0
N481 N 0.8525 0.23898 0.73894 0.0
Co482 Co 0.85827 0.25398 0.69045 0.0
N483 N 0.84843 0.24213 0.63969 0.0
C484 C 0.84005 0.22955 0.64521 0.0
C485 C 0.83546 0.22327 0.60441 0.0
C486 C 0.84107 0.23259 0.57089 0.0
C487 C 0.8486 0.24426 0.59312 0.0
N488 N 0.86318 0.26971 0.64327 0.0
C489 C 0.85941 0.27067 0.59818 0.0
C490 C 0.86168 0.28527 0.58135 0.0
C491 C 0.86796 0.29346 0.61587 0.0
C492 C 0.86867 0.28366 0.6521 0.0
N493 N 0.86905 0.26561 0.73998 0.0
C494 C 0.87608 0.27904 0.73469 0.0
C495 C 0.88318 0.28419 0.77316 0.0
C496 C 0.88023 0.27362 0.80576 0.0
C497 C 0.8713 0.26249 0.78526 0.0
N498 N 0.87741 0.24242 0.6776 0.0
C499 C 0.90367 0.2243 0.65946 0.0
C500 C 0.9044 0.2403 0.66184 0.0
C501 C 0.89119 0.2491 0.67046 0.0
C502 C 0.88947 0.21783 0.6668 0.0
C503 C 0.87678 0.22688 0.67584 0.0
N504 N 0.83858 0.26445 0.70371 0.0
C505 C 0.82054 0.27169 0.76246 0.0
C506 C 0.80816 0.26768 0.73454 0.0
C507 C 0.81157 0.26428 0.68845 0.0
C508 C 0.82668 0.2633 0.67357 0.0
C509 C 0.83544 0.26993 0.74673 0.0
H510 H 0.82849 0.26075 0.63791 0.0
H511 H 0.84424 0.27244 0.77077 0.0
H512 H 0.8922 0.26128 0.67128 0.0
H513 H 0.86645 0.22099 0.68145 0.0
C514 C 0.83749 0.22359 0.68907 0.0
C515 C 0.86245 0.25134 0.8114 0.0
C516 C 0.85419 0.25802 0.56958 0.0
C517 C 0.87483 0.28712 0.69431 0.0
H518 H 0.84625 0.22533 0.84324 0.0
H519 H 0.83199 0.21026 0.77717 0.0
H520 H 0.8289 0.21305 0.59954 0.0
H521 H 0.83947 0.23109 0.53436 0.0
H522 H 0.85908 0.28972 0.54766 0.0
H523 H 0.8715 0.30519 0.61479 0.0
H524 H 0.8892 0.29476 0.77761 0.0
H525 H 0.88366 0.2749 0.841 0.0
H526 H 0.91505 0.24602 0.6564 0.0
H527 H 0.88811 0.20563 0.6665 0.0
H528 H 0.81894 0.27578 0.79712 0.0
H529 H 0.80278 0.26172 0.6639 0.0
C530 C 0.54676 0.10208 0.53319 0.0
C531 C 0.55777 0.0933 0.55429 0.0
C532 C 0.56762 0.08882 0.52046 0.0
C533 C 0.56207 0.09489 0.4804 0.0
N534 N 0.54941 0.10303 0.48678 0.0
Co535 Co 0.53601 0.11083 0.43655 0.0
N536 N 0.54734 0.10025 0.3863 0.0
C537 C 0.56053 0.0929 0.39203 0.0
C538 C 0.5655 0.08592 0.35273 0.0
C539 C 0.55483 0.08913 0.31997 0.0
C540 C 0.54396 0.09825 0.34066 0.0
N541 N 0.52193 0.11843 0.38785 0.0
C542 C 0.52053 0.11481 0.34248 0.0
C543 C 0.51062 0.12476 0.32059 0.0
C544 C 0.50559 0.13474 0.35288 0.0
C545 C 0.51277 0.13059 0.39254 0.0
N546 N 0.52536 0.12256 0.48545 0.0
C547 C 0.51676 0.13491 0.4782 0.0
C548 C 0.51303 0.14255 0.51765 0.0
C549 C 0.51974 0.13452 0.5523 0.0
C550 C 0.52703 0.12232 0.53179 0.0
N551 N 0.54942 0.12883 0.4266 0.0
C552 C 0.56929 0.15386 0.41045 0.0
C553 C 0.56194 0.14623 0.37435 0.0
C554 C 0.55221 0.13399 0.383 0.0
C555 C 0.56643 0.1484 0.45514 0.0
C556 C 0.55657 0.136 0.46242 0.0
N557 N 0.52331 0.09205 0.44697 0.0
C558 C 0.51168 0.07578 0.50452 0.0
C559 C 0.51617 0.06251 0.48119 0.0
C560 C 0.52235 0.0646 0.43743 0.0
C561 C 0.52556 0.0792 0.42098 0.0
C562 C 0.5149 0.09026 0.48618 0.0
H563 H 0.53024 0.07953 0.38733 0.0
H564 H 0.51088 0.09988 0.50497 0.0
H565 H 0.54711 0.12862 0.35374 0.0
H566 H 0.55478 0.13221 0.49721 0.0
C567 C 0.56664 0.09091 0.43601 0.0
C568 C 0.53426 0.11001 0.55761 0.0
C569 C 0.53002 0.10382 0.31718 0.0
C570 C 0.51133 0.13807 0.43446 0.0
H571 H 0.55858 0.09007 0.58992 0.0
H572 H 0.57716 0.08123 0.5243 0.0
H573 H 0.57527 0.07862 0.34892 0.0
H574 H 0.55483 0.0846 0.28549 0.0
H575 H 0.50797 0.12552 0.28442 0.0
H576 H 0.49803 0.14424 0.34766 0.0
H577 H 0.50597 0.15253 0.52096 0.0
H578 H 0.51906 0.13709 0.5886 0.0
H579 H 0.56385 0.14949 0.339 0.0
H580 H 0.57162 0.15378 0.48461 0.0
H581 H 0.50616 0.07516 0.5376 0.0
H582 H 0.52494 0.05498 0.41568 0.0
C583 C 0.67767 0.80001 0.29029 0.0
C584 C 0.68661 0.81108 0.31026 0.0
C585 C 0.69512 0.81722 0.27571 0.0
C586 C 0.69092 0.8096 0.23662 0.0
N587 N 0.68 0.79925 0.24398 0.0
Co588 Co 0.67259 0.78429 0.1974 0.0
N589 N 0.68292 0.79483 0.14515 0.0
C590 C 0.69338 0.80579 0.14929 0.0
C591 C 0.69872 0.8108 0.1077 0.0
C592 C 0.6913 0.80234 0.07519 0.0
C593 C 0.68186 0.79259 0.09884 0.0
N594 N 0.6656 0.76887 0.15173 0.0
C595 C 0.66685 0.76842 0.10535 0.0
C596 C 0.66166 0.75473 0.08763 0.0
C597 C 0.65675 0.7464 0.12389 0.0
C598 C 0.65934 0.75533 0.16148 0.0
N599 N 0.66194 0.77362 0.24874 0.0
C600 C 0.65498 0.76006 0.24612 0.0
C601 C 0.64831 0.75552 0.2861 0.0
C602 C 0.65145 0.76672 0.31668 0.0
C603 C 0.65999 0.77751 0.29346 0.0
N604 N 0.65426 0.79724 0.18624 0.0
C605 C 0.62934 0.81773 0.17489 0.0
C606 C 0.62713 0.80192 0.17893 0.0
C607 C 0.6397 0.7919 0.18463 0.0
C608 C 0.64437 0.82269 0.17495 0.0
C609 C 0.65639 0.81251 0.18075 0.0
N610 N 0.69149 0.77242 0.20876 0.0
C611 C 0.71197 0.76774 0.26241 0.0
C612 C 0.7226 0.76686 0.22671 0.0
C613 C 0.71683 0.76699 0.18159 0.0
C614 C 0.70132 0.76947 0.17348 0.0
C615 C 0.69661 0.77028 0.25275 0.0
H616 H 0.69757 0.77005 0.13833 0.0
H617 H 0.68915 0.77143 0.28145 0.0
H618 H 0.63759 0.77992 0.18837 0.0
H619 H 0.66749 0.81728 0.18135 0.0
C620 C 0.69683 0.81187 0.1925 0.0
C621 C 0.66826 0.78954 0.31722 0.0
C622 C 0.67315 0.78042 0.07666 0.0
C623 C 0.65466 0.75193 0.20553 0.0
H624 H 0.68728 0.814 0.34632 0.0
H625 H 0.70358 0.82599 0.2789 0.0
H626 H 0.70693 0.81965 0.10166 0.0
H627 H 0.69292 0.80301 0.03841 0.0
H628 H 0.66148 0.75107 0.05216 0.0
H629 H 0.65163 0.73527 0.12289 0.0
H630 H 0.64216 0.74515 0.2925 0.0
H631 H 0.64844 0.76644 0.35264 0.0
H632 H 0.6158 0.79734 0.17905 0.0
H633 H 0.64698 0.8346 0.17088 0.0
H634 H 0.7155 0.76689 0.29794 0.0
H635 H 0.7243 0.76601 0.15233 0.0
C636 C 0.98577 0.10266 0.497 0.0
C637 C 0.97625 0.09105 0.48302 0.0
C638 C 0.96979 0.08523 0.52176 0.0
C639 C 0.97585 0.09331 0.55745 0.0
N640 N 0.98545 0.10429 0.54391 0.0
Co641 Co 1.00022 0.11484 0.58556 0.0
N642 N 0.99206 0.10518 0.64289 0.0
C643 C 0.98065 0.09514 0.64447 0.0
C644 C 0.9772 0.0905 0.68821 0.0
C645 C 0.98716 0.09795 0.71624 0.0
C646 C 0.99626 0.10664 0.68792 0.0
N647 N 1.01599 0.12447 0.62544 0.0
C648 C 0.01912 0.1228 0.67095 0.0
C649 C 0.03242 0.13017 0.68283 0.0
C650 C 0.03757 0.13711 0.64414 0.0
C651 C 0.02737 0.13339 0.61066 0.0
N652 N 1.00773 0.12559 0.52949 0.0
C653 C 0.01831 0.1365 0.52826 0.0
C654 C 0.01973 0.1433 0.48617 0.0
C655 C 1.00969 0.13593 0.45846 0.0
C656 C 1.00304 0.12475 0.48516 0.0
N657 N 0.98581 0.13228 0.59614 0.0
C658 C 0.96414 0.1563 0.60788 0.0
C659 C 0.97978 0.15918 0.60626 0.0
C660 C 0.99032 0.14713 0.60053 0.0
C661 C 0.95987 0.14099 0.60513 0.0
C662 C 0.97063 0.12943 0.5992 0.0
N663 N 1.01377 0.09684 0.57455 0.0
C664 C 0.02255 0.07954 0.51549 0.0
C665 C 0.0203 0.06686 0.54398 0.0
C666 C 1.01684 0.06991 0.59011 0.0
C667 C 1.01398 0.08486 0.60478 0.0
C668 C 0.01977 0.09428 0.53184 0.0
H669 H 1.0114 0.08634 0.64049 0.0
H670 H 0.02182 0.10337 0.5084 0.0
H671 H 1.00206 0.15006 0.59938 0.0
H672 H 0.96638 0.11813 0.59705 0.0
C673 C 0.97408 0.08979 0.60398 0.0
C674 C 0.99558 0.11143 0.4654 0.0
C675 C 1.00962 0.11492 0.70466 0.0
C676 C 0.02758 0.139 0.56601 0.0
H677 H 0.97457 0.08656 0.44898 0.0
H678 H 0.96231 0.07557 0.52383 0.0
H679 H 0.96871 0.08237 0.69843 0.0
H680 H 0.98798 0.09669 0.75312 0.0
H681 H 0.03782 0.13066 0.71615 0.0
H682 H 0.04747 0.1442 0.64093 0.0
H683 H 0.02766 0.15201 0.47621 0.0
H684 H 1.00842 0.13763 0.42183 0.0
H685 H 0.9839 0.1707 0.60834 0.0
H686 H 0.94811 0.13779 0.60765 0.0
H687 H 0.02579 0.07824 0.4799 0.0
H688 H 1.01607 0.0608 0.61489 0.0
C689 C 0.68233 0.23701 0.26105 0.0
C690 C 0.6862 0.22303 0.24264 0.0
C691 C 0.68771 0.21315 0.27909 0.0
C692 C 0.68463 0.22156 0.31783 0.0
N693 N 0.68136 0.23606 0.30779 0.0
Co694 Co 0.67621 0.25187 0.35368 0.0
N695 N 0.68469 0.24027 0.40653 0.0
C696 C 0.6878 0.22532 0.40566 0.0
C697 C 0.6944 0.22044 0.44578 0.0
C698 C 0.6952 0.23302 0.47372 0.0
C699 C 0.6888 0.24499 0.44958 0.0
N700 N 0.67078 0.26796 0.39866 0.0
C701 C 0.67465 0.26978 0.44348 0.0
C702 C 0.66568 0.28089 0.464 0.0
C703 C 0.65628 0.28643 0.43085 0.0
C704 C 0.65971 0.27826 0.39228 0.0
N705 N 0.66751 0.26368 0.30191 0.0
C706 C 0.65742 0.27505 0.30582 0.0
C707 C 0.65379 0.28165 0.26467 0.0
C708 C 0.66202 0.27389 0.23264 0.0
C709 C 0.67013 0.26279 0.25614 0.0
N710 N 0.65639 0.24166 0.36462 0.0
C711 C 0.63294 0.22036 0.38326 0.0
C712 C 0.6401 0.22855 0.41857 0.0
C713 C 0.65158 0.23906 0.40868 0.0
C714 C 0.63705 0.22414 0.33793 0.0
C715 C 0.64868 0.23477 0.32941 0.0
N716 N 0.69653 0.26076 0.34238 0.0
C717 C 0.71357 0.27987 0.31211 0.0
C718 C 0.7259 0.26962 0.31321 0.0
C719 C 0.72313 0.25525 0.33137 0.0
C720 C 0.70866 0.25111 0.34517 0.0
C721 C 0.69898 0.27522 0.32683 0.0
H722 H 0.7074 0.23964 0.35634 0.0
H723 H 0.68966 0.2831 0.32432 0.0
H724 H 0.65714 0.24442 0.43729 0.0
H725 H 0.65199 0.23677 0.29424 0.0
C726 C 0.68712 0.21718 0.36387 0.0
C727 C 0.67882 0.25073 0.23334 0.0
C728 C 0.68556 0.26033 0.46908 0.0
C729 C 0.65372 0.28089 0.34876 0.0
H730 H 0.6878 0.22031 0.20672 0.0
H731 H 0.69121 0.2014 0.27753 0.0
H732 H 0.69882 0.20925 0.4531 0.0
H733 H 0.70012 0.23324 0.50767 0.0
H734 H 0.66547 0.28434 0.49963 0.0
H735 H 0.64792 0.29532 0.4345 0.0
H736 H 0.64653 0.29135 0.25881 0.0
H737 H 0.66188 0.27611 0.19609 0.0
H738 H 0.63716 0.22657 0.45415 0.0
H739 H 0.6319 0.21835 0.30912 0.0
H740 H 0.71504 0.29122 0.29874 0.0
H741 H 0.73213 0.24698 0.33465 0.0
C742 C 0.54785 0.92937 0.99855 0.0
C743 C 0.55963 0.93694 0.97736 0.0
C744 C 0.56739 0.94435 1.01127 0.0
C745 C 0.56 0.94083 0.05126 0.0
N746 N 0.5483 0.93126 0.04507 0.0
Co747 Co 0.53338 0.92541 0.09338 0.0
N748 N 0.54536 0.93502 0.14416 0.0
C749 C 0.55756 0.9439 0.1388 0.0
C750 C 0.56353 0.94881 0.17978 0.0
C751 C 0.55446 0.94273 0.2132 0.0
C752 C 0.54342 0.93447 0.19065 0.0
N753 N 0.51782 0.92026 0.14061 0.0
C754 C 0.51769 0.9224 0.18665 0.0
C755 C 0.50385 0.91848 0.20577 0.0
C756 C 0.49505 0.91341 0.17075 0.0
C757 C 0.50392 0.91467 0.1325 0.0
N758 N 0.52153 0.91496 0.04374 0.0
C759 C 0.50794 0.90829 0.0488 0.0
C760 C 0.50264 0.90141 1.01013 0.0
C761 C 0.51325 0.9042 0.97766 0.0
C762 C 0.52457 0.91282 0.99839 0.0
N763 N 0.54476 0.90604 0.10531 0.0
C764 C 0.56249 0.87937 0.12265 0.0
C765 C 0.54659 0.87877 0.11869 0.0
C766 C 0.53798 0.89216 0.11055 0.0
C767 C 0.56909 0.89367 0.11734 0.0
C768 C 0.56022 0.90657 0.10855 0.0
N769 N 0.52302 0.94533 0.08108 0.0
C770 C 0.5157 0.96376 0.02325 0.0
C771 C 0.5195 0.97605 0.05188 0.0
C772 C 0.52292 0.97239 0.09779 0.0
C773 C 0.5241 0.95711 0.11185 0.0
C774 C 0.51759 0.94872 0.03816 0.0
H775 H 0.5267 0.95507 0.14739 0.0
H776 H 0.5152 0.94005 1.01356 0.0
H777 H 0.52586 0.89122 0.10857 0.0
H778 H 0.56615 0.91703 0.1044 0.0
C779 C 0.56355 0.94646 0.09501 0.0
C780 C 0.53581 0.92163 0.97252 0.0
C781 C 0.53046 0.92755 0.21402 0.0
C782 C 0.50012 0.90913 0.08973 0.0
H783 H 0.56199 0.93752 0.94092 0.0
H784 H 0.57701 0.95175 1.00709 0.0
H785 H 0.57337 0.95588 0.18481 0.0
H786 H 0.55556 0.94448 0.24985 0.0
H787 H 0.5005 0.91897 0.24148 0.0
H788 H 0.48371 0.90892 0.17307 0.0
H789 H 0.49201 0.89555 1.00559 0.0
H790 H 0.5119 0.90084 0.94239 0.0
H791 H 0.54078 0.86807 0.12257 0.0
H792 H 0.58124 0.89495 0.11904 0.0
H793 H 0.51167 0.96556 0.98859 0.0
H794 H 0.52536 0.98114 0.12271 0.0
C795 C 0.85424 0.80203 0.74959 0.0
C796 C 0.84597 0.81347 0.72862 0.0
C797 C 0.83743 0.82012 0.7622 0.0
C798 C 0.84103 0.81249 0.80179 0.0
N799 N 0.85162 0.80166 0.7958 0.0
Co800 Co 0.85887 0.7872 0.84414 0.0
N801 N 0.84705 0.79747 0.8945 0.0
C802 C 0.83686 0.80866 0.88834 0.0
C803 C 0.82952 0.81279 0.92791 0.0
C804 C 0.83518 0.80345 0.96132 0.0
C805 C 0.84579 0.79418 0.94029 0.0
N806 N 0.86612 0.77247 0.89185 0.0
C807 C 0.86411 0.77225 0.93802 0.0
C808 C 0.87303 0.76122 0.95888 0.0
C809 C 0.88022 0.75365 0.92463 0.0
C810 C 0.87562 0.7607 0.88518 0.0
N811 N 0.871 0.77689 0.79456 0.0
C812 C 0.87956 0.76432 0.79983 0.0
C813 C 0.88682 0.75971 0.761 0.0
C814 C 0.88245 0.76973 0.72823 0.0
C815 C 0.87268 0.78009 0.74904 0.0
N816 N 0.87649 0.80092 0.85792 0.0
C817 C 0.90055 0.82143 0.87996 0.0
C818 C 0.90324 0.80589 0.87216 0.0
C819 C 0.89116 0.7959 0.86158 0.0
C820 C 0.88554 0.82635 0.87535 0.0
C821 C 0.87393 0.81613 0.86428 0.0
N822 N 0.84067 0.77439 0.82998 0.0
C823 C 0.82253 0.76745 0.77097 0.0
C824 C 0.81055 0.76755 0.80242 0.0
C825 C 0.81436 0.76936 0.84892 0.0
C826 C 0.82945 0.77226 0.86194 0.0
C827 C 0.83733 0.77064 0.78539 0.0
H828 H 0.83172 0.77336 0.89794 0.0
H829 H 0.84576 0.77073 0.75935 0.0
H830 H 0.89386 0.78414 0.85673 0.0
H831 H 0.86282 0.82079 0.86115 0.0
C832 C 0.83446 0.81491 0.84483 0.0
C833 C 0.86318 0.79089 0.72324 0.0
C834 C 0.85283 0.78104 0.96322 0.0
C835 C 0.88109 0.75734 0.84202 0.0
H836 H 0.8457 0.81626 0.69242 0.0
H837 H 0.82926 0.82917 0.758 0.0
H838 H 0.82079 0.82131 0.9318 0.0
H839 H 0.83142 0.80309 0.99662 0.0
H840 H 0.87401 0.7587 0.99514 0.0
H841 H 0.88811 0.74432 0.92811 0.0
H842 H 0.89428 0.75006 0.75683 0.0
H843 H 0.88589 0.76874 0.69294 0.0
H844 H 0.91457 0.80136 0.87527 0.0
H845 H 0.88267 0.83819 0.87995 0.0
H846 H 0.82048 0.76562 0.73472 0.0
H847 H 0.80574 0.76867 0.87518 0.0
C848 C 0.52063 0.62309 0.49691 0.0
C849 C 0.50903 0.63059 0.47386 0.0
C850 C 0.50119 0.63869 0.50605 0.0
C851 C 0.50822 0.63554 0.5469 0.0
N852 N 0.51993 0.62588 0.54254 0.0
Co853 Co 0.53228 0.61761 0.59353 0.0
N854 N 0.51617 0.62222 0.63874 0.0
C855 C 0.50548 0.63297 0.63328 0.0
C856 C 0.4972 0.63567 0.67211 0.0
C857 C 0.50309 0.6261 0.70435 0.0
C858 C 0.51454 0.61783 0.68302 0.0
N859 N 0.54439 0.60951 0.6456 0.0
C860 C 0.5399 0.60489 0.68824 0.0
C861 C 0.55215 0.5991 0.71236 0.0
C862 C 0.56463 0.6007 0.6845 0.0
C863 C 0.55941 0.60719 0.64457 0.0
N864 N 0.54811 0.61331 0.54735 0.0
C865 C 0.56275 0.6108 0.55684 0.0
C866 C 0.57105 0.60803 0.51774 0.0
C867 C 0.56093 0.60892 0.48173 0.0
C868 C 0.54694 0.61213 0.50077 0.0
N869 N 0.54147 0.638 0.60474 0.0
C870 C 0.55984 0.66396 0.62327 0.0
C871 C 0.55683 0.6591 0.57801 0.0
C872 C 0.54761 0.64628 0.56954 0.0
C873 C 0.55281 0.65569 0.65865 0.0
C874 C 0.54376 0.64298 0.64882 0.0
N875 N 0.52433 0.59683 0.5821 0.0
C876 C 0.53074 0.57032 0.57088 0.0
C877 C 0.51621 0.56682 0.55549 0.0
C878 C 0.50553 0.5788 0.55548 0.0
C879 C 0.50981 0.5937 0.56888 0.0
C880 C 0.53451 0.58509 0.58349 0.0
H881 H 0.50153 0.60272 0.5675 0.0
H882 H 0.54604 0.58693 0.59305 0.0
H883 H 0.54589 0.64278 0.53437 0.0
H884 H 0.53915 0.6368 0.67745 0.0
C885 C 0.50243 0.63904 0.59008 0.0
C886 C 0.5329 0.61478 0.47395 0.0
C887 C 0.52441 0.607 0.7072 0.0
C888 C 0.5674 0.60842 0.60271 0.0
H889 H 0.50646 0.63037 0.43753 0.0
H890 H 0.49114 0.64546 0.50057 0.0
H891 H 0.48793 0.64356 0.67642 0.0
H892 H 0.49959 0.62569 0.7399 0.0
H893 H 0.55217 0.59412 0.74625 0.0
H894 H 0.57601 0.59687 0.69175 0.0
H895 H 0.58289 0.60505 0.51569 0.0
H896 H 0.5635 0.60732 0.44572 0.0
H897 H 0.5616 0.6651 0.54905 0.0
H898 H 0.5547 0.65861 0.6943 0.0
H899 H 0.5394 0.56166 0.57325 0.0
H900 H 0.49406 0.57682 0.54412 0.0
C901 C 0.66352 0.27621 0.75126 0.0
C902 C 0.65311 0.26808 0.72546 0.0
C903 C 0.64462 0.25994 0.7561 0.0
C904 C 0.65013 0.26379 0.79865 0.0
N905 N 0.66143 0.27387 0.79658 0.0
Co906 Co 0.67055 0.28437 0.8497 0.0
N907 N 0.66452 0.26789 0.89237 0.0
C908 C 0.65478 0.25664 0.8823 0.0
C909 C 0.65443 0.24554 0.91515 0.0
C910 C 0.66429 0.25023 0.94842 0.0
C911 C 0.66973 0.26434 0.93503 0.0
N912 N 0.67858 0.29525 0.9041 0.0
C913 C 0.68092 0.29047 0.94814 0.0
C914 C 0.6853 0.30261 0.97546 0.0
C915 C 0.68585 0.31518 0.9475 0.0
C916 C 0.6816 0.3102 0.90469 0.0
N917 N 0.67719 0.30005 0.80536 0.0
C918 C 0.68163 0.31409 0.81644 0.0
C919 C 0.68783 0.32152 0.77945 0.0
C920 C 0.68726 0.31142 0.7432 0.0
C921 C 0.68067 0.29828 0.7598 0.0
N922 N 0.65092 0.29517 0.85993 0.0
C923 C 0.62529 0.31417 0.87786 0.0
C924 C 0.6313 0.31248 0.83327 0.0
C925 C 0.64397 0.30303 0.82511 0.0
C926 C 0.63238 0.30564 0.91277 0.0
C927 C 0.64491 0.29626 0.90318 0.0
N928 N 0.69063 0.27464 0.83903 0.0
C929 C 0.71771 0.27866 0.8359 0.0
C930 C 0.7197 0.26651 0.80593 0.0
C931 C 0.70686 0.25785 0.79473 0.0
C932 C 0.6925 0.26187 0.81262 0.0
C933 C 0.70333 0.28263 0.85122 0.0
H934 H 0.68286 0.2551 0.80307 0.0
H935 H 0.70273 0.29296 0.87042 0.0
H936 H 0.64833 0.30234 0.79054 0.0
H937 H 0.65004 0.29026 0.93146 0.0
C938 C 0.64762 0.25588 0.83944 0.0
C939 C 0.67627 0.28469 0.73213 0.0
C940 C 0.67809 0.27486 0.96565 0.0
C941 C 0.6828 0.31834 0.86305 0.0
H942 H 0.65232 0.2675 0.68839 0.0
H943 H 0.63618 0.25148 0.74809 0.0
H944 H 0.64817 0.23502 0.9143 0.0
H945 H 0.66695 0.24389 0.97914 0.0
H946 H 0.68772 0.3025 1.01188 0.0
H947 H 0.68936 0.32649 0.95709 0.0
H948 H 0.69299 0.33263 0.77935 0.0
H949 H 0.69135 0.31366 0.70903 0.0
H950 H 0.62628 0.31841 0.8045 0.0
H951 H 0.62863 0.30645 0.94803 0.0
H952 H 0.72717 0.28581 0.8452 0.0
H953 H 0.70785 0.24823 0.7718 0.0
C954 C 1.01472 0.41746 0.99782 0.0
C955 C 0.02657 0.41052 0.97445 0.0
C956 C 0.03544 0.4037 1.00685 0.0
C957 C 0.02861 0.40685 0.04799 0.0
N958 N 1.01593 0.41518 0.0436 0.0
Co959 Co 1.00286 0.42244 0.09441 0.0
N960 N 0.01946 0.4198 0.13984 0.0
C961 C 0.03233 0.4119 0.13308 0.0
C962 C 0.04222 0.41273 0.16916 0.0
C963 C 0.03508 0.42146 0.20119 0.0
C964 C 0.02102 0.4253 0.18305 0.0
N965 N 0.98988 0.42942 0.14599 0.0
C966 C 0.99341 0.43251 0.19066 0.0
C967 C 0.98044 0.43548 0.21578 0.0
C968 C 0.96844 0.43398 0.18606 0.0
C969 C 0.97469 0.43015 0.14442 0.0
N970 N 0.98672 0.42523 0.04784 0.0
C971 C 0.97189 0.42648 0.05677 0.0
C972 C 0.9635 0.42867 0.01748 0.0
C973 C 0.97377 0.42878 0.98188 0.0
C974 C 0.9879 0.42668 1.0014 0.0
N975 N 0.99543 0.40137 0.10585 0.0
C976 C 0.9761 0.37641 0.12649 0.0
C977 C 0.97915 0.38072 0.08083 0.0
C978 C 0.98887 0.39305 0.0713 0.0
C979 C 0.98429 0.38403 0.16094 0.0
C980 C 0.99387 0.39624 0.15 0.0
N981 N 1.00904 0.44374 0.08299 0.0
C982 C 1.00089 0.46955 0.06845 0.0
C983 C 1.01564 0.47436 0.05899 0.0
C984 C 0.02715 0.46322 0.06295 0.0
C985 C 0.02361 0.44803 0.07453 0.0
C986 C 0.99793 0.45455 0.08093 0.0
H987 H 0.0326 0.43974 0.07614 0.0
H988 H 0.98637 0.45169 0.08756 0.0
H989 H 0.99026 0.39647 0.03594 0.0
H990 H 0.99922 0.40214 0.17792 0.0
C991 C 0.03561 0.40548 0.09056 0.0
C992 C 1.00218 0.42539 0.97529 0.0
C993 C 1.00864 0.43127 0.21144 0.0
C994 C 0.96693 0.42832 0.10242 0.0
H995 H 0.02872 0.41051 0.93787 0.0
H996 H 0.04613 0.39799 1.00125 0.0
H997 H 0.05338 0.40776 0.17164 0.0
H998 H 0.03944 0.42406 0.23503 0.0
H999 H 0.97972 0.4381 0.25205 0.0
H1000 H 0.9566 0.43554 0.19393 0.0
H1001 H 0.95146 0.43066 1.01509 0.0
H1002 H 0.97119 0.43032 0.94583 0.0
H1003 H 0.97341 0.3752 0.05257 0.0
H1004 H 0.98297 0.38093 0.19669 0.0
H1005 H 0.99133 0.47711 0.0651 0.0
H1006 H 0.03886 0.46606 0.05712 0.0
C1007 C 0.87128 0.76153 0.245 0.0
C1008 C 0.88275 0.76891 0.22156 0.0
C1009 C 0.88938 0.7785 0.25241 0.0
C1010 C 0.88176 0.77617 0.2928 0.0
N1011 N 0.87076 0.76573 0.28968 0.0
Co1012 Co 0.86061 0.75555 0.34238 0.0
N1013 N 0.86744 0.77168 0.38558 0.0
C1014 C 0.87635 0.78357 0.37518 0.0
C1015 C 0.87746 0.79404 0.40972 0.0
C1016 C 0.86894 0.78833 0.44462 0.0
C1017 C 0.86345 0.7744 0.42975 0.0
N1018 N 0.85183 0.74473 0.39645 0.0
C1019 C 0.85204 0.74838 0.44211 0.0
C1020 C 0.84584 0.73685 0.46829 0.0
C1021 C 0.84165 0.72564 0.43813 0.0
C1022 C 0.84554 0.73088 0.3953 0.0
N1023 N 0.85302 0.74033 0.29687 0.0
C1024 C 0.84567 0.72748 0.30727 0.0
C1025 C 0.83982 0.72039 0.2692 0.0
C1026 C 0.8436 0.72939 0.23246 0.0
C1027 C 0.85168 0.74152 0.25002 0.0
N1028 N 0.8796 0.74351 0.35248 0.0
C1029 C 0.9035 0.72257 0.37201 0.0
C1030 C 0.89742 0.72404 0.32753 0.0
C1031 C 0.88556 0.73443 0.31859 0.0
C1032 C 0.8978 0.73249 0.40562 0.0
C1033 C 0.88612 0.74282 0.39521 0.0
N1034 N 0.84091 0.76673 0.33314 0.0
C1035 C 0.81475 0.76936 0.35758 0.0
C1036 C 0.80985 0.77195 0.31244 0.0
C1037 C 0.82109 0.77369 0.27901 0.0
C1038 C 0.83644 0.77158 0.29057 0.0
C1039 C 0.83016 0.76702 0.36716 0.0
H1040 H 0.84455 0.77361 0.26468 0.0
H1041 H 0.83299 0.76501 0.40232 0.0
H1042 H 0.88094 0.73471 0.28434 0.0
H1043 H 0.88213 0.74988 0.42267 0.0
C1044 C 0.88349 0.78457 0.33278 0.0
C1045 C 0.85906 0.75346 0.22191 0.0
C1046 C 0.8573 0.76297 0.46125 0.0
C1047 C 0.84292 0.72361 0.35321 0.0
H1048 H 0.88524 0.76822 0.18521 0.0
H1049 H 0.89824 0.78662 0.24573 0.0
H1050 H 0.88386 0.80448 0.40977 0.0
H1051 H 0.86768 0.79344 0.47822 0.0
H1052 H 0.84432 0.7367 0.50516 0.0
H1053 H 0.83624 0.715 0.44645 0.0
H1054 H 0.8331 0.71016 0.26834 0.0
H1055 H 0.84072 0.72711 0.19714 0.0
H1056 H 0.90136 0.71676 0.30006 0.0
H1057 H 0.90222 0.7322 0.44031 0.0
H1058 H 0.80669 0.7685 0.3854 0.0
H1059 H 0.81811 0.77665 0.24406 0.0
C1060 C 0.51963 0.41921 0.03605 0.0
C1061 C 0.50801 0.41206 0.0597 0.0
C1062 C 0.49929 0.40495 0.02754 0.0
C1063 C 0.50599 0.40815 0.98626 0.0
N1064 N 0.51844 0.41677 0.99035 0.0
Co1065 Co 0.53124 0.42419 0.93925 0.0
N1066 N 0.51464 0.42115 0.8941 0.0
C1067 C 0.50201 0.41297 0.90115 0.0
C1068 C 0.49205 0.41351 0.86519 0.0
C1069 C 0.4989 0.42234 0.83293 0.0
C1070 C 0.51287 0.42653 0.85081 0.0
N1071 N 0.54396 0.43128 0.8873 0.0
C1072 C 0.54027 0.43429 0.84269 0.0
C1073 C 0.55314 0.43739 0.8173 0.0
C1074 C 0.56522 0.43608 0.8468 0.0
C1075 C 0.55914 0.4322 0.88859 0.0
N1076 N 0.54736 0.42739 0.98554 0.0
C1077 C 0.56214 0.4289 0.97637 0.0
C1078 C 0.57051 0.43139 1.01551 0.0
C1079 C 0.56029 0.43143 0.05124 0.0
C1080 C 0.54619 0.42899 0.03195 0.0
N1081 N 0.53918 0.40324 0.92805 0.0
C1082 C 0.55941 0.37883 0.90835 0.0
C1083 C 0.55596 0.38303 0.95385 0.0
C1084 C 0.54582 0.39511 0.96292 0.0
C1085 C 0.55118 0.38623 0.87348 0.0
C1086 C 0.5411 0.39814 0.88397 0.0
N1087 N 0.52461 0.44538 0.95065 0.0
C1088 C 0.53243 0.47131 0.96402 0.0
C1089 C 0.51782 0.47567 0.97636 0.0
C1090 C 0.50643 0.46453 0.974 0.0
C1091 C 0.51008 0.44941 0.96144 0.0
C1092 C 0.53551 0.45638 0.95107 0.0
H1093 H 0.50127 0.44096 0.96125 0.0
H1094 H 0.54701 0.45376 0.94258 0.0
H1095 H 0.54418 0.39853 0.99819 0.0
H1096 H 0.53568 0.40388 0.8558 0.0
C1097 C 0.49897 0.40655 0.9438 0.0
C1098 C 0.53195 0.42752 0.05822 0.0
C1099 C 0.525 0.43282 0.82222 0.0
C1100 C 0.567 0.43064 0.93057 0.0
H1101 H 0.50588 0.41212 0.0963 0.0
H1102 H 0.48877 0.39904 0.03337 0.0
H1103 H 0.48102 0.4083 0.86293 0.0
H1104 H 0.49441 0.42479 0.79914 0.0
H1105 H 0.55372 0.43999 0.78101 0.0
H1106 H 0.57701 0.43782 0.83871 0.0
H1107 H 0.58251 0.43361 0.01771 0.0
H1108 H 0.56287 0.43314 0.08721 0.0
H1109 H 0.56172 0.37765 0.98235 0.0
H1110 H 0.55288 0.3832 0.8378 0.0
H1111 H 0.54157 0.47945 0.96417 0.0
H1112 H 0.49489 0.46736 0.98291 0.0
C1113 C 0.86995 0.27331 0.28697 0.0
C1114 C 0.87659 0.26122 0.31023 0.0
C1115 C 0.88313 0.25217 0.27779 0.0
C1116 C 0.88007 0.25911 0.23672 0.0
N1117 N 0.87207 0.27204 0.24118 0.0
Co1118 Co 0.86495 0.28529 0.19038 0.0
N1119 N 0.86728 0.26856 0.14503 0.0
C1120 C 0.8746 0.25533 0.15202 0.0
C1121 C 0.87316 0.24529 0.11644 0.0
C1122 C 0.86467 0.25271 0.08443 0.0
C1123 C 0.86164 0.26708 0.10199 0.0
N1124 N 0.85831 0.29845 0.13855 0.0
C1125 C 0.85548 0.29501 0.09365 0.0
C1126 C 0.85284 0.30809 0.06845 0.0
C1127 C 0.85427 0.32007 0.09838 0.0
C1128 C 0.85775 0.31371 0.14018 0.0
N1129 N 0.8623 0.3015 0.23692 0.0
C1130 C 0.86102 0.31638 0.228 0.0
C1131 C 0.8589 0.32481 0.26729 0.0
C1132 C 0.85886 0.31452 0.30292 0.0
C1133 C 0.86092 0.30033 0.2834 0.0
N1134 N 0.88608 0.29241 0.17921 0.0
C1135 C 0.91219 0.31036 0.15988 0.0
C1136 C 0.90729 0.3077 0.20524 0.0
C1137 C 0.89444 0.29866 0.21412 0.0
C1138 C 0.90414 0.30278 0.12494 0.0
C1139 C 0.89139 0.29388 0.13525 0.0
N1140 N 0.84363 0.27938 0.20188 0.0
C1141 C 0.8177 0.28768 0.21227 0.0
C1142 C 0.81314 0.27327 0.22676 0.0
C1143 C 0.82435 0.26181 0.22736 0.0
C1144 C 0.83944 0.26507 0.21473 0.0
C1145 C 0.83275 0.29047 0.20036 0.0
H1146 H 0.84776 0.2561 0.21622 0.0
H1147 H 0.83555 0.30187 0.19083 0.0
H1148 H 0.89086 0.29735 0.24933 0.0
H1149 H 0.88533 0.28889 0.10704 0.0
C1150 C 0.88104 0.25194 0.19435 0.0
C1151 C 0.86231 0.28602 0.30959 0.0
C1152 C 0.85664 0.27973 0.07287 0.0
C1153 C 0.85939 0.32143 0.18235 0.0
H1154 H 0.87653 0.25895 0.34674 0.0
H1155 H 0.88849 0.24128 0.28329 0.0
H1156 H 0.87758 0.23386 0.11427 0.0
H1157 H 0.86177 0.24834 0.0508 0.0
H1158 H 0.85047 0.30887 0.03204 0.0
H1159 H 0.85289 0.33198 0.09054 0.0
H1160 H 0.85699 0.33691 0.26969 0.0
H1161 H 0.85743 0.31711 0.339 0.0
H1162 H 0.91321 0.31273 0.23398 0.0
H1163 H 0.90719 0.30422 0.08923 0.0
H1164 H 0.80967 0.29692 0.20979 0.0
H1165 H 0.82163 0.25043 0.23843 0.0
C1166 C 1.01184 0.61979 0.52876 0.0
C1167 C 0.02369 0.62752 0.54956 0.0
C1168 C 0.03121 0.63498 0.51544 0.0
C1169 C 0.0237 0.6313 0.47581 0.0
N1170 N 1.01196 0.62193 0.4826 0.0
Co1171 Co 0.99887 0.6133 0.43359 0.0
N1172 N 1.01423 0.61744 0.38513 0.0
C1173 C 0.02525 0.62788 0.38915 0.0
C1174 C 0.03275 0.63069 0.34909 0.0
C1175 C 0.02602 0.62159 0.31734 0.0
C1176 C 1.01488 0.61333 0.34005 0.0
N1177 N 0.98593 0.60479 0.38389 0.0
C1178 C 0.98951 0.60014 0.34034 0.0
C1179 C 0.97695 0.59353 0.3199 0.0
C1180 C 0.96513 0.59503 0.35016 0.0
C1181 C 0.97103 0.6021 0.38814 0.0
N1182 N 0.98385 0.60942 0.48285 0.0
C1183 C 0.96911 0.60674 0.47579 0.0
C1184 C 0.96142 0.60435 0.5162 0.0
C1185 C 0.97203 0.60568 0.55064 0.0
C1186 C 0.98569 0.60874 0.52943 0.0
N1187 N 0.98938 0.63357 0.42215 0.0
C1188 C 0.97016 0.65901 0.40369 0.0
C1189 C 0.97398 0.65474 0.44896 0.0
C1190 C 0.9836 0.64215 0.45738 0.0
C1191 C 0.97686 0.65047 0.36823 0.0
C1192 C 0.98636 0.63808 0.37802 0.0
N1193 N 1.00714 0.59268 0.44525 0.0
C1194 C 1.00113 0.56634 0.46001 0.0
C1195 C 1.01598 0.563 0.47276 0.0
C1196 C 0.02652 0.57501 0.47051 0.0
C1197 C 0.0219 0.58973 0.45641 0.0
C1198 C 0.99704 0.58094 0.44663 0.0
H1199 H 0.03011 0.59877 0.45564 0.0
H1200 H 0.98533 0.5827 0.43934 0.0
H1201 H 0.9859 0.63904 0.49259 0.0
H1202 H 0.99064 0.63169 0.34932 0.0
C1203 C 0.02893 0.63411 0.43164 0.0
C1204 C 1.00001 0.61175 0.55442 0.0
C1205 C 1.00414 0.60316 0.31625 0.0
C1206 C 0.9638 0.60374 0.43106 0.0
H1207 H 0.02662 0.62783 0.58563 0.0
H1208 H 0.04135 0.64171 0.51892 0.0
H1209 H 0.04191 0.63858 0.34345 0.0
H1210 H 0.02867 0.62175 0.28115 0.0
H1211 H 0.97628 0.58808 0.28671 0.0
H1212 H 0.95377 0.59079 0.34577 0.0
H1213 H 0.94966 0.60132 0.52014 0.0
H1214 H 0.97 0.60445 0.5871 0.0
H1215 H 0.96951 0.66098 0.47796 0.0
H1216 H 0.97436 0.65288 0.33259 0.0
H1217 H 0.99235 0.55786 0.46216 0.0
H1218 H 0.03821 0.57312 0.47979 0.0
C1219 C 0.66432 0.76843 0.78905 0.0
C1220 C 0.65838 0.78116 0.81095 0.0
C1221 C 0.65198 0.78999 0.77784 0.0
C1222 C 0.65467 0.78253 0.73748 0.0
N1223 N 0.6623 0.7694 0.74305 0.0
Co1224 Co 0.67 0.75609 0.69308 0.0
N1225 N 0.66817 0.7727 0.6472 0.0
C1226 C 0.66128 0.78616 0.6536 0.0
C1227 C 0.66421 0.79648 0.61968 0.0
C1228 C 0.67325 0.78897 0.58933 0.0
C1229 C 0.67483 0.77422 0.60564 0.0
N1230 N 0.67723 0.74282 0.64217 0.0
C1231 C 0.6806 0.74618 0.59755 0.0
C1232 C 0.68328 0.733 0.57278 0.0
C1233 C 0.68141 0.7211 0.60268 0.0
C1234 C 0.6776 0.72757 0.64403 0.0
N1235 N 0.67224 0.73999 0.74011 0.0
C1236 C 0.67357 0.72508 0.73157 0.0
C1237 C 0.67559 0.71678 0.77112 0.0
C1238 C 0.67553 0.72718 0.80649 0.0
C1239 C 0.67351 0.74131 0.78657 0.0
N1240 N 0.64907 0.74884 0.67966 0.0
C1241 C 0.62451 0.72926 0.65712 0.0
C1242 C 0.6284 0.73242 0.70309 0.0
C1243 C 0.64053 0.74227 0.71354 0.0
C1244 C 0.63231 0.73752 0.62323 0.0
C1245 C 0.64432 0.74724 0.63509 0.0
N1246 N 0.69119 0.76206 0.7067 0.0
C1247 C 0.71683 0.75351 0.72054 0.0
C1248 C 0.72144 0.76796 0.73459 0.0
C1249 C 0.71038 0.77956 0.73363 0.0
C1250 C 0.69538 0.77639 0.71948 0.0
C1251 C 0.70195 0.75087 0.7068 0.0
H1252 H 0.68715 0.78545 0.71967 0.0
H1253 H 0.69914 0.73943 0.69772 0.0
H1254 H 0.64363 0.74372 0.74916 0.0
H1255 H 0.65039 0.75266 0.6076 0.0
C1256 C 0.65442 0.78966 0.69506 0.0
C1257 C 0.67171 0.75563 0.81256 0.0
C1258 C 0.67983 0.7615 0.57671 0.0
C1259 C 0.67553 0.71994 0.68613 0.0
H1260 H 0.65906 0.78436 0.84666 0.0
H1261 H 0.64731 0.80125 0.78227 0.0
H1262 H 0.66067 0.80822 0.61802 0.0
H1263 H 0.67761 0.79366 0.55768 0.0
H1264 H 0.68592 0.73205 0.53662 0.0
H1265 H 0.68271 0.70915 0.59511 0.0
H1266 H 0.67754 0.70469 0.77387 0.0
H1267 H 0.6768 0.72469 0.84269 0.0
H1268 H 0.62274 0.72665 0.73096 0.0
H1269 H 0.62952 0.73615 0.58727 0.0
H1270 H 0.72455 0.74398 0.7215 0.0
H1271 H 0.71324 0.79101 0.74372 0.0
C1272 C 0.48577 0.43084 0.53142 0.0
C1273 C 0.47173 0.43308 0.55133 0.0
C1274 C 0.46131 0.43293 0.51609 0.0
C1275 C 0.46951 0.43057 0.47659 0.0
N1276 N 0.48436 0.42922 0.48502 0.0
Co1277 Co 0.50026 0.4265 0.43781 0.0
N1278 N 0.48701 0.4334 0.38654 0.0
C1279 C 0.47182 0.43384 0.38864 0.0
C1280 C 0.46531 0.43747 0.34721 0.0
C1281 C 0.47712 0.43916 0.31703 0.0
C1282 C 0.4903 0.43658 0.34172 0.0
N1283 N 0.51668 0.42417 0.39165 0.0
C1284 C 0.51819 0.43051 0.34953 0.0
C1285 C 0.53286 0.42867 0.33327 0.0
C1286 C 0.54028 0.41973 0.36414 0.0
C1287 C 0.53002 0.41714 0.39836 0.0
N1288 N 0.51359 0.41914 0.48824 0.0
C1289 C 0.52661 0.41137 0.48299 0.0
C1290 C 0.53418 0.40904 0.52334 0.0
C1291 C 0.52553 0.41582 0.55613 0.0
C1292 C 0.51277 0.42159 0.53413 0.0
N1293 N 0.49293 0.40536 0.42619 0.0
C1294 C 0.47478 0.37929 0.4065 0.0
C1295 C 0.48231 0.3874 0.37165 0.0
C1296 C 0.49131 0.40014 0.38209 0.0
C1297 C 0.47756 0.38412 0.45192 0.0
C1298 C 0.48669 0.39695 0.46097 0.0
N1299 N 0.50633 0.44787 0.4496 0.0
C1300 C 0.52404 0.46723 0.47411 0.0
C1301 C 0.51264 0.47851 0.47408 0.0
C1302 C 0.49819 0.47394 0.46045 0.0
C1303 C 0.49531 0.45883 0.4487 0.0
C1304 C 0.52067 0.45206 0.46173 0.0
H1305 H 0.48389 0.45605 0.43971 0.0
H1306 H 0.52959 0.44369 0.46277 0.0
H1307 H 0.49626 0.40625 0.35386 0.0
H1308 H 0.4881 0.40047 0.49624 0.0
C1309 C 0.46431 0.43216 0.43107 0.0
C1310 C 0.50006 0.42916 0.55749 0.0
C1311 C 0.50555 0.43577 0.32068 0.0
C1312 C 0.53355 0.41064 0.44038 0.0
H1313 H 0.4693 0.43463 0.58746 0.0
H1314 H 0.44928 0.43494 0.51886 0.0
H1315 H 0.4534 0.4388 0.33978 0.0
H1316 H 0.4761 0.44164 0.28078 0.0
H1317 H 0.53763 0.4329 0.3016 0.0
H1318 H 0.55196 0.4161 0.36273 0.0
H1319 H 0.5454 0.40435 0.52783 0.0
H1320 H 0.52887 0.41686 0.59163 0.0
H1321 H 0.48078 0.38441 0.3359 0.0
H1322 H 0.47257 0.37817 0.48061 0.0
H1323 H 0.53545 0.46996 0.48447 0.0
H1324 H 0.48898 0.48201 0.45843 0.0
C1325 C 0.35689 0.74012 0.28476 0.0
C1326 C 0.35165 0.72691 0.30479 0.0
C1327 C 0.34758 0.71745 0.26953 0.0
C1328 C 0.35056 0.72538 0.23 0.0
N1329 N 0.35632 0.73923 0.23791 0.0
Co1330 Co 0.36127 0.7547 0.18997 0.0
N1331 N 0.35323 0.74193 0.13838 0.0
C1332 C 0.34833 0.72756 0.1422 0.0
C1333 C 0.34453 0.72114 0.10076 0.0
C1334 C 0.34729 0.73211 0.06849 0.0
C1335 C 0.35261 0.74463 0.09214 0.0
N1336 N 0.36562 0.77073 0.14298 0.0
C1337 C 0.36178 0.7717 0.09794 0.0
C1338 C 0.36575 0.78565 0.07933 0.0
C1339 C 0.37277 0.79355 0.11323 0.0
C1340 C 0.37248 0.78412 0.15049 0.0
N1341 N 0.37025 0.76731 0.24055 0.0
C1342 C 0.37783 0.78043 0.23502 0.0
C1343 C 0.38327 0.78653 0.27473 0.0
C1344 C 0.37888 0.77679 0.30814 0.0
C1345 C 0.37106 0.76502 0.28673 0.0
N1346 N 0.38149 0.74476 0.1799 0.0
C1347 C 0.40654 0.72497 0.16176 0.0
C1348 C 0.39988 0.73385 0.12702 0.0
C1349 C 0.38755 0.74354 0.13667 0.0
C1350 C 0.40081 0.727 0.2064 0.0
C1351 C 0.3886 0.73701 0.21476 0.0
N1352 N 0.34053 0.76362 0.19994 0.0
C1353 C 0.31987 0.76909 0.2527 0.0
C1354 C 0.30905 0.76788 0.21766 0.0
C1355 C 0.31459 0.76589 0.17286 0.0
C1356 C 0.33016 0.76401 0.16482 0.0
C1357 C 0.33536 0.76722 0.24307 0.0
H1358 H 0.33352 0.76239 0.12989 0.0
H1359 H 0.34289 0.76842 0.27132 0.0
H1360 H 0.38267 0.7496 0.10837 0.0
H1361 H 0.3847 0.73806 0.24961 0.0
C1362 C 0.34734 0.72063 0.18524 0.0
C1363 C 0.36306 0.75291 0.31156 0.0
C1364 C 0.35637 0.75911 0.06977 0.0
C1365 C 0.37826 0.78767 0.19308 0.0
H1366 H 0.35097 0.72436 0.3411 0.0
H1367 H 0.34282 0.7062 0.27243 0.0
H1368 H 0.34025 0.70984 0.0947 0.0
H1369 H 0.34548 0.73111 0.03184 0.0
H1370 H 0.36424 0.78954 0.04436 0.0
H1371 H 0.37756 0.80481 0.11097 0.0
H1372 H 0.38913 0.79719 0.27916 0.0
H1373 H 0.3809 0.77888 0.34404 0.0
H1374 H 0.40377 0.73295 0.09188 0.0
H1375 H 0.40571 0.72086 0.23498 0.0
H1376 H 0.31645 0.7714 0.28771 0.0
H1377 H 0.30692 0.76519 0.14395 0.0
C1378 C 0.04906 0.60015 0.02803 0.0
C1379 C 0.06126 0.59134 0.04192 0.0
C1380 C 0.07078 0.59007 1.00475 0.0
C1381 C 0.06385 0.59783 0.96966 0.0
N1382 N 0.05059 0.60388 0.98253 0.0
Co1383 Co 0.0353 0.61257 0.93986 0.0
N1384 N 0.04553 0.60503 0.88341 0.0
C1385 C 0.05998 0.60033 0.88195 0.0
C1386 C 0.06458 0.59661 0.83832 0.0
C1387 C 0.05225 0.59918 0.81062 0.0
C1388 C 0.04064 0.60418 0.83891 0.0
N1389 N 0.01927 0.62071 0.89844 0.0
C1390 C 1.01553 0.61699 0.85443 0.0
C1391 C 1.00202 0.62396 0.84194 0.0
C1392 C 0.99792 0.63321 0.87751 0.0
C1393 C 1.00873 0.63101 0.91051 0.0
N1394 N 0.02552 0.62139 0.99515 0.0
C1395 C 1.01606 0.63333 0.9949 0.0
C1396 C 1.01282 0.63869 0.03802 0.0
C1397 C 0.02069 0.62946 0.06736 0.0
C1398 C 0.028 0.61872 0.04034 0.0
N1399 N 0.04736 0.63163 0.93352 0.0
C1400 C 0.06906 0.65529 0.92247 0.0
C1401 C 0.05993 0.65043 0.88569 0.0
C1402 C 0.04923 0.63868 0.89187 0.0
C1403 C 0.06627 0.64854 0.96546 0.0
C1404 C 0.05549 0.63693 0.97024 0.0
N1405 N 0.02428 0.59281 0.94715 0.0
C1406 C 1.00996 0.5762 0.99761 0.0
C1407 C 1.01693 0.56308 0.97941 0.0
C1408 C 0.02632 0.56535 0.94137 0.0
C1409 C 0.02995 0.57997 0.92646 0.0
C1410 C 1.01343 0.59078 0.98024 0.0
H1411 H 0.03808 0.58038 0.89938 0.0
H1412 H 1.00782 0.60035 0.99569 0.0
H1413 H 0.04291 0.63493 0.86229 0.0
H1414 H 0.05417 0.63186 1.0037 0.0
C1415 C 0.06778 0.59715 0.92292 0.0
C1416 C 0.03659 0.60574 0.05845 0.0
C1417 C 0.02534 0.60848 0.82217 0.0
C1418 C 1.00841 0.63718 0.9547 0.0
H1419 H 0.06308 0.58589 0.07459 0.0
H1420 H 0.08103 0.58339 1.00282 0.0
H1421 H 0.07541 0.59204 0.82802 0.0
H1422 H 0.05189 0.59751 0.77383 0.0
H1423 H 0.99571 0.62273 0.81039 0.0
H1424 H 0.98797 0.64033 0.87957 0.0
H1425 H 1.00512 0.64775 0.0472 0.0
H1426 H 0.02069 0.6303 0.10445 0.0
H1427 H 0.06146 0.65517 0.85172 0.0
H1428 H 0.07259 0.65201 0.99551 0.0
H1429 H 1.00227 0.57547 0.02633 0.0
H1430 H 0.03136 0.55588 0.92332 0.0
C1431 C 0.17498 0.30052 0.78253 0.0
C1432 C 0.17941 0.31418 0.80169 0.0
C1433 C 0.1831 0.32353 0.76582 0.0
C1434 C 0.18074 0.31507 0.72685 0.0
N1435 N 0.17575 0.30099 0.73568 0.0
Co1436 Co 0.17179 0.28487 0.68881 0.0
N1437 N 0.17993 0.29735 0.63674 0.0
C1438 C 0.18377 0.31207 0.63953 0.0
C1439 C 0.18747 0.31831 0.59788 0.0
C1440 C 0.18581 0.30685 0.56653 0.0
C1441 C 0.1813 0.29414 0.59089 0.0
N1442 N 0.16836 0.26826 0.64292 0.0
C1443 C 0.17328 0.2667 0.59895 0.0
C1444 C 0.17135 0.2519 0.5834 0.0
C1445 C 0.16393 0.24428 0.61701 0.0
C1446 C 0.1623 0.25458 0.65174 0.0
N1447 N 0.16274 0.27255 0.73989 0.0
C1448 C 0.15552 0.25923 0.73494 0.0
C1449 C 0.14977 0.25349 0.77473 0.0
C1450 C 0.15362 0.26371 0.80757 0.0
C1451 C 0.1615 0.27533 0.78578 0.0
N1452 N 0.15141 0.29399 0.67619 0.0
C1453 C 0.1265 0.31353 0.65515 0.0
C1454 C 0.13395 0.30504 0.62095 0.0
C1455 C 0.14612 0.29535 0.63209 0.0
C1456 C 0.13115 0.31093 0.7007 0.0
C1457 C 0.14345 0.30117 0.7104 0.0
N1458 N 0.19267 0.27672 0.70141 0.0
C1459 C 0.21284 0.27274 0.75695 0.0
C1460 C 0.22406 0.27425 0.72319 0.0
C1461 C 0.21896 0.2753 0.67755 0.0
C1462 C 0.20345 0.27642 0.66755 0.0
C1463 C 0.19745 0.2736 0.74524 0.0
H1464 H 0.20047 0.27745 0.63213 0.0
H1465 H 0.18965 0.27211 0.77255 0.0
H1466 H 0.15159 0.28947 0.60435 0.0
H1467 H 0.14686 0.30005 0.74572 0.0
C1468 C 0.18393 0.31953 0.68188 0.0
C1469 C 0.16928 0.28773 0.8101 0.0
C1470 C 0.17859 0.27914 0.56951 0.0
C1471 C 0.15604 0.25139 0.69397 0.0
H1472 H 0.17975 0.31709 0.8378 0.0
H1473 H 0.18721 0.33505 0.76797 0.0
H1474 H 0.1909 0.32986 0.59104 0.0
H1475 H 0.18763 0.30781 0.52992 0.0
H1476 H 0.17479 0.24701 0.551 0.0
H1477 H 0.16048 0.23252 0.61664 0.0
H1478 H 0.14413 0.24275 0.7797 0.0
H1479 H 0.15123 0.26205 0.84344 0.0
H1480 H 0.13061 0.30607 0.5853 0.0
H1481 H 0.12583 0.31695 0.72879 0.0
H1482 H 0.21575 0.27144 0.79281 0.0
H1483 H 0.22687 0.2755 0.64925 0.0
C1484 C 0.48614 0.60392 0.99548 0.0
C1485 C 0.47607 0.59358 0.97684 0.0
C1486 C 0.46905 0.58661 1.01295 0.0
C1487 C 0.47524 0.5929 0.05169 0.0
N1488 N 0.48547 0.60377 0.04267 0.0
Co1489 Co 0.49983 0.61255 0.08939 0.0
N1490 N 0.49004 0.60211 0.14266 0.0
C1491 C 0.47825 0.59255 0.13973 0.0
C1492 C 0.47303 0.58791 0.18176 0.0
C1493 C 0.48226 0.59476 0.21333 0.0
C1494 C 0.49288 0.603 0.1888 0.0
N1495 N 0.51512 0.62056 0.13398 0.0
C1496 C 0.51735 0.61754 0.17934 0.0
C1497 C 0.53143 0.62274 0.19369 0.0
C1498 C 0.53777 0.63006 0.15743 0.0
C1499 C 0.5276 0.62848 0.12247 0.0
N1500 N 0.50908 0.62391 0.03718 0.0
C1501 C 0.5203 0.63409 0.03998 0.0
C1502 C 0.52192 0.64277 1.00125 0.0
C1503 C 0.5112 0.63751 0.97148 0.0
C1504 C 0.50399 0.62559 0.99354 0.0
N1505 N 0.48603 0.63041 0.10059 0.0
C1506 C 0.46543 0.65466 0.12128 0.0
C1507 C 0.48113 0.65707 0.11869 0.0
C1508 C 0.49116 0.64487 0.10885 0.0
C1509 C 0.46043 0.63989 0.11215 0.0
C1510 C 0.4707 0.62818 0.10175 0.0
N1511 N 0.51273 0.59411 0.07893 0.0
C1512 C 0.51857 0.57399 0.02482 0.0
C1513 C 0.519 0.56317 0.05997 0.0
C1514 C 0.51825 0.56855 0.10527 0.0
C1515 C 0.51528 0.58399 0.11395 0.0
C1516 C 0.51604 0.58936 0.0353 0.0
H1517 H 0.51427 0.58737 0.1492 0.0
H1518 H 0.51611 0.59719 1.00762 0.0
H1519 H 0.50305 0.64726 0.10873 0.0
H1520 H 0.46597 0.61724 0.09539 0.0
C1521 C 0.47238 0.58836 0.09693 0.0
C1522 C 0.49671 0.61331 0.96801 0.0
C1523 C 0.50649 0.60993 0.20998 0.0
C1524 C 0.52913 0.63499 0.07925 0.0
H1525 H 0.47414 0.59093 0.94119 0.0
H1526 H 0.46081 0.57758 1.01112 0.0
H1527 H 0.46368 0.58039 0.18868 0.0
H1528 H 0.48146 0.59344 0.25018 0.0
H1529 H 0.53686 0.62137 0.22667 0.0
H1530 H 0.54856 0.63578 0.15659 0.0
H1531 H 0.53022 0.6515 0.99483 0.0
H1532 H 0.50998 0.64082 0.93586 0.0
H1533 H 0.48571 0.6682 0.12568 0.0
H1534 H 0.44849 0.63728 0.11306 0.0
H1535 H 0.52005 0.5706 0.98933 0.0
H1536 H 0.51921 0.56078 0.13392 0.0
C1537 C 0.17952 0.73687 0.74539 0.0
C1538 C 0.18761 0.72529 0.72457 0.0
C1539 C 0.1963 0.71876 0.75817 0.0
C1540 C 0.19302 0.72667 0.79755 0.0
N1541 N 0.1826 0.73763 0.79132 0.0
Co1542 Co 0.17586 0.75253 0.8392 0.0
N1543 N 0.18687 0.74176 0.89019 0.0
C1544 C 0.19696 0.73046 0.88433 0.0
C1545 C 0.204 0.72615 0.92427 0.0
C1546 C 0.19825 0.73548 0.95758 0.0
C1547 C 0.1879 0.74495 0.93612 0.0
N1548 N 0.16891 0.76751 0.88657 0.0
C1549 C 0.1699 0.76715 0.93306 0.0
C1550 C 0.16121 0.77851 0.95314 0.0
C1551 C 0.15537 0.78692 0.91826 0.0
C1552 C 0.16043 0.78 0.87912 0.0
N1553 N 0.16493 0.76369 0.78899 0.0
C1554 C 0.15791 0.77724 0.79299 0.0
C1555 C 0.15161 0.78249 0.75319 0.0
C1556 C 0.15492 0.77174 0.72134 0.0
C1557 C 0.16305 0.7604 0.74377 0.0
N1558 N 0.15754 0.73975 0.85104 0.0
C1559 C 0.13203 0.7204 0.8658 0.0
C1560 C 0.13038 0.73614 0.85848 0.0
C1561 C 0.14314 0.74552 0.8514 0.0
C1562 C 0.14688 0.71476 0.86562 0.0
C1563 C 0.15925 0.72445 0.85816 0.0
N1564 N 0.19469 0.76435 0.82681 0.0
C1565 C 0.21532 0.76771 0.77295 0.0
C1566 C 0.22587 0.7694 0.80865 0.0
C1567 C 0.21994 0.77044 0.85347 0.0
C1568 C 0.20441 0.76812 0.86164 0.0
C1569 C 0.19994 0.76557 0.78267 0.0
H1570 H 0.20054 0.76854 0.89658 0.0
H1571 H 0.1926 0.76381 0.75398 0.0
H1572 H 0.14122 0.75744 0.84602 0.0
H1573 H 0.17024 0.71932 0.85771 0.0
C1574 C 0.19942 0.72418 0.84084 0.0
C1575 C 0.17022 0.74776 0.71942 0.0
C1576 C 0.18057 0.75789 0.95935 0.0
C1577 C 0.15622 0.78417 0.83523 0.0
H1578 H 0.1876 0.72224 0.68855 0.0
H1579 H 0.20426 0.70952 0.75415 0.0
H1580 H 0.21255 0.71747 0.92853 0.0
H1581 H 0.20171 0.73565 0.99321 0.0
H1582 H 0.15967 0.78081 0.98936 0.0
H1583 H 0.1481 0.79676 0.92107 0.0
H1584 H 0.14528 0.79287 0.74801 0.0
H1585 H 0.15197 0.77253 0.68541 0.0
H1586 H 0.11927 0.74129 0.85859 0.0
H1587 H 0.14902 0.70277 0.87014 0.0
H1588 H 0.2189 0.76711 0.73747 0.0
H1589 H 0.22727 0.77261 0.8825 0.0
C1590 C 0.0477 0.42821 0.50174 0.0
C1591 C 0.0617 0.43056 0.48178 0.0
C1592 C 0.07215 0.43037 0.51696 0.0
C1593 C 0.064 0.42786 0.55645 0.0
N1594 N 0.04915 0.42646 0.54804 0.0
Co1595 Co 0.03328 0.42364 0.59515 0.0
N1596 N 0.04645 0.43065 0.64639 0.0
C1597 C 0.06164 0.43117 0.64434 0.0
C1598 C 0.06808 0.43492 0.68574 0.0
C1599 C 0.05624 0.43662 0.71582 0.0
C1600 C 0.0431 0.43392 0.69112 0.0
N1601 N 1.0169 0.42118 0.64128 0.0
C1602 C 1.01531 0.42747 0.68346 0.0
C1603 C 1.0007 0.42539 0.69987 0.0
C1604 C 0.99343 0.41636 0.66897 0.0
C1605 C 1.0037 0.41396 0.6346 0.0
N1606 N 0.02006 0.41619 0.54473 0.0
C1607 C 1.00719 0.40825 0.54989 0.0
C1608 C 0.99966 0.40589 0.50949 0.0
C1609 C 1.00819 0.41283 0.47679 0.0
C1610 C 0.02084 0.41874 0.49892 0.0
N1611 N 0.04082 0.4026 0.60655 0.0
C1612 C 0.05928 0.37667 0.62515 0.0
C1613 C 0.05191 0.38475 0.66048 0.0
C1614 C 0.04273 0.39742 0.65055 0.0
C1615 C 0.05615 0.38142 0.57988 0.0
C1616 C 0.04688 0.3942 0.57139 0.0
N1617 N 0.02695 0.44491 0.5833 0.0
C1618 C 1.00927 0.46376 0.55505 0.0
C1619 C 0.02062 0.47499 0.55378 0.0
C1620 C 0.03499 0.47076 0.56934 0.0
C1621 C 0.03786 0.45591 0.58381 0.0
C1622 C 1.01264 0.44886 0.57003 0.0
H1623 H 0.04927 0.45327 0.59346 0.0
H1624 H 1.00379 0.44046 0.56965 0.0
H1625 H 0.03788 0.40354 0.67902 0.0
H1626 H 0.04524 0.39771 0.53621 0.0
C1627 C 0.06918 0.42949 0.60196 0.0
C1628 C 0.03339 0.42657 0.47584 0.0
C1629 C 0.02786 0.43302 0.71211 0.0
C1630 C 1.00027 0.40742 0.59253 0.0
H1631 H 0.06408 0.43224 0.44568 0.0
H1632 H 0.08414 0.43248 0.51418 0.0
H1633 H 0.07997 0.43635 0.69319 0.0
H1634 H 0.05722 0.43918 0.75204 0.0
H1635 H 0.99588 0.42954 0.73161 0.0
H1636 H 0.98183 0.41257 0.67046 0.0
H1637 H 0.98852 0.40108 0.50491 0.0
H1638 H 1.00485 0.41386 0.44129 0.0
H1639 H 0.05372 0.38181 0.69615 0.0
H1640 H 0.061 0.37546 0.55091 0.0
H1641 H 0.99787 0.46637 0.54414 0.0
H1642 H 0.0443 0.47867 0.56854 0.0
C1643 C 0.35836 0.30002 0.24796 0.0
C1644 C 0.35555 0.31378 0.22655 0.0
C1645 C 0.35546 0.32466 0.26059 0.0
C1646 C 0.35825 0.317 0.30092 0.0
N1647 N 0.36013 0.30206 0.29404 0.0
Co1648 Co 0.36344 0.28674 0.34267 0.0
N1649 N 0.35605 0.30029 0.39242 0.0
C1650 C 0.35503 0.31548 0.38899 0.0
C1651 C 0.35091 0.32221 0.4297 0.0
C1652 C 0.34953 0.31055 0.46076 0.0
C1653 C 0.35284 0.29726 0.43729 0.0
N1654 N 0.36642 0.27084 0.3903 0.0
C1655 C 0.36071 0.26966 0.43329 0.0
C1656 C 0.36499 0.25599 0.45344 0.0
C1657 C 0.37418 0.24875 0.42291 0.0
C1658 C 0.37484 0.25819 0.3857 0.0
N1659 N 0.3713 0.27315 0.29372 0.0
C1660 C 0.37978 0.26062 0.30024 0.0
C1661 C 0.38214 0.25252 0.26083 0.0
C1662 C 0.37467 0.26035 0.22739 0.0
C1663 C 0.3685 0.27321 0.24799 0.0
N1664 N 0.38419 0.29504 0.35383 0.0
C1665 C 0.40885 0.31493 0.37376 0.0
C1666 C 0.40132 0.30679 0.40849 0.0
C1667 C 0.38926 0.29697 0.39795 0.0
C1668 C 0.40451 0.31162 0.32822 0.0
C1669 C 0.39232 0.30164 0.31905 0.0
N1670 N 0.34241 0.2797 0.33138 0.0
C1671 C 0.32382 0.26111 0.30739 0.0
C1672 C 0.31222 0.27217 0.30629 0.0
C1673 C 0.31622 0.28689 0.31948 0.0
C1674 C 0.33112 0.29037 0.33145 0.0
C1675 C 0.33878 0.26508 0.32009 0.0
H1676 H 0.33344 0.30199 0.33974 0.0
H1677 H 0.34743 0.25642 0.31986 0.0
H1678 H 0.38346 0.29169 0.42615 0.0
H1679 H 0.38893 0.30001 0.28375 0.0
C1680 C 0.35645 0.32266 0.34589 0.0
C1681 C 0.36032 0.28538 0.22362 0.0
C1682 C 0.3541 0.28223 0.45967 0.0
C1683 C 0.38136 0.25446 0.34386 0.0
H1684 H 0.35374 0.31571 0.19025 0.0
H1685 H 0.35294 0.3366 0.25656 0.0
H1686 H 0.34896 0.33415 0.43601 0.0
H1687 H 0.34668 0.31168 0.49674 0.0
H1688 H 0.36236 0.25195 0.48761 0.0
H1689 H 0.3795 0.23776 0.42702 0.0
H1690 H 0.38736 0.24146 0.25753 0.0
H1691 H 0.37352 0.25638 0.19252 0.0
H1692 H 0.4044 0.3083 0.44419 0.0
H1693 H 0.40993 0.3173 0.29974 0.0
H1694 H 0.32151 0.24951 0.29757 0.0
H1695 H 0.30788 0.29587 0.32081 0.0
H1696 H 0.01793 0.09261 0.76739 0.0
H1697 H 1.01032 0.14072 0.75526 0.0
H1698 H 0.0199 0.14459 0.8331 0.0
H1699 H 0.03038 0.13451 0.90509 0.0
H1700 H 0.03424 0.08627 0.92372 0.0
H1701 H 0.02703 0.08222 0.84293 0.0
C1702 C 0.01814 0.10389 0.78217 0.0
C1703 C 1.01341 0.11639 0.75519 0.0
C1704 C 0.0234 0.10602 0.8279 0.0
C1705 C 1.01386 0.13093 0.77503 0.0
C1706 C 0.01947 0.13316 0.81949 0.0
C1707 C 0.02968 0.12309 0.89143 0.0
C1708 C 0.0327 0.1107 0.92079 0.0
C1709 C 0.02437 0.12084 0.84617 0.0
C1710 C 0.03199 0.09601 0.90211 0.0
C1711 C 0.02764 0.09371 0.85601 0.0
H1712 H 0.17989 0.74351 0.04327 0.0
H1713 H 0.19196 0.78587 0.98002 0.0
H1714 H 0.19169 0.79845 0.0549 0.0
H1715 H 0.18353 0.79801 0.13657 0.0
H1716 H 0.17655 0.75436 0.2007 0.0
H1717 H 0.17941 0.74194 0.12784 0.0
C1718 C 0.18309 0.75533 0.04598 0.0
C1719 C 0.18546 0.76379 1.00576 0.0
C1720 C 0.18351 0.76245 0.08952 0.0
C1721 C 0.18974 0.77912 1.01034 0.0
C1722 C 0.1895 0.78638 0.05323 0.0
C1723 C 0.18346 0.78578 0.13576 0.0
C1724 C 0.17966 0.77747 0.17561 0.0
C1725 C 0.18576 0.77828 0.09308 0.0
C1726 C 0.17926 0.76145 0.1716 0.0
C1727 C 0.18084 0.75413 0.1294 0.0
H1728 H 0.52326 0.94898 0.27917 0.0
H1729 H 0.53305 0.90149 0.2611 0.0
H1730 H 0.5226 0.89597 0.33687 0.0
H1731 H 0.50971 0.90435 0.40686 0.0
H1732 H 0.50392 0.95204 0.43283 0.0
H1733 H 0.51268 0.95781 0.35451 0.0
C1734 C 0.52364 0.93755 0.29275 0.0
C1735 C 0.52923 0.92567 0.26493 0.0
C1736 C 0.51763 0.93444 0.33681 0.0
C1737 C 0.52922 0.91083 0.28235 0.0
C1738 C 0.52292 0.90763 0.32524 0.0
C1739 C 0.5103 0.91602 0.39524 0.0
C1740 C 0.5063 0.92776 0.42573 0.0
C1741 C 0.5168 0.91928 0.35229 0.0
C1742 C 0.50691 0.9428 0.41002 0.0
C1743 C 0.51221 0.94609 0.36557 0.0
H1744 H 0.33316 0.27245 0.52331 0.0
H1745 H 0.37921 0.28739 0.50927 0.0
H1746 H 0.38517 0.27763 0.58557 0.0
H1747 H 0.37774 0.26392 0.65498 0.0
H1748 H 0.33085 0.25385 0.67829 0.0
H1749 H 0.32486 0.26149 0.59891 0.0
C1750 C 0.34432 0.27406 0.5378 0.0
C1751 C 0.35569 0.28086 0.5108 0.0
C1752 C 0.34764 0.26863 0.58255 0.0
C1753 C 0.37021 0.28253 0.52963 0.0
C1754 C 0.3737 0.27666 0.57292 0.0
C1755 C 0.36616 0.26347 0.64279 0.0
C1756 C 0.35472 0.25858 0.67287 0.0
C1757 C 0.3626 0.26944 0.59928 0.0
C1758 C 0.33987 0.25763 0.65601 0.0
C1759 C 0.33642 0.26227 0.61088 0.0
H1760 H 0.03454 0.93366 0.77151 0.0
H1761 H 0.99019 0.95115 0.74344 0.0
H1762 H 0.99645 0.95322 0.66266 0.0
H1763 H 1.0134 0.94653 0.59689 0.0
H1764 H 0.05661 0.92598 0.62568 0.0
H1765 H 0.05186 0.92823 0.70794 0.0
C1766 C 0.02568 0.93684 0.7478 0.0
C1767 C 1.01063 0.93912 0.76382 0.0
C1768 C 0.02942 0.93776 0.70058 0.0
C1769 C 1.00082 0.94648 0.73257 0.0
C1770 C 1.00465 0.94822 0.68583 0.0
C1771 C 0.02193 0.94284 0.62121 0.0
C1772 C 0.03562 0.93651 0.60437 0.0
C1773 C 0.01865 0.94311 0.66894 0.0
C1774 C 0.04635 0.93155 0.63678 0.0
C1775 C 0.04346 0.93254 0.68418 0.0
H1776 H 0.38128 0.78001 0.87903 0.0
H1777 H 0.33408 0.78647 0.84957 0.0
H1778 H 0.32762 0.77799 0.92769 0.0
H1779 H 0.33568 0.76718 1.00361 0.0
H1780 H 0.38262 0.75612 0.02421 0.0
H1781 H 0.38887 0.76676 0.94926 0.0
C1782 C 0.36956 0.77963 0.88987 0.0
C1783 C 0.35817 0.78372 0.85845 0.0
C1784 C 0.36589 0.77316 0.93254 0.0
C1785 C 0.34306 0.7834 0.87311 0.0
C1786 C 0.33937 0.77825 0.91743 0.0
C1787 C 0.34716 0.76659 0.99076 0.0
C1788 C 0.35866 0.76061 0.01911 0.0
C1789 C 0.35067 0.77262 0.947 0.0
C1790 C 0.37356 0.76029 1.0026 0.0
C1791 C 0.37718 0.7667 0.96017 0.0
H1792 H 0.52501 0.10215 0.09828 0.0
H1793 H 0.4777 0.10339 0.133 0.0
H1794 H 0.48386 0.09841 0.2131 0.0
H1795 H 0.50282 0.09696 0.27582 0.0
H1796 H 0.54939 0.10601 0.24265 0.0
H1797 H 0.54365 0.1037 0.1611 0.0
C1798 C 0.51597 0.10115 0.12322 0.0
C1799 C 0.50078 0.10233 0.1081 0.0
C1800 C 0.51966 0.10031 0.1705 0.0
C1801 C 0.48939 0.10138 0.14176 0.0
C1802 C 0.49297 0.09901 0.18835 0.0
C1803 C 0.51178 0.0983 0.2508 0.0
C1804 C 0.52673 0.101 0.26641 0.0
C1805 C 0.50809 0.09882 0.20338 0.0
C1806 C 0.53799 0.10304 0.2328 0.0
C1807 C 0.53463 0.10207 0.1857 0.0
H1808 H 0.15804 0.26682 0.51054 0.0
H1809 H 0.20339 0.28436 0.51436 0.0
H1810 H 0.20712 0.27659 0.4341 0.0
H1811 H 0.19725 0.26438 0.36254 0.0
H1812 H 0.15387 0.24246 0.36625 0.0
H1813 H 0.15002 0.25121 0.44513 0.0
C1814 C 0.16883 0.26883 0.49403 0.0
C1815 C 0.1804 0.27624 0.51869 0.0
C1816 C 0.17144 0.26292 0.44981 0.0
C1817 C 0.19419 0.27893 0.49624 0.0
C1818 C 0.19642 0.27421 0.45059 0.0
C1819 C 0.18727 0.26099 0.38144 0.0
C1820 C 0.17595 0.25255 0.35887 0.0
C1821 C 0.1852 0.26596 0.42722 0.0
C1822 C 0.16289 0.24856 0.3833 0.0
C1823 C 0.16055 0.25387 0.42802 0.0
H1824 H 0.01814 0.95506 0.25252 0.0
H1825 H 0.02605 0.90719 0.27011 0.0
H1826 H 1.0168 0.90232 0.19244 0.0
H1827 H 1.00608 0.91137 0.1196 0.0
H1828 H 1.00196 0.9593 0.09504 0.0
H1829 H 1.00917 0.96444 0.1753 0.0
C1830 C 0.01812 0.94363 0.23889 0.0
C1831 C 0.02287 0.93149 0.26734 0.0
C1832 C 1.013 0.94089 0.19321 0.0
C1833 C 0.02262 0.91672 0.24905 0.0
C1834 C 1.01714 0.91391 0.20473 0.0
C1835 C 1.0068 0.92298 0.1317 0.0
C1836 C 1.00367 0.93493 0.10078 0.0
C1837 C 1.01216 0.92585 0.17663 0.0
C1838 C 1.00431 0.94986 0.11774 0.0
C1839 C 1.00867 0.95279 0.16358 0.0
H1840 H 0.83604 0.27487 1.00287 0.0
H1841 H 0.88371 0.27855 0.03063 0.0
H1842 H 0.88953 0.26713 0.9565 0.0
H1843 H 0.8812 0.25444 0.88585 0.0
H1844 H 0.83421 0.25618 0.8482 0.0
H1845 H 0.82783 0.26589 0.92482 0.0
C1846 C 0.84768 0.27367 0.99186 0.0
C1847 C 0.85943 0.27765 0.02234 0.0
C1848 C 0.85102 0.2674 0.94813 0.0
C1849 C 0.87447 0.27582 1.00771 0.0
C1850 C 0.87781 0.269 0.96561 0.0
C1851 C 0.86958 0.25731 0.89389 0.0
C1852 C 0.8583 0.25494 0.86057 0.0
C1853 C 0.8662 0.26445 0.93597 0.0
C1854 C 0.8432 0.25794 0.87284 0.0
C1855 C 0.83956 0.26375 0.9165 0.0
H1856 H 0.49482 0.10958 0.73866 0.0
H1857 H 0.53758 0.09955 0.80285 0.0
H1858 H 0.54978 0.09925 0.72747 0.0
H1859 H 0.54851 0.1046 0.64332 0.0
H1860 H 0.50452 0.1073 0.57957 0.0
H1861 H 0.49264 0.10726 0.65447 0.0
C1862 C 0.50659 0.10635 0.73664 0.0
C1863 C 0.5151 0.10446 0.77738 0.0
C1864 C 0.51345 0.10511 0.69277 0.0
C1865 C 0.53064 0.10115 0.77257 0.0
C1866 C 0.53768 0.101 0.72926 0.0
C1867 C 0.53633 0.10426 0.64505 0.0
C1868 C 0.52763 0.106 0.60446 0.0
C1869 C 0.52925 0.10326 0.68889 0.0
C1870 C 0.51175 0.10618 0.60938 0.0
C1871 C 0.50482 0.10619 0.65258 0.0
H1872 H 0.65714 0.77302 0.52397 0.0
H1873 H 0.70263 0.75591 0.51414 0.0
H1874 H 0.7037 0.76398 0.43324 0.0
H1875 H 0.69166 0.7768 0.36573 0.0
H1876 H 0.64791 0.79757 0.38223 0.0
H1877 H 0.64662 0.78828 0.46132 0.0
C1878 C 0.66736 0.77111 0.50425 0.0
C1879 C 0.67984 0.76393 0.52537 0.0
C1880 C 0.66839 0.77704 0.45951 0.0
C1881 C 0.69284 0.76131 0.49886 0.0
C1882 C 0.69353 0.76617 0.45284 0.0
C1883 C 0.68208 0.77968 0.38722 0.0
C1884 C 0.6699 0.78797 0.36826 0.0
C1885 C 0.68148 0.77435 0.43304 0.0
C1886 C 0.65749 0.79147 0.3963 0.0
C1887 C 0.65663 0.78589 0.4412 0.0
H1888 H 0.02405 0.11015 0.4278 0.0
H1889 H 0.97741 0.10265 0.3917 0.0
H1890 H 0.98498 0.09584 0.31379 0.0
H1891 H 1.00448 0.09509 0.25272 0.0
H1892 H 0.04856 0.11304 0.2841 0.0
H1893 H 0.04271 0.11241 0.36569 0.0
C1894 C 1.01543 0.107 0.40315 0.0
C1895 C 1.00011 0.10626 0.4173 0.0
C1896 C 0.01963 0.10495 0.35667 0.0
C1897 C 0.98932 0.10234 0.38377 0.0
C1898 C 0.99365 0.09881 0.33847 0.0
C1899 C 1.01292 0.09865 0.27746 0.0
C1900 C 0.02725 0.10349 0.26138 0.0
C1901 C 1.00875 0.10037 0.32421 0.0
C1902 C 0.0378 0.1084 0.29446 0.0
C1903 C 0.03428 0.10846 0.3415 0.0
H1904 H 0.70021 0.26118 0.17192 0.0
H1905 H 0.65583 0.24147 0.17899 0.0
H1906 H 0.65104 0.24864 0.09914 0.0
H1907 H 0.65842 0.26286 0.03004 0.0
H1908 H 0.70441 0.27797 1.0156 0.0
H1909 H 0.70936 0.27117 0.09605 0.0
C1910 C 0.68974 0.25793 0.15535 0.0
C1911 C 0.67843 0.25063 0.18152 0.0
C1912 C 0.68715 0.26183 0.10858 0.0
C1913 C 0.66481 0.24679 0.15958 0.0
C1914 C 0.66197 0.25114 0.11406 0.0
C1915 C 0.66975 0.26414 0.04352 0.0
C1916 C 0.68109 0.27071 1.01568 0.0
C1917 C 0.6729 0.259 0.08856 0.0
C1918 C 0.6954 0.27299 0.03566 0.0
C1919 C 0.6983 0.26893 0.0817 0.0
H1920 H 0.51234 0.95041 0.78419 0.0
H1921 H 0.50654 0.90293 0.75415 0.0
H1922 H 0.51807 0.89616 0.82717 0.0
H1923 H 0.5318 0.90358 0.89685 0.0
H1924 H 0.53168 0.95045 0.93813 0.0
H1925 H 0.52179 0.95778 0.8625 0.0
C1926 C 0.51302 0.93863 0.79459 0.0
C1927 C 0.50849 0.9272 0.76357 0.0
C1928 C 0.51934 0.93474 0.83778 0.0
C1929 C 0.50969 0.91195 0.77738 0.0
C1930 C 0.5166 0.90805 0.81886 0.0
C1931 C 0.52917 0.91538 0.88997 0.0
C1932 C 0.53208 0.92633 0.92393 0.0
C1933 C 0.52182 0.91933 0.84877 0.0
C1934 C 0.52949 0.94168 0.91296 0.0
C1935 C 0.52358 0.94587 0.86991 0.0
H1936 H 0.88178 0.78853 0.64804 0.0
H1937 H 0.83499 0.78535 0.68689 0.0
H1938 H 0.82865 0.77584 0.61014 0.0
H1939 H 0.83683 0.76744 0.53163 0.0
H1940 H 0.88449 0.76452 0.50301 0.0
H1941 H 0.89028 0.77593 0.57732 0.0
C1942 C 0.87025 0.78526 0.64042 0.0
C1943 C 0.85903 0.7872 0.67411 0.0
C1944 C 0.86693 0.77818 0.59823 0.0
C1945 C 0.84397 0.78388 0.66206 0.0
C1946 C 0.84035 0.77821 0.61829 0.0
C1947 C 0.84847 0.76885 0.54241 0.0
C1948 C 0.86022 0.76529 0.51155 0.0
C1949 C 0.85179 0.77497 0.58628 0.0
C1950 C 0.87526 0.76717 0.52609 0.0
C1951 C 0.87857 0.77393 0.56829 0.0
H1952 H 0.51573 0.63159 0.27157 0.0
H1953 H 0.5071 0.58362 0.26206 0.0
H1954 H 0.51497 0.5804 0.34219 0.0
H1955 H 0.52445 0.59156 0.41611 0.0
H1956 H 0.53915 0.63806 0.41666 0.0
H1957 H 0.53001 0.64129 0.33797 0.0
C1958 C 0.51574 0.62035 0.28665 0.0
C1959 C 0.51045 0.60795 0.26046 0.0
C1960 C 0.52196 0.61825 0.33089 0.0
C1961 C 0.51054 0.59353 0.28131 0.0
C1962 C 0.51539 0.59161 0.32701 0.0
C1963 C 0.52617 0.6022 0.3983 0.0
C1964 C 0.53248 0.61457 0.42235 0.0
C1965 C 0.52126 0.60388 0.35216 0.0
C1966 C 0.53453 0.62833 0.3988 0.0
C1967 C 0.52902 0.63026 0.35407 0.0
H1968 H 0.68378 0.24545 0.55419 0.0
H1969 H 0.69655 0.28809 0.49335 0.0
H1970 H 0.69528 0.30026 0.5687 0.0
H1971 H 0.68631 0.29922 0.65009 0.0
H1972 H 0.68236 0.25516 0.71349 0.0
H1973 H 0.68493 0.24309 0.63903 0.0
C1974 C 0.68732 0.25714 0.55708 0.0
C1975 C 0.69001 0.26576 0.517 0.0
C1976 C 0.68777 0.26397 0.60127 0.0
C1977 C 0.69414 0.28111 0.52306 0.0
C1978 C 0.69334 0.28817 0.56634 0.0
C1979 C 0.68682 0.28701 0.64881 0.0
C1980 C 0.68343 0.27833 0.68842 0.0
C1981 C 0.68957 0.27981 0.60572 0.0
C1982 C 0.68425 0.26237 0.68397 0.0
C1983 C 0.68574 0.25533 0.64108 0.0
H1984 H 1.01619 0.4113 0.76869 0.0
H1985 H 0.03389 0.45673 0.77144 0.0
H1986 H 0.02671 0.45904 0.85281 0.0
H1987 H 1.01471 0.448 0.92323 0.0
H1988 H 0.99302 0.40447 0.91355 0.0
H1989 H 1.00138 0.40195 0.83383 0.0
C1990 C 0.01832 0.42183 0.7868 0.0
C1991 C 0.02545 0.4339 0.7635 0.0
C1992 C 1.01287 0.42359 0.83193 0.0
C1993 C 0.02848 0.44724 0.78826 0.0
C1994 C 0.02415 0.44864 0.83463 0.0
C1995 C 1.01134 0.43826 0.90297 0.0
C1996 C 1.00296 0.42654 0.92402 0.0
C1997 C 1.01606 0.43698 0.85664 0.0
C1998 C 0.99905 0.41378 0.89778 0.0
C1999 C 1.0041 0.41222 0.8525 0.0
H2000 H 0.84957 0.74023 0.13858 0.0
H2001 H 0.85549 0.78381 0.20429 0.0
H2002 H 0.85252 0.79643 0.13184 0.0
H2003 H 0.85254 0.79513 0.04743 0.0
H2004 H 0.84189 0.75274 0.98179 0.0
H2005 H 0.84191 0.7399 0.05626 0.0
C2006 C 0.8494 0.75247 0.13804 0.0
C2007 C 0.8529 0.76073 0.17824 0.0
C2008 C 0.84713 0.76006 0.09553 0.0
C2009 C 0.85297 0.77677 0.17486 0.0
C2010 C 0.85135 0.7842 0.13292 0.0
C2011 C 0.84955 0.78324 0.04949 0.0
C2012 C 0.84763 0.77488 1.00885 0.0
C2013 C 0.84903 0.77596 0.09268 0.0
C2014 C 0.8437 0.75943 1.01253 0.0
C2015 C 0.84381 0.75202 0.05517 0.0
H2016 H 0.5188 0.45014 0.10923 0.0
H2017 H 0.5416 0.40711 0.12099 0.0
H2018 H 0.53308 0.40475 0.20056 0.0
H2019 H 0.5178 0.41402 0.26495 0.0
H2020 H 0.49906 0.45912 0.26035 0.0
H2021 H 0.50637 0.46123 0.17905 0.0
C2022 C 0.52238 0.44055 0.12992 0.0
C2023 C 0.53111 0.42893 0.10946 0.0
C2024 C 0.51756 0.43937 0.17619 0.0
C2025 C 0.5353 0.41637 0.13627 0.0
C2026 C 0.53014 0.41488 0.18147 0.0
C2027 C 0.51547 0.42445 0.24646 0.0
C2028 C 0.50799 0.43647 0.26923 0.0
C2029 C 0.52101 0.42614 0.20142 0.0
C2030 C 0.50471 0.44966 0.24395 0.0
C2031 C 0.50913 0.45095 0.19763 0.0
H2032 H 0.83895 0.27521 0.36158 0.0
H2033 H 0.88399 0.29325 0.37117 0.0
H2034 H 0.88643 0.28325 0.44922 0.0
H2035 H 0.87642 0.26798 0.51278 0.0
H2036 H 0.82946 0.25529 0.51163 0.0
H2037 H 0.82734 0.26352 0.43147 0.0
C2038 C 0.84904 0.27747 0.38156 0.0
C2039 C 0.86122 0.28516 0.36081 0.0
C2040 C 0.85027 0.27188 0.427 0.0
C2041 C 0.87435 0.28773 0.38677 0.0
C2042 C 0.87587 0.2817 0.431 0.0
C2043 C 0.86571 0.26693 0.49494 0.0
C2044 C 0.85325 0.26057 0.51825 0.0
C2045 C 0.86405 0.27341 0.45097 0.0
C2046 C 0.83943 0.25952 0.49448 0.0
C2047 C 0.8381 0.26464 0.44889 0.0
H2048 H 1.01501 0.62983 0.75944 0.0
H2049 H 0.02594 0.58234 0.77026 0.0
H2050 H 0.01858 0.57864 0.68967 0.0
H2051 H 1.00918 0.58921 0.61471 0.0
H2052 H 0.99418 0.63567 0.61024 0.0
H2053 H 1.00194 0.63923 0.6902 0.0
C2054 C 1.01531 0.61851 0.74499 0.0
C2055 C 0.02083 0.60633 0.77196 0.0
C2056 C 1.01 0.61624 0.69957 0.0
C2057 C 0.02178 0.59197 0.7509 0.0
C2058 C 0.01742 0.58982 0.70474 0.0
C2059 C 1.00717 0.59995 0.63177 0.0
C2060 C 1.00098 0.61215 0.60631 0.0
C2061 C 1.01142 0.60186 0.67861 0.0
C2062 C 0.99868 0.62605 0.62899 0.0
C2063 C 1.00333 0.62815 0.67464 0.0
H2064 H 0.69486 0.77277 1.01259 0.0
H2065 H 0.64743 0.78254 0.02782 0.0
H2066 H 0.64244 0.77229 0.95136 0.0
H2067 H 0.65129 0.7599 0.88104 0.0
H2068 H 0.69898 0.75471 0.85747 0.0
H2069 H 0.70418 0.76272 0.93699 0.0
C2070 C 0.68355 0.77314 0.99838 0.0
C2071 C 0.67153 0.77864 0.02567 0.0
C2072 C 0.68077 0.76738 0.9537 0.0
C2073 C 0.65687 0.77869 1.00718 0.0
C2074 C 0.65398 0.77254 0.96383 0.0
C2075 C 0.66284 0.76045 0.89344 0.0
C2076 C 0.67474 0.75686 0.86324 0.0
C2077 C 0.66578 0.76661 0.93715 0.0
C2078 C 0.68961 0.7574 0.87999 0.0
C2079 C 0.69258 0.76228 0.92517 0.0
H2080 H 0.51618 0.45398 0.75716 0.0
H2081 H 0.52773 0.40683 0.77431 0.0
H2082 H 0.5177 0.40111 0.69818 0.0
H2083 H 0.50509 0.40918 0.62733 0.0
H2084 H 0.49829 0.45672 0.60137 0.0
H2085 H 0.50592 0.4626 0.68082 0.0
C2086 C 0.51693 0.44257 0.74349 0.0
C2087 C 0.52292 0.43087 0.77129 0.0
C2088 C 0.51138 0.43937 0.69875 0.0
C2089 C 0.5235 0.41607 0.75339 0.0
C2090 C 0.5175 0.41274 0.71014 0.0
C2091 C 0.50528 0.42086 0.63907 0.0
C2092 C 0.50133 0.43251 0.60814 0.0
C2093 C 0.51121 0.42423 0.68282 0.0
C2094 C 0.5013 0.44753 0.62431 0.0
C2095 C 0.50594 0.45089 0.66951 0.0
H2096 H 0.38187 0.75676 0.38488 0.0
H2097 H 0.33471 0.75472 0.34971 0.0
H2098 H 0.32801 0.76395 0.42677 0.0
H2099 H 0.33599 0.77404 0.50377 0.0
H2100 H 0.38337 0.78164 0.52842 0.0
H2101 H 0.38962 0.77019 0.45469 0.0
C2102 C 0.37011 0.75856 0.39382 0.0
C2103 C 0.35886 0.75542 0.36107 0.0
C2104 C 0.36644 0.76556 0.43579 0.0
C2105 C 0.34364 0.75713 0.37405 0.0
C2106 C 0.33982 0.7627 0.41784 0.0
C2107 C 0.34761 0.77371 0.49207 0.0
C2108 C 0.3592 0.77883 0.52151 0.0
C2109 C 0.35115 0.7674 0.44862 0.0
C2110 C 0.37424 0.77805 0.50622 0.0
C2111 C 0.37785 0.77121 0.4644 0.0
H2112 H 1.00873 0.60188 0.09723 0.0
H2113 H 0.05598 0.59953 0.13271 0.0
H2114 H 0.04938 0.59381 0.21189 0.0
H2115 H 0.03028 0.59309 0.2743 0.0
H2116 H 0.9849 0.60739 0.24153 0.0
H2117 H 0.99031 0.60475 0.16009 0.0
C2118 C 0.01768 0.60002 0.12207 0.0
C2119 C 0.03295 0.60038 0.10714 0.0
C2120 C 1.01389 0.59902 0.16926 0.0
C2121 C 0.04418 0.59817 0.14089 0.0
C2122 C 0.04037 0.59539 0.18713 0.0
C2123 C 0.02147 0.59549 0.24941 0.0
C2124 C 1.00689 0.59974 0.26535 0.0
C2125 C 0.02526 0.59619 0.20204 0.0
C2126 C 0.99589 0.60311 0.23175 0.0
C2127 C 0.99913 0.60203 0.18459 0.0
H2128 H 0.15152 0.28332 0.88574 0.0
H2129 H 0.19808 0.28726 0.8456 0.0
H2130 H 0.2061 0.27852 0.92198 0.0
H2131 H 0.19954 0.26831 0.99997 0.0
H2132 H 0.15278 0.2595 0.03078 0.0
H2133 H 0.14518 0.27022 0.95733 0.0
C2134 C 0.16344 0.28192 0.89326 0.0
C2135 C 0.17414 0.28538 0.85922 0.0
C2136 C 0.16791 0.27541 0.93528 0.0
C2137 C 0.18955 0.28445 0.87078 0.0
C2138 C 0.19414 0.27922 0.91428 0.0
C2139 C 0.18776 0.26827 0.98977 0.0
C2140 C 0.17676 0.26292 0.02082 0.0
C2141 C 0.18341 0.27422 0.94649 0.0
C2142 C 0.1615 0.26325 1.00743 0.0
C2143 C 0.1571 0.26966 0.96567 0.0
H2144 H 0.5384 0.61012 0.79237 0.0
H2145 H 0.49782 0.5933 0.72857 0.0
H2146 H 0.48495 0.59367 0.80284 0.0
H2147 H 0.48438 0.60305 0.88376 0.0
H2148 H 0.52716 0.61199 0.95013 0.0
H2149 H 0.53991 0.61039 0.87707 0.0
C2150 C 0.52708 0.60557 0.79462 0.0
C2151 C 0.51915 0.60182 0.75416 0.0
C2152 C 0.51991 0.60492 0.83802 0.0
C2153 C 0.50425 0.59637 0.75886 0.0
C2154 C 0.49678 0.59673 0.80141 0.0
C2155 C 0.49655 0.60381 0.88341 0.0
C2156 C 0.50444 0.60815 0.92362 0.0
C2157 C 0.50434 0.60158 0.84118 0.0
C2158 C 0.52037 0.60932 0.92029 0.0
C2159 C 0.52786 0.60829 0.87819 0.0
H2160 H 0.15484 0.76543 0.51653 0.0
H2161 H 0.20211 0.77681 0.51323 0.0
H2162 H 0.20481 0.76835 0.59327 0.0
H2163 H 0.19344 0.75737 0.6645 0.0
H2164 H 0.1475 0.74148 0.66012 0.0
H2165 H 0.14485 0.7508 0.58137 0.0
C2166 C 0.16584 0.76582 0.53293 0.0
C2167 C 0.17828 0.77168 0.50849 0.0
C2168 C 0.16764 0.75957 0.57708 0.0
C2169 C 0.1923 0.77249 0.53109 0.0
C2170 C 0.1939 0.76741 0.57664 0.0
C2171 C 0.18305 0.75547 0.6456 0.0
C2172 C 0.17065 0.74871 0.66805 0.0
C2173 C 0.18168 0.76071 0.59984 0.0
C2174 C 0.15722 0.74644 0.64334 0.0
C2175 C 0.15563 0.75205 0.59866 0.0
H2176 H 1.01687 0.45224 0.27759 0.0
H2177 H 1.00623 0.40503 0.25806 0.0
H2178 H 1.01629 0.39906 0.33392 0.0
H2179 H 0.02876 0.40693 0.40509 0.0
H2180 H 0.03456 0.45441 0.43364 0.0
H2181 H 0.02685 0.46062 0.35448 0.0
C2182 C 1.01632 0.44076 0.2907 0.0
C2183 C 1.0106 0.42911 0.26229 0.0
C2184 C 0.02188 0.43741 0.3353 0.0
C2185 C 1.01026 0.41422 0.27945 0.0
C2186 C 1.01629 0.41075 0.32254 0.0
C2187 C 0.02832 0.41866 0.39398 0.0
C2188 C 0.03203 0.43019 0.42548 0.0
C2189 C 0.02234 0.42219 0.35044 0.0
C2190 C 0.03175 0.4453 0.41018 0.0
C2191 C 0.02707 0.44885 0.36516 0.0
H2192 H 0.37957 0.27929 0.15286 0.0
H2193 H 0.3325 0.28682 0.18174 0.0
H2194 H 0.32595 0.27858 0.10333 0.0
H2195 H 0.33392 0.26793 0.02689 0.0
H2196 H 0.38054 0.2553 1.00776 0.0
H2197 H 0.38688 0.26556 0.0832 0.0
C2198 C 0.36783 0.27898 0.14221 0.0
C2199 C 0.35652 0.28335 0.17356 0.0
C2200 C 0.36406 0.27262 0.09936 0.0
C2201 C 0.34144 0.28343 0.15848 0.0
C2202 C 0.33768 0.27845 0.11392 0.0
C2203 C 0.34532 0.2669 0.04013 0.0
C2204 C 0.35673 0.26064 1.0119 0.0
C2205 C 0.34888 0.27259 0.0844 0.0
C2206 C 0.37153 0.25972 0.02913 0.0
C2207 C 0.37522 0.26589 0.07189 0.0
H2208 H 0.03885 0.04418 1.00938 0.0
H2209 H 0.99317 0.04828 0.05976 0.0
H2210 H 0.98825 0.02207 0.03713 0.0
H2211 H 0.99701 0.99761 1.00512 0.0
H2212 H 0.04279 0.99343 0.9558 0.0
H2213 H 0.04766 0.01971 0.97804 0.0
C2214 C 0.02782 0.0394 1.01613 0.0
C2215 C 1.01645 0.04852 0.03687 0.0
C2216 C 0.02512 0.0241 1.00372 0.0
C2217 C 1.00216 0.04189 0.04363 0.0
C2218 C 0.99937 0.02674 0.031 0.0
C2219 C 1.00806 1.0024 0.99869 0.0
C2220 C 0.01948 0.99328 0.97825 0.0
C2221 C 1.01077 1.0177 1.01121 0.0
C2222 C 0.03377 0.99988 0.97167 0.0
C2223 C 0.03654 1.01504 0.98409 0.0
H2224 H 0.2372 0.77561 0.22984 0.0
H2225 H 0.24468 0.75217 0.35789 0.0
H2226 H 0.27172 0.75099 0.34213 0.0
H2227 H 0.29356 0.75676 0.29263 0.0
H2228 H 0.28633 0.78063 0.16509 0.0
H2229 H 0.2592 0.78126 0.17977 0.0
C2230 C 0.24471 0.77008 0.25407 0.0
C2231 C 0.23871 0.76404 0.29522 0.0
C2232 C 0.26046 0.76953 0.24495 0.0
C2233 C 0.24881 0.7571 0.32625 0.0
C2234 C 0.26436 0.75638 0.3172 0.0
C2235 C 0.28613 0.76226 0.26812 0.0
C2236 C 0.29227 0.76862 0.22761 0.0
C2237 C 0.27038 0.76267 0.27689 0.0
C2238 C 0.28216 0.77542 0.19624 0.0
C2239 C 0.26654 0.77587 0.20474 0.0
H2240 H 0.53368 0.03686 0.46627 0.0
H2241 H 0.4946 0.05202 0.54244 0.0
H2242 H 0.49181 0.02676 0.57504 0.0
H2243 H 0.49999 1.00013 0.58134 0.0
H2244 H 0.53767 0.98437 0.49992 0.0
H2245 H 0.54141 1.00999 0.47084 0.0
C2246 C 0.52437 0.03472 0.48944 0.0
C2247 C 0.51436 0.04671 0.50133 0.0
C2248 C 0.52258 0.01991 0.50764 0.0
C2249 C 0.50269 0.0434 0.53266 0.0
C2250 C 0.50099 0.0288 0.55126 0.0
C2251 C 0.50894 1.00209 0.55677 0.0
C2252 C 0.51847 0.98991 0.54314 0.0
C2253 C 0.51081 1.01692 0.53887 0.0
C2254 C 0.53023 0.99324 0.51211 0.0
C2255 C 0.5323 1.00799 0.4949 0.0
H2256 H 0.2957 0.28244 0.74489 0.0
H2257 H 0.28683 0.25746 0.86923 0.0
H2258 H 0.25997 0.25694 0.85127 0.0
H2259 H 0.2391 0.262 0.79837 0.0
H2260 H 0.24722 0.28848 0.67605 0.0
H2261 H 0.27399 0.28953 0.69455 0.0
C2262 C 0.28784 0.27715 0.76846 0.0
C2263 C 0.29344 0.2699 0.80829 0.0
C2264 C 0.27218 0.2768 0.75779 0.0
C2265 C 0.28298 0.263 0.83812 0.0
C2266 C 0.26755 0.26265 0.82781 0.0
C2267 C 0.24652 0.26826 0.77584 0.0
C2268 C 0.24073 0.27496 0.73527 0.0
C2269 C 0.26202 0.26926 0.78734 0.0
C2270 C 0.25104 0.28275 0.70679 0.0
C2271 C 0.26649 0.28356 0.71766 0.0
H2272 H 0.03164 1.00451 0.43934 0.0
H2273 H 1.0012 0.98778 0.54334 0.0
H2274 H 0.99841 1.01351 0.57364 0.0
H2275 H 1.00537 0.04081 0.57257 0.0
H2276 H 0.03835 0.05618 0.47366 0.0
H2277 H 0.03954 0.03096 0.44071 0.0
C2278 C 0.02457 1.00625 0.46921 0.0
C2279 C 1.01681 0.99382 0.48901 0.0
C2280 C 0.0235 0.021 0.48783 0.0
C2281 C 1.00725 0.99688 0.52662 0.0
C2282 C 1.00577 1.01166 0.54445 0.0
C2283 C 1.01301 0.03869 0.54423 0.0
C2284 C 0.02162 0.05081 0.52572 0.0
C2285 C 1.01402 0.02382 0.52575 0.0
C2286 C 0.03122 0.04752 0.48839 0.0
C2287 C 0.03203 0.03293 0.4695 0.0
H2288 H 0.24132 0.77935 0.73142 0.0
H2289 H 0.24905 0.75901 0.86431 0.0
H2290 H 0.2761 0.75806 0.84886 0.0
H2291 H 0.29809 0.76316 0.79743 0.0
H2292 H 0.28977 0.78276 0.66413 0.0
H2293 H 0.2627 0.78327 0.67939 0.0
C2294 C 0.24877 0.7745 0.75705 0.0
C2295 C 0.24276 0.76935 0.79931 0.0
C2296 C 0.26445 0.77366 0.74759 0.0
C2297 C 0.25305 0.76343 0.83187 0.0
C2298 C 0.26864 0.76269 0.82283 0.0
C2299 C 0.29032 0.76729 0.77147 0.0
C2300 C 0.2961 0.77288 0.72951 0.0
C2301 C 0.27454 0.76775 0.78075 0.0
C2302 C 0.28576 0.7784 0.69668 0.0
C2303 C 0.27021 0.77876 0.70547 0.0
H2304 H 0.51742 1.00401 0.09808 0.0
H2305 H 0.52449 0.98519 0.9624 0.0
H2306 H 0.5252 1.01041 0.93032 0.0
H2307 H 0.52332 0.0381 0.93889 0.0
H2308 H 0.51842 0.05751 0.07384 0.0
H2309 H 0.51806 0.03201 0.10763 0.0
C2310 C 0.51929 1.00525 0.06156 0.0
C2311 C 0.52037 0.99217 0.03314 0.0
C2312 C 0.52033 0.02011 0.04282 0.0
C2313 C 0.52284 0.99459 0.98572 0.0
C2314 C 0.52353 1.0092 0.96701 0.0
C2315 C 0.52238 0.03678 0.97581 0.0
C2316 C 0.52093 0.04982 1.00366 0.0
C2317 C 0.52217 0.02205 0.99502 0.0
C2318 C 0.51977 0.04778 0.05148 0.0
C2319 C 0.51939 0.03313 0.07079 0.0
H2320 H 0.24494 0.24886 0.26882 0.0
H2321 H 0.24061 0.29379 0.21145 0.0
H2322 H 0.26699 0.29892 0.23025 0.0
H2323 H 0.29158 0.29062 0.26128 0.0
H2324 H 0.29593 0.24581 0.31961 0.0
H2325 H 0.2696 0.24058 0.30025 0.0
C2326 C 0.24972 0.25977 0.25994 0.0
C2327 C 0.24049 0.27089 0.23845 0.0
C2328 C 0.2651 0.26264 0.27053 0.0
C2329 C 0.24711 0.28502 0.22842 0.0
C2330 C 0.26234 0.28793 0.23886 0.0
C2331 C 0.28683 0.27973 0.27043 0.0
C2332 C 0.29605 0.26869 0.29236 0.0
C2333 C 0.27147 0.27684 0.25984 0.0
C2334 C 0.28945 0.25455 0.30238 0.0
C2335 C 0.27425 0.25157 0.29163 0.0
H2336 H 0.7801 0.26819 0.68906 0.0
H2337 H 0.79946 0.26371 0.82512 0.0
H2338 H 0.77448 0.26254 0.85782 0.0
H2339 H 0.74681 0.26328 0.8496 0.0
H2340 H 0.72706 0.26522 0.7145 0.0
H2341 H 0.75236 0.26615 0.68014 0.0
C2342 C 0.77908 0.26677 0.72582 0.0
C2343 C 0.79221 0.26658 0.754 0.0
C2344 C 0.76439 0.26537 0.74499 0.0
C2345 C 0.79001 0.26469 0.80177 0.0
C2346 C 0.77554 0.26373 0.82091 0.0
C2347 C 0.74805 0.26364 0.81255 0.0
C2348 C 0.73498 0.2641 0.78473 0.0
C2349 C 0.76265 0.26415 0.79303 0.0
C2350 C 0.73685 0.26461 0.73677 0.0
C2351 C 0.75136 0.26532 0.71715 0.0
H2352 H 0.73846 0.7803 0.2976 0.0
H2353 H 0.74514 0.7522 0.1778 0.0
H2354 H 0.77231 0.75202 0.19189 0.0
H2355 H 0.79451 0.75939 0.23915 0.0
H2356 H 0.78751 0.78664 0.36036 0.0
H2357 H 0.76039 0.78734 0.34509 0.0
C2358 C 0.74575 0.77392 0.27474 0.0
C2359 C 0.73942 0.76627 0.23648 0.0
C2360 C 0.7615 0.77369 0.28334 0.0
C2361 C 0.74941 0.75841 0.20712 0.0
C2362 C 0.76506 0.75822 0.21532 0.0
C2363 C 0.78707 0.76561 0.26202 0.0
C2364 C 0.79323 0.77295 0.30101 0.0
C2365 C 0.77129 0.76583 0.25329 0.0
C2366 C 0.78325 0.78076 0.3304 0.0
C2367 C 0.76766 0.78119 0.3216 0.0
H2368 H 0.74589 0.25109 0.26728 0.0
H2369 H 0.7417 0.29656 0.32051 0.0
H2370 H 0.76796 0.30164 0.29904 0.0
H2371 H 0.7926 0.29278 0.26851 0.0
H2372 H 0.79641 0.24721 0.21516 0.0
H2373 H 0.77013 0.24248 0.23523 0.0
C2374 C 0.75067 0.26212 0.27463 0.0
C2375 C 0.74162 0.27336 0.29618 0.0
C2376 C 0.76591 0.2649 0.2628 0.0
C2377 C 0.74815 0.28768 0.30387 0.0
C2378 C 0.76329 0.29054 0.29191 0.0
C2379 C 0.78773 0.28183 0.26064 0.0
C2380 C 0.79684 0.27037 0.24019 0.0
C2381 C 0.77235 0.27919 0.27178 0.0
C2382 C 0.79006 0.25623 0.23147 0.0
C2383 C 0.77487 0.25353 0.24259 0.0
H2384 H 0.74767 0.75432 0.70417 0.0
H2385 H 0.73179 0.7871 0.80319 0.0
H2386 H 0.75748 0.7897 0.8333 0.0
H2387 H 0.78469 0.78228 0.83269 0.0
H2388 H 0.7998 0.74868 0.73506 0.0
H2389 H 0.77428 0.74662 0.70445 0.0
C2390 C 0.74966 0.76195 0.7327 0.0
C2391 C 0.73749 0.77042 0.75124 0.0
C2392 C 0.76448 0.76318 0.75057 0.0
C2393 C 0.74074 0.78052 0.78748 0.0
C2394 C 0.75549 0.78191 0.80516 0.0
C2395 C 0.78239 0.77438 0.80506 0.0
C2396 C 0.79441 0.76571 0.7863 0.0
C2397 C 0.76748 0.77321 0.78726 0.0
C2398 C 0.79103 0.75569 0.75001 0.0
C2399 C 0.77634 0.75446 0.73243 0.0
H2400 H 0.53464 0.54643 0.51001 0.0
H2401 H 0.4898 0.55052 0.56668 0.0
H2402 H 0.48485 0.52398 0.54728 0.0
H2403 H 0.49355 0.49919 0.51698 0.0
H2404 H 0.53848 0.49535 0.46045 0.0
H2405 H 0.5432 0.52189 0.47902 0.0
C2406 C 0.52379 0.54158 0.51867 0.0
C2407 C 0.51267 0.55073 0.54041 0.0
C2408 C 0.52108 0.52615 0.50802 0.0
C2409 C 0.49858 0.54404 0.54977 0.0
C2410 C 0.49579 0.52873 0.53899 0.0
C2411 C 0.50436 0.5041 0.50813 0.0
C2412 C 0.51563 0.49492 0.48708 0.0
C2413 C 0.50699 0.51961 0.51842 0.0
C2414 C 0.52961 0.50176 0.47716 0.0
C2415 C 0.53229 0.51709 0.48743 0.0
H2416 H 0.99857 0.50056 0.07491 0.0
H2417 H 0.0396 0.48566 1.00782 0.0
H2418 H 0.04393 0.51135 0.98097 0.0
H2419 H 0.03596 0.53793 0.9742 0.0
H2420 H 0.99302 0.55187 0.03129 0.0
H2421 H 0.98974 0.5267 0.06369 0.0
C2422 C 1.00836 0.50261 0.05364 0.0
C2423 C 0.01865 0.49062 0.04376 0.0
C2424 C 1.01052 0.51744 0.03618 0.0
C2425 C 0.03148 0.49428 0.01732 0.0
C2426 C 0.03393 0.5091 1.00126 0.0
C2427 C 0.02564 0.53559 0.99269 0.0
C2428 C 1.01475 0.54727 0.99943 0.0
C2429 C 0.02345 0.52075 1.01003 0.0
C2430 C 1.00184 0.54359 0.02548 0.0
C2431 C 0.99985 0.529 0.04393 0.0
H2432 H 0.53395 0.4929 0.03726 0.0
H2433 H 0.49535 0.49505 0.94722 0.0
H2434 H 0.49248 0.52218 0.96396 0.0
H2435 H 0.50159 0.54574 1.00232 0.0
H2436 H 0.53944 0.543 0.09518 0.0
H2437 H 0.54204 0.51588 0.07898 0.0
C2438 C 0.52485 0.49928 0.02142 0.0
C2439 C 0.51492 0.49184 0.99071 0.0
C2440 C 0.52323 0.5149 0.03144 0.0
C2441 C 0.50309 0.50034 0.97114 0.0
C2442 C 0.50153 0.51593 0.98047 0.0
C2443 C 0.51043 0.53919 0.01888 0.0
C2444 C 0.52042 0.54652 0.04966 0.0
C2445 C 0.51164 0.52341 1.01014 0.0
C2446 C 0.53163 0.53775 0.07138 0.0
C2447 C 0.53311 0.5222 0.06209 0.0
H2448 H 0.03337 0.50235 0.58028 0.0
H2449 H 1.0021 0.48334 0.48206 0.0
H2450 H 0.99865 0.50829 0.44753 0.0
H2451 H 1.00463 0.53548 0.44395 0.0
H2452 H 0.03567 0.55476 0.54217 0.0
H2453 H 0.03963 0.52966 0.57599 0.0
C2454 C 0.02587 0.50355 0.55109 0.0
C2455 C 0.01797 0.49069 0.53427 0.0
C2456 C 0.02407 0.51803 0.53067 0.0
C2457 C 1.00814 0.49284 0.49673 0.0
C2458 C 1.00628 0.50717 0.47647 0.0
C2459 C 1.01221 0.53432 0.47297 0.0
C2460 C 0.01975 0.54728 0.49039 0.0
C2461 C 1.01418 0.51985 0.49305 0.0
C2462 C 0.02981 0.54518 0.52736 0.0
C2463 C 0.03195 0.53077 0.54716 0.0
H2464 H 0.0878 0.17211 0.07439 0.0
H2465 H 0.06022 0.18274 0.19231 0.0
H2466 H 0.07749 0.203 0.21364 0.0
H2467 H 0.1008 0.21796 0.2 0.0
H2468 H 0.12803 0.20767 0.08113 0.0
H2469 H 0.11057 0.18761 0.05927 0.0
C2470 C 0.08538 0.17893 0.10448 0.0
C2471 C 0.07257 0.17547 0.13172 0.0
C2472 C 0.09542 0.19087 0.11669 0.0
C2473 C 0.07001 0.18462 0.17085 0.0
C2474 C 0.07991 0.1964 0.1831 0.0
C2475 C 0.10298 0.21134 0.16933 0.0
C2476 C 0.11588 0.21466 0.14232 0.0
C2477 C 0.09276 0.19961 0.15659 0.0
C2478 C 0.1182 0.20581 0.10249 0.0
C2479 C 0.10821 0.19415 0.08996 0.0
H2480 H 0.1195 0.84268 0.32746 0.0
H2481 H 0.10601 0.81273 0.43732 0.0
H2482 H 0.08613 0.83031 0.45906 0.0
H2483 H 0.07196 0.85444 0.44769 0.0
H2484 H 0.08425 0.88344 0.33469 0.0
H2485 H 0.10459 0.86604 0.31357 0.0
C2486 C 0.11218 0.83977 0.35586 0.0
C2487 C 0.11485 0.82618 0.38083 0.0
C2488 C 0.10024 0.84991 0.36792 0.0
C2489 C 0.10494 0.8231 0.41778 0.0
C2490 C 0.09329 0.83318 0.43023 0.0
C2491 C 0.07908 0.85699 0.41846 0.0
C2492 C 0.07633 0.87041 0.39293 0.0
C2493 C 0.09082 0.8467 0.40582 0.0
C2494 C 0.08578 0.87325 0.3549 0.0
C2495 C 0.09756 0.86327 0.34281 0.0
H2496 H 0.43833 0.81935 0.70365 0.0
H2497 H 0.41127 0.83042 0.5849 0.0
H2498 H 0.4291 0.85015 0.56352 0.0
H2499 H 0.4522 0.86509 0.57877 0.0
H2500 H 0.47966 0.8538 0.69653 0.0
H2501 H 0.46196 0.8339 0.71768 0.0
C2502 C 0.43627 0.82606 0.67311 0.0
C2503 C 0.4233 0.82302 0.64594 0.0
C2504 C 0.44672 0.83763 0.66063 0.0
C2505 C 0.42114 0.83202 0.60633 0.0
C2506 C 0.43135 0.8435 0.59408 0.0
C2507 C 0.45451 0.8582 0.60879 0.0
C2508 C 0.46746 0.86135 0.63594 0.0
C2509 C 0.44422 0.84647 0.62087 0.0
C2510 C 0.46982 0.85215 0.67505 0.0
C2511 C 0.45966 0.84057 0.68721 0.0
H2512 H 0.46445 0.1815 0.8585 0.0
H2513 H 0.43961 0.16268 0.97254 0.0
H2514 H 0.42078 0.18261 0.96534 0.0
H2515 H 0.41059 0.2053 0.92608 0.0
H2516 H 0.43472 0.22383 0.8105 0.0
H2517 H 0.45405 0.20416 0.8185 0.0
C2518 C 0.4549 0.18161 0.88172 0.0
C2519 C 0.45388 0.17039 0.91659 0.0
C2520 C 0.44372 0.19318 0.87701 0.0
C2521 C 0.44125 0.17114 0.94613 0.0
C2522 C 0.43025 0.18257 0.94179 0.0
C2523 C 0.42014 0.2052 0.90282 0.0
C2524 C 0.42099 0.21629 0.86764 0.0
C2525 C 0.43132 0.19369 0.90744 0.0
C2526 C 0.43347 0.21554 0.83762 0.0
C2527 C 0.44465 0.20424 0.84231 0.0
H2528 H 0.93005 0.82422 0.84747 0.0
H2529 H 0.89898 0.84404 0.94453 0.0
H2530 H 0.91765 0.86318 0.96501 0.0
H2531 H 0.94267 0.87529 0.95379 0.0
H2532 H 0.97364 0.85582 0.85586 0.0
H2533 H 0.95545 0.8359 0.83801 0.0
C2534 C 0.92738 0.83262 0.87344 0.0
C2535 C 0.91286 0.83255 0.89392 0.0
C2536 C 0.93827 0.84389 0.88503 0.0
C2537 C 0.90982 0.84376 0.92734 0.0
C2538 C 0.92058 0.85477 0.93936 0.0
C2539 C 0.94555 0.8666 0.92895 0.0
C2540 C 0.95969 0.86731 0.90625 0.0
C2541 C 0.93483 0.8551 0.91819 0.0
C2542 C 0.96292 0.85588 0.87371 0.0
C2543 C 0.95246 0.84436 0.86346 0.0
H2544 H 0.96455 0.18432 0.65431 0.0
H2545 H 0.93632 0.15687 0.56653 0.0
H2546 H 0.91592 0.1751 0.57387 0.0
H2547 H 0.90529 0.19849 0.60635 0.0
H2548 H 0.93299 0.22688 0.69233 0.0
H2549 H 0.95415 0.20907 0.68344 0.0
C2550 C 0.95401 0.18235 0.6364 0.0
C2551 C 0.95215 0.16874 0.61073 0.0
C2552 C 0.94204 0.1932 0.64025 0.0
C2553 C 0.93822 0.16674 0.58784 0.0
C2554 C 0.92645 0.17732 0.59164 0.0
C2555 C 0.91593 0.20086 0.62333 0.0
C2556 C 0.91728 0.21414 0.65045 0.0
C2557 C 0.9281 0.19049 0.61818 0.0
C2558 C 0.93143 0.21694 0.67106 0.0
C2559 C 0.94358 0.20662 0.66621 0.0
H2560 H 0.60655 0.21153 0.3382 0.0
H2561 H 0.63486 0.19961 0.45342 0.0
H2562 H 0.618 0.17878 0.47267 0.0
H2563 H 0.59533 0.1632 0.4565 0.0
H2564 H 0.56666 0.1755 0.34236 0.0
H2565 H 0.58346 0.19635 0.32328 0.0
C2566 C 0.60911 0.20438 0.36746 0.0
C2567 C 0.62211 0.20748 0.39431 0.0
C2568 C 0.59923 0.1922 0.37869 0.0
C2569 C 0.62493 0.19793 0.43231 0.0
C2570 C 0.61528 0.18583 0.44332 0.0
C2571 C 0.5926 0.17048 0.42769 0.0
C2572 C 0.5796 0.16733 0.4008 0.0
C2573 C 0.60235 0.18279 0.41685 0.0
C2574 C 0.57661 0.17711 0.3634 0.0
C2575 C 0.58624 0.18924 0.35247 0.0
H2576 H 0.58742 0.87677 0.1789 0.0
H2577 H 0.56017 0.85039 0.08603 0.0
H2578 H 0.57753 0.82882 0.09499 0.0
H2579 H 0.60174 0.81769 0.12618 0.0
H2580 H 0.62799 0.84466 0.22063 0.0
H2581 H 0.61002 0.86536 0.21373 0.0
C2582 C 0.58519 0.86633 0.16047 0.0
C2583 C 0.57238 0.86548 0.13137 0.0
C2584 C 0.59527 0.85389 0.16583 0.0
C2585 C 0.56977 0.85157 0.10883 0.0
C2586 C 0.57982 0.83917 0.11377 0.0
C2587 C 0.60345 0.82801 0.14569 0.0
C2588 C 0.61664 0.82947 0.17325 0.0
C2589 C 0.59279 0.84019 0.14181 0.0
C2590 C 0.61836 0.84309 0.19819 0.0
C2591 C 0.60796 0.85505 0.19446 0.0
H2592 H 0.58562 0.67385 0.57722 0.0
H2593 H 0.55771 0.6847 0.69423 0.0
H2594 H 0.57478 0.70517 0.71516 0.0
H2595 H 0.59796 0.72032 0.70128 0.0
H2596 H 0.62563 0.70965 0.58363 0.0
H2597 H 0.60836 0.68941 0.56214 0.0
C2598 C 0.58309 0.68075 0.60704 0.0
C2599 C 0.57021 0.6773 0.63409 0.0
C2600 C 0.59302 0.69281 0.61903 0.0
C2601 C 0.56753 0.68656 0.6729 0.0
C2602 C 0.57732 0.69847 0.68491 0.0
C2603 C 0.60029 0.71359 0.67096 0.0
C2604 C 0.61326 0.7169 0.64417 0.0
C2605 C 0.5902 0.7017 0.65851 0.0
C2606 C 0.61575 0.70786 0.60479 0.0
C2607 C 0.60586 0.69608 0.59249 0.0
H2608 H 0.56786 0.35187 0.9518 0.0
H2609 H 0.58011 0.38084 0.83857 0.0
H2610 H 0.60089 0.36386 0.81892 0.0
H2611 H 0.6163 0.34095 0.83424 0.0
H2612 H 0.6034 0.31128 0.94537 0.0
H2613 H 0.58277 0.3283 0.96526 0.0
C2614 C 0.57506 0.35452 0.92284 0.0
C2615 C 0.5721 0.36778 0.89672 0.0
C2616 C 0.58717 0.34452 0.91125 0.0
C2617 C 0.58171 0.37073 0.85912 0.0
C2618 C 0.59377 0.361 0.84789 0.0
C2619 C 0.60893 0.33799 0.86252 0.0
C2620 C 0.61191 0.32464 0.88832 0.0
C2621 C 0.59667 0.34783 0.87363 0.0
C2622 C 0.60201 0.32147 0.92515 0.0
C2623 C 0.58996 0.33123 0.93652 0.0
H2624 H 0.9215 0.33653 0.2053 0.0
H2625 H 0.93287 0.30852 0.08866 0.0
H2626 H 0.95291 0.32607 0.06764 0.0
H2627 H 0.9676 0.34968 0.08161 0.0
H2628 H 0.95642 0.37726 0.1993 0.0
H2629 H 0.93653 0.3596 0.22045 0.0
C2630 C 0.92843 0.33406 0.17556 0.0
C2631 C 0.92527 0.321 0.1487 0.0
C2632 C 0.94024 0.34424 0.16359 0.0
C2633 C 0.93452 0.31845 0.10991 0.0
C2634 C 0.94619 0.32852 0.09785 0.0
C2635 C 0.96082 0.3519 0.11186 0.0
C2636 C 0.96388 0.36495 0.13882 0.0
C2637 C 0.94915 0.34155 0.12419 0.0
C2638 C 0.9548 0.36732 0.17806 0.0
C2639 C 0.94323 0.3572 0.19017 0.0
H2640 H 0.94518 0.66938 0.45319 0.0
H2641 H 0.97027 0.67845 0.32915 0.0
H2642 H 0.95211 0.69795 0.30779 0.0
H2643 H 0.92876 0.71279 0.32329 0.0
H2644 H 0.90437 0.70462 0.44893 0.0
H2645 H 0.92251 0.68495 0.47033 0.0
C2646 C 0.94687 0.67569 0.42171 0.0
C2647 C 0.95924 0.67196 0.3928 0.0
C2648 C 0.93636 0.68728 0.40958 0.0
C2649 C 0.96084 0.68048 0.35197 0.0
C2650 C 0.95043 0.69185 0.33967 0.0
C2651 C 0.92735 0.7067 0.35531 0.0
C2652 C 0.91504 0.71042 0.38431 0.0
C2653 C 0.93804 0.69533 0.36792 0.0
C2654 C 0.9137 0.70233 0.42591 0.0
C2655 C 0.9241 0.69094 0.43821 0.0
H2656 H 0.43532 0.32367 0.32814 0.0
H2657 H 0.40818 0.33478 0.44656 0.0
H2658 H 0.4258 0.35475 0.46753 0.0
H2659 H 0.44877 0.36985 0.45224 0.0
H2660 H 0.4763 0.35864 0.33472 0.0
H2661 H 0.45878 0.33853 0.31379 0.0
C2662 C 0.43318 0.33045 0.3585 0.0
C2663 C 0.42025 0.3273 0.38573 0.0
C2664 C 0.44352 0.34219 0.37074 0.0
C2665 C 0.41801 0.33642 0.42508 0.0
C2666 C 0.42812 0.34805 0.43711 0.0
C2667 C 0.45114 0.36295 0.4223 0.0
C2668 C 0.46408 0.36619 0.39522 0.0
C2669 C 0.44095 0.3511 0.41033 0.0
C2670 C 0.46649 0.35695 0.35619 0.0
C2671 C 0.45642 0.34523 0.34416 0.0
H2672 H 0.41134 0.69611 0.19693 0.0
H2673 H 0.43058 0.72826 0.10226 0.0
H2674 H 0.45053 0.71015 0.08283 0.0
H2675 H 0.46257 0.6846 0.09099 0.0
H2676 H 0.44262 0.65235 0.18396 0.0
H2677 H 0.42336 0.67087 0.20556 0.0
C2678 C 0.41996 0.69927 0.17234 0.0
C2679 C 0.41921 0.71375 0.15126 0.0
C2680 C 0.43146 0.68862 0.16072 0.0
C2681 C 0.43054 0.71729 0.11893 0.0
C2682 C 0.4421 0.70689 0.10784 0.0
C2683 C 0.4541 0.68165 0.11626 0.0
C2684 C 0.45421 0.66688 0.13555 0.0
C2685 C 0.44269 0.69243 0.12824 0.0
C2686 C 0.4429 0.66344 0.16798 0.0
C2687 C 0.43181 0.6741 0.18054 0.0
H2688 H 0.07073 0.68134 0.86776 0.0
H2689 H 0.09708 0.65453 0.96263 0.0
H2690 H 0.11817 0.67195 0.9546 0.0
H2691 H 0.12963 0.69484 0.92086 0.0
H2692 H 0.10372 0.72186 0.82552 0.0
H2693 H 0.08233 0.70461 0.83395 0.0
C2694 C 0.08109 0.67924 0.88662 0.0
C2695 C 0.08199 0.66647 0.91624 0.0
C2696 C 0.09344 0.68949 0.88192 0.0
C2697 C 0.09567 0.66424 0.94031 0.0
C2698 C 0.1079 0.67423 0.9355 0.0
C2699 C 0.11938 0.69699 0.90154 0.0
C2700 C 0.11858 0.70986 0.87241 0.0
C2701 C 0.10697 0.68691 0.90646 0.0
C2702 C 0.10488 0.71232 0.84866 0.0
C2703 C 0.09256 0.70231 0.85322 0.0
H2704 H 0.08498 0.36741 0.57747 0.0
H2705 H 0.05857 0.35617 0.69722 0.0
H2706 H 0.07661 0.33635 0.71727 0.0
H2707 H 0.1002 0.32187 0.70169 0.0
H2708 H 0.12616 0.33275 0.58082 0.0
H2709 H 0.10799 0.35244 0.56048 0.0
C2710 C 0.08296 0.36056 0.60769 0.0
C2711 C 0.07021 0.3637 0.63574 0.0
C2712 C 0.09342 0.34885 0.61907 0.0
C2713 C 0.06825 0.35454 0.67508 0.0
C2714 C 0.07859 0.343 0.68659 0.0
C2715 C 0.10196 0.32854 0.67091 0.0
C2716 C 0.11473 0.3255 0.6429 0.0
C2717 C 0.09132 0.34006 0.65908 0.0
C2718 C 0.11647 0.33439 0.60295 0.0
C2719 C 0.10606 0.34584 0.59131 0.0
loop_
_geom_bond_atom_site_label_1
_geom_bond_atom_site_label_2
_geom_bond_distance
_geom_bond_site_symmetry_2
_ccdc_geom_bond_type
C0 C1 1.443 . S
C0 N4 1.376 1_556 S
C0 C38 1.389 1_655 S
C1 C0 1.443 . S
C1 C2 1.340 . S
C1 H41 0.951 . S
C2 C1 1.340 . S
C2 C3 1.439 1_556 S
C2 H42 0.950 . S
C3 C2 1.439 1_554 S
C3 N4 1.374 . S
C3 C37 1.395 . S
N4 C0 1.376 1_554 S
N4 C3 1.374 . S
N4 Co5 2.008 1_655 S
Co5 N4 2.008 1_455 S
Co5 N6 1.995 1_455 S
Co5 N11 2.008 . S
Co5 N16 1.995 . S
Co5 N21 2.282 . S
Co5 N27 2.283 . S
N6 Co5 1.995 1_655 S
N6 C7 1.376 . S
N6 C10 1.383 . S
C7 N6 1.376 . S
C7 C8 1.446 . S
C7 C37 1.391 . S
C8 C7 1.446 . S
C8 C9 1.339 . S
C8 H43 0.949 . S
C9 C8 1.339 . S
C9 C10 1.439 . S
C9 H44 0.950 . S
C10 N6 1.383 . S
C10 C9 1.439 . S
C10 C39 1.392 1_655 S
N11 Co5 2.008 . S
N11 C12 1.376 . S
N11 C15 1.374 . S
C12 N11 1.376 . S
C12 C13 1.443 . S
C12 C39 1.389 . S
C13 C12 1.443 . S
C13 C14 1.340 . S
C13 H45 0.951 . S
C14 C13 1.340 . S
C14 C15 1.439 . S
C14 H46 0.950 . S
C15 N11 1.374 . S
C15 C14 1.439 . S
C15 C40 1.395 . S
N16 Co5 1.995 . S
N16 C17 1.376 . S
N16 C20 1.383 1_554 S
C17 N16 1.376 . S
C17 C18 1.446 1_554 S
C17 C40 1.391 . S
C18 C17 1.446 1_556 S
C18 C19 1.339 . S
C18 H47 0.949 . S
C19 C18 1.339 . S
C19 C20 1.439 . S
C19 H48 0.950 . S
C20 N16 1.383 1_556 S
C20 C19 1.439 . S
C20 C38 1.392 . S
N21 Co5 2.282 . S
N21 C24 1.332 . S
N21 C26 1.332 . S
C22 C23 1.386 . S
C22 C25 1.388 . S
C23 C22 1.386 . S
C23 C24 1.382 . S
C23 H49 0.950 . S
C24 N21 1.332 . S
C24 C23 1.382 . S
C24 H35 0.952 . S
C25 C22 1.388 . S
C25 C26 1.382 . S
C25 H50 0.950 . S
C26 N21 1.332 . S
C26 C25 1.382 . S
C26 H36 1.012 . S
N27 Co5 2.283 . S
N27 C31 1.330 1_455 S
N27 C32 1.333 . S
C28 C29 1.388 1_455 S
C28 C32 1.382 . S
C28 H51 0.950 . S
C29 C28 1.388 1_655 S
C29 C30 1.386 . S
C30 C29 1.386 . S
C30 C31 1.382 . S
C30 H52 0.950 . S
C31 N27 1.330 1_655 S
C31 C30 1.382 . S
C31 H33 0.952 . S
C32 N27 1.333 . S
C32 C28 1.382 . S
C32 H34 0.948 . S
H33 C31 0.952 . S
H34 C32 0.948 . S
H35 C24 0.952 . S
H36 C26 1.012 . S
C37 C3 1.395 . S
C37 C7 1.391 . S
C38 C0 1.389 1_455 S
C38 C20 1.392 . S
C39 C10 1.392 1_455 S
C39 C12 1.389 . S
C40 C15 1.395 . S
C40 C17 1.391 . S
H41 C1 0.951 . S
H42 C2 0.950 . S
H43 C8 0.949 . S
H44 C9 0.950 . S
H45 C13 0.951 . S
H46 C14 0.950 . S
H47 C18 0.949 . S
H48 C19 0.950 . S
H49 C23 0.950 . S
H50 C25 0.950 . S
H51 C28 0.950 . S
H52 C30 0.950 . S
C53 C54 1.443 . S
C53 N57 1.376 . S
C53 C91 1.389 . S
C54 C53 1.443 . S
C54 C55 1.340 . S
C54 H94 0.951 . S
C55 C54 1.340 . S
C55 C56 1.439 . S
C55 H95 0.950 . S
C56 C55 1.439 . S
C56 N57 1.374 . S
C56 C90 1.395 . S
N57 C53 1.376 . S
N57 C56 1.374 . S
N57 Co58 2.008 . S
Co58 N57 2.008 . S
Co58 N59 1.995 . S
Co58 N64 2.008 . S
Co58 N69 1.995 . S
Co58 N74 2.282 . S
Co58 N80 2.282 . S
N59 Co58 1.995 . S
N59 C60 1.376 . S
N59 C63 1.383 . S
C60 N59 1.376 . S
C60 C61 1.446 . S
C60 C90 1.391 . S
C61 C60 1.446 . S
C61 C62 1.339 . S
C61 H96 0.949 . S
C62 C61 1.339 . S
C62 C63 1.439 . S
C62 H97 0.950 . S
C63 N59 1.383 . S
C63 C62 1.439 . S
C63 C92 1.392 . S
N64 Co58 2.008 . S
N64 C65 1.376 . S
N64 C68 1.374 . S
C65 N64 1.376 . S
C65 C66 1.443 . S
C65 C92 1.389 . S
C66 C65 1.443 . S
C66 C67 1.340 . S
C66 H98 0.951 . S
C67 C66 1.340 . S
C67 C68 1.439 . S
C67 H99 0.950 . S
C68 N64 1.374 . S
C68 C67 1.439 . S
C68 C93 1.395 . S
N69 Co58 1.995 . S
N69 C70 1.376 . S
N69 C73 1.383 . S
C70 N69 1.376 . S
C70 C71 1.446 . S
C70 C93 1.391 . S
C71 C70 1.446 . S
C71 C72 1.339 . S
C71 H100 0.949 . S
C72 C71 1.339 . S
C72 C73 1.439 . S
C72 H101 0.950 . S
C73 N69 1.383 . S
C73 C72 1.439 . S
C73 C91 1.392 . S
N74 Co58 2.282 . S
N74 C77 1.332 . S
N74 C79 1.332 . S
C75 C76 1.386 . S
C75 C78 1.388 . S
C76 C75 1.386 . S
C76 C77 1.382 . S
C76 H102 0.950 . S
C77 N74 1.332 . S
C77 C76 1.382 . S
C77 H88 0.952 . S
C78 C75 1.388 . S
C78 C79 1.382 . S
C78 H103 0.950 . S
C79 N74 1.332 . S
C79 C78 1.382 . S
C79 H89 0.948 . S
N80 Co58 2.282 . S
N80 C84 1.332 . S
N80 C85 1.332 . S
C81 C82 1.388 . S
C81 C85 1.382 . S
C81 H104 0.950 . S
C82 C81 1.388 . S
C82 C83 1.386 . S
C83 C82 1.386 . S
C83 C84 1.382 . S
C83 H105 0.950 . S
C84 N80 1.332 . S
C84 C83 1.382 . S
C84 H86 0.952 . S
C85 N80 1.332 . S
C85 C81 1.382 . S
C85 H87 0.948 . S
H86 C84 0.952 . S
H87 C85 0.948 . S
H88 C77 0.952 . S
H89 C79 0.948 . S
C90 C56 1.395 . S
C90 C60 1.391 . S
C91 C53 1.389 . S
C91 C73 1.392 . S
C92 C63 1.392 . S
C92 C65 1.389 . S
C93 C68 1.395 . S
C93 C70 1.391 . S
H94 C54 0.951 . S
H95 C55 0.950 . S
H96 C61 0.949 . S
H97 C62 0.950 . S
H98 C66 0.951 . S
H99 C67 0.950 . S
H100 C71 0.949 . S
H101 C72 0.950 . S
H102 C76 0.950 . S
H103 C78 0.950 . S
H104 C81 0.950 . S
H105 C83 0.950 . S
C106 C107 1.443 . S
C106 N110 1.376 . S
C106 C144 1.389 . S
C107 C106 1.443 . S
C107 C108 1.340 . S
C107 H147 0.951 . S
C108 C107 1.340 . S
C108 C109 1.439 . S
C108 H148 0.950 . S
C109 C108 1.439 . S
C109 N110 1.374 . S
C109 C143 1.395 . S
N110 C106 1.376 . S
N110 C109 1.374 . S
N110 Co111 2.008 . S
Co111 N110 2.008 . S
Co111 N112 1.995 . S
Co111 N117 2.008 . S
Co111 N122 1.995 . S
Co111 N127 2.282 . S
Co111 N133 2.282 . S
N112 Co111 1.995 . S
N112 C113 1.376 . S
N112 C116 1.383 . S
C113 N112 1.376 . S
C113 C114 1.446 . S
C113 C143 1.391 . S
C114 C113 1.446 . S
C114 C115 1.339 . S
C114 H149 0.949 . S
C115 C114 1.339 . S
C115 C116 1.439 . S
C115 H150 0.950 . S
C116 N112 1.383 . S
C116 C115 1.439 . S
C116 C145 1.392 . S
N117 Co111 2.008 . S
N117 C118 1.376 . S
N117 C121 1.374 . S
C118 N117 1.376 . S
C118 C119 1.443 . S
C118 C145 1.389 . S
C119 C118 1.443 . S
C119 C120 1.340 . S
C119 H151 0.951 . S
C120 C119 1.340 . S
C120 C121 1.439 . S
C120 H152 0.950 . S
C121 N117 1.374 . S
C121 C120 1.439 . S
C121 C146 1.395 . S
N122 Co111 1.995 . S
N122 C123 1.376 . S
N122 C126 1.383 . S
C123 N122 1.376 . S
C123 C124 1.446 . S
C123 C146 1.391 . S
C124 C123 1.446 . S
C124 C125 1.339 . S
C124 H153 0.949 . S
C125 C124 1.339 . S
C125 C126 1.439 . S
C125 H154 0.950 . S
C126 N122 1.383 . S
C126 C125 1.439 . S
C126 C144 1.392 . S
N127 Co111 2.282 . S
N127 C130 1.332 . S
N127 C132 1.332 . S
C128 C129 1.386 . S
C128 C131 1.388 . S
C129 C128 1.386 . S
C129 C130 1.382 . S
C129 H155 0.950 . S
C130 N127 1.332 . S
C130 C129 1.382 . S
C130 H141 0.952 . S
C131 C128 1.388 . S
C131 C132 1.382 . S
C131 H156 0.950 . S
C132 N127 1.332 . S
C132 C131 1.382 . S
C132 H142 0.948 . S
N133 Co111 2.282 . S
N133 C137 1.332 . S
N133 C138 1.332 . S
C134 C135 1.388 . S
C134 C138 1.382 . S
C134 H157 0.950 . S
C135 C134 1.388 . S
C135 C136 1.386 . S
C136 C135 1.386 . S
C136 C137 1.382 . S
C136 H158 0.950 . S
C137 N133 1.332 . S
C137 C136 1.382 . S
C137 H139 0.952 . S
C138 N133 1.332 . S
C138 C134 1.382 . S
C138 H140 0.948 . S
H139 C137 0.952 . S
H140 C138 0.948 . S
H141 C130 0.952 . S
H142 C132 0.948 . S
C143 C109 1.395 . S
C143 C113 1.391 . S
C144 C106 1.389 . S
C144 C126 1.392 . S
C145 C116 1.392 . S
C145 C118 1.389 . S
C146 C121 1.395 . S
C146 C123 1.391 . S
H147 C107 0.951 . S
H148 C108 0.950 . S
H149 C114 0.949 . S
H150 C115 0.950 . S
H151 C119 0.951 . S
H152 C120 0.950 . S
H153 C124 0.949 . S
H154 C125 0.950 . S
H155 C129 0.950 . S
H156 C131 0.950 . S
H157 C134 0.950 . S
H158 C136 0.950 . S
C159 C160 1.443 . S
C159 N163 1.376 . S
C159 C197 1.389 . S
C160 C159 1.443 . S
C160 C161 1.340 . S
C160 H200 0.951 . S
C161 C160 1.340 . S
C161 C162 1.439 . S
C161 H201 0.950 . S
C162 C161 1.439 . S
C162 N163 1.374 . S
C162 C196 1.395 . S
N163 C159 1.376 . S
N163 C162 1.374 . S
N163 Co164 2.008 . S
Co164 N163 2.008 . S
Co164 N165 1.995 . S
Co164 N170 2.008 . S
Co164 N175 1.995 . S
Co164 N180 2.282 . S
Co164 N186 2.282 . S
N165 Co164 1.995 . S
N165 C166 1.376 . S
N165 C169 1.383 . S
C166 N165 1.376 . S
C166 C167 1.446 . S
C166 C196 1.391 . S
C167 C166 1.446 . S
C167 C168 1.339 . S
C167 H202 0.949 . S
C168 C167 1.339 . S
C168 C169 1.439 . S
C168 H203 0.950 . S
C169 N165 1.383 . S
C169 C168 1.439 . S
C169 C198 1.392 . S
N170 Co164 2.008 . S
N170 C171 1.376 . S
N170 C174 1.374 . S
C171 N170 1.376 . S
C171 C172 1.443 . S
C171 C198 1.389 . S
C172 C171 1.443 . S
C172 C173 1.340 . S
C172 H204 0.951 . S
C173 C172 1.340 . S
C173 C174 1.439 . S
C173 H205 0.950 . S
C174 N170 1.374 . S
C174 C173 1.439 . S
C174 C199 1.395 . S
N175 Co164 1.995 . S
N175 C176 1.376 . S
N175 C179 1.383 . S
C176 N175 1.376 . S
C176 C177 1.446 . S
C176 C199 1.391 . S
C177 C176 1.446 . S
C177 C178 1.339 . S
C177 H206 0.949 . S
C178 C177 1.339 . S
C178 C179 1.439 . S
C178 H207 0.950 . S
C179 N175 1.383 . S
C179 C178 1.439 . S
C179 C197 1.392 . S
N180 Co164 2.282 . S
N180 C183 1.332 . S
N180 C185 1.332 . S
C181 C182 1.386 . S
C181 C184 1.388 . S
C182 C181 1.386 . S
C182 C183 1.382 . S
C182 H208 0.950 . S
C183 N180 1.332 . S
C183 C182 1.382 . S
C183 H194 0.952 . S
C184 C181 1.388 . S
C184 C185 1.382 . S
C184 H209 0.950 . S
C185 N180 1.332 . S
C185 C184 1.382 . S
C185 H195 0.948 . S
N186 Co164 2.282 . S
N186 C190 1.332 . S
N186 C191 1.332 . S
C187 C188 1.388 . S
C187 C191 1.382 . S
C187 H210 0.950 . S
C188 C187 1.388 . S
C188 C189 1.386 . S
C189 C188 1.386 . S
C189 C190 1.382 . S
C189 H211 0.950 . S
C190 N186 1.332 . S
C190 C189 1.382 . S
C190 H192 0.952 . S
C191 N186 1.332 . S
C191 C187 1.382 . S
C191 H193 0.948 . S
H192 C190 0.952 . S
H193 C191 0.948 . S
H194 C183 0.952 . S
H195 C185 0.948 . S
C196 C162 1.395 . S
C196 C166 1.391 . S
C197 C159 1.389 . S
C197 C179 1.392 . S
C198 C169 1.392 . S
C198 C171 1.389 . S
C199 C174 1.395 . S
C199 C176 1.391 . S
H200 C160 0.951 . S
H201 C161 0.950 . S
H202 C167 0.949 . S
H203 C168 0.950 . S
H204 C172 0.951 . S
H205 C173 0.950 . S
H206 C177 0.949 . S
H207 C178 0.950 . S
H208 C182 0.950 . S
H209 C184 0.950 . S
H210 C187 0.950 . S
H211 C189 0.950 . S
C212 C213 1.443 . S
C212 N216 1.376 . S
C212 C250 1.389 1_655 S
C213 C212 1.443 . S
C213 C214 1.340 . S
C213 H253 0.951 . S
C214 C213 1.340 . S
C214 C215 1.439 . S
C214 H254 0.950 . S
C215 C214 1.439 . S
C215 N216 1.374 . S
C215 C249 1.395 . S
N216 C212 1.376 . S
N216 C215 1.374 . S
N216 Co217 2.008 1_655 S
Co217 N216 2.008 1_455 S
Co217 N218 1.995 1_455 S
Co217 N223 2.008 . S
Co217 N228 1.995 . S
Co217 N233 2.282 . S
Co217 N239 2.283 . S
N218 Co217 1.995 1_655 S
N218 C219 1.376 . S
N218 C222 1.383 . S
C219 N218 1.376 . S
C219 C220 1.446 . S
C219 C249 1.391 . S
C220 C219 1.446 . S
C220 C221 1.339 . S
C220 H255 0.949 . S
C221 C220 1.339 . S
C221 C222 1.439 . S
C221 H256 0.950 . S
C222 N218 1.383 . S
C222 C221 1.439 . S
C222 C251 1.392 1_655 S
N223 Co217 2.008 . S
N223 C224 1.376 . S
N223 C227 1.374 . S
C224 N223 1.376 . S
C224 C225 1.443 . S
C224 C251 1.389 . S
C225 C224 1.443 . S
C225 C226 1.340 . S
C225 H257 0.951 . S
C226 C225 1.340 . S
C226 C227 1.439 . S
C226 H258 0.950 . S
C227 N223 1.374 . S
C227 C226 1.439 . S
C227 C252 1.395 . S
N228 Co217 1.995 . S
N228 C229 1.376 . S
N228 C232 1.383 . S
C229 N228 1.376 . S
C229 C230 1.446 . S
C229 C252 1.391 . S
C230 C229 1.446 . S
C230 C231 1.339 . S
C230 H259 0.949 . S
C231 C230 1.339 . S
C231 C232 1.439 . S
C231 H260 0.950 . S
C232 N228 1.383 . S
C232 C231 1.439 . S
C232 C250 1.392 . S
N233 Co217 2.282 . S
N233 C236 1.332 . S
N233 C238 1.332 . S
C234 C235 1.386 . S
C234 C237 1.388 . S
C235 C234 1.386 . S
C235 C236 1.382 . S
C235 H261 0.950 . S
C236 N233 1.332 . S
C236 C235 1.382 . S
C236 H247 0.952 . S
C237 C234 1.388 . S
C237 C238 1.382 . S
C237 H262 0.950 . S
C238 N233 1.332 . S
C238 C237 1.382 . S
C238 H248 1.012 . S
N239 Co217 2.283 . S
N239 C243 1.330 1_455 S
N239 C244 1.333 . S
C240 C241 1.388 1_455 S
C240 C244 1.382 . S
C240 H263 0.950 . S
C241 C240 1.388 1_655 S
C241 C242 1.386 . S
C242 C241 1.386 . S
C242 C243 1.382 . S
C242 H264 0.950 . S
C243 N239 1.330 1_655 S
C243 C242 1.382 . S
C243 H245 0.952 . S
C244 N239 1.333 . S
C244 C240 1.382 . S
C244 H246 0.948 . S
H245 C243 0.952 . S
H246 C244 0.948 . S
H247 C236 0.952 . S
H248 C238 1.012 . S
C249 C215 1.395 . S
C249 C219 1.391 . S
C250 C212 1.389 1_455 S
C250 C232 1.392 . S
C251 C222 1.392 1_455 S
C251 C224 1.389 . S
C252 C227 1.395 . S
C252 C229 1.391 . S
H253 C213 0.951 . S
H254 C214 0.950 . S
H255 C220 0.949 . S
H256 C221 0.950 . S
H257 C225 0.951 . S
H258 C226 0.950 . S
H259 C230 0.949 . S
H260 C231 0.950 . S
H261 C235 0.950 . S
H262 C237 0.950 . S
H263 C240 0.950 . S
H264 C242 0.950 . S
C265 C266 1.443 . S
C265 N269 1.376 . S
C265 C303 1.389 . S
C266 C265 1.443 . S
C266 C267 1.340 . S
C266 H306 0.951 . S
C267 C266 1.340 . S
C267 C268 1.439 . S
C267 H307 0.950 . S
C268 C267 1.439 . S
C268 N269 1.374 . S
C268 C302 1.395 . S
N269 C265 1.376 . S
N269 C268 1.374 . S
N269 Co270 2.008 . S
Co270 N269 2.008 . S
Co270 N271 1.995 . S
Co270 N276 2.008 . S
Co270 N281 1.995 . S
Co270 N286 2.282 . S
Co270 N292 2.282 . S
N271 Co270 1.995 . S
N271 C272 1.376 . S
N271 C275 1.383 . S
C272 N271 1.376 . S
C272 C273 1.446 . S
C272 C302 1.391 . S
C273 C272 1.446 . S
C273 C274 1.339 . S
C273 H308 0.949 . S
C274 C273 1.339 . S
C274 C275 1.439 . S
C274 H309 0.950 . S
C275 N271 1.383 . S
C275 C274 1.439 . S
C275 C304 1.392 . S
N276 Co270 2.008 . S
N276 C277 1.376 . S
N276 C280 1.374 . S
C277 N276 1.376 . S
C277 C278 1.443 . S
C277 C304 1.389 . S
C278 C277 1.443 . S
C278 C279 1.340 . S
C278 H310 0.951 . S
C279 C278 1.340 . S
C279 C280 1.439 . S
C279 H311 0.950 . S
C280 N276 1.374 . S
C280 C279 1.439 . S
C280 C305 1.395 . S
N281 Co270 1.995 . S
N281 C282 1.376 . S
N281 C285 1.383 . S
C282 N281 1.376 . S
C282 C283 1.446 . S
C282 C305 1.391 . S
C283 C282 1.446 . S
C283 C284 1.339 . S
C283 H312 0.949 . S
C284 C283 1.339 . S
C284 C285 1.439 . S
C284 H313 0.950 . S
C285 N281 1.383 . S
C285 C284 1.439 . S
C285 C303 1.392 . S
N286 Co270 2.282 . S
N286 C289 1.332 . S
N286 C291 1.332 . S
C287 C288 1.386 . S
C287 C290 1.388 . S
C288 C287 1.386 . S
C288 C289 1.382 . S
C288 H314 0.950 . S
C289 N286 1.332 . S
C289 C288 1.382 . S
C289 H300 0.952 . S
C290 C287 1.388 . S
C290 C291 1.382 . S
C290 H315 0.950 . S
C291 N286 1.332 . S
C291 C290 1.382 . S
C291 H301 0.948 . S
N292 Co270 2.282 . S
N292 C296 1.332 . S
N292 C297 1.332 . S
C293 C294 1.388 . S
C293 C297 1.382 . S
C293 H316 0.950 . S
C294 C293 1.388 . S
C294 C295 1.386 . S
C295 C294 1.386 . S
C295 C296 1.382 . S
C295 H317 0.950 . S
C296 N292 1.332 . S
C296 C295 1.382 . S
C296 H298 0.952 . S
C297 N292 1.332 . S
C297 C293 1.382 . S
C297 H299 0.948 . S
H298 C296 0.952 . S
H299 C297 0.948 . S
H300 C289 0.952 . S
H301 C291 0.948 . S
C302 C268 1.395 . S
C302 C272 1.391 . S
C303 C265 1.389 . S
C303 C285 1.392 . S
C304 C275 1.392 . S
C304 C277 1.389 . S
C305 C280 1.395 . S
C305 C282 1.391 . S
H306 C266 0.951 . S
H307 C267 0.950 . S
H308 C273 0.949 . S
H309 C274 0.950 . S
H310 C278 0.951 . S
H311 C279 0.950 . S
H312 C283 0.949 . S
H313 C284 0.950 . S
H314 C288 0.950 . S
H315 C290 0.950 . S
H316 C293 0.950 . S
H317 C295 0.950 . S
C318 C319 1.443 . S
C318 N322 1.376 1_554 S
C318 C356 1.389 . S
C319 C318 1.443 . S
C319 C320 1.340 . S
C319 H359 0.951 . S
C320 C319 1.340 . S
C320 C321 1.439 1_554 S
C320 H360 0.950 . S
C321 C320 1.439 1_556 S
C321 N322 1.374 . S
C321 C355 1.395 . S
N322 C318 1.376 1_556 S
N322 C321 1.374 . S
N322 Co323 2.008 . S
Co323 N322 2.008 . S
Co323 N324 1.995 . S
Co323 N329 2.008 . S
Co323 N334 1.995 . S
Co323 N339 2.282 . S
Co323 N345 2.282 . S
N324 Co323 1.995 . S
N324 C325 1.376 . S
N324 C328 1.383 . S
C325 N324 1.376 . S
C325 C326 1.446 . S
C325 C355 1.391 . S
C326 C325 1.446 . S
C326 C327 1.339 . S
C326 H361 0.949 . S
C327 C326 1.339 . S
C327 C328 1.439 . S
C327 H362 0.950 . S
C328 N324 1.383 . S
C328 C327 1.439 . S
C328 C357 1.392 . S
N329 Co323 2.008 . S
N329 C330 1.376 . S
N329 C333 1.374 . S
C330 N329 1.376 . S
C330 C331 1.443 . S
C330 C357 1.389 . S
C331 C330 1.443 . S
C331 C332 1.340 . S
C331 H363 0.951 . S
C332 C331 1.340 . S
C332 C333 1.439 . S
C332 H364 0.950 . S
C333 N329 1.374 . S
C333 C332 1.439 . S
C333 C358 1.395 . S
N334 Co323 1.995 . S
N334 C335 1.376 . S
N334 C338 1.383 1_556 S
C335 N334 1.376 . S
C335 C336 1.446 1_556 S
C335 C358 1.391 . S
C336 C335 1.446 1_554 S
C336 C337 1.339 . S
C336 H365 0.949 . S
C337 C336 1.339 . S
C337 C338 1.439 . S
C337 H366 0.950 . S
C338 N334 1.383 1_554 S
C338 C337 1.439 . S
C338 C356 1.392 . S
N339 Co323 2.282 . S
N339 C342 1.332 . S
N339 C344 1.332 . S
C340 C341 1.386 . S
C340 C343 1.388 . S
C341 C340 1.386 . S
C341 C342 1.382 . S
C341 H367 0.950 . S
C342 N339 1.332 . S
C342 C341 1.382 . S
C342 H353 0.952 . S
C343 C340 1.388 . S
C343 C344 1.382 . S
C343 H368 0.950 . S
C344 N339 1.332 . S
C344 C343 1.382 . S
C344 H354 0.948 . S
N345 Co323 2.282 . S
N345 C349 1.332 . S
N345 C350 1.332 . S
C346 C347 1.388 . S
C346 C350 1.382 . S
C346 H369 0.950 . S
C347 C346 1.388 . S
C347 C348 1.386 . S
C348 C347 1.386 . S
C348 C349 1.382 . S
C348 H370 0.950 . S
C349 N345 1.332 . S
C349 C348 1.382 . S
C349 H351 0.952 . S
C350 N345 1.332 . S
C350 C346 1.382 . S
C350 H352 0.948 . S
H351 C349 0.952 . S
H352 C350 0.948 . S
H353 C342 0.952 . S
H354 C344 0.948 . S
C355 C321 1.395 . S
C355 C325 1.391 . S
C356 C318 1.389 . S
C356 C338 1.392 . S
C357 C328 1.392 . S
C357 C330 1.389 . S
C358 C333 1.395 . S
C358 C335 1.391 . S
H359 C319 0.951 . S
H360 C320 0.950 . S
H361 C326 0.949 . S
H362 C327 0.950 . S
H363 C331 0.951 . S
H364 C332 0.950 . S
H365 C336 0.949 . S
H366 C337 0.950 . S
H367 C341 0.950 . S
H368 C343 0.950 . S
H369 C346 0.950 . S
H370 C348 0.950 . S
C371 C372 1.443 . S
C371 N375 1.376 . S
C371 C409 1.389 . S
C372 C371 1.443 . S
C372 C373 1.340 . S
C372 H412 0.951 . S
C373 C372 1.340 . S
C373 C374 1.439 . S
C373 H413 0.950 . S
C374 C373 1.439 . S
C374 N375 1.374 . S
C374 C408 1.395 . S
N375 C371 1.376 . S
N375 C374 1.374 . S
N375 Co376 2.008 . S
Co376 N375 2.008 . S
Co376 N377 1.995 . S
Co376 N382 2.008 . S
Co376 N387 1.995 . S
Co376 N392 2.282 . S
Co376 N398 2.282 . S
N377 Co376 1.995 . S
N377 C378 1.376 . S
N377 C381 1.383 . S
C378 N377 1.376 . S
C378 C379 1.446 . S
C378 C408 1.391 . S
C379 C378 1.446 . S
C379 C380 1.339 . S
C379 H414 0.949 . S
C380 C379 1.339 . S
C380 C381 1.439 . S
C380 H415 0.950 . S
C381 N377 1.383 . S
C381 C380 1.439 . S
C381 C410 1.392 . S
N382 Co376 2.008 . S
N382 C383 1.376 . S
N382 C386 1.374 . S
C383 N382 1.376 . S
C383 C384 1.443 . S
C383 C410 1.389 . S
C384 C383 1.443 . S
C384 C385 1.340 . S
C384 H416 0.951 . S
C385 C384 1.340 . S
C385 C386 1.439 . S
C385 H417 0.950 . S
C386 N382 1.374 . S
C386 C385 1.439 . S
C386 C411 1.395 . S
N387 Co376 1.995 . S
N387 C388 1.376 . S
N387 C391 1.383 . S
C388 N387 1.376 . S
C388 C389 1.446 . S
C388 C411 1.391 . S
C389 C388 1.446 . S
C389 C390 1.339 . S
C389 H418 0.949 . S
C390 C389 1.339 . S
C390 C391 1.439 . S
C390 H419 0.950 . S
C391 N387 1.383 . S
C391 C390 1.439 . S
C391 C409 1.392 . S
N392 Co376 2.282 . S
N392 C395 1.332 . S
N392 C397 1.332 . S
C393 C394 1.386 . S
C393 C396 1.388 . S
C394 C393 1.386 . S
C394 C395 1.382 . S
C394 H420 0.950 . S
C395 N392 1.332 . S
C395 C394 1.382 . S
C395 H406 0.952 . S
C396 C393 1.388 . S
C396 C397 1.382 . S
C396 H421 0.950 . S
C397 N392 1.332 . S
C397 C396 1.382 . S
C397 H407 0.948 . S
N398 Co376 2.282 . S
N398 C402 1.332 . S
N398 C403 1.332 . S
C399 C400 1.388 . S
C399 C403 1.382 . S
C399 H422 0.950 . S
C400 C399 1.388 . S
C400 C401 1.386 . S
C401 C400 1.386 . S
C401 C402 1.382 . S
C401 H423 0.950 . S
C402 N398 1.332 . S
C402 C401 1.382 . S
C402 H404 0.952 . S
C403 N398 1.332 . S
C403 C399 1.382 . S
C403 H405 0.948 . S
H404 C402 0.952 . S
H405 C403 0.948 . S
H406 C395 0.952 . S
H407 C397 0.948 . S
C408 C374 1.395 . S
C408 C378 1.391 . S
C409 C371 1.389 . S
C409 C391 1.392 . S
C410 C381 1.392 . S
C410 C383 1.389 . S
C411 C386 1.395 . S
C411 C388 1.391 . S
H412 C372 0.951 . S
H413 C373 0.950 . S
H414 C379 0.949 . S
H415 C380 0.950 . S
H416 C384 0.951 . S
H417 C385 0.950 . S
H418 C389 0.949 . S
H419 C390 0.950 . S
H420 C394 0.950 . S
H421 C396 0.950 . S
H422 C399 0.950 . S
H423 C401 0.950 . S
C424 C425 1.443 . S
C424 N428 1.376 1_554 S
C424 C462 1.389 . S
C425 C424 1.443 . S
C425 C426 1.340 . S
C425 H465 0.951 . S
C426 C425 1.340 . S
C426 C427 1.439 1_554 S
C426 H466 0.950 . S
C427 C426 1.439 1_556 S
C427 N428 1.374 . S
C427 C461 1.395 . S
N428 C424 1.376 1_556 S
N428 C427 1.374 . S
N428 Co429 2.008 . S
Co429 N428 2.008 . S
Co429 N430 1.995 . S
Co429 N435 2.008 1_655 S
Co429 N440 1.995 1_655 S
Co429 N445 2.282 . S
Co429 N451 2.282 1_655 S
N430 Co429 1.995 . S
N430 C431 1.376 . S
N430 C434 1.383 . S
C431 N430 1.376 . S
C431 C432 1.446 . S
C431 C461 1.391 . S
C432 C431 1.446 . S
C432 C433 1.339 . S
C432 H467 0.949 . S
C433 C432 1.339 . S
C433 C434 1.439 . S
C433 H468 0.950 . S
C434 N430 1.383 . S
C434 C433 1.439 . S
C434 C463 1.392 . S
N435 Co429 2.008 1_455 S
N435 C436 1.376 . S
N435 C439 1.374 . S
C436 N435 1.376 . S
C436 C437 1.443 . S
C436 C463 1.389 1_455 S
C437 C436 1.443 . S
C437 C438 1.340 . S
C437 H469 0.951 . S
C438 C437 1.340 . S
C438 C439 1.439 . S
C438 H470 0.950 . S
C439 N435 1.374 . S
C439 C438 1.439 . S
C439 C464 1.395 . S
N440 Co429 1.995 1_455 S
N440 C441 1.376 . S
N440 C444 1.383 1_556 S
C441 N440 1.376 . S
C441 C442 1.446 1_556 S
C441 C464 1.391 . S
C442 C441 1.446 1_554 S
C442 C443 1.339 . S
C442 H471 0.949 . S
C443 C442 1.339 . S
C443 C444 1.439 . S
C443 H472 0.950 . S
C444 N440 1.383 1_554 S
C444 C443 1.439 . S
C444 C462 1.392 1_455 S
N445 Co429 2.282 . S
N445 C448 1.332 . S
N445 C450 1.332 . S
C446 C447 1.386 . S
C446 C449 1.388 . S
C447 C446 1.386 . S
C447 C448 1.382 . S
C447 H473 0.950 . S
C448 N445 1.332 . S
C448 C447 1.382 . S
C448 H459 0.952 . S
C449 C446 1.388 . S
C449 C450 1.382 . S
C449 H474 0.950 . S
C450 N445 1.332 . S
C450 C449 1.382 . S
C450 H460 0.948 . S
N451 Co429 2.282 1_455 S
N451 C455 1.332 1_455 S
N451 C456 1.332 . S
C452 C453 1.388 . S
C452 C456 1.382 . S
C452 H475 0.950 . S
C453 C452 1.388 . S
C453 C454 1.336 1_455 S
C454 C453 1.336 1_655 S
C454 C455 1.401 . S
C454 H476 0.982 . S
C455 N451 1.332 1_655 S
C455 C454 1.401 . S
C455 H457 0.952 . S
C456 N451 1.332 . S
C456 C452 1.382 . S
C456 H458 0.948 . S
H457 C455 0.952 . S
H458 C456 0.948 . S
H459 C448 0.952 . S
H460 C450 0.948 . S
C461 C427 1.395 . S
C461 C431 1.391 . S
C462 C424 1.389 . S
C462 C444 1.392 1_655 S
C463 C434 1.392 . S
C463 C436 1.389 1_655 S
C464 C439 1.395 . S
C464 C441 1.391 . S
H465 C425 0.951 . S
H466 C426 0.950 . S
H467 C432 0.949 . S
H468 C433 0.950 . S
H469 C437 0.951 . S
H470 C438 0.950 . S
H471 C442 0.949 . S
H472 C443 0.950 . S
H473 C447 0.950 . S
H474 C449 0.950 . S
H475 C452 0.950 . S
H476 C454 0.982 . S
C477 C478 1.443 . S
C477 N481 1.376 . S
C477 C515 1.389 . S
C478 C477 1.443 . S
C478 C479 1.340 . S
C478 H518 0.951 . S
C479 C478 1.340 . S
C479 C480 1.439 . S
C479 H519 0.950 . S
C480 C479 1.439 . S
C480 N481 1.374 . S
C480 C514 1.395 . S
N481 C477 1.376 . S
N481 C480 1.374 . S
N481 Co482 2.008 . S
Co482 N481 2.008 . S
Co482 N483 1.995 . S
Co482 N488 2.008 . S
Co482 N493 1.995 . S
Co482 N498 2.282 . S
Co482 N504 2.282 . S
N483 Co482 1.995 . S
N483 C484 1.376 . S
N483 C487 1.383 . S
C484 N483 1.376 . S
C484 C485 1.446 . S
C484 C514 1.391 . S
C485 C484 1.446 . S
C485 C486 1.339 . S
C485 H520 0.949 . S
C486 C485 1.339 . S
C486 C487 1.439 . S
C486 H521 0.950 . S
C487 N483 1.383 . S
C487 C486 1.439 . S
C487 C516 1.392 . S
N488 Co482 2.008 . S
N488 C489 1.376 . S
N488 C492 1.374 . S
C489 N488 1.376 . S
C489 C490 1.443 . S
C489 C516 1.389 . S
C490 C489 1.443 . S
C490 C491 1.340 . S
C490 H522 0.951 . S
C491 C490 1.340 . S
C491 C492 1.439 . S
C491 H523 0.950 . S
C492 N488 1.374 . S
C492 C491 1.439 . S
C492 C517 1.395 . S
N493 Co482 1.995 . S
N493 C494 1.376 . S
N493 C497 1.383 . S
C494 N493 1.376 . S
C494 C495 1.446 . S
C494 C517 1.391 . S
C495 C494 1.446 . S
C495 C496 1.339 . S
C495 H524 0.949 . S
C496 C495 1.339 . S
C496 C497 1.439 . S
C496 H525 0.950 . S
C497 N493 1.383 . S
C497 C496 1.439 . S
C497 C515 1.392 . S
N498 Co482 2.282 . S
N498 C501 1.332 . S
N498 C503 1.332 . S
C499 C500 1.386 . S
C499 C502 1.388 . S
C500 C499 1.386 . S
C500 C501 1.382 . S
C500 H526 0.950 . S
C501 N498 1.332 . S
C501 C500 1.382 . S
C501 H512 0.952 . S
C502 C499 1.388 . S
C502 C503 1.382 . S
C502 H527 0.950 . S
C503 N498 1.332 . S
C503 C502 1.382 . S
C503 H513 0.948 . S
N504 Co482 2.282 . S
N504 C508 1.332 . S
N504 C509 1.332 . S
C505 C506 1.388 . S
C505 C509 1.382 . S
C505 H528 0.950 . S
C506 C505 1.388 . S
C506 C507 1.386 . S
C507 C506 1.386 . S
C507 C508 1.382 . S
C507 H529 0.950 . S
C508 N504 1.332 . S
C508 C507 1.382 . S
C508 H510 0.952 . S
C509 N504 1.332 . S
C509 C505 1.382 . S
C509 H511 0.948 . S
H510 C508 0.952 . S
H511 C509 0.948 . S
H512 C501 0.952 . S
H513 C503 0.948 . S
C514 C480 1.395 . S
C514 C484 1.391 . S
C515 C477 1.389 . S
C515 C497 1.392 . S
C516 C487 1.392 . S
C516 C489 1.389 . S
C517 C492 1.395 . S
C517 C494 1.391 . S
H518 C478 0.951 . S
H519 C479 0.950 . S
H520 C485 0.949 . S
H521 C486 0.950 . S
H522 C490 0.951 . S
H523 C491 0.950 . S
H524 C495 0.949 . S
H525 C496 0.950 . S
H526 C500 0.950 . S
H527 C502 0.950 . S
H528 C505 0.950 . S
H529 C507 0.950 . S
C530 C531 1.443 . S
C530 N534 1.376 . S
C530 C568 1.389 . S
C531 C530 1.443 . S
C531 C532 1.340 . S
C531 H571 0.951 . S
C532 C531 1.340 . S
C532 C533 1.439 . S
C532 H572 0.950 . S
C533 C532 1.439 . S
C533 N534 1.374 . S
C533 C567 1.395 . S
N534 C530 1.376 . S
N534 C533 1.374 . S
N534 Co535 2.008 . S
Co535 N534 2.008 . S
Co535 N536 1.995 . S
Co535 N541 2.008 . S
Co535 N546 1.995 . S
Co535 N551 2.282 . S
Co535 N557 2.282 . S
N536 Co535 1.995 . S
N536 C537 1.376 . S
N536 C540 1.383 . S
C537 N536 1.376 . S
C537 C538 1.446 . S
C537 C567 1.391 . S
C538 C537 1.446 . S
C538 C539 1.339 . S
C538 H573 0.949 . S
C539 C538 1.339 . S
C539 C540 1.439 . S
C539 H574 0.950 . S
C540 N536 1.383 . S
C540 C539 1.439 . S
C540 C569 1.392 . S
N541 Co535 2.008 . S
N541 C542 1.376 . S
N541 C545 1.374 . S
C542 N541 1.376 . S
C542 C543 1.443 . S
C542 C569 1.389 . S
C543 C542 1.443 . S
C543 C544 1.340 . S
C543 H575 0.951 . S
C544 C543 1.340 . S
C544 C545 1.439 . S
C544 H576 0.950 . S
C545 N541 1.374 . S
C545 C544 1.439 . S
C545 C570 1.395 . S
N546 Co535 1.995 . S
N546 C547 1.376 . S
N546 C550 1.383 . S
C547 N546 1.376 . S
C547 C548 1.446 . S
C547 C570 1.391 . S
C548 C547 1.446 . S
C548 C549 1.339 . S
C548 H577 0.949 . S
C549 C548 1.339 . S
C549 C550 1.439 . S
C549 H578 0.950 . S
C550 N546 1.383 . S
C550 C549 1.439 . S
C550 C568 1.392 . S
N551 Co535 2.282 . S
N551 C554 1.332 . S
N551 C556 1.332 . S
C552 C553 1.386 . S
C552 C555 1.388 . S
C553 C552 1.386 . S
C553 C554 1.382 . S
C553 H579 0.950 . S
C554 N551 1.332 . S
C554 C553 1.382 . S
C554 H565 0.952 . S
C555 C552 1.388 . S
C555 C556 1.382 . S
C555 H580 0.950 . S
C556 N551 1.332 . S
C556 C555 1.382 . S
C556 H566 0.948 . S
N557 Co535 2.282 . S
N557 C561 1.332 . S
N557 C562 1.332 . S
C558 C559 1.388 . S
C558 C562 1.382 . S
C558 H581 0.950 . S
C559 C558 1.388 . S
C559 C560 1.386 . S
C560 C559 1.386 . S
C560 C561 1.382 . S
C560 H582 0.950 . S
C561 N557 1.332 . S
C561 C560 1.382 . S
C561 H563 0.952 . S
C562 N557 1.332 . S
C562 C558 1.382 . S
C562 H564 0.948 . S
H563 C561 0.952 . S
H564 C562 0.948 . S
H565 C554 0.952 . S
H566 C556 0.948 . S
C567 C533 1.395 . S
C567 C537 1.391 . S
C568 C530 1.389 . S
C568 C550 1.392 . S
C569 C540 1.392 . S
C569 C542 1.389 . S
C570 C545 1.395 . S
C570 C547 1.391 . S
H571 C531 0.951 . S
H572 C532 0.950 . S
H573 C538 0.949 . S
H574 C539 0.950 . S
H575 C543 0.951 . S
H576 C544 0.950 . S
H577 C548 0.949 . S
H578 C549 0.950 . S
H579 C553 0.950 . S
H580 C555 0.950 . S
H581 C558 0.950 . S
H582 C560 0.950 . S
C583 C584 1.443 . S
C583 N587 1.376 . S
C583 C621 1.389 . S
C584 C583 1.443 . S
C584 C585 1.340 . S
C584 H624 0.951 . S
C585 C584 1.340 . S
C585 C586 1.439 . S
C585 H625 0.950 . S
C586 C585 1.439 . S
C586 N587 1.374 . S
C586 C620 1.395 . S
N587 C583 1.376 . S
N587 C586 1.374 . S
N587 Co588 2.008 . S
Co588 N587 2.008 . S
Co588 N589 1.995 . S
Co588 N594 2.008 . S
Co588 N599 1.995 . S
Co588 N604 2.282 . S
Co588 N610 2.282 . S
N589 Co588 1.995 . S
N589 C590 1.376 . S
N589 C593 1.383 . S
C590 N589 1.376 . S
C590 C591 1.446 . S
C590 C620 1.391 . S
C591 C590 1.446 . S
C591 C592 1.339 . S
C591 H626 0.949 . S
C592 C591 1.339 . S
C592 C593 1.439 . S
C592 H627 0.950 . S
C593 N589 1.383 . S
C593 C592 1.439 . S
C593 C622 1.392 . S
N594 Co588 2.008 . S
N594 C595 1.376 . S
N594 C598 1.374 . S
C595 N594 1.376 . S
C595 C596 1.443 . S
C595 C622 1.389 . S
C596 C595 1.443 . S
C596 C597 1.340 . S
C596 H628 0.951 . S
C597 C596 1.340 . S
C597 C598 1.439 . S
C597 H629 0.950 . S
C598 N594 1.374 . S
C598 C597 1.439 . S
C598 C623 1.395 . S
N599 Co588 1.995 . S
N599 C600 1.376 . S
N599 C603 1.383 . S
C600 N599 1.376 . S
C600 C601 1.446 . S
C600 C623 1.391 . S
C601 C600 1.446 . S
C601 C602 1.339 . S
C601 H630 0.949 . S
C602 C601 1.339 . S
C602 C603 1.439 . S
C602 H631 0.950 . S
C603 N599 1.383 . S
C603 C602 1.439 . S
C603 C621 1.392 . S
N604 Co588 2.282 . S
N604 C607 1.332 . S
N604 C609 1.332 . S
C605 C606 1.386 . S
C605 C608 1.388 . S
C606 C605 1.386 . S
C606 C607 1.382 . S
C606 H632 0.950 . S
C607 N604 1.332 . S
C607 C606 1.382 . S
C607 H618 0.952 . S
C608 C605 1.388 . S
C608 C609 1.382 . S
C608 H633 0.950 . S
C609 N604 1.332 . S
C609 C608 1.382 . S
C609 H619 0.948 . S
N610 Co588 2.282 . S
N610 C614 1.332 . S
N610 C615 1.332 . S
C611 C612 1.388 . S
C611 C615 1.382 . S
C611 H634 0.950 . S
C612 C611 1.388 . S
C612 C613 1.386 . S
C613 C612 1.386 . S
C613 C614 1.382 . S
C613 H635 0.950 . S
C614 N610 1.332 . S
C614 C613 1.382 . S
C614 H616 0.952 . S
C615 N610 1.332 . S
C615 C611 1.382 . S
C615 H617 0.948 . S
H616 C614 0.952 . S
H617 C615 0.948 . S
H618 C607 0.952 . S
H619 C609 0.948 . S
C620 C586 1.395 . S
C620 C590 1.391 . S
C621 C583 1.389 . S
C621 C603 1.392 . S
C622 C593 1.392 . S
C622 C595 1.389 . S
C623 C598 1.395 . S
C623 C600 1.391 . S
H624 C584 0.951 . S
H625 C585 0.950 . S
H626 C591 0.949 . S
H627 C592 0.950 . S
H628 C596 0.951 . S
H629 C597 0.950 . S
H630 C601 0.949 . S
H631 C602 0.950 . S
H632 C606 0.950 . S
H633 C608 0.950 . S
H634 C611 0.950 . S
H635 C613 0.950 . S
C636 C637 1.443 . S
C636 N640 1.376 . S
C636 C674 1.389 . S
C637 C636 1.443 . S
C637 C638 1.340 . S
C637 H677 0.951 . S
C638 C637 1.340 . S
C638 C639 1.439 . S
C638 H678 0.950 . S
C639 C638 1.439 . S
C639 N640 1.374 . S
C639 C673 1.395 . S
N640 C636 1.376 . S
N640 C639 1.374 . S
N640 Co641 2.008 . S
Co641 N640 2.008 . S
Co641 N642 1.995 . S
Co641 N647 2.008 1_655 S
Co641 N652 1.995 1_655 S
Co641 N657 2.282 . S
Co641 N663 2.282 1_655 S
N642 Co641 1.995 . S
N642 C643 1.376 . S
N642 C646 1.383 . S
C643 N642 1.376 . S
C643 C644 1.446 . S
C643 C673 1.391 . S
C644 C643 1.446 . S
C644 C645 1.339 . S
C644 H679 0.949 . S
C645 C644 1.339 . S
C645 C646 1.439 . S
C645 H680 0.950 . S
C646 N642 1.383 . S
C646 C645 1.439 . S
C646 C675 1.392 . S
N647 Co641 2.008 1_455 S
N647 C648 1.376 . S
N647 C651 1.374 . S
C648 N647 1.376 . S
C648 C649 1.443 . S
C648 C675 1.389 1_455 S
C649 C648 1.443 . S
C649 C650 1.340 . S
C649 H681 0.951 . S
C650 C649 1.340 . S
C650 C651 1.439 . S
C650 H682 0.950 . S
C651 N647 1.374 . S
C651 C650 1.439 . S
C651 C676 1.395 . S
N652 Co641 1.995 1_455 S
N652 C653 1.376 . S
N652 C656 1.383 . S
C653 N652 1.376 . S
C653 C654 1.446 . S
C653 C676 1.391 . S
C654 C653 1.446 . S
C654 C655 1.339 . S
C654 H683 0.949 . S
C655 C654 1.339 . S
C655 C656 1.439 . S
C655 H684 0.950 . S
C656 N652 1.383 . S
C656 C655 1.439 . S
C656 C674 1.392 1_455 S
N657 Co641 2.282 . S
N657 C660 1.332 . S
N657 C662 1.332 . S
C658 C659 1.386 . S
C658 C661 1.388 . S
C659 C658 1.386 . S
C659 C660 1.382 . S
C659 H685 0.950 . S
C660 N657 1.332 . S
C660 C659 1.382 . S
C660 H671 0.952 . S
C661 C658 1.388 . S
C661 C662 1.382 . S
C661 H686 0.950 . S
C662 N657 1.332 . S
C662 C661 1.382 . S
C662 H672 0.948 . S
N663 Co641 2.282 1_455 S
N663 C667 1.332 1_455 S
N663 C668 1.332 . S
C664 C665 1.388 . S
C664 C668 1.382 . S
C664 H687 0.950 . S
C665 C664 1.388 . S
C665 C666 1.335 1_455 S
C666 C665 1.335 1_655 S
C666 C667 1.401 . S
C666 H688 0.982 . S
C667 N663 1.332 1_655 S
C667 C666 1.401 . S
C667 H669 0.952 . S
C668 N663 1.332 . S
C668 C664 1.382 . S
C668 H670 0.948 . S
H669 C667 0.952 . S
H670 C668 0.948 . S
H671 C660 0.952 . S
H672 C662 0.948 . S
C673 C639 1.395 . S
C673 C643 1.391 . S
C674 C636 1.389 . S
C674 C656 1.392 1_655 S
C675 C646 1.392 . S
C675 C648 1.389 1_655 S
C676 C651 1.395 . S
C676 C653 1.391 . S
H677 C637 0.951 . S
H678 C638 0.950 . S
H679 C644 0.949 . S
H680 C645 0.950 . S
H681 C649 0.951 . S
H682 C650 0.950 . S
H683 C654 0.949 . S
H684 C655 0.950 . S
H685 C659 0.950 . S
H686 C661 0.950 . S
H687 C664 0.950 . S
H688 C666 0.982 . S
C689 C690 1.443 . S
C689 N693 1.376 . S
C689 C727 1.389 . S
C690 C689 1.443 . S
C690 C691 1.340 . S
C690 H730 0.951 . S
C691 C690 1.340 . S
C691 C692 1.439 . S
C691 H731 0.950 . S
C692 C691 1.439 . S
C692 N693 1.374 . S
C692 C726 1.395 . S
N693 C689 1.376 . S
N693 C692 1.374 . S
N693 Co694 2.008 . S
Co694 N693 2.008 . S
Co694 N695 1.995 . S
Co694 N700 2.008 . S
Co694 N705 1.995 . S
Co694 N710 2.282 . S
Co694 N716 2.282 . S
N695 Co694 1.995 . S
N695 C696 1.376 . S
N695 C699 1.383 . S
C696 N695 1.376 . S
C696 C697 1.446 . S
C696 C726 1.391 . S
C697 C696 1.446 . S
C697 C698 1.339 . S
C697 H732 0.949 . S
C698 C697 1.339 . S
C698 C699 1.439 . S
C698 H733 0.950 . S
C699 N695 1.383 . S
C699 C698 1.439 . S
C699 C728 1.392 . S
N700 Co694 2.008 . S
N700 C701 1.376 . S
N700 C704 1.374 . S
C701 N700 1.376 . S
C701 C702 1.443 . S
C701 C728 1.389 . S
C702 C701 1.443 . S
C702 C703 1.340 . S
C702 H734 0.951 . S
C703 C702 1.340 . S
C703 C704 1.439 . S
C703 H735 0.950 . S
C704 N700 1.374 . S
C704 C703 1.439 . S
C704 C729 1.395 . S
N705 Co694 1.995 . S
N705 C706 1.376 . S
N705 C709 1.383 . S
C706 N705 1.376 . S
C706 C707 1.446 . S
C706 C729 1.391 . S
C707 C706 1.446 . S
C707 C708 1.339 . S
C707 H736 0.949 . S
C708 C707 1.339 . S
C708 C709 1.439 . S
C708 H737 0.950 . S
C709 N705 1.383 . S
C709 C708 1.439 . S
C709 C727 1.392 . S
N710 Co694 2.282 . S
N710 C713 1.332 . S
N710 C715 1.332 . S
C711 C712 1.386 . S
C711 C714 1.388 . S
C712 C711 1.386 . S
C712 C713 1.382 . S
C712 H738 0.950 . S
C713 N710 1.332 . S
C713 C712 1.382 . S
C713 H724 0.952 . S
C714 C711 1.388 . S
C714 C715 1.382 . S
C714 H739 0.950 . S
C715 N710 1.332 . S
C715 C714 1.382 . S
C715 H725 0.948 . S
N716 Co694 2.282 . S
N716 C720 1.332 . S
N716 C721 1.332 . S
C717 C718 1.388 . S
C717 C721 1.382 . S
C717 H740 0.950 . S
C718 C717 1.388 . S
C718 C719 1.386 . S
C719 C718 1.386 . S
C719 C720 1.382 . S
C719 H741 0.950 . S
C720 N716 1.332 . S
C720 C719 1.382 . S
C720 H722 0.952 . S
C721 N716 1.332 . S
C721 C717 1.382 . S
C721 H723 0.948 . S
H722 C720 0.952 . S
H723 C721 0.948 . S
H724 C713 0.952 . S
H725 C715 0.948 . S
C726 C692 1.395 . S
C726 C696 1.391 . S
C727 C689 1.389 . S
C727 C709 1.392 . S
C728 C699 1.392 . S
C728 C701 1.389 . S
C729 C704 1.395 . S
C729 C706 1.391 . S
H730 C690 0.951 . S
H731 C691 0.950 . S
H732 C697 0.949 . S
H733 C698 0.950 . S
H734 C702 0.951 . S
H735 C703 0.950 . S
H736 C707 0.949 . S
H737 C708 0.950 . S
H738 C712 0.950 . S
H739 C714 0.950 . S
H740 C717 0.950 . S
H741 C719 0.950 . S
C742 C743 1.443 . S
C742 N746 1.376 1_556 S
C742 C780 1.389 . S
C743 C742 1.443 . S
C743 C744 1.340 . S
C743 H783 0.951 . S
C744 C743 1.340 . S
C744 C745 1.439 1_556 S
C744 H784 0.950 . S
C745 C744 1.439 1_554 S
C745 N746 1.374 . S
C745 C779 1.395 . S
N746 C742 1.376 1_554 S
N746 C745 1.374 . S
N746 Co747 2.008 . S
Co747 N746 2.008 . S
Co747 N748 1.995 . S
Co747 N753 2.008 . S
Co747 N758 1.995 . S
Co747 N763 2.282 . S
Co747 N769 2.282 . S
N748 Co747 1.995 . S
N748 C749 1.376 . S
N748 C752 1.383 . S
C749 N748 1.376 . S
C749 C750 1.446 . S
C749 C779 1.391 . S
C750 C749 1.446 . S
C750 C751 1.339 . S
C750 H785 0.949 . S
C751 C750 1.339 . S
C751 C752 1.439 . S
C751 H786 0.950 . S
C752 N748 1.383 . S
C752 C751 1.439 . S
C752 C781 1.392 . S
N753 Co747 2.008 . S
N753 C754 1.376 . S
N753 C757 1.374 . S
C754 N753 1.376 . S
C754 C755 1.443 . S
C754 C781 1.389 . S
C755 C754 1.443 . S
C755 C756 1.340 . S
C755 H787 0.951 . S
C756 C755 1.340 . S
C756 C757 1.439 . S
C756 H788 0.950 . S
C757 N753 1.374 . S
C757 C756 1.439 . S
C757 C782 1.395 . S
N758 Co747 1.995 . S
N758 C759 1.376 . S
N758 C762 1.383 1_554 S
C759 N758 1.376 . S
C759 C760 1.446 1_554 S
C759 C782 1.391 . S
C760 C759 1.446 1_556 S
C760 C761 1.339 . S
C760 H789 0.949 . S
C761 C760 1.339 . S
C761 C762 1.439 . S
C761 H790 0.950 . S
C762 N758 1.383 1_556 S
C762 C761 1.439 . S
C762 C780 1.392 . S
N763 Co747 2.282 . S
N763 C766 1.332 . S
N763 C768 1.332 . S
C764 C765 1.386 . S
C764 C767 1.388 . S
C765 C764 1.386 . S
C765 C766 1.382 . S
C765 H791 0.950 . S
C766 N763 1.332 . S
C766 C765 1.382 . S
C766 H777 0.952 . S
C767 C764 1.388 . S
C767 C768 1.382 . S
C767 H792 0.950 . S
C768 N763 1.332 . S
C768 C767 1.382 . S
C768 H778 0.948 . S
N769 Co747 2.282 . S
N769 C773 1.332 . S
N769 C774 1.332 . S
C770 C771 1.388 . S
C770 C774 1.382 . S
C770 H793 0.950 . S
C771 C770 1.388 . S
C771 C772 1.386 . S
C772 C771 1.386 . S
C772 C773 1.382 . S
C772 H794 0.950 . S
C773 N769 1.332 . S
C773 C772 1.382 . S
C773 H775 0.952 . S
C774 N769 1.332 . S
C774 C770 1.382 . S
C774 H776 0.948 . S
H775 C773 0.952 . S
H776 C774 0.948 . S
H777 C766 0.952 . S
H778 C768 0.948 . S
C779 C745 1.395 . S
C779 C749 1.391 . S
C780 C742 1.389 . S
C780 C762 1.392 . S
C781 C752 1.392 . S
C781 C754 1.389 . S
C782 C757 1.395 . S
C782 C759 1.391 . S
H783 C743 0.951 . S
H784 C744 0.950 . S
H785 C750 0.949 . S
H786 C751 0.950 . S
H787 C755 0.951 . S
H788 C756 0.950 . S
H789 C760 0.949 . S
H790 C761 0.950 . S
H791 C765 0.950 . S
H792 C767 0.950 . S
H793 C770 0.950 . S
H794 C772 0.950 . S
C795 C796 1.443 . S
C795 N799 1.376 . S
C795 C833 1.389 . S
C796 C795 1.443 . S
C796 C797 1.340 . S
C796 H836 0.951 . S
C797 C796 1.340 . S
C797 C798 1.439 . S
C797 H837 0.950 . S
C798 C797 1.439 . S
C798 N799 1.374 . S
C798 C832 1.395 . S
N799 C795 1.376 . S
N799 C798 1.374 . S
N799 Co800 2.008 . S
Co800 N799 2.008 . S
Co800 N801 1.995 . S
Co800 N806 2.008 . S
Co800 N811 1.995 . S
Co800 N816 2.282 . S
Co800 N822 2.282 . S
N801 Co800 1.995 . S
N801 C802 1.376 . S
N801 C805 1.383 . S
C802 N801 1.376 . S
C802 C803 1.446 . S
C802 C832 1.391 . S
C803 C802 1.446 . S
C803 C804 1.339 . S
C803 H838 0.949 . S
C804 C803 1.339 . S
C804 C805 1.439 . S
C804 H839 0.950 . S
C805 N801 1.383 . S
C805 C804 1.439 . S
C805 C834 1.392 . S
N806 Co800 2.008 . S
N806 C807 1.376 . S
N806 C810 1.374 . S
C807 N806 1.376 . S
C807 C808 1.443 . S
C807 C834 1.389 . S
C808 C807 1.443 . S
C808 C809 1.340 . S
C808 H840 0.951 . S
C809 C808 1.340 . S
C809 C810 1.439 . S
C809 H841 0.950 . S
C810 N806 1.374 . S
C810 C809 1.439 . S
C810 C835 1.395 . S
N811 Co800 1.995 . S
N811 C812 1.376 . S
N811 C815 1.383 . S
C812 N811 1.376 . S
C812 C813 1.446 . S
C812 C835 1.391 . S
C813 C812 1.446 . S
C813 C814 1.339 . S
C813 H842 0.949 . S
C814 C813 1.339 . S
C814 C815 1.439 . S
C814 H843 0.950 . S
C815 N811 1.383 . S
C815 C814 1.439 . S
C815 C833 1.392 . S
N816 Co800 2.282 . S
N816 C819 1.332 . S
N816 C821 1.332 . S
C817 C818 1.386 . S
C817 C820 1.388 . S
C818 C817 1.386 . S
C818 C819 1.382 . S
C818 H844 0.950 . S
C819 N816 1.332 . S
C819 C818 1.382 . S
C819 H830 0.952 . S
C820 C817 1.388 . S
C820 C821 1.382 . S
C820 H845 0.950 . S
C821 N816 1.332 . S
C821 C820 1.382 . S
C821 H831 0.948 . S
N822 Co800 2.282 . S
N822 C826 1.332 . S
N822 C827 1.332 . S
C823 C824 1.388 . S
C823 C827 1.382 . S
C823 H846 0.950 . S
C824 C823 1.388 . S
C824 C825 1.386 . S
C825 C824 1.386 . S
C825 C826 1.382 . S
C825 H847 0.950 . S
C826 N822 1.332 . S
C826 C825 1.382 . S
C826 H828 0.952 . S
C827 N822 1.332 . S
C827 C823 1.382 . S
C827 H829 0.948 . S
H828 C826 0.952 . S
H829 C827 0.948 . S
H830 C819 0.952 . S
H831 C821 0.948 . S
C832 C798 1.395 . S
C832 C802 1.391 . S
C833 C795 1.389 . S
C833 C815 1.392 . S
C834 C805 1.392 . S
C834 C807 1.389 . S
C835 C810 1.395 . S
C835 C812 1.391 . S
H836 C796 0.951 . S
H837 C797 0.950 . S
H838 C803 0.949 . S
H839 C804 0.950 . S
H840 C808 0.951 . S
H841 C809 0.950 . S
H842 C813 0.949 . S
H843 C814 0.950 . S
H844 C818 0.950 . S
H845 C820 0.950 . S
H846 C823 0.950 . S
H847 C825 0.950 . S
C848 C849 1.443 . S
C848 N852 1.376 . S
C848 C886 1.389 . S
C849 C848 1.443 . S
C849 C850 1.340 . S
C849 H889 0.951 . S
C850 C849 1.340 . S
C850 C851 1.439 . S
C850 H890 0.950 . S
C851 C850 1.439 . S
C851 N852 1.374 . S
C851 C885 1.395 . S
N852 C848 1.376 . S
N852 C851 1.374 . S
N852 Co853 2.008 . S
Co853 N852 2.008 . S
Co853 N854 1.995 . S
Co853 N859 2.008 . S
Co853 N864 1.995 . S
Co853 N869 2.282 . S
Co853 N875 2.282 . S
N854 Co853 1.995 . S
N854 C855 1.376 . S
N854 C858 1.383 . S
C855 N854 1.376 . S
C855 C856 1.446 . S
C855 C885 1.391 . S
C856 C855 1.446 . S
C856 C857 1.339 . S
C856 H891 0.949 . S
C857 C856 1.339 . S
C857 C858 1.439 . S
C857 H892 0.950 . S
C858 N854 1.383 . S
C858 C857 1.439 . S
C858 C887 1.392 . S
N859 Co853 2.008 . S
N859 C860 1.376 . S
N859 C863 1.374 . S
C860 N859 1.376 . S
C860 C861 1.443 . S
C860 C887 1.389 . S
C861 C860 1.443 . S
C861 C862 1.340 . S
C861 H893 0.951 . S
C862 C861 1.340 . S
C862 C863 1.439 . S
C862 H894 0.950 . S
C863 N859 1.374 . S
C863 C862 1.439 . S
C863 C888 1.395 . S
N864 Co853 1.995 . S
N864 C865 1.376 . S
N864 C868 1.383 . S
C865 N864 1.376 . S
C865 C866 1.446 . S
C865 C888 1.391 . S
C866 C865 1.446 . S
C866 C867 1.339 . S
C866 H895 0.949 . S
C867 C866 1.339 . S
C867 C868 1.439 . S
C867 H896 0.950 . S
C868 N864 1.383 . S
C868 C867 1.439 . S
C868 C886 1.392 . S
N869 Co853 2.282 . S
N869 C872 1.332 . S
N869 C874 1.332 . S
C870 C871 1.386 . S
C870 C873 1.388 . S
C871 C870 1.386 . S
C871 C872 1.382 . S
C871 H897 0.950 . S
C872 N869 1.332 . S
C872 C871 1.382 . S
C872 H883 0.952 . S
C873 C870 1.388 . S
C873 C874 1.382 . S
C873 H898 0.950 . S
C874 N869 1.332 . S
C874 C873 1.382 . S
C874 H884 0.948 . S
N875 Co853 2.282 . S
N875 C879 1.332 . S
N875 C880 1.332 . S
C876 C877 1.388 . S
C876 C880 1.382 . S
C876 H899 0.950 . S
C877 C876 1.388 . S
C877 C878 1.386 . S
C878 C877 1.386 . S
C878 C879 1.382 . S
C878 H900 0.950 . S
C879 N875 1.332 . S
C879 C878 1.382 . S
C879 H881 0.952 . S
C880 N875 1.332 . S
C880 C876 1.382 . S
C880 H882 0.948 . S
H881 C879 0.952 . S
H882 C880 0.948 . S
H883 C872 0.952 . S
H884 C874 0.948 . S
C885 C851 1.395 . S
C885 C855 1.391 . S
C886 C848 1.389 . S
C886 C868 1.392 . S
C887 C858 1.392 . S
C887 C860 1.389 . S
C888 C863 1.395 . S
C888 C865 1.391 . S
H889 C849 0.951 . S
H890 C850 0.950 . S
H891 C856 0.949 . S
H892 C857 0.950 . S
H893 C861 0.951 . S
H894 C862 0.950 . S
H895 C866 0.949 . S
H896 C867 0.950 . S
H897 C871 0.950 . S
H898 C873 0.950 . S
H899 C876 0.950 . S
H900 C878 0.950 . S
C901 C902 1.443 . S
C901 N905 1.376 . S
C901 C939 1.389 . S
C902 C901 1.443 . S
C902 C903 1.340 . S
C902 H942 0.951 . S
C903 C902 1.340 . S
C903 C904 1.439 . S
C903 H943 0.950 . S
C904 C903 1.439 . S
C904 N905 1.374 . S
C904 C938 1.395 . S
N905 C901 1.376 . S
N905 C904 1.374 . S
N905 Co906 2.008 . S
Co906 N905 2.008 . S
Co906 N907 1.995 . S
Co906 N912 2.008 . S
Co906 N917 1.995 . S
Co906 N922 2.282 . S
Co906 N928 2.282 . S
N907 Co906 1.995 . S
N907 C908 1.376 . S
N907 C911 1.383 . S
C908 N907 1.376 . S
C908 C909 1.446 . S
C908 C938 1.391 . S
C909 C908 1.446 . S
C909 C910 1.339 . S
C909 H944 0.949 . S
C910 C909 1.339 . S
C910 C911 1.439 . S
C910 H945 0.950 . S
C911 N907 1.383 . S
C911 C910 1.439 . S
C911 C940 1.392 . S
N912 Co906 2.008 . S
N912 C913 1.376 . S
N912 C916 1.374 . S
C913 N912 1.376 . S
C913 C914 1.443 . S
C913 C940 1.389 . S
C914 C913 1.443 . S
C914 C915 1.340 . S
C914 H946 0.951 . S
C915 C914 1.340 . S
C915 C916 1.439 . S
C915 H947 0.950 . S
C916 N912 1.374 . S
C916 C915 1.439 . S
C916 C941 1.395 . S
N917 Co906 1.995 . S
N917 C918 1.376 . S
N917 C921 1.383 . S
C918 N917 1.376 . S
C918 C919 1.446 . S
C918 C941 1.391 . S
C919 C918 1.446 . S
C919 C920 1.339 . S
C919 H948 0.949 . S
C920 C919 1.339 . S
C920 C921 1.439 . S
C920 H949 0.950 . S
C921 N917 1.383 . S
C921 C920 1.439 . S
C921 C939 1.392 . S
N922 Co906 2.282 . S
N922 C925 1.332 . S
N922 C927 1.332 . S
C923 C924 1.386 . S
C923 C926 1.388 . S
C924 C923 1.386 . S
C924 C925 1.382 . S
C924 H950 0.950 . S
C925 N922 1.332 . S
C925 C924 1.382 . S
C925 H936 0.952 . S
C926 C923 1.388 . S
C926 C927 1.382 . S
C926 H951 0.950 . S
C927 N922 1.332 . S
C927 C926 1.382 . S
C927 H937 0.948 . S
N928 Co906 2.282 . S
N928 C932 1.332 . S
N928 C933 1.332 . S
C929 C930 1.388 . S
C929 C933 1.382 . S
C929 H952 0.950 . S
C930 C929 1.388 . S
C930 C931 1.386 . S
C931 C930 1.386 . S
C931 C932 1.382 . S
C931 H953 0.950 . S
C932 N928 1.332 . S
C932 C931 1.382 . S
C932 H934 0.952 . S
C933 N928 1.332 . S
C933 C929 1.382 . S
C933 H935 0.948 . S
H934 C932 0.952 . S
H935 C933 0.948 . S
H936 C925 0.952 . S
H937 C927 0.948 . S
C938 C904 1.395 . S
C938 C908 1.391 . S
C939 C901 1.389 . S
C939 C921 1.392 . S
C940 C911 1.392 . S
C940 C913 1.389 . S
C941 C916 1.395 . S
C941 C918 1.391 . S
H942 C902 0.951 . S
H943 C903 0.950 . S
H944 C909 0.949 . S
H945 C910 0.950 . S
H946 C914 0.951 . S
H947 C915 0.950 . S
H948 C919 0.949 . S
H949 C920 0.950 . S
H950 C924 0.950 . S
H951 C926 0.950 . S
H952 C929 0.950 . S
H953 C931 0.950 . S
C954 C955 1.443 . S
C954 N958 1.376 1_556 S
C954 C992 1.389 1_455 S
C955 C954 1.443 . S
C955 C956 1.340 . S
C955 H995 0.951 . S
C956 C955 1.340 . S
C956 C957 1.439 1_556 S
C956 H996 0.950 . S
C957 C956 1.439 1_554 S
C957 N958 1.374 . S
C957 C991 1.395 . S
N958 C954 1.376 1_554 S
N958 C957 1.374 . S
N958 Co959 2.008 1_455 S
Co959 N958 2.008 1_655 S
Co959 N960 1.995 1_655 S
Co959 N965 2.008 . S
Co959 N970 1.995 . S
Co959 N975 2.282 . S
Co959 N981 2.283 . S
N960 Co959 1.995 1_455 S
N960 C961 1.376 . S
N960 C964 1.383 . S
C961 N960 1.376 . S
C961 C962 1.446 . S
C961 C991 1.391 . S
C962 C961 1.446 . S
C962 C963 1.339 . S
C962 H997 0.949 . S
C963 C962 1.339 . S
C963 C964 1.439 . S
C963 H998 0.950 . S
C964 N960 1.383 . S
C964 C963 1.439 . S
C964 C993 1.392 1_455 S
N965 Co959 2.008 . S
N965 C966 1.376 . S
N965 C969 1.374 . S
C966 N965 1.376 . S
C966 C967 1.443 . S
C966 C993 1.389 . S
C967 C966 1.443 . S
C967 C968 1.340 . S
C967 H999 0.951 . S
C968 C967 1.340 . S
C968 C969 1.439 . S
C968 H1000 0.950 . S
C969 N965 1.374 . S
C969 C968 1.439 . S
C969 C994 1.395 . S
N970 Co959 1.995 . S
N970 C971 1.376 . S
N970 C974 1.383 1_554 S
C971 N970 1.376 . S
C971 C972 1.446 1_554 S
C971 C994 1.391 . S
C972 C971 1.446 1_556 S
C972 C973 1.339 . S
C972 H1001 0.949 . S
C973 C972 1.339 . S
C973 C974 1.439 . S
C973 H1002 0.950 . S
C974 N970 1.383 1_556 S
C974 C973 1.439 . S
C974 C992 1.392 . S
N975 Co959 2.282 . S
N975 C978 1.332 . S
N975 C980 1.332 . S
C976 C977 1.386 . S
C976 C979 1.388 . S
C977 C976 1.386 . S
C977 C978 1.382 . S
C977 H1003 0.950 . S
C978 N975 1.332 . S
C978 C977 1.382 . S
C978 H989 0.952 . S
C979 C976 1.388 . S
C979 C980 1.382 . S
C979 H1004 0.950 . S
C980 N975 1.332 . S
C980 C979 1.382 . S
C980 H990 1.012 . S
N981 Co959 2.283 . S
N981 C985 1.330 1_655 S
N981 C986 1.333 . S
C982 C983 1.388 1_655 S
C982 C986 1.382 . S
C982 H1005 0.950 . S
C983 C982 1.388 1_455 S
C983 C984 1.386 . S
C984 C983 1.386 . S
C984 C985 1.382 . S
C984 H1006 0.950 . S
C985 N981 1.330 1_455 S
C985 C984 1.382 . S
C985 H987 0.952 . S
C986 N981 1.333 . S
C986 C982 1.382 . S
C986 H988 0.948 . S
H987 C985 0.952 . S
H988 C986 0.948 . S
H989 C978 0.952 . S
H990 C980 1.012 . S
C991 C957 1.395 . S
C991 C961 1.391 . S
C992 C954 1.389 1_655 S
C992 C974 1.392 . S
C993 C964 1.392 1_655 S
C993 C966 1.389 . S
C994 C969 1.395 . S
C994 C971 1.391 . S
H995 C955 0.951 . S
H996 C956 0.950 . S
H997 C962 0.949 . S
H998 C963 0.950 . S
H999 C967 0.951 . S
H1000 C968 0.950 . S
H1001 C972 0.949 . S
H1002 C973 0.950 . S
H1003 C977 0.950 . S
H1004 C979 0.950 . S
H1005 C982 0.950 . S
H1006 C984 0.950 . S
C1007 C1008 1.443 . S
C1007 N1011 1.376 . S
C1007 C1045 1.389 . S
C1008 C1007 1.443 . S
C1008 C1009 1.340 . S
C1008 H1048 0.951 . S
C1009 C1008 1.340 . S
C1009 C1010 1.439 . S
C1009 H1049 0.950 . S
C1010 C1009 1.439 . S
C1010 N1011 1.374 . S
C1010 C1044 1.395 . S
N1011 C1007 1.376 . S
N1011 C1010 1.374 . S
N1011 Co1012 2.008 . S
Co1012 N1011 2.008 . S
Co1012 N1013 1.995 . S
Co1012 N1018 2.008 . S
Co1012 N1023 1.995 . S
Co1012 N1028 2.282 . S
Co1012 N1034 2.282 . S
N1013 Co1012 1.995 . S
N1013 C1014 1.376 . S
N1013 C1017 1.383 . S
C1014 N1013 1.376 . S
C1014 C1015 1.446 . S
C1014 C1044 1.391 . S
C1015 C1014 1.446 . S
C1015 C1016 1.339 . S
C1015 H1050 0.949 . S
C1016 C1015 1.339 . S
C1016 C1017 1.439 . S
C1016 H1051 0.950 . S
C1017 N1013 1.383 . S
C1017 C1016 1.439 . S
C1017 C1046 1.392 . S
N1018 Co1012 2.008 . S
N1018 C1019 1.376 . S
N1018 C1022 1.374 . S
C1019 N1018 1.376 . S
C1019 C1020 1.443 . S
C1019 C1046 1.389 . S
C1020 C1019 1.443 . S
C1020 C1021 1.340 . S
C1020 H1052 0.951 . S
C1021 C1020 1.340 . S
C1021 C1022 1.439 . S
C1021 H1053 0.950 . S
C1022 N1018 1.374 . S
C1022 C1021 1.439 . S
C1022 C1047 1.395 . S
N1023 Co1012 1.995 . S
N1023 C1024 1.376 . S
N1023 C1027 1.383 . S
C1024 N1023 1.376 . S
C1024 C1025 1.446 . S
C1024 C1047 1.391 . S
C1025 C1024 1.446 . S
C1025 C1026 1.339 . S
C1025 H1054 0.949 . S
C1026 C1025 1.339 . S
C1026 C1027 1.439 . S
C1026 H1055 0.950 . S
C1027 N1023 1.383 . S
C1027 C1026 1.439 . S
C1027 C1045 1.392 . S
N1028 Co1012 2.282 . S
N1028 C1031 1.332 . S
N1028 C1033 1.332 . S
C1029 C1030 1.386 . S
C1029 C1032 1.388 . S
C1030 C1029 1.386 . S
C1030 C1031 1.382 . S
C1030 H1056 0.950 . S
C1031 N1028 1.332 . S
C1031 C1030 1.382 . S
C1031 H1042 0.952 . S
C1032 C1029 1.388 . S
C1032 C1033 1.382 . S
C1032 H1057 0.950 . S
C1033 N1028 1.332 . S
C1033 C1032 1.382 . S
C1033 H1043 0.948 . S
N1034 Co1012 2.282 . S
N1034 C1038 1.332 . S
N1034 C1039 1.332 . S
C1035 C1036 1.388 . S
C1035 C1039 1.382 . S
C1035 H1058 0.950 . S
C1036 C1035 1.388 . S
C1036 C1037 1.386 . S
C1037 C1036 1.386 . S
C1037 C1038 1.382 . S
C1037 H1059 0.950 . S
C1038 N1034 1.332 . S
C1038 C1037 1.382 . S
C1038 H1040 0.952 . S
C1039 N1034 1.332 . S
C1039 C1035 1.382 . S
C1039 H1041 0.948 . S
H1040 C1038 0.952 . S
H1041 C1039 0.948 . S
H1042 C1031 0.952 . S
H1043 C1033 0.948 . S
C1044 C1010 1.395 . S
C1044 C1014 1.391 . S
C1045 C1007 1.389 . S
C1045 C1027 1.392 . S
C1046 C1017 1.392 . S
C1046 C1019 1.389 . S
C1047 C1022 1.395 . S
C1047 C1024 1.391 . S
H1048 C1008 0.951 . S
H1049 C1009 0.950 . S
H1050 C1015 0.949 . S
H1051 C1016 0.950 . S
H1052 C1020 0.951 . S
H1053 C1021 0.950 . S
H1054 C1025 0.949 . S
H1055 C1026 0.950 . S
H1056 C1030 0.950 . S
H1057 C1032 0.950 . S
H1058 C1035 0.950 . S
H1059 C1037 0.950 . S
C1060 C1061 1.443 . S
C1060 N1064 1.376 1_554 S
C1060 C1098 1.389 . S
C1061 C1060 1.443 . S
C1061 C1062 1.340 . S
C1061 H1101 0.951 . S
C1062 C1061 1.340 . S
C1062 C1063 1.439 1_554 S
C1062 H1102 0.950 . S
C1063 C1062 1.439 1_556 S
C1063 N1064 1.374 . S
C1063 C1097 1.395 . S
N1064 C1060 1.376 1_556 S
N1064 C1063 1.374 . S
N1064 Co1065 2.008 . S
Co1065 N1064 2.008 . S
Co1065 N1066 1.995 . S
Co1065 N1071 2.008 . S
Co1065 N1076 1.995 . S
Co1065 N1081 2.282 . S
Co1065 N1087 2.282 . S
N1066 Co1065 1.995 . S
N1066 C1067 1.376 . S
N1066 C1070 1.383 . S
C1067 N1066 1.376 . S
C1067 C1068 1.446 . S
C1067 C1097 1.391 . S
C1068 C1067 1.446 . S
C1068 C1069 1.339 . S
C1068 H1103 0.949 . S
C1069 C1068 1.339 . S
C1069 C1070 1.439 . S
C1069 H1104 0.950 . S
C1070 N1066 1.383 . S
C1070 C1069 1.439 . S
C1070 C1099 1.392 . S
N1071 Co1065 2.008 . S
N1071 C1072 1.376 . S
N1071 C1075 1.374 . S
C1072 N1071 1.376 . S
C1072 C1073 1.443 . S
C1072 C1099 1.389 . S
C1073 C1072 1.443 . S
C1073 C1074 1.340 . S
C1073 H1105 0.951 . S
C1074 C1073 1.340 . S
C1074 C1075 1.439 . S
C1074 H1106 0.950 . S
C1075 N1071 1.374 . S
C1075 C1074 1.439 . S
C1075 C1100 1.395 . S
N1076 Co1065 1.995 . S
N1076 C1077 1.376 . S
N1076 C1080 1.383 1_556 S
C1077 N1076 1.376 . S
C1077 C1078 1.446 1_556 S
C1077 C1100 1.391 . S
C1078 C1077 1.446 1_554 S
C1078 C1079 1.339 . S
C1078 H1107 0.949 . S
C1079 C1078 1.339 . S
C1079 C1080 1.439 . S
C1079 H1108 0.950 . S
C1080 N1076 1.383 1_554 S
C1080 C1079 1.439 . S
C1080 C1098 1.392 . S
N1081 Co1065 2.282 . S
N1081 C1084 1.332 . S
N1081 C1086 1.332 . S
C1082 C1083 1.386 . S
C1082 C1085 1.388 . S
C1083 C1082 1.386 . S
C1083 C1084 1.382 . S
C1083 H1109 0.950 . S
C1084 N1081 1.332 . S
C1084 C1083 1.382 . S
C1084 H1095 0.952 . S
C1085 C1082 1.388 . S
C1085 C1086 1.382 . S
C1085 H1110 0.950 . S
C1086 N1081 1.332 . S
C1086 C1085 1.382 . S
C1086 H1096 0.948 . S
N1087 Co1065 2.282 . S
N1087 C1091 1.332 . S
N1087 C1092 1.332 . S
C1088 C1089 1.388 . S
C1088 C1092 1.382 . S
C1088 H1111 0.950 . S
C1089 C1088 1.388 . S
C1089 C1090 1.386 . S
C1090 C1089 1.386 . S
C1090 C1091 1.382 . S
C1090 H1112 0.950 . S
C1091 N1087 1.332 . S
C1091 C1090 1.382 . S
C1091 H1093 0.952 . S
C1092 N1087 1.332 . S
C1092 C1088 1.382 . S
C1092 H1094 0.948 . S
H1093 C1091 0.952 . S
H1094 C1092 0.948 . S
H1095 C1084 0.952 . S
H1096 C1086 0.948 . S
C1097 C1063 1.395 . S
C1097 C1067 1.391 . S
C1098 C1060 1.389 . S
C1098 C1080 1.392 . S
C1099 C1070 1.392 . S
C1099 C1072 1.389 . S
C1100 C1075 1.395 . S
C1100 C1077 1.391 . S
H1101 C1061 0.951 . S
H1102 C1062 0.950 . S
H1103 C1068 0.949 . S
H1104 C1069 0.950 . S
H1105 C1073 0.951 . S
H1106 C1074 0.950 . S
H1107 C1078 0.949 . S
H1108 C1079 0.950 . S
H1109 C1083 0.950 . S
H1110 C1085 0.950 . S
H1111 C1088 0.950 . S
H1112 C1090 0.950 . S
C1113 C1114 1.443 . S
C1113 N1117 1.376 . S
C1113 C1151 1.389 . S
C1114 C1113 1.443 . S
C1114 C1115 1.340 . S
C1114 H1154 0.951 . S
C1115 C1114 1.340 . S
C1115 C1116 1.439 . S
C1115 H1155 0.950 . S
C1116 C1115 1.439 . S
C1116 N1117 1.374 . S
C1116 C1150 1.395 . S
N1117 C1113 1.376 . S
N1117 C1116 1.374 . S
N1117 Co1118 2.008 . S
Co1118 N1117 2.008 . S
Co1118 N1119 1.995 . S
Co1118 N1124 2.008 . S
Co1118 N1129 1.995 . S
Co1118 N1134 2.282 . S
Co1118 N1140 2.282 . S
N1119 Co1118 1.995 . S
N1119 C1120 1.376 . S
N1119 C1123 1.383 . S
C1120 N1119 1.376 . S
C1120 C1121 1.446 . S
C1120 C1150 1.391 . S
C1121 C1120 1.446 . S
C1121 C1122 1.339 . S
C1121 H1156 0.949 . S
C1122 C1121 1.339 . S
C1122 C1123 1.439 . S
C1122 H1157 0.950 . S
C1123 N1119 1.383 . S
C1123 C1122 1.439 . S
C1123 C1152 1.392 . S
N1124 Co1118 2.008 . S
N1124 C1125 1.376 . S
N1124 C1128 1.374 . S
C1125 N1124 1.376 . S
C1125 C1126 1.443 . S
C1125 C1152 1.389 . S
C1126 C1125 1.443 . S
C1126 C1127 1.340 . S
C1126 H1158 0.951 . S
C1127 C1126 1.340 . S
C1127 C1128 1.439 . S
C1127 H1159 0.950 . S
C1128 N1124 1.374 . S
C1128 C1127 1.439 . S
C1128 C1153 1.395 . S
N1129 Co1118 1.995 . S
N1129 C1130 1.376 . S
N1129 C1133 1.383 . S
C1130 N1129 1.376 . S
C1130 C1131 1.446 . S
C1130 C1153 1.391 . S
C1131 C1130 1.446 . S
C1131 C1132 1.339 . S
C1131 H1160 0.949 . S
C1132 C1131 1.339 . S
C1132 C1133 1.439 . S
C1132 H1161 0.950 . S
C1133 N1129 1.383 . S
C1133 C1132 1.439 . S
C1133 C1151 1.392 . S
N1134 Co1118 2.282 . S
N1134 C1137 1.332 . S
N1134 C1139 1.332 . S
C1135 C1136 1.386 . S
C1135 C1138 1.388 . S
C1136 C1135 1.386 . S
C1136 C1137 1.382 . S
C1136 H1162 0.950 . S
C1137 N1134 1.332 . S
C1137 C1136 1.382 . S
C1137 H1148 0.952 . S
C1138 C1135 1.388 . S
C1138 C1139 1.382 . S
C1138 H1163 0.950 . S
C1139 N1134 1.332 . S
C1139 C1138 1.382 . S
C1139 H1149 0.948 . S
N1140 Co1118 2.282 . S
N1140 C1144 1.332 . S
N1140 C1145 1.332 . S
C1141 C1142 1.388 . S
C1141 C1145 1.382 . S
C1141 H1164 0.950 . S
C1142 C1141 1.388 . S
C1142 C1143 1.386 . S
C1143 C1142 1.386 . S
C1143 C1144 1.382 . S
C1143 H1165 0.950 . S
C1144 N1140 1.332 . S
C1144 C1143 1.382 . S
C1144 H1146 0.952 . S
C1145 N1140 1.332 . S
C1145 C1141 1.382 . S
C1145 H1147 0.948 . S
H1146 C1144 0.952 . S
H1147 C1145 0.948 . S
H1148 C1137 0.952 . S
H1149 C1139 0.948 . S
C1150 C1116 1.395 . S
C1150 C1120 1.391 . S
C1151 C1113 1.389 . S
C1151 C1133 1.392 . S
C1152 C1123 1.392 . S
C1152 C1125 1.389 . S
C1153 C1128 1.395 . S
C1153 C1130 1.391 . S
H1154 C1114 0.951 . S
H1155 C1115 0.950 . S
H1156 C1121 0.949 . S
H1157 C1122 0.950 . S
H1158 C1126 0.951 . S
H1159 C1127 0.950 . S
H1160 C1131 0.949 . S
H1161 C1132 0.950 . S
H1162 C1136 0.950 . S
H1163 C1138 0.950 . S
H1164 C1141 0.950 . S
H1165 C1143 0.950 . S
C1166 C1167 1.443 . S
C1166 N1170 1.376 . S
C1166 C1204 1.389 1_455 S
C1167 C1166 1.443 . S
C1167 C1168 1.340 . S
C1167 H1207 0.951 . S
C1168 C1167 1.340 . S
C1168 C1169 1.439 . S
C1168 H1208 0.950 . S
C1169 C1168 1.439 . S
C1169 N1170 1.374 . S
C1169 C1203 1.395 . S
N1170 C1166 1.376 . S
N1170 C1169 1.374 . S
N1170 Co1171 2.008 1_455 S
Co1171 N1170 2.008 1_655 S
Co1171 N1172 1.995 1_655 S
Co1171 N1177 2.008 . S
Co1171 N1182 1.995 . S
Co1171 N1187 2.282 . S
Co1171 N1193 2.283 . S
N1172 Co1171 1.995 1_455 S
N1172 C1173 1.376 . S
N1172 C1176 1.383 . S
C1173 N1172 1.376 . S
C1173 C1174 1.446 . S
C1173 C1203 1.391 . S
C1174 C1173 1.446 . S
C1174 C1175 1.339 . S
C1174 H1209 0.949 . S
C1175 C1174 1.339 . S
C1175 C1176 1.439 . S
C1175 H1210 0.950 . S
C1176 N1172 1.383 . S
C1176 C1175 1.439 . S
C1176 C1205 1.392 1_455 S
N1177 Co1171 2.008 . S
N1177 C1178 1.376 . S
N1177 C1181 1.374 . S
C1178 N1177 1.376 . S
C1178 C1179 1.443 . S
C1178 C1205 1.389 . S
C1179 C1178 1.443 . S
C1179 C1180 1.340 . S
C1179 H1211 0.951 . S
C1180 C1179 1.340 . S
C1180 C1181 1.439 . S
C1180 H1212 0.950 . S
C1181 N1177 1.374 . S
C1181 C1180 1.439 . S
C1181 C1206 1.395 . S
N1182 Co1171 1.995 . S
N1182 C1183 1.376 . S
N1182 C1186 1.383 . S
C1183 N1182 1.376 . S
C1183 C1184 1.446 . S
C1183 C1206 1.391 . S
C1184 C1183 1.446 . S
C1184 C1185 1.339 . S
C1184 H1213 0.949 . S
C1185 C1184 1.339 . S
C1185 C1186 1.439 . S
C1185 H1214 0.950 . S
C1186 N1182 1.383 . S
C1186 C1185 1.439 . S
C1186 C1204 1.392 . S
N1187 Co1171 2.282 . S
N1187 C1190 1.332 . S
N1187 C1192 1.332 . S
C1188 C1189 1.386 . S
C1188 C1191 1.388 . S
C1189 C1188 1.386 . S
C1189 C1190 1.382 . S
C1189 H1215 0.950 . S
C1190 N1187 1.332 . S
C1190 C1189 1.382 . S
C1190 H1201 0.952 . S
C1191 C1188 1.388 . S
C1191 C1192 1.382 . S
C1191 H1216 0.950 . S
C1192 N1187 1.332 . S
C1192 C1191 1.382 . S
C1192 H1202 1.012 . S
N1193 Co1171 2.283 . S
N1193 C1197 1.330 1_655 S
N1193 C1198 1.333 . S
C1194 C1195 1.388 1_655 S
C1194 C1198 1.382 . S
C1194 H1217 0.950 . S
C1195 C1194 1.388 1_455 S
C1195 C1196 1.386 . S
C1196 C1195 1.386 . S
C1196 C1197 1.382 . S
C1196 H1218 0.950 . S
C1197 N1193 1.330 1_455 S
C1197 C1196 1.382 . S
C1197 H1199 0.952 . S
C1198 N1193 1.333 . S
C1198 C1194 1.382 . S
C1198 H1200 0.948 . S
H1199 C1197 0.952 . S
H1200 C1198 0.948 . S
H1201 C1190 0.952 . S
H1202 C1192 1.012 . S
C1203 C1169 1.395 . S
C1203 C1173 1.391 . S
C1204 C1166 1.389 1_655 S
C1204 C1186 1.392 . S
C1205 C1176 1.392 1_655 S
C1205 C1178 1.389 . S
C1206 C1181 1.395 . S
C1206 C1183 1.391 . S
H1207 C1167 0.951 . S
H1208 C1168 0.950 . S
H1209 C1174 0.949 . S
H1210 C1175 0.950 . S
H1211 C1179 0.951 . S
H1212 C1180 0.950 . S
H1213 C1184 0.949 . S
H1214 C1185 0.950 . S
H1215 C1189 0.950 . S
H1216 C1191 0.950 . S
H1217 C1194 0.950 . S
H1218 C1196 0.950 . S
C1219 C1220 1.443 . S
C1219 N1223 1.376 . S
C1219 C1257 1.389 . S
C1220 C1219 1.443 . S
C1220 C1221 1.340 . S
C1220 H1260 0.951 . S
C1221 C1220 1.340 . S
C1221 C1222 1.439 . S
C1221 H1261 0.950 . S
C1222 C1221 1.439 . S
C1222 N1223 1.374 . S
C1222 C1256 1.395 . S
N1223 C1219 1.376 . S
N1223 C1222 1.374 . S
N1223 Co1224 2.008 . S
Co1224 N1223 2.008 . S
Co1224 N1225 1.995 . S
Co1224 N1230 2.008 . S
Co1224 N1235 1.995 . S
Co1224 N1240 2.282 . S
Co1224 N1246 2.282 . S
N1225 Co1224 1.995 . S
N1225 C1226 1.376 . S
N1225 C1229 1.383 . S
C1226 N1225 1.376 . S
C1226 C1227 1.446 . S
C1226 C1256 1.391 . S
C1227 C1226 1.446 . S
C1227 C1228 1.339 . S
C1227 H1262 0.949 . S
C1228 C1227 1.339 . S
C1228 C1229 1.439 . S
C1228 H1263 0.950 . S
C1229 N1225 1.383 . S
C1229 C1228 1.439 . S
C1229 C1258 1.392 . S
N1230 Co1224 2.008 . S
N1230 C1231 1.376 . S
N1230 C1234 1.374 . S
C1231 N1230 1.376 . S
C1231 C1232 1.443 . S
C1231 C1258 1.389 . S
C1232 C1231 1.443 . S
C1232 C1233 1.340 . S
C1232 H1264 0.951 . S
C1233 C1232 1.340 . S
C1233 C1234 1.439 . S
C1233 H1265 0.950 . S
C1234 N1230 1.374 . S
C1234 C1233 1.439 . S
C1234 C1259 1.395 . S
N1235 Co1224 1.995 . S
N1235 C1236 1.376 . S
N1235 C1239 1.383 . S
C1236 N1235 1.376 . S
C1236 C1237 1.446 . S
C1236 C1259 1.391 . S
C1237 C1236 1.446 . S
C1237 C1238 1.339 . S
C1237 H1266 0.949 . S
C1238 C1237 1.339 . S
C1238 C1239 1.439 . S
C1238 H1267 0.950 . S
C1239 N1235 1.383 . S
C1239 C1238 1.439 . S
C1239 C1257 1.392 . S
N1240 Co1224 2.282 . S
N1240 C1243 1.332 . S
N1240 C1245 1.332 . S
C1241 C1242 1.386 . S
C1241 C1244 1.388 . S
C1242 C1241 1.386 . S
C1242 C1243 1.382 . S
C1242 H1268 0.950 . S
C1243 N1240 1.332 . S
C1243 C1242 1.382 . S
C1243 H1254 0.952 . S
C1244 C1241 1.388 . S
C1244 C1245 1.382 . S
C1244 H1269 0.950 . S
C1245 N1240 1.332 . S
C1245 C1244 1.382 . S
C1245 H1255 0.948 . S
N1246 Co1224 2.282 . S
N1246 C1250 1.332 . S
N1246 C1251 1.332 . S
C1247 C1248 1.388 . S
C1247 C1251 1.382 . S
C1247 H1270 0.950 . S
C1248 C1247 1.388 . S
C1248 C1249 1.386 . S
C1249 C1248 1.386 . S
C1249 C1250 1.382 . S
C1249 H1271 0.950 . S
C1250 N1246 1.332 . S
C1250 C1249 1.382 . S
C1250 H1252 0.952 . S
C1251 N1246 1.332 . S
C1251 C1247 1.382 . S
C1251 H1253 0.948 . S
H1252 C1250 0.952 . S
H1253 C1251 0.948 . S
H1254 C1243 0.952 . S
H1255 C1245 0.948 . S
C1256 C1222 1.395 . S
C1256 C1226 1.391 . S
C1257 C1219 1.389 . S
C1257 C1239 1.392 . S
C1258 C1229 1.392 . S
C1258 C1231 1.389 . S
C1259 C1234 1.395 . S
C1259 C1236 1.391 . S
H1260 C1220 0.951 . S
H1261 C1221 0.950 . S
H1262 C1227 0.949 . S
H1263 C1228 0.950 . S
H1264 C1232 0.951 . S
H1265 C1233 0.950 . S
H1266 C1237 0.949 . S
H1267 C1238 0.950 . S
H1268 C1242 0.950 . S
H1269 C1244 0.950 . S
H1270 C1247 0.950 . S
H1271 C1249 0.950 . S
C1272 C1273 1.443 . S
C1272 N1276 1.376 . S
C1272 C1310 1.389 . S
C1273 C1272 1.443 . S
C1273 C1274 1.340 . S
C1273 H1313 0.951 . S
C1274 C1273 1.340 . S
C1274 C1275 1.439 . S
C1274 H1314 0.950 . S
C1275 C1274 1.439 . S
C1275 N1276 1.374 . S
C1275 C1309 1.395 . S
N1276 C1272 1.376 . S
N1276 C1275 1.374 . S
N1276 Co1277 2.008 . S
Co1277 N1276 2.008 . S
Co1277 N1278 1.995 . S
Co1277 N1283 2.008 . S
Co1277 N1288 1.995 . S
Co1277 N1293 2.282 . S
Co1277 N1299 2.282 . S
N1278 Co1277 1.995 . S
N1278 C1279 1.376 . S
N1278 C1282 1.383 . S
C1279 N1278 1.376 . S
C1279 C1280 1.446 . S
C1279 C1309 1.391 . S
C1280 C1279 1.446 . S
C1280 C1281 1.339 . S
C1280 H1315 0.949 . S
C1281 C1280 1.339 . S
C1281 C1282 1.439 . S
C1281 H1316 0.950 . S
C1282 N1278 1.383 . S
C1282 C1281 1.439 . S
C1282 C1311 1.392 . S
N1283 Co1277 2.008 . S
N1283 C1284 1.376 . S
N1283 C1287 1.374 . S
C1284 N1283 1.376 . S
C1284 C1285 1.443 . S
C1284 C1311 1.389 . S
C1285 C1284 1.443 . S
C1285 C1286 1.340 . S
C1285 H1317 0.951 . S
C1286 C1285 1.340 . S
C1286 C1287 1.439 . S
C1286 H1318 0.950 . S
C1287 N1283 1.374 . S
C1287 C1286 1.439 . S
C1287 C1312 1.395 . S
N1288 Co1277 1.995 . S
N1288 C1289 1.376 . S
N1288 C1292 1.383 . S
C1289 N1288 1.376 . S
C1289 C1290 1.446 . S
C1289 C1312 1.391 . S
C1290 C1289 1.446 . S
C1290 C1291 1.339 . S
C1290 H1319 0.949 . S
C1291 C1290 1.339 . S
C1291 C1292 1.439 . S
C1291 H1320 0.950 . S
C1292 N1288 1.383 . S
C1292 C1291 1.439 . S
C1292 C1310 1.392 . S
N1293 Co1277 2.282 . S
N1293 C1296 1.332 . S
N1293 C1298 1.332 . S
C1294 C1295 1.386 . S
C1294 C1297 1.388 . S
C1295 C1294 1.386 . S
C1295 C1296 1.382 . S
C1295 H1321 0.950 . S
C1296 N1293 1.332 . S
C1296 C1295 1.382 . S
C1296 H1307 0.952 . S
C1297 C1294 1.388 . S
C1297 C1298 1.382 . S
C1297 H1322 0.950 . S
C1298 N1293 1.332 . S
C1298 C1297 1.382 . S
C1298 H1308 0.948 . S
N1299 Co1277 2.282 . S
N1299 C1303 1.332 . S
N1299 C1304 1.332 . S
C1300 C1301 1.388 . S
C1300 C1304 1.382 . S
C1300 H1323 0.950 . S
C1301 C1300 1.388 . S
C1301 C1302 1.386 . S
C1302 C1301 1.386 . S
C1302 C1303 1.382 . S
C1302 H1324 0.950 . S
C1303 N1299 1.332 . S
C1303 C1302 1.382 . S
C1303 H1305 0.952 . S
C1304 N1299 1.332 . S
C1304 C1300 1.382 . S
C1304 H1306 0.948 . S
H1305 C1303 0.952 . S
H1306 C1304 0.948 . S
H1307 C1296 0.952 . S
H1308 C1298 0.948 . S
C1309 C1275 1.395 . S
C1309 C1279 1.391 . S
C1310 C1272 1.389 . S
C1310 C1292 1.392 . S
C1311 C1282 1.392 . S
C1311 C1284 1.389 . S
C1312 C1287 1.395 . S
C1312 C1289 1.391 . S
H1313 C1273 0.951 . S
H1314 C1274 0.950 . S
H1315 C1280 0.949 . S
H1316 C1281 0.950 . S
H1317 C1285 0.951 . S
H1318 C1286 0.950 . S
H1319 C1290 0.949 . S
H1320 C1291 0.950 . S
H1321 C1295 0.950 . S
H1322 C1297 0.950 . S
H1323 C1300 0.950 . S
H1324 C1302 0.950 . S
C1325 C1326 1.443 . S
C1325 N1329 1.376 . S
C1325 C1363 1.389 . S
C1326 C1325 1.443 . S
C1326 C1327 1.340 . S
C1326 H1366 0.951 . S
C1327 C1326 1.340 . S
C1327 C1328 1.439 . S
C1327 H1367 0.950 . S
C1328 C1327 1.439 . S
C1328 N1329 1.374 . S
C1328 C1362 1.395 . S
N1329 C1325 1.376 . S
N1329 C1328 1.374 . S
N1329 Co1330 2.008 . S
Co1330 N1329 2.008 . S
Co1330 N1331 1.995 . S
Co1330 N1336 2.008 . S
Co1330 N1341 1.995 . S
Co1330 N1346 2.282 . S
Co1330 N1352 2.282 . S
N1331 Co1330 1.995 . S
N1331 C1332 1.376 . S
N1331 C1335 1.383 . S
C1332 N1331 1.376 . S
C1332 C1333 1.446 . S
C1332 C1362 1.391 . S
C1333 C1332 1.446 . S
C1333 C1334 1.339 . S
C1333 H1368 0.949 . S
C1334 C1333 1.339 . S
C1334 C1335 1.439 . S
C1334 H1369 0.950 . S
C1335 N1331 1.383 . S
C1335 C1334 1.439 . S
C1335 C1364 1.392 . S
N1336 Co1330 2.008 . S
N1336 C1337 1.376 . S
N1336 C1340 1.374 . S
C1337 N1336 1.376 . S
C1337 C1338 1.443 . S
C1337 C1364 1.389 . S
C1338 C1337 1.443 . S
C1338 C1339 1.340 . S
C1338 H1370 0.951 . S
C1339 C1338 1.340 . S
C1339 C1340 1.439 . S
C1339 H1371 0.950 . S
C1340 N1336 1.374 . S
C1340 C1339 1.439 . S
C1340 C1365 1.395 . S
N1341 Co1330 1.995 . S
N1341 C1342 1.376 . S
N1341 C1345 1.383 . S
C1342 N1341 1.376 . S
C1342 C1343 1.446 . S
C1342 C1365 1.391 . S
C1343 C1342 1.446 . S
C1343 C1344 1.339 . S
C1343 H1372 0.949 . S
C1344 C1343 1.339 . S
C1344 C1345 1.439 . S
C1344 H1373 0.950 . S
C1345 N1341 1.383 . S
C1345 C1344 1.439 . S
C1345 C1363 1.392 . S
N1346 Co1330 2.282 . S
N1346 C1349 1.332 . S
N1346 C1351 1.332 . S
C1347 C1348 1.386 . S
C1347 C1350 1.388 . S
C1348 C1347 1.386 . S
C1348 C1349 1.382 . S
C1348 H1374 0.950 . S
C1349 N1346 1.332 . S
C1349 C1348 1.382 . S
C1349 H1360 0.952 . S
C1350 C1347 1.388 . S
C1350 C1351 1.382 . S
C1350 H1375 0.950 . S
C1351 N1346 1.332 . S
C1351 C1350 1.382 . S
C1351 H1361 0.948 . S
N1352 Co1330 2.282 . S
N1352 C1356 1.332 . S
N1352 C1357 1.332 . S
C1353 C1354 1.388 . S
C1353 C1357 1.382 . S
C1353 H1376 0.950 . S
C1354 C1353 1.388 . S
C1354 C1355 1.386 . S
C1355 C1354 1.386 . S
C1355 C1356 1.382 . S
C1355 H1377 0.950 . S
C1356 N1352 1.332 . S
C1356 C1355 1.382 . S
C1356 H1358 0.952 . S
C1357 N1352 1.332 . S
C1357 C1353 1.382 . S
C1357 H1359 0.948 . S
H1358 C1356 0.952 . S
H1359 C1357 0.948 . S
H1360 C1349 0.952 . S
H1361 C1351 0.948 . S
C1362 C1328 1.395 . S
C1362 C1332 1.391 . S
C1363 C1325 1.389 . S
C1363 C1345 1.392 . S
C1364 C1335 1.392 . S
C1364 C1337 1.389 . S
C1365 C1340 1.395 . S
C1365 C1342 1.391 . S
H1366 C1326 0.951 . S
H1367 C1327 0.950 . S
H1368 C1333 0.949 . S
H1369 C1334 0.950 . S
H1370 C1338 0.951 . S
H1371 C1339 0.950 . S
H1372 C1343 0.949 . S
H1373 C1344 0.950 . S
H1374 C1348 0.950 . S
H1375 C1350 0.950 . S
H1376 C1353 0.950 . S
H1377 C1355 0.950 . S
C1378 C1379 1.443 . S
C1378 N1382 1.376 1_554 S
C1378 C1416 1.389 . S
C1379 C1378 1.443 . S
C1379 C1380 1.340 . S
C1379 H1419 0.951 . S
C1380 C1379 1.340 . S
C1380 C1381 1.439 1_554 S
C1380 H1420 0.950 . S
C1381 C1380 1.439 1_556 S
C1381 N1382 1.374 . S
C1381 C1415 1.395 . S
N1382 C1378 1.376 1_556 S
N1382 C1381 1.374 . S
N1382 Co1383 2.008 . S
Co1383 N1382 2.008 . S
Co1383 N1384 1.995 . S
Co1383 N1389 2.008 1_455 S
Co1383 N1394 1.995 1_455 S
Co1383 N1399 2.282 . S
Co1383 N1405 2.282 1_455 S
N1384 Co1383 1.995 . S
N1384 C1385 1.376 . S
N1384 C1388 1.383 . S
C1385 N1384 1.376 . S
C1385 C1386 1.446 . S
C1385 C1415 1.391 . S
C1386 C1385 1.446 . S
C1386 C1387 1.339 . S
C1386 H1421 0.949 . S
C1387 C1386 1.339 . S
C1387 C1388 1.439 . S
C1387 H1422 0.950 . S
C1388 N1384 1.383 . S
C1388 C1387 1.439 . S
C1388 C1417 1.392 . S
N1389 Co1383 2.008 1_655 S
N1389 C1390 1.376 . S
N1389 C1393 1.374 . S
C1390 N1389 1.376 . S
C1390 C1391 1.443 . S
C1390 C1417 1.389 1_655 S
C1391 C1390 1.443 . S
C1391 C1392 1.340 . S
C1391 H1423 0.951 . S
C1392 C1391 1.340 . S
C1392 C1393 1.439 . S
C1392 H1424 0.950 . S
C1393 N1389 1.374 . S
C1393 C1392 1.439 . S
C1393 C1418 1.395 . S
N1394 Co1383 1.995 1_655 S
N1394 C1395 1.376 . S
N1394 C1398 1.383 1_556 S
C1395 N1394 1.376 . S
C1395 C1396 1.446 1_556 S
C1395 C1418 1.391 . S
C1396 C1395 1.446 1_554 S
C1396 C1397 1.339 . S
C1396 H1425 0.949 . S
C1397 C1396 1.339 . S
C1397 C1398 1.439 . S
C1397 H1426 0.950 . S
C1398 N1394 1.383 1_554 S
C1398 C1397 1.439 . S
C1398 C1416 1.392 1_655 S
N1399 Co1383 2.282 . S
N1399 C1402 1.332 . S
N1399 C1404 1.332 . S
C1400 C1401 1.386 . S
C1400 C1403 1.388 . S
C1401 C1400 1.386 . S
C1401 C1402 1.382 . S
C1401 H1427 0.950 . S
C1402 N1399 1.332 . S
C1402 C1401 1.382 . S
C1402 H1413 0.952 . S
C1403 C1400 1.388 . S
C1403 C1404 1.382 . S
C1403 H1428 0.950 . S
C1404 N1399 1.332 . S
C1404 C1403 1.382 . S
C1404 H1414 0.948 . S
N1405 Co1383 2.282 1_655 S
N1405 C1409 1.332 1_655 S
N1405 C1410 1.332 . S
C1406 C1407 1.388 . S
C1406 C1410 1.382 . S
C1406 H1429 0.950 . S
C1407 C1406 1.388 . S
C1407 C1408 1.336 1_655 S
C1408 C1407 1.336 1_455 S
C1408 C1409 1.401 . S
C1408 H1430 0.982 . S
C1409 N1405 1.332 1_455 S
C1409 C1408 1.401 . S
C1409 H1411 0.952 . S
C1410 N1405 1.332 . S
C1410 C1406 1.382 . S
C1410 H1412 0.948 . S
H1411 C1409 0.952 . S
H1412 C1410 0.948 . S
H1413 C1402 0.952 . S
H1414 C1404 0.948 . S
C1415 C1381 1.395 . S
C1415 C1385 1.391 . S
C1416 C1378 1.389 . S
C1416 C1398 1.392 1_455 S
C1417 C1388 1.392 . S
C1417 C1390 1.389 1_455 S
C1418 C1393 1.395 . S
C1418 C1395 1.391 . S
H1419 C1379 0.951 . S
H1420 C1380 0.950 . S
H1421 C1386 0.949 . S
H1422 C1387 0.950 . S
H1423 C1391 0.951 . S
H1424 C1392 0.950 . S
H1425 C1396 0.949 . S
H1426 C1397 0.950 . S
H1427 C1401 0.950 . S
H1428 C1403 0.950 . S
H1429 C1406 0.950 . S
H1430 C1408 0.982 . S
C1431 C1432 1.443 . S
C1431 N1435 1.376 . S
C1431 C1469 1.389 . S
C1432 C1431 1.443 . S
C1432 C1433 1.340 . S
C1432 H1472 0.951 . S
C1433 C1432 1.340 . S
C1433 C1434 1.439 . S
C1433 H1473 0.950 . S
C1434 C1433 1.439 . S
C1434 N1435 1.374 . S
C1434 C1468 1.395 . S
N1435 C1431 1.376 . S
N1435 C1434 1.374 . S
N1435 Co1436 2.008 . S
Co1436 N1435 2.008 . S
Co1436 N1437 1.995 . S
Co1436 N1442 2.008 . S
Co1436 N1447 1.995 . S
Co1436 N1452 2.282 . S
Co1436 N1458 2.282 . S
N1437 Co1436 1.995 . S
N1437 C1438 1.376 . S
N1437 C1441 1.383 . S
C1438 N1437 1.376 . S
C1438 C1439 1.446 . S
C1438 C1468 1.391 . S
C1439 C1438 1.446 . S
C1439 C1440 1.339 . S
C1439 H1474 0.949 . S
C1440 C1439 1.339 . S
C1440 C1441 1.439 . S
C1440 H1475 0.950 . S
C1441 N1437 1.383 . S
C1441 C1440 1.439 . S
C1441 C1470 1.392 . S
N1442 Co1436 2.008 . S
N1442 C1443 1.376 . S
N1442 C1446 1.374 . S
C1443 N1442 1.376 . S
C1443 C1444 1.443 . S
C1443 C1470 1.389 . S
C1444 C1443 1.443 . S
C1444 C1445 1.340 . S
C1444 H1476 0.951 . S
C1445 C1444 1.340 . S
C1445 C1446 1.439 . S
C1445 H1477 0.950 . S
C1446 N1442 1.374 . S
C1446 C1445 1.439 . S
C1446 C1471 1.395 . S
N1447 Co1436 1.995 . S
N1447 C1448 1.376 . S
N1447 C1451 1.383 . S
C1448 N1447 1.376 . S
C1448 C1449 1.446 . S
C1448 C1471 1.391 . S
C1449 C1448 1.446 . S
C1449 C1450 1.339 . S
C1449 H1478 0.949 . S
C1450 C1449 1.339 . S
C1450 C1451 1.439 . S
C1450 H1479 0.950 . S
C1451 N1447 1.383 . S
C1451 C1450 1.439 . S
C1451 C1469 1.392 . S
N1452 Co1436 2.282 . S
N1452 C1455 1.332 . S
N1452 C1457 1.332 . S
C1453 C1454 1.386 . S
C1453 C1456 1.388 . S
C1454 C1453 1.386 . S
C1454 C1455 1.382 . S
C1454 H1480 0.950 . S
C1455 N1452 1.332 . S
C1455 C1454 1.382 . S
C1455 H1466 0.952 . S
C1456 C1453 1.388 . S
C1456 C1457 1.382 . S
C1456 H1481 0.950 . S
C1457 N1452 1.332 . S
C1457 C1456 1.382 . S
C1457 H1467 0.948 . S
N1458 Co1436 2.282 . S
N1458 C1462 1.332 . S
N1458 C1463 1.332 . S
C1459 C1460 1.388 . S
C1459 C1463 1.382 . S
C1459 H1482 0.950 . S
C1460 C1459 1.388 . S
C1460 C1461 1.386 . S
C1461 C1460 1.386 . S
C1461 C1462 1.382 . S
C1461 H1483 0.950 . S
C1462 N1458 1.332 . S
C1462 C1461 1.382 . S
C1462 H1464 0.952 . S
C1463 N1458 1.332 . S
C1463 C1459 1.382 . S
C1463 H1465 0.948 . S
H1464 C1462 0.952 . S
H1465 C1463 0.948 . S
H1466 C1455 0.952 . S
H1467 C1457 0.948 . S
C1468 C1434 1.395 . S
C1468 C1438 1.391 . S
C1469 C1431 1.389 . S
C1469 C1451 1.392 . S
C1470 C1441 1.392 . S
C1470 C1443 1.389 . S
C1471 C1446 1.395 . S
C1471 C1448 1.391 . S
H1472 C1432 0.951 . S
H1473 C1433 0.950 . S
H1474 C1439 0.949 . S
H1475 C1440 0.950 . S
H1476 C1444 0.951 . S
H1477 C1445 0.950 . S
H1478 C1449 0.949 . S
H1479 C1450 0.950 . S
H1480 C1454 0.950 . S
H1481 C1456 0.950 . S
H1482 C1459 0.950 . S
H1483 C1461 0.950 . S
C1484 C1485 1.443 . S
C1484 N1488 1.376 1_556 S
C1484 C1522 1.389 . S
C1485 C1484 1.443 . S
C1485 C1486 1.340 . S
C1485 H1525 0.951 . S
C1486 C1485 1.340 . S
C1486 C1487 1.439 1_556 S
C1486 H1526 0.950 . S
C1487 C1486 1.439 1_554 S
C1487 N1488 1.374 . S
C1487 C1521 1.395 . S
N1488 C1484 1.376 1_554 S
N1488 C1487 1.374 . S
N1488 Co1489 2.008 . S
Co1489 N1488 2.008 . S
Co1489 N1490 1.995 . S
Co1489 N1495 2.008 . S
Co1489 N1500 1.995 . S
Co1489 N1505 2.282 . S
Co1489 N1511 2.282 . S
N1490 Co1489 1.995 . S
N1490 C1491 1.376 . S
N1490 C1494 1.383 . S
C1491 N1490 1.376 . S
C1491 C1492 1.446 . S
C1491 C1521 1.391 . S
C1492 C1491 1.446 . S
C1492 C1493 1.339 . S
C1492 H1527 0.949 . S
C1493 C1492 1.339 . S
C1493 C1494 1.439 . S
C1493 H1528 0.950 . S
C1494 N1490 1.383 . S
C1494 C1493 1.439 . S
C1494 C1523 1.392 . S
N1495 Co1489 2.008 . S
N1495 C1496 1.376 . S
N1495 C1499 1.374 . S
C1496 N1495 1.376 . S
C1496 C1497 1.443 . S
C1496 C1523 1.389 . S
C1497 C1496 1.443 . S
C1497 C1498 1.340 . S
C1497 H1529 0.951 . S
C1498 C1497 1.340 . S
C1498 C1499 1.439 . S
C1498 H1530 0.950 . S
C1499 N1495 1.374 . S
C1499 C1498 1.439 . S
C1499 C1524 1.395 . S
N1500 Co1489 1.995 . S
N1500 C1501 1.376 . S
N1500 C1504 1.383 1_554 S
C1501 N1500 1.376 . S
C1501 C1502 1.446 1_554 S
C1501 C1524 1.391 . S
C1502 C1501 1.446 1_556 S
C1502 C1503 1.339 . S
C1502 H1531 0.949 . S
C1503 C1502 1.339 . S
C1503 C1504 1.439 . S
C1503 H1532 0.950 . S
C1504 N1500 1.383 1_556 S
C1504 C1503 1.439 . S
C1504 C1522 1.392 . S
N1505 Co1489 2.282 . S
N1505 C1508 1.332 . S
N1505 C1510 1.332 . S
C1506 C1507 1.386 . S
C1506 C1509 1.388 . S
C1507 C1506 1.386 . S
C1507 C1508 1.382 . S
C1507 H1533 0.950 . S
C1508 N1505 1.332 . S
C1508 C1507 1.382 . S
C1508 H1519 0.952 . S
C1509 C1506 1.388 . S
C1509 C1510 1.382 . S
C1509 H1534 0.950 . S
C1510 N1505 1.332 . S
C1510 C1509 1.382 . S
C1510 H1520 0.948 . S
N1511 Co1489 2.282 . S
N1511 C1515 1.332 . S
N1511 C1516 1.332 . S
C1512 C1513 1.388 . S
C1512 C1516 1.382 . S
C1512 H1535 0.950 . S
C1513 C1512 1.388 . S
C1513 C1514 1.386 . S
C1514 C1513 1.386 . S
C1514 C1515 1.382 . S
C1514 H1536 0.950 . S
C1515 N1511 1.332 . S
C1515 C1514 1.382 . S
C1515 H1517 0.952 . S
C1516 N1511 1.332 . S
C1516 C1512 1.382 . S
C1516 H1518 0.948 . S
H1517 C1515 0.952 . S
H1518 C1516 0.948 . S
H1519 C1508 0.952 . S
H1520 C1510 0.948 . S
C1521 C1487 1.395 . S
C1521 C1491 1.391 . S
C1522 C1484 1.389 . S
C1522 C1504 1.392 . S
C1523 C1494 1.392 . S
C1523 C1496 1.389 . S
C1524 C1499 1.395 . S
C1524 C1501 1.391 . S
H1525 C1485 0.951 . S
H1526 C1486 0.950 . S
H1527 C1492 0.949 . S
H1528 C1493 0.950 . S
H1529 C1497 0.951 . S
H1530 C1498 0.950 . S
H1531 C1502 0.949 . S
H1532 C1503 0.950 . S
H1533 C1507 0.950 . S
H1534 C1509 0.950 . S
H1535 C1512 0.950 . S
H1536 C1514 0.950 . S
C1537 C1538 1.443 . S
C1537 N1541 1.376 . S
C1537 C1575 1.389 . S
C1538 C1537 1.443 . S
C1538 C1539 1.340 . S
C1538 H1578 0.951 . S
C1539 C1538 1.340 . S
C1539 C1540 1.439 . S
C1539 H1579 0.950 . S
C1540 C1539 1.439 . S
C1540 N1541 1.374 . S
C1540 C1574 1.395 . S
N1541 C1537 1.376 . S
N1541 C1540 1.374 . S
N1541 Co1542 2.008 . S
Co1542 N1541 2.008 . S
Co1542 N1543 1.995 . S
Co1542 N1548 2.008 . S
Co1542 N1553 1.995 . S
Co1542 N1558 2.282 . S
Co1542 N1564 2.282 . S
N1543 Co1542 1.995 . S
N1543 C1544 1.376 . S
N1543 C1547 1.383 . S
C1544 N1543 1.376 . S
C1544 C1545 1.446 . S
C1544 C1574 1.391 . S
C1545 C1544 1.446 . S
C1545 C1546 1.339 . S
C1545 H1580 0.949 . S
C1546 C1545 1.339 . S
C1546 C1547 1.439 . S
C1546 H1581 0.950 . S
C1547 N1543 1.383 . S
C1547 C1546 1.439 . S
C1547 C1576 1.392 . S
N1548 Co1542 2.008 . S
N1548 C1549 1.376 . S
N1548 C1552 1.374 . S
C1549 N1548 1.376 . S
C1549 C1550 1.443 . S
C1549 C1576 1.389 . S
C1550 C1549 1.443 . S
C1550 C1551 1.340 . S
C1550 H1582 0.951 . S
C1551 C1550 1.340 . S
C1551 C1552 1.439 . S
C1551 H1583 0.950 . S
C1552 N1548 1.374 . S
C1552 C1551 1.439 . S
C1552 C1577 1.395 . S
N1553 Co1542 1.995 . S
N1553 C1554 1.376 . S
N1553 C1557 1.383 . S
C1554 N1553 1.376 . S
C1554 C1555 1.446 . S
C1554 C1577 1.391 . S
C1555 C1554 1.446 . S
C1555 C1556 1.339 . S
C1555 H1584 0.949 . S
C1556 C1555 1.339 . S
C1556 C1557 1.439 . S
C1556 H1585 0.950 . S
C1557 N1553 1.383 . S
C1557 C1556 1.439 . S
C1557 C1575 1.392 . S
N1558 Co1542 2.282 . S
N1558 C1561 1.332 . S
N1558 C1563 1.332 . S
C1559 C1560 1.386 . S
C1559 C1562 1.388 . S
C1560 C1559 1.386 . S
C1560 C1561 1.382 . S
C1560 H1586 0.950 . S
C1561 N1558 1.332 . S
C1561 C1560 1.382 . S
C1561 H1572 0.952 . S
C1562 C1559 1.388 . S
C1562 C1563 1.382 . S
C1562 H1587 0.950 . S
C1563 N1558 1.332 . S
C1563 C1562 1.382 . S
C1563 H1573 0.948 . S
N1564 Co1542 2.282 . S
N1564 C1568 1.332 . S
N1564 C1569 1.332 . S
C1565 C1566 1.388 . S
C1565 C1569 1.382 . S
C1565 H1588 0.950 . S
C1566 C1565 1.388 . S
C1566 C1567 1.386 . S
C1567 C1566 1.386 . S
C1567 C1568 1.382 . S
C1567 H1589 0.950 . S
C1568 N1564 1.332 . S
C1568 C1567 1.382 . S
C1568 H1570 0.952 . S
C1569 N1564 1.332 . S
C1569 C1565 1.382 . S
C1569 H1571 0.948 . S
H1570 C1568 0.952 . S
H1571 C1569 0.948 . S
H1572 C1561 0.952 . S
H1573 C1563 0.948 . S
C1574 C1540 1.395 . S
C1574 C1544 1.391 . S
C1575 C1537 1.389 . S
C1575 C1557 1.392 . S
C1576 C1547 1.392 . S
C1576 C1549 1.389 . S
C1577 C1552 1.395 . S
C1577 C1554 1.391 . S
H1578 C1538 0.951 . S
H1579 C1539 0.950 . S
H1580 C1545 0.949 . S
H1581 C1546 0.950 . S
H1582 C1550 0.951 . S
H1583 C1551 0.950 . S
H1584 C1555 0.949 . S
H1585 C1556 0.950 . S
H1586 C1560 0.950 . S
H1587 C1562 0.950 . S
H1588 C1565 0.950 . S
H1589 C1567 0.950 . S
C1590 C1591 1.443 . S
C1590 N1594 1.376 . S
C1590 C1628 1.389 . S
C1591 C1590 1.443 . S
C1591 C1592 1.340 . S
C1591 H1631 0.951 . S
C1592 C1591 1.340 . S
C1592 C1593 1.439 . S
C1592 H1632 0.950 . S
C1593 C1592 1.439 . S
C1593 N1594 1.374 . S
C1593 C1627 1.395 . S
N1594 C1590 1.376 . S
N1594 C1593 1.374 . S
N1594 Co1595 2.008 . S
Co1595 N1594 2.008 . S
Co1595 N1596 1.995 . S
Co1595 N1601 2.008 1_455 S
Co1595 N1606 1.995 1_455 S
Co1595 N1611 2.282 . S
Co1595 N1617 2.282 1_455 S
N1596 Co1595 1.995 . S
N1596 C1597 1.376 . S
N1596 C1600 1.383 . S
C1597 N1596 1.376 . S
C1597 C1598 1.446 . S
C1597 C1627 1.391 . S
C1598 C1597 1.446 . S
C1598 C1599 1.339 . S
C1598 H1633 0.949 . S
C1599 C1598 1.339 . S
C1599 C1600 1.439 . S
C1599 H1634 0.950 . S
C1600 N1596 1.383 . S
C1600 C1599 1.439 . S
C1600 C1629 1.392 . S
N1601 Co1595 2.008 1_655 S
N1601 C1602 1.376 . S
N1601 C1605 1.374 . S
C1602 N1601 1.376 . S
C1602 C1603 1.443 . S
C1602 C1629 1.389 1_655 S
C1603 C1602 1.443 . S
C1603 C1604 1.340 . S
C1603 H1635 0.951 . S
C1604 C1603 1.340 . S
C1604 C1605 1.439 . S
C1604 H1636 0.950 . S
C1605 N1601 1.374 . S
C1605 C1604 1.439 . S
C1605 C1630 1.395 . S
N1606 Co1595 1.995 1_655 S
N1606 C1607 1.376 . S
N1606 C1610 1.383 . S
C1607 N1606 1.376 . S
C1607 C1608 1.446 . S
C1607 C1630 1.391 . S
C1608 C1607 1.446 . S
C1608 C1609 1.339 . S
C1608 H1637 0.949 . S
C1609 C1608 1.339 . S
C1609 C1610 1.439 . S
C1609 H1638 0.950 . S
C1610 N1606 1.383 . S
C1610 C1609 1.439 . S
C1610 C1628 1.392 1_655 S
N1611 Co1595 2.282 . S
N1611 C1614 1.332 . S
N1611 C1616 1.332 . S
C1612 C1613 1.386 . S
C1612 C1615 1.388 . S
C1613 C1612 1.386 . S
C1613 C1614 1.382 . S
C1613 H1639 0.950 . S
C1614 N1611 1.332 . S
C1614 C1613 1.382 . S
C1614 H1625 0.952 . S
C1615 C1612 1.388 . S
C1615 C1616 1.382 . S
C1615 H1640 0.950 . S
C1616 N1611 1.332 . S
C1616 C1615 1.382 . S
C1616 H1626 0.948 . S
N1617 Co1595 2.282 1_655 S
N1617 C1621 1.332 1_655 S
N1617 C1622 1.332 . S
C1618 C1619 1.388 . S
C1618 C1622 1.382 . S
C1618 H1641 0.950 . S
C1619 C1618 1.388 . S
C1619 C1620 1.336 1_655 S
C1620 C1619 1.336 1_455 S
C1620 C1621 1.401 . S
C1620 H1642 0.982 . S
C1621 N1617 1.332 1_455 S
C1621 C1620 1.401 . S
C1621 H1623 0.952 . S
C1622 N1617 1.332 . S
C1622 C1618 1.382 . S
C1622 H1624 0.948 . S
H1623 C1621 0.952 . S
H1624 C1622 0.948 . S
H1625 C1614 0.952 . S
H1626 C1616 0.948 . S
C1627 C1593 1.395 . S
C1627 C1597 1.391 . S
C1628 C1590 1.389 . S
C1628 C1610 1.392 1_455 S
C1629 C1600 1.392 . S
C1629 C1602 1.389 1_455 S
C1630 C1605 1.395 . S
C1630 C1607 1.391 . S
H1631 C1591 0.951 . S
H1632 C1592 0.950 . S
H1633 C1598 0.949 . S
H1634 C1599 0.950 . S
H1635 C1603 0.951 . S
H1636 C1604 0.950 . S
H1637 C1608 0.949 . S
H1638 C1609 0.950 . S
H1639 C1613 0.950 . S
H1640 C1615 0.950 . S
H1641 C1618 0.950 . S
H1642 C1620 0.982 . S
C1643 C1644 1.443 . S
C1643 N1647 1.376 . S
C1643 C1681 1.389 . S
C1644 C1643 1.443 . S
C1644 C1645 1.340 . S
C1644 H1684 0.951 . S
C1645 C1644 1.340 . S
C1645 C1646 1.439 . S
C1645 H1685 0.950 . S
C1646 C1645 1.439 . S
C1646 N1647 1.374 . S
C1646 C1680 1.395 . S
N1647 C1643 1.376 . S
N1647 C1646 1.374 . S
N1647 Co1648 2.008 . S
Co1648 N1647 2.008 . S
Co1648 N1649 1.995 . S
Co1648 N1654 2.008 . S
Co1648 N1659 1.995 . S
Co1648 N1664 2.282 . S
Co1648 N1670 2.282 . S
N1649 Co1648 1.995 . S
N1649 C1650 1.376 . S
N1649 C1653 1.383 . S
C1650 N1649 1.376 . S
C1650 C1651 1.446 . S
C1650 C1680 1.391 . S
C1651 C1650 1.446 . S
C1651 C1652 1.339 . S
C1651 H1686 0.949 . S
C1652 C1651 1.339 . S
C1652 C1653 1.439 . S
C1652 H1687 0.950 . S
C1653 N1649 1.383 . S
C1653 C1652 1.439 . S
C1653 C1682 1.392 . S
N1654 Co1648 2.008 . S
N1654 C1655 1.376 . S
N1654 C1658 1.374 . S
C1655 N1654 1.376 . S
C1655 C1656 1.443 . S
C1655 C1682 1.389 . S
C1656 C1655 1.443 . S
C1656 C1657 1.340 . S
C1656 H1688 0.951 . S
C1657 C1656 1.340 . S
C1657 C1658 1.439 . S
C1657 H1689 0.950 . S
C1658 N1654 1.374 . S
C1658 C1657 1.439 . S
C1658 C1683 1.395 . S
N1659 Co1648 1.995 . S
N1659 C1660 1.376 . S
N1659 C1663 1.383 . S
C1660 N1659 1.376 . S
C1660 C1661 1.446 . S
C1660 C1683 1.391 . S
C1661 C1660 1.446 . S
C1661 C1662 1.339 . S
C1661 H1690 0.949 . S
C1662 C1661 1.339 . S
C1662 C1663 1.439 . S
C1662 H1691 0.950 . S
C1663 N1659 1.383 . S
C1663 C1662 1.439 . S
C1663 C1681 1.392 . S
N1664 Co1648 2.282 . S
N1664 C1667 1.332 . S
N1664 C1669 1.332 . S
C1665 C1666 1.386 . S
C1665 C1668 1.388 . S
C1666 C1665 1.386 . S
C1666 C1667 1.382 . S
C1666 H1692 0.950 . S
C1667 N1664 1.332 . S
C1667 C1666 1.382 . S
C1667 H1678 0.952 . S
C1668 C1665 1.388 . S
C1668 C1669 1.382 . S
C1668 H1693 0.950 . S
C1669 N1664 1.332 . S
C1669 C1668 1.382 . S
C1669 H1679 0.948 . S
N1670 Co1648 2.282 . S
N1670 C1674 1.332 . S
N1670 C1675 1.332 . S
C1671 C1672 1.388 . S
C1671 C1675 1.382 . S
C1671 H1694 0.950 . S
C1672 C1671 1.388 . S
C1672 C1673 1.386 . S
C1673 C1672 1.386 . S
C1673 C1674 1.382 . S
C1673 H1695 0.950 . S
C1674 N1670 1.332 . S
C1674 C1673 1.382 . S
C1674 H1676 0.952 . S
C1675 N1670 1.332 . S
C1675 C1671 1.382 . S
C1675 H1677 0.948 . S
H1676 C1674 0.952 . S
H1677 C1675 0.948 . S
H1678 C1667 0.952 . S
H1679 C1669 0.948 . S
C1680 C1646 1.395 . S
C1680 C1650 1.391 . S
C1681 C1643 1.389 . S
C1681 C1663 1.392 . S
C1682 C1653 1.392 . S
C1682 C1655 1.389 . S
C1683 C1658 1.395 . S
C1683 C1660 1.391 . S
H1684 C1644 0.951 . S
H1685 C1645 0.950 . S
H1686 C1651 0.949 . S
H1687 C1652 0.950 . S
H1688 C1656 0.951 . S
H1689 C1657 0.950 . S
H1690 C1661 0.949 . S
H1691 C1662 0.950 . S
H1692 C1666 0.950 . S
H1693 C1668 0.950 . S
H1694 C1671 0.950 . S
H1695 C1673 0.950 . S
H1696 C1702 0.930 . S
H1697 C1705 0.930 . S
H1698 C1706 0.930 . S
H1699 C1707 0.930 . S
H1700 C1710 0.930 . S
H1701 C1711 0.930 . S
C1702 H1696 0.930 . S
C1702 C1703 1.355 1_455 S
C1702 C1704 1.415 . S
C1703 C1702 1.355 1_655 S
C1703 C1705 1.419 . S
C1704 C1702 1.415 . S
C1704 C1709 1.425 1_455 S
C1704 C1711 1.409 . S
C1705 H1697 0.930 . S
C1705 C1703 1.419 . S
C1705 C1706 1.362 . S
C1706 H1698 0.930 . S
C1706 C1705 1.362 . S
C1706 C1709 1.409 . S
C1707 H1699 0.930 . S
C1707 C1708 1.355 1_655 S
C1707 C1709 1.415 . S
C1708 C1707 1.355 1_455 S
C1708 C1710 1.419 . S
C1709 C1704 1.425 1_655 S
C1709 C1706 1.409 . S
C1709 C1707 1.415 . S
C1710 H1700 0.930 . S
C1710 C1708 1.419 . S
C1710 C1711 1.362 . S
C1711 H1701 0.930 . S
C1711 C1704 1.409 . S
C1711 C1710 1.362 . S
H1712 C1718 0.930 . S
H1713 C1721 0.930 . S
H1714 C1722 0.930 . S
H1715 C1723 0.930 . S
H1716 C1726 0.930 . S
H1717 C1727 0.930 . S
C1718 H1712 0.930 . S
C1718 C1719 1.355 1_554 S
C1718 C1720 1.415 . S
C1719 C1718 1.355 1_556 S
C1719 C1721 1.419 . S
C1720 C1718 1.415 . S
C1720 C1725 1.425 . S
C1720 C1727 1.409 . S
C1721 H1713 0.930 . S
C1721 C1719 1.419 . S
C1721 C1722 1.362 1_556 S
C1722 H1714 0.930 . S
C1722 C1721 1.362 1_554 S
C1722 C1725 1.409 . S
C1723 H1715 0.930 . S
C1723 C1724 1.355 . S
C1723 C1725 1.415 . S
C1724 C1723 1.355 . S
C1724 C1726 1.419 . S
C1725 C1720 1.425 . S
C1725 C1722 1.409 . S
C1725 C1723 1.415 . S
C1726 H1716 0.930 . S
C1726 C1724 1.419 . S
C1726 C1727 1.362 . S
C1727 H1717 0.930 . S
C1727 C1720 1.409 . S
C1727 C1726 1.362 . S
H1728 C1734 0.930 . S
H1729 C1737 0.930 . S
H1730 C1738 0.930 . S
H1731 C1739 0.930 . S
H1732 C1742 0.930 . S
H1733 C1743 0.930 . S
C1734 H1728 0.930 . S
C1734 C1735 1.355 . S
C1734 C1736 1.415 . S
C1735 C1734 1.355 . S
C1735 C1737 1.419 . S
C1736 C1734 1.415 . S
C1736 C1741 1.425 . S
C1736 C1743 1.409 . S
C1737 H1729 0.930 . S
C1737 C1735 1.419 . S
C1737 C1738 1.362 . S
C1738 H1730 0.930 . S
C1738 C1737 1.362 . S
C1738 C1741 1.409 . S
C1739 H1731 0.930 . S
C1739 C1740 1.355 . S
C1739 C1741 1.415 . S
C1740 C1739 1.355 . S
C1740 C1742 1.419 . S
C1741 C1736 1.425 . S
C1741 C1738 1.409 . S
C1741 C1739 1.415 . S
C1742 H1732 0.930 . S
C1742 C1740 1.419 . S
C1742 C1743 1.362 . S
C1743 H1733 0.930 . S
C1743 C1736 1.409 . S
C1743 C1742 1.362 . S
H1744 C1750 0.930 . S
H1745 C1753 0.930 . S
H1746 C1754 0.930 . S
H1747 C1755 0.930 . S
H1748 C1758 0.930 . S
H1749 C1759 0.930 . S
C1750 H1744 0.930 . S
C1750 C1751 1.355 . S
C1750 C1752 1.415 . S
C1751 C1750 1.355 . S
C1751 C1753 1.419 . S
C1752 C1750 1.415 . S
C1752 C1757 1.425 . S
C1752 C1759 1.409 . S
C1753 H1745 0.930 . S
C1753 C1751 1.419 . S
C1753 C1754 1.362 . S
C1754 H1746 0.930 . S
C1754 C1753 1.362 . S
C1754 C1757 1.409 . S
C1755 H1747 0.930 . S
C1755 C1756 1.355 . S
C1755 C1757 1.415 . S
C1756 C1755 1.355 . S
C1756 C1758 1.419 . S
C1757 C1752 1.425 . S
C1757 C1754 1.409 . S
C1757 C1755 1.415 . S
C1758 H1748 0.930 . S
C1758 C1756 1.419 . S
C1758 C1759 1.362 . S
C1759 H1749 0.930 . S
C1759 C1752 1.409 . S
C1759 C1758 1.362 . S
H1760 C1766 0.930 . S
H1761 C1769 0.930 . S
H1762 C1770 0.930 . S
H1763 C1771 0.930 . S
H1764 C1774 0.930 . S
H1765 C1775 0.930 . S
C1766 H1760 0.930 . S
C1766 C1767 1.355 1_455 S
C1766 C1768 1.415 . S
C1767 C1766 1.355 1_655 S
C1767 C1769 1.419 . S
C1768 C1766 1.415 . S
C1768 C1773 1.425 1_455 S
C1768 C1775 1.409 . S
C1769 H1761 0.930 . S
C1769 C1767 1.419 . S
C1769 C1770 1.362 . S
C1770 H1762 0.930 . S
C1770 C1769 1.362 . S
C1770 C1773 1.409 . S
C1771 H1763 0.930 . S
C1771 C1772 1.355 1_655 S
C1771 C1773 1.415 . S
C1772 C1771 1.355 1_455 S
C1772 C1774 1.419 . S
C1773 C1768 1.425 1_655 S
C1773 C1770 1.409 . S
C1773 C1771 1.415 . S
C1774 H1764 0.930 . S
C1774 C1772 1.419 . S
C1774 C1775 1.362 . S
C1775 H1765 0.930 . S
C1775 C1768 1.409 . S
C1775 C1774 1.362 . S
H1776 C1782 0.930 . S
H1777 C1785 0.930 . S
H1778 C1786 0.930 . S
H1779 C1787 0.930 1_554 S
H1780 C1790 0.930 1_554 S
H1781 C1791 0.930 . S
C1782 H1776 0.930 . S
C1782 C1783 1.355 . S
C1782 C1784 1.415 . S
C1783 C1782 1.355 . S
C1783 C1785 1.419 . S
C1784 C1782 1.415 . S
C1784 C1789 1.425 . S
C1784 C1791 1.409 . S
C1785 H1777 0.930 . S
C1785 C1783 1.419 . S
C1785 C1786 1.362 . S
C1786 H1778 0.930 . S
C1786 C1785 1.362 . S
C1786 C1789 1.409 . S
C1787 H1779 0.930 1_556 S
C1787 C1788 1.355 1_556 S
C1787 C1789 1.415 . S
C1788 C1787 1.355 1_554 S
C1788 C1790 1.419 1_554 S
C1789 C1784 1.425 . S
C1789 C1786 1.409 . S
C1789 C1787 1.415 . S
C1790 H1780 0.930 1_556 S
C1790 C1788 1.419 1_556 S
C1790 C1791 1.362 . S
C1791 H1781 0.930 . S
C1791 C1784 1.409 . S
C1791 C1790 1.362 . S
H1792 C1798 0.930 . S
H1793 C1801 0.930 . S
H1794 C1802 0.930 . S
H1795 C1803 0.930 . S
H1796 C1806 0.930 . S
H1797 C1807 0.930 . S
C1798 H1792 0.930 . S
C1798 C1799 1.355 . S
C1798 C1800 1.415 . S
C1799 C1798 1.355 . S
C1799 C1801 1.419 . S
C1800 C1798 1.415 . S
C1800 C1805 1.425 . S
C1800 C1807 1.409 . S
C1801 H1793 0.930 . S
C1801 C1799 1.419 . S
C1801 C1802 1.362 . S
C1802 H1794 0.930 . S
C1802 C1801 1.362 . S
C1802 C1805 1.409 . S
C1803 H1795 0.930 . S
C1803 C1804 1.355 . S
C1803 C1805 1.415 . S
C1804 C1803 1.355 . S
C1804 C1806 1.419 . S
C1805 C1800 1.425 . S
C1805 C1802 1.409 . S
C1805 C1803 1.415 . S
C1806 H1796 0.930 . S
C1806 C1804 1.419 . S
C1806 C1807 1.362 . S
C1807 H1797 0.930 . S
C1807 C1800 1.409 . S
C1807 C1806 1.362 . S
H1808 C1814 0.930 . S
H1809 C1817 0.930 . S
H1810 C1818 0.930 . S
H1811 C1819 0.930 . S
H1812 C1822 0.930 . S
H1813 C1823 0.930 . S
C1814 H1808 0.930 . S
C1814 C1815 1.355 . S
C1814 C1816 1.415 . S
C1815 C1814 1.355 . S
C1815 C1817 1.419 . S
C1816 C1814 1.415 . S
C1816 C1821 1.425 . S
C1816 C1823 1.409 . S
C1817 H1809 0.930 . S
C1817 C1815 1.419 . S
C1817 C1818 1.362 . S
C1818 H1810 0.930 . S
C1818 C1817 1.362 . S
C1818 C1821 1.409 . S
C1819 H1811 0.930 . S
C1819 C1820 1.355 . S
C1819 C1821 1.415 . S
C1820 C1819 1.355 . S
C1820 C1822 1.419 . S
C1821 C1816 1.425 . S
C1821 C1818 1.409 . S
C1821 C1819 1.415 . S
C1822 H1812 0.930 . S
C1822 C1820 1.419 . S
C1822 C1823 1.362 . S
C1823 H1813 0.930 . S
C1823 C1816 1.409 . S
C1823 C1822 1.362 . S
H1824 C1830 0.930 . S
H1825 C1833 0.930 . S
H1826 C1834 0.930 . S
H1827 C1835 0.930 . S
H1828 C1838 0.930 . S
H1829 C1839 0.930 . S
C1830 H1824 0.930 . S
C1830 C1831 1.355 . S
C1830 C1832 1.415 . S
C1831 C1830 1.355 . S
C1831 C1833 1.419 1_455 S
C1832 C1830 1.415 . S
C1832 C1837 1.425 1_455 S
C1832 C1839 1.409 . S
C1833 H1825 0.930 . S
C1833 C1831 1.419 1_655 S
C1833 C1834 1.362 . S
C1834 H1826 0.930 . S
C1834 C1833 1.362 . S
C1834 C1837 1.409 . S
C1835 H1827 0.930 . S
C1835 C1836 1.355 . S
C1835 C1837 1.415 . S
C1836 C1835 1.355 . S
C1836 C1838 1.419 1_655 S
C1837 C1832 1.425 1_655 S
C1837 C1834 1.409 . S
C1837 C1835 1.415 . S
C1838 H1828 0.930 . S
C1838 C1836 1.419 1_455 S
C1838 C1839 1.362 . S
C1839 H1829 0.930 . S
C1839 C1832 1.409 . S
C1839 C1838 1.362 . S
H1840 C1846 0.930 1_554 S
H1841 C1849 0.929 . S
H1842 C1850 0.930 . S
H1843 C1851 0.930 . S
H1844 C1854 0.930 . S
H1845 C1855 0.930 . S
C1846 H1840 0.930 1_556 S
C1846 C1847 1.355 1_556 S
C1846 C1848 1.415 . S
C1847 C1846 1.355 1_554 S
C1847 C1849 1.419 . S
C1848 C1846 1.415 . S
C1848 C1853 1.425 . S
C1848 C1855 1.409 . S
C1849 H1841 0.929 . S
C1849 C1847 1.419 . S
C1849 C1850 1.363 1_554 S
C1850 H1842 0.930 . S
C1850 C1849 1.363 1_556 S
C1850 C1853 1.409 . S
C1851 H1843 0.930 . S
C1851 C1852 1.355 . S
C1851 C1853 1.415 . S
C1852 C1851 1.355 . S
C1852 C1854 1.419 . S
C1853 C1848 1.425 . S
C1853 C1850 1.409 . S
C1853 C1851 1.415 . S
C1854 H1844 0.930 . S
C1854 C1852 1.419 . S
C1854 C1855 1.362 . S
C1855 H1845 0.930 . S
C1855 C1848 1.409 . S
C1855 C1854 1.362 . S
H1856 C1862 0.930 . S
H1857 C1865 0.930 . S
H1858 C1866 0.930 . S
H1859 C1867 0.930 . S
H1860 C1870 0.930 . S
H1861 C1871 0.930 . S
C1862 H1856 0.930 . S
C1862 C1863 1.355 . S
C1862 C1864 1.415 . S
C1863 C1862 1.355 . S
C1863 C1865 1.419 . S
C1864 C1862 1.415 . S
C1864 C1869 1.425 . S
C1864 C1871 1.409 . S
C1865 H1857 0.930 . S
C1865 C1863 1.419 . S
C1865 C1866 1.362 . S
C1866 H1858 0.930 . S
C1866 C1865 1.362 . S
C1866 C1869 1.409 . S
C1867 H1859 0.930 . S
C1867 C1868 1.355 . S
C1867 C1869 1.415 . S
C1868 C1867 1.355 . S
C1868 C1870 1.419 . S
C1869 C1864 1.425 . S
C1869 C1866 1.409 . S
C1869 C1867 1.415 . S
C1870 H1860 0.930 . S
C1870 C1868 1.419 . S
C1870 C1871 1.362 . S
C1871 H1861 0.930 . S
C1871 C1864 1.409 . S
C1871 C1870 1.362 . S
H1872 C1878 0.930 . S
H1873 C1881 0.930 . S
H1874 C1882 0.930 . S
H1875 C1883 0.930 . S
H1876 C1886 0.930 . S
H1877 C1887 0.930 . S
C1878 H1872 0.930 . S
C1878 C1879 1.355 . S
C1878 C1880 1.415 . S
C1879 C1878 1.355 . S
C1879 C1881 1.419 . S
C1880 C1878 1.415 . S
C1880 C1885 1.425 . S
C1880 C1887 1.409 . S
C1881 H1873 0.930 . S
C1881 C1879 1.419 . S
C1881 C1882 1.362 . S
C1882 H1874 0.930 . S
C1882 C1881 1.362 . S
C1882 C1885 1.409 . S
C1883 H1875 0.930 . S
C1883 C1884 1.355 . S
C1883 C1885 1.415 . S
C1884 C1883 1.355 . S
C1884 C1886 1.419 . S
C1885 C1880 1.425 . S
C1885 C1882 1.409 . S
C1885 C1883 1.415 . S
C1886 H1876 0.930 . S
C1886 C1884 1.419 . S
C1886 C1887 1.362 . S
C1887 H1877 0.930 . S
C1887 C1880 1.409 . S
C1887 C1886 1.362 . S
H1888 C1894 0.930 . S
H1889 C1897 0.930 . S
H1890 C1898 0.930 . S
H1891 C1899 0.930 . S
H1892 C1902 0.930 . S
H1893 C1903 0.930 . S
C1894 H1888 0.930 . S
C1894 C1895 1.355 1_455 S
C1894 C1896 1.415 . S
C1895 C1894 1.355 1_655 S
C1895 C1897 1.419 . S
C1896 C1894 1.415 . S
C1896 C1901 1.425 1_455 S
C1896 C1903 1.409 . S
C1897 H1889 0.930 . S
C1897 C1895 1.419 . S
C1897 C1898 1.362 . S
C1898 H1890 0.930 . S
C1898 C1897 1.362 . S
C1898 C1901 1.409 . S
C1899 H1891 0.930 . S
C1899 C1900 1.355 1_655 S
C1899 C1901 1.415 . S
C1900 C1899 1.355 1_455 S
C1900 C1902 1.419 . S
C1901 C1896 1.425 1_655 S
C1901 C1898 1.409 . S
C1901 C1899 1.415 . S
C1902 H1892 0.930 . S
C1902 C1900 1.419 . S
C1902 C1903 1.362 . S
C1903 H1893 0.930 . S
C1903 C1896 1.409 . S
C1903 C1902 1.362 . S
H1904 C1910 0.930 . S
H1905 C1913 0.930 . S
H1906 C1914 0.930 . S
H1907 C1915 0.930 . S
H1908 C1918 0.930 . S
H1909 C1919 0.930 . S
C1910 H1904 0.930 . S
C1910 C1911 1.355 . S
C1910 C1912 1.415 . S
C1911 C1910 1.355 . S
C1911 C1913 1.419 . S
C1912 C1910 1.415 . S
C1912 C1917 1.425 . S
C1912 C1919 1.409 . S
C1913 H1905 0.930 . S
C1913 C1911 1.419 . S
C1913 C1914 1.362 . S
C1914 H1906 0.930 . S
C1914 C1913 1.362 . S
C1914 C1917 1.409 . S
C1915 H1907 0.930 . S
C1915 C1916 1.355 1_554 S
C1915 C1917 1.415 . S
C1916 C1915 1.355 1_556 S
C1916 C1918 1.419 . S
C1917 C1912 1.425 . S
C1917 C1914 1.409 . S
C1917 C1915 1.415 . S
C1918 H1908 0.930 . S
C1918 C1916 1.419 . S
C1918 C1919 1.362 1_556 S
C1919 H1909 0.930 . S
C1919 C1912 1.409 . S
C1919 C1918 1.362 1_554 S
H1920 C1926 0.930 . S
H1921 C1929 0.930 . S
H1922 C1930 0.930 . S
H1923 C1931 0.930 . S
H1924 C1934 0.930 . S
H1925 C1935 0.930 . S
C1926 H1920 0.930 . S
C1926 C1927 1.355 . S
C1926 C1928 1.415 . S
C1927 C1926 1.355 . S
C1927 C1929 1.419 . S
C1928 C1926 1.415 . S
C1928 C1933 1.425 . S
C1928 C1935 1.409 . S
C1929 H1921 0.930 . S
C1929 C1927 1.419 . S
C1929 C1930 1.362 . S
C1930 H1922 0.930 . S
C1930 C1929 1.362 . S
C1930 C1933 1.409 . S
C1931 H1923 0.930 . S
C1931 C1932 1.355 . S
C1931 C1933 1.415 . S
C1932 C1931 1.355 . S
C1932 C1934 1.419 . S
C1933 C1928 1.425 . S
C1933 C1930 1.409 . S
C1933 C1931 1.415 . S
C1934 H1924 0.930 . S
C1934 C1932 1.419 . S
C1934 C1935 1.362 . S
C1935 H1925 0.930 . S
C1935 C1928 1.409 . S
C1935 C1934 1.362 . S
H1936 C1942 0.930 . S
H1937 C1945 0.930 . S
H1938 C1946 0.930 . S
H1939 C1947 0.930 . S
H1940 C1950 0.930 . S
H1941 C1951 0.930 . S
C1942 H1936 0.930 . S
C1942 C1943 1.355 . S
C1942 C1944 1.415 . S
C1943 C1942 1.355 . S
C1943 C1945 1.419 . S
C1944 C1942 1.415 . S
C1944 C1949 1.425 . S
C1944 C1951 1.409 . S
C1945 H1937 0.930 . S
C1945 C1943 1.419 . S
C1945 C1946 1.362 . S
C1946 H1938 0.930 . S
C1946 C1945 1.362 . S
C1946 C1949 1.409 . S
C1947 H1939 0.930 . S
C1947 C1948 1.355 . S
C1947 C1949 1.415 . S
C1948 C1947 1.355 . S
C1948 C1950 1.419 . S
C1949 C1944 1.425 . S
C1949 C1946 1.409 . S
C1949 C1947 1.415 . S
C1950 H1940 0.930 . S
C1950 C1948 1.419 . S
C1950 C1951 1.362 . S
C1951 H1941 0.930 . S
C1951 C1944 1.409 . S
C1951 C1950 1.362 . S
H1952 C1958 0.930 . S
H1953 C1961 0.930 . S
H1954 C1962 0.930 . S
H1955 C1963 0.930 . S
H1956 C1966 0.930 . S
H1957 C1967 0.930 . S
C1958 H1952 0.930 . S
C1958 C1959 1.355 . S
C1958 C1960 1.415 . S
C1959 C1958 1.355 . S
C1959 C1961 1.419 . S
C1960 C1958 1.415 . S
C1960 C1965 1.425 . S
C1960 C1967 1.409 . S
C1961 H1953 0.930 . S
C1961 C1959 1.419 . S
C1961 C1962 1.362 . S
C1962 H1954 0.930 . S
C1962 C1961 1.362 . S
C1962 C1965 1.409 . S
C1963 H1955 0.930 . S
C1963 C1964 1.355 . S
C1963 C1965 1.415 . S
C1964 C1963 1.355 . S
C1964 C1966 1.419 . S
C1965 C1960 1.425 . S
C1965 C1962 1.409 . S
C1965 C1963 1.415 . S
C1966 H1956 0.930 . S
C1966 C1964 1.419 . S
C1966 C1967 1.362 . S
C1967 H1957 0.930 . S
C1967 C1960 1.409 . S
C1967 C1966 1.362 . S
H1968 C1974 0.930 . S
H1969 C1977 0.930 . S
H1970 C1978 0.930 . S
H1971 C1979 0.930 . S
H1972 C1982 0.930 . S
H1973 C1983 0.930 . S
C1974 H1968 0.930 . S
C1974 C1975 1.355 . S
C1974 C1976 1.415 . S
C1975 C1974 1.355 . S
C1975 C1977 1.419 . S
C1976 C1974 1.415 . S
C1976 C1981 1.425 . S
C1976 C1983 1.409 . S
C1977 H1969 0.930 . S
C1977 C1975 1.419 . S
C1977 C1978 1.362 . S
C1978 H1970 0.930 . S
C1978 C1977 1.362 . S
C1978 C1981 1.409 . S
C1979 H1971 0.930 . S
C1979 C1980 1.355 . S
C1979 C1981 1.415 . S
C1980 C1979 1.355 . S
C1980 C1982 1.419 . S
C1981 C1976 1.425 . S
C1981 C1978 1.409 . S
C1981 C1979 1.415 . S
C1982 H1972 0.930 . S
C1982 C1980 1.419 . S
C1982 C1983 1.362 . S
C1983 H1973 0.930 . S
C1983 C1976 1.409 . S
C1983 C1982 1.362 . S
H1984 C1990 0.930 . S
H1985 C1993 0.930 . S
H1986 C1994 0.930 . S
H1987 C1995 0.930 . S
H1988 C1998 0.930 . S
H1989 C1999 0.930 . S
C1990 H1984 0.930 . S
C1990 C1991 1.355 . S
C1990 C1992 1.415 . S
C1991 C1990 1.355 . S
C1991 C1993 1.419 1_455 S
C1992 C1990 1.415 . S
C1992 C1997 1.425 1_455 S
C1992 C1999 1.409 . S
C1993 H1985 0.930 . S
C1993 C1991 1.419 1_655 S
C1993 C1994 1.362 . S
C1994 H1986 0.930 . S
C1994 C1993 1.362 . S
C1994 C1997 1.409 . S
C1995 H1987 0.930 . S
C1995 C1996 1.355 . S
C1995 C1997 1.415 . S
C1996 C1995 1.355 . S
C1996 C1998 1.419 1_655 S
C1997 C1992 1.425 1_655 S
C1997 C1994 1.409 . S
C1997 C1995 1.415 . S
C1998 H1988 0.930 . S
C1998 C1996 1.419 1_455 S
C1998 C1999 1.362 . S
C1999 H1989 0.930 . S
C1999 C1992 1.409 . S
C1999 C1998 1.362 . S
H2000 C2006 0.930 . S
H2001 C2009 0.930 . S
H2002 C2010 0.930 . S
H2003 C2011 0.930 . S
H2004 C2014 0.930 . S
H2005 C2015 0.930 . S
C2006 H2000 0.930 . S
C2006 C2007 1.355 . S
C2006 C2008 1.415 . S
C2007 C2006 1.355 . S
C2007 C2009 1.419 . S
C2008 C2006 1.415 . S
C2008 C2013 1.425 . S
C2008 C2015 1.409 . S
C2009 H2001 0.930 . S
C2009 C2007 1.419 . S
C2009 C2010 1.362 . S
C2010 H2002 0.930 . S
C2010 C2009 1.362 . S
C2010 C2013 1.409 . S
C2011 H2003 0.930 . S
C2011 C2012 1.355 1_554 S
C2011 C2013 1.415 . S
C2012 C2011 1.355 1_556 S
C2012 C2014 1.419 . S
C2013 C2008 1.425 . S
C2013 C2010 1.409 . S
C2013 C2011 1.415 . S
C2014 H2004 0.930 . S
C2014 C2012 1.419 . S
C2014 C2015 1.362 1_556 S
C2015 H2005 0.930 . S
C2015 C2008 1.409 . S
C2015 C2014 1.362 1_554 S
H2016 C2022 0.930 . S
H2017 C2025 0.930 . S
H2018 C2026 0.930 . S
H2019 C2027 0.930 . S
H2020 C2030 0.930 . S
H2021 C2031 0.930 . S
C2022 H2016 0.930 . S
C2022 C2023 1.355 . S
C2022 C2024 1.415 . S
C2023 C2022 1.355 . S
C2023 C2025 1.419 . S
C2024 C2022 1.415 . S
C2024 C2029 1.425 . S
C2024 C2031 1.409 . S
C2025 H2017 0.930 . S
C2025 C2023 1.419 . S
C2025 C2026 1.362 . S
C2026 H2018 0.930 . S
C2026 C2025 1.362 . S
C2026 C2029 1.409 . S
C2027 H2019 0.930 . S
C2027 C2028 1.355 . S
C2027 C2029 1.415 . S
C2028 C2027 1.355 . S
C2028 C2030 1.419 . S
C2029 C2024 1.425 . S
C2029 C2026 1.409 . S
C2029 C2027 1.415 . S
C2030 H2020 0.930 . S
C2030 C2028 1.419 . S
C2030 C2031 1.362 . S
C2031 H2021 0.930 . S
C2031 C2024 1.409 . S
C2031 C2030 1.362 . S
H2032 C2038 0.930 . S
H2033 C2041 0.930 . S
H2034 C2042 0.930 . S
H2035 C2043 0.930 . S
H2036 C2046 0.930 . S
H2037 C2047 0.930 . S
C2038 H2032 0.930 . S
C2038 C2039 1.355 . S
C2038 C2040 1.415 . S
C2039 C2038 1.355 . S
C2039 C2041 1.419 . S
C2040 C2038 1.415 . S
C2040 C2045 1.425 . S
C2040 C2047 1.409 . S
C2041 H2033 0.930 . S
C2041 C2039 1.419 . S
C2041 C2042 1.362 . S
C2042 H2034 0.930 . S
C2042 C2041 1.362 . S
C2042 C2045 1.409 . S
C2043 H2035 0.930 . S
C2043 C2044 1.355 . S
C2043 C2045 1.415 . S
C2044 C2043 1.355 . S
C2044 C2046 1.419 . S
C2045 C2040 1.425 . S
C2045 C2042 1.409 . S
C2045 C2043 1.415 . S
C2046 H2036 0.930 . S
C2046 C2044 1.419 . S
C2046 C2047 1.362 . S
C2047 H2037 0.930 . S
C2047 C2040 1.409 . S
C2047 C2046 1.362 . S
H2048 C2054 0.930 . S
H2049 C2057 0.930 . S
H2050 C2058 0.930 . S
H2051 C2059 0.930 . S
H2052 C2062 0.930 . S
H2053 C2063 0.930 . S
C2054 H2048 0.930 . S
C2054 C2055 1.355 1_655 S
C2054 C2056 1.415 . S
C2055 C2054 1.355 1_455 S
C2055 C2057 1.419 . S
C2056 C2054 1.415 . S
C2056 C2061 1.425 1_655 S
C2056 C2063 1.409 . S
C2057 H2049 0.930 . S
C2057 C2055 1.419 . S
C2057 C2058 1.362 . S
C2058 H2050 0.930 . S
C2058 C2057 1.362 . S
C2058 C2061 1.409 . S
C2059 H2051 0.930 . S
C2059 C2060 1.355 1_455 S
C2059 C2061 1.415 . S
C2060 C2059 1.355 1_655 S
C2060 C2062 1.419 . S
C2061 C2056 1.425 1_455 S
C2061 C2058 1.409 . S
C2061 C2059 1.415 . S
C2062 H2052 0.930 . S
C2062 C2060 1.419 . S
C2062 C2063 1.362 . S
C2063 H2053 0.930 . S
C2063 C2056 1.409 . S
C2063 C2062 1.362 . S
H2064 C2070 0.930 . S
H2065 C2073 0.930 . S
H2066 C2074 0.930 . S
H2067 C2075 0.930 . S
H2068 C2078 0.930 . S
H2069 C2079 0.930 . S
C2070 H2064 0.930 . S
C2070 C2071 1.355 1_556 S
C2070 C2072 1.415 . S
C2071 C2070 1.355 1_554 S
C2071 C2073 1.419 . S
C2072 C2070 1.415 . S
C2072 C2077 1.425 . S
C2072 C2079 1.409 . S
C2073 H2065 0.930 . S
C2073 C2071 1.419 . S
C2073 C2074 1.362 1_554 S
C2074 H2066 0.930 . S
C2074 C2073 1.362 1_556 S
C2074 C2077 1.409 . S
C2075 H2067 0.930 . S
C2075 C2076 1.355 . S
C2075 C2077 1.415 . S
C2076 C2075 1.355 . S
C2076 C2078 1.419 . S
C2077 C2072 1.425 . S
C2077 C2074 1.409 . S
C2077 C2075 1.415 . S
C2078 H2068 0.930 . S
C2078 C2076 1.419 . S
C2078 C2079 1.362 . S
C2079 H2069 0.930 . S
C2079 C2072 1.409 . S
C2079 C2078 1.362 . S
H2080 C2086 0.930 . S
H2081 C2089 0.930 . S
H2082 C2090 0.930 . S
H2083 C2091 0.930 . S
H2084 C2094 0.930 . S
H2085 C2095 0.930 . S
C2086 H2080 0.930 . S
C2086 C2087 1.355 . S
C2086 C2088 1.415 . S
C2087 C2086 1.355 . S
C2087 C2089 1.419 . S
C2088 C2086 1.415 . S
C2088 C2093 1.425 . S
C2088 C2095 1.409 . S
C2089 H2081 0.930 . S
C2089 C2087 1.419 . S
C2089 C2090 1.362 . S
C2090 H2082 0.930 . S
C2090 C2089 1.362 . S
C2090 C2093 1.409 . S
C2091 H2083 0.930 . S
C2091 C2092 1.355 . S
C2091 C2093 1.415 . S
C2092 C2091 1.355 . S
C2092 C2094 1.419 . S
C2093 C2088 1.425 . S
C2093 C2090 1.409 . S
C2093 C2091 1.415 . S
C2094 H2084 0.930 . S
C2094 C2092 1.419 . S
C2094 C2095 1.362 . S
C2095 H2085 0.930 . S
C2095 C2088 1.409 . S
C2095 C2094 1.362 . S
H2096 C2102 0.930 . S
H2097 C2105 0.930 . S
H2098 C2106 0.930 . S
H2099 C2107 0.930 . S
H2100 C2110 0.930 . S
H2101 C2111 0.930 . S
C2102 H2096 0.930 . S
C2102 C2103 1.355 . S
C2102 C2104 1.415 . S
C2103 C2102 1.355 . S
C2103 C2105 1.419 . S
C2104 C2102 1.415 . S
C2104 C2109 1.425 . S
C2104 C2111 1.409 . S
C2105 H2097 0.930 . S
C2105 C2103 1.419 . S
C2105 C2106 1.362 . S
C2106 H2098 0.930 . S
C2106 C2105 1.362 . S
C2106 C2109 1.409 . S
C2107 H2099 0.930 . S
C2107 C2108 1.355 . S
C2107 C2109 1.415 . S
C2108 C2107 1.355 . S
C2108 C2110 1.419 . S
C2109 C2104 1.425 . S
C2109 C2106 1.409 . S
C2109 C2107 1.415 . S
C2110 H2100 0.930 . S
C2110 C2108 1.419 . S
C2110 C2111 1.362 . S
C2111 H2101 0.930 . S
C2111 C2104 1.409 . S
C2111 C2110 1.362 . S
H2112 C2118 0.930 . S
H2113 C2121 0.930 . S
H2114 C2122 0.930 . S
H2115 C2123 0.930 . S
H2116 C2126 0.930 . S
H2117 C2127 0.930 . S
C2118 H2112 0.930 . S
C2118 C2119 1.355 1_655 S
C2118 C2120 1.415 . S
C2119 C2118 1.355 1_455 S
C2119 C2121 1.419 . S
C2120 C2118 1.415 . S
C2120 C2125 1.425 1_655 S
C2120 C2127 1.409 . S
C2121 H2113 0.930 . S
C2121 C2119 1.419 . S
C2121 C2122 1.362 . S
C2122 H2114 0.930 . S
C2122 C2121 1.362 . S
C2122 C2125 1.409 . S
C2123 H2115 0.930 . S
C2123 C2124 1.355 1_455 S
C2123 C2125 1.415 . S
C2124 C2123 1.355 1_655 S
C2124 C2126 1.419 . S
C2125 C2120 1.425 1_455 S
C2125 C2122 1.409 . S
C2125 C2123 1.415 . S
C2126 H2116 0.930 . S
C2126 C2124 1.419 . S
C2126 C2127 1.362 . S
C2127 H2117 0.930 . S
C2127 C2120 1.409 . S
C2127 C2126 1.362 . S
H2128 C2134 0.930 . S
H2129 C2137 0.930 . S
H2130 C2138 0.930 . S
H2131 C2139 0.930 1_554 S
H2132 C2142 0.930 1_554 S
H2133 C2143 0.930 . S
C2134 H2128 0.930 . S
C2134 C2135 1.355 . S
C2134 C2136 1.415 . S
C2135 C2134 1.355 . S
C2135 C2137 1.419 . S
C2136 C2134 1.415 . S
C2136 C2141 1.425 . S
C2136 C2143 1.409 . S
C2137 H2129 0.930 . S
C2137 C2135 1.419 . S
C2137 C2138 1.362 . S
C2138 H2130 0.930 . S
C2138 C2137 1.362 . S
C2138 C2141 1.409 . S
C2139 H2131 0.930 1_556 S
C2139 C2140 1.355 1_556 S
C2139 C2141 1.415 . S
C2140 C2139 1.355 1_554 S
C2140 C2142 1.419 1_554 S
C2141 C2136 1.425 . S
C2141 C2138 1.409 . S
C2141 C2139 1.415 . S
C2142 H2132 0.930 1_556 S
C2142 C2140 1.419 1_556 S
C2142 C2143 1.362 . S
C2143 H2133 0.930 . S
C2143 C2136 1.409 . S
C2143 C2142 1.362 . S
H2144 C2150 0.930 . S
H2145 C2153 0.930 . S
H2146 C2154 0.930 . S
H2147 C2155 0.930 . S
H2148 C2158 0.930 . S
H2149 C2159 0.930 . S
C2150 H2144 0.930 . S
C2150 C2151 1.355 . S
C2150 C2152 1.415 . S
C2151 C2150 1.355 . S
C2151 C2153 1.419 . S
C2152 C2150 1.415 . S
C2152 C2157 1.425 . S
C2152 C2159 1.409 . S
C2153 H2145 0.930 . S
C2153 C2151 1.419 . S
C2153 C2154 1.362 . S
C2154 H2146 0.930 . S
C2154 C2153 1.362 . S
C2154 C2157 1.409 . S
C2155 H2147 0.930 . S
C2155 C2156 1.355 . S
C2155 C2157 1.415 . S
C2156 C2155 1.355 . S
C2156 C2158 1.419 . S
C2157 C2152 1.425 . S
C2157 C2154 1.409 . S
C2157 C2155 1.415 . S
C2158 H2148 0.930 . S
C2158 C2156 1.419 . S
C2158 C2159 1.362 . S
C2159 H2149 0.930 . S
C2159 C2152 1.409 . S
C2159 C2158 1.362 . S
H2160 C2166 0.930 . S
H2161 C2169 0.930 . S
H2162 C2170 0.930 . S
H2163 C2171 0.930 . S
H2164 C2174 0.930 . S
H2165 C2175 0.930 . S
C2166 H2160 0.930 . S
C2166 C2167 1.355 . S
C2166 C2168 1.415 . S
C2167 C2166 1.355 . S
C2167 C2169 1.419 . S
C2168 C2166 1.415 . S
C2168 C2173 1.425 . S
C2168 C2175 1.409 . S
C2169 H2161 0.930 . S
C2169 C2167 1.419 . S
C2169 C2170 1.362 . S
C2170 H2162 0.930 . S
C2170 C2169 1.362 . S
C2170 C2173 1.409 . S
C2171 H2163 0.930 . S
C2171 C2172 1.355 . S
C2171 C2173 1.415 . S
C2172 C2171 1.355 . S
C2172 C2174 1.419 . S
C2173 C2168 1.425 . S
C2173 C2170 1.409 . S
C2173 C2171 1.415 . S
C2174 H2164 0.930 . S
C2174 C2172 1.419 . S
C2174 C2175 1.362 . S
C2175 H2165 0.930 . S
C2175 C2168 1.409 . S
C2175 C2174 1.362 . S
H2176 C2182 0.930 . S
H2177 C2185 0.931 1_455 S
H2178 C2186 0.930 . S
H2179 C2187 0.930 . S
H2180 C2190 0.930 . S
H2181 C2191 0.930 . S
C2182 H2176 0.930 . S
C2182 C2183 1.355 . S
C2182 C2184 1.415 . S
C2183 C2182 1.355 . S
C2183 C2185 1.417 . S
C2184 C2182 1.415 . S
C2184 C2189 1.425 1_655 S
C2184 C2191 1.409 . S
C2185 H2177 0.931 1_655 S
C2185 C2183 1.417 . S
C2185 C2186 1.364 1_655 S
C2186 H2178 0.930 . S
C2186 C2185 1.364 1_455 S
C2186 C2189 1.409 . S
C2187 H2179 0.930 . S
C2187 C2188 1.355 . S
C2187 C2189 1.415 . S
C2188 C2187 1.355 . S
C2188 C2190 1.419 1_455 S
C2189 C2184 1.425 1_455 S
C2189 C2186 1.409 . S
C2189 C2187 1.415 . S
C2190 H2180 0.930 . S
C2190 C2188 1.419 1_655 S
C2190 C2191 1.362 . S
C2191 H2181 0.930 . S
C2191 C2184 1.409 . S
C2191 C2190 1.362 . S
H2192 C2198 0.930 . S
H2193 C2201 0.930 . S
H2194 C2202 0.930 . S
H2195 C2203 0.930 1_556 S
H2196 C2206 0.940 . S
H2197 C2207 0.930 . S
C2198 H2192 0.930 . S
C2198 C2199 1.355 . S
C2198 C2200 1.415 . S
C2199 C2198 1.355 . S
C2199 C2201 1.419 . S
C2200 C2198 1.415 . S
C2200 C2205 1.425 . S
C2200 C2207 1.409 . S
C2201 H2193 0.930 . S
C2201 C2199 1.419 . S
C2201 C2202 1.362 . S
C2202 H2194 0.930 . S
C2202 C2201 1.362 . S
C2202 C2205 1.409 . S
C2203 H2195 0.930 1_554 S
C2203 C2204 1.355 1_554 S
C2203 C2205 1.415 . S
C2204 C2203 1.355 1_556 S
C2204 C2206 1.425 . S
C2205 C2200 1.425 . S
C2205 C2202 1.409 . S
C2205 C2203 1.415 . S
C2206 H2196 0.940 . S
C2206 C2204 1.425 . S
C2206 C2207 1.346 1_556 S
C2207 H2197 0.930 . S
C2207 C2200 1.409 . S
C2207 C2206 1.346 1_554 S
H2208 C2214 0.933 1_455 S
H2209 C2217 0.930 . S
H2210 C2218 0.930 1_565 S
H2211 C2219 0.933 1_655 S
H2212 C2222 0.930 . S
H2213 C2223 0.930 1_545 S
C2214 H2208 0.933 1_655 S
C2214 C2215 1.349 1_556 S
C2214 C2216 1.417 1_655 S
C2215 C2214 1.349 1_554 S
C2215 C2217 1.419 . S
C2216 C2214 1.417 1_455 S
C2216 C2221 1.425 1_446 S
C2216 C2223 1.409 1_545 S
C2217 H2209 0.930 . S
C2217 C2215 1.419 . S
C2217 C2218 1.362 . S
C2218 H2210 0.930 1_545 S
C2218 C2217 1.362 . S
C2218 C2221 1.409 1_545 S
C2219 H2211 0.933 1_455 S
C2219 C2220 1.349 1_554 S
C2219 C2221 1.417 1_455 S
C2220 C2219 1.349 1_556 S
C2220 C2222 1.419 . S
C2221 C2216 1.425 1_664 S
C2221 C2218 1.409 1_565 S
C2221 C2219 1.417 1_655 S
C2222 H2212 0.930 . S
C2222 C2220 1.419 . S
C2222 C2223 1.362 . S
C2223 H2213 0.930 1_565 S
C2223 C2216 1.409 1_565 S
C2223 C2222 1.362 . S
H2224 C2230 0.930 . S
H2225 C2233 0.930 . S
H2226 C2234 0.930 . S
H2227 C2235 0.930 . S
H2228 C2238 0.930 . S
H2229 C2239 0.930 . S
C2230 H2224 0.930 . S
C2230 C2231 1.355 . S
C2230 C2232 1.415 . S
C2231 C2230 1.355 . S
C2231 C2233 1.419 . S
C2232 C2230 1.415 . S
C2232 C2237 1.425 . S
C2232 C2239 1.409 . S
C2233 H2225 0.930 . S
C2233 C2231 1.419 . S
C2233 C2234 1.362 . S
C2234 H2226 0.930 . S
C2234 C2233 1.362 . S
C2234 C2237 1.409 . S
C2235 H2227 0.930 . S
C2235 C2236 1.355 . S
C2235 C2237 1.415 . S
C2236 C2235 1.355 . S
C2236 C2238 1.419 . S
C2237 C2232 1.425 . S
C2237 C2234 1.409 . S
C2237 C2235 1.415 . S
C2238 H2228 0.930 . S
C2238 C2236 1.419 . S
C2238 C2239 1.362 . S
C2239 H2229 0.930 . S
C2239 C2232 1.409 . S
C2239 C2238 1.362 . S
H2240 C2246 0.930 . S
H2241 C2249 0.930 . S
H2242 C2250 0.910 1_565 S
H2243 C2251 0.930 . S
H2244 C2254 0.930 . S
H2245 C2255 0.910 1_545 S
C2246 H2240 0.930 . S
C2246 C2247 1.355 . S
C2246 C2248 1.415 . S
C2247 C2246 1.355 . S
C2247 C2249 1.419 . S
C2248 C2246 1.415 . S
C2248 C2253 1.425 1_545 S
C2248 C2255 1.398 1_545 S
C2249 H2241 0.930 . S
C2249 C2247 1.419 . S
C2249 C2250 1.394 . S
C2250 H2242 0.910 1_545 S
C2250 C2249 1.394 . S
C2250 C2253 1.398 1_545 S
C2251 H2243 0.930 . S
C2251 C2252 1.355 . S
C2251 C2253 1.415 . S
C2252 C2251 1.355 . S
C2252 C2254 1.419 . S
C2253 C2248 1.425 1_565 S
C2253 C2250 1.398 1_565 S
C2253 C2251 1.415 . S
C2254 H2244 0.930 . S
C2254 C2252 1.419 . S
C2254 C2255 1.394 . S
C2255 H2245 0.910 1_565 S
C2255 C2248 1.398 1_565 S
C2255 C2254 1.394 . S
H2256 C2262 0.930 . S
H2257 C2265 0.930 . S
H2258 C2266 0.930 . S
H2259 C2267 0.930 . S
H2260 C2270 0.930 . S
H2261 C2271 0.930 . S
C2262 H2256 0.930 . S
C2262 C2263 1.355 . S
C2262 C2264 1.415 . S
C2263 C2262 1.355 . S
C2263 C2265 1.419 . S
C2264 C2262 1.415 . S
C2264 C2269 1.425 . S
C2264 C2271 1.409 . S
C2265 H2257 0.930 . S
C2265 C2263 1.419 . S
C2265 C2266 1.362 . S
C2266 H2258 0.930 . S
C2266 C2265 1.362 . S
C2266 C2269 1.409 . S
C2267 H2259 0.930 . S
C2267 C2268 1.355 . S
C2267 C2269 1.415 . S
C2268 C2267 1.355 . S
C2268 C2270 1.419 . S
C2269 C2264 1.425 . S
C2269 C2266 1.409 . S
C2269 C2267 1.415 . S
C2270 H2260 0.930 . S
C2270 C2268 1.419 . S
C2270 C2271 1.362 . S
C2271 H2261 0.930 . S
C2271 C2264 1.409 . S
C2271 C2270 1.362 . S
H2272 C2278 0.951 . S
H2273 C2281 0.930 . S
H2274 C2282 0.914 1_545 S
H2275 C2283 0.951 . S
H2276 C2286 0.930 . S
H2277 C2287 0.914 1_565 S
C2278 H2272 0.951 . S
C2278 C2279 1.326 1_455 S
C2278 C2280 1.424 . S
C2279 C2278 1.326 1_655 S
C2279 C2281 1.419 . S
C2280 C2278 1.424 . S
C2280 C2285 1.425 1_465 S
C2280 C2287 1.409 1_565 S
C2281 H2273 0.930 . S
C2281 C2279 1.419 . S
C2281 C2282 1.362 . S
C2282 H2274 0.914 1_565 S
C2282 C2281 1.362 . S
C2282 C2285 1.409 1_565 S
C2283 H2275 0.951 . S
C2283 C2284 1.326 1_655 S
C2283 C2285 1.424 . S
C2284 C2283 1.326 1_455 S
C2284 C2286 1.419 . S
C2285 C2280 1.425 1_645 S
C2285 C2282 1.409 1_545 S
C2285 C2283 1.424 . S
C2286 H2276 0.930 . S
C2286 C2284 1.419 . S
C2286 C2287 1.362 . S
C2287 H2277 0.914 1_545 S
C2287 C2280 1.409 1_545 S
C2287 C2286 1.362 . S
H2288 C2294 0.930 . S
H2289 C2297 0.930 . S
H2290 C2298 0.930 . S
H2291 C2299 0.930 . S
H2292 C2302 0.930 . S
H2293 C2303 0.930 . S
C2294 H2288 0.930 . S
C2294 C2295 1.355 . S
C2294 C2296 1.415 . S
C2295 C2294 1.355 . S
C2295 C2297 1.419 . S
C2296 C2294 1.415 . S
C2296 C2301 1.425 . S
C2296 C2303 1.409 . S
C2297 H2289 0.930 . S
C2297 C2295 1.419 . S
C2297 C2298 1.362 . S
C2298 H2290 0.930 . S
C2298 C2297 1.362 . S
C2298 C2301 1.409 . S
C2299 H2291 0.930 . S
C2299 C2300 1.355 . S
C2299 C2301 1.415 . S
C2300 C2299 1.355 . S
C2300 C2302 1.419 . S
C2301 C2296 1.425 . S
C2301 C2298 1.409 . S
C2301 C2299 1.415 . S
C2302 H2292 0.930 . S
C2302 C2300 1.419 . S
C2302 C2303 1.362 . S
C2303 H2293 0.930 . S
C2303 C2296 1.409 . S
C2303 C2302 1.362 . S
H2304 C2310 0.930 . S
H2305 C2313 0.930 . S
H2306 C2314 0.930 . S
H2307 C2315 0.930 . S
H2308 C2318 0.930 . S
H2309 C2319 0.930 . S
C2310 H2304 0.930 . S
C2310 C2311 1.355 . S
C2310 C2312 1.447 . S
C2311 C2310 1.355 . S
C2311 C2313 1.419 1_554 S
C2312 C2310 1.447 . S
C2312 C2317 1.422 1_564 S
C2312 C2319 1.379 1_565 S
C2313 H2305 0.930 . S
C2313 C2311 1.419 1_556 S
C2313 C2314 1.362 . S
C2314 H2306 0.930 . S
C2314 C2313 1.362 . S
C2314 C2317 1.379 1_565 S
C2315 H2307 0.930 . S
C2315 C2316 1.355 . S
C2315 C2317 1.447 . S
C2316 C2315 1.355 . S
C2316 C2318 1.419 1_556 S
C2317 C2312 1.422 1_546 S
C2317 C2314 1.379 1_545 S
C2317 C2315 1.447 . S
C2318 H2308 0.930 . S
C2318 C2316 1.419 1_554 S
C2318 C2319 1.362 . S
C2319 H2309 0.930 . S
C2319 C2312 1.379 1_545 S
C2319 C2318 1.362 . S
H2320 C2326 0.930 . S
H2321 C2329 0.930 . S
H2322 C2330 0.930 . S
H2323 C2331 0.930 . S
H2324 C2334 0.930 . S
H2325 C2335 0.930 . S
C2326 H2320 0.930 . S
C2326 C2327 1.355 . S
C2326 C2328 1.415 . S
C2327 C2326 1.355 . S
C2327 C2329 1.419 . S
C2328 C2326 1.415 . S
C2328 C2333 1.425 . S
C2328 C2335 1.409 . S
C2329 H2321 0.930 . S
C2329 C2327 1.419 . S
C2329 C2330 1.362 . S
C2330 H2322 0.930 . S
C2330 C2329 1.362 . S
C2330 C2333 1.409 . S
C2331 H2323 0.930 . S
C2331 C2332 1.355 . S
C2331 C2333 1.415 . S
C2332 C2331 1.355 . S
C2332 C2334 1.419 . S
C2333 C2328 1.425 . S
C2333 C2330 1.409 . S
C2333 C2331 1.415 . S
C2334 H2324 0.930 . S
C2334 C2332 1.419 . S
C2334 C2335 1.362 . S
C2335 H2325 0.930 . S
C2335 C2328 1.409 . S
C2335 C2334 1.362 . S
H2336 C2342 0.930 . S
H2337 C2345 0.930 . S
H2338 C2346 0.930 . S
H2339 C2347 0.930 . S
H2340 C2350 0.930 . S
H2341 C2351 0.930 . S
C2342 H2336 0.930 . S
C2342 C2343 1.355 . S
C2342 C2344 1.415 . S
C2343 C2342 1.355 . S
C2343 C2345 1.419 . S
C2344 C2342 1.415 . S
C2344 C2349 1.425 . S
C2344 C2351 1.409 . S
C2345 H2337 0.930 . S
C2345 C2343 1.419 . S
C2345 C2346 1.362 . S
C2346 H2338 0.930 . S
C2346 C2345 1.362 . S
C2346 C2349 1.409 . S
C2347 H2339 0.930 . S
C2347 C2348 1.355 . S
C2347 C2349 1.415 . S
C2348 C2347 1.355 . S
C2348 C2350 1.419 . S
C2349 C2344 1.425 . S
C2349 C2346 1.409 . S
C2349 C2347 1.415 . S
C2350 H2340 0.930 . S
C2350 C2348 1.419 . S
C2350 C2351 1.362 . S
C2351 H2341 0.930 . S
C2351 C2344 1.409 . S
C2351 C2350 1.362 . S
H2352 C2358 0.930 . S
H2353 C2361 0.930 . S
H2354 C2362 0.930 . S
H2355 C2363 0.930 . S
H2356 C2366 0.930 . S
H2357 C2367 0.930 . S
C2358 H2352 0.930 . S
C2358 C2359 1.355 . S
C2358 C2360 1.415 . S
C2359 C2358 1.355 . S
C2359 C2361 1.419 . S
C2360 C2358 1.415 . S
C2360 C2365 1.425 . S
C2360 C2367 1.409 . S
C2361 H2353 0.930 . S
C2361 C2359 1.419 . S
C2361 C2362 1.362 . S
C2362 H2354 0.930 . S
C2362 C2361 1.362 . S
C2362 C2365 1.409 . S
C2363 H2355 0.930 . S
C2363 C2364 1.355 . S
C2363 C2365 1.415 . S
C2364 C2363 1.355 . S
C2364 C2366 1.419 . S
C2365 C2360 1.425 . S
C2365 C2362 1.409 . S
C2365 C2363 1.415 . S
C2366 H2356 0.930 . S
C2366 C2364 1.419 . S
C2366 C2367 1.362 . S
C2367 H2357 0.930 . S
C2367 C2360 1.409 . S
C2367 C2366 1.362 . S
H2368 C2374 0.930 . S
H2369 C2377 0.930 . S
H2370 C2378 0.930 . S
H2371 C2379 0.930 . S
H2372 C2382 0.930 . S
H2373 C2383 0.930 . S
C2374 H2368 0.930 . S
C2374 C2375 1.355 . S
C2374 C2376 1.415 . S
C2375 C2374 1.355 . S
C2375 C2377 1.419 . S
C2376 C2374 1.415 . S
C2376 C2381 1.425 . S
C2376 C2383 1.409 . S
C2377 H2369 0.930 . S
C2377 C2375 1.419 . S
C2377 C2378 1.362 . S
C2378 H2370 0.930 . S
C2378 C2377 1.362 . S
C2378 C2381 1.409 . S
C2379 H2371 0.930 . S
C2379 C2380 1.355 . S
C2379 C2381 1.415 . S
C2380 C2379 1.355 . S
C2380 C2382 1.419 . S
C2381 C2376 1.425 . S
C2381 C2378 1.409 . S
C2381 C2379 1.415 . S
C2382 H2372 0.930 . S
C2382 C2380 1.419 . S
C2382 C2383 1.362 . S
C2383 H2373 0.930 . S
C2383 C2376 1.409 . S
C2383 C2382 1.362 . S
H2384 C2390 0.930 . S
H2385 C2393 0.930 . S
H2386 C2394 0.930 . S
H2387 C2395 0.930 . S
H2388 C2398 0.930 . S
H2389 C2399 0.930 . S
C2390 H2384 0.930 . S
C2390 C2391 1.355 . S
C2390 C2392 1.415 . S
C2391 C2390 1.355 . S
C2391 C2393 1.419 . S
C2392 C2390 1.415 . S
C2392 C2397 1.425 . S
C2392 C2399 1.409 . S
C2393 H2385 0.930 . S
C2393 C2391 1.419 . S
C2393 C2394 1.362 . S
C2394 H2386 0.930 . S
C2394 C2393 1.362 . S
C2394 C2397 1.409 . S
C2395 H2387 0.930 . S
C2395 C2396 1.355 . S
C2395 C2397 1.415 . S
C2396 C2395 1.355 . S
C2396 C2398 1.419 . S
C2397 C2392 1.425 . S
C2397 C2394 1.409 . S
C2397 C2395 1.415 . S
C2398 H2388 0.930 . S
C2398 C2396 1.419 . S
C2398 C2399 1.362 . S
C2399 H2389 0.930 . S
C2399 C2392 1.409 . S
C2399 C2398 1.362 . S
H2400 C2406 0.930 . S
H2401 C2409 0.930 . S
H2402 C2410 0.930 . S
H2403 C2411 0.930 . S
H2404 C2414 0.930 . S
H2405 C2415 0.930 . S
C2406 H2400 0.930 . S
C2406 C2407 1.355 . S
C2406 C2408 1.415 . S
C2407 C2406 1.355 . S
C2407 C2409 1.419 . S
C2408 C2406 1.415 . S
C2408 C2413 1.425 . S
C2408 C2415 1.409 . S
C2409 H2401 0.930 . S
C2409 C2407 1.419 . S
C2409 C2410 1.362 . S
C2410 H2402 0.930 . S
C2410 C2409 1.362 . S
C2410 C2413 1.409 . S
C2411 H2403 0.930 . S
C2411 C2412 1.355 . S
C2411 C2413 1.415 . S
C2412 C2411 1.355 . S
C2412 C2414 1.419 . S
C2413 C2408 1.425 . S
C2413 C2410 1.409 . S
C2413 C2411 1.415 . S
C2414 H2404 0.930 . S
C2414 C2412 1.419 . S
C2414 C2415 1.362 . S
C2415 H2405 0.930 . S
C2415 C2408 1.409 . S
C2415 C2414 1.362 . S
H2416 C2422 0.930 . S
H2417 C2425 0.930 . S
H2418 C2426 0.930 . S
H2419 C2427 0.930 . S
H2420 C2430 0.930 . S
H2421 C2431 0.930 . S
C2422 H2416 0.930 . S
C2422 C2423 1.355 1_655 S
C2422 C2424 1.415 . S
C2423 C2422 1.355 1_455 S
C2423 C2425 1.419 1_554 S
C2424 C2422 1.415 . S
C2424 C2429 1.425 1_654 S
C2424 C2431 1.409 . S
C2425 H2417 0.930 . S
C2425 C2423 1.419 1_556 S
C2425 C2426 1.362 . S
C2426 H2418 0.930 . S
C2426 C2425 1.362 . S
C2426 C2429 1.409 . S
C2427 H2419 0.930 . S
C2427 C2428 1.355 1_455 S
C2427 C2429 1.415 . S
C2428 C2427 1.355 1_655 S
C2428 C2430 1.419 1_556 S
C2429 C2424 1.425 1_456 S
C2429 C2426 1.409 . S
C2429 C2427 1.415 . S
C2430 H2420 0.930 . S
C2430 C2428 1.419 1_554 S
C2430 C2431 1.362 . S
C2431 H2421 0.930 . S
C2431 C2424 1.409 . S
C2431 C2430 1.362 . S
H2432 C2438 0.930 . S
H2433 C2441 0.930 . S
H2434 C2442 0.930 . S
H2435 C2443 0.930 . S
H2436 C2446 0.930 . S
H2437 C2447 0.930 . S
C2438 H2432 0.930 . S
C2438 C2439 1.355 1_554 S
C2438 C2440 1.415 . S
C2439 C2438 1.355 1_556 S
C2439 C2441 1.419 . S
C2440 C2438 1.415 . S
C2440 C2445 1.425 1_554 S
C2440 C2447 1.409 . S
C2441 H2433 0.930 . S
C2441 C2439 1.419 . S
C2441 C2442 1.362 . S
C2442 H2434 0.930 . S
C2442 C2441 1.362 . S
C2442 C2445 1.409 . S
C2443 H2435 0.930 . S
C2443 C2444 1.355 1_556 S
C2443 C2445 1.415 . S
C2444 C2443 1.355 1_554 S
C2444 C2446 1.419 . S
C2445 C2440 1.425 1_556 S
C2445 C2442 1.409 . S
C2445 C2443 1.415 . S
C2446 H2436 0.930 . S
C2446 C2444 1.419 . S
C2446 C2447 1.362 . S
C2447 H2437 0.930 . S
C2447 C2440 1.409 . S
C2447 C2446 1.362 . S
H2448 C2454 0.930 . S
H2449 C2457 0.930 . S
H2450 C2458 0.930 . S
H2451 C2459 0.930 . S
H2452 C2462 0.930 . S
H2453 C2463 0.930 . S
C2454 H2448 0.930 . S
C2454 C2455 1.355 . S
C2454 C2456 1.415 . S
C2455 C2454 1.355 . S
C2455 C2457 1.419 1_655 S
C2456 C2454 1.415 . S
C2456 C2461 1.425 1_655 S
C2456 C2463 1.409 . S
C2457 H2449 0.930 . S
C2457 C2455 1.419 1_455 S
C2457 C2458 1.362 . S
C2458 H2450 0.930 . S
C2458 C2457 1.362 . S
C2458 C2461 1.409 . S
C2459 H2451 0.930 . S
C2459 C2460 1.355 . S
C2459 C2461 1.415 . S
C2460 C2459 1.355 . S
C2460 C2462 1.419 1_455 S
C2461 C2456 1.425 1_455 S
C2461 C2458 1.409 . S
C2461 C2459 1.415 . S
C2462 H2452 0.930 . S
C2462 C2460 1.419 1_655 S
C2462 C2463 1.362 . S
C2463 H2453 0.930 . S
C2463 C2456 1.409 . S
C2463 C2462 1.362 . S
H2464 C2470 0.930 . S
H2465 C2473 0.930 . S
H2466 C2474 0.930 . S
H2467 C2475 0.930 . S
H2468 C2478 0.930 . S
H2469 C2479 0.930 . S
C2470 H2464 0.930 . S
C2470 C2471 1.355 . S
C2470 C2472 1.415 . S
C2471 C2470 1.355 . S
C2471 C2473 1.419 . S
C2472 C2470 1.415 . S
C2472 C2477 1.425 . S
C2472 C2479 1.409 . S
C2473 H2465 0.930 . S
C2473 C2471 1.419 . S
C2473 C2474 1.362 . S
C2474 H2466 0.930 . S
C2474 C2473 1.362 . S
C2474 C2477 1.409 . S
C2475 H2467 0.930 . S
C2475 C2476 1.355 . S
C2475 C2477 1.415 . S
C2476 C2475 1.355 . S
C2476 C2478 1.419 . S
C2477 C2472 1.425 . S
C2477 C2474 1.409 . S
C2477 C2475 1.415 . S
C2478 H2468 0.930 . S
C2478 C2476 1.419 . S
C2478 C2479 1.362 . S
C2479 H2469 0.930 . S
C2479 C2472 1.409 . S
C2479 C2478 1.362 . S
H2480 C2486 0.930 . S
H2481 C2489 0.930 . S
H2482 C2490 0.930 . S
H2483 C2491 0.930 . S
H2484 C2494 0.930 . S
H2485 C2495 0.930 . S
C2486 H2480 0.930 . S
C2486 C2487 1.355 . S
C2486 C2488 1.415 . S
C2487 C2486 1.355 . S
C2487 C2489 1.419 . S
C2488 C2486 1.415 . S
C2488 C2493 1.425 . S
C2488 C2495 1.409 . S
C2489 H2481 0.930 . S
C2489 C2487 1.419 . S
C2489 C2490 1.362 . S
C2490 H2482 0.930 . S
C2490 C2489 1.362 . S
C2490 C2493 1.409 . S
C2491 H2483 0.930 . S
C2491 C2492 1.355 . S
C2491 C2493 1.415 . S
C2492 C2491 1.355 . S
C2492 C2494 1.419 . S
C2493 C2488 1.425 . S
C2493 C2490 1.409 . S
C2493 C2491 1.415 . S
C2494 H2484 0.930 . S
C2494 C2492 1.419 . S
C2494 C2495 1.362 . S
C2495 H2485 0.930 . S
C2495 C2488 1.409 . S
C2495 C2494 1.362 . S
H2496 C2502 0.930 . S
H2497 C2505 0.930 . S
H2498 C2506 0.930 . S
H2499 C2507 0.930 . S
H2500 C2510 0.930 . S
H2501 C2511 0.930 . S
C2502 H2496 0.930 . S
C2502 C2503 1.355 . S
C2502 C2504 1.415 . S
C2503 C2502 1.355 . S
C2503 C2505 1.419 . S
C2504 C2502 1.415 . S
C2504 C2509 1.425 . S
C2504 C2511 1.409 . S
C2505 H2497 0.930 . S
C2505 C2503 1.419 . S
C2505 C2506 1.362 . S
C2506 H2498 0.930 . S
C2506 C2505 1.362 . S
C2506 C2509 1.409 . S
C2507 H2499 0.930 . S
C2507 C2508 1.355 . S
C2507 C2509 1.415 . S
C2508 C2507 1.355 . S
C2508 C2510 1.419 . S
C2509 C2504 1.425 . S
C2509 C2506 1.409 . S
C2509 C2507 1.415 . S
C2510 H2500 0.930 . S
C2510 C2508 1.419 . S
C2510 C2511 1.362 . S
C2511 H2501 0.930 . S
C2511 C2504 1.409 . S
C2511 C2510 1.362 . S
H2512 C2518 0.930 . S
H2513 C2521 0.930 . S
H2514 C2522 0.930 . S
H2515 C2523 0.930 . S
H2516 C2526 0.930 . S
H2517 C2527 0.930 . S
C2518 H2512 0.930 . S
C2518 C2519 1.355 . S
C2518 C2520 1.415 . S
C2519 C2518 1.355 . S
C2519 C2521 1.419 . S
C2520 C2518 1.415 . S
C2520 C2525 1.425 . S
C2520 C2527 1.409 . S
C2521 H2513 0.930 . S
C2521 C2519 1.419 . S
C2521 C2522 1.362 . S
C2522 H2514 0.930 . S
C2522 C2521 1.362 . S
C2522 C2525 1.409 . S
C2523 H2515 0.930 . S
C2523 C2524 1.355 . S
C2523 C2525 1.415 . S
C2524 C2523 1.355 . S
C2524 C2526 1.419 . S
C2525 C2520 1.425 . S
C2525 C2522 1.409 . S
C2525 C2523 1.415 . S
C2526 H2516 0.930 . S
C2526 C2524 1.419 . S
C2526 C2527 1.362 . S
C2527 H2517 0.930 . S
C2527 C2520 1.409 . S
C2527 C2526 1.362 . S
H2528 C2534 0.930 . S
H2529 C2537 0.930 . S
H2530 C2538 0.930 . S
H2531 C2539 0.930 . S
H2532 C2542 0.930 . S
H2533 C2543 0.930 . S
C2534 H2528 0.930 . S
C2534 C2535 1.355 . S
C2534 C2536 1.415 . S
C2535 C2534 1.355 . S
C2535 C2537 1.419 . S
C2536 C2534 1.415 . S
C2536 C2541 1.425 . S
C2536 C2543 1.409 . S
C2537 H2529 0.930 . S
C2537 C2535 1.419 . S
C2537 C2538 1.362 . S
C2538 H2530 0.930 . S
C2538 C2537 1.362 . S
C2538 C2541 1.409 . S
C2539 H2531 0.930 . S
C2539 C2540 1.355 . S
C2539 C2541 1.415 . S
C2540 C2539 1.355 . S
C2540 C2542 1.419 . S
C2541 C2536 1.425 . S
C2541 C2538 1.409 . S
C2541 C2539 1.415 . S
C2542 H2532 0.930 . S
C2542 C2540 1.419 . S
C2542 C2543 1.362 . S
C2543 H2533 0.930 . S
C2543 C2536 1.409 . S
C2543 C2542 1.362 . S
H2544 C2550 0.930 . S
H2545 C2553 0.930 . S
H2546 C2554 0.930 . S
H2547 C2555 0.930 . S
H2548 C2558 0.930 . S
H2549 C2559 0.930 . S
C2550 H2544 0.930 . S
C2550 C2551 1.355 . S
C2550 C2552 1.415 . S
C2551 C2550 1.355 . S
C2551 C2553 1.419 . S
C2552 C2550 1.415 . S
C2552 C2557 1.425 . S
C2552 C2559 1.409 . S
C2553 H2545 0.930 . S
C2553 C2551 1.419 . S
C2553 C2554 1.362 . S
C2554 H2546 0.930 . S
C2554 C2553 1.362 . S
C2554 C2557 1.409 . S
C2555 H2547 0.930 . S
C2555 C2556 1.355 . S
C2555 C2557 1.415 . S
C2556 C2555 1.355 . S
C2556 C2558 1.419 . S
C2557 C2552 1.425 . S
C2557 C2554 1.409 . S
C2557 C2555 1.415 . S
C2558 H2548 0.930 . S
C2558 C2556 1.419 . S
C2558 C2559 1.362 . S
C2559 H2549 0.930 . S
C2559 C2552 1.409 . S
C2559 C2558 1.362 . S
H2560 C2566 0.930 . S
H2561 C2569 0.930 . S
H2562 C2570 0.930 . S
H2563 C2571 0.930 . S
H2564 C2574 0.930 . S
H2565 C2575 0.930 . S
C2566 H2560 0.930 . S
C2566 C2567 1.355 . S
C2566 C2568 1.415 . S
C2567 C2566 1.355 . S
C2567 C2569 1.419 . S
C2568 C2566 1.415 . S
C2568 C2573 1.425 . S
C2568 C2575 1.409 . S
C2569 H2561 0.930 . S
C2569 C2567 1.419 . S
C2569 C2570 1.362 . S
C2570 H2562 0.930 . S
C2570 C2569 1.362 . S
C2570 C2573 1.409 . S
C2571 H2563 0.930 . S
C2571 C2572 1.355 . S
C2571 C2573 1.415 . S
C2572 C2571 1.355 . S
C2572 C2574 1.419 . S
C2573 C2568 1.425 . S
C2573 C2570 1.409 . S
C2573 C2571 1.415 . S
C2574 H2564 0.930 . S
C2574 C2572 1.419 . S
C2574 C2575 1.362 . S
C2575 H2565 0.930 . S
C2575 C2568 1.409 . S
C2575 C2574 1.362 . S
H2576 C2582 0.930 . S
H2577 C2585 0.930 . S
H2578 C2586 0.930 . S
H2579 C2587 0.930 . S
H2580 C2590 0.930 . S
H2581 C2591 0.930 . S
C2582 H2576 0.930 . S
C2582 C2583 1.355 . S
C2582 C2584 1.415 . S
C2583 C2582 1.355 . S
C2583 C2585 1.419 . S
C2584 C2582 1.415 . S
C2584 C2589 1.425 . S
C2584 C2591 1.409 . S
C2585 H2577 0.930 . S
C2585 C2583 1.419 . S
C2585 C2586 1.362 . S
C2586 H2578 0.930 . S
C2586 C2585 1.362 . S
C2586 C2589 1.409 . S
C2587 H2579 0.930 . S
C2587 C2588 1.355 . S
C2587 C2589 1.415 . S
C2588 C2587 1.355 . S
C2588 C2590 1.419 . S
C2589 C2584 1.425 . S
C2589 C2586 1.409 . S
C2589 C2587 1.415 . S
C2590 H2580 0.930 . S
C2590 C2588 1.419 . S
C2590 C2591 1.362 . S
C2591 H2581 0.930 . S
C2591 C2584 1.409 . S
C2591 C2590 1.362 . S
H2592 C2598 0.930 . S
H2593 C2601 0.930 . S
H2594 C2602 0.930 . S
H2595 C2603 0.930 . S
H2596 C2606 0.930 . S
H2597 C2607 0.930 . S
C2598 H2592 0.930 . S
C2598 C2599 1.355 . S
C2598 C2600 1.415 . S
C2599 C2598 1.355 . S
C2599 C2601 1.419 . S
C2600 C2598 1.415 . S
C2600 C2605 1.425 . S
C2600 C2607 1.409 . S
C2601 H2593 0.930 . S
C2601 C2599 1.419 . S
C2601 C2602 1.362 . S
C2602 H2594 0.930 . S
C2602 C2601 1.362 . S
C2602 C2605 1.409 . S
C2603 H2595 0.930 . S
C2603 C2604 1.355 . S
C2603 C2605 1.415 . S
C2604 C2603 1.355 . S
C2604 C2606 1.419 . S
C2605 C2600 1.425 . S
C2605 C2602 1.409 . S
C2605 C2603 1.415 . S
C2606 H2596 0.930 . S
C2606 C2604 1.419 . S
C2606 C2607 1.362 . S
C2607 H2597 0.930 . S
C2607 C2600 1.409 . S
C2607 C2606 1.362 . S
H2608 C2614 0.930 . S
H2609 C2617 0.930 . S
H2610 C2618 0.930 . S
H2611 C2619 0.930 . S
H2612 C2622 0.930 . S
H2613 C2623 0.930 . S
C2614 H2608 0.930 . S
C2614 C2615 1.355 . S
C2614 C2616 1.415 . S
C2615 C2614 1.355 . S
C2615 C2617 1.419 . S
C2616 C2614 1.415 . S
C2616 C2621 1.425 . S
C2616 C2623 1.409 . S
C2617 H2609 0.930 . S
C2617 C2615 1.419 . S
C2617 C2618 1.362 . S
C2618 H2610 0.930 . S
C2618 C2617 1.362 . S
C2618 C2621 1.409 . S
C2619 H2611 0.930 . S
C2619 C2620 1.355 . S
C2619 C2621 1.415 . S
C2620 C2619 1.355 . S
C2620 C2622 1.419 . S
C2621 C2616 1.425 . S
C2621 C2618 1.409 . S
C2621 C2619 1.415 . S
C2622 H2612 0.930 . S
C2622 C2620 1.419 . S
C2622 C2623 1.362 . S
C2623 H2613 0.930 . S
C2623 C2616 1.409 . S
C2623 C2622 1.362 . S
H2624 C2630 0.930 . S
H2625 C2633 0.930 . S
H2626 C2634 0.930 . S
H2627 C2635 0.930 . S
H2628 C2638 0.930 . S
H2629 C2639 0.930 . S
C2630 H2624 0.930 . S
C2630 C2631 1.355 . S
C2630 C2632 1.415 . S
C2631 C2630 1.355 . S
C2631 C2633 1.419 . S
C2632 C2630 1.415 . S
C2632 C2637 1.425 . S
C2632 C2639 1.409 . S
C2633 H2625 0.930 . S
C2633 C2631 1.419 . S
C2633 C2634 1.362 . S
C2634 H2626 0.930 . S
C2634 C2633 1.362 . S
C2634 C2637 1.409 . S
C2635 H2627 0.930 . S
C2635 C2636 1.355 . S
C2635 C2637 1.415 . S
C2636 C2635 1.355 . S
C2636 C2638 1.419 . S
C2637 C2632 1.425 . S
C2637 C2634 1.409 . S
C2637 C2635 1.415 . S
C2638 H2628 0.930 . S
C2638 C2636 1.419 . S
C2638 C2639 1.362 . S
C2639 H2629 0.930 . S
C2639 C2632 1.409 . S
C2639 C2638 1.362 . S
H2640 C2646 0.930 . S
H2641 C2649 0.930 . S
H2642 C2650 0.930 . S
H2643 C2651 0.930 . S
H2644 C2654 0.930 . S
H2645 C2655 0.930 . S
C2646 H2640 0.930 . S
C2646 C2647 1.355 . S
C2646 C2648 1.415 . S
C2647 C2646 1.355 . S
C2647 C2649 1.419 . S
C2648 C2646 1.415 . S
C2648 C2653 1.425 . S
C2648 C2655 1.409 . S
C2649 H2641 0.930 . S
C2649 C2647 1.419 . S
C2649 C2650 1.362 . S
C2650 H2642 0.930 . S
C2650 C2649 1.362 . S
C2650 C2653 1.409 . S
C2651 H2643 0.930 . S
C2651 C2652 1.355 . S
C2651 C2653 1.415 . S
C2652 C2651 1.355 . S
C2652 C2654 1.419 . S
C2653 C2648 1.425 . S
C2653 C2650 1.409 . S
C2653 C2651 1.415 . S
C2654 H2644 0.930 . S
C2654 C2652 1.419 . S
C2654 C2655 1.362 . S
C2655 H2645 0.930 . S
C2655 C2648 1.409 . S
C2655 C2654 1.362 . S
H2656 C2662 0.930 . S
H2657 C2665 0.930 . S
H2658 C2666 0.930 . S
H2659 C2667 0.930 . S
H2660 C2670 0.930 . S
H2661 C2671 0.930 . S
C2662 H2656 0.930 . S
C2662 C2663 1.355 . S
C2662 C2664 1.415 . S
C2663 C2662 1.355 . S
C2663 C2665 1.419 . S
C2664 C2662 1.415 . S
C2664 C2669 1.425 . S
C2664 C2671 1.409 . S
C2665 H2657 0.930 . S
C2665 C2663 1.419 . S
C2665 C2666 1.362 . S
C2666 H2658 0.930 . S
C2666 C2665 1.362 . S
C2666 C2669 1.409 . S
C2667 H2659 0.930 . S
C2667 C2668 1.355 . S
C2667 C2669 1.415 . S
C2668 C2667 1.355 . S
C2668 C2670 1.419 . S
C2669 C2664 1.425 . S
C2669 C2666 1.409 . S
C2669 C2667 1.415 . S
C2670 H2660 0.930 . S
C2670 C2668 1.419 . S
C2670 C2671 1.362 . S
C2671 H2661 0.930 . S
C2671 C2664 1.409 . S
C2671 C2670 1.362 . S
H2672 C2678 0.930 . S
H2673 C2681 0.930 . S
H2674 C2682 0.930 . S
H2675 C2683 0.930 . S
H2676 C2686 0.930 . S
H2677 C2687 0.930 . S
C2678 H2672 0.930 . S
C2678 C2679 1.355 . S
C2678 C2680 1.415 . S
C2679 C2678 1.355 . S
C2679 C2681 1.419 . S
C2680 C2678 1.415 . S
C2680 C2685 1.425 . S
C2680 C2687 1.409 . S
C2681 H2673 0.930 . S
C2681 C2679 1.419 . S
C2681 C2682 1.362 . S
C2682 H2674 0.930 . S
C2682 C2681 1.362 . S
C2682 C2685 1.409 . S
C2683 H2675 0.930 . S
C2683 C2684 1.355 . S
C2683 C2685 1.415 . S
C2684 C2683 1.355 . S
C2684 C2686 1.419 . S
C2685 C2680 1.425 . S
C2685 C2682 1.409 . S
C2685 C2683 1.415 . S
C2686 H2676 0.930 . S
C2686 C2684 1.419 . S
C2686 C2687 1.362 . S
C2687 H2677 0.930 . S
C2687 C2680 1.409 . S
C2687 C2686 1.362 . S
H2688 C2694 0.930 . S
H2689 C2697 0.930 . S
H2690 C2698 0.930 . S
H2691 C2699 0.930 . S
H2692 C2702 0.930 . S
H2693 C2703 0.930 . S
C2694 H2688 0.930 . S
C2694 C2695 1.355 . S
C2694 C2696 1.415 . S
C2695 C2694 1.355 . S
C2695 C2697 1.419 . S
C2696 C2694 1.415 . S
C2696 C2701 1.425 . S
C2696 C2703 1.409 . S
C2697 H2689 0.930 . S
C2697 C2695 1.419 . S
C2697 C2698 1.362 . S
C2698 H2690 0.930 . S
C2698 C2697 1.362 . S
C2698 C2701 1.409 . S
C2699 H2691 0.930 . S
C2699 C2700 1.355 . S
C2699 C2701 1.415 . S
C2700 C2699 1.355 . S
C2700 C2702 1.419 . S
C2701 C2696 1.425 . S
C2701 C2698 1.409 . S
C2701 C2699 1.415 . S
C2702 H2692 0.930 . S
C2702 C2700 1.419 . S
C2702 C2703 1.362 . S
C2703 H2693 0.930 . S
C2703 C2696 1.409 . S
C2703 C2702 1.362 . S
H2704 C2710 0.930 . S
H2705 C2713 0.930 . S
H2706 C2714 0.930 . S
H2707 C2715 0.930 . S
H2708 C2718 0.930 . S
H2709 C2719 0.930 . S
C2710 H2704 0.930 . S
C2710 C2711 1.355 . S
C2710 C2712 1.415 . S
C2711 C2710 1.355 . S
C2711 C2713 1.419 . S
C2712 C2710 1.415 . S
C2712 C2717 1.425 . S
C2712 C2719 1.409 . S
C2713 H2705 0.930 . S
C2713 C2711 1.419 . S
C2713 C2714 1.362 . S
C2714 H2706 0.930 . S
C2714 C2713 1.362 . S
C2714 C2717 1.409 . S
C2715 H2707 0.930 . S
C2715 C2716 1.355 . S
C2715 C2717 1.415 . S
C2716 C2715 1.355 . S
C2716 C2718 1.419 . S
C2717 C2712 1.425 . S
C2717 C2714 1.409 . S
C2717 C2715 1.415 . S
C2718 H2708 0.930 . S
C2718 C2716 1.419 . S
C2718 C2719 1.362 . S
C2719 H2709 0.930 . S
C2719 C2712 1.409 . S
C2719 C2718 1.362 . S
C1703 C675 1.721 . S
C1708 C38 1.725 . S
C1719 C1576 1.692 . S
C1724 C91 1.705 . S
C1735 C781 1.721 . S
C1740 C144 1.727 . S
C1751 C1682 1.723 . S
C1756 C197 1.728 . S
C1767 C463 1.709 . S
C1772 C250 1.714 . S
C1783 C303 1.720 . S
C1788 C1364 1.710 . S
C1799 C356 1.726 . S
C1804 C569 1.722 . S
C1815 C1470 1.683 . S
C1820 C409 1.696 . S
C1831 C251 1.695 . S
C1836 C462 1.709 . S
C1847 C1152 1.712 . S
C1852 C515 1.721 . S
C1863 C357 1.689 . S
C1868 C568 1.703 . S
C1879 C1258 1.700 . S
C1884 C621 1.710 . S
C1895 C674 1.722 . S
C1900 C39 1.716 . S
C1911 C727 1.703 . S
C1916 C940 1.689 . S
C1927 C145 1.693 . S
C1932 C780 1.707 . S
C1943 C833 1.716 . S
C1948 C1046 1.704 . S
C1959 C1523 1.686 . S
C1964 C886 1.697 . S
C1975 C728 1.687 . S
C1980 C939 1.701 . S
C1991 C1629 1.685 . S
C1996 C992 1.698 . S
C2007 C1045 1.697 . S
C2012 C834 1.684 . S
C2023 C1098 1.720 . S
C2028 C1311 1.716 . S
C2039 C1151 1.718 . S
C2044 C516 1.715 . S
C2055 C1417 1.703 . S
C2060 C1204 1.708 . S
C2071 C622 1.709 . S
C2076 C1257 1.719 . S
C2087 C1099 1.707 . S
C2092 C1310 1.718 . S
C2103 C1363 1.730 . S
C2108 C304 1.725 . S
C2119 C1416 1.726 . S
C2124 C1205 1.721 . S
C2135 C1469 1.730 . S
C2140 C410 1.725 . S
C2151 C887 1.689 . S
C2156 C1522 1.704 . S
C2167 C92 1.694 . S
C2172 C1575 1.706 . S
C2183 C993 1.703 . S
C2188 C1628 1.715 . S
C2199 C1681 1.727 . S
C2204 C198 1.720 . S
C2215 C29 2.388 . S
C2220 C453 2.401 . S
C2231 C82 2.333 . S
C2236 C1354 2.348 . S
C2247 C559 2.394 . S
C2252 C135 2.381 . S
C2263 C188 2.348 . S
C2268 C1460 2.363 . S
C2279 C241 2.385 . S
C2284 C665 2.399 . S
C2295 C1566 2.352 . S
C2300 C294 2.336 . S
C2311 C771 2.382 . S
C2316 C347 2.368 . S
C2327 C400 2.390 . S
C2332 C1672 2.403 . S
C2343 C506 2.373 . S
C2348 C930 2.358 . S
C2359 C612 2.349 . S
C2364 C1036 2.333 . S
C2375 C718 2.398 . S
C2380 C1142 2.385 . S
C2391 C1248 2.334 . S
C2396 C824 2.349 . S
C2407 C877 2.395 . S
C2412 C1301 2.408 . S
C2423 C983 2.395 . S
C2428 C1407 2.408 . S
C2439 C1089 2.371 . S
C2444 C1513 2.385 . S
C2455 C1619 2.369 . S
C2460 C1195 2.354 . S
C2471 C22 2.109 . S
C2476 C393 2.094 . S
C2487 C75 2.111 . S
C2492 C234 2.089 . S
C2503 C287 2.078 . S
C2508 C128 2.109 . S
C2519 C340 2.077 . S
C2524 C181 2.093 . S
C2535 C817 2.083 . S
C2540 C446 2.106 . S
C2551 C658 2.069 . S
C2556 C499 2.102 . S
C2567 C711 2.077 . S
C2572 C552 2.106 . S
C2583 C764 2.099 . S
C2588 C605 2.068 . S
C2599 C870 2.109 . S
C2604 C1241 2.079 . S
C2615 C1082 2.086 . S
C2620 C923 2.111 . S
C2631 C1135 2.100 . S
C2636 C976 2.105 . S
C2647 C1188 2.110 . S
C2652 C1029 2.081 . S
C2663 C1665 2.086 . S
C2668 C1294 2.104 . S
C2679 C1347 2.106 . S
C2684 C1506 2.076 . S
C2695 C1400 2.069 . S
C2700 C1559 2.090 . S
C2711 C1612 2.103 . S
C2716 C1453 2.070 . S
