# Generated by pormake.
# Topology wme, (6)-cn, num edge types: 1
# Building blocks:
#     Node 0, Type 0, BuildingBlock: BETDIP_clean_sbu_0, # of connection points: 6
#     Node 1, Type 0, BuildingBlock: BETDIP_clean_sbu_0, # of connection points: 6
#     Node 2, Type 0, BuildingBlock: BETDIP_clean_sbu_0, # of connection points: 6
#     Node 3, Type 0, BuildingBlock: BETDIP_clean_sbu_0, # of connection points: 6
#     Node 4, Type 0, BuildingBlock: BETDIP_clean_sbu_0, # of connection points: 6
#     Node 5, Type 0, BuildingBlock: BETDIP_clean_sbu_0, # of connection points: 6
#     Node 6, Type 0, BuildingBlock: BETDIP_clean_sbu_0, # of connection points: 6
#     Node 7, Type 0, BuildingBlock: BETDIP_clean_sbu_0, # of connection points: 6
#     Node 8, Type 0, BuildingBlock: BETDIP_clean_sbu_0, # of connection points: 6
#     Node 9, Type 0, BuildingBlock: BETDIP_clean_sbu_0, # of connection points: 6
#     Node 10, Type 0, BuildingBlock: BETDIP_clean_sbu_0, # of connection points: 6
#     Node 11, Type 0, BuildingBlock: BETDIP_clean_sbu_0, # of connection points: 6
#     Edge 12, Type (0, 0), BuildingBlock: XUDNAN_clean_linker_2, # of connection points: 2
#     Edge 13, Type (0, 0), BuildingBlock: XUDNAN_clean_linker_2, # of connection points: 2
#     Edge 14, Type (0, 0), BuildingBlock: XUDNAN_clean_linker_2, # of connection points: 2
#     Edge 15, Type (0, 0), BuildingBlock: XUDNAN_clean_linker_2, # of connection points: 2
#     Edge 16, Type (0, 0), BuildingBlock: XUDNAN_clean_linker_2, # of connection points: 2
#     Edge 17, Type (0, 0), BuildingBlock: XUDNAN_clean_linker_2, # of connection points: 2
#     Edge 18, Type (0, 0), BuildingBlock: XUDNAN_clean_linker_2, # of connection points: 2
#     Edge 19, Type (0, 0), BuildingBlock: XUDNAN_clean_linker_2, # of connection points: 2
#     Edge 20, Type (0, 0), BuildingBlock: XUDNAN_clean_linker_2, # of connection points: 2
#     Edge 21, Type (0, 0), BuildingBlock: XUDNAN_clean_linker_2, # of connection points: 2
#     Edge 22, Type (0, 0), BuildingBlock: XUDNAN_clean_linker_2, # of connection points: 2
#     Edge 23, Type (0, 0), BuildingBlock: XUDNAN_clean_linker_2, # of connection points: 2
#     Edge 24, Type (0, 0), BuildingBlock: XUDNAN_clean_linker_2, # of connection points: 2
#     Edge 25, Type (0, 0), BuildingBlock: XUDNAN_clean_linker_2, # of connection points: 2
#     Edge 26, Type (0, 0), BuildingBlock: XUDNAN_clean_linker_2, # of connection points: 2
#     Edge 27, Type (0, 0), BuildingBlock: XUDNAN_clean_linker_2, # of connection points: 2
#     Edge 28, Type (0, 0), BuildingBlock: XUDNAN_clean_linker_2, # of connection points: 2
#     Edge 29, Type (0, 0), BuildingBlock: XUDNAN_clean_linker_2, # of connection points: 2
#     Edge 30, Type (0, 0), BuildingBlock: XUDNAN_clean_linker_2, # of connection points: 2
#     Edge 31, Type (0, 0), BuildingBlock: XUDNAN_clean_linker_2, # of connection points: 2
#     Edge 32, Type (0, 0), BuildingBlock: XUDNAN_clean_linker_2, # of connection points: 2
#     Edge 33, Type (0, 0), BuildingBlock: XUDNAN_clean_linker_2, # of connection points: 2
#     Edge 34, Type (0, 0), BuildingBlock: XUDNAN_clean_linker_2, # of connection points: 2
#     Edge 35, Type (0, 0), BuildingBlock: XUDNAN_clean_linker_2, # of connection points: 2
#     Edge 36, Type (0, 0), BuildingBlock: XUDNAN_clean_linker_2, # of connection points: 2
#     Edge 37, Type (0, 0), BuildingBlock: XUDNAN_clean_linker_2, # of connection points: 2
#     Edge 38, Type (0, 0), BuildingBlock: XUDNAN_clean_linker_2, # of connection points: 2
#     Edge 39, Type (0, 0), BuildingBlock: XUDNAN_clean_linker_2, # of connection points: 2
#     Edge 40, Type (0, 0), BuildingBlock: XUDNAN_clean_linker_2, # of connection points: 2
#     Edge 41, Type (0, 0), BuildingBlock: XUDNAN_clean_linker_2, # of connection points: 2
#     Edge 42, Type (0, 0), BuildingBlock: XUDNAN_clean_linker_2, # of connection points: 2
#     Edge 43, Type (0, 0), BuildingBlock: XUDNAN_clean_linker_2, # of connection points: 2
#     Edge 44, Type (0, 0), BuildingBlock: XUDNAN_clean_linker_2, # of connection points: 2
#     Edge 45, Type (0, 0), BuildingBlock: XUDNAN_clean_linker_2, # of connection points: 2
#     Edge 46, Type (0, 0), BuildingBlock: XUDNAN_clean_linker_2, # of connection points: 2
#     Edge 47, Type (0, 0), BuildingBlock: XUDNAN_clean_linker_2, # of connection points: 2
# Relax obj value: 0.102
# Max RMSD: 0.199
# Mean RMSD: 0.199
data_MOF--net-wme--node1-BETDIP_clean_sbu_0--edge1-XUDNAN_clean_linker_2
_symmetry_space_group_name_H-M    P1
_symmetry_Int_Tables_number       1
_symmetry_cell_setting            triclinic
loop_
_symmetry_equiv_pos_as_xyz
'x, y, z'
_cell_length_a     39.894219
_cell_length_b     39.835857
_cell_length_c     50.755074
_cell_angle_alpha  89.877799
_cell_angle_beta   89.954182
_cell_angle_gamma 119.95704
loop_
_atom_site_label
_atom_site_type_symbol
_atom_site_fract_x
_atom_site_fract_y
_atom_site_fract_z
_atom_type_partial_charge
Tb0 Tb 0.23585 0.37519 0.13614 0.0
Tb1 Tb 0.27246 0.3272 0.14815 0.0
C2 C 0.21562 0.42543 0.13698 0.0
C3 C 0.20385 0.45529 0.1376 0.0
C4 C 0.22267 0.48753 0.15432 0.0
C5 C 0.2113 0.51558 0.15511 0.0
C6 C 0.18065 0.51184 0.13934 0.0
C7 C 0.16221 0.47981 0.12236 0.0
C8 C 0.17375 0.45192 0.12144 0.0
C9 C 0.24871 0.34221 0.09483 0.0
C10 C 0.32838 0.41571 0.1396 0.0
C11 C 0.29205 0.2761 0.14938 0.0
C12 C 0.27366 0.23443 0.14368 0.0
C13 C 0.23962 0.21552 0.12878 0.0
C14 C 0.22194 0.17568 0.12418 0.0
C15 C 0.2381 0.15396 0.13431 0.0
C16 C 0.27245 0.17326 0.1491 0.0
C17 C 0.28995 0.21308 0.15378 0.0
C18 C 0.26413 0.36259 0.18921 0.0
C19 C 0.18074 0.28839 0.14334 0.0
O20 O 0.2387 0.42379 0.15463 0.0
O21 O 0.20347 0.39827 0.11906 0.0
O22 O 0.26969 0.35658 0.11461 0.0
O23 O 0.22186 0.35141 0.09575 0.0
O24 O 0.29713 0.4193 0.13894 0.0
O25 O 0.32601 0.38135 0.14068 0.0
O26 O 0.29822 0.29902 0.1292 0.0
O27 O 0.2782 0.28537 0.16971 0.0
O28 O 0.23953 0.34643 0.17099 0.0
O29 O 0.29334 0.35755 0.18504 0.0
O30 O 0.21159 0.2848 0.13916 0.0
O31 O 0.18432 0.3226 0.14788 0.0
H32 H 0.24613 0.49104 0.16689 0.0
H33 H 0.22591 0.53972 0.16854 0.0
H34 H 0.13885 0.47632 0.10969 0.0
H35 H 0.15886 0.42753 0.10823 0.0
H36 H 0.22661 0.23148 0.1208 0.0
H37 H 0.19531 0.16186 0.113 0.0
H38 H 0.28616 0.15774 0.15683 0.0
H39 H 0.31627 0.22722 0.16532 0.0
Tb40 Tb 0.87793 0.21703 0.62539 0.0
Tb41 Tb 0.96702 0.25884 0.63786 0.0
C42 C 0.8057 0.18697 0.622 0.0
C43 C 0.76925 0.18565 0.62992 0.0
C44 C 0.74865 0.16429 0.65225 0.0
C45 C 0.71039 0.15532 0.65649 0.0
C46 C 0.69173 0.16739 0.63849 0.0
C47 C 0.71299 0.1905 0.61692 0.0
C48 C 0.75123 0.19935 0.61261 0.0
C49 C 0.92647 0.23274 0.58546 0.0
C50 C 0.9243 0.30721 0.6399 0.0
C51 C 0.03797 0.28686 0.62907 0.0
C52 C 0.0636 0.26996 0.62669 0.0
C53 C 0.06905 0.25754 0.60197 0.0
C54 C 0.0933 0.24194 0.59923 0.0
C55 C 0.11334 0.23886 0.62103 0.0
C56 C 0.10751 0.25067 0.64589 0.0
C57 C 0.08294 0.26617 0.64869 0.0
C58 C 0.92577 0.23408 0.68191 0.0
C59 C 0.91704 0.16688 0.63446 0.0
O60 O 0.8231 0.17648 0.63937 0.0
O61 O 0.83003 0.21482 0.60632 0.0
O62 O 0.93101 0.25327 0.60531 0.0
O63 O 0.89286 0.20178 0.58703 0.0
O64 O 0.8904 0.27469 0.63777 0.0
O65 O 0.95816 0.30841 0.63863 0.0
O66 O 1.01197 0.27718 0.61057 0.0
O67 O 1.02403 0.28701 0.65245 0.0
O68 O 0.91388 0.23128 0.65861 0.0
O69 O 0.96326 0.2516 0.6809 0.0
O70 O 0.95168 0.19826 0.63185 0.0
O71 O 0.88474 0.16835 0.63595 0.0
H72 H 0.76139 0.15286 0.66586 0.0
H73 H 0.69507 0.13802 0.67353 0.0
H74 H 0.69944 0.20006 0.60256 0.0
H75 H 0.76598 0.21523 0.59496 0.0
H76 H 0.05473 0.26005 0.58458 0.0
H77 H 0.09658 0.23254 0.57987 0.0
H78 H 0.12279 0.24902 0.66302 0.0
H79 H 0.07946 0.27558 0.66799 0.0
Tb80 Tb 0.68294 0.87392 0.13458 0.0
Tb81 Tb 0.72874 0.95672 0.15022 0.0
C82 C 0.63438 0.80312 0.13293 0.0
C83 C 0.60549 0.76127 0.13212 0.0
C84 C 0.57402 0.74539 0.14969 0.0
C85 C 0.54713 0.70569 0.14938 0.0
C86 C 0.5512 0.68094 0.13158 0.0
C87 C 0.58254 0.69697 0.11384 0.0
C88 C 0.60934 0.73672 0.11407 0.0
C89 C 0.71728 0.92362 0.0952 0.0
C90 C 0.64027 0.92358 0.14145 0.0
C91 C 0.77955 0.02715 0.15325 0.0
C92 C 0.82196 0.0493 0.15009 0.0
C93 C 0.83945 0.0858 0.13793 0.0
C94 C 0.87969 0.10737 0.13503 0.0
C95 C 0.90326 0.09289 0.14437 0.0
C96 C 0.88548 0.05605 0.15634 0.0
C97 C 0.84527 0.03447 0.15913 0.0
C98 C 0.69331 0.90866 0.18956 0.0
C99 C 0.76933 0.9052 0.14404 0.0
O100 O 0.63484 0.82589 0.15168 0.0
O101 O 0.66147 0.82038 0.11507 0.0
O102 O 0.70136 0.92818 0.11511 0.0
O103 O 0.70937 0.88789 0.09505 0.0
O104 O 0.6376 0.88945 0.1378 0.0
O105 O 0.674 0.95565 0.14477 0.0
O106 O 0.75959 1.01126 0.13188 0.0
O107 O 0.76636 1.00383 0.17359 0.0
O108 O 0.71034 0.90287 0.17055 0.0
O109 O 0.69736 0.94288 0.18726 0.0
O110 O 0.773 0.94007 0.14189 0.0
O111 O 0.73493 0.87409 0.14639 0.0
H112 H 0.57025 0.7636 0.16381 0.0
H113 H 0.52356 0.69427 0.16348 0.0
H114 H 0.58625 0.67881 0.09965 0.0
H115 H 0.63324 0.74815 0.10024 0.0
H116 H 0.82196 0.09767 0.13071 0.0
H117 H 0.89229 0.13531 0.12533 0.0
H118 H 0.90264 0.04413 0.16407 0.0
H119 H 0.83248 1.00635 0.16861 0.0
Tb120 Tb 0.84146 0.67204 0.62493 0.0
Tb121 Tb 0.79959 0.71918 0.63869 0.0
C122 C 0.86865 0.62747 0.6208 0.0
C123 C 0.8661 0.59058 0.62895 0.0
C124 C 0.88064 0.58735 0.65348 0.0
C125 C 0.88679 0.55638 0.65862 0.0
C126 C 0.87858 0.52799 0.63938 0.0
C127 C 0.86157 0.52976 0.61557 0.0
C128 C 0.85559 0.56089 0.61036 0.0
C129 C 0.82705 0.70708 0.58601 0.0
C130 C 0.75024 0.62869 0.63688 0.0
C131 C 0.77587 0.76592 0.63144 0.0
C132 C 0.7959 0.80847 0.6339 0.0
C133 C 0.8336 0.83151 0.62392 0.0
C134 C 0.8527 0.87171 0.62646 0.0
C135 C 0.83469 0.88986 0.63915 0.0
C136 C 0.79708 0.86671 0.64936 0.0
C137 C 0.77787 0.82637 0.64673 0.0
C138 C 0.81989 0.69653 0.68193 0.0
C139 C 0.8923 0.7604 0.63749 0.0
O140 O 0.88015 0.65512 0.63843 0.0
O141 O 0.84217 0.62627 0.60484 0.0
O142 O 0.80601 0.69027 0.60551 0.0
O143 O 0.85782 0.70403 0.58719 0.0
O144 O 0.78278 0.627 0.63648 0.0
O145 O 0.74973 0.66171 0.63518 0.0
O146 O 0.78831 0.75273 0.61243 0.0
O147 O 0.76975 0.74631 0.65343 0.0
O148 O 0.82593 0.69197 0.6583 0.0
O149 O 0.80075 0.71498 0.68203 0.0
O150 O 0.86099 0.76403 0.63633 0.0
O151 O 0.89094 0.72659 0.63621 0.0
H152 H 0.88923 0.60976 0.66824 0.0
H153 H 0.89939 0.55544 0.67731 0.0
H154 H 0.85513 0.50844 0.6003 0.0
H155 H 0.84482 0.56286 0.59116 0.0
H156 H 0.84837 0.81859 0.61395 0.0
H157 H 0.88134 0.88857 0.61799 0.0
H158 H 0.78256 0.87973 0.65955 0.0
H159 H 0.74898 0.80913 0.65476 0.0
Tb160 Tb 0.18599 0.8215 0.12355 0.0
Tb161 Tb 0.09956 0.78672 0.1404 0.0
C162 C 0.25701 0.84611 0.11559 0.0
C163 C 0.29503 0.85461 0.12639 0.0
C164 C 0.32291 0.89326 0.13175 0.0
C165 C 0.36102 0.90352 0.13767 0.0
C166 C 0.37257 0.87543 0.13845 0.0
C167 C 0.34441 0.83647 0.13373 0.0
C168 C 0.30611 0.82619 0.12765 0.0
C169 C 0.13192 0.79485 0.08618 0.0
C170 C 0.13916 0.73566 0.14551 0.0
C171 C 1.02851 0.76193 0.13509 0.0
C172 C 1.00379 0.77881 0.14058 0.0
C173 C 0.96729 0.76293 0.1288 0.0
C174 C 0.9456 0.78163 0.13094 0.0
C175 C 0.96012 0.81673 0.14485 0.0
C176 C 0.99645 0.83202 0.15718 0.0
C177 C 1.01812 0.8133 0.15499 0.0
C178 C 0.14468 0.81849 0.18182 0.0
C179 C 0.1525 0.87658 0.12914 0.0
O180 O 0.24289 0.86773 0.12368 0.0
O181 O 0.22998 0.81012 0.11154 0.0
O182 O 0.13068 0.78155 0.10855 0.0
O183 O 0.16591 0.82478 0.08297 0.0
O184 O 0.17346 0.76787 0.1439 0.0
O185 O 0.10608 0.73558 0.14192 0.0
O186 O 0.05406 0.7798 0.11641 0.0
O187 O 0.04321 0.75347 0.15551 0.0
O188 O 0.155 0.81696 0.15858 0.0
O189 O 0.10731 0.80247 0.18209 0.0
O190 O 0.11733 0.84601 0.12778 0.0
O191 O 0.18377 0.87362 0.13207 0.0
H192 H 0.31568 0.91605 0.1303 0.0
H193 H 0.38179 0.9339 0.14056 0.0
H194 H 0.35202 0.81392 0.13441 0.0
H195 H 0.28553 0.79621 0.12321 0.0
H196 H 0.95608 0.7367 0.11722 0.0
H197 H 0.91807 0.76927 0.12086 0.0
H198 H 1.00835 0.85869 0.16831 0.0
H199 H 0.04652 0.82629 0.16395 0.0
Tb200 Tb 0.39105 0.17915 0.62879 0.0
Tb201 Tb 0.3366 0.09804 0.64437 0.0
C202 C 0.42709 0.25181 0.62431 0.0
C203 C 0.46468 0.28812 0.62395 0.0
C204 C 0.49167 0.29864 0.64453 0.0
C205 C 0.52331 0.33649 0.64589 0.0
C206 C 0.52793 0.36424 0.62689 0.0
C207 C 0.50221 0.35284 0.60555 0.0
C208 C 0.47098 0.31516 0.60409 0.0
C209 C 0.37293 0.12803 0.59069 0.0
C210 C 0.42883 0.13098 0.64304 0.0
C211 C 0.29228 0.02646 0.65071 0.0
C212 C 0.24937 1.002 0.65132 0.0
C213 C 0.22819 0.98794 0.62784 0.0
C214 C 0.18789 0.96506 0.62833 0.0
C215 C 0.16767 0.95658 0.65228 0.0
C216 C 0.1885 0.97102 0.67578 0.0
C217 C 0.22899 0.99311 0.67535 0.0
C218 C 0.35461 0.14929 0.68231 0.0
C219 C 0.30058 0.14834 0.62832 0.0
O220 O 0.41429 0.23354 0.64677 0.0
O221 O 0.41856 0.2283 0.60433 0.0
O222 O 0.35012 0.12799 0.60791 0.0
O223 O 0.40664 0.15869 0.59351 0.0
O224 O 0.4344 0.16646 0.64205 0.0
O225 O 0.39339 0.10003 0.6422 0.0
O226 O 0.30814 0.04221 0.62809 0.0
O227 O 0.30831 0.05068 0.67022 0.0
O228 O 0.37763 0.14864 0.66557 0.0
O229 O 0.32037 0.12035 0.67807 0.0
O230 O 0.29346 0.11234 0.63047 0.0
O231 O 0.33597 0.17811 0.6297 0.0
H232 H 0.4874 0.27828 0.66014 0.0
H233 H 0.54276 0.34467 0.66255 0.0
H234 H 0.50539 0.37359 0.59051 0.0
H235 H 0.4505 0.30775 0.58809 0.0
H236 H 0.2426 0.99505 0.60899 0.0
H237 H 0.17241 0.95464 0.60991 0.0
H238 H 0.17348 0.96478 0.69451 0.0
H239 H 0.24428 1.00349 0.69382 0.0
Tb240 Tb 0.68418 0.82949 0.42031 0.0
Tb241 Tb 0.73454 0.79086 0.40696 0.0
C242 C 0.64033 0.85768 0.42348 0.0
C243 C 0.60787 0.86078 0.41218 0.0
C244 C 0.61539 0.89735 0.40347 0.0
C245 C 0.58531 0.90348 0.39589 0.0
C246 C 0.54671 0.87313 0.39675 0.0
C247 C 0.53916 0.83609 0.40485 0.0
C248 C 0.56948 0.82997 0.41259 0.0
C249 C 0.71564 0.81184 0.46015 0.0
C250 C 0.64345 0.73982 0.40533 0.0
C251 C 0.78076 0.76629 0.41399 0.0
C252 C 0.82345 0.78579 0.41278 0.0
C253 C 0.84631 0.82228 0.42448 0.0
C254 C 0.88661 0.84061 0.42349 0.0
C255 C 0.90516 0.82309 0.41065 0.0
C256 C 0.88221 0.78664 0.39877 0.0
C257 C 0.84173 0.76819 0.39986 0.0
C258 C 0.71694 0.81672 0.36365 0.0
C259 C 0.77332 0.88245 0.41358 0.0
O260 O 0.67251 0.87327 0.40979 0.0
O261 O 0.63349 0.82585 0.43583 0.0
O262 O 0.70177 0.79304 0.43939 0.0
O263 O 0.71097 0.84171 0.4598 0.0
O264 O 0.64111 0.77203 0.40572 0.0
O265 O 0.67677 0.74001 0.40788 0.0
O266 O 0.76659 0.77749 0.43312 0.0
O267 O 0.76268 0.76226 0.39163 0.0
O268 O 0.70847 0.81845 0.38722 0.0
O269 O 0.73735 0.7996 0.36374 0.0
O270 O 0.77754 0.85155 0.41543 0.0
O271 O 0.73933 0.88026 0.41143 0.0
H272 H 0.64465 0.92177 0.40344 0.0
H273 H 0.59235 0.93256 0.39038 0.0
H274 H 0.50981 0.81194 0.40551 0.0
H275 H 0.56278 0.8015 0.41941 0.0
H276 H 0.83314 0.83669 0.43464 0.0
H277 H 0.9032 0.86828 0.43325 0.0
H278 H 0.89549 0.7725 0.38844 0.0
H279 H 0.82471 0.74017 0.39059 0.0
Tb280 Tb 0.87563 0.67414 0.91484 0.0
Tb281 Tb 0.96405 0.72211 0.89977 0.0
C282 C 0.80393 0.63136 0.92045 0.0
C283 C 0.76737 0.59448 0.9175 0.0
C284 C 0.75789 0.57174 0.89461 0.0
C285 C 0.72016 0.54048 0.89117 0.0
C286 C 0.69159 0.5322 0.91037 0.0
C287 C 0.70182 0.55391 0.93368 0.0
C288 C 0.73937 0.58458 0.93725 0.0
C289 C 0.9267 0.70992 0.95299 0.0
C290 C 0.92262 0.63039 0.90137 0.0
C291 C 0.03523 0.76714 0.90617 0.0
C292 C 0.05876 0.80986 0.90608 0.0
C293 C 0.04429 0.83237 0.91719 0.0
C294 C 0.06641 0.87273 0.91707 0.0
C295 C 0.10344 0.89171 0.90553 0.0
C296 C 0.11784 0.86908 0.8943 0.0
C297 C 0.0957 0.82853 0.89461 0.0
C298 C 0.92064 0.70303 0.85697 0.0
C299 C 0.91247 0.76316 0.90424 0.0
O300 O 0.81994 0.65288 0.89948 0.0
O301 O 0.82913 0.63349 0.93789 0.0
O302 O 0.93016 0.69304 0.93324 0.0
O303 O 0.89167 0.70386 0.95325 0.0
O304 O 0.88861 0.62837 0.9049 0.0
O305 O 0.95611 0.66368 0.90027 0.0
O306 O 1.01045 0.75192 0.92556 0.0
O307 O 1.02024 0.75072 0.88356 0.0
O308 O 0.90989 0.69516 0.88062 0.0
O309 O 0.95813 0.72298 0.85691 0.0
O310 O 0.94751 0.76689 0.90527 0.0
O311 O 0.88035 0.72906 0.90464 0.0
H312 H 0.77907 0.57902 0.87907 0.0
H313 H 0.71277 0.52416 0.87298 0.0
H314 H 0.68031 0.54799 0.94877 0.0
H315 H 0.74604 0.60186 0.95499 0.0
H316 H 1.01592 0.81883 0.92623 0.0
H317 H 0.05457 0.88901 0.92636 0.0
H318 H 0.14602 0.88267 0.88494 0.0
H319 H 0.10733 0.81175 0.88579 0.0
Tb320 Tb 0.23564 0.86758 0.41937 0.0
Tb321 Tb 0.26773 0.94812 0.39737 0.0
C322 C 0.20893 0.79742 0.43116 0.0
C323 C 0.20641 0.75954 0.42773 0.0
C324 C 0.22141 0.75026 0.40563 0.0
C325 C 0.21369 0.71204 0.40197 0.0
C326 C 0.1904 0.68279 0.42014 0.0
C327 C 0.1768 0.69277 0.44261 0.0
C328 C 0.18486 0.73073 0.44639 0.0
C329 C 0.26283 0.92548 0.45394 0.0
C330 C 0.32035 0.90931 0.39508 0.0
C331 C 0.29725 1.02009 0.39204 0.0
C332 C 0.27851 0.04418 0.39259 0.0
C333 C 0.2461 0.0334 0.40883 0.0
C334 C 0.22805 0.05566 0.40974 0.0
C335 C 0.24207 0.0896 0.39459 0.0
C336 C 0.2748 0.10074 0.37849 0.0
C337 C 0.29275 0.07809 0.37741 0.0
C338 C 0.22383 0.89256 0.36384 0.0
C339 C 0.18147 0.90212 0.41621 0.0
O340 O 0.19465 0.80943 0.41254 0.0
O341 O 0.2396 0.82562 0.4424 0.0
O342 O 0.2759 0.92424 0.43194 0.0
O343 O 0.23253 0.89207 0.45829 0.0
O344 O 0.2911 0.87716 0.40499 0.0
O345 O 0.31799 0.94087 0.39003 0.0
O346 O 0.29599 1.00311 0.41441 0.0
O347 O 0.28911 0.99658 0.37195 0.0
O348 O 0.24751 0.89181 0.38003 0.0
O349 O 0.22466 0.92532 0.36637 0.0
O350 O 0.21319 0.9365 0.41571 0.0
O351 O 0.18327 0.87019 0.41387 0.0
H352 H 0.23797 0.77215 0.39095 0.0
H353 H 0.2244 0.70498 0.38445 0.0
H354 H 0.15908 0.67089 0.457 0.0
H355 H 0.17297 0.73731 0.46353 0.0
H356 H 0.23485 1.00792 0.4212 0.0
H357 H 0.20345 0.04659 0.42274 0.0
H358 H 0.28622 0.12669 0.3665 0.0
H359 H 0.31776 0.08709 0.36482 0.0
Tb360 Tb 0.38738 0.22411 0.92118 0.0
Tb361 Tb 0.33672 0.26065 0.90412 0.0
C362 C 0.43333 0.1986 0.92708 0.0
C363 C 0.46788 0.19759 0.91732 0.0
C364 C 0.4675 0.18031 0.89309 0.0
C365 C 0.49694 0.17222 0.88675 0.0
C366 C 0.5274 0.18118 0.90447 0.0
C367 C 0.52875 0.20034 0.92805 0.0
C368 C 0.49927 0.20831 0.93441 0.0
C369 C 0.36007 0.25101 0.9585 0.0
C370 C 0.42741 0.31103 0.90007 0.0
C371 C 0.29062 0.28543 0.91062 0.0
C372 C 0.24915 0.2694 0.90549 0.0
C373 C 0.22949 0.286 0.91776 0.0
C374 C 0.18911 0.26753 0.91681 0.0
C375 C 0.16757 0.23194 0.90362 0.0
C376 C 0.18762 0.21602 0.89063 0.0
C377 C 0.22805 0.23454 0.89162 0.0
C378 C 0.35115 0.22984 0.86281 0.0
C379 C 0.29796 0.1694 0.91467 0.0
O380 O 0.40173 0.18149 0.91288 0.0
O381 O 0.43806 0.23011 0.93861 0.0
O382 O 0.37213 0.2642 0.93605 0.0
O383 O 0.36407 0.22091 0.96179 0.0
O384 O 0.42946 0.2788 0.90232 0.0
O385 O 0.39443 0.31141 0.90288 0.0
O386 O 0.29785 0.26624 0.92858 0.0
O387 O 0.31373 0.29465 0.89006 0.0
O388 O 0.36203 0.23054 0.88624 0.0
O389 O 0.33066 0.24689 0.86222 0.0
O390 O 0.29365 0.20027 0.91308 0.0
O391 O 0.33219 0.17187 0.91588 0.0
H392 H 0.44369 0.17154 0.87947 0.0
H393 H 0.49533 0.15807 0.86822 0.0
H394 H 0.55151 0.20738 0.94228 0.0
H395 H 0.50004 0.22112 0.95337 0.0
H396 H 0.24528 0.31249 0.92899 0.0
H397 H 0.17474 0.28038 0.92738 0.0
H398 H 0.17206 0.18893 0.88003 0.0
H399 H 0.24275 0.221 0.88233 0.0
Tb400 Tb 0.19583 0.37411 0.42184 0.0
Tb401 Tb 0.11346 0.32932 0.40334 0.0
C402 C 0.26687 0.41722 0.43135 0.0
C403 C 0.30328 0.45461 0.42896 0.0
C404 C 0.31287 0.47825 0.40639 0.0
C405 C 0.35068 0.5096 0.40304 0.0
C406 C 0.37936 0.51716 0.42198 0.0
C407 C 0.36895 0.49459 0.44503 0.0
C408 C 0.33132 0.46382 0.44851 0.0
C409 C 0.14254 0.33713 0.45864 0.0
C410 C 0.15018 0.41861 0.40876 0.0
C411 C 0.04254 0.28036 0.40003 0.0
C412 C 1.01887 0.23812 0.40394 0.0
C413 C 1.02874 0.21897 0.42302 0.0
C414 C 1.0055 0.17901 0.42683 0.0
C415 C 0.97209 0.15736 0.41152 0.0
C416 C 0.96287 0.17653 0.39198 0.0
C417 C 0.98604 0.21656 0.38828 0.0
C418 C 0.16375 0.36428 0.36501 0.0
C419 C 0.16257 0.2864 0.41202 0.0
O420 O 0.25335 0.39593 0.41021 0.0
O421 O 0.23951 0.41444 0.44701 0.0
O422 O 0.14045 0.35557 0.4393 0.0
O423 O 0.17595 0.33926 0.45838 0.0
O424 O 0.18427 0.42038 0.40979 0.0
O425 O 0.11729 0.38509 0.40919 0.0
O426 O 0.0587 0.30109 0.42112 0.0
O427 O 0.06615 0.29166 0.37988 0.0
O428 O 0.16864 0.34843 0.38514 0.0
O429 O 0.12864 0.35825 0.36517 0.0
O430 O 0.12798 0.28346 0.41106 0.0
O431 O 0.19448 0.32037 0.41333 0.0
H432 H 0.29174 0.4715 0.39095 0.0
H433 H 0.35804 0.5265 0.38505 0.0
H434 H 0.3904 0.49992 0.45999 0.0
H435 H 0.32465 0.44586 0.46597 0.0
H436 H 0.05424 0.2349 0.43511 0.0
H437 H 1.01368 0.16504 0.4418 0.0
H438 H 0.93716 0.16079 0.38004 0.0
H439 H 0.97807 0.23079 0.37336 0.0
Tb440 Tb 0.83507 0.18005 0.91975 0.0
Tb441 Tb 0.80292 0.09897 0.89902 0.0
C442 C 0.86238 0.25104 0.92961 0.0
C443 C 0.86854 0.28938 0.92116 0.0
C444 C 0.90675 0.32026 0.92013 0.0
C445 C 0.91477 0.35778 0.91426 0.0
C446 C 0.88477 0.36572 0.90908 0.0
C447 C 0.84625 0.33471 0.91012 0.0
C448 C 0.83818 0.29683 0.91614 0.0
C449 C 0.81005 0.12333 0.9557 0.0
C450 C 0.74949 0.13729 0.89782 0.0
C451 C 0.77314 0.02693 0.89399 0.0
C452 C 0.79001 1.00161 0.89023 0.0
C453 C 0.77288 0.96541 0.90281 0.0
C454 C 0.79137 0.94337 0.90306 0.0
C455 C 0.82752 0.95699 0.89064 0.0
C456 C 0.84411 0.99298 0.87743 0.0
C457 C 0.82571 1.01516 0.87741 0.0
C458 C 0.84486 0.15382 0.86401 0.0
C459 C 0.8899 0.14624 0.91492 0.0
O460 O 0.88071 0.23705 0.91623 0.0
O461 O 0.82814 0.22402 0.93766 0.0
O462 O 0.79607 0.12345 0.93381 0.0
O463 O 0.83938 0.15755 0.95932 0.0
O464 O 0.78011 0.17065 0.90457 0.0
O465 O 0.75112 0.10488 0.89513 0.0
O466 O 0.78157 0.04467 0.91672 0.0
O467 O 0.77598 0.04995 0.87447 0.0
O468 O 0.82193 0.15476 0.8808 0.0
O469 O 0.84394 0.12102 0.86645 0.0
O470 O 0.85861 0.11156 0.91575 0.0
O471 O 0.88714 0.1776 0.91205 0.0
H472 H 0.93067 0.31549 0.92442 0.0
H473 H 0.94469 0.38078 0.91439 0.0
H474 H 0.82239 0.33963 0.90614 0.0
H475 H 0.80836 0.27362 0.91705 0.0
H476 H 0.74579 0.95479 0.91335 0.0
H477 H 0.77789 0.91629 0.91387 0.0
H478 H 0.87156 1.00432 0.86731 0.0
H479 H 0.83991 0.04336 0.86798 0.0
H480 H 0.18452 0.93555 0.1646 0.0
H481 H 0.13237 0.90488 0.08717 0.0
H482 H 0.14664 0.97245 0.08034 0.0
H483 H 0.14708 1.00207 0.1797 0.0
H484 H 0.18964 0.03461 0.19813 0.0
H485 H 0.17389 0.98362 0.19711 0.0
H486 H 0.24144 0.99958 0.17995 0.0
H487 H 0.25733 0.05052 0.18072 0.0
H488 H 0.26066 0.02855 0.15055 0.0
H489 H 0.17225 0.04451 0.0806 0.0
H490 H 0.20213 0.11459 0.08908 0.0
H491 H 0.23237 0.09699 0.16811 0.0
C492 C 0.17574 0.94316 0.14639 0.0
C493 C 0.15745 0.91548 0.12633 0.0
C494 C 0.14615 0.92594 0.10275 0.0
C495 C 0.15424 0.96414 0.09872 0.0
C496 C 0.17274 0.99107 0.11877 0.0
C497 C 0.18262 0.98087 0.14237 0.0
C498 C 0.20183 1.01519 0.16083 0.0
C499 C 0.1766 1.00847 0.18539 0.0
C500 C 0.24274 0.02397 0.16844 0.0
C501 C 0.20301 0.04672 0.14344 0.0
C502 C 0.1859 0.03218 0.11933 0.0
C503 C 0.18504 0.0561 0.0996 0.0
C504 C 0.20196 0.09591 0.10467 0.0
C505 C 0.21945 0.11151 0.12934 0.0
C506 C 0.21961 0.08626 0.14896 0.0
H507 H 0.2347 0.13283 0.65583 0.0
H508 H 0.30037 0.18604 0.58474 0.0
H509 H 0.25714 0.21179 0.57426 0.0
H510 H 0.13785 0.10925 0.62933 0.0
H511 H 0.12325 0.12124 0.65987 0.0
H512 H 0.15618 0.10261 0.66019 0.0
H513 H 0.20544 0.16269 0.68659 0.0
H514 H 0.17293 0.18174 0.68605 0.0
H515 H 0.22149 0.21047 0.67349 0.0
H516 H 0.21223 0.2369 0.57335 0.0
H517 H 0.16518 0.25855 0.5809 0.0
H518 H 0.12694 0.1901 0.65281 0.0
C519 C 0.23889 0.14876 0.63765 0.0
C520 C 0.27014 0.15687 0.62069 0.0
C521 C 0.27606 0.17909 0.59762 0.0
C522 C 0.25178 0.19389 0.59157 0.0
C523 C 0.22181 0.18639 0.60892 0.0
C524 C 0.21495 0.1642 0.63141 0.0
C525 C 0.18227 0.16312 0.6475 0.0
C526 C 0.14784 0.12158 0.64932 0.0
C527 C 0.1964 0.18055 0.67503 0.0
C528 C 0.17252 0.18872 0.63071 0.0
C529 C 0.19564 0.20152 0.60851 0.0
C530 C 0.1934 0.22655 0.59039 0.0
C531 C 0.16642 0.23856 0.59482 0.0
C532 C 0.14184 0.22557 0.6172 0.0
C533 C 0.14521 0.20046 0.63548 0.0
H534 H 0.94984 0.17156 0.15109 0.0
H535 H 0.95408 0.06735 0.13263 0.0
H536 H 1.02537 0.10582 0.1306 0.0
H537 H 1.02839 0.23541 0.10754 0.0
H538 H 0.04631 0.27596 0.12977 0.0
H539 H 0.99561 0.24012 0.12967 0.0
H540 H 0.9987 0.22878 0.17969 0.0
H541 H 0.04943 0.26445 0.17993 0.0
H542 H 1.03342 0.21605 0.19174 0.0
H543 H 0.09644 0.15561 0.13138 0.0
H544 H 0.16166 0.21307 0.13387 0.0
H545 H 0.11079 0.28497 0.15061 0.0
C546 C 0.96564 0.15682 0.14626 0.0
C547 C 0.9462 0.1163 0.14211 0.0
C548 C 0.96822 0.09821 0.13629 0.0
C549 C 1.00875 0.11986 0.13493 0.0
C550 C 1.02691 0.15964 0.13932 0.0
C551 C 1.00606 0.17799 0.14473 0.0
C552 C 1.03259 0.22108 0.14872 0.0
C553 C 1.02529 0.24452 0.12767 0.0
C554 C 1.02827 0.23329 0.17669 0.0
C555 C 0.07165 0.22407 0.14494 0.0
C556 C 0.06776 0.18833 0.13952 0.0
C557 C 0.09982 0.18377 0.13552 0.0
C558 C 0.13682 0.21665 0.137 0.0
C559 C 0.14154 0.25366 0.14241 0.0
C560 C 0.10833 0.25717 0.14645 0.0
H561 H 0.80301 0.93665 0.63301 0.0
H562 H 0.91176 0.94042 0.64891 0.0
H563 H 0.94539 1.01196 0.64896 0.0
H564 H 0.83999 1.01761 0.59012 0.0
H565 H 0.80874 0.03472 0.60227 0.0
H566 H 0.79331 0.98388 0.60381 0.0
H567 H 0.7822 0.98369 0.65417 0.0
H568 H 0.79729 0.03447 0.65273 0.0
H569 H 0.82112 1.01762 0.67484 0.0
H570 H 0.9674 0.08377 0.64581 0.0
H571 H 0.97492 0.14922 0.64212 0.0
H572 H 0.85107 0.09686 0.6299 0.0
C573 C 0.83378 0.95239 0.63695 0.0
C574 C 0.85471 0.93282 0.64087 0.0
C575 C 0.89515 0.95473 0.64546 0.0
C576 C 0.9145 0.99539 0.64566 0.0
C577 C 0.89299 1.0137 0.6414 0.0
C578 C 0.85346 0.99284 0.63736 0.0
C579 C 0.83692 1.01928 0.63323 0.0
C580 C 0.81868 1.01352 0.60572 0.0
C581 C 0.80766 1.01342 0.65505 0.0
C582 C 0.87331 0.0583 0.6355 0.0
C583 C 0.90545 0.05464 0.64009 0.0
C584 C 0.94237 0.08697 0.64238 0.0
C585 C 0.94639 0.124 0.64017 0.0
C586 C 0.9136 0.12821 0.6359 0.0
C587 C 0.87675 0.09477 0.63343 0.0
H588 H 0.88142 0.78627 0.15001 0.0
H589 H 0.98885 0.8953 0.14086 0.0
H590 H 0.95227 0.93025 0.14056 0.0
H591 H 0.82539 0.80975 0.10661 0.0
H592 H 0.78187 0.78488 0.1261 0.0
H593 H 0.81675 0.76875 0.12664 0.0
H594 H 0.82134 0.77571 0.17748 0.0
H595 H 0.78642 0.7918 0.17708 0.0
H596 H 0.83298 0.82143 0.19219 0.0
H597 H 0.90315 0.95322 0.1398 0.0
H598 H 0.84593 0.9619 0.1395 0.0
H599 H 0.77123 0.83765 0.14874 0.0
C600 C 0.89734 0.81748 0.14787 0.0
C601 C 0.93813 0.83795 0.14557 0.0
C602 C 0.95771 0.87891 0.1431 0.0
C603 C 0.93715 0.89905 0.14272 0.0
C604 C 0.89696 0.87789 0.14483 0.0
C605 C 0.8773 0.83801 0.14741 0.0
C606 C 0.83403 0.82197 0.14897 0.0
C607 C 0.8133 0.79473 0.12569 0.0
C608 C 0.81775 0.80153 0.17551 0.0
C609 C 0.83237 0.85903 0.14683 0.0
C610 C 0.86891 0.89103 0.14443 0.0
C611 C 0.87442 0.92834 0.14182 0.0
C612 C 0.84173 0.93302 0.14171 0.0
C613 C 0.80402 0.90057 0.14429 0.0
C614 C 0.79958 0.86318 0.14686 0.0
H615 H 0.96283 0.76946 0.62432 0.0
H616 H 0.90861 0.83065 0.65806 0.0
H617 H 0.97329 0.88779 0.66578 0.0
H618 H 0.04368 0.80537 0.66731 0.0
H619 H 0.07734 0.80963 0.64201 0.0
H620 H 1.02688 0.77385 0.63906 0.0
H621 H 1.0243 0.80191 0.59349 0.0
H622 H 0.07481 0.83769 0.59622 0.0
H623 H 0.03962 0.85268 0.59052 0.0
H624 H 0.04461 0.93676 0.67232 0.0
H625 H 0.11629 0.97587 0.67297 0.0
H626 H 0.12299 0.88384 0.63234 0.0
C627 C 0.96451 0.79488 0.63332 0.0
C628 C 0.93069 0.79551 0.64082 0.0
C629 C 0.93414 0.82954 0.65217 0.0
C630 C 0.97075 0.86206 0.65671 0.0
C631 C 1.00354 0.86026 0.64938 0.0
C632 C 1.00068 0.82772 0.63754 0.0
C633 C 0.0402 0.83334 0.63094 0.0
C634 C 0.04744 0.8038 0.64572 0.0
C635 C 0.045 0.83129 0.60101 0.0
C636 C 0.06587 0.87398 0.64121 0.0
C637 C 0.04425 0.88893 0.65201 0.0
C638 C 0.06177 0.92548 0.66368 0.0
C639 C 0.10239 0.94738 0.66408 0.0
C640 C 0.1249 0.93285 0.65257 0.0
C641 C 0.10633 0.89572 0.64101 0.0
H642 H 0.11102 0.83599 0.42063 0.0
H643 H 0.16431 0.96087 0.41273 0.0
H644 H 0.09947 0.95435 0.41006 0.0
H645 H 1.03447 0.81147 0.37533 0.0
H646 H 0.99918 0.77049 0.39408 0.0
H647 H 0.04969 0.78507 0.39638 0.0
H648 H 0.04724 0.79133 0.44707 0.0
H649 H 0.99662 0.77634 0.44498 0.0
H650 H 1.02972 0.82149 0.46068 0.0
H651 H 1.02842 0.93353 0.40628 0.0
H652 H 0.95717 0.90078 0.4044 0.0
H653 H 0.95086 0.7897 0.41589 0.0
C654 C 0.1092 0.8621 0.41859 0.0
C655 C 0.14288 0.89901 0.41698 0.0
C656 C 0.13902 0.93232 0.41422 0.0
C657 C 0.10227 0.92887 0.41255 0.0
C658 C 0.06972 0.89194 0.41376 0.0
C659 C 0.07287 0.85919 0.41695 0.0
C660 C 1.0335 0.82282 0.41753 0.0
C661 C 1.02896 0.79589 0.39446 0.0
C662 C 1.02636 0.80177 0.44415 0.0
C663 C 1.00759 0.84017 0.41415 0.0
C664 C 1.029 0.88005 0.41189 0.0
C665 C 1.01138 0.90235 0.4083 0.0
C666 C 0.97084 0.88345 0.40739 0.0
C667 C 0.94821 0.84261 0.4102 0.0
C668 C 0.96713 0.82085 0.41341 0.0
H669 H 0.18214 0.93798 0.91257 0.0
H670 H 0.07765 0.94342 0.89811 0.0
H671 H 0.11558 1.01475 0.89995 0.0
H672 H 0.22658 1.01693 0.95729 0.0
H673 H 0.27483 0.03469 0.94472 0.0
H674 H 0.2395 0.98396 0.94229 0.0
H675 H 0.25021 0.98654 0.89179 0.0
H676 H 0.28578 0.03723 0.89409 0.0
H677 H 0.24502 1.02156 0.8723 0.0
H678 H 0.16488 0.08579 0.90401 0.0
H679 H 0.22226 0.151 0.90808 0.0
H680 H 0.29463 0.09897 0.91849 0.0
C681 C 0.16721 0.95408 0.90945 0.0
C682 C 0.12675 0.93486 0.90541 0.0
C683 C 0.10845 0.95728 0.90176 0.0
C684 C 0.12979 0.99788 0.90261 0.0
C685 C 0.1695 1.01579 0.90692 0.0
C686 C 0.18809 0.99463 0.91006 0.0
C687 C 0.23111 1.02097 0.91419 0.0
C688 C 0.24373 1.0137 0.94123 0.0
C689 C 0.2544 1.0163 0.89175 0.0
C690 C 0.23375 0.06022 0.9131 0.0
C691 C 0.19791 0.05664 0.90891 0.0
C692 C 0.19313 0.08894 0.90724 0.0
C693 C 0.22592 0.1259 0.90966 0.0
C694 C 0.26307 0.13028 0.91366 0.0
C695 C 0.26674 0.09681 0.9155 0.0
H696 H 0.22924 0.28255 0.4098 0.0
H697 H 0.10408 0.21028 0.41017 0.0
H698 H 0.11072 0.15208 0.40542 0.0
H699 H 0.24809 0.22953 0.3614 0.0
H700 H 0.29147 0.23603 0.37706 0.0
H701 H 0.27686 0.27177 0.3813 0.0
H702 H 0.27754 0.26446 0.43201 0.0
H703 H 0.29243 0.2289 0.42796 0.0
H704 H 0.24958 0.21715 0.44676 0.0
H705 H 0.13141 0.10182 0.3998 0.0
H706 H 0.16414 0.06345 0.39479 0.0
H707 H 0.27575 0.16895 0.39808 0.0
C708 C 0.20312 0.25452 0.40904 0.0
C709 C 0.16607 0.25107 0.41035 0.0
C710 C 0.13276 0.21374 0.4092 0.0
C711 C 0.13626 0.1805 0.40648 0.0
C712 C 0.17325 0.18507 0.40493 0.0
C713 C 0.20607 0.22116 0.40628 0.0
C714 C 0.24248 0.21836 0.40397 0.0
C715 C 0.26611 0.24022 0.37947 0.0
C716 C 0.26694 0.23308 0.42917 0.0
C717 C 0.22509 0.175 0.40093 0.0
C718 C 0.18512 0.1563 0.4016 0.0
C719 C 0.16268 0.11619 0.39933 0.0
C720 C 0.18156 0.09464 0.39657 0.0
C721 C 0.22255 0.11315 0.39606 0.0
C722 C 0.24443 0.15395 0.39807 0.0
H723 H 0.11934 0.26261 0.90044 0.0
H724 H 0.11801 0.15354 0.90934 0.0
H725 H 0.04674 0.11915 0.91304 0.0
H726 H 0.04533 0.24244 0.94765 0.0
H727 H 1.02483 0.26655 0.92921 0.0
H728 H 0.07548 0.28214 0.92596 0.0
H729 H 0.06742 0.27222 0.87539 0.0
H730 H 1.01679 0.25683 0.87849 0.0
H731 H 1.03153 0.22587 0.86255 0.0
H732 H 0.9748 0.09681 0.91677 0.0
H733 H 0.9092 0.0889 0.91933 0.0
H734 H 0.95923 0.21318 0.90959 0.0
C735 C 0.10418 0.23151 0.90324 0.0
C736 C 0.12445 0.21087 0.90452 0.0
C737 C 0.10322 0.17003 0.90785 0.0
C738 C 0.0627 0.15023 0.91018 0.0
C739 C 0.04375 0.17161 0.90918 0.0
C740 C 0.06386 0.21135 0.9057 0.0
C741 C 0.03691 0.22778 0.90563 0.0
C742 C 0.0462 0.25641 0.92848 0.0
C743 C 0.03825 0.24679 0.87893 0.0
C744 C 0.99848 0.19115 0.90979 0.0
C745 C 1.00284 0.15895 0.91171 0.0
C746 C 0.9711 0.12187 0.91535 0.0
C747 C 0.93396 0.11766 0.91686 0.0
C748 C 0.92897 0.15039 0.91484 0.0
C749 C 0.96187 0.18751 0.91139 0.0
H750 H 0.93566 0.09801 0.37554 0.0
H751 H 0.94858 0.12195 0.45946 0.0
H752 H 0.90278 0.05307 0.46875 0.0
H753 H 0.83505 0.03138 0.37658 0.0
H754 H 0.83646 0.99952 0.35199 0.0
H755 H 0.87249 0.05017 0.35178 0.0
H756 H 0.92669 0.0324 0.35379 0.0
H757 H 0.89076 0.98164 0.35403 0.0
H758 H 0.92629 1.00146 0.37991 0.0
H759 H 0.85166 0.98376 0.46909 0.0
H760 H 0.79929 0.91715 0.46037 0.0
H761 H 0.81993 0.9359 0.37652 0.0
C762 C 0.929 0.08867 0.39586 0.0
C763 C 0.94593 0.11538 0.4168 0.0
C764 C 0.93654 0.10198 0.44313 0.0
C765 C 0.91041 0.06292 0.4486 0.0
C766 C 0.8941 0.03746 0.42755 0.0
C767 C 0.90311 0.04962 0.4017 0.0
C768 C 0.8804 1.01635 0.38278 0.0
C769 C 0.85457 0.02487 0.36472 0.0
C770 C 0.90767 1.00744 0.36668 0.0
C771 C 0.85649 0.98387 0.40206 0.0
C772 C 0.86514 0.99678 0.42778 0.0
C773 C 0.84539 0.97302 0.44909 0.0
C774 C 0.81599 0.93508 0.44402 0.0
C775 C 0.80695 0.92107 0.41797 0.0
C776 C 0.82733 0.94574 0.39667 0.0
H777 H 0.8454 0.76601 0.89981 0.0
H778 H 0.97011 0.84005 0.90459 0.0
H779 H 0.96231 0.8978 0.90155 0.0
H780 H 0.82861 0.82295 0.85286 0.0
H781 H 0.78368 0.81359 0.86772 0.0
H782 H 0.79931 0.77845 0.8707 0.0
H783 H 0.79448 0.78016 0.92154 0.0
H784 H 0.77884 0.81532 0.91874 0.0
H785 H 0.82047 0.82584 0.93848 0.0
H786 H 0.94008 0.94772 0.89836 0.0
H787 H 0.90607 0.985 0.895 0.0
H788 H 0.79622 0.87743 0.89047 0.0
C789 C 0.87123 0.79429 0.90026 0.0
C790 C 0.90845 0.79831 0.90249 0.0
C791 C 0.94129 0.83605 0.90293 0.0
C792 C 0.93712 0.86907 0.90121 0.0
C793 C 0.89995 0.86393 0.899 0.0
C794 C 0.86761 0.82741 0.89849 0.0
C795 C 0.83085 0.82949 0.89584 0.0
C796 C 0.80936 0.80997 0.87025 0.0
C797 C 0.80463 0.81165 0.92009 0.0
C798 C 0.84745 0.87294 0.89476 0.0
C799 C 0.88732 0.89236 0.89674 0.0
C800 C 0.90889 0.93272 0.8966 0.0
C801 C 0.88923 0.95368 0.89444 0.0
C802 C 0.84828 0.93439 0.89226 0.0
C803 C 0.82741 0.89335 0.89236 0.0
H804 H 0.20049 0.72203 0.14726 0.0
H805 H 0.0749 0.66351 0.14916 0.0
H806 H 0.07221 0.60037 0.14853 0.0
H807 H 0.2079 0.65775 0.10294 0.0
H808 H 0.24904 0.65922 0.11877 0.0
H809 H 0.24158 0.70011 0.12115 0.0
H810 H 0.24291 0.69686 0.17205 0.0
H811 H 0.25073 0.65614 0.16988 0.0
H812 H 0.21056 0.65213 0.18871 0.0
H813 H 0.0827 0.5436 0.14492 0.0
H814 H 0.10588 0.49679 0.14128 0.0
H815 H 0.22462 0.59164 0.14175 0.0
C816 C 0.17239 0.69599 0.14804 0.0
C817 C 0.13788 0.69791 0.14838 0.0
C818 C 0.10178 0.66298 0.14902 0.0
C819 C 0.09991 0.62688 0.1486 0.0
C820 C 0.13439 0.62605 0.14766 0.0
C821 C 0.16998 0.65963 0.14764 0.0
C822 C 0.20263 0.65059 0.14589 0.0
C823 C 0.2267 0.66795 0.12069 0.0
C824 C 0.22821 0.66477 0.17061 0.0
C825 C 0.17978 0.60668 0.14474 0.0
C826 C 0.14047 0.59318 0.14572 0.0
C827 C 0.11343 0.5538 0.14429 0.0
C828 C 0.12688 0.52744 0.14202 0.0
C829 C 0.16705 0.54046 0.14124 0.0
C830 C 0.19375 0.58071 0.14262 0.0
H831 H 0.6551 0.20965 0.6311 0.0
H832 H 0.63317 0.09473 0.65195 0.0
H833 H 0.56324 0.072 0.65555 0.0
H834 H 0.58471 0.21094 0.67438 0.0
H835 H 0.57112 0.23664 0.65142 0.0
H836 H 0.61928 0.24353 0.65057 0.0
H837 H 0.61057 0.22424 0.60123 0.0
H838 H 0.56239 0.21732 0.60197 0.0
H839 H 0.57002 0.1785 0.59134 0.0
H840 H 0.49439 0.06155 0.65573 0.0
H841 H 0.43434 0.06576 0.65418 0.0
H842 H 0.50305 0.18763 0.63369 0.0
C843 C 0.63561 0.17967 0.63635 0.0
C844 C 0.64973 0.15407 0.64137 0.0
C845 C 0.62317 0.11511 0.64841 0.0
C846 C 0.58333 0.10182 0.65032 0.0
C847 C 0.57039 0.12783 0.64518 0.0
C848 C 0.59585 0.16599 0.63844 0.0
C849 C 0.57482 0.18828 0.63405 0.0
C850 C 0.58828 0.22182 0.65379 0.0
C851 C 0.57975 0.20293 0.60545 0.0
C852 C 0.53361 0.15682 0.63949 0.0
C853 C 0.53137 0.12201 0.6457 0.0
C854 C 0.49589 0.08877 0.65102 0.0
C855 C 0.46193 0.09136 0.65008 0.0
C856 C 0.46388 0.12703 0.6441 0.0
C857 C 0.50034 0.15994 0.63869 0.0
H858 H 0.47201 0.64432 0.13643 0.0
H859 H 0.56702 0.62155 0.12739 0.0
H860 H 0.52069 0.55114 0.12844 0.0
H861 H 0.41606 0.56632 0.18162 0.0
H862 H 0.37022 0.55564 0.16772 0.0
H863 H 0.41089 0.60415 0.16597 0.0
H864 H 0.40363 0.60383 0.11521 0.0
H865 H 0.36292 0.55534 0.11684 0.0
H866 H 0.40377 0.56575 0.09617 0.0
H867 H 0.46354 0.48271 0.13131 0.0
H868 H 0.40019 0.42228 0.13441 0.0
H869 H 0.34331 0.49061 0.14161 0.0
C870 C 0.48314 0.62456 0.13483 0.0
C871 C 0.5232 0.63852 0.13182 0.0
C872 C 0.53644 0.61159 0.1294 0.0
C873 C 0.51036 0.57153 0.13014 0.0
C874 C 0.47109 0.55878 0.13324 0.0
C875 C 0.45753 0.58453 0.13546 0.0
C876 C 0.41395 0.56344 0.13844 0.0
C877 C 0.4021 0.57295 0.16502 0.0
C878 C 0.39496 0.57264 0.11528 0.0
C879 C 0.40511 0.52181 0.13761 0.0
C880 C 0.43838 0.51963 0.13468 0.0
C881 C 0.43727 0.48409 0.13356 0.0
C882 C 0.40117 0.44991 0.13538 0.0
C883 C 0.36669 0.45156 0.13817 0.0
C884 C 0.36899 0.48815 0.13936 0.0
H885 H 0.83824 0.44984 0.62826 0.0
H886 H 0.94806 0.54099 0.65821 0.0
H887 H 0.97114 0.49421 0.6626 0.0
H888 H 0.83189 0.3731 0.67034 0.0
H889 H 0.81094 0.33658 0.64511 0.0
H890 H 0.8026 0.37705 0.64483 0.0
H891 H 0.82938 0.39397 0.59717 0.0
H892 H 0.83774 0.35353 0.59732 0.0
H893 H 0.87697 0.40155 0.59009 0.0
H894 H 0.98358 0.43848 0.66177 0.0
H895 H 0.9834 0.37664 0.65751 0.0
H896 H 0.86503 0.32126 0.62913 0.0
C897 C 0.86706 0.45986 0.63584 0.0
C898 C 0.89122 0.49899 0.64314 0.0
C899 C 0.92877 0.51101 0.65298 0.0
C900 C 0.94226 0.48472 0.65538 0.0
C901 C 0.91779 0.44642 0.64798 0.0
C902 C 0.88091 0.43391 0.63856 0.0
C903 C 0.8606 0.39117 0.63186 0.0
C904 C 0.82437 0.36812 0.64907 0.0
C905 C 0.8506 0.38469 0.60236 0.0
C906 C 0.89191 0.38174 0.63887 0.0
C907 C 0.92473 0.41407 0.648 0.0
C908 C 0.95794 0.41286 0.65485 0.0
C909 C 0.95759 0.37763 0.6523 0.0
C910 C 0.92415 0.34404 0.64318 0.0
C911 C 0.89089 0.34626 0.63651 0.0
H912 H 0.5716 0.87476 0.11716 0.0
H913 H 0.62648 0.97486 0.16849 0.0
H914 H 0.56372 0.97267 0.17396 0.0
H915 H 0.50764 0.90323 0.08462 0.0
H916 H 0.46853 0.85398 0.08181 0.0
H917 H 0.51789 0.86416 0.0817 0.0
H918 H 0.50228 0.81661 0.12075 0.0
H919 H 0.45301 0.80666 0.12122 0.0
H920 H 0.48205 0.82361 0.15061 0.0
H921 H 0.49397 0.95634 0.17637 0.0
H922 H 0.42423 0.93249 0.17154 0.0
H923 H 0.41559 0.8457 0.11596 0.0
C924 C 0.57047 0.89643 0.12938 0.0
C925 C 0.60388 0.92499 0.14248 0.0
C926 C 0.60132 0.95297 0.15814 0.0
C927 C 0.56575 0.95176 0.16149 0.0
C928 C 0.5332 0.92278 0.14868 0.0
C929 C 0.53541 0.89608 0.13253 0.0
C930 C 0.49634 0.86843 0.12055 0.0
C931 C 0.49769 0.87272 0.09038 0.0
C932 C 0.48262 0.82634 0.12879 0.0
C933 C 0.47155 0.88317 0.13295 0.0
C934 C 0.49337 0.9144 0.14921 0.0
C935 C 0.47675 0.93234 0.16333 0.0
C936 C 0.43703 0.91861 0.16034 0.0
C937 C 0.41413 0.88743 0.14309 0.0
C938 C 0.43188 0.86934 0.12948 0.0
H939 H 0.73703 0.55378 0.64068 0.0
H940 H 0.67799 0.62041 0.63558 0.0
H941 H 0.61534 0.55997 0.63466 0.0
H942 H 0.6759 0.47927 0.59702 0.0
H943 H 0.67625 0.44057 0.61526 0.0
H944 H 0.71686 0.48905 0.6173 0.0
H945 H 0.70995 0.4873 0.66809 0.0
H946 H 0.66937 0.4387 0.66625 0.0
H947 H 0.66421 0.47601 0.68258 0.0
H948 H 0.55966 0.49347 0.63103 0.0
H949 H 0.51325 0.42362 0.62663 0.0
H950 H 0.60676 0.39856 0.63514 0.0
C951 C 0.71093 0.55571 0.63968 0.0
C952 C 0.71261 0.59204 0.63819 0.0
C953 C 0.67767 0.59312 0.63678 0.0
C954 C 0.64182 0.55888 0.63626 0.0
C955 C 0.64123 0.52369 0.63737 0.0
C956 C 0.67473 0.52171 0.63927 0.0
C957 C 0.66574 0.47989 0.63945 0.0
C958 C 0.68482 0.47173 0.61585 0.0
C959 C 0.67805 0.46989 0.66566 0.0
C960 C 0.62202 0.45881 0.63679 0.0
C961 C 0.60864 0.4848 0.63568 0.0
C962 C 0.56968 0.47278 0.6321 0.0
C963 C 0.54361 0.43312 0.62948 0.0
C964 C 0.5565 0.40585 0.63052 0.0
C965 C 0.59618 0.41884 0.63453 0.0
H966 H 0.34495 0.86507 0.42001 0.0
H967 H 0.3788 0.95434 0.36023 0.0
H968 H 0.4395 0.95282 0.3527 0.0
H969 H 0.43992 0.90216 0.4473 0.0
H970 H 0.43302 0.85477 0.45442 0.0
H971 H 0.39214 0.86233 0.45418 0.0
H972 H 0.35816 0.80745 0.41984 0.0
H973 H 0.39907 0.7999 0.41981 0.0
H974 H 0.38252 0.80994 0.38935 0.0
H975 H 0.49555 0.93979 0.35118 0.0
H976 H 0.54533 0.92129 0.35834 0.0
H977 H 0.47583 0.84352 0.42131 0.0
C978 C 0.36494 0.88412 0.40514 0.0
C979 C 0.357 0.90948 0.39039 0.0
C980 C 0.38432 0.93459 0.37163 0.0
C981 C 0.41872 0.9338 0.36719 0.0
C982 C 0.42545 0.90812 0.38196 0.0
C983 C 0.39951 0.88414 0.4008 0.0
C984 C 0.41419 0.8605 0.41494 0.0
C985 C 0.42018 0.87056 0.44445 0.0
C986 C 0.38685 0.81686 0.41072 0.0
C987 C 0.45236 0.8745 0.40087 0.0
C988 C 0.45822 0.90177 0.38181 0.0
C989 C 0.49139 0.91874 0.36621 0.0
C990 C 0.51959 0.90812 0.37053 0.0
C991 C 0.51479 0.88109 0.39054 0.0
C992 C 0.48035 0.86383 0.40563 0.0
H993 H 0.65714 0.45343 0.90199 0.0
H994 H 0.63315 0.54791 0.90836 0.0
H995 H 0.56335 0.50195 0.90273 0.0
H996 H 0.58109 0.39528 0.85377 0.0
H997 H 0.56921 0.34982 0.86915 0.0
H998 H 0.61774 0.39041 0.87128 0.0
H999 H 0.61457 0.38502 0.9222 0.0
H1000 H 0.56612 0.34443 0.9202 0.0
H1001 H 0.57569 0.3862 0.93951 0.0
H1002 H 0.4965 0.44624 0.89843 0.0
H1003 H 0.43586 0.38355 0.89823 0.0
H1004 H 0.50195 0.32382 0.89601 0.0
C1005 C 0.6371 0.4643 0.9017 0.0
C1006 C 0.65031 0.50414 0.90532 0.0
C1007 C 0.6234 0.51745 0.90548 0.0
C1008 C 0.5838 0.49162 0.90222 0.0
C1009 C 0.5715 0.45246 0.89896 0.0
C1010 C 0.59721 0.4387 0.89881 0.0
C1011 C 0.57583 0.39483 0.89679 0.0
C1012 C 0.58661 0.38182 0.87122 0.0
C1013 C 0.58351 0.37656 0.92113 0.0
C1014 C 0.53422 0.38621 0.89614 0.0
C1015 C 0.53251 0.41995 0.8971 0.0
C1016 C 0.49742 0.41958 0.8975 0.0
C1017 C 0.46306 0.38372 0.89733 0.0
C1018 C 0.46392 0.34858 0.897 0.0
C1019 C 0.50014 0.35006 0.89603 0.0
H1020 H 0.23505 0.64873 0.41113 0.0
H1021 H 0.11641 0.62343 0.41878 0.0
H1022 H 0.09331 0.55357 0.41417 0.0
H1023 H 0.21621 0.57125 0.36361 0.0
H1024 H 0.2508 0.56049 0.37851 0.0
H1025 H 0.25811 0.6089 0.38013 0.0
H1026 H 0.26245 0.6074 0.43101 0.0
H1027 H 0.25506 0.55901 0.42952 0.0
H1028 H 0.22338 0.56882 0.44928 0.0
H1029 H 0.08293 0.48669 0.41094 0.0
H1030 H 0.08581 0.42638 0.41018 0.0
H1031 H 0.21125 0.49378 0.40567 0.0
C1032 C 0.20424 0.62841 0.41132 0.0
C1033 C 0.17743 0.64136 0.41516 0.0
C1034 C 0.13734 0.614 0.41586 0.0
C1035 C 0.12396 0.57431 0.41319 0.0
C1036 C 0.15103 0.56231 0.4099 0.0
C1037 C 0.19033 0.58843 0.40896 0.0
C1038 C 0.21317 0.56741 0.40673 0.0
C1039 C 0.23592 0.57762 0.38069 0.0
C1040 C 0.2401 0.57619 0.43056 0.0
C1041 C 0.18059 0.52554 0.40694 0.0
C1042 C 0.14501 0.52337 0.40851 0.0
C1043 C 0.11062 0.48798 0.40955 0.0
C1044 C 0.11259 0.45382 0.4091 0.0
C1045 C 0.14872 0.45514 0.40783 0.0
C1046 C 0.18313 0.49164 0.40657 0.0
H1047 H 0.73414 0.19526 0.90962 0.0
H1048 H 0.68006 0.07792 0.87918 0.0
H1049 H 0.61767 0.07709 0.876 0.0
H1050 H 0.6552 0.181 0.94979 0.0
H1051 H 0.66238 0.22881 0.94402 0.0
H1052 H 0.70288 0.22072 0.94246 0.0
H1053 H 0.71863 0.24922 0.89523 0.0
H1054 H 0.67825 0.25755 0.89661 0.0
H1055 H 0.68169 0.22918 0.87023 0.0
H1056 H 0.56065 0.08911 0.8773 0.0
H1057 H 0.51387 0.11181 0.88391 0.0
H1058 H 0.60601 0.22112 0.91387 0.0
C1059 C 0.70939 0.16943 0.90194 0.0
C1060 C 0.7122 0.13671 0.8944 0.0
C1061 C 0.67877 0.10341 0.88492 0.0
C1062 C 0.6432 0.1027 0.88306 0.0
C1063 C 0.64152 0.13544 0.89086 0.0
C1064 C 0.6738 0.16813 0.90017 0.0
C1065 C 0.66427 0.19902 0.90829 0.0
C1066 C 0.67161 0.20789 0.93789 0.0
C1067 C 0.68707 0.23592 0.89158 0.0
C1068 C 0.62149 0.17872 0.90204 0.0
C1069 C 0.60889 0.14214 0.89192 0.0
C1070 C 0.57032 0.1178 0.88503 0.0
C1071 C 0.54399 0.13111 0.88869 0.0
C1072 C 0.55619 0.16842 0.89924 0.0
C1073 C 0.59561 0.19243 0.90587 0.0
H1074 H 0.41347 0.59548 0.41051 0.0
H1075 H 0.43881 0.50263 0.42256 0.0
H1076 H 0.50845 0.54875 0.41639 0.0
H1077 H 0.48939 0.64992 0.36117 0.0
H1078 H 0.50081 0.69654 0.37414 0.0
H1079 H 0.45247 0.65586 0.3774 0.0
H1080 H 0.45567 0.66585 0.42796 0.0
H1081 H 0.50392 0.70655 0.42478 0.0
H1082 H 0.49482 0.66678 0.44627 0.0
H1083 H 0.57518 0.6046 0.41057 0.0
H1084 H 0.63547 0.66746 0.40789 0.0
H1085 H 0.56834 0.72572 0.40089 0.0
C1086 C 0.43375 0.58494 0.41144 0.0
C1087 C 0.42083 0.54548 0.41689 0.0
C1088 C 0.44818 0.53275 0.41845 0.0
C1089 C 0.48775 0.55869 0.41486 0.0
C1090 C 0.49971 0.59744 0.40983 0.0
C1091 C 0.47366 0.61069 0.40823 0.0
C1092 C 0.49471 0.65433 0.40418 0.0
C1093 C 0.48368 0.66477 0.37764 0.0
C1094 C 0.48681 0.67456 0.42717 0.0
C1095 C 0.53652 0.66343 0.40407 0.0
C1096 C 0.53861 0.63006 0.40704 0.0
C1097 C 0.57394 0.63094 0.40811 0.0
C1098 C 0.60811 0.66692 0.40652 0.0
C1099 C 0.60693 0.70178 0.4041 0.0
C1100 C 0.57045 0.69973 0.40255 0.0
H1101 H 0.86847 0.55843 0.91989 0.0
H1102 H 0.97768 0.61859 0.87774 0.0
H1103 H 0.97795 0.55692 0.8734 0.0
H1104 H 0.89226 0.49591 0.95679 0.0
H1105 H 0.84383 0.45496 0.95589 0.0
H1106 H 0.85138 0.50344 0.95465 0.0
H1107 H 0.81224 0.48705 0.91127 0.0
H1108 H 0.80475 0.43856 0.91229 0.0
H1109 H 0.8265 0.46857 0.88365 0.0
H1110 H 0.96575 0.48863 0.87287 0.0
H1111 H 0.94547 0.41988 0.87953 0.0
H1112 H 0.84608 0.40419 0.92468 0.0
C1113 C 0.89232 0.55859 0.90956 0.0
C1114 C 0.92294 0.59337 0.89892 0.0
C1115 C 0.95393 0.5924 0.88601 0.0
C1116 C 0.95423 0.55745 0.88336 0.0
C1117 C 0.92357 0.52373 0.89399 0.0
C1118 C 0.8934 0.52406 0.90711 0.0
C1119 C 0.86498 0.48408 0.91783 0.0
C1120 C 0.86301 0.48465 0.94809 0.0
C1121 C 0.82473 0.46866 0.90552 0.0
C1122 C 0.88375 0.46113 0.90854 0.0
C1123 C 0.91733 0.48457 0.89463 0.0
C1124 C 0.93972 0.47012 0.88396 0.0
C1125 C 0.928 0.43094 0.88801 0.0
C1126 C 0.89439 0.4064 0.90298 0.0
C1127 C 0.87174 0.42184 0.91301 0.0
H1128 H 0.13725 0.35391 0.31417 0.0
H1129 H 0.24101 0.39054 0.36049 0.0
H1130 H 0.27859 0.40034 0.31965 0.0
H1131 H 0.15673 0.29853 0.26869 0.0
H1132 H 0.13678 0.31006 0.24054 0.0
H1133 H 0.11888 0.31024 0.27307 0.0
H1134 H 0.13426 0.38094 0.26599 0.0
H1135 H 0.15239 0.381 0.23343 0.0
H1136 H 0.1826 0.41762 0.25686 0.0
H1137 H 0.30427 0.40402 0.2746 0.0
H1138 H 0.31613 0.39516 0.2283 0.0
H1139 H 0.19507 0.35203 0.21025 0.0
C1140 C 0.16806 0.36475 0.31564 0.0
C1141 C 0.18654 0.37217 0.34049 0.0
C1142 C 0.22652 0.38512 0.3417 0.0
C1143 C 0.24805 0.39086 0.31859 0.0
C1144 C 0.22899 0.38307 0.29442 0.0
C1145 C 0.18982 0.36987 0.29273 0.0
C1146 C 0.17586 0.36034 0.2644 0.0
C1147 C 0.14526 0.31724 0.26151 0.0
C1148 C 0.16036 0.38655 0.25459 0.0
C1149 C 0.21329 0.3698 0.25048 0.0
C1150 C 0.24358 0.38351 0.26824 0.0
C1151 C 0.28083 0.3934 0.26052 0.0
C1152 C 0.28724 0.38824 0.23413 0.0
C1153 C 0.25653 0.3728 0.21569 0.0
C1154 C 0.21915 0.36418 0.22387 0.0
H1155 H 0.94665 0.2081 0.72405 0.0
H1156 H 0.85585 0.22829 0.69569 0.0
H1157 H 0.82616 0.21342 0.74052 0.0
H1158 H 0.88501 0.12701 0.76716 0.0
H1159 H 0.92289 0.14066 0.79116 0.0
H1160 H 0.93497 0.1519 0.75688 0.0
H1161 H 0.97899 0.22424 0.7691 0.0
H1162 H 0.96623 0.21337 0.80333 0.0
H1163 H 0.95871 0.24915 0.78679 0.0
H1164 H 0.81028 0.20099 0.79059 0.0
H1165 H 0.8032 0.18147 0.8377 0.0
H1166 H 0.90328 0.16664 0.83099 0.0
C1167 C 0.92018 0.20888 0.72718 0.0
C1168 C 0.90347 0.21937 0.70659 0.0
C1169 C 0.86881 0.21996 0.71127 0.0
C1170 C 0.85208 0.21193 0.73669 0.0
C1171 C 0.87016 0.20283 0.75689 0.0
C1172 C 0.90296 0.20036 0.75207 0.0
C1173 C 0.91664 0.18905 0.77653 0.0
C1174 C 0.91474 0.14982 0.7727 0.0
C1175 C 0.95756 0.22085 0.78439 0.0
C1176 C 0.88684 0.186 0.79621 0.0
C1177 C 0.86044 0.19449 0.78477 0.0
C1178 C 0.83068 0.19406 0.79957 0.0
C1179 C 0.82713 0.18338 0.82638 0.0
C1180 C 0.8529 0.17284 0.83791 0.0
C1181 C 0.88337 0.17483 0.82266 0.0
H1182 H 0.72434 0.86637 0.2106 0.0
H1183 H 0.64606 0.90945 0.22745 0.0
H1184 H 0.64033 0.88733 0.27362 0.0
H1185 H 0.67949 0.78117 0.25554 0.0
H1186 H 0.72577 0.78745 0.26515 0.0
H1187 H 0.71955 0.80203 0.23273 0.0
H1188 H 0.77702 0.87096 0.24114 0.0
H1189 H 0.78313 0.85688 0.2737 0.0
H1190 H 0.77592 0.89775 0.2694 0.0
H1191 H 0.64815 0.86634 0.31913 0.0
H1192 H 0.66694 0.84524 0.35982 0.0
H1193 H 0.74104 0.81725 0.31351 0.0
C1194 C 0.70506 0.86996 0.22383 0.0
C1195 C 0.68522 0.88914 0.21547 0.0
C1196 C 0.6612 0.89448 0.23351 0.0
C1197 C 0.65783 0.88209 0.25976 0.0
C1198 C 0.6788 0.8645 0.26774 0.0
C1199 C 0.70172 0.85813 0.25026 0.0
C1200 C 0.72346 0.84121 0.2643 0.0
C1201 C 0.71132 0.80054 0.25381 0.0
C1202 C 0.76748 0.86833 0.26199 0.0
C1203 C 0.70956 0.83952 0.29236 0.0
C1204 C 0.6837 0.85294 0.29397 0.0
C1205 C 0.66811 0.85543 0.31807 0.0
C1206 C 0.67905 0.84364 0.34109 0.0
C1207 C 0.70538 0.8297 0.33977 0.0
C1208 C 0.72066 0.82762 0.31507 0.0
H1209 H 0.88975 0.72983 0.70567 0.0
H1210 H 0.7716 0.63623 0.7131 0.0
H1211 H 0.78432 0.62474 0.75914 0.0
H1212 H 0.93641 0.6893 0.74881 0.0
H1213 H 0.96915 0.73633 0.76233 0.0
H1214 H 0.95187 0.73226 0.72906 0.0
H1215 H 0.92723 0.77961 0.74042 0.0
H1216 H 0.94346 0.78306 0.77388 0.0
H1217 H 0.89359 0.76821 0.76728 0.0
H1218 H 0.80858 0.62937 0.80657 0.0
H1219 H 0.84407 0.64633 0.84923 0.0
H1220 H 0.94506 0.73778 0.8099 0.0
C1221 C 0.86723 0.70576 0.71667 0.0
C1222 C 0.83018 0.68289 0.70579 0.0
C1223 C 0.80054 0.6531 0.72104 0.0
C1224 C 0.80743 0.64665 0.74722 0.0
C1225 C 0.84402 0.67067 0.75785 0.0
C1226 C 0.87355 0.69935 0.74288 0.0
C1227 C 0.90914 0.72352 0.75938 0.0
C1228 C 0.94368 0.72012 0.7493 0.0
C1229 C 0.9189 0.7661 0.76028 0.0
C1230 C 0.89515 0.70405 0.78591 0.0
C1231 C 0.85751 0.67373 0.78485 0.0
C1232 C 0.83824 0.6528 0.8075 0.0
C1233 C 0.85836 0.66276 0.83167 0.0
C1234 C 0.89718 0.69322 0.83276 0.0
C1235 C 0.91544 0.71407 0.8096 0.0
H1236 H 0.13014 0.85251 0.22207 0.0
H1237 H 0.21035 0.81597 0.19613 0.0
H1238 H 0.23889 0.82838 0.24119 0.0
H1239 H 0.19703 0.92961 0.26646 0.0
H1240 H 0.15874 0.9199 0.28944 0.0
H1241 H 0.14822 0.9109 0.25484 0.0
H1242 H 0.09627 0.84001 0.26589 0.0
H1243 H 0.10751 0.84841 0.30042 0.0
H1244 H 0.11005 0.80974 0.2839 0.0
H1245 H 0.2537 0.83963 0.29143 0.0
H1246 H 0.26025 0.85812 0.33867 0.0
H1247 H 0.16978 0.88725 0.32958 0.0
C1248 C 0.15438 0.84802 0.2257 0.0
C1249 C 0.16833 0.83358 0.20578 0.0
C1250 C 0.1998 0.82769 0.21115 0.0
C1251 C 0.21577 0.83423 0.23673 0.0
C1252 C 0.20007 0.847 0.25635 0.0
C1253 C 0.17063 0.85467 0.25077 0.0
C1254 C 0.15822 0.86788 0.27487 0.0
C1255 C 0.16604 0.90955 0.27119 0.0
C1256 C 0.11548 0.83983 0.28166 0.0
C1257 C 0.18474 0.86597 0.29523 0.0
C1258 C 0.20862 0.85366 0.28442 0.0
C1259 C 0.23526 0.84951 0.29993 0.0
C1260 C 0.23847 0.8596 0.3268 0.0
C1261 C 0.2153 0.87386 0.33771 0.0
C1262 C 0.18766 0.87619 0.32176 0.0
H1263 H 0.30531 0.20268 0.82085 0.0
H1264 H 0.41565 0.22327 0.85071 0.0
H1265 H 0.43127 0.20752 0.8064 0.0
H1266 H 0.28588 0.12216 0.77815 0.0
H1267 H 0.26306 0.13703 0.75376 0.0
H1268 H 0.26145 0.1479 0.78798 0.0
H1269 H 0.29151 0.22066 0.77588 0.0
H1270 H 0.29419 0.21012 0.74173 0.0
H1271 H 0.33723 0.24495 0.75876 0.0
H1272 H 0.43518 0.19371 0.75635 0.0
H1273 H 0.42327 0.17444 0.70917 0.0
H1274 H 0.30967 0.16294 0.71484 0.0
C1275 C 0.33256 0.20327 0.81823 0.0
C1276 C 0.3593 0.21405 0.83901 0.0
C1277 C 0.39464 0.21458 0.83496 0.0
C1278 C 0.40381 0.20608 0.80984 0.0
C1279 C 0.37708 0.1969 0.78937 0.0
C1280 C 0.34185 0.19476 0.79367 0.0
C1281 C 0.31767 0.18435 0.769 0.0
C1282 C 0.27979 0.14555 0.77243 0.0
C1283 C 0.3097 0.21697 0.76088 0.0
C1284 C 0.3446 0.18093 0.74981 0.0
C1285 C 0.37899 0.18861 0.76159 0.0
C1286 C 0.40822 0.18744 0.74712 0.0
C1287 C 0.40142 0.17686 0.72032 0.0
C1288 C 0.36555 0.16729 0.70855 0.0
C1289 C 0.33734 0.17015 0.72342 0.0
H1290 H 0.32186 0.22361 1.00686 0.0
H1291 H 0.36751 0.32163 0.95308 0.0
H1292 H 0.34034 0.35281 0.98053 0.0
H1293 H 0.23347 0.2222 0.02442 0.0
H1294 H 0.23526 0.21218 0.05889 0.0
H1295 H 0.25721 0.19598 0.03479 0.0
H1296 H 0.3226 0.23231 0.05946 0.0
H1297 H 0.30053 0.24814 0.0837 0.0
H1298 H 0.34324 0.28325 0.06635 0.0
H1299 H 0.30594 0.3727 1.01189 0.0
H1300 H 0.27456 0.38474 0.04999 0.0
H1301 H 0.25467 0.27767 0.086 0.0
C1302 C 0.3262 0.25167 1.00103 0.0
C1303 C 0.34598 0.26967 0.9774 0.0
C1304 C 0.35178 0.30681 0.97075 0.0
C1305 C 0.33637 0.32484 0.98619 0.0
C1306 C 0.31599 0.30602 1.00881 0.0
C1307 C 0.31157 0.27074 1.0167 0.0
C1308 C 0.29006 0.25826 0.04287 0.0
C1309 C 0.25172 0.21987 0.04006 0.0
C1310 C 0.31565 0.25533 0.06437 0.0
C1311 C 0.283 0.29185 0.04807 0.0
C1312 C 0.29776 0.31873 0.02792 0.0
C1313 C 0.29442 0.35199 0.02791 0.0
C1314 C 0.27635 0.35849 0.04945 0.0
C1315 C 0.26234 0.33213 0.07075 0.0
C1316 C 0.26537 0.29826 0.06994 0.0
H1317 H 0.09988 0.36186 0.48588 0.0
H1318 H 0.11397 0.26202 0.47391 0.0
H1319 H 0.05864 0.22333 0.504 0.0
H1320 H 0.07886 0.34356 0.55624 0.0
H1321 H 0.04563 0.3618 0.55632 0.0
H1322 H 0.08506 0.38061 0.53306 0.0
H1323 H 0.03629 0.36301 0.49467 0.0
H1324 H 0.99674 0.34386 0.51782 0.0
H1325 H 0.99712 0.31384 0.49143 0.0
H1326 H 0.99881 0.1948 0.53369 0.0
H1327 H 0.94557 0.18114 0.56497 0.0
H1328 H 0.97573 0.30168 0.56155 0.0
C1329 C 0.09121 0.33183 0.48967 0.0
C1330 C 0.11076 0.31463 0.4775 0.0
C1331 C 0.09925 0.27557 0.48315 0.0
C1332 C 0.0678 0.25341 0.50009 0.0
C1333 C 0.04895 0.27116 0.51182 0.0
C1334 C 0.06084 0.30978 0.5073 0.0
C1335 C 0.03736 0.32264 0.52359 0.0
C1336 C 0.06328 0.35401 0.54348 0.0
C1337 C 1.01558 0.33665 0.50581 0.0
C1338 C 1.0097 0.28504 0.53746 0.0
C1339 C 1.01649 0.25553 0.53018 0.0
C1340 C 0.99355 0.21782 0.5397 0.0
C1341 C 0.96328 0.21024 0.55732 0.0
C1342 C 0.95678 0.24038 0.56566 0.0
C1343 C 0.98032 0.27819 0.55557 0.0
H1344 H 0.78102 0.99529 0.08638 0.0
H1345 H 0.67477 0.907 0.05065 0.0
H1346 H 0.68721 0.9493 1.01177 0.0
H1347 H 0.77527 0.07808 0.06386 0.0
H1348 H 0.82642 0.10781 0.0576 0.0
H1349 H 0.8094 0.07055 0.0825 0.0
H1350 H 0.84615 0.04042 0.05979 0.0
H1351 H 0.8632 0.07747 0.03473 0.0
H1352 H 0.83711 0.02707 0.02551 0.0
H1353 H 0.70823 1.00198 0.97873 0.0
H1354 H 0.74007 0.05927 0.95012 0.0
H1355 H 0.83626 0.11374 1.00474 0.0
C1356 C 0.76048 0.98506 0.07031 0.0
C1357 C 0.72676 0.94808 0.07141 0.0
C1358 C 0.70075 0.93519 0.05 0.0
C1359 C 0.70752 0.95909 0.02796 0.0
C1360 C 0.74071 0.99562 0.02755 0.0
C1361 C 0.76713 1.00846 0.04792 0.0
C1362 C 0.80083 0.04884 0.04206 0.0
C1363 C 0.8031 0.07806 0.06273 0.0
C1364 C 0.83909 0.0484 0.04042 0.0
C1365 C 0.78907 0.05672 1.01525 0.0
C1366 C 0.75402 0.02563 1.00757 0.0
C1367 C 0.73602 0.02615 0.98427 0.0
C1368 C 0.75454 0.05889 0.96807 0.0
C1369 C 0.79126 0.09059 0.97471 0.0
C1370 C 0.80853 0.08971 0.9989 0.0
H1371 H 0.76201 0.68109 0.55644 0.0
H1372 H 0.87313 0.78272 0.57191 0.0
H1373 H 0.85621 0.82144 0.54199 0.0
H1374 H 0.7608 0.70205 0.4862 0.0
H1375 H 0.70918 0.68259 0.48567 0.0
H1376 H 0.73009 0.66359 0.50856 0.0
H1377 H 0.69683 0.67817 0.54723 0.0
H1378 H 0.67617 0.69757 0.52449 0.0
H1379 H 0.70534 0.72672 0.55155 0.0
H1380 H 0.82404 0.84976 0.51342 0.0
H1381 H 0.78396 0.86357 0.48307 0.0
H1382 H 0.69764 0.7418 0.48154 0.0
C1383 C 0.78285 0.71142 0.55321 0.0
C1384 C 0.81883 0.72917 0.56629 0.0
C1385 C 0.8456 0.76875 0.56174 0.0
C1386 C 0.83609 0.7909 0.54497 0.0
C1387 C 0.80016 0.77262 0.53243 0.0
C1388 C 0.77436 0.73354 0.53584 0.0
C1389 C 0.73838 0.72051 0.51923 0.0
C1390 C 0.7344 0.69041 0.49869 0.0
C1391 C 0.70204 0.70482 0.53667 0.0
C1392 C 0.74758 0.75846 0.50625 0.0
C1393 C 0.78304 0.78831 0.51449 0.0
C1394 C 0.7966 0.82646 0.50648 0.0
C1395 C 0.77363 0.83414 0.48931 0.0
C1396 C 0.73815 0.80379 0.47973 0.0
C1397 C 0.72498 0.76548 0.48835 0.0
H1398 H 0.99117 0.77842 0.96697 0.0
H1399 H 0.91734 0.65925 0.99151 0.0
H1400 H 0.96202 0.66899 0.02825 0.0
H1401 H 0.0802 0.78029 0.97851 0.0
H1402 H 0.10627 0.82945 0.99038 0.0
H1403 H 0.0671 0.81522 0.96746 0.0
H1404 H 1.03248 0.83841 0.99932 0.0
H1405 H 0.0718 0.85363 0.02233 0.0
H1406 H 1.0229 0.8205 0.03273 0.0
H1407 H 1.01522 0.68988 0.06031 0.0
H1408 H 0.07333 0.72136 0.08799 0.0
H1409 H 0.11615 0.82744 0.04252 0.0
C1410 C 0.98442 0.75463 0.9803 0.0
C1411 C 0.95089 0.71807 0.97665 0.0
C1412 C 0.94272 0.68749 0.9943 0.0
C1413 C 0.96802 0.69274 1.01506 0.0
C1414 C 1.00147 0.72873 1.01773 0.0
C1415 C 1.00978 0.75929 1.00098 0.0
C1416 C 0.04866 0.79443 1.00776 0.0
C1417 C 0.07725 0.80548 0.98465 0.0
C1418 C 0.04365 0.82877 1.01603 0.0
C1419 C 0.06086 0.77874 0.03092 0.0
C1420 C 1.03298 0.74076 0.03621 0.0
C1421 C 0.03717 0.71961 0.05644 0.0
C1422 C 0.0704 0.73778 0.07201 0.0
C1423 C 0.09924 0.77683 0.06742 0.0
C1424 C 0.09467 0.79751 0.04635 0.0
H1425 H 0.23933 0.93934 0.50258 0.0
H1426 H 0.33597 0.98412 0.44787 0.0
H1427 H 0.37351 0.03996 0.47662 0.0
H1428 H 0.24806 0.02899 0.52428 0.0
H1429 H 0.23887 1.01511 0.55852 0.0
H1430 H 0.21892 0.97862 0.53328 0.0
H1431 H 0.25021 0.94402 0.5562 0.0
H1432 H 0.27596 0.98149 0.58023 0.0
H1433 H 0.30214 0.96732 0.55869 0.0
H1434 H 0.4013 0.0909 0.51062 0.0
H1435 H 0.41775 0.13472 0.54862 0.0
H1436 H 0.30359 0.06013 0.58164 0.0
C1437 C 0.26828 0.96107 0.49669 0.0
C1438 C 0.28433 0.95777 0.47265 0.0
C1439 C 0.32265 0.98638 0.46587 0.0
C1440 C 0.34439 1.01824 0.48213 0.0
C1441 C 0.32775 1.02109 0.50544 0.0
C1442 C 0.29072 0.99337 0.51289 0.0
C1443 C 0.28106 1.00288 0.53981 0.0
C1444 C 0.24456 1.00663 0.5389 0.0
C1445 C 0.27698 0.97209 0.55991 0.0
C1446 C 0.31721 0.04162 0.54524 0.0
C1447 C 0.34415 0.05081 0.52544 0.0
C1448 C 0.38041 0.08415 0.52625 0.0
C1449 C 0.38946 0.10892 0.54791 0.0
C1450 C 0.36216 0.10075 0.56827 0.0
C1451 C 0.32536 0.0668 0.56671 0.0
loop_
_geom_bond_atom_site_label_1
_geom_bond_atom_site_label_2
_geom_bond_distance
_geom_bond_site_symmetry_2
_ccdc_geom_bond_type
Tb0 C2 2.809 . S
Tb0 O20 2.484 . S
Tb0 O21 2.440 . S
Tb0 O22 2.658 . S
Tb0 O23 2.409 . S
Tb0 O24 2.378 . S
Tb0 O28 2.325 . S
Tb0 O31 2.341 . S
Tb1 C11 2.809 . S
Tb1 O22 2.325 . S
Tb1 O25 2.341 . S
Tb1 O26 2.484 . S
Tb1 O27 2.440 . S
Tb1 O28 2.658 . S
Tb1 O29 2.409 . S
Tb1 O30 2.378 . S
C2 Tb0 2.809 . S
C2 C3 1.514 . S
C2 O20 1.248 . S
C2 O21 1.266 . S
C3 C2 1.514 . S
C3 C4 1.359 . S
C3 C8 1.348 . S
C4 C3 1.359 . S
C4 C5 1.380 . S
C4 H32 0.929 . S
C5 C4 1.380 . S
C5 C6 1.347 . S
C5 H33 0.931 . S
C6 C5 1.347 . S
C6 C7 1.369 . S
C7 C6 1.369 . S
C7 C8 1.408 . S
C7 H34 0.930 . S
C8 C3 1.348 . S
C8 C7 1.408 . S
C8 H35 0.930 . S
C9 O22 1.281 . S
C9 O23 1.254 . S
C10 O24 1.236 . S
C10 O25 1.266 . S
C11 Tb1 2.809 . S
C11 C12 1.514 . S
C11 O26 1.248 . S
C11 O27 1.266 . S
C12 C11 1.514 . S
C12 C13 1.359 . S
C12 C17 1.348 . S
C13 C12 1.359 . S
C13 C14 1.380 . S
C13 H36 0.929 . S
C14 C13 1.380 . S
C14 C15 1.347 . S
C14 H37 0.931 . S
C15 C14 1.347 . S
C15 C16 1.369 . S
C16 C15 1.369 . S
C16 C17 1.408 . S
C16 H38 0.930 . S
C17 C12 1.348 . S
C17 C16 1.408 . S
C17 H39 0.930 . S
C18 O28 1.281 . S
C18 O29 1.254 . S
C19 O30 1.236 . S
C19 O31 1.266 . S
O20 Tb0 2.484 . S
O20 C2 1.248 . S
O21 Tb0 2.440 . S
O21 C2 1.266 . S
O22 Tb0 2.658 . S
O22 Tb1 2.325 . S
O22 C9 1.281 . S
O23 Tb0 2.409 . S
O23 C9 1.254 . S
O24 Tb0 2.378 . S
O24 C10 1.236 . S
O25 Tb1 2.341 . S
O25 C10 1.266 . S
O26 Tb1 2.484 . S
O26 C11 1.248 . S
O27 Tb1 2.440 . S
O27 C11 1.266 . S
O28 Tb0 2.325 . S
O28 Tb1 2.658 . S
O28 C18 1.281 . S
O29 Tb1 2.409 . S
O29 C18 1.254 . S
O30 Tb1 2.378 . S
O30 C19 1.236 . S
O31 Tb0 2.341 . S
O31 C19 1.266 . S
H32 C4 0.929 . S
H33 C5 0.931 . S
H34 C7 0.930 . S
H35 C8 0.930 . S
H36 C13 0.929 . S
H37 C14 0.931 . S
H38 C16 0.930 . S
H39 C17 0.930 . S
Tb40 C42 2.809 . S
Tb40 O60 2.484 . S
Tb40 O61 2.440 . S
Tb40 O62 2.658 . S
Tb40 O63 2.409 . S
Tb40 O64 2.378 . S
Tb40 O68 2.325 . S
Tb40 O71 2.341 . S
Tb41 C51 2.809 . S
Tb41 O62 2.325 . S
Tb41 O65 2.341 . S
Tb41 O66 2.484 . S
Tb41 O67 2.440 . S
Tb41 O68 2.658 . S
Tb41 O69 2.409 . S
Tb41 O70 2.378 . S
C42 Tb40 2.809 . S
C42 C43 1.514 . S
C42 O60 1.248 . S
C42 O61 1.266 . S
C43 C42 1.514 . S
C43 C44 1.359 . S
C43 C48 1.348 . S
C44 C43 1.359 . S
C44 C45 1.380 . S
C44 H72 0.929 . S
C45 C44 1.380 . S
C45 C46 1.347 . S
C45 H73 0.931 . S
C46 C45 1.347 . S
C46 C47 1.369 . S
C47 C46 1.369 . S
C47 C48 1.408 . S
C47 H74 0.930 . S
C48 C43 1.348 . S
C48 C47 1.408 . S
C48 H75 0.930 . S
C49 O62 1.281 . S
C49 O63 1.254 . S
C50 O64 1.236 . S
C50 O65 1.266 . S
C51 Tb41 2.809 . S
C51 C52 1.478 1_655 S
C51 O66 1.248 . S
C51 O67 1.266 . S
C52 C51 1.478 1_455 S
C52 C53 1.378 . S
C52 C57 1.365 . S
C53 C52 1.378 . S
C53 C54 1.380 . S
C53 H76 0.929 . S
C54 C53 1.380 . S
C54 C55 1.347 . S
C54 H77 0.931 . S
C55 C54 1.347 . S
C55 C56 1.369 . S
C56 C55 1.369 . S
C56 C57 1.408 . S
C56 H78 0.930 . S
C57 C52 1.365 . S
C57 C56 1.408 . S
C57 H79 0.930 . S
C58 O68 1.281 . S
C58 O69 1.254 . S
C59 O70 1.236 . S
C59 O71 1.266 . S
O60 Tb40 2.484 . S
O60 C42 1.248 . S
O61 Tb40 2.440 . S
O61 C42 1.266 . S
O62 Tb40 2.658 . S
O62 Tb41 2.325 . S
O62 C49 1.281 . S
O63 Tb40 2.409 . S
O63 C49 1.254 . S
O64 Tb40 2.378 . S
O64 C50 1.236 . S
O65 Tb41 2.341 . S
O65 C50 1.266 . S
O66 Tb41 2.484 . S
O66 C51 1.248 . S
O67 Tb41 2.440 . S
O67 C51 1.266 . S
O68 Tb40 2.325 . S
O68 Tb41 2.658 . S
O68 C58 1.281 . S
O69 Tb41 2.409 . S
O69 C58 1.254 . S
O70 Tb41 2.378 . S
O70 C59 1.236 . S
O71 Tb40 2.341 . S
O71 C59 1.266 . S
H72 C44 0.929 . S
H73 C45 0.931 . S
H74 C47 0.930 . S
H75 C48 0.930 . S
H76 C53 0.929 . S
H77 C54 0.931 . S
H78 C56 0.930 . S
H79 C57 0.930 . S
Tb80 C82 2.809 . S
Tb80 O100 2.484 . S
Tb80 O101 2.440 . S
Tb80 O102 2.658 . S
Tb80 O103 2.409 . S
Tb80 O104 2.378 . S
Tb80 O108 2.325 . S
Tb80 O111 2.341 . S
Tb81 C91 2.809 . S
Tb81 O102 2.325 . S
Tb81 O105 2.341 . S
Tb81 O106 2.484 . S
Tb81 O107 2.440 . S
Tb81 O108 2.658 . S
Tb81 O109 2.409 . S
Tb81 O110 2.378 . S
C82 Tb80 2.809 . S
C82 C83 1.514 . S
C82 O100 1.248 . S
C82 O101 1.266 . S
C83 C82 1.514 . S
C83 C84 1.359 . S
C83 C88 1.348 . S
C84 C83 1.359 . S
C84 C85 1.380 . S
C84 H112 0.929 . S
C85 C84 1.380 . S
C85 C86 1.347 . S
C85 H113 0.931 . S
C86 C85 1.347 . S
C86 C87 1.369 . S
C87 C86 1.369 . S
C87 C88 1.408 . S
C87 H114 0.930 . S
C88 C83 1.348 . S
C88 C87 1.408 . S
C88 H115 0.930 . S
C89 O102 1.281 . S
C89 O103 1.254 . S
C90 O104 1.236 . S
C90 O105 1.266 . S
C91 Tb81 2.809 . S
C91 C92 1.504 1_565 S
C91 O106 1.248 . S
C91 O107 1.266 . S
C92 C91 1.504 1_545 S
C92 C93 1.364 . S
C92 C97 1.355 . S
C93 C92 1.364 . S
C93 C94 1.380 . S
C93 H116 0.929 . S
C94 C93 1.380 . S
C94 C95 1.347 . S
C94 H117 0.931 . S
C95 C94 1.347 . S
C95 C96 1.369 . S
C96 C95 1.369 . S
C96 C97 1.408 . S
C96 H118 0.930 . S
C97 C92 1.355 . S
C97 C96 1.408 . S
C97 H119 0.930 . S
C98 O108 1.281 . S
C98 O109 1.254 . S
C99 O110 1.236 . S
C99 O111 1.266 . S
O100 Tb80 2.484 . S
O100 C82 1.248 . S
O101 Tb80 2.440 . S
O101 C82 1.266 . S
O102 Tb80 2.658 . S
O102 Tb81 2.325 . S
O102 C89 1.281 . S
O103 Tb80 2.409 . S
O103 C89 1.254 . S
O104 Tb80 2.378 . S
O104 C90 1.236 . S
O105 Tb81 2.341 . S
O105 C90 1.266 . S
O106 Tb81 2.484 . S
O106 C91 1.248 . S
O107 Tb81 2.440 . S
O107 C91 1.266 . S
O108 Tb80 2.325 . S
O108 Tb81 2.658 . S
O108 C98 1.281 . S
O109 Tb81 2.409 . S
O109 C98 1.254 . S
O110 Tb81 2.378 . S
O110 C99 1.236 . S
O111 Tb80 2.341 . S
O111 C99 1.266 . S
H112 C84 0.929 . S
H113 C85 0.931 . S
H114 C87 0.930 . S
H115 C88 0.930 . S
H116 C93 0.929 . S
H117 C94 0.931 . S
H118 C96 0.930 . S
H119 C97 0.930 . S
Tb120 C122 2.809 . S
Tb120 O140 2.484 . S
Tb120 O141 2.440 . S
Tb120 O142 2.658 . S
Tb120 O143 2.409 . S
Tb120 O144 2.378 . S
Tb120 O148 2.325 . S
Tb120 O151 2.341 . S
Tb121 C131 2.809 . S
Tb121 O142 2.325 . S
Tb121 O145 2.341 . S
Tb121 O146 2.484 . S
Tb121 O147 2.440 . S
Tb121 O148 2.658 . S
Tb121 O149 2.409 . S
Tb121 O150 2.378 . S
C122 Tb120 2.809 . S
C122 C123 1.514 . S
C122 O140 1.248 . S
C122 O141 1.266 . S
C123 C122 1.514 . S
C123 C124 1.359 . S
C123 C128 1.348 . S
C124 C123 1.359 . S
C124 C125 1.380 . S
C124 H152 0.929 . S
C125 C124 1.380 . S
C125 C126 1.347 . S
C125 H153 0.931 . S
C126 C125 1.347 . S
C126 C127 1.369 . S
C127 C126 1.369 . S
C127 C128 1.408 . S
C127 H154 0.930 . S
C128 C123 1.348 . S
C128 C127 1.408 . S
C128 H155 0.930 . S
C129 O142 1.281 . S
C129 O143 1.254 . S
C130 O144 1.236 . S
C130 O145 1.266 . S
C131 Tb121 2.809 . S
C131 C132 1.514 . S
C131 O146 1.248 . S
C131 O147 1.266 . S
C132 C131 1.514 . S
C132 C133 1.359 . S
C132 C137 1.348 . S
C133 C132 1.359 . S
C133 C134 1.380 . S
C133 H156 0.929 . S
C134 C133 1.380 . S
C134 C135 1.347 . S
C134 H157 0.931 . S
C135 C134 1.347 . S
C135 C136 1.369 . S
C136 C135 1.369 . S
C136 C137 1.408 . S
C136 H158 0.930 . S
C137 C132 1.348 . S
C137 C136 1.408 . S
C137 H159 0.930 . S
C138 O148 1.281 . S
C138 O149 1.254 . S
C139 O150 1.236 . S
C139 O151 1.266 . S
O140 Tb120 2.484 . S
O140 C122 1.248 . S
O141 Tb120 2.440 . S
O141 C122 1.266 . S
O142 Tb120 2.658 . S
O142 Tb121 2.325 . S
O142 C129 1.281 . S
O143 Tb120 2.409 . S
O143 C129 1.254 . S
O144 Tb120 2.378 . S
O144 C130 1.236 . S
O145 Tb121 2.341 . S
O145 C130 1.266 . S
O146 Tb121 2.484 . S
O146 C131 1.248 . S
O147 Tb121 2.440 . S
O147 C131 1.266 . S
O148 Tb120 2.325 . S
O148 Tb121 2.658 . S
O148 C138 1.281 . S
O149 Tb121 2.409 . S
O149 C138 1.254 . S
O150 Tb121 2.378 . S
O150 C139 1.236 . S
O151 Tb120 2.341 . S
O151 C139 1.266 . S
H152 C124 0.929 . S
H153 C125 0.931 . S
H154 C127 0.930 . S
H155 C128 0.930 . S
H156 C133 0.929 . S
H157 C134 0.931 . S
H158 C136 0.930 . S
H159 C137 0.930 . S
Tb160 C162 2.809 . S
Tb160 O180 2.484 . S
Tb160 O181 2.440 . S
Tb160 O182 2.658 . S
Tb160 O183 2.409 . S
Tb160 O184 2.378 . S
Tb160 O188 2.325 . S
Tb160 O191 2.341 . S
Tb161 C171 2.809 . S
Tb161 O182 2.325 . S
Tb161 O185 2.341 . S
Tb161 O186 2.484 . S
Tb161 O187 2.440 . S
Tb161 O188 2.658 . S
Tb161 O189 2.409 . S
Tb161 O190 2.378 . S
C162 Tb160 2.809 . S
C162 C163 1.514 . S
C162 O180 1.248 . S
C162 O181 1.266 . S
C163 C162 1.514 . S
C163 C164 1.359 . S
C163 C168 1.348 . S
C164 C163 1.359 . S
C164 C165 1.380 . S
C164 H192 0.929 . S
C165 C164 1.380 . S
C165 C166 1.347 . S
C165 H193 0.931 . S
C166 C165 1.347 . S
C166 C167 1.369 . S
C167 C166 1.369 . S
C167 C168 1.408 . S
C167 H194 0.930 . S
C168 C163 1.348 . S
C168 C167 1.408 . S
C168 H195 0.930 . S
C169 O182 1.281 . S
C169 O183 1.254 . S
C170 O184 1.236 . S
C170 O185 1.266 . S
C171 Tb161 2.809 . S
C171 C172 1.478 1_455 S
C171 O186 1.248 . S
C171 O187 1.266 . S
C172 C171 1.478 1_655 S
C172 C173 1.378 . S
C172 C177 1.365 . S
C173 C172 1.378 . S
C173 C174 1.380 . S
C173 H196 0.929 . S
C174 C173 1.380 . S
C174 C175 1.347 . S
C174 H197 0.931 . S
C175 C174 1.347 . S
C175 C176 1.369 . S
C176 C175 1.369 . S
C176 C177 1.408 . S
C176 H198 0.930 . S
C177 C172 1.365 . S
C177 C176 1.408 . S
C177 H199 0.930 . S
C178 O188 1.281 . S
C178 O189 1.254 . S
C179 O190 1.236 . S
C179 O191 1.266 . S
O180 Tb160 2.484 . S
O180 C162 1.248 . S
O181 Tb160 2.440 . S
O181 C162 1.266 . S
O182 Tb160 2.658 . S
O182 Tb161 2.325 . S
O182 C169 1.281 . S
O183 Tb160 2.409 . S
O183 C169 1.254 . S
O184 Tb160 2.378 . S
O184 C170 1.236 . S
O185 Tb161 2.341 . S
O185 C170 1.266 . S
O186 Tb161 2.484 . S
O186 C171 1.248 . S
O187 Tb161 2.440 . S
O187 C171 1.266 . S
O188 Tb160 2.325 . S
O188 Tb161 2.658 . S
O188 C178 1.281 . S
O189 Tb161 2.409 . S
O189 C178 1.254 . S
O190 Tb161 2.378 . S
O190 C179 1.236 . S
O191 Tb160 2.341 . S
O191 C179 1.266 . S
H192 C164 0.929 . S
H193 C165 0.931 . S
H194 C167 0.930 . S
H195 C168 0.930 . S
H196 C173 0.929 . S
H197 C174 0.931 . S
H198 C176 0.930 . S
H199 C177 0.930 . S
Tb200 C202 2.809 . S
Tb200 O220 2.484 . S
Tb200 O221 2.440 . S
Tb200 O222 2.658 . S
Tb200 O223 2.409 . S
Tb200 O224 2.378 . S
Tb200 O228 2.325 . S
Tb200 O231 2.341 . S
Tb201 C211 2.809 . S
Tb201 O222 2.325 . S
Tb201 O225 2.341 . S
Tb201 O226 2.484 . S
Tb201 O227 2.440 . S
Tb201 O228 2.658 . S
Tb201 O229 2.409 . S
Tb201 O230 2.378 . S
C202 Tb200 2.809 . S
C202 C203 1.514 . S
C202 O220 1.248 . S
C202 O221 1.266 . S
C203 C202 1.514 . S
C203 C204 1.359 . S
C203 C208 1.348 . S
C204 C203 1.359 . S
C204 C205 1.380 . S
C204 H232 0.929 . S
C205 C204 1.380 . S
C205 C206 1.347 . S
C205 H233 0.931 . S
C206 C205 1.347 . S
C206 C207 1.369 . S
C207 C206 1.369 . S
C207 C208 1.408 . S
C207 H234 0.930 . S
C208 C203 1.348 . S
C208 C207 1.408 . S
C208 H235 0.930 . S
C209 O222 1.281 . S
C209 O223 1.254 . S
C210 O224 1.236 . S
C210 O225 1.266 . S
C211 Tb201 2.809 . S
C211 C212 1.504 1_545 S
C211 O226 1.248 . S
C211 O227 1.266 . S
C212 C211 1.504 1_565 S
C212 C213 1.364 . S
C212 C217 1.355 . S
C213 C212 1.364 . S
C213 C214 1.380 . S
C213 H236 0.929 . S
C214 C213 1.380 . S
C214 C215 1.347 . S
C214 H237 0.931 . S
C215 C214 1.347 . S
C215 C216 1.369 . S
C216 C215 1.369 . S
C216 C217 1.408 . S
C216 H238 0.930 . S
C217 C212 1.355 . S
C217 C216 1.408 . S
C217 H239 0.930 . S
C218 O228 1.281 . S
C218 O229 1.254 . S
C219 O230 1.236 . S
C219 O231 1.266 . S
O220 Tb200 2.484 . S
O220 C202 1.248 . S
O221 Tb200 2.440 . S
O221 C202 1.266 . S
O222 Tb200 2.658 . S
O222 Tb201 2.325 . S
O222 C209 1.281 . S
O223 Tb200 2.409 . S
O223 C209 1.254 . S
O224 Tb200 2.378 . S
O224 C210 1.236 . S
O225 Tb201 2.341 . S
O225 C210 1.266 . S
O226 Tb201 2.484 . S
O226 C211 1.248 . S
O227 Tb201 2.440 . S
O227 C211 1.266 . S
O228 Tb200 2.325 . S
O228 Tb201 2.658 . S
O228 C218 1.281 . S
O229 Tb201 2.409 . S
O229 C218 1.254 . S
O230 Tb201 2.378 . S
O230 C219 1.236 . S
O231 Tb200 2.341 . S
O231 C219 1.266 . S
H232 C204 0.929 . S
H233 C205 0.931 . S
H234 C207 0.930 . S
H235 C208 0.930 . S
H236 C213 0.929 . S
H237 C214 0.931 . S
H238 C216 0.930 . S
H239 C217 0.930 . S
Tb240 C242 2.809 . S
Tb240 O260 2.484 . S
Tb240 O261 2.440 . S
Tb240 O262 2.658 . S
Tb240 O263 2.409 . S
Tb240 O264 2.378 . S
Tb240 O268 2.325 . S
Tb240 O271 2.341 . S
Tb241 C251 2.809 . S
Tb241 O262 2.325 . S
Tb241 O265 2.341 . S
Tb241 O266 2.484 . S
Tb241 O267 2.440 . S
Tb241 O268 2.658 . S
Tb241 O269 2.409 . S
Tb241 O270 2.378 . S
C242 Tb240 2.809 . S
C242 C243 1.514 . S
C242 O260 1.248 . S
C242 O261 1.266 . S
C243 C242 1.514 . S
C243 C244 1.359 . S
C243 C248 1.348 . S
C244 C243 1.359 . S
C244 C245 1.380 . S
C244 H272 0.929 . S
C245 C244 1.380 . S
C245 C246 1.347 . S
C245 H273 0.931 . S
C246 C245 1.347 . S
C246 C247 1.369 . S
C247 C246 1.369 . S
C247 C248 1.408 . S
C247 H274 0.930 . S
C248 C243 1.348 . S
C248 C247 1.408 . S
C248 H275 0.930 . S
C249 O262 1.281 . S
C249 O263 1.254 . S
C250 O264 1.236 . S
C250 O265 1.266 . S
C251 Tb241 2.809 . S
C251 C252 1.514 . S
C251 O266 1.248 . S
C251 O267 1.266 . S
C252 C251 1.514 . S
C252 C253 1.359 . S
C252 C257 1.348 . S
C253 C252 1.359 . S
C253 C254 1.380 . S
C253 H276 0.929 . S
C254 C253 1.380 . S
C254 C255 1.347 . S
C254 H277 0.931 . S
C255 C254 1.347 . S
C255 C256 1.369 . S
C256 C255 1.369 . S
C256 C257 1.408 . S
C256 H278 0.930 . S
C257 C252 1.348 . S
C257 C256 1.408 . S
C257 H279 0.930 . S
C258 O268 1.281 . S
C258 O269 1.254 . S
C259 O270 1.236 . S
C259 O271 1.266 . S
O260 Tb240 2.484 . S
O260 C242 1.248 . S
O261 Tb240 2.440 . S
O261 C242 1.266 . S
O262 Tb240 2.658 . S
O262 Tb241 2.325 . S
O262 C249 1.281 . S
O263 Tb240 2.409 . S
O263 C249 1.254 . S
O264 Tb240 2.378 . S
O264 C250 1.236 . S
O265 Tb241 2.341 . S
O265 C250 1.266 . S
O266 Tb241 2.484 . S
O266 C251 1.248 . S
O267 Tb241 2.440 . S
O267 C251 1.266 . S
O268 Tb240 2.325 . S
O268 Tb241 2.658 . S
O268 C258 1.281 . S
O269 Tb241 2.409 . S
O269 C258 1.254 . S
O270 Tb241 2.378 . S
O270 C259 1.236 . S
O271 Tb240 2.341 . S
O271 C259 1.266 . S
H272 C244 0.929 . S
H273 C245 0.931 . S
H274 C247 0.930 . S
H275 C248 0.930 . S
H276 C253 0.929 . S
H277 C254 0.931 . S
H278 C256 0.930 . S
H279 C257 0.930 . S
Tb280 C282 2.809 . S
Tb280 O300 2.484 . S
Tb280 O301 2.440 . S
Tb280 O302 2.658 . S
Tb280 O303 2.409 . S
Tb280 O304 2.378 . S
Tb280 O308 2.325 . S
Tb280 O311 2.341 . S
Tb281 C291 2.809 . S
Tb281 O302 2.325 . S
Tb281 O305 2.341 . S
Tb281 O306 2.484 . S
Tb281 O307 2.440 . S
Tb281 O308 2.658 . S
Tb281 O309 2.409 . S
Tb281 O310 2.378 . S
C282 Tb280 2.809 . S
C282 C283 1.514 . S
C282 O300 1.248 . S
C282 O301 1.266 . S
C283 C282 1.514 . S
C283 C284 1.359 . S
C283 C288 1.348 . S
C284 C283 1.359 . S
C284 C285 1.380 . S
C284 H312 0.929 . S
C285 C284 1.380 . S
C285 C286 1.347 . S
C285 H313 0.931 . S
C286 C285 1.347 . S
C286 C287 1.369 . S
C287 C286 1.369 . S
C287 C288 1.408 . S
C287 H314 0.930 . S
C288 C283 1.348 . S
C288 C287 1.408 . S
C288 H315 0.930 . S
C289 O302 1.281 . S
C289 O303 1.254 . S
C290 O304 1.236 . S
C290 O305 1.266 . S
C291 Tb281 2.809 . S
C291 C292 1.504 1_655 S
C291 O306 1.248 . S
C291 O307 1.266 . S
C292 C291 1.504 1_455 S
C292 C293 1.364 . S
C292 C297 1.355 . S
C293 C292 1.364 . S
C293 C294 1.380 . S
C293 H316 0.929 . S
C294 C293 1.380 . S
C294 C295 1.347 . S
C294 H317 0.931 . S
C295 C294 1.347 . S
C295 C296 1.369 . S
C296 C295 1.369 . S
C296 C297 1.408 . S
C296 H318 0.930 . S
C297 C292 1.355 . S
C297 C296 1.408 . S
C297 H319 0.930 . S
C298 O308 1.281 . S
C298 O309 1.254 . S
C299 O310 1.236 . S
C299 O311 1.266 . S
O300 Tb280 2.484 . S
O300 C282 1.248 . S
O301 Tb280 2.440 . S
O301 C282 1.266 . S
O302 Tb280 2.658 . S
O302 Tb281 2.325 . S
O302 C289 1.281 . S
O303 Tb280 2.409 . S
O303 C289 1.254 . S
O304 Tb280 2.378 . S
O304 C290 1.236 . S
O305 Tb281 2.341 . S
O305 C290 1.266 . S
O306 Tb281 2.484 . S
O306 C291 1.248 . S
O307 Tb281 2.440 . S
O307 C291 1.266 . S
O308 Tb280 2.325 . S
O308 Tb281 2.658 . S
O308 C298 1.281 . S
O309 Tb281 2.409 . S
O309 C298 1.254 . S
O310 Tb281 2.378 . S
O310 C299 1.236 . S
O311 Tb280 2.341 . S
O311 C299 1.266 . S
H312 C284 0.929 . S
H313 C285 0.931 . S
H314 C287 0.930 . S
H315 C288 0.930 . S
H316 C293 0.929 . S
H317 C294 0.931 . S
H318 C296 0.930 . S
H319 C297 0.930 . S
Tb320 C322 2.809 . S
Tb320 O340 2.484 . S
Tb320 O341 2.440 . S
Tb320 O342 2.658 . S
Tb320 O343 2.409 . S
Tb320 O344 2.378 . S
Tb320 O348 2.325 . S
Tb320 O351 2.341 . S
Tb321 C331 2.809 . S
Tb321 O342 2.325 . S
Tb321 O345 2.341 . S
Tb321 O346 2.484 . S
Tb321 O347 2.440 . S
Tb321 O348 2.658 . S
Tb321 O349 2.409 . S
Tb321 O350 2.378 . S
C322 Tb320 2.809 . S
C322 C323 1.514 . S
C322 O340 1.248 . S
C322 O341 1.266 . S
C323 C322 1.514 . S
C323 C324 1.359 . S
C323 C328 1.348 . S
C324 C323 1.359 . S
C324 C325 1.380 . S
C324 H352 0.929 . S
C325 C324 1.380 . S
C325 C326 1.347 . S
C325 H353 0.931 . S
C326 C325 1.347 . S
C326 C327 1.369 . S
C327 C326 1.369 . S
C327 C328 1.408 . S
C327 H354 0.930 . S
C328 C323 1.348 . S
C328 C327 1.408 . S
C328 H355 0.930 . S
C329 O342 1.281 . S
C329 O343 1.254 . S
C330 O344 1.236 . S
C330 O345 1.266 . S
C331 Tb321 2.809 . S
C331 C332 1.478 1_565 S
C331 O346 1.248 . S
C331 O347 1.266 . S
C332 C331 1.478 1_545 S
C332 C333 1.378 . S
C332 C337 1.365 . S
C333 C332 1.378 . S
C333 C334 1.380 . S
C333 H356 0.929 . S
C334 C333 1.380 . S
C334 C335 1.347 . S
C334 H357 0.931 . S
C335 C334 1.347 . S
C335 C336 1.369 . S
C336 C335 1.369 . S
C336 C337 1.408 . S
C336 H358 0.930 . S
C337 C332 1.365 . S
C337 C336 1.408 . S
C337 H359 0.930 . S
C338 O348 1.281 . S
C338 O349 1.254 . S
C339 O350 1.236 . S
C339 O351 1.266 . S
O340 Tb320 2.484 . S
O340 C322 1.248 . S
O341 Tb320 2.440 . S
O341 C322 1.266 . S
O342 Tb320 2.658 . S
O342 Tb321 2.325 . S
O342 C329 1.281 . S
O343 Tb320 2.409 . S
O343 C329 1.254 . S
O344 Tb320 2.378 . S
O344 C330 1.236 . S
O345 Tb321 2.341 . S
O345 C330 1.266 . S
O346 Tb321 2.484 . S
O346 C331 1.248 . S
O347 Tb321 2.440 . S
O347 C331 1.266 . S
O348 Tb320 2.325 . S
O348 Tb321 2.658 . S
O348 C338 1.281 . S
O349 Tb321 2.409 . S
O349 C338 1.254 . S
O350 Tb321 2.378 . S
O350 C339 1.236 . S
O351 Tb320 2.341 . S
O351 C339 1.266 . S
H352 C324 0.929 . S
H353 C325 0.931 . S
H354 C327 0.930 . S
H355 C328 0.930 . S
H356 C333 0.929 . S
H357 C334 0.931 . S
H358 C336 0.930 . S
H359 C337 0.930 . S
Tb360 C362 2.809 . S
Tb360 O380 2.484 . S
Tb360 O381 2.440 . S
Tb360 O382 2.658 . S
Tb360 O383 2.409 . S
Tb360 O384 2.378 . S
Tb360 O388 2.325 . S
Tb360 O391 2.341 . S
Tb361 C371 2.809 . S
Tb361 O382 2.325 . S
Tb361 O385 2.341 . S
Tb361 O386 2.484 . S
Tb361 O387 2.440 . S
Tb361 O388 2.658 . S
Tb361 O389 2.409 . S
Tb361 O390 2.378 . S
C362 Tb360 2.809 . S
C362 C363 1.514 . S
C362 O380 1.248 . S
C362 O381 1.266 . S
C363 C362 1.514 . S
C363 C364 1.359 . S
C363 C368 1.348 . S
C364 C363 1.359 . S
C364 C365 1.380 . S
C364 H392 0.929 . S
C365 C364 1.380 . S
C365 C366 1.347 . S
C365 H393 0.931 . S
C366 C365 1.347 . S
C366 C367 1.369 . S
C367 C366 1.369 . S
C367 C368 1.408 . S
C367 H394 0.930 . S
C368 C363 1.348 . S
C368 C367 1.408 . S
C368 H395 0.930 . S
C369 O382 1.281 . S
C369 O383 1.254 . S
C370 O384 1.236 . S
C370 O385 1.266 . S
C371 Tb361 2.809 . S
C371 C372 1.514 . S
C371 O386 1.248 . S
C371 O387 1.266 . S
C372 C371 1.514 . S
C372 C373 1.359 . S
C372 C377 1.348 . S
C373 C372 1.359 . S
C373 C374 1.380 . S
C373 H396 0.929 . S
C374 C373 1.380 . S
C374 C375 1.347 . S
C374 H397 0.931 . S
C375 C374 1.347 . S
C375 C376 1.369 . S
C376 C375 1.369 . S
C376 C377 1.408 . S
C376 H398 0.930 . S
C377 C372 1.348 . S
C377 C376 1.408 . S
C377 H399 0.930 . S
C378 O388 1.281 . S
C378 O389 1.254 . S
C379 O390 1.236 . S
C379 O391 1.266 . S
O380 Tb360 2.484 . S
O380 C362 1.248 . S
O381 Tb360 2.440 . S
O381 C362 1.266 . S
O382 Tb360 2.658 . S
O382 Tb361 2.325 . S
O382 C369 1.281 . S
O383 Tb360 2.409 . S
O383 C369 1.254 . S
O384 Tb360 2.378 . S
O384 C370 1.236 . S
O385 Tb361 2.341 . S
O385 C370 1.266 . S
O386 Tb361 2.484 . S
O386 C371 1.248 . S
O387 Tb361 2.440 . S
O387 C371 1.266 . S
O388 Tb360 2.325 . S
O388 Tb361 2.658 . S
O388 C378 1.281 . S
O389 Tb361 2.409 . S
O389 C378 1.254 . S
O390 Tb361 2.378 . S
O390 C379 1.236 . S
O391 Tb360 2.341 . S
O391 C379 1.266 . S
H392 C364 0.929 . S
H393 C365 0.931 . S
H394 C367 0.930 . S
H395 C368 0.930 . S
H396 C373 0.929 . S
H397 C374 0.931 . S
H398 C376 0.930 . S
H399 C377 0.930 . S
Tb400 C402 2.809 . S
Tb400 O420 2.484 . S
Tb400 O421 2.440 . S
Tb400 O422 2.658 . S
Tb400 O423 2.409 . S
Tb400 O424 2.378 . S
Tb400 O428 2.325 . S
Tb400 O431 2.341 . S
Tb401 C411 2.809 . S
Tb401 O422 2.325 . S
Tb401 O425 2.341 . S
Tb401 O426 2.484 . S
Tb401 O427 2.440 . S
Tb401 O428 2.658 . S
Tb401 O429 2.409 . S
Tb401 O430 2.378 . S
C402 Tb400 2.809 . S
C402 C403 1.514 . S
C402 O420 1.248 . S
C402 O421 1.266 . S
C403 C402 1.514 . S
C403 C404 1.359 . S
C403 C408 1.348 . S
C404 C403 1.359 . S
C404 C405 1.380 . S
C404 H432 0.929 . S
C405 C404 1.380 . S
C405 C406 1.347 . S
C405 H433 0.931 . S
C406 C405 1.347 . S
C406 C407 1.369 . S
C407 C406 1.369 . S
C407 C408 1.408 . S
C407 H434 0.930 . S
C408 C403 1.348 . S
C408 C407 1.408 . S
C408 H435 0.930 . S
C409 O422 1.281 . S
C409 O423 1.254 . S
C410 O424 1.236 . S
C410 O425 1.266 . S
C411 Tb401 2.809 . S
C411 C412 1.504 1_455 S
C411 O426 1.248 . S
C411 O427 1.266 . S
C412 C411 1.504 1_655 S
C412 C413 1.364 . S
C412 C417 1.355 . S
C413 C412 1.364 . S
C413 C414 1.380 . S
C413 H436 0.929 . S
C414 C413 1.380 . S
C414 C415 1.347 . S
C414 H437 0.931 . S
C415 C414 1.347 . S
C415 C416 1.369 . S
C416 C415 1.369 . S
C416 C417 1.408 . S
C416 H438 0.930 . S
C417 C412 1.355 . S
C417 C416 1.408 . S
C417 H439 0.930 . S
C418 O428 1.281 . S
C418 O429 1.254 . S
C419 O430 1.236 . S
C419 O431 1.266 . S
O420 Tb400 2.484 . S
O420 C402 1.248 . S
O421 Tb400 2.440 . S
O421 C402 1.266 . S
O422 Tb400 2.658 . S
O422 Tb401 2.325 . S
O422 C409 1.281 . S
O423 Tb400 2.409 . S
O423 C409 1.254 . S
O424 Tb400 2.378 . S
O424 C410 1.236 . S
O425 Tb401 2.341 . S
O425 C410 1.266 . S
O426 Tb401 2.484 . S
O426 C411 1.248 . S
O427 Tb401 2.440 . S
O427 C411 1.266 . S
O428 Tb400 2.325 . S
O428 Tb401 2.658 . S
O428 C418 1.281 . S
O429 Tb401 2.409 . S
O429 C418 1.254 . S
O430 Tb401 2.378 . S
O430 C419 1.236 . S
O431 Tb400 2.341 . S
O431 C419 1.266 . S
H432 C404 0.929 . S
H433 C405 0.931 . S
H434 C407 0.930 . S
H435 C408 0.930 . S
H436 C413 0.929 . S
H437 C414 0.931 . S
H438 C416 0.930 . S
H439 C417 0.930 . S
Tb440 C442 2.809 . S
Tb440 O460 2.484 . S
Tb440 O461 2.440 . S
Tb440 O462 2.658 . S
Tb440 O463 2.409 . S
Tb440 O464 2.378 . S
Tb440 O468 2.325 . S
Tb440 O471 2.341 . S
Tb441 C451 2.809 . S
Tb441 O462 2.325 . S
Tb441 O465 2.341 . S
Tb441 O466 2.484 . S
Tb441 O467 2.440 . S
Tb441 O468 2.658 . S
Tb441 O469 2.409 . S
Tb441 O470 2.378 . S
C442 Tb440 2.809 . S
C442 C443 1.514 . S
C442 O460 1.248 . S
C442 O461 1.266 . S
C443 C442 1.514 . S
C443 C444 1.359 . S
C443 C448 1.348 . S
C444 C443 1.359 . S
C444 C445 1.380 . S
C444 H472 0.929 . S
C445 C444 1.380 . S
C445 C446 1.347 . S
C445 H473 0.931 . S
C446 C445 1.347 . S
C446 C447 1.369 . S
C447 C446 1.369 . S
C447 C448 1.408 . S
C447 H474 0.930 . S
C448 C443 1.348 . S
C448 C447 1.408 . S
C448 H475 0.930 . S
C449 O462 1.281 . S
C449 O463 1.254 . S
C450 O464 1.236 . S
C450 O465 1.266 . S
C451 Tb441 2.809 . S
C451 C452 1.479 1_545 S
C451 O466 1.248 . S
C451 O467 1.266 . S
C452 C451 1.479 1_565 S
C452 C453 1.378 . S
C452 C457 1.365 . S
C453 C452 1.378 . S
C453 C454 1.380 . S
C453 H476 0.929 . S
C454 C453 1.380 . S
C454 C455 1.347 . S
C454 H477 0.931 . S
C455 C454 1.347 . S
C455 C456 1.369 . S
C456 C455 1.369 . S
C456 C457 1.408 . S
C456 H478 0.930 . S
C457 C452 1.365 . S
C457 C456 1.408 . S
C457 H479 0.930 . S
C458 O468 1.281 . S
C458 O469 1.254 . S
C459 O470 1.236 . S
C459 O471 1.266 . S
O460 Tb440 2.484 . S
O460 C442 1.248 . S
O461 Tb440 2.440 . S
O461 C442 1.266 . S
O462 Tb440 2.658 . S
O462 Tb441 2.325 . S
O462 C449 1.281 . S
O463 Tb440 2.409 . S
O463 C449 1.254 . S
O464 Tb440 2.378 . S
O464 C450 1.236 . S
O465 Tb441 2.341 . S
O465 C450 1.266 . S
O466 Tb441 2.484 . S
O466 C451 1.248 . S
O467 Tb441 2.440 . S
O467 C451 1.266 . S
O468 Tb440 2.325 . S
O468 Tb441 2.658 . S
O468 C458 1.281 . S
O469 Tb441 2.409 . S
O469 C458 1.254 . S
O470 Tb441 2.378 . S
O470 C459 1.236 . S
O471 Tb440 2.341 . S
O471 C459 1.266 . S
H472 C444 0.929 . S
H473 C445 0.931 . S
H474 C447 0.930 . S
H475 C448 0.930 . S
H476 C453 0.929 . S
H477 C454 0.931 . S
H478 C456 0.930 . S
H479 C457 0.930 . S
H480 C492 0.930 . S
H481 C494 0.930 . S
H482 C495 0.930 . S
H483 C499 0.959 . S
H484 C499 0.959 . S
H485 C499 0.961 . S
H486 C500 0.960 . S
H487 C500 0.961 . S
H488 C500 0.959 . S
H489 C503 0.929 . S
H490 C504 0.931 . S
H491 C506 0.930 . S
C492 H480 0.930 . S
C492 C493 1.399 . S
C492 C497 1.399 . S
C493 C492 1.399 . S
C493 C494 1.376 . S
C494 H481 0.930 . S
C494 C493 1.376 . S
C494 C495 1.388 . S
C495 H482 0.930 . S
C495 C494 1.388 . S
C495 C496 1.390 . S
C496 C495 1.390 . S
C496 C497 1.394 . S
C496 C502 1.465 1_565 S
C497 C492 1.399 . S
C497 C496 1.394 . S
C497 C498 1.516 . S
C498 C497 1.516 . S
C498 C499 1.502 . S
C498 C500 1.561 . S
C498 C501 1.526 1_565 S
C499 H483 0.959 . S
C499 H484 0.959 . S
C499 H485 0.961 . S
C499 C498 1.502 . S
C500 H486 0.960 . S
C500 H487 0.961 . S
C500 H488 0.959 . S
C500 C498 1.561 . S
C501 C498 1.526 1_545 S
C501 C502 1.396 . S
C501 C506 1.390 . S
C502 C496 1.465 1_545 S
C502 C501 1.396 . S
C502 C503 1.399 . S
C503 H489 0.929 . S
C503 C502 1.399 . S
C503 C504 1.385 . S
C504 H490 0.931 . S
C504 C503 1.385 . S
C504 C505 1.389 . S
C505 C504 1.389 . S
C505 C506 1.387 . S
C506 H491 0.930 . S
C506 C501 1.390 . S
C506 C505 1.387 . S
H507 C519 0.930 . S
H508 C521 0.930 . S
H509 C522 0.930 . S
H510 C526 0.959 . S
H511 C526 0.959 . S
H512 C526 0.961 . S
H513 C527 0.960 . S
H514 C527 0.961 . S
H515 C527 0.959 . S
H516 C530 0.929 . S
H517 C531 0.931 . S
H518 C533 0.930 . S
C519 H507 0.930 . S
C519 C520 1.399 . S
C519 C524 1.399 . S
C520 C519 1.399 . S
C520 C521 1.376 . S
C521 H508 0.930 . S
C521 C520 1.376 . S
C521 C522 1.388 . S
C522 H509 0.930 . S
C522 C521 1.388 . S
C522 C523 1.390 . S
C523 C522 1.390 . S
C523 C524 1.394 . S
C523 C529 1.465 . S
C524 C519 1.399 . S
C524 C523 1.394 . S
C524 C525 1.516 . S
C525 C524 1.516 . S
C525 C526 1.502 . S
C525 C527 1.561 . S
C525 C528 1.526 . S
C526 H510 0.959 . S
C526 H511 0.959 . S
C526 H512 0.961 . S
C526 C525 1.502 . S
C527 H513 0.960 . S
C527 H514 0.961 . S
C527 H515 0.959 . S
C527 C525 1.561 . S
C528 C525 1.526 . S
C528 C529 1.396 . S
C528 C533 1.390 . S
C529 C523 1.465 . S
C529 C528 1.396 . S
C529 C530 1.399 . S
C530 H516 0.929 . S
C530 C529 1.399 . S
C530 C531 1.385 . S
C531 H517 0.931 . S
C531 C530 1.385 . S
C531 C532 1.389 . S
C532 C531 1.389 . S
C532 C533 1.387 . S
C533 H518 0.930 . S
C533 C528 1.390 . S
C533 C532 1.387 . S
H534 C546 0.930 . S
H535 C548 0.930 . S
H536 C549 0.930 . S
H537 C553 0.959 . S
H538 C553 0.959 . S
H539 C553 0.961 1_655 S
H540 C554 0.960 . S
H541 C554 0.961 1_455 S
H542 C554 0.959 . S
H543 C557 0.929 . S
H544 C558 0.931 . S
H545 C560 0.930 . S
C546 H534 0.930 . S
C546 C547 1.399 . S
C546 C551 1.399 . S
C547 C546 1.399 . S
C547 C548 1.376 . S
C548 H535 0.930 . S
C548 C547 1.376 . S
C548 C549 1.388 . S
C549 H536 0.930 . S
C549 C548 1.388 . S
C549 C550 1.390 . S
C550 C549 1.390 . S
C550 C551 1.394 . S
C550 C556 1.465 1_655 S
C551 C546 1.399 . S
C551 C550 1.394 . S
C551 C552 1.515 . S
C552 C551 1.515 . S
C552 C553 1.503 1_655 S
C552 C554 1.559 . S
C552 C555 1.527 1_655 S
C553 H537 0.959 . S
C553 H538 0.959 . S
C553 H539 0.961 1_455 S
C553 C552 1.503 1_455 S
C554 H540 0.960 . S
C554 H541 0.961 1_655 S
C554 H542 0.959 . S
C554 C552 1.559 . S
C555 C552 1.527 1_455 S
C555 C556 1.396 . S
C555 C560 1.390 . S
C556 C550 1.465 1_455 S
C556 C555 1.396 . S
C556 C557 1.399 . S
C557 H543 0.929 . S
C557 C556 1.399 . S
C557 C558 1.385 . S
C558 H544 0.931 . S
C558 C557 1.385 . S
C558 C559 1.389 . S
C559 C558 1.389 . S
C559 C560 1.387 . S
C560 H545 0.930 . S
C560 C555 1.390 . S
C560 C559 1.387 . S
H561 C573 0.930 . S
H562 C575 0.930 . S
H563 C576 0.930 . S
H564 C580 0.959 1_565 S
H565 C580 0.959 . S
H566 C580 0.961 1_565 S
H567 C581 0.960 . S
H568 C581 0.961 . S
H569 C581 0.959 . S
H570 C584 0.929 . S
H571 C585 0.931 . S
H572 C587 0.930 . S
C573 H561 0.930 . S
C573 C574 1.399 . S
C573 C578 1.399 . S
C574 C573 1.399 . S
C574 C575 1.376 . S
C575 H562 0.930 . S
C575 C574 1.376 . S
C575 C576 1.388 . S
C576 H563 0.930 . S
C576 C575 1.388 . S
C576 C577 1.390 . S
C577 C576 1.390 . S
C577 C578 1.394 . S
C577 C583 1.465 1_565 S
C578 C573 1.399 . S
C578 C577 1.394 . S
C578 C579 1.516 1_565 S
C579 C578 1.516 1_545 S
C579 C580 1.502 . S
C579 C581 1.561 . S
C579 C582 1.526 . S
C580 H564 0.959 1_545 S
C580 H565 0.959 . S
C580 H566 0.961 1_545 S
C580 C579 1.502 . S
C581 H567 0.960 . S
C581 H568 0.961 . S
C581 H569 0.959 . S
C581 C579 1.561 . S
C582 C579 1.526 . S
C582 C583 1.396 . S
C582 C587 1.390 . S
C583 C577 1.465 1_545 S
C583 C582 1.396 . S
C583 C584 1.399 . S
C584 H570 0.929 . S
C584 C583 1.399 . S
C584 C585 1.385 . S
C585 H571 0.931 . S
C585 C584 1.385 . S
C585 C586 1.389 . S
C586 C585 1.389 . S
C586 C587 1.387 . S
C587 H572 0.930 . S
C587 C582 1.390 . S
C587 C586 1.387 . S
H588 C600 0.930 . S
H589 C602 0.930 . S
H590 C603 0.930 . S
H591 C607 0.959 . S
H592 C607 0.959 . S
H593 C607 0.961 . S
H594 C608 0.960 . S
H595 C608 0.961 . S
H596 C608 0.959 . S
H597 C611 0.929 . S
H598 C612 0.931 . S
H599 C614 0.930 . S
C600 H588 0.930 . S
C600 C601 1.399 . S
C600 C605 1.399 . S
C601 C600 1.399 . S
C601 C602 1.376 . S
C602 H589 0.930 . S
C602 C601 1.376 . S
C602 C603 1.388 . S
C603 H590 0.930 . S
C603 C602 1.388 . S
C603 C604 1.390 . S
C604 C603 1.390 . S
C604 C605 1.394 . S
C604 C610 1.465 . S
C605 C600 1.399 . S
C605 C604 1.394 . S
C605 C606 1.516 . S
C606 C605 1.516 . S
C606 C607 1.502 . S
C606 C608 1.561 . S
C606 C609 1.526 . S
C607 H591 0.959 . S
C607 H592 0.959 . S
C607 H593 0.961 . S
C607 C606 1.502 . S
C608 H594 0.960 . S
C608 H595 0.961 . S
C608 H596 0.959 . S
C608 C606 1.561 . S
C609 C606 1.526 . S
C609 C610 1.396 . S
C609 C614 1.390 . S
C610 C604 1.465 . S
C610 C609 1.396 . S
C610 C611 1.399 . S
C611 H597 0.929 . S
C611 C610 1.399 . S
C611 C612 1.385 . S
C612 H598 0.931 . S
C612 C611 1.385 . S
C612 C613 1.389 . S
C613 C612 1.389 . S
C613 C614 1.387 . S
C614 H599 0.930 . S
C614 C609 1.390 . S
C614 C613 1.387 . S
H615 C627 0.930 . S
H616 C629 0.930 . S
H617 C630 0.930 . S
H618 C634 0.959 . S
H619 C634 0.959 . S
H620 C634 0.961 . S
H621 C635 0.960 1_655 S
H622 C635 0.961 . S
H623 C635 0.980 . S
H624 C638 0.929 . S
H625 C639 0.931 . S
H626 C641 0.930 . S
C627 H615 0.930 . S
C627 C628 1.399 . S
C627 C632 1.399 . S
C628 C627 1.399 . S
C628 C629 1.376 . S
C629 H616 0.930 . S
C629 C628 1.376 . S
C629 C630 1.388 . S
C630 H617 0.930 . S
C630 C629 1.388 . S
C630 C631 1.390 . S
C631 C630 1.390 . S
C631 C632 1.394 . S
C631 C637 1.465 1_655 S
C632 C627 1.399 . S
C632 C631 1.394 . S
C632 C633 1.516 1_655 S
C633 C632 1.516 1_455 S
C633 C634 1.502 . S
C633 C635 1.561 . S
C633 C636 1.526 . S
C634 H618 0.959 . S
C634 H619 0.959 . S
C634 H620 0.961 . S
C634 C633 1.502 . S
C635 H621 0.960 1_455 S
C635 H622 0.961 . S
C635 H623 0.980 . S
C635 C633 1.561 . S
C636 C633 1.526 . S
C636 C637 1.396 . S
C636 C641 1.390 . S
C637 C631 1.465 1_455 S
C637 C636 1.396 . S
C637 C638 1.399 . S
C638 H624 0.929 . S
C638 C637 1.399 . S
C638 C639 1.385 . S
C639 H625 0.931 . S
C639 C638 1.385 . S
C639 C640 1.389 . S
C640 C639 1.389 . S
C640 C641 1.387 . S
C641 H626 0.930 . S
C641 C636 1.390 . S
C641 C640 1.387 . S
H642 C654 0.930 . S
H643 C656 0.930 . S
H644 C657 0.930 . S
H645 C661 0.959 . S
H646 C661 0.959 . S
H647 C661 0.961 1_455 S
H648 C662 0.960 . S
H649 C662 0.961 . S
H650 C662 0.959 . S
H651 C665 0.929 . S
H652 C666 0.931 . S
H653 C668 0.930 . S
C654 H642 0.930 . S
C654 C655 1.399 . S
C654 C659 1.399 . S
C655 C654 1.399 . S
C655 C656 1.376 . S
C656 H643 0.930 . S
C656 C655 1.376 . S
C656 C657 1.388 . S
C657 H644 0.930 . S
C657 C656 1.388 . S
C657 C658 1.390 . S
C658 C657 1.390 . S
C658 C659 1.394 . S
C658 C664 1.465 1_455 S
C659 C654 1.399 . S
C659 C658 1.394 . S
C659 C660 1.516 1_455 S
C660 C659 1.516 1_655 S
C660 C661 1.502 . S
C660 C662 1.561 . S
C660 C663 1.526 . S
C661 H645 0.959 . S
C661 H646 0.959 . S
C661 H647 0.961 1_655 S
C661 C660 1.502 . S
C662 H648 0.960 . S
C662 H649 0.961 . S
C662 H650 0.959 . S
C662 C660 1.561 . S
C663 C660 1.526 . S
C663 C664 1.396 . S
C663 C668 1.390 . S
C664 C658 1.465 1_655 S
C664 C663 1.396 . S
C664 C665 1.399 . S
C665 H651 0.929 . S
C665 C664 1.399 . S
C665 C666 1.385 . S
C666 H652 0.931 . S
C666 C665 1.385 . S
C666 C667 1.389 . S
C667 C666 1.389 . S
C667 C668 1.387 . S
C668 H653 0.930 . S
C668 C663 1.390 . S
C668 C667 1.387 . S
H669 C681 0.930 . S
H670 C683 0.930 . S
H671 C684 0.930 . S
H672 C688 0.959 1_565 S
H673 C688 0.959 . S
H674 C688 0.961 1_565 S
H675 C689 0.960 . S
H676 C689 0.961 . S
H677 C689 0.959 . S
H678 C692 0.929 . S
H679 C693 0.931 . S
H680 C695 0.930 . S
C681 H669 0.930 . S
C681 C682 1.399 . S
C681 C686 1.399 . S
C682 C681 1.399 . S
C682 C683 1.376 . S
C683 H670 0.930 . S
C683 C682 1.376 . S
C683 C684 1.388 . S
C684 H671 0.930 . S
C684 C683 1.388 . S
C684 C685 1.390 . S
C685 C684 1.390 . S
C685 C686 1.394 . S
C685 C691 1.465 1_565 S
C686 C681 1.399 . S
C686 C685 1.394 . S
C686 C687 1.516 1_565 S
C687 C686 1.516 1_545 S
C687 C688 1.502 . S
C687 C689 1.561 . S
C687 C690 1.526 . S
C688 H672 0.959 1_545 S
C688 H673 0.959 . S
C688 H674 0.961 1_545 S
C688 C687 1.502 . S
C689 H675 0.960 . S
C689 H676 0.961 . S
C689 H677 0.959 . S
C689 C687 1.561 . S
C690 C687 1.526 . S
C690 C691 1.396 . S
C690 C695 1.390 . S
C691 C685 1.465 1_545 S
C691 C690 1.396 . S
C691 C692 1.399 . S
C692 H678 0.929 . S
C692 C691 1.399 . S
C692 C693 1.385 . S
C693 H679 0.931 . S
C693 C692 1.385 . S
C693 C694 1.389 . S
C694 C693 1.389 . S
C694 C695 1.387 . S
C695 H680 0.930 . S
C695 C690 1.390 . S
C695 C694 1.387 . S
H696 C708 0.930 . S
H697 C710 0.930 . S
H698 C711 0.930 . S
H699 C715 0.959 . S
H700 C715 0.959 . S
H701 C715 0.961 . S
H702 C716 0.960 . S
H703 C716 0.961 . S
H704 C716 0.959 . S
H705 C719 0.929 . S
H706 C720 0.931 . S
H707 C722 0.930 . S
C708 H696 0.930 . S
C708 C709 1.399 . S
C708 C713 1.399 . S
C709 C708 1.399 . S
C709 C710 1.376 . S
C710 H697 0.930 . S
C710 C709 1.376 . S
C710 C711 1.388 . S
C711 H698 0.930 . S
C711 C710 1.388 . S
C711 C712 1.390 . S
C712 C711 1.390 . S
C712 C713 1.394 . S
C712 C718 1.465 . S
C713 C708 1.399 . S
C713 C712 1.394 . S
C713 C714 1.516 . S
C714 C713 1.516 . S
C714 C715 1.502 . S
C714 C716 1.561 . S
C714 C717 1.526 . S
C715 H699 0.959 . S
C715 H700 0.959 . S
C715 H701 0.961 . S
C715 C714 1.502 . S
C716 H702 0.960 . S
C716 H703 0.961 . S
C716 H704 0.959 . S
C716 C714 1.561 . S
C717 C714 1.526 . S
C717 C718 1.396 . S
C717 C722 1.390 . S
C718 C712 1.465 . S
C718 C717 1.396 . S
C718 C719 1.399 . S
C719 H705 0.929 . S
C719 C718 1.399 . S
C719 C720 1.385 . S
C720 H706 0.931 . S
C720 C719 1.385 . S
C720 C721 1.389 . S
C721 C720 1.389 . S
C721 C722 1.387 . S
C722 H707 0.930 . S
C722 C717 1.390 . S
C722 C721 1.387 . S
H723 C735 0.930 . S
H724 C737 0.930 . S
H725 C738 0.930 . S
H726 C742 0.959 1_655 S
H727 C742 0.959 1_655 S
H728 C742 0.961 . S
H729 C743 0.960 . S
H730 C743 0.961 . S
H731 C743 0.959 . S
H732 C746 0.929 . S
H733 C747 0.931 . S
H734 C749 0.930 . S
C735 H723 0.930 . S
C735 C736 1.399 . S
C735 C740 1.399 . S
C736 C735 1.399 . S
C736 C737 1.376 . S
C737 H724 0.930 . S
C737 C736 1.376 . S
C737 C738 1.388 . S
C738 H725 0.930 . S
C738 C737 1.388 . S
C738 C739 1.390 . S
C739 C738 1.390 . S
C739 C740 1.394 . S
C739 C745 1.465 1_455 S
C740 C735 1.399 . S
C740 C739 1.394 . S
C740 C741 1.516 . S
C741 C740 1.516 . S
C741 C742 1.502 . S
C741 C743 1.561 . S
C741 C744 1.526 1_455 S
C742 H726 0.959 1_455 S
C742 H727 0.959 1_455 S
C742 H728 0.961 . S
C742 C741 1.502 . S
C743 H729 0.960 . S
C743 H730 0.961 . S
C743 H731 0.959 . S
C743 C741 1.561 . S
C744 C741 1.526 1_655 S
C744 C745 1.396 . S
C744 C749 1.390 . S
C745 C739 1.465 1_655 S
C745 C744 1.396 . S
C745 C746 1.399 . S
C746 H732 0.929 . S
C746 C745 1.399 . S
C746 C747 1.385 . S
C747 H733 0.931 . S
C747 C746 1.385 . S
C747 C748 1.389 . S
C748 C747 1.389 . S
C748 C749 1.387 . S
C749 H734 0.930 . S
C749 C744 1.390 . S
C749 C748 1.387 . S
H750 C762 0.930 . S
H751 C764 0.930 . S
H752 C765 0.930 . S
H753 C769 0.959 . S
H754 C769 0.959 . S
H755 C769 0.961 . S
H756 C770 0.960 . S
H757 C770 0.961 . S
H758 C770 0.959 . S
H759 C773 0.929 . S
H760 C774 0.931 . S
H761 C776 0.930 . S
C762 H750 0.930 . S
C762 C763 1.399 . S
C762 C767 1.399 . S
C763 C762 1.399 . S
C763 C764 1.376 . S
C764 H751 0.930 . S
C764 C763 1.376 . S
C764 C765 1.388 . S
C765 H752 0.930 . S
C765 C764 1.388 . S
C765 C766 1.390 . S
C766 C765 1.390 . S
C766 C767 1.394 . S
C766 C772 1.465 1_545 S
C767 C762 1.399 . S
C767 C766 1.394 . S
C767 C768 1.516 1_545 S
C768 C767 1.516 1_565 S
C768 C769 1.502 . S
C768 C770 1.561 . S
C768 C771 1.526 . S
C769 H753 0.959 . S
C769 H754 0.959 . S
C769 H755 0.961 . S
C769 C768 1.502 . S
C770 H756 0.960 . S
C770 H757 0.961 . S
C770 H758 0.959 . S
C770 C768 1.561 . S
C771 C768 1.526 . S
C771 C772 1.396 . S
C771 C776 1.390 . S
C772 C766 1.465 1_565 S
C772 C771 1.396 . S
C772 C773 1.399 . S
C773 H759 0.929 . S
C773 C772 1.399 . S
C773 C774 1.385 . S
C774 H760 0.931 . S
C774 C773 1.385 . S
C774 C775 1.389 . S
C775 C774 1.389 . S
C775 C776 1.387 . S
C776 H761 0.930 . S
C776 C771 1.390 . S
C776 C775 1.387 . S
H777 C789 0.930 . S
H778 C791 0.930 . S
H779 C792 0.930 . S
H780 C796 0.959 . S
H781 C796 0.959 . S
H782 C796 0.961 . S
H783 C797 0.960 . S
H784 C797 0.961 . S
H785 C797 0.959 . S
H786 C800 0.929 . S
H787 C801 0.931 . S
H788 C803 0.930 . S
C789 H777 0.930 . S
C789 C790 1.399 . S
C789 C794 1.399 . S
C790 C789 1.399 . S
C790 C791 1.376 . S
C791 H778 0.930 . S
C791 C790 1.376 . S
C791 C792 1.388 . S
C792 H779 0.930 . S
C792 C791 1.388 . S
C792 C793 1.390 . S
C793 C792 1.390 . S
C793 C794 1.394 . S
C793 C799 1.465 . S
C794 C789 1.399 . S
C794 C793 1.394 . S
C794 C795 1.516 . S
C795 C794 1.516 . S
C795 C796 1.502 . S
C795 C797 1.561 . S
C795 C798 1.526 . S
C796 H780 0.959 . S
C796 H781 0.959 . S
C796 H782 0.961 . S
C796 C795 1.502 . S
C797 H783 0.960 . S
C797 H784 0.961 . S
C797 H785 0.959 . S
C797 C795 1.561 . S
C798 C795 1.526 . S
C798 C799 1.396 . S
C798 C803 1.390 . S
C799 C793 1.465 . S
C799 C798 1.396 . S
C799 C800 1.399 . S
C800 H786 0.929 . S
C800 C799 1.399 . S
C800 C801 1.385 . S
C801 H787 0.931 . S
C801 C800 1.385 . S
C801 C802 1.389 . S
C802 C801 1.389 . S
C802 C803 1.387 . S
C803 H788 0.930 . S
C803 C798 1.390 . S
C803 C802 1.387 . S
H804 C816 0.930 . S
H805 C818 0.930 . S
H806 C819 0.930 . S
H807 C823 0.959 . S
H808 C823 0.959 . S
H809 C823 0.961 . S
H810 C824 0.960 . S
H811 C824 0.961 . S
H812 C824 0.959 . S
H813 C827 0.929 . S
H814 C828 0.931 . S
H815 C830 0.930 . S
C816 H804 0.930 . S
C816 C817 1.399 . S
C816 C821 1.399 . S
C817 C816 1.399 . S
C817 C818 1.376 . S
C818 H805 0.930 . S
C818 C817 1.376 . S
C818 C819 1.388 . S
C819 H806 0.930 . S
C819 C818 1.388 . S
C819 C820 1.390 . S
C820 C819 1.390 . S
C820 C821 1.394 . S
C820 C826 1.465 . S
C821 C816 1.399 . S
C821 C820 1.394 . S
C821 C822 1.516 . S
C822 C821 1.516 . S
C822 C823 1.502 . S
C822 C824 1.561 . S
C822 C825 1.526 . S
C823 H807 0.959 . S
C823 H808 0.959 . S
C823 H809 0.961 . S
C823 C822 1.502 . S
C824 H810 0.960 . S
C824 H811 0.961 . S
C824 H812 0.959 . S
C824 C822 1.561 . S
C825 C822 1.526 . S
C825 C826 1.396 . S
C825 C830 1.390 . S
C826 C820 1.465 . S
C826 C825 1.396 . S
C826 C827 1.399 . S
C827 H813 0.929 . S
C827 C826 1.399 . S
C827 C828 1.385 . S
C828 H814 0.931 . S
C828 C827 1.385 . S
C828 C829 1.389 . S
C829 C828 1.389 . S
C829 C830 1.387 . S
C830 H815 0.930 . S
C830 C825 1.390 . S
C830 C829 1.387 . S
H831 C843 0.930 . S
H832 C845 0.930 . S
H833 C846 0.930 . S
H834 C850 0.959 . S
H835 C850 0.959 . S
H836 C850 0.961 . S
H837 C851 0.960 . S
H838 C851 0.961 . S
H839 C851 0.959 . S
H840 C854 0.929 . S
H841 C855 0.931 . S
H842 C857 0.930 . S
C843 H831 0.930 . S
C843 C844 1.399 . S
C843 C848 1.399 . S
C844 C843 1.399 . S
C844 C845 1.376 . S
C845 H832 0.930 . S
C845 C844 1.376 . S
C845 C846 1.388 . S
C846 H833 0.930 . S
C846 C845 1.388 . S
C846 C847 1.390 . S
C847 C846 1.390 . S
C847 C848 1.394 . S
C847 C853 1.465 . S
C848 C843 1.399 . S
C848 C847 1.394 . S
C848 C849 1.516 . S
C849 C848 1.516 . S
C849 C850 1.502 . S
C849 C851 1.561 . S
C849 C852 1.526 . S
C850 H834 0.959 . S
C850 H835 0.959 . S
C850 H836 0.961 . S
C850 C849 1.502 . S
C851 H837 0.960 . S
C851 H838 0.961 . S
C851 H839 0.959 . S
C851 C849 1.561 . S
C852 C849 1.526 . S
C852 C853 1.396 . S
C852 C857 1.390 . S
C853 C847 1.465 . S
C853 C852 1.396 . S
C853 C854 1.399 . S
C854 H840 0.929 . S
C854 C853 1.399 . S
C854 C855 1.385 . S
C855 H841 0.931 . S
C855 C854 1.385 . S
C855 C856 1.389 . S
C856 C855 1.389 . S
C856 C857 1.387 . S
C857 H842 0.930 . S
C857 C852 1.390 . S
C857 C856 1.387 . S
H858 C870 0.930 . S
H859 C872 0.930 . S
H860 C873 0.930 . S
H861 C877 0.959 . S
H862 C877 0.959 . S
H863 C877 0.961 . S
H864 C878 0.960 . S
H865 C878 0.961 . S
H866 C878 0.959 . S
H867 C881 0.929 . S
H868 C882 0.931 . S
H869 C884 0.930 . S
C870 H858 0.930 . S
C870 C871 1.399 . S
C870 C875 1.399 . S
C871 C870 1.399 . S
C871 C872 1.376 . S
C872 H859 0.930 . S
C872 C871 1.376 . S
C872 C873 1.388 . S
C873 H860 0.930 . S
C873 C872 1.388 . S
C873 C874 1.390 . S
C874 C873 1.390 . S
C874 C875 1.394 . S
C874 C880 1.465 . S
C875 C870 1.399 . S
C875 C874 1.394 . S
C875 C876 1.516 . S
C876 C875 1.516 . S
C876 C877 1.502 . S
C876 C878 1.561 . S
C876 C879 1.526 . S
C877 H861 0.959 . S
C877 H862 0.959 . S
C877 H863 0.961 . S
C877 C876 1.502 . S
C878 H864 0.960 . S
C878 H865 0.961 . S
C878 H866 0.959 . S
C878 C876 1.561 . S
C879 C876 1.526 . S
C879 C880 1.396 . S
C879 C884 1.390 . S
C880 C874 1.465 . S
C880 C879 1.396 . S
C880 C881 1.399 . S
C881 H867 0.929 . S
C881 C880 1.399 . S
C881 C882 1.385 . S
C882 H868 0.931 . S
C882 C881 1.385 . S
C882 C883 1.389 . S
C883 C882 1.389 . S
C883 C884 1.387 . S
C884 H869 0.930 . S
C884 C879 1.390 . S
C884 C883 1.387 . S
H885 C897 0.930 . S
H886 C899 0.930 . S
H887 C900 0.930 . S
H888 C904 0.959 . S
H889 C904 0.959 . S
H890 C904 0.961 . S
H891 C905 0.960 . S
H892 C905 0.961 . S
H893 C905 0.959 . S
H894 C908 0.929 . S
H895 C909 0.931 . S
H896 C911 0.930 . S
C897 H885 0.930 . S
C897 C898 1.399 . S
C897 C902 1.399 . S
C898 C897 1.399 . S
C898 C899 1.376 . S
C899 H886 0.930 . S
C899 C898 1.376 . S
C899 C900 1.388 . S
C900 H887 0.930 . S
C900 C899 1.388 . S
C900 C901 1.390 . S
C901 C900 1.390 . S
C901 C902 1.394 . S
C901 C907 1.465 . S
C902 C897 1.399 . S
C902 C901 1.394 . S
C902 C903 1.516 . S
C903 C902 1.516 . S
C903 C904 1.502 . S
C903 C905 1.561 . S
C903 C906 1.526 . S
C904 H888 0.959 . S
C904 H889 0.959 . S
C904 H890 0.961 . S
C904 C903 1.502 . S
C905 H891 0.960 . S
C905 H892 0.961 . S
C905 H893 0.959 . S
C905 C903 1.561 . S
C906 C903 1.526 . S
C906 C907 1.396 . S
C906 C911 1.390 . S
C907 C901 1.465 . S
C907 C906 1.396 . S
C907 C908 1.399 . S
C908 H894 0.929 . S
C908 C907 1.399 . S
C908 C909 1.385 . S
C909 H895 0.931 . S
C909 C908 1.385 . S
C909 C910 1.389 . S
C910 C909 1.389 . S
C910 C911 1.387 . S
C911 H896 0.930 . S
C911 C906 1.390 . S
C911 C910 1.387 . S
H912 C924 0.930 . S
H913 C926 0.930 . S
H914 C927 0.930 . S
H915 C931 0.959 . S
H916 C931 0.959 . S
H917 C931 0.961 . S
H918 C932 0.960 . S
H919 C932 0.961 . S
H920 C932 0.959 . S
H921 C935 0.929 . S
H922 C936 0.931 . S
H923 C938 0.930 . S
C924 H912 0.930 . S
C924 C925 1.399 . S
C924 C929 1.399 . S
C925 C924 1.399 . S
C925 C926 1.376 . S
C926 H913 0.930 . S
C926 C925 1.376 . S
C926 C927 1.388 . S
C927 H914 0.930 . S
C927 C926 1.388 . S
C927 C928 1.390 . S
C928 C927 1.390 . S
C928 C929 1.394 . S
C928 C934 1.465 . S
C929 C924 1.399 . S
C929 C928 1.394 . S
C929 C930 1.516 . S
C930 C929 1.516 . S
C930 C931 1.502 . S
C930 C932 1.561 . S
C930 C933 1.526 . S
C931 H915 0.959 . S
C931 H916 0.959 . S
C931 H917 0.961 . S
C931 C930 1.502 . S
C932 H918 0.960 . S
C932 H919 0.961 . S
C932 H920 0.959 . S
C932 C930 1.561 . S
C933 C930 1.526 . S
C933 C934 1.396 . S
C933 C938 1.390 . S
C934 C928 1.465 . S
C934 C933 1.396 . S
C934 C935 1.399 . S
C935 H921 0.929 . S
C935 C934 1.399 . S
C935 C936 1.385 . S
C936 H922 0.931 . S
C936 C935 1.385 . S
C936 C937 1.389 . S
C937 C936 1.389 . S
C937 C938 1.387 . S
C938 H923 0.930 . S
C938 C933 1.390 . S
C938 C937 1.387 . S
H939 C951 0.930 . S
H940 C953 0.930 . S
H941 C954 0.930 . S
H942 C958 0.959 . S
H943 C958 0.959 . S
H944 C958 0.961 . S
H945 C959 0.960 . S
H946 C959 0.961 . S
H947 C959 0.959 . S
H948 C962 0.929 . S
H949 C963 0.931 . S
H950 C965 0.930 . S
C951 H939 0.930 . S
C951 C952 1.399 . S
C951 C956 1.399 . S
C952 C951 1.399 . S
C952 C953 1.376 . S
C953 H940 0.930 . S
C953 C952 1.376 . S
C953 C954 1.388 . S
C954 H941 0.930 . S
C954 C953 1.388 . S
C954 C955 1.390 . S
C955 C954 1.390 . S
C955 C956 1.394 . S
C955 C961 1.465 . S
C956 C951 1.399 . S
C956 C955 1.394 . S
C956 C957 1.516 . S
C957 C956 1.516 . S
C957 C958 1.502 . S
C957 C959 1.561 . S
C957 C960 1.526 . S
C958 H942 0.959 . S
C958 H943 0.959 . S
C958 H944 0.961 . S
C958 C957 1.502 . S
C959 H945 0.960 . S
C959 H946 0.961 . S
C959 H947 0.959 . S
C959 C957 1.561 . S
C960 C957 1.526 . S
C960 C961 1.396 . S
C960 C965 1.390 . S
C961 C955 1.465 . S
C961 C960 1.396 . S
C961 C962 1.399 . S
C962 H948 0.929 . S
C962 C961 1.399 . S
C962 C963 1.385 . S
C963 H949 0.931 . S
C963 C962 1.385 . S
C963 C964 1.389 . S
C964 C963 1.389 . S
C964 C965 1.387 . S
C965 H950 0.930 . S
C965 C960 1.390 . S
C965 C964 1.387 . S
H966 C978 0.930 . S
H967 C980 0.930 . S
H968 C981 0.930 . S
H969 C985 0.959 . S
H970 C985 0.959 . S
H971 C985 0.961 . S
H972 C986 0.960 . S
H973 C986 0.961 . S
H974 C986 0.959 . S
H975 C989 0.929 . S
H976 C990 0.931 . S
H977 C992 0.930 . S
C978 H966 0.930 . S
C978 C979 1.399 . S
C978 C983 1.399 . S
C979 C978 1.399 . S
C979 C980 1.376 . S
C980 H967 0.930 . S
C980 C979 1.376 . S
C980 C981 1.388 . S
C981 H968 0.930 . S
C981 C980 1.388 . S
C981 C982 1.390 . S
C982 C981 1.390 . S
C982 C983 1.394 . S
C982 C988 1.465 . S
C983 C978 1.399 . S
C983 C982 1.394 . S
C983 C984 1.516 . S
C984 C983 1.516 . S
C984 C985 1.502 . S
C984 C986 1.561 . S
C984 C987 1.526 . S
C985 H969 0.959 . S
C985 H970 0.959 . S
C985 H971 0.961 . S
C985 C984 1.502 . S
C986 H972 0.960 . S
C986 H973 0.961 . S
C986 H974 0.959 . S
C986 C984 1.561 . S
C987 C984 1.526 . S
C987 C988 1.396 . S
C987 C992 1.390 . S
C988 C982 1.465 . S
C988 C987 1.396 . S
C988 C989 1.399 . S
C989 H975 0.929 . S
C989 C988 1.399 . S
C989 C990 1.385 . S
C990 H976 0.931 . S
C990 C989 1.385 . S
C990 C991 1.389 . S
C991 C990 1.389 . S
C991 C992 1.387 . S
C992 H977 0.930 . S
C992 C987 1.390 . S
C992 C991 1.387 . S
H993 C1005 0.930 . S
H994 C1007 0.930 . S
H995 C1008 0.930 . S
H996 C1012 0.959 . S
H997 C1012 0.959 . S
H998 C1012 0.961 . S
H999 C1013 0.960 . S
H1000 C1013 0.961 . S
H1001 C1013 0.959 . S
H1002 C1016 0.929 . S
H1003 C1017 0.931 . S
H1004 C1019 0.930 . S
C1005 H993 0.930 . S
C1005 C1006 1.399 . S
C1005 C1010 1.399 . S
C1006 C1005 1.399 . S
C1006 C1007 1.376 . S
C1007 H994 0.930 . S
C1007 C1006 1.376 . S
C1007 C1008 1.388 . S
C1008 H995 0.930 . S
C1008 C1007 1.388 . S
C1008 C1009 1.390 . S
C1009 C1008 1.390 . S
C1009 C1010 1.394 . S
C1009 C1015 1.465 . S
C1010 C1005 1.399 . S
C1010 C1009 1.394 . S
C1010 C1011 1.516 . S
C1011 C1010 1.516 . S
C1011 C1012 1.502 . S
C1011 C1013 1.561 . S
C1011 C1014 1.526 . S
C1012 H996 0.959 . S
C1012 H997 0.959 . S
C1012 H998 0.961 . S
C1012 C1011 1.502 . S
C1013 H999 0.960 . S
C1013 H1000 0.961 . S
C1013 H1001 0.959 . S
C1013 C1011 1.561 . S
C1014 C1011 1.526 . S
C1014 C1015 1.396 . S
C1014 C1019 1.390 . S
C1015 C1009 1.465 . S
C1015 C1014 1.396 . S
C1015 C1016 1.399 . S
C1016 H1002 0.929 . S
C1016 C1015 1.399 . S
C1016 C1017 1.385 . S
C1017 H1003 0.931 . S
C1017 C1016 1.385 . S
C1017 C1018 1.389 . S
C1018 C1017 1.389 . S
C1018 C1019 1.387 . S
C1019 H1004 0.930 . S
C1019 C1014 1.390 . S
C1019 C1018 1.387 . S
H1020 C1032 0.930 . S
H1021 C1034 0.930 . S
H1022 C1035 0.930 . S
H1023 C1039 0.959 . S
H1024 C1039 0.959 . S
H1025 C1039 0.961 . S
H1026 C1040 0.960 . S
H1027 C1040 0.961 . S
H1028 C1040 0.959 . S
H1029 C1043 0.929 . S
H1030 C1044 0.931 . S
H1031 C1046 0.930 . S
C1032 H1020 0.930 . S
C1032 C1033 1.399 . S
C1032 C1037 1.399 . S
C1033 C1032 1.399 . S
C1033 C1034 1.376 . S
C1034 H1021 0.930 . S
C1034 C1033 1.376 . S
C1034 C1035 1.388 . S
C1035 H1022 0.930 . S
C1035 C1034 1.388 . S
C1035 C1036 1.390 . S
C1036 C1035 1.390 . S
C1036 C1037 1.394 . S
C1036 C1042 1.465 . S
C1037 C1032 1.399 . S
C1037 C1036 1.394 . S
C1037 C1038 1.516 . S
C1038 C1037 1.516 . S
C1038 C1039 1.502 . S
C1038 C1040 1.561 . S
C1038 C1041 1.526 . S
C1039 H1023 0.959 . S
C1039 H1024 0.959 . S
C1039 H1025 0.961 . S
C1039 C1038 1.502 . S
C1040 H1026 0.960 . S
C1040 H1027 0.961 . S
C1040 H1028 0.959 . S
C1040 C1038 1.561 . S
C1041 C1038 1.526 . S
C1041 C1042 1.396 . S
C1041 C1046 1.390 . S
C1042 C1036 1.465 . S
C1042 C1041 1.396 . S
C1042 C1043 1.399 . S
C1043 H1029 0.929 . S
C1043 C1042 1.399 . S
C1043 C1044 1.385 . S
C1044 H1030 0.931 . S
C1044 C1043 1.385 . S
C1044 C1045 1.389 . S
C1045 C1044 1.389 . S
C1045 C1046 1.387 . S
C1046 H1031 0.930 . S
C1046 C1041 1.390 . S
C1046 C1045 1.387 . S
H1047 C1059 0.930 . S
H1048 C1061 0.930 . S
H1049 C1062 0.930 . S
H1050 C1066 0.959 . S
H1051 C1066 0.959 . S
H1052 C1066 0.961 . S
H1053 C1067 0.960 . S
H1054 C1067 0.961 . S
H1055 C1067 0.959 . S
H1056 C1070 0.929 . S
H1057 C1071 0.931 . S
H1058 C1073 0.930 . S
C1059 H1047 0.930 . S
C1059 C1060 1.399 . S
C1059 C1064 1.399 . S
C1060 C1059 1.399 . S
C1060 C1061 1.376 . S
C1061 H1048 0.930 . S
C1061 C1060 1.376 . S
C1061 C1062 1.388 . S
C1062 H1049 0.930 . S
C1062 C1061 1.388 . S
C1062 C1063 1.390 . S
C1063 C1062 1.390 . S
C1063 C1064 1.394 . S
C1063 C1069 1.465 . S
C1064 C1059 1.399 . S
C1064 C1063 1.394 . S
C1064 C1065 1.516 . S
C1065 C1064 1.516 . S
C1065 C1066 1.502 . S
C1065 C1067 1.561 . S
C1065 C1068 1.526 . S
C1066 H1050 0.959 . S
C1066 H1051 0.959 . S
C1066 H1052 0.961 . S
C1066 C1065 1.502 . S
C1067 H1053 0.960 . S
C1067 H1054 0.961 . S
C1067 H1055 0.959 . S
C1067 C1065 1.561 . S
C1068 C1065 1.526 . S
C1068 C1069 1.396 . S
C1068 C1073 1.390 . S
C1069 C1063 1.465 . S
C1069 C1068 1.396 . S
C1069 C1070 1.399 . S
C1070 H1056 0.929 . S
C1070 C1069 1.399 . S
C1070 C1071 1.385 . S
C1071 H1057 0.931 . S
C1071 C1070 1.385 . S
C1071 C1072 1.389 . S
C1072 C1071 1.389 . S
C1072 C1073 1.387 . S
C1073 H1058 0.930 . S
C1073 C1068 1.390 . S
C1073 C1072 1.387 . S
H1074 C1086 0.930 . S
H1075 C1088 0.930 . S
H1076 C1089 0.930 . S
H1077 C1093 0.959 . S
H1078 C1093 0.959 . S
H1079 C1093 0.961 . S
H1080 C1094 0.960 . S
H1081 C1094 0.961 . S
H1082 C1094 0.959 . S
H1083 C1097 0.929 . S
H1084 C1098 0.931 . S
H1085 C1100 0.930 . S
C1086 H1074 0.930 . S
C1086 C1087 1.399 . S
C1086 C1091 1.399 . S
C1087 C1086 1.399 . S
C1087 C1088 1.376 . S
C1088 H1075 0.930 . S
C1088 C1087 1.376 . S
C1088 C1089 1.388 . S
C1089 H1076 0.930 . S
C1089 C1088 1.388 . S
C1089 C1090 1.390 . S
C1090 C1089 1.390 . S
C1090 C1091 1.394 . S
C1090 C1096 1.465 . S
C1091 C1086 1.399 . S
C1091 C1090 1.394 . S
C1091 C1092 1.516 . S
C1092 C1091 1.516 . S
C1092 C1093 1.502 . S
C1092 C1094 1.561 . S
C1092 C1095 1.526 . S
C1093 H1077 0.959 . S
C1093 H1078 0.959 . S
C1093 H1079 0.961 . S
C1093 C1092 1.502 . S
C1094 H1080 0.960 . S
C1094 H1081 0.961 . S
C1094 H1082 0.959 . S
C1094 C1092 1.561 . S
C1095 C1092 1.526 . S
C1095 C1096 1.396 . S
C1095 C1100 1.390 . S
C1096 C1090 1.465 . S
C1096 C1095 1.396 . S
C1096 C1097 1.399 . S
C1097 H1083 0.929 . S
C1097 C1096 1.399 . S
C1097 C1098 1.385 . S
C1098 H1084 0.931 . S
C1098 C1097 1.385 . S
C1098 C1099 1.389 . S
C1099 C1098 1.389 . S
C1099 C1100 1.387 . S
C1100 H1085 0.930 . S
C1100 C1095 1.390 . S
C1100 C1099 1.387 . S
H1101 C1113 0.930 . S
H1102 C1115 0.930 . S
H1103 C1116 0.930 . S
H1104 C1120 0.959 . S
H1105 C1120 0.959 . S
H1106 C1120 0.961 . S
H1107 C1121 0.960 . S
H1108 C1121 0.961 . S
H1109 C1121 0.959 . S
H1110 C1124 0.929 . S
H1111 C1125 0.931 . S
H1112 C1127 0.930 . S
C1113 H1101 0.930 . S
C1113 C1114 1.399 . S
C1113 C1118 1.399 . S
C1114 C1113 1.399 . S
C1114 C1115 1.376 . S
C1115 H1102 0.930 . S
C1115 C1114 1.376 . S
C1115 C1116 1.388 . S
C1116 H1103 0.930 . S
C1116 C1115 1.388 . S
C1116 C1117 1.390 . S
C1117 C1116 1.390 . S
C1117 C1118 1.394 . S
C1117 C1123 1.465 . S
C1118 C1113 1.399 . S
C1118 C1117 1.394 . S
C1118 C1119 1.516 . S
C1119 C1118 1.516 . S
C1119 C1120 1.502 . S
C1119 C1121 1.561 . S
C1119 C1122 1.526 . S
C1120 H1104 0.959 . S
C1120 H1105 0.959 . S
C1120 H1106 0.961 . S
C1120 C1119 1.502 . S
C1121 H1107 0.960 . S
C1121 H1108 0.961 . S
C1121 H1109 0.959 . S
C1121 C1119 1.561 . S
C1122 C1119 1.526 . S
C1122 C1123 1.396 . S
C1122 C1127 1.390 . S
C1123 C1117 1.465 . S
C1123 C1122 1.396 . S
C1123 C1124 1.399 . S
C1124 H1110 0.929 . S
C1124 C1123 1.399 . S
C1124 C1125 1.385 . S
C1125 H1111 0.931 . S
C1125 C1124 1.385 . S
C1125 C1126 1.389 . S
C1126 C1125 1.389 . S
C1126 C1127 1.387 . S
C1127 H1112 0.930 . S
C1127 C1122 1.390 . S
C1127 C1126 1.387 . S
H1128 C1140 0.930 . S
H1129 C1142 0.930 . S
H1130 C1143 0.930 . S
H1131 C1147 0.959 . S
H1132 C1147 0.959 . S
H1133 C1147 0.961 . S
H1134 C1148 0.960 . S
H1135 C1148 0.961 . S
H1136 C1148 0.959 . S
H1137 C1151 0.929 . S
H1138 C1152 0.931 . S
H1139 C1154 0.930 . S
C1140 H1128 0.930 . S
C1140 C1141 1.399 . S
C1140 C1145 1.399 . S
C1141 C1140 1.399 . S
C1141 C1142 1.376 . S
C1142 H1129 0.930 . S
C1142 C1141 1.376 . S
C1142 C1143 1.388 . S
C1143 H1130 0.930 . S
C1143 C1142 1.388 . S
C1143 C1144 1.390 . S
C1144 C1143 1.390 . S
C1144 C1145 1.394 . S
C1144 C1150 1.465 . S
C1145 C1140 1.399 . S
C1145 C1144 1.394 . S
C1145 C1146 1.516 . S
C1146 C1145 1.516 . S
C1146 C1147 1.502 . S
C1146 C1148 1.561 . S
C1146 C1149 1.526 . S
C1147 H1131 0.959 . S
C1147 H1132 0.959 . S
C1147 H1133 0.961 . S
C1147 C1146 1.502 . S
C1148 H1134 0.960 . S
C1148 H1135 0.961 . S
C1148 H1136 0.959 . S
C1148 C1146 1.561 . S
C1149 C1146 1.526 . S
C1149 C1150 1.396 . S
C1149 C1154 1.390 . S
C1150 C1144 1.465 . S
C1150 C1149 1.396 . S
C1150 C1151 1.399 . S
C1151 H1137 0.929 . S
C1151 C1150 1.399 . S
C1151 C1152 1.385 . S
C1152 H1138 0.931 . S
C1152 C1151 1.385 . S
C1152 C1153 1.389 . S
C1153 C1152 1.389 . S
C1153 C1154 1.387 . S
C1154 H1139 0.930 . S
C1154 C1149 1.390 . S
C1154 C1153 1.387 . S
H1155 C1167 0.930 . S
H1156 C1169 0.930 . S
H1157 C1170 0.930 . S
H1158 C1174 0.959 . S
H1159 C1174 0.959 . S
H1160 C1174 0.961 . S
H1161 C1175 0.960 . S
H1162 C1175 0.961 . S
H1163 C1175 0.959 . S
H1164 C1178 0.929 . S
H1165 C1179 0.931 . S
H1166 C1181 0.930 . S
C1167 H1155 0.930 . S
C1167 C1168 1.399 . S
C1167 C1172 1.399 . S
C1168 C1167 1.399 . S
C1168 C1169 1.376 . S
C1169 H1156 0.930 . S
C1169 C1168 1.376 . S
C1169 C1170 1.388 . S
C1170 H1157 0.930 . S
C1170 C1169 1.388 . S
C1170 C1171 1.390 . S
C1171 C1170 1.390 . S
C1171 C1172 1.394 . S
C1171 C1177 1.465 . S
C1172 C1167 1.399 . S
C1172 C1171 1.394 . S
C1172 C1173 1.516 . S
C1173 C1172 1.516 . S
C1173 C1174 1.502 . S
C1173 C1175 1.561 . S
C1173 C1176 1.526 . S
C1174 H1158 0.959 . S
C1174 H1159 0.959 . S
C1174 H1160 0.961 . S
C1174 C1173 1.502 . S
C1175 H1161 0.960 . S
C1175 H1162 0.961 . S
C1175 H1163 0.959 . S
C1175 C1173 1.561 . S
C1176 C1173 1.526 . S
C1176 C1177 1.396 . S
C1176 C1181 1.390 . S
C1177 C1171 1.465 . S
C1177 C1176 1.396 . S
C1177 C1178 1.399 . S
C1178 H1164 0.929 . S
C1178 C1177 1.399 . S
C1178 C1179 1.385 . S
C1179 H1165 0.931 . S
C1179 C1178 1.385 . S
C1179 C1180 1.389 . S
C1180 C1179 1.389 . S
C1180 C1181 1.387 . S
C1181 H1166 0.930 . S
C1181 C1176 1.390 . S
C1181 C1180 1.387 . S
H1182 C1194 0.930 . S
H1183 C1196 0.930 . S
H1184 C1197 0.930 . S
H1185 C1201 0.959 . S
H1186 C1201 0.959 . S
H1187 C1201 0.961 . S
H1188 C1202 0.960 . S
H1189 C1202 0.961 . S
H1190 C1202 0.959 . S
H1191 C1205 0.929 . S
H1192 C1206 0.931 . S
H1193 C1208 0.930 . S
C1194 H1182 0.930 . S
C1194 C1195 1.399 . S
C1194 C1199 1.399 . S
C1195 C1194 1.399 . S
C1195 C1196 1.376 . S
C1196 H1183 0.930 . S
C1196 C1195 1.376 . S
C1196 C1197 1.388 . S
C1197 H1184 0.930 . S
C1197 C1196 1.388 . S
C1197 C1198 1.390 . S
C1198 C1197 1.390 . S
C1198 C1199 1.394 . S
C1198 C1204 1.465 . S
C1199 C1194 1.399 . S
C1199 C1198 1.394 . S
C1199 C1200 1.516 . S
C1200 C1199 1.516 . S
C1200 C1201 1.502 . S
C1200 C1202 1.561 . S
C1200 C1203 1.526 . S
C1201 H1185 0.959 . S
C1201 H1186 0.959 . S
C1201 H1187 0.961 . S
C1201 C1200 1.502 . S
C1202 H1188 0.960 . S
C1202 H1189 0.961 . S
C1202 H1190 0.959 . S
C1202 C1200 1.561 . S
C1203 C1200 1.526 . S
C1203 C1204 1.396 . S
C1203 C1208 1.390 . S
C1204 C1198 1.465 . S
C1204 C1203 1.396 . S
C1204 C1205 1.399 . S
C1205 H1191 0.929 . S
C1205 C1204 1.399 . S
C1205 C1206 1.385 . S
C1206 H1192 0.931 . S
C1206 C1205 1.385 . S
C1206 C1207 1.389 . S
C1207 C1206 1.389 . S
C1207 C1208 1.387 . S
C1208 H1193 0.930 . S
C1208 C1203 1.390 . S
C1208 C1207 1.387 . S
H1209 C1221 0.930 . S
H1210 C1223 0.930 . S
H1211 C1224 0.930 . S
H1212 C1228 0.959 . S
H1213 C1228 0.959 . S
H1214 C1228 0.961 . S
H1215 C1229 0.960 . S
H1216 C1229 0.961 . S
H1217 C1229 0.959 . S
H1218 C1232 0.929 . S
H1219 C1233 0.931 . S
H1220 C1235 0.930 . S
C1221 H1209 0.930 . S
C1221 C1222 1.399 . S
C1221 C1226 1.399 . S
C1222 C1221 1.399 . S
C1222 C1223 1.376 . S
C1223 H1210 0.930 . S
C1223 C1222 1.376 . S
C1223 C1224 1.388 . S
C1224 H1211 0.930 . S
C1224 C1223 1.388 . S
C1224 C1225 1.390 . S
C1225 C1224 1.390 . S
C1225 C1226 1.394 . S
C1225 C1231 1.465 . S
C1226 C1221 1.399 . S
C1226 C1225 1.394 . S
C1226 C1227 1.516 . S
C1227 C1226 1.516 . S
C1227 C1228 1.502 . S
C1227 C1229 1.561 . S
C1227 C1230 1.526 . S
C1228 H1212 0.959 . S
C1228 H1213 0.959 . S
C1228 H1214 0.961 . S
C1228 C1227 1.502 . S
C1229 H1215 0.960 . S
C1229 H1216 0.961 . S
C1229 H1217 0.959 . S
C1229 C1227 1.561 . S
C1230 C1227 1.526 . S
C1230 C1231 1.396 . S
C1230 C1235 1.390 . S
C1231 C1225 1.465 . S
C1231 C1230 1.396 . S
C1231 C1232 1.399 . S
C1232 H1218 0.929 . S
C1232 C1231 1.399 . S
C1232 C1233 1.385 . S
C1233 H1219 0.931 . S
C1233 C1232 1.385 . S
C1233 C1234 1.389 . S
C1234 C1233 1.389 . S
C1234 C1235 1.387 . S
C1235 H1220 0.930 . S
C1235 C1230 1.390 . S
C1235 C1234 1.387 . S
H1236 C1248 0.930 . S
H1237 C1250 0.930 . S
H1238 C1251 0.930 . S
H1239 C1255 0.959 . S
H1240 C1255 0.959 . S
H1241 C1255 0.961 . S
H1242 C1256 0.960 . S
H1243 C1256 0.961 . S
H1244 C1256 0.959 . S
H1245 C1259 0.929 . S
H1246 C1260 0.931 . S
H1247 C1262 0.930 . S
C1248 H1236 0.930 . S
C1248 C1249 1.399 . S
C1248 C1253 1.399 . S
C1249 C1248 1.399 . S
C1249 C1250 1.376 . S
C1250 H1237 0.930 . S
C1250 C1249 1.376 . S
C1250 C1251 1.388 . S
C1251 H1238 0.930 . S
C1251 C1250 1.388 . S
C1251 C1252 1.390 . S
C1252 C1251 1.390 . S
C1252 C1253 1.394 . S
C1252 C1258 1.465 . S
C1253 C1248 1.399 . S
C1253 C1252 1.394 . S
C1253 C1254 1.516 . S
C1254 C1253 1.516 . S
C1254 C1255 1.502 . S
C1254 C1256 1.561 . S
C1254 C1257 1.526 . S
C1255 H1239 0.959 . S
C1255 H1240 0.959 . S
C1255 H1241 0.961 . S
C1255 C1254 1.502 . S
C1256 H1242 0.960 . S
C1256 H1243 0.961 . S
C1256 H1244 0.959 . S
C1256 C1254 1.561 . S
C1257 C1254 1.526 . S
C1257 C1258 1.396 . S
C1257 C1262 1.390 . S
C1258 C1252 1.465 . S
C1258 C1257 1.396 . S
C1258 C1259 1.399 . S
C1259 H1245 0.929 . S
C1259 C1258 1.399 . S
C1259 C1260 1.385 . S
C1260 H1246 0.931 . S
C1260 C1259 1.385 . S
C1260 C1261 1.389 . S
C1261 C1260 1.389 . S
C1261 C1262 1.387 . S
C1262 H1247 0.930 . S
C1262 C1257 1.390 . S
C1262 C1261 1.387 . S
H1263 C1275 0.930 . S
H1264 C1277 0.930 . S
H1265 C1278 0.930 . S
H1266 C1282 0.959 . S
H1267 C1282 0.959 . S
H1268 C1282 0.961 . S
H1269 C1283 0.960 . S
H1270 C1283 0.961 . S
H1271 C1283 0.959 . S
H1272 C1286 0.929 . S
H1273 C1287 0.931 . S
H1274 C1289 0.930 . S
C1275 H1263 0.930 . S
C1275 C1276 1.399 . S
C1275 C1280 1.399 . S
C1276 C1275 1.399 . S
C1276 C1277 1.376 . S
C1277 H1264 0.930 . S
C1277 C1276 1.376 . S
C1277 C1278 1.388 . S
C1278 H1265 0.930 . S
C1278 C1277 1.388 . S
C1278 C1279 1.390 . S
C1279 C1278 1.390 . S
C1279 C1280 1.394 . S
C1279 C1285 1.465 . S
C1280 C1275 1.399 . S
C1280 C1279 1.394 . S
C1280 C1281 1.516 . S
C1281 C1280 1.516 . S
C1281 C1282 1.502 . S
C1281 C1283 1.561 . S
C1281 C1284 1.526 . S
C1282 H1266 0.959 . S
C1282 H1267 0.959 . S
C1282 H1268 0.961 . S
C1282 C1281 1.502 . S
C1283 H1269 0.960 . S
C1283 H1270 0.961 . S
C1283 H1271 0.959 . S
C1283 C1281 1.561 . S
C1284 C1281 1.526 . S
C1284 C1285 1.396 . S
C1284 C1289 1.390 . S
C1285 C1279 1.465 . S
C1285 C1284 1.396 . S
C1285 C1286 1.399 . S
C1286 H1272 0.929 . S
C1286 C1285 1.399 . S
C1286 C1287 1.385 . S
C1287 H1273 0.931 . S
C1287 C1286 1.385 . S
C1287 C1288 1.389 . S
C1288 C1287 1.389 . S
C1288 C1289 1.387 . S
C1289 H1274 0.930 . S
C1289 C1284 1.390 . S
C1289 C1288 1.387 . S
H1290 C1302 0.930 . S
H1291 C1304 0.930 . S
H1292 C1305 0.930 . S
H1293 C1309 0.959 . S
H1294 C1309 0.959 1_554 S
H1295 C1309 0.961 . S
H1296 C1310 0.960 . S
H1297 C1310 0.961 . S
H1298 C1310 0.959 . S
H1299 C1313 0.929 . S
H1300 C1314 0.931 . S
H1301 C1316 0.930 . S
C1302 H1290 0.930 . S
C1302 C1303 1.399 . S
C1302 C1307 1.399 . S
C1303 C1302 1.399 . S
C1303 C1304 1.376 . S
C1304 H1291 0.930 . S
C1304 C1303 1.376 . S
C1304 C1305 1.388 . S
C1305 H1292 0.930 . S
C1305 C1304 1.388 . S
C1305 C1306 1.390 . S
C1306 C1305 1.390 . S
C1306 C1307 1.394 . S
C1306 C1312 1.465 1_556 S
C1307 C1302 1.399 . S
C1307 C1306 1.394 . S
C1307 C1308 1.516 1_556 S
C1308 C1307 1.516 1_554 S
C1308 C1309 1.502 1_554 S
C1308 C1310 1.561 . S
C1308 C1311 1.526 . S
C1309 H1293 0.959 . S
C1309 H1294 0.959 1_556 S
C1309 H1295 0.961 . S
C1309 C1308 1.502 1_556 S
C1310 H1296 0.960 . S
C1310 H1297 0.961 . S
C1310 H1298 0.959 . S
C1310 C1308 1.561 . S
C1311 C1308 1.526 . S
C1311 C1312 1.396 . S
C1311 C1316 1.390 . S
C1312 C1306 1.465 1_554 S
C1312 C1311 1.396 . S
C1312 C1313 1.399 . S
C1313 H1299 0.929 . S
C1313 C1312 1.399 . S
C1313 C1314 1.385 . S
C1314 H1300 0.931 . S
C1314 C1313 1.385 . S
C1314 C1315 1.389 . S
C1315 C1314 1.389 . S
C1315 C1316 1.387 . S
C1316 H1301 0.930 . S
C1316 C1311 1.390 . S
C1316 C1315 1.387 . S
H1317 C1329 0.930 . S
H1318 C1331 0.930 . S
H1319 C1332 0.930 1_655 S
H1320 C1336 0.959 . S
H1321 C1336 0.959 . S
H1322 C1336 0.961 . S
H1323 C1337 0.960 . S
H1324 C1337 0.961 . S
H1325 C1337 0.959 1_655 S
H1326 C1340 0.929 . S
H1327 C1341 0.931 . S
H1328 C1343 0.930 . S
C1329 H1317 0.930 . S
C1329 C1330 1.399 . S
C1329 C1334 1.399 . S
C1330 C1329 1.399 . S
C1330 C1331 1.376 . S
C1331 H1318 0.930 . S
C1331 C1330 1.376 . S
C1331 C1332 1.388 . S
C1332 H1319 0.930 1_455 S
C1332 C1331 1.388 . S
C1332 C1333 1.390 . S
C1333 C1332 1.390 . S
C1333 C1334 1.394 . S
C1333 C1339 1.465 1_455 S
C1334 C1329 1.399 . S
C1334 C1333 1.394 . S
C1334 C1335 1.516 . S
C1335 C1334 1.516 . S
C1335 C1336 1.502 . S
C1335 C1337 1.561 . S
C1335 C1338 1.526 1_455 S
C1336 H1320 0.959 . S
C1336 H1321 0.959 . S
C1336 H1322 0.961 . S
C1336 C1335 1.502 . S
C1337 H1323 0.960 . S
C1337 H1324 0.961 . S
C1337 H1325 0.959 1_455 S
C1337 C1335 1.561 . S
C1338 C1335 1.526 1_655 S
C1338 C1339 1.396 . S
C1338 C1343 1.390 . S
C1339 C1333 1.465 1_655 S
C1339 C1338 1.396 . S
C1339 C1340 1.399 . S
C1340 H1326 0.929 . S
C1340 C1339 1.399 . S
C1340 C1341 1.385 . S
C1341 H1327 0.931 . S
C1341 C1340 1.385 . S
C1341 C1342 1.389 . S
C1342 C1341 1.389 . S
C1342 C1343 1.387 . S
C1343 H1328 0.930 . S
C1343 C1338 1.390 . S
C1343 C1342 1.387 . S
H1344 C1356 0.930 . S
H1345 C1358 0.930 . S
H1346 C1359 0.930 . S
H1347 C1363 0.959 . S
H1348 C1363 0.959 . S
H1349 C1363 0.961 . S
H1350 C1364 0.960 . S
H1351 C1364 0.961 . S
H1352 C1364 0.959 . S
H1353 C1367 0.929 1_565 S
H1354 C1368 0.931 . S
H1355 C1370 0.930 . S
C1356 H1344 0.930 . S
C1356 C1357 1.399 . S
C1356 C1361 1.399 . S
C1357 C1356 1.399 . S
C1357 C1358 1.376 . S
C1358 H1345 0.930 . S
C1358 C1357 1.376 . S
C1358 C1359 1.388 1_554 S
C1359 H1346 0.930 . S
C1359 C1358 1.388 1_556 S
C1359 C1360 1.390 . S
C1360 C1359 1.390 . S
C1360 C1361 1.394 1_556 S
C1360 C1366 1.465 1_565 S
C1361 C1356 1.399 . S
C1361 C1360 1.394 1_554 S
C1361 C1362 1.516 1_565 S
C1362 C1361 1.516 1_545 S
C1362 C1363 1.502 . S
C1362 C1364 1.561 . S
C1362 C1365 1.526 1_554 S
C1363 H1347 0.959 . S
C1363 H1348 0.959 . S
C1363 H1349 0.961 . S
C1363 C1362 1.502 . S
C1364 H1350 0.960 . S
C1364 H1351 0.961 . S
C1364 H1352 0.959 . S
C1364 C1362 1.561 . S
C1365 C1362 1.526 1_556 S
C1365 C1366 1.396 . S
C1365 C1370 1.390 . S
C1366 C1360 1.465 1_545 S
C1366 C1365 1.396 . S
C1366 C1367 1.399 . S
C1367 H1353 0.929 1_545 S
C1367 C1366 1.399 . S
C1367 C1368 1.385 . S
C1368 H1354 0.931 . S
C1368 C1367 1.385 . S
C1368 C1369 1.389 . S
C1369 C1368 1.389 . S
C1369 C1370 1.387 . S
C1370 H1355 0.930 . S
C1370 C1365 1.390 . S
C1370 C1369 1.387 . S
H1371 C1383 0.930 . S
H1372 C1385 0.930 . S
H1373 C1386 0.930 . S
H1374 C1390 0.959 . S
H1375 C1390 0.959 . S
H1376 C1390 0.961 . S
H1377 C1391 0.960 . S
H1378 C1391 0.961 . S
H1379 C1391 0.959 . S
H1380 C1394 0.929 . S
H1381 C1395 0.931 . S
H1382 C1397 0.930 . S
C1383 H1371 0.930 . S
C1383 C1384 1.399 . S
C1383 C1388 1.399 . S
C1384 C1383 1.399 . S
C1384 C1385 1.376 . S
C1385 H1372 0.930 . S
C1385 C1384 1.376 . S
C1385 C1386 1.388 . S
C1386 H1373 0.930 . S
C1386 C1385 1.388 . S
C1386 C1387 1.390 . S
C1387 C1386 1.390 . S
C1387 C1388 1.394 . S
C1387 C1393 1.465 . S
C1388 C1383 1.399 . S
C1388 C1387 1.394 . S
C1388 C1389 1.516 . S
C1389 C1388 1.516 . S
C1389 C1390 1.502 . S
C1389 C1391 1.561 . S
C1389 C1392 1.526 . S
C1390 H1374 0.959 . S
C1390 H1375 0.959 . S
C1390 H1376 0.961 . S
C1390 C1389 1.502 . S
C1391 H1377 0.960 . S
C1391 H1378 0.961 . S
C1391 H1379 0.959 . S
C1391 C1389 1.561 . S
C1392 C1389 1.526 . S
C1392 C1393 1.396 . S
C1392 C1397 1.390 . S
C1393 C1387 1.465 . S
C1393 C1392 1.396 . S
C1393 C1394 1.399 . S
C1394 H1380 0.929 . S
C1394 C1393 1.399 . S
C1394 C1395 1.385 . S
C1395 H1381 0.931 . S
C1395 C1394 1.385 . S
C1395 C1396 1.389 . S
C1396 C1395 1.389 . S
C1396 C1397 1.387 . S
C1397 H1382 0.930 . S
C1397 C1392 1.390 . S
C1397 C1396 1.387 . S
H1398 C1410 0.930 . S
H1399 C1412 0.930 . S
H1400 C1413 0.930 . S
H1401 C1417 0.959 . S
H1402 C1417 0.959 . S
H1403 C1417 0.961 . S
H1404 C1418 0.960 1_655 S
H1405 C1418 0.961 . S
H1406 C1418 0.946 1_654 S
H1407 C1421 0.929 1_655 S
H1408 C1422 0.931 . S
H1409 C1424 0.930 . S
C1410 H1398 0.930 . S
C1410 C1411 1.399 . S
C1410 C1415 1.399 . S
C1411 C1410 1.399 . S
C1411 C1412 1.376 . S
C1412 H1399 0.930 . S
C1412 C1411 1.376 . S
C1412 C1413 1.388 1_556 S
C1413 H1400 0.930 . S
C1413 C1412 1.388 1_554 S
C1413 C1414 1.390 . S
C1414 C1413 1.390 . S
C1414 C1415 1.394 1_554 S
C1414 C1420 1.465 1_655 S
C1415 C1410 1.399 . S
C1415 C1414 1.394 1_556 S
C1415 C1416 1.516 1_655 S
C1416 C1415 1.516 1_455 S
C1416 C1417 1.502 . S
C1416 C1418 1.561 . S
C1416 C1419 1.526 1_556 S
C1417 H1401 0.959 . S
C1417 H1402 0.959 . S
C1417 H1403 0.961 . S
C1417 C1416 1.502 . S
C1418 H1404 0.960 1_455 S
C1418 H1405 0.961 . S
C1418 H1406 0.946 1_456 S
C1418 C1416 1.561 . S
C1419 C1416 1.526 1_554 S
C1419 C1420 1.396 . S
C1419 C1424 1.390 . S
C1420 C1414 1.465 1_455 S
C1420 C1419 1.396 . S
C1420 C1421 1.399 . S
C1421 H1407 0.929 1_455 S
C1421 C1420 1.399 . S
C1421 C1422 1.385 . S
C1422 H1408 0.931 . S
C1422 C1421 1.385 . S
C1422 C1423 1.389 . S
C1423 C1422 1.389 . S
C1423 C1424 1.387 . S
C1424 H1409 0.930 . S
C1424 C1419 1.390 . S
C1424 C1423 1.387 . S
H1425 C1437 0.930 . S
H1426 C1439 0.930 . S
H1427 C1440 0.930 1_545 S
H1428 C1444 0.959 . S
H1429 C1444 0.959 . S
H1430 C1444 0.961 . S
H1431 C1445 0.960 . S
H1432 C1445 0.961 . S
H1433 C1445 0.959 . S
H1434 C1448 0.929 . S
H1435 C1449 0.931 . S
H1436 C1451 0.930 . S
C1437 H1425 0.930 . S
C1437 C1438 1.399 . S
C1437 C1442 1.399 . S
C1438 C1437 1.399 . S
C1438 C1439 1.376 . S
C1439 H1426 0.930 . S
C1439 C1438 1.376 . S
C1439 C1440 1.388 . S
C1440 H1427 0.930 1_565 S
C1440 C1439 1.388 . S
C1440 C1441 1.390 . S
C1441 C1440 1.390 . S
C1441 C1442 1.394 . S
C1441 C1447 1.465 1_565 S
C1442 C1437 1.399 . S
C1442 C1441 1.394 . S
C1442 C1443 1.516 . S
C1443 C1442 1.516 . S
C1443 C1444 1.502 . S
C1443 C1445 1.561 . S
C1443 C1446 1.526 1_565 S
C1444 H1428 0.959 . S
C1444 H1429 0.959 . S
C1444 H1430 0.961 . S
C1444 C1443 1.502 . S
C1445 H1431 0.960 . S
C1445 H1432 0.961 . S
C1445 H1433 0.959 . S
C1445 C1443 1.561 . S
C1446 C1443 1.526 1_545 S
C1446 C1447 1.396 . S
C1446 C1451 1.390 . S
C1447 C1441 1.465 1_545 S
C1447 C1446 1.396 . S
C1447 C1448 1.399 . S
C1448 H1434 0.929 . S
C1448 C1447 1.399 . S
C1448 C1449 1.385 . S
C1449 H1435 0.931 . S
C1449 C1448 1.385 . S
C1449 C1450 1.389 . S
C1450 C1449 1.389 . S
C1450 C1451 1.387 . S
C1451 H1436 0.930 . S
C1451 C1446 1.390 . S
C1451 C1450 1.387 . S
C493 C179 1.256 . S
C505 C15 1.320 . S
C520 C219 1.281 . S
C532 C55 1.308 . S
C547 C95 1.341 . S
C559 C19 1.250 . S
C574 C135 1.303 . S
C586 C59 1.324 . S
C601 C175 1.329 . S
C613 C99 1.305 . S
C628 C139 1.301 . S
C640 C215 1.332 . S
C655 C339 1.329 . S
C667 C255 1.310 . S
C682 C295 1.304 . S
C694 C379 1.325 . S
C709 C419 1.321 . S
C721 C335 1.303 . S
C736 C375 1.341 . S
C748 C459 1.261 . S
C763 C415 1.306 . S
C775 C259 1.288 . S
C790 C299 1.280 . S
C802 C455 1.338 . S
C817 C170 1.761 . S
C829 C6 1.773 . S
C844 C46 1.743 . S
C856 C210 1.801 . S
C871 C86 1.787 . S
C883 C10 1.756 . S
C898 C126 1.737 . S
C910 C50 1.799 . S
C925 C90 1.779 . S
C937 C166 1.778 . S
C952 C130 1.767 . S
C964 C206 1.764 . S
C979 C330 1.783 . S
C991 C246 1.774 . S
C1006 C286 1.780 . S
C1018 C370 1.758 . S
C1033 C326 1.789 . S
C1045 C410 1.756 . S
C1060 C450 1.800 . S
C1072 C366 1.738 . S
C1087 C406 1.786 . S
C1099 C250 1.757 . S
C1114 C290 1.791 . S
C1126 C446 1.764 . S
C1141 C418 1.626 . S
C1153 C18 1.568 . S
C1168 C58 1.651 . S
C1180 C458 1.569 . S
C1195 C98 1.578 . S
C1207 C258 1.611 . S
C1222 C138 1.580 . S
C1234 C298 1.644 . S
C1249 C178 1.653 . S
C1261 C338 1.561 . S
C1276 C378 1.652 . S
C1288 C218 1.559 . S
C1303 C369 2.173 . S
C1315 C9 2.173 . S
C1330 C409 2.158 . S
C1342 C49 2.170 . S
C1357 C89 2.168 . S
C1369 C449 2.158 . S
C1384 C129 2.157 . S
C1396 C249 2.169 . S
C1411 C289 2.175 . S
C1423 C169 2.164 . S
C1438 C329 2.166 . S
C1450 C209 2.176 . S
