# Generated by pormake.
# Topology vce, (5)-cn, num edge types: 1
# Building blocks:
#     Node 0, Type 0, BuildingBlock: XOMCOT_clean_sbu_1, # of connection points: 5
#     Node 1, Type 0, BuildingBlock: XOMCOT_clean_sbu_1, # of connection points: 5
#     Node 2, Type 0, BuildingBlock: XOMCOT_clean_sbu_1, # of connection points: 5
#     Node 3, Type 0, BuildingBlock: XOMCOT_clean_sbu_1, # of connection points: 5
#     Node 4, Type 0, BuildingBlock: XOMCOT_clean_sbu_1, # of connection points: 5
#     Node 5, Type 0, BuildingBlock: XOMCOT_clean_sbu_1, # of connection points: 5
#     Node 6, Type 0, BuildingBlock: XOMCOT_clean_sbu_1, # of connection points: 5
#     Node 7, Type 0, BuildingBlock: XOMCOT_clean_sbu_1, # of connection points: 5
#     Node 8, Type 0, BuildingBlock: XOMCOT_clean_sbu_1, # of connection points: 5
#     Node 9, Type 0, BuildingBlock: XOMCOT_clean_sbu_1, # of connection points: 5
#     Node 10, Type 0, BuildingBlock: XOMCOT_clean_sbu_1, # of connection points: 5
#     Node 11, Type 0, BuildingBlock: XOMCOT_clean_sbu_1, # of connection points: 5
#     Node 12, Type 0, BuildingBlock: XOMCOT_clean_sbu_1, # of connection points: 5
#     Node 13, Type 0, BuildingBlock: XOMCOT_clean_sbu_1, # of connection points: 5
#     Node 14, Type 0, BuildingBlock: XOMCOT_clean_sbu_1, # of connection points: 5
#     Node 15, Type 0, BuildingBlock: XOMCOT_clean_sbu_1, # of connection points: 5
#     Node 16, Type 0, BuildingBlock: XOMCOT_clean_sbu_1, # of connection points: 5
#     Node 17, Type 0, BuildingBlock: XOMCOT_clean_sbu_1, # of connection points: 5
#     Node 18, Type 0, BuildingBlock: XOMCOT_clean_sbu_1, # of connection points: 5
#     Node 19, Type 0, BuildingBlock: XOMCOT_clean_sbu_1, # of connection points: 5
#     Node 20, Type 0, BuildingBlock: XOMCOT_clean_sbu_1, # of connection points: 5
#     Node 21, Type 0, BuildingBlock: XOMCOT_clean_sbu_1, # of connection points: 5
#     Node 22, Type 0, BuildingBlock: XOMCOT_clean_sbu_1, # of connection points: 5
#     Node 23, Type 0, BuildingBlock: XOMCOT_clean_sbu_1, # of connection points: 5
#     Node 24, Type 0, BuildingBlock: XOMCOT_clean_sbu_1, # of connection points: 5
#     Node 25, Type 0, BuildingBlock: XOMCOT_clean_sbu_1, # of connection points: 5
#     Node 26, Type 0, BuildingBlock: XOMCOT_clean_sbu_1, # of connection points: 5
#     Node 27, Type 0, BuildingBlock: XOMCOT_clean_sbu_1, # of connection points: 5
#     Node 28, Type 0, BuildingBlock: XOMCOT_clean_sbu_1, # of connection points: 5
#     Node 29, Type 0, BuildingBlock: XOMCOT_clean_sbu_1, # of connection points: 5
#     Node 30, Type 0, BuildingBlock: XOMCOT_clean_sbu_1, # of connection points: 5
#     Node 31, Type 0, BuildingBlock: XOMCOT_clean_sbu_1, # of connection points: 5
#     Edge 32, Type (0, 0), BuildingBlock: AJUNOK_clean_linker_0, # of connection points: 2
#     Edge 33, Type (0, 0), BuildingBlock: AJUNOK_clean_linker_0, # of connection points: 2
#     Edge 34, Type (0, 0), BuildingBlock: AJUNOK_clean_linker_0, # of connection points: 2
#     Edge 35, Type (0, 0), BuildingBlock: AJUNOK_clean_linker_0, # of connection points: 2
#     Edge 36, Type (0, 0), BuildingBlock: AJUNOK_clean_linker_0, # of connection points: 2
#     Edge 37, Type (0, 0), BuildingBlock: AJUNOK_clean_linker_0, # of connection points: 2
#     Edge 38, Type (0, 0), BuildingBlock: AJUNOK_clean_linker_0, # of connection points: 2
#     Edge 39, Type (0, 0), BuildingBlock: AJUNOK_clean_linker_0, # of connection points: 2
#     Edge 40, Type (0, 0), BuildingBlock: AJUNOK_clean_linker_0, # of connection points: 2
#     Edge 41, Type (0, 0), BuildingBlock: AJUNOK_clean_linker_0, # of connection points: 2
#     Edge 42, Type (0, 0), BuildingBlock: AJUNOK_clean_linker_0, # of connection points: 2
#     Edge 43, Type (0, 0), BuildingBlock: AJUNOK_clean_linker_0, # of connection points: 2
#     Edge 44, Type (0, 0), BuildingBlock: AJUNOK_clean_linker_0, # of connection points: 2
#     Edge 45, Type (0, 0), BuildingBlock: AJUNOK_clean_linker_0, # of connection points: 2
#     Edge 46, Type (0, 0), BuildingBlock: AJUNOK_clean_linker_0, # of connection points: 2
#     Edge 47, Type (0, 0), BuildingBlock: AJUNOK_clean_linker_0, # of connection points: 2
#     Edge 48, Type (0, 0), BuildingBlock: AJUNOK_clean_linker_0, # of connection points: 2
#     Edge 49, Type (0, 0), BuildingBlock: AJUNOK_clean_linker_0, # of connection points: 2
#     Edge 50, Type (0, 0), BuildingBlock: AJUNOK_clean_linker_0, # of connection points: 2
#     Edge 51, Type (0, 0), BuildingBlock: AJUNOK_clean_linker_0, # of connection points: 2
#     Edge 52, Type (0, 0), BuildingBlock: AJUNOK_clean_linker_0, # of connection points: 2
#     Edge 53, Type (0, 0), BuildingBlock: AJUNOK_clean_linker_0, # of connection points: 2
#     Edge 54, Type (0, 0), BuildingBlock: AJUNOK_clean_linker_0, # of connection points: 2
#     Edge 55, Type (0, 0), BuildingBlock: AJUNOK_clean_linker_0, # of connection points: 2
#     Edge 56, Type (0, 0), BuildingBlock: AJUNOK_clean_linker_0, # of connection points: 2
#     Edge 57, Type (0, 0), BuildingBlock: AJUNOK_clean_linker_0, # of connection points: 2
#     Edge 58, Type (0, 0), BuildingBlock: AJUNOK_clean_linker_0, # of connection points: 2
#     Edge 59, Type (0, 0), BuildingBlock: AJUNOK_clean_linker_0, # of connection points: 2
#     Edge 60, Type (0, 0), BuildingBlock: AJUNOK_clean_linker_0, # of connection points: 2
#     Edge 61, Type (0, 0), BuildingBlock: AJUNOK_clean_linker_0, # of connection points: 2
#     Edge 62, Type (0, 0), BuildingBlock: AJUNOK_clean_linker_0, # of connection points: 2
#     Edge 63, Type (0, 0), BuildingBlock: AJUNOK_clean_linker_0, # of connection points: 2
#     Edge 64, Type (0, 0), BuildingBlock: AJUNOK_clean_linker_0, # of connection points: 2
#     Edge 65, Type (0, 0), BuildingBlock: AJUNOK_clean_linker_0, # of connection points: 2
#     Edge 66, Type (0, 0), BuildingBlock: AJUNOK_clean_linker_0, # of connection points: 2
#     Edge 67, Type (0, 0), BuildingBlock: AJUNOK_clean_linker_0, # of connection points: 2
#     Edge 68, Type (0, 0), BuildingBlock: AJUNOK_clean_linker_0, # of connection points: 2
#     Edge 69, Type (0, 0), BuildingBlock: AJUNOK_clean_linker_0, # of connection points: 2
#     Edge 70, Type (0, 0), BuildingBlock: AJUNOK_clean_linker_0, # of connection points: 2
#     Edge 71, Type (0, 0), BuildingBlock: AJUNOK_clean_linker_0, # of connection points: 2
#     Edge 72, Type (0, 0), BuildingBlock: AJUNOK_clean_linker_0, # of connection points: 2
#     Edge 73, Type (0, 0), BuildingBlock: AJUNOK_clean_linker_0, # of connection points: 2
#     Edge 74, Type (0, 0), BuildingBlock: AJUNOK_clean_linker_0, # of connection points: 2
#     Edge 75, Type (0, 0), BuildingBlock: AJUNOK_clean_linker_0, # of connection points: 2
#     Edge 76, Type (0, 0), BuildingBlock: AJUNOK_clean_linker_0, # of connection points: 2
#     Edge 77, Type (0, 0), BuildingBlock: AJUNOK_clean_linker_0, # of connection points: 2
#     Edge 78, Type (0, 0), BuildingBlock: AJUNOK_clean_linker_0, # of connection points: 2
#     Edge 79, Type (0, 0), BuildingBlock: AJUNOK_clean_linker_0, # of connection points: 2
#     Edge 80, Type (0, 0), BuildingBlock: AJUNOK_clean_linker_0, # of connection points: 2
#     Edge 81, Type (0, 0), BuildingBlock: AJUNOK_clean_linker_0, # of connection points: 2
#     Edge 82, Type (0, 0), BuildingBlock: AJUNOK_clean_linker_0, # of connection points: 2
#     Edge 83, Type (0, 0), BuildingBlock: AJUNOK_clean_linker_0, # of connection points: 2
#     Edge 84, Type (0, 0), BuildingBlock: AJUNOK_clean_linker_0, # of connection points: 2
#     Edge 85, Type (0, 0), BuildingBlock: AJUNOK_clean_linker_0, # of connection points: 2
#     Edge 86, Type (0, 0), BuildingBlock: AJUNOK_clean_linker_0, # of connection points: 2
#     Edge 87, Type (0, 0), BuildingBlock: AJUNOK_clean_linker_0, # of connection points: 2
#     Edge 88, Type (0, 0), BuildingBlock: AJUNOK_clean_linker_0, # of connection points: 2
#     Edge 89, Type (0, 0), BuildingBlock: AJUNOK_clean_linker_0, # of connection points: 2
#     Edge 90, Type (0, 0), BuildingBlock: AJUNOK_clean_linker_0, # of connection points: 2
#     Edge 91, Type (0, 0), BuildingBlock: AJUNOK_clean_linker_0, # of connection points: 2
#     Edge 92, Type (0, 0), BuildingBlock: AJUNOK_clean_linker_0, # of connection points: 2
#     Edge 93, Type (0, 0), BuildingBlock: AJUNOK_clean_linker_0, # of connection points: 2
#     Edge 94, Type (0, 0), BuildingBlock: AJUNOK_clean_linker_0, # of connection points: 2
#     Edge 95, Type (0, 0), BuildingBlock: AJUNOK_clean_linker_0, # of connection points: 2
#     Edge 96, Type (0, 0), BuildingBlock: AJUNOK_clean_linker_0, # of connection points: 2
#     Edge 97, Type (0, 0), BuildingBlock: AJUNOK_clean_linker_0, # of connection points: 2
#     Edge 98, Type (0, 0), BuildingBlock: AJUNOK_clean_linker_0, # of connection points: 2
#     Edge 99, Type (0, 0), BuildingBlock: AJUNOK_clean_linker_0, # of connection points: 2
#     Edge 100, Type (0, 0), BuildingBlock: AJUNOK_clean_linker_0, # of connection points: 2
#     Edge 101, Type (0, 0), BuildingBlock: AJUNOK_clean_linker_0, # of connection points: 2
#     Edge 102, Type (0, 0), BuildingBlock: AJUNOK_clean_linker_0, # of connection points: 2
#     Edge 103, Type (0, 0), BuildingBlock: AJUNOK_clean_linker_0, # of connection points: 2
#     Edge 104, Type (0, 0), BuildingBlock: AJUNOK_clean_linker_0, # of connection points: 2
#     Edge 105, Type (0, 0), BuildingBlock: AJUNOK_clean_linker_0, # of connection points: 2
#     Edge 106, Type (0, 0), BuildingBlock: AJUNOK_clean_linker_0, # of connection points: 2
#     Edge 107, Type (0, 0), BuildingBlock: AJUNOK_clean_linker_0, # of connection points: 2
#     Edge 108, Type (0, 0), BuildingBlock: AJUNOK_clean_linker_0, # of connection points: 2
#     Edge 109, Type (0, 0), BuildingBlock: AJUNOK_clean_linker_0, # of connection points: 2
#     Edge 110, Type (0, 0), BuildingBlock: AJUNOK_clean_linker_0, # of connection points: 2
#     Edge 111, Type (0, 0), BuildingBlock: AJUNOK_clean_linker_0, # of connection points: 2
# Relax obj value: 0.148
# Max RMSD: 0.168
# Mean RMSD: 0.168
data_MOF--net-vce--node1-XOMCOT_clean_sbu_1--edge1-AJUNOK_clean_linker_0
_symmetry_space_group_name_H-M    P1
_symmetry_Int_Tables_number       1
_symmetry_cell_setting            triclinic
loop_
_symmetry_equiv_pos_as_xyz
'x, y, z'
_cell_length_a     37.693176
_cell_length_b     97.739559
_cell_length_c     19.625709
_cell_angle_alpha  90.360511
_cell_angle_beta   89.969254
_cell_angle_gamma 89.981
loop_
_atom_site_label
_atom_site_type_symbol
_atom_site_fract_x
_atom_site_fract_y
_atom_site_fract_z
_atom_type_partial_charge
C0 C 0.00644 0.25734 0.38262 0.0
C1 C -0.00549 0.27021 0.36538 0.0
N2 N 0.01412 0.27482 0.31289 0.0
N3 N 0.03342 0.25371 0.34097 0.0
C4 C 0.03824 0.26481 0.30077 0.0
H5 H -0.00553 0.25066 0.41987 0.0
Co6 Co 0.05437 0.23594 0.3345 0.0
C7 C 0.06896 0.24247 0.18437 0.0
O8 O 0.03543 0.24305 0.16771 0.0
N9 N 0.07711 0.21841 0.32697 0.0
C10 C 0.09482 0.19894 0.27821 0.0
C11 C 0.08117 0.2117 0.26706 0.0
C12 C 0.08885 0.20932 0.3742 0.0
N13 N 0.09948 0.19727 0.34563 0.0
O14 O 0.09325 0.24257 0.38792 0.0
H15 H 0.07251 0.21541 0.21814 0.0
H16 H 0.08842 0.21135 0.42838 0.0
O17 O 0.07799 0.2405 0.24663 0.0
C18 C 0.08108 0.24079 0.44832 0.0
O19 O 0.04995 0.23485 0.45446 0.0
N20 N 0.01159 0.22873 0.29426 0.0
C21 C 0.94033 0.2226 0.31467 0.0
C22 C 0.94988 0.23416 0.27765 0.0
C23 C 0.98572 0.23703 0.26762 0.0
C24 C 0.00162 0.2164 0.32149 0.0
C25 C 0.96624 0.21307 0.33103 0.0
H26 H -0.00838 0.24704 0.24832 0.0
H27 H 0.02004 0.2097 0.34615 0.0
H28 H 0.05826 0.26537 0.26156 0.0
H29 H 0.97165 0.27538 0.38684 0.0
H30 H 0.09886 0.19114 0.23957 0.0
H31 H 0.93022 0.24174 0.26375 0.0
H32 H 0.9595 0.20383 0.35844 0.0
C33 C 0.22761 0.08397 0.43644 0.0
C34 C 0.24082 0.07229 0.40603 0.0
N35 N 0.21753 0.06793 0.35857 0.0
N36 N 0.19583 0.08708 0.40895 0.0
C37 C 0.19028 0.07701 0.36203 0.0
H38 H 0.24122 0.09022 0.47383 0.0
Co39 Co 0.17027 0.10362 0.42532 0.0
C40 C 0.13832 0.10841 0.2911 0.0
O41 O 0.1513 0.12087 0.29242 0.0
N42 N 0.14366 0.12045 0.441 0.0
C43 C 0.09877 0.1345 0.46795 0.0
C44 C 0.11065 0.12119 0.468 0.0
C45 C 0.15076 0.13372 0.42455 0.0
N46 N 0.12412 0.14246 0.44081 0.0
O47 O 0.13726 0.09387 0.48075 0.0
H48 H 0.09503 0.11255 0.48429 0.0
H49 H 0.17442 0.13698 0.39826 0.0
O50 O 0.14317 0.10048 0.34179 0.0
C51 C 0.15153 0.09389 0.53999 0.0
O52 O 0.18391 0.09874 0.54565 0.0
N53 N 0.20611 0.11293 0.38194 0.0
C54 C 0.27669 0.11937 0.36338 0.0
C55 C 0.25777 0.11272 0.31123 0.0
C56 C 0.22211 0.10945 0.32182 0.0
C57 C 0.22386 0.1201 0.43077 0.0
C58 C 0.25878 0.12384 0.42161 0.0
H59 H 0.20897 0.10275 0.28581 0.0
H60 H 0.21179 0.1218 0.48011 0.0
H61 H 0.167 0.0765 0.32999 0.0
H62 H 0.26648 0.06773 0.41588 0.0
H63 H 0.07253 0.13785 0.48296 0.0
H64 H 0.27124 0.10892 0.26617 0.0
H65 H 0.27276 0.12863 0.46371 0.0
C66 C 0.98632 0.08859 0.87454 0.0
C67 C 0.97387 0.07557 0.88638 0.0
N68 N -5e-05 0.06822 0.91537 0.0
N69 N 0.02002 0.0897 0.89716 0.0
C70 C 0.028 0.07689 0.91898 0.0
H71 H 0.97104 0.09693 0.85363 0.0
Co72 Co 0.04662 0.10643 0.90122 0.0
C73 C 0.06216 0.09413 0.04344 0.0
O74 O 0.03302 0.08689 0.04837 0.0
N75 N 0.07263 0.12314 0.90613 0.0
C76 C 0.09336 0.14218 0.9547 0.0
C77 C 0.08061 0.12931 0.96602 0.0
C78 C 0.08047 0.13277 0.85864 0.0
N79 N 0.0926 0.14456 0.88737 0.0
O80 O 0.08382 0.09791 0.84992 0.0
H81 H 0.07459 0.1253 0.01576 0.0
H82 H 0.07471 0.13157 0.8049 0.0
O83 O 0.06801 0.10125 0.98992 0.0
C84 C 0.07167 0.09809 0.78896 0.0
O85 O 0.04057 0.1038 0.77873 0.0
N86 N 0.00811 0.11549 0.93988 0.0
C87 C 0.93697 0.1218 0.94026 0.0
C88 C 0.95228 0.11542 0.99695 0.0
C89 C 0.98856 0.11252 0.99629 0.0
C90 C -0.00551 0.12364 0.89012 0.0
C91 C 0.95887 0.12713 0.88986 0.0
H92 H -0.00059 0.10677 0.0375 0.0
H93 H 0.00995 0.12578 0.84511 0.0
H94 H 0.05335 0.07414 0.94082 0.0
H95 H 0.94689 0.0721 0.87866 0.0
H96 H 0.1009 0.14952 0.99361 0.0
H97 H 0.9358 0.11131 0.03716 0.0
H98 H 0.94779 0.13199 0.84517 0.0
C99 C 0.237 0.25546 0.79755 0.0
C100 C 0.25062 0.26674 0.83049 0.0
N101 N 0.22935 0.26991 0.88346 0.0
N102 N 0.20676 0.25147 0.82847 0.0
C103 C 0.20254 0.26065 0.88032 0.0
H104 H 0.24955 0.25005 0.7558 0.0
Co105 Co 0.18283 0.23471 0.80705 0.0
C106 C 0.15922 0.23003 0.95207 0.0
O107 O 0.18052 0.21949 0.95849 0.0
N108 N 0.15863 0.21804 0.78387 0.0
C109 C 0.13838 0.20098 0.71804 0.0
C110 C 0.15336 0.21383 0.71883 0.0
C111 C 0.14596 0.20751 0.82155 0.0
N112 N 0.13362 0.19703 0.78281 0.0
O113 O 0.147 0.24458 0.75807 0.0
H114 H 0.16146 0.21944 0.67422 0.0
H115 H 0.14684 0.20712 0.87618 0.0
O116 O 0.15659 0.23616 0.89462 0.0
C117 C 0.15995 0.24708 0.699 0.0
O118 O 0.19354 0.24421 0.68855 0.0
N119 N 0.22102 0.22493 0.84419 0.0
C120 C 0.2927 0.21908 0.84928 0.0
C121 C 0.27686 0.22675 0.90152 0.0
C122 C 0.24076 0.22964 0.8979 0.0
C123 C 0.23568 0.21607 0.79792 0.0
C124 C 0.2715 0.21284 0.80015 0.0
H125 H 0.2299 0.23701 0.93347 0.0
H126 H 0.22127 0.21295 0.75313 0.0
H127 H 0.18155 0.26006 0.9178 0.0
H128 H 0.27488 0.27201 0.81717 0.0
H129 H 0.13197 0.19493 0.67332 0.0
H130 H 0.2929 0.23175 0.94015 0.0
H131 H 0.28321 0.20703 0.75867 0.0
C132 C 0.97106 0.83458 0.57752 0.0
C133 C 0.98352 0.82195 0.59775 0.0
N134 N 0.96459 0.81784 0.65216 0.0
N135 N 0.94424 0.83849 0.61886 0.0
C136 C 0.94023 0.82784 0.66229 0.0
H137 H 0.98298 0.84103 0.53923 0.0
Co138 Co 0.92584 0.85658 0.62774 0.0
C139 C 0.91106 0.85227 0.78009 0.0
O140 O 0.9416 0.85743 0.79911 0.0
N141 N 0.90662 0.87468 0.63975 0.0
C142 C 0.89681 0.89461 0.6922 0.0
C143 C 0.911 0.88185 0.69826 0.0
C144 C 0.88934 0.88361 0.5983 0.0
N145 N 0.88307 0.89587 0.62942 0.0
O146 O 0.88487 0.85121 0.57503 0.0
H147 H 0.92554 0.87842 0.74201 0.0
H148 H 0.8818 0.8812 0.54645 0.0
O149 O 0.90305 0.85162 0.71643 0.0
C150 C 0.89603 0.85284 0.51368 0.0
O151 O 0.92814 0.85782 0.50552 0.0
N152 N 0.96968 0.86231 0.66458 0.0
C153 C 0.04213 0.86775 0.65955 0.0
C154 C 0.02917 0.85703 0.69958 0.0
C155 C -0.00725 0.85441 0.70112 0.0
C156 C 0.98236 0.87306 0.62748 0.0
C157 C 0.01822 0.87613 0.62551 0.0
H158 H 0.98383 0.84525 0.72629 0.0
H159 H 0.96538 0.87849 0.59262 0.0
H160 H 0.92127 0.82773 0.70352 0.0
H161 H 0.00663 0.81675 0.5775 0.0
H162 H 0.89795 0.90262 0.73052 0.0
H163 H 0.04721 0.85018 0.72548 0.0
H164 H 0.0274 0.88415 0.59195 0.0
C165 C 0.76176 1.01503 0.55764 0.0
C166 C 0.75048 1.02646 0.59261 0.0
N167 N 0.75878 1.02496 0.6586 0.0
N168 N 0.77777 1.00623 0.60078 0.0
C169 C 0.77568 1.01274 0.66227 0.0
H170 H 0.75636 1.01309 0.50458 0.0
Co171 Co 0.79192 0.9879 0.57778 0.0
C172 C 0.82074 0.97979 0.71492 0.0
O173 O 0.79977 0.96905 0.71612 0.0
N174 N 0.80577 0.96947 0.5519 0.0
C175 C 0.80885 0.95059 0.48668 0.0
C176 C 0.79621 0.96372 0.49161 0.0
C177 C 0.8258 0.95952 0.58122 0.0
N178 N 0.82742 0.9479 0.54326 0.0
O179 O 0.83047 0.99456 0.52223 0.0
H180 H 0.78027 0.96858 0.45308 0.0
H181 H 0.83987 0.96067 0.62864 0.0
O182 O 0.82166 0.98744 0.66197 0.0
C183 C 0.81823 0.99583 0.46156 0.0
O184 O 0.78416 0.99382 0.45225 0.0
N185 N 0.75123 0.98144 0.6219 0.0
C186 C 0.68263 0.97384 0.65651 0.0
C187 C 0.70501 0.97964 0.7057 0.0
C188 C 0.73924 0.98361 0.68697 0.0
C189 C 0.72906 0.97615 0.57387 0.0
C190 C 0.69517 0.97194 0.59028 0.0
H191 H 0.75527 0.98879 0.72446 0.0
H192 H 0.73665 0.9761 0.52109 0.0
H193 H 0.78519 1.00845 0.7095 0.0
H194 H 0.73517 1.03484 0.57189 0.0
H195 H 0.80357 0.94341 0.44572 0.0
H196 H 0.69557 0.98169 0.7569 0.0
H197 H 0.67793 0.96825 0.54997 0.0
C198 C 0.9801 1.00158 0.13976 0.0
C199 C -0.00639 1.01389 0.11813 0.0
N200 N 0.97316 1.01867 0.06707 0.0
N201 N 0.95124 0.99838 0.10242 0.0
C202 C 0.94709 1.00918 0.05995 0.0
H203 H -0.0079 0.99489 0.17693 0.0
Co204 Co 0.92838 0.98101 0.10184 0.0
C205 C 0.91348 0.98389 0.94893 0.0
O206 O 0.9438 0.97835 0.93152 0.0
N207 N 0.90443 0.96374 0.10022 0.0
C208 C 0.88537 0.94371 0.05971 0.0
C209 C 0.89991 0.95607 0.04327 0.0
C210 C 0.8922 0.95561 0.15123 0.0
N211 N 0.88062 0.94337 0.12738 0.0
O212 O 0.88998 0.98877 0.15366 0.0
H213 H 0.90868 0.95879 0.99297 0.0
H214 H 0.89356 0.95826 0.20476 0.0
O215 O 0.90517 0.98526 1.01222 0.0
C216 C 0.90143 0.98774 0.21504 0.0
O217 O 0.93272 0.98208 0.22411 0.0
N218 N 0.97003 0.97288 0.06435 0.0
C219 C 0.04162 0.9663 0.07699 0.0
C220 C 0.03088 0.97678 0.0333 0.0
C221 C -0.00508 0.97997 0.02788 0.0
C222 C 0.98044 0.96176 0.1015 0.0
C223 C 0.01591 0.95819 0.10767 0.0
H224 H 0.98803 0.98925 1.00145 0.0
H225 H 0.96245 0.95664 0.13536 0.0
H226 H 0.92582 1.00983 0.02336 0.0
H227 H 0.01788 1.01855 0.13633 0.0
H228 H 0.88016 0.93529 0.02496 0.0
H229 H 0.05027 0.98334 1.00909 0.0
H230 H 0.02322 0.95025 0.14331 0.0
C231 C 0.74072 0.83046 0.19016 0.0
C232 C 0.72902 0.81766 0.17018 0.0
N233 N 0.74987 0.8131 0.11909 0.0
N234 N 0.76862 0.83415 0.15124 0.0
C235 C 0.77407 0.82316 0.10965 0.0
H236 H 0.72774 0.83711 0.22667 0.0
Co237 Co 0.78766 0.85223 0.14436 0.0
C238 C 0.80557 0.84681 0.99436 0.0
O239 O 0.77376 0.8503 0.97424 0.0
N240 N 0.80807 0.87009 0.135 0.0
C241 C 0.82319 0.88942 0.08272 0.0
C242 C 0.80931 0.87662 0.07441 0.0
C243 C 0.8216 0.8794 0.17998 0.0
N244 N 0.83085 0.89122 0.14881 0.0
O245 O 0.8269 0.84696 0.20171 0.0
H246 H 0.79885 0.87273 0.02709 0.0
H247 H 0.82358 0.87774 0.2343 0.0
O248 O 0.81336 0.84712 0.05819 0.0
C249 C 0.81426 0.84865 0.26205 0.0
O250 O 0.78154 0.85318 0.26758 0.0
N251 N 0.74478 0.85825 0.10163 0.0
C252 C 0.67282 0.86522 0.09429 0.0
C253 C 0.68536 0.85307 0.06444 0.0
C254 C 0.72139 0.84983 0.06819 0.0
C255 C 0.73256 0.8703 0.12892 0.0
C256 C 0.69731 0.87419 0.12339 0.0
H257 H 0.72949 0.83995 0.04917 0.0
H258 H 0.74885 0.87653 0.16176 0.0
H259 H 0.79323 0.82301 0.06872 0.0
H260 H 0.70578 0.81244 0.18935 0.0
H261 H 0.82638 0.89707 0.0435 0.0
H262 H 0.6673 0.84555 0.04335 0.0
H263 H 0.68881 0.88366 0.14735 0.0
C264 C -0.00085 0.75578 0.90083 0.0
C265 C 0.98555 0.7683 0.88201 0.0
N266 N 0.00303 0.77264 0.82622 0.0
N267 N 0.02508 0.75209 0.857 0.0
C268 C 0.02716 0.76271 0.81284 0.0
H269 H 0.98887 0.7493 0.94071 0.0
Co270 Co 0.04603 0.73439 0.85047 0.0
C271 C 0.05929 0.73794 0.69719 0.0
O272 O 0.02878 0.73237 0.68129 0.0
N273 N 0.068 0.71668 0.84096 0.0
C274 C 0.08249 0.6971 0.78903 0.0
C275 C 0.0654 0.70932 0.78261 0.0
C276 C 0.08675 0.70832 0.88313 0.0
N277 N 0.09627 0.6964 0.85192 0.0
O278 O 0.08628 0.74108 0.90219 0.0
H279 H 0.0502 0.71216 0.73867 0.0
H280 H 0.09284 0.7108 0.93565 0.0
O281 O 0.06814 0.73924 0.76026 0.0
C282 C 0.07515 0.73966 0.96373 0.0
O283 O 0.04464 0.7334 0.97246 0.0
N284 N 0.0026 0.72744 0.81539 0.0
C285 C 0.93051 0.72116 0.82799 0.0
C286 C 0.94171 0.73177 0.78526 0.0
C287 C 0.97788 0.73484 0.78006 0.0
C288 C -0.00825 0.71664 0.8542 0.0
C289 C 0.95614 0.71323 0.86038 0.0
H290 H 0.98528 0.744 0.75321 0.0
H291 H 0.00998 0.71154 0.88791 0.0
H292 H 0.04456 0.76287 0.76911 0.0
H293 H 0.96275 0.77329 0.90472 0.0
H294 H 0.08311 0.68898 0.75124 0.0
H295 H 0.92255 0.73827 0.7601 0.0
H296 H 0.94866 0.70532 0.89603 0.0
C297 C 0.24247 0.58408 0.9335 0.0
C298 C 0.25684 0.57212 0.90863 0.0
N299 N 0.23804 0.56814 0.8537 0.0
N300 N 0.21445 0.58774 0.89485 0.0
C301 C 0.21256 0.57781 0.84609 0.0
H302 H 0.25252 0.58996 0.97617 0.0
Co303 Co 0.18761 0.60402 0.90953 0.0
C304 C 0.16691 0.61142 0.76954 0.0
O305 O 0.18493 0.62271 0.78029 0.0
N306 N 0.15909 0.62054 0.92446 0.0
C307 C 0.1126 0.63378 0.95201 0.0
C308 C 0.12578 0.62067 0.9505 0.0
C309 C 0.16495 0.634 0.91 0.0
N310 N 0.13717 0.64223 0.92622 0.0
O311 O 0.1517 0.59327 0.95425 0.0
H312 H 0.11088 0.61181 0.96609 0.0
H313 H 0.18912 0.63778 0.88753 0.0
O314 O 0.16589 0.60231 0.81641 0.0
C315 C 0.16383 0.59344 0.01555 0.0
O316 O 0.19417 0.5997 0.02629 0.0
N317 N 0.22694 0.61419 0.88118 0.0
C318 C 0.29895 0.61862 0.90083 0.0
C319 C 0.28689 0.61195 0.84149 0.0
C320 C 0.25031 0.61001 0.83192 0.0
C321 C 0.23852 0.62181 0.93522 0.0
C322 C 0.27409 0.62479 0.94379 0.0
H323 H 0.24143 0.60343 0.79083 0.0
H324 H 0.22087 0.62422 0.97697 0.0
H325 H 0.19301 0.57765 0.80578 0.0
H326 H 0.27995 0.56691 0.92845 0.0
H327 H 0.08624 0.63675 0.96824 0.0
H328 H 0.3054 0.60713 0.80664 0.0
H329 H 0.28227 0.63047 0.9887 0.0
C330 C 0.00598 0.58475 0.36061 0.0
C331 C -0.00842 0.57336 0.39091 0.0
N332 N 0.013 0.56946 0.44217 0.0
N333 N 0.03662 0.58809 0.39207 0.0
C334 C 0.04033 0.57848 0.44124 0.0
H335 H -0.00593 0.59058 0.31992 0.0
Co336 Co 0.06391 0.604 0.3741 0.0
C337 C 0.09183 0.61217 0.50758 0.0
O338 O 0.07889 0.62423 0.49188 0.0
N339 N 0.09308 0.62003 0.35612 0.0
C340 C 0.14384 0.63161 0.34209 0.0
C341 C 0.12886 0.61899 0.35273 0.0
C342 C 0.08739 0.63373 0.34838 0.0
N343 N 0.11771 0.64093 0.33889 0.0
O344 O 0.09785 0.59298 0.325 0.0
H345 H 0.14365 0.60963 0.36003 0.0
H346 H 0.06186 0.63864 0.35151 0.0
O347 O 0.08817 0.60227 0.46476 0.0
C348 C 0.08437 0.59258 0.26489 0.0
O349 O 0.0533 0.59839 0.25601 0.0
N350 N 0.02659 0.61446 0.40897 0.0
C351 C 0.95516 0.62188 0.41673 0.0
C352 C 0.97161 0.61476 0.47051 0.0
C353 C 0.00771 0.61137 0.46625 0.0
C354 C 0.0111 0.62166 0.35782 0.0
C355 C 0.97661 0.62643 0.36328 0.0
H356 H 0.01906 0.6048 0.50463 0.0
H357 H 0.02457 0.62279 0.30956 0.0
H358 H 0.06244 0.57821 0.47621 0.0
H359 H 0.96648 0.56864 0.37792 0.0
H360 H 0.17196 0.6338 0.33999 0.0
H361 H 0.95638 0.61088 0.51297 0.0
H362 H 0.96629 0.63268 0.32262 0.0
C363 C 0.23946 0.75633 0.3115 0.0
C364 C 0.25345 0.76818 0.33833 0.0
N365 N 0.23024 0.77344 0.38362 0.0
N366 N 0.20733 0.75384 0.33937 0.0
C367 C 0.20187 0.76489 0.38069 0.0
H368 H 0.25257 0.74984 0.27457 0.0
Co369 Co 0.17986 0.73736 0.32619 0.0
C370 C 0.16256 0.74357 0.47582 0.0
O371 O 0.19554 0.74666 0.49131 0.0
N372 N 0.15207 0.72122 0.3147 0.0
C373 C 0.10332 0.70828 0.31496 0.0
C374 C 0.11623 0.72142 0.31507 0.0
C375 C 0.16021 0.70765 0.31429 0.0
N376 N 0.13094 0.69957 0.31464 0.0
O377 O 0.14515 0.74737 0.27272 0.0
H378 H 0.10022 0.73057 0.31861 0.0
H379 H 0.18693 0.7037 0.31772 0.0
O380 O 0.15452 0.74026 0.41426 0.0
C381 C 0.15747 0.74814 0.21173 0.0
O382 O 0.1911 0.74522 0.20244 0.0
N383 N 0.21636 0.72698 0.36385 0.0
C384 C 0.28191 0.71426 0.37783 0.0
C385 C 0.26929 0.71796 0.3137 0.0
C386 C 0.23645 0.72409 0.308 0.0
C387 C 0.22587 0.72201 0.42612 0.0
C388 C 0.2594 0.71592 0.43462 0.0
H389 H 0.22744 0.72718 0.25828 0.0
H390 H 0.20832 0.72278 0.46926 0.0
H391 H 0.17808 0.76643 0.41047 0.0
H392 H 0.279 0.7725 0.32548 0.0
H393 H 0.07563 0.70537 0.31682 0.0
H394 H 0.28558 0.71704 0.26842 0.0
H395 H 0.268 0.71288 0.48493 0.0
C396 C 0.98853 0.33989 0.08067 0.0
C397 C 0.00283 0.32772 0.10223 0.0
N398 N 0.98301 0.32296 0.15407 0.0
N399 N 0.95974 0.34294 0.11864 0.0
C400 C 0.95711 0.33243 0.16327 0.0
H401 H -0.00077 0.34637 0.04121 0.0
Co402 Co 0.9337 0.35939 0.10984 0.0
C403 C 0.90558 0.36539 0.24618 0.0
O404 O 0.92045 0.3774 0.2373 0.0
N405 N 0.90596 0.37597 0.10044 0.0
C406 C 0.85573 0.38811 0.0946 0.0
C407 C 0.87011 0.37525 0.09855 0.0
C408 C 0.91244 0.3897 0.09855 0.0
N409 N 0.88228 0.39726 0.09417 0.0
O410 O 0.89859 0.34969 0.05619 0.0
H411 H 0.85489 0.36592 0.10263 0.0
H412 H 0.93849 0.39424 0.10223 0.0
O413 O 0.90904 0.35618 0.19952 0.0
C414 C 0.91014 0.3507 0.99485 0.0
O415 O 0.94052 0.35702 0.98569 0.0
N416 N 0.97217 0.36865 0.14921 0.0
C417 C 0.04564 0.37162 0.15419 0.0
C418 C 0.02737 0.36532 0.20797 0.0
C419 C -0.00968 0.36402 0.20484 0.0
C420 C -0.01046 0.37563 0.0993 0.0
C421 C 0.0261 0.37752 0.10163 0.0
H422 H 0.97717 0.35766 0.24196 0.0
H423 H 0.97588 0.37811 0.0526 0.0
H424 H 0.9369 0.33177 0.20228 0.0
H425 H 0.02681 0.32301 0.08281 0.0
H426 H 0.82771 0.39054 0.09531 0.0
H427 H 0.04181 0.36047 0.24897 0.0
H428 H 0.03937 0.38215 0.05854 0.0
C429 C 0.74122 0.50886 0.15307 0.0
C430 C 0.72885 0.52074 0.18253 0.0
N431 N 0.75592 0.52706 0.21469 0.0
N432 N 0.77609 0.50738 0.16684 0.0
C433 C 0.78452 0.51898 0.20188 0.0
H434 H 0.72518 0.5016 0.12517 0.0
Co435 Co 0.80564 0.4918 0.14717 0.0
C436 C 0.81814 0.497 0.29844 0.0
O437 O 0.78541 0.50114 0.30869 0.0
N438 N 0.83618 0.47653 0.12946 0.0
C439 C 0.8873 0.46499 0.12586 0.0
C440 C 0.87183 0.4776 0.13468 0.0
C441 C 0.83079 0.46294 0.11758 0.0
N442 N 0.86156 0.4557 0.1151 0.0
O443 O 0.83971 0.50357 0.10339 0.0
H444 H 0.88589 0.48693 0.14685 0.0
H445 H 0.8049 0.45826 0.1142 0.0
O446 O 0.82814 0.49315 0.23875 0.0
C447 C 0.82691 0.50587 0.0439 0.0
O448 O 0.79345 0.50279 0.03323 0.0
N449 N 0.76972 0.48 0.17518 0.0
C450 C 0.70323 0.46778 0.17775 0.0
C451 C 0.71977 0.47063 0.11584 0.0
C452 C 0.75288 0.47675 0.11585 0.0
C453 C 0.75636 0.47573 0.23607 0.0
C454 C 0.72251 0.46973 0.23852 0.0
H455 H 0.76434 0.47984 0.06788 0.0
H456 H 0.77066 0.47733 0.28286 0.0
H457 H 0.81066 0.52081 0.22264 0.0
H458 H 0.70159 0.52422 0.18196 0.0
H459 H 0.91541 0.46278 0.12835 0.0
H460 H 0.70603 0.46925 0.0678 0.0
H461 H 0.71088 0.46724 0.28735 0.0
C462 C 0.98639 0.50908 0.70513 0.0
C463 C 0.00196 0.52066 0.67877 0.0
N464 N 0.98141 0.52539 0.6279 0.0
N465 N 0.95608 0.50638 0.67111 0.0
C466 C 0.95377 0.51654 0.62442 0.0
H467 H -0.00259 0.50264 0.74445 0.0
Co468 Co 0.92759 0.49052 0.68206 0.0
C469 C 0.8999 0.4858 0.54386 0.0
O470 O 0.91224 0.47327 0.54842 0.0
N471 N 0.89738 0.4746 0.69194 0.0
C472 C 0.84666 0.46281 0.7015 0.0
C473 C 0.8618 0.47561 0.7005 0.0
C474 C 0.90276 0.46083 0.68678 0.0
N475 N 0.87251 0.45349 0.69334 0.0
O476 O 0.89435 0.50119 0.73494 0.0
H477 H 0.8472 0.4851 0.70373 0.0
H478 H 0.92782 0.4561 0.67448 0.0
O479 O 0.90395 0.49411 0.59412 0.0
C480 C 0.90736 0.50048 0.79526 0.0
O481 O 0.93689 0.49353 0.80309 0.0
N482 N 0.9641 0.48027 0.64337 0.0
C483 C 0.036 0.47391 0.64025 0.0
C484 C 0.02032 0.48113 0.5862 0.0
C485 C 0.98391 0.4841 0.58832 0.0
C486 C 0.97885 0.47264 0.69383 0.0
C487 C 0.0141 0.46876 0.69147 0.0
H488 H 0.97303 0.49103 0.55108 0.0
H489 H 0.9642 0.47075 0.74017 0.0
H490 H 0.93271 0.51728 0.58722 0.0
H491 H 0.02742 0.52482 0.69368 0.0
H492 H 0.81872 0.46053 0.70721 0.0
H493 H 0.03639 0.48563 0.54648 0.0
H494 H 0.02496 0.46307 0.73384 0.0
C495 C 0.74434 0.33913 0.65917 0.0
C496 C 0.72967 0.32734 0.63305 0.0
N497 N 0.75085 0.32253 0.58298 0.0
N498 N 0.77488 0.3419 0.6262 0.0
C499 C 0.77827 0.33154 0.5802 0.0
H500 H 0.73285 0.34552 0.6986 0.0
Co501 Co 0.80232 0.35793 0.64083 0.0
C502 C 0.82745 0.36558 0.5044 0.0
O503 O 0.81504 0.37771 0.52096 0.0
N504 N 0.83108 0.37401 0.65538 0.0
C505 C 0.88153 0.38599 0.66014 0.0
C506 C 0.86683 0.37328 0.6505 0.0
C507 C 0.82493 0.38755 0.66769 0.0
N508 N 0.85521 0.395 0.67142 0.0
O509 O 0.83812 0.34732 0.68737 0.0
H510 H 0.88152 0.36409 0.63813 0.0
H511 H 0.79897 0.39209 0.67251 0.0
O512 O 0.82448 0.35584 0.54779 0.0
C513 C 0.82644 0.34688 0.74886 0.0
O514 O 0.79466 0.35185 0.76077 0.0
N515 N 0.7639 0.36817 0.60952 0.0
C516 C 0.69227 0.3749 0.60878 0.0
C517 C 0.70824 0.36927 0.55032 0.0
C518 C 0.74442 0.36582 0.55186 0.0
C519 C 0.74869 0.37419 0.66512 0.0
C520 C 0.71322 0.37791 0.66534 0.0
H521 H 0.75546 0.3599 0.51026 0.0
H522 H 0.76312 0.3747 0.71263 0.0
H523 H 0.80044 0.33063 0.5455 0.0
H524 H 0.70472 0.32285 0.6486 0.0
H525 H 0.90943 0.38846 0.65613 0.0
H526 H 0.69228 0.36637 0.50668 0.0
H527 H 0.70143 0.38182 0.71194 0.0
C528 C 0.54009 0.26063 0.96414 0.0
C529 C 0.52876 0.27262 0.93448 0.0
N530 N 0.52638 0.27063 0.86663 0.0
N531 N 0.54516 0.25104 0.91535 0.0
C532 C 0.53707 0.25755 0.8563 0.0
H533 H 0.54245 0.25886 0.01823 0.0
Co534 Co 0.55118 0.23188 0.92767 0.0
C535 C 0.59405 0.22395 0.80226 0.0
O536 O 0.58525 0.21096 0.80399 0.0
N537 N 0.55624 0.21251 0.94018 0.0
C538 C 0.53972 0.19092 0.95808 0.0
C539 C 0.52825 0.2041 0.94953 0.0
C540 C 0.58482 0.20404 0.94557 0.0
N541 N 0.5754 0.19077 0.95629 0.0
O542 O 0.58928 0.23507 0.99066 0.0
H543 H 0.50079 0.20722 0.94997 0.0
H544 H 0.61198 0.20753 0.94141 0.0
O545 O 0.58272 0.23215 0.84835 0.0
C546 C 0.57585 0.23432 0.05056 0.0
O547 O 0.54198 0.2313 0.05576 0.0
N548 N 0.51102 0.22912 0.87565 0.0
C549 C 0.44182 0.22576 0.83338 0.0
C550 C 0.46967 0.22176 0.79041 0.0
C551 C 0.50467 0.22367 0.81253 0.0
C552 C 0.48388 0.23306 0.91704 0.0
C553 C 0.44914 0.23156 0.89682 0.0
H554 H 0.52599 0.22057 0.77954 0.0
H555 H 0.48946 0.23711 0.96727 0.0
H556 H 0.5366 0.25251 0.80704 0.0
H557 H 0.52198 0.28199 0.96113 0.0
H558 H 0.52273 0.18207 0.96317 0.0
H559 H 0.4644 0.2172 0.74103 0.0
H560 H 0.42804 0.23458 0.93135 0.0
C561 C 0.68211 0.07075 0.95982 0.0
C562 C 0.69224 0.05867 0.92864 0.0
N563 N 0.69829 0.06106 0.86199 0.0
N564 N 0.68178 0.08088 0.91345 0.0
C565 C 0.69142 0.0746 0.85432 0.0
H566 H 0.67798 0.07217 1.01388 0.0
Co567 Co 0.67969 0.10014 0.92923 0.0
C568 C 0.64533 0.11051 0.7995 0.0
O569 O 0.65859 0.12287 0.80574 0.0
N570 N 0.67802 0.11952 0.94471 0.0
C571 C 0.69568 0.14106 0.96231 0.0
C572 C 0.70642 0.12766 0.95642 0.0
C573 C 0.65 0.1283 0.94692 0.0
N574 N 0.6602 0.1415 0.95632 0.0
O575 O 0.63867 0.09806 0.98664 0.0
H576 H 0.73354 0.12416 0.96003 0.0
H577 H 0.62278 0.12513 0.93904 0.0
O578 O 0.65145 0.1015 0.84508 0.0
C579 C 0.65194 0.09787 0.04687 0.0
O580 O 0.6865 0.09909 0.05286 0.0
N581 N 0.72291 0.10183 0.88493 0.0
C582 C 0.79463 0.1069 0.87062 0.0
C583 C 0.77068 0.11168 0.82145 0.0
C584 C 0.73442 0.10883 0.82909 0.0
C585 C 0.74645 0.09645 0.92998 0.0
C586 C 0.78229 0.09872 0.92346 0.0
H587 H 0.71614 0.11294 0.79269 0.0
H588 H 0.7371 0.09114 0.97457 0.0
H589 H 0.69535 0.08008 0.80719 0.0
H590 H 0.69735 0.04915 0.95463 0.0
H591 H 0.71267 0.14984 0.97074 0.0
H592 H 0.77969 0.11795 0.77959 0.0
H593 H 0.79993 0.09497 0.96277 0.0
C594 C 0.49837 0.08249 0.36321 0.0
C595 C 0.48585 0.06996 0.38425 0.0
N596 N 0.50308 0.0664 0.4416 0.0
N597 N 0.52335 0.08697 0.4072 0.0
C598 C 0.52612 0.07678 0.45366 0.0
H599 H 0.48777 0.08844 0.32167 0.0
Co600 Co 0.54062 0.10524 0.41103 0.0
C601 C 0.55595 0.10237 0.56335 0.0
O602 O 0.5237 0.10569 0.58172 0.0
N603 N 0.55867 0.12348 0.41765 0.0
C604 C 0.56623 0.14425 0.46268 0.0
C605 C 0.55394 0.13132 0.47403 0.0
C606 C 0.57471 0.13201 0.37262 0.0
N607 N 0.57901 0.14472 0.39899 0.0
O608 O 0.58149 0.09982 0.35919 0.0
H609 H 0.54073 0.12809 0.51993 0.0
H610 H 0.58211 0.12916 0.32122 0.0
O611 O 0.5646 0.10184 0.50009 0.0
C612 C 0.56977 0.10153 0.29833 0.0
O613 O 0.53735 0.10627 0.29132 0.0
N614 N 0.49642 0.11104 0.44641 0.0
C615 C 0.42392 0.11588 0.43503 0.0
C616 C 0.43653 0.10576 0.4791 0.0
C617 C 0.47298 0.10333 0.48319 0.0
C618 C 0.48388 0.1214 0.4064 0.0
C619 C 0.44807 0.12419 0.4014 0.0
H620 H 0.48155 0.09435 0.51022 0.0
H621 H 0.50087 0.12659 0.37079 0.0
H622 H 0.54209 0.0775 0.49921 0.0
H623 H 0.46434 0.06427 0.36108 0.0
H624 H 0.56566 0.15276 0.4983 0.0
H625 H 0.41835 0.0991 0.50582 0.0
H626 H 0.43929 0.13185 0.36539 0.0
C627 C 0.73722 0.25397 0.37215 0.0
C628 C 0.74824 0.26714 0.38533 0.0
N629 N 0.72425 0.27324 0.42636 0.0
N630 N 0.70669 0.25148 0.40583 0.0
C631 C 0.69882 0.26361 0.43635 0.0
H632 H 0.75194 0.24634 0.34368 0.0
Co633 Co 0.68611 0.23362 0.41193 0.0
C634 C 0.66871 0.24354 0.56027 0.0
O635 O 0.69503 0.25212 0.56911 0.0
N636 N 0.66548 0.21595 0.41922 0.0
C637 C 0.65596 0.19557 0.46559 0.0
C638 C 0.66893 0.20844 0.47649 0.0
C639 C 0.64971 0.20732 0.37393 0.0
N640 N 0.6441 0.19482 0.40124 0.0
O641 O 0.6453 0.23983 0.36264 0.0
H642 H 0.68186 0.2119 0.52266 0.0
H643 H 0.64394 0.2099 0.32156 0.0
O644 O 0.66503 0.23723 0.50323 0.0
C645 C 0.65693 0.2387 0.3013 0.0
O646 O 0.68958 0.2343 0.29234 0.0
N647 N 0.729 0.22674 0.44694 0.0
C648 C 0.80061 0.2209 0.43483 0.0
C649 C 0.78903 0.23078 0.482 0.0
C650 C 0.75264 0.23345 0.48802 0.0
C651 C 0.7403 0.21622 0.40615 0.0
C652 C 0.77568 0.21276 0.40173 0.0
H653 H 0.74474 0.24225 0.51709 0.0
H654 H 0.7228 0.21148 0.36953 0.0
H655 H 0.67548 0.26527 0.46736 0.0
H656 H 0.7734 0.27148 0.37002 0.0
H657 H 0.65572 0.18725 0.5018 0.0
H658 H 0.80782 0.23741 0.50772 0.0
H659 H 0.7838 0.20503 0.36502 0.0
C660 C 0.4741 0.83455 0.12157 0.0
C661 C 0.48846 0.82318 0.15219 0.0
N662 N 0.46588 0.8188 0.20062 0.0
N663 N 0.44255 0.83753 0.15066 0.0
C664 C 0.4382 0.82768 0.19847 0.0
H665 H 0.48642 0.84053 0.08184 0.0
Co666 Co 0.4138 0.85307 0.13055 0.0
C667 C 0.39142 0.8614 0.26825 0.0
O668 O 0.40421 0.87346 0.2529 0.0
N669 N 0.38333 0.86879 0.11038 0.0
C670 C 0.33624 0.88066 0.07375 0.0
C671 C 0.35102 0.86791 0.08045 0.0
C672 C 0.38694 0.88253 0.12162 0.0
N673 N 0.3586 0.88993 0.10055 0.0
O674 O 0.37998 0.84109 0.08723 0.0
H675 H 0.33821 0.85862 0.06383 0.0
H676 H 0.40972 0.88717 0.14589 0.0
O677 O 0.39207 0.85185 0.22311 0.0
C678 C 0.39336 0.84021 0.02704 0.0
O679 O 0.42442 0.84595 0.01684 0.0
N680 N 0.45088 0.86435 0.15911 0.0
C681 C 0.52217 0.8709 0.14965 0.0
C682 C 0.50893 0.86456 0.2085 0.0
C683 C 0.47274 0.86149 0.21271 0.0
C684 C 0.46304 0.87171 0.10514 0.0
C685 C 0.49818 0.87573 0.10127 0.0
H686 H 0.4636 0.85505 0.25373 0.0
H687 H 0.44655 0.87314 0.06073 0.0
H688 H 0.41572 0.82729 0.23265 0.0
H689 H 0.51368 0.81849 0.13972 0.0
H690 H 0.31122 0.88285 0.04921 0.0
H691 H 0.5267 0.8607 0.24723 0.0
H692 H 0.50717 0.88112 0.05642 0.0
C693 C 0.23179 1.00545 0.10016 0.0
C694 C 0.21785 1.01722 0.12836 0.0
N695 N 0.24117 1.02229 0.17404 0.0
N696 N 0.2639 1.00292 0.12769 0.0
C697 C 0.26882 1.01338 0.17274 0.0
H698 H 0.21855 0.99879 0.06406 0.0
Co699 Co 0.29137 0.98682 0.11096 0.0
C700 C 0.31938 0.98229 0.24906 0.0
O701 O 0.30532 0.97002 0.24791 0.0
N702 N 0.32014 0.97047 0.09497 0.0
C703 C 0.36362 0.95688 0.05617 0.0
C704 C 0.35077 0.97001 0.05901 0.0
C705 C 0.31586 0.95721 0.11489 0.0
N706 N 0.34158 0.94871 0.09108 0.0
O707 O 0.32401 0.99736 0.05708 0.0
H708 H 0.36372 0.97861 0.03593 0.0
H709 H 0.29463 0.95384 0.14759 0.0
O710 O 0.31709 0.99002 0.19684 0.0
C711 C 0.30933 0.99735 0.99799 0.0
O712 O 0.27727 0.99218 0.99312 0.0
N713 N 0.25556 0.97661 0.15076 0.0
C714 C 0.18688 0.9669 0.1642 0.0
C715 C 0.20212 0.97492 0.21618 0.0
C716 C 0.23679 0.97978 0.2083 0.0
C717 C 0.24123 0.96847 0.10141 0.0
C718 C 0.20753 0.96312 0.10814 0.0
H719 H 0.24695 0.9872 0.24442 0.0
H720 H 0.25488 0.96708 0.05339 0.0
H721 H 0.29191 1.01432 0.20517 0.0
H722 H 0.1917 1.02131 0.11835 0.0
H723 H 0.38725 0.9536 0.02929 0.0
H724 H 0.18633 0.9784 0.25903 0.0
H725 H 0.19628 0.95753 0.06548 0.0
C726 C 0.46483 1.00489 0.69299 0.0
C727 C 0.47945 1.01734 0.67589 0.0
N728 N 0.4636 1.02185 0.6187 0.0
N729 N 0.43962 1.00148 0.64713 0.0
C730 C 0.43881 1.01226 0.60373 0.0
H731 H 0.47386 0.99832 0.73355 0.0
Co732 Co 0.41851 0.9838 0.6382 0.0
C733 C 0.40633 0.98863 0.48577 0.0
O734 O 0.43719 0.98365 0.46763 0.0
N735 N 0.39658 0.96609 0.62756 0.0
C736 C 0.38018 0.94682 0.575 0.0
C737 C 0.39482 0.95948 0.56696 0.0
C738 C 0.38308 0.95685 0.67245 0.0
N739 N 0.37287 0.945 0.64127 0.0
O740 O 0.37803 0.99043 0.68755 0.0
H741 H 0.40547 0.96312 0.51966 0.0
H742 H 0.3817 0.95861 0.72686 0.0
O743 O 0.3972 0.98898 0.54885 0.0
C744 C 0.38815 0.98927 0.74961 0.0
O745 O 0.41855 0.98312 0.76126 0.0
N746 N 0.46164 0.97695 0.60262 0.0
C747 C 0.53368 0.97203 0.61828 0.0
C748 C 0.52199 0.98238 0.57496 0.0
C749 C 0.48584 0.98482 0.56856 0.0
C750 C 0.47312 0.96595 0.63945 0.0
C751 C 0.50906 0.9632 0.64722 0.0
H752 H 0.4781 0.99405 0.5429 0.0
H753 H 0.45514 0.96027 0.67118 0.0
H754 H 0.4227 1.01255 0.55826 0.0
H755 H 0.50099 1.02238 0.7024 0.0
H756 H 0.37706 0.93916 0.53534 0.0
H757 H 0.54066 0.98934 0.55147 0.0
H758 H 0.51742 0.95517 0.68152 0.0
C759 C 0.23883 0.83192 0.66419 0.0
C760 C 0.22592 0.82089 0.62785 0.0
N761 N 0.25037 0.81708 0.58131 0.0
N762 N 0.27137 0.83523 0.64092 0.0
C763 C 0.27778 0.8259 0.59078 0.0
H764 H 0.22468 0.83754 0.70329 0.0
Co765 Co 0.29702 0.85117 0.66733 0.0
C766 C 0.33111 0.86006 0.54062 0.0
O767 O 0.3193 0.87233 0.55564 0.0
N768 N 0.32372 0.86745 0.69422 0.0
C769 C 0.37041 0.88039 0.72352 0.0
C770 C 0.35811 0.86726 0.71398 0.0
C771 C 0.31612 0.88111 0.69231 0.0
N772 N 0.34396 0.88918 0.70983 0.0
O773 O 0.32972 0.84006 0.71799 0.0
H774 H 0.37432 0.85818 0.71756 0.0
H775 H 0.29143 0.88528 0.67399 0.0
O776 O 0.32471 0.85011 0.58107 0.0
C777 C 0.31484 0.83858 0.77632 0.0
O778 O 0.28235 0.84323 0.78357 0.0
N779 N 0.26136 0.86158 0.6292 0.0
C780 C 0.19196 0.86986 0.60915 0.0
C781 C 0.21138 0.86407 0.5551 0.0
C782 C 0.24648 0.85995 0.56622 0.0
C783 C 0.24275 0.86739 0.68128 0.0
C784 C 0.20853 0.87204 0.6718 0.0
H785 H 0.26006 0.85417 0.52699 0.0
H786 H 0.25372 0.86747 0.73219 0.0
H787 H 0.30144 0.82596 0.55985 0.0
H788 H 0.20019 0.81617 0.63458 0.0
H789 H 0.39758 0.8832 0.73462 0.0
H790 H 0.19869 0.86176 0.50688 0.0
H791 H 0.19388 0.87588 0.71546 0.0
C792 C 0.48391 0.75186 0.42431 0.0
C793 C 0.46913 0.76434 0.4089 0.0
N794 N 0.49148 0.77114 0.3675 0.0
N795 N 0.51564 0.75062 0.39308 0.0
C796 C 0.52022 0.76284 0.36169 0.0
H797 H 0.47149 0.74392 0.45411 0.0
Co798 Co 0.54197 0.73394 0.38918 0.0
C799 C 0.55644 0.74433 0.23956 0.0
O800 O 0.52768 0.75166 0.23036 0.0
N801 N 0.56785 0.71721 0.38301 0.0
C802 C 0.58637 0.69809 0.33202 0.0
C803 C 0.56833 0.71007 0.32383 0.0
C804 C 0.58573 0.70906 0.42727 0.0
N805 N 0.59777 0.69739 0.3968 0.0
O806 O 0.5807 0.74258 0.43788 0.0
H807 H 0.55486 0.71309 0.27766 0.0
H808 H 0.58912 0.71144 0.4808 0.0
O809 O 0.56165 0.73829 0.29673 0.0
C810 C 0.56975 0.74204 0.49991 0.0
O811 O 0.53885 0.73628 0.51124 0.0
N812 N 0.50188 0.72482 0.35628 0.0
C813 C 0.43324 0.71458 0.35798 0.0
C814 C 0.44526 0.72225 0.3023 0.0
C815 C 0.48002 0.72739 0.30251 0.0
C816 C 0.49113 0.71643 0.40764 0.0
C817 C 0.45695 0.71121 0.40956 0.0
H818 H 0.4879 0.73417 0.2626 0.0
H819 H 0.50824 0.71475 0.45094 0.0
H820 H 0.54349 0.76536 0.33215 0.0
H821 H 0.44346 0.76792 0.426 0.0
H822 H 0.5891 0.69012 0.29383 0.0
H823 H 0.42718 0.72517 0.26204 0.0
H824 H 0.44834 0.70543 0.45351 0.0
C825 C 0.75123 0.58698 0.48997 0.0
C826 C 0.76487 0.57556 0.45753 0.0
N827 N 0.74112 0.57119 0.41097 0.0
N828 N 0.71897 0.58989 0.46404 0.0
C829 C 0.7133 0.57988 0.41689 0.0
H830 H 0.7649 0.59324 0.52723 0.0
Co831 Co 0.69311 0.60636 0.47959 0.0
C832 C 0.66175 0.61005 0.34215 0.0
O833 O 0.67604 0.62227 0.33938 0.0
N834 N 0.66566 0.62302 0.49447 0.0
C835 C 0.62065 0.63667 0.52534 0.0
C836 C 0.63432 0.62367 0.5281 0.0
C837 C 0.66993 0.63606 0.47148 0.0
N838 N 0.64292 0.64457 0.48938 0.0
O839 O 0.66064 0.59642 0.53664 0.0
H840 H 0.62092 0.61518 0.55166 0.0
H841 H 0.69224 0.63926 0.44122 0.0
O842 O 0.66539 0.60282 0.39592 0.0
C843 C 0.67473 0.59643 0.59614 0.0
O844 O 0.70648 0.60182 0.60256 0.0
N845 N 0.72908 0.61587 0.43433 0.0
C846 C 0.79988 0.62288 0.41088 0.0
C847 C 0.78149 0.61413 0.36572 0.0
C848 C 0.74577 0.61108 0.37722 0.0
C849 C 0.7462 0.62463 0.47744 0.0
C850 C 0.78069 0.62887 0.46451 0.0
H851 H 0.73318 0.60346 0.34531 0.0
H852 H 0.73395 0.62761 0.52511 0.0
H853 H 0.69027 0.57944 0.38412 0.0
H854 H 0.79065 0.57103 0.46647 0.0
H855 H 0.59528 0.63986 0.5458 0.0
H856 H 0.79489 0.60859 0.32546 0.0
H857 H 0.79307 0.63588 0.50016 0.0
C858 C 0.51227 0.57972 0.91593 0.0
C859 C 0.50151 0.56666 0.93201 0.0
N860 N 0.52443 0.5614 0.9776 0.0
N861 N 0.54152 0.58296 0.95221 0.0
C862 C 0.54895 0.57138 0.98741 0.0
H863 H 0.49804 0.58681 0.88384 0.0
Co864 Co 0.5616 0.60094 0.95706 0.0
C865 C 0.57917 0.59222 0.10625 0.0
O866 O 0.54965 0.58568 0.11944 0.0
N867 N 0.58286 0.61872 0.96268 0.0
C868 C 0.60179 0.6383 1.00896 0.0
C869 C 0.58803 0.6256 0.02188 0.0
C870 C 0.5932 0.62773 0.91403 0.0
N871 N 0.60481 0.63972 0.94125 0.0
O872 O 0.6019 0.59451 0.90589 0.0
H873 H 0.5805 0.62197 0.07171 0.0
H874 H 0.5907 0.62582 0.85987 0.0
O875 O 0.58439 0.59729 0.04691 0.0
C876 C 0.59096 0.5953 0.8441 0.0
O877 O 0.55841 0.59967 0.83396 0.0
N878 N 0.51847 0.60796 0.99552 0.0
C879 C 0.44607 0.61428 0.98915 0.0
C880 C 0.45802 0.60298 0.02636 0.0
C881 C 0.49435 0.60015 0.03006 0.0
C882 C 0.50697 0.61962 0.96402 0.0
C883 C 0.47131 0.62316 0.96222 0.0
H884 H 0.50159 0.59046 0.05109 0.0
H885 H 0.52419 0.62558 0.93227 0.0
H886 H 0.57126 0.57037 0.02153 0.0
H887 H 0.47715 0.56186 0.9152 0.0
H888 H 0.607 0.64626 0.04629 0.0
H889 H 0.4396 0.59553 0.04647 0.0
H890 H 0.46339 0.63213 0.93376 0.0
C891 C 0.72854 0.75347 0.84715 0.0
C892 C 0.74303 0.76481 0.87827 0.0
N893 N 0.72264 0.76831 0.93205 0.0
N894 N 0.69859 0.7498 0.87993 0.0
C895 C 0.69549 0.75918 0.93117 0.0
H896 H 0.74024 0.74785 0.80519 0.0
Co897 Co 0.67355 0.73318 0.86161 0.0
C898 C 0.64539 0.72935 1.00464 0.0
O899 O 0.66541 0.71851 1.0126 0.0
N900 N 0.64793 0.71634 0.8428 0.0
C901 C 0.61589 0.70051 0.7876 0.0
C902 C 0.62779 0.71378 0.7871 0.0
C903 C 0.64769 0.70414 0.87611 0.0
N904 N 0.62812 0.69439 0.84404 0.0
O905 O 0.63932 0.74321 0.80736 0.0
H906 H 0.62256 0.72084 0.74648 0.0
H907 H 0.66276 0.70219 0.92163 0.0
O908 O 0.64591 0.73574 0.94764 0.0
C909 C 0.65303 0.74447 0.74768 0.0
O910 O 0.68566 0.74008 0.73906 0.0
N911 N 0.71081 0.72348 0.90209 0.0
C912 C 0.78275 0.71725 0.90754 0.0
C913 C 0.7668 0.72497 0.95984 0.0
C914 C 0.7305 0.72796 0.95633 0.0
C915 C 0.7256 0.71504 0.85429 0.0
C916 C 0.76126 0.71161 0.85669 0.0
H917 H 0.71948 0.73521 0.99236 0.0
H918 H 0.71109 0.71238 0.80864 0.0
H919 H 0.67494 0.75888 0.96963 0.0
H920 H 0.76712 0.76993 0.86273 0.0
H921 H 0.6007 0.69566 0.74745 0.0
H922 H 0.78276 0.72964 0.99951 0.0
H923 H 0.77262 0.70603 0.8141 0.0
C924 C 0.49781 0.33138 0.61799 0.0
C925 C 0.51154 0.31954 0.6442 0.0
N926 N 0.48569 0.31279 0.67741 0.0
N927 N 0.46322 0.33253 0.63486 0.0
C928 C 0.45624 0.32069 0.66861 0.0
H929 H 0.51278 0.33891 0.59003 0.0
Co930 Co 0.43544 0.3486 0.61515 0.0
C931 C 0.41836 0.34361 0.7669 0.0
O932 O 0.44897 0.33766 0.77846 0.0
N933 N 0.40832 0.36463 0.59522 0.0
C934 C 0.37344 0.3799 0.54463 0.0
C935 C 0.38687 0.36682 0.54144 0.0
C936 C 0.40762 0.3767 0.62997 0.0
N937 N 0.38655 0.38629 0.60031 0.0
O938 O 0.3998 0.33736 0.56963 0.0
H939 H 0.38146 0.35953 0.50137 0.0
H940 H 0.42349 0.37843 0.67489 0.0
O941 O 0.41109 0.34801 0.70675 0.0
C942 C 0.41256 0.33457 0.51022 0.0
O943 O 0.44595 0.3377 0.49922 0.0
N944 N 0.47269 0.35978 0.64467 0.0
C945 C 0.5401 0.37138 0.64573 0.0
C946 C 0.52082 0.37037 0.58514 0.0
C947 C 0.48722 0.3646 0.58591 0.0
C948 C 0.48924 0.36194 0.7056 0.0
C949 C 0.52339 0.36766 0.70709 0.0
H950 H 0.47383 0.36279 0.53798 0.0
H951 H 0.47741 0.35876 0.75264 0.0
H952 H 0.4303 0.31823 0.68864 0.0
H953 H 0.53916 0.31652 0.642 0.0
H954 H 0.3552 0.38429 0.50829 0.0
H955 H 0.53269 0.3728 0.53644 0.0
H956 H 0.53734 0.36847 0.75517 0.0
C957 C 0.26945 0.50413 0.61374 0.0
C958 C 0.25842 0.51719 0.63058 0.0
N959 N 0.27477 0.52107 0.68856 0.0
N960 N 0.29286 0.49968 0.66067 0.0
C961 C 0.29636 0.51044 0.70438 0.0
H962 H 0.25865 0.49786 0.57321 0.0
Co963 Co 0.3073 0.48108 0.67174 0.0
C964 C 0.32204 0.48611 0.824 0.0
O965 O 0.28897 0.48436 0.8424 0.0
N966 N 0.32265 0.46249 0.68613 0.0
C967 C 0.32794 0.44296 0.74334 0.0
C968 C 0.31527 0.45604 0.74519 0.0
C969 C 0.34044 0.45285 0.64897 0.0
N970 N 0.34437 0.44086 0.68335 0.0
O971 O 0.34986 0.48497 0.6209 0.0
H972 H 0.30002 0.46035 0.78661 0.0
H973 H 0.35011 0.45452 0.59778 0.0
O974 O 0.33081 0.48535 0.76082 0.0
C975 C 0.33933 0.48327 0.55917 0.0
O976 O 0.30706 0.47852 0.54969 0.0
N977 N 0.26145 0.47691 0.70692 0.0
C978 C 0.18783 0.47414 0.6949 0.0
C979 C 0.20253 0.48479 0.73384 0.0
C980 C 0.23937 0.48601 0.73918 0.0
C981 C 0.247 0.46609 0.67205 0.0
C982 C 0.21053 0.46426 0.66752 0.0
H983 H 0.24956 0.4951 0.76332 0.0
H984 H 0.26332 0.45943 0.64117 0.0
H985 H 0.31243 0.51015 0.74987 0.0
H986 H 0.23775 0.52292 0.60523 0.0
H987 H 0.32368 0.43538 0.7824 0.0
H988 H 0.1859 0.49272 0.75568 0.0
H989 H 0.20033 0.45565 0.6386 0.0
C990 C 0.5017 0.49733 0.21977 0.0
C991 C 0.5171 0.50905 0.19435 0.0
N992 N 0.49667 0.51382 0.14338 0.0
N993 N 0.47145 0.49467 0.18551 0.0
C994 C 0.46895 0.50501 0.13983 0.0
H995 H 0.51267 0.49084 0.25889 0.0
Co996 Co 0.44314 0.47863 0.1928 0.0
C997 C 0.41482 0.47576 0.05329 0.0
O998 O 0.4279 0.4633 0.0522 0.0
N999 N 0.41294 0.46276 0.19791 0.0
C1000 C 0.36086 0.45179 0.19735 0.0
C1001 C 0.37725 0.46429 0.20015 0.0
C1002 C 0.41728 0.44894 0.19305 0.0
N1003 N 0.38598 0.44211 0.19232 0.0
O1004 O 0.40987 0.48843 0.24998 0.0
H1005 H 0.3635 0.47399 0.20106 0.0
H1006 H 0.44251 0.44385 0.18669 0.0
O1007 O 0.41877 0.48325 0.10664 0.0
C1008 C 0.42242 0.48706 0.31039 0.0
O1009 O 0.45351 0.48113 0.31678 0.0
N1010 N 0.47958 0.46885 0.1505 0.0
C1011 C 0.55142 0.46264 0.14365 0.0
C1012 C 0.53511 0.46995 0.09084 0.0
C1013 C 0.49879 0.47301 0.09525 0.0
C1014 C 0.49498 0.46101 0.19953 0.0
C1015 C 0.53061 0.45752 0.19631 0.0
H1016 H 0.48755 0.48016 0.05945 0.0
H1017 H 0.48073 0.45889 0.2461 0.0
H1018 H 0.44744 0.50599 0.1038 0.0
H1019 H 0.54216 0.51341 0.21036 0.0
H1020 H 0.33253 0.44998 0.19836 0.0
H1021 H 0.55091 0.47444 0.05065 0.0
H1022 H 0.54266 0.45226 0.23888 0.0
C1023 C 0.24701 0.32821 0.16423 0.0
C1024 C 0.23262 0.31682 0.1328 0.0
N1025 N 0.25471 0.3127 0.08268 0.0
N1026 N 0.27803 0.33141 0.13399 0.0
C1027 C 0.28203 0.32172 0.08468 0.0
H1028 H 0.23486 0.33412 0.20476 0.0
Co1029 Co 0.30558 0.34733 0.15089 0.0
C1030 C 0.33362 0.35394 1.01342 0.0
O1031 O 0.32125 0.36636 0.02319 0.0
N1032 N 0.335 0.3632 0.16619 0.0
C1033 C 0.38631 0.37455 0.17606 0.0
C1034 C 0.37075 0.36194 0.16891 0.0
C1035 C 0.32982 0.37698 0.17075 0.0
N1036 N 0.36062 0.38406 0.17684 0.0
O1037 O 0.33965 0.33646 0.20178 0.0
H1038 H 0.38513 0.35243 0.16339 0.0
H1039 H 0.30423 0.38189 0.16846 0.0
O1040 O 0.32982 0.345 0.06072 0.0
C1041 C 0.32758 0.33676 0.26312 0.0
O1042 O 0.29631 0.34238 0.27286 0.0
N1043 N 0.26829 0.35778 0.11565 0.0
C1044 C 0.19715 0.36552 0.10883 0.0
C1045 C 0.21342 0.3588 0.05346 0.0
C1046 C 0.24934 0.35502 0.05776 0.0
C1047 C 0.25268 0.36455 0.16876 0.0
C1048 C 0.21765 0.36889 0.16558 0.0
H1049 H 0.26057 0.34861 0.01818 0.0
H1050 H 0.26648 0.36545 0.21685 0.0
H1051 H 0.30368 0.32167 0.04854 0.0
H1052 H 0.2075 0.31208 0.14523 0.0
H1053 H 0.41451 0.3766 0.17787 0.0
H1054 H 0.19794 0.35572 1.0095 0.0
H1055 H 0.20571 0.37364 0.21008 0.0
C1056 C 0.10653 0.24177 1.00466 0.0
C1057 C 0.13875 0.23474 1.01258 0.0
C1058 C 0.08516 0.24497 0.06122 0.0
C1059 C 0.09534 0.24142 0.12807 0.0
H1060 H 0.09697 0.2443 0.95424 0.0
H1061 H 0.05981 0.24984 0.05204 0.0
S1062 S 0.18005 0.22483 0.17706 0.0
N1063 N 0.18175 0.22567 0.09314 0.0
N1064 N 0.14185 0.23182 0.19905 0.0
C1065 C 0.12872 0.23528 0.13701 0.0
C1066 C 0.15029 0.23187 0.07938 0.0
C1067 C 0.12915 0.10971 0.16551 0.0
C1068 C 0.12109 0.1034 0.22789 0.0
C1069 C 0.11179 0.10595 0.1052 0.0
C1070 C 0.08479 0.09602 0.105 0.0
H1071 H 0.14892 0.11774 0.16316 0.0
H1072 H 0.11902 0.1112 0.0589 0.0
S1073 S 0.05745 0.07499 0.2534 0.0
N1074 N 0.08755 0.08557 0.28456 0.0
N1075 N 0.05401 0.07871 0.17172 0.0
C1076 C 0.07807 0.089 0.16639 0.0
C1077 C 0.09634 0.09267 0.22769 0.0
C1078 C 0.8939 0.85067 0.90355 0.0
C1079 C 0.88491 0.84866 0.83427 0.0
C1080 C 0.86881 0.84911 0.95587 0.0
C1081 C 0.83359 0.84547 0.94122 0.0
H1082 H 0.92028 0.85403 0.91772 0.0
H1083 H 0.87664 0.85153 1.00766 0.0
S1084 S 0.79762 0.8367 0.77007 0.0
N1085 N 0.83914 0.84116 0.75524 0.0
N1086 N 0.79207 0.83816 0.85326 0.0
C1087 C 0.82486 0.84244 0.87282 0.0
C1088 C 0.85043 0.84404 0.81949 0.0
C1089 C 0.8765 0.98841 0.77087 0.0
C1090 C 0.84211 0.98301 0.77664 0.0
C1091 C 0.89868 0.98957 0.82824 0.0
C1092 C 0.88702 0.98571 0.89372 0.0
H1093 H 0.88705 0.99102 0.72127 0.0
H1094 H 0.92574 0.993 0.82085 0.0
S1095 S 0.79753 0.97276 0.93738 0.0
N1096 N 0.79621 0.97501 0.85408 0.0
N1097 N 0.8377 0.97745 0.96154 0.0
C1098 C 0.85183 0.98128 0.90086 0.0
C1099 C 0.82946 0.97984 0.84237 0.0
C1100 C 0.14601 0.74359 0.60034 0.0
C1101 C 0.13537 0.74326 0.53132 0.0
C1102 C 0.12131 0.74243 0.65386 0.0
C1103 C 0.08482 0.74091 0.64077 0.0
H1104 H 0.17385 0.74439 0.61342 0.0
H1105 H 0.13107 0.74228 0.70575 0.0
S1106 S 0.04255 0.74105 0.46933 0.0
N1107 N 0.08538 0.74239 0.45341 0.0
N1108 N 0.03905 0.74034 0.55306 0.0
C1109 C 0.07368 0.74118 0.57199 0.0
C1110 C 0.09886 0.74231 0.51763 0.0
C1111 C 0.13627 0.62277 0.67326 0.0
C1112 C 0.14621 0.61046 0.7047 0.0
C1113 C 0.11898 0.62296 0.61036 0.0
C1114 C 0.11065 0.61085 0.57453 0.0
H1115 H 0.14192 0.63253 0.69745 0.0
H1116 H 0.11242 0.63289 0.58954 0.0
S1117 S 0.13041 0.57567 0.63423 0.0
N1118 N 0.14602 0.58564 0.69561 0.0
N1119 N 0.11349 0.58597 0.57616 0.0
C1120 C 0.12011 0.59834 0.60528 0.0
C1121 C 0.1377 0.59815 0.67058 0.0
C1122 C 0.84601 0.37553 0.39311 0.0
C1123 C 0.84506 0.36402 0.43601 0.0
C1124 C 0.86426 0.37542 0.3311 0.0
C1125 C 0.8825 0.36377 0.30757 0.0
H1126 H 0.83318 0.38501 0.40794 0.0
H1127 H 0.8646 0.38478 0.30172 0.0
S1128 S 0.88626 0.33037 0.39599 0.0
N1129 N 0.86242 0.34015 0.44767 0.0
N1130 N 0.8968 0.33998 0.32995 0.0
C1131 C 0.88056 0.35188 0.34765 0.0
C1132 C 0.86192 0.352 0.41201 0.0
C1133 C 0.8664 0.48464 0.36078 0.0
C1134 C 0.84187 0.49545 0.35835 0.0
C1135 C 0.88553 0.48187 0.42052 0.0
C1136 C 0.8814 0.48991 0.48003 0.0
H1137 H 0.86976 0.4779 0.31718 0.0
H1138 H 0.90331 0.47316 0.42023 0.0
S1139 S 0.82343 0.52043 0.49727 0.0
N1140 N 0.81641 0.51492 0.41871 0.0
N1141 N 0.8528 0.50985 0.53045 0.0
C1142 C 0.85834 0.5012 0.477 0.0
C1143 C 0.83846 0.50391 0.41639 0.0
C1144 C 0.6119 0.22201 0.67936 0.0
C1145 C 0.61239 0.22947 0.74099 0.0
C1146 C 0.62838 0.22699 0.62032 0.0
C1147 C 0.64701 0.23948 0.62058 0.0
H1148 H 0.5984 0.21224 0.67632 0.0
H1149 H 0.62704 0.22079 0.57461 0.0
S1150 S 0.65351 0.26361 0.76722 0.0
N1151 N 0.63067 0.25056 0.7972 0.0
N1152 N 0.66251 0.25973 0.68705 0.0
C1153 C 0.64673 0.24727 0.68136 0.0
C1154 C 0.62932 0.24231 0.74124 0.0
C1155 C 0.61018 0.112 0.61779 0.0
C1156 C 0.58311 0.10214 0.61752 0.0
C1157 C 0.63061 0.11441 0.67653 0.0
C1158 C 0.6251 0.10691 0.73681 0.0
H1159 H 0.61415 0.11847 0.5738 0.0
H1160 H 0.65039 0.12245 0.67505 0.0
S1161 S 0.55947 0.07901 0.75938 0.0
N1162 N 0.553 0.08431 0.68058 0.0
N1163 N 0.59217 0.08845 0.79019 0.0
C1164 C 0.59945 0.09645 0.73559 0.0
C1165 C 0.57821 0.0942 0.6762 0.0
C1166 C 0.3719 0.86923 0.45377 0.0
C1167 C 0.35048 0.85835 0.47525 0.0
C1168 C 0.38571 0.8697 0.38785 0.0
C1169 C 0.37862 0.85933 0.33944 0.0
H1170 H 0.37721 0.87778 0.48776 0.0
H1171 H 0.40145 0.87856 0.37457 0.0
S1172 S 0.32618 0.82788 0.37155 0.0
N1173 N 0.32441 0.83642 0.44445 0.0
N1174 N 0.35063 0.83723 0.31961 0.0
C1175 C 0.35873 0.84795 0.3611 0.0
C1176 C 0.34461 0.84747 0.42916 0.0
C1177 C 0.39158 0.99514 0.36666 0.0
C1178 C 0.37999 0.9905 0.43084 0.0
C1179 C 0.37053 0.99349 0.30817 0.0
C1180 C 0.33759 0.98685 0.31184 0.0
H1181 H 0.41799 0.99935 0.36095 0.0
H1182 H 0.38124 0.99649 0.25926 0.0
S1183 S 0.2931 0.97454 0.46866 0.0
N1184 N 0.33167 0.98049 0.4955 0.0
N1185 N 0.29246 0.97708 0.38554 0.0
C1186 C 0.32459 0.98311 0.37636 0.0
C1187 C 0.34569 0.98504 0.43601 0.0
C1188 C 0.62756 0.72773 0.12774 0.0
C1189 C 0.6234 0.73411 0.06385 0.0
C1190 C 0.60688 0.73145 0.18446 0.0
C1191 C 0.58062 0.74164 0.18022 0.0
H1192 H 0.6469 0.71965 0.13433 0.0
H1193 H 0.61119 0.72605 0.2317 0.0
S1194 S 0.56072 0.76236 0.02636 0.0
N1195 N 0.59233 0.75179 1.0011 0.0
N1196 N 0.55319 0.75872 0.10713 0.0
C1197 C 0.57686 0.74844 0.11718 0.0
C1198 C 0.59822 0.74469 0.05933 0.0
C1199 C 0.59504 0.59111 0.23066 0.0
C1200 C 0.60366 0.59546 0.1641 0.0
C1201 C 0.6146 0.59546 0.2878 0.0
C1202 C 0.64329 0.60451 0.28098 0.0
H1203 H 0.5723 0.58458 0.23928 0.0
H1204 H 0.60633 0.59213 0.33788 0.0
S1205 S 0.68054 0.61731 0.11809 0.0
N1206 N 0.64608 0.60798 0.09482 0.0
N1207 N 0.68187 0.61653 0.20205 0.0
C1208 C 0.65339 0.6084 0.21471 0.0
C1209 C 0.6339 0.60376 0.15639 0.0
C1210 C 0.37765 0.34008 0.94472 0.0
C1211 C 0.35255 0.35071 0.94802 0.0
C1212 C 0.39805 0.33777 0.88559 0.0
C1213 C 0.39382 0.34574 0.82626 0.0
H1214 H 0.38251 0.33378 0.98897 0.0
H1215 H 0.41782 0.32976 0.88695 0.0
S1216 S 0.32997 0.37432 0.80636 0.0
N1217 N 0.32358 0.369 0.88511 0.0
N1218 N 0.36134 0.3644 0.77424 0.0
C1219 C 0.36788 0.35607 0.82795 0.0
C1220 C 0.34748 0.35861 0.88861 0.0
C1221 C 0.40153 0.47493 0.9281 0.0
C1222 C 0.3944 0.48056 0.99308 0.0
C1223 C 0.37967 0.47771 0.87176 0.0
C1224 C 0.34939 0.486 0.87856 0.0
H1225 H 0.42359 0.46795 0.9211 0.0
H1226 H 0.38526 0.4726 0.82376 0.0
S1227 S 0.32054 0.50414 0.03583 0.0
N1228 N 0.3565 0.49573 0.05918 0.0
N1229 N 0.31482 0.50056 0.9542 0.0
C1230 C 0.34295 0.4922 0.94236 0.0
C1231 C 0.36563 0.48961 0.99935 0.0
C1232 C 0.84106 0.22271 0.33578 0.0
C1233 C 0.83679 0.22119 0.40675 0.0
C1234 C 0.87464 0.22297 0.30605 0.0
C1235 C 0.90506 0.2217 0.34629 0.0
H1236 H 0.81817 0.22385 0.3029 0.0
H1237 H 0.87684 0.22417 0.25136 0.0
S1238 S 0.90835 0.21848 0.53471 0.0
N1239 N 0.86558 0.21895 0.5166 0.0
N1240 N 0.92925 0.21968 0.46099 0.0
C1241 C 0.90128 0.22045 0.41749 0.0
C1242 C 0.86697 0.22019 0.44774 0.0
C1243 C 0.36938 0.12937 0.41125 0.0
C1244 C 0.38639 0.1166 0.41477 0.0
C1245 C 0.3345 0.13042 0.38802 0.0
C1246 C 0.31555 0.11872 0.36752 0.0
H1247 H 0.38296 0.13858 0.42772 0.0
H1248 H 0.32165 0.14034 0.3891 0.0
S1249 S 0.3491 0.08305 0.36209 0.0
N1250 N 0.38284 0.09218 0.39075 0.0
N1251 N 0.31657 0.09407 0.3497 0.0
C1252 C 0.3327 0.10596 0.36828 0.0
C1253 C 0.36826 0.1049 0.39167 0.0
C1254 C 0.858 0.10135 0.88451 0.0
C1255 C 0.83181 0.11134 0.87411 0.0
C1256 C 0.89151 0.10495 0.90827 0.0
C1257 C 0.90023 0.11868 0.92138 0.0
H1258 H 0.85187 0.09059 0.87757 0.0
H1259 H 0.91079 0.0969 0.91651 0.0
S1260 S 0.84228 0.1488 0.89699 0.0
N1261 N 0.81714 0.13558 0.87592 0.0
N1262 N 0.88142 0.14241 0.91756 0.0
C1263 C 0.87514 0.12886 0.90754 0.0
C1264 C 0.8406 0.12518 0.88436 0.0
C1265 C 0.38972 0.21053 0.82537 0.0
C1266 C 0.40452 0.22359 0.81645 0.0
C1267 C 0.35307 0.20897 0.83447 0.0
C1268 C 0.33077 0.22047 0.83602 0.0
H1269 H 0.40676 0.20166 0.8303 0.0
H1270 H 0.34236 0.19886 0.84359 0.0
S1271 S 0.35644 0.25653 0.80562 0.0
N1272 N 0.39412 0.24791 0.80241 0.0
N1273 N 0.32524 0.24503 0.81961 0.0
C1274 C 0.34507 0.23342 0.82222 0.0
C1275 C 0.38205 0.23497 0.81224 0.0
C1276 C 0.13407 0.85821 0.59969 0.0
C1277 C 0.153 0.87049 0.60799 0.0
C1278 C 0.09823 0.85742 0.61736 0.0
C1279 C 0.08018 0.86888 0.64362 0.0
H1280 H 0.14754 0.84897 0.58325 0.0
H1281 H 0.0846 0.84773 0.61096 0.0
S1282 S 0.11733 0.90359 0.67045 0.0
N1283 N 0.15093 0.89449 0.64063 0.0
N1284 N 0.08317 0.89302 0.67352 0.0
C1285 C 0.09838 0.88136 0.64925 0.0
C1286 C 0.13492 0.88216 0.63146 0.0
C1287 C 0.59119 0.95987 0.63261 0.0
C1288 C 0.57076 0.97176 0.64087 0.0
C1289 C 0.62763 0.96012 0.6457 0.0
C1290 C 0.64438 0.97223 0.6678 0.0
H1291 H 0.57938 0.95063 0.61205 0.0
H1292 H 0.64326 0.95112 0.6336 0.0
S1293 S 0.60086 1.00529 0.70862 0.0
N1294 N 0.56837 0.99528 0.68192 0.0
N1295 N 0.63714 0.99584 0.70514 0.0
C1296 C 0.62352 0.98377 0.68241 0.0
C1297 C 0.58655 0.98352 0.66896 0.0
C1298 C 0.09373 0.97782 0.12866 0.0
C1299 C 0.07834 0.96578 0.10259 0.0
C1300 C 0.12803 0.97778 0.15533 0.0
C1301 C 0.14814 0.96569 0.15689 0.0
H1302 H 0.07926 0.98741 0.12784 0.0
H1303 H 0.13962 0.98746 0.17087 0.0
S1304 S 0.11876 0.93122 0.10099 0.0
N1305 N 0.08464 0.94128 0.08437 0.0
N1306 N 0.14945 0.94119 0.1351 0.0
C1307 C 0.13238 0.95343 0.13446 0.0
C1308 C 0.09739 0.95348 0.10712 0.0
C1309 C 0.58586 0.8735 0.18283 0.0
C1310 C 0.56048 0.87037 0.13295 0.0
C1311 C 0.62209 0.87209 0.16915 0.0
C1312 C 0.63436 0.86762 0.1048 0.0
H1313 H 0.57768 0.87689 0.23311 0.0
H1314 H 0.64055 0.87416 0.21021 0.0
S1315 S 0.57863 0.85803 0.95654 0.0
N1316 N 0.55005 0.8621 0.01706 0.0
N1317 N 0.61825 0.86045 0.99022 0.0
C1318 C 0.60928 0.8647 0.05404 0.0
C1319 C 0.57235 0.86585 0.06831 0.0
C1320 C 0.83891 0.7303 0.8936 0.0
C1321 C 0.82158 0.71757 0.89615 0.0
C1322 C 0.87385 0.73136 0.87004 0.0
C1323 C 0.89278 0.71974 0.84806 0.0
H1324 H 0.82493 0.73961 0.90739 0.0
H1325 H 0.88619 0.74137 0.8694 0.0
S1326 S 0.85985 0.68397 0.84696 0.0
N1327 N 0.82631 0.69304 0.87721 0.0
N1328 N 0.89192 0.69506 0.83171 0.0
C1329 C 0.87604 0.70691 0.85167 0.0
C1330 C 0.84048 0.70582 0.87595 0.0
C1331 C 0.39966 0.61908 0.90095 0.0
C1332 C 0.40823 0.61574 0.96895 0.0
C1333 C 0.3644 0.61999 0.87902 0.0
C1334 C 0.3363 0.6175 0.92405 0.0
H1335 H 0.4204 0.62079 0.86374 0.0
H1336 H 0.35911 0.62273 0.82659 0.0
S1337 S 0.34416 0.6075 0.10607 0.0
N1338 N 0.38546 0.60982 0.08078 0.0
N1339 N 0.3193 0.61053 0.03867 0.0
C1340 C 0.34444 0.61378 0.99172 0.0
C1341 C 0.38032 0.61313 1.01435 0.0
C1342 C 0.89564 0.6248 0.47268 0.0
C1343 C 0.91566 0.62326 0.41274 0.0
C1344 C 0.85856 0.62493 0.47117 0.0
C1345 C 0.83946 0.62411 0.40933 0.0
H1346 H 0.9086 0.62564 0.52174 0.0
H1347 H 0.84497 0.62523 0.51972 0.0
S1348 S 0.87891 0.62077 0.23664 0.0
N1349 N 0.9131 0.62045 0.28892 0.0
N1350 N 0.84386 0.62291 0.2858 0.0
C1351 C 0.85913 0.6233 0.34852 0.0
C1352 C 0.89697 0.62239 0.35023 0.0
C1353 C 0.34092 0.71897 0.42898 0.0
C1354 C 0.32016 0.71103 0.38438 0.0
C1355 C 0.37782 0.71955 0.42158 0.0
C1356 C 0.39508 0.71228 0.36914 0.0
H1357 H 0.32846 0.72562 0.46634 0.0
H1358 H 0.39278 0.72634 0.45469 0.0
S1359 S 0.35378 0.68807 0.2474 0.0
N1360 N 0.32023 0.6941 0.29275 0.0
N1361 N 0.38972 0.69563 0.27774 0.0
C1362 C 0.37515 0.70351 0.32765 0.0
C1363 C 0.33763 0.70272 0.33583 0.0
C1364 C 0.14286 0.38006 0.12385 0.0
C1365 C 0.15814 0.36705 0.11418 0.0
C1366 C 0.10649 0.38152 0.13803 0.0
C1367 C 0.08449 0.36999 0.14532 0.0
H1368 H 0.15923 0.38914 0.12083 0.0
H1369 H 0.09551 0.3917 0.1438 0.0
S1370 S 0.11172 0.33371 0.12566 0.0
N1371 N 0.14857 0.34248 0.1129 0.0
N1372 N 0.08045 0.34519 0.14067 0.0
C1373 C 0.09952 0.35695 0.13602 0.0
C1374 C 0.13629 0.35548 0.12021 0.0
C1375 C 0.61342 0.45464 0.1192 0.0
C1376 C 0.59008 0.46336 0.15425 0.0
C1377 C 0.65018 0.45544 0.13049 0.0
C1378 C 0.66458 0.46497 0.17723 0.0
H1379 H 0.60326 0.44729 0.08256 0.0
H1380 H 0.66757 0.44885 0.10105 0.0
S1381 S 0.61384 0.49013 0.28071 0.0
N1382 N 0.58333 0.48164 0.23744 0.0
N1383 N 0.65221 0.48335 0.25793 0.0
C1384 C 0.64117 0.47352 0.2134 0.0
C1385 C 0.60396 0.47269 0.20191 0.0
C1386 C 0.0883 0.47678 0.71689 0.0
C1387 C 0.07498 0.47377 0.6513 0.0
C1388 C 0.12463 0.47673 0.73053 0.0
C1389 C 0.14934 0.47388 0.67895 0.0
H1390 H 0.07049 0.47936 0.75838 0.0
H1391 H 0.13338 0.4789 0.78204 0.0
S1392 S 0.12868 0.46638 0.49724 0.0
N1393 N 0.08949 0.46817 0.53381 0.0
N1394 N 0.15818 0.46887 0.55822 0.0
C1395 C 0.13658 0.47122 0.61252 0.0
C1396 C 0.09935 0.47104 0.59893 0.0
C1397 C 0.60203 0.36461 0.67394 0.0
C1398 C 0.57892 0.37388 0.6421 0.0
C1399 C 0.63859 0.36507 0.66219 0.0
C1400 C 0.65344 0.37476 0.61793 0.0
H1401 H 0.59169 0.35655 0.70597 0.0
H1402 H 0.65542 0.35762 0.68704 0.0
S1403 S 0.6054 0.40209 0.52682 0.0
N1404 N 0.57405 0.39371 0.56809 0.0
N1405 N 0.64311 0.39434 0.54542 0.0
C1406 C 0.63107 0.38433 0.5872 0.0
C1407 C 0.59372 0.38396 0.59951 0.0
C1408 C 0.13178 0.17523 0.34127 0.0
C1409 C 0.1095 0.18441 0.37699 0.0
C1410 C 0.13738 0.16179 0.36356 0.0
C1411 C 0.12115 0.15683 0.42309 0.0
H1412 H 0.14424 0.17835 0.29415 0.0
H1413 H 0.15338 0.15507 0.33206 0.0
S1414 S 0.0644 0.17714 0.54109 0.0
N1415 N 0.07342 0.1878 0.47847 0.0
N1416 N 0.08512 0.16273 0.52189 0.0
C1417 C 0.10062 0.16613 0.46185 0.0
C1418 C 0.09464 0.17985 0.4387 0.0
C1419 C 0.12023 0.15878 0.79729 0.0
C1420 C 0.09921 0.1577 0.85623 0.0
C1421 C 0.13072 0.17167 0.77241 0.0
C1422 C 0.12066 0.18391 0.80582 0.0
H1423 H 0.12975 0.14961 0.772 0.0
H1424 H 0.14788 0.17206 0.72821 0.0
S1425 S 0.06076 0.18668 0.955 0.0
N1426 N 0.06503 0.17006 0.94193 0.0
N1427 N 0.08518 0.19409 0.89593 0.0
C1428 C 0.09817 0.18294 0.86254 0.0
C1429 C 0.08731 0.1699 0.88746 0.0
C1430 C 0.84929 0.91719 0.64984 0.0
C1431 C 0.867 0.90832 0.60401 0.0
C1432 C 0.83712 0.93012 0.62993 0.0
C1433 C 0.84157 0.93474 0.56292 0.0
H1434 H 0.84494 0.91415 0.70211 0.0
H1435 H 0.82362 0.93648 0.66713 0.0
S1436 S 0.88594 0.91572 0.42237 0.0
N1437 N 0.88844 0.90527 0.48807 0.0
N1438 N 0.86475 0.92946 0.45013 0.0
C1439 C 0.85851 0.92593 0.51588 0.0
C1440 C 0.87131 0.91276 0.53643 0.0
C1441 C 0.89319 0.92009 0.16616 0.0
C1442 C 0.86977 0.9313 0.16337 0.0
C1443 C 0.88044 0.90663 0.17245 0.0
C1444 C 0.84386 0.90395 0.17605 0.0
H1445 H 0.92111 0.92165 0.15573 0.0
H1446 H 0.89887 0.89821 0.16628 0.0
S1447 S 0.77217 0.92981 0.17999 0.0
N1448 N 0.80888 0.93892 0.17244 0.0
N1449 N 0.78489 0.91365 0.18427 0.0
C1450 C 0.82066 0.91516 0.18088 0.0
C1451 C 0.83362 0.92884 0.17444 0.0
C1452 C 0.10086 0.67826 0.93912 0.0
C1453 C 0.11314 0.68429 0.87875 0.0
C1454 C 0.11029 0.66474 0.95602 0.0
C1455 C 0.1324 0.65673 0.91329 0.0
H1456 H 0.08204 0.68369 0.97105 0.0
H1457 H 0.09912 0.66034 1.00173 0.0
S1458 S 0.1743 0.6685 0.75266 0.0
N1459 N 0.1512 0.68181 0.77971 0.0
N1460 N 0.16798 0.65643 0.80983 0.0
C1461 C 0.14655 0.66302 0.85496 0.0
C1462 C 0.13714 0.67677 0.83819 0.0
C1463 C 0.10206 0.67887 0.36138 0.0
C1464 C 0.12876 0.68483 0.3209 0.0
C1465 C 0.09856 0.6646 0.36682 0.0
C1466 C 0.12156 0.65562 0.3319 0.0
H1467 H 0.08388 0.6853 0.38981 0.0
H1468 H 0.07796 0.66057 0.39947 0.0
S1469 S 0.19421 0.66599 0.21502 0.0
N1470 N 0.1776 0.68062 0.243 0.0
N1471 N 0.17094 0.65384 0.25243 0.0
C1472 C 0.1482 0.66145 0.29069 0.0
C1473 C 0.15183 0.67601 0.28543 0.0
C1474 C 0.89392 0.43437 0.1444 0.0
C1475 C 0.8666 0.44104 0.10819 0.0
C1476 C 0.8996 0.42017 0.13826 0.0
C1477 C 0.87819 0.41202 0.09568 0.0
H1478 H 0.91067 0.44014 0.17891 0.0
H1479 H 0.92025 0.41549 0.16852 0.0
S1480 S 0.80582 0.42458 0.98389 0.0
N1481 N 0.81977 0.43844 0.02431 0.0
N1482 N 0.83036 0.41186 1.01259 0.0
C1483 C 0.85143 0.4186 0.05779 0.0
C1484 C 0.84562 0.43305 0.06414 0.0
C1485 C 0.83884 0.433 0.65543 0.0
C1486 C 0.86822 0.43879 0.68935 0.0
C1487 C 0.83434 0.41872 0.65077 0.0
C1488 C 0.85897 0.40967 0.68011 0.0
H1489 H 0.81954 0.43956 0.63112 0.0
H1490 H 0.81187 0.41475 0.62258 0.0
S1491 S 0.9379 0.41968 0.78204 0.0
N1492 N 0.92066 0.43437 0.75739 0.0
N1493 N 0.91212 0.40765 0.74953 0.0
C1494 C 0.88784 0.41536 0.71603 0.0
C1495 C 0.89249 0.42987 0.72038 0.0
C1496 C 0.64923 0.16544 0.92035 0.0
C1497 C 0.63865 0.15376 0.95709 0.0
C1498 C 0.62906 0.17759 0.92152 0.0
C1499 C 0.59767 0.17864 0.96018 0.0
H1500 H 0.67303 0.16506 0.88948 0.0
H1501 H 0.63766 0.18611 0.89066 0.0
S1502 S 0.56152 0.15155 0.07326 0.0
N1503 N 0.59653 0.14436 0.03727 0.0
N1504 N 0.5593 0.16718 0.04199 0.0
C1505 C 0.58769 0.16715 0.99934 0.0
C1506 C 0.60794 0.15474 0.99711 0.0
C1507 C 0.64894 0.17054 0.3714 0.0
C1508 C 0.62891 0.1827 0.37167 0.0
C1509 C 0.63235 0.15768 0.37027 0.0
C1510 C 0.59524 0.15663 0.37014 0.0
H1511 H 0.67736 0.17102 0.37917 0.0
H1512 H 0.64835 0.1486 0.37752 0.0
S1513 S 0.53128 0.18529 0.36068 0.0
N1514 N 0.5705 0.19284 0.36295 0.0
N1515 N 0.5392 0.16866 0.36184 0.0
C1516 C 0.57522 0.16866 0.36303 0.0
C1517 C 0.59211 0.18173 0.36349 0.0
C1518 C 0.3832 0.91349 0.09807 0.0
C1519 C 0.35382 0.90468 0.10327 0.0
C1520 C 0.37897 0.92778 0.09593 0.0
C1521 C 0.34515 0.93398 0.09872 0.0
H1522 H 0.40971 0.90932 0.09377 0.0
H1523 H 0.40256 0.93402 0.09152 0.0
S1524 S 0.25951 0.91555 0.11718 0.0
N1525 N 0.2897 0.90332 0.11647 0.0
N1526 N 0.28167 0.92999 0.10875 0.0
C1527 C 0.31555 0.92529 0.10566 0.0
C1528 C 0.31989 0.91073 0.10863 0.0
C1529 C 0.32933 0.91046 0.64764 0.0
C1530 C 0.34717 0.90389 0.70126 0.0
C1531 C 0.33598 0.92422 0.63194 0.0
C1532 C 0.36071 0.93211 0.66904 0.0
H1533 H 0.31151 0.90475 0.61492 0.0
H1534 H 0.32283 0.92858 0.5881 0.0
S1535 S 0.411 0.92043 0.82018 0.0
N1536 N 0.38778 0.90687 0.79657 0.0
N1537 N 0.40079 0.93265 0.76577 0.0
C1538 C 0.37702 0.92599 0.72559 0.0
C1539 C 0.37024 0.91191 0.74176 0.0
C1540 C 0.60372 0.68028 0.48907 0.0
C1541 C 0.61478 0.68549 0.42599 0.0
C1542 C 0.61444 0.6672 0.51073 0.0
C1543 C 0.6365 0.65872 0.47012 0.0
H1544 H 0.58515 0.68603 0.52014 0.0
H1545 H 0.60442 0.66354 0.55898 0.0
S1546 S 0.67628 0.66855 0.30402 0.0
N1547 N 0.65251 0.68198 0.32708 0.0
N1548 N 0.67098 0.65726 0.36531 0.0
C1549 C 0.64939 0.66424 0.40869 0.0
C1550 C 0.63892 0.67762 0.38733 0.0
C1551 C 0.6486 0.67335 0.90303 0.0
C1552 C 0.62281 0.68023 0.864 0.0
C1553 C 0.64331 0.65984 0.92515 0.0
C1554 C 0.61242 0.65252 0.90812 0.0
H1555 H 0.67297 0.67847 0.91723 0.0
H1556 H 0.66322 0.65513 0.95712 0.0
S1557 S 0.53585 0.66567 0.81051 0.0
N1558 N 0.56419 0.67855 0.81207 0.0
N1559 N 0.55536 0.65308 0.85179 0.0
C1560 C 0.58674 0.65907 0.8683 0.0
C1561 C 0.59168 0.67291 0.84668 0.0
C1562 C 0.36595 0.40999 0.57382 0.0
C1563 C 0.37934 0.4004 0.62121 0.0
C1564 C 0.35616 0.42338 0.59336 0.0
C1565 C 0.35956 0.4279 0.66114 0.0
H1566 H 0.36246 0.40715 0.52093 0.0
H1567 H 0.3446 0.43006 0.55558 0.0
S1568 S 0.39719 0.4078 0.80426 0.0
N1569 N 0.3972 0.39705 0.73922 0.0
N1570 N 0.38128 0.42228 0.77421 0.0
C1571 C 0.37494 0.41877 0.70819 0.0
C1572 C 0.38423 0.40506 0.68876 0.0
C1573 C 0.40072 0.41827 0.22327 0.0
C1574 C 0.38002 0.42755 0.18604 0.0
C1575 C 0.39387 0.40413 0.22066 0.0
C1576 C 0.36613 0.3987 0.18049 0.0
H1577 H 0.42187 0.422 0.25572 0.0
H1578 H 0.41021 0.39738 0.25092 0.0
S1579 S 0.30698 0.41857 0.06707 0.0
N1580 N 0.33236 0.43024 0.10382 0.0
N1581 N 0.31975 0.40374 0.09852 0.0
C1582 C 0.3458 0.40786 0.14178 0.0
C1583 C 0.35271 0.42225 0.14458 0.0
C1584 C 0.98531 0.3106 0.26442 0.0
C1585 C -0.01016 0.3107 0.19318 0.0
C1586 C -0.00633 0.29894 0.3032 0.0
C1587 C 0.00687 0.28688 0.27237 0.0
H1588 H 0.9759 0.3197 0.29049 0.0
H1589 H -0.00989 0.2994 0.3579 0.0
S1590 S 0.01917 0.28131 0.08643 0.0
N1591 N 0.00565 0.29733 0.09295 0.0
N1592 N 0.02094 0.27551 0.16514 0.0
C1593 C 0.01056 0.28676 0.20092 0.0
C1594 C 0.00215 0.29862 0.16159 0.0
C1595 C 0.24805 1.03379 0.2868 0.0
C1596 C 0.23576 1.03399 0.21904 0.0
C1597 C 0.24166 0.04481 0.33193 0.0
C1598 C 0.22269 0.05654 0.31149 0.0
H1599 H 0.26215 1.02494 0.30557 0.0
H1600 H 0.25136 1.04405 0.38367 0.0
S1601 S 0.18791 0.06283 0.13745 0.0
N1602 N 0.20568 0.04741 0.13257 0.0
N1603 N 0.19388 0.06799 0.21687 0.0
C1604 C 0.21083 0.05698 0.24346 0.0
C1605 C 0.21732 0.04577 0.19751 0.0
C1606 C 0.00811 0.05352 0.01678 0.0
C1607 C -0.00458 0.05527 0.95002 0.0
C1608 C 0.00034 1.0417 0.0544 0.0
C1609 C 0.98007 1.03087 0.02671 0.0
H1610 H 0.0233 0.06152 0.04122 0.0
H1611 H 0.00992 1.04121 0.10626 0.0
S1612 S 0.94455 1.02967 0.84983 0.0
N1613 N 0.96358 0.04484 0.8558 0.0
N1614 N 0.95042 1.02233 0.92454 0.0
C1615 C 0.96841 1.03227 0.95864 0.0
C1616 C 0.97578 0.04449 0.92088 0.0
C1617 C 0.21412 0.29849 1.01135 0.0
C1618 C 0.24873 0.30167 0.03403 0.0
C1619 C 0.20785 0.28799 0.96317 0.0
C1620 C 0.23591 0.28025 0.93542 0.0
H1621 H 0.19171 0.30435 0.02993 0.0
H1622 H 0.18093 0.28612 0.94632 0.0
S1623 S 0.33089 0.2832 0.98419 0.0
N1624 N 0.31097 0.29531 0.02903 0.0
N1625 N 0.29932 0.27568 0.93931 0.0
C1626 C 0.27049 0.28303 0.95931 0.0
C1627 C 0.27685 0.2937 1.00822 0.0
C1628 C -0.00402 0.78315 0.71188 0.0
C1629 C -0.00622 0.78418 0.78348 0.0
C1630 C 0.98602 0.79409 0.66953 0.0
C1631 C 0.97325 0.80652 0.69677 0.0
H1632 H 0.00493 0.77373 0.68821 0.0
H1633 H 0.98805 0.79277 0.61485 0.0
S1634 S 0.96553 0.81497 0.88108 0.0
N1635 N 0.97983 0.799 0.87963 0.0
N1636 N 0.96134 0.81947 0.80057 0.0
C1637 C 0.97143 0.80776 0.76834 0.0
C1638 C 0.9816 0.79663 0.81143 0.0
C1639 C 0.73568 0.05671 0.75937 0.0
C1640 C 0.71388 0.05172 0.81219 0.0
C1641 C 0.75109 0.04788 0.71072 0.0
C1642 C 0.74601 1.03364 0.71335 0.0
H1643 H 0.7411 0.06755 0.75553 0.0
H1644 H 0.76704 0.05221 0.67033 0.0
S1645 S 0.68954 1.0152 0.83698 0.0
N1646 N 0.68654 1.0314 0.86076 0.0
N1647 N 0.71652 1.01494 0.77068 0.0
C1648 C 0.7245 1.02844 0.76558 0.0
C1649 C 0.70826 1.03743 0.8146 0.0
C1650 C 0.70189 0.78659 1.01151 0.0
C1651 C 0.72981 0.77904 0.98188 0.0
C1652 C 0.70854 0.79751 0.05713 0.0
C1653 C 0.74343 0.80134 0.07515 0.0
H1654 H 0.6747 0.78428 0.99796 0.0
H1655 H 0.68619 0.80324 0.07697 0.0
S1656 S 0.82574 0.78375 0.01952 0.0
N1657 N 0.79371 0.7754 0.97983 0.0
N1658 N 0.80596 0.79594 0.06414 0.0
C1659 C 0.77148 0.7936 0.04769 0.0
C1660 C 0.76476 0.78246 1.0016 0.0
C1661 C 0.24728 0.55699 0.74066 0.0
C1662 C 0.24513 0.55615 0.81212 0.0
C1663 C 0.25728 0.54555 0.7007 0.0
C1664 C 0.26548 0.53283 0.73063 0.0
H1665 H 0.24207 0.56664 0.71577 0.0
H1666 H 0.25905 0.5467 0.64597 0.0
S1667 S 0.25812 0.52489 0.9149 0.0
N1668 N 0.24854 0.54133 0.91036 0.0
N1669 N 0.26666 0.5199 0.83607 0.0
C1670 C 0.26204 0.5318 0.80193 0.0
C1671 C 0.25203 0.54343 0.84234 0.0
C1672 C 0.98067 0.53575 0.51265 0.0
C1673 C -0.01065 0.53663 0.58234 0.0
C1674 C 0.98893 0.5464 0.46734 0.0
C1675 C 0.00625 0.55841 0.48957 0.0
H1676 H 0.96786 0.52666 0.49268 0.0
H1677 H 0.98192 0.54516 0.41418 0.0
S1678 S 0.03182 0.56638 0.66808 0.0
N1679 N 0.01446 0.55089 0.672 0.0
N1680 N 0.0298 0.57083 0.58717 0.0
C1681 C 0.01469 0.5595 0.55928 0.0
C1682 C 0.00628 0.54865 0.60547 0.0
C1683 C 0.21254 0.8034 0.50233 0.0
C1684 C 0.24629 0.80644 0.52976 0.0
C1685 C 0.20759 0.7928 0.45426 0.0
C1686 C 0.23615 0.78472 0.43111 0.0
H1687 H 0.18964 0.80934 0.51789 0.0
H1688 H 0.18114 0.79096 0.43486 0.0
S1689 S 0.32969 0.78784 0.49001 0.0
N1690 N 0.30853 0.8001 0.53163 0.0
N1691 N 0.29945 0.78021 0.44235 0.0
C1692 C 0.27009 0.78763 0.45827 0.0
C1693 C 0.2751 0.79846 0.50712 0.0
C1694 C 0.7207 0.54081 0.29787 0.0
C1695 C 0.75287 0.53845 0.26259 0.0
C1696 C 0.71705 0.55152 0.34563 0.0
C1697 C 0.7455 0.56027 0.36127 0.0
H1698 H 0.69812 0.53418 0.28962 0.0
H1699 H 0.6919 0.55281 0.37156 0.0
S1700 S 0.83447 0.55949 0.2801 0.0
N1701 N 0.81309 0.54657 0.24428 0.0
N1702 N 0.80638 0.56643 0.33487 0.0
C1703 C 0.77769 0.5582 0.32612 0.0
C1704 C 0.78135 0.54737 0.2768 0.0
C1705 C 0.72604 0.29914 0.57014 0.0
C1706 C 0.74433 0.31036 0.54197 0.0
C1707 C 0.71856 0.28731 0.53162 0.0
C1708 C 0.72913 0.28607 0.46305 0.0
H1709 H 0.7179 0.29938 0.62302 0.0
H1710 H 0.70524 0.27892 0.55655 0.0
S1711 S 0.7746 0.31295 0.36247 0.0
N1712 N 0.77057 0.31977 0.43929 0.0
N1713 N 0.75682 0.29754 0.3672 0.0
C1714 C 0.74675 0.29732 0.43364 0.0
C1715 C 0.75431 0.30941 0.47292 0.0
C1716 C 0.51983 0.29185 0.70691 0.0
C1717 C 0.49157 0.30097 0.72104 0.0
C1718 C 0.53028 0.28169 0.7534 0.0
C1719 C 0.51313 0.28021 0.8165 0.0
H1720 H 0.53469 0.29276 0.65997 0.0
H1721 H 0.55285 0.27528 0.741 0.0
S1722 S 0.43426 0.29974 0.87516 0.0
N1723 N 0.44435 0.30666 0.80109 0.0
N1724 N 0.46375 0.28752 0.88734 0.0
C1725 C 0.48354 0.28863 0.82979 0.0
C1726 C 0.47275 0.29897 0.78236 0.0
C1727 C 0.45821 0.05118 0.49451 0.0
C1728 C 0.49387 0.05526 0.48683 0.0
C1729 C 0.44858 1.04043 0.53813 0.0
C1730 C 0.47412 1.03327 0.57621 0.0
H1731 H 0.43742 0.05646 0.46716 0.0
H1732 H 0.42081 1.03775 0.54244 0.0
S1733 S 0.57152 1.03925 0.5706 0.0
N1734 N 0.55496 0.0509 0.51897 0.0
N1735 N 0.53716 1.03064 0.60005 0.0
C1736 C 0.50998 1.03718 0.56857 0.0
C1737 C 0.51974 0.04817 0.52425 0.0
C1738 C 0.50566 0.80385 0.26854 0.0
C1739 C 0.4713 0.80725 0.24565 0.0
C1740 C 0.51192 0.79227 0.30925 0.0
C1741 C 0.48412 0.78351 0.32895 0.0
H1742 H 0.52801 0.81023 0.25489 0.0
H1743 H 0.53881 0.79016 0.32537 0.0
S1744 S 0.38939 0.78734 0.27864 0.0
N1745 N 0.4093 0.80062 0.24395 0.0
N1746 N 0.42078 0.77885 0.31901 0.0
C1747 C 0.44955 0.7868 0.3062 0.0
C1748 C 0.44323 0.79865 0.26508 0.0
C1749 C 0.52097 0.53721 0.12744 0.0
C1750 C 0.50419 0.5255 0.10028 0.0
C1751 C 0.52839 0.5487 0.08685 0.0
C1752 C 0.51947 0.54901 0.01711 0.0
H1753 H 0.52776 0.53762 0.18099 0.0
H1754 H 0.54032 0.55756 0.1109 0.0
S1755 S 0.47937 0.52033 0.91885 0.0
N1756 N 0.48177 0.51452 0.99753 0.0
N1757 N 0.49561 0.53602 0.92161 0.0
C1758 C 0.50373 0.53719 0.98881 0.0
C1759 C 0.49612 0.52549 0.03018 0.0
C1760 C 0.08462 0.24156 0.57551 0.0
C1761 C 0.10032 0.2446 0.51187 0.0
C1762 C 0.10274 0.24361 0.63708 0.0
C1763 C 0.13737 0.24881 0.63771 0.0
H1764 H 0.05847 0.237 0.57813 0.0
H1765 H 0.09036 0.24023 0.68388 0.0
S1766 S 0.18838 0.26062 0.48686 0.0
N1767 N 0.15099 0.25464 0.4545 0.0
N1768 N 0.18513 0.25864 0.57014 0.0
C1769 C 0.15237 0.25292 0.57504 0.0
C1770 C 0.1339 0.25076 0.51218 0.0
C1771 C 0.14844 0.09319 0.66723 0.0
C1772 C 0.13114 0.09152 0.60373 0.0
C1773 C 0.12934 0.09421 0.72844 0.0
C1774 C 0.09222 0.09357 0.72848 0.0
H1775 H 0.17693 0.09454 0.66961 0.0
H1776 H 0.1436 0.09646 0.77511 0.0
S1777 S 0.0347 0.08619 0.5788 0.0
N1778 N 0.07513 0.08705 0.54674 0.0
N1779 N 0.03915 0.08882 0.66154 0.0
C1780 C 0.07486 0.09051 0.66644 0.0
C1781 C 0.09433 0.08949 0.60412 0.0
C1782 C 0.87232 0.84939 0.32524 0.0
C1783 C 0.83553 0.84735 0.32579 0.0
C1784 C 0.89146 0.85066 0.38644 0.0
C1785 C 0.87474 0.8499 0.45101 0.0
H1786 H 0.88621 0.85069 0.27738 0.0
H1787 H 0.91965 0.85265 0.38271 0.0
S1788 S 0.77942 0.84286 0.48029 0.0
N1789 N 0.78344 0.84325 0.39653 0.0
N1790 N 0.81956 0.84572 0.51092 0.0
C1791 C 0.83831 0.84706 0.45221 0.0
C1792 C 0.81873 0.84578 0.38986 0.0
C1793 C 0.8763 0.99179 0.40219 0.0
C1794 C 0.84117 0.99646 0.39988 0.0
C1795 C 0.89564 0.9895 0.34204 0.0
C1796 C 0.88074 0.99175 0.27683 0.0
H1797 H 0.88837 0.98917 0.45047 0.0
H1798 H 0.92225 0.98545 0.34707 0.0
S1799 S 0.79124 1.00584 0.24334 0.0
N1800 N 0.79341 1.00473 0.32716 0.0
N1801 N 0.82978 1.00023 0.21453 0.0
C1802 C 0.84639 0.99722 0.274 0.0
C1803 C 0.82667 0.99962 0.33533 0.0
C1804 C 0.13169 0.7466 0.02393 0.0
C1805 C 0.09502 0.74424 0.02585 0.0
C1806 C 0.15105 0.74888 0.08428 0.0
C1807 C 0.13468 0.7489 0.14936 0.0
H1808 H 0.14586 0.74602 0.97596 0.0
H1809 H 0.17954 0.75001 0.07982 0.0
S1810 S 0.0382 0.74561 0.18132 0.0
N1811 N 0.04221 0.74392 0.09792 0.0
N1812 N 0.0788 0.74801 0.21042 0.0
C1813 C 0.09766 0.74761 0.15143 0.0
C1814 C 0.07786 0.7453 0.09003 0.0
C1815 C 0.14183 0.58922 0.20261 0.0
C1816 C 0.10471 0.58864 0.20276 0.0
C1817 C 0.16077 0.58946 0.14103 0.0
C1818 C 0.14341 0.58925 0.07704 0.0
H1819 H 0.15625 0.59054 0.24993 0.0
H1820 H 0.18928 0.59075 0.14396 0.0
S1821 S 0.04698 0.58451 0.05015 0.0
N1822 N 0.05157 0.58528 0.13378 0.0
N1823 N 0.08736 0.58605 0.01843 0.0
C1824 C 0.10665 0.58716 0.07664 0.0
C1825 C 0.08729 0.5868 0.13942 0.0
C1826 C 0.90541 0.3481 0.86787 0.0
C1827 C 0.88955 0.34663 0.9329 0.0
C1828 C 0.88568 0.34687 0.80736 0.0
C1829 C 0.84922 0.34407 0.80924 0.0
H1830 H 0.93307 0.35094 0.86338 0.0
H1831 H 0.89857 0.3491 0.75935 0.0
S1832 S 0.79616 0.33677 0.96477 0.0
N1833 N 0.83609 0.34043 0.99425 0.0
N1834 N 0.79902 0.33789 0.88102 0.0
C1835 C 0.83373 0.34133 0.87344 0.0
C1836 C 0.85384 0.34266 0.93509 0.0
C1837 C 0.83276 0.50922 0.91796 0.0
C1838 C 0.84939 0.50822 0.98246 0.0
C1839 C 0.85189 0.50774 0.85689 0.0
C1840 C 0.88854 0.50533 0.85772 0.0
H1841 H 0.80422 0.51026 0.91428 0.0
H1842 H 0.83748 0.50759 0.80915 0.0
S1843 S 0.94608 0.50501 1.01193 0.0
N1844 N 0.90553 0.50685 0.04242 0.0
N1845 N 0.94178 0.50443 0.92825 0.0
C1846 C 0.90606 0.5058 0.92153 0.0
C1847 C 0.88647 0.50719 0.98371 0.0
C1848 C 0.58035 0.23433 0.17818 0.0
C1849 C 0.59639 0.23685 0.11423 0.0
C1850 C 0.59908 0.23594 0.23963 0.0
C1851 C 0.63461 0.24015 0.23956 0.0
H1852 H 0.55329 0.23065 0.18103 0.0
H1853 H 0.58625 0.23315 0.28697 0.0
S1854 S 0.68773 0.24977 0.08751 0.0
N1855 N 0.64908 0.24497 0.0559 0.0
N1856 N 0.68425 0.24808 0.1709 0.0
C1857 C 0.65038 0.24343 0.17642 0.0
C1858 C 0.63136 0.24175 0.11393 0.0
C1859 C 0.59469 0.1012 0.11015 0.0
C1860 C 0.63034 0.09717 0.11022 0.0
C1861 C 0.57551 0.10226 0.17124 0.0
C1862 C 0.59107 0.09932 0.2352 0.0
H1863 H 0.58183 0.10403 0.06294 0.0
H1864 H 0.54828 0.10573 0.16799 0.0
S1865 S 0.68277 0.08691 0.26243 0.0
N1866 N 0.67987 0.08912 0.17928 0.0
N1867 N 0.64367 0.09126 0.29369 0.0
C1868 C 0.62628 0.09474 0.23569 0.0
C1869 C 0.6459 0.09363 0.1734 0.0
C1870 C 0.39078 0.8359 0.9015 0.0
C1871 C 0.37321 0.83581 0.96528 0.0
C1872 C 0.37203 0.83554 0.83977 0.0
C1873 C 0.33488 0.83496 0.83913 0.0
H1874 H 0.41929 0.83719 0.89881 0.0
H1875 H 0.38668 0.8367 0.79267 0.0
S1876 S 0.27675 0.8309 0.99112 0.0
N1877 N 0.31701 0.83255 0.02322 0.0
N1878 N 0.28156 0.83161 0.90757 0.0
C1879 C 0.31727 0.8332 0.90226 0.0
C1880 C 0.33646 0.83366 0.96523 0.0
C1881 C 0.36671 0.99857 0.93311 0.0
C1882 C 0.32954 0.99926 0.93342 0.0
C1883 C 0.38537 0.99607 0.8724 0.0
C1884 C 0.36772 0.99442 0.80933 0.0
H1885 H 0.38142 0.999 0.98045 0.0
H1886 H 0.41388 0.99484 0.8756 0.0
S1887 S 0.27141 0.99877 0.78006 0.0
N1888 N 0.27625 1.00065 0.86322 0.0
N1889 N 0.31161 0.99599 0.74955 0.0
C1890 C 0.33105 0.99665 0.80775 0.0
C1891 C 0.31193 0.99911 0.86967 0.0
C1892 C 0.6284 0.74545 0.55933 0.0
C1893 C 0.59126 0.74608 0.56063 0.0
C1894 C 0.64816 0.74602 0.62012 0.0
C1895 C 0.63165 0.74715 0.68487 0.0
H1896 H 0.64218 0.74361 0.51169 0.0
H1897 H 0.67664 0.74476 0.61621 0.0
S1898 S 0.53537 0.7519 0.71463 0.0
N1899 N 0.53897 0.75008 0.63121 0.0
N1900 N 0.57613 0.75082 0.74481 0.0
C1901 C 0.59478 0.749 0.68618 0.0
C1902 C 0.57464 0.74853 0.6243 0.0
C1903 C 0.59734 0.59217 0.7181 0.0
C1904 C 0.61362 0.59285 0.78296 0.0
C1905 C 0.61725 0.59231 0.65764 0.0
C1906 C 0.65439 0.59318 0.65929 0.0
H1907 H 0.5687 0.5921 0.71361 0.0
H1908 H 0.60326 0.59249 0.60946 0.0
S1909 S 0.71038 0.59287 0.8156 0.0
N1910 N 0.6693 0.59276 0.84482 0.0
N1911 N 0.70699 0.59288 0.73171 0.0
C1912 C 0.67117 0.59274 0.72382 0.0
C1913 C 0.65077 0.5926 0.78547 0.0
C1914 C 0.35312 0.3339 0.45083 0.0
C1915 C 0.38988 0.33163 0.44898 0.0
C1916 C 0.3331 0.33462 0.3904 0.0
C1917 C 0.34882 0.33314 0.32512 0.0
H1918 H 0.34002 0.33602 0.49888 0.0
H1919 H 0.30518 0.33706 0.39519 0.0
S1920 S 0.44299 0.32445 0.29251 0.0
N1921 N 0.4403 0.32582 0.37626 0.0
N1922 N 0.40267 0.3275 0.2635 0.0
C1923 C 0.38492 0.32972 0.32281 0.0
C1924 C 0.40536 0.32887 0.3844 0.0
C1925 C 0.3446 0.48611 0.43266 0.0
C1926 C 0.3611 0.48635 0.49749 0.0
C1927 C 0.36408 0.48749 0.37204 0.0
C1928 C 0.40101 0.48913 0.37346 0.0
H1929 H 0.31631 0.4844 0.4282 0.0
H1930 H 0.35033 0.48645 0.32383 0.0
S1931 S 0.45669 0.49239 0.52923 0.0
N1932 N 0.41625 0.4898 0.55888 0.0
N1933 N 0.45303 0.49242 0.44537 0.0
C1934 C 0.4176 0.49031 0.43791 0.0
C1935 C 0.39767 0.48892 0.49973 0.0
loop_
_geom_bond_atom_site_label_1
_geom_bond_atom_site_label_2
_geom_bond_distance
_geom_bond_site_symmetry_2
_ccdc_geom_bond_type
C0 C1 1.351 . S
C0 N3 1.368 . S
C0 H5 0.931 . S
C1 C0 1.351 . S
C1 N2 1.373 . S
C1 H29 0.930 . S
N2 C1 1.373 . S
N2 C4 1.340 . S
N3 C0 1.368 . S
N3 C4 1.321 . S
N3 Co6 2.135 . S
C4 N2 1.340 . S
C4 N3 1.321 . S
C4 H28 0.930 . S
H5 C0 0.931 . S
Co6 N3 2.135 . S
Co6 N9 2.121 . S
Co6 O14 2.055 . S
Co6 O17 2.039 . S
Co6 N20 2.140 . S
C7 O8 1.227 . S
C7 O17 1.265 . S
O8 C7 1.227 . S
N9 Co6 2.121 . S
N9 C11 1.375 . S
N9 C12 1.313 . S
C10 C11 1.338 . S
C10 N13 1.377 . S
C10 H30 0.930 . S
C11 N9 1.375 . S
C11 C10 1.338 . S
C11 H15 0.931 . S
C12 N9 1.313 . S
C12 N13 1.344 . S
C12 H16 0.930 . S
N13 C10 1.377 . S
N13 C12 1.344 . S
O14 Co6 2.055 . S
O14 C18 1.253 . S
H15 C11 0.931 . S
H16 C12 0.930 . S
O17 Co6 2.039 . S
O17 C7 1.265 . S
C18 O14 1.253 . S
C18 O19 1.227 . S
O19 C18 1.227 . S
N20 Co6 2.140 . S
N20 C23 1.346 1_455 S
N20 C24 1.345 1_455 S
C21 C22 1.387 . S
C21 C25 1.391 . S
C22 C21 1.387 . S
C22 C23 1.369 . S
C22 H31 0.929 . S
C23 N20 1.346 1_655 S
C23 C22 1.369 . S
C23 H26 0.928 1_655 S
C24 N20 1.345 1_655 S
C24 C25 1.371 . S
C24 H27 0.931 1_655 S
C25 C21 1.391 . S
C25 C24 1.371 . S
C25 H32 0.930 . S
H26 C23 0.928 1_455 S
H27 C24 0.931 1_455 S
H28 C4 0.930 . S
H29 C1 0.930 . S
H30 C10 0.930 . S
H31 C22 0.929 . S
H32 C25 0.930 . S
C33 C34 1.351 . S
C33 N36 1.368 . S
C33 H38 0.931 . S
C34 C33 1.351 . S
C34 N35 1.373 . S
C34 H62 0.930 . S
N35 C34 1.373 . S
N35 C37 1.340 . S
N36 C33 1.368 . S
N36 C37 1.321 . S
N36 Co39 2.135 . S
C37 N35 1.340 . S
C37 N36 1.321 . S
C37 H61 0.930 . S
H38 C33 0.931 . S
Co39 N36 2.135 . S
Co39 N42 2.121 . S
Co39 O47 2.055 . S
Co39 O50 2.039 . S
Co39 N53 2.140 . S
C40 O41 1.227 . S
C40 O50 1.265 . S
O41 C40 1.227 . S
N42 Co39 2.121 . S
N42 C44 1.375 . S
N42 C45 1.313 . S
C43 C44 1.338 . S
C43 N46 1.377 . S
C43 H63 0.930 . S
C44 N42 1.375 . S
C44 C43 1.338 . S
C44 H48 0.931 . S
C45 N42 1.313 . S
C45 N46 1.344 . S
C45 H49 0.930 . S
N46 C43 1.377 . S
N46 C45 1.344 . S
O47 Co39 2.055 . S
O47 C51 1.253 . S
H48 C44 0.931 . S
H49 C45 0.930 . S
O50 Co39 2.039 . S
O50 C40 1.265 . S
C51 O47 1.253 . S
C51 O52 1.227 . S
O52 C51 1.227 . S
N53 Co39 2.140 . S
N53 C56 1.346 . S
N53 C57 1.345 . S
C54 C55 1.387 . S
C54 C58 1.391 . S
C55 C54 1.387 . S
C55 C56 1.369 . S
C55 H64 0.929 . S
C56 N53 1.346 . S
C56 C55 1.369 . S
C56 H59 0.928 . S
C57 N53 1.345 . S
C57 C58 1.371 . S
C57 H60 0.931 . S
C58 C54 1.391 . S
C58 C57 1.371 . S
C58 H65 0.930 . S
H59 C56 0.928 . S
H60 C57 0.931 . S
H61 C37 0.930 . S
H62 C34 0.930 . S
H63 C43 0.930 . S
H64 C55 0.929 . S
H65 C58 0.930 . S
C66 C67 1.351 . S
C66 N69 1.368 . S
C66 H71 0.931 . S
C67 C66 1.351 . S
C67 N68 1.373 . S
C67 H95 0.930 . S
N68 C67 1.373 . S
N68 C70 1.340 . S
N69 C66 1.368 . S
N69 C70 1.321 . S
N69 Co72 2.135 . S
C70 N68 1.340 . S
C70 N69 1.321 . S
C70 H94 0.930 . S
H71 C66 0.931 . S
Co72 N69 2.135 . S
Co72 N75 2.121 . S
Co72 O80 2.055 . S
Co72 O83 2.039 . S
Co72 N86 2.140 . S
C73 O74 1.227 . S
C73 O83 1.265 1_554 S
O74 C73 1.227 . S
N75 Co72 2.121 . S
N75 C77 1.375 . S
N75 C78 1.313 . S
C76 C77 1.338 . S
C76 N79 1.377 . S
C76 H96 0.930 . S
C77 N75 1.375 . S
C77 C76 1.338 . S
C77 H81 0.931 . S
C78 N75 1.313 . S
C78 N79 1.344 . S
C78 H82 0.930 . S
N79 C76 1.377 . S
N79 C78 1.344 . S
O80 Co72 2.055 . S
O80 C84 1.253 . S
H81 C77 0.931 . S
H82 C78 0.930 . S
O83 Co72 2.039 . S
O83 C73 1.265 1_556 S
C84 O80 1.253 . S
C84 O85 1.227 . S
O85 C84 1.227 . S
N86 Co72 2.140 . S
N86 C89 1.346 1_455 S
N86 C90 1.345 1_455 S
C87 C88 1.387 . S
C87 C91 1.391 . S
C88 C87 1.387 . S
C88 C89 1.369 . S
C88 H97 0.929 . S
C89 N86 1.346 1_655 S
C89 C88 1.369 . S
C89 H92 0.928 1_655 S
C90 N86 1.345 1_655 S
C90 C91 1.371 . S
C90 H93 0.931 1_655 S
C91 C87 1.391 . S
C91 C90 1.371 . S
C91 H98 0.930 . S
H92 C89 0.928 1_455 S
H93 C90 0.931 1_455 S
H94 C70 0.930 . S
H95 C67 0.930 . S
H96 C76 0.930 . S
H97 C88 0.929 . S
H98 C91 0.930 . S
C99 C100 1.351 . S
C99 N102 1.368 . S
C99 H104 0.931 . S
C100 C99 1.351 . S
C100 N101 1.373 . S
C100 H128 0.930 . S
N101 C100 1.373 . S
N101 C103 1.340 . S
N102 C99 1.368 . S
N102 C103 1.321 . S
N102 Co105 2.135 . S
C103 N101 1.340 . S
C103 N102 1.321 . S
C103 H127 0.930 . S
H104 C99 0.931 . S
Co105 N102 2.135 . S
Co105 N108 2.121 . S
Co105 O113 2.055 . S
Co105 O116 2.039 . S
Co105 N119 2.140 . S
C106 O107 1.227 . S
C106 O116 1.265 1_554 S
O107 C106 1.227 . S
N108 Co105 2.121 . S
N108 C110 1.375 . S
N108 C111 1.313 . S
C109 C110 1.338 . S
C109 N112 1.377 . S
C109 H129 0.930 . S
C110 N108 1.375 . S
C110 C109 1.338 . S
C110 H114 0.931 . S
C111 N108 1.313 . S
C111 N112 1.344 . S
C111 H115 0.930 . S
N112 C109 1.377 . S
N112 C111 1.344 . S
O113 Co105 2.055 . S
O113 C117 1.253 . S
H114 C110 0.931 . S
H115 C111 0.930 . S
O116 Co105 2.039 . S
O116 C106 1.265 1_556 S
C117 O113 1.253 . S
C117 O118 1.227 . S
O118 C117 1.227 . S
N119 Co105 2.140 . S
N119 C122 1.346 . S
N119 C123 1.345 . S
C120 C121 1.387 . S
C120 C124 1.391 . S
C121 C120 1.387 . S
C121 C122 1.369 . S
C121 H130 0.929 . S
C122 N119 1.346 . S
C122 C121 1.369 . S
C122 H125 0.928 . S
C123 N119 1.345 . S
C123 C124 1.371 . S
C123 H126 0.931 . S
C124 C120 1.391 . S
C124 C123 1.371 . S
C124 H131 0.930 . S
H125 C122 0.928 . S
H126 C123 0.931 . S
H127 C103 0.930 . S
H128 C100 0.930 . S
H129 C109 0.930 . S
H130 C121 0.929 . S
H131 C124 0.930 . S
C132 C133 1.351 . S
C132 N135 1.368 . S
C132 H137 0.931 . S
C133 C132 1.351 . S
C133 N134 1.373 . S
C133 H161 0.930 . S
N134 C133 1.373 . S
N134 C136 1.340 . S
N135 C132 1.368 . S
N135 C136 1.321 . S
N135 Co138 2.135 . S
C136 N134 1.340 . S
C136 N135 1.321 . S
C136 H160 0.930 . S
H137 C132 0.931 . S
Co138 N135 2.135 . S
Co138 N141 2.121 . S
Co138 O146 2.055 . S
Co138 O149 2.039 . S
Co138 N152 2.140 . S
C139 O140 1.227 . S
C139 O149 1.265 . S
O140 C139 1.227 . S
N141 Co138 2.121 . S
N141 C143 1.375 . S
N141 C144 1.313 . S
C142 C143 1.338 . S
C142 N145 1.377 . S
C142 H162 0.930 . S
C143 N141 1.375 . S
C143 C142 1.338 . S
C143 H147 0.931 . S
C144 N141 1.313 . S
C144 N145 1.344 . S
C144 H148 0.930 . S
N145 C142 1.377 . S
N145 C144 1.344 . S
O146 Co138 2.055 . S
O146 C150 1.253 . S
H147 C143 0.931 . S
H148 C144 0.930 . S
O149 Co138 2.039 . S
O149 C139 1.265 . S
C150 O146 1.253 . S
C150 O151 1.227 . S
O151 C150 1.227 . S
N152 Co138 2.140 . S
N152 C155 1.346 1_655 S
N152 C156 1.345 1_655 S
C153 C154 1.387 . S
C153 C157 1.391 . S
C154 C153 1.387 . S
C154 C155 1.369 . S
C154 H163 0.929 . S
C155 N152 1.346 1_455 S
C155 C154 1.369 . S
C155 H158 0.928 1_455 S
C156 N152 1.345 1_455 S
C156 C157 1.371 . S
C156 H159 0.931 1_455 S
C157 C153 1.391 . S
C157 C156 1.371 . S
C157 H164 0.930 . S
H158 C155 0.928 1_655 S
H159 C156 0.931 1_655 S
H160 C136 0.930 . S
H161 C133 0.930 . S
H162 C142 0.930 . S
H163 C154 0.929 . S
H164 C157 0.930 . S
C165 C166 1.351 . S
C165 N168 1.368 . S
C165 H170 0.931 . S
C166 C165 1.351 . S
C166 N167 1.373 . S
C166 H194 0.930 . S
N167 C166 1.373 . S
N167 C169 1.340 . S
N168 C165 1.368 . S
N168 C169 1.321 . S
N168 Co171 2.135 . S
C169 N167 1.340 . S
C169 N168 1.321 . S
C169 H193 0.930 . S
H170 C165 0.931 . S
Co171 N168 2.135 . S
Co171 N174 2.121 . S
Co171 O179 2.055 . S
Co171 O182 2.039 . S
Co171 N185 2.140 . S
C172 O173 1.227 . S
C172 O182 1.265 . S
O173 C172 1.227 . S
N174 Co171 2.121 . S
N174 C176 1.375 . S
N174 C177 1.313 . S
C175 C176 1.338 . S
C175 N178 1.377 . S
C175 H195 0.930 . S
C176 N174 1.375 . S
C176 C175 1.338 . S
C176 H180 0.931 . S
C177 N174 1.313 . S
C177 N178 1.344 . S
C177 H181 0.930 . S
N178 C175 1.377 . S
N178 C177 1.344 . S
O179 Co171 2.055 . S
O179 C183 1.253 . S
H180 C176 0.931 . S
H181 C177 0.930 . S
O182 Co171 2.039 . S
O182 C172 1.265 . S
C183 O179 1.253 . S
C183 O184 1.227 . S
O184 C183 1.227 . S
N185 Co171 2.140 . S
N185 C188 1.346 . S
N185 C189 1.345 . S
C186 C187 1.387 . S
C186 C190 1.391 . S
C187 C186 1.387 . S
C187 C188 1.369 . S
C187 H196 0.929 . S
C188 N185 1.346 . S
C188 C187 1.369 . S
C188 H191 0.928 . S
C189 N185 1.345 . S
C189 C190 1.371 . S
C189 H192 0.931 . S
C190 C186 1.391 . S
C190 C189 1.371 . S
C190 H197 0.930 . S
H191 C188 0.928 . S
H192 C189 0.931 . S
H193 C169 0.930 . S
H194 C166 0.930 . S
H195 C175 0.930 . S
H196 C187 0.929 . S
H197 C190 0.930 . S
C198 C199 1.351 . S
C198 N201 1.368 . S
C198 H203 0.931 . S
C199 C198 1.351 . S
C199 N200 1.373 . S
C199 H227 0.930 . S
N200 C199 1.373 . S
N200 C202 1.340 . S
N201 C198 1.368 . S
N201 C202 1.321 . S
N201 Co204 2.135 . S
C202 N200 1.340 . S
C202 N201 1.321 . S
C202 H226 0.930 . S
H203 C198 0.931 . S
Co204 N201 2.135 . S
Co204 N207 2.121 . S
Co204 O212 2.055 . S
Co204 O215 2.039 . S
Co204 N218 2.140 . S
C205 O206 1.227 . S
C205 O215 1.265 1_556 S
O206 C205 1.227 . S
N207 Co204 2.121 . S
N207 C209 1.375 . S
N207 C210 1.313 . S
C208 C209 1.338 . S
C208 N211 1.377 . S
C208 H228 0.930 . S
C209 N207 1.375 . S
C209 C208 1.338 . S
C209 H213 0.931 . S
C210 N207 1.313 . S
C210 N211 1.344 . S
C210 H214 0.930 . S
N211 C208 1.377 . S
N211 C210 1.344 . S
O212 Co204 2.055 . S
O212 C216 1.253 . S
H213 C209 0.931 . S
H214 C210 0.930 . S
O215 Co204 2.039 . S
O215 C205 1.265 1_554 S
C216 O212 1.253 . S
C216 O217 1.227 . S
O217 C216 1.227 . S
N218 Co204 2.140 . S
N218 C221 1.346 1_655 S
N218 C222 1.345 1_655 S
C219 C220 1.387 . S
C219 C223 1.391 . S
C220 C219 1.387 . S
C220 C221 1.369 . S
C220 H229 0.929 . S
C221 N218 1.346 1_455 S
C221 C220 1.369 . S
C221 H224 0.928 1_455 S
C222 N218 1.345 1_455 S
C222 C223 1.371 . S
C222 H225 0.931 1_455 S
C223 C219 1.391 . S
C223 C222 1.371 . S
C223 H230 0.930 . S
H224 C221 0.928 1_655 S
H225 C222 0.931 1_655 S
H226 C202 0.930 . S
H227 C199 0.930 . S
H228 C208 0.930 . S
H229 C220 0.929 . S
H230 C223 0.930 . S
C231 C232 1.351 . S
C231 N234 1.368 . S
C231 H236 0.931 . S
C232 C231 1.351 . S
C232 N233 1.373 . S
C232 H260 0.930 . S
N233 C232 1.373 . S
N233 C235 1.340 . S
N234 C231 1.368 . S
N234 C235 1.321 . S
N234 Co237 2.135 . S
C235 N233 1.340 . S
C235 N234 1.321 . S
C235 H259 0.930 . S
H236 C231 0.931 . S
Co237 N234 2.135 . S
Co237 N240 2.121 . S
Co237 O245 2.055 . S
Co237 O248 2.039 . S
Co237 N251 2.140 . S
C238 O239 1.227 . S
C238 O248 1.265 1_556 S
O239 C238 1.227 . S
N240 Co237 2.121 . S
N240 C242 1.375 . S
N240 C243 1.313 . S
C241 C242 1.338 . S
C241 N244 1.377 . S
C241 H261 0.930 . S
C242 N240 1.375 . S
C242 C241 1.338 . S
C242 H246 0.931 . S
C243 N240 1.313 . S
C243 N244 1.344 . S
C243 H247 0.930 . S
N244 C241 1.377 . S
N244 C243 1.344 . S
O245 Co237 2.055 . S
O245 C249 1.253 . S
H246 C242 0.931 . S
H247 C243 0.930 . S
O248 Co237 2.039 . S
O248 C238 1.265 1_554 S
C249 O245 1.253 . S
C249 O250 1.227 . S
O250 C249 1.227 . S
N251 Co237 2.140 . S
N251 C254 1.346 . S
N251 C255 1.345 . S
C252 C253 1.387 . S
C252 C256 1.391 . S
C253 C252 1.387 . S
C253 C254 1.369 . S
C253 H262 0.929 . S
C254 N251 1.346 . S
C254 C253 1.369 . S
C254 H257 0.928 . S
C255 N251 1.345 . S
C255 C256 1.371 . S
C255 H258 0.931 . S
C256 C252 1.391 . S
C256 C255 1.371 . S
C256 H263 0.930 . S
H257 C254 0.928 . S
H258 C255 0.931 . S
H259 C235 0.930 . S
H260 C232 0.930 . S
H261 C241 0.930 . S
H262 C253 0.929 . S
H263 C256 0.930 . S
C264 C265 1.351 . S
C264 N267 1.368 . S
C264 H269 0.931 . S
C265 C264 1.351 . S
C265 N266 1.373 . S
C265 H293 0.930 . S
N266 C265 1.373 . S
N266 C268 1.340 . S
N267 C264 1.368 . S
N267 C268 1.321 . S
N267 Co270 2.135 . S
C268 N266 1.340 . S
C268 N267 1.321 . S
C268 H292 0.930 . S
H269 C264 0.931 . S
Co270 N267 2.135 . S
Co270 N273 2.121 . S
Co270 O278 2.055 . S
Co270 O281 2.039 . S
Co270 N284 2.140 . S
C271 O272 1.227 . S
C271 O281 1.265 . S
O272 C271 1.227 . S
N273 Co270 2.121 . S
N273 C275 1.375 . S
N273 C276 1.313 . S
C274 C275 1.338 . S
C274 N277 1.377 . S
C274 H294 0.930 . S
C275 N273 1.375 . S
C275 C274 1.338 . S
C275 H279 0.931 . S
C276 N273 1.313 . S
C276 N277 1.344 . S
C276 H280 0.930 . S
N277 C274 1.377 . S
N277 C276 1.344 . S
O278 Co270 2.055 . S
O278 C282 1.253 . S
H279 C275 0.931 . S
H280 C276 0.930 . S
O281 Co270 2.039 . S
O281 C271 1.265 . S
C282 O278 1.253 . S
C282 O283 1.227 . S
O283 C282 1.227 . S
N284 Co270 2.140 . S
N284 C287 1.346 1_455 S
N284 C288 1.345 1_455 S
C285 C286 1.387 . S
C285 C289 1.391 . S
C286 C285 1.387 . S
C286 C287 1.369 . S
C286 H295 0.929 . S
C287 N284 1.346 1_655 S
C287 C286 1.369 . S
C287 H290 0.928 1_655 S
C288 N284 1.345 1_655 S
C288 C289 1.371 . S
C288 H291 0.931 1_655 S
C289 C285 1.391 . S
C289 C288 1.371 . S
C289 H296 0.930 . S
H290 C287 0.928 1_455 S
H291 C288 0.931 1_455 S
H292 C268 0.930 . S
H293 C265 0.930 . S
H294 C274 0.930 . S
H295 C286 0.929 . S
H296 C289 0.930 . S
C297 C298 1.351 . S
C297 N300 1.368 . S
C297 H302 0.931 . S
C298 C297 1.351 . S
C298 N299 1.373 . S
C298 H326 0.930 . S
N299 C298 1.373 . S
N299 C301 1.340 . S
N300 C297 1.368 . S
N300 C301 1.321 . S
N300 Co303 2.135 . S
C301 N299 1.340 . S
C301 N300 1.321 . S
C301 H325 0.930 . S
H302 C297 0.931 . S
Co303 N300 2.135 . S
Co303 N306 2.121 . S
Co303 O311 2.055 . S
Co303 O314 2.039 . S
Co303 N317 2.140 . S
C304 O305 1.227 . S
C304 O314 1.265 . S
O305 C304 1.227 . S
N306 Co303 2.121 . S
N306 C308 1.375 . S
N306 C309 1.313 . S
C307 C308 1.338 . S
C307 N310 1.377 . S
C307 H327 0.930 . S
C308 N306 1.375 . S
C308 C307 1.338 . S
C308 H312 0.931 . S
C309 N306 1.313 . S
C309 N310 1.344 . S
C309 H313 0.930 . S
N310 C307 1.377 . S
N310 C309 1.344 . S
O311 Co303 2.055 . S
O311 C315 1.253 . S
H312 C308 0.931 . S
H313 C309 0.930 . S
O314 Co303 2.039 . S
O314 C304 1.265 . S
C315 O311 1.253 . S
C315 O316 1.227 . S
O316 C315 1.227 . S
N317 Co303 2.140 . S
N317 C320 1.346 . S
N317 C321 1.345 . S
C318 C319 1.387 . S
C318 C322 1.391 . S
C319 C318 1.387 . S
C319 C320 1.369 . S
C319 H328 0.929 . S
C320 N317 1.346 . S
C320 C319 1.369 . S
C320 H323 0.928 . S
C321 N317 1.345 . S
C321 C322 1.371 . S
C321 H324 0.931 . S
C322 C318 1.391 . S
C322 C321 1.371 . S
C322 H329 0.930 . S
H323 C320 0.928 . S
H324 C321 0.931 . S
H325 C301 0.930 . S
H326 C298 0.930 . S
H327 C307 0.930 . S
H328 C319 0.929 . S
H329 C322 0.930 . S
C330 C331 1.351 . S
C330 N333 1.368 . S
C330 H335 0.931 . S
C331 C330 1.351 . S
C331 N332 1.373 . S
C331 H359 0.930 . S
N332 C331 1.373 . S
N332 C334 1.340 . S
N333 C330 1.368 . S
N333 C334 1.321 . S
N333 Co336 2.135 . S
C334 N332 1.340 . S
C334 N333 1.321 . S
C334 H358 0.930 . S
H335 C330 0.931 . S
Co336 N333 2.135 . S
Co336 N339 2.121 . S
Co336 O344 2.055 . S
Co336 O347 2.039 . S
Co336 N350 2.140 . S
C337 O338 1.227 . S
C337 O347 1.265 . S
O338 C337 1.227 . S
N339 Co336 2.121 . S
N339 C341 1.375 . S
N339 C342 1.313 . S
C340 C341 1.338 . S
C340 N343 1.377 . S
C340 H360 0.930 . S
C341 N339 1.375 . S
C341 C340 1.338 . S
C341 H345 0.931 . S
C342 N339 1.313 . S
C342 N343 1.344 . S
C342 H346 0.930 . S
N343 C340 1.377 . S
N343 C342 1.344 . S
O344 Co336 2.055 . S
O344 C348 1.253 . S
H345 C341 0.931 . S
H346 C342 0.930 . S
O347 Co336 2.039 . S
O347 C337 1.265 . S
C348 O344 1.253 . S
C348 O349 1.227 . S
O349 C348 1.227 . S
N350 Co336 2.140 . S
N350 C353 1.346 1_455 S
N350 C354 1.345 1_455 S
C351 C352 1.387 . S
C351 C355 1.391 . S
C352 C351 1.387 . S
C352 C353 1.369 . S
C352 H361 0.929 . S
C353 N350 1.346 1_655 S
C353 C352 1.369 . S
C353 H356 0.928 1_655 S
C354 N350 1.345 1_655 S
C354 C355 1.371 . S
C354 H357 0.931 1_655 S
C355 C351 1.391 . S
C355 C354 1.371 . S
C355 H362 0.930 . S
H356 C353 0.928 1_455 S
H357 C354 0.931 1_455 S
H358 C334 0.930 . S
H359 C331 0.930 . S
H360 C340 0.930 . S
H361 C352 0.929 . S
H362 C355 0.930 . S
C363 C364 1.351 . S
C363 N366 1.368 . S
C363 H368 0.931 . S
C364 C363 1.351 . S
C364 N365 1.373 . S
C364 H392 0.930 . S
N365 C364 1.373 . S
N365 C367 1.340 . S
N366 C363 1.368 . S
N366 C367 1.321 . S
N366 Co369 2.135 . S
C367 N365 1.340 . S
C367 N366 1.321 . S
C367 H391 0.930 . S
H368 C363 0.931 . S
Co369 N366 2.135 . S
Co369 N372 2.121 . S
Co369 O377 2.055 . S
Co369 O380 2.039 . S
Co369 N383 2.140 . S
C370 O371 1.227 . S
C370 O380 1.265 . S
O371 C370 1.227 . S
N372 Co369 2.121 . S
N372 C374 1.375 . S
N372 C375 1.313 . S
C373 C374 1.338 . S
C373 N376 1.377 . S
C373 H393 0.930 . S
C374 N372 1.375 . S
C374 C373 1.338 . S
C374 H378 0.931 . S
C375 N372 1.313 . S
C375 N376 1.344 . S
C375 H379 0.930 . S
N376 C373 1.377 . S
N376 C375 1.344 . S
O377 Co369 2.055 . S
O377 C381 1.253 . S
H378 C374 0.931 . S
H379 C375 0.930 . S
O380 Co369 2.039 . S
O380 C370 1.265 . S
C381 O377 1.253 . S
C381 O382 1.227 . S
O382 C381 1.227 . S
N383 Co369 2.140 . S
N383 C386 1.346 . S
N383 C387 1.345 . S
C384 C385 1.387 . S
C384 C388 1.391 . S
C385 C384 1.387 . S
C385 C386 1.369 . S
C385 H394 0.929 . S
C386 N383 1.346 . S
C386 C385 1.369 . S
C386 H389 0.928 . S
C387 N383 1.345 . S
C387 C388 1.371 . S
C387 H390 0.931 . S
C388 C384 1.391 . S
C388 C387 1.371 . S
C388 H395 0.930 . S
H389 C386 0.928 . S
H390 C387 0.931 . S
H391 C367 0.930 . S
H392 C364 0.930 . S
H393 C373 0.930 . S
H394 C385 0.929 . S
H395 C388 0.930 . S
C396 C397 1.351 . S
C396 N399 1.368 . S
C396 H401 0.931 . S
C397 C396 1.351 . S
C397 N398 1.373 . S
C397 H425 0.930 . S
N398 C397 1.373 . S
N398 C400 1.340 . S
N399 C396 1.368 . S
N399 C400 1.321 . S
N399 Co402 2.135 . S
C400 N398 1.340 . S
C400 N399 1.321 . S
C400 H424 0.930 . S
H401 C396 0.931 . S
Co402 N399 2.135 . S
Co402 N405 2.121 . S
Co402 O410 2.055 . S
Co402 O413 2.039 . S
Co402 N416 2.140 . S
C403 O404 1.227 . S
C403 O413 1.265 . S
O404 C403 1.227 . S
N405 Co402 2.121 . S
N405 C407 1.375 . S
N405 C408 1.313 . S
C406 C407 1.338 . S
C406 N409 1.377 . S
C406 H426 0.930 . S
C407 N405 1.375 . S
C407 C406 1.338 . S
C407 H411 0.931 . S
C408 N405 1.313 . S
C408 N409 1.344 . S
C408 H412 0.930 . S
N409 C406 1.377 . S
N409 C408 1.344 . S
O410 Co402 2.055 . S
O410 C414 1.253 . S
H411 C407 0.931 . S
H412 C408 0.930 . S
O413 Co402 2.039 . S
O413 C403 1.265 . S
C414 O410 1.253 . S
C414 O415 1.227 . S
O415 C414 1.227 . S
N416 Co402 2.140 . S
N416 C419 1.346 1_655 S
N416 C420 1.345 1_655 S
C417 C418 1.387 . S
C417 C421 1.391 . S
C418 C417 1.387 . S
C418 C419 1.369 . S
C418 H427 0.929 . S
C419 N416 1.346 1_455 S
C419 C418 1.369 . S
C419 H422 0.928 1_455 S
C420 N416 1.345 1_455 S
C420 C421 1.371 . S
C420 H423 0.931 1_455 S
C421 C417 1.391 . S
C421 C420 1.371 . S
C421 H428 0.930 . S
H422 C419 0.928 1_655 S
H423 C420 0.931 1_655 S
H424 C400 0.930 . S
H425 C397 0.930 . S
H426 C406 0.930 . S
H427 C418 0.929 . S
H428 C421 0.930 . S
C429 C430 1.351 . S
C429 N432 1.368 . S
C429 H434 0.931 . S
C430 C429 1.351 . S
C430 N431 1.373 . S
C430 H458 0.930 . S
N431 C430 1.373 . S
N431 C433 1.340 . S
N432 C429 1.368 . S
N432 C433 1.321 . S
N432 Co435 2.135 . S
C433 N431 1.340 . S
C433 N432 1.321 . S
C433 H457 0.930 . S
H434 C429 0.931 . S
Co435 N432 2.135 . S
Co435 N438 2.121 . S
Co435 O443 2.055 . S
Co435 O446 2.039 . S
Co435 N449 2.140 . S
C436 O437 1.227 . S
C436 O446 1.265 . S
O437 C436 1.227 . S
N438 Co435 2.121 . S
N438 C440 1.375 . S
N438 C441 1.313 . S
C439 C440 1.338 . S
C439 N442 1.377 . S
C439 H459 0.930 . S
C440 N438 1.375 . S
C440 C439 1.338 . S
C440 H444 0.931 . S
C441 N438 1.313 . S
C441 N442 1.344 . S
C441 H445 0.930 . S
N442 C439 1.377 . S
N442 C441 1.344 . S
O443 Co435 2.055 . S
O443 C447 1.253 . S
H444 C440 0.931 . S
H445 C441 0.930 . S
O446 Co435 2.039 . S
O446 C436 1.265 . S
C447 O443 1.253 . S
C447 O448 1.227 . S
O448 C447 1.227 . S
N449 Co435 2.140 . S
N449 C452 1.346 . S
N449 C453 1.345 . S
C450 C451 1.387 . S
C450 C454 1.391 . S
C451 C450 1.387 . S
C451 C452 1.369 . S
C451 H460 0.929 . S
C452 N449 1.346 . S
C452 C451 1.369 . S
C452 H455 0.928 . S
C453 N449 1.345 . S
C453 C454 1.371 . S
C453 H456 0.931 . S
C454 C450 1.391 . S
C454 C453 1.371 . S
C454 H461 0.930 . S
H455 C452 0.928 . S
H456 C453 0.931 . S
H457 C433 0.930 . S
H458 C430 0.930 . S
H459 C439 0.930 . S
H460 C451 0.929 . S
H461 C454 0.930 . S
C462 C463 1.351 . S
C462 N465 1.368 . S
C462 H467 0.931 . S
C463 C462 1.351 . S
C463 N464 1.373 . S
C463 H491 0.930 . S
N464 C463 1.373 . S
N464 C466 1.340 . S
N465 C462 1.368 . S
N465 C466 1.321 . S
N465 Co468 2.135 . S
C466 N464 1.340 . S
C466 N465 1.321 . S
C466 H490 0.930 . S
H467 C462 0.931 . S
Co468 N465 2.135 . S
Co468 N471 2.121 . S
Co468 O476 2.055 . S
Co468 O479 2.039 . S
Co468 N482 2.140 . S
C469 O470 1.227 . S
C469 O479 1.265 . S
O470 C469 1.227 . S
N471 Co468 2.121 . S
N471 C473 1.375 . S
N471 C474 1.313 . S
C472 C473 1.338 . S
C472 N475 1.377 . S
C472 H492 0.930 . S
C473 N471 1.375 . S
C473 C472 1.338 . S
C473 H477 0.931 . S
C474 N471 1.313 . S
C474 N475 1.344 . S
C474 H478 0.930 . S
N475 C472 1.377 . S
N475 C474 1.344 . S
O476 Co468 2.055 . S
O476 C480 1.253 . S
H477 C473 0.931 . S
H478 C474 0.930 . S
O479 Co468 2.039 . S
O479 C469 1.265 . S
C480 O476 1.253 . S
C480 O481 1.227 . S
O481 C480 1.227 . S
N482 Co468 2.140 . S
N482 C485 1.346 1_655 S
N482 C486 1.345 1_655 S
C483 C484 1.387 . S
C483 C487 1.391 . S
C484 C483 1.387 . S
C484 C485 1.369 . S
C484 H493 0.929 . S
C485 N482 1.346 1_455 S
C485 C484 1.369 . S
C485 H488 0.928 1_455 S
C486 N482 1.345 1_455 S
C486 C487 1.371 . S
C486 H489 0.931 1_455 S
C487 C483 1.391 . S
C487 C486 1.371 . S
C487 H494 0.930 . S
H488 C485 0.928 1_655 S
H489 C486 0.931 1_655 S
H490 C466 0.930 . S
H491 C463 0.930 . S
H492 C472 0.930 . S
H493 C484 0.929 . S
H494 C487 0.930 . S
C495 C496 1.351 . S
C495 N498 1.368 . S
C495 H500 0.931 . S
C496 C495 1.351 . S
C496 N497 1.373 . S
C496 H524 0.930 . S
N497 C496 1.373 . S
N497 C499 1.340 . S
N498 C495 1.368 . S
N498 C499 1.321 . S
N498 Co501 2.135 . S
C499 N497 1.340 . S
C499 N498 1.321 . S
C499 H523 0.930 . S
H500 C495 0.931 . S
Co501 N498 2.135 . S
Co501 N504 2.121 . S
Co501 O509 2.055 . S
Co501 O512 2.039 . S
Co501 N515 2.140 . S
C502 O503 1.227 . S
C502 O512 1.265 . S
O503 C502 1.227 . S
N504 Co501 2.121 . S
N504 C506 1.375 . S
N504 C507 1.313 . S
C505 C506 1.338 . S
C505 N508 1.377 . S
C505 H525 0.930 . S
C506 N504 1.375 . S
C506 C505 1.338 . S
C506 H510 0.931 . S
C507 N504 1.313 . S
C507 N508 1.344 . S
C507 H511 0.930 . S
N508 C505 1.377 . S
N508 C507 1.344 . S
O509 Co501 2.055 . S
O509 C513 1.253 . S
H510 C506 0.931 . S
H511 C507 0.930 . S
O512 Co501 2.039 . S
O512 C502 1.265 . S
C513 O509 1.253 . S
C513 O514 1.227 . S
O514 C513 1.227 . S
N515 Co501 2.140 . S
N515 C518 1.346 . S
N515 C519 1.345 . S
C516 C517 1.387 . S
C516 C520 1.391 . S
C517 C516 1.387 . S
C517 C518 1.369 . S
C517 H526 0.929 . S
C518 N515 1.346 . S
C518 C517 1.369 . S
C518 H521 0.928 . S
C519 N515 1.345 . S
C519 C520 1.371 . S
C519 H522 0.931 . S
C520 C516 1.391 . S
C520 C519 1.371 . S
C520 H527 0.930 . S
H521 C518 0.928 . S
H522 C519 0.931 . S
H523 C499 0.930 . S
H524 C496 0.930 . S
H525 C505 0.930 . S
H526 C517 0.929 . S
H527 C520 0.930 . S
C528 C529 1.351 . S
C528 N531 1.368 . S
C528 H533 0.931 . S
C529 C528 1.351 . S
C529 N530 1.373 . S
C529 H557 0.930 . S
N530 C529 1.373 . S
N530 C532 1.340 . S
N531 C528 1.368 . S
N531 C532 1.321 . S
N531 Co534 2.135 . S
C532 N530 1.340 . S
C532 N531 1.321 . S
C532 H556 0.930 . S
H533 C528 0.931 . S
Co534 N531 2.135 . S
Co534 N537 2.121 . S
Co534 O542 2.055 . S
Co534 O545 2.039 . S
Co534 N548 2.140 . S
C535 O536 1.227 . S
C535 O545 1.265 . S
O536 C535 1.227 . S
N537 Co534 2.121 . S
N537 C539 1.375 . S
N537 C540 1.313 . S
C538 C539 1.338 . S
C538 N541 1.377 . S
C538 H558 0.930 . S
C539 N537 1.375 . S
C539 C538 1.338 . S
C539 H543 0.931 . S
C540 N537 1.313 . S
C540 N541 1.344 . S
C540 H544 0.930 . S
N541 C538 1.377 . S
N541 C540 1.344 . S
O542 Co534 2.055 . S
O542 C546 1.253 . S
H543 C539 0.931 . S
H544 C540 0.930 . S
O545 Co534 2.039 . S
O545 C535 1.265 . S
C546 O542 1.253 . S
C546 O547 1.227 . S
O547 C546 1.227 . S
N548 Co534 2.140 . S
N548 C551 1.346 . S
N548 C552 1.345 . S
C549 C550 1.387 . S
C549 C553 1.391 . S
C550 C549 1.387 . S
C550 C551 1.369 . S
C550 H559 0.929 . S
C551 N548 1.346 . S
C551 C550 1.369 . S
C551 H554 0.928 . S
C552 N548 1.345 . S
C552 C553 1.371 . S
C552 H555 0.931 . S
C553 C549 1.391 . S
C553 C552 1.371 . S
C553 H560 0.930 . S
H554 C551 0.928 . S
H555 C552 0.931 . S
H556 C532 0.930 . S
H557 C529 0.930 . S
H558 C538 0.930 . S
H559 C550 0.929 . S
H560 C553 0.930 . S
C561 C562 1.351 . S
C561 N564 1.368 . S
C561 H566 0.931 . S
C562 C561 1.351 . S
C562 N563 1.373 . S
C562 H590 0.930 . S
N563 C562 1.373 . S
N563 C565 1.340 . S
N564 C561 1.368 . S
N564 C565 1.321 . S
N564 Co567 2.135 . S
C565 N563 1.340 . S
C565 N564 1.321 . S
C565 H589 0.930 . S
H566 C561 0.931 . S
Co567 N564 2.135 . S
Co567 N570 2.121 . S
Co567 O575 2.055 . S
Co567 O578 2.039 . S
Co567 N581 2.140 . S
C568 O569 1.227 . S
C568 O578 1.265 . S
O569 C568 1.227 . S
N570 Co567 2.121 . S
N570 C572 1.375 . S
N570 C573 1.313 . S
C571 C572 1.338 . S
C571 N574 1.377 . S
C571 H591 0.930 . S
C572 N570 1.375 . S
C572 C571 1.338 . S
C572 H576 0.931 . S
C573 N570 1.313 . S
C573 N574 1.344 . S
C573 H577 0.930 . S
N574 C571 1.377 . S
N574 C573 1.344 . S
O575 Co567 2.055 . S
O575 C579 1.253 . S
H576 C572 0.931 . S
H577 C573 0.930 . S
O578 Co567 2.039 . S
O578 C568 1.265 . S
C579 O575 1.253 . S
C579 O580 1.227 . S
O580 C579 1.227 . S
N581 Co567 2.140 . S
N581 C584 1.346 . S
N581 C585 1.345 . S
C582 C583 1.387 . S
C582 C586 1.391 . S
C583 C582 1.387 . S
C583 C584 1.369 . S
C583 H592 0.929 . S
C584 N581 1.346 . S
C584 C583 1.369 . S
C584 H587 0.928 . S
C585 N581 1.345 . S
C585 C586 1.371 . S
C585 H588 0.931 . S
C586 C582 1.391 . S
C586 C585 1.371 . S
C586 H593 0.930 . S
H587 C584 0.928 . S
H588 C585 0.931 . S
H589 C565 0.930 . S
H590 C562 0.930 . S
H591 C571 0.930 . S
H592 C583 0.929 . S
H593 C586 0.930 . S
C594 C595 1.351 . S
C594 N597 1.368 . S
C594 H599 0.931 . S
C595 C594 1.351 . S
C595 N596 1.373 . S
C595 H623 0.930 . S
N596 C595 1.373 . S
N596 C598 1.340 . S
N597 C594 1.368 . S
N597 C598 1.321 . S
N597 Co600 2.135 . S
C598 N596 1.340 . S
C598 N597 1.321 . S
C598 H622 0.930 . S
H599 C594 0.931 . S
Co600 N597 2.135 . S
Co600 N603 2.121 . S
Co600 O608 2.055 . S
Co600 O611 2.039 . S
Co600 N614 2.140 . S
C601 O602 1.227 . S
C601 O611 1.265 . S
O602 C601 1.227 . S
N603 Co600 2.121 . S
N603 C605 1.375 . S
N603 C606 1.313 . S
C604 C605 1.338 . S
C604 N607 1.377 . S
C604 H624 0.930 . S
C605 N603 1.375 . S
C605 C604 1.338 . S
C605 H609 0.931 . S
C606 N603 1.313 . S
C606 N607 1.344 . S
C606 H610 0.930 . S
N607 C604 1.377 . S
N607 C606 1.344 . S
O608 Co600 2.055 . S
O608 C612 1.253 . S
H609 C605 0.931 . S
H610 C606 0.930 . S
O611 Co600 2.039 . S
O611 C601 1.265 . S
C612 O608 1.253 . S
C612 O613 1.227 . S
O613 C612 1.227 . S
N614 Co600 2.140 . S
N614 C617 1.346 . S
N614 C618 1.345 . S
C615 C616 1.387 . S
C615 C619 1.391 . S
C616 C615 1.387 . S
C616 C617 1.369 . S
C616 H625 0.929 . S
C617 N614 1.346 . S
C617 C616 1.369 . S
C617 H620 0.928 . S
C618 N614 1.345 . S
C618 C619 1.371 . S
C618 H621 0.931 . S
C619 C615 1.391 . S
C619 C618 1.371 . S
C619 H626 0.930 . S
H620 C617 0.928 . S
H621 C618 0.931 . S
H622 C598 0.930 . S
H623 C595 0.930 . S
H624 C604 0.930 . S
H625 C616 0.929 . S
H626 C619 0.930 . S
C627 C628 1.351 . S
C627 N630 1.368 . S
C627 H632 0.931 . S
C628 C627 1.351 . S
C628 N629 1.373 . S
C628 H656 0.930 . S
N629 C628 1.373 . S
N629 C631 1.340 . S
N630 C627 1.368 . S
N630 C631 1.321 . S
N630 Co633 2.135 . S
C631 N629 1.340 . S
C631 N630 1.321 . S
C631 H655 0.930 . S
H632 C627 0.931 . S
Co633 N630 2.135 . S
Co633 N636 2.121 . S
Co633 O641 2.055 . S
Co633 O644 2.039 . S
Co633 N647 2.140 . S
C634 O635 1.227 . S
C634 O644 1.265 . S
O635 C634 1.227 . S
N636 Co633 2.121 . S
N636 C638 1.375 . S
N636 C639 1.313 . S
C637 C638 1.338 . S
C637 N640 1.377 . S
C637 H657 0.930 . S
C638 N636 1.375 . S
C638 C637 1.338 . S
C638 H642 0.931 . S
C639 N636 1.313 . S
C639 N640 1.344 . S
C639 H643 0.930 . S
N640 C637 1.377 . S
N640 C639 1.344 . S
O641 Co633 2.055 . S
O641 C645 1.253 . S
H642 C638 0.931 . S
H643 C639 0.930 . S
O644 Co633 2.039 . S
O644 C634 1.265 . S
C645 O641 1.253 . S
C645 O646 1.227 . S
O646 C645 1.227 . S
N647 Co633 2.140 . S
N647 C650 1.346 . S
N647 C651 1.345 . S
C648 C649 1.387 . S
C648 C652 1.391 . S
C649 C648 1.387 . S
C649 C650 1.369 . S
C649 H658 0.929 . S
C650 N647 1.346 . S
C650 C649 1.369 . S
C650 H653 0.928 . S
C651 N647 1.345 . S
C651 C652 1.371 . S
C651 H654 0.931 . S
C652 C648 1.391 . S
C652 C651 1.371 . S
C652 H659 0.930 . S
H653 C650 0.928 . S
H654 C651 0.931 . S
H655 C631 0.930 . S
H656 C628 0.930 . S
H657 C637 0.930 . S
H658 C649 0.929 . S
H659 C652 0.930 . S
C660 C661 1.351 . S
C660 N663 1.368 . S
C660 H665 0.931 . S
C661 C660 1.351 . S
C661 N662 1.373 . S
C661 H689 0.930 . S
N662 C661 1.373 . S
N662 C664 1.340 . S
N663 C660 1.368 . S
N663 C664 1.321 . S
N663 Co666 2.135 . S
C664 N662 1.340 . S
C664 N663 1.321 . S
C664 H688 0.930 . S
H665 C660 0.931 . S
Co666 N663 2.135 . S
Co666 N669 2.121 . S
Co666 O674 2.055 . S
Co666 O677 2.039 . S
Co666 N680 2.140 . S
C667 O668 1.227 . S
C667 O677 1.265 . S
O668 C667 1.227 . S
N669 Co666 2.121 . S
N669 C671 1.375 . S
N669 C672 1.313 . S
C670 C671 1.338 . S
C670 N673 1.377 . S
C670 H690 0.930 . S
C671 N669 1.375 . S
C671 C670 1.338 . S
C671 H675 0.931 . S
C672 N669 1.313 . S
C672 N673 1.344 . S
C672 H676 0.930 . S
N673 C670 1.377 . S
N673 C672 1.344 . S
O674 Co666 2.055 . S
O674 C678 1.253 . S
H675 C671 0.931 . S
H676 C672 0.930 . S
O677 Co666 2.039 . S
O677 C667 1.265 . S
C678 O674 1.253 . S
C678 O679 1.227 . S
O679 C678 1.227 . S
N680 Co666 2.140 . S
N680 C683 1.346 . S
N680 C684 1.345 . S
C681 C682 1.387 . S
C681 C685 1.391 . S
C682 C681 1.387 . S
C682 C683 1.369 . S
C682 H691 0.929 . S
C683 N680 1.346 . S
C683 C682 1.369 . S
C683 H686 0.928 . S
C684 N680 1.345 . S
C684 C685 1.371 . S
C684 H687 0.931 . S
C685 C681 1.391 . S
C685 C684 1.371 . S
C685 H692 0.930 . S
H686 C683 0.928 . S
H687 C684 0.931 . S
H688 C664 0.930 . S
H689 C661 0.930 . S
H690 C670 0.930 . S
H691 C682 0.929 . S
H692 C685 0.930 . S
C693 C694 1.351 . S
C693 N696 1.368 . S
C693 H698 0.931 . S
C694 C693 1.351 . S
C694 N695 1.373 . S
C694 H722 0.930 . S
N695 C694 1.373 . S
N695 C697 1.340 . S
N696 C693 1.368 . S
N696 C697 1.321 . S
N696 Co699 2.135 . S
C697 N695 1.340 . S
C697 N696 1.321 . S
C697 H721 0.930 . S
H698 C693 0.931 . S
Co699 N696 2.135 . S
Co699 N702 2.121 . S
Co699 O707 2.055 . S
Co699 O710 2.039 . S
Co699 N713 2.140 . S
C700 O701 1.227 . S
C700 O710 1.265 . S
O701 C700 1.227 . S
N702 Co699 2.121 . S
N702 C704 1.375 . S
N702 C705 1.313 . S
C703 C704 1.338 . S
C703 N706 1.377 . S
C703 H723 0.930 . S
C704 N702 1.375 . S
C704 C703 1.338 . S
C704 H708 0.931 . S
C705 N702 1.313 . S
C705 N706 1.344 . S
C705 H709 0.930 . S
N706 C703 1.377 . S
N706 C705 1.344 . S
O707 Co699 2.055 . S
O707 C711 1.253 . S
H708 C704 0.931 . S
H709 C705 0.930 . S
O710 Co699 2.039 . S
O710 C700 1.265 . S
C711 O707 1.253 . S
C711 O712 1.227 . S
O712 C711 1.227 . S
N713 Co699 2.140 . S
N713 C716 1.346 . S
N713 C717 1.345 . S
C714 C715 1.387 . S
C714 C718 1.391 . S
C715 C714 1.387 . S
C715 C716 1.369 . S
C715 H724 0.929 . S
C716 N713 1.346 . S
C716 C715 1.369 . S
C716 H719 0.928 . S
C717 N713 1.345 . S
C717 C718 1.371 . S
C717 H720 0.931 . S
C718 C714 1.391 . S
C718 C717 1.371 . S
C718 H725 0.930 . S
H719 C716 0.928 . S
H720 C717 0.931 . S
H721 C697 0.930 . S
H722 C694 0.930 . S
H723 C703 0.930 . S
H724 C715 0.929 . S
H725 C718 0.930 . S
C726 C727 1.351 . S
C726 N729 1.368 . S
C726 H731 0.931 . S
C727 C726 1.351 . S
C727 N728 1.373 . S
C727 H755 0.930 . S
N728 C727 1.373 . S
N728 C730 1.340 . S
N729 C726 1.368 . S
N729 C730 1.321 . S
N729 Co732 2.135 . S
C730 N728 1.340 . S
C730 N729 1.321 . S
C730 H754 0.930 . S
H731 C726 0.931 . S
Co732 N729 2.135 . S
Co732 N735 2.121 . S
Co732 O740 2.055 . S
Co732 O743 2.039 . S
Co732 N746 2.140 . S
C733 O734 1.227 . S
C733 O743 1.265 . S
O734 C733 1.227 . S
N735 Co732 2.121 . S
N735 C737 1.375 . S
N735 C738 1.313 . S
C736 C737 1.338 . S
C736 N739 1.377 . S
C736 H756 0.930 . S
C737 N735 1.375 . S
C737 C736 1.338 . S
C737 H741 0.931 . S
C738 N735 1.313 . S
C738 N739 1.344 . S
C738 H742 0.930 . S
N739 C736 1.377 . S
N739 C738 1.344 . S
O740 Co732 2.055 . S
O740 C744 1.253 . S
H741 C737 0.931 . S
H742 C738 0.930 . S
O743 Co732 2.039 . S
O743 C733 1.265 . S
C744 O740 1.253 . S
C744 O745 1.227 . S
O745 C744 1.227 . S
N746 Co732 2.140 . S
N746 C749 1.346 . S
N746 C750 1.345 . S
C747 C748 1.387 . S
C747 C751 1.391 . S
C748 C747 1.387 . S
C748 C749 1.369 . S
C748 H757 0.929 . S
C749 N746 1.346 . S
C749 C748 1.369 . S
C749 H752 0.928 . S
C750 N746 1.345 . S
C750 C751 1.371 . S
C750 H753 0.931 . S
C751 C747 1.391 . S
C751 C750 1.371 . S
C751 H758 0.930 . S
H752 C749 0.928 . S
H753 C750 0.931 . S
H754 C730 0.930 . S
H755 C727 0.930 . S
H756 C736 0.930 . S
H757 C748 0.929 . S
H758 C751 0.930 . S
C759 C760 1.351 . S
C759 N762 1.368 . S
C759 H764 0.931 . S
C760 C759 1.351 . S
C760 N761 1.373 . S
C760 H788 0.930 . S
N761 C760 1.373 . S
N761 C763 1.340 . S
N762 C759 1.368 . S
N762 C763 1.321 . S
N762 Co765 2.135 . S
C763 N761 1.340 . S
C763 N762 1.321 . S
C763 H787 0.930 . S
H764 C759 0.931 . S
Co765 N762 2.135 . S
Co765 N768 2.121 . S
Co765 O773 2.055 . S
Co765 O776 2.039 . S
Co765 N779 2.140 . S
C766 O767 1.227 . S
C766 O776 1.265 . S
O767 C766 1.227 . S
N768 Co765 2.121 . S
N768 C770 1.375 . S
N768 C771 1.313 . S
C769 C770 1.338 . S
C769 N772 1.377 . S
C769 H789 0.930 . S
C770 N768 1.375 . S
C770 C769 1.338 . S
C770 H774 0.931 . S
C771 N768 1.313 . S
C771 N772 1.344 . S
C771 H775 0.930 . S
N772 C769 1.377 . S
N772 C771 1.344 . S
O773 Co765 2.055 . S
O773 C777 1.253 . S
H774 C770 0.931 . S
H775 C771 0.930 . S
O776 Co765 2.039 . S
O776 C766 1.265 . S
C777 O773 1.253 . S
C777 O778 1.227 . S
O778 C777 1.227 . S
N779 Co765 2.140 . S
N779 C782 1.346 . S
N779 C783 1.345 . S
C780 C781 1.387 . S
C780 C784 1.391 . S
C781 C780 1.387 . S
C781 C782 1.369 . S
C781 H790 0.929 . S
C782 N779 1.346 . S
C782 C781 1.369 . S
C782 H785 0.928 . S
C783 N779 1.345 . S
C783 C784 1.371 . S
C783 H786 0.931 . S
C784 C780 1.391 . S
C784 C783 1.371 . S
C784 H791 0.930 . S
H785 C782 0.928 . S
H786 C783 0.931 . S
H787 C763 0.930 . S
H788 C760 0.930 . S
H789 C769 0.930 . S
H790 C781 0.929 . S
H791 C784 0.930 . S
C792 C793 1.351 . S
C792 N795 1.368 . S
C792 H797 0.931 . S
C793 C792 1.351 . S
C793 N794 1.373 . S
C793 H821 0.930 . S
N794 C793 1.373 . S
N794 C796 1.340 . S
N795 C792 1.368 . S
N795 C796 1.321 . S
N795 Co798 2.135 . S
C796 N794 1.340 . S
C796 N795 1.321 . S
C796 H820 0.930 . S
H797 C792 0.931 . S
Co798 N795 2.135 . S
Co798 N801 2.121 . S
Co798 O806 2.055 . S
Co798 O809 2.039 . S
Co798 N812 2.140 . S
C799 O800 1.227 . S
C799 O809 1.265 . S
O800 C799 1.227 . S
N801 Co798 2.121 . S
N801 C803 1.375 . S
N801 C804 1.313 . S
C802 C803 1.338 . S
C802 N805 1.377 . S
C802 H822 0.930 . S
C803 N801 1.375 . S
C803 C802 1.338 . S
C803 H807 0.931 . S
C804 N801 1.313 . S
C804 N805 1.344 . S
C804 H808 0.930 . S
N805 C802 1.377 . S
N805 C804 1.344 . S
O806 Co798 2.055 . S
O806 C810 1.253 . S
H807 C803 0.931 . S
H808 C804 0.930 . S
O809 Co798 2.039 . S
O809 C799 1.265 . S
C810 O806 1.253 . S
C810 O811 1.227 . S
O811 C810 1.227 . S
N812 Co798 2.140 . S
N812 C815 1.346 . S
N812 C816 1.345 . S
C813 C814 1.387 . S
C813 C817 1.391 . S
C814 C813 1.387 . S
C814 C815 1.369 . S
C814 H823 0.929 . S
C815 N812 1.346 . S
C815 C814 1.369 . S
C815 H818 0.928 . S
C816 N812 1.345 . S
C816 C817 1.371 . S
C816 H819 0.931 . S
C817 C813 1.391 . S
C817 C816 1.371 . S
C817 H824 0.930 . S
H818 C815 0.928 . S
H819 C816 0.931 . S
H820 C796 0.930 . S
H821 C793 0.930 . S
H822 C802 0.930 . S
H823 C814 0.929 . S
H824 C817 0.930 . S
C825 C826 1.351 . S
C825 N828 1.368 . S
C825 H830 0.931 . S
C826 C825 1.351 . S
C826 N827 1.373 . S
C826 H854 0.930 . S
N827 C826 1.373 . S
N827 C829 1.340 . S
N828 C825 1.368 . S
N828 C829 1.321 . S
N828 Co831 2.135 . S
C829 N827 1.340 . S
C829 N828 1.321 . S
C829 H853 0.930 . S
H830 C825 0.931 . S
Co831 N828 2.135 . S
Co831 N834 2.121 . S
Co831 O839 2.055 . S
Co831 O842 2.039 . S
Co831 N845 2.140 . S
C832 O833 1.227 . S
C832 O842 1.265 . S
O833 C832 1.227 . S
N834 Co831 2.121 . S
N834 C836 1.375 . S
N834 C837 1.313 . S
C835 C836 1.338 . S
C835 N838 1.377 . S
C835 H855 0.930 . S
C836 N834 1.375 . S
C836 C835 1.338 . S
C836 H840 0.931 . S
C837 N834 1.313 . S
C837 N838 1.344 . S
C837 H841 0.930 . S
N838 C835 1.377 . S
N838 C837 1.344 . S
O839 Co831 2.055 . S
O839 C843 1.253 . S
H840 C836 0.931 . S
H841 C837 0.930 . S
O842 Co831 2.039 . S
O842 C832 1.265 . S
C843 O839 1.253 . S
C843 O844 1.227 . S
O844 C843 1.227 . S
N845 Co831 2.140 . S
N845 C848 1.346 . S
N845 C849 1.345 . S
C846 C847 1.387 . S
C846 C850 1.391 . S
C847 C846 1.387 . S
C847 C848 1.369 . S
C847 H856 0.929 . S
C848 N845 1.346 . S
C848 C847 1.369 . S
C848 H851 0.928 . S
C849 N845 1.345 . S
C849 C850 1.371 . S
C849 H852 0.931 . S
C850 C846 1.391 . S
C850 C849 1.371 . S
C850 H857 0.930 . S
H851 C848 0.928 . S
H852 C849 0.931 . S
H853 C829 0.930 . S
H854 C826 0.930 . S
H855 C835 0.930 . S
H856 C847 0.929 . S
H857 C850 0.930 . S
C858 C859 1.351 . S
C858 N861 1.368 . S
C858 H863 0.931 . S
C859 C858 1.351 . S
C859 N860 1.373 . S
C859 H887 0.930 . S
N860 C859 1.373 . S
N860 C862 1.340 . S
N861 C858 1.368 . S
N861 C862 1.321 . S
N861 Co864 2.135 . S
C862 N860 1.340 . S
C862 N861 1.321 . S
C862 H886 0.930 . S
H863 C858 0.931 . S
Co864 N861 2.135 . S
Co864 N867 2.121 . S
Co864 O872 2.055 . S
Co864 O875 2.039 . S
Co864 N878 2.140 . S
C865 O866 1.227 . S
C865 O875 1.265 1_554 S
O866 C865 1.227 . S
N867 Co864 2.121 . S
N867 C869 1.375 . S
N867 C870 1.313 . S
C868 C869 1.338 . S
C868 N871 1.377 . S
C868 H888 0.930 . S
C869 N867 1.375 . S
C869 C868 1.338 . S
C869 H873 0.931 . S
C870 N867 1.313 . S
C870 N871 1.344 . S
C870 H874 0.930 . S
N871 C868 1.377 . S
N871 C870 1.344 . S
O872 Co864 2.055 . S
O872 C876 1.253 . S
H873 C869 0.931 . S
H874 C870 0.930 . S
O875 Co864 2.039 . S
O875 C865 1.265 1_556 S
C876 O872 1.253 . S
C876 O877 1.227 . S
O877 C876 1.227 . S
N878 Co864 2.140 . S
N878 C881 1.346 . S
N878 C882 1.345 . S
C879 C880 1.387 . S
C879 C883 1.391 . S
C880 C879 1.387 . S
C880 C881 1.369 . S
C880 H889 0.929 . S
C881 N878 1.346 . S
C881 C880 1.369 . S
C881 H884 0.928 . S
C882 N878 1.345 . S
C882 C883 1.371 . S
C882 H885 0.931 . S
C883 C879 1.391 . S
C883 C882 1.371 . S
C883 H890 0.930 . S
H884 C881 0.928 . S
H885 C882 0.931 . S
H886 C862 0.930 . S
H887 C859 0.930 . S
H888 C868 0.930 . S
H889 C880 0.929 . S
H890 C883 0.930 . S
C891 C892 1.351 . S
C891 N894 1.368 . S
C891 H896 0.931 . S
C892 C891 1.351 . S
C892 N893 1.373 . S
C892 H920 0.930 . S
N893 C892 1.373 . S
N893 C895 1.340 . S
N894 C891 1.368 . S
N894 C895 1.321 . S
N894 Co897 2.135 . S
C895 N893 1.340 . S
C895 N894 1.321 . S
C895 H919 0.930 . S
H896 C891 0.931 . S
Co897 N894 2.135 . S
Co897 N900 2.121 . S
Co897 O905 2.055 . S
Co897 O908 2.039 . S
Co897 N911 2.140 . S
C898 O899 1.227 . S
C898 O908 1.265 1_554 S
O899 C898 1.227 . S
N900 Co897 2.121 . S
N900 C902 1.375 . S
N900 C903 1.313 . S
C901 C902 1.338 . S
C901 N904 1.377 . S
C901 H921 0.930 . S
C902 N900 1.375 . S
C902 C901 1.338 . S
C902 H906 0.931 . S
C903 N900 1.313 . S
C903 N904 1.344 . S
C903 H907 0.930 . S
N904 C901 1.377 . S
N904 C903 1.344 . S
O905 Co897 2.055 . S
O905 C909 1.253 . S
H906 C902 0.931 . S
H907 C903 0.930 . S
O908 Co897 2.039 . S
O908 C898 1.265 1_556 S
C909 O905 1.253 . S
C909 O910 1.227 . S
O910 C909 1.227 . S
N911 Co897 2.140 . S
N911 C914 1.346 . S
N911 C915 1.345 . S
C912 C913 1.387 . S
C912 C916 1.391 . S
C913 C912 1.387 . S
C913 C914 1.369 . S
C913 H922 0.929 . S
C914 N911 1.346 . S
C914 C913 1.369 . S
C914 H917 0.928 . S
C915 N911 1.345 . S
C915 C916 1.371 . S
C915 H918 0.931 . S
C916 C912 1.391 . S
C916 C915 1.371 . S
C916 H923 0.930 . S
H917 C914 0.928 . S
H918 C915 0.931 . S
H919 C895 0.930 . S
H920 C892 0.930 . S
H921 C901 0.930 . S
H922 C913 0.929 . S
H923 C916 0.930 . S
C924 C925 1.351 . S
C924 N927 1.368 . S
C924 H929 0.931 . S
C925 C924 1.351 . S
C925 N926 1.373 . S
C925 H953 0.930 . S
N926 C925 1.373 . S
N926 C928 1.340 . S
N927 C924 1.368 . S
N927 C928 1.321 . S
N927 Co930 2.135 . S
C928 N926 1.340 . S
C928 N927 1.321 . S
C928 H952 0.930 . S
H929 C924 0.931 . S
Co930 N927 2.135 . S
Co930 N933 2.121 . S
Co930 O938 2.055 . S
Co930 O941 2.039 . S
Co930 N944 2.140 . S
C931 O932 1.227 . S
C931 O941 1.265 . S
O932 C931 1.227 . S
N933 Co930 2.121 . S
N933 C935 1.375 . S
N933 C936 1.313 . S
C934 C935 1.338 . S
C934 N937 1.377 . S
C934 H954 0.930 . S
C935 N933 1.375 . S
C935 C934 1.338 . S
C935 H939 0.931 . S
C936 N933 1.313 . S
C936 N937 1.344 . S
C936 H940 0.930 . S
N937 C934 1.377 . S
N937 C936 1.344 . S
O938 Co930 2.055 . S
O938 C942 1.253 . S
H939 C935 0.931 . S
H940 C936 0.930 . S
O941 Co930 2.039 . S
O941 C931 1.265 . S
C942 O938 1.253 . S
C942 O943 1.227 . S
O943 C942 1.227 . S
N944 Co930 2.140 . S
N944 C947 1.346 . S
N944 C948 1.345 . S
C945 C946 1.387 . S
C945 C949 1.391 . S
C946 C945 1.387 . S
C946 C947 1.369 . S
C946 H955 0.929 . S
C947 N944 1.346 . S
C947 C946 1.369 . S
C947 H950 0.928 . S
C948 N944 1.345 . S
C948 C949 1.371 . S
C948 H951 0.931 . S
C949 C945 1.391 . S
C949 C948 1.371 . S
C949 H956 0.930 . S
H950 C947 0.928 . S
H951 C948 0.931 . S
H952 C928 0.930 . S
H953 C925 0.930 . S
H954 C934 0.930 . S
H955 C946 0.929 . S
H956 C949 0.930 . S
C957 C958 1.351 . S
C957 N960 1.368 . S
C957 H962 0.931 . S
C958 C957 1.351 . S
C958 N959 1.373 . S
C958 H986 0.930 . S
N959 C958 1.373 . S
N959 C961 1.340 . S
N960 C957 1.368 . S
N960 C961 1.321 . S
N960 Co963 2.135 . S
C961 N959 1.340 . S
C961 N960 1.321 . S
C961 H985 0.930 . S
H962 C957 0.931 . S
Co963 N960 2.135 . S
Co963 N966 2.121 . S
Co963 O971 2.055 . S
Co963 O974 2.039 . S
Co963 N977 2.140 . S
C964 O965 1.227 . S
C964 O974 1.265 . S
O965 C964 1.227 . S
N966 Co963 2.121 . S
N966 C968 1.375 . S
N966 C969 1.313 . S
C967 C968 1.338 . S
C967 N970 1.377 . S
C967 H987 0.930 . S
C968 N966 1.375 . S
C968 C967 1.338 . S
C968 H972 0.931 . S
C969 N966 1.313 . S
C969 N970 1.344 . S
C969 H973 0.930 . S
N970 C967 1.377 . S
N970 C969 1.344 . S
O971 Co963 2.055 . S
O971 C975 1.253 . S
H972 C968 0.931 . S
H973 C969 0.930 . S
O974 Co963 2.039 . S
O974 C964 1.265 . S
C975 O971 1.253 . S
C975 O976 1.227 . S
O976 C975 1.227 . S
N977 Co963 2.140 . S
N977 C980 1.346 . S
N977 C981 1.345 . S
C978 C979 1.387 . S
C978 C982 1.391 . S
C979 C978 1.387 . S
C979 C980 1.369 . S
C979 H988 0.929 . S
C980 N977 1.346 . S
C980 C979 1.369 . S
C980 H983 0.928 . S
C981 N977 1.345 . S
C981 C982 1.371 . S
C981 H984 0.931 . S
C982 C978 1.391 . S
C982 C981 1.371 . S
C982 H989 0.930 . S
H983 C980 0.928 . S
H984 C981 0.931 . S
H985 C961 0.930 . S
H986 C958 0.930 . S
H987 C967 0.930 . S
H988 C979 0.929 . S
H989 C982 0.930 . S
C990 C991 1.351 . S
C990 N993 1.368 . S
C990 H995 0.931 . S
C991 C990 1.351 . S
C991 N992 1.373 . S
C991 H1019 0.930 . S
N992 C991 1.373 . S
N992 C994 1.340 . S
N993 C990 1.368 . S
N993 C994 1.321 . S
N993 Co996 2.135 . S
C994 N992 1.340 . S
C994 N993 1.321 . S
C994 H1018 0.930 . S
H995 C990 0.931 . S
Co996 N993 2.135 . S
Co996 N999 2.121 . S
Co996 O1004 2.055 . S
Co996 O1007 2.039 . S
Co996 N1010 2.140 . S
C997 O998 1.227 . S
C997 O1007 1.265 1_556 S
O998 C997 1.227 . S
N999 Co996 2.121 . S
N999 C1001 1.375 . S
N999 C1002 1.313 . S
C1000 C1001 1.338 . S
C1000 N1003 1.377 . S
C1000 H1020 0.930 . S
C1001 N999 1.375 . S
C1001 C1000 1.338 . S
C1001 H1005 0.931 . S
C1002 N999 1.313 . S
C1002 N1003 1.344 . S
C1002 H1006 0.930 . S
N1003 C1000 1.377 . S
N1003 C1002 1.344 . S
O1004 Co996 2.055 . S
O1004 C1008 1.253 . S
H1005 C1001 0.931 . S
H1006 C1002 0.930 . S
O1007 Co996 2.039 . S
O1007 C997 1.265 1_554 S
C1008 O1004 1.253 . S
C1008 O1009 1.227 . S
O1009 C1008 1.227 . S
N1010 Co996 2.140 . S
N1010 C1013 1.346 . S
N1010 C1014 1.345 . S
C1011 C1012 1.387 . S
C1011 C1015 1.391 . S
C1012 C1011 1.387 . S
C1012 C1013 1.369 . S
C1012 H1021 0.929 . S
C1013 N1010 1.346 . S
C1013 C1012 1.369 . S
C1013 H1016 0.928 . S
C1014 N1010 1.345 . S
C1014 C1015 1.371 . S
C1014 H1017 0.931 . S
C1015 C1011 1.391 . S
C1015 C1014 1.371 . S
C1015 H1022 0.930 . S
H1016 C1013 0.928 . S
H1017 C1014 0.931 . S
H1018 C994 0.930 . S
H1019 C991 0.930 . S
H1020 C1000 0.930 . S
H1021 C1012 0.929 . S
H1022 C1015 0.930 . S
C1023 C1024 1.351 . S
C1023 N1026 1.368 . S
C1023 H1028 0.931 . S
C1024 C1023 1.351 . S
C1024 N1025 1.373 . S
C1024 H1052 0.930 . S
N1025 C1024 1.373 . S
N1025 C1027 1.340 . S
N1026 C1023 1.368 . S
N1026 C1027 1.321 . S
N1026 Co1029 2.135 . S
C1027 N1025 1.340 . S
C1027 N1026 1.321 . S
C1027 H1051 0.930 . S
H1028 C1023 0.931 . S
Co1029 N1026 2.135 . S
Co1029 N1032 2.121 . S
Co1029 O1037 2.055 . S
Co1029 O1040 2.039 . S
Co1029 N1043 2.140 . S
C1030 O1031 1.227 . S
C1030 O1040 1.265 1_556 S
O1031 C1030 1.227 . S
N1032 Co1029 2.121 . S
N1032 C1034 1.375 . S
N1032 C1035 1.313 . S
C1033 C1034 1.338 . S
C1033 N1036 1.377 . S
C1033 H1053 0.930 . S
C1034 N1032 1.375 . S
C1034 C1033 1.338 . S
C1034 H1038 0.931 . S
C1035 N1032 1.313 . S
C1035 N1036 1.344 . S
C1035 H1039 0.930 . S
N1036 C1033 1.377 . S
N1036 C1035 1.344 . S
O1037 Co1029 2.055 . S
O1037 C1041 1.253 . S
H1038 C1034 0.931 . S
H1039 C1035 0.930 . S
O1040 Co1029 2.039 . S
O1040 C1030 1.265 1_554 S
C1041 O1037 1.253 . S
C1041 O1042 1.227 . S
O1042 C1041 1.227 . S
N1043 Co1029 2.140 . S
N1043 C1046 1.346 . S
N1043 C1047 1.345 . S
C1044 C1045 1.387 . S
C1044 C1048 1.391 . S
C1045 C1044 1.387 . S
C1045 C1046 1.369 . S
C1045 H1054 0.929 . S
C1046 N1043 1.346 . S
C1046 C1045 1.369 . S
C1046 H1049 0.928 . S
C1047 N1043 1.345 . S
C1047 C1048 1.371 . S
C1047 H1050 0.931 . S
C1048 C1044 1.391 . S
C1048 C1047 1.371 . S
C1048 H1055 0.930 . S
H1049 C1046 0.928 . S
H1050 C1047 0.931 . S
H1051 C1027 0.930 . S
H1052 C1024 0.930 . S
H1053 C1033 0.930 . S
H1054 C1045 0.929 . S
H1055 C1048 0.930 . S
C1056 C1057 1.369 . S
C1056 C1058 1.419 . S
C1056 H1060 0.930 . S
C1057 C1056 1.369 . S
C1057 C1066 1.429 . S
C1058 C1056 1.419 . S
C1058 C1059 1.363 . S
C1058 H1061 0.929 . S
C1059 C1058 1.363 . S
C1059 C1065 1.428 . S
H1060 C1056 0.930 . S
H1061 C1058 0.929 . S
S1062 N1063 1.613 . S
S1062 N1064 1.610 . S
N1063 S1062 1.613 . S
N1063 C1066 1.350 . S
N1064 S1062 1.610 . S
N1064 C1065 1.351 . S
C1065 C1059 1.428 . S
C1065 N1064 1.351 . S
C1065 C1066 1.434 . S
C1066 C1057 1.429 . S
C1066 N1063 1.350 . S
C1066 C1065 1.434 . S
C1067 C1068 1.369 . S
C1067 C1069 1.419 . S
C1067 H1071 0.930 . S
C1068 C1067 1.369 . S
C1068 C1077 1.429 . S
C1069 C1067 1.419 . S
C1069 C1070 1.363 . S
C1069 H1072 0.929 . S
C1070 C1069 1.363 . S
C1070 C1076 1.428 . S
H1071 C1067 0.930 . S
H1072 C1069 0.929 . S
S1073 N1074 1.613 . S
S1073 N1075 1.610 . S
N1074 S1073 1.613 . S
N1074 C1077 1.350 . S
N1075 S1073 1.610 . S
N1075 C1076 1.351 . S
C1076 C1070 1.428 . S
C1076 N1075 1.351 . S
C1076 C1077 1.434 . S
C1077 C1068 1.429 . S
C1077 N1074 1.350 . S
C1077 C1076 1.434 . S
C1078 C1079 1.369 . S
C1078 C1080 1.419 . S
C1078 H1082 0.930 . S
C1079 C1078 1.369 . S
C1079 C1088 1.429 . S
C1080 C1078 1.419 . S
C1080 C1081 1.363 . S
C1080 H1083 0.929 . S
C1081 C1080 1.363 . S
C1081 C1087 1.428 . S
H1082 C1078 0.930 . S
H1083 C1080 0.929 . S
S1084 N1085 1.613 . S
S1084 N1086 1.610 . S
N1085 S1084 1.613 . S
N1085 C1088 1.350 . S
N1086 S1084 1.610 . S
N1086 C1087 1.351 . S
C1087 C1081 1.428 . S
C1087 N1086 1.351 . S
C1087 C1088 1.434 . S
C1088 C1079 1.429 . S
C1088 N1085 1.350 . S
C1088 C1087 1.434 . S
C1089 C1090 1.369 . S
C1089 C1091 1.419 . S
C1089 H1093 0.930 . S
C1090 C1089 1.369 . S
C1090 C1099 1.429 . S
C1091 C1089 1.419 . S
C1091 C1092 1.363 . S
C1091 H1094 0.929 . S
C1092 C1091 1.363 . S
C1092 C1098 1.428 . S
H1093 C1089 0.930 . S
H1094 C1091 0.929 . S
S1095 N1096 1.613 . S
S1095 N1097 1.610 . S
N1096 S1095 1.613 . S
N1096 C1099 1.350 . S
N1097 S1095 1.610 . S
N1097 C1098 1.351 . S
C1098 C1092 1.428 . S
C1098 N1097 1.351 . S
C1098 C1099 1.434 . S
C1099 C1090 1.429 . S
C1099 N1096 1.350 . S
C1099 C1098 1.434 . S
C1100 C1101 1.369 . S
C1100 C1102 1.419 . S
C1100 H1104 0.930 . S
C1101 C1100 1.369 . S
C1101 C1110 1.429 . S
C1102 C1100 1.419 . S
C1102 C1103 1.363 . S
C1102 H1105 0.929 . S
C1103 C1102 1.363 . S
C1103 C1109 1.428 . S
H1104 C1100 0.930 . S
H1105 C1102 0.929 . S
S1106 N1107 1.613 . S
S1106 N1108 1.610 . S
N1107 S1106 1.613 . S
N1107 C1110 1.350 . S
N1108 S1106 1.610 . S
N1108 C1109 1.351 . S
C1109 C1103 1.428 . S
C1109 N1108 1.351 . S
C1109 C1110 1.434 . S
C1110 C1101 1.429 . S
C1110 N1107 1.350 . S
C1110 C1109 1.434 . S
C1111 C1112 1.369 . S
C1111 C1113 1.419 . S
C1111 H1115 0.930 . S
C1112 C1111 1.369 . S
C1112 C1121 1.429 . S
C1113 C1111 1.419 . S
C1113 C1114 1.363 . S
C1113 H1116 0.929 . S
C1114 C1113 1.363 . S
C1114 C1120 1.428 . S
H1115 C1111 0.930 . S
H1116 C1113 0.929 . S
S1117 N1118 1.613 . S
S1117 N1119 1.610 . S
N1118 S1117 1.613 . S
N1118 C1121 1.350 . S
N1119 S1117 1.610 . S
N1119 C1120 1.351 . S
C1120 C1114 1.428 . S
C1120 N1119 1.351 . S
C1120 C1121 1.434 . S
C1121 C1112 1.429 . S
C1121 N1118 1.350 . S
C1121 C1120 1.434 . S
C1122 C1123 1.369 . S
C1122 C1124 1.419 . S
C1122 H1126 0.930 . S
C1123 C1122 1.369 . S
C1123 C1132 1.429 . S
C1124 C1122 1.419 . S
C1124 C1125 1.363 . S
C1124 H1127 0.929 . S
C1125 C1124 1.363 . S
C1125 C1131 1.428 . S
H1126 C1122 0.930 . S
H1127 C1124 0.929 . S
S1128 N1129 1.613 . S
S1128 N1130 1.610 . S
N1129 S1128 1.613 . S
N1129 C1132 1.350 . S
N1130 S1128 1.610 . S
N1130 C1131 1.351 . S
C1131 C1125 1.428 . S
C1131 N1130 1.351 . S
C1131 C1132 1.434 . S
C1132 C1123 1.429 . S
C1132 N1129 1.350 . S
C1132 C1131 1.434 . S
C1133 C1134 1.369 . S
C1133 C1135 1.419 . S
C1133 H1137 0.930 . S
C1134 C1133 1.369 . S
C1134 C1143 1.429 . S
C1135 C1133 1.419 . S
C1135 C1136 1.363 . S
C1135 H1138 0.929 . S
C1136 C1135 1.363 . S
C1136 C1142 1.428 . S
H1137 C1133 0.930 . S
H1138 C1135 0.929 . S
S1139 N1140 1.613 . S
S1139 N1141 1.610 . S
N1140 S1139 1.613 . S
N1140 C1143 1.350 . S
N1141 S1139 1.610 . S
N1141 C1142 1.351 . S
C1142 C1136 1.428 . S
C1142 N1141 1.351 . S
C1142 C1143 1.434 . S
C1143 C1134 1.429 . S
C1143 N1140 1.350 . S
C1143 C1142 1.434 . S
C1144 C1145 1.369 . S
C1144 C1146 1.419 . S
C1144 H1148 0.930 . S
C1145 C1144 1.369 . S
C1145 C1154 1.429 . S
C1146 C1144 1.419 . S
C1146 C1147 1.363 . S
C1146 H1149 0.929 . S
C1147 C1146 1.363 . S
C1147 C1153 1.428 . S
H1148 C1144 0.930 . S
H1149 C1146 0.929 . S
S1150 N1151 1.613 . S
S1150 N1152 1.610 . S
N1151 S1150 1.613 . S
N1151 C1154 1.350 . S
N1152 S1150 1.610 . S
N1152 C1153 1.351 . S
C1153 C1147 1.428 . S
C1153 N1152 1.351 . S
C1153 C1154 1.434 . S
C1154 C1145 1.429 . S
C1154 N1151 1.350 . S
C1154 C1153 1.434 . S
C1155 C1156 1.369 . S
C1155 C1157 1.419 . S
C1155 H1159 0.930 . S
C1156 C1155 1.369 . S
C1156 C1165 1.429 . S
C1157 C1155 1.419 . S
C1157 C1158 1.363 . S
C1157 H1160 0.929 . S
C1158 C1157 1.363 . S
C1158 C1164 1.428 . S
H1159 C1155 0.930 . S
H1160 C1157 0.929 . S
S1161 N1162 1.613 . S
S1161 N1163 1.610 . S
N1162 S1161 1.613 . S
N1162 C1165 1.350 . S
N1163 S1161 1.610 . S
N1163 C1164 1.351 . S
C1164 C1158 1.428 . S
C1164 N1163 1.351 . S
C1164 C1165 1.434 . S
C1165 C1156 1.429 . S
C1165 N1162 1.350 . S
C1165 C1164 1.434 . S
C1166 C1167 1.369 . S
C1166 C1168 1.419 . S
C1166 H1170 0.930 . S
C1167 C1166 1.369 . S
C1167 C1176 1.429 . S
C1168 C1166 1.419 . S
C1168 C1169 1.363 . S
C1168 H1171 0.929 . S
C1169 C1168 1.363 . S
C1169 C1175 1.428 . S
H1170 C1166 0.930 . S
H1171 C1168 0.929 . S
S1172 N1173 1.613 . S
S1172 N1174 1.610 . S
N1173 S1172 1.613 . S
N1173 C1176 1.350 . S
N1174 S1172 1.610 . S
N1174 C1175 1.351 . S
C1175 C1169 1.428 . S
C1175 N1174 1.351 . S
C1175 C1176 1.434 . S
C1176 C1167 1.429 . S
C1176 N1173 1.350 . S
C1176 C1175 1.434 . S
C1177 C1178 1.369 . S
C1177 C1179 1.419 . S
C1177 H1181 0.930 . S
C1178 C1177 1.369 . S
C1178 C1187 1.429 . S
C1179 C1177 1.419 . S
C1179 C1180 1.363 . S
C1179 H1182 0.929 . S
C1180 C1179 1.363 . S
C1180 C1186 1.428 . S
H1181 C1177 0.930 . S
H1182 C1179 0.929 . S
S1183 N1184 1.613 . S
S1183 N1185 1.610 . S
N1184 S1183 1.613 . S
N1184 C1187 1.350 . S
N1185 S1183 1.610 . S
N1185 C1186 1.351 . S
C1186 C1180 1.428 . S
C1186 N1185 1.351 . S
C1186 C1187 1.434 . S
C1187 C1178 1.429 . S
C1187 N1184 1.350 . S
C1187 C1186 1.434 . S
C1188 C1189 1.369 . S
C1188 C1190 1.419 . S
C1188 H1192 0.930 . S
C1189 C1188 1.369 . S
C1189 C1198 1.429 . S
C1190 C1188 1.419 . S
C1190 C1191 1.363 . S
C1190 H1193 0.929 . S
C1191 C1190 1.363 . S
C1191 C1197 1.428 . S
H1192 C1188 0.930 . S
H1193 C1190 0.929 . S
S1194 N1195 1.613 . S
S1194 N1196 1.610 . S
N1195 S1194 1.613 . S
N1195 C1198 1.350 . S
N1196 S1194 1.610 . S
N1196 C1197 1.351 . S
C1197 C1191 1.428 . S
C1197 N1196 1.351 . S
C1197 C1198 1.434 . S
C1198 C1189 1.429 . S
C1198 N1195 1.350 . S
C1198 C1197 1.434 . S
C1199 C1200 1.369 . S
C1199 C1201 1.419 . S
C1199 H1203 0.930 . S
C1200 C1199 1.369 . S
C1200 C1209 1.429 . S
C1201 C1199 1.419 . S
C1201 C1202 1.363 . S
C1201 H1204 0.929 . S
C1202 C1201 1.363 . S
C1202 C1208 1.428 . S
H1203 C1199 0.930 . S
H1204 C1201 0.929 . S
S1205 N1206 1.613 . S
S1205 N1207 1.610 . S
N1206 S1205 1.613 . S
N1206 C1209 1.350 . S
N1207 S1205 1.610 . S
N1207 C1208 1.351 . S
C1208 C1202 1.428 . S
C1208 N1207 1.351 . S
C1208 C1209 1.434 . S
C1209 C1200 1.429 . S
C1209 N1206 1.350 . S
C1209 C1208 1.434 . S
C1210 C1211 1.369 . S
C1210 C1212 1.419 . S
C1210 H1214 0.930 . S
C1211 C1210 1.369 . S
C1211 C1220 1.429 . S
C1212 C1210 1.419 . S
C1212 C1213 1.363 . S
C1212 H1215 0.929 . S
C1213 C1212 1.363 . S
C1213 C1219 1.428 . S
H1214 C1210 0.930 . S
H1215 C1212 0.929 . S
S1216 N1217 1.613 . S
S1216 N1218 1.610 . S
N1217 S1216 1.613 . S
N1217 C1220 1.350 . S
N1218 S1216 1.610 . S
N1218 C1219 1.351 . S
C1219 C1213 1.428 . S
C1219 N1218 1.351 . S
C1219 C1220 1.434 . S
C1220 C1211 1.429 . S
C1220 N1217 1.350 . S
C1220 C1219 1.434 . S
C1221 C1222 1.369 . S
C1221 C1223 1.419 . S
C1221 H1225 0.930 . S
C1222 C1221 1.369 . S
C1222 C1231 1.429 . S
C1223 C1221 1.419 . S
C1223 C1224 1.363 . S
C1223 H1226 0.929 . S
C1224 C1223 1.363 . S
C1224 C1230 1.428 . S
H1225 C1221 0.930 . S
H1226 C1223 0.929 . S
S1227 N1228 1.613 . S
S1227 N1229 1.610 . S
N1228 S1227 1.613 . S
N1228 C1231 1.350 . S
N1229 S1227 1.610 . S
N1229 C1230 1.351 . S
C1230 C1224 1.428 . S
C1230 N1229 1.351 . S
C1230 C1231 1.434 . S
C1231 C1222 1.429 . S
C1231 N1228 1.350 . S
C1231 C1230 1.434 . S
C1232 C1233 1.369 . S
C1232 C1234 1.419 . S
C1232 H1236 0.930 . S
C1233 C1232 1.369 . S
C1233 C1242 1.429 . S
C1234 C1232 1.419 . S
C1234 C1235 1.363 . S
C1234 H1237 0.929 . S
C1235 C1234 1.363 . S
C1235 C1241 1.428 . S
H1236 C1232 0.930 . S
H1237 C1234 0.929 . S
S1238 N1239 1.613 . S
S1238 N1240 1.610 . S
N1239 S1238 1.613 . S
N1239 C1242 1.350 . S
N1240 S1238 1.610 . S
N1240 C1241 1.351 . S
C1241 C1235 1.428 . S
C1241 N1240 1.351 . S
C1241 C1242 1.434 . S
C1242 C1233 1.429 . S
C1242 N1239 1.350 . S
C1242 C1241 1.434 . S
C1243 C1244 1.369 . S
C1243 C1245 1.419 . S
C1243 H1247 0.930 . S
C1244 C1243 1.369 . S
C1244 C1253 1.429 . S
C1245 C1243 1.419 . S
C1245 C1246 1.363 . S
C1245 H1248 0.929 . S
C1246 C1245 1.363 . S
C1246 C1252 1.428 . S
H1247 C1243 0.930 . S
H1248 C1245 0.929 . S
S1249 N1250 1.613 . S
S1249 N1251 1.610 . S
N1250 S1249 1.613 . S
N1250 C1253 1.350 . S
N1251 S1249 1.610 . S
N1251 C1252 1.351 . S
C1252 C1246 1.428 . S
C1252 N1251 1.351 . S
C1252 C1253 1.434 . S
C1253 C1244 1.429 . S
C1253 N1250 1.350 . S
C1253 C1252 1.434 . S
C1254 C1255 1.369 . S
C1254 C1256 1.419 . S
C1254 H1258 0.930 . S
C1255 C1254 1.369 . S
C1255 C1264 1.429 . S
C1256 C1254 1.419 . S
C1256 C1257 1.363 . S
C1256 H1259 0.929 . S
C1257 C1256 1.363 . S
C1257 C1263 1.428 . S
H1258 C1254 0.930 . S
H1259 C1256 0.929 . S
S1260 N1261 1.613 . S
S1260 N1262 1.610 . S
N1261 S1260 1.613 . S
N1261 C1264 1.350 . S
N1262 S1260 1.610 . S
N1262 C1263 1.351 . S
C1263 C1257 1.428 . S
C1263 N1262 1.351 . S
C1263 C1264 1.434 . S
C1264 C1255 1.429 . S
C1264 N1261 1.350 . S
C1264 C1263 1.434 . S
C1265 C1266 1.369 . S
C1265 C1267 1.419 . S
C1265 H1269 0.930 . S
C1266 C1265 1.369 . S
C1266 C1275 1.429 . S
C1267 C1265 1.419 . S
C1267 C1268 1.363 . S
C1267 H1270 0.929 . S
C1268 C1267 1.363 . S
C1268 C1274 1.428 . S
H1269 C1265 0.930 . S
H1270 C1267 0.929 . S
S1271 N1272 1.613 . S
S1271 N1273 1.610 . S
N1272 S1271 1.613 . S
N1272 C1275 1.350 . S
N1273 S1271 1.610 . S
N1273 C1274 1.351 . S
C1274 C1268 1.428 . S
C1274 N1273 1.351 . S
C1274 C1275 1.434 . S
C1275 C1266 1.429 . S
C1275 N1272 1.350 . S
C1275 C1274 1.434 . S
C1276 C1277 1.369 . S
C1276 C1278 1.419 . S
C1276 H1280 0.930 . S
C1277 C1276 1.369 . S
C1277 C1286 1.429 . S
C1278 C1276 1.419 . S
C1278 C1279 1.363 . S
C1278 H1281 0.929 . S
C1279 C1278 1.363 . S
C1279 C1285 1.428 . S
H1280 C1276 0.930 . S
H1281 C1278 0.929 . S
S1282 N1283 1.613 . S
S1282 N1284 1.610 . S
N1283 S1282 1.613 . S
N1283 C1286 1.350 . S
N1284 S1282 1.610 . S
N1284 C1285 1.351 . S
C1285 C1279 1.428 . S
C1285 N1284 1.351 . S
C1285 C1286 1.434 . S
C1286 C1277 1.429 . S
C1286 N1283 1.350 . S
C1286 C1285 1.434 . S
C1287 C1288 1.369 . S
C1287 C1289 1.419 . S
C1287 H1291 0.930 . S
C1288 C1287 1.369 . S
C1288 C1297 1.429 . S
C1289 C1287 1.419 . S
C1289 C1290 1.363 . S
C1289 H1292 0.929 . S
C1290 C1289 1.363 . S
C1290 C1296 1.428 . S
H1291 C1287 0.930 . S
H1292 C1289 0.929 . S
S1293 N1294 1.613 . S
S1293 N1295 1.610 . S
N1294 S1293 1.613 . S
N1294 C1297 1.350 . S
N1295 S1293 1.610 . S
N1295 C1296 1.351 . S
C1296 C1290 1.428 . S
C1296 N1295 1.351 . S
C1296 C1297 1.434 . S
C1297 C1288 1.429 . S
C1297 N1294 1.350 . S
C1297 C1296 1.434 . S
C1298 C1299 1.369 . S
C1298 C1300 1.419 . S
C1298 H1302 0.930 . S
C1299 C1298 1.369 . S
C1299 C1308 1.429 . S
C1300 C1298 1.419 . S
C1300 C1301 1.363 . S
C1300 H1303 0.929 . S
C1301 C1300 1.363 . S
C1301 C1307 1.428 . S
H1302 C1298 0.930 . S
H1303 C1300 0.929 . S
S1304 N1305 1.613 . S
S1304 N1306 1.610 . S
N1305 S1304 1.613 . S
N1305 C1308 1.350 . S
N1306 S1304 1.610 . S
N1306 C1307 1.351 . S
C1307 C1301 1.428 . S
C1307 N1306 1.351 . S
C1307 C1308 1.434 . S
C1308 C1299 1.429 . S
C1308 N1305 1.350 . S
C1308 C1307 1.434 . S
C1309 C1310 1.369 . S
C1309 C1311 1.419 . S
C1309 H1313 0.930 . S
C1310 C1309 1.369 . S
C1310 C1319 1.429 . S
C1311 C1309 1.419 . S
C1311 C1312 1.363 . S
C1311 H1314 0.929 . S
C1312 C1311 1.363 . S
C1312 C1318 1.428 . S
H1313 C1309 0.930 . S
H1314 C1311 0.929 . S
S1315 N1316 1.613 1_556 S
S1315 N1317 1.610 . S
N1316 S1315 1.613 1_554 S
N1316 C1319 1.350 . S
N1317 S1315 1.610 . S
N1317 C1318 1.351 1_556 S
C1318 C1312 1.428 . S
C1318 N1317 1.351 1_554 S
C1318 C1319 1.434 . S
C1319 C1310 1.429 . S
C1319 N1316 1.350 . S
C1319 C1318 1.434 . S
C1320 C1321 1.369 . S
C1320 C1322 1.419 . S
C1320 H1324 0.930 . S
C1321 C1320 1.369 . S
C1321 C1330 1.429 . S
C1322 C1320 1.419 . S
C1322 C1323 1.363 . S
C1322 H1325 0.929 . S
C1323 C1322 1.363 . S
C1323 C1329 1.428 . S
H1324 C1320 0.930 . S
H1325 C1322 0.929 . S
S1326 N1327 1.613 . S
S1326 N1328 1.610 . S
N1327 S1326 1.613 . S
N1327 C1330 1.350 . S
N1328 S1326 1.610 . S
N1328 C1329 1.351 . S
C1329 C1323 1.428 . S
C1329 N1328 1.351 . S
C1329 C1330 1.434 . S
C1330 C1321 1.429 . S
C1330 N1327 1.350 . S
C1330 C1329 1.434 . S
C1331 C1332 1.369 . S
C1331 C1333 1.419 . S
C1331 H1335 0.930 . S
C1332 C1331 1.369 . S
C1332 C1341 1.429 . S
C1333 C1331 1.419 . S
C1333 C1334 1.363 . S
C1333 H1336 0.929 . S
C1334 C1333 1.363 . S
C1334 C1340 1.428 . S
H1335 C1331 0.930 . S
H1336 C1333 0.929 . S
S1337 N1338 1.613 1_554 S
S1337 N1339 1.610 1_554 S
N1338 S1337 1.613 1_556 S
N1338 C1341 1.350 . S
N1339 S1337 1.610 1_556 S
N1339 C1340 1.351 . S
C1340 C1334 1.428 . S
C1340 N1339 1.351 . S
C1340 C1341 1.434 . S
C1341 C1332 1.429 . S
C1341 N1338 1.350 . S
C1341 C1340 1.434 . S
C1342 C1343 1.369 . S
C1342 C1344 1.419 . S
C1342 H1346 0.930 . S
C1343 C1342 1.369 . S
C1343 C1352 1.429 . S
C1344 C1342 1.419 . S
C1344 C1345 1.363 . S
C1344 H1347 0.929 . S
C1345 C1344 1.363 . S
C1345 C1351 1.428 . S
H1346 C1342 0.930 . S
H1347 C1344 0.929 . S
S1348 N1349 1.613 . S
S1348 N1350 1.610 . S
N1349 S1348 1.613 . S
N1349 C1352 1.350 . S
N1350 S1348 1.610 . S
N1350 C1351 1.351 . S
C1351 C1345 1.428 . S
C1351 N1350 1.351 . S
C1351 C1352 1.434 . S
C1352 C1343 1.429 . S
C1352 N1349 1.350 . S
C1352 C1351 1.434 . S
C1353 C1354 1.369 . S
C1353 C1355 1.419 . S
C1353 H1357 0.930 . S
C1354 C1353 1.369 . S
C1354 C1363 1.429 . S
C1355 C1353 1.419 . S
C1355 C1356 1.363 . S
C1355 H1358 0.929 . S
C1356 C1355 1.363 . S
C1356 C1362 1.428 . S
H1357 C1353 0.930 . S
H1358 C1355 0.929 . S
S1359 N1360 1.613 . S
S1359 N1361 1.610 . S
N1360 S1359 1.613 . S
N1360 C1363 1.350 . S
N1361 S1359 1.610 . S
N1361 C1362 1.351 . S
C1362 C1356 1.428 . S
C1362 N1361 1.351 . S
C1362 C1363 1.434 . S
C1363 C1354 1.429 . S
C1363 N1360 1.350 . S
C1363 C1362 1.434 . S
C1364 C1365 1.369 . S
C1364 C1366 1.419 . S
C1364 H1368 0.930 . S
C1365 C1364 1.369 . S
C1365 C1374 1.429 . S
C1366 C1364 1.419 . S
C1366 C1367 1.363 . S
C1366 H1369 0.929 . S
C1367 C1366 1.363 . S
C1367 C1373 1.428 . S
H1368 C1364 0.930 . S
H1369 C1366 0.929 . S
S1370 N1371 1.613 . S
S1370 N1372 1.610 . S
N1371 S1370 1.613 . S
N1371 C1374 1.350 . S
N1372 S1370 1.610 . S
N1372 C1373 1.351 . S
C1373 C1367 1.428 . S
C1373 N1372 1.351 . S
C1373 C1374 1.434 . S
C1374 C1365 1.429 . S
C1374 N1371 1.350 . S
C1374 C1373 1.434 . S
C1375 C1376 1.369 . S
C1375 C1377 1.419 . S
C1375 H1379 0.930 . S
C1376 C1375 1.369 . S
C1376 C1385 1.429 . S
C1377 C1375 1.419 . S
C1377 C1378 1.363 . S
C1377 H1380 0.929 . S
C1378 C1377 1.363 . S
C1378 C1384 1.428 . S
H1379 C1375 0.930 . S
H1380 C1377 0.929 . S
S1381 N1382 1.613 . S
S1381 N1383 1.610 . S
N1382 S1381 1.613 . S
N1382 C1385 1.350 . S
N1383 S1381 1.610 . S
N1383 C1384 1.351 . S
C1384 C1378 1.428 . S
C1384 N1383 1.351 . S
C1384 C1385 1.434 . S
C1385 C1376 1.429 . S
C1385 N1382 1.350 . S
C1385 C1384 1.434 . S
C1386 C1387 1.369 . S
C1386 C1388 1.419 . S
C1386 H1390 0.930 . S
C1387 C1386 1.369 . S
C1387 C1396 1.429 . S
C1388 C1386 1.419 . S
C1388 C1389 1.363 . S
C1388 H1391 0.929 . S
C1389 C1388 1.363 . S
C1389 C1395 1.428 . S
H1390 C1386 0.930 . S
H1391 C1388 0.929 . S
S1392 N1393 1.613 . S
S1392 N1394 1.610 . S
N1393 S1392 1.613 . S
N1393 C1396 1.350 . S
N1394 S1392 1.610 . S
N1394 C1395 1.351 . S
C1395 C1389 1.428 . S
C1395 N1394 1.351 . S
C1395 C1396 1.434 . S
C1396 C1387 1.429 . S
C1396 N1393 1.350 . S
C1396 C1395 1.434 . S
C1397 C1398 1.369 . S
C1397 C1399 1.419 . S
C1397 H1401 0.930 . S
C1398 C1397 1.369 . S
C1398 C1407 1.429 . S
C1399 C1397 1.419 . S
C1399 C1400 1.363 . S
C1399 H1402 0.929 . S
C1400 C1399 1.363 . S
C1400 C1406 1.428 . S
H1401 C1397 0.930 . S
H1402 C1399 0.929 . S
S1403 N1404 1.613 . S
S1403 N1405 1.610 . S
N1404 S1403 1.613 . S
N1404 C1407 1.350 . S
N1405 S1403 1.610 . S
N1405 C1406 1.351 . S
C1406 C1400 1.428 . S
C1406 N1405 1.351 . S
C1406 C1407 1.434 . S
C1407 C1398 1.429 . S
C1407 N1404 1.350 . S
C1407 C1406 1.434 . S
C1408 C1409 1.369 . S
C1408 C1410 1.419 . S
C1408 H1412 0.930 . S
C1409 C1408 1.369 . S
C1409 C1418 1.429 . S
C1410 C1408 1.419 . S
C1410 C1411 1.363 . S
C1410 H1413 0.929 . S
C1411 C1410 1.363 . S
C1411 C1417 1.428 . S
H1412 C1408 0.930 . S
H1413 C1410 0.929 . S
S1414 N1415 1.613 . S
S1414 N1416 1.610 . S
N1415 S1414 1.613 . S
N1415 C1418 1.350 . S
N1416 S1414 1.610 . S
N1416 C1417 1.351 . S
C1417 C1411 1.428 . S
C1417 N1416 1.351 . S
C1417 C1418 1.434 . S
C1418 C1409 1.429 . S
C1418 N1415 1.350 . S
C1418 C1417 1.434 . S
C1419 C1420 1.369 . S
C1419 C1421 1.419 . S
C1419 H1423 0.930 . S
C1420 C1419 1.369 . S
C1420 C1429 1.429 . S
C1421 C1419 1.419 . S
C1421 C1422 1.363 . S
C1421 H1424 0.929 . S
C1422 C1421 1.363 . S
C1422 C1428 1.428 . S
H1423 C1419 0.930 . S
H1424 C1421 0.929 . S
S1425 N1426 1.613 . S
S1425 N1427 1.610 . S
N1426 S1425 1.613 . S
N1426 C1429 1.350 . S
N1427 S1425 1.610 . S
N1427 C1428 1.351 . S
C1428 C1422 1.428 . S
C1428 N1427 1.351 . S
C1428 C1429 1.434 . S
C1429 C1420 1.429 . S
C1429 N1426 1.350 . S
C1429 C1428 1.434 . S
C1430 C1431 1.369 . S
C1430 C1432 1.419 . S
C1430 H1434 0.930 . S
C1431 C1430 1.369 . S
C1431 C1440 1.429 . S
C1432 C1430 1.419 . S
C1432 C1433 1.363 . S
C1432 H1435 0.929 . S
C1433 C1432 1.363 . S
C1433 C1439 1.428 . S
H1434 C1430 0.930 . S
H1435 C1432 0.929 . S
S1436 N1437 1.613 . S
S1436 N1438 1.610 . S
N1437 S1436 1.613 . S
N1437 C1440 1.350 . S
N1438 S1436 1.610 . S
N1438 C1439 1.351 . S
C1439 C1433 1.428 . S
C1439 N1438 1.351 . S
C1439 C1440 1.434 . S
C1440 C1431 1.429 . S
C1440 N1437 1.350 . S
C1440 C1439 1.434 . S
C1441 C1442 1.369 . S
C1441 C1443 1.419 . S
C1441 H1445 0.930 . S
C1442 C1441 1.369 . S
C1442 C1451 1.429 . S
C1443 C1441 1.419 . S
C1443 C1444 1.363 . S
C1443 H1446 0.929 . S
C1444 C1443 1.363 . S
C1444 C1450 1.428 . S
H1445 C1441 0.930 . S
H1446 C1443 0.929 . S
S1447 N1448 1.613 . S
S1447 N1449 1.610 . S
N1448 S1447 1.613 . S
N1448 C1451 1.350 . S
N1449 S1447 1.610 . S
N1449 C1450 1.351 . S
C1450 C1444 1.428 . S
C1450 N1449 1.351 . S
C1450 C1451 1.434 . S
C1451 C1442 1.429 . S
C1451 N1448 1.350 . S
C1451 C1450 1.434 . S
C1452 C1453 1.369 . S
C1452 C1454 1.419 . S
C1452 H1456 0.930 . S
C1453 C1452 1.369 . S
C1453 C1462 1.429 . S
C1454 C1452 1.419 . S
C1454 C1455 1.363 . S
C1454 H1457 0.929 . S
C1455 C1454 1.363 . S
C1455 C1461 1.428 . S
H1456 C1452 0.930 . S
H1457 C1454 0.929 . S
S1458 N1459 1.613 . S
S1458 N1460 1.610 . S
N1459 S1458 1.613 . S
N1459 C1462 1.350 . S
N1460 S1458 1.610 . S
N1460 C1461 1.351 . S
C1461 C1455 1.428 . S
C1461 N1460 1.351 . S
C1461 C1462 1.434 . S
C1462 C1453 1.429 . S
C1462 N1459 1.350 . S
C1462 C1461 1.434 . S
C1463 C1464 1.369 . S
C1463 C1465 1.419 . S
C1463 H1467 0.930 . S
C1464 C1463 1.369 . S
C1464 C1473 1.429 . S
C1465 C1463 1.419 . S
C1465 C1466 1.363 . S
C1465 H1468 0.929 . S
C1466 C1465 1.363 . S
C1466 C1472 1.428 . S
H1467 C1463 0.930 . S
H1468 C1465 0.929 . S
S1469 N1470 1.613 . S
S1469 N1471 1.610 . S
N1470 S1469 1.613 . S
N1470 C1473 1.350 . S
N1471 S1469 1.610 . S
N1471 C1472 1.351 . S
C1472 C1466 1.428 . S
C1472 N1471 1.351 . S
C1472 C1473 1.434 . S
C1473 C1464 1.429 . S
C1473 N1470 1.350 . S
C1473 C1472 1.434 . S
C1474 C1475 1.369 . S
C1474 C1476 1.419 . S
C1474 H1478 0.930 . S
C1475 C1474 1.369 . S
C1475 C1484 1.429 . S
C1476 C1474 1.419 . S
C1476 C1477 1.363 . S
C1476 H1479 0.929 . S
C1477 C1476 1.363 . S
C1477 C1483 1.428 . S
H1478 C1474 0.930 . S
H1479 C1476 0.929 . S
S1480 N1481 1.613 . S
S1480 N1482 1.610 . S
N1481 S1480 1.613 . S
N1481 C1484 1.350 . S
N1482 S1480 1.610 . S
N1482 C1483 1.351 . S
C1483 C1477 1.428 . S
C1483 N1482 1.351 . S
C1483 C1484 1.434 . S
C1484 C1475 1.429 . S
C1484 N1481 1.350 . S
C1484 C1483 1.434 . S
C1485 C1486 1.369 . S
C1485 C1487 1.419 . S
C1485 H1489 0.930 . S
C1486 C1485 1.369 . S
C1486 C1495 1.429 . S
C1487 C1485 1.419 . S
C1487 C1488 1.363 . S
C1487 H1490 0.929 . S
C1488 C1487 1.363 . S
C1488 C1494 1.428 . S
H1489 C1485 0.930 . S
H1490 C1487 0.929 . S
S1491 N1492 1.613 . S
S1491 N1493 1.610 . S
N1492 S1491 1.613 . S
N1492 C1495 1.350 . S
N1493 S1491 1.610 . S
N1493 C1494 1.351 . S
C1494 C1488 1.428 . S
C1494 N1493 1.351 . S
C1494 C1495 1.434 . S
C1495 C1486 1.429 . S
C1495 N1492 1.350 . S
C1495 C1494 1.434 . S
C1496 C1497 1.369 . S
C1496 C1498 1.419 . S
C1496 H1500 0.930 . S
C1497 C1496 1.369 . S
C1497 C1506 1.429 . S
C1498 C1496 1.419 . S
C1498 C1499 1.363 . S
C1498 H1501 0.929 . S
C1499 C1498 1.363 . S
C1499 C1505 1.428 . S
H1500 C1496 0.930 . S
H1501 C1498 0.929 . S
S1502 N1503 1.613 . S
S1502 N1504 1.610 . S
N1503 S1502 1.613 . S
N1503 C1506 1.350 . S
N1504 S1502 1.610 . S
N1504 C1505 1.351 . S
C1505 C1499 1.428 . S
C1505 N1504 1.351 . S
C1505 C1506 1.434 . S
C1506 C1497 1.429 . S
C1506 N1503 1.350 . S
C1506 C1505 1.434 . S
C1507 C1508 1.369 . S
C1507 C1509 1.419 . S
C1507 H1511 0.930 . S
C1508 C1507 1.369 . S
C1508 C1517 1.429 . S
C1509 C1507 1.419 . S
C1509 C1510 1.363 . S
C1509 H1512 0.929 . S
C1510 C1509 1.363 . S
C1510 C1516 1.428 . S
H1511 C1507 0.930 . S
H1512 C1509 0.929 . S
S1513 N1514 1.613 . S
S1513 N1515 1.610 . S
N1514 S1513 1.613 . S
N1514 C1517 1.350 . S
N1515 S1513 1.610 . S
N1515 C1516 1.351 . S
C1516 C1510 1.428 . S
C1516 N1515 1.351 . S
C1516 C1517 1.434 . S
C1517 C1508 1.429 . S
C1517 N1514 1.350 . S
C1517 C1516 1.434 . S
C1518 C1519 1.369 . S
C1518 C1520 1.419 . S
C1518 H1522 0.930 . S
C1519 C1518 1.369 . S
C1519 C1528 1.429 . S
C1520 C1518 1.419 . S
C1520 C1521 1.363 . S
C1520 H1523 0.929 . S
C1521 C1520 1.363 . S
C1521 C1527 1.428 . S
H1522 C1518 0.930 . S
H1523 C1520 0.929 . S
S1524 N1525 1.613 . S
S1524 N1526 1.610 . S
N1525 S1524 1.613 . S
N1525 C1528 1.350 . S
N1526 S1524 1.610 . S
N1526 C1527 1.351 . S
C1527 C1521 1.428 . S
C1527 N1526 1.351 . S
C1527 C1528 1.434 . S
C1528 C1519 1.429 . S
C1528 N1525 1.350 . S
C1528 C1527 1.434 . S
C1529 C1530 1.369 . S
C1529 C1531 1.419 . S
C1529 H1533 0.930 . S
C1530 C1529 1.369 . S
C1530 C1539 1.429 . S
C1531 C1529 1.419 . S
C1531 C1532 1.363 . S
C1531 H1534 0.929 . S
C1532 C1531 1.363 . S
C1532 C1538 1.428 . S
H1533 C1529 0.930 . S
H1534 C1531 0.929 . S
S1535 N1536 1.613 . S
S1535 N1537 1.610 . S
N1536 S1535 1.613 . S
N1536 C1539 1.350 . S
N1537 S1535 1.610 . S
N1537 C1538 1.351 . S
C1538 C1532 1.428 . S
C1538 N1537 1.351 . S
C1538 C1539 1.434 . S
C1539 C1530 1.429 . S
C1539 N1536 1.350 . S
C1539 C1538 1.434 . S
C1540 C1541 1.369 . S
C1540 C1542 1.419 . S
C1540 H1544 0.930 . S
C1541 C1540 1.369 . S
C1541 C1550 1.429 . S
C1542 C1540 1.419 . S
C1542 C1543 1.363 . S
C1542 H1545 0.929 . S
C1543 C1542 1.363 . S
C1543 C1549 1.428 . S
H1544 C1540 0.930 . S
H1545 C1542 0.929 . S
S1546 N1547 1.613 . S
S1546 N1548 1.610 . S
N1547 S1546 1.613 . S
N1547 C1550 1.350 . S
N1548 S1546 1.610 . S
N1548 C1549 1.351 . S
C1549 C1543 1.428 . S
C1549 N1548 1.351 . S
C1549 C1550 1.434 . S
C1550 C1541 1.429 . S
C1550 N1547 1.350 . S
C1550 C1549 1.434 . S
C1551 C1552 1.369 . S
C1551 C1553 1.419 . S
C1551 H1555 0.930 . S
C1552 C1551 1.369 . S
C1552 C1561 1.429 . S
C1553 C1551 1.419 . S
C1553 C1554 1.363 . S
C1553 H1556 0.929 . S
C1554 C1553 1.363 . S
C1554 C1560 1.428 . S
H1555 C1551 0.930 . S
H1556 C1553 0.929 . S
S1557 N1558 1.613 . S
S1557 N1559 1.610 . S
N1558 S1557 1.613 . S
N1558 C1561 1.350 . S
N1559 S1557 1.610 . S
N1559 C1560 1.351 . S
C1560 C1554 1.428 . S
C1560 N1559 1.351 . S
C1560 C1561 1.434 . S
C1561 C1552 1.429 . S
C1561 N1558 1.350 . S
C1561 C1560 1.434 . S
C1562 C1563 1.369 . S
C1562 C1564 1.419 . S
C1562 H1566 0.930 . S
C1563 C1562 1.369 . S
C1563 C1572 1.429 . S
C1564 C1562 1.419 . S
C1564 C1565 1.363 . S
C1564 H1567 0.929 . S
C1565 C1564 1.363 . S
C1565 C1571 1.428 . S
H1566 C1562 0.930 . S
H1567 C1564 0.929 . S
S1568 N1569 1.613 . S
S1568 N1570 1.610 . S
N1569 S1568 1.613 . S
N1569 C1572 1.350 . S
N1570 S1568 1.610 . S
N1570 C1571 1.351 . S
C1571 C1565 1.428 . S
C1571 N1570 1.351 . S
C1571 C1572 1.434 . S
C1572 C1563 1.429 . S
C1572 N1569 1.350 . S
C1572 C1571 1.434 . S
C1573 C1574 1.369 . S
C1573 C1575 1.419 . S
C1573 H1577 0.930 . S
C1574 C1573 1.369 . S
C1574 C1583 1.429 . S
C1575 C1573 1.419 . S
C1575 C1576 1.363 . S
C1575 H1578 0.929 . S
C1576 C1575 1.363 . S
C1576 C1582 1.428 . S
H1577 C1573 0.930 . S
H1578 C1575 0.929 . S
S1579 N1580 1.613 . S
S1579 N1581 1.610 . S
N1580 S1579 1.613 . S
N1580 C1583 1.350 . S
N1581 S1579 1.610 . S
N1581 C1582 1.351 . S
C1582 C1576 1.428 . S
C1582 N1581 1.351 . S
C1582 C1583 1.434 . S
C1583 C1574 1.429 . S
C1583 N1580 1.350 . S
C1583 C1582 1.434 . S
C1584 C1585 1.369 1_455 S
C1584 C1586 1.419 . S
C1584 H1588 0.930 . S
C1585 C1584 1.369 1_655 S
C1585 C1594 1.429 . S
C1586 C1584 1.419 . S
C1586 C1587 1.363 . S
C1586 H1589 0.929 . S
C1587 C1586 1.363 . S
C1587 C1593 1.428 1_455 S
H1588 C1584 0.930 . S
H1589 C1586 0.929 . S
S1590 N1591 1.613 . S
S1590 N1592 1.610 . S
N1591 S1590 1.613 . S
N1591 C1594 1.350 . S
N1592 S1590 1.610 . S
N1592 C1593 1.351 . S
C1593 C1587 1.428 1_655 S
C1593 N1592 1.351 . S
C1593 C1594 1.434 . S
C1594 C1585 1.429 . S
C1594 N1591 1.350 . S
C1594 C1593 1.434 . S
C1595 C1596 1.369 . S
C1595 C1597 1.419 . S
C1595 H1599 0.930 . S
C1596 C1595 1.369 . S
C1596 C1605 1.429 1_565 S
C1597 C1595 1.419 . S
C1597 C1598 1.363 1_565 S
C1597 H1600 0.929 . S
C1598 C1597 1.363 1_545 S
C1598 C1604 1.428 . S
H1599 C1595 0.930 . S
H1600 C1597 0.929 . S
S1601 N1602 1.613 . S
S1601 N1603 1.610 . S
N1602 S1601 1.613 . S
N1602 C1605 1.350 . S
N1603 S1601 1.610 . S
N1603 C1604 1.351 . S
C1604 C1598 1.428 . S
C1604 N1603 1.351 . S
C1604 C1605 1.434 . S
C1605 C1596 1.429 1_545 S
C1605 N1602 1.350 . S
C1605 C1604 1.434 . S
C1606 C1607 1.369 1_655 S
C1606 C1608 1.419 1_556 S
C1606 H1610 0.930 . S
C1607 C1606 1.369 1_455 S
C1607 C1616 1.429 1_545 S
C1608 C1606 1.419 1_554 S
C1608 C1609 1.363 1_545 S
C1608 H1611 0.929 . S
C1609 C1608 1.363 1_565 S
C1609 C1615 1.428 1_655 S
H1610 C1606 0.930 . S
H1611 C1608 0.929 . S
S1612 N1613 1.613 . S
S1612 N1614 1.610 1_556 S
N1613 S1612 1.613 . S
N1613 C1616 1.350 . S
N1614 S1612 1.610 1_554 S
N1614 C1615 1.351 . S
C1615 C1609 1.428 1_455 S
C1615 N1614 1.351 . S
C1615 C1616 1.434 1_554 S
C1616 C1607 1.429 1_565 S
C1616 N1613 1.350 . S
C1616 C1615 1.434 1_556 S
C1617 C1618 1.369 . S
C1617 C1619 1.419 . S
C1617 H1621 0.930 . S
C1618 C1617 1.369 . S
C1618 C1627 1.429 1_554 S
C1619 C1617 1.419 . S
C1619 C1620 1.363 1_554 S
C1619 H1622 0.929 . S
C1620 C1619 1.363 1_556 S
C1620 C1626 1.428 . S
H1621 C1617 0.930 . S
H1622 C1619 0.929 . S
S1623 N1624 1.613 . S
S1623 N1625 1.610 . S
N1624 S1623 1.613 . S
N1624 C1627 1.350 . S
N1625 S1623 1.610 . S
N1625 C1626 1.351 . S
C1626 C1620 1.428 . S
C1626 N1625 1.351 . S
C1626 C1627 1.434 . S
C1627 C1618 1.429 1_556 S
C1627 N1624 1.350 . S
C1627 C1626 1.434 . S
C1628 C1629 1.369 1_655 S
C1628 C1630 1.419 . S
C1628 H1632 0.930 . S
C1629 C1628 1.369 1_455 S
C1629 C1638 1.429 . S
C1630 C1628 1.419 . S
C1630 C1631 1.363 . S
C1630 H1633 0.929 . S
C1631 C1630 1.363 . S
C1631 C1637 1.428 1_655 S
H1632 C1628 0.930 . S
H1633 C1630 0.929 . S
S1634 N1635 1.613 . S
S1634 N1636 1.610 . S
N1635 S1634 1.613 . S
N1635 C1638 1.350 . S
N1636 S1634 1.610 . S
N1636 C1637 1.351 . S
C1637 C1631 1.428 1_455 S
C1637 N1636 1.351 . S
C1637 C1638 1.434 . S
C1638 C1629 1.429 . S
C1638 N1635 1.350 . S
C1638 C1637 1.434 . S
C1639 C1640 1.369 . S
C1639 C1641 1.419 . S
C1639 H1643 0.930 . S
C1640 C1639 1.369 . S
C1640 C1649 1.429 1_545 S
C1641 C1639 1.419 . S
C1641 C1642 1.363 1_545 S
C1641 H1644 0.929 . S
C1642 C1641 1.363 1_565 S
C1642 C1648 1.428 . S
H1643 C1639 0.930 . S
H1644 C1641 0.929 . S
S1645 N1646 1.613 . S
S1645 N1647 1.610 . S
N1646 S1645 1.613 . S
N1646 C1649 1.350 . S
N1647 S1645 1.610 . S
N1647 C1648 1.351 . S
C1648 C1642 1.428 . S
C1648 N1647 1.351 . S
C1648 C1649 1.434 . S
C1649 C1640 1.429 1_565 S
C1649 N1646 1.350 . S
C1649 C1648 1.434 . S
C1650 C1651 1.369 . S
C1650 C1652 1.419 1_556 S
C1650 H1654 0.930 . S
C1651 C1650 1.369 . S
C1651 C1660 1.429 . S
C1652 C1650 1.419 1_554 S
C1652 C1653 1.363 . S
C1652 H1655 0.929 . S
C1653 C1652 1.363 . S
C1653 C1659 1.428 . S
H1654 C1650 0.930 . S
H1655 C1652 0.929 . S
S1656 N1657 1.613 . S
S1656 N1658 1.610 1_556 S
N1657 S1656 1.613 . S
N1657 C1660 1.350 . S
N1658 S1656 1.610 1_554 S
N1658 C1659 1.351 . S
C1659 C1653 1.428 . S
C1659 N1658 1.351 . S
C1659 C1660 1.434 1_554 S
C1660 C1651 1.429 . S
C1660 N1657 1.350 . S
C1660 C1659 1.434 1_556 S
C1661 C1662 1.369 . S
C1661 C1663 1.419 . S
C1661 H1665 0.930 . S
C1662 C1661 1.369 . S
C1662 C1671 1.429 . S
C1663 C1661 1.419 . S
C1663 C1664 1.363 . S
C1663 H1666 0.929 . S
C1664 C1663 1.363 . S
C1664 C1670 1.428 . S
H1665 C1661 0.930 . S
H1666 C1663 0.929 . S
S1667 N1668 1.613 . S
S1667 N1669 1.610 . S
N1668 S1667 1.613 . S
N1668 C1671 1.350 . S
N1669 S1667 1.610 . S
N1669 C1670 1.351 . S
C1670 C1664 1.428 . S
C1670 N1669 1.351 . S
C1670 C1671 1.434 . S
C1671 C1662 1.429 . S
C1671 N1668 1.350 . S
C1671 C1670 1.434 . S
C1672 C1673 1.369 . S
C1672 C1674 1.419 1_655 S
C1672 H1676 0.930 . S
C1673 C1672 1.369 . S
C1673 C1682 1.429 . S
C1674 C1672 1.419 1_455 S
C1674 C1675 1.363 . S
C1674 H1677 0.929 . S
C1675 C1674 1.363 . S
C1675 C1681 1.428 . S
H1676 C1672 0.930 . S
H1677 C1674 0.929 . S
S1678 N1679 1.613 1_455 S
S1678 N1680 1.610 . S
N1679 S1678 1.613 1_655 S
N1679 C1682 1.350 . S
N1680 S1678 1.610 . S
N1680 C1681 1.351 . S
C1681 C1675 1.428 . S
C1681 N1680 1.351 . S
C1681 C1682 1.434 1_455 S
C1682 C1673 1.429 . S
C1682 N1679 1.350 . S
C1682 C1681 1.434 1_655 S
C1683 C1684 1.369 . S
C1683 C1685 1.419 . S
C1683 H1687 0.930 . S
C1684 C1683 1.369 . S
C1684 C1693 1.429 . S
C1685 C1683 1.419 . S
C1685 C1686 1.363 . S
C1685 H1688 0.929 . S
C1686 C1685 1.363 . S
C1686 C1692 1.428 . S
H1687 C1683 0.930 . S
H1688 C1685 0.929 . S
S1689 N1690 1.613 . S
S1689 N1691 1.610 . S
N1690 S1689 1.613 . S
N1690 C1693 1.350 . S
N1691 S1689 1.610 . S
N1691 C1692 1.351 . S
C1692 C1686 1.428 . S
C1692 N1691 1.351 . S
C1692 C1693 1.434 . S
C1693 C1684 1.429 . S
C1693 N1690 1.350 . S
C1693 C1692 1.434 . S
C1694 C1695 1.369 . S
C1694 C1696 1.419 . S
C1694 H1698 0.930 . S
C1695 C1694 1.369 . S
C1695 C1704 1.429 . S
C1696 C1694 1.419 . S
C1696 C1697 1.363 . S
C1696 H1699 0.929 . S
C1697 C1696 1.363 . S
C1697 C1703 1.428 . S
H1698 C1694 0.930 . S
H1699 C1696 0.929 . S
S1700 N1701 1.613 . S
S1700 N1702 1.610 . S
N1701 S1700 1.613 . S
N1701 C1704 1.350 . S
N1702 S1700 1.610 . S
N1702 C1703 1.351 . S
C1703 C1697 1.428 . S
C1703 N1702 1.351 . S
C1703 C1704 1.434 . S
C1704 C1695 1.429 . S
C1704 N1701 1.350 . S
C1704 C1703 1.434 . S
C1705 C1706 1.369 . S
C1705 C1707 1.419 . S
C1705 H1709 0.930 . S
C1706 C1705 1.369 . S
C1706 C1715 1.429 . S
C1707 C1705 1.419 . S
C1707 C1708 1.363 . S
C1707 H1710 0.929 . S
C1708 C1707 1.363 . S
C1708 C1714 1.428 . S
H1709 C1705 0.930 . S
H1710 C1707 0.929 . S
S1711 N1712 1.613 . S
S1711 N1713 1.610 . S
N1712 S1711 1.613 . S
N1712 C1715 1.350 . S
N1713 S1711 1.610 . S
N1713 C1714 1.351 . S
C1714 C1708 1.428 . S
C1714 N1713 1.351 . S
C1714 C1715 1.434 . S
C1715 C1706 1.429 . S
C1715 N1712 1.350 . S
C1715 C1714 1.434 . S
C1716 C1717 1.369 . S
C1716 C1718 1.419 . S
C1716 H1720 0.930 . S
C1717 C1716 1.369 . S
C1717 C1726 1.429 . S
C1718 C1716 1.419 . S
C1718 C1719 1.363 . S
C1718 H1721 0.929 . S
C1719 C1718 1.363 . S
C1719 C1725 1.428 . S
H1720 C1716 0.930 . S
H1721 C1718 0.929 . S
S1722 N1723 1.613 . S
S1722 N1724 1.610 . S
N1723 S1722 1.613 . S
N1723 C1726 1.350 . S
N1724 S1722 1.610 . S
N1724 C1725 1.351 . S
C1725 C1719 1.428 . S
C1725 N1724 1.351 . S
C1725 C1726 1.434 . S
C1726 C1717 1.429 . S
C1726 N1723 1.350 . S
C1726 C1725 1.434 . S
C1727 C1728 1.369 . S
C1727 C1729 1.419 1_545 S
C1727 H1731 0.930 . S
C1728 C1727 1.369 . S
C1728 C1737 1.482 . S
C1729 C1727 1.419 1_565 S
C1729 C1730 1.363 . S
C1729 H1732 0.929 . S
C1730 C1729 1.363 . S
C1730 C1736 1.428 . S
H1731 C1727 0.930 . S
H1732 C1729 0.929 . S
S1733 N1734 1.582 1_565 S
S1733 N1735 1.610 . S
N1734 S1733 1.582 1_545 S
N1734 C1737 1.349 . S
N1735 S1733 1.610 . S
N1735 C1736 1.351 . S
C1736 C1730 1.428 . S
C1736 N1735 1.351 . S
C1736 C1737 1.379 1_565 S
C1737 C1728 1.482 . S
C1737 N1734 1.349 . S
C1737 C1736 1.379 1_545 S
C1738 C1739 1.369 . S
C1738 C1740 1.419 . S
C1738 H1742 0.930 . S
C1739 C1738 1.369 . S
C1739 C1748 1.429 . S
C1740 C1738 1.419 . S
C1740 C1741 1.363 . S
C1740 H1743 0.929 . S
C1741 C1740 1.363 . S
C1741 C1747 1.428 . S
H1742 C1738 0.930 . S
H1743 C1740 0.929 . S
S1744 N1745 1.613 . S
S1744 N1746 1.610 . S
N1745 S1744 1.613 . S
N1745 C1748 1.350 . S
N1746 S1744 1.610 . S
N1746 C1747 1.351 . S
C1747 C1741 1.428 . S
C1747 N1746 1.351 . S
C1747 C1748 1.434 . S
C1748 C1739 1.429 . S
C1748 N1745 1.350 . S
C1748 C1747 1.434 . S
C1749 C1750 1.369 . S
C1749 C1751 1.419 . S
C1749 H1753 0.930 . S
C1750 C1749 1.369 . S
C1750 C1759 1.429 1_554 S
C1751 C1749 1.419 . S
C1751 C1752 1.363 1_554 S
C1751 H1754 0.929 . S
C1752 C1751 1.363 1_556 S
C1752 C1758 1.428 . S
H1753 C1749 0.930 . S
H1754 C1751 0.929 . S
S1755 N1756 1.613 . S
S1755 N1757 1.610 . S
N1756 S1755 1.613 . S
N1756 C1759 1.350 . S
N1757 S1755 1.610 . S
N1757 C1758 1.351 . S
C1758 C1752 1.428 . S
C1758 N1757 1.351 . S
C1758 C1759 1.434 . S
C1759 C1750 1.429 1_556 S
C1759 N1756 1.350 . S
C1759 C1758 1.434 . S
C1760 C1761 1.369 . S
C1760 C1762 1.419 . S
C1760 H1764 0.930 . S
C1761 C1760 1.369 . S
C1761 C1770 1.429 . S
C1762 C1760 1.419 . S
C1762 C1763 1.363 . S
C1762 H1765 0.929 . S
C1763 C1762 1.363 . S
C1763 C1769 1.428 . S
H1764 C1760 0.930 . S
H1765 C1762 0.929 . S
S1766 N1767 1.613 . S
S1766 N1768 1.610 . S
N1767 S1766 1.613 . S
N1767 C1770 1.350 . S
N1768 S1766 1.610 . S
N1768 C1769 1.351 . S
C1769 C1763 1.428 . S
C1769 N1768 1.351 . S
C1769 C1770 1.434 . S
C1770 C1761 1.429 . S
C1770 N1767 1.350 . S
C1770 C1769 1.434 . S
C1771 C1772 1.369 . S
C1771 C1773 1.419 . S
C1771 H1775 0.930 . S
C1772 C1771 1.369 . S
C1772 C1781 1.429 . S
C1773 C1771 1.419 . S
C1773 C1774 1.363 . S
C1773 H1776 0.929 . S
C1774 C1773 1.363 . S
C1774 C1780 1.428 . S
H1775 C1771 0.930 . S
H1776 C1773 0.929 . S
S1777 N1778 1.613 . S
S1777 N1779 1.610 . S
N1778 S1777 1.613 . S
N1778 C1781 1.350 . S
N1779 S1777 1.610 . S
N1779 C1780 1.351 . S
C1780 C1774 1.428 . S
C1780 N1779 1.351 . S
C1780 C1781 1.434 . S
C1781 C1772 1.429 . S
C1781 N1778 1.350 . S
C1781 C1780 1.434 . S
C1782 C1783 1.369 . S
C1782 C1784 1.419 . S
C1782 H1786 0.930 . S
C1783 C1782 1.369 . S
C1783 C1792 1.429 . S
C1784 C1782 1.419 . S
C1784 C1785 1.363 . S
C1784 H1787 0.929 . S
C1785 C1784 1.363 . S
C1785 C1791 1.428 . S
H1786 C1782 0.930 . S
H1787 C1784 0.929 . S
S1788 N1789 1.613 . S
S1788 N1790 1.610 . S
N1789 S1788 1.613 . S
N1789 C1792 1.350 . S
N1790 S1788 1.610 . S
N1790 C1791 1.351 . S
C1791 C1785 1.428 . S
C1791 N1790 1.351 . S
C1791 C1792 1.434 . S
C1792 C1783 1.429 . S
C1792 N1789 1.350 . S
C1792 C1791 1.434 . S
C1793 C1794 1.369 . S
C1793 C1795 1.419 . S
C1793 H1797 0.930 . S
C1794 C1793 1.369 . S
C1794 C1803 1.429 . S
C1795 C1793 1.419 . S
C1795 C1796 1.363 . S
C1795 H1798 0.929 . S
C1796 C1795 1.363 . S
C1796 C1802 1.428 . S
H1797 C1793 0.930 . S
H1798 C1795 0.929 . S
S1799 N1800 1.613 . S
S1799 N1801 1.610 . S
N1800 S1799 1.613 . S
N1800 C1803 1.350 . S
N1801 S1799 1.610 . S
N1801 C1802 1.351 . S
C1802 C1796 1.428 . S
C1802 N1801 1.351 . S
C1802 C1803 1.434 . S
C1803 C1794 1.429 . S
C1803 N1800 1.350 . S
C1803 C1802 1.434 . S
C1804 C1805 1.369 . S
C1804 C1806 1.419 . S
C1804 H1808 0.930 . S
C1805 C1804 1.369 . S
C1805 C1814 1.429 . S
C1806 C1804 1.419 . S
C1806 C1807 1.363 . S
C1806 H1809 0.929 . S
C1807 C1806 1.363 . S
C1807 C1813 1.428 . S
H1808 C1804 0.930 . S
H1809 C1806 0.929 . S
S1810 N1811 1.613 . S
S1810 N1812 1.610 . S
N1811 S1810 1.613 . S
N1811 C1814 1.350 . S
N1812 S1810 1.610 . S
N1812 C1813 1.351 . S
C1813 C1807 1.428 . S
C1813 N1812 1.351 . S
C1813 C1814 1.434 . S
C1814 C1805 1.429 . S
C1814 N1811 1.350 . S
C1814 C1813 1.434 . S
C1815 C1816 1.369 . S
C1815 C1817 1.419 . S
C1815 H1819 0.930 . S
C1816 C1815 1.369 . S
C1816 C1825 1.429 . S
C1817 C1815 1.419 . S
C1817 C1818 1.363 . S
C1817 H1820 0.929 . S
C1818 C1817 1.363 . S
C1818 C1824 1.428 . S
H1819 C1815 0.930 . S
H1820 C1817 0.929 . S
S1821 N1822 1.613 . S
S1821 N1823 1.610 . S
N1822 S1821 1.613 . S
N1822 C1825 1.350 . S
N1823 S1821 1.610 . S
N1823 C1824 1.351 . S
C1824 C1818 1.428 . S
C1824 N1823 1.351 . S
C1824 C1825 1.434 . S
C1825 C1816 1.429 . S
C1825 N1822 1.350 . S
C1825 C1824 1.434 . S
C1826 C1827 1.369 . S
C1826 C1828 1.419 . S
C1826 H1830 0.930 . S
C1827 C1826 1.369 . S
C1827 C1836 1.429 . S
C1828 C1826 1.419 . S
C1828 C1829 1.363 . S
C1828 H1831 0.929 . S
C1829 C1828 1.363 . S
C1829 C1835 1.428 . S
H1830 C1826 0.930 . S
H1831 C1828 0.929 . S
S1832 N1833 1.613 . S
S1832 N1834 1.610 . S
N1833 S1832 1.613 . S
N1833 C1836 1.350 . S
N1834 S1832 1.610 . S
N1834 C1835 1.351 . S
C1835 C1829 1.428 . S
C1835 N1834 1.351 . S
C1835 C1836 1.434 . S
C1836 C1827 1.429 . S
C1836 N1833 1.350 . S
C1836 C1835 1.434 . S
C1837 C1838 1.369 . S
C1837 C1839 1.419 . S
C1837 H1841 0.930 . S
C1838 C1837 1.369 . S
C1838 C1847 1.429 . S
C1839 C1837 1.419 . S
C1839 C1840 1.363 . S
C1839 H1842 0.929 . S
C1840 C1839 1.363 . S
C1840 C1846 1.428 . S
H1841 C1837 0.930 . S
H1842 C1839 0.929 . S
S1843 N1844 1.613 . S
S1843 N1845 1.610 . S
N1844 S1843 1.613 . S
N1844 C1847 1.350 . S
N1845 S1843 1.610 . S
N1845 C1846 1.351 . S
C1846 C1840 1.428 . S
C1846 N1845 1.351 . S
C1846 C1847 1.434 . S
C1847 C1838 1.429 . S
C1847 N1844 1.350 . S
C1847 C1846 1.434 . S
C1848 C1849 1.369 . S
C1848 C1850 1.419 . S
C1848 H1852 0.930 . S
C1849 C1848 1.369 . S
C1849 C1858 1.429 . S
C1850 C1848 1.419 . S
C1850 C1851 1.363 . S
C1850 H1853 0.929 . S
C1851 C1850 1.363 . S
C1851 C1857 1.428 . S
H1852 C1848 0.930 . S
H1853 C1850 0.929 . S
S1854 N1855 1.613 . S
S1854 N1856 1.610 . S
N1855 S1854 1.613 . S
N1855 C1858 1.350 . S
N1856 S1854 1.610 . S
N1856 C1857 1.351 . S
C1857 C1851 1.428 . S
C1857 N1856 1.351 . S
C1857 C1858 1.434 . S
C1858 C1849 1.429 . S
C1858 N1855 1.350 . S
C1858 C1857 1.434 . S
C1859 C1860 1.369 . S
C1859 C1861 1.419 . S
C1859 H1863 0.930 . S
C1860 C1859 1.369 . S
C1860 C1869 1.429 . S
C1861 C1859 1.419 . S
C1861 C1862 1.363 . S
C1861 H1864 0.929 . S
C1862 C1861 1.363 . S
C1862 C1868 1.428 . S
H1863 C1859 0.930 . S
H1864 C1861 0.929 . S
S1865 N1866 1.613 . S
S1865 N1867 1.610 . S
N1866 S1865 1.613 . S
N1866 C1869 1.350 . S
N1867 S1865 1.610 . S
N1867 C1868 1.351 . S
C1868 C1862 1.428 . S
C1868 N1867 1.351 . S
C1868 C1869 1.434 . S
C1869 C1860 1.429 . S
C1869 N1866 1.350 . S
C1869 C1868 1.434 . S
C1870 C1871 1.369 . S
C1870 C1872 1.419 . S
C1870 H1874 0.930 . S
C1871 C1870 1.369 . S
C1871 C1880 1.429 . S
C1872 C1870 1.419 . S
C1872 C1873 1.363 . S
C1872 H1875 0.929 . S
C1873 C1872 1.363 . S
C1873 C1879 1.428 . S
H1874 C1870 0.930 . S
H1875 C1872 0.929 . S
S1876 N1877 1.613 . S
S1876 N1878 1.610 . S
N1877 S1876 1.613 . S
N1877 C1880 1.350 . S
N1878 S1876 1.610 . S
N1878 C1879 1.351 . S
C1879 C1873 1.428 . S
C1879 N1878 1.351 . S
C1879 C1880 1.434 . S
C1880 C1871 1.429 . S
C1880 N1877 1.350 . S
C1880 C1879 1.434 . S
C1881 C1882 1.369 . S
C1881 C1883 1.419 . S
C1881 H1885 0.930 . S
C1882 C1881 1.369 . S
C1882 C1891 1.429 . S
C1883 C1881 1.419 . S
C1883 C1884 1.363 . S
C1883 H1886 0.929 . S
C1884 C1883 1.363 . S
C1884 C1890 1.428 . S
H1885 C1881 0.930 . S
H1886 C1883 0.929 . S
S1887 N1888 1.613 . S
S1887 N1889 1.610 . S
N1888 S1887 1.613 . S
N1888 C1891 1.350 . S
N1889 S1887 1.610 . S
N1889 C1890 1.351 . S
C1890 C1884 1.428 . S
C1890 N1889 1.351 . S
C1890 C1891 1.434 . S
C1891 C1882 1.429 . S
C1891 N1888 1.350 . S
C1891 C1890 1.434 . S
C1892 C1893 1.369 . S
C1892 C1894 1.419 . S
C1892 H1896 0.930 . S
C1893 C1892 1.369 . S
C1893 C1902 1.429 . S
C1894 C1892 1.419 . S
C1894 C1895 1.363 . S
C1894 H1897 0.929 . S
C1895 C1894 1.363 . S
C1895 C1901 1.428 . S
H1896 C1892 0.930 . S
H1897 C1894 0.929 . S
S1898 N1899 1.613 . S
S1898 N1900 1.610 . S
N1899 S1898 1.613 . S
N1899 C1902 1.350 . S
N1900 S1898 1.610 . S
N1900 C1901 1.351 . S
C1901 C1895 1.428 . S
C1901 N1900 1.351 . S
C1901 C1902 1.434 . S
C1902 C1893 1.429 . S
C1902 N1899 1.350 . S
C1902 C1901 1.434 . S
C1903 C1904 1.369 . S
C1903 C1905 1.419 . S
C1903 H1907 0.930 . S
C1904 C1903 1.369 . S
C1904 C1913 1.429 . S
C1905 C1903 1.419 . S
C1905 C1906 1.363 . S
C1905 H1908 0.929 . S
C1906 C1905 1.363 . S
C1906 C1912 1.428 . S
H1907 C1903 0.930 . S
H1908 C1905 0.929 . S
S1909 N1910 1.613 . S
S1909 N1911 1.610 . S
N1910 S1909 1.613 . S
N1910 C1913 1.350 . S
N1911 S1909 1.610 . S
N1911 C1912 1.351 . S
C1912 C1906 1.428 . S
C1912 N1911 1.351 . S
C1912 C1913 1.434 . S
C1913 C1904 1.429 . S
C1913 N1910 1.350 . S
C1913 C1912 1.434 . S
C1914 C1915 1.369 . S
C1914 C1916 1.419 . S
C1914 H1918 0.930 . S
C1915 C1914 1.369 . S
C1915 C1924 1.429 . S
C1916 C1914 1.419 . S
C1916 C1917 1.363 . S
C1916 H1919 0.929 . S
C1917 C1916 1.363 . S
C1917 C1923 1.428 . S
H1918 C1914 0.930 . S
H1919 C1916 0.929 . S
S1920 N1921 1.613 . S
S1920 N1922 1.610 . S
N1921 S1920 1.613 . S
N1921 C1924 1.350 . S
N1922 S1920 1.610 . S
N1922 C1923 1.351 . S
C1923 C1917 1.428 . S
C1923 N1922 1.351 . S
C1923 C1924 1.434 . S
C1924 C1915 1.429 . S
C1924 N1921 1.350 . S
C1924 C1923 1.434 . S
C1925 C1926 1.369 . S
C1925 C1927 1.419 . S
C1925 H1929 0.930 . S
C1926 C1925 1.369 . S
C1926 C1935 1.429 . S
C1927 C1925 1.419 . S
C1927 C1928 1.363 . S
C1927 H1930 0.929 . S
C1928 C1927 1.363 . S
C1928 C1934 1.428 . S
H1929 C1925 0.930 . S
H1930 C1927 0.929 . S
S1931 N1932 1.613 . S
S1931 N1933 1.610 . S
N1932 S1931 1.613 . S
N1932 C1935 1.350 . S
N1933 S1931 1.610 . S
N1933 C1934 1.351 . S
C1934 C1928 1.428 . S
C1934 N1933 1.351 . S
C1934 C1935 1.434 . S
C1935 C1926 1.429 . S
C1935 N1932 1.350 . S
C1935 C1934 1.434 . S
C1057 C106 1.168 . S
C1059 C7 1.168 . S
C1068 C40 1.167 . S
C1070 C73 1.168 . S
C1079 C139 1.168 . S
C1081 C238 1.168 . S
C1090 C172 1.168 . S
C1092 C205 1.167 . S
C1101 C370 1.167 . S
C1103 C271 1.168 . S
C1112 C304 1.168 . S
C1114 C337 1.168 . S
C1123 C502 1.167 . S
C1125 C403 1.168 . S
C1134 C436 1.167 . S
C1136 C469 1.167 . S
C1145 C535 1.167 . S
C1147 C634 1.167 . S
C1156 C601 1.168 . S
C1158 C568 1.167 . S
C1167 C766 1.168 . S
C1169 C667 1.167 . S
C1178 C733 1.167 . S
C1180 C700 1.168 . S
C1189 C898 1.167 . S
C1191 C799 1.167 . S
C1200 C865 1.166 . S
C1202 C832 1.168 . S
C1211 C1030 1.168 . S
C1213 C931 1.168 . S
C1222 C997 1.168 . S
C1224 C964 1.168 . S
C1233 C648 0.936 . S
C1235 C21 0.932 . S
C1244 C615 0.932 . S
C1246 C54 0.933 . S
C1255 C582 0.938 . S
C1257 C87 0.936 . S
C1266 C549 0.932 . S
C1268 C120 0.936 . S
C1277 C780 0.937 . S
C1279 C153 0.937 . S
C1288 C747 0.932 . S
C1290 C186 0.934 . S
C1299 C219 0.936 . S
C1301 C714 0.937 . S
C1310 C681 0.931 . S
C1312 C252 0.936 . S
C1321 C912 0.938 . S
C1323 C285 0.935 . S
C1332 C879 0.937 . S
C1334 C318 0.933 . S
C1343 C351 0.935 . S
C1345 C846 0.938 . S
C1354 C384 0.934 . S
C1356 C813 0.937 . S
C1365 C1044 0.934 . S
C1367 C417 0.932 . S
C1376 C1011 0.931 . S
C1378 C450 0.935 . S
C1387 C483 0.938 . S
C1389 C978 0.933 . S
C1398 C945 0.933 . S
C1400 C516 0.937 . S
C1409 N13 1.559 . S
C1411 N46 1.557 . S
C1420 N79 1.554 . S
C1422 N112 1.552 . S
C1431 N145 1.559 . S
C1433 N178 1.557 . S
C1442 N211 1.558 . S
C1444 N244 1.558 . S
C1453 N277 1.552 . S
C1455 N310 1.555 . S
C1464 N376 1.559 . S
C1466 N343 1.557 . S
C1475 N442 1.555 . S
C1477 N409 1.553 . S
C1486 N475 1.551 . S
C1488 N508 1.550 . S
C1497 N574 1.550 . S
C1499 N541 1.553 . S
C1508 N640 1.552 . S
C1510 N607 1.555 . S
C1519 N673 1.550 . S
C1521 N706 1.550 . S
C1530 N772 1.558 . S
C1532 N739 1.558 . S
C1541 N805 1.555 . S
C1543 N838 1.557 . S
C1552 N904 1.558 . S
C1554 N871 1.555 . S
C1563 N937 1.549 . S
C1565 N970 1.550 . S
C1574 N1003 1.549 . S
C1576 N1036 1.550 . S
C1585 N398 1.991 . S
C1587 N2 1.987 . S
C1596 N695 1.990 . S
C1598 N35 1.988 . S
C1607 N68 1.991 . S
C1609 N200 1.987 . S
C1618 N1025 1.990 . S
C1620 N101 1.988 . S
C1629 N266 1.990 . S
C1631 N134 1.987 . S
C1640 N563 1.988 . S
C1642 N167 1.989 . S
C1651 N893 1.986 . S
C1653 N233 1.991 . S
C1662 N299 1.990 . S
C1664 N959 1.987 . S
C1673 N464 1.990 . S
C1675 N332 1.988 . S
C1684 N761 1.990 . S
C1686 N365 1.987 . S
C1695 N431 1.991 . S
C1697 N827 1.987 . S
C1706 N497 1.988 . S
C1708 N629 1.989 . S
C1717 N926 1.988 . S
C1719 N530 1.989 . S
C1728 N596 1.991 . S
C1730 N728 1.987 . S
C1739 N662 1.991 . S
C1741 N794 1.987 . S
C1750 N992 1.987 . S
C1752 N860 1.990 . S
C1761 C18 1.460 . S
C1763 C117 1.458 . S
C1772 C51 1.459 . S
C1774 C84 1.459 . S
C1783 C249 1.459 . S
C1785 C150 1.459 . S
C1794 C183 1.459 . S
C1796 C216 1.459 . S
C1805 C282 1.460 1_554 S
C1807 C381 1.461 . S
C1816 C348 1.460 . S
C1818 C315 1.461 1_554 S
C1827 C414 1.462 1_556 S
C1829 C513 1.459 . S
C1838 C447 1.461 1_556 S
C1840 C480 1.459 . S
C1849 C546 1.460 1_554 S
C1851 C645 1.458 . S
C1860 C579 1.459 1_554 S
C1862 C612 1.461 . S
C1871 C678 1.461 1_556 S
C1873 C777 1.460 . S
C1882 C711 1.460 1_556 S
C1884 C744 1.461 . S
C1893 C810 1.460 . S
C1895 C909 1.461 . S
C1904 C876 1.462 . S
C1906 C843 1.459 . S
C1915 C942 1.458 . S
C1917 C1041 1.460 . S
C1926 C975 1.461 . S
C1928 C1008 1.459 . S
