# Generated by pormake.
# Topology fni, (5)-cn, num edge types: 1
# Building blocks:
#     Node 0, Type 0, BuildingBlock: BEQFEK_clean_sbu_0, # of connection points: 5
#     Node 1, Type 0, BuildingBlock: BEQFEK_clean_sbu_0, # of connection points: 5
#     Node 2, Type 0, BuildingBlock: BEQFEK_clean_sbu_0, # of connection points: 5
#     Node 3, Type 0, BuildingBlock: BEQFEK_clean_sbu_0, # of connection points: 5
#     Node 4, Type 0, BuildingBlock: BEQFEK_clean_sbu_0, # of connection points: 5
#     Node 5, Type 0, BuildingBlock: BEQFEK_clean_sbu_0, # of connection points: 5
#     Node 6, Type 0, BuildingBlock: BEQFEK_clean_sbu_0, # of connection points: 5
#     Node 7, Type 0, BuildingBlock: BEQFEK_clean_sbu_0, # of connection points: 5
#     Edge 8, Type (0, 0), BuildingBlock: ZUJKAS_clean_linker_0, # of connection points: 2
#     Edge 9, Type (0, 0), BuildingBlock: ZUJKAS_clean_linker_0, # of connection points: 2
#     Edge 10, Type (0, 0), BuildingBlock: ZUJKAS_clean_linker_0, # of connection points: 2
#     Edge 11, Type (0, 0), BuildingBlock: ZUJKAS_clean_linker_0, # of connection points: 2
#     Edge 12, Type (0, 0), BuildingBlock: ZUJKAS_clean_linker_0, # of connection points: 2
#     Edge 13, Type (0, 0), BuildingBlock: ZUJKAS_clean_linker_0, # of connection points: 2
#     Edge 14, Type (0, 0), BuildingBlock: ZUJKAS_clean_linker_0, # of connection points: 2
#     Edge 15, Type (0, 0), BuildingBlock: ZUJKAS_clean_linker_0, # of connection points: 2
#     Edge 16, Type (0, 0), BuildingBlock: ZUJKAS_clean_linker_0, # of connection points: 2
#     Edge 17, Type (0, 0), BuildingBlock: ZUJKAS_clean_linker_0, # of connection points: 2
#     Edge 18, Type (0, 0), BuildingBlock: ZUJKAS_clean_linker_0, # of connection points: 2
#     Edge 19, Type (0, 0), BuildingBlock: ZUJKAS_clean_linker_0, # of connection points: 2
#     Edge 20, Type (0, 0), BuildingBlock: ZUJKAS_clean_linker_0, # of connection points: 2
#     Edge 21, Type (0, 0), BuildingBlock: ZUJKAS_clean_linker_0, # of connection points: 2
#     Edge 22, Type (0, 0), BuildingBlock: ZUJKAS_clean_linker_0, # of connection points: 2
#     Edge 23, Type (0, 0), BuildingBlock: ZUJKAS_clean_linker_0, # of connection points: 2
#     Edge 24, Type (0, 0), BuildingBlock: ZUJKAS_clean_linker_0, # of connection points: 2
#     Edge 25, Type (0, 0), BuildingBlock: ZUJKAS_clean_linker_0, # of connection points: 2
#     Edge 26, Type (0, 0), BuildingBlock: ZUJKAS_clean_linker_0, # of connection points: 2
#     Edge 27, Type (0, 0), BuildingBlock: ZUJKAS_clean_linker_0, # of connection points: 2
# Relax obj value: 0.147
# Max RMSD: 0.209
# Mean RMSD: 0.177
data_MOF--net-fni--node1-BEQFEK_clean_sbu_0--edge1-ZUJKAS_clean_linker_0
_symmetry_space_group_name_H-M    P1
_symmetry_Int_Tables_number       1
_symmetry_cell_setting            triclinic
loop_
_symmetry_equiv_pos_as_xyz
'x, y, z'
_cell_length_a     65.845394
_cell_length_b     69.686374
_cell_length_c     23.293727
_cell_angle_alpha  91.242232
_cell_angle_beta   90.406726
_cell_angle_gamma 89.974138
loop_
_atom_site_label
_atom_site_type_symbol
_atom_site_fract_x
_atom_site_fract_y
_atom_site_fract_z
_atom_type_partial_charge
Co0 Co 0.37713 0.39559 0.08923 0.0
Co1 Co 0.38781 0.38463 0.9626 0.0
C2 C 0.34479 0.39358 0.00102 0.0
O3 O 0.3499 0.3973 0.05288 0.0
O4 O 0.35794 0.38847 0.96392 0.0
C5 C 0.36082 0.41114 0.1967 0.0
O6 O 0.34358 0.41366 0.16916 0.0
C7 C 0.38677 0.39308 0.84205 0.0
C8 C 0.40839 0.37237 0.80344 0.0
C9 C 0.39488 0.38693 0.79012 0.0
N10 N 0.39488 0.38255 0.88393 0.0
N11 N 0.40783 0.37019 0.86077 0.0
C12 C 0.3727 0.40964 0.85285 0.0
H13 H 0.37483 0.4155 0.89716 0.0
H14 H 0.37535 0.42113 0.82149 0.0
H15 H 0.35679 0.40465 0.84821 0.0
C16 C 0.4075 0.42587 0.06859 0.0
N17 N 0.39638 0.41064 0.05085 0.0
N18 N 0.40151 0.40575 -0.00192 0.0
C19 C 0.41631 0.41763 0.98066 0.0
C20 C 0.42051 0.43083 0.02472 0.0
C21 C 0.40654 0.43456 0.12785 0.0
H22 H 0.41022 0.42342 0.15957 0.0
H23 H 0.39084 0.43962 0.13635 0.0
H24 H 0.4173 0.44668 0.13387 0.0
O25 O 0.38616 0.36845 0.09067 0.0
O26 O 0.39463 0.36036 0.00132 0.0
H27 H 0.43073 0.40161 0.91286 0.0
H28 H 0.43904 0.42634 0.9193 0.0
C29 C 0.42585 0.41656 0.92253 0.0
H30 H 0.41446 0.42065 0.88978 0.0
H31 H 0.41617 0.36021 0.884 0.0
O32 O 0.37596 0.40408 0.17022 0.0
C33 C 0.3928 0.3562 0.05403 0.0
Co34 Co 0.61375 0.88454 0.32535 0.0
Co35 Co 0.62593 0.89249 0.19883 0.0
C36 C 0.61071 0.85366 0.23737 0.0
O37 O 0.60795 0.85914 0.28922 0.0
O38 O 0.61765 0.86507 0.20034 0.0
C39 C 0.5938 0.87347 0.43133 0.0
O40 O 0.58568 0.85908 0.40194 0.0
C41 C 0.61542 0.89493 0.07759 0.0
C42 C 0.64335 0.90688 0.04044 0.0
C43 C 0.62416 0.90002 0.02603 0.0
N44 N 0.62881 0.89865 0.1202 0.0
N45 N 0.6454 0.90596 0.09785 0.0
C46 C 0.59535 0.88534 0.08619 0.0
H47 H 0.59401 0.87996 0.13035 0.0
H48 H 0.58294 0.89584 0.07975 0.0
H49 H 0.5933 0.87336 0.05448 0.0
C50 C 0.58612 0.91715 0.30352 0.0
N51 N 0.60041 0.9045 0.28629 0.0
N52 N 0.60615 0.90856 0.23398 0.0
C53 C 0.59599 0.92424 0.21666 0.0
C54 C 0.58288 0.93015 0.26005 0.0
C55 C 0.57534 0.91623 0.35975 0.0
H56 H 0.58574 0.9212 0.39469 0.0
H57 H 0.57106 0.90116 0.36803 0.0
H58 H 0.56143 0.9252 0.36026 0.0
O59 O 0.64351 0.88907 0.32738 0.0
O60 O 0.65255 0.89543 0.23819 0.0
H61 H 0.61637 0.93332 0.15092 0.0
H62 H 0.5957 0.94973 0.16541 0.0
C63 C 0.60005 0.93437 0.16188 0.0
H64 H 0.59102 0.92753 0.12669 0.0
H65 H 0.65833 0.9098 0.12159 0.0
O66 O 0.60544 0.88514 0.40641 0.0
C67 C 0.65704 0.89332 0.29096 0.0
Co68 Co 0.11848 0.11251 0.46308 0.0
Co69 Co 0.13103 0.10244 0.58856 0.0
C70 C 0.11487 0.14162 0.55638 0.0
O71 O 0.11171 0.13689 0.50396 0.0
O72 O 0.12249 0.12978 0.59138 0.0
C73 C 0.09578 0.12066 0.35586 0.0
O74 O 0.08034 0.12699 0.38625 0.0
C75 C 0.12178 0.09977 0.70997 0.0
C76 C 0.14741 0.08278 0.74364 0.0
C77 C 0.1298 0.09229 0.75996 0.0
N78 N 0.13398 0.09475 0.66615 0.0
N79 N 0.14921 0.08449 0.6864 0.0
C80 C 0.10407 0.1131 0.70394 0.0
H81 H 0.0976 0.11188 0.6599 0.0
H82 H 0.09204 0.11018 0.73542 0.0
H83 H 0.10938 0.12805 0.71148 0.0
C84 C 0.09202 0.07836 0.47763 0.0
N85 N 0.10585 0.0912 0.49717 0.0
N86 N 0.11126 0.08683 0.54983 0.0
C87 C 0.10099 0.07106 0.56547 0.0
C88 C 0.08842 0.06523 0.52027 0.0
C89 C 0.08331 0.07802 0.41811 0.0
H90 H 0.09556 0.08026 0.3866 0.0
H91 H 0.07213 0.08983 0.41428 0.0
H92 H 0.07562 0.06419 0.40778 0.0
O93 O 0.14818 0.10868 0.46254 0.0
O94 O 0.15784 0.10043 0.54998 0.0
H95 H 0.11873 0.05944 0.63383 0.0
H96 H 0.09374 0.04885 0.62616 0.0
C97 C 0.10257 0.06232 0.62349 0.0
H98 H 0.09661 0.07263 0.65611 0.0
H99 H 0.16104 0.07902 0.66136 0.0
O100 O 0.11153 0.11434 0.38091 0.0
C101 C 0.16198 0.10379 0.49782 0.0
Co102 Co 0.88209 0.60903 0.706 0.0
Co103 Co 0.89387 0.61919 0.83268 0.0
C104 C 0.85043 0.61057 0.79418 0.0
O105 O 0.8551 0.60693 0.74212 0.0
O106 O 0.86388 0.61569 0.83097 0.0
C107 C 0.86767 0.59163 0.59687 0.0
O108 O 0.85209 0.58442 0.62394 0.0
C109 C 0.89561 0.60963 0.95384 0.0
C110 C 0.91474 0.63287 0.99089 0.0
C111 C 0.90365 0.61677 0.00519 0.0
N112 N 0.90176 0.62092 0.91127 0.0
N113 N 0.91334 0.63469 0.93358 0.0
C114 C 0.88107 0.59323 0.94564 0.0
H115 H 0.86822 0.59483 0.97599 0.0
H116 H 0.87532 0.59227 0.90098 0.0
H117 H 0.88887 0.57952 0.95451 0.0
C118 C 0.91204 0.57804 0.72484 0.0
N119 N 0.90155 0.59357 0.74307 0.0
N120 N 0.90722 0.59818 0.79582 0.0
C121 C 0.92185 0.58589 0.81256 0.0
C122 C 0.92524 0.57263 0.76824 0.0
C123 C 0.91004 0.56918 0.66595 0.0
H124 H 0.91321 0.5802 0.63354 0.0
H125 H 0.89421 0.56413 0.6592 0.0
H126 H 0.92068 0.55701 0.65929 0.0
O127 O 0.89102 0.63617 0.70631 0.0
O128 O 0.90065 0.64366 0.79539 0.0
H129 H 0.93567 0.6015 0.88291 0.0
H130 H 0.94582 0.57761 0.87153 0.0
C131 C 0.93186 0.58648 0.87047 0.0
H132 H 0.92119 0.58081 0.90249 0.0
H133 H 0.91984 0.64561 0.90987 0.0
O134 O 0.88074 0.60164 0.62436 0.0
C135 C 0.89818 0.64817 0.74313 0.0
Co136 Co 0.40779 0.13206 0.3269 0.0
Co137 Co 0.39662 0.12127 0.19971 0.0
C138 C 0.40715 0.16192 0.23917 0.0
O139 O 0.41088 0.15737 0.29082 0.0
O140 O 0.40131 0.14941 0.20206 0.0
C141 C 0.4296 0.14246 0.43461 0.0
O142 O 0.4439 0.15063 0.40462 0.0
C143 C 0.40696 0.11914 0.07795 0.0
C144 C 0.38147 0.10234 0.04067 0.0
C145 C 0.39908 0.11198 0.02636 0.0
N146 N 0.39464 0.11386 0.12062 0.0
N147 N 0.37951 0.10369 0.09812 0.0
C148 C 0.42511 0.13187 0.08643 0.0
H149 H 0.42608 0.13757 0.13104 0.0
H150 H 0.43916 0.12353 0.07811 0.0
H151 H 0.42453 0.14386 0.05584 0.0
C152 C 0.43815 0.10091 0.30699 0.0
N153 N 0.42325 0.11266 0.28899 0.0
N154 N 0.41816 0.1078 0.23587 0.0
C155 C 0.42951 0.09267 0.21861 0.0
C156 C 0.44263 0.0879 0.26296 0.0
C157 C 0.44663 0.10106 0.36676 0.0
H158 H 0.43404 0.10157 0.3981 0.0
H159 H 0.45608 0.11409 0.37353 0.0
H160 H 0.45609 0.08819 0.3747 0.0
O161 O 0.37884 0.12447 0.32691 0.0
O162 O 0.37042 0.11575 0.23776 0.0
H163 H 0.4115 0.07984 0.15108 0.0
H164 H 0.43659 0.06947 0.15805 0.0
C165 C 0.42769 0.08295 0.16083 0.0
H166 H 0.43349 0.0927 0.12782 0.0
H167 H 0.36757 0.09811 0.12181 0.0
O168 O 0.41469 0.13434 0.40916 0.0
C169 C 0.36585 0.11814 0.29048 0.0
Co170 Co 0.89555 0.88133 0.57533 0.0
Co171 Co 0.90604 0.86859 0.4496 0.0
C172 C 0.86371 0.88157 0.48663 0.0
O173 O 0.86869 0.8853 0.53862 0.0
O174 O 0.8766 0.87494 0.45084 0.0
C175 C 0.88205 0.89873 0.6847 0.0
O176 O 0.86541 0.90427 0.6584 0.0
C177 C 0.9086 0.87794 0.32872 0.0
C178 C 0.92281 0.85203 0.29031 0.0
C179 C 0.91458 0.86971 0.27668 0.0
N180 N 0.91312 0.86572 0.3708 0.0
N181 N 0.9218 0.85033 0.34769 0.0
C182 C 0.89737 0.89643 0.33832 0.0
H183 H 0.88462 0.89754 0.30715 0.0
H184 H 0.89161 0.89768 0.38273 0.0
H185 H 0.9078 0.90866 0.33191 0.0
C186 C 0.92825 0.90924 0.55345 0.0
N187 N 0.91622 0.89454 0.53659 0.0
N188 N 0.92151 0.88861 0.48486 0.0
C189 C 0.93746 0.89909 0.46758 0.0
C190 C 0.9422 0.9126 0.51037 0.0
C191 C 0.92566 0.92035 0.60863 0.0
H192 H 0.93216 0.91198 0.64436 0.0
H193 H 0.90926 0.92257 0.61706 0.0
H194 H 0.93329 0.93452 0.60748 0.0
O195 O 0.90191 0.85353 0.57727 0.0
O196 O 0.91044 0.84402 0.48918 0.0
H197 H 0.94889 0.87977 0.40232 0.0
H198 H 0.96484 0.9004 0.41734 0.0
C199 C 0.94891 0.89533 0.41321 0.0
H200 H 0.9415 0.90311 0.37773 0.0
H201 H 0.92646 0.83844 0.37087 0.0
O202 O 0.89559 0.88961 0.65676 0.0
C203 C 0.90772 0.84047 0.54199 0.0
Co204 Co 0.09618 0.36895 0.83173 0.0
Co205 Co 0.10898 0.37853 0.70673 0.0
C206 C 0.09793 0.33817 0.74372 0.0
O207 O 0.0935 0.34313 0.79507 0.0
O208 O 0.10419 0.35042 0.70816 0.0
C209 C 0.07759 0.35593 0.93817 0.0
O210 O 0.07179 0.34035 0.90985 0.0
C211 C 0.09881 0.37991 0.58516 0.0
C212 C 0.12554 0.39421 0.5486 0.0
C213 C 0.10713 0.3857 0.53373 0.0
N214 N 0.11165 0.38482 0.62809 0.0
N215 N 0.12753 0.39351 0.60608 0.0
C216 C 0.07971 0.36866 0.5935 0.0
H217 H 0.07903 0.36288 0.63732 0.0
H218 H 0.06639 0.37819 0.58799 0.0
H219 H 0.07864 0.35677 0.56113 0.0
C220 C 0.06566 0.39901 0.80798 0.0
N221 N 0.08115 0.38758 0.79162 0.0
N222 N 0.08708 0.39235 0.74007 0.0
C223 C 0.07582 0.40729 0.7224 0.0
C224 C 0.06178 0.41196 0.76473 0.0
C225 C 0.05471 0.39728 0.86371 0.0
H226 H 0.05199 0.38193 0.87248 0.0
H227 H 0.03995 0.40495 0.86308 0.0
H228 H 0.06434 0.40336 0.89893 0.0
O229 O 0.12529 0.3765 0.83601 0.0
O230 O 0.13462 0.38437 0.74822 0.0
H231 H 0.07437 0.4332 0.67308 0.0
H232 H 0.07185 0.4111 0.63226 0.0
C233 C 0.07987 0.41818 0.66896 0.0
H234 H 0.09636 0.41831 0.65988 0.0
H235 H 0.13997 0.39849 0.63012 0.0
O236 O 0.08735 0.36884 0.9124 0.0
C237 C 0.13866 0.38242 0.80133 0.0
Co238 Co 0.60238 0.62523 0.9679 0.0
Co239 Co 0.61587 0.61567 0.09263 0.0
C240 C 0.60335 0.65576 0.05754 0.0
O241 O 0.59936 0.65081 0.00574 0.0
O242 O 0.60978 0.64359 0.09339 0.0
C243 C 0.58736 0.64046 0.86047 0.0
O244 O 0.58761 0.65736 0.88658 0.0
C245 C 0.60734 0.61537 0.21368 0.0
C246 C 0.63215 0.59797 0.24996 0.0
C247 C 0.61516 0.6087 0.26487 0.0
N248 N 0.61924 0.60912 0.17071 0.0
N249 N 0.63404 0.59866 0.19244 0.0
C250 C 0.58819 0.62655 0.2047 0.0
H251 H 0.58207 0.6238 0.16077 0.0
H252 H 0.57663 0.62272 0.23696 0.0
H253 H 0.59152 0.64209 0.20939 0.0
C254 C 0.5724 0.59483 0.99101 0.0
N255 N 0.58804 0.60617 0.0073 0.0
N256 N 0.59418 0.60143 0.05891 0.0
C257 C 0.58283 0.58665 0.07687 0.0
C258 C 0.56859 0.582 0.03445 0.0
C259 C 0.56099 0.59679 0.93564 0.0
H260 H 0.55862 0.6122 0.92669 0.0
H261 H 0.54602 0.58952 0.93688 0.0
H262 H 0.5701 0.5904 0.90019 0.0
O263 O 0.63159 0.61839 0.9628 0.0
O264 O 0.64155 0.61095 0.0508 0.0
H265 H 0.60307 0.5753 0.14023 0.0
H266 H 0.57999 0.56165 0.12973 0.0
C267 C 0.58654 0.57632 0.13163 0.0
H268 H 0.57943 0.58449 0.1676 0.0
H269 H 0.64551 0.59219 0.16818 0.0
O270 O 0.59265 0.62569 0.88781 0.0
C271 C 0.64531 0.61295 -0.0023 0.0
H272 H 0.56152 0.55497 0.95064 0.0
H273 H 0.53587 0.5295 0.94985 0.0
H274 H 0.51598 0.54831 0.11792 0.0
H275 H 0.54158 0.57393 0.11864 0.0
H276 H 0.52156 0.50815 0.10571 0.0
H277 H 0.47416 0.53718 0.9296 0.0
H278 H 0.50057 0.53443 0.91244 0.0
H279 H 0.49308 0.55139 0.96753 0.0
C280 C 0.55153 0.55375 0.98712 0.0
C281 C 0.55334 0.56645 0.0345 0.0
C282 C 0.53691 0.53923 0.98664 0.0
C283 C 0.52385 0.53723 0.03345 0.0
C284 C 0.52588 0.5497 0.08128 0.0
H285 H 0.41362 0.46889 0.04219 0.0
H286 H 0.43885 0.49485 0.04608 0.0
C287 C 0.54049 0.56425 0.08174 0.0
C288 C 0.50823 0.52197 0.03275 0.0
H289 H 0.46618 0.50578 0.96013 0.0
C290 C 0.50941 0.50764 0.07404 0.0
C291 C 0.49228 0.52151 0.99176 0.0
C292 C 0.48976 0.53703 0.94809 0.0
C293 C 0.49523 0.49261 0.07476 0.0
C294 C 0.47967 0.49182 0.03261 0.0
C295 C 0.47827 0.50635 0.99202 0.0
C296 C 0.46454 0.47613 0.03026 0.0
C297 C 0.49686 0.47785 0.12101 0.0
C298 C 0.47065 0.45709 0.0194 0.0
C299 C 0.45629 0.44233 0.01725 0.0
C300 C 0.43564 0.44643 0.02557 0.0
C301 C 0.42951 0.46546 0.03584 0.0
C302 C 0.44386 0.48023 0.03794 0.0
H303 H 0.50636 0.48305 0.15777 0.0
H304 H 0.48161 0.47398 0.1372 0.0
H305 H 0.50401 0.46465 0.10288 0.0
H306 H 0.4865 0.45368 0.01243 0.0
H307 H 0.46131 0.42769 0.00957 0.0
H308 H 0.48329 0.09009 0.28226 0.0
H309 H 0.50783 0.06349 0.28263 0.0
H310 H 0.45926 0.0233 0.24745 0.0
H311 H 0.43473 0.04984 0.24794 0.0
H312 H 0.4864 0.01232 0.33611 0.0
H313 H 0.52685 0.03296 0.13812 0.0
H314 H 0.5247 0.05161 0.19228 0.0
H315 H 0.50223 0.04249 0.15708 0.0
C316 C 0.47796 0.07554 0.27467 0.0
C317 C 0.45729 0.0719 0.26426 0.0
C318 C 0.49192 0.06043 0.27454 0.0
C319 C 0.48536 0.0415 0.26409 0.0
C320 C 0.46462 0.03784 0.2551 0.0
H321 H 0.55567 0.93994 0.17717 0.0
H322 H 0.5321 0.96723 0.17861 0.0
C323 C 0.45068 0.05294 0.25512 0.0
C324 C 0.50007 0.02544 0.26303 0.0
H325 H 0.54074 0.00714 0.19003 0.0
C326 C 0.4983 0.01116 0.30424 0.0
C327 C 0.51538 0.02391 0.22091 0.0
C328 C 0.51739 0.03845 0.17421 0.0
C329 C 0.51162 0.99544 0.30484 0.0
C330 C 0.52722 0.99414 0.26352 0.0
C331 C 0.52885 0.0083 0.22191 0.0
C332 C 0.5418 0.97798 0.26225 0.0
C333 C 0.50866 0.98018 0.349 0.0
C334 C 0.55525 0.97524 0.30833 0.0
C335 C 0.56873 0.95975 0.30742 0.0
C336 C 0.56897 0.9468 0.2604 0.0
C337 C 0.55579 0.94978 0.21381 0.0
C338 C 0.54232 0.96529 0.21467 0.0
H339 H 0.49334 0.98098 0.3686 0.0
H340 H 0.51079 0.96563 0.32959 0.0
H341 H 0.52011 0.98217 0.38381 0.0
H342 H 0.55535 0.9851 0.3449 0.0
H343 H 0.57903 0.95793 0.34335 0.0
H344 H 0.97006 0.92077 0.59436 0.0
H345 H 0.99578 0.94622 0.59537 0.0
H346 H 0.97648 0.96284 0.42623 0.0
H347 H 0.95062 0.9375 0.4253 0.0
H348 H 0.01947 0.96032 0.44153 0.0
H349 H 0.98241 0.00407 0.6135 0.0
H350 H 0.98711 0.97946 0.63093 0.0
H351 H 0.9694 0.98498 0.57465 0.0
C352 C 0.97128 0.92994 0.55759 0.0
C353 C 0.9583 0.92735 0.50997 0.0
C354 C 0.98594 0.94443 0.55819 0.0
C355 C 0.9878 0.95655 0.51121 0.0
C356 C 0.97521 0.95365 0.46295 0.0
H357 H 0.04801 0.06668 0.49753 0.0
H358 H 0.02388 0.03985 0.49369 0.0
C359 C 0.96053 0.93917 0.46238 0.0
C360 C 0.00271 0.97242 0.51261 0.0
H361 H 0.01474 0.01443 0.58286 0.0
C362 C 0.01848 0.97217 0.47238 0.0
C363 C 0.00117 0.98792 0.55253 0.0
C364 C 0.98403 0.9893 0.59509 0.0
C365 C 0.03293 0.98696 0.47144 0.0
C366 C 0.03163 0.00225 0.51218 0.0
C367 C 0.01574 0.00259 0.552 0.0
C368 C 0.04636 0.01827 0.51352 0.0
C369 C 0.04923 0.98631 0.42625 0.0
C370 C 0.06692 0.01499 0.52628 0.0
C371 C 0.08067 0.03027 0.52839 0.0
C372 C 0.074 0.04903 0.51817 0.0
C373 C 0.05345 0.0523 0.50543 0.0
C374 C 0.0397 0.03704 0.50339 0.0
H375 H 0.04538 0.97613 0.39046 0.0
H376 H 0.05172 0.00076 0.40838 0.0
H377 H 0.06371 0.98153 0.44601 0.0
H378 H 0.07229 0.00065 0.53502 0.0
H379 H 0.09651 0.02745 0.53782 0.0
H380 H 0.05602 0.43889 0.84954 0.0
H381 H 0.03199 0.46576 0.84986 0.0
H382 H 0.01094 0.44836 0.68084 0.0
H383 H 0.03491 0.42137 0.68058 0.0
H384 H 0.0196 0.48774 0.69259 0.0
H385 H 0.96995 0.46297 0.86778 0.0
H386 H 0.99648 0.46386 0.88609 0.0
H387 H 0.9877 0.44729 0.83117 0.0
C388 C 0.04604 0.44067 0.81286 0.0
C389 C 0.0471 0.42801 0.76526 0.0
C390 C 0.03236 0.45599 0.81306 0.0
C391 C 0.01949 0.45885 0.76573 0.0
C392 C 0.02068 0.44632 0.71788 0.0
H393 H 0.91525 0.53514 0.75258 0.0
H394 H 0.93826 0.50739 0.75025 0.0
C395 C 0.03436 0.43098 0.71771 0.0
C396 C 0.00518 0.47523 0.76553 0.0
H397 H 0.96469 0.49482 0.83629 0.0
C398 C 0.00754 0.48928 0.72384 0.0
C399 C 0.98935 0.47705 0.80598 0.0
C400 C 0.98553 0.46192 0.85001 0.0
C401 C 0.99467 0.50532 0.72216 0.0
C402 C 0.97926 0.50745 0.76379 0.0
C403 C 0.97666 0.49322 0.80481 0.0
C404 C 0.96548 0.52424 0.76508 0.0
C405 C 0.99751 0.51971 0.67538 0.0
C406 C 0.97317 0.54283 0.77475 0.0
C407 C 0.96008 0.55863 0.77587 0.0
C408 C 0.93912 0.55601 0.76785 0.0
C409 C 0.93141 0.53742 0.75869 0.0
C410 C 0.94449 0.52164 0.75752 0.0
H411 H 0.00639 0.5136 0.63895 0.0
H412 H 0.98262 0.52475 0.65879 0.0
H413 H 0.00589 0.53233 0.69313 0.0
H414 H 0.98928 0.54511 0.7816 0.0
H415 H 0.96631 0.57289 0.78261 0.0
H416 H 0.395 0.4099 0.26283 0.0
H417 H 0.39732 0.41156 0.36718 0.0
H418 H 0.33295 0.42246 0.37728 0.0
H419 H 0.33035 0.42049 0.27219 0.0
H420 H 0.38667 0.43964 0.45108 0.0
H421 H 0.34105 0.37265 0.46677 0.0
H422 H 0.35127 0.38054 0.39963 0.0
H423 H 0.32933 0.39218 0.42977 0.0
C424 C 0.38132 0.41282 0.28706 0.0
C425 C 0.36241 0.41473 0.25929 0.0
C426 C 0.38271 0.41386 0.34672 0.0
C427 C 0.36526 0.41681 0.3798 0.0
C428 C 0.34653 0.41985 0.35233 0.0
H429 H 0.3576 0.39692 0.74757 0.0
H430 H 0.34939 0.40732 0.6508 0.0
C431 C 0.34509 0.41879 0.29238 0.0
C432 C 0.36676 0.41522 0.44283 0.0
H433 H 0.35483 0.38555 0.55216 0.0
C434 C 0.37953 0.42797 0.47344 0.0
C435 C 0.35744 0.39992 0.47164 0.0
C436 C 0.34411 0.38542 0.44043 0.0
C437 C 0.38359 0.42558 0.53205 0.0
C438 C 0.37488 0.40985 0.56025 0.0
C439 C 0.3615 0.39756 0.5302 0.0
C440 C 0.38024 0.40521 0.62008 0.0
C441 C 0.39727 0.43977 0.56312 0.0
C442 C 0.40031 0.4004 0.63467 0.0
C443 C 0.40509 0.39462 0.69021 0.0
C444 C 0.38989 0.39363 0.73199 0.0
C445 C 0.36979 0.39828 0.71706 0.0
C446 C 0.36502 0.40404 0.6616 0.0
H447 H 0.3978 0.4537 0.54082 0.0
H448 H 0.39216 0.4424 0.60795 0.0
H449 H 0.41293 0.43391 0.56455 0.0
H450 H 0.41218 0.40069 0.60275 0.0
H451 H 0.42065 0.39088 0.70045 0.0
H452 H 0.58498 0.90396 0.98547 0.0
H453 H 0.57243 0.89664 0.8885 0.0
H454 H 0.63345 0.88327 0.83456 0.0
H455 H 0.64591 0.88957 0.93207 0.0
H456 H 0.58129 0.91317 0.78898 0.0
H457 H 0.60284 0.83666 0.7746 0.0
H458 H 0.60251 0.85 0.84193 0.0
H459 H 0.6242 0.85124 0.79539 0.0
C460 C 0.59563 0.89889 0.95353 0.0
C461 C 0.61634 0.89669 0.96697 0.0
C462 C 0.58846 0.89494 0.89789 0.0
C463 C 0.60191 0.88883 0.85477 0.0
C464 C 0.62269 0.88732 0.86764 0.0
H465 H 0.60789 0.90224 0.50159 0.0
H466 H 0.60472 0.90527 0.60516 0.0
C467 C 0.62983 0.89116 0.92322 0.0
C468 C 0.59457 0.88501 0.79541 0.0
H469 H 0.59861 0.85271 0.68404 0.0
C470 C 0.58471 0.89981 0.76629 0.0
C471 C 0.59849 0.86739 0.76623 0.0
C472 C 0.60738 0.85036 0.79642 0.0
C473 C 0.58013 0.89799 0.70755 0.0
C474 C 0.58602 0.88113 0.67708 0.0
C475 C 0.59439 0.86576 0.7072 0.0
C476 C 0.58595 0.88 0.61355 0.0
C477 C 0.56946 0.91434 0.67849 0.0
C478 C 0.57676 0.86453 0.5837 0.0
C479 C 0.5788 0.86257 0.52407 0.0
C480 C 0.5902 0.87598 0.4936 0.0
C481 C 0.59899 0.89164 0.52364 0.0
C482 C 0.597 0.89354 0.58294 0.0
H483 H 0.55941 0.92223 0.709 0.0
H484 H 0.58095 0.92466 0.66318 0.0
H485 H 0.56023 0.9092 0.64117 0.0
H486 H 0.56835 0.85381 0.60667 0.0
H487 H 0.57186 0.85036 0.50213 0.0
H488 H 0.15239 0.10387 0.85181 0.0
H489 H 0.14093 0.10983 0.9504 0.0
H490 H 0.07997 0.09362 0.90053 0.0
H491 H 0.09163 0.08674 0.8025 0.0
H492 H 0.11183 0.13597 0.98806 0.0
H493 H 0.09018 0.06125 0.04126 0.0
H494 H 0.10523 0.0667 0.97925 0.0
H495 H 0.07828 0.07073 0.9783 0.0
C496 C 0.13658 0.10147 0.8621 0.0
C497 C 0.12276 0.09535 0.81943 0.0
C498 C 0.13003 0.10496 0.91822 0.0
C499 C 0.1096 0.10218 0.93275 0.0
C500 C 0.09582 0.09575 0.89033 0.0
H501 H 0.06232 0.12208 0.28468 0.0
H502 H 0.06199 0.11922 0.17904 0.0
C503 C 0.10241 0.09217 0.83417 0.0
C504 C 0.10293 0.10629 0.99233 0.0
H505 H 0.08577 0.08501 0.1135 0.0
C506 C 0.10589 0.12488 0.01527 0.0
C507 C 0.09509 0.0918 0.02764 0.0
C508 C 0.09212 0.07145 0.00571 0.0
C509 C 0.10198 0.12919 0.0732 0.0
C510 C 0.09495 0.11454 0.10889 0.0
C511 C 0.09101 0.09621 0.08554 0.0
C512 C 0.09466 0.11722 0.17185 0.0
C513 C 0.10609 0.14916 0.09662 0.0
C514 C 0.11309 0.11701 0.20206 0.0
C515 C 0.11333 0.11844 0.26174 0.0
C516 C 0.0951 0.12022 0.29246 0.0
C517 C 0.07658 0.12081 0.26205 0.0
C518 C 0.07636 0.11914 0.20195 0.0
H519 H 0.10747 0.15973 0.06182 0.0
H520 H 0.0938 0.15384 0.12619 0.0
H521 H 0.12054 0.14914 0.12146 0.0
H522 H 0.12733 0.11543 0.17938 0.0
H523 H 0.12785 0.11802 0.28384 0.0
H524 H 0.89743 0.6394 0.09947 0.0
H525 H 0.88943 0.62939 0.1967 0.0
H526 H 0.89208 0.57002 0.14085 0.0
H527 H 0.90128 0.5799 0.04458 0.0
H528 H 0.85658 0.60841 0.23265 0.0
H529 H 0.92918 0.57097 0.28055 0.0
H530 H 0.92616 0.58633 0.21974 0.0
H531 H 0.91592 0.56243 0.21739 0.0
C532 C 0.89648 0.62421 0.10806 0.0
C533 C 0.89948 0.61045 0.06404 0.0
C534 C 0.89177 0.61852 0.16344 0.0
C535 C 0.89013 0.59897 0.17588 0.0
C536 C 0.89336 0.58517 0.1322 0.0
H537 H 0.84204 0.57309 0.51992 0.0
H538 H 0.84584 0.57075 0.41512 0.0
C539 C 0.89823 0.59087 0.07684 0.0
C540 C 0.88505 0.59325 0.2348 0.0
H541 H 0.90441 0.57136 0.35274 0.0
C542 C 0.8669 0.60014 0.25888 0.0
C543 C 0.8986 0.58243 0.2686 0.0
C544 C 0.91864 0.57522 0.24559 0.0
C545 C 0.86236 0.59729 0.31678 0.0
C546 C 0.87615 0.58689 0.35098 0.0
C547 C 0.89381 0.57919 0.32613 0.0
C548 C 0.87421 0.58644 0.41412 0.0
C549 C 0.84347 0.60642 0.34164 0.0
C550 C 0.88922 0.59541 0.44808 0.0
C551 C 0.8872 0.59662 0.5074 0.0
C552 C 0.87007 0.5889 0.53423 0.0
C553 C 0.85532 0.57931 0.50041 0.0
C554 C 0.85742 0.57803 0.44063 0.0
H555 H 0.83625 0.61659 0.3116 0.0
H556 H 0.83226 0.59506 0.35112 0.0
H557 H 0.84708 0.61427 0.38244 0.0
H558 H 0.9023 0.60198 0.42847 0.0
H559 H 0.89896 0.60397 0.53206 0.0
H560 H 0.37558 0.11885 0.93308 0.0
H561 H 0.3866 0.12609 0.83592 0.0
H562 H 0.44919 0.12088 0.88919 0.0
H563 H 0.43825 0.1127 0.98563 0.0
H564 H 0.41091 0.15681 0.80295 0.0
H565 H 0.44626 0.08644 0.74514 0.0
H566 H 0.42972 0.08953 0.80611 0.0
H567 H 0.45546 0.09799 0.80996 0.0
C568 C 0.39169 0.11908 0.92397 0.0
C569 C 0.40605 0.11565 0.96739 0.0
C570 C 0.39796 0.12333 0.86859 0.0
C571 C 0.41871 0.12404 0.85543 0.0
C572 C 0.43311 0.12032 0.8984 0.0
H573 H 0.46272 0.14851 0.50539 0.0
H574 H 0.46369 0.14629 0.61082 0.0
C575 C 0.42683 0.11599 0.95385 0.0
C576 C 0.425 0.12893 0.79669 0.0
H577 H 0.44623 0.11009 0.67457 0.0
C578 C 0.41888 0.1467 0.77512 0.0
C579 C 0.43553 0.11575 0.76065 0.0
C580 C 0.44203 0.09629 0.78126 0.0
C581 C 0.42222 0.15128 0.71769 0.0
C582 C 0.43185 0.13776 0.68108 0.0
C583 C 0.43898 0.12044 0.70321 0.0
C584 C 0.43166 0.14002 0.61831 0.0
C585 C 0.41471 0.17023 0.69573 0.0
C586 C 0.41339 0.13715 0.58832 0.0
C587 C 0.41282 0.1382 0.52877 0.0
C588 C 0.43053 0.14226 0.49793 0.0
C589 C 0.44884 0.14545 0.52812 0.0
C590 C 0.44943 0.14416 0.58809 0.0
H591 H 0.41179 0.18072 0.73132 0.0
H592 H 0.42589 0.17647 0.66591 0.0
H593 H 0.4003 0.16789 0.6716 0.0
H594 H 0.39957 0.13381 0.61107 0.0
H595 H 0.39845 0.13575 0.50687 0.0
H596 H 0.91609 0.90677 0.2375 0.0
H597 H 0.90735 0.9177 0.14161 0.0
H598 H 0.89802 0.859 0.08499 0.0
H599 H 0.90551 0.84807 0.18171 0.0
H600 H 0.92489 0.911 0.04122 0.0
H601 H 0.84637 0.88342 0.02906 0.0
H602 H 0.86057 0.88474 0.0956 0.0
H603 H 0.86382 0.86464 0.04649 0.0
C604 C 0.91154 0.89622 0.2053 0.0
C605 C 0.91072 0.8766 0.2179 0.0
C606 C 0.90682 0.90249 0.15019 0.0
C607 C 0.90138 0.88922 0.1066 0.0
C608 C 0.90144 0.86956 0.11846 0.0
H609 H 0.91448 0.8882 0.74976 0.0
H610 H 0.91806 0.89024 0.85346 0.0
C611 C 0.906 0.86331 0.17359 0.0
C612 C 0.89657 0.89573 0.0479 0.0
H613 H 0.86248 0.88946 0.93821 0.0
C614 C 0.91108 0.90658 0.01899 0.0
C615 C 0.8783 0.89048 0.01935 0.0
C616 C 0.86129 0.88037 0.04952 0.0
C617 C 0.90843 0.91113 0.96106 0.0
C618 C 0.8911 0.90418 0.93097 0.0
C619 C 0.87593 0.89454 0.96099 0.0
C620 C 0.88944 0.90484 0.86757 0.0
C621 C 0.92442 0.92306 0.93251 0.0
C622 C 0.87193 0.91205 0.84076 0.0
C623 C 0.86965 0.91062 0.78099 0.0
C624 C 0.88482 0.90185 0.74727 0.0
C625 C 0.9025 0.89508 0.77431 0.0
C626 C 0.9047 0.89642 0.83375 0.0
H627 H 0.93183 0.93307 0.96397 0.0
H628 H 0.93639 0.91344 0.91483 0.0
H629 H 0.91792 0.93152 0.89695 0.0
H630 H 0.85988 0.91845 0.86616 0.0
H631 H 0.85585 0.91596 0.76144 0.0
H632 H 0.06773 0.38569 0.49267 0.0
H633 H 0.05614 0.37733 0.39551 0.0
H634 H 0.11835 0.37062 0.34187 0.0
H635 H 0.12998 0.3779 0.43964 0.0
H636 H 0.06265 0.39467 0.29643 0.0
H637 H 0.09375 0.32118 0.28106 0.0
H638 H 0.09197 0.33432 0.34849 0.0
H639 H 0.11316 0.33806 0.30148 0.0
C640 C 0.07893 0.38185 0.46078 0.0
C641 C 0.09976 0.38177 0.47444 0.0
C642 C 0.07227 0.37731 0.40499 0.0
C643 C 0.08635 0.37276 0.36187 0.0
C644 C 0.10718 0.37342 0.37492 0.0
H645 H 0.08789 0.38651 0.00686 0.0
H646 H 0.08526 0.38944 0.11057 0.0
C647 C 0.11382 0.37783 0.43067 0.0
C648 C 0.07947 0.36823 0.30242 0.0
H649 H 0.087 0.33661 0.19083 0.0
C650 C 0.06766 0.38181 0.27359 0.0
C651 C 0.08547 0.3512 0.27303 0.0
C652 C 0.09658 0.33527 0.30288 0.0
C653 C 0.06299 0.37945 0.21502 0.0
C654 C 0.07078 0.36336 0.18432 0.0
C655 C 0.08128 0.3491 0.21413 0.0
C656 C 0.07028 0.36208 0.12075 0.0
C657 C 0.05007 0.39443 0.18647 0.0
C658 C 0.06306 0.34553 0.09177 0.0
C659 C 0.06483 0.34365 0.03203 0.0
C660 C 0.07399 0.35826 0.00053 0.0
C661 C 0.08073 0.37498 0.02969 0.0
C662 C 0.07903 0.37679 0.08911 0.0
H663 H 0.03928 0.4011 0.21746 0.0
H664 H 0.06002 0.406 0.17063 0.0
H665 H 0.04132 0.38825 0.14959 0.0
H666 H 0.05642 0.33393 0.11549 0.0
H667 H 0.0595 0.33061 0.01082 0.0
H668 H 0.5809 0.66925 0.78405 0.0
H669 H 0.57887 0.66601 0.67923 0.0
H670 H 0.58338 0.60448 0.69157 0.0
H671 H 0.58498 0.60751 0.79573 0.0
H672 H 0.6095 0.65109 0.61551 0.0
H673 H 0.53961 0.6093 0.57073 0.0
H674 H 0.54439 0.62119 0.63917 0.0
H675 H 0.55538 0.59803 0.62324 0.0
C676 C 0.58098 0.65501 0.76446 0.0
C677 C 0.58327 0.63865 0.79814 0.0
C678 C 0.57982 0.65319 0.70462 0.0
C679 C 0.58074 0.63499 0.67767 0.0
C680 C 0.58215 0.61862 0.71142 0.0
H681 H 0.61457 0.58451 0.35489 0.0
H682 H 0.6044 0.59201 0.45407 0.0
C683 C 0.58328 0.62042 0.77106 0.0
C684 C 0.58289 0.6331 0.61463 0.0
H685 H 0.5651 0.60838 0.49652 0.0
C686 C 0.59956 0.64206 0.58924 0.0
C687 C 0.56997 0.62122 0.58058 0.0
C688 C 0.55122 0.61205 0.60477 0.0
C689 C 0.60421 0.63875 0.53127 0.0
C690 C 0.59172 0.62631 0.49784 0.0
C691 C 0.57469 0.6178 0.5226 0.0
C692 C 0.59659 0.62154 0.43747 0.0
C693 C 0.6229 0.64794 0.50674 0.0
C694 C 0.59537 0.63565 0.39566 0.0
C695 C 0.60119 0.63142 0.33932 0.0
C696 C 0.60811 0.61296 0.3238 0.0
C697 C 0.60917 0.59881 0.36572 0.0
C698 C 0.6033 0.60304 0.42212 0.0
H699 H 0.63287 0.65435 0.54074 0.0
H700 H 0.63183 0.63725 0.48143 0.0
H701 H 0.61824 0.65951 0.47743 0.0
H702 H 0.59024 0.65001 0.40687 0.0
H703 H 0.60085 0.64282 0.30856 0.0
H704 H 0.15098 0.38578 0.91333 0.0
H705 H 0.18538 0.39105 0.9501 0.0
H706 H 0.20779 0.39298 0.77676 0.0
H707 H 0.17331 0.38824 0.73951 0.0
H708 H 0.21758 0.36822 0.93581 0.0
H709 H 0.23503 0.4395 0.84782 0.0
H710 H 0.20962 0.42983 0.8483 0.0
H711 H 0.22722 0.42244 0.79331 0.0
C712 C 0.16318 0.38754 0.88293 0.0
C713 C 0.15938 0.38661 0.82341 0.0
C714 C 0.18284 0.39056 0.90408 0.0
C715 C 0.19913 0.39269 0.86626 0.0
C716 C 0.1954 0.39189 0.80681 0.0
H717 H 0.32884 0.38776 0.8934 0.0
H718 H 0.29323 0.38887 0.86405 0.0
C719 C 0.17568 0.38904 0.78556 0.0
C720 C 0.22016 0.39445 0.88911 0.0
H721 H 0.26326 0.42165 0.88416 0.0
C722 C 0.22748 0.38003 0.92507 0.0
C723 C 0.23306 0.40989 0.87514 0.0
C724 C 0.22578 0.42639 0.8395 0.0
C725 C 0.2475 0.38033 0.94604 0.0
C726 C 0.26049 0.39548 0.93083 0.0
C727 C 0.25318 0.41005 0.8956 0.0
C728 C 0.28204 0.39586 0.94895 0.0
C729 C 0.25486 0.36418 0.98295 0.0
C730 C 0.28749 0.39967 0.0064 0.0
C731 C 0.30791 0.39921 0.02342 0.0
C732 C 0.32317 0.39484 0.9832 0.0
C733 C 0.31755 0.39126 0.92552 0.0
C734 C 0.2972 0.39188 0.90856 0.0
H735 H 0.24371 0.35225 0.98461 0.0
H736 H 0.26949 0.35843 0.96648 0.0
H737 H 0.25757 0.36973 0.02737 0.0
H738 H 0.27593 0.40287 0.03807 0.0
H739 H 0.31169 0.40204 0.06813 0.0
H740 H 0.60795 0.83875 0.12817 0.0
H741 H 0.60338 0.80514 0.09877 0.0
H742 H 0.59956 0.78928 0.27621 0.0
H743 H 0.60402 0.82295 0.30631 0.0
H744 H 0.63003 0.769 0.2008 0.0
H745 H 0.5514 0.76945 0.11158 0.0
H746 H 0.56803 0.78855 0.09079 0.0
H747 H 0.56021 0.78707 0.16416 0.0
C748 C 0.60594 0.82817 0.16103 0.0
C749 C 0.60643 0.83352 0.21965 0.0
C750 C 0.60321 0.80899 0.14408 0.0
C751 C 0.60098 0.79483 0.18534 0.0
C752 C 0.60113 0.80009 0.2438 0.0
H753 H 0.60609 0.67051 0.16692 0.0
H754 H 0.60432 0.70404 0.1981 0.0
C755 C 0.60366 0.81931 0.26086 0.0
C756 C 0.60007 0.77437 0.16744 0.0
H757 H 0.57047 0.74094 0.09784 0.0
C758 C 0.61698 0.76278 0.17864 0.0
C759 C 0.58312 0.7665 0.13788 0.0
C760 C 0.56455 0.77843 0.12553 0.0
C761 C 0.61754 0.7435 0.16025 0.0
C762 C 0.60044 0.73546 0.13139 0.0
C763 C 0.58351 0.7471 0.12014 0.0
C764 C 0.59992 0.71499 0.11268 0.0
C765 C 0.6367 0.73212 0.17045 0.0
C766 C 0.59703 0.70989 0.05454 0.0
C767 C 0.59764 0.6906 0.03656 0.0
C768 C 0.60121 0.67609 0.07648 0.0
C769 C 0.60345 0.68127 0.13491 0.0
C770 C 0.60261 0.70048 0.15283 0.0
H771 H 0.65008 0.74164 0.17707 0.0
H772 H 0.6349 0.72357 0.20973 0.0
H773 H 0.63984 0.72211 0.13385 0.0
H774 H 0.59478 0.72087 0.02288 0.0
H775 H 0.59581 0.68712 0.99128 0.0
H776 H 0.35286 0.11629 0.40119 0.0
H777 H 0.3184 0.1109 0.43496 0.0
H778 H 0.29715 0.10499 0.26 0.0
H779 H 0.33175 0.11037 0.22541 0.0
H780 H 0.27537 0.13223 0.33397 0.0
H781 H 0.28398 0.06064 0.43193 0.0
H782 H 0.30304 0.07807 0.45187 0.0
H783 H 0.30133 0.06944 0.3788 0.0
C784 C 0.34093 0.11369 0.36971 0.0
C785 C 0.34507 0.11381 0.31049 0.0
C786 C 0.32126 0.11048 0.38921 0.0
C787 C 0.30532 0.10733 0.35 0.0
C788 C 0.30934 0.10725 0.29089 0.0
H789 H 0.17466 0.10273 0.38677 0.0
H790 H 0.20939 0.10264 0.35148 0.0
C791 C 0.3291 0.11033 0.27124 0.0
C792 C 0.28427 0.10546 0.37094 0.0
H793 H 0.25332 0.07747 0.45112 0.0
C794 C 0.27047 0.12019 0.35917 0.0
C795 C 0.27809 0.08986 0.40444 0.0
C796 C 0.2923 0.07349 0.41728 0.0
C797 C 0.25066 0.11993 0.38086 0.0
C798 C 0.24435 0.10423 0.41395 0.0
C799 C 0.25819 0.08947 0.42573 0.0
C800 C 0.22334 0.10282 0.43585 0.0
C801 C 0.23686 0.13675 0.36941 0.0
C802 C 0.21963 0.10203 0.49508 0.0
C803 C 0.19968 0.10183 0.51558 0.0
C804 C 0.18316 0.10247 0.47707 0.0
C805 C 0.18701 0.10254 0.41772 0.0
C806 C 0.20687 0.10257 0.39738 0.0
H807 H 0.24562 0.14977 0.35835 0.0
H808 H 0.22673 0.13311 0.3325 0.0
H809 H 0.22725 0.14022 0.40722 0.0
H810 H 0.23216 0.10205 0.52546 0.0
H811 H 0.19722 0.1017 0.56149 0.0
H812 H 0.90816 0.67966 0.81043 0.0
H813 H 0.91355 0.71261 0.77899 0.0
H814 H 0.90441 0.69417 0.60288 0.0
H815 H 0.89904 0.66129 0.63353 0.0
H816 H 0.93882 0.72056 0.62555 0.0
H817 H 0.86504 0.74544 0.71583 0.0
H818 H 0.88173 0.73286 0.76356 0.0
H819 H 0.87067 0.72037 0.70287 0.0
C820 C 0.90746 0.68257 0.76497 0.0
C821 C 0.90298 0.66785 0.72456 0.0
C822 C 0.91049 0.7014 0.74715 0.0
C823 C 0.90916 0.70578 0.68872 0.0
C824 C 0.90544 0.69104 0.64817 0.0
H825 H 0.91224 0.80702 0.47889 0.0
H826 H 0.91437 0.77437 0.51517 0.0
C827 C 0.9023 0.67227 0.66588 0.0
C828 C 0.9107 0.72584 0.66972 0.0
H829 H 0.88527 0.76848 0.67128 0.0
C830 C 0.92719 0.73111 0.63566 0.0
C831 C 0.89545 0.73947 0.68295 0.0
C832 C 0.87711 0.73433 0.71796 0.0
C833 C 0.92893 0.7498 0.6148 0.0
C834 C 0.9135 0.76337 0.6273 0.0
C835 C 0.8971 0.75808 0.66177 0.0
C836 C 0.91381 0.78314 0.60491 0.0
C837 C 0.94741 0.7549 0.58041 0.0
C838 C 0.91251 0.7989 0.64318 0.0
C839 C 0.91099 0.81751 0.62261 0.0
C840 C 0.91074 0.82078 0.56321 0.0
C841 C 0.91251 0.80501 0.52487 0.0
C842 C 0.91387 0.78634 0.54556 0.0
H843 H 0.96029 0.74504 0.58904 0.0
H844 H 0.94365 0.75367 0.53397 0.0
H845 H 0.95239 0.76986 0.59007 0.0
H846 H 0.91238 0.79678 0.68912 0.0
H847 H 0.90975 0.82931 0.65341 0.0
H848 H 0.82987 0.8889 0.55176 0.0
H849 H 0.79482 0.89267 0.51761 0.0
H850 H 0.81499 0.88609 0.34254 0.0
H851 H 0.84983 0.88186 0.37606 0.0
H852 H 0.77711 0.91889 0.44559 0.0
H853 H 0.77128 0.84541 0.35053 0.0
H854 H 0.79181 0.85261 0.39793 0.0
H855 H 0.79224 0.85882 0.32336 0.0
C856 C 0.82683 0.88825 0.506 0.0
C857 C 0.8426 0.88482 0.46671 0.0
C858 C 0.80681 0.89043 0.48657 0.0
C859 C 0.80225 0.88924 0.4276 0.0
C860 C 0.81807 0.88652 0.38828 0.0
H861 H 0.69117 0.89596 0.22479 0.0
H862 H 0.7266 0.89661 0.2577 0.0
C863 C 0.83801 0.88419 0.4076 0.0
C864 C 0.78097 0.89076 0.40702 0.0
H865 H 0.7444 0.86689 0.32915 0.0
C866 C 0.76992 0.90749 0.42034 0.0
C867 C 0.77161 0.87585 0.37414 0.0
C868 C 0.78226 0.85708 0.36108 0.0
C869 C 0.74985 0.90983 0.40087 0.0
C870 C 0.74062 0.89499 0.36761 0.0
C871 C 0.75164 0.87829 0.35425 0.0
C872 C 0.71925 0.89613 0.348 0.0
C873 C 0.73871 0.9282 0.41532 0.0
C874 C 0.70346 0.89565 0.38797 0.0
C875 C 0.68325 0.89515 0.36941 0.0
C876 C 0.67844 0.89513 0.31042 0.0
C877 C 0.69433 0.89602 0.27049 0.0
C878 C 0.71457 0.89637 0.28916 0.0
H879 H 0.74924 0.93977 0.43019 0.0
H880 H 0.73003 0.93326 0.3775 0.0
H881 H 0.72774 0.92554 0.45019 0.0
H882 H 0.70679 0.89516 0.43353 0.0
H883 H 0.67141 0.89449 0.40135 0.0
H884 H 0.09575 0.17044 0.49822 0.0
H885 H 0.09014 0.20361 0.53169 0.0
H886 H 0.11803 0.19075 0.69432 0.0
H887 H 0.12373 0.15768 0.66165 0.0
H888 H 0.06941 0.21802 0.64234 0.0
H889 H 0.15121 0.23654 0.62064 0.0
H890 H 0.13978 0.2163 0.58298 0.0
H891 H 0.14544 0.21494 0.65823 0.0
C892 C 0.10058 0.17462 0.54124 0.0
C893 C 0.1103 0.1614 0.57711 0.0
C894 C 0.09729 0.19354 0.5603 0.0
C895 C 0.1038 0.19956 0.61525 0.0
C896 C 0.11301 0.18634 0.65164 0.0
H897 H 0.08645 0.30709 0.80669 0.0
H898 H 0.08626 0.27326 0.77543 0.0
C899 C 0.11621 0.16744 0.63283 0.0
C900 C 0.10187 0.21989 0.63379 0.0
H901 H 0.12986 0.26025 0.66157 0.0
C902 C 0.08258 0.22731 0.64658 0.0
C903 C 0.11911 0.23188 0.63883 0.0
C904 C 0.14008 0.22465 0.62414 0.0
C905 C 0.08012 0.24651 0.66497 0.0
C906 C 0.09741 0.25843 0.67073 0.0
C907 C 0.11666 0.25101 0.65739 0.0
C908 C 0.09596 0.27886 0.68885 0.0
C909 C 0.05908 0.25403 0.67723 0.0
C910 C 0.10151 0.29312 0.65052 0.0
C911 C 0.10167 0.31238 0.66812 0.0
C912 C 0.09645 0.31777 0.72471 0.0
C913 C 0.09054 0.30344 0.76284 0.0
C914 C 0.09032 0.28412 0.74501 0.0
H915 H 0.04709 0.24411 0.66067 0.0
H916 H 0.05717 0.25583 0.72433 0.0
H917 H 0.05687 0.2683 0.65775 0.0
H918 H 0.10595 0.28931 0.60704 0.0
H919 H 0.10623 0.32299 0.63746 0.0
H920 H 0.65732 0.60965 0.88593 0.0
H921 H 0.69183 0.60616 0.84962 0.0
H922 H 0.71504 0.60599 0.02324 0.0
H923 H 0.68047 0.60896 0.06006 0.0
H924 H 0.72249 0.63106 0.86432 0.0
H925 H 0.74506 0.561 0.95305 0.0
H926 H 0.71904 0.56914 0.95209 0.0
H927 H 0.73632 0.57771 0.00708 0.0
C928 C 0.66973 0.60864 0.9165 0.0
C929 C 0.66612 0.60958 0.97596 0.0
C930 C 0.68945 0.60664 0.89561 0.0
C931 C 0.70601 0.60557 0.93365 0.0
C932 C 0.70247 0.6063 0.99305 0.0
H933 H 0.83588 0.61354 0.90357 0.0
H934 H 0.80063 0.61158 0.93465 0.0
C935 C 0.6827 0.60813 0.01404 0.0
C936 C 0.72701 0.60503 0.91099 0.0
H937 H 0.77172 0.58019 0.91537 0.0
C938 C 0.73318 0.61982 0.875 0.0
C939 C 0.74096 0.59036 0.92501 0.0
C940 C 0.73497 0.57355 0.96096 0.0
C941 C 0.75304 0.62062 0.85381 0.0
C942 C 0.76705 0.60615 0.86865 0.0
C943 C 0.7609 0.59126 0.90418 0.0
C944 C 0.78838 0.60665 0.84924 0.0
C945 C 0.75909 0.63721 0.81702 0.0
C946 C 0.79315 0.60427 0.79091 0.0
C947 C 0.81333 0.60536 0.77284 0.0
C948 C 0.82906 0.60889 0.8129 0.0
C949 C 0.82417 0.61095 0.87146 0.0
C950 C 0.80403 0.60977 0.88942 0.0
H951 H 0.74769 0.64897 0.81843 0.0
H952 H 0.77404 0.64309 0.83107 0.0
H953 H 0.76054 0.6321 0.77179 0.0
H954 H 0.78126 0.60162 0.75937 0.0
H955 H 0.81657 0.60362 0.7275 0.0
H956 H 0.39622 0.34402 0.1643 0.0
H957 H 0.40242 0.31148 0.1967 0.0
H958 H 0.40623 0.29133 0.02072 0.0
H959 H 0.40051 0.324 0.98777 0.0
H960 H 0.37859 0.2807 0.17629 0.0
H961 H 0.45557 0.26611 0.09083 0.0
H962 H 0.44486 0.28996 0.09456 0.0
H963 H 0.43782 0.27361 0.03697 0.0
C964 C 0.3986 0.33273 0.13236 0.0
C965 C 0.39785 0.33663 0.07337 0.0
C966 C 0.40216 0.31413 0.15103 0.0
C967 C 0.40503 0.299 0.11121 0.0
C968 C 0.40454 0.30284 0.05227 0.0
H969 H 0.40548 0.17576 0.13041 0.0
H970 H 0.40625 0.20926 0.10167 0.0
C971 C 0.40113 0.32152 0.03349 0.0
C972 C 0.40708 0.27906 0.13155 0.0
H973 H 0.43726 0.23917 0.1254 0.0
C974 C 0.39152 0.2717 0.16563 0.0
C975 C 0.42395 0.26731 0.11751 0.0
C976 C 0.4416 0.27469 0.08343 0.0
C977 C 0.39214 0.25279 0.18501 0.0
C978 C 0.40886 0.241 0.17035 0.0
C979 C 0.42449 0.24832 0.13657 0.0
C980 C 0.4099 0.22076 0.18806 0.0
C981 C 0.37467 0.24539 0.21977 0.0
C982 C 0.41211 0.21618 0.24613 0.0
C983 C 0.41172 0.19702 0.26285 0.0
C984 C 0.40902 0.18216 0.22168 0.0
C985 C 0.40741 0.18685 0.16333 0.0
C986 C 0.40792 0.20597 0.14671 0.0
H987 H 0.36132 0.25513 0.21858 0.0
H988 H 0.36993 0.23094 0.20371 0.0
H989 H 0.37958 0.24405 0.26518 0.0
H990 H 0.41387 0.22745 0.27856 0.0
H991 H 0.41308 0.19391 0.30806 0.0
loop_
_geom_bond_atom_site_label_1
_geom_bond_atom_site_label_2
_geom_bond_distance
_geom_bond_site_symmetry_2
_ccdc_geom_bond_type
Co0 O3 1.970 . S
Co0 N17 1.989 . S
Co0 O25 1.967 . S
Co0 O32 1.920 . S
Co1 O4 1.966 . S
Co1 N10 2.022 . S
Co1 N18 1.993 . S
Co1 O26 1.941 . S
C2 O3 1.258 . S
C2 O4 1.263 1_554 S
O3 Co0 1.970 . S
O3 C2 1.258 . S
O4 Co1 1.966 . S
O4 C2 1.263 1_556 S
C5 O6 1.235 . S
C5 O32 1.289 . S
O6 C5 1.235 . S
C7 C9 1.400 . S
C7 N10 1.351 . S
C7 C12 1.501 . S
C8 C9 1.387 . S
C8 N11 1.341 . S
C9 C7 1.400 . S
C9 C8 1.387 . S
N10 Co1 2.022 . S
N10 C7 1.351 . S
N10 N11 1.365 . S
N11 C8 1.341 . S
N11 N10 1.365 . S
N11 H31 0.862 . S
C12 C7 1.501 . S
C12 H13 0.961 . S
C12 H14 0.961 . S
C12 H15 0.960 . S
H13 C12 0.961 . S
H14 C12 0.961 . S
H15 C12 0.960 . S
C16 N17 1.342 . S
C16 C20 1.401 . S
C16 C21 1.499 . S
N17 Co0 1.989 . S
N17 C16 1.342 . S
N17 N18 1.388 1_554 S
N18 Co1 1.993 . S
N18 N17 1.388 1_556 S
N18 C19 1.346 . S
C19 N18 1.346 . S
C19 C20 1.396 1_556 S
C19 C29 1.510 . S
C20 C16 1.401 . S
C20 C19 1.396 1_554 S
C21 C16 1.499 . S
C21 H22 0.959 . S
C21 H23 0.960 . S
C21 H24 0.961 . S
H22 C21 0.959 . S
H23 C21 0.960 . S
H24 C21 0.961 . S
O25 Co0 1.967 . S
O25 C33 1.258 . S
O26 Co1 1.941 . S
O26 C33 1.266 1_556 S
H27 C29 0.959 . S
H28 C29 0.961 . S
C29 C19 1.510 . S
C29 H27 0.959 . S
C29 H28 0.961 . S
C29 H30 0.960 . S
H30 C29 0.960 . S
H31 N11 0.862 . S
O32 Co0 1.920 . S
O32 C5 1.289 . S
C33 O25 1.258 . S
C33 O26 1.266 1_554 S
Co34 O37 1.970 . S
Co34 N51 1.989 . S
Co34 O59 1.967 . S
Co34 O66 1.920 . S
Co35 O38 1.966 . S
Co35 N44 2.022 . S
Co35 N52 1.993 . S
Co35 O60 1.941 . S
C36 O37 1.258 . S
C36 O38 1.263 . S
O37 Co34 1.970 . S
O37 C36 1.258 . S
O38 Co35 1.966 . S
O38 C36 1.263 . S
C39 O40 1.235 . S
C39 O66 1.289 . S
O40 C39 1.235 . S
C41 C43 1.400 . S
C41 N44 1.351 . S
C41 C46 1.501 . S
C42 C43 1.387 . S
C42 N45 1.341 . S
C43 C41 1.400 . S
C43 C42 1.387 . S
N44 Co35 2.022 . S
N44 C41 1.351 . S
N44 N45 1.365 . S
N45 C42 1.341 . S
N45 N44 1.365 . S
N45 H65 0.862 . S
C46 C41 1.501 . S
C46 H47 0.961 . S
C46 H48 0.961 . S
C46 H49 0.960 . S
H47 C46 0.961 . S
H48 C46 0.961 . S
H49 C46 0.960 . S
C50 N51 1.342 . S
C50 C54 1.401 . S
C50 C55 1.499 . S
N51 Co34 1.989 . S
N51 C50 1.342 . S
N51 N52 1.388 . S
N52 Co35 1.993 . S
N52 N51 1.388 . S
N52 C53 1.346 . S
C53 N52 1.346 . S
C53 C54 1.396 . S
C53 C63 1.510 . S
C54 C50 1.401 . S
C54 C53 1.396 . S
C55 C50 1.499 . S
C55 H56 0.959 . S
C55 H57 0.960 . S
C55 H58 0.961 . S
H56 C55 0.959 . S
H57 C55 0.960 . S
H58 C55 0.961 . S
O59 Co34 1.967 . S
O59 C67 1.258 . S
O60 Co35 1.941 . S
O60 C67 1.266 . S
H61 C63 0.959 . S
H62 C63 0.961 . S
C63 C53 1.510 . S
C63 H61 0.959 . S
C63 H62 0.961 . S
C63 H64 0.960 . S
H64 C63 0.960 . S
H65 N45 0.862 . S
O66 Co34 1.920 . S
O66 C39 1.289 . S
C67 O59 1.258 . S
C67 O60 1.266 . S
Co68 O71 1.970 . S
Co68 N85 1.989 . S
Co68 O93 1.967 . S
Co68 O100 1.920 . S
Co69 O72 1.966 . S
Co69 N78 2.022 . S
Co69 N86 1.993 . S
Co69 O94 1.941 . S
C70 O71 1.258 . S
C70 O72 1.263 . S
O71 Co68 1.970 . S
O71 C70 1.258 . S
O72 Co69 1.966 . S
O72 C70 1.263 . S
C73 O74 1.235 . S
C73 O100 1.289 . S
O74 C73 1.235 . S
C75 C77 1.400 . S
C75 N78 1.351 . S
C75 C80 1.501 . S
C76 C77 1.387 . S
C76 N79 1.341 . S
C77 C75 1.400 . S
C77 C76 1.387 . S
N78 Co69 2.022 . S
N78 C75 1.351 . S
N78 N79 1.365 . S
N79 C76 1.341 . S
N79 N78 1.365 . S
N79 H99 0.862 . S
C80 C75 1.501 . S
C80 H81 0.961 . S
C80 H82 0.961 . S
C80 H83 0.960 . S
H81 C80 0.961 . S
H82 C80 0.961 . S
H83 C80 0.960 . S
C84 N85 1.342 . S
C84 C88 1.401 . S
C84 C89 1.499 . S
N85 Co68 1.989 . S
N85 C84 1.342 . S
N85 N86 1.388 . S
N86 Co69 1.993 . S
N86 N85 1.388 . S
N86 C87 1.346 . S
C87 N86 1.346 . S
C87 C88 1.396 . S
C87 C97 1.510 . S
C88 C84 1.401 . S
C88 C87 1.396 . S
C89 C84 1.499 . S
C89 H90 0.959 . S
C89 H91 0.960 . S
C89 H92 0.961 . S
H90 C89 0.959 . S
H91 C89 0.960 . S
H92 C89 0.961 . S
O93 Co68 1.967 . S
O93 C101 1.258 . S
O94 Co69 1.941 . S
O94 C101 1.266 . S
H95 C97 0.959 . S
H96 C97 0.961 . S
C97 C87 1.510 . S
C97 H95 0.959 . S
C97 H96 0.961 . S
C97 H98 0.960 . S
H98 C97 0.960 . S
H99 N79 0.862 . S
O100 Co68 1.920 . S
O100 C73 1.289 . S
C101 O93 1.258 . S
C101 O94 1.266 . S
Co102 O105 1.970 . S
Co102 N119 1.989 . S
Co102 O127 1.967 . S
Co102 O134 1.920 . S
Co103 O106 1.966 . S
Co103 N112 2.022 . S
Co103 N120 1.993 . S
Co103 O128 1.941 . S
C104 O105 1.258 . S
C104 O106 1.263 . S
O105 Co102 1.970 . S
O105 C104 1.258 . S
O106 Co103 1.966 . S
O106 C104 1.263 . S
C107 O108 1.235 . S
C107 O134 1.289 . S
O108 C107 1.235 . S
C109 C111 1.400 1_556 S
C109 N112 1.351 . S
C109 C114 1.501 . S
C110 C111 1.387 . S
C110 N113 1.341 1_554 S
C111 C109 1.400 1_554 S
C111 C110 1.387 . S
N112 Co103 2.022 . S
N112 C109 1.351 . S
N112 N113 1.365 . S
N113 C110 1.341 1_556 S
N113 N112 1.365 . S
N113 H133 0.862 . S
C114 C109 1.501 . S
C114 H115 0.961 . S
C114 H116 0.961 . S
C114 H117 0.960 1_556 S
H115 C114 0.961 . S
H116 C114 0.961 . S
H117 C114 0.960 1_554 S
C118 N119 1.342 . S
C118 C122 1.401 . S
C118 C123 1.499 . S
N119 Co102 1.989 . S
N119 C118 1.342 . S
N119 N120 1.388 . S
N120 Co103 1.993 . S
N120 N119 1.388 . S
N120 C121 1.346 . S
C121 N120 1.346 . S
C121 C122 1.396 . S
C121 C131 1.510 . S
C122 C118 1.401 . S
C122 C121 1.396 . S
C123 C118 1.499 . S
C123 H124 0.959 . S
C123 H125 0.960 . S
C123 H126 0.961 . S
H124 C123 0.959 . S
H125 C123 0.960 . S
H126 C123 0.961 . S
O127 Co102 1.967 . S
O127 C135 1.258 . S
O128 Co103 1.941 . S
O128 C135 1.266 . S
H129 C131 0.959 . S
H130 C131 0.961 . S
C131 C121 1.510 . S
C131 H129 0.959 . S
C131 H130 0.961 . S
C131 H132 0.960 . S
H132 C131 0.960 . S
H133 N113 0.862 . S
O134 Co102 1.920 . S
O134 C107 1.289 . S
C135 O127 1.258 . S
C135 O128 1.266 . S
Co136 O139 1.970 . S
Co136 N153 1.989 . S
Co136 O161 1.967 . S
Co136 O168 1.920 . S
Co137 O140 1.966 . S
Co137 N146 2.022 . S
Co137 N154 1.993 . S
Co137 O162 1.941 . S
C138 O139 1.258 . S
C138 O140 1.263 . S
O139 Co136 1.970 . S
O139 C138 1.258 . S
O140 Co137 1.966 . S
O140 C138 1.263 . S
C141 O142 1.235 . S
C141 O168 1.289 . S
O142 C141 1.235 . S
C143 C145 1.400 . S
C143 N146 1.351 . S
C143 C148 1.501 . S
C144 C145 1.387 . S
C144 N147 1.341 . S
C145 C143 1.400 . S
C145 C144 1.387 . S
N146 Co137 2.022 . S
N146 C143 1.351 . S
N146 N147 1.365 . S
N147 C144 1.341 . S
N147 N146 1.365 . S
N147 H167 0.862 . S
C148 C143 1.501 . S
C148 H149 0.961 . S
C148 H150 0.961 . S
C148 H151 0.960 . S
H149 C148 0.961 . S
H150 C148 0.961 . S
H151 C148 0.960 . S
C152 N153 1.342 . S
C152 C156 1.401 . S
C152 C157 1.499 . S
N153 Co136 1.989 . S
N153 C152 1.342 . S
N153 N154 1.388 . S
N154 Co137 1.993 . S
N154 N153 1.388 . S
N154 C155 1.346 . S
C155 N154 1.346 . S
C155 C156 1.396 . S
C155 C165 1.510 . S
C156 C152 1.401 . S
C156 C155 1.396 . S
C157 C152 1.499 . S
C157 H158 0.959 . S
C157 H159 0.960 . S
C157 H160 0.961 . S
H158 C157 0.959 . S
H159 C157 0.960 . S
H160 C157 0.961 . S
O161 Co136 1.967 . S
O161 C169 1.258 . S
O162 Co137 1.941 . S
O162 C169 1.266 . S
H163 C165 0.959 . S
H164 C165 0.961 . S
C165 C155 1.510 . S
C165 H163 0.959 . S
C165 H164 0.961 . S
C165 H166 0.960 . S
H166 C165 0.960 . S
H167 N147 0.862 . S
O168 Co136 1.920 . S
O168 C141 1.289 . S
C169 O161 1.258 . S
C169 O162 1.266 . S
Co170 O173 1.970 . S
Co170 N187 1.989 . S
Co170 O195 1.967 . S
Co170 O202 1.920 . S
Co171 O174 1.966 . S
Co171 N180 2.022 . S
Co171 N188 1.993 . S
Co171 O196 1.941 . S
C172 O173 1.258 . S
C172 O174 1.263 . S
O173 Co170 1.970 . S
O173 C172 1.258 . S
O174 Co171 1.966 . S
O174 C172 1.263 . S
C175 O176 1.235 . S
C175 O202 1.289 . S
O176 C175 1.235 . S
C177 C179 1.400 . S
C177 N180 1.351 . S
C177 C182 1.501 . S
C178 C179 1.387 . S
C178 N181 1.341 . S
C179 C177 1.400 . S
C179 C178 1.387 . S
N180 Co171 2.022 . S
N180 C177 1.351 . S
N180 N181 1.365 . S
N181 C178 1.341 . S
N181 N180 1.365 . S
N181 H201 0.862 . S
C182 C177 1.501 . S
C182 H183 0.961 . S
C182 H184 0.961 . S
C182 H185 0.960 . S
H183 C182 0.961 . S
H184 C182 0.961 . S
H185 C182 0.960 . S
C186 N187 1.342 . S
C186 C190 1.401 . S
C186 C191 1.499 . S
N187 Co170 1.989 . S
N187 C186 1.342 . S
N187 N188 1.388 . S
N188 Co171 1.993 . S
N188 N187 1.388 . S
N188 C189 1.346 . S
C189 N188 1.346 . S
C189 C190 1.396 . S
C189 C199 1.510 . S
C190 C186 1.401 . S
C190 C189 1.396 . S
C191 C186 1.499 . S
C191 H192 0.959 . S
C191 H193 0.960 . S
C191 H194 0.961 . S
H192 C191 0.959 . S
H193 C191 0.960 . S
H194 C191 0.961 . S
O195 Co170 1.967 . S
O195 C203 1.258 . S
O196 Co171 1.941 . S
O196 C203 1.266 . S
H197 C199 0.959 . S
H198 C199 0.961 . S
C199 C189 1.510 . S
C199 H197 0.959 . S
C199 H198 0.961 . S
C199 H200 0.960 . S
H200 C199 0.960 . S
H201 N181 0.862 . S
O202 Co170 1.920 . S
O202 C175 1.289 . S
C203 O195 1.258 . S
C203 O196 1.266 . S
Co204 O207 1.970 . S
Co204 N221 1.989 . S
Co204 O229 1.967 . S
Co204 O236 1.920 . S
Co205 O208 1.966 . S
Co205 N214 2.022 . S
Co205 N222 1.993 . S
Co205 O230 1.941 . S
C206 O207 1.258 . S
C206 O208 1.263 . S
O207 Co204 1.970 . S
O207 C206 1.258 . S
O208 Co205 1.966 . S
O208 C206 1.263 . S
C209 O210 1.235 . S
C209 O236 1.289 . S
O210 C209 1.235 . S
C211 C213 1.400 . S
C211 N214 1.351 . S
C211 C216 1.501 . S
C212 C213 1.387 . S
C212 N215 1.341 . S
C213 C211 1.400 . S
C213 C212 1.387 . S
N214 Co205 2.022 . S
N214 C211 1.351 . S
N214 N215 1.365 . S
N215 C212 1.341 . S
N215 N214 1.365 . S
N215 H235 0.862 . S
C216 C211 1.501 . S
C216 H217 0.961 . S
C216 H218 0.961 . S
C216 H219 0.960 . S
H217 C216 0.961 . S
H218 C216 0.961 . S
H219 C216 0.960 . S
C220 N221 1.342 . S
C220 C224 1.401 . S
C220 C225 1.499 . S
N221 Co204 1.989 . S
N221 C220 1.342 . S
N221 N222 1.388 . S
N222 Co205 1.993 . S
N222 N221 1.388 . S
N222 C223 1.346 . S
C223 N222 1.346 . S
C223 C224 1.396 . S
C223 C233 1.510 . S
C224 C220 1.401 . S
C224 C223 1.396 . S
C225 C220 1.499 . S
C225 H226 0.959 . S
C225 H227 0.960 . S
C225 H228 0.961 . S
H226 C225 0.959 . S
H227 C225 0.960 . S
H228 C225 0.961 . S
O229 Co204 1.967 . S
O229 C237 1.258 . S
O230 Co205 1.941 . S
O230 C237 1.266 . S
H231 C233 0.959 . S
H232 C233 0.961 . S
C233 C223 1.510 . S
C233 H231 0.959 . S
C233 H232 0.961 . S
C233 H234 0.960 . S
H234 C233 0.960 . S
H235 N215 0.862 . S
O236 Co204 1.920 . S
O236 C209 1.289 . S
C237 O229 1.258 . S
C237 O230 1.266 . S
Co238 O241 1.970 1_556 S
Co238 N255 1.989 1_556 S
Co238 O263 1.967 . S
Co238 O270 1.920 . S
Co239 O242 1.966 . S
Co239 N248 2.022 . S
Co239 N256 1.993 . S
Co239 O264 1.941 . S
C240 O241 1.258 . S
C240 O242 1.263 . S
O241 Co238 1.970 1_554 S
O241 C240 1.258 . S
O242 Co239 1.966 . S
O242 C240 1.263 . S
C243 O244 1.235 . S
C243 O270 1.289 . S
O244 C243 1.235 . S
C245 C247 1.400 . S
C245 N248 1.351 . S
C245 C250 1.501 . S
C246 C247 1.387 . S
C246 N249 1.341 . S
C247 C245 1.400 . S
C247 C246 1.387 . S
N248 Co239 2.022 . S
N248 C245 1.351 . S
N248 N249 1.365 . S
N249 C246 1.341 . S
N249 N248 1.365 . S
N249 H269 0.862 . S
C250 C245 1.501 . S
C250 H251 0.961 . S
C250 H252 0.961 . S
C250 H253 0.960 . S
H251 C250 0.961 . S
H252 C250 0.961 . S
H253 C250 0.960 . S
C254 N255 1.342 1_556 S
C254 C258 1.401 1_556 S
C254 C259 1.499 . S
N255 Co238 1.989 1_554 S
N255 C254 1.342 1_554 S
N255 N256 1.388 . S
N256 Co239 1.993 . S
N256 N255 1.388 . S
N256 C257 1.346 . S
C257 N256 1.346 . S
C257 C258 1.396 . S
C257 C267 1.510 . S
C258 C254 1.401 1_554 S
C258 C257 1.396 . S
C259 C254 1.499 . S
C259 H260 0.959 . S
C259 H261 0.960 . S
C259 H262 0.961 . S
H260 C259 0.959 . S
H261 C259 0.960 . S
H262 C259 0.961 . S
O263 Co238 1.967 . S
O263 C271 1.258 1_556 S
O264 Co239 1.941 . S
O264 C271 1.266 . S
H265 C267 0.959 . S
H266 C267 0.961 . S
C267 C257 1.510 . S
C267 H265 0.959 . S
C267 H266 0.961 . S
C267 H268 0.960 . S
H268 C267 0.960 . S
H269 N249 0.862 . S
O270 Co238 1.920 . S
O270 C243 1.289 . S
C271 O263 1.258 1_554 S
C271 O264 1.266 . S
H272 C280 0.929 1_556 S
H273 C282 0.930 1_556 S
H274 C284 0.930 . S
H275 C287 0.929 . S
H276 C290 0.930 . S
H277 C292 0.960 . S
H278 C292 0.960 . S
H279 C292 0.960 1_554 S
C280 H272 0.929 1_554 S
C280 C281 1.377 . S
C280 C282 1.384 . S
C281 C280 1.377 . S
C281 C287 1.390 . S
C282 H273 0.930 1_554 S
C282 C280 1.384 . S
C282 C283 1.372 . S
C283 C282 1.372 . S
C283 C284 1.400 . S
C283 C288 1.490 . S
C284 H274 0.930 . S
C284 C283 1.400 . S
C284 C287 1.386 . S
H285 C301 0.930 . S
H286 C302 0.931 . S
C287 H275 0.929 . S
C287 C281 1.390 . S
C287 C284 1.386 . S
C288 C283 1.490 . S
C288 C290 1.395 . S
C288 C291 1.403 . S
H289 C295 0.930 . S
C290 H276 0.930 . S
C290 C288 1.395 . S
C290 C293 1.403 . S
C291 C288 1.403 . S
C291 C292 1.524 1_554 S
C291 C295 1.400 . S
C292 H277 0.960 . S
C292 H278 0.960 . S
C292 H279 0.960 1_556 S
C292 C291 1.524 1_556 S
C293 C290 1.403 . S
C293 C294 1.392 . S
C293 C297 1.495 . S
C294 C293 1.392 . S
C294 C295 1.385 . S
C294 C296 1.478 . S
C295 H289 0.930 . S
C295 C291 1.400 . S
C295 C294 1.385 . S
C296 C294 1.478 . S
C296 C298 1.381 1_554 S
C296 C302 1.383 . S
C297 C293 1.495 . S
C297 H303 0.959 . S
C297 H304 0.961 . S
C297 H305 0.960 . S
C298 C296 1.381 1_556 S
C298 C299 1.394 . S
C298 H306 0.930 . S
C299 C298 1.394 . S
C299 C300 1.383 1_556 S
C299 H307 0.929 . S
C300 C299 1.383 1_554 S
C300 C301 1.377 . S
C301 H285 0.930 . S
C301 C300 1.377 . S
C301 C302 1.379 . S
C302 H286 0.931 . S
C302 C296 1.383 . S
C302 C301 1.379 . S
H303 C297 0.959 . S
H304 C297 0.961 . S
H305 C297 0.960 . S
H306 C298 0.930 . S
H307 C299 0.929 . S
H308 C316 0.929 . S
H309 C318 0.930 . S
H310 C320 0.930 . S
H311 C323 0.929 . S
H312 C326 0.930 . S
H313 C328 0.960 . S
H314 C328 0.960 . S
H315 C328 0.960 . S
C316 H308 0.929 . S
C316 C317 1.377 . S
C316 C318 1.384 . S
C317 C316 1.377 . S
C317 C323 1.390 . S
C318 H309 0.930 . S
C318 C316 1.384 . S
C318 C319 1.372 . S
C319 C318 1.372 . S
C319 C320 1.400 . S
C319 C324 1.490 . S
C320 H310 0.930 . S
C320 C319 1.400 . S
C320 C323 1.386 . S
H321 C337 0.930 . S
H322 C338 0.931 . S
C323 H311 0.929 . S
C323 C317 1.390 . S
C323 C320 1.386 . S
C324 C319 1.490 . S
C324 C326 1.395 . S
C324 C327 1.403 . S
H325 C331 0.924 1_565 S
C326 H312 0.930 . S
C326 C324 1.395 . S
C326 C329 1.403 . S
C327 C324 1.403 . S
C327 C328 1.524 . S
C327 C331 1.412 . S
C328 H313 0.960 . S
C328 H314 0.960 . S
C328 H315 0.960 . S
C328 C327 1.524 . S
C329 C326 1.403 . S
C329 C330 1.392 1_545 S
C329 C333 1.495 1_545 S
C330 C329 1.392 1_565 S
C330 C331 1.380 1_565 S
C330 C332 1.478 . S
C331 H325 0.924 1_545 S
C331 C327 1.412 . S
C331 C330 1.380 1_545 S
C332 C330 1.478 . S
C332 C334 1.381 . S
C332 C338 1.383 . S
C333 C329 1.495 1_565 S
C333 H339 0.959 1_565 S
C333 H340 0.961 . S
C333 H341 0.960 . S
C334 C332 1.381 . S
C334 C335 1.394 . S
C334 H342 0.930 . S
C335 C334 1.394 . S
C335 C336 1.383 . S
C335 H343 0.929 . S
C336 C335 1.383 . S
C336 C337 1.377 . S
C337 H321 0.930 . S
C337 C336 1.377 . S
C337 C338 1.379 . S
C338 H322 0.931 . S
C338 C332 1.383 . S
C338 C337 1.379 . S
H339 C333 0.959 1_545 S
H340 C333 0.961 . S
H341 C333 0.960 . S
H342 C334 0.930 . S
H343 C335 0.929 . S
H344 C352 0.929 . S
H345 C354 0.930 1_455 S
H346 C356 0.930 . S
H347 C359 0.929 . S
H348 C362 0.930 . S
H349 C364 0.997 . S
H350 C364 0.960 . S
H351 C364 0.960 . S
C352 H344 0.929 . S
C352 C353 1.377 . S
C352 C354 1.384 . S
C353 C352 1.377 . S
C353 C359 1.390 . S
C354 H345 0.930 1_655 S
C354 C352 1.384 . S
C354 C355 1.372 . S
C355 C354 1.372 . S
C355 C356 1.400 . S
C355 C360 1.490 1_655 S
C356 H346 0.930 . S
C356 C355 1.400 . S
C356 C359 1.386 . S
H357 C373 0.930 . S
H358 C374 0.931 . S
C359 H347 0.929 . S
C359 C353 1.390 . S
C359 C356 1.386 . S
C360 C355 1.490 1_455 S
C360 C362 1.395 . S
C360 C363 1.403 . S
H361 C367 0.930 1_545 S
C362 H348 0.930 . S
C362 C360 1.395 . S
C362 C365 1.403 . S
C363 C360 1.403 . S
C363 C364 1.524 1_455 S
C363 C367 1.400 . S
C364 H349 0.997 . S
C364 H350 0.960 . S
C364 H351 0.960 . S
C364 C363 1.524 1_655 S
C365 C362 1.403 . S
C365 C366 1.392 . S
C365 C369 1.495 . S
C366 C365 1.392 . S
C366 C367 1.385 . S
C366 C368 1.478 1_565 S
C367 H361 0.930 1_565 S
C367 C363 1.400 . S
C367 C366 1.385 . S
C368 C366 1.478 1_545 S
C368 C370 1.381 . S
C368 C374 1.383 . S
C369 C365 1.495 . S
C369 H375 0.959 . S
C369 H376 0.961 . S
C369 H377 0.960 . S
C370 C368 1.381 . S
C370 C371 1.394 . S
C370 H378 0.930 1_545 S
C371 C370 1.394 . S
C371 C372 1.383 . S
C371 H379 0.929 . S
C372 C371 1.383 . S
C372 C373 1.377 . S
C373 H357 0.930 . S
C373 C372 1.377 . S
C373 C374 1.379 . S
C374 H358 0.931 . S
C374 C368 1.383 . S
C374 C373 1.379 . S
H375 C369 0.959 . S
H376 C369 0.961 . S
H377 C369 0.960 . S
H378 C370 0.930 1_565 S
H379 C371 0.929 . S
H380 C388 0.929 . S
H381 C390 0.930 . S
H382 C392 0.930 . S
H383 C395 0.929 . S
H384 C398 0.930 . S
H385 C400 0.960 . S
H386 C400 0.960 . S
H387 C400 0.960 . S
C388 H380 0.929 . S
C388 C389 1.377 . S
C388 C390 1.384 . S
C389 C388 1.377 . S
C389 C395 1.390 . S
C390 H381 0.930 . S
C390 C388 1.384 . S
C390 C391 1.372 . S
C391 C390 1.372 . S
C391 C392 1.400 . S
C391 C396 1.490 . S
C392 H382 0.930 . S
C392 C391 1.400 . S
C392 C395 1.386 . S
H393 C409 0.930 . S
H394 C410 0.931 . S
C395 H383 0.929 . S
C395 C389 1.390 . S
C395 C392 1.386 . S
C396 C391 1.490 . S
C396 C398 1.395 . S
C396 C399 1.403 1_455 S
H397 C403 0.930 . S
C398 H384 0.930 . S
C398 C396 1.395 . S
C398 C401 1.403 . S
C399 C396 1.403 1_655 S
C399 C400 1.524 . S
C399 C403 1.400 . S
C400 H385 0.960 . S
C400 H386 0.960 . S
C400 H387 0.960 . S
C400 C399 1.524 . S
C401 C398 1.403 . S
C401 C402 1.392 1_455 S
C401 C405 1.495 . S
C402 C401 1.392 1_655 S
C402 C403 1.385 . S
C402 C404 1.478 . S
C403 H397 0.930 . S
C403 C399 1.400 . S
C403 C402 1.385 . S
C404 C402 1.478 . S
C404 C406 1.381 . S
C404 C410 1.383 . S
C405 C401 1.495 . S
C405 H411 0.959 . S
C405 H412 0.961 . S
C405 H413 0.960 . S
C406 C404 1.381 . S
C406 C407 1.394 . S
C406 H414 0.930 . S
C407 C406 1.394 . S
C407 C408 1.383 . S
C407 H415 0.929 . S
C408 C407 1.383 . S
C408 C409 1.377 . S
C409 H393 0.930 . S
C409 C408 1.377 . S
C409 C410 1.379 . S
C410 H394 0.931 . S
C410 C404 1.383 . S
C410 C409 1.379 . S
H411 C405 0.959 . S
H412 C405 0.961 . S
H413 C405 0.960 . S
H414 C406 0.930 . S
H415 C407 0.929 . S
H416 C424 0.929 . S
H417 C426 0.930 . S
H418 C428 0.930 . S
H419 C431 0.929 . S
H420 C434 0.930 . S
H421 C436 0.960 . S
H422 C436 0.960 . S
H423 C436 0.960 . S
C424 H416 0.929 . S
C424 C425 1.377 . S
C424 C426 1.384 . S
C425 C424 1.377 . S
C425 C431 1.390 . S
C426 H417 0.930 . S
C426 C424 1.384 . S
C426 C427 1.372 . S
C427 C426 1.372 . S
C427 C428 1.400 . S
C427 C432 1.490 . S
C428 H418 0.930 . S
C428 C427 1.400 . S
C428 C431 1.386 . S
H429 C445 0.930 . S
H430 C446 0.931 . S
C431 H419 0.929 . S
C431 C425 1.390 . S
C431 C428 1.386 . S
C432 C427 1.490 . S
C432 C434 1.395 . S
C432 C435 1.403 . S
H433 C439 0.930 . S
C434 H420 0.930 . S
C434 C432 1.395 . S
C434 C437 1.403 . S
C435 C432 1.403 . S
C435 C436 1.524 . S
C435 C439 1.400 . S
C436 H421 0.960 . S
C436 H422 0.960 . S
C436 H423 0.960 . S
C436 C435 1.524 . S
C437 C434 1.403 . S
C437 C438 1.392 . S
C437 C441 1.495 . S
C438 C437 1.392 . S
C438 C439 1.385 . S
C438 C440 1.478 . S
C439 H433 0.930 . S
C439 C435 1.400 . S
C439 C438 1.385 . S
C440 C438 1.478 . S
C440 C442 1.381 . S
C440 C446 1.383 . S
C441 C437 1.495 . S
C441 H447 0.959 . S
C441 H448 0.961 . S
C441 H449 0.960 . S
C442 C440 1.381 . S
C442 C443 1.394 . S
C442 H450 0.930 . S
C443 C442 1.394 . S
C443 C444 1.383 . S
C443 H451 0.929 . S
C444 C443 1.383 . S
C444 C445 1.377 . S
C445 H429 0.930 . S
C445 C444 1.377 . S
C445 C446 1.379 . S
C446 H430 0.931 . S
C446 C440 1.383 . S
C446 C445 1.379 . S
H447 C441 0.959 . S
H448 C441 0.961 . S
H449 C441 0.960 . S
H450 C442 0.930 . S
H451 C443 0.929 . S
H452 C460 0.929 . S
H453 C462 0.930 . S
H454 C464 0.930 . S
H455 C467 0.929 . S
H456 C470 0.930 . S
H457 C472 0.960 . S
H458 C472 0.960 . S
H459 C472 0.960 . S
C460 H452 0.929 . S
C460 C461 1.377 . S
C460 C462 1.384 . S
C461 C460 1.377 . S
C461 C467 1.390 . S
C462 H453 0.930 . S
C462 C460 1.384 . S
C462 C463 1.372 . S
C463 C462 1.372 . S
C463 C464 1.400 . S
C463 C468 1.490 . S
C464 H454 0.930 . S
C464 C463 1.400 . S
C464 C467 1.386 . S
H465 C481 0.930 . S
H466 C482 0.931 . S
C467 H455 0.929 . S
C467 C461 1.390 . S
C467 C464 1.386 . S
C468 C463 1.490 . S
C468 C470 1.395 . S
C468 C471 1.403 . S
H469 C475 0.930 . S
C470 H456 0.930 . S
C470 C468 1.395 . S
C470 C473 1.403 . S
C471 C468 1.403 . S
C471 C472 1.524 . S
C471 C475 1.400 . S
C472 H457 0.960 . S
C472 H458 0.960 . S
C472 H459 0.960 . S
C472 C471 1.524 . S
C473 C470 1.403 . S
C473 C474 1.392 . S
C473 C477 1.495 . S
C474 C473 1.392 . S
C474 C475 1.385 . S
C474 C476 1.478 . S
C475 H469 0.930 . S
C475 C471 1.400 . S
C475 C474 1.385 . S
C476 C474 1.478 . S
C476 C478 1.381 . S
C476 C482 1.383 . S
C477 C473 1.495 . S
C477 H483 0.959 . S
C477 H484 0.961 . S
C477 H485 0.960 . S
C478 C476 1.381 . S
C478 C479 1.394 . S
C478 H486 0.930 . S
C479 C478 1.394 . S
C479 C480 1.383 . S
C479 H487 0.929 . S
C480 C479 1.383 . S
C480 C481 1.377 . S
C481 H465 0.930 . S
C481 C480 1.377 . S
C481 C482 1.379 . S
C482 H466 0.931 . S
C482 C476 1.383 . S
C482 C481 1.379 . S
H483 C477 0.959 . S
H484 C477 0.961 . S
H485 C477 0.960 . S
H486 C478 0.930 . S
H487 C479 0.929 . S
H488 C496 0.929 . S
H489 C498 0.930 . S
H490 C500 0.930 . S
H491 C503 0.929 . S
H492 C506 0.930 . S
H493 C508 0.960 . S
H494 C508 0.960 . S
H495 C508 0.960 . S
C496 H488 0.929 . S
C496 C497 1.377 . S
C496 C498 1.384 . S
C497 C496 1.377 . S
C497 C503 1.390 . S
C498 H489 0.930 . S
C498 C496 1.384 . S
C498 C499 1.372 . S
C499 C498 1.372 . S
C499 C500 1.400 . S
C499 C504 1.490 1_556 S
C500 H490 0.930 . S
C500 C499 1.400 . S
C500 C503 1.386 . S
H501 C517 0.930 . S
H502 C518 0.931 . S
C503 H491 0.929 . S
C503 C497 1.390 . S
C503 C500 1.386 . S
C504 C499 1.490 1_554 S
C504 C506 1.395 . S
C504 C507 1.403 . S
H505 C511 0.930 . S
C506 H492 0.930 . S
C506 C504 1.395 . S
C506 C509 1.403 . S
C507 C504 1.403 . S
C507 C508 1.524 . S
C507 C511 1.400 . S
C508 H493 0.960 . S
C508 H494 0.960 . S
C508 H495 0.960 . S
C508 C507 1.524 . S
C509 C506 1.403 . S
C509 C510 1.392 . S
C509 C513 1.495 . S
C510 C509 1.392 . S
C510 C511 1.385 . S
C510 C512 1.478 . S
C511 H505 0.930 . S
C511 C507 1.400 . S
C511 C510 1.385 . S
C512 C510 1.478 . S
C512 C514 1.381 . S
C512 C518 1.383 . S
C513 C509 1.495 . S
C513 H519 0.959 . S
C513 H520 0.961 . S
C513 H521 0.960 . S
C514 C512 1.381 . S
C514 C515 1.394 . S
C514 H522 0.930 . S
C515 C514 1.394 . S
C515 C516 1.383 . S
C515 H523 0.929 . S
C516 C515 1.383 . S
C516 C517 1.377 . S
C517 H501 0.930 . S
C517 C516 1.377 . S
C517 C518 1.379 . S
C518 H502 0.931 . S
C518 C512 1.383 . S
C518 C517 1.379 . S
H519 C513 0.959 . S
H520 C513 0.961 . S
H521 C513 0.960 . S
H522 C514 0.930 . S
H523 C515 0.929 . S
H524 C532 0.929 . S
H525 C534 0.930 . S
H526 C536 0.930 . S
H527 C539 0.929 . S
H528 C542 0.930 . S
H529 C544 0.960 . S
H530 C544 0.960 . S
H531 C544 0.960 . S
C532 H524 0.929 . S
C532 C533 1.377 . S
C532 C534 1.384 . S
C533 C532 1.377 . S
C533 C539 1.390 . S
C534 H525 0.930 . S
C534 C532 1.384 . S
C534 C535 1.372 . S
C535 C534 1.372 . S
C535 C536 1.400 . S
C535 C540 1.490 . S
C536 H526 0.930 . S
C536 C535 1.400 . S
C536 C539 1.386 . S
H537 C553 0.930 . S
H538 C554 0.931 . S
C539 H527 0.929 . S
C539 C533 1.390 . S
C539 C536 1.386 . S
C540 C535 1.490 . S
C540 C542 1.395 . S
C540 C543 1.403 . S
H541 C547 0.930 . S
C542 H528 0.930 . S
C542 C540 1.395 . S
C542 C545 1.403 . S
C543 C540 1.403 . S
C543 C544 1.524 . S
C543 C547 1.400 . S
C544 H529 0.960 . S
C544 H530 0.960 . S
C544 H531 0.960 . S
C544 C543 1.524 . S
C545 C542 1.403 . S
C545 C546 1.392 . S
C545 C549 1.495 . S
C546 C545 1.392 . S
C546 C547 1.385 . S
C546 C548 1.478 . S
C547 H541 0.930 . S
C547 C543 1.400 . S
C547 C546 1.385 . S
C548 C546 1.478 . S
C548 C550 1.381 . S
C548 C554 1.383 . S
C549 C545 1.495 . S
C549 H555 0.959 . S
C549 H556 0.961 . S
C549 H557 0.960 . S
C550 C548 1.381 . S
C550 C551 1.394 . S
C550 H558 0.930 . S
C551 C550 1.394 . S
C551 C552 1.383 . S
C551 H559 0.929 . S
C552 C551 1.383 . S
C552 C553 1.377 . S
C553 H537 0.930 . S
C553 C552 1.377 . S
C553 C554 1.379 . S
C554 H538 0.931 . S
C554 C548 1.383 . S
C554 C553 1.379 . S
H555 C549 0.959 . S
H556 C549 0.961 . S
H557 C549 0.960 . S
H558 C550 0.930 . S
H559 C551 0.929 . S
H560 C568 0.929 . S
H561 C570 0.930 . S
H562 C572 0.930 . S
H563 C575 0.929 . S
H564 C578 0.930 . S
H565 C580 0.960 . S
H566 C580 0.960 . S
H567 C580 0.960 . S
C568 H560 0.929 . S
C568 C569 1.377 . S
C568 C570 1.384 . S
C569 C568 1.377 . S
C569 C575 1.390 . S
C570 H561 0.930 . S
C570 C568 1.384 . S
C570 C571 1.372 . S
C571 C570 1.372 . S
C571 C572 1.400 . S
C571 C576 1.490 . S
C572 H562 0.930 . S
C572 C571 1.400 . S
C572 C575 1.386 . S
H573 C589 0.930 . S
H574 C590 0.931 . S
C575 H563 0.929 . S
C575 C569 1.390 . S
C575 C572 1.386 . S
C576 C571 1.490 . S
C576 C578 1.395 . S
C576 C579 1.403 . S
H577 C583 0.930 . S
C578 H564 0.930 . S
C578 C576 1.395 . S
C578 C581 1.403 . S
C579 C576 1.403 . S
C579 C580 1.524 . S
C579 C583 1.400 . S
C580 H565 0.960 . S
C580 H566 0.960 . S
C580 H567 0.960 . S
C580 C579 1.524 . S
C581 C578 1.403 . S
C581 C582 1.392 . S
C581 C585 1.495 . S
C582 C581 1.392 . S
C582 C583 1.385 . S
C582 C584 1.478 . S
C583 H577 0.930 . S
C583 C579 1.400 . S
C583 C582 1.385 . S
C584 C582 1.478 . S
C584 C586 1.381 . S
C584 C590 1.383 . S
C585 C581 1.495 . S
C585 H591 0.959 . S
C585 H592 0.961 . S
C585 H593 0.960 . S
C586 C584 1.381 . S
C586 C587 1.394 . S
C586 H594 0.930 . S
C587 C586 1.394 . S
C587 C588 1.383 . S
C587 H595 0.929 . S
C588 C587 1.383 . S
C588 C589 1.377 . S
C589 H573 0.930 . S
C589 C588 1.377 . S
C589 C590 1.379 . S
C590 H574 0.931 . S
C590 C584 1.383 . S
C590 C589 1.379 . S
H591 C585 0.959 . S
H592 C585 0.961 . S
H593 C585 0.960 . S
H594 C586 0.930 . S
H595 C587 0.929 . S
H596 C604 0.929 . S
H597 C606 0.930 . S
H598 C608 0.930 . S
H599 C611 0.929 . S
H600 C614 0.930 1_554 S
H601 C616 0.960 . S
H602 C616 0.960 . S
H603 C616 0.960 . S
C604 H596 0.929 . S
C604 C605 1.377 . S
C604 C606 1.384 . S
C605 C604 1.377 . S
C605 C611 1.390 . S
C606 H597 0.930 . S
C606 C604 1.384 . S
C606 C607 1.372 . S
C607 C606 1.372 . S
C607 C608 1.400 . S
C607 C612 1.490 . S
C608 H598 0.930 . S
C608 C607 1.400 . S
C608 C611 1.386 . S
H609 C625 0.930 . S
H610 C626 0.931 . S
C611 H599 0.929 . S
C611 C605 1.390 . S
C611 C608 1.386 . S
C612 C607 1.490 . S
C612 C614 1.395 1_554 S
C612 C615 1.403 . S
H613 C619 0.930 . S
C614 H600 0.930 1_556 S
C614 C612 1.395 1_556 S
C614 C617 1.403 . S
C615 C612 1.403 . S
C615 C616 1.524 . S
C615 C619 1.400 1_554 S
C616 H601 0.960 . S
C616 H602 0.960 . S
C616 H603 0.960 . S
C616 C615 1.524 . S
C617 C614 1.403 . S
C617 C618 1.392 . S
C617 C621 1.495 . S
C618 C617 1.392 . S
C618 C619 1.385 . S
C618 C620 1.478 . S
C619 H613 0.930 . S
C619 C615 1.400 1_556 S
C619 C618 1.385 . S
C620 C618 1.478 . S
C620 C622 1.381 . S
C620 C626 1.383 . S
C621 C617 1.495 . S
C621 H627 0.959 . S
C621 H628 0.961 . S
C621 H629 0.960 . S
C622 C620 1.381 . S
C622 C623 1.394 . S
C622 H630 0.930 . S
C623 C622 1.394 . S
C623 C624 1.383 . S
C623 H631 0.929 . S
C624 C623 1.383 . S
C624 C625 1.377 . S
C625 H609 0.930 . S
C625 C624 1.377 . S
C625 C626 1.379 . S
C626 H610 0.931 . S
C626 C620 1.383 . S
C626 C625 1.379 . S
H627 C621 0.959 . S
H628 C621 0.961 . S
H629 C621 0.960 . S
H630 C622 0.930 . S
H631 C623 0.929 . S
H632 C640 0.929 . S
H633 C642 0.930 . S
H634 C644 0.930 . S
H635 C647 0.929 . S
H636 C650 0.930 . S
H637 C652 0.960 . S
H638 C652 0.960 . S
H639 C652 0.960 . S
C640 H632 0.929 . S
C640 C641 1.377 . S
C640 C642 1.384 . S
C641 C640 1.377 . S
C641 C647 1.390 . S
C642 H633 0.930 . S
C642 C640 1.384 . S
C642 C643 1.372 . S
C643 C642 1.372 . S
C643 C644 1.400 . S
C643 C648 1.490 . S
C644 H634 0.930 . S
C644 C643 1.400 . S
C644 C647 1.386 . S
H645 C661 0.930 1_556 S
H646 C662 0.931 . S
C647 H635 0.929 . S
C647 C641 1.390 . S
C647 C644 1.386 . S
C648 C643 1.490 . S
C648 C650 1.395 . S
C648 C651 1.403 . S
H649 C655 0.930 . S
C650 H636 0.930 . S
C650 C648 1.395 . S
C650 C653 1.403 . S
C651 C648 1.403 . S
C651 C652 1.524 . S
C651 C655 1.400 . S
C652 H637 0.960 . S
C652 H638 0.960 . S
C652 H639 0.960 . S
C652 C651 1.524 . S
C653 C650 1.403 . S
C653 C654 1.392 . S
C653 C657 1.495 . S
C654 C653 1.392 . S
C654 C655 1.385 . S
C654 C656 1.478 . S
C655 H649 0.930 . S
C655 C651 1.400 . S
C655 C654 1.385 . S
C656 C654 1.478 . S
C656 C658 1.381 . S
C656 C662 1.383 . S
C657 C653 1.495 . S
C657 H663 0.959 . S
C657 H664 0.961 . S
C657 H665 0.960 . S
C658 C656 1.381 . S
C658 C659 1.394 . S
C658 H666 0.930 . S
C659 C658 1.394 . S
C659 C660 1.383 1_554 S
C659 H667 0.929 1_554 S
C660 C659 1.383 1_556 S
C660 C661 1.377 1_556 S
C661 H645 0.930 1_554 S
C661 C660 1.377 1_554 S
C661 C662 1.379 . S
C662 H646 0.931 . S
C662 C656 1.383 . S
C662 C661 1.379 . S
H663 C657 0.959 . S
H664 C657 0.961 . S
H665 C657 0.960 . S
H666 C658 0.930 . S
H667 C659 0.929 1_556 S
H668 C676 0.929 . S
H669 C678 0.930 . S
H670 C680 0.930 . S
H671 C683 0.929 . S
H672 C686 0.930 . S
H673 C688 0.960 . S
H674 C688 0.960 . S
H675 C688 0.960 . S
C676 H668 0.929 . S
C676 C677 1.377 . S
C676 C678 1.384 . S
C677 C676 1.377 . S
C677 C683 1.390 . S
C678 H669 0.930 . S
C678 C676 1.384 . S
C678 C679 1.372 . S
C679 C678 1.372 . S
C679 C680 1.400 . S
C679 C684 1.490 . S
C680 H670 0.930 . S
C680 C679 1.400 . S
C680 C683 1.386 . S
H681 C697 0.930 . S
H682 C698 0.931 . S
C683 H671 0.929 . S
C683 C677 1.390 . S
C683 C680 1.386 . S
C684 C679 1.490 . S
C684 C686 1.395 . S
C684 C687 1.403 . S
H685 C691 0.930 . S
C686 H672 0.930 . S
C686 C684 1.395 . S
C686 C689 1.403 . S
C687 C684 1.403 . S
C687 C688 1.524 . S
C687 C691 1.400 . S
C688 H673 0.960 . S
C688 H674 0.960 . S
C688 H675 0.960 . S
C688 C687 1.524 . S
C689 C686 1.403 . S
C689 C690 1.392 . S
C689 C693 1.495 . S
C690 C689 1.392 . S
C690 C691 1.385 . S
C690 C692 1.478 . S
C691 H685 0.930 . S
C691 C687 1.400 . S
C691 C690 1.385 . S
C692 C690 1.478 . S
C692 C694 1.381 . S
C692 C698 1.383 . S
C693 C689 1.495 . S
C693 H699 0.959 . S
C693 H700 0.961 . S
C693 H701 0.960 . S
C694 C692 1.381 . S
C694 C695 1.394 . S
C694 H702 0.930 . S
C695 C694 1.394 . S
C695 C696 1.383 . S
C695 H703 0.929 . S
C696 C695 1.383 . S
C696 C697 1.377 . S
C697 H681 0.930 . S
C697 C696 1.377 . S
C697 C698 1.379 . S
C698 H682 0.931 . S
C698 C692 1.383 . S
C698 C697 1.379 . S
H699 C693 0.959 . S
H700 C693 0.961 . S
H701 C693 0.960 . S
H702 C694 0.930 . S
H703 C695 0.929 . S
H704 C712 0.929 . S
H705 C714 0.930 . S
H706 C716 0.930 . S
H707 C719 0.929 . S
H708 C722 0.930 . S
H709 C724 0.960 . S
H710 C724 0.960 . S
H711 C724 0.960 . S
C712 H704 0.929 . S
C712 C713 1.377 . S
C712 C714 1.384 . S
C713 C712 1.377 . S
C713 C719 1.390 . S
C714 H705 0.930 . S
C714 C712 1.384 . S
C714 C715 1.372 . S
C715 C714 1.372 . S
C715 C716 1.400 . S
C715 C720 1.490 . S
C716 H706 0.930 . S
C716 C715 1.400 . S
C716 C719 1.386 . S
H717 C733 0.930 . S
H718 C734 0.931 . S
C719 H707 0.929 . S
C719 C713 1.390 . S
C719 C716 1.386 . S
C720 C715 1.490 . S
C720 C722 1.395 . S
C720 C723 1.403 . S
H721 C727 0.930 . S
C722 H708 0.930 . S
C722 C720 1.395 . S
C722 C725 1.403 . S
C723 C720 1.403 . S
C723 C724 1.524 . S
C723 C727 1.400 . S
C724 H709 0.960 . S
C724 H710 0.960 . S
C724 H711 0.960 . S
C724 C723 1.524 . S
C725 C722 1.403 . S
C725 C726 1.392 . S
C725 C729 1.495 . S
C726 C725 1.392 . S
C726 C727 1.385 . S
C726 C728 1.478 . S
C727 H721 0.930 . S
C727 C723 1.400 . S
C727 C726 1.385 . S
C728 C726 1.478 . S
C728 C730 1.381 1_556 S
C728 C734 1.383 . S
C729 C725 1.495 . S
C729 H735 0.959 . S
C729 H736 0.961 . S
C729 H737 0.960 1_556 S
C730 C728 1.381 1_554 S
C730 C731 1.394 . S
C730 H738 0.930 . S
C731 C730 1.394 . S
C731 C732 1.383 1_554 S
C731 H739 0.929 . S
C732 C731 1.383 1_556 S
C732 C733 1.377 . S
C733 H717 0.930 . S
C733 C732 1.377 . S
C733 C734 1.379 . S
C734 H718 0.931 . S
C734 C728 1.383 . S
C734 C733 1.379 . S
H735 C729 0.959 . S
H736 C729 0.961 . S
H737 C729 0.960 1_554 S
H738 C730 0.930 . S
H739 C731 0.929 . S
H740 C748 0.929 . S
H741 C750 0.930 . S
H742 C752 0.930 . S
H743 C755 0.929 . S
H744 C758 0.930 . S
H745 C760 0.960 . S
H746 C760 0.960 . S
H747 C760 0.960 . S
C748 H740 0.929 . S
C748 C749 1.377 . S
C748 C750 1.384 . S
C749 C748 1.377 . S
C749 C755 1.390 . S
C750 H741 0.930 . S
C750 C748 1.384 . S
C750 C751 1.372 . S
C751 C750 1.372 . S
C751 C752 1.400 . S
C751 C756 1.490 . S
C752 H742 0.930 . S
C752 C751 1.400 . S
C752 C755 1.386 . S
H753 C769 0.930 . S
H754 C770 0.931 . S
C755 H743 0.929 . S
C755 C749 1.390 . S
C755 C752 1.386 . S
C756 C751 1.490 . S
C756 C758 1.395 . S
C756 C759 1.403 . S
H757 C763 0.930 . S
C758 H744 0.930 . S
C758 C756 1.395 . S
C758 C761 1.403 . S
C759 C756 1.403 . S
C759 C760 1.524 . S
C759 C763 1.400 . S
C760 H745 0.960 . S
C760 H746 0.960 . S
C760 H747 0.960 . S
C760 C759 1.524 . S
C761 C758 1.403 . S
C761 C762 1.392 . S
C761 C765 1.495 . S
C762 C761 1.392 . S
C762 C763 1.385 . S
C762 C764 1.478 . S
C763 H757 0.930 . S
C763 C759 1.400 . S
C763 C762 1.385 . S
C764 C762 1.478 . S
C764 C766 1.381 . S
C764 C770 1.383 . S
C765 C761 1.495 . S
C765 H771 0.959 . S
C765 H772 0.961 . S
C765 H773 0.960 . S
C766 C764 1.381 . S
C766 C767 1.394 . S
C766 H774 0.930 . S
C767 C766 1.394 . S
C767 C768 1.383 . S
C767 H775 0.929 . S
C768 C767 1.383 . S
C768 C769 1.377 . S
C769 H753 0.930 . S
C769 C768 1.377 . S
C769 C770 1.379 . S
C770 H754 0.931 . S
C770 C764 1.383 . S
C770 C769 1.379 . S
H771 C765 0.959 . S
H772 C765 0.961 . S
H773 C765 0.960 . S
H774 C766 0.930 . S
H775 C767 0.929 . S
H776 C784 0.929 . S
H777 C786 0.930 . S
H778 C788 0.930 . S
H779 C791 0.929 . S
H780 C794 0.930 . S
H781 C796 0.960 . S
H782 C796 0.960 . S
H783 C796 0.960 . S
C784 H776 0.929 . S
C784 C785 1.377 . S
C784 C786 1.384 . S
C785 C784 1.377 . S
C785 C791 1.390 . S
C786 H777 0.930 . S
C786 C784 1.384 . S
C786 C787 1.372 . S
C787 C786 1.372 . S
C787 C788 1.400 . S
C787 C792 1.490 . S
C788 H778 0.930 . S
C788 C787 1.400 . S
C788 C791 1.386 . S
H789 C805 0.930 . S
H790 C806 0.931 . S
C791 H779 0.929 . S
C791 C785 1.390 . S
C791 C788 1.386 . S
C792 C787 1.490 . S
C792 C794 1.395 . S
C792 C795 1.403 . S
H793 C799 0.930 . S
C794 H780 0.930 . S
C794 C792 1.395 . S
C794 C797 1.403 . S
C795 C792 1.403 . S
C795 C796 1.524 . S
C795 C799 1.400 . S
C796 H781 0.960 . S
C796 H782 0.960 . S
C796 H783 0.960 . S
C796 C795 1.524 . S
C797 C794 1.403 . S
C797 C798 1.392 . S
C797 C801 1.495 . S
C798 C797 1.392 . S
C798 C799 1.385 . S
C798 C800 1.478 . S
C799 H793 0.930 . S
C799 C795 1.400 . S
C799 C798 1.385 . S
C800 C798 1.478 . S
C800 C802 1.381 . S
C800 C806 1.383 . S
C801 C797 1.495 . S
C801 H807 0.959 . S
C801 H808 0.961 . S
C801 H809 0.960 . S
C802 C800 1.381 . S
C802 C803 1.394 . S
C802 H810 0.930 . S
C803 C802 1.394 . S
C803 C804 1.383 . S
C803 H811 0.929 . S
C804 C803 1.383 . S
C804 C805 1.377 . S
C805 H789 0.930 . S
C805 C804 1.377 . S
C805 C806 1.379 . S
C806 H790 0.931 . S
C806 C800 1.383 . S
C806 C805 1.379 . S
H807 C801 0.959 . S
H808 C801 0.961 . S
H809 C801 0.960 . S
H810 C802 0.930 . S
H811 C803 0.929 . S
H812 C820 0.929 . S
H813 C822 0.930 . S
H814 C824 0.930 . S
H815 C827 0.929 . S
H816 C830 0.930 . S
H817 C832 0.960 . S
H818 C832 0.960 . S
H819 C832 0.960 . S
C820 H812 0.929 . S
C820 C821 1.377 . S
C820 C822 1.384 . S
C821 C820 1.377 . S
C821 C827 1.390 . S
C822 H813 0.930 . S
C822 C820 1.384 . S
C822 C823 1.372 . S
C823 C822 1.372 . S
C823 C824 1.400 . S
C823 C828 1.490 . S
C824 H814 0.930 . S
C824 C823 1.400 . S
C824 C827 1.386 . S
H825 C841 0.930 . S
H826 C842 0.931 . S
C827 H815 0.929 . S
C827 C821 1.390 . S
C827 C824 1.386 . S
C828 C823 1.490 . S
C828 C830 1.395 . S
C828 C831 1.403 . S
H829 C835 0.930 . S
C830 H816 0.930 . S
C830 C828 1.395 . S
C830 C833 1.403 . S
C831 C828 1.403 . S
C831 C832 1.524 . S
C831 C835 1.400 . S
C832 H817 0.960 . S
C832 H818 0.960 . S
C832 H819 0.960 . S
C832 C831 1.524 . S
C833 C830 1.403 . S
C833 C834 1.392 . S
C833 C837 1.495 . S
C834 C833 1.392 . S
C834 C835 1.385 . S
C834 C836 1.478 . S
C835 H829 0.930 . S
C835 C831 1.400 . S
C835 C834 1.385 . S
C836 C834 1.478 . S
C836 C838 1.381 . S
C836 C842 1.383 . S
C837 C833 1.495 . S
C837 H843 0.959 . S
C837 H844 0.961 . S
C837 H845 0.960 . S
C838 C836 1.381 . S
C838 C839 1.394 . S
C838 H846 0.930 . S
C839 C838 1.394 . S
C839 C840 1.383 . S
C839 H847 0.929 . S
C840 C839 1.383 . S
C840 C841 1.377 . S
C841 H825 0.930 . S
C841 C840 1.377 . S
C841 C842 1.379 . S
C842 H826 0.931 . S
C842 C836 1.383 . S
C842 C841 1.379 . S
H843 C837 0.959 . S
H844 C837 0.961 . S
H845 C837 0.960 . S
H846 C838 0.930 . S
H847 C839 0.929 . S
H848 C856 0.929 . S
H849 C858 0.930 . S
H850 C860 0.930 . S
H851 C863 0.929 . S
H852 C866 0.930 . S
H853 C868 0.960 . S
H854 C868 0.960 . S
H855 C868 0.960 . S
C856 H848 0.929 . S
C856 C857 1.377 . S
C856 C858 1.384 . S
C857 C856 1.377 . S
C857 C863 1.390 . S
C858 H849 0.930 . S
C858 C856 1.384 . S
C858 C859 1.372 . S
C859 C858 1.372 . S
C859 C860 1.400 . S
C859 C864 1.490 . S
C860 H850 0.930 . S
C860 C859 1.400 . S
C860 C863 1.386 . S
H861 C877 0.930 . S
H862 C878 0.931 . S
C863 H851 0.929 . S
C863 C857 1.390 . S
C863 C860 1.386 . S
C864 C859 1.490 . S
C864 C866 1.395 . S
C864 C867 1.403 . S
H865 C871 0.930 . S
C866 H852 0.930 . S
C866 C864 1.395 . S
C866 C869 1.403 . S
C867 C864 1.403 . S
C867 C868 1.524 . S
C867 C871 1.400 . S
C868 H853 0.960 . S
C868 H854 0.960 . S
C868 H855 0.960 . S
C868 C867 1.524 . S
C869 C866 1.403 . S
C869 C870 1.392 . S
C869 C873 1.495 . S
C870 C869 1.392 . S
C870 C871 1.385 . S
C870 C872 1.478 . S
C871 H865 0.930 . S
C871 C867 1.400 . S
C871 C870 1.385 . S
C872 C870 1.478 . S
C872 C874 1.381 . S
C872 C878 1.383 . S
C873 C869 1.495 . S
C873 H879 0.959 . S
C873 H880 0.961 . S
C873 H881 0.960 . S
C874 C872 1.381 . S
C874 C875 1.394 . S
C874 H882 0.930 . S
C875 C874 1.394 . S
C875 C876 1.383 . S
C875 H883 0.929 . S
C876 C875 1.383 . S
C876 C877 1.377 . S
C877 H861 0.930 . S
C877 C876 1.377 . S
C877 C878 1.379 . S
C878 H862 0.931 . S
C878 C872 1.383 . S
C878 C877 1.379 . S
H879 C873 0.959 . S
H880 C873 0.961 . S
H881 C873 0.960 . S
H882 C874 0.930 . S
H883 C875 0.929 . S
H884 C892 0.929 . S
H885 C894 0.930 . S
H886 C896 0.930 . S
H887 C899 0.929 . S
H888 C902 0.930 . S
H889 C904 0.960 . S
H890 C904 0.960 . S
H891 C904 0.960 . S
C892 H884 0.929 . S
C892 C893 1.377 . S
C892 C894 1.384 . S
C893 C892 1.377 . S
C893 C899 1.390 . S
C894 H885 0.930 . S
C894 C892 1.384 . S
C894 C895 1.372 . S
C895 C894 1.372 . S
C895 C896 1.400 . S
C895 C900 1.490 . S
C896 H886 0.930 . S
C896 C895 1.400 . S
C896 C899 1.386 . S
H897 C913 0.930 . S
H898 C914 0.931 . S
C899 H887 0.929 . S
C899 C893 1.390 . S
C899 C896 1.386 . S
C900 C895 1.490 . S
C900 C902 1.395 . S
C900 C903 1.403 . S
H901 C907 0.930 . S
C902 H888 0.930 . S
C902 C900 1.395 . S
C902 C905 1.403 . S
C903 C900 1.403 . S
C903 C904 1.524 . S
C903 C907 1.400 . S
C904 H889 0.960 . S
C904 H890 0.960 . S
C904 H891 0.960 . S
C904 C903 1.524 . S
C905 C902 1.403 . S
C905 C906 1.392 . S
C905 C909 1.495 . S
C906 C905 1.392 . S
C906 C907 1.385 . S
C906 C908 1.478 . S
C907 H901 0.930 . S
C907 C903 1.400 . S
C907 C906 1.385 . S
C908 C906 1.478 . S
C908 C910 1.381 . S
C908 C914 1.383 . S
C909 C905 1.495 . S
C909 H915 0.959 . S
C909 H916 0.961 . S
C909 H917 0.960 . S
C910 C908 1.381 . S
C910 C911 1.394 . S
C910 H918 0.930 . S
C911 C910 1.394 . S
C911 C912 1.383 . S
C911 H919 0.929 . S
C912 C911 1.383 . S
C912 C913 1.377 . S
C913 H897 0.930 . S
C913 C912 1.377 . S
C913 C914 1.379 . S
C914 H898 0.931 . S
C914 C908 1.383 . S
C914 C913 1.379 . S
H915 C909 0.959 . S
H916 C909 0.961 . S
H917 C909 0.960 . S
H918 C910 0.930 . S
H919 C911 0.929 . S
H920 C928 0.929 . S
H921 C930 0.930 . S
H922 C932 0.930 1_554 S
H923 C935 0.929 . S
H924 C938 0.930 . S
H925 C940 0.960 . S
H926 C940 0.960 . S
H927 C940 0.960 . S
C928 H920 0.929 . S
C928 C929 1.377 1_556 S
C928 C930 1.384 . S
C929 C928 1.377 1_554 S
C929 C935 1.390 . S
C930 H921 0.930 . S
C930 C928 1.384 . S
C930 C931 1.372 . S
C931 C930 1.372 . S
C931 C932 1.400 . S
C931 C936 1.490 . S
C932 H922 0.930 1_556 S
C932 C931 1.400 . S
C932 C935 1.386 1_556 S
H933 C949 0.930 . S
H934 C950 0.931 . S
C935 H923 0.929 . S
C935 C929 1.390 . S
C935 C932 1.386 1_554 S
C936 C931 1.490 . S
C936 C938 1.395 . S
C936 C939 1.403 . S
H937 C943 0.930 . S
C938 H924 0.930 . S
C938 C936 1.395 . S
C938 C941 1.403 . S
C939 C936 1.403 . S
C939 C940 1.524 1_556 S
C939 C943 1.400 . S
C940 H925 0.960 . S
C940 H926 0.960 . S
C940 H927 0.960 . S
C940 C939 1.524 1_554 S
C941 C938 1.403 . S
C941 C942 1.392 . S
C941 C945 1.495 . S
C942 C941 1.392 . S
C942 C943 1.385 . S
C942 C944 1.478 . S
C943 H937 0.930 . S
C943 C939 1.400 . S
C943 C942 1.385 . S
C944 C942 1.478 . S
C944 C946 1.381 . S
C944 C950 1.383 . S
C945 C941 1.495 . S
C945 H951 0.959 . S
C945 H952 0.961 . S
C945 H953 0.960 . S
C946 C944 1.381 . S
C946 C947 1.394 . S
C946 H954 0.930 . S
C947 C946 1.394 . S
C947 C948 1.383 . S
C947 H955 0.929 . S
C948 C947 1.383 . S
C948 C949 1.377 . S
C949 H933 0.930 . S
C949 C948 1.377 . S
C949 C950 1.379 . S
C950 H934 0.931 . S
C950 C944 1.383 . S
C950 C949 1.379 . S
H951 C945 0.959 . S
H952 C945 0.961 . S
H953 C945 0.960 . S
H954 C946 0.930 . S
H955 C947 0.929 . S
H956 C964 0.929 . S
H957 C966 0.930 . S
H958 C968 0.930 . S
H959 C971 0.929 1_556 S
H960 C974 0.930 . S
H961 C976 0.960 . S
H962 C976 0.960 . S
H963 C976 0.960 . S
C964 H956 0.929 . S
C964 C965 1.377 . S
C964 C966 1.384 . S
C965 C964 1.377 . S
C965 C971 1.390 . S
C966 H957 0.930 . S
C966 C964 1.384 . S
C966 C967 1.372 . S
C967 C966 1.372 . S
C967 C968 1.400 . S
C967 C972 1.490 . S
C968 H958 0.930 . S
C968 C967 1.400 . S
C968 C971 1.386 . S
H969 C985 0.930 . S
H970 C986 0.931 . S
C971 H959 0.929 1_554 S
C971 C965 1.390 . S
C971 C968 1.386 . S
C972 C967 1.490 . S
C972 C974 1.395 . S
C972 C975 1.403 . S
H973 C979 0.930 . S
C974 H960 0.930 . S
C974 C972 1.395 . S
C974 C977 1.403 . S
C975 C972 1.403 . S
C975 C976 1.524 . S
C975 C979 1.400 . S
C976 H961 0.960 . S
C976 H962 0.960 . S
C976 H963 0.960 . S
C976 C975 1.524 . S
C977 C974 1.403 . S
C977 C978 1.392 . S
C977 C981 1.495 . S
C978 C977 1.392 . S
C978 C979 1.385 . S
C978 C980 1.478 . S
C979 H973 0.930 . S
C979 C975 1.400 . S
C979 C978 1.385 . S
C980 C978 1.478 . S
C980 C982 1.381 . S
C980 C986 1.383 . S
C981 C977 1.495 . S
C981 H987 0.959 . S
C981 H988 0.961 . S
C981 H989 0.960 . S
C982 C980 1.381 . S
C982 C983 1.394 . S
C982 H990 0.930 . S
C983 C982 1.394 . S
C983 C984 1.383 . S
C983 H991 0.929 . S
C984 C983 1.383 . S
C984 C985 1.377 . S
C985 H969 0.930 . S
C985 C984 1.377 . S
C985 C986 1.379 . S
C986 H970 0.931 . S
C986 C980 1.383 . S
C986 C985 1.379 . S
H987 C981 0.959 . S
H988 C981 0.961 . S
H989 C981 0.960 . S
H990 C982 0.930 . S
H991 C983 0.929 . S
C281 C258 1.387 . S
C300 C20 1.393 . S
C317 C156 1.506 . S
C336 C54 1.497 . S
C353 C190 1.663 . S
C372 C88 1.663 . S
C389 C224 1.537 . S
C408 C122 1.537 . S
C425 C5 1.155 . S
C444 C9 1.142 . S
C461 C43 1.096 1_556 S
C480 C39 1.114 . S
C497 C77 1.117 . S
C516 C73 1.155 . S
C533 C111 1.161 . S
C552 C107 1.183 . S
C569 C145 1.145 1_556 S
C588 C141 1.175 . S
C605 C179 1.166 . S
C624 C175 1.173 . S
C641 C213 1.101 . S
C660 C209 1.118 . S
C677 C243 1.126 . S
C696 C247 1.065 . S
C713 C237 1.355 . S
C732 C2 1.358 1_556 S
C749 C36 1.289 . S
C768 C240 1.283 . S
C785 C169 1.670 . S
C804 C101 1.644 . S
C821 C135 1.694 . S
C840 C203 1.697 . S
C857 C172 1.716 . S
C876 C67 1.710 . S
C893 C70 1.666 . S
C912 C206 1.665 . S
C929 C271 1.539 . S
C948 C104 1.544 . S
C965 C33 1.601 . S
C984 C138 1.593 . S
