# Generated by pormake.
# Topology unm, (4)-cn, num edge types: 1
# Building blocks:
#     Node 0, Type 0, BuildingBlock: CEKHIL_clean_sbu_0, # of connection points: 4
#     Node 1, Type 0, BuildingBlock: CEKHIL_clean_sbu_0, # of connection points: 4
#     Node 2, Type 0, BuildingBlock: CEKHIL_clean_sbu_0, # of connection points: 4
#     Node 3, Type 0, BuildingBlock: CEKHIL_clean_sbu_0, # of connection points: 4
#     Node 4, Type 0, BuildingBlock: CEKHIL_clean_sbu_0, # of connection points: 4
#     Node 5, Type 0, BuildingBlock: CEKHIL_clean_sbu_0, # of connection points: 4
#     Node 6, Type 0, BuildingBlock: CEKHIL_clean_sbu_0, # of connection points: 4
#     Node 7, Type 0, BuildingBlock: CEKHIL_clean_sbu_0, # of connection points: 4
#     Edge 8, Type (0, 0), BuildingBlock: UVAHIK_clean_linker_0, # of connection points: 2
#     Edge 9, Type (0, 0), BuildingBlock: UVAHIK_clean_linker_0, # of connection points: 2
#     Edge 10, Type (0, 0), BuildingBlock: UVAHIK_clean_linker_0, # of connection points: 2
#     Edge 11, Type (0, 0), BuildingBlock: UVAHIK_clean_linker_0, # of connection points: 2
#     Edge 12, Type (0, 0), BuildingBlock: UVAHIK_clean_linker_0, # of connection points: 2
#     Edge 13, Type (0, 0), BuildingBlock: UVAHIK_clean_linker_0, # of connection points: 2
#     Edge 14, Type (0, 0), BuildingBlock: UVAHIK_clean_linker_0, # of connection points: 2
#     Edge 15, Type (0, 0), BuildingBlock: UVAHIK_clean_linker_0, # of connection points: 2
#     Edge 16, Type (0, 0), BuildingBlock: UVAHIK_clean_linker_0, # of connection points: 2
#     Edge 17, Type (0, 0), BuildingBlock: UVAHIK_clean_linker_0, # of connection points: 2
#     Edge 18, Type (0, 0), BuildingBlock: UVAHIK_clean_linker_0, # of connection points: 2
#     Edge 19, Type (0, 0), BuildingBlock: UVAHIK_clean_linker_0, # of connection points: 2
#     Edge 20, Type (0, 0), BuildingBlock: UVAHIK_clean_linker_0, # of connection points: 2
#     Edge 21, Type (0, 0), BuildingBlock: UVAHIK_clean_linker_0, # of connection points: 2
#     Edge 22, Type (0, 0), BuildingBlock: UVAHIK_clean_linker_0, # of connection points: 2
#     Edge 23, Type (0, 0), BuildingBlock: UVAHIK_clean_linker_0, # of connection points: 2
# Relax obj value: 0.187
# Max RMSD: 0.153
# Mean RMSD: 0.153
data_MOF--net-unm--node1-CEKHIL_clean_sbu_0--edge1-UVAHIK_clean_linker_0
_symmetry_space_group_name_H-M    P1
_symmetry_Int_Tables_number       1
_symmetry_cell_setting            triclinic
loop_
_symmetry_equiv_pos_as_xyz
'x, y, z'
_cell_length_a     32.43043
_cell_length_b     32.407425
_cell_length_c     56.765754
_cell_angle_alpha  90.002537
_cell_angle_beta   90.00153
_cell_angle_gamma 89.99327
loop_
_atom_site_label
_atom_site_type_symbol
_atom_site_fract_x
_atom_site_fract_y
_atom_site_fract_z
_atom_type_partial_charge
Co0 Co 0.18723 0.25907 0.17246 0.0
O1 O 0.23636 0.22871 0.1806 0.0
O2 O 0.23407 0.29574 0.17299 0.0
C3 C 0.14542 0.23423 0.20092 0.0
O4 O 0.14293 0.30125 0.16467 0.0
Co5 Co 0.10834 0.21344 0.15532 0.0
O6 O 0.08293 0.26914 0.15678 0.0
C7 C 0.17891 0.22213 0.12327 0.0
C8 C 0.2557 0.26374 0.17917 0.0
C9 C 0.10413 0.30182 0.15992 0.0
O10 O 0.19617 0.24726 0.13781 0.0
O11 O 0.14607 0.20193 0.12809 0.0
O12 O 0.1719 0.26315 0.20559 0.0
O13 O 0.14887 0.21774 0.18026 0.0
Co14 Co 0.23287 0.68844 0.6728 0.0
O15 O 0.26336 0.73728 0.68106 0.0
O16 O 0.19648 0.73572 0.67309 0.0
C17 C 0.25719 0.64717 0.70163 0.0
O18 O 0.19074 0.64407 0.66476 0.0
Co19 Co 0.27816 0.60857 0.65689 0.0
O20 O 0.22311 0.58298 0.66137 0.0
C21 C 0.26968 0.67823 0.62369 0.0
C22 C 0.22862 0.75699 0.67944 0.0
C23 C 0.19027 0.6045 0.66261 0.0
O24 O 0.24584 0.69713 0.63828 0.0
O25 O 0.28828 0.64447 0.62868 0.0
O26 O 0.22773 0.67326 0.7059 0.0
O27 O 0.27412 0.65036 0.68109 0.0
Co28 Co 0.81103 0.73592 0.17285 0.0
O29 O 0.76283 0.76671 0.18195 0.0
O30 O 0.76346 0.70008 0.17311 0.0
C31 C 0.85395 0.75801 0.20142 0.0
O32 O 0.85445 0.69354 0.16393 0.0
Co33 Co 0.89013 0.78143 0.15606 0.0
O34 O 0.91493 0.72538 0.15691 0.0
C35 C 0.81897 0.77522 0.12421 0.0
C36 C 0.74273 0.7322 0.18006 0.0
C37 C 0.89331 0.69279 0.15938 0.0
O38 O 0.80145 0.74994 0.13855 0.0
O39 O 0.85236 0.79449 0.12905 0.0
O40 O 0.8271 0.72924 0.20565 0.0
O41 O 0.85018 0.77621 0.18125 0.0
Co42 Co 0.75642 0.31028 0.67154 0.0
O43 O 0.72567 0.26253 0.68132 0.0
O44 O 0.79151 0.26195 0.67103 0.0
C45 C 0.73579 0.35283 0.70071 0.0
O46 O 0.79882 0.35349 0.66199 0.0
Co47 Co 0.7113 0.39062 0.65628 0.0
O48 O 0.76711 0.41507 0.65951 0.0
C49 C 0.71675 0.32079 0.62302 0.0
C50 C 0.75965 0.24179 0.67889 0.0
C51 C 0.7997 0.39308 0.65994 0.0
O52 O 0.74033 0.30115 0.63745 0.0
O53 O 0.69951 0.35521 0.62811 0.0
O54 O 0.76497 0.32613 0.70431 0.0
O55 O 0.71688 0.34952 0.68075 0.0
Co56 Co 0.6872 0.23872 0.32568 0.0
O57 O 0.7352 0.27018 0.31699 0.0
O58 O 0.73566 0.20394 0.3265 0.0
C59 C 0.6457 0.26 0.29616 0.0
O60 O 0.64412 0.19555 0.33409 0.0
Co61 Co 0.60565 0.28258 0.34018 0.0
O62 O 0.58227 0.22607 0.33885 0.0
C63 C 0.67394 0.27673 0.37443 0.0
C64 C 0.75601 0.23619 0.31937 0.0
C65 C 0.60489 0.19398 0.33745 0.0
O66 O 0.69453 0.25366 0.36013 0.0
O67 O 0.63984 0.29406 0.36881 0.0
O68 O 0.67282 0.23121 0.29257 0.0
O69 O 0.64801 0.27823 0.31636 0.0
Co70 Co 0.26354 0.18982 0.82529 0.0
O71 O 0.23394 0.23921 0.8168 0.0
O72 O 0.3006 0.23639 0.82528 0.0
C73 C 0.2397 0.14826 0.7965 0.0
O74 O 0.30501 0.14515 0.83352 0.0
Co75 Co 0.21688 0.11102 0.84157 0.0
O76 O 0.27231 0.08497 0.84008 0.0
C77 C 0.22473 0.18136 0.87396 0.0
C78 C 0.26904 0.25827 0.81869 0.0
C79 C 0.3052 0.1061 0.83763 0.0
O80 O 0.25033 0.19874 0.85976 0.0
O81 O 0.20473 0.14851 0.86885 0.0
O82 O 0.26908 0.17446 0.79229 0.0
O83 O 0.22215 0.1519 0.81685 0.0
Co84 Co 0.3117 0.75847 0.32713 0.0
O85 O 0.26283 0.7275 0.31945 0.0
O86 O 0.26418 0.79442 0.32744 0.0
C87 C 0.35237 0.73508 0.29779 0.0
O88 O 0.35581 0.80122 0.33452 0.0
Co89 Co 0.39262 0.7139 0.34205 0.0
O90 O 0.4171 0.76981 0.33971 0.0
C91 C 0.32504 0.72321 0.37653 0.0
C92 C 0.24298 0.76218 0.32118 0.0
C93 C 0.39509 0.80223 0.33779 0.0
O94 O 0.30462 0.74564 0.36185 0.0
O95 O 0.35883 0.70507 0.37115 0.0
O96 O 0.32541 0.76387 0.29388 0.0
O97 O 0.3501 0.71776 0.31827 0.0
Co98 Co 0.7387 0.81125 0.8257 0.0
O99 O 0.76886 0.76197 0.81755 0.0
O100 O 0.70161 0.76481 0.82426 0.0
C101 C 0.76531 0.85356 0.79799 0.0
O102 O 0.69659 0.85575 0.83325 0.0
Co103 Co 0.78396 0.88961 0.84399 0.0
O104 O 0.72856 0.91551 0.84191 0.0
C105 C 0.77416 0.81801 0.87523 0.0
C106 C 0.73359 0.74298 0.81833 0.0
C107 C 0.69596 0.89449 0.8382 0.0
O108 O 0.74907 0.80136 0.86044 0.0
O109 O 0.79475 0.85078 0.87079 0.0
O110 O 0.73629 0.82759 0.79263 0.0
O111 O 0.78068 0.84936 0.81886 0.0
C112 C 0.20801 0.25464 0.08692 0.0
C113 C 0.1948 0.21916 0.09895 0.0
C114 C 0.21535 0.2533 0.06261 0.0
C115 C 0.18677 0.18915 0.0107 0.0
H116 H 0.26147 0.26207 0.97749 0.0
C117 C 0.18316 0.1942 0.91017 0.0
C118 C 0.22094 0.19711 0.89828 0.0
C119 C 0.18078 0.20238 0.93428 0.0
C120 C 0.24069 0.24118 0.98645 0.0
H121 H 0.18225 0.15385 0.09558 0.0
H122 H 0.19762 0.15069 0.05368 0.0
H123 H 0.26055 0.26208 0.0204 0.0
H124 H 0.2856 0.2124 0.90197 0.0
H125 H 0.28208 0.22479 0.9443 0.0
H126 H 0.16844 0.16648 0.97712 0.0
C127 C 0.20028 0.18016 0.06253 0.0
C128 C 0.23979 0.24155 0.01115 0.0
C129 C 0.19195 0.18175 0.08665 0.0
C130 C 0.25599 0.21025 0.91071 0.0
C131 C 0.25387 0.21742 0.93502 0.0
C132 C 0.18816 0.18827 0.98616 0.0
C133 C 0.21039 0.21623 0.04994 0.0
C134 C 0.21277 0.21549 0.02364 0.0
C135 C 0.21643 0.21237 0.94729 0.0
C136 C 0.21489 0.21443 0.97359 0.0
H137 H 0.21011 0.28398 0.09599 0.0
H138 H 0.22281 0.28181 0.05364 0.0
H139 H 0.16476 0.16928 0.01945 0.0
H140 H 0.15557 0.18456 0.90092 0.0
H141 H 0.15106 0.19966 0.94282 0.0
C142 C 0.2443 0.72035 0.58931 0.0
C143 C 0.27431 0.69441 0.59941 0.0
C144 C 0.2467 0.73137 0.56545 0.0
C145 C 0.31932 0.73516 0.51505 0.0
H146 H 0.22291 0.71695 0.47593 0.0
C147 C 0.33486 0.69803 0.41778 0.0
C148 C 0.31152 0.72103 0.40153 0.0
C149 C 0.32648 0.7001 0.44182 0.0
C150 C 0.24987 0.72277 0.48669 0.0
H151 H 0.33122 0.66129 0.59261 0.0
H152 H 0.33549 0.68057 0.55141 0.0
H153 H 0.21662 0.71374 0.51897 0.0
H154 H 0.25929 0.7625 0.39794 0.0
H155 H 0.24422 0.76544 0.4403 0.0
H156 H 0.35292 0.74255 0.48292 0.0
C157 C 0.31011 0.6925 0.56178 0.0
C158 C 0.2463 0.72107 0.5113 0.0
C159 C 0.30751 0.68119 0.58542 0.0
C160 C 0.27799 0.74446 0.40994 0.0
C161 C 0.26935 0.74623 0.43416 0.0
C162 C 0.3229 0.73665 0.49059 0.0
C163 C 0.27948 0.71719 0.55139 0.0
C164 C 0.28133 0.72592 0.52569 0.0
C165 C 0.29435 0.72496 0.45034 0.0
C166 C 0.28854 0.72916 0.47615 0.0
H167 H 0.21823 0.73091 0.5996 0.0
H168 H 0.22276 0.75063 0.55795 0.0
H169 H 0.34668 0.73996 0.52566 0.0
H170 H 0.36064 0.67928 0.41209 0.0
H171 H 0.34568 0.68265 0.45385 0.0
C172 C 0.78752 0.74456 0.08797 0.0
C173 C 0.80269 0.77925 0.10001 0.0
C174 C 0.77962 0.74649 0.06373 0.0
C175 C 0.81024 0.80953 0.01183 0.0
H176 H 0.73217 0.73985 0.97885 0.0
C177 C 0.81449 0.80247 0.91147 0.0
C178 C 0.77674 0.80161 0.89944 0.0
C179 C 0.81611 0.79447 0.93561 0.0
C180 C 0.75391 0.75982 0.98775 0.0
H181 H 0.81808 0.84397 0.09674 0.0
H182 H 0.80183 0.84826 0.05498 0.0
H183 H 0.73326 0.74011 0.02179 0.0
H184 H 0.71129 0.79005 0.90288 0.0
H185 H 0.71362 0.77786 0.94531 0.0
H186 H 0.82952 0.831 0.97816 0.0
C187 C 0.79802 0.81886 0.06376 0.0
C188 C 0.75488 0.75961 0.01246 0.0
C189 C 0.80689 0.81663 0.0878 0.0
C190 C 0.74086 0.79054 0.91175 0.0
C191 C 0.74229 0.78353 0.9361 0.0
C192 C 0.80882 0.81024 0.98729 0.0
C193 C 0.78597 0.78342 0.05114 0.0
C194 C 0.78319 0.78443 0.02485 0.0
C195 C 0.77981 0.78672 0.9485 0.0
C196 C 0.78097 0.78514 0.97481 0.0
H197 H 0.7843 0.71524 0.09695 0.0
H198 H 0.77066 0.71844 0.05474 0.0
H199 H 0.83318 0.82843 0.0205 0.0
H200 H 0.84266 0.81056 0.9023 0.0
H201 H 0.84584 0.79568 0.94426 0.0
C202 C 0.71714 0.2537 0.40907 0.0
C203 C 0.68725 0.28033 0.3994 0.0
C204 C 0.72398 0.25274 0.4335 0.0
C205 C 0.66731 0.27189 0.48799 0.0
H206 H 0.77298 0.27988 0.51956 0.0
C207 C 0.68073 0.32184 0.58409 0.0
C208 C 0.71159 0.30511 0.59862 0.0
C209 C 0.67867 0.31156 0.56027 0.0
C210 C 0.7433 0.27676 0.51101 0.0
H211 H 0.64353 0.32899 0.40779 0.0
H212 H 0.65542 0.32709 0.44995 0.0
H213 H 0.77026 0.27738 0.4764 0.0
H214 H 0.76369 0.26313 0.59954 0.0
H215 H 0.75986 0.24492 0.5577 0.0
H216 H 0.64009 0.27164 0.52226 0.0
C217 C 0.67297 0.30645 0.43877 0.0
C218 C 0.74179 0.27551 0.48632 0.0
C219 C 0.66634 0.30762 0.41453 0.0
C220 C 0.73945 0.2765 0.58887 0.0
C221 C 0.73751 0.26635 0.56486 0.0
C222 C 0.6688 0.27283 0.51254 0.0
C223 C 0.70086 0.27818 0.4486 0.0
C224 C 0.70365 0.27438 0.47461 0.0
C225 C 0.7074 0.28425 0.55023 0.0
C226 C 0.70668 0.27662 0.52436 0.0
H227 H 0.73384 0.23229 0.39795 0.0
H228 H 0.74586 0.23081 0.44065 0.0
H229 H 0.63751 0.27005 0.47942 0.0
H230 H 0.65869 0.34389 0.59095 0.0
H231 H 0.6554 0.3264 0.54952 0.0
C232 C 0.32446 0.23221 0.18792 0.0
C233 C 0.29947 0.26748 0.18611 0.0
C234 C 0.36466 0.23522 0.19666 0.0
C235 C 0.42512 0.2944 0.23793 0.0
H236 H 0.52039 0.24445 0.20814 0.0
C237 C 0.58482 0.30076 0.28237 0.0
C238 C 0.61001 0.26575 0.28034 0.0
C239 C 0.54926 0.30467 0.2686 0.0
C240 C 0.49408 0.25813 0.2169 0.0
H241 H 0.29719 0.33368 0.19153 0.0
H242 H 0.3672 0.3387 0.20739 0.0
H243 H 0.45386 0.24358 0.18803 0.0
H244 H 0.61801 0.20742 0.26225 0.0
H245 H 0.55535 0.2132 0.23901 0.0
H246 H 0.46414 0.30707 0.26732 0.0
C247 C 0.35572 0.30887 0.20183 0.0
C248 C 0.45606 0.25784 0.20525 0.0
C249 C 0.31579 0.30599 0.19265 0.0
C250 C 0.59938 0.23499 0.26402 0.0
C251 C 0.56345 0.23849 0.25057 0.0
C252 C 0.46289 0.29403 0.24978 0.0
C253 C 0.38032 0.27344 0.20416 0.0
C254 C 0.42121 0.27579 0.21572 0.0
C255 C 0.53762 0.27321 0.2528 0.0
C256 C 0.49791 0.27564 0.23952 0.0
H257 H 0.31269 0.20214 0.18298 0.0
H258 H 0.38295 0.20742 0.19842 0.0
H259 H 0.39854 0.30798 0.24652 0.0
H260 H 0.59244 0.32505 0.29474 0.0
H261 H 0.5308 0.3323 0.2705 0.0
C262 C 0.18862 0.81689 0.69539 0.0
C263 C 0.22565 0.80075 0.68649 0.0
C264 C 0.18754 0.85655 0.70519 0.0
C265 C 0.25893 0.93505 0.73049 0.0
H266 H 0.16163 0.00462 0.73017 0.0
C267 C 0.26196 0.10252 0.76349 0.0
C268 C 0.23317 0.11192 0.78119 0.0
C269 C 0.25856 0.06609 0.75052 0.0
C270 C 0.18892 0.98535 0.73041 0.0
H271 H 0.28985 0.81417 0.67936 0.0
H272 H 0.28761 0.88391 0.69512 0.0
H273 H 0.16078 0.93889 0.70895 0.0
H274 H 0.17733 0.09136 0.79858 0.0
H275 H 0.17084 0.0278 0.77536 0.0
H276 H 0.28728 0.98209 0.75143 0.0
C277 C 0.25972 0.86558 0.69565 0.0
C278 C 0.18847 0.9476 0.71836 0.0
C279 C 0.26097 0.82571 0.68635 0.0
C280 C 0.19995 0.08489 0.78503 0.0
C281 C 0.19616 0.04866 0.77174 0.0
C282 C 0.25957 0.97297 0.74212 0.0
C283 C 0.22334 0.88116 0.7059 0.0
C284 C 0.22354 0.92189 0.71823 0.0
C285 C 0.22595 0.03858 0.75471 0.0
C286 C 0.22462 0.99846 0.74222 0.0
H287 H 0.16098 0.79814 0.69587 0.0
H288 H 0.15903 0.86711 0.71306 0.0
H289 H 0.28616 0.9158 0.73149 0.0
H290 H 0.28796 0.12265 0.76013 0.0
H291 H 0.28176 0.05912 0.73738 0.0
C292 C 0.39718 0.75921 0.26484 0.0
C293 C 0.38841 0.72955 0.28218 0.0
C294 C 0.43354 0.75689 0.25175 0.0
C295 C 0.51465 0.6896 0.23016 0.0
H296 H 0.58409 0.78673 0.23394 0.0
C297 C 0.6828 0.69162 0.19532 0.0
C298 C 0.69915 0.72924 0.18738 0.0
C299 C 0.64323 0.69002 0.20514 0.0
C300 C 0.56487 0.75961 0.23218 0.0
H301 H 0.40992 0.67329 0.29877 0.0
H302 H 0.47329 0.66865 0.27527 0.0
H303 H 0.51772 0.7862 0.25378 0.0
H304 H 0.68626 0.79413 0.18208 0.0
H305 H 0.6166 0.7911 0.19787 0.0
H306 H 0.56109 0.66326 0.208 0.0
C307 C 0.45203 0.69382 0.27206 0.0
C308 C 0.52692 0.75928 0.24376 0.0
C309 C 0.41592 0.69654 0.2855 0.0
C310 C 0.67454 0.76478 0.18831 0.0
C311 C 0.63472 0.76305 0.19762 0.0
C312 C 0.55237 0.69016 0.21815 0.0
C313 C 0.46151 0.72449 0.25543 0.0
C314 C 0.50152 0.7243 0.2429 0.0
C315 C 0.61888 0.72591 0.20681 0.0
C316 C 0.57808 0.72521 0.21902 0.0
H317 H 0.37669 0.7851 0.26191 0.0
H318 H 0.44011 0.78078 0.23893 0.0
H319 H 0.4954 0.66233 0.22918 0.0
H320 H 0.70127 0.66378 0.19498 0.0
H321 H 0.63251 0.66093 0.21221 0.0
C322 C 0.73008 0.1812 0.70009 0.0
C323 C 0.7626 0.1985 0.68704 0.0
C324 C 0.73418 0.14229 0.71035 0.0
C325 C 0.78839 0.04397 0.70814 0.0
H326 H 0.76221 0.03873 0.77479 0.0
C327 C 0.75682 0.89304 0.76039 0.0
C328 C 0.77389 0.89003 0.78309 0.0
C329 C 0.76092 0.92937 0.74729 0.0
C330 C 0.76998 0.03976 0.75624 0.0
H331 H 0.82427 0.18772 0.67362 0.0
H332 H 0.83103 0.11887 0.69125 0.0
H333 H 0.75738 0.10448 0.75399 0.0
H334 H 0.81024 0.92211 0.80942 0.0
H335 H 0.81669 0.9858 0.78671 0.0
H336 H 0.79996 0.97882 0.71036 0.0
C337 C 0.80256 0.13585 0.69363 0.0
C338 C 0.76687 0.07729 0.7443 0.0
C339 C 0.79869 0.1752 0.6836 0.0
C340 C 0.79652 0.9235 0.79205 0.0
C341 C 0.80013 0.96002 0.77909 0.0
C342 C 0.79087 0.00616 0.72004 0.0
C343 C 0.77067 0.11952 0.70756 0.0
C344 C 0.77574 0.07973 0.72012 0.0
C345 C 0.78175 0.96356 0.75676 0.0
C346 C 0.78154 0.00371 0.74419 0.0
H347 H 0.70184 0.19827 0.70308 0.0
H348 H 0.70894 0.13018 0.72077 0.0
H349 H 0.79532 0.04507 0.68949 0.0
H350 H 0.7393 0.86771 0.75298 0.0
H351 H 0.74623 0.93133 0.73019 0.0
C352 C 0.8219 0.19654 0.31372 0.0
C353 C 0.79987 0.2338 0.31221 0.0
C354 C 0.86204 0.19364 0.30474 0.0
C355 C 0.95042 0.2577 0.28393 0.0
H356 H 0.97933 0.15943 0.24866 0.0
C357 C 0.10895 0.24343 0.23932 0.0
C358 C 0.10969 0.2266 0.21653 0.0
C359 C 0.07367 0.2402 0.25333 0.0
C360 C 0.97171 0.18719 0.25834 0.0
H361 H 0.80303 0.29745 0.30054 0.0
H362 H 0.87228 0.29229 0.2846 0.0
H363 H 0.91312 0.16297 0.26884 0.0
H364 H 0.07448 0.19187 0.19085 0.0
H365 H 0.01246 0.18729 0.21493 0.0
H366 H 0.00784 0.28286 0.27248 0.0
C367 C 0.85912 0.2654 0.29306 0.0
C368 C 0.93391 0.189 0.27022 0.0
C369 C 0.81919 0.26832 0.30211 0.0
C370 C 0.07489 0.20516 0.20834 0.0
C371 C 0.03936 0.20234 0.22226 0.0
C372 C 0.98799 0.25602 0.27193 0.0
C373 C 0.88096 0.22792 0.29399 0.0
C374 C 0.92253 0.22452 0.28292 0.0
C375 C 0.03802 0.22049 0.24479 0.0
C376 C -0.00098 0.22093 0.25876 0.0
H377 H 0.80787 0.16939 0.32143 0.0
H378 H 0.87813 0.16446 0.30608 0.0
H379 H 0.94305 0.28532 0.2938 0.0
H380 H 0.13545 0.25981 0.24622 0.0
H381 H 0.07422 0.25371 0.27078 0.0
C382 C 0.29998 0.58664 0.71404 0.0
C383 C 0.26506 0.61159 0.71725 0.0
C384 C 0.30573 0.55127 0.7278 0.0
C385 C 0.26539 0.49674 0.7814 0.0
H386 H 0.31116 0.40042 0.75044 0.0
C387 C 0.23843 0.32759 0.81048 0.0
C388 C 0.27331 0.30199 0.81178 0.0
C389 C 0.24175 0.36777 0.80174 0.0
C390 C 0.29878 0.42723 0.75938 0.0
H391 H 0.20885 0.61931 0.73742 0.0
H392 H 0.21778 0.55708 0.76065 0.0
H393 H 0.3088 0.46597 0.72951 0.0
H394 H 0.33913 0.29851 0.80537 0.0
H395 H 0.34464 0.36854 0.78941 0.0
H396 H 0.25328 0.45683 0.81076 0.0
C397 C 0.24164 0.56521 0.74815 0.0
C398 C 0.29758 0.46495 0.74746 0.0
C399 C 0.23631 0.60089 0.73469 0.0
C400 C 0.31177 0.31765 0.80468 0.0
C401 C 0.31492 0.35755 0.79546 0.0
C402 C 0.26589 0.4588 0.79312 0.0
C403 C 0.27627 0.53965 0.74479 0.0
C404 C 0.28042 0.50019 0.75819 0.0
C405 C 0.27985 0.38278 0.79369 0.0
C406 C 0.28225 0.42366 0.78213 0.0
H407 H 0.32274 0.5943 0.70077 0.0
H408 H 0.3332 0.53295 0.72496 0.0
H409 H 0.25284 0.52326 0.79051 0.0
H410 H 0.20842 0.31631 0.81585 0.0
H411 H 0.21422 0.38657 0.80041 0.0
C412 C 0.17457 0.72983 0.31312 0.0
C413 C 0.19935 0.76527 0.31393 0.0
C414 C 0.13503 0.73148 0.3034 0.0
C415 C 0.05366 0.80397 0.28113 0.0
H416 H 0.02043 0.7071 0.2458 0.0
C417 C 0.91808 0.79635 0.21314 0.0
C418 C 0.89067 0.76329 0.21656 0.0
C419 C 0.9543 0.7992 0.22651 0.0
C420 C 0.02924 0.73428 0.25571 0.0
H421 H 0.2019 0.83053 0.30581 0.0
H422 H 0.13363 0.83321 0.28795 0.0
H423 H 0.08596 0.70703 0.26654 0.0
H424 H 0.8794 0.70766 0.23684 0.0
H425 H 0.94291 0.71222 0.25968 0.0
H426 H 0.99712 0.83153 0.26917 0.0
C427 C 0.14402 0.80427 0.29538 0.0
C428 C 0.06669 0.73421 0.26781 0.0
C429 C 0.1833 0.80276 0.30557 0.0
C430 C 0.8998 0.73358 0.23382 0.0
C431 C 0.93623 0.73604 0.24684 0.0
C432 C 0.01642 0.80426 0.26861 0.0
C433 C 0.11963 0.76842 0.29371 0.0
C434 C 0.07936 0.76888 0.28091 0.0
C435 C 0.96399 0.76861 0.24317 0.0
C436 C 0.00378 0.76926 0.25597 0.0
H437 H 0.18604 0.70058 0.31964 0.0
H438 H 0.11684 0.70347 0.30317 0.0
H439 H 0.06196 0.8311 0.29119 0.0
H440 H 0.91181 0.81964 0.19993 0.0
H441 H 0.97538 0.82451 0.22331 0.0
C442 C 0.69536 0.41435 0.71406 0.0
C443 C 0.73019 0.38896 0.71626 0.0
C444 C 0.69157 0.4501 0.72771 0.0
C445 C 0.73777 0.50497 0.7796 0.0
H446 H 0.68913 0.60108 0.74989 0.0
C447 C 0.76466 0.67407 0.8093 0.0
C448 C 0.72962 0.69939 0.811 0.0
C449 C 0.76145 0.63402 0.80031 0.0
C450 C 0.70238 0.57435 0.7585 0.0
H451 H 0.78836 0.38088 0.73448 0.0
H452 H 0.78275 0.44378 0.75752 0.0
H453 H 0.68973 0.53547 0.72901 0.0
H454 H 0.66363 0.70243 0.80506 0.0
H455 H 0.65828 0.6327 0.78879 0.0
H456 H 0.75225 0.54495 0.80858 0.0
C457 C 0.75752 0.43571 0.74591 0.0
C458 C 0.70257 0.53659 0.7466 0.0
C459 C 0.76092 0.39965 0.73257 0.0
C460 C 0.69115 0.68357 0.80404 0.0
C461 C 0.68809 0.64381 0.79462 0.0
C462 C 0.73822 0.54296 0.79129 0.0
C463 C 0.72293 0.46167 0.74358 0.0
C464 C 0.72056 0.50137 0.75689 0.0
C465 C 0.72328 0.61885 0.79245 0.0
C466 C 0.72074 0.57802 0.78079 0.0
H467 H 0.67111 0.40672 0.70167 0.0
H468 H 0.66408 0.46872 0.72571 0.0
H469 H 0.75111 0.47849 0.78838 0.0
H470 H 0.7947 0.68544 0.81455 0.0
H471 H 0.78909 0.61545 0.79868 0.0
C472 C 0.89741 0.61732 0.16822 0.0
C473 C 0.91401 0.65237 0.15721 0.0
C474 C 0.91785 0.57945 0.16699 0.0
C475 C 0.0207 0.5342 0.15387 0.0
H476 H 0.95846 0.43214 0.15386 0.0
C477 C 0.04663 0.34597 0.14486 0.0
C478 C 0.08313 0.34212 0.15799 0.0
C479 C 0.02654 0.38397 0.14319 0.0
C480 C 0.97645 0.46027 0.1535 0.0
H481 H 0.9643 0.67502 0.13563 0.0
H482 H -0.0009 0.60868 0.13263 0.0
H483 H 0.92216 0.49752 0.15251 0.0
H484 H 0.1271 0.37492 0.17981 0.0
H485 H 0.09124 0.44077 0.17778 0.0
H486 H 0.07502 0.49694 0.15377 0.0
C487 C 0.97107 0.61058 0.14293 0.0
C488 C 0.95552 0.49792 0.15314 0.0
C489 C 0.95099 0.64861 0.14451 0.0
C490 C 0.09917 0.37703 0.16941 0.0
C491 C 0.0787 0.41489 0.16809 0.0
C492 C 0.04164 0.49654 0.15385 0.0
C493 C 0.95502 0.57556 0.15437 0.0
C494 C 0.97734 0.53542 0.1536 0.0
C495 C 0.04207 0.41888 0.15496 0.0
C496 C 0.01981 0.45905 0.15394 0.0
H497 H 0.86913 0.61935 0.17831 0.0
H498 H 0.90488 0.55347 0.17642 0.0
H499 H 0.03866 0.56233 0.15454 0.0
H500 H 0.03377 0.31969 0.13564 0.0
H501 H -0.00104 0.38595 0.1325 0.0
C502 C 0.8772 0.39186 0.6593 0.0
C503 C 0.8401 0.41427 0.65834 0.0
C504 C 0.91516 0.41231 0.65872 0.0
C505 C 0.96184 0.51351 0.67114 0.0
H506 H 0.05344 0.47192 0.63422 0.0
C507 C 0.11296 0.60534 0.66023 0.0
C508 C 0.15004 0.58294 0.66135 0.0
C509 C 0.07511 0.58483 0.65912 0.0
C510 C 0.02828 0.48369 0.64482 0.0
H511 H 0.81401 0.47585 0.65556 0.0
H512 H 0.88004 0.51122 0.65439 0.0
H513 H 0.98755 0.43554 0.63355 0.0
H514 H 0.17623 0.52126 0.6623 0.0
H515 H 0.11029 0.48568 0.66073 0.0
H516 H 0.0025 0.56142 0.68258 0.0
C517 C 0.87977 0.4779 0.65591 0.0
C518 C 0.99056 0.46285 0.64442 0.0
C519 C 0.8419 0.45752 0.65644 0.0
C520 C 0.14834 0.53956 0.66132 0.0
C521 C 0.1105 0.51909 0.66028 0.0
C522 C -0.00046 0.53427 0.67158 0.0
C523 C 0.91681 0.45558 0.65725 0.0
C524 C 0.95693 0.47757 0.65757 0.0
C525 C 0.07345 0.54147 0.65919 0.0
C526 C 0.03321 0.51961 0.65844 0.0
H527 H 0.877 0.35854 0.6608 0.0
H528 H 0.94321 0.39429 0.65998 0.0
H529 H 0.9367 0.52525 0.68177 0.0
H530 H 0.1131 0.63876 0.6601 0.0
H531 H 0.04714 0.60298 0.65798 0.0
C532 C 0.60187 0.11847 0.32848 0.0
C533 C 0.58486 0.15325 0.33956 0.0
C534 C 0.58162 0.08044 0.32943 0.0
C535 C 0.47862 0.03474 0.34226 0.0
H536 H 0.54079 0.93267 0.34158 0.0
C537 C 0.45302 0.84663 0.35189 0.0
C538 C 0.41583 0.84268 0.33942 0.0
C539 C 0.47319 0.88462 0.35312 0.0
C540 C 0.52281 0.9608 0.34213 0.0
H541 H 0.53425 0.17527 0.36109 0.0
H542 H 0.49993 0.10871 0.36374 0.0
H543 H 0.57715 0.99798 0.34288 0.0
H544 H 0.3707 0.87523 0.3183 0.0
H545 H 0.40669 0.94113 0.31949 0.0
H546 H 0.42428 0.99757 0.34272 0.0
C547 C 0.52801 0.11089 0.3535 0.0
C548 C 0.54378 0.99844 0.34246 0.0
C549 C 0.54783 0.14905 0.35214 0.0
C550 C 0.39915 0.87748 0.32821 0.0
C551 C 0.41974 0.91533 0.32904 0.0
C552 C 0.45765 0.99711 0.34236 0.0
C553 C 0.54429 0.07616 0.34187 0.0
C554 C 0.52199 0.03596 0.34232 0.0
C555 C 0.45709 0.91942 0.34149 0.0
C556 C 0.47943 0.95959 0.34209 0.0
H557 H 0.63023 0.12091 0.31849 0.0
H558 H 0.59483 0.0547 0.3199 0.0
H559 H 0.46063 0.06287 0.34178 0.0
H560 H 0.46637 0.8204 0.36094 0.0
H561 H 0.50129 0.88664 0.36334 0.0
C562 C 0.34883 0.04722 0.85158 0.0
C563 C 0.34534 0.08475 0.83937 0.0
C564 C 0.38674 0.02688 0.85298 0.0
C565 C 0.49946 0.0429 0.84358 0.0
H566 H 0.50084 0.92335 0.84215 0.0
C567 C 0.6212 0.89968 0.82776 0.0
C568 C 0.65566 0.91559 0.83966 0.0
C569 C 0.58331 0.92012 0.82872 0.0
C570 C 0.50114 0.95675 0.84229 0.0
H571 H 0.37868 0.13018 0.8188 0.0
H572 H 0.4443 0.09403 0.82038 0.0
H573 H 0.43539 0.95956 0.84108 0.0
H574 H 0.67724 0.96474 0.86245 0.0
H575 H 0.61087 -0.00052 0.86496 0.0
H576 H 0.56522 0.04018 0.8434 0.0
C577 C 0.41822 0.08082 0.8296 0.0
C578 C 0.46344 0.97759 0.84209 0.0
C579 C 0.38049 0.1015 0.82855 0.0
C580 C 0.65132 0.95198 0.85287 0.0
C581 C 0.61326 0.97203 0.85418 0.0
C582 C 0.53716 0.02208 0.84339 0.0
C583 C 0.4219 0.04324 0.84185 0.0
C584 C 0.46207 0.02097 0.84266 0.0
C585 C 0.5788 0.95658 0.84196 0.0
C586 C 0.53855 0.97871 0.84268 0.0
H587 H 0.32233 0.03375 0.86029 0.0
H588 H 0.38845 0.99848 0.86297 0.0
H589 H 0.49976 0.07627 0.84445 0.0
H590 H 0.62369 0.87186 0.81727 0.0
H591 H 0.5578 0.90766 0.81869 0.0
loop_
_geom_bond_atom_site_label_1
_geom_bond_atom_site_label_2
_geom_bond_distance
_geom_bond_site_symmetry_2
_ccdc_geom_bond_type
Co0 O1 2.216 . S
Co0 O2 2.091 . S
Co0 O4 2.004 . S
Co0 O10 2.021 . S
Co0 O12 2.137 . S
Co0 O13 2.244 . S
O1 Co0 2.216 . S
O1 C8 1.247 . S
O2 Co0 2.091 . S
O2 C8 1.261 . S
C3 O12 1.247 . S
C3 O13 1.272 . S
O4 Co0 2.004 . S
O4 C9 1.259 . S
Co5 O6 2.061 . S
Co5 O11 2.052 . S
Co5 O13 2.135 . S
O6 Co5 2.061 . S
O6 C9 1.235 . S
C7 O10 1.238 . S
C7 O11 1.241 . S
C8 O1 1.247 . S
C8 O2 1.261 . S
C9 O4 1.259 . S
C9 O6 1.235 . S
O10 Co0 2.021 . S
O10 C7 1.238 . S
O11 Co5 2.052 . S
O11 C7 1.241 . S
O12 Co0 2.137 . S
O12 C3 1.247 . S
O13 Co0 2.244 . S
O13 C3 1.272 . S
O13 Co5 2.135 . S
Co14 O15 2.216 . S
Co14 O16 2.091 . S
Co14 O18 2.004 . S
Co14 O24 2.021 . S
Co14 O26 2.137 . S
Co14 O27 2.244 . S
O15 Co14 2.216 . S
O15 C22 1.247 . S
O16 Co14 2.091 . S
O16 C22 1.261 . S
C17 O26 1.247 . S
C17 O27 1.272 . S
O18 Co14 2.004 . S
O18 C23 1.259 . S
Co19 O20 2.061 . S
Co19 O25 2.052 . S
Co19 O27 2.135 . S
O20 Co19 2.061 . S
O20 C23 1.235 . S
C21 O24 1.238 . S
C21 O25 1.241 . S
C22 O15 1.247 . S
C22 O16 1.261 . S
C23 O18 1.259 . S
C23 O20 1.235 . S
O24 Co14 2.021 . S
O24 C21 1.238 . S
O25 Co19 2.052 . S
O25 C21 1.241 . S
O26 Co14 2.137 . S
O26 C17 1.247 . S
O27 Co14 2.244 . S
O27 C17 1.272 . S
O27 Co19 2.135 . S
Co28 O29 2.216 . S
Co28 O30 2.091 . S
Co28 O32 2.004 . S
Co28 O38 2.021 . S
Co28 O40 2.137 . S
Co28 O41 2.244 . S
O29 Co28 2.216 . S
O29 C36 1.247 . S
O30 Co28 2.091 . S
O30 C36 1.261 . S
C31 O40 1.247 . S
C31 O41 1.272 . S
O32 Co28 2.004 . S
O32 C37 1.259 . S
Co33 O34 2.061 . S
Co33 O39 2.052 . S
Co33 O41 2.135 . S
O34 Co33 2.061 . S
O34 C37 1.235 . S
C35 O38 1.238 . S
C35 O39 1.241 . S
C36 O29 1.247 . S
C36 O30 1.261 . S
C37 O32 1.259 . S
C37 O34 1.235 . S
O38 Co28 2.021 . S
O38 C35 1.238 . S
O39 Co33 2.052 . S
O39 C35 1.241 . S
O40 Co28 2.137 . S
O40 C31 1.247 . S
O41 Co28 2.244 . S
O41 C31 1.272 . S
O41 Co33 2.135 . S
Co42 O43 2.216 . S
Co42 O44 2.091 . S
Co42 O46 2.004 . S
Co42 O52 2.021 . S
Co42 O54 2.137 . S
Co42 O55 2.244 . S
O43 Co42 2.216 . S
O43 C50 1.247 . S
O44 Co42 2.091 . S
O44 C50 1.261 . S
C45 O54 1.247 . S
C45 O55 1.272 . S
O46 Co42 2.004 . S
O46 C51 1.259 . S
Co47 O48 2.061 . S
Co47 O53 2.052 . S
Co47 O55 2.135 . S
O48 Co47 2.061 . S
O48 C51 1.235 . S
C49 O52 1.238 . S
C49 O53 1.241 . S
C50 O43 1.247 . S
C50 O44 1.261 . S
C51 O46 1.259 . S
C51 O48 1.235 . S
O52 Co42 2.021 . S
O52 C49 1.238 . S
O53 Co47 2.052 . S
O53 C49 1.241 . S
O54 Co42 2.137 . S
O54 C45 1.247 . S
O55 Co42 2.244 . S
O55 C45 1.272 . S
O55 Co47 2.135 . S
Co56 O57 2.216 . S
Co56 O58 2.091 . S
Co56 O60 2.004 . S
Co56 O66 2.021 . S
Co56 O68 2.137 . S
Co56 O69 2.244 . S
O57 Co56 2.216 . S
O57 C64 1.247 . S
O58 Co56 2.091 . S
O58 C64 1.261 . S
C59 O68 1.247 . S
C59 O69 1.272 . S
O60 Co56 2.004 . S
O60 C65 1.259 . S
Co61 O62 2.061 . S
Co61 O67 2.052 . S
Co61 O69 2.135 . S
O62 Co61 2.061 . S
O62 C65 1.235 . S
C63 O66 1.238 . S
C63 O67 1.241 . S
C64 O57 1.247 . S
C64 O58 1.261 . S
C65 O60 1.259 . S
C65 O62 1.235 . S
O66 Co56 2.021 . S
O66 C63 1.238 . S
O67 Co61 2.052 . S
O67 C63 1.241 . S
O68 Co56 2.137 . S
O68 C59 1.247 . S
O69 Co56 2.244 . S
O69 C59 1.272 . S
O69 Co61 2.135 . S
Co70 O71 2.216 . S
Co70 O72 2.091 . S
Co70 O74 2.004 . S
Co70 O80 2.021 . S
Co70 O82 2.137 . S
Co70 O83 2.244 . S
O71 Co70 2.216 . S
O71 C78 1.247 . S
O72 Co70 2.091 . S
O72 C78 1.261 . S
C73 O82 1.247 . S
C73 O83 1.272 . S
O74 Co70 2.004 . S
O74 C79 1.259 . S
Co75 O76 2.061 . S
Co75 O81 2.052 . S
Co75 O83 2.135 . S
O76 Co75 2.061 . S
O76 C79 1.235 . S
C77 O80 1.238 . S
C77 O81 1.241 . S
C78 O71 1.247 . S
C78 O72 1.261 . S
C79 O74 1.259 . S
C79 O76 1.235 . S
O80 Co70 2.021 . S
O80 C77 1.238 . S
O81 Co75 2.052 . S
O81 C77 1.241 . S
O82 Co70 2.137 . S
O82 C73 1.247 . S
O83 Co70 2.244 . S
O83 C73 1.272 . S
O83 Co75 2.135 . S
Co84 O85 2.216 . S
Co84 O86 2.091 . S
Co84 O88 2.004 . S
Co84 O94 2.021 . S
Co84 O96 2.137 . S
Co84 O97 2.244 . S
O85 Co84 2.216 . S
O85 C92 1.247 . S
O86 Co84 2.091 . S
O86 C92 1.261 . S
C87 O96 1.247 . S
C87 O97 1.272 . S
O88 Co84 2.004 . S
O88 C93 1.259 . S
Co89 O90 2.061 . S
Co89 O95 2.052 . S
Co89 O97 2.135 . S
O90 Co89 2.061 . S
O90 C93 1.235 . S
C91 O94 1.238 . S
C91 O95 1.241 . S
C92 O85 1.247 . S
C92 O86 1.261 . S
C93 O88 1.259 . S
C93 O90 1.235 . S
O94 Co84 2.021 . S
O94 C91 1.238 . S
O95 Co89 2.052 . S
O95 C91 1.241 . S
O96 Co84 2.137 . S
O96 C87 1.247 . S
O97 Co84 2.244 . S
O97 C87 1.272 . S
O97 Co89 2.135 . S
Co98 O99 2.216 . S
Co98 O100 2.091 . S
Co98 O102 2.004 . S
Co98 O108 2.021 . S
Co98 O110 2.137 . S
Co98 O111 2.244 . S
O99 Co98 2.216 . S
O99 C106 1.247 . S
O100 Co98 2.091 . S
O100 C106 1.261 . S
C101 O110 1.247 . S
C101 O111 1.272 . S
O102 Co98 2.004 . S
O102 C107 1.259 . S
Co103 O104 2.061 . S
Co103 O109 2.052 . S
Co103 O111 2.135 . S
O104 Co103 2.061 . S
O104 C107 1.235 . S
C105 O108 1.238 . S
C105 O109 1.241 . S
C106 O99 1.247 . S
C106 O100 1.261 . S
C107 O102 1.259 . S
C107 O104 1.235 . S
O108 Co98 2.021 . S
O108 C105 1.238 . S
O109 Co103 2.052 . S
O109 C105 1.241 . S
O110 Co98 2.137 . S
O110 C101 1.247 . S
O111 Co98 2.244 . S
O111 C101 1.272 . S
O111 Co103 2.135 . S
C112 C113 1.349 . S
C112 C114 1.327 . S
C112 H137 0.950 . S
C113 C112 1.349 . S
C113 C129 1.349 . S
C114 C112 1.327 . S
C114 C133 1.429 . S
C114 H138 0.950 . S
C115 C132 1.574 1_554 S
C115 C134 1.368 . S
C115 H139 0.949 . S
H116 C120 0.949 . S
C117 C118 1.349 . S
C117 C119 1.327 . S
C117 H140 0.950 . S
C118 C117 1.349 . S
C118 C130 1.349 . S
C119 C117 1.327 . S
C119 C135 1.429 . S
C119 H141 0.950 . S
C120 H116 0.949 . S
C120 C128 1.574 1_556 S
C120 C136 1.368 . S
H121 C129 0.950 . S
H122 C127 0.950 . S
H123 C128 0.949 . S
H124 C130 0.950 . S
H125 C131 0.950 . S
H126 C132 0.949 . S
C127 H122 0.950 . S
C127 C129 1.327 . S
C127 C133 1.429 . S
C128 C120 1.574 1_554 S
C128 H123 0.949 . S
C128 C134 1.368 . S
C129 C113 1.349 . S
C129 H121 0.950 . S
C129 C127 1.327 . S
C130 C118 1.349 . S
C130 H124 0.950 . S
C130 C131 1.327 . S
C131 H125 0.950 . S
C131 C130 1.327 . S
C131 C135 1.429 . S
C132 C115 1.574 1_556 S
C132 H126 0.949 . S
C132 C136 1.368 . S
C133 C114 1.429 . S
C133 C127 1.429 . S
C133 C134 1.523 . S
C134 C115 1.368 . S
C134 C128 1.368 . S
C134 C133 1.523 . S
C135 C119 1.429 . S
C135 C131 1.429 . S
C135 C136 1.523 . S
C136 C120 1.368 . S
C136 C132 1.368 . S
C136 C135 1.523 . S
H137 C112 0.950 . S
H138 C114 0.950 . S
H139 C115 0.949 . S
H140 C117 0.950 . S
H141 C119 0.950 . S
C142 C143 1.349 . S
C142 C144 1.327 . S
C142 H167 0.950 . S
C143 C142 1.349 . S
C143 C159 1.349 . S
C144 C142 1.327 . S
C144 C163 1.429 . S
C144 H168 0.950 . S
C145 C162 1.574 . S
C145 C164 1.368 . S
C145 H169 0.949 . S
H146 C150 0.949 . S
C147 C148 1.349 . S
C147 C149 1.327 . S
C147 H170 0.950 . S
C148 C147 1.349 . S
C148 C160 1.349 . S
C149 C147 1.327 . S
C149 C165 1.429 . S
C149 H171 0.950 . S
C150 H146 0.949 . S
C150 C158 1.574 . S
C150 C166 1.368 . S
H151 C159 0.950 . S
H152 C157 0.950 . S
H153 C158 0.949 . S
H154 C160 0.950 . S
H155 C161 0.950 . S
H156 C162 0.949 . S
C157 H152 0.950 . S
C157 C159 1.327 . S
C157 C163 1.429 . S
C158 C150 1.574 . S
C158 H153 0.949 . S
C158 C164 1.368 . S
C159 C143 1.349 . S
C159 H151 0.950 . S
C159 C157 1.327 . S
C160 C148 1.349 . S
C160 H154 0.950 . S
C160 C161 1.327 . S
C161 H155 0.950 . S
C161 C160 1.327 . S
C161 C165 1.429 . S
C162 C145 1.574 . S
C162 H156 0.949 . S
C162 C166 1.368 . S
C163 C144 1.429 . S
C163 C157 1.429 . S
C163 C164 1.523 . S
C164 C145 1.368 . S
C164 C158 1.368 . S
C164 C163 1.523 . S
C165 C149 1.429 . S
C165 C161 1.429 . S
C165 C166 1.523 . S
C166 C150 1.368 . S
C166 C162 1.368 . S
C166 C165 1.523 . S
H167 C142 0.950 . S
H168 C144 0.950 . S
H169 C145 0.949 . S
H170 C147 0.950 . S
H171 C149 0.950 . S
C172 C173 1.349 . S
C172 C174 1.327 . S
C172 H197 0.950 . S
C173 C172 1.349 . S
C173 C189 1.349 . S
C174 C172 1.327 . S
C174 C193 1.429 . S
C174 H198 0.950 . S
C175 C192 1.574 1_554 S
C175 C194 1.368 . S
C175 H199 0.949 . S
H176 C180 0.949 . S
C177 C178 1.349 . S
C177 C179 1.327 . S
C177 H200 0.950 . S
C178 C177 1.349 . S
C178 C190 1.349 . S
C179 C177 1.327 . S
C179 C195 1.429 . S
C179 H201 0.950 . S
C180 H176 0.949 . S
C180 C188 1.574 1_556 S
C180 C196 1.368 . S
H181 C189 0.950 . S
H182 C187 0.950 . S
H183 C188 0.949 . S
H184 C190 0.950 . S
H185 C191 0.950 . S
H186 C192 0.949 . S
C187 H182 0.950 . S
C187 C189 1.327 . S
C187 C193 1.429 . S
C188 C180 1.574 1_554 S
C188 H183 0.949 . S
C188 C194 1.368 . S
C189 C173 1.349 . S
C189 H181 0.950 . S
C189 C187 1.327 . S
C190 C178 1.349 . S
C190 H184 0.950 . S
C190 C191 1.327 . S
C191 H185 0.950 . S
C191 C190 1.327 . S
C191 C195 1.429 . S
C192 C175 1.574 1_556 S
C192 H186 0.949 . S
C192 C196 1.368 . S
C193 C174 1.429 . S
C193 C187 1.429 . S
C193 C194 1.523 . S
C194 C175 1.368 . S
C194 C188 1.368 . S
C194 C193 1.523 . S
C195 C179 1.429 . S
C195 C191 1.429 . S
C195 C196 1.523 . S
C196 C180 1.368 . S
C196 C192 1.368 . S
C196 C195 1.523 . S
H197 C172 0.950 . S
H198 C174 0.950 . S
H199 C175 0.949 . S
H200 C177 0.950 . S
H201 C179 0.950 . S
C202 C203 1.349 . S
C202 C204 1.327 . S
C202 H227 0.950 . S
C203 C202 1.349 . S
C203 C219 1.349 . S
C204 C202 1.327 . S
C204 C223 1.429 . S
C204 H228 0.950 . S
C205 C222 1.574 . S
C205 C224 1.368 . S
C205 H229 0.949 . S
H206 C210 0.949 . S
C207 C208 1.349 . S
C207 C209 1.327 . S
C207 H230 0.950 . S
C208 C207 1.349 . S
C208 C220 1.349 . S
C209 C207 1.327 . S
C209 C225 1.429 . S
C209 H231 0.950 . S
C210 H206 0.949 . S
C210 C218 1.574 . S
C210 C226 1.368 . S
H211 C219 0.950 . S
H212 C217 0.950 . S
H213 C218 0.949 . S
H214 C220 0.950 . S
H215 C221 0.950 . S
H216 C222 0.949 . S
C217 H212 0.950 . S
C217 C219 1.327 . S
C217 C223 1.429 . S
C218 C210 1.574 . S
C218 H213 0.949 . S
C218 C224 1.368 . S
C219 C203 1.349 . S
C219 H211 0.950 . S
C219 C217 1.327 . S
C220 C208 1.349 . S
C220 H214 0.950 . S
C220 C221 1.327 . S
C221 H215 0.950 . S
C221 C220 1.327 . S
C221 C225 1.429 . S
C222 C205 1.574 . S
C222 H216 0.949 . S
C222 C226 1.368 . S
C223 C204 1.429 . S
C223 C217 1.429 . S
C223 C224 1.523 . S
C224 C205 1.368 . S
C224 C218 1.368 . S
C224 C223 1.523 . S
C225 C209 1.429 . S
C225 C221 1.429 . S
C225 C226 1.523 . S
C226 C210 1.368 . S
C226 C222 1.368 . S
C226 C225 1.523 . S
H227 C202 0.950 . S
H228 C204 0.950 . S
H229 C205 0.949 . S
H230 C207 0.950 . S
H231 C209 0.950 . S
C232 C233 1.349 . S
C232 C234 1.327 . S
C232 H257 0.950 . S
C233 C232 1.349 . S
C233 C249 1.349 . S
C234 C232 1.327 . S
C234 C253 1.429 . S
C234 H258 0.950 . S
C235 C252 1.574 . S
C235 C254 1.368 . S
C235 H259 0.949 . S
H236 C240 0.949 . S
C237 C238 1.349 . S
C237 C239 1.327 . S
C237 H260 0.950 . S
C238 C237 1.349 . S
C238 C250 1.349 . S
C239 C237 1.327 . S
C239 C255 1.429 . S
C239 H261 0.950 . S
C240 H236 0.949 . S
C240 C248 1.574 . S
C240 C256 1.368 . S
H241 C249 0.950 . S
H242 C247 0.950 . S
H243 C248 0.949 . S
H244 C250 0.950 . S
H245 C251 0.950 . S
H246 C252 0.949 . S
C247 H242 0.950 . S
C247 C249 1.327 . S
C247 C253 1.429 . S
C248 C240 1.574 . S
C248 H243 0.949 . S
C248 C254 1.368 . S
C249 C233 1.349 . S
C249 H241 0.950 . S
C249 C247 1.327 . S
C250 C238 1.349 . S
C250 H244 0.950 . S
C250 C251 1.327 . S
C251 H245 0.950 . S
C251 C250 1.327 . S
C251 C255 1.429 . S
C252 C235 1.574 . S
C252 H246 0.949 . S
C252 C256 1.368 . S
C253 C234 1.429 . S
C253 C247 1.429 . S
C253 C254 1.523 . S
C254 C235 1.368 . S
C254 C248 1.368 . S
C254 C253 1.523 . S
C255 C239 1.429 . S
C255 C251 1.429 . S
C255 C256 1.523 . S
C256 C240 1.368 . S
C256 C252 1.368 . S
C256 C255 1.523 . S
H257 C232 0.950 . S
H258 C234 0.950 . S
H259 C235 0.949 . S
H260 C237 0.950 . S
H261 C239 0.950 . S
C262 C263 1.349 . S
C262 C264 1.327 . S
C262 H287 0.950 . S
C263 C262 1.349 . S
C263 C279 1.349 . S
C264 C262 1.327 . S
C264 C283 1.429 . S
C264 H288 0.950 . S
C265 C282 1.574 . S
C265 C284 1.368 . S
C265 H289 0.949 . S
H266 C270 0.949 . S
C267 C268 1.349 . S
C267 C269 1.327 . S
C267 H290 0.950 . S
C268 C267 1.349 . S
C268 C280 1.349 . S
C269 C267 1.327 . S
C269 C285 1.426 1_545 S
C269 H291 0.950 1_545 S
C270 H266 0.949 . S
C270 C278 1.574 . S
C270 C286 1.368 . S
H271 C279 0.950 . S
H272 C277 0.950 . S
H273 C278 0.949 . S
H274 C280 0.950 . S
H275 C281 0.950 . S
H276 C282 0.949 . S
C277 H272 0.950 . S
C277 C279 1.327 . S
C277 C283 1.429 . S
C278 C270 1.574 . S
C278 H273 0.949 . S
C278 C284 1.368 . S
C279 C263 1.349 . S
C279 H271 0.950 . S
C279 C277 1.327 . S
C280 C268 1.349 . S
C280 H274 0.950 . S
C280 C281 1.327 . S
C281 H275 0.950 . S
C281 C280 1.327 . S
C281 C285 1.416 1_545 S
C282 C265 1.574 . S
C282 H276 0.949 . S
C282 C286 1.368 . S
C283 C264 1.429 . S
C283 C277 1.429 . S
C283 C284 1.523 . S
C284 C265 1.368 . S
C284 C278 1.368 . S
C284 C283 1.523 . S
C285 C269 1.426 1_565 S
C285 C281 1.416 1_565 S
C285 C286 1.537 . S
C286 C270 1.368 . S
C286 C282 1.368 . S
C286 C285 1.537 . S
H287 C262 0.950 . S
H288 C264 0.950 . S
H289 C265 0.949 . S
H290 C267 0.950 . S
H291 C269 0.950 1_565 S
C292 C293 1.349 . S
C292 C294 1.327 . S
C292 H317 0.950 . S
C293 C292 1.349 . S
C293 C309 1.349 . S
C294 C292 1.327 . S
C294 C313 1.429 . S
C294 H318 0.950 . S
C295 C312 1.574 . S
C295 C314 1.368 . S
C295 H319 0.949 . S
H296 C300 0.949 . S
C297 C298 1.349 . S
C297 C299 1.327 . S
C297 H320 0.950 . S
C298 C297 1.349 . S
C298 C310 1.349 . S
C299 C297 1.327 . S
C299 C315 1.429 . S
C299 H321 0.950 . S
C300 H296 0.949 . S
C300 C308 1.574 . S
C300 C316 1.368 . S
H301 C309 0.950 . S
H302 C307 0.950 . S
H303 C308 0.949 . S
H304 C310 0.950 . S
H305 C311 0.950 . S
H306 C312 0.949 . S
C307 H302 0.950 . S
C307 C309 1.327 . S
C307 C313 1.429 . S
C308 C300 1.574 . S
C308 H303 0.949 . S
C308 C314 1.368 . S
C309 C293 1.349 . S
C309 H301 0.950 . S
C309 C307 1.327 . S
C310 C298 1.349 . S
C310 H304 0.950 . S
C310 C311 1.327 . S
C311 H305 0.950 . S
C311 C310 1.327 . S
C311 C315 1.429 . S
C312 C295 1.574 . S
C312 H306 0.949 . S
C312 C316 1.368 . S
C313 C294 1.429 . S
C313 C307 1.429 . S
C313 C314 1.523 . S
C314 C295 1.368 . S
C314 C308 1.368 . S
C314 C313 1.523 . S
C315 C299 1.429 . S
C315 C311 1.429 . S
C315 C316 1.523 . S
C316 C300 1.368 . S
C316 C312 1.368 . S
C316 C315 1.523 . S
H317 C292 0.950 . S
H318 C294 0.950 . S
H319 C295 0.949 . S
H320 C297 0.950 . S
H321 C299 0.950 . S
C322 C323 1.349 . S
C322 C324 1.327 . S
C322 H347 0.950 . S
C323 C322 1.349 . S
C323 C339 1.349 . S
C324 C322 1.327 . S
C324 C343 1.429 . S
C324 H348 0.950 . S
C325 C342 1.574 . S
C325 C344 1.368 . S
C325 H349 0.949 . S
H326 C330 0.949 . S
C327 C328 1.349 . S
C327 C329 1.327 . S
C327 H350 0.950 . S
C328 C327 1.349 . S
C328 C340 1.349 . S
C329 C327 1.327 . S
C329 C345 1.414 1_565 S
C329 H351 0.950 . S
C330 H326 0.949 . S
C330 C338 1.574 . S
C330 C346 1.368 . S
H331 C339 0.950 . S
H332 C337 0.950 . S
H333 C338 0.949 . S
H334 C340 0.950 . S
H335 C341 0.945 1_545 S
H336 C342 0.949 . S
C337 H332 0.950 . S
C337 C339 1.327 . S
C337 C343 1.429 . S
C338 C330 1.574 . S
C338 H333 0.949 . S
C338 C344 1.368 . S
C339 C323 1.349 . S
C339 H331 0.950 . S
C339 C337 1.327 . S
C340 C328 1.349 . S
C340 H334 0.950 . S
C340 C341 1.332 . S
C341 H335 0.945 1_565 S
C341 C340 1.332 . S
C341 C345 1.428 1_565 S
C342 C325 1.574 . S
C342 H336 0.949 . S
C342 C346 1.368 . S
C343 C324 1.429 . S
C343 C337 1.429 . S
C343 C344 1.523 . S
C344 C325 1.368 . S
C344 C338 1.368 . S
C344 C343 1.523 . S
C345 C329 1.414 1_545 S
C345 C341 1.428 1_545 S
C345 C346 1.537 . S
C346 C330 1.368 . S
C346 C342 1.368 . S
C346 C345 1.537 . S
H347 C322 0.950 . S
H348 C324 0.950 . S
H349 C325 0.949 . S
H350 C327 0.950 . S
H351 C329 0.950 . S
C352 C353 1.349 . S
C352 C354 1.327 . S
C352 H377 0.950 . S
C353 C352 1.349 . S
C353 C369 1.349 . S
C354 C352 1.327 . S
C354 C373 1.429 . S
C354 H378 0.950 . S
C355 C372 1.574 . S
C355 C374 1.368 . S
C355 H379 0.949 . S
H356 C360 0.949 . S
C357 C358 1.349 . S
C357 C359 1.327 . S
C357 H380 0.950 . S
C358 C357 1.349 . S
C358 C370 1.349 . S
C359 C357 1.327 . S
C359 C375 1.419 1_455 S
C359 H381 0.950 . S
C360 H356 0.949 . S
C360 C368 1.574 . S
C360 C376 1.368 . S
H361 C369 0.950 . S
H362 C367 0.950 . S
H363 C368 0.949 . S
H364 C370 0.950 . S
H365 C371 0.950 1_655 S
H366 C372 0.949 . S
C367 H362 0.950 . S
C367 C369 1.327 . S
C367 C373 1.429 . S
C368 C360 1.574 . S
C368 H363 0.949 . S
C368 C374 1.368 . S
C369 C353 1.349 . S
C369 H361 0.950 . S
C369 C367 1.327 . S
C370 C358 1.349 . S
C370 H364 0.950 . S
C370 C371 1.327 . S
C371 H365 0.950 1_455 S
C371 C370 1.327 . S
C371 C375 1.423 1_455 S
C372 C355 1.574 . S
C372 H366 0.949 . S
C372 C376 1.368 . S
C373 C354 1.429 . S
C373 C367 1.429 . S
C373 C374 1.523 . S
C374 C355 1.368 . S
C374 C368 1.368 . S
C374 C373 1.523 . S
C375 C359 1.419 1_655 S
C375 C371 1.423 1_655 S
C375 C376 1.537 . S
C376 C360 1.368 . S
C376 C372 1.368 . S
C376 C375 1.537 . S
H377 C352 0.950 . S
H378 C354 0.950 . S
H379 C355 0.949 . S
H380 C357 0.950 . S
H381 C359 0.950 . S
C382 C383 1.349 . S
C382 C384 1.327 . S
C382 H407 0.950 . S
C383 C382 1.349 . S
C383 C399 1.349 . S
C384 C382 1.327 . S
C384 C403 1.429 . S
C384 H408 0.950 . S
C385 C402 1.574 . S
C385 C404 1.368 . S
C385 H409 0.949 . S
H386 C390 0.949 . S
C387 C388 1.349 . S
C387 C389 1.327 . S
C387 H410 0.950 . S
C388 C387 1.349 . S
C388 C400 1.349 . S
C389 C387 1.327 . S
C389 C405 1.429 . S
C389 H411 0.950 . S
C390 H386 0.949 . S
C390 C398 1.574 . S
C390 C406 1.368 . S
H391 C399 0.950 . S
H392 C397 0.950 . S
H393 C398 0.949 . S
H394 C400 0.950 . S
H395 C401 0.950 . S
H396 C402 0.949 . S
C397 H392 0.950 . S
C397 C399 1.327 . S
C397 C403 1.429 . S
C398 C390 1.574 . S
C398 H393 0.949 . S
C398 C404 1.368 . S
C399 C383 1.349 . S
C399 H391 0.950 . S
C399 C397 1.327 . S
C400 C388 1.349 . S
C400 H394 0.950 . S
C400 C401 1.327 . S
C401 H395 0.950 . S
C401 C400 1.327 . S
C401 C405 1.429 . S
C402 C385 1.574 . S
C402 H396 0.949 . S
C402 C406 1.368 . S
C403 C384 1.429 . S
C403 C397 1.429 . S
C403 C404 1.523 . S
C404 C385 1.368 . S
C404 C398 1.368 . S
C404 C403 1.523 . S
C405 C389 1.429 . S
C405 C401 1.429 . S
C405 C406 1.523 . S
C406 C390 1.368 . S
C406 C402 1.368 . S
C406 C405 1.523 . S
H407 C382 0.950 . S
H408 C384 0.950 . S
H409 C385 0.949 . S
H410 C387 0.950 . S
H411 C389 0.950 . S
C412 C413 1.349 . S
C412 C414 1.327 . S
C412 H437 0.950 . S
C413 C412 1.349 . S
C413 C429 1.349 . S
C414 C412 1.327 . S
C414 C433 1.429 . S
C414 H438 0.950 . S
C415 C432 1.574 . S
C415 C434 1.368 . S
C415 H439 0.949 . S
H416 C420 0.949 . S
C417 C418 1.349 . S
C417 C419 1.327 . S
C417 H440 0.950 . S
C418 C417 1.349 . S
C418 C430 1.349 . S
C419 C417 1.327 . S
C419 C435 1.416 1_655 S
C419 H441 0.950 . S
C420 H416 0.949 . S
C420 C428 1.574 . S
C420 C436 1.368 . S
H421 C429 0.950 . S
H422 C427 0.950 . S
H423 C428 0.949 . S
H424 C430 0.950 . S
H425 C431 0.950 1_455 S
H426 C432 0.949 . S
C427 H422 0.950 . S
C427 C429 1.327 . S
C427 C433 1.429 . S
C428 C420 1.574 . S
C428 H423 0.949 . S
C428 C434 1.368 . S
C429 C413 1.349 . S
C429 H421 0.950 . S
C429 C427 1.327 . S
C430 C418 1.349 . S
C430 H424 0.950 . S
C430 C431 1.327 . S
C431 H425 0.950 1_655 S
C431 C430 1.327 . S
C431 C435 1.426 1_655 S
C432 C415 1.574 . S
C432 H426 0.949 . S
C432 C436 1.368 . S
C433 C414 1.429 . S
C433 C427 1.429 . S
C433 C434 1.523 . S
C434 C415 1.368 . S
C434 C428 1.368 . S
C434 C433 1.523 . S
C435 C419 1.416 1_455 S
C435 C431 1.426 1_455 S
C435 C436 1.537 . S
C436 C420 1.368 . S
C436 C432 1.368 . S
C436 C435 1.537 . S
H437 C412 0.950 . S
H438 C414 0.950 . S
H439 C415 0.949 . S
H440 C417 0.950 . S
H441 C419 0.950 . S
C442 C443 1.349 . S
C442 C444 1.327 . S
C442 H467 0.950 . S
C443 C442 1.349 . S
C443 C459 1.349 . S
C444 C442 1.327 . S
C444 C463 1.429 . S
C444 H468 0.950 . S
C445 C462 1.574 . S
C445 C464 1.368 . S
C445 H469 0.949 . S
H446 C450 0.949 . S
C447 C448 1.349 . S
C447 C449 1.327 . S
C447 H470 0.950 . S
C448 C447 1.349 . S
C448 C460 1.349 . S
C449 C447 1.327 . S
C449 C465 1.429 . S
C449 H471 0.950 . S
C450 H446 0.949 . S
C450 C458 1.574 . S
C450 C466 1.368 . S
H451 C459 0.950 . S
H452 C457 0.950 . S
H453 C458 0.949 . S
H454 C460 0.950 . S
H455 C461 0.950 . S
H456 C462 0.949 . S
C457 H452 0.950 . S
C457 C459 1.327 . S
C457 C463 1.429 . S
C458 C450 1.574 . S
C458 H453 0.949 . S
C458 C464 1.368 . S
C459 C443 1.349 . S
C459 H451 0.950 . S
C459 C457 1.327 . S
C460 C448 1.349 . S
C460 H454 0.950 . S
C460 C461 1.327 . S
C461 H455 0.950 . S
C461 C460 1.327 . S
C461 C465 1.429 . S
C462 C445 1.574 . S
C462 H456 0.949 . S
C462 C466 1.368 . S
C463 C444 1.429 . S
C463 C457 1.429 . S
C463 C464 1.523 . S
C464 C445 1.368 . S
C464 C458 1.368 . S
C464 C463 1.523 . S
C465 C449 1.429 . S
C465 C461 1.429 . S
C465 C466 1.523 . S
C466 C450 1.368 . S
C466 C462 1.368 . S
C466 C465 1.523 . S
H467 C442 0.950 . S
H468 C444 0.950 . S
H469 C445 0.949 . S
H470 C447 0.950 . S
H471 C449 0.950 . S
C472 C473 1.349 . S
C472 C474 1.327 . S
C472 H497 0.950 . S
C473 C472 1.349 . S
C473 C489 1.349 . S
C474 C472 1.327 . S
C474 C493 1.429 . S
C474 H498 0.950 . S
C475 C492 1.574 1_655 S
C475 C494 1.368 . S
C475 H499 0.949 . S
H476 C480 0.949 . S
C477 C478 1.349 . S
C477 C479 1.327 . S
C477 H500 0.950 . S
C478 C477 1.349 . S
C478 C490 1.349 . S
C479 C477 1.327 . S
C479 C495 1.429 . S
C479 H501 0.950 . S
C480 H476 0.949 . S
C480 C488 1.574 1_455 S
C480 C496 1.368 . S
H481 C489 0.950 . S
H482 C487 0.950 . S
H483 C488 0.949 . S
H484 C490 0.950 . S
H485 C491 0.950 . S
H486 C492 0.949 . S
C487 H482 0.950 . S
C487 C489 1.327 . S
C487 C493 1.429 . S
C488 C480 1.574 1_655 S
C488 H483 0.949 . S
C488 C494 1.368 . S
C489 C473 1.349 . S
C489 H481 0.950 . S
C489 C487 1.327 . S
C490 C478 1.349 . S
C490 H484 0.950 . S
C490 C491 1.327 . S
C491 H485 0.950 . S
C491 C490 1.327 . S
C491 C495 1.429 . S
C492 C475 1.574 1_455 S
C492 H486 0.949 . S
C492 C496 1.368 . S
C493 C474 1.429 . S
C493 C487 1.429 . S
C493 C494 1.523 . S
C494 C475 1.368 . S
C494 C488 1.368 . S
C494 C493 1.523 . S
C495 C479 1.429 . S
C495 C491 1.429 . S
C495 C496 1.523 . S
C496 C480 1.368 . S
C496 C492 1.368 . S
C496 C495 1.523 . S
H497 C472 0.950 . S
H498 C474 0.950 . S
H499 C475 0.949 . S
H500 C477 0.950 . S
H501 C479 0.950 . S
C502 C503 1.349 . S
C502 C504 1.327 . S
C502 H527 0.950 . S
C503 C502 1.349 . S
C503 C519 1.349 . S
C504 C502 1.327 . S
C504 C523 1.429 . S
C504 H528 0.950 . S
C505 C522 1.579 . S
C505 C524 1.368 . S
C505 H529 0.949 . S
H506 C510 0.949 . S
C507 C508 1.349 . S
C507 C509 1.327 . S
C507 H530 0.950 . S
C508 C507 1.349 . S
C508 C520 1.349 . S
C509 C507 1.327 . S
C509 C525 1.429 . S
C509 H531 0.950 . S
C510 H506 0.949 . S
C510 C518 1.579 . S
C510 C526 1.368 . S
H511 C519 0.950 . S
H512 C517 0.950 . S
H513 C518 0.949 1_655 S
H514 C520 0.950 . S
H515 C521 0.950 . S
H516 C522 0.949 1_455 S
C517 H512 0.950 . S
C517 C519 1.327 . S
C517 C523 1.429 . S
C518 C510 1.579 . S
C518 H513 0.949 1_455 S
C518 C524 1.363 1_455 S
C519 C503 1.349 . S
C519 H511 0.950 . S
C519 C517 1.327 . S
C520 C508 1.349 . S
C520 H514 0.950 . S
C520 C521 1.327 . S
C521 H515 0.950 . S
C521 C520 1.327 . S
C521 C525 1.429 . S
C522 C505 1.579 . S
C522 H516 0.949 1_655 S
C522 C526 1.363 1_655 S
C523 C504 1.429 . S
C523 C517 1.429 . S
C523 C524 1.523 . S
C524 C505 1.368 . S
C524 C518 1.363 1_655 S
C524 C523 1.523 . S
C525 C509 1.429 . S
C525 C521 1.429 . S
C525 C526 1.523 . S
C526 C510 1.368 . S
C526 C522 1.363 1_455 S
C526 C525 1.523 . S
H527 C502 0.950 . S
H528 C504 0.950 . S
H529 C505 0.949 . S
H530 C507 0.950 . S
H531 C509 0.950 . S
C532 C533 1.349 . S
C532 C534 1.327 . S
C532 H557 0.950 . S
C533 C532 1.349 . S
C533 C549 1.349 . S
C534 C532 1.327 . S
C534 C553 1.429 . S
C534 H558 0.950 . S
C535 C552 1.579 . S
C535 C554 1.368 . S
C535 H559 0.949 . S
H536 C540 0.949 . S
C537 C538 1.349 . S
C537 C539 1.327 . S
C537 H560 0.950 . S
C538 C537 1.349 . S
C538 C550 1.349 . S
C539 C537 1.327 . S
C539 C555 1.429 . S
C539 H561 0.950 . S
C540 H536 0.949 . S
C540 C548 1.579 . S
C540 C556 1.368 . S
H541 C549 0.950 . S
H542 C547 0.950 . S
H543 C548 0.949 1_545 S
H544 C550 0.950 . S
H545 C551 0.950 . S
H546 C552 0.949 1_565 S
C547 H542 0.950 . S
C547 C549 1.327 . S
C547 C553 1.429 . S
C548 C540 1.579 . S
C548 H543 0.949 1_565 S
C548 C554 1.363 1_565 S
C549 C533 1.349 . S
C549 H541 0.950 . S
C549 C547 1.327 . S
C550 C538 1.349 . S
C550 H544 0.950 . S
C550 C551 1.327 . S
C551 H545 0.950 . S
C551 C550 1.327 . S
C551 C555 1.429 . S
C552 C535 1.579 . S
C552 H546 0.949 1_545 S
C552 C556 1.363 1_545 S
C553 C534 1.429 . S
C553 C547 1.429 . S
C553 C554 1.523 . S
C554 C535 1.368 . S
C554 C548 1.363 1_545 S
C554 C553 1.523 . S
C555 C539 1.429 . S
C555 C551 1.429 . S
C555 C556 1.523 . S
C556 C540 1.368 . S
C556 C552 1.363 1_565 S
C556 C555 1.523 . S
H557 C532 0.950 . S
H558 C534 0.950 . S
H559 C535 0.949 . S
H560 C537 0.950 . S
H561 C539 0.950 . S
C562 C563 1.349 . S
C562 C564 1.327 . S
C562 H587 0.950 . S
C563 C562 1.349 . S
C563 C579 1.349 . S
C564 C562 1.327 . S
C564 C583 1.429 . S
C564 H588 0.950 . S
C565 C582 1.574 1_545 S
C565 C584 1.368 . S
C565 H589 0.949 . S
H566 C570 0.949 . S
C567 C568 1.349 . S
C567 C569 1.327 . S
C567 H590 0.950 . S
C568 C567 1.349 . S
C568 C580 1.349 . S
C569 C567 1.327 . S
C569 C585 1.429 . S
C569 H591 0.950 . S
C570 H566 0.949 . S
C570 C578 1.574 1_565 S
C570 C586 1.368 . S
H571 C579 0.950 . S
H572 C577 0.950 . S
H573 C578 0.949 . S
H574 C580 0.950 . S
H575 C581 0.950 . S
H576 C582 0.949 . S
C577 H572 0.950 . S
C577 C579 1.327 . S
C577 C583 1.429 . S
C578 C570 1.574 1_545 S
C578 H573 0.949 . S
C578 C584 1.368 . S
C579 C563 1.349 . S
C579 H571 0.950 . S
C579 C577 1.327 . S
C580 C568 1.349 . S
C580 H574 0.950 . S
C580 C581 1.327 . S
C581 H575 0.950 . S
C581 C580 1.327 . S
C581 C585 1.429 . S
C582 C565 1.574 1_565 S
C582 H576 0.949 . S
C582 C586 1.368 . S
C583 C564 1.429 . S
C583 C577 1.429 . S
C583 C584 1.523 . S
C584 C565 1.368 . S
C584 C578 1.368 . S
C584 C583 1.523 . S
C585 C569 1.429 . S
C585 C581 1.429 . S
C585 C586 1.523 . S
C586 C570 1.368 . S
C586 C582 1.368 . S
C586 C585 1.523 . S
H587 C562 0.950 . S
H588 C564 0.950 . S
H589 C565 0.949 . S
H590 C567 0.950 . S
H591 C569 0.950 . S
C113 C7 1.269 . S
C118 C77 1.269 . S
C143 C21 1.269 . S
C148 C91 1.269 . S
C173 C35 1.269 . S
C178 C105 1.269 . S
C203 C63 1.269 . S
C208 C49 1.269 . S
C233 C8 1.651 . S
C238 C59 1.630 . S
C263 C22 1.651 . S
C268 C73 1.630 . S
C293 C87 1.630 . S
C298 C36 1.651 . S
C323 C50 1.651 . S
C328 C101 1.630 . S
C353 C64 1.651 . S
C358 C3 1.630 . S
C383 C17 1.630 . S
C388 C78 1.651 . S
C413 C92 1.651 . S
C418 C31 1.630 . S
C443 C45 1.630 . S
C448 C106 1.651 . S
C473 C37 0.429 . S
C478 C9 0.429 . S
C503 C51 0.429 . S
C508 C23 0.429 . S
C533 C65 0.429 . S
C538 C93 0.429 . S
C563 C79 0.429 . S
C568 C107 0.429 . S
