# Generated by pormake.
# Topology ukh, (4)-cn, num edge types: 1
# Building blocks:
#     Node 0, Type 0, BuildingBlock: UXUYUI_clean_sbu_0, # of connection points: 4
#     Node 1, Type 0, BuildingBlock: UXUYUI_clean_sbu_0, # of connection points: 4
#     Node 2, Type 0, BuildingBlock: UXUYUI_clean_sbu_0, # of connection points: 4
#     Node 3, Type 0, BuildingBlock: UXUYUI_clean_sbu_0, # of connection points: 4
#     Node 4, Type 0, BuildingBlock: UXUYUI_clean_sbu_0, # of connection points: 4
#     Node 5, Type 0, BuildingBlock: UXUYUI_clean_sbu_0, # of connection points: 4
#     Node 6, Type 0, BuildingBlock: UXUYUI_clean_sbu_0, # of connection points: 4
#     Node 7, Type 0, BuildingBlock: UXUYUI_clean_sbu_0, # of connection points: 4
#     Node 8, Type 0, BuildingBlock: UXUYUI_clean_sbu_0, # of connection points: 4
#     Node 9, Type 0, BuildingBlock: UXUYUI_clean_sbu_0, # of connection points: 4
#     Node 10, Type 0, BuildingBlock: UXUYUI_clean_sbu_0, # of connection points: 4
#     Node 11, Type 0, BuildingBlock: UXUYUI_clean_sbu_0, # of connection points: 4
#     Edge 12, Type (0, 0), BuildingBlock: XIVTED_clean_linker_0, # of connection points: 2
#     Edge 13, Type (0, 0), BuildingBlock: XIVTED_clean_linker_0, # of connection points: 2
#     Edge 14, Type (0, 0), BuildingBlock: XIVTED_clean_linker_0, # of connection points: 2
#     Edge 15, Type (0, 0), BuildingBlock: XIVTED_clean_linker_0, # of connection points: 2
#     Edge 16, Type (0, 0), BuildingBlock: XIVTED_clean_linker_0, # of connection points: 2
#     Edge 17, Type (0, 0), BuildingBlock: XIVTED_clean_linker_0, # of connection points: 2
#     Edge 18, Type (0, 0), BuildingBlock: XIVTED_clean_linker_0, # of connection points: 2
#     Edge 19, Type (0, 0), BuildingBlock: XIVTED_clean_linker_0, # of connection points: 2
#     Edge 20, Type (0, 0), BuildingBlock: XIVTED_clean_linker_0, # of connection points: 2
#     Edge 21, Type (0, 0), BuildingBlock: XIVTED_clean_linker_0, # of connection points: 2
#     Edge 22, Type (0, 0), BuildingBlock: XIVTED_clean_linker_0, # of connection points: 2
#     Edge 23, Type (0, 0), BuildingBlock: XIVTED_clean_linker_0, # of connection points: 2
#     Edge 24, Type (0, 0), BuildingBlock: XIVTED_clean_linker_0, # of connection points: 2
#     Edge 25, Type (0, 0), BuildingBlock: XIVTED_clean_linker_0, # of connection points: 2
#     Edge 26, Type (0, 0), BuildingBlock: XIVTED_clean_linker_0, # of connection points: 2
#     Edge 27, Type (0, 0), BuildingBlock: XIVTED_clean_linker_0, # of connection points: 2
#     Edge 28, Type (0, 0), BuildingBlock: XIVTED_clean_linker_0, # of connection points: 2
#     Edge 29, Type (0, 0), BuildingBlock: XIVTED_clean_linker_0, # of connection points: 2
#     Edge 30, Type (0, 0), BuildingBlock: XIVTED_clean_linker_0, # of connection points: 2
#     Edge 31, Type (0, 0), BuildingBlock: XIVTED_clean_linker_0, # of connection points: 2
#     Edge 32, Type (0, 0), BuildingBlock: XIVTED_clean_linker_0, # of connection points: 2
#     Edge 33, Type (0, 0), BuildingBlock: XIVTED_clean_linker_0, # of connection points: 2
#     Edge 34, Type (0, 0), BuildingBlock: XIVTED_clean_linker_0, # of connection points: 2
#     Edge 35, Type (0, 0), BuildingBlock: XIVTED_clean_linker_0, # of connection points: 2
# Relax obj value: 0.278
# Max RMSD: 0.251
# Mean RMSD: 0.251
data_MOF--net-ukh--node1-UXUYUI_clean_sbu_0--edge1-XIVTED_clean_linker_0
_symmetry_space_group_name_H-M    P1
_symmetry_Int_Tables_number       1
_symmetry_cell_setting            triclinic
loop_
_symmetry_equiv_pos_as_xyz
'x, y, z'
_cell_length_a     46.089251
_cell_length_b     46.082828
_cell_length_c     89.451909
_cell_angle_alpha  90.00588
_cell_angle_beta   90.005732
_cell_angle_gamma 119.97305
loop_
_atom_site_label
_atom_site_type_symbol
_atom_site_fract_x
_atom_site_fract_y
_atom_site_fract_z
_atom_type_partial_charge
Li0 Li 0.36633 0.26475 0.03943 0.0
Li1 Li 0.34119 0.22552 0.06051 0.0
Li2 Li 0.34715 0.20669 0.03681 0.0
Li3 Li 0.3069 0.22394 0.03958 0.0
C4 C 0.40915 0.23413 0.045 0.0
N5 N 0.45843 0.22216 0.0343 0.0
C6 C 0.41772 0.21338 0.05294 0.0
C7 C 0.4257 0.24889 0.03165 0.0
C8 C 0.44268 0.2076 0.04733 0.0
C9 C 0.45054 0.24252 0.02642 0.0
C10 C 0.34473 0.28896 0.06263 0.0
C11 C 0.34229 0.33589 0.07314 0.0
N12 N 0.37213 0.34608 0.08007 0.0
C13 C 0.37539 0.29992 0.06984 0.0
C14 C 0.32805 0.30709 0.06425 0.0
C15 C 0.38881 0.32884 0.07861 0.0
C16 C 0.38379 0.32446 0.02513 0.0
N17 N 0.3963 0.30953 0.03408 0.0
C18 C 0.44707 0.36134 0.03757 0.0
C19 C 0.42743 0.32696 0.04014 0.0
C20 C 0.43436 0.37775 0.02877 0.0
C21 C 0.40253 0.35873 0.02227 0.0
H22 H 0.35875 0.30985 0.02063 0.0
H23 H 0.43642 0.31443 0.04743 0.0
C24 C 0.34844 0.19325 0.08505 0.0
N25 N 0.3412 0.21751 0.08135 0.0
C26 C 0.3484 0.18451 0.09998 0.0
C27 C 0.3327 0.22543 0.10704 0.0
C28 C 0.33282 0.2332 0.09194 0.0
C29 C 0.34068 0.20083 0.11124 0.0
H30 H 0.3537 0.18028 0.07634 0.0
H31 H 0.32588 0.2515 0.08873 0.0
C32 C 0.32244 0.21826 0.01034 0.0
N33 N 0.28851 0.18375 0.98497 0.0
C34 C 0.29842 0.18423 0.0112 0.0
C35 C 0.32915 0.23472 0.99658 0.0
C36 C 0.28156 0.16723 0.99825 0.0
C37 C 0.31174 0.21685 0.98388 0.0
C38 C 0.27898 0.16929 0.0584 0.0
C39 C 0.26204 0.13435 0.0593 0.0
C40 C 0.26712 0.18726 0.06645 0.0
C41 C 0.2335 0.11794 0.06827 0.0
C42 C 0.23851 0.16993 0.0753 0.0
N43 N 0.22243 0.13592 0.07602 0.0
C44 C 0.34384 0.14508 0.03555 0.0
C45 C 0.36785 0.17775 0.01377 0.0
C46 C 0.34352 0.11756 0.02894 0.0
N47 N 0.35487 0.17397 0.02775 0.0
C48 C 0.36813 0.15085 0.00672 0.0
C49 C 0.35473 0.11986 0.01414 0.0
H50 H 0.3338 0.14296 0.04668 0.0
H51 H 0.37661 0.20116 0.00787 0.0
C52 C 0.26439 0.24728 0.031 0.0
N53 N 0.26507 0.21855 0.03345 0.0
C54 C 0.23511 0.24603 0.02604 0.0
C55 C 0.20774 0.18554 0.0261 0.0
C56 C 0.23759 0.18798 0.0311 0.0
C57 C 0.20626 0.21486 0.0235 0.0
H58 H 0.28683 0.27121 0.03275 0.0
H59 H 0.23889 0.16548 0.033 0.0
O60 O 0.38423 0.2395 0.05009 0.0
O61 O 0.33144 0.2612 0.05366 0.0
O62 O 0.33945 0.23562 0.02282 0.0
O63 O 0.30701 0.18548 0.04965 0.0
H64 H 0.40521 0.20177 0.06329 0.0
H65 H 0.41908 0.26467 0.02526 0.0
H66 H 0.44951 0.19151 0.05333 0.0
H67 H 0.46343 0.25362 0.01606 0.0
H68 H 0.32965 0.35016 0.0745 0.0
H69 H 0.38871 0.28626 0.0687 0.0
H70 H 0.30436 0.29902 0.0587 0.0
H71 H 0.41252 0.3376 0.08425 0.0
H72 H 0.47127 0.37514 0.04297 0.0
H73 H 0.39196 0.37031 0.01528 0.0
H74 H 0.35379 0.16475 0.10262 0.0
H75 H 0.32664 0.23873 0.11531 0.0
H76 H 0.29288 0.17096 0.02171 0.0
H77 H 0.34766 0.26106 0.99573 0.0
H78 H 0.26297 0.1409 0.99876 0.0
H79 H 0.3167 0.22928 0.97316 0.0
H80 H 0.27084 0.12005 0.05312 0.0
H81 H 0.2797 0.21426 0.06591 0.0
H82 H 0.22015 0.0909 0.06907 0.0
H83 H 0.22908 0.18353 0.08159 0.0
H84 H 0.33254 0.09416 0.03504 0.0
H85 H 0.37743 0.15388 0.99538 0.0
H86 H 0.23529 0.26926 0.02393 0.0
H87 H 0.18603 0.16101 0.02438 0.0
Li88 Li 0.09856 0.36015 0.37454 0.0
Li89 Li 0.10978 0.33445 0.39468 0.0
Li90 Li 0.13767 0.34145 0.37131 0.0
Li91 Li 0.07648 0.30098 0.3731 0.0
C92 C 0.1651 0.40731 0.37942 0.0
N93 N 0.21253 0.46882 0.36817 0.0
C94 C 0.18803 0.43212 0.38901 0.0
C95 C 0.16634 0.41377 0.36409 0.0
C96 C 0.2118 0.46306 0.38311 0.0
C97 C 0.19049 0.44503 0.35862 0.0
C98 C 0.0465 0.33876 0.39255 0.0
C99 C 0.99832 0.34569 0.38944 0.0
N100 N 0.01008 0.3692 0.40045 0.0
C101 C 0.05801 0.36284 0.40389 0.0
C102 C 0.01631 0.32993 0.38532 0.0
C103 C 0.03925 0.37796 0.40772 0.0
C104 C 0.06371 0.38574 0.35869 0.0
N105 N 0.08659 0.3929 0.36972 0.0
C106 C 0.08289 0.44063 0.37718 0.0
C107 C 0.09707 0.42022 0.37863 0.0
C108 C 0.05776 0.43279 0.36646 0.0
C109 C 0.04893 0.40557 0.35681 0.0
H110 H 0.05552 0.36348 0.35196 0.0
H111 H 0.11493 0.42498 0.38746 0.0
C112 C 0.14946 0.34703 0.41982 0.0
N113 N 0.11708 0.33404 0.41549 0.0
C114 C 0.15725 0.34629 0.43481 0.0
C115 C 0.09816 0.31919 0.44065 0.0
C116 C 0.0915 0.3203 0.42549 0.0
C117 C 0.13144 0.33224 0.44548 0.0
H118 H 0.16918 0.35744 0.41153 0.0
H119 H 0.06594 0.30988 0.42166 0.0
C120 C 0.1017 0.31913 0.34439 0.0
N121 N 0.10262 0.28676 0.31853 0.0
C122 C 0.1054 0.29082 0.34517 0.0
C123 C 0.09836 0.33087 0.33046 0.0
C124 C 0.10582 0.27484 0.33197 0.0
C125 C 0.09895 0.3142 0.31751 0.0
C126 C 0.1138 0.2798 0.39454 0.0
C127 C 0.143 0.27973 0.3987 0.0
C128 C 0.08416 0.26021 0.40249 0.0
C129 C 0.14209 0.2602 0.41083 0.0
C130 C 0.08428 0.24102 0.41455 0.0
N131 N 0.11301 0.24144 0.41844 0.0
C132 C 0.20202 0.35377 0.37471 0.0
C133 C 0.1868 0.3483 0.34915 0.0
C134 C 0.23172 0.35426 0.37119 0.0
N135 N 0.17967 0.34939 0.36382 0.0
C136 C 0.21609 0.34832 0.34511 0.0
C137 C 0.23841 0.35002 0.35628 0.0
H138 H 0.196 0.35539 0.38626 0.0
H139 H 0.16927 0.34597 0.34059 0.0
C140 C 0.01708 0.26171 0.3574 0.0
N141 N 0.04059 0.25992 0.36588 0.0
C142 C 0.99064 0.23274 0.35123 0.0
C143 C 0.01331 0.2006 0.3625 0.0
C144 C 0.03944 0.23026 0.36838 0.0
C145 C 0.98848 0.20164 0.35379 0.0
H146 H 0.01914 0.28579 0.35531 0.0
H147 H 0.05906 0.22963 0.37472 0.0
O148 O 0.14184 0.37692 0.38515 0.0
O149 O 0.06504 0.32442 0.38835 0.0
O150 O 0.10064 0.3351 0.3571 0.0
O151 O 0.11435 0.29954 0.38299 0.0
H152 H 0.18742 0.42747 0.4009 0.0
H153 H 0.14893 0.39498 0.35645 0.0
H154 H 0.22968 0.4825 0.39042 0.0
H155 H 0.19173 0.45036 0.34679 0.0
H156 H 0.97506 0.3393 0.38386 0.0
H157 H 0.08153 0.3703 0.40947 0.0
H158 H 0.00703 0.31136 0.37652 0.0
H159 H 0.04802 0.39686 0.41638 0.0
H160 H 0.09063 0.46162 0.38472 0.0
H161 H 0.02944 0.39849 0.34851 0.0
H162 H 0.18318 0.35605 0.43794 0.0
H163 H 0.07751 0.30842 0.44849 0.0
H164 H 0.10812 0.28133 0.3558 0.0
H165 H 0.09533 0.35265 0.32967 0.0
H166 H 0.10872 0.25297 0.33242 0.0
H167 H 0.09643 0.32305 0.30666 0.0
H168 H 0.16612 0.2946 0.39266 0.0
H169 H 0.06143 0.26029 0.39952 0.0
H170 H 0.16452 0.25999 0.41421 0.0
H171 H 0.06158 0.22594 0.42086 0.0
H172 H 0.24857 0.35658 0.38014 0.0
H173 H 0.22009 0.34501 0.33346 0.0
H174 H 0.97195 0.23463 0.34463 0.0
H175 H 0.01292 0.17723 0.36449 0.0
Li176 Li 0.76986 0.11041 0.73222 0.0
Li177 Li 0.73582 0.10109 0.71104 0.0
Li178 Li 0.76936 0.07346 0.71133 0.0
Li179 Li 0.7942 0.13513 0.70798 0.0
C180 C 0.70001 0.04833 0.72858 0.0
N181 N 0.63186 0.01265 0.73387 0.0
C182 C 0.68637 0.05678 0.74063 0.0
C183 C 0.67905 0.02156 0.7193 0.0
C184 C 0.65184 0.03843 0.74312 0.0
C185 C 0.64463 0.00392 0.72212 0.0
C186 C 0.74753 0.16055 0.72141 0.0
C187 C 0.72188 0.18846 0.70896 0.0
N188 N 0.71025 0.19239 0.72235 0.0
C189 C 0.7355 0.165 0.73506 0.0
C190 C 0.74088 0.17254 0.70826 0.0
C191 C 0.71664 0.18112 0.73529 0.0
C192 C 0.79745 0.15134 0.75703 0.0
N193 N 0.77695 0.1189 0.75301 0.0
C194 C 0.77216 0.10111 0.77841 0.0
C195 C 0.76417 0.09383 0.76329 0.0
C196 C 0.7939 0.13436 0.78282 0.0
C197 C 0.80647 0.15966 0.77194 0.0
H198 H 0.80736 0.17065 0.74855 0.0
H199 H 0.74836 0.06818 0.75971 0.0
C200 C 0.68144 0.07647 0.69116 0.0
N201 N 0.69242 0.09193 0.70461 0.0
C202 C 0.64819 0.06408 0.68683 0.0
C203 C 0.63851 0.08492 0.70998 0.0
C204 C 0.6718 0.09664 0.71391 0.0
C205 C 0.62614 0.06777 0.69642 0.0
H206 H 0.69814 0.07246 0.68409 0.0
H207 H 0.68058 0.10785 0.72476 0.0
C208 C 0.8299 0.11657 0.73309 0.0
N209 N 0.87119 0.1293 0.75755 0.0
C210 C 0.85597 0.14909 0.73592 0.0
C211 C 0.8248 0.09054 0.74272 0.0
C212 C 0.8766 0.155 0.74833 0.0
C213 C 0.84595 0.09749 0.75502 0.0
C214 C 0.77805 0.10954 0.68134 0.0
C215 C 0.80156 0.10104 0.67634 0.0
C216 C 0.77138 0.13091 0.67278 0.0
C217 C 0.81828 0.11434 0.66286 0.0
C218 C 0.78863 0.1437 0.65937 0.0
N219 N 0.81154 0.13524 0.65473 0.0
C220 C 0.74956 0.01512 0.69491 0.0
C221 C 0.79853 0.03174 0.70934 0.0
C222 C 0.75199 0.98859 0.68876 0.0
N223 N 0.77261 0.03595 0.705 0.0
C224 C 0.80186 0.00542 0.70352 0.0
C225 C 0.77854 0.9836 0.69298 0.0
H226 H 0.72972 0.01963 0.69138 0.0
H227 H 0.81715 0.04931 0.71699 0.0
C228 C 0.8329 0.20182 0.69602 0.0
N229 N 0.83148 0.17219 0.699 0.0
C230 C 0.86288 0.22929 0.69107 0.0
C231 C 0.88879 0.19484 0.69225 0.0
C232 C 0.85839 0.16807 0.69691 0.0
C233 C 0.8914 0.22601 0.68955 0.0
H234 H 0.81119 0.20446 0.69791 0.0
H235 H 0.85647 0.14421 0.6994 0.0
O236 O 0.73366 0.0664 0.7258 0.0
O237 O 0.7662 0.14502 0.721 0.0
O238 O 0.80872 0.11045 0.72128 0.0
O239 O 0.76208 0.09753 0.69469 0.0
H240 H 0.70216 0.07768 0.74782 0.0
H241 H 0.68918 0.01474 0.70991 0.0
H242 H 0.6409 0.04484 0.75233 0.0
H243 H 0.62807 0.98335 0.71494 0.0
H244 H 0.71634 0.19767 0.69886 0.0
H245 H 0.7404 0.15585 0.74535 0.0
H246 H 0.74997 0.16925 0.69762 0.0
H247 H 0.70702 0.1846 0.74576 0.0
H248 H 0.76222 0.08093 0.7865 0.0
H249 H 0.82306 0.18562 0.77494 0.0
H250 H 0.63965 0.0511 0.67625 0.0
H251 H 0.6222 0.08768 0.71786 0.0
H252 H 0.85992 0.16967 0.72877 0.0
H253 H 0.80428 0.06536 0.74088 0.0
H254 H 0.89677 0.18007 0.7507 0.0
H255 H 0.84214 0.07762 0.76262 0.0
H256 H 0.80718 0.08471 0.68288 0.0
H257 H 0.75314 0.1376 0.67649 0.0
H258 H 0.83669 0.10815 0.65888 0.0
H259 H 0.78383 0.16037 0.65265 0.0
H260 H 0.73335 0.97226 0.68074 0.0
H261 H 0.82303 0.00282 0.70687 0.0
H262 H 0.86415 0.25308 0.68906 0.0
H263 H 0.91026 0.19138 0.69101 0.0
Li264 Li 0.6637 0.78225 0.06051 0.0
Li265 Li 0.63337 0.74169 0.04072 0.0
Li266 Li 0.69448 0.78343 0.03854 0.0
Li267 Li 0.65261 0.80123 0.03611 0.0
C268 C 0.67465 0.73224 0.0659 0.0
N269 N 0.6808 0.70497 0.0924 0.0
C270 C 0.64842 0.70158 0.07093 0.0
C271 C 0.70415 0.74884 0.07426 0.0
C272 C 0.65199 0.68824 0.08437 0.0
C273 C 0.70672 0.73471 0.08766 0.0
C274 C 0.58643 0.75974 0.05145 0.0
C275 C 0.53618 0.7506 0.03893 0.0
N276 N 0.5185 0.73734 0.05172 0.0
C277 C 0.56784 0.74645 0.06453 0.0
C278 C 0.57057 0.76221 0.03859 0.0
C279 C 0.53349 0.73508 0.06441 0.0
C280 C 0.68797 0.82105 0.08663 0.0
N281 N 0.66574 0.79001 0.08145 0.0
C282 C 0.64473 0.77148 0.10611 0.0
C283 C 0.64424 0.76537 0.0908 0.0
C284 C 0.66724 0.80342 0.11177 0.0
C285 C 0.68917 0.82834 0.10183 0.0
H286 H 0.70446 0.84033 0.07893 0.0
H287 H 0.62639 0.74109 0.08635 0.0
C288 C 0.61028 0.68229 0.02514 0.0
N289 N 0.6015 0.6966 0.03621 0.0
C290 C 0.59046 0.64822 0.02204 0.0
C291 C 0.55259 0.64428 0.04167 0.0
C292 C 0.57317 0.67849 0.04438 0.0
C293 C 0.56148 0.62863 0.03053 0.0
H294 H 0.63324 0.69725 0.01898 0.0
H295 H 0.56727 0.69017 0.05342 0.0
C296 C 0.72646 0.84715 0.04646 0.0
N297 N 0.79189 0.89751 0.04216 0.0
C298 C 0.73396 0.87189 0.03569 0.0
C299 C 0.75219 0.84823 0.05515 0.0
C300 C 0.76721 0.89711 0.03367 0.0
C301 C 0.78512 0.87381 0.05276 0.0
C302 C 0.64744 0.76657 0.00888 0.0
C303 C 0.67021 0.78063 0.99709 0.0
C304 C 0.61312 0.74864 0.00585 0.0
C305 C 0.6582 0.77716 0.98248 0.0
C306 C 0.60209 0.74568 0.99108 0.0
N307 N 0.62467 0.75993 0.9798 0.0
C308 C 0.7461 0.76817 0.03608 0.0
C309 C 0.7528 0.8122 0.02017 0.0
C310 C 0.77495 0.76979 0.03027 0.0
N311 N 0.7356 0.78913 0.03096 0.0
C312 C 0.78186 0.81473 0.01404 0.0
C313 C 0.79315 0.79313 0.01901 0.0
H314 H 0.73164 0.74962 0.04446 0.0
H315 H 0.74371 0.82834 0.01617 0.0
C316 C 0.63182 0.84811 0.03752 0.0
N317 N 0.64339 0.83359 0.02778 0.0
C318 C 0.6302 0.8764 0.0333 0.0
C319 C 0.65085 0.87323 0.00886 0.0
C320 C 0.65209 0.845 0.01356 0.0
C321 C 0.64087 0.88997 0.01895 0.0
H322 H 0.62548 0.83868 0.04882 0.0
H323 H 0.66209 0.83367 0.00617 0.0
O324 O 0.67146 0.74592 0.05286 0.0
O325 O 0.62014 0.77116 0.05142 0.0
O326 O 0.6941 0.82206 0.04851 0.0
O327 O 0.65888 0.76961 0.02325 0.0
H328 H 0.62549 0.68831 0.06458 0.0
H329 H 0.72475 0.77246 0.07049 0.0
H330 H 0.63182 0.66462 0.08844 0.0
H331 H 0.72933 0.7474 0.09429 0.0
H332 H 0.52359 0.75227 0.02904 0.0
H333 H 0.57975 0.74471 0.07463 0.0
H334 H 0.58465 0.77331 0.0285 0.0
H335 H 0.51876 0.7245 0.07443 0.0
H336 H 0.62709 0.7517 0.11337 0.0
H337 H 0.70706 0.85322 0.10576 0.0
H338 H 0.59807 0.63724 0.01326 0.0
H339 H 0.5308 0.63001 0.04866 0.0
H340 H 0.7144 0.87158 0.02892 0.0
H341 H 0.7468 0.82941 0.06358 0.0
H342 H 0.77339 0.91633 0.02533 0.0
H343 H 0.8053 0.87483 0.05935 0.0
H344 H 0.69686 0.79426 0.9992 0.0
H345 H 0.59515 0.73674 0.01474 0.0
H346 H 0.67554 0.78812 0.97326 0.0
H347 H 0.57558 0.73193 0.98859 0.0
H348 H 0.78231 0.75221 0.03425 0.0
H349 H 0.79524 0.8333 0.00548 0.0
H350 H 0.62215 0.88841 0.04139 0.0
H351 H 0.65991 0.88318 0.99779 0.0
Li352 Li 0.89586 0.63482 0.37397 0.0
Li353 Li 0.88791 0.66752 0.39445 0.0
Li354 Li 0.85825 0.65705 0.37132 0.0
Li355 Li 0.91666 0.69685 0.37216 0.0
C356 C 0.82257 0.60061 0.38574 0.0
N357 N 0.75447 0.55654 0.38455 0.0
C358 C 0.80109 0.60422 0.39561 0.0
C359 C 0.80954 0.57451 0.37533 0.0
C360 C 0.76669 0.5817 0.3948 0.0
C361 C 0.77499 0.55249 0.3749 0.0
C362 C 0.94694 0.67406 0.39921 0.0
C363 C 0.97676 0.70338 0.42146 0.0
N364 N 0.97824 0.67588 0.42583 0.0
C365 C 0.94891 0.64616 0.40388 0.0
C366 C 0.96114 0.70299 0.40802 0.0
C367 C 0.9648 0.64756 0.41738 0.0
C368 C 0.93309 0.61008 0.36013 0.0
N369 N 0.90709 0.60162 0.36964 0.0
C370 C 0.90397 0.54952 0.37526 0.0
C371 C 0.89204 0.57185 0.37699 0.0
C372 C 0.93161 0.55807 0.3659 0.0
C373 C 0.94572 0.58848 0.35802 0.0
H374 H 0.94476 0.63421 0.35462 0.0
H375 H 0.87167 0.56607 0.38463 0.0
C376 C 0.87963 0.69455 0.4213 0.0
N377 N 0.88349 0.66948 0.41546 0.0
C378 C 0.87444 0.6956 0.4366 0.0
C379 C 0.87705 0.64481 0.4396 0.0
C380 C 0.88215 0.64474 0.42421 0.0
C381 C 0.87291 0.6704 0.44597 0.0
H382 H 0.87977 0.71333 0.41403 0.0
H383 H 0.88464 0.62473 0.4192 0.0
C384 C 0.8776 0.65192 0.34337 0.0
N385 N 0.84659 0.63371 0.31579 0.0
C386 C 0.87031 0.67376 0.33554 0.0
C387 C 0.86925 0.62087 0.33715 0.0
C388 C 0.85454 0.66405 0.32163 0.0
C389 C 0.85358 0.61213 0.32319 0.0
C390 C 0.89027 0.73216 0.38047 0.0
C391 C 0.87592 0.74145 0.369 0.0
C392 C 0.91551 0.75693 0.38931 0.0
C393 C 0.88705 0.77537 0.36659 0.0
C394 C 0.92602 0.79058 0.38652 0.0
N395 N 0.91168 0.79903 0.37531 0.0
C396 C 0.80193 0.66371 0.3719 0.0
C397 C 0.79806 0.62681 0.35259 0.0
C398 C 0.77189 0.66134 0.36744 0.0
N399 N 0.8151 0.64768 0.36414 0.0
C400 C 0.76789 0.62382 0.34766 0.0
C401 C 0.75487 0.6419 0.35492 0.0
H402 H 0.81527 0.67915 0.3814 0.0
H403 H 0.80795 0.6128 0.34706 0.0
C404 C 0.98413 0.74799 0.37037 0.0
N405 N 0.95325 0.73735 0.36448 0.0
C406 C 0.01186 0.77715 0.36508 0.0
C407 C 0.97556 0.78396 0.34771 0.0
C408 C 0.9486 0.75448 0.35325 0.0
C409 C 0.00781 0.79566 0.3536 0.0
H410 H 0.98737 0.73361 0.37907 0.0
H411 H 0.92396 0.74539 0.3486 0.0
O412 O 0.85617 0.62291 0.38609 0.0
O413 O 0.93093 0.67298 0.38616 0.0
O414 O 0.89337 0.66106 0.35692 0.0
O415 O 0.87996 0.69907 0.38293 0.0
H416 H 0.81088 0.62443 0.40369 0.0
H417 H 0.82589 0.57159 0.36755 0.0
H418 H 0.74971 0.58428 0.4023 0.0
H419 H 0.76448 0.53228 0.36684 0.0
H420 H 0.98765 0.72552 0.42843 0.0
H421 H 0.93813 0.62358 0.39722 0.0
H422 H 0.95984 0.7248 0.40458 0.0
H423 H 0.96638 0.62609 0.42116 0.0
H424 H 0.89223 0.52621 0.38145 0.0
H425 H 0.96733 0.59626 0.35087 0.0
H426 H 0.87065 0.71538 0.44096 0.0
H427 H 0.87625 0.625 0.44641 0.0
H428 H 0.87622 0.69768 0.34026 0.0
H429 H 0.87466 0.60364 0.34305 0.0
H430 H 0.84853 0.6806 0.3155 0.0
H431 H 0.8469 0.58816 0.31825 0.0
H432 H 0.85678 0.72277 0.36185 0.0
H433 H 0.92711 0.75029 0.39815 0.0
H434 H 0.87626 0.78289 0.35771 0.0
H435 H 0.94563 0.80999 0.39323 0.0
H436 H 0.76301 0.6759 0.37335 0.0
H437 H 0.75519 0.60798 0.33815 0.0
H438 H 0.03628 0.7847 0.36976 0.0
H439 H 0.97108 0.79751 0.33897 0.0
Li440 Li 0.26281 0.89572 0.70233 0.0
Li441 Li 0.22603 0.88196 0.72369 0.0
Li442 Li 0.20291 0.85393 0.70011 0.0
Li443 Li 0.22183 0.9124 0.70326 0.0
C444 C 0.24459 0.82836 0.70715 0.0
N445 N 0.25922 0.78142 0.69574 0.0
C446 C 0.2486 0.80673 0.71676 0.0
C447 C 0.2479 0.82606 0.69172 0.0
C448 C 0.25603 0.78319 0.71078 0.0
C449 C 0.25533 0.80217 0.68618 0.0
C450 C 0.28784 0.93982 0.72587 0.0
C451 C 0.33393 0.98693 0.7381 0.0
N452 N 0.34395 0.96609 0.74393 0.0
C453 C 0.29861 0.91886 0.73197 0.0
C454 C 0.30565 0.97412 0.72893 0.0
C455 C 0.32702 0.93263 0.74108 0.0
C456 C 0.32283 0.94191 0.68986 0.0
N457 N 0.30777 0.91125 0.69644 0.0
C458 C 0.35975 0.9116 0.69735 0.0
C459 C 0.32535 0.89581 0.70014 0.0
C460 C 0.37614 0.94369 0.69087 0.0
C461 C 0.35707 0.95854 0.68685 0.0
H462 H 0.30843 0.95406 0.68754 0.0
H463 H 0.31315 0.87202 0.70588 0.0
C464 C 0.19778 0.84115 0.74815 0.0
N465 N 0.21946 0.87357 0.74452 0.0
C466 C 0.18884 0.832 0.76302 0.0
C467 C 0.22534 0.88974 0.77021 0.0
C468 C 0.23315 0.89789 0.75514 0.0
C469 C 0.20267 0.85648 0.77423 0.0
H470 H 0.18701 0.82249 0.73941 0.0
H471 H 0.24957 0.92367 0.75195 0.0
C472 C 0.22195 0.90335 0.67453 0.0
N473 N 0.20295 0.93097 0.65179 0.0
C474 C 0.18814 0.89318 0.67238 0.0
C475 C 0.24606 0.92738 0.66504 0.0
C476 C 0.17904 0.90747 0.66084 0.0
C477 C 0.23596 0.9411 0.65363 0.0
C478 C 0.16763 0.88482 0.72279 0.0
C479 C 0.133 0.86485 0.72457 0.0
C480 C 0.1849 0.91517 0.73053 0.0
C481 C 0.11615 0.87562 0.73403 0.0
C482 C 0.16715 0.92505 0.73989 0.0
N483 N 0.13343 0.90524 0.74144 0.0
C484 C 0.15329 0.78789 0.70293 0.0
C485 C 0.16089 0.80698 0.67787 0.0
C486 C 0.12518 0.75767 0.69893 0.0
N487 N 0.16981 0.81208 0.69252 0.0
C488 C 0.13254 0.77732 0.6734 0.0
C489 C 0.11358 0.75258 0.68409 0.0
H490 H 0.16126 0.79265 0.71448 0.0
H491 H 0.17482 0.82647 0.66977 0.0
C492 C 0.24398 0.9782 0.69511 0.0
N493 N 0.21545 0.94869 0.69765 0.0
C494 C 0.24236 0.00622 0.69046 0.0
C495 C 0.18191 0.97299 0.69114 0.0
C496 C 0.18471 0.94555 0.69581 0.0
C497 C 0.21102 0.00385 0.6884 0.0
H498 H 0.26804 0.97978 0.69651 0.0
H499 H 0.16239 0.92167 0.69778 0.0
O500 O 0.23712 0.85134 0.71292 0.0
O501 O 0.26048 0.92723 0.71667 0.0
O502 O 0.23135 0.89013 0.68598 0.0
O503 O 0.18435 0.87431 0.71364 0.0
H504 H 0.24601 0.80816 0.72873 0.0
H505 H 0.24483 0.84249 0.68408 0.0
H506 H 0.25925 0.76631 0.71809 0.0
H507 H 0.258 0.80013 0.67427 0.0
H508 H 0.34796 0.01345 0.74057 0.0
H509 H 0.28527 0.89227 0.72974 0.0
H510 H 0.29771 0.99069 0.72424 0.0
H511 H 0.33563 0.91671 0.74587 0.0
H512 H 0.3736 0.89953 0.70091 0.0
H513 H 0.36861 0.98315 0.68178 0.0
H514 H 0.17138 0.80607 0.76573 0.0
H515 H 0.23616 0.90932 0.77858 0.0
H516 H 0.16918 0.87494 0.67975 0.0
H517 H 0.27229 0.93533 0.66643 0.0
H518 H 0.153 0.90004 0.65914 0.0
H519 H 0.25437 0.95981 0.64623 0.0
H520 H 0.11931 0.84123 0.71869 0.0
H521 H 0.21169 0.93098 0.72934 0.0
H522 H 0.08934 0.86041 0.73551 0.0
H523 H 0.18019 0.94847 0.74594 0.0
H524 H 0.11197 0.73908 0.70751 0.0
H525 H 0.12459 0.7748 0.66185 0.0
H526 H 0.26542 0.02932 0.68823 0.0
H527 H 0.15727 0.97013 0.68977 0.0
Li528 Li 0.78287 0.69463 0.62613 0.0
Li529 Li 0.7986 0.65148 0.62978 0.0
Li530 Li 0.78429 0.66396 0.60453 0.0
Li531 Li 0.74032 0.63374 0.62299 0.0
C532 C 0.84797 0.72547 0.61975 0.0
N533 N 0.89936 0.79047 0.62405 0.0
C534 C 0.8719 0.73265 0.63089 0.0
C535 C 0.85048 0.75129 0.61066 0.0
C536 C 0.89763 0.76568 0.63292 0.0
C537 C 0.87653 0.784 0.61305 0.0
C538 C 0.76095 0.64751 0.65573 0.0
C539 C 0.73771 0.60305 0.67399 0.0
N540 N 0.75137 0.62614 0.68512 0.0
C541 C 0.77434 0.67081 0.66736 0.0
C542 C 0.74214 0.61337 0.65907 0.0
C543 C 0.7694 0.6595 0.68214 0.0
C544 C 0.76772 0.74642 0.62822 0.0
N545 N 0.78855 0.73589 0.63351 0.0
C546 C 0.81391 0.78228 0.65038 0.0
C547 C 0.8114 0.75313 0.64437 0.0
C548 C 0.79247 0.7936 0.64524 0.0
C549 C 0.76931 0.77536 0.63391 0.0
H550 H 0.74929 0.73188 0.61981 0.0
H551 H 0.82733 0.74396 0.64856 0.0
C552 C 0.84144 0.62499 0.63199 0.0
N553 N 0.82846 0.64105 0.63989 0.0
C554 C 0.86791 0.62198 0.63782 0.0
C555 C 0.86628 0.65103 0.66002 0.0
C556 C 0.83977 0.65333 0.65379 0.0
C557 C 0.88141 0.63609 0.65182 0.0
H558 H 0.83229 0.61593 0.62084 0.0
H559 H 0.82992 0.66702 0.65962 0.0
C560 C 0.73693 0.67796 0.59716 0.0
N561 N 0.7156 0.68819 0.56981 0.0
C562 C 0.70741 0.65271 0.59074 0.0
C563 C 0.75533 0.70859 0.58977 0.0
C564 C 0.6971 0.65832 0.57688 0.0
C565 C 0.74423 0.71323 0.57592 0.0
C566 C 0.75759 0.58575 0.61387 0.0
C567 C 0.74577 0.56739 0.60063 0.0
C568 C 0.75679 0.56928 0.62711 0.0
C569 C 0.73257 0.53272 0.60094 0.0
C570 C 0.74344 0.53459 0.62697 0.0
N571 N 0.73165 0.51717 0.614 0.0
C572 C 0.82653 0.68837 0.5793 0.0
C573 C 0.7713 0.64478 0.57414 0.0
C574 C 0.83546 0.68951 0.56431 0.0
N575 N 0.79492 0.66626 0.58389 0.0
C576 C 0.77911 0.64509 0.55905 0.0
C577 C 0.81164 0.66754 0.55397 0.0
H578 H 0.84501 0.7047 0.58732 0.0
H579 H 0.74646 0.62719 0.57812 0.0
C580 C 0.67863 0.60844 0.63727 0.0
N581 N 0.69435 0.6022 0.62592 0.0
C582 C 0.64408 0.5886 0.63912 0.0
C583 C 0.64249 0.55626 0.61753 0.0
C584 C 0.67715 0.57655 0.61619 0.0
C585 C 0.62551 0.56251 0.629 0.0
H586 H 0.69282 0.62956 0.64461 0.0
H587 H 0.69003 0.57275 0.60699 0.0
O588 O 0.8224 0.69331 0.61769 0.0
O589 O 0.76543 0.65824 0.6412 0.0
O590 O 0.74767 0.67278 0.61064 0.0
O591 O 0.77071 0.61975 0.61372 0.0
H592 H 0.87062 0.71302 0.63793 0.0
H593 H 0.83247 0.74616 0.60188 0.0
H594 H 0.91621 0.7716 0.64155 0.0
H595 H 0.87863 0.80424 0.60616 0.0
H596 H 0.72326 0.5767 0.67672 0.0
H597 H 0.7886 0.69734 0.66502 0.0
H598 H 0.73062 0.59502 0.65028 0.0
H599 H 0.77986 0.67727 0.69124 0.0
H600 H 0.83232 0.79568 0.659 0.0
H601 H 0.75184 0.78274 0.6298 0.0
H602 H 0.8786 0.61002 0.63116 0.0
H603 H 0.87626 0.66299 0.67069 0.0
H604 H 0.69271 0.62896 0.59633 0.0
H605 H 0.77795 0.72857 0.59466 0.0
H606 H 0.67442 0.6389 0.57174 0.0
H607 H 0.75835 0.73674 0.57004 0.0
H608 H 0.74657 0.57972 0.59023 0.0
H609 H 0.76675 0.58313 0.63736 0.0
H610 H 0.7231 0.51819 0.5908 0.0
H611 H 0.74261 0.52155 0.63716 0.0
H612 H 0.86097 0.70682 0.56095 0.0
H613 H 0.75985 0.62796 0.55146 0.0
H614 H 0.63185 0.59458 0.64796 0.0
H615 H 0.62903 0.53634 0.60951 0.0
Li616 Li 0.13377 0.79538 0.95577 0.0
Li617 Li 0.072 0.76935 0.95237 0.0
Li618 Li 0.10055 0.73669 0.9533 0.0
Li619 Li 0.10936 0.76958 0.93174 0.0
C620 C 0.10859 0.78014 0.98246 0.0
N621 N 0.13449 0.815 0.00876 0.0
C622 C 0.09981 0.80362 0.98721 0.0
C623 C 0.13034 0.7742 0.9911 0.0
C624 C 0.11323 0.82103 0.00054 0.0
C625 C 0.14322 0.79214 0.00436 0.0
C626 C 0.11244 0.82826 0.93002 0.0
C627 C 0.09018 0.83994 0.90788 0.0
N628 N 0.12087 0.86677 0.90497 0.0
C629 C 0.14378 0.85592 0.9268 0.0
C630 C 0.0854 0.82016 0.92049 0.0
C631 C 0.14751 0.87511 0.91409 0.0
C632 C 0.2004 0.83558 0.96749 0.0
N633 N 0.17053 0.83352 0.96438 0.0
C634 C 0.19251 0.89112 0.97043 0.0
C635 C 0.16599 0.86027 0.96604 0.0
C636 C 0.22393 0.89438 0.97326 0.0
C637 C 0.22765 0.86603 0.97215 0.0
H638 H 0.20337 0.81397 0.96593 0.0
H639 H 0.14194 0.85784 0.96346 0.0
C640 C 0.01351 0.74931 0.96867 0.0
N641 N 0.03418 0.77224 0.95851 0.0
C642 C 0.98698 0.75173 0.97483 0.0
C643 C 0.00344 0.8013 0.9599 0.0
C644 C 0.02977 0.79799 0.95407 0.0
C645 C 0.98183 0.77815 0.97054 0.0
H646 H 0.01821 0.72965 0.97229 0.0
H647 H 0.04723 0.81653 0.94637 0.0
C648 C 0.16054 0.74919 0.94296 0.0
N649 N 0.194 0.71345 0.94226 0.0
C650 C 0.16521 0.73702 0.92939 0.0
C651 C 0.17312 0.74343 0.95615 0.0
C652 C 0.18216 0.71897 0.92928 0.0
C653 C 0.18987 0.72521 0.95558 0.0
C654 C 0.04823 0.69931 0.93586 0.0
C655 C 0.05794 0.68537 0.92438 0.0
C656 C 0.02099 0.67847 0.94493 0.0
C657 C 0.04033 0.65069 0.92225 0.0
C658 C 0.00413 0.6439 0.94249 0.0
N659 N 0.01406 0.63085 0.93129 0.0
C660 C 0.07507 0.68297 0.97344 0.0
C661 C 0.09794 0.67323 0.95156 0.0
C662 C 0.06243 0.64983 0.97801 0.0
N663 N 0.09192 0.69382 0.96029 0.0
C664 C 0.08609 0.64007 0.95577 0.0
C665 C 0.06738 0.62779 0.96896 0.0
H666 H 0.07001 0.69962 0.98004 0.0
H667 H 0.11014 0.68182 0.94089 0.0
C668 C 0.15047 0.79772 0.90714 0.0
N669 N 0.11824 0.77585 0.91095 0.0
C670 C 0.15933 0.80576 0.89221 0.0
C671 C 0.10173 0.76783 0.8853 0.0
C672 C 0.09388 0.76091 0.90044 0.0
C673 C 0.13486 0.79073 0.88099 0.0
H674 H 0.16918 0.80947 0.91581 0.0
H675 H 0.06835 0.74391 0.90384 0.0
O676 O 0.0965 0.76352 0.96924 0.0
O677 O 0.10851 0.80852 0.94214 0.0
O678 O 0.14426 0.76713 0.94325 0.0
O679 O 0.06559 0.73312 0.93831 0.0
H680 H 0.08317 0.80866 0.98059 0.0
H681 H 0.13725 0.756 0.98759 0.0
H682 H 0.10682 0.83943 0.00433 0.0
H683 H 0.16019 0.7879 0.01115 0.0
H684 H 0.06953 0.83385 0.90036 0.0
H685 H 0.16511 0.86225 0.93392 0.0
H686 H 0.06114 0.79844 0.92266 0.0
H687 H 0.17164 0.8965 0.91143 0.0
H688 H 0.18865 0.91239 0.97139 0.0
H689 H 0.25159 0.86775 0.97427 0.0
H690 H 0.97081 0.73322 0.98293 0.0
H691 H 0.00074 0.82237 0.95649 0.0
H692 H 0.15562 0.74123 0.91907 0.0
H693 H 0.16967 0.75262 0.96674 0.0
H694 H 0.18583 0.70927 0.91887 0.0
H695 H 0.19955 0.72038 0.96571 0.0
H696 H 0.07925 0.70106 0.91738 0.0
H697 H 0.01319 0.68883 0.95388 0.0
H698 H 0.04772 0.63954 0.91348 0.0
H699 H 0.9832 0.62745 0.94952 0.0
H700 H 0.04819 0.64131 0.98829 0.0
H701 H 0.08985 0.62372 0.94831 0.0
H702 H 0.18499 0.82413 0.88955 0.0
H703 H 0.08206 0.7553 0.87709 0.0
Li704 Li 0.30847 0.08668 0.29192 0.0
Li705 Li 0.3487 0.14464 0.2943 0.0
Li706 Li 0.34271 0.12032 0.27014 0.0
Li707 Li 0.3673 0.10606 0.29126 0.0
C708 C 0.28043 0.11492 0.27302 0.0
N709 N 0.224 0.09449 0.25557 0.0
C710 C 0.26304 0.13254 0.27342 0.0
C711 C 0.26915 0.08693 0.26371 0.0
C712 C 0.23454 0.12179 0.26453 0.0
C713 C 0.24057 0.07701 0.25498 0.0
C714 C 0.32498 0.10935 0.32075 0.0
C715 C 0.31647 0.10376 0.34743 0.0
N716 N 0.29156 0.11127 0.34605 0.0
C717 C 0.29924 0.11697 0.31959 0.0
C718 C 0.33364 0.10265 0.33477 0.0
C719 C 0.28268 0.11783 0.33251 0.0
C720 C 0.26966 0.02673 0.30687 0.0
N721 N 0.26698 0.05051 0.299 0.0
C722 C 0.20778 0.02192 0.30301 0.0
C723 C 0.23689 0.04891 0.29721 0.0
C724 C 0.20978 0.99677 0.31101 0.0
C725 C 0.24126 -0.0005 0.31299 0.0
H726 H 0.29403 0.02915 0.3085 0.0
H727 H 0.23531 0.06869 0.29153 0.0
C728 C 0.34521 0.20285 0.29534 0.0
N729 N 0.35609 0.18508 0.30332 0.0
C730 C 0.34529 0.23048 0.30169 0.0
C731 C 0.36959 0.22216 0.3241 0.0
C732 C 0.36901 0.19458 0.31729 0.0
C733 C 0.35671 0.23993 0.31643 0.0
H734 H 0.33524 0.19472 0.28421 0.0
H735 H 0.37774 0.18008 0.32333 0.0
C736 C 0.34435 0.05453 0.27271 0.0
N737 N 0.37139 0.01467 0.26542 0.0
C738 C 0.37258 0.06696 0.26351 0.0
C739 C 0.32967 0.02171 0.27808 0.0
C740 C 0.38593 0.04645 0.25998 0.0
C741 C 0.34376 0.00199 0.27429 0.0
C742 C 0.40934 0.18042 0.28492 0.0
C743 C 0.41481 0.2083 0.27654 0.0
C744 C 0.428 0.18484 0.2979 0.0
C745 C 0.43879 0.24028 0.28137 0.0
C746 C 0.45177 0.21723 0.30234 0.0
N747 N 0.4566 0.24405 0.29406 0.0
C748 C 0.34369 0.15754 0.2456 0.0
C749 C 0.33952 0.10582 0.23888 0.0
C750 C 0.3426 0.16528 0.23062 0.0
N751 N 0.3424 0.12838 0.24941 0.0
C752 C 0.33867 0.11268 0.22373 0.0
C753 C 0.3402 0.14275 0.21947 0.0
H754 H 0.34525 0.17464 0.25427 0.0
H755 H 0.33744 0.08233 0.24222 0.0
C756 C 0.38817 0.0655 0.30541 0.0
N757 N 0.39858 0.0924 0.29624 0.0
C758 C 0.40764 0.0503 0.30712 0.0
C759 C 0.44887 0.09191 0.29051 0.0
C760 C 0.42865 0.10635 0.28916 0.0
C761 C 0.43795 0.06294 0.29926 0.0
H762 H 0.36386 0.05475 0.3107 0.0
H763 H 0.43602 0.12753 0.2818 0.0
O764 O 0.30864 0.12562 0.28153 0.0
O765 O 0.34174 0.10828 0.30831 0.0
O766 O 0.33162 0.07464 0.2767 0.0
O767 O 0.38539 0.14897 0.28062 0.0
H768 H 0.27146 0.15428 0.28054 0.0
H769 H 0.28215 0.0729 0.26321 0.0
H770 H 0.22082 0.13517 0.26475 0.0
H771 H 0.23156 0.0554 0.24774 0.0
H772 H 0.32294 0.09864 0.35836 0.0
H773 H 0.29207 0.12223 0.30888 0.0
H774 H 0.35347 0.09666 0.33585 0.0
H775 H 0.26276 0.12373 0.33177 0.0
H776 H 0.18406 0.02109 0.30152 0.0
H777 H 0.24388 0.98062 0.31909 0.0
H778 H 0.33468 0.24303 0.2954 0.0
H779 H 0.37902 0.22882 0.33541 0.0
H780 H 0.38451 0.09245 0.25941 0.0
H781 H 0.3077 0.01159 0.28513 0.0
H782 H 0.40799 0.05588 0.25301 0.0
H783 H 0.33276 0.9766 0.27844 0.0
H784 H 0.40056 0.2053 0.26648 0.0
H785 H 0.42383 0.16351 0.30457 0.0
H786 H 0.4432 0.26212 0.27504 0.0
H787 H 0.46626 0.22106 0.3124 0.0
H788 H 0.34398 0.18879 0.22779 0.0
H789 H 0.33621 0.09441 0.21547 0.0
H790 H 0.39814 0.02781 0.31383 0.0
H791 H 0.47225 0.10261 0.2844 0.0
Li792 Li 0.22283 0.30489 0.62635 0.0
Li793 Li 0.20416 0.34688 0.62735 0.0
Li794 Li 0.22086 0.33587 0.6035 0.0
Li795 Li 0.26046 0.36371 0.62407 0.0
C796 C 0.16462 0.27372 0.60906 0.0
N797 N 0.12699 0.21326 0.5945 0.0
C798 C 0.12968 0.25701 0.60981 0.0
C799 C 0.18045 0.25969 0.60088 0.0
C800 C 0.11109 0.22647 0.60239 0.0
C801 C 0.16097 0.2291 0.59361 0.0
C802 C 0.25349 0.35274 0.65352 0.0
C803 C 0.28736 0.39927 0.66986 0.0
N804 N 0.29713 0.37993 0.67737 0.0
C805 C 0.26352 0.33321 0.66155 0.0
C806 C 0.26516 0.38591 0.65784 0.0
C807 C 0.28572 0.34745 0.67351 0.0
C808 C 0.24525 0.26206 0.63634 0.0
N809 N 0.21707 0.2638 0.63392 0.0
C810 C 0.18294 0.20832 0.64343 0.0
C811 C 0.18624 0.23779 0.63739 0.0
C812 C 0.2117 0.20588 0.64612 0.0
C813 C 0.24315 0.23322 0.64243 0.0
H814 H 0.26945 0.2835 0.63394 0.0
H815 H 0.16426 0.24008 0.63568 0.0
C816 C 0.14207 0.34257 0.62786 0.0
N817 N 0.17095 0.35463 0.63577 0.0
C818 C 0.11437 0.34262 0.63406 0.0
C819 C 0.14736 0.36946 0.6561 0.0
C820 C 0.17443 0.3687 0.64948 0.0
C821 C 0.11643 0.3552 0.64857 0.0
H822 H 0.14014 0.33156 0.61697 0.0
H823 H 0.19769 0.37807 0.65553 0.0
C824 C 0.28807 0.34054 0.60432 0.0
N825 N 0.35215 0.36933 0.59271 0.0
C826 C 0.30188 0.37115 0.59676 0.0
C827 C 0.30673 0.32435 0.60577 0.0
C828 C 0.33435 0.38537 0.59104 0.0
C829 C 0.3391 0.33935 0.59986 0.0
C830 C 0.22368 0.40252 0.61338 0.0
C831 C 0.19869 0.3996 0.60361 0.0
C832 C 0.2363 0.42781 0.62419 0.0
C833 C 0.18627 0.42161 0.60501 0.0
C834 C 0.22324 0.44934 0.62523 0.0
N835 N 0.19867 0.44579 0.61571 0.0
C836 C 0.17889 0.32472 0.57905 0.0
C837 C 0.23269 0.33469 0.57205 0.0
C838 C 0.16947 0.32255 0.56409 0.0
N839 N 0.21024 0.33133 0.58273 0.0
C840 C 0.22443 0.33296 0.55694 0.0
C841 C 0.19259 0.32724 0.55281 0.0
H842 H 0.16133 0.32167 0.58777 0.0
H843 H 0.25707 0.33887 0.57517 0.0
C844 C 0.3247 0.38363 0.63496 0.0
N845 N 0.30603 0.39551 0.62846 0.0
C846 C 0.35913 0.40432 0.63667 0.0
C847 C 0.35458 0.44926 0.62503 0.0
C848 C 0.32009 0.42774 0.62368 0.0
C849 C 0.37456 0.4374 0.6314 0.0
H850 H 0.31301 0.35758 0.6382 0.0
H851 H 0.30482 0.43625 0.61818 0.0
O852 O 0.18305 0.30374 0.61624 0.0
O853 O 0.23195 0.33923 0.64169 0.0
O854 O 0.2567 0.32684 0.61046 0.0
O855 O 0.23556 0.38063 0.61243 0.0
H856 H 0.11704 0.26752 0.6161 0.0
H857 H 0.20743 0.2722 0.60012 0.0
H858 H 0.08402 0.21326 0.60289 0.0
H859 H 0.17288 0.21796 0.58725 0.0
H860 H 0.29681 0.42501 0.67321 0.0
H861 H 0.25426 0.30732 0.65861 0.0
H862 H 0.25744 0.40129 0.65191 0.0
H863 H 0.29382 0.33266 0.67975 0.0
H864 H 0.15826 0.18801 0.64632 0.0
H865 H 0.26596 0.23238 0.64423 0.0
H866 H 0.09103 0.33091 0.62789 0.0
H867 H 0.15023 0.37982 0.66722 0.0
H868 H 0.2878 0.38404 0.59549 0.0
H869 H 0.29636 0.30038 0.61131 0.0
H870 H 0.34542 0.40921 0.58531 0.0
H871 H 0.35384 0.32714 0.60096 0.0
H872 H 0.18878 0.38042 0.59512 0.0
H873 H 0.25595 0.43085 0.6317 0.0
H874 H 0.16675 0.41943 0.59758 0.0
H875 H 0.23267 0.4689 0.6336 0.0
H876 H 0.14471 0.31822 0.56139 0.0
H877 H 0.24274 0.33606 0.54857 0.0
H878 H 0.37373 0.39402 0.64136 0.0
H879 H 0.36561 0.47464 0.62084 0.0
Li880 Li 0.85774 0.20698 0.96391 0.0
Li881 Li 0.91527 0.22399 0.96189 0.0
Li882 Li 0.89703 0.26514 0.96173 0.0
Li883 Li 0.8839 0.22606 0.94051 0.0
C884 C 0.89214 0.21775 0.99086 0.0
N885 N 0.89 0.1827 0.01629 0.0
C886 C 0.88175 0.18362 0.98998 0.0
C887 C 0.90146 0.23402 0.00467 0.0
C888 C 0.88083 0.16636 0.00296 0.0
C889 C 0.9002 0.21588 0.0174 0.0
C890 C 0.88969 0.16971 0.94299 0.0
C891 C 0.93131 0.17048 0.92638 0.0
N892 N 0.91388 0.13643 0.9259 0.0
C893 C 0.8722 0.13473 0.94232 0.0
C894 C 0.91952 0.18777 0.93495 0.0
C895 C 0.88483 0.11837 0.93363 0.0
C896 C 0.79919 0.14593 0.96395 0.0
N897 N 0.81642 0.17412 0.97227 0.0
C898 C 0.77638 0.15053 0.99201 0.0
C899 C 0.80537 0.17726 0.98593 0.0
C900 C 0.7589 0.12036 0.98396 0.0
C901 C 0.77032 0.11863 0.9696 0.0
H902 H 0.80859 0.1443 0.95309 0.0
H903 H 0.81956 0.20013 0.99226 0.0
C904 C 0.98024 0.24701 0.97159 0.0
N905 N 0.95114 0.21835 0.96864 0.0
C906 C 0.00757 0.24564 0.97743 0.0
C907 C 0.97455 0.18515 0.97698 0.0
C908 C 0.94779 0.18771 0.97115 0.0
C909 C 0.00486 0.2144 0.98033 0.0
H910 H 0.98201 0.27099 0.96957 0.0
H911 H 0.92419 0.16528 0.96891 0.0
C912 C 0.82351 0.23397 0.95466 0.0
N913 N 0.76038 0.21987 0.96354 0.0
C914 C 0.79551 0.21276 0.94606 0.0
C915 C 0.81945 0.24816 0.96774 0.0
C916 C 0.76379 0.20589 0.95075 0.0
C917 C 0.78731 0.2407 0.97205 0.0
C918 C 0.94408 0.28908 0.93877 0.0
C919 C 0.92521 0.30163 0.93204 0.0
C920 C 0.9787 0.30541 0.93655 0.0
C921 C 0.94135 0.33031 0.92315 0.0
C922 C 0.9939 0.33401 0.92756 0.0
N923 N 0.97506 0.34577 0.92111 0.0
C924 C 0.93951 0.32424 0.97622 0.0
C925 C 0.89823 0.32771 0.96174 0.0
C926 C 0.95528 0.35839 0.9794 0.0
N927 N 0.9119 0.30984 0.96737 0.0
C928 C 0.9132 0.362 0.96465 0.0
C929 C 0.94254 0.37787 0.97333 0.0
H930 H 0.9499 0.30931 0.9804 0.0
H931 H 0.87654 0.31561 0.95452 0.0
C932 C 0.84572 0.19036 0.9165 0.0
N933 N 0.87594 0.2175 0.91967 0.0
C934 C 0.83638 0.18038 0.90174 0.0
C935 C 0.88971 0.22628 0.89369 0.0
C936 C 0.89818 0.23513 0.90866 0.0
C937 C 0.85834 0.19859 0.89004 0.0
H938 H 0.82902 0.17615 0.92552 0.0
H939 H 0.92257 0.25588 0.91141 0.0
O940 O 0.8934 0.23541 0.97834 0.0
O941 O 0.87733 0.18584 0.95146 0.0
O942 O 0.85469 0.24037 0.95049 0.0
O943 O 0.92908 0.26156 0.94785 0.0
H944 H 0.87442 0.17051 0.97942 0.0
H945 H 0.9096 0.26044 0.00553 0.0
H946 H 0.87283 0.13995 0.00244 0.0
H947 H 0.90735 0.22817 0.02817 0.0
H948 H 0.95434 0.18414 0.92011 0.0
H949 H 0.84909 0.12038 0.94849 0.0
H950 H 0.93351 0.2148 0.93528 0.0
H951 H 0.87154 0.09131 0.93302 0.0
H952 H 0.7683 0.15317 0.00304 0.0
H953 H 0.75817 0.09584 0.96305 0.0
H954 H 0.03058 0.2688 0.97966 0.0
H955 H 0.97125 0.16058 0.97921 0.0
H956 H 0.7982 0.2016 0.9359 0.0
H957 H 0.84083 0.26434 0.97462 0.0
H958 H 0.74187 0.1894 0.94424 0.0
H959 H 0.78377 0.25134 0.98219 0.0
H960 H 0.8984 0.28933 0.93361 0.0
H961 H 0.99367 0.2961 0.94175 0.0
H962 H 0.92705 0.34028 0.91787 0.0
H963 H 0.02068 0.34689 0.92574 0.0
H964 H 0.97761 0.36954 0.98628 0.0
H965 H 0.90282 0.37618 0.95959 0.0
H966 H 0.81237 0.15832 0.89957 0.0
H967 H 0.90747 0.24118 0.88509 0.0
Li968 Li 0.6903 0.90744 0.29302 0.0
Li969 Li 0.64797 0.84812 0.29646 0.0
Li970 Li 0.65917 0.8757 0.27143 0.0
Li971 Li 0.62896 0.88813 0.29049 0.0
C972 C 0.72155 0.87365 0.28589 0.0
N973 N 0.78656 0.88683 0.28967 0.0
C974 C 0.72884 0.85622 0.29665 0.0
C975 C 0.74727 0.89747 0.27692 0.0
C976 C 0.76187 0.86331 0.29841 0.0
C977 C 0.77999 0.90389 0.27904 0.0
C978 C 0.64511 0.88139 0.32301 0.0
C979 C 0.60241 0.86042 0.34208 0.0
N980 N 0.62651 0.86995 0.35275 0.0
C981 C 0.66948 0.89139 0.33417 0.0
C982 C 0.61132 0.86614 0.32699 0.0
C983 C 0.65957 0.88521 0.34914 0.0
C984 C 0.74105 0.97466 0.29507 0.0
N985 N 0.73172 0.94336 0.30007 0.0
C986 C 0.78049 0.96482 0.31551 0.0
C987 C 0.75063 0.938 0.31015 0.0
C988 C 0.79077 0.99751 0.31056 0.0
C989 C 0.77058 0.00219 0.30017 0.0
H990 H 0.72523 0.97834 0.28729 0.0
H991 H 0.74241 0.91295 0.31414 0.0
C992 C 0.62472 0.77953 0.29733 0.0
N993 N 0.63857 0.80751 0.30598 0.0
C994 C 0.62282 0.75007 0.30253 0.0
C995 C 0.6481 0.7784 0.32571 0.0
C996 C 0.64945 0.80727 0.32007 0.0
C997 C 0.63564 0.74959 0.31672 0.0
H998 H 0.61669 0.78061 0.28608 0.0
H999 H 0.66133 0.83003 0.32656 0.0
C1000 C 0.67184 0.93692 0.26472 0.0
N1001 N 0.68073 0.96923 0.23765 0.0
C1002 C 0.64614 0.94105 0.25871 0.0
C1003 C 0.70222 0.94963 0.25706 0.0
C1004 C 0.65108 0.95737 0.24499 0.0
C1005 C 0.70618 0.96576 0.24336 0.0
C1006 C 0.58172 0.82248 0.28131 0.0
C1007 C 0.56253 0.81488 0.26829 0.0
C1008 C 0.56636 0.80703 0.29476 0.0
C1009 C 0.52809 0.79248 0.26901 0.0
C1010 C 0.53187 0.78475 0.29503 0.0
N1011 N 0.51359 0.77803 0.28226 0.0
C1012 C 0.68387 0.85991 0.24573 0.0
C1013 C 0.63952 0.87076 0.24112 0.0
C1014 C 0.68549 0.85358 0.23059 0.0
N1015 N 0.66122 0.86841 0.25066 0.0
C1016 C 0.64043 0.86491 0.22586 0.0
C1017 C 0.66356 0.85605 0.22044 0.0
H1018 H 0.70048 0.85771 0.25357 0.0
H1019 H 0.62132 0.87693 0.24539 0.0
C1020 C 0.60359 0.9242 0.30509 0.0
N1021 N 0.59689 0.90171 0.29393 0.0
C1022 C 0.58354 0.93868 0.30706 0.0
C1023 C 0.54978 0.90624 0.2861 0.0
C1024 C 0.57041 0.89228 0.28458 0.0
C1025 C 0.55663 0.93024 0.29728 0.0
H1026 H 0.62531 0.93182 0.31213 0.0
H1027 H 0.5662 0.87515 0.27552 0.0
O1028 O 0.68939 0.86722 0.28406 0.0
O1029 O 0.65447 0.88751 0.30831 0.0
O1030 O 0.66731 0.92059 0.27804 0.0
O1031 O 0.61549 0.84431 0.28076 0.0
H1032 H 0.70929 0.83752 0.3036 0.0
H1033 H 0.74206 0.91095 0.26845 0.0
H1034 H 0.76788 0.85012 0.30675 0.0
H1035 H 0.80015 0.92241 0.27224 0.0
H1036 H 0.57633 0.84856 0.34531 0.0
H1037 H 0.69576 0.90358 0.33132 0.0
H1038 H 0.59216 0.85916 0.31856 0.0
H1039 H 0.67816 0.89258 0.35788 0.0
H1040 H 0.79534 0.95995 0.32341 0.0
H1041 H 0.77707 0.02696 0.29628 0.0
H1042 H 0.61278 0.72838 0.29527 0.0
H1043 H 0.65892 0.77948 0.33659 0.0
H1044 H 0.62256 0.93157 0.2645 0.0
H1045 H 0.72249 0.94702 0.26163 0.0
H1046 H 0.63133 0.96055 0.24016 0.0
H1047 H 0.72949 0.97554 0.23728 0.0
H1048 H 0.57407 0.82633 0.25775 0.0
H1049 H 0.58092 0.81186 0.30486 0.0
H1050 H 0.51289 0.78656 0.25903 0.0
H1051 H 0.51966 0.77268 0.30537 0.0
H1052 H 0.70383 0.84702 0.22685 0.0
H1053 H 0.62276 0.86659 0.21845 0.0
H1054 H 0.59004 0.95746 0.31567 0.0
H1055 H 0.5292 0.89895 0.27836 0.0
H1056 H 0.49316 0.58768 0.03077 0.0
H1057 H 0.50186 0.41886 0.0243 0.0
H1058 H 0.58526 0.58557 0.02578 0.0
H1059 H 0.40987 0.42093 0.02981 0.0
H1060 H 0.53263 0.48006 0.02331 0.0
H1061 H 0.46185 0.52658 0.02893 0.0
C1062 C 0.50679 0.57437 0.02926 0.0
C1063 C 0.54189 0.59178 0.02846 0.0
C1064 C 0.50568 0.46711 0.02464 0.0
C1065 C 0.50624 0.52188 0.0263 0.0
C1066 C 0.48814 0.43218 0.02527 0.0
C1067 C 0.45325 0.41474 0.02716 0.0
C1068 C 0.48824 0.48476 0.02599 0.0
C1069 C 0.4367 0.43329 0.02815 0.0
C1070 C 0.4889 0.53951 0.02814 0.0
C1071 C 0.55821 0.57326 0.02628 0.0
N1072 N 0.45435 0.46727 0.02763 0.0
N1073 N 0.54027 0.53934 0.02536 0.0
H1074 H 0.03388 0.45138 0.39029 0.0
H1075 H 0.95633 0.54153 0.34138 0.0
H1076 H 0.03805 0.45507 0.34209 0.0
H1077 H 0.94367 0.52701 0.38911 0.0
H1078 H 0.98657 0.5104 0.34118 0.0
H1079 H 0.00168 0.48021 0.38991 0.0
C1080 C 0.0283 0.4586 0.37961 0.0
C1081 C 0.03895 0.45113 0.3662 0.0
C1082 C 0.97696 0.51384 0.35168 0.0
C1083 C 0.00153 0.48372 0.36566 0.0
C1084 C 0.95978 0.53167 0.3518 0.0
C1085 C 0.94743 0.53687 0.36528 0.0
C1086 C 0.98205 0.50137 0.36515 0.0
C1087 C 0.95235 0.52326 0.37843 0.0
C1088 C 0.00963 0.47478 0.37939 0.0
C1089 C 0.03026 0.46031 0.35268 0.0
N1090 N 0.96942 0.50634 0.37804 0.0
N1091 N 0.01214 0.47626 0.35275 0.0
H1092 H 0.41802 0.92048 0.68199 0.0
H1093 H 0.5846 0.09377 0.70002 0.0
H1094 H 0.41873 0.0101 0.69663 0.0
H1095 H 0.58512 0.00489 0.68525 0.0
H1096 H 0.52385 0.06458 0.69683 0.0
H1097 H 0.47931 0.95184 0.6813 0.0
C1098 C 0.43105 0.94675 0.68501 0.0
C1099 C 0.41318 0.96265 0.68939 0.0
C1100 C 0.53725 0.05152 0.69416 0.0
C1101 C 0.48325 0.99872 0.68857 0.0
C1102 C 0.57192 0.06816 0.69602 0.0
C1103 C 0.5899 0.05169 0.69297 0.0
C1104 C 0.52035 0.01802 0.68933 0.0
C1105 C 0.57227 0.01864 0.68762 0.0
C1106 C 0.46601 0.96469 0.68454 0.0
C1107 C 0.43137 0.99687 0.69299 0.0
N1108 N 0.53842 0.00279 0.68609 0.0
N1109 N 0.46534 0.01366 0.69259 0.0
H1110 H 0.58586 0.53625 0.65381 0.0
H1111 H 0.41518 0.47595 0.60874 0.0
H1112 H 0.581 0.54628 0.60605 0.0
H1113 H 0.41797 0.44577 0.65414 0.0
H1114 H 0.47635 0.507 0.60836 0.0
H1115 H 0.52455 0.50725 0.65485 0.0
C1116 C 0.57186 0.53229 0.64355 0.0
C1117 C 0.58847 0.54351 0.62981 0.0
C1118 C 0.46361 0.49369 0.61843 0.0
C1119 C 0.51856 0.51066 0.63093 0.0
C1120 C 0.4287 0.47625 0.6187 0.0
C1121 C 0.41153 0.45834 0.63151 0.0
C1122 C 0.4815 0.49338 0.63108 0.0
C1123 C 0.4303 0.45908 0.64401 0.0
C1124 C 0.53693 0.5157 0.64415 0.0
C1125 C 0.56917 0.53761 0.61684 0.0
N1126 N 0.46431 0.47633 0.64349 0.0
N1127 N 0.53526 0.52172 0.61773 0.0
H1128 H 0.9172 0.41962 0.97885 0.0
H1129 H 0.09389 0.58632 0.96735 0.0
H1130 H 0.01017 0.42032 0.97171 0.0
H1131 H 0.00289 0.58675 0.97818 0.0
H1132 H 0.06411 0.52549 0.97042 0.0
H1133 H 0.94842 0.48088 0.97998 0.0
C1134 C 0.94418 0.43265 0.97758 0.0
C1135 C 0.96108 0.41482 0.97515 0.0
C1136 C 0.0507 0.53889 0.97228 0.0
C1137 C 0.99696 0.48484 0.97646 0.0
C1138 C 0.06769 0.57359 0.97049 0.0
C1139 C 0.0508 0.59156 0.97247 0.0
C1140 C 0.01646 0.52195 0.97591 0.0
C1141 C 0.01694 0.5739 0.97668 0.0
C1142 C 0.962 0.4676 0.97831 0.0
C1143 C 0.99611 0.43297 0.97377 0.0
N1144 N 0.00079 0.54002 0.97812 0.0
N1145 N 0.01283 0.46695 0.97434 0.0
H1146 H 0.4658 0.04933 0.27529 0.0
H1147 H 0.53369 0.94749 0.32219 0.0
H1148 H 0.45172 0.03367 0.32292 0.0
H1149 H 0.53684 0.95479 0.27405 0.0
H1150 H 0.50522 0.98033 0.32299 0.0
H1151 H 0.49419 0.01669 0.27495 0.0
C1152 C 0.46906 0.03935 0.28572 0.0
C1153 C 0.4566 0.04444 0.29918 0.0
C1154 C 0.51201 0.97459 0.31226 0.0
C1155 C 0.4886 0.00645 0.29883 0.0
C1156 C 0.52832 0.95593 0.3118 0.0
C1157 C 0.53755 0.94829 0.29803 0.0
C1158 C 0.50513 0.9859 0.29886 0.0
C1159 C 0.52975 0.95964 0.2849 0.0
C1160 C 0.48499 0.02042 0.2855 0.0
C1161 C 0.46083 0.03021 0.31229 0.0
N1162 N 0.51414 0.97796 0.28565 0.0
N1163 N 0.47654 0.0119 0.3118 0.0
H1164 H 0.30398 0.16826 0.20643 0.0
H1165 H 0.38389 0.18517 0.12543 0.0
H1166 H 0.37441 0.13528 0.19618 0.0
H1167 H 0.29761 0.19636 0.13355 0.0
H1168 H 0.38311 0.17007 0.15162 0.0
H1169 H 0.30387 0.18234 0.18008 0.0
C1170 C 0.31949 0.16408 0.19862 0.0
C1171 C 0.33929 0.15064 0.20348 0.0
C1172 C 0.36432 0.17578 0.14766 0.0
C1173 C 0.33924 0.16662 0.17334 0.0
C1174 C 0.36463 0.18426 0.13268 0.0
C1175 C 0.34072 0.19201 0.12722 0.0
C1176 C 0.34009 0.17524 0.15733 0.0
C1177 C 0.31684 0.19108 0.13727 0.0
C1178 C 0.31927 0.17194 0.18358 0.0
C1179 C 0.35857 0.14532 0.19287 0.0
N1180 N 0.31716 0.18289 0.15183 0.0
N1181 N 0.35819 0.15348 0.17831 0.0
H1182 H 0.09667 0.2818 0.46582 0.0
H1183 H 0.23133 0.37096 0.53101 0.0
H1184 H 0.18438 0.37988 0.46168 0.0
H1185 H 0.13412 0.28405 0.53838 0.0
H1186 H 0.21626 0.37196 0.50492 0.0
H1187 H 0.11115 0.28008 0.49197 0.0
C1188 C 0.11882 0.30309 0.47041 0.0
C1189 C 0.13936 0.33102 0.46149 0.0
C1190 C 0.1982 0.35265 0.51223 0.0
C1191 C 0.15636 0.3289 0.49134 0.0
C1192 C 0.2069 0.35191 0.52709 0.0
C1193 C 0.18395 0.32735 0.53686 0.0
C1194 C 0.16639 0.32852 0.50705 0.0
C1195 C 0.15244 0.30359 0.53125 0.0
C1196 C 0.12716 0.30198 0.48533 0.0
C1197 C 0.16808 0.35759 0.46802 0.0
N1198 N 0.1446 0.30471 0.51669 0.0
N1199 N 0.17575 0.35582 0.48252 0.0
H1200 H 0.8569 0.17343 0.794 0.0
H1201 H 0.79601 0.17307 0.87731 0.0
H1202 H 0.75356 0.11451 0.80754 0.0
H1203 H 0.89816 0.20128 0.86651 0.0
H1204 H 0.78023 0.15595 0.85141 0.0
H1205 H 0.87285 0.18869 0.82016 0.0
C1206 C 0.83759 0.16377 0.80251 0.0
C1207 C 0.80387 0.14278 0.79865 0.0
C1208 C 0.80607 0.1658 0.85474 0.0
C1209 C 0.82186 0.16018 0.82851 0.0
C1210 C 0.81514 0.17547 0.86956 0.0
C1211 C 0.84853 0.18859 0.8742 0.0
C1212 C 0.83057 0.16964 0.84439 0.0
C1213 C 0.87224 0.19182 0.86347 0.0
C1214 C 0.84671 0.17232 0.81742 0.0
C1215 C 0.77985 0.13061 0.81009 0.0
N1216 N 0.86282 0.18251 0.84906 0.0
N1217 N 0.78928 0.13969 0.82451 0.0
H1218 H 0.66343 0.76473 0.13579 0.0
H1219 H 0.66003 0.89088 0.19637 0.0
H1220 H 0.67081 0.8592 0.12441 0.0
H1221 H 0.66897 0.80476 0.20791 0.0
H1222 H 0.66104 0.87818 0.16989 0.0
H1223 H 0.66257 0.77747 0.16228 0.0
C1224 C 0.66478 0.78811 0.13887 0.0
C1225 C 0.66725 0.81097 0.12789 0.0
C1226 C 0.66286 0.8621 0.17821 0.0
C1227 C 0.66637 0.82575 0.15815 0.0
C1228 C 0.66209 0.86923 0.19332 0.0
C1229 C 0.66445 0.84886 0.20435 0.0
C1230 C 0.66575 0.83423 0.17409 0.0
C1231 C 0.66747 0.82135 0.19977 0.0
C1232 C 0.66448 0.79545 0.15399 0.0
C1233 C 0.6693 0.84105 0.13251 0.0
N1234 N 0.66793 0.81477 0.18499 0.0
N1235 N 0.6687 0.84752 0.14729 0.0
H1236 H 0.79302 0.61348 0.53554 0.0
H1237 H 0.89706 0.72389 0.4652 0.0
H1238 H 0.8516 0.7215 0.53616 0.0
H1239 H 0.83222 0.61658 0.46365 0.0
H1240 H 0.88262 0.72333 0.49151 0.0
H1241 H 0.80869 0.61397 0.50944 0.0
C1242 C 0.80899 0.63734 0.53017 0.0
C1243 C 0.8209 0.66752 0.53807 0.0
C1244 C 0.87161 0.69989 0.48542 0.0
C1245 C 0.83937 0.66821 0.5082 0.0
C1246 C 0.87975 0.70021 0.47038 0.0
C1247 C 0.86576 0.67025 0.46217 0.0
C1248 C 0.8493 0.66939 0.49234 0.0
C1249 C 0.84393 0.64024 0.46956 0.0
C1250 C 0.81812 0.63757 0.51528 0.0
C1251 C 0.8421 0.69761 0.53058 0.0
N1252 N 0.8363 0.6406 0.4842 0.0
N1253 N 0.85062 0.69718 0.51607 0.0
H1254 H 0.09695 0.79616 0.85851 0.0
H1255 H 0.24379 0.87166 0.79849 0.0
H1256 H 0.19362 0.80541 0.86681 0.0
H1257 H 0.1396 0.82058 0.78576 0.0
H1258 H 0.22703 0.85522 0.82455 0.0
H1259 H 0.11312 0.81174 0.83246 0.0
C1260 C 0.12143 0.80114 0.85489 0.0
C1261 C 0.14392 0.79943 0.86498 0.0
C1262 C 0.20788 0.8476 0.81603 0.0
C1263 C 0.16281 0.81824 0.83524 0.0
C1264 C 0.2174 0.85711 0.80122 0.0
C1265 C 0.193 0.84731 0.79003 0.0
C1266 C 0.17372 0.82869 0.81966 0.0
C1267 C 0.15914 0.82833 0.79409 0.0
C1268 C 0.13068 0.81026 0.84003 0.0
C1269 C 0.17562 0.807 0.8596 0.0
N1270 N 0.15046 0.81977 0.80861 0.0
N1271 N 0.18417 0.81626 0.84513 0.0
H1272 H 0.24523 0.95213 0.95778 0.0
H1273 H 0.35935 0.0659 0.02443 0.0
H1274 H 0.26741 0.91215 0.99692 0.0
H1275 H 0.33343 0.10293 0.98527 0.0
H1276 H 0.33566 0.01089 0.01252 0.0
H1277 H 0.28711 0.0085 0.96554 0.0
C1278 C 0.25925 0.95533 0.96797 0.0
C1279 C 0.25256 0.92769 0.97689 0.0
C1280 C 0.33577 0.03127 0.00644 0.0
C1281 C 0.3003 0.9921 0.98596 0.0
C1282 C 0.3492 0.06265 0.01325 0.0
C1283 C 0.34785 0.08899 0.00597 0.0
C1284 C 0.32081 0.02619 0.99229 0.0
C1285 C 0.33513 0.08353 0.99135 0.0
C1286 C 0.28322 0.98747 0.97238 0.0
C1287 C 0.27178 0.93297 0.98982 0.0
N1288 N 0.32167 0.05265 0.98511 0.0
N1289 N 0.29444 0.9647 0.99413 0.0
H1290 H 0.2599 0.31415 0.37264 0.0
H1291 H 0.36401 0.2989 0.30524 0.0
H1292 H 0.27941 0.36969 0.33142 0.0
H1293 H 0.3361 0.23846 0.34525 0.0
H1294 H 0.3437 0.33366 0.31665 0.0
H1295 H 0.29865 0.2958 0.36491 0.0
C1296 C 0.27287 0.32318 0.3621 0.0
C1297 C 0.26598 0.34329 0.3526 0.0
C1298 C 0.34257 0.31313 0.32301 0.0
C1299 C 0.3099 0.32135 0.34347 0.0
C1300 C 0.35406 0.29321 0.31649 0.0
C1301 C 0.35124 0.26531 0.32418 0.0
C1302 C 0.32809 0.30507 0.33731 0.0
C1303 C 0.33888 0.25966 0.33887 0.0
C1304 C 0.29485 0.31237 0.35762 0.0
C1305 C 0.28332 0.3536 0.33896 0.0
N1306 N 0.32734 0.27904 0.34486 0.0
N1307 N 0.30414 0.34215 0.33471 0.0
H1308 H 0.94903 0.24957 0.70528 0.0
H1309 H 0.06204 0.35786 0.63732 0.0
H1310 H 0.90845 0.26763 0.66524 0.0
H1311 H 0.09958 0.33721 0.67779 0.0
H1312 H 0.00697 0.33493 0.64909 0.0
H1313 H 0.00517 0.29151 0.69729 0.0
C1314 C 0.95206 0.26277 0.69485 0.0
C1315 C 0.92436 0.25492 0.68576 0.0
C1316 C 0.02747 0.33606 0.65547 0.0
C1317 C 0.98849 0.30256 0.67638 0.0
C1318 C 0.0589 0.34903 0.64875 0.0
C1319 C 0.08542 0.3489 0.65645 0.0
C1320 C 0.02254 0.32278 0.66998 0.0
C1321 C 0.08006 0.33792 0.67136 0.0
C1322 C 0.98406 0.28674 0.69029 0.0
C1323 C 0.92936 0.27296 0.67248 0.0
N1324 N 0.04916 0.32486 0.67753 0.0
N1325 N 0.96099 0.29561 0.66803 0.0
H1326 H 0.62792 0.91172 0.99248 0.0
H1327 H 0.75364 0.10001 0.01314 0.0
H1328 H 0.66715 0.94536 0.03686 0.0
H1329 H 0.7017 0.07007 0.97082 0.0
H1330 H 0.71501 0.04494 0.02317 0.0
H1331 H 0.64769 0.96988 0.9853 0.0
C1332 C 0.64018 0.93128 0.00077 0.0
C1333 C 0.64629 0.9237 0.01522 0.0
C1334 C 0.71165 0.05053 0.01176 0.0
C1335 C 0.66917 0.99025 0.00709 0.0
C1336 C 0.73363 0.0822 0.00602 0.0
C1337 C 0.73145 0.08961 0.99098 0.0
C1338 C 0.68758 0.02583 0.00234 0.0
C1339 C 0.70503 0.06517 0.98234 0.0
C1340 C 0.65135 0.96446 0.9967 0.0
C1341 C 0.66181 0.94995 0.0256 0.0
N1342 N 0.68455 0.03417 0.98806 0.0
N1343 N 0.67321 0.98207 0.02126 0.0
H1344 H 0.65554 0.71377 0.29935 0.0
H1345 H 0.70314 0.64202 0.37016 0.0
H1346 H 0.62766 0.72146 0.34464 0.0
H1347 H 0.74084 0.64636 0.32556 0.0
H1348 H 0.66352 0.65766 0.36012 0.0
H1349 H 0.67405 0.6755 0.3079 0.0
C1350 C 0.65247 0.70677 0.31105 0.0
C1351 C 0.64046 0.72132 0.32134 0.0
C1352 C 0.68005 0.65459 0.3525 0.0
C1353 C 0.66249 0.67803 0.33125 0.0
C1354 C 0.70273 0.64574 0.35823 0.0
C1355 C 0.72586 0.6436 0.34873 0.0
C1356 C 0.68059 0.66145 0.33718 0.0
C1357 C 0.7236 0.64783 0.33332 0.0
C1358 C 0.66335 0.68509 0.31594 0.0
C1359 C 0.63748 0.71147 0.33637 0.0
N1360 N 0.70179 0.65711 0.32806 0.0
N1361 N 0.6489 0.69083 0.34092 0.0
H1362 H 0.09316 0.71665 0.65773 0.0
H1363 H 0.90038 0.63137 0.68048 0.0
H1364 H 0.05695 0.72319 0.70145 0.0
H1365 H 0.93642 0.64956 0.63496 0.0
H1366 H 0.9573 0.64967 0.68909 0.0
H1367 H 0.0355 0.67731 0.65022 0.0
C1368 C 0.07327 0.70958 0.66582 0.0
C1369 C 0.08006 0.7239 0.68017 0.0
C1370 C 0.95256 0.64903 0.6772 0.0
C1371 C 0.01413 0.67848 0.6717 0.0
C1372 C 0.92011 0.63869 0.67228 0.0
C1373 C 0.91366 0.63959 0.65699 0.0
C1374 C 0.97876 0.66035 0.66677 0.0
C1375 C 0.94008 0.64845 0.64685 0.0
C1376 C 0.04039 0.68696 0.66154 0.0
C1377 C 0.05323 0.7129 0.69029 0.0
N1378 N 0.97157 0.659 0.65194 0.0
N1379 N 0.02148 0.69123 0.68579 0.0
H1380 H 0.0278 0.17129 0.97334 0.0
H1381 H 0.17896 0.25309 0.03216 0.0
H1382 H 0.04664 0.25311 0.00279 0.0
H1383 H 0.1625 0.1728 0.00221 0.0
H1384 H 0.12915 0.25182 0.0221 0.0
H1385 H 0.07541 0.16953 0.98446 0.0
C1386 C 0.04181 0.18875 0.9822 0.0
C1387 C 0.03332 0.21252 0.98708 0.0
C1388 C 0.13634 0.2344 0.01774 0.0
C1389 C 0.08796 0.2108 -0.00023 0.0
C1390 C 0.1649 0.23522 0.02343 0.0
C1391 C 0.17506 0.21315 0.01796 0.0
C1392 C 0.11772 0.21137 0.00645 0.0
C1393 C 0.15545 0.1901 0.00685 0.0
C1394 C 0.06909 0.18784 0.98849 0.0
C1395 C 0.0526 0.23475 0.99849 0.0
N1396 N 0.1278 0.1899 0.00141 0.0
N1397 N 0.079 0.23336 0.00442 0.0
H1398 H 0.8368 0.05367 0.29544 0.0
H1399 H 0.95154 0.14044 0.36727 0.0
H1400 H 0.81547 0.00813 0.33922 0.0
H1401 H 0.96196 0.19197 0.3256 0.0
H1402 H 0.90492 0.08973 0.35652 0.0
H1403 H 0.88583 0.10272 0.30572 0.0
C1404 C 0.84234 0.05397 0.30722 0.0
C1405 C 0.82176 0.02672 0.31649 0.0
C1406 C 0.91743 0.11212 0.34973 0.0
C1407 C 0.87823 0.08276 0.32829 0.0
C1408 C 0.94415 0.14101 0.35583 0.0
C1409 C 0.96057 0.17051 0.34733 0.0
C1410 C 0.90716 0.11265 0.335 0.0
C1411 C 0.94971 0.16992 0.33262 0.0
C1412 C 0.87046 0.08195 0.31307 0.0
C1413 C 0.83072 0.02832 0.3316 0.0
N1414 N 0.92371 0.14146 0.32692 0.0
N1415 N 0.85822 0.05588 0.33704 0.0
H1416 H 0.78571 0.84281 0.63114 0.0
H1417 H 0.79597 0.94113 0.70662 0.0
H1418 H 0.80074 0.81241 0.67477 0.0
H1419 H 0.7701 0.96426 0.66361 0.0
H1420 H 0.80182 0.89629 0.69495 0.0
H1421 H 0.78367 0.88977 0.64266 0.0
C1422 C 0.78855 0.84597 0.64315 0.0
C1423 C 0.79324 0.82346 0.65199 0.0
C1424 C 0.79486 0.91119 0.68807 0.0
C1425 C 0.79121 0.87746 0.66527 0.0
C1426 C 0.79167 0.93688 0.69471 0.0
C1427 C 0.78236 0.95637 0.68609 0.0
C1428 C 0.78888 0.90504 0.67267 0.0
C1429 C 0.77679 0.94953 0.67073 0.0
C1430 C 0.78751 0.87288 0.64972 0.0
C1431 C 0.79743 0.82927 0.66747 0.0
N1432 N 0.78014 0.92446 0.66453 0.0
N1433 N 0.79619 0.85561 0.67362 0.0
H1434 H 0.8424 0.78615 0.03289 0.0
H1435 H 0.93915 0.7955 0.95704 0.0
H1436 H 0.81167 0.80168 0.98944 0.0
H1437 H 0.96311 0.77016 -2e-05 0.0
H1438 H 0.8947 0.80172 0.96888 0.0
H1439 H 0.88906 0.78388 0.02118 0.0
C1440 C 0.84543 0.78906 0.02088 0.0
C1441 C 0.82291 0.79392 0.01214 0.0
C1442 C 0.90969 0.7948 0.97571 0.0
C1443 C 0.87654 0.79162 0.99865 0.0
C1444 C 0.93516 0.79139 0.96897 0.0
C1445 C 0.95477 0.78211 0.97752 0.0
C1446 C 0.90388 0.78907 0.99113 0.0
C1447 C 0.94827 0.7768 0.99291 0.0
C1448 C 0.87217 0.78789 0.01421 0.0
C1449 C 0.82854 0.79821 0.99666 0.0
N1450 N 0.92341 0.78036 0.99921 0.0
N1451 N 0.8547 0.79682 0.9904 0.0
H1452 H 0.06219 0.8439 0.36903 0.0
H1453 H 0.14897 0.95889 0.29744 0.0
H1454 H 0.0205 0.81802 0.32453 0.0
H1455 H 0.20113 0.96912 0.33889 0.0
H1456 H 0.09903 0.91082 0.30793 0.0
H1457 H 0.11098 0.89331 0.35883 0.0
C1458 C 0.06329 0.84846 0.35711 0.0
C1459 C 0.03714 0.82653 0.34764 0.0
C1460 C 0.12141 0.92358 0.31473 0.0
C1461 C 0.0928 0.88352 0.33594 0.0
C1462 C 0.14982 0.95111 0.30878 0.0
C1463 C 0.17923 0.96792 0.3173 0.0
C1464 C 0.1223 0.913 0.32936 0.0
C1465 C 0.17909 0.95661 0.33188 0.0
C1466 C 0.09112 0.8768 0.35131 0.0
C1467 C 0.03974 0.83432 0.33232 0.0
N1468 N 0.15104 0.9299 0.33747 0.0
N1469 N 0.06706 0.86214 0.32696 0.0
H1470 H 0.24955 0.06914 0.69723 0.0
H1471 H 0.16605 0.14002 0.64009 0.0
H1472 H 0.16791 0.00593 0.66778 0.0
H1473 H 0.25147 0.2023 0.66789 0.0
H1474 H 0.16362 0.09028 0.65119 0.0
H1475 H 0.24814 0.11791 0.6876 0.0
C1476 C 0.23134 0.06552 0.68871 0.0
C1477 C 0.20899 0.03339 0.68323 0.0
C1478 C 0.18285 0.11484 0.65488 0.0
C1479 C 0.20704 0.08924 0.6722 0.0
C1480 C 0.18414 0.14323 0.6486 0.0
C1481 C 0.20915 0.17538 0.65299 0.0
C1482 C 0.20665 0.11864 0.66567 0.0
C1483 C 0.23213 0.17804 0.66397 0.0
C1484 C 0.23044 0.09339 0.68326 0.0
C1485 C 0.18547 0.03018 0.67241 0.0
N1486 N 0.23035 0.15008 0.6699 0.0
N1487 N 0.18522 0.05778 0.66719 0.0
loop_
_geom_bond_atom_site_label_1
_geom_bond_atom_site_label_2
_geom_bond_distance
_geom_bond_site_symmetry_2
_ccdc_geom_bond_type
Li0 N17 1.990 . S
Li0 O60 1.956 . S
Li0 O61 1.970 . S
Li0 O62 1.961 . S
Li1 N25 1.990 . S
Li1 O60 1.970 . S
Li1 O61 1.956 . S
Li1 O63 1.961 . S
Li2 N47 1.990 . S
Li2 O60 1.961 . S
Li2 O62 1.956 . S
Li2 O63 1.970 . S
Li3 N53 1.990 . S
Li3 O61 1.961 . S
Li3 O62 1.970 . S
Li3 O63 1.956 . S
C4 C6 1.348 . S
C4 C7 1.356 . S
C4 O60 1.325 . S
N5 C8 1.314 . S
N5 C9 1.279 . S
C6 C4 1.348 . S
C6 C8 1.353 . S
C6 H64 0.929 . S
C7 C4 1.356 . S
C7 C9 1.358 . S
C7 H65 0.930 . S
C8 N5 1.314 . S
C8 C6 1.353 . S
C8 H66 0.930 . S
C9 N5 1.279 . S
C9 C7 1.358 . S
C9 H67 0.930 . S
C10 C13 1.348 . S
C10 C14 1.356 . S
C10 O61 1.325 . S
C11 N12 1.279 . S
C11 C14 1.358 . S
C11 H68 0.930 . S
N12 C11 1.279 . S
N12 C15 1.314 . S
C13 C10 1.348 . S
C13 C15 1.353 . S
C13 H69 0.929 . S
C14 C10 1.356 . S
C14 C11 1.358 . S
C14 H70 0.930 . S
C15 N12 1.314 . S
C15 C13 1.353 . S
C15 H71 0.930 . S
C16 N17 1.314 . S
C16 C21 1.353 . S
C16 H22 0.930 . S
N17 Li0 1.990 . S
N17 C16 1.314 . S
N17 C19 1.279 . S
C18 C19 1.358 . S
C18 C20 1.356 . S
C18 H72 0.930 . S
C19 N17 1.279 . S
C19 C18 1.358 . S
C19 H23 0.930 . S
C20 C18 1.356 . S
C20 C21 1.348 . S
C21 C16 1.353 . S
C21 C20 1.348 . S
C21 H73 0.929 . S
H22 C16 0.930 . S
H23 C19 0.930 . S
C24 N25 1.314 . S
C24 C26 1.353 . S
C24 H30 0.930 . S
N25 Li1 1.990 . S
N25 C24 1.314 . S
N25 C28 1.279 . S
C26 C24 1.353 . S
C26 C29 1.348 . S
C26 H74 0.929 . S
C27 C28 1.358 . S
C27 C29 1.356 . S
C27 H75 0.930 . S
C28 N25 1.279 . S
C28 C27 1.358 . S
C28 H31 0.930 . S
C29 C26 1.348 . S
C29 C27 1.356 . S
H30 C24 0.930 . S
H31 C28 0.930 . S
C32 C34 1.391 . S
C32 C35 1.368 . S
C32 O62 1.325 . S
N33 C36 1.314 . S
N33 C37 1.279 . S
C34 C32 1.391 . S
C34 C36 1.275 1_554 S
C34 H76 0.968 . S
C35 C32 1.368 . S
C35 C37 1.338 1_554 S
C35 H77 0.939 . S
C36 N33 1.314 . S
C36 C34 1.275 1_556 S
C36 H78 0.930 . S
C37 N33 1.279 . S
C37 C35 1.338 1_556 S
C37 H79 0.930 . S
C38 C39 1.348 . S
C38 C40 1.356 . S
C38 O63 1.325 . S
C39 C38 1.348 . S
C39 C41 1.353 . S
C39 H80 0.929 . S
C40 C38 1.356 . S
C40 C42 1.358 . S
C40 H81 0.930 . S
C41 C39 1.353 . S
C41 N43 1.314 . S
C41 H82 0.930 . S
C42 C40 1.358 . S
C42 N43 1.279 . S
C42 H83 0.930 . S
N43 C41 1.314 . S
N43 C42 1.279 . S
C44 C46 1.353 . S
C44 N47 1.314 . S
C44 H50 0.930 . S
C45 N47 1.279 . S
C45 C48 1.358 1_554 S
C45 H51 0.965 . S
C46 C44 1.353 . S
C46 C49 1.348 . S
C46 H84 0.929 . S
N47 Li2 1.990 . S
N47 C44 1.314 . S
N47 C45 1.279 . S
C48 C45 1.358 1_556 S
C48 C49 1.356 1_556 S
C48 H85 0.930 . S
C49 C46 1.348 . S
C49 C48 1.356 1_554 S
H50 C44 0.930 . S
H51 C45 0.965 . S
C52 N53 1.314 . S
C52 C54 1.353 . S
C52 H58 0.930 . S
N53 Li3 1.990 . S
N53 C52 1.314 . S
N53 C56 1.279 . S
C54 C52 1.353 . S
C54 C57 1.348 . S
C54 H86 0.929 . S
C55 C56 1.358 . S
C55 C57 1.356 . S
C55 H87 0.930 . S
C56 N53 1.279 . S
C56 C55 1.358 . S
C56 H59 0.930 . S
C57 C54 1.348 . S
C57 C55 1.356 . S
H58 C52 0.930 . S
H59 C56 0.930 . S
O60 Li0 1.956 . S
O60 Li1 1.970 . S
O60 Li2 1.961 . S
O60 C4 1.325 . S
O61 Li0 1.970 . S
O61 Li1 1.956 . S
O61 Li3 1.961 . S
O61 C10 1.325 . S
O62 Li0 1.961 . S
O62 Li2 1.956 . S
O62 Li3 1.970 . S
O62 C32 1.325 . S
O63 Li1 1.961 . S
O63 Li2 1.970 . S
O63 Li3 1.956 . S
O63 C38 1.325 . S
H64 C6 0.929 . S
H65 C7 0.930 . S
H66 C8 0.930 . S
H67 C9 0.930 . S
H68 C11 0.930 . S
H69 C13 0.929 . S
H70 C14 0.930 . S
H71 C15 0.930 . S
H72 C18 0.930 . S
H73 C21 0.929 . S
H74 C26 0.929 . S
H75 C27 0.930 . S
H76 C34 0.968 . S
H77 C35 0.939 . S
H78 C36 0.930 . S
H79 C37 0.930 . S
H80 C39 0.929 . S
H81 C40 0.930 . S
H82 C41 0.930 . S
H83 C42 0.930 . S
H84 C46 0.929 . S
H85 C48 0.930 . S
H86 C54 0.929 . S
H87 C55 0.930 . S
Li88 N105 1.990 . S
Li88 O148 1.956 . S
Li88 O149 1.970 . S
Li88 O150 1.961 . S
Li89 N113 1.990 . S
Li89 O148 1.970 . S
Li89 O149 1.956 . S
Li89 O151 1.961 . S
Li90 N135 1.990 . S
Li90 O148 1.961 . S
Li90 O150 1.956 . S
Li90 O151 1.970 . S
Li91 N141 1.990 . S
Li91 O149 1.961 . S
Li91 O150 1.970 . S
Li91 O151 1.956 . S
C92 C94 1.348 . S
C92 C95 1.356 . S
C92 O148 1.325 . S
N93 C96 1.314 . S
N93 C97 1.279 . S
C94 C92 1.348 . S
C94 C96 1.353 . S
C94 H152 0.929 . S
C95 C92 1.356 . S
C95 C97 1.358 . S
C95 H153 0.930 . S
C96 N93 1.314 . S
C96 C94 1.353 . S
C96 H154 0.930 . S
C97 N93 1.279 . S
C97 C95 1.358 . S
C97 H155 0.930 . S
C98 C101 1.348 . S
C98 C102 1.356 . S
C98 O149 1.325 . S
C99 N100 1.279 1_455 S
C99 C102 1.358 . S
C99 H156 0.930 1_455 S
N100 C99 1.279 1_655 S
N100 C103 1.314 1_655 S
C101 C98 1.348 . S
C101 C103 1.353 . S
C101 H157 0.929 . S
C102 C98 1.356 . S
C102 C99 1.358 . S
C102 H158 0.930 . S
C103 N100 1.314 1_455 S
C103 C101 1.353 . S
C103 H159 0.930 . S
C104 N105 1.314 . S
C104 C109 1.353 . S
C104 H110 0.930 . S
N105 Li88 1.990 . S
N105 C104 1.314 . S
N105 C107 1.279 . S
C106 C107 1.358 . S
C106 C108 1.356 . S
C106 H160 0.930 . S
C107 N105 1.279 . S
C107 C106 1.358 . S
C107 H111 0.930 . S
C108 C106 1.356 . S
C108 C109 1.348 . S
C109 C104 1.353 . S
C109 C108 1.348 . S
C109 H161 0.929 . S
H110 C104 0.930 . S
H111 C107 0.930 . S
C112 N113 1.314 . S
C112 C114 1.353 . S
C112 H118 0.930 . S
N113 Li89 1.990 . S
N113 C112 1.314 . S
N113 C116 1.279 . S
C114 C112 1.353 . S
C114 C117 1.348 . S
C114 H162 0.929 . S
C115 C116 1.358 . S
C115 C117 1.356 . S
C115 H163 0.930 . S
C116 N113 1.279 . S
C116 C115 1.358 . S
C116 H119 0.930 . S
C117 C114 1.348 . S
C117 C115 1.356 . S
H118 C112 0.930 . S
H119 C116 0.930 . S
C120 C122 1.348 . S
C120 C123 1.356 . S
C120 O150 1.325 . S
N121 C124 1.314 . S
N121 C125 1.279 . S
C122 C120 1.348 . S
C122 C124 1.353 . S
C122 H164 0.929 . S
C123 C120 1.356 . S
C123 C125 1.358 . S
C123 H165 0.930 . S
C124 N121 1.314 . S
C124 C122 1.353 . S
C124 H166 0.930 . S
C125 N121 1.279 . S
C125 C123 1.358 . S
C125 H167 0.930 . S
C126 C127 1.348 . S
C126 C128 1.356 . S
C126 O151 1.325 . S
C127 C126 1.348 . S
C127 C129 1.353 . S
C127 H168 0.929 . S
C128 C126 1.356 . S
C128 C130 1.358 . S
C128 H169 0.930 . S
C129 C127 1.353 . S
C129 N131 1.314 . S
C129 H170 0.930 . S
C130 C128 1.358 . S
C130 N131 1.279 . S
C130 H171 0.930 . S
N131 C129 1.314 . S
N131 C130 1.279 . S
C132 C134 1.353 . S
C132 N135 1.314 . S
C132 H138 0.930 . S
C133 N135 1.279 . S
C133 C136 1.358 . S
C133 H139 0.930 . S
C134 C132 1.353 . S
C134 C137 1.348 . S
C134 H172 0.929 . S
N135 Li90 1.990 . S
N135 C132 1.314 . S
N135 C133 1.279 . S
C136 C133 1.358 . S
C136 C137 1.356 . S
C136 H173 0.930 . S
C137 C134 1.348 . S
C137 C136 1.356 . S
H138 C132 0.930 . S
H139 C133 0.930 . S
C140 N141 1.294 1_655 S
C140 C142 1.365 . S
C140 H146 0.955 1_655 S
N141 Li91 1.990 . S
N141 C140 1.294 1_455 S
N141 C144 1.279 . S
C142 C140 1.365 . S
C142 C145 1.348 . S
C142 H174 0.929 . S
C143 C144 1.358 1_655 S
C143 C145 1.356 . S
C143 H175 0.930 . S
C144 N141 1.279 . S
C144 C143 1.358 1_455 S
C144 H147 0.930 . S
C145 C142 1.348 . S
C145 C143 1.356 . S
H146 C140 0.955 1_455 S
H147 C144 0.930 . S
O148 Li88 1.956 . S
O148 Li89 1.970 . S
O148 Li90 1.961 . S
O148 C92 1.325 . S
O149 Li88 1.970 . S
O149 Li89 1.956 . S
O149 Li91 1.961 . S
O149 C98 1.325 . S
O150 Li88 1.961 . S
O150 Li90 1.956 . S
O150 Li91 1.970 . S
O150 C120 1.325 . S
O151 Li89 1.961 . S
O151 Li90 1.970 . S
O151 Li91 1.956 . S
O151 C126 1.325 . S
H152 C94 0.929 . S
H153 C95 0.930 . S
H154 C96 0.930 . S
H155 C97 0.930 . S
H156 C99 0.930 1_655 S
H157 C101 0.929 . S
H158 C102 0.930 . S
H159 C103 0.930 . S
H160 C106 0.930 . S
H161 C109 0.929 . S
H162 C114 0.929 . S
H163 C115 0.930 . S
H164 C122 0.929 . S
H165 C123 0.930 . S
H166 C124 0.930 . S
H167 C125 0.930 . S
H168 C127 0.929 . S
H169 C128 0.930 . S
H170 C129 0.930 . S
H171 C130 0.930 . S
H172 C134 0.929 . S
H173 C136 0.930 . S
H174 C142 0.929 . S
H175 C143 0.930 . S
Li176 N193 1.990 . S
Li176 O236 1.956 . S
Li176 O237 1.970 . S
Li176 O238 1.961 . S
Li177 N201 1.990 . S
Li177 O236 1.970 . S
Li177 O237 1.956 . S
Li177 O239 1.961 . S
Li178 N223 1.990 . S
Li178 O236 1.961 . S
Li178 O238 1.956 . S
Li178 O239 1.970 . S
Li179 N229 1.990 . S
Li179 O237 1.961 . S
Li179 O238 1.970 . S
Li179 O239 1.956 . S
C180 C182 1.348 . S
C180 C183 1.356 . S
C180 O236 1.325 . S
N181 C184 1.314 1_565 S
N181 C185 1.279 1_565 S
C182 C180 1.348 . S
C182 C184 1.353 . S
C182 H240 0.929 . S
C183 C180 1.356 . S
C183 C185 1.358 . S
C183 H241 0.930 . S
C184 N181 1.314 1_545 S
C184 C182 1.353 . S
C184 H242 0.930 . S
C185 N181 1.279 1_545 S
C185 C183 1.358 . S
C185 H243 0.930 1_545 S
C186 C189 1.348 . S
C186 C190 1.356 . S
C186 O237 1.325 . S
C187 N188 1.279 . S
C187 C190 1.358 . S
C187 H244 0.930 . S
N188 C187 1.279 . S
N188 C191 1.314 . S
C189 C186 1.348 . S
C189 C191 1.353 . S
C189 H245 0.929 . S
C190 C186 1.356 . S
C190 C187 1.358 . S
C190 H246 0.930 . S
C191 N188 1.314 . S
C191 C189 1.353 . S
C191 H247 0.930 . S
C192 N193 1.314 . S
C192 C197 1.353 . S
C192 H198 0.930 . S
N193 Li176 1.990 . S
N193 C192 1.314 . S
N193 C195 1.279 . S
C194 C195 1.358 . S
C194 C196 1.356 . S
C194 H248 0.930 . S
C195 N193 1.279 . S
C195 C194 1.358 . S
C195 H199 0.930 . S
C196 C194 1.356 . S
C196 C197 1.348 . S
C197 C192 1.353 . S
C197 C196 1.348 . S
C197 H249 0.929 . S
H198 C192 0.930 . S
H199 C195 0.930 . S
C200 N201 1.314 . S
C200 C202 1.353 . S
C200 H206 0.930 . S
N201 Li177 1.990 . S
N201 C200 1.314 . S
N201 C204 1.279 . S
C202 C200 1.353 . S
C202 C205 1.348 . S
C202 H250 0.929 . S
C203 C204 1.358 . S
C203 C205 1.356 . S
C203 H251 0.930 . S
C204 N201 1.279 . S
C204 C203 1.358 . S
C204 H207 0.930 . S
C205 C202 1.348 . S
C205 C203 1.356 . S
H206 C200 0.930 . S
H207 C204 0.930 . S
C208 C210 1.348 . S
C208 C211 1.356 . S
C208 O238 1.325 . S
N209 C212 1.314 . S
N209 C213 1.279 . S
C210 C208 1.348 . S
C210 C212 1.353 . S
C210 H252 0.929 . S
C211 C208 1.356 . S
C211 C213 1.358 . S
C211 H253 0.930 . S
C212 N209 1.314 . S
C212 C210 1.353 . S
C212 H254 0.930 . S
C213 N209 1.279 . S
C213 C211 1.358 . S
C213 H255 0.930 . S
C214 C215 1.348 . S
C214 C216 1.356 . S
C214 O239 1.325 . S
C215 C214 1.348 . S
C215 C217 1.353 . S
C215 H256 0.929 . S
C216 C214 1.356 . S
C216 C218 1.358 . S
C216 H257 0.930 . S
C217 C215 1.353 . S
C217 N219 1.314 . S
C217 H258 0.930 . S
C218 C216 1.358 . S
C218 N219 1.279 . S
C218 H259 0.930 . S
N219 C217 1.314 . S
N219 C218 1.279 . S
C220 C222 1.374 . S
C220 N223 1.304 1_565 S
C220 H226 0.900 1_565 S
C221 N223 1.279 . S
C221 C224 1.358 1_545 S
C221 H227 0.930 . S
C222 C220 1.374 . S
C222 C225 1.348 . S
C222 H260 0.929 . S
N223 Li178 1.990 . S
N223 C220 1.304 1_545 S
N223 C221 1.279 . S
C224 C221 1.358 1_565 S
C224 C225 1.356 . S
C224 H261 0.930 . S
C225 C222 1.348 . S
C225 C224 1.356 . S
H226 C220 0.900 1_545 S
H227 C221 0.930 . S
C228 N229 1.314 . S
C228 C230 1.353 . S
C228 H234 0.930 . S
N229 Li179 1.990 . S
N229 C228 1.314 . S
N229 C232 1.279 . S
C230 C228 1.353 . S
C230 C233 1.348 . S
C230 H262 0.929 . S
C231 C232 1.358 . S
C231 C233 1.356 . S
C231 H263 0.930 . S
C232 N229 1.279 . S
C232 C231 1.358 . S
C232 H235 0.930 . S
C233 C230 1.348 . S
C233 C231 1.356 . S
H234 C228 0.930 . S
H235 C232 0.930 . S
O236 Li176 1.956 . S
O236 Li177 1.970 . S
O236 Li178 1.961 . S
O236 C180 1.325 . S
O237 Li176 1.970 . S
O237 Li177 1.956 . S
O237 Li179 1.961 . S
O237 C186 1.325 . S
O238 Li176 1.961 . S
O238 Li178 1.956 . S
O238 Li179 1.970 . S
O238 C208 1.325 . S
O239 Li177 1.961 . S
O239 Li178 1.970 . S
O239 Li179 1.956 . S
O239 C214 1.325 . S
H240 C182 0.929 . S
H241 C183 0.930 . S
H242 C184 0.930 . S
H243 C185 0.930 1_565 S
H244 C187 0.930 . S
H245 C189 0.929 . S
H246 C190 0.930 . S
H247 C191 0.930 . S
H248 C194 0.930 . S
H249 C197 0.929 . S
H250 C202 0.929 . S
H251 C203 0.930 . S
H252 C210 0.929 . S
H253 C211 0.930 . S
H254 C212 0.930 . S
H255 C213 0.930 . S
H256 C215 0.929 . S
H257 C216 0.930 . S
H258 C217 0.930 . S
H259 C218 0.930 . S
H260 C222 0.929 . S
H261 C224 0.930 . S
H262 C230 0.929 . S
H263 C231 0.930 . S
Li264 N281 1.990 . S
Li264 O324 1.956 . S
Li264 O325 1.970 . S
Li264 O326 1.961 . S
Li265 N289 1.990 . S
Li265 O324 1.970 . S
Li265 O325 1.956 . S
Li265 O327 1.961 . S
Li266 N311 1.990 . S
Li266 O324 1.961 . S
Li266 O326 1.956 . S
Li266 O327 1.970 . S
Li267 N317 1.990 . S
Li267 O325 1.961 . S
Li267 O326 1.970 . S
Li267 O327 1.956 . S
C268 C270 1.348 . S
C268 C271 1.356 . S
C268 O324 1.325 . S
N269 C272 1.314 . S
N269 C273 1.279 . S
C270 C268 1.348 . S
C270 C272 1.353 . S
C270 H328 0.929 . S
C271 C268 1.356 . S
C271 C273 1.358 . S
C271 H329 0.930 . S
C272 N269 1.314 . S
C272 C270 1.353 . S
C272 H330 0.930 . S
C273 N269 1.279 . S
C273 C271 1.358 . S
C273 H331 0.930 . S
C274 C277 1.348 . S
C274 C278 1.356 . S
C274 O325 1.325 . S
C275 N276 1.279 . S
C275 C278 1.358 . S
C275 H332 0.930 . S
N276 C275 1.279 . S
N276 C279 1.314 . S
C277 C274 1.348 . S
C277 C279 1.353 . S
C277 H333 0.929 . S
C278 C274 1.356 . S
C278 C275 1.358 . S
C278 H334 0.930 . S
C279 N276 1.314 . S
C279 C277 1.353 . S
C279 H335 0.930 . S
C280 N281 1.314 . S
C280 C285 1.353 . S
C280 H286 0.930 . S
N281 Li264 1.990 . S
N281 C280 1.314 . S
N281 C283 1.279 . S
C282 C283 1.358 . S
C282 C284 1.356 . S
C282 H336 0.930 . S
C283 N281 1.279 . S
C283 C282 1.358 . S
C283 H287 0.930 . S
C284 C282 1.356 . S
C284 C285 1.348 . S
C285 C280 1.353 . S
C285 C284 1.348 . S
C285 H337 0.929 . S
H286 C280 0.930 . S
H287 C283 0.930 . S
C288 N289 1.314 . S
C288 C290 1.353 . S
C288 H294 0.930 . S
N289 Li265 1.990 . S
N289 C288 1.314 . S
N289 C292 1.279 . S
C290 C288 1.353 . S
C290 C293 1.348 . S
C290 H338 0.929 . S
C291 C292 1.358 . S
C291 C293 1.356 . S
C291 H339 0.930 . S
C292 N289 1.279 . S
C292 C291 1.358 . S
C292 H295 0.930 . S
C293 C290 1.348 . S
C293 C291 1.356 . S
H294 C288 0.930 . S
H295 C292 0.930 . S
C296 C298 1.348 . S
C296 C299 1.356 . S
C296 O326 1.325 . S
N297 C300 1.314 . S
N297 C301 1.279 . S
C298 C296 1.348 . S
C298 C300 1.353 . S
C298 H340 0.929 . S
C299 C296 1.356 . S
C299 C301 1.358 . S
C299 H341 0.930 . S
C300 N297 1.314 . S
C300 C298 1.353 . S
C300 H342 0.930 . S
C301 N297 1.279 . S
C301 C299 1.358 . S
C301 H343 0.930 . S
C302 C303 1.391 . S
C302 C304 1.368 . S
C302 O327 1.325 . S
C303 C302 1.391 . S
C303 C305 1.275 1_554 S
C303 H344 0.968 . S
C304 C302 1.368 . S
C304 C306 1.338 1_554 S
C304 H345 0.939 . S
C305 C303 1.275 1_556 S
C305 N307 1.314 . S
C305 H346 0.930 . S
C306 C304 1.338 1_556 S
C306 N307 1.279 . S
C306 H347 0.930 . S
N307 C305 1.314 . S
N307 C306 1.279 . S
C308 C310 1.353 . S
C308 N311 1.314 . S
C308 H314 0.930 . S
C309 N311 1.279 . S
C309 C312 1.358 . S
C309 H315 0.930 . S
C310 C308 1.353 . S
C310 C313 1.348 . S
C310 H348 0.929 . S
N311 Li266 1.990 . S
N311 C308 1.314 . S
N311 C309 1.279 . S
C312 C309 1.358 . S
C312 C313 1.356 . S
C312 H349 0.930 . S
C313 C310 1.348 . S
C313 C312 1.356 . S
H314 C308 0.930 . S
H315 C309 0.930 . S
C316 N317 1.314 . S
C316 C318 1.353 . S
C316 H322 0.930 . S
N317 Li267 1.990 . S
N317 C316 1.314 . S
N317 C320 1.279 . S
C318 C316 1.353 . S
C318 C321 1.348 . S
C318 H350 0.929 . S
C319 C320 1.358 1_556 S
C319 C321 1.356 1_556 S
C319 H351 0.930 . S
C320 N317 1.279 . S
C320 C319 1.358 1_554 S
C320 H323 0.965 . S
C321 C318 1.348 . S
C321 C319 1.356 1_554 S
H322 C316 0.930 . S
H323 C320 0.965 . S
O324 Li264 1.956 . S
O324 Li265 1.970 . S
O324 Li266 1.961 . S
O324 C268 1.325 . S
O325 Li264 1.970 . S
O325 Li265 1.956 . S
O325 Li267 1.961 . S
O325 C274 1.325 . S
O326 Li264 1.961 . S
O326 Li266 1.956 . S
O326 Li267 1.970 . S
O326 C296 1.325 . S
O327 Li265 1.961 . S
O327 Li266 1.970 . S
O327 Li267 1.956 . S
O327 C302 1.325 . S
H328 C270 0.929 . S
H329 C271 0.930 . S
H330 C272 0.930 . S
H331 C273 0.930 . S
H332 C275 0.930 . S
H333 C277 0.929 . S
H334 C278 0.930 . S
H335 C279 0.930 . S
H336 C282 0.930 . S
H337 C285 0.929 . S
H338 C290 0.929 . S
H339 C291 0.930 . S
H340 C298 0.929 . S
H341 C299 0.930 . S
H342 C300 0.930 . S
H343 C301 0.930 . S
H344 C303 0.968 . S
H345 C304 0.939 . S
H346 C305 0.930 . S
H347 C306 0.930 . S
H348 C310 0.929 . S
H349 C312 0.930 . S
H350 C318 0.929 . S
H351 C319 0.930 . S
Li352 N369 1.990 . S
Li352 O412 1.956 . S
Li352 O413 1.970 . S
Li352 O414 1.961 . S
Li353 N377 1.990 . S
Li353 O412 1.970 . S
Li353 O413 1.956 . S
Li353 O415 1.961 . S
Li354 N399 1.990 . S
Li354 O412 1.961 . S
Li354 O414 1.956 . S
Li354 O415 1.970 . S
Li355 N405 1.990 . S
Li355 O413 1.961 . S
Li355 O414 1.970 . S
Li355 O415 1.956 . S
C356 C358 1.348 . S
C356 C359 1.356 . S
C356 O412 1.325 . S
N357 C360 1.314 . S
N357 C361 1.279 . S
C358 C356 1.348 . S
C358 C360 1.353 . S
C358 H416 0.929 . S
C359 C356 1.356 . S
C359 C361 1.358 . S
C359 H417 0.930 . S
C360 N357 1.314 . S
C360 C358 1.353 . S
C360 H418 0.930 . S
C361 N357 1.279 . S
C361 C359 1.358 . S
C361 H419 0.930 . S
C362 C365 1.348 . S
C362 C366 1.356 . S
C362 O413 1.325 . S
C363 N364 1.279 1_655 S
C363 C366 1.358 . S
C363 H420 0.930 1_655 S
N364 C363 1.279 1_455 S
N364 C367 1.314 1_455 S
C365 C362 1.348 . S
C365 C367 1.353 . S
C365 H421 0.929 . S
C366 C362 1.356 . S
C366 C363 1.358 . S
C366 H422 0.930 . S
C367 N364 1.314 1_655 S
C367 C365 1.353 . S
C367 H423 0.930 . S
C368 N369 1.314 . S
C368 C373 1.353 . S
C368 H374 0.930 . S
N369 Li352 1.990 . S
N369 C368 1.314 . S
N369 C371 1.279 . S
C370 C371 1.358 . S
C370 C372 1.356 . S
C370 H424 0.930 . S
C371 N369 1.279 . S
C371 C370 1.358 . S
C371 H375 0.930 . S
C372 C370 1.356 . S
C372 C373 1.348 . S
C373 C368 1.353 . S
C373 C372 1.348 . S
C373 H425 0.929 . S
H374 C368 0.930 . S
H375 C371 0.930 . S
C376 N377 1.314 . S
C376 C378 1.353 . S
C376 H382 0.930 . S
N377 Li353 1.990 . S
N377 C376 1.314 . S
N377 C380 1.279 . S
C378 C376 1.353 . S
C378 C381 1.348 . S
C378 H426 0.929 . S
C379 C380 1.358 . S
C379 C381 1.356 . S
C379 H427 0.930 . S
C380 N377 1.279 . S
C380 C379 1.358 . S
C380 H383 0.930 . S
C381 C378 1.348 . S
C381 C379 1.356 . S
H382 C376 0.930 . S
H383 C380 0.930 . S
C384 C386 1.348 . S
C384 C387 1.356 . S
C384 O414 1.325 . S
N385 C388 1.314 . S
N385 C389 1.279 . S
C386 C384 1.348 . S
C386 C388 1.353 . S
C386 H428 0.929 . S
C387 C384 1.356 . S
C387 C389 1.358 . S
C387 H429 0.930 . S
C388 N385 1.314 . S
C388 C386 1.353 . S
C388 H430 0.930 . S
C389 N385 1.279 . S
C389 C387 1.358 . S
C389 H431 0.930 . S
C390 C391 1.348 . S
C390 C392 1.356 . S
C390 O415 1.325 . S
C391 C390 1.348 . S
C391 C393 1.353 . S
C391 H432 0.929 . S
C392 C390 1.356 . S
C392 C394 1.358 . S
C392 H433 0.930 . S
C393 C391 1.353 . S
C393 N395 1.314 . S
C393 H434 0.930 . S
C394 C392 1.358 . S
C394 N395 1.279 . S
C394 H435 0.930 . S
N395 C393 1.314 . S
N395 C394 1.279 . S
C396 C398 1.353 . S
C396 N399 1.314 . S
C396 H402 0.930 . S
C397 N399 1.279 . S
C397 C400 1.358 . S
C397 H403 0.930 . S
C398 C396 1.353 . S
C398 C401 1.348 . S
C398 H436 0.929 . S
N399 Li354 1.990 . S
N399 C396 1.314 . S
N399 C397 1.279 . S
C400 C397 1.358 . S
C400 C401 1.356 . S
C400 H437 0.930 . S
C401 C398 1.348 . S
C401 C400 1.356 . S
H402 C396 0.930 . S
H403 C397 0.930 . S
C404 N405 1.294 1_455 S
C404 C406 1.365 . S
C404 H410 0.955 1_455 S
N405 Li355 1.990 . S
N405 C404 1.294 1_655 S
N405 C408 1.279 . S
C406 C404 1.365 . S
C406 C409 1.348 . S
C406 H438 0.929 . S
C407 C408 1.358 1_455 S
C407 C409 1.356 . S
C407 H439 0.930 . S
C408 N405 1.279 . S
C408 C407 1.358 1_655 S
C408 H411 0.930 . S
C409 C406 1.348 . S
C409 C407 1.356 . S
H410 C404 0.955 1_655 S
H411 C408 0.930 . S
O412 Li352 1.956 . S
O412 Li353 1.970 . S
O412 Li354 1.961 . S
O412 C356 1.325 . S
O413 Li352 1.970 . S
O413 Li353 1.956 . S
O413 Li355 1.961 . S
O413 C362 1.325 . S
O414 Li352 1.961 . S
O414 Li354 1.956 . S
O414 Li355 1.970 . S
O414 C384 1.325 . S
O415 Li353 1.961 . S
O415 Li354 1.970 . S
O415 Li355 1.956 . S
O415 C390 1.325 . S
H416 C358 0.929 . S
H417 C359 0.930 . S
H418 C360 0.930 . S
H419 C361 0.930 . S
H420 C363 0.930 1_455 S
H421 C365 0.929 . S
H422 C366 0.930 . S
H423 C367 0.930 . S
H424 C370 0.930 . S
H425 C373 0.929 . S
H426 C378 0.929 . S
H427 C379 0.930 . S
H428 C386 0.929 . S
H429 C387 0.930 . S
H430 C388 0.930 . S
H431 C389 0.930 . S
H432 C391 0.929 . S
H433 C392 0.930 . S
H434 C393 0.930 . S
H435 C394 0.930 . S
H436 C398 0.929 . S
H437 C400 0.930 . S
H438 C406 0.929 . S
H439 C407 0.930 . S
Li440 N457 1.990 . S
Li440 O500 1.956 . S
Li440 O501 1.970 . S
Li440 O502 1.961 . S
Li441 N465 1.990 . S
Li441 O500 1.970 . S
Li441 O501 1.956 . S
Li441 O503 1.961 . S
Li442 N487 1.990 . S
Li442 O500 1.961 . S
Li442 O502 1.956 . S
Li442 O503 1.970 . S
Li443 N493 1.990 . S
Li443 O501 1.961 . S
Li443 O502 1.970 . S
Li443 O503 1.956 . S
C444 C446 1.348 . S
C444 C447 1.356 . S
C444 O500 1.325 . S
N445 C448 1.314 . S
N445 C449 1.279 . S
C446 C444 1.348 . S
C446 C448 1.353 . S
C446 H504 0.929 . S
C447 C444 1.356 . S
C447 C449 1.358 . S
C447 H505 0.930 . S
C448 N445 1.314 . S
C448 C446 1.353 . S
C448 H506 0.930 . S
C449 N445 1.279 . S
C449 C447 1.358 . S
C449 H507 0.930 . S
C450 C453 1.348 . S
C450 C454 1.356 . S
C450 O501 1.325 . S
C451 N452 1.279 1_565 S
C451 C454 1.358 . S
C451 H508 0.930 1_565 S
N452 C451 1.279 1_545 S
N452 C455 1.314 1_545 S
C453 C450 1.348 . S
C453 C455 1.353 . S
C453 H509 0.929 . S
C454 C450 1.356 . S
C454 C451 1.358 . S
C454 H510 0.930 . S
C455 N452 1.314 1_565 S
C455 C453 1.353 . S
C455 H511 0.930 . S
C456 N457 1.314 . S
C456 C461 1.353 . S
C456 H462 0.930 . S
N457 Li440 1.990 . S
N457 C456 1.314 . S
N457 C459 1.279 . S
C458 C459 1.358 . S
C458 C460 1.356 . S
C458 H512 0.930 . S
C459 N457 1.279 . S
C459 C458 1.358 . S
C459 H463 0.930 . S
C460 C458 1.356 . S
C460 C461 1.348 . S
C461 C456 1.353 . S
C461 C460 1.348 . S
C461 H513 0.929 . S
H462 C456 0.930 . S
H463 C459 0.930 . S
C464 N465 1.314 . S
C464 C466 1.353 . S
C464 H470 0.930 . S
N465 Li441 1.990 . S
N465 C464 1.314 . S
N465 C468 1.279 . S
C466 C464 1.353 . S
C466 C469 1.348 . S
C466 H514 0.929 . S
C467 C468 1.358 . S
C467 C469 1.356 . S
C467 H515 0.930 . S
C468 N465 1.279 . S
C468 C467 1.358 . S
C468 H471 0.930 . S
C469 C466 1.348 . S
C469 C467 1.356 . S
H470 C464 0.930 . S
H471 C468 0.930 . S
C472 C474 1.348 . S
C472 C475 1.356 . S
C472 O502 1.325 . S
N473 C476 1.314 . S
N473 C477 1.279 . S
C474 C472 1.348 . S
C474 C476 1.353 . S
C474 H516 0.929 . S
C475 C472 1.356 . S
C475 C477 1.358 . S
C475 H517 0.930 . S
C476 N473 1.314 . S
C476 C474 1.353 . S
C476 H518 0.930 . S
C477 N473 1.279 . S
C477 C475 1.358 . S
C477 H519 0.930 . S
C478 C479 1.348 . S
C478 C480 1.356 . S
C478 O503 1.325 . S
C479 C478 1.348 . S
C479 C481 1.353 . S
C479 H520 0.929 . S
C480 C478 1.356 . S
C480 C482 1.358 . S
C480 H521 0.930 . S
C481 C479 1.353 . S
C481 N483 1.314 . S
C481 H522 0.930 . S
C482 C480 1.358 . S
C482 N483 1.279 . S
C482 H523 0.930 . S
N483 C481 1.314 . S
N483 C482 1.279 . S
C484 C486 1.353 . S
C484 N487 1.314 . S
C484 H490 0.930 . S
C485 N487 1.279 . S
C485 C488 1.358 . S
C485 H491 0.930 . S
C486 C484 1.353 . S
C486 C489 1.348 . S
C486 H524 0.929 . S
N487 Li442 1.990 . S
N487 C484 1.314 . S
N487 C485 1.279 . S
C488 C485 1.358 . S
C488 C489 1.356 . S
C488 H525 0.930 . S
C489 C486 1.348 . S
C489 C488 1.356 . S
H490 C484 0.930 . S
H491 C485 0.930 . S
C492 N493 1.304 1_545 S
C492 C494 1.374 . S
C492 H498 0.900 1_545 S
N493 Li443 1.990 . S
N493 C492 1.304 1_565 S
N493 C496 1.279 . S
C494 C492 1.374 . S
C494 C497 1.348 . S
C494 H526 0.929 . S
C495 C496 1.358 1_545 S
C495 C497 1.356 . S
C495 H527 0.930 . S
C496 N493 1.279 . S
C496 C495 1.358 1_565 S
C496 H499 0.930 . S
C497 C494 1.348 . S
C497 C495 1.356 . S
H498 C492 0.900 1_565 S
H499 C496 0.930 . S
O500 Li440 1.956 . S
O500 Li441 1.970 . S
O500 Li442 1.961 . S
O500 C444 1.325 . S
O501 Li440 1.970 . S
O501 Li441 1.956 . S
O501 Li443 1.961 . S
O501 C450 1.325 . S
O502 Li440 1.961 . S
O502 Li442 1.956 . S
O502 Li443 1.970 . S
O502 C472 1.325 . S
O503 Li441 1.961 . S
O503 Li442 1.970 . S
O503 Li443 1.956 . S
O503 C478 1.325 . S
H504 C446 0.929 . S
H505 C447 0.930 . S
H506 C448 0.930 . S
H507 C449 0.930 . S
H508 C451 0.930 1_545 S
H509 C453 0.929 . S
H510 C454 0.930 . S
H511 C455 0.930 . S
H512 C458 0.930 . S
H513 C461 0.929 . S
H514 C466 0.929 . S
H515 C467 0.930 . S
H516 C474 0.929 . S
H517 C475 0.930 . S
H518 C476 0.930 . S
H519 C477 0.930 . S
H520 C479 0.929 . S
H521 C480 0.930 . S
H522 C481 0.930 . S
H523 C482 0.930 . S
H524 C486 0.929 . S
H525 C488 0.930 . S
H526 C494 0.929 . S
H527 C495 0.930 . S
Li528 N545 1.990 . S
Li528 O588 1.956 . S
Li528 O589 1.970 . S
Li528 O590 1.961 . S
Li529 N553 1.990 . S
Li529 O588 1.970 . S
Li529 O589 1.956 . S
Li529 O591 1.961 . S
Li530 N575 1.990 . S
Li530 O588 1.961 . S
Li530 O590 1.956 . S
Li530 O591 1.970 . S
Li531 N581 1.990 . S
Li531 O589 1.961 . S
Li531 O590 1.970 . S
Li531 O591 1.956 . S
C532 C534 1.348 . S
C532 C535 1.356 . S
C532 O588 1.325 . S
N533 C536 1.314 . S
N533 C537 1.279 . S
C534 C532 1.348 . S
C534 C536 1.353 . S
C534 H592 0.929 . S
C535 C532 1.356 . S
C535 C537 1.358 . S
C535 H593 0.930 . S
C536 N533 1.314 . S
C536 C534 1.353 . S
C536 H594 0.930 . S
C537 N533 1.279 . S
C537 C535 1.358 . S
C537 H595 0.930 . S
C538 C541 1.348 . S
C538 C542 1.356 . S
C538 O589 1.325 . S
C539 N540 1.279 . S
C539 C542 1.358 . S
C539 H596 0.930 . S
N540 C539 1.279 . S
N540 C543 1.314 . S
C541 C538 1.348 . S
C541 C543 1.353 . S
C541 H597 0.929 . S
C542 C538 1.356 . S
C542 C539 1.358 . S
C542 H598 0.930 . S
C543 N540 1.314 . S
C543 C541 1.353 . S
C543 H599 0.930 . S
C544 N545 1.314 . S
C544 C549 1.353 . S
C544 H550 0.930 . S
N545 Li528 1.990 . S
N545 C544 1.314 . S
N545 C547 1.279 . S
C546 C547 1.358 . S
C546 C548 1.356 . S
C546 H600 0.930 . S
C547 N545 1.279 . S
C547 C546 1.358 . S
C547 H551 0.930 . S
C548 C546 1.356 . S
C548 C549 1.348 . S
C549 C544 1.353 . S
C549 C548 1.348 . S
C549 H601 0.929 . S
H550 C544 0.930 . S
H551 C547 0.930 . S
C552 N553 1.314 . S
C552 C554 1.353 . S
C552 H558 0.930 . S
N553 Li529 1.990 . S
N553 C552 1.314 . S
N553 C556 1.279 . S
C554 C552 1.353 . S
C554 C557 1.348 . S
C554 H602 0.929 . S
C555 C556 1.358 . S
C555 C557 1.356 . S
C555 H603 0.930 . S
C556 N553 1.279 . S
C556 C555 1.358 . S
C556 H559 0.930 . S
C557 C554 1.348 . S
C557 C555 1.356 . S
H558 C552 0.930 . S
H559 C556 0.930 . S
C560 C562 1.348 . S
C560 C563 1.356 . S
C560 O590 1.325 . S
N561 C564 1.314 . S
N561 C565 1.279 . S
C562 C560 1.348 . S
C562 C564 1.353 . S
C562 H604 0.929 . S
C563 C560 1.356 . S
C563 C565 1.358 . S
C563 H605 0.930 . S
C564 N561 1.314 . S
C564 C562 1.353 . S
C564 H606 0.930 . S
C565 N561 1.279 . S
C565 C563 1.358 . S
C565 H607 0.930 . S
C566 C567 1.348 . S
C566 C568 1.356 . S
C566 O591 1.325 . S
C567 C566 1.348 . S
C567 C569 1.353 . S
C567 H608 0.929 . S
C568 C566 1.356 . S
C568 C570 1.358 . S
C568 H609 0.930 . S
C569 C567 1.353 . S
C569 N571 1.314 . S
C569 H610 0.930 . S
C570 C568 1.358 . S
C570 N571 1.279 . S
C570 H611 0.930 . S
N571 C569 1.314 . S
N571 C570 1.279 . S
C572 C574 1.353 . S
C572 N575 1.314 . S
C572 H578 0.930 . S
C573 N575 1.279 . S
C573 C576 1.358 . S
C573 H579 0.930 . S
C574 C572 1.353 . S
C574 C577 1.348 . S
C574 H612 0.929 . S
N575 Li530 1.990 . S
N575 C572 1.314 . S
N575 C573 1.279 . S
C576 C573 1.358 . S
C576 C577 1.356 . S
C576 H613 0.930 . S
C577 C574 1.348 . S
C577 C576 1.356 . S
H578 C572 0.930 . S
H579 C573 0.930 . S
C580 N581 1.314 . S
C580 C582 1.353 . S
C580 H586 0.930 . S
N581 Li531 1.990 . S
N581 C580 1.314 . S
N581 C584 1.279 . S
C582 C580 1.353 . S
C582 C585 1.348 . S
C582 H614 0.929 . S
C583 C584 1.358 . S
C583 C585 1.356 . S
C583 H615 0.930 . S
C584 N581 1.279 . S
C584 C583 1.358 . S
C584 H587 0.930 . S
C585 C582 1.348 . S
C585 C583 1.356 . S
H586 C580 0.930 . S
H587 C584 0.930 . S
O588 Li528 1.956 . S
O588 Li529 1.970 . S
O588 Li530 1.961 . S
O588 C532 1.325 . S
O589 Li528 1.970 . S
O589 Li529 1.956 . S
O589 Li531 1.961 . S
O589 C538 1.325 . S
O590 Li528 1.961 . S
O590 Li530 1.956 . S
O590 Li531 1.970 . S
O590 C560 1.325 . S
O591 Li529 1.961 . S
O591 Li530 1.970 . S
O591 Li531 1.956 . S
O591 C566 1.325 . S
H592 C534 0.929 . S
H593 C535 0.930 . S
H594 C536 0.930 . S
H595 C537 0.930 . S
H596 C539 0.930 . S
H597 C541 0.929 . S
H598 C542 0.930 . S
H599 C543 0.930 . S
H600 C546 0.930 . S
H601 C549 0.929 . S
H602 C554 0.929 . S
H603 C555 0.930 . S
H604 C562 0.929 . S
H605 C563 0.930 . S
H606 C564 0.930 . S
H607 C565 0.930 . S
H608 C567 0.929 . S
H609 C568 0.930 . S
H610 C569 0.930 . S
H611 C570 0.930 . S
H612 C574 0.929 . S
H613 C576 0.930 . S
H614 C582 0.929 . S
H615 C583 0.930 . S
Li616 N633 1.990 . S
Li616 O676 1.956 . S
Li616 O677 1.970 . S
Li616 O678 1.961 . S
Li617 N641 1.990 . S
Li617 O676 1.970 . S
Li617 O677 1.956 . S
Li617 O679 1.961 . S
Li618 N663 1.990 . S
Li618 O676 1.961 . S
Li618 O678 1.956 . S
Li618 O679 1.970 . S
Li619 N669 1.990 . S
Li619 O677 1.961 . S
Li619 O678 1.970 . S
Li619 O679 1.956 . S
C620 C622 1.391 . S
C620 C623 1.368 . S
C620 O676 1.325 . S
N621 C624 1.314 . S
N621 C625 1.279 . S
C622 C620 1.391 . S
C622 C624 1.275 1_556 S
C622 H680 0.968 . S
C623 C620 1.368 . S
C623 C625 1.338 1_556 S
C623 H681 0.939 . S
C624 N621 1.314 . S
C624 C622 1.275 1_554 S
C624 H682 0.930 . S
C625 N621 1.279 . S
C625 C623 1.338 1_554 S
C625 H683 0.930 . S
C626 C629 1.348 . S
C626 C630 1.356 . S
C626 O677 1.325 . S
C627 N628 1.279 . S
C627 C630 1.358 . S
C627 H684 0.930 . S
N628 C627 1.279 . S
N628 C631 1.314 . S
C629 C626 1.348 . S
C629 C631 1.353 . S
C629 H685 0.929 . S
C630 C626 1.356 . S
C630 C627 1.358 . S
C630 H686 0.930 . S
C631 N628 1.314 . S
C631 C629 1.353 . S
C631 H687 0.930 . S
C632 N633 1.314 . S
C632 C637 1.353 . S
C632 H638 0.930 . S
N633 Li616 1.990 . S
N633 C632 1.314 . S
N633 C635 1.279 . S
C634 C635 1.358 1_554 S
C634 C636 1.356 1_554 S
C634 H688 0.930 . S
C635 N633 1.279 . S
C635 C634 1.358 1_556 S
C635 H639 0.965 . S
C636 C634 1.356 1_556 S
C636 C637 1.348 . S
C637 C632 1.353 . S
C637 C636 1.348 . S
C637 H689 0.929 . S
H638 C632 0.930 . S
H639 C635 0.965 . S
C640 N641 1.304 1_655 S
C640 C642 1.374 . S
C640 H646 0.900 1_655 S
N641 Li617 1.990 . S
N641 C640 1.304 1_455 S
N641 C644 1.279 . S
C642 C640 1.374 . S
C642 C645 1.348 . S
C642 H690 0.929 . S
C643 C644 1.358 1_655 S
C643 C645 1.356 . S
C643 H691 0.930 . S
C644 N641 1.279 . S
C644 C643 1.358 1_455 S
C644 H647 0.930 . S
C645 C642 1.348 . S
C645 C643 1.356 . S
H646 C640 0.900 1_455 S
H647 C644 0.930 . S
C648 C650 1.348 . S
C648 C651 1.356 . S
C648 O678 1.325 . S
N649 C652 1.314 . S
N649 C653 1.279 . S
C650 C648 1.348 . S
C650 C652 1.353 . S
C650 H692 0.929 . S
C651 C648 1.356 . S
C651 C653 1.358 . S
C651 H693 0.930 . S
C652 N649 1.314 . S
C652 C650 1.353 . S
C652 H694 0.930 . S
C653 N649 1.279 . S
C653 C651 1.358 . S
C653 H695 0.930 . S
C654 C655 1.348 . S
C654 C656 1.356 . S
C654 O679 1.325 . S
C655 C654 1.348 . S
C655 C657 1.353 . S
C655 H696 0.929 . S
C656 C654 1.356 . S
C656 C658 1.358 . S
C656 H697 0.930 . S
C657 C655 1.353 . S
C657 N659 1.314 1_455 S
C657 H698 0.930 . S
C658 C656 1.358 . S
C658 N659 1.279 1_455 S
C658 H699 0.930 1_455 S
N659 C657 1.314 1_655 S
N659 C658 1.279 1_655 S
C660 C662 1.353 . S
C660 N663 1.314 . S
C660 H666 0.930 . S
C661 N663 1.279 . S
C661 C664 1.358 . S
C661 H667 0.930 . S
C662 C660 1.353 . S
C662 C665 1.348 . S
C662 H700 0.929 . S
N663 Li618 1.990 . S
N663 C660 1.314 . S
N663 C661 1.279 . S
C664 C661 1.358 . S
C664 C665 1.356 . S
C664 H701 0.930 . S
C665 C662 1.348 . S
C665 C664 1.356 . S
H666 C660 0.930 . S
H667 C661 0.930 . S
C668 N669 1.314 . S
C668 C670 1.353 . S
C668 H674 0.930 . S
N669 Li619 1.990 . S
N669 C668 1.314 . S
N669 C672 1.279 . S
C670 C668 1.353 . S
C670 C673 1.348 . S
C670 H702 0.929 . S
C671 C672 1.358 . S
C671 C673 1.356 . S
C671 H703 0.930 . S
C672 N669 1.279 . S
C672 C671 1.358 . S
C672 H675 0.930 . S
C673 C670 1.348 . S
C673 C671 1.356 . S
H674 C668 0.930 . S
H675 C672 0.930 . S
O676 Li616 1.956 . S
O676 Li617 1.970 . S
O676 Li618 1.961 . S
O676 C620 1.325 . S
O677 Li616 1.970 . S
O677 Li617 1.956 . S
O677 Li619 1.961 . S
O677 C626 1.325 . S
O678 Li616 1.961 . S
O678 Li618 1.956 . S
O678 Li619 1.970 . S
O678 C648 1.325 . S
O679 Li617 1.961 . S
O679 Li618 1.970 . S
O679 Li619 1.956 . S
O679 C654 1.325 . S
H680 C622 0.968 . S
H681 C623 0.939 . S
H682 C624 0.930 . S
H683 C625 0.930 . S
H684 C627 0.930 . S
H685 C629 0.929 . S
H686 C630 0.930 . S
H687 C631 0.930 . S
H688 C634 0.930 . S
H689 C637 0.929 . S
H690 C642 0.929 . S
H691 C643 0.930 . S
H692 C650 0.929 . S
H693 C651 0.930 . S
H694 C652 0.930 . S
H695 C653 0.930 . S
H696 C655 0.929 . S
H697 C656 0.930 . S
H698 C657 0.930 . S
H699 C658 0.930 1_655 S
H700 C662 0.929 . S
H701 C664 0.930 . S
H702 C670 0.929 . S
H703 C671 0.930 . S
Li704 N721 1.990 . S
Li704 O764 1.956 . S
Li704 O765 1.970 . S
Li704 O766 1.961 . S
Li705 N729 1.990 . S
Li705 O764 1.970 . S
Li705 O765 1.956 . S
Li705 O767 1.961 . S
Li706 N751 1.990 . S
Li706 O764 1.961 . S
Li706 O766 1.956 . S
Li706 O767 1.970 . S
Li707 N757 1.990 . S
Li707 O765 1.961 . S
Li707 O766 1.970 . S
Li707 O767 1.956 . S
C708 C710 1.348 . S
C708 C711 1.356 . S
C708 O764 1.325 . S
N709 C712 1.314 . S
N709 C713 1.279 . S
C710 C708 1.348 . S
C710 C712 1.353 . S
C710 H768 0.929 . S
C711 C708 1.356 . S
C711 C713 1.358 . S
C711 H769 0.930 . S
C712 N709 1.314 . S
C712 C710 1.353 . S
C712 H770 0.930 . S
C713 N709 1.279 . S
C713 C711 1.358 . S
C713 H771 0.930 . S
C714 C717 1.348 . S
C714 C718 1.356 . S
C714 O765 1.325 . S
C715 N716 1.279 . S
C715 C718 1.358 . S
C715 H772 0.930 . S
N716 C715 1.279 . S
N716 C719 1.314 . S
C717 C714 1.348 . S
C717 C719 1.353 . S
C717 H773 0.929 . S
C718 C714 1.356 . S
C718 C715 1.358 . S
C718 H774 0.930 . S
C719 N716 1.314 . S
C719 C717 1.353 . S
C719 H775 0.930 . S
C720 N721 1.292 1_565 S
C720 C725 1.367 . S
C720 H726 0.955 1_565 S
N721 Li704 1.990 . S
N721 C720 1.292 1_545 S
N721 C723 1.279 . S
C722 C723 1.358 1_565 S
C722 C724 1.356 . S
C722 H776 0.930 . S
C723 N721 1.279 . S
C723 C722 1.358 1_545 S
C723 H727 0.930 . S
C724 C722 1.356 . S
C724 C725 1.348 . S
C725 C720 1.367 . S
C725 C724 1.348 . S
C725 H777 0.929 . S
H726 C720 0.955 1_545 S
H727 C723 0.930 . S
C728 N729 1.314 . S
C728 C730 1.353 . S
C728 H734 0.930 . S
N729 Li705 1.990 . S
N729 C728 1.314 . S
N729 C732 1.279 . S
C730 C728 1.353 . S
C730 C733 1.348 . S
C730 H778 0.929 . S
C731 C732 1.358 . S
C731 C733 1.356 . S
C731 H779 0.930 . S
C732 N729 1.279 . S
C732 C731 1.358 . S
C732 H735 0.930 . S
C733 C730 1.348 . S
C733 C731 1.356 . S
H734 C728 0.930 . S
H735 C732 0.930 . S
C736 C738 1.348 . S
C736 C739 1.356 . S
C736 O766 1.325 . S
N737 C740 1.314 1_565 S
N737 C741 1.279 1_565 S
C738 C736 1.348 . S
C738 C740 1.353 . S
C738 H780 0.929 . S
C739 C736 1.356 . S
C739 C741 1.358 . S
C739 H781 0.930 . S
C740 N737 1.314 1_545 S
C740 C738 1.353 . S
C740 H782 0.930 . S
C741 N737 1.279 1_545 S
C741 C739 1.358 . S
C741 H783 0.930 1_545 S
C742 C743 1.348 . S
C742 C744 1.356 . S
C742 O767 1.325 . S
C743 C742 1.348 . S
C743 C745 1.353 . S
C743 H784 0.929 . S
C744 C742 1.356 . S
C744 C746 1.358 . S
C744 H785 0.930 . S
C745 C743 1.353 . S
C745 N747 1.314 . S
C745 H786 0.930 . S
C746 C744 1.358 . S
C746 N747 1.279 . S
C746 H787 0.930 . S
N747 C745 1.314 . S
N747 C746 1.279 . S
C748 C750 1.353 . S
C748 N751 1.314 . S
C748 H754 0.930 . S
C749 N751 1.279 . S
C749 C752 1.358 . S
C749 H755 0.930 . S
C750 C748 1.353 . S
C750 C753 1.348 . S
C750 H788 0.929 . S
N751 Li706 1.990 . S
N751 C748 1.314 . S
N751 C749 1.279 . S
C752 C749 1.358 . S
C752 C753 1.356 . S
C752 H789 0.930 . S
C753 C750 1.348 . S
C753 C752 1.356 . S
H754 C748 0.930 . S
H755 C749 0.930 . S
C756 N757 1.314 . S
C756 C758 1.353 . S
C756 H762 0.930 . S
N757 Li707 1.990 . S
N757 C756 1.314 . S
N757 C760 1.279 . S
C758 C756 1.353 . S
C758 C761 1.348 . S
C758 H790 0.929 . S
C759 C760 1.358 . S
C759 C761 1.356 . S
C759 H791 0.930 . S
C760 N757 1.279 . S
C760 C759 1.358 . S
C760 H763 0.930 . S
C761 C758 1.348 . S
C761 C759 1.356 . S
H762 C756 0.930 . S
H763 C760 0.930 . S
O764 Li704 1.956 . S
O764 Li705 1.970 . S
O764 Li706 1.961 . S
O764 C708 1.325 . S
O765 Li704 1.970 . S
O765 Li705 1.956 . S
O765 Li707 1.961 . S
O765 C714 1.325 . S
O766 Li704 1.961 . S
O766 Li706 1.956 . S
O766 Li707 1.970 . S
O766 C736 1.325 . S
O767 Li705 1.961 . S
O767 Li706 1.970 . S
O767 Li707 1.956 . S
O767 C742 1.325 . S
H768 C710 0.929 . S
H769 C711 0.930 . S
H770 C712 0.930 . S
H771 C713 0.930 . S
H772 C715 0.930 . S
H773 C717 0.929 . S
H774 C718 0.930 . S
H775 C719 0.930 . S
H776 C722 0.930 . S
H777 C725 0.929 . S
H778 C730 0.929 . S
H779 C731 0.930 . S
H780 C738 0.929 . S
H781 C739 0.930 . S
H782 C740 0.930 . S
H783 C741 0.930 1_565 S
H784 C743 0.929 . S
H785 C744 0.930 . S
H786 C745 0.930 . S
H787 C746 0.930 . S
H788 C750 0.929 . S
H789 C752 0.930 . S
H790 C758 0.929 . S
H791 C759 0.930 . S
Li792 N809 1.990 . S
Li792 O852 1.956 . S
Li792 O853 1.970 . S
Li792 O854 1.961 . S
Li793 N817 1.990 . S
Li793 O852 1.970 . S
Li793 O853 1.956 . S
Li793 O855 1.961 . S
Li794 N839 1.990 . S
Li794 O852 1.961 . S
Li794 O854 1.956 . S
Li794 O855 1.970 . S
Li795 N845 1.990 . S
Li795 O853 1.961 . S
Li795 O854 1.970 . S
Li795 O855 1.956 . S
C796 C798 1.348 . S
C796 C799 1.356 . S
C796 O852 1.325 . S
N797 C800 1.314 . S
N797 C801 1.279 . S
C798 C796 1.348 . S
C798 C800 1.353 . S
C798 H856 0.929 . S
C799 C796 1.356 . S
C799 C801 1.358 . S
C799 H857 0.930 . S
C800 N797 1.314 . S
C800 C798 1.353 . S
C800 H858 0.930 . S
C801 N797 1.279 . S
C801 C799 1.358 . S
C801 H859 0.930 . S
C802 C805 1.348 . S
C802 C806 1.356 . S
C802 O853 1.325 . S
C803 N804 1.279 . S
C803 C806 1.358 . S
C803 H860 0.930 . S
N804 C803 1.279 . S
N804 C807 1.314 . S
C805 C802 1.348 . S
C805 C807 1.353 . S
C805 H861 0.929 . S
C806 C802 1.356 . S
C806 C803 1.358 . S
C806 H862 0.930 . S
C807 N804 1.314 . S
C807 C805 1.353 . S
C807 H863 0.930 . S
C808 N809 1.314 . S
C808 C813 1.353 . S
C808 H814 0.930 . S
N809 Li792 1.990 . S
N809 C808 1.314 . S
N809 C811 1.279 . S
C810 C811 1.358 . S
C810 C812 1.356 . S
C810 H864 0.930 . S
C811 N809 1.279 . S
C811 C810 1.358 . S
C811 H815 0.930 . S
C812 C810 1.356 . S
C812 C813 1.348 . S
C813 C808 1.353 . S
C813 C812 1.348 . S
C813 H865 0.929 . S
H814 C808 0.930 . S
H815 C811 0.930 . S
C816 N817 1.314 . S
C816 C818 1.353 . S
C816 H822 0.930 . S
N817 Li793 1.990 . S
N817 C816 1.314 . S
N817 C820 1.279 . S
C818 C816 1.353 . S
C818 C821 1.348 . S
C818 H866 0.929 . S
C819 C820 1.358 . S
C819 C821 1.356 . S
C819 H867 0.930 . S
C820 N817 1.279 . S
C820 C819 1.358 . S
C820 H823 0.930 . S
C821 C818 1.348 . S
C821 C819 1.356 . S
H822 C816 0.930 . S
H823 C820 0.930 . S
C824 C826 1.348 . S
C824 C827 1.356 . S
C824 O854 1.325 . S
N825 C828 1.314 . S
N825 C829 1.279 . S
C826 C824 1.348 . S
C826 C828 1.353 . S
C826 H868 0.929 . S
C827 C824 1.356 . S
C827 C829 1.358 . S
C827 H869 0.930 . S
C828 N825 1.314 . S
C828 C826 1.353 . S
C828 H870 0.930 . S
C829 N825 1.279 . S
C829 C827 1.358 . S
C829 H871 0.930 . S
C830 C831 1.348 . S
C830 C832 1.356 . S
C830 O855 1.325 . S
C831 C830 1.348 . S
C831 C833 1.353 . S
C831 H872 0.929 . S
C832 C830 1.356 . S
C832 C834 1.358 . S
C832 H873 0.930 . S
C833 C831 1.353 . S
C833 N835 1.314 . S
C833 H874 0.930 . S
C834 C832 1.358 . S
C834 N835 1.279 . S
C834 H875 0.930 . S
N835 C833 1.314 . S
N835 C834 1.279 . S
C836 C838 1.353 . S
C836 N839 1.314 . S
C836 H842 0.930 . S
C837 N839 1.279 . S
C837 C840 1.358 . S
C837 H843 0.930 . S
C838 C836 1.353 . S
C838 C841 1.348 . S
C838 H876 0.929 . S
N839 Li794 1.990 . S
N839 C836 1.314 . S
N839 C837 1.279 . S
C840 C837 1.358 . S
C840 C841 1.356 . S
C840 H877 0.930 . S
C841 C838 1.348 . S
C841 C840 1.356 . S
H842 C836 0.930 . S
H843 C837 0.930 . S
C844 N845 1.314 . S
C844 C846 1.353 . S
C844 H850 0.930 . S
N845 Li795 1.990 . S
N845 C844 1.314 . S
N845 C848 1.279 . S
C846 C844 1.353 . S
C846 C849 1.348 . S
C846 H878 0.929 . S
C847 C848 1.358 . S
C847 C849 1.356 . S
C847 H879 0.930 . S
C848 N845 1.279 . S
C848 C847 1.358 . S
C848 H851 0.930 . S
C849 C846 1.348 . S
C849 C847 1.356 . S
H850 C844 0.930 . S
H851 C848 0.930 . S
O852 Li792 1.956 . S
O852 Li793 1.970 . S
O852 Li794 1.961 . S
O852 C796 1.325 . S
O853 Li792 1.970 . S
O853 Li793 1.956 . S
O853 Li795 1.961 . S
O853 C802 1.325 . S
O854 Li792 1.961 . S
O854 Li794 1.956 . S
O854 Li795 1.970 . S
O854 C824 1.325 . S
O855 Li793 1.961 . S
O855 Li794 1.970 . S
O855 Li795 1.956 . S
O855 C830 1.325 . S
H856 C798 0.929 . S
H857 C799 0.930 . S
H858 C800 0.930 . S
H859 C801 0.930 . S
H860 C803 0.930 . S
H861 C805 0.929 . S
H862 C806 0.930 . S
H863 C807 0.930 . S
H864 C810 0.930 . S
H865 C813 0.929 . S
H866 C818 0.929 . S
H867 C819 0.930 . S
H868 C826 0.929 . S
H869 C827 0.930 . S
H870 C828 0.930 . S
H871 C829 0.930 . S
H872 C831 0.929 . S
H873 C832 0.930 . S
H874 C833 0.930 . S
H875 C834 0.930 . S
H876 C838 0.929 . S
H877 C840 0.930 . S
H878 C846 0.929 . S
H879 C847 0.930 . S
Li880 N897 1.990 . S
Li880 O940 1.956 . S
Li880 O941 1.970 . S
Li880 O942 1.961 . S
Li881 N905 1.990 . S
Li881 O940 1.970 . S
Li881 O941 1.956 . S
Li881 O943 1.961 . S
Li882 N927 1.990 . S
Li882 O940 1.961 . S
Li882 O942 1.956 . S
Li882 O943 1.970 . S
Li883 N933 1.990 . S
Li883 O941 1.961 . S
Li883 O942 1.970 . S
Li883 O943 1.956 . S
C884 C886 1.391 . S
C884 C887 1.368 . S
C884 O940 1.325 . S
N885 C888 1.314 . S
N885 C889 1.279 . S
C886 C884 1.391 . S
C886 C888 1.276 1_556 S
C886 H944 0.968 . S
C887 C884 1.368 . S
C887 C889 1.338 1_556 S
C887 H945 0.939 . S
C888 N885 1.314 . S
C888 C886 1.276 1_554 S
C888 H946 0.930 . S
C889 N885 1.279 . S
C889 C887 1.338 1_554 S
C889 H947 0.930 . S
C890 C893 1.348 . S
C890 C894 1.356 . S
C890 O941 1.325 . S
C891 N892 1.279 . S
C891 C894 1.358 . S
C891 H948 0.930 . S
N892 C891 1.279 . S
N892 C895 1.314 . S
C893 C890 1.348 . S
C893 C895 1.353 . S
C893 H949 0.929 . S
C894 C890 1.356 . S
C894 C891 1.358 . S
C894 H950 0.930 . S
C895 N892 1.314 . S
C895 C893 1.353 . S
C895 H951 0.930 . S
C896 N897 1.314 . S
C896 C901 1.353 . S
C896 H902 0.930 . S
N897 Li880 1.990 . S
N897 C896 1.314 . S
N897 C899 1.279 . S
C898 C899 1.358 1_554 S
C898 C900 1.356 1_554 S
C898 H952 0.930 . S
C899 N897 1.279 . S
C899 C898 1.358 1_556 S
C899 H903 0.965 . S
C900 C898 1.356 1_556 S
C900 C901 1.348 . S
C901 C896 1.353 . S
C901 C900 1.348 . S
C901 H953 0.929 . S
H902 C896 0.930 . S
H903 C899 0.965 . S
C904 N905 1.304 1_455 S
C904 C906 1.374 . S
C904 H910 0.900 1_455 S
N905 Li881 1.990 . S
N905 C904 1.304 1_655 S
N905 C908 1.279 . S
C906 C904 1.374 . S
C906 C909 1.348 . S
C906 H954 0.929 . S
C907 C908 1.358 1_455 S
C907 C909 1.356 . S
C907 H955 0.930 . S
C908 N905 1.279 . S
C908 C907 1.358 1_655 S
C908 H911 0.930 . S
C909 C906 1.348 . S
C909 C907 1.356 . S
H910 C904 0.900 1_655 S
H911 C908 0.930 . S
C912 C914 1.348 . S
C912 C915 1.356 . S
C912 O942 1.325 . S
N913 C916 1.314 . S
N913 C917 1.279 . S
C914 C912 1.348 . S
C914 C916 1.353 . S
C914 H956 0.929 . S
C915 C912 1.356 . S
C915 C917 1.358 . S
C915 H957 0.930 . S
C916 N913 1.314 . S
C916 C914 1.353 . S
C916 H958 0.930 . S
C917 N913 1.279 . S
C917 C915 1.358 . S
C917 H959 0.930 . S
C918 C919 1.348 . S
C918 C920 1.356 . S
C918 O943 1.325 . S
C919 C918 1.348 . S
C919 C921 1.353 . S
C919 H960 0.929 . S
C920 C918 1.356 . S
C920 C922 1.358 . S
C920 H961 0.930 . S
C921 C919 1.353 . S
C921 N923 1.314 1_655 S
C921 H962 0.930 . S
C922 C920 1.358 . S
C922 N923 1.279 1_655 S
C922 H963 0.930 1_655 S
N923 C921 1.314 1_455 S
N923 C922 1.279 1_455 S
C924 C926 1.353 . S
C924 N927 1.314 . S
C924 H930 0.930 . S
C925 N927 1.279 . S
C925 C928 1.358 . S
C925 H931 0.930 . S
C926 C924 1.353 . S
C926 C929 1.348 . S
C926 H964 0.929 . S
N927 Li882 1.990 . S
N927 C924 1.314 . S
N927 C925 1.279 . S
C928 C925 1.358 . S
C928 C929 1.356 . S
C928 H965 0.930 . S
C929 C926 1.348 . S
C929 C928 1.356 . S
H930 C924 0.930 . S
H931 C925 0.930 . S
C932 N933 1.314 . S
C932 C934 1.353 . S
C932 H938 0.930 . S
N933 Li883 1.990 . S
N933 C932 1.314 . S
N933 C936 1.279 . S
C934 C932 1.353 . S
C934 C937 1.348 . S
C934 H966 0.929 . S
C935 C936 1.358 . S
C935 C937 1.356 . S
C935 H967 0.930 . S
C936 N933 1.279 . S
C936 C935 1.358 . S
C936 H939 0.930 . S
C937 C934 1.348 . S
C937 C935 1.356 . S
H938 C932 0.930 . S
H939 C936 0.930 . S
O940 Li880 1.956 . S
O940 Li881 1.970 . S
O940 Li882 1.961 . S
O940 C884 1.325 . S
O941 Li880 1.970 . S
O941 Li881 1.956 . S
O941 Li883 1.961 . S
O941 C890 1.325 . S
O942 Li880 1.961 . S
O942 Li882 1.956 . S
O942 Li883 1.970 . S
O942 C912 1.325 . S
O943 Li881 1.961 . S
O943 Li882 1.970 . S
O943 Li883 1.956 . S
O943 C918 1.325 . S
H944 C886 0.968 . S
H945 C887 0.939 . S
H946 C888 0.930 . S
H947 C889 0.930 . S
H948 C891 0.930 . S
H949 C893 0.929 . S
H950 C894 0.930 . S
H951 C895 0.930 . S
H952 C898 0.930 . S
H953 C901 0.929 . S
H954 C906 0.929 . S
H955 C907 0.930 . S
H956 C914 0.929 . S
H957 C915 0.930 . S
H958 C916 0.930 . S
H959 C917 0.930 . S
H960 C919 0.929 . S
H961 C920 0.930 . S
H962 C921 0.930 . S
H963 C922 0.930 1_455 S
H964 C926 0.929 . S
H965 C928 0.930 . S
H966 C934 0.929 . S
H967 C935 0.930 . S
Li968 N985 1.990 . S
Li968 O1028 1.956 . S
Li968 O1029 1.970 . S
Li968 O1030 1.961 . S
Li969 N993 1.990 . S
Li969 O1028 1.970 . S
Li969 O1029 1.956 . S
Li969 O1031 1.961 . S
Li970 N1015 1.990 . S
Li970 O1028 1.961 . S
Li970 O1030 1.956 . S
Li970 O1031 1.970 . S
Li971 N1021 1.990 . S
Li971 O1029 1.961 . S
Li971 O1030 1.970 . S
Li971 O1031 1.956 . S
C972 C974 1.348 . S
C972 C975 1.356 . S
C972 O1028 1.325 . S
N973 C976 1.314 . S
N973 C977 1.279 . S
C974 C972 1.348 . S
C974 C976 1.353 . S
C974 H1032 0.929 . S
C975 C972 1.356 . S
C975 C977 1.358 . S
C975 H1033 0.930 . S
C976 N973 1.314 . S
C976 C974 1.353 . S
C976 H1034 0.930 . S
C977 N973 1.279 . S
C977 C975 1.358 . S
C977 H1035 0.930 . S
C978 C981 1.348 . S
C978 C982 1.356 . S
C978 O1029 1.325 . S
C979 N980 1.279 . S
C979 C982 1.358 . S
C979 H1036 0.930 . S
N980 C979 1.279 . S
N980 C983 1.314 . S
C981 C978 1.348 . S
C981 C983 1.353 . S
C981 H1037 0.929 . S
C982 C978 1.356 . S
C982 C979 1.358 . S
C982 H1038 0.930 . S
C983 N980 1.314 . S
C983 C981 1.353 . S
C983 H1039 0.930 . S
C984 N985 1.292 1_545 S
C984 C989 1.367 . S
C984 H990 0.955 1_545 S
N985 Li968 1.990 . S
N985 C984 1.292 1_565 S
N985 C987 1.279 . S
C986 C987 1.358 1_545 S
C986 C988 1.356 . S
C986 H1040 0.930 . S
C987 N985 1.279 . S
C987 C986 1.358 1_565 S
C987 H991 0.930 . S
C988 C986 1.356 . S
C988 C989 1.348 . S
C989 C984 1.367 . S
C989 C988 1.348 . S
C989 H1041 0.929 . S
H990 C984 0.955 1_565 S
H991 C987 0.930 . S
C992 N993 1.314 . S
C992 C994 1.353 . S
C992 H998 0.930 . S
N993 Li969 1.990 . S
N993 C992 1.314 . S
N993 C996 1.279 . S
C994 C992 1.353 . S
C994 C997 1.348 . S
C994 H1042 0.929 . S
C995 C996 1.358 . S
C995 C997 1.356 . S
C995 H1043 0.930 . S
C996 N993 1.279 . S
C996 C995 1.358 . S
C996 H999 0.930 . S
C997 C994 1.348 . S
C997 C995 1.356 . S
H998 C992 0.930 . S
H999 C996 0.930 . S
C1000 C1002 1.348 . S
C1000 C1003 1.356 . S
C1000 O1030 1.325 . S
N1001 C1004 1.314 1_545 S
N1001 C1005 1.279 1_545 S
C1002 C1000 1.348 . S
C1002 C1004 1.353 . S
C1002 H1044 0.929 . S
C1003 C1000 1.356 . S
C1003 C1005 1.358 . S
C1003 H1045 0.930 . S
C1004 N1001 1.314 1_565 S
C1004 C1002 1.353 . S
C1004 H1046 0.930 . S
C1005 N1001 1.279 1_565 S
C1005 C1003 1.358 . S
C1005 H1047 0.930 1_565 S
C1006 C1007 1.348 . S
C1006 C1008 1.356 . S
C1006 O1031 1.325 . S
C1007 C1006 1.348 . S
C1007 C1009 1.353 . S
C1007 H1048 0.929 . S
C1008 C1006 1.356 . S
C1008 C1010 1.358 . S
C1008 H1049 0.930 . S
C1009 C1007 1.353 . S
C1009 N1011 1.314 . S
C1009 H1050 0.930 . S
C1010 C1008 1.358 . S
C1010 N1011 1.279 . S
C1010 H1051 0.930 . S
N1011 C1009 1.314 . S
N1011 C1010 1.279 . S
C1012 C1014 1.353 . S
C1012 N1015 1.314 . S
C1012 H1018 0.930 . S
C1013 N1015 1.279 . S
C1013 C1016 1.358 . S
C1013 H1019 0.930 . S
C1014 C1012 1.353 . S
C1014 C1017 1.348 . S
C1014 H1052 0.929 . S
N1015 Li970 1.990 . S
N1015 C1012 1.314 . S
N1015 C1013 1.279 . S
C1016 C1013 1.358 . S
C1016 C1017 1.356 . S
C1016 H1053 0.930 . S
C1017 C1014 1.348 . S
C1017 C1016 1.356 . S
H1018 C1012 0.930 . S
H1019 C1013 0.930 . S
C1020 N1021 1.314 . S
C1020 C1022 1.353 . S
C1020 H1026 0.930 . S
N1021 Li971 1.990 . S
N1021 C1020 1.314 . S
N1021 C1024 1.279 . S
C1022 C1020 1.353 . S
C1022 C1025 1.348 . S
C1022 H1054 0.929 . S
C1023 C1024 1.358 . S
C1023 C1025 1.356 . S
C1023 H1055 0.930 . S
C1024 N1021 1.279 . S
C1024 C1023 1.358 . S
C1024 H1027 0.930 . S
C1025 C1022 1.348 . S
C1025 C1023 1.356 . S
H1026 C1020 0.930 . S
H1027 C1024 0.930 . S
O1028 Li968 1.956 . S
O1028 Li969 1.970 . S
O1028 Li970 1.961 . S
O1028 C972 1.325 . S
O1029 Li968 1.970 . S
O1029 Li969 1.956 . S
O1029 Li971 1.961 . S
O1029 C978 1.325 . S
O1030 Li968 1.961 . S
O1030 Li970 1.956 . S
O1030 Li971 1.970 . S
O1030 C1000 1.325 . S
O1031 Li969 1.961 . S
O1031 Li970 1.970 . S
O1031 Li971 1.956 . S
O1031 C1006 1.325 . S
H1032 C974 0.929 . S
H1033 C975 0.930 . S
H1034 C976 0.930 . S
H1035 C977 0.930 . S
H1036 C979 0.930 . S
H1037 C981 0.929 . S
H1038 C982 0.930 . S
H1039 C983 0.930 . S
H1040 C986 0.930 . S
H1041 C989 0.929 . S
H1042 C994 0.929 . S
H1043 C995 0.930 . S
H1044 C1002 0.929 . S
H1045 C1003 0.930 . S
H1046 C1004 0.930 . S
H1047 C1005 0.930 1_545 S
H1048 C1007 0.929 . S
H1049 C1008 0.930 . S
H1050 C1009 0.930 . S
H1051 C1010 0.930 . S
H1052 C1014 0.929 . S
H1053 C1016 0.930 . S
H1054 C1022 0.929 . S
H1055 C1023 0.930 . S
H1056 C1062 0.930 . S
H1057 C1066 0.930 . S
H1058 C1071 0.929 . S
H1059 C1069 0.929 . S
H1060 C1064 0.929 . S
H1061 C1070 0.929 . S
C1062 H1056 0.930 . S
C1062 C1063 1.367 . S
C1062 C1070 1.378 . S
C1063 C1062 1.367 . S
C1063 C1071 1.433 . S
C1064 H1060 0.929 . S
C1064 C1066 1.378 . S
C1064 C1068 1.350 . S
C1065 C1068 1.463 . S
C1065 C1070 1.350 . S
C1065 N1073 1.427 . S
C1066 H1057 0.930 . S
C1066 C1064 1.378 . S
C1066 C1067 1.367 . S
C1067 C1066 1.367 . S
C1067 C1069 1.433 . S
C1068 C1064 1.350 . S
C1068 C1065 1.463 . S
C1068 N1072 1.427 . S
C1069 H1059 0.929 . S
C1069 C1067 1.433 . S
C1069 N1072 1.384 . S
C1070 H1061 0.929 . S
C1070 C1062 1.378 . S
C1070 C1065 1.350 . S
C1071 H1058 0.929 . S
C1071 C1063 1.433 . S
C1071 N1073 1.384 . S
N1072 C1068 1.427 . S
N1072 C1069 1.384 . S
N1073 C1065 1.427 . S
N1073 C1071 1.384 . S
H1074 C1080 0.930 . S
H1075 C1084 0.930 . S
H1076 C1089 0.929 . S
H1077 C1087 0.929 . S
H1078 C1082 0.929 . S
H1079 C1088 0.929 . S
C1080 H1074 0.930 . S
C1080 C1081 1.367 . S
C1080 C1088 1.378 . S
C1081 C1080 1.367 . S
C1081 C1089 1.433 . S
C1082 H1078 0.929 . S
C1082 C1084 1.378 . S
C1082 C1086 1.350 . S
C1083 C1086 1.463 1_455 S
C1083 C1088 1.350 . S
C1083 N1091 1.427 . S
C1084 H1075 0.930 . S
C1084 C1082 1.378 . S
C1084 C1085 1.367 . S
C1085 C1084 1.367 . S
C1085 C1087 1.433 . S
C1086 C1082 1.350 . S
C1086 C1083 1.463 1_655 S
C1086 N1090 1.427 . S
C1087 H1077 0.929 . S
C1087 C1085 1.433 . S
C1087 N1090 1.384 . S
C1088 H1079 0.929 . S
C1088 C1080 1.378 . S
C1088 C1083 1.350 . S
C1089 H1076 0.929 . S
C1089 C1081 1.433 . S
C1089 N1091 1.384 . S
N1090 C1086 1.427 . S
N1090 C1087 1.384 . S
N1091 C1083 1.427 . S
N1091 C1089 1.384 . S
H1092 C1098 0.930 . S
H1093 C1102 0.930 . S
H1094 C1107 0.929 . S
H1095 C1105 0.929 . S
H1096 C1100 0.929 . S
H1097 C1106 0.929 . S
C1098 H1092 0.930 . S
C1098 C1099 1.367 . S
C1098 C1106 1.378 . S
C1099 C1098 1.367 . S
C1099 C1107 1.433 . S
C1100 H1096 0.929 . S
C1100 C1102 1.378 . S
C1100 C1104 1.350 . S
C1101 C1104 1.463 1_565 S
C1101 C1106 1.350 . S
C1101 N1109 1.427 . S
C1102 H1093 0.930 . S
C1102 C1100 1.378 . S
C1102 C1103 1.367 . S
C1103 C1102 1.367 . S
C1103 C1105 1.433 . S
C1104 C1100 1.350 . S
C1104 C1101 1.463 1_545 S
C1104 N1108 1.427 . S
C1105 H1095 0.929 . S
C1105 C1103 1.433 . S
C1105 N1108 1.384 . S
C1106 H1097 0.929 . S
C1106 C1098 1.378 . S
C1106 C1101 1.350 . S
C1107 H1094 0.929 . S
C1107 C1099 1.433 . S
C1107 N1109 1.384 . S
N1108 C1104 1.427 . S
N1108 C1105 1.384 . S
N1109 C1101 1.427 . S
N1109 C1107 1.384 . S
H1110 C1116 0.930 . S
H1111 C1120 0.930 . S
H1112 C1125 0.929 . S
H1113 C1123 0.929 . S
H1114 C1118 0.929 . S
H1115 C1124 0.929 . S
C1116 H1110 0.930 . S
C1116 C1117 1.367 . S
C1116 C1124 1.378 . S
C1117 C1116 1.367 . S
C1117 C1125 1.433 . S
C1118 H1114 0.929 . S
C1118 C1120 1.378 . S
C1118 C1122 1.350 . S
C1119 C1122 1.463 . S
C1119 C1124 1.350 . S
C1119 N1127 1.427 . S
C1120 H1111 0.930 . S
C1120 C1118 1.378 . S
C1120 C1121 1.367 . S
C1121 C1120 1.367 . S
C1121 C1123 1.433 . S
C1122 C1118 1.350 . S
C1122 C1119 1.463 . S
C1122 N1126 1.427 . S
C1123 H1113 0.929 . S
C1123 C1121 1.433 . S
C1123 N1126 1.384 . S
C1124 H1115 0.929 . S
C1124 C1116 1.378 . S
C1124 C1119 1.350 . S
C1125 H1112 0.929 . S
C1125 C1117 1.433 . S
C1125 N1127 1.384 . S
N1126 C1122 1.427 . S
N1126 C1123 1.384 . S
N1127 C1119 1.427 . S
N1127 C1125 1.384 . S
H1128 C1134 0.930 . S
H1129 C1138 0.930 . S
H1130 C1143 0.929 . S
H1131 C1141 0.929 . S
H1132 C1136 0.929 . S
H1133 C1142 0.929 . S
C1134 H1128 0.930 . S
C1134 C1135 1.367 . S
C1134 C1142 1.378 . S
C1135 C1134 1.367 . S
C1135 C1143 1.433 . S
C1136 H1132 0.929 . S
C1136 C1138 1.378 . S
C1136 C1140 1.350 . S
C1137 C1140 1.463 1_655 S
C1137 C1142 1.350 . S
C1137 N1145 1.427 . S
C1138 H1129 0.930 . S
C1138 C1136 1.378 . S
C1138 C1139 1.367 . S
C1139 C1138 1.367 . S
C1139 C1141 1.433 . S
C1140 C1136 1.350 . S
C1140 C1137 1.463 1_455 S
C1140 N1144 1.427 . S
C1141 H1131 0.929 . S
C1141 C1139 1.433 . S
C1141 N1144 1.384 . S
C1142 H1133 0.929 . S
C1142 C1134 1.378 . S
C1142 C1137 1.350 . S
C1143 H1130 0.929 . S
C1143 C1135 1.433 . S
C1143 N1145 1.384 . S
N1144 C1140 1.427 . S
N1144 C1141 1.384 . S
N1145 C1137 1.427 . S
N1145 C1143 1.384 . S
H1146 C1152 0.930 . S
H1147 C1156 0.930 . S
H1148 C1161 0.929 . S
H1149 C1159 0.929 . S
H1150 C1154 0.929 . S
H1151 C1160 0.929 . S
C1152 H1146 0.930 . S
C1152 C1153 1.367 . S
C1152 C1160 1.378 . S
C1153 C1152 1.367 . S
C1153 C1161 1.433 . S
C1154 H1150 0.929 . S
C1154 C1156 1.378 . S
C1154 C1158 1.350 . S
C1155 C1158 1.463 1_545 S
C1155 C1160 1.350 . S
C1155 N1163 1.427 . S
C1156 H1147 0.930 . S
C1156 C1154 1.378 . S
C1156 C1157 1.367 . S
C1157 C1156 1.367 . S
C1157 C1159 1.433 . S
C1158 C1154 1.350 . S
C1158 C1155 1.463 1_565 S
C1158 N1162 1.427 . S
C1159 H1149 0.929 . S
C1159 C1157 1.433 . S
C1159 N1162 1.384 . S
C1160 H1151 0.929 . S
C1160 C1152 1.378 . S
C1160 C1155 1.350 . S
C1161 H1148 0.929 . S
C1161 C1153 1.433 . S
C1161 N1163 1.384 . S
N1162 C1158 1.427 . S
N1162 C1159 1.384 . S
N1163 C1155 1.427 . S
N1163 C1161 1.384 . S
H1164 C1170 0.930 . S
H1165 C1174 0.930 . S
H1166 C1179 0.929 . S
H1167 C1177 0.929 . S
H1168 C1172 0.929 . S
H1169 C1178 0.929 . S
C1170 H1164 0.930 . S
C1170 C1171 1.367 . S
C1170 C1178 1.378 . S
C1171 C1170 1.367 . S
C1171 C1179 1.433 . S
C1172 H1168 0.929 . S
C1172 C1174 1.378 . S
C1172 C1176 1.350 . S
C1173 C1176 1.463 . S
C1173 C1178 1.350 . S
C1173 N1181 1.427 . S
C1174 H1165 0.930 . S
C1174 C1172 1.378 . S
C1174 C1175 1.367 . S
C1175 C1174 1.367 . S
C1175 C1177 1.433 . S
C1176 C1172 1.350 . S
C1176 C1173 1.463 . S
C1176 N1180 1.427 . S
C1177 H1167 0.929 . S
C1177 C1175 1.433 . S
C1177 N1180 1.384 . S
C1178 H1169 0.929 . S
C1178 C1170 1.378 . S
C1178 C1173 1.350 . S
C1179 H1166 0.929 . S
C1179 C1171 1.433 . S
C1179 N1181 1.384 . S
N1180 C1176 1.427 . S
N1180 C1177 1.384 . S
N1181 C1173 1.427 . S
N1181 C1179 1.384 . S
H1182 C1188 0.930 . S
H1183 C1192 0.930 . S
H1184 C1197 0.929 . S
H1185 C1195 0.929 . S
H1186 C1190 0.929 . S
H1187 C1196 0.929 . S
C1188 H1182 0.930 . S
C1188 C1189 1.367 . S
C1188 C1196 1.378 . S
C1189 C1188 1.367 . S
C1189 C1197 1.433 . S
C1190 H1186 0.929 . S
C1190 C1192 1.378 . S
C1190 C1194 1.350 . S
C1191 C1194 1.463 . S
C1191 C1196 1.350 . S
C1191 N1199 1.427 . S
C1192 H1183 0.930 . S
C1192 C1190 1.378 . S
C1192 C1193 1.367 . S
C1193 C1192 1.367 . S
C1193 C1195 1.433 . S
C1194 C1190 1.350 . S
C1194 C1191 1.463 . S
C1194 N1198 1.427 . S
C1195 H1185 0.929 . S
C1195 C1193 1.433 . S
C1195 N1198 1.384 . S
C1196 H1187 0.929 . S
C1196 C1188 1.378 . S
C1196 C1191 1.350 . S
C1197 H1184 0.929 . S
C1197 C1189 1.433 . S
C1197 N1199 1.384 . S
N1198 C1194 1.427 . S
N1198 C1195 1.384 . S
N1199 C1191 1.427 . S
N1199 C1197 1.384 . S
H1200 C1206 0.930 . S
H1201 C1210 0.930 . S
H1202 C1215 0.929 . S
H1203 C1213 0.929 . S
H1204 C1208 0.929 . S
H1205 C1214 0.929 . S
C1206 H1200 0.930 . S
C1206 C1207 1.367 . S
C1206 C1214 1.378 . S
C1207 C1206 1.367 . S
C1207 C1215 1.433 . S
C1208 H1204 0.929 . S
C1208 C1210 1.378 . S
C1208 C1212 1.350 . S
C1209 C1212 1.463 . S
C1209 C1214 1.350 . S
C1209 N1217 1.427 . S
C1210 H1201 0.930 . S
C1210 C1208 1.378 . S
C1210 C1211 1.367 . S
C1211 C1210 1.367 . S
C1211 C1213 1.433 . S
C1212 C1208 1.350 . S
C1212 C1209 1.463 . S
C1212 N1216 1.427 . S
C1213 H1203 0.929 . S
C1213 C1211 1.433 . S
C1213 N1216 1.384 . S
C1214 H1205 0.929 . S
C1214 C1206 1.378 . S
C1214 C1209 1.350 . S
C1215 H1202 0.929 . S
C1215 C1207 1.433 . S
C1215 N1217 1.384 . S
N1216 C1212 1.427 . S
N1216 C1213 1.384 . S
N1217 C1209 1.427 . S
N1217 C1215 1.384 . S
H1218 C1224 0.930 . S
H1219 C1228 0.930 . S
H1220 C1233 0.929 . S
H1221 C1231 0.929 . S
H1222 C1226 0.929 . S
H1223 C1232 0.929 . S
C1224 H1218 0.930 . S
C1224 C1225 1.367 . S
C1224 C1232 1.378 . S
C1225 C1224 1.367 . S
C1225 C1233 1.433 . S
C1226 H1222 0.929 . S
C1226 C1228 1.378 . S
C1226 C1230 1.350 . S
C1227 C1230 1.463 . S
C1227 C1232 1.350 . S
C1227 N1235 1.427 . S
C1228 H1219 0.930 . S
C1228 C1226 1.378 . S
C1228 C1229 1.367 . S
C1229 C1228 1.367 . S
C1229 C1231 1.433 . S
C1230 C1226 1.350 . S
C1230 C1227 1.463 . S
C1230 N1234 1.427 . S
C1231 H1221 0.929 . S
C1231 C1229 1.433 . S
C1231 N1234 1.384 . S
C1232 H1223 0.929 . S
C1232 C1224 1.378 . S
C1232 C1227 1.350 . S
C1233 H1220 0.929 . S
C1233 C1225 1.433 . S
C1233 N1235 1.384 . S
N1234 C1230 1.427 . S
N1234 C1231 1.384 . S
N1235 C1227 1.427 . S
N1235 C1233 1.384 . S
H1236 C1242 0.930 . S
H1237 C1246 0.930 . S
H1238 C1251 0.929 . S
H1239 C1249 0.929 . S
H1240 C1244 0.929 . S
H1241 C1250 0.929 . S
C1242 H1236 0.930 . S
C1242 C1243 1.367 . S
C1242 C1250 1.378 . S
C1243 C1242 1.367 . S
C1243 C1251 1.433 . S
C1244 H1240 0.929 . S
C1244 C1246 1.378 . S
C1244 C1248 1.350 . S
C1245 C1248 1.463 . S
C1245 C1250 1.350 . S
C1245 N1253 1.427 . S
C1246 H1237 0.930 . S
C1246 C1244 1.378 . S
C1246 C1247 1.367 . S
C1247 C1246 1.367 . S
C1247 C1249 1.433 . S
C1248 C1244 1.350 . S
C1248 C1245 1.463 . S
C1248 N1252 1.427 . S
C1249 H1239 0.929 . S
C1249 C1247 1.433 . S
C1249 N1252 1.384 . S
C1250 H1241 0.929 . S
C1250 C1242 1.378 . S
C1250 C1245 1.350 . S
C1251 H1238 0.929 . S
C1251 C1243 1.433 . S
C1251 N1253 1.384 . S
N1252 C1248 1.427 . S
N1252 C1249 1.384 . S
N1253 C1245 1.427 . S
N1253 C1251 1.384 . S
H1254 C1260 0.930 . S
H1255 C1264 0.930 . S
H1256 C1269 0.929 . S
H1257 C1267 0.929 . S
H1258 C1262 0.929 . S
H1259 C1268 0.929 . S
C1260 H1254 0.930 . S
C1260 C1261 1.367 . S
C1260 C1268 1.378 . S
C1261 C1260 1.367 . S
C1261 C1269 1.433 . S
C1262 H1258 0.929 . S
C1262 C1264 1.378 . S
C1262 C1266 1.350 . S
C1263 C1266 1.463 . S
C1263 C1268 1.350 . S
C1263 N1271 1.427 . S
C1264 H1255 0.930 . S
C1264 C1262 1.378 . S
C1264 C1265 1.367 . S
C1265 C1264 1.367 . S
C1265 C1267 1.433 . S
C1266 C1262 1.350 . S
C1266 C1263 1.463 . S
C1266 N1270 1.427 . S
C1267 H1257 0.929 . S
C1267 C1265 1.433 . S
C1267 N1270 1.384 . S
C1268 H1259 0.929 . S
C1268 C1260 1.378 . S
C1268 C1263 1.350 . S
C1269 H1256 0.929 . S
C1269 C1261 1.433 . S
C1269 N1271 1.384 . S
N1270 C1266 1.427 . S
N1270 C1267 1.384 . S
N1271 C1263 1.427 . S
N1271 C1269 1.384 . S
H1272 C1278 0.930 . S
H1273 C1282 0.930 . S
H1274 C1287 0.929 . S
H1275 C1285 0.929 . S
H1276 C1280 0.929 . S
H1277 C1286 0.929 . S
C1278 H1272 0.930 . S
C1278 C1279 1.364 . S
C1278 C1286 1.378 . S
C1279 C1278 1.364 . S
C1279 C1287 1.436 1_556 S
C1280 H1276 0.929 . S
C1280 C1282 1.378 . S
C1280 C1284 1.352 . S
C1281 C1284 1.462 1_566 S
C1281 C1286 1.352 . S
C1281 N1289 1.426 1_556 S
C1282 H1273 0.930 . S
C1282 C1280 1.378 . S
C1282 C1283 1.364 . S
C1283 C1282 1.364 . S
C1283 C1285 1.436 1_554 S
C1284 C1280 1.352 . S
C1284 C1281 1.462 1_544 S
C1284 N1288 1.426 1_554 S
C1285 H1275 0.929 . S
C1285 C1283 1.436 1_556 S
C1285 N1288 1.384 . S
C1286 H1277 0.929 . S
C1286 C1278 1.378 . S
C1286 C1281 1.352 . S
C1287 H1274 0.929 . S
C1287 C1279 1.436 1_554 S
C1287 N1289 1.384 . S
N1288 C1284 1.426 1_556 S
N1288 C1285 1.384 . S
N1289 C1281 1.426 1_554 S
N1289 C1287 1.384 . S
H1290 C1296 0.930 . S
H1291 C1300 0.930 . S
H1292 C1305 0.929 . S
H1293 C1303 0.929 . S
H1294 C1298 0.929 . S
H1295 C1304 0.929 . S
C1296 H1290 0.930 . S
C1296 C1297 1.367 . S
C1296 C1304 1.378 . S
C1297 C1296 1.367 . S
C1297 C1305 1.433 . S
C1298 H1294 0.929 . S
C1298 C1300 1.378 . S
C1298 C1302 1.350 . S
C1299 C1302 1.463 . S
C1299 C1304 1.350 . S
C1299 N1307 1.427 . S
C1300 H1291 0.930 . S
C1300 C1298 1.378 . S
C1300 C1301 1.367 . S
C1301 C1300 1.367 . S
C1301 C1303 1.433 . S
C1302 C1298 1.350 . S
C1302 C1299 1.463 . S
C1302 N1306 1.427 . S
C1303 H1293 0.929 . S
C1303 C1301 1.433 . S
C1303 N1306 1.384 . S
C1304 H1295 0.929 . S
C1304 C1296 1.378 . S
C1304 C1299 1.350 . S
C1305 H1292 0.929 . S
C1305 C1297 1.433 . S
C1305 N1307 1.384 . S
N1306 C1302 1.427 . S
N1306 C1303 1.384 . S
N1307 C1299 1.427 . S
N1307 C1305 1.384 . S
H1308 C1314 0.930 . S
H1309 C1318 0.930 . S
H1310 C1323 0.929 . S
H1311 C1321 0.929 . S
H1312 C1316 0.929 . S
H1313 C1322 0.929 . S
C1314 H1308 0.930 . S
C1314 C1315 1.367 . S
C1314 C1322 1.378 . S
C1315 C1314 1.367 . S
C1315 C1323 1.433 . S
C1316 H1312 0.929 . S
C1316 C1318 1.378 . S
C1316 C1320 1.350 . S
C1317 C1320 1.463 1_655 S
C1317 C1322 1.350 . S
C1317 N1325 1.427 . S
C1318 H1309 0.930 . S
C1318 C1316 1.378 . S
C1318 C1319 1.367 . S
C1319 C1318 1.367 . S
C1319 C1321 1.433 . S
C1320 C1316 1.350 . S
C1320 C1317 1.463 1_455 S
C1320 N1324 1.427 . S
C1321 H1311 0.929 . S
C1321 C1319 1.433 . S
C1321 N1324 1.384 . S
C1322 H1313 0.929 . S
C1322 C1314 1.378 . S
C1322 C1317 1.350 . S
C1323 H1310 0.929 . S
C1323 C1315 1.433 . S
C1323 N1325 1.384 . S
N1324 C1320 1.427 . S
N1324 C1321 1.384 . S
N1325 C1317 1.427 . S
N1325 C1323 1.384 . S
H1326 C1332 0.930 . S
H1327 C1336 0.930 . S
H1328 C1341 0.929 . S
H1329 C1339 0.929 . S
H1330 C1334 0.929 . S
H1331 C1340 0.929 . S
C1332 H1326 0.930 . S
C1332 C1333 1.386 . S
C1332 C1340 1.378 . S
C1333 C1332 1.386 . S
C1333 C1341 1.414 1_556 S
C1334 H1330 0.929 . S
C1334 C1336 1.378 . S
C1334 C1338 1.373 . S
C1335 C1338 1.461 1_566 S
C1335 C1340 1.372 . S
C1335 N1343 1.405 1_556 S
C1336 H1327 0.930 . S
C1336 C1334 1.378 . S
C1336 C1337 1.386 . S
C1337 C1336 1.386 . S
C1337 C1339 1.414 1_554 S
C1338 C1334 1.373 . S
C1338 C1335 1.461 1_544 S
C1338 N1342 1.405 1_554 S
C1339 H1329 0.929 . S
C1339 C1337 1.414 1_556 S
C1339 N1342 1.384 . S
C1340 H1331 0.929 . S
C1340 C1332 1.378 . S
C1340 C1335 1.372 . S
C1341 H1328 0.929 . S
C1341 C1333 1.414 1_554 S
C1341 N1343 1.384 . S
N1342 C1338 1.405 1_556 S
N1342 C1339 1.384 . S
N1343 C1335 1.405 1_554 S
N1343 C1341 1.384 . S
H1344 C1350 0.930 . S
H1345 C1354 0.930 . S
H1346 C1359 0.929 . S
H1347 C1357 0.929 . S
H1348 C1352 0.929 . S
H1349 C1358 0.929 . S
C1350 H1344 0.930 . S
C1350 C1351 1.367 . S
C1350 C1358 1.378 . S
C1351 C1350 1.367 . S
C1351 C1359 1.433 . S
C1352 H1348 0.929 . S
C1352 C1354 1.378 . S
C1352 C1356 1.350 . S
C1353 C1356 1.463 . S
C1353 C1358 1.350 . S
C1353 N1361 1.427 . S
C1354 H1345 0.930 . S
C1354 C1352 1.378 . S
C1354 C1355 1.367 . S
C1355 C1354 1.367 . S
C1355 C1357 1.433 . S
C1356 C1352 1.350 . S
C1356 C1353 1.463 . S
C1356 N1360 1.427 . S
C1357 H1347 0.929 . S
C1357 C1355 1.433 . S
C1357 N1360 1.384 . S
C1358 H1349 0.929 . S
C1358 C1350 1.378 . S
C1358 C1353 1.350 . S
C1359 H1346 0.929 . S
C1359 C1351 1.433 . S
C1359 N1361 1.384 . S
N1360 C1356 1.427 . S
N1360 C1357 1.384 . S
N1361 C1353 1.427 . S
N1361 C1359 1.384 . S
H1362 C1368 0.930 . S
H1363 C1372 0.930 . S
H1364 C1377 0.929 . S
H1365 C1375 0.929 . S
H1366 C1370 0.929 . S
H1367 C1376 0.929 . S
C1368 H1362 0.930 . S
C1368 C1369 1.367 . S
C1368 C1376 1.378 . S
C1369 C1368 1.367 . S
C1369 C1377 1.433 . S
C1370 H1366 0.929 . S
C1370 C1372 1.378 . S
C1370 C1374 1.350 . S
C1371 C1374 1.463 1_455 S
C1371 C1376 1.350 . S
C1371 N1379 1.427 . S
C1372 H1363 0.930 . S
C1372 C1370 1.378 . S
C1372 C1373 1.367 . S
C1373 C1372 1.367 . S
C1373 C1375 1.433 . S
C1374 C1370 1.350 . S
C1374 C1371 1.463 1_655 S
C1374 N1378 1.427 . S
C1375 H1365 0.929 . S
C1375 C1373 1.433 . S
C1375 N1378 1.384 . S
C1376 H1367 0.929 . S
C1376 C1368 1.378 . S
C1376 C1371 1.350 . S
C1377 H1364 0.929 . S
C1377 C1369 1.433 . S
C1377 N1379 1.384 . S
N1378 C1374 1.427 . S
N1378 C1375 1.384 . S
N1379 C1371 1.427 . S
N1379 C1377 1.384 . S
H1380 C1386 0.930 . S
H1381 C1390 0.930 . S
H1382 C1395 0.929 . S
H1383 C1393 0.929 . S
H1384 C1388 0.929 . S
H1385 C1394 0.929 . S
C1386 H1380 0.930 . S
C1386 C1387 1.367 . S
C1386 C1394 1.378 . S
C1387 C1386 1.367 . S
C1387 C1395 1.433 . S
C1388 H1384 0.929 . S
C1388 C1390 1.378 . S
C1388 C1392 1.350 . S
C1389 C1392 1.463 1_556 S
C1389 C1394 1.350 . S
C1389 N1397 1.427 . S
C1390 H1381 0.930 . S
C1390 C1388 1.378 . S
C1390 C1391 1.367 . S
C1391 C1390 1.367 . S
C1391 C1393 1.433 . S
C1392 C1388 1.350 . S
C1392 C1389 1.463 1_554 S
C1392 N1396 1.427 . S
C1393 H1383 0.929 . S
C1393 C1391 1.433 . S
C1393 N1396 1.384 . S
C1394 H1385 0.929 . S
C1394 C1386 1.378 . S
C1394 C1389 1.350 . S
C1395 H1382 0.929 . S
C1395 C1387 1.433 . S
C1395 N1397 1.384 . S
N1396 C1392 1.427 . S
N1396 C1393 1.384 . S
N1397 C1389 1.427 . S
N1397 C1395 1.384 . S
H1398 C1404 0.930 . S
H1399 C1408 0.930 . S
H1400 C1413 0.929 . S
H1401 C1411 0.929 . S
H1402 C1406 0.929 . S
H1403 C1412 0.929 . S
C1404 H1398 0.930 . S
C1404 C1405 1.367 . S
C1404 C1412 1.378 . S
C1405 C1404 1.367 . S
C1405 C1413 1.433 . S
C1406 H1402 0.929 . S
C1406 C1408 1.378 . S
C1406 C1410 1.350 . S
C1407 C1410 1.463 . S
C1407 C1412 1.350 . S
C1407 N1415 1.427 . S
C1408 H1399 0.930 . S
C1408 C1406 1.378 . S
C1408 C1409 1.367 . S
C1409 C1408 1.367 . S
C1409 C1411 1.433 . S
C1410 C1406 1.350 . S
C1410 C1407 1.463 . S
C1410 N1414 1.427 . S
C1411 H1401 0.929 . S
C1411 C1409 1.433 . S
C1411 N1414 1.384 . S
C1412 H1403 0.929 . S
C1412 C1404 1.378 . S
C1412 C1407 1.350 . S
C1413 H1400 0.929 . S
C1413 C1405 1.433 . S
C1413 N1415 1.384 . S
N1414 C1410 1.427 . S
N1414 C1411 1.384 . S
N1415 C1407 1.427 . S
N1415 C1413 1.384 . S
H1416 C1422 0.930 . S
H1417 C1426 0.930 . S
H1418 C1431 0.929 . S
H1419 C1429 0.929 . S
H1420 C1424 0.929 . S
H1421 C1430 0.929 . S
C1422 H1416 0.930 . S
C1422 C1423 1.367 . S
C1422 C1430 1.378 . S
C1423 C1422 1.367 . S
C1423 C1431 1.433 . S
C1424 H1420 0.929 . S
C1424 C1426 1.378 . S
C1424 C1428 1.350 . S
C1425 C1428 1.463 . S
C1425 C1430 1.350 . S
C1425 N1433 1.427 . S
C1426 H1417 0.930 . S
C1426 C1424 1.378 . S
C1426 C1427 1.367 . S
C1427 C1426 1.367 . S
C1427 C1429 1.433 . S
C1428 C1424 1.350 . S
C1428 C1425 1.463 . S
C1428 N1432 1.427 . S
C1429 H1419 0.929 . S
C1429 C1427 1.433 . S
C1429 N1432 1.384 . S
C1430 H1421 0.929 . S
C1430 C1422 1.378 . S
C1430 C1425 1.350 . S
C1431 H1418 0.929 . S
C1431 C1423 1.433 . S
C1431 N1433 1.384 . S
N1432 C1428 1.427 . S
N1432 C1429 1.384 . S
N1433 C1425 1.427 . S
N1433 C1431 1.384 . S
H1434 C1440 0.930 . S
H1435 C1444 0.930 . S
H1436 C1449 0.929 . S
H1437 C1447 0.929 . S
H1438 C1442 0.929 . S
H1439 C1448 0.929 . S
C1440 H1434 0.930 . S
C1440 C1441 1.367 . S
C1440 C1448 1.378 . S
C1441 C1440 1.367 . S
C1441 C1449 1.433 . S
C1442 H1438 0.929 . S
C1442 C1444 1.378 . S
C1442 C1446 1.350 . S
C1443 C1446 1.463 1_554 S
C1443 C1448 1.350 . S
C1443 N1451 1.427 . S
C1444 H1435 0.930 . S
C1444 C1442 1.378 . S
C1444 C1445 1.367 . S
C1445 C1444 1.367 . S
C1445 C1447 1.433 . S
C1446 C1442 1.350 . S
C1446 C1443 1.463 1_556 S
C1446 N1450 1.427 . S
C1447 H1437 0.929 . S
C1447 C1445 1.433 . S
C1447 N1450 1.384 . S
C1448 H1439 0.929 . S
C1448 C1440 1.378 . S
C1448 C1443 1.350 . S
C1449 H1436 0.929 . S
C1449 C1441 1.433 . S
C1449 N1451 1.384 . S
N1450 C1446 1.427 . S
N1450 C1447 1.384 . S
N1451 C1443 1.427 . S
N1451 C1449 1.384 . S
H1452 C1458 0.930 . S
H1453 C1462 0.930 . S
H1454 C1467 0.929 . S
H1455 C1465 0.929 . S
H1456 C1460 0.929 . S
H1457 C1466 0.929 . S
C1458 H1452 0.930 . S
C1458 C1459 1.367 . S
C1458 C1466 1.378 . S
C1459 C1458 1.367 . S
C1459 C1467 1.433 . S
C1460 H1456 0.929 . S
C1460 C1462 1.378 . S
C1460 C1464 1.350 . S
C1461 C1464 1.463 . S
C1461 C1466 1.350 . S
C1461 N1469 1.427 . S
C1462 H1453 0.930 . S
C1462 C1460 1.378 . S
C1462 C1463 1.367 . S
C1463 C1462 1.367 . S
C1463 C1465 1.433 . S
C1464 C1460 1.350 . S
C1464 C1461 1.463 . S
C1464 N1468 1.427 . S
C1465 H1455 0.929 . S
C1465 C1463 1.433 . S
C1465 N1468 1.384 . S
C1466 H1457 0.929 . S
C1466 C1458 1.378 . S
C1466 C1461 1.350 . S
C1467 H1454 0.929 . S
C1467 C1459 1.433 . S
C1467 N1469 1.384 . S
N1468 C1464 1.427 . S
N1468 C1465 1.384 . S
N1469 C1461 1.427 . S
N1469 C1467 1.384 . S
H1470 C1476 0.930 . S
H1471 C1480 0.930 . S
H1472 C1485 0.929 . S
H1473 C1483 0.929 . S
H1474 C1478 0.929 . S
H1475 C1484 0.929 . S
C1476 H1470 0.930 . S
C1476 C1477 1.367 . S
C1476 C1484 1.378 . S
C1477 C1476 1.367 . S
C1477 C1485 1.433 . S
C1478 H1474 0.929 . S
C1478 C1480 1.378 . S
C1478 C1482 1.350 . S
C1479 C1482 1.463 . S
C1479 C1484 1.350 . S
C1479 N1487 1.427 . S
C1480 H1471 0.930 . S
C1480 C1478 1.378 . S
C1480 C1481 1.367 . S
C1481 C1480 1.367 . S
C1481 C1483 1.433 . S
C1482 C1478 1.350 . S
C1482 C1479 1.463 . S
C1482 N1486 1.427 . S
C1483 H1473 0.929 . S
C1483 C1481 1.433 . S
C1483 N1486 1.384 . S
C1484 H1475 0.929 . S
C1484 C1476 1.378 . S
C1484 C1479 1.350 . S
C1485 H1472 0.929 . S
C1485 C1477 1.433 . S
C1485 N1487 1.384 . S
N1486 C1482 1.427 . S
N1486 C1483 1.384 . S
N1487 C1479 1.427 . S
N1487 C1485 1.384 . S
C1063 C293 1.943 . S
C1067 C20 1.940 . S
C1081 C108 1.938 . S
C1085 C372 1.941 . S
C1099 C460 1.942 . S
C1103 C205 1.943 . S
C1117 C585 1.937 . S
C1121 C849 1.933 . S
C1135 C929 1.940 . S
C1139 C665 1.943 . S
C1153 C761 1.929 . S
C1157 C1025 1.932 . S
C1171 C753 1.588 . S
C1175 C29 1.588 . S
C1189 C117 1.589 . S
C1193 C841 1.589 . S
C1207 C196 1.588 . S
C1211 C937 1.588 . S
C1225 C284 1.589 . S
C1229 C1017 1.589 . S
C1243 C577 1.589 . S
C1247 C381 1.588 . S
C1261 C673 1.589 . S
C1265 C469 1.589 . S
C1279 C636 1.163 . S
C1283 C49 1.177 . S
C1297 C137 1.165 . S
C1301 C733 1.171 . S
C1315 C233 1.165 . S
C1319 C821 1.178 . S
C1333 C321 1.179 1_556 S
C1337 C900 1.172 1_554 S
C1351 C997 1.164 . S
C1355 C401 1.173 . S
C1369 C489 1.187 . S
C1373 C557 1.184 . S
C1387 C909 1.134 . S
C1391 C57 1.137 . S
C1405 C988 1.139 . S
C1409 C145 1.137 . S
C1423 C548 1.139 . S
C1427 C225 1.137 . S
C1441 C313 1.137 . S
C1445 C645 1.134 . S
C1459 C409 1.139 . S
C1463 C724 1.137 . S
C1477 C497 1.140 . S
C1481 C812 1.138 . S
