# Generated by pormake.
# Topology vcc, (6)-cn, num edge types: 1
# Building blocks:
#     Node 0, Type 0, BuildingBlock: BETFEN_clean_sbu_0, # of connection points: 6
#     Node 1, Type 0, BuildingBlock: BETFEN_clean_sbu_0, # of connection points: 6
#     Node 2, Type 0, BuildingBlock: BETFEN_clean_sbu_0, # of connection points: 6
#     Node 3, Type 0, BuildingBlock: BETFEN_clean_sbu_0, # of connection points: 6
#     Node 4, Type 0, BuildingBlock: BETFEN_clean_sbu_0, # of connection points: 6
#     Node 5, Type 0, BuildingBlock: BETFEN_clean_sbu_0, # of connection points: 6
#     Node 6, Type 0, BuildingBlock: BETFEN_clean_sbu_0, # of connection points: 6
#     Node 7, Type 0, BuildingBlock: BETFEN_clean_sbu_0, # of connection points: 6
#     Node 8, Type 0, BuildingBlock: BETFEN_clean_sbu_0, # of connection points: 6
#     Node 9, Type 0, BuildingBlock: BETFEN_clean_sbu_0, # of connection points: 6
#     Node 10, Type 0, BuildingBlock: BETFEN_clean_sbu_0, # of connection points: 6
#     Node 11, Type 0, BuildingBlock: BETFEN_clean_sbu_0, # of connection points: 6
#     Node 12, Type 0, BuildingBlock: BETFEN_clean_sbu_0, # of connection points: 6
#     Node 13, Type 0, BuildingBlock: BETFEN_clean_sbu_0, # of connection points: 6
#     Node 14, Type 0, BuildingBlock: BETFEN_clean_sbu_0, # of connection points: 6
#     Node 15, Type 0, BuildingBlock: BETFEN_clean_sbu_0, # of connection points: 6
#     Node 16, Type 0, BuildingBlock: BETFEN_clean_sbu_0, # of connection points: 6
#     Node 17, Type 0, BuildingBlock: BETFEN_clean_sbu_0, # of connection points: 6
#     Node 18, Type 0, BuildingBlock: BETFEN_clean_sbu_0, # of connection points: 6
#     Node 19, Type 0, BuildingBlock: BETFEN_clean_sbu_0, # of connection points: 6
#     Node 20, Type 0, BuildingBlock: BETFEN_clean_sbu_0, # of connection points: 6
#     Node 21, Type 0, BuildingBlock: BETFEN_clean_sbu_0, # of connection points: 6
#     Node 22, Type 0, BuildingBlock: BETFEN_clean_sbu_0, # of connection points: 6
#     Node 23, Type 0, BuildingBlock: BETFEN_clean_sbu_0, # of connection points: 6
#     Node 24, Type 0, BuildingBlock: BETFEN_clean_sbu_0, # of connection points: 6
#     Node 25, Type 0, BuildingBlock: BETFEN_clean_sbu_0, # of connection points: 6
#     Node 26, Type 0, BuildingBlock: BETFEN_clean_sbu_0, # of connection points: 6
#     Node 27, Type 0, BuildingBlock: BETFEN_clean_sbu_0, # of connection points: 6
#     Node 28, Type 0, BuildingBlock: BETFEN_clean_sbu_0, # of connection points: 6
#     Node 29, Type 0, BuildingBlock: BETFEN_clean_sbu_0, # of connection points: 6
#     Node 30, Type 0, BuildingBlock: BETFEN_clean_sbu_0, # of connection points: 6
#     Node 31, Type 0, BuildingBlock: BETFEN_clean_sbu_0, # of connection points: 6
#     Edge 32, Type (0, 0), BuildingBlock: AJUNOK_clean_linker_0, # of connection points: 2
#     Edge 33, Type (0, 0), BuildingBlock: AJUNOK_clean_linker_0, # of connection points: 2
#     Edge 34, Type (0, 0), BuildingBlock: AJUNOK_clean_linker_0, # of connection points: 2
#     Edge 35, Type (0, 0), BuildingBlock: AJUNOK_clean_linker_0, # of connection points: 2
#     Edge 36, Type (0, 0), BuildingBlock: AJUNOK_clean_linker_0, # of connection points: 2
#     Edge 37, Type (0, 0), BuildingBlock: AJUNOK_clean_linker_0, # of connection points: 2
#     Edge 38, Type (0, 0), BuildingBlock: AJUNOK_clean_linker_0, # of connection points: 2
#     Edge 39, Type (0, 0), BuildingBlock: AJUNOK_clean_linker_0, # of connection points: 2
#     Edge 40, Type (0, 0), BuildingBlock: AJUNOK_clean_linker_0, # of connection points: 2
#     Edge 41, Type (0, 0), BuildingBlock: AJUNOK_clean_linker_0, # of connection points: 2
#     Edge 42, Type (0, 0), BuildingBlock: AJUNOK_clean_linker_0, # of connection points: 2
#     Edge 43, Type (0, 0), BuildingBlock: AJUNOK_clean_linker_0, # of connection points: 2
#     Edge 44, Type (0, 0), BuildingBlock: AJUNOK_clean_linker_0, # of connection points: 2
#     Edge 45, Type (0, 0), BuildingBlock: AJUNOK_clean_linker_0, # of connection points: 2
#     Edge 46, Type (0, 0), BuildingBlock: AJUNOK_clean_linker_0, # of connection points: 2
#     Edge 47, Type (0, 0), BuildingBlock: AJUNOK_clean_linker_0, # of connection points: 2
#     Edge 48, Type (0, 0), BuildingBlock: AJUNOK_clean_linker_0, # of connection points: 2
#     Edge 49, Type (0, 0), BuildingBlock: AJUNOK_clean_linker_0, # of connection points: 2
#     Edge 50, Type (0, 0), BuildingBlock: AJUNOK_clean_linker_0, # of connection points: 2
#     Edge 51, Type (0, 0), BuildingBlock: AJUNOK_clean_linker_0, # of connection points: 2
#     Edge 52, Type (0, 0), BuildingBlock: AJUNOK_clean_linker_0, # of connection points: 2
#     Edge 53, Type (0, 0), BuildingBlock: AJUNOK_clean_linker_0, # of connection points: 2
#     Edge 54, Type (0, 0), BuildingBlock: AJUNOK_clean_linker_0, # of connection points: 2
#     Edge 55, Type (0, 0), BuildingBlock: AJUNOK_clean_linker_0, # of connection points: 2
#     Edge 56, Type (0, 0), BuildingBlock: AJUNOK_clean_linker_0, # of connection points: 2
#     Edge 57, Type (0, 0), BuildingBlock: AJUNOK_clean_linker_0, # of connection points: 2
#     Edge 58, Type (0, 0), BuildingBlock: AJUNOK_clean_linker_0, # of connection points: 2
#     Edge 59, Type (0, 0), BuildingBlock: AJUNOK_clean_linker_0, # of connection points: 2
#     Edge 60, Type (0, 0), BuildingBlock: AJUNOK_clean_linker_0, # of connection points: 2
#     Edge 61, Type (0, 0), BuildingBlock: AJUNOK_clean_linker_0, # of connection points: 2
#     Edge 62, Type (0, 0), BuildingBlock: AJUNOK_clean_linker_0, # of connection points: 2
#     Edge 63, Type (0, 0), BuildingBlock: AJUNOK_clean_linker_0, # of connection points: 2
#     Edge 64, Type (0, 0), BuildingBlock: AJUNOK_clean_linker_0, # of connection points: 2
#     Edge 65, Type (0, 0), BuildingBlock: AJUNOK_clean_linker_0, # of connection points: 2
#     Edge 66, Type (0, 0), BuildingBlock: AJUNOK_clean_linker_0, # of connection points: 2
#     Edge 67, Type (0, 0), BuildingBlock: AJUNOK_clean_linker_0, # of connection points: 2
#     Edge 68, Type (0, 0), BuildingBlock: AJUNOK_clean_linker_0, # of connection points: 2
#     Edge 69, Type (0, 0), BuildingBlock: AJUNOK_clean_linker_0, # of connection points: 2
#     Edge 70, Type (0, 0), BuildingBlock: AJUNOK_clean_linker_0, # of connection points: 2
#     Edge 71, Type (0, 0), BuildingBlock: AJUNOK_clean_linker_0, # of connection points: 2
#     Edge 72, Type (0, 0), BuildingBlock: AJUNOK_clean_linker_0, # of connection points: 2
#     Edge 73, Type (0, 0), BuildingBlock: AJUNOK_clean_linker_0, # of connection points: 2
#     Edge 74, Type (0, 0), BuildingBlock: AJUNOK_clean_linker_0, # of connection points: 2
#     Edge 75, Type (0, 0), BuildingBlock: AJUNOK_clean_linker_0, # of connection points: 2
#     Edge 76, Type (0, 0), BuildingBlock: AJUNOK_clean_linker_0, # of connection points: 2
#     Edge 77, Type (0, 0), BuildingBlock: AJUNOK_clean_linker_0, # of connection points: 2
#     Edge 78, Type (0, 0), BuildingBlock: AJUNOK_clean_linker_0, # of connection points: 2
#     Edge 79, Type (0, 0), BuildingBlock: AJUNOK_clean_linker_0, # of connection points: 2
#     Edge 80, Type (0, 0), BuildingBlock: AJUNOK_clean_linker_0, # of connection points: 2
#     Edge 81, Type (0, 0), BuildingBlock: AJUNOK_clean_linker_0, # of connection points: 2
#     Edge 82, Type (0, 0), BuildingBlock: AJUNOK_clean_linker_0, # of connection points: 2
#     Edge 83, Type (0, 0), BuildingBlock: AJUNOK_clean_linker_0, # of connection points: 2
#     Edge 84, Type (0, 0), BuildingBlock: AJUNOK_clean_linker_0, # of connection points: 2
#     Edge 85, Type (0, 0), BuildingBlock: AJUNOK_clean_linker_0, # of connection points: 2
#     Edge 86, Type (0, 0), BuildingBlock: AJUNOK_clean_linker_0, # of connection points: 2
#     Edge 87, Type (0, 0), BuildingBlock: AJUNOK_clean_linker_0, # of connection points: 2
#     Edge 88, Type (0, 0), BuildingBlock: AJUNOK_clean_linker_0, # of connection points: 2
#     Edge 89, Type (0, 0), BuildingBlock: AJUNOK_clean_linker_0, # of connection points: 2
#     Edge 90, Type (0, 0), BuildingBlock: AJUNOK_clean_linker_0, # of connection points: 2
#     Edge 91, Type (0, 0), BuildingBlock: AJUNOK_clean_linker_0, # of connection points: 2
#     Edge 92, Type (0, 0), BuildingBlock: AJUNOK_clean_linker_0, # of connection points: 2
#     Edge 93, Type (0, 0), BuildingBlock: AJUNOK_clean_linker_0, # of connection points: 2
#     Edge 94, Type (0, 0), BuildingBlock: AJUNOK_clean_linker_0, # of connection points: 2
#     Edge 95, Type (0, 0), BuildingBlock: AJUNOK_clean_linker_0, # of connection points: 2
#     Edge 96, Type (0, 0), BuildingBlock: AJUNOK_clean_linker_0, # of connection points: 2
#     Edge 97, Type (0, 0), BuildingBlock: AJUNOK_clean_linker_0, # of connection points: 2
#     Edge 98, Type (0, 0), BuildingBlock: AJUNOK_clean_linker_0, # of connection points: 2
#     Edge 99, Type (0, 0), BuildingBlock: AJUNOK_clean_linker_0, # of connection points: 2
#     Edge 100, Type (0, 0), BuildingBlock: AJUNOK_clean_linker_0, # of connection points: 2
#     Edge 101, Type (0, 0), BuildingBlock: AJUNOK_clean_linker_0, # of connection points: 2
#     Edge 102, Type (0, 0), BuildingBlock: AJUNOK_clean_linker_0, # of connection points: 2
#     Edge 103, Type (0, 0), BuildingBlock: AJUNOK_clean_linker_0, # of connection points: 2
#     Edge 104, Type (0, 0), BuildingBlock: AJUNOK_clean_linker_0, # of connection points: 2
#     Edge 105, Type (0, 0), BuildingBlock: AJUNOK_clean_linker_0, # of connection points: 2
#     Edge 106, Type (0, 0), BuildingBlock: AJUNOK_clean_linker_0, # of connection points: 2
#     Edge 107, Type (0, 0), BuildingBlock: AJUNOK_clean_linker_0, # of connection points: 2
#     Edge 108, Type (0, 0), BuildingBlock: AJUNOK_clean_linker_0, # of connection points: 2
#     Edge 109, Type (0, 0), BuildingBlock: AJUNOK_clean_linker_0, # of connection points: 2
#     Edge 110, Type (0, 0), BuildingBlock: AJUNOK_clean_linker_0, # of connection points: 2
#     Edge 111, Type (0, 0), BuildingBlock: AJUNOK_clean_linker_0, # of connection points: 2
#     Edge 112, Type (0, 0), BuildingBlock: AJUNOK_clean_linker_0, # of connection points: 2
#     Edge 113, Type (0, 0), BuildingBlock: AJUNOK_clean_linker_0, # of connection points: 2
#     Edge 114, Type (0, 0), BuildingBlock: AJUNOK_clean_linker_0, # of connection points: 2
#     Edge 115, Type (0, 0), BuildingBlock: AJUNOK_clean_linker_0, # of connection points: 2
#     Edge 116, Type (0, 0), BuildingBlock: AJUNOK_clean_linker_0, # of connection points: 2
#     Edge 117, Type (0, 0), BuildingBlock: AJUNOK_clean_linker_0, # of connection points: 2
#     Edge 118, Type (0, 0), BuildingBlock: AJUNOK_clean_linker_0, # of connection points: 2
#     Edge 119, Type (0, 0), BuildingBlock: AJUNOK_clean_linker_0, # of connection points: 2
#     Edge 120, Type (0, 0), BuildingBlock: AJUNOK_clean_linker_0, # of connection points: 2
#     Edge 121, Type (0, 0), BuildingBlock: AJUNOK_clean_linker_0, # of connection points: 2
#     Edge 122, Type (0, 0), BuildingBlock: AJUNOK_clean_linker_0, # of connection points: 2
#     Edge 123, Type (0, 0), BuildingBlock: AJUNOK_clean_linker_0, # of connection points: 2
#     Edge 124, Type (0, 0), BuildingBlock: AJUNOK_clean_linker_0, # of connection points: 2
#     Edge 125, Type (0, 0), BuildingBlock: AJUNOK_clean_linker_0, # of connection points: 2
#     Edge 126, Type (0, 0), BuildingBlock: AJUNOK_clean_linker_0, # of connection points: 2
#     Edge 127, Type (0, 0), BuildingBlock: AJUNOK_clean_linker_0, # of connection points: 2
# Relax obj value: 0.451
# Max RMSD: 0.210
# Mean RMSD: 0.210
data_MOF--net-vcc--node1-BETFEN_clean_sbu_0--edge1-AJUNOK_clean_linker_0
_symmetry_space_group_name_H-M    P1
_symmetry_Int_Tables_number       1
_symmetry_cell_setting            triclinic
loop_
_symmetry_equiv_pos_as_xyz
'x, y, z'
_cell_length_a     24.784642
_cell_length_b     42.394311
_cell_length_c     44.084086
_cell_angle_alpha  90.527733
_cell_angle_beta   90.093112
_cell_angle_gamma 89.793614
loop_
_atom_site_label
_atom_site_type_symbol
_atom_site_fract_x
_atom_site_fract_y
_atom_site_fract_z
_atom_type_partial_charge
Pr0 Pr 0.38929 0.00479 0.16135 0.0
Pr1 Pr 0.30803 0.98073 0.18372 0.0
C2 C 0.46799 0.02258 0.12416 0.0
C3 C 0.46673 0.02014 1.09097 0.0
C4 C 0.4598 0.04758 1.07395 0.0
C5 C 0.44187 0.04548 1.04411 0.0
C6 C 0.43334 0.01589 1.03027 0.0
C7 C 0.44589 0.98847 1.04637 0.0
C8 C 0.4605 0.99054 1.07677 0.0
C9 C 0.34469 0.05156 0.19906 0.0
C10 C 0.28252 0.99389 0.10997 0.0
C11 C 0.22303 0.96606 0.218 0.0
C12 C 0.20208 0.9842 0.24366 0.0
C13 C 0.19347 0.96919 0.27132 0.0
C14 C 0.19541 0.98691 0.29803 0.0
C15 C 0.20749 0.01923 0.29669 0.0
C16 C 0.20469 0.03493 0.26908 0.0
C17 C 0.20297 0.01736 0.24245 0.0
C18 C 0.36524 0.93092 0.15599 0.0
C19 C 0.41635 0.98818 0.23373 0.0
O20 O 0.46935 0.99593 0.13879 0.0
O21 O 0.43342 0.04264 0.13564 0.0
O22 O 0.31708 0.03532 0.18019 0.0
O23 O 0.3946 0.0428 0.19918 0.0
O24 O 0.25933 0.985 0.13555 0.0
O25 O 0.3342 0.00225 0.11347 0.0
O26 O 0.21897 0.97986 0.19185 0.0
O27 O 0.2705 0.95356 0.22239 0.0
O28 O 0.38544 0.95195 0.17282 0.0
O29 O 0.31495 0.93691 0.15087 0.0
O30 O 0.44026 0.99519 0.20769 0.0
O31 O 0.36303 0.98339 0.23136 0.0
H32 H 0.46362 0.07067 1.08449 0.0
H33 H 0.43172 0.0671 1.03251 0.0
H34 H 0.44239 0.96534 1.03598 0.0
H35 H 0.46499 0.96885 1.08932 0.0
H36 H 0.19197 0.94369 0.2725 0.0
H37 H 0.19703 0.97463 0.31947 0.0
H38 H 0.21374 0.05988 0.26785 0.0
H39 H 0.20905 0.02958 0.22125 0.0
Pr40 Pr 0.89929 0.23147 0.16497 0.0
Pr41 Pr 0.98405 0.25507 0.18629 0.0
C42 C 0.81803 0.21567 0.12814 0.0
C43 C 0.81565 0.22231 1.09567 0.0
C44 C 0.80312 0.19813 1.07503 0.0
C45 C 0.81294 0.20225 1.04417 0.0
C46 C 0.83498 0.23066 1.03387 0.0
C47 C 0.84457 0.25545 1.05425 0.0
C48 C 0.83542 0.25124 1.08501 0.0
C49 C 0.9471 0.1842 0.20016 0.0
C50 C 1.00501 0.23903 0.1128 0.0
C51 C 0.07454 0.27522 0.21427 0.0
C52 C 0.09472 0.27888 0.24517 0.0
C53 C 0.09203 0.3087 0.25922 0.0
C54 C 0.08856 0.31061 0.29061 0.0
C55 C 0.0886 0.28265 0.30728 0.0
C56 C 0.10821 0.25479 0.29383 0.0
C57 C 0.10798 0.25232 0.26247 0.0
C58 C 0.92833 0.30368 0.15606 0.0
C59 C 0.8769 0.2486 0.23825 0.0
O60 O 0.81597 0.24029 0.14616 0.0
O61 O 0.85562 0.19562 0.13569 0.0
O62 O 0.97272 0.20069 0.18098 0.0
O63 O 0.8972 0.19283 0.20203 0.0
O64 O 0.03012 0.24749 0.13803 0.0
O65 O 0.95269 0.23247 0.11664 0.0
O66 O 0.06859 0.24649 0.20388 0.0
O67 O 0.03398 0.29344 0.20749 0.0
O68 O 0.90774 0.28495 0.17492 0.0
O69 O 0.97675 0.29457 0.14957 0.0
O70 O 0.85201 0.24019 0.21271 0.0
O71 O 0.92998 0.25466 0.23489 0.0
H72 H 0.78925 0.17547 1.08298 0.0
H73 H 0.80628 0.18273 1.02858 0.0
H74 H 0.86266 0.27723 1.04665 0.0
H75 H 0.84651 0.27007 0.10057 0.0
H76 H 0.08457 0.32975 0.24605 0.0
H77 H 0.07565 0.33272 0.30081 0.0
H78 H 0.11112 0.23333 0.30692 0.0
H79 H 0.11306 0.22925 0.25208 0.0
Pr80 Pr 0.38366 0.22822 0.28057 0.0
Pr81 Pr 0.29568 0.2468 0.25735 0.0
C82 C 0.46499 0.21537 0.31847 0.0
C83 C 0.46472 0.21829 0.35171 0.0
C84 C 0.4708 0.19131 0.36954 0.0
C85 C 0.45968 0.19266 0.40054 0.0
C86 C 0.44412 0.22133 0.41443 0.0
C87 C 0.44147 0.24867 0.39675 0.0
C88 C 0.45039 0.24705 0.36565 0.0
C89 C 0.33768 0.17662 0.24966 0.0
C90 C 0.27546 0.23569 0.3313 0.0
C91 C 0.21025 0.26067 0.22224 0.0
C92 C 0.2042 0.28269 0.19702 0.0
C93 C 0.22061 0.31421 0.20055 0.0
C94 C 0.23643 0.33147 0.17542 0.0
C95 C 0.23319 0.31767 0.14661 0.0
C96 C 0.20734 0.28842 0.14274 0.0
C97 C 0.19328 0.2708 0.16797 0.0
C98 C 0.34944 0.29995 0.28204 0.0
C99 C 0.40495 0.24515 0.2073 0.0
O100 O 0.46203 0.24167 0.30335 0.0
O101 O 0.43361 0.19347 0.30748 0.0
O102 O 0.31198 0.19434 0.26812 0.0
O103 O 0.38654 0.18653 0.24597 0.0
O104 O 0.24902 0.23732 0.30517 0.0
O105 O 0.3292 0.23438 0.32819 0.0
O106 O 0.24133 0.23631 0.21705 0.0
O107 O 0.21862 0.27333 0.24884 0.0
O108 O 0.37082 0.2792 0.26527 0.0
O109 O 0.2997 0.29289 0.28725 0.0
O110 O 0.43097 0.24006 0.23326 0.0
O111 O 0.35112 0.24687 0.20995 0.0
H112 H 0.48081 0.16878 0.35915 0.0
H113 H 0.46021 0.17084 0.41306 0.0
H114 H 0.43053 0.27124 0.40673 0.0
H115 H 0.44488 0.26829 0.35251 0.0
H116 H 0.22639 0.32431 0.22281 0.0
H117 H 0.25585 0.3541 0.17868 0.0
H118 H 0.2045 0.27744 0.12049 0.0
H119 H 0.17947 0.24677 0.16479 0.0
Pr120 Pr 0.89989 0.01327 0.28462 0.0
Pr121 Pr 0.98175 0.9883 0.26419 0.0
C122 C 0.81962 0.03852 0.31829 0.0
C123 C 0.81428 0.04234 0.35123 0.0
C124 C 0.80245 0.07218 0.36381 0.0
C125 C 0.81241 0.0782 0.3946 0.0
C126 C 0.83356 0.05421 0.41286 0.0
C127 C 0.83954 0.02366 0.40087 0.0
C128 C 0.83146 0.01794 0.37019 0.0
C129 C 0.95147 0.05907 0.24855 0.0
C130 C 1.00516 0.00438 0.33648 0.0
C131 C 0.06868 0.96474 0.23566 0.0
C132 C 0.096 0.97285 0.20797 0.0
C133 C 0.11014 0.94877 0.18762 0.0
C134 C 0.11972 0.95618 0.15753 0.0
C135 C 0.11188 0.98739 0.14795 0.0
C136 C 0.10956 0.01187 0.16943 0.0
C137 C 0.09942 0.00457 0.19939 0.0
C138 C 0.92631 0.94028 0.29512 0.0
C139 C 0.87696 0.99513 0.2119 0.0
O140 O 0.81879 0.00973 0.30753 0.0
O141 O 0.85815 0.05518 0.30658 0.0
O142 O 0.97496 0.04267 0.26862 0.0
O143 O 0.9019 0.05038 0.24563 0.0
O144 O 0.03081 0.00065 0.31049 0.0
O145 O 0.95157 0.00693 0.33329 0.0
O146 O 0.07151 0.9856 0.25744 0.0
O147 O 0.02022 0.95368 0.23164 0.0
O148 O 0.90508 0.95915 0.27648 0.0
O149 O 0.97502 0.94892 0.30082 0.0
O150 O 0.85133 0.00035 0.23795 0.0
O151 O 0.93078 0.99251 0.21499 0.0
H152 H 0.78967 0.09138 0.34939 0.0
H153 H 0.80742 0.10192 0.40352 0.0
H154 H 0.85426 0.00467 0.4149 0.0
H155 H 0.84137 0.99479 0.36114 0.0
H156 H 0.10833 0.92423 0.19424 0.0
H157 H 0.12232 0.93703 0.1412 0.0
H158 H 0.10451 0.03617 0.1625 0.0
H159 H 0.08915 0.02353 0.21502 0.0
Pr160 Pr 0.73193 0.00693 1.0136 0.0
Pr161 Pr 0.65227 0.98129 1.03269 0.0
C162 C 0.81837 0.03104 0.98563 0.0
C163 C 0.84214 0.02629 0.95593 0.0
C164 C 0.84812 0.05232 0.93695 0.0
C165 C 0.85077 0.04751 0.9058 0.0
C166 C 0.84719 0.01668 0.89421 0.0
C167 C 0.85519 0.991 0.91348 0.0
C168 C 0.84972 0.99561 0.94444 0.0
C169 C 0.67136 0.05509 1.04208 0.0
C170 C 0.62813 5e-05 0.96056 0.0
C171 C 0.57632 0.95488 1.06728 0.0
C172 C 0.57885 0.94826 0.09999 0.0
C173 C 0.59118 0.91762 0.10997 0.0
C174 C 0.60751 0.9127 0.1399 0.0
C175 C 0.60924 0.93812 0.16042 0.0
C176 C 0.59173 0.96797 0.15122 0.0
C177 C 0.57862 0.97324 0.12107 0.0
C178 C 0.70179 0.93617 0.99462 0.0
C179 C 0.75459 0.99204 1.08646 0.0
O180 O 0.82107 0.00725 1.00407 0.0
O181 O 0.771 0.04439 0.98522 0.0
O182 O 0.65252 0.03493 1.02369 0.0
O183 O 0.71974 0.04726 1.04995 0.0
O184 O 0.60264 0.99372 0.98635 0.0
O185 O 0.6817 0.00376 0.96397 0.0
O186 O 0.5748 0.98454 1.05938 0.0
O187 O 0.60969 0.93838 1.05077 0.0
O188 O 0.72686 0.95191 1.01501 0.0
O189 O 0.65233 0.94539 0.99253 0.0
O190 O 0.78044 -0.00245 1.06091 0.0
O191 O 0.7018 0.9872 1.08229 0.0
H192 H 0.84364 0.07614 0.94578 0.0
H193 H 0.84578 0.06769 0.89115 0.0
H194 H 0.85423 0.96708 0.90458 0.0
H195 H 0.84672 0.97513 0.95884 0.0
H196 H 0.59186 0.89791 1.09416 0.0
H197 H 0.62012 0.88934 0.14681 0.0
H198 H 0.59174 0.98779 0.16688 0.0
H199 H 0.57107 -0.00276 0.11409 0.0
Pr200 Pr 0.0622 0.73564 1.01593 0.0
Pr201 Pr 0.14135 0.76213 1.03513 0.0
C202 C 0.97788 0.70842 0.98799 0.0
C203 C 0.95157 0.71362 0.95927 0.0
C204 C 0.93158 0.688 0.94256 0.0
C205 C 0.91918 0.69188 0.91203 0.0
C206 C 0.92967 0.72096 0.89819 0.0
C207 C 0.94195 0.74746 0.91625 0.0
C208 C 0.95341 0.74372 0.94663 0.0
C209 C 0.12379 0.68905 1.04556 0.0
C210 C 0.16489 0.74226 0.96314 0.0
C211 C 0.21931 0.78601 1.07023 0.0
C212 C 0.22304 0.78212 0.10304 0.0
C213 C 0.23078 0.80839 0.12195 0.0
C214 C 0.22108 0.80605 0.15302 0.0
C215 C 0.20504 0.77712 0.16558 0.0
C216 C 0.20119 0.75043 0.14664 0.0
C217 C 0.2085 0.75311 0.11564 0.0
C218 C 0.09342 0.80638 0.9963 0.0
C219 C 0.03756 0.75284 1.0882 0.0
O220 O 0.973 0.73128 1.00778 0.0
O221 O 0.02703 0.69774 0.98569 0.0
O222 O 0.14168 0.70849 1.02673 0.0
O223 O 0.07538 0.69688 1.05328 0.0
O224 O 0.19102 0.7478 0.98899 0.0
O225 O 0.11117 0.74011 0.96651 0.0
O226 O 0.22586 0.76038 1.05396 0.0
O227 O 0.17789 0.80269 1.06166 0.0
O228 O 0.06697 0.79076 1.01588 0.0
O229 O 0.14342 0.79792 0.99586 0.0
O230 O 1.01257 0.74603 1.06252 0.0
O231 O 0.09039 0.75799 1.08443 0.0
H232 H 0.92944 0.66472 0.95245 0.0
H233 H 0.90904 0.67129 0.89846 0.0
H234 H 0.95088 0.77015 0.90641 0.0
H235 H 0.96858 0.76377 0.95944 0.0
H236 H 0.24047 0.83115 0.11243 0.0
H237 H 0.22256 0.82741 0.1666 0.0
H238 H 0.19025 0.72761 0.15553 0.0
H239 H 0.20116 0.73254 0.10146 0.0
Pr240 Pr 0.73364 0.73751 0.93008 0.0
Pr241 Pr 0.65323 0.76126 0.90979 0.0
C242 C 0.82318 0.72152 0.96006 0.0
C243 C 0.8424 0.7331 0.989 0.0
C244 C 0.85244 0.7109 1.01149 0.0
C245 C 0.83804 0.71801 1.04108 0.0
C246 C 0.81161 0.74672 1.04745 0.0
C247 C 0.81376 0.77111 1.02624 0.0
C248 C 0.83014 0.7644 0.99695 0.0
C249 C 0.67886 0.68723 0.90149 0.0
C250 C 0.62788 0.74575 0.98269 0.0
C251 C 0.57579 0.77448 0.87024 0.0
C252 C 0.57632 0.76089 0.83958 0.0
C253 C 0.56762 0.78005 0.81437 0.0
C254 C 0.5795 0.76853 0.78535 0.0
C255 C 0.60006 0.73786 0.78145 0.0
C256 C 0.60666 0.71827 0.80643 0.0
C257 C 0.59504 0.72972 0.83534 0.0
C258 C 0.70016 0.81017 0.94436 0.0
C259 C 0.75742 0.75039 0.85691 0.0
O260 O 0.82275 0.7421 0.93831 0.0
O261 O 0.77853 0.70542 0.96182 0.0
O262 O 0.65766 0.70739 0.91911 0.0
O263 O 0.72795 0.69513 0.89569 0.0
O264 O 0.60374 0.75512 0.95734 0.0
O265 O 0.68047 0.73854 0.97896 0.0
O266 O 0.56886 0.75432 0.8921 0.0
O267 O 0.61485 0.79425 0.8757 0.0
O268 O 0.72592 0.79233 0.92596 0.0
O269 O 0.64982 0.80237 0.9453 0.0
O270 O 0.78091 0.74006 0.88178 0.0
O271 O 0.70653 0.75982 0.86135 0.0
H272 H 0.86346 0.68684 1.00562 0.0
H273 H 0.84082 0.69944 1.05765 0.0
H274 H 0.79579 0.79396 1.03074 0.0
H275 H 0.82383 0.78223 0.97983 0.0
H276 H 0.55465 0.80429 0.81733 0.0
H277 H 0.57606 0.78409 0.76611 0.0
H278 H 0.62413 0.69494 0.80379 0.0
H279 H 0.60347 0.7147 0.85451 0.0
Pr280 Pr 0.055 0.00299 0.93219 0.0
Pr281 Pr 0.13651 0.97888 0.91188 0.0
C282 C 0.9687 0.02635 0.96155 0.0
C283 C 0.948 0.02142 0.99189 0.0
C284 C 0.94354 0.04743 1.01154 0.0
C285 C 0.94976 0.04293 1.04252 0.0
C286 C 0.96158 0.01258 1.05306 0.0
C287 C 0.9529 0.98631 1.0342 0.0
C288 C 0.94652 0.99073 1.0034 0.0
C289 C 0.11671 0.05198 0.90683 0.0
C290 C 0.15817 0.99466 0.98501 0.0
C291 C 0.21612 0.95849 0.87585 0.0
C292 C 0.22016 0.96445 0.84338 0.0
C293 C 0.23085 0.93955 0.82317 0.0
C294 C 0.22153 0.9435 0.79221 0.0
C295 C 0.20243 0.97253 0.78141 0.0
C296 C 0.19618 -0.00193 0.80135 0.0
C297 C 0.20346 0.99385 0.83221 0.0
C298 C 0.08754 0.93101 0.94615 0.0
C299 C 0.03311 0.9902 0.85892 0.0
O300 O 0.96671 0.00218 0.94315 0.0
O301 O 1.01499 0.04071 0.96084 0.0
O302 O 0.13391 0.03129 0.92464 0.0
O303 O 0.06852 0.0449 0.89787 0.0
O304 O 0.18463 0.99144 0.95897 0.0
O305 O 0.10424 0.99572 0.98161 0.0
O306 O 0.22079 0.98318 0.89355 0.0
O307 O 0.1756 0.94065 0.88316 0.0
O308 O 0.06248 0.94836 0.92733 0.0
O309 O 0.13738 0.93948 0.94822 0.0
O310 O 1.00672 0.9927 0.88482 0.0
O311 O 0.08662 0.98816 0.86282 0.0
H312 H 0.94289 0.07124 1.0028 0.0
H313 H 0.95407 0.06335 1.05728 0.0
H314 H 0.96014 0.96256 1.04213 0.0
H315 H 0.94797 0.97023 0.98857 0.0
H316 H 0.24261 0.91657 0.83151 0.0
H317 H 0.2262 0.92349 0.77696 0.0
H318 H 0.18228 0.02074 0.79336 0.0
H319 H 0.19399 0.01333 0.84739 0.0
Pr320 Pr 0.38256 0.51129 0.66654 0.0
Pr321 Pr 0.29754 0.48684 0.68666 0.0
C322 C 0.46317 0.52969 0.63091 0.0
C323 C 0.46416 0.52545 0.59796 0.0
C324 C 0.47293 0.55142 0.57929 0.0
C325 C 0.46335 0.54903 0.54817 0.0
C326 C 0.4455 0.5204 0.53523 0.0
C327 C 0.43807 0.49423 0.55402 0.0
C328 C 0.44616 0.49692 0.58511 0.0
C329 C 0.33133 0.55844 0.70154 0.0
C330 C 0.27947 0.50238 0.61322 0.0
C331 C 0.20598 0.46655 0.71275 0.0
C332 C 0.18022 0.47206 0.74179 0.0
C333 C 0.1669 0.44603 0.75957 0.0
C334 C 0.16827 0.44905 0.79099 0.0
C335 C 0.1871 0.47736 0.80381 0.0
C336 C 0.18641 0.50485 0.78621 0.0
C337 C 0.1832 0.50215 0.755 0.0
C338 C 0.3559 0.43847 0.6567 0.0
C339 C 0.40331 0.49452 0.7394 0.0
O340 O 0.4658 0.50392 0.64688 0.0
O341 O 0.42598 0.54916 0.64044 0.0
O342 O 0.30747 0.54118 0.68196 0.0
O343 O 0.38135 0.55021 0.70408 0.0
O344 O 0.25348 0.49422 0.63802 0.0
O345 O 0.3316 0.50888 0.61764 0.0
O346 O 0.20781 0.49062 0.69459 0.0
O347 O 0.25192 0.45156 0.71454 0.0
O348 O 0.3752 0.45785 0.67566 0.0
O349 O 0.30686 0.44628 0.65044 0.0
O350 O 0.4291 0.50086 0.7138 0.0
O351 O 0.34965 0.4903 0.73599 0.0
H352 H 0.48391 0.57405 0.58907 0.0
H353 H 0.46692 0.57012 0.5347 0.0
H354 H 0.42468 0.4718 0.54485 0.0
H355 H 0.43738 0.4767 0.59912 0.0
H356 H 0.16238 0.42281 0.74941 0.0
H357 H 0.16434 0.42805 0.80462 0.0
H358 H 0.1982 0.52754 0.79547 0.0
H359 H 0.19159 0.52281 0.74153 0.0
Pr360 Pr 0.90357 0.73213 0.65967 0.0
Pr361 Pr 0.98598 0.75255 0.68097 0.0
C362 C 0.8265 0.71119 0.62198 0.0
C363 C 0.8287 0.70739 0.5888 0.0
C364 C 0.83026 0.67687 0.57611 0.0
C365 C 0.84702 0.67234 0.54619 0.0
C366 C 0.86017 0.69834 0.52837 0.0
C367 C 0.85383 0.72889 0.54004 0.0
C368 C 0.83936 0.73344 0.57026 0.0
C369 C 0.94054 0.68422 0.69827 0.0
C370 C 1.00936 0.7389 0.60844 0.0
C371 C 0.07463 0.77024 0.71109 0.0
C372 C 0.09454 0.75867 0.73982 0.0
C373 C 0.09746 0.78037 0.76378 0.0
C374 C 0.08158 0.77098 0.79234 0.0
C375 C 0.06324 0.74002 0.79651 0.0
C376 C 0.07339 0.71697 0.77429 0.0
C377 C 0.08968 0.72633 0.74577 0.0
C378 C 0.93341 0.80344 0.6519 0.0
C379 C 0.88073 0.74988 0.73239 0.0
O380 O 0.82721 0.73997 0.63285 0.0
O381 O 0.85844 0.69232 0.63673 0.0
O382 O 0.97138 0.69836 0.67962 0.0
O383 O 0.89227 0.69566 0.69748 0.0
O384 O 0.035 0.73995 0.63462 0.0
O385 O 0.95584 0.73857 0.61155 0.0
O386 O 0.07571 0.75004 0.68866 0.0
O387 O 0.02884 0.78537 0.71326 0.0
O388 O 0.91156 0.78488 0.67022 0.0
O389 O 0.98175 0.794 0.64595 0.0
O390 O 0.85491 0.748 0.70588 0.0
O391 O 0.93467 0.74849 0.72978 0.0
H392 H 0.82264 0.65642 0.59002 0.0
H393 H 0.85253 0.64857 0.5375 0.0
H394 H 0.86279 0.74915 0.52621 0.0
H395 H 0.83895 0.75727 0.57934 0.0
H396 H 0.10272 0.80531 0.75948 0.0
H397 H 0.07581 0.78901 0.80956 0.0
H398 H 0.06106 0.69271 0.77732 0.0
H399 H 0.0892 0.70896 0.72758 0.0
Pr400 Pr 0.38704 0.7319 0.78366 0.0
Pr401 Pr 0.30411 0.75614 0.76388 0.0
C402 C 0.46636 0.71272 0.81983 0.0
C403 C 0.46841 0.72053 0.85216 0.0
C404 C 0.4731 0.69647 0.87344 0.0
C405 C 0.46208 0.70279 0.90387 0.0
C406 C 0.44781 0.73352 0.91361 0.0
C407 C 0.44762 0.75798 0.89242 0.0
C408 C 0.45574 0.75135 0.86188 0.0
C409 C 0.3388 0.68514 0.74751 0.0
C410 C 0.28344 0.74162 0.83702 0.0
C411 C 0.21596 0.77869 0.73595 0.0
C412 C 0.19752 0.78178 0.7049 0.0
C413 C 0.18666 0.8121 0.69397 0.0
C414 C 0.18985 0.81759 0.66304 0.0
C415 C 0.2032 0.7926 0.64358 0.0
C416 C 0.20238 0.76147 0.65392 0.0
C417 C 0.20074 0.75602 0.68482 0.0
C418 C 0.364 0.80468 0.79221 0.0
C419 C 0.40848 0.75008 0.71117 0.0
O420 O 0.47187 0.73642 0.80142 0.0
O421 O 0.4266 0.69422 0.81227 0.0
O422 O 0.31338 0.70152 0.7672 0.0
O423 O 0.38846 0.69389 0.74544 0.0
O424 O 0.25731 0.74723 0.81149 0.0
O425 O 0.33647 0.73715 0.83299 0.0
O426 O 0.21893 0.75022 0.74685 0.0
O427 O 0.25776 0.79588 0.74264 0.0
O428 O 0.38226 0.78481 0.77342 0.0
O429 O 0.31564 0.79697 0.80012 0.0
O430 O 0.43479 0.7447 0.73694 0.0
O431 O 0.35466 0.75246 0.7145 0.0
H432 H 0.48167 0.67246 0.86626 0.0
H433 H 0.462 0.68314 0.91938 0.0
H434 H 0.44028 0.78221 0.89911 0.0
H435 H 0.4514 0.77043 0.84586 0.0
H436 H 0.18273 0.83201 0.70941 0.0
H437 H 0.18995 0.84167 0.65502 0.0
H438 H 0.2121 0.74199 0.63875 0.0
H439 H 0.20776 0.73229 0.69288 0.0
Pr440 Pr 0.89457 0.51157 0.78772 0.0
Pr441 Pr 0.97964 0.49133 0.76255 0.0
C442 C 0.81844 0.53106 0.82667 0.0
C443 C 0.82358 0.53934 0.85903 0.0
C444 C 0.83585 0.57042 0.86815 0.0
C445 C 0.85219 0.57672 0.89792 0.0
C446 C 0.85404 0.55226 0.91905 0.0
C447 C 0.8376 0.52191 0.91055 0.0
C448 C 0.82422 0.51531 0.88066 0.0
C449 C 0.94077 0.56166 0.75526 0.0
C450 C 1.00277 0.50248 0.83668 0.0
C451 C 0.06126 0.47712 0.72403 0.0
C452 C 0.05999 0.46078 0.69418 0.0
C453 C 0.0303 0.43272 0.69322 0.0
C454 C 0.98314 0.43186 0.6763 0.0
C455 C 0.96795 0.45879 0.66039 0.0
C456 C 1.00449 0.48509 0.65515 0.0
C457 C 0.05662 0.48064 0.6689 0.0
C458 C 0.92433 0.43832 0.78426 0.0
C459 C 0.8604 0.49438 0.71767 0.0
O460 O 0.82625 0.5014 0.81955 0.0
O461 O 0.84198 0.5501 0.80787 0.0
O462 O 0.96691 0.54435 0.77369 0.0
O463 O 0.89213 0.55136 0.75195 0.0
O464 O 0.02805 0.50144 0.81016 0.0
O465 O 0.94914 0.50334 0.83433 0.0
O466 O 0.03738 0.50463 0.72506 0.0
O467 O 0.04951 0.46023 0.74767 0.0
O468 O 0.90336 0.46062 0.76943 0.0
O469 O 0.97373 0.44498 0.79146 0.0
O470 O 0.83809 0.50022 0.74434 0.0
O471 O 0.91458 0.49111 0.71848 0.0
H472 H 0.83589 0.58947 0.85195 0.0
H473 H 0.86437 0.60039 0.90429 0.0
H474 H 0.83849 0.50275 0.92665 0.0
H475 H 0.81731 0.49099 0.87428 0.0
H476 H 0.03672 0.41459 0.71003 0.0
H477 H 0.95585 0.4121 0.67845 0.0
H478 H 0.95711 0.53021 0.62867 0.0
H479 H 0.08828 0.49801 0.66671 0.0
Pr480 Pr 0.72097 0.50247 0.51939 0.0
Pr481 Pr 0.63899 0.47857 0.53866 0.0
C482 C 0.81389 0.52091 0.4941 0.0
C483 C 0.84329 0.51164 0.46717 0.0
C484 C 0.86019 0.5352 0.4474 0.0
C485 C 0.86559 0.52805 0.41677 0.0
C486 C 0.84839 0.4984 0.40627 0.0
C487 C 0.84467 0.47337 0.42671 0.0
C488 C 0.8417 0.48008 0.45744 0.0
C489 C 0.66174 0.55176 0.54754 0.0
C490 C 0.61908 0.49291 0.46491 0.0
C491 C 0.56065 0.46641 0.57795 0.0
C492 C 0.56767 0.47502 0.61006 0.0
C493 C 0.55535 0.45364 0.63291 0.0
C494 C 0.57887 0.45705 0.66162 0.0
C495 C 0.61849 0.4804 0.66717 0.0
C496 C 0.62727 0.50298 0.64455 0.0
C497 C 0.6001 0.50118 0.61702 0.0
C498 C 0.68477 0.43087 0.50288 0.0
C499 C 0.74035 0.48957 0.59291 0.0
O500 O 0.81123 0.49966 0.51522 0.0
O501 O 0.76766 0.53469 0.48877 0.0
O502 O 0.64355 0.53216 0.52846 0.0
O503 O 0.70977 0.54331 0.55522 0.0
O504 O 0.59304 0.4848 0.49004 0.0
O505 O 0.67148 0.49996 0.46941 0.0
O506 O 0.5582 0.49017 0.55933 0.0
O507 O 0.59352 0.44432 0.56851 0.0
O508 O 0.71195 0.44756 0.52173 0.0
O509 O 0.6344 0.43901 0.50242 0.0
O510 O 0.76317 0.5025 0.56917 0.0
O511 O 0.69262 0.47666 0.5868 0.0
H512 H 0.86321 0.55953 0.45496 0.0
H513 H 0.87213 0.54721 0.40113 0.0
H514 H 0.83369 0.44986 0.41914 0.0
H515 H 0.83007 0.46137 0.47267 0.0
H516 H 0.53039 0.43333 0.62808 0.0
H517 H 0.56826 0.44007 0.67875 0.0
H518 H 0.65827 0.52066 0.64635 0.0
H519 H 0.61045 0.51813 0.59975 0.0
Pr520 Pr 0.05288 0.23962 0.51017 0.0
Pr521 Pr 0.13924 0.25789 0.53131 0.0
C522 C 0.96047 0.22459 0.48178 0.0
C523 C 0.93474 0.23414 0.45361 0.0
C524 C 0.93435 0.21287 0.42925 0.0
C525 C 0.93035 0.22436 0.40007 0.0
C526 C 0.927 0.25717 0.39553 0.0
C527 C 0.91111 0.27654 0.41988 0.0
C528 C 0.91754 0.26542 0.44922 0.0
C529 C 0.10408 0.18774 0.53889 0.0
C530 C 0.15645 0.2405 0.45749 0.0
C531 C 0.22038 0.27521 0.56763 0.0
C532 C 0.22033 0.2732 0.60076 0.0
C533 C 0.22169 0.30103 0.61824 0.0
C534 C 0.20543 0.30058 0.6485 0.0
C535 C 0.19014 0.27209 0.66178 0.0
C536 C 0.19385 0.24392 0.64516 0.0
C537 C 0.20678 0.24459 0.6146 0.0
C538 C 0.10237 0.30756 0.495 0.0
C539 C 0.03359 0.25162 0.58366 0.0
O540 O 0.96368 0.24613 0.50296 0.0
O541 O 1.005 0.20836 0.47858 0.0
O542 O 0.12607 0.20593 0.52036 0.0
O543 O 0.05556 0.1972 0.54438 0.0
O544 O 0.18356 0.24189 0.48365 0.0
O545 O 0.1027 0.24282 0.46083 0.0
O546 O 0.2208 0.24849 0.55254 0.0
O547 O 0.1853 0.29527 0.55711 0.0
O548 O 0.07234 0.29329 0.51393 0.0
O549 O 0.14982 0.29504 0.49405 0.0
O550 O 1.0071 0.25174 0.55769 0.0
O551 O 0.08725 0.25104 0.58 0.0
H552 H 0.94429 0.1882 0.43249 0.0
H553 H 0.93941 0.20803 0.38175 0.0
H554 H 0.90281 0.30138 0.41662 0.0
H555 H 0.91376 0.28189 0.46803 0.0
H556 H 0.23099 0.32343 0.60786 0.0
H557 H 0.20246 0.32254 0.66109 0.0
H558 H 0.18344 0.2216 0.65527 0.0
H559 H 0.20424 0.22279 0.60167 0.0
Pr560 Pr 0.73315 0.23747 0.43696 0.0
Pr561 Pr 0.64792 0.25751 0.41531 0.0
C562 C 0.82058 0.22166 0.4698 0.0
C563 C 0.83595 0.20761 0.49888 0.0
C564 C 0.8474 0.17519 0.5009 0.0
C565 C 0.85676 0.16163 0.52915 0.0
C566 C 0.85484 0.18029 0.5555 0.0
C567 C 0.84927 0.21317 0.55297 0.0
C568 C 0.83991 0.22671 0.5249 0.0
C569 C 0.67716 0.1849 0.41297 0.0
C570 C 0.62488 0.24263 0.48799 0.0
C571 C 0.56857 0.27448 0.37762 0.0
C572 C 0.57003 0.273 0.34433 0.0
C573 C 0.56929 0.30102 0.32759 0.0
C574 C 0.58542 0.3007 0.29726 0.0
C575 C 0.60089 0.27221 0.2833 0.0
C576 C 0.59646 0.24393 0.29913 0.0
C577 C 0.58266 0.24436 0.32962 0.0
C578 C 0.69534 0.30785 0.44773 0.0
C579 C 0.75367 0.25026 0.36358 0.0
O580 O 0.79849 0.24963 0.47056 0.0
O581 O 0.7997 0.2032 0.44921 0.0
O582 O 0.65732 0.20567 0.43046 0.0
O583 O 0.72479 0.19326 0.40419 0.0
O584 O 0.59894 0.24868 0.4623 0.0
O585 O 0.6784 0.2386 0.48475 0.0
O586 O 0.56879 0.24751 0.39177 0.0
O587 O 0.60173 0.29484 0.38962 0.0
O588 O 0.72005 0.29074 0.42833 0.0
O589 O 0.64653 0.29804 0.45137 0.0
O590 O 0.77999 0.25051 0.38977 0.0
O591 O 0.70009 0.24886 0.36706 0.0
H592 H 0.84669 0.16011 0.48093 0.0
H593 H 0.86151 0.13641 0.53066 0.0
H594 H 0.84728 0.2282 0.57296 0.0
H595 H 0.83325 0.25195 0.52387 0.0
H596 H 0.56 0.32338 0.33852 0.0
H597 H 0.58784 0.32272 0.28506 0.0
H598 H 0.60694 0.22166 0.28844 0.0
H599 H 0.58418 0.22235 0.34188 0.0
Pr600 Pr 0.05979 0.50668 0.43523 0.0
Pr601 Pr 0.14057 0.48558 0.41473 0.0
C602 C 0.9757 0.52158 0.46941 0.0
C603 C 0.9629 0.50664 0.49761 0.0
C604 C 0.93791 0.52405 0.52045 0.0
C605 C 0.93366 0.51121 0.54902 0.0
C606 C 0.95609 0.48129 0.55504 0.0
C607 C 0.97928 0.46334 0.53187 0.0
C608 C 0.98291 0.47613 0.50311 0.0
C609 C 0.11442 0.55829 0.40962 0.0
C610 C 0.16246 0.5012 0.48758 0.0
C611 C 0.22031 0.46902 0.37763 0.0
C612 C 0.21951 0.47442 0.34502 0.0
C613 C 0.22664 0.44892 0.32505 0.0
C614 C 0.21353 0.45227 0.29457 0.0
C615 C 0.1949 0.4813 0.28372 0.0
C616 C 0.19026 0.50723 0.30331 0.0
C617 C 0.20171 0.50372 0.33392 0.0
C618 C 0.09813 0.43557 0.44861 0.0
C619 C 0.03477 0.49539 0.36243 0.0
O620 O 0.97167 0.50316 0.44568 0.0
O621 O 0.02003 0.53797 0.47028 0.0
O622 O 0.13497 0.5381 0.42688 0.0
O623 O 0.06565 0.55045 0.40254 0.0
O624 O 0.18901 0.49857 0.46155 0.0
O625 O 0.10887 0.50094 0.48428 0.0
O626 O 0.22268 0.49426 0.39477 0.0
O627 O 0.18457 0.4488 0.38672 0.0
O628 O 0.07085 0.4521 0.43004 0.0
O629 O 0.14655 0.44644 0.45109 0.0
O630 O 1.00976 0.50156 0.38817 0.0
O631 O 0.0876 0.48977 0.36604 0.0
H632 H 0.92301 0.54772 0.51637 0.0
H633 H 0.91401 0.52503 0.56665 0.0
H634 H 0.99612 0.44021 0.53627 0.0
H635 H 1.00341 0.46289 0.48545 0.0
H636 H 0.23894 0.42601 0.33337 0.0
H637 H 0.21517 0.43191 0.27975 0.0
H638 H 0.17463 0.52957 0.2953 0.0
H639 H 0.19457 0.52361 0.349 0.0
Pr640 Pr 0.88985 0.00862 0.65991 0.0
Pr641 Pr 0.80842 0.98472 0.68017 0.0
C642 C 0.96622 0.03051 0.62295 0.0
C643 C 0.96007 0.03863 0.59064 0.0
C644 C 0.95392 0.07035 0.58209 0.0
C645 C 0.9361 0.07784 0.55292 0.0
C646 C 0.92536 0.05373 0.53185 0.0
C647 C 0.93487 0.02226 0.5397 0.0
C648 C 0.95143 0.01472 0.5689 0.0
C649 C 0.8413 0.05676 0.69436 0.0
C650 C 0.78627 -0.00217 0.60698 0.0
C651 C 0.71994 0.96505 0.70931 0.0
C652 C 0.69647 0.97504 0.73797 0.0
C653 C 0.69235 0.95303 0.76127 0.0
C654 C 0.69354 0.96356 0.79115 0.0
C655 C 0.69806 0.99604 0.79723 0.0
C656 C 0.68754 0.01765 0.77427 0.0
C657 C 0.69027 0.00739 0.74444 0.0
C658 C 0.86794 0.9355 0.65283 0.0
C659 C 0.91239 0.99233 0.73291 0.0
O660 O 0.96231 0.00067 0.62985 0.0
O661 O 0.94015 0.04872 0.64183 0.0
O662 O 0.81579 0.03948 0.67533 0.0
O663 O 0.89041 0.04702 0.69743 0.0
O664 O 0.76144 0.98977 0.63215 0.0
O665 O 0.83793 0.00557 0.61116 0.0
O666 O 0.71876 0.98583 0.68774 0.0
O667 O 0.76671 0.95112 0.7118 0.0
O668 O 0.88678 0.95567 0.67113 0.0
O669 O 0.81941 0.94312 0.64512 0.0
O670 O 0.93836 -0.00227 0.70704 0.0
O671 O 0.85882 0.98887 0.72951 0.0
H672 H 0.96032 0.08926 0.59838 0.0
H673 H 0.93035 0.10231 0.54695 0.0
H674 H 0.92713 0.00336 0.52357 0.0
H675 H 0.95515 0.99004 0.5747 0.0
H676 H 0.69612 0.92798 0.75653 0.0
H677 H 0.69984 0.94632 0.80881 0.0
H678 H 0.68771 0.04272 0.77908 0.0
H679 H 0.69257 0.02493 0.7268 0.0
Pr680 Pr 0.40121 0.23422 0.66606 0.0
Pr681 Pr 0.48364 0.25662 0.6864 0.0
C682 C 0.32203 0.21551 0.62895 0.0
C683 C 0.32264 0.21817 0.59582 0.0
C684 C 0.3161 0.1911 0.57767 0.0
C685 C 0.33071 0.19168 0.54711 0.0
C686 C 0.35102 0.21948 0.53451 0.0
C687 C 0.3534 0.24711 0.55199 0.0
C688 C 0.34019 0.24637 0.58256 0.0
C689 C 0.44752 0.18479 0.69975 0.0
C690 C 0.50525 0.24164 0.61356 0.0
C691 C 0.57125 0.27873 0.71536 0.0
C692 C 0.59648 0.26869 0.74319 0.0
C693 C 0.61295 0.29128 0.76456 0.0
C694 C 0.61768 0.28263 0.79481 0.0
C695 C 0.6041 0.25177 0.80312 0.0
C696 C 0.60076 0.2281 0.78092 0.0
C697 C 0.59409 0.23673 0.751 0.0
C698 C 0.42506 0.30656 0.65951 0.0
C699 C 0.38113 0.24918 0.73949 0.0
O700 O 0.31977 0.24198 0.64433 0.0
O701 O 0.35785 0.19599 0.63959 0.0
O702 O 0.47411 0.20203 0.68156 0.0
O703 O 0.39825 0.19458 0.70191 0.0
O704 O 0.53149 0.24431 0.63952 0.0
O705 O 0.45177 0.24063 0.61715 0.0
O706 O 0.57384 0.25865 0.69288 0.0
O707 O 0.52315 0.29053 0.71918 0.0
O708 O 0.40655 0.2869 0.67789 0.0
O709 O 0.47298 0.29816 0.65132 0.0
O710 O 0.35416 0.24698 0.71344 0.0
O711 O 0.43503 0.24925 0.73592 0.0
H712 H 0.30319 0.16909 0.58757 0.0
H713 H 0.32841 0.17021 0.53366 0.0
H714 H 0.36889 0.26875 0.54249 0.0
H715 H 0.34631 0.26755 0.59607 0.0
H716 H 0.61548 0.31597 0.7586 0.0
H717 H 0.6212 0.30104 0.8119 0.0
H718 H 0.59171 0.20401 0.78704 0.0
H719 H 0.58242 0.21887 0.73456 0.0
Pr720 Pr 0.88425 0.23344 0.78167 0.0
Pr721 Pr 0.80277 0.25118 0.75689 0.0
C722 C 0.96265 0.22006 0.82076 0.0
C723 C 0.96074 0.22544 0.8536 0.0
C724 C 0.96233 0.19948 0.87294 0.0
C725 C 0.94706 0.20294 0.90313 0.0
C726 C 0.93183 0.23271 0.91487 0.0
C727 C 0.93541 0.25915 0.89605 0.0
C728 C 0.94764 0.25539 0.86544 0.0
C729 C 0.85069 0.18283 0.74448 0.0
C730 C 0.77833 0.24318 0.83188 0.0
C731 C 0.70879 0.25189 0.72841 0.0
C732 C 0.70059 0.23167 0.70149 0.0
C733 C 0.71645 0.24372 0.67342 0.0
C734 C 0.74251 0.22407 0.65279 0.0
C735 C 0.74908 0.19189 0.65898 0.0
C736 C 0.72333 0.17872 0.68396 0.0
C737 C 0.69871 0.19862 0.70523 0.0
C738 C 0.86092 0.30637 0.76832 0.0
C739 C 0.90825 0.24754 0.70752 0.0
O740 O 0.96407 0.24514 0.80366 0.0
O741 O 0.92867 0.19881 0.8111 0.0
O742 O 0.82046 0.19793 0.76265 0.0
O743 O 0.89846 0.19484 0.74418 0.0
O744 O 0.75991 0.2575 0.80719 0.0
O745 O 0.82591 0.229 0.82748 0.0
O746 O 0.71545 0.23697 0.75389 0.0
O747 O 0.74324 0.27483 0.72525 0.0
O748 O 0.85326 0.28505 0.78783 0.0
O749 O 0.84241 0.29795 0.74208 0.0
O750 O 0.93231 0.24776 0.73467 0.0
O751 O 0.85465 0.24492 0.70911 0.0
H752 H 0.97159 0.17612 0.86417 0.0
H753 H 0.9444 0.18186 0.9167 0.0
H754 H 0.92721 0.28268 0.90457 0.0
H755 H 0.94599 0.27592 0.85101 0.0
H756 H 0.71672 0.26891 0.66947 0.0
H757 H 0.76111 0.23443 0.63302 0.0
H758 H 0.72635 0.15367 0.68829 0.0
H759 H 0.68487 0.18846 0.72629 0.0
Pr760 Pr 0.40133 0.00832 0.7827 0.0
Pr761 Pr 0.48339 0.9885 0.76174 0.0
C762 C 0.32016 0.02786 0.81804 0.0
C763 C 0.31474 0.0227 0.85044 0.0
C764 C 0.30231 0.04811 0.86967 0.0
C765 C 0.31172 0.04555 0.90068 0.0
C766 C 0.3318 0.01727 0.91262 0.0
C767 C 0.3397 0.99109 0.89363 0.0
C768 C 0.33258 0.994 0.86262 0.0
C769 C 0.4418 0.05776 0.7468 0.0
C770 C 0.5059 0.00147 0.83492 0.0
C771 C 0.56888 0.97563 0.72726 0.0
C772 C 0.58776 -0.00324 0.70373 0.0
C773 C 0.5974 0.98478 0.67466 0.0
C774 C 0.59615 0.0051 0.65012 0.0
C775 C 0.585 0.0373 0.65454 0.0
C776 C 0.582 0.0498 0.68389 0.0
C777 C 0.58305 0.02958 0.70844 0.0
C778 C 0.43482 0.93597 0.78985 0.0
C779 C 0.37819 0.99164 0.71032 0.0
O780 O 0.31708 0.00274 0.80079 0.0
O781 O 0.36056 0.04595 0.81115 0.0
O782 O 0.47015 0.04257 0.76584 0.0
O783 O 0.39386 0.0462 0.74508 0.0
O784 O 0.5318 0.00141 0.80871 0.0
O785 O 0.45231 0.0005 0.8314 0.0
O786 O 0.57328 0.98644 0.75489 0.0
O787 O 0.52172 0.96338 0.72167 0.0
O788 O 0.41055 0.95517 0.77291 0.0
O789 O 0.48392 0.94489 0.79417 0.0
O790 O 0.35248 0.99296 0.73668 0.0
O791 O 0.43185 0.99353 0.71315 0.0
H792 H 0.28965 0.07058 0.8605 0.0
H793 H 0.30687 0.0662 0.91498 0.0
H794 H 0.35488 0.96903 0.90243 0.0
H795 H 0.34333 0.97418 0.84812 0.0
H796 H 0.60019 0.95956 0.67066 0.0
H797 H 0.59642 0.9951 0.62756 0.0
H798 H 0.57251 0.07451 0.6876 0.0
H799 H 0.57505 0.03938 0.73078 0.0
Pr800 Pr 0.23665 0.00811 0.51246 0.0
Pr801 Pr 0.15117 0.98485 0.53309 0.0
C802 C 0.32699 0.02861 0.48526 0.0
C803 C 0.34769 0.03145 0.45457 0.0
C804 C 0.35878 0.0616 0.44334 0.0
C805 C 0.36045 0.0663 0.41218 0.0
C806 C 0.35066 0.0408 0.39256 0.0
C807 C 0.35013 0.00995 0.40397 0.0
C808 C 0.34787 0.00529 0.43497 0.0
C809 C 0.17615 0.05698 0.5398 0.0
C810 C 0.13062 0.00122 0.46015 0.0
C811 C 0.06935 0.96991 0.56921 0.0
C812 C 0.07057 0.9733 0.60236 0.0
C813 C 0.07335 0.94625 0.62024 0.0
C814 C 0.09011 0.94858 0.65031 0.0
C815 C 0.10169 0.97815 0.66353 0.0
C816 C 0.09397 0.00543 0.64633 0.0
C817 C 0.08071 0.00296 0.61574 0.0
C818 C 0.19903 0.93689 0.49807 0.0
C819 C 0.25606 0.99249 0.58584 0.0
O820 O 0.32186 0.00018 0.49598 0.0
O821 O 0.28568 0.04664 0.49127 0.0
O822 O 0.15867 0.03705 0.52097 0.0
O823 O 0.22437 0.04932 0.54834 0.0
O824 O 0.10483 0.99463 0.48568 0.0
O825 O 0.18417 0.00565 0.46347 0.0
O826 O 0.07016 0.99614 0.5539 0.0
O827 O 0.10242 0.94861 0.55836 0.0
O828 O 0.2246 0.95371 0.51743 0.0
O829 O 0.14959 0.94639 0.49577 0.0
O830 O 0.2816 0.00075 0.5609 0.0
O831 O 0.20373 0.98616 0.58168 0.0
H832 H 0.36024 0.08189 0.45845 0.0
H833 H 0.36212 0.09014 0.40361 0.0
H834 H 0.34333 0.98979 0.38918 0.0
H835 H 0.3408 0.98167 0.44323 0.0
H836 H 0.06699 0.92307 0.61032 0.0
H837 H 0.09714 0.92698 0.66259 0.0
H838 H 0.10004 0.02867 0.65606 0.0
H839 H 0.07962 0.02435 0.60251 0.0
Pr840 Pr 0.55551 0.73769 0.51308 0.0
Pr841 Pr 0.63921 0.75773 0.53549 0.0
C842 C 0.4659 0.71872 0.48374 0.0
C843 C 0.44696 0.71252 0.45307 0.0
C844 C 0.43172 0.68166 0.44513 0.0
C845 C 0.43098 0.67255 0.41476 0.0
C846 C 0.44505 0.69447 0.39272 0.0
C847 C 0.44978 0.7265 0.40048 0.0
C848 C 0.45162 0.73554 0.43071 0.0
C849 C 0.60728 0.68614 0.54102 0.0
C850 C 0.66367 0.74377 0.46225 0.0
C851 C 0.71887 0.76852 0.57456 0.0
C852 C 0.71859 0.75653 0.60555 0.0
C853 C 0.72481 0.77748 0.62997 0.0
C854 C 0.71309 0.76763 0.65927 0.0
C855 C 0.69491 0.73669 0.66454 0.0
C856 C 0.69149 0.71531 0.64025 0.0
C857 C 0.70231 0.72527 0.61093 0.0
C858 C 0.59893 0.80834 0.50139 0.0
C859 C 0.5322 0.75184 0.58661 0.0
O860 O 0.47465 0.74802 0.49165 0.0
O861 O 0.50337 0.69958 0.49305 0.0
O862 O 0.62913 0.70511 0.52291 0.0
O863 O 0.56019 0.69658 0.5488 0.0
O864 O 0.68846 0.74952 0.48843 0.0
O865 O 0.61001 0.73959 0.46483 0.0
O866 O 0.72272 0.74718 0.5531 0.0
O867 O 0.68171 0.78963 0.56923 0.0
O868 O 0.5699 0.79176 0.51899 0.0
O869 O 0.64824 0.79841 0.50128 0.0
O870 O 0.50695 0.74733 0.56049 0.0
O871 O 0.5856 0.7547 0.58358 0.0
H872 H 0.42656 0.66388 0.46238 0.0
H873 H 0.42722 0.64776 0.40897 0.0
H874 H 0.46175 0.74353 0.38372 0.0
H875 H 0.46217 0.75966 0.43639 0.0
H876 H 0.73614 0.8018 0.62621 0.0
H877 H 0.71545 0.78479 0.67759 0.0
H878 H 0.67882 0.6912 0.64374 0.0
H879 H 0.69633 0.70868 0.5924 0.0
Pr880 Pr 0.23913 0.74086 0.43362 0.0
Pr881 Pr 0.15457 0.76072 0.41192 0.0
C882 C 0.32787 0.72921 0.4663 0.0
C883 C 0.349 0.74708 0.49206 0.0
C884 C 0.35485 0.73181 0.51985 0.0
C885 C 0.35264 0.74937 0.54654 0.0
C886 C 0.34365 0.78206 0.54527 0.0
C887 C 0.34796 0.79775 0.51765 0.0
C888 C 0.35048 0.78024 0.49092 0.0
C889 C 0.1893 0.68828 0.40581 0.0
C890 C 0.13243 0.7437 0.48457 0.0
C891 C 0.07272 0.77905 0.37672 0.0
C892 C 0.07127 0.77626 0.34373 0.0
C893 C 0.06651 0.80372 0.32642 0.0
C894 C 0.08506 0.80378 0.29661 0.0
C895 C 0.10674 0.77615 0.28385 0.0
C896 C 0.10637 0.74802 0.30007 0.0
C897 C 0.0897 0.74816 0.33004 0.0
C898 C 0.19474 0.80992 0.44852 0.0
C899 C 0.25926 0.75253 0.35977 0.0
O900 O 0.32899 0.74355 0.44032 0.0
O901 O 0.28214 0.7151 0.47133 0.0
O902 O 0.16551 0.70814 0.42252 0.0
O903 O 0.23874 0.69651 0.40149 0.0
O904 O 0.10671 0.74822 0.45849 0.0
O905 O 0.18629 0.74236 0.48196 0.0
O906 O 0.07228 0.75262 0.3917 0.0
O907 O 0.10945 0.79856 0.38652 0.0
O908 O 0.2234 0.79478 0.42934 0.0
O909 O 0.14701 0.79812 0.45005 0.0
O910 O 0.2856 0.75057 0.38581 0.0
O911 O 0.20572 0.7539 0.3632 0.0
H912 H 0.35446 0.70628 0.52099 0.0
H913 H 0.34933 0.73689 0.5678 0.0
H914 H 0.34135 0.823 0.51648 0.0
H915 H 0.34678 0.79261 0.46963 0.0
H916 H 0.05331 0.82571 0.33676 0.0
H917 H 0.08504 0.82561 0.28406 0.0
H918 H 0.12263 0.72646 0.29028 0.0
H919 H 0.09481 0.72673 0.34297 0.0
Pr920 Pr 0.56032 -0.00282 0.43072 0.0
Pr921 Pr 0.64866 0.98015 0.40833 0.0
C922 C 0.47073 0.01024 0.46301 0.0
C923 C 0.45968 0.02691 0.4916 0.0
C924 C 0.46851 0.05957 0.4945 0.0
C925 C 0.47248 0.07331 0.5232 0.0
C926 C 0.46789 0.05443 0.54894 0.0
C927 C 0.45071 0.02305 0.54594 0.0
C928 C 0.44677 0.0093 0.51731 0.0
C929 C 0.61466 0.05154 0.40899 0.0
C930 C 0.66845 0.99612 0.48137 0.0
C931 C 0.73131 0.96402 0.37198 0.0
C932 C 0.73208 0.95966 0.33887 0.0
C933 C 0.74164 0.92952 0.32638 0.0
C934 C 0.7299 0.92332 0.29588 0.0
C935 C 0.70853 0.9473 0.27774 0.0
C936 C 0.70329 0.97792 0.28956 0.0
C937 C 0.71383 0.98395 0.31999 0.0
C938 C 0.60853 0.92937 0.44201 0.0
C939 C 0.5418 0.98528 0.35734 0.0
O940 O 0.49753 0.98386 0.46535 0.0
O941 O 0.4869 0.02727 0.44038 0.0
O942 O 0.63471 0.03079 0.42595 0.0
O943 O 0.56694 0.04295 0.40042 0.0
O944 O 0.69524 0.9938 0.45534 0.0
O945 O 0.6145 0.99604 0.47851 0.0
O946 O 0.72363 0.99273 0.3822 0.0
O947 O 0.70255 0.94336 0.38636 0.0
O948 O 0.58042 0.94445 0.42261 0.0
O949 O 0.65615 0.94131 0.44453 0.0
O950 O 0.51572 0.9831 0.38334 0.0
O951 O 0.5952 0.9881 0.36071 0.0
H952 H 0.47705 0.07394 0.47491 0.0
H953 H 0.48546 0.09761 0.5253 0.0
H954 H 0.44707 0.00809 0.56564 0.0
H955 H 0.43851 0.98427 0.51544 0.0
H956 H 0.75449 0.91027 0.34071 0.0
H957 H 0.73391 0.89948 0.2871 0.0
H958 H 0.68795 -0.0032 0.27558 0.0
H959 H 0.70547 0.00737 0.32888 0.0
Pr960 Pr 0.8911 0.51099 0.16519 0.0
Pr961 Pr 0.81029 0.48704 0.18427 0.0
C962 C 0.97111 0.53398 0.13111 0.0
C963 C 0.97337 0.53618 1.09806 0.0
C964 C 0.98636 0.56496 1.08449 0.0
C965 C 0.97483 0.5697 1.05384 0.0
C966 C 0.95008 0.54565 1.03683 0.0
C967 C 0.94158 0.51605 1.04983 0.0
C968 C 0.95282 0.51138 1.08026 0.0
C969 C 0.84057 0.5584 0.20132 0.0
C970 C 0.7875 0.50309 0.11206 0.0
C971 C 0.72569 0.46329 0.21405 0.0
C972 C 0.70423 0.47232 0.24332 0.0
C973 C 0.68856 0.44897 0.26364 0.0
C974 C 0.68793 0.45587 0.29452 0.0
C975 C 0.70555 0.4856 0.3047 0.0
C976 C 0.71185 0.51017 0.28396 0.0
C977 C 0.71157 0.50347 0.25329 0.0
C978 C 0.86819 0.43762 0.15583 0.0
C979 C 0.91289 0.49472 0.23739 0.0
O980 O 0.97215 0.50561 0.1424 0.0
O981 O 0.93427 0.55181 0.14345 0.0
O982 O 0.81657 0.54167 0.18135 0.0
O983 O 0.8902 0.54941 0.20372 0.0
O984 O 0.76131 0.49975 0.13788 0.0
O985 O 0.84101 0.50457 0.1158 0.0
O986 O 0.72121 0.48442 0.19295 0.0
O987 O 0.77379 0.45101 0.21547 0.0
O988 O 0.88784 0.4574 0.17433 0.0
O989 O 0.82025 0.44631 0.14798 0.0
O990 O 0.9396 0.4973 0.21148 0.0
O991 O 0.85905 0.49431 0.23382 0.0
H992 H 1.00183 0.58439 1.09803 0.0
H993 H 0.98151 0.59273 1.0441 0.0
H994 H 0.92305 0.49711 1.03686 0.0
H995 H 0.94236 0.48894 1.0902 0.0
H996 H 0.68236 0.42489 0.25598 0.0
H997 H 0.68197 0.43682 0.31038 0.0
H998 H 0.72583 0.53327 0.29103 0.0
H999 H 0.7237 0.52182 0.23778 0.0
Pr1000 Pr 0.4018 0.7302 0.16123 0.0
Pr1001 Pr 0.48712 0.74706 0.18332 0.0
C1002 C 0.3215 0.71543 0.12373 0.0
C1003 C 0.32071 0.72352 1.09165 0.0
C1004 C 0.31672 0.69931 1.06997 0.0
C1005 C 0.33429 0.70455 1.0405 0.0
C1006 C 0.35374 0.73425 1.03231 0.0
C1007 C 0.35284 0.75924 1.05311 0.0
C1008 C 0.33777 0.75372 1.08286 0.0
C1009 C 0.43656 0.67928 0.19705 0.0
C1010 C 0.50557 0.73894 0.10848 0.0
C1011 C 0.57602 0.75456 0.21711 0.0
C1012 C 0.59445 0.73573 0.24272 0.0
C1013 C 0.59839 0.75013 0.27129 0.0
C1014 C 0.59226 0.73196 0.29713 0.0
C1015 C 0.58151 0.69955 0.29421 0.0
C1016 C 0.58701 0.68452 0.26608 0.0
C1017 C 0.59415 0.70262 0.24031 0.0
C1018 C 0.44082 0.801 0.15649 0.0
C1019 C 0.3793 0.74707 0.23414 0.0
O1020 O 0.31858 0.73915 0.14281 0.0
O1021 O 0.35931 0.69525 0.13063 0.0
O1022 O 0.46732 0.69364 0.17863 0.0
O1023 O 0.38955 0.69232 0.19779 0.0
O1024 O 0.53253 0.73781 0.13443 0.0
O1025 O 0.45213 0.73948 0.11256 0.0
O1026 O 0.57601 0.74022 0.19086 0.0
O1027 O 0.53212 0.77091 0.22192 0.0
O1028 O 0.41608 0.78201 0.17317 0.0
O1029 O 0.49014 0.79197 0.1526 0.0
O1030 O 0.35323 0.74339 0.20796 0.0
O1031 O 0.43324 0.74696 0.23136 0.0
H1032 H 0.30487 0.67574 1.07647 0.0
H1033 H 0.33572 0.68507 1.02453 0.0
H1034 H 0.36728 0.78237 1.04694 0.0
H1035 H 0.3424 0.7727 0.09927 0.0
H1036 H 0.59949 0.7756 0.27352 0.0
H1037 H 0.5883 0.74389 0.31888 0.0
H1038 H 0.57916 0.6595 0.26366 0.0
H1039 H 0.59274 0.69096 0.21841 0.0
Pr1040 Pr 0.89475 0.73285 0.28556 0.0
Pr1041 Pr 0.81417 0.75768 0.26713 0.0
C1042 C 0.97564 0.70791 0.31828 0.0
C1043 C 0.98066 0.70439 0.35115 0.0
C1044 C 0.9886 0.67428 0.36344 0.0
C1045 C 0.97983 0.66933 0.39433 0.0
C1046 C 0.96454 0.69466 0.41304 0.0
C1047 C 0.96065 0.72505 0.40121 0.0
C1048 C 0.96732 0.7298 0.37035 0.0
C1049 C 0.84561 0.68651 0.24817 0.0
C1050 C 0.7911 0.74148 0.33879 0.0
C1051 C 0.72662 0.78281 0.24058 0.0
C1052 C 0.69849 0.77254 0.21375 0.0
C1053 C 0.67273 0.79446 0.19516 0.0
C1054 C 0.66214 0.78641 0.16507 0.0
C1055 C 0.68114 0.75738 0.15342 0.0
C1056 C 0.6994 0.73411 0.17351 0.0
C1057 C 0.70795 0.7417 0.20356 0.0
C1058 C 0.87408 0.80596 0.29595 0.0
C1059 C 0.9165 0.75214 0.21377 0.0
O1060 O 0.97659 0.73663 0.30784 0.0
O1061 O 0.93742 0.69101 0.30618 0.0
O1062 O 0.82048 0.70259 0.26829 0.0
O1063 O 0.89464 0.69623 0.24564 0.0
O1064 O 0.76517 0.7448 0.31293 0.0
O1065 O 0.84469 0.73933 0.33514 0.0
O1066 O 0.72405 0.76335 0.26315 0.0
O1067 O 0.7755 0.79244 0.23526 0.0
O1068 O 0.89237 0.78642 0.27688 0.0
O1069 O 0.8266 0.7974 0.30431 0.0
O1070 O 0.9431 0.74802 0.23962 0.0
O1071 O 0.86259 0.75279 0.21727 0.0
H1072 H 0.99776 0.65428 0.34884 0.0
H1073 H 0.98178 0.64561 0.4032 0.0
H1074 H 0.9486 0.74474 0.41549 0.0
H1075 H 0.95959 0.75312 0.36145 0.0
H1076 H 0.66504 0.81833 0.20309 0.0
H1077 H 0.64676 0.80442 0.15003 0.0
H1078 H 0.71536 0.7117 0.1657 0.0
H1079 H 0.72802 0.72457 0.21786 0.0
Pr1080 Pr 0.402 0.50237 0.28312 0.0
Pr1081 Pr 0.48424 0.48248 0.26327 0.0
C1082 C 0.32334 0.52238 0.31962 0.0
C1083 C 0.32665 0.52221 0.35282 0.0
C1084 C 0.3316 0.55084 0.36882 0.0
C1085 C 0.3495 0.55089 0.39882 0.0
C1086 C 0.35964 0.52229 0.41351 0.0
C1087 C 0.35012 0.49376 0.39836 0.0
C1088 C 0.33632 0.4937 0.36791 0.0
C1089 C 0.44251 0.55293 0.24932 0.0
C1090 C 0.50298 0.49327 0.3373 0.0
C1091 C 0.57407 0.46564 0.23344 0.0
C1092 C 0.59908 0.47867 0.20658 0.0
C1093 C 0.60153 0.45994 0.1804 0.0
C1094 C 0.60365 0.47441 0.1524 0.0
C1095 C 0.60358 0.50757 0.15089 0.0
C1096 C 0.61556 0.52524 0.17696 0.0
C1097 C 0.61054 0.51109 0.20503 0.0
C1098 C 0.4278 0.4298 0.28606 0.0
C1099 C 0.38117 0.48697 0.21015 0.0
O1100 O 0.32182 0.49487 0.30602 0.0
O1101 O 0.35682 0.54175 0.3069 0.0
O1102 O 0.47134 0.53698 0.26772 0.0
O1103 O 0.3952 0.54066 0.24651 0.0
O1104 O 0.53024 0.49278 0.31159 0.0
O1105 O 0.44972 0.49351 0.33274 0.0
O1106 O 0.5744 0.48358 0.25755 0.0
O1107 O 0.52752 0.45234 0.22858 0.0
O1108 O 0.40866 0.45058 0.26902 0.0
O1109 O 0.47556 0.43779 0.29497 0.0
O1110 O 0.35451 0.4881 0.23629 0.0
O1111 O 0.435 0.48862 0.21366 0.0
H1112 H 0.32556 0.57315 0.35749 0.0
H1113 H 0.357 0.57316 0.41023 0.0
H1114 H 0.35623 0.47144 0.40955 0.0
H1115 H 0.33447 0.47119 0.35612 0.0
H1116 H 0.59452 0.43474 0.18139 0.0
H1117 H 0.59651 0.45982 0.13251 0.0
H1118 H 0.61975 0.5506 0.17588 0.0
H1119 H 0.6109 0.52595 0.22514 0.0
Pr1120 Pr 0.23407 0.50455 1.01236 0.0
Pr1121 Pr 0.15117 0.48506 1.03344 0.0
C1122 C 0.32339 0.52059 0.98204 0.0
C1123 C 0.3482 0.50855 0.95451 0.0
C1124 C 0.36281 0.52972 0.93185 0.0
C1125 C 0.36803 0.51883 0.90221 0.0
C1126 C 0.35115 0.48798 0.89533 0.0
C1127 C 0.3493 0.46561 0.91845 0.0
C1128 C 0.34744 0.47604 0.9483 0.0
C1129 C 0.18505 0.55621 1.04269 0.0
C1130 C 0.12798 0.50038 0.96061 0.0
C1131 C 0.06963 0.47192 1.07022 0.0
C1132 C 0.0714 0.47731 0.10296 0.0
C1133 C 0.07015 0.45135 0.12222 0.0
C1134 C 0.08736 0.45459 0.15206 0.0
C1135 C 0.10298 0.48421 0.16376 0.0
C1136 C 0.10014 0.51064 0.14497 0.0
C1137 C 0.08681 0.50698 0.11454 0.0
C1138 C 0.18944 0.43464 0.99772 0.0
C1139 C 0.25795 0.48904 1.08528 0.0
O1140 O 0.32305 0.50119 1.00475 0.0
O1141 O 0.27722 0.53482 0.97811 0.0
O1142 O 0.16192 0.53794 1.02422 0.0
O1143 O 0.2333 0.54625 1.04788 0.0
O1144 O 0.1026 0.49593 0.98669 0.0
O1145 O 0.18185 0.50227 0.96345 0.0
O1146 O 0.06986 0.49716 1.05345 0.0
O1147 O 0.10314 0.45024 1.06069 0.0
O1148 O 0.21912 0.45026 1.01608 0.0
O1149 O 0.14178 0.44688 0.9963 0.0
O1150 O 0.28284 0.49577 1.05968 0.0
O1151 O 0.20482 0.48488 1.08181 0.0
H1152 H 0.36514 0.55482 0.93656 0.0
H1153 H 0.37241 0.53602 0.88434 0.0
H1154 H 0.33848 0.44134 0.91368 0.0
H1155 H 0.3381 0.45921 0.96581 0.0
H1156 H 0.06032 0.42806 0.11353 0.0
H1157 H 0.09138 0.43348 0.16539 0.0
H1158 H 0.10955 0.53404 0.15337 0.0
H1159 H 0.08963 0.52739 0.10004 0.0
Pr1160 Pr 0.55059 0.23661 1.00984 0.0
Pr1161 Pr 0.63277 0.26066 1.03056 0.0
C1162 C 0.46309 0.21424 0.98098 0.0
C1163 C 0.43892 0.22121 0.95193 0.0
C1164 C 0.42496 0.19628 0.93244 0.0
C1165 C 0.42448 0.20134 0.90131 0.0
C1166 C 0.43982 0.23099 0.89048 0.0
C1167 C 0.43971 0.25714 0.91012 0.0
C1168 C 0.4415 0.25212 0.941 0.0
C1169 C 0.60731 0.18811 1.04007 0.0
C1170 C 0.65385 0.24435 0.95697 0.0
C1171 C 0.71213 0.27961 1.06765 0.0
C1172 C 0.71384 0.2755 0.10065 0.0
C1173 C 0.72214 0.3016 0.11976 0.0
C1174 C 0.71204 0.2993 0.15082 0.0
C1175 C 0.69484 0.27057 0.16333 0.0
C1176 C 0.68987 0.24404 0.14425 0.0
C1177 C 0.69805 0.24664 0.1132 0.0
C1178 C 0.58346 0.3082 0.99575 0.0
C1179 C 0.52714 0.2513 1.08276 0.0
O1180 O 0.46145 0.23702 1.001 0.0
O1181 O 0.51043 0.20086 0.97909 0.0
O1182 O 0.62764 0.20699 1.02137 0.0
O1183 O 0.55857 0.19665 1.04608 0.0
O1184 O 0.68027 0.24846 0.98302 0.0
O1185 O 0.60006 0.24241 0.96036 0.0
O1186 O 0.71535 0.25388 1.05123 0.0
O1187 O 0.67441 0.29867 1.05833 0.0
O1188 O 0.55867 0.29122 1.01488 0.0
O1189 O 0.63336 0.2996 0.99343 0.0
O1190 O 0.50213 0.24412 1.05719 0.0
O1191 O 0.57977 0.25728 1.07912 0.0
H1192 H 0.42181 0.17241 0.94084 0.0
H1193 H 0.42268 0.18115 0.8861 0.0
H1194 H 0.44964 0.28047 0.90201 0.0
H1195 H 0.45127 0.27184 0.95581 0.0
H1196 H 0.73302 0.32425 0.1104 0.0
H1197 H 0.71449 0.32055 0.16453 0.0
H1198 H 0.67755 0.22145 0.15312 0.0
H1199 H 0.69041 0.22617 0.09895 0.0
Pr1200 Pr 0.23502 0.2372 0.93881 0.0
Pr1201 Pr 0.1495 0.25428 0.9146 0.0
C1202 C 0.32155 0.23004 0.97455 0.0
C1203 C 0.34261 0.25077 0.99854 0.0
C1204 C 0.34687 0.23948 1.02817 0.0
C1205 C 0.35246 0.2607 1.05225 0.0
C1206 C 0.35318 0.29336 1.04681 0.0
C1207 C 0.35675 0.3042 1.01701 0.0
C1208 C 0.35101 0.28303 0.99294 0.0
C1209 C 0.18939 0.18273 0.91159 0.0
C1210 C 0.12679 0.2401 0.98818 0.0
C1211 C 0.06965 0.26744 0.87597 0.0
C1212 C 0.07078 0.26574 0.84272 0.0
C1213 C 0.06387 0.2933 0.8258 0.0
C1214 C 0.07519 0.29317 0.79482 0.0
C1215 C 0.09205 0.2652 0.78018 0.0
C1216 C 0.0951 0.2372 0.79684 0.0
C1217 C 0.08581 0.23759 0.82791 0.0
C1218 C 0.18379 0.30574 0.94976 0.0
C1219 C 0.25882 0.24862 0.86471 0.0
O1220 O 0.32371 0.24124 0.94718 0.0
O1221 O 0.27566 0.21638 0.98033 0.0
O1222 O 0.16398 0.20262 0.92745 0.0
O1223 O 0.23917 0.19102 0.909 0.0
O1224 O 0.10139 0.24099 0.96152 0.0
O1225 O 0.18052 0.24192 0.98611 0.0
O1226 O 0.07264 0.24067 0.89037 0.0
O1227 O 0.10017 0.28926 0.88781 0.0
O1228 O 0.21503 0.29033 0.93202 0.0
O1229 O 0.13631 0.29332 0.95037 0.0
O1230 O 0.28368 0.2435 0.89087 0.0
O1231 O 0.20551 0.25246 0.86744 0.0
H1232 H 0.34128 0.21466 1.03286 0.0
H1233 H 0.34958 0.25179 1.07515 0.0
H1234 H 0.35763 0.32926 1.01242 0.0
H1235 H 0.34874 0.29237 0.9702 0.0
H1236 H 0.05288 0.31532 0.83687 0.0
H1237 H 0.07392 0.31537 0.78292 0.0
H1238 H 0.10708 0.21518 0.78612 0.0
H1239 H 0.09163 0.21593 0.84037 0.0
Pr1240 Pr 0.55609 0.50693 0.93598 0.0
Pr1241 Pr 0.63695 0.48093 0.91512 0.0
C1242 C 0.46967 0.53043 0.96528 0.0
C1243 C 0.44996 0.53326 0.99625 0.0
C1244 C 0.45083 0.56284 1.01076 0.0
C1245 C 0.45209 0.56429 1.04224 0.0
C1246 C 0.45196 0.53613 1.05851 0.0
C1247 C 0.4358 0.50806 1.04427 0.0
C1248 C 0.43811 0.50615 1.01295 0.0
C1249 C 0.61412 0.55446 0.90617 0.0
C1250 C 0.66266 0.49975 0.98768 0.0
C1251 C 0.71644 0.45833 0.87973 0.0
C1252 C 0.72548 0.46462 0.84766 0.0
C1253 C 0.74744 0.4415 0.82847 0.0
C1254 C 0.74615 0.44567 0.79706 0.0
C1255 C 0.72297 0.47304 0.7845 0.0
C1256 C 0.70389 0.49677 0.80429 0.0
C1257 C 0.70481 0.49252 0.83543 0.0
C1258 C 0.5855 0.43531 0.95111 0.0
C1259 C 0.53109 0.49188 0.86327 0.0
O1260 O 0.47172 0.50208 0.95359 0.0
O1261 O 0.512 0.54718 0.95893 0.0
O1262 O 0.6343 0.53472 0.92432 0.0
O1263 O 0.5651 0.5467 0.89947 0.0
O1264 O 0.68672 0.49033 0.96222 0.0
O1265 O 0.60975 0.5061 0.98446 0.0
O1266 O 0.72237 0.48251 0.89796 0.0
O1267 O 0.6726 0.44252 0.88517 0.0
O1268 O 0.56195 0.45212 0.93132 0.0
O1269 O 0.63545 0.4433 0.9536 0.0
O1270 O 0.50602 0.49655 0.88934 0.0
O1271 O 0.58459 0.48822 0.86648 0.0
H1272 H 0.45792 0.58416 0.99801 0.0
H1273 H 0.463 0.58636 1.05319 0.0
H1274 H 0.43366 0.48633 1.05698 0.0
H1275 H 0.43514 0.48313 1.00221 0.0
H1276 H 0.76296 0.41963 0.83762 0.0
H1277 H 0.76063 0.42673 0.78272 0.0
H1278 H 0.68486 0.51796 0.79604 0.0
H1279 H 0.68713 0.51058 0.8499 0.0
C1280 C 0.37545 0.84264 0.13981 0.0
C1281 C 0.42435 0.83435 0.15381 0.0
C1282 C 0.35787 0.87424 0.13925 0.0
C1283 C 0.38811 0.89851 0.15324 0.0
H1284 H 0.35042 0.82457 0.12954 0.0
H1285 H 0.3195 0.87951 0.1286 0.0
S1286 S 0.5167 0.88781 0.19522 0.0
N1287 N 0.5016 0.85213 0.18282 0.0
N1288 N 0.46872 0.91132 0.18241 0.0
C1289 C 0.43731 0.89026 0.16718 0.0
C1290 C 0.4553 0.85822 0.16737 0.0
C1291 C 0.85123 0.38051 0.14169 0.0
C1292 C 0.88605 0.40384 0.15382 0.0
C1293 C 0.8646 0.34809 0.14251 0.0
C1294 C 0.91379 0.33779 0.15493 0.0
H1295 H 0.81262 0.38722 0.13214 0.0
H1296 H 0.83638 0.33103 0.13334 0.0
S1297 S 1.01823 0.38847 0.19059 0.0
N1298 N 0.97139 0.41362 0.17938 0.0
N1299 N 0.9968 0.35323 0.1801 0.0
C1300 C 0.94911 0.36077 0.16674 0.0
C1301 C 0.93525 0.39361 0.16637 0.0
C1302 C 0.43687 0.37205 0.29946 0.0
C1303 C 0.40644 0.39696 0.28686 0.0
C1304 C 0.41874 0.34051 0.29781 0.0
C1305 C 0.36907 0.33296 0.28408 0.0
H1306 H 0.47544 0.37682 0.3101 0.0
H1307 H 0.44352 0.322 0.30742 0.0
S1308 S 0.27607 0.38851 0.24601 0.0
N1309 N 0.32529 0.41108 0.25889 0.0
N1310 N 0.29114 0.35248 0.25697 0.0
C1311 C 0.33841 0.35755 0.27172 0.0
C1312 C 0.35703 0.38936 0.27283 0.0
C1313 C 0.86201 0.86165 0.31548 0.0
C1314 C 0.89115 0.8397 0.29751 0.0
C1315 C 0.87317 0.89424 0.31461 0.0
C1316 C 0.91331 0.90613 0.29552 0.0
H1317 H 0.82983 0.85366 0.33008 0.0
H1318 H 0.85067 0.91022 0.32911 0.0
S1319 S 1.00234 0.85919 0.24459 0.0
N1320 N 0.96333 0.83268 0.2607 0.0
N1321 N 0.98348 0.89359 0.25896 0.0
C1322 C 0.94345 0.88452 0.27796 0.0
C1323 C 0.93255 0.85142 0.27897 0.0
C1324 C 0.68543 0.11229 1.05658 0.0
C1325 C 0.65219 0.08859 1.04374 0.0
C1326 C 0.67122 0.14454 1.05528 0.0
C1327 C 0.62291 0.15426 1.04152 0.0
H1328 H 0.72344 0.10601 1.06712 0.0
H1329 H 0.698 0.16193 1.06516 0.0
S1330 S 0.52242 0.10256 1.00395 0.0
N1331 N 0.56892 0.07785 1.0164 0.0
N1332 N 0.54228 0.13807 1.01452 0.0
C1333 C 0.58911 0.13097 1.02902 0.0
C1334 C 0.60366 0.09827 1.03002 0.0
C1335 C 0.113 0.633 1.06298 0.0
C1336 C 0.14339 0.6558 1.04733 0.0
C1337 C 0.12665 0.60071 1.06167 0.0
C1338 C 0.17154 0.59016 1.04501 0.0
H1339 H 0.07747 0.63999 1.07568 0.0
H1340 H 0.10184 0.58391 1.07359 0.0
S1341 S 0.26296 0.63925 0.99896 0.0
N1342 N 0.2199 0.66477 1.01397 0.0
N1343 N 0.24555 0.60441 1.01207 0.0
C1344 C 0.20261 0.61253 1.02966 0.0
C1345 C 0.18863 0.64527 1.03072 0.0
C1346 C 0.61708 0.64236 0.8865 0.0
C1347 C 0.66334 0.65333 0.90169 0.0
C1348 C 0.60276 0.61015 0.88703 0.0
C1349 C 0.63373 0.5877 0.90311 0.0
H1350 H 0.59179 0.65874 0.87417 0.0
H1351 H 0.56641 0.60291 0.87524 0.0
S1352 S 0.75631 0.60545 0.94857 0.0
N1353 N 0.73888 0.63974 0.93407 0.0
N1354 N 0.71198 0.57967 0.93553 0.0
C1355 C 0.68004 0.59864 0.91843 0.0
C1356 C 0.69473 0.63129 0.91765 0.0
C1357 C 0.13049 0.13988 0.88991 0.0
C1358 C 0.17282 0.14926 0.90922 0.0
C1359 C 0.1138 0.10812 0.88836 0.0
C1360 C 0.13845 0.08475 0.90635 0.0
H1361 H 0.11005 0.1572 0.87603 0.0
H1362 H 0.08069 0.10197 0.87339 0.0
S1363 S 0.24786 0.09841 0.96274 0.0
N1364 N 0.23731 0.13335 0.94756 0.0
N1365 N 0.20579 0.07413 0.94531 0.0
C1366 C 0.18069 0.09416 0.92588 0.0
C1367 C 0.19784 0.1263 0.92719 0.0
C1368 C 0.43425 0.36242 0.64084 0.0
C1369 C 0.40447 0.33958 0.65681 0.0
C1370 C 0.4184 0.39442 0.64062 0.0
C1371 C 0.3721 0.40471 0.6562 0.0
H1372 H 0.47068 0.35565 0.62886 0.0
H1373 H 0.44238 0.4112 0.62819 0.0
S1374 S 0.28016 0.35502 0.70157 0.0
N1375 N 0.32604 0.33005 0.68851 0.0
N1376 N 0.29662 0.3898 0.68792 0.0
C1377 C 0.34152 0.38216 0.67175 0.0
C1378 C 0.35756 0.34972 0.67208 0.0
C1379 C 0.85614 0.87916 0.63589 0.0
C1380 C 0.88816 0.90244 0.65024 0.0
C1381 C 0.87088 0.84706 0.63625 0.0
C1382 C 0.91871 0.83721 0.65041 0.0
H1383 H 0.81853 0.88562 0.625 0.0
H1384 H 0.84462 0.82986 0.62554 0.0
S1385 S 1.01581 0.88778 0.69198 0.0
N1386 N 0.96958 0.91271 0.67956 0.0
N1387 N 0.99746 0.85263 0.67952 0.0
C1388 C 0.95148 0.86009 0.66434 0.0
C1389 C 0.93625 0.89265 0.66438 0.0
C1390 C 0.36723 0.89423 0.80356 0.0
C1391 C 0.41858 0.90241 0.79273 0.0
C1392 C 0.35084 0.86243 0.80487 0.0
C1393 C 0.38474 0.83767 0.79464 0.0
H1394 H 0.33955 0.91255 0.81093 0.0
H1395 H 0.31059 0.85735 0.81297 0.0
S1396 S 0.52257 0.84711 0.76323 0.0
N1397 N 0.50315 0.8834 0.77167 0.0
N1398 N 0.4721 0.82405 0.7731 0.0
C1399 C 0.43637 0.84573 0.78399 0.0
C1400 C 0.4533 0.87796 0.78326 0.0
C1401 C 0.91284 0.34905 0.79661 0.0
C1402 C 0.87354 0.34006 0.77515 0.0
C1403 C 0.92819 0.38101 0.8001 0.0
C1404 C 0.90426 0.4051 0.78258 0.0
H1405 H 0.93321 0.33124 0.80992 0.0
H1406 H 0.95974 0.38681 0.81622 0.0
S1407 S 0.79706 0.39349 0.72463 0.0
N1408 N 0.80911 0.35786 0.73751 0.0
N1409 N 0.83828 0.41713 0.74342 0.0
C1410 C 0.86384 0.39624 0.76176 0.0
C1411 C 0.84845 0.36397 0.75824 0.0
C1412 C 0.6012 0.59816 0.56036 0.0
C1413 C 0.64789 0.58587 0.54665 0.0
C1414 C 0.58923 0.63076 0.55933 0.0
C1415 C 0.62349 0.65224 0.54437 0.0
H1416 H 0.57415 0.58253 0.5721 0.0
H1417 H 0.5524 0.63909 0.56995 0.0
S1418 S 0.75067 0.63079 0.50495 0.0
N1419 N 0.72838 0.59707 0.51802 0.0
N1420 N 0.70664 0.65798 0.51576 0.0
C1421 C 0.67068 0.63994 0.53094 0.0
C1422 C 0.68264 0.60691 0.53215 0.0
C1423 C 0.18371 0.11348 0.55761 0.0
C1424 C 0.15419 0.08968 0.54239 0.0
C1425 C 0.16708 0.1453 0.55693 0.0
C1426 C 0.11987 0.15426 0.54152 0.0
H1427 H 0.22083 0.10768 0.56932 0.0
H1428 H 0.19156 0.16302 0.56821 0.0
S1429 S 0.0294 0.10215 0.49732 0.0
N1430 N 0.07567 0.07804 0.51102 0.0
N1431 N 0.04463 0.13756 0.51036 0.0
C1432 C 0.08954 0.13085 0.52683 0.0
C1433 C 0.10656 0.09863 0.52717 0.0
C1434 C 0.66298 0.13332 0.38485 0.0
C1435 C 0.65912 0.15126 0.41189 0.0
C1436 C 0.64826 0.10111 0.38384 0.0
C1437 C 0.63101 0.08537 0.41009 0.0
H1438 H 0.67705 0.14435 0.36426 0.0
H1439 H 0.65107 0.08836 0.36249 0.0
S1440 S 0.61738 0.12073 0.48691 0.0
N1441 N 0.63779 0.15028 0.46566 0.0
N1442 N 0.61256 0.08986 0.46395 0.0
C1443 C 0.62809 0.10283 0.43729 0.0
C1444 C 0.64151 0.1357 0.43816 0.0
C1445 C 0.12294 0.64607 0.39167 0.0
C1446 C 0.17269 0.6548 0.40443 0.0
C1447 C 0.10519 0.61454 0.39228 0.0
C1448 C 0.1363 0.59075 0.40617 0.0
H1449 H 0.09759 0.66382 0.38133 0.0
H1450 H 0.06622 0.60896 0.3825 0.0
S1451 S 0.26864 0.60221 0.44429 0.0
N1452 N 0.25235 0.63757 0.4318 0.0
N1453 N 0.21929 0.57864 0.43336 0.0
C1454 C 0.18649 0.59933 0.41877 0.0
C1455 C 0.2046 0.63128 0.41784 0.0
C1456 C 0.29949 0.01914 0.31676 0.0
C1457 C 0.2467 0.03123 0.31843 0.0
C1458 C 0.33728 0.02653 0.33899 0.0
C1459 C 0.32295 0.0458 0.36365 0.0
H1460 H 0.31056 0.00245 0.29903 0.0
H1461 H 0.37591 0.01459 0.33867 0.0
S1462 S 0.19289 0.08837 0.37431 0.0
N1463 N 0.18451 0.06752 0.34283 0.0
N1464 N 0.25497 0.08079 0.38594 0.0
C1465 C 0.27203 0.06085 0.3636 0.0
C1466 C 0.23371 0.05349 0.34066 0.0
C1467 C 0.96179 0.25336 0.34316 0.0
C1468 C 0.95925 0.27034 0.37054 0.0
C1469 C 1.00389 0.25774 0.32307 0.0
C1470 C 0.04565 0.27913 0.32964 0.0
H1471 H 0.93259 0.23518 0.33787 0.0
H1472 H 1.004 0.2438 0.30233 0.0
S1473 S 0.05312 0.33432 0.39453 0.0
N1474 N 0.99893 0.31301 0.401 0.0
N1475 N 0.07827 0.32107 0.36224 0.0
C1476 C 0.0416 0.29839 0.35528 0.0
C1477 C 0.99833 0.29408 0.37598 0.0
C1478 C 0.35567 0.31282 0.09996 0.0
C1479 C 0.33279 0.31444 1.07087 0.0
C1480 C 0.32445 0.31966 0.12558 0.0
C1481 C 0.26961 0.32778 0.12255 0.0
H1482 H 0.39539 0.30254 0.10305 0.0
H1483 H 0.34107 0.31422 0.1477 0.0
S1484 S 0.19456 0.34153 1.05173 0.0
N1485 N 0.2552 0.33027 1.04051 0.0
N1486 N 0.19671 0.34246 1.0891 0.0
C1487 C 0.24889 0.33388 1.09379 0.0
C1488 C 0.28062 0.32734 1.06769 0.0
C1489 C 0.02928 0.97585 0.11966 0.0
C1490 C 0.07853 0.9922 0.12119 0.0
C1491 C 0.99038 0.98374 0.09848 0.0
C1492 C 0.99889 0.00852 1.07839 0.0
H1493 H 1.01982 0.95738 0.13561 0.0
H1494 H 0.95387 0.96989 1.09745 0.0
S1495 S 0.12293 0.0571 1.0719 0.0
N1496 N 0.1349 0.03344 0.1007 0.0
N1497 N 0.06196 0.04796 1.05955 0.0
C1498 C 0.0485 0.02478 1.07923 0.0
C1499 C 0.08824 0.01671 0.10102 0.0
C1500 C 0.76215 0.99587 0.87373 0.0
C1501 C 0.81108 0.01176 0.86851 0.0
C1502 C 0.72385 0.99267 0.85101 0.0
C1503 C 0.73272 0.00569 0.82248 0.0
H1504 H 0.75304 0.98594 0.89571 0.0
H1505 H 0.68779 0.97913 0.85548 0.0
S1506 S 0.85335 0.05108 0.79805 0.0
N1507 N 0.86559 0.04201 0.83376 0.0
N1508 N 0.79394 0.03556 0.79008 0.0
C1509 C 0.78098 0.02251 0.81716 0.0
C1510 C 0.82006 0.02572 0.84048 0.0
C1511 C 0.99039 0.69928 0.85939 0.0
C1512 C 0.94973 0.72126 0.86701 0.0
C1513 C 0.02698 0.70545 0.8364 0.0
C1514 C 0.02335 0.73343 0.81996 0.0
H1515 H 0.99769 0.67865 0.87315 0.0
H1516 H 0.05981 0.68897 0.8325 0.0
S1517 S 0.91766 0.7954 0.82691 0.0
N1518 N 0.90392 0.77009 0.85403 0.0
N1519 N 0.97058 0.7807 0.80896 0.0
C1520 C 0.97951 0.754 0.82512 0.0
C1521 C 0.94294 0.74803 0.84898 0.0
C1522 C 0.7678 0.77832 1.08806 0.0
C1523 C 0.77331 0.74941 1.07273 0.0
C1524 C 0.73211 0.78163 0.11205 0.0
C1525 C 0.70163 0.75586 0.12225 0.0
H1526 H 0.79294 0.79827 1.08245 0.0
H1527 H 0.73244 0.8039 0.12429 0.0
S1528 S 0.69943 0.67523 1.0889 0.0
N1529 N 0.74157 0.69511 1.06746 0.0
N1530 N 0.67776 0.70077 0.11463 0.0
C1531 C 0.70495 0.72712 0.10633 0.0
C1532 C 0.74023 0.72396 1.08121 0.0
C1533 C 0.27003 0.50686 0.86896 0.0
C1534 C 0.31149 0.48425 0.87093 0.0
C1535 C 0.22795 0.50325 0.84866 0.0
C1536 C 0.22459 0.47662 0.82975 0.0
H1537 H 0.26949 0.52763 0.88347 0.0
H1538 H 0.19919 0.52234 0.84702 0.0
S1539 S 0.32365 0.4103 0.82634 0.0
N1540 N 0.34683 0.43398 0.85323 0.0
N1541 N 0.26786 0.42714 0.81383 0.0
C1542 C 0.26545 0.4533 0.83188 0.0
C1543 C 0.30867 0.45709 0.85282 0.0
C1544 C 0.33059 0.79506 0.5993 0.0
C1545 C 0.31117 0.79603 0.56951 0.0
C1546 C 0.29478 0.79663 0.62355 0.0
C1547 C 0.23891 0.79901 0.61842 0.0
H1548 H 0.37285 0.7904 0.60372 0.0
H1549 H 0.31034 0.79351 0.64633 0.0
S1550 S 0.16859 0.80531 0.54534 0.0
N1551 N 0.23305 0.80212 0.5363 0.0
N1552 N 0.1659 0.8049 0.58267 0.0
C1553 C 0.2193 0.80248 0.58916 0.0
C1554 C 0.25562 0.80114 0.56438 0.0
C1555 C 0.91923 0.44512 0.59365 0.0
C1556 C 0.95456 0.46974 0.58583 0.0
C1557 C 0.90118 0.44084 0.62386 0.0
C1558 C 0.91399 0.46243 0.64737 0.0
H1559 H 0.90526 0.4289 0.57623 0.0
H1560 H 0.87855 0.41987 0.62933 0.0
S1561 S 1.01713 0.54092 0.65631 0.0
N1562 N 0.0208 0.51397 0.6138 0.0
N1563 N 0.94018 0.51948 0.66766 0.0
C1564 C 0.91804 0.49368 0.64026 0.0
C1565 C 0.96566 0.49123 0.60823 0.0
C1566 C 0.77696 0.46523 0.33815 0.0
C1567 C 0.73628 0.48784 0.33296 0.0
C1568 C 0.81519 0.46966 0.36087 0.0
C1569 C 0.81366 0.49666 0.37937 0.0
H1570 H 0.78094 0.44456 0.32368 0.0
H1571 H 0.84601 0.4518 0.36409 0.0
S1572 S 0.71552 0.5632 0.37451 0.0
N1573 N 0.69783 0.53861 0.34709 0.0
N1574 N 0.76707 0.54618 0.39156 0.0
C1575 C 0.77254 0.51931 0.37471 0.0
C1576 C 0.73444 0.51505 0.3511 0.0
C1577 C 0.86862 0.17942 0.61096 0.0
C1578 C 0.84344 0.16626 0.58523 0.0
C1579 C 0.8397 0.18328 0.6379 0.0
C1580 C 0.78569 0.17348 0.63969 0.0
H1581 H 0.90705 0.19131 0.6088 0.0
H1582 H 0.8569 0.19779 0.65579 0.0
S1583 S 0.7088 0.12878 0.58221 0.0
N1584 N 0.76703 0.1364 0.56579 0.0
N1585 N 0.71329 0.14335 0.61695 0.0
C1586 C 0.76442 0.15477 0.61645 0.0
C1587 C 0.7936 0.15098 0.58892 0.0
C1588 C 0.47394 0.25712 0.84484 0.0
C1589 C 0.4786 0.23261 0.86569 0.0
C1590 C 0.51703 0.26468 0.82623 0.0
C1591 C 0.5662 0.248 0.82797 0.0
H1592 H 0.43735 0.27113 0.84365 0.0
H1593 H 0.51117 0.28309 0.80964 0.0
S1594 S 0.59933 0.18212 0.87899 0.0
N1595 N 0.53681 0.19215 0.88779 0.0
N1596 N 0.6171 0.20574 0.85121 0.0
C1597 C 0.57133 0.22323 0.84836 0.0
C1598 C 0.52763 0.21562 0.86758 0.0
C1599 C 0.50238 0.05751 0.63111 0.0
C1600 C 0.55881 0.05406 0.62972 0.0
C1601 C 0.47207 0.06143 0.6047 0.0
C1602 C 0.49774 0.06286 0.57647 0.0
H1603 H 0.48121 0.05364 0.65224 0.0
H1604 H 0.42848 0.06049 0.60603 0.0
S1605 S 0.64475 0.05941 0.56164 0.0
N1606 N 0.63941 0.05528 0.59874 0.0
N1607 N 0.58264 0.06404 0.5489 0.0
C1608 C 0.55446 0.06292 0.57529 0.0
C1609 C 0.58511 0.05814 0.60206 0.0
C1610 C 0.56912 0.68405 0.34734 0.0
C1611 C 0.54878 0.68509 0.31777 0.0
C1612 C 0.53397 0.68312 0.37187 0.0
C1613 C 0.4778 0.68375 0.36732 0.0
H1614 H 0.61185 0.68705 0.35156 0.0
H1615 H 0.55061 0.68529 0.39456 0.0
S1616 S 0.40514 0.68046 0.29436 0.0
N1617 N 0.46963 0.68169 0.28499 0.0
N1618 N 0.40336 0.68097 0.33181 0.0
C1619 C 0.45703 0.68149 0.33803 0.0
C1620 C 0.49283 0.6818 0.31294 0.0
C1621 C 0.57808 0.50937 1.09698 0.0
C1622 C 0.57268 0.52211 0.12622 0.0
C1623 C 0.53895 0.51478 1.07518 0.0
C1624 C 0.49283 0.53292 1.08196 0.0
H1625 H 0.61146 0.49383 1.09134 0.0
H1626 H 0.5442 0.50397 1.05298 0.0
S1627 S 0.46217 0.57529 0.1532 0.0
N1628 N 0.51911 0.55623 0.15992 0.0
N1629 N 0.44639 0.56694 0.11767 0.0
C1630 C 0.48863 0.548 0.10996 0.0
C1631 C 0.52841 0.54243 0.13248 0.0
C1632 C 0.42282 0.03634 0.97797 0.0
C1633 C 0.40814 0.01416 0.99991 0.0
C1634 C 0.39607 0.0379 0.95029 0.0
C1635 C 0.35453 0.01675 0.94321 0.0
H1636 H 0.45544 0.05262 0.98212 0.0
H1637 H 0.4091 0.05519 0.93392 0.0
S1638 S 0.30412 0.95172 0.99076 0.0
N1639 N 0.35031 0.9694 1.01187 0.0
N1640 N 0.30231 0.97134 0.9586 0.0
C1641 C 0.34068 0.99349 0.96411 0.0
C1642 C 0.36712 0.99231 0.99274 0.0
C1643 C 0.90217 0.2131 0.99651 0.0
C1644 C 0.85792 0.23233 1.0034 0.0
C1645 C 0.92799 0.21495 0.96858 0.0
C1646 C 0.90875 0.23522 0.94586 0.0
H1647 H 0.91692 0.19665 1.01313 0.0
H1648 H 0.96276 0.19993 0.96469 0.0
S1649 S 0.79299 0.29102 0.95366 0.0
N1650 N 0.79702 0.27355 0.98691 0.0
N1651 N 0.84153 0.27532 0.93274 0.0
C1652 C 0.86425 0.25503 0.95278 0.0
C1653 C 0.83951 0.25385 0.9819 0.0
C1654 C 0.3779 0.24035 0.45321 0.0
C1655 C 0.42406 0.22213 0.44612 0.0
C1656 C 0.35397 0.23905 0.48179 0.0
C1657 C 0.37502 0.21931 0.50418 0.0
H1658 H 0.35837 0.25471 0.4362 0.0
H1659 H 0.31822 0.25312 0.48626 0.0
S1660 S 0.49908 0.17066 0.49939 0.0
N1661 N 0.49342 0.18672 0.46554 0.0
N1662 N 0.44671 0.18351 0.51908 0.0
C1663 C 0.42194 0.20184 0.49806 0.0
C1664 C 0.44697 0.20349 0.46908 0.0
C1665 C 0.91205 0.05213 0.44716 0.0
C1666 C 0.858 0.06105 0.44263 0.0
C1667 C 0.93421 0.05116 0.47615 0.0
C1668 C 0.90394 0.06056 0.50149 0.0
H1669 H 0.93649 0.04417 0.42821 0.0
H1670 H 0.97471 0.04188 0.4789 0.0
S1671 S 0.76282 0.08994 0.50126 0.0
N1672 N 0.77597 0.08206 0.46523 0.0
N1673 N 0.81852 0.08136 0.52023 0.0
C1674 C 0.85118 0.07201 0.49711 0.0
C1675 C 0.82807 0.07228 0.46744 0.0
C1676 C 0.60388 0.94504 0.21618 0.0
C1677 C 0.63325 0.9348 0.19075 0.0
C1678 C 0.62829 0.94708 0.24459 0.0
C1679 C 0.68331 0.94005 0.24834 0.0
H1680 H 0.56214 0.95237 0.21391 0.0
H1681 H 0.60443 0.95526 0.26367 0.0
S1682 S 0.77797 0.91239 0.18894 0.0
N1683 N 0.71981 0.9168 0.17105 0.0
N1684 N 0.76633 0.92181 0.22481 0.0
C1685 C 0.71288 0.92885 0.22342 0.0
C1686 C 0.68768 0.9261 0.19444 0.0
C1687 C 0.13821 0.75709 0.20278 0.0
C1688 C 0.1843 0.7755 0.19699 0.0
C1689 C 0.11347 0.75748 0.23105 0.0
C1690 C 0.13321 0.77671 0.25435 0.0
H1691 H 0.11978 0.74278 0.18522 0.0
H1692 H 0.07796 0.7431 0.23455 0.0
S1693 S 0.25773 0.82467 0.25348 0.0
N1694 N 0.25321 0.80978 0.21881 0.0
N1695 N 0.20443 0.8116 0.27191 0.0
C1696 C 0.18039 0.79414 0.24972 0.0
C1697 C 0.20651 0.79327 0.22102 0.0
C1698 C 0.67979 0.73951 0.74897 0.0
C1699 C 0.62656 0.72965 0.75289 0.0
C1700 C 0.70379 0.73889 0.72048 0.0
C1701 C 0.67494 0.72836 0.69495 0.0
H1702 H 0.70159 0.74943 0.76788 0.0
H1703 H 0.74392 0.74854 0.71808 0.0
S1704 S 0.53823 0.6925 0.69536 0.0
N1705 N 0.54858 0.7038 0.73086 0.0
N1706 N 0.59316 0.70238 0.67652 0.0
C1707 C 0.62346 0.71496 0.69929 0.0
C1708 C 0.5991 0.71583 0.72853 0.0
C1709 C 0.13463 0.95547 0.74399 0.0
C1710 C 0.17891 0.97464 0.75104 0.0
C1711 C 0.10791 0.95833 0.71636 0.0
C1712 C 0.12552 0.97972 0.69434 0.0
H1713 H 0.11972 0.93863 0.76029 0.0
H1714 H 0.07335 0.94347 0.71217 0.0
S1715 S 0.23743 0.03734 0.70358 0.0
N1716 N 0.23648 0.01781 0.7358 0.0
N1717 N 0.18907 0.02181 0.68247 0.0
C1718 C 0.16902 -0.00014 0.70165 0.0
C1719 C 0.19525 -0.00251 0.7303 0.0
C1720 C 0.38002 0.50269 0.4957 0.0
C1721 C 0.42798 0.51881 0.50314 0.0
C1722 C 0.35795 0.50423 0.46668 0.0
C1723 C 0.38316 0.52175 0.44402 0.0
H1724 H 0.35749 0.49013 0.51276 0.0
H1725 H 0.32025 0.4922 0.46211 0.0
S1726 S 0.51424 0.56313 0.44972 0.0
N1727 N 0.50377 0.54916 0.48405 0.0
N1728 N 0.46148 0.55227 0.42927 0.0
C1729 C 0.43248 0.53654 0.45042 0.0
C1730 C 0.45522 0.53489 0.48002 0.0
C1731 C 0.94328 0.6972 0.49728 0.0
C1732 C 0.88699 0.69374 0.49907 0.0
C1733 C 0.96969 0.69557 0.46927 0.0
C1734 C 0.94045 0.68922 0.4427 0.0
H1735 H 0.96658 0.70212 0.51755 0.0
H1736 H 1.01258 0.7003 0.46822 0.0
S1737 S 0.79336 0.67648 0.43569 0.0
N1738 N 0.80327 0.68414 0.47208 0.0
N1739 N 0.85354 0.67773 0.41977 0.0
C1740 C 0.88474 0.68406 0.44446 0.0
C1741 C 0.85771 0.68712 0.47267 0.0
C1742 C 0.45143 0.72102 0.96868 0.0
C1743 C 0.4288 0.73893 0.9451 0.0
C1744 C 0.42725 0.72015 0.99714 0.0
C1745 C 0.38078 0.73798 1.00324 0.0
H1746 H 0.48701 0.70662 0.96488 0.0
H1747 H 0.4445 0.70508 1.01439 0.0
S1748 S 0.31208 0.79422 0.95248 0.0
N1749 N 0.36035 0.77825 0.93156 0.0
N1750 N 0.31755 0.77768 0.98608 0.0
C1751 C 0.36072 0.75841 0.98127 0.0
C1752 C 0.3843 0.75878 0.95191 0.0
C1753 C 0.8466 0.54784 0.97467 0.0
C1754 C 0.87692 0.55694 0.94942 0.0
C1755 C 0.87045 0.54573 1.00317 0.0
C1756 C 0.92561 0.55216 1.00723 0.0
H1757 H 0.80469 0.54106 0.9721 0.0
H1758 H 0.846 0.53792 1.02202 0.0
S1759 S 0.02217 0.57741 0.94839 0.0
N1760 N 0.96427 0.57331 0.93015 0.0
N1761 N 1.00959 0.5689 0.98419 0.0
C1762 C 0.95598 0.56252 0.98249 0.0
C1763 C 0.93147 0.56496 0.95338 0.0
C1764 C 0.68878 0.44778 0.73699 0.0
C1765 C 0.70956 0.47466 0.75164 0.0
C1766 C 0.66247 0.44991 0.70909 0.0
C1767 C 0.65286 0.47925 0.69518 0.0
H1768 H 0.6898 0.42498 0.74783 0.0
H1769 H 0.64815 0.42815 0.69898 0.0
S1770 S 0.70835 0.55629 0.72207 0.0
N1771 N 0.72933 0.53056 0.74731 0.0
N1772 N 0.67239 0.53579 0.6974 0.0
C1773 C 0.6771 0.50616 0.70862 0.0
C1774 C 0.70703 0.50354 0.73621 0.0
C1775 C 0.16189 0.24946 0.74237 0.0
C1776 C 0.11374 0.26595 0.74895 0.0
C1777 C 0.18716 0.25226 0.71432 0.0
C1778 C 0.16523 0.27161 0.69187 0.0
H1779 H 0.18169 0.23527 0.75942 0.0
H1780 H 0.22437 0.23941 0.71022 0.0
S1781 S 0.03604 0.31576 0.69548 0.0
N1782 N 0.04205 0.29946 0.72922 0.0
N1783 N 0.09045 0.30503 0.67636 0.0
C1784 C 0.11633 0.28739 0.69751 0.0
C1785 C 0.09025 0.28439 0.72607 0.0
C1786 C 0.62753 0.25219 0.20132 0.0
C1787 C 0.67508 0.26912 0.19504 0.0
C1788 C 0.60349 0.25355 0.2299 0.0
C1789 C 0.62603 0.27187 0.2532 0.0
H1790 H 0.60688 0.23901 0.18368 0.0
H1791 H 0.56635 0.24073 0.23361 0.0
S1792 S 0.75516 0.31552 0.25081 0.0
N1793 N 0.7478 0.30103 0.21615 0.0
N1794 N 0.70154 0.30402 0.26991 0.0
C1795 C 0.67488 0.28754 0.24798 0.0
C1796 C 0.69976 0.28598 0.21891 0.0
C1797 C 0.10407 0.46664 0.2173 0.0
C1798 C 0.12497 0.48654 0.1949 0.0
C1799 C 0.12824 0.46452 0.24566 0.0
C1800 C 0.17265 0.48329 0.25316 0.0
H1801 H 0.06914 0.45207 0.2128 0.0
H1802 H 0.11175 0.44824 0.26197 0.0
S1803 S 0.24331 0.53972 0.20381 0.0
N1804 N 0.19457 0.52508 0.18238 0.0
N1805 N 0.23681 0.52277 0.23716 0.0
C1806 C 0.19322 0.50417 0.23176 0.0
C1807 C 0.16986 0.5056 0.20231 0.0
C1808 C 0.35596 0.11937 0.25481 0.0
C1809 C 0.32423 0.1433 0.24195 0.0
C1810 C 0.35782 0.08891 0.2421 0.0
C1811 C 0.32843 0.08093 0.21572 0.0
H1812 H 0.38255 0.12482 0.27367 0.0
H1813 H 0.38544 0.07197 0.25197 0.0
S1814 S 0.23423 0.13408 0.17519 0.0
N1815 N 0.2588 0.15631 0.20293 0.0
N1816 N 0.26218 0.09884 0.17898 0.0
C1817 C 0.29305 0.10385 0.20401 0.0
C1818 C 0.29119 0.13513 0.21707 0.0
C1819 C 0.98036 0.09691 0.20812 0.0
C1820 C 0.96759 0.09128 0.23878 0.0
C1821 C 0.97975 0.12776 0.19608 0.0
C1822 C 0.96506 0.15399 0.21415 0.0
H1823 H 0.98747 0.07714 0.19288 0.0
H1824 H 0.98632 0.13071 0.17198 0.0
S1825 S 0.9304 0.1522 0.29595 0.0
N1826 N 0.94284 0.11491 0.28712 0.0
N1827 N 0.94018 0.17232 0.26453 0.0
C1828 C 0.95485 0.14874 0.2451 0.0
C1829 C 0.95643 0.11757 0.2574 0.0
C1830 C 0.73437 0.84857 0.98417 0.0
C1831 C 0.71676 0.84265 0.95417 0.0
C1832 C 0.73568 0.87957 0.99661 0.0
C1833 C 0.71836 0.90577 0.97962 0.0
H1834 H 0.74374 0.82893 0.99878 0.0
H1835 H 0.74588 0.88265 1.02035 0.0
S1836 S 0.6709 0.90328 0.8997 0.0
N1837 N 0.68435 0.86603 0.90757 0.0
N1838 N 0.68583 0.92361 0.93071 0.0
C1839 C 0.70333 0.90018 0.94919 0.0
C1840 C 0.70261 0.86887 0.93655 0.0
C1841 C 0.10488 0.84307 0.95318 0.0
C1842 C 0.07682 0.83573 0.98001 0.0
C1843 C 0.10321 0.87338 0.9406 0.0
C1844 C 0.07317 0.89794 0.95409 0.0
H1845 H 0.13144 0.82572 0.9428 0.0
H1846 H 0.12884 0.87821 0.9213 0.0
S1847 S 0.98778 0.8908 1.02267 0.0
N1848 N 1.01398 0.85512 1.01814 0.0
N1849 N 1.01123 0.91231 0.99453 0.0
C1850 C 0.04171 0.89052 0.97963 0.0
C1851 C 0.04325 0.85935 0.99252 0.0
C1852 C 0.29759 0.63057 0.74984 0.0
C1853 C 0.32113 0.65498 0.73294 0.0
C1854 C 0.29577 0.59927 0.73834 0.0
C1855 C 0.31619 0.59154 0.70933 0.0
H1856 H 0.2848 0.63507 0.77296 0.0
H1857 H 0.28175 0.58068 0.75304 0.0
S1858 S 0.37705 0.64744 0.65515 0.0
N1859 N 0.36171 0.66951 0.685 0.0
N1860 N 0.35709 0.6114 0.66342 0.0
C1861 C 0.33602 0.61623 0.69154 0.0
C1862 C 0.33868 0.64775 0.70331 0.0
C1863 C 0.91184 0.64675 0.73805 0.0
C1864 C 0.9514 0.65518 0.71664 0.0
C1865 C 0.91236 0.61749 0.75246 0.0
C1866 C 0.95284 0.59496 0.74673 0.0
H1867 H 0.87808 0.66233 0.74277 0.0
H1868 H 0.87871 0.61176 0.76708 0.0
S1869 S 0.07247 0.60723 0.69776 0.0
N1870 N 0.03707 0.64012 0.69387 0.0
N1871 N 0.03826 0.58476 0.7214 0.0
C1872 C 0.99569 0.60393 0.72764 0.0
C1873 C 0.995 0.6341 0.71257 0.0
C1874 C 0.68075 0.36565 0.44373 0.0
C1875 C 0.70948 0.34071 0.45706 0.0
C1876 C 0.67747 0.39551 0.45774 0.0
C1877 C 0.70266 0.40197 0.48583 0.0
H1878 H 0.65718 0.36138 0.42339 0.0
H1879 H 0.65198 0.41322 0.44733 0.0
S1880 S 0.78681 0.34552 0.52907 0.0
N1881 N 0.76671 0.32498 0.49907 0.0
N1882 N 0.76113 0.38134 0.52527 0.0
C1883 C 0.73491 0.37798 0.49838 0.0
C1884 C 0.73798 0.34729 0.48408 0.0
C1885 C 0.0533 0.36059 0.48963 0.0
C1886 C 0.09239 0.33853 0.47969 0.0
C1887 C 0.05169 0.39168 0.47785 0.0
C1888 C 0.08878 0.4016 0.4556 0.0
H1889 H 0.02583 0.35443 0.50769 0.0
H1890 H 0.0233 0.40839 0.48743 0.0
S1891 S 0.19424 0.35189 0.4192 0.0
N1892 N 0.16541 0.32839 0.44394 0.0
N1893 N 0.16227 0.38594 0.42249 0.0
C1894 C 0.12567 0.37916 0.44443 0.0
C1895 C 0.12745 0.34792 0.45625 0.0
C1896 C 0.86757 0.11292 0.69098 0.0
C1897 C 0.83004 0.09064 0.70136 0.0
C1898 C 0.87156 0.14306 0.70415 0.0
C1899 C 0.83793 0.15262 0.72824 0.0
H1900 H 0.89677 0.10624 0.67378 0.0
H1901 H 0.90305 0.15857 0.69615 0.0
S1902 S 0.72713 0.10524 0.76083 0.0
N1903 N 0.75462 0.08147 0.73517 0.0
N1904 N 0.76123 0.13863 0.75955 0.0
C1905 C 0.7971 0.13165 0.73723 0.0
C1906 C 0.79336 0.10057 0.72388 0.0
C1907 C 0.42282 0.12825 0.69551 0.0
C1908 C 0.45918 0.15096 0.70667 0.0
C1909 C 0.42087 0.0977 0.7074 0.0
C1910 C 0.45486 0.08818 0.73133 0.0
H1911 H 0.39322 0.13472 0.67852 0.0
H1912 H 0.39023 0.08185 0.69866 0.0
S1913 S 0.56304 0.13705 0.76582 0.0
N1914 N 0.53424 0.16076 0.74093 0.0
N1915 N 0.53082 0.10303 0.76328 0.0
C1916 C 0.49458 0.10973 0.74112 0.0
C1917 C 0.49655 0.14119 0.72887 0.0
C1918 C 0.16808 0.85145 0.48539 0.0
C1919 C 0.2062 0.84086 0.46392 0.0
C1920 C 0.17063 0.88139 0.49868 0.0
C1921 C 0.21035 0.90319 0.49048 0.0
H1922 H 0.13394 0.83688 0.49131 0.0
H1923 H 0.13864 0.88828 0.51416 0.0
S1924 S 0.32188 0.88782 0.43623 0.0
N1925 N 0.28779 0.85433 0.43638 0.0
N1926 N 0.29069 0.91195 0.46022 0.0
C1927 C 0.2504 0.89295 0.4699 0.0
C1928 C 0.24866 0.86158 0.45679 0.0
C1929 C 0.62379 0.86481 0.50029 0.0
C1930 C 0.5875 0.84119 0.49113 0.0
C1931 C 0.62677 0.89373 0.48528 0.0
C1932 C 0.59408 0.90066 0.45994 0.0
H1933 H 0.65262 0.8602 0.51824 0.0
H1934 H 0.65726 0.9103 0.49288 0.0
S1935 S 0.48702 0.84845 0.42906 0.0
N1936 N 0.51407 0.82772 0.45687 0.0
N1937 N 0.51959 0.88245 0.42847 0.0
C1938 C 0.55451 0.87828 0.45184 0.0
C1939 C 0.55138 0.84847 0.4674 0.0
C1940 C 0.8086 0.59886 0.24017 0.0
C1941 C 0.82584 0.59149 0.21037 0.0
C1942 C 0.80959 0.6303 0.25172 0.0
C1943 C 0.82939 0.65542 0.23416 0.0
H1944 H 0.79729 0.57998 0.25526 0.0
H1945 H 0.79887 0.63446 0.27522 0.0
S1946 S 0.87862 0.64851 0.15485 0.0
N1947 N 0.86107 0.61221 0.16352 0.0
N1948 N 0.86507 0.67033 0.18514 0.0
C1949 C 0.84476 0.64827 0.20407 0.0
C1950 C 0.84255 0.61664 0.19224 0.0
C1951 C 0.40289 0.60581 0.24151 0.0
C1952 C 0.44943 0.58677 0.24054 0.0
C1953 C 0.40092 0.63543 0.22801 0.0
C1954 C 0.44532 0.64814 0.21246 0.0
H1955 H 0.36633 0.59731 0.25209 0.0
H1956 H 0.36298 0.64813 0.22933 0.0
S1957 S 0.58002 0.61004 0.20646 0.0
N1958 N 0.54364 0.58418 0.22543 0.0
N1959 N 0.53958 0.64016 0.19916 0.0
C1960 C 0.49356 0.6303 0.21261 0.0
C1961 C 0.49576 0.59971 0.22694 0.0
C1962 C 0.14972 0.38174 0.9911 0.0
C1963 C 0.19586 0.40073 0.98882 0.0
C1964 C 0.14813 0.35119 0.97921 0.0
C1965 C 0.19236 0.33765 0.96379 0.0
H1966 H 0.11351 0.3907 1.00197 0.0
H1967 H 0.11076 0.33833 0.9818 0.0
S1968 S 0.32501 0.3763 0.95303 0.0
N1969 N 0.28877 0.40312 0.97146 0.0
N1970 N 0.28555 0.34524 0.94832 0.0
C1971 C 0.23994 0.35574 0.96213 0.0
C1972 C 0.24175 0.3873 0.97482 0.0
C1973 C 0.56587 0.34647 0.9537 0.0
C1974 C 0.56665 0.34017 0.98508 0.0
C1975 C 0.56568 0.37767 0.94258 0.0
C1976 C 0.56755 0.4039 0.96242 0.0
H1977 H 0.56873 0.32709 0.93758 0.0
H1978 H 0.56859 0.3812 0.91833 0.0
S1979 S 0.56901 0.40053 1.04647 0.0
N1980 N 0.567 0.36309 1.0357 0.0
N1981 N 0.56856 0.42135 1.01496 0.0
C1982 C 0.56614 0.39792 0.99378 0.0
C1983 C 0.56519 0.36621 1.00508 0.0
C1984 C 0.26554 0.01289 1.05241 0.0
C1985 C 0.25068 0.99404 1.07791 0.0
C1986 C 0.23626 0.01331 1.0236 0.0
C1987 C 0.18879 0.99508 1.01725 0.0
H1988 H 0.30072 0.02781 1.05458 0.0
H1989 H 0.2515 0.02836 1.00588 0.0
S1990 S 0.13468 0.93791 1.0731 0.0
N1991 N 0.18576 0.95393 1.09179 0.0
N1992 N 0.13203 0.95553 1.0399 0.0
C1993 C 0.17403 0.97585 1.04225 0.0
C1994 C 0.20413 0.97509 1.07141 0.0
C1995 C 0.10211 0.26247 1.04329 0.0
C1996 C 0.09546 0.23916 1.01994 0.0
C1997 C 0.07361 0.26221 1.07213 0.0
C1998 C 0.03527 0.23867 1.08061 0.0
H1999 H 0.12972 0.28165 1.03916 0.0
H2000 H 0.08169 0.28122 1.08804 0.0
S2001 S 1.01107 0.16761 1.03185 0.0
N2002 N 0.0517 0.18896 1.01064 0.0
N2003 N 0.99963 0.18849 1.06307 0.0
C2004 C 0.02978 0.21454 1.05793 0.0
C2005 C 0.05897 0.21479 1.02856 0.0
C2006 C 0.19612 0.25345 0.36934 0.0
C2007 C 0.24512 0.23626 0.36364 0.0
C2008 C 0.16825 0.25446 0.39848 0.0
C2009 C 0.18638 0.23837 0.42509 0.0
H2010 H 0.17896 0.26693 0.35095 0.0
H2011 H 0.13195 0.26863 0.40017 0.0
S2012 S 0.30537 0.18401 0.42251 0.0
N2013 N 0.30545 0.19924 0.38814 0.0
N2014 N 0.25485 0.20095 0.44099 0.0
C2015 C 0.23422 0.2202 0.41941 0.0
C2016 C 0.26261 0.2192 0.38975 0.0
C2017 C 0.0924 0.01191 0.37156 0.0
C2018 C 0.03645 0.004 0.36834 0.0
C2019 C 0.12196 0.01132 0.40016 0.0
C2020 C 0.09871 0.00221 0.42843 0.0
H2021 H 0.11413 0.01883 0.35145 0.0
H2022 H 0.16405 0.01803 0.3999 0.0
S2023 S 0.95632 0.97381 0.43343 0.0
N2024 N 0.96161 0.98358 0.39736 0.0
N2025 N 1.01512 0.98199 0.44924 0.0
C2026 C 0.04326 0.99324 0.42528 0.0
C2027 C 1.01315 0.99419 0.39626 0.0
C2028 C 0.87053 0.98838 0.15115 0.0
C2029 C 0.84532 0.99394 0.17992 0.0
C2030 C 0.84175 0.98786 0.12223 0.0
C2031 C 0.7847 0.99232 0.11892 0.0
H2032 H 0.91368 0.9845 0.15081 0.0
H2033 H 0.86488 0.98373 0.10182 0.0
S2034 S 0.69767 0.0109 0.18589 0.0
N2035 N 0.75763 0.00606 0.20151 0.0
N2036 N 0.70555 0.00468 0.14908 0.0
C2037 C 0.7591 -0.00178 0.14748 0.0
C2038 C 0.7884 -0.0009 0.1769 0.0
C2039 C 0.02938 0.76426 0.14838 0.0
C2040 C 1.00644 0.75335 0.12035 0.0
C2041 C 1.00109 0.76415 0.17745 0.0
C2042 C 0.94675 0.75348 0.18154 0.0
H2043 H 0.07012 0.77332 0.14793 0.0
H2044 H 0.02213 0.77327 0.19711 0.0
S2045 S 0.86591 0.72196 0.11724 0.0
N2046 N 0.92346 0.73083 0.1006 0.0
N2047 N 0.87206 0.73201 0.15321 0.0
C2048 C 0.92318 0.74318 0.15376 0.0
C2049 C 0.95203 0.74273 0.12428 0.0
C2050 C 0.85804 0.72818 0.78779 0.0
C2051 C 0.84942 0.75073 0.76429 0.0
C2052 C 0.82851 0.72798 0.81636 0.0
C2053 C 0.78794 0.75063 0.82474 0.0
H2054 H 0.888 0.70992 0.78405 0.0
H2055 H 0.83823 0.7096 0.83237 0.0
S2056 S 0.74993 0.81657 0.77324 0.0
N2057 N 0.79595 0.79725 0.75322 0.0
N2058 N 0.74357 0.79747 0.80555 0.0
C2059 C 0.77959 0.7736 0.80165 0.0
C2060 C 0.809 0.77349 0.77232 0.0
C2061 C 0.92121 0.97895 0.79246 0.0
C2062 C 0.94323 0.99166 0.76514 0.0
C2063 C 0.94941 0.97862 0.82159 0.0
C2064 C 1.00287 0.99062 0.82647 0.0
H2065 H 0.88103 0.96906 0.79153 0.0
H2066 H 0.92856 0.9685 0.84071 0.0
S2067 S 0.07715 0.03164 0.76476 0.0
N2068 N 0.02186 0.0197 0.74728 0.0
N2069 N 0.07283 0.01907 0.80004 0.0
C2070 C 0.02459 0.00411 0.79953 0.0
C2071 C 0.99585 0.00459 0.76995 0.0
C2072 C 0.20258 0.48497 0.57443 0.0
C2073 C 0.25018 0.50288 0.58088 0.0
C2074 C 0.17494 0.4848 0.54535 0.0
C2075 C 0.19224 0.50245 0.51971 0.0
H2076 H 0.18621 0.47041 0.59221 0.0
H2077 H 0.13955 0.47009 0.54289 0.0
S2078 S 0.30678 0.55923 0.52481 0.0
N2079 N 0.30791 0.54243 0.5585 0.0
N2080 N 0.25764 0.54206 0.50545 0.0
C2081 C 0.23855 0.5214 0.52614 0.0
C2082 C 0.26664 0.52163 0.55581 0.0
C2083 C 0.12288 0.72931 0.54346 0.0
C2084 C 0.10084 0.74219 0.5162 0.0
C2085 C 0.09411 0.72836 0.57221 0.0
C2086 C 0.04018 0.73984 0.57655 0.0
H2087 H 0.16346 0.7198 0.54275 0.0
H2088 H 0.11478 0.71817 0.59144 0.0
S2089 S 0.96485 0.78031 0.51461 0.0
N2090 N 0.0214 0.76949 0.49767 0.0
N2091 N 0.96908 0.76756 0.54985 0.0
C2092 C 1.01831 0.75346 0.54968 0.0
C2093 C 0.04765 0.75459 0.5205 0.0
C2094 C 0.27669 0.73008 0.897 0.0
C2095 C 0.25318 0.74139 0.8694 0.0
C2096 C 0.24896 0.73 0.92622 0.0
C2097 C 0.19487 0.74119 0.93088 0.0
H2098 H 0.31757 0.72104 0.89619 0.0
H2099 H 0.27073 0.72091 0.94559 0.0
S2100 S 0.11368 0.77539 0.86823 0.0
N2101 N 0.17039 0.76542 0.85088 0.0
N2102 N 0.12062 0.76493 0.90392 0.0
C2103 C 0.17109 0.75247 0.90365 0.0
C2104 C 0.19914 0.75272 0.87397 0.0
C2105 C 0.11952 0.5089 0.90043 0.0
C2106 C 0.0958 0.50119 0.92896 0.0
C2107 C 0.09004 0.50926 0.87177 0.0
C2108 C 0.03399 0.50213 0.86862 0.0
H2109 H 0.1618 0.51504 0.90022 0.0
H2110 H 0.11135 0.51566 0.85145 0.0
S2111 S 0.9505 0.47908 0.93523 0.0
N2112 N 1.01024 0.48544 0.95064 0.0
N2113 N 0.95695 0.48628 0.89864 0.0
C2114 C 1.00974 0.49444 0.89698 0.0
C2115 C 0.03965 0.49392 0.92612 0.0
C2116 C 0.77284 0.46474 0.64556 0.0
C2117 C 0.76724 0.49116 0.62589 0.0
C2118 C 0.80093 0.46597 0.67457 0.0
C2119 C 0.82527 0.49375 0.68711 0.0
H2120 H 0.75697 0.44224 0.63802 0.0
H2121 H 0.80525 0.44432 0.68681 0.0
S2122 S 0.81468 0.5715 0.64853 0.0
N2123 N 0.78528 0.54729 0.62405 0.0
N2124 N 0.83325 0.54979 0.6777 0.0
C2125 C 0.81594 0.52082 0.66878 0.0
C2126 C 0.78904 0.51942 0.6388 0.0
C2127 C 0.94881 0.26237 0.61999 0.0
C2128 C 1.00275 0.25077 0.6158 0.0
C2129 C 0.91938 0.26132 0.64857 0.0
C2130 C 0.94082 0.24859 0.67607 0.0
H2131 H 0.92847 0.27267 0.60071 0.0
H2132 H 0.87886 0.27092 0.64903 0.0
S2133 S 0.07518 0.20886 0.67801 0.0
N2134 N 0.07219 0.22196 0.64284 0.0
N2135 N 1.01905 0.22055 0.69485 0.0
C2136 C 0.99387 0.23598 0.67199 0.0
C2137 C 0.02375 0.2369 0.64285 0.0
C2138 C 0.83368 0.26663 0.32565 0.0
C2139 C 0.78393 0.25046 0.33113 0.0
C2140 C 0.86249 0.26634 0.29672 0.0
C2141 C 0.84496 0.24958 0.27017 0.0
H2142 H 0.8508 0.28024 0.34414 0.0
H2143 H 0.89931 0.27986 0.29519 0.0
S2144 S 0.71731 0.20288 0.27005 0.0
N2145 N 0.71926 0.21707 0.30507 0.0
N2146 N 0.77138 0.21644 0.25275 0.0
C2147 C 0.79478 0.23375 0.27518 0.0
C2148 C 0.76536 0.23418 0.30455 0.0
C2149 C 0.99409 0.47954 0.2747 0.0
C2150 C 0.94308 0.49458 0.26961 0.0
C2151 C 0.02289 0.47992 0.30357 0.0
C2152 C 1.00362 0.49548 0.33038 0.0
H2153 H 1.01192 0.46664 0.256 0.0
H2154 H 0.06091 0.4674 0.30493 0.0
S2155 S 0.87642 0.54321 0.32961 0.0
N2156 N 0.8779 0.52815 0.29497 0.0
N2157 N 0.9301 0.52928 0.34739 0.0
C2158 C 0.95315 0.51127 0.32534 0.0
C2159 C 0.92385 0.5107 0.29598 0.0
C2160 C 0.77949 0.00875 0.54726 0.0
C2161 C 0.75635 -0.00278 0.5747 0.0
C2162 C 0.75221 0.00809 0.51799 0.0
C2163 C 0.6985 0.99666 0.51342 0.0
H2164 H 0.81971 0.01848 0.54825 0.0
H2165 H 0.77376 0.01697 0.49856 0.0
S2166 S 0.62038 0.95922 0.57541 0.0
N2167 N 0.6763 0.97041 0.59287 0.0
N2168 N 0.62616 0.97061 0.53989 0.0
C2169 C 0.67552 0.98435 0.54038 0.0
C2170 C 0.7036 0.98435 0.56999 0.0
C2171 C 0.51032 0.24842 0.55305 0.0
C2172 C 0.53566 0.24099 0.58133 0.0
C2173 C 0.53827 0.24886 0.52399 0.0
C2174 C 0.5944 0.24157 0.52008 0.0
H2175 H 0.46798 0.25455 0.55326 0.0
H2176 H 0.51501 0.25518 0.50413 0.0
S2177 S 0.68129 0.21821 0.58518 0.0
N2178 N 0.62249 0.22489 0.60168 0.0
N2179 N 0.67277 0.22523 0.54876 0.0
C2180 C 0.61992 0.23359 0.54801 0.0
C2181 C 0.59167 0.23342 0.57763 0.0
C2182 C 0.69874 0.26141 0.87005 0.0
C2183 C 0.74628 0.24297 0.86389 0.0
C2184 C 0.66921 0.2613 0.89875 0.0
C2185 C 0.68459 0.24317 0.92469 0.0
H2186 H 0.68364 0.27648 0.85228 0.0
H2187 H 0.63391 0.2763 0.90067 0.0
S2188 S 0.80245 0.18806 0.92198 0.0
N2189 N 0.80389 0.20409 0.88796 0.0
N2190 N 0.75122 0.20456 0.94015 0.0
C2191 C 0.73166 0.22444 0.9188 0.0
C2192 C 0.76124 0.22419 0.88947 0.0
C2193 C 0.58976 0.01381 0.87202 0.0
C2194 C 0.53652 0.00145 0.86729 0.0
C2195 C 0.61836 0.01356 0.90105 0.0
C2196 C 0.59687 0.00076 0.92845 0.0
H2197 H 0.61008 0.0242 0.85285 0.0
H2198 H 0.65824 0.02383 0.9019 0.0
S2199 S 0.46198 0.96188 0.92983 0.0
N2200 N 0.46625 0.97385 0.89435 0.0
N2201 N 0.51789 0.97346 0.94689 0.0
C2202 C 0.54405 0.98798 0.92392 0.0
C2203 C 0.51496 0.98829 0.89445 0.0
C2204 C 0.3329 0.01027 0.62459 0.0
C2205 C 0.28632 0.99152 0.61799 0.0
C2206 C 0.36176 0.00995 0.65332 0.0
C2207 C 0.34716 0.99076 0.67845 0.0
H2208 H 0.34732 0.02598 0.6072 0.0
H2209 H 0.39582 0.0256 0.65597 0.0
S2210 S 0.23386 0.93309 0.67347 0.0
N2211 N 0.23099 0.95063 0.64015 0.0
N2212 N 0.2837 0.94999 0.69247 0.0
C2213 C 0.30148 0.97127 0.672 0.0
C2214 C 0.27195 0.97165 0.64272 0.0
C2215 C 0.41796 0.74034 0.65107 0.0
C2216 C 0.43945 0.75192 0.67918 0.0
C2217 C 0.44725 0.74039 0.6224 0.0
C2218 C 0.5009 0.75233 0.61864 0.0
H2219 H 0.37779 0.73041 0.65113 0.0
H2220 H 0.4272 0.73049 0.60272 0.0
S2221 S 0.57549 0.78948 0.6834 0.0
N2222 N 0.51869 0.77814 0.69948 0.0
N2223 N 0.57165 0.77849 0.64738 0.0
C2224 C 0.52229 0.76477 0.64643 0.0
C2225 C 0.49257 0.76457 0.67566 0.0
C2226 C 0.2926 0.7421 0.27025 0.0
C2227 C 0.34853 0.74953 0.26618 0.0
C2228 C 0.26467 0.74344 0.29934 0.0
C2229 C 0.28972 0.75218 0.32749 0.0
H2230 H 0.26956 0.7348 0.25054 0.0
H2231 H 0.22254 0.73697 0.29969 0.0
S2232 S 0.43428 0.777 0.33069 0.0
N2233 N 0.42612 0.76804 0.29448 0.0
N2234 N 0.37577 0.77029 0.34734 0.0
C2235 C 0.3454 0.76019 0.32356 0.0
C2236 C 0.37367 0.759 0.29394 0.0
C2237 C 0.45818 0.97276 0.32091 0.0
C2238 C 0.51101 0.98564 0.3253 0.0
C2239 C 0.42871 0.97347 0.29232 0.0
C2240 C 0.44901 0.98721 0.26514 0.0
H2241 H 0.43873 0.96177 0.34005 0.0
H2242 H 0.38907 0.96287 0.29167 0.0
S2243 S 0.58304 0.02719 0.26303 0.0
N2244 N 0.58008 0.01445 0.29832 0.0
N2245 N 0.52672 0.01562 0.24632 0.0
C2246 C 0.5016 0.00043 0.26926 0.0
C2247 C 0.53157 -0.00029 0.29837 0.0
C2248 C 0.73975 0.48158 1.02655 0.0
C2249 C 0.6948 0.50163 1.01944 0.0
C2250 C 0.76928 0.48249 1.0552 0.0
C2251 C 0.75704 0.50358 1.0798 0.0
H2252 H 0.75229 0.46434 1.00971 0.0
H2253 H 0.80198 0.4658 1.05818 0.0
S2254 S 0.65251 0.56673 1.07202 0.0
N2255 N 0.64638 0.54694 1.03971 0.0
N2256 N 0.6996 0.54838 1.09184 0.0
C2257 C 0.71383 0.52471 1.07249 0.0
C2258 C 0.68386 0.52385 1.04328 0.0
C2259 C 0.61018 0.72348 1.03902 0.0
C2260 C 0.59602 0.74412 1.0147 0.0
C2261 C 0.58086 0.72161 1.06771 0.0
C2262 C 0.53509 0.74057 1.07576 0.0
H2263 H 0.64402 0.7077 1.03558 0.0
H2264 H 0.59321 0.70403 1.08376 0.0
S2265 S 0.47895 0.79964 1.02168 0.0
N2266 N 0.52958 0.78416 1.0022 0.0
N2267 N 0.47816 0.78153 1.05472 0.0
C2268 C 0.52018 0.7612 1.05159 0.0
C2269 C 0.54932 0.76277 1.0221 0.0
C2270 C 0.67335 0.73522 0.40186 0.0
C2271 C 0.69644 0.74323 0.43069 0.0
C2272 C 0.70334 0.73476 0.37341 0.0
C2273 C 0.75976 0.74171 0.37075 0.0
H2274 H 0.63096 0.72922 0.40104 0.0
H2275 H 0.68149 0.72863 0.35294 0.0
S2276 S 0.8413 0.76676 0.43801 0.0
N2277 N 0.78131 0.76037 0.45294 0.0
N2278 N 0.83575 0.75873 0.40139 0.0
C2279 C 0.78317 0.75017 0.3993 0.0
C2280 C 0.75251 0.75114 0.42821 0.0
C2281 C 0.58352 0.50683 0.37604 0.0
C2282 C 0.53185 0.49298 0.37019 0.0
C2283 C 0.6109 0.50674 0.40543 0.0
C2284 C 0.58946 0.49277 0.43225 0.0
H2285 H 0.60309 0.51838 0.35737 0.0
H2286 H 0.64976 0.51805 0.40716 0.0
S2287 S 0.45943 0.44853 0.43042 0.0
N2288 N 0.46397 0.46164 0.39532 0.0
N2289 N 0.5129 0.46193 0.44871 0.0
C2290 C 0.53837 0.47813 0.42656 0.0
C2291 C 0.51066 0.47814 0.39663 0.0
C2292 C 0.36947 0.50169 0.15138 0.0
C2293 C 0.35055 0.4861 0.17793 0.0
C2294 C 0.34036 0.50247 0.12262 0.0
C2295 C 0.28939 0.48745 0.11724 0.0
H2296 H 0.40753 0.51391 0.15283 0.0
H2297 H 0.35836 0.51546 0.10422 0.0
S2298 S 0.22623 0.4366 0.17601 0.0
N2299 N 0.27903 0.45126 0.19412 0.0
N2300 N 0.22653 0.4522 0.14178 0.0
C2301 C 0.27136 0.47043 0.14318 0.0
C2302 C 0.30086 0.46986 0.17252 0.0
C2303 C 0.42041 0.23077 0.14871 0.0
C2304 C 0.43588 0.24788 0.17543 0.0
C2305 C 0.44917 0.23209 0.11997 0.0
C2306 C 0.49641 0.25071 0.11484 0.0
H2307 H 0.38558 0.21551 0.15 0.0
H2308 H 0.43402 0.2178 0.10138 0.0
S2309 S 0.54816 0.30642 0.17406 0.0
N2310 N 0.49908 0.28807 0.19204 0.0
N2311 N 0.55135 0.29048 0.13975 0.0
C2312 C 0.51094 0.26903 0.14098 0.0
C2313 C 0.48165 0.26764 0.1703 0.0
C2314 C 0.36772 0.23241 0.79774 0.0
C2315 C 0.3508 0.25003 0.7718 0.0
C2316 C 0.33891 0.23211 0.8266 0.0
C2317 C 0.29024 0.24946 0.83271 0.0
H2318 H 0.40374 0.21804 0.79571 0.0
H2319 H 0.3551 0.2175 0.84445 0.0
S2320 S 0.23254 0.30485 0.77568 0.0
N2321 N 0.28342 0.28857 0.75699 0.0
N2322 N 0.23129 0.28804 0.80934 0.0
C2323 C 0.27392 0.26796 0.80728 0.0
C2324 C 0.30316 0.26823 0.77788 0.0
C2325 C 0.44239 0.4864 0.82854 0.0
C2326 C 0.49919 0.49207 0.83131 0.0
C2327 C 0.4121 0.48692 0.80008 0.0
C2328 C 0.4356 0.4935 0.77119 0.0
H2329 H 0.42075 0.48112 0.84898 0.0
H2330 H 0.36928 0.48217 0.80089 0.0
S2331 S 0.58154 0.51338 0.76397 0.0
N2332 N 0.57582 0.50645 0.80061 0.0
N2333 N 0.52141 0.50769 0.74895 0.0
C2334 C 0.49222 0.49976 0.77371 0.0
C2335 C 0.52288 0.49898 0.80267 0.0
loop_
_geom_bond_atom_site_label_1
_geom_bond_atom_site_label_2
_geom_bond_distance
_geom_bond_site_symmetry_2
_ccdc_geom_bond_type
Pr0 C2 2.881 1_554 S
Pr0 O20 2.562 1_545 S
Pr0 O21 2.490 . S
Pr0 O22 2.695 . S
Pr0 O23 2.512 . S
Pr0 O25 2.437 . S
Pr0 O28 2.436 1_545 S
Pr0 O30 2.438 . S
Pr1 C11 2.880 1_565 S
Pr1 O22 2.423 1_565 S
Pr1 O24 2.436 1_565 S
Pr1 O26 2.555 1_565 S
Pr1 O27 2.497 . S
Pr1 O28 2.702 . S
Pr1 O29 2.528 . S
Pr1 O31 2.440 . S
C2 Pr0 2.881 1_556 S
C2 C3 1.490 . S
C2 O20 1.254 1_546 S
C2 O21 1.226 1_556 S
C3 C2 1.490 . S
C3 C4 1.392 . S
C3 C8 1.356 1_545 S
C4 C3 1.392 . S
C4 C5 1.368 . S
C4 H32 0.929 . S
C5 C4 1.368 . S
C5 C6 1.386 . S
C5 H33 0.929 . S
C6 C5 1.386 . S
C6 C7 1.373 1_545 S
C7 C6 1.373 1_565 S
C7 C8 1.409 . S
C7 H34 0.931 . S
C8 C3 1.356 1_565 S
C8 C7 1.409 . S
C8 H35 0.930 . S
C9 O22 1.270 . S
C9 O23 1.248 . S
C10 O24 1.267 . S
C10 O25 1.278 . S
C11 Pr1 2.880 1_545 S
C11 C12 1.491 1_545 S
C11 O26 1.251 . S
C11 O27 1.227 1_545 S
C12 C11 1.491 1_565 S
C12 C13 1.392 . S
C12 C17 1.356 1_565 S
C13 C12 1.392 . S
C13 C14 1.368 . S
C13 H36 0.929 . S
C14 C13 1.368 . S
C14 C15 1.386 . S
C14 H37 0.929 . S
C15 C14 1.386 . S
C15 C16 1.373 1_565 S
C16 C15 1.373 1_545 S
C16 C17 1.409 . S
C16 H38 0.931 . S
C17 C12 1.356 1_545 S
C17 C16 1.409 . S
C17 H39 0.930 . S
C18 O28 1.270 . S
C18 O29 1.248 . S
C19 O30 1.267 . S
C19 O31 1.278 1_545 S
O20 Pr0 2.562 1_565 S
O20 C2 1.254 1_564 S
O21 Pr0 2.490 . S
O21 C2 1.226 1_554 S
O22 Pr0 2.695 . S
O22 Pr1 2.423 1_545 S
O22 C9 1.270 . S
O23 Pr0 2.512 . S
O23 C9 1.248 . S
O24 Pr1 2.436 1_545 S
O24 C10 1.267 . S
O25 Pr0 2.437 . S
O25 C10 1.278 . S
O26 Pr1 2.555 1_545 S
O26 C11 1.251 . S
O27 Pr1 2.497 . S
O27 C11 1.227 1_565 S
O28 Pr0 2.436 1_565 S
O28 Pr1 2.702 . S
O28 C18 1.270 . S
O29 Pr1 2.528 . S
O29 C18 1.248 . S
O30 Pr0 2.438 . S
O30 C19 1.267 . S
O31 Pr1 2.440 . S
O31 C19 1.278 1_565 S
H32 C4 0.929 . S
H33 C5 0.929 . S
H34 C7 0.931 . S
H35 C8 0.930 . S
H36 C13 0.929 . S
H37 C14 0.929 . S
H38 C16 0.931 . S
H39 C17 0.930 . S
Pr40 C42 2.881 1_554 S
Pr40 O60 2.562 . S
Pr40 O61 2.490 . S
Pr40 O62 2.695 . S
Pr40 O63 2.512 . S
Pr40 O65 2.437 . S
Pr40 O68 2.436 . S
Pr40 O70 2.438 . S
Pr41 C51 2.880 . S
Pr41 O62 2.436 . S
Pr41 O64 2.438 . S
Pr41 O66 2.562 . S
Pr41 O67 2.490 . S
Pr41 O68 2.695 . S
Pr41 O69 2.512 . S
Pr41 O71 2.437 . S
C42 Pr40 2.881 1_556 S
C42 C43 1.490 . S
C42 O60 1.254 1_556 S
C42 O61 1.225 1_556 S
C43 C42 1.490 . S
C43 C44 1.392 . S
C43 C48 1.356 . S
C44 C43 1.392 . S
C44 C45 1.368 . S
C44 H72 0.929 . S
C45 C44 1.368 . S
C45 C46 1.386 . S
C45 H73 0.929 . S
C46 C45 1.386 . S
C46 C47 1.373 . S
C47 C46 1.373 . S
C47 C48 1.409 . S
C47 H74 0.931 . S
C48 C43 1.356 . S
C48 C47 1.409 . S
C48 H75 0.930 . S
C49 O62 1.270 . S
C49 O63 1.248 . S
C50 O64 1.267 . S
C50 O65 1.278 . S
C51 Pr41 2.880 . S
C51 C52 1.491 . S
C51 O66 1.254 . S
C51 O67 1.225 . S
C52 C51 1.491 . S
C52 C53 1.392 . S
C52 C57 1.356 . S
C53 C52 1.392 . S
C53 C54 1.364 1_655 S
C53 H76 0.929 . S
C54 C53 1.364 1_455 S
C54 C55 1.381 1_455 S
C54 H77 0.937 . S
C55 C54 1.381 1_655 S
C55 C56 1.373 . S
C56 C55 1.373 . S
C56 C57 1.409 . S
C56 H78 0.931 . S
C57 C52 1.356 . S
C57 C56 1.409 . S
C57 H79 0.930 . S
C58 O68 1.270 . S
C58 O69 1.248 . S
C59 O70 1.267 . S
C59 O71 1.278 . S
O60 Pr40 2.562 . S
O60 C42 1.254 1_554 S
O61 Pr40 2.490 . S
O61 C42 1.225 1_554 S
O62 Pr40 2.695 . S
O62 Pr41 2.436 . S
O62 C49 1.270 . S
O63 Pr40 2.512 . S
O63 C49 1.248 . S
O64 Pr41 2.438 . S
O64 C50 1.267 . S
O65 Pr40 2.437 . S
O65 C50 1.278 . S
O66 Pr41 2.562 . S
O66 C51 1.254 . S
O67 Pr41 2.490 . S
O67 C51 1.225 . S
O68 Pr40 2.436 . S
O68 Pr41 2.695 . S
O68 C58 1.270 . S
O69 Pr41 2.512 . S
O69 C58 1.248 . S
O70 Pr40 2.438 . S
O70 C59 1.267 . S
O71 Pr41 2.437 . S
O71 C59 1.278 . S
H72 C44 0.929 . S
H73 C45 0.929 . S
H74 C47 0.931 . S
H75 C48 0.930 . S
H76 C53 0.929 . S
H77 C54 0.937 . S
H78 C56 0.931 . S
H79 C57 0.930 . S
Pr80 C82 2.880 . S
Pr80 O100 2.562 . S
Pr80 O101 2.490 . S
Pr80 O102 2.695 . S
Pr80 O103 2.512 . S
Pr80 O105 2.437 . S
Pr80 O108 2.436 . S
Pr80 O110 2.438 . S
Pr81 C91 2.880 . S
Pr81 O102 2.436 . S
Pr81 O104 2.438 . S
Pr81 O106 2.562 . S
Pr81 O107 2.490 . S
Pr81 O108 2.695 . S
Pr81 O109 2.512 . S
Pr81 O111 2.437 . S
C82 Pr80 2.880 . S
C82 C83 1.491 . S
C82 O100 1.254 . S
C82 O101 1.225 . S
C83 C82 1.491 . S
C83 C84 1.392 . S
C83 C88 1.356 . S
C84 C83 1.392 . S
C84 C85 1.368 . S
C84 H112 0.929 . S
C85 C84 1.368 . S
C85 C86 1.386 . S
C85 H113 0.929 . S
C86 C85 1.386 . S
C86 C87 1.373 . S
C87 C86 1.373 . S
C87 C88 1.409 . S
C87 H114 0.931 . S
C88 C83 1.356 . S
C88 C87 1.409 . S
C88 H115 0.930 . S
C89 O102 1.270 . S
C89 O103 1.248 . S
C90 O104 1.267 . S
C90 O105 1.278 . S
C91 Pr81 2.880 . S
C91 C92 1.491 . S
C91 O106 1.254 . S
C91 O107 1.225 . S
C92 C91 1.491 . S
C92 C93 1.392 . S
C92 C97 1.356 . S
C93 C92 1.392 . S
C93 C94 1.368 . S
C93 H116 0.929 . S
C94 C93 1.368 . S
C94 C95 1.386 . S
C94 H117 0.929 . S
C95 C94 1.386 . S
C95 C96 1.373 . S
C96 C95 1.373 . S
C96 C97 1.409 . S
C96 H118 0.931 . S
C97 C92 1.356 . S
C97 C96 1.409 . S
C97 H119 0.930 . S
C98 O108 1.270 . S
C98 O109 1.248 . S
C99 O110 1.267 . S
C99 O111 1.278 . S
O100 Pr80 2.562 . S
O100 C82 1.254 . S
O101 Pr80 2.490 . S
O101 C82 1.225 . S
O102 Pr80 2.695 . S
O102 Pr81 2.436 . S
O102 C89 1.270 . S
O103 Pr80 2.512 . S
O103 C89 1.248 . S
O104 Pr81 2.438 . S
O104 C90 1.267 . S
O105 Pr80 2.437 . S
O105 C90 1.278 . S
O106 Pr81 2.562 . S
O106 C91 1.254 . S
O107 Pr81 2.490 . S
O107 C91 1.225 . S
O108 Pr80 2.436 . S
O108 Pr81 2.695 . S
O108 C98 1.270 . S
O109 Pr81 2.512 . S
O109 C98 1.248 . S
O110 Pr80 2.438 . S
O110 C99 1.267 . S
O111 Pr81 2.437 . S
O111 C99 1.278 . S
H112 C84 0.929 . S
H113 C85 0.929 . S
H114 C87 0.931 . S
H115 C88 0.930 . S
H116 C93 0.929 . S
H117 C94 0.929 . S
H118 C96 0.931 . S
H119 C97 0.930 . S
Pr120 C122 2.880 . S
Pr120 O140 2.562 1_545 S
Pr120 O141 2.490 . S
Pr120 O142 2.695 . S
Pr120 O143 2.512 . S
Pr120 O145 2.437 . S
Pr120 O148 2.436 1_545 S
Pr120 O150 2.438 . S
Pr121 C131 2.880 1_565 S
Pr121 O142 2.423 1_565 S
Pr121 O144 2.436 1_565 S
Pr121 O146 2.555 1_565 S
Pr121 O147 2.497 . S
Pr121 O148 2.702 . S
Pr121 O149 2.529 . S
Pr121 O151 2.440 . S
C122 Pr120 2.880 . S
C122 C123 1.491 . S
C122 O140 1.254 1_545 S
C122 O141 1.225 . S
C123 C122 1.491 . S
C123 C124 1.392 . S
C123 C128 1.356 1_545 S
C124 C123 1.392 . S
C124 C125 1.368 . S
C124 H152 0.929 . S
C125 C124 1.368 . S
C125 C126 1.386 . S
C125 H153 0.929 . S
C126 C125 1.386 . S
C126 C127 1.373 1_545 S
C127 C126 1.373 1_565 S
C127 C128 1.409 . S
C127 H154 0.931 . S
C128 C123 1.356 1_565 S
C128 C127 1.409 . S
C128 H155 0.930 . S
C129 O142 1.270 . S
C129 O143 1.248 . S
C130 O144 1.267 . S
C130 O145 1.278 . S
C131 Pr121 2.880 1_545 S
C131 C132 1.491 1_545 S
C131 O146 1.250 . S
C131 O147 1.228 1_545 S
C132 C131 1.491 1_565 S
C132 C133 1.392 . S
C132 C137 1.356 1_565 S
C133 C132 1.392 . S
C133 C134 1.364 1_655 S
C133 H156 0.929 . S
C134 C133 1.364 1_455 S
C134 C135 1.381 1_455 S
C134 H157 0.938 . S
C135 C134 1.381 1_655 S
C135 C136 1.373 1_565 S
C136 C135 1.373 1_545 S
C136 C137 1.409 . S
C136 H158 0.931 . S
C137 C132 1.356 1_545 S
C137 C136 1.409 . S
C137 H159 0.930 . S
C138 O148 1.270 . S
C138 O149 1.248 . S
C139 O150 1.267 . S
C139 O151 1.278 1_545 S
O140 Pr120 2.562 1_565 S
O140 C122 1.254 1_565 S
O141 Pr120 2.490 . S
O141 C122 1.225 . S
O142 Pr120 2.695 . S
O142 Pr121 2.423 1_545 S
O142 C129 1.270 . S
O143 Pr120 2.512 . S
O143 C129 1.248 . S
O144 Pr121 2.436 1_545 S
O144 C130 1.267 . S
O145 Pr120 2.437 . S
O145 C130 1.278 . S
O146 Pr121 2.555 1_545 S
O146 C131 1.250 . S
O147 Pr121 2.497 . S
O147 C131 1.228 1_565 S
O148 Pr120 2.436 1_565 S
O148 Pr121 2.702 . S
O148 C138 1.270 . S
O149 Pr121 2.529 . S
O149 C138 1.248 . S
O150 Pr120 2.438 . S
O150 C139 1.267 . S
O151 Pr121 2.440 . S
O151 C139 1.278 1_565 S
H152 C124 0.929 . S
H153 C125 0.929 . S
H154 C127 0.931 . S
H155 C128 0.930 . S
H156 C133 0.929 . S
H157 C134 0.938 . S
H158 C136 0.931 . S
H159 C137 0.930 . S
Pr160 C162 2.880 1_545 S
Pr160 O180 2.555 1_545 S
Pr160 O181 2.497 . S
Pr160 O182 2.702 . S
Pr160 O183 2.528 . S
Pr160 O185 2.440 . S
Pr160 O188 2.423 1_545 S
Pr160 O190 2.436 1_545 S
Pr161 C171 2.881 1_556 S
Pr161 O182 2.436 1_565 S
Pr161 O184 2.438 . S
Pr161 O186 2.562 1_565 S
Pr161 O187 2.490 . S
Pr161 O188 2.695 . S
Pr161 O189 2.512 . S
Pr161 O191 2.437 . S
C162 Pr160 2.880 1_565 S
C162 C163 1.491 1_565 S
C162 O180 1.251 . S
C162 O181 1.227 1_565 S
C163 C162 1.491 1_545 S
C163 C164 1.392 . S
C163 C168 1.356 1_545 S
C164 C163 1.392 . S
C164 C165 1.368 . S
C164 H192 0.929 . S
C165 C164 1.368 . S
C165 C166 1.386 . S
C165 H193 0.929 . S
C166 C165 1.386 . S
C166 C167 1.373 1_545 S
C167 C166 1.373 1_565 S
C167 C168 1.409 . S
C167 H194 0.931 . S
C168 C163 1.356 1_565 S
C168 C167 1.409 . S
C168 H195 0.930 . S
C169 O182 1.270 . S
C169 O183 1.248 . S
C170 O184 1.267 . S
C170 O185 1.278 1_565 S
C171 Pr161 2.881 1_554 S
C171 C172 1.490 . S
C171 O186 1.254 1_564 S
C171 O187 1.226 1_554 S
C172 C171 1.490 . S
C172 C173 1.392 . S
C172 C177 1.356 1_565 S
C173 C172 1.392 . S
C173 C174 1.368 . S
C173 H196 0.929 . S
C174 C173 1.368 . S
C174 C175 1.386 . S
C174 H197 0.929 . S
C175 C174 1.386 . S
C175 C176 1.373 1_565 S
C176 C175 1.373 1_545 S
C176 C177 1.409 . S
C176 H198 0.931 . S
C177 C172 1.356 1_545 S
C177 C176 1.409 . S
C177 H199 0.930 . S
C178 O188 1.270 . S
C178 O189 1.248 . S
C179 O190 1.267 . S
C179 O191 1.278 . S
O180 Pr160 2.555 1_565 S
O180 C162 1.251 . S
O181 Pr160 2.497 . S
O181 C162 1.227 1_545 S
O182 Pr160 2.702 . S
O182 Pr161 2.436 1_545 S
O182 C169 1.270 . S
O183 Pr160 2.528 . S
O183 C169 1.248 . S
O184 Pr161 2.438 . S
O184 C170 1.267 . S
O185 Pr160 2.440 . S
O185 C170 1.278 1_545 S
O186 Pr161 2.562 1_545 S
O186 C171 1.254 1_546 S
O187 Pr161 2.490 . S
O187 C171 1.226 1_556 S
O188 Pr160 2.423 1_565 S
O188 Pr161 2.695 . S
O188 C178 1.270 . S
O189 Pr161 2.512 . S
O189 C178 1.248 . S
O190 Pr160 2.436 1_565 S
O190 C179 1.267 . S
O191 Pr161 2.437 . S
O191 C179 1.278 . S
H192 C164 0.929 . S
H193 C165 0.929 . S
H194 C167 0.931 . S
H195 C168 0.930 . S
H196 C173 0.929 . S
H197 C174 0.929 . S
H198 C176 0.931 . S
H199 C177 0.930 . S
Pr200 C202 2.880 . S
Pr200 O220 2.562 . S
Pr200 O221 2.490 . S
Pr200 O222 2.695 . S
Pr200 O223 2.512 . S
Pr200 O225 2.437 . S
Pr200 O228 2.436 . S
Pr200 O230 2.438 . S
Pr201 C211 2.881 1_556 S
Pr201 O222 2.436 . S
Pr201 O224 2.438 . S
Pr201 O226 2.562 . S
Pr201 O227 2.490 . S
Pr201 O228 2.695 . S
Pr201 O229 2.512 . S
Pr201 O231 2.437 . S
C202 Pr200 2.880 . S
C202 C203 1.491 . S
C202 O220 1.254 . S
C202 O221 1.225 . S
C203 C202 1.491 . S
C203 C204 1.392 . S
C203 C208 1.356 . S
C204 C203 1.392 . S
C204 C205 1.364 1_455 S
C204 H232 0.929 . S
C205 C204 1.364 1_655 S
C205 C206 1.381 1_655 S
C205 H233 0.937 . S
C206 C205 1.381 1_455 S
C206 C207 1.373 . S
C207 C206 1.373 . S
C207 C208 1.409 . S
C207 H234 0.931 . S
C208 C203 1.356 . S
C208 C207 1.409 . S
C208 H235 0.930 . S
C209 O222 1.270 . S
C209 O223 1.248 . S
C210 O224 1.267 . S
C210 O225 1.278 . S
C211 Pr201 2.881 1_554 S
C211 C212 1.490 . S
C211 O226 1.254 1_554 S
C211 O227 1.225 1_554 S
C212 C211 1.490 . S
C212 C213 1.392 . S
C212 C217 1.356 . S
C213 C212 1.392 . S
C213 C214 1.368 . S
C213 H236 0.929 . S
C214 C213 1.368 . S
C214 C215 1.386 . S
C214 H237 0.929 . S
C215 C214 1.386 . S
C215 C216 1.373 . S
C216 C215 1.373 . S
C216 C217 1.409 . S
C216 H238 0.931 . S
C217 C212 1.356 . S
C217 C216 1.409 . S
C217 H239 0.930 . S
C218 O228 1.270 . S
C218 O229 1.248 . S
C219 O230 1.267 . S
C219 O231 1.278 . S
O220 Pr200 2.562 . S
O220 C202 1.254 . S
O221 Pr200 2.490 . S
O221 C202 1.225 . S
O222 Pr200 2.695 . S
O222 Pr201 2.436 . S
O222 C209 1.270 . S
O223 Pr200 2.512 . S
O223 C209 1.248 . S
O224 Pr201 2.438 . S
O224 C210 1.267 . S
O225 Pr200 2.437 . S
O225 C210 1.278 . S
O226 Pr201 2.562 . S
O226 C211 1.254 1_556 S
O227 Pr201 2.490 . S
O227 C211 1.225 1_556 S
O228 Pr200 2.436 . S
O228 Pr201 2.695 . S
O228 C218 1.270 . S
O229 Pr201 2.512 . S
O229 C218 1.248 . S
O230 Pr200 2.438 . S
O230 C219 1.267 . S
O231 Pr201 2.437 . S
O231 C219 1.278 . S
H232 C204 0.929 . S
H233 C205 0.937 . S
H234 C207 0.931 . S
H235 C208 0.930 . S
H236 C213 0.929 . S
H237 C214 0.929 . S
H238 C216 0.931 . S
H239 C217 0.930 . S
Pr240 C242 2.880 . S
Pr240 O260 2.562 . S
Pr240 O261 2.490 . S
Pr240 O262 2.695 . S
Pr240 O263 2.512 . S
Pr240 O265 2.437 . S
Pr240 O268 2.436 . S
Pr240 O270 2.438 . S
Pr241 C251 2.880 . S
Pr241 O262 2.436 . S
Pr241 O264 2.438 . S
Pr241 O266 2.562 . S
Pr241 O267 2.490 . S
Pr241 O268 2.695 . S
Pr241 O269 2.512 . S
Pr241 O271 2.437 . S
C242 Pr240 2.880 . S
C242 C243 1.491 . S
C242 O260 1.254 . S
C242 O261 1.225 . S
C243 C242 1.491 . S
C243 C244 1.392 . S
C243 C248 1.356 . S
C244 C243 1.392 . S
C244 C245 1.368 . S
C244 H272 0.929 . S
C245 C244 1.368 . S
C245 C246 1.386 . S
C245 H273 0.929 . S
C246 C245 1.386 . S
C246 C247 1.373 . S
C247 C246 1.373 . S
C247 C248 1.409 . S
C247 H274 0.931 . S
C248 C243 1.356 . S
C248 C247 1.409 . S
C248 H275 0.930 . S
C249 O262 1.270 . S
C249 O263 1.248 . S
C250 O264 1.267 . S
C250 O265 1.278 . S
C251 Pr241 2.880 . S
C251 C252 1.491 . S
C251 O266 1.254 . S
C251 O267 1.225 . S
C252 C251 1.491 . S
C252 C253 1.392 . S
C252 C257 1.356 . S
C253 C252 1.392 . S
C253 C254 1.368 . S
C253 H276 0.929 . S
C254 C253 1.368 . S
C254 C255 1.386 . S
C254 H277 0.929 . S
C255 C254 1.386 . S
C255 C256 1.373 . S
C256 C255 1.373 . S
C256 C257 1.409 . S
C256 H278 0.931 . S
C257 C252 1.356 . S
C257 C256 1.409 . S
C257 H279 0.930 . S
C258 O268 1.270 . S
C258 O269 1.248 . S
C259 O270 1.267 . S
C259 O271 1.278 . S
O260 Pr240 2.562 . S
O260 C242 1.254 . S
O261 Pr240 2.490 . S
O261 C242 1.225 . S
O262 Pr240 2.695 . S
O262 Pr241 2.436 . S
O262 C249 1.270 . S
O263 Pr240 2.512 . S
O263 C249 1.248 . S
O264 Pr241 2.438 . S
O264 C250 1.267 . S
O265 Pr240 2.437 . S
O265 C250 1.278 . S
O266 Pr241 2.562 . S
O266 C251 1.254 . S
O267 Pr241 2.490 . S
O267 C251 1.225 . S
O268 Pr240 2.436 . S
O268 Pr241 2.695 . S
O268 C258 1.270 . S
O269 Pr241 2.512 . S
O269 C258 1.248 . S
O270 Pr240 2.438 . S
O270 C259 1.267 . S
O271 Pr241 2.437 . S
O271 C259 1.278 . S
H272 C244 0.929 . S
H273 C245 0.929 . S
H274 C247 0.931 . S
H275 C248 0.930 . S
H276 C253 0.929 . S
H277 C254 0.929 . S
H278 C256 0.931 . S
H279 C257 0.930 . S
Pr280 C282 2.880 1_545 S
Pr280 O300 2.555 1_545 S
Pr280 O301 2.497 . S
Pr280 O302 2.702 . S
Pr280 O303 2.529 . S
Pr280 O305 2.440 . S
Pr280 O308 2.423 1_545 S
Pr280 O310 2.436 1_545 S
Pr281 C291 2.880 . S
Pr281 O302 2.436 1_565 S
Pr281 O304 2.438 . S
Pr281 O306 2.562 1_565 S
Pr281 O307 2.490 . S
Pr281 O308 2.695 . S
Pr281 O309 2.512 . S
Pr281 O311 2.437 . S
C282 Pr280 2.880 1_565 S
C282 C283 1.491 1_565 S
C282 O300 1.250 . S
C282 O301 1.228 1_565 S
C283 C282 1.491 1_545 S
C283 C284 1.392 . S
C283 C288 1.356 1_545 S
C284 C283 1.392 . S
C284 C285 1.364 1_455 S
C284 H312 0.929 . S
C285 C284 1.364 1_655 S
C285 C286 1.381 1_655 S
C285 H313 0.938 . S
C286 C285 1.381 1_455 S
C286 C287 1.373 1_545 S
C287 C286 1.373 1_565 S
C287 C288 1.409 . S
C287 H314 0.931 . S
C288 C283 1.356 1_565 S
C288 C287 1.409 . S
C288 H315 0.930 . S
C289 O302 1.270 . S
C289 O303 1.248 . S
C290 O304 1.267 . S
C290 O305 1.278 1_565 S
C291 Pr281 2.880 . S
C291 C292 1.491 . S
C291 O306 1.254 1_565 S
C291 O307 1.225 . S
C292 C291 1.491 . S
C292 C293 1.392 . S
C292 C297 1.356 1_565 S
C293 C292 1.392 . S
C293 C294 1.368 . S
C293 H316 0.929 . S
C294 C293 1.368 . S
C294 C295 1.386 . S
C294 H317 0.929 . S
C295 C294 1.386 . S
C295 C296 1.373 1_565 S
C296 C295 1.373 1_545 S
C296 C297 1.409 . S
C296 H318 0.931 . S
C297 C292 1.356 1_545 S
C297 C296 1.409 . S
C297 H319 0.930 . S
C298 O308 1.270 . S
C298 O309 1.248 . S
C299 O310 1.267 . S
C299 O311 1.278 . S
O300 Pr280 2.555 1_565 S
O300 C282 1.250 . S
O301 Pr280 2.497 . S
O301 C282 1.228 1_545 S
O302 Pr280 2.702 . S
O302 Pr281 2.436 1_545 S
O302 C289 1.270 . S
O303 Pr280 2.529 . S
O303 C289 1.248 . S
O304 Pr281 2.438 . S
O304 C290 1.267 . S
O305 Pr280 2.440 . S
O305 C290 1.278 1_545 S
O306 Pr281 2.562 1_545 S
O306 C291 1.254 1_545 S
O307 Pr281 2.490 . S
O307 C291 1.225 . S
O308 Pr280 2.423 1_565 S
O308 Pr281 2.695 . S
O308 C298 1.270 . S
O309 Pr281 2.512 . S
O309 C298 1.248 . S
O310 Pr280 2.436 1_565 S
O310 C299 1.267 . S
O311 Pr281 2.437 . S
O311 C299 1.278 . S
H312 C284 0.929 . S
H313 C285 0.938 . S
H314 C287 0.931 . S
H315 C288 0.930 . S
H316 C293 0.929 . S
H317 C294 0.929 . S
H318 C296 0.931 . S
H319 C297 0.930 . S
Pr320 C322 2.880 . S
Pr320 O340 2.562 . S
Pr320 O341 2.490 . S
Pr320 O342 2.695 . S
Pr320 O343 2.512 . S
Pr320 O345 2.437 . S
Pr320 O348 2.436 . S
Pr320 O350 2.438 . S
Pr321 C331 2.880 . S
Pr321 O342 2.436 . S
Pr321 O344 2.438 . S
Pr321 O346 2.562 . S
Pr321 O347 2.490 . S
Pr321 O348 2.695 . S
Pr321 O349 2.512 . S
Pr321 O351 2.437 . S
C322 Pr320 2.880 . S
C322 C323 1.491 . S
C322 O340 1.254 . S
C322 O341 1.225 . S
C323 C322 1.491 . S
C323 C324 1.392 . S
C323 C328 1.356 . S
C324 C323 1.392 . S
C324 C325 1.368 . S
C324 H352 0.929 . S
C325 C324 1.368 . S
C325 C326 1.386 . S
C325 H353 0.929 . S
C326 C325 1.386 . S
C326 C327 1.373 . S
C327 C326 1.373 . S
C327 C328 1.409 . S
C327 H354 0.931 . S
C328 C323 1.356 . S
C328 C327 1.409 . S
C328 H355 0.930 . S
C329 O342 1.270 . S
C329 O343 1.248 . S
C330 O344 1.267 . S
C330 O345 1.278 . S
C331 Pr321 2.880 . S
C331 C332 1.491 . S
C331 O346 1.254 . S
C331 O347 1.225 . S
C332 C331 1.491 . S
C332 C333 1.392 . S
C332 C337 1.356 . S
C333 C332 1.392 . S
C333 C334 1.368 . S
C333 H356 0.929 . S
C334 C333 1.368 . S
C334 C335 1.386 . S
C334 H357 0.929 . S
C335 C334 1.386 . S
C335 C336 1.373 . S
C336 C335 1.373 . S
C336 C337 1.409 . S
C336 H358 0.931 . S
C337 C332 1.356 . S
C337 C336 1.409 . S
C337 H359 0.930 . S
C338 O348 1.270 . S
C338 O349 1.248 . S
C339 O350 1.267 . S
C339 O351 1.278 . S
O340 Pr320 2.562 . S
O340 C322 1.254 . S
O341 Pr320 2.490 . S
O341 C322 1.225 . S
O342 Pr320 2.695 . S
O342 Pr321 2.436 . S
O342 C329 1.270 . S
O343 Pr320 2.512 . S
O343 C329 1.248 . S
O344 Pr321 2.438 . S
O344 C330 1.267 . S
O345 Pr320 2.437 . S
O345 C330 1.278 . S
O346 Pr321 2.562 . S
O346 C331 1.254 . S
O347 Pr321 2.490 . S
O347 C331 1.225 . S
O348 Pr320 2.436 . S
O348 Pr321 2.695 . S
O348 C338 1.270 . S
O349 Pr321 2.512 . S
O349 C338 1.248 . S
O350 Pr320 2.438 . S
O350 C339 1.267 . S
O351 Pr321 2.437 . S
O351 C339 1.278 . S
H352 C324 0.929 . S
H353 C325 0.929 . S
H354 C327 0.931 . S
H355 C328 0.930 . S
H356 C333 0.929 . S
H357 C334 0.929 . S
H358 C336 0.931 . S
H359 C337 0.930 . S
Pr360 C362 2.880 . S
Pr360 O380 2.562 . S
Pr360 O381 2.490 . S
Pr360 O382 2.695 . S
Pr360 O383 2.512 . S
Pr360 O385 2.437 . S
Pr360 O388 2.436 . S
Pr360 O390 2.438 . S
Pr361 C371 2.880 . S
Pr361 O382 2.436 . S
Pr361 O384 2.438 . S
Pr361 O386 2.562 . S
Pr361 O387 2.490 . S
Pr361 O388 2.695 . S
Pr361 O389 2.512 . S
Pr361 O391 2.437 . S
C362 Pr360 2.880 . S
C362 C363 1.491 . S
C362 O380 1.254 . S
C362 O381 1.225 . S
C363 C362 1.491 . S
C363 C364 1.392 . S
C363 C368 1.356 . S
C364 C363 1.392 . S
C364 C365 1.368 . S
C364 H392 0.929 . S
C365 C364 1.368 . S
C365 C366 1.386 . S
C365 H393 0.929 . S
C366 C365 1.386 . S
C366 C367 1.373 . S
C367 C366 1.373 . S
C367 C368 1.409 . S
C367 H394 0.931 . S
C368 C363 1.356 . S
C368 C367 1.409 . S
C368 H395 0.930 . S
C369 O382 1.270 . S
C369 O383 1.248 . S
C370 O384 1.267 . S
C370 O385 1.278 . S
C371 Pr361 2.880 . S
C371 C372 1.491 . S
C371 O386 1.254 . S
C371 O387 1.225 . S
C372 C371 1.491 . S
C372 C373 1.392 . S
C372 C377 1.356 . S
C373 C372 1.392 . S
C373 C374 1.365 1_655 S
C373 H396 0.929 . S
C374 C373 1.365 1_455 S
C374 C375 1.382 1_455 S
C374 H397 0.936 . S
C375 C374 1.382 1_655 S
C375 C376 1.373 . S
C376 C375 1.373 . S
C376 C377 1.409 . S
C376 H398 0.931 . S
C377 C372 1.356 . S
C377 C376 1.409 . S
C377 H399 0.930 . S
C378 O388 1.270 . S
C378 O389 1.248 . S
C379 O390 1.267 . S
C379 O391 1.278 . S
O380 Pr360 2.562 . S
O380 C362 1.254 . S
O381 Pr360 2.490 . S
O381 C362 1.225 . S
O382 Pr360 2.695 . S
O382 Pr361 2.436 . S
O382 C369 1.270 . S
O383 Pr360 2.512 . S
O383 C369 1.248 . S
O384 Pr361 2.438 . S
O384 C370 1.267 . S
O385 Pr360 2.437 . S
O385 C370 1.278 . S
O386 Pr361 2.562 . S
O386 C371 1.254 . S
O387 Pr361 2.490 . S
O387 C371 1.225 . S
O388 Pr360 2.436 . S
O388 Pr361 2.695 . S
O388 C378 1.270 . S
O389 Pr361 2.512 . S
O389 C378 1.248 . S
O390 Pr360 2.438 . S
O390 C379 1.267 . S
O391 Pr361 2.437 . S
O391 C379 1.278 . S
H392 C364 0.929 . S
H393 C365 0.929 . S
H394 C367 0.931 . S
H395 C368 0.930 . S
H396 C373 0.929 . S
H397 C374 0.936 . S
H398 C376 0.931 . S
H399 C377 0.930 . S
Pr400 C402 2.880 . S
Pr400 O420 2.562 . S
Pr400 O421 2.490 . S
Pr400 O422 2.695 . S
Pr400 O423 2.512 . S
Pr400 O425 2.437 . S
Pr400 O428 2.436 . S
Pr400 O430 2.438 . S
Pr401 C411 2.880 . S
Pr401 O422 2.436 . S
Pr401 O424 2.438 . S
Pr401 O426 2.562 . S
Pr401 O427 2.490 . S
Pr401 O428 2.695 . S
Pr401 O429 2.512 . S
Pr401 O431 2.437 . S
C402 Pr400 2.880 . S
C402 C403 1.491 . S
C402 O420 1.254 . S
C402 O421 1.225 . S
C403 C402 1.491 . S
C403 C404 1.392 . S
C403 C408 1.356 . S
C404 C403 1.392 . S
C404 C405 1.368 . S
C404 H432 0.929 . S
C405 C404 1.368 . S
C405 C406 1.386 . S
C405 H433 0.929 . S
C406 C405 1.386 . S
C406 C407 1.373 . S
C407 C406 1.373 . S
C407 C408 1.409 . S
C407 H434 0.931 . S
C408 C403 1.356 . S
C408 C407 1.409 . S
C408 H435 0.930 . S
C409 O422 1.270 . S
C409 O423 1.248 . S
C410 O424 1.267 . S
C410 O425 1.278 . S
C411 Pr401 2.880 . S
C411 C412 1.491 . S
C411 O426 1.254 . S
C411 O427 1.225 . S
C412 C411 1.491 . S
C412 C413 1.392 . S
C412 C417 1.356 . S
C413 C412 1.392 . S
C413 C414 1.368 . S
C413 H436 0.929 . S
C414 C413 1.368 . S
C414 C415 1.386 . S
C414 H437 0.929 . S
C415 C414 1.386 . S
C415 C416 1.373 . S
C416 C415 1.373 . S
C416 C417 1.409 . S
C416 H438 0.931 . S
C417 C412 1.356 . S
C417 C416 1.409 . S
C417 H439 0.930 . S
C418 O428 1.270 . S
C418 O429 1.248 . S
C419 O430 1.267 . S
C419 O431 1.278 . S
O420 Pr400 2.562 . S
O420 C402 1.254 . S
O421 Pr400 2.490 . S
O421 C402 1.225 . S
O422 Pr400 2.695 . S
O422 Pr401 2.436 . S
O422 C409 1.270 . S
O423 Pr400 2.512 . S
O423 C409 1.248 . S
O424 Pr401 2.438 . S
O424 C410 1.267 . S
O425 Pr400 2.437 . S
O425 C410 1.278 . S
O426 Pr401 2.562 . S
O426 C411 1.254 . S
O427 Pr401 2.490 . S
O427 C411 1.225 . S
O428 Pr400 2.436 . S
O428 Pr401 2.695 . S
O428 C418 1.270 . S
O429 Pr401 2.512 . S
O429 C418 1.248 . S
O430 Pr400 2.438 . S
O430 C419 1.267 . S
O431 Pr401 2.437 . S
O431 C419 1.278 . S
H432 C404 0.929 . S
H433 C405 0.929 . S
H434 C407 0.931 . S
H435 C408 0.930 . S
H436 C413 0.929 . S
H437 C414 0.929 . S
H438 C416 0.931 . S
H439 C417 0.930 . S
Pr440 C442 2.880 . S
Pr440 O460 2.562 . S
Pr440 O461 2.490 . S
Pr440 O462 2.695 . S
Pr440 O463 2.512 . S
Pr440 O465 2.437 . S
Pr440 O468 2.436 . S
Pr440 O470 2.438 . S
Pr441 C451 2.880 . S
Pr441 O462 2.436 . S
Pr441 O464 2.438 . S
Pr441 O466 2.562 . S
Pr441 O467 2.490 . S
Pr441 O468 2.695 . S
Pr441 O469 2.512 . S
Pr441 O471 2.437 . S
C442 Pr440 2.880 . S
C442 C443 1.491 . S
C442 O460 1.254 . S
C442 O461 1.225 . S
C443 C442 1.491 . S
C443 C444 1.392 . S
C443 C448 1.356 . S
C444 C443 1.392 . S
C444 C445 1.368 . S
C444 H472 0.929 . S
C445 C444 1.368 . S
C445 C446 1.386 . S
C445 H473 0.929 . S
C446 C445 1.386 . S
C446 C447 1.373 . S
C447 C446 1.373 . S
C447 C448 1.409 . S
C447 H474 0.931 . S
C448 C443 1.356 . S
C448 C447 1.409 . S
C448 H475 0.930 . S
C449 O462 1.270 . S
C449 O463 1.248 . S
C450 O464 1.267 . S
C450 O465 1.278 . S
C451 Pr441 2.880 . S
C451 C452 1.491 . S
C451 O466 1.254 . S
C451 O467 1.225 . S
C452 C451 1.491 . S
C452 C453 1.392 . S
C452 C457 1.356 . S
C453 C452 1.392 . S
C453 C454 1.364 1_655 S
C453 H476 0.929 . S
C454 C453 1.364 1_455 S
C454 C455 1.381 1_455 S
C454 H477 0.937 . S
C455 C454 1.381 1_655 S
C455 C456 1.373 . S
C456 C455 1.373 . S
C456 C457 1.409 . S
C456 H478 0.931 . S
C457 C452 1.356 . S
C457 C456 1.409 . S
C457 H479 0.930 . S
C458 O468 1.270 . S
C458 O469 1.248 . S
C459 O470 1.267 . S
C459 O471 1.278 . S
O460 Pr440 2.562 . S
O460 C442 1.254 . S
O461 Pr440 2.490 . S
O461 C442 1.225 . S
O462 Pr440 2.695 . S
O462 Pr441 2.436 . S
O462 C449 1.270 . S
O463 Pr440 2.512 . S
O463 C449 1.248 . S
O464 Pr441 2.438 . S
O464 C450 1.267 . S
O465 Pr440 2.437 . S
O465 C450 1.278 . S
O466 Pr441 2.562 . S
O466 C451 1.254 . S
O467 Pr441 2.490 . S
O467 C451 1.225 . S
O468 Pr440 2.436 . S
O468 Pr441 2.695 . S
O468 C458 1.270 . S
O469 Pr441 2.512 . S
O469 C458 1.248 . S
O470 Pr440 2.438 . S
O470 C459 1.267 . S
O471 Pr441 2.437 . S
O471 C459 1.278 . S
H472 C444 0.929 . S
H473 C445 0.929 . S
H474 C447 0.931 . S
H475 C448 0.930 . S
H476 C453 0.929 . S
H477 C454 0.937 . S
H478 C456 0.931 . S
H479 C457 0.930 . S
Pr480 C482 2.880 . S
Pr480 O500 2.562 . S
Pr480 O501 2.490 . S
Pr480 O502 2.695 . S
Pr480 O503 2.512 . S
Pr480 O505 2.437 . S
Pr480 O508 2.436 . S
Pr480 O510 2.438 . S
Pr481 C491 2.880 . S
Pr481 O502 2.436 . S
Pr481 O504 2.438 . S
Pr481 O506 2.562 . S
Pr481 O507 2.490 . S
Pr481 O508 2.695 . S
Pr481 O509 2.512 . S
Pr481 O511 2.437 . S
C482 Pr480 2.880 . S
C482 C483 1.491 . S
C482 O500 1.254 . S
C482 O501 1.225 . S
C483 C482 1.491 . S
C483 C484 1.392 . S
C483 C488 1.356 . S
C484 C483 1.392 . S
C484 C485 1.368 . S
C484 H512 0.929 . S
C485 C484 1.368 . S
C485 C486 1.386 . S
C485 H513 0.929 . S
C486 C485 1.386 . S
C486 C487 1.373 . S
C487 C486 1.373 . S
C487 C488 1.409 . S
C487 H514 0.931 . S
C488 C483 1.356 . S
C488 C487 1.409 . S
C488 H515 0.930 . S
C489 O502 1.270 . S
C489 O503 1.248 . S
C490 O504 1.267 . S
C490 O505 1.278 . S
C491 Pr481 2.880 . S
C491 C492 1.491 . S
C491 O506 1.254 . S
C491 O507 1.225 . S
C492 C491 1.491 . S
C492 C493 1.392 . S
C492 C497 1.356 . S
C493 C492 1.392 . S
C493 C494 1.368 . S
C493 H516 0.929 . S
C494 C493 1.368 . S
C494 C495 1.386 . S
C494 H517 0.929 . S
C495 C494 1.386 . S
C495 C496 1.373 . S
C496 C495 1.373 . S
C496 C497 1.409 . S
C496 H518 0.931 . S
C497 C492 1.356 . S
C497 C496 1.409 . S
C497 H519 0.930 . S
C498 O508 1.270 . S
C498 O509 1.248 . S
C499 O510 1.267 . S
C499 O511 1.278 . S
O500 Pr480 2.562 . S
O500 C482 1.254 . S
O501 Pr480 2.490 . S
O501 C482 1.225 . S
O502 Pr480 2.695 . S
O502 Pr481 2.436 . S
O502 C489 1.270 . S
O503 Pr480 2.512 . S
O503 C489 1.248 . S
O504 Pr481 2.438 . S
O504 C490 1.267 . S
O505 Pr480 2.437 . S
O505 C490 1.278 . S
O506 Pr481 2.562 . S
O506 C491 1.254 . S
O507 Pr481 2.490 . S
O507 C491 1.225 . S
O508 Pr480 2.436 . S
O508 Pr481 2.695 . S
O508 C498 1.270 . S
O509 Pr481 2.512 . S
O509 C498 1.248 . S
O510 Pr480 2.438 . S
O510 C499 1.267 . S
O511 Pr481 2.437 . S
O511 C499 1.278 . S
H512 C484 0.929 . S
H513 C485 0.929 . S
H514 C487 0.931 . S
H515 C488 0.930 . S
H516 C493 0.929 . S
H517 C494 0.929 . S
H518 C496 0.931 . S
H519 C497 0.930 . S
Pr520 C522 2.880 . S
Pr520 O540 2.562 . S
Pr520 O541 2.490 . S
Pr520 O542 2.695 . S
Pr520 O543 2.512 . S
Pr520 O545 2.437 . S
Pr520 O548 2.436 . S
Pr520 O550 2.438 . S
Pr521 C531 2.880 . S
Pr521 O542 2.436 . S
Pr521 O544 2.438 . S
Pr521 O546 2.562 . S
Pr521 O547 2.490 . S
Pr521 O548 2.695 . S
Pr521 O549 2.512 . S
Pr521 O551 2.437 . S
C522 Pr520 2.880 . S
C522 C523 1.491 . S
C522 O540 1.254 . S
C522 O541 1.225 . S
C523 C522 1.491 . S
C523 C524 1.392 . S
C523 C528 1.356 . S
C524 C523 1.392 . S
C524 C525 1.365 1_455 S
C524 H552 0.929 . S
C525 C524 1.365 1_655 S
C525 C526 1.382 1_655 S
C525 H553 0.936 . S
C526 C525 1.382 1_455 S
C526 C527 1.373 . S
C527 C526 1.373 . S
C527 C528 1.409 . S
C527 H554 0.931 . S
C528 C523 1.356 . S
C528 C527 1.409 . S
C528 H555 0.930 . S
C529 O542 1.270 . S
C529 O543 1.248 . S
C530 O544 1.267 . S
C530 O545 1.278 . S
C531 Pr521 2.880 . S
C531 C532 1.491 . S
C531 O546 1.254 . S
C531 O547 1.225 . S
C532 C531 1.491 . S
C532 C533 1.392 . S
C532 C537 1.356 . S
C533 C532 1.392 . S
C533 C534 1.368 . S
C533 H556 0.929 . S
C534 C533 1.368 . S
C534 C535 1.386 . S
C534 H557 0.929 . S
C535 C534 1.386 . S
C535 C536 1.373 . S
C536 C535 1.373 . S
C536 C537 1.409 . S
C536 H558 0.931 . S
C537 C532 1.356 . S
C537 C536 1.409 . S
C537 H559 0.930 . S
C538 O548 1.270 . S
C538 O549 1.248 . S
C539 O550 1.267 . S
C539 O551 1.278 . S
O540 Pr520 2.562 . S
O540 C522 1.254 . S
O541 Pr520 2.490 . S
O541 C522 1.225 . S
O542 Pr520 2.695 . S
O542 Pr521 2.436 . S
O542 C529 1.270 . S
O543 Pr520 2.512 . S
O543 C529 1.248 . S
O544 Pr521 2.438 . S
O544 C530 1.267 . S
O545 Pr520 2.437 . S
O545 C530 1.278 . S
O546 Pr521 2.562 . S
O546 C531 1.254 . S
O547 Pr521 2.490 . S
O547 C531 1.225 . S
O548 Pr520 2.436 . S
O548 Pr521 2.695 . S
O548 C538 1.270 . S
O549 Pr521 2.512 . S
O549 C538 1.248 . S
O550 Pr520 2.438 . S
O550 C539 1.267 . S
O551 Pr521 2.437 . S
O551 C539 1.278 . S
H552 C524 0.929 . S
H553 C525 0.936 . S
H554 C527 0.931 . S
H555 C528 0.930 . S
H556 C533 0.929 . S
H557 C534 0.929 . S
H558 C536 0.931 . S
H559 C537 0.930 . S
Pr560 C562 2.880 . S
Pr560 O580 2.562 . S
Pr560 O581 2.490 . S
Pr560 O582 2.695 . S
Pr560 O583 2.512 . S
Pr560 O585 2.437 . S
Pr560 O588 2.436 . S
Pr560 O590 2.438 . S
Pr561 C571 2.880 . S
Pr561 O582 2.436 . S
Pr561 O584 2.438 . S
Pr561 O586 2.562 . S
Pr561 O587 2.490 . S
Pr561 O588 2.695 . S
Pr561 O589 2.512 . S
Pr561 O591 2.437 . S
C562 Pr560 2.880 . S
C562 C563 1.491 . S
C562 O580 1.254 . S
C562 O581 1.225 . S
C563 C562 1.491 . S
C563 C564 1.392 . S
C563 C568 1.356 . S
C564 C563 1.392 . S
C564 C565 1.368 . S
C564 H592 0.929 . S
C565 C564 1.368 . S
C565 C566 1.386 . S
C565 H593 0.929 . S
C566 C565 1.386 . S
C566 C567 1.373 . S
C567 C566 1.373 . S
C567 C568 1.409 . S
C567 H594 0.931 . S
C568 C563 1.356 . S
C568 C567 1.409 . S
C568 H595 0.930 . S
C569 O582 1.270 . S
C569 O583 1.248 . S
C570 O584 1.267 . S
C570 O585 1.278 . S
C571 Pr561 2.880 . S
C571 C572 1.491 . S
C571 O586 1.254 . S
C571 O587 1.225 . S
C572 C571 1.491 . S
C572 C573 1.392 . S
C572 C577 1.356 . S
C573 C572 1.392 . S
C573 C574 1.368 . S
C573 H596 0.929 . S
C574 C573 1.368 . S
C574 C575 1.386 . S
C574 H597 0.929 . S
C575 C574 1.386 . S
C575 C576 1.373 . S
C576 C575 1.373 . S
C576 C577 1.409 . S
C576 H598 0.931 . S
C577 C572 1.356 . S
C577 C576 1.409 . S
C577 H599 0.930 . S
C578 O588 1.270 . S
C578 O589 1.248 . S
C579 O590 1.267 . S
C579 O591 1.278 . S
O580 Pr560 2.562 . S
O580 C562 1.254 . S
O581 Pr560 2.490 . S
O581 C562 1.225 . S
O582 Pr560 2.695 . S
O582 Pr561 2.436 . S
O582 C569 1.270 . S
O583 Pr560 2.512 . S
O583 C569 1.248 . S
O584 Pr561 2.438 . S
O584 C570 1.267 . S
O585 Pr560 2.437 . S
O585 C570 1.278 . S
O586 Pr561 2.562 . S
O586 C571 1.254 . S
O587 Pr561 2.490 . S
O587 C571 1.225 . S
O588 Pr560 2.436 . S
O588 Pr561 2.695 . S
O588 C578 1.270 . S
O589 Pr561 2.512 . S
O589 C578 1.248 . S
O590 Pr560 2.438 . S
O590 C579 1.267 . S
O591 Pr561 2.437 . S
O591 C579 1.278 . S
H592 C564 0.929 . S
H593 C565 0.929 . S
H594 C567 0.931 . S
H595 C568 0.930 . S
H596 C573 0.929 . S
H597 C574 0.929 . S
H598 C576 0.931 . S
H599 C577 0.930 . S
Pr600 C602 2.880 . S
Pr600 O620 2.562 . S
Pr600 O621 2.490 . S
Pr600 O622 2.695 . S
Pr600 O623 2.512 . S
Pr600 O625 2.437 . S
Pr600 O628 2.436 . S
Pr600 O630 2.438 . S
Pr601 C611 2.880 . S
Pr601 O622 2.436 . S
Pr601 O624 2.438 . S
Pr601 O626 2.562 . S
Pr601 O627 2.490 . S
Pr601 O628 2.695 . S
Pr601 O629 2.512 . S
Pr601 O631 2.437 . S
C602 Pr600 2.880 . S
C602 C603 1.491 . S
C602 O620 1.254 . S
C602 O621 1.225 . S
C603 C602 1.491 . S
C603 C604 1.392 . S
C603 C608 1.356 . S
C604 C603 1.392 . S
C604 C605 1.364 1_455 S
C604 H632 0.929 . S
C605 C604 1.364 1_655 S
C605 C606 1.381 1_655 S
C605 H633 0.937 . S
C606 C605 1.381 1_455 S
C606 C607 1.373 . S
C607 C606 1.373 . S
C607 C608 1.409 . S
C607 H634 0.931 . S
C608 C603 1.356 . S
C608 C607 1.409 . S
C608 H635 0.930 . S
C609 O622 1.270 . S
C609 O623 1.248 . S
C610 O624 1.267 . S
C610 O625 1.278 . S
C611 Pr601 2.880 . S
C611 C612 1.491 . S
C611 O626 1.254 . S
C611 O627 1.225 . S
C612 C611 1.491 . S
C612 C613 1.392 . S
C612 C617 1.356 . S
C613 C612 1.392 . S
C613 C614 1.368 . S
C613 H636 0.929 . S
C614 C613 1.368 . S
C614 C615 1.386 . S
C614 H637 0.929 . S
C615 C614 1.386 . S
C615 C616 1.373 . S
C616 C615 1.373 . S
C616 C617 1.409 . S
C616 H638 0.931 . S
C617 C612 1.356 . S
C617 C616 1.409 . S
C617 H639 0.930 . S
C618 O628 1.270 . S
C618 O629 1.248 . S
C619 O630 1.267 . S
C619 O631 1.278 . S
O620 Pr600 2.562 . S
O620 C602 1.254 . S
O621 Pr600 2.490 . S
O621 C602 1.225 . S
O622 Pr600 2.695 . S
O622 Pr601 2.436 . S
O622 C609 1.270 . S
O623 Pr600 2.512 . S
O623 C609 1.248 . S
O624 Pr601 2.438 . S
O624 C610 1.267 . S
O625 Pr600 2.437 . S
O625 C610 1.278 . S
O626 Pr601 2.562 . S
O626 C611 1.254 . S
O627 Pr601 2.490 . S
O627 C611 1.225 . S
O628 Pr600 2.436 . S
O628 Pr601 2.695 . S
O628 C618 1.270 . S
O629 Pr601 2.512 . S
O629 C618 1.248 . S
O630 Pr600 2.438 . S
O630 C619 1.267 . S
O631 Pr601 2.437 . S
O631 C619 1.278 . S
H632 C604 0.929 . S
H633 C605 0.937 . S
H634 C607 0.931 . S
H635 C608 0.930 . S
H636 C613 0.929 . S
H637 C614 0.929 . S
H638 C616 0.931 . S
H639 C617 0.930 . S
Pr640 C642 2.880 . S
Pr640 O660 2.562 1_545 S
Pr640 O661 2.490 . S
Pr640 O662 2.695 . S
Pr640 O663 2.512 . S
Pr640 O665 2.437 . S
Pr640 O668 2.436 1_545 S
Pr640 O670 2.438 . S
Pr641 C651 2.880 . S
Pr641 O662 2.421 1_565 S
Pr641 O664 2.435 1_565 S
Pr641 O666 2.554 1_565 S
Pr641 O667 2.497 . S
Pr641 O668 2.703 . S
Pr641 O669 2.531 . S
Pr641 O671 2.440 . S
C642 Pr640 2.880 . S
C642 C643 1.491 . S
C642 O660 1.254 1_545 S
C642 O661 1.225 . S
C643 C642 1.491 . S
C643 C644 1.392 . S
C643 C648 1.356 1_545 S
C644 C643 1.392 . S
C644 C645 1.368 1_655 S
C644 H672 0.929 . S
C645 C644 1.368 1_455 S
C645 C646 1.386 1_455 S
C645 H673 0.929 . S
C646 C645 1.386 1_655 S
C646 C647 1.373 1_545 S
C647 C646 1.373 1_565 S
C647 C648 1.409 . S
C647 H674 0.931 . S
C648 C643 1.356 1_565 S
C648 C647 1.409 . S
C648 H675 0.930 . S
C649 O662 1.270 . S
C649 O663 1.248 . S
C650 O664 1.267 . S
C650 O665 1.278 . S
C651 Pr641 2.880 . S
C651 C652 1.491 . S
C651 O666 1.256 1_565 S
C651 O667 1.223 . S
C652 C651 1.491 . S
C652 C653 1.392 . S
C652 C657 1.356 1_565 S
C653 C652 1.392 . S
C653 C654 1.368 . S
C653 H676 0.929 . S
C654 C653 1.368 . S
C654 C655 1.386 . S
C654 H677 0.929 . S
C655 C654 1.386 . S
C655 C656 1.373 1_565 S
C656 C655 1.373 1_545 S
C656 C657 1.409 . S
C656 H678 0.931 . S
C657 C652 1.356 1_545 S
C657 C656 1.409 . S
C657 H679 0.930 . S
C658 O668 1.270 . S
C658 O669 1.248 . S
C659 O670 1.267 . S
C659 O671 1.278 1_545 S
O660 Pr640 2.562 1_565 S
O660 C642 1.254 1_565 S
O661 Pr640 2.490 . S
O661 C642 1.225 . S
O662 Pr640 2.695 . S
O662 Pr641 2.421 1_545 S
O662 C649 1.270 . S
O663 Pr640 2.512 . S
O663 C649 1.248 . S
O664 Pr641 2.435 1_545 S
O664 C650 1.267 . S
O665 Pr640 2.437 . S
O665 C650 1.278 . S
O666 Pr641 2.554 1_545 S
O666 C651 1.256 1_545 S
O667 Pr641 2.497 . S
O667 C651 1.223 . S
O668 Pr640 2.436 1_565 S
O668 Pr641 2.703 . S
O668 C658 1.270 . S
O669 Pr641 2.531 . S
O669 C658 1.248 . S
O670 Pr640 2.438 . S
O670 C659 1.267 . S
O671 Pr641 2.440 . S
O671 C659 1.278 1_565 S
H672 C644 0.929 . S
H673 C645 0.929 . S
H674 C647 0.931 . S
H675 C648 0.930 . S
H676 C653 0.929 . S
H677 C654 0.929 . S
H678 C656 0.931 . S
H679 C657 0.930 . S
Pr680 C682 2.880 . S
Pr680 O700 2.562 . S
Pr680 O701 2.490 . S
Pr680 O702 2.695 . S
Pr680 O703 2.512 . S
Pr680 O705 2.437 . S
Pr680 O708 2.436 . S
Pr680 O710 2.438 . S
Pr681 C691 2.880 . S
Pr681 O702 2.436 . S
Pr681 O704 2.438 . S
Pr681 O706 2.562 . S
Pr681 O707 2.490 . S
Pr681 O708 2.695 . S
Pr681 O709 2.512 . S
Pr681 O711 2.437 . S
C682 Pr680 2.880 . S
C682 C683 1.491 . S
C682 O700 1.254 . S
C682 O701 1.225 . S
C683 C682 1.491 . S
C683 C684 1.392 . S
C683 C688 1.356 . S
C684 C683 1.392 . S
C684 C685 1.368 . S
C684 H712 0.929 . S
C685 C684 1.368 . S
C685 C686 1.386 . S
C685 H713 0.929 . S
C686 C685 1.386 . S
C686 C687 1.373 . S
C687 C686 1.373 . S
C687 C688 1.409 . S
C687 H714 0.931 . S
C688 C683 1.356 . S
C688 C687 1.409 . S
C688 H715 0.930 . S
C689 O702 1.270 . S
C689 O703 1.248 . S
C690 O704 1.267 . S
C690 O705 1.278 . S
C691 Pr681 2.880 . S
C691 C692 1.491 . S
C691 O706 1.254 . S
C691 O707 1.225 . S
C692 C691 1.491 . S
C692 C693 1.392 . S
C692 C697 1.356 . S
C693 C692 1.392 . S
C693 C694 1.368 . S
C693 H716 0.929 . S
C694 C693 1.368 . S
C694 C695 1.386 . S
C694 H717 0.929 . S
C695 C694 1.386 . S
C695 C696 1.373 . S
C696 C695 1.373 . S
C696 C697 1.409 . S
C696 H718 0.931 . S
C697 C692 1.356 . S
C697 C696 1.409 . S
C697 H719 0.930 . S
C698 O708 1.270 . S
C698 O709 1.248 . S
C699 O710 1.267 . S
C699 O711 1.278 . S
O700 Pr680 2.562 . S
O700 C682 1.254 . S
O701 Pr680 2.490 . S
O701 C682 1.225 . S
O702 Pr680 2.695 . S
O702 Pr681 2.436 . S
O702 C689 1.270 . S
O703 Pr680 2.512 . S
O703 C689 1.248 . S
O704 Pr681 2.438 . S
O704 C690 1.267 . S
O705 Pr680 2.437 . S
O705 C690 1.278 . S
O706 Pr681 2.562 . S
O706 C691 1.254 . S
O707 Pr681 2.490 . S
O707 C691 1.225 . S
O708 Pr680 2.436 . S
O708 Pr681 2.695 . S
O708 C698 1.270 . S
O709 Pr681 2.512 . S
O709 C698 1.248 . S
O710 Pr680 2.438 . S
O710 C699 1.267 . S
O711 Pr681 2.437 . S
O711 C699 1.278 . S
H712 C684 0.929 . S
H713 C685 0.929 . S
H714 C687 0.931 . S
H715 C688 0.930 . S
H716 C693 0.929 . S
H717 C694 0.929 . S
H718 C696 0.931 . S
H719 C697 0.930 . S
Pr720 C722 2.880 . S
Pr720 O740 2.562 . S
Pr720 O741 2.490 . S
Pr720 O742 2.695 . S
Pr720 O743 2.512 . S
Pr720 O745 2.437 . S
Pr720 O748 2.436 . S
Pr720 O750 2.438 . S
Pr721 C731 2.880 . S
Pr721 O742 2.436 . S
Pr721 O744 2.438 . S
Pr721 O746 2.562 . S
Pr721 O747 2.490 . S
Pr721 O748 2.695 . S
Pr721 O749 2.512 . S
Pr721 O751 2.437 . S
C722 Pr720 2.880 . S
C722 C723 1.491 . S
C722 O740 1.254 . S
C722 O741 1.225 . S
C723 C722 1.491 . S
C723 C724 1.392 . S
C723 C728 1.356 . S
C724 C723 1.392 . S
C724 C725 1.368 1_655 S
C724 H752 0.929 . S
C725 C724 1.368 1_455 S
C725 C726 1.386 1_455 S
C725 H753 0.929 . S
C726 C725 1.386 1_655 S
C726 C727 1.373 . S
C727 C726 1.373 . S
C727 C728 1.409 . S
C727 H754 0.931 . S
C728 C723 1.356 . S
C728 C727 1.409 . S
C728 H755 0.930 . S
C729 O742 1.270 . S
C729 O743 1.248 . S
C730 O744 1.267 . S
C730 O745 1.278 . S
C731 Pr721 2.880 . S
C731 C732 1.491 . S
C731 O746 1.254 . S
C731 O747 1.225 . S
C732 C731 1.491 . S
C732 C733 1.392 . S
C732 C737 1.356 . S
C733 C732 1.392 . S
C733 C734 1.368 . S
C733 H756 0.929 . S
C734 C733 1.368 . S
C734 C735 1.386 . S
C734 H757 0.929 . S
C735 C734 1.386 . S
C735 C736 1.373 . S
C736 C735 1.373 . S
C736 C737 1.409 . S
C736 H758 0.931 . S
C737 C732 1.356 . S
C737 C736 1.409 . S
C737 H759 0.930 . S
C738 O748 1.270 . S
C738 O749 1.248 . S
C739 O750 1.267 . S
C739 O751 1.278 . S
O740 Pr720 2.562 . S
O740 C722 1.254 . S
O741 Pr720 2.490 . S
O741 C722 1.225 . S
O742 Pr720 2.695 . S
O742 Pr721 2.436 . S
O742 C729 1.270 . S
O743 Pr720 2.512 . S
O743 C729 1.248 . S
O744 Pr721 2.438 . S
O744 C730 1.267 . S
O745 Pr720 2.437 . S
O745 C730 1.278 . S
O746 Pr721 2.562 . S
O746 C731 1.254 . S
O747 Pr721 2.490 . S
O747 C731 1.225 . S
O748 Pr720 2.436 . S
O748 Pr721 2.695 . S
O748 C738 1.270 . S
O749 Pr721 2.512 . S
O749 C738 1.248 . S
O750 Pr720 2.438 . S
O750 C739 1.267 . S
O751 Pr721 2.437 . S
O751 C739 1.278 . S
H752 C724 0.929 . S
H753 C725 0.929 . S
H754 C727 0.931 . S
H755 C728 0.930 . S
H756 C733 0.929 . S
H757 C734 0.929 . S
H758 C736 0.931 . S
H759 C737 0.930 . S
Pr760 C762 2.880 . S
Pr760 O780 2.562 1_545 S
Pr760 O781 2.490 . S
Pr760 O782 2.695 . S
Pr760 O783 2.512 . S
Pr760 O785 2.437 . S
Pr760 O788 2.436 1_545 S
Pr760 O790 2.438 . S
Pr761 C771 2.880 . S
Pr761 O782 2.422 1_565 S
Pr761 O784 2.436 1_565 S
Pr761 O786 2.555 1_565 S
Pr761 O787 2.497 . S
Pr761 O788 2.703 . S
Pr761 O789 2.530 . S
Pr761 O791 2.440 . S
C762 Pr760 2.880 . S
C762 C763 1.491 . S
C762 O780 1.254 1_545 S
C762 O781 1.225 . S
C763 C762 1.491 . S
C763 C764 1.392 . S
C763 C768 1.356 1_545 S
C764 C763 1.392 . S
C764 C765 1.368 . S
C764 H792 0.929 . S
C765 C764 1.368 . S
C765 C766 1.386 . S
C765 H793 0.929 . S
C766 C765 1.386 . S
C766 C767 1.373 1_545 S
C767 C766 1.373 1_565 S
C767 C768 1.409 . S
C767 H794 0.931 . S
C768 C763 1.356 1_565 S
C768 C767 1.409 . S
C768 H795 0.930 . S
C769 O782 1.270 . S
C769 O783 1.248 . S
C770 O784 1.267 . S
C770 O785 1.278 . S
C771 Pr761 2.880 . S
C771 C772 1.491 . S
C771 O786 1.257 1_565 S
C771 O787 1.222 . S
C772 C771 1.491 . S
C772 C773 1.392 . S
C772 C777 1.356 1_565 S
C773 C772 1.392 . S
C773 C774 1.368 . S
C773 H796 0.929 . S
C774 C773 1.368 . S
C774 C775 1.386 . S
C774 H797 0.929 . S
C775 C774 1.386 . S
C775 C776 1.373 1_565 S
C776 C775 1.373 1_545 S
C776 C777 1.409 . S
C776 H798 0.931 . S
C777 C772 1.356 1_545 S
C777 C776 1.409 . S
C777 H799 0.930 . S
C778 O788 1.270 . S
C778 O789 1.248 . S
C779 O790 1.267 . S
C779 O791 1.278 1_545 S
O780 Pr760 2.562 1_565 S
O780 C762 1.254 1_565 S
O781 Pr760 2.490 . S
O781 C762 1.225 . S
O782 Pr760 2.695 . S
O782 Pr761 2.422 1_545 S
O782 C769 1.270 . S
O783 Pr760 2.512 . S
O783 C769 1.248 . S
O784 Pr761 2.436 1_545 S
O784 C770 1.267 . S
O785 Pr760 2.437 . S
O785 C770 1.278 . S
O786 Pr761 2.555 1_545 S
O786 C771 1.257 1_545 S
O787 Pr761 2.497 . S
O787 C771 1.222 . S
O788 Pr760 2.436 1_565 S
O788 Pr761 2.703 . S
O788 C778 1.270 . S
O789 Pr761 2.530 . S
O789 C778 1.248 . S
O790 Pr760 2.438 . S
O790 C779 1.267 . S
O791 Pr761 2.440 . S
O791 C779 1.278 1_565 S
H792 C764 0.929 . S
H793 C765 0.929 . S
H794 C767 0.931 . S
H795 C768 0.930 . S
H796 C773 0.929 . S
H797 C774 0.929 . S
H798 C776 0.931 . S
H799 C777 0.930 . S
Pr800 C802 2.880 . S
Pr800 O820 2.554 1_545 S
Pr800 O821 2.497 . S
Pr800 O822 2.703 . S
Pr800 O823 2.531 . S
Pr800 O825 2.440 . S
Pr800 O828 2.421 1_545 S
Pr800 O830 2.435 1_545 S
Pr801 C811 2.880 . S
Pr801 O822 2.436 1_565 S
Pr801 O824 2.438 . S
Pr801 O826 2.562 1_565 S
Pr801 O827 2.490 . S
Pr801 O828 2.695 . S
Pr801 O829 2.512 . S
Pr801 O831 2.437 . S
C802 Pr800 2.880 . S
C802 C803 1.491 . S
C802 O820 1.256 1_545 S
C802 O821 1.223 . S
C803 C802 1.491 . S
C803 C804 1.392 . S
C803 C808 1.356 1_545 S
C804 C803 1.392 . S
C804 C805 1.368 . S
C804 H832 0.929 . S
C805 C804 1.368 . S
C805 C806 1.386 . S
C805 H833 0.929 . S
C806 C805 1.386 . S
C806 C807 1.373 1_545 S
C807 C806 1.373 1_565 S
C807 C808 1.409 . S
C807 H834 0.931 . S
C808 C803 1.356 1_565 S
C808 C807 1.409 . S
C808 H835 0.930 . S
C809 O822 1.270 . S
C809 O823 1.248 . S
C810 O824 1.267 . S
C810 O825 1.278 1_565 S
C811 Pr801 2.880 . S
C811 C812 1.491 . S
C811 O826 1.254 1_565 S
C811 O827 1.225 . S
C812 C811 1.491 . S
C812 C813 1.392 . S
C812 C817 1.356 1_565 S
C813 C812 1.392 . S
C813 C814 1.368 1_455 S
C813 H836 0.929 . S
C814 C813 1.368 1_655 S
C814 C815 1.386 1_655 S
C814 H837 0.929 . S
C815 C814 1.386 1_455 S
C815 C816 1.373 1_565 S
C816 C815 1.373 1_545 S
C816 C817 1.409 . S
C816 H838 0.931 . S
C817 C812 1.356 1_545 S
C817 C816 1.409 . S
C817 H839 0.930 . S
C818 O828 1.270 . S
C818 O829 1.248 . S
C819 O830 1.267 . S
C819 O831 1.278 . S
O820 Pr800 2.554 1_565 S
O820 C802 1.256 1_565 S
O821 Pr800 2.497 . S
O821 C802 1.223 . S
O822 Pr800 2.703 . S
O822 Pr801 2.436 1_545 S
O822 C809 1.270 . S
O823 Pr800 2.531 . S
O823 C809 1.248 . S
O824 Pr801 2.438 . S
O824 C810 1.267 . S
O825 Pr800 2.440 . S
O825 C810 1.278 1_545 S
O826 Pr801 2.562 1_545 S
O826 C811 1.254 1_545 S
O827 Pr801 2.490 . S
O827 C811 1.225 . S
O828 Pr800 2.421 1_565 S
O828 Pr801 2.695 . S
O828 C818 1.270 . S
O829 Pr801 2.512 . S
O829 C818 1.248 . S
O830 Pr800 2.435 1_565 S
O830 C819 1.267 . S
O831 Pr801 2.437 . S
O831 C819 1.278 . S
H832 C804 0.929 . S
H833 C805 0.929 . S
H834 C807 0.931 . S
H835 C808 0.930 . S
H836 C813 0.929 . S
H837 C814 0.929 . S
H838 C816 0.931 . S
H839 C817 0.930 . S
Pr840 C842 2.880 . S
Pr840 O860 2.562 . S
Pr840 O861 2.490 . S
Pr840 O862 2.695 . S
Pr840 O863 2.512 . S
Pr840 O865 2.437 . S
Pr840 O868 2.436 . S
Pr840 O870 2.438 . S
Pr841 C851 2.880 . S
Pr841 O862 2.436 . S
Pr841 O864 2.438 . S
Pr841 O866 2.562 . S
Pr841 O867 2.490 . S
Pr841 O868 2.695 . S
Pr841 O869 2.512 . S
Pr841 O871 2.437 . S
C842 Pr840 2.880 . S
C842 C843 1.491 . S
C842 O860 1.254 . S
C842 O861 1.225 . S
C843 C842 1.491 . S
C843 C844 1.392 . S
C843 C848 1.356 . S
C844 C843 1.392 . S
C844 C845 1.368 . S
C844 H872 0.929 . S
C845 C844 1.368 . S
C845 C846 1.386 . S
C845 H873 0.929 . S
C846 C845 1.386 . S
C846 C847 1.373 . S
C847 C846 1.373 . S
C847 C848 1.409 . S
C847 H874 0.931 . S
C848 C843 1.356 . S
C848 C847 1.409 . S
C848 H875 0.930 . S
C849 O862 1.270 . S
C849 O863 1.248 . S
C850 O864 1.267 . S
C850 O865 1.278 . S
C851 Pr841 2.880 . S
C851 C852 1.491 . S
C851 O866 1.254 . S
C851 O867 1.225 . S
C852 C851 1.491 . S
C852 C853 1.392 . S
C852 C857 1.356 . S
C853 C852 1.392 . S
C853 C854 1.368 . S
C853 H876 0.929 . S
C854 C853 1.368 . S
C854 C855 1.386 . S
C854 H877 0.929 . S
C855 C854 1.386 . S
C855 C856 1.373 . S
C856 C855 1.373 . S
C856 C857 1.409 . S
C856 H878 0.931 . S
C857 C852 1.356 . S
C857 C856 1.409 . S
C857 H879 0.930 . S
C858 O868 1.270 . S
C858 O869 1.248 . S
C859 O870 1.267 . S
C859 O871 1.278 . S
O860 Pr840 2.562 . S
O860 C842 1.254 . S
O861 Pr840 2.490 . S
O861 C842 1.225 . S
O862 Pr840 2.695 . S
O862 Pr841 2.436 . S
O862 C849 1.270 . S
O863 Pr840 2.512 . S
O863 C849 1.248 . S
O864 Pr841 2.438 . S
O864 C850 1.267 . S
O865 Pr840 2.437 . S
O865 C850 1.278 . S
O866 Pr841 2.562 . S
O866 C851 1.254 . S
O867 Pr841 2.490 . S
O867 C851 1.225 . S
O868 Pr840 2.436 . S
O868 Pr841 2.695 . S
O868 C858 1.270 . S
O869 Pr841 2.512 . S
O869 C858 1.248 . S
O870 Pr840 2.438 . S
O870 C859 1.267 . S
O871 Pr841 2.437 . S
O871 C859 1.278 . S
H872 C844 0.929 . S
H873 C845 0.929 . S
H874 C847 0.931 . S
H875 C848 0.930 . S
H876 C853 0.929 . S
H877 C854 0.929 . S
H878 C856 0.931 . S
H879 C857 0.930 . S
Pr880 C882 2.880 . S
Pr880 O900 2.562 . S
Pr880 O901 2.490 . S
Pr880 O902 2.695 . S
Pr880 O903 2.512 . S
Pr880 O905 2.437 . S
Pr880 O908 2.436 . S
Pr880 O910 2.438 . S
Pr881 C891 2.880 . S
Pr881 O902 2.436 . S
Pr881 O904 2.438 . S
Pr881 O906 2.562 . S
Pr881 O907 2.490 . S
Pr881 O908 2.695 . S
Pr881 O909 2.512 . S
Pr881 O911 2.437 . S
C882 Pr880 2.880 . S
C882 C883 1.491 . S
C882 O900 1.254 . S
C882 O901 1.225 . S
C883 C882 1.491 . S
C883 C884 1.392 . S
C883 C888 1.356 . S
C884 C883 1.392 . S
C884 C885 1.368 . S
C884 H912 0.929 . S
C885 C884 1.368 . S
C885 C886 1.386 . S
C885 H913 0.929 . S
C886 C885 1.386 . S
C886 C887 1.373 . S
C887 C886 1.373 . S
C887 C888 1.409 . S
C887 H914 0.931 . S
C888 C883 1.356 . S
C888 C887 1.409 . S
C888 H915 0.930 . S
C889 O902 1.270 . S
C889 O903 1.248 . S
C890 O904 1.267 . S
C890 O905 1.278 . S
C891 Pr881 2.880 . S
C891 C892 1.491 . S
C891 O906 1.254 . S
C891 O907 1.225 . S
C892 C891 1.491 . S
C892 C893 1.392 . S
C892 C897 1.356 . S
C893 C892 1.392 . S
C893 C894 1.368 1_455 S
C893 H916 0.929 . S
C894 C893 1.368 1_655 S
C894 C895 1.386 1_655 S
C894 H917 0.929 . S
C895 C894 1.386 1_455 S
C895 C896 1.373 . S
C896 C895 1.373 . S
C896 C897 1.409 . S
C896 H918 0.931 . S
C897 C892 1.356 . S
C897 C896 1.409 . S
C897 H919 0.930 . S
C898 O908 1.270 . S
C898 O909 1.248 . S
C899 O910 1.267 . S
C899 O911 1.278 . S
O900 Pr880 2.562 . S
O900 C882 1.254 . S
O901 Pr880 2.490 . S
O901 C882 1.225 . S
O902 Pr880 2.695 . S
O902 Pr881 2.436 . S
O902 C889 1.270 . S
O903 Pr880 2.512 . S
O903 C889 1.248 . S
O904 Pr881 2.438 . S
O904 C890 1.267 . S
O905 Pr880 2.437 . S
O905 C890 1.278 . S
O906 Pr881 2.562 . S
O906 C891 1.254 . S
O907 Pr881 2.490 . S
O907 C891 1.225 . S
O908 Pr880 2.436 . S
O908 Pr881 2.695 . S
O908 C898 1.270 . S
O909 Pr881 2.512 . S
O909 C898 1.248 . S
O910 Pr880 2.438 . S
O910 C899 1.267 . S
O911 Pr881 2.437 . S
O911 C899 1.278 . S
H912 C884 0.929 . S
H913 C885 0.929 . S
H914 C887 0.931 . S
H915 C888 0.930 . S
H916 C893 0.929 . S
H917 C894 0.929 . S
H918 C896 0.931 . S
H919 C897 0.930 . S
Pr920 C922 2.880 . S
Pr920 O940 2.555 1_545 S
Pr920 O941 2.497 . S
Pr920 O942 2.703 . S
Pr920 O943 2.530 . S
Pr920 O945 2.440 . S
Pr920 O948 2.422 1_545 S
Pr920 O950 2.436 1_545 S
Pr921 C931 2.880 . S
Pr921 O942 2.436 1_565 S
Pr921 O944 2.438 . S
Pr921 O946 2.562 1_565 S
Pr921 O947 2.490 . S
Pr921 O948 2.695 . S
Pr921 O949 2.512 . S
Pr921 O951 2.437 . S
C922 Pr920 2.880 . S
C922 C923 1.491 . S
C922 O940 1.257 1_545 S
C922 O941 1.222 . S
C923 C922 1.491 . S
C923 C924 1.392 . S
C923 C928 1.356 1_545 S
C924 C923 1.392 . S
C924 C925 1.368 . S
C924 H952 0.929 . S
C925 C924 1.368 . S
C925 C926 1.386 . S
C925 H953 0.929 . S
C926 C925 1.386 . S
C926 C927 1.373 1_545 S
C927 C926 1.373 1_565 S
C927 C928 1.409 . S
C927 H954 0.931 . S
C928 C923 1.356 1_565 S
C928 C927 1.409 . S
C928 H955 0.930 . S
C929 O942 1.270 . S
C929 O943 1.248 . S
C930 O944 1.267 . S
C930 O945 1.278 1_565 S
C931 Pr921 2.880 . S
C931 C932 1.491 . S
C931 O946 1.254 1_565 S
C931 O947 1.225 . S
C932 C931 1.491 . S
C932 C933 1.392 . S
C932 C937 1.356 1_565 S
C933 C932 1.392 . S
C933 C934 1.368 . S
C933 H956 0.929 . S
C934 C933 1.368 . S
C934 C935 1.386 . S
C934 H957 0.929 . S
C935 C934 1.386 . S
C935 C936 1.373 1_565 S
C936 C935 1.373 1_545 S
C936 C937 1.409 . S
C936 H958 0.931 . S
C937 C932 1.356 1_545 S
C937 C936 1.409 . S
C937 H959 0.930 . S
C938 O948 1.270 . S
C938 O949 1.248 . S
C939 O950 1.267 . S
C939 O951 1.278 . S
O940 Pr920 2.555 1_565 S
O940 C922 1.257 1_565 S
O941 Pr920 2.497 . S
O941 C922 1.222 . S
O942 Pr920 2.703 . S
O942 Pr921 2.436 1_545 S
O942 C929 1.270 . S
O943 Pr920 2.530 . S
O943 C929 1.248 . S
O944 Pr921 2.438 . S
O944 C930 1.267 . S
O945 Pr920 2.440 . S
O945 C930 1.278 1_545 S
O946 Pr921 2.562 1_545 S
O946 C931 1.254 1_545 S
O947 Pr921 2.490 . S
O947 C931 1.225 . S
O948 Pr920 2.422 1_565 S
O948 Pr921 2.695 . S
O948 C938 1.270 . S
O949 Pr921 2.512 . S
O949 C938 1.248 . S
O950 Pr920 2.436 1_565 S
O950 C939 1.267 . S
O951 Pr921 2.437 . S
O951 C939 1.278 . S
H952 C924 0.929 . S
H953 C925 0.929 . S
H954 C927 0.931 . S
H955 C928 0.930 . S
H956 C933 0.929 . S
H957 C934 0.929 . S
H958 C936 0.931 . S
H959 C937 0.930 . S
Pr960 C962 2.881 1_554 S
Pr960 O980 2.562 . S
Pr960 O981 2.490 . S
Pr960 O982 2.695 . S
Pr960 O983 2.512 . S
Pr960 O985 2.437 . S
Pr960 O988 2.436 . S
Pr960 O990 2.438 . S
Pr961 C971 2.880 . S
Pr961 O982 2.436 . S
Pr961 O984 2.438 . S
Pr961 O986 2.562 . S
Pr961 O987 2.490 . S
Pr961 O988 2.695 . S
Pr961 O989 2.512 . S
Pr961 O991 2.437 . S
C962 Pr960 2.881 1_556 S
C962 C963 1.490 . S
C962 O980 1.254 1_556 S
C962 O981 1.226 1_556 S
C963 C962 1.490 . S
C963 C964 1.392 . S
C963 C968 1.356 . S
C964 C963 1.392 . S
C964 C965 1.368 1_655 S
C964 H992 0.929 . S
C965 C964 1.368 1_455 S
C965 C966 1.386 1_455 S
C965 H993 0.929 . S
C966 C965 1.386 1_655 S
C966 C967 1.373 . S
C967 C966 1.373 . S
C967 C968 1.409 . S
C967 H994 0.931 . S
C968 C963 1.356 . S
C968 C967 1.409 . S
C968 H995 0.930 . S
C969 O982 1.270 . S
C969 O983 1.248 . S
C970 O984 1.267 . S
C970 O985 1.278 . S
C971 Pr961 2.880 . S
C971 C972 1.491 . S
C971 O986 1.254 . S
C971 O987 1.225 . S
C972 C971 1.491 . S
C972 C973 1.392 . S
C972 C977 1.356 . S
C973 C972 1.392 . S
C973 C974 1.368 . S
C973 H996 0.929 . S
C974 C973 1.368 . S
C974 C975 1.386 . S
C974 H997 0.929 . S
C975 C974 1.386 . S
C975 C976 1.373 . S
C976 C975 1.373 . S
C976 C977 1.409 . S
C976 H998 0.931 . S
C977 C972 1.356 . S
C977 C976 1.409 . S
C977 H999 0.930 . S
C978 O988 1.270 . S
C978 O989 1.248 . S
C979 O990 1.267 . S
C979 O991 1.278 . S
O980 Pr960 2.562 . S
O980 C962 1.254 1_554 S
O981 Pr960 2.490 . S
O981 C962 1.226 1_554 S
O982 Pr960 2.695 . S
O982 Pr961 2.436 . S
O982 C969 1.270 . S
O983 Pr960 2.512 . S
O983 C969 1.248 . S
O984 Pr961 2.438 . S
O984 C970 1.267 . S
O985 Pr960 2.437 . S
O985 C970 1.278 . S
O986 Pr961 2.562 . S
O986 C971 1.254 . S
O987 Pr961 2.490 . S
O987 C971 1.225 . S
O988 Pr960 2.436 . S
O988 Pr961 2.695 . S
O988 C978 1.270 . S
O989 Pr961 2.512 . S
O989 C978 1.248 . S
O990 Pr960 2.438 . S
O990 C979 1.267 . S
O991 Pr961 2.437 . S
O991 C979 1.278 . S
H992 C964 0.929 . S
H993 C965 0.929 . S
H994 C967 0.931 . S
H995 C968 0.930 . S
H996 C973 0.929 . S
H997 C974 0.929 . S
H998 C976 0.931 . S
H999 C977 0.930 . S
Pr1000 C1002 2.880 1_554 S
Pr1000 O1020 2.562 . S
Pr1000 O1021 2.490 . S
Pr1000 O1022 2.695 . S
Pr1000 O1023 2.512 . S
Pr1000 O1025 2.437 . S
Pr1000 O1028 2.436 . S
Pr1000 O1030 2.438 . S
Pr1001 C1011 2.880 . S
Pr1001 O1022 2.436 . S
Pr1001 O1024 2.438 . S
Pr1001 O1026 2.562 . S
Pr1001 O1027 2.490 . S
Pr1001 O1028 2.695 . S
Pr1001 O1029 2.512 . S
Pr1001 O1031 2.437 . S
C1002 Pr1000 2.880 1_556 S
C1002 C1003 1.491 . S
C1002 O1020 1.254 1_556 S
C1002 O1021 1.225 1_556 S
C1003 C1002 1.491 . S
C1003 C1004 1.392 . S
C1003 C1008 1.356 . S
C1004 C1003 1.392 . S
C1004 C1005 1.368 . S
C1004 H1032 0.929 . S
C1005 C1004 1.368 . S
C1005 C1006 1.386 . S
C1005 H1033 0.929 . S
C1006 C1005 1.386 . S
C1006 C1007 1.373 . S
C1007 C1006 1.373 . S
C1007 C1008 1.409 . S
C1007 H1034 0.931 . S
C1008 C1003 1.356 . S
C1008 C1007 1.409 . S
C1008 H1035 0.930 . S
C1009 O1022 1.270 . S
C1009 O1023 1.248 . S
C1010 O1024 1.267 . S
C1010 O1025 1.278 . S
C1011 Pr1001 2.880 . S
C1011 C1012 1.491 . S
C1011 O1026 1.254 . S
C1011 O1027 1.225 . S
C1012 C1011 1.491 . S
C1012 C1013 1.392 . S
C1012 C1017 1.356 . S
C1013 C1012 1.392 . S
C1013 C1014 1.368 . S
C1013 H1036 0.929 . S
C1014 C1013 1.368 . S
C1014 C1015 1.386 . S
C1014 H1037 0.929 . S
C1015 C1014 1.386 . S
C1015 C1016 1.373 . S
C1016 C1015 1.373 . S
C1016 C1017 1.409 . S
C1016 H1038 0.931 . S
C1017 C1012 1.356 . S
C1017 C1016 1.409 . S
C1017 H1039 0.930 . S
C1018 O1028 1.270 . S
C1018 O1029 1.248 . S
C1019 O1030 1.267 . S
C1019 O1031 1.278 . S
O1020 Pr1000 2.562 . S
O1020 C1002 1.254 1_554 S
O1021 Pr1000 2.490 . S
O1021 C1002 1.225 1_554 S
O1022 Pr1000 2.695 . S
O1022 Pr1001 2.436 . S
O1022 C1009 1.270 . S
O1023 Pr1000 2.512 . S
O1023 C1009 1.248 . S
O1024 Pr1001 2.438 . S
O1024 C1010 1.267 . S
O1025 Pr1000 2.437 . S
O1025 C1010 1.278 . S
O1026 Pr1001 2.562 . S
O1026 C1011 1.254 . S
O1027 Pr1001 2.490 . S
O1027 C1011 1.225 . S
O1028 Pr1000 2.436 . S
O1028 Pr1001 2.695 . S
O1028 C1018 1.270 . S
O1029 Pr1001 2.512 . S
O1029 C1018 1.248 . S
O1030 Pr1000 2.438 . S
O1030 C1019 1.267 . S
O1031 Pr1001 2.437 . S
O1031 C1019 1.278 . S
H1032 C1004 0.929 . S
H1033 C1005 0.929 . S
H1034 C1007 0.931 . S
H1035 C1008 0.930 . S
H1036 C1013 0.929 . S
H1037 C1014 0.929 . S
H1038 C1016 0.931 . S
H1039 C1017 0.930 . S
Pr1040 C1042 2.880 . S
Pr1040 O1060 2.562 . S
Pr1040 O1061 2.490 . S
Pr1040 O1062 2.695 . S
Pr1040 O1063 2.512 . S
Pr1040 O1065 2.437 . S
Pr1040 O1068 2.436 . S
Pr1040 O1070 2.438 . S
Pr1041 C1051 2.880 . S
Pr1041 O1062 2.436 . S
Pr1041 O1064 2.438 . S
Pr1041 O1066 2.562 . S
Pr1041 O1067 2.490 . S
Pr1041 O1068 2.695 . S
Pr1041 O1069 2.512 . S
Pr1041 O1071 2.437 . S
C1042 Pr1040 2.880 . S
C1042 C1043 1.491 . S
C1042 O1060 1.254 . S
C1042 O1061 1.225 . S
C1043 C1042 1.491 . S
C1043 C1044 1.392 . S
C1043 C1048 1.356 . S
C1044 C1043 1.392 . S
C1044 C1045 1.368 1_655 S
C1044 H1072 0.929 . S
C1045 C1044 1.368 1_455 S
C1045 C1046 1.386 1_455 S
C1045 H1073 0.929 . S
C1046 C1045 1.386 1_655 S
C1046 C1047 1.373 . S
C1047 C1046 1.373 . S
C1047 C1048 1.409 . S
C1047 H1074 0.931 . S
C1048 C1043 1.356 . S
C1048 C1047 1.409 . S
C1048 H1075 0.930 . S
C1049 O1062 1.270 . S
C1049 O1063 1.248 . S
C1050 O1064 1.267 . S
C1050 O1065 1.278 . S
C1051 Pr1041 2.880 . S
C1051 C1052 1.491 . S
C1051 O1066 1.254 . S
C1051 O1067 1.225 . S
C1052 C1051 1.491 . S
C1052 C1053 1.392 . S
C1052 C1057 1.356 . S
C1053 C1052 1.392 . S
C1053 C1054 1.368 . S
C1053 H1076 0.929 . S
C1054 C1053 1.368 . S
C1054 C1055 1.386 . S
C1054 H1077 0.929 . S
C1055 C1054 1.386 . S
C1055 C1056 1.373 . S
C1056 C1055 1.373 . S
C1056 C1057 1.409 . S
C1056 H1078 0.931 . S
C1057 C1052 1.356 . S
C1057 C1056 1.409 . S
C1057 H1079 0.930 . S
C1058 O1068 1.270 . S
C1058 O1069 1.248 . S
C1059 O1070 1.267 . S
C1059 O1071 1.278 . S
O1060 Pr1040 2.562 . S
O1060 C1042 1.254 . S
O1061 Pr1040 2.490 . S
O1061 C1042 1.225 . S
O1062 Pr1040 2.695 . S
O1062 Pr1041 2.436 . S
O1062 C1049 1.270 . S
O1063 Pr1040 2.512 . S
O1063 C1049 1.248 . S
O1064 Pr1041 2.438 . S
O1064 C1050 1.267 . S
O1065 Pr1040 2.437 . S
O1065 C1050 1.278 . S
O1066 Pr1041 2.562 . S
O1066 C1051 1.254 . S
O1067 Pr1041 2.490 . S
O1067 C1051 1.225 . S
O1068 Pr1040 2.436 . S
O1068 Pr1041 2.695 . S
O1068 C1058 1.270 . S
O1069 Pr1041 2.512 . S
O1069 C1058 1.248 . S
O1070 Pr1040 2.438 . S
O1070 C1059 1.267 . S
O1071 Pr1041 2.437 . S
O1071 C1059 1.278 . S
H1072 C1044 0.929 . S
H1073 C1045 0.929 . S
H1074 C1047 0.931 . S
H1075 C1048 0.930 . S
H1076 C1053 0.929 . S
H1077 C1054 0.929 . S
H1078 C1056 0.931 . S
H1079 C1057 0.930 . S
Pr1080 C1082 2.880 . S
Pr1080 O1100 2.562 . S
Pr1080 O1101 2.490 . S
Pr1080 O1102 2.695 . S
Pr1080 O1103 2.512 . S
Pr1080 O1105 2.437 . S
Pr1080 O1108 2.436 . S
Pr1080 O1110 2.438 . S
Pr1081 C1091 2.880 . S
Pr1081 O1102 2.436 . S
Pr1081 O1104 2.438 . S
Pr1081 O1106 2.562 . S
Pr1081 O1107 2.490 . S
Pr1081 O1108 2.695 . S
Pr1081 O1109 2.512 . S
Pr1081 O1111 2.437 . S
C1082 Pr1080 2.880 . S
C1082 C1083 1.491 . S
C1082 O1100 1.254 . S
C1082 O1101 1.225 . S
C1083 C1082 1.491 . S
C1083 C1084 1.392 . S
C1083 C1088 1.356 . S
C1084 C1083 1.392 . S
C1084 C1085 1.368 . S
C1084 H1112 0.929 . S
C1085 C1084 1.368 . S
C1085 C1086 1.386 . S
C1085 H1113 0.929 . S
C1086 C1085 1.386 . S
C1086 C1087 1.373 . S
C1087 C1086 1.373 . S
C1087 C1088 1.409 . S
C1087 H1114 0.931 . S
C1088 C1083 1.356 . S
C1088 C1087 1.409 . S
C1088 H1115 0.930 . S
C1089 O1102 1.270 . S
C1089 O1103 1.248 . S
C1090 O1104 1.267 . S
C1090 O1105 1.278 . S
C1091 Pr1081 2.880 . S
C1091 C1092 1.491 . S
C1091 O1106 1.254 . S
C1091 O1107 1.225 . S
C1092 C1091 1.491 . S
C1092 C1093 1.392 . S
C1092 C1097 1.356 . S
C1093 C1092 1.392 . S
C1093 C1094 1.368 . S
C1093 H1116 0.929 . S
C1094 C1093 1.368 . S
C1094 C1095 1.386 . S
C1094 H1117 0.929 . S
C1095 C1094 1.386 . S
C1095 C1096 1.373 . S
C1096 C1095 1.373 . S
C1096 C1097 1.409 . S
C1096 H1118 0.931 . S
C1097 C1092 1.356 . S
C1097 C1096 1.409 . S
C1097 H1119 0.930 . S
C1098 O1108 1.270 . S
C1098 O1109 1.248 . S
C1099 O1110 1.267 . S
C1099 O1111 1.278 . S
O1100 Pr1080 2.562 . S
O1100 C1082 1.254 . S
O1101 Pr1080 2.490 . S
O1101 C1082 1.225 . S
O1102 Pr1080 2.695 . S
O1102 Pr1081 2.436 . S
O1102 C1089 1.270 . S
O1103 Pr1080 2.512 . S
O1103 C1089 1.248 . S
O1104 Pr1081 2.438 . S
O1104 C1090 1.267 . S
O1105 Pr1080 2.437 . S
O1105 C1090 1.278 . S
O1106 Pr1081 2.562 . S
O1106 C1091 1.254 . S
O1107 Pr1081 2.490 . S
O1107 C1091 1.225 . S
O1108 Pr1080 2.436 . S
O1108 Pr1081 2.695 . S
O1108 C1098 1.270 . S
O1109 Pr1081 2.512 . S
O1109 C1098 1.248 . S
O1110 Pr1080 2.438 . S
O1110 C1099 1.267 . S
O1111 Pr1081 2.437 . S
O1111 C1099 1.278 . S
H1112 C1084 0.929 . S
H1113 C1085 0.929 . S
H1114 C1087 0.931 . S
H1115 C1088 0.930 . S
H1116 C1093 0.929 . S
H1117 C1094 0.929 . S
H1118 C1096 0.931 . S
H1119 C1097 0.930 . S
Pr1120 C1122 2.880 . S
Pr1120 O1140 2.562 . S
Pr1120 O1141 2.490 . S
Pr1120 O1142 2.695 . S
Pr1120 O1143 2.512 . S
Pr1120 O1145 2.437 . S
Pr1120 O1148 2.436 . S
Pr1120 O1150 2.438 . S
Pr1121 C1131 2.881 1_556 S
Pr1121 O1142 2.436 . S
Pr1121 O1144 2.438 . S
Pr1121 O1146 2.562 . S
Pr1121 O1147 2.490 . S
Pr1121 O1148 2.695 . S
Pr1121 O1149 2.512 . S
Pr1121 O1151 2.437 . S
C1122 Pr1120 2.880 . S
C1122 C1123 1.491 . S
C1122 O1140 1.254 . S
C1122 O1141 1.225 . S
C1123 C1122 1.491 . S
C1123 C1124 1.392 . S
C1123 C1128 1.356 . S
C1124 C1123 1.392 . S
C1124 C1125 1.368 . S
C1124 H1152 0.929 . S
C1125 C1124 1.368 . S
C1125 C1126 1.386 . S
C1125 H1153 0.929 . S
C1126 C1125 1.386 . S
C1126 C1127 1.373 . S
C1127 C1126 1.373 . S
C1127 C1128 1.409 . S
C1127 H1154 0.931 . S
C1128 C1123 1.356 . S
C1128 C1127 1.409 . S
C1128 H1155 0.930 . S
C1129 O1142 1.270 . S
C1129 O1143 1.248 . S
C1130 O1144 1.267 . S
C1130 O1145 1.278 . S
C1131 Pr1121 2.881 1_554 S
C1131 C1132 1.490 . S
C1131 O1146 1.254 1_554 S
C1131 O1147 1.226 1_554 S
C1132 C1131 1.490 . S
C1132 C1133 1.392 . S
C1132 C1137 1.356 . S
C1133 C1132 1.392 . S
C1133 C1134 1.368 1_455 S
C1133 H1156 0.929 . S
C1134 C1133 1.368 1_655 S
C1134 C1135 1.386 1_655 S
C1134 H1157 0.929 . S
C1135 C1134 1.386 1_455 S
C1135 C1136 1.373 . S
C1136 C1135 1.373 . S
C1136 C1137 1.409 . S
C1136 H1158 0.931 . S
C1137 C1132 1.356 . S
C1137 C1136 1.409 . S
C1137 H1159 0.930 . S
C1138 O1148 1.270 . S
C1138 O1149 1.248 . S
C1139 O1150 1.267 . S
C1139 O1151 1.278 . S
O1140 Pr1120 2.562 . S
O1140 C1122 1.254 . S
O1141 Pr1120 2.490 . S
O1141 C1122 1.225 . S
O1142 Pr1120 2.695 . S
O1142 Pr1121 2.436 . S
O1142 C1129 1.270 . S
O1143 Pr1120 2.512 . S
O1143 C1129 1.248 . S
O1144 Pr1121 2.438 . S
O1144 C1130 1.267 . S
O1145 Pr1120 2.437 . S
O1145 C1130 1.278 . S
O1146 Pr1121 2.562 . S
O1146 C1131 1.254 1_556 S
O1147 Pr1121 2.490 . S
O1147 C1131 1.226 1_556 S
O1148 Pr1120 2.436 . S
O1148 Pr1121 2.695 . S
O1148 C1138 1.270 . S
O1149 Pr1121 2.512 . S
O1149 C1138 1.248 . S
O1150 Pr1120 2.438 . S
O1150 C1139 1.267 . S
O1151 Pr1121 2.437 . S
O1151 C1139 1.278 . S
H1152 C1124 0.929 . S
H1153 C1125 0.929 . S
H1154 C1127 0.931 . S
H1155 C1128 0.930 . S
H1156 C1133 0.929 . S
H1157 C1134 0.929 . S
H1158 C1136 0.931 . S
H1159 C1137 0.930 . S
Pr1160 C1162 2.880 . S
Pr1160 O1180 2.562 . S
Pr1160 O1181 2.490 . S
Pr1160 O1182 2.695 . S
Pr1160 O1183 2.512 . S
Pr1160 O1185 2.437 . S
Pr1160 O1188 2.436 . S
Pr1160 O1190 2.438 . S
Pr1161 C1171 2.880 1_556 S
Pr1161 O1182 2.436 . S
Pr1161 O1184 2.438 . S
Pr1161 O1186 2.562 . S
Pr1161 O1187 2.490 . S
Pr1161 O1188 2.695 . S
Pr1161 O1189 2.512 . S
Pr1161 O1191 2.437 . S
C1162 Pr1160 2.880 . S
C1162 C1163 1.491 . S
C1162 O1180 1.254 . S
C1162 O1181 1.225 . S
C1163 C1162 1.491 . S
C1163 C1164 1.392 . S
C1163 C1168 1.356 . S
C1164 C1163 1.392 . S
C1164 C1165 1.368 . S
C1164 H1192 0.929 . S
C1165 C1164 1.368 . S
C1165 C1166 1.386 . S
C1165 H1193 0.929 . S
C1166 C1165 1.386 . S
C1166 C1167 1.373 . S
C1167 C1166 1.373 . S
C1167 C1168 1.409 . S
C1167 H1194 0.931 . S
C1168 C1163 1.356 . S
C1168 C1167 1.409 . S
C1168 H1195 0.930 . S
C1169 O1182 1.270 . S
C1169 O1183 1.248 . S
C1170 O1184 1.267 . S
C1170 O1185 1.278 . S
C1171 Pr1161 2.880 1_554 S
C1171 C1172 1.491 . S
C1171 O1186 1.254 1_554 S
C1171 O1187 1.225 1_554 S
C1172 C1171 1.491 . S
C1172 C1173 1.392 . S
C1172 C1177 1.356 . S
C1173 C1172 1.392 . S
C1173 C1174 1.368 . S
C1173 H1196 0.929 . S
C1174 C1173 1.368 . S
C1174 C1175 1.386 . S
C1174 H1197 0.929 . S
C1175 C1174 1.386 . S
C1175 C1176 1.373 . S
C1176 C1175 1.373 . S
C1176 C1177 1.409 . S
C1176 H1198 0.931 . S
C1177 C1172 1.356 . S
C1177 C1176 1.409 . S
C1177 H1199 0.930 . S
C1178 O1188 1.270 . S
C1178 O1189 1.248 . S
C1179 O1190 1.267 . S
C1179 O1191 1.278 . S
O1180 Pr1160 2.562 . S
O1180 C1162 1.254 . S
O1181 Pr1160 2.490 . S
O1181 C1162 1.225 . S
O1182 Pr1160 2.695 . S
O1182 Pr1161 2.436 . S
O1182 C1169 1.270 . S
O1183 Pr1160 2.512 . S
O1183 C1169 1.248 . S
O1184 Pr1161 2.438 . S
O1184 C1170 1.267 . S
O1185 Pr1160 2.437 . S
O1185 C1170 1.278 . S
O1186 Pr1161 2.562 . S
O1186 C1171 1.254 1_556 S
O1187 Pr1161 2.490 . S
O1187 C1171 1.225 1_556 S
O1188 Pr1160 2.436 . S
O1188 Pr1161 2.695 . S
O1188 C1178 1.270 . S
O1189 Pr1161 2.512 . S
O1189 C1178 1.248 . S
O1190 Pr1160 2.438 . S
O1190 C1179 1.267 . S
O1191 Pr1161 2.437 . S
O1191 C1179 1.278 . S
H1192 C1164 0.929 . S
H1193 C1165 0.929 . S
H1194 C1167 0.931 . S
H1195 C1168 0.930 . S
H1196 C1173 0.929 . S
H1197 C1174 0.929 . S
H1198 C1176 0.931 . S
H1199 C1177 0.930 . S
Pr1200 C1202 2.880 . S
Pr1200 O1220 2.562 . S
Pr1200 O1221 2.490 . S
Pr1200 O1222 2.695 . S
Pr1200 O1223 2.512 . S
Pr1200 O1225 2.437 . S
Pr1200 O1228 2.436 . S
Pr1200 O1230 2.438 . S
Pr1201 C1211 2.880 . S
Pr1201 O1222 2.436 . S
Pr1201 O1224 2.438 . S
Pr1201 O1226 2.562 . S
Pr1201 O1227 2.490 . S
Pr1201 O1228 2.695 . S
Pr1201 O1229 2.512 . S
Pr1201 O1231 2.437 . S
C1202 Pr1200 2.880 . S
C1202 C1203 1.491 . S
C1202 O1220 1.254 . S
C1202 O1221 1.225 . S
C1203 C1202 1.491 . S
C1203 C1204 1.392 . S
C1203 C1208 1.356 . S
C1204 C1203 1.392 . S
C1204 C1205 1.368 . S
C1204 H1232 0.929 . S
C1205 C1204 1.368 . S
C1205 C1206 1.386 . S
C1205 H1233 0.929 . S
C1206 C1205 1.386 . S
C1206 C1207 1.373 . S
C1207 C1206 1.373 . S
C1207 C1208 1.409 . S
C1207 H1234 0.931 . S
C1208 C1203 1.356 . S
C1208 C1207 1.409 . S
C1208 H1235 0.930 . S
C1209 O1222 1.270 . S
C1209 O1223 1.248 . S
C1210 O1224 1.267 . S
C1210 O1225 1.278 . S
C1211 Pr1201 2.880 . S
C1211 C1212 1.491 . S
C1211 O1226 1.254 . S
C1211 O1227 1.225 . S
C1212 C1211 1.491 . S
C1212 C1213 1.392 . S
C1212 C1217 1.356 . S
C1213 C1212 1.392 . S
C1213 C1214 1.368 1_455 S
C1213 H1236 0.929 . S
C1214 C1213 1.368 1_655 S
C1214 C1215 1.386 1_655 S
C1214 H1237 0.929 . S
C1215 C1214 1.386 1_455 S
C1215 C1216 1.373 . S
C1216 C1215 1.373 . S
C1216 C1217 1.409 . S
C1216 H1238 0.931 . S
C1217 C1212 1.356 . S
C1217 C1216 1.409 . S
C1217 H1239 0.930 . S
C1218 O1228 1.270 . S
C1218 O1229 1.248 . S
C1219 O1230 1.267 . S
C1219 O1231 1.278 . S
O1220 Pr1200 2.562 . S
O1220 C1202 1.254 . S
O1221 Pr1200 2.490 . S
O1221 C1202 1.225 . S
O1222 Pr1200 2.695 . S
O1222 Pr1201 2.436 . S
O1222 C1209 1.270 . S
O1223 Pr1200 2.512 . S
O1223 C1209 1.248 . S
O1224 Pr1201 2.438 . S
O1224 C1210 1.267 . S
O1225 Pr1200 2.437 . S
O1225 C1210 1.278 . S
O1226 Pr1201 2.562 . S
O1226 C1211 1.254 . S
O1227 Pr1201 2.490 . S
O1227 C1211 1.225 . S
O1228 Pr1200 2.436 . S
O1228 Pr1201 2.695 . S
O1228 C1218 1.270 . S
O1229 Pr1201 2.512 . S
O1229 C1218 1.248 . S
O1230 Pr1200 2.438 . S
O1230 C1219 1.267 . S
O1231 Pr1201 2.437 . S
O1231 C1219 1.278 . S
H1232 C1204 0.929 . S
H1233 C1205 0.929 . S
H1234 C1207 0.931 . S
H1235 C1208 0.930 . S
H1236 C1213 0.929 . S
H1237 C1214 0.929 . S
H1238 C1216 0.931 . S
H1239 C1217 0.930 . S
Pr1240 C1242 2.880 . S
Pr1240 O1260 2.562 . S
Pr1240 O1261 2.490 . S
Pr1240 O1262 2.695 . S
Pr1240 O1263 2.512 . S
Pr1240 O1265 2.437 . S
Pr1240 O1268 2.436 . S
Pr1240 O1270 2.438 . S
Pr1241 C1251 2.880 . S
Pr1241 O1262 2.436 . S
Pr1241 O1264 2.438 . S
Pr1241 O1266 2.562 . S
Pr1241 O1267 2.490 . S
Pr1241 O1268 2.695 . S
Pr1241 O1269 2.512 . S
Pr1241 O1271 2.437 . S
C1242 Pr1240 2.880 . S
C1242 C1243 1.491 . S
C1242 O1260 1.254 . S
C1242 O1261 1.225 . S
C1243 C1242 1.491 . S
C1243 C1244 1.392 . S
C1243 C1248 1.356 . S
C1244 C1243 1.392 . S
C1244 C1245 1.368 . S
C1244 H1272 0.929 . S
C1245 C1244 1.368 . S
C1245 C1246 1.386 . S
C1245 H1273 0.929 . S
C1246 C1245 1.386 . S
C1246 C1247 1.373 . S
C1247 C1246 1.373 . S
C1247 C1248 1.409 . S
C1247 H1274 0.931 . S
C1248 C1243 1.356 . S
C1248 C1247 1.409 . S
C1248 H1275 0.930 . S
C1249 O1262 1.270 . S
C1249 O1263 1.248 . S
C1250 O1264 1.267 . S
C1250 O1265 1.278 . S
C1251 Pr1241 2.880 . S
C1251 C1252 1.491 . S
C1251 O1266 1.254 . S
C1251 O1267 1.225 . S
C1252 C1251 1.491 . S
C1252 C1253 1.392 . S
C1252 C1257 1.356 . S
C1253 C1252 1.392 . S
C1253 C1254 1.368 . S
C1253 H1276 0.929 . S
C1254 C1253 1.368 . S
C1254 C1255 1.386 . S
C1254 H1277 0.929 . S
C1255 C1254 1.386 . S
C1255 C1256 1.373 . S
C1256 C1255 1.373 . S
C1256 C1257 1.409 . S
C1256 H1278 0.931 . S
C1257 C1252 1.356 . S
C1257 C1256 1.409 . S
C1257 H1279 0.930 . S
C1258 O1268 1.270 . S
C1258 O1269 1.248 . S
C1259 O1270 1.267 . S
C1259 O1271 1.278 . S
O1260 Pr1240 2.562 . S
O1260 C1242 1.254 . S
O1261 Pr1240 2.490 . S
O1261 C1242 1.225 . S
O1262 Pr1240 2.695 . S
O1262 Pr1241 2.436 . S
O1262 C1249 1.270 . S
O1263 Pr1240 2.512 . S
O1263 C1249 1.248 . S
O1264 Pr1241 2.438 . S
O1264 C1250 1.267 . S
O1265 Pr1240 2.437 . S
O1265 C1250 1.278 . S
O1266 Pr1241 2.562 . S
O1266 C1251 1.254 . S
O1267 Pr1241 2.490 . S
O1267 C1251 1.225 . S
O1268 Pr1240 2.436 . S
O1268 Pr1241 2.695 . S
O1268 C1258 1.270 . S
O1269 Pr1241 2.512 . S
O1269 C1258 1.248 . S
O1270 Pr1240 2.438 . S
O1270 C1259 1.267 . S
O1271 Pr1241 2.437 . S
O1271 C1259 1.278 . S
H1272 C1244 0.929 . S
H1273 C1245 0.929 . S
H1274 C1247 0.931 . S
H1275 C1248 0.930 . S
H1276 C1253 0.929 . S
H1277 C1254 0.929 . S
H1278 C1256 0.931 . S
H1279 C1257 0.930 . S
C1280 C1281 1.369 . S
C1280 C1282 1.419 . S
C1280 H1284 0.930 . S
C1281 C1280 1.369 . S
C1281 C1290 1.429 . S
C1282 C1280 1.419 . S
C1282 C1283 1.363 . S
C1282 H1285 0.929 . S
C1283 C1282 1.363 . S
C1283 C1289 1.428 . S
H1284 C1280 0.930 . S
H1285 C1282 0.929 . S
S1286 N1287 1.613 . S
S1286 N1288 1.610 . S
N1287 S1286 1.613 . S
N1287 C1290 1.350 . S
N1288 S1286 1.610 . S
N1288 C1289 1.351 . S
C1289 C1283 1.428 . S
C1289 N1288 1.351 . S
C1289 C1290 1.434 . S
C1290 C1281 1.429 . S
C1290 N1287 1.350 . S
C1290 C1289 1.434 . S
C1291 C1292 1.369 . S
C1291 C1293 1.419 . S
C1291 H1295 0.930 . S
C1292 C1291 1.369 . S
C1292 C1301 1.429 . S
C1293 C1291 1.419 . S
C1293 C1294 1.363 . S
C1293 H1296 0.929 . S
C1294 C1293 1.363 . S
C1294 C1300 1.428 . S
H1295 C1291 0.930 . S
H1296 C1293 0.929 . S
S1297 N1298 1.613 . S
S1297 N1299 1.610 . S
N1298 S1297 1.613 . S
N1298 C1301 1.350 . S
N1299 S1297 1.610 . S
N1299 C1300 1.351 . S
C1300 C1294 1.428 . S
C1300 N1299 1.351 . S
C1300 C1301 1.434 . S
C1301 C1292 1.429 . S
C1301 N1298 1.350 . S
C1301 C1300 1.434 . S
C1302 C1303 1.369 . S
C1302 C1304 1.419 . S
C1302 H1306 0.930 . S
C1303 C1302 1.369 . S
C1303 C1312 1.429 . S
C1304 C1302 1.419 . S
C1304 C1305 1.363 . S
C1304 H1307 0.929 . S
C1305 C1304 1.363 . S
C1305 C1311 1.428 . S
H1306 C1302 0.930 . S
H1307 C1304 0.929 . S
S1308 N1309 1.613 . S
S1308 N1310 1.610 . S
N1309 S1308 1.613 . S
N1309 C1312 1.350 . S
N1310 S1308 1.610 . S
N1310 C1311 1.351 . S
C1311 C1305 1.428 . S
C1311 N1310 1.351 . S
C1311 C1312 1.434 . S
C1312 C1303 1.429 . S
C1312 N1309 1.350 . S
C1312 C1311 1.434 . S
C1313 C1314 1.369 . S
C1313 C1315 1.419 . S
C1313 H1317 0.930 . S
C1314 C1313 1.369 . S
C1314 C1323 1.429 . S
C1315 C1313 1.419 . S
C1315 C1316 1.363 . S
C1315 H1318 0.929 . S
C1316 C1315 1.363 . S
C1316 C1322 1.428 . S
H1317 C1313 0.930 . S
H1318 C1315 0.929 . S
S1319 N1320 1.613 . S
S1319 N1321 1.610 . S
N1320 S1319 1.613 . S
N1320 C1323 1.350 . S
N1321 S1319 1.610 . S
N1321 C1322 1.351 . S
C1322 C1316 1.428 . S
C1322 N1321 1.351 . S
C1322 C1323 1.434 . S
C1323 C1314 1.429 . S
C1323 N1320 1.350 . S
C1323 C1322 1.434 . S
C1324 C1325 1.369 . S
C1324 C1326 1.419 . S
C1324 H1328 0.930 . S
C1325 C1324 1.369 . S
C1325 C1334 1.429 . S
C1326 C1324 1.419 . S
C1326 C1327 1.363 . S
C1326 H1329 0.929 . S
C1327 C1326 1.363 . S
C1327 C1333 1.428 . S
H1328 C1324 0.930 . S
H1329 C1326 0.929 . S
S1330 N1331 1.613 . S
S1330 N1332 1.610 . S
N1331 S1330 1.613 . S
N1331 C1334 1.350 . S
N1332 S1330 1.610 . S
N1332 C1333 1.351 . S
C1333 C1327 1.428 . S
C1333 N1332 1.351 . S
C1333 C1334 1.434 . S
C1334 C1325 1.429 . S
C1334 N1331 1.350 . S
C1334 C1333 1.434 . S
C1335 C1336 1.369 . S
C1335 C1337 1.419 . S
C1335 H1339 0.930 . S
C1336 C1335 1.369 . S
C1336 C1345 1.429 . S
C1337 C1335 1.419 . S
C1337 C1338 1.363 . S
C1337 H1340 0.929 . S
C1338 C1337 1.363 . S
C1338 C1344 1.428 . S
H1339 C1335 0.930 . S
H1340 C1337 0.929 . S
S1341 N1342 1.613 . S
S1341 N1343 1.610 . S
N1342 S1341 1.613 . S
N1342 C1345 1.350 . S
N1343 S1341 1.610 . S
N1343 C1344 1.351 . S
C1344 C1338 1.428 . S
C1344 N1343 1.351 . S
C1344 C1345 1.434 . S
C1345 C1336 1.429 . S
C1345 N1342 1.350 . S
C1345 C1344 1.434 . S
C1346 C1347 1.369 . S
C1346 C1348 1.419 . S
C1346 H1350 0.930 . S
C1347 C1346 1.369 . S
C1347 C1356 1.429 . S
C1348 C1346 1.419 . S
C1348 C1349 1.363 . S
C1348 H1351 0.929 . S
C1349 C1348 1.363 . S
C1349 C1355 1.428 . S
H1350 C1346 0.930 . S
H1351 C1348 0.929 . S
S1352 N1353 1.613 . S
S1352 N1354 1.610 . S
N1353 S1352 1.613 . S
N1353 C1356 1.350 . S
N1354 S1352 1.610 . S
N1354 C1355 1.351 . S
C1355 C1349 1.428 . S
C1355 N1354 1.351 . S
C1355 C1356 1.434 . S
C1356 C1347 1.429 . S
C1356 N1353 1.350 . S
C1356 C1355 1.434 . S
C1357 C1358 1.369 . S
C1357 C1359 1.419 . S
C1357 H1361 0.930 . S
C1358 C1357 1.369 . S
C1358 C1367 1.429 . S
C1359 C1357 1.419 . S
C1359 C1360 1.363 . S
C1359 H1362 0.929 . S
C1360 C1359 1.363 . S
C1360 C1366 1.428 . S
H1361 C1357 0.930 . S
H1362 C1359 0.929 . S
S1363 N1364 1.613 . S
S1363 N1365 1.610 . S
N1364 S1363 1.613 . S
N1364 C1367 1.350 . S
N1365 S1363 1.610 . S
N1365 C1366 1.351 . S
C1366 C1360 1.428 . S
C1366 N1365 1.351 . S
C1366 C1367 1.434 . S
C1367 C1358 1.429 . S
C1367 N1364 1.350 . S
C1367 C1366 1.434 . S
C1368 C1369 1.369 . S
C1368 C1370 1.419 . S
C1368 H1372 0.930 . S
C1369 C1368 1.369 . S
C1369 C1378 1.429 . S
C1370 C1368 1.419 . S
C1370 C1371 1.363 . S
C1370 H1373 0.929 . S
C1371 C1370 1.363 . S
C1371 C1377 1.428 . S
H1372 C1368 0.930 . S
H1373 C1370 0.929 . S
S1374 N1375 1.613 . S
S1374 N1376 1.610 . S
N1375 S1374 1.613 . S
N1375 C1378 1.350 . S
N1376 S1374 1.610 . S
N1376 C1377 1.351 . S
C1377 C1371 1.428 . S
C1377 N1376 1.351 . S
C1377 C1378 1.434 . S
C1378 C1369 1.429 . S
C1378 N1375 1.350 . S
C1378 C1377 1.434 . S
C1379 C1380 1.369 . S
C1379 C1381 1.419 . S
C1379 H1383 0.930 . S
C1380 C1379 1.369 . S
C1380 C1389 1.429 . S
C1381 C1379 1.419 . S
C1381 C1382 1.363 . S
C1381 H1384 0.929 . S
C1382 C1381 1.363 . S
C1382 C1388 1.428 . S
H1383 C1379 0.930 . S
H1384 C1381 0.929 . S
S1385 N1386 1.616 . S
S1385 N1387 1.613 . S
N1386 S1385 1.616 . S
N1386 C1389 1.350 . S
N1387 S1385 1.613 . S
N1387 C1388 1.351 . S
C1388 C1382 1.428 . S
C1388 N1387 1.351 . S
C1388 C1389 1.434 . S
C1389 C1380 1.429 . S
C1389 N1386 1.350 . S
C1389 C1388 1.434 . S
C1390 C1391 1.369 . S
C1390 C1392 1.419 . S
C1390 H1394 0.930 . S
C1391 C1390 1.369 . S
C1391 C1400 1.429 . S
C1392 C1390 1.419 . S
C1392 C1393 1.363 . S
C1392 H1395 0.929 . S
C1393 C1392 1.363 . S
C1393 C1399 1.428 . S
H1394 C1390 0.930 . S
H1395 C1392 0.929 . S
S1396 N1397 1.613 . S
S1396 N1398 1.610 . S
N1397 S1396 1.613 . S
N1397 C1400 1.350 . S
N1398 S1396 1.610 . S
N1398 C1399 1.351 . S
C1399 C1393 1.428 . S
C1399 N1398 1.351 . S
C1399 C1400 1.434 . S
C1400 C1391 1.429 . S
C1400 N1397 1.350 . S
C1400 C1399 1.434 . S
C1401 C1402 1.369 . S
C1401 C1403 1.419 . S
C1401 H1405 0.930 . S
C1402 C1401 1.369 . S
C1402 C1411 1.429 . S
C1403 C1401 1.419 . S
C1403 C1404 1.363 . S
C1403 H1406 0.929 . S
C1404 C1403 1.363 . S
C1404 C1410 1.428 . S
H1405 C1401 0.930 . S
H1406 C1403 0.929 . S
S1407 N1408 1.613 . S
S1407 N1409 1.610 . S
N1408 S1407 1.613 . S
N1408 C1411 1.350 . S
N1409 S1407 1.610 . S
N1409 C1410 1.351 . S
C1410 C1404 1.428 . S
C1410 N1409 1.351 . S
C1410 C1411 1.434 . S
C1411 C1402 1.429 . S
C1411 N1408 1.350 . S
C1411 C1410 1.434 . S
C1412 C1413 1.369 . S
C1412 C1414 1.419 . S
C1412 H1416 0.930 . S
C1413 C1412 1.369 . S
C1413 C1422 1.429 . S
C1414 C1412 1.419 . S
C1414 C1415 1.363 . S
C1414 H1417 0.929 . S
C1415 C1414 1.363 . S
C1415 C1421 1.428 . S
H1416 C1412 0.930 . S
H1417 C1414 0.929 . S
S1418 N1419 1.613 . S
S1418 N1420 1.610 . S
N1419 S1418 1.613 . S
N1419 C1422 1.350 . S
N1420 S1418 1.610 . S
N1420 C1421 1.351 . S
C1421 C1415 1.428 . S
C1421 N1420 1.351 . S
C1421 C1422 1.434 . S
C1422 C1413 1.429 . S
C1422 N1419 1.350 . S
C1422 C1421 1.434 . S
C1423 C1424 1.369 . S
C1423 C1425 1.419 . S
C1423 H1427 0.930 . S
C1424 C1423 1.369 . S
C1424 C1433 1.429 . S
C1425 C1423 1.419 . S
C1425 C1426 1.363 . S
C1425 H1428 0.929 . S
C1426 C1425 1.363 . S
C1426 C1432 1.428 . S
H1427 C1423 0.930 . S
H1428 C1425 0.929 . S
S1429 N1430 1.613 1_655 S
S1429 N1431 1.610 1_655 S
N1430 S1429 1.613 1_455 S
N1430 C1433 1.350 . S
N1431 S1429 1.610 1_455 S
N1431 C1432 1.351 . S
C1432 C1426 1.428 . S
C1432 N1431 1.351 . S
C1432 C1433 1.434 . S
C1433 C1424 1.429 . S
C1433 N1430 1.350 . S
C1433 C1432 1.434 . S
C1434 C1435 1.369 . S
C1434 C1436 1.419 . S
C1434 H1438 0.930 . S
C1435 C1434 1.369 . S
C1435 C1444 1.429 . S
C1436 C1434 1.419 . S
C1436 C1437 1.363 . S
C1436 H1439 0.929 . S
C1437 C1436 1.363 . S
C1437 C1443 1.428 . S
H1438 C1434 0.930 . S
H1439 C1436 0.929 . S
S1440 N1441 1.613 . S
S1440 N1442 1.610 . S
N1441 S1440 1.613 . S
N1441 C1444 1.350 . S
N1442 S1440 1.610 . S
N1442 C1443 1.351 . S
C1443 C1437 1.428 . S
C1443 N1442 1.351 . S
C1443 C1444 1.434 . S
C1444 C1435 1.429 . S
C1444 N1441 1.350 . S
C1444 C1443 1.434 . S
C1445 C1446 1.369 . S
C1445 C1447 1.419 . S
C1445 H1449 0.930 . S
C1446 C1445 1.369 . S
C1446 C1455 1.429 . S
C1447 C1445 1.419 . S
C1447 C1448 1.363 . S
C1447 H1450 0.929 . S
C1448 C1447 1.363 . S
C1448 C1454 1.428 . S
H1449 C1445 0.930 . S
H1450 C1447 0.929 . S
S1451 N1452 1.613 . S
S1451 N1453 1.610 . S
N1452 S1451 1.613 . S
N1452 C1455 1.350 . S
N1453 S1451 1.610 . S
N1453 C1454 1.351 . S
C1454 C1448 1.428 . S
C1454 N1453 1.351 . S
C1454 C1455 1.434 . S
C1455 C1446 1.429 . S
C1455 N1452 1.350 . S
C1455 C1454 1.434 . S
C1456 C1457 1.369 . S
C1456 C1458 1.419 . S
C1456 H1460 0.930 . S
C1457 C1456 1.369 . S
C1457 C1466 1.429 1_565 S
C1458 C1456 1.419 . S
C1458 C1459 1.363 1_565 S
C1458 H1461 0.929 . S
C1459 C1458 1.363 1_545 S
C1459 C1465 1.428 . S
H1460 C1456 0.930 . S
H1461 C1458 0.929 . S
S1462 N1463 1.613 . S
S1462 N1464 1.610 . S
N1463 S1462 1.613 . S
N1463 C1466 1.350 . S
N1464 S1462 1.610 . S
N1464 C1465 1.351 . S
C1465 C1459 1.428 . S
C1465 N1464 1.351 . S
C1465 C1466 1.434 . S
C1466 C1457 1.429 1_545 S
C1466 N1463 1.350 . S
C1466 C1465 1.434 . S
C1467 C1468 1.369 1_655 S
C1467 C1469 1.419 . S
C1467 H1471 0.930 . S
C1468 C1467 1.369 1_455 S
C1468 C1477 1.429 . S
C1469 C1467 1.419 . S
C1469 C1470 1.363 . S
C1469 H1472 0.929 . S
C1470 C1469 1.363 . S
C1470 C1476 1.428 1_655 S
H1471 C1467 0.930 . S
H1472 C1469 0.929 . S
S1473 N1474 1.613 . S
S1473 N1475 1.610 . S
N1474 S1473 1.613 . S
N1474 C1477 1.350 . S
N1475 S1473 1.610 . S
N1475 C1476 1.351 . S
C1476 C1470 1.428 1_455 S
C1476 N1475 1.351 . S
C1476 C1477 1.434 . S
C1477 C1468 1.429 . S
C1477 N1474 1.350 . S
C1477 C1476 1.434 . S
C1478 C1479 1.369 . S
C1478 C1480 1.419 1_556 S
C1478 H1482 0.930 . S
C1479 C1478 1.369 . S
C1479 C1488 1.429 . S
C1480 C1478 1.419 1_554 S
C1480 C1481 1.363 . S
C1480 H1483 0.929 . S
C1481 C1480 1.363 . S
C1481 C1487 1.428 . S
H1482 C1478 0.930 . S
H1483 C1480 0.929 . S
S1484 N1485 1.613 1_554 S
S1484 N1486 1.610 . S
N1485 S1484 1.613 1_556 S
N1485 C1488 1.350 . S
N1486 S1484 1.610 . S
N1486 C1487 1.351 . S
C1487 C1481 1.428 . S
C1487 N1486 1.351 . S
C1487 C1488 1.434 1_554 S
C1488 C1479 1.429 . S
C1488 N1485 1.350 . S
C1488 C1487 1.434 1_556 S
C1489 C1490 1.384 . S
C1489 C1491 1.404 1_564 S
C1489 H1493 0.930 1_554 S
C1490 C1489 1.384 . S
C1490 C1499 1.429 1_655 S
C1491 C1489 1.404 1_546 S
C1491 C1492 1.363 1_655 S
C1491 H1494 0.929 . S
C1492 C1491 1.363 1_455 S
C1492 C1498 1.415 1_556 S
H1493 C1489 0.930 1_556 S
H1494 C1491 0.929 . S
S1495 N1496 1.613 . S
S1495 N1497 1.590 1_565 S
N1496 S1495 1.613 . S
N1496 C1499 1.350 . S
N1497 S1495 1.590 1_545 S
N1497 C1498 1.354 . S
C1498 C1492 1.415 1_554 S
C1498 N1497 1.354 . S
C1498 C1499 1.447 1_545 S
C1499 C1490 1.429 1_455 S
C1499 N1496 1.350 . S
C1499 C1498 1.447 1_565 S
C1500 C1501 1.369 1_565 S
C1500 C1502 1.419 . S
C1500 H1504 0.930 . S
C1501 C1500 1.369 1_545 S
C1501 C1510 1.429 . S
C1502 C1500 1.419 . S
C1502 C1503 1.363 . S
C1502 H1505 0.929 . S
C1503 C1502 1.363 . S
C1503 C1509 1.428 1_565 S
H1504 C1500 0.930 . S
H1505 C1502 0.929 . S
S1506 N1507 1.613 . S
S1506 N1508 1.610 . S
N1507 S1506 1.613 . S
N1507 C1510 1.350 . S
N1508 S1506 1.610 . S
N1508 C1509 1.351 . S
C1509 C1503 1.428 1_545 S
C1509 N1508 1.351 . S
C1509 C1510 1.434 . S
C1510 C1501 1.429 . S
C1510 N1507 1.350 . S
C1510 C1509 1.434 . S
C1511 C1512 1.369 . S
C1511 C1513 1.419 . S
C1511 H1515 0.930 . S
C1512 C1511 1.369 . S
C1512 C1521 1.429 1_455 S
C1513 C1511 1.419 . S
C1513 C1514 1.363 1_455 S
C1513 H1516 0.929 . S
C1514 C1513 1.363 1_655 S
C1514 C1520 1.428 . S
H1515 C1511 0.930 . S
H1516 C1513 0.929 . S
S1517 N1518 1.613 . S
S1517 N1519 1.610 . S
N1518 S1517 1.613 . S
N1518 C1521 1.350 . S
N1519 S1517 1.610 . S
N1519 C1520 1.351 . S
C1520 C1514 1.428 . S
C1520 N1519 1.351 . S
C1520 C1521 1.434 . S
C1521 C1512 1.429 1_655 S
C1521 N1518 1.350 . S
C1521 C1520 1.434 . S
C1522 C1523 1.369 . S
C1522 C1524 1.419 . S
C1522 H1526 0.930 . S
C1523 C1522 1.369 . S
C1523 C1532 1.429 1_556 S
C1524 C1522 1.419 . S
C1524 C1525 1.363 1_556 S
C1524 H1527 0.929 . S
C1525 C1524 1.363 1_554 S
C1525 C1531 1.428 . S
H1526 C1522 0.930 . S
H1527 C1524 0.929 . S
S1528 N1529 1.613 . S
S1528 N1530 1.610 . S
N1529 S1528 1.613 . S
N1529 C1532 1.350 . S
N1530 S1528 1.610 . S
N1530 C1531 1.351 . S
C1531 C1525 1.428 . S
C1531 N1530 1.351 . S
C1531 C1532 1.434 . S
C1532 C1523 1.429 1_554 S
C1532 N1529 1.350 . S
C1532 C1531 1.434 . S
C1533 C1534 1.369 . S
C1533 C1535 1.419 . S
C1533 H1537 0.930 . S
C1534 C1533 1.369 . S
C1534 C1543 1.429 . S
C1535 C1533 1.419 . S
C1535 C1536 1.363 . S
C1535 H1538 0.929 . S
C1536 C1535 1.363 . S
C1536 C1542 1.428 . S
H1537 C1533 0.930 . S
H1538 C1535 0.929 . S
S1539 N1540 1.613 . S
S1539 N1541 1.610 . S
N1540 S1539 1.613 . S
N1540 C1543 1.350 . S
N1541 S1539 1.610 . S
N1541 C1542 1.351 . S
C1542 C1536 1.428 . S
C1542 N1541 1.351 . S
C1542 C1543 1.434 . S
C1543 C1534 1.429 . S
C1543 N1540 1.350 . S
C1543 C1542 1.434 . S
C1544 C1545 1.369 . S
C1544 C1546 1.419 . S
C1544 H1548 0.930 . S
C1545 C1544 1.369 . S
C1545 C1554 1.429 . S
C1546 C1544 1.419 . S
C1546 C1547 1.363 . S
C1546 H1549 0.929 . S
C1547 C1546 1.363 . S
C1547 C1553 1.428 . S
H1548 C1544 0.930 . S
H1549 C1546 0.929 . S
S1550 N1551 1.613 . S
S1550 N1552 1.610 . S
N1551 S1550 1.613 . S
N1551 C1554 1.350 . S
N1552 S1550 1.610 . S
N1552 C1553 1.351 . S
C1553 C1547 1.428 . S
C1553 N1552 1.351 . S
C1553 C1554 1.434 . S
C1554 C1545 1.429 . S
C1554 N1551 1.350 . S
C1554 C1553 1.434 . S
C1555 C1556 1.369 . S
C1555 C1557 1.419 . S
C1555 H1559 0.930 . S
C1556 C1555 1.369 . S
C1556 C1565 1.429 1_455 S
C1557 C1555 1.419 . S
C1557 C1558 1.363 1_455 S
C1557 H1560 0.929 . S
C1558 C1557 1.363 1_655 S
C1558 C1564 1.428 . S
H1559 C1555 0.930 . S
H1560 C1557 0.929 . S
S1561 N1562 1.613 . S
S1561 N1563 1.610 . S
N1562 S1561 1.613 . S
N1562 C1565 1.350 . S
N1563 S1561 1.610 . S
N1563 C1564 1.351 . S
C1564 C1558 1.428 . S
C1564 N1563 1.351 . S
C1564 C1565 1.434 . S
C1565 C1556 1.429 1_655 S
C1565 N1562 1.350 . S
C1565 C1564 1.434 . S
C1566 C1567 1.369 . S
C1566 C1568 1.419 . S
C1566 H1570 0.930 . S
C1567 C1566 1.369 . S
C1567 C1576 1.429 . S
C1568 C1566 1.419 . S
C1568 C1569 1.363 . S
C1568 H1571 0.929 . S
C1569 C1568 1.363 . S
C1569 C1575 1.428 . S
H1570 C1566 0.930 . S
H1571 C1568 0.929 . S
S1572 N1573 1.613 . S
S1572 N1574 1.610 . S
N1573 S1572 1.613 . S
N1573 C1576 1.350 . S
N1574 S1572 1.610 . S
N1574 C1575 1.351 . S
C1575 C1569 1.428 . S
C1575 N1574 1.351 . S
C1575 C1576 1.434 . S
C1576 C1567 1.429 . S
C1576 N1573 1.350 . S
C1576 C1575 1.434 . S
C1577 C1578 1.369 . S
C1577 C1579 1.419 . S
C1577 H1581 0.930 . S
C1578 C1577 1.369 . S
C1578 C1587 1.429 . S
C1579 C1577 1.419 . S
C1579 C1580 1.363 . S
C1579 H1582 0.929 . S
C1580 C1579 1.363 . S
C1580 C1586 1.428 . S
H1581 C1577 0.930 . S
H1582 C1579 0.929 . S
S1583 N1584 1.613 . S
S1583 N1585 1.610 . S
N1584 S1583 1.613 . S
N1584 C1587 1.350 . S
N1585 S1583 1.610 . S
N1585 C1586 1.351 . S
C1586 C1580 1.428 . S
C1586 N1585 1.351 . S
C1586 C1587 1.434 . S
C1587 C1578 1.429 . S
C1587 N1584 1.350 . S
C1587 C1586 1.434 . S
C1588 C1589 1.369 . S
C1588 C1590 1.419 . S
C1588 H1592 0.930 . S
C1589 C1588 1.369 . S
C1589 C1598 1.429 . S
C1590 C1588 1.419 . S
C1590 C1591 1.363 . S
C1590 H1593 0.929 . S
C1591 C1590 1.363 . S
C1591 C1597 1.428 . S
H1592 C1588 0.930 . S
H1593 C1590 0.929 . S
S1594 N1595 1.613 . S
S1594 N1596 1.610 . S
N1595 S1594 1.613 . S
N1595 C1598 1.350 . S
N1596 S1594 1.610 . S
N1596 C1597 1.351 . S
C1597 C1591 1.428 . S
C1597 N1596 1.351 . S
C1597 C1598 1.434 . S
C1598 C1589 1.429 . S
C1598 N1595 1.350 . S
C1598 C1597 1.434 . S
C1599 C1600 1.369 . S
C1599 C1601 1.419 . S
C1599 H1603 0.930 . S
C1600 C1599 1.369 . S
C1600 C1609 1.429 1_565 S
C1601 C1599 1.419 . S
C1601 C1602 1.363 1_565 S
C1601 H1604 0.929 . S
C1602 C1601 1.363 1_545 S
C1602 C1608 1.428 . S
H1603 C1599 0.930 . S
H1604 C1601 0.929 . S
S1605 N1606 1.613 . S
S1605 N1607 1.610 . S
N1606 S1605 1.613 . S
N1606 C1609 1.350 . S
N1607 S1605 1.610 . S
N1607 C1608 1.351 . S
C1608 C1602 1.428 . S
C1608 N1607 1.351 . S
C1608 C1609 1.434 . S
C1609 C1600 1.429 1_545 S
C1609 N1606 1.350 . S
C1609 C1608 1.434 . S
C1610 C1611 1.369 . S
C1610 C1612 1.419 . S
C1610 H1614 0.930 . S
C1611 C1610 1.369 . S
C1611 C1620 1.429 . S
C1612 C1610 1.419 . S
C1612 C1613 1.363 . S
C1612 H1615 0.929 . S
C1613 C1612 1.363 . S
C1613 C1619 1.428 . S
H1614 C1610 0.930 . S
H1615 C1612 0.929 . S
S1616 N1617 1.613 . S
S1616 N1618 1.610 . S
N1617 S1616 1.613 . S
N1617 C1620 1.350 . S
N1618 S1616 1.610 . S
N1618 C1619 1.351 . S
C1619 C1613 1.428 . S
C1619 N1618 1.351 . S
C1619 C1620 1.434 . S
C1620 C1611 1.429 . S
C1620 N1617 1.350 . S
C1620 C1619 1.434 . S
C1621 C1622 1.393 . S
C1621 C1623 1.395 1_554 S
C1621 H1625 0.930 . S
C1622 C1621 1.393 . S
C1622 C1631 1.429 . S
C1623 C1621 1.395 1_556 S
C1623 C1624 1.363 . S
C1623 H1626 0.929 . S
C1624 C1623 1.363 . S
C1624 C1630 1.438 . S
H1625 C1621 0.930 . S
H1626 C1623 0.929 . S
S1627 N1628 1.613 . S
S1627 N1629 1.610 . S
N1628 S1627 1.613 . S
N1628 C1631 1.350 . S
N1629 S1627 1.610 . S
N1629 C1630 1.350 1_554 S
C1630 C1624 1.438 . S
C1630 N1629 1.350 1_556 S
C1630 C1631 1.424 1_556 S
C1631 C1622 1.429 . S
C1631 N1628 1.350 . S
C1631 C1630 1.424 1_554 S
C1632 C1633 1.369 . S
C1632 C1634 1.419 . S
C1632 H1636 0.930 . S
C1633 C1632 1.369 . S
C1633 C1642 1.429 . S
C1634 C1632 1.419 . S
C1634 C1635 1.363 . S
C1634 H1637 0.929 . S
C1635 C1634 1.363 . S
C1635 C1641 1.428 . S
H1636 C1632 0.930 . S
H1637 C1634 0.929 . S
S1638 N1639 1.613 . S
S1638 N1640 1.610 . S
N1639 S1638 1.613 . S
N1639 C1642 1.350 1_565 S
N1640 S1638 1.610 . S
N1640 C1641 1.351 1_565 S
C1641 C1635 1.428 . S
C1641 N1640 1.351 1_545 S
C1641 C1642 1.434 . S
C1642 C1633 1.429 . S
C1642 N1639 1.350 1_545 S
C1642 C1641 1.434 . S
C1643 C1644 1.369 . S
C1643 C1645 1.419 . S
C1643 H1647 0.930 . S
C1644 C1643 1.369 . S
C1644 C1653 1.429 . S
C1645 C1643 1.419 . S
C1645 C1646 1.363 . S
C1645 H1648 0.929 . S
C1646 C1645 1.363 . S
C1646 C1652 1.428 . S
H1647 C1643 0.930 . S
H1648 C1645 0.929 . S
S1649 N1650 1.613 . S
S1649 N1651 1.610 . S
N1650 S1649 1.613 . S
N1650 C1653 1.350 . S
N1651 S1649 1.610 . S
N1651 C1652 1.351 . S
C1652 C1646 1.428 . S
C1652 N1651 1.351 . S
C1652 C1653 1.434 . S
C1653 C1644 1.429 . S
C1653 N1650 1.350 . S
C1653 C1652 1.434 . S
C1654 C1655 1.369 . S
C1654 C1656 1.419 . S
C1654 H1658 0.930 . S
C1655 C1654 1.369 . S
C1655 C1664 1.429 . S
C1656 C1654 1.419 . S
C1656 C1657 1.363 . S
C1656 H1659 0.929 . S
C1657 C1656 1.363 . S
C1657 C1663 1.428 . S
H1658 C1654 0.930 . S
H1659 C1656 0.929 . S
S1660 N1661 1.613 . S
S1660 N1662 1.610 . S
N1661 S1660 1.613 . S
N1661 C1664 1.350 . S
N1662 S1660 1.610 . S
N1662 C1663 1.351 . S
C1663 C1657 1.428 . S
C1663 N1662 1.351 . S
C1663 C1664 1.434 . S
C1664 C1655 1.429 . S
C1664 N1661 1.350 . S
C1664 C1663 1.434 . S
C1665 C1666 1.369 1_565 S
C1665 C1667 1.419 . S
C1665 H1669 0.930 . S
C1666 C1665 1.369 1_545 S
C1666 C1675 1.429 . S
C1667 C1665 1.419 . S
C1667 C1668 1.363 1_565 S
C1667 H1670 0.929 . S
C1668 C1667 1.363 1_545 S
C1668 C1674 1.428 . S
H1669 C1665 0.930 . S
H1670 C1667 0.929 . S
S1671 N1672 1.613 . S
S1671 N1673 1.610 . S
N1672 S1671 1.613 . S
N1672 C1675 1.350 . S
N1673 S1671 1.610 . S
N1673 C1674 1.351 . S
C1674 C1668 1.428 . S
C1674 N1673 1.351 . S
C1674 C1675 1.434 . S
C1675 C1666 1.429 . S
C1675 N1672 1.350 . S
C1675 C1674 1.434 . S
C1676 C1677 1.369 . S
C1676 C1678 1.419 . S
C1676 H1680 0.930 . S
C1677 C1676 1.369 . S
C1677 C1686 1.429 . S
C1678 C1676 1.419 . S
C1678 C1679 1.363 . S
C1678 H1681 0.929 . S
C1679 C1678 1.363 . S
C1679 C1685 1.428 . S
H1680 C1676 0.930 . S
H1681 C1678 0.929 . S
S1682 N1683 1.613 . S
S1682 N1684 1.610 . S
N1683 S1682 1.613 . S
N1683 C1686 1.350 . S
N1684 S1682 1.610 . S
N1684 C1685 1.351 . S
C1685 C1679 1.428 . S
C1685 N1684 1.351 . S
C1685 C1686 1.434 . S
C1686 C1677 1.429 . S
C1686 N1683 1.350 . S
C1686 C1685 1.434 . S
C1687 C1688 1.369 . S
C1687 C1689 1.419 . S
C1687 H1691 0.930 . S
C1688 C1687 1.369 . S
C1688 C1697 1.429 . S
C1689 C1687 1.419 . S
C1689 C1690 1.363 . S
C1689 H1692 0.929 . S
C1690 C1689 1.363 . S
C1690 C1696 1.428 . S
H1691 C1687 0.930 . S
H1692 C1689 0.929 . S
S1693 N1694 1.613 . S
S1693 N1695 1.610 . S
N1694 S1693 1.613 . S
N1694 C1697 1.350 . S
N1695 S1693 1.610 . S
N1695 C1696 1.351 . S
C1696 C1690 1.428 . S
C1696 N1695 1.351 . S
C1696 C1697 1.434 . S
C1697 C1688 1.429 . S
C1697 N1694 1.350 . S
C1697 C1696 1.434 . S
C1698 C1699 1.369 . S
C1698 C1700 1.419 . S
C1698 H1702 0.930 . S
C1699 C1698 1.369 . S
C1699 C1708 1.429 . S
C1700 C1698 1.419 . S
C1700 C1701 1.363 . S
C1700 H1703 0.929 . S
C1701 C1700 1.363 . S
C1701 C1707 1.428 . S
H1702 C1698 0.930 . S
H1703 C1700 0.929 . S
S1704 N1705 1.613 . S
S1704 N1706 1.610 . S
N1705 S1704 1.613 . S
N1705 C1708 1.350 . S
N1706 S1704 1.610 . S
N1706 C1707 1.351 . S
C1707 C1701 1.428 . S
C1707 N1706 1.351 . S
C1707 C1708 1.434 . S
C1708 C1699 1.429 . S
C1708 N1705 1.350 . S
C1708 C1707 1.434 . S
C1709 C1710 1.369 . S
C1709 C1711 1.419 . S
C1709 H1713 0.930 . S
C1710 C1709 1.369 . S
C1710 C1719 1.429 . S
C1711 C1709 1.419 . S
C1711 C1712 1.363 . S
C1711 H1714 0.929 . S
C1712 C1711 1.363 . S
C1712 C1718 1.428 . S
H1713 C1709 0.930 . S
H1714 C1711 0.929 . S
S1715 N1716 1.613 . S
S1715 N1717 1.610 . S
N1716 S1715 1.613 . S
N1716 C1719 1.350 1_545 S
N1717 S1715 1.610 . S
N1717 C1718 1.351 1_545 S
C1718 C1712 1.428 . S
C1718 N1717 1.351 1_565 S
C1718 C1719 1.434 . S
C1719 C1710 1.429 . S
C1719 N1716 1.350 1_565 S
C1719 C1718 1.434 . S
C1720 C1721 1.369 . S
C1720 C1722 1.419 . S
C1720 H1724 0.930 . S
C1721 C1720 1.369 . S
C1721 C1730 1.429 . S
C1722 C1720 1.419 . S
C1722 C1723 1.363 . S
C1722 H1725 0.929 . S
C1723 C1722 1.363 . S
C1723 C1729 1.428 . S
H1724 C1720 0.930 . S
H1725 C1722 0.929 . S
S1726 N1727 1.613 . S
S1726 N1728 1.610 . S
N1727 S1726 1.613 . S
N1727 C1730 1.350 . S
N1728 S1726 1.610 . S
N1728 C1729 1.351 . S
C1729 C1723 1.428 . S
C1729 N1728 1.351 . S
C1729 C1730 1.434 . S
C1730 C1721 1.429 . S
C1730 N1727 1.350 . S
C1730 C1729 1.434 . S
C1731 C1732 1.369 . S
C1731 C1733 1.419 . S
C1731 H1735 0.930 . S
C1732 C1731 1.369 . S
C1732 C1741 1.429 . S
C1733 C1731 1.419 . S
C1733 C1734 1.363 . S
C1733 H1736 0.929 . S
C1734 C1733 1.363 . S
C1734 C1740 1.428 . S
H1735 C1731 0.930 . S
H1736 C1733 0.929 . S
S1737 N1738 1.613 . S
S1737 N1739 1.610 . S
N1738 S1737 1.613 . S
N1738 C1741 1.350 . S
N1739 S1737 1.610 . S
N1739 C1740 1.351 . S
C1740 C1734 1.428 . S
C1740 N1739 1.351 . S
C1740 C1741 1.434 . S
C1741 C1732 1.429 . S
C1741 N1738 1.350 . S
C1741 C1740 1.434 . S
C1742 C1743 1.369 . S
C1742 C1744 1.419 . S
C1742 H1746 0.930 . S
C1743 C1742 1.369 . S
C1743 C1752 1.429 . S
C1744 C1742 1.419 . S
C1744 C1745 1.363 . S
C1744 H1747 0.929 . S
C1745 C1744 1.363 . S
C1745 C1751 1.428 . S
H1746 C1742 0.930 . S
H1747 C1744 0.929 . S
S1748 N1749 1.613 . S
S1748 N1750 1.610 . S
N1749 S1748 1.613 . S
N1749 C1752 1.350 . S
N1750 S1748 1.610 . S
N1750 C1751 1.351 . S
C1751 C1745 1.428 . S
C1751 N1750 1.351 . S
C1751 C1752 1.434 . S
C1752 C1743 1.429 . S
C1752 N1749 1.350 . S
C1752 C1751 1.434 . S
C1753 C1754 1.369 . S
C1753 C1755 1.419 . S
C1753 H1757 0.930 . S
C1754 C1753 1.369 . S
C1754 C1763 1.429 . S
C1755 C1753 1.419 . S
C1755 C1756 1.363 . S
C1755 H1758 0.929 . S
C1756 C1755 1.363 . S
C1756 C1762 1.428 . S
H1757 C1753 0.930 . S
H1758 C1755 0.929 . S
S1759 N1760 1.613 . S
S1759 N1761 1.610 . S
N1760 S1759 1.613 . S
N1760 C1763 1.350 . S
N1761 S1759 1.610 . S
N1761 C1762 1.351 . S
C1762 C1756 1.428 . S
C1762 N1761 1.351 . S
C1762 C1763 1.434 . S
C1763 C1754 1.429 . S
C1763 N1760 1.350 . S
C1763 C1762 1.434 . S
C1764 C1765 1.369 . S
C1764 C1766 1.419 . S
C1764 H1768 0.930 . S
C1765 C1764 1.369 . S
C1765 C1774 1.429 . S
C1766 C1764 1.419 . S
C1766 C1767 1.363 . S
C1766 H1769 0.929 . S
C1767 C1766 1.363 . S
C1767 C1773 1.428 . S
H1768 C1764 0.930 . S
H1769 C1766 0.929 . S
S1770 N1771 1.613 . S
S1770 N1772 1.610 . S
N1771 S1770 1.613 . S
N1771 C1774 1.350 . S
N1772 S1770 1.610 . S
N1772 C1773 1.351 . S
C1773 C1767 1.428 . S
C1773 N1772 1.351 . S
C1773 C1774 1.434 . S
C1774 C1765 1.429 . S
C1774 N1771 1.350 . S
C1774 C1773 1.434 . S
C1775 C1776 1.369 . S
C1775 C1777 1.419 . S
C1775 H1779 0.930 . S
C1776 C1775 1.369 . S
C1776 C1785 1.429 . S
C1777 C1775 1.419 . S
C1777 C1778 1.363 . S
C1777 H1780 0.929 . S
C1778 C1777 1.363 . S
C1778 C1784 1.428 . S
H1779 C1775 0.930 . S
H1780 C1777 0.929 . S
S1781 N1782 1.613 . S
S1781 N1783 1.610 . S
N1782 S1781 1.613 . S
N1782 C1785 1.350 . S
N1783 S1781 1.610 . S
N1783 C1784 1.351 . S
C1784 C1778 1.428 . S
C1784 N1783 1.351 . S
C1784 C1785 1.434 . S
C1785 C1776 1.429 . S
C1785 N1782 1.350 . S
C1785 C1784 1.434 . S
C1786 C1787 1.369 . S
C1786 C1788 1.419 . S
C1786 H1790 0.930 . S
C1787 C1786 1.369 . S
C1787 C1796 1.429 . S
C1788 C1786 1.419 . S
C1788 C1789 1.363 . S
C1788 H1791 0.929 . S
C1789 C1788 1.363 . S
C1789 C1795 1.428 . S
H1790 C1786 0.930 . S
H1791 C1788 0.929 . S
S1792 N1793 1.613 . S
S1792 N1794 1.610 . S
N1793 S1792 1.613 . S
N1793 C1796 1.350 . S
N1794 S1792 1.610 . S
N1794 C1795 1.351 . S
C1795 C1789 1.428 . S
C1795 N1794 1.351 . S
C1795 C1796 1.434 . S
C1796 C1787 1.429 . S
C1796 N1793 1.350 . S
C1796 C1795 1.434 . S
C1797 C1798 1.369 . S
C1797 C1799 1.419 . S
C1797 H1801 0.930 . S
C1798 C1797 1.369 . S
C1798 C1807 1.429 . S
C1799 C1797 1.419 . S
C1799 C1800 1.363 . S
C1799 H1802 0.929 . S
C1800 C1799 1.363 . S
C1800 C1806 1.428 . S
H1801 C1797 0.930 . S
H1802 C1799 0.929 . S
S1803 N1804 1.613 . S
S1803 N1805 1.610 . S
N1804 S1803 1.613 . S
N1804 C1807 1.350 . S
N1805 S1803 1.610 . S
N1805 C1806 1.351 . S
C1806 C1800 1.428 . S
C1806 N1805 1.351 . S
C1806 C1807 1.434 . S
C1807 C1798 1.429 . S
C1807 N1804 1.350 . S
C1807 C1806 1.434 . S
C1808 C1809 1.369 . S
C1808 C1810 1.419 . S
C1808 H1812 0.930 . S
C1809 C1808 1.369 . S
C1809 C1818 1.429 . S
C1810 C1808 1.419 . S
C1810 C1811 1.363 . S
C1810 H1813 0.929 . S
C1811 C1810 1.363 . S
C1811 C1817 1.428 . S
H1812 C1808 0.930 . S
H1813 C1810 0.929 . S
S1814 N1815 1.613 . S
S1814 N1816 1.610 . S
N1815 S1814 1.613 . S
N1815 C1818 1.350 . S
N1816 S1814 1.610 . S
N1816 C1817 1.351 . S
C1817 C1811 1.428 . S
C1817 N1816 1.351 . S
C1817 C1818 1.434 . S
C1818 C1809 1.429 . S
C1818 N1815 1.350 . S
C1818 C1817 1.434 . S
C1819 C1820 1.369 . S
C1819 C1821 1.419 . S
C1819 H1823 0.930 . S
C1820 C1819 1.369 . S
C1820 C1829 1.429 . S
C1821 C1819 1.419 . S
C1821 C1822 1.363 . S
C1821 H1824 0.929 . S
C1822 C1821 1.363 . S
C1822 C1828 1.428 . S
H1823 C1819 0.930 . S
H1824 C1821 0.929 . S
S1825 N1826 1.613 . S
S1825 N1827 1.610 . S
N1826 S1825 1.613 . S
N1826 C1829 1.350 . S
N1827 S1825 1.610 . S
N1827 C1828 1.351 . S
C1828 C1822 1.428 . S
C1828 N1827 1.351 . S
C1828 C1829 1.434 . S
C1829 C1820 1.429 . S
C1829 N1826 1.350 . S
C1829 C1828 1.434 . S
C1830 C1831 1.369 . S
C1830 C1832 1.419 . S
C1830 H1834 0.930 . S
C1831 C1830 1.369 . S
C1831 C1840 1.429 . S
C1832 C1830 1.419 . S
C1832 C1833 1.363 . S
C1832 H1835 0.929 . S
C1833 C1832 1.363 . S
C1833 C1839 1.428 . S
H1834 C1830 0.930 . S
H1835 C1832 0.929 . S
S1836 N1837 1.613 . S
S1836 N1838 1.610 . S
N1837 S1836 1.613 . S
N1837 C1840 1.350 . S
N1838 S1836 1.610 . S
N1838 C1839 1.351 . S
C1839 C1833 1.428 . S
C1839 N1838 1.351 . S
C1839 C1840 1.434 . S
C1840 C1831 1.429 . S
C1840 N1837 1.350 . S
C1840 C1839 1.434 . S
C1841 C1842 1.369 . S
C1841 C1843 1.419 . S
C1841 H1845 0.930 . S
C1842 C1841 1.369 . S
C1842 C1851 1.429 . S
C1843 C1841 1.419 . S
C1843 C1844 1.363 . S
C1843 H1846 0.929 . S
C1844 C1843 1.363 . S
C1844 C1850 1.428 . S
H1845 C1841 0.930 . S
H1846 C1843 0.929 . S
S1847 N1848 1.613 . S
S1847 N1849 1.610 . S
N1848 S1847 1.613 . S
N1848 C1851 1.350 . S
N1849 S1847 1.610 . S
N1849 C1850 1.351 . S
C1850 C1844 1.428 . S
C1850 N1849 1.351 . S
C1850 C1851 1.434 . S
C1851 C1842 1.429 . S
C1851 N1848 1.350 . S
C1851 C1850 1.434 . S
C1852 C1853 1.369 . S
C1852 C1854 1.419 . S
C1852 H1856 0.930 . S
C1853 C1852 1.369 . S
C1853 C1862 1.429 . S
C1854 C1852 1.419 . S
C1854 C1855 1.363 . S
C1854 H1857 0.929 . S
C1855 C1854 1.363 . S
C1855 C1861 1.428 . S
H1856 C1852 0.930 . S
H1857 C1854 0.929 . S
S1858 N1859 1.613 . S
S1858 N1860 1.610 . S
N1859 S1858 1.613 . S
N1859 C1862 1.350 . S
N1860 S1858 1.610 . S
N1860 C1861 1.351 . S
C1861 C1855 1.428 . S
C1861 N1860 1.351 . S
C1861 C1862 1.434 . S
C1862 C1853 1.429 . S
C1862 N1859 1.350 . S
C1862 C1861 1.434 . S
C1863 C1864 1.369 . S
C1863 C1865 1.419 . S
C1863 H1867 0.930 . S
C1864 C1863 1.369 . S
C1864 C1873 1.429 . S
C1865 C1863 1.419 . S
C1865 C1866 1.363 . S
C1865 H1868 0.929 . S
C1866 C1865 1.363 . S
C1866 C1872 1.428 . S
H1867 C1863 0.930 . S
H1868 C1865 0.929 . S
S1869 N1870 1.613 . S
S1869 N1871 1.610 . S
N1870 S1869 1.613 . S
N1870 C1873 1.350 . S
N1871 S1869 1.610 . S
N1871 C1872 1.351 . S
C1872 C1866 1.428 . S
C1872 N1871 1.351 . S
C1872 C1873 1.434 . S
C1873 C1864 1.429 . S
C1873 N1870 1.350 . S
C1873 C1872 1.434 . S
C1874 C1875 1.369 . S
C1874 C1876 1.419 . S
C1874 H1878 0.930 . S
C1875 C1874 1.369 . S
C1875 C1884 1.429 . S
C1876 C1874 1.419 . S
C1876 C1877 1.363 . S
C1876 H1879 0.929 . S
C1877 C1876 1.363 . S
C1877 C1883 1.428 . S
H1878 C1874 0.930 . S
H1879 C1876 0.929 . S
S1880 N1881 1.613 . S
S1880 N1882 1.610 . S
N1881 S1880 1.613 . S
N1881 C1884 1.350 . S
N1882 S1880 1.610 . S
N1882 C1883 1.351 . S
C1883 C1877 1.428 . S
C1883 N1882 1.351 . S
C1883 C1884 1.434 . S
C1884 C1875 1.429 . S
C1884 N1881 1.350 . S
C1884 C1883 1.434 . S
C1885 C1886 1.369 . S
C1885 C1887 1.419 . S
C1885 H1889 0.930 . S
C1886 C1885 1.369 . S
C1886 C1895 1.429 . S
C1887 C1885 1.419 . S
C1887 C1888 1.363 . S
C1887 H1890 0.929 . S
C1888 C1887 1.363 . S
C1888 C1894 1.428 . S
H1889 C1885 0.930 . S
H1890 C1887 0.929 . S
S1891 N1892 1.613 . S
S1891 N1893 1.610 . S
N1892 S1891 1.613 . S
N1892 C1895 1.350 . S
N1893 S1891 1.610 . S
N1893 C1894 1.351 . S
C1894 C1888 1.428 . S
C1894 N1893 1.351 . S
C1894 C1895 1.434 . S
C1895 C1886 1.429 . S
C1895 N1892 1.350 . S
C1895 C1894 1.434 . S
C1896 C1897 1.369 . S
C1896 C1898 1.419 . S
C1896 H1900 0.930 . S
C1897 C1896 1.369 . S
C1897 C1906 1.429 . S
C1898 C1896 1.419 . S
C1898 C1899 1.363 . S
C1898 H1901 0.929 . S
C1899 C1898 1.363 . S
C1899 C1905 1.428 . S
H1900 C1896 0.930 . S
H1901 C1898 0.929 . S
S1902 N1903 1.613 . S
S1902 N1904 1.610 . S
N1903 S1902 1.613 . S
N1903 C1906 1.350 . S
N1904 S1902 1.610 . S
N1904 C1905 1.351 . S
C1905 C1899 1.428 . S
C1905 N1904 1.351 . S
C1905 C1906 1.434 . S
C1906 C1897 1.429 . S
C1906 N1903 1.350 . S
C1906 C1905 1.434 . S
C1907 C1908 1.369 . S
C1907 C1909 1.419 . S
C1907 H1911 0.930 . S
C1908 C1907 1.369 . S
C1908 C1917 1.429 . S
C1909 C1907 1.419 . S
C1909 C1910 1.363 . S
C1909 H1912 0.929 . S
C1910 C1909 1.363 . S
C1910 C1916 1.428 . S
H1911 C1907 0.930 . S
H1912 C1909 0.929 . S
S1913 N1914 1.613 . S
S1913 N1915 1.610 . S
N1914 S1913 1.613 . S
N1914 C1917 1.350 . S
N1915 S1913 1.610 . S
N1915 C1916 1.351 . S
C1916 C1910 1.428 . S
C1916 N1915 1.351 . S
C1916 C1917 1.434 . S
C1917 C1908 1.429 . S
C1917 N1914 1.350 . S
C1917 C1916 1.434 . S
C1918 C1919 1.369 . S
C1918 C1920 1.419 . S
C1918 H1922 0.930 . S
C1919 C1918 1.369 . S
C1919 C1928 1.429 . S
C1920 C1918 1.419 . S
C1920 C1921 1.363 . S
C1920 H1923 0.929 . S
C1921 C1920 1.363 . S
C1921 C1927 1.428 . S
H1922 C1918 0.930 . S
H1923 C1920 0.929 . S
S1924 N1925 1.613 . S
S1924 N1926 1.610 . S
N1925 S1924 1.613 . S
N1925 C1928 1.350 . S
N1926 S1924 1.610 . S
N1926 C1927 1.351 . S
C1927 C1921 1.428 . S
C1927 N1926 1.351 . S
C1927 C1928 1.434 . S
C1928 C1919 1.429 . S
C1928 N1925 1.350 . S
C1928 C1927 1.434 . S
C1929 C1930 1.369 . S
C1929 C1931 1.419 . S
C1929 H1933 0.930 . S
C1930 C1929 1.369 . S
C1930 C1939 1.429 . S
C1931 C1929 1.419 . S
C1931 C1932 1.363 . S
C1931 H1934 0.929 . S
C1932 C1931 1.363 . S
C1932 C1938 1.428 . S
H1933 C1929 0.930 . S
H1934 C1931 0.929 . S
S1935 N1936 1.613 . S
S1935 N1937 1.610 . S
N1936 S1935 1.613 . S
N1936 C1939 1.350 . S
N1937 S1935 1.610 . S
N1937 C1938 1.351 . S
C1938 C1932 1.428 . S
C1938 N1937 1.351 . S
C1938 C1939 1.434 . S
C1939 C1930 1.429 . S
C1939 N1936 1.350 . S
C1939 C1938 1.434 . S
C1940 C1941 1.369 . S
C1940 C1942 1.419 . S
C1940 H1944 0.930 . S
C1941 C1940 1.369 . S
C1941 C1950 1.429 . S
C1942 C1940 1.419 . S
C1942 C1943 1.363 . S
C1942 H1945 0.929 . S
C1943 C1942 1.363 . S
C1943 C1949 1.428 . S
H1944 C1940 0.930 . S
H1945 C1942 0.929 . S
S1946 N1947 1.613 . S
S1946 N1948 1.610 . S
N1947 S1946 1.613 . S
N1947 C1950 1.350 . S
N1948 S1946 1.610 . S
N1948 C1949 1.351 . S
C1949 C1943 1.428 . S
C1949 N1948 1.351 . S
C1949 C1950 1.434 . S
C1950 C1941 1.429 . S
C1950 N1947 1.350 . S
C1950 C1949 1.434 . S
C1951 C1952 1.369 . S
C1951 C1953 1.419 . S
C1951 H1955 0.930 . S
C1952 C1951 1.369 . S
C1952 C1961 1.429 . S
C1953 C1951 1.419 . S
C1953 C1954 1.363 . S
C1953 H1956 0.929 . S
C1954 C1953 1.363 . S
C1954 C1960 1.428 . S
H1955 C1951 0.930 . S
H1956 C1953 0.929 . S
S1957 N1958 1.613 . S
S1957 N1959 1.610 . S
N1958 S1957 1.613 . S
N1958 C1961 1.350 . S
N1959 S1957 1.610 . S
N1959 C1960 1.351 . S
C1960 C1954 1.428 . S
C1960 N1959 1.351 . S
C1960 C1961 1.434 . S
C1961 C1952 1.429 . S
C1961 N1958 1.350 . S
C1961 C1960 1.434 . S
C1962 C1963 1.369 . S
C1962 C1964 1.419 . S
C1962 H1966 0.930 . S
C1963 C1962 1.369 . S
C1963 C1972 1.429 . S
C1964 C1962 1.419 . S
C1964 C1965 1.363 . S
C1964 H1967 0.929 . S
C1965 C1964 1.363 . S
C1965 C1971 1.428 . S
H1966 C1962 0.930 . S
H1967 C1964 0.929 . S
S1968 N1969 1.613 . S
S1968 N1970 1.610 . S
N1969 S1968 1.613 . S
N1969 C1972 1.350 . S
N1970 S1968 1.610 . S
N1970 C1971 1.351 . S
C1971 C1965 1.428 . S
C1971 N1970 1.351 . S
C1971 C1972 1.434 . S
C1972 C1963 1.429 . S
C1972 N1969 1.350 . S
C1972 C1971 1.434 . S
C1973 C1974 1.369 . S
C1973 C1975 1.419 . S
C1973 H1977 0.930 . S
C1974 C1973 1.369 . S
C1974 C1983 1.429 . S
C1975 C1973 1.419 . S
C1975 C1976 1.363 . S
C1975 H1978 0.929 . S
C1976 C1975 1.363 . S
C1976 C1982 1.428 . S
H1977 C1973 0.930 . S
H1978 C1975 0.929 . S
S1979 N1980 1.613 . S
S1979 N1981 1.610 . S
N1980 S1979 1.613 . S
N1980 C1983 1.350 . S
N1981 S1979 1.610 . S
N1981 C1982 1.351 . S
C1982 C1976 1.428 . S
C1982 N1981 1.351 . S
C1982 C1983 1.434 . S
C1983 C1974 1.429 . S
C1983 N1980 1.350 . S
C1983 C1982 1.434 . S
C1984 C1985 1.369 . S
C1984 C1986 1.419 . S
C1984 H1988 0.930 . S
C1985 C1984 1.369 . S
C1985 C1994 1.429 . S
C1986 C1984 1.419 . S
C1986 C1987 1.363 . S
C1986 H1989 0.929 . S
C1987 C1986 1.363 . S
C1987 C1993 1.428 1_545 S
H1988 C1984 0.930 . S
H1989 C1986 0.929 . S
S1990 N1991 1.613 . S
S1990 N1992 1.610 . S
N1991 S1990 1.613 . S
N1991 C1994 1.350 1_565 S
N1992 S1990 1.610 . S
N1992 C1993 1.354 . S
C1993 C1987 1.428 1_565 S
C1993 N1992 1.354 . S
C1993 C1994 1.433 1_565 S
C1994 C1985 1.429 . S
C1994 N1991 1.350 1_545 S
C1994 C1993 1.433 1_545 S
C1995 C1996 1.369 . S
C1995 C1997 1.419 . S
C1995 H1999 0.930 . S
C1996 C1995 1.369 . S
C1996 C2005 1.429 1_455 S
C1997 C1995 1.419 . S
C1997 C1998 1.363 1_455 S
C1997 H2000 0.929 . S
C1998 C1997 1.363 1_655 S
C1998 C2004 1.428 . S
H1999 C1995 0.930 . S
H2000 C1997 0.929 . S
S2001 N2002 1.613 . S
S2001 N2003 1.610 . S
N2002 S2001 1.613 . S
N2002 C2005 1.350 . S
N2003 S2001 1.610 . S
N2003 C2004 1.351 . S
C2004 C1998 1.428 . S
C2004 N2003 1.351 . S
C2004 C2005 1.434 . S
C2005 C1996 1.429 1_655 S
C2005 N2002 1.350 . S
C2005 C2004 1.434 . S
C2006 C2007 1.369 . S
C2006 C2008 1.419 . S
C2006 H2010 0.930 . S
C2007 C2006 1.369 . S
C2007 C2016 1.429 . S
C2008 C2006 1.419 . S
C2008 C2009 1.363 . S
C2008 H2011 0.929 . S
C2009 C2008 1.363 . S
C2009 C2015 1.428 . S
H2010 C2006 0.930 . S
H2011 C2008 0.929 . S
S2012 N2013 1.613 . S
S2012 N2014 1.610 . S
N2013 S2012 1.613 . S
N2013 C2016 1.350 . S
N2014 S2012 1.610 . S
N2014 C2015 1.351 . S
C2015 C2009 1.428 . S
C2015 N2014 1.351 . S
C2015 C2016 1.434 . S
C2016 C2007 1.429 . S
C2016 N2013 1.350 . S
C2016 C2015 1.434 . S
C2017 C2018 1.369 1_455 S
C2017 C2019 1.419 . S
C2017 H2021 0.930 . S
C2018 C2017 1.369 1_655 S
C2018 C2027 1.429 1_545 S
C2019 C2017 1.419 . S
C2019 C2020 1.363 . S
C2019 H2022 0.929 . S
C2020 C2019 1.363 . S
C2020 C2026 1.428 1_445 S
H2021 C2017 0.930 . S
H2022 C2019 0.929 . S
S2023 N2024 1.613 . S
S2023 N2025 1.610 . S
N2024 S2023 1.613 . S
N2024 C2027 1.350 . S
N2025 S2023 1.610 . S
N2025 C2026 1.351 . S
C2026 C2020 1.428 1_665 S
C2026 N2025 1.351 . S
C2026 C2027 1.434 . S
C2027 C2018 1.429 1_565 S
C2027 N2024 1.350 . S
C2027 C2026 1.434 . S
C2028 C2029 1.370 . S
C2028 C2030 1.421 . S
C2028 H2032 0.927 1_565 S
C2029 C2028 1.370 . S
C2029 C2038 1.429 . S
C2030 C2028 1.421 . S
C2030 C2031 1.363 . S
C2030 H2033 0.929 . S
C2031 C2030 1.363 . S
C2031 C2037 1.428 . S
H2032 C2028 0.927 1_545 S
H2033 C2030 0.929 . S
S2034 N2035 1.613 . S
S2034 N2036 1.610 . S
N2035 S2034 1.613 . S
N2035 C2038 1.350 . S
N2036 S2034 1.610 . S
N2036 C2037 1.351 . S
C2037 C2031 1.428 . S
C2037 N2036 1.351 . S
C2037 C2038 1.434 . S
C2038 C2029 1.429 . S
C2038 N2035 1.350 . S
C2038 C2037 1.434 . S
C2039 C2040 1.369 . S
C2039 C2041 1.419 . S
C2039 H2043 0.930 . S
C2040 C2039 1.369 . S
C2040 C2049 1.429 1_455 S
C2041 C2039 1.419 . S
C2041 C2042 1.363 1_455 S
C2041 H2044 0.929 . S
C2042 C2041 1.363 1_655 S
C2042 C2048 1.428 . S
H2043 C2039 0.930 . S
H2044 C2041 0.929 . S
S2045 N2046 1.613 . S
S2045 N2047 1.610 . S
N2046 S2045 1.613 . S
N2046 C2049 1.350 . S
N2047 S2045 1.610 . S
N2047 C2048 1.351 . S
C2048 C2042 1.428 . S
C2048 N2047 1.351 . S
C2048 C2049 1.434 . S
C2049 C2040 1.429 1_655 S
C2049 N2046 1.350 . S
C2049 C2048 1.434 . S
C2050 C2051 1.369 . S
C2050 C2052 1.419 . S
C2050 H2054 0.930 . S
C2051 C2050 1.369 . S
C2051 C2060 1.429 . S
C2052 C2050 1.419 . S
C2052 C2053 1.363 . S
C2052 H2055 0.929 . S
C2053 C2052 1.363 . S
C2053 C2059 1.428 . S
H2054 C2050 0.930 . S
H2055 C2052 0.929 . S
S2056 N2057 1.613 . S
S2056 N2058 1.610 . S
N2057 S2056 1.613 . S
N2057 C2060 1.350 . S
N2058 S2056 1.610 . S
N2058 C2059 1.351 . S
C2059 C2053 1.428 . S
C2059 N2058 1.351 . S
C2059 C2060 1.434 . S
C2060 C2051 1.429 . S
C2060 N2057 1.350 . S
C2060 C2059 1.434 . S
C2061 C2062 1.369 . S
C2061 C2063 1.419 . S
C2061 H2065 0.930 . S
C2062 C2061 1.369 . S
C2062 C2071 1.429 1_665 S
C2063 C2061 1.419 . S
C2063 C2064 1.363 1_655 S
C2063 H2066 0.929 . S
C2064 C2063 1.363 1_455 S
C2064 C2070 1.428 1_565 S
H2065 C2061 0.930 . S
H2066 C2063 0.929 . S
S2067 N2068 1.613 . S
S2067 N2069 1.610 . S
N2068 S2067 1.613 . S
N2068 C2071 1.350 . S
N2069 S2067 1.610 . S
N2069 C2070 1.351 . S
C2070 C2064 1.428 1_545 S
C2070 N2069 1.351 . S
C2070 C2071 1.434 . S
C2071 C2062 1.429 1_445 S
C2071 N2068 1.350 . S
C2071 C2070 1.434 . S
C2072 C2073 1.369 . S
C2072 C2074 1.419 . S
C2072 H2076 0.930 . S
C2073 C2072 1.369 . S
C2073 C2082 1.429 . S
C2074 C2072 1.419 . S
C2074 C2075 1.363 . S
C2074 H2077 0.929 . S
C2075 C2074 1.363 . S
C2075 C2081 1.428 . S
H2076 C2072 0.930 . S
H2077 C2074 0.929 . S
S2078 N2079 1.613 . S
S2078 N2080 1.610 . S
N2079 S2078 1.613 . S
N2079 C2082 1.350 . S
N2080 S2078 1.610 . S
N2080 C2081 1.351 . S
C2081 C2075 1.428 . S
C2081 N2080 1.351 . S
C2081 C2082 1.434 . S
C2082 C2073 1.429 . S
C2082 N2079 1.350 . S
C2082 C2081 1.434 . S
C2083 C2084 1.369 . S
C2083 C2085 1.419 . S
C2083 H2087 0.930 . S
C2084 C2083 1.369 . S
C2084 C2093 1.429 1_455 S
C2085 C2083 1.419 . S
C2085 C2086 1.363 1_455 S
C2085 H2088 0.929 . S
C2086 C2085 1.363 1_655 S
C2086 C2092 1.428 . S
H2087 C2083 0.930 . S
H2088 C2085 0.929 . S
S2089 N2090 1.613 . S
S2089 N2091 1.610 . S
N2090 S2089 1.613 . S
N2090 C2093 1.350 . S
N2091 S2089 1.610 . S
N2091 C2092 1.351 . S
C2092 C2086 1.428 . S
C2092 N2091 1.351 . S
C2092 C2093 1.434 . S
C2093 C2084 1.429 1_655 S
C2093 N2090 1.350 . S
C2093 C2092 1.434 . S
C2094 C2095 1.369 . S
C2094 C2096 1.419 . S
C2094 H2098 0.930 . S
C2095 C2094 1.369 . S
C2095 C2104 1.429 . S
C2096 C2094 1.419 . S
C2096 C2097 1.363 . S
C2096 H2099 0.929 . S
C2097 C2096 1.363 . S
C2097 C2103 1.428 . S
H2098 C2094 0.930 . S
H2099 C2096 0.929 . S
S2100 N2101 1.613 . S
S2100 N2102 1.610 . S
N2101 S2100 1.613 . S
N2101 C2104 1.350 . S
N2102 S2100 1.610 . S
N2102 C2103 1.351 . S
C2103 C2097 1.428 . S
C2103 N2102 1.351 . S
C2103 C2104 1.434 . S
C2104 C2095 1.429 . S
C2104 N2101 1.350 . S
C2104 C2103 1.434 . S
C2105 C2106 1.369 . S
C2105 C2107 1.419 . S
C2105 H2109 0.930 . S
C2106 C2105 1.369 . S
C2106 C2115 1.429 1_455 S
C2107 C2105 1.419 . S
C2107 C2108 1.363 1_455 S
C2107 H2110 0.929 . S
C2108 C2107 1.363 1_655 S
C2108 C2114 1.428 . S
H2109 C2105 0.930 . S
H2110 C2107 0.929 . S
S2111 N2112 1.613 . S
S2111 N2113 1.610 . S
N2112 S2111 1.613 . S
N2112 C2115 1.350 . S
N2113 S2111 1.610 . S
N2113 C2114 1.351 . S
C2114 C2108 1.428 . S
C2114 N2113 1.351 . S
C2114 C2115 1.434 . S
C2115 C2106 1.429 1_655 S
C2115 N2112 1.350 . S
C2115 C2114 1.434 . S
C2116 C2117 1.369 . S
C2116 C2118 1.419 . S
C2116 H2120 0.930 . S
C2117 C2116 1.369 . S
C2117 C2126 1.429 . S
C2118 C2116 1.419 . S
C2118 C2119 1.363 . S
C2118 H2121 0.929 . S
C2119 C2118 1.363 . S
C2119 C2125 1.428 . S
H2120 C2116 0.930 . S
H2121 C2118 0.929 . S
S2122 N2123 1.613 . S
S2122 N2124 1.610 . S
N2123 S2122 1.613 . S
N2123 C2126 1.350 . S
N2124 S2122 1.610 . S
N2124 C2125 1.351 . S
C2125 C2119 1.428 . S
C2125 N2124 1.351 . S
C2125 C2126 1.434 . S
C2126 C2117 1.429 . S
C2126 N2123 1.350 . S
C2126 C2125 1.434 . S
C2127 C2128 1.369 1_655 S
C2127 C2129 1.419 . S
C2127 H2131 0.930 . S
C2128 C2127 1.369 1_455 S
C2128 C2137 1.429 . S
C2129 C2127 1.419 . S
C2129 C2130 1.363 . S
C2129 H2132 0.929 . S
C2130 C2129 1.363 . S
C2130 C2136 1.428 1_655 S
H2131 C2127 0.930 . S
H2132 C2129 0.929 . S
S2133 N2134 1.613 . S
S2133 N2135 1.610 . S
N2134 S2133 1.613 . S
N2134 C2137 1.350 . S
N2135 S2133 1.610 . S
N2135 C2136 1.351 . S
C2136 C2130 1.428 1_455 S
C2136 N2135 1.351 . S
C2136 C2137 1.434 . S
C2137 C2128 1.429 . S
C2137 N2134 1.350 . S
C2137 C2136 1.434 . S
C2138 C2139 1.369 . S
C2138 C2140 1.419 . S
C2138 H2142 0.930 . S
C2139 C2138 1.369 . S
C2139 C2148 1.429 . S
C2140 C2138 1.419 . S
C2140 C2141 1.363 . S
C2140 H2143 0.929 . S
C2141 C2140 1.363 . S
C2141 C2147 1.428 . S
H2142 C2138 0.930 . S
H2143 C2140 0.929 . S
S2144 N2145 1.613 . S
S2144 N2146 1.610 . S
N2145 S2144 1.613 . S
N2145 C2148 1.350 . S
N2146 S2144 1.610 . S
N2146 C2147 1.351 . S
C2147 C2141 1.428 . S
C2147 N2146 1.351 . S
C2147 C2148 1.434 . S
C2148 C2139 1.429 . S
C2148 N2145 1.350 . S
C2148 C2147 1.434 . S
C2149 C2150 1.369 1_455 S
C2149 C2151 1.419 . S
C2149 H2153 0.930 . S
C2150 C2149 1.369 1_655 S
C2150 C2159 1.429 . S
C2151 C2149 1.419 . S
C2151 C2152 1.363 . S
C2151 H2154 0.929 . S
C2152 C2151 1.363 . S
C2152 C2158 1.428 1_455 S
H2153 C2149 0.930 . S
H2154 C2151 0.929 . S
S2155 N2156 1.613 . S
S2155 N2157 1.610 . S
N2156 S2155 1.613 . S
N2156 C2159 1.350 . S
N2157 S2155 1.610 . S
N2157 C2158 1.351 . S
C2158 C2152 1.428 1_655 S
C2158 N2157 1.351 . S
C2158 C2159 1.434 . S
C2159 C2150 1.429 . S
C2159 N2156 1.350 . S
C2159 C2158 1.434 . S
C2160 C2161 1.369 . S
C2160 C2162 1.419 . S
C2160 H2164 0.930 . S
C2161 C2160 1.369 . S
C2161 C2170 1.429 1_545 S
C2162 C2160 1.419 . S
C2162 C2163 1.393 . S
C2162 H2165 0.929 . S
C2163 C2162 1.393 . S
C2163 C2169 1.401 1_545 S
H2164 C2160 0.930 . S
H2165 C2162 0.929 . S
S2166 N2167 1.613 . S
S2166 N2168 1.610 . S
N2167 S2166 1.613 . S
N2167 C2170 1.350 . S
N2168 S2166 1.610 . S
N2168 C2169 1.351 . S
C2169 C2163 1.401 1_565 S
C2169 N2168 1.351 . S
C2169 C2170 1.434 . S
C2170 C2161 1.429 1_565 S
C2170 N2167 1.350 . S
C2170 C2169 1.434 . S
C2171 C2172 1.369 . S
C2171 C2173 1.419 . S
C2171 H2175 0.930 . S
C2172 C2171 1.369 . S
C2172 C2181 1.429 . S
C2173 C2171 1.419 . S
C2173 C2174 1.363 . S
C2173 H2176 0.929 . S
C2174 C2173 1.363 . S
C2174 C2180 1.428 . S
H2175 C2171 0.930 . S
H2176 C2173 0.929 . S
S2177 N2178 1.613 . S
S2177 N2179 1.610 . S
N2178 S2177 1.613 . S
N2178 C2181 1.350 . S
N2179 S2177 1.610 . S
N2179 C2180 1.351 . S
C2180 C2174 1.428 . S
C2180 N2179 1.351 . S
C2180 C2181 1.434 . S
C2181 C2172 1.429 . S
C2181 N2178 1.350 . S
C2181 C2180 1.434 . S
C2182 C2183 1.369 . S
C2182 C2184 1.419 . S
C2182 H2186 0.930 . S
C2183 C2182 1.369 . S
C2183 C2192 1.429 . S
C2184 C2182 1.419 . S
C2184 C2185 1.363 . S
C2184 H2187 0.929 . S
C2185 C2184 1.363 . S
C2185 C2191 1.428 . S
H2186 C2182 0.930 . S
H2187 C2184 0.929 . S
S2188 N2189 1.613 . S
S2188 N2190 1.610 . S
N2189 S2188 1.613 . S
N2189 C2192 1.350 . S
N2190 S2188 1.610 . S
N2190 C2191 1.351 . S
C2191 C2185 1.428 . S
C2191 N2190 1.351 . S
C2191 C2192 1.434 . S
C2192 C2183 1.429 . S
C2192 N2189 1.350 . S
C2192 C2191 1.434 . S
C2193 C2194 1.369 . S
C2193 C2195 1.419 . S
C2193 H2197 0.930 . S
C2194 C2193 1.369 . S
C2194 C2203 1.429 1_545 S
C2195 C2193 1.419 . S
C2195 C2196 1.363 . S
C2195 H2198 0.929 . S
C2196 C2195 1.363 . S
C2196 C2202 1.428 1_545 S
H2197 C2193 0.930 . S
H2198 C2195 0.929 . S
S2199 N2200 1.613 . S
S2199 N2201 1.610 . S
N2200 S2199 1.613 . S
N2200 C2203 1.350 . S
N2201 S2199 1.610 . S
N2201 C2202 1.351 . S
C2202 C2196 1.428 1_565 S
C2202 N2201 1.351 . S
C2202 C2203 1.434 . S
C2203 C2194 1.429 1_565 S
C2203 N2200 1.350 . S
C2203 C2202 1.434 . S
C2204 C2205 1.369 1_545 S
C2204 C2206 1.419 . S
C2204 H2208 0.930 . S
C2205 C2204 1.369 1_565 S
C2205 C2214 1.429 . S
C2206 C2204 1.419 . S
C2206 C2207 1.363 1_545 S
C2206 H2209 0.929 . S
C2207 C2206 1.363 1_565 S
C2207 C2213 1.428 . S
H2208 C2204 0.930 . S
H2209 C2206 0.929 . S
S2210 N2211 1.613 . S
S2210 N2212 1.610 . S
N2211 S2210 1.613 . S
N2211 C2214 1.350 . S
N2212 S2210 1.610 . S
N2212 C2213 1.351 . S
C2213 C2207 1.428 . S
C2213 N2212 1.351 . S
C2213 C2214 1.434 . S
C2214 C2205 1.429 . S
C2214 N2211 1.350 . S
C2214 C2213 1.434 . S
C2215 C2216 1.369 . S
C2215 C2217 1.419 . S
C2215 H2219 0.930 . S
C2216 C2215 1.369 . S
C2216 C2225 1.429 . S
C2217 C2215 1.419 . S
C2217 C2218 1.363 . S
C2217 H2220 0.929 . S
C2218 C2217 1.363 . S
C2218 C2224 1.428 . S
H2219 C2215 0.930 . S
H2220 C2217 0.929 . S
S2221 N2222 1.613 . S
S2221 N2223 1.610 . S
N2222 S2221 1.613 . S
N2222 C2225 1.350 . S
N2223 S2221 1.610 . S
N2223 C2224 1.351 . S
C2224 C2218 1.428 . S
C2224 N2223 1.351 . S
C2224 C2225 1.434 . S
C2225 C2216 1.429 . S
C2225 N2222 1.350 . S
C2225 C2224 1.434 . S
C2226 C2227 1.369 . S
C2226 C2228 1.419 . S
C2226 H2230 0.930 . S
C2227 C2226 1.369 . S
C2227 C2236 1.429 . S
C2228 C2226 1.419 . S
C2228 C2229 1.363 . S
C2228 H2231 0.929 . S
C2229 C2228 1.363 . S
C2229 C2235 1.428 . S
H2230 C2226 0.930 . S
H2231 C2228 0.929 . S
S2232 N2233 1.613 . S
S2232 N2234 1.610 . S
N2233 S2232 1.613 . S
N2233 C2236 1.350 . S
N2234 S2232 1.610 . S
N2234 C2235 1.351 . S
C2235 C2229 1.428 . S
C2235 N2234 1.351 . S
C2235 C2236 1.434 . S
C2236 C2227 1.429 . S
C2236 N2233 1.350 . S
C2236 C2235 1.434 . S
C2237 C2238 1.369 . S
C2237 C2239 1.419 . S
C2237 H2241 0.930 . S
C2238 C2237 1.369 . S
C2238 C2247 1.429 1_565 S
C2239 C2237 1.419 . S
C2239 C2240 1.387 . S
C2239 H2242 0.929 . S
C2240 C2239 1.387 . S
C2240 C2246 1.407 1_565 S
H2241 C2237 0.930 . S
H2242 C2239 0.929 . S
S2243 N2244 1.613 . S
S2243 N2245 1.610 . S
N2244 S2243 1.613 . S
N2244 C2247 1.350 . S
N2245 S2243 1.610 . S
N2245 C2246 1.351 . S
C2246 C2240 1.407 1_545 S
C2246 N2245 1.351 . S
C2246 C2247 1.434 . S
C2247 C2238 1.429 1_545 S
C2247 N2244 1.350 . S
C2247 C2246 1.434 . S
C2248 C2249 1.369 . S
C2248 C2250 1.419 . S
C2248 H2252 0.930 . S
C2249 C2248 1.369 . S
C2249 C2258 1.429 . S
C2250 C2248 1.419 . S
C2250 C2251 1.363 . S
C2250 H2253 0.929 . S
C2251 C2250 1.363 . S
C2251 C2257 1.428 . S
H2252 C2248 0.930 . S
H2253 C2250 0.929 . S
S2254 N2255 1.613 . S
S2254 N2256 1.610 . S
N2255 S2254 1.613 . S
N2255 C2258 1.350 . S
N2256 S2254 1.610 . S
N2256 C2257 1.351 . S
C2257 C2251 1.428 . S
C2257 N2256 1.351 . S
C2257 C2258 1.434 . S
C2258 C2249 1.429 . S
C2258 N2255 1.350 . S
C2258 C2257 1.434 . S
C2259 C2260 1.369 . S
C2259 C2261 1.419 . S
C2259 H2263 0.930 . S
C2260 C2259 1.369 . S
C2260 C2269 1.429 . S
C2261 C2259 1.419 . S
C2261 C2262 1.363 . S
C2261 H2264 0.929 . S
C2262 C2261 1.363 . S
C2262 C2268 1.428 . S
H2263 C2259 0.930 . S
H2264 C2261 0.929 . S
S2265 N2266 1.613 . S
S2265 N2267 1.610 . S
N2266 S2265 1.613 . S
N2266 C2269 1.350 . S
N2267 S2265 1.610 . S
N2267 C2268 1.351 . S
C2268 C2262 1.428 . S
C2268 N2267 1.351 . S
C2268 C2269 1.434 . S
C2269 C2260 1.429 . S
C2269 N2266 1.350 . S
C2269 C2268 1.434 . S
C2270 C2271 1.369 . S
C2270 C2272 1.419 . S
C2270 H2274 0.930 . S
C2271 C2270 1.369 . S
C2271 C2280 1.429 . S
C2272 C2270 1.419 . S
C2272 C2273 1.363 . S
C2272 H2275 0.929 . S
C2273 C2272 1.363 . S
C2273 C2279 1.428 . S
H2274 C2270 0.930 . S
H2275 C2272 0.929 . S
S2276 N2277 1.613 . S
S2276 N2278 1.610 . S
N2277 S2276 1.613 . S
N2277 C2280 1.350 . S
N2278 S2276 1.610 . S
N2278 C2279 1.351 . S
C2279 C2273 1.428 . S
C2279 N2278 1.351 . S
C2279 C2280 1.434 . S
C2280 C2271 1.429 . S
C2280 N2277 1.350 . S
C2280 C2279 1.434 . S
C2281 C2282 1.369 . S
C2281 C2283 1.419 . S
C2281 H2285 0.930 . S
C2282 C2281 1.369 . S
C2282 C2291 1.429 . S
C2283 C2281 1.419 . S
C2283 C2284 1.363 . S
C2283 H2286 0.929 . S
C2284 C2283 1.363 . S
C2284 C2290 1.428 . S
H2285 C2281 0.930 . S
H2286 C2283 0.929 . S
S2287 N2288 1.613 . S
S2287 N2289 1.610 . S
N2288 S2287 1.613 . S
N2288 C2291 1.350 . S
N2289 S2287 1.610 . S
N2289 C2290 1.351 . S
C2290 C2284 1.428 . S
C2290 N2289 1.351 . S
C2290 C2291 1.434 . S
C2291 C2282 1.429 . S
C2291 N2288 1.350 . S
C2291 C2290 1.434 . S
C2292 C2293 1.369 . S
C2292 C2294 1.419 . S
C2292 H2296 0.930 . S
C2293 C2292 1.369 . S
C2293 C2302 1.429 . S
C2294 C2292 1.419 . S
C2294 C2295 1.363 . S
C2294 H2297 0.929 . S
C2295 C2294 1.363 . S
C2295 C2301 1.428 . S
H2296 C2292 0.930 . S
H2297 C2294 0.929 . S
S2298 N2299 1.613 . S
S2298 N2300 1.610 . S
N2299 S2298 1.613 . S
N2299 C2302 1.350 . S
N2300 S2298 1.610 . S
N2300 C2301 1.351 . S
C2301 C2295 1.428 . S
C2301 N2300 1.351 . S
C2301 C2302 1.434 . S
C2302 C2293 1.429 . S
C2302 N2299 1.350 . S
C2302 C2301 1.434 . S
C2303 C2304 1.369 . S
C2303 C2305 1.419 . S
C2303 H2307 0.930 . S
C2304 C2303 1.369 . S
C2304 C2313 1.429 . S
C2305 C2303 1.419 . S
C2305 C2306 1.363 . S
C2305 H2308 0.929 . S
C2306 C2305 1.363 . S
C2306 C2312 1.428 . S
H2307 C2303 0.930 . S
H2308 C2305 0.929 . S
S2309 N2310 1.613 . S
S2309 N2311 1.610 . S
N2310 S2309 1.613 . S
N2310 C2313 1.350 . S
N2311 S2309 1.610 . S
N2311 C2312 1.351 . S
C2312 C2306 1.428 . S
C2312 N2311 1.351 . S
C2312 C2313 1.434 . S
C2313 C2304 1.429 . S
C2313 N2310 1.350 . S
C2313 C2312 1.434 . S
C2314 C2315 1.369 . S
C2314 C2316 1.419 . S
C2314 H2318 0.930 . S
C2315 C2314 1.369 . S
C2315 C2324 1.429 . S
C2316 C2314 1.419 . S
C2316 C2317 1.363 . S
C2316 H2319 0.929 . S
C2317 C2316 1.363 . S
C2317 C2323 1.428 . S
H2318 C2314 0.930 . S
H2319 C2316 0.929 . S
S2320 N2321 1.613 . S
S2320 N2322 1.610 . S
N2321 S2320 1.613 . S
N2321 C2324 1.350 . S
N2322 S2320 1.610 . S
N2322 C2323 1.351 . S
C2323 C2317 1.428 . S
C2323 N2322 1.351 . S
C2323 C2324 1.434 . S
C2324 C2315 1.429 . S
C2324 N2321 1.350 . S
C2324 C2323 1.434 . S
C2325 C2326 1.369 . S
C2325 C2327 1.419 . S
C2325 H2329 0.930 . S
C2326 C2325 1.369 . S
C2326 C2335 1.429 . S
C2327 C2325 1.419 . S
C2327 C2328 1.363 . S
C2327 H2330 0.929 . S
C2328 C2327 1.363 . S
C2328 C2334 1.428 . S
H2329 C2325 0.930 . S
H2330 C2327 0.929 . S
S2331 N2332 1.613 . S
S2331 N2333 1.610 . S
N2332 S2331 1.613 . S
N2332 C2335 1.350 . S
N2333 S2331 1.610 . S
N2333 C2334 1.351 . S
C2334 C2328 1.428 . S
C2334 N2333 1.351 . S
C2334 C2335 1.434 . S
C2335 C2326 1.429 . S
C2335 N2332 1.350 . S
C2335 C2334 1.434 . S
C1281 C1018 1.569 . S
C1283 C18 1.576 . S
C1292 C978 1.577 . S
C1294 C58 1.573 . S
C1303 C1098 1.574 . S
C1305 C98 1.573 . S
C1314 C1058 1.575 . S
C1316 C138 1.574 . S
C1325 C169 1.570 . S
C1327 C1169 1.569 . S
C1336 C209 1.572 . S
C1338 C1129 1.568 . S
C1347 C249 1.574 . S
C1349 C1249 1.574 . S
C1358 C1209 1.567 . S
C1360 C289 1.573 . S
C1369 C698 1.574 . S
C1371 C338 1.568 . S
C1380 C658 1.574 . S
C1382 C378 1.567 . S
C1391 C778 1.568 . S
C1393 C418 1.575 . S
C1402 C738 1.567 . S
C1404 C458 1.573 . S
C1413 C489 1.569 . S
C1415 C849 1.575 . S
C1424 C809 1.574 . S
C1426 C529 1.567 . S
C1435 C569 1.569 . S
C1437 C929 1.568 . S
C1446 C889 1.575 . S
C1448 C609 1.575 . S
C1457 C15 0.694 . S
C1459 C806 0.713 . S
C1468 C526 0.700 . S
C1470 C55 0.707 . S
C1479 C1206 0.701 . S
C1481 C95 0.708 . S
C1490 C135 0.695 . S
C1492 C286 0.707 . S
C1501 C166 0.709 . S
C1503 C655 0.702 . S
C1512 C206 0.696 . S
C1514 C375 0.711 . S
C1523 C246 0.717 . S
C1525 C1055 0.696 . S
C1534 C1126 0.693 . S
C1536 C335 0.712 . S
C1545 C886 0.706 . S
C1547 C415 0.702 . S
C1556 C606 0.715 . S
C1558 C455 0.694 . S
C1567 C975 0.693 . S
C1569 C486 0.712 . S
C1578 C566 0.716 . S
C1580 C735 0.695 . S
C1589 C1166 0.712 . S
C1591 C695 0.696 . S
C1600 C775 0.692 . S
C1602 C926 0.712 . S
C1611 C1015 0.707 . S
C1613 C846 0.701 . S
C1622 C1095 0.697 . S
C1624 C1246 0.708 . S
C1633 C6 2.326 . S
C1635 C766 2.331 . S
C1644 C46 2.335 . S
C1646 C726 2.327 . S
C1655 C86 2.332 . S
C1657 C686 2.331 . S
C1666 C126 2.331 . S
C1668 C646 2.329 . S
C1677 C175 2.324 . S
C1679 C935 2.333 . S
C1688 C215 2.336 . S
C1690 C895 2.326 . S
C1699 C255 2.336 . S
C1701 C855 2.327 . S
C1710 C295 2.334 . S
C1712 C815 2.327 . S
C1721 C326 2.335 . S
C1723 C1086 2.326 . S
C1732 C366 2.329 . S
C1734 C1046 2.333 . S
C1743 C406 2.326 . S
C1745 C1006 2.334 . S
C1754 C446 2.326 . S
C1756 C966 2.333 . S
C1765 C1255 2.325 . S
C1767 C495 2.334 . S
C1776 C1215 2.336 . S
C1778 C535 2.328 . S
C1787 C1175 2.336 . S
C1789 C575 2.326 . S
C1798 C1135 2.324 . S
C1800 C615 2.334 . S
C1809 C89 1.923 . S
C1811 C9 1.924 . S
C1820 C129 1.924 . S
C1822 C49 1.920 . S
C1831 C258 1.922 . S
C1833 C178 1.918 . S
C1842 C218 1.925 . S
C1844 C298 1.921 . S
C1853 C409 1.918 . S
C1855 C329 1.923 . S
C1864 C369 1.925 . S
C1866 C449 1.921 . S
C1875 C578 1.920 . S
C1877 C498 1.924 . S
C1886 C538 1.918 . S
C1888 C618 1.921 . S
C1897 C649 1.924 . S
C1899 C729 1.920 . S
C1908 C689 1.922 . S
C1910 C769 1.925 . S
C1919 C898 1.925 . S
C1921 C818 1.924 . S
C1930 C858 1.921 . S
C1932 C938 1.925 . S
C1941 C969 1.923 . S
C1943 C1049 1.919 . S
C1952 C1089 1.925 . S
C1954 C1009 1.921 . S
C1963 C1138 1.924 . S
C1965 C1218 1.923 . S
C1974 C1178 1.924 . S
C1976 C1258 1.919 . S
C1985 C10 3.206 1_556 S
C1987 C290 3.191 1_545 S
C1996 C1210 3.192 . S
C1998 C50 3.204 1_556 S
C2007 C90 3.205 . S
C2009 C530 3.191 . S
C2018 C130 3.204 . S
C2020 C810 3.191 1_545 S
C2029 C139 3.192 1_565 S
C2031 C179 3.205 1_554 S
C2040 C219 3.205 1_554 S
C2042 C1059 3.190 . S
C2051 C379 3.190 . S
C2053 C259 3.205 . S
C2062 C659 3.192 1_565 S
C2064 C299 3.204 . S
C2073 C330 3.205 . S
C2075 C610 3.191 . S
C2084 C890 3.193 . S
C2086 C370 3.205 . S
C2095 C410 3.206 . S
C2097 C210 3.192 . S
C2106 C1130 3.192 . S
C2108 C450 3.205 . S
C2117 C499 3.206 . S
C2119 C459 3.191 . S
C2128 C539 3.205 . S
C2130 C739 3.192 . S
C2139 C579 3.205 . S
C2141 C59 3.192 . S
C2150 C979 3.190 . S
C2152 C619 3.205 . S
C2161 C650 3.206 . S
C2163 C930 3.192 1_545 S
C2172 C690 3.206 . S
C2174 C570 3.191 . S
C2183 C730 3.205 . S
C2185 C1170 3.191 . S
C2194 C770 3.204 . S
C2196 C170 3.192 1_545 S
C2205 C819 3.205 . S
C2207 C779 3.191 1_565 S
C2216 C419 3.191 . S
C2218 C859 3.205 . S
C2227 C1019 3.191 . S
C2229 C899 3.205 . S
C2238 C939 3.205 . S
C2240 C19 3.191 1_565 S
C2249 C1250 3.190 . S
C2251 C970 3.205 1_556 S
C2260 C250 3.192 . S
C2262 C1010 3.204 1_556 S
C2271 C850 3.192 . S
C2273 C1050 3.205 . S
C2282 C1090 3.205 . S
C2284 C490 3.192 . S
C2293 C1099 3.190 . S
C2295 C1139 3.205 1_554 S
C2304 C99 3.191 . S
C2306 C1179 3.204 1_554 S
C2315 C699 3.191 . S
C2317 C1219 3.205 . S
C2326 C1259 3.205 . S
C2328 C339 3.192 . S
