# Generated by pormake.
# Topology xfu, (5)-cn, num edge types: 1
# Building blocks:
#     Node 0, Type 0, BuildingBlock: BEQFEK_clean_sbu_0, # of connection points: 5
#     Node 1, Type 0, BuildingBlock: BEQFEK_clean_sbu_0, # of connection points: 5
#     Node 2, Type 0, BuildingBlock: BEQFEK_clean_sbu_0, # of connection points: 5
#     Node 3, Type 0, BuildingBlock: BEQFEK_clean_sbu_0, # of connection points: 5
#     Node 4, Type 0, BuildingBlock: BEQFEK_clean_sbu_0, # of connection points: 5
#     Node 5, Type 0, BuildingBlock: BEQFEK_clean_sbu_0, # of connection points: 5
#     Node 6, Type 0, BuildingBlock: BEQFEK_clean_sbu_0, # of connection points: 5
#     Node 7, Type 0, BuildingBlock: BEQFEK_clean_sbu_0, # of connection points: 5
#     Edge 8, Type (0, 0), BuildingBlock: CIFDUS_clean_linker_0, # of connection points: 2
#     Edge 9, Type (0, 0), BuildingBlock: CIFDUS_clean_linker_0, # of connection points: 2
#     Edge 10, Type (0, 0), BuildingBlock: CIFDUS_clean_linker_0, # of connection points: 2
#     Edge 11, Type (0, 0), BuildingBlock: CIFDUS_clean_linker_0, # of connection points: 2
#     Edge 12, Type (0, 0), BuildingBlock: CIFDUS_clean_linker_0, # of connection points: 2
#     Edge 13, Type (0, 0), BuildingBlock: CIFDUS_clean_linker_0, # of connection points: 2
#     Edge 14, Type (0, 0), BuildingBlock: CIFDUS_clean_linker_0, # of connection points: 2
#     Edge 15, Type (0, 0), BuildingBlock: CIFDUS_clean_linker_0, # of connection points: 2
#     Edge 16, Type (0, 0), BuildingBlock: CIFDUS_clean_linker_0, # of connection points: 2
#     Edge 17, Type (0, 0), BuildingBlock: CIFDUS_clean_linker_0, # of connection points: 2
#     Edge 18, Type (0, 0), BuildingBlock: CIFDUS_clean_linker_0, # of connection points: 2
#     Edge 19, Type (0, 0), BuildingBlock: CIFDUS_clean_linker_0, # of connection points: 2
#     Edge 20, Type (0, 0), BuildingBlock: CIFDUS_clean_linker_0, # of connection points: 2
#     Edge 21, Type (0, 0), BuildingBlock: CIFDUS_clean_linker_0, # of connection points: 2
#     Edge 22, Type (0, 0), BuildingBlock: CIFDUS_clean_linker_0, # of connection points: 2
#     Edge 23, Type (0, 0), BuildingBlock: CIFDUS_clean_linker_0, # of connection points: 2
#     Edge 24, Type (0, 0), BuildingBlock: CIFDUS_clean_linker_0, # of connection points: 2
#     Edge 25, Type (0, 0), BuildingBlock: CIFDUS_clean_linker_0, # of connection points: 2
#     Edge 26, Type (0, 0), BuildingBlock: CIFDUS_clean_linker_0, # of connection points: 2
#     Edge 27, Type (0, 0), BuildingBlock: CIFDUS_clean_linker_0, # of connection points: 2
# Relax obj value: 0.264
# Max RMSD: 0.185
# Mean RMSD: 0.185
data_MOF--net-xfu--node1-BEQFEK_clean_sbu_0--edge1-CIFDUS_clean_linker_0
_symmetry_space_group_name_H-M    P1
_symmetry_Int_Tables_number       1
_symmetry_cell_setting            triclinic
loop_
_symmetry_equiv_pos_as_xyz
'x, y, z'
_cell_length_a     26.775795
_cell_length_b     26.816119
_cell_length_c     51.672027
_cell_angle_alpha  89.901039
_cell_angle_beta   90.06483
_cell_angle_gamma 89.792313
loop_
_atom_site_label
_atom_site_type_symbol
_atom_site_fract_x
_atom_site_fract_y
_atom_site_fract_z
_atom_type_partial_charge
Co0 Co 0.08477 0.27928 0.66309 0.0
Co1 Co 0.07664 0.18847 0.62583 0.0
C2 C 0.1662 0.25429 0.62544 0.0
O3 O 0.14702 0.28249 0.64252 0.0
O4 O 0.1434 0.21591 0.61726 0.0
C5 C 0.10194 0.38076 0.67614 0.0
O6 O 0.11783 0.38342 0.65214 0.0
C7 C 0.07504 0.13912 0.57615 0.0
C8 C 0.03343 0.06975 0.58411 0.0
C9 C 0.05721 0.09613 0.5646 0.0
N10 N 0.06265 0.13808 0.60129 0.0
N11 N 0.03807 0.09643 0.60604 0.0
C12 C 0.09873 0.18315 0.56327 0.0
H13 H 0.09018 0.21777 0.57417 0.0
H14 H 0.08533 0.18725 0.54305 0.0
H15 H 0.13985 0.17787 0.56305 0.0
C16 C 0.98533 0.30156 0.64166 0.0
N17 N 0.02786 0.27477 0.64206 0.0
N18 N 0.02462 0.23781 0.62548 0.0
C19 C 0.98 0.2408 0.61334 0.0
C20 C 0.95342 0.28128 0.62325 0.0
C21 C 0.9735 0.34147 0.66099 0.0
H22 H 0.9902 0.33188 0.68 0.0
H23 H 0.98983 0.37722 0.65432 0.0
H24 H 0.93268 0.34636 0.66358 0.0
O25 O 0.0888 0.22136 0.6867 0.0
O26 O 0.08318 0.15616 0.66039 0.0
H27 H 0.95616 0.16845 0.60126 0.0
H28 H 0.92926 0.21919 0.58261 0.0
C29 C 0.96337 0.20562 0.59261 0.0
H30 H 0.99332 0.20153 0.57803 0.0
H31 H 0.02383 0.08663 0.62413 0.0
O32 O 0.08392 0.34001 0.68447 0.0
C33 C 0.08816 0.17442 0.683 0.0
Co34 Co 0.82677 0.57948 0.16243 0.0
Co35 Co 0.9189 0.57711 0.1256 0.0
C36 C 0.84841 0.66356 0.1255 0.0
O37 O 0.82071 0.64254 0.14222 0.0
O38 O 0.88796 0.64256 0.11731 0.0
C39 C 0.7245 0.59309 0.17574 0.0
O40 O 0.72136 0.60951 0.15182 0.0
C41 C 0.9699 0.57792 0.07631 0.0
C42 C 0.04175 0.54078 0.08517 0.0
C43 C 0.01433 0.56221 0.06524 0.0
N44 N 0.97106 0.56644 0.10156 0.0
N45 N 0.01423 0.54469 0.10687 0.0
C46 C 0.92466 0.59839 0.06287 0.0
H47 H 0.8904 0.58889 0.07387 0.0
H48 H 0.92166 0.58345 0.04292 0.0
H49 H 0.9276 0.6396 0.06181 0.0
C50 C 0.81426 0.47748 0.14196 0.0
N51 N 0.83569 0.52282 0.14137 0.0
N52 N 0.87319 0.52233 0.12497 0.0
C53 C 0.87583 0.47684 0.11391 0.0
C54 C 0.83892 0.44652 0.12449 0.0
C55 C 0.7762 0.46258 0.16172 0.0
H56 H 0.78344 0.48213 0.18022 0.0
H57 H 0.73856 0.47368 0.15474 0.0
H58 H 0.7767 0.42182 0.16536 0.0
O59 O 0.88414 0.58564 0.18638 0.0
O60 O 0.94994 0.5838 0.16022 0.0
H61 H 0.95094 0.45905 0.1032 0.0
H62 H 0.90402 0.42673 0.08441 0.0
C63 C 0.91368 0.46244 0.09395 0.0
H64 H 0.91557 0.49173 0.07888 0.0
H65 H 0.02442 0.53158 0.12517 0.0
O66 O 0.76578 0.57542 0.18383 0.0
C67 C 0.93119 0.58709 0.1828 0.0
Co68 Co 0.52742 0.31805 0.66325 0.0
Co69 Co 0.53506 0.40889 0.62583 0.0
C70 C 0.44579 0.34272 0.62549 0.0
O71 O 0.46509 0.31466 0.64267 0.0
O72 O 0.46845 0.38114 0.61722 0.0
C73 C 0.51059 0.21653 0.67637 0.0
O74 O 0.49483 0.21391 0.65233 0.0
C75 C 0.53577 0.45885 0.57623 0.0
C76 C 0.57669 0.52856 0.58426 0.0
C77 C 0.55278 0.50232 0.56477 0.0
N78 N 0.54869 0.45952 0.6013 0.0
N79 N 0.57292 0.50134 0.60609 0.0
C80 C 0.51212 0.4149 0.56331 0.0
H81 H 0.52135 0.38012 0.57399 0.0
H82 H 0.52492 0.41141 0.54297 0.0
H83 H 0.47094 0.41975 0.56341 0.0
C84 C 0.62686 0.29618 0.64184 0.0
N85 N 0.58424 0.32282 0.64221 0.0
N86 N 0.58728 0.35981 0.62557 0.0
C87 C 0.63184 0.35701 0.61343 0.0
C88 C 0.65861 0.31661 0.6234 0.0
C89 C 0.63893 0.25628 0.66122 0.0
H90 H 0.62219 0.26572 0.68021 0.0
H91 H 0.62278 0.22046 0.65457 0.0
H92 H 0.67977 0.25161 0.66385 0.0
O93 O 0.52331 0.37591 0.68679 0.0
O94 O 0.52848 0.44108 0.66031 0.0
H95 H 0.65563 0.4294 0.60131 0.0
H96 H 0.68219 0.37876 0.58258 0.0
C97 C 0.64823 0.39231 0.59266 0.0
H98 H 0.61807 0.39659 0.57817 0.0
H99 H 0.58733 0.51099 0.62417 0.0
O100 O 0.52849 0.25729 0.6847 0.0
C101 C 0.52372 0.42285 0.68297 0.0
Co102 Co 0.77477 0.02555 0.1618 0.0
Co103 Co 0.68207 0.02864 0.12495 0.0
C104 C 0.75217 0.94233 0.12427 0.0
O105 O 0.77948 0.9629 0.14132 0.0
O106 O 0.71284 0.96359 0.11582 0.0
C107 C 0.87715 0.00963 0.17484 0.0
O108 O 0.87952 0.99236 0.1511 0.0
C109 C 0.62442 0.03093 0.0769 0.0
C110 C 0.55518 0.06947 0.0891 0.0
C111 C 0.57889 0.04867 0.06789 0.0
N112 N 0.62781 0.04162 0.10221 0.0
N113 N 0.58621 0.0643 0.10945 0.0
C114 C 0.66333 0.00209 0.06238 0.0
H115 H 0.69969 0.02164 0.06375 0.0
H116 H 0.65315 0.99634 0.04182 0.0
H117 H 0.66803 0.96496 0.07155 0.0
C118 C 0.78696 0.1279 0.1416 0.0
N119 N 0.76546 0.0826 0.14097 0.0
N120 N 0.72804 0.08324 0.12447 0.0
C121 C 0.72565 0.12875 0.11333 0.0
C122 C 0.76251 0.15898 0.12402 0.0
C123 C 0.82498 0.14261 0.16143 0.0
H124 H 0.81867 0.12182 0.17969 0.0
H125 H 0.86278 0.13304 0.15415 0.0
H126 H 0.8234 0.18313 0.16562 0.0
O127 O 0.71829 0.01915 0.18612 0.0
O128 O 0.65258 0.02031 0.15986 0.0
H129 H 0.65116 0.14806 0.10207 0.0
H130 H 0.69914 0.178 0.08297 0.0
C131 C 0.68837 0.14307 0.093 0.0
H132 H 0.68572 0.11301 0.07843 0.0
H133 H 0.57924 0.07668 0.12824 0.0
O134 O 0.83646 0.02868 0.18283 0.0
C135 C 0.67131 0.01704 0.18246 0.0
Co136 Co 0.02838 0.81577 0.3227 0.0
Co137 Co 0.02097 0.90787 0.35953 0.0
C138 C 0.94425 0.82827 0.36064 0.0
O139 O 0.96766 0.80368 0.34348 0.0
O140 O 0.96003 0.87016 0.36862 0.0
C141 C 0.0242 0.71266 0.31003 0.0
O142 O 0.00916 0.7086 0.33413 0.0
C143 C 0.01379 0.96123 0.40819 0.0
C144 C 0.04824 0.03388 0.39893 0.0
C145 C 0.0267 0.00674 0.41883 0.0
N146 N 0.0269 0.96147 0.38314 0.0
N147 N 0.04698 0.00514 0.3776 0.0
C148 C 0.99463 0.91612 0.42206 0.0
H149 H 0.00809 0.88166 0.41242 0.0
H150 H 0.00682 0.91586 0.44259 0.0
H151 H 0.9532 0.91643 0.42145 0.0
C152 C 0.12968 0.81092 0.34475 0.0
N153 N 0.0833 0.83015 0.34395 0.0
N154 N 0.07989 0.86744 0.36036 0.0
C155 C 0.12397 0.87225 0.37276 0.0
C156 C 0.15717 0.83678 0.36317 0.0
C157 C 0.1485 0.77295 0.32586 0.0
H158 H 0.1297 0.77791 0.3069 0.0
H159 H 0.13973 0.73509 0.33323 0.0
H160 H 0.18941 0.77595 0.32297 0.0
O161 O 0.01572 0.87172 0.29861 0.0
O162 O 0.01037 0.93724 0.32469 0.0
H163 H 0.13604 0.94763 0.38456 0.0
H164 H 0.16923 0.90192 0.40391 0.0
C165 C 0.13396 0.90999 0.39341 0.0
H166 H 0.10301 0.90982 0.40758 0.0
H167 H 0.06093 0.01481 0.35942 0.0
O168 O 0.03804 0.755 0.30163 0.0
C169 C 0.00903 0.91826 0.30212 0.0
Co170 Co 0.29618 0.52522 0.82395 0.0
Co171 Co 0.20358 0.51819 0.86079 0.0
C172 C 0.28279 0.44066 0.86158 0.0
O173 O 0.30769 0.46395 0.8445 0.0
O174 O 0.24093 0.45687 0.86957 0.0
C175 C 0.39916 0.5187 0.81039 0.0
O176 O 0.40352 0.50289 0.83437 0.0
C177 C 0.15019 0.51175 0.90949 0.0
C178 C 0.07706 0.54565 0.89994 0.0
C179 C 0.10448 0.52486 0.92004 0.0
N180 N 0.1498 0.52418 0.88434 0.0
N181 N 0.10583 0.54384 0.87861 0.0
C182 C 0.19564 0.49322 0.92348 0.0
H183 H 0.22999 0.50544 0.91332 0.0
H184 H 0.19641 0.50707 0.9437 0.0
H185 H 0.19513 0.45185 0.92386 0.0
C186 C 0.30067 0.62608 0.84628 0.0
N187 N 0.28188 0.57972 0.84551 0.0
N188 N 0.24443 0.57627 0.86188 0.0
C189 C 0.23911 0.6202 0.87422 0.0
C190 C 0.27427 0.65341 0.8646 0.0
C191 C 0.33846 0.64508 0.82736 0.0
H192 H 0.33409 0.62592 0.80851 0.0
H193 H 0.37647 0.63698 0.83488 0.0
H194 H 0.33461 0.68584 0.82425 0.0
O195 O 0.23993 0.51429 0.79995 0.0
O196 O 0.17419 0.50936 0.82598 0.0
H197 H 0.16328 0.63165 0.88581 0.0
H198 H 0.20828 0.66568 0.90502 0.0
C199 C 0.20095 0.63019 0.89474 0.0
H200 H 0.20165 0.59964 0.90914 0.0
H201 H 0.09599 0.55724 0.86032 0.0
O202 O 0.35688 0.53422 0.80248 0.0
C203 C 0.19323 0.50854 0.80342 0.0
Co204 Co 0.57317 0.78739 0.32252 0.0
Co205 Co 0.58089 0.6959 0.35991 0.0
C206 C 0.65744 0.77557 0.36061 0.0
O207 O 0.63397 0.79975 0.34325 0.0
O208 O 0.64172 0.73384 0.36889 0.0
C209 C 0.57729 0.89032 0.3095 0.0
O210 O 0.59203 0.89447 0.33366 0.0
C211 C 0.58868 0.64264 0.40869 0.0
C212 C 0.55441 0.56986 0.39959 0.0
C213 C 0.57621 0.59699 0.41939 0.0
N214 N 0.57509 0.64246 0.3837 0.0
N215 N 0.55507 0.59874 0.37825 0.0
C216 C 0.60807 0.68772 0.42243 0.0
H217 H 0.59425 0.7222 0.41287 0.0
H218 H 0.59641 0.68781 0.44303 0.0
H219 H 0.64948 0.68754 0.42157 0.0
C220 C 0.47193 0.79238 0.34455 0.0
N221 N 0.51834 0.77322 0.34384 0.0
N222 N 0.5219 0.7362 0.36048 0.0
C223 C 0.47792 0.73152 0.37293 0.0
C224 C 0.44459 0.76677 0.36314 0.0
C225 C 0.45294 0.83004 0.32544 0.0
H226 H 0.47182 0.82499 0.30655 0.0
H227 H 0.46147 0.86802 0.33266 0.0
H228 H 0.41205 0.82676 0.32251 0.0
O229 O 0.58577 0.73118 0.29872 0.0
O230 O 0.59159 0.66616 0.32524 0.0
H231 H 0.46581 0.65636 0.38522 0.0
H232 H 0.43308 0.70247 0.4044 0.0
C233 C 0.46816 0.69413 0.39385 0.0
H234 H 0.49936 0.6944 0.4079 0.0
H235 H 0.54091 0.58906 0.36013 0.0
O236 O 0.56351 0.84795 0.30118 0.0
C237 C 0.59271 0.68474 0.30255 0.0
Co238 Co 0.31666 0.06988 0.82403 0.0
Co239 Co 0.4098 0.07582 0.86095 0.0
C240 C 0.331 0.15341 0.86229 0.0
O241 O 0.3062 0.13077 0.84494 0.0
O242 O 0.37269 0.13678 0.8704 0.0
C243 C 0.2135 0.07817 0.81057 0.0
O244 O 0.2096 0.09436 0.83446 0.0
C245 C 0.46861 0.08037 0.90865 0.0
C246 C 0.539 0.04346 0.89688 0.0
C247 C 0.51486 0.06489 0.91779 0.0
N248 N 0.46522 0.0677 0.88359 0.0
N249 N 0.50756 0.04615 0.87658 0.0
C250 C 0.42886 0.10866 0.92285 0.0
H251 H 0.42193 0.14457 0.91279 0.0
H252 H 0.39352 0.08719 0.92246 0.0
H253 H 0.43958 0.11698 0.94309 0.0
C254 C 0.31202 0.96867 0.84614 0.0
N255 N 0.33112 0.0149 0.84534 0.0
N256 N 0.36844 0.01811 0.86184 0.0
C257 C 0.37316 0.97425 0.87439 0.0
C258 C 0.33796 0.94121 0.86468 0.0
C259 C 0.2742 0.94993 0.82715 0.0
H260 H 0.27794 0.96992 0.80847 0.0
H261 H 0.23619 0.95706 0.83487 0.0
H262 H 0.27866 0.90936 0.82367 0.0
O263 O 0.37236 0.08105 0.79984 0.0
O264 O 0.43801 0.08596 0.82596 0.0
H265 H 0.4482 0.96075 0.88685 0.0
H266 H 0.40142 0.92996 0.90636 0.0
C267 C 0.41042 0.9644 0.89543 0.0
H268 H 0.41062 0.99606 0.90914 0.0
H269 H 0.51464 0.03254 0.85803 0.0
O270 O 0.25544 0.06178 0.80272 0.0
C271 C 0.41899 0.08708 0.80338 0.0
H272 H 0.09796 0.05264 0.44668 0.0
H273 H 0.9483 0.99481 0.45184 0.0
H274 H 0.94496 0.01655 0.49777 0.0
H275 H 0.98503 0.05175 0.53645 0.0
H276 H 0.13564 0.10738 0.53138 0.0
H277 H 0.13826 0.08703 0.4854 0.0
C278 C 0.06457 0.04517 0.45789 0.0
C279 C 0.02363 0.02184 0.44615 0.0
C280 C 0.06314 0.05739 0.48423 0.0
C281 C 0.98056 0.01203 0.46072 0.0
C282 C 0.97859 0.02457 0.4869 0.0
C283 C 0.01843 0.0592 0.52525 0.0
C284 C 0.05964 0.08201 0.53707 0.0
C285 C 0.0198 0.04697 0.49889 0.0
C286 C 0.10285 0.09129 0.52248 0.0
C287 C 0.10453 0.07931 0.49624 0.0
H288 H 0.06159 0.48989 0.03849 0.0
H289 H -0.0002 0.63788 0.03062 0.0
H290 H 0.02021 0.6382 0.98457 0.0
H291 H 0.05621 0.59653 0.94663 0.0
H292 H 0.11897 0.44899 0.9545 0.0
H293 H 0.09781 0.44825 0.00053 0.0
C294 C 0.05285 0.52223 0.02666 0.0
C295 C 0.02849 0.56342 0.03771 0.0
C296 C 0.06487 0.52218 0.00027 0.0
C297 C 0.01737 0.60521 0.02232 0.0
C298 C 0.02929 0.60554 -0.00395 0.0
C299 C 0.06489 0.56414 0.95845 0.0
C300 C 0.08956 0.52314 0.94743 0.0
C301 C 0.0528 0.56413 0.98481 0.0
C302 C 0.10084 0.48137 0.9628 0.0
C303 C 0.08859 0.48086 0.98904 0.0
H304 H 0.623 0.54911 0.53634 0.0
H305 H 0.47332 0.49075 0.53215 0.0
H306 H 0.46855 0.51272 0.48638 0.0
H307 H 0.50673 0.54919 0.44759 0.0
H308 H 0.65547 0.60963 0.45188 0.0
H309 H 0.66087 0.58652 0.49762 0.0
C310 C 0.58933 0.5414 0.52537 0.0
C311 C 0.54905 0.51732 0.53737 0.0
C312 C 0.5867 0.55461 0.49915 0.0
C313 C 0.50546 0.50776 0.52309 0.0
C314 C 0.50254 0.52069 0.49698 0.0
C315 C 0.54037 0.55697 0.45857 0.0
C316 C 0.58042 0.58144 0.44664 0.0
C317 C 0.54302 0.54387 0.48479 0.0
C318 C 0.62383 0.5916 0.46092 0.0
C319 C 0.62699 0.57824 0.48698 0.0
H320 H 0.46548 0.03844 0.96132 0.0
H321 H 0.60787 0.09052 0.93363 0.0
H322 H 0.64073 0.09009 0.9779 0.0
H323 H 0.62811 0.07614 0.02447 0.0
H324 H 0.48562 0.02424 0.0521 0.0
H325 H 0.45267 0.02513 0.00786 0.0
C326 C 0.50334 0.05074 0.96511 0.0
C327 C 0.53393 0.06584 0.94451 0.0
C328 C 0.52174 0.05043 0.99049 0.0
C329 C 0.58361 0.0794 0.94937 0.0
C330 C 0.60231 0.07918 0.9746 0.0
C331 C 0.59015 0.06417 0.02066 0.0
C332 C 0.55958 0.04885 0.04122 0.0
C333 C 0.57168 0.06475 -0.00471 0.0
C334 C 0.50984 0.03555 0.03638 0.0
C335 C 0.49109 0.03601 0.01117 0.0
H336 H 0.20117 0.03912 0.7624 0.0
H337 H 0.13873 0.14666 0.81545 0.0
H338 H 0.08818 0.18225 0.78073 0.0
H339 H 0.07252 0.19145 0.7341 0.0
H340 H 0.13377 0.08344 0.68101 0.0
H341 H 0.17316 0.03894 0.71696 0.0
C342 C 0.17564 0.06961 0.76646 0.0
C343 C 0.1745 0.09084 0.79133 0.0
C344 C 0.14682 0.09019 0.74634 0.0
C345 C 0.14063 0.12978 0.79645 0.0
C346 C 0.1119 0.15044 0.77654 0.0
C347 C 0.09356 0.15752 0.73049 0.0
C348 C 0.101 0.14128 0.70493 0.0
C349 C 0.11634 0.1323 0.75122 0.0
C350 C 0.12763 0.09683 0.70052 0.0
C351 C 0.15051 0.07156 0.72105 0.0
H352 H 0.06492 0.69927 0.26247 0.0
H353 H 0.95651 0.63774 0.31524 0.0
H354 H 0.92177 0.58695 0.28054 0.0
H355 H 0.91324 0.57148 0.23388 0.0
H356 H 0.02208 0.63236 0.18114 0.0
H357 H 0.06608 0.67118 0.21719 0.0
C358 C 0.03448 0.67381 0.26648 0.0
C359 C 0.01265 0.67301 0.29119 0.0
C360 C 0.01434 0.64505 0.24638 0.0
C361 C 0.97381 0.63929 0.29632 0.0
C362 C 0.95363 0.61048 0.27643 0.0
C363 C 0.9472 0.59236 0.23037 0.0
C364 C 0.96376 0.59996 0.20487 0.0
C365 C 0.97216 0.61483 0.25116 0.0
C366 C 0.00833 0.62625 0.20059 0.0
C367 C 0.03338 0.64875 0.22119 0.0
H368 H 0.4107 0.5577 0.76213 0.0
H369 H 0.47465 0.45099 0.81542 0.0
H370 H 0.52509 0.41562 0.78072 0.0
H371 H 0.54017 0.40622 0.73408 0.0
H372 H 0.4774 0.51343 0.68076 0.0
H373 H 0.43816 0.55786 0.71665 0.0
C374 C 0.43656 0.52746 0.76625 0.0
C375 C 0.43815 0.50637 0.79117 0.0
C376 C 0.46529 0.507 0.74614 0.0
C377 C 0.47241 0.46776 0.79637 0.0
C378 C 0.50107 0.44722 0.77648 0.0
C379 C 0.51883 0.43997 0.73041 0.0
C380 C 0.51092 0.45599 0.70481 0.0
C381 C 0.49616 0.46516 0.7511 0.0
C382 C 0.4839 0.50021 0.7003 0.0
C383 C 0.46111 0.52545 0.7208 0.0
H384 H 0.53743 0.9034 0.26166 0.0
H385 H 0.64483 0.96532 0.31488 0.0
H386 H 0.67992 0.01622 0.28027 0.0
H387 H 0.68889 0.03203 0.23363 0.0
H388 H 0.58093 0.97086 0.18047 0.0
H389 H 0.53683 0.9315 0.21634 0.0
C390 C 0.56773 0.92895 0.26578 0.0
C391 C 0.58915 0.92987 0.29061 0.0
C392 C 0.58806 0.9578 0.24574 0.0
C393 C 0.62783 0.9637 0.29586 0.0
C394 C 0.64822 0.99256 0.27603 0.0
C395 C 0.65511 0.01094 0.22999 0.0
C396 C 0.63881 0.00349 0.20443 0.0
C397 C 0.63004 0.9882 0.25068 0.0
C398 C 0.59447 0.9769 0.19997 0.0
C399 C 0.56936 0.95409 0.22046 0.0
H400 H 0.02069 0.89819 0.25094 0.0
H401 H 0.96149 0.00844 0.30351 0.0
H402 H 0.92052 0.05124 0.26756 0.0
H403 H 0.89142 0.04984 0.22246 0.0
H404 H 0.95056 0.93952 0.16993 0.0
H405 H 0.00229 0.90491 0.2045 0.0
C406 C -0.00046 0.93208 0.25447 0.0
C407 C 0.99331 0.94949 0.27992 0.0
C408 C 0.97572 0.95631 0.23374 0.0
C409 C 0.96659 0.99398 0.28413 0.0
C410 C 0.9429 0.01838 0.26359 0.0
C411 C 0.9164 0.01885 0.21847 0.0
C412 C 0.91642 0.99668 0.19383 0.0
C413 C 0.94564 -0.00125 0.2385 0.0
C414 C 0.94957 0.95711 0.18878 0.0
C415 C 0.97895 0.93704 0.20859 0.0
H416 H 0.21406 0.52113 0.7524 0.0
H417 H 0.10164 0.46427 0.80441 0.0
H418 H 0.05836 0.42538 0.76817 0.0
H419 H 0.06032 0.3965 0.72315 0.0
H420 H 0.17307 0.45264 0.67121 0.0
H421 H 0.20775 0.50363 0.7059 0.0
C422 C 0.1796 0.50097 0.75574 0.0
C423 C 0.16175 0.4946 0.78111 0.0
C424 C 0.15517 0.47825 0.73487 0.0
C425 C 0.11649 0.46932 0.78509 0.0
C426 C 0.09181 0.44683 0.7644 0.0
C427 C 0.09184 0.42071 0.71932 0.0
C428 C 0.11477 0.42006 0.69488 0.0
C429 C 0.112 0.44934 0.73942 0.0
C430 C 0.15496 0.45225 0.68995 0.0
C431 C 0.17505 0.48115 0.70982 0.0
H432 H 0.57973 0.70328 0.25126 0.0
H433 H 0.64187 0.59549 0.30456 0.0
H434 H 0.68315 0.55263 0.26884 0.0
H435 H 0.71164 0.55362 0.22367 0.0
H436 H 0.64951 0.66143 0.1704 0.0
H437 H 0.5975 0.69576 0.20482 0.0
C438 C 0.60158 0.66989 0.255 0.0
C439 C 0.60856 0.65323 0.28057 0.0
C440 C 0.62555 0.64562 0.23441 0.0
C441 C 0.63617 0.60935 0.28507 0.0
C442 C 0.66005 0.58494 0.26467 0.0
C443 C 0.68595 0.58397 0.21949 0.0
C444 C 0.68516 0.60558 0.19468 0.0
C445 C 0.65655 0.60392 0.23943 0.0
C446 C 0.6511 0.6443 0.18939 0.0
C447 C 0.62156 0.66422 0.20911 0.0
H448 H 0.39851 0.07502 0.75228 0.0
H449 H 0.51008 0.13227 0.8047 0.0
H450 H 0.55333 0.17185 0.76865 0.0
H451 H 0.55167 0.20094 0.72361 0.0
H452 H 0.43987 0.14429 0.67123 0.0
H453 H 0.40512 0.09295 0.70581 0.0
C454 C 0.43278 0.09542 0.75575 0.0
C455 C 0.45041 0.10165 0.78117 0.0
C456 C 0.45723 0.1185 0.73498 0.0
C457 C 0.49542 0.12728 0.78533 0.0
C458 C 0.52009 0.15017 0.76474 0.0
C459 C 0.52034 0.17655 0.71966 0.0
C460 C 0.49771 0.17713 0.69512 0.0
C461 C 0.50015 0.14769 0.73968 0.0
C462 C 0.45776 0.14474 0.69004 0.0
C463 C 0.43763 0.11563 0.70985 0.0
H464 H 0.87276 0.2202 0.61954 0.0
H465 H 0.91578 0.3749 0.61669 0.0
H466 H 0.82791 0.40004 0.61553 0.0
H467 H 0.73921 0.37776 0.61944 0.0
H468 H 0.69623 0.22303 0.61695 0.0
H469 H 0.78407 0.19792 0.61575 0.0
C470 C 0.86302 0.25933 0.6178 0.0
C471 C 0.90068 0.29569 0.61846 0.0
C472 C 0.81254 0.27342 0.61645 0.0
C473 C 0.88733 0.34629 0.61668 0.0
C474 C 0.83716 0.36066 0.61595 0.0
C475 C 0.74895 0.33862 0.61777 0.0
C476 C 0.71132 0.30225 0.61855 0.0
C477 C 0.79944 0.32454 0.61641 0.0
C478 C 0.72467 0.25165 0.61686 0.0
C479 C 0.77482 0.23729 0.6161 0.0
H480 H 0.7526 0.39446 0.11957 0.0
H481 H 0.91234 0.37548 0.12412 0.0
H482 H 0.90296 0.28519 0.12136 0.0
H483 H 0.84907 0.2111 0.12013 0.0
H484 H 0.68915 0.23007 0.12252 0.0
H485 H 0.69867 0.32035 0.11993 0.0
C486 C 0.7853 0.37047 0.11996 0.0
C487 C 0.83308 0.39173 0.12162 0.0
C488 C 0.77951 0.31841 0.11962 0.0
C489 C 0.87517 0.36023 0.12209 0.0
C490 C 0.86982 0.3085 0.12082 0.0
C491 C 0.81635 0.23506 0.12011 0.0
C492 C 0.7685 0.21378 0.12112 0.0
C493 C 0.82215 0.28713 0.1199 0.0
C494 C 0.72641 0.24529 0.121 0.0
C495 C 0.73182 0.29704 0.11984 0.0
H496 H 0.39131 0.85167 0.36979 0.0
H497 H 0.37637 0.69175 0.36673 0.0
H498 H 0.28583 0.6995 0.37056 0.0
H499 H 0.21052 0.75202 0.37036 0.0
H500 H 0.22544 0.91186 0.36606 0.0
H501 H 0.31602 0.90419 0.36975 0.0
C502 C 0.36813 0.81859 0.37006 0.0
C503 C 0.39039 0.77128 0.36814 0.0
C504 C 0.31601 0.82344 0.37084 0.0
C505 C 0.36017 0.72859 0.36873 0.0
C506 C 0.30835 0.733 0.37061 0.0
C507 C 0.23371 0.7851 0.37034 0.0
C508 C 0.21143 0.83237 0.36811 0.0
C509 C 0.28584 0.78026 0.37104 0.0
C510 C 0.24166 0.87507 0.36831 0.0
C511 C 0.2935 0.87069 0.37011 0.0
H512 H 0.25394 0.88679 0.87081 0.0
H513 H 0.41447 0.87417 0.86822 0.0
H514 H 0.40868 0.78373 0.87203 0.0
H515 H 0.35781 0.70784 0.87179 0.0
H516 H 0.19751 0.72039 0.86668 0.0
H517 H 0.20306 0.81089 0.87033 0.0
C518 C 0.28758 0.86413 0.87114 0.0
C519 C 0.33448 0.88702 0.86944 0.0
C520 C 0.2839 0.81206 0.87185 0.0
C521 C 0.3779 0.85747 0.87011 0.0
C522 C 0.37463 0.80571 0.87196 0.0
C523 C 0.32418 0.73052 0.87158 0.0
C524 C 0.2774 0.70763 0.86922 0.0
C525 C 0.32781 0.78258 0.87223 0.0
C526 C 0.23395 0.73714 0.86909 0.0
C527 C 0.23711 0.78892 0.87087 0.0
H528 H 0.39942 0.25392 0.61867 0.0
H529 H 0.37456 0.41281 0.61633 0.0
H530 H 0.28441 0.39962 0.61357 0.0
H531 H 0.2126 0.34285 0.61783 0.0
H532 H 0.23747 0.18392 0.61728 0.0
H533 H 0.32765 0.19701 0.61474 0.0
C534 C 0.37422 0.28553 0.61694 0.0
C535 C 0.39334 0.33421 0.61802 0.0
C536 C 0.32251 0.27765 0.61506 0.0
C537 C 0.36059 0.37498 0.6155 0.0
C538 C 0.30904 0.36747 0.61412 0.0
C539 C 0.23782 0.31119 0.61653 0.0
C540 C 0.21869 0.26256 0.61804 0.0
C541 C 0.28955 0.31901 0.61477 0.0
C542 C 0.25146 0.22171 0.6161 0.0
C543 C 0.30302 0.22917 0.61485 0.0
H544 H 0.75817 0.70876 0.11855 0.0
H545 H 0.91667 0.73656 0.11786 0.0
H546 H 0.90126 0.8263 0.11524 0.0
H547 H 0.8425 0.8971 0.11844 0.0
H548 H 0.68406 0.86941 0.11576 0.0
H549 H 0.69954 0.77958 0.11396 0.0
C550 C 0.78923 0.73451 0.11727 0.0
C551 C 0.83842 0.71621 0.11866 0.0
C552 C 0.78011 0.78608 0.11532 0.0
C553 C 0.87844 0.74979 0.11674 0.0
C554 C 0.86967 0.80114 0.11542 0.0
C555 C 0.81148 0.87136 0.11686 0.0
C556 C 0.76226 0.88972 0.11748 0.0
C557 C 0.82066 0.81977 0.11546 0.0
C558 C 0.72232 0.85614 0.11522 0.0
C559 C 0.73112 0.80474 0.1144 0.0
H560 H 0.73903 0.71961 0.37088 0.0
H561 H 0.68698 0.87175 0.36679 0.0
H562 H 0.77264 0.90186 0.37152 0.0
H563 H 0.86264 0.88455 0.37011 0.0
H564 H 0.91471 0.73231 0.3678 0.0
H565 H 0.82902 0.70236 0.37268 0.0
C566 C 0.74644 0.75933 0.37173 0.0
C567 C 0.70703 0.7935 0.36854 0.0
C568 C 0.79591 0.77621 0.37302 0.0
C569 C 0.71695 0.84487 0.36919 0.0
C570 C 0.76585 0.86203 0.37179 0.0
C571 C 0.85522 0.84487 0.37138 0.0
C572 C 0.89464 0.81059 0.36866 0.0
C573 C 0.80575 0.82803 0.37274 0.0
C574 C 0.88472 0.75926 0.36984 0.0
C575 C 0.8358 0.74219 0.37252 0.0
H576 H 0.38861 0.23344 0.87186 0.0
H577 H 0.23534 0.185 0.86927 0.0
H578 H 0.20672 0.27127 0.87391 0.0
H579 H 0.22548 0.36062 0.87186 0.0
H580 H 0.37868 0.40901 0.86794 0.0
H581 H 0.40742 0.32284 0.87305 0.0
C582 C 0.34899 0.24178 0.87303 0.0
C583 C 0.31403 0.20325 0.87029 0.0
C584 C 0.33295 0.29156 0.87421 0.0
C585 C 0.26279 0.21432 0.87133 0.0
C586 C 0.24648 0.26356 0.87387 0.0
C587 C 0.26514 0.35231 0.87281 0.0
C588 C 0.30001 0.39079 0.86956 0.0
C589 C 0.28122 0.30258 0.87432 0.0
C590 C 0.35128 0.37974 0.87036 0.0
C591 C 0.36766 0.33056 0.87319 0.0
loop_
_geom_bond_atom_site_label_1
_geom_bond_atom_site_label_2
_geom_bond_distance
_geom_bond_site_symmetry_2
_ccdc_geom_bond_type
Co0 O3 1.970 . S
Co0 N17 1.989 . S
Co0 O25 1.967 . S
Co0 O32 1.920 . S
Co1 O4 1.966 . S
Co1 N10 2.022 . S
Co1 N18 1.993 . S
Co1 O26 1.941 . S
C2 O3 1.258 . S
C2 O4 1.263 . S
O3 Co0 1.970 . S
O3 C2 1.258 . S
O4 Co1 1.966 . S
O4 C2 1.263 . S
C5 O6 1.235 . S
C5 O32 1.289 . S
O6 C5 1.235 . S
C7 C9 1.400 . S
C7 N10 1.351 . S
C7 C12 1.501 . S
C8 C9 1.387 . S
C8 N11 1.341 . S
C9 C7 1.400 . S
C9 C8 1.387 . S
N10 Co1 2.022 . S
N10 C7 1.351 . S
N10 N11 1.365 . S
N11 C8 1.341 . S
N11 N10 1.365 . S
N11 H31 0.862 . S
C12 C7 1.501 . S
C12 H13 0.961 . S
C12 H14 0.961 . S
C12 H15 0.960 . S
H13 C12 0.961 . S
H14 C12 0.961 . S
H15 C12 0.960 . S
C16 N17 1.342 1_655 S
C16 C20 1.401 . S
C16 C21 1.499 . S
N17 Co0 1.989 . S
N17 C16 1.342 1_455 S
N17 N18 1.388 . S
N18 Co1 1.993 . S
N18 N17 1.388 . S
N18 C19 1.346 1_455 S
C19 N18 1.346 1_655 S
C19 C20 1.396 . S
C19 C29 1.510 . S
C20 C16 1.401 . S
C20 C19 1.396 . S
C21 C16 1.499 . S
C21 H22 0.959 . S
C21 H23 0.960 . S
C21 H24 0.961 . S
H22 C21 0.959 . S
H23 C21 0.960 . S
H24 C21 0.961 . S
O25 Co0 1.967 . S
O25 C33 1.258 . S
O26 Co1 1.941 . S
O26 C33 1.266 . S
H27 C29 0.959 . S
H28 C29 0.961 . S
C29 C19 1.510 . S
C29 H27 0.959 . S
C29 H28 0.961 . S
C29 H30 0.960 . S
H30 C29 0.960 . S
H31 N11 0.862 . S
O32 Co0 1.920 . S
O32 C5 1.289 . S
C33 O25 1.258 . S
C33 O26 1.266 . S
Co34 O37 1.970 . S
Co34 N51 1.989 . S
Co34 O59 1.967 . S
Co34 O66 1.920 . S
Co35 O38 1.966 . S
Co35 N44 2.022 . S
Co35 N52 1.993 . S
Co35 O60 1.941 . S
C36 O37 1.258 . S
C36 O38 1.263 . S
O37 Co34 1.970 . S
O37 C36 1.258 . S
O38 Co35 1.966 . S
O38 C36 1.263 . S
C39 O40 1.235 . S
C39 O66 1.289 . S
O40 C39 1.235 . S
C41 C43 1.400 . S
C41 N44 1.351 . S
C41 C46 1.501 . S
C42 C43 1.387 1_455 S
C42 N45 1.341 1_455 S
C43 C41 1.400 . S
C43 C42 1.387 1_655 S
N44 Co35 2.022 . S
N44 C41 1.351 . S
N44 N45 1.365 . S
N45 C42 1.341 1_655 S
N45 N44 1.365 . S
N45 H65 0.858 1_655 S
C46 C41 1.501 . S
C46 H47 0.961 . S
C46 H48 0.961 . S
C46 H49 0.960 . S
H47 C46 0.961 . S
H48 C46 0.961 . S
H49 C46 0.960 . S
C50 N51 1.342 . S
C50 C54 1.401 . S
C50 C55 1.499 . S
N51 Co34 1.989 . S
N51 C50 1.342 . S
N51 N52 1.388 . S
N52 Co35 1.993 . S
N52 N51 1.388 . S
N52 C53 1.346 . S
C53 N52 1.346 . S
C53 C54 1.396 . S
C53 C63 1.510 . S
C54 C50 1.401 . S
C54 C53 1.396 . S
C55 C50 1.499 . S
C55 H56 0.959 . S
C55 H57 0.960 . S
C55 H58 0.961 . S
H56 C55 0.959 . S
H57 C55 0.960 . S
H58 C55 0.961 . S
O59 Co34 1.967 . S
O59 C67 1.258 . S
O60 Co35 1.941 . S
O60 C67 1.266 . S
H61 C63 0.959 . S
H62 C63 0.961 . S
C63 C53 1.510 . S
C63 H61 0.959 . S
C63 H62 0.961 . S
C63 H64 0.960 . S
H64 C63 0.960 . S
H65 N45 0.858 1_455 S
O66 Co34 1.920 . S
O66 C39 1.289 . S
C67 O59 1.258 . S
C67 O60 1.266 . S
Co68 O71 1.970 . S
Co68 N85 1.989 . S
Co68 O93 1.967 . S
Co68 O100 1.920 . S
Co69 O72 1.966 . S
Co69 N78 2.022 . S
Co69 N86 1.993 . S
Co69 O94 1.941 . S
C70 O71 1.258 . S
C70 O72 1.263 . S
O71 Co68 1.970 . S
O71 C70 1.258 . S
O72 Co69 1.966 . S
O72 C70 1.263 . S
C73 O74 1.235 . S
C73 O100 1.289 . S
O74 C73 1.235 . S
C75 C77 1.400 . S
C75 N78 1.351 . S
C75 C80 1.501 . S
C76 C77 1.387 . S
C76 N79 1.341 . S
C77 C75 1.400 . S
C77 C76 1.387 . S
N78 Co69 2.022 . S
N78 C75 1.351 . S
N78 N79 1.365 . S
N79 C76 1.341 . S
N79 N78 1.365 . S
N79 H99 0.862 . S
C80 C75 1.501 . S
C80 H81 0.961 . S
C80 H82 0.961 . S
C80 H83 0.960 . S
H81 C80 0.961 . S
H82 C80 0.961 . S
H83 C80 0.960 . S
C84 N85 1.342 . S
C84 C88 1.401 . S
C84 C89 1.499 . S
N85 Co68 1.989 . S
N85 C84 1.342 . S
N85 N86 1.388 . S
N86 Co69 1.993 . S
N86 N85 1.388 . S
N86 C87 1.346 . S
C87 N86 1.346 . S
C87 C88 1.396 . S
C87 C97 1.510 . S
C88 C84 1.401 . S
C88 C87 1.396 . S
C89 C84 1.499 . S
C89 H90 0.959 . S
C89 H91 0.960 . S
C89 H92 0.961 . S
H90 C89 0.959 . S
H91 C89 0.960 . S
H92 C89 0.961 . S
O93 Co68 1.967 . S
O93 C101 1.258 . S
O94 Co69 1.941 . S
O94 C101 1.266 . S
H95 C97 0.959 . S
H96 C97 0.961 . S
C97 C87 1.510 . S
C97 H95 0.959 . S
C97 H96 0.961 . S
C97 H98 0.960 . S
H98 C97 0.960 . S
H99 N79 0.862 . S
O100 Co68 1.920 . S
O100 C73 1.289 . S
C101 O93 1.258 . S
C101 O94 1.266 . S
Co102 O105 1.970 1_545 S
Co102 N119 1.989 . S
Co102 O127 1.967 1_545 S
Co102 O134 1.920 . S
Co103 O106 1.966 1_545 S
Co103 N112 2.022 . S
Co103 N120 1.993 . S
Co103 O128 1.941 . S
C104 O105 1.258 . S
C104 O106 1.263 . S
O105 Co102 1.970 1_565 S
O105 C104 1.258 . S
O106 Co103 1.966 1_565 S
O106 C104 1.263 . S
C107 O108 1.235 . S
C107 O134 1.289 . S
O108 C107 1.235 . S
C109 C111 1.400 . S
C109 N112 1.351 . S
C109 C114 1.501 1_545 S
C110 C111 1.387 . S
C110 N113 1.341 . S
C111 C109 1.400 . S
C111 C110 1.387 . S
N112 Co103 2.022 . S
N112 C109 1.351 . S
N112 N113 1.365 . S
N113 C110 1.341 . S
N113 N112 1.365 . S
N113 H133 0.862 . S
C114 C109 1.501 1_565 S
C114 H115 0.961 . S
C114 H116 0.961 1_565 S
C114 H117 0.960 . S
H115 C114 0.961 . S
H116 C114 0.961 1_545 S
H117 C114 0.960 . S
C118 N119 1.342 . S
C118 C122 1.401 . S
C118 C123 1.499 . S
N119 Co102 1.989 . S
N119 C118 1.342 . S
N119 N120 1.388 . S
N120 Co103 1.993 . S
N120 N119 1.388 . S
N120 C121 1.346 . S
C121 N120 1.346 . S
C121 C122 1.396 . S
C121 C131 1.510 . S
C122 C118 1.401 . S
C122 C121 1.396 . S
C123 C118 1.499 . S
C123 H124 0.959 . S
C123 H125 0.960 . S
C123 H126 0.961 . S
H124 C123 0.959 . S
H125 C123 0.960 . S
H126 C123 0.961 . S
O127 Co102 1.967 1_565 S
O127 C135 1.258 . S
O128 Co103 1.941 . S
O128 C135 1.266 1_545 S
H129 C131 0.959 . S
H130 C131 0.961 . S
C131 C121 1.510 . S
C131 H129 0.959 . S
C131 H130 0.961 . S
C131 H132 0.960 . S
H132 C131 0.960 . S
H133 N113 0.862 . S
O134 Co102 1.920 . S
O134 C107 1.289 . S
C135 O127 1.258 . S
C135 O128 1.266 1_565 S
Co136 O139 1.970 1_455 S
Co136 N153 1.989 . S
Co136 O161 1.967 1_455 S
Co136 O168 1.920 . S
Co137 O140 1.966 1_455 S
Co137 N146 2.022 . S
Co137 N154 1.993 . S
Co137 O162 1.941 . S
C138 O139 1.258 . S
C138 O140 1.263 . S
O139 Co136 1.970 1_655 S
O139 C138 1.258 . S
O140 Co137 1.966 1_655 S
O140 C138 1.263 . S
C141 O142 1.235 . S
C141 O168 1.289 . S
O142 C141 1.235 . S
C143 C145 1.400 . S
C143 N146 1.351 . S
C143 C148 1.501 1_455 S
C144 C145 1.387 1_545 S
C144 N147 1.341 1_545 S
C145 C143 1.400 . S
C145 C144 1.387 1_565 S
N146 Co137 2.022 . S
N146 C143 1.351 . S
N146 N147 1.365 . S
N147 C144 1.341 1_565 S
N147 N146 1.365 . S
N147 H167 0.862 . S
C148 C143 1.501 1_655 S
C148 H149 0.961 . S
C148 H150 0.961 1_655 S
C148 H151 0.960 . S
H149 C148 0.961 . S
H150 C148 0.961 1_455 S
H151 C148 0.960 . S
C152 N153 1.342 . S
C152 C156 1.401 . S
C152 C157 1.499 . S
N153 Co136 1.989 . S
N153 C152 1.342 . S
N153 N154 1.388 . S
N154 Co137 1.993 . S
N154 N153 1.388 . S
N154 C155 1.346 . S
C155 N154 1.346 . S
C155 C156 1.396 . S
C155 C165 1.510 . S
C156 C152 1.401 . S
C156 C155 1.396 . S
C157 C152 1.499 . S
C157 H158 0.959 . S
C157 H159 0.960 . S
C157 H160 0.961 . S
H158 C157 0.959 . S
H159 C157 0.960 . S
H160 C157 0.961 . S
O161 Co136 1.967 1_655 S
O161 C169 1.258 . S
O162 Co137 1.941 . S
O162 C169 1.266 1_455 S
H163 C165 0.959 . S
H164 C165 0.961 . S
C165 C155 1.510 . S
C165 H163 0.959 . S
C165 H164 0.961 . S
C165 H166 0.960 . S
H166 C165 0.960 . S
H167 N147 0.862 . S
O168 Co136 1.920 . S
O168 C141 1.289 . S
C169 O161 1.258 . S
C169 O162 1.266 1_655 S
Co170 O173 1.970 . S
Co170 N187 1.989 . S
Co170 O195 1.967 . S
Co170 O202 1.920 . S
Co171 O174 1.966 . S
Co171 N180 2.022 . S
Co171 N188 1.993 . S
Co171 O196 1.941 . S
C172 O173 1.258 . S
C172 O174 1.263 . S
O173 Co170 1.970 . S
O173 C172 1.258 . S
O174 Co171 1.966 . S
O174 C172 1.263 . S
C175 O176 1.235 . S
C175 O202 1.289 . S
O176 C175 1.235 . S
C177 C179 1.400 . S
C177 N180 1.351 . S
C177 C182 1.501 . S
C178 C179 1.387 . S
C178 N181 1.341 . S
C179 C177 1.400 . S
C179 C178 1.387 . S
N180 Co171 2.022 . S
N180 C177 1.351 . S
N180 N181 1.365 . S
N181 C178 1.341 . S
N181 N180 1.365 . S
N181 H201 0.862 . S
C182 C177 1.501 . S
C182 H183 0.961 . S
C182 H184 0.961 . S
C182 H185 0.960 . S
H183 C182 0.961 . S
H184 C182 0.961 . S
H185 C182 0.960 . S
C186 N187 1.342 . S
C186 C190 1.401 . S
C186 C191 1.499 . S
N187 Co170 1.989 . S
N187 C186 1.342 . S
N187 N188 1.388 . S
N188 Co171 1.993 . S
N188 N187 1.388 . S
N188 C189 1.346 . S
C189 N188 1.346 . S
C189 C190 1.396 . S
C189 C199 1.510 . S
C190 C186 1.401 . S
C190 C189 1.396 . S
C191 C186 1.499 . S
C191 H192 0.959 . S
C191 H193 0.960 . S
C191 H194 0.961 . S
H192 C191 0.959 . S
H193 C191 0.960 . S
H194 C191 0.961 . S
O195 Co170 1.967 . S
O195 C203 1.258 . S
O196 Co171 1.941 . S
O196 C203 1.266 . S
H197 C199 0.959 . S
H198 C199 0.961 . S
C199 C189 1.510 . S
C199 H197 0.959 . S
C199 H198 0.961 . S
C199 H200 0.960 . S
H200 C199 0.960 . S
H201 N181 0.862 . S
O202 Co170 1.920 . S
O202 C175 1.289 . S
C203 O195 1.258 . S
C203 O196 1.266 . S
Co204 O207 1.970 . S
Co204 N221 1.989 . S
Co204 O229 1.967 . S
Co204 O236 1.920 . S
Co205 O208 1.966 . S
Co205 N214 2.022 . S
Co205 N222 1.993 . S
Co205 O230 1.941 . S
C206 O207 1.258 . S
C206 O208 1.263 . S
O207 Co204 1.970 . S
O207 C206 1.258 . S
O208 Co205 1.966 . S
O208 C206 1.263 . S
C209 O210 1.235 . S
C209 O236 1.289 . S
O210 C209 1.235 . S
C211 C213 1.400 . S
C211 N214 1.351 . S
C211 C216 1.501 . S
C212 C213 1.387 . S
C212 N215 1.341 . S
C213 C211 1.400 . S
C213 C212 1.387 . S
N214 Co205 2.022 . S
N214 C211 1.351 . S
N214 N215 1.365 . S
N215 C212 1.341 . S
N215 N214 1.365 . S
N215 H235 0.862 . S
C216 C211 1.501 . S
C216 H217 0.961 . S
C216 H218 0.961 . S
C216 H219 0.960 . S
H217 C216 0.961 . S
H218 C216 0.961 . S
H219 C216 0.960 . S
C220 N221 1.342 . S
C220 C224 1.401 . S
C220 C225 1.499 . S
N221 Co204 1.989 . S
N221 C220 1.342 . S
N221 N222 1.388 . S
N222 Co205 1.993 . S
N222 N221 1.388 . S
N222 C223 1.346 . S
C223 N222 1.346 . S
C223 C224 1.396 . S
C223 C233 1.510 . S
C224 C220 1.401 . S
C224 C223 1.396 . S
C225 C220 1.499 . S
C225 H226 0.959 . S
C225 H227 0.960 . S
C225 H228 0.961 . S
H226 C225 0.959 . S
H227 C225 0.960 . S
H228 C225 0.961 . S
O229 Co204 1.967 . S
O229 C237 1.258 . S
O230 Co205 1.941 . S
O230 C237 1.266 . S
H231 C233 0.959 . S
H232 C233 0.961 . S
C233 C223 1.510 . S
C233 H231 0.959 . S
C233 H232 0.961 . S
C233 H234 0.960 . S
H234 C233 0.960 . S
H235 N215 0.862 . S
O236 Co204 1.920 . S
O236 C209 1.289 . S
C237 O229 1.258 . S
C237 O230 1.266 . S
Co238 O241 1.970 . S
Co238 N255 1.989 . S
Co238 O263 1.967 . S
Co238 O270 1.920 . S
Co239 O242 1.966 . S
Co239 N248 2.022 . S
Co239 N256 1.993 . S
Co239 O264 1.941 . S
C240 O241 1.258 . S
C240 O242 1.263 . S
O241 Co238 1.970 . S
O241 C240 1.258 . S
O242 Co239 1.966 . S
O242 C240 1.263 . S
C243 O244 1.235 . S
C243 O270 1.289 . S
O244 C243 1.235 . S
C245 C247 1.400 . S
C245 N248 1.351 . S
C245 C250 1.501 . S
C246 C247 1.387 . S
C246 N249 1.341 . S
C247 C245 1.400 . S
C247 C246 1.387 . S
N248 Co239 2.022 . S
N248 C245 1.351 . S
N248 N249 1.365 . S
N249 C246 1.341 . S
N249 N248 1.365 . S
N249 H269 0.862 . S
C250 C245 1.501 . S
C250 H251 0.961 . S
C250 H252 0.961 . S
C250 H253 0.960 . S
H251 C250 0.961 . S
H252 C250 0.961 . S
H253 C250 0.960 . S
C254 N255 1.342 1_565 S
C254 C258 1.401 . S
C254 C259 1.499 . S
N255 Co238 1.989 . S
N255 C254 1.342 1_545 S
N255 N256 1.388 . S
N256 Co239 1.993 . S
N256 N255 1.388 . S
N256 C257 1.346 1_545 S
C257 N256 1.346 1_565 S
C257 C258 1.396 . S
C257 C267 1.510 . S
C258 C254 1.401 . S
C258 C257 1.396 . S
C259 C254 1.499 . S
C259 H260 0.959 . S
C259 H261 0.960 . S
C259 H262 0.961 . S
H260 C259 0.959 . S
H261 C259 0.960 . S
H262 C259 0.961 . S
O263 Co238 1.967 . S
O263 C271 1.258 . S
O264 Co239 1.941 . S
O264 C271 1.266 . S
H265 C267 0.959 . S
H266 C267 0.961 . S
C267 C257 1.510 . S
C267 H265 0.959 . S
C267 H266 0.961 . S
C267 H268 0.960 . S
H268 C267 0.960 . S
H269 N249 0.862 . S
O270 Co238 1.920 . S
O270 C243 1.289 . S
C271 O263 1.258 . S
C271 O264 1.266 . S
H272 C278 0.930 1_565 S
H273 C281 0.930 1_655 S
H274 C282 0.930 . S
H275 C283 0.930 1_655 S
H276 C286 0.930 . S
H277 C287 0.930 . S
C278 H272 0.930 1_545 S
C278 C279 1.355 1_545 S
C278 C280 1.415 . S
C279 C278 1.355 1_565 S
C279 C281 1.419 1_565 S
C280 C278 1.415 . S
C280 C285 1.425 . S
C280 C287 1.409 . S
C281 H273 0.930 1_455 S
C281 C279 1.419 1_545 S
C281 C282 1.362 1_455 S
C282 H274 0.930 . S
C282 C281 1.362 1_655 S
C282 C285 1.409 1_655 S
C283 H275 0.930 1_455 S
C283 C284 1.355 . S
C283 C285 1.415 . S
C284 C283 1.355 . S
C284 C286 1.419 . S
C285 C280 1.425 . S
C285 C282 1.409 1_455 S
C285 C283 1.415 . S
C286 H276 0.930 . S
C286 C284 1.419 . S
C286 C287 1.362 . S
C287 H277 0.930 . S
C287 C280 1.409 . S
C287 C286 1.362 . S
H288 C294 0.930 . S
H289 C297 0.930 . S
H290 C298 0.930 . S
H291 C299 0.930 . S
H292 C302 0.930 . S
H293 C303 0.930 . S
C294 H288 0.930 . S
C294 C295 1.355 . S
C294 C296 1.415 . S
C295 C294 1.355 . S
C295 C297 1.419 . S
C296 C294 1.415 . S
C296 C301 1.425 1_554 S
C296 C303 1.409 1_554 S
C297 H289 0.930 . S
C297 C295 1.419 . S
C297 C298 1.362 . S
C298 H290 0.930 . S
C298 C297 1.362 . S
C298 C301 1.409 1_554 S
C299 H291 0.930 . S
C299 C300 1.355 . S
C299 C301 1.415 . S
C300 C299 1.355 . S
C300 C302 1.419 . S
C301 C296 1.425 1_556 S
C301 C298 1.409 1_556 S
C301 C299 1.415 . S
C302 H292 0.930 . S
C302 C300 1.419 . S
C302 C303 1.362 . S
C303 H293 0.930 . S
C303 C296 1.409 1_556 S
C303 C302 1.362 . S
H304 C310 0.930 . S
H305 C313 0.930 . S
H306 C314 0.930 . S
H307 C315 0.930 . S
H308 C318 0.930 . S
H309 C319 0.930 . S
C310 H304 0.930 . S
C310 C311 1.355 . S
C310 C312 1.415 . S
C311 C310 1.355 . S
C311 C313 1.419 . S
C312 C310 1.415 . S
C312 C317 1.425 . S
C312 C319 1.409 . S
C313 H305 0.930 . S
C313 C311 1.419 . S
C313 C314 1.362 . S
C314 H306 0.930 . S
C314 C313 1.362 . S
C314 C317 1.409 . S
C315 H307 0.930 . S
C315 C316 1.355 . S
C315 C317 1.415 . S
C316 C315 1.355 . S
C316 C318 1.419 . S
C317 C312 1.425 . S
C317 C314 1.409 . S
C317 C315 1.415 . S
C318 H308 0.930 . S
C318 C316 1.419 . S
C318 C319 1.362 . S
C319 H309 0.930 . S
C319 C312 1.409 . S
C319 C318 1.362 . S
H320 C326 0.930 . S
H321 C329 0.930 . S
H322 C330 0.930 . S
H323 C331 0.930 . S
H324 C334 0.930 . S
H325 C335 0.930 . S
C326 H320 0.930 . S
C326 C327 1.355 . S
C326 C328 1.415 1_556 S
C327 C326 1.355 . S
C327 C329 1.419 . S
C328 C326 1.415 1_554 S
C328 C333 1.425 1_554 S
C328 C335 1.409 . S
C329 H321 0.930 . S
C329 C327 1.419 . S
C329 C330 1.362 . S
C330 H322 0.930 . S
C330 C329 1.362 . S
C330 C333 1.409 . S
C331 H323 0.930 . S
C331 C332 1.355 . S
C331 C333 1.415 1_554 S
C332 C331 1.355 . S
C332 C334 1.419 . S
C333 C328 1.425 1_556 S
C333 C330 1.409 . S
C333 C331 1.415 1_556 S
C334 H324 0.930 . S
C334 C332 1.419 . S
C334 C335 1.362 . S
C335 H325 0.930 . S
C335 C328 1.409 . S
C335 C334 1.362 . S
H336 C342 0.930 . S
H337 C345 0.930 . S
H338 C346 0.930 . S
H339 C347 0.930 . S
H340 C350 0.930 . S
H341 C351 0.930 . S
C342 H336 0.930 . S
C342 C343 1.355 . S
C342 C344 1.415 . S
C343 C342 1.355 . S
C343 C345 1.419 . S
C344 C342 1.415 . S
C344 C349 1.425 . S
C344 C351 1.409 . S
C345 H337 0.930 . S
C345 C343 1.419 . S
C345 C346 1.362 . S
C346 H338 0.930 . S
C346 C345 1.362 . S
C346 C349 1.409 . S
C347 H339 0.930 . S
C347 C348 1.355 . S
C347 C349 1.415 . S
C348 C347 1.355 . S
C348 C350 1.419 . S
C349 C344 1.425 . S
C349 C346 1.409 . S
C349 C347 1.415 . S
C350 H340 0.930 . S
C350 C348 1.419 . S
C350 C351 1.362 . S
C351 H341 0.930 . S
C351 C344 1.409 . S
C351 C350 1.362 . S
H352 C358 0.930 . S
H353 C361 0.930 . S
H354 C362 0.930 . S
H355 C363 0.930 . S
H356 C366 0.920 1_455 S
H357 C367 0.930 . S
C358 H352 0.930 . S
C358 C359 1.355 . S
C358 C360 1.415 . S
C359 C358 1.355 . S
C359 C361 1.419 1_455 S
C360 C358 1.415 . S
C360 C365 1.425 1_455 S
C360 C367 1.409 . S
C361 H353 0.930 . S
C361 C359 1.419 1_655 S
C361 C362 1.362 . S
C362 H354 0.930 . S
C362 C361 1.362 . S
C362 C365 1.409 . S
C363 H355 0.930 . S
C363 C364 1.355 . S
C363 C365 1.415 . S
C364 C363 1.355 . S
C364 C366 1.442 . S
C365 C360 1.425 1_655 S
C365 C362 1.409 . S
C365 C363 1.415 . S
C366 H356 0.920 1_655 S
C366 C364 1.442 . S
C366 C367 1.349 1_655 S
C367 H357 0.930 . S
C367 C360 1.409 . S
C367 C366 1.349 1_455 S
H368 C374 0.930 . S
H369 C377 0.930 . S
H370 C378 0.930 . S
H371 C379 0.930 . S
H372 C382 0.930 . S
H373 C383 0.930 . S
C374 H368 0.930 . S
C374 C375 1.355 . S
C374 C376 1.415 . S
C375 C374 1.355 . S
C375 C377 1.419 . S
C376 C374 1.415 . S
C376 C381 1.425 . S
C376 C383 1.409 . S
C377 H369 0.930 . S
C377 C375 1.419 . S
C377 C378 1.362 . S
C378 H370 0.930 . S
C378 C377 1.362 . S
C378 C381 1.409 . S
C379 H371 0.930 . S
C379 C380 1.355 . S
C379 C381 1.415 . S
C380 C379 1.355 . S
C380 C382 1.419 . S
C381 C376 1.425 . S
C381 C378 1.409 . S
C381 C379 1.415 . S
C382 H372 0.930 . S
C382 C380 1.419 . S
C382 C383 1.362 . S
C383 H373 0.930 . S
C383 C376 1.409 . S
C383 C382 1.362 . S
H384 C390 0.930 . S
H385 C393 0.930 . S
H386 C394 0.930 . S
H387 C395 0.930 . S
H388 C398 0.930 1_545 S
H389 C399 0.930 . S
C390 H384 0.930 . S
C390 C391 1.355 . S
C390 C392 1.415 . S
C391 C390 1.355 . S
C391 C393 1.419 . S
C392 C390 1.415 . S
C392 C397 1.425 . S
C392 C399 1.409 . S
C393 H385 0.930 . S
C393 C391 1.419 . S
C393 C394 1.362 . S
C394 H386 0.930 . S
C394 C393 1.362 . S
C394 C397 1.409 . S
C395 H387 0.930 . S
C395 C396 1.355 . S
C395 C397 1.415 . S
C396 C395 1.355 . S
C396 C398 1.419 . S
C397 C392 1.425 . S
C397 C394 1.409 . S
C397 C395 1.415 . S
C398 H388 0.930 1_565 S
C398 C396 1.419 . S
C398 C399 1.362 . S
C399 H389 0.930 . S
C399 C392 1.409 . S
C399 C398 1.362 . S
H400 C406 0.930 . S
H401 C409 0.930 1_545 S
H402 C410 0.930 1_455 S
H403 C411 0.930 . S
H404 C414 0.930 . S
H405 C415 0.930 . S
C406 H400 0.930 . S
C406 C407 1.355 . S
C406 C408 1.415 . S
C407 C406 1.355 . S
C407 C409 1.419 1_655 S
C408 C406 1.415 . S
C408 C413 1.425 1_565 S
C408 C415 1.409 . S
C409 H401 0.930 1_565 S
C409 C407 1.419 1_455 S
C409 C410 1.362 1_465 S
C410 H402 0.930 1_655 S
C410 C409 1.362 1_645 S
C410 C413 1.409 . S
C411 H403 0.930 . S
C411 C412 1.355 . S
C411 C413 1.415 . S
C412 C411 1.355 . S
C412 C414 1.419 1_545 S
C413 C408 1.425 1_545 S
C413 C410 1.409 . S
C413 C411 1.415 . S
C414 H404 0.930 . S
C414 C412 1.419 1_565 S
C414 C415 1.362 . S
C415 H405 0.930 . S
C415 C408 1.409 . S
C415 C414 1.362 . S
H416 C422 0.930 . S
H417 C425 0.930 . S
H418 C426 0.930 . S
H419 C427 0.930 . S
H420 C430 0.930 . S
H421 C431 0.930 . S
C422 H416 0.930 . S
C422 C423 1.355 . S
C422 C424 1.415 . S
C423 C422 1.355 . S
C423 C425 1.419 . S
C424 C422 1.415 . S
C424 C429 1.425 . S
C424 C431 1.409 . S
C425 H417 0.930 . S
C425 C423 1.419 . S
C425 C426 1.362 . S
C426 H418 0.930 . S
C426 C425 1.362 . S
C426 C429 1.409 . S
C427 H419 0.930 . S
C427 C428 1.355 . S
C427 C429 1.415 . S
C428 C427 1.355 . S
C428 C430 1.419 . S
C429 C424 1.425 . S
C429 C426 1.409 . S
C429 C427 1.415 . S
C430 H420 0.930 . S
C430 C428 1.419 . S
C430 C431 1.362 . S
C431 H421 0.930 . S
C431 C424 1.409 . S
C431 C430 1.362 . S
H432 C438 0.930 . S
H433 C441 0.930 . S
H434 C442 0.930 . S
H435 C443 0.930 . S
H436 C446 0.930 . S
H437 C447 0.930 . S
C438 H432 0.930 . S
C438 C439 1.355 . S
C438 C440 1.415 . S
C439 C438 1.355 . S
C439 C441 1.419 . S
C440 C438 1.415 . S
C440 C445 1.425 . S
C440 C447 1.409 . S
C441 H433 0.930 . S
C441 C439 1.419 . S
C441 C442 1.362 . S
C442 H434 0.930 . S
C442 C441 1.362 . S
C442 C445 1.409 . S
C443 H435 0.930 . S
C443 C444 1.355 . S
C443 C445 1.415 . S
C444 C443 1.355 . S
C444 C446 1.419 . S
C445 C440 1.425 . S
C445 C442 1.409 . S
C445 C443 1.415 . S
C446 H436 0.930 . S
C446 C444 1.419 . S
C446 C447 1.362 . S
C447 H437 0.930 . S
C447 C440 1.409 . S
C447 C446 1.362 . S
H448 C454 0.930 . S
H449 C457 0.930 . S
H450 C458 0.930 . S
H451 C459 0.930 . S
H452 C462 0.930 . S
H453 C463 0.930 . S
C454 H448 0.930 . S
C454 C455 1.355 . S
C454 C456 1.415 . S
C455 C454 1.355 . S
C455 C457 1.419 . S
C456 C454 1.415 . S
C456 C461 1.425 . S
C456 C463 1.409 . S
C457 H449 0.930 . S
C457 C455 1.419 . S
C457 C458 1.362 . S
C458 H450 0.930 . S
C458 C457 1.362 . S
C458 C461 1.409 . S
C459 H451 0.930 . S
C459 C460 1.355 . S
C459 C461 1.415 . S
C460 C459 1.355 . S
C460 C462 1.419 . S
C461 C456 1.425 . S
C461 C458 1.409 . S
C461 C459 1.415 . S
C462 H452 0.930 . S
C462 C460 1.419 . S
C462 C463 1.362 . S
C463 H453 0.930 . S
C463 C456 1.409 . S
C463 C462 1.362 . S
H464 C470 0.930 . S
H465 C473 0.930 . S
H466 C474 0.930 . S
H467 C475 0.930 . S
H468 C478 0.930 . S
H469 C479 0.930 . S
C470 H464 0.930 . S
C470 C471 1.355 . S
C470 C472 1.415 . S
C471 C470 1.355 . S
C471 C473 1.419 . S
C472 C470 1.415 . S
C472 C477 1.425 . S
C472 C479 1.409 . S
C473 H465 0.930 . S
C473 C471 1.419 . S
C473 C474 1.362 . S
C474 H466 0.930 . S
C474 C473 1.362 . S
C474 C477 1.409 . S
C475 H467 0.930 . S
C475 C476 1.355 . S
C475 C477 1.415 . S
C476 C475 1.355 . S
C476 C478 1.419 . S
C477 C472 1.425 . S
C477 C474 1.409 . S
C477 C475 1.415 . S
C478 H468 0.930 . S
C478 C476 1.419 . S
C478 C479 1.362 . S
C479 H469 0.930 . S
C479 C472 1.409 . S
C479 C478 1.362 . S
H480 C486 0.930 . S
H481 C489 0.930 . S
H482 C490 0.930 . S
H483 C491 0.930 . S
H484 C494 0.930 . S
H485 C495 0.930 . S
C486 H480 0.930 . S
C486 C487 1.355 . S
C486 C488 1.415 . S
C487 C486 1.355 . S
C487 C489 1.419 . S
C488 C486 1.415 . S
C488 C493 1.425 . S
C488 C495 1.409 . S
C489 H481 0.930 . S
C489 C487 1.419 . S
C489 C490 1.362 . S
C490 H482 0.930 . S
C490 C489 1.362 . S
C490 C493 1.409 . S
C491 H483 0.930 . S
C491 C492 1.355 . S
C491 C493 1.415 . S
C492 C491 1.355 . S
C492 C494 1.419 . S
C493 C488 1.425 . S
C493 C490 1.409 . S
C493 C491 1.415 . S
C494 H484 0.930 . S
C494 C492 1.419 . S
C494 C495 1.362 . S
C495 H485 0.930 . S
C495 C488 1.409 . S
C495 C494 1.362 . S
H496 C502 0.930 . S
H497 C505 0.930 . S
H498 C506 0.930 . S
H499 C507 0.930 . S
H500 C510 0.930 . S
H501 C511 0.930 . S
C502 H496 0.930 . S
C502 C503 1.355 . S
C502 C504 1.415 . S
C503 C502 1.355 . S
C503 C505 1.419 . S
C504 C502 1.415 . S
C504 C509 1.425 . S
C504 C511 1.409 . S
C505 H497 0.930 . S
C505 C503 1.419 . S
C505 C506 1.362 . S
C506 H498 0.930 . S
C506 C505 1.362 . S
C506 C509 1.409 . S
C507 H499 0.930 . S
C507 C508 1.355 . S
C507 C509 1.415 . S
C508 C507 1.355 . S
C508 C510 1.419 . S
C509 C504 1.425 . S
C509 C506 1.409 . S
C509 C507 1.415 . S
C510 H500 0.930 . S
C510 C508 1.419 . S
C510 C511 1.362 . S
C511 H501 0.930 . S
C511 C504 1.409 . S
C511 C510 1.362 . S
H512 C518 0.930 . S
H513 C521 0.930 . S
H514 C522 0.930 . S
H515 C523 0.930 . S
H516 C526 0.930 . S
H517 C527 0.930 . S
C518 H512 0.930 . S
C518 C519 1.355 . S
C518 C520 1.415 . S
C519 C518 1.355 . S
C519 C521 1.419 . S
C520 C518 1.415 . S
C520 C525 1.425 . S
C520 C527 1.409 . S
C521 H513 0.930 . S
C521 C519 1.419 . S
C521 C522 1.362 . S
C522 H514 0.930 . S
C522 C521 1.362 . S
C522 C525 1.409 . S
C523 H515 0.930 . S
C523 C524 1.355 . S
C523 C525 1.415 . S
C524 C523 1.355 . S
C524 C526 1.419 . S
C525 C520 1.425 . S
C525 C522 1.409 . S
C525 C523 1.415 . S
C526 H516 0.930 . S
C526 C524 1.419 . S
C526 C527 1.362 . S
C527 H517 0.930 . S
C527 C520 1.409 . S
C527 C526 1.362 . S
H528 C534 0.930 . S
H529 C537 0.930 . S
H530 C538 0.930 . S
H531 C539 0.930 . S
H532 C542 0.930 . S
H533 C543 0.930 . S
C534 H528 0.930 . S
C534 C535 1.355 . S
C534 C536 1.415 . S
C535 C534 1.355 . S
C535 C537 1.419 . S
C536 C534 1.415 . S
C536 C541 1.425 . S
C536 C543 1.409 . S
C537 H529 0.930 . S
C537 C535 1.419 . S
C537 C538 1.362 . S
C538 H530 0.930 . S
C538 C537 1.362 . S
C538 C541 1.409 . S
C539 H531 0.930 . S
C539 C540 1.355 . S
C539 C541 1.415 . S
C540 C539 1.355 . S
C540 C542 1.419 . S
C541 C536 1.425 . S
C541 C538 1.409 . S
C541 C539 1.415 . S
C542 H532 0.930 . S
C542 C540 1.419 . S
C542 C543 1.362 . S
C543 H533 0.930 . S
C543 C536 1.409 . S
C543 C542 1.362 . S
H544 C550 0.930 . S
H545 C553 0.930 . S
H546 C554 0.930 . S
H547 C555 0.930 . S
H548 C558 0.930 . S
H549 C559 0.930 . S
C550 H544 0.930 . S
C550 C551 1.355 . S
C550 C552 1.415 . S
C551 C550 1.355 . S
C551 C553 1.419 . S
C552 C550 1.415 . S
C552 C557 1.425 . S
C552 C559 1.409 . S
C553 H545 0.930 . S
C553 C551 1.419 . S
C553 C554 1.362 . S
C554 H546 0.930 . S
C554 C553 1.362 . S
C554 C557 1.409 . S
C555 H547 0.930 . S
C555 C556 1.355 . S
C555 C557 1.415 . S
C556 C555 1.355 . S
C556 C558 1.419 . S
C557 C552 1.425 . S
C557 C554 1.409 . S
C557 C555 1.415 . S
C558 H548 0.930 . S
C558 C556 1.419 . S
C558 C559 1.362 . S
C559 H549 0.930 . S
C559 C552 1.409 . S
C559 C558 1.362 . S
H560 C566 0.930 . S
H561 C569 0.930 . S
H562 C570 0.930 . S
H563 C571 0.930 . S
H564 C574 0.930 . S
H565 C575 0.930 . S
C566 H560 0.930 . S
C566 C567 1.355 . S
C566 C568 1.415 . S
C567 C566 1.355 . S
C567 C569 1.419 . S
C568 C566 1.415 . S
C568 C573 1.425 . S
C568 C575 1.409 . S
C569 H561 0.930 . S
C569 C567 1.419 . S
C569 C570 1.362 . S
C570 H562 0.930 . S
C570 C569 1.362 . S
C570 C573 1.409 . S
C571 H563 0.930 . S
C571 C572 1.355 . S
C571 C573 1.415 . S
C572 C571 1.355 . S
C572 C574 1.419 . S
C573 C568 1.425 . S
C573 C570 1.409 . S
C573 C571 1.415 . S
C574 H564 0.930 . S
C574 C572 1.419 . S
C574 C575 1.362 . S
C575 H565 0.930 . S
C575 C568 1.409 . S
C575 C574 1.362 . S
H576 C582 0.930 . S
H577 C585 0.930 . S
H578 C586 0.930 . S
H579 C587 0.930 . S
H580 C590 0.930 . S
H581 C591 0.930 . S
C582 H576 0.930 . S
C582 C583 1.355 . S
C582 C584 1.415 . S
C583 C582 1.355 . S
C583 C585 1.419 . S
C584 C582 1.415 . S
C584 C589 1.425 . S
C584 C591 1.409 . S
C585 H577 0.930 . S
C585 C583 1.419 . S
C585 C586 1.362 . S
C586 H578 0.930 . S
C586 C585 1.362 . S
C586 C589 1.409 . S
C587 H579 0.930 . S
C587 C588 1.355 . S
C587 C589 1.415 . S
C588 C587 1.355 . S
C588 C590 1.419 . S
C589 C584 1.425 . S
C589 C586 1.409 . S
C589 C587 1.415 . S
C590 H580 0.930 . S
C590 C588 1.419 . S
C590 C591 1.362 . S
C591 H581 0.930 . S
C591 C584 1.409 . S
C591 C590 1.362 . S
C279 C145 1.441 . S
C284 C9 1.441 . S
C295 C43 1.426 1_455 S
C300 C179 1.426 . S
C311 C77 1.442 . S
C316 C213 1.442 . S
C327 C247 1.421 . S
C332 C111 1.421 . S
C343 C243 0.873 . S
C348 C33 0.940 . S
C359 C141 0.867 . S
C364 C67 0.943 . S
C375 C175 0.912 . S
C380 C101 0.918 . S
C391 C209 0.868 . S
C396 C135 0.943 . S
C407 C169 0.940 . S
C412 C107 0.873 . S
C423 C203 0.936 . S
C428 C5 0.879 . S
C439 C237 0.918 . S
C444 C39 0.911 . S
C455 C271 0.913 . S
C460 C73 0.920 . S
C471 C20 1.287 . S
C476 C88 1.291 . S
C487 C54 1.291 . S
C492 C122 1.299 . S
C503 C224 1.301 . S
C508 C156 1.293 . S
C519 C258 1.301 . S
C524 C190 1.296 . S
C535 C70 1.350 . S
C540 C2 1.289 . S
C551 C36 1.292 . S
C556 C104 1.334 . S
C567 C206 1.331 . S
C572 C138 1.328 . S
C583 C240 1.316 . S
C588 C172 1.341 . S
