# Generated by pormake.
# Topology umj, (4)-cn, num edge types: 1
# Building blocks:
#     Node 0, Type 0, BuildingBlock: KOZSID_clean_sbu_0, # of connection points: 4
#     Node 1, Type 0, BuildingBlock: KOZSID_clean_sbu_0, # of connection points: 4
#     Node 2, Type 0, BuildingBlock: KOZSID_clean_sbu_0, # of connection points: 4
#     Node 3, Type 0, BuildingBlock: KOZSID_clean_sbu_0, # of connection points: 4
#     Node 4, Type 0, BuildingBlock: KOZSID_clean_sbu_0, # of connection points: 4
#     Node 5, Type 0, BuildingBlock: KOZSID_clean_sbu_0, # of connection points: 4
#     Node 6, Type 0, BuildingBlock: KOZSID_clean_sbu_0, # of connection points: 4
#     Node 7, Type 0, BuildingBlock: KOZSID_clean_sbu_0, # of connection points: 4
#     Node 8, Type 0, BuildingBlock: KOZSID_clean_sbu_0, # of connection points: 4
#     Node 9, Type 0, BuildingBlock: KOZSID_clean_sbu_0, # of connection points: 4
#     Node 10, Type 0, BuildingBlock: KOZSID_clean_sbu_0, # of connection points: 4
#     Node 11, Type 0, BuildingBlock: KOZSID_clean_sbu_0, # of connection points: 4
#     Edge 12, Type (0, 0), BuildingBlock: UVAHIK_clean_linker_0, # of connection points: 2
#     Edge 13, Type (0, 0), BuildingBlock: UVAHIK_clean_linker_0, # of connection points: 2
#     Edge 14, Type (0, 0), BuildingBlock: UVAHIK_clean_linker_0, # of connection points: 2
#     Edge 15, Type (0, 0), BuildingBlock: UVAHIK_clean_linker_0, # of connection points: 2
#     Edge 16, Type (0, 0), BuildingBlock: UVAHIK_clean_linker_0, # of connection points: 2
#     Edge 17, Type (0, 0), BuildingBlock: UVAHIK_clean_linker_0, # of connection points: 2
#     Edge 18, Type (0, 0), BuildingBlock: UVAHIK_clean_linker_0, # of connection points: 2
#     Edge 19, Type (0, 0), BuildingBlock: UVAHIK_clean_linker_0, # of connection points: 2
#     Edge 20, Type (0, 0), BuildingBlock: UVAHIK_clean_linker_0, # of connection points: 2
#     Edge 21, Type (0, 0), BuildingBlock: UVAHIK_clean_linker_0, # of connection points: 2
#     Edge 22, Type (0, 0), BuildingBlock: UVAHIK_clean_linker_0, # of connection points: 2
#     Edge 23, Type (0, 0), BuildingBlock: UVAHIK_clean_linker_0, # of connection points: 2
#     Edge 24, Type (0, 0), BuildingBlock: UVAHIK_clean_linker_0, # of connection points: 2
#     Edge 25, Type (0, 0), BuildingBlock: UVAHIK_clean_linker_0, # of connection points: 2
#     Edge 26, Type (0, 0), BuildingBlock: UVAHIK_clean_linker_0, # of connection points: 2
#     Edge 27, Type (0, 0), BuildingBlock: UVAHIK_clean_linker_0, # of connection points: 2
#     Edge 28, Type (0, 0), BuildingBlock: UVAHIK_clean_linker_0, # of connection points: 2
#     Edge 29, Type (0, 0), BuildingBlock: UVAHIK_clean_linker_0, # of connection points: 2
#     Edge 30, Type (0, 0), BuildingBlock: UVAHIK_clean_linker_0, # of connection points: 2
#     Edge 31, Type (0, 0), BuildingBlock: UVAHIK_clean_linker_0, # of connection points: 2
#     Edge 32, Type (0, 0), BuildingBlock: UVAHIK_clean_linker_0, # of connection points: 2
#     Edge 33, Type (0, 0), BuildingBlock: UVAHIK_clean_linker_0, # of connection points: 2
#     Edge 34, Type (0, 0), BuildingBlock: UVAHIK_clean_linker_0, # of connection points: 2
#     Edge 35, Type (0, 0), BuildingBlock: UVAHIK_clean_linker_0, # of connection points: 2
# Relax obj value: 0.054
# Max RMSD: 0.157
# Mean RMSD: 0.157
data_MOF--net-umj--node1-KOZSID_clean_sbu_0--edge1-UVAHIK_clean_linker_0
_symmetry_space_group_name_H-M    P1
_symmetry_Int_Tables_number       1
_symmetry_cell_setting            triclinic
loop_
_symmetry_equiv_pos_as_xyz
'x, y, z'
_cell_length_a     48.1132
_cell_length_b     48.202501
_cell_length_c     119.05258
_cell_angle_alpha  90.003622
_cell_angle_beta   90.000898
_cell_angle_gamma 120.03022
loop_
_atom_site_label
_atom_site_type_symbol
_atom_site_fract_x
_atom_site_fract_y
_atom_site_fract_z
_atom_type_partial_charge
C0 C 0.02241 0.25313 0.05416 0.0
C1 C 0.99797 0.23895 0.04629 0.0
C2 C 0.9698 0.22853 0.05198 0.0
C3 C 0.97857 0.23694 0.06296 0.0
N4 N 0.01071 0.25256 0.06461 0.0
Co5 Co 0.03375 0.26713 0.07939 0.0
N6 N 0.99224 0.24859 0.08796 0.0
C7 C 0.96226 0.23423 0.08358 0.0
C8 C 0.93854 0.22408 0.09153 0.0
C9 C 0.95426 0.23246 0.1016 0.0
C10 C 0.98679 0.24723 0.0992 0.0
N11 N 0.05695 0.28104 0.09413 0.0
C12 C 0.04543 0.27622 0.10477 0.0
C13 C 0.07008 0.28913 0.11264 0.0
C14 C 0.09812 0.30271 0.10678 0.0
C15 C 0.08908 0.29723 0.09573 0.0
N16 N 0.07527 0.28605 0.07085 0.0
C17 C 0.10523 0.30282 0.07518 0.0
C18 C 0.12916 0.31159 0.06742 0.0
C19 C 0.11368 0.29946 0.05752 0.0
C20 C 0.08094 0.28408 0.0598 0.0
N21 N 0.03392 0.30879 0.07821 0.0
C22 C 0.03092 0.36619 0.07851 0.0
C23 C 0.05935 0.36637 0.08121 0.0
C24 C 0.06026 0.3376 0.08108 0.0
C25 C 1.00461 0.33708 0.07524 0.0
C26 C 1.00673 0.30921 0.07502 0.0
N27 N 0.03301 0.22547 0.08062 0.0
C28 C 0.05941 0.19428 0.08345 0.0
C29 C 0.03024 0.1655 0.08226 0.0
C30 C 1.00275 0.16745 0.08016 0.0
C31 C 1.00467 0.19722 0.07931 0.0
C32 C 0.06021 0.22384 0.0827 0.0
H33 H 0.98277 0.19667 0.07753 0.0
H34 H 0.083 0.24509 0.08385 0.0
H35 H 0.08239 0.3392 0.08346 0.0
H36 H 0.98576 0.28826 0.07231 0.0
C37 C 0.95722 0.22916 0.07199 0.0
C38 C 0.05632 0.26656 0.05131 0.0
C39 C 0.01157 0.25962 0.10787 0.0
C40 C 0.11021 0.30691 0.08671 0.0
H41 H 1.0003 0.23608 0.03738 0.0
H42 H 0.94575 0.21571 0.04855 0.0
H43 H 0.91284 0.21168 0.09018 0.0
H44 H 0.9431 0.22808 0.1098 0.0
H45 H 0.06806 0.28872 0.1217 0.0
H46 H 0.12224 0.31498 0.11016 0.0
H47 H 0.15481 0.32406 0.06888 0.0
H48 H 0.12541 0.30096 0.04962 0.0
H49 H 0.08052 0.38842 0.08372 0.0
H50 H 0.98229 0.33577 0.0728 0.0
H51 H 0.08141 0.19401 0.08511 0.0
H52 H 0.97968 0.14595 0.07897 0.0
C53 C 0.77661 0.01669 0.38731 0.0
C54 C 0.76728 0.99158 0.37981 0.0
C55 C 0.74888 0.96401 0.38573 0.0
C56 C 0.74815 0.97381 0.39649 0.0
N57 N 0.7644 0.00604 0.39774 0.0
Co58 Co 0.77263 0.03053 0.41219 0.0
N59 N 0.74983 0.99004 0.42125 0.0
C60 C 0.7338 0.95972 0.41722 0.0
C61 C 0.72033 0.93687 0.42546 0.0
C62 C 0.72818 0.95358 0.43533 0.0
C63 C 0.74615 0.98577 0.43254 0.0
N64 N 0.78212 0.05524 0.42658 0.0
C65 C 0.77621 0.04486 0.43736 0.0
C66 C 0.78828 0.07029 0.4449 0.0
C67 C 0.80211 0.09766 0.43867 0.0
C68 C 0.79794 0.08748 0.42774 0.0
N69 N 0.79471 0.07098 0.40315 0.0
C70 C 0.80656 0.10126 0.40695 0.0
C71 C 0.82042 0.12416 0.39876 0.0
C72 C 0.81779 0.10757 0.38917 0.0
C73 C 0.80259 0.07539 0.39212 0.0
N74 N 0.73089 0.03024 0.4107 0.0
C75 C 0.67009 0.02694 0.40998 0.0
C76 C 0.69792 0.05492 0.4134 0.0
C77 C 0.72771 0.05602 0.41371 0.0
C78 C 0.67369 1.00102 0.40676 0.0
C79 C 0.7038 1.00329 0.40705 0.0
N80 N 0.81371 0.03028 0.4137 0.0
C81 C 0.87161 0.0575 0.41587 0.0
C82 C 0.87133 0.02829 0.41542 0.0
C83 C 0.84178 1.00036 0.41405 0.0
C84 C 0.8137 1.00188 0.41315 0.0
C85 C 0.84262 0.05793 0.4151 0.0
H86 H 0.79222 0.97963 0.41194 0.0
H87 H 0.844 0.08078 0.41563 0.0
H88 H 0.74773 0.07794 0.41649 0.0
H89 H 0.70419 0.98254 0.40439 0.0
C90 C 0.73418 0.95347 0.40573 0.0
C91 C 0.79819 0.05021 0.38433 0.0
C92 C 0.75928 0.01139 0.4409 0.0
C93 C 0.80819 0.10761 0.41841 0.0
H94 H 0.77374 0.99303 0.37103 0.0
H95 H 0.73824 0.93968 0.38264 0.0
H96 H 0.70697 0.91111 0.42443 0.0
H97 H 0.72169 0.94326 0.44366 0.0
H98 H 0.78722 0.06923 0.45398 0.0
H99 H 0.81387 0.12207 0.44173 0.0
H100 H 0.83243 0.14993 0.39975 0.0
H101 H 0.82706 0.11803 0.38101 0.0
H102 H 0.69693 0.07607 0.4158 0.0
H103 H 0.65323 0.97847 0.40422 0.0
H104 H 0.89396 0.07982 0.41696 0.0
H105 H 0.84029 0.97722 0.41344 0.0
C106 C 0.76311 0.77096 0.72039 0.0
C107 C 0.77787 0.76058 0.71282 0.0
C108 C 0.78712 0.74233 0.71879 0.0
C109 C 0.77761 0.74267 0.72963 0.0
N110 N 0.76223 0.75951 0.7309 0.0
Co111 Co 0.74724 0.76908 0.74538 0.0
N112 N 0.76547 0.74682 0.75447 0.0
C113 C 0.77963 0.73061 0.75047 0.0
C114 C 0.78974 0.71789 0.75874 0.0
C115 C 0.78161 0.72651 0.76861 0.0
C116 C 0.76696 0.74407 0.76578 0.0
N117 N 0.73298 0.77958 0.75979 0.0
C118 C 0.73803 0.77426 0.77058 0.0
C119 C 0.72417 0.78581 0.77811 0.0
C120 C 0.71014 0.79916 0.77188 0.0
C121 C 0.71614 0.795 0.76095 0.0
N122 N 0.72867 0.79099 0.73633 0.0
C123 C 0.71095 0.80362 0.74017 0.0
C124 C 0.70196 0.81753 0.73198 0.0
C125 C 0.71524 0.81412 0.72234 0.0
C126 C 0.73175 0.79839 0.72526 0.0
N127 N 0.70545 0.72747 0.74435 0.0
C128 C 0.64783 0.66712 0.74464 0.0
C129 C 0.64762 0.69542 0.74708 0.0
C130 C 0.67649 0.72506 0.74696 0.0
C131 C 0.67707 0.66976 0.74167 0.0
C132 C 0.70505 0.69972 0.74144 0.0
N133 N 0.78889 0.81001 0.74641 0.0
C134 C 0.8201 0.86787 0.7483 0.0
C135 C 0.84891 0.86764 0.74675 0.0
C136 C 0.84688 0.83791 0.74534 0.0
C137 C 0.81711 0.80986 0.74516 0.0
C138 C 0.79051 0.83894 0.74811 0.0
H139 H 0.8176 0.78828 0.74393 0.0
H140 H 0.76915 0.84037 0.74924 0.0
H141 H 0.67474 0.74556 0.74914 0.0
H142 H 0.72604 0.6995 0.73895 0.0
C143 C 0.785 0.7297 0.73893 0.0
C144 C 0.75158 0.79282 0.71736 0.0
C145 C 0.75549 0.75825 0.77412 0.0
C146 C 0.70634 0.80536 0.75163 0.0
H147 H 0.78221 0.76633 0.70398 0.0
H148 H 0.80032 0.73117 0.71567 0.0
H149 H 0.80215 0.70453 0.75773 0.0
H150 H 0.78629 0.72089 0.77695 0.0
H151 H 0.72414 0.78469 0.78719 0.0
H152 H 0.69719 0.81062 0.77495 0.0
H153 H 0.68859 0.82995 0.73299 0.0
H154 H 0.71386 0.82316 0.71416 0.0
H155 H 0.62545 0.69465 0.74937 0.0
H156 H 0.6784 0.64866 0.73944 0.0
H157 H 0.82026 0.89024 0.74943 0.0
H158 H 0.8683 0.83607 0.74442 0.0
C159 C 0.99568 0.75774 0.05409 0.0
C160 C 0.02013 0.77219 0.04624 0.0
C161 C 0.04831 0.7827 0.05193 0.0
C162 C 0.03954 0.77409 0.0629 0.0
N163 N 1.00738 0.75822 0.06454 0.0
Co164 Co 0.98431 0.74345 0.0793 0.0
N165 N 0.02581 0.76215 0.08789 0.0
C166 C 0.0558 0.77657 0.08352 0.0
C167 C 0.07951 0.78686 0.09149 0.0
C168 C 0.06376 0.77854 0.10155 0.0
C169 C 0.03123 0.76365 0.09913 0.0
N170 N 0.96109 0.72943 0.09403 0.0
C171 C 0.97258 0.73443 0.10467 0.0
C172 C 0.94792 0.72129 0.11253 0.0
C173 C 0.91989 0.70744 0.10666 0.0
C174 C 0.92896 0.71299 0.09562 0.0
N175 N 0.94281 0.72433 0.07075 0.0
C176 C 0.91286 0.7073 0.07506 0.0
C177 C 0.88893 0.69839 0.06729 0.0
C178 C 0.90441 0.71072 0.0574 0.0
C179 C 0.93714 0.72635 0.0597 0.0
N180 N 0.9844 0.70192 0.07807 0.0
C181 C 0.9873 0.64425 0.07745 0.0
C182 C 0.95917 0.64419 0.08067 0.0
C183 C 0.95828 0.67299 0.08094 0.0
C184 C 0.0136 0.67382 0.07445 0.0
C185 C 0.01153 0.70171 0.07468 0.0
N186 N 0.98477 0.78498 0.0805 0.0
C187 C 0.95789 0.81599 0.08259 0.0
C188 C 0.98681 0.84484 0.08091 0.0
C189 C 0.01458 0.84291 0.07938 0.0
C190 C 0.01302 0.81325 0.07915 0.0
C191 C 0.95743 0.78651 0.08238 0.0
H192 H 0.03515 0.81393 0.07777 0.0
H193 H 0.93473 0.76521 0.08365 0.0
H194 H 0.93623 0.67124 0.08353 0.0
H195 H 0.03255 0.72286 0.07217 0.0
C196 C 0.06088 0.78184 0.07193 0.0
C197 C 0.96175 0.74416 0.05124 0.0
C198 C 1.00642 0.75145 0.10779 0.0
C199 C 0.90786 0.70316 0.08658 0.0
H200 H 0.01779 0.77519 0.03734 0.0
H201 H 0.07237 0.79573 0.04852 0.0
H202 H 0.10521 0.79941 0.09015 0.0
H203 H 0.07489 0.78309 0.10976 0.0
H204 H 0.94993 0.72172 0.12159 0.0
H205 H 0.89576 0.69497 0.11003 0.0
H206 H 0.86328 0.68573 0.06873 0.0
H207 H 0.89266 0.70919 0.0495 0.0
H208 H 0.93776 0.62206 0.08292 0.0
H209 H 0.0363 0.6759 0.07209 0.0
H210 H 0.93561 0.816 0.08384 0.0
H211 H 0.0378 0.86432 0.07839 0.0
C212 C 0.24391 0.99449 0.38721 0.0
C213 C 0.25412 0.01967 0.37968 0.0
C214 C 0.27258 0.04713 0.38565 0.0
C215 C 0.27249 0.03721 0.39646 0.0
N216 N 0.25566 1.00499 0.3977 0.0
Co217 Co 0.24614 0.98035 0.41215 0.0
N218 N 0.2684 0.02075 0.42129 0.0
C219 C 0.28472 0.05112 0.41731 0.0
C220 C 0.29741 0.07388 0.42561 0.0
C221 C 0.28866 0.05708 0.43546 0.0
C222 C 0.27105 0.0249 0.4326 0.0
N223 N 0.23559 0.9555 0.42654 0.0
C224 C 0.24075 0.96578 0.43734 0.0
C225 C 0.22916 0.94031 0.44485 0.0
C226 C 0.21593 0.913 0.43858 0.0
C227 C 0.2202 0.92325 0.42767 0.0
N228 N 0.2243 0.93998 0.40306 0.0
C229 C 0.21185 0.90962 0.40685 0.0
C230 C 0.19799 0.88681 0.39863 0.0
C231 C 0.2012 0.90356 0.38903 0.0
C232 C 0.21675 0.93573 0.392 0.0
N233 N 0.28786 0.98037 0.41112 0.0
C234 C 0.34836 0.9834 0.41141 0.0
C235 C 0.32008 0.95489 0.41392 0.0
C236 C 0.29037 0.95397 0.4138 0.0
C237 C 0.34564 0.00985 0.40836 0.0
C238 C 0.3156 0.00771 0.40813 0.0
N239 N 0.20511 0.98086 0.4132 0.0
C240 C 0.14712 0.95395 0.41493 0.0
C241 C 0.14734 0.98296 0.41346 0.0
C242 C 0.17712 0.01077 0.41218 0.0
C243 C 0.20525 0.00919 0.41204 0.0
C244 C 0.17613 0.95344 0.41478 0.0
H245 H 0.22688 0.03135 0.41091 0.0
H246 H 0.17473 0.93069 0.41584 0.0
H247 H 0.26991 0.93173 0.41604 0.0
H248 H 0.31575 0.0288 0.40557 0.0
C249 C 0.28556 0.05749 0.40578 0.0
C250 C 0.22181 0.96111 0.3842 0.0
C251 C 0.25666 0.99921 0.44092 0.0
C252 C 0.21001 0.90318 0.41832 0.0
H253 H 0.2481 0.01836 0.37086 0.0
H254 H 0.28363 0.0715 0.38257 0.0
H255 H 0.3108 0.09966 0.42461 0.0
H256 H 0.2942 0.06734 0.44381 0.0
H257 H 0.23019 0.94133 0.45393 0.0
H258 H 0.20449 0.88858 0.44163 0.0
H259 H 0.18566 0.86103 0.3996 0.0
H260 H 0.1921 0.89323 0.38084 0.0
H261 H 0.32094 0.93362 0.41627 0.0
H262 H 0.36674 0.03227 0.40607 0.0
H263 H 0.1247 0.93167 0.41596 0.0
H264 H 0.17893 0.03399 0.41133 0.0
C265 C 0.25259 0.23848 0.72058 0.0
C266 C 0.23651 0.2477 0.71315 0.0
C267 C 0.22745 0.26609 0.71913 0.0
C268 C 0.23834 0.26693 0.72985 0.0
N269 N 0.25445 0.25077 0.73101 0.0
Co270 Co 0.27116 0.24265 0.74537 0.0
N271 N 0.25348 0.26524 0.75455 0.0
C272 C 0.23913 0.28131 0.75061 0.0
C273 C 0.22955 0.29439 0.75893 0.0
C274 C 0.23823 0.28613 0.76876 0.0
C275 C 0.25264 0.26839 0.76586 0.0
N276 N 0.28675 0.23318 0.75969 0.0
C277 C 0.28198 0.23854 0.7705 0.0
C278 C 0.29638 0.22735 0.77796 0.0
C279 C 0.31042 0.21416 0.77164 0.0
C280 C 0.30386 0.21802 0.76074 0.0
N281 N 0.28954 0.22077 0.73622 0.0
C282 C 0.30837 0.20925 0.73991 0.0
C283 C 0.31726 0.19541 0.73167 0.0
C284 C 0.30278 0.19773 0.72215 0.0
C285 C 0.28568 0.21275 0.7252 0.0
N286 N 0.31254 0.28448 0.74382 0.0
C287 C 0.36985 0.34546 0.7431 0.0
C288 C 0.37028 0.31779 0.74649 0.0
C289 C 0.34169 0.28792 0.7468 0.0
C290 C 0.34016 0.3416 0.73989 0.0
C291 C 0.31245 0.31143 0.74017 0.0
N292 N 0.22993 0.20154 0.74694 0.0
C293 C 0.19952 0.14374 0.74909 0.0
C294 C 0.17043 0.14384 0.74872 0.0
C295 C 0.17186 0.17329 0.7474 0.0
C296 C 0.20141 0.20141 0.74649 0.0
C297 C 0.22888 0.17276 0.7483 0.0
H298 H 0.20051 0.22282 0.74533 0.0
H299 H 0.25051 0.17155 0.74878 0.0
H300 H 0.34388 0.26807 0.74954 0.0
H301 H 0.2912 0.31088 0.73751 0.0
C302 C 0.23218 0.2809 0.73915 0.0
C303 C 0.26451 0.21694 0.71752 0.0
C304 C 0.26428 0.25421 0.77413 0.0
C305 C 0.31363 0.20788 0.75135 0.0
H306 H 0.23122 0.24116 0.70439 0.0
H307 H 0.21359 0.27665 0.71612 0.0
H308 H 0.21688 0.30752 0.75798 0.0
H309 H 0.23394 0.29198 0.77712 0.0
H310 H 0.29673 0.2286 0.78704 0.0
H311 H 0.32374 0.20301 0.77463 0.0
H312 H 0.33128 0.18364 0.73257 0.0
H313 H 0.30375 0.18841 0.71398 0.0
H314 H 0.39255 0.31895 0.74886 0.0
H315 H 0.33785 0.36192 0.73736 0.0
H316 H 0.19964 0.12148 0.75014 0.0
H317 H 0.1501 0.17466 0.74686 0.0
C318 C 0.76285 0.9941 0.61525 0.0
C319 C 0.7777 0.01914 0.62284 0.0
C320 C 0.78712 0.04672 0.61691 0.0
C321 C 0.77756 0.03699 0.60606 0.0
N322 N 0.76205 1.00479 0.60475 0.0
Co323 Co 0.74662 0.98036 0.59027 0.0
N324 N 0.76484 0.02093 0.58122 0.0
C325 C 0.77926 0.05125 0.58525 0.0
C326 C 0.78943 0.07415 0.57701 0.0
C327 C 0.78111 0.0575 0.56712 0.0
C328 C 0.76627 0.02526 0.56992 0.0
N329 N 0.7319 0.95575 0.57583 0.0
C330 C 0.73685 0.96622 0.56506 0.0
C331 C 0.72268 0.94091 0.5575 0.0
C332 C 0.70859 0.91349 0.5637 0.0
C333 C 0.71486 0.92354 0.57464 0.0
N334 N 0.72811 0.93981 0.59927 0.0
C335 C 0.71032 0.9095 0.5954 0.0
C336 C 0.70151 0.88651 0.60354 0.0
C337 C 0.71491 0.90308 0.61318 0.0
C338 C 0.73124 0.93535 0.61033 0.0
N339 N 0.70499 0.98043 0.59148 0.0
C340 C 0.64758 0.98352 0.59127 0.0
C341 C 0.64716 0.9549 0.58887 0.0
C342 C 0.67593 0.95394 0.58895 0.0
C343 C 0.67691 0.01005 0.5942 0.0
C344 C 0.70481 0.00788 0.59439 0.0
N345 N 0.7881 0.98083 0.589 0.0
C346 C 0.81893 0.95404 0.58633 0.0
C347 C 0.84787 0.98316 0.58729 0.0
C348 C 0.84617 0.01082 0.58922 0.0
C349 C 0.81648 0.00913 0.59009 0.0
C350 C 0.78944 0.95344 0.58711 0.0
H351 H 0.81714 0.03114 0.5917 0.0
H352 H 0.76798 0.9307 0.58616 0.0
H353 H 0.67401 0.93161 0.58681 0.0
H354 H 0.7259 0.02903 0.59684 0.0
C355 C 0.78488 0.05744 0.59679 0.0
C356 C 0.75089 0.96065 0.61827 0.0
C357 C 0.75466 0.99969 0.56156 0.0
C358 C 0.70534 0.90329 0.58393 0.0
H359 H 0.78191 0.0176 0.63169 0.0
H360 H 0.80036 0.07103 0.62005 0.0
H361 H 0.80207 0.09992 0.57805 0.0
H362 H 0.78582 0.06788 0.5588 0.0
H363 H 0.72256 0.94209 0.54842 0.0
H364 H 0.6955 0.88911 0.56061 0.0
H365 H 0.68813 0.86075 0.60249 0.0
H366 H 0.71365 0.89254 0.62133 0.0
H367 H 0.6249 0.93357 0.58663 0.0
H368 H 0.67839 0.03256 0.59641 0.0
H369 H 0.81903 0.93193 0.58481 0.0
H370 H 0.86781 0.03386 0.59024 0.0
C371 C 0.77471 0.75755 0.94839 0.0
C372 C 0.76435 0.77173 0.95621 0.0
C373 C 0.74664 0.78205 0.95046 0.0
C374 C 0.74713 0.77359 0.93949 0.0
N375 N 0.7637 0.75802 0.93791 0.0
Co376 Co 0.77229 0.74333 0.92319 0.0
N377 N 0.74939 0.76173 0.91453 0.0
C378 C 0.73373 0.77609 0.91884 0.0
C379 C 0.72024 0.78614 0.91083 0.0
C380 C 0.72769 0.77771 0.9008 0.0
C381 C 0.74543 0.763 0.90327 0.0
N382 N 0.7817 0.7293 0.90851 0.0
C383 C 0.7751 0.73401 0.89784 0.0
C384 C 0.78688 0.72104 0.89003 0.0
C385 C 0.80128 0.70754 0.89595 0.0
C386 C 0.79764 0.71313 0.90698 0.0
N387 N 0.79487 0.7246 0.93182 0.0
C388 C 0.80812 0.70785 0.92756 0.0
C389 C 0.82323 0.69921 0.93538 0.0
C390 C 0.81978 0.71141 0.94525 0.0
C391 C 0.80242 0.72669 0.94289 0.0
N392 N 0.73077 0.70167 0.92438 0.0
C393 C 0.67032 0.64426 0.92406 0.0
C394 C 0.6986 0.64408 0.92144 0.0
C395 C 0.72833 0.67287 0.92159 0.0
C396 C 0.67308 0.67335 0.92727 0.0
C397 C 0.70311 0.70124 0.92751 0.0
N398 N 0.81325 0.78499 0.92195 0.0
C399 C 0.8709 0.81622 0.9191 0.0
C400 C 0.87051 0.84496 0.92025 0.0
C401 C 0.84105 0.84299 0.92236 0.0
C402 C 0.81317 0.8132 0.92323 0.0
C403 C 0.84211 0.78665 0.91987 0.0
H404 H 0.7918 0.81372 0.925 0.0
H405 H 0.84364 0.76542 0.91876 0.0
H406 H 0.7489 0.67128 0.91927 0.0
H407 H 0.70306 0.72219 0.93016 0.0
C408 C 0.73364 0.78125 0.93042 0.0
C409 C 0.7952 0.74422 0.95132 0.0
C410 C 0.75793 0.75059 0.89466 0.0
C411 C 0.80906 0.7036 0.91605 0.0
H412 H 0.76944 0.77467 0.96512 0.0
H413 H 0.73535 0.79484 0.95383 0.0
H414 H 0.70693 0.79852 0.91212 0.0
H415 H 0.721 0.78201 0.89258 0.0
H416 H 0.78535 0.72136 0.88096 0.0
H417 H 0.81316 0.69527 0.89262 0.0
H418 H 0.83643 0.68677 0.93398 0.0
H419 H 0.82993 0.71002 0.95318 0.0
H420 H 0.69773 0.62202 0.91899 0.0
H421 H 0.65201 0.67463 0.92965 0.0
H422 H 0.89319 0.81653 0.91744 0.0
H423 H 0.83951 0.86447 0.92352 0.0
C424 C 0.01962 0.77291 0.28191 0.0
C425 C 0.9944 0.76356 0.2894 0.0
C426 C 0.96683 0.74509 0.28346 0.0
C427 C 0.97673 0.74435 0.27271 0.0
N428 N 0.00902 0.76064 0.27148 0.0
Co429 Co 0.03365 0.76892 0.25706 0.0
N430 N 0.99317 0.74617 0.24797 0.0
C431 C 0.96278 0.72998 0.25197 0.0
C432 C 0.93996 0.71674 0.24369 0.0
C433 C 0.95676 0.72499 0.23383 0.0
C434 C 0.98899 0.7429 0.23666 0.0
N435 N 0.0585 0.77853 0.24269 0.0
C436 C 0.04819 0.77305 0.2319 0.0
C437 C 0.07368 0.78448 0.22439 0.0
C438 C 0.10105 0.79787 0.23065 0.0
C439 C 0.0908 0.79392 0.24156 0.0
N440 N 0.07411 0.79096 0.26613 0.0
C441 C 0.10445 0.80265 0.26237 0.0
C442 C 0.12735 0.81653 0.27057 0.0
C443 C 0.11067 0.81406 0.28013 0.0
C444 C 0.07846 0.79892 0.27715 0.0
N445 N 0.03336 0.72718 0.25855 0.0
C446 C 0.02992 0.66633 0.25922 0.0
C447 C 0.05794 0.6941 0.25579 0.0
C448 C 0.05911 0.7239 0.2555 0.0
C449 C 1.00404 0.67003 0.26249 0.0
C450 C 1.00638 0.70013 0.26222 0.0
N451 N 0.03335 0.80994 0.25556 0.0
C452 C 0.06057 0.86777 0.25344 0.0
C453 C 0.03129 0.8675 0.2539 0.0
C454 C 1.00332 0.83794 0.25525 0.0
C455 C 1.00488 0.8099 0.2561 0.0
C456 C 0.06104 0.83883 0.25418 0.0
H457 H 0.98259 0.78841 0.25729 0.0
H458 H 0.08393 0.84018 0.25363 0.0
H459 H 0.08109 0.74383 0.25272 0.0
H460 H 0.98564 0.70055 0.26492 0.0
C461 C 0.95642 0.73033 0.26345 0.0
C462 C 0.05317 0.79456 0.28491 0.0
C463 C 0.0147 0.75701 0.22834 0.0
C464 C 0.11089 0.80411 0.25092 0.0
H465 H 0.99578 0.77006 0.29816 0.0
H466 H 0.94243 0.73443 0.28652 0.0
H467 H 0.91413 0.70345 0.2447 0.0
H468 H 0.94648 0.71898 0.22549 0.0
H469 H 0.07263 0.78324 0.21531 0.0
H470 H 0.12552 0.80921 0.22761 0.0
H471 H 0.15316 0.82843 0.26961 0.0
H472 H 0.12111 0.82336 0.28829 0.0
H473 H 0.07909 0.69309 0.25336 0.0
H474 H 0.98144 0.64965 0.26505 0.0
H475 H 0.08292 0.89009 0.25236 0.0
H476 H 0.98012 0.8364 0.25586 0.0
C477 C 0.25282 0.01595 0.61529 0.0
C478 C 0.2371 0.99077 0.62277 0.0
C479 C 0.22785 0.96326 0.61681 0.0
C480 C 0.23827 0.97318 0.60604 0.0
N481 N 0.25427 1.00541 0.60483 0.0
Co482 Co 0.27027 0.03005 0.5904 0.0
N483 N 0.25241 0.98965 0.58128 0.0
C484 C 0.2382 0.9593 0.58527 0.0
C485 C 0.22875 0.93653 0.577 0.0
C486 C 0.23748 0.95332 0.56714 0.0
C487 C 0.25171 0.98549 0.56998 0.0
N488 N 0.28518 0.05489 0.57602 0.0
C489 C 0.2806 0.04462 0.56522 0.0
C490 C 0.29384 0.07012 0.55771 0.0
C491 C 0.30743 0.09743 0.56398 0.0
C492 C 0.30158 0.08715 0.5749 0.0
N493 N 0.28882 0.07041 0.59949 0.0
C494 C 0.30718 0.10073 0.59572 0.0
C495 C 0.31632 0.12355 0.60394 0.0
C496 C 0.30248 0.10685 0.61352 0.0
C497 C 0.28548 0.0747 0.61054 0.0
N498 N 0.3118 0.02989 0.59173 0.0
C499 C 0.36944 0.02687 0.59241 0.0
C500 C 0.36953 0.05478 0.58899 0.0
C501 C 0.34076 0.05574 0.5887 0.0
C502 C 0.3399 1.00083 0.5956 0.0
C503 C 0.312 1.00297 0.59533 0.0
N504 N 0.22883 0.02968 0.5891 0.0
C505 C 0.19796 0.05683 0.58774 0.0
C506 C 0.169 0.02768 0.58879 0.0
C507 C 0.17079 0.99972 0.58961 0.0
C508 C 0.20047 1.00124 0.58979 0.0
C509 C 0.22746 0.05728 0.58789 0.0
H510 H 0.19975 0.97895 0.59061 0.0
H511 H 0.24892 0.08014 0.58717 0.0
H512 H 0.3426 0.07762 0.58593 0.0
H513 H 0.29086 0.98214 0.59798 0.0
C514 C 0.23174 0.95293 0.59676 0.0
C515 C 0.26474 0.04942 0.61832 0.0
C516 C 0.26413 0.01118 0.56165 0.0
C517 C 0.31165 0.10718 0.58426 0.0
H518 H 0.23217 0.99213 0.63156 0.0
H519 H 0.21416 0.9389 0.61987 0.0
H520 H 0.21639 0.91076 0.578 0.0
H521 H 0.23359 0.94309 0.5588 0.0
H522 H 0.29374 0.06914 0.54863 0.0
H523 H 0.32005 0.12187 0.56094 0.0
H524 H 0.33002 0.14933 0.60297 0.0
H525 H 0.30373 0.11722 0.6217 0.0
H526 H 0.39168 0.07598 0.58659 0.0
H527 H 0.33785 0.97831 0.59812 0.0
H528 H 0.19797 0.07923 0.58705 0.0
H529 H 0.14926 0.97643 0.5901 0.0
C530 C 0.24314 0.25289 0.94845 0.0
C531 C 0.25314 0.23832 0.95624 0.0
C532 C 0.27074 0.22789 0.95048 0.0
C533 C 0.27053 0.23665 0.93954 0.0
N534 N 0.25428 0.25255 0.93798 0.0
Co535 Co 0.24593 0.26751 0.92328 0.0
N536 N 0.26887 0.24918 0.9146 0.0
C537 C 0.28455 0.23483 0.9189 0.0
C538 C 0.29816 0.22492 0.91089 0.0
C539 C 0.2908 0.23346 0.90086 0.0
C540 C 0.27297 0.24807 0.90335 0.0
N541 N 0.23661 0.28166 0.9086 0.0
C542 C 0.24321 0.27697 0.89793 0.0
C543 C 0.23138 0.28993 0.89012 0.0
C544 C 0.21697 0.3034 0.89606 0.0
C545 C 0.22064 0.2978 0.90708 0.0
N546 N 0.2235 0.28637 0.93192 0.0
C547 C 0.21051 0.30337 0.92768 0.0
C548 C 0.19556 0.31216 0.93551 0.0
C549 C 0.19886 0.29982 0.94536 0.0
C550 C 0.21596 0.28428 0.94299 0.0
N551 N 0.2875 0.30909 0.92455 0.0
C552 C 0.34806 0.36682 0.92521 0.0
C553 C 0.32001 0.36679 0.92192 0.0
C554 C 0.29031 0.33795 0.92164 0.0
C555 C 0.3448 0.33733 0.92827 0.0
C556 C 0.31483 0.3094 0.92801 0.0
N557 N 0.20488 0.22594 0.92203 0.0
C558 C 0.14688 0.19479 0.92011 0.0
C559 C 0.14707 0.166 0.92164 0.0
C560 C 0.17685 0.16801 0.923 0.0
C561 C 0.20496 0.19771 0.92322 0.0
C562 C 0.17589 0.22431 0.9203 0.0
H563 H 0.22649 0.1971 0.92446 0.0
H564 H 0.1744 0.24555 0.91915 0.0
H565 H 0.26999 0.33959 0.919 0.0
H566 H 0.31469 0.28829 0.93056 0.0
C567 C 0.28425 0.22924 0.93047 0.0
C568 C 0.22287 0.26647 0.95139 0.0
C569 C 0.26047 0.2605 0.89474 0.0
C570 C 0.20944 0.30751 0.91617 0.0
H571 H 0.24789 0.23523 0.96514 0.0
H572 H 0.28181 0.21486 0.95384 0.0
H573 H 0.31143 0.2125 0.91218 0.0
H574 H 0.29758 0.22927 0.89264 0.0
H575 H 0.23292 0.28964 0.88106 0.0
H576 H 0.20512 0.31571 0.89274 0.0
H577 H 0.18252 0.32477 0.93412 0.0
H578 H 0.18875 0.30127 0.9533 0.0
H579 H 0.32075 0.38887 0.91962 0.0
H580 H 0.36543 0.33535 0.93068 0.0
H581 H 0.1245 0.19468 0.91899 0.0
H582 H 0.17871 0.14663 0.92387 0.0
C583 C 0.99872 0.24086 0.28212 0.0
C584 C 0.02407 0.25115 0.2896 0.0
C585 C 0.05148 0.26956 0.28358 0.0
C586 C 0.04135 0.26937 0.27279 0.0
N587 N 0.00906 0.25251 0.27161 0.0
Co588 Co 0.98413 0.24285 0.25721 0.0
N589 N 0.02445 0.26499 0.248 0.0
C590 C 0.05494 0.28131 0.25191 0.0
C591 C 0.07759 0.29392 0.24356 0.0
C592 C 0.06059 0.28512 0.23375 0.0
C593 C 0.0284 0.26755 0.23667 0.0
N594 N 0.95897 0.23217 0.24288 0.0
C595 C 0.96908 0.23726 0.23206 0.0
C596 C 0.94344 0.22559 0.2246 0.0
C597 C 0.91619 0.21242 0.23092 0.0
C598 C 0.92665 0.21679 0.24182 0.0
N599 N 0.94384 0.22112 0.26638 0.0
C600 C 0.91335 0.20864 0.26265 0.0
C601 C 0.89065 0.19486 0.27092 0.0
C602 C 0.9076 0.19816 0.28049 0.0
C603 C 0.93978 0.21367 0.27745 0.0
N604 N 0.98415 0.28455 0.25824 0.0
C605 C 0.98713 0.345 0.25795 0.0
C606 C 0.95853 0.3167 0.25552 0.0
C607 C 0.95763 0.28703 0.25563 0.0
C608 C 0.01371 0.3423 0.26091 0.0
C609 C 0.01161 0.3123 0.26114 0.0
N610 N 0.98466 0.20186 0.25617 0.0
C611 C 0.95777 0.14393 0.25445 0.0
C612 C 0.98688 0.14417 0.25586 0.0
C613 C 0.01471 0.17395 0.25712 0.0
C614 C 0.01308 0.20201 0.25728 0.0
C615 C 0.9572 0.17289 0.25462 0.0
H616 H 0.03527 0.22363 0.2584 0.0
H617 H 0.93438 0.17146 0.2536 0.0
H618 H 0.93531 0.26656 0.25346 0.0
H619 H 0.03281 0.31249 0.26362 0.0
C620 C 0.06151 0.28231 0.26343 0.0
C621 C 0.96534 0.21877 0.28519 0.0
C622 C 1.00251 0.25318 0.22842 0.0
C623 C 0.9067 0.20669 0.25121 0.0
H624 H 0.02289 0.2452 0.29842 0.0
H625 H 0.07594 0.28064 0.28661 0.0
H626 H 0.10344 0.30732 0.2445 0.0
H627 H 0.0707 0.29061 0.22538 0.0
H628 H 0.9443 0.22653 0.21552 0.0
H629 H 0.89167 0.20095 0.22793 0.0
H630 H 0.8648 0.18253 0.27001 0.0
H631 H 0.89739 0.18912 0.2887 0.0
H632 H 0.93715 0.3175 0.25324 0.0
H633 H 0.03623 0.36338 0.26313 0.0
H634 H 0.93545 0.12154 0.25343 0.0
H635 H 0.03801 0.17581 0.25792 0.0
C636 C 0.01569 0.28364 0.21033 0.0
C637 C 0.00941 0.25585 0.21618 0.0
C638 C 0.01627 0.2841 0.19857 0.0
C639 C 0.98452 0.22873 0.17431 0.0
H640 H 0.04309 0.30386 0.15714 0.0
C641 C 0.99733 0.22857 0.12582 0.0
C642 C 1.00311 0.2562 0.11999 0.0
C643 C 0.99595 0.22781 0.13758 0.0
C644 C 0.02625 0.2828 0.16181 0.0
H645 H 0.99966 0.20714 0.21454 0.0
H646 H 1.00147 0.20801 0.19398 0.0
H647 H 0.04765 0.30457 0.17755 0.0
H648 H 0.01093 0.30425 0.12161 0.0
H649 H 1.00794 0.3029 0.14217 0.0
H650 H 0.96326 0.20693 0.15855 0.0
C651 C 1.00549 0.22934 0.1984 0.0
C652 C 0.02893 0.28319 0.17353 0.0
C653 C 1.00489 0.22891 0.21015 0.0
C654 C 1.0061 0.28258 0.126 0.0
C655 C 1.00482 0.2819 0.13774 0.0
C656 C 0.98189 0.22832 0.16259 0.0
C657 C 0.01045 0.25669 0.19244 0.0
C658 C 1.00812 0.25615 0.17994 0.0
C659 C 1.00056 0.25481 0.14369 0.0
C660 C 1.00269 0.25537 0.15619 0.0
H661 H 0.01868 0.30446 0.21486 0.0
H662 H 0.01985 0.30546 0.19429 0.0
H663 H 0.96766 0.20767 0.17897 0.0
H664 H 0.9955 0.20819 0.12132 0.0
H665 H 0.99288 0.20666 0.14188 0.0
C666 C 0.73202 0.00794 0.45915 0.0
C667 C 0.75486 1.00406 0.45311 0.0
C668 C 0.7315 0.00672 0.47089 0.0
C669 C 0.76075 0.98184 0.49563 0.0
H670 H 0.75142 0.04782 0.5109 0.0
C671 C 0.78167 1.00221 0.54335 0.0
C672 C 0.75935 0.007 0.54935 0.0
C673 C 0.78231 1.00339 0.5316 0.0
C674 C 0.75376 0.02905 0.50679 0.0
H675 H 0.79443 0.99502 0.45438 0.0
H676 H 0.79356 0.99261 0.47495 0.0
H677 H 0.74823 0.04429 0.49047 0.0
H678 H 0.72064 0.01731 0.54799 0.0
H679 H 0.72162 0.01948 0.52743 0.0
H680 H 0.76617 0.96652 0.51195 0.0
C681 C 0.77583 0.99633 0.47067 0.0
C682 C 0.75184 0.02696 0.49506 0.0
C683 C 0.77635 0.99763 0.45892 0.0
C684 C 0.7384 0.01409 0.54349 0.0
C685 C 0.73898 0.01526 0.53173 0.0
C686 C 0.76261 0.98389 0.50736 0.0
C687 C 0.75388 1.00162 0.47682 0.0
C688 C 0.75528 1.00331 0.48933 0.0
C689 C 0.76048 0.00921 0.52562 0.0
C690 C 0.75917 0.00754 0.5131 0.0
H691 H 0.71542 0.01318 0.45478 0.0
H692 H 0.71395 0.01037 0.47533 0.0
H693 H 0.76314 0.96311 0.49151 0.0
H694 H 0.7978 0.99638 0.54775 0.0
H695 H 0.79955 0.99916 0.5272 0.0
C696 C 0.78237 0.78225 0.79239 0.0
C697 C 0.75983 0.75539 0.78633 0.0
C698 C 0.7826 0.78167 0.80413 0.0
C699 C 0.75214 0.72756 0.82894 0.0
H700 H 0.76278 0.8036 0.84404 0.0
C701 C 0.72974 0.72763 0.87648 0.0
C702 C 0.75308 0.75401 0.88253 0.0
C703 C 0.72924 0.7284 0.86474 0.0
C704 C 0.76001 0.78227 0.83996 0.0
H705 H 0.72037 0.70677 0.78761 0.0
H706 H 0.72064 0.7055 0.80817 0.0
H707 H 0.76645 0.80309 0.82362 0.0
H708 H 0.79351 0.8021 0.88126 0.0
H709 H 0.7926 0.80378 0.8607 0.0
H710 H 0.74561 0.70672 0.84529 0.0
C711 C 0.73847 0.72691 0.80391 0.0
C712 C 0.76225 0.782 0.82824 0.0
C713 C 0.73829 0.72753 0.79215 0.0
C714 C 0.77501 0.78172 0.87672 0.0
C715 C 0.77448 0.78257 0.86497 0.0
C716 C 0.74985 0.72782 0.84065 0.0
C717 C 0.76016 0.75425 0.81006 0.0
C718 C 0.7584 0.75465 0.82257 0.0
C719 C 0.75212 0.75558 0.85882 0.0
C720 C 0.75374 0.75517 0.84632 0.0
H721 H 0.79895 0.80408 0.78802 0.0
H722 H 0.79999 0.80295 0.80858 0.0
H723 H 0.74946 0.70624 0.82488 0.0
H724 H 0.71285 0.70591 0.88084 0.0
H725 H 0.71138 0.70741 0.86029 0.0
C726 C 0.01899 0.78258 0.12569 0.0
C727 C 0.01484 0.75542 0.11992 0.0
C728 C 0.02025 0.78355 0.13744 0.0
C729 C 0.02944 0.74312 0.1627 0.0
H730 H 0.98063 0.77702 0.17729 0.0
C731 C 1.00275 0.72673 0.21025 0.0
C732 C 1.00756 0.75401 0.21612 0.0
C733 C 1.00218 0.7263 0.19849 0.0
C734 C 0.99457 0.76769 0.17336 0.0
H735 H 0.00951 0.70839 0.12167 0.0
H736 H 0.01174 0.70988 0.1422 0.0
H737 H 0.98551 0.7791 0.15688 0.0
H738 H 0.01492 0.80188 0.21451 0.0
H739 H 0.01365 0.80121 0.19394 0.0
H740 H 0.03833 0.73156 0.17919 0.0
C741 C 0.01451 0.73069 0.13774 0.0
C742 C 0.99752 0.76901 0.16165 0.0
C743 C 0.0133 0.72978 0.126 0.0
C744 C 0.01061 0.78041 0.21011 0.0
C745 C 0.00995 0.77998 0.19835 0.0
C746 C 0.02643 0.74174 0.17441 0.0
C747 C 0.01718 0.75726 0.14364 0.0
C748 C 0.015 0.75676 0.15615 0.0
C749 C 1.00648 0.7532 0.19239 0.0
C750 C 0.00893 0.75398 0.17989 0.0
H751 H 0.01982 0.80242 0.12112 0.0
H752 H 0.02288 0.80461 0.14168 0.0
H753 H 0.04342 0.73382 0.15878 0.0
H754 H 1.00078 0.7063 0.21477 0.0
H755 H 0.99901 0.70513 0.19418 0.0
C756 C 0.23327 0.99734 0.54362 0.0
C757 C 0.26126 1.00395 0.54942 0.0
C758 C 0.23247 0.99601 0.53186 0.0
C759 C 0.28706 0.02667 0.50742 0.0
H760 H 0.21212 0.9659 0.49061 0.0
C761 C 0.28739 0.01353 0.45899 0.0
C762 C 0.25928 0.00635 0.45314 0.0
C763 C 0.28802 0.0147 0.47075 0.0
C764 C 0.23311 0.98336 0.49517 0.0
H765 H 0.30998 0.01343 0.54774 0.0
H766 H 0.30859 0.01057 0.52718 0.0
H767 H 0.21187 0.9627 0.51105 0.0
H768 H 0.21013 0.99556 0.45478 0.0
H769 H 0.21126 0.99834 0.47533 0.0
H770 H 0.30828 0.04741 0.49156 0.0
C771 C 0.28734 0.00679 0.53163 0.0
C772 C 0.23299 0.98144 0.50691 0.0
C773 C 0.28807 0.00804 0.54338 0.0
C774 C 0.23214 1.00145 0.45917 0.0
C775 C 0.23273 1.00263 0.47091 0.0
C776 C 0.28717 0.02864 0.49569 0.0
C777 C 0.25976 1.00146 0.52571 0.0
C778 C 0.25998 1.00303 0.51319 0.0
C779 C 0.26046 0.00857 0.47687 0.0
C780 C 0.26019 0.00701 0.4894 0.0
H781 H 0.21251 0.99455 0.54816 0.0
H782 H 0.21093 0.99211 0.52759 0.0
H783 H 0.30806 0.0441 0.51199 0.0
H784 H 0.30839 0.01685 0.45448 0.0
H785 H 0.30968 0.01902 0.47504 0.0
C786 C 0.23753 0.22971 0.79237 0.0
C787 C 0.2599 0.25677 0.78637 0.0
C788 C 0.23718 0.23011 0.80412 0.0
C789 C 0.2669 0.28403 0.82901 0.0
H790 H 0.25654 0.20805 0.84407 0.0
C791 C 0.28874 0.28374 0.87659 0.0
C792 C 0.26545 0.25724 0.8826 0.0
C793 C 0.28939 0.28307 0.86485 0.0
C794 C 0.25923 0.22936 0.84001 0.0
H795 H 0.29901 0.30555 0.78774 0.0
H796 H 0.29856 0.30651 0.8083 0.0
H797 H 0.25319 0.20872 0.82364 0.0
H798 H 0.22524 0.20904 0.88126 0.0
H799 H 0.2264 0.20753 0.8607 0.0
H800 H 0.27304 0.30469 0.84538 0.0
C801 C 0.28092 0.28507 0.804 0.0
C802 C 0.25718 0.22973 0.82828 0.0
C803 C 0.28121 0.28463 0.79224 0.0
C804 C 0.2437 0.22952 0.87675 0.0
C805 C 0.24437 0.22877 0.865 0.0
C806 C 0.26902 0.28368 0.84073 0.0
C807 C 0.25935 0.25757 0.81011 0.0
C808 C 0.26093 0.25705 0.82262 0.0
C809 C 0.2667 0.25586 0.85889 0.0
C810 C 0.26523 0.25636 0.84638 0.0
H811 H 0.22114 0.20788 0.78797 0.0
H812 H 0.21988 0.2087 0.80852 0.0
H813 H 0.26949 0.30532 0.82497 0.0
H814 H 0.3055 0.30546 0.88098 0.0
H815 H 0.30722 0.30414 0.86043 0.0
C816 C 0.0837 0.28921 0.03291 0.0
C817 C 0.0664 0.26244 0.03988 0.0
C818 C 0.0992 0.28698 0.0233 0.0
C819 C 0.10243 0.23518 0.00192 0.0
H820 H 0.19462 0.29227 0.00258 0.0
C821 C 0.18293 0.23281 0.96619 0.0
C822 C 0.2089 0.26237 0.96287 0.0
C823 C 0.16616 0.23034 0.97612 0.0
C824 C 0.16891 0.27647 0.0021 0.0
H825 H 0.04952 0.21187 0.04188 0.0
H826 H 0.07555 0.20755 0.02469 0.0
H827 H 0.16163 0.29324 0.01791 0.0
H828 H 0.23883 0.31212 0.96746 0.0
H829 H 0.2092 0.30846 0.98447 0.0
H830 H 0.10917 0.2194 0.98589 0.0
C831 C 0.07765 0.23037 0.02683 0.0
C832 C 0.15004 0.27695 0.01095 0.0
C833 C 0.06268 0.23278 0.0366 0.0
C834 C 0.21891 0.28903 0.9699 0.0
C835 C 0.20186 0.28677 0.9797 0.0
C836 C 0.12122 0.23517 0.99291 0.0
C837 C 0.09696 0.25772 0.02032 0.0
C838 C 0.11663 0.25648 0.01092 0.0
C839 C 0.17474 0.25753 0.98287 0.0
C840 C 0.1548 0.256 0.99281 0.0
H841 H 0.08683 0.3123 0.03529 0.0
H842 H 0.11369 0.30833 0.01835 0.0
H843 H 0.07669 0.21918 0.0017 0.0
H844 H 0.17487 0.21191 0.96088 0.0
H845 H 0.14606 0.20719 0.97836 0.0
C846 C 0.84973 0.07264 0.37367 0.0
C847 C 0.81631 0.05957 0.37355 0.0
C848 C 0.86799 0.08714 0.36405 0.0
C849 C 0.86272 0.09665 0.33317 0.0
H850 H 0.94191 0.17689 0.3379 0.0
C851 C 0.94425 0.16764 0.29594 0.0
C852 C 0.95648 0.20086 0.296 0.0
C853 C 0.93001 0.14935 0.30558 0.0
C854 C 0.91983 0.15459 0.33641 0.0
H855 H 0.77557 0.05084 0.36335 0.0
H856 H 0.80732 0.0761 0.34646 0.0
H857 H 0.91049 0.14591 0.35402 0.0
H858 H 0.96398 0.24126 0.30611 0.0
H859 H 0.93917 0.20948 0.32304 0.0
H860 H 0.87147 0.10588 0.31557 0.0
C861 C 0.81952 0.07477 0.3539 0.0
C862 C 0.90195 0.13656 0.34568 0.0
C863 C 0.80126 0.06023 0.36355 0.0
C864 C 0.95527 0.21574 0.30597 0.0
C865 C 0.94098 0.19746 0.31563 0.0
C866 C 0.88061 0.11466 0.32391 0.0
C867 C 0.85324 0.08909 0.3541 0.0
C868 C 0.87302 0.10743 0.34419 0.0
C869 C 0.92747 0.16389 0.31549 0.0
C870 C 0.90932 0.144 0.3254 0.0
H871 H 0.86181 0.07269 0.38136 0.0
H872 H 0.89378 0.09741 0.36448 0.0
H873 H 0.84074 0.07424 0.33169 0.0
H874 H 0.94462 0.15567 0.28828 0.0
H875 H 0.92038 0.1237 0.30519 0.0
C876 C 0.74081 0.79412 0.69683 0.0
C877 C 0.75927 0.8096 0.70634 0.0
C878 C 0.7434 0.81165 0.68711 0.0
C879 C 0.79344 0.88973 0.67265 0.0
H880 H 0.71236 0.87091 0.65928 0.0
C881 C 0.78242 0.94372 0.63027 0.0
C882 C 0.75804 0.95148 0.62937 0.0
C883 C 0.78525 0.92891 0.63999 0.0
C884 C 0.73522 0.87669 0.66296 0.0
H885 H 0.79534 0.85505 0.7132 0.0
H886 H 0.80031 0.88577 0.69618 0.0
H887 H 0.7128 0.83897 0.67506 0.0
H888 H 0.71794 0.95069 0.63784 0.0
H889 H 0.72297 0.92514 0.65493 0.0
H890 H 0.81579 0.92771 0.66057 0.0
C891 C 0.78406 0.86012 0.69613 0.0
C892 C 0.7355 0.85804 0.67192 0.0
C893 C 0.78132 0.84259 0.70586 0.0
C894 C 0.7372 0.94529 0.63846 0.0
C895 C 0.73988 0.93032 0.64815 0.0
C896 C 0.79317 0.90828 0.66362 0.0
C897 C 0.76451 0.84502 0.68673 0.0
C898 C 0.76459 0.8643 0.6769 0.0
C899 C 0.76346 0.92123 0.64893 0.0
C900 C 0.76402 0.90208 0.65869 0.0
H901 H 0.72331 0.76877 0.69711 0.0
H902 H 0.72828 0.79919 0.67998 0.0
H903 H 0.81628 0.89514 0.67626 0.0
H904 H 0.79834 0.94778 0.62325 0.0
H905 H 0.80349 0.92202 0.64025 0.0
C906 C 0.95503 0.77798 0.03664 0.0
C907 C 0.95162 0.74838 0.03983 0.0
C908 C 0.93999 0.78041 0.02689 0.0
C909 C 0.86784 0.73359 0.0109 0.0
H910 H 0.90852 0.79181 0.98599 0.0
C911 C 0.79923 0.7215 0.96979 0.0
C912 C 0.80905 0.74824 0.96281 0.0
C913 C 0.81621 0.72378 0.97961 0.0
C914 C 0.89651 0.77585 0.99297 0.0
H915 H 0.93167 0.69867 0.0351 0.0
H916 H 0.90469 0.70268 0.0182 0.0
H917 H 0.94102 0.7921 0.00181 0.0
H918 H 0.84265 0.79886 0.96096 0.0
H919 H 0.87132 0.8036 0.97848 0.0
H920 H 0.82327 0.71799 0.00248 0.0
C921 C 0.919 0.72396 0.0232 0.0
C922 C 0.91532 0.77588 0.00198 0.0
C923 C 0.93456 0.72171 0.03279 0.0
C924 C 0.83474 0.77789 0.96622 0.0
C925 C 0.85144 0.78038 0.97617 0.0
C926 C 0.84895 0.73402 0.00205 0.0
C927 C 0.92092 0.75313 0.02031 0.0
C928 C 0.9012 0.75435 0.01093 0.0
C929 C 0.84307 0.75313 0.98286 0.0
C930 C 0.86299 0.75473 0.99281 0.0
H931 H 0.968 0.7988 0.04198 0.0
H932 H 0.94185 0.80316 0.02483 0.0
H933 H 0.8563 0.71712 0.01781 0.0
H934 H 0.77952 0.69835 0.96728 0.0
H935 H 0.80904 0.70206 0.98433 0.0
C936 C 0.07567 0.84595 0.29561 0.0
C937 C 0.06249 0.81258 0.29571 0.0
C938 C 0.0902 0.86412 0.30525 0.0
C939 C 0.09959 0.85862 0.33612 0.0
H940 H 0.18003 0.93767 0.33147 0.0
C941 C 0.17056 0.9398 0.37344 0.0
C942 C 0.20386 0.95209 0.37338 0.0
C943 C 0.15228 0.92559 0.36379 0.0
C944 C 0.15767 0.91563 0.33294 0.0
H945 H 0.05362 0.77183 0.30588 0.0
H946 H 0.07892 0.80341 0.3228 0.0
H947 H 0.14905 0.90643 0.31533 0.0
H948 H 0.2444 0.9597 0.36329 0.0
H949 H 0.21263 0.93492 0.34635 0.0
H950 H 0.10878 0.86723 0.35374 0.0
C951 C 0.07765 0.81565 0.31536 0.0
C952 C 0.13964 0.89785 0.32366 0.0
C953 C 0.06307 0.79748 0.3057 0.0
C954 C 0.21881 0.95093 0.36343 0.0
C955 C 0.20054 0.93666 0.35376 0.0
C956 C 0.11761 0.87641 0.3454 0.0
C957 C 0.09207 0.84931 0.31519 0.0
C958 C 0.11044 0.86898 0.32512 0.0
C959 C 0.1669 0.92313 0.35388 0.0
C960 C 0.14702 0.90507 0.34395 0.0
H961 H 0.0758 0.85807 0.28793 0.0
H962 H 0.10055 0.88987 0.30483 0.0
H963 H 0.07713 0.83669 0.33759 0.0
H964 H 0.15854 0.94014 0.38109 0.0
H965 H 0.12657 0.91594 0.36416 0.0
C966 C 0.23517 0.07117 0.62903 0.0
C967 C 0.25593 0.05862 0.62911 0.0
C968 C 0.23126 0.0855 0.63867 0.0
C969 C 0.24662 0.09542 0.66953 0.0
H970 H 0.24567 0.17458 0.66486 0.0
C971 C 0.23522 0.16551 0.70686 0.0
C972 C 0.25558 0.19886 0.70674 0.0
C973 C 0.23135 0.14727 0.69723 0.0
C974 C 0.24602 0.15259 0.66633 0.0
H975 H 0.28857 0.05069 0.63924 0.0
H976 H 0.28188 0.0757 0.65615 0.0
H977 H 0.2465 0.14391 0.64872 0.0
H978 H 0.28753 0.23952 0.69652 0.0
H979 H 0.28088 0.20782 0.67961 0.0
H980 H 0.24733 0.1047 0.68714 0.0
C981 C 0.26811 0.07406 0.64874 0.0
C982 C 0.24609 0.13473 0.65705 0.0
C983 C 0.27195 0.05966 0.63908 0.0
C984 C 0.2712 0.21388 0.69672 0.0
C985 C 0.26739 0.19565 0.68707 0.0
C986 C 0.24655 0.11328 0.6788 0.0
C987 C 0.24825 0.08783 0.64859 0.0
C988 C 0.2466 0.10599 0.65852 0.0
C989 C 0.24798 0.16199 0.68726 0.0
C990 C 0.24646 0.14223 0.67734 0.0
H991 H 0.22289 0.07092 0.62137 0.0
H992 H 0.21538 0.09533 0.63828 0.0
H993 H 0.24674 0.07332 0.671 0.0
H994 H 0.22326 0.15345 0.71456 0.0
H995 H 0.21581 0.12153 0.69766 0.0
C996 C 0.97286 0.58921 0.08502 0.0
C997 C 0.9898 0.61428 0.07729 0.0
C998 C 0.9768 0.56219 0.08519 0.0
C999 C 0.01148 0.52013 0.06834 0.0
H1000 H 1.00414 0.47713 0.09661 0.0
C1001 C 0.05084 0.42447 0.07398 0.0
C1002 C 0.02809 0.39568 0.07912 0.0
C1003 C 0.04659 0.45129 0.07392 0.0
C1004 C 1.00618 0.48883 0.08864 0.0
H1005 H 0.02333 0.62915 0.06333 0.0
H1006 H 0.03161 0.58378 0.06409 0.0
H1007 H 0.99544 0.52279 0.09608 0.0
H1008 H 0.98366 0.37298 0.08859 0.0
H1009 H 0.97669 0.41988 0.08871 0.0
H1010 H 0.02326 0.48657 0.06103 0.0
C1011 C 0.01465 0.58435 0.06992 0.0
C1012 C 1.00092 0.51498 0.08829 0.0
C1013 C 0.01032 0.61101 0.06962 0.0
C1014 C 1.00154 0.39472 0.08449 0.0
C1015 C 0.99762 0.42165 0.08462 0.0
C1016 C 0.01731 0.49438 0.06874 0.0
C1017 C 0.99809 0.55943 0.07773 0.0
C1018 C 1.00338 0.53111 0.07812 0.0
C1019 C 0.01984 0.45018 0.07921 0.0
C1020 C 0.01463 0.4783 0.07888 0.0
H1021 H 0.95699 0.59063 0.09114 0.0
H1022 H 0.963 0.54344 0.09122 0.0
H1023 H 0.01293 0.53107 0.06026 0.0
H1024 H 0.07145 0.42596 0.06973 0.0
H1025 H 0.06427 0.47296 0.06974 0.0
C1026 C 0.61396 1.00433 0.40205 0.0
C1027 C 0.63753 0.02425 0.40989 0.0
C1028 C 0.5829 0.99994 0.40238 0.0
C1029 C 0.52667 0.01179 0.42107 0.0
H1030 H 0.47689 0.99278 0.39365 0.0
C1031 C 0.4061 0.01211 0.4176 0.0
C1032 C 0.38065 0.98611 0.41198 0.0
C1033 C 0.43695 0.01593 0.41769 0.0
C1034 C 0.49039 0.99779 0.4014 0.0
H1035 H 0.64627 0.05582 0.42409 0.0
H1036 H 0.59296 0.04972 0.42423 0.0
H1037 H 0.53181 1.00305 0.39285 0.0
H1038 H 0.36771 0.94366 0.40209 0.0
H1039 H 0.42194 0.95071 0.40203 0.0
H1040 H 0.48528 0.00771 0.42948 0.0
C1041 C 0.59813 0.03647 0.41804 0.0
C1042 C 0.52199 1.00358 0.40098 0.0
C1043 C 0.62913 0.04047 0.41784 0.0
C1044 C 0.38676 0.96382 0.40654 0.0
C1045 C 0.41784 0.968 0.40644 0.0
C1046 C 0.49525 0.00657 0.42144 0.0
C1047 C 0.57431 0.01581 0.41039 0.0
C1048 C 0.54069 0.0105 0.41081 0.0
C1049 C 0.44334 0.99419 0.41198 0.0
C1050 C 0.47665 0.99934 0.41162 0.0
H1051 H 0.61934 0.99188 0.39561 0.0
H1052 H 0.56549 0.98349 0.3964 0.0
H1053 H 0.53971 0.01634 0.42889 0.0
H1054 H 0.40213 0.02961 0.42192 0.0
H1055 H 0.45605 0.03643 0.42198 0.0
C1056 C 0.42434 0.38658 0.75095 0.0
C1057 C 0.3996 0.3781 0.74303 0.0
C1058 C 0.45124 0.41761 0.75117 0.0
C1059 C 0.49406 0.49381 0.73417 0.0
H1060 H 0.53519 0.53027 0.76266 0.0
C1061 C 0.58975 0.62881 0.73975 0.0
C1062 C 0.61818 0.63491 0.74521 0.0
C1063 C 0.56281 0.59779 0.73964 0.0
C1064 C 0.52401 0.52038 0.75463 0.0
H1065 H 0.38511 0.39624 0.72881 0.0
H1066 H 0.43038 0.45011 0.72963 0.0
H1067 H 0.48945 0.47589 0.76205 0.0
H1068 H 0.64017 0.61342 0.75517 0.0
H1069 H 0.59302 0.55962 0.75521 0.0
H1070 H 0.52824 0.53892 0.72686 0.0
C1071 C 0.42959 0.43274 0.73557 0.0
C1072 C 0.49783 0.48898 0.75424 0.0
C1073 C 0.40303 0.40165 0.73524 0.0
C1074 C 0.61869 0.60948 0.75084 0.0
C1075 C 0.59163 0.57868 0.75091 0.0
C1076 C 0.51986 0.52539 0.7346 0.0
C1077 C 0.45419 0.4414 0.74356 0.0
C1078 C 0.48242 0.47504 0.74399 0.0
C1079 C 0.56347 0.57231 0.74519 0.0
C1080 C 0.53527 0.53904 0.74482 0.0
H1081 H 0.42274 0.36947 0.75717 0.0
H1082 H 0.46975 0.42282 0.75733 0.0
H1083 H 0.48363 0.48407 0.72605 0.0
H1084 H 0.58865 0.64783 0.73529 0.0
H1085 H 0.54141 0.59372 0.73522 0.0
C1086 C 0.403 1.00449 0.6004 0.0
C1087 C 0.39937 0.02432 0.59254 0.0
C1088 C 0.42969 1.00016 0.60011 0.0
C1089 C 0.49783 0.01195 0.58147 0.0
H1090 H 0.52853 0.99318 0.60894 0.0
C1091 C 0.61866 0.01219 0.58502 0.0
C1092 C 0.61805 0.98628 0.5907 0.0
C1093 C 0.59165 0.01604 0.58491 0.0
C1094 C 0.52007 0.99812 0.60118 0.0
H1095 H 0.42229 0.05586 0.57833 0.0
H1096 H 0.46956 0.04986 0.57825 0.0
H1097 H 0.48392 1.00346 0.60969 0.0
H1098 H 0.58842 0.94398 0.60066 0.0
H1099 H 0.54129 0.95106 0.60067 0.0
H1100 H 0.53511 0.00776 0.5731 0.0
C1101 C 0.45109 0.03663 0.58443 0.0
C1102 C 0.49428 1.00392 0.60157 0.0
C1103 C 0.42406 0.04056 0.58461 0.0
C1104 C 0.58959 0.96408 0.59617 0.0
C1105 C 0.56272 0.96828 0.59624 0.0
C1106 C 0.52401 0.00671 0.58112 0.0
C1107 C 0.45421 0.01603 0.5921 0.0
C1108 C 0.48252 0.01075 0.59171 0.0
C1109 C 0.56347 0.99439 0.59064 0.0
C1110 C 0.53534 0.99956 0.59096 0.0
H1111 H 0.38513 0.99205 0.60684 0.0
H1112 H 0.43062 0.98376 0.6061 0.0
H1113 H 0.48936 0.01643 0.57364 0.0
H1114 H 0.64015 0.02961 0.58067 0.0
H1115 H 0.5931 0.03647 0.58056 0.0
C1116 C 0.38883 0.42165 0.91754 0.0
C1117 C 0.38054 0.3968 0.92537 0.0
C1118 C 0.41985 0.44864 0.91735 0.0
C1119 C 0.4964 0.49113 0.9343 0.0
H1120 H 0.53273 0.53283 0.90589 0.0
C1121 C 0.63177 0.58613 0.9287 0.0
C1122 C 0.63798 0.61477 0.92342 0.0
C1123 C 0.60062 0.55935 0.92876 0.0
C1124 C 0.52287 0.52148 0.9139 0.0
H1125 H 0.3989 0.38228 0.93951 0.0
H1126 H 0.45271 0.42763 0.93873 0.0
H1127 H 0.47816 0.48731 0.90647 0.0
H1128 H 0.61656 0.6373 0.91372 0.0
H1129 H 0.56253 0.59043 0.91359 0.0
H1130 H 0.54174 0.5249 0.94161 0.0
C1131 C 0.43525 0.42689 0.93283 0.0
C1132 C 0.49136 0.49543 0.91427 0.0
C1133 C 0.40419 0.40026 0.93314 0.0
C1134 C 0.61254 0.61565 0.91791 0.0
C1135 C 0.58161 0.58875 0.91779 0.0
C1136 C 0.52808 0.51678 0.93388 0.0
C1137 C 0.44378 0.45156 0.92491 0.0
C1138 C 0.47747 0.47979 0.92449 0.0
C1139 C 0.57512 0.56039 0.92334 0.0
C1140 C 0.5417 0.53237 0.92369 0.0
H1141 H 0.3716 0.42004 0.91135 0.0
H1142 H 0.42496 0.46722 0.91124 0.0
H1143 H 0.48671 0.48055 0.94241 0.0
H1144 H 0.6508 0.58474 0.93305 0.0
H1145 H 0.59645 0.53779 0.93305 0.0
C1146 C 1.00707 0.61014 0.2671 0.0
C1147 C 0.02716 0.63374 0.25931 0.0
C1148 C 1.00271 0.57913 0.2668 0.0
C1149 C 0.01537 0.52311 0.24824 0.0
H1150 H 0.99536 0.4732 0.27563 0.0
C1151 C 0.01587 0.40276 0.25182 0.0
C1152 C 0.98981 0.37726 0.2574 0.0
C1153 C 0.01961 0.43354 0.25172 0.0
C1154 C 1.00065 0.48672 0.26789 0.0
H1155 H 0.05903 0.6425 0.24518 0.0
H1156 H 0.05299 0.58933 0.24508 0.0
H1157 H 1.00535 0.52792 0.27638 0.0
H1158 H 0.94715 0.36426 0.26723 0.0
H1159 H 0.95404 0.41831 0.26727 0.0
H1160 H 0.01183 0.48194 0.23989 0.0
C1161 C 0.03958 0.59442 0.25122 0.0
C1162 C 1.00629 0.51823 0.26828 0.0
C1163 C 0.04354 0.62538 0.25141 0.0
C1164 C 0.96738 0.38331 0.26281 0.0
C1165 C 0.97146 0.41431 0.2629 0.0
C1166 C 0.0103 0.49178 0.2479 0.0
C1167 C 0.01878 0.57058 0.25884 0.0
C1168 C 0.01357 0.53701 0.25845 0.0
C1169 C 0.9977 0.43985 0.25738 0.0
C1170 C 1.00271 0.4731 0.25771 0.0
H1171 H 0.99447 0.61545 0.27352 0.0
H1172 H 0.98614 0.56174 0.27274 0.0
H1173 H 0.0202 0.53616 0.24042 0.0
H1174 H 0.03349 0.39889 0.24752 0.0
H1175 H 0.04015 0.45264 0.24744 0.0
C1176 C 0.04929 0.12682 0.07722 0.0
C1177 C 0.02788 0.13344 0.08306 0.0
C1178 C 0.04492 0.09573 0.07715 0.0
C1179 C 1.00519 0.01801 0.09234 0.0
H1180 H 0.01101 0.98265 0.0638 0.0
C1181 C 0.97007 0.88409 0.08795 0.0
C1182 C 0.9887 0.87688 0.0807 0.0
C1183 C 0.97383 0.91496 0.08817 0.0
C1184 C 0.00971 0.99215 0.07189 0.0
H1185 H 0.98589 0.11281 0.09382 0.0
H1186 H 0.97849 0.05888 0.0938 0.0
H1187 H 0.02164 0.03758 0.0647 0.0
H1188 H 0.02483 0.8966 0.06757 0.0
H1189 H 0.03225 0.95007 0.06827 0.0
H1190 H 0.99385 0.97289 0.0996 0.0
C1191 C 0.99856 0.07758 0.0892 0.0
C1192 C 0.0158 0.02377 0.0724 0.0
C1193 C 1.00269 0.10849 0.08915 0.0
C1194 C 0.01047 0.90121 0.07346 0.0
C1195 C 0.0144 0.93199 0.07374 0.0
C1196 C 0.99942 0.98646 0.09187 0.0
C1197 C 0.01931 0.07063 0.08307 0.0
C1198 C 0.01362 0.03715 0.08262 0.0
C1199 C 0.99636 0.93953 0.08115 0.0
C1200 C 1.0016 0.97299 0.08163 0.0
H1201 H 0.06881 0.14542 0.07239 0.0
H1202 H 0.06156 0.0913 0.07243 0.0
H1203 H 1.00356 0.02761 0.10038 0.0
H1204 H 0.95313 0.86615 0.09368 0.0
H1205 H 0.95903 0.91951 0.09387 0.0
C1206 C 0.90181 1.00232 0.42278 0.0
C1207 C 0.90126 0.02629 0.4162 0.0
C1208 C 0.92857 0.99812 0.42274 0.0
C1209 C 0.99761 0.01243 0.40517 0.0
H1210 H 0.02882 0.99325 0.43243 0.0
C1211 C 0.11472 0.00654 0.40591 0.0
C1212 C 0.11725 0.98493 0.41322 0.0
C1213 C 0.08798 0.0107 0.40622 0.0
C1214 C 0.02015 0.99806 0.42469 0.0
H1215 H 0.92884 0.06513 0.40459 0.0
H1216 H 0.97577 0.05788 0.40453 0.0
H1217 H 0.9843 1.00379 0.43338 0.0
H1218 H 0.09264 0.94991 0.42636 0.0
H1219 H 0.0454 0.95639 0.42666 0.0
H1220 H 0.03298 0.00623 0.39643 0.0
C1221 C 0.9553 0.04217 0.40968 0.0
C1222 C 0.99467 1.00429 0.42526 0.0
C1223 C 0.92857 0.04658 0.4098 0.0
C1224 C 0.09157 0.9667 0.42058 0.0
C1225 C 0.06462 0.97077 0.42085 0.0
C1226 C 0.02292 0.00597 0.40459 0.0
C1227 C 0.95549 0.01764 0.41605 0.0
C1228 C 0.98312 0.01167 0.41551 0.0
C1229 C 0.06262 0.99314 0.41376 0.0
C1230 C 0.03471 0.99882 0.41435 0.0
H1231 H 0.88127 0.98644 0.42788 0.0
H1232 H 0.92773 0.97888 0.4277 0.0
H1233 H 0.98896 0.01742 0.39746 0.0
H1234 H 0.13367 0.0206 0.39997 0.0
H1235 H 0.08767 0.02837 0.40069 0.0
C1236 C 0.13159 0.08666 0.74308 0.0
C1237 C 0.13854 0.11386 0.74951 0.0
C1238 C 0.10047 0.05988 0.74297 0.0
C1239 C 0.02316 0.02023 0.75862 0.0
H1240 H 0.98672 0.98196 0.72979 0.0
C1241 C 0.88852 0.9232 0.75397 0.0
C1242 C 0.88105 0.89767 0.74656 0.0
C1243 C 0.91957 0.95011 0.75426 0.0
C1244 C 0.99654 0.99199 0.73795 0.0
H1245 H 0.11854 0.13358 0.76125 0.0
H1246 H 0.06457 0.08705 0.7611 0.0
H1247 H 0.04192 0.02602 0.73081 0.0
H1248 H 0.90037 0.88148 0.73324 0.0
H1249 H 0.95419 0.92738 0.734 0.0
H1250 H 0.97799 0.98601 0.7658 0.0
C1251 C 0.08302 0.08633 0.75611 0.0
C1252 C 0.02832 0.01734 0.73852 0.0
C1253 C 0.11395 0.11314 0.75613 0.0
C1254 C 0.90523 0.90029 0.73923 0.0
C1255 C 0.93618 0.927 0.73955 0.0
C1256 C 0.99144 0.9947 0.75806 0.0
C1257 C 0.07568 0.05952 0.74939 0.0
C1258 C 0.04208 0.03183 0.74886 0.0
C1259 C 0.944 0.95223 0.74714 0.0
C1260 C 0.97761 0.98015 0.74772 0.0
H1261 H 0.1499 0.0865 0.73784 0.0
H1262 H 0.09578 0.0395 0.7378 0.0
H1263 H 0.03305 0.03058 0.76674 0.0
H1264 H 0.87064 0.92206 0.75977 0.0
H1265 H 0.92441 0.96923 0.7601 0.0
C1266 C 0.8865 0.96408 0.59237 0.0
C1267 C 0.87986 0.98534 0.58645 0.0
C1268 C 0.91762 0.96843 0.59244 0.0
C1269 C 0.99564 0.00847 0.57731 0.0
H1270 H 0.03069 1.00233 0.6059 0.0
C1271 C 0.12993 0.04499 0.5821 0.0
C1272 C 0.13695 0.02574 0.58909 0.0
C1273 C 0.09896 0.04104 0.58188 0.0
C1274 C 0.02126 1.00377 0.5978 0.0
H1275 H 0.90042 0.02694 0.57555 0.0
H1276 H 0.95443 0.03442 0.57563 0.0
H1277 H 0.97554 0.99139 0.6049 0.0
H1278 H 0.11694 0.98831 0.60174 0.0
H1279 H 0.06325 0.98076 0.60108 0.0
H1280 H 0.04114 0.02043 0.57016 0.0
C1281 C 0.93573 0.01445 0.58026 0.0
C1282 C 0.98953 0.99745 0.59724 0.0
C1283 C 0.90478 0.01029 0.58028 0.0
C1284 C 0.11241 1.00319 0.59608 0.0
C1285 C 0.08154 0.99915 0.59582 0.0
C1286 C 0.02732 0.01454 0.57785 0.0
C1287 C 0.94272 0.9939 0.58648 0.0
C1288 C 0.97627 0.99973 0.58699 0.0
C1289 C 0.07417 0.01776 0.58864 0.0
C1290 C 0.04064 0.01226 0.5881 0.0
H1291 H 0.86791 0.94474 0.59726 0.0
H1292 H 0.92208 0.95194 0.59722 0.0
H1293 H 0.98614 0.01015 0.56925 0.0
H1294 H 0.14812 0.06252 0.57658 0.0
H1295 H 0.09445 0.05623 0.57638 0.0
C1296 C 0.89995 0.90184 0.91329 0.0
C1297 C 0.90021 0.87701 0.91943 0.0
C1298 C 0.92669 0.93279 0.91325 0.0
C1299 C 0.99747 0.98684 0.93015 0.0
H1300 H 0.02656 0.03778 0.90296 0.0
C1301 C 0.11458 0.10966 0.9291 0.0
C1302 C 0.11694 0.13393 0.92189 0.0
C1303 C 0.08777 0.07883 0.92883 0.0
C1304 C 0.0185 0.02418 0.91069 0.0
H1305 H 0.92917 0.86524 0.93017 0.0
H1306 H 0.97601 0.91945 0.93013 0.0
H1307 H 0.98172 0.9829 0.90213 0.0
H1308 H 0.09188 0.14458 0.90898 0.0
H1309 H 0.04447 0.09106 0.9088 0.0
H1310 H 0.03362 0.02809 0.93879 0.0
C1311 C 0.95494 0.91489 0.92538 0.0
C1312 C 0.99284 0.99255 0.91019 0.0
C1313 C 0.92825 0.88376 0.92531 0.0
C1314 C 0.09098 0.12665 0.91468 0.0
C1315 C 0.06392 0.09572 0.91447 0.0
C1316 C 0.0229 0.01854 0.93068 0.0
C1317 C 0.95438 0.93989 0.91943 0.0
C1318 C 0.98208 0.97341 0.9199 0.0
C1319 C 0.06208 0.0712 0.92145 0.0
C1320 C 0.03399 0.0377 0.92094 0.0
H1321 H 0.87881 0.8974 0.9086 0.0
H1322 H 0.9253 0.95143 0.90864 0.0
H1323 H 0.98944 0.97301 0.93784 0.0
H1324 H 0.13368 0.11436 0.93495 0.0
H1325 H 0.08764 0.06076 0.93426 0.0
C1326 C 1.00503 0.89793 0.24668 0.0
C1327 C 0.02925 0.89741 0.25316 0.0
C1328 C 1.00091 0.92471 0.24672 0.0
C1329 C 0.01645 0.99451 0.26412 0.0
H1330 H 0.9958 0.02465 0.23692 0.0
C1331 C 0.01085 0.11169 0.26325 0.0
C1332 C 0.98891 0.11411 0.25605 0.0
C1333 C 0.01495 0.08493 0.26294 0.0
C1334 C 1.00103 0.01631 0.24464 0.0
H1335 H 0.06856 0.92515 0.2646 0.0
H1336 H 0.06147 0.97209 0.26465 0.0
H1337 H 1.00599 0.97996 0.236 0.0
H1338 H 0.95332 0.08927 0.24309 0.0
H1339 H 0.9597 0.04204 0.24278 0.0
H1340 H 0.01104 0.03038 0.27281 0.0
C1341 C 0.04549 0.95156 0.25959 0.0
C1342 C 1.00705 0.99069 0.2441 0.0
C1343 C 0.04981 0.9248 0.25946 0.0
C1344 C 0.97036 0.08831 0.24878 0.0
C1345 C 0.97438 0.06135 0.24851 0.0
C1346 C 0.01021 0.01995 0.26468 0.0
C1347 C 0.02074 0.95174 0.2533 0.0
C1348 C 0.01495 0.97949 0.25382 0.0
C1349 C 0.99703 0.05942 0.2555 0.0
C1350 C 1.00254 0.03139 0.25494 0.0
H1351 H 0.98892 0.87736 0.24164 0.0
H1352 H 0.98149 0.92382 0.24183 0.0
H1353 H 0.02185 0.98618 0.27181 0.0
H1354 H 0.02519 0.1307 0.26913 0.0
H1355 H 0.03285 0.08472 0.26839 0.0
loop_
_geom_bond_atom_site_label_1
_geom_bond_atom_site_label_2
_geom_bond_distance
_geom_bond_site_symmetry_2
_ccdc_geom_bond_type
C0 C1 1.443 1_455 S
C0 N4 1.376 1_455 S
C0 C38 1.389 . S
C1 C0 1.443 1_655 S
C1 C2 1.340 . S
C1 H41 0.951 . S
C2 C1 1.340 . S
C2 C3 1.439 . S
C2 H42 0.950 . S
C3 C2 1.439 . S
C3 N4 1.374 . S
C3 C37 1.395 . S
N4 C0 1.376 1_655 S
N4 C3 1.374 . S
N4 Co5 2.008 1_655 S
Co5 N4 2.008 1_455 S
Co5 N6 1.995 1_455 S
Co5 N11 2.008 . S
Co5 N16 1.995 . S
Co5 N21 2.282 . S
Co5 N27 2.282 . S
N6 Co5 1.995 1_655 S
N6 C7 1.376 . S
N6 C10 1.383 . S
C7 N6 1.376 . S
C7 C8 1.446 . S
C7 C37 1.391 . S
C8 C7 1.446 . S
C8 C9 1.339 . S
C8 H43 0.949 . S
C9 C8 1.339 . S
C9 C10 1.439 . S
C9 H44 0.950 . S
C10 N6 1.383 . S
C10 C9 1.439 . S
C10 C39 1.392 . S
N11 Co5 2.008 . S
N11 C12 1.376 . S
N11 C15 1.374 . S
C12 N11 1.376 . S
C12 C13 1.443 . S
C12 C39 1.389 1_455 S
C13 C12 1.443 . S
C13 C14 1.340 . S
C13 H45 0.951 . S
C14 C13 1.340 . S
C14 C15 1.439 . S
C14 H46 0.950 . S
C15 N11 1.374 . S
C15 C14 1.439 . S
C15 C40 1.395 . S
N16 Co5 1.995 . S
N16 C17 1.376 . S
N16 C20 1.383 . S
C17 N16 1.376 . S
C17 C18 1.446 . S
C17 C40 1.391 . S
C18 C17 1.446 . S
C18 C19 1.339 . S
C18 H47 0.949 . S
C19 C18 1.339 . S
C19 C20 1.439 . S
C19 H48 0.950 . S
C20 N16 1.383 . S
C20 C19 1.439 . S
C20 C38 1.392 . S
N21 Co5 2.282 . S
N21 C24 1.332 . S
N21 C26 1.332 1_455 S
C22 C23 1.386 . S
C22 C25 1.388 1_455 S
C23 C22 1.386 . S
C23 C24 1.382 . S
C23 H49 0.950 . S
C24 N21 1.332 . S
C24 C23 1.382 . S
C24 H35 0.952 . S
C25 C22 1.388 1_655 S
C25 C26 1.382 . S
C25 H50 0.950 . S
C26 N21 1.332 1_655 S
C26 C25 1.382 . S
C26 H36 0.948 . S
N27 Co5 2.282 . S
N27 C31 1.332 1_455 S
N27 C32 1.332 . S
C28 C29 1.388 . S
C28 C32 1.382 . S
C28 H51 0.950 . S
C29 C28 1.388 . S
C29 C30 1.386 1_455 S
C30 C29 1.386 1_655 S
C30 C31 1.382 . S
C30 H52 0.950 . S
C31 N27 1.332 1_655 S
C31 C30 1.382 . S
C31 H33 0.952 . S
C32 N27 1.332 . S
C32 C28 1.382 . S
C32 H34 0.948 . S
H33 C31 0.952 . S
H34 C32 0.948 . S
H35 C24 0.952 . S
H36 C26 0.948 . S
C37 C3 1.395 . S
C37 C7 1.391 . S
C38 C0 1.389 . S
C38 C20 1.392 . S
C39 C10 1.392 . S
C39 C12 1.389 1_655 S
C40 C15 1.395 . S
C40 C17 1.391 . S
H41 C1 0.951 . S
H42 C2 0.950 . S
H43 C8 0.949 . S
H44 C9 0.950 . S
H45 C13 0.951 . S
H46 C14 0.950 . S
H47 C18 0.949 . S
H48 C19 0.950 . S
H49 C23 0.950 . S
H50 C25 0.950 . S
H51 C28 0.950 . S
H52 C30 0.950 . S
C53 C54 1.443 1_545 S
C53 N57 1.376 1_545 S
C53 C91 1.389 . S
C54 C53 1.443 1_565 S
C54 C55 1.340 . S
C54 H94 0.951 . S
C55 C54 1.340 . S
C55 C56 1.439 . S
C55 H95 0.950 . S
C56 C55 1.439 . S
C56 N57 1.374 . S
C56 C90 1.395 . S
N57 C53 1.376 1_565 S
N57 C56 1.374 . S
N57 Co58 2.008 1_565 S
Co58 N57 2.008 1_545 S
Co58 N59 1.995 1_545 S
Co58 N64 2.008 . S
Co58 N69 1.995 . S
Co58 N74 2.282 . S
Co58 N80 2.282 . S
N59 Co58 1.995 1_565 S
N59 C60 1.376 . S
N59 C63 1.383 . S
C60 N59 1.376 . S
C60 C61 1.446 . S
C60 C90 1.391 . S
C61 C60 1.446 . S
C61 C62 1.339 . S
C61 H96 0.949 . S
C62 C61 1.339 . S
C62 C63 1.439 . S
C62 H97 0.950 . S
C63 N59 1.383 . S
C63 C62 1.439 . S
C63 C92 1.392 . S
N64 Co58 2.008 . S
N64 C65 1.376 . S
N64 C68 1.374 . S
C65 N64 1.376 . S
C65 C66 1.443 . S
C65 C92 1.389 1_545 S
C66 C65 1.443 . S
C66 C67 1.340 . S
C66 H98 0.951 . S
C67 C66 1.340 . S
C67 C68 1.439 . S
C67 H99 0.950 . S
C68 N64 1.374 . S
C68 C67 1.439 . S
C68 C93 1.395 . S
N69 Co58 1.995 . S
N69 C70 1.376 . S
N69 C73 1.383 . S
C70 N69 1.376 . S
C70 C71 1.446 . S
C70 C93 1.391 . S
C71 C70 1.446 . S
C71 C72 1.339 . S
C71 H100 0.949 . S
C72 C71 1.339 . S
C72 C73 1.439 . S
C72 H101 0.950 . S
C73 N69 1.383 . S
C73 C72 1.439 . S
C73 C91 1.392 . S
N74 Co58 2.282 . S
N74 C77 1.332 . S
N74 C79 1.332 1_545 S
C75 C76 1.386 . S
C75 C78 1.388 1_545 S
C76 C75 1.386 . S
C76 C77 1.382 . S
C76 H102 0.950 . S
C77 N74 1.332 . S
C77 C76 1.382 . S
C77 H88 0.952 . S
C78 C75 1.388 1_565 S
C78 C79 1.382 . S
C78 H103 0.950 . S
C79 N74 1.332 1_565 S
C79 C78 1.382 . S
C79 H89 0.948 . S
N80 Co58 2.282 . S
N80 C84 1.332 1_545 S
N80 C85 1.332 . S
C81 C82 1.388 . S
C81 C85 1.382 . S
C81 H104 0.950 . S
C82 C81 1.388 . S
C82 C83 1.386 1_545 S
C83 C82 1.386 1_565 S
C83 C84 1.382 . S
C83 H105 0.950 . S
C84 N80 1.332 1_565 S
C84 C83 1.382 . S
C84 H86 0.952 . S
C85 N80 1.332 . S
C85 C81 1.382 . S
C85 H87 0.948 . S
H86 C84 0.952 . S
H87 C85 0.948 . S
H88 C77 0.952 . S
H89 C79 0.948 . S
C90 C56 1.395 . S
C90 C60 1.391 . S
C91 C53 1.389 . S
C91 C73 1.392 . S
C92 C63 1.392 . S
C92 C65 1.389 1_565 S
C93 C68 1.395 . S
C93 C70 1.391 . S
H94 C54 0.951 . S
H95 C55 0.950 . S
H96 C61 0.949 . S
H97 C62 0.950 . S
H98 C66 0.951 . S
H99 C67 0.950 . S
H100 C71 0.949 . S
H101 C72 0.950 . S
H102 C76 0.950 . S
H103 C78 0.950 . S
H104 C81 0.950 . S
H105 C83 0.950 . S
C106 C107 1.443 . S
C106 N110 1.376 . S
C106 C144 1.389 . S
C107 C106 1.443 . S
C107 C108 1.340 . S
C107 H147 0.951 . S
C108 C107 1.340 . S
C108 C109 1.439 . S
C108 H148 0.950 . S
C109 C108 1.439 . S
C109 N110 1.374 . S
C109 C143 1.395 . S
N110 C106 1.376 . S
N110 C109 1.374 . S
N110 Co111 2.008 . S
Co111 N110 2.008 . S
Co111 N112 1.995 . S
Co111 N117 2.008 . S
Co111 N122 1.995 . S
Co111 N127 2.282 . S
Co111 N133 2.282 . S
N112 Co111 1.995 . S
N112 C113 1.376 . S
N112 C116 1.383 . S
C113 N112 1.376 . S
C113 C114 1.446 . S
C113 C143 1.391 . S
C114 C113 1.446 . S
C114 C115 1.339 . S
C114 H149 0.949 . S
C115 C114 1.339 . S
C115 C116 1.439 . S
C115 H150 0.950 . S
C116 N112 1.383 . S
C116 C115 1.439 . S
C116 C145 1.392 . S
N117 Co111 2.008 . S
N117 C118 1.376 . S
N117 C121 1.374 . S
C118 N117 1.376 . S
C118 C119 1.443 . S
C118 C145 1.389 . S
C119 C118 1.443 . S
C119 C120 1.340 . S
C119 H151 0.951 . S
C120 C119 1.340 . S
C120 C121 1.439 . S
C120 H152 0.950 . S
C121 N117 1.374 . S
C121 C120 1.439 . S
C121 C146 1.395 . S
N122 Co111 1.995 . S
N122 C123 1.376 . S
N122 C126 1.383 . S
C123 N122 1.376 . S
C123 C124 1.446 . S
C123 C146 1.391 . S
C124 C123 1.446 . S
C124 C125 1.339 . S
C124 H153 0.949 . S
C125 C124 1.339 . S
C125 C126 1.439 . S
C125 H154 0.950 . S
C126 N122 1.383 . S
C126 C125 1.439 . S
C126 C144 1.392 . S
N127 Co111 2.282 . S
N127 C130 1.332 . S
N127 C132 1.332 . S
C128 C129 1.386 . S
C128 C131 1.388 . S
C129 C128 1.386 . S
C129 C130 1.382 . S
C129 H155 0.950 . S
C130 N127 1.332 . S
C130 C129 1.382 . S
C130 H141 0.952 . S
C131 C128 1.388 . S
C131 C132 1.382 . S
C131 H156 0.950 . S
C132 N127 1.332 . S
C132 C131 1.382 . S
C132 H142 0.948 . S
N133 Co111 2.282 . S
N133 C137 1.332 . S
N133 C138 1.332 . S
C134 C135 1.388 . S
C134 C138 1.382 . S
C134 H157 0.950 . S
C135 C134 1.388 . S
C135 C136 1.386 . S
C136 C135 1.386 . S
C136 C137 1.382 . S
C136 H158 0.950 . S
C137 N133 1.332 . S
C137 C136 1.382 . S
C137 H139 0.952 . S
C138 N133 1.332 . S
C138 C134 1.382 . S
C138 H140 0.948 . S
H139 C137 0.952 . S
H140 C138 0.948 . S
H141 C130 0.952 . S
H142 C132 0.948 . S
C143 C109 1.395 . S
C143 C113 1.391 . S
C144 C106 1.389 . S
C144 C126 1.392 . S
C145 C116 1.392 . S
C145 C118 1.389 . S
C146 C121 1.395 . S
C146 C123 1.391 . S
H147 C107 0.951 . S
H148 C108 0.950 . S
H149 C114 0.949 . S
H150 C115 0.950 . S
H151 C119 0.951 . S
H152 C120 0.950 . S
H153 C124 0.949 . S
H154 C125 0.950 . S
H155 C129 0.950 . S
H156 C131 0.950 . S
H157 C134 0.950 . S
H158 C136 0.950 . S
C159 C160 1.443 1_655 S
C159 N163 1.376 1_655 S
C159 C197 1.389 . S
C160 C159 1.443 1_455 S
C160 C161 1.340 . S
C160 H200 0.951 . S
C161 C160 1.340 . S
C161 C162 1.439 . S
C161 H201 0.950 . S
C162 C161 1.439 . S
C162 N163 1.374 . S
C162 C196 1.395 . S
N163 C159 1.376 1_455 S
N163 C162 1.374 . S
N163 Co164 2.008 1_455 S
Co164 N163 2.008 1_655 S
Co164 N165 1.995 1_655 S
Co164 N170 2.008 . S
Co164 N175 1.995 . S
Co164 N180 2.282 . S
Co164 N186 2.282 . S
N165 Co164 1.995 1_455 S
N165 C166 1.376 . S
N165 C169 1.383 . S
C166 N165 1.376 . S
C166 C167 1.446 . S
C166 C196 1.391 . S
C167 C166 1.446 . S
C167 C168 1.339 . S
C167 H202 0.949 . S
C168 C167 1.339 . S
C168 C169 1.439 . S
C168 H203 0.950 . S
C169 N165 1.383 . S
C169 C168 1.439 . S
C169 C198 1.392 . S
N170 Co164 2.008 . S
N170 C171 1.376 . S
N170 C174 1.374 . S
C171 N170 1.376 . S
C171 C172 1.443 . S
C171 C198 1.389 1_655 S
C172 C171 1.443 . S
C172 C173 1.340 . S
C172 H204 0.951 . S
C173 C172 1.340 . S
C173 C174 1.439 . S
C173 H205 0.950 . S
C174 N170 1.374 . S
C174 C173 1.439 . S
C174 C199 1.395 . S
N175 Co164 1.995 . S
N175 C176 1.376 . S
N175 C179 1.383 . S
C176 N175 1.376 . S
C176 C177 1.446 . S
C176 C199 1.391 . S
C177 C176 1.446 . S
C177 C178 1.339 . S
C177 H206 0.949 . S
C178 C177 1.339 . S
C178 C179 1.439 . S
C178 H207 0.950 . S
C179 N175 1.383 . S
C179 C178 1.439 . S
C179 C197 1.392 . S
N180 Co164 2.282 . S
N180 C183 1.332 . S
N180 C185 1.332 1_655 S
C181 C182 1.386 . S
C181 C184 1.388 1_655 S
C182 C181 1.386 . S
C182 C183 1.382 . S
C182 H208 0.950 . S
C183 N180 1.332 . S
C183 C182 1.382 . S
C183 H194 0.952 . S
C184 C181 1.388 1_455 S
C184 C185 1.382 . S
C184 H209 0.950 . S
C185 N180 1.332 1_455 S
C185 C184 1.382 . S
C185 H195 0.948 . S
N186 Co164 2.282 . S
N186 C190 1.332 1_655 S
N186 C191 1.332 . S
C187 C188 1.388 . S
C187 C191 1.382 . S
C187 H210 0.950 . S
C188 C187 1.388 . S
C188 C189 1.386 1_655 S
C189 C188 1.386 1_455 S
C189 C190 1.382 . S
C189 H211 0.950 . S
C190 N186 1.332 1_455 S
C190 C189 1.382 . S
C190 H192 0.952 . S
C191 N186 1.332 . S
C191 C187 1.382 . S
C191 H193 0.948 . S
H192 C190 0.952 . S
H193 C191 0.948 . S
H194 C183 0.952 . S
H195 C185 0.948 . S
C196 C162 1.395 . S
C196 C166 1.391 . S
C197 C159 1.389 . S
C197 C179 1.392 . S
C198 C169 1.392 . S
C198 C171 1.389 1_455 S
C199 C174 1.395 . S
C199 C176 1.391 . S
H200 C160 0.951 . S
H201 C161 0.950 . S
H202 C167 0.949 . S
H203 C168 0.950 . S
H204 C172 0.951 . S
H205 C173 0.950 . S
H206 C177 0.949 . S
H207 C178 0.950 . S
H208 C182 0.950 . S
H209 C184 0.950 . S
H210 C187 0.950 . S
H211 C189 0.950 . S
C212 C213 1.443 1_565 S
C212 N216 1.376 1_565 S
C212 C250 1.389 . S
C213 C212 1.443 1_545 S
C213 C214 1.340 . S
C213 H253 0.951 . S
C214 C213 1.340 . S
C214 C215 1.439 . S
C214 H254 0.950 . S
C215 C214 1.439 . S
C215 N216 1.374 . S
C215 C249 1.395 . S
N216 C212 1.376 1_545 S
N216 C215 1.374 . S
N216 Co217 2.008 1_545 S
Co217 N216 2.008 1_565 S
Co217 N218 1.995 1_565 S
Co217 N223 2.008 . S
Co217 N228 1.995 . S
Co217 N233 2.282 . S
Co217 N239 2.282 . S
N218 Co217 1.995 1_545 S
N218 C219 1.376 . S
N218 C222 1.383 . S
C219 N218 1.376 . S
C219 C220 1.446 . S
C219 C249 1.391 . S
C220 C219 1.446 . S
C220 C221 1.339 . S
C220 H255 0.949 . S
C221 C220 1.339 . S
C221 C222 1.439 . S
C221 H256 0.950 . S
C222 N218 1.383 . S
C222 C221 1.439 . S
C222 C251 1.392 . S
N223 Co217 2.008 . S
N223 C224 1.376 . S
N223 C227 1.374 . S
C224 N223 1.376 . S
C224 C225 1.443 . S
C224 C251 1.389 1_565 S
C225 C224 1.443 . S
C225 C226 1.340 . S
C225 H257 0.951 . S
C226 C225 1.340 . S
C226 C227 1.439 . S
C226 H258 0.950 . S
C227 N223 1.374 . S
C227 C226 1.439 . S
C227 C252 1.395 . S
N228 Co217 1.995 . S
N228 C229 1.376 . S
N228 C232 1.383 . S
C229 N228 1.376 . S
C229 C230 1.446 . S
C229 C252 1.391 . S
C230 C229 1.446 . S
C230 C231 1.339 . S
C230 H259 0.949 . S
C231 C230 1.339 . S
C231 C232 1.439 . S
C231 H260 0.950 . S
C232 N228 1.383 . S
C232 C231 1.439 . S
C232 C250 1.392 . S
N233 Co217 2.282 . S
N233 C236 1.332 . S
N233 C238 1.332 1_565 S
C234 C235 1.386 . S
C234 C237 1.388 1_565 S
C235 C234 1.386 . S
C235 C236 1.382 . S
C235 H261 0.950 . S
C236 N233 1.332 . S
C236 C235 1.382 . S
C236 H247 0.952 . S
C237 C234 1.388 1_545 S
C237 C238 1.382 . S
C237 H262 0.950 . S
C238 N233 1.332 1_545 S
C238 C237 1.382 . S
C238 H248 0.948 . S
N239 Co217 2.282 . S
N239 C243 1.332 1_565 S
N239 C244 1.332 . S
C240 C241 1.388 . S
C240 C244 1.382 . S
C240 H263 0.950 . S
C241 C240 1.388 . S
C241 C242 1.386 1_565 S
C242 C241 1.386 1_545 S
C242 C243 1.382 . S
C242 H264 0.950 . S
C243 N239 1.332 1_545 S
C243 C242 1.382 . S
C243 H245 0.952 . S
C244 N239 1.332 . S
C244 C240 1.382 . S
C244 H246 0.948 . S
H245 C243 0.952 . S
H246 C244 0.948 . S
H247 C236 0.952 . S
H248 C238 0.948 . S
C249 C215 1.395 . S
C249 C219 1.391 . S
C250 C212 1.389 . S
C250 C232 1.392 . S
C251 C222 1.392 . S
C251 C224 1.389 1_545 S
C252 C227 1.395 . S
C252 C229 1.391 . S
H253 C213 0.951 . S
H254 C214 0.950 . S
H255 C220 0.949 . S
H256 C221 0.950 . S
H257 C225 0.951 . S
H258 C226 0.950 . S
H259 C230 0.949 . S
H260 C231 0.950 . S
H261 C235 0.950 . S
H262 C237 0.950 . S
H263 C240 0.950 . S
H264 C242 0.950 . S
C265 C266 1.443 . S
C265 N269 1.376 . S
C265 C303 1.389 . S
C266 C265 1.443 . S
C266 C267 1.340 . S
C266 H306 0.951 . S
C267 C266 1.340 . S
C267 C268 1.439 . S
C267 H307 0.950 . S
C268 C267 1.439 . S
C268 N269 1.374 . S
C268 C302 1.395 . S
N269 C265 1.376 . S
N269 C268 1.374 . S
N269 Co270 2.008 . S
Co270 N269 2.008 . S
Co270 N271 1.995 . S
Co270 N276 2.008 . S
Co270 N281 1.995 . S
Co270 N286 2.282 . S
Co270 N292 2.282 . S
N271 Co270 1.995 . S
N271 C272 1.376 . S
N271 C275 1.383 . S
C272 N271 1.376 . S
C272 C273 1.446 . S
C272 C302 1.391 . S
C273 C272 1.446 . S
C273 C274 1.339 . S
C273 H308 0.949 . S
C274 C273 1.339 . S
C274 C275 1.439 . S
C274 H309 0.950 . S
C275 N271 1.383 . S
C275 C274 1.439 . S
C275 C304 1.392 . S
N276 Co270 2.008 . S
N276 C277 1.376 . S
N276 C280 1.374 . S
C277 N276 1.376 . S
C277 C278 1.443 . S
C277 C304 1.389 . S
C278 C277 1.443 . S
C278 C279 1.340 . S
C278 H310 0.951 . S
C279 C278 1.340 . S
C279 C280 1.439 . S
C279 H311 0.950 . S
C280 N276 1.374 . S
C280 C279 1.439 . S
C280 C305 1.395 . S
N281 Co270 1.995 . S
N281 C282 1.376 . S
N281 C285 1.383 . S
C282 N281 1.376 . S
C282 C283 1.446 . S
C282 C305 1.391 . S
C283 C282 1.446 . S
C283 C284 1.339 . S
C283 H312 0.949 . S
C284 C283 1.339 . S
C284 C285 1.439 . S
C284 H313 0.950 . S
C285 N281 1.383 . S
C285 C284 1.439 . S
C285 C303 1.392 . S
N286 Co270 2.282 . S
N286 C289 1.332 . S
N286 C291 1.332 . S
C287 C288 1.386 . S
C287 C290 1.388 . S
C288 C287 1.386 . S
C288 C289 1.382 . S
C288 H314 0.950 . S
C289 N286 1.332 . S
C289 C288 1.382 . S
C289 H300 0.952 . S
C290 C287 1.388 . S
C290 C291 1.382 . S
C290 H315 0.950 . S
C291 N286 1.332 . S
C291 C290 1.382 . S
C291 H301 0.948 . S
N292 Co270 2.282 . S
N292 C296 1.332 . S
N292 C297 1.332 . S
C293 C294 1.388 . S
C293 C297 1.382 . S
C293 H316 0.950 . S
C294 C293 1.388 . S
C294 C295 1.386 . S
C295 C294 1.386 . S
C295 C296 1.382 . S
C295 H317 0.950 . S
C296 N292 1.332 . S
C296 C295 1.382 . S
C296 H298 0.952 . S
C297 N292 1.332 . S
C297 C293 1.382 . S
C297 H299 0.948 . S
H298 C296 0.952 . S
H299 C297 0.948 . S
H300 C289 0.952 . S
H301 C291 0.948 . S
C302 C268 1.395 . S
C302 C272 1.391 . S
C303 C265 1.389 . S
C303 C285 1.392 . S
C304 C275 1.392 . S
C304 C277 1.389 . S
C305 C280 1.395 . S
C305 C282 1.391 . S
H306 C266 0.951 . S
H307 C267 0.950 . S
H308 C273 0.949 . S
H309 C274 0.950 . S
H310 C278 0.951 . S
H311 C279 0.950 . S
H312 C283 0.949 . S
H313 C284 0.950 . S
H314 C288 0.950 . S
H315 C290 0.950 . S
H316 C293 0.950 . S
H317 C295 0.950 . S
C318 C319 1.443 1_565 S
C318 N322 1.376 1_565 S
C318 C356 1.389 . S
C319 C318 1.443 1_545 S
C319 C320 1.340 . S
C319 H359 0.951 . S
C320 C319 1.340 . S
C320 C321 1.439 . S
C320 H360 0.950 . S
C321 C320 1.439 . S
C321 N322 1.374 . S
C321 C355 1.395 . S
N322 C318 1.376 1_545 S
N322 C321 1.374 . S
N322 Co323 2.008 1_545 S
Co323 N322 2.008 1_565 S
Co323 N324 1.995 1_565 S
Co323 N329 2.008 . S
Co323 N334 1.995 . S
Co323 N339 2.282 . S
Co323 N345 2.282 . S
N324 Co323 1.995 1_545 S
N324 C325 1.376 . S
N324 C328 1.383 . S
C325 N324 1.376 . S
C325 C326 1.446 . S
C325 C355 1.391 . S
C326 C325 1.446 . S
C326 C327 1.339 . S
C326 H361 0.949 . S
C327 C326 1.339 . S
C327 C328 1.439 . S
C327 H362 0.950 . S
C328 N324 1.383 . S
C328 C327 1.439 . S
C328 C357 1.392 . S
N329 Co323 2.008 . S
N329 C330 1.376 . S
N329 C333 1.374 . S
C330 N329 1.376 . S
C330 C331 1.443 . S
C330 C357 1.389 1_565 S
C331 C330 1.443 . S
C331 C332 1.340 . S
C331 H363 0.951 . S
C332 C331 1.340 . S
C332 C333 1.439 . S
C332 H364 0.950 . S
C333 N329 1.374 . S
C333 C332 1.439 . S
C333 C358 1.395 . S
N334 Co323 1.995 . S
N334 C335 1.376 . S
N334 C338 1.383 . S
C335 N334 1.376 . S
C335 C336 1.446 . S
C335 C358 1.391 . S
C336 C335 1.446 . S
C336 C337 1.339 . S
C336 H365 0.949 . S
C337 C336 1.339 . S
C337 C338 1.439 . S
C337 H366 0.950 . S
C338 N334 1.383 . S
C338 C337 1.439 . S
C338 C356 1.392 . S
N339 Co323 2.282 . S
N339 C342 1.332 . S
N339 C344 1.332 1_565 S
C340 C341 1.386 . S
C340 C343 1.388 1_565 S
C341 C340 1.386 . S
C341 C342 1.382 . S
C341 H367 0.950 . S
C342 N339 1.332 . S
C342 C341 1.382 . S
C342 H353 0.952 . S
C343 C340 1.388 1_545 S
C343 C344 1.382 . S
C343 H368 0.950 . S
C344 N339 1.332 1_545 S
C344 C343 1.382 . S
C344 H354 0.948 . S
N345 Co323 2.282 . S
N345 C349 1.332 1_565 S
N345 C350 1.332 . S
C346 C347 1.388 . S
C346 C350 1.382 . S
C346 H369 0.950 . S
C347 C346 1.388 . S
C347 C348 1.386 1_565 S
C348 C347 1.386 1_545 S
C348 C349 1.382 . S
C348 H370 0.950 . S
C349 N345 1.332 1_545 S
C349 C348 1.382 . S
C349 H351 0.952 . S
C350 N345 1.332 . S
C350 C346 1.382 . S
C350 H352 0.948 . S
H351 C349 0.952 . S
H352 C350 0.948 . S
H353 C342 0.952 . S
H354 C344 0.948 . S
C355 C321 1.395 . S
C355 C325 1.391 . S
C356 C318 1.389 . S
C356 C338 1.392 . S
C357 C328 1.392 . S
C357 C330 1.389 1_545 S
C358 C333 1.395 . S
C358 C335 1.391 . S
H359 C319 0.951 . S
H360 C320 0.950 . S
H361 C326 0.949 . S
H362 C327 0.950 . S
H363 C331 0.951 . S
H364 C332 0.950 . S
H365 C336 0.949 . S
H366 C337 0.950 . S
H367 C341 0.950 . S
H368 C343 0.950 . S
H369 C346 0.950 . S
H370 C348 0.950 . S
C371 C372 1.443 . S
C371 N375 1.376 . S
C371 C409 1.389 . S
C372 C371 1.443 . S
C372 C373 1.340 . S
C372 H412 0.951 . S
C373 C372 1.340 . S
C373 C374 1.439 . S
C373 H413 0.950 . S
C374 C373 1.439 . S
C374 N375 1.374 . S
C374 C408 1.395 . S
N375 C371 1.376 . S
N375 C374 1.374 . S
N375 Co376 2.008 . S
Co376 N375 2.008 . S
Co376 N377 1.995 . S
Co376 N382 2.008 . S
Co376 N387 1.995 . S
Co376 N392 2.282 . S
Co376 N398 2.282 . S
N377 Co376 1.995 . S
N377 C378 1.376 . S
N377 C381 1.383 . S
C378 N377 1.376 . S
C378 C379 1.446 . S
C378 C408 1.391 . S
C379 C378 1.446 . S
C379 C380 1.339 . S
C379 H414 0.949 . S
C380 C379 1.339 . S
C380 C381 1.439 . S
C380 H415 0.950 . S
C381 N377 1.383 . S
C381 C380 1.439 . S
C381 C410 1.392 . S
N382 Co376 2.008 . S
N382 C383 1.376 . S
N382 C386 1.374 . S
C383 N382 1.376 . S
C383 C384 1.443 . S
C383 C410 1.389 . S
C384 C383 1.443 . S
C384 C385 1.340 . S
C384 H416 0.951 . S
C385 C384 1.340 . S
C385 C386 1.439 . S
C385 H417 0.950 . S
C386 N382 1.374 . S
C386 C385 1.439 . S
C386 C411 1.395 . S
N387 Co376 1.995 . S
N387 C388 1.376 . S
N387 C391 1.383 . S
C388 N387 1.376 . S
C388 C389 1.446 . S
C388 C411 1.391 . S
C389 C388 1.446 . S
C389 C390 1.339 . S
C389 H418 0.949 . S
C390 C389 1.339 . S
C390 C391 1.439 . S
C390 H419 0.950 . S
C391 N387 1.383 . S
C391 C390 1.439 . S
C391 C409 1.392 . S
N392 Co376 2.282 . S
N392 C395 1.332 . S
N392 C397 1.332 . S
C393 C394 1.386 . S
C393 C396 1.388 . S
C394 C393 1.386 . S
C394 C395 1.382 . S
C394 H420 0.950 . S
C395 N392 1.332 . S
C395 C394 1.382 . S
C395 H406 0.952 . S
C396 C393 1.388 . S
C396 C397 1.382 . S
C396 H421 0.950 . S
C397 N392 1.332 . S
C397 C396 1.382 . S
C397 H407 0.948 . S
N398 Co376 2.282 . S
N398 C402 1.332 . S
N398 C403 1.332 . S
C399 C400 1.388 . S
C399 C403 1.382 . S
C399 H422 0.950 . S
C400 C399 1.388 . S
C400 C401 1.386 . S
C401 C400 1.386 . S
C401 C402 1.382 . S
C401 H423 0.950 . S
C402 N398 1.332 . S
C402 C401 1.382 . S
C402 H404 0.952 . S
C403 N398 1.332 . S
C403 C399 1.382 . S
C403 H405 0.948 . S
H404 C402 0.952 . S
H405 C403 0.948 . S
H406 C395 0.952 . S
H407 C397 0.948 . S
C408 C374 1.395 . S
C408 C378 1.391 . S
C409 C371 1.389 . S
C409 C391 1.392 . S
C410 C381 1.392 . S
C410 C383 1.389 . S
C411 C386 1.395 . S
C411 C388 1.391 . S
H412 C372 0.951 . S
H413 C373 0.950 . S
H414 C379 0.949 . S
H415 C380 0.950 . S
H416 C384 0.951 . S
H417 C385 0.950 . S
H418 C389 0.949 . S
H419 C390 0.950 . S
H420 C394 0.950 . S
H421 C396 0.950 . S
H422 C399 0.950 . S
H423 C401 0.950 . S
C424 C425 1.443 1_455 S
C424 N428 1.376 1_455 S
C424 C462 1.389 . S
C425 C424 1.443 1_655 S
C425 C426 1.340 . S
C425 H465 0.951 . S
C426 C425 1.340 . S
C426 C427 1.439 . S
C426 H466 0.950 . S
C427 C426 1.439 . S
C427 N428 1.374 . S
C427 C461 1.395 . S
N428 C424 1.376 1_655 S
N428 C427 1.374 . S
N428 Co429 2.008 1_655 S
Co429 N428 2.008 1_455 S
Co429 N430 1.995 1_455 S
Co429 N435 2.008 . S
Co429 N440 1.995 . S
Co429 N445 2.282 . S
Co429 N451 2.282 . S
N430 Co429 1.995 1_655 S
N430 C431 1.376 . S
N430 C434 1.383 . S
C431 N430 1.376 . S
C431 C432 1.446 . S
C431 C461 1.391 . S
C432 C431 1.446 . S
C432 C433 1.339 . S
C432 H467 0.949 . S
C433 C432 1.339 . S
C433 C434 1.439 . S
C433 H468 0.950 . S
C434 N430 1.383 . S
C434 C433 1.439 . S
C434 C463 1.392 . S
N435 Co429 2.008 . S
N435 C436 1.376 . S
N435 C439 1.374 . S
C436 N435 1.376 . S
C436 C437 1.443 . S
C436 C463 1.389 1_455 S
C437 C436 1.443 . S
C437 C438 1.340 . S
C437 H469 0.951 . S
C438 C437 1.340 . S
C438 C439 1.439 . S
C438 H470 0.950 . S
C439 N435 1.374 . S
C439 C438 1.439 . S
C439 C464 1.395 . S
N440 Co429 1.995 . S
N440 C441 1.376 . S
N440 C444 1.383 . S
C441 N440 1.376 . S
C441 C442 1.446 . S
C441 C464 1.391 . S
C442 C441 1.446 . S
C442 C443 1.339 . S
C442 H471 0.949 . S
C443 C442 1.339 . S
C443 C444 1.439 . S
C443 H472 0.950 . S
C444 N440 1.383 . S
C444 C443 1.439 . S
C444 C462 1.392 . S
N445 Co429 2.282 . S
N445 C448 1.332 . S
N445 C450 1.332 1_455 S
C446 C447 1.386 . S
C446 C449 1.388 1_455 S
C447 C446 1.386 . S
C447 C448 1.382 . S
C447 H473 0.950 . S
C448 N445 1.332 . S
C448 C447 1.382 . S
C448 H459 0.952 . S
C449 C446 1.388 1_655 S
C449 C450 1.382 . S
C449 H474 0.950 . S
C450 N445 1.332 1_655 S
C450 C449 1.382 . S
C450 H460 0.948 . S
N451 Co429 2.282 . S
N451 C455 1.332 1_455 S
N451 C456 1.332 . S
C452 C453 1.388 . S
C452 C456 1.382 . S
C452 H475 0.950 . S
C453 C452 1.388 . S
C453 C454 1.386 1_455 S
C454 C453 1.386 1_655 S
C454 C455 1.382 . S
C454 H476 0.950 . S
C455 N451 1.332 1_655 S
C455 C454 1.382 . S
C455 H457 0.952 . S
C456 N451 1.332 . S
C456 C452 1.382 . S
C456 H458 0.948 . S
H457 C455 0.952 . S
H458 C456 0.948 . S
H459 C448 0.952 . S
H460 C450 0.948 . S
C461 C427 1.395 . S
C461 C431 1.391 . S
C462 C424 1.389 . S
C462 C444 1.392 . S
C463 C434 1.392 . S
C463 C436 1.389 1_655 S
C464 C439 1.395 . S
C464 C441 1.391 . S
H465 C425 0.951 . S
H466 C426 0.950 . S
H467 C432 0.949 . S
H468 C433 0.950 . S
H469 C437 0.951 . S
H470 C438 0.950 . S
H471 C442 0.949 . S
H472 C443 0.950 . S
H473 C447 0.950 . S
H474 C449 0.950 . S
H475 C452 0.950 . S
H476 C454 0.950 . S
C477 C478 1.443 1_545 S
C477 N481 1.376 1_545 S
C477 C515 1.389 . S
C478 C477 1.443 1_565 S
C478 C479 1.340 . S
C478 H518 0.951 . S
C479 C478 1.340 . S
C479 C480 1.439 . S
C479 H519 0.950 . S
C480 C479 1.439 . S
C480 N481 1.374 . S
C480 C514 1.395 . S
N481 C477 1.376 1_565 S
N481 C480 1.374 . S
N481 Co482 2.008 1_565 S
Co482 N481 2.008 1_545 S
Co482 N483 1.995 1_545 S
Co482 N488 2.008 . S
Co482 N493 1.995 . S
Co482 N498 2.282 . S
Co482 N504 2.282 . S
N483 Co482 1.995 1_565 S
N483 C484 1.376 . S
N483 C487 1.383 . S
C484 N483 1.376 . S
C484 C485 1.446 . S
C484 C514 1.391 . S
C485 C484 1.446 . S
C485 C486 1.339 . S
C485 H520 0.949 . S
C486 C485 1.339 . S
C486 C487 1.439 . S
C486 H521 0.950 . S
C487 N483 1.383 . S
C487 C486 1.439 . S
C487 C516 1.392 . S
N488 Co482 2.008 . S
N488 C489 1.376 . S
N488 C492 1.374 . S
C489 N488 1.376 . S
C489 C490 1.443 . S
C489 C516 1.389 1_545 S
C490 C489 1.443 . S
C490 C491 1.340 . S
C490 H522 0.951 . S
C491 C490 1.340 . S
C491 C492 1.439 . S
C491 H523 0.950 . S
C492 N488 1.374 . S
C492 C491 1.439 . S
C492 C517 1.395 . S
N493 Co482 1.995 . S
N493 C494 1.376 . S
N493 C497 1.383 . S
C494 N493 1.376 . S
C494 C495 1.446 . S
C494 C517 1.391 . S
C495 C494 1.446 . S
C495 C496 1.339 . S
C495 H524 0.949 . S
C496 C495 1.339 . S
C496 C497 1.439 . S
C496 H525 0.950 . S
C497 N493 1.383 . S
C497 C496 1.439 . S
C497 C515 1.392 . S
N498 Co482 2.282 . S
N498 C501 1.332 . S
N498 C503 1.332 1_545 S
C499 C500 1.386 . S
C499 C502 1.388 1_545 S
C500 C499 1.386 . S
C500 C501 1.382 . S
C500 H526 0.950 . S
C501 N498 1.332 . S
C501 C500 1.382 . S
C501 H512 0.952 . S
C502 C499 1.388 1_565 S
C502 C503 1.382 . S
C502 H527 0.950 . S
C503 N498 1.332 1_565 S
C503 C502 1.382 . S
C503 H513 0.948 . S
N504 Co482 2.282 . S
N504 C508 1.332 1_545 S
N504 C509 1.332 . S
C505 C506 1.388 . S
C505 C509 1.382 . S
C505 H528 0.950 . S
C506 C505 1.388 . S
C506 C507 1.386 1_545 S
C507 C506 1.386 1_565 S
C507 C508 1.382 . S
C507 H529 0.950 . S
C508 N504 1.332 1_565 S
C508 C507 1.382 . S
C508 H510 0.952 . S
C509 N504 1.332 . S
C509 C505 1.382 . S
C509 H511 0.948 . S
H510 C508 0.952 . S
H511 C509 0.948 . S
H512 C501 0.952 . S
H513 C503 0.948 . S
C514 C480 1.395 . S
C514 C484 1.391 . S
C515 C477 1.389 . S
C515 C497 1.392 . S
C516 C487 1.392 . S
C516 C489 1.389 1_565 S
C517 C492 1.395 . S
C517 C494 1.391 . S
H518 C478 0.951 . S
H519 C479 0.950 . S
H520 C485 0.949 . S
H521 C486 0.950 . S
H522 C490 0.951 . S
H523 C491 0.950 . S
H524 C495 0.949 . S
H525 C496 0.950 . S
H526 C500 0.950 . S
H527 C502 0.950 . S
H528 C505 0.950 . S
H529 C507 0.950 . S
C530 C531 1.443 . S
C530 N534 1.376 . S
C530 C568 1.389 . S
C531 C530 1.443 . S
C531 C532 1.340 . S
C531 H571 0.951 . S
C532 C531 1.340 . S
C532 C533 1.439 . S
C532 H572 0.950 . S
C533 C532 1.439 . S
C533 N534 1.374 . S
C533 C567 1.395 . S
N534 C530 1.376 . S
N534 C533 1.374 . S
N534 Co535 2.008 . S
Co535 N534 2.008 . S
Co535 N536 1.995 . S
Co535 N541 2.008 . S
Co535 N546 1.995 . S
Co535 N551 2.282 . S
Co535 N557 2.282 . S
N536 Co535 1.995 . S
N536 C537 1.376 . S
N536 C540 1.383 . S
C537 N536 1.376 . S
C537 C538 1.446 . S
C537 C567 1.391 . S
C538 C537 1.446 . S
C538 C539 1.339 . S
C538 H573 0.949 . S
C539 C538 1.339 . S
C539 C540 1.439 . S
C539 H574 0.950 . S
C540 N536 1.383 . S
C540 C539 1.439 . S
C540 C569 1.392 . S
N541 Co535 2.008 . S
N541 C542 1.376 . S
N541 C545 1.374 . S
C542 N541 1.376 . S
C542 C543 1.443 . S
C542 C569 1.389 . S
C543 C542 1.443 . S
C543 C544 1.340 . S
C543 H575 0.951 . S
C544 C543 1.340 . S
C544 C545 1.439 . S
C544 H576 0.950 . S
C545 N541 1.374 . S
C545 C544 1.439 . S
C545 C570 1.395 . S
N546 Co535 1.995 . S
N546 C547 1.376 . S
N546 C550 1.383 . S
C547 N546 1.376 . S
C547 C548 1.446 . S
C547 C570 1.391 . S
C548 C547 1.446 . S
C548 C549 1.339 . S
C548 H577 0.949 . S
C549 C548 1.339 . S
C549 C550 1.439 . S
C549 H578 0.950 . S
C550 N546 1.383 . S
C550 C549 1.439 . S
C550 C568 1.392 . S
N551 Co535 2.282 . S
N551 C554 1.332 . S
N551 C556 1.332 . S
C552 C553 1.386 . S
C552 C555 1.388 . S
C553 C552 1.386 . S
C553 C554 1.382 . S
C553 H579 0.950 . S
C554 N551 1.332 . S
C554 C553 1.382 . S
C554 H565 0.952 . S
C555 C552 1.388 . S
C555 C556 1.382 . S
C555 H580 0.950 . S
C556 N551 1.332 . S
C556 C555 1.382 . S
C556 H566 0.948 . S
N557 Co535 2.282 . S
N557 C561 1.332 . S
N557 C562 1.332 . S
C558 C559 1.388 . S
C558 C562 1.382 . S
C558 H581 0.950 . S
C559 C558 1.388 . S
C559 C560 1.386 . S
C560 C559 1.386 . S
C560 C561 1.382 . S
C560 H582 0.950 . S
C561 N557 1.332 . S
C561 C560 1.382 . S
C561 H563 0.952 . S
C562 N557 1.332 . S
C562 C558 1.382 . S
C562 H564 0.948 . S
H563 C561 0.952 . S
H564 C562 0.948 . S
H565 C554 0.952 . S
H566 C556 0.948 . S
C567 C533 1.395 . S
C567 C537 1.391 . S
C568 C530 1.389 . S
C568 C550 1.392 . S
C569 C540 1.392 . S
C569 C542 1.389 . S
C570 C545 1.395 . S
C570 C547 1.391 . S
H571 C531 0.951 . S
H572 C532 0.950 . S
H573 C538 0.949 . S
H574 C539 0.950 . S
H575 C543 0.951 . S
H576 C544 0.950 . S
H577 C548 0.949 . S
H578 C549 0.950 . S
H579 C553 0.950 . S
H580 C555 0.950 . S
H581 C558 0.950 . S
H582 C560 0.950 . S
C583 C584 1.443 1_655 S
C583 N587 1.376 1_655 S
C583 C621 1.389 . S
C584 C583 1.443 1_455 S
C584 C585 1.340 . S
C584 H624 0.951 . S
C585 C584 1.340 . S
C585 C586 1.439 . S
C585 H625 0.950 . S
C586 C585 1.439 . S
C586 N587 1.374 . S
C586 C620 1.395 . S
N587 C583 1.376 1_455 S
N587 C586 1.374 . S
N587 Co588 2.008 1_455 S
Co588 N587 2.008 1_655 S
Co588 N589 1.995 1_655 S
Co588 N594 2.008 . S
Co588 N599 1.995 . S
Co588 N604 2.282 . S
Co588 N610 2.282 . S
N589 Co588 1.995 1_455 S
N589 C590 1.376 . S
N589 C593 1.383 . S
C590 N589 1.376 . S
C590 C591 1.446 . S
C590 C620 1.391 . S
C591 C590 1.446 . S
C591 C592 1.339 . S
C591 H626 0.949 . S
C592 C591 1.339 . S
C592 C593 1.439 . S
C592 H627 0.950 . S
C593 N589 1.383 . S
C593 C592 1.439 . S
C593 C622 1.392 . S
N594 Co588 2.008 . S
N594 C595 1.376 . S
N594 C598 1.374 . S
C595 N594 1.376 . S
C595 C596 1.443 . S
C595 C622 1.389 1_655 S
C596 C595 1.443 . S
C596 C597 1.340 . S
C596 H628 0.951 . S
C597 C596 1.340 . S
C597 C598 1.439 . S
C597 H629 0.950 . S
C598 N594 1.374 . S
C598 C597 1.439 . S
C598 C623 1.395 . S
N599 Co588 1.995 . S
N599 C600 1.376 . S
N599 C603 1.383 . S
C600 N599 1.376 . S
C600 C601 1.446 . S
C600 C623 1.391 . S
C601 C600 1.446 . S
C601 C602 1.339 . S
C601 H630 0.949 . S
C602 C601 1.339 . S
C602 C603 1.439 . S
C602 H631 0.950 . S
C603 N599 1.383 . S
C603 C602 1.439 . S
C603 C621 1.392 . S
N604 Co588 2.282 . S
N604 C607 1.332 . S
N604 C609 1.332 1_655 S
C605 C606 1.386 . S
C605 C608 1.388 1_655 S
C606 C605 1.386 . S
C606 C607 1.382 . S
C606 H632 0.950 . S
C607 N604 1.332 . S
C607 C606 1.382 . S
C607 H618 0.952 . S
C608 C605 1.388 1_455 S
C608 C609 1.382 . S
C608 H633 0.950 . S
C609 N604 1.332 1_455 S
C609 C608 1.382 . S
C609 H619 0.948 . S
N610 Co588 2.282 . S
N610 C614 1.332 1_655 S
N610 C615 1.332 . S
C611 C612 1.388 . S
C611 C615 1.382 . S
C611 H634 0.950 . S
C612 C611 1.388 . S
C612 C613 1.386 1_655 S
C613 C612 1.386 1_455 S
C613 C614 1.382 . S
C613 H635 0.950 . S
C614 N610 1.332 1_455 S
C614 C613 1.382 . S
C614 H616 0.952 . S
C615 N610 1.332 . S
C615 C611 1.382 . S
C615 H617 0.948 . S
H616 C614 0.952 . S
H617 C615 0.948 . S
H618 C607 0.952 . S
H619 C609 0.948 . S
C620 C586 1.395 . S
C620 C590 1.391 . S
C621 C583 1.389 . S
C621 C603 1.392 . S
C622 C593 1.392 . S
C622 C595 1.389 1_455 S
C623 C598 1.395 . S
C623 C600 1.391 . S
H624 C584 0.951 . S
H625 C585 0.950 . S
H626 C591 0.949 . S
H627 C592 0.950 . S
H628 C596 0.951 . S
H629 C597 0.950 . S
H630 C601 0.949 . S
H631 C602 0.950 . S
H632 C606 0.950 . S
H633 C608 0.950 . S
H634 C611 0.950 . S
H635 C613 0.950 . S
C636 C637 1.349 . S
C636 C638 1.327 . S
C636 H661 0.950 . S
C637 C636 1.349 . S
C637 C653 1.349 1_455 S
C638 C636 1.327 . S
C638 C657 1.429 . S
C638 H662 0.950 . S
C639 C656 1.574 . S
C639 C658 1.368 1_655 S
C639 H663 0.949 . S
H640 C644 0.949 . S
C641 C642 1.349 . S
C641 C643 1.327 . S
C641 H664 0.950 . S
C642 C641 1.349 . S
C642 C654 1.349 1_655 S
C643 C641 1.327 . S
C643 C659 1.429 . S
C643 H665 0.950 . S
C644 H640 0.949 . S
C644 C652 1.574 . S
C644 C660 1.368 1_455 S
H645 C653 0.950 . S
H646 C651 0.950 . S
H647 C652 0.949 . S
H648 C654 0.950 . S
H649 C655 0.950 . S
H650 C656 0.949 . S
C651 H646 0.950 . S
C651 C653 1.327 . S
C651 C657 1.429 1_655 S
C652 C644 1.574 . S
C652 H647 0.949 . S
C652 C658 1.368 . S
C653 C637 1.349 1_655 S
C653 H645 0.950 . S
C653 C651 1.327 . S
C654 C642 1.349 1_455 S
C654 H648 0.950 . S
C654 C655 1.327 . S
C655 H649 0.950 . S
C655 C654 1.327 . S
C655 C659 1.429 1_455 S
C656 C639 1.574 . S
C656 H650 0.949 . S
C656 C660 1.368 . S
C657 C638 1.429 . S
C657 C651 1.429 1_455 S
C657 C658 1.523 . S
C658 C639 1.368 1_455 S
C658 C652 1.368 . S
C658 C657 1.523 . S
C659 C643 1.429 . S
C659 C655 1.429 1_655 S
C659 C660 1.523 . S
C660 C644 1.368 1_655 S
C660 C656 1.368 . S
C660 C659 1.523 . S
H661 C636 0.950 . S
H662 C638 0.950 . S
H663 C639 0.949 . S
H664 C641 0.950 . S
H665 C643 0.950 . S
C666 C667 1.349 1_545 S
C666 C668 1.327 . S
C666 H691 0.950 . S
C667 C666 1.349 1_565 S
C667 C683 1.349 . S
C668 C666 1.327 . S
C668 C687 1.429 1_545 S
C668 H692 0.950 . S
C669 C686 1.574 . S
C669 C688 1.368 . S
C669 H693 0.949 . S
H670 C674 0.949 . S
C671 C672 1.349 1_565 S
C671 C673 1.327 . S
C671 H694 0.950 . S
C672 C671 1.349 1_545 S
C672 C684 1.349 . S
C673 C671 1.327 . S
C673 C689 1.429 1_565 S
C673 H695 0.950 . S
C674 H670 0.949 . S
C674 C682 1.574 . S
C674 C690 1.368 . S
H675 C683 0.950 . S
H676 C681 0.950 . S
H677 C682 0.949 . S
H678 C684 0.950 . S
H679 C685 0.950 . S
H680 C686 0.949 . S
C681 H676 0.950 . S
C681 C683 1.327 . S
C681 C687 1.429 . S
C682 C674 1.574 . S
C682 H677 0.949 . S
C682 C688 1.368 1_545 S
C683 C667 1.349 . S
C683 H675 0.950 . S
C683 C681 1.327 . S
C684 C672 1.349 . S
C684 H678 0.950 . S
C684 C685 1.327 . S
C685 H679 0.950 . S
C685 C684 1.327 . S
C685 C689 1.429 . S
C686 C669 1.574 . S
C686 H680 0.949 . S
C686 C690 1.368 1_565 S
C687 C668 1.429 1_565 S
C687 C681 1.429 . S
C687 C688 1.523 . S
C688 C669 1.368 . S
C688 C682 1.368 1_565 S
C688 C687 1.523 . S
C689 C673 1.429 1_545 S
C689 C685 1.429 . S
C689 C690 1.523 . S
C690 C674 1.368 . S
C690 C686 1.368 1_545 S
C690 C689 1.523 . S
H691 C666 0.950 . S
H692 C668 0.950 . S
H693 C669 0.949 . S
H694 C671 0.950 . S
H695 C673 0.950 . S
C696 C697 1.349 . S
C696 C698 1.327 . S
C696 H721 0.950 . S
C697 C696 1.349 . S
C697 C713 1.349 . S
C698 C696 1.327 . S
C698 C717 1.429 . S
C698 H722 0.950 . S
C699 C716 1.574 . S
C699 C718 1.368 . S
C699 H723 0.949 . S
H700 C704 0.949 . S
C701 C702 1.349 . S
C701 C703 1.327 . S
C701 H724 0.950 . S
C702 C701 1.349 . S
C702 C714 1.349 . S
C703 C701 1.327 . S
C703 C719 1.429 . S
C703 H725 0.950 . S
C704 H700 0.949 . S
C704 C712 1.574 . S
C704 C720 1.368 . S
H705 C713 0.950 . S
H706 C711 0.950 . S
H707 C712 0.949 . S
H708 C714 0.950 . S
H709 C715 0.950 . S
H710 C716 0.949 . S
C711 H706 0.950 . S
C711 C713 1.327 . S
C711 C717 1.429 . S
C712 C704 1.574 . S
C712 H707 0.949 . S
C712 C718 1.368 . S
C713 C697 1.349 . S
C713 H705 0.950 . S
C713 C711 1.327 . S
C714 C702 1.349 . S
C714 H708 0.950 . S
C714 C715 1.327 . S
C715 H709 0.950 . S
C715 C714 1.327 . S
C715 C719 1.429 . S
C716 C699 1.574 . S
C716 H710 0.949 . S
C716 C720 1.368 . S
C717 C698 1.429 . S
C717 C711 1.429 . S
C717 C718 1.523 . S
C718 C699 1.368 . S
C718 C712 1.368 . S
C718 C717 1.523 . S
C719 C703 1.429 . S
C719 C715 1.429 . S
C719 C720 1.523 . S
C720 C704 1.368 . S
C720 C716 1.368 . S
C720 C719 1.523 . S
H721 C696 0.950 . S
H722 C698 0.950 . S
H723 C699 0.949 . S
H724 C701 0.950 . S
H725 C703 0.950 . S
C726 C727 1.349 . S
C726 C728 1.327 . S
C726 H751 0.950 . S
C727 C726 1.349 . S
C727 C743 1.349 . S
C728 C726 1.327 . S
C728 C747 1.429 . S
C728 H752 0.947 1_455 S
C729 C746 1.574 . S
C729 C748 1.368 . S
C729 H753 0.949 . S
H730 C734 0.949 . S
C731 C732 1.349 . S
C731 C733 1.327 . S
C731 H754 0.950 . S
C732 C731 1.349 . S
C732 C744 1.349 . S
C733 C731 1.327 . S
C733 C749 1.429 . S
C733 H755 0.950 1_655 S
C734 H730 0.949 . S
C734 C742 1.574 . S
C734 C750 1.368 . S
H735 C743 0.950 . S
H736 C741 0.950 . S
H737 C742 0.949 . S
H738 C744 0.950 . S
H739 C745 0.950 . S
H740 C746 0.949 . S
C741 H736 0.950 . S
C741 C743 1.327 . S
C741 C747 1.429 . S
C742 C734 1.574 . S
C742 H737 0.949 . S
C742 C748 1.368 1_655 S
C743 C727 1.349 . S
C743 H735 0.950 . S
C743 C741 1.327 . S
C744 C732 1.349 . S
C744 H738 0.950 . S
C744 C745 1.327 . S
C745 H739 0.950 . S
C745 C744 1.327 . S
C745 C749 1.429 . S
C746 C729 1.574 . S
C746 H740 0.949 . S
C746 C750 1.368 1_455 S
C747 C728 1.429 . S
C747 C741 1.429 . S
C747 C748 1.523 . S
C748 C729 1.368 . S
C748 C742 1.368 1_455 S
C748 C747 1.523 . S
C749 C733 1.429 . S
C749 C745 1.429 . S
C749 C750 1.523 . S
C750 C734 1.368 . S
C750 C746 1.368 1_655 S
C750 C749 1.523 . S
H751 C726 0.950 . S
H752 C728 0.947 1_655 S
H753 C729 0.949 . S
H754 C731 0.950 . S
H755 C733 0.950 1_455 S
C756 C757 1.349 . S
C756 C758 1.327 . S
C756 H781 0.950 . S
C757 C756 1.349 . S
C757 C773 1.349 1_565 S
C758 C756 1.327 . S
C758 C777 1.429 . S
C758 H782 0.950 . S
C759 C776 1.574 . S
C759 C778 1.368 1_545 S
C759 H783 0.949 . S
H760 C764 0.949 . S
C761 C762 1.349 . S
C761 C763 1.327 . S
C761 H784 0.950 . S
C762 C761 1.349 . S
C762 C774 1.349 1_545 S
C763 C761 1.327 . S
C763 C779 1.429 . S
C763 H785 0.950 . S
C764 H760 0.949 . S
C764 C772 1.574 . S
C764 C780 1.368 1_565 S
H765 C773 0.950 . S
H766 C771 0.950 . S
H767 C772 0.949 . S
H768 C774 0.950 . S
H769 C775 0.950 . S
H770 C776 0.949 . S
C771 H766 0.950 . S
C771 C773 1.327 . S
C771 C777 1.429 1_545 S
C772 C764 1.574 . S
C772 H767 0.949 . S
C772 C778 1.368 . S
C773 C757 1.349 1_545 S
C773 H765 0.950 . S
C773 C771 1.327 . S
C774 C762 1.349 1_565 S
C774 H768 0.950 . S
C774 C775 1.327 . S
C775 H769 0.950 . S
C775 C774 1.327 . S
C775 C779 1.429 1_565 S
C776 C759 1.574 . S
C776 H770 0.949 . S
C776 C780 1.368 . S
C777 C758 1.429 . S
C777 C771 1.429 1_565 S
C777 C778 1.523 . S
C778 C759 1.368 1_565 S
C778 C772 1.368 . S
C778 C777 1.523 . S
C779 C763 1.429 . S
C779 C775 1.429 1_545 S
C779 C780 1.523 . S
C780 C764 1.368 1_545 S
C780 C776 1.368 . S
C780 C779 1.523 . S
H781 C756 0.950 . S
H782 C758 0.950 . S
H783 C759 0.949 . S
H784 C761 0.950 . S
H785 C763 0.950 . S
C786 C787 1.349 . S
C786 C788 1.327 . S
C786 H811 0.950 . S
C787 C786 1.349 . S
C787 C803 1.349 . S
C788 C786 1.327 . S
C788 C807 1.429 . S
C788 H812 0.950 . S
C789 C806 1.574 . S
C789 C808 1.368 . S
C789 H813 0.949 . S
H790 C794 0.949 . S
C791 C792 1.349 . S
C791 C793 1.327 . S
C791 H814 0.950 . S
C792 C791 1.349 . S
C792 C804 1.349 . S
C793 C791 1.327 . S
C793 C809 1.429 . S
C793 H815 0.950 . S
C794 H790 0.949 . S
C794 C802 1.574 . S
C794 C810 1.368 . S
H795 C803 0.950 . S
H796 C801 0.950 . S
H797 C802 0.949 . S
H798 C804 0.950 . S
H799 C805 0.950 . S
H800 C806 0.949 . S
C801 H796 0.950 . S
C801 C803 1.327 . S
C801 C807 1.429 . S
C802 C794 1.574 . S
C802 H797 0.949 . S
C802 C808 1.368 . S
C803 C787 1.349 . S
C803 H795 0.950 . S
C803 C801 1.327 . S
C804 C792 1.349 . S
C804 H798 0.950 . S
C804 C805 1.327 . S
C805 H799 0.950 . S
C805 C804 1.327 . S
C805 C809 1.429 . S
C806 C789 1.574 . S
C806 H800 0.949 . S
C806 C810 1.368 . S
C807 C788 1.429 . S
C807 C801 1.429 . S
C807 C808 1.523 . S
C808 C789 1.368 . S
C808 C802 1.368 . S
C808 C807 1.523 . S
C809 C793 1.429 . S
C809 C805 1.429 . S
C809 C810 1.523 . S
C810 C794 1.368 . S
C810 C806 1.368 . S
C810 C809 1.523 . S
H811 C786 0.950 . S
H812 C788 0.950 . S
H813 C789 0.949 . S
H814 C791 0.950 . S
H815 C793 0.950 . S
C816 C817 1.349 . S
C816 C818 1.327 . S
C816 H841 0.950 . S
C817 C816 1.349 . S
C817 C833 1.349 . S
C818 C816 1.327 . S
C818 C837 1.429 . S
C818 H842 0.950 . S
C819 C836 1.574 1_554 S
C819 C838 1.368 . S
C819 H843 0.949 . S
H820 C824 0.949 . S
C821 C822 1.349 . S
C821 C823 1.327 . S
C821 H844 0.950 . S
C822 C821 1.349 . S
C822 C834 1.349 . S
C823 C821 1.327 . S
C823 C839 1.429 . S
C823 H845 0.950 . S
C824 H820 0.949 . S
C824 C832 1.574 1_556 S
C824 C840 1.368 . S
H825 C833 0.950 . S
H826 C831 0.950 . S
H827 C832 0.949 . S
H828 C834 0.950 . S
H829 C835 0.950 . S
H830 C836 0.949 . S
C831 H826 0.950 . S
C831 C833 1.327 . S
C831 C837 1.429 . S
C832 C824 1.574 1_554 S
C832 H827 0.949 . S
C832 C838 1.368 . S
C833 C817 1.349 . S
C833 H825 0.950 . S
C833 C831 1.327 . S
C834 C822 1.349 . S
C834 H828 0.950 . S
C834 C835 1.327 . S
C835 H829 0.950 . S
C835 C834 1.327 . S
C835 C839 1.429 . S
C836 C819 1.574 1_556 S
C836 H830 0.949 . S
C836 C840 1.368 . S
C837 C818 1.429 . S
C837 C831 1.429 . S
C837 C838 1.523 . S
C838 C819 1.368 . S
C838 C832 1.368 . S
C838 C837 1.523 . S
C839 C823 1.429 . S
C839 C835 1.429 . S
C839 C840 1.523 . S
C840 C824 1.368 . S
C840 C836 1.368 . S
C840 C839 1.523 . S
H841 C816 0.950 . S
H842 C818 0.950 . S
H843 C819 0.949 . S
H844 C821 0.950 . S
H845 C823 0.950 . S
C846 C847 1.349 . S
C846 C848 1.327 . S
C846 H871 0.950 . S
C847 C846 1.349 . S
C847 C863 1.349 . S
C848 C846 1.327 . S
C848 C867 1.429 . S
C848 H872 0.950 . S
C849 C866 1.574 . S
C849 C868 1.368 . S
C849 H873 0.949 . S
H850 C854 0.949 . S
C851 C852 1.349 . S
C851 C853 1.327 . S
C851 H874 0.950 . S
C852 C851 1.349 . S
C852 C864 1.349 . S
C853 C851 1.327 . S
C853 C869 1.429 . S
C853 H875 0.950 . S
C854 H850 0.949 . S
C854 C862 1.574 . S
C854 C870 1.368 . S
H855 C863 0.950 . S
H856 C861 0.950 . S
H857 C862 0.949 . S
H858 C864 0.950 . S
H859 C865 0.950 . S
H860 C866 0.949 . S
C861 H856 0.950 . S
C861 C863 1.327 . S
C861 C867 1.429 . S
C862 C854 1.574 . S
C862 H857 0.949 . S
C862 C868 1.368 . S
C863 C847 1.349 . S
C863 H855 0.950 . S
C863 C861 1.327 . S
C864 C852 1.349 . S
C864 H858 0.950 . S
C864 C865 1.327 . S
C865 H859 0.950 . S
C865 C864 1.327 . S
C865 C869 1.429 . S
C866 C849 1.574 . S
C866 H860 0.949 . S
C866 C870 1.368 . S
C867 C848 1.429 . S
C867 C861 1.429 . S
C867 C868 1.523 . S
C868 C849 1.368 . S
C868 C862 1.368 . S
C868 C867 1.523 . S
C869 C853 1.429 . S
C869 C865 1.429 . S
C869 C870 1.523 . S
C870 C854 1.368 . S
C870 C866 1.368 . S
C870 C869 1.523 . S
H871 C846 0.950 . S
H872 C848 0.950 . S
H873 C849 0.949 . S
H874 C851 0.950 . S
H875 C853 0.950 . S
C876 C877 1.349 . S
C876 C878 1.327 . S
C876 H901 0.950 . S
C877 C876 1.349 . S
C877 C893 1.349 . S
C878 C876 1.327 . S
C878 C897 1.429 . S
C878 H902 0.950 . S
C879 C896 1.574 . S
C879 C898 1.368 . S
C879 H903 0.949 . S
H880 C884 0.949 . S
C881 C882 1.349 . S
C881 C883 1.327 . S
C881 H904 0.950 . S
C882 C881 1.349 . S
C882 C894 1.349 . S
C883 C881 1.327 . S
C883 C899 1.429 . S
C883 H905 0.950 . S
C884 H880 0.949 . S
C884 C892 1.574 . S
C884 C900 1.368 . S
H885 C893 0.950 . S
H886 C891 0.950 . S
H887 C892 0.949 . S
H888 C894 0.950 . S
H889 C895 0.950 . S
H890 C896 0.949 . S
C891 H886 0.950 . S
C891 C893 1.327 . S
C891 C897 1.429 . S
C892 C884 1.574 . S
C892 H887 0.949 . S
C892 C898 1.368 . S
C893 C877 1.349 . S
C893 H885 0.950 . S
C893 C891 1.327 . S
C894 C882 1.349 . S
C894 H888 0.950 . S
C894 C895 1.327 . S
C895 H889 0.950 . S
C895 C894 1.327 . S
C895 C899 1.429 . S
C896 C879 1.574 . S
C896 H890 0.949 . S
C896 C900 1.368 . S
C897 C878 1.429 . S
C897 C891 1.429 . S
C897 C898 1.523 . S
C898 C879 1.368 . S
C898 C892 1.368 . S
C898 C897 1.523 . S
C899 C883 1.429 . S
C899 C895 1.429 . S
C899 C900 1.523 . S
C900 C884 1.368 . S
C900 C896 1.368 . S
C900 C899 1.523 . S
H901 C876 0.950 . S
H902 C878 0.950 . S
H903 C879 0.949 . S
H904 C881 0.950 . S
H905 C883 0.950 . S
C906 C907 1.349 . S
C906 C908 1.327 . S
C906 H931 0.950 . S
C907 C906 1.349 . S
C907 C923 1.349 . S
C908 C906 1.327 . S
C908 C927 1.429 . S
C908 H932 0.950 . S
C909 C926 1.574 1_554 S
C909 C928 1.368 . S
C909 H933 0.949 . S
H910 C914 0.949 . S
C911 C912 1.349 . S
C911 C913 1.327 . S
C911 H934 0.950 . S
C912 C911 1.349 . S
C912 C924 1.349 . S
C913 C911 1.327 . S
C913 C929 1.429 . S
C913 H935 0.950 . S
C914 H910 0.949 . S
C914 C922 1.574 1_556 S
C914 C930 1.368 . S
H915 C923 0.950 . S
H916 C921 0.950 . S
H917 C922 0.949 . S
H918 C924 0.950 . S
H919 C925 0.950 . S
H920 C926 0.949 . S
C921 H916 0.950 . S
C921 C923 1.327 . S
C921 C927 1.429 . S
C922 C914 1.574 1_554 S
C922 H917 0.949 . S
C922 C928 1.368 . S
C923 C907 1.349 . S
C923 H915 0.950 . S
C923 C921 1.327 . S
C924 C912 1.349 . S
C924 H918 0.950 . S
C924 C925 1.327 . S
C925 H919 0.950 . S
C925 C924 1.327 . S
C925 C929 1.429 . S
C926 C909 1.574 1_556 S
C926 H920 0.949 . S
C926 C930 1.368 . S
C927 C908 1.429 . S
C927 C921 1.429 . S
C927 C928 1.523 . S
C928 C909 1.368 . S
C928 C922 1.368 . S
C928 C927 1.523 . S
C929 C913 1.429 . S
C929 C925 1.429 . S
C929 C930 1.523 . S
C930 C914 1.368 . S
C930 C926 1.368 . S
C930 C929 1.523 . S
H931 C906 0.950 . S
H932 C908 0.950 . S
H933 C909 0.949 . S
H934 C911 0.950 . S
H935 C913 0.950 . S
C936 C937 1.349 . S
C936 C938 1.327 . S
C936 H961 0.950 . S
C937 C936 1.349 . S
C937 C953 1.349 . S
C938 C936 1.327 . S
C938 C957 1.429 . S
C938 H962 0.950 . S
C939 C956 1.574 . S
C939 C958 1.368 . S
C939 H963 0.949 . S
H940 C944 0.949 . S
C941 C942 1.349 . S
C941 C943 1.327 . S
C941 H964 0.950 . S
C942 C941 1.349 . S
C942 C954 1.349 . S
C943 C941 1.327 . S
C943 C959 1.429 . S
C943 H965 0.950 . S
C944 H940 0.949 . S
C944 C952 1.574 . S
C944 C960 1.368 . S
H945 C953 0.950 . S
H946 C951 0.950 . S
H947 C952 0.949 . S
H948 C954 0.950 . S
H949 C955 0.950 . S
H950 C956 0.949 . S
C951 H946 0.950 . S
C951 C953 1.327 . S
C951 C957 1.429 . S
C952 C944 1.574 . S
C952 H947 0.949 . S
C952 C958 1.368 . S
C953 C937 1.349 . S
C953 H945 0.950 . S
C953 C951 1.327 . S
C954 C942 1.349 . S
C954 H948 0.950 . S
C954 C955 1.327 . S
C955 H949 0.950 . S
C955 C954 1.327 . S
C955 C959 1.429 . S
C956 C939 1.574 . S
C956 H950 0.949 . S
C956 C960 1.368 . S
C957 C938 1.429 . S
C957 C951 1.429 . S
C957 C958 1.523 . S
C958 C939 1.368 . S
C958 C952 1.368 . S
C958 C957 1.523 . S
C959 C943 1.429 . S
C959 C955 1.429 . S
C959 C960 1.523 . S
C960 C944 1.368 . S
C960 C956 1.368 . S
C960 C959 1.523 . S
H961 C936 0.950 . S
H962 C938 0.950 . S
H963 C939 0.949 . S
H964 C941 0.950 . S
H965 C943 0.950 . S
C966 C967 1.349 . S
C966 C968 1.327 . S
C966 H991 0.950 . S
C967 C966 1.349 . S
C967 C983 1.349 . S
C968 C966 1.327 . S
C968 C987 1.429 . S
C968 H992 0.950 . S
C969 C986 1.574 . S
C969 C988 1.368 . S
C969 H993 0.949 . S
H970 C974 0.949 . S
C971 C972 1.349 . S
C971 C973 1.327 . S
C971 H994 0.950 . S
C972 C971 1.349 . S
C972 C984 1.349 . S
C973 C971 1.327 . S
C973 C989 1.429 . S
C973 H995 0.950 . S
C974 H970 0.949 . S
C974 C982 1.574 . S
C974 C990 1.368 . S
H975 C983 0.950 . S
H976 C981 0.950 . S
H977 C982 0.949 . S
H978 C984 0.950 . S
H979 C985 0.950 . S
H980 C986 0.949 . S
C981 H976 0.950 . S
C981 C983 1.327 . S
C981 C987 1.429 . S
C982 C974 1.574 . S
C982 H977 0.949 . S
C982 C988 1.368 . S
C983 C967 1.349 . S
C983 H975 0.950 . S
C983 C981 1.327 . S
C984 C972 1.349 . S
C984 H978 0.950 . S
C984 C985 1.327 . S
C985 H979 0.950 . S
C985 C984 1.327 . S
C985 C989 1.429 . S
C986 C969 1.574 . S
C986 H980 0.949 . S
C986 C990 1.368 . S
C987 C968 1.429 . S
C987 C981 1.429 . S
C987 C988 1.523 . S
C988 C969 1.368 . S
C988 C982 1.368 . S
C988 C987 1.523 . S
C989 C973 1.429 . S
C989 C985 1.429 . S
C989 C990 1.523 . S
C990 C974 1.368 . S
C990 C986 1.368 . S
C990 C989 1.523 . S
H991 C966 0.950 . S
H992 C968 0.950 . S
H993 C969 0.949 . S
H994 C971 0.950 . S
H995 C973 0.950 . S
C996 C997 1.349 . S
C996 C998 1.327 . S
C996 H1021 0.950 . S
C997 C996 1.349 . S
C997 C1013 1.349 1_655 S
C998 C996 1.327 . S
C998 C1017 1.429 . S
C998 H1022 0.950 . S
C999 C1016 1.574 . S
C999 C1018 1.368 1_455 S
C999 H1023 0.949 . S
H1000 C1004 0.949 . S
C1001 C1002 1.349 . S
C1001 C1003 1.327 . S
C1001 H1024 0.950 . S
C1002 C1001 1.349 . S
C1002 C1014 1.349 1_455 S
C1003 C1001 1.327 . S
C1003 C1019 1.429 . S
C1003 H1025 0.950 . S
C1004 H1000 0.949 . S
C1004 C1012 1.574 . S
C1004 C1020 1.368 1_655 S
H1005 C1013 0.950 . S
H1006 C1011 0.950 . S
H1007 C1012 0.949 . S
H1008 C1014 0.950 . S
H1009 C1015 0.950 . S
H1010 C1016 0.949 . S
C1011 H1006 0.950 . S
C1011 C1013 1.327 . S
C1011 C1017 1.429 1_455 S
C1012 C1004 1.574 . S
C1012 H1007 0.949 . S
C1012 C1018 1.368 . S
C1013 C997 1.349 1_455 S
C1013 H1005 0.950 . S
C1013 C1011 1.327 . S
C1014 C1002 1.349 1_655 S
C1014 H1008 0.950 . S
C1014 C1015 1.327 . S
C1015 H1009 0.950 . S
C1015 C1014 1.327 . S
C1015 C1019 1.429 1_655 S
C1016 C999 1.574 . S
C1016 H1010 0.949 . S
C1016 C1020 1.368 . S
C1017 C998 1.429 . S
C1017 C1011 1.429 1_655 S
C1017 C1018 1.523 . S
C1018 C999 1.368 1_655 S
C1018 C1012 1.368 . S
C1018 C1017 1.523 . S
C1019 C1003 1.429 . S
C1019 C1015 1.429 1_455 S
C1019 C1020 1.523 . S
C1020 C1004 1.368 1_455 S
C1020 C1016 1.368 . S
C1020 C1019 1.523 . S
H1021 C996 0.950 . S
H1022 C998 0.950 . S
H1023 C999 0.949 . S
H1024 C1001 0.950 . S
H1025 C1003 0.950 . S
C1026 C1027 1.349 1_565 S
C1026 C1028 1.327 . S
C1026 H1051 0.950 . S
C1027 C1026 1.349 1_545 S
C1027 C1043 1.349 . S
C1028 C1026 1.327 . S
C1028 C1047 1.429 1_565 S
C1028 H1052 0.950 . S
C1029 C1046 1.574 . S
C1029 C1048 1.368 . S
C1029 H1053 0.949 . S
H1030 C1034 0.949 . S
C1031 C1032 1.349 1_545 S
C1031 C1033 1.327 . S
C1031 H1054 0.950 . S
C1032 C1031 1.349 1_565 S
C1032 C1044 1.349 . S
C1033 C1031 1.327 . S
C1033 C1049 1.429 1_545 S
C1033 H1055 0.950 . S
C1034 H1030 0.949 . S
C1034 C1042 1.574 . S
C1034 C1050 1.368 . S
H1035 C1043 0.950 . S
H1036 C1041 0.950 . S
H1037 C1042 0.949 . S
H1038 C1044 0.950 . S
H1039 C1045 0.950 . S
H1040 C1046 0.949 . S
C1041 H1036 0.950 . S
C1041 C1043 1.327 . S
C1041 C1047 1.429 . S
C1042 C1034 1.574 . S
C1042 H1037 0.949 . S
C1042 C1048 1.368 1_565 S
C1043 C1027 1.349 . S
C1043 H1035 0.950 . S
C1043 C1041 1.327 . S
C1044 C1032 1.349 . S
C1044 H1038 0.950 . S
C1044 C1045 1.327 . S
C1045 H1039 0.950 . S
C1045 C1044 1.327 . S
C1045 C1049 1.429 . S
C1046 C1029 1.574 . S
C1046 H1040 0.949 . S
C1046 C1050 1.368 1_545 S
C1047 C1028 1.429 1_545 S
C1047 C1041 1.429 . S
C1047 C1048 1.523 . S
C1048 C1029 1.368 . S
C1048 C1042 1.368 1_545 S
C1048 C1047 1.523 . S
C1049 C1033 1.429 1_565 S
C1049 C1045 1.429 . S
C1049 C1050 1.523 . S
C1050 C1034 1.368 . S
C1050 C1046 1.368 1_565 S
C1050 C1049 1.523 . S
H1051 C1026 0.950 . S
H1052 C1028 0.950 . S
H1053 C1029 0.949 . S
H1054 C1031 0.950 . S
H1055 C1033 0.950 . S
C1056 C1057 1.349 . S
C1056 C1058 1.327 . S
C1056 H1081 0.950 . S
C1057 C1056 1.349 . S
C1057 C1073 1.349 . S
C1058 C1056 1.327 . S
C1058 C1077 1.429 . S
C1058 H1082 0.950 . S
C1059 C1076 1.574 . S
C1059 C1078 1.368 . S
C1059 H1083 0.949 . S
H1060 C1064 0.949 . S
C1061 C1062 1.349 . S
C1061 C1063 1.327 . S
C1061 H1084 0.950 . S
C1062 C1061 1.349 . S
C1062 C1074 1.349 . S
C1063 C1061 1.327 . S
C1063 C1079 1.429 . S
C1063 H1085 0.950 . S
C1064 H1060 0.949 . S
C1064 C1072 1.574 . S
C1064 C1080 1.368 . S
H1065 C1073 0.950 . S
H1066 C1071 0.950 . S
H1067 C1072 0.949 . S
H1068 C1074 0.950 . S
H1069 C1075 0.950 . S
H1070 C1076 0.949 . S
C1071 H1066 0.950 . S
C1071 C1073 1.327 . S
C1071 C1077 1.429 . S
C1072 C1064 1.574 . S
C1072 H1067 0.949 . S
C1072 C1078 1.368 . S
C1073 C1057 1.349 . S
C1073 H1065 0.950 . S
C1073 C1071 1.327 . S
C1074 C1062 1.349 . S
C1074 H1068 0.950 . S
C1074 C1075 1.327 . S
C1075 H1069 0.950 . S
C1075 C1074 1.327 . S
C1075 C1079 1.429 . S
C1076 C1059 1.574 . S
C1076 H1070 0.949 . S
C1076 C1080 1.368 . S
C1077 C1058 1.429 . S
C1077 C1071 1.429 . S
C1077 C1078 1.523 . S
C1078 C1059 1.368 . S
C1078 C1072 1.368 . S
C1078 C1077 1.523 . S
C1079 C1063 1.429 . S
C1079 C1075 1.429 . S
C1079 C1080 1.523 . S
C1080 C1064 1.368 . S
C1080 C1076 1.368 . S
C1080 C1079 1.523 . S
H1081 C1056 0.950 . S
H1082 C1058 0.950 . S
H1083 C1059 0.949 . S
H1084 C1061 0.950 . S
H1085 C1063 0.950 . S
C1086 C1087 1.349 1_565 S
C1086 C1088 1.327 . S
C1086 H1111 0.950 . S
C1087 C1086 1.349 1_545 S
C1087 C1103 1.349 . S
C1088 C1086 1.327 . S
C1088 C1107 1.429 1_565 S
C1088 H1112 0.950 . S
C1089 C1106 1.574 . S
C1089 C1108 1.368 . S
C1089 H1113 0.949 . S
H1090 C1094 0.949 . S
C1091 C1092 1.349 1_545 S
C1091 C1093 1.327 . S
C1091 H1114 0.950 . S
C1092 C1091 1.349 1_565 S
C1092 C1104 1.349 . S
C1093 C1091 1.327 . S
C1093 C1109 1.429 1_545 S
C1093 H1115 0.950 . S
C1094 H1090 0.949 . S
C1094 C1102 1.574 . S
C1094 C1110 1.368 . S
H1095 C1103 0.950 . S
H1096 C1101 0.950 . S
H1097 C1102 0.949 . S
H1098 C1104 0.950 . S
H1099 C1105 0.950 . S
H1100 C1106 0.949 . S
C1101 H1096 0.950 . S
C1101 C1103 1.327 . S
C1101 C1107 1.429 . S
C1102 C1094 1.574 . S
C1102 H1097 0.949 . S
C1102 C1108 1.368 1_565 S
C1103 C1087 1.349 . S
C1103 H1095 0.950 . S
C1103 C1101 1.327 . S
C1104 C1092 1.349 . S
C1104 H1098 0.950 . S
C1104 C1105 1.327 . S
C1105 H1099 0.950 . S
C1105 C1104 1.327 . S
C1105 C1109 1.429 . S
C1106 C1089 1.574 . S
C1106 H1100 0.949 . S
C1106 C1110 1.368 1_545 S
C1107 C1088 1.429 1_545 S
C1107 C1101 1.429 . S
C1107 C1108 1.523 . S
C1108 C1089 1.368 . S
C1108 C1102 1.368 1_545 S
C1108 C1107 1.523 . S
C1109 C1093 1.429 1_565 S
C1109 C1105 1.429 . S
C1109 C1110 1.523 . S
C1110 C1094 1.368 . S
C1110 C1106 1.368 1_565 S
C1110 C1109 1.523 . S
H1111 C1086 0.950 . S
H1112 C1088 0.950 . S
H1113 C1089 0.949 . S
H1114 C1091 0.950 . S
H1115 C1093 0.950 . S
C1116 C1117 1.349 . S
C1116 C1118 1.327 . S
C1116 H1141 0.950 . S
C1117 C1116 1.349 . S
C1117 C1133 1.349 . S
C1118 C1116 1.327 . S
C1118 C1137 1.429 . S
C1118 H1142 0.950 . S
C1119 C1136 1.574 . S
C1119 C1138 1.368 . S
C1119 H1143 0.949 . S
H1120 C1124 0.949 . S
C1121 C1122 1.349 . S
C1121 C1123 1.327 . S
C1121 H1144 0.950 . S
C1122 C1121 1.349 . S
C1122 C1134 1.349 . S
C1123 C1121 1.327 . S
C1123 C1139 1.429 . S
C1123 H1145 0.950 . S
C1124 H1120 0.949 . S
C1124 C1132 1.574 . S
C1124 C1140 1.368 . S
H1125 C1133 0.950 . S
H1126 C1131 0.950 . S
H1127 C1132 0.949 . S
H1128 C1134 0.950 . S
H1129 C1135 0.950 . S
H1130 C1136 0.949 . S
C1131 H1126 0.950 . S
C1131 C1133 1.327 . S
C1131 C1137 1.429 . S
C1132 C1124 1.574 . S
C1132 H1127 0.949 . S
C1132 C1138 1.368 . S
C1133 C1117 1.349 . S
C1133 H1125 0.950 . S
C1133 C1131 1.327 . S
C1134 C1122 1.349 . S
C1134 H1128 0.950 . S
C1134 C1135 1.327 . S
C1135 H1129 0.950 . S
C1135 C1134 1.327 . S
C1135 C1139 1.429 . S
C1136 C1119 1.574 . S
C1136 H1130 0.949 . S
C1136 C1140 1.368 . S
C1137 C1118 1.429 . S
C1137 C1131 1.429 . S
C1137 C1138 1.523 . S
C1138 C1119 1.368 . S
C1138 C1132 1.368 . S
C1138 C1137 1.523 . S
C1139 C1123 1.429 . S
C1139 C1135 1.429 . S
C1139 C1140 1.523 . S
C1140 C1124 1.368 . S
C1140 C1136 1.368 . S
C1140 C1139 1.523 . S
H1141 C1116 0.950 . S
H1142 C1118 0.950 . S
H1143 C1119 0.949 . S
H1144 C1121 0.950 . S
H1145 C1123 0.950 . S
C1146 C1147 1.349 1_655 S
C1146 C1148 1.327 . S
C1146 H1171 0.950 . S
C1147 C1146 1.349 1_455 S
C1147 C1163 1.349 . S
C1148 C1146 1.327 . S
C1148 C1167 1.429 1_655 S
C1148 H1172 0.950 . S
C1149 C1166 1.574 . S
C1149 C1168 1.368 . S
C1149 H1173 0.949 . S
H1150 C1154 0.949 . S
C1151 C1152 1.349 1_455 S
C1151 C1153 1.327 . S
C1151 H1174 0.950 . S
C1152 C1151 1.349 1_655 S
C1152 C1164 1.349 . S
C1153 C1151 1.327 . S
C1153 C1169 1.429 1_455 S
C1153 H1175 0.950 . S
C1154 H1150 0.949 . S
C1154 C1162 1.574 . S
C1154 C1170 1.368 . S
H1155 C1163 0.950 . S
H1156 C1161 0.950 . S
H1157 C1162 0.949 . S
H1158 C1164 0.950 . S
H1159 C1165 0.950 . S
H1160 C1166 0.949 . S
C1161 H1156 0.950 . S
C1161 C1163 1.327 . S
C1161 C1167 1.429 . S
C1162 C1154 1.574 . S
C1162 H1157 0.949 . S
C1162 C1168 1.368 1_655 S
C1163 C1147 1.349 . S
C1163 H1155 0.950 . S
C1163 C1161 1.327 . S
C1164 C1152 1.349 . S
C1164 H1158 0.950 . S
C1164 C1165 1.327 . S
C1165 H1159 0.950 . S
C1165 C1164 1.327 . S
C1165 C1169 1.429 . S
C1166 C1149 1.574 . S
C1166 H1160 0.949 . S
C1166 C1170 1.368 1_455 S
C1167 C1148 1.429 1_455 S
C1167 C1161 1.429 . S
C1167 C1168 1.523 . S
C1168 C1149 1.368 . S
C1168 C1162 1.368 1_455 S
C1168 C1167 1.523 . S
C1169 C1153 1.429 1_655 S
C1169 C1165 1.429 . S
C1169 C1170 1.523 . S
C1170 C1154 1.368 . S
C1170 C1166 1.368 1_655 S
C1170 C1169 1.523 . S
H1171 C1146 0.950 . S
H1172 C1148 0.950 . S
H1173 C1149 0.949 . S
H1174 C1151 0.950 . S
H1175 C1153 0.950 . S
C1176 C1177 1.349 . S
C1176 C1178 1.327 . S
C1176 H1201 0.950 . S
C1177 C1176 1.349 . S
C1177 C1193 1.349 1_455 S
C1178 C1176 1.327 . S
C1178 C1197 1.429 . S
C1178 H1202 0.950 . S
C1179 C1196 1.574 1_545 S
C1179 C1198 1.368 1_655 S
C1179 H1203 0.949 . S
H1180 C1184 0.949 . S
C1181 C1182 1.349 . S
C1181 C1183 1.327 . S
C1181 H1204 0.950 . S
C1182 C1181 1.349 . S
C1182 C1194 1.349 1_655 S
C1183 C1181 1.327 . S
C1183 C1199 1.429 . S
C1183 H1205 0.950 . S
C1184 H1180 0.949 . S
C1184 C1192 1.574 1_565 S
C1184 C1200 1.368 1_455 S
H1185 C1193 0.950 . S
H1186 C1191 0.950 . S
H1187 C1192 0.949 . S
H1188 C1194 0.950 . S
H1189 C1195 0.950 . S
H1190 C1196 0.949 . S
C1191 H1186 0.950 . S
C1191 C1193 1.327 . S
C1191 C1197 1.429 1_655 S
C1192 C1184 1.574 1_545 S
C1192 H1187 0.949 . S
C1192 C1198 1.368 . S
C1193 C1177 1.349 1_655 S
C1193 H1185 0.950 . S
C1193 C1191 1.327 . S
C1194 C1182 1.349 1_455 S
C1194 H1188 0.950 . S
C1194 C1195 1.327 . S
C1195 H1189 0.950 . S
C1195 C1194 1.327 . S
C1195 C1199 1.429 1_455 S
C1196 C1179 1.574 1_565 S
C1196 H1190 0.949 . S
C1196 C1200 1.368 . S
C1197 C1178 1.429 . S
C1197 C1191 1.429 1_455 S
C1197 C1198 1.523 . S
C1198 C1179 1.368 1_455 S
C1198 C1192 1.368 . S
C1198 C1197 1.523 . S
C1199 C1183 1.429 . S
C1199 C1195 1.429 1_655 S
C1199 C1200 1.523 . S
C1200 C1184 1.368 1_655 S
C1200 C1196 1.368 . S
C1200 C1199 1.523 . S
H1201 C1176 0.950 . S
H1202 C1178 0.950 . S
H1203 C1179 0.949 . S
H1204 C1181 0.950 . S
H1205 C1183 0.950 . S
C1206 C1207 1.349 1_565 S
C1206 C1208 1.327 . S
C1206 H1231 0.950 . S
C1207 C1206 1.349 1_545 S
C1207 C1223 1.349 . S
C1208 C1206 1.327 . S
C1208 C1227 1.429 1_565 S
C1208 H1232 0.950 . S
C1209 C1226 1.574 1_655 S
C1209 C1228 1.368 . S
C1209 H1233 0.949 . S
H1210 C1214 0.949 . S
C1211 C1212 1.349 1_545 S
C1211 C1213 1.327 . S
C1211 H1234 0.950 . S
C1212 C1211 1.349 1_565 S
C1212 C1224 1.349 . S
C1213 C1211 1.327 . S
C1213 C1229 1.429 1_545 S
C1213 H1235 0.950 . S
C1214 H1210 0.949 . S
C1214 C1222 1.574 1_455 S
C1214 C1230 1.368 . S
H1215 C1223 0.950 . S
H1216 C1221 0.950 . S
H1217 C1222 0.949 . S
H1218 C1224 0.950 . S
H1219 C1225 0.950 . S
H1220 C1226 0.949 . S
C1221 H1216 0.950 . S
C1221 C1223 1.327 . S
C1221 C1227 1.429 . S
C1222 C1214 1.574 1_655 S
C1222 H1217 0.949 . S
C1222 C1228 1.368 1_565 S
C1223 C1207 1.349 . S
C1223 H1215 0.950 . S
C1223 C1221 1.327 . S
C1224 C1212 1.349 . S
C1224 H1218 0.950 . S
C1224 C1225 1.327 . S
C1225 H1219 0.950 . S
C1225 C1224 1.327 . S
C1225 C1229 1.429 . S
C1226 C1209 1.574 1_455 S
C1226 H1220 0.949 . S
C1226 C1230 1.368 1_545 S
C1227 C1208 1.429 1_545 S
C1227 C1221 1.429 . S
C1227 C1228 1.523 . S
C1228 C1209 1.368 . S
C1228 C1222 1.368 1_545 S
C1228 C1227 1.523 . S
C1229 C1213 1.429 1_565 S
C1229 C1225 1.429 . S
C1229 C1230 1.523 . S
C1230 C1214 1.368 . S
C1230 C1226 1.368 1_565 S
C1230 C1229 1.523 . S
H1231 C1206 0.950 . S
H1232 C1208 0.950 . S
H1233 C1209 0.949 . S
H1234 C1211 0.950 . S
H1235 C1213 0.950 . S
C1236 C1237 1.349 . S
C1236 C1238 1.327 . S
C1236 H1261 0.950 . S
C1237 C1236 1.349 . S
C1237 C1253 1.349 . S
C1238 C1236 1.327 . S
C1238 C1257 1.429 . S
C1238 H1262 0.950 . S
C1239 C1256 1.574 1_445 S
C1239 C1258 1.368 . S
C1239 H1263 0.949 . S
H1240 C1244 0.949 . S
C1241 C1242 1.349 . S
C1241 C1243 1.327 . S
C1241 H1264 0.950 . S
C1242 C1241 1.349 . S
C1242 C1254 1.349 . S
C1243 C1241 1.327 . S
C1243 C1259 1.429 . S
C1243 H1265 0.950 . S
C1244 H1240 0.949 . S
C1244 C1252 1.574 1_665 S
C1244 C1260 1.368 . S
H1245 C1253 0.950 . S
H1246 C1251 0.950 . S
H1247 C1252 0.949 . S
H1248 C1254 0.950 . S
H1249 C1255 0.950 . S
H1250 C1256 0.949 . S
C1251 H1246 0.950 . S
C1251 C1253 1.327 . S
C1251 C1257 1.429 . S
C1252 C1244 1.574 1_445 S
C1252 H1247 0.949 . S
C1252 C1258 1.368 . S
C1253 C1237 1.349 . S
C1253 H1245 0.950 . S
C1253 C1251 1.327 . S
C1254 C1242 1.349 . S
C1254 H1248 0.950 . S
C1254 C1255 1.327 . S
C1255 H1249 0.950 . S
C1255 C1254 1.327 . S
C1255 C1259 1.429 . S
C1256 C1239 1.574 1_665 S
C1256 H1250 0.949 . S
C1256 C1260 1.368 . S
C1257 C1238 1.429 . S
C1257 C1251 1.429 . S
C1257 C1258 1.523 . S
C1258 C1239 1.368 . S
C1258 C1252 1.368 . S
C1258 C1257 1.523 . S
C1259 C1243 1.429 . S
C1259 C1255 1.429 . S
C1259 C1260 1.523 . S
C1260 C1244 1.368 . S
C1260 C1256 1.368 . S
C1260 C1259 1.523 . S
H1261 C1236 0.950 . S
H1262 C1238 0.950 . S
H1263 C1239 0.949 . S
H1264 C1241 0.950 . S
H1265 C1243 0.950 . S
C1266 C1267 1.349 . S
C1266 C1268 1.327 . S
C1266 H1291 0.950 . S
C1267 C1266 1.349 . S
C1267 C1283 1.349 1_565 S
C1268 C1266 1.327 . S
C1268 C1287 1.429 . S
C1268 H1292 0.950 . S
C1269 C1286 1.574 1_655 S
C1269 C1288 1.368 1_545 S
C1269 H1293 0.949 . S
H1270 C1274 0.949 . S
C1271 C1272 1.349 . S
C1271 C1273 1.327 . S
C1271 H1294 0.950 . S
C1272 C1271 1.349 . S
C1272 C1284 1.349 1_545 S
C1273 C1271 1.327 . S
C1273 C1289 1.429 . S
C1273 H1295 0.950 . S
C1274 H1270 0.949 . S
C1274 C1282 1.574 1_455 S
C1274 C1290 1.368 1_565 S
H1275 C1283 0.950 . S
H1276 C1281 0.950 . S
H1277 C1282 0.949 . S
H1278 C1284 0.950 . S
H1279 C1285 0.950 . S
H1280 C1286 0.949 . S
C1281 H1276 0.950 . S
C1281 C1283 1.327 . S
C1281 C1287 1.429 1_545 S
C1282 C1274 1.574 1_655 S
C1282 H1277 0.949 . S
C1282 C1288 1.368 . S
C1283 C1267 1.349 1_545 S
C1283 H1275 0.950 . S
C1283 C1281 1.327 . S
C1284 C1272 1.349 1_565 S
C1284 H1278 0.950 . S
C1284 C1285 1.327 . S
C1285 H1279 0.950 . S
C1285 C1284 1.327 . S
C1285 C1289 1.429 1_565 S
C1286 C1269 1.574 1_455 S
C1286 H1280 0.949 . S
C1286 C1290 1.368 . S
C1287 C1268 1.429 . S
C1287 C1281 1.429 1_565 S
C1287 C1288 1.523 . S
C1288 C1269 1.368 1_565 S
C1288 C1282 1.368 . S
C1288 C1287 1.523 . S
C1289 C1273 1.429 . S
C1289 C1285 1.429 1_545 S
C1289 C1290 1.523 . S
C1290 C1274 1.368 1_545 S
C1290 C1286 1.368 . S
C1290 C1289 1.523 . S
H1291 C1266 0.950 . S
H1292 C1268 0.950 . S
H1293 C1269 0.949 . S
H1294 C1271 0.950 . S
H1295 C1273 0.950 . S
C1296 C1297 1.349 . S
C1296 C1298 1.327 . S
C1296 H1321 0.950 . S
C1297 C1296 1.349 . S
C1297 C1313 1.349 . S
C1298 C1296 1.327 . S
C1298 C1317 1.429 . S
C1298 H1322 0.950 . S
C1299 C1316 1.574 1_665 S
C1299 C1318 1.368 . S
C1299 H1323 0.949 . S
H1300 C1304 0.949 . S
C1301 C1302 1.349 . S
C1301 C1303 1.327 . S
C1301 H1324 0.950 . S
C1302 C1301 1.349 . S
C1302 C1314 1.349 . S
C1303 C1301 1.327 . S
C1303 C1319 1.429 . S
C1303 H1325 0.950 . S
C1304 H1300 0.949 . S
C1304 C1312 1.574 1_445 S
C1304 C1320 1.368 . S
H1305 C1313 0.950 . S
H1306 C1311 0.950 . S
H1307 C1312 0.949 . S
H1308 C1314 0.950 . S
H1309 C1315 0.950 . S
H1310 C1316 0.949 . S
C1311 H1306 0.950 . S
C1311 C1313 1.327 . S
C1311 C1317 1.429 . S
C1312 C1304 1.574 1_665 S
C1312 H1307 0.949 . S
C1312 C1318 1.368 . S
C1313 C1297 1.349 . S
C1313 H1305 0.950 . S
C1313 C1311 1.327 . S
C1314 C1302 1.349 . S
C1314 H1308 0.950 . S
C1314 C1315 1.327 . S
C1315 H1309 0.950 . S
C1315 C1314 1.327 . S
C1315 C1319 1.429 . S
C1316 C1299 1.574 1_445 S
C1316 H1310 0.949 . S
C1316 C1320 1.368 . S
C1317 C1298 1.429 . S
C1317 C1311 1.429 . S
C1317 C1318 1.523 . S
C1318 C1299 1.368 . S
C1318 C1312 1.368 . S
C1318 C1317 1.523 . S
C1319 C1303 1.429 . S
C1319 C1315 1.429 . S
C1319 C1320 1.523 . S
C1320 C1304 1.368 . S
C1320 C1316 1.368 . S
C1320 C1319 1.523 . S
H1321 C1296 0.950 . S
H1322 C1298 0.950 . S
H1323 C1299 0.949 . S
H1324 C1301 0.950 . S
H1325 C1303 0.950 . S
C1326 C1327 1.349 1_655 S
C1326 C1328 1.327 . S
C1326 H1351 0.950 . S
C1327 C1326 1.349 1_455 S
C1327 C1343 1.349 . S
C1328 C1326 1.327 . S
C1328 C1347 1.429 1_655 S
C1328 H1352 0.950 . S
C1329 C1346 1.574 1_565 S
C1329 C1348 1.368 . S
C1329 H1353 0.949 . S
H1330 C1334 0.949 . S
C1331 C1332 1.349 1_455 S
C1331 C1333 1.327 . S
C1331 H1354 0.950 . S
C1332 C1331 1.349 1_655 S
C1332 C1344 1.349 . S
C1333 C1331 1.327 . S
C1333 C1349 1.429 1_455 S
C1333 H1355 0.950 . S
C1334 H1330 0.949 . S
C1334 C1342 1.574 1_545 S
C1334 C1350 1.368 . S
H1335 C1343 0.950 . S
H1336 C1341 0.950 . S
H1337 C1342 0.949 . S
H1338 C1344 0.950 . S
H1339 C1345 0.950 . S
H1340 C1346 0.949 . S
C1341 H1336 0.950 . S
C1341 C1343 1.327 . S
C1341 C1347 1.429 . S
C1342 C1334 1.574 1_565 S
C1342 H1337 0.949 . S
C1342 C1348 1.368 1_655 S
C1343 C1327 1.349 . S
C1343 H1335 0.950 . S
C1343 C1341 1.327 . S
C1344 C1332 1.349 . S
C1344 H1338 0.950 . S
C1344 C1345 1.327 . S
C1345 H1339 0.950 . S
C1345 C1344 1.327 . S
C1345 C1349 1.429 . S
C1346 C1329 1.574 1_545 S
C1346 H1340 0.949 . S
C1346 C1350 1.368 1_455 S
C1347 C1328 1.429 1_455 S
C1347 C1341 1.429 . S
C1347 C1348 1.523 . S
C1348 C1329 1.368 . S
C1348 C1342 1.368 1_455 S
C1348 C1347 1.523 . S
C1349 C1333 1.429 1_655 S
C1349 C1345 1.429 . S
C1349 C1350 1.523 . S
C1350 C1334 1.368 . S
C1350 C1346 1.368 1_655 S
C1350 C1349 1.523 . S
H1351 C1326 0.950 . S
H1352 C1328 0.950 . S
H1353 C1329 0.949 . S
H1354 C1331 0.950 . S
H1355 C1333 0.950 . S
C637 C622 1.858 . S
C642 C39 1.858 . S
C667 C92 1.858 . S
C672 C357 1.858 . S
C697 C145 1.858 . S
C702 C410 1.858 . S
C727 C198 1.858 . S
C732 C463 1.858 . S
C757 C516 1.858 . S
C762 C251 1.858 . S
C787 C304 1.858 . S
C792 C569 1.858 . S
C817 C38 1.853 . S
C822 C568 1.853 . S
C847 C91 1.853 . S
C852 C621 1.853 . S
C877 C144 1.853 . S
C882 C356 1.853 . S
C907 C197 1.853 . S
C912 C409 1.853 . S
C937 C462 1.854 . S
C942 C250 1.854 . S
C967 C515 1.853 . S
C972 C303 1.853 . S
C997 C181 1.537 . S
C1002 C22 1.537 . S
C1027 C75 1.537 . S
C1032 C234 1.537 . S
C1057 C287 1.537 . S
C1062 C128 1.537 . S
C1087 C499 1.537 . S
C1092 C340 1.537 . S
C1117 C552 1.537 . S
C1122 C393 1.537 . S
C1147 C446 1.537 . S
C1152 C605 1.537 . S
C1177 C29 1.586 . S
C1182 C188 1.586 . S
C1207 C82 1.586 . S
C1212 C241 1.586 . S
C1237 C294 1.586 . S
C1242 C135 1.586 . S
C1267 C347 1.586 . S
C1272 C506 1.586 . S
C1297 C400 1.586 . S
C1302 C559 1.586 . S
C1327 C453 1.586 . S
C1332 C612 1.586 . S
