# Generated by pormake.
# Topology sgn, (3)-cn, num edge types: 1
# Building blocks:
#     Node 0, Type 0, BuildingBlock: OLANEW_clean_sbu_2, # of connection points: 3
#     Node 1, Type 0, BuildingBlock: OLANEW_clean_sbu_2, # of connection points: 3
#     Node 2, Type 0, BuildingBlock: OLANEW_clean_sbu_2, # of connection points: 3
#     Node 3, Type 0, BuildingBlock: OLANEW_clean_sbu_2, # of connection points: 3
#     Node 4, Type 0, BuildingBlock: OLANEW_clean_sbu_2, # of connection points: 3
#     Node 5, Type 0, BuildingBlock: OLANEW_clean_sbu_2, # of connection points: 3
#     Node 6, Type 0, BuildingBlock: OLANEW_clean_sbu_2, # of connection points: 3
#     Node 7, Type 0, BuildingBlock: OLANEW_clean_sbu_2, # of connection points: 3
#     Node 8, Type 0, BuildingBlock: OLANEW_clean_sbu_2, # of connection points: 3
#     Node 9, Type 0, BuildingBlock: OLANEW_clean_sbu_2, # of connection points: 3
#     Node 10, Type 0, BuildingBlock: OLANEW_clean_sbu_2, # of connection points: 3
#     Node 11, Type 0, BuildingBlock: OLANEW_clean_sbu_2, # of connection points: 3
#     Node 12, Type 0, BuildingBlock: OLANEW_clean_sbu_2, # of connection points: 3
#     Node 13, Type 0, BuildingBlock: OLANEW_clean_sbu_2, # of connection points: 3
#     Node 14, Type 0, BuildingBlock: OLANEW_clean_sbu_2, # of connection points: 3
#     Node 15, Type 0, BuildingBlock: OLANEW_clean_sbu_2, # of connection points: 3
#     Node 16, Type 0, BuildingBlock: OLANEW_clean_sbu_2, # of connection points: 3
#     Node 17, Type 0, BuildingBlock: OLANEW_clean_sbu_2, # of connection points: 3
#     Node 18, Type 0, BuildingBlock: OLANEW_clean_sbu_2, # of connection points: 3
#     Node 19, Type 0, BuildingBlock: OLANEW_clean_sbu_2, # of connection points: 3
#     Node 20, Type 0, BuildingBlock: OLANEW_clean_sbu_2, # of connection points: 3
#     Node 21, Type 0, BuildingBlock: OLANEW_clean_sbu_2, # of connection points: 3
#     Node 22, Type 0, BuildingBlock: OLANEW_clean_sbu_2, # of connection points: 3
#     Node 23, Type 0, BuildingBlock: OLANEW_clean_sbu_2, # of connection points: 3
#     Edge 24, Type (0, 0), BuildingBlock: XUDNAN_clean_linker_2, # of connection points: 2
#     Edge 25, Type (0, 0), BuildingBlock: XUDNAN_clean_linker_2, # of connection points: 2
#     Edge 26, Type (0, 0), BuildingBlock: XUDNAN_clean_linker_2, # of connection points: 2
#     Edge 27, Type (0, 0), BuildingBlock: XUDNAN_clean_linker_2, # of connection points: 2
#     Edge 28, Type (0, 0), BuildingBlock: XUDNAN_clean_linker_2, # of connection points: 2
#     Edge 29, Type (0, 0), BuildingBlock: XUDNAN_clean_linker_2, # of connection points: 2
#     Edge 30, Type (0, 0), BuildingBlock: XUDNAN_clean_linker_2, # of connection points: 2
#     Edge 31, Type (0, 0), BuildingBlock: XUDNAN_clean_linker_2, # of connection points: 2
#     Edge 32, Type (0, 0), BuildingBlock: XUDNAN_clean_linker_2, # of connection points: 2
#     Edge 33, Type (0, 0), BuildingBlock: XUDNAN_clean_linker_2, # of connection points: 2
#     Edge 34, Type (0, 0), BuildingBlock: XUDNAN_clean_linker_2, # of connection points: 2
#     Edge 35, Type (0, 0), BuildingBlock: XUDNAN_clean_linker_2, # of connection points: 2
#     Edge 36, Type (0, 0), BuildingBlock: XUDNAN_clean_linker_2, # of connection points: 2
#     Edge 37, Type (0, 0), BuildingBlock: XUDNAN_clean_linker_2, # of connection points: 2
#     Edge 38, Type (0, 0), BuildingBlock: XUDNAN_clean_linker_2, # of connection points: 2
#     Edge 39, Type (0, 0), BuildingBlock: XUDNAN_clean_linker_2, # of connection points: 2
#     Edge 40, Type (0, 0), BuildingBlock: XUDNAN_clean_linker_2, # of connection points: 2
#     Edge 41, Type (0, 0), BuildingBlock: XUDNAN_clean_linker_2, # of connection points: 2
#     Edge 42, Type (0, 0), BuildingBlock: XUDNAN_clean_linker_2, # of connection points: 2
#     Edge 43, Type (0, 0), BuildingBlock: XUDNAN_clean_linker_2, # of connection points: 2
#     Edge 44, Type (0, 0), BuildingBlock: XUDNAN_clean_linker_2, # of connection points: 2
#     Edge 45, Type (0, 0), BuildingBlock: XUDNAN_clean_linker_2, # of connection points: 2
#     Edge 46, Type (0, 0), BuildingBlock: XUDNAN_clean_linker_2, # of connection points: 2
#     Edge 47, Type (0, 0), BuildingBlock: XUDNAN_clean_linker_2, # of connection points: 2
#     Edge 48, Type (0, 0), BuildingBlock: XUDNAN_clean_linker_2, # of connection points: 2
#     Edge 49, Type (0, 0), BuildingBlock: XUDNAN_clean_linker_2, # of connection points: 2
#     Edge 50, Type (0, 0), BuildingBlock: XUDNAN_clean_linker_2, # of connection points: 2
#     Edge 51, Type (0, 0), BuildingBlock: XUDNAN_clean_linker_2, # of connection points: 2
#     Edge 52, Type (0, 0), BuildingBlock: XUDNAN_clean_linker_2, # of connection points: 2
#     Edge 53, Type (0, 0), BuildingBlock: XUDNAN_clean_linker_2, # of connection points: 2
#     Edge 54, Type (0, 0), BuildingBlock: XUDNAN_clean_linker_2, # of connection points: 2
#     Edge 55, Type (0, 0), BuildingBlock: XUDNAN_clean_linker_2, # of connection points: 2
#     Edge 56, Type (0, 0), BuildingBlock: XUDNAN_clean_linker_2, # of connection points: 2
#     Edge 57, Type (0, 0), BuildingBlock: XUDNAN_clean_linker_2, # of connection points: 2
#     Edge 58, Type (0, 0), BuildingBlock: XUDNAN_clean_linker_2, # of connection points: 2
#     Edge 59, Type (0, 0), BuildingBlock: XUDNAN_clean_linker_2, # of connection points: 2
# Relax obj value: 0.088
# Max RMSD: 0.282
# Mean RMSD: 0.072
data_MOF--net-sgn--node1-OLANEW_clean_sbu_2--edge1-XUDNAN_clean_linker_2
_symmetry_space_group_name_H-M    P1
_symmetry_Int_Tables_number       1
_symmetry_cell_setting            triclinic
loop_
_symmetry_equiv_pos_as_xyz
'x, y, z'
_cell_length_a     74.336169
_cell_length_b     35.994069
_cell_length_c     42.380454
_cell_angle_alpha  89.431243
_cell_angle_beta   90.425612
_cell_angle_gamma 88.023857
loop_
_atom_site_label
_atom_site_type_symbol
_atom_site_fract_x
_atom_site_fract_y
_atom_site_fract_z
_atom_type_partial_charge
O0 O 0.00387 0.38701 0.00338 0.0
Cd1 Cd 0.00416 0.44682 0.97519 0.0
O2 O 0.9763 0.39965 0.01959 0.0
Cd3 Cd 0.97403 0.45676 0.00182 0.0
O4 O 0.96511 0.51445 0.00889 0.0
C5 C 0.9483 0.5221 0.00752 0.0
O6 O 0.93738 0.49581 0.99944 0.0
C7 C 0.98995 0.37742 0.01828 0.0
C8 C 0.03535 0.4588 0.9408 0.0
O9 O 0.0342 0.46785 0.96992 0.0
O10 O 0.02183 0.44351 0.92801 0.0
O11 O 0.96342 0.87084 0.41658 0.0
Cd12 Cd 0.94792 0.90982 0.37646 0.0
O13 O 0.95098 0.8188 0.40291 0.0
Cd14 Cd 0.92975 0.85034 0.37754 0.0
O15 O 0.90406 0.88015 0.38515 0.0
C16 C 0.90341 0.90032 0.40961 0.0
O17 O 0.91812 0.90333 0.42666 0.0
C18 C 0.9624 0.83576 0.41938 0.0
C19 C 0.97312 0.93424 0.33301 0.0
O20 O 0.96992 0.95207 0.3585 0.0
O21 O 0.96411 0.9052 0.32767 0.0
O22 O 0.4984 0.45542 0.51637 0.0
Cd23 Cd 0.50191 0.40481 0.55495 0.0
O24 O 0.47014 0.4645 0.529 0.0
Cd25 Cd 0.44212 0.48587 0.52962 0.0
O26 O 0.41345 0.49109 0.5414 0.0
C27 C 0.40427 0.52113 0.53684 0.0
O28 O 0.41214 0.54992 0.52451 0.0
C29 C 0.48356 0.47357 0.51247 0.0
C30 C 0.53817 0.39142 0.5701 0.0
O31 O 0.5307 0.37441 0.54731 0.0
O32 O 0.52845 0.4146 0.58589 0.0
O33 O 0.49591 0.28313 0.99459 0.0
Cd34 Cd 0.50889 0.22392 0.01439 0.0
O35 O 0.48297 0.29604 0.03991 0.0
Cd36 Cd 0.49917 0.25308 0.06472 0.0
O37 O 0.52307 0.22713 0.08718 0.0
C38 C 0.53822 0.23476 0.07548 0.0
O39 O 0.53858 0.25651 0.05042 0.0
C40 C 0.48543 0.30382 0.01094 0.0
C41 C 0.48368 0.16861 0.00891 0.0
O42 O 0.484 0.18959 0.03314 0.0
O43 O 0.49545 0.17341 0.98744 0.0
O44 O 0.0038 0.66753 0.61093 0.0
Cd45 Cd 0.99975 0.61385 0.64528 0.0
O46 O 0.01364 0.63061 0.57328 0.0
Cd47 Cd 0.02371 0.59061 0.60924 0.0
O48 O 0.04209 0.57641 0.64869 0.0
C49 C 0.03682 0.56724 0.67609 0.0
O50 O 0.01955 0.56354 0.68104 0.0
C51 C 0.00772 0.66239 0.58212 0.0
C52 C 0.97021 0.57669 0.62154 0.0
O53 O 0.96826 0.60145 0.64289 0.0
O54 O 0.9862 0.56862 0.61215 0.0
O55 O 0.48839 0.73419 0.39399 0.0
Cd56 Cd 0.48795 0.80157 0.38506 0.0
O57 O 0.46337 0.73714 0.42144 0.0
Cd58 Cd 0.45844 0.79689 0.41517 0.0
O59 O 0.44802 0.85371 0.4217 0.0
C60 C 0.43105 0.85888 0.42315 0.0
O61 O 0.42072 0.83034 0.41929 0.0
C62 C 0.47652 0.71815 0.4102 0.0
C63 C 0.52013 0.82757 0.36097 0.0
O64 O 0.51832 0.82123 0.39057 0.0
O65 O 0.5068 0.82126 0.34265 0.0
O66 O 0.4583 0.57364 0.92275 0.0
Cd67 Cd 0.46368 0.63291 0.89667 0.0
O68 O 0.46485 0.54587 0.87831 0.0
Cd69 Cd 0.46872 0.49778 0.84755 0.0
O70 O 0.47531 0.44972 0.818 0.0
C71 C 0.46515 0.42339 0.81052 0.0
O72 O 0.47132 0.39795 0.79098 0.0
C73 C 0.46078 0.54382 0.90737 0.0
C74 C 0.50008 0.64837 0.90227 0.0
O75 O 0.48869 0.65975 0.92289 0.0
O76 O 0.49421 0.63017 0.87872 0.0
O77 O 0.02876 0.14034 0.14489 0.0
Cd78 Cd 0.04025 0.08326 0.17112 0.0
O79 O 0.00223 0.116 0.1398 0.0
Cd80 Cd 0.97422 0.11652 0.1229 0.0
O81 O 0.94641 0.1305 0.10873 0.0
C82 C 0.93575 0.10633 0.09865 0.0
O83 O 0.94156 0.07157 0.0965 0.0
C84 C 0.01246 0.14325 0.13562 0.0
C85 C 0.06698 0.09585 0.21614 0.0
O86 O 0.07089 0.09105 0.18703 0.0
O87 O 0.05038 0.09486 0.22403 0.0
O88 O 0.20925 0.01666 0.48407 0.0
Cd89 Cd 0.20963 0.01631 0.54181 0.0
O90 O 0.1913 0.06672 0.48336 0.0
Cd91 Cd 0.17507 0.10321 0.45191 0.0
O92 O 0.16167 0.11473 0.40658 0.0
C93 C 0.1449 0.10989 0.40353 0.0
O94 O 0.13568 0.0999 0.42836 0.0
C95 C 0.20025 0.04163 0.46883 0.0
C96 C 0.22381 0.94937 0.56682 0.0
O97 O 0.20697 0.95365 0.56051 0.0
O98 O 0.23394 0.97675 0.56129 0.0
O99 O 0.21586 0.63177 0.91466 0.0
Cd100 Cd 0.21299 0.63996 0.9716 0.0
O101 O 0.1882 0.61479 0.90576 0.0
Cd102 Cd 0.16527 0.60127 0.87578 0.0
O103 O 0.13964 0.59211 0.85186 0.0
C104 C 0.13824 0.59573 0.82208 0.0
O105 O 0.15242 0.60506 0.80586 0.0
C106 C 0.20377 0.62174 0.89551 0.0
C107 C 0.23765 0.69281 0.98893 0.0
O108 O 0.24237 0.65832 0.98716 0.0
O109 O 0.2211 0.70216 0.98367 0.0
O110 O 0.34201 0.04862 0.61906 0.0
Cd111 Cd 0.33925 0.0881 0.57201 0.0
O112 O 0.36083 0.08465 0.64347 0.0
Cd113 Cd 0.35555 0.13135 0.61106 0.0
O114 O 0.34248 0.18576 0.60236 0.0
C115 C 0.33043 0.19127 0.58124 0.0
O116 O 0.32652 0.16398 0.5623 0.0
C117 C 0.35247 0.05447 0.64223 0.0
C118 C 0.36135 0.05539 0.52655 0.0
O119 O 0.36714 0.08098 0.54443 0.0
O120 O 0.34492 0.04634 0.52941 0.0
O121 O 0.25986 0.27351 0.90798 0.0
Cd122 Cd 0.27191 0.23803 0.95343 0.0
O123 O 0.2857 0.30046 0.90485 0.0
Cd124 Cd 0.30607 0.33933 0.88986 0.0
O125 O 0.33121 0.36826 0.88372 0.0
C126 C 0.34072 0.36248 0.85935 0.0
O127 O 0.33483 0.34013 0.83753 0.0
C128 C 0.2698 0.29668 0.8943 0.0
C129 C 0.24615 0.19725 0.98499 0.0
O130 O 0.24899 0.23099 0.99243 0.0
O131 O 0.25535 0.18296 0.9624 0.0
O132 O 0.15673 0.06731 0.23162 0.0
Cd133 Cd 0.13855 0.07162 0.1834 0.0
O134 O 0.14352 0.01838 0.25102 0.0
Cd135 Cd 0.1224 0.01545 0.21527 0.0
O136 O 0.09388 0.00314 0.21354 0.0
C137 C 0.08638 0.00725 0.24018 0.0
O138 O 0.09612 0.01858 0.26401 0.0
C139 C 0.15547 0.04267 0.25311 0.0
C140 C 0.16038 0.08984 0.13259 0.0
O141 O 0.15297 0.11521 0.14962 0.0
O142 O 0.15725 0.05588 0.1393 0.0
O143 O 0.23953 0.50313 0.68498 0.0
Cd144 Cd 0.24724 0.47215 0.63549 0.0
O145 O 0.24123 0.55573 0.65899 0.0
Cd146 Cd 0.23864 0.61611 0.65217 0.0
O147 O 0.23709 0.67559 0.64106 0.0
C148 C 0.25113 0.69464 0.64305 0.0
O149 O 0.26633 0.67813 0.6523 0.0
C150 C 0.23841 0.53843 0.68472 0.0
C151 C 0.28036 0.4929 0.61144 0.0
O152 O 0.26583 0.51185 0.60519 0.0
O153 O 0.27928 0.46408 0.62925 0.0
O154 O 0.37742 0.93515 0.86092 0.0
Cd155 Cd 0.38423 0.91644 0.91538 0.0
O156 O 0.36402 0.88345 0.84927 0.0
Cd157 Cd 0.36346 0.86222 0.89766 0.0
O158 O 0.34734 0.83553 0.93363 0.0
C159 C 0.33532 0.85487 0.94777 0.0
O160 O 0.33418 0.8909 0.94238 0.0
C161 C 0.36979 0.91482 0.84082 0.0
C162 C 0.40295 0.97193 0.94557 0.0
O163 O 0.41118 0.9476 0.92858 0.0
O164 O 0.38587 0.96979 0.94863 0.0
O165 O 0.18252 0.45339 0.757 0.0
Cd166 Cd 0.15675 0.49087 0.73792 0.0
O167 O 0.19713 0.45007 0.71229 0.0
Cd168 Cd 0.21796 0.42855 0.68057 0.0
O169 O 0.23545 0.39759 0.64837 0.0
C170 C 0.25205 0.39177 0.65466 0.0
O171 O 0.25875 0.4054 0.68071 0.0
C172 C 0.19618 0.44213 0.74153 0.0
C173 C 0.13169 0.49133 0.7864 0.0
O174 O 0.12997 0.4696 0.76288 0.0
O175 O 0.14485 0.51337 0.78636 0.0
O176 O 0.75443 0.10205 0.06813 0.0
Cd177 Cd 0.77169 0.11988 0.02173 0.0
O178 O 0.75109 0.04422 0.05345 0.0
Cd179 Cd 0.76076 0.05784 0.00635 0.0
O180 O 0.76086 0.08691 0.96083 0.0
C181 C 0.74758 0.08282 0.94226 0.0
O182 O 0.73499 0.05998 0.95051 0.0
C183 C 0.74897 0.06957 0.07391 0.0
C184 C 0.80785 0.12837 0.03762 0.0
O185 O 0.79649 0.15595 0.03836 0.0
O186 O 0.80214 0.09677 0.02912 0.0
O187 O 0.8577 0.45852 0.39253 0.0
Cd188 Cd 0.86174 0.42075 0.44062 0.0
O189 O 0.84135 0.41669 0.36929 0.0
Cd190 Cd 0.84002 0.37539 0.40714 0.0
O191 O 0.82688 0.32379 0.41915 0.0
C192 C 0.81 0.32372 0.4141 0.0
O193 O 0.80173 0.35466 0.40439 0.0
C194 C 0.84889 0.44785 0.36862 0.0
C195 C 0.88142 0.45686 0.48696 0.0
O196 O 0.88935 0.43666 0.46618 0.0
O197 O 0.86419 0.46001 0.4858 0.0
O198 O 0.68064 0.97886 0.3747 0.0
Cd199 Cd 0.67565 0.94631 0.32519 0.0
O200 O 0.70891 0.99142 0.36546 0.0
Cd201 Cd 0.70974 0.96691 0.31864 0.0
O202 O 0.72024 0.93757 0.27755 0.0
C203 C 0.73334 0.9508 0.26254 0.0
O204 O 0.73978 0.98261 0.27148 0.0
C205 C 0.69534 0.99267 0.38355 0.0
C206 C 0.64034 0.92235 0.32208 0.0
O207 O 0.65255 0.90368 0.33745 0.0
O208 O 0.64481 0.95219 0.30784 0.0
O209 O 0.85051 0.66952 0.21124 0.0
Cd210 Cd 0.85392 0.72274 0.17562 0.0
O211 O 0.83254 0.64252 0.17766 0.0
Cd212 Cd 0.82701 0.69419 0.15151 0.0
O213 O 0.81385 0.7492 0.14847 0.0
C214 C 0.79743 0.75074 0.15664 0.0
O215 O 0.78964 0.71963 0.16399 0.0
C216 C 0.84182 0.64129 0.20303 0.0
C217 C 0.8782 0.70018 0.12913 0.0
O218 O 0.88357 0.71719 0.15371 0.0
O219 O 0.86132 0.69511 0.12603 0.0
O220 O 0.7392 0.39198 0.75473 0.0
Cd221 Cd 0.75174 0.33344 0.73406 0.0
O222 O 0.71499 0.38578 0.72594 0.0
Cd223 Cd 0.68908 0.39921 0.70279 0.0
O224 O 0.66339 0.39985 0.67734 0.0
C225 C 0.66195 0.3783 0.65395 0.0
O226 O 0.67595 0.35729 0.64591 0.0
C227 C 0.72383 0.40461 0.74562 0.0
C228 C 0.74706 0.27294 0.77446 0.0
O229 O 0.76092 0.29297 0.77692 0.0
O230 O 0.73537 0.2817 0.75302 0.0
O231 O 0.7051 0.05541 0.30766 0.0
Cd232 Cd 0.70049 0.07377 0.36234 0.0
O233 O 0.6856 0.09862 0.29102 0.0
Cd234 Cd 0.67048 0.12691 0.25278 0.0
O235 O 0.65344 0.14872 0.21417 0.0
C236 C 0.63661 0.1437 0.21499 0.0
O237 O 0.62997 0.12573 0.23915 0.0
C238 C 0.69703 0.0726 0.28508 0.0
C239 C 0.72762 0.12077 0.38105 0.0
O240 O 0.72984 0.08537 0.3829 0.0
O241 O 0.71249 0.13403 0.37053 0.0
O242 O 0.72572 0.08045 0.61747 0.0
Cd243 Cd 0.74049 0.08818 0.66849 0.0
O244 O 0.7506 0.05457 0.59938 0.0
Cd245 Cd 0.76814 0.02453 0.56609 0.0
O246 O 0.78605 0.00035 0.53044 0.0
C247 C 0.80285 0.00556 0.53202 0.0
O248 O 0.80914 0.02503 0.55546 0.0
C249 C 0.73423 0.06512 0.59492 0.0
C250 C 0.74478 0.0199 0.6998 0.0
O251 O 0.73032 0.04 0.70265 0.0
O252 O 0.75729 0.03224 0.68231 0.0
O253 O 0.72182 0.67033 0.83293 0.0
Cd254 Cd 0.72578 0.72882 0.86062 0.0
O255 O 0.69361 0.67145 0.84709 0.0
Cd256 Cd 0.66607 0.65393 0.85519 0.0
O257 O 0.63746 0.65033 0.86599 0.0
C258 C 0.63152 0.66699 0.89029 0.0
O259 O 0.64284 0.68482 0.90811 0.0
C260 C 0.70667 0.655 0.83307 0.0
C261 C 0.73495 0.78761 0.82122 0.0
O262 O 0.74705 0.76498 0.83266 0.0
O263 O 0.71848 0.78218 0.82813 0.0
H264 H 0.0308 0.18867 0.09589 0.0
H265 H 0.97918 0.17709 0.14133 0.0
H266 H 0.96742 0.23352 0.11365 0.0
H267 H 0.03121 0.28825 0.10152 0.0
H268 H 0.04197 0.29469 0.06398 0.0
H269 H 0.04607 0.25227 0.08615 0.0
H270 H 0.03584 0.21416 0.03808 0.0
H271 H 0.03162 0.2565 0.0158 0.0
H272 H 0.01395 0.22393 0.02071 0.0
H273 H 0.96137 0.29125 0.08186 0.0
H274 H 0.96167 0.34876 0.05003 0.0
H275 H 0.0176 0.32479 0.02615 0.0
C276 C 0.01701 0.19801 0.09988 0.0
C277 C 0.00566 0.17776 0.11983 0.0
C278 C 0.9878 0.19111 0.12494 0.0
C279 C 0.98108 0.22341 0.10962 0.0
C280 C 0.99247 0.24229 0.08957 0.0
C281 C 0.0101 0.23033 0.08484 0.0
C282 C 0.01965 0.25654 0.06285 0.0
C283 C 0.03567 0.27397 0.07964 0.0
C284 C 0.02561 0.23658 0.03256 0.0
C285 C 0.00465 0.28519 0.05613 0.0
C286 C 0.98908 0.27625 0.07168 0.0
C287 C 0.97346 0.29857 0.06954 0.0
C288 C 0.97379 0.33121 0.05135 0.0
C289 C 0.98966 0.3414 0.03553 0.0
C290 C 0.00523 0.31776 0.03779 0.0
H291 H 0.99497 0.65835 0.52162 0.0
H292 H 0.01346 0.7356 0.59163 0.0
H293 H 0.00698 0.788 0.55464 0.0
H294 H 0.00981 0.70863 0.45035 0.0
H295 H 0.98981 0.69817 0.42834 0.0
H296 H 0.99833 0.66629 0.45839 0.0
H297 H 0.96739 0.66948 0.48616 0.0
H298 H 0.95879 0.70131 0.45626 0.0
H299 H 0.95774 0.71407 0.49725 0.0
H300 H 0.99709 0.83195 0.51154 0.0
H301 H 0.98173 0.8654 0.46746 0.0
H302 H 0.9675 0.76005 0.42671 0.0
C303 C 0.99804 0.68625 0.52876 0.0
C304 C 0.00497 0.69309 0.55917 0.0
C305 C 0.00827 0.72995 0.56828 0.0
C306 C 0.00472 0.75978 0.5474 0.0
C307 C 0.99764 0.75225 0.5177 0.0
C308 C 0.99416 0.71646 0.50846 0.0
C309 C 0.98469 0.7164 0.47666 0.0
C310 C 0.99636 0.69618 0.45197 0.0
C311 C 0.96605 0.69932 0.47926 0.0
C312 C 0.98312 0.75778 0.46976 0.0
C313 C 0.99103 0.77786 0.49342 0.0
C314 C 0.99092 0.81655 0.49277 0.0
C315 C 0.98218 0.8353 0.46758 0.0
C316 C 0.97338 0.81537 0.44363 0.0
C317 C 0.97412 0.77607 0.44461 0.0
H318 H 0.45656 0.67795 0.45162 0.0
H319 H 0.501 0.66735 0.38603 0.0
H320 H 0.50544 0.60127 0.4014 0.0
H321 H 0.47635 0.6246 0.51236 0.0
H322 H 0.45587 0.60346 0.52464 0.0
H323 H 0.4549 0.64848 0.50582 0.0
H324 H 0.43304 0.62396 0.46369 0.0
H325 H 0.43416 0.57846 0.48187 0.0
H326 H 0.43963 0.58384 0.44081 0.0
H327 H 0.50674 0.53834 0.42714 0.0
H328 H 0.50536 0.4834 0.46208 0.0
H329 H 0.46046 0.53543 0.51176 0.0
C330 C 0.46702 0.66162 0.44001 0.0
C331 C 0.47838 0.67784 0.41747 0.0
C332 C 0.49209 0.65555 0.40327 0.0
C333 C 0.49468 0.61795 0.41177 0.0
C334 C 0.48341 0.60305 0.43444 0.0
C335 C 0.46984 0.62416 0.44834 0.0
C336 C 0.46041 0.6022 0.47361 0.0
C337 C 0.46199 0.62079 0.50602 0.0
C338 C 0.44063 0.59681 0.46443 0.0
C339 C 0.4712 0.56578 0.47257 0.0
C340 C 0.48421 0.56669 0.44944 0.0
C341 C 0.49646 0.53714 0.44504 0.0
C342 C 0.49559 0.5061 0.4651 0.0
C343 C 0.48262 0.5048 0.48941 0.0
C344 C 0.47013 0.53493 0.49284 0.0
H345 H 0.48149 0.48075 0.89765 0.0
H346 H 0.43839 0.52615 0.95553 0.0
H347 H 0.43812 0.46707 0.98589 0.0
H348 H 0.46518 0.38399 0.89571 0.0
H349 H 0.4878 0.36432 0.89697 0.0
H350 H 0.48331 0.40885 0.87822 0.0
H351 H 0.50721 0.43802 0.91428 0.0
H352 H 0.51165 0.39377 0.93334 0.0
H353 H 0.50522 0.43372 0.95653 0.0
H354 H 0.4447 0.40557 0.01295 0.0
H355 H 0.45719 0.34583 0.03415 0.0
H356 H 0.49491 0.33962 0.95655 0.0
C357 C 0.47149 0.47777 0.91582 0.0
C358 C 0.45957 0.50756 0.92365 0.0
C359 C 0.44744 0.50337 0.94891 0.0
C360 C 0.44715 0.46992 0.96616 0.0
C361 C 0.45904 0.44097 0.95773 0.0
C362 C 0.47088 0.44447 0.93297 0.0
C363 C 0.48301 0.41007 0.92986 0.0
C364 C 0.47961 0.39066 0.89832 0.0
C365 C 0.50295 0.41948 0.93375 0.0
C366 C 0.47657 0.38714 0.9574 0.0
C367 C 0.46266 0.40533 0.97307 0.0
C368 C 0.45537 0.39077 0.00057 0.0
C369 C 0.4626 0.3569 0.01249 0.0
C370 C 0.47692 0.33793 0.99688 0.0
C371 C 0.48376 0.35311 0.96872 0.0
H372 H 0.18123 0.9956 0.43188 0.0
H373 H 0.21618 0.08928 0.42893 0.0
H374 H 0.21104 0.09566 0.37127 0.0
H375 H 0.19252 0.95762 0.35248 0.0
H376 H 0.16957 0.94557 0.34486 0.0
H377 H 0.17822 0.94484 0.38472 0.0
H378 H 0.15215 0.98996 0.40156 0.0
H379 H 0.14349 0.99071 0.3618 0.0
H380 H 0.14871 0.03356 0.38078 0.0
H381 H 0.19979 0.09554 0.31539 0.0
H382 H 0.1826 0.09033 0.26564 0.0
H383 H 0.15418 0.99774 0.30555 0.0
C384 C 0.18826 0.01652 0.41874 0.0
C385 C 0.19948 0.04133 0.43427 0.0
C386 C 0.20789 0.06954 0.41697 0.0
C387 C 0.20502 0.07336 0.38435 0.0
C388 C 0.1936 0.04886 0.36961 0.0
C389 C 0.18535 0.02095 0.38623 0.0
C390 C 0.17237 0.00064 0.36542 0.0
C391 C 0.17855 0.95974 0.36165 0.0
C392 C 0.15304 0.00394 0.37816 0.0
C393 C 0.17421 0.02217 0.33482 0.0
C394 C 0.18673 0.04944 0.33755 0.0
C395 C 0.19012 0.07395 0.31281 0.0
C396 C 0.18027 0.0708 0.28466 0.0
C397 C 0.16709 0.04354 0.2816 0.0
C398 C 0.16427 0.01865 0.30696 0.0
H399 H 0.21619 0.51657 0.73209 0.0
H400 H 0.25106 0.60497 0.70394 0.0
H401 H 0.24376 0.63849 0.75295 0.0
H402 H 0.18177 0.57604 0.77023 0.0
H403 H 0.17814 0.54242 0.80117 0.0
H404 H 0.18525 0.52726 0.76267 0.0
H405 H 0.21282 0.49151 0.78879 0.0
H406 H 0.20535 0.50697 0.82687 0.0
H407 H 0.22778 0.51643 0.81382 0.0
H408 H 0.23478 0.65975 0.80663 0.0
H409 H 0.22422 0.66801 0.86134 0.0
H410 H 0.19425 0.56714 0.85445 0.0
C411 C 0.22212 0.54317 0.73617 0.0
C412 C 0.23381 0.55872 0.71385 0.0
C413 C 0.24154 0.59328 0.72012 0.0
C414 C 0.2376 0.61234 0.74805 0.0
C415 C 0.22588 0.59648 0.76942 0.0
C416 C 0.21821 0.56273 0.76383 0.0
C417 C 0.2065 0.55131 0.79117 0.0
C418 C 0.18674 0.54912 0.78069 0.0
C419 C 0.21353 0.51438 0.80605 0.0
C420 C 0.20906 0.58357 0.81327 0.0
C421 C 0.22031 0.60929 0.80021 0.0
C422 C 0.22573 0.64015 0.8169 0.0
C423 C 0.21969 0.6446 0.84791 0.0
C424 C 0.20818 0.61861 0.86176 0.0
C425 C 0.20259 0.588 0.84404 0.0
H426 H 0.36975 0.06219 0.69909 0.0
H427 H 0.33967 0.98396 0.64402 0.0
H428 H 0.3422 0.93844 0.68793 0.0
H429 H 0.4003 0.99423 0.73745 0.0
H430 H 0.40011 0.01849 0.77446 0.0
H431 H 0.39685 0.04405 0.73797 0.0
H432 H 0.36676 0.07247 0.7588 0.0
H433 H 0.36991 0.04701 0.7953 0.0
H434 H 0.34962 0.04205 0.77243 0.0
H435 H 0.347 0.9024 0.73853 0.0
H436 H 0.35317 0.8789 0.79254 0.0
H437 H 0.37981 0.98108 0.81468 0.0
C438 C 0.36386 0.03534 0.69607 0.0
C439 C 0.35457 0.02661 0.66804 0.0
C440 C 0.34687 0.9913 0.66525 0.0
C441 C 0.34827 0.96521 0.69003 0.0
C442 C 0.35739 0.97486 0.71742 0.0
C443 C 0.36504 0.00908 0.72059 0.0
C444 C 0.37346 0.01315 0.75297 0.0
C445 C 0.39389 0.01774 0.75055 0.0
C446 C 0.36439 0.04559 0.77093 0.0
C447 C 0.36916 0.97603 0.76765 0.0
C448 C 0.36001 0.95425 0.74668 0.0
C449 C 0.35425 0.91913 0.7551 0.0
C450 C 0.35782 0.90604 0.78586 0.0
C451 C 0.367 0.92811 0.8079 0.0
C452 C 0.37284 0.96344 0.79842 0.0
H453 H 0.19192 0.39743 0.79258 0.0
H454 H 0.23268 0.4385 0.72979 0.0
H455 H 0.25622 0.40381 0.76074 0.0
H456 H 0.21723 0.40674 0.86279 0.0
H457 H 0.20873 0.36573 0.88141 0.0
H458 H 0.19514 0.39122 0.85269 0.0
H459 H 0.19211 0.3315 0.81964 0.0
H460 H 0.20557 0.3057 0.84837 0.0
H461 H 0.21212 0.30593 0.80751 0.0
H462 H 0.27539 0.36565 0.80055 0.0
H463 H 0.28822 0.32779 0.8448 0.0
H464 H 0.23463 0.3153 0.88238 0.0
C465 C 0.20578 0.39873 0.78503 0.0
C466 C 0.21041 0.41965 0.75814 0.0
C467 C 0.22872 0.42126 0.74941 0.0
C468 C 0.24221 0.40208 0.76716 0.0
C469 C 0.23713 0.38174 0.79366 0.0
C470 C 0.21931 0.38001 0.80248 0.0
C471 C 0.21729 0.35761 0.83252 0.0
C472 C 0.20912 0.38177 0.8589 0.0
C473 C 0.20611 0.32314 0.82664 0.0
C474 C 0.23677 0.34695 0.83941 0.0
C475 C 0.24806 0.36103 0.8168 0.0
C476 C 0.26666 0.35476 0.81849 0.0
C477 C 0.27386 0.33363 0.84396 0.0
C478 C 0.26248 0.3193 0.86748 0.0
C479 C 0.2437 0.32595 0.86486 0.0
H480 H 0.73553 0.12005 0.11616 0.0
H481 H 0.74206 0.00145 0.10011 0.0
H482 H 0.72749 0.98892 0.15126 0.0
H483 H 0.74488 0.11783 0.19788 0.0
H484 H 0.7284 0.15385 0.2073 0.0
H485 H 0.73859 0.15306 0.16893 0.0
H486 H 0.70693 0.15254 0.14283 0.0
H487 H 0.69663 0.15303 0.18119 0.0
H488 H 0.69167 0.11682 0.15373 0.0
H489 H 0.71362 0.98972 0.2057 0.0
H490 H 0.70184 0.00407 0.25906 0.0
H491 H 0.70394 0.1218 0.2381 0.0
C492 C 0.73384 0.09141 0.12328 0.0
C493 C 0.73997 0.06171 0.10418 0.0
C494 C 0.73742 0.02464 0.11434 0.0
C495 C 0.72913 0.01726 0.1433 0.0
C496 C 0.72325 0.04726 0.16155 0.0
C497 C 0.72543 0.08359 0.15183 0.0
C498 C 0.71836 0.11091 0.17605 0.0
C499 C 0.73346 0.13534 0.18826 0.0
C500 C 0.70245 0.13473 0.16264 0.0
C501 C 0.71221 0.08433 0.20127 0.0
C502 C 0.71504 0.04771 0.19247 0.0
C503 C 0.71121 0.01828 0.2127 0.0
C504 C 0.70461 0.02659 0.24288 0.0
C505 C 0.70187 0.0639 0.25232 0.0
C506 C 0.70548 0.09302 0.23108 0.0
H507 H 0.86114 0.51862 0.35892 0.0
H508 H 0.83236 0.43068 0.31316 0.0
H509 H 0.82839 0.46987 0.26558 0.0
H510 H 0.83376 0.59402 0.32799 0.0
H511 H 0.85213 0.62483 0.32276 0.0
H512 H 0.85343 0.5894 0.35306 0.0
H513 H 0.88343 0.5636 0.3298 0.0
H514 H 0.88222 0.59899 0.29941 0.0
H515 H 0.88428 0.55066 0.28883 0.0
H516 H 0.82656 0.51872 0.22363 0.0
H517 H 0.82706 0.57466 0.18969 0.0
H518 H 0.8571 0.63127 0.26205 0.0
C519 C 0.85411 0.50751 0.33883 0.0
C520 C 0.84708 0.4715 0.33986 0.0
C521 C 0.83788 0.45813 0.31306 0.0
C522 C 0.83556 0.48016 0.28583 0.0
C523 C 0.84255 0.51552 0.28566 0.0
C524 C 0.85166 0.52918 0.31136 0.0
C525 C 0.85744 0.56854 0.30511 0.0
C526 C 0.84866 0.5958 0.32862 0.0
C527 C 0.87807 0.57055 0.30583 0.0
C528 C 0.85001 0.57488 0.27202 0.0
C529 C 0.84152 0.54386 0.26126 0.0
C530 C 0.83325 0.54316 0.2317 0.0
C531 C 0.83358 0.57512 0.21261 0.0
C532 C 0.84214 0.60737 0.22313 0.0
C533 C 0.85054 0.60702 0.25321 0.0
H534 H 0.72597 0.0157 0.41276 0.0
H535 H 0.66869 0.0037 0.42728 0.0
H536 H 0.67213 0.02459 0.48226 0.0
H537 H 0.74005 0.98107 0.48714 0.0
H538 H 0.75815 0.01272 0.49134 0.0
H539 H 0.75083 0.99949 0.45266 0.0
H540 H 0.74604 0.0684 0.43829 0.0
H541 H 0.75248 0.0828 0.47713 0.0
H542 H 0.73091 0.0978 0.46086 0.0
H543 H 0.68226 0.04237 0.53677 0.0
H544 H 0.69825 0.05649 0.58631 0.0
H545 H 0.74851 0.05985 0.53516 0.0
C546 C 0.71406 0.01814 0.42725 0.0
C547 C 0.69703 0.00823 0.41562 0.0
C548 C 0.68187 0.01123 0.43561 0.0
C549 C 0.68368 0.02311 0.46687 0.0
C550 C 0.70072 0.03204 0.47772 0.0
C551 C 0.71562 0.02996 0.45844 0.0
C552 C 0.73257 0.03936 0.47625 0.0
C553 C 0.74619 0.00616 0.47688 0.0
C554 C 0.74097 0.07424 0.46233 0.0
C555 C 0.72493 0.04666 0.50864 0.0
C556 C 0.70654 0.04231 0.50903 0.0
C557 C 0.69664 0.04612 0.53666 0.0
C558 C 0.70585 0.05418 0.56466 0.0
C559 C 0.72475 0.05823 0.56483 0.0
C560 C 0.73426 0.05526 0.53623 0.0
H561 H 0.7338 0.60474 0.82048 0.0
H562 H 0.67596 0.62204 0.81097 0.0
H563 H 0.67375 0.55933 0.78854 0.0
H564 H 0.73977 0.55669 0.74699 0.0
H565 H 0.75738 0.52579 0.76239 0.0
H566 H 0.75416 0.57162 0.77852 0.0
H567 H 0.75094 0.54293 0.83446 0.0
H568 H 0.75411 0.49702 0.81851 0.0
H569 H 0.73431 0.50849 0.84119 0.0
H570 H 0.67806 0.4932 0.76838 0.0
H571 H 0.6886 0.43139 0.75002 0.0
H572 H 0.74379 0.46013 0.76915 0.0
C573 C 0.72063 0.59545 0.81369 0.0
C574 C 0.70497 0.618 0.81847 0.0
C575 C 0.68806 0.60481 0.80893 0.0
C576 C 0.6867 0.56933 0.79573 0.0
C577 C 0.70242 0.54763 0.79185 0.0
C578 C 0.71907 0.56039 0.80031 0.0
C579 C 0.73398 0.53211 0.79325 0.0
C580 C 0.74709 0.54747 0.76883 0.0
C581 C 0.74391 0.51939 0.82367 0.0
C582 C 0.72313 0.50127 0.77961 0.0
C583 C 0.70495 0.5106 0.77903 0.0
C584 C 0.6923 0.48592 0.76816 0.0
C585 C 0.69844 0.45098 0.75733 0.0
C586 C 0.71707 0.44125 0.75709 0.0
C587 C 0.72947 0.46678 0.76869 0.0
H588 H 0.04121 0.44653 0.8777 0.0
H589 H 0.06647 0.48856 0.96226 0.0
H590 H 0.09361 0.50224 0.93167 0.0
H591 H 0.0809 0.40262 0.84507 0.0
H592 H 0.0751 0.41507 0.80487 0.0
H593 H 0.05761 0.40874 0.83341 0.0
H594 H 0.04465 0.47454 0.82021 0.0
H595 H 0.06234 0.48224 0.7923 0.0
H596 H 0.05869 0.51398 0.82445 0.0
H597 H 0.11809 0.5107 0.89226 0.0
H598 H 0.13841 0.51311 0.84652 0.0
H599 H 0.0972 0.46641 0.78732 0.0
C600 C 0.05246 0.45853 0.88982 0.0
C601 C 0.05172 0.46641 0.92243 0.0
C602 C 0.06672 0.48225 0.93733 0.0
C603 C 0.08219 0.49016 0.92015 0.0
C604 C 0.08245 0.48216 0.88807 0.0
C605 C 0.068 0.46668 0.87302 0.0
C606 C 0.07178 0.46078 0.83829 0.0
C607 C 0.07132 0.41934 0.82993 0.0
C608 C 0.05858 0.48428 0.81757 0.0
C609 C 0.09069 0.47497 0.83628 0.0
C610 C 0.09655 0.4873 0.86525 0.0
C611 C 0.11363 0.50127 0.86944 0.0
C612 C 0.12504 0.50265 0.84332 0.0
C613 C 0.11931 0.4902 0.81341 0.0
C614 C 0.10192 0.47611 0.80993 0.0
H615 H 0.99945 0.98353 0.3446 0.0
H616 H 0.97946 0.91015 0.27274 0.0
H617 H 0.00484 0.92605 0.23826 0.0
H618 H 0.01736 0.0545 0.2908 0.0
H619 H 0.03671 0.06144 0.3156 0.0
H620 H 0.01579 0.04814 0.33293 0.0
H621 H 0.05294 0.00399 0.34274 0.0
H622 H 0.04455 0.95836 0.33596 0.0
H623 H 0.03194 0.99115 0.35977 0.0
H624 H 0.03374 0.94693 0.21314 0.0
H625 H 0.0644 0.96779 0.20127 0.0
H626 H 0.06565 0.02478 0.29084 0.0
C627 C 1.00017 0.97142 0.32134 0.0
C628 C 0.98739 0.94586 0.31123 0.0
C629 C 0.98906 0.92995 0.2809 0.0
C630 C 0.00338 0.93894 0.2611 0.0
C631 C 0.01593 0.9638 0.27202 0.0
C632 C 0.01445 0.97976 0.30149 0.0
C633 C 0.03049 0.003 0.30891 0.0
C634 C 0.02474 0.04421 0.31226 0.0
C635 C 0.04057 0.98823 0.33859 0.0
C636 C 0.04149 0.99674 0.27946 0.0
C637 C 0.03275 0.97474 0.25812 0.0
C638 C 0.04064 0.96439 0.2296 0.0
C639 C 0.05804 0.97636 0.22305 0.0
C640 C 0.06741 0.99784 0.2452 0.0
C641 C 0.05883 0.00849 0.27345 0.0
H642 H 0.31269 0.45338 0.61303 0.0
H643 H 0.28746 0.5573 0.57987 0.0
H644 H 0.3164 0.57582 0.55747 0.0
H645 H 0.3555 0.4902 0.63444 0.0
H646 H 0.36838 0.45005 0.62116 0.0
H647 H 0.34572 0.44505 0.63494 0.0
H648 H 0.33705 0.41448 0.58219 0.0
H649 H 0.35968 0.41927 0.56823 0.0
H650 H 0.34094 0.4386 0.54553 0.0
H651 H 0.34805 0.58333 0.53894 0.0
H652 H 0.38016 0.57874 0.52458 0.0
H653 H 0.38472 0.46941 0.56878 0.0
C654 C 0.31326 0.4801 0.60116 0.0
C655 C 0.2978 0.50395 0.59828 0.0
C656 C 0.2991 0.53855 0.58236 0.0
C657 C 0.31549 0.54935 0.56958 0.0
C658 C 0.33045 0.52518 0.57277 0.0
C659 C 0.32949 0.49123 0.58808 0.0
C660 C 0.34751 0.47022 0.58782 0.0
C661 C 0.3547 0.4635 0.6216 0.0
C662 C 0.34621 0.43347 0.56986 0.0
C663 C 0.35875 0.49772 0.57003 0.0
C664 C 0.34865 0.52928 0.56166 0.0
C665 C 0.3561 0.55873 0.54532 0.0
C666 C 0.37436 0.55587 0.53729 0.0
C667 C 0.38498 0.52372 0.54548 0.0
C668 C 0.37698 0.49431 0.56205 0.0
H669 H 0.43633 0.9962 0.93048 0.0
H670 H 0.39174 0.01603 0.99435 0.0
H671 H 0.40807 0.06712 0.01894 0.0
H672 H 0.47234 0.01608 0.98505 0.0
H673 H 0.48549 0.03907 0.95562 0.0
H674 H 0.47069 0.00287 0.94423 0.0
H675 H 0.45469 0.04785 0.90406 0.0
H676 H 0.46943 0.08417 0.91532 0.0
H677 H 0.44538 0.0918 0.91743 0.0
H678 H 0.42931 0.11606 0.03645 0.0
H679 H 0.45304 0.16172 0.04353 0.0
H680 H 0.48305 0.11164 0.96644 0.0
C681 C 0.43007 0.01104 0.94985 0.0
C682 C 0.41283 0.00199 0.96071 0.0
C683 C 0.40496 0.02249 0.98573 0.0
C684 C 0.41415 0.05146 0.99988 0.0
C685 C 0.4311 0.05977 0.98851 0.0
C686 C 0.43893 0.04035 0.96391 0.0
C687 C 0.45691 0.05594 0.95513 0.0
C688 C 0.47226 0.02675 0.96033 0.0
C689 C 0.45657 0.07083 0.92096 0.0
C690 C 0.45797 0.0872 0.97862 0.0
C691 C 0.44304 0.08872 0.99787 0.0
C692 C 0.44105 0.11517 0.02148 0.0
C693 C 0.45461 0.14093 0.02536 0.0
C694 C 0.46986 0.1403 0.00549 0.0
C695 C 0.47152 0.11293 0.98192 0.0
H696 H 0.07362 0.57062 0.67361 0.0
H697 H 0.02943 0.55981 0.73909 0.0
H698 H 0.05074 0.56317 0.7838 0.0
H699 H 0.10724 0.51614 0.72131 0.0
H700 H 0.12532 0.54565 0.71034 0.0
H701 H 0.1069 0.53906 0.68329 0.0
H702 H 0.10081 0.61026 0.6798 0.0
H703 H 0.11918 0.61734 0.7067 0.0
H704 H 0.097 0.63612 0.71549 0.0
H705 H 0.07671 0.57238 0.82149 0.0
H706 H 0.10526 0.58524 0.84882 0.0
H707 H 0.13228 0.59008 0.7585 0.0
C708 C 0.06844 0.56824 0.69733 0.0
C709 C 0.04983 0.56493 0.7028 0.0
C710 C 0.04363 0.56214 0.73425 0.0
C711 C 0.05565 0.56397 0.75985 0.0
C712 C 0.07386 0.56801 0.75362 0.0
C713 C 0.08026 0.56973 0.72311 0.0
C714 C 0.10031 0.57582 0.72275 0.0
C715 C 0.11055 0.54217 0.70858 0.0
C716 C 0.10456 0.61204 0.70515 0.0
C717 C 0.10407 0.57871 0.75774 0.0
C718 C 0.08872 0.57363 0.77521 0.0
C719 C 0.08884 0.576 0.80802 0.0
C720 C 0.10511 0.5835 0.82332 0.0
C721 C 0.12102 0.58864 0.80581 0.0
C722 C 0.12037 0.58634 0.77258 0.0
H723 H 0.39559 0.87656 0.43441 0.0
H724 H 0.44858 0.92359 0.4334 0.0
H725 H 0.43562 0.98249 0.45407 0.0
H726 H 0.36954 0.96369 0.41399 0.0
H727 H 0.35149 0.95218 0.44011 0.0
H728 H 0.3645 0.91572 0.42114 0.0
H729 H 0.37196 0.88565 0.47571 0.0
H730 H 0.35905 0.92197 0.49481 0.0
H731 H 0.38228 0.91305 0.50581 0.0
H732 H 0.41761 0.03325 0.48081 0.0
H733 H 0.39596 0.07184 0.51131 0.0
H734 H 0.35475 0.99172 0.49435 0.0
C735 C 0.40442 0.89949 0.43783 0.0
C736 C 0.4231 0.89548 0.43219 0.0
C737 C 0.43422 0.92604 0.43744 0.0
C738 C 0.42697 0.95965 0.4491 0.0
C739 C 0.40857 0.96235 0.45513 0.0
C740 C 0.39742 0.93316 0.44946 0.0
C741 C 0.37841 0.94201 0.46031 0.0
C742 C 0.36521 0.94349 0.43221 0.0
C743 C 0.3726 0.91402 0.48567 0.0
C744 C 0.38073 0.98024 0.47399 0.0
C745 C 0.39816 0.9917 0.47043 0.0
C746 C 0.40384 0.02486 0.48326 0.0
C747 C 0.39146 0.04656 0.5006 0.0
C748 C 0.37364 0.03493 0.50503 0.0
C749 C 0.36819 0.00169 0.49096 0.0
H750 H 0.36449 0.35478 0.81052 0.0
H751 H 0.35779 0.40617 0.90215 0.0
H752 H 0.38856 0.42968 0.89886 0.0
H753 H 0.40979 0.32447 0.82127 0.0
H754 H 0.41626 0.33369 0.78112 0.0
H755 H 0.39336 0.32286 0.78985 0.0
H756 H 0.3821 0.38422 0.7626 0.0
H757 H 0.40498 0.3952 0.75368 0.0
H758 H 0.39092 0.42773 0.77523 0.0
H759 H 0.42089 0.44401 0.88703 0.0
H760 H 0.45168 0.44937 0.86674 0.0
H761 H 0.43689 0.39013 0.78246 0.0
C762 C 0.36939 0.3713 0.82978 0.0
C763 C 0.3587 0.37863 0.85659 0.0
C764 C 0.3657 0.40024 0.88132 0.0
C765 C 0.38317 0.41372 0.87968 0.0
C766 C 0.39342 0.40555 0.85309 0.0
C767 C 0.38675 0.38502 0.8285 0.0
C768 C 0.40065 0.3792 0.80295 0.0
C769 C 0.40529 0.33759 0.79856 0.0
C770 C 0.39428 0.3977 0.77177 0.0
C771 C 0.41629 0.39918 0.8172 0.0
C772 C 0.41185 0.41434 0.84606 0.0
C773 C 0.42437 0.43293 0.86414 0.0
C774 C 0.44182 0.43628 0.85226 0.0
C775 C 0.44659 0.42123 0.82263 0.0
C776 C 0.43361 0.40232 0.80505 0.0
H777 H 0.06347 0.09886 0.28056 0.0
H778 H 0.10286 0.10499 0.2057 0.0
H779 H 0.12687 0.11245 0.24543 0.0
H780 H 0.0838 0.16554 0.33288 0.0
H781 H 0.07854 0.13976 0.36811 0.0
H782 H 0.06428 0.13719 0.3337 0.0
H783 H 0.09059 0.04463 0.33313 0.0
H784 H 0.08328 0.06746 0.36871 0.0
H785 H 0.06834 0.06612 0.33528 0.0
H786 H 0.14672 0.11826 0.29342 0.0
H787 H 0.16113 0.11846 0.34616 0.0
H788 H 0.10892 0.10636 0.38958 0.0
C789 C 0.07712 0.10214 0.27248 0.0
C790 C 0.08126 0.10163 0.23997 0.0
C791 C 0.09934 0.10549 0.23044 0.0
C792 C 0.11309 0.10969 0.25284 0.0
C793 C 0.10857 0.10977 0.28468 0.0
C794 C 0.09104 0.10596 0.29452 0.0
C795 C 0.08989 0.10558 0.3302 0.0
C796 C 0.07845 0.13902 0.34191 0.0
C797 C 0.08261 0.06872 0.34252 0.0
C798 C 0.10954 0.10921 0.33887 0.0
C799 C 0.12007 0.11206 0.3123 0.0
C800 C 0.13863 0.11579 0.3144 0.0
C801 C 0.14668 0.11601 0.34446 0.0
C802 C 0.13617 0.1123 0.37201 0.0
C803 C 0.11734 0.10917 0.36901 0.0
H804 H 0.2239 0.22047 0.03288 0.0
H805 H 0.23869 0.12395 0.97686 0.0
H806 H 0.2176 0.08642 0.00736 0.0
H807 H 0.22041 0.17277 0.10624 0.0
H808 H 0.20135 0.20048 0.11961 0.0
H809 H 0.21707 0.22011 0.09255 0.0
H810 H 0.191 0.23661 0.05339 0.0
H811 H 0.17518 0.21706 0.08037 0.0
H812 H 0.17648 0.2006 0.0404 0.0
H813 H 0.19593 0.0587 0.0456 0.0
H814 H 0.17478 0.04317 0.08804 0.0
H815 H 0.17376 0.15807 0.1184 0.0
C816 C 0.22262 0.19151 0.02685 0.0
C817 C 0.23296 0.17516 0.00245 0.0
C818 C 0.2309 0.13713 0.9954 0.0
C819 C 0.21895 0.11556 0.01259 0.0
C820 C 0.20908 0.13248 0.03665 0.0
C821 C 0.21072 0.16962 0.04368 0.0
C822 C 0.1988 0.1809 0.07105 0.0
C823 C 0.21009 0.19435 0.09901 0.0
C824 C 0.18452 0.21054 0.06067 0.0
C825 C 0.19035 0.1442 0.07853 0.0
C826 C 0.19644 0.11662 0.05841 0.0
C827 C 0.19096 0.08012 0.06134 0.0
C828 C 0.17896 0.07157 0.08555 0.0
C829 C 0.17254 0.09941 0.10645 0.0
C830 C 0.17828 0.13622 0.10265 0.0
H831 H 0.76844 0.24998 0.82452 0.0
H832 H 0.72014 0.22294 0.77256 0.0
H833 H 0.71591 0.16938 0.80827 0.0
H834 H 0.78414 0.15499 0.84077 0.0
H835 H 0.79224 0.1654 0.87978 0.0
H836 H 0.79189 0.20074 0.84936 0.0
H837 H 0.7727 0.24447 0.88501 0.0
H838 H 0.77304 0.20932 0.91554 0.0
H839 H 0.75185 0.22855 0.90084 0.0
H840 H 0.71642 0.11998 0.85054 0.0
H841 H 0.72117 0.07917 0.8972 0.0
H842 H 0.76913 0.13851 0.92163 0.0
C843 C 0.75703 0.23268 0.82051 0.0
C844 C 0.74463 0.24062 0.79569 0.0
C845 C 0.72981 0.21742 0.7914 0.0
C846 C 0.72732 0.18687 0.8115 0.0
C847 C 0.73977 0.17988 0.83576 0.0
C848 C 0.75432 0.20214 0.84038 0.0
C849 C 0.7654 0.18928 0.86882 0.0
C850 C 0.78455 0.17686 0.85909 0.0
C851 C 0.76576 0.21971 0.89404 0.0
C852 C 0.7547 0.15655 0.8797 0.0
C853 C 0.74003 0.15146 0.86019 0.0
C854 C 0.72791 0.12357 0.86591 0.0
C855 C 0.73073 0.10053 0.89248 0.0
C856 C 0.74554 0.10557 0.91307 0.0
C857 C 0.75775 0.13375 0.90627 0.0
H858 H 0.77401 0.31495 0.40379 0.0
H859 H 0.82367 0.25325 0.42687 0.0
H860 H 0.80756 0.19445 0.42379 0.0
H861 H 0.74368 0.254 0.44685 0.0
H862 H 0.72624 0.25928 0.41722 0.0
H863 H 0.74138 0.29646 0.42403 0.0
H864 H 0.74992 0.2962 0.36484 0.0
H865 H 0.73494 0.25888 0.3579 0.0
H866 H 0.75833 0.25365 0.34733 0.0
H867 H 0.78663 0.14227 0.41327 0.0
H868 H 0.76224 0.10086 0.39851 0.0
H869 H 0.72616 0.19693 0.38356 0.0
C870 C 0.78147 0.28915 0.40873 0.0
C871 C 0.80012 0.28873 0.41561 0.0
C872 C 0.80937 0.2543 0.42168 0.0
C873 C 0.80034 0.22075 0.41996 0.0
C874 C 0.78204 0.22216 0.41241 0.0
C875 C 0.77268 0.25551 0.4072 0.0
C876 C 0.75326 0.24941 0.39816 0.0
C877 C 0.74038 0.26575 0.42306 0.0
C878 C 0.74887 0.26548 0.3651 0.0
C879 C 0.75325 0.20737 0.39838 0.0
C880 C 0.76994 0.19216 0.4068 0.0
C881 C 0.77342 0.15387 0.40719 0.0
C882 C 0.75945 0.13056 0.39884 0.0
C883 C 0.74218 0.14557 0.39038 0.0
C884 C 0.73913 0.18453 0.39023 0.0
H885 H 0.72676 0.87959 0.24505 0.0
H886 H 0.76069 0.97225 0.2241 0.0
H887 H 0.77851 0.93265 0.18777 0.0
H888 H 0.76032 0.81325 0.25042 0.0
H889 H 0.74813 0.77632 0.23264 0.0
H890 H 0.73609 0.81349 0.25217 0.0
H891 H 0.7174 0.82758 0.2013 0.0
H892 H 0.72935 0.79017 0.18158 0.0
H893 H 0.7288 0.83638 0.16473 0.0
H894 H 0.79539 0.88052 0.1606 0.0
H895 H 0.80954 0.82066 0.14434 0.0
H896 H 0.76428 0.76256 0.1827 0.0
C897 C 0.73761 0.8919 0.23216 0.0
C898 C 0.74236 0.92897 0.23746 0.0
C899 C 0.75683 0.94387 0.22046 0.0
C900 C 0.76698 0.92163 0.19965 0.0
C901 C 0.76235 0.88473 0.19586 0.0
C902 C 0.74786 0.87011 0.21139 0.0
C903 C 0.74673 0.8288 0.2058 0.0
C904 C 0.7479 0.8067 0.23711 0.0
C905 C 0.72955 0.82024 0.18724 0.0
C906 C 0.76335 0.82208 0.18599 0.0
C907 C 0.77202 0.85473 0.18002 0.0
C908 C 0.78852 0.85489 0.16456 0.0
C909 C 0.79648 0.82074 0.15549 0.0
C910 C 0.78799 0.78693 0.16212 0.0
C911 C 0.77101 0.78791 0.17687 0.0
H912 H 0.33159 0.78013 0.95745 0.0
H913 H 0.30612 0.88776 0.97666 0.0
H914 H 0.27957 0.85671 0.99746 0.0
H915 H 0.29468 0.74004 0.92785 0.0
H916 H 0.29906 0.69425 0.94437 0.0
H917 H 0.31742 0.72424 0.93704 0.0
H918 H 0.32752 0.71798 0.99556 0.0
H919 H 0.30921 0.68761 0.00307 0.0
H920 H 0.31166 0.72877 0.02639 0.0
H921 H 0.25389 0.81495 0.00665 0.0
H922 H 0.23167 0.76546 0.00568 0.0
H923 H 0.27404 0.6849 0.98197 0.0
C924 C 0.32069 0.79718 0.967 0.0
C925 C 0.32096 0.8364 0.96545 0.0
C926 C 0.30627 0.85768 0.97769 0.0
C927 C 0.29113 0.84028 0.98964 0.0
C928 C 0.29098 0.80157 0.98962 0.0
C929 C 0.3055 0.78025 0.97905 0.0
C930 C 0.30128 0.7394 0.97845 0.0
C931 C 0.30322 0.72359 0.94494 0.0
C932 C 0.31312 0.71713 0.0023 0.0
C933 C 0.28181 0.74128 0.98873 0.0
C934 C 0.27619 0.77731 0.99551 0.0
C935 C 0.25825 0.7865 0.00222 0.0
C936 C 0.24571 0.75825 0.00149 0.0
C937 C 0.25118 0.7213 0.99412 0.0
C938 C 0.26954 0.71271 0.98844 0.0
H939 H 0.55351 0.8249 0.38888 0.0
H940 H 0.5247 0.86427 0.30494 0.0
H941 H 0.55247 0.89214 0.28524 0.0
H942 H 0.58098 0.90279 0.39897 0.0
H943 H 0.60069 0.8757 0.41127 0.0
H944 H 0.57862 0.85852 0.41851 0.0
H945 H 0.58715 0.79794 0.38874 0.0
H946 H 0.60927 0.8149 0.38149 0.0
H947 H 0.59542 0.8008 0.34894 0.0
H948 H 0.58293 0.91943 0.27662 0.0
H949 H 0.61446 0.93937 0.27751 0.0
H950 H 0.62378 0.87841 0.36526 0.0
C951 C 0.55306 0.83928 0.3663 0.0
C952 C 0.53694 0.84262 0.34848 0.0
C953 C 0.53693 0.86134 0.31893 0.0
C954 C 0.55261 0.87733 0.3076 0.0
C955 C 0.56826 0.87381 0.32588 0.0
C956 C 0.56866 0.8548 0.35439 0.0
C957 C 0.58725 0.85455 0.36927 0.0
C958 C 0.58685 0.87406 0.4014 0.0
C959 C 0.59524 0.81467 0.37228 0.0
C960 C 0.59718 0.87688 0.34492 0.0
C961 C 0.58597 0.88799 0.32018 0.0
C962 C 0.5919 0.91048 0.29566 0.0
C963 C 0.60979 0.92176 0.29641 0.0
C964 C 0.62157 0.9101 0.32126 0.0
C965 C 0.61515 0.88724 0.34569 0.0
H966 H 0.60416 0.63596 0.85669 0.0
H967 H 0.61494 0.69916 0.94111 0.0
H968 H 0.58252 0.70132 0.95333 0.0
H969 H 0.56287 0.68431 0.83538 0.0
H970 H 0.55211 0.64335 0.82152 0.0
H971 H 0.57623 0.64614 0.81966 0.0
H972 H 0.57995 0.58479 0.85196 0.0
H973 H 0.55585 0.58175 0.85384 0.0
H974 H 0.56907 0.58097 0.88968 0.0
H975 H 0.54888 0.6972 0.95611 0.0
H976 H 0.51645 0.68642 0.94954 0.0
H977 H 0.52764 0.62614 0.86322 0.0
C978 C 0.59973 0.65014 0.87782 0.0
C979 C 0.61211 0.66738 0.89795 0.0
C980 C 0.60573 0.68574 0.92531 0.0
C981 C 0.58733 0.68714 0.93247 0.0
C982 C 0.57548 0.67005 0.91204 0.0
C983 C 0.58142 0.65185 0.8853 0.0
C984 C 0.56588 0.63597 0.86715 0.0
C985 C 0.56418 0.6535 0.83397 0.0
C986 C 0.56781 0.59334 0.86558 0.0
C987 C 0.55028 0.64815 0.88783 0.0
C988 C 0.5561 0.66776 0.9136 0.0
C989 C 0.54416 0.68186 0.93603 0.0
C990 C 0.52576 0.67562 0.93207 0.0
C991 C 0.51949 0.65548 0.90586 0.0
C992 C 0.53198 0.6417 0.88348 0.0
H993 H 0.9092 0.06143 0.07722 0.0
H994 H 0.91975 0.17601 0.10018 0.0
H995 H 0.88837 0.19422 0.0862 0.0
H996 H 0.87986 0.08171 0.01039 0.0
H997 H 0.86509 0.04435 0.01914 0.0
H998 H 0.88848 0.04038 0.0305 0.0
H999 H 0.87936 0.02805 0.08847 0.0
H1000 H 0.85595 0.03198 0.0773 0.0
H1001 H 0.86452 0.06098 0.10801 0.0
H1002 H 0.85569 0.19985 0.07065 0.0
H1003 H 0.82405 0.19248 0.05451 0.0
H1004 H 0.83482 0.0743 0.04148 0.0
C1005 C 0.90495 0.09038 0.07923 0.0
C1006 C 0.91697 0.11728 0.08981 0.0
C1007 C 0.91081 0.15487 0.09214 0.0
C1008 C 0.89301 0.16551 0.08423 0.0
C1009 C 0.88151 0.13828 0.07399 0.0
C1010 C 0.88722 0.1015 0.07142 0.0
C1011 C 0.8721 0.07766 0.06012 0.0
C1012 C 0.87666 0.05999 0.02814 0.0
C1013 C 0.86773 0.04792 0.08496 0.0
C1014 C 0.85697 0.10675 0.05688 0.0
C1015 C 0.86269 0.14154 0.06495 0.0
C1016 C 0.85107 0.17275 0.06419 0.0
C1017 C 0.83311 0.16827 0.055 0.0
C1018 C 0.82694 0.13284 0.04668 0.0
C1019 C 0.83911 0.10178 0.04759 0.0
H1020 H 0.91816 0.45903 0.4933 0.0
H1021 H 0.86822 0.49839 0.53598 0.0
H1022 H 0.88552 0.5311 0.57648 0.0
H1023 H 0.94349 0.44446 0.56609 0.0
H1024 H 0.96417 0.46035 0.54959 0.0
H1025 H 0.94787 0.43899 0.52458 0.0
H1026 H 0.94697 0.49705 0.48785 0.0
H1027 H 0.9633 0.51852 0.51269 0.0
H1028 H 0.94202 0.54223 0.50429 0.0
H1029 H 0.90828 0.56095 0.6115 0.0
H1030 H 0.93478 0.58674 0.63778 0.0
H1031 H 0.96985 0.52786 0.57219 0.0
C1032 C 0.91085 0.47434 0.51126 0.0
C1033 C 0.89182 0.47607 0.51149 0.0
C1034 C 0.88278 0.49663 0.53531 0.0
C1035 C 0.89249 0.51525 0.55847 0.0
C1036 C 0.91123 0.51303 0.55751 0.0
C1037 C 0.92032 0.49314 0.5345 0.0
C1038 C 0.94051 0.49603 0.53823 0.0
C1039 C 0.94954 0.45767 0.54503 0.0
C1040 C 0.94867 0.51457 0.50903 0.0
C1041 C 0.94136 0.52088 0.56679 0.0
C1042 C 0.92433 0.53025 0.57764 0.0
C1043 C 0.92168 0.55365 0.60331 0.0
C1044 C 0.93683 0.56815 0.61809 0.0
C1045 C 0.95441 0.55924 0.60715 0.0
C1046 C 0.95662 0.53501 0.58131 0.0
H1047 H 0.59979 0.14167 0.21178 0.0
H1048 H 0.64627 0.17857 0.16016 0.0
H1049 H 0.62617 0.20354 0.11779 0.0
H1050 H 0.57361 0.11457 0.14367 0.0
H1051 H 0.55252 0.13085 0.16014 0.0
H1052 H 0.57061 0.11463 0.18585 0.0
H1053 H 0.5691 0.17732 0.21545 0.0
H1054 H 0.55101 0.1937 0.18988 0.0
H1055 H 0.57107 0.22012 0.19348 0.0
H1056 H 0.60099 0.22608 0.08184 0.0
H1057 H 0.57252 0.24551 0.05523 0.0
H1058 H 0.54247 0.19396 0.13042 0.0
C1059 C 0.60578 0.15479 0.19149 0.0
C1060 C 0.62462 0.15812 0.18929 0.0
C1061 C 0.63188 0.17569 0.1624 0.0
C1062 C 0.62058 0.18989 0.13817 0.0
C1063 C 0.60206 0.18626 0.14117 0.0
C1064 C 0.59471 0.16915 0.16714 0.0
C1065 C 0.57434 0.16977 0.16504 0.0
C1066 C 0.56736 0.13009 0.16358 0.0
C1067 C 0.56589 0.19153 0.19259 0.0
C1068 C 0.57138 0.19024 0.13396 0.0
C1069 C 0.58755 0.19933 0.1205 0.0
C1070 C 0.58825 0.21898 0.09209 0.0
C1071 C 0.57199 0.22991 0.07716 0.0
C1072 C 0.55525 0.22125 0.09069 0.0
C1073 C 0.55503 0.20086 0.11936 0.0
H1074 H 0.91288 0.54428 0.0125 0.0
H1075 H 0.96705 0.58034 0.03083 0.0
H1076 H 0.95457 0.63554 0.05823 0.0
H1077 H 0.89113 0.63939 0.00288 0.0
H1078 H 0.87101 0.62516 0.02247 0.0
H1079 H 0.88412 0.59212 0.99971 0.0
H1080 H 0.88672 0.54816 0.04846 0.0
H1081 H 0.87377 0.58105 0.07136 0.0
H1082 H 0.89581 0.56529 0.08489 0.0
H1083 H 0.93647 0.68096 0.09071 0.0
H1084 H 0.91413 0.71393 0.12416 0.0
H1085 H 0.87181 0.64887 0.08373 0.0
C1086 C 0.92213 0.56431 0.02146 0.0
C1087 C 0.94095 0.558 0.01945 0.0
C1088 C 0.95258 0.58464 0.03194 0.0
C1089 C 0.94561 0.61615 0.0475 0.0
C1090 C 0.92699 0.62084 0.05004 0.0
C1091 C 0.9154 0.59587 0.037 0.0
C1092 C 0.89604 0.6053 0.04547 0.0
C1093 C 0.88492 0.61615 0.01586 0.0
C1094 C 0.88761 0.57304 0.06363 0.0
C1095 C 0.89861 0.63851 0.06644 0.0
C1096 C 0.91652 0.64737 0.06848 0.0
C1097 C 0.92235 0.67484 0.08875 0.0
C1098 C 0.90958 0.69333 0.10774 0.0
C1099 C 0.89121 0.68422 0.10632 0.0
C1100 C 0.88569 0.657 0.08487 0.0
H1101 H 0.89807 0.94468 0.46093 0.0
H1102 H 0.86967 0.89343 0.38375 0.0
H1103 H 0.84071 0.91719 0.40533 0.0
H1104 H 0.86726 0.92378 0.52022 0.0
H1105 H 0.86946 0.96686 0.54099 0.0
H1106 H 0.88794 0.94839 0.51811 0.0
H1107 H 0.88869 0.01001 0.48604 0.0
H1108 H 0.87027 0.0288 0.50898 0.0
H1109 H 0.86849 0.02776 0.46656 0.0
H1110 H 0.81471 0.94291 0.43776 0.0
H1111 H 0.79395 0.97028 0.4772 0.0
H1112 H 0.8397 0.00479 0.53259 0.0
C1113 C 0.8858 0.93883 0.44826 0.0
C1114 C 0.88615 0.9172 0.42061 0.0
C1115 C 0.86975 0.91006 0.4049 0.0
C1116 C 0.85324 0.9234 0.417 0.0
C1117 C 0.85338 0.94404 0.44468 0.0
C1118 C 0.86927 0.95196 0.45994 0.0
C1119 C 0.86579 0.97356 0.48987 0.0
C1120 C 0.87304 0.95184 0.51901 0.0
C1121 C 0.87378 0.01233 0.48772 0.0
C1122 C 0.84544 0.97601 0.48942 0.0
C1123 C 0.8385 0.95895 0.46314 0.0
C1124 C 0.82001 0.95662 0.45827 0.0
C1125 C 0.80832 0.97214 0.48087 0.0
C1126 C 0.81519 0.98974 0.50797 0.0
C1127 C 0.834 0.99176 0.51206 0.0
H1128 H 0.62994 0.41605 0.66571 0.0
H1129 H 0.65488 0.33524 0.60279 0.0
H1130 H 0.62603 0.33019 0.57429 0.0
H1131 H 0.58742 0.37293 0.67135 0.0
H1132 H 0.57447 0.4162 0.67186 0.0
H1133 H 0.5972 0.41413 0.68695 0.0
H1134 H 0.60559 0.46732 0.64871 0.0
H1135 H 0.58287 0.46962 0.63355 0.0
H1136 H 0.60148 0.46256 0.60699 0.0
H1137 H 0.59438 0.33315 0.5531 0.0
H1138 H 0.56216 0.34435 0.54044 0.0
H1139 H 0.55785 0.42317 0.61717 0.0
C1140 C 0.62937 0.39739 0.64586 0.0
C1141 C 0.6447 0.37604 0.63649 0.0
C1142 C 0.64334 0.35189 0.61043 0.0
C1143 C 0.62701 0.34882 0.59407 0.0
C1144 C 0.61215 0.37009 0.60403 0.0
C1145 C 0.61317 0.39395 0.62927 0.0
C1146 C 0.59516 0.41344 0.63534 0.0
C1147 C 0.58815 0.40357 0.66833 0.0
C1148 C 0.59635 0.45574 0.63087 0.0
C1149 C 0.58384 0.39668 0.60964 0.0
C1150 C 0.5939 0.37177 0.59182 0.0
C1151 C 0.58636 0.35264 0.56685 0.0
C1152 C 0.56805 0.35918 0.55987 0.0
C1153 C 0.55747 0.38462 0.5778 0.0
C1154 C 0.56555 0.40355 0.603 0.0
H1155 H 0.71918 0.98258 0.7324 0.0
H1156 H 0.77517 0.97477 0.70401 0.0
H1157 H 0.7787 0.91403 0.73143 0.0
H1158 H 0.72532 0.94187 0.80932 0.0
H1159 H 0.7046 0.91732 0.80806 0.0
H1160 H 0.70652 0.96008 0.78613 0.0
H1161 H 0.69755 0.92662 0.73477 0.0
H1162 H 0.69562 0.88373 0.75654 0.0
H1163 H 0.71022 0.88558 0.72283 0.0
H1164 H 0.77626 0.85478 0.76308 0.0
H1165 H 0.76786 0.80078 0.79555 0.0
H1166 H 0.71326 0.84678 0.80188 0.0
C1167 C 0.7322 0.96815 0.73195 0.0
C1168 C 0.74692 0.98348 0.71614 0.0
C1169 C 0.7637 0.96357 0.71597 0.0
C1170 C 0.76584 0.92906 0.73149 0.0
C1171 C 0.75105 0.91476 0.74686 0.0
C1172 C 0.73453 0.93361 0.7471 0.0
C1173 C 0.72075 0.9121 0.7652 0.0
C1174 C 0.7139 0.93416 0.79388 0.0
C1175 C 0.70511 0.90137 0.74354 0.0
C1176 C 0.73211 0.87829 0.77529 0.0
C1177 C 0.74956 0.88038 0.76455 0.0
C1178 C 0.76262 0.85275 0.77149 0.0
C1179 C 0.75772 0.82222 0.78997 0.0
C1180 C 0.73989 0.81948 0.80114 0.0
C1181 C 0.72696 0.8479 0.7935 0.0
H1182 H 0.20601 0.88507 0.578 0.0
H1183 H 0.25863 0.93319 0.58533 0.0
H1184 H 0.27121 0.87371 0.60685 0.0
H1185 H 0.20924 0.82959 0.64947 0.0
H1186 H 0.19765 0.79117 0.63277 0.0
H1187 H 0.19272 0.8378 0.61862 0.0
H1188 H 0.20005 0.81726 0.56155 0.0
H1189 H 0.20499 0.77059 0.57552 0.0
H1190 H 0.22159 0.795 0.55342 0.0
H1191 H 0.27814 0.80862 0.6269 0.0
H1192 H 0.27899 0.74255 0.64324 0.0
H1193 H 0.22185 0.73706 0.62245 0.0
C1194 C 0.22017 0.8832 0.58423 0.0
C1195 C 0.23133 0.91383 0.58001 0.0
C1196 C 0.24981 0.91012 0.58835 0.0
C1197 C 0.25708 0.87646 0.60063 0.0
C1198 C 0.24571 0.84679 0.60442 0.0
C1199 C 0.22765 0.84983 0.59644 0.0
C1200 C 0.2184 0.81359 0.60227 0.0
C1201 C 0.20363 0.81834 0.62727 0.0
C1202 C 0.21082 0.79821 0.57135 0.0
C1203 C 0.23409 0.78962 0.61463 0.0
C1204 C 0.24971 0.80931 0.6158 0.0
C1205 C 0.26598 0.79294 0.62614 0.0
C1206 C 0.26632 0.75537 0.63537 0.0
C1207 C 0.25049 0.73457 0.63414 0.0
C1208 C 0.23418 0.75215 0.62373 0.0
H1209 H 0.28697 0.36743 0.66468 0.0
H1210 H 0.24235 0.36066 0.5986 0.0
H1211 H 0.25985 0.31466 0.56759 0.0
H1212 H 0.32384 0.35236 0.60524 0.0
H1213 H 0.33731 0.32516 0.6331 0.0
H1214 H 0.32255 0.36231 0.64676 0.0
H1215 H 0.30717 0.31596 0.68438 0.0
H1216 H 0.32176 0.2788 0.6707 0.0
H1217 H 0.29769 0.27468 0.66834 0.0
H1218 H 0.28026 0.26329 0.54819 0.0
H1219 H 0.30179 0.21009 0.54247 0.0
H1220 H 0.33313 0.25029 0.62113 0.0
C1221 C 0.28105 0.35701 0.64324 0.0
C1222 C 0.26329 0.36766 0.63408 0.0
C1223 C 0.25594 0.35296 0.60609 0.0
C1224 C 0.26581 0.32693 0.58821 0.0
C1225 C 0.28309 0.31618 0.59841 0.0
C1226 C 0.29071 0.33099 0.62515 0.0
C1227 C 0.30876 0.31215 0.6328 0.0
C1228 C 0.32402 0.33963 0.62926 0.0
C1229 C 0.30883 0.29434 0.66601 0.0
C1230 C 0.30962 0.28304 0.60727 0.0
C1231 C 0.29489 0.28636 0.58723 0.0
C1232 C 0.29202 0.26081 0.56336 0.0
C1233 C 0.30432 0.23061 0.56033 0.0
C1234 C 0.31917 0.22601 0.5813 0.0
C1235 C 0.32203 0.2532 0.60449 0.0
loop_
_geom_bond_atom_site_label_1
_geom_bond_atom_site_label_2
_geom_bond_distance
_geom_bond_site_symmetry_2
_ccdc_geom_bond_type
O0 Cd1 2.300 1_554 S
O0 C7 1.275 . S
Cd1 O0 2.300 1_556 S
Cd1 O9 2.381 . S
Cd1 O10 2.378 . S
O2 Cd3 2.385 1_454 S
O2 C7 1.255 . S
Cd3 O2 2.385 1_656 S
Cd3 O4 2.317 . S
O4 Cd3 2.317 . S
O4 C5 1.232 1_556 S
C5 O4 1.232 1_554 S
C5 O6 1.218 . S
O6 C5 1.218 . S
C7 O0 1.275 . S
C7 O2 1.255 . S
C8 O9 1.258 . S
C8 O10 1.256 . S
O9 Cd1 2.381 . S
O9 C8 1.258 . S
O10 Cd1 2.378 . S
O10 C8 1.256 . S
O11 Cd12 2.300 . S
O11 C18 1.275 . S
Cd12 O11 2.300 . S
Cd12 O20 2.381 . S
Cd12 O21 2.378 . S
O13 Cd14 2.385 . S
O13 C18 1.255 1_655 S
Cd14 O13 2.385 . S
Cd14 O15 2.317 . S
O15 Cd14 2.317 . S
O15 C16 1.232 . S
C16 O15 1.232 . S
C16 O17 1.218 . S
O17 C16 1.218 . S
C18 O11 1.275 . S
C18 O13 1.255 1_455 S
C19 O20 1.258 . S
C19 O21 1.256 . S
O20 Cd12 2.381 . S
O20 C19 1.258 . S
O21 Cd12 2.378 . S
O21 C19 1.256 . S
O22 Cd23 2.300 . S
O22 C29 1.275 . S
Cd23 O22 2.300 . S
Cd23 O31 2.381 . S
Cd23 O32 2.378 . S
O24 Cd25 2.385 . S
O24 C29 1.255 . S
Cd25 O24 2.385 . S
Cd25 O26 2.317 . S
O26 Cd25 2.317 . S
O26 C27 1.232 . S
C27 O26 1.232 . S
C27 O28 1.218 . S
O28 C27 1.218 . S
C29 O22 1.275 . S
C29 O24 1.255 . S
C30 O31 1.258 . S
C30 O32 1.256 . S
O31 Cd23 2.381 . S
O31 C30 1.258 . S
O32 Cd23 2.378 . S
O32 C30 1.256 . S
O33 Cd34 2.300 . S
O33 C40 1.275 . S
Cd34 O33 2.300 . S
Cd34 O42 2.381 . S
Cd34 O43 2.378 . S
O35 Cd36 2.385 . S
O35 C40 1.255 . S
Cd36 O35 2.385 . S
Cd36 O37 2.317 1_556 S
O37 Cd36 2.317 1_554 S
O37 C38 1.232 . S
C38 O37 1.232 . S
C38 O39 1.218 . S
O39 C38 1.218 . S
C40 O33 1.275 . S
C40 O35 1.255 . S
C41 O42 1.258 . S
C41 O43 1.256 . S
O42 Cd34 2.381 . S
O42 C41 1.258 . S
O43 Cd34 2.378 . S
O43 C41 1.256 . S
O44 Cd45 2.300 . S
O44 C51 1.275 1_655 S
Cd45 O44 2.300 . S
Cd45 O53 2.381 . S
Cd45 O54 2.378 . S
O46 Cd47 2.385 . S
O46 C51 1.255 . S
Cd47 O46 2.385 . S
Cd47 O48 2.317 . S
O48 Cd47 2.317 . S
O48 C49 1.232 . S
C49 O48 1.232 . S
C49 O50 1.218 . S
O50 C49 1.218 . S
C51 O44 1.275 1_455 S
C51 O46 1.255 . S
C52 O53 1.258 . S
C52 O54 1.256 . S
O53 Cd45 2.381 . S
O53 C52 1.258 . S
O54 Cd45 2.378 . S
O54 C52 1.256 . S
O55 Cd56 2.300 . S
O55 C62 1.275 . S
Cd56 O55 2.300 . S
Cd56 O64 2.381 . S
Cd56 O65 2.378 . S
O57 Cd58 2.385 . S
O57 C62 1.255 . S
Cd58 O57 2.385 . S
Cd58 O59 2.317 . S
O59 Cd58 2.317 . S
O59 C60 1.232 . S
C60 O59 1.232 . S
C60 O61 1.218 . S
O61 C60 1.218 . S
C62 O55 1.275 . S
C62 O57 1.255 . S
C63 O64 1.258 . S
C63 O65 1.256 . S
O64 Cd56 2.381 . S
O64 C63 1.258 . S
O65 Cd56 2.378 . S
O65 C63 1.256 . S
O66 Cd67 2.300 1_554 S
O66 C73 1.279 . S
Cd67 O66 2.300 1_556 S
Cd67 O75 2.381 . S
Cd67 O76 2.378 . S
O68 Cd69 2.385 . S
O68 C73 1.239 1_556 S
Cd69 O68 2.385 . S
Cd69 O70 2.317 . S
O70 Cd69 2.317 . S
O70 C71 1.232 . S
C71 O70 1.232 . S
C71 O72 1.218 . S
O72 C71 1.218 . S
C73 O66 1.279 . S
C73 O68 1.239 1_554 S
C74 O75 1.258 . S
C74 O76 1.256 . S
O75 Cd67 2.381 . S
O75 C74 1.258 . S
O76 Cd67 2.378 . S
O76 C74 1.256 . S
O77 Cd78 2.300 . S
O77 C84 1.275 . S
Cd78 O77 2.300 . S
Cd78 O86 2.381 . S
Cd78 O87 2.378 . S
O79 Cd80 2.385 . S
O79 C84 1.255 1_655 S
Cd80 O79 2.385 . S
Cd80 O81 2.317 . S
O81 Cd80 2.317 . S
O81 C82 1.232 . S
C82 O81 1.232 . S
C82 O83 1.218 . S
O83 C82 1.218 . S
C84 O77 1.275 . S
C84 O79 1.255 1_455 S
C85 O86 1.258 . S
C85 O87 1.256 . S
O86 Cd78 2.381 . S
O86 C85 1.258 . S
O87 Cd78 2.378 . S
O87 C85 1.256 . S
O88 Cd89 2.300 . S
O88 C95 1.275 1_565 S
Cd89 O88 2.300 . S
Cd89 O97 2.381 . S
Cd89 O98 2.378 . S
O90 Cd91 2.385 . S
O90 C95 1.255 . S
Cd91 O90 2.385 . S
Cd91 O92 2.317 . S
O92 Cd91 2.317 . S
O92 C93 1.232 . S
C93 O92 1.232 . S
C93 O94 1.218 . S
O94 C93 1.218 . S
C95 O88 1.275 1_545 S
C95 O90 1.255 . S
C96 O97 1.258 . S
C96 O98 1.256 . S
O97 Cd89 2.381 . S
O97 C96 1.258 . S
O98 Cd89 2.378 . S
O98 C96 1.256 . S
O99 Cd100 2.300 . S
O99 C106 1.275 . S
Cd100 O99 2.300 . S
Cd100 O108 2.381 . S
Cd100 O109 2.378 . S
O101 Cd102 2.385 . S
O101 C106 1.255 . S
Cd102 O101 2.385 . S
Cd102 O103 2.317 . S
O103 Cd102 2.317 . S
O103 C104 1.232 . S
C104 O103 1.232 . S
C104 O105 1.218 . S
O105 C104 1.218 . S
C106 O99 1.275 . S
C106 O101 1.255 . S
C107 O108 1.258 . S
C107 O109 1.256 . S
O108 Cd100 2.381 . S
O108 C107 1.258 . S
O109 Cd100 2.378 . S
O109 C107 1.256 . S
O110 Cd111 2.300 . S
O110 C117 1.275 . S
Cd111 O110 2.300 . S
Cd111 O119 2.381 . S
Cd111 O120 2.378 . S
O112 Cd113 2.385 . S
O112 C117 1.255 . S
Cd113 O112 2.385 . S
Cd113 O114 2.317 1_565 S
O114 Cd113 2.317 1_545 S
O114 C115 1.232 . S
C115 O114 1.232 . S
C115 O116 1.218 . S
O116 C115 1.218 . S
C117 O110 1.275 . S
C117 O112 1.255 . S
C118 O119 1.258 . S
C118 O120 1.256 . S
O119 Cd111 2.381 . S
O119 C118 1.258 . S
O120 Cd111 2.378 . S
O120 C118 1.256 . S
O121 Cd122 2.300 1_556 S
O121 C128 1.275 . S
Cd122 O121 2.300 1_554 S
Cd122 O130 2.381 . S
Cd122 O131 2.378 . S
O123 Cd124 2.385 . S
O123 C128 1.255 . S
Cd124 O123 2.385 . S
Cd124 O125 2.317 . S
O125 Cd124 2.317 . S
O125 C126 1.232 . S
C126 O125 1.232 . S
C126 O127 1.218 . S
O127 C126 1.218 . S
C128 O121 1.275 . S
C128 O123 1.255 . S
C129 O130 1.258 . S
C129 O131 1.256 . S
O130 Cd122 2.381 . S
O130 C129 1.258 . S
O131 Cd122 2.378 . S
O131 C129 1.256 . S
O132 Cd133 2.300 . S
O132 C139 1.275 . S
Cd133 O132 2.300 . S
Cd133 O141 2.381 1_565 S
Cd133 O142 2.378 1_565 S
O134 Cd135 2.385 . S
O134 C139 1.255 . S
Cd135 O134 2.385 . S
Cd135 O136 2.317 . S
O136 Cd135 2.317 . S
O136 C137 1.232 . S
C137 O136 1.232 . S
C137 O138 1.218 . S
O138 C137 1.218 . S
C139 O132 1.275 . S
C139 O134 1.255 . S
C140 O141 1.258 . S
C140 O142 1.256 . S
O141 Cd133 2.381 1_545 S
O141 C140 1.258 . S
O142 Cd133 2.378 1_545 S
O142 C140 1.256 . S
O143 Cd144 2.300 . S
O143 C150 1.275 . S
Cd144 O143 2.300 . S
Cd144 O152 2.381 . S
Cd144 O153 2.378 . S
O145 Cd146 2.385 . S
O145 C150 1.255 . S
Cd146 O145 2.385 . S
Cd146 O147 2.317 . S
O147 Cd146 2.317 . S
O147 C148 1.232 . S
C148 O147 1.232 . S
C148 O149 1.218 . S
O149 C148 1.218 . S
C150 O143 1.275 . S
C150 O145 1.255 . S
C151 O152 1.258 . S
C151 O153 1.256 . S
O152 Cd144 2.381 . S
O152 C151 1.258 . S
O153 Cd144 2.378 . S
O153 C151 1.256 . S
O154 Cd155 2.300 . S
O154 C161 1.275 . S
Cd155 O154 2.300 . S
Cd155 O163 2.381 . S
Cd155 O164 2.378 . S
O156 Cd157 2.385 . S
O156 C161 1.255 . S
Cd157 O156 2.385 . S
Cd157 O158 2.317 1_545 S
O158 Cd157 2.317 1_565 S
O158 C159 1.232 . S
C159 O158 1.232 . S
C159 O160 1.218 . S
O160 C159 1.218 . S
C161 O154 1.275 . S
C161 O156 1.255 . S
C162 O163 1.258 . S
C162 O164 1.256 . S
O163 Cd155 2.381 . S
O163 C162 1.258 . S
O164 Cd155 2.378 . S
O164 C162 1.256 . S
O165 Cd166 2.300 . S
O165 C172 1.275 . S
Cd166 O165 2.300 . S
Cd166 O174 2.381 . S
Cd166 O175 2.378 . S
O167 Cd168 2.385 . S
O167 C172 1.255 . S
Cd168 O167 2.385 . S
Cd168 O169 2.317 . S
O169 Cd168 2.317 . S
O169 C170 1.232 . S
C170 O169 1.232 . S
C170 O171 1.218 . S
O171 C170 1.218 . S
C172 O165 1.275 . S
C172 O167 1.255 . S
C173 O174 1.258 . S
C173 O175 1.256 . S
O174 Cd166 2.381 . S
O174 C173 1.258 . S
O175 Cd166 2.378 . S
O175 C173 1.256 . S
O176 Cd177 2.300 . S
O176 C183 1.275 . S
Cd177 O176 2.300 . S
Cd177 O185 2.381 . S
Cd177 O186 2.375 1_554 S
O178 Cd179 2.385 1_554 S
O178 C183 1.255 . S
Cd179 O178 2.385 1_556 S
Cd179 O180 2.317 . S
O180 Cd179 2.317 . S
O180 C181 1.232 . S
C181 O180 1.232 . S
C181 O182 1.218 . S
O182 C181 1.218 . S
C183 O176 1.275 . S
C183 O178 1.255 . S
C184 O185 1.258 . S
C184 O186 1.241 1_554 S
O185 Cd177 2.381 . S
O185 C184 1.258 . S
O186 Cd177 2.375 1_556 S
O186 C184 1.241 1_556 S
O187 Cd188 2.300 . S
O187 C194 1.275 . S
Cd188 O187 2.300 . S
Cd188 O196 2.381 . S
Cd188 O197 2.378 . S
O189 Cd190 2.385 . S
O189 C194 1.255 . S
Cd190 O189 2.385 . S
Cd190 O191 2.317 . S
O191 Cd190 2.317 . S
O191 C192 1.232 . S
C192 O191 1.232 . S
C192 O193 1.218 . S
O193 C192 1.218 . S
C194 O187 1.275 . S
C194 O189 1.255 . S
C195 O196 1.258 . S
C195 O197 1.256 . S
O196 Cd188 2.381 . S
O196 C195 1.258 . S
O197 Cd188 2.378 . S
O197 C195 1.256 . S
O198 Cd199 2.300 . S
O198 C205 1.275 . S
Cd199 O198 2.300 . S
Cd199 O207 2.381 . S
Cd199 O208 2.378 . S
O200 Cd201 2.385 . S
O200 C205 1.255 . S
Cd201 O200 2.385 . S
Cd201 O202 2.317 . S
O202 Cd201 2.317 . S
O202 C203 1.232 . S
C203 O202 1.232 . S
C203 O204 1.218 . S
O204 C203 1.218 . S
C205 O198 1.275 . S
C205 O200 1.255 . S
C206 O207 1.258 . S
C206 O208 1.256 . S
O207 Cd199 2.381 . S
O207 C206 1.258 . S
O208 Cd199 2.378 . S
O208 C206 1.256 . S
O209 Cd210 2.300 . S
O209 C216 1.275 . S
Cd210 O209 2.300 . S
Cd210 O218 2.381 . S
Cd210 O219 2.378 . S
O211 Cd212 2.385 . S
O211 C216 1.255 . S
Cd212 O211 2.385 . S
Cd212 O213 2.317 . S
O213 Cd212 2.317 . S
O213 C214 1.232 . S
C214 O213 1.232 . S
C214 O215 1.218 . S
O215 C214 1.218 . S
C216 O209 1.275 . S
C216 O211 1.255 . S
C217 O218 1.258 . S
C217 O219 1.256 . S
O218 Cd210 2.381 . S
O218 C217 1.258 . S
O219 Cd210 2.378 . S
O219 C217 1.256 . S
O220 Cd221 2.300 . S
O220 C227 1.275 . S
Cd221 O220 2.300 . S
Cd221 O229 2.381 . S
Cd221 O230 2.378 . S
O222 Cd223 2.385 . S
O222 C227 1.255 . S
Cd223 O222 2.385 . S
Cd223 O224 2.317 . S
O224 Cd223 2.317 . S
O224 C225 1.232 . S
C225 O224 1.232 . S
C225 O226 1.218 . S
O226 C225 1.218 . S
C227 O220 1.275 . S
C227 O222 1.255 . S
C228 O229 1.258 . S
C228 O230 1.256 . S
O229 Cd221 2.381 . S
O229 C228 1.258 . S
O230 Cd221 2.378 . S
O230 C228 1.256 . S
O231 Cd232 2.300 . S
O231 C238 1.275 . S
Cd232 O231 2.300 . S
Cd232 O240 2.381 . S
Cd232 O241 2.378 . S
O233 Cd234 2.385 . S
O233 C238 1.255 . S
Cd234 O233 2.385 . S
Cd234 O235 2.317 . S
O235 Cd234 2.317 . S
O235 C236 1.232 . S
C236 O235 1.232 . S
C236 O237 1.218 . S
O237 C236 1.218 . S
C238 O231 1.275 . S
C238 O233 1.255 . S
C239 O240 1.258 . S
C239 O241 1.256 . S
O240 Cd232 2.381 . S
O240 C239 1.258 . S
O241 Cd232 2.378 . S
O241 C239 1.256 . S
O242 Cd243 2.300 1_545 S
O242 C249 1.275 . S
Cd243 O242 2.300 1_565 S
Cd243 O251 2.381 . S
Cd243 O252 2.378 . S
O244 Cd245 2.385 . S
O244 C249 1.255 1_565 S
Cd245 O244 2.385 . S
Cd245 O246 2.317 . S
O246 Cd245 2.317 . S
O246 C247 1.232 1_565 S
C247 O246 1.232 1_545 S
C247 O248 1.215 1_545 S
O248 C247 1.215 1_565 S
C249 O242 1.275 . S
C249 O244 1.255 1_545 S
C250 O251 1.258 . S
C250 O252 1.256 . S
O251 Cd243 2.381 . S
O251 C250 1.258 . S
O252 Cd243 2.378 . S
O252 C250 1.256 . S
O253 Cd254 2.300 . S
O253 C260 1.275 . S
Cd254 O253 2.300 . S
Cd254 O262 2.381 . S
Cd254 O263 2.378 . S
O255 Cd256 2.385 . S
O255 C260 1.255 . S
Cd256 O255 2.385 . S
Cd256 O257 2.317 . S
O257 Cd256 2.317 . S
O257 C258 1.232 . S
C258 O257 1.232 . S
C258 O259 1.218 . S
O259 C258 1.218 . S
C260 O253 1.275 . S
C260 O255 1.255 . S
C261 O262 1.258 . S
C261 O263 1.256 . S
O262 Cd254 2.381 . S
O262 C261 1.258 . S
O263 Cd254 2.378 . S
O263 C261 1.256 . S
H264 C276 0.930 . S
H265 C278 0.930 . S
H266 C279 0.930 . S
H267 C283 0.959 . S
H268 C283 0.959 . S
H269 C283 0.961 . S
H270 C284 0.960 . S
H271 C284 0.961 . S
H272 C284 0.959 . S
H273 C287 0.965 . S
H274 C288 0.930 1_655 S
H275 C290 0.930 . S
C276 H264 0.930 . S
C276 C277 1.399 . S
C276 C281 1.399 . S
C277 C276 1.399 . S
C277 C278 1.376 1_455 S
C278 H265 0.930 . S
C278 C277 1.376 1_655 S
C278 C279 1.388 . S
C279 H266 0.930 . S
C279 C278 1.388 . S
C279 C280 1.390 1_655 S
C280 C279 1.390 1_455 S
C280 C281 1.394 . S
C280 C286 1.465 . S
C281 C276 1.399 . S
C281 C280 1.394 . S
C281 C282 1.516 . S
C282 C281 1.516 . S
C282 C283 1.502 . S
C282 C284 1.561 . S
C282 C285 1.526 . S
C283 H267 0.959 . S
C283 H268 0.959 . S
C283 H269 0.961 . S
C283 C282 1.502 . S
C284 H270 0.960 . S
C284 H271 0.961 . S
C284 H272 0.959 . S
C284 C282 1.561 . S
C285 C282 1.526 . S
C285 C286 1.396 . S
C285 C290 1.390 . S
C286 C280 1.465 . S
C286 C285 1.396 . S
C286 C287 1.381 1_455 S
C287 H273 0.965 . S
C287 C286 1.381 1_655 S
C287 C288 1.369 1_655 S
C288 H274 0.930 1_455 S
C288 C287 1.369 1_455 S
C288 C289 1.389 . S
C289 C288 1.389 . S
C289 C290 1.387 . S
C290 H275 0.930 . S
C290 C285 1.390 . S
C290 C289 1.387 . S
H291 C303 0.930 . S
H292 C305 0.933 . S
H293 C306 0.929 1_655 S
H294 C310 0.959 . S
H295 C310 0.959 . S
H296 C310 0.961 . S
H297 C311 0.960 . S
H298 C311 0.961 . S
H299 C311 0.959 . S
H300 C314 0.930 . S
H301 C315 0.930 1_655 S
H302 C317 0.930 . S
C303 H291 0.930 . S
C303 C304 1.399 . S
C303 C308 1.399 . S
C304 C303 1.399 . S
C304 C305 1.376 . S
C305 H292 0.933 . S
C305 C304 1.376 . S
C305 C306 1.389 . S
C306 H293 0.929 1_455 S
C306 C305 1.389 . S
C306 C307 1.391 . S
C307 C306 1.391 . S
C307 C308 1.394 . S
C307 C313 1.465 . S
C308 C303 1.399 . S
C308 C307 1.394 . S
C308 C309 1.516 . S
C309 C308 1.516 . S
C309 C310 1.502 . S
C309 C311 1.561 1_455 S
C309 C312 1.526 . S
C310 H294 0.959 . S
C310 H295 0.959 . S
C310 H296 0.961 . S
C310 C309 1.502 . S
C311 H297 0.960 . S
C311 H298 0.961 . S
C311 H299 0.959 . S
C311 C309 1.561 1_655 S
C312 C309 1.526 . S
C312 C313 1.396 . S
C312 C317 1.390 . S
C313 C307 1.465 . S
C313 C312 1.396 . S
C313 C314 1.398 1_455 S
C314 H300 0.930 . S
C314 C313 1.398 1_655 S
C314 C315 1.382 1_655 S
C315 H301 0.930 1_455 S
C315 C314 1.382 1_455 S
C315 C316 1.394 . S
C316 C315 1.394 . S
C316 C317 1.387 . S
C317 H302 0.930 . S
C317 C312 1.390 . S
C317 C316 1.387 . S
H318 C330 0.930 . S
H319 C332 0.930 . S
H320 C333 0.930 . S
H321 C337 0.959 . S
H322 C337 0.959 . S
H323 C337 0.961 . S
H324 C338 0.960 . S
H325 C338 0.961 . S
H326 C338 0.959 . S
H327 C341 0.929 . S
H328 C342 0.931 . S
H329 C344 0.930 . S
C330 H318 0.930 . S
C330 C331 1.399 . S
C330 C335 1.399 . S
C331 C330 1.399 . S
C331 C332 1.376 . S
C332 H319 0.930 . S
C332 C331 1.376 . S
C332 C333 1.388 . S
C333 H320 0.930 . S
C333 C332 1.388 . S
C333 C334 1.390 . S
C334 C333 1.390 . S
C334 C335 1.394 . S
C334 C340 1.465 . S
C335 C330 1.399 . S
C335 C334 1.394 . S
C335 C336 1.516 . S
C336 C335 1.516 . S
C336 C337 1.502 . S
C336 C338 1.561 . S
C336 C339 1.526 . S
C337 H321 0.959 . S
C337 H322 0.959 . S
C337 H323 0.961 . S
C337 C336 1.502 . S
C338 H324 0.960 . S
C338 H325 0.961 . S
C338 H326 0.959 . S
C338 C336 1.561 . S
C339 C336 1.526 . S
C339 C340 1.396 . S
C339 C344 1.390 . S
C340 C334 1.465 . S
C340 C339 1.396 . S
C340 C341 1.399 . S
C341 H327 0.929 . S
C341 C340 1.399 . S
C341 C342 1.385 . S
C342 H328 0.931 . S
C342 C341 1.385 . S
C342 C343 1.389 . S
C343 C342 1.389 . S
C343 C344 1.387 . S
C344 H329 0.930 . S
C344 C339 1.390 . S
C344 C343 1.387 . S
H345 C357 0.930 . S
H346 C359 0.930 . S
H347 C360 0.930 . S
H348 C364 0.959 . S
H349 C364 0.959 . S
H350 C364 0.961 . S
H351 C365 0.960 . S
H352 C365 0.961 . S
H353 C365 0.959 . S
H354 C368 0.929 . S
H355 C369 0.931 . S
H356 C371 0.930 . S
C357 H345 0.930 . S
C357 C358 1.399 1_556 S
C357 C362 1.399 . S
C358 C357 1.399 1_554 S
C358 C359 1.376 . S
C359 H346 0.930 . S
C359 C358 1.376 . S
C359 C360 1.388 . S
C360 H347 0.930 . S
C360 C359 1.388 . S
C360 C361 1.390 . S
C361 C360 1.390 . S
C361 C362 1.394 1_554 S
C361 C367 1.465 . S
C362 C357 1.399 . S
C362 C361 1.394 1_556 S
C362 C363 1.516 . S
C363 C362 1.516 . S
C363 C364 1.502 . S
C363 C365 1.561 . S
C363 C366 1.526 . S
C364 H348 0.959 . S
C364 H349 0.959 . S
C364 H350 0.961 . S
C364 C363 1.502 . S
C365 H351 0.960 . S
C365 H352 0.961 . S
C365 H353 0.959 . S
C365 C363 1.561 . S
C366 C363 1.526 . S
C366 C367 1.396 1_556 S
C366 C371 1.390 . S
C367 C361 1.465 . S
C367 C366 1.396 1_554 S
C367 C368 1.399 . S
C368 H354 0.929 . S
C368 C367 1.399 . S
C368 C369 1.385 . S
C369 H355 0.931 . S
C369 C368 1.385 . S
C369 C370 1.389 1_554 S
C370 C369 1.389 1_556 S
C370 C371 1.387 . S
C371 H356 0.930 . S
C371 C366 1.390 . S
C371 C370 1.387 . S
H372 C384 0.930 1_565 S
H373 C386 0.930 . S
H374 C387 0.930 . S
H375 C391 0.959 . S
H376 C391 0.959 . S
H377 C391 0.961 . S
H378 C392 0.960 . S
H379 C392 0.961 . S
H380 C392 0.959 . S
H381 C395 0.929 . S
H382 C396 0.931 . S
H383 C398 0.930 . S
C384 H372 0.930 1_545 S
C384 C385 1.399 . S
C384 C389 1.399 . S
C385 C384 1.399 . S
C385 C386 1.376 . S
C386 H373 0.930 . S
C386 C385 1.376 . S
C386 C387 1.388 . S
C387 H374 0.930 . S
C387 C386 1.388 . S
C387 C388 1.390 . S
C388 C387 1.390 . S
C388 C389 1.394 . S
C388 C394 1.465 . S
C389 C384 1.399 . S
C389 C388 1.394 . S
C389 C390 1.516 1_545 S
C390 C389 1.516 1_565 S
C390 C391 1.502 . S
C390 C392 1.561 . S
C390 C393 1.526 . S
C391 H375 0.959 . S
C391 H376 0.959 . S
C391 H377 0.961 . S
C391 C390 1.502 . S
C392 H378 0.960 . S
C392 H379 0.961 . S
C392 H380 0.959 . S
C392 C390 1.561 . S
C393 C390 1.526 . S
C393 C394 1.396 1_565 S
C393 C398 1.390 . S
C394 C388 1.465 . S
C394 C393 1.396 1_545 S
C394 C395 1.399 . S
C395 H381 0.929 . S
C395 C394 1.399 . S
C395 C396 1.385 . S
C396 H382 0.931 . S
C396 C395 1.385 . S
C396 C397 1.389 1_545 S
C397 C396 1.389 1_565 S
C397 C398 1.387 . S
C398 H383 0.930 . S
C398 C393 1.390 . S
C398 C397 1.387 . S
H399 C411 0.930 . S
H400 C413 0.930 . S
H401 C414 0.930 . S
H402 C418 0.959 . S
H403 C418 0.959 . S
H404 C418 0.961 . S
H405 C419 0.960 . S
H406 C419 0.961 . S
H407 C419 0.959 . S
H408 C422 0.929 . S
H409 C423 0.931 . S
H410 C425 0.930 . S
C411 H399 0.930 . S
C411 C412 1.399 . S
C411 C416 1.399 . S
C412 C411 1.399 . S
C412 C413 1.376 . S
C413 H400 0.930 . S
C413 C412 1.376 . S
C413 C414 1.388 . S
C414 H401 0.930 . S
C414 C413 1.388 . S
C414 C415 1.390 . S
C415 C414 1.390 . S
C415 C416 1.394 . S
C415 C421 1.465 . S
C416 C411 1.399 . S
C416 C415 1.394 . S
C416 C417 1.516 . S
C417 C416 1.516 . S
C417 C418 1.502 . S
C417 C419 1.561 . S
C417 C420 1.526 . S
C418 H402 0.959 . S
C418 H403 0.959 . S
C418 H404 0.961 . S
C418 C417 1.502 . S
C419 H405 0.960 . S
C419 H406 0.961 . S
C419 H407 0.959 . S
C419 C417 1.561 . S
C420 C417 1.526 . S
C420 C421 1.396 . S
C420 C425 1.390 . S
C421 C415 1.465 . S
C421 C420 1.396 . S
C421 C422 1.399 . S
C422 H408 0.929 . S
C422 C421 1.399 . S
C422 C423 1.385 . S
C423 H409 0.931 . S
C423 C422 1.385 . S
C423 C424 1.389 . S
C424 C423 1.389 . S
C424 C425 1.387 . S
C425 H410 0.930 . S
C425 C420 1.390 . S
C425 C424 1.387 . S
H426 C438 0.930 . S
H427 C440 0.930 . S
H428 C441 0.930 . S
H429 C445 0.959 . S
H430 C445 0.959 . S
H431 C445 0.961 . S
H432 C446 0.960 . S
H433 C446 0.961 . S
H434 C446 0.959 . S
H435 C449 0.929 . S
H436 C450 0.931 . S
H437 C452 0.930 . S
C438 H426 0.930 . S
C438 C439 1.399 1_545 S
C438 C443 1.399 . S
C439 C438 1.399 1_565 S
C439 C440 1.376 . S
C440 H427 0.930 . S
C440 C439 1.376 . S
C440 C441 1.388 . S
C441 H428 0.930 . S
C441 C440 1.388 . S
C441 C442 1.390 . S
C442 C441 1.390 . S
C442 C443 1.394 1_565 S
C442 C448 1.465 . S
C443 C438 1.399 . S
C443 C442 1.394 1_545 S
C443 C444 1.516 . S
C444 C443 1.516 . S
C444 C445 1.502 . S
C444 C446 1.561 . S
C444 C447 1.526 . S
C445 H429 0.959 . S
C445 H430 0.959 . S
C445 H431 0.961 . S
C445 C444 1.502 . S
C446 H432 0.960 . S
C446 H433 0.961 . S
C446 H434 0.959 . S
C446 C444 1.561 . S
C447 C444 1.526 . S
C447 C448 1.396 1_545 S
C447 C452 1.390 . S
C448 C442 1.465 . S
C448 C447 1.396 1_565 S
C448 C449 1.399 . S
C449 H435 0.929 . S
C449 C448 1.399 . S
C449 C450 1.385 . S
C450 H436 0.931 . S
C450 C449 1.385 . S
C450 C451 1.389 1_565 S
C451 C450 1.389 1_545 S
C451 C452 1.387 . S
C452 H437 0.930 . S
C452 C447 1.390 . S
C452 C451 1.387 . S
H453 C465 0.930 . S
H454 C467 0.930 . S
H455 C468 0.930 . S
H456 C472 0.959 . S
H457 C472 0.959 . S
H458 C472 0.961 . S
H459 C473 0.960 . S
H460 C473 0.961 . S
H461 C473 0.959 . S
H462 C476 0.929 . S
H463 C477 0.931 . S
H464 C479 0.930 . S
C465 H453 0.930 . S
C465 C466 1.399 . S
C465 C470 1.399 . S
C466 C465 1.399 . S
C466 C467 1.376 . S
C467 H454 0.930 . S
C467 C466 1.376 . S
C467 C468 1.388 . S
C468 H455 0.930 . S
C468 C467 1.388 . S
C468 C469 1.390 . S
C469 C468 1.390 . S
C469 C470 1.394 . S
C469 C475 1.465 . S
C470 C465 1.399 . S
C470 C469 1.394 . S
C470 C471 1.516 . S
C471 C470 1.516 . S
C471 C472 1.502 . S
C471 C473 1.561 . S
C471 C474 1.526 . S
C472 H456 0.959 . S
C472 H457 0.959 . S
C472 H458 0.961 . S
C472 C471 1.502 . S
C473 H459 0.960 . S
C473 H460 0.961 . S
C473 H461 0.959 . S
C473 C471 1.561 . S
C474 C471 1.526 . S
C474 C475 1.396 . S
C474 C479 1.390 . S
C475 C469 1.465 . S
C475 C474 1.396 . S
C475 C476 1.399 . S
C476 H462 0.929 . S
C476 C475 1.399 . S
C476 C477 1.385 . S
C477 H463 0.931 . S
C477 C476 1.385 . S
C477 C478 1.389 . S
C478 C477 1.389 . S
C478 C479 1.387 . S
C479 H464 0.930 . S
C479 C474 1.390 . S
C479 C478 1.387 . S
H480 C492 0.930 . S
H481 C494 0.930 . S
H482 C495 0.930 . S
H483 C499 0.959 . S
H484 C499 0.959 . S
H485 C499 0.961 . S
H486 C500 0.960 . S
H487 C500 0.961 . S
H488 C500 0.959 . S
H489 C503 0.929 . S
H490 C504 0.931 . S
H491 C506 0.930 . S
C492 H480 0.930 . S
C492 C493 1.399 . S
C492 C497 1.399 . S
C493 C492 1.399 . S
C493 C494 1.376 . S
C494 H481 0.930 . S
C494 C493 1.376 . S
C494 C495 1.388 . S
C495 H482 0.930 . S
C495 C494 1.388 . S
C495 C496 1.390 . S
C496 C495 1.390 . S
C496 C497 1.394 . S
C496 C502 1.465 . S
C497 C492 1.399 . S
C497 C496 1.394 . S
C497 C498 1.516 . S
C498 C497 1.516 . S
C498 C499 1.502 . S
C498 C500 1.561 . S
C498 C501 1.526 . S
C499 H483 0.959 . S
C499 H484 0.959 . S
C499 H485 0.961 . S
C499 C498 1.502 . S
C500 H486 0.960 . S
C500 H487 0.961 . S
C500 H488 0.959 . S
C500 C498 1.561 . S
C501 C498 1.526 . S
C501 C502 1.396 . S
C501 C506 1.390 . S
C502 C496 1.465 . S
C502 C501 1.396 . S
C502 C503 1.399 . S
C503 H489 0.929 . S
C503 C502 1.399 . S
C503 C504 1.385 . S
C504 H490 0.931 . S
C504 C503 1.385 . S
C504 C505 1.389 . S
C505 C504 1.389 . S
C505 C506 1.387 . S
C506 H491 0.930 . S
C506 C501 1.390 . S
C506 C505 1.387 . S
H507 C519 0.930 . S
H508 C521 0.930 . S
H509 C522 0.930 . S
H510 C526 0.959 . S
H511 C526 0.959 . S
H512 C526 0.961 . S
H513 C527 0.960 . S
H514 C527 0.961 . S
H515 C527 0.959 . S
H516 C530 0.929 . S
H517 C531 0.931 . S
H518 C533 0.930 . S
C519 H507 0.930 . S
C519 C520 1.399 . S
C519 C524 1.399 . S
C520 C519 1.399 . S
C520 C521 1.376 . S
C521 H508 0.930 . S
C521 C520 1.376 . S
C521 C522 1.388 . S
C522 H509 0.930 . S
C522 C521 1.388 . S
C522 C523 1.390 . S
C523 C522 1.390 . S
C523 C524 1.394 . S
C523 C529 1.465 . S
C524 C519 1.399 . S
C524 C523 1.394 . S
C524 C525 1.516 . S
C525 C524 1.516 . S
C525 C526 1.502 . S
C525 C527 1.561 . S
C525 C528 1.526 . S
C526 H510 0.959 . S
C526 H511 0.959 . S
C526 H512 0.961 . S
C526 C525 1.502 . S
C527 H513 0.960 . S
C527 H514 0.961 . S
C527 H515 0.959 . S
C527 C525 1.561 . S
C528 C525 1.526 . S
C528 C529 1.396 . S
C528 C533 1.390 . S
C529 C523 1.465 . S
C529 C528 1.396 . S
C529 C530 1.399 . S
C530 H516 0.929 . S
C530 C529 1.399 . S
C530 C531 1.385 . S
C531 H517 0.931 . S
C531 C530 1.385 . S
C531 C532 1.389 . S
C532 C531 1.389 . S
C532 C533 1.387 . S
C533 H518 0.930 . S
C533 C528 1.390 . S
C533 C532 1.387 . S
H534 C546 0.930 . S
H535 C548 0.930 . S
H536 C549 0.930 . S
H537 C553 0.959 . S
H538 C553 0.959 . S
H539 C553 0.961 . S
H540 C554 0.960 . S
H541 C554 0.961 . S
H542 C554 0.959 . S
H543 C557 0.929 . S
H544 C558 0.931 . S
H545 C560 0.930 . S
C546 H534 0.930 . S
C546 C547 1.399 1_545 S
C546 C551 1.399 . S
C547 C546 1.399 1_565 S
C547 C548 1.376 . S
C548 H535 0.930 . S
C548 C547 1.376 . S
C548 C549 1.388 . S
C549 H536 0.930 . S
C549 C548 1.388 . S
C549 C550 1.390 . S
C550 C549 1.390 . S
C550 C551 1.394 1_565 S
C550 C556 1.465 . S
C551 C546 1.399 . S
C551 C550 1.394 1_545 S
C551 C552 1.516 . S
C552 C551 1.516 . S
C552 C553 1.502 . S
C552 C554 1.561 . S
C552 C555 1.526 . S
C553 H537 0.959 . S
C553 H538 0.959 . S
C553 H539 0.961 . S
C553 C552 1.502 . S
C554 H540 0.960 . S
C554 H541 0.961 . S
C554 H542 0.959 . S
C554 C552 1.561 . S
C555 C552 1.526 . S
C555 C556 1.396 1_545 S
C555 C560 1.390 . S
C556 C550 1.465 . S
C556 C555 1.396 1_565 S
C556 C557 1.399 . S
C557 H543 0.929 . S
C557 C556 1.399 . S
C557 C558 1.385 . S
C558 H544 0.931 . S
C558 C557 1.385 . S
C558 C559 1.389 1_565 S
C559 C558 1.389 1_545 S
C559 C560 1.387 . S
C560 H545 0.930 . S
C560 C555 1.390 . S
C560 C559 1.387 . S
H561 C573 0.930 . S
H562 C575 0.930 . S
H563 C576 0.930 . S
H564 C580 0.959 . S
H565 C580 0.959 . S
H566 C580 0.961 . S
H567 C581 0.960 . S
H568 C581 0.961 . S
H569 C581 0.959 . S
H570 C584 0.929 . S
H571 C585 0.931 . S
H572 C587 0.930 . S
C573 H561 0.930 . S
C573 C574 1.399 . S
C573 C578 1.399 . S
C574 C573 1.399 . S
C574 C575 1.376 . S
C575 H562 0.930 . S
C575 C574 1.376 . S
C575 C576 1.388 . S
C576 H563 0.930 . S
C576 C575 1.388 . S
C576 C577 1.390 . S
C577 C576 1.390 . S
C577 C578 1.394 . S
C577 C583 1.465 . S
C578 C573 1.399 . S
C578 C577 1.394 . S
C578 C579 1.516 . S
C579 C578 1.516 . S
C579 C580 1.502 . S
C579 C581 1.561 . S
C579 C582 1.526 . S
C580 H564 0.959 . S
C580 H565 0.959 . S
C580 H566 0.961 . S
C580 C579 1.502 . S
C581 H567 0.960 . S
C581 H568 0.961 . S
C581 H569 0.959 . S
C581 C579 1.561 . S
C582 C579 1.526 . S
C582 C583 1.396 . S
C582 C587 1.390 . S
C583 C577 1.465 . S
C583 C582 1.396 . S
C583 C584 1.399 . S
C584 H570 0.929 . S
C584 C583 1.399 . S
C584 C585 1.385 . S
C585 H571 0.931 . S
C585 C584 1.385 . S
C585 C586 1.389 . S
C586 C585 1.389 . S
C586 C587 1.387 . S
C587 H572 0.930 . S
C587 C582 1.390 . S
C587 C586 1.387 . S
H588 C600 0.930 . S
H589 C602 0.930 . S
H590 C603 0.930 . S
H591 C607 0.959 . S
H592 C607 0.959 . S
H593 C607 0.961 . S
H594 C608 0.960 . S
H595 C608 0.961 . S
H596 C608 0.959 . S
H597 C611 0.929 . S
H598 C612 0.931 . S
H599 C614 0.930 . S
C600 H588 0.930 . S
C600 C601 1.399 . S
C600 C605 1.399 . S
C601 C600 1.399 . S
C601 C602 1.376 . S
C602 H589 0.930 . S
C602 C601 1.376 . S
C602 C603 1.388 . S
C603 H590 0.930 . S
C603 C602 1.388 . S
C603 C604 1.390 . S
C604 C603 1.390 . S
C604 C605 1.394 . S
C604 C610 1.465 . S
C605 C600 1.399 . S
C605 C604 1.394 . S
C605 C606 1.516 . S
C606 C605 1.516 . S
C606 C607 1.502 . S
C606 C608 1.561 . S
C606 C609 1.526 . S
C607 H591 0.959 . S
C607 H592 0.959 . S
C607 H593 0.961 . S
C607 C606 1.502 . S
C608 H594 0.960 . S
C608 H595 0.961 . S
C608 H596 0.959 . S
C608 C606 1.561 . S
C609 C606 1.526 . S
C609 C610 1.396 . S
C609 C614 1.390 . S
C610 C604 1.465 . S
C610 C609 1.396 . S
C610 C611 1.399 . S
C611 H597 0.929 . S
C611 C610 1.399 . S
C611 C612 1.385 . S
C612 H598 0.931 . S
C612 C611 1.385 . S
C612 C613 1.389 . S
C613 C612 1.389 . S
C613 C614 1.387 . S
C614 H599 0.930 . S
C614 C609 1.390 . S
C614 C613 1.387 . S
H615 C627 0.930 . S
H616 C629 0.930 . S
H617 C630 0.930 . S
H618 C634 0.959 . S
H619 C634 0.959 . S
H620 C634 0.961 . S
H621 C635 0.960 . S
H622 C635 0.961 . S
H623 C635 0.959 . S
H624 C638 0.929 . S
H625 C639 0.931 . S
H626 C641 0.930 . S
C627 H615 0.930 . S
C627 C628 1.399 1_545 S
C627 C632 1.399 1_545 S
C628 C627 1.399 1_565 S
C628 C629 1.376 . S
C629 H616 0.930 . S
C629 C628 1.376 . S
C629 C630 1.388 . S
C630 H617 0.930 . S
C630 C629 1.388 . S
C630 C631 1.390 . S
C631 C630 1.390 . S
C631 C632 1.394 . S
C631 C637 1.465 . S
C632 C627 1.399 1_565 S
C632 C631 1.394 . S
C632 C633 1.516 1_565 S
C633 C632 1.516 1_545 S
C633 C634 1.502 . S
C633 C635 1.561 . S
C633 C636 1.526 1_545 S
C634 H618 0.959 . S
C634 H619 0.959 . S
C634 H620 0.961 . S
C634 C633 1.502 . S
C635 H621 0.960 . S
C635 H622 0.961 . S
C635 H623 0.959 . S
C635 C633 1.561 . S
C636 C633 1.526 1_565 S
C636 C637 1.396 . S
C636 C641 1.390 1_565 S
C637 C631 1.465 . S
C637 C636 1.396 . S
C637 C638 1.399 . S
C638 H624 0.929 . S
C638 C637 1.399 . S
C638 C639 1.385 . S
C639 H625 0.931 . S
C639 C638 1.385 . S
C639 C640 1.389 . S
C640 C639 1.389 . S
C640 C641 1.387 1_565 S
C641 H626 0.930 . S
C641 C636 1.390 1_545 S
C641 C640 1.387 1_545 S
H642 C654 0.930 . S
H643 C656 0.930 . S
H644 C657 0.930 . S
H645 C661 0.959 . S
H646 C661 0.959 . S
H647 C661 0.961 . S
H648 C662 0.960 . S
H649 C662 0.961 . S
H650 C662 0.959 . S
H651 C665 0.929 . S
H652 C666 0.931 . S
H653 C668 0.930 . S
C654 H642 0.930 . S
C654 C655 1.399 . S
C654 C659 1.399 . S
C655 C654 1.399 . S
C655 C656 1.376 . S
C656 H643 0.930 . S
C656 C655 1.376 . S
C656 C657 1.388 . S
C657 H644 0.930 . S
C657 C656 1.388 . S
C657 C658 1.390 . S
C658 C657 1.390 . S
C658 C659 1.394 . S
C658 C664 1.465 . S
C659 C654 1.399 . S
C659 C658 1.394 . S
C659 C660 1.516 . S
C660 C659 1.516 . S
C660 C661 1.502 . S
C660 C662 1.561 . S
C660 C663 1.526 . S
C661 H645 0.959 . S
C661 H646 0.959 . S
C661 H647 0.961 . S
C661 C660 1.502 . S
C662 H648 0.960 . S
C662 H649 0.961 . S
C662 H650 0.959 . S
C662 C660 1.561 . S
C663 C660 1.526 . S
C663 C664 1.396 . S
C663 C668 1.390 . S
C664 C658 1.465 . S
C664 C663 1.396 . S
C664 C665 1.399 . S
C665 H651 0.929 . S
C665 C664 1.399 . S
C665 C666 1.385 . S
C666 H652 0.931 . S
C666 C665 1.385 . S
C666 C667 1.389 . S
C667 C666 1.389 . S
C667 C668 1.387 . S
C668 H653 0.930 . S
C668 C663 1.390 . S
C668 C667 1.387 . S
H669 C681 0.930 . S
H670 C683 0.930 1_554 S
H671 C684 0.930 1_554 S
H672 C688 0.959 . S
H673 C688 0.959 . S
H674 C688 0.961 . S
H675 C689 0.960 . S
H676 C689 0.961 . S
H677 C689 0.959 . S
H678 C692 0.929 1_554 S
H679 C693 0.931 1_554 S
H680 C695 0.930 . S
C681 H669 0.930 . S
C681 C682 1.399 . S
C681 C686 1.399 . S
C682 C681 1.399 . S
C682 C683 1.376 . S
C683 H670 0.930 1_556 S
C683 C682 1.376 . S
C683 C684 1.388 . S
C684 H671 0.930 1_556 S
C684 C683 1.388 . S
C684 C685 1.390 . S
C685 C684 1.390 . S
C685 C686 1.394 . S
C685 C691 1.465 . S
C686 C681 1.399 . S
C686 C685 1.394 . S
C686 C687 1.516 . S
C687 C686 1.516 . S
C687 C688 1.502 . S
C687 C689 1.561 . S
C687 C690 1.526 . S
C688 H672 0.959 . S
C688 H673 0.959 . S
C688 H674 0.961 . S
C688 C687 1.502 . S
C689 H675 0.960 . S
C689 H676 0.961 . S
C689 H677 0.959 . S
C689 C687 1.561 . S
C690 C687 1.526 . S
C690 C691 1.396 . S
C690 C695 1.390 . S
C691 C685 1.465 . S
C691 C690 1.396 . S
C691 C692 1.399 . S
C692 H678 0.929 1_556 S
C692 C691 1.399 . S
C692 C693 1.385 . S
C693 H679 0.931 1_556 S
C693 C692 1.385 . S
C693 C694 1.389 . S
C694 C693 1.389 . S
C694 C695 1.387 . S
C695 H680 0.930 . S
C695 C690 1.390 . S
C695 C694 1.387 . S
H696 C708 0.930 . S
H697 C710 0.930 . S
H698 C711 0.930 . S
H699 C715 0.959 . S
H700 C715 0.959 . S
H701 C715 0.961 . S
H702 C716 0.960 . S
H703 C716 0.961 . S
H704 C716 0.959 . S
H705 C719 0.929 . S
H706 C720 0.931 . S
H707 C722 0.930 . S
C708 H696 0.930 . S
C708 C709 1.399 . S
C708 C713 1.399 . S
C709 C708 1.399 . S
C709 C710 1.376 . S
C710 H697 0.930 . S
C710 C709 1.376 . S
C710 C711 1.388 . S
C711 H698 0.930 . S
C711 C710 1.388 . S
C711 C712 1.390 . S
C712 C711 1.390 . S
C712 C713 1.394 . S
C712 C718 1.465 . S
C713 C708 1.399 . S
C713 C712 1.394 . S
C713 C714 1.516 . S
C714 C713 1.516 . S
C714 C715 1.502 . S
C714 C716 1.561 . S
C714 C717 1.526 . S
C715 H699 0.959 . S
C715 H700 0.959 . S
C715 H701 0.961 . S
C715 C714 1.502 . S
C716 H702 0.960 . S
C716 H703 0.961 . S
C716 H704 0.959 . S
C716 C714 1.561 . S
C717 C714 1.526 . S
C717 C718 1.396 . S
C717 C722 1.390 . S
C718 C712 1.465 . S
C718 C717 1.396 . S
C718 C719 1.399 . S
C719 H705 0.929 . S
C719 C718 1.399 . S
C719 C720 1.385 . S
C720 H706 0.931 . S
C720 C719 1.385 . S
C720 C721 1.389 . S
C721 C720 1.389 . S
C721 C722 1.387 . S
C722 H707 0.930 . S
C722 C717 1.390 . S
C722 C721 1.387 . S
H723 C735 0.930 . S
H724 C737 0.930 . S
H725 C738 0.930 . S
H726 C742 0.959 . S
H727 C742 0.959 . S
H728 C742 0.961 . S
H729 C743 0.960 . S
H730 C743 0.961 . S
H731 C743 0.959 . S
H732 C746 0.929 . S
H733 C747 0.931 . S
H734 C749 0.930 . S
C735 H723 0.930 . S
C735 C736 1.399 . S
C735 C740 1.399 . S
C736 C735 1.399 . S
C736 C737 1.376 . S
C737 H724 0.930 . S
C737 C736 1.376 . S
C737 C738 1.388 . S
C738 H725 0.930 . S
C738 C737 1.388 . S
C738 C739 1.390 . S
C739 C738 1.390 . S
C739 C740 1.394 . S
C739 C745 1.465 . S
C740 C735 1.399 . S
C740 C739 1.394 . S
C740 C741 1.516 . S
C741 C740 1.516 . S
C741 C742 1.502 . S
C741 C743 1.561 . S
C741 C744 1.526 . S
C742 H726 0.959 . S
C742 H727 0.959 . S
C742 H728 0.961 . S
C742 C741 1.502 . S
C743 H729 0.960 . S
C743 H730 0.961 . S
C743 H731 0.959 . S
C743 C741 1.561 . S
C744 C741 1.526 . S
C744 C745 1.396 . S
C744 C749 1.390 . S
C745 C739 1.465 . S
C745 C744 1.396 . S
C745 C746 1.399 . S
C746 H732 0.929 . S
C746 C745 1.399 . S
C746 C747 1.385 . S
C747 H733 0.931 . S
C747 C746 1.385 . S
C747 C748 1.389 . S
C748 C747 1.389 . S
C748 C749 1.387 . S
C749 H734 0.930 . S
C749 C744 1.390 . S
C749 C748 1.387 . S
H750 C762 0.930 . S
H751 C764 0.930 . S
H752 C765 0.930 . S
H753 C769 0.959 . S
H754 C769 0.959 . S
H755 C769 0.961 . S
H756 C770 0.960 . S
H757 C770 0.961 . S
H758 C770 0.959 . S
H759 C773 0.929 . S
H760 C774 0.931 . S
H761 C776 0.930 . S
C762 H750 0.930 . S
C762 C763 1.399 1_554 S
C762 C767 1.399 . S
C763 C762 1.399 1_556 S
C763 C764 1.376 . S
C764 H751 0.930 . S
C764 C763 1.376 . S
C764 C765 1.388 . S
C765 H752 0.930 . S
C765 C764 1.388 . S
C765 C766 1.390 . S
C766 C765 1.390 . S
C766 C767 1.394 1_556 S
C766 C772 1.465 . S
C767 C762 1.399 . S
C767 C766 1.394 1_554 S
C767 C768 1.516 . S
C768 C767 1.516 . S
C768 C769 1.502 . S
C768 C770 1.561 . S
C768 C771 1.526 . S
C769 H753 0.959 . S
C769 H754 0.959 . S
C769 H755 0.961 . S
C769 C768 1.502 . S
C770 H756 0.960 . S
C770 H757 0.961 . S
C770 H758 0.959 . S
C770 C768 1.561 . S
C771 C768 1.526 . S
C771 C772 1.396 1_554 S
C771 C776 1.390 . S
C772 C766 1.465 . S
C772 C771 1.396 1_556 S
C772 C773 1.399 . S
C773 H759 0.929 . S
C773 C772 1.399 . S
C773 C774 1.385 . S
C774 H760 0.931 . S
C774 C773 1.385 . S
C774 C775 1.366 1_556 S
C775 C774 1.366 1_554 S
C775 C776 1.405 . S
C776 H761 0.930 . S
C776 C771 1.390 . S
C776 C775 1.405 . S
H777 C789 0.930 . S
H778 C791 0.930 . S
H779 C792 0.930 . S
H780 C796 0.959 . S
H781 C796 0.960 1_565 S
H782 C796 0.961 1_565 S
H783 C797 0.956 1_565 S
H784 C797 0.961 1_565 S
H785 C797 0.959 . S
H786 C800 0.929 . S
H787 C801 0.931 . S
H788 C803 0.930 . S
C789 H777 0.930 . S
C789 C790 1.399 . S
C789 C794 1.399 . S
C790 C789 1.399 . S
C790 C791 1.376 . S
C791 H778 0.930 . S
C791 C790 1.376 . S
C791 C792 1.388 . S
C792 H779 0.930 . S
C792 C791 1.388 . S
C792 C793 1.390 . S
C793 C792 1.390 . S
C793 C794 1.394 . S
C793 C799 1.465 . S
C794 C789 1.399 . S
C794 C793 1.394 . S
C794 C795 1.516 . S
C795 C794 1.516 . S
C795 C796 1.501 . S
C795 C797 1.561 . S
C795 C798 1.526 . S
C796 H780 0.959 . S
C796 H781 0.960 1_545 S
C796 H782 0.961 1_545 S
C796 C795 1.501 . S
C797 H783 0.956 1_545 S
C797 H784 0.961 1_545 S
C797 H785 0.959 . S
C797 C795 1.561 . S
C798 C795 1.526 . S
C798 C799 1.396 . S
C798 C803 1.390 . S
C799 C793 1.465 . S
C799 C798 1.396 . S
C799 C800 1.399 . S
C800 H786 0.929 . S
C800 C799 1.399 . S
C800 C801 1.385 . S
C801 H787 0.931 . S
C801 C800 1.385 . S
C801 C802 1.389 . S
C802 C801 1.389 . S
C802 C803 1.387 . S
C803 H788 0.930 . S
C803 C798 1.390 . S
C803 C802 1.387 . S
H804 C816 0.930 . S
H805 C818 0.930 . S
H806 C819 0.930 . S
H807 C823 0.959 . S
H808 C823 0.959 . S
H809 C823 0.961 . S
H810 C824 0.960 . S
H811 C824 0.961 . S
H812 C824 0.959 . S
H813 C827 0.929 . S
H814 C828 0.931 . S
H815 C830 0.930 . S
C816 H804 0.930 . S
C816 C817 1.399 . S
C816 C821 1.399 . S
C817 C816 1.399 . S
C817 C818 1.376 . S
C818 H805 0.930 . S
C818 C817 1.376 . S
C818 C819 1.388 . S
C819 H806 0.930 . S
C819 C818 1.388 . S
C819 C820 1.390 . S
C820 C819 1.390 . S
C820 C821 1.394 . S
C820 C826 1.465 . S
C821 C816 1.399 . S
C821 C820 1.394 . S
C821 C822 1.516 . S
C822 C821 1.516 . S
C822 C823 1.502 . S
C822 C824 1.561 . S
C822 C825 1.526 . S
C823 H807 0.959 . S
C823 H808 0.959 . S
C823 H809 0.961 . S
C823 C822 1.502 . S
C824 H810 0.960 . S
C824 H811 0.961 . S
C824 H812 0.959 . S
C824 C822 1.561 . S
C825 C822 1.526 . S
C825 C826 1.396 . S
C825 C830 1.390 . S
C826 C820 1.465 . S
C826 C825 1.396 . S
C826 C827 1.399 . S
C827 H813 0.929 . S
C827 C826 1.399 . S
C827 C828 1.385 . S
C828 H814 0.931 . S
C828 C827 1.385 . S
C828 C829 1.389 . S
C829 C828 1.389 . S
C829 C830 1.387 . S
C830 H815 0.930 . S
C830 C825 1.390 . S
C830 C829 1.387 . S
H831 C843 0.930 . S
H832 C845 0.930 . S
H833 C846 0.930 . S
H834 C850 0.959 . S
H835 C850 0.959 . S
H836 C850 0.961 . S
H837 C851 0.960 . S
H838 C851 0.961 . S
H839 C851 0.959 . S
H840 C854 0.929 . S
H841 C855 0.931 . S
H842 C857 0.930 . S
C843 H831 0.930 . S
C843 C844 1.399 . S
C843 C848 1.399 . S
C844 C843 1.399 . S
C844 C845 1.376 . S
C845 H832 0.930 . S
C845 C844 1.376 . S
C845 C846 1.388 . S
C846 H833 0.930 . S
C846 C845 1.388 . S
C846 C847 1.390 . S
C847 C846 1.390 . S
C847 C848 1.394 . S
C847 C853 1.465 . S
C848 C843 1.399 . S
C848 C847 1.394 . S
C848 C849 1.516 . S
C849 C848 1.516 . S
C849 C850 1.502 . S
C849 C851 1.561 . S
C849 C852 1.526 . S
C850 H834 0.959 . S
C850 H835 0.959 . S
C850 H836 0.961 . S
C850 C849 1.502 . S
C851 H837 0.960 . S
C851 H838 0.961 . S
C851 H839 0.959 . S
C851 C849 1.561 . S
C852 C849 1.526 . S
C852 C853 1.396 . S
C852 C857 1.390 . S
C853 C847 1.465 . S
C853 C852 1.396 . S
C853 C854 1.399 . S
C854 H840 0.929 . S
C854 C853 1.399 . S
C854 C855 1.385 . S
C855 H841 0.931 . S
C855 C854 1.385 . S
C855 C856 1.389 . S
C856 C855 1.389 . S
C856 C857 1.387 . S
C857 H842 0.930 . S
C857 C852 1.390 . S
C857 C856 1.387 . S
H858 C870 0.930 . S
H859 C872 0.930 . S
H860 C873 0.930 . S
H861 C877 0.959 . S
H862 C877 0.959 . S
H863 C877 0.961 . S
H864 C878 0.960 . S
H865 C878 0.961 . S
H866 C878 0.959 . S
H867 C881 0.929 . S
H868 C882 0.931 . S
H869 C884 0.930 . S
C870 H858 0.930 . S
C870 C871 1.399 . S
C870 C875 1.399 . S
C871 C870 1.399 . S
C871 C872 1.376 . S
C872 H859 0.930 . S
C872 C871 1.376 . S
C872 C873 1.388 . S
C873 H860 0.930 . S
C873 C872 1.388 . S
C873 C874 1.390 . S
C874 C873 1.390 . S
C874 C875 1.394 . S
C874 C880 1.465 . S
C875 C870 1.399 . S
C875 C874 1.394 . S
C875 C876 1.516 . S
C876 C875 1.516 . S
C876 C877 1.502 . S
C876 C878 1.561 . S
C876 C879 1.526 . S
C877 H861 0.959 . S
C877 H862 0.959 . S
C877 H863 0.961 . S
C877 C876 1.502 . S
C878 H864 0.960 . S
C878 H865 0.961 . S
C878 H866 0.959 . S
C878 C876 1.561 . S
C879 C876 1.526 . S
C879 C880 1.396 . S
C879 C884 1.390 . S
C880 C874 1.465 . S
C880 C879 1.396 . S
C880 C881 1.399 . S
C881 H867 0.929 . S
C881 C880 1.399 . S
C881 C882 1.385 . S
C882 H868 0.931 . S
C882 C881 1.385 . S
C882 C883 1.389 . S
C883 C882 1.389 . S
C883 C884 1.387 . S
C884 H869 0.930 . S
C884 C879 1.390 . S
C884 C883 1.387 . S
H885 C897 0.930 . S
H886 C899 0.930 . S
H887 C900 0.930 . S
H888 C904 0.959 . S
H889 C904 0.959 . S
H890 C904 0.961 . S
H891 C905 0.960 . S
H892 C905 0.961 . S
H893 C905 0.959 . S
H894 C908 0.929 . S
H895 C909 0.931 . S
H896 C911 0.930 . S
C897 H885 0.930 . S
C897 C898 1.399 . S
C897 C902 1.399 . S
C898 C897 1.399 . S
C898 C899 1.376 . S
C899 H886 0.930 . S
C899 C898 1.376 . S
C899 C900 1.388 . S
C900 H887 0.930 . S
C900 C899 1.388 . S
C900 C901 1.390 . S
C901 C900 1.390 . S
C901 C902 1.394 . S
C901 C907 1.465 . S
C902 C897 1.399 . S
C902 C901 1.394 . S
C902 C903 1.516 . S
C903 C902 1.516 . S
C903 C904 1.502 . S
C903 C905 1.561 . S
C903 C906 1.526 . S
C904 H888 0.959 . S
C904 H889 0.959 . S
C904 H890 0.961 . S
C904 C903 1.502 . S
C905 H891 0.960 . S
C905 H892 0.961 . S
C905 H893 0.959 . S
C905 C903 1.561 . S
C906 C903 1.526 . S
C906 C907 1.396 . S
C906 C911 1.390 . S
C907 C901 1.465 . S
C907 C906 1.396 . S
C907 C908 1.399 . S
C908 H894 0.929 . S
C908 C907 1.399 . S
C908 C909 1.385 . S
C909 H895 0.931 . S
C909 C908 1.385 . S
C909 C910 1.389 . S
C910 C909 1.389 . S
C910 C911 1.387 . S
C911 H896 0.930 . S
C911 C906 1.390 . S
C911 C910 1.387 . S
H912 C924 0.930 . S
H913 C926 0.930 . S
H914 C927 0.930 . S
H915 C931 0.959 . S
H916 C931 0.959 . S
H917 C931 0.961 . S
H918 C932 0.960 . S
H919 C932 0.961 . S
H920 C932 0.959 . S
H921 C935 0.929 . S
H922 C936 0.931 . S
H923 C938 0.930 . S
C924 H912 0.930 . S
C924 C925 1.399 . S
C924 C929 1.399 . S
C925 C924 1.399 . S
C925 C926 1.376 . S
C926 H913 0.930 . S
C926 C925 1.376 . S
C926 C927 1.388 . S
C927 H914 0.930 . S
C927 C926 1.388 . S
C927 C928 1.390 . S
C928 C927 1.390 . S
C928 C929 1.394 . S
C928 C934 1.465 . S
C929 C924 1.399 . S
C929 C928 1.394 . S
C929 C930 1.516 . S
C930 C929 1.516 . S
C930 C931 1.502 . S
C930 C932 1.561 . S
C930 C933 1.526 . S
C931 H915 0.959 . S
C931 H916 0.959 . S
C931 H917 0.961 . S
C931 C930 1.502 . S
C932 H918 0.960 . S
C932 H919 0.961 . S
C932 H920 0.959 . S
C932 C930 1.561 . S
C933 C930 1.526 . S
C933 C934 1.396 . S
C933 C938 1.390 . S
C934 C928 1.465 . S
C934 C933 1.396 . S
C934 C935 1.399 . S
C935 H921 0.929 . S
C935 C934 1.399 . S
C935 C936 1.385 . S
C936 H922 0.931 . S
C936 C935 1.385 . S
C936 C937 1.389 . S
C937 C936 1.389 . S
C937 C938 1.387 . S
C938 H923 0.930 . S
C938 C933 1.390 . S
C938 C937 1.387 . S
H939 C951 0.930 . S
H940 C953 0.930 . S
H941 C954 0.930 . S
H942 C958 0.959 . S
H943 C958 0.959 . S
H944 C958 0.961 . S
H945 C959 0.960 . S
H946 C959 0.961 . S
H947 C959 0.959 . S
H948 C962 0.929 . S
H949 C963 0.931 . S
H950 C965 0.930 . S
C951 H939 0.930 . S
C951 C952 1.399 . S
C951 C956 1.399 . S
C952 C951 1.399 . S
C952 C953 1.376 . S
C953 H940 0.930 . S
C953 C952 1.376 . S
C953 C954 1.388 . S
C954 H941 0.930 . S
C954 C953 1.388 . S
C954 C955 1.390 . S
C955 C954 1.390 . S
C955 C956 1.394 . S
C955 C961 1.465 . S
C956 C951 1.399 . S
C956 C955 1.394 . S
C956 C957 1.516 . S
C957 C956 1.516 . S
C957 C958 1.502 . S
C957 C959 1.561 . S
C957 C960 1.526 . S
C958 H942 0.959 . S
C958 H943 0.959 . S
C958 H944 0.961 . S
C958 C957 1.502 . S
C959 H945 0.960 . S
C959 H946 0.961 . S
C959 H947 0.959 . S
C959 C957 1.561 . S
C960 C957 1.526 . S
C960 C961 1.396 . S
C960 C965 1.390 . S
C961 C955 1.465 . S
C961 C960 1.396 . S
C961 C962 1.399 . S
C962 H948 0.929 . S
C962 C961 1.399 . S
C962 C963 1.385 . S
C963 H949 0.931 . S
C963 C962 1.385 . S
C963 C964 1.389 . S
C964 C963 1.389 . S
C964 C965 1.387 . S
C965 H950 0.930 . S
C965 C960 1.390 . S
C965 C964 1.387 . S
H966 C978 0.930 . S
H967 C980 0.930 . S
H968 C981 0.930 . S
H969 C985 0.959 . S
H970 C985 0.959 . S
H971 C985 0.961 . S
H972 C986 0.960 . S
H973 C986 0.961 . S
H974 C986 0.959 . S
H975 C989 0.926 . S
H976 C990 0.931 1_554 S
H977 C992 0.930 . S
C978 H966 0.930 . S
C978 C979 1.399 . S
C978 C983 1.399 . S
C979 C978 1.399 . S
C979 C980 1.376 . S
C980 H967 0.930 . S
C980 C979 1.376 . S
C980 C981 1.388 . S
C981 H968 0.930 . S
C981 C980 1.388 . S
C981 C982 1.390 . S
C982 C981 1.390 . S
C982 C983 1.394 . S
C982 C988 1.465 . S
C983 C978 1.399 . S
C983 C982 1.394 . S
C983 C984 1.516 . S
C984 C983 1.516 . S
C984 C985 1.502 . S
C984 C986 1.561 . S
C984 C987 1.526 . S
C985 H969 0.959 . S
C985 H970 0.959 . S
C985 H971 0.961 . S
C985 C984 1.502 . S
C986 H972 0.960 . S
C986 H973 0.961 . S
C986 H974 0.959 . S
C986 C984 1.561 . S
C987 C984 1.526 . S
C987 C988 1.396 . S
C987 C992 1.390 . S
C988 C982 1.465 . S
C988 C987 1.396 . S
C988 C989 1.399 . S
C989 H975 0.926 . S
C989 C988 1.399 . S
C989 C990 1.385 . S
C990 H976 0.931 1_556 S
C990 C989 1.385 . S
C990 C991 1.389 . S
C991 C990 1.389 . S
C991 C992 1.387 . S
C992 H977 0.930 . S
C992 C987 1.390 . S
C992 C991 1.387 . S
H993 C1005 0.930 . S
H994 C1007 0.930 . S
H995 C1008 0.930 . S
H996 C1012 0.959 . S
H997 C1012 0.959 . S
H998 C1012 0.961 . S
H999 C1013 0.960 . S
H1000 C1013 0.961 1_565 S
H1001 C1013 0.959 . S
H1002 C1016 0.929 . S
H1003 C1017 0.931 . S
H1004 C1019 0.930 . S
C1005 H993 0.930 . S
C1005 C1006 1.399 . S
C1005 C1010 1.399 . S
C1006 C1005 1.399 . S
C1006 C1007 1.376 . S
C1007 H994 0.930 . S
C1007 C1006 1.376 . S
C1007 C1008 1.388 . S
C1008 H995 0.930 . S
C1008 C1007 1.388 . S
C1008 C1009 1.390 . S
C1009 C1008 1.390 . S
C1009 C1010 1.394 . S
C1009 C1015 1.465 . S
C1010 C1005 1.399 . S
C1010 C1009 1.394 . S
C1010 C1011 1.516 . S
C1011 C1010 1.516 . S
C1011 C1012 1.502 . S
C1011 C1013 1.561 . S
C1011 C1014 1.526 . S
C1012 H996 0.959 . S
C1012 H997 0.959 . S
C1012 H998 0.961 . S
C1012 C1011 1.502 . S
C1013 H999 0.960 . S
C1013 H1000 0.961 1_545 S
C1013 H1001 0.959 . S
C1013 C1011 1.561 . S
C1014 C1011 1.526 . S
C1014 C1015 1.396 . S
C1014 C1019 1.390 . S
C1015 C1009 1.465 . S
C1015 C1014 1.396 . S
C1015 C1016 1.399 . S
C1016 H1002 0.929 . S
C1016 C1015 1.399 . S
C1016 C1017 1.385 . S
C1017 H1003 0.931 . S
C1017 C1016 1.385 . S
C1017 C1018 1.389 . S
C1018 C1017 1.389 . S
C1018 C1019 1.387 . S
C1019 H1004 0.930 . S
C1019 C1014 1.390 . S
C1019 C1018 1.387 . S
H1020 C1032 0.930 . S
H1021 C1034 0.930 . S
H1022 C1035 0.930 . S
H1023 C1039 0.959 . S
H1024 C1039 0.959 . S
H1025 C1039 0.961 . S
H1026 C1040 0.960 . S
H1027 C1040 0.961 . S
H1028 C1040 0.959 . S
H1029 C1043 0.929 . S
H1030 C1044 0.931 . S
H1031 C1046 0.930 . S
C1032 H1020 0.930 . S
C1032 C1033 1.399 . S
C1032 C1037 1.399 . S
C1033 C1032 1.399 . S
C1033 C1034 1.376 . S
C1034 H1021 0.930 . S
C1034 C1033 1.376 . S
C1034 C1035 1.388 . S
C1035 H1022 0.930 . S
C1035 C1034 1.388 . S
C1035 C1036 1.390 . S
C1036 C1035 1.390 . S
C1036 C1037 1.394 . S
C1036 C1042 1.465 . S
C1037 C1032 1.399 . S
C1037 C1036 1.394 . S
C1037 C1038 1.516 . S
C1038 C1037 1.516 . S
C1038 C1039 1.502 . S
C1038 C1040 1.561 . S
C1038 C1041 1.526 . S
C1039 H1023 0.959 . S
C1039 H1024 0.959 . S
C1039 H1025 0.961 . S
C1039 C1038 1.502 . S
C1040 H1026 0.960 . S
C1040 H1027 0.961 . S
C1040 H1028 0.959 . S
C1040 C1038 1.561 . S
C1041 C1038 1.526 . S
C1041 C1042 1.396 . S
C1041 C1046 1.390 . S
C1042 C1036 1.465 . S
C1042 C1041 1.396 . S
C1042 C1043 1.399 . S
C1043 H1029 0.929 . S
C1043 C1042 1.399 . S
C1043 C1044 1.385 . S
C1044 H1030 0.931 . S
C1044 C1043 1.385 . S
C1044 C1045 1.389 . S
C1045 C1044 1.389 . S
C1045 C1046 1.387 . S
C1046 H1031 0.930 . S
C1046 C1041 1.390 . S
C1046 C1045 1.387 . S
H1047 C1059 0.930 . S
H1048 C1061 0.930 . S
H1049 C1062 0.930 . S
H1050 C1066 0.959 . S
H1051 C1066 0.959 . S
H1052 C1066 0.961 . S
H1053 C1067 0.960 . S
H1054 C1067 0.961 . S
H1055 C1067 0.959 . S
H1056 C1070 0.929 . S
H1057 C1071 0.931 . S
H1058 C1073 0.930 . S
C1059 H1047 0.930 . S
C1059 C1060 1.399 . S
C1059 C1064 1.399 . S
C1060 C1059 1.399 . S
C1060 C1061 1.376 . S
C1061 H1048 0.930 . S
C1061 C1060 1.376 . S
C1061 C1062 1.388 . S
C1062 H1049 0.930 . S
C1062 C1061 1.388 . S
C1062 C1063 1.390 . S
C1063 C1062 1.390 . S
C1063 C1064 1.394 . S
C1063 C1069 1.465 . S
C1064 C1059 1.399 . S
C1064 C1063 1.394 . S
C1064 C1065 1.516 . S
C1065 C1064 1.516 . S
C1065 C1066 1.502 . S
C1065 C1067 1.561 . S
C1065 C1068 1.526 . S
C1066 H1050 0.959 . S
C1066 H1051 0.959 . S
C1066 H1052 0.961 . S
C1066 C1065 1.502 . S
C1067 H1053 0.960 . S
C1067 H1054 0.961 . S
C1067 H1055 0.959 . S
C1067 C1065 1.561 . S
C1068 C1065 1.526 . S
C1068 C1069 1.396 . S
C1068 C1073 1.390 . S
C1069 C1063 1.465 . S
C1069 C1068 1.396 . S
C1069 C1070 1.399 . S
C1070 H1056 0.929 . S
C1070 C1069 1.399 . S
C1070 C1071 1.385 . S
C1071 H1057 0.931 . S
C1071 C1070 1.385 . S
C1071 C1072 1.389 . S
C1072 C1071 1.389 . S
C1072 C1073 1.387 . S
C1073 H1058 0.930 . S
C1073 C1068 1.390 . S
C1073 C1072 1.387 . S
H1074 C1086 0.930 . S
H1075 C1088 0.930 . S
H1076 C1089 0.930 . S
H1077 C1093 0.959 . S
H1078 C1093 0.959 . S
H1079 C1093 0.961 . S
H1080 C1094 0.960 . S
H1081 C1094 0.961 . S
H1082 C1094 0.959 . S
H1083 C1097 0.929 . S
H1084 C1098 0.931 . S
H1085 C1100 0.930 . S
C1086 H1074 0.930 . S
C1086 C1087 1.399 . S
C1086 C1091 1.399 . S
C1087 C1086 1.399 . S
C1087 C1088 1.376 . S
C1088 H1075 0.930 . S
C1088 C1087 1.376 . S
C1088 C1089 1.388 . S
C1089 H1076 0.930 . S
C1089 C1088 1.388 . S
C1089 C1090 1.390 . S
C1090 C1089 1.390 . S
C1090 C1091 1.394 . S
C1090 C1096 1.465 . S
C1091 C1086 1.399 . S
C1091 C1090 1.394 . S
C1091 C1092 1.516 . S
C1092 C1091 1.516 . S
C1092 C1093 1.502 . S
C1092 C1094 1.561 . S
C1092 C1095 1.526 . S
C1093 H1077 0.959 . S
C1093 H1078 0.959 . S
C1093 H1079 0.961 . S
C1093 C1092 1.502 . S
C1094 H1080 0.960 . S
C1094 H1081 0.961 . S
C1094 H1082 0.959 . S
C1094 C1092 1.561 . S
C1095 C1092 1.526 . S
C1095 C1096 1.396 . S
C1095 C1100 1.390 . S
C1096 C1090 1.465 . S
C1096 C1095 1.396 . S
C1096 C1097 1.399 . S
C1097 H1083 0.929 . S
C1097 C1096 1.399 . S
C1097 C1098 1.385 . S
C1098 H1084 0.931 . S
C1098 C1097 1.385 . S
C1098 C1099 1.389 . S
C1099 C1098 1.389 . S
C1099 C1100 1.387 . S
C1100 H1085 0.930 . S
C1100 C1095 1.390 . S
C1100 C1099 1.387 . S
H1101 C1113 0.930 . S
H1102 C1115 0.930 . S
H1103 C1116 0.930 . S
H1104 C1120 0.959 . S
H1105 C1120 0.959 . S
H1106 C1120 0.961 . S
H1107 C1121 0.960 . S
H1108 C1121 0.961 . S
H1109 C1121 0.959 . S
H1110 C1124 0.929 . S
H1111 C1125 0.931 . S
H1112 C1127 0.930 . S
C1113 H1101 0.930 . S
C1113 C1114 1.399 1_545 S
C1113 C1118 1.399 . S
C1114 C1113 1.399 1_565 S
C1114 C1115 1.376 . S
C1115 H1102 0.930 . S
C1115 C1114 1.376 . S
C1115 C1116 1.388 . S
C1116 H1103 0.930 . S
C1116 C1115 1.388 . S
C1116 C1117 1.390 . S
C1117 C1116 1.390 . S
C1117 C1118 1.394 1_565 S
C1117 C1123 1.465 . S
C1118 C1113 1.399 . S
C1118 C1117 1.394 1_545 S
C1118 C1119 1.516 . S
C1119 C1118 1.516 . S
C1119 C1120 1.502 . S
C1119 C1121 1.561 . S
C1119 C1122 1.526 . S
C1120 H1104 0.959 . S
C1120 H1105 0.959 . S
C1120 H1106 0.961 . S
C1120 C1119 1.502 . S
C1121 H1107 0.960 . S
C1121 H1108 0.961 . S
C1121 H1109 0.959 . S
C1121 C1119 1.561 . S
C1122 C1119 1.526 . S
C1122 C1123 1.396 1_545 S
C1122 C1127 1.390 . S
C1123 C1117 1.465 . S
C1123 C1122 1.396 1_565 S
C1123 C1124 1.399 . S
C1124 H1110 0.929 . S
C1124 C1123 1.399 . S
C1124 C1125 1.385 . S
C1125 H1111 0.931 . S
C1125 C1124 1.385 . S
C1125 C1126 1.389 1_565 S
C1126 C1125 1.389 1_545 S
C1126 C1127 1.387 . S
C1127 H1112 0.930 . S
C1127 C1122 1.390 . S
C1127 C1126 1.387 . S
H1128 C1140 0.930 . S
H1129 C1142 0.930 . S
H1130 C1143 0.930 . S
H1131 C1147 0.959 . S
H1132 C1147 0.959 . S
H1133 C1147 0.961 . S
H1134 C1148 0.960 . S
H1135 C1148 0.961 . S
H1136 C1148 0.959 . S
H1137 C1151 0.929 . S
H1138 C1152 0.931 . S
H1139 C1154 0.930 . S
C1140 H1128 0.930 . S
C1140 C1141 1.399 . S
C1140 C1145 1.399 . S
C1141 C1140 1.399 . S
C1141 C1142 1.376 . S
C1142 H1129 0.930 . S
C1142 C1141 1.376 . S
C1142 C1143 1.388 . S
C1143 H1130 0.930 . S
C1143 C1142 1.388 . S
C1143 C1144 1.390 . S
C1144 C1143 1.390 . S
C1144 C1145 1.394 . S
C1144 C1150 1.465 . S
C1145 C1140 1.399 . S
C1145 C1144 1.394 . S
C1145 C1146 1.516 . S
C1146 C1145 1.516 . S
C1146 C1147 1.502 . S
C1146 C1148 1.561 . S
C1146 C1149 1.526 . S
C1147 H1131 0.959 . S
C1147 H1132 0.959 . S
C1147 H1133 0.961 . S
C1147 C1146 1.502 . S
C1148 H1134 0.960 . S
C1148 H1135 0.961 . S
C1148 H1136 0.959 . S
C1148 C1146 1.561 . S
C1149 C1146 1.526 . S
C1149 C1150 1.396 . S
C1149 C1154 1.390 . S
C1150 C1144 1.465 . S
C1150 C1149 1.396 . S
C1150 C1151 1.399 . S
C1151 H1137 0.929 . S
C1151 C1150 1.399 . S
C1151 C1152 1.385 . S
C1152 H1138 0.931 . S
C1152 C1151 1.385 . S
C1152 C1153 1.389 . S
C1153 C1152 1.389 . S
C1153 C1154 1.387 . S
C1154 H1139 0.930 . S
C1154 C1149 1.390 . S
C1154 C1153 1.387 . S
H1155 C1167 0.930 . S
H1156 C1169 0.930 . S
H1157 C1170 0.930 . S
H1158 C1174 0.959 . S
H1159 C1174 0.959 . S
H1160 C1174 0.961 . S
H1161 C1175 0.960 . S
H1162 C1175 0.961 . S
H1163 C1175 0.959 . S
H1164 C1178 0.929 . S
H1165 C1179 0.931 . S
H1166 C1181 0.930 . S
C1167 H1155 0.930 . S
C1167 C1168 1.399 . S
C1167 C1172 1.399 . S
C1168 C1167 1.399 . S
C1168 C1169 1.376 . S
C1169 H1156 0.930 . S
C1169 C1168 1.376 . S
C1169 C1170 1.388 . S
C1170 H1157 0.930 . S
C1170 C1169 1.388 . S
C1170 C1171 1.390 . S
C1171 C1170 1.390 . S
C1171 C1172 1.394 . S
C1171 C1177 1.465 . S
C1172 C1167 1.399 . S
C1172 C1171 1.394 . S
C1172 C1173 1.516 . S
C1173 C1172 1.516 . S
C1173 C1174 1.502 . S
C1173 C1175 1.561 . S
C1173 C1176 1.526 . S
C1174 H1158 0.959 . S
C1174 H1159 0.959 . S
C1174 H1160 0.961 . S
C1174 C1173 1.502 . S
C1175 H1161 0.960 . S
C1175 H1162 0.961 . S
C1175 H1163 0.959 . S
C1175 C1173 1.561 . S
C1176 C1173 1.526 . S
C1176 C1177 1.396 . S
C1176 C1181 1.390 . S
C1177 C1171 1.465 . S
C1177 C1176 1.396 . S
C1177 C1178 1.399 . S
C1178 H1164 0.929 . S
C1178 C1177 1.399 . S
C1178 C1179 1.385 . S
C1179 H1165 0.931 . S
C1179 C1178 1.385 . S
C1179 C1180 1.389 . S
C1180 C1179 1.389 . S
C1180 C1181 1.387 . S
C1181 H1166 0.930 . S
C1181 C1176 1.390 . S
C1181 C1180 1.387 . S
H1182 C1194 0.930 . S
H1183 C1196 0.930 . S
H1184 C1197 0.930 . S
H1185 C1201 0.959 . S
H1186 C1201 0.959 . S
H1187 C1201 0.961 . S
H1188 C1202 0.960 . S
H1189 C1202 0.961 . S
H1190 C1202 0.959 . S
H1191 C1205 0.929 . S
H1192 C1206 0.931 . S
H1193 C1208 0.930 . S
C1194 H1182 0.930 . S
C1194 C1195 1.399 . S
C1194 C1199 1.399 . S
C1195 C1194 1.399 . S
C1195 C1196 1.376 . S
C1196 H1183 0.930 . S
C1196 C1195 1.376 . S
C1196 C1197 1.388 . S
C1197 H1184 0.930 . S
C1197 C1196 1.388 . S
C1197 C1198 1.390 . S
C1198 C1197 1.390 . S
C1198 C1199 1.394 . S
C1198 C1204 1.465 . S
C1199 C1194 1.399 . S
C1199 C1198 1.394 . S
C1199 C1200 1.516 . S
C1200 C1199 1.516 . S
C1200 C1201 1.502 . S
C1200 C1202 1.561 . S
C1200 C1203 1.526 . S
C1201 H1185 0.959 . S
C1201 H1186 0.959 . S
C1201 H1187 0.961 . S
C1201 C1200 1.502 . S
C1202 H1188 0.960 . S
C1202 H1189 0.961 . S
C1202 H1190 0.959 . S
C1202 C1200 1.561 . S
C1203 C1200 1.526 . S
C1203 C1204 1.396 . S
C1203 C1208 1.390 . S
C1204 C1198 1.465 . S
C1204 C1203 1.396 . S
C1204 C1205 1.399 . S
C1205 H1191 0.929 . S
C1205 C1204 1.399 . S
C1205 C1206 1.385 . S
C1206 H1192 0.931 . S
C1206 C1205 1.385 . S
C1206 C1207 1.389 . S
C1207 C1206 1.389 . S
C1207 C1208 1.387 . S
C1208 H1193 0.930 . S
C1208 C1203 1.390 . S
C1208 C1207 1.387 . S
H1209 C1221 0.930 . S
H1210 C1223 0.930 . S
H1211 C1224 0.930 . S
H1212 C1228 0.959 . S
H1213 C1228 0.959 . S
H1214 C1228 0.961 . S
H1215 C1229 0.960 . S
H1216 C1229 0.961 . S
H1217 C1229 0.959 . S
H1218 C1232 0.929 . S
H1219 C1233 0.931 . S
H1220 C1235 0.930 . S
C1221 H1209 0.930 . S
C1221 C1222 1.399 . S
C1221 C1226 1.399 . S
C1222 C1221 1.399 . S
C1222 C1223 1.376 . S
C1223 H1210 0.930 . S
C1223 C1222 1.376 . S
C1223 C1224 1.388 . S
C1224 H1211 0.930 . S
C1224 C1223 1.388 . S
C1224 C1225 1.390 . S
C1225 C1224 1.390 . S
C1225 C1226 1.394 . S
C1225 C1231 1.465 . S
C1226 C1221 1.399 . S
C1226 C1225 1.394 . S
C1226 C1227 1.516 . S
C1227 C1226 1.516 . S
C1227 C1228 1.502 . S
C1227 C1229 1.561 . S
C1227 C1230 1.526 . S
C1228 H1212 0.959 . S
C1228 H1213 0.959 . S
C1228 H1214 0.961 . S
C1228 C1227 1.502 . S
C1229 H1215 0.960 . S
C1229 H1216 0.961 . S
C1229 H1217 0.959 . S
C1229 C1227 1.561 . S
C1230 C1227 1.526 . S
C1230 C1231 1.396 . S
C1230 C1235 1.390 . S
C1231 C1225 1.465 . S
C1231 C1230 1.396 . S
C1231 C1232 1.399 . S
C1232 H1218 0.929 . S
C1232 C1231 1.399 . S
C1232 C1233 1.385 . S
C1233 H1219 0.931 . S
C1233 C1232 1.385 . S
C1233 C1234 1.389 . S
C1234 C1233 1.389 . S
C1234 C1235 1.387 . S
C1235 H1220 0.930 . S
C1235 C1230 1.390 . S
C1235 C1234 1.387 . S
C277 C84 1.476 . S
C289 C7 1.499 . S
C304 C51 1.594 . S
C316 C18 1.635 . S
C331 C62 1.777 . S
C343 C29 1.704 . S
C358 C73 1.207 . S
C370 C40 1.272 . S
C385 C95 0.683 . S
C397 C139 0.327 . S
C412 C150 1.248 . S
C424 C106 1.077 . S
C439 C117 1.381 . S
C451 C161 1.380 . S
C466 C172 1.311 . S
C478 C128 1.285 . S
C493 C183 1.516 . S
C505 C238 1.477 . S
C520 C194 1.634 . S
C532 C216 1.650 . S
C547 C205 1.757 . S
C559 C249 1.643 . S
C574 C260 1.370 . S
C586 C227 1.399 . S
C601 C8 1.832 . S
C613 C173 1.780 . S
C628 C19 1.738 . S
C640 C137 1.598 . S
C655 C151 1.649 . S
C667 C27 1.344 . S
C682 C162 1.573 . S
C694 C41 1.561 . S
C709 C49 1.417 . S
C721 C104 1.090 . S
C736 C60 1.685 . S
C748 C118 1.804 . S
C763 C126 1.477 . S
C775 C71 1.088 1_554 S
C790 C85 1.710 . S
C802 C93 1.590 . S
C817 C129 1.714 . S
C829 C140 1.764 . S
C844 C228 1.778 . S
C856 C181 1.758 . S
C871 C192 1.514 . S
C883 C239 1.586 . S
C898 C203 1.499 . S
C910 C214 1.498 . S
C925 C159 1.373 . S
C937 C107 1.471 . S
C952 C63 1.828 . S
C964 C206 1.828 . S
C979 C258 1.272 . S
C991 C74 1.516 . S
C1006 C82 1.530 . S
C1018 C184 1.703 . S
C1033 C195 1.500 . S
C1045 C52 1.509 . S
C1060 C236 1.236 . S
C1072 C38 1.617 . S
C1087 C5 1.138 . S
C1099 C217 1.305 . S
C1114 C16 1.408 . S
C1126 C247 1.290 . S
C1141 C225 1.494 . S
C1153 C30 1.707 . S
C1168 C250 1.695 . S
C1180 C261 1.702 . S
C1195 C96 2.121 . S
C1207 C148 2.081 . S
C1222 C170 2.039 . S
C1234 C115 1.939 . S
