# Generated by pormake.
# Topology umb, (4)-cn, num edge types: 1
# Building blocks:
#     Node 0, Type 0, BuildingBlock: NAWXER_clean_sbu_0, # of connection points: 4
#     Node 1, Type 0, BuildingBlock: NAWXER_clean_sbu_0, # of connection points: 4
#     Node 2, Type 0, BuildingBlock: NAWXER_clean_sbu_0, # of connection points: 4
#     Node 3, Type 0, BuildingBlock: NAWXER_clean_sbu_0, # of connection points: 4
#     Node 4, Type 0, BuildingBlock: NAWXER_clean_sbu_0, # of connection points: 4
#     Node 5, Type 0, BuildingBlock: NAWXER_clean_sbu_0, # of connection points: 4
#     Node 6, Type 0, BuildingBlock: NAWXER_clean_sbu_0, # of connection points: 4
#     Node 7, Type 0, BuildingBlock: NAWXER_clean_sbu_0, # of connection points: 4
#     Node 8, Type 0, BuildingBlock: NAWXER_clean_sbu_0, # of connection points: 4
#     Node 9, Type 0, BuildingBlock: NAWXER_clean_sbu_0, # of connection points: 4
#     Node 10, Type 0, BuildingBlock: NAWXER_clean_sbu_0, # of connection points: 4
#     Node 11, Type 0, BuildingBlock: NAWXER_clean_sbu_0, # of connection points: 4
#     Edge 12, Type (0, 0), BuildingBlock: AJUNOK_clean_linker_0, # of connection points: 2
#     Edge 13, Type (0, 0), BuildingBlock: AJUNOK_clean_linker_0, # of connection points: 2
#     Edge 14, Type (0, 0), BuildingBlock: AJUNOK_clean_linker_0, # of connection points: 2
#     Edge 15, Type (0, 0), BuildingBlock: AJUNOK_clean_linker_0, # of connection points: 2
#     Edge 16, Type (0, 0), BuildingBlock: AJUNOK_clean_linker_0, # of connection points: 2
#     Edge 17, Type (0, 0), BuildingBlock: AJUNOK_clean_linker_0, # of connection points: 2
#     Edge 18, Type (0, 0), BuildingBlock: AJUNOK_clean_linker_0, # of connection points: 2
#     Edge 19, Type (0, 0), BuildingBlock: AJUNOK_clean_linker_0, # of connection points: 2
#     Edge 20, Type (0, 0), BuildingBlock: AJUNOK_clean_linker_0, # of connection points: 2
#     Edge 21, Type (0, 0), BuildingBlock: AJUNOK_clean_linker_0, # of connection points: 2
#     Edge 22, Type (0, 0), BuildingBlock: AJUNOK_clean_linker_0, # of connection points: 2
#     Edge 23, Type (0, 0), BuildingBlock: AJUNOK_clean_linker_0, # of connection points: 2
#     Edge 24, Type (0, 0), BuildingBlock: AJUNOK_clean_linker_0, # of connection points: 2
#     Edge 25, Type (0, 0), BuildingBlock: AJUNOK_clean_linker_0, # of connection points: 2
#     Edge 26, Type (0, 0), BuildingBlock: AJUNOK_clean_linker_0, # of connection points: 2
#     Edge 27, Type (0, 0), BuildingBlock: AJUNOK_clean_linker_0, # of connection points: 2
#     Edge 28, Type (0, 0), BuildingBlock: AJUNOK_clean_linker_0, # of connection points: 2
#     Edge 29, Type (0, 0), BuildingBlock: AJUNOK_clean_linker_0, # of connection points: 2
#     Edge 30, Type (0, 0), BuildingBlock: AJUNOK_clean_linker_0, # of connection points: 2
#     Edge 31, Type (0, 0), BuildingBlock: AJUNOK_clean_linker_0, # of connection points: 2
#     Edge 32, Type (0, 0), BuildingBlock: AJUNOK_clean_linker_0, # of connection points: 2
#     Edge 33, Type (0, 0), BuildingBlock: AJUNOK_clean_linker_0, # of connection points: 2
#     Edge 34, Type (0, 0), BuildingBlock: AJUNOK_clean_linker_0, # of connection points: 2
#     Edge 35, Type (0, 0), BuildingBlock: AJUNOK_clean_linker_0, # of connection points: 2
# Relax obj value: 0.192
# Max RMSD: 0.212
# Mean RMSD: 0.211
data_MOF--net-umb--node1-NAWXER_clean_sbu_0--edge1-AJUNOK_clean_linker_0
_symmetry_space_group_name_H-M    P1
_symmetry_Int_Tables_number       1
_symmetry_cell_setting            triclinic
loop_
_symmetry_equiv_pos_as_xyz
'x, y, z'
_cell_length_a     35.196235
_cell_length_b     35.292989
_cell_length_c     26.058245
_cell_angle_alpha  90.292625
_cell_angle_beta   89.704336
_cell_angle_gamma 120.14809
loop_
_atom_site_label
_atom_site_type_symbol
_atom_site_fract_x
_atom_site_fract_y
_atom_site_fract_z
_atom_type_partial_charge
C0 C 0.5672 0.23283 0.38639 0.0
C1 C 0.48775 0.08081 0.34266 0.0
O2 O 0.57738 0.21167 0.35518 0.0
Zn3 Zn 0.52438 0.15804 0.36132 0.0
O4 O 0.52912 0.21444 0.40755 0.0
Zn5 Zn 0.47045 0.15039 0.40371 0.0
O6 O 0.46399 0.13657 0.47644 0.0
O7 O 0.52467 0.14339 0.44282 0.0
O8 O 0.46334 0.09036 0.3704 0.0
O9 O 0.52466 0.11108 0.32708 0.0
O10 O 0.48203 0.17263 0.31852 0.0
O11 O 0.42863 0.16362 0.37034 0.0
C12 C 0.49988 0.13652 0.48218 0.0
C13 C 0.4471 0.1744 0.32666 0.0
C14 C 0.35178 0.59415 0.70616 0.0
C15 C 0.42439 0.51265 0.66932 0.0
O16 O 0.38414 0.60433 0.67637 0.0
Zn17 Zn 0.38494 0.55126 0.68448 0.0
O18 O 0.33202 0.55651 0.72781 0.0
Zn19 Zn 0.33769 0.49851 0.72821 0.0
O20 O 0.34493 0.49443 0.80137 0.0
O21 O 0.39931 0.55357 0.76603 0.0
O22 O 0.38988 0.48992 0.69687 0.0
O23 O 0.4329 0.54978 0.6527 0.0
O24 O 0.32753 0.5069 0.64193 0.0
O25 O 0.28298 0.45549 0.69551 0.0
C26 C 0.38129 0.53016 0.80608 0.0
C27 C 0.29072 0.47216 0.65094 0.0
C28 C 0.81505 0.35626 0.1476 0.0
C29 C 0.77261 0.26053 0.9947 0.0
O30 O 0.81298 0.31924 0.14378 0.0
Zn31 Zn 0.79817 0.30981 1.07115 0.0
O32 O 0.80875 0.37322 0.10733 0.0
Zn33 Zn 0.79226 0.35581 1.02666 0.0
O34 O 0.73945 0.35707 1.02137 0.0
O35 O 0.73563 0.30746 1.07601 0.0
O36 O 0.77575 0.29753 0.98551 0.0
O37 O 0.78256 0.25331 1.03891 0.0
O38 O 0.85908 0.36091 1.03696 0.0
O39 O 0.84017 0.40129 0.99129 0.0
C40 C 0.71823 0.32767 1.05457 0.0
C41 C 0.86974 0.39428 1.00809 0.0
C42 C 0.42441 0.83761 0.47361 0.0
C43 C 0.48328 0.8087 0.31639 0.0
O44 O 0.4611 0.83917 0.46768 0.0
Zn45 Zn 0.4567 0.82802 0.39448 0.0
O46 O 0.40025 0.83141 0.43412 0.0
Zn47 Zn 0.4025 0.82028 0.35221 0.0
O48 O 0.35044 0.76521 0.34389 0.0
O49 O 0.39997 0.76313 0.39392 0.0
O50 O 0.44772 0.8093 0.30833 0.0
O51 O 0.50061 0.81835 0.36064 0.0
O52 O 0.46305 0.88777 0.36413 0.0
O53 O 0.40187 0.86881 0.32174 0.0
C54 C 0.36204 0.74394 0.37272 0.0
C55 C 0.43909 0.89835 0.33764 0.0
C56 C 0.69102 0.50217 0.66604 0.0
C57 C 0.59701 0.45389 0.82031 0.0
O58 O 0.69832 0.52163 0.70904 0.0
Zn59 Zn 0.64247 0.48089 0.74263 0.0
O60 O 0.65432 0.4671 0.65847 0.0
Zn61 Zn 0.59657 0.42593 0.70134 0.0
O62 O 0.54977 0.4247 0.66499 0.0
O63 O 0.59025 0.48707 0.70621 0.0
O64 O 0.57988 0.42819 0.7816 0.0
O65 O 0.6334 0.48941 0.8144 0.0
O66 O 0.64753 0.42259 0.75095 0.0
O67 O 0.59725 0.37297 0.69925 0.0
C68 C 0.55659 0.46208 0.6785 0.0
C69 C 0.62813 0.38411 0.73121 0.0
C70 C 0.11769 0.57738 0.14284 0.0
C71 C 0.1409 0.6599 0.98323 0.0
O72 O 0.11547 0.61186 0.13588 0.0
Zn73 Zn 0.12447 0.61647 1.06219 0.0
O74 O 0.12329 0.5584 0.10373 0.0
Zn75 Zn 0.13201 0.5693 1.02138 0.0
O76 O 0.18731 0.57352 1.01107 0.0
O77 O 0.19053 0.62746 1.05771 0.0
O78 O 0.14098 0.624 0.97582 0.0
O79 O 0.13141 0.66816 1.02744 0.0
O80 O 0.06432 0.56176 1.03344 0.0
O81 O 0.08317 0.51859 0.99282 0.0
C82 C 0.20967 0.60858 1.03664 0.0
C83 C 0.05364 0.52654 1.008 0.0
C84 C 0.72907 0.37463 0.45269 0.0
C85 C 0.88369 0.44216 0.48677 0.0
O86 O 0.74888 0.3606 0.48048 0.0
Zn87 Zn 0.8058 0.41009 0.47193 0.0
O88 O 0.75034 0.41237 0.43151 0.0
Zn89 Zn 0.81716 0.46593 0.43078 0.0
O90 O 0.82812 0.47009 0.35738 0.0
O91 O 0.81632 0.40759 0.38986 0.0
O92 O 0.87528 0.46808 0.46112 0.0
O93 O 0.85253 0.40563 0.50201 0.0
O94 O 0.79826 0.45693 0.51684 0.0
O95 O 0.8109 0.51155 0.4657 0.0
C96 C 0.82406 0.43248 0.35074 0.0
C97 C 0.79993 0.49361 0.50957 0.0
C98 C 0.32835 0.73605 0.77206 0.0
C99 C 0.37806 0.88614 0.81165 0.0
O100 O 0.35652 0.7602 0.80525 0.0
Zn101 Zn 0.3477 0.80869 0.79773 0.0
O102 O 0.30459 0.74891 0.74943 0.0
Zn103 Zn 0.29845 0.80671 0.75073 0.0
O104 O 0.30663 0.81928 0.67797 0.0
O105 O 0.36474 0.8244 0.71652 0.0
O106 O 0.3451 0.8708 0.781 0.0
O107 O 0.38843 0.86045 0.83295 0.0
O108 O 0.28732 0.78586 0.83701 0.0
O109 O 0.24037 0.78603 0.78186 0.0
C110 C 0.34595 0.82658 0.67537 0.0
C111 C 0.24865 0.77816 0.82661 0.0
C112 C 0.51885 0.38566 1.02187 0.0
C113 C 0.45459 0.29323 0.17464 0.0
O114 O 0.48191 0.3504 1.02532 0.0
Zn115 Zn 0.48359 0.34125 0.09864 0.0
O116 O 0.54175 0.40202 1.06267 0.0
Zn117 Zn 0.537 0.38622 0.14381 0.0
O118 O 0.5883 0.38194 0.15296 0.0
O119 O 0.53933 0.33177 0.10067 0.0
O120 O 0.49013 0.32901 0.18464 0.0
O121 O 0.43822 0.28704 0.12994 0.0
O122 O 0.47731 0.39429 0.13089 0.0
O123 O 0.53738 0.43497 0.17608 0.0
C124 C 0.57666 0.34932 0.12324 0.0
C125 C 0.50077 0.42805 0.1591 0.0
C126 C 0.12433 0.51197 0.34713 0.0
C127 C 0.16902 0.46211 0.49959 0.0
O128 O 0.12717 0.4775 0.3511 0.0
Zn129 Zn 0.14096 0.48316 0.42399 0.0
O130 O 0.12927 0.535 0.38753 0.0
Zn131 Zn 0.14471 0.53454 0.46854 0.0
O132 O 0.19631 0.58988 0.47462 0.0
O133 O 0.20252 0.54449 0.4208 0.0
O134 O 0.16429 0.49508 0.50916 0.0
O135 O 0.15846 0.44401 0.45571 0.0
O136 O 0.07917 0.47076 0.45776 0.0
O137 O 0.09535 0.52966 0.50357 0.0
C138 C 0.21868 0.58218 0.4423 0.0
C139 C 0.067 0.49227 0.4869 0.0
C140 C 0.65567 0.14954 0.84033 0.0
C141 C 0.56875 0.13037 0.68462 0.0
O142 O 0.66198 0.13944 0.79549 0.0
Zn143 Zn 0.61 0.1349 0.76224 0.0
O144 O 0.6207 0.15096 0.84965 0.0
Zn145 Zn 0.56542 0.14346 0.80803 0.0
O146 O 0.51537 0.09501 0.83866 0.0
O147 O 0.55239 0.07524 0.78686 0.0
O148 O 0.55141 0.13554 0.72567 0.0
O149 O 0.60378 0.12835 0.6882 0.0
O150 O 0.62268 0.20098 0.76904 0.0
O151 O 0.57158 0.19935 0.82005 0.0
C152 C 0.5191 0.06526 0.81591 0.0
C153 C 0.6056 0.2209 0.79237 0.0
C154 C 0.44648 0.60337 1.00993 0.0
C155 C 0.49194 0.69679 0.16386 0.0
O156 O 0.48182 0.63976 1.01654 0.0
Zn157 Zn 0.47201 0.64796 0.08793 0.0
O158 O 0.42019 0.58578 1.04813 0.0
Zn159 Zn 0.41684 0.60204 0.12849 0.0
O160 O 0.36312 0.60146 0.12945 0.0
O161 O 0.413 0.65227 0.07844 0.0
O162 O 0.45681 0.66013 0.17134 0.0
O163 O 0.51225 0.70363 0.12148 0.0
O164 O 0.47838 0.59586 0.12418 0.0
O165 O 0.41589 0.55578 0.16543 0.0
C166 C 0.37416 0.63227 0.09756 0.0
C167 C 0.45328 0.56234 0.15194 0.0
C168 C 0.55675 0.13582 0.53971 0.0
C169 C 0.51493 0.13159 0.53406 0.0
C170 C 0.57335 0.13435 0.58816 0.0
C171 C 0.54904 0.12878 0.63338 0.0
H172 H 0.57742 0.14115 0.50647 0.0
H173 H 0.60602 0.13864 0.59014 0.0
S174 S 0.43651 0.11312 0.64007 0.0
N175 N 0.44869 0.1194 0.5783 0.0
N176 N 0.4798 0.11675 0.66904 0.0
C177 C 0.50671 0.1234 0.62832 0.0
C178 C 0.48973 0.12476 0.57888 0.0
C179 C 0.37652 0.52667 0.90241 0.0
C180 C 0.40101 0.54666 0.85777 0.0
C181 C 0.39224 0.54439 0.95132 0.0
C182 C 0.43328 0.58287 0.95795 0.0
H183 H 0.34418 0.49781 0.89963 0.0
H184 H 0.37131 0.52829 0.98409 0.0
S185 S 0.5124 0.64561 0.85387 0.0
N186 N 0.47005 0.60547 0.82377 0.0
N187 N 0.49949 0.63862 0.91543 0.0
C188 C 0.45901 0.60212 0.9138 0.0
C189 C 0.44294 0.58411 0.86389 0.0
C190 C 0.82507 0.37589 0.29244 0.0
C191 C 0.8255 0.41587 0.29827 0.0
C192 C 0.82308 0.35759 0.24377 0.0
C193 C 0.82124 0.37831 0.19856 0.0
H194 H 0.82559 0.35803 0.32586 0.0
H195 H 0.82198 0.3264 0.24177 0.0
S196 S 0.82281 0.48438 0.19218 0.0
N197 N 0.82507 0.47618 0.2541 0.0
N198 N 0.8213 0.44205 0.163 0.0
C199 C 0.82267 0.41886 0.20374 0.0
C200 C 0.82482 0.43754 0.25336 0.0
C201 C 0.36614 0.83627 0.53093 0.0
C202 C 0.40756 0.83944 0.52573 0.0
C203 C 0.34722 0.83363 0.57931 0.0
C204 C 0.36877 0.83403 0.62482 0.0
H205 H 0.34751 0.83477 0.49729 0.0
H206 H 0.31484 0.83016 0.58082 0.0
S207 S 0.47915 0.84453 0.63293 0.0
N208 N 0.47047 0.8449 0.57081 0.0
N209 N 0.43513 0.84005 0.66148 0.0
C210 C 0.41093 0.83873 0.62033 0.0
C211 C 0.4302 0.84139 0.57096 0.0
C212 C 0.51707 0.38331 0.92533 0.0
C213 C 0.53708 0.40612 0.97087 0.0
C214 C 0.53597 0.39975 0.87704 0.0
C215 C 0.57572 0.4399 0.87189 0.0
H216 H 0.48715 0.35174 0.92692 0.0
H217 H 0.51964 0.38011 0.84351 0.0
S218 S 0.63958 0.51451 0.97886 0.0
N219 N 0.59767 0.4726 1.00737 0.0
N220 N 0.63301 0.50336 0.91686 0.0
C221 C 0.59519 0.46394 0.91698 0.0
C222 C 0.57598 0.44711 0.96627 0.0
C223 C 0.11595 0.50383 0.251 0.0
C224 C 0.119 0.52763 0.29586 0.0
C225 C 0.1146 0.51971 0.20205 0.0
C226 C 0.11612 0.5601 0.19557 0.0
H227 H 0.11544 0.47296 0.2535 0.0
H228 H 0.11293 0.50026 0.16893 0.0
S229 S 0.12334 0.63512 0.30047 0.0
N230 N 0.12271 0.5937 0.33033 0.0
N231 N 0.12014 0.62327 0.23874 0.0
C232 C 0.11826 0.58387 0.24013 0.0
C233 C 0.11971 0.56775 0.29001 0.0
C234 C 0.67167 0.34073 0.38646 0.0
C235 C 0.68332 0.34505 0.43854 0.0
C236 C 0.63171 0.30573 0.36973 0.0
C237 C 0.60192 0.27518 0.40491 0.0
H238 H 0.69499 0.3623 0.358 0.0
H239 H 0.62517 0.30108 0.32889 0.0
S240 S 0.61441 0.27619 0.546 0.0
N241 N 0.66057 0.31886 0.52562 0.0
N242 N 0.5843 0.25386 0.49428 0.0
C243 C 0.61139 0.28161 0.45752 0.0
C244 C 0.65259 0.31645 0.47439 0.0
C245 C 0.32607 0.66594 0.78901 0.0
C246 C 0.32798 0.69674 0.75381 0.0
C247 C 0.33133 0.63111 0.77249 0.0
C248 C 0.34016 0.62715 0.72065 0.0
H249 H 0.32138 0.66934 0.82955 0.0
H250 H 0.33075 0.60848 0.80087 0.0
S251 S 0.34756 0.69929 0.61362 0.0
N252 N 0.33747 0.72057 0.66491 0.0
N253 N 0.34921 0.6559 0.6341 0.0
C254 C 0.34128 0.6573 0.68498 0.0
C255 C 0.33468 0.69199 0.70157 0.0
C256 C 0.61029 0.32438 1.05768 0.0
C257 C 0.60807 0.33534 0.10914 0.0
C258 C 0.64494 0.31901 1.04048 0.0
C259 C 0.67734 0.32295 1.07465 0.0
H260 H 0.58687 0.32294 1.02977 0.0
H261 H 0.64748 0.31366 0.99992 0.0
S262 S 0.68364 0.34642 0.21412 0.0
N263 N 0.63923 0.34687 0.19475 0.0
N264 N 0.70371 0.33506 0.16263 0.0
C265 C 0.67374 0.33063 0.12687 0.0
C266 C 0.63916 0.33732 0.14413 0.0
C267 C 0.32683 0.68719 0.43959 0.0
C268 C 0.32992 0.69913 0.38766 0.0
C269 C 0.29157 0.64775 0.45712 0.0
C270 C 0.2595 0.61869 0.42282 0.0
H271 H 0.35015 0.70969 0.4674 0.0
H272 H 0.2885 0.64066 0.49784 0.0
S273 S 0.25488 0.63298 0.28272 0.0
N274 N 0.29947 0.678 0.30186 0.0
N275 N 0.234 0.60273 0.33462 0.0
C276 C 0.26377 0.62888 0.37038 0.0
C277 C 0.29889 0.66955 0.35278 0.0
C278 C 0.61524 0.33178 0.7997 0.0
C279 C 0.635 0.35008 0.75248 0.0
C280 C 0.6087 0.29095 0.8144 0.0
C281 C 0.62214 0.26762 0.78239 0.0
H282 H 0.60158 0.34741 0.82338 0.0
H283 H 0.59071 0.27649 0.84954 0.0
S284 S 0.68343 0.30679 0.65948 0.0
N285 N 0.67308 0.34577 0.67697 0.0
N286 N 0.66236 0.26932 0.705 0.0
C287 C 0.64615 0.28803 0.73752 0.0
C288 C 0.65203 0.32927 0.72228 0.0
C289 C 0.27877 0.60893 1.0157 0.0
C290 C 0.25656 0.62473 1.04617 0.0
C291 C 0.31987 0.61575 1.03017 0.0
C292 C 0.33971 0.63829 1.07559 0.0
H293 H 0.26328 0.58904 0.98203 0.0
H294 H 0.33459 0.60038 1.00788 0.0
S295 S 0.29966 0.693 0.16375 0.0
N296 N 0.26081 0.6696 0.11992 0.0
N297 N 0.3379 0.68109 0.14753 0.0
C298 C 0.31998 0.65745 0.10406 0.0
C299 C 0.27838 0.65115 0.08906 0.0
C300 C 0.43151 0.00142 0.33405 0.0
C301 C 0.4758 0.03472 0.33441 0.0
C302 C 0.4199 0.9572 0.33192 0.0
C303 C 0.45222 0.94483 0.33142 0.0
H304 H 0.40567 0.00954 0.33648 0.0
H305 H 0.38535 0.93254 0.33327 0.0
S306 S 0.57281 0.01938 0.32954 0.0
N307 N 0.5522 0.05231 0.3315 0.0
N308 N 0.53011 0.96916 0.32891 0.0
C309 C 0.49654 0.97776 0.33022 0.0
C310 C 0.50841 0.02274 0.33131 0.0
C311 C 0.50221 0.5304 0.66205 0.0
C312 C 0.45719 0.49863 0.66328 0.0
C313 C 0.53447 0.51835 0.66517 0.0
C314 C 0.52279 0.4741 0.66828 0.0
H315 H 0.51266 0.56498 0.66149 0.0
H316 H 0.5687 0.54387 0.66643 0.0
S317 S 0.40941 0.37825 0.66835 0.0
N318 N 0.40259 0.42116 0.66501 0.0
N319 N 0.46304 0.39821 0.66946 0.0
C320 C 0.47789 0.44192 0.66664 0.0
C321 C 0.44511 0.45427 0.66454 0.0
C322 C 0.94917 0.4163 1.00374 0.0
C323 C 0.91639 0.42779 1.00059 0.0
C324 C -0.00623 0.44851 1.00325 0.0
C325 C 0.00701 0.49332 1.00096 0.0
H326 H 0.9403 0.38229 1.00776 0.0
H327 H 0.01797 0.43833 1.00721 0.0
S328 S 0.93434 0.54061 0.98952 0.0
N329 N 0.90043 0.48718 0.99222 0.0
N330 N -0.01575 0.5475 0.99277 0.0
C331 C -0.02529 0.50519 0.99621 0.0
C332 C 0.92938 0.47246 0.99558 0.0
C333 C 0.0069 0.50881 0.50124 0.0
C334 C 0.01993 0.47731 0.49442 0.0
C335 C 0.96257 0.49698 0.50035 0.0
C336 C 0.92958 0.4531 0.49402 0.0
H337 H 0.03119 0.54328 0.50466 0.0
H338 H 0.9541 0.52248 0.50356 0.0
S339 S 0.94595 0.35763 0.47874 0.0
N340 N -0.00383 0.40014 0.48361 0.0
N341 N 0.91251 0.37759 0.48354 0.0
C342 C 0.94191 0.42093 0.4899 0.0
C343 C -0.01281 0.43312 0.48965 0.0
C344 C 0.46696 -0.00397 0.86102 0.0
C345 C 0.48172 0.02045 0.8156 0.0
C346 C 0.4317 0.95276 0.86013 0.0
C347 C 0.40927 0.93351 0.81417 0.0
H348 H 0.48362 0.00995 0.89696 0.0
H349 H 0.42243 0.93395 0.89533 0.0
S350 S 0.43394 -0.01427 0.68578 0.0
N351 N 0.4708 0.02359 0.72417 0.0
N352 N 0.40353 0.94293 0.72261 0.0
C353 C 0.42266 0.95858 0.76902 0.0
C354 C 0.45924 0.00197 0.76972 0.0
C355 C 0.50916 0.53906 0.16269 0.0
C356 C 0.46493 0.52825 0.16193 0.0
C357 C 0.52052 0.50631 0.16527 0.0
C358 C 0.488 0.46165 0.16584 0.0
H359 H 0.53515 0.57295 0.15991 0.0
H360 H 0.555 0.516 0.16394 0.0
S361 S 0.36752 0.41602 0.16753 0.0
N362 N 0.38839 0.4696 0.16516 0.0
N363 N 0.41005 0.40832 0.16849 0.0
C364 C 0.44376 0.45045 0.167 0.0
C365 C 0.43214 0.48371 0.16549 0.0
C366 C 0.43561 0.23602 0.30239 0.0
C367 C 0.43462 0.19698 0.28837 0.0
C368 C 0.43836 0.26587 0.26495 0.0
C369 C 0.43875 0.25703 0.21228 0.0
H370 H 0.4384 0.24546 0.34243 0.0
H371 H 0.44289 0.29724 0.27733 0.0
S372 S 0.43156 0.15696 0.15591 0.0
N373 N 0.43099 0.1496 0.21853 0.0
N374 N 0.43393 0.20454 0.14821 0.0
C375 C 0.43377 0.21632 0.1979 0.0
C376 C 0.43232 0.18659 0.23598 0.0
C377 C 0.18444 0.44953 0.58942 0.0
C378 C 0.19403 0.45152 0.53668 0.0
C379 C 0.21427 0.45153 0.62652 0.0
C380 C 0.2554 0.45718 0.61214 0.0
H381 H 0.15476 0.44888 0.60213 0.0
H382 H 0.20662 0.45244 0.66668 0.0
S383 S 0.29501 0.46103 0.47916 0.0
N384 N 0.24591 0.45564 0.472 0.0
N385 N 0.30278 0.4615 0.54169 0.0
C386 C 0.26432 0.45679 0.55958 0.0
C387 C 0.23339 0.45339 0.52183 0.0
C388 C 0.71058 0.1873 0.96946 0.0
C389 C 0.75034 0.22507 0.95631 0.0
C390 C 0.68131 0.16006 0.93131 0.0
C391 C 0.69142 0.16888 0.87881 0.0
H392 H 0.70014 0.18105 1.00922 0.0
H393 H 0.64931 0.13362 0.94292 0.0
S394 S 0.79388 0.26075 0.82482 0.0
N395 N 0.79987 0.26795 0.88758 0.0
N396 N 0.74595 0.21575 0.81604 0.0
C397 C 0.7329 0.20421 0.86545 0.0
C398 C 0.76206 0.23262 0.9042 0.0
C399 C 0.50615 0.72569 0.25354 0.0
C400 C 0.50301 0.73259 0.20101 0.0
C401 C 0.50465 0.75377 0.29094 0.0
C402 C 0.49829 0.78868 0.27706 0.0
H403 H 0.50729 0.69701 0.2659 0.0
H404 H 0.50458 0.74575 0.33104 0.0
S405 S 0.49093 0.82213 0.14461 0.0
N406 N 0.49679 0.77885 0.1369 0.0
N407 N 0.49181 0.83029 0.20719 0.0
C408 C 0.49745 0.79722 0.22461 0.0
C409 C 0.50035 0.76948 0.18655 0.0
C410 C 0.76211 0.50868 0.64023 0.0
C411 C 0.72634 0.51417 0.62778 0.0
C412 C 0.78857 0.50572 0.60163 0.0
C413 C 0.78094 0.50942 0.5494 0.0
H414 H 0.76726 0.50271 0.67964 0.0
H415 H 0.81348 0.49785 0.61253 0.0
S416 S 0.69418 0.52867 0.49748 0.0
N417 N 0.68638 0.52603 0.56023 0.0
N418 N 0.73728 0.52263 0.48781 0.0
C419 C 0.74761 0.51869 0.53691 0.0
C420 C 0.71993 0.52042 0.5761 0.0
C421 C 0.15295 0.68203 0.89078 0.0
C422 C 0.15978 0.69413 0.94297 0.0
C423 C 0.17892 0.71154 0.85216 0.0
C424 C 0.21341 0.7537 0.86459 0.0
H425 H 0.12901 0.64875 0.87996 0.0
H426 H 0.17445 0.69997 0.81284 0.0
S427 S 0.24277 0.80263 0.99464 0.0
N428 N 0.2011 0.75265 1.00435 0.0
N429 N 0.25104 0.80719 0.93197 0.0
C430 C 0.21888 0.76703 0.91617 0.0
C431 C 0.19171 0.73749 0.95533 0.0
loop_
_geom_bond_atom_site_label_1
_geom_bond_atom_site_label_2
_geom_bond_distance
_geom_bond_site_symmetry_2
_ccdc_geom_bond_type
C0 O2 1.247 . S
C0 O4 1.258 . S
C1 O8 1.247 . S
C1 O9 1.258 . S
O2 C0 1.247 . S
O2 Zn3 2.028 . S
Zn3 O2 2.028 . S
Zn3 O7 2.035 . S
Zn3 O9 2.035 . S
Zn3 O10 2.028 . S
O4 C0 1.258 . S
O4 Zn5 2.035 . S
Zn5 O4 2.035 . S
Zn5 O6 2.028 . S
Zn5 O8 2.028 . S
Zn5 O11 2.035 . S
O6 Zn5 2.028 . S
O6 C12 1.247 . S
O7 Zn3 2.035 . S
O7 C12 1.258 . S
O8 C1 1.247 . S
O8 Zn5 2.028 . S
O9 C1 1.258 . S
O9 Zn3 2.035 . S
O10 Zn3 2.028 . S
O10 C13 1.247 . S
O11 Zn5 2.035 . S
O11 C13 1.258 . S
C12 O6 1.247 . S
C12 O7 1.258 . S
C13 O10 1.247 . S
C13 O11 1.258 . S
C14 O16 1.247 . S
C14 O18 1.258 . S
C15 O22 1.247 . S
C15 O23 1.258 . S
O16 C14 1.247 . S
O16 Zn17 2.028 . S
Zn17 O16 2.028 . S
Zn17 O21 2.035 . S
Zn17 O23 2.035 . S
Zn17 O24 2.028 . S
O18 C14 1.258 . S
O18 Zn19 2.035 . S
Zn19 O18 2.035 . S
Zn19 O20 2.028 . S
Zn19 O22 2.028 . S
Zn19 O25 2.035 . S
O20 Zn19 2.028 . S
O20 C26 1.247 . S
O21 Zn17 2.035 . S
O21 C26 1.258 . S
O22 C15 1.247 . S
O22 Zn19 2.028 . S
O23 C15 1.258 . S
O23 Zn17 2.035 . S
O24 Zn17 2.028 . S
O24 C27 1.247 . S
O25 Zn19 2.035 . S
O25 C27 1.258 . S
C26 O20 1.247 . S
C26 O21 1.258 . S
C27 O24 1.247 . S
C27 O25 1.258 . S
C28 O30 1.247 . S
C28 O32 1.258 . S
C29 O36 1.247 . S
C29 O37 1.258 . S
O30 C28 1.247 . S
O30 Zn31 2.028 . S
Zn31 O30 2.028 . S
Zn31 O35 2.035 . S
Zn31 O37 2.035 1_554 S
Zn31 O38 2.028 . S
O32 C28 1.258 . S
O32 Zn33 2.035 1_554 S
Zn33 O32 2.035 1_556 S
Zn33 O34 2.028 . S
Zn33 O36 2.028 . S
Zn33 O39 2.035 . S
O34 Zn33 2.028 . S
O34 C40 1.247 1_556 S
O35 Zn31 2.035 . S
O35 C40 1.258 . S
O36 C29 1.247 . S
O36 Zn33 2.028 . S
O37 C29 1.258 . S
O37 Zn31 2.035 1_556 S
O38 Zn31 2.028 . S
O38 C41 1.247 1_554 S
O39 Zn33 2.035 . S
O39 C41 1.258 . S
C40 O34 1.247 1_554 S
C40 O35 1.258 . S
C41 O38 1.247 1_556 S
C41 O39 1.258 . S
C42 O44 1.247 . S
C42 O46 1.258 . S
C43 O50 1.247 . S
C43 O51 1.258 . S
O44 C42 1.247 . S
O44 Zn45 2.028 . S
Zn45 O44 2.028 . S
Zn45 O49 2.035 . S
Zn45 O51 2.035 . S
Zn45 O52 2.028 . S
O46 C42 1.258 . S
O46 Zn47 2.035 . S
Zn47 O46 2.035 . S
Zn47 O48 2.028 . S
Zn47 O50 2.028 . S
Zn47 O53 2.035 . S
O48 Zn47 2.028 . S
O48 C54 1.247 . S
O49 Zn45 2.035 . S
O49 C54 1.258 . S
O50 C43 1.247 . S
O50 Zn47 2.028 . S
O51 C43 1.258 . S
O51 Zn45 2.035 . S
O52 Zn45 2.028 . S
O52 C55 1.247 . S
O53 Zn47 2.035 . S
O53 C55 1.258 . S
C54 O48 1.247 . S
C54 O49 1.258 . S
C55 O52 1.247 . S
C55 O53 1.258 . S
C56 O58 1.247 . S
C56 O60 1.258 . S
C57 O64 1.247 . S
C57 O65 1.258 . S
O58 C56 1.247 . S
O58 Zn59 2.028 . S
Zn59 O58 2.028 . S
Zn59 O63 2.035 . S
Zn59 O65 2.035 . S
Zn59 O66 2.028 . S
O60 C56 1.258 . S
O60 Zn61 2.035 . S
Zn61 O60 2.035 . S
Zn61 O62 2.028 . S
Zn61 O64 2.028 . S
Zn61 O67 2.035 . S
O62 Zn61 2.028 . S
O62 C68 1.247 . S
O63 Zn59 2.035 . S
O63 C68 1.258 . S
O64 C57 1.247 . S
O64 Zn61 2.028 . S
O65 C57 1.258 . S
O65 Zn59 2.035 . S
O66 Zn59 2.028 . S
O66 C69 1.247 . S
O67 Zn61 2.035 . S
O67 C69 1.258 . S
C68 O62 1.247 . S
C68 O63 1.258 . S
C69 O66 1.247 . S
C69 O67 1.258 . S
C70 O72 1.247 . S
C70 O74 1.258 . S
C71 O78 1.247 . S
C71 O79 1.258 . S
O72 C70 1.247 . S
O72 Zn73 2.028 . S
Zn73 O72 2.028 . S
Zn73 O77 2.035 . S
Zn73 O79 2.035 1_554 S
Zn73 O80 2.028 . S
O74 C70 1.258 . S
O74 Zn75 2.035 1_554 S
Zn75 O74 2.035 1_556 S
Zn75 O76 2.028 . S
Zn75 O78 2.028 . S
Zn75 O81 2.035 . S
O76 Zn75 2.028 . S
O76 C82 1.247 1_556 S
O77 Zn73 2.035 . S
O77 C82 1.258 . S
O78 C71 1.247 . S
O78 Zn75 2.028 . S
O79 C71 1.258 . S
O79 Zn73 2.035 1_556 S
O80 Zn73 2.028 . S
O80 C83 1.247 1_554 S
O81 Zn75 2.035 . S
O81 C83 1.258 . S
C82 O76 1.247 1_554 S
C82 O77 1.258 . S
C83 O80 1.247 1_556 S
C83 O81 1.258 . S
C84 O86 1.247 . S
C84 O88 1.258 . S
C85 O92 1.247 . S
C85 O93 1.258 . S
O86 C84 1.247 . S
O86 Zn87 2.028 . S
Zn87 O86 2.028 . S
Zn87 O91 2.035 . S
Zn87 O93 2.035 . S
Zn87 O94 2.028 . S
O88 C84 1.258 . S
O88 Zn89 2.035 . S
Zn89 O88 2.035 . S
Zn89 O90 2.028 . S
Zn89 O92 2.028 . S
Zn89 O95 2.035 . S
O90 Zn89 2.028 . S
O90 C96 1.247 . S
O91 Zn87 2.035 . S
O91 C96 1.258 . S
O92 C85 1.247 . S
O92 Zn89 2.028 . S
O93 C85 1.258 . S
O93 Zn87 2.035 . S
O94 Zn87 2.028 . S
O94 C97 1.247 . S
O95 Zn89 2.035 . S
O95 C97 1.258 . S
C96 O90 1.247 . S
C96 O91 1.258 . S
C97 O94 1.247 . S
C97 O95 1.258 . S
C98 O100 1.247 . S
C98 O102 1.258 . S
C99 O106 1.247 . S
C99 O107 1.258 . S
O100 C98 1.247 . S
O100 Zn101 2.028 . S
Zn101 O100 2.028 . S
Zn101 O105 2.035 . S
Zn101 O107 2.035 . S
Zn101 O108 2.028 . S
O102 C98 1.258 . S
O102 Zn103 2.035 . S
Zn103 O102 2.035 . S
Zn103 O104 2.028 . S
Zn103 O106 2.028 . S
Zn103 O109 2.035 . S
O104 Zn103 2.028 . S
O104 C110 1.247 . S
O105 Zn101 2.035 . S
O105 C110 1.258 . S
O106 C99 1.247 . S
O106 Zn103 2.028 . S
O107 C99 1.258 . S
O107 Zn101 2.035 . S
O108 Zn101 2.028 . S
O108 C111 1.247 . S
O109 Zn103 2.035 . S
O109 C111 1.258 . S
C110 O104 1.247 . S
C110 O105 1.258 . S
C111 O108 1.247 . S
C111 O109 1.258 . S
C112 O114 1.247 . S
C112 O116 1.258 . S
C113 O120 1.247 . S
C113 O121 1.258 . S
O114 C112 1.247 . S
O114 Zn115 2.028 . S
Zn115 O114 2.028 . S
Zn115 O119 2.035 . S
Zn115 O121 2.035 1_556 S
Zn115 O122 2.028 . S
O116 C112 1.258 . S
O116 Zn117 2.035 1_556 S
Zn117 O116 2.035 1_554 S
Zn117 O118 2.028 . S
Zn117 O120 2.028 . S
Zn117 O123 2.035 . S
O118 Zn117 2.028 . S
O118 C124 1.247 1_554 S
O119 Zn115 2.035 . S
O119 C124 1.258 . S
O120 C113 1.247 . S
O120 Zn117 2.028 . S
O121 C113 1.258 . S
O121 Zn115 2.035 1_554 S
O122 Zn115 2.028 . S
O122 C125 1.247 1_556 S
O123 Zn117 2.035 . S
O123 C125 1.258 . S
C124 O118 1.247 1_556 S
C124 O119 1.258 . S
C125 O122 1.247 1_554 S
C125 O123 1.258 . S
C126 O128 1.247 . S
C126 O130 1.258 . S
C127 O134 1.247 . S
C127 O135 1.258 . S
O128 C126 1.247 . S
O128 Zn129 2.028 . S
Zn129 O128 2.028 . S
Zn129 O133 2.035 . S
Zn129 O135 2.035 . S
Zn129 O136 2.028 . S
O130 C126 1.258 . S
O130 Zn131 2.035 . S
Zn131 O130 2.035 . S
Zn131 O132 2.028 . S
Zn131 O134 2.028 . S
Zn131 O137 2.035 . S
O132 Zn131 2.028 . S
O132 C138 1.247 . S
O133 Zn129 2.035 . S
O133 C138 1.258 . S
O134 C127 1.247 . S
O134 Zn131 2.028 . S
O135 C127 1.258 . S
O135 Zn129 2.035 . S
O136 Zn129 2.028 . S
O136 C139 1.247 . S
O137 Zn131 2.035 . S
O137 C139 1.258 . S
C138 O132 1.247 . S
C138 O133 1.258 . S
C139 O136 1.247 . S
C139 O137 1.258 . S
C140 O142 1.247 . S
C140 O144 1.258 . S
C141 O148 1.247 . S
C141 O149 1.258 . S
O142 C140 1.247 . S
O142 Zn143 2.028 . S
Zn143 O142 2.028 . S
Zn143 O147 2.035 . S
Zn143 O149 2.035 . S
Zn143 O150 2.028 . S
O144 C140 1.258 . S
O144 Zn145 2.035 . S
Zn145 O144 2.035 . S
Zn145 O146 2.028 . S
Zn145 O148 2.028 . S
Zn145 O151 2.035 . S
O146 Zn145 2.028 . S
O146 C152 1.247 . S
O147 Zn143 2.035 . S
O147 C152 1.258 . S
O148 C141 1.247 . S
O148 Zn145 2.028 . S
O149 C141 1.258 . S
O149 Zn143 2.035 . S
O150 Zn143 2.028 . S
O150 C153 1.247 . S
O151 Zn145 2.035 . S
O151 C153 1.258 . S
C152 O146 1.247 . S
C152 O147 1.258 . S
C153 O150 1.247 . S
C153 O151 1.258 . S
C154 O156 1.247 . S
C154 O158 1.258 . S
C155 O162 1.247 . S
C155 O163 1.258 . S
O156 C154 1.247 . S
O156 Zn157 2.028 . S
Zn157 O156 2.028 . S
Zn157 O161 2.035 . S
Zn157 O163 2.035 1_556 S
Zn157 O164 2.028 . S
O158 C154 1.258 . S
O158 Zn159 2.035 1_556 S
Zn159 O158 2.035 1_554 S
Zn159 O160 2.028 . S
Zn159 O162 2.028 . S
Zn159 O165 2.035 . S
O160 Zn159 2.028 . S
O160 C166 1.247 1_554 S
O161 Zn157 2.035 . S
O161 C166 1.258 . S
O162 C155 1.247 . S
O162 Zn159 2.028 . S
O163 C155 1.258 . S
O163 Zn157 2.035 1_554 S
O164 Zn157 2.028 . S
O164 C167 1.247 1_556 S
O165 Zn159 2.035 . S
O165 C167 1.258 . S
C166 O160 1.247 1_556 S
C166 O161 1.258 . S
C167 O164 1.247 1_554 S
C167 O165 1.258 . S
C168 C169 1.369 . S
C168 C170 1.419 . S
C168 H172 0.930 . S
C169 C168 1.369 . S
C169 C178 1.429 . S
C170 C168 1.419 . S
C170 C171 1.363 . S
C170 H173 0.929 . S
C171 C170 1.363 . S
C171 C177 1.428 . S
H172 C168 0.930 . S
H173 C170 0.929 . S
S174 N175 1.613 . S
S174 N176 1.610 . S
N175 S174 1.613 . S
N175 C178 1.350 . S
N176 S174 1.610 . S
N176 C177 1.351 . S
C177 C171 1.428 . S
C177 N176 1.351 . S
C177 C178 1.434 . S
C178 C169 1.429 . S
C178 N175 1.350 . S
C178 C177 1.434 . S
C179 C180 1.369 . S
C179 C181 1.419 . S
C179 H183 0.930 . S
C180 C179 1.369 . S
C180 C189 1.429 . S
C181 C179 1.419 . S
C181 C182 1.363 . S
C181 H184 0.929 . S
C182 C181 1.363 . S
C182 C188 1.428 . S
H183 C179 0.930 . S
H184 C181 0.929 . S
S185 N186 1.613 . S
S185 N187 1.610 . S
N186 S185 1.613 . S
N186 C189 1.350 . S
N187 S185 1.610 . S
N187 C188 1.351 . S
C188 C182 1.428 . S
C188 N187 1.351 . S
C188 C189 1.434 . S
C189 C180 1.429 . S
C189 N186 1.350 . S
C189 C188 1.434 . S
C190 C191 1.369 . S
C190 C192 1.419 . S
C190 H194 0.930 . S
C191 C190 1.369 . S
C191 C200 1.429 . S
C192 C190 1.419 . S
C192 C193 1.363 . S
C192 H195 0.929 . S
C193 C192 1.363 . S
C193 C199 1.428 . S
H194 C190 0.930 . S
H195 C192 0.929 . S
S196 N197 1.613 . S
S196 N198 1.610 . S
N197 S196 1.613 . S
N197 C200 1.350 . S
N198 S196 1.610 . S
N198 C199 1.351 . S
C199 C193 1.428 . S
C199 N198 1.351 . S
C199 C200 1.434 . S
C200 C191 1.429 . S
C200 N197 1.350 . S
C200 C199 1.434 . S
C201 C202 1.369 . S
C201 C203 1.419 . S
C201 H205 0.930 . S
C202 C201 1.369 . S
C202 C211 1.429 . S
C203 C201 1.419 . S
C203 C204 1.363 . S
C203 H206 0.929 . S
C204 C203 1.363 . S
C204 C210 1.428 . S
H205 C201 0.930 . S
H206 C203 0.929 . S
S207 N208 1.613 . S
S207 N209 1.610 . S
N208 S207 1.613 . S
N208 C211 1.350 . S
N209 S207 1.610 . S
N209 C210 1.351 . S
C210 C204 1.428 . S
C210 N209 1.351 . S
C210 C211 1.434 . S
C211 C202 1.429 . S
C211 N208 1.350 . S
C211 C210 1.434 . S
C212 C213 1.369 . S
C212 C214 1.419 . S
C212 H216 0.930 . S
C213 C212 1.369 . S
C213 C222 1.429 . S
C214 C212 1.419 . S
C214 C215 1.363 . S
C214 H217 0.929 . S
C215 C214 1.363 . S
C215 C221 1.428 . S
H216 C212 0.930 . S
H217 C214 0.929 . S
S218 N219 1.613 . S
S218 N220 1.610 . S
N219 S218 1.613 . S
N219 C222 1.350 . S
N220 S218 1.610 . S
N220 C221 1.351 . S
C221 C215 1.428 . S
C221 N220 1.351 . S
C221 C222 1.434 . S
C222 C213 1.429 . S
C222 N219 1.350 . S
C222 C221 1.434 . S
C223 C224 1.369 . S
C223 C225 1.419 . S
C223 H227 0.930 . S
C224 C223 1.369 . S
C224 C233 1.429 . S
C225 C223 1.419 . S
C225 C226 1.363 . S
C225 H228 0.929 . S
C226 C225 1.363 . S
C226 C232 1.428 . S
H227 C223 0.930 . S
H228 C225 0.929 . S
S229 N230 1.613 . S
S229 N231 1.610 . S
N230 S229 1.613 . S
N230 C233 1.350 . S
N231 S229 1.610 . S
N231 C232 1.351 . S
C232 C226 1.428 . S
C232 N231 1.351 . S
C232 C233 1.434 . S
C233 C224 1.429 . S
C233 N230 1.350 . S
C233 C232 1.434 . S
C234 C235 1.369 . S
C234 C236 1.419 . S
C234 H238 0.930 . S
C235 C234 1.369 . S
C235 C244 1.429 . S
C236 C234 1.419 . S
C236 C237 1.363 . S
C236 H239 0.929 . S
C237 C236 1.363 . S
C237 C243 1.428 . S
H238 C234 0.930 . S
H239 C236 0.929 . S
S240 N241 1.613 . S
S240 N242 1.610 . S
N241 S240 1.613 . S
N241 C244 1.350 . S
N242 S240 1.610 . S
N242 C243 1.351 . S
C243 C237 1.428 . S
C243 N242 1.351 . S
C243 C244 1.434 . S
C244 C235 1.429 . S
C244 N241 1.350 . S
C244 C243 1.434 . S
C245 C246 1.369 . S
C245 C247 1.419 . S
C245 H249 0.930 . S
C246 C245 1.369 . S
C246 C255 1.429 . S
C247 C245 1.419 . S
C247 C248 1.363 . S
C247 H250 0.929 . S
C248 C247 1.363 . S
C248 C254 1.428 . S
H249 C245 0.930 . S
H250 C247 0.929 . S
S251 N252 1.613 . S
S251 N253 1.610 . S
N252 S251 1.613 . S
N252 C255 1.350 . S
N253 S251 1.610 . S
N253 C254 1.351 . S
C254 C248 1.428 . S
C254 N253 1.351 . S
C254 C255 1.434 . S
C255 C246 1.429 . S
C255 N252 1.350 . S
C255 C254 1.434 . S
C256 C257 1.369 . S
C256 C258 1.419 . S
C256 H260 0.930 . S
C257 C256 1.369 . S
C257 C266 1.429 1_556 S
C258 C256 1.419 . S
C258 C259 1.363 1_556 S
C258 H261 0.929 . S
C259 C258 1.363 1_554 S
C259 C265 1.428 . S
H260 C256 0.930 . S
H261 C258 0.929 . S
S262 N263 1.613 . S
S262 N264 1.610 . S
N263 S262 1.613 . S
N263 C266 1.350 . S
N264 S262 1.610 . S
N264 C265 1.351 . S
C265 C259 1.428 . S
C265 N264 1.351 . S
C265 C266 1.434 . S
C266 C257 1.429 1_554 S
C266 N263 1.350 . S
C266 C265 1.434 . S
C267 C268 1.369 . S
C267 C269 1.419 . S
C267 H271 0.930 . S
C268 C267 1.369 . S
C268 C277 1.429 . S
C269 C267 1.419 . S
C269 C270 1.363 . S
C269 H272 0.929 . S
C270 C269 1.363 . S
C270 C276 1.428 . S
H271 C267 0.930 . S
H272 C269 0.929 . S
S273 N274 1.613 . S
S273 N275 1.610 . S
N274 S273 1.613 . S
N274 C277 1.350 . S
N275 S273 1.610 . S
N275 C276 1.351 . S
C276 C270 1.428 . S
C276 N275 1.351 . S
C276 C277 1.434 . S
C277 C268 1.429 . S
C277 N274 1.350 . S
C277 C276 1.434 . S
C278 C279 1.369 . S
C278 C280 1.419 . S
C278 H282 0.930 . S
C279 C278 1.369 . S
C279 C288 1.429 . S
C280 C278 1.419 . S
C280 C281 1.363 . S
C280 H283 0.929 . S
C281 C280 1.363 . S
C281 C287 1.428 . S
H282 C278 0.930 . S
H283 C280 0.929 . S
S284 N285 1.613 . S
S284 N286 1.610 . S
N285 S284 1.613 . S
N285 C288 1.350 . S
N286 S284 1.610 . S
N286 C287 1.351 . S
C287 C281 1.428 . S
C287 N286 1.351 . S
C287 C288 1.434 . S
C288 C279 1.429 . S
C288 N285 1.350 . S
C288 C287 1.434 . S
C289 C290 1.369 1_556 S
C289 C291 1.419 . S
C289 H293 0.930 . S
C290 C289 1.369 1_554 S
C290 C299 1.429 . S
C291 C289 1.419 . S
C291 C292 1.363 . S
C291 H294 0.929 . S
C292 C291 1.363 . S
C292 C298 1.428 1_556 S
H293 C289 0.930 . S
H294 C291 0.929 . S
S295 N296 1.613 . S
S295 N297 1.610 . S
N296 S295 1.613 . S
N296 C299 1.350 . S
N297 S295 1.610 . S
N297 C298 1.351 . S
C298 C292 1.428 1_554 S
C298 N297 1.351 . S
C298 C299 1.434 . S
C299 C290 1.429 . S
C299 N296 1.350 . S
C299 C298 1.434 . S
C300 C301 1.369 1_565 S
C300 C302 1.419 . S
C300 H304 0.930 . S
C301 C300 1.369 1_545 S
C301 C310 1.429 . S
C302 C300 1.419 . S
C302 C303 1.363 . S
C302 H305 0.929 . S
C303 C302 1.363 . S
C303 C309 1.428 1_565 S
H304 C300 0.930 . S
H305 C302 0.929 . S
S306 N307 1.613 . S
S306 N308 1.610 . S
N307 S306 1.613 . S
N307 C310 1.350 . S
N308 S306 1.610 . S
N308 C309 1.351 . S
C309 C303 1.428 1_545 S
C309 N308 1.351 . S
C309 C310 1.434 . S
C310 C301 1.429 . S
C310 N307 1.350 . S
C310 C309 1.434 . S
C311 C312 1.369 . S
C311 C313 1.419 . S
C311 H315 0.930 . S
C312 C311 1.369 . S
C312 C321 1.429 . S
C313 C311 1.419 . S
C313 C314 1.363 . S
C313 H316 0.929 . S
C314 C313 1.363 . S
C314 C320 1.428 . S
H315 C311 0.930 . S
H316 C313 0.929 . S
S317 N318 1.613 . S
S317 N319 1.610 . S
N318 S317 1.613 . S
N318 C321 1.350 . S
N319 S317 1.610 . S
N319 C320 1.351 . S
C320 C314 1.428 . S
C320 N319 1.351 . S
C320 C321 1.434 . S
C321 C312 1.429 . S
C321 N318 1.350 . S
C321 C320 1.434 . S
C322 C323 1.369 1_454 S
C322 C324 1.419 . S
C322 H326 0.930 . S
C323 C322 1.369 1_656 S
C323 C332 1.429 . S
C324 C322 1.419 . S
C324 C325 1.363 1_554 S
C324 H327 0.929 . S
C325 C324 1.363 1_556 S
C325 C331 1.428 1_455 S
H326 C322 0.930 . S
H327 C324 0.929 . S
S328 N329 1.613 . S
S328 N330 1.610 . S
N329 S328 1.613 . S
N329 C332 1.350 . S
N330 S328 1.610 . S
N330 C331 1.351 . S
C331 C325 1.428 1_655 S
C331 N330 1.351 . S
C331 C332 1.434 . S
C332 C323 1.429 . S
C332 N329 1.350 . S
C332 C331 1.434 . S
C333 C334 1.369 . S
C333 C335 1.419 . S
C333 H337 0.930 . S
C334 C333 1.369 . S
C334 C343 1.429 1_455 S
C335 C333 1.419 . S
C335 C336 1.363 1_455 S
C335 H338 0.929 . S
C336 C335 1.363 1_655 S
C336 C342 1.428 . S
H337 C333 0.930 . S
H338 C335 0.929 . S
S339 N340 1.613 . S
S339 N341 1.610 . S
N340 S339 1.613 . S
N340 C343 1.350 . S
N341 S339 1.610 . S
N341 C342 1.351 . S
C342 C336 1.428 . S
C342 N341 1.351 . S
C342 C343 1.434 . S
C343 C334 1.429 1_655 S
C343 N340 1.350 . S
C343 C342 1.434 . S
C344 C345 1.369 . S
C344 C346 1.419 1_545 S
C344 H348 0.930 . S
C345 C344 1.369 . S
C345 C354 1.429 . S
C346 C344 1.419 1_565 S
C346 C347 1.363 . S
C346 H349 0.929 . S
C347 C346 1.363 . S
C347 C353 1.428 . S
H348 C344 0.930 . S
H349 C346 0.929 . S
S350 N351 1.613 1_565 S
S350 N352 1.610 . S
N351 S350 1.613 1_545 S
N351 C354 1.350 . S
N352 S350 1.610 . S
N352 C353 1.351 . S
C353 C347 1.428 . S
C353 N352 1.351 . S
C353 C354 1.434 1_565 S
C354 C345 1.429 . S
C354 N351 1.350 . S
C354 C353 1.434 1_545 S
C355 C356 1.369 1_556 S
C355 C357 1.419 . S
C355 H359 0.930 . S
C356 C355 1.369 1_554 S
C356 C365 1.429 . S
C357 C355 1.419 . S
C357 C358 1.363 1_556 S
C357 H360 0.929 . S
C358 C357 1.363 1_554 S
C358 C364 1.428 . S
H359 C355 0.930 . S
H360 C357 0.929 . S
S361 N362 1.613 . S
S361 N363 1.610 . S
N362 S361 1.613 . S
N362 C365 1.350 . S
N363 S361 1.610 . S
N363 C364 1.351 . S
C364 C358 1.428 . S
C364 N363 1.351 . S
C364 C365 1.434 . S
C365 C356 1.429 . S
C365 N362 1.350 . S
C365 C364 1.434 . S
C366 C367 1.369 . S
C366 C368 1.419 . S
C366 H370 0.930 . S
C367 C366 1.369 . S
C367 C376 1.429 . S
C368 C366 1.419 . S
C368 C369 1.363 . S
C368 H371 0.929 . S
C369 C368 1.363 . S
C369 C375 1.428 . S
H370 C366 0.930 . S
H371 C368 0.929 . S
S372 N373 1.613 . S
S372 N374 1.610 . S
N373 S372 1.613 . S
N373 C376 1.350 . S
N374 S372 1.610 . S
N374 C375 1.351 . S
C375 C369 1.428 . S
C375 N374 1.351 . S
C375 C376 1.434 . S
C376 C367 1.429 . S
C376 N373 1.350 . S
C376 C375 1.434 . S
C377 C378 1.369 . S
C377 C379 1.419 . S
C377 H381 0.930 . S
C378 C377 1.369 . S
C378 C387 1.429 . S
C379 C377 1.419 . S
C379 C380 1.363 . S
C379 H382 0.929 . S
C380 C379 1.363 . S
C380 C386 1.428 . S
H381 C377 0.930 . S
H382 C379 0.929 . S
S383 N384 1.613 . S
S383 N385 1.610 . S
N384 S383 1.613 . S
N384 C387 1.350 . S
N385 S383 1.610 . S
N385 C386 1.351 . S
C386 C380 1.428 . S
C386 N385 1.351 . S
C386 C387 1.434 . S
C387 C378 1.429 . S
C387 N384 1.350 . S
C387 C386 1.434 . S
C388 C389 1.369 . S
C388 C390 1.419 . S
C388 H392 0.930 . S
C389 C388 1.369 . S
C389 C398 1.429 . S
C390 C388 1.419 . S
C390 C391 1.363 . S
C390 H393 0.929 . S
C391 C390 1.363 . S
C391 C397 1.428 . S
H392 C388 0.930 . S
H393 C390 0.929 . S
S394 N395 1.613 . S
S394 N396 1.610 . S
N395 S394 1.613 . S
N395 C398 1.350 . S
N396 S394 1.610 . S
N396 C397 1.351 . S
C397 C391 1.428 . S
C397 N396 1.351 . S
C397 C398 1.434 . S
C398 C389 1.429 . S
C398 N395 1.350 . S
C398 C397 1.434 . S
C399 C400 1.369 . S
C399 C401 1.419 . S
C399 H403 0.930 . S
C400 C399 1.369 . S
C400 C409 1.429 . S
C401 C399 1.419 . S
C401 C402 1.363 . S
C401 H404 0.929 . S
C402 C401 1.363 . S
C402 C408 1.428 . S
H403 C399 0.930 . S
H404 C401 0.929 . S
S405 N406 1.613 . S
S405 N407 1.610 . S
N406 S405 1.613 . S
N406 C409 1.350 . S
N407 S405 1.610 . S
N407 C408 1.351 . S
C408 C402 1.428 . S
C408 N407 1.351 . S
C408 C409 1.434 . S
C409 C400 1.429 . S
C409 N406 1.350 . S
C409 C408 1.434 . S
C410 C411 1.369 . S
C410 C412 1.419 . S
C410 H414 0.930 . S
C411 C410 1.369 . S
C411 C420 1.429 . S
C412 C410 1.419 . S
C412 C413 1.363 . S
C412 H415 0.929 . S
C413 C412 1.363 . S
C413 C419 1.428 . S
H414 C410 0.930 . S
H415 C412 0.929 . S
S416 N417 1.613 . S
S416 N418 1.610 . S
N417 S416 1.613 . S
N417 C420 1.350 . S
N418 S416 1.610 . S
N418 C419 1.351 . S
C419 C413 1.428 . S
C419 N418 1.351 . S
C419 C420 1.434 . S
C420 C411 1.429 . S
C420 N417 1.350 . S
C420 C419 1.434 . S
C421 C422 1.369 . S
C421 C423 1.419 . S
C421 H425 0.930 . S
C422 C421 1.369 . S
C422 C431 1.429 . S
C423 C421 1.419 . S
C423 C424 1.363 . S
C423 H426 0.929 . S
C424 C423 1.363 . S
C424 C430 1.428 . S
H425 C421 0.930 . S
H426 C423 0.929 . S
S427 N428 1.613 . S
S427 N429 1.610 . S
N428 S427 1.613 . S
N428 C431 1.350 . S
N429 S427 1.610 . S
N429 C430 1.351 . S
C430 C424 1.428 . S
C430 N429 1.351 . S
C430 C431 1.434 . S
C431 C422 1.429 . S
C431 N428 1.350 . S
C431 C430 1.434 . S
C169 C12 1.511 . S
C171 C141 1.506 . S
C180 C26 1.530 . S
C182 C154 1.534 . S
C191 C96 1.529 . S
C193 C28 1.530 . S
C202 C42 1.508 . S
C204 C110 1.507 . S
C213 C112 1.529 . S
C215 C57 1.534 . S
C224 C126 1.528 . S
C226 C70 1.532 . S
C235 C84 1.282 . S
C237 C0 1.283 . S
C246 C98 1.282 . S
C248 C14 1.283 . S
C257 C124 1.279 . S
C259 C40 1.279 . S
C268 C54 1.286 . S
C270 C138 1.286 . S
C279 C69 1.289 . S
C281 C153 1.289 . S
C290 C82 1.284 . S
C292 C166 1.283 . S
C301 C1 2.265 . S
C303 C55 2.271 . S
C312 C15 2.270 . S
C314 C68 2.262 . S
C323 C41 2.262 . S
C325 C83 2.268 . S
C334 C139 2.273 . S
C336 C85 2.265 . S
C345 C152 2.262 . S
C347 C99 2.269 . S
C356 C167 2.264 . S
C358 C125 2.267 . S
C367 C13 1.862 . S
C369 C113 1.859 . S
C378 C127 1.880 . S
C380 C27 1.883 . S
C389 C29 1.863 . S
C391 C140 1.858 . S
C400 C155 1.861 . S
C402 C43 1.861 . S
C411 C56 1.881 . S
C413 C97 1.883 . S
C422 C71 1.862 . S
C424 C111 1.862 . S
