# Generated by pormake.
# Topology cha, (4)-cn, num edge types: 1
# Building blocks:
#     Node 0, Type 0, BuildingBlock: AZAVOO_clean_sbu_0, # of connection points: 4
#     Node 1, Type 0, BuildingBlock: AZAVOO_clean_sbu_0, # of connection points: 4
#     Node 2, Type 0, BuildingBlock: AZAVOO_clean_sbu_0, # of connection points: 4
#     Node 3, Type 0, BuildingBlock: AZAVOO_clean_sbu_0, # of connection points: 4
#     Node 4, Type 0, BuildingBlock: AZAVOO_clean_sbu_0, # of connection points: 4
#     Node 5, Type 0, BuildingBlock: AZAVOO_clean_sbu_0, # of connection points: 4
#     Node 6, Type 0, BuildingBlock: AZAVOO_clean_sbu_0, # of connection points: 4
#     Node 7, Type 0, BuildingBlock: AZAVOO_clean_sbu_0, # of connection points: 4
#     Node 8, Type 0, BuildingBlock: AZAVOO_clean_sbu_0, # of connection points: 4
#     Node 9, Type 0, BuildingBlock: AZAVOO_clean_sbu_0, # of connection points: 4
#     Node 10, Type 0, BuildingBlock: AZAVOO_clean_sbu_0, # of connection points: 4
#     Node 11, Type 0, BuildingBlock: AZAVOO_clean_sbu_0, # of connection points: 4
#     Node 12, Type 0, BuildingBlock: AZAVOO_clean_sbu_0, # of connection points: 4
#     Node 13, Type 0, BuildingBlock: AZAVOO_clean_sbu_0, # of connection points: 4
#     Node 14, Type 0, BuildingBlock: AZAVOO_clean_sbu_0, # of connection points: 4
#     Node 15, Type 0, BuildingBlock: AZAVOO_clean_sbu_0, # of connection points: 4
#     Node 16, Type 0, BuildingBlock: AZAVOO_clean_sbu_0, # of connection points: 4
#     Node 17, Type 0, BuildingBlock: AZAVOO_clean_sbu_0, # of connection points: 4
#     Node 18, Type 0, BuildingBlock: AZAVOO_clean_sbu_0, # of connection points: 4
#     Node 19, Type 0, BuildingBlock: AZAVOO_clean_sbu_0, # of connection points: 4
#     Node 20, Type 0, BuildingBlock: AZAVOO_clean_sbu_0, # of connection points: 4
#     Node 21, Type 0, BuildingBlock: AZAVOO_clean_sbu_0, # of connection points: 4
#     Node 22, Type 0, BuildingBlock: AZAVOO_clean_sbu_0, # of connection points: 4
#     Node 23, Type 0, BuildingBlock: AZAVOO_clean_sbu_0, # of connection points: 4
#     Node 24, Type 0, BuildingBlock: AZAVOO_clean_sbu_0, # of connection points: 4
#     Node 25, Type 0, BuildingBlock: AZAVOO_clean_sbu_0, # of connection points: 4
#     Node 26, Type 0, BuildingBlock: AZAVOO_clean_sbu_0, # of connection points: 4
#     Node 27, Type 0, BuildingBlock: AZAVOO_clean_sbu_0, # of connection points: 4
#     Node 28, Type 0, BuildingBlock: AZAVOO_clean_sbu_0, # of connection points: 4
#     Node 29, Type 0, BuildingBlock: AZAVOO_clean_sbu_0, # of connection points: 4
#     Node 30, Type 0, BuildingBlock: AZAVOO_clean_sbu_0, # of connection points: 4
#     Node 31, Type 0, BuildingBlock: AZAVOO_clean_sbu_0, # of connection points: 4
#     Node 32, Type 0, BuildingBlock: AZAVOO_clean_sbu_0, # of connection points: 4
#     Node 33, Type 0, BuildingBlock: AZAVOO_clean_sbu_0, # of connection points: 4
#     Node 34, Type 0, BuildingBlock: AZAVOO_clean_sbu_0, # of connection points: 4
#     Node 35, Type 0, BuildingBlock: AZAVOO_clean_sbu_0, # of connection points: 4
#     Edge 36, Type (0, 0), BuildingBlock: XUDNAN_clean_linker_2, # of connection points: 2
#     Edge 37, Type (0, 0), BuildingBlock: XUDNAN_clean_linker_2, # of connection points: 2
#     Edge 38, Type (0, 0), BuildingBlock: XUDNAN_clean_linker_2, # of connection points: 2
#     Edge 39, Type (0, 0), BuildingBlock: XUDNAN_clean_linker_2, # of connection points: 2
#     Edge 40, Type (0, 0), BuildingBlock: XUDNAN_clean_linker_2, # of connection points: 2
#     Edge 41, Type (0, 0), BuildingBlock: XUDNAN_clean_linker_2, # of connection points: 2
#     Edge 42, Type (0, 0), BuildingBlock: XUDNAN_clean_linker_2, # of connection points: 2
#     Edge 43, Type (0, 0), BuildingBlock: XUDNAN_clean_linker_2, # of connection points: 2
#     Edge 44, Type (0, 0), BuildingBlock: XUDNAN_clean_linker_2, # of connection points: 2
#     Edge 45, Type (0, 0), BuildingBlock: XUDNAN_clean_linker_2, # of connection points: 2
#     Edge 46, Type (0, 0), BuildingBlock: XUDNAN_clean_linker_2, # of connection points: 2
#     Edge 47, Type (0, 0), BuildingBlock: XUDNAN_clean_linker_2, # of connection points: 2
#     Edge 48, Type (0, 0), BuildingBlock: XUDNAN_clean_linker_2, # of connection points: 2
#     Edge 49, Type (0, 0), BuildingBlock: XUDNAN_clean_linker_2, # of connection points: 2
#     Edge 50, Type (0, 0), BuildingBlock: XUDNAN_clean_linker_2, # of connection points: 2
#     Edge 51, Type (0, 0), BuildingBlock: XUDNAN_clean_linker_2, # of connection points: 2
#     Edge 52, Type (0, 0), BuildingBlock: XUDNAN_clean_linker_2, # of connection points: 2
#     Edge 53, Type (0, 0), BuildingBlock: XUDNAN_clean_linker_2, # of connection points: 2
#     Edge 54, Type (0, 0), BuildingBlock: XUDNAN_clean_linker_2, # of connection points: 2
#     Edge 55, Type (0, 0), BuildingBlock: XUDNAN_clean_linker_2, # of connection points: 2
#     Edge 56, Type (0, 0), BuildingBlock: XUDNAN_clean_linker_2, # of connection points: 2
#     Edge 57, Type (0, 0), BuildingBlock: XUDNAN_clean_linker_2, # of connection points: 2
#     Edge 58, Type (0, 0), BuildingBlock: XUDNAN_clean_linker_2, # of connection points: 2
#     Edge 59, Type (0, 0), BuildingBlock: XUDNAN_clean_linker_2, # of connection points: 2
#     Edge 60, Type (0, 0), BuildingBlock: XUDNAN_clean_linker_2, # of connection points: 2
#     Edge 61, Type (0, 0), BuildingBlock: XUDNAN_clean_linker_2, # of connection points: 2
#     Edge 62, Type (0, 0), BuildingBlock: XUDNAN_clean_linker_2, # of connection points: 2
#     Edge 63, Type (0, 0), BuildingBlock: XUDNAN_clean_linker_2, # of connection points: 2
#     Edge 64, Type (0, 0), BuildingBlock: XUDNAN_clean_linker_2, # of connection points: 2
#     Edge 65, Type (0, 0), BuildingBlock: XUDNAN_clean_linker_2, # of connection points: 2
#     Edge 66, Type (0, 0), BuildingBlock: XUDNAN_clean_linker_2, # of connection points: 2
#     Edge 67, Type (0, 0), BuildingBlock: XUDNAN_clean_linker_2, # of connection points: 2
#     Edge 68, Type (0, 0), BuildingBlock: XUDNAN_clean_linker_2, # of connection points: 2
#     Edge 69, Type (0, 0), BuildingBlock: XUDNAN_clean_linker_2, # of connection points: 2
#     Edge 70, Type (0, 0), BuildingBlock: XUDNAN_clean_linker_2, # of connection points: 2
#     Edge 71, Type (0, 0), BuildingBlock: XUDNAN_clean_linker_2, # of connection points: 2
#     Edge 72, Type (0, 0), BuildingBlock: XUDNAN_clean_linker_2, # of connection points: 2
#     Edge 73, Type (0, 0), BuildingBlock: XUDNAN_clean_linker_2, # of connection points: 2
#     Edge 74, Type (0, 0), BuildingBlock: XUDNAN_clean_linker_2, # of connection points: 2
#     Edge 75, Type (0, 0), BuildingBlock: XUDNAN_clean_linker_2, # of connection points: 2
#     Edge 76, Type (0, 0), BuildingBlock: XUDNAN_clean_linker_2, # of connection points: 2
#     Edge 77, Type (0, 0), BuildingBlock: XUDNAN_clean_linker_2, # of connection points: 2
#     Edge 78, Type (0, 0), BuildingBlock: XUDNAN_clean_linker_2, # of connection points: 2
#     Edge 79, Type (0, 0), BuildingBlock: XUDNAN_clean_linker_2, # of connection points: 2
#     Edge 80, Type (0, 0), BuildingBlock: XUDNAN_clean_linker_2, # of connection points: 2
#     Edge 81, Type (0, 0), BuildingBlock: XUDNAN_clean_linker_2, # of connection points: 2
#     Edge 82, Type (0, 0), BuildingBlock: XUDNAN_clean_linker_2, # of connection points: 2
#     Edge 83, Type (0, 0), BuildingBlock: XUDNAN_clean_linker_2, # of connection points: 2
#     Edge 84, Type (0, 0), BuildingBlock: XUDNAN_clean_linker_2, # of connection points: 2
#     Edge 85, Type (0, 0), BuildingBlock: XUDNAN_clean_linker_2, # of connection points: 2
#     Edge 86, Type (0, 0), BuildingBlock: XUDNAN_clean_linker_2, # of connection points: 2
#     Edge 87, Type (0, 0), BuildingBlock: XUDNAN_clean_linker_2, # of connection points: 2
#     Edge 88, Type (0, 0), BuildingBlock: XUDNAN_clean_linker_2, # of connection points: 2
#     Edge 89, Type (0, 0), BuildingBlock: XUDNAN_clean_linker_2, # of connection points: 2
#     Edge 90, Type (0, 0), BuildingBlock: XUDNAN_clean_linker_2, # of connection points: 2
#     Edge 91, Type (0, 0), BuildingBlock: XUDNAN_clean_linker_2, # of connection points: 2
#     Edge 92, Type (0, 0), BuildingBlock: XUDNAN_clean_linker_2, # of connection points: 2
#     Edge 93, Type (0, 0), BuildingBlock: XUDNAN_clean_linker_2, # of connection points: 2
#     Edge 94, Type (0, 0), BuildingBlock: XUDNAN_clean_linker_2, # of connection points: 2
#     Edge 95, Type (0, 0), BuildingBlock: XUDNAN_clean_linker_2, # of connection points: 2
#     Edge 96, Type (0, 0), BuildingBlock: XUDNAN_clean_linker_2, # of connection points: 2
#     Edge 97, Type (0, 0), BuildingBlock: XUDNAN_clean_linker_2, # of connection points: 2
#     Edge 98, Type (0, 0), BuildingBlock: XUDNAN_clean_linker_2, # of connection points: 2
#     Edge 99, Type (0, 0), BuildingBlock: XUDNAN_clean_linker_2, # of connection points: 2
#     Edge 100, Type (0, 0), BuildingBlock: XUDNAN_clean_linker_2, # of connection points: 2
#     Edge 101, Type (0, 0), BuildingBlock: XUDNAN_clean_linker_2, # of connection points: 2
#     Edge 102, Type (0, 0), BuildingBlock: XUDNAN_clean_linker_2, # of connection points: 2
#     Edge 103, Type (0, 0), BuildingBlock: XUDNAN_clean_linker_2, # of connection points: 2
#     Edge 104, Type (0, 0), BuildingBlock: XUDNAN_clean_linker_2, # of connection points: 2
#     Edge 105, Type (0, 0), BuildingBlock: XUDNAN_clean_linker_2, # of connection points: 2
#     Edge 106, Type (0, 0), BuildingBlock: XUDNAN_clean_linker_2, # of connection points: 2
#     Edge 107, Type (0, 0), BuildingBlock: XUDNAN_clean_linker_2, # of connection points: 2
# Relax obj value: 0.173
# Max RMSD: 0.156
# Mean RMSD: 0.156
data_MOF--net-cha--node1-AZAVOO_clean_sbu_0--edge1-XUDNAN_clean_linker_2
_symmetry_space_group_name_H-M    P1
_symmetry_Int_Tables_number       1
_symmetry_cell_setting            triclinic
loop_
_symmetry_equiv_pos_as_xyz
'x, y, z'
_cell_length_a     65.096406
_cell_length_b     64.898889
_cell_length_c     71.364139
_cell_angle_alpha  90.035718
_cell_angle_beta   90.007565
_cell_angle_gamma 120.02777
loop_
_atom_site_label
_atom_site_type_symbol
_atom_site_fract_x
_atom_site_fract_y
_atom_site_fract_z
_atom_type_partial_charge
Mg0 Mg 0.03427 0.25979 0.09309 0.0
O1 O -0.00266 0.22674 0.08902 0.0
O2 O -0.00044 0.20546 0.06525 0.0
Mg3 Mg 0.03771 0.22363 0.05508 0.0
C4 C 0.9878 0.20876 0.07804 0.0
C5 C 0.02835 0.2897 0.12327 0.0
O6 O 0.04393 0.30611 0.11202 0.0
O7 O 0.04635 0.23672 0.10801 0.0
O8 O 0.04791 0.21568 0.08377 0.0
O9 O 0.02645 0.27998 0.07185 0.0
O10 O 0.04231 0.2576 0.06523 0.0
C11 C 0.0501 0.22071 0.10123 0.0
C12 C 0.03366 0.27049 0.05944 0.0
O13 O 0.02157 0.268 0.11995 0.0
Mg14 Mg 0.78945 0.79131 0.1062 0.0
O15 O 0.82924 0.80438 0.10375 0.0
O16 O 0.84329 0.83375 0.08253 0.0
Mg17 Mg 0.81308 0.83725 0.06975 0.0
C18 C 0.84632 0.82087 0.09448 0.0
C19 C 0.76974 0.74992 0.13048 0.0
O20 O 0.75674 0.74477 0.11526 0.0
O21 O 0.79755 0.82493 0.12223 0.0
O22 O 0.80878 0.85067 0.09826 0.0
O23 O 0.78109 0.76424 0.08373 0.0
O24 O 0.78863 0.80088 0.07847 0.0
C25 C 0.80405 0.84552 0.11556 0.0
C26 C 0.78397 0.78054 0.07193 0.0
O27 O 0.78679 0.77098 0.13275 0.0
Mg28 Mg 0.2526 0.02565 0.10827 0.0
O29 O 0.24867 0.05857 0.10546 0.0
O30 O 0.22266 0.05251 0.08278 0.0
Mg31 Mg 0.20849 0.01461 0.07189 0.0
C32 C 0.23732 0.06567 0.09535 0.0
C33 C 0.29101 0.06263 0.13396 0.0
O34 O 0.29529 0.07403 0.11794 0.0
O35 O 0.2177 0.00565 0.12391 0.0
O36 O 0.19198 -0.0017 0.10051 0.0
O37 O 0.27985 0.03838 0.0855 0.0
O38 O 0.24126 0.01547 0.08074 0.0
C39 C 0.19657 0.99644 0.11764 0.0
C40 C 0.26233 0.02715 0.07399 0.0
O41 O 0.27363 0.04148 0.13501 0.0
Mg42 Mg 0.25773 0.03054 0.90274 0.0
O43 O 0.22225 0.99508 0.90437 0.0
O44 O 0.20171 -0.00079 0.92782 0.0
Mg45 Mg 0.22198 0.03703 0.93924 0.0
C46 C 0.204 0.98688 0.91494 0.0
C47 C 0.28438 0.03555 0.86667 0.0
O48 O 0.29266 0.05772 0.87197 0.0
O49 O 0.24021 0.0483 0.88716 0.0
O50 O 0.21999 0.05245 0.91073 0.0
O51 O 0.27277 0.01778 0.92491 0.0
O52 O 0.25485 0.0384 0.93058 0.0
C53 C 0.22657 0.05547 0.89358 0.0
C54 C 0.26475 0.02695 0.93695 0.0
O55 O 0.26758 0.01905 0.87596 0.0
Mg56 Mg 0.01284 0.24623 0.88953 0.0
O57 O 0.04995 0.24948 0.89349 0.0
O58 O 0.05175 0.23472 0.92146 0.0
Mg59 Mg 0.01281 0.20836 0.9266 0.0
C60 C 0.06165 0.24625 0.90648 0.0
C61 C 0.01739 0.27961 0.85849 0.0
O62 O 0.00043 0.27901 0.86887 0.0
O63 O -0.00396 0.21013 0.875 0.0
O64 O 0.01535 0.20225 0.89573 0.0
O65 O 0.02305 0.27474 0.91045 0.0
O66 O 0.00465 0.23645 0.918 0.0
C67 C -0.00169 0.19472 0.88424 0.0
C68 C 0.01481 0.25842 0.92325 0.0
O69 O 0.0254 0.26594 0.86254 0.0
Mg70 Mg 0.79336 0.77808 0.90065 0.0
O71 O 0.79475 0.81424 0.89947 0.0
O72 O 0.82162 0.83795 0.92062 0.0
Mg73 Mg 0.83892 0.81812 0.93332 0.0
C74 C 0.806 0.83405 0.90818 0.0
C75 C 0.74957 0.75156 0.87564 0.0
O76 O 0.74019 0.74363 0.89222 0.0
O77 O 0.82684 0.79278 0.88366 0.0
O78 O 0.85428 0.81688 0.90422 0.0
O79 O 0.76693 0.76585 0.92338 0.0
O80 O 0.80572 0.78448 0.92819 0.0
C81 C 0.84829 0.80743 0.88793 0.0
C82 C 0.78455 0.77506 0.93497 0.0
O83 O 0.77156 0.76648 0.87432 0.0
Mg84 Mg 0.00882 0.78865 0.89201 0.0
O85 O 0.04588 0.82208 0.89505 0.0
O86 O 0.04072 0.84683 0.9138 0.0
Mg87 Mg 0.00211 0.82989 0.92283 0.0
C88 C 0.05384 0.84184 0.90375 0.0
C89 C 0.00467 0.7546 0.86222 0.0
O90 O 0.98317 0.74562 0.86916 0.0
O91 O -0.00386 0.8072 0.87215 0.0
O92 O 0.98966 0.8294 0.89258 0.0
O93 O 0.01506 0.77212 0.91686 0.0
O94 O -0.0011 0.79509 0.91804 0.0
C95 C 0.9886 0.82145 0.87599 0.0
C96 C 0.00655 0.78286 0.92669 0.0
O97 O 0.0209 0.77459 0.86825 0.0
Mg98 Mg 0.26441 0.25622 0.89731 0.0
O99 O 0.22829 0.25416 0.89899 0.0
O100 O 0.20798 0.23253 0.92372 0.0
Mg101 Mg 0.23 0.21747 0.93625 0.0
C102 C 0.21011 0.24546 0.90958 0.0
C103 C 0.26486 0.29004 0.86693 0.0
O104 O 0.2566 0.29575 0.88163 0.0
O105 O 0.24689 0.21927 0.88429 0.0
O106 O 0.22681 0.19711 0.90894 0.0
O107 O 0.27996 0.28643 0.91789 0.0
O108 O 0.26286 0.24862 0.92602 0.0
C109 C 0.23312 0.1991 0.89176 0.0
C110 C 0.27282 0.27061 0.93105 0.0
O111 O 0.27024 0.27381 0.86858 0.0
Mg112 Mg 0.79383 0.02725 0.89147 0.0
O113 O 0.79433 0.99159 0.89463 0.0
O114 O 0.80969 0.99073 0.92256 0.0
Mg115 Mg 0.83328 0.03018 0.9283 0.0
C116 C 0.79888 0.98053 0.9074 0.0
C117 C 0.76213 0.02349 0.85893 0.0
O118 O 0.76666 0.04386 0.86638 0.0
O119 O 0.83013 0.04775 0.87708 0.0
O120 O 0.83897 0.02858 0.89731 0.0
O121 O 0.76538 0.01396 0.91273 0.0
O122 O 0.80355 0.03564 0.91988 0.0
C123 C 0.84589 0.04595 0.88621 0.0
C124 C 0.78181 0.02348 0.92535 0.0
O125 O 0.77342 0.0135 0.86475 0.0
Mg126 Mg 0.78491 0.01543 0.0959 0.0
O127 O 0.82051 0.04987 0.09259 0.0
O128 O 0.842 0.04349 0.07147 0.0
Mg129 Mg 0.82006 0.005 0.0614 0.0
C130 C 0.83938 0.05706 0.08296 0.0
C131 C 0.75754 0.02119 0.12855 0.0
O132 O 0.74182 -0.00053 0.12339 0.0
O133 O 0.80178 -0.00127 0.11306 0.0
O134 O 0.82051 0.99015 0.09076 0.0
O135 O 0.76901 0.02572 0.07307 0.0
O136 O 0.78729 0.00491 0.06902 0.0
C137 C 0.81411 0.98954 0.10779 0.0
C138 C 0.77675 0.0154 0.06193 0.0
O139 O 0.77782 0.03149 0.12093 0.0
Mg140 Mg 0.02696 0.79648 0.09734 0.0
O141 O -0.00084 0.80847 0.09723 0.0
O142 O 0.01157 0.83797 0.07623 0.0
Mg143 Mg 0.04527 0.84338 0.06216 0.0
C144 C -0.00311 0.82449 0.08866 0.0
C145 C 0.02018 0.76401 0.13068 0.0
O146 O 0.03944 0.76601 0.12299 0.0
O147 O 0.05232 0.83001 0.11334 0.0
O148 O 0.06361 0.85733 0.09056 0.0
O149 O 0.00684 0.76974 0.07555 0.0
O150 O 0.03498 0.8066 0.06937 0.0
C151 C 0.06447 0.85134 0.10746 0.0
C152 C 0.01841 0.78629 0.06331 0.0
O153 O 0.0113 0.77593 0.12396 0.0
Mg154 Mg 0.24197 0.26789 0.0991 0.0
O155 O 0.24827 0.23571 0.09874 0.0
O156 O 0.23003 0.21532 0.07276 0.0
Mg157 Mg 0.21219 0.23258 0.05726 0.0
C158 C 0.24227 0.21817 0.08753 0.0
C159 C 0.26464 0.27844 0.1431 0.0
O160 O 0.25836 0.27859 0.16058 0.0
O161 O 0.20416 0.24314 0.10785 0.0
O162 O 0.18639 0.22196 0.08219 0.0
O163 O 0.27462 0.29026 0.08123 0.0
O164 O 0.23881 0.26599 0.07029 0.0
C165 C 0.18599 0.22694 0.09945 0.0
C166 C 0.26087 0.28017 0.06699 0.0
O167 O 0.2494 0.27405 0.13036 0.0
Mg168 Mg 0.6913 0.595 0.43544 0.0
O169 O 0.65756 0.55918 0.42948 0.0
O170 O 0.66501 0.54102 0.40605 0.0
Mg171 Mg 0.70318 0.56528 0.39663 0.0
C172 C 0.6511 0.54148 0.41843 0.0
C173 C 0.68251 0.60479 0.47837 0.0
O174 O 0.70437 0.60997 0.48196 0.0
O175 O 0.70722 0.57513 0.45016 0.0
O176 O 0.71477 0.55893 0.42531 0.0
O177 O 0.68149 0.61384 0.414 0.0
O178 O 0.70234 0.59622 0.40796 0.0
C179 C 0.71518 0.56249 0.44296 0.0
C180 C 0.69194 0.60733 0.40192 0.0
O181 O 0.6741 0.59828 0.46197 0.0
Mg182 Mg 0.43893 0.13087 0.42355 0.0
O183 O 0.47339 0.12939 0.42688 0.0
O184 O 0.50248 0.16319 0.41479 0.0
Mg185 Mg 0.48703 0.18499 0.40281 0.0
C186 C 0.49524 0.14331 0.42306 0.0
C187 C 0.42752 0.09658 0.45816 0.0
O188 O 0.44652 0.11441 0.4657 0.0
O189 O 0.44976 0.15778 0.44756 0.0
O190 O 0.47799 0.18997 0.43286 0.0
O191 O 0.4326 0.11388 0.39574 0.0
O192 O 0.45216 0.15283 0.40019 0.0
C193 C 0.46542 0.17986 0.44736 0.0
C194 C 0.44453 0.1351 0.38881 0.0
O195 O 0.42037 0.09901 0.44226 0.0
Mg196 Mg 0.91085 0.34725 0.43398 0.0
O197 O 0.91096 0.38251 0.43636 0.0
O198 O 0.89317 0.38562 0.41058 0.0
Mg199 Mg 0.88054 0.35212 0.39258 0.0
C200 C 0.90388 0.39387 0.42615 0.0
C201 C 0.92652 0.35275 0.48115 0.0
O202 O 0.9131 0.34282 0.49592 0.0
O203 O 0.8723 0.32726 0.44113 0.0
O204 O 0.85368 0.32846 0.41522 0.0
O205 O 0.94495 0.36594 0.41728 0.0
O206 O 0.9089 0.34764 0.40512 0.0
C207 C 0.85343 0.32168 0.43208 0.0
C208 C 0.93133 0.3603 0.4027 0.0
O209 O 0.91666 0.34794 0.46521 0.0
Mg210 Mg 0.92857 0.37074 0.23212 0.0
O211 O 0.89172 0.33758 0.23505 0.0
O212 O 0.87014 0.34551 0.2549 0.0
Mg213 Mg 0.89274 0.38433 0.26393 0.0
C214 C 0.87249 0.33128 0.24394 0.0
C215 C 0.95644 0.36116 0.20112 0.0
O216 O 0.97209 0.38344 0.20488 0.0
O217 O 0.91352 0.3878 0.21214 0.0
O218 O 0.89305 0.39537 0.23356 0.0
O219 O 0.94118 0.36086 0.25814 0.0
O220 O 0.92559 0.38421 0.25785 0.0
C221 C 0.90001 0.39605 0.21671 0.0
C222 C 0.93447 0.37371 0.26727 0.0
O223 O 0.93631 0.35161 0.20907 0.0
Mg224 Mg 0.66539 0.57653 0.23298 0.0
O225 O 0.70013 0.57515 0.23297 0.0
O226 O 0.6967 0.55055 0.25618 0.0
Mg227 Mg 0.66168 0.53826 0.27146 0.0
C228 C 0.70825 0.56417 0.24255 0.0
C229 C 0.67747 0.59782 0.18701 0.0
O230 O 0.66512 0.58372 0.17313 0.0
O231 O 0.64501 0.53944 0.22118 0.0
O232 O 0.64149 0.51629 0.24546 0.0
O233 O 0.68179 0.60804 0.25201 0.0
O234 O 0.66175 0.5706 0.2615 0.0
C235 C 0.63736 0.51897 0.22839 0.0
C236 C 0.6743 0.59287 0.26568 0.0
O237 O 0.67306 0.59007 0.20362 0.0
Mg238 Mg 0.46115 0.11683 0.22057 0.0
O239 O 0.45191 0.14489 0.20916 0.0
O240 O 0.4791 0.17832 0.22353 0.0
Mg241 Mg 0.50166 0.1726 0.24464 0.0
C242 C 0.46188 0.16737 0.21208 0.0
C243 C 0.42628 0.08354 0.18629 0.0
O244 O 0.42292 0.06855 0.17267 0.0
O245 O 0.49508 0.1331 0.20407 0.0
O246 O 0.52034 0.16525 0.22048 0.0
O247 O 0.43503 0.10692 0.24418 0.0
O248 O 0.47244 0.13581 0.24497 0.0
C249 C 0.51563 0.15096 0.20676 0.0
C250 C 0.4522 0.12452 0.25308 0.0
O251 O 0.44441 0.09072 0.1966 0.0
Mg252 Mg 0.68133 0.12363 0.23763 0.0
O253 O 0.71364 0.16155 0.23556 0.0
O254 O 0.70579 0.18523 0.25321 0.0
Mg255 Mg 0.66902 0.16326 0.26586 0.0
C256 C 0.71956 0.18196 0.24246 0.0
C257 C 0.68707 0.09079 0.20939 0.0
O258 O 0.66941 0.07445 0.21929 0.0
O259 O 0.66026 0.13329 0.21795 0.0
O260 O 0.65311 0.15697 0.23635 0.0
O261 O 0.69729 0.11703 0.26282 0.0
O262 O 0.67307 0.13186 0.26335 0.0
C263 C 0.65135 0.14658 0.22075 0.0
C264 C 0.68708 0.12657 0.2721 0.0
O265 O 0.69552 0.11256 0.21348 0.0
Mg266 Mg 0.91599 0.58162 0.23766 0.0
O267 O 0.87908 0.57822 0.23788 0.0
O268 O 0.85529 0.54696 0.25555 0.0
Mg269 Mg 0.87707 0.53112 0.26736 0.0
C270 C 0.85877 0.56426 0.24497 0.0
C271 C 0.94754 0.62157 0.20957 0.0
O272 O 0.96386 0.61792 0.21713 0.0
O273 O 0.90315 0.54979 0.21755 0.0
O274 O 0.88131 0.52045 0.23768 0.0
O275 O 0.9267 0.60383 0.26393 0.0
O276 O 0.9104 0.56478 0.26344 0.0
C277 C 0.89016 0.52767 0.22139 0.0
C278 C 0.91902 0.58408 0.27304 0.0
O279 O 0.92602 0.60844 0.21434 0.0
Mg280 Mg 0.44372 0.35172 0.22175 0.0
O281 O 0.44121 0.31542 0.21958 0.0
O282 O 0.46656 0.3141 0.23995 0.0
Mg283 Mg 0.48369 0.34882 0.25662 0.0
C284 C 0.45101 0.30472 0.22706 0.0
C285 C 0.42504 0.34663 0.17795 0.0
O286 O 0.44595 0.36311 0.17194 0.0
O287 O 0.47974 0.36989 0.20653 0.0
O288 O 0.50184 0.36848 0.22994 0.0
O289 O 0.41633 0.33749 0.24464 0.0
O290 O 0.45507 0.35583 0.24942 0.0
C291 C 0.49987 0.37483 0.21341 0.0
C292 C 0.43401 0.34486 0.25612 0.0
O293 O 0.42167 0.34133 0.19524 0.0
Mg294 Mg 0.45123 0.34258 0.42669 0.0
O295 O 0.48812 0.37602 0.42744 0.0
O296 O 0.51291 0.36852 0.41115 0.0
Mg297 Mg 0.49197 0.32994 0.40102 0.0
C298 C 0.50869 0.38255 0.42081 0.0
C299 C 0.42565 0.36621 0.44741 0.0
O300 O 0.41908 0.36801 0.43037 0.0
O301 O 0.46185 0.32398 0.44821 0.0
O302 O 0.48599 0.31593 0.43146 0.0
O303 O 0.44324 0.35467 0.39989 0.0
O304 O 0.45869 0.33115 0.4018 0.0
C305 C 0.47524 0.31497 0.44672 0.0
C306 C 0.45144 0.34255 0.39154 0.0
O307 O 0.43912 0.35754 0.44985 0.0
Mg308 Mg 0.68903 0.13377 0.44319 0.0
O309 O 0.65204 0.13215 0.44377 0.0
O310 O 0.6549 0.16107 0.42467 0.0
Mg311 Mg 0.69383 0.18734 0.42272 0.0
C312 C 0.64277 0.14274 0.43491 0.0
C313 C 0.67972 0.08583 0.45438 0.0
O314 O 0.68913 0.08938 0.43758 0.0
O315 O 0.70562 0.16009 0.46782 0.0
O316 O 0.68952 0.17746 0.45338 0.0
O317 O 0.67997 0.1178 0.41508 0.0
O318 O 0.6999 0.1568 0.41945 0.0
C319 C 0.70554 0.17919 0.46437 0.0
C320 C 0.69012 0.13899 0.40808 0.0
O321 O 0.67647 0.10176 0.46184 0.0
Mg322 Mg 0.90786 0.59477 0.44125 0.0
O323 O 0.91085 0.56068 0.44403 0.0
O324 O 0.89008 0.53812 0.41958 0.0
Mg325 Mg 0.87303 0.55529 0.40282 0.0
C326 C 0.90313 0.54188 0.43399 0.0
C327 C 0.93373 0.60901 0.48373 0.0
O328 O 0.9301 0.61306 0.50112 0.0
O329 O 0.87033 0.57472 0.45196 0.0
O330 O 0.84938 0.55139 0.42816 0.0
O331 O 0.93967 0.61082 0.42174 0.0
O332 O 0.90235 0.58931 0.41275 0.0
C333 C 0.85072 0.55912 0.44485 0.0
C334 C 0.9244 0.60018 0.40845 0.0
O335 O 0.9179 0.60499 0.47165 0.0
Mg336 Mg 0.36178 0.93001 0.76979 0.0
O337 O 0.32492 0.89608 0.7703 0.0
O338 O 0.32827 0.86983 0.75201 0.0
Mg339 Mg 0.36465 0.88714 0.73828 0.0
C340 C 0.31637 0.87541 0.763 0.0
C341 C 0.36345 0.96833 0.79284 0.0
O342 O 0.37982 0.97841 0.77984 0.0
O343 O 0.37744 0.91277 0.78821 0.0
O344 O 0.38092 0.88903 0.76729 0.0
O345 O 0.35105 0.94428 0.74631 0.0
O346 O 0.36767 0.92198 0.74271 0.0
C347 C 0.38402 0.89791 0.78375 0.0
C348 C 0.35818 0.93333 0.73526 0.0
O349 O 0.35234 0.94578 0.79415 0.0
Mg350 Mg 0.12848 0.46142 0.75873 0.0
O351 O 0.16641 0.46936 0.76342 0.0
O352 O 0.18961 0.4993 0.74429 0.0
Mg353 Mg 0.16578 0.50499 0.72374 0.0
C354 C 0.1868 0.48472 0.75735 0.0
C355 C 0.09751 0.43047 0.79124 0.0
O356 O 0.08155 0.43359 0.78244 0.0
O357 O 0.13563 0.49668 0.77146 0.0
O358 O 0.15246 0.52004 0.74648 0.0
O359 O 0.12153 0.4327 0.73817 0.0
O360 O 0.1349 0.47033 0.73079 0.0
C361 C 0.14303 0.51631 0.76271 0.0
C362 C 0.12827 0.449 0.72542 0.0
O363 O 0.119 0.44223 0.78612 0.0
Mg364 Mg 0.58587 0.67935 0.75751 0.0
O365 O 0.58506 0.71455 0.75781 0.0
O366 O 0.55691 0.70968 0.73736 0.0
Mg367 Mg 0.53972 0.67245 0.72486 0.0
C368 C 0.57294 0.72226 0.74931 0.0
C369 C 0.62703 0.68654 0.77903 0.0
O370 O 0.62661 0.67553 0.76347 0.0
O371 O 0.55305 0.66254 0.77553 0.0
O372 O 0.52553 0.65748 0.75441 0.0
O373 O 0.61136 0.69105 0.73391 0.0
O374 O 0.57239 0.67163 0.73032 0.0
C375 C 0.53156 0.65532 0.77105 0.0
C376 C 0.59321 0.68173 0.72287 0.0
O377 O 0.61029 0.69068 0.7824 0.0
Mg378 Mg 0.59295 0.70232 0.55265 0.0
O379 O 0.55794 0.66598 0.55278 0.0
O380 O 0.53734 0.66766 0.57725 0.0
Mg381 Mg 0.55693 0.70363 0.59155 0.0
C382 C 0.53973 0.6565 0.56347 0.0
C383 C 0.60435 0.68653 0.51027 0.0
O384 O 0.60376 0.69094 0.49237 0.0
O385 O 0.57426 0.72094 0.54146 0.0
O386 O 0.55299 0.7221 0.56556 0.0
O387 O 0.60952 0.68784 0.57284 0.0
O388 O 0.59005 0.70596 0.58127 0.0
C389 C 0.5599 0.7266 0.54858 0.0
C390 C 0.60078 0.69476 0.58613 0.0
O391 O 0.59901 0.69774 0.522 0.0
Mg392 Mg 0.33476 0.91296 0.56423 0.0
O393 O 0.37224 0.91763 0.56432 0.0
O394 O 0.37212 0.89185 0.58522 0.0
Mg395 Mg 0.33494 0.86999 0.59737 0.0
C396 C 0.38268 0.90842 0.5732 0.0
C397 C 0.35568 0.95806 0.54076 0.0
O398 O 0.36036 0.96606 0.55801 0.0
O399 O 0.31998 0.87926 0.54729 0.0
O400 O 0.31905 0.8534 0.56844 0.0
O401 O 0.34497 0.93882 0.58709 0.0
O402 O 0.32929 0.90028 0.5921 0.0
C403 C 0.31498 0.85834 0.552 0.0
C404 C 0.33882 0.92158 0.59879 0.0
O405 O 0.3444 0.93574 0.53794 0.0
Mg406 Mg 0.12568 0.45487 0.55594 0.0
O407 O 0.12762 0.49101 0.55905 0.0
O408 O 0.15276 0.51098 0.58232 0.0
Mg409 Mg 0.16724 0.48806 0.59396 0.0
C410 C 0.13838 0.50938 0.56949 0.0
C411 C 0.0865 0.42791 0.52967 0.0
O412 O 0.08386 0.41394 0.54388 0.0
O413 O 0.16153 0.4721 0.54143 0.0
O414 O 0.18549 0.49022 0.56591 0.0
O415 O 0.09715 0.43843 0.57775 0.0
O416 O 0.13566 0.45623 0.58364 0.0
C417 C 0.18215 0.48459 0.54857 0.0
C418 C 0.11424 0.44561 0.58975 0.0
O419 O 0.105 0.44827 0.5289 0.0
Mg420 Mg 0.34624 0.45067 0.56587 0.0
O421 O 0.3822 0.48561 0.56363 0.0
O422 O 0.38151 0.51016 0.58527 0.0
Mg423 Mg 0.34569 0.49226 0.60005 0.0
C424 C 0.39201 0.50556 0.57222 0.0
C425 C 0.35032 0.41573 0.54228 0.0
O426 O 0.33998 0.40501 0.55798 0.0
O427 O 0.32781 0.46717 0.55021 0.0
O428 O 0.3271 0.49144 0.57223 0.0
O429 O 0.35993 0.43689 0.58817 0.0
O430 O 0.3418 0.45728 0.59394 0.0
C431 C 0.3222 0.48238 0.55579 0.0
C432 C 0.35225 0.44628 0.60027 0.0
O433 O 0.3546 0.43684 0.53953 0.0
Mg434 Mg 0.57773 0.9081 0.55991 0.0
O435 O 0.54804 0.91759 0.55943 0.0
O436 O 0.51706 0.88736 0.57383 0.0
Mg437 Mg 0.52733 0.86103 0.5852 0.0
C438 C 0.52656 0.90713 0.56509 0.0
C439 C 0.61684 0.95309 0.54032 0.0
O440 O 0.62508 0.95797 0.55753 0.0
O441 O 0.55923 0.87905 0.53838 0.0
O442 O 0.53139 0.84965 0.55567 0.0
O443 O 0.59128 0.92753 0.58694 0.0
O444 O 0.56479 0.88927 0.58437 0.0
C445 C 0.54272 0.85753 0.54032 0.0
C446 C 0.57708 0.90741 0.59493 0.0
O447 O 0.59731 0.93431 0.53703 0.0
Mg448 Mg 0.11774 0.69735 0.55856 0.0
O449 O 0.12552 0.66669 0.55989 0.0
O450 O 0.15099 0.6729 0.58312 0.0
Mg451 Mg 0.16371 0.71051 0.59379 0.0
C452 C 0.13726 0.65998 0.56999 0.0
C453 C 0.08124 0.65932 0.53151 0.0
O454 O 0.07886 0.64649 0.54646 0.0
O455 O 0.15184 0.71947 0.54202 0.0
O456 O 0.17814 0.72476 0.56445 0.0
O457 O 0.0917 0.67967 0.58187 0.0
O458 O 0.12944 0.70679 0.58616 0.0
C459 C 0.17308 0.72721 0.54761 0.0
C460 C 0.10936 0.69144 0.59316 0.0
O461 O 0.09643 0.68142 0.53176 0.0
Mg462 Mg 0.11359 0.68106 0.76359 0.0
O463 O 0.15003 0.71555 0.76656 0.0
O464 O 0.17763 0.71121 0.75099 0.0
Mg465 Mg 0.16046 0.6712 0.74687 0.0
C466 C 0.17106 0.72391 0.76009 0.0
C467 C 0.07423 0.68107 0.78447 0.0
O468 O 0.06465 0.66034 0.77596 0.0
O469 O 0.11827 0.66154 0.78842 0.0
O470 O 0.15327 0.67314 0.77775 0.0
O471 O 0.1111 0.6934 0.73554 0.0
O472 O 0.12594 0.66961 0.74034 0.0
C473 C 0.13542 0.65769 0.78673 0.0
C474 C 0.12084 0.6818 0.72884 0.0
O475 O 0.09625 0.69552 0.78239 0.0
Mg476 Mg 0.36869 0.45915 0.77034 0.0
O477 O 0.33547 0.46315 0.77373 0.0
O478 O 0.33872 0.48874 0.75117 0.0
Mg479 Mg 0.37097 0.49888 0.7329 0.0
C480 C 0.32805 0.47555 0.76524 0.0
C481 C 0.35521 0.43142 0.81221 0.0
O482 O 0.36187 0.43487 0.82986 0.0
O483 O 0.39113 0.49623 0.78169 0.0
O484 O 0.3932 0.52002 0.75832 0.0
O485 O 0.34993 0.42797 0.75039 0.0
O486 O 0.36908 0.46566 0.74202 0.0
C487 C 0.39836 0.51684 0.77494 0.0
C488 C 0.35643 0.44376 0.73723 0.0
O489 O 0.36699 0.44794 0.8006 0.0
Mg490 Mg 0.57042 0.91999 0.7658 0.0
O491 O 0.56886 0.88362 0.76692 0.0
O492 O 0.53903 0.85884 0.74825 0.0
Mg493 Mg 0.52128 0.8784 0.73606 0.0
C494 C 0.55623 0.86328 0.75923 0.0
C495 C 0.61085 0.95384 0.79224 0.0
O496 O 0.61052 0.96966 0.78096 0.0
O497 O 0.53849 0.9066 0.78507 0.0
O498 O 0.50961 0.88243 0.76549 0.0
O499 O 0.59421 0.93012 0.7409 0.0
O500 O 0.55495 0.91178 0.7395 0.0
C501 C 0.51665 0.89226 0.78153 0.0
C502 C 0.57495 0.91947 0.73107 0.0
O503 O 0.59556 0.93202 0.79012 0.0
H504 H 0.08467 0.24332 0.12697 0.0
H505 H 0.04158 0.17532 0.09997 0.0
H506 H 0.07055 0.16328 0.10852 0.0
H507 H 0.1316 0.25696 0.10856 0.0
H508 H 0.15294 0.27051 0.12723 0.0
H509 H 0.12501 0.26923 0.12887 0.0
H510 H 0.11646 0.24714 0.16051 0.0
H511 H 0.14488 0.24869 0.15916 0.0
H512 H 0.11824 0.22037 0.16236 0.0
H513 H 0.10834 0.16589 0.1058 0.0
H514 H 0.14949 0.1814 0.09531 0.0
H515 H 0.17084 0.24733 0.12479 0.0
C516 C 0.08071 0.22531 0.12417 0.0
C517 C 0.06111 0.21021 0.1129 0.0
C518 C 0.05654 0.18704 0.10871 0.0
C519 C 0.07293 0.18005 0.1136 0.0
C520 C 0.09377 0.19644 0.12269 0.0
C521 C 0.0974 0.21842 0.1286 0.0
C522 C 0.12317 0.23486 0.13388 0.0
C523 C 0.13376 0.25926 0.12401 0.0
C524 C 0.12584 0.23793 0.15525 0.0
C525 C 0.13399 0.22037 0.12682 0.0
C526 C 0.11662 0.19776 0.12139 0.0
C527 C 0.1221 0.18308 0.11074 0.0
C528 C 0.14548 0.19209 0.10464 0.0
C529 C 0.16313 0.21546 0.10938 0.0
C530 C 0.15761 0.22915 0.12148 0.0
H531 H 0.77762 0.94629 0.1129 0.0
H532 H 0.85143 0.99153 0.12746 0.0
H533 H 0.85222 0.95681 0.14118 0.0
H534 H 0.75899 0.89845 0.15064 0.0
H535 H 0.74213 0.87569 0.13353 0.0
H536 H 0.74483 0.90464 0.13148 0.0
H537 H 0.76115 0.90861 0.09772 0.0
H538 H 0.75836 0.87984 0.09967 0.0
H539 H 0.78669 0.90525 0.09385 0.0
H540 H 0.84795 0.91702 0.14562 0.0
H541 H 0.84087 0.87706 0.13703 0.0
H542 H 0.77034 0.85723 0.11809 0.0
C543 C 0.7935 0.94896 0.11997 0.0
C544 C 0.81421 0.9714 0.11984 0.0
C545 C 0.83525 0.97442 0.12802 0.0
C546 C 0.83575 0.95482 0.13587 0.0
C547 C 0.81517 0.93245 0.13505 0.0
C548 C 0.79441 0.92949 0.12717 0.0
C549 C 0.77673 0.90357 0.12351 0.0
C550 C 0.75435 0.89509 0.13552 0.0
C551 C 0.77041 0.89908 0.10246 0.0
C552 C 0.79104 0.89233 0.12981 0.0
C553 C 0.8129 0.90914 0.13698 0.0
C554 C 0.83064 0.90358 0.14068 0.0
C555 C 0.82648 0.88083 0.13589 0.0
C556 C 0.80482 0.86415 0.1275 0.0
C557 C 0.78657 0.86952 0.12532 0.0
H558 H 0.10963 0.86412 0.11583 0.0
H559 H 0.05503 0.88214 0.12571 0.0
H560 H 0.08482 0.92077 0.13919 0.0
H561 H 0.15154 0.90086 0.15699 0.0
H562 H 0.17694 0.90913 0.14218 0.0
H563 H 0.15076 0.88025 0.13966 0.0
H564 H 0.14883 0.88859 0.10441 0.0
H565 H 0.17474 0.91731 0.1068 0.0
H566 H 0.14778 0.9148 0.0976 0.0
H567 H 0.12022 0.96037 0.14102 0.0
H568 H 0.15796 0.99648 0.13268 0.0
H569 H 0.19076 0.95354 0.12404 0.0
C570 C 0.10394 0.87571 0.12196 0.0
C571 C 0.08021 0.87021 0.12032 0.0
C572 C 0.07317 0.88603 0.1274 0.0
C573 C 0.08998 0.90795 0.13507 0.0
C574 C 0.11368 0.91364 0.13558 0.0
C575 C 0.12062 0.89772 0.12953 0.0
C576 C 0.14735 0.90959 0.12807 0.0
C577 C 0.15722 0.89935 0.1426 0.0
C578 C 0.1551 0.90746 0.10805 0.0
C579 C 0.15426 0.93501 0.13278 0.0
C580 C 0.13465 0.93696 0.13743 0.0
C581 C 0.1359 0.95908 0.13835 0.0
C582 C 0.15735 0.97952 0.13364 0.0
C583 C 0.17726 0.97763 0.12853 0.0
C584 C 0.17599 0.95534 0.12895 0.0
H585 H 0.1923 0.06678 0.89977 0.0
H586 H 0.25043 0.08119 0.86243 0.0
H587 H 0.25018 0.11675 0.85062 0.0
H588 H 0.16458 0.09691 0.86918 0.0
H589 H 0.15805 0.10778 0.8903 0.0
H590 H 0.15639 0.07919 0.89022 0.0
H591 H 0.18546 0.09262 0.91832 0.0
H592 H 0.1875 0.12112 0.91835 0.0
H593 H 0.2141 0.1192 0.91622 0.0
H594 H 0.25216 0.15597 0.85031 0.0
H595 H 0.25594 0.19372 0.8614 0.0
H596 H 0.19702 0.15457 0.89937 0.0
C597 C 0.20416 0.07677 0.88842 0.0
C598 C 0.22141 0.07132 0.88209 0.0
C599 C 0.23687 0.08489 0.86739 0.0
C600 C 0.23684 0.10517 0.86058 0.0
C601 C 0.22094 0.11132 0.86835 0.0
C602 C 0.20445 0.09712 0.88168 0.0
C603 C 0.19253 0.10962 0.89056 0.0
C604 C 0.16633 0.09766 0.88471 0.0
C605 C 0.1951 0.11072 0.91211 0.0
C606 C 0.2067 0.13394 0.88173 0.0
C607 C 0.22228 0.13435 0.86834 0.0
C608 C 0.23952 0.15568 0.86031 0.0
C609 C 0.24157 0.1771 0.86671 0.0
C610 C 0.22678 0.17702 0.88129 0.0
C611 C 0.20842 0.1551 0.88811 0.0
H612 H 0.95689 0.17395 0.864 0.0
H613 H 0.99204 0.16235 0.91125 0.0
H614 H 0.95608 0.12398 0.91749 0.0
H615 H 0.89838 0.14748 0.88499 0.0
H616 H 0.88309 0.13411 0.86341 0.0
H617 H 0.91137 0.16123 0.86287 0.0
H618 H 0.92804 0.14127 0.84091 0.0
H619 H 0.89981 0.11413 0.84133 0.0
H620 H 0.92636 0.11381 0.84799 0.0
H621 H 0.91753 0.0869 0.91821 0.0
H622 H 0.87811 0.05205 0.91309 0.0
H623 H 0.86724 0.08722 0.86544 0.0
C624 C 0.95702 0.16332 0.87565 0.0
C625 C 0.97724 0.17114 0.88715 0.0
C626 C 0.97678 0.1567 0.90221 0.0
C627 C 0.9564 0.13494 0.90595 0.0
C628 C 0.93676 0.12785 0.89443 0.0
C629 C 0.93684 0.14149 0.87956 0.0
C630 C 0.91349 0.12928 0.86906 0.0
C631 C 0.90084 0.1439 0.87016 0.0
C632 C 0.91715 0.12433 0.84861 0.0
C633 C 0.90046 0.10647 0.88022 0.0
C634 C 0.91422 0.10618 0.89485 0.0
C635 C 0.9065 0.08686 0.90685 0.0
C636 C 0.88411 0.06712 0.90374 0.0
C637 C 0.86962 0.0669 0.88882 0.0
C638 C 0.8779 0.08692 0.87697 0.0
H639 H 0.89147 0.84718 0.88422 0.0
H640 H 0.8476 0.77623 0.86196 0.0
H641 H 0.88207 0.77929 0.84519 0.0
H642 H 0.93613 0.86955 0.84043 0.0
H643 H 0.96008 0.88765 0.85623 0.0
H644 H 0.93097 0.88384 0.86007 0.0
H645 H 0.93075 0.86894 0.8938 0.0
H646 H 0.95962 0.87297 0.8901 0.0
H647 H 0.93571 0.8442 0.8972 0.0
H648 H 0.9215 0.78423 0.84026 0.0
H649 H 0.95995 0.78918 0.84977 0.0
H650 H 0.97979 0.8579 0.87367 0.0
C651 C 0.88906 0.83282 0.87507 0.0
C652 C 0.86708 0.81153 0.87438 0.0
C653 C 0.8643 0.79285 0.86251 0.0
C654 C 0.8838 0.79452 0.8528 0.0
C655 C 0.90577 0.81529 0.85463 0.0
C656 C 0.90832 0.83444 0.86509 0.0
C657 C 0.93421 0.85291 0.86765 0.0
C658 C 0.94073 0.87478 0.85536 0.0
C659 C 0.9404 0.86009 0.88841 0.0
C660 C 0.9457 0.83927 0.86015 0.0
C661 C 0.92918 0.81834 0.85147 0.0
C662 C 0.93473 0.80089 0.84642 0.0
C663 C 0.95677 0.8039 0.85184 0.0
C664 C 0.97265 0.8239 0.86263 0.0
C665 C 0.9679 0.84262 0.86528 0.0
H666 H 0.72189 0.52546 0.43568 0.0
H667 H 0.73899 0.58184 0.47577 0.0
H668 H 0.77127 0.57654 0.48836 0.0
H669 H 0.74698 0.49126 0.4659 0.0
H670 H 0.7575 0.4849 0.44453 0.0
H671 H 0.7299 0.48512 0.44467 0.0
H672 H 0.74541 0.5157 0.41757 0.0
H673 H 0.7729 0.51585 0.41749 0.0
H674 H 0.77286 0.54343 0.42055 0.0
H675 H 0.80836 0.57561 0.4887 0.0
H676 H 0.84551 0.57932 0.47692 0.0
H677 H 0.80593 0.52422 0.43584 0.0
C678 C 0.73168 0.53576 0.44779 0.0
C679 C 0.72817 0.55411 0.45469 0.0
C680 C 0.74128 0.56751 0.47039 0.0
C681 C 0.75966 0.56454 0.47765 0.0
C682 C 0.7643 0.54782 0.46928 0.0
C683 C 0.7502 0.53314 0.45494 0.0
C684 C 0.7616 0.52046 0.44549 0.0
C685 C 0.7482 0.49386 0.45045 0.0
C686 C 0.76332 0.52414 0.42404 0.0
C687 C 0.7857 0.53294 0.45478 0.0
C688 C 0.78646 0.54759 0.46922 0.0
C689 C 0.80778 0.56366 0.47787 0.0
C690 C 0.82888 0.56575 0.47097 0.0
C691 C 0.82857 0.55222 0.45528 0.0
C692 C 0.80662 0.5347 0.44789 0.0
H693 H 0.51054 0.30645 0.45639 0.0
H694 H 0.43794 0.28611 0.46915 0.0
H695 H 0.43198 0.24929 0.48381 0.0
H696 H 0.50429 0.26132 0.43915 0.0
H697 H 0.52826 0.25842 0.449 0.0
H698 H 0.53044 0.28687 0.44847 0.0
H699 H 0.53701 0.29091 0.48432 0.0
H700 H 0.53486 0.2621 0.48493 0.0
H701 H 0.51597 0.26807 0.49968 0.0
H702 H 0.42869 0.21027 0.48362 0.0
H703 H 0.42923 0.17607 0.4693 0.0
H704 H 0.50435 0.21989 0.45873 0.0
C705 C 0.49394 0.29483 0.46339 0.0
C706 C 0.47473 0.2989 0.46158 0.0
C707 C 0.45301 0.28342 0.47056 0.0
C708 C 0.44949 0.2624 0.47899 0.0
C709 C 0.46809 0.25752 0.47886 0.0
C710 C 0.49035 0.27388 0.472 0.0
C711 C 0.50587 0.26276 0.46995 0.0
C712 C 0.51782 0.26759 0.45048 0.0
C713 C 0.52452 0.27147 0.48566 0.0
C714 C 0.4875 0.2368 0.47283 0.0
C715 C 0.46624 0.23423 0.47928 0.0
C716 C 0.44543 0.21202 0.47931 0.0
C717 C 0.44585 0.19255 0.47116 0.0
C718 C 0.46687 0.19561 0.46285 0.0
C719 C 0.4882 0.21733 0.4652 0.0
H720 H 0.81399 0.28774 0.41443 0.0
H721 H 0.84269 0.31602 0.4694 0.0
H722 H 0.80714 0.28283 0.48419 0.0
H723 H 0.75084 0.26355 0.42546 0.0
H724 H 0.74203 0.2376 0.41108 0.0
H725 H 0.76808 0.26536 0.40511 0.0
H726 H 0.793 0.24426 0.40543 0.0
H727 H 0.76712 0.21659 0.41168 0.0
H728 H 0.79328 0.22859 0.42619 0.0
H729 H 0.76927 0.24476 0.49284 0.0
H730 H 0.73176 0.20573 0.49421 0.0
H731 H 0.73158 0.20164 0.43366 0.0
C732 C 0.81243 0.28737 0.42955 0.0
C733 C 0.83079 0.30452 0.4408 0.0
C734 C 0.82859 0.30305 0.46058 0.0
C735 C 0.80853 0.2843 0.46909 0.0
C736 C 0.79108 0.26713 0.45758 0.0
C737 C 0.79285 0.26856 0.43823 0.0
C738 C 0.77281 0.24693 0.42899 0.0
C739 C 0.75754 0.25378 0.41696 0.0
C740 C 0.78212 0.23329 0.4174 0.0
C741 C 0.75955 0.23308 0.44612 0.0
C742 C 0.7701 0.245 0.46252 0.0
C743 C 0.76074 0.23536 0.48007 0.0
C744 C 0.73965 0.21323 0.48076 0.0
C745 C 0.72854 0.20121 0.46401 0.0
C746 C 0.73903 0.21097 0.44661 0.0
H747 H 0.86059 0.39935 0.21614 0.0
H748 H 0.92869 0.42634 0.18911 0.0
H749 H 0.92661 0.46131 0.17803 0.0
H750 H 0.83406 0.42974 0.18565 0.0
H751 H 0.82267 0.43588 0.20666 0.0
H752 H 0.82429 0.40901 0.20493 0.0
H753 H 0.84864 0.42032 0.2357 0.0
H754 H 0.8476 0.44724 0.23737 0.0
H755 H 0.87588 0.44848 0.23716 0.0
H756 H 0.92396 0.49838 0.17962 0.0
H757 H 0.92112 0.53181 0.19339 0.0
H758 H 0.85534 0.48164 0.22049 0.0
C759 C 0.87433 0.41195 0.20689 0.0
C760 C 0.89472 0.41022 0.20343 0.0
C761 C 0.91271 0.42715 0.19166 0.0
C762 C 0.91168 0.44718 0.18541 0.0
C763 C 0.89248 0.4498 0.19096 0.0
C764 C 0.87385 0.43227 0.20121 0.0
C765 C 0.85846 0.44127 0.20959 0.0
C766 C 0.83338 0.4282 0.20119 0.0
C767 C 0.85764 0.43922 0.2312 0.0
C768 C 0.87192 0.46694 0.20335 0.0
C769 C 0.89118 0.47153 0.19223 0.0
C770 C 0.90849 0.49484 0.18774 0.0
C771 C 0.90672 0.5138 0.19558 0.0
C772 C 0.88796 0.50925 0.20798 0.0
C773 C 0.86969 0.48559 0.21084 0.0
H774 H 0.6249 0.47286 0.2354 0.0
H775 H 0.61297 0.51717 0.19657 0.0
H776 H 0.58061 0.4813 0.18171 0.0
H777 H 0.60667 0.42011 0.20191 0.0
H778 H 0.59295 0.39954 0.22103 0.0
H779 H 0.619 0.4281 0.22518 0.0
H780 H 0.59654 0.43724 0.25089 0.0
H781 H 0.5707 0.40884 0.24694 0.0
H782 H 0.56875 0.43552 0.24513 0.0
H783 H 0.5434 0.44248 0.17738 0.0
H784 H 0.50622 0.40508 0.184 0.0
H785 H 0.54414 0.38481 0.22294 0.0
C786 C 0.61606 0.47497 0.22331 0.0
C787 C 0.62139 0.49774 0.21719 0.0
C788 C 0.60929 0.49986 0.20145 0.0
C789 C 0.59091 0.47955 0.19285 0.0
C790 C 0.58529 0.45726 0.19981 0.0
C791 C 0.59789 0.45488 0.21446 0.0
C792 C 0.58637 0.42945 0.22121 0.0
C793 C 0.6022 0.41867 0.21707 0.0
C794 C 0.58022 0.42769 0.24226 0.0
C795 C 0.56434 0.41825 0.20908 0.0
C796 C 0.56415 0.43439 0.19655 0.0
C797 C 0.54366 0.42937 0.18659 0.0
C798 C 0.52256 0.40801 0.19038 0.0
C799 C 0.52225 0.39207 0.20405 0.0
C800 C 0.54383 0.39655 0.21231 0.0
H801 H 0.52372 0.11474 0.20428 0.0
H802 H 0.55319 0.18887 0.18969 0.0
H803 H 0.59129 0.1913 0.18159 0.0
H804 H 0.56924 0.126 0.2307 0.0
H805 H 0.56903 0.09842 0.22704 0.0
H806 H 0.54225 0.09942 0.22408 0.0
H807 H 0.53787 0.08329 0.19024 0.0
H808 H 0.56476 0.08207 0.19316 0.0
H809 H 0.56192 0.09833 0.1738 0.0
H810 H 0.62764 0.18935 0.18427 0.0
H811 H 0.65901 0.18415 0.19919 0.0
H812 H 0.60722 0.11171 0.21354 0.0
C813 C 0.53781 0.131 0.19821 0.0
C814 C 0.53556 0.15141 0.19694 0.0
C815 C 0.55461 0.17295 0.19023 0.0
C816 C 0.57621 0.17439 0.18557 0.0
C817 C 0.57849 0.15427 0.18817 0.0
C818 C 0.5597 0.13292 0.19442 0.0
C819 C 0.56792 0.11609 0.20104 0.0
C820 C 0.56176 0.10965 0.22193 0.0
C821 C 0.55751 0.09362 0.18881 0.0
C822 C 0.59437 0.13152 0.19816 0.0
C823 C 0.60009 0.15328 0.19031 0.0
C824 C 0.62345 0.17212 0.18971 0.0
C825 C 0.64117 0.16908 0.19816 0.0
C826 C 0.63536 0.14731 0.20682 0.0
C827 C 0.61201 0.12805 0.20608 0.0
H828 H 0.38902 0.859 0.78515 0.0
H829 H 0.4144 0.92825 0.81029 0.0
H830 H 0.44919 0.92732 0.8227 0.0
H831 H 0.42077 0.83726 0.82186 0.0
H832 H 0.42627 0.8223 0.80291 0.0
H833 H 0.39907 0.82329 0.80351 0.0
H834 H 0.40794 0.84141 0.77018 0.0
H835 H 0.43498 0.84072 0.76954 0.0
H836 H 0.43556 0.8685 0.76583 0.0
H837 H 0.48624 0.9261 0.82176 0.0
H838 H 0.52004 0.92428 0.80812 0.0
H839 H 0.47168 0.85548 0.78404 0.0
C840 C 0.40128 0.87328 0.7942 0.0
C841 C 0.39918 0.89368 0.79671 0.0
C842 C 0.41555 0.9123 0.80837 0.0
C843 C 0.43542 0.91188 0.81551 0.0
C844 C 0.43827 0.89245 0.81126 0.0
C845 C 0.42116 0.87304 0.80134 0.0
C846 C 0.43032 0.85676 0.79522 0.0
C847 C 0.4184 0.83353 0.80656 0.0
C848 C 0.42704 0.85162 0.77395 0.0
C849 C 0.45615 0.87182 0.80062 0.0
C850 C 0.4602 0.89169 0.81079 0.0
C851 C 0.4832 0.91019 0.81446 0.0
C852 C 0.50238 0.90903 0.80664 0.0
C853 C 0.49832 0.88972 0.795 0.0
C854 C 0.47512 0.87029 0.79305 0.0
H855 H 0.15621 0.54764 0.79255 0.0
H856 H 0.11011 0.52061 0.74407 0.0
H857 H 0.09812 0.5507 0.74847 0.0
H858 H 0.11651 0.5669 0.81916 0.0
H859 H 0.14217 0.59278 0.8285 0.0
H860 H 0.14296 0.56573 0.8245 0.0
H861 H 0.18036 0.58907 0.80384 0.0
H862 H 0.17956 0.61603 0.80758 0.0
H863 H 0.17929 0.60579 0.78404 0.0
H864 H 0.09611 0.5865 0.75426 0.0
H865 H 0.10431 0.62712 0.7614 0.0
H866 H 0.1526 0.63296 0.80562 0.0
C867 C 0.14294 0.54765 0.78342 0.0
C868 C 0.1338 0.53186 0.76812 0.0
C869 C 0.11701 0.53257 0.75597 0.0
C870 C 0.11001 0.54946 0.75842 0.0
C871 C 0.11983 0.56541 0.7732 0.0
C872 C 0.13572 0.5646 0.78568 0.0
C873 C 0.14551 0.58564 0.799 0.0
C874 C 0.13624 0.57727 0.81897 0.0
C875 C 0.1728 0.59998 0.79856 0.0
C876 C 0.1346 0.59949 0.79071 0.0
C877 C 0.11905 0.5869 0.77637 0.0
C878 C 0.10777 0.59634 0.76576 0.0
C879 C 0.11258 0.61939 0.76983 0.0
C880 C 0.12887 0.63279 0.78411 0.0
C881 C 0.13987 0.62274 0.7948 0.0
H882 H 0.40463 0.56124 0.77251 0.0
H883 H 0.42923 0.51941 0.80199 0.0
H884 H 0.46292 0.55606 0.81461 0.0
H885 H 0.45128 0.59911 0.75433 0.0
H886 H 0.4498 0.62596 0.75726 0.0
H887 H 0.42315 0.59779 0.75764 0.0
H888 H 0.4127 0.60736 0.79028 0.0
H889 H 0.43964 0.63591 0.78998 0.0
H890 H 0.43364 0.61576 0.80926 0.0
H891 H 0.49925 0.5945 0.81429 0.0
H892 H 0.53362 0.62905 0.80015 0.0
H893 H 0.48663 0.6476 0.77133 0.0
C894 C 0.41661 0.55994 0.78233 0.0
C895 C 0.41464 0.53776 0.78614 0.0
C896 C 0.43044 0.53634 0.79896 0.0
C897 C 0.44954 0.5571 0.80633 0.0
C898 C 0.45215 0.57904 0.80117 0.0
C899 C 0.43563 0.58054 0.78986 0.0
C900 C 0.44463 0.60579 0.7833 0.0
C901 C 0.44211 0.6072 0.76188 0.0
C902 C 0.4319 0.61686 0.79384 0.0
C903 C 0.47023 0.6171 0.78951 0.0
C904 C 0.47381 0.60197 0.80101 0.0
C905 C 0.49658 0.60682 0.80585 0.0
C906 C 0.51608 0.62651 0.79769 0.0
C907 C 0.51258 0.6407 0.78449 0.0
C908 C 0.48957 0.63693 0.78145 0.0
H909 H 0.58962 0.77314 0.54494 0.0
H910 H 0.51898 0.71705 0.53055 0.0
H911 H 0.5099 0.74701 0.51737 0.0
H912 H 0.57007 0.80874 0.56285 0.0
H913 H 0.59606 0.8364 0.55659 0.0
H914 H 0.59832 0.81027 0.56013 0.0
H915 H 0.61623 0.81538 0.52683 0.0
H916 H 0.61352 0.84138 0.5231 0.0
H917 H 0.60012 0.81688 0.5068 0.0
H918 H 0.50537 0.78261 0.51426 0.0
H919 H 0.50585 0.82006 0.52191 0.0
H920 H 0.58059 0.85353 0.53496 0.0
C921 C 0.57264 0.76723 0.53821 0.0
C922 C 0.5551 0.74307 0.53823 0.0
C923 C 0.53263 0.73564 0.53028 0.0
C924 C 0.52746 0.7525 0.52271 0.0
C925 C 0.54498 0.77651 0.52336 0.0
C926 C 0.56718 0.78381 0.53092 0.0
C927 C 0.58125 0.81044 0.53351 0.0
C928 C 0.58672 0.81681 0.55449 0.0
C929 C 0.60413 0.82167 0.52184 0.0
C930 C 0.56362 0.81715 0.52617 0.0
C931 C 0.54265 0.79736 0.52053 0.0
C932 C 0.52195 0.79842 0.51774 0.0
C933 C 0.52234 0.81976 0.52195 0.0
C934 C 0.54349 0.83976 0.52822 0.0
C935 C 0.5646 0.83883 0.52907 0.0
H936 H 0.18584 0.77042 0.53341 0.0
H937 H 0.20636 0.71671 0.53646 0.0
H938 H 0.24701 0.74618 0.52697 0.0
H939 H 0.23383 0.81172 0.49569 0.0
H940 H 0.23763 0.83748 0.50831 0.0
H941 H 0.20874 0.81109 0.50696 0.0
H942 H 0.20603 0.81034 0.54313 0.0
H943 H 0.23478 0.83627 0.54465 0.0
H944 H 0.22895 0.8095 0.55676 0.0
H945 H 0.2856 0.78144 0.53018 0.0
H946 H 0.31817 0.81915 0.54277 0.0
H947 H 0.27494 0.85197 0.53601 0.0
C948 C 0.1986 0.76472 0.53066 0.0
C949 C 0.19312 0.7414 0.53514 0.0
C950 C 0.21029 0.73446 0.5326 0.0
C951 C 0.23342 0.75114 0.52723 0.0
C952 C 0.23906 0.77468 0.5245 0.0
C953 C 0.22196 0.78143 0.52565 0.0
C954 C 0.23331 0.8083 0.52629 0.0
C955 C 0.22807 0.8177 0.50823 0.0
C956 C 0.22531 0.81654 0.54374 0.0
C957 C 0.25928 0.8154 0.5274 0.0
C958 C 0.2623 0.79582 0.52582 0.0
C959 C 0.28376 0.7971 0.53051 0.0
C960 C 0.30218 0.81853 0.53772 0.0
C961 C 0.29913 0.83845 0.53978 0.0
C962 C 0.27793 0.83718 0.53368 0.0
H963 H 0.27779 0.44917 0.54705 0.0
H964 H 0.32842 0.52426 0.54176 0.0
H965 H 0.29659 0.53129 0.53014 0.0
H966 H 0.23383 0.44218 0.50896 0.0
H967 H 0.20932 0.4234 0.52408 0.0
H968 H 0.23681 0.42312 0.5258 0.0
H969 H 0.23901 0.4328 0.56124 0.0
H970 H 0.21172 0.43316 0.5596 0.0
H971 H 0.2379 0.4588 0.56862 0.0
H972 H 0.25897 0.53178 0.52756 0.0
H973 H 0.21919 0.52578 0.53502 0.0
H974 H 0.19238 0.45041 0.54186 0.0
C975 C 0.28229 0.46681 0.54236 0.0
C976 C 0.30548 0.48609 0.54459 0.0
C977 C 0.31075 0.50927 0.5396 0.0
C978 C 0.29279 0.51334 0.53297 0.0
C979 C 0.26968 0.49407 0.53176 0.0
C980 C 0.26441 0.47119 0.53632 0.0
C981 C 0.23793 0.45458 0.53803 0.0
C982 C 0.22895 0.43465 0.52333 0.0
C983 C 0.23127 0.44426 0.55804 0.0
C984 C 0.22908 0.47169 0.53406 0.0
C985 C 0.24761 0.49437 0.53029 0.0
C986 C 0.2442 0.51398 0.52971 0.0
C987 C 0.2216 0.51048 0.53387 0.0
C988 C 0.20277 0.48752 0.53817 0.0
C989 C 0.20633 0.46786 0.53753 0.0
H990 H 0.03815 0.33438 0.13375 0.0
H991 H 0.99064 0.2593 0.14497 0.0
H992 H 0.9671 0.2696 0.16602 0.0
H993 H 0.03664 0.35536 0.18119 0.0
H994 H 0.03756 0.382 0.1728 0.0
H995 H 0.05142 0.3687 0.15945 0.0
H996 H 0.02647 0.3666 0.13047 0.0
H997 H 0.01224 0.37952 0.14378 0.0
H998 H -0.00543 0.35128 0.13224 0.0
H999 H 0.94682 0.28764 0.18352 0.0
H1000 H 0.9336 0.31261 0.19959 0.0
H1001 H -0.00504 0.37611 0.1779 0.0
C1002 C 0.02301 0.32011 0.14085 0.0
C1003 C 0.01618 0.29603 0.13768 0.0
C1004 C -0.00377 0.27788 0.14721 0.0
C1005 C 0.98268 0.28354 0.15913 0.0
C1006 C 0.98947 0.30741 0.1615 0.0
C1007 C 0.00937 0.32544 0.1529 0.0
C1008 C 0.01262 0.34963 0.15769 0.0
C1009 C 0.03594 0.36481 0.16843 0.0
C1010 C 0.0114 0.36251 0.13999 0.0
C1011 C 0.99125 0.34233 0.17015 0.0
C1012 C 0.97806 0.31789 0.17203 0.0
C1013 C 0.95711 0.30683 0.18233 0.0
C1014 C 0.94968 0.32117 0.19129 0.0
C1015 C 0.9633 0.34632 0.19004 0.0
C1016 C 0.98425 0.35696 0.17919 0.0
H1017 H 0.757 0.70507 0.12155 0.0
H1018 H 0.77032 0.75178 0.16896 0.0
H1019 H 0.75347 0.71685 0.19026 0.0
H1020 H 0.70337 0.6631 0.13317 0.0
H1021 H 0.70541 0.6377 0.12553 0.0
H1022 H 0.72396 0.66619 0.11498 0.0
H1023 H 0.76158 0.66415 0.12373 0.0
H1024 H 0.74304 0.63529 0.1341 0.0
H1025 H 0.76628 0.6588 0.14771 0.0
H1026 H 0.72807 0.67653 0.20491 0.0
H1027 H 0.69763 0.6349 0.2118 0.0
H1028 H 0.70085 0.61536 0.15421 0.0
C1029 C 0.75712 0.70796 0.13652 0.0
C1030 C 0.76482 0.73083 0.14377 0.0
C1031 C 0.76467 0.73425 0.1633 0.0
C1032 C 0.75518 0.71456 0.17543 0.0
C1033 C 0.74659 0.69192 0.16768 0.0
C1034 C 0.74798 0.68866 0.14866 0.0
C1035 C 0.735 0.66266 0.14333 0.0
C1036 C 0.7158 0.65712 0.12839 0.0
C1037 C 0.75252 0.65476 0.13684 0.0
C1038 C 0.72426 0.6518 0.16199 0.0
C1039 C 0.73173 0.66878 0.17603 0.0
C1040 C 0.72256 0.66305 0.19413 0.0
C1041 C 0.70519 0.63943 0.19787 0.0
C1042 C 0.69689 0.6221 0.18344 0.0
C1043 C 0.70688 0.62832 0.16544 0.0
H1044 H 0.33633 0.09914 0.13166 0.0
H1045 H 0.28537 0.04769 0.17049 0.0
H1046 H 0.3171 0.05916 0.19394 0.0
H1047 H 0.37597 0.08377 0.13709 0.0
H1048 H 0.40224 0.11269 0.13518 0.0
H1049 H 0.37514 0.10759 0.12473 0.0
H1050 H 0.37761 0.1429 0.14368 0.0
H1051 H 0.40489 0.14796 0.15434 0.0
H1052 H 0.3803 0.14339 0.16884 0.0
H1053 H 0.35429 0.06768 0.20931 0.0
H1054 H 0.39244 0.0686 0.21309 0.0
H1055 H 0.41988 0.11299 0.16397 0.0
C1056 C 0.33168 0.09113 0.14544 0.0
C1057 C 0.30844 0.07268 0.14934 0.0
C1058 C 0.30308 0.062 0.16727 0.0
C1059 C 0.32099 0.06859 0.18075 0.0
C1060 C 0.34413 0.08594 0.17609 0.0
C1061 C 0.34947 0.09717 0.15882 0.0
C1062 C 0.37598 0.11099 0.15546 0.0
C1063 C 0.38269 0.10326 0.13706 0.0
C1064 C 0.38523 0.13791 0.1556 0.0
C1065 C 0.38455 0.10371 0.17256 0.0
C1066 C 0.36609 0.09039 0.18484 0.0
C1067 C 0.36901 0.07873 0.20017 0.0
C1068 C 0.39075 0.0794 0.2023 0.0
C1069 C 0.40894 0.09128 0.18897 0.0
C1070 C 0.4063 0.10456 0.1746 0.0
H1071 H 0.27693 0.99142 0.85705 0.0
H1072 H 0.32141 0.06668 0.84471 0.0
H1073 H 0.34656 0.05755 0.82446 0.0
H1074 H 0.32281 0.97834 0.86074 0.0
H1075 H 0.30683 0.94945 0.84984 0.0
H1076 H 0.29087 0.96139 0.86202 0.0
H1077 H 0.26601 0.95646 0.83223 0.0
H1078 H 0.28159 0.94407 0.82006 0.0
H1079 H 0.28096 0.96943 0.81046 0.0
H1080 H 0.36845 0.04067 0.80754 0.0
H1081 H 0.38378 0.01672 0.79273 0.0
H1082 H 0.32518 0.95252 0.81641 0.0
C1083 C 0.29166 0.00596 0.8498 0.0
C1084 C 0.29722 0.02978 0.85246 0.0
C1085 C 0.31681 0.0483 0.84286 0.0
C1086 C 0.33123 0.04331 0.83138 0.0
C1087 C 0.32575 0.01972 0.82961 0.0
C1088 C 0.30627 0.00131 0.83834 0.0
C1089 C 0.30472 0.97761 0.83459 0.0
C1090 C 0.30641 0.96603 0.85289 0.0
C1091 C 0.28197 0.96091 0.82368 0.0
C1092 C 0.32658 0.98564 0.82261 0.0
C1093 C 0.33844 0.00998 0.81989 0.0
C1094 C 0.35924 0.02156 0.80945 0.0
C1095 C 0.36786 0.00781 0.80118 0.0
C1096 C 0.35568 0.98275 0.80343 0.0
C1097 C 0.33495 0.97163 0.81451 0.0
H1098 H 0.05623 0.40506 0.81125 0.0
H1099 H 0.12168 0.40678 0.79593 0.0
H1100 H 0.10671 0.36713 0.80965 0.0
H1101 H 0.05015 0.37489 0.85646 0.0
H1102 H 0.01824 0.35812 0.85497 0.0
H1103 H 0.03439 0.38705 0.84421 0.0
H1104 H 0.01399 0.36847 0.81253 0.0
H1105 H -0.00174 0.3394 0.82309 0.0
H1106 H 0.0166 0.34424 0.80278 0.0
H1107 H 0.08389 0.32645 0.8222 0.0
H1108 H 0.05754 0.28959 0.83927 0.0
H1109 H 0.00766 0.31464 0.84849 0.0
C1110 C 0.0675 0.3972 0.81108 0.0
C1111 C 0.09002 0.4089 0.80247 0.0
C1112 C 0.1044 0.3982 0.80256 0.0
C1113 C 0.09599 0.37557 0.81014 0.0
C1114 C 0.07341 0.36413 0.8179 0.0
C1115 C 0.05961 0.37477 0.819 0.0
C1116 C 0.03639 0.35881 0.82892 0.0
C1117 C 0.0347 0.37041 0.84723 0.0
C1118 C 0.01505 0.35235 0.81605 0.0
C1119 C 0.03918 0.3374 0.83276 0.0
C1120 C 0.06055 0.34081 0.82606 0.0
C1121 C 0.0672 0.3236 0.82775 0.0
C1122 C 0.05203 0.30267 0.83736 0.0
C1123 C 0.03065 0.29936 0.84534 0.0
C1124 C 0.02388 0.31669 0.84255 0.0
H1125 H 0.62916 0.69016 0.81722 0.0
H1126 H 0.67234 0.70553 0.76724 0.0
H1127 H 0.70861 0.724 0.78663 0.0
H1128 H 0.66731 0.74233 0.84321 0.0
H1129 H 0.66223 0.72725 0.86538 0.0
H1130 H 0.63959 0.71541 0.84758 0.0
H1131 H 0.63872 0.67506 0.849 0.0
H1132 H 0.66135 0.68678 0.86684 0.0
H1133 H 0.66584 0.67441 0.84565 0.0
H1134 H 0.73987 0.7424 0.81096 0.0
H1135 H 0.7647 0.75692 0.83938 0.0
H1136 H 0.70117 0.72714 0.87378 0.0
C1137 C 0.6463 0.69744 0.81046 0.0
C1138 C 0.64819 0.69664 0.79086 0.0
C1139 C 0.67072 0.70597 0.78232 0.0
C1140 C 0.69135 0.71653 0.79317 0.0
C1141 C 0.68897 0.7171 0.8125 0.0
C1142 C 0.66706 0.7075 0.82113 0.0
C1143 C 0.66953 0.70971 0.84221 0.0
C1144 C 0.65905 0.72457 0.85005 0.0
C1145 C 0.65819 0.68502 0.85146 0.0
C1146 C 0.69626 0.7227 0.84398 0.0
C1147 C 0.7071 0.72682 0.82667 0.0
C1148 C 0.73166 0.73911 0.82464 0.0
C1149 C 0.74557 0.74734 0.84083 0.0
C1150 C 0.7348 0.74303 0.85872 0.0
C1151 C 0.70985 0.73051 0.86027 0.0
H1152 H 0.04856 0.76472 0.84996 0.0
H1153 H 0.97357 0.71239 0.8455 0.0
H1154 H 0.98328 0.68743 0.82544 0.0
H1155 H 0.0648 0.75937 0.80285 0.0
H1156 H 0.09297 0.76265 0.80961 0.0
H1157 H 0.07998 0.77647 0.82336 0.0
H1158 H 0.08254 0.75472 0.85298 0.0
H1159 H 0.09537 0.74069 0.83927 0.0
H1160 H 0.06889 0.72274 0.85276 0.0
H1161 H 0.00117 0.66795 0.8064 0.0
H1162 H 0.02601 0.65599 0.78856 0.0
H1163 H 0.08915 0.72115 0.8057 0.0
C1164 C 0.03414 0.74813 0.84463 0.0
C1165 C 0.01031 0.74051 0.84921 0.0
C1166 C 0.99197 0.71858 0.84211 0.0
C1167 C -0.00271 0.70426 0.83076 0.0
C1168 C 0.02101 0.71215 0.82672 0.0
C1169 C 0.03913 0.73359 0.83338 0.0
C1170 C 0.06314 0.73787 0.82714 0.0
C1171 C 0.07597 0.76042 0.81502 0.0
C1172 C 0.07837 0.73907 0.84405 0.0
C1173 C 0.05566 0.71564 0.8157 0.0
C1174 C 0.03131 0.70094 0.81575 0.0
C1175 C 0.02026 0.67932 0.80621 0.0
C1176 C 0.03451 0.67269 0.79615 0.0
C1177 C 0.05947 0.68771 0.79569 0.0
C1178 C 0.07011 0.70935 0.80572 0.0
H1179 H 0.31146 0.41378 0.82567 0.0
H1180 H 0.35428 0.39761 0.78908 0.0
H1181 H 0.32593 0.35463 0.79273 0.0
H1182 H 0.30537 0.37887 0.85773 0.0
H1183 H 0.27522 0.36841 0.86501 0.0
H1184 H 0.29134 0.39633 0.85326 0.0
H1185 H 0.2591 0.38268 0.82757 0.0
H1186 H 0.24223 0.35464 0.83958 0.0
H1187 H 0.24979 0.35516 0.81522 0.0
H1188 H 0.30319 0.31628 0.80938 0.0
H1189 H 0.28638 0.28659 0.83479 0.0
H1190 H 0.25742 0.32699 0.86065 0.0
C1191 C 0.31373 0.40107 0.81739 0.0
C1192 C 0.33458 0.40866 0.80693 0.0
C1193 C 0.33797 0.39195 0.79677 0.0
C1194 C 0.32197 0.3675 0.79888 0.0
C1195 C 0.30262 0.36031 0.81092 0.0
C1196 C 0.29799 0.37673 0.81953 0.0
C1197 C 0.27941 0.36525 0.83471 0.0
C1198 C 0.28841 0.37796 0.85377 0.0
C1199 C 0.25625 0.36437 0.82891 0.0
C1200 C 0.27641 0.34062 0.83488 0.0
C1201 C 0.28922 0.33774 0.82066 0.0
C1202 C 0.29237 0.31798 0.82011 0.0
C1203 C 0.28291 0.30126 0.83469 0.0
C1204 C 0.27068 0.30458 0.84972 0.0
C1205 C 0.26649 0.32388 0.84924 0.0
H1206 H 0.73777 0.03959 0.83781 0.0
H1207 H 0.7362 0.97526 0.8569 0.0
H1208 H 0.69621 0.95106 0.84367 0.0
H1209 H 0.67701 0.02111 0.84598 0.0
H1210 H 0.67317 0.03413 0.82491 0.0
H1211 H 0.70195 0.04695 0.83581 0.0
H1212 H 0.72021 0.04263 0.80482 0.0
H1213 H 0.69158 0.03023 0.79374 0.0
H1214 H 0.70734 0.01397 0.79352 0.0
H1215 H 0.65597 0.93397 0.83057 0.0
H1216 H 0.61974 0.92387 0.8129 0.0
H1217 H 0.64766 -0.00125 0.80024 0.0
C1218 C 0.72909 0.0204 0.83895 0.0
C1219 C 0.74004 0.00929 0.84835 0.0
C1220 C 0.72823 0.98414 0.84958 0.0
C1221 C 0.70541 0.97023 0.8423 0.0
C1222 C 0.69485 0.98172 0.83357 0.0
C1223 C 0.70642 0.00614 0.8314 0.0
C1224 C 0.69127 0.01374 0.8206 0.0
C1225 C 0.68552 0.02994 0.83255 0.0
C1226 C 0.70332 0.02585 0.80207 0.0
C1227 C 0.66936 0.98974 0.81723 0.0
C1228 C 0.67174 0.97162 0.82513 0.0
C1229 C 0.65392 0.94792 0.82412 0.0
C1230 C 0.63336 0.94241 0.81411 0.0
C1231 C 0.63097 0.96051 0.80504 0.0
C1232 C 0.64902 0.98454 0.80698 0.0
H1233 H 0.72038 0.00513 0.15331 0.0
H1234 H 0.77831 0.06935 0.129 0.0
H1235 H 0.76456 0.09349 0.14546 0.0
H1236 H 0.67627 0.02299 0.15225 0.0
H1237 H 0.66369 0.01019 0.1747 0.0
H1238 H 0.67751 -0.00256 0.16064 0.0
H1239 H 0.70571 0.00241 0.18809 0.0
H1240 H 0.69178 0.01489 0.20231 0.0
H1241 H 0.72342 0.03129 0.19869 0.0
H1242 H 0.74473 0.11065 0.16363 0.0
H1243 H 0.72241 0.12081 0.18594 0.0
H1244 H 0.67796 0.04594 0.19981 0.0
C1245 C 0.73017 0.02427 0.15156 0.0
C1246 C 0.75036 0.03539 0.13991 0.0
C1247 C 0.76289 0.06048 0.13799 0.0
C1248 C 0.75512 0.07435 0.14713 0.0
C1249 C 0.73499 0.06287 0.15829 0.0
C1250 C 0.72288 0.03849 0.16085 0.0
C1251 C 0.70251 0.03093 0.17445 0.0
C1252 C 0.67858 0.01442 0.16493 0.0
C1253 C 0.70608 0.01919 0.19192 0.0
C1254 C 0.70512 0.05491 0.17906 0.0
C1255 C 0.72382 0.07299 0.16937 0.0
C1256 C 0.73008 0.09672 0.17139 0.0
C1257 C 0.71728 0.10228 0.18409 0.0
C1258 C 0.69856 0.08417 0.1947 0.0
C1259 C 0.69214 0.06014 0.19187 0.0
H1260 H 0.03387 0.73518 0.14821 0.0
H1261 H 0.97593 0.75006 0.14436 0.0
H1262 H 0.95129 0.71527 0.16425 0.0
H1263 H -0.00057 0.67303 0.14554 0.0
H1264 H 0.01647 0.66704 0.16233 0.0
H1265 H 0.03049 0.69415 0.14891 0.0
H1266 H 0.04421 0.71905 0.17946 0.0
H1267 H 0.03058 0.692 0.19299 0.0
H1268 H 0.02263 0.71451 0.19721 0.0
H1269 H 0.93172 0.67709 0.18177 0.0
H1270 H 0.91976 0.64021 0.19944 0.0
H1271 H 0.99071 0.65061 0.19299 0.0
C1272 C 0.01615 0.73137 0.15181 0.0
C1273 C 0.0068 0.74529 0.14468 0.0
C1274 C 0.9835 0.73968 0.14968 0.0
C1275 C 0.96932 0.71991 0.16091 0.0
C1276 C 0.9788 0.70612 0.1672 0.0
C1277 C 0.0018 0.7118 0.16315 0.0
C1278 C 0.00749 0.69378 0.17151 0.0
C1279 C 0.01384 0.68126 0.15615 0.0
C1280 C 0.0274 0.70554 0.18616 0.0
C1281 C 0.98393 0.67687 0.18058 0.0
C1282 C 0.96763 0.68429 0.17782 0.0
C1283 C 0.94439 0.67122 0.18426 0.0
C1284 C 0.93774 0.65021 0.19417 0.0
C1285 C 0.95434 0.6426 0.19767 0.0
C1286 C 0.97768 0.65606 0.19064 0.0
H1287 H 0.28954 0.26409 0.16371 0.0
H1288 H 0.29454 0.30582 0.11492 0.0
H1289 H 0.33817 0.32276 0.11446 0.0
H1290 H 0.33394 0.30715 0.1867 0.0
H1291 H 0.34515 0.28972 0.19765 0.0
H1292 H 0.31462 0.27575 0.19075 0.0
H1293 H 0.31945 0.24533 0.17044 0.0
H1294 H 0.3501 0.259 0.17754 0.0
H1295 H 0.34254 0.25578 0.15299 0.0
H1296 H 0.38145 0.34205 0.12432 0.0
H1297 H 0.41892 0.36023 0.1426 0.0
H1298 H 0.38456 0.30537 0.1848 0.0
C1299 C 0.29976 0.27594 0.15241 0.0
C1300 C 0.28887 0.28346 0.13919 0.0
C1301 C 0.30263 0.2994 0.12484 0.0
C1302 C 0.32741 0.30918 0.12458 0.0
C1303 C 0.33788 0.30245 0.1386 0.0
C1304 C 0.3243 0.28575 0.15203 0.0
C1305 C 0.33946 0.28406 0.16728 0.0
C1306 C 0.3329 0.28951 0.18671 0.0
C1307 C 0.33779 0.25959 0.16703 0.0
C1308 C 0.36362 0.30343 0.16103 0.0
C1309 C 0.36262 0.3136 0.14429 0.0
C1310 C 0.38252 0.33378 0.13716 0.0
C1311 C 0.40371 0.34404 0.14764 0.0
C1312 C 0.40457 0.33426 0.16514 0.0
C1313 C 0.38448 0.31325 0.17145 0.0
H1314 H 0.59077 0.64505 0.49319 0.0
H1315 H 0.63466 0.68982 0.53839 0.0
H1316 H 0.65481 0.666 0.54023 0.0
H1317 H 0.5889 0.58726 0.50794 0.0
H1318 H 0.59065 0.58055 0.48367 0.0
H1319 H 0.57528 0.59616 0.49011 0.0
H1320 H 0.6017 0.63 0.46703 0.0
H1321 H 0.6173 0.61482 0.46074 0.0
H1322 H 0.63351 0.64487 0.46953 0.0
H1323 H 0.677 0.64487 0.53081 0.0
H1324 H 0.69716 0.62772 0.51251 0.0
H1325 H 0.63746 0.59596 0.4742 0.0
C1326 C 0.60379 0.64901 0.5041 0.0
C1327 C 0.61111 0.66894 0.51575 0.0
C1328 C 0.62856 0.6742 0.52962 0.0
C1329 C 0.64011 0.66081 0.53067 0.0
C1330 C 0.63354 0.64206 0.51802 0.0
C1331 C 0.61531 0.63585 0.50528 0.0
C1332 C 0.61398 0.61791 0.49115 0.0
C1333 C 0.59083 0.59404 0.49337 0.0
C1334 C 0.61682 0.62749 0.47095 0.0
C1335 C 0.63518 0.61597 0.49712 0.0
C1336 C 0.64612 0.62967 0.5128 0.0
C1337 C 0.66815 0.63347 0.51893 0.0
C1338 C 0.67952 0.62371 0.50842 0.0
C1339 C 0.66888 0.61051 0.49192 0.0
C1340 C 0.64597 0.60575 0.48685 0.0
H1341 H 0.42793 0.08662 0.49535 0.0
H1342 H 0.39922 0.05376 0.44143 0.0
H1343 H 0.37828 0.01429 0.45646 0.0
H1344 H 0.43637 0.03984 0.5143 0.0
H1345 H 0.42728 0.04256 0.53759 0.0
H1346 H 0.44084 0.06812 0.5224 0.0
H1347 H 0.40447 0.07391 0.52667 0.0
H1348 H 0.39078 0.04834 0.54183 0.0
H1349 H 0.37519 0.04963 0.52139 0.0
H1350 H 0.36042 0.97835 0.47742 0.0
H1351 H 0.34573 0.94887 0.50321 0.0
H1352 H 0.38507 0.00585 0.54316 0.0
C1353 C 0.41736 0.07109 0.48672 0.0
C1354 C 0.41518 0.07316 0.46729 0.0
C1355 C 0.40099 0.05252 0.45642 0.0
C1356 C 0.38911 0.03002 0.46478 0.0
C1357 C 0.39148 0.02857 0.48402 0.0
C1358 C 0.40512 0.04855 0.49487 0.0
C1359 C 0.40395 0.04225 0.51534 0.0
C1360 C 0.42858 0.04856 0.52284 0.0
C1361 C 0.39294 0.05424 0.52699 0.0
C1362 C 0.38761 0.01564 0.51427 0.0
C1363 C 0.3807 0.00801 0.49611 0.0
C1364 C 0.36566 0.98408 0.49174 0.0
C1365 C 0.35743 0.9675 0.50642 0.0
C1366 C 0.3642 0.97511 0.52514 0.0
C1367 C 0.37947 -0.00053 0.529 0.0
H1368 H 0.94962 0.3704 0.51382 0.0
H1369 H 0.96141 0.37086 0.45398 0.0
H1370 H 0.00487 0.39485 0.45931 0.0
H1371 H -0.0002 0.43058 0.52389 0.0
H1372 H 0.00545 0.42096 0.54602 0.0
H1373 H 0.97566 0.40716 0.53688 0.0
H1374 H 0.9724 0.36574 0.53933 0.0
H1375 H 0.00209 0.37934 0.54838 0.0
H1376 H -0.0058 0.36079 0.52779 0.0
H1377 H 0.04755 0.41591 0.47218 0.0
H1378 H 0.08426 0.42986 0.49121 0.0
H1379 H 0.0425 0.41309 0.54198 0.0
C1380 C 0.96125 0.37584 0.50175 0.0
C1381 C 0.95223 0.36881 0.4835 0.0
C1382 C 0.96804 0.37624 0.46809 0.0
C1383 C 0.9927 0.38988 0.471 0.0
C1384 C 0.00102 0.39604 0.48934 0.0
C1385 C 0.98563 0.38929 0.5044 0.0
C1386 C -0.00142 0.39618 0.52286 0.0
C1387 C -0.00536 0.41483 0.533 0.0
C1388 C 0.99139 0.37421 0.5353 0.0
C1389 C 0.02374 0.40684 0.51599 0.0
C1390 C 0.02505 0.40729 0.49663 0.0
C1391 C 0.0467 0.41579 0.48733 0.0
C1392 C 0.06738 0.42363 0.49816 0.0
C1393 C 0.06589 0.42219 0.51791 0.0
C1394 C 0.04393 0.41411 0.52684 0.0
H1395 H 0.35606 0.4191 0.50397 0.0
H1396 H 0.36919 0.38923 0.55387 0.0
H1397 H 0.39013 0.3738 0.5349 0.0
H1398 H 0.34496 0.36851 0.47373 0.0
H1399 H 0.35837 0.38695 0.45344 0.0
H1400 H 0.34424 0.39574 0.4709 0.0
H1401 H 0.38307 0.43622 0.47468 0.0
H1402 H 0.39735 0.42748 0.45735 0.0
H1403 H 0.41029 0.43665 0.48033 0.0
H1404 H 0.41167 0.36404 0.51149 0.0
H1405 H 0.42919 0.3561 0.48387 0.0
H1406 H 0.40009 0.38956 0.44823 0.0
C1407 C 0.36326 0.40918 0.51078 0.0
C1408 C 0.36113 0.40533 0.53032 0.0
C1409 C 0.37052 0.39216 0.53887 0.0
C1410 C 0.38254 0.38344 0.52825 0.0
C1411 C 0.38454 0.38764 0.50906 0.0
C1412 C 0.37481 0.39975 0.50028 0.0
C1413 C 0.37891 0.40095 0.47929 0.0
C1414 C 0.35521 0.38722 0.46872 0.0
C1415 C 0.39327 0.42687 0.47253 0.0
C1416 C 0.39318 0.38838 0.47785 0.0
C1417 C 0.39621 0.38095 0.49524 0.0
C1418 C 0.40923 0.36951 0.49773 0.0
C1419 C 0.4192 0.36519 0.48195 0.0
C1420 C 0.41594 0.37214 0.46388 0.0
C1421 C 0.40279 0.38395 0.46185 0.0
H1422 H 0.64546 0.00114 0.54257 0.0
H1423 H 0.61577 0.94203 0.50344 0.0
H1424 H 0.63351 0.97009 0.47706 0.0
H1425 H 0.63164 0.03683 0.51703 0.0
H1426 H 0.65791 0.06468 0.52253 0.0
H1427 H 0.64749 0.04015 0.53858 0.0
H1428 H 0.68838 0.04241 0.53745 0.0
H1429 H 0.69907 0.0672 0.5215 0.0
H1430 H 0.70073 0.04119 0.51514 0.0
H1431 H 0.65084 0.00427 0.45501 0.0
H1432 H 0.66439 0.04245 0.43858 0.0
H1433 H 0.67979 0.07912 0.49202 0.0
C1434 C 0.64335 0.99414 0.52848 0.0
C1435 C 0.6295 0.96956 0.52494 0.0
C1436 C 0.62643 0.96091 0.50635 0.0
C1437 C 0.63656 0.97666 0.49132 0.0
C1438 C 0.64956 0.00091 0.49521 0.0
C1439 C 0.65296 0.00965 0.51332 0.0
C1440 C 0.66497 0.0365 0.51354 0.0
C1441 C 0.64957 0.04502 0.5235 0.0
C1442 C 0.68976 0.04747 0.52243 0.0
C1443 C 0.6666 0.04138 0.49275 0.0
C1444 C 0.65837 0.0207 0.48242 0.0
C1445 C 0.65753 0.02062 0.46292 0.0
C1446 C 0.66517 0.0423 0.45374 0.0
C1447 C 0.67285 0.06348 0.46414 0.0
C1448 C 0.67377 0.06305 0.48383 0.0
H1449 H 0.95106 0.58457 0.50109 0.0
H1450 H 0.96685 0.63693 0.45784 0.0
H1451 H 0.00948 0.64957 0.46009 0.0
H1452 H 0.99106 0.61796 0.5296 0.0
H1453 H -0.00018 0.59765 0.53884 0.0
H1454 H 0.9709 0.58626 0.52894 0.0
H1455 H 0.97853 0.56044 0.50544 0.0
H1456 H 0.00749 0.57122 0.51565 0.0
H1457 H 0.00457 0.57402 0.4908 0.0
H1458 H 0.04931 0.66518 0.47457 0.0
H1459 H 0.08211 0.67954 0.49745 0.0
H1460 H 0.04077 0.61628 0.53098 0.0
C1461 C 0.96345 0.59759 0.49128 0.0
C1462 C 0.95597 0.60963 0.47918 0.0
C1463 C 0.97237 0.62717 0.46688 0.0
C1464 C -0.00339 0.6345 0.46817 0.0
C1465 C 0.00384 0.62367 0.48152 0.0
C1466 C 0.98755 0.60496 0.49246 0.0
C1467 C -0.0004 0.59918 0.50805 0.0
C1468 C 0.98977 0.60038 0.52747 0.0
C1469 C -0.00257 0.57477 0.50478 0.0
C1470 C 0.02488 0.61904 0.50545 0.0
C1471 C 0.02719 0.63262 0.48979 0.0
C1472 C 0.04795 0.65418 0.48643 0.0
C1473 C 0.06644 0.66231 0.49959 0.0
C1474 C 0.06399 0.64896 0.51596 0.0
C1475 C 0.04334 0.62664 0.51842 0.0
H1476 H 0.02137 0.23698 0.03204 0.0
H1477 H 0.03861 0.30986 0.04169 0.0
H1478 H 0.03529 0.31491 0.00759 0.0
H1479 H 0.05329 0.24674 0.98928 0.0
H1480 H 0.03129 0.21914 0.97883 0.0
H1481 H 0.03488 0.22145 0.00389 0.0
H1482 H 0.9903 0.208 0.00781 0.0
H1483 H 0.98659 0.20562 0.98274 0.0
H1484 H 0.97825 0.22406 0.99584 0.0
H1485 H 0.03247 0.3124 0.97226 0.0
H1486 H 0.02713 0.30165 0.93865 0.0
H1487 H 0.00975 0.22974 0.95307 0.0
C1488 C 0.02478 0.25409 0.027 0.0
C1489 C 0.03074 0.27321 0.03935 0.0
C1490 C 0.03412 0.29506 0.03232 0.0
C1491 C 0.03234 0.29808 0.01303 0.0
C1492 C 0.02681 0.27893 0.00116 0.0
C1493 C 0.02278 0.25727 0.00792 0.0
C1494 C 0.01666 0.23933 0.99235 0.0
C1495 C 0.03514 0.2312 0.99102 0.0
C1496 C 0.99145 0.218 0.99484 0.0
C1497 C 0.01813 0.25436 0.97571 0.0
C1498 C 0.02418 0.27719 0.98102 0.0
C1499 C 0.02751 0.29451 0.96794 0.0
C1500 C 0.02453 0.28827 0.94891 0.0
C1501 C 0.01804 0.26487 0.94325 0.0
C1502 C 0.01467 0.24774 0.95689 0.0
H1503 H 0.81168 0.80632 0.96277 0.0
H1504 H 0.74734 0.73898 0.95272 0.0
H1505 H 0.74064 0.73296 0.98677 0.0
H1506 H 0.8312 0.78987 0.00357 0.0
H1507 H 0.84117 0.81763 0.01574 0.0
H1508 H 0.84111 0.81701 0.9905 0.0
H1509 H 0.81493 0.83668 0.98966 0.0
H1510 H 0.81513 0.83761 0.0149 0.0
H1511 H 0.78733 0.82323 0.00242 0.0
H1512 H 0.74288 0.73233 0.02148 0.0
H1513 H 0.75031 0.74023 0.05542 0.0
H1514 H 0.81086 0.80962 0.04329 0.0
C1515 C 0.79619 0.79039 0.9678 0.0
C1516 C 0.78013 0.77296 0.95524 0.0
C1517 C 0.75981 0.75251 0.9622 0.0
C1518 C 0.75591 0.74888 0.98148 0.0
C1519 C 0.77224 0.76615 0.99355 0.0
C1520 C 0.79165 0.78678 0.98705 0.0
C1521 C 0.8059 0.80285 0.00313 0.0
C1522 C 0.83135 0.80708 0.00323 0.0
C1523 C 0.80581 0.82649 0.00248 0.0
C1524 C 0.79173 0.78775 0.01962 0.0
C1525 C 0.77257 0.76651 0.01373 0.0
C1526 C 0.75757 0.74903 0.02631 0.0
C1527 C 0.76201 0.75358 0.04548 0.0
C1528 C 0.78093 0.77558 0.05179 0.0
C1529 C 0.79602 0.79284 0.03873 0.0
H1530 H 0.25767 0.05112 0.9652 0.0
H1531 H 0.27491 0.99564 0.95456 0.0
H1532 H 0.27746 0.9907 0.98869 0.0
H1533 H 0.29707 0.07706 0.00485 0.0
H1534 H 0.27711 0.08391 0.01728 0.0
H1535 H 0.27686 0.08319 0.99203 0.0
H1536 H 0.23189 0.0523 0.99232 0.0
H1537 H 0.23197 0.05299 0.01754 0.0
H1538 H 0.22134 0.02509 0.00541 0.0
H1539 H 0.27801 0.99177 0.02382 0.0
H1540 H 0.27516 -0.00214 0.05779 0.0
H1541 H 0.2571 0.05222 0.04549 0.0
C1542 C 0.26188 0.03785 0.97004 0.0
C1543 C 0.26603 0.02369 0.95727 0.0
C1544 C 0.27174 0.00671 0.96413 0.0
C1545 C 0.27323 0.00379 0.98346 0.0
C1546 C 0.26916 0.01815 0.99567 0.0
C1547 C 0.2636 0.03484 0.98924 0.0
C1548 C 0.26005 0.04802 0.00529 0.0
C1549 C 0.2789 0.07462 0.00483 0.0
C1550 C 0.23481 0.04436 0.00512 0.0
C1551 C 0.26387 0.0357 0.0218 0.0
C1552 C 0.26943 0.01875 0.01592 0.0
C1553 C 0.2738 0.00507 0.02859 0.0
C1554 C 0.27227 0.00869 0.04777 0.0
C1555 C 0.26626 0.02567 0.05398 0.0
C1556 C 0.26201 0.03935 0.04091 0.0
H1557 H 0.0287 0.81665 0.95384 0.0
H1558 H 0.97925 0.74169 0.94472 0.0
H1559 H 0.97476 0.73509 0.97897 0.0
H1560 H 0.05862 0.80753 0.99196 0.0
H1561 H 0.06378 0.83363 0.00478 0.0
H1562 H 0.06125 0.83299 0.97964 0.0
H1563 H 0.02749 0.84297 0.98226 0.0
H1564 H 0.02985 0.84358 0.00744 0.0
H1565 H 0.00174 0.82434 0.99632 0.0
H1566 H 0.97619 0.73638 0.01365 0.0
H1567 H 0.98583 0.74453 0.04716 0.0
H1568 H 0.03678 0.81821 0.03405 0.0
C1569 C 0.01676 0.79898 0.9592 0.0
C1570 C 0.00408 0.77963 0.94696 0.0
C1571 C 0.98897 0.75661 0.95413 0.0
C1572 C 0.98625 0.75276 0.97347 0.0
C1573 C -0.00091 0.77211 0.98531 0.0
C1574 C 0.01427 0.79472 0.97852 0.0
C1575 C 0.02742 0.81192 0.99434 0.0
C1576 C 0.05436 0.82211 0.99257 0.0
C1577 C 0.02125 0.83188 0.99513 0.0
C1578 C 0.01733 0.79538 0.01102 0.0
C1579 C 0.00076 0.77261 0.00546 0.0
C1580 C 0.98912 0.75413 0.01822 0.0
C1581 C -0.00525 0.75895 0.03723 0.0
C1582 C 0.01206 0.78201 0.04326 0.0
C1583 C 0.02338 0.80045 0.02994 0.0
H1584 H 0.24958 0.24635 0.04035 0.0
H1585 H 0.29142 0.32234 0.04987 0.0
H1586 H 0.30036 0.32867 0.01582 0.0
H1587 H 0.28707 0.2433 0.00334 0.0
H1588 H 0.26189 0.22058 0.99073 0.0
H1589 H 0.2607 0.22249 0.01585 0.0
H1590 H 0.22252 0.22532 0.01278 0.0
H1591 H 0.22376 0.22378 0.98766 0.0
H1592 H 0.22294 0.24845 -0.00149 0.0
H1593 H 0.3006 0.32638 0.97996 0.0
H1594 H 0.29603 0.31556 0.94631 0.0
H1595 H 0.2554 0.24087 0.96138 0.0
C1596 C 0.26081 0.2643 0.03529 0.0
C1597 C 0.26971 0.2839 0.04759 0.0
C1598 C 0.28465 0.30711 0.04059 0.0
C1599 C 0.28964 0.31084 0.02129 0.0
C1600 C 0.27985 0.29109 0.00939 0.0
C1601 C 0.26614 0.26824 0.01623 0.0
C1602 C 0.25732 0.24998 0.00067 0.0
C1603 C 0.26735 0.2331 0.00277 0.0
C1604 C 0.23002 0.23608 -0.00013 0.0
C1605 C 0.26778 0.2661 0.98388 0.0
C1606 C 0.28062 0.28976 0.98909 0.0
C1607 C 0.29087 0.30787 0.97577 0.0
C1608 C 0.28809 0.30156 0.95669 0.0
C1609 C 0.27529 0.27735 0.95113 0.0
C1610 C 0.26518 0.25952 0.96502 0.0
H1611 H 0.81283 0.0405 0.95474 0.0
H1612 H 0.73788 -0.00227 0.94133 0.0
H1613 H 0.72845 0.99181 0.97512 0.0
H1614 H 0.81283 0.00563 0.99337 0.0
H1615 H 0.83385 0.03096 0.00688 0.0
H1616 H 0.83453 0.03237 0.98168 0.0
H1617 H 0.83048 0.07011 0.98301 0.0
H1618 H 0.82968 0.06874 0.00823 0.0
H1619 H 0.80595 0.06912 0.99552 0.0
H1620 H 0.72717 0.99172 0.01016 0.0
H1621 H 0.73443 0.99462 0.0444 0.0
H1622 H 0.81024 0.03504 0.03466 0.0
C1623 C 0.79443 0.02979 0.95886 0.0
C1624 C 0.77607 0.01955 0.94544 0.0
C1625 C 0.75221 0.00577 0.95141 0.0
C1626 C 0.74669 0.00235 0.97054 0.0
C1627 C 0.76525 0.01278 0.9834 0.0
C1628 C 0.78864 0.02607 0.97782 0.0
C1629 C 0.80531 0.035 0.99444 0.0
C1630 C 0.82264 0.0254 0.99406 0.0
C1631 C 0.81864 0.06236 0.99535 0.0
C1632 C 0.78763 0.02424 0.01024 0.0
C1633 C 0.76459 0.0119 0.00358 0.0
C1634 C 0.74511 0.00117 0.01555 0.0
C1635 C 0.74935 0.00295 0.03487 0.0
C1636 C 0.77281 0.01489 0.04182 0.0
C1637 C 0.79218 0.02565 0.02946 0.0
H1638 H 0.66698 0.56497 0.29636 0.0
H1639 H 0.69412 0.63838 0.27968 0.0
H1640 H 0.70115 0.65057 0.31307 0.0
H1641 H 0.63707 0.56587 0.33736 0.0
H1642 H 0.64465 0.54686 0.35046 0.0
H1643 H 0.64198 0.54427 0.32534 0.0
H1644 H 0.68472 0.55113 0.32289 0.0
H1645 H 0.68746 0.55352 0.34801 0.0
H1646 H 0.70894 0.57723 0.33346 0.0
H1647 H 0.70272 0.65383 0.34894 0.0
H1648 H 0.70293 0.64842 0.38343 0.0
H1649 H 0.67703 0.57325 0.3752 0.0
C1650 C 0.6746 0.58364 0.29958 0.0
C1651 C 0.67998 0.60069 0.28539 0.0
C1652 C 0.68989 0.62498 0.29036 0.0
C1653 C 0.69387 0.63206 0.30926 0.0
C1654 C 0.68806 0.61462 0.32292 0.0
C1655 C 0.67896 0.59097 0.31821 0.0
C1656 C 0.6745 0.57559 0.33529 0.0
C1657 C 0.64798 0.55706 0.33722 0.0
C1658 C 0.68982 0.56367 0.33488 0.0
C1659 C 0.68247 0.59423 0.35046 0.0
C1660 C 0.68993 0.61662 0.34317 0.0
C1661 C 0.69716 0.63641 0.35475 0.0
C1662 C 0.6971 0.6332 0.37424 0.0
C1663 C 0.69029 0.6105 0.38174 0.0
C1664 C 0.68277 0.59085 0.36972 0.0
H1665 H 0.43137 0.10089 0.3619 0.0
H1666 H 0.46618 0.17744 0.36976 0.0
H1667 H 0.46984 0.18306 0.33544 0.0
H1668 H 0.46668 0.10239 0.32225 0.0
H1669 H 0.44207 0.07736 0.31095 0.0
H1670 H 0.44296 0.07977 0.33611 0.0
H1671 H 0.40163 0.07657 0.33567 0.0
H1672 H 0.40081 0.07462 0.31048 0.0
H1673 H 0.39729 0.09742 0.32197 0.0
H1674 H 0.47014 0.18021 0.30033 0.0
H1675 H 0.46841 0.16905 0.26694 0.0
H1676 H 0.43151 0.09445 0.28225 0.0
C1677 C 0.4399 0.11886 0.35643 0.0
C1678 C 0.44853 0.13874 0.36847 0.0
C1679 C 0.45957 0.16196 0.36078 0.0
C1680 C 0.46161 0.16532 0.34132 0.0
C1681 C 0.45245 0.14528 0.32984 0.0
C1682 C 0.44198 0.12253 0.33711 0.0
C1683 C 0.43377 0.10397 0.3218 0.0
C1684 C 0.44717 0.09006 0.32284 0.0
C1685 C 0.40677 0.08716 0.32253 0.0
C1686 C 0.44097 0.11981 0.30471 0.0
C1687 C 0.45189 0.1436 0.30964 0.0
C1688 C 0.46142 0.16165 0.29629 0.0
C1689 C 0.46033 0.15519 0.27742 0.0
C1690 C 0.44948 0.13095 0.2722 0.0
C1691 C 0.43923 0.11307 0.28594 0.0
H1692 H 0.93596 0.33645 0.37351 0.0
H1693 H 0.943 0.40398 0.38969 0.0
H1694 H 0.9466 0.41569 0.35628 0.0
H1695 H 0.9771 0.35898 0.33222 0.0
H1696 H 0.95867 0.33233 0.31894 0.0
H1697 H 0.95995 0.33092 0.34411 0.0
H1698 H 0.91417 0.31135 0.3455 0.0
H1699 H 0.91279 0.3132 0.32042 0.0
H1700 H 0.9001 0.3265 0.33517 0.0
H1701 H 0.94319 0.41718 0.32148 0.0
H1702 H 0.93839 0.41099 0.28731 0.0
H1703 H 0.93556 0.3431 0.29343 0.0
C1704 C 0.93942 0.35414 0.36996 0.0
C1705 C 0.94013 0.36978 0.38399 0.0
C1706 C 0.94339 0.39228 0.37904 0.0
C1707 C 0.94518 0.3989 0.36014 0.0
C1708 C 0.9438 0.38281 0.34652 0.0
C1709 C 0.94149 0.36108 0.35119 0.0
C1710 C 0.939 0.34647 0.33386 0.0
C1711 C 0.95994 0.34192 0.33219 0.0
C1712 C 0.91509 0.323 0.33375 0.0
C1713 C 0.93986 0.36319 0.31871 0.0
C1714 C 0.94241 0.38394 0.32635 0.0
C1715 C 0.94175 0.40127 0.31532 0.0
C1716 C 0.93885 0.3975 0.29595 0.0
C1717 C 0.93691 0.37671 0.28777 0.0
C1718 C 0.93746 0.35936 0.29931 0.0
H1719 H 0.67367 0.10444 0.38136 0.0
H1720 H 0.7106 0.18117 0.38877 0.0
H1721 H 0.71571 0.18638 0.35444 0.0
H1722 H 0.70999 0.1035 0.34432 0.0
H1723 H 0.68575 0.07929 0.33199 0.0
H1724 H 0.68447 0.08155 0.35707 0.0
H1725 H 0.64452 0.08107 0.35423 0.0
H1726 H 0.6455 0.07844 0.32918 0.0
H1727 H 0.64262 0.10237 0.33919 0.0
H1728 H 0.71614 0.18306 0.31946 0.0
H1729 H 0.71079 0.17135 0.28605 0.0
H1730 H 0.67525 0.09699 0.30188 0.0
C1731 C 0.68268 0.12237 0.37579 0.0
C1732 C 0.69164 0.14242 0.38767 0.0
C1733 C 0.70346 0.16557 0.37986 0.0
C1734 C 0.70656 0.1687 0.36043 0.0
C1735 C 0.69784 0.1485 0.34915 0.0
C1736 C 0.68607 0.1258 0.35654 0.0
C1737 C 0.67833 0.10702 0.34143 0.0
C1738 C 0.69037 0.09196 0.34385 0.0
C1739 C 0.65113 0.09131 0.34098 0.0
C1740 C 0.6875 0.12271 0.32432 0.0
C1741 C 0.69869 0.14659 0.32907 0.0
C1742 C 0.70759 0.16446 0.31557 0.0
C1743 C 0.70448 0.15769 0.2967 0.0
C1744 C 0.69285 0.13338 0.29168 0.0
C1745 C 0.68463 0.1157 0.30557 0.0
H1746 H 0.93617 0.63066 0.37888 0.0
H1747 H 0.9253 0.56172 0.39537 0.0
H1748 H 0.92478 0.55093 0.36213 0.0
H1749 H 0.89854 0.61244 0.34158 0.0
H1750 H 0.91628 0.63689 0.32604 0.0
H1751 H 0.91984 0.64112 0.35099 0.0
H1752 H 0.96471 0.65563 0.34815 0.0
H1753 H 0.96143 0.65202 0.32308 0.0
H1754 H 0.97417 0.63736 0.33613 0.0
H1755 H 0.91874 0.54519 0.32788 0.0
H1756 H 0.91319 0.54653 0.29392 0.0
H1757 H 0.92977 0.62 0.29871 0.0
C1758 C 0.93485 0.61379 0.37541 0.0
C1759 C 0.93124 0.59711 0.38954 0.0
C1760 C 0.92849 0.57478 0.38466 0.0
C1761 C 0.9281 0.5685 0.36584 0.0
C1762 C 0.93075 0.58493 0.35213 0.0
C1763 C 0.9347 0.60736 0.35661 0.0
C1764 C 0.93559 0.62103 0.33907 0.0
C1765 C 0.91641 0.62828 0.33946 0.0
C1766 C 0.96045 0.6428 0.33645 0.0
C1767 C 0.93035 0.60235 0.32418 0.0
C1768 C 0.92772 0.58173 0.33208 0.0
C1769 C 0.92128 0.5614 0.32146 0.0
C1770 C 0.91793 0.56229 0.30218 0.0
C1771 C 0.92112 0.5834 0.29364 0.0
C1772 C 0.92739 0.60368 0.30483 0.0
H1773 H 0.45115 0.37306 0.36506 0.0
H1774 H 0.44825 0.30522 0.37192 0.0
H1775 H 0.44042 0.29724 0.3381 0.0
H1776 H 0.40625 0.35596 0.33093 0.0
H1777 H 0.42154 0.38276 0.31718 0.0
H1778 H 0.4273 0.38361 0.34193 0.0
H1779 H 0.47222 0.40134 0.33557 0.0
H1780 H 0.46668 0.40112 0.31082 0.0
H1781 H 0.48183 0.38628 0.31964 0.0
H1782 H 0.43041 0.2954 0.3041 0.0
H1783 H 0.42597 0.30311 0.27074 0.0
H1784 H 0.43778 0.37296 0.2855 0.0
C1785 C 0.44908 0.35666 0.35936 0.0
C1786 C 0.4501 0.33965 0.37105 0.0
C1787 C 0.44759 0.31849 0.36315 0.0
C1788 C 0.44295 0.31371 0.34401 0.0
C1789 C 0.44134 0.33049 0.33294 0.0
C1790 C 0.445 0.35184 0.34018 0.0
C1791 C 0.44349 0.36732 0.325 0.0
C1792 C 0.42345 0.37272 0.32901 0.0
C1793 C 0.46748 0.39037 0.32261 0.0
C1794 C 0.43777 0.35105 0.30822 0.0
C1795 C 0.43637 0.32979 0.31315 0.0
C1796 C 0.43142 0.31195 0.30004 0.0
C1797 C 0.42863 0.3163 0.28124 0.0
C1798 C 0.43089 0.33827 0.27589 0.0
C1799 C 0.4353 0.35575 0.2895 0.0
H1800 H 0.35239 0.90065 0.70788 0.0
H1801 H 0.35978 0.97023 0.71686 0.0
H1802 H 0.35701 0.97476 0.68293 0.0
H1803 H 0.38518 0.91436 0.6639 0.0
H1804 H 0.36538 0.88595 0.65334 0.0
H1805 H 0.36928 0.88831 0.6784 0.0
H1806 H 0.32392 0.86976 0.68281 0.0
H1807 H 0.31989 0.86733 0.65777 0.0
H1808 H 0.30879 0.88312 0.67132 0.0
H1809 H 0.35388 0.9725 0.64896 0.0
H1810 H 0.34746 0.96238 0.61558 0.0
H1811 H 0.33949 0.89306 0.62748 0.0
C1812 C 0.35361 0.91685 0.70261 0.0
C1813 C 0.3564 0.93517 0.71489 0.0
C1814 C 0.35753 0.95598 0.70763 0.0
C1815 C 0.35611 0.95879 0.6884 0.0
C1816 C 0.35325 0.94046 0.67665 0.0
C1817 C 0.35175 0.91978 0.68334 0.0
C1818 C 0.34739 0.90248 0.66745 0.0
C1819 C 0.36804 0.89749 0.66567 0.0
C1820 C 0.32358 0.8793 0.66999 0.0
C1821 C 0.34663 0.91676 0.65091 0.0
C1822 C 0.35039 0.93871 0.65666 0.0
C1823 C 0.35084 0.95536 0.64421 0.0
C1824 C 0.34721 0.94941 0.62527 0.0
C1825 C 0.34289 0.9269 0.61894 0.0
C1826 C 0.3426 0.91033 0.63194 0.0
H1827 H 0.14252 0.48018 0.6963 0.0
H1828 H 0.10656 0.40471 0.70918 0.0
H1829 H 0.09613 0.39549 0.67566 0.0
H1830 H 0.10107 0.47706 0.66234 0.0
H1831 H 0.12331 0.49969 0.64751 0.0
H1832 H 0.12824 0.50031 0.67239 0.0
H1833 H 0.16754 0.50018 0.66674 0.0
H1834 H 0.16302 0.50015 0.64186 0.0
H1835 H 0.16732 0.47728 0.65227 0.0
H1836 H 0.08783 0.39492 0.6409 0.0
H1837 H 0.08836 0.4029 0.60685 0.0
H1838 H 0.13115 0.47859 0.61739 0.0
C1839 C 0.13281 0.46168 0.69212 0.0
C1840 C 0.12541 0.44315 0.70532 0.0
C1841 C 0.11255 0.41918 0.69923 0.0
C1842 C 0.10634 0.41379 0.68029 0.0
C1843 C 0.11323 0.4326 0.66776 0.0
C1844 C 0.12655 0.45604 0.6734 0.0
C1845 C 0.13215 0.47306 0.65725 0.0
C1846 C 0.1205 0.48843 0.66004 0.0
C1847 C 0.15911 0.48857 0.65436 0.0
C1848 C 0.12048 0.45552 0.64146 0.0
C1849 C 0.10907 0.43227 0.64783 0.0
C1850 C 0.09678 0.41303 0.63574 0.0
C1851 C 0.09697 0.41769 0.61654 0.0
C1852 C 0.10976 0.44129 0.6098 0.0
C1853 C 0.12125 0.46041 0.62238 0.0
H1854 H 0.57216 0.69322 0.6948 0.0
H1855 H 0.62219 0.66909 0.7057 0.0
H1856 H 0.62824 0.66741 0.67161 0.0
H1857 H 0.54624 0.6601 0.65213 0.0
H1858 H 0.54495 0.68428 0.64088 0.0
H1859 H 0.54305 0.68154 0.66602 0.0
H1860 H 0.57867 0.72444 0.66934 0.0
H1861 H 0.58059 0.72736 0.64423 0.0
H1862 H 0.60617 0.73236 0.65761 0.0
H1863 H 0.62827 0.66796 0.63599 0.0
H1864 H 0.62551 0.67499 0.60213 0.0
H1865 H 0.57939 0.70323 0.61574 0.0
C1866 C 0.58417 0.68737 0.68992 0.0
C1867 C 0.59655 0.68104 0.70264 0.0
C1868 C 0.61258 0.67398 0.69597 0.0
C1869 C 0.61602 0.67284 0.6767 0.0
C1870 C 0.60364 0.67932 0.66438 0.0
C1871 C 0.58835 0.68683 0.67075 0.0
C1872 C 0.5788 0.69476 0.65474 0.0
C1873 C 0.55165 0.67924 0.65337 0.0
C1874 C 0.58653 0.7213 0.65659 0.0
C1875 C 0.59094 0.69037 0.63842 0.0
C1876 C 0.60487 0.68108 0.64414 0.0
C1877 C 0.61745 0.67532 0.63133 0.0
C1878 C 0.61578 0.67934 0.61216 0.0
C1879 C 0.60199 0.6894 0.60613 0.0
C1880 C 0.58964 0.69504 0.61958 0.0
H1881 H 0.34923 0.46891 0.70983 0.0
H1882 H 0.35229 0.40457 0.71953 0.0
H1883 H 0.35114 0.39797 0.68525 0.0
H1884 H 0.30959 0.44692 0.66877 0.0
H1885 H 0.32453 0.47554 0.65738 0.0
H1886 H 0.3235 0.47379 0.68259 0.0
H1887 H 0.36939 0.49916 0.68367 0.0
H1888 H 0.37057 0.50061 0.65847 0.0
H1889 H 0.38686 0.48927 0.67102 0.0
H1890 H 0.35501 0.40149 0.65013 0.0
H1891 H 0.35693 0.41096 0.61648 0.0
H1892 H 0.3496 0.47223 0.62977 0.0
C1893 C 0.34939 0.45329 0.70477 0.0
C1894 C 0.35106 0.43733 0.71728 0.0
C1895 C 0.35082 0.41688 0.71015 0.0
C1896 C 0.35037 0.41312 0.69073 0.0
C1897 C 0.34976 0.4298 0.67875 0.0
C1898 C 0.34867 0.44917 0.6855 0.0
C1899 C 0.34844 0.46465 0.6697 0.0
C1900 C 0.32512 0.46524 0.66961 0.0
C1901 C 0.3701 0.48991 0.67079 0.0
C1902 C 0.35004 0.4512 0.65296 0.0
C1903 C 0.35102 0.43129 0.6585 0.0
C1904 C 0.35386 0.4168 0.64562 0.0
C1905 C 0.35515 0.42246 0.62655 0.0
C1906 C 0.3533 0.44227 0.62052 0.0
C1907 C 0.35084 0.45687 0.63395 0.0
H1908 H 0.59671 0.94983 0.70184 0.0
H1909 H 0.55405 0.87523 0.71632 0.0
H1910 H 0.55177 0.86418 0.68309 0.0
H1911 H 0.56422 0.9463 0.66114 0.0
H1912 H 0.58941 0.96725 0.64756 0.0
H1913 H 0.59012 0.96951 0.67272 0.0
H1914 H 0.62869 0.96713 0.67363 0.0
H1915 H 0.62821 0.96509 0.64843 0.0
H1916 H 0.62927 0.94252 0.66241 0.0
H1917 H 0.55157 0.86119 0.64881 0.0
H1918 H 0.55409 0.86614 0.61461 0.0
H1919 H 0.59612 0.94288 0.62146 0.0
C1920 C 0.58731 0.93121 0.69792 0.0
C1921 C 0.57553 0.91327 0.71147 0.0
C1922 C 0.56299 0.88911 0.70605 0.0
C1923 C 0.56172 0.88269 0.68724 0.0
C1924 C 0.57296 0.90074 0.67409 0.0
C1925 C 0.58556 0.92451 0.67908 0.0
C1926 C 0.59453 0.94032 0.66192 0.0
C1927 C 0.58393 0.95681 0.66078 0.0
C1928 C 0.6218 0.9546 0.66158 0.0
C1929 C 0.58479 0.92168 0.64659 0.0
C1930 C 0.57252 0.899 0.654 0.0
C1931 C 0.56123 0.87882 0.64278 0.0
C1932 C 0.56262 0.88186 0.62337 0.0
C1933 C 0.57517 0.9049 0.61541 0.0
C1934 C 0.58643 0.92506 0.62719 0.0
H1935 H 0.12708 0.71505 0.70278 0.0
H1936 H 0.11785 0.64444 0.70887 0.0
H1937 H 0.11304 0.63872 0.67449 0.0
H1938 H 0.08534 0.7022 0.66765 0.0
H1939 H 0.1024 0.72951 0.65479 0.0
H1940 H 0.10684 0.72882 0.67963 0.0
H1941 H 0.15168 0.74454 0.67448 0.0
H1942 H 0.14752 0.74588 0.64965 0.0
H1943 H 0.16085 0.72924 0.6584 0.0
H1944 H 0.10428 0.63913 0.63984 0.0
H1945 H 0.09981 0.64849 0.60687 0.0
H1946 H 0.11786 0.7198 0.62347 0.0
C1947 C 0.12457 0.69859 0.69681 0.0
C1948 C 0.1228 0.68016 0.70839 0.0
C1949 C 0.11948 0.65885 0.70017 0.0
C1950 C 0.11652 0.65538 0.6807 0.0
C1951 C 0.11744 0.6736 0.66972 0.0
C1952 C 0.12209 0.69506 0.67744 0.0
C1953 C 0.12236 0.71187 0.66264 0.0
C1954 C 0.10309 0.71847 0.66641 0.0
C1955 C 0.14708 0.7342 0.6612 0.0
C1956 C 0.11662 0.69637 0.6454 0.0
C1957 C 0.11351 0.67422 0.64978 0.0
C1958 C 0.10696 0.6565 0.63623 0.0
C1959 C 0.10418 0.66183 0.61765 0.0
C1960 C 0.10828 0.68472 0.61289 0.0
C1961 C 0.1145 0.70213 0.62691 0.0
H1962 H 0.87428 0.08344 0.05768 0.0
H1963 H 0.84829 0.0869 0.11292 0.0
H1964 H 0.88178 0.12803 0.1167 0.0
H1965 H 0.93464 0.11375 0.0679 0.0
H1966 H 0.94375 0.12952 0.04594 0.0
H1967 H 0.91678 0.10126 0.04717 0.0
H1968 H 0.89328 0.12051 0.03374 0.0
H1969 H 0.92027 0.1489 0.03255 0.0
H1970 H 0.89508 0.14607 0.04528 0.0
H1971 H 0.92 0.16776 0.11523 0.0
H1972 H 0.95976 0.20218 0.10883 0.0
H1973 H 0.95963 0.1725 0.05426 0.0
C1974 C 0.87554 0.09289 0.07054 0.0
C1975 C 0.85877 0.08197 0.08504 0.0
C1976 C 0.86091 0.09499 0.10159 0.0
C1977 C 0.87983 0.11835 0.10385 0.0
C1978 C 0.89616 0.12854 0.08929 0.0
C1979 C 0.89404 0.11626 0.0729 0.0
C1980 C 0.91427 0.13085 0.05959 0.0
C1981 C 0.92818 0.11808 0.05489 0.0
C1982 C 0.90517 0.13694 0.04174 0.0
C1983 C 0.92877 0.15278 0.07143 0.0
C1984 C 0.91788 0.15137 0.08838 0.0
C1985 C 0.92854 0.16918 0.10191 0.0
C1986 C 0.95111 0.18869 0.09812 0.0
C1987 C 0.96283 0.19004 0.08104 0.0
C1988 C 0.95117 0.17203 0.06744 0.0
H1989 H 0.95078 0.79093 0.09692 0.0
H1990 H -0.00143 0.86688 0.09088 0.0
H1991 H 0.96535 0.87414 0.09633 0.0
H1992 H 0.90478 0.78944 0.0714 0.0
H1993 H 0.88088 0.76719 0.08534 0.0
H1994 H 0.90883 0.76788 0.08434 0.0
H1995 H 0.91201 0.77088 0.12053 0.0
H1996 H 0.88396 0.77011 0.12164 0.0
H1997 H 0.90991 0.79431 0.13237 0.0
H1998 H 0.92739 0.87325 0.0979 0.0
H1999 H 0.88593 0.8642 0.09538 0.0
H2000 H 0.86152 0.7888 0.10046 0.0
C2001 C 0.95424 0.80908 0.09727 0.0
C2002 C 0.97716 0.8284 0.09359 0.0
C2003 C 0.98107 0.85189 0.09363 0.0
C2004 C 0.96238 0.85619 0.09685 0.0
C2005 C 0.93985 0.83679 0.09993 0.0
C2006 C 0.9356 0.81368 0.1002 0.0
C2007 C 0.90923 0.796 0.1017 0.0
C2008 C 0.90042 0.77915 0.08468 0.0
C2009 C 0.90344 0.782 0.12017 0.0
C2010 C 0.89939 0.81282 0.10159 0.0
C2011 C 0.91747 0.83627 0.10082 0.0
C2012 C 0.91304 0.85502 0.09885 0.0
C2013 C 0.88949 0.84971 0.0973 0.0
C2014 C 0.87069 0.82587 0.09783 0.0
C2015 C 0.87564 0.80721 0.10041 0.0
H2016 H 0.23263 0.09359 0.06919 0.0
H2017 H 0.25264 0.0932 0.1271 0.0
H2018 H 0.25967 0.13417 0.13115 0.0
H2019 H 0.2766 0.15618 0.06055 0.0
H2020 H 0.25694 0.16038 0.04527 0.0
H2021 H 0.25463 0.13159 0.04693 0.0
H2022 H 0.21014 0.11253 0.05578 0.0
H2023 H 0.21228 0.14117 0.054 0.0
H2024 H 0.20174 0.12427 0.07538 0.0
H2025 H 0.2616 0.17452 0.1291 0.0
H2026 H 0.25796 0.20975 0.12112 0.0
H2027 H 0.23868 0.18337 0.0642 0.0
C2028 C 0.23851 0.10212 0.08272 0.0
C2029 C 0.24188 0.09021 0.09787 0.0
C2030 C 0.24994 0.10208 0.1153 0.0
C2031 C 0.25403 0.12533 0.11771 0.0
C2032 C 0.25046 0.13658 0.10245 0.0
C2033 C 0.2431 0.12538 0.08525 0.0
C2034 C 0.24019 0.14099 0.07109 0.0
C2035 C 0.25816 0.14768 0.05501 0.0
C2036 C 0.21457 0.12902 0.06364 0.0
C2037 C 0.24599 0.16233 0.08317 0.0
C2038 C 0.25218 0.15973 0.10117 0.0
C2039 C 0.25706 0.17685 0.11498 0.0
C2040 C 0.25501 0.19683 0.11032 0.0
C2041 C 0.24798 0.19932 0.09206 0.0
C2042 C 0.24407 0.18207 0.07831 0.0
H2043 H 0.17301 0.96364 0.88607 0.0
H2044 H 0.19342 0.95403 0.94173 0.0
H2045 H 0.1601 0.91262 0.94218 0.0
H2046 H 0.11306 0.93497 0.89472 0.0
H2047 H 0.10335 0.92097 0.87211 0.0
H2048 H 0.1314 0.94801 0.87432 0.0
H2049 H 0.15265 0.92735 0.85934 0.0
H2050 H 0.12457 0.90017 0.85707 0.0
H2051 H 0.14873 0.90012 0.86936 0.0
H2052 H 0.12263 0.87502 0.93871 0.0
H2053 H 0.08134 0.84373 0.9323 0.0
H2054 H 0.08316 0.87713 0.87932 0.0
C2055 C 0.17079 0.95242 0.89801 0.0
C2056 C 0.18586 0.96161 0.91374 0.0
C2057 C 0.18212 0.94699 0.9295 0.0
C2058 C 0.16335 0.92348 0.92982 0.0
C2059 C 0.14841 0.91494 0.9143 0.0
C2060 C 0.15179 0.92889 0.89867 0.0
C2061 C 0.13132 0.91627 0.88497 0.0
C2062 C 0.11906 0.93092 0.88133 0.0
C2063 C 0.13983 0.91064 0.86659 0.0
C2064 C 0.11541 0.89366 0.89582 0.0
C2065 C 0.12602 0.89305 0.91245 0.0
C2066 C 0.11432 0.87498 0.92557 0.0
C2067 C 0.09095 0.85731 0.92183 0.0
C2068 C 0.07953 0.85791 0.90519 0.0
C2069 C 0.09193 0.87604 0.89186 0.0
H2070 H 0.18039 0.24933 0.9344 0.0
H2071 H 0.19668 0.2531 0.87516 0.0
H2072 H 0.16288 0.25918 0.86797 0.0
H2073 H 0.11989 0.21735 0.93181 0.0
H2074 H 0.11429 0.23347 0.94978 0.0
H2075 H 0.14131 0.23237 0.9502 0.0
H2076 H 0.16576 0.2785 0.95041 0.0
H2077 H 0.1387 0.27973 0.94993 0.0
H2078 H 0.16104 0.29498 0.93225 0.0
H2079 H 0.12463 0.26028 0.86721 0.0
H2080 H 0.08504 0.25551 0.87286 0.0
H2081 H 0.09476 0.2522 0.93272 0.0
C2082 C 0.17697 0.2517 0.91994 0.0
C2083 C 0.19094 0.25058 0.90532 0.0
C2084 C 0.18615 0.25397 0.88656 0.0
C2085 C 0.16708 0.25752 0.88236 0.0
C2086 C 0.15342 0.25826 0.89713 0.0
C2087 C 0.15837 0.25576 0.91556 0.0
C2088 C 0.14046 0.25619 0.9288 0.0
C2089 C 0.12826 0.23349 0.94084 0.0
C2090 C 0.15219 0.27869 0.94108 0.0
C2091 C 0.12353 0.25729 0.91487 0.0
C2092 C 0.13165 0.25921 0.8967 0.0
C2093 C 0.11831 0.25919 0.8814 0.0
C2094 C 0.09585 0.25652 0.88476 0.0
C2095 C 0.08682 0.25349 0.90324 0.0
C2096 C 0.1012 0.25455 0.91845 0.0
H2097 H 0.8041 0.86461 0.93312 0.0
H2098 H 0.79614 0.84657 0.87408 0.0
H2099 H 0.78992 0.8806 0.86737 0.0
H2100 H 0.75865 0.88296 0.93374 0.0
H2101 H 0.77487 0.906 0.95079 0.0
H2102 H 0.77705 0.87939 0.9508 0.0
H2103 H 0.82285 0.90501 0.94812 0.0
H2104 H 0.82081 0.93162 0.94815 0.0
H2105 H 0.8357 0.92607 0.92918 0.0
H2106 H 0.78781 0.91881 0.86723 0.0
H2107 H 0.78996 0.95733 0.87355 0.0
H2108 H 0.79787 0.94871 0.93295 0.0
C2109 C 0.80083 0.86772 0.9188 0.0
C2110 C 0.80065 0.85314 0.90409 0.0
C2111 C 0.79616 0.85754 0.88554 0.0
C2112 C 0.79262 0.87678 0.88163 0.0
C2113 C 0.79307 0.89098 0.89651 0.0
C2114 C 0.79677 0.88642 0.91475 0.0
C2115 C 0.79686 0.90442 0.92825 0.0
C2116 C 0.77559 0.89248 0.94169 0.0
C2117 C 0.82047 0.91756 0.93904 0.0
C2118 C 0.79402 0.92069 0.91468 0.0
C2119 C 0.79142 0.91248 0.89646 0.0
C2120 C 0.78949 0.9252 0.88148 0.0
C2121 C 0.79065 0.94703 0.88522 0.0
C2122 C 0.794 0.95602 0.90376 0.0
C2123 C 0.79522 0.94233 0.91863 0.0
H2124 H 0.55151 0.40604 0.40265 0.0
H2125 H 0.50948 0.41551 0.44541 0.0
H2126 H 0.54108 0.45743 0.44928 0.0
H2127 H 0.60881 0.44313 0.42388 0.0
H2128 H 0.62343 0.45482 0.40178 0.0
H2129 H 0.59776 0.42547 0.40288 0.0
H2130 H 0.57711 0.43741 0.37753 0.0
H2131 H 0.60264 0.46687 0.37649 0.0
H2132 H 0.57376 0.46304 0.38134 0.0
H2133 H 0.57741 0.49859 0.44827 0.0
H2134 H 0.61567 0.53536 0.44275 0.0
H2135 H 0.63303 0.49874 0.40008 0.0
C2136 C 0.54897 0.41682 0.41295 0.0
C2137 C 0.528 0.40742 0.42375 0.0
C2138 C 0.52536 0.42229 0.43694 0.0
C2139 C 0.54321 0.44613 0.43925 0.0
C2140 C 0.56352 0.45488 0.42819 0.0
C2141 C 0.56648 0.44065 0.41532 0.0
C2142 C 0.58975 0.45442 0.40493 0.0
C2143 C 0.60589 0.44383 0.4086 0.0
C2144 C 0.58555 0.4555 0.38382 0.0
C2145 C 0.59949 0.47861 0.414 0.0
C2146 C 0.58415 0.47855 0.4274 0.0
C2147 C 0.58954 0.49885 0.43778 0.0
C2148 C 0.6113 0.51968 0.4345 0.0
C2149 C 0.62739 0.52005 0.42092 0.0
C2150 C 0.62115 0.4992 0.41048 0.0
H2151 H 0.62652 0.17294 0.43985 0.0
H2152 H 0.603 0.09771 0.4365 0.0
H2153 H 0.56098 0.08857 0.4369 0.0
H2154 H 0.57694 0.16742 0.4697 0.0
H2155 H 0.57681 0.19167 0.45752 0.0
H2156 H 0.60414 0.19127 0.46022 0.0
H2157 H 0.61028 0.1952 0.42422 0.0
H2158 H 0.58297 0.19535 0.42136 0.0
H2159 H 0.58744 0.17362 0.40909 0.0
H2160 H 0.52153 0.08892 0.43359 0.0
H2161 H 0.48977 0.09852 0.42695 0.0
H2162 H 0.54114 0.17371 0.43191 0.0
C2163 C 0.61251 0.15447 0.43959 0.0
C2164 C 0.61781 0.136 0.43804 0.0
C2165 C 0.59915 0.11207 0.43781 0.0
C2166 C 0.57532 0.10678 0.43802 0.0
C2167 C 0.57073 0.12566 0.43884 0.0
C2168 C 0.58897 0.14902 0.4399 0.0
C2169 C 0.58001 0.1664 0.43913 0.0
C2170 C 0.58475 0.17998 0.45775 0.0
C2171 C 0.59081 0.18363 0.42245 0.0
C2172 C 0.5539 0.14937 0.43637 0.0
C2173 C 0.54861 0.12589 0.43668 0.0
C2174 C 0.52553 0.10724 0.43355 0.0
C2175 C 0.50762 0.11283 0.42977 0.0
C2176 C 0.51312 0.13686 0.42874 0.0
C2177 C 0.53645 0.15518 0.43244 0.0
H2178 H 0.9129 0.43118 0.40377 0.0
H2179 H 0.90576 0.41011 0.46208 0.0
H2180 H 0.91066 0.44916 0.4715 0.0
H2181 H 0.9573 0.49553 0.41236 0.0
H2182 H 0.94495 0.50477 0.39378 0.0
H2183 H 0.94421 0.47667 0.3922 0.0
H2184 H 0.89854 0.45492 0.38761 0.0
H2185 H 0.8992 0.48285 0.38909 0.0
H2186 H 0.88046 0.45893 0.40474 0.0
H2187 H 0.9112 0.48904 0.47378 0.0
H2188 H 0.90663 0.52442 0.46843 0.0
H2189 H 0.91443 0.51847 0.40872 0.0
C2190 C 0.91268 0.43492 0.41854 0.0
C2191 C 0.90873 0.41766 0.43219 0.0
C2192 C 0.9088 0.4232 0.45141 0.0
C2193 C 0.91165 0.44534 0.45687 0.0
C2194 C 0.91505 0.46187 0.44295 0.0
C2195 C 0.91594 0.45694 0.42419 0.0
C2196 C 0.91837 0.47684 0.41177 0.0
C2197 C 0.94265 0.48918 0.40195 0.0
C2198 C 0.89792 0.46784 0.39748 0.0
C2199 C 0.91684 0.49295 0.42627 0.0
C2200 C 0.91561 0.48453 0.44427 0.0
C2201 C 0.91254 0.49595 0.45976 0.0
C2202 C 0.91 0.51601 0.45664 0.0
C2203 C 0.91007 0.52395 0.43817 0.0
C2204 C 0.91427 0.51267 0.42298 0.0
H2205 H 0.74113 0.22471 0.26059 0.0
H2206 H 0.75266 0.18521 0.21671 0.0
H2207 H 0.79342 0.21908 0.21219 0.0
H2208 H 0.77343 0.28248 0.23966 0.0
H2209 H 0.7851 0.2973 0.26173 0.0
H2210 H 0.75691 0.27013 0.26097 0.0
H2211 H 0.77214 0.25121 0.28529 0.0
H2212 H 0.80045 0.27825 0.28606 0.0
H2213 H 0.79894 0.25043 0.28052 0.0
H2214 H 0.8334 0.25765 0.21304 0.0
H2215 H 0.86844 0.29732 0.21869 0.0
H2216 H 0.82982 0.31038 0.26231 0.0
C2217 C 0.75206 0.22315 0.24987 0.0
C2218 C 0.74363 0.20232 0.23893 0.0
C2219 C 0.75873 0.201 0.22526 0.0
C2220 C 0.78189 0.22014 0.2226 0.0
C2221 C 0.78967 0.24033 0.23381 0.0
C2222 C 0.77513 0.24188 0.24716 0.0
C2223 C 0.78765 0.26519 0.25769 0.0
C2224 C 0.77502 0.27963 0.25483 0.0
C2225 C 0.78993 0.26101 0.27863 0.0
C2226 C 0.81151 0.27676 0.24808 0.0
C2227 C 0.81244 0.26218 0.23439 0.0
C2228 C 0.83283 0.26919 0.22373 0.0
C2229 C 0.85267 0.29174 0.22708 0.0
C2230 C 0.85194 0.30705 0.24095 0.0
C2231 C 0.83104 0.29923 0.25159 0.0
H2232 H 0.81213 0.53516 0.25419 0.0
H2233 H 0.85937 0.60168 0.22607 0.0
H2234 H 0.82537 0.60784 0.21995 0.0
H2235 H 0.76106 0.51773 0.22332 0.0
H2236 H 0.7402 0.50476 0.24231 0.0
H2237 H 0.76797 0.50497 0.24307 0.0
H2238 H 0.77768 0.5266 0.27521 0.0
H2239 H 0.74997 0.5264 0.27456 0.0
H2240 H 0.77738 0.55414 0.27734 0.0
H2241 H 0.78561 0.60735 0.21855 0.0
H2242 H 0.74499 0.60084 0.22305 0.0
H2243 H 0.72515 0.53487 0.25225 0.0
C2244 C 0.81543 0.551 0.24664 0.0
C2245 C 0.8385 0.56796 0.2407 0.0
C2246 C 0.84186 0.58838 0.23079 0.0
C2247 C 0.82264 0.59201 0.2272 0.0
C2248 C 0.80014 0.57495 0.23344 0.0
C2249 C 0.79653 0.55482 0.24288 0.0
C2250 C 0.77097 0.53954 0.24883 0.0
C2251 C 0.75937 0.51532 0.23878 0.0
C2252 C 0.76889 0.53651 0.27026 0.0
C2253 C 0.76084 0.55461 0.24195 0.0
C2254 C 0.7777 0.57478 0.23278 0.0
C2255 C 0.77228 0.59153 0.22563 0.0
C2256 C 0.74917 0.58768 0.22822 0.0
C2257 C 0.73195 0.56743 0.23813 0.0
C2258 C 0.73792 0.55062 0.24475 0.0
H2259 H 0.4821 0.2936 0.21199 0.0
H2260 H 0.40782 0.26381 0.2256 0.0
H2261 H 0.40002 0.22385 0.21551 0.0
H2262 H 0.47187 0.25314 0.17024 0.0
H2263 H 0.49844 0.25218 0.17557 0.0
H2264 H 0.49691 0.27859 0.18072 0.0
H2265 H 0.50765 0.27677 0.21547 0.0
H2266 H 0.50963 0.2508 0.21032 0.0
H2267 H 0.49005 0.24979 0.22863 0.0
H2268 H 0.40251 0.18645 0.20972 0.0
H2269 H 0.41536 0.15639 0.21041 0.0
H2270 H 0.48724 0.2114 0.19802 0.0
C2271 C 0.46413 0.27868 0.21242 0.0
C2272 C 0.44556 0.28145 0.21958 0.0
C2273 C 0.42221 0.2618 0.22004 0.0
C2274 C 0.41764 0.23916 0.21423 0.0
C2275 C 0.43652 0.23683 0.20744 0.0
C2276 C 0.45924 0.25626 0.20623 0.0
C2277 C 0.47693 0.24904 0.20012 0.0
C2278 C 0.4866 0.25882 0.18049 0.0
C2279 C 0.49722 0.25705 0.2145 0.0
C2280 C 0.46113 0.2223 0.19967 0.0
C2281 C 0.4377 0.21547 0.20338 0.0
C2282 C 0.42063 0.19157 0.20624 0.0
C2283 C 0.428 0.17453 0.20645 0.0
C2284 C 0.45223 0.18168 0.20407 0.0
C2285 C 0.46853 0.20552 0.19947 0.0
H2286 H 0.30155 0.8304 0.77404 0.0
H2287 H 0.27623 0.87877 0.76012 0.0
H2288 H 0.23467 0.84525 0.76138 0.0
H2289 H 0.26478 0.784 0.74742 0.0
H2290 H 0.25949 0.76068 0.76378 0.0
H2291 H 0.28644 0.78886 0.76523 0.0
H2292 H 0.27747 0.79349 0.79987 0.0
H2293 H 0.25053 0.76503 0.79864 0.0
H2294 H 0.24947 0.79109 0.80587 0.0
H2295 H 0.1964 0.80516 0.76007 0.0
H2296 H 0.16525 0.7627 0.75674 0.0
H2297 H 0.2166 0.74142 0.77115 0.0
C2298 C 0.28715 0.83397 0.77182 0.0
C2299 C 0.29182 0.85697 0.76709 0.0
C2300 C 0.27279 0.86121 0.76406 0.0
C2301 C 0.24922 0.8423 0.76473 0.0
C2302 C 0.24517 0.81954 0.7689 0.0
C2303 C 0.26367 0.81546 0.77278 0.0
C2304 C 0.25496 0.78931 0.77569 0.0
C2305 C 0.26713 0.7802 0.76221 0.0
C2306 C 0.25831 0.78445 0.79623 0.0
C2307 C 0.22899 0.77901 0.77113 0.0
C2308 C 0.22342 0.79667 0.7679 0.0
C2309 C 0.20052 0.79123 0.76285 0.0
C2310 C 0.18299 0.76716 0.76096 0.0
C2311 C 0.18872 0.74901 0.7636 0.0
C2312 C 0.2119 0.75506 0.76895 0.0
H2313 H 0.28083 0.44226 0.76324 0.0
H2314 H 0.33058 0.51349 0.78239 0.0
H2315 H 0.29761 0.52119 0.78789 0.0
H2316 H 0.24744 0.45661 0.7371 0.0
H2317 H 0.2187 0.43132 0.74212 0.0
H2318 H 0.24482 0.42877 0.74433 0.0
H2319 H 0.2342 0.41513 0.77877 0.0
H2320 H 0.20771 0.41724 0.77663 0.0
H2321 H 0.22876 0.43314 0.79502 0.0
H2322 H 0.2621 0.52476 0.78377 0.0
H2323 H 0.22483 0.5225 0.77323 0.0
H2324 H 0.19651 0.44849 0.75819 0.0
C2325 C 0.28445 0.45895 0.76951 0.0
C2326 C 0.30799 0.47717 0.77282 0.0
C2327 C 0.3125 0.49926 0.78017 0.0
C2328 C 0.29391 0.50376 0.78333 0.0
C2329 C 0.27089 0.4859 0.77913 0.0
C2330 C 0.26595 0.46372 0.77274 0.0
C2331 C 0.24009 0.44882 0.76707 0.0
C2332 C 0.23764 0.44094 0.74643 0.0
C2333 C 0.22691 0.42731 0.78016 0.0
C2334 C 0.23181 0.46669 0.76999 0.0
C2335 C 0.24981 0.48784 0.77721 0.0
C2336 C 0.24758 0.50806 0.77874 0.0
C2337 C 0.22649 0.50672 0.77261 0.0
C2338 C 0.20788 0.48525 0.76529 0.0
C2339 C 0.21035 0.46487 0.76431 0.0
H2340 H 0.56404 0.7507 0.72686 0.0
H2341 H 0.58851 0.74684 0.78256 0.0
H2342 H 0.58897 0.78409 0.79123 0.0
H2343 H 0.59878 0.81628 0.72311 0.0
H2344 H 0.5756 0.8173 0.71007 0.0
H2345 H 0.57954 0.7918 0.70808 0.0
H2346 H 0.53559 0.76422 0.71759 0.0
H2347 H 0.53157 0.78959 0.71976 0.0
H2348 H 0.52491 0.76965 0.73931 0.0
H2349 H 0.5841 0.82097 0.79405 0.0
H2350 H 0.57463 0.85343 0.79053 0.0
H2351 H 0.55269 0.83139 0.73317 0.0
C2352 C 0.56985 0.75787 0.74081 0.0
C2353 C 0.5763 0.74595 0.75402 0.0
C2354 C 0.58379 0.75588 0.77214 0.0
C2355 C 0.58401 0.77696 0.7772 0.0
C2356 C 0.57704 0.788 0.76387 0.0
C2357 C 0.57038 0.77886 0.74598 0.0
C2358 C 0.56295 0.79344 0.73433 0.0
C2359 C 0.58025 0.80541 0.71793 0.0
C2360 C 0.53723 0.77831 0.72736 0.0
C2361 C 0.56528 0.81157 0.74869 0.0
C2362 C 0.57389 0.80859 0.76557 0.0
C2363 C 0.57746 0.82349 0.78085 0.0
C2364 C 0.57204 0.84183 0.77876 0.0
C2365 C 0.56269 0.84465 0.76167 0.0
C2366 C 0.55946 0.82938 0.7465 0.0
H2367 H 0.51066 0.62629 0.59001 0.0
H2368 H 0.52614 0.63033 0.5306 0.0
H2369 H 0.49168 0.58955 0.52638 0.0
H2370 H 0.48999 0.56204 0.59527 0.0
H2371 H 0.46797 0.55845 0.61227 0.0
H2372 H 0.49538 0.58639 0.61052 0.0
H2373 H 0.47163 0.60829 0.60572 0.0
H2374 H 0.44422 0.58052 0.60732 0.0
H2375 H 0.45026 0.59911 0.58696 0.0
H2376 H 0.45254 0.54925 0.52883 0.0
H2377 H 0.41347 0.51472 0.53753 0.0
H2378 H 0.425 0.53897 0.5952 0.0
C2379 C 0.50701 0.61856 0.5761 0.0
C2380 C 0.52088 0.6315 0.56059 0.0
C2381 C 0.5157 0.62064 0.54268 0.0
C2382 C 0.4962 0.59751 0.54018 0.0
C2383 C 0.48249 0.58547 0.55581 0.0
C2384 C 0.48796 0.59565 0.57345 0.0
C2385 C 0.47006 0.57994 0.58792 0.0
C2386 C 0.48154 0.57119 0.60235 0.0
C2387 C 0.45835 0.59273 0.59753 0.0
C2388 C 0.45278 0.55981 0.57559 0.0
C2389 C 0.46037 0.56286 0.55718 0.0
C2390 C 0.44663 0.54663 0.54326 0.0
C2391 C 0.42451 0.52708 0.54831 0.0
C2392 C 0.41625 0.5243 0.56702 0.0
C2393 C 0.43082 0.54071 0.58077 0.0
H2394 H 0.40557 0.90006 0.5448 0.0
H2395 H 0.41672 0.93756 0.59732 0.0
H2396 H 0.45923 0.94958 0.59654 0.0
H2397 H 0.43723 0.87403 0.55505 0.0
H2398 H 0.45022 0.87619 0.5323 0.0
H2399 H 0.42275 0.87619 0.5342 0.0
H2400 H 0.44118 0.91622 0.51623 0.0
H2401 H 0.46889 0.91636 0.51436 0.0
H2402 H 0.46822 0.94136 0.52468 0.0
H2403 H 0.49785 0.95148 0.59319 0.0
H2404 H 0.52841 0.93989 0.58919 0.0
H2405 H 0.49227 0.89942 0.53969 0.0
C2406 C 0.41732 0.91164 0.55565 0.0
C2407 C 0.40831 0.91847 0.57089 0.0
C2408 C 0.42366 0.9327 0.58536 0.0
C2409 C 0.44779 0.93968 0.58495 0.0
C2410 C 0.45623 0.93225 0.56996 0.0
C2411 C 0.44147 0.91855 0.55551 0.0
C2412 C 0.45404 0.90977 0.54268 0.0
C2413 C 0.44024 0.88243 0.54099 0.0
C2414 C 0.45834 0.92163 0.52334 0.0
C2415 C 0.47724 0.9187 0.55316 0.0
C2416 C 0.47859 0.93263 0.56833 0.0
C2417 C 0.49731 0.94116 0.58109 0.0
C2418 C 0.51461 0.93458 0.5787 0.0
C2419 C 0.51279 0.91931 0.5639 0.0
C2420 C 0.49429 0.91177 0.55072 0.0
H2421 H 0.15015 0.63476 0.59317 0.0
H2422 H 0.1177 0.63136 0.53922 0.0
H2423 H 0.11307 0.59169 0.53362 0.0
H2424 H 0.18313 0.60745 0.57962 0.0
H2425 H 0.17813 0.59114 0.60118 0.0
H2426 H 0.17809 0.61885 0.60112 0.0
H2427 H 0.13606 0.59787 0.61586 0.0
H2428 H 0.13594 0.57004 0.61596 0.0
H2429 H 0.11239 0.57212 0.60446 0.0
H2430 H 0.11292 0.55275 0.53365 0.0
H2431 H 0.11775 0.51781 0.53911 0.0
H2432 H 0.15021 0.54703 0.59307 0.0
C2433 C 0.14211 0.62573 0.58015 0.0
C2434 C 0.13442 0.63622 0.56659 0.0
C2435 C 0.12373 0.62366 0.54983 0.0
C2436 C 0.12099 0.60112 0.54652 0.0
C2437 C 0.12883 0.59132 0.56019 0.0
C2438 C 0.13907 0.60318 0.57669 0.0
C2439 C 0.14611 0.58883 0.58909 0.0
C2440 C 0.17296 0.60238 0.59296 0.0
C2441 C 0.13177 0.5818 0.60743 0.0
C2442 C 0.13896 0.56737 0.5767 0.0
C2443 C 0.12873 0.56897 0.5602 0.0
C2444 C 0.12083 0.55126 0.54654 0.0
C2445 C 0.12363 0.53148 0.54979 0.0
C2446 C 0.13444 0.52971 0.56648 0.0
C2447 C 0.14201 0.54789 0.58011 0.0
loop_
_geom_bond_atom_site_label_1
_geom_bond_atom_site_label_2
_geom_bond_distance
_geom_bond_site_symmetry_2
_ccdc_geom_bond_type
Mg0 O1 2.028 . S
Mg0 O7 1.986 . S
Mg0 O9 2.114 . S
Mg0 O10 2.251 . S
Mg0 O13 2.010 . S
O1 Mg0 2.028 . S
O1 C4 1.250 1_455 S
O2 Mg3 2.028 . S
O2 C4 1.248 1_455 S
Mg3 O2 2.028 . S
Mg3 O8 2.032 . S
Mg3 O10 2.079 . S
C4 O1 1.250 1_655 S
C4 O2 1.248 1_655 S
C5 O6 1.264 . S
C5 O13 1.249 . S
O6 C5 1.264 . S
O7 Mg0 1.986 . S
O7 C11 1.246 . S
O8 Mg3 2.032 . S
O8 C11 1.259 . S
O9 Mg0 2.114 . S
O9 C12 1.252 . S
O10 Mg0 2.251 . S
O10 Mg3 2.079 . S
O10 C12 1.273 . S
C11 O7 1.246 . S
C11 O8 1.259 . S
C12 O9 1.252 . S
C12 O10 1.273 . S
O13 Mg0 2.010 . S
O13 C5 1.249 . S
Mg14 O15 2.028 . S
Mg14 O21 1.986 . S
Mg14 O23 2.114 . S
Mg14 O24 2.251 . S
Mg14 O27 2.010 . S
O15 Mg14 2.028 . S
O15 C18 1.250 . S
O16 Mg17 2.028 . S
O16 C18 1.248 . S
Mg17 O16 2.028 . S
Mg17 O22 2.032 . S
Mg17 O24 2.079 . S
C18 O15 1.250 . S
C18 O16 1.248 . S
C19 O20 1.264 . S
C19 O27 1.249 . S
O20 C19 1.264 . S
O21 Mg14 1.986 . S
O21 C25 1.246 . S
O22 Mg17 2.032 . S
O22 C25 1.259 . S
O23 Mg14 2.114 . S
O23 C26 1.252 . S
O24 Mg14 2.251 . S
O24 Mg17 2.079 . S
O24 C26 1.273 . S
C25 O21 1.246 . S
C25 O22 1.259 . S
C26 O23 1.252 . S
C26 O24 1.273 . S
O27 Mg14 2.010 . S
O27 C19 1.249 . S
Mg28 O29 2.028 . S
Mg28 O35 1.986 1_545 S
Mg28 O37 2.114 . S
Mg28 O38 2.251 . S
Mg28 O41 2.010 . S
O29 Mg28 2.028 . S
O29 C32 1.250 . S
O30 Mg31 2.028 . S
O30 C32 1.248 . S
Mg31 O30 2.028 . S
Mg31 O36 2.032 1_545 S
Mg31 O38 2.079 . S
C32 O29 1.250 . S
C32 O30 1.248 . S
C33 O34 1.264 . S
C33 O41 1.249 . S
O34 C33 1.264 . S
O35 Mg28 1.986 1_565 S
O35 C39 1.246 . S
O36 Mg31 2.032 1_565 S
O36 C39 1.259 . S
O37 Mg28 2.114 . S
O37 C40 1.252 . S
O38 Mg28 2.251 . S
O38 Mg31 2.079 . S
O38 C40 1.273 . S
C39 O35 1.246 . S
C39 O36 1.259 . S
C40 O37 1.252 . S
C40 O38 1.273 . S
O41 Mg28 2.010 . S
O41 C33 1.249 . S
Mg42 O43 2.028 . S
Mg42 O49 1.986 . S
Mg42 O51 2.114 . S
Mg42 O52 2.251 . S
Mg42 O55 2.010 . S
O43 Mg42 2.028 . S
O43 C46 1.250 1_545 S
O44 Mg45 2.028 . S
O44 C46 1.248 1_545 S
Mg45 O44 2.028 . S
Mg45 O50 2.032 . S
Mg45 O52 2.079 . S
C46 O43 1.250 1_565 S
C46 O44 1.248 1_565 S
C47 O48 1.264 . S
C47 O55 1.249 . S
O48 C47 1.264 . S
O49 Mg42 1.986 . S
O49 C53 1.246 . S
O50 Mg45 2.032 . S
O50 C53 1.259 . S
O51 Mg42 2.114 . S
O51 C54 1.252 . S
O52 Mg42 2.251 . S
O52 Mg45 2.079 . S
O52 C54 1.273 . S
C53 O49 1.246 . S
C53 O50 1.259 . S
C54 O51 1.252 . S
C54 O52 1.273 . S
O55 Mg42 2.010 . S
O55 C47 1.249 . S
Mg56 O57 2.028 . S
Mg56 O63 1.986 1_455 S
Mg56 O65 2.114 . S
Mg56 O66 2.251 . S
Mg56 O69 2.010 . S
O57 Mg56 2.028 . S
O57 C60 1.250 . S
O58 Mg59 2.028 . S
O58 C60 1.248 . S
Mg59 O58 2.028 . S
Mg59 O64 2.032 1_455 S
Mg59 O66 2.079 . S
C60 O57 1.250 . S
C60 O58 1.248 . S
C61 O62 1.264 . S
C61 O69 1.249 . S
O62 C61 1.264 . S
O63 Mg56 1.986 1_655 S
O63 C67 1.246 . S
O64 Mg59 2.032 1_655 S
O64 C67 1.259 . S
O65 Mg56 2.114 . S
O65 C68 1.252 . S
O66 Mg56 2.251 . S
O66 Mg59 2.079 . S
O66 C68 1.273 . S
C67 O63 1.246 . S
C67 O64 1.259 . S
C68 O65 1.252 . S
C68 O66 1.273 . S
O69 Mg56 2.010 . S
O69 C61 1.249 . S
Mg70 O71 2.028 . S
Mg70 O77 1.986 . S
Mg70 O79 2.114 . S
Mg70 O80 2.251 . S
Mg70 O83 2.010 . S
O71 Mg70 2.028 . S
O71 C74 1.250 . S
O72 Mg73 2.028 . S
O72 C74 1.248 . S
Mg73 O72 2.028 . S
Mg73 O78 2.032 . S
Mg73 O80 2.079 . S
C74 O71 1.250 . S
C74 O72 1.248 . S
C75 O76 1.264 . S
C75 O83 1.249 . S
O76 C75 1.264 . S
O77 Mg70 1.986 . S
O77 C81 1.246 . S
O78 Mg73 2.032 . S
O78 C81 1.259 . S
O79 Mg70 2.114 . S
O79 C82 1.252 . S
O80 Mg70 2.251 . S
O80 Mg73 2.079 . S
O80 C82 1.273 . S
C81 O77 1.246 . S
C81 O78 1.259 . S
C82 O79 1.252 . S
C82 O80 1.273 . S
O83 Mg70 2.010 . S
O83 C75 1.249 . S
Mg84 O85 2.028 . S
Mg84 O91 1.986 1_455 S
Mg84 O93 2.114 . S
Mg84 O94 2.251 . S
Mg84 O97 2.010 . S
O85 Mg84 2.028 . S
O85 C88 1.250 . S
O86 Mg87 2.028 . S
O86 C88 1.248 . S
Mg87 O86 2.028 . S
Mg87 O92 2.032 1_455 S
Mg87 O94 2.079 . S
C88 O85 1.250 . S
C88 O86 1.248 . S
C89 O90 1.264 . S
C89 O97 1.249 . S
O90 C89 1.264 . S
O91 Mg84 1.986 1_655 S
O91 C95 1.246 . S
O92 Mg87 2.032 1_655 S
O92 C95 1.259 . S
O93 Mg84 2.114 . S
O93 C96 1.252 . S
O94 Mg84 2.251 . S
O94 Mg87 2.079 . S
O94 C96 1.273 . S
C95 O91 1.246 . S
C95 O92 1.259 . S
C96 O93 1.252 . S
C96 O94 1.273 . S
O97 Mg84 2.010 . S
O97 C89 1.249 . S
Mg98 O99 2.028 . S
Mg98 O105 1.986 . S
Mg98 O107 2.114 . S
Mg98 O108 2.251 . S
Mg98 O111 2.010 . S
O99 Mg98 2.028 . S
O99 C102 1.250 . S
O100 Mg101 2.028 . S
O100 C102 1.248 . S
Mg101 O100 2.028 . S
Mg101 O106 2.032 . S
Mg101 O108 2.079 . S
C102 O99 1.250 . S
C102 O100 1.248 . S
C103 O104 1.264 . S
C103 O111 1.249 . S
O104 C103 1.264 . S
O105 Mg98 1.986 . S
O105 C109 1.246 . S
O106 Mg101 2.032 . S
O106 C109 1.259 . S
O107 Mg98 2.114 . S
O107 C110 1.252 . S
O108 Mg98 2.251 . S
O108 Mg101 2.079 . S
O108 C110 1.273 . S
C109 O105 1.246 . S
C109 O106 1.259 . S
C110 O107 1.252 . S
C110 O108 1.273 . S
O111 Mg98 2.010 . S
O111 C103 1.249 . S
Mg112 O113 2.028 . S
Mg112 O119 1.986 . S
Mg112 O121 2.114 . S
Mg112 O122 2.251 . S
Mg112 O125 2.010 . S
O113 Mg112 2.028 . S
O113 C116 1.250 1_545 S
O114 Mg115 2.028 . S
O114 C116 1.248 1_545 S
Mg115 O114 2.028 . S
Mg115 O120 2.032 . S
Mg115 O122 2.079 . S
C116 O113 1.250 1_565 S
C116 O114 1.248 1_565 S
C117 O118 1.264 . S
C117 O125 1.249 . S
O118 C117 1.264 . S
O119 Mg112 1.986 . S
O119 C123 1.246 . S
O120 Mg115 2.032 . S
O120 C123 1.259 . S
O121 Mg112 2.114 . S
O121 C124 1.252 . S
O122 Mg112 2.251 . S
O122 Mg115 2.079 . S
O122 C124 1.273 . S
C123 O119 1.246 . S
C123 O120 1.259 . S
C124 O121 1.252 . S
C124 O122 1.273 . S
O125 Mg112 2.010 . S
O125 C117 1.249 . S
Mg126 O127 2.028 . S
Mg126 O133 1.986 1_545 S
Mg126 O135 2.114 . S
Mg126 O136 2.251 . S
Mg126 O139 2.010 . S
O127 Mg126 2.028 . S
O127 C130 1.250 . S
O128 Mg129 2.028 . S
O128 C130 1.248 . S
Mg129 O128 2.028 . S
Mg129 O134 2.032 1_545 S
Mg129 O136 2.079 . S
C130 O127 1.250 . S
C130 O128 1.248 . S
C131 O132 1.264 . S
C131 O139 1.249 . S
O132 C131 1.264 . S
O133 Mg126 1.986 1_565 S
O133 C137 1.246 . S
O134 Mg129 2.032 1_565 S
O134 C137 1.259 . S
O135 Mg126 2.114 . S
O135 C138 1.252 . S
O136 Mg126 2.251 . S
O136 Mg129 2.079 . S
O136 C138 1.273 . S
C137 O133 1.246 . S
C137 O134 1.259 . S
C138 O135 1.252 . S
C138 O136 1.273 . S
O139 Mg126 2.010 . S
O139 C131 1.249 . S
Mg140 O141 2.028 . S
Mg140 O147 1.986 . S
Mg140 O149 2.114 . S
Mg140 O150 2.251 . S
Mg140 O153 2.010 . S
O141 Mg140 2.028 . S
O141 C144 1.250 1_455 S
O142 Mg143 2.028 . S
O142 C144 1.248 1_455 S
Mg143 O142 2.028 . S
Mg143 O148 2.032 . S
Mg143 O150 2.079 . S
C144 O141 1.250 1_655 S
C144 O142 1.248 1_655 S
C145 O146 1.264 . S
C145 O153 1.249 . S
O146 C145 1.264 . S
O147 Mg140 1.986 . S
O147 C151 1.246 . S
O148 Mg143 2.032 . S
O148 C151 1.259 . S
O149 Mg140 2.114 . S
O149 C152 1.252 . S
O150 Mg140 2.251 . S
O150 Mg143 2.079 . S
O150 C152 1.273 . S
C151 O147 1.246 . S
C151 O148 1.259 . S
C152 O149 1.252 . S
C152 O150 1.273 . S
O153 Mg140 2.010 . S
O153 C145 1.249 . S
Mg154 O155 2.028 . S
Mg154 O161 1.986 . S
Mg154 O163 2.114 . S
Mg154 O164 2.251 . S
Mg154 O167 2.010 . S
O155 Mg154 2.028 . S
O155 C158 1.250 . S
O156 Mg157 2.028 . S
O156 C158 1.248 . S
Mg157 O156 2.028 . S
Mg157 O162 2.032 . S
Mg157 O164 2.079 . S
C158 O155 1.250 . S
C158 O156 1.248 . S
C159 O160 1.264 . S
C159 O167 1.249 . S
O160 C159 1.264 . S
O161 Mg154 1.986 . S
O161 C165 1.246 . S
O162 Mg157 2.032 . S
O162 C165 1.259 . S
O163 Mg154 2.114 . S
O163 C166 1.252 . S
O164 Mg154 2.251 . S
O164 Mg157 2.079 . S
O164 C166 1.273 . S
C165 O161 1.246 . S
C165 O162 1.259 . S
C166 O163 1.252 . S
C166 O164 1.273 . S
O167 Mg154 2.010 . S
O167 C159 1.249 . S
Mg168 O169 2.028 . S
Mg168 O175 1.986 . S
Mg168 O177 2.114 . S
Mg168 O178 2.251 . S
Mg168 O181 2.010 . S
O169 Mg168 2.028 . S
O169 C172 1.250 . S
O170 Mg171 2.028 . S
O170 C172 1.248 . S
Mg171 O170 2.028 . S
Mg171 O176 2.032 . S
Mg171 O178 2.079 . S
C172 O169 1.250 . S
C172 O170 1.248 . S
C173 O174 1.264 . S
C173 O181 1.249 . S
O174 C173 1.264 . S
O175 Mg168 1.986 . S
O175 C179 1.246 . S
O176 Mg171 2.032 . S
O176 C179 1.259 . S
O177 Mg168 2.114 . S
O177 C180 1.252 . S
O178 Mg168 2.251 . S
O178 Mg171 2.079 . S
O178 C180 1.273 . S
C179 O175 1.246 . S
C179 O176 1.259 . S
C180 O177 1.252 . S
C180 O178 1.273 . S
O181 Mg168 2.010 . S
O181 C173 1.249 . S
Mg182 O183 2.028 . S
Mg182 O189 1.986 . S
Mg182 O191 2.114 . S
Mg182 O192 2.251 . S
Mg182 O195 2.010 . S
O183 Mg182 2.028 . S
O183 C186 1.250 . S
O184 Mg185 2.028 . S
O184 C186 1.248 . S
Mg185 O184 2.028 . S
Mg185 O190 2.032 . S
Mg185 O192 2.079 . S
C186 O183 1.250 . S
C186 O184 1.248 . S
C187 O188 1.264 . S
C187 O195 1.249 . S
O188 C187 1.264 . S
O189 Mg182 1.986 . S
O189 C193 1.246 . S
O190 Mg185 2.032 . S
O190 C193 1.259 . S
O191 Mg182 2.114 . S
O191 C194 1.252 . S
O192 Mg182 2.251 . S
O192 Mg185 2.079 . S
O192 C194 1.273 . S
C193 O189 1.246 . S
C193 O190 1.259 . S
C194 O191 1.252 . S
C194 O192 1.273 . S
O195 Mg182 2.010 . S
O195 C187 1.249 . S
Mg196 O197 2.028 . S
Mg196 O203 1.986 . S
Mg196 O205 2.114 . S
Mg196 O206 2.251 . S
Mg196 O209 2.010 . S
O197 Mg196 2.028 . S
O197 C200 1.250 . S
O198 Mg199 2.028 . S
O198 C200 1.248 . S
Mg199 O198 2.028 . S
Mg199 O204 2.032 . S
Mg199 O206 2.079 . S
C200 O197 1.250 . S
C200 O198 1.248 . S
C201 O202 1.264 . S
C201 O209 1.249 . S
O202 C201 1.264 . S
O203 Mg196 1.986 . S
O203 C207 1.246 . S
O204 Mg199 2.032 . S
O204 C207 1.259 . S
O205 Mg196 2.114 . S
O205 C208 1.252 . S
O206 Mg196 2.251 . S
O206 Mg199 2.079 . S
O206 C208 1.273 . S
C207 O203 1.246 . S
C207 O204 1.259 . S
C208 O205 1.252 . S
C208 O206 1.273 . S
O209 Mg196 2.010 . S
O209 C201 1.249 . S
Mg210 O211 2.028 . S
Mg210 O217 1.986 . S
Mg210 O219 2.114 . S
Mg210 O220 2.251 . S
Mg210 O223 2.010 . S
O211 Mg210 2.028 . S
O211 C214 1.250 . S
O212 Mg213 2.028 . S
O212 C214 1.248 . S
Mg213 O212 2.028 . S
Mg213 O218 2.032 . S
Mg213 O220 2.079 . S
C214 O211 1.250 . S
C214 O212 1.248 . S
C215 O216 1.264 . S
C215 O223 1.249 . S
O216 C215 1.264 . S
O217 Mg210 1.986 . S
O217 C221 1.246 . S
O218 Mg213 2.032 . S
O218 C221 1.259 . S
O219 Mg210 2.114 . S
O219 C222 1.252 . S
O220 Mg210 2.251 . S
O220 Mg213 2.079 . S
O220 C222 1.273 . S
C221 O217 1.246 . S
C221 O218 1.259 . S
C222 O219 1.252 . S
C222 O220 1.273 . S
O223 Mg210 2.010 . S
O223 C215 1.249 . S
Mg224 O225 2.028 . S
Mg224 O231 1.986 . S
Mg224 O233 2.114 . S
Mg224 O234 2.251 . S
Mg224 O237 2.010 . S
O225 Mg224 2.028 . S
O225 C228 1.250 . S
O226 Mg227 2.028 . S
O226 C228 1.248 . S
Mg227 O226 2.028 . S
Mg227 O232 2.032 . S
Mg227 O234 2.079 . S
C228 O225 1.250 . S
C228 O226 1.248 . S
C229 O230 1.264 . S
C229 O237 1.249 . S
O230 C229 1.264 . S
O231 Mg224 1.986 . S
O231 C235 1.246 . S
O232 Mg227 2.032 . S
O232 C235 1.259 . S
O233 Mg224 2.114 . S
O233 C236 1.252 . S
O234 Mg224 2.251 . S
O234 Mg227 2.079 . S
O234 C236 1.273 . S
C235 O231 1.246 . S
C235 O232 1.259 . S
C236 O233 1.252 . S
C236 O234 1.273 . S
O237 Mg224 2.010 . S
O237 C229 1.249 . S
Mg238 O239 2.028 . S
Mg238 O245 1.986 . S
Mg238 O247 2.114 . S
Mg238 O248 2.251 . S
Mg238 O251 2.010 . S
O239 Mg238 2.028 . S
O239 C242 1.250 . S
O240 Mg241 2.028 . S
O240 C242 1.248 . S
Mg241 O240 2.028 . S
Mg241 O246 2.032 . S
Mg241 O248 2.079 . S
C242 O239 1.250 . S
C242 O240 1.248 . S
C243 O244 1.264 . S
C243 O251 1.249 . S
O244 C243 1.264 . S
O245 Mg238 1.986 . S
O245 C249 1.246 . S
O246 Mg241 2.032 . S
O246 C249 1.259 . S
O247 Mg238 2.114 . S
O247 C250 1.252 . S
O248 Mg238 2.251 . S
O248 Mg241 2.079 . S
O248 C250 1.273 . S
C249 O245 1.246 . S
C249 O246 1.259 . S
C250 O247 1.252 . S
C250 O248 1.273 . S
O251 Mg238 2.010 . S
O251 C243 1.249 . S
Mg252 O253 2.028 . S
Mg252 O259 1.986 . S
Mg252 O261 2.114 . S
Mg252 O262 2.251 . S
Mg252 O265 2.010 . S
O253 Mg252 2.028 . S
O253 C256 1.250 . S
O254 Mg255 2.028 . S
O254 C256 1.248 . S
Mg255 O254 2.028 . S
Mg255 O260 2.032 . S
Mg255 O262 2.079 . S
C256 O253 1.250 . S
C256 O254 1.248 . S
C257 O258 1.264 . S
C257 O265 1.249 . S
O258 C257 1.264 . S
O259 Mg252 1.986 . S
O259 C263 1.246 . S
O260 Mg255 2.032 . S
O260 C263 1.259 . S
O261 Mg252 2.114 . S
O261 C264 1.252 . S
O262 Mg252 2.251 . S
O262 Mg255 2.079 . S
O262 C264 1.273 . S
C263 O259 1.246 . S
C263 O260 1.259 . S
C264 O261 1.252 . S
C264 O262 1.273 . S
O265 Mg252 2.010 . S
O265 C257 1.249 . S
Mg266 O267 2.028 . S
Mg266 O273 1.986 . S
Mg266 O275 2.114 . S
Mg266 O276 2.251 . S
Mg266 O279 2.010 . S
O267 Mg266 2.028 . S
O267 C270 1.250 . S
O268 Mg269 2.028 . S
O268 C270 1.248 . S
Mg269 O268 2.028 . S
Mg269 O274 2.032 . S
Mg269 O276 2.079 . S
C270 O267 1.250 . S
C270 O268 1.248 . S
C271 O272 1.264 . S
C271 O279 1.249 . S
O272 C271 1.264 . S
O273 Mg266 1.986 . S
O273 C277 1.246 . S
O274 Mg269 2.032 . S
O274 C277 1.259 . S
O275 Mg266 2.114 . S
O275 C278 1.252 . S
O276 Mg266 2.251 . S
O276 Mg269 2.079 . S
O276 C278 1.273 . S
C277 O273 1.246 . S
C277 O274 1.259 . S
C278 O275 1.252 . S
C278 O276 1.273 . S
O279 Mg266 2.010 . S
O279 C271 1.249 . S
Mg280 O281 2.028 . S
Mg280 O287 1.986 . S
Mg280 O289 2.114 . S
Mg280 O290 2.251 . S
Mg280 O293 2.010 . S
O281 Mg280 2.028 . S
O281 C284 1.250 . S
O282 Mg283 2.028 . S
O282 C284 1.248 . S
Mg283 O282 2.028 . S
Mg283 O288 2.032 . S
Mg283 O290 2.079 . S
C284 O281 1.250 . S
C284 O282 1.248 . S
C285 O286 1.264 . S
C285 O293 1.249 . S
O286 C285 1.264 . S
O287 Mg280 1.986 . S
O287 C291 1.246 . S
O288 Mg283 2.032 . S
O288 C291 1.259 . S
O289 Mg280 2.114 . S
O289 C292 1.252 . S
O290 Mg280 2.251 . S
O290 Mg283 2.079 . S
O290 C292 1.273 . S
C291 O287 1.246 . S
C291 O288 1.259 . S
C292 O289 1.252 . S
C292 O290 1.273 . S
O293 Mg280 2.010 . S
O293 C285 1.249 . S
Mg294 O295 2.028 . S
Mg294 O301 1.986 . S
Mg294 O303 2.114 . S
Mg294 O304 2.251 . S
Mg294 O307 2.010 . S
O295 Mg294 2.028 . S
O295 C298 1.250 . S
O296 Mg297 2.028 . S
O296 C298 1.248 . S
Mg297 O296 2.028 . S
Mg297 O302 2.032 . S
Mg297 O304 2.079 . S
C298 O295 1.250 . S
C298 O296 1.248 . S
C299 O300 1.264 . S
C299 O307 1.249 . S
O300 C299 1.264 . S
O301 Mg294 1.986 . S
O301 C305 1.246 . S
O302 Mg297 2.032 . S
O302 C305 1.259 . S
O303 Mg294 2.114 . S
O303 C306 1.252 . S
O304 Mg294 2.251 . S
O304 Mg297 2.079 . S
O304 C306 1.273 . S
C305 O301 1.246 . S
C305 O302 1.259 . S
C306 O303 1.252 . S
C306 O304 1.273 . S
O307 Mg294 2.010 . S
O307 C299 1.249 . S
Mg308 O309 2.028 . S
Mg308 O315 1.986 . S
Mg308 O317 2.114 . S
Mg308 O318 2.251 . S
Mg308 O321 2.010 . S
O309 Mg308 2.028 . S
O309 C312 1.250 . S
O310 Mg311 2.028 . S
O310 C312 1.248 . S
Mg311 O310 2.028 . S
Mg311 O316 2.032 . S
Mg311 O318 2.079 . S
C312 O309 1.250 . S
C312 O310 1.248 . S
C313 O314 1.264 . S
C313 O321 1.249 . S
O314 C313 1.264 . S
O315 Mg308 1.986 . S
O315 C319 1.246 . S
O316 Mg311 2.032 . S
O316 C319 1.259 . S
O317 Mg308 2.114 . S
O317 C320 1.252 . S
O318 Mg308 2.251 . S
O318 Mg311 2.079 . S
O318 C320 1.273 . S
C319 O315 1.246 . S
C319 O316 1.259 . S
C320 O317 1.252 . S
C320 O318 1.273 . S
O321 Mg308 2.010 . S
O321 C313 1.249 . S
Mg322 O323 2.028 . S
Mg322 O329 1.986 . S
Mg322 O331 2.114 . S
Mg322 O332 2.251 . S
Mg322 O335 2.010 . S
O323 Mg322 2.028 . S
O323 C326 1.250 . S
O324 Mg325 2.028 . S
O324 C326 1.248 . S
Mg325 O324 2.028 . S
Mg325 O330 2.032 . S
Mg325 O332 2.079 . S
C326 O323 1.250 . S
C326 O324 1.248 . S
C327 O328 1.264 . S
C327 O335 1.249 . S
O328 C327 1.264 . S
O329 Mg322 1.986 . S
O329 C333 1.246 . S
O330 Mg325 2.032 . S
O330 C333 1.259 . S
O331 Mg322 2.114 . S
O331 C334 1.252 . S
O332 Mg322 2.251 . S
O332 Mg325 2.079 . S
O332 C334 1.273 . S
C333 O329 1.246 . S
C333 O330 1.259 . S
C334 O331 1.252 . S
C334 O332 1.273 . S
O335 Mg322 2.010 . S
O335 C327 1.249 . S
Mg336 O337 2.028 . S
Mg336 O343 1.986 . S
Mg336 O345 2.114 . S
Mg336 O346 2.251 . S
Mg336 O349 2.010 . S
O337 Mg336 2.028 . S
O337 C340 1.250 . S
O338 Mg339 2.028 . S
O338 C340 1.248 . S
Mg339 O338 2.028 . S
Mg339 O344 2.032 . S
Mg339 O346 2.079 . S
C340 O337 1.250 . S
C340 O338 1.248 . S
C341 O342 1.264 . S
C341 O349 1.249 . S
O342 C341 1.264 . S
O343 Mg336 1.986 . S
O343 C347 1.246 . S
O344 Mg339 2.032 . S
O344 C347 1.259 . S
O345 Mg336 2.114 . S
O345 C348 1.252 . S
O346 Mg336 2.251 . S
O346 Mg339 2.079 . S
O346 C348 1.273 . S
C347 O343 1.246 . S
C347 O344 1.259 . S
C348 O345 1.252 . S
C348 O346 1.273 . S
O349 Mg336 2.010 . S
O349 C341 1.249 . S
Mg350 O351 2.028 . S
Mg350 O357 1.986 . S
Mg350 O359 2.114 . S
Mg350 O360 2.251 . S
Mg350 O363 2.010 . S
O351 Mg350 2.028 . S
O351 C354 1.250 . S
O352 Mg353 2.028 . S
O352 C354 1.248 . S
Mg353 O352 2.028 . S
Mg353 O358 2.032 . S
Mg353 O360 2.079 . S
C354 O351 1.250 . S
C354 O352 1.248 . S
C355 O356 1.264 . S
C355 O363 1.249 . S
O356 C355 1.264 . S
O357 Mg350 1.986 . S
O357 C361 1.246 . S
O358 Mg353 2.032 . S
O358 C361 1.259 . S
O359 Mg350 2.114 . S
O359 C362 1.252 . S
O360 Mg350 2.251 . S
O360 Mg353 2.079 . S
O360 C362 1.273 . S
C361 O357 1.246 . S
C361 O358 1.259 . S
C362 O359 1.252 . S
C362 O360 1.273 . S
O363 Mg350 2.010 . S
O363 C355 1.249 . S
Mg364 O365 2.028 . S
Mg364 O371 1.986 . S
Mg364 O373 2.114 . S
Mg364 O374 2.251 . S
Mg364 O377 2.010 . S
O365 Mg364 2.028 . S
O365 C368 1.250 . S
O366 Mg367 2.028 . S
O366 C368 1.248 . S
Mg367 O366 2.028 . S
Mg367 O372 2.032 . S
Mg367 O374 2.079 . S
C368 O365 1.250 . S
C368 O366 1.248 . S
C369 O370 1.264 . S
C369 O377 1.249 . S
O370 C369 1.264 . S
O371 Mg364 1.986 . S
O371 C375 1.246 . S
O372 Mg367 2.032 . S
O372 C375 1.259 . S
O373 Mg364 2.114 . S
O373 C376 1.252 . S
O374 Mg364 2.251 . S
O374 Mg367 2.079 . S
O374 C376 1.273 . S
C375 O371 1.246 . S
C375 O372 1.259 . S
C376 O373 1.252 . S
C376 O374 1.273 . S
O377 Mg364 2.010 . S
O377 C369 1.249 . S
Mg378 O379 2.028 . S
Mg378 O385 1.986 . S
Mg378 O387 2.114 . S
Mg378 O388 2.251 . S
Mg378 O391 2.010 . S
O379 Mg378 2.028 . S
O379 C382 1.250 . S
O380 Mg381 2.028 . S
O380 C382 1.248 . S
Mg381 O380 2.028 . S
Mg381 O386 2.032 . S
Mg381 O388 2.079 . S
C382 O379 1.250 . S
C382 O380 1.248 . S
C383 O384 1.264 . S
C383 O391 1.249 . S
O384 C383 1.264 . S
O385 Mg378 1.986 . S
O385 C389 1.246 . S
O386 Mg381 2.032 . S
O386 C389 1.259 . S
O387 Mg378 2.114 . S
O387 C390 1.252 . S
O388 Mg378 2.251 . S
O388 Mg381 2.079 . S
O388 C390 1.273 . S
C389 O385 1.246 . S
C389 O386 1.259 . S
C390 O387 1.252 . S
C390 O388 1.273 . S
O391 Mg378 2.010 . S
O391 C383 1.249 . S
Mg392 O393 2.028 . S
Mg392 O399 1.986 . S
Mg392 O401 2.114 . S
Mg392 O402 2.251 . S
Mg392 O405 2.010 . S
O393 Mg392 2.028 . S
O393 C396 1.250 . S
O394 Mg395 2.028 . S
O394 C396 1.248 . S
Mg395 O394 2.028 . S
Mg395 O400 2.032 . S
Mg395 O402 2.079 . S
C396 O393 1.250 . S
C396 O394 1.248 . S
C397 O398 1.264 . S
C397 O405 1.249 . S
O398 C397 1.264 . S
O399 Mg392 1.986 . S
O399 C403 1.246 . S
O400 Mg395 2.032 . S
O400 C403 1.259 . S
O401 Mg392 2.114 . S
O401 C404 1.252 . S
O402 Mg392 2.251 . S
O402 Mg395 2.079 . S
O402 C404 1.273 . S
C403 O399 1.246 . S
C403 O400 1.259 . S
C404 O401 1.252 . S
C404 O402 1.273 . S
O405 Mg392 2.010 . S
O405 C397 1.249 . S
Mg406 O407 2.028 . S
Mg406 O413 1.986 . S
Mg406 O415 2.114 . S
Mg406 O416 2.251 . S
Mg406 O419 2.010 . S
O407 Mg406 2.028 . S
O407 C410 1.250 . S
O408 Mg409 2.028 . S
O408 C410 1.248 . S
Mg409 O408 2.028 . S
Mg409 O414 2.032 . S
Mg409 O416 2.079 . S
C410 O407 1.250 . S
C410 O408 1.248 . S
C411 O412 1.264 . S
C411 O419 1.249 . S
O412 C411 1.264 . S
O413 Mg406 1.986 . S
O413 C417 1.246 . S
O414 Mg409 2.032 . S
O414 C417 1.259 . S
O415 Mg406 2.114 . S
O415 C418 1.252 . S
O416 Mg406 2.251 . S
O416 Mg409 2.079 . S
O416 C418 1.273 . S
C417 O413 1.246 . S
C417 O414 1.259 . S
C418 O415 1.252 . S
C418 O416 1.273 . S
O419 Mg406 2.010 . S
O419 C411 1.249 . S
Mg420 O421 2.028 . S
Mg420 O427 1.986 . S
Mg420 O429 2.114 . S
Mg420 O430 2.251 . S
Mg420 O433 2.010 . S
O421 Mg420 2.028 . S
O421 C424 1.250 . S
O422 Mg423 2.028 . S
O422 C424 1.248 . S
Mg423 O422 2.028 . S
Mg423 O428 2.032 . S
Mg423 O430 2.079 . S
C424 O421 1.250 . S
C424 O422 1.248 . S
C425 O426 1.264 . S
C425 O433 1.249 . S
O426 C425 1.264 . S
O427 Mg420 1.986 . S
O427 C431 1.246 . S
O428 Mg423 2.032 . S
O428 C431 1.259 . S
O429 Mg420 2.114 . S
O429 C432 1.252 . S
O430 Mg420 2.251 . S
O430 Mg423 2.079 . S
O430 C432 1.273 . S
C431 O427 1.246 . S
C431 O428 1.259 . S
C432 O429 1.252 . S
C432 O430 1.273 . S
O433 Mg420 2.010 . S
O433 C425 1.249 . S
Mg434 O435 2.028 . S
Mg434 O441 1.986 . S
Mg434 O443 2.114 . S
Mg434 O444 2.251 . S
Mg434 O447 2.010 . S
O435 Mg434 2.028 . S
O435 C438 1.250 . S
O436 Mg437 2.028 . S
O436 C438 1.248 . S
Mg437 O436 2.028 . S
Mg437 O442 2.032 . S
Mg437 O444 2.079 . S
C438 O435 1.250 . S
C438 O436 1.248 . S
C439 O440 1.264 . S
C439 O447 1.249 . S
O440 C439 1.264 . S
O441 Mg434 1.986 . S
O441 C445 1.246 . S
O442 Mg437 2.032 . S
O442 C445 1.259 . S
O443 Mg434 2.114 . S
O443 C446 1.252 . S
O444 Mg434 2.251 . S
O444 Mg437 2.079 . S
O444 C446 1.273 . S
C445 O441 1.246 . S
C445 O442 1.259 . S
C446 O443 1.252 . S
C446 O444 1.273 . S
O447 Mg434 2.010 . S
O447 C439 1.249 . S
Mg448 O449 2.028 . S
Mg448 O455 1.986 . S
Mg448 O457 2.114 . S
Mg448 O458 2.251 . S
Mg448 O461 2.010 . S
O449 Mg448 2.028 . S
O449 C452 1.250 . S
O450 Mg451 2.028 . S
O450 C452 1.248 . S
Mg451 O450 2.028 . S
Mg451 O456 2.032 . S
Mg451 O458 2.079 . S
C452 O449 1.250 . S
C452 O450 1.248 . S
C453 O454 1.264 . S
C453 O461 1.249 . S
O454 C453 1.264 . S
O455 Mg448 1.986 . S
O455 C459 1.246 . S
O456 Mg451 2.032 . S
O456 C459 1.259 . S
O457 Mg448 2.114 . S
O457 C460 1.252 . S
O458 Mg448 2.251 . S
O458 Mg451 2.079 . S
O458 C460 1.273 . S
C459 O455 1.246 . S
C459 O456 1.259 . S
C460 O457 1.252 . S
C460 O458 1.273 . S
O461 Mg448 2.010 . S
O461 C453 1.249 . S
Mg462 O463 2.028 . S
Mg462 O469 1.986 . S
Mg462 O471 2.114 . S
Mg462 O472 2.251 . S
Mg462 O475 2.010 . S
O463 Mg462 2.028 . S
O463 C466 1.250 . S
O464 Mg465 2.028 . S
O464 C466 1.248 . S
Mg465 O464 2.028 . S
Mg465 O470 2.032 . S
Mg465 O472 2.079 . S
C466 O463 1.250 . S
C466 O464 1.248 . S
C467 O468 1.264 . S
C467 O475 1.249 . S
O468 C467 1.264 . S
O469 Mg462 1.986 . S
O469 C473 1.246 . S
O470 Mg465 2.032 . S
O470 C473 1.259 . S
O471 Mg462 2.114 . S
O471 C474 1.252 . S
O472 Mg462 2.251 . S
O472 Mg465 2.079 . S
O472 C474 1.273 . S
C473 O469 1.246 . S
C473 O470 1.259 . S
C474 O471 1.252 . S
C474 O472 1.273 . S
O475 Mg462 2.010 . S
O475 C467 1.249 . S
Mg476 O477 2.028 . S
Mg476 O483 1.986 . S
Mg476 O485 2.114 . S
Mg476 O486 2.251 . S
Mg476 O489 2.010 . S
O477 Mg476 2.028 . S
O477 C480 1.250 . S
O478 Mg479 2.028 . S
O478 C480 1.248 . S
Mg479 O478 2.028 . S
Mg479 O484 2.032 . S
Mg479 O486 2.079 . S
C480 O477 1.250 . S
C480 O478 1.248 . S
C481 O482 1.264 . S
C481 O489 1.249 . S
O482 C481 1.264 . S
O483 Mg476 1.986 . S
O483 C487 1.246 . S
O484 Mg479 2.032 . S
O484 C487 1.259 . S
O485 Mg476 2.114 . S
O485 C488 1.252 . S
O486 Mg476 2.251 . S
O486 Mg479 2.079 . S
O486 C488 1.273 . S
C487 O483 1.246 . S
C487 O484 1.259 . S
C488 O485 1.252 . S
C488 O486 1.273 . S
O489 Mg476 2.010 . S
O489 C481 1.249 . S
Mg490 O491 2.028 . S
Mg490 O497 1.986 . S
Mg490 O499 2.114 . S
Mg490 O500 2.251 . S
Mg490 O503 2.010 . S
O491 Mg490 2.028 . S
O491 C494 1.250 . S
O492 Mg493 2.028 . S
O492 C494 1.248 . S
Mg493 O492 2.028 . S
Mg493 O498 2.032 . S
Mg493 O500 2.079 . S
C494 O491 1.250 . S
C494 O492 1.248 . S
C495 O496 1.264 . S
C495 O503 1.249 . S
O496 C495 1.264 . S
O497 Mg490 1.986 . S
O497 C501 1.246 . S
O498 Mg493 2.032 . S
O498 C501 1.259 . S
O499 Mg490 2.114 . S
O499 C502 1.252 . S
O500 Mg490 2.251 . S
O500 Mg493 2.079 . S
O500 C502 1.273 . S
C501 O497 1.246 . S
C501 O498 1.259 . S
C502 O499 1.252 . S
C502 O500 1.273 . S
O503 Mg490 2.010 . S
O503 C495 1.249 . S
H504 C516 0.930 . S
H505 C518 0.930 . S
H506 C519 0.930 . S
H507 C523 0.959 . S
H508 C523 0.959 . S
H509 C523 0.961 . S
H510 C524 0.960 . S
H511 C524 0.961 . S
H512 C524 0.959 . S
H513 C527 0.929 . S
H514 C528 0.931 . S
H515 C530 0.930 . S
C516 H504 0.930 . S
C516 C517 1.399 . S
C516 C521 1.399 . S
C517 C516 1.399 . S
C517 C518 1.376 . S
C518 H505 0.930 . S
C518 C517 1.376 . S
C518 C519 1.388 . S
C519 H506 0.930 . S
C519 C518 1.388 . S
C519 C520 1.390 . S
C520 C519 1.390 . S
C520 C521 1.394 . S
C520 C526 1.465 . S
C521 C516 1.399 . S
C521 C520 1.394 . S
C521 C522 1.516 . S
C522 C521 1.516 . S
C522 C523 1.502 . S
C522 C524 1.561 . S
C522 C525 1.526 . S
C523 H507 0.959 . S
C523 H508 0.959 . S
C523 H509 0.961 . S
C523 C522 1.502 . S
C524 H510 0.960 . S
C524 H511 0.961 . S
C524 H512 0.959 . S
C524 C522 1.561 . S
C525 C522 1.526 . S
C525 C526 1.396 . S
C525 C530 1.390 . S
C526 C520 1.465 . S
C526 C525 1.396 . S
C526 C527 1.399 . S
C527 H513 0.929 . S
C527 C526 1.399 . S
C527 C528 1.385 . S
C528 H514 0.931 . S
C528 C527 1.385 . S
C528 C529 1.389 . S
C529 C528 1.389 . S
C529 C530 1.387 . S
C530 H515 0.930 . S
C530 C525 1.390 . S
C530 C529 1.387 . S
H531 C543 0.930 . S
H532 C545 0.930 . S
H533 C546 0.930 . S
H534 C550 0.959 . S
H535 C550 0.959 . S
H536 C550 0.961 . S
H537 C551 0.960 . S
H538 C551 0.961 . S
H539 C551 0.959 . S
H540 C554 0.929 . S
H541 C555 0.931 . S
H542 C557 0.930 . S
C543 H531 0.930 . S
C543 C544 1.399 . S
C543 C548 1.399 . S
C544 C543 1.399 . S
C544 C545 1.376 . S
C545 H532 0.930 . S
C545 C544 1.376 . S
C545 C546 1.388 . S
C546 H533 0.930 . S
C546 C545 1.388 . S
C546 C547 1.390 . S
C547 C546 1.390 . S
C547 C548 1.394 . S
C547 C553 1.465 . S
C548 C543 1.399 . S
C548 C547 1.394 . S
C548 C549 1.516 . S
C549 C548 1.516 . S
C549 C550 1.502 . S
C549 C551 1.561 . S
C549 C552 1.526 . S
C550 H534 0.959 . S
C550 H535 0.959 . S
C550 H536 0.961 . S
C550 C549 1.502 . S
C551 H537 0.960 . S
C551 H538 0.961 . S
C551 H539 0.959 . S
C551 C549 1.561 . S
C552 C549 1.526 . S
C552 C553 1.396 . S
C552 C557 1.390 . S
C553 C547 1.465 . S
C553 C552 1.396 . S
C553 C554 1.399 . S
C554 H540 0.929 . S
C554 C553 1.399 . S
C554 C555 1.385 . S
C555 H541 0.931 . S
C555 C554 1.385 . S
C555 C556 1.389 . S
C556 C555 1.389 . S
C556 C557 1.387 . S
C557 H542 0.930 . S
C557 C552 1.390 . S
C557 C556 1.387 . S
H558 C570 0.930 . S
H559 C572 0.930 . S
H560 C573 0.930 . S
H561 C577 0.959 . S
H562 C577 0.959 . S
H563 C577 0.961 . S
H564 C578 0.960 . S
H565 C578 0.961 . S
H566 C578 0.959 . S
H567 C581 0.929 . S
H568 C582 0.931 . S
H569 C584 0.930 . S
C570 H558 0.930 . S
C570 C571 1.399 . S
C570 C575 1.399 . S
C571 C570 1.399 . S
C571 C572 1.376 . S
C572 H559 0.930 . S
C572 C571 1.376 . S
C572 C573 1.388 . S
C573 H560 0.930 . S
C573 C572 1.388 . S
C573 C574 1.390 . S
C574 C573 1.390 . S
C574 C575 1.394 . S
C574 C580 1.465 . S
C575 C570 1.399 . S
C575 C574 1.394 . S
C575 C576 1.516 . S
C576 C575 1.516 . S
C576 C577 1.502 . S
C576 C578 1.561 . S
C576 C579 1.526 . S
C577 H561 0.959 . S
C577 H562 0.959 . S
C577 H563 0.961 . S
C577 C576 1.502 . S
C578 H564 0.960 . S
C578 H565 0.961 . S
C578 H566 0.959 . S
C578 C576 1.561 . S
C579 C576 1.526 . S
C579 C580 1.396 . S
C579 C584 1.390 . S
C580 C574 1.465 . S
C580 C579 1.396 . S
C580 C581 1.399 . S
C581 H567 0.929 . S
C581 C580 1.399 . S
C581 C582 1.385 . S
C582 H568 0.931 . S
C582 C581 1.385 . S
C582 C583 1.389 . S
C583 C582 1.389 . S
C583 C584 1.387 . S
C584 H569 0.930 . S
C584 C579 1.390 . S
C584 C583 1.387 . S
H585 C597 0.930 . S
H586 C599 0.930 . S
H587 C600 0.930 . S
H588 C604 0.959 . S
H589 C604 0.959 . S
H590 C604 0.961 . S
H591 C605 0.960 . S
H592 C605 0.961 . S
H593 C605 0.959 . S
H594 C608 0.929 . S
H595 C609 0.931 . S
H596 C611 0.930 . S
C597 H585 0.930 . S
C597 C598 1.399 . S
C597 C602 1.399 . S
C598 C597 1.399 . S
C598 C599 1.376 . S
C599 H586 0.930 . S
C599 C598 1.376 . S
C599 C600 1.388 . S
C600 H587 0.930 . S
C600 C599 1.388 . S
C600 C601 1.390 . S
C601 C600 1.390 . S
C601 C602 1.394 . S
C601 C607 1.465 . S
C602 C597 1.399 . S
C602 C601 1.394 . S
C602 C603 1.516 . S
C603 C602 1.516 . S
C603 C604 1.502 . S
C603 C605 1.561 . S
C603 C606 1.526 . S
C604 H588 0.959 . S
C604 H589 0.959 . S
C604 H590 0.961 . S
C604 C603 1.502 . S
C605 H591 0.960 . S
C605 H592 0.961 . S
C605 H593 0.959 . S
C605 C603 1.561 . S
C606 C603 1.526 . S
C606 C607 1.396 . S
C606 C611 1.390 . S
C607 C601 1.465 . S
C607 C606 1.396 . S
C607 C608 1.399 . S
C608 H594 0.929 . S
C608 C607 1.399 . S
C608 C609 1.385 . S
C609 H595 0.931 . S
C609 C608 1.385 . S
C609 C610 1.389 . S
C610 C609 1.389 . S
C610 C611 1.387 . S
C611 H596 0.930 . S
C611 C606 1.390 . S
C611 C610 1.387 . S
H612 C624 0.930 . S
H613 C626 0.930 . S
H614 C627 0.930 . S
H615 C631 0.959 . S
H616 C631 0.959 . S
H617 C631 0.961 . S
H618 C632 0.960 . S
H619 C632 0.961 . S
H620 C632 0.959 . S
H621 C635 0.929 . S
H622 C636 0.931 . S
H623 C638 0.930 . S
C624 H612 0.930 . S
C624 C625 1.399 . S
C624 C629 1.399 . S
C625 C624 1.399 . S
C625 C626 1.376 . S
C626 H613 0.930 . S
C626 C625 1.376 . S
C626 C627 1.388 . S
C627 H614 0.930 . S
C627 C626 1.388 . S
C627 C628 1.390 . S
C628 C627 1.390 . S
C628 C629 1.394 . S
C628 C634 1.465 . S
C629 C624 1.399 . S
C629 C628 1.394 . S
C629 C630 1.516 . S
C630 C629 1.516 . S
C630 C631 1.502 . S
C630 C632 1.561 . S
C630 C633 1.526 . S
C631 H615 0.959 . S
C631 H616 0.959 . S
C631 H617 0.961 . S
C631 C630 1.502 . S
C632 H618 0.960 . S
C632 H619 0.961 . S
C632 H620 0.959 . S
C632 C630 1.561 . S
C633 C630 1.526 . S
C633 C634 1.396 . S
C633 C638 1.390 . S
C634 C628 1.465 . S
C634 C633 1.396 . S
C634 C635 1.399 . S
C635 H621 0.929 . S
C635 C634 1.399 . S
C635 C636 1.385 . S
C636 H622 0.931 . S
C636 C635 1.385 . S
C636 C637 1.389 . S
C637 C636 1.389 . S
C637 C638 1.387 . S
C638 H623 0.930 . S
C638 C633 1.390 . S
C638 C637 1.387 . S
H639 C651 0.930 . S
H640 C653 0.930 . S
H641 C654 0.930 . S
H642 C658 0.959 . S
H643 C658 0.959 . S
H644 C658 0.961 . S
H645 C659 0.960 . S
H646 C659 0.961 . S
H647 C659 0.959 . S
H648 C662 0.929 . S
H649 C663 0.931 . S
H650 C665 0.930 . S
C651 H639 0.930 . S
C651 C652 1.399 . S
C651 C656 1.399 . S
C652 C651 1.399 . S
C652 C653 1.376 . S
C653 H640 0.930 . S
C653 C652 1.376 . S
C653 C654 1.388 . S
C654 H641 0.930 . S
C654 C653 1.388 . S
C654 C655 1.390 . S
C655 C654 1.390 . S
C655 C656 1.394 . S
C655 C661 1.465 . S
C656 C651 1.399 . S
C656 C655 1.394 . S
C656 C657 1.516 . S
C657 C656 1.516 . S
C657 C658 1.502 . S
C657 C659 1.561 . S
C657 C660 1.526 . S
C658 H642 0.959 . S
C658 H643 0.959 . S
C658 H644 0.961 . S
C658 C657 1.502 . S
C659 H645 0.960 . S
C659 H646 0.961 . S
C659 H647 0.959 . S
C659 C657 1.561 . S
C660 C657 1.526 . S
C660 C661 1.396 . S
C660 C665 1.390 . S
C661 C655 1.465 . S
C661 C660 1.396 . S
C661 C662 1.399 . S
C662 H648 0.929 . S
C662 C661 1.399 . S
C662 C663 1.385 . S
C663 H649 0.931 . S
C663 C662 1.385 . S
C663 C664 1.389 . S
C664 C663 1.389 . S
C664 C665 1.387 . S
C665 H650 0.930 . S
C665 C660 1.390 . S
C665 C664 1.387 . S
H666 C678 0.930 . S
H667 C680 0.930 . S
H668 C681 0.930 . S
H669 C685 0.959 . S
H670 C685 0.959 . S
H671 C685 0.961 . S
H672 C686 0.960 . S
H673 C686 0.961 . S
H674 C686 0.959 . S
H675 C689 0.929 . S
H676 C690 0.931 . S
H677 C692 0.930 . S
C678 H666 0.930 . S
C678 C679 1.399 . S
C678 C683 1.399 . S
C679 C678 1.399 . S
C679 C680 1.376 . S
C680 H667 0.930 . S
C680 C679 1.376 . S
C680 C681 1.388 . S
C681 H668 0.930 . S
C681 C680 1.388 . S
C681 C682 1.390 . S
C682 C681 1.390 . S
C682 C683 1.394 . S
C682 C688 1.465 . S
C683 C678 1.399 . S
C683 C682 1.394 . S
C683 C684 1.516 . S
C684 C683 1.516 . S
C684 C685 1.502 . S
C684 C686 1.561 . S
C684 C687 1.526 . S
C685 H669 0.959 . S
C685 H670 0.959 . S
C685 H671 0.961 . S
C685 C684 1.502 . S
C686 H672 0.960 . S
C686 H673 0.961 . S
C686 H674 0.959 . S
C686 C684 1.561 . S
C687 C684 1.526 . S
C687 C688 1.396 . S
C687 C692 1.390 . S
C688 C682 1.465 . S
C688 C687 1.396 . S
C688 C689 1.399 . S
C689 H675 0.929 . S
C689 C688 1.399 . S
C689 C690 1.385 . S
C690 H676 0.931 . S
C690 C689 1.385 . S
C690 C691 1.389 . S
C691 C690 1.389 . S
C691 C692 1.387 . S
C692 H677 0.930 . S
C692 C687 1.390 . S
C692 C691 1.387 . S
H693 C705 0.930 . S
H694 C707 0.930 . S
H695 C708 0.930 . S
H696 C712 0.959 . S
H697 C712 0.959 . S
H698 C712 0.961 . S
H699 C713 0.960 . S
H700 C713 0.961 . S
H701 C713 0.959 . S
H702 C716 0.929 . S
H703 C717 0.931 . S
H704 C719 0.930 . S
C705 H693 0.930 . S
C705 C706 1.399 . S
C705 C710 1.399 . S
C706 C705 1.399 . S
C706 C707 1.376 . S
C707 H694 0.930 . S
C707 C706 1.376 . S
C707 C708 1.388 . S
C708 H695 0.930 . S
C708 C707 1.388 . S
C708 C709 1.390 . S
C709 C708 1.390 . S
C709 C710 1.394 . S
C709 C715 1.465 . S
C710 C705 1.399 . S
C710 C709 1.394 . S
C710 C711 1.516 . S
C711 C710 1.516 . S
C711 C712 1.502 . S
C711 C713 1.561 . S
C711 C714 1.526 . S
C712 H696 0.959 . S
C712 H697 0.959 . S
C712 H698 0.961 . S
C712 C711 1.502 . S
C713 H699 0.960 . S
C713 H700 0.961 . S
C713 H701 0.959 . S
C713 C711 1.561 . S
C714 C711 1.526 . S
C714 C715 1.396 . S
C714 C719 1.390 . S
C715 C709 1.465 . S
C715 C714 1.396 . S
C715 C716 1.399 . S
C716 H702 0.929 . S
C716 C715 1.399 . S
C716 C717 1.385 . S
C717 H703 0.931 . S
C717 C716 1.385 . S
C717 C718 1.389 . S
C718 C717 1.389 . S
C718 C719 1.387 . S
C719 H704 0.930 . S
C719 C714 1.390 . S
C719 C718 1.387 . S
H720 C732 0.930 . S
H721 C734 0.930 . S
H722 C735 0.930 . S
H723 C739 0.959 . S
H724 C739 0.959 . S
H725 C739 0.961 . S
H726 C740 0.960 . S
H727 C740 0.961 . S
H728 C740 0.959 . S
H729 C743 0.929 . S
H730 C744 0.931 . S
H731 C746 0.930 . S
C732 H720 0.930 . S
C732 C733 1.399 . S
C732 C737 1.399 . S
C733 C732 1.399 . S
C733 C734 1.376 . S
C734 H721 0.930 . S
C734 C733 1.376 . S
C734 C735 1.388 . S
C735 H722 0.930 . S
C735 C734 1.388 . S
C735 C736 1.390 . S
C736 C735 1.390 . S
C736 C737 1.394 . S
C736 C742 1.465 . S
C737 C732 1.399 . S
C737 C736 1.394 . S
C737 C738 1.516 . S
C738 C737 1.516 . S
C738 C739 1.502 . S
C738 C740 1.561 . S
C738 C741 1.526 . S
C739 H723 0.959 . S
C739 H724 0.959 . S
C739 H725 0.961 . S
C739 C738 1.502 . S
C740 H726 0.960 . S
C740 H727 0.961 . S
C740 H728 0.959 . S
C740 C738 1.561 . S
C741 C738 1.526 . S
C741 C742 1.396 . S
C741 C746 1.390 . S
C742 C736 1.465 . S
C742 C741 1.396 . S
C742 C743 1.399 . S
C743 H729 0.929 . S
C743 C742 1.399 . S
C743 C744 1.385 . S
C744 H730 0.931 . S
C744 C743 1.385 . S
C744 C745 1.389 . S
C745 C744 1.389 . S
C745 C746 1.387 . S
C746 H731 0.930 . S
C746 C741 1.390 . S
C746 C745 1.387 . S
H747 C759 0.930 . S
H748 C761 0.930 . S
H749 C762 0.930 . S
H750 C766 0.959 . S
H751 C766 0.959 . S
H752 C766 0.961 . S
H753 C767 0.960 . S
H754 C767 0.961 . S
H755 C767 0.959 . S
H756 C770 0.929 . S
H757 C771 0.931 . S
H758 C773 0.930 . S
C759 H747 0.930 . S
C759 C760 1.399 . S
C759 C764 1.399 . S
C760 C759 1.399 . S
C760 C761 1.376 . S
C761 H748 0.930 . S
C761 C760 1.376 . S
C761 C762 1.388 . S
C762 H749 0.930 . S
C762 C761 1.388 . S
C762 C763 1.390 . S
C763 C762 1.390 . S
C763 C764 1.394 . S
C763 C769 1.465 . S
C764 C759 1.399 . S
C764 C763 1.394 . S
C764 C765 1.516 . S
C765 C764 1.516 . S
C765 C766 1.502 . S
C765 C767 1.561 . S
C765 C768 1.526 . S
C766 H750 0.959 . S
C766 H751 0.959 . S
C766 H752 0.961 . S
C766 C765 1.502 . S
C767 H753 0.960 . S
C767 H754 0.961 . S
C767 H755 0.959 . S
C767 C765 1.561 . S
C768 C765 1.526 . S
C768 C769 1.396 . S
C768 C773 1.390 . S
C769 C763 1.465 . S
C769 C768 1.396 . S
C769 C770 1.399 . S
C770 H756 0.929 . S
C770 C769 1.399 . S
C770 C771 1.385 . S
C771 H757 0.931 . S
C771 C770 1.385 . S
C771 C772 1.389 . S
C772 C771 1.389 . S
C772 C773 1.387 . S
C773 H758 0.930 . S
C773 C768 1.390 . S
C773 C772 1.387 . S
H774 C786 0.930 . S
H775 C788 0.930 . S
H776 C789 0.930 . S
H777 C793 0.959 . S
H778 C793 0.959 . S
H779 C793 0.961 . S
H780 C794 0.960 . S
H781 C794 0.961 . S
H782 C794 0.959 . S
H783 C797 0.929 . S
H784 C798 0.931 . S
H785 C800 0.930 . S
C786 H774 0.930 . S
C786 C787 1.399 . S
C786 C791 1.399 . S
C787 C786 1.399 . S
C787 C788 1.376 . S
C788 H775 0.930 . S
C788 C787 1.376 . S
C788 C789 1.388 . S
C789 H776 0.930 . S
C789 C788 1.388 . S
C789 C790 1.390 . S
C790 C789 1.390 . S
C790 C791 1.394 . S
C790 C796 1.465 . S
C791 C786 1.399 . S
C791 C790 1.394 . S
C791 C792 1.516 . S
C792 C791 1.516 . S
C792 C793 1.502 . S
C792 C794 1.561 . S
C792 C795 1.526 . S
C793 H777 0.959 . S
C793 H778 0.959 . S
C793 H779 0.961 . S
C793 C792 1.502 . S
C794 H780 0.960 . S
C794 H781 0.961 . S
C794 H782 0.959 . S
C794 C792 1.561 . S
C795 C792 1.526 . S
C795 C796 1.396 . S
C795 C800 1.390 . S
C796 C790 1.465 . S
C796 C795 1.396 . S
C796 C797 1.399 . S
C797 H783 0.929 . S
C797 C796 1.399 . S
C797 C798 1.385 . S
C798 H784 0.931 . S
C798 C797 1.385 . S
C798 C799 1.389 . S
C799 C798 1.389 . S
C799 C800 1.387 . S
C800 H785 0.930 . S
C800 C795 1.390 . S
C800 C799 1.387 . S
H801 C813 0.930 . S
H802 C815 0.930 . S
H803 C816 0.930 . S
H804 C820 0.959 . S
H805 C820 0.959 . S
H806 C820 0.961 . S
H807 C821 0.960 . S
H808 C821 0.961 . S
H809 C821 0.959 . S
H810 C824 0.929 . S
H811 C825 0.931 . S
H812 C827 0.930 . S
C813 H801 0.930 . S
C813 C814 1.399 . S
C813 C818 1.399 . S
C814 C813 1.399 . S
C814 C815 1.376 . S
C815 H802 0.930 . S
C815 C814 1.376 . S
C815 C816 1.388 . S
C816 H803 0.930 . S
C816 C815 1.388 . S
C816 C817 1.390 . S
C817 C816 1.390 . S
C817 C818 1.394 . S
C817 C823 1.465 . S
C818 C813 1.399 . S
C818 C817 1.394 . S
C818 C819 1.516 . S
C819 C818 1.516 . S
C819 C820 1.502 . S
C819 C821 1.561 . S
C819 C822 1.526 . S
C820 H804 0.959 . S
C820 H805 0.959 . S
C820 H806 0.961 . S
C820 C819 1.502 . S
C821 H807 0.960 . S
C821 H808 0.961 . S
C821 H809 0.959 . S
C821 C819 1.561 . S
C822 C819 1.526 . S
C822 C823 1.396 . S
C822 C827 1.390 . S
C823 C817 1.465 . S
C823 C822 1.396 . S
C823 C824 1.399 . S
C824 H810 0.929 . S
C824 C823 1.399 . S
C824 C825 1.385 . S
C825 H811 0.931 . S
C825 C824 1.385 . S
C825 C826 1.389 . S
C826 C825 1.389 . S
C826 C827 1.387 . S
C827 H812 0.930 . S
C827 C822 1.390 . S
C827 C826 1.387 . S
H828 C840 0.930 . S
H829 C842 0.930 . S
H830 C843 0.930 . S
H831 C847 0.959 . S
H832 C847 0.959 . S
H833 C847 0.961 . S
H834 C848 0.960 . S
H835 C848 0.961 . S
H836 C848 0.959 . S
H837 C851 0.929 . S
H838 C852 0.931 . S
H839 C854 0.930 . S
C840 H828 0.930 . S
C840 C841 1.399 . S
C840 C845 1.399 . S
C841 C840 1.399 . S
C841 C842 1.376 . S
C842 H829 0.930 . S
C842 C841 1.376 . S
C842 C843 1.388 . S
C843 H830 0.930 . S
C843 C842 1.388 . S
C843 C844 1.390 . S
C844 C843 1.390 . S
C844 C845 1.394 . S
C844 C850 1.465 . S
C845 C840 1.399 . S
C845 C844 1.394 . S
C845 C846 1.516 . S
C846 C845 1.516 . S
C846 C847 1.502 . S
C846 C848 1.561 . S
C846 C849 1.526 . S
C847 H831 0.959 . S
C847 H832 0.959 . S
C847 H833 0.961 . S
C847 C846 1.502 . S
C848 H834 0.960 . S
C848 H835 0.961 . S
C848 H836 0.959 . S
C848 C846 1.561 . S
C849 C846 1.526 . S
C849 C850 1.396 . S
C849 C854 1.390 . S
C850 C844 1.465 . S
C850 C849 1.396 . S
C850 C851 1.399 . S
C851 H837 0.929 . S
C851 C850 1.399 . S
C851 C852 1.385 . S
C852 H838 0.931 . S
C852 C851 1.385 . S
C852 C853 1.389 . S
C853 C852 1.389 . S
C853 C854 1.387 . S
C854 H839 0.930 . S
C854 C849 1.390 . S
C854 C853 1.387 . S
H855 C867 0.930 . S
H856 C869 0.930 . S
H857 C870 0.930 . S
H858 C874 0.959 . S
H859 C874 0.959 . S
H860 C874 0.961 . S
H861 C875 0.960 . S
H862 C875 0.961 . S
H863 C875 0.959 . S
H864 C878 0.929 . S
H865 C879 0.931 . S
H866 C881 0.930 . S
C867 H855 0.930 . S
C867 C868 1.399 . S
C867 C872 1.399 . S
C868 C867 1.399 . S
C868 C869 1.376 . S
C869 H856 0.930 . S
C869 C868 1.376 . S
C869 C870 1.388 . S
C870 H857 0.930 . S
C870 C869 1.388 . S
C870 C871 1.390 . S
C871 C870 1.390 . S
C871 C872 1.394 . S
C871 C877 1.465 . S
C872 C867 1.399 . S
C872 C871 1.394 . S
C872 C873 1.516 . S
C873 C872 1.516 . S
C873 C874 1.502 . S
C873 C875 1.561 . S
C873 C876 1.526 . S
C874 H858 0.959 . S
C874 H859 0.959 . S
C874 H860 0.961 . S
C874 C873 1.502 . S
C875 H861 0.960 . S
C875 H862 0.961 . S
C875 H863 0.959 . S
C875 C873 1.561 . S
C876 C873 1.526 . S
C876 C877 1.396 . S
C876 C881 1.390 . S
C877 C871 1.465 . S
C877 C876 1.396 . S
C877 C878 1.399 . S
C878 H864 0.929 . S
C878 C877 1.399 . S
C878 C879 1.385 . S
C879 H865 0.931 . S
C879 C878 1.385 . S
C879 C880 1.389 . S
C880 C879 1.389 . S
C880 C881 1.387 . S
C881 H866 0.930 . S
C881 C876 1.390 . S
C881 C880 1.387 . S
H882 C894 0.930 . S
H883 C896 0.930 . S
H884 C897 0.930 . S
H885 C901 0.959 . S
H886 C901 0.959 . S
H887 C901 0.961 . S
H888 C902 0.960 . S
H889 C902 0.961 . S
H890 C902 0.959 . S
H891 C905 0.929 . S
H892 C906 0.931 . S
H893 C908 0.930 . S
C894 H882 0.930 . S
C894 C895 1.399 . S
C894 C899 1.399 . S
C895 C894 1.399 . S
C895 C896 1.376 . S
C896 H883 0.930 . S
C896 C895 1.376 . S
C896 C897 1.388 . S
C897 H884 0.930 . S
C897 C896 1.388 . S
C897 C898 1.390 . S
C898 C897 1.390 . S
C898 C899 1.394 . S
C898 C904 1.465 . S
C899 C894 1.399 . S
C899 C898 1.394 . S
C899 C900 1.516 . S
C900 C899 1.516 . S
C900 C901 1.502 . S
C900 C902 1.561 . S
C900 C903 1.526 . S
C901 H885 0.959 . S
C901 H886 0.959 . S
C901 H887 0.961 . S
C901 C900 1.502 . S
C902 H888 0.960 . S
C902 H889 0.961 . S
C902 H890 0.959 . S
C902 C900 1.561 . S
C903 C900 1.526 . S
C903 C904 1.396 . S
C903 C908 1.390 . S
C904 C898 1.465 . S
C904 C903 1.396 . S
C904 C905 1.399 . S
C905 H891 0.929 . S
C905 C904 1.399 . S
C905 C906 1.385 . S
C906 H892 0.931 . S
C906 C905 1.385 . S
C906 C907 1.389 . S
C907 C906 1.389 . S
C907 C908 1.387 . S
C908 H893 0.930 . S
C908 C903 1.390 . S
C908 C907 1.387 . S
H909 C921 0.930 . S
H910 C923 0.930 . S
H911 C924 0.930 . S
H912 C928 0.959 . S
H913 C928 0.959 . S
H914 C928 0.961 . S
H915 C929 0.960 . S
H916 C929 0.961 . S
H917 C929 0.959 . S
H918 C932 0.929 . S
H919 C933 0.931 . S
H920 C935 0.930 . S
C921 H909 0.930 . S
C921 C922 1.399 . S
C921 C926 1.399 . S
C922 C921 1.399 . S
C922 C923 1.376 . S
C923 H910 0.930 . S
C923 C922 1.376 . S
C923 C924 1.388 . S
C924 H911 0.930 . S
C924 C923 1.388 . S
C924 C925 1.390 . S
C925 C924 1.390 . S
C925 C926 1.394 . S
C925 C931 1.465 . S
C926 C921 1.399 . S
C926 C925 1.394 . S
C926 C927 1.516 . S
C927 C926 1.516 . S
C927 C928 1.502 . S
C927 C929 1.561 . S
C927 C930 1.526 . S
C928 H912 0.959 . S
C928 H913 0.959 . S
C928 H914 0.961 . S
C928 C927 1.502 . S
C929 H915 0.960 . S
C929 H916 0.961 . S
C929 H917 0.959 . S
C929 C927 1.561 . S
C930 C927 1.526 . S
C930 C931 1.396 . S
C930 C935 1.390 . S
C931 C925 1.465 . S
C931 C930 1.396 . S
C931 C932 1.399 . S
C932 H918 0.929 . S
C932 C931 1.399 . S
C932 C933 1.385 . S
C933 H919 0.931 . S
C933 C932 1.385 . S
C933 C934 1.389 . S
C934 C933 1.389 . S
C934 C935 1.387 . S
C935 H920 0.930 . S
C935 C930 1.390 . S
C935 C934 1.387 . S
H936 C948 0.930 . S
H937 C950 0.930 . S
H938 C951 0.930 . S
H939 C955 0.959 . S
H940 C955 0.959 . S
H941 C955 0.961 . S
H942 C956 0.960 . S
H943 C956 0.961 . S
H944 C956 0.959 . S
H945 C959 0.929 . S
H946 C960 0.931 . S
H947 C962 0.930 . S
C948 H936 0.930 . S
C948 C949 1.399 . S
C948 C953 1.399 . S
C949 C948 1.399 . S
C949 C950 1.376 . S
C950 H937 0.930 . S
C950 C949 1.376 . S
C950 C951 1.388 . S
C951 H938 0.930 . S
C951 C950 1.388 . S
C951 C952 1.390 . S
C952 C951 1.390 . S
C952 C953 1.394 . S
C952 C958 1.465 . S
C953 C948 1.399 . S
C953 C952 1.394 . S
C953 C954 1.516 . S
C954 C953 1.516 . S
C954 C955 1.502 . S
C954 C956 1.561 . S
C954 C957 1.526 . S
C955 H939 0.959 . S
C955 H940 0.959 . S
C955 H941 0.961 . S
C955 C954 1.502 . S
C956 H942 0.960 . S
C956 H943 0.961 . S
C956 H944 0.959 . S
C956 C954 1.561 . S
C957 C954 1.526 . S
C957 C958 1.396 . S
C957 C962 1.390 . S
C958 C952 1.465 . S
C958 C957 1.396 . S
C958 C959 1.399 . S
C959 H945 0.929 . S
C959 C958 1.399 . S
C959 C960 1.385 . S
C960 H946 0.931 . S
C960 C959 1.385 . S
C960 C961 1.389 . S
C961 C960 1.389 . S
C961 C962 1.387 . S
C962 H947 0.930 . S
C962 C957 1.390 . S
C962 C961 1.387 . S
H963 C975 0.930 . S
H964 C977 0.930 . S
H965 C978 0.930 . S
H966 C982 0.959 . S
H967 C982 0.959 . S
H968 C982 0.961 . S
H969 C983 0.960 . S
H970 C983 0.961 . S
H971 C983 0.959 . S
H972 C986 0.929 . S
H973 C987 0.931 . S
H974 C989 0.930 . S
C975 H963 0.930 . S
C975 C976 1.399 . S
C975 C980 1.399 . S
C976 C975 1.399 . S
C976 C977 1.376 . S
C977 H964 0.930 . S
C977 C976 1.376 . S
C977 C978 1.388 . S
C978 H965 0.930 . S
C978 C977 1.388 . S
C978 C979 1.390 . S
C979 C978 1.390 . S
C979 C980 1.394 . S
C979 C985 1.465 . S
C980 C975 1.399 . S
C980 C979 1.394 . S
C980 C981 1.516 . S
C981 C980 1.516 . S
C981 C982 1.502 . S
C981 C983 1.561 . S
C981 C984 1.526 . S
C982 H966 0.959 . S
C982 H967 0.959 . S
C982 H968 0.961 . S
C982 C981 1.502 . S
C983 H969 0.960 . S
C983 H970 0.961 . S
C983 H971 0.959 . S
C983 C981 1.561 . S
C984 C981 1.526 . S
C984 C985 1.396 . S
C984 C989 1.390 . S
C985 C979 1.465 . S
C985 C984 1.396 . S
C985 C986 1.399 . S
C986 H972 0.929 . S
C986 C985 1.399 . S
C986 C987 1.385 . S
C987 H973 0.931 . S
C987 C986 1.385 . S
C987 C988 1.389 . S
C988 C987 1.389 . S
C988 C989 1.387 . S
C989 H974 0.930 . S
C989 C984 1.390 . S
C989 C988 1.387 . S
H990 C1002 0.930 . S
H991 C1004 0.930 . S
H992 C1005 0.930 . S
H993 C1009 0.959 . S
H994 C1009 0.959 . S
H995 C1009 0.961 . S
H996 C1010 0.960 . S
H997 C1010 0.961 . S
H998 C1010 0.959 1_655 S
H999 C1013 0.929 . S
H1000 C1014 0.931 . S
H1001 C1016 0.930 . S
C1002 H990 0.930 . S
C1002 C1003 1.399 . S
C1002 C1007 1.382 1_455 S
C1003 C1002 1.399 . S
C1003 C1004 1.376 1_455 S
C1004 H991 0.930 . S
C1004 C1003 1.376 1_655 S
C1004 C1005 1.388 . S
C1005 H992 0.930 . S
C1005 C1004 1.388 . S
C1005 C1006 1.390 . S
C1006 C1005 1.390 . S
C1006 C1007 1.408 . S
C1006 C1012 1.465 . S
C1007 C1002 1.382 1_655 S
C1007 C1006 1.408 . S
C1007 C1008 1.522 1_655 S
C1008 C1007 1.522 1_455 S
C1008 C1009 1.502 . S
C1008 C1010 1.561 . S
C1008 C1011 1.526 1_455 S
C1009 H993 0.959 . S
C1009 H994 0.959 . S
C1009 H995 0.961 . S
C1009 C1008 1.502 . S
C1010 H996 0.960 . S
C1010 H997 0.961 . S
C1010 H998 0.959 1_455 S
C1010 C1008 1.561 . S
C1011 C1008 1.526 1_655 S
C1011 C1012 1.396 . S
C1011 C1016 1.390 . S
C1012 C1006 1.465 . S
C1012 C1011 1.396 . S
C1012 C1013 1.399 . S
C1013 H999 0.929 . S
C1013 C1012 1.399 . S
C1013 C1014 1.385 . S
C1014 H1000 0.931 . S
C1014 C1013 1.385 . S
C1014 C1015 1.389 . S
C1015 C1014 1.389 . S
C1015 C1016 1.387 . S
C1016 H1001 0.930 . S
C1016 C1011 1.390 . S
C1016 C1015 1.387 . S
H1017 C1029 0.930 . S
H1018 C1031 0.930 . S
H1019 C1032 0.930 . S
H1020 C1036 0.959 . S
H1021 C1036 0.959 . S
H1022 C1036 0.961 . S
H1023 C1037 0.960 . S
H1024 C1037 0.961 . S
H1025 C1037 0.959 . S
H1026 C1040 0.929 . S
H1027 C1041 0.931 . S
H1028 C1043 0.930 . S
C1029 H1017 0.930 . S
C1029 C1030 1.399 . S
C1029 C1034 1.399 . S
C1030 C1029 1.399 . S
C1030 C1031 1.376 . S
C1031 H1018 0.930 . S
C1031 C1030 1.376 . S
C1031 C1032 1.388 . S
C1032 H1019 0.930 . S
C1032 C1031 1.388 . S
C1032 C1033 1.390 . S
C1033 C1032 1.390 . S
C1033 C1034 1.394 . S
C1033 C1039 1.465 . S
C1034 C1029 1.399 . S
C1034 C1033 1.394 . S
C1034 C1035 1.516 . S
C1035 C1034 1.516 . S
C1035 C1036 1.502 . S
C1035 C1037 1.561 . S
C1035 C1038 1.526 . S
C1036 H1020 0.959 . S
C1036 H1021 0.959 . S
C1036 H1022 0.961 . S
C1036 C1035 1.502 . S
C1037 H1023 0.960 . S
C1037 H1024 0.961 . S
C1037 H1025 0.959 . S
C1037 C1035 1.561 . S
C1038 C1035 1.526 . S
C1038 C1039 1.396 . S
C1038 C1043 1.390 . S
C1039 C1033 1.465 . S
C1039 C1038 1.396 . S
C1039 C1040 1.399 . S
C1040 H1026 0.929 . S
C1040 C1039 1.399 . S
C1040 C1041 1.385 . S
C1041 H1027 0.931 . S
C1041 C1040 1.385 . S
C1041 C1042 1.389 . S
C1042 C1041 1.389 . S
C1042 C1043 1.387 . S
C1043 H1028 0.930 . S
C1043 C1038 1.390 . S
C1043 C1042 1.387 . S
H1044 C1056 0.930 . S
H1045 C1058 0.930 . S
H1046 C1059 0.930 . S
H1047 C1063 0.959 . S
H1048 C1063 0.959 . S
H1049 C1063 0.961 . S
H1050 C1064 0.960 . S
H1051 C1064 0.961 . S
H1052 C1064 0.959 . S
H1053 C1067 0.929 . S
H1054 C1068 0.931 . S
H1055 C1070 0.930 . S
C1056 H1044 0.930 . S
C1056 C1057 1.399 . S
C1056 C1061 1.399 . S
C1057 C1056 1.399 . S
C1057 C1058 1.376 . S
C1058 H1045 0.930 . S
C1058 C1057 1.376 . S
C1058 C1059 1.388 . S
C1059 H1046 0.930 . S
C1059 C1058 1.388 . S
C1059 C1060 1.390 . S
C1060 C1059 1.390 . S
C1060 C1061 1.394 . S
C1060 C1066 1.465 . S
C1061 C1056 1.399 . S
C1061 C1060 1.394 . S
C1061 C1062 1.516 . S
C1062 C1061 1.516 . S
C1062 C1063 1.502 . S
C1062 C1064 1.561 . S
C1062 C1065 1.526 . S
C1063 H1047 0.959 . S
C1063 H1048 0.959 . S
C1063 H1049 0.961 . S
C1063 C1062 1.502 . S
C1064 H1050 0.960 . S
C1064 H1051 0.961 . S
C1064 H1052 0.959 . S
C1064 C1062 1.561 . S
C1065 C1062 1.526 . S
C1065 C1066 1.396 . S
C1065 C1070 1.390 . S
C1066 C1060 1.465 . S
C1066 C1065 1.396 . S
C1066 C1067 1.399 . S
C1067 H1053 0.929 . S
C1067 C1066 1.399 . S
C1067 C1068 1.385 . S
C1068 H1054 0.931 . S
C1068 C1067 1.385 . S
C1068 C1069 1.389 . S
C1069 C1068 1.389 . S
C1069 C1070 1.387 . S
C1070 H1055 0.930 . S
C1070 C1065 1.390 . S
C1070 C1069 1.387 . S
H1071 C1083 0.930 . S
H1072 C1085 0.930 . S
H1073 C1086 0.930 . S
H1074 C1090 0.959 . S
H1075 C1090 0.959 . S
H1076 C1090 0.961 . S
H1077 C1091 0.960 . S
H1078 C1091 0.961 . S
H1079 C1091 0.959 . S
H1080 C1094 0.929 1_545 S
H1081 C1095 0.931 . S
H1082 C1097 0.930 . S
C1083 H1071 0.930 . S
C1083 C1084 1.399 1_565 S
C1083 C1088 1.399 . S
C1084 C1083 1.399 1_545 S
C1084 C1085 1.376 . S
C1085 H1072 0.930 . S
C1085 C1084 1.376 . S
C1085 C1086 1.388 . S
C1086 H1073 0.930 . S
C1086 C1085 1.388 . S
C1086 C1087 1.390 1_545 S
C1087 C1086 1.390 1_565 S
C1087 C1088 1.394 . S
C1087 C1093 1.465 . S
C1088 C1083 1.399 . S
C1088 C1087 1.394 . S
C1088 C1089 1.516 . S
C1089 C1088 1.516 . S
C1089 C1090 1.502 . S
C1089 C1091 1.561 . S
C1089 C1092 1.526 . S
C1090 H1074 0.959 . S
C1090 H1075 0.959 . S
C1090 H1076 0.961 . S
C1090 C1089 1.502 . S
C1091 H1077 0.960 . S
C1091 H1078 0.961 . S
C1091 H1079 0.959 . S
C1091 C1089 1.561 . S
C1092 C1089 1.526 . S
C1092 C1093 1.396 . S
C1092 C1097 1.390 . S
C1093 C1087 1.465 . S
C1093 C1092 1.396 . S
C1093 C1094 1.399 . S
C1094 H1080 0.929 1_565 S
C1094 C1093 1.399 . S
C1094 C1095 1.385 . S
C1095 H1081 0.931 . S
C1095 C1094 1.385 . S
C1095 C1096 1.389 . S
C1096 C1095 1.389 . S
C1096 C1097 1.387 . S
C1097 H1082 0.930 . S
C1097 C1092 1.390 . S
C1097 C1096 1.387 . S
H1098 C1110 0.930 . S
H1099 C1112 0.930 . S
H1100 C1113 0.930 . S
H1101 C1117 0.959 . S
H1102 C1117 0.959 . S
H1103 C1117 0.961 . S
H1104 C1118 0.960 . S
H1105 C1118 0.961 . S
H1106 C1118 0.959 . S
H1107 C1121 0.929 . S
H1108 C1122 0.931 . S
H1109 C1124 0.930 . S
C1110 H1098 0.930 . S
C1110 C1111 1.399 . S
C1110 C1115 1.399 . S
C1111 C1110 1.399 . S
C1111 C1112 1.376 . S
C1112 H1099 0.930 . S
C1112 C1111 1.376 . S
C1112 C1113 1.388 . S
C1113 H1100 0.930 . S
C1113 C1112 1.388 . S
C1113 C1114 1.390 . S
C1114 C1113 1.390 . S
C1114 C1115 1.394 . S
C1114 C1120 1.465 . S
C1115 C1110 1.399 . S
C1115 C1114 1.394 . S
C1115 C1116 1.516 . S
C1116 C1115 1.516 . S
C1116 C1117 1.502 . S
C1116 C1118 1.561 . S
C1116 C1119 1.526 . S
C1117 H1101 0.959 . S
C1117 H1102 0.959 . S
C1117 H1103 0.961 . S
C1117 C1116 1.502 . S
C1118 H1104 0.960 . S
C1118 H1105 0.961 . S
C1118 H1106 0.959 . S
C1118 C1116 1.561 . S
C1119 C1116 1.526 . S
C1119 C1120 1.396 . S
C1119 C1124 1.390 . S
C1120 C1114 1.465 . S
C1120 C1119 1.396 . S
C1120 C1121 1.399 . S
C1121 H1107 0.929 . S
C1121 C1120 1.399 . S
C1121 C1122 1.385 . S
C1122 H1108 0.931 . S
C1122 C1121 1.385 . S
C1122 C1123 1.389 . S
C1123 C1122 1.389 . S
C1123 C1124 1.387 . S
C1124 H1109 0.930 . S
C1124 C1119 1.390 . S
C1124 C1123 1.387 . S
H1125 C1137 0.930 . S
H1126 C1139 0.930 . S
H1127 C1140 0.930 . S
H1128 C1144 0.959 . S
H1129 C1144 0.959 . S
H1130 C1144 0.961 . S
H1131 C1145 0.960 . S
H1132 C1145 0.961 . S
H1133 C1145 0.959 . S
H1134 C1148 0.929 . S
H1135 C1149 0.931 . S
H1136 C1151 0.930 . S
C1137 H1125 0.930 . S
C1137 C1138 1.399 . S
C1137 C1142 1.399 . S
C1138 C1137 1.399 . S
C1138 C1139 1.376 . S
C1139 H1126 0.930 . S
C1139 C1138 1.376 . S
C1139 C1140 1.388 . S
C1140 H1127 0.930 . S
C1140 C1139 1.388 . S
C1140 C1141 1.390 . S
C1141 C1140 1.390 . S
C1141 C1142 1.394 . S
C1141 C1147 1.465 . S
C1142 C1137 1.399 . S
C1142 C1141 1.394 . S
C1142 C1143 1.516 . S
C1143 C1142 1.516 . S
C1143 C1144 1.502 . S
C1143 C1145 1.561 . S
C1143 C1146 1.526 . S
C1144 H1128 0.959 . S
C1144 H1129 0.959 . S
C1144 H1130 0.961 . S
C1144 C1143 1.502 . S
C1145 H1131 0.960 . S
C1145 H1132 0.961 . S
C1145 H1133 0.959 . S
C1145 C1143 1.561 . S
C1146 C1143 1.526 . S
C1146 C1147 1.396 . S
C1146 C1151 1.390 . S
C1147 C1141 1.465 . S
C1147 C1146 1.396 . S
C1147 C1148 1.399 . S
C1148 H1134 0.929 . S
C1148 C1147 1.399 . S
C1148 C1149 1.385 . S
C1149 H1135 0.931 . S
C1149 C1148 1.385 . S
C1149 C1150 1.389 . S
C1150 C1149 1.389 . S
C1150 C1151 1.387 . S
C1151 H1136 0.930 . S
C1151 C1146 1.390 . S
C1151 C1150 1.387 . S
H1152 C1164 0.930 . S
H1153 C1166 0.930 . S
H1154 C1167 0.930 . S
H1155 C1171 0.959 . S
H1156 C1171 0.959 . S
H1157 C1171 0.961 . S
H1158 C1172 0.960 . S
H1159 C1172 0.961 . S
H1160 C1172 0.959 . S
H1161 C1175 0.929 . S
H1162 C1176 0.931 . S
H1163 C1178 0.930 . S
C1164 H1152 0.930 . S
C1164 C1165 1.399 . S
C1164 C1169 1.399 . S
C1165 C1164 1.399 . S
C1165 C1166 1.376 . S
C1166 H1153 0.930 . S
C1166 C1165 1.376 . S
C1166 C1167 1.388 . S
C1167 H1154 0.930 . S
C1167 C1166 1.388 . S
C1167 C1168 1.390 . S
C1168 C1167 1.390 . S
C1168 C1169 1.394 . S
C1168 C1174 1.465 . S
C1169 C1164 1.399 . S
C1169 C1168 1.394 . S
C1169 C1170 1.516 . S
C1170 C1169 1.516 . S
C1170 C1171 1.502 . S
C1170 C1172 1.561 . S
C1170 C1173 1.526 . S
C1171 H1155 0.959 . S
C1171 H1156 0.959 . S
C1171 H1157 0.961 . S
C1171 C1170 1.502 . S
C1172 H1158 0.960 . S
C1172 H1159 0.961 . S
C1172 H1160 0.959 . S
C1172 C1170 1.561 . S
C1173 C1170 1.526 . S
C1173 C1174 1.396 . S
C1173 C1178 1.390 . S
C1174 C1168 1.465 . S
C1174 C1173 1.396 . S
C1174 C1175 1.399 . S
C1175 H1161 0.929 . S
C1175 C1174 1.399 . S
C1175 C1176 1.385 . S
C1176 H1162 0.931 . S
C1176 C1175 1.385 . S
C1176 C1177 1.389 . S
C1177 C1176 1.389 . S
C1177 C1178 1.387 . S
C1178 H1163 0.930 . S
C1178 C1173 1.390 . S
C1178 C1177 1.387 . S
H1179 C1191 0.930 . S
H1180 C1193 0.930 . S
H1181 C1194 0.930 . S
H1182 C1198 0.959 . S
H1183 C1198 0.959 . S
H1184 C1198 0.961 . S
H1185 C1199 0.960 . S
H1186 C1199 0.961 . S
H1187 C1199 0.959 . S
H1188 C1202 0.929 . S
H1189 C1203 0.931 . S
H1190 C1205 0.930 . S
C1191 H1179 0.930 . S
C1191 C1192 1.399 . S
C1191 C1196 1.399 . S
C1192 C1191 1.399 . S
C1192 C1193 1.376 . S
C1193 H1180 0.930 . S
C1193 C1192 1.376 . S
C1193 C1194 1.388 . S
C1194 H1181 0.930 . S
C1194 C1193 1.388 . S
C1194 C1195 1.390 . S
C1195 C1194 1.390 . S
C1195 C1196 1.394 . S
C1195 C1201 1.465 . S
C1196 C1191 1.399 . S
C1196 C1195 1.394 . S
C1196 C1197 1.516 . S
C1197 C1196 1.516 . S
C1197 C1198 1.502 . S
C1197 C1199 1.561 . S
C1197 C1200 1.526 . S
C1198 H1182 0.959 . S
C1198 H1183 0.959 . S
C1198 H1184 0.961 . S
C1198 C1197 1.502 . S
C1199 H1185 0.960 . S
C1199 H1186 0.961 . S
C1199 H1187 0.959 . S
C1199 C1197 1.561 . S
C1200 C1197 1.526 . S
C1200 C1201 1.396 . S
C1200 C1205 1.390 . S
C1201 C1195 1.465 . S
C1201 C1200 1.396 . S
C1201 C1202 1.399 . S
C1202 H1188 0.929 . S
C1202 C1201 1.399 . S
C1202 C1203 1.385 . S
C1203 H1189 0.931 . S
C1203 C1202 1.385 . S
C1203 C1204 1.389 . S
C1204 C1203 1.389 . S
C1204 C1205 1.387 . S
C1205 H1190 0.930 . S
C1205 C1200 1.390 . S
C1205 C1204 1.387 . S
H1206 C1218 0.930 . S
H1207 C1220 0.930 . S
H1208 C1221 0.930 . S
H1209 C1225 0.959 . S
H1210 C1225 0.959 . S
H1211 C1225 0.961 . S
H1212 C1226 0.960 . S
H1213 C1226 0.961 . S
H1214 C1226 0.959 . S
H1215 C1229 0.929 . S
H1216 C1230 0.931 . S
H1217 C1232 0.930 . S
C1218 H1206 0.930 . S
C1218 C1219 1.399 . S
C1218 C1223 1.411 . S
C1219 C1218 1.399 . S
C1219 C1220 1.376 1_545 S
C1220 H1207 0.930 . S
C1220 C1219 1.376 1_565 S
C1220 C1221 1.388 . S
C1221 H1208 0.930 . S
C1221 C1220 1.388 . S
C1221 C1222 1.390 . S
C1222 C1221 1.390 . S
C1222 C1223 1.346 1_565 S
C1222 C1228 1.465 . S
C1223 C1218 1.411 . S
C1223 C1222 1.346 1_545 S
C1223 C1224 1.547 . S
C1224 C1223 1.547 . S
C1224 C1225 1.502 . S
C1224 C1226 1.561 . S
C1224 C1227 1.526 1_545 S
C1225 H1209 0.959 . S
C1225 H1210 0.959 . S
C1225 H1211 0.961 . S
C1225 C1224 1.502 . S
C1226 H1212 0.960 . S
C1226 H1213 0.961 . S
C1226 H1214 0.959 . S
C1226 C1224 1.561 . S
C1227 C1224 1.526 1_565 S
C1227 C1228 1.396 . S
C1227 C1232 1.390 . S
C1228 C1222 1.465 . S
C1228 C1227 1.396 . S
C1228 C1229 1.399 . S
C1229 H1215 0.929 . S
C1229 C1228 1.399 . S
C1229 C1230 1.385 . S
C1230 H1216 0.931 . S
C1230 C1229 1.385 . S
C1230 C1231 1.389 . S
C1231 C1230 1.389 . S
C1231 C1232 1.387 . S
C1232 H1217 0.930 . S
C1232 C1227 1.390 . S
C1232 C1231 1.387 . S
H1233 C1245 0.930 . S
H1234 C1247 0.930 . S
H1235 C1248 0.930 . S
H1236 C1252 0.959 . S
H1237 C1252 0.959 . S
H1238 C1252 0.961 . S
H1239 C1253 0.960 . S
H1240 C1253 0.961 . S
H1241 C1253 0.959 . S
H1242 C1256 0.929 . S
H1243 C1257 0.931 . S
H1244 C1259 0.930 . S
C1245 H1233 0.930 . S
C1245 C1246 1.399 . S
C1245 C1250 1.399 . S
C1246 C1245 1.399 . S
C1246 C1247 1.376 . S
C1247 H1234 0.930 . S
C1247 C1246 1.376 . S
C1247 C1248 1.388 . S
C1248 H1235 0.930 . S
C1248 C1247 1.388 . S
C1248 C1249 1.390 . S
C1249 C1248 1.390 . S
C1249 C1250 1.394 . S
C1249 C1255 1.465 . S
C1250 C1245 1.399 . S
C1250 C1249 1.394 . S
C1250 C1251 1.516 . S
C1251 C1250 1.516 . S
C1251 C1252 1.502 . S
C1251 C1253 1.561 . S
C1251 C1254 1.526 . S
C1252 H1236 0.959 . S
C1252 H1237 0.959 . S
C1252 H1238 0.961 . S
C1252 C1251 1.502 . S
C1253 H1239 0.960 . S
C1253 H1240 0.961 . S
C1253 H1241 0.959 . S
C1253 C1251 1.561 . S
C1254 C1251 1.526 . S
C1254 C1255 1.396 . S
C1254 C1259 1.390 . S
C1255 C1249 1.465 . S
C1255 C1254 1.396 . S
C1255 C1256 1.399 . S
C1256 H1242 0.929 . S
C1256 C1255 1.399 . S
C1256 C1257 1.385 . S
C1257 H1243 0.931 . S
C1257 C1256 1.385 . S
C1257 C1258 1.389 . S
C1258 C1257 1.389 . S
C1258 C1259 1.387 . S
C1259 H1244 0.930 . S
C1259 C1254 1.390 . S
C1259 C1258 1.387 . S
H1260 C1272 0.930 . S
H1261 C1274 0.930 . S
H1262 C1275 0.930 . S
H1263 C1279 0.959 . S
H1264 C1279 0.959 . S
H1265 C1279 0.961 . S
H1266 C1280 0.960 . S
H1267 C1280 0.961 . S
H1268 C1280 0.959 . S
H1269 C1283 0.929 . S
H1270 C1284 0.931 . S
H1271 C1286 0.930 . S
C1272 H1260 0.930 . S
C1272 C1273 1.399 . S
C1272 C1277 1.399 . S
C1273 C1272 1.399 . S
C1273 C1274 1.376 1_455 S
C1274 H1261 0.930 . S
C1274 C1273 1.376 1_655 S
C1274 C1275 1.388 . S
C1275 H1262 0.930 . S
C1275 C1274 1.388 . S
C1275 C1276 1.390 . S
C1276 C1275 1.390 . S
C1276 C1277 1.394 1_655 S
C1276 C1282 1.465 . S
C1277 C1272 1.399 . S
C1277 C1276 1.394 1_455 S
C1277 C1278 1.516 . S
C1278 C1277 1.516 . S
C1278 C1279 1.502 . S
C1278 C1280 1.561 . S
C1278 C1281 1.526 1_455 S
C1279 H1263 0.959 . S
C1279 H1264 0.959 . S
C1279 H1265 0.961 . S
C1279 C1278 1.502 . S
C1280 H1266 0.960 . S
C1280 H1267 0.961 . S
C1280 H1268 0.959 . S
C1280 C1278 1.561 . S
C1281 C1278 1.526 1_655 S
C1281 C1282 1.396 . S
C1281 C1286 1.390 . S
C1282 C1276 1.465 . S
C1282 C1281 1.396 . S
C1282 C1283 1.399 . S
C1283 H1269 0.929 . S
C1283 C1282 1.399 . S
C1283 C1284 1.385 . S
C1284 H1270 0.931 . S
C1284 C1283 1.385 . S
C1284 C1285 1.389 . S
C1285 C1284 1.389 . S
C1285 C1286 1.387 . S
C1286 H1271 0.930 . S
C1286 C1281 1.390 . S
C1286 C1285 1.387 . S
H1287 C1299 0.930 . S
H1288 C1301 0.930 . S
H1289 C1302 0.930 . S
H1290 C1306 0.959 . S
H1291 C1306 0.959 . S
H1292 C1306 0.961 . S
H1293 C1307 0.960 . S
H1294 C1307 0.961 . S
H1295 C1307 0.959 . S
H1296 C1310 0.929 . S
H1297 C1311 0.931 . S
H1298 C1313 0.930 . S
C1299 H1287 0.930 . S
C1299 C1300 1.399 . S
C1299 C1304 1.399 . S
C1300 C1299 1.399 . S
C1300 C1301 1.376 . S
C1301 H1288 0.930 . S
C1301 C1300 1.376 . S
C1301 C1302 1.388 . S
C1302 H1289 0.930 . S
C1302 C1301 1.388 . S
C1302 C1303 1.390 . S
C1303 C1302 1.390 . S
C1303 C1304 1.394 . S
C1303 C1309 1.465 . S
C1304 C1299 1.399 . S
C1304 C1303 1.394 . S
C1304 C1305 1.516 . S
C1305 C1304 1.516 . S
C1305 C1306 1.502 . S
C1305 C1307 1.561 . S
C1305 C1308 1.526 . S
C1306 H1290 0.959 . S
C1306 H1291 0.959 . S
C1306 H1292 0.961 . S
C1306 C1305 1.502 . S
C1307 H1293 0.960 . S
C1307 H1294 0.961 . S
C1307 H1295 0.959 . S
C1307 C1305 1.561 . S
C1308 C1305 1.526 . S
C1308 C1309 1.396 . S
C1308 C1313 1.390 . S
C1309 C1303 1.465 . S
C1309 C1308 1.396 . S
C1309 C1310 1.399 . S
C1310 H1296 0.929 . S
C1310 C1309 1.399 . S
C1310 C1311 1.385 . S
C1311 H1297 0.931 . S
C1311 C1310 1.385 . S
C1311 C1312 1.389 . S
C1312 C1311 1.389 . S
C1312 C1313 1.387 . S
C1313 H1298 0.930 . S
C1313 C1308 1.390 . S
C1313 C1312 1.387 . S
H1314 C1326 0.930 . S
H1315 C1328 0.930 . S
H1316 C1329 0.930 . S
H1317 C1333 0.959 . S
H1318 C1333 0.959 . S
H1319 C1333 0.961 . S
H1320 C1334 0.960 . S
H1321 C1334 0.961 . S
H1322 C1334 0.959 . S
H1323 C1337 0.929 . S
H1324 C1338 0.931 . S
H1325 C1340 0.930 . S
C1326 H1314 0.930 . S
C1326 C1327 1.399 . S
C1326 C1331 1.399 . S
C1327 C1326 1.399 . S
C1327 C1328 1.376 . S
C1328 H1315 0.930 . S
C1328 C1327 1.376 . S
C1328 C1329 1.388 . S
C1329 H1316 0.930 . S
C1329 C1328 1.388 . S
C1329 C1330 1.390 . S
C1330 C1329 1.390 . S
C1330 C1331 1.394 . S
C1330 C1336 1.465 . S
C1331 C1326 1.399 . S
C1331 C1330 1.394 . S
C1331 C1332 1.516 . S
C1332 C1331 1.516 . S
C1332 C1333 1.502 . S
C1332 C1334 1.561 . S
C1332 C1335 1.526 . S
C1333 H1317 0.959 . S
C1333 H1318 0.959 . S
C1333 H1319 0.961 . S
C1333 C1332 1.502 . S
C1334 H1320 0.960 . S
C1334 H1321 0.961 . S
C1334 H1322 0.959 . S
C1334 C1332 1.561 . S
C1335 C1332 1.526 . S
C1335 C1336 1.396 . S
C1335 C1340 1.390 . S
C1336 C1330 1.465 . S
C1336 C1335 1.396 . S
C1336 C1337 1.399 . S
C1337 H1323 0.929 . S
C1337 C1336 1.399 . S
C1337 C1338 1.385 . S
C1338 H1324 0.931 . S
C1338 C1337 1.385 . S
C1338 C1339 1.389 . S
C1339 C1338 1.389 . S
C1339 C1340 1.387 . S
C1340 H1325 0.930 . S
C1340 C1335 1.390 . S
C1340 C1339 1.387 . S
H1341 C1353 0.930 . S
H1342 C1355 0.930 . S
H1343 C1356 0.930 . S
H1344 C1360 0.959 . S
H1345 C1360 0.959 . S
H1346 C1360 0.961 . S
H1347 C1361 0.960 . S
H1348 C1361 0.961 . S
H1349 C1361 0.959 . S
H1350 C1364 0.929 . S
H1351 C1365 0.931 . S
H1352 C1367 0.930 . S
C1353 H1341 0.930 . S
C1353 C1354 1.399 . S
C1353 C1358 1.399 . S
C1354 C1353 1.399 . S
C1354 C1355 1.376 . S
C1355 H1342 0.930 . S
C1355 C1354 1.376 . S
C1355 C1356 1.388 . S
C1356 H1343 0.930 . S
C1356 C1355 1.388 . S
C1356 C1357 1.390 . S
C1357 C1356 1.390 . S
C1357 C1358 1.394 . S
C1357 C1363 1.465 . S
C1358 C1353 1.399 . S
C1358 C1357 1.394 . S
C1358 C1359 1.516 . S
C1359 C1358 1.516 . S
C1359 C1360 1.502 . S
C1359 C1361 1.561 . S
C1359 C1362 1.526 . S
C1360 H1344 0.959 . S
C1360 H1345 0.959 . S
C1360 H1346 0.961 . S
C1360 C1359 1.502 . S
C1361 H1347 0.960 . S
C1361 H1348 0.961 . S
C1361 H1349 0.959 . S
C1361 C1359 1.561 . S
C1362 C1359 1.526 . S
C1362 C1363 1.396 . S
C1362 C1367 1.390 1_545 S
C1363 C1357 1.465 . S
C1363 C1362 1.396 . S
C1363 C1364 1.399 1_545 S
C1364 H1350 0.929 . S
C1364 C1363 1.399 1_565 S
C1364 C1365 1.385 . S
C1365 H1351 0.931 . S
C1365 C1364 1.385 . S
C1365 C1366 1.389 . S
C1366 C1365 1.389 . S
C1366 C1367 1.387 . S
C1367 H1352 0.930 . S
C1367 C1362 1.390 1_565 S
C1367 C1366 1.387 . S
H1368 C1380 0.930 . S
H1369 C1382 0.930 . S
H1370 C1383 0.930 . S
H1371 C1387 0.959 . S
H1372 C1387 0.959 . S
H1373 C1387 0.961 1_655 S
H1374 C1388 0.996 . S
H1375 C1388 0.953 1_455 S
H1376 C1388 0.929 1_455 S
H1377 C1391 0.929 . S
H1378 C1392 0.931 . S
H1379 C1394 0.930 . S
C1380 H1368 0.930 . S
C1380 C1381 1.399 . S
C1380 C1385 1.399 1_655 S
C1381 C1380 1.399 . S
C1381 C1382 1.376 . S
C1382 H1369 0.930 . S
C1382 C1381 1.376 . S
C1382 C1383 1.388 1_655 S
C1383 H1370 0.930 . S
C1383 C1382 1.388 1_455 S
C1383 C1384 1.390 . S
C1384 C1383 1.390 . S
C1384 C1385 1.394 . S
C1384 C1390 1.465 . S
C1385 C1380 1.399 1_455 S
C1385 C1384 1.394 . S
C1385 C1386 1.516 . S
C1386 C1385 1.516 . S
C1386 C1387 1.502 . S
C1386 C1388 1.565 1_455 S
C1386 C1389 1.526 . S
C1387 H1371 0.959 . S
C1387 H1372 0.959 . S
C1387 H1373 0.961 1_455 S
C1387 C1386 1.502 . S
C1388 H1374 0.996 . S
C1388 H1375 0.953 1_655 S
C1388 H1376 0.929 1_655 S
C1388 C1386 1.565 1_655 S
C1389 C1386 1.526 . S
C1389 C1390 1.396 . S
C1389 C1394 1.390 . S
C1390 C1384 1.465 . S
C1390 C1389 1.396 . S
C1390 C1391 1.399 . S
C1391 H1377 0.929 . S
C1391 C1390 1.399 . S
C1391 C1392 1.385 . S
C1392 H1378 0.931 . S
C1392 C1391 1.385 . S
C1392 C1393 1.389 . S
C1393 C1392 1.389 . S
C1393 C1394 1.387 . S
C1394 H1379 0.930 . S
C1394 C1389 1.390 . S
C1394 C1393 1.387 . S
H1395 C1407 0.930 . S
H1396 C1409 0.930 . S
H1397 C1410 0.930 . S
H1398 C1414 0.959 . S
H1399 C1414 0.959 . S
H1400 C1414 0.961 . S
H1401 C1415 0.960 . S
H1402 C1415 0.961 . S
H1403 C1415 0.959 . S
H1404 C1418 0.929 . S
H1405 C1419 0.931 . S
H1406 C1421 0.930 . S
C1407 H1395 0.930 . S
C1407 C1408 1.399 . S
C1407 C1412 1.399 . S
C1408 C1407 1.399 . S
C1408 C1409 1.376 . S
C1409 H1396 0.930 . S
C1409 C1408 1.376 . S
C1409 C1410 1.388 . S
C1410 H1397 0.930 . S
C1410 C1409 1.388 . S
C1410 C1411 1.390 . S
C1411 C1410 1.390 . S
C1411 C1412 1.394 . S
C1411 C1417 1.465 . S
C1412 C1407 1.399 . S
C1412 C1411 1.394 . S
C1412 C1413 1.516 . S
C1413 C1412 1.516 . S
C1413 C1414 1.502 . S
C1413 C1415 1.561 . S
C1413 C1416 1.526 . S
C1414 H1398 0.959 . S
C1414 H1399 0.959 . S
C1414 H1400 0.961 . S
C1414 C1413 1.502 . S
C1415 H1401 0.960 . S
C1415 H1402 0.961 . S
C1415 H1403 0.959 . S
C1415 C1413 1.561 . S
C1416 C1413 1.526 . S
C1416 C1417 1.396 . S
C1416 C1421 1.390 . S
C1417 C1411 1.465 . S
C1417 C1416 1.396 . S
C1417 C1418 1.399 . S
C1418 H1404 0.929 . S
C1418 C1417 1.399 . S
C1418 C1419 1.385 . S
C1419 H1405 0.931 . S
C1419 C1418 1.385 . S
C1419 C1420 1.389 . S
C1420 C1419 1.389 . S
C1420 C1421 1.387 . S
C1421 H1406 0.930 . S
C1421 C1416 1.390 . S
C1421 C1420 1.387 . S
H1422 C1434 0.930 1_545 S
H1423 C1436 0.930 . S
H1424 C1437 0.930 . S
H1425 C1441 0.959 . S
H1426 C1441 0.959 . S
H1427 C1441 0.961 . S
H1428 C1442 0.960 . S
H1429 C1442 0.961 . S
H1430 C1442 0.959 . S
H1431 C1445 0.929 . S
H1432 C1446 0.931 . S
H1433 C1448 0.930 . S
C1434 H1422 0.930 1_565 S
C1434 C1435 1.399 . S
C1434 C1439 1.399 1_565 S
C1435 C1434 1.399 . S
C1435 C1436 1.376 . S
C1436 H1423 0.930 . S
C1436 C1435 1.376 . S
C1436 C1437 1.388 . S
C1437 H1424 0.930 . S
C1437 C1436 1.388 . S
C1437 C1438 1.390 1_565 S
C1438 C1437 1.390 1_545 S
C1438 C1439 1.394 . S
C1438 C1444 1.465 . S
C1439 C1434 1.399 1_545 S
C1439 C1438 1.394 . S
C1439 C1440 1.516 . S
C1440 C1439 1.516 . S
C1440 C1441 1.502 . S
C1440 C1442 1.561 . S
C1440 C1443 1.526 . S
C1441 H1425 0.959 . S
C1441 H1426 0.959 . S
C1441 H1427 0.961 . S
C1441 C1440 1.502 . S
C1442 H1428 0.960 . S
C1442 H1429 0.961 . S
C1442 H1430 0.959 . S
C1442 C1440 1.561 . S
C1443 C1440 1.526 . S
C1443 C1444 1.396 . S
C1443 C1448 1.390 . S
C1444 C1438 1.465 . S
C1444 C1443 1.396 . S
C1444 C1445 1.399 . S
C1445 H1431 0.929 . S
C1445 C1444 1.399 . S
C1445 C1446 1.385 . S
C1446 H1432 0.931 . S
C1446 C1445 1.385 . S
C1446 C1447 1.389 . S
C1447 C1446 1.389 . S
C1447 C1448 1.387 . S
C1448 H1433 0.930 . S
C1448 C1443 1.390 . S
C1448 C1447 1.387 . S
H1449 C1461 0.930 . S
H1450 C1463 0.930 . S
H1451 C1464 0.930 . S
H1452 C1468 0.944 . S
H1453 C1468 0.959 1_455 S
H1454 C1468 0.961 . S
H1455 C1469 0.960 1_655 S
H1456 C1469 0.961 . S
H1457 C1469 0.959 . S
H1458 C1472 0.929 . S
H1459 C1473 0.931 . S
H1460 C1475 0.930 . S
C1461 H1449 0.930 . S
C1461 C1462 1.399 . S
C1461 C1466 1.399 1_655 S
C1462 C1461 1.399 . S
C1462 C1463 1.376 . S
C1463 H1450 0.930 . S
C1463 C1462 1.376 . S
C1463 C1464 1.388 1_655 S
C1464 H1451 0.930 . S
C1464 C1463 1.388 1_455 S
C1464 C1465 1.390 . S
C1465 C1464 1.390 . S
C1465 C1466 1.394 . S
C1465 C1471 1.465 . S
C1466 C1461 1.399 1_455 S
C1466 C1465 1.394 . S
C1466 C1467 1.516 . S
C1467 C1466 1.516 . S
C1467 C1468 1.502 1_455 S
C1467 C1469 1.561 . S
C1467 C1470 1.526 . S
C1468 H1452 0.944 . S
C1468 H1453 0.959 1_655 S
C1468 H1454 0.961 . S
C1468 C1467 1.502 1_655 S
C1469 H1455 0.960 1_455 S
C1469 H1456 0.961 . S
C1469 H1457 0.959 . S
C1469 C1467 1.561 . S
C1470 C1467 1.526 . S
C1470 C1471 1.396 . S
C1470 C1475 1.390 . S
C1471 C1465 1.465 . S
C1471 C1470 1.396 . S
C1471 C1472 1.399 . S
C1472 H1458 0.929 . S
C1472 C1471 1.399 . S
C1472 C1473 1.385 . S
C1473 H1459 0.931 . S
C1473 C1472 1.385 . S
C1473 C1474 1.389 . S
C1474 C1473 1.389 . S
C1474 C1475 1.387 . S
C1475 H1460 0.930 . S
C1475 C1470 1.390 . S
C1475 C1474 1.387 . S
H1476 C1488 0.930 . S
H1477 C1490 0.930 . S
H1478 C1491 0.930 . S
H1479 C1495 0.962 . S
H1480 C1495 0.977 . S
H1481 C1495 0.942 1_554 S
H1482 C1496 0.964 . S
H1483 C1496 0.957 1_556 S
H1484 C1496 0.956 1_556 S
H1485 C1499 0.929 . S
H1486 C1500 0.931 . S
H1487 C1502 0.930 . S
C1488 H1476 0.930 . S
C1488 C1489 1.399 . S
C1488 C1493 1.399 . S
C1489 C1488 1.399 . S
C1489 C1490 1.376 . S
C1490 H1477 0.930 . S
C1490 C1489 1.376 . S
C1490 C1491 1.388 . S
C1491 H1478 0.930 . S
C1491 C1490 1.388 . S
C1491 C1492 1.390 . S
C1492 C1491 1.390 . S
C1492 C1493 1.394 . S
C1492 C1498 1.465 1_554 S
C1493 C1488 1.399 . S
C1493 C1492 1.394 . S
C1493 C1494 1.512 . S
C1494 C1493 1.512 . S
C1494 C1495 1.501 1_554 S
C1494 C1496 1.561 1_455 S
C1494 C1497 1.530 1_554 S
C1495 H1479 0.962 . S
C1495 H1480 0.977 . S
C1495 H1481 0.942 1_556 S
C1495 C1494 1.501 1_556 S
C1496 H1482 0.964 . S
C1496 H1483 0.957 1_554 S
C1496 H1484 0.956 1_554 S
C1496 C1494 1.561 1_655 S
C1497 C1494 1.530 1_556 S
C1497 C1498 1.396 . S
C1497 C1502 1.390 . S
C1498 C1492 1.465 1_556 S
C1498 C1497 1.396 . S
C1498 C1499 1.399 . S
C1499 H1485 0.929 . S
C1499 C1498 1.399 . S
C1499 C1500 1.385 . S
C1500 H1486 0.931 . S
C1500 C1499 1.385 . S
C1500 C1501 1.389 . S
C1501 C1500 1.389 . S
C1501 C1502 1.387 . S
C1502 H1487 0.930 . S
C1502 C1497 1.390 . S
C1502 C1501 1.387 . S
H1503 C1515 0.930 . S
H1504 C1517 0.930 . S
H1505 C1518 0.930 . S
H1506 C1522 0.962 . S
H1507 C1522 0.980 . S
H1508 C1522 0.938 1_556 S
H1509 C1523 0.961 . S
H1510 C1523 0.960 1_554 S
H1511 C1523 0.956 1_554 S
H1512 C1526 0.929 . S
H1513 C1527 0.931 . S
H1514 C1529 0.930 . S
C1515 H1503 0.930 . S
C1515 C1516 1.399 . S
C1515 C1520 1.399 . S
C1516 C1515 1.399 . S
C1516 C1517 1.376 . S
C1517 H1504 0.930 . S
C1517 C1516 1.376 . S
C1517 C1518 1.388 . S
C1518 H1505 0.930 . S
C1518 C1517 1.388 . S
C1518 C1519 1.390 . S
C1519 C1518 1.390 . S
C1519 C1520 1.394 . S
C1519 C1525 1.465 1_556 S
C1520 C1515 1.399 . S
C1520 C1519 1.394 . S
C1520 C1521 1.521 1_556 S
C1521 C1520 1.521 1_554 S
C1521 C1522 1.501 . S
C1521 C1523 1.561 1_554 S
C1521 C1524 1.521 . S
C1522 H1506 0.962 . S
C1522 H1507 0.980 . S
C1522 H1508 0.938 1_554 S
C1522 C1521 1.501 . S
C1523 H1509 0.961 . S
C1523 H1510 0.960 1_556 S
C1523 H1511 0.956 1_556 S
C1523 C1521 1.561 1_556 S
C1524 C1521 1.521 . S
C1524 C1525 1.396 . S
C1524 C1529 1.390 . S
C1525 C1519 1.465 1_554 S
C1525 C1524 1.396 . S
C1525 C1526 1.399 . S
C1526 H1512 0.929 . S
C1526 C1525 1.399 . S
C1526 C1527 1.385 . S
C1527 H1513 0.931 . S
C1527 C1526 1.385 . S
C1527 C1528 1.389 . S
C1528 C1527 1.389 . S
C1528 C1529 1.387 . S
C1529 H1514 0.930 . S
C1529 C1524 1.390 . S
C1529 C1528 1.387 . S
H1530 C1542 0.930 . S
H1531 C1544 0.899 1_565 S
H1532 C1545 0.930 . S
H1533 C1549 0.964 . S
H1534 C1549 0.997 . S
H1535 C1549 0.921 1_556 S
H1536 C1550 0.947 1_556 S
H1537 C1550 0.973 . S
H1538 C1550 0.960 . S
H1539 C1553 0.929 . S
H1540 C1554 0.935 1_565 S
H1541 C1556 0.930 . S
C1542 H1530 0.930 . S
C1542 C1543 1.399 . S
C1542 C1547 1.399 . S
C1543 C1542 1.399 . S
C1543 C1544 1.417 . S
C1544 H1531 0.899 1_545 S
C1544 C1543 1.417 . S
C1544 C1545 1.380 1_545 S
C1545 H1532 0.930 . S
C1545 C1544 1.380 1_565 S
C1545 C1546 1.390 1_565 S
C1546 C1545 1.390 1_545 S
C1546 C1547 1.394 . S
C1546 C1552 1.465 1_556 S
C1547 C1542 1.399 . S
C1547 C1546 1.394 . S
C1547 C1548 1.509 1_556 S
C1548 C1547 1.509 1_554 S
C1548 C1549 1.501 . S
C1548 C1550 1.561 . S
C1548 C1551 1.533 . S
C1549 H1533 0.964 . S
C1549 H1534 0.997 . S
C1549 H1535 0.921 1_554 S
C1549 C1548 1.501 . S
C1550 H1536 0.947 1_554 S
C1550 H1537 0.973 . S
C1550 H1538 0.960 . S
C1550 C1548 1.561 . S
C1551 C1548 1.533 . S
C1551 C1552 1.396 . S
C1551 C1556 1.390 . S
C1552 C1546 1.465 1_554 S
C1552 C1551 1.396 . S
C1552 C1553 1.399 1_545 S
C1553 H1539 0.929 . S
C1553 C1552 1.399 1_565 S
C1553 C1554 1.386 1_565 S
C1554 H1540 0.935 1_545 S
C1554 C1553 1.386 1_545 S
C1554 C1555 1.384 . S
C1555 C1554 1.384 . S
C1555 C1556 1.387 . S
C1556 H1541 0.930 . S
C1556 C1551 1.390 . S
C1556 C1555 1.387 . S
H1557 C1569 0.930 . S
H1558 C1571 0.930 1_655 S
H1559 C1572 0.930 . S
H1560 C1576 0.960 . S
H1561 C1576 0.959 . S
H1562 C1576 0.960 1_556 S
H1563 C1577 0.966 1_556 S
H1564 C1577 0.956 . S
H1565 C1577 0.958 . S
H1566 C1580 0.937 . S
H1567 C1581 0.931 1_655 S
H1568 C1583 0.930 . S
C1569 H1557 0.930 . S
C1569 C1570 1.399 . S
C1569 C1574 1.399 . S
C1570 C1569 1.399 . S
C1570 C1571 1.376 . S
C1571 H1558 0.930 1_455 S
C1571 C1570 1.376 . S
C1571 C1572 1.388 1_455 S
C1572 H1559 0.930 . S
C1572 C1571 1.388 1_655 S
C1572 C1573 1.390 1_655 S
C1573 C1572 1.390 1_455 S
C1573 C1574 1.394 . S
C1573 C1579 1.465 1_556 S
C1574 C1569 1.399 . S
C1574 C1573 1.394 . S
C1574 C1575 1.515 . S
C1575 C1574 1.515 . S
C1575 C1576 1.502 1_556 S
C1575 C1577 1.561 1_556 S
C1575 C1578 1.527 1_556 S
C1576 H1560 0.960 . S
C1576 H1561 0.959 . S
C1576 H1562 0.960 1_554 S
C1576 C1575 1.502 1_554 S
C1577 H1563 0.966 1_554 S
C1577 H1564 0.956 . S
C1577 H1565 0.958 . S
C1577 C1575 1.561 1_554 S
C1578 C1575 1.527 1_554 S
C1578 C1579 1.396 . S
C1578 C1583 1.390 . S
C1579 C1573 1.465 1_554 S
C1579 C1578 1.396 . S
C1579 C1580 1.394 1_455 S
C1580 H1566 0.937 . S
C1580 C1579 1.394 1_655 S
C1580 C1581 1.383 1_655 S
C1581 H1567 0.931 1_455 S
C1581 C1580 1.383 1_455 S
C1581 C1582 1.389 . S
C1582 C1581 1.389 . S
C1582 C1583 1.387 . S
C1583 H1568 0.930 . S
C1583 C1578 1.390 . S
C1583 C1582 1.387 . S
H1584 C1596 0.930 . S
H1585 C1598 0.930 . S
H1586 C1599 0.930 . S
H1587 C1603 0.960 . S
H1588 C1603 0.959 . S
H1589 C1603 0.960 1_554 S
H1590 C1604 0.955 . S
H1591 C1604 0.965 1_556 S
H1592 C1604 0.959 1_556 S
H1593 C1607 0.929 . S
H1594 C1608 0.931 . S
H1595 C1610 0.930 . S
C1596 H1584 0.930 . S
C1596 C1597 1.399 . S
C1596 C1601 1.399 . S
C1597 C1596 1.399 . S
C1597 C1598 1.376 . S
C1598 H1585 0.930 . S
C1598 C1597 1.376 . S
C1598 C1599 1.388 . S
C1599 H1586 0.930 . S
C1599 C1598 1.388 . S
C1599 C1600 1.390 . S
C1600 C1599 1.390 . S
C1600 C1601 1.394 . S
C1600 C1606 1.465 1_554 S
C1601 C1596 1.399 . S
C1601 C1600 1.394 . S
C1601 C1602 1.516 . S
C1602 C1601 1.516 . S
C1602 C1603 1.502 1_554 S
C1602 C1604 1.561 . S
C1602 C1605 1.526 1_554 S
C1603 H1587 0.960 . S
C1603 H1588 0.959 . S
C1603 H1589 0.960 1_556 S
C1603 C1602 1.502 1_556 S
C1604 H1590 0.955 . S
C1604 H1591 0.965 1_554 S
C1604 H1592 0.959 1_554 S
C1604 C1602 1.561 . S
C1605 C1602 1.526 1_556 S
C1605 C1606 1.396 . S
C1605 C1610 1.390 . S
C1606 C1600 1.465 1_556 S
C1606 C1605 1.396 . S
C1606 C1607 1.399 . S
C1607 H1593 0.929 . S
C1607 C1606 1.399 . S
C1607 C1608 1.385 . S
C1608 H1594 0.931 . S
C1608 C1607 1.385 . S
C1608 C1609 1.389 . S
C1609 C1608 1.389 . S
C1609 C1610 1.387 . S
C1610 H1595 0.930 . S
C1610 C1605 1.390 . S
C1610 C1609 1.387 . S
H1611 C1623 0.930 . S
H1612 C1625 0.930 1_565 S
H1613 C1626 0.914 1_565 S
H1614 C1630 0.963 . S
H1615 C1630 0.991 . S
H1616 C1630 0.927 1_556 S
H1617 C1631 0.938 1_556 S
H1618 C1631 0.982 . S
H1619 C1631 0.961 . S
H1620 C1634 0.941 . S
H1621 C1635 0.931 1_565 S
H1622 C1637 0.930 . S
C1623 H1611 0.930 . S
C1623 C1624 1.399 . S
C1623 C1628 1.399 . S
C1624 C1623 1.399 . S
C1624 C1625 1.376 . S
C1625 H1612 0.930 1_545 S
C1625 C1624 1.376 . S
C1625 C1626 1.392 . S
C1626 H1613 0.914 1_545 S
C1626 C1625 1.392 . S
C1626 C1627 1.404 . S
C1627 C1626 1.404 . S
C1627 C1628 1.394 . S
C1627 C1633 1.465 1_556 S
C1628 C1623 1.399 . S
C1628 C1627 1.394 . S
C1628 C1629 1.508 1_556 S
C1629 C1628 1.508 1_554 S
C1629 C1630 1.501 . S
C1629 C1631 1.561 . S
C1629 C1632 1.534 . S
C1630 H1614 0.963 . S
C1630 H1615 0.991 . S
C1630 H1616 0.927 1_554 S
C1630 C1629 1.501 . S
C1631 H1617 0.938 1_554 S
C1631 H1618 0.982 . S
C1631 H1619 0.961 . S
C1631 C1629 1.561 . S
C1632 C1629 1.534 . S
C1632 C1633 1.396 . S
C1632 C1637 1.390 . S
C1633 C1627 1.465 1_554 S
C1633 C1632 1.396 . S
C1633 C1634 1.389 1_545 S
C1634 H1620 0.941 . S
C1634 C1633 1.389 1_565 S
C1634 C1635 1.384 1_565 S
C1635 H1621 0.931 1_545 S
C1635 C1634 1.384 1_545 S
C1635 C1636 1.389 . S
C1636 C1635 1.389 . S
C1636 C1637 1.387 . S
C1637 H1622 0.930 . S
C1637 C1632 1.390 . S
C1637 C1636 1.387 . S
H1638 C1650 0.930 . S
H1639 C1652 0.930 . S
H1640 C1653 0.930 . S
H1641 C1657 0.959 . S
H1642 C1657 0.959 . S
H1643 C1657 0.961 . S
H1644 C1658 0.960 . S
H1645 C1658 0.961 . S
H1646 C1658 0.959 . S
H1647 C1661 0.929 . S
H1648 C1662 0.931 . S
H1649 C1664 0.930 . S
C1650 H1638 0.930 . S
C1650 C1651 1.399 . S
C1650 C1655 1.399 . S
C1651 C1650 1.399 . S
C1651 C1652 1.376 . S
C1652 H1639 0.930 . S
C1652 C1651 1.376 . S
C1652 C1653 1.388 . S
C1653 H1640 0.930 . S
C1653 C1652 1.388 . S
C1653 C1654 1.390 . S
C1654 C1653 1.390 . S
C1654 C1655 1.394 . S
C1654 C1660 1.465 . S
C1655 C1650 1.399 . S
C1655 C1654 1.394 . S
C1655 C1656 1.516 . S
C1656 C1655 1.516 . S
C1656 C1657 1.502 . S
C1656 C1658 1.561 . S
C1656 C1659 1.526 . S
C1657 H1641 0.959 . S
C1657 H1642 0.959 . S
C1657 H1643 0.961 . S
C1657 C1656 1.502 . S
C1658 H1644 0.960 . S
C1658 H1645 0.961 . S
C1658 H1646 0.959 . S
C1658 C1656 1.561 . S
C1659 C1656 1.526 . S
C1659 C1660 1.396 . S
C1659 C1664 1.390 . S
C1660 C1654 1.465 . S
C1660 C1659 1.396 . S
C1660 C1661 1.399 . S
C1661 H1647 0.929 . S
C1661 C1660 1.399 . S
C1661 C1662 1.385 . S
C1662 H1648 0.931 . S
C1662 C1661 1.385 . S
C1662 C1663 1.389 . S
C1663 C1662 1.389 . S
C1663 C1664 1.387 . S
C1664 H1649 0.930 . S
C1664 C1659 1.390 . S
C1664 C1663 1.387 . S
H1665 C1677 0.930 . S
H1666 C1679 0.930 . S
H1667 C1680 0.930 . S
H1668 C1684 0.959 . S
H1669 C1684 0.959 . S
H1670 C1684 0.961 . S
H1671 C1685 0.960 . S
H1672 C1685 0.961 . S
H1673 C1685 0.959 . S
H1674 C1688 0.929 . S
H1675 C1689 0.931 . S
H1676 C1691 0.930 . S
C1677 H1665 0.930 . S
C1677 C1678 1.399 . S
C1677 C1682 1.399 . S
C1678 C1677 1.399 . S
C1678 C1679 1.376 . S
C1679 H1666 0.930 . S
C1679 C1678 1.376 . S
C1679 C1680 1.388 . S
C1680 H1667 0.930 . S
C1680 C1679 1.388 . S
C1680 C1681 1.390 . S
C1681 C1680 1.390 . S
C1681 C1682 1.394 . S
C1681 C1687 1.465 . S
C1682 C1677 1.399 . S
C1682 C1681 1.394 . S
C1682 C1683 1.516 . S
C1683 C1682 1.516 . S
C1683 C1684 1.502 . S
C1683 C1685 1.561 . S
C1683 C1686 1.526 . S
C1684 H1668 0.959 . S
C1684 H1669 0.959 . S
C1684 H1670 0.961 . S
C1684 C1683 1.502 . S
C1685 H1671 0.960 . S
C1685 H1672 0.961 . S
C1685 H1673 0.959 . S
C1685 C1683 1.561 . S
C1686 C1683 1.526 . S
C1686 C1687 1.396 . S
C1686 C1691 1.390 . S
C1687 C1681 1.465 . S
C1687 C1686 1.396 . S
C1687 C1688 1.399 . S
C1688 H1674 0.929 . S
C1688 C1687 1.399 . S
C1688 C1689 1.385 . S
C1689 H1675 0.931 . S
C1689 C1688 1.385 . S
C1689 C1690 1.389 . S
C1690 C1689 1.389 . S
C1690 C1691 1.387 . S
C1691 H1676 0.930 . S
C1691 C1686 1.390 . S
C1691 C1690 1.387 . S
H1692 C1704 0.930 . S
H1693 C1706 0.930 . S
H1694 C1707 0.930 . S
H1695 C1711 0.959 . S
H1696 C1711 0.959 . S
H1697 C1711 0.961 . S
H1698 C1712 0.960 . S
H1699 C1712 0.961 . S
H1700 C1712 0.959 . S
H1701 C1715 0.929 . S
H1702 C1716 0.931 . S
H1703 C1718 0.930 . S
C1704 H1692 0.930 . S
C1704 C1705 1.399 . S
C1704 C1709 1.399 . S
C1705 C1704 1.399 . S
C1705 C1706 1.376 . S
C1706 H1693 0.930 . S
C1706 C1705 1.376 . S
C1706 C1707 1.388 . S
C1707 H1694 0.930 . S
C1707 C1706 1.388 . S
C1707 C1708 1.390 . S
C1708 C1707 1.390 . S
C1708 C1709 1.394 . S
C1708 C1714 1.465 . S
C1709 C1704 1.399 . S
C1709 C1708 1.394 . S
C1709 C1710 1.516 . S
C1710 C1709 1.516 . S
C1710 C1711 1.502 . S
C1710 C1712 1.561 . S
C1710 C1713 1.526 . S
C1711 H1695 0.959 . S
C1711 H1696 0.959 . S
C1711 H1697 0.961 . S
C1711 C1710 1.502 . S
C1712 H1698 0.960 . S
C1712 H1699 0.961 . S
C1712 H1700 0.959 . S
C1712 C1710 1.561 . S
C1713 C1710 1.526 . S
C1713 C1714 1.396 . S
C1713 C1718 1.390 . S
C1714 C1708 1.465 . S
C1714 C1713 1.396 . S
C1714 C1715 1.399 . S
C1715 H1701 0.929 . S
C1715 C1714 1.399 . S
C1715 C1716 1.385 . S
C1716 H1702 0.931 . S
C1716 C1715 1.385 . S
C1716 C1717 1.389 . S
C1717 C1716 1.389 . S
C1717 C1718 1.387 . S
C1718 H1703 0.930 . S
C1718 C1713 1.390 . S
C1718 C1717 1.387 . S
H1719 C1731 0.930 . S
H1720 C1733 0.930 . S
H1721 C1734 0.930 . S
H1722 C1738 0.959 . S
H1723 C1738 0.959 . S
H1724 C1738 0.961 . S
H1725 C1739 0.960 . S
H1726 C1739 0.961 . S
H1727 C1739 0.959 . S
H1728 C1742 0.929 . S
H1729 C1743 0.931 . S
H1730 C1745 0.930 . S
C1731 H1719 0.930 . S
C1731 C1732 1.399 . S
C1731 C1736 1.399 . S
C1732 C1731 1.399 . S
C1732 C1733 1.376 . S
C1733 H1720 0.930 . S
C1733 C1732 1.376 . S
C1733 C1734 1.388 . S
C1734 H1721 0.930 . S
C1734 C1733 1.388 . S
C1734 C1735 1.390 . S
C1735 C1734 1.390 . S
C1735 C1736 1.394 . S
C1735 C1741 1.465 . S
C1736 C1731 1.399 . S
C1736 C1735 1.394 . S
C1736 C1737 1.516 . S
C1737 C1736 1.516 . S
C1737 C1738 1.502 . S
C1737 C1739 1.561 . S
C1737 C1740 1.526 . S
C1738 H1722 0.959 . S
C1738 H1723 0.959 . S
C1738 H1724 0.961 . S
C1738 C1737 1.502 . S
C1739 H1725 0.960 . S
C1739 H1726 0.961 . S
C1739 H1727 0.959 . S
C1739 C1737 1.561 . S
C1740 C1737 1.526 . S
C1740 C1741 1.396 . S
C1740 C1745 1.390 . S
C1741 C1735 1.465 . S
C1741 C1740 1.396 . S
C1741 C1742 1.399 . S
C1742 H1728 0.929 . S
C1742 C1741 1.399 . S
C1742 C1743 1.385 . S
C1743 H1729 0.931 . S
C1743 C1742 1.385 . S
C1743 C1744 1.389 . S
C1744 C1743 1.389 . S
C1744 C1745 1.387 . S
C1745 H1730 0.930 . S
C1745 C1740 1.390 . S
C1745 C1744 1.387 . S
H1746 C1758 0.930 . S
H1747 C1760 0.930 . S
H1748 C1761 0.930 . S
H1749 C1765 0.959 . S
H1750 C1765 0.959 . S
H1751 C1765 0.961 . S
H1752 C1766 0.960 . S
H1753 C1766 0.961 . S
H1754 C1766 0.959 . S
H1755 C1769 0.929 . S
H1756 C1770 0.931 . S
H1757 C1772 0.930 . S
C1758 H1746 0.930 . S
C1758 C1759 1.399 . S
C1758 C1763 1.399 . S
C1759 C1758 1.399 . S
C1759 C1760 1.376 . S
C1760 H1747 0.930 . S
C1760 C1759 1.376 . S
C1760 C1761 1.388 . S
C1761 H1748 0.930 . S
C1761 C1760 1.388 . S
C1761 C1762 1.390 . S
C1762 C1761 1.390 . S
C1762 C1763 1.394 . S
C1762 C1768 1.465 . S
C1763 C1758 1.399 . S
C1763 C1762 1.394 . S
C1763 C1764 1.516 . S
C1764 C1763 1.516 . S
C1764 C1765 1.502 . S
C1764 C1766 1.561 . S
C1764 C1767 1.526 . S
C1765 H1749 0.959 . S
C1765 H1750 0.959 . S
C1765 H1751 0.961 . S
C1765 C1764 1.502 . S
C1766 H1752 0.960 . S
C1766 H1753 0.961 . S
C1766 H1754 0.959 . S
C1766 C1764 1.561 . S
C1767 C1764 1.526 . S
C1767 C1768 1.396 . S
C1767 C1772 1.390 . S
C1768 C1762 1.465 . S
C1768 C1767 1.396 . S
C1768 C1769 1.399 . S
C1769 H1755 0.929 . S
C1769 C1768 1.399 . S
C1769 C1770 1.385 . S
C1770 H1756 0.931 . S
C1770 C1769 1.385 . S
C1770 C1771 1.389 . S
C1771 C1770 1.389 . S
C1771 C1772 1.387 . S
C1772 H1757 0.930 . S
C1772 C1767 1.390 . S
C1772 C1771 1.387 . S
H1773 C1785 0.930 . S
H1774 C1787 0.930 . S
H1775 C1788 0.930 . S
H1776 C1792 0.959 . S
H1777 C1792 0.959 . S
H1778 C1792 0.961 . S
H1779 C1793 0.960 . S
H1780 C1793 0.961 . S
H1781 C1793 0.959 . S
H1782 C1796 0.929 . S
H1783 C1797 0.931 . S
H1784 C1799 0.930 . S
C1785 H1773 0.930 . S
C1785 C1786 1.399 . S
C1785 C1790 1.399 . S
C1786 C1785 1.399 . S
C1786 C1787 1.376 . S
C1787 H1774 0.930 . S
C1787 C1786 1.376 . S
C1787 C1788 1.388 . S
C1788 H1775 0.930 . S
C1788 C1787 1.388 . S
C1788 C1789 1.390 . S
C1789 C1788 1.390 . S
C1789 C1790 1.394 . S
C1789 C1795 1.465 . S
C1790 C1785 1.399 . S
C1790 C1789 1.394 . S
C1790 C1791 1.516 . S
C1791 C1790 1.516 . S
C1791 C1792 1.502 . S
C1791 C1793 1.561 . S
C1791 C1794 1.526 . S
C1792 H1776 0.959 . S
C1792 H1777 0.959 . S
C1792 H1778 0.961 . S
C1792 C1791 1.502 . S
C1793 H1779 0.960 . S
C1793 H1780 0.961 . S
C1793 H1781 0.959 . S
C1793 C1791 1.561 . S
C1794 C1791 1.526 . S
C1794 C1795 1.396 . S
C1794 C1799 1.390 . S
C1795 C1789 1.465 . S
C1795 C1794 1.396 . S
C1795 C1796 1.399 . S
C1796 H1782 0.929 . S
C1796 C1795 1.399 . S
C1796 C1797 1.385 . S
C1797 H1783 0.931 . S
C1797 C1796 1.385 . S
C1797 C1798 1.389 . S
C1798 C1797 1.389 . S
C1798 C1799 1.387 . S
C1799 H1784 0.930 . S
C1799 C1794 1.390 . S
C1799 C1798 1.387 . S
H1800 C1812 0.930 . S
H1801 C1814 0.930 . S
H1802 C1815 0.930 . S
H1803 C1819 0.959 . S
H1804 C1819 0.959 . S
H1805 C1819 0.961 . S
H1806 C1820 0.960 . S
H1807 C1820 0.961 . S
H1808 C1820 0.959 . S
H1809 C1823 0.929 . S
H1810 C1824 0.931 . S
H1811 C1826 0.930 . S
C1812 H1800 0.930 . S
C1812 C1813 1.399 . S
C1812 C1817 1.399 . S
C1813 C1812 1.399 . S
C1813 C1814 1.376 . S
C1814 H1801 0.930 . S
C1814 C1813 1.376 . S
C1814 C1815 1.388 . S
C1815 H1802 0.930 . S
C1815 C1814 1.388 . S
C1815 C1816 1.390 . S
C1816 C1815 1.390 . S
C1816 C1817 1.394 . S
C1816 C1822 1.465 . S
C1817 C1812 1.399 . S
C1817 C1816 1.394 . S
C1817 C1818 1.516 . S
C1818 C1817 1.516 . S
C1818 C1819 1.502 . S
C1818 C1820 1.561 . S
C1818 C1821 1.526 . S
C1819 H1803 0.959 . S
C1819 H1804 0.959 . S
C1819 H1805 0.961 . S
C1819 C1818 1.502 . S
C1820 H1806 0.960 . S
C1820 H1807 0.961 . S
C1820 H1808 0.959 . S
C1820 C1818 1.561 . S
C1821 C1818 1.526 . S
C1821 C1822 1.396 . S
C1821 C1826 1.390 . S
C1822 C1816 1.465 . S
C1822 C1821 1.396 . S
C1822 C1823 1.399 . S
C1823 H1809 0.929 . S
C1823 C1822 1.399 . S
C1823 C1824 1.385 . S
C1824 H1810 0.931 . S
C1824 C1823 1.385 . S
C1824 C1825 1.389 . S
C1825 C1824 1.389 . S
C1825 C1826 1.387 . S
C1826 H1811 0.930 . S
C1826 C1821 1.390 . S
C1826 C1825 1.387 . S
H1827 C1839 0.930 . S
H1828 C1841 0.930 . S
H1829 C1842 0.930 . S
H1830 C1846 0.959 . S
H1831 C1846 0.959 . S
H1832 C1846 0.961 . S
H1833 C1847 0.960 . S
H1834 C1847 0.961 . S
H1835 C1847 0.959 . S
H1836 C1850 0.929 . S
H1837 C1851 0.931 . S
H1838 C1853 0.930 . S
C1839 H1827 0.930 . S
C1839 C1840 1.399 . S
C1839 C1844 1.399 . S
C1840 C1839 1.399 . S
C1840 C1841 1.376 . S
C1841 H1828 0.930 . S
C1841 C1840 1.376 . S
C1841 C1842 1.388 . S
C1842 H1829 0.930 . S
C1842 C1841 1.388 . S
C1842 C1843 1.390 . S
C1843 C1842 1.390 . S
C1843 C1844 1.394 . S
C1843 C1849 1.465 . S
C1844 C1839 1.399 . S
C1844 C1843 1.394 . S
C1844 C1845 1.516 . S
C1845 C1844 1.516 . S
C1845 C1846 1.502 . S
C1845 C1847 1.561 . S
C1845 C1848 1.526 . S
C1846 H1830 0.959 . S
C1846 H1831 0.959 . S
C1846 H1832 0.961 . S
C1846 C1845 1.502 . S
C1847 H1833 0.960 . S
C1847 H1834 0.961 . S
C1847 H1835 0.959 . S
C1847 C1845 1.561 . S
C1848 C1845 1.526 . S
C1848 C1849 1.396 . S
C1848 C1853 1.390 . S
C1849 C1843 1.465 . S
C1849 C1848 1.396 . S
C1849 C1850 1.399 . S
C1850 H1836 0.929 . S
C1850 C1849 1.399 . S
C1850 C1851 1.385 . S
C1851 H1837 0.931 . S
C1851 C1850 1.385 . S
C1851 C1852 1.389 . S
C1852 C1851 1.389 . S
C1852 C1853 1.387 . S
C1853 H1838 0.930 . S
C1853 C1848 1.390 . S
C1853 C1852 1.387 . S
H1854 C1866 0.930 . S
H1855 C1868 0.930 . S
H1856 C1869 0.930 . S
H1857 C1873 0.959 . S
H1858 C1873 0.959 . S
H1859 C1873 0.961 . S
H1860 C1874 0.960 . S
H1861 C1874 0.961 . S
H1862 C1874 0.959 . S
H1863 C1877 0.929 . S
H1864 C1878 0.931 . S
H1865 C1880 0.930 . S
C1866 H1854 0.930 . S
C1866 C1867 1.399 . S
C1866 C1871 1.399 . S
C1867 C1866 1.399 . S
C1867 C1868 1.376 . S
C1868 H1855 0.930 . S
C1868 C1867 1.376 . S
C1868 C1869 1.388 . S
C1869 H1856 0.930 . S
C1869 C1868 1.388 . S
C1869 C1870 1.390 . S
C1870 C1869 1.390 . S
C1870 C1871 1.394 . S
C1870 C1876 1.465 . S
C1871 C1866 1.399 . S
C1871 C1870 1.394 . S
C1871 C1872 1.516 . S
C1872 C1871 1.516 . S
C1872 C1873 1.502 . S
C1872 C1874 1.561 . S
C1872 C1875 1.526 . S
C1873 H1857 0.959 . S
C1873 H1858 0.959 . S
C1873 H1859 0.961 . S
C1873 C1872 1.502 . S
C1874 H1860 0.960 . S
C1874 H1861 0.961 . S
C1874 H1862 0.959 . S
C1874 C1872 1.561 . S
C1875 C1872 1.526 . S
C1875 C1876 1.396 . S
C1875 C1880 1.390 . S
C1876 C1870 1.465 . S
C1876 C1875 1.396 . S
C1876 C1877 1.399 . S
C1877 H1863 0.929 . S
C1877 C1876 1.399 . S
C1877 C1878 1.385 . S
C1878 H1864 0.931 . S
C1878 C1877 1.385 . S
C1878 C1879 1.389 . S
C1879 C1878 1.389 . S
C1879 C1880 1.387 . S
C1880 H1865 0.930 . S
C1880 C1875 1.390 . S
C1880 C1879 1.387 . S
H1881 C1893 0.930 . S
H1882 C1895 0.930 . S
H1883 C1896 0.930 . S
H1884 C1900 0.959 . S
H1885 C1900 0.959 . S
H1886 C1900 0.961 . S
H1887 C1901 0.960 . S
H1888 C1901 0.961 . S
H1889 C1901 0.959 . S
H1890 C1904 0.929 . S
H1891 C1905 0.931 . S
H1892 C1907 0.930 . S
C1893 H1881 0.930 . S
C1893 C1894 1.399 . S
C1893 C1898 1.399 . S
C1894 C1893 1.399 . S
C1894 C1895 1.376 . S
C1895 H1882 0.930 . S
C1895 C1894 1.376 . S
C1895 C1896 1.388 . S
C1896 H1883 0.930 . S
C1896 C1895 1.388 . S
C1896 C1897 1.390 . S
C1897 C1896 1.390 . S
C1897 C1898 1.394 . S
C1897 C1903 1.465 . S
C1898 C1893 1.399 . S
C1898 C1897 1.394 . S
C1898 C1899 1.516 . S
C1899 C1898 1.516 . S
C1899 C1900 1.502 . S
C1899 C1901 1.561 . S
C1899 C1902 1.526 . S
C1900 H1884 0.959 . S
C1900 H1885 0.959 . S
C1900 H1886 0.961 . S
C1900 C1899 1.502 . S
C1901 H1887 0.960 . S
C1901 H1888 0.961 . S
C1901 H1889 0.959 . S
C1901 C1899 1.561 . S
C1902 C1899 1.526 . S
C1902 C1903 1.396 . S
C1902 C1907 1.390 . S
C1903 C1897 1.465 . S
C1903 C1902 1.396 . S
C1903 C1904 1.399 . S
C1904 H1890 0.929 . S
C1904 C1903 1.399 . S
C1904 C1905 1.385 . S
C1905 H1891 0.931 . S
C1905 C1904 1.385 . S
C1905 C1906 1.389 . S
C1906 C1905 1.389 . S
C1906 C1907 1.387 . S
C1907 H1892 0.930 . S
C1907 C1902 1.390 . S
C1907 C1906 1.387 . S
H1908 C1920 0.930 . S
H1909 C1922 0.930 . S
H1910 C1923 0.930 . S
H1911 C1927 0.959 . S
H1912 C1927 0.959 . S
H1913 C1927 0.961 . S
H1914 C1928 0.960 . S
H1915 C1928 0.961 . S
H1916 C1928 0.959 . S
H1917 C1931 0.929 . S
H1918 C1932 0.931 . S
H1919 C1934 0.930 . S
C1920 H1908 0.930 . S
C1920 C1921 1.399 . S
C1920 C1925 1.399 . S
C1921 C1920 1.399 . S
C1921 C1922 1.376 . S
C1922 H1909 0.930 . S
C1922 C1921 1.376 . S
C1922 C1923 1.388 . S
C1923 H1910 0.930 . S
C1923 C1922 1.388 . S
C1923 C1924 1.390 . S
C1924 C1923 1.390 . S
C1924 C1925 1.394 . S
C1924 C1930 1.465 . S
C1925 C1920 1.399 . S
C1925 C1924 1.394 . S
C1925 C1926 1.516 . S
C1926 C1925 1.516 . S
C1926 C1927 1.502 . S
C1926 C1928 1.561 . S
C1926 C1929 1.526 . S
C1927 H1911 0.959 . S
C1927 H1912 0.959 . S
C1927 H1913 0.961 . S
C1927 C1926 1.502 . S
C1928 H1914 0.960 . S
C1928 H1915 0.961 . S
C1928 H1916 0.959 . S
C1928 C1926 1.561 . S
C1929 C1926 1.526 . S
C1929 C1930 1.396 . S
C1929 C1934 1.390 . S
C1930 C1924 1.465 . S
C1930 C1929 1.396 . S
C1930 C1931 1.399 . S
C1931 H1917 0.929 . S
C1931 C1930 1.399 . S
C1931 C1932 1.385 . S
C1932 H1918 0.931 . S
C1932 C1931 1.385 . S
C1932 C1933 1.389 . S
C1933 C1932 1.389 . S
C1933 C1934 1.387 . S
C1934 H1919 0.930 . S
C1934 C1929 1.390 . S
C1934 C1933 1.387 . S
H1935 C1947 0.930 . S
H1936 C1949 0.930 . S
H1937 C1950 0.930 . S
H1938 C1954 0.959 . S
H1939 C1954 0.959 . S
H1940 C1954 0.961 . S
H1941 C1955 0.960 . S
H1942 C1955 0.961 . S
H1943 C1955 0.959 . S
H1944 C1958 0.929 . S
H1945 C1959 0.931 . S
H1946 C1961 0.930 . S
C1947 H1935 0.930 . S
C1947 C1948 1.399 . S
C1947 C1952 1.399 . S
C1948 C1947 1.399 . S
C1948 C1949 1.376 . S
C1949 H1936 0.930 . S
C1949 C1948 1.376 . S
C1949 C1950 1.388 . S
C1950 H1937 0.930 . S
C1950 C1949 1.388 . S
C1950 C1951 1.390 . S
C1951 C1950 1.390 . S
C1951 C1952 1.394 . S
C1951 C1957 1.465 . S
C1952 C1947 1.399 . S
C1952 C1951 1.394 . S
C1952 C1953 1.516 . S
C1953 C1952 1.516 . S
C1953 C1954 1.502 . S
C1953 C1955 1.561 . S
C1953 C1956 1.526 . S
C1954 H1938 0.959 . S
C1954 H1939 0.959 . S
C1954 H1940 0.961 . S
C1954 C1953 1.502 . S
C1955 H1941 0.960 . S
C1955 H1942 0.961 . S
C1955 H1943 0.959 . S
C1955 C1953 1.561 . S
C1956 C1953 1.526 . S
C1956 C1957 1.396 . S
C1956 C1961 1.390 . S
C1957 C1951 1.465 . S
C1957 C1956 1.396 . S
C1957 C1958 1.399 . S
C1958 H1944 0.929 . S
C1958 C1957 1.399 . S
C1958 C1959 1.385 . S
C1959 H1945 0.931 . S
C1959 C1958 1.385 . S
C1959 C1960 1.389 . S
C1960 C1959 1.389 . S
C1960 C1961 1.387 . S
C1961 H1946 0.930 . S
C1961 C1956 1.390 . S
C1961 C1960 1.387 . S
H1962 C1974 0.930 . S
H1963 C1976 0.930 . S
H1964 C1977 0.930 . S
H1965 C1981 0.959 . S
H1966 C1981 0.959 . S
H1967 C1981 0.961 . S
H1968 C1982 0.960 . S
H1969 C1982 0.961 . S
H1970 C1982 0.959 . S
H1971 C1985 0.929 . S
H1972 C1986 0.931 . S
H1973 C1988 0.930 . S
C1974 H1962 0.930 . S
C1974 C1975 1.399 . S
C1974 C1979 1.399 . S
C1975 C1974 1.399 . S
C1975 C1976 1.376 . S
C1976 H1963 0.930 . S
C1976 C1975 1.376 . S
C1976 C1977 1.388 . S
C1977 H1964 0.930 . S
C1977 C1976 1.388 . S
C1977 C1978 1.390 . S
C1978 C1977 1.390 . S
C1978 C1979 1.394 . S
C1978 C1984 1.465 . S
C1979 C1974 1.399 . S
C1979 C1978 1.394 . S
C1979 C1980 1.516 . S
C1980 C1979 1.516 . S
C1980 C1981 1.502 . S
C1980 C1982 1.561 . S
C1980 C1983 1.526 . S
C1981 H1965 0.959 . S
C1981 H1966 0.959 . S
C1981 H1967 0.961 . S
C1981 C1980 1.502 . S
C1982 H1968 0.960 . S
C1982 H1969 0.961 . S
C1982 H1970 0.959 . S
C1982 C1980 1.561 . S
C1983 C1980 1.526 . S
C1983 C1984 1.396 . S
C1983 C1988 1.390 . S
C1984 C1978 1.465 . S
C1984 C1983 1.396 . S
C1984 C1985 1.399 . S
C1985 H1971 0.929 . S
C1985 C1984 1.399 . S
C1985 C1986 1.385 . S
C1986 H1972 0.931 . S
C1986 C1985 1.385 . S
C1986 C1987 1.389 . S
C1987 C1986 1.389 . S
C1987 C1988 1.387 . S
C1988 H1973 0.930 . S
C1988 C1983 1.390 . S
C1988 C1987 1.387 . S
H1989 C2001 0.930 . S
H1990 C2003 0.930 . S
H1991 C2004 0.930 . S
H1992 C2008 0.959 . S
H1993 C2008 0.959 . S
H1994 C2008 0.961 . S
H1995 C2009 0.960 . S
H1996 C2009 0.961 . S
H1997 C2009 0.959 . S
H1998 C2012 0.929 . S
H1999 C2013 0.931 . S
H2000 C2015 0.930 . S
C2001 H1989 0.930 . S
C2001 C2002 1.399 . S
C2001 C2006 1.399 . S
C2002 C2001 1.399 . S
C2002 C2003 1.376 . S
C2003 H1990 0.930 . S
C2003 C2002 1.376 . S
C2003 C2004 1.388 . S
C2004 H1991 0.930 . S
C2004 C2003 1.388 . S
C2004 C2005 1.390 . S
C2005 C2004 1.390 . S
C2005 C2006 1.394 . S
C2005 C2011 1.465 . S
C2006 C2001 1.399 . S
C2006 C2005 1.394 . S
C2006 C2007 1.516 . S
C2007 C2006 1.516 . S
C2007 C2008 1.502 . S
C2007 C2009 1.561 . S
C2007 C2010 1.526 . S
C2008 H1992 0.959 . S
C2008 H1993 0.959 . S
C2008 H1994 0.961 . S
C2008 C2007 1.502 . S
C2009 H1995 0.960 . S
C2009 H1996 0.961 . S
C2009 H1997 0.959 . S
C2009 C2007 1.561 . S
C2010 C2007 1.526 . S
C2010 C2011 1.396 . S
C2010 C2015 1.390 . S
C2011 C2005 1.465 . S
C2011 C2010 1.396 . S
C2011 C2012 1.399 . S
C2012 H1998 0.929 . S
C2012 C2011 1.399 . S
C2012 C2013 1.385 . S
C2013 H1999 0.931 . S
C2013 C2012 1.385 . S
C2013 C2014 1.389 . S
C2014 C2013 1.389 . S
C2014 C2015 1.387 . S
C2015 H2000 0.930 . S
C2015 C2010 1.390 . S
C2015 C2014 1.387 . S
H2016 C2028 0.930 . S
H2017 C2030 0.930 . S
H2018 C2031 0.930 . S
H2019 C2035 0.959 . S
H2020 C2035 0.959 . S
H2021 C2035 0.961 . S
H2022 C2036 0.960 . S
H2023 C2036 0.961 . S
H2024 C2036 0.959 . S
H2025 C2039 0.929 . S
H2026 C2040 0.931 . S
H2027 C2042 0.930 . S
C2028 H2016 0.930 . S
C2028 C2029 1.399 . S
C2028 C2033 1.399 . S
C2029 C2028 1.399 . S
C2029 C2030 1.376 . S
C2030 H2017 0.930 . S
C2030 C2029 1.376 . S
C2030 C2031 1.388 . S
C2031 H2018 0.930 . S
C2031 C2030 1.388 . S
C2031 C2032 1.390 . S
C2032 C2031 1.390 . S
C2032 C2033 1.394 . S
C2032 C2038 1.465 . S
C2033 C2028 1.399 . S
C2033 C2032 1.394 . S
C2033 C2034 1.516 . S
C2034 C2033 1.516 . S
C2034 C2035 1.502 . S
C2034 C2036 1.561 . S
C2034 C2037 1.526 . S
C2035 H2019 0.959 . S
C2035 H2020 0.959 . S
C2035 H2021 0.961 . S
C2035 C2034 1.502 . S
C2036 H2022 0.960 . S
C2036 H2023 0.961 . S
C2036 H2024 0.959 . S
C2036 C2034 1.561 . S
C2037 C2034 1.526 . S
C2037 C2038 1.396 . S
C2037 C2042 1.390 . S
C2038 C2032 1.465 . S
C2038 C2037 1.396 . S
C2038 C2039 1.399 . S
C2039 H2025 0.929 . S
C2039 C2038 1.399 . S
C2039 C2040 1.385 . S
C2040 H2026 0.931 . S
C2040 C2039 1.385 . S
C2040 C2041 1.389 . S
C2041 C2040 1.389 . S
C2041 C2042 1.387 . S
C2042 H2027 0.930 . S
C2042 C2037 1.390 . S
C2042 C2041 1.387 . S
H2043 C2055 0.930 . S
H2044 C2057 0.930 . S
H2045 C2058 0.930 . S
H2046 C2062 0.959 . S
H2047 C2062 0.959 . S
H2048 C2062 0.961 . S
H2049 C2063 0.960 . S
H2050 C2063 0.961 . S
H2051 C2063 0.959 . S
H2052 C2066 0.929 . S
H2053 C2067 0.931 . S
H2054 C2069 0.930 . S
C2055 H2043 0.930 . S
C2055 C2056 1.399 . S
C2055 C2060 1.399 . S
C2056 C2055 1.399 . S
C2056 C2057 1.376 . S
C2057 H2044 0.930 . S
C2057 C2056 1.376 . S
C2057 C2058 1.388 . S
C2058 H2045 0.930 . S
C2058 C2057 1.388 . S
C2058 C2059 1.390 . S
C2059 C2058 1.390 . S
C2059 C2060 1.394 . S
C2059 C2065 1.465 . S
C2060 C2055 1.399 . S
C2060 C2059 1.394 . S
C2060 C2061 1.516 . S
C2061 C2060 1.516 . S
C2061 C2062 1.502 . S
C2061 C2063 1.561 . S
C2061 C2064 1.526 . S
C2062 H2046 0.959 . S
C2062 H2047 0.959 . S
C2062 H2048 0.961 . S
C2062 C2061 1.502 . S
C2063 H2049 0.960 . S
C2063 H2050 0.961 . S
C2063 H2051 0.959 . S
C2063 C2061 1.561 . S
C2064 C2061 1.526 . S
C2064 C2065 1.396 . S
C2064 C2069 1.390 . S
C2065 C2059 1.465 . S
C2065 C2064 1.396 . S
C2065 C2066 1.399 . S
C2066 H2052 0.929 . S
C2066 C2065 1.399 . S
C2066 C2067 1.385 . S
C2067 H2053 0.931 . S
C2067 C2066 1.385 . S
C2067 C2068 1.389 . S
C2068 C2067 1.389 . S
C2068 C2069 1.387 . S
C2069 H2054 0.930 . S
C2069 C2064 1.390 . S
C2069 C2068 1.387 . S
H2070 C2082 0.930 . S
H2071 C2084 0.930 . S
H2072 C2085 0.930 . S
H2073 C2089 0.959 . S
H2074 C2089 0.959 . S
H2075 C2089 0.961 . S
H2076 C2090 0.960 . S
H2077 C2090 0.961 . S
H2078 C2090 0.959 . S
H2079 C2093 0.929 . S
H2080 C2094 0.931 . S
H2081 C2096 0.930 . S
C2082 H2070 0.930 . S
C2082 C2083 1.399 . S
C2082 C2087 1.399 . S
C2083 C2082 1.399 . S
C2083 C2084 1.376 . S
C2084 H2071 0.930 . S
C2084 C2083 1.376 . S
C2084 C2085 1.388 . S
C2085 H2072 0.930 . S
C2085 C2084 1.388 . S
C2085 C2086 1.390 . S
C2086 C2085 1.390 . S
C2086 C2087 1.394 . S
C2086 C2092 1.465 . S
C2087 C2082 1.399 . S
C2087 C2086 1.394 . S
C2087 C2088 1.516 . S
C2088 C2087 1.516 . S
C2088 C2089 1.502 . S
C2088 C2090 1.561 . S
C2088 C2091 1.526 . S
C2089 H2073 0.959 . S
C2089 H2074 0.959 . S
C2089 H2075 0.961 . S
C2089 C2088 1.502 . S
C2090 H2076 0.960 . S
C2090 H2077 0.961 . S
C2090 H2078 0.959 . S
C2090 C2088 1.561 . S
C2091 C2088 1.526 . S
C2091 C2092 1.396 . S
C2091 C2096 1.390 . S
C2092 C2086 1.465 . S
C2092 C2091 1.396 . S
C2092 C2093 1.399 . S
C2093 H2079 0.929 . S
C2093 C2092 1.399 . S
C2093 C2094 1.385 . S
C2094 H2080 0.931 . S
C2094 C2093 1.385 . S
C2094 C2095 1.389 . S
C2095 C2094 1.389 . S
C2095 C2096 1.387 . S
C2096 H2081 0.930 . S
C2096 C2091 1.390 . S
C2096 C2095 1.387 . S
H2097 C2109 0.930 . S
H2098 C2111 0.930 . S
H2099 C2112 0.930 . S
H2100 C2116 0.959 . S
H2101 C2116 0.959 . S
H2102 C2116 0.961 . S
H2103 C2117 0.960 . S
H2104 C2117 0.961 . S
H2105 C2117 0.959 . S
H2106 C2120 0.929 . S
H2107 C2121 0.931 . S
H2108 C2123 0.930 . S
C2109 H2097 0.930 . S
C2109 C2110 1.399 . S
C2109 C2114 1.399 . S
C2110 C2109 1.399 . S
C2110 C2111 1.376 . S
C2111 H2098 0.930 . S
C2111 C2110 1.376 . S
C2111 C2112 1.388 . S
C2112 H2099 0.930 . S
C2112 C2111 1.388 . S
C2112 C2113 1.390 . S
C2113 C2112 1.390 . S
C2113 C2114 1.394 . S
C2113 C2119 1.465 . S
C2114 C2109 1.399 . S
C2114 C2113 1.394 . S
C2114 C2115 1.516 . S
C2115 C2114 1.516 . S
C2115 C2116 1.502 . S
C2115 C2117 1.561 . S
C2115 C2118 1.526 . S
C2116 H2100 0.959 . S
C2116 H2101 0.959 . S
C2116 H2102 0.961 . S
C2116 C2115 1.502 . S
C2117 H2103 0.960 . S
C2117 H2104 0.961 . S
C2117 H2105 0.959 . S
C2117 C2115 1.561 . S
C2118 C2115 1.526 . S
C2118 C2119 1.396 . S
C2118 C2123 1.390 . S
C2119 C2113 1.465 . S
C2119 C2118 1.396 . S
C2119 C2120 1.399 . S
C2120 H2106 0.929 . S
C2120 C2119 1.399 . S
C2120 C2121 1.385 . S
C2121 H2107 0.931 . S
C2121 C2120 1.385 . S
C2121 C2122 1.389 . S
C2122 C2121 1.389 . S
C2122 C2123 1.387 . S
C2123 H2108 0.930 . S
C2123 C2118 1.390 . S
C2123 C2122 1.387 . S
H2124 C2136 0.930 . S
H2125 C2138 0.930 . S
H2126 C2139 0.930 . S
H2127 C2143 0.959 . S
H2128 C2143 0.959 . S
H2129 C2143 0.961 . S
H2130 C2144 0.960 . S
H2131 C2144 0.961 . S
H2132 C2144 0.959 . S
H2133 C2147 0.929 . S
H2134 C2148 0.931 . S
H2135 C2150 0.930 . S
C2136 H2124 0.930 . S
C2136 C2137 1.399 . S
C2136 C2141 1.399 . S
C2137 C2136 1.399 . S
C2137 C2138 1.376 . S
C2138 H2125 0.930 . S
C2138 C2137 1.376 . S
C2138 C2139 1.388 . S
C2139 H2126 0.930 . S
C2139 C2138 1.388 . S
C2139 C2140 1.390 . S
C2140 C2139 1.390 . S
C2140 C2141 1.394 . S
C2140 C2146 1.465 . S
C2141 C2136 1.399 . S
C2141 C2140 1.394 . S
C2141 C2142 1.516 . S
C2142 C2141 1.516 . S
C2142 C2143 1.502 . S
C2142 C2144 1.561 . S
C2142 C2145 1.526 . S
C2143 H2127 0.959 . S
C2143 H2128 0.959 . S
C2143 H2129 0.961 . S
C2143 C2142 1.502 . S
C2144 H2130 0.960 . S
C2144 H2131 0.961 . S
C2144 H2132 0.959 . S
C2144 C2142 1.561 . S
C2145 C2142 1.526 . S
C2145 C2146 1.396 . S
C2145 C2150 1.390 . S
C2146 C2140 1.465 . S
C2146 C2145 1.396 . S
C2146 C2147 1.399 . S
C2147 H2133 0.929 . S
C2147 C2146 1.399 . S
C2147 C2148 1.385 . S
C2148 H2134 0.931 . S
C2148 C2147 1.385 . S
C2148 C2149 1.389 . S
C2149 C2148 1.389 . S
C2149 C2150 1.387 . S
C2150 H2135 0.930 . S
C2150 C2145 1.390 . S
C2150 C2149 1.387 . S
H2151 C2163 0.930 . S
H2152 C2165 0.930 . S
H2153 C2166 0.930 . S
H2154 C2170 0.959 . S
H2155 C2170 0.959 . S
H2156 C2170 0.961 . S
H2157 C2171 0.960 . S
H2158 C2171 0.961 . S
H2159 C2171 0.959 . S
H2160 C2174 0.929 . S
H2161 C2175 0.931 . S
H2162 C2177 0.930 . S
C2163 H2151 0.930 . S
C2163 C2164 1.399 . S
C2163 C2168 1.399 . S
C2164 C2163 1.399 . S
C2164 C2165 1.376 . S
C2165 H2152 0.930 . S
C2165 C2164 1.376 . S
C2165 C2166 1.388 . S
C2166 H2153 0.930 . S
C2166 C2165 1.388 . S
C2166 C2167 1.390 . S
C2167 C2166 1.390 . S
C2167 C2168 1.394 . S
C2167 C2173 1.465 . S
C2168 C2163 1.399 . S
C2168 C2167 1.394 . S
C2168 C2169 1.516 . S
C2169 C2168 1.516 . S
C2169 C2170 1.502 . S
C2169 C2171 1.561 . S
C2169 C2172 1.526 . S
C2170 H2154 0.959 . S
C2170 H2155 0.959 . S
C2170 H2156 0.961 . S
C2170 C2169 1.502 . S
C2171 H2157 0.960 . S
C2171 H2158 0.961 . S
C2171 H2159 0.959 . S
C2171 C2169 1.561 . S
C2172 C2169 1.526 . S
C2172 C2173 1.396 . S
C2172 C2177 1.390 . S
C2173 C2167 1.465 . S
C2173 C2172 1.396 . S
C2173 C2174 1.399 . S
C2174 H2160 0.929 . S
C2174 C2173 1.399 . S
C2174 C2175 1.385 . S
C2175 H2161 0.931 . S
C2175 C2174 1.385 . S
C2175 C2176 1.389 . S
C2176 C2175 1.389 . S
C2176 C2177 1.387 . S
C2177 H2162 0.930 . S
C2177 C2172 1.390 . S
C2177 C2176 1.387 . S
H2178 C2190 0.930 . S
H2179 C2192 0.930 . S
H2180 C2193 0.930 . S
H2181 C2197 0.959 . S
H2182 C2197 0.959 . S
H2183 C2197 0.961 . S
H2184 C2198 0.960 . S
H2185 C2198 0.961 . S
H2186 C2198 0.959 . S
H2187 C2201 0.929 . S
H2188 C2202 0.931 . S
H2189 C2204 0.930 . S
C2190 H2178 0.930 . S
C2190 C2191 1.399 . S
C2190 C2195 1.399 . S
C2191 C2190 1.399 . S
C2191 C2192 1.376 . S
C2192 H2179 0.930 . S
C2192 C2191 1.376 . S
C2192 C2193 1.388 . S
C2193 H2180 0.930 . S
C2193 C2192 1.388 . S
C2193 C2194 1.390 . S
C2194 C2193 1.390 . S
C2194 C2195 1.394 . S
C2194 C2200 1.465 . S
C2195 C2190 1.399 . S
C2195 C2194 1.394 . S
C2195 C2196 1.516 . S
C2196 C2195 1.516 . S
C2196 C2197 1.502 . S
C2196 C2198 1.561 . S
C2196 C2199 1.526 . S
C2197 H2181 0.959 . S
C2197 H2182 0.959 . S
C2197 H2183 0.961 . S
C2197 C2196 1.502 . S
C2198 H2184 0.960 . S
C2198 H2185 0.961 . S
C2198 H2186 0.959 . S
C2198 C2196 1.561 . S
C2199 C2196 1.526 . S
C2199 C2200 1.396 . S
C2199 C2204 1.390 . S
C2200 C2194 1.465 . S
C2200 C2199 1.396 . S
C2200 C2201 1.399 . S
C2201 H2187 0.929 . S
C2201 C2200 1.399 . S
C2201 C2202 1.385 . S
C2202 H2188 0.931 . S
C2202 C2201 1.385 . S
C2202 C2203 1.389 . S
C2203 C2202 1.389 . S
C2203 C2204 1.387 . S
C2204 H2189 0.930 . S
C2204 C2199 1.390 . S
C2204 C2203 1.387 . S
H2205 C2217 0.930 . S
H2206 C2219 0.930 . S
H2207 C2220 0.930 . S
H2208 C2224 0.959 . S
H2209 C2224 0.959 . S
H2210 C2224 0.961 . S
H2211 C2225 0.960 . S
H2212 C2225 0.961 . S
H2213 C2225 0.959 . S
H2214 C2228 0.929 . S
H2215 C2229 0.931 . S
H2216 C2231 0.930 . S
C2217 H2205 0.930 . S
C2217 C2218 1.399 . S
C2217 C2222 1.399 . S
C2218 C2217 1.399 . S
C2218 C2219 1.376 . S
C2219 H2206 0.930 . S
C2219 C2218 1.376 . S
C2219 C2220 1.388 . S
C2220 H2207 0.930 . S
C2220 C2219 1.388 . S
C2220 C2221 1.390 . S
C2221 C2220 1.390 . S
C2221 C2222 1.394 . S
C2221 C2227 1.465 . S
C2222 C2217 1.399 . S
C2222 C2221 1.394 . S
C2222 C2223 1.516 . S
C2223 C2222 1.516 . S
C2223 C2224 1.502 . S
C2223 C2225 1.561 . S
C2223 C2226 1.526 . S
C2224 H2208 0.959 . S
C2224 H2209 0.959 . S
C2224 H2210 0.961 . S
C2224 C2223 1.502 . S
C2225 H2211 0.960 . S
C2225 H2212 0.961 . S
C2225 H2213 0.959 . S
C2225 C2223 1.561 . S
C2226 C2223 1.526 . S
C2226 C2227 1.396 . S
C2226 C2231 1.390 . S
C2227 C2221 1.465 . S
C2227 C2226 1.396 . S
C2227 C2228 1.399 . S
C2228 H2214 0.929 . S
C2228 C2227 1.399 . S
C2228 C2229 1.385 . S
C2229 H2215 0.931 . S
C2229 C2228 1.385 . S
C2229 C2230 1.389 . S
C2230 C2229 1.389 . S
C2230 C2231 1.387 . S
C2231 H2216 0.930 . S
C2231 C2226 1.390 . S
C2231 C2230 1.387 . S
H2232 C2244 0.930 . S
H2233 C2246 0.930 . S
H2234 C2247 0.930 . S
H2235 C2251 0.959 . S
H2236 C2251 0.959 . S
H2237 C2251 0.961 . S
H2238 C2252 0.960 . S
H2239 C2252 0.961 . S
H2240 C2252 0.959 . S
H2241 C2255 0.929 . S
H2242 C2256 0.931 . S
H2243 C2258 0.930 . S
C2244 H2232 0.930 . S
C2244 C2245 1.399 . S
C2244 C2249 1.399 . S
C2245 C2244 1.399 . S
C2245 C2246 1.376 . S
C2246 H2233 0.930 . S
C2246 C2245 1.376 . S
C2246 C2247 1.388 . S
C2247 H2234 0.930 . S
C2247 C2246 1.388 . S
C2247 C2248 1.390 . S
C2248 C2247 1.390 . S
C2248 C2249 1.394 . S
C2248 C2254 1.465 . S
C2249 C2244 1.399 . S
C2249 C2248 1.394 . S
C2249 C2250 1.516 . S
C2250 C2249 1.516 . S
C2250 C2251 1.502 . S
C2250 C2252 1.561 . S
C2250 C2253 1.526 . S
C2251 H2235 0.959 . S
C2251 H2236 0.959 . S
C2251 H2237 0.961 . S
C2251 C2250 1.502 . S
C2252 H2238 0.960 . S
C2252 H2239 0.961 . S
C2252 H2240 0.959 . S
C2252 C2250 1.561 . S
C2253 C2250 1.526 . S
C2253 C2254 1.396 . S
C2253 C2258 1.390 . S
C2254 C2248 1.465 . S
C2254 C2253 1.396 . S
C2254 C2255 1.399 . S
C2255 H2241 0.929 . S
C2255 C2254 1.399 . S
C2255 C2256 1.385 . S
C2256 H2242 0.931 . S
C2256 C2255 1.385 . S
C2256 C2257 1.389 . S
C2257 C2256 1.389 . S
C2257 C2258 1.387 . S
C2258 H2243 0.930 . S
C2258 C2253 1.390 . S
C2258 C2257 1.387 . S
H2259 C2271 0.930 . S
H2260 C2273 0.930 . S
H2261 C2274 0.930 . S
H2262 C2278 0.959 . S
H2263 C2278 0.959 . S
H2264 C2278 0.961 . S
H2265 C2279 0.960 . S
H2266 C2279 0.961 . S
H2267 C2279 0.959 . S
H2268 C2282 0.929 . S
H2269 C2283 0.931 . S
H2270 C2285 0.930 . S
C2271 H2259 0.930 . S
C2271 C2272 1.399 . S
C2271 C2276 1.399 . S
C2272 C2271 1.399 . S
C2272 C2273 1.376 . S
C2273 H2260 0.930 . S
C2273 C2272 1.376 . S
C2273 C2274 1.388 . S
C2274 H2261 0.930 . S
C2274 C2273 1.388 . S
C2274 C2275 1.390 . S
C2275 C2274 1.390 . S
C2275 C2276 1.394 . S
C2275 C2281 1.465 . S
C2276 C2271 1.399 . S
C2276 C2275 1.394 . S
C2276 C2277 1.516 . S
C2277 C2276 1.516 . S
C2277 C2278 1.502 . S
C2277 C2279 1.561 . S
C2277 C2280 1.526 . S
C2278 H2262 0.959 . S
C2278 H2263 0.959 . S
C2278 H2264 0.961 . S
C2278 C2277 1.502 . S
C2279 H2265 0.960 . S
C2279 H2266 0.961 . S
C2279 H2267 0.959 . S
C2279 C2277 1.561 . S
C2280 C2277 1.526 . S
C2280 C2281 1.396 . S
C2280 C2285 1.390 . S
C2281 C2275 1.465 . S
C2281 C2280 1.396 . S
C2281 C2282 1.399 . S
C2282 H2268 0.929 . S
C2282 C2281 1.399 . S
C2282 C2283 1.385 . S
C2283 H2269 0.931 . S
C2283 C2282 1.385 . S
C2283 C2284 1.389 . S
C2284 C2283 1.389 . S
C2284 C2285 1.387 . S
C2285 H2270 0.930 . S
C2285 C2280 1.390 . S
C2285 C2284 1.387 . S
H2286 C2298 0.930 . S
H2287 C2300 0.930 . S
H2288 C2301 0.930 . S
H2289 C2305 0.959 . S
H2290 C2305 0.959 . S
H2291 C2305 0.961 . S
H2292 C2306 0.960 . S
H2293 C2306 0.961 . S
H2294 C2306 0.959 . S
H2295 C2309 0.929 . S
H2296 C2310 0.931 . S
H2297 C2312 0.930 . S
C2298 H2286 0.930 . S
C2298 C2299 1.399 . S
C2298 C2303 1.399 . S
C2299 C2298 1.399 . S
C2299 C2300 1.376 . S
C2300 H2287 0.930 . S
C2300 C2299 1.376 . S
C2300 C2301 1.388 . S
C2301 H2288 0.930 . S
C2301 C2300 1.388 . S
C2301 C2302 1.390 . S
C2302 C2301 1.390 . S
C2302 C2303 1.394 . S
C2302 C2308 1.465 . S
C2303 C2298 1.399 . S
C2303 C2302 1.394 . S
C2303 C2304 1.516 . S
C2304 C2303 1.516 . S
C2304 C2305 1.502 . S
C2304 C2306 1.561 . S
C2304 C2307 1.526 . S
C2305 H2289 0.959 . S
C2305 H2290 0.959 . S
C2305 H2291 0.961 . S
C2305 C2304 1.502 . S
C2306 H2292 0.960 . S
C2306 H2293 0.961 . S
C2306 H2294 0.959 . S
C2306 C2304 1.561 . S
C2307 C2304 1.526 . S
C2307 C2308 1.396 . S
C2307 C2312 1.390 . S
C2308 C2302 1.465 . S
C2308 C2307 1.396 . S
C2308 C2309 1.399 . S
C2309 H2295 0.929 . S
C2309 C2308 1.399 . S
C2309 C2310 1.385 . S
C2310 H2296 0.931 . S
C2310 C2309 1.385 . S
C2310 C2311 1.389 . S
C2311 C2310 1.389 . S
C2311 C2312 1.387 . S
C2312 H2297 0.930 . S
C2312 C2307 1.390 . S
C2312 C2311 1.387 . S
H2313 C2325 0.930 . S
H2314 C2327 0.930 . S
H2315 C2328 0.930 . S
H2316 C2332 0.959 . S
H2317 C2332 0.959 . S
H2318 C2332 0.961 . S
H2319 C2333 0.960 . S
H2320 C2333 0.961 . S
H2321 C2333 0.959 . S
H2322 C2336 0.929 . S
H2323 C2337 0.931 . S
H2324 C2339 0.930 . S
C2325 H2313 0.930 . S
C2325 C2326 1.399 . S
C2325 C2330 1.399 . S
C2326 C2325 1.399 . S
C2326 C2327 1.376 . S
C2327 H2314 0.930 . S
C2327 C2326 1.376 . S
C2327 C2328 1.388 . S
C2328 H2315 0.930 . S
C2328 C2327 1.388 . S
C2328 C2329 1.390 . S
C2329 C2328 1.390 . S
C2329 C2330 1.394 . S
C2329 C2335 1.465 . S
C2330 C2325 1.399 . S
C2330 C2329 1.394 . S
C2330 C2331 1.516 . S
C2331 C2330 1.516 . S
C2331 C2332 1.502 . S
C2331 C2333 1.561 . S
C2331 C2334 1.526 . S
C2332 H2316 0.959 . S
C2332 H2317 0.959 . S
C2332 H2318 0.961 . S
C2332 C2331 1.502 . S
C2333 H2319 0.960 . S
C2333 H2320 0.961 . S
C2333 H2321 0.959 . S
C2333 C2331 1.561 . S
C2334 C2331 1.526 . S
C2334 C2335 1.396 . S
C2334 C2339 1.390 . S
C2335 C2329 1.465 . S
C2335 C2334 1.396 . S
C2335 C2336 1.399 . S
C2336 H2322 0.929 . S
C2336 C2335 1.399 . S
C2336 C2337 1.385 . S
C2337 H2323 0.931 . S
C2337 C2336 1.385 . S
C2337 C2338 1.389 . S
C2338 C2337 1.389 . S
C2338 C2339 1.387 . S
C2339 H2324 0.930 . S
C2339 C2334 1.390 . S
C2339 C2338 1.387 . S
H2340 C2352 0.930 . S
H2341 C2354 0.930 . S
H2342 C2355 0.930 . S
H2343 C2359 0.959 . S
H2344 C2359 0.959 . S
H2345 C2359 0.961 . S
H2346 C2360 0.960 . S
H2347 C2360 0.961 . S
H2348 C2360 0.959 . S
H2349 C2363 0.929 . S
H2350 C2364 0.931 . S
H2351 C2366 0.930 . S
C2352 H2340 0.930 . S
C2352 C2353 1.399 . S
C2352 C2357 1.399 . S
C2353 C2352 1.399 . S
C2353 C2354 1.376 . S
C2354 H2341 0.930 . S
C2354 C2353 1.376 . S
C2354 C2355 1.388 . S
C2355 H2342 0.930 . S
C2355 C2354 1.388 . S
C2355 C2356 1.390 . S
C2356 C2355 1.390 . S
C2356 C2357 1.394 . S
C2356 C2362 1.465 . S
C2357 C2352 1.399 . S
C2357 C2356 1.394 . S
C2357 C2358 1.516 . S
C2358 C2357 1.516 . S
C2358 C2359 1.502 . S
C2358 C2360 1.561 . S
C2358 C2361 1.526 . S
C2359 H2343 0.959 . S
C2359 H2344 0.959 . S
C2359 H2345 0.961 . S
C2359 C2358 1.502 . S
C2360 H2346 0.960 . S
C2360 H2347 0.961 . S
C2360 H2348 0.959 . S
C2360 C2358 1.561 . S
C2361 C2358 1.526 . S
C2361 C2362 1.396 . S
C2361 C2366 1.390 . S
C2362 C2356 1.465 . S
C2362 C2361 1.396 . S
C2362 C2363 1.399 . S
C2363 H2349 0.929 . S
C2363 C2362 1.399 . S
C2363 C2364 1.385 . S
C2364 H2350 0.931 . S
C2364 C2363 1.385 . S
C2364 C2365 1.389 . S
C2365 C2364 1.389 . S
C2365 C2366 1.387 . S
C2366 H2351 0.930 . S
C2366 C2361 1.390 . S
C2366 C2365 1.387 . S
H2367 C2379 0.930 . S
H2368 C2381 0.930 . S
H2369 C2382 0.930 . S
H2370 C2386 0.959 . S
H2371 C2386 0.959 . S
H2372 C2386 0.961 . S
H2373 C2387 0.960 . S
H2374 C2387 0.961 . S
H2375 C2387 0.959 . S
H2376 C2390 0.929 . S
H2377 C2391 0.931 . S
H2378 C2393 0.930 . S
C2379 H2367 0.930 . S
C2379 C2380 1.399 . S
C2379 C2384 1.399 . S
C2380 C2379 1.399 . S
C2380 C2381 1.376 . S
C2381 H2368 0.930 . S
C2381 C2380 1.376 . S
C2381 C2382 1.388 . S
C2382 H2369 0.930 . S
C2382 C2381 1.388 . S
C2382 C2383 1.390 . S
C2383 C2382 1.390 . S
C2383 C2384 1.394 . S
C2383 C2389 1.465 . S
C2384 C2379 1.399 . S
C2384 C2383 1.394 . S
C2384 C2385 1.516 . S
C2385 C2384 1.516 . S
C2385 C2386 1.502 . S
C2385 C2387 1.561 . S
C2385 C2388 1.526 . S
C2386 H2370 0.959 . S
C2386 H2371 0.959 . S
C2386 H2372 0.961 . S
C2386 C2385 1.502 . S
C2387 H2373 0.960 . S
C2387 H2374 0.961 . S
C2387 H2375 0.959 . S
C2387 C2385 1.561 . S
C2388 C2385 1.526 . S
C2388 C2389 1.396 . S
C2388 C2393 1.390 . S
C2389 C2383 1.465 . S
C2389 C2388 1.396 . S
C2389 C2390 1.399 . S
C2390 H2376 0.929 . S
C2390 C2389 1.399 . S
C2390 C2391 1.385 . S
C2391 H2377 0.931 . S
C2391 C2390 1.385 . S
C2391 C2392 1.389 . S
C2392 C2391 1.389 . S
C2392 C2393 1.387 . S
C2393 H2378 0.930 . S
C2393 C2388 1.390 . S
C2393 C2392 1.387 . S
H2394 C2406 0.930 . S
H2395 C2408 0.930 . S
H2396 C2409 0.930 . S
H2397 C2413 0.959 . S
H2398 C2413 0.959 . S
H2399 C2413 0.961 . S
H2400 C2414 0.960 . S
H2401 C2414 0.961 . S
H2402 C2414 0.959 . S
H2403 C2417 0.929 . S
H2404 C2418 0.931 . S
H2405 C2420 0.930 . S
C2406 H2394 0.930 . S
C2406 C2407 1.399 . S
C2406 C2411 1.399 . S
C2407 C2406 1.399 . S
C2407 C2408 1.376 . S
C2408 H2395 0.930 . S
C2408 C2407 1.376 . S
C2408 C2409 1.388 . S
C2409 H2396 0.930 . S
C2409 C2408 1.388 . S
C2409 C2410 1.390 . S
C2410 C2409 1.390 . S
C2410 C2411 1.394 . S
C2410 C2416 1.465 . S
C2411 C2406 1.399 . S
C2411 C2410 1.394 . S
C2411 C2412 1.516 . S
C2412 C2411 1.516 . S
C2412 C2413 1.502 . S
C2412 C2414 1.561 . S
C2412 C2415 1.526 . S
C2413 H2397 0.959 . S
C2413 H2398 0.959 . S
C2413 H2399 0.961 . S
C2413 C2412 1.502 . S
C2414 H2400 0.960 . S
C2414 H2401 0.961 . S
C2414 H2402 0.959 . S
C2414 C2412 1.561 . S
C2415 C2412 1.526 . S
C2415 C2416 1.396 . S
C2415 C2420 1.390 . S
C2416 C2410 1.465 . S
C2416 C2415 1.396 . S
C2416 C2417 1.399 . S
C2417 H2403 0.929 . S
C2417 C2416 1.399 . S
C2417 C2418 1.385 . S
C2418 H2404 0.931 . S
C2418 C2417 1.385 . S
C2418 C2419 1.389 . S
C2419 C2418 1.389 . S
C2419 C2420 1.387 . S
C2420 H2405 0.930 . S
C2420 C2415 1.390 . S
C2420 C2419 1.387 . S
H2421 C2433 0.930 . S
H2422 C2435 0.930 . S
H2423 C2436 0.930 . S
H2424 C2440 0.959 . S
H2425 C2440 0.959 . S
H2426 C2440 0.961 . S
H2427 C2441 0.960 . S
H2428 C2441 0.961 . S
H2429 C2441 0.959 . S
H2430 C2444 0.929 . S
H2431 C2445 0.931 . S
H2432 C2447 0.930 . S
C2433 H2421 0.930 . S
C2433 C2434 1.399 . S
C2433 C2438 1.399 . S
C2434 C2433 1.399 . S
C2434 C2435 1.376 . S
C2435 H2422 0.930 . S
C2435 C2434 1.376 . S
C2435 C2436 1.388 . S
C2436 H2423 0.930 . S
C2436 C2435 1.388 . S
C2436 C2437 1.390 . S
C2437 C2436 1.390 . S
C2437 C2438 1.394 . S
C2437 C2443 1.465 . S
C2438 C2433 1.399 . S
C2438 C2437 1.394 . S
C2438 C2439 1.516 . S
C2439 C2438 1.516 . S
C2439 C2440 1.502 . S
C2439 C2441 1.561 . S
C2439 C2442 1.526 . S
C2440 H2424 0.959 . S
C2440 H2425 0.959 . S
C2440 H2426 0.961 . S
C2440 C2439 1.502 . S
C2441 H2427 0.960 . S
C2441 H2428 0.961 . S
C2441 H2429 0.959 . S
C2441 C2439 1.561 . S
C2442 C2439 1.526 . S
C2442 C2443 1.396 . S
C2442 C2447 1.390 . S
C2443 C2437 1.465 . S
C2443 C2442 1.396 . S
C2443 C2444 1.399 . S
C2444 H2430 0.929 . S
C2444 C2443 1.399 . S
C2444 C2445 1.385 . S
C2445 H2431 0.931 . S
C2445 C2444 1.385 . S
C2445 C2446 1.389 . S
C2446 C2445 1.389 . S
C2446 C2447 1.387 . S
C2447 H2432 0.930 . S
C2447 C2442 1.390 . S
C2447 C2446 1.387 . S
C517 C11 0.955 . S
C529 C165 0.939 . S
C544 C137 1.006 . S
C556 C25 1.018 . S
C571 C151 0.984 . S
C583 C39 1.001 . S
C598 C53 1.027 . S
C610 C109 1.029 . S
C625 C67 0.913 . S
C637 C123 0.910 . S
C652 C81 0.916 . S
C664 C95 0.928 . S
C679 C179 0.998 . S
C691 C333 1.012 . S
C706 C305 0.990 . S
C718 C193 0.971 . S
C733 C207 1.026 . S
C745 C319 1.029 . S
C760 C221 1.026 . S
C772 C277 1.029 . S
C787 C235 1.026 . S
C799 C291 1.029 . S
C814 C249 1.031 . S
C826 C263 1.028 . S
C841 C347 0.931 . S
C853 C501 0.948 . S
C868 C361 0.913 . S
C880 C473 0.910 . S
C895 C487 0.994 . S
C907 C375 0.977 . S
C922 C389 1.027 . S
C934 C445 1.029 . S
C949 C459 0.976 . S
C961 C403 0.994 . S
C976 C431 0.997 . S
C988 C417 1.011 . S
C1003 C5 1.132 . S
C1015 C215 1.145 . S
C1030 C19 1.126 . S
C1042 C229 1.055 . S
C1057 C33 1.088 . S
C1069 C243 1.014 . S
C1084 C47 1.042 . S
C1096 C341 0.988 . S
C1111 C355 1.100 . S
C1123 C61 1.146 . S
C1138 C369 1.032 . S
C1150 C75 1.108 . S
C1165 C89 0.983 . S
C1177 C467 0.985 . S
C1192 C481 1.024 . S
C1204 C103 1.051 . S
C1219 C117 1.146 . S
C1231 C495 1.147 . S
C1246 C131 1.145 . S
C1258 C257 1.147 . S
C1273 C145 1.149 . S
C1285 C271 1.144 . S
C1300 C159 1.046 . S
C1312 C285 1.074 . S
C1327 C383 0.985 . S
C1339 C173 1.039 . S
C1354 C187 0.990 . S
C1366 C397 1.054 . S
C1381 C201 0.998 . S
C1393 C411 1.067 . S
C1408 C425 1.112 . S
C1420 C299 1.130 . S
C1435 C439 1.090 . S
C1447 C313 1.063 . S
C1462 C327 1.037 . S
C1474 C453 1.064 . S
C1489 C12 1.427 . S
C1501 C68 1.426 . S
C1516 C82 1.426 . S
C1528 C26 1.427 . S
C1543 C54 1.412 . S
C1555 C40 1.419 . S
C1570 C96 1.418 . S
C1582 C152 1.420 . S
C1597 C166 1.417 . S
C1609 C110 1.418 . S
C1624 C124 1.424 . S
C1636 C138 1.423 . S
C1651 C236 1.415 . S
C1663 C180 1.421 . S
C1678 C194 1.412 . S
C1690 C250 1.406 . S
C1705 C208 1.403 . S
C1717 C222 1.409 . S
C1732 C320 1.401 . S
C1744 C264 1.402 . S
C1759 C334 1.410 . S
C1771 C278 1.409 . S
C1786 C306 1.405 . S
C1798 C292 1.406 . S
C1813 C348 1.426 . S
C1825 C404 1.427 . S
C1840 C362 1.414 . S
C1852 C418 1.421 . S
C1867 C376 1.427 . S
C1879 C390 1.426 . S
C1894 C488 1.426 . S
C1906 C432 1.427 . S
C1921 C502 1.410 . S
C1933 C446 1.409 . S
C1948 C474 1.405 . S
C1960 C460 1.407 . S
C1975 C130 1.555 . S
C1987 C4 1.553 . S
C2002 C144 1.527 . S
C2014 C18 1.518 . S
C2029 C32 1.539 . S
C2041 C158 1.546 . S
C2056 C46 1.500 . S
C2068 C88 1.495 . S
C2083 C102 1.548 . S
C2095 C60 1.540 . S
C2110 C74 1.526 . S
C2122 C116 1.535 . S
C2137 C298 1.552 . S
C2149 C172 1.554 . S
C2164 C312 1.509 . S
C2176 C186 1.518 . S
C2191 C200 1.534 . S
C2203 C326 1.542 . S
C2218 C256 1.551 . S
C2230 C214 1.554 . S
C2245 C270 1.545 . S
C2257 C228 1.551 . S
C2272 C284 1.494 . S
C2284 C242 1.500 . S
C2299 C340 1.513 . S
C2311 C466 1.505 . S
C2326 C480 1.525 . S
C2338 C354 1.516 . S
C2353 C368 1.532 . S
C2365 C494 1.541 . S
C2380 C382 1.539 . S
C2392 C424 1.547 . S
C2407 C396 1.497 . S
C2419 C438 1.493 . S
C2434 C452 1.555 . S
C2446 C410 1.554 . S
