# Generated by pormake.
# Topology lcy, (6)-cn, num edge types: 1
# Building blocks:
#     Node 0, Type 0, BuildingBlock: VOLQOD_clean_sbu_1, # of connection points: 6
#     Node 1, Type 0, BuildingBlock: VOLQOD_clean_sbu_1, # of connection points: 6
#     Node 2, Type 0, BuildingBlock: VOLQOD_clean_sbu_1, # of connection points: 6
#     Node 3, Type 0, BuildingBlock: VOLQOD_clean_sbu_1, # of connection points: 6
#     Edge 4, Type (0, 0), BuildingBlock: XUDNAN_clean_linker_2, # of connection points: 2
#     Edge 5, Type (0, 0), BuildingBlock: XUDNAN_clean_linker_2, # of connection points: 2
#     Edge 6, Type (0, 0), BuildingBlock: XUDNAN_clean_linker_2, # of connection points: 2
#     Edge 7, Type (0, 0), BuildingBlock: XUDNAN_clean_linker_2, # of connection points: 2
#     Edge 8, Type (0, 0), BuildingBlock: XUDNAN_clean_linker_2, # of connection points: 2
#     Edge 9, Type (0, 0), BuildingBlock: XUDNAN_clean_linker_2, # of connection points: 2
#     Edge 10, Type (0, 0), BuildingBlock: XUDNAN_clean_linker_2, # of connection points: 2
#     Edge 11, Type (0, 0), BuildingBlock: XUDNAN_clean_linker_2, # of connection points: 2
#     Edge 12, Type (0, 0), BuildingBlock: XUDNAN_clean_linker_2, # of connection points: 2
#     Edge 13, Type (0, 0), BuildingBlock: XUDNAN_clean_linker_2, # of connection points: 2
#     Edge 14, Type (0, 0), BuildingBlock: XUDNAN_clean_linker_2, # of connection points: 2
#     Edge 15, Type (0, 0), BuildingBlock: XUDNAN_clean_linker_2, # of connection points: 2
# Relax obj value: 0.278
# Max RMSD: 0.253
# Mean RMSD: 0.248
data_MOF--net-lcy--node1-VOLQOD_clean_sbu_1--edge1-XUDNAN_clean_linker_2
_symmetry_space_group_name_H-M    P1
_symmetry_Int_Tables_number       1
_symmetry_cell_setting            triclinic
loop_
_symmetry_equiv_pos_as_xyz
'x, y, z'
_cell_length_a     27.099701
_cell_length_b     26.837955
_cell_length_c     26.907426
_cell_angle_alpha  91.622649
_cell_angle_beta   88.529698
_cell_angle_gamma 92.596396
loop_
_atom_site_label
_atom_site_type_symbol
_atom_site_fract_x
_atom_site_fract_y
_atom_site_fract_z
_atom_type_partial_charge
O0 O 0.46055 0.30806 0.43923 0.0
Zn1 Zn 0.39653 0.30966 0.40134 0.0
O2 O 0.38737 0.37506 0.37549 0.0
Zn3 Zn 0.32284 0.39808 0.39336 0.0
Zn4 Zn 0.43544 0.42116 0.40372 0.0
Zn5 Zn 0.39623 0.37429 0.30424 0.0
O6 O 0.29107 0.43057 0.33578 0.0
O7 O 0.33883 0.4043 0.27304 0.0
O8 O 0.33488 0.28494 0.43856 0.0
O9 O 0.28078 0.33933 0.41507 0.0
O10 O 0.32656 0.4442 0.45329 0.0
O11 O 0.4072 0.45611 0.46429 0.0
O12 O 0.46021 0.46883 0.35187 0.0
O13 O 0.40203 0.26031 0.34472 0.0
O14 O 0.45406 0.41958 0.28413 0.0
O15 O 0.40078 0.30435 0.27614 0.0
C16 C 0.49635 0.3406 0.44217 0.0
C17 C 0.30134 0.42714 0.28932 0.0
C18 C 0.36266 0.46222 0.47844 0.0
C19 C 0.2906 0.29869 0.43532 0.0
C20 C 0.46963 0.4599 0.30589 0.0
C21 C 0.40228 0.26276 0.29759 0.0
O22 O 0.49244 0.38457 0.42671 0.0
O23 O 0.93167 0.02128 0.68445 0.0
Zn24 Zn 0.89995 0.08857 0.6844 0.0
O25 O 0.87402 0.10128 0.62003 0.0
Zn26 Zn 0.89063 0.16915 0.60275 0.0
Zn27 Zn 0.90233 0.05711 0.57141 0.0
Zn28 Zn 0.80353 0.08926 0.61995 0.0
O29 O 0.83279 0.20278 0.57386 0.0
O30 O 0.77224 0.1469 0.59062 0.0
O31 O 0.94244 0.14776 0.70961 0.0
O32 O 0.9124 0.20682 0.66402 0.0
O33 O 0.94967 0.17101 0.55599 0.0
O34 O 0.96056 0.09107 0.5371 0.0
O35 O 0.85049 0.03294 0.52349 0.0
O36 O 0.84396 0.08532 0.73353 0.0
O37 O 0.78425 0.03146 0.5741 0.0
O38 O 0.77553 0.08384 0.68964 0.0
C39 C 0.93745 0.98894 0.6493 0.0
C40 C 0.78728 0.18856 0.57316 0.0
C41 C 0.97429 0.13693 0.5344 0.0
C42 C 0.93655 0.19371 0.70116 0.0
C43 C 0.80541 0.01995 0.53272 0.0
C44 C 0.79714 0.08417 0.73114 0.0
O45 O 0.92662 -0.00224 0.60474 0.0
O46 O 0.02814 0.65447 0.81188 0.0
Zn47 Zn 0.04882 0.61435 0.87027 0.0
O48 O 0.11908 0.62404 0.88118 0.0
Zn49 Zn 0.15271 0.56267 0.88864 0.0
Zn50 Zn 0.1487 0.6573 0.82522 0.0
Zn51 Zn 0.12938 0.6646 0.93991 0.0
O52 O 0.17649 0.55567 0.95903 0.0
O53 O 0.1448 0.62201 -0.00318 0.0
O54 O 0.03143 0.54001 0.86048 0.0
O55 O 0.10295 0.50673 0.87717 0.0
O56 O 0.20685 0.55382 0.83513 0.0
O57 O 0.18269 0.60876 0.78141 0.0
O58 O 0.20066 0.70752 0.84705 0.0
O59 O 0.01053 0.64604 0.92714 0.0
O60 O 0.18917 0.71088 0.92922 0.0
O61 O 0.06738 0.69989 0.95835 0.0
C62 C 0.05278 0.68421 0.78357 0.0
C63 C 0.16633 0.58095 -0.00143 0.0
C64 C 0.20839 0.57218 0.79182 0.0
C65 C 0.0576 0.50212 0.86585 0.0
C66 C 0.21297 0.72398 0.8899 0.0
C67 C 0.0224 0.68444 0.95407 0.0
O68 O 0.09941 0.69019 0.7858 0.0
O69 O 0.4994 0.92145 0.16565 0.0
Zn70 Zn 0.56035 0.88047 0.15735 0.0
O71 O 0.59762 0.89522 0.09624 0.0
Zn72 Zn 0.61003 0.83414 0.05823 0.0
Zn73 Zn 0.55872 0.93627 0.05662 0.0
Zn74 Zn 0.65988 0.93104 0.11099 0.0
O75 O 0.68272 0.82822 0.04073 0.0
O76 O 0.71596 0.88962 0.08781 0.0
O77 O 0.54581 0.80637 0.16321 0.0
O78 O 0.59023 0.77595 0.09963 0.0
O79 O 0.56605 0.82603 -0.00127 0.0
O80 O 0.52855 0.89793 0.0003 0.0
O81 O 0.5992 0.99254 0.02977 0.0
O82 O 0.60129 0.90114 0.2154 0.0
O83 O 0.66857 0.99452 0.07203 0.0
O84 O 0.66719 0.94337 0.18502 0.0
C85 C 0.4836 0.95493 0.13822 0.0
C86 C 0.72043 0.85178 0.0587 0.0
C87 C 0.53503 0.85482 0.98133 0.0
C88 C 0.56329 0.76962 0.13854 0.0
C89 C 0.64123 0.01258 0.0398 0.0
C90 C 0.64136 0.92677 0.22175 0.0
O91 O 0.50419 0.96469 0.09651 0.0
H92 H 0.22867 0.5064 0.01862 0.0
H93 H 0.13231 0.61344 0.0899 0.0
H94 H 0.15272 0.58272 0.17206 0.0
H95 H 0.20243 0.40577 0.10368 0.0
H96 H 0.26533 0.38655 0.10262 0.0
H97 H 0.24139 0.41539 0.04917 0.0
H98 H 0.31302 0.48277 0.05201 0.0
H99 H 0.33724 0.45402 0.10531 0.0
H100 H 0.32308 0.51902 0.10857 0.0
H101 H 0.18456 0.541 0.24691 0.0
H102 H 0.22937 0.49469 0.30848 0.0
H103 H 0.30586 0.41665 0.18795 0.0
C104 C 0.21158 0.52315 0.05146 0.0
C105 C 0.17876 0.56221 0.04774 0.0
C106 C 0.15765 0.58351 0.09174 0.0
C107 C 0.16882 0.5662 0.13863 0.0
C108 C 0.20134 0.5277 0.14099 0.0
C109 C 0.22264 0.50665 0.0986 0.0
C110 C 0.25807 0.46726 0.11145 0.0
C111 C 0.24075 0.41569 0.09049 0.0
C112 C 0.31098 0.48165 0.09326 0.0
C113 C 0.25353 0.46967 0.16764 0.0
C114 C 0.22032 0.5044 0.18402 0.0
C115 C 0.2106 0.51359 0.23453 0.0
C116 C 0.23611 0.48703 0.26922 0.0
C117 C 0.27117 0.45208 0.25314 0.0
C118 C 0.27935 0.44311 0.20159 0.0
H119 H 0.73196 0.96512 0.25166 0.0
H120 H 0.58898 0.90899 0.30804 0.0
H121 H 0.61735 0.92179 0.39384 0.0
H122 H 0.80497 0.90983 0.34448 0.0
H123 H 0.84854 0.96245 0.34872 0.0
H124 H 0.81746 0.94823 0.29131 0.0
H125 H 0.78509 0.03769 0.29161 0.0
H126 H 0.81646 0.0523 0.3487 0.0
H127 H 0.75101 0.06062 0.34529 0.0
H128 H 0.6598 0.94321 0.47338 0.0
H129 H 0.71338 0.97398 0.54153 0.0
H130 H 0.82924 0.01386 0.43341 0.0
C131 C 0.70659 0.95559 0.28202 0.0
C132 C 0.65829 0.93604 0.27307 0.0
C133 C 0.62626 0.92389 0.3139 0.0
C134 C 0.64201 0.93091 0.36282 0.0
C135 C 0.68995 0.9498 0.37031 0.0
C136 C 0.72178 0.96204 0.33113 0.0
C137 C 0.77113 0.98258 0.3495 0.0
C138 C 0.81299 0.94874 0.33249 0.0
C139 C 0.7815 0.0365 0.33279 0.0
C140 C 0.76176 0.98054 0.4051 0.0
C141 C 0.71478 0.96137 0.41632 0.0
C142 C 0.69686 0.95791 0.46515 0.0
C143 C 0.72755 0.97544 0.50357 0.0
C144 C 0.77559 -0.00402 0.49283 0.0
C145 C 0.79302 -0.00235 0.44293 0.0
H146 H 0.18723 0.56416 0.69441 0.0
H147 H 0.30061 0.53448 0.79905 0.0
H148 H 0.3559 0.50854 0.72878 0.0
H149 H 0.20939 0.45875 0.61258 0.0
H150 H 0.19567 0.49186 0.5576 0.0
H151 H 0.16671 0.50841 0.61633 0.0
H152 H 0.19985 0.5999 0.60661 0.0
H153 H 0.22973 0.58342 0.54827 0.0
H154 H 0.26528 0.61285 0.59757 0.0
H155 H 0.39938 0.48968 0.64557 0.0
H156 H 0.42281 0.4666 0.55878 0.0
H157 H 0.27814 0.50549 0.5109 0.0
C158 C 0.22369 0.55204 0.70256 0.0
C159 C 0.24005 0.55154 0.75185 0.0
C160 C 0.28756 0.53484 0.76136 0.0
C161 C 0.3192 0.52054 0.72174 0.0
C162 C 0.3022 0.52263 0.6733 0.0
C163 C 0.25513 0.53701 0.66383 0.0
C164 C 0.24449 0.53394 0.60897 0.0
C165 C 0.20154 0.49597 0.59826 0.0
C166 C 0.23425 0.58561 0.58921 0.0
C167 C 0.29306 0.51569 0.5887 0.0
C168 C 0.32623 0.5101 0.62614 0.0
C169 C 0.37361 0.49374 0.61604 0.0
C170 C 0.38671 0.48115 0.5666 0.0
C171 C 0.35223 0.48431 0.5282 0.0
C172 C 0.30525 0.50274 0.53948 0.0
H173 H 0.73751 0.02868 0.01194 0.0
H174 H 0.59005 0.07749 0.98743 0.0
H175 H 0.61875 0.11426 0.90852 0.0
H176 H 0.80813 0.13592 0.94084 0.0
H177 H 0.8523 0.09225 0.91748 0.0
H178 H 0.8248 0.08529 0.97878 0.0
H179 H 0.79675 0.99464 0.95433 0.0
H180 H 0.82213 0.0016 0.89258 0.0
H181 H 0.75774 0.98341 0.90149 0.0
H182 H 0.65528 0.12193 0.82402 0.0
H183 H 0.70231 0.11416 0.74453 0.0
H184 H 0.82642 0.0608 0.82339 0.0
C185 C 0.71215 0.04996 0.99153 0.0
C186 C 0.66171 0.0504 0.00559 0.0
C187 C 0.62896 0.077 0.97721 0.0
C188 C 0.64492 0.09793 0.93228 0.0
C189 C 0.69386 0.09257 0.91685 0.0
C190 C 0.72754 0.07067 0.94633 0.0
C191 C 0.77569 0.06268 0.91809 0.0
C192 C 0.81772 0.09605 0.9401 0.0
C193 C 0.78876 0.00732 0.91654 0.0
C194 C 0.76235 0.07974 0.86731 0.0
C195 C 0.71534 0.09759 0.86748 0.0
C196 C 0.6928 0.1097 0.82367 0.0
C197 C 0.71945 0.10443 0.77865 0.0
C198 C 0.76801 0.08711 0.77796 0.0
C199 C 0.78961 0.0749 0.82294 0.0
H200 H 0.01101 0.23027 0.51106 0.0
H201 H 0.04848 0.07455 0.50817 0.0
H202 H 0.13426 0.09896 0.48326 0.0
H203 H 0.08994 0.26659 0.40414 0.0
H204 H 0.10565 0.32711 0.43155 0.0
H205 H 0.04666 0.29654 0.44589 0.0
H206 H 0.06533 0.30502 0.53987 0.0
H207 H 0.12475 0.3347 0.5258 0.0
H208 H 0.12061 0.27948 0.56255 0.0
H209 H 0.21781 0.14126 0.46638 0.0
H210 H 0.29028 0.19759 0.44748 0.0
H211 H 0.19677 0.32473 0.45956 0.0
C212 C 0.03697 0.20116 0.50433 0.0
C213 C 0.02303 0.15053 0.51161 0.0
C214 C 0.0582 0.1136 0.5025 0.0
C215 C 0.10711 0.12709 0.48868 0.0
C216 C 0.12 0.17753 0.48357 0.0
C217 C 0.08571 0.21388 0.49017 0.0
C218 C 0.10902 0.26547 0.48285 0.0
C219 C 0.08649 0.29038 0.43846 0.0
C220 C 0.10466 0.29806 0.53061 0.0
C221 C 0.16193 0.25252 0.47179 0.0
C222 C 0.16769 0.20168 0.47273 0.0
C223 C 0.21368 0.18111 0.46501 0.0
C224 C 0.25464 0.21338 0.45475 0.0
C225 C 0.24902 0.26542 0.45191 0.0
C226 C 0.20212 0.28505 0.46115 0.0
H227 H 0.98928 0.75458 0.81364 0.0
H228 H 0.06415 0.69224 0.68373 0.0
H229 H 0.03662 0.7611 0.63339 0.0
H230 H 0.88453 0.81026 0.74867 0.0
H231 H 0.88685 0.86496 0.78914 0.0
H232 H 0.90356 0.8057 0.81204 0.0
H233 H 0.988 0.84553 0.83827 0.0
H234 H 0.9722 0.90459 0.81454 0.0
H235 H 0.02774 0.87581 0.79242 0.0
H236 H 0.00898 0.84029 0.59984 0.0
H237 H 0.98262 0.92504 0.58426 0.0
H238 H 0.93123 0.94 0.7379 0.0
C239 C -0.00222 0.75444 0.77407 0.0
C240 C 0.02726 0.71761 0.75178 0.0
C241 C 0.04035 0.71963 0.70072 0.0
C242 C 0.02506 0.75861 0.67206 0.0
C243 C -0.00251 0.79554 0.69544 0.0
C244 C 0.98379 0.7938 0.74526 0.0
C245 C 0.95938 0.84117 0.76266 0.0
C246 C 0.90537 0.82984 0.77908 0.0
C247 C 0.9886 0.86836 0.80443 0.0
C248 C 0.96262 0.87027 0.71517 0.0
C249 C 0.98397 0.84285 0.67672 0.0
C250 C 0.99183 0.86198 0.6295 0.0
C251 C 0.97693 0.91022 0.6211 0.0
C252 C 0.95514 0.93917 0.65993 0.0
C253 C 0.94819 0.9189 0.70764 0.0
H254 H 0.28617 0.70194 0.95026 0.0
H255 H 0.24816 0.80401 0.83684 0.0
H256 H 0.33279 0.8435 0.83949 0.0
H257 H 0.36295 0.78408 0.02218 0.0
H258 H 0.40652 0.73747 0.03466 0.0
H259 H 0.34318 0.71904 0.02305 0.0
H260 H 0.37251 0.65924 0.95192 0.0
H261 H 0.43599 0.67866 0.96255 0.0
H262 H 0.41074 0.68371 0.90166 0.0
H263 H 0.4186 0.8764 0.86175 0.0
H264 H 0.49837 0.8995 0.9011 0.0
H265 H 0.48305 0.76789 0.99059 0.0
C266 C 0.2956 0.7331 0.92653 0.0
C267 C 0.26082 0.75111 0.89432 0.0
C268 C 0.27449 0.7906 0.86239 0.0
C269 C 0.3224 0.81278 0.86336 0.0
C270 C 0.35626 0.7936 0.89516 0.0
C271 C 0.3435 0.75433 0.9258 0.0
C272 C 0.38648 0.74027 0.95632 0.0
C273 C 0.37404 0.74558 0.01235 0.0
C274 C 0.40236 0.68733 0.94225 0.0
C275 C 0.42501 0.77916 0.93974 0.0
C276 C 0.40701 0.80958 0.90434 0.0
C277 C 0.43372 0.852 0.88826 0.0
C278 C 0.47903 0.86468 0.91046 0.0
C279 C 0.4973 0.83443 0.94742 0.0
C280 C 0.47088 0.79022 0.96068 0.0
H281 H 0.42921 0.17134 0.32646 0.0
H282 H 0.37377 0.24843 0.20116 0.0
H283 H 0.37123 0.16938 0.1519 0.0
H284 H 0.51064 0.10043 0.25802 0.0
H285 H 0.5024 0.04575 0.29527 0.0
H286 H 0.49166 0.10621 0.32257 0.0
H287 H 0.40325 0.07501 0.34957 0.0
H288 H 0.4136 0.01455 0.32126 0.0
H289 H 0.36158 0.04903 0.30349 0.0
H290 H 0.38333 0.08581 0.1137 0.0
H291 H 0.42081 0.00777 0.08529 0.0
H292 H 0.46896 0.98442 0.23493 0.0
C293 C 0.41568 0.1714 0.28893 0.0
C294 C 0.40143 0.21588 0.26766 0.0
C295 C 0.38498 0.21475 0.21813 0.0
C296 C 0.38276 0.16992 0.19013 0.0
C297 C 0.39701 0.12666 0.21226 0.0
C298 C 0.41367 0.12714 0.26038 0.0
C299 C 0.43309 0.07723 0.27324 0.0
C300 C 0.48766 0.08275 0.28809 0.0
C301 C 0.40094 0.0525 0.31433 0.0
C302 C 0.42709 0.0493 0.22395 0.0
C303 C 0.40473 0.07801 0.1898 0.0
C304 C 0.40001 0.06258 0.14026 0.0
C305 C 0.4213 0.01815 0.12449 0.0
C306 C 0.44739 0.99005 0.15808 0.0
C307 C 0.44798 0.00445 0.20888 0.0
H308 H 0.69124 0.16248 0.55268 0.0
H309 H 0.79983 0.28635 0.54547 0.0
H310 H 0.73657 0.33916 0.51208 0.0
H311 H 0.63063 0.18738 0.43945 0.0
H312 H 0.57012 0.16881 0.46359 0.0
H313 H 0.62401 0.1412 0.48682 0.0
H314 H 0.59836 0.16833 0.57668 0.0
H315 H 0.54451 0.19623 0.55375 0.0
H316 H 0.58779 0.2331 0.59083 0.0
H317 H 0.66103 0.37837 0.48103 0.0
H318 H 0.58007 0.40076 0.45116 0.0
H319 H 0.52145 0.25026 0.47807 0.0
C320 C 0.70191 0.20073 0.54418 0.0
C321 C 0.75049 0.2204 0.5519 0.0
C322 C 0.76287 0.27051 0.53983 0.0
C323 C 0.72718 0.30077 0.52099 0.0
C324 C 0.67955 0.28017 0.51426 0.0
C325 C 0.667 0.23122 0.52521 0.0
C326 C 0.61347 0.21781 0.51414 0.0
C327 C 0.60934 0.17636 0.47358 0.0
C328 C 0.58433 0.20301 0.56169 0.0
C329 C 0.59762 0.26705 0.49543 0.0
C330 C 0.63625 0.30253 0.49591 0.0
C331 C 0.63056 0.35088 0.4804 0.0
C332 C 0.5843 0.36319 0.46357 0.0
C333 C 0.54423 0.32725 0.46222 0.0
C334 C 0.55118 0.27862 0.47866 0.0
H335 H 0.98505 0.47333 0.80062 0.0
H336 H 0.08571 0.41606 0.90569 0.0
H337 H 0.06114 0.3299 0.87926 0.0
H338 H 0.88812 0.37076 0.80989 0.0
H339 H 0.87658 0.37144 0.74424 0.0
H340 H 0.89654 0.42813 0.7768 0.0
H341 H 0.96996 0.43911 0.71381 0.0
H342 H 0.95069 0.38221 0.68152 0.0
H343 H 0.01245 0.38966 0.70477 0.0
H344 H 0.03177 0.2504 0.83589 0.0
H345 H -0.0014 0.18352 0.77929 0.0
H346 H 0.91957 0.29333 0.70093 0.0
C347 C 0.00065 0.4426 0.81914 0.0
C348 C 0.03685 0.45123 0.85549 0.0
C349 C 0.0577 0.41014 0.87786 0.0
C350 C 0.04395 0.36109 0.86318 0.0
C351 C 0.00941 0.35378 0.82599 0.0
C352 C 0.98781 0.39336 0.80445 0.0
C353 C 0.95501 0.37553 0.76229 0.0
C354 C 0.90085 0.38715 0.77403 0.0
C355 C 0.97314 0.39796 0.71268 0.0
C356 C 0.96252 0.32002 0.76279 0.0
C357 C -0.0065 0.30807 0.80015 0.0
C358 C 0.00704 0.25921 0.80677 0.0
C359 C 0.98818 0.22151 0.77435 0.0
C360 C 0.95662 0.2331 0.73557 0.0
C361 C 0.94369 0.28308 0.73008 0.0
H362 H 0.92256 0.67348 0.93952 0.0
H363 H 0.03281 0.7626 0.02129 0.0
H364 H 0.96744 0.81536 0.05605 0.0
H365 H 0.84988 0.77496 0.90777 0.0
H366 H 0.79159 0.74039 0.91438 0.0
H367 H 0.84666 0.7083 0.89707 0.0
H368 H 0.83237 0.65013 0.97186 0.0
H369 H 0.77699 0.6817 0.98917 0.0
H370 H 0.82511 0.67706 0.03362 0.0
H371 H 0.89098 0.85958 0.0801 0.0
H372 H 0.80773 0.89068 0.09498 0.0
H373 H 0.74692 0.77286 -0.00264 0.0
C374 C 0.93299 0.70369 0.9652 0.0
C375 C 0.98287 0.71374 0.97784 0.0
C376 C -0.00511 0.75408 0.01111 0.0
C377 C 0.95804 0.78433 0.03099 0.0
C378 C 0.90943 0.77381 0.01714 0.0
C379 C 0.89676 0.73439 0.98521 0.0
C380 C 0.84183 0.73165 0.97572 0.0
C381 C 0.83193 0.73929 0.92046 0.0
C382 C 0.81766 0.6822 0.99368 0.0
C383 C 0.82553 0.77551 0.0077 0.0
C384 C 0.86518 0.79943 0.03101 0.0
C385 C 0.85958 0.8411 0.0622 0.0
C386 C 0.81206 0.85851 0.07031 0.0
C387 C 0.7706 0.83417 0.04745 0.0
C388 C 0.77772 0.79229 0.01545 0.0
H389 H 0.52735 0.74054 0.23001 0.0
H390 H 0.57803 0.68275 0.08606 0.0
H391 H 0.56498 0.59688 0.11532 0.0
H392 H 0.58334 0.64843 0.30345 0.0
H393 H 0.53257 0.64454 0.34798 0.0
H394 H 0.54649 0.70182 0.31611 0.0
H395 H 0.4568 0.70103 0.28462 0.0
H396 H 0.4425 0.64412 0.31684 0.0
H397 H 0.43216 0.64675 0.25108 0.0
H398 H 0.54335 0.51754 0.1587 0.0
H399 H 0.51271 0.4498 0.21323 0.0
H400 H 0.47919 0.5594 0.32962 0.0
C401 C 0.53557 0.70984 0.20459 0.0
C402 C 0.55366 0.71833 0.15578 0.0
C403 C 0.56427 0.67714 0.12372 0.0
C404 C 0.5571 0.62822 0.13998 0.0
C405 C 0.53973 0.62118 0.18848 0.0
C406 C 0.52908 0.66077 0.22033 0.0
C407 C 0.51007 0.6429 0.27036 0.0
C408 C 0.54523 0.66047 0.31192 0.0
C409 C 0.45725 0.65969 0.28134 0.0
C410 C 0.51098 0.58706 0.26132 0.0
C411 C 0.52835 0.5753 0.21392 0.0
C412 C 0.53014 0.52617 0.19611 0.0
C413 C 0.5127 0.488 0.22732 0.0
C414 C 0.49399 0.49934 0.27575 0.0
C415 C 0.49412 0.54948 0.29313 0.0
loop_
_geom_bond_atom_site_label_1
_geom_bond_atom_site_label_2
_geom_bond_distance
_geom_bond_site_symmetry_2
_ccdc_geom_bond_type
O0 Zn1 1.953 . S
O0 C16 1.225 . S
Zn1 O0 1.953 . S
Zn1 O2 1.949 . S
Zn1 O8 1.919 . S
Zn1 O13 1.924 . S
O2 Zn1 1.949 . S
O2 Zn3 1.923 . S
O2 Zn4 1.950 . S
O2 Zn5 1.945 . S
Zn3 O2 1.923 . S
Zn3 O6 1.933 . S
Zn3 O9 1.941 . S
Zn3 O10 1.965 . S
Zn4 O2 1.950 . S
Zn4 O11 1.938 . S
Zn4 O12 1.906 . S
Zn4 O22 1.953 . S
Zn5 O2 1.945 . S
Zn5 O7 1.932 . S
Zn5 O14 1.977 . S
Zn5 O15 1.910 . S
O6 Zn3 1.933 . S
O6 C17 1.226 . S
O7 Zn5 1.932 . S
O7 C17 1.307 . S
O8 Zn1 1.919 . S
O8 C19 1.253 . S
O9 Zn3 1.941 . S
O9 C19 1.283 . S
O10 Zn3 1.965 . S
O10 C18 1.303 . S
O11 Zn4 1.938 . S
O11 C18 1.247 . S
O12 Zn4 1.906 . S
O12 C20 1.304 . S
O13 Zn1 1.924 . S
O13 C21 1.311 . S
O14 Zn5 1.977 . S
O14 C20 1.272 . S
O15 Zn5 1.910 . S
O15 C21 1.231 . S
C16 O0 1.225 . S
C16 O22 1.298 . S
C17 O6 1.226 . S
C17 O7 1.307 . S
C18 O10 1.303 . S
C18 O11 1.247 . S
C19 O8 1.253 . S
C19 O9 1.283 . S
C20 O12 1.304 . S
C20 O14 1.272 . S
C21 O13 1.311 . S
C21 O15 1.231 . S
O22 Zn4 1.953 . S
O22 C16 1.298 . S
O23 Zn24 1.953 . S
O23 C39 1.225 . S
Zn24 O23 1.953 . S
Zn24 O25 1.949 . S
Zn24 O31 1.919 . S
Zn24 O36 1.924 . S
O25 Zn24 1.949 . S
O25 Zn26 1.923 . S
O25 Zn27 1.950 . S
O25 Zn28 1.945 . S
Zn26 O25 1.923 . S
Zn26 O29 1.933 . S
Zn26 O32 1.941 . S
Zn26 O33 1.965 . S
Zn27 O25 1.950 . S
Zn27 O34 1.938 . S
Zn27 O35 1.906 . S
Zn27 O45 1.953 . S
Zn28 O25 1.945 . S
Zn28 O30 1.932 . S
Zn28 O37 1.977 . S
Zn28 O38 1.910 . S
O29 Zn26 1.933 . S
O29 C40 1.226 . S
O30 Zn28 1.932 . S
O30 C40 1.307 . S
O31 Zn24 1.919 . S
O31 C42 1.253 . S
O32 Zn26 1.941 . S
O32 C42 1.283 . S
O33 Zn26 1.965 . S
O33 C41 1.303 . S
O34 Zn27 1.938 . S
O34 C41 1.247 . S
O35 Zn27 1.906 . S
O35 C43 1.304 . S
O36 Zn24 1.924 . S
O36 C44 1.311 . S
O37 Zn28 1.977 . S
O37 C43 1.272 . S
O38 Zn28 1.910 . S
O38 C44 1.231 . S
C39 O23 1.225 . S
C39 O45 1.298 . S
C40 O29 1.226 . S
C40 O30 1.307 . S
C41 O33 1.303 . S
C41 O34 1.247 . S
C42 O31 1.253 . S
C42 O32 1.283 . S
C43 O35 1.304 . S
C43 O37 1.272 . S
C44 O36 1.311 . S
C44 O38 1.231 . S
O45 Zn27 1.953 . S
O45 C39 1.298 . S
O46 Zn47 1.953 . S
O46 C62 1.225 . S
Zn47 O46 1.953 . S
Zn47 O48 1.949 . S
Zn47 O54 1.919 . S
Zn47 O59 1.924 . S
O48 Zn47 1.949 . S
O48 Zn49 1.923 . S
O48 Zn50 1.950 . S
O48 Zn51 1.945 . S
Zn49 O48 1.923 . S
Zn49 O52 1.933 . S
Zn49 O55 1.941 . S
Zn49 O56 1.965 . S
Zn50 O48 1.950 . S
Zn50 O57 1.938 . S
Zn50 O58 1.906 . S
Zn50 O68 1.953 . S
Zn51 O48 1.945 . S
Zn51 O53 1.932 . S
Zn51 O60 1.977 . S
Zn51 O61 1.910 . S
O52 Zn49 1.933 . S
O52 C63 1.226 . S
O53 Zn51 1.932 . S
O53 C63 1.307 . S
O54 Zn47 1.919 . S
O54 C65 1.253 . S
O55 Zn49 1.941 . S
O55 C65 1.283 . S
O56 Zn49 1.965 . S
O56 C64 1.303 . S
O57 Zn50 1.938 . S
O57 C64 1.247 . S
O58 Zn50 1.906 . S
O58 C66 1.304 . S
O59 Zn47 1.924 . S
O59 C67 1.311 . S
O60 Zn51 1.977 . S
O60 C66 1.272 . S
O61 Zn51 1.910 . S
O61 C67 1.231 . S
C62 O46 1.225 . S
C62 O68 1.298 . S
C63 O52 1.226 . S
C63 O53 1.307 . S
C64 O56 1.303 . S
C64 O57 1.247 . S
C65 O54 1.253 . S
C65 O55 1.283 . S
C66 O58 1.304 . S
C66 O60 1.272 . S
C67 O59 1.311 . S
C67 O61 1.231 . S
O68 Zn50 1.953 . S
O68 C62 1.298 . S
O69 Zn70 1.953 . S
O69 C85 1.225 . S
Zn70 O69 1.953 . S
Zn70 O71 1.949 . S
Zn70 O77 1.919 . S
Zn70 O82 1.924 . S
O71 Zn70 1.949 . S
O71 Zn72 1.923 . S
O71 Zn73 1.950 . S
O71 Zn74 1.945 . S
Zn72 O71 1.923 . S
Zn72 O75 1.933 . S
Zn72 O78 1.941 . S
Zn72 O79 1.965 . S
Zn73 O71 1.950 . S
Zn73 O80 1.938 . S
Zn73 O81 1.906 . S
Zn73 O91 1.953 . S
Zn74 O71 1.945 . S
Zn74 O76 1.932 . S
Zn74 O83 1.977 . S
Zn74 O84 1.910 . S
O75 Zn72 1.933 . S
O75 C86 1.226 . S
O76 Zn74 1.932 . S
O76 C86 1.307 . S
O77 Zn70 1.919 . S
O77 C88 1.253 . S
O78 Zn72 1.941 . S
O78 C88 1.283 . S
O79 Zn72 1.965 . S
O79 C87 1.303 . S
O80 Zn73 1.938 . S
O80 C87 1.247 . S
O81 Zn73 1.906 . S
O81 C89 1.304 . S
O82 Zn70 1.924 . S
O82 C90 1.311 . S
O83 Zn74 1.977 . S
O83 C89 1.272 . S
O84 Zn74 1.910 . S
O84 C90 1.231 . S
C85 O69 1.225 . S
C85 O91 1.298 . S
C86 O75 1.226 . S
C86 O76 1.307 . S
C87 O79 1.303 . S
C87 O80 1.247 . S
C88 O77 1.253 . S
C88 O78 1.283 . S
C89 O81 1.304 . S
C89 O83 1.272 . S
C90 O82 1.311 . S
C90 O84 1.231 . S
O91 Zn73 1.953 . S
O91 C85 1.298 . S
H92 C104 0.930 . S
H93 C106 0.930 . S
H94 C107 0.930 . S
H95 C111 0.959 . S
H96 C111 0.959 . S
H97 C111 0.961 . S
H98 C112 0.960 . S
H99 C112 0.961 . S
H100 C112 0.959 . S
H101 C115 0.929 . S
H102 C116 0.931 . S
H103 C118 0.930 . S
C104 H92 0.930 . S
C104 C105 1.399 . S
C104 C109 1.399 . S
C105 C104 1.399 . S
C105 C106 1.376 . S
C106 H93 0.930 . S
C106 C105 1.376 . S
C106 C107 1.388 . S
C107 H94 0.930 . S
C107 C106 1.388 . S
C107 C108 1.390 . S
C108 C107 1.390 . S
C108 C109 1.394 . S
C108 C114 1.465 . S
C109 C104 1.399 . S
C109 C108 1.394 . S
C109 C110 1.516 . S
C110 C109 1.516 . S
C110 C111 1.502 . S
C110 C112 1.561 . S
C110 C113 1.526 . S
C111 H95 0.959 . S
C111 H96 0.959 . S
C111 H97 0.961 . S
C111 C110 1.502 . S
C112 H98 0.960 . S
C112 H99 0.961 . S
C112 H100 0.959 . S
C112 C110 1.561 . S
C113 C110 1.526 . S
C113 C114 1.396 . S
C113 C118 1.390 . S
C114 C108 1.465 . S
C114 C113 1.396 . S
C114 C115 1.399 . S
C115 H101 0.929 . S
C115 C114 1.399 . S
C115 C116 1.385 . S
C116 H102 0.931 . S
C116 C115 1.385 . S
C116 C117 1.389 . S
C117 C116 1.389 . S
C117 C118 1.387 . S
C118 H103 0.930 . S
C118 C113 1.390 . S
C118 C117 1.387 . S
H119 C131 0.930 1_545 S
H120 C133 0.930 . S
H121 C134 0.930 . S
H122 C138 0.959 . S
H123 C138 0.959 . S
H124 C138 0.961 . S
H125 C139 0.960 . S
H126 C139 0.961 . S
H127 C139 0.959 . S
H128 C142 0.929 . S
H129 C143 0.931 . S
H130 C145 0.930 . S
C131 H119 0.930 1_565 S
C131 C132 1.399 . S
C131 C136 1.399 1_565 S
C132 C131 1.399 . S
C132 C133 1.376 . S
C133 H120 0.930 . S
C133 C132 1.376 . S
C133 C134 1.388 . S
C134 H121 0.930 . S
C134 C133 1.388 . S
C134 C135 1.390 . S
C135 C134 1.390 . S
C135 C136 1.394 1_565 S
C135 C141 1.465 . S
C136 C131 1.399 1_545 S
C136 C135 1.394 1_545 S
C136 C137 1.516 . S
C137 C136 1.516 . S
C137 C138 1.502 . S
C137 C139 1.561 . S
C137 C140 1.526 . S
C138 H122 0.959 . S
C138 H123 0.959 . S
C138 H124 0.961 . S
C138 C137 1.502 . S
C139 H125 0.960 . S
C139 H126 0.961 . S
C139 H127 0.959 . S
C139 C137 1.561 . S
C140 C137 1.526 . S
C140 C141 1.396 1_545 S
C140 C145 1.390 . S
C141 C135 1.465 . S
C141 C140 1.396 1_565 S
C141 C142 1.399 . S
C142 H128 0.929 . S
C142 C141 1.399 . S
C142 C143 1.385 . S
C143 H129 0.931 . S
C143 C142 1.385 . S
C143 C144 1.389 1_565 S
C144 C143 1.389 1_545 S
C144 C145 1.387 . S
C145 H130 0.930 . S
C145 C140 1.390 . S
C145 C144 1.387 . S
H146 C158 0.930 . S
H147 C160 0.930 . S
H148 C161 0.930 . S
H149 C165 0.959 . S
H150 C165 0.959 . S
H151 C165 0.961 . S
H152 C166 0.960 . S
H153 C166 0.961 . S
H154 C166 0.959 . S
H155 C169 0.929 . S
H156 C170 0.931 . S
H157 C172 0.930 . S
C158 H146 0.930 . S
C158 C159 1.399 . S
C158 C163 1.399 . S
C159 C158 1.399 . S
C159 C160 1.376 . S
C160 H147 0.930 . S
C160 C159 1.376 . S
C160 C161 1.388 . S
C161 H148 0.930 . S
C161 C160 1.388 . S
C161 C162 1.390 . S
C162 C161 1.390 . S
C162 C163 1.394 . S
C162 C168 1.465 . S
C163 C158 1.399 . S
C163 C162 1.394 . S
C163 C164 1.516 . S
C164 C163 1.516 . S
C164 C165 1.502 . S
C164 C166 1.561 . S
C164 C167 1.526 . S
C165 H149 0.959 . S
C165 H150 0.959 . S
C165 H151 0.961 . S
C165 C164 1.502 . S
C166 H152 0.960 . S
C166 H153 0.961 . S
C166 H154 0.959 . S
C166 C164 1.561 . S
C167 C164 1.526 . S
C167 C168 1.396 . S
C167 C172 1.390 . S
C168 C162 1.465 . S
C168 C167 1.396 . S
C168 C169 1.399 . S
C169 H155 0.929 . S
C169 C168 1.399 . S
C169 C170 1.385 . S
C170 H156 0.931 . S
C170 C169 1.385 . S
C170 C171 1.389 . S
C171 C170 1.389 . S
C171 C172 1.387 . S
C172 H157 0.930 . S
C172 C167 1.390 . S
C172 C171 1.387 . S
H173 C185 0.930 . S
H174 C187 0.930 1_554 S
H175 C188 0.930 . S
H176 C192 0.959 . S
H177 C192 0.959 . S
H178 C192 0.961 . S
H179 C193 0.960 . S
H180 C193 0.961 . S
H181 C193 0.959 . S
H182 C196 0.929 . S
H183 C197 0.931 . S
H184 C199 0.930 1_565 S
C185 H173 0.930 . S
C185 C186 1.399 . S
C185 C190 1.399 . S
C186 C185 1.399 . S
C186 C187 1.376 1_565 S
C187 H174 0.930 1_556 S
C187 C186 1.376 1_545 S
C187 C188 1.388 . S
C188 H175 0.930 . S
C188 C187 1.388 . S
C188 C189 1.390 . S
C189 C188 1.390 . S
C189 C190 1.394 1_545 S
C189 C195 1.465 . S
C190 C185 1.399 . S
C190 C189 1.394 1_565 S
C190 C191 1.516 . S
C191 C190 1.516 . S
C191 C192 1.502 . S
C191 C193 1.561 . S
C191 C194 1.526 1_565 S
C192 H176 0.959 . S
C192 H177 0.959 . S
C192 H178 0.961 . S
C192 C191 1.502 . S
C193 H179 0.960 . S
C193 H180 0.961 . S
C193 H181 0.959 . S
C193 C191 1.561 . S
C194 C191 1.526 1_545 S
C194 C195 1.396 . S
C194 C199 1.390 . S
C195 C189 1.465 . S
C195 C194 1.396 . S
C195 C196 1.399 . S
C196 H182 0.929 . S
C196 C195 1.399 . S
C196 C197 1.385 . S
C197 H183 0.931 . S
C197 C196 1.385 . S
C197 C198 1.389 . S
C198 C197 1.389 . S
C198 C199 1.387 . S
C199 H184 0.930 1_545 S
C199 C194 1.390 . S
C199 C198 1.387 . S
H200 C212 0.930 . S
H201 C214 0.930 . S
H202 C215 0.930 . S
H203 C219 0.959 . S
H204 C219 0.959 . S
H205 C219 0.961 . S
H206 C220 0.960 . S
H207 C220 0.961 . S
H208 C220 0.959 . S
H209 C223 0.929 . S
H210 C224 0.931 . S
H211 C226 0.930 . S
C212 H200 0.930 . S
C212 C213 1.399 . S
C212 C217 1.399 . S
C213 C212 1.399 . S
C213 C214 1.376 . S
C214 H201 0.930 . S
C214 C213 1.376 . S
C214 C215 1.388 . S
C215 H202 0.930 . S
C215 C214 1.388 . S
C215 C216 1.390 . S
C216 C215 1.390 . S
C216 C217 1.394 . S
C216 C222 1.465 . S
C217 C212 1.399 . S
C217 C216 1.394 . S
C217 C218 1.516 . S
C218 C217 1.516 . S
C218 C219 1.502 . S
C218 C220 1.561 . S
C218 C221 1.526 . S
C219 H203 0.959 . S
C219 H204 0.959 . S
C219 H205 0.961 . S
C219 C218 1.502 . S
C220 H206 0.960 . S
C220 H207 0.961 . S
C220 H208 0.959 . S
C220 C218 1.561 . S
C221 C218 1.526 . S
C221 C222 1.396 . S
C221 C226 1.390 . S
C222 C216 1.465 . S
C222 C221 1.396 . S
C222 C223 1.399 . S
C223 H209 0.929 . S
C223 C222 1.399 . S
C223 C224 1.385 . S
C224 H210 0.931 . S
C224 C223 1.385 . S
C224 C225 1.389 . S
C225 C224 1.389 . S
C225 C226 1.387 . S
C226 H211 0.930 . S
C226 C221 1.390 . S
C226 C225 1.387 . S
H227 C239 0.930 1_655 S
H228 C241 0.930 . S
H229 C242 0.930 . S
H230 C246 0.959 . S
H231 C246 0.959 . S
H232 C246 0.961 . S
H233 C247 0.960 . S
H234 C247 0.961 . S
H235 C247 0.959 . S
H236 C250 0.929 . S
H237 C251 0.931 1_545 S
H238 C253 0.930 . S
C239 H227 0.930 1_455 S
C239 C240 1.399 . S
C239 C244 1.399 . S
C240 C239 1.399 . S
C240 C241 1.376 . S
C241 H228 0.930 . S
C241 C240 1.376 . S
C241 C242 1.388 . S
C242 H229 0.930 . S
C242 C241 1.388 . S
C242 C243 1.390 . S
C243 C242 1.390 . S
C243 C244 1.394 . S
C243 C249 1.465 . S
C244 C239 1.399 . S
C244 C243 1.394 . S
C244 C245 1.516 1_455 S
C245 C244 1.516 1_655 S
C245 C246 1.502 . S
C245 C247 1.561 . S
C245 C248 1.526 . S
C246 H230 0.959 . S
C246 H231 0.959 . S
C246 H232 0.961 . S
C246 C245 1.502 . S
C247 H233 0.960 . S
C247 H234 0.961 . S
C247 H235 0.959 . S
C247 C245 1.561 . S
C248 C245 1.526 . S
C248 C249 1.396 1_655 S
C248 C253 1.390 . S
C249 C243 1.465 . S
C249 C248 1.396 1_455 S
C249 C250 1.399 . S
C250 H236 0.929 . S
C250 C249 1.399 . S
C250 C251 1.385 . S
C251 H237 0.931 1_565 S
C251 C250 1.385 . S
C251 C252 1.389 1_455 S
C252 C251 1.389 1_655 S
C252 C253 1.387 . S
C253 H238 0.930 . S
C253 C248 1.390 . S
C253 C252 1.387 . S
H254 C266 0.930 . S
H255 C268 0.930 . S
H256 C269 0.930 . S
H257 C273 0.959 . S
H258 C273 0.959 . S
H259 C273 0.961 . S
H260 C274 0.960 . S
H261 C274 0.961 . S
H262 C274 0.959 . S
H263 C277 0.929 . S
H264 C278 0.931 . S
H265 C280 0.930 . S
C266 H254 0.930 . S
C266 C267 1.399 . S
C266 C271 1.399 . S
C267 C266 1.399 . S
C267 C268 1.376 1_556 S
C268 H255 0.930 . S
C268 C267 1.376 1_554 S
C268 C269 1.388 . S
C269 H256 0.930 . S
C269 C268 1.388 . S
C269 C270 1.390 . S
C270 C269 1.390 . S
C270 C271 1.394 1_554 S
C270 C276 1.465 . S
C271 C266 1.399 . S
C271 C270 1.394 1_556 S
C271 C272 1.516 . S
C272 C271 1.516 . S
C272 C273 1.502 . S
C272 C274 1.561 . S
C272 C275 1.526 . S
C273 H257 0.959 . S
C273 H258 0.959 . S
C273 H259 0.961 . S
C273 C272 1.502 . S
C274 H260 0.960 . S
C274 H261 0.961 . S
C274 H262 0.959 . S
C274 C272 1.561 . S
C275 C272 1.526 . S
C275 C276 1.396 1_556 S
C275 C280 1.390 . S
C276 C270 1.465 . S
C276 C275 1.396 1_554 S
C276 C277 1.399 . S
C277 H263 0.929 . S
C277 C276 1.399 . S
C277 C278 1.385 . S
C278 H264 0.931 . S
C278 C277 1.385 . S
C278 C279 1.389 . S
C279 C278 1.389 . S
C279 C280 1.387 1_554 S
C280 H265 0.930 . S
C280 C275 1.390 . S
C280 C279 1.387 1_556 S
H281 C293 0.930 . S
H282 C295 0.930 . S
H283 C296 0.930 . S
H284 C300 0.959 . S
H285 C300 0.959 . S
H286 C300 0.961 . S
H287 C301 0.960 . S
H288 C301 0.961 . S
H289 C301 0.959 . S
H290 C304 0.929 . S
H291 C305 0.931 . S
H292 C307 0.930 . S
C293 H281 0.930 . S
C293 C294 1.399 . S
C293 C298 1.399 . S
C294 C293 1.399 . S
C294 C295 1.376 . S
C295 H282 0.930 . S
C295 C294 1.376 . S
C295 C296 1.388 . S
C296 H283 0.930 . S
C296 C295 1.388 . S
C296 C297 1.390 . S
C297 C296 1.390 . S
C297 C298 1.394 . S
C297 C303 1.465 . S
C298 C293 1.399 . S
C298 C297 1.394 . S
C298 C299 1.516 . S
C299 C298 1.516 . S
C299 C300 1.502 . S
C299 C301 1.561 . S
C299 C302 1.526 . S
C300 H284 0.959 . S
C300 H285 0.959 . S
C300 H286 0.961 . S
C300 C299 1.502 . S
C301 H287 0.960 . S
C301 H288 0.961 . S
C301 H289 0.959 . S
C301 C299 1.561 . S
C302 C299 1.526 . S
C302 C303 1.396 . S
C302 C307 1.390 . S
C303 C297 1.465 . S
C303 C302 1.396 . S
C303 C304 1.399 . S
C304 H290 0.929 . S
C304 C303 1.399 . S
C304 C305 1.385 . S
C305 H291 0.931 . S
C305 C304 1.385 . S
C305 C306 1.389 . S
C306 C305 1.389 . S
C306 C307 1.387 . S
C307 H292 0.930 . S
C307 C302 1.390 . S
C307 C306 1.387 . S
H308 C320 0.930 . S
H309 C322 0.930 . S
H310 C323 0.930 . S
H311 C327 0.959 . S
H312 C327 0.959 . S
H313 C327 0.961 . S
H314 C328 0.960 . S
H315 C328 0.961 . S
H316 C328 0.959 . S
H317 C331 0.929 . S
H318 C332 0.931 . S
H319 C334 0.930 . S
C320 H308 0.930 . S
C320 C321 1.399 . S
C320 C325 1.399 . S
C321 C320 1.399 . S
C321 C322 1.376 . S
C322 H309 0.930 . S
C322 C321 1.376 . S
C322 C323 1.388 . S
C323 H310 0.930 . S
C323 C322 1.388 . S
C323 C324 1.390 . S
C324 C323 1.390 . S
C324 C325 1.394 . S
C324 C330 1.465 . S
C325 C320 1.399 . S
C325 C324 1.394 . S
C325 C326 1.516 . S
C326 C325 1.516 . S
C326 C327 1.502 . S
C326 C328 1.561 . S
C326 C329 1.526 . S
C327 H311 0.959 . S
C327 H312 0.959 . S
C327 H313 0.961 . S
C327 C326 1.502 . S
C328 H314 0.960 . S
C328 H315 0.961 . S
C328 H316 0.959 . S
C328 C326 1.561 . S
C329 C326 1.526 . S
C329 C330 1.396 . S
C329 C334 1.390 . S
C330 C324 1.465 . S
C330 C329 1.396 . S
C330 C331 1.399 . S
C331 H317 0.929 . S
C331 C330 1.399 . S
C331 C332 1.385 . S
C332 H318 0.931 . S
C332 C331 1.385 . S
C332 C333 1.389 . S
C333 C332 1.389 . S
C333 C334 1.387 . S
C334 H319 0.930 . S
C334 C329 1.390 . S
C334 C333 1.387 . S
H335 C347 0.930 . S
H336 C349 0.930 . S
H337 C350 0.930 . S
H338 C354 0.959 . S
H339 C354 0.959 . S
H340 C354 0.961 . S
H341 C355 0.960 . S
H342 C355 0.961 . S
H343 C355 0.959 1_455 S
H344 C358 0.929 1_455 S
H345 C359 0.931 . S
H346 C361 0.930 . S
C347 H335 0.930 . S
C347 C348 1.399 1_655 S
C347 C352 1.399 . S
C348 C347 1.399 1_455 S
C348 C349 1.376 . S
C349 H336 0.930 . S
C349 C348 1.376 . S
C349 C350 1.388 . S
C350 H337 0.930 . S
C350 C349 1.388 . S
C350 C351 1.386 1_455 S
C351 C350 1.386 1_655 S
C351 C352 1.396 . S
C351 C357 1.468 . S
C352 C347 1.399 . S
C352 C351 1.396 . S
C352 C353 1.516 . S
C353 C352 1.516 . S
C353 C354 1.502 . S
C353 C355 1.561 . S
C353 C356 1.526 . S
C354 H338 0.959 . S
C354 H339 0.959 . S
C354 H340 0.961 . S
C354 C353 1.502 . S
C355 H341 0.960 . S
C355 H342 0.961 . S
C355 H343 0.959 1_655 S
C355 C353 1.561 . S
C356 C353 1.526 . S
C356 C357 1.396 . S
C356 C361 1.390 . S
C357 C351 1.468 . S
C357 C356 1.396 . S
C357 C358 1.399 . S
C358 H344 0.929 1_655 S
C358 C357 1.399 . S
C358 C359 1.385 . S
C359 H345 0.931 . S
C359 C358 1.385 . S
C359 C360 1.389 . S
C360 C359 1.389 . S
C360 C361 1.387 . S
C361 H346 0.930 . S
C361 C356 1.390 . S
C361 C360 1.387 . S
H362 C374 0.930 . S
H363 C376 0.930 . S
H364 C377 0.930 . S
H365 C381 0.959 1_554 S
H366 C381 0.959 . S
H367 C381 0.961 . S
H368 C382 0.960 . S
H369 C382 0.961 . S
H370 C382 0.959 . S
H371 C385 0.929 . S
H372 C386 0.931 . S
H373 C388 0.930 . S
C374 H362 0.930 . S
C374 C375 1.399 . S
C374 C379 1.399 . S
C375 C374 1.399 . S
C375 C376 1.376 1_556 S
C376 H363 0.930 . S
C376 C375 1.376 1_554 S
C376 C377 1.388 . S
C377 H364 0.930 . S
C377 C376 1.388 . S
C377 C378 1.390 . S
C378 C377 1.390 . S
C378 C379 1.394 1_554 S
C378 C384 1.465 . S
C379 C374 1.399 . S
C379 C378 1.394 1_556 S
C379 C380 1.516 . S
C380 C379 1.516 . S
C380 C381 1.502 . S
C380 C382 1.561 . S
C380 C383 1.526 1_556 S
C381 H365 0.959 1_556 S
C381 H366 0.959 . S
C381 H367 0.961 . S
C381 C380 1.502 . S
C382 H368 0.960 . S
C382 H369 0.961 . S
C382 H370 0.959 . S
C382 C380 1.561 . S
C383 C380 1.526 1_554 S
C383 C384 1.396 . S
C383 C388 1.390 . S
C384 C378 1.465 . S
C384 C383 1.396 . S
C384 C385 1.399 . S
C385 H371 0.929 . S
C385 C384 1.399 . S
C385 C386 1.385 . S
C386 H372 0.931 . S
C386 C385 1.385 . S
C386 C387 1.389 . S
C387 C386 1.389 . S
C387 C388 1.387 . S
C388 H373 0.930 . S
C388 C383 1.390 . S
C388 C387 1.387 . S
H389 C401 0.930 . S
H390 C403 0.930 . S
H391 C404 0.930 . S
H392 C408 0.959 . S
H393 C408 0.959 . S
H394 C408 0.961 . S
H395 C409 0.960 . S
H396 C409 0.961 . S
H397 C409 0.959 . S
H398 C412 0.929 . S
H399 C413 0.931 . S
H400 C415 0.930 . S
C401 H389 0.930 . S
C401 C402 1.399 . S
C401 C406 1.399 . S
C402 C401 1.399 . S
C402 C403 1.376 . S
C403 H390 0.930 . S
C403 C402 1.376 . S
C403 C404 1.388 . S
C404 H391 0.930 . S
C404 C403 1.388 . S
C404 C405 1.390 . S
C405 C404 1.390 . S
C405 C406 1.394 . S
C405 C411 1.465 . S
C406 C401 1.399 . S
C406 C405 1.394 . S
C406 C407 1.516 . S
C407 C406 1.516 . S
C407 C408 1.502 . S
C407 C409 1.561 . S
C407 C410 1.526 . S
C408 H392 0.959 . S
C408 H393 0.959 . S
C408 H394 0.961 . S
C408 C407 1.502 . S
C409 H395 0.960 . S
C409 H396 0.961 . S
C409 H397 0.959 . S
C409 C407 1.561 . S
C410 C407 1.526 . S
C410 C411 1.396 . S
C410 C415 1.390 . S
C411 C405 1.465 . S
C411 C410 1.396 . S
C411 C412 1.399 . S
C412 H398 0.929 . S
C412 C411 1.399 . S
C412 C413 1.385 . S
C413 H399 0.931 . S
C413 C412 1.385 . S
C413 C414 1.389 . S
C414 C413 1.389 . S
C414 C415 1.387 . S
C415 H400 0.930 . S
C415 C410 1.390 . S
C415 C414 1.387 . S
C105 C63 1.536 1_554 S
C117 C17 1.574 . S
C132 C90 1.197 . S
C144 C43 1.281 . S
C159 C64 1.382 . S
C171 C18 1.425 . S
C186 C89 1.257 1_556 S
C198 C44 1.223 . S
C213 C41 1.276 1_455 S
C225 C19 1.214 . S
C240 C62 1.613 . S
C252 C39 1.650 1_565 S
C267 C66 1.259 . S
C279 C87 1.250 . S
C294 C21 1.339 . S
C306 C85 1.383 1_545 S
C321 C40 1.623 . S
C333 C16 1.630 . S
C348 C65 1.234 . S
C360 C42 1.211 . S
C375 C67 1.316 1_655 S
C387 C86 1.389 . S
C402 C88 1.178 . S
C414 C20 1.263 . S
