# Generated by pormake.
# Topology tfs, (6)-cn, num edge types: 1
# Building blocks:
#     Node 0, Type 0, BuildingBlock: INOVEN_clean_sbu_0, # of connection points: 6
#     Node 1, Type 0, BuildingBlock: INOVEN_clean_sbu_0, # of connection points: 6
#     Node 2, Type 0, BuildingBlock: INOVEN_clean_sbu_0, # of connection points: 6
#     Node 3, Type 0, BuildingBlock: INOVEN_clean_sbu_0, # of connection points: 6
#     Node 4, Type 0, BuildingBlock: INOVEN_clean_sbu_0, # of connection points: 6
#     Node 5, Type 0, BuildingBlock: INOVEN_clean_sbu_0, # of connection points: 6
#     Edge 6, Type (0, 0), BuildingBlock: FUNLAD_clean_linker_0, # of connection points: 2
#     Edge 7, Type (0, 0), BuildingBlock: FUNLAD_clean_linker_0, # of connection points: 2
#     Edge 8, Type (0, 0), BuildingBlock: FUNLAD_clean_linker_0, # of connection points: 2
#     Edge 9, Type (0, 0), BuildingBlock: FUNLAD_clean_linker_0, # of connection points: 2
#     Edge 10, Type (0, 0), BuildingBlock: FUNLAD_clean_linker_0, # of connection points: 2
#     Edge 11, Type (0, 0), BuildingBlock: FUNLAD_clean_linker_0, # of connection points: 2
#     Edge 12, Type (0, 0), BuildingBlock: FUNLAD_clean_linker_0, # of connection points: 2
#     Edge 13, Type (0, 0), BuildingBlock: FUNLAD_clean_linker_0, # of connection points: 2
#     Edge 14, Type (0, 0), BuildingBlock: FUNLAD_clean_linker_0, # of connection points: 2
#     Edge 15, Type (0, 0), BuildingBlock: FUNLAD_clean_linker_0, # of connection points: 2
#     Edge 16, Type (0, 0), BuildingBlock: FUNLAD_clean_linker_0, # of connection points: 2
#     Edge 17, Type (0, 0), BuildingBlock: FUNLAD_clean_linker_0, # of connection points: 2
#     Edge 18, Type (0, 0), BuildingBlock: FUNLAD_clean_linker_0, # of connection points: 2
#     Edge 19, Type (0, 0), BuildingBlock: FUNLAD_clean_linker_0, # of connection points: 2
#     Edge 20, Type (0, 0), BuildingBlock: FUNLAD_clean_linker_0, # of connection points: 2
#     Edge 21, Type (0, 0), BuildingBlock: FUNLAD_clean_linker_0, # of connection points: 2
#     Edge 22, Type (0, 0), BuildingBlock: FUNLAD_clean_linker_0, # of connection points: 2
#     Edge 23, Type (0, 0), BuildingBlock: FUNLAD_clean_linker_0, # of connection points: 2
# Relax obj value: 0.473
# Max RMSD: 0.401
# Mean RMSD: 0.353
data_MOF--net-tfs--node1-INOVEN_clean_sbu_0--edge1-FUNLAD_clean_linker_0
_symmetry_space_group_name_H-M    P1
_symmetry_Int_Tables_number       1
_symmetry_cell_setting            triclinic
loop_
_symmetry_equiv_pos_as_xyz
'x, y, z'
_cell_length_a     57.866645
_cell_length_b     57.245069
_cell_length_c     14.190692
_cell_angle_alpha  92.601683
_cell_angle_beta   100.44397
_cell_angle_gamma 119.80735
loop_
_atom_site_label
_atom_site_type_symbol
_atom_site_fract_x
_atom_site_fract_y
_atom_site_fract_z
_atom_type_partial_charge
Gd0 Gd 0.19033 0.38705 0.26425 0.0
Gd1 Gd 0.16498 0.41168 0.11927 0.0
C2 C 0.12721 0.36976 0.23564 0.0
C3 C 0.20612 0.36649 0.40215 0.0
C4 C 0.22361 0.35454 0.41566 0.0
C5 C 0.24312 0.36035 0.36047 0.0
C6 C 0.21928 0.33545 0.47888 0.0
C7 C 0.25337 0.32744 0.43016 0.0
C8 C 0.23399 0.322 0.48611 0.0
C9 C 0.25795 0.34701 0.36796 0.0
C10 C 0.17422 0.36416 0.07588 0.0
C11 C 0.231 0.43379 0.16146 0.0
C12 C 0.14872 0.429 0.97123 0.0
C13 C 0.15726 0.45627 0.94623 0.0
C14 C 0.17975 0.47935 0.00717 0.0
C15 C 0.14126 0.45956 0.86743 0.0
C16 C 0.16856 0.50892 0.91621 0.0
C17 C 0.14689 0.48568 0.85232 0.0
C18 C 0.18538 0.50545 -0.00774 0.0
C19 C 0.18263 0.43677 0.30541 0.0
O20 O 0.15014 0.37704 0.30038 0.0
O21 O 0.1278 0.3758 0.14702 0.0
O22 O 0.2183 0.39274 0.39952 0.0
O23 O 0.18327 0.3523 0.3356 0.0
O24 O 0.19589 0.36744 0.13501 0.0
O25 O 0.16197 0.37204 0.12079 0.0
O26 O 0.20907 0.43209 0.10492 0.0
O27 O 0.2293 0.41978 0.23421 0.0
O28 O 0.13754 0.42386 0.04577 0.0
O29 O 0.16628 0.42084 0.97291 0.0
O30 O 0.16202 0.43522 0.24512 0.0
O31 O 0.19345 0.42686 0.26152 0.0
H32 H 0.24656 0.37488 0.3105 0.0
H33 H 0.20405 0.33047 0.52109 0.0
H34 H 0.2296 0.3068 0.53363 0.0
H35 H 0.27297 0.35201 0.32487 0.0
H36 H 0.19221 0.47713 0.06885 0.0
H37 H 0.1238 0.44191 0.81977 0.0
H38 H 0.13377 0.48764 0.7923 0.0
H39 H 0.20201 0.5228 0.04359 0.0
Gd40 Gd 0.75787 0.19522 0.81164 0.0
Gd41 Gd 0.80511 0.22749 0.71008 0.0
C42 C 0.78791 0.26131 0.83454 0.0
C43 C 0.72674 0.17621 0.93232 0.0
C44 C 0.70827 0.18269 0.97031 0.0
C45 C 0.70755 0.20618 0.95144 0.0
C46 C 0.69022 0.16461 0.02162 0.0
C47 C 0.66962 0.19261 0.02997 0.0
C48 C 0.671 0.16949 0.05114 0.0
C49 C 0.68845 0.21116 0.9813 0.0
C50 C 0.74291 0.20258 0.62819 0.0
C51 C 0.77268 0.16103 0.67975 0.0
C52 C 0.83626 0.24926 0.59112 0.0
C53 C 0.86093 0.25308 0.56264 0.0
C54 C 0.88064 0.24985 0.62458 0.0
C55 C 0.86592 0.26261 0.47513 0.0
C56 C 0.91101 0.26754 0.51396 0.0
C57 C 0.89058 0.26956 0.45057 0.0
C58 C 0.90554 0.25703 0.6004 0.0
C59 C 0.82023 0.21879 0.89142 0.0
O60 O 0.77483 0.23937 0.87477 0.0
O61 O 0.79664 0.25996 0.75571 0.0
O62 O 0.71882 0.16615 0.83993 0.0
O63 O 0.75284 0.19468 0.95916 0.0
O64 O 0.728 0.18118 0.66465 0.0
O65 O 0.76331 0.21942 0.69327 0.0
O66 O 0.7859 0.18328 0.64073 0.0
O67 O 0.76472 0.16203 0.7609 0.0
O68 O 0.84011 0.26174 0.67694 0.0
O69 O 0.81437 0.22484 0.5694 0.0
O70 O 0.83544 0.24026 0.85607 0.0
O71 O 0.7995 0.2027 0.82643 0.0
H72 H 0.72128 0.2203 0.91143 0.0
H73 H 0.69059 0.14641 0.03701 0.0
H74 H 0.65697 0.15498 0.08938 0.0
H75 H 0.68772 0.22897 0.96281 0.0
H76 H 0.87717 0.24268 0.6929 0.0
H77 H 0.85111 0.26558 0.42711 0.0
H78 H 0.89385 0.27706 0.38261 0.0
H79 H 0.92087 0.25539 0.65115 0.0
Gd80 Gd 0.55499 0.76026 0.27913 0.0
Gd81 Gd 0.5946 0.80889 0.18937 0.0
C82 C 0.52876 0.77859 0.10447 0.0
C83 C 0.52664 0.72567 0.38271 0.0
C84 C 0.50072 0.69944 0.36141 0.0
C85 C 0.4863 0.68742 0.26513 0.0
C86 C 0.49096 0.68561 0.4373 0.0
C87 C 0.45292 0.6473 0.32066 0.0
C88 C 0.46723 0.65978 0.4172 0.0
C89 C 0.46262 0.66156 0.24487 0.0
C90 C 0.5642 0.74624 0.11221 0.0
C91 C 0.62025 0.78653 0.35091 0.0
C92 C 0.62361 0.84706 0.09802 0.0
C93 C 0.64474 0.87594 0.13352 0.0
C94 C 0.66155 0.88395 0.22768 0.0
C95 C 0.64565 0.89602 0.0786 0.0
C96 C 0.67825 0.93175 0.21455 0.0
C97 C 0.66228 0.92369 0.11861 0.0
C98 C 0.67823 0.91155 0.26754 0.0
C99 C 0.5849 0.82218 0.35721 0.0
O100 O 0.52488 0.76757 0.18424 0.0
O101 O 0.5532 0.79134 0.08383 0.0
O102 O 0.54651 0.72548 0.35167 0.0
O103 O 0.52488 0.74714 0.36653 0.0
O104 O 0.54095 0.73255 0.13624 0.0
O105 O 0.58127 0.76538 0.17916 0.0
O106 O 0.62336 0.79716 0.27001 0.0
O107 O 0.59687 0.77668 0.37841 0.0
O108 O 0.59896 0.84069 0.10434 0.0
O109 O 0.62973 0.82885 0.12538 0.0
O110 O 0.60837 0.83555 0.33491 0.0
O111 O 0.56814 0.80364 0.28833 0.0
H112 H 0.49365 0.69784 0.20561 0.0
H113 H 0.50188 0.69466 0.51205 0.0
H114 H 0.46008 0.64959 0.47734 0.0
H115 H 0.45231 0.65249 0.16978 0.0
H116 H 0.66102 0.86884 0.27198 0.0
H117 H 0.63256 0.89025 0.0063 0.0
H118 H 0.66156 0.93864 0.07603 0.0
H119 H 0.69058 0.91703 0.34098 0.0
Gd120 Gd 0.84725 0.59682 0.87432 0.0
Gd121 Gd 0.82201 0.62155 0.73025 0.0
C122 C 0.78141 0.57454 0.83241 0.0
C123 C 0.86334 0.57861 0.01971 0.0
C124 C 0.85448 0.55082 0.03956 0.0
C125 C 0.8306 0.52858 0.98044 0.0
C126 C 0.87151 0.54612 0.10946 0.0
C127 C 0.84221 0.49709 0.05468 0.0
C128 C 0.8654 0.51946 0.1172 0.0
C129 C 0.82448 0.50196 0.98805 0.0
C130 C 0.82959 0.57177 0.68797 0.0
C131 C 0.88503 0.63889 0.75933 0.0
C132 C 0.80648 0.64236 0.59257 0.0
C133 C 0.79231 0.65792 0.58201 0.0
C134 C 0.80074 0.68087 0.65024 0.0
C135 C 0.7704 0.6501 0.50188 0.0
C136 C 0.76606 0.68839 0.55672 0.0
C137 C 0.75729 0.66511 0.48954 0.0
C138 C 0.78785 0.69603 0.63736 0.0
C139 C 0.83838 0.64464 0.91876 0.0
O140 O 0.80341 0.57689 0.89062 0.0
O141 O 0.7831 0.58806 0.75827 0.0
O142 O 0.87502 0.58482 0.94654 0.0
O143 O 0.84573 0.58667 0.01946 0.0
O144 O 0.85027 0.57344 0.74812 0.0
O145 O 0.81873 0.58164 0.73172 0.0
O146 O 0.86207 0.63107 0.69381 0.0
O147 O 0.88434 0.63306 0.84814 0.0
O148 O 0.79185 0.61675 0.60254 0.0
O149 O 0.83111 0.6549 0.64949 0.0
O150 O 0.81691 0.64175 0.85956 0.0
O151 O 0.85036 0.63655 0.87347 0.0
H152 H 0.81736 0.53187 0.92524 0.0
H153 H 0.89009 0.56308 0.15537 0.0
H154 H 0.87928 0.5164 0.17012 0.0
H155 H 0.80666 0.48531 0.93791 0.0
H156 H 0.81742 0.68726 0.71336 0.0
H157 H 0.76359 0.6325 0.44837 0.0
H158 H 0.74066 0.65885 0.42634 0.0
H159 H 0.7948 0.71367 0.69089 0.0
Gd160 Gd 0.2005 0.77543 0.24776 0.0
Gd161 Gd 0.24915 0.80834 0.15442 0.0
C162 C 0.23586 0.84213 0.29486 0.0
C163 C 0.16842 0.75333 0.36331 0.0
C164 C 0.14582 0.7527 0.39926 0.0
C165 C 0.12294 0.75046 0.33565 0.0
C166 C 0.14593 0.75148 0.49774 0.0
C167 C 0.09934 0.74282 0.46698 0.0
C168 C 0.12294 0.74665 0.53143 0.0
C169 C 0.09988 0.74555 0.36924 0.0
C170 C 0.18767 0.78833 0.07221 0.0
C171 C 0.21585 0.74181 0.11408 0.0
C172 C 0.28175 0.82779 0.03885 0.0
C173 C 0.29789 0.81866 -0.00288 0.0
C174 C 0.29636 0.79419 0.01645 0.0
C175 C 0.31605 0.835 0.94259 0.0
C176 C 0.33238 0.80328 0.93222 0.0
C177 C 0.33322 0.8274 0.91041 0.0
C178 C 0.31337 0.78652 0.98409 0.0
C179 C 0.26141 0.79605 0.33204 0.0
O180 O 0.22065 0.81893 0.32587 0.0
O181 O 0.24503 0.84249 0.21561 0.0
O182 O 0.16283 0.74289 0.27242 0.0
O183 O 0.19271 0.77529 0.39213 0.0
O184 O 0.17148 0.76607 0.10162 0.0
O185 O 0.20834 0.803 0.13966 0.0
O186 O 0.23047 0.76464 0.08047 0.0
O187 O 0.20648 0.74206 0.19217 0.0
O188 O 0.28965 0.83548 0.133 0.0
O189 O 0.25511 0.81231 0.0083 0.0
O190 O 0.27732 0.81863 0.30346 0.0
O191 O 0.24132 0.78108 0.26311 0.0
H192 H 0.1224 0.7514 0.25927 0.0
H193 H 0.16343 0.75324 0.54803 0.0
H194 H 0.12338 0.74519 0.60751 0.0
H195 H 0.08202 0.74254 0.31755 0.0
H196 H 0.28261 0.78144 0.05925 0.0
H197 H 0.31744 0.85395 0.92697 0.0
H198 H 0.34746 0.84062 0.86993 0.0
H199 H 0.31246 0.76805 0.00355 0.0
Gd200 Gd 0.41878 0.19935 0.79685 0.0
Gd201 Gd 0.4552 0.25012 0.70819 0.0
C202 C 0.3894 0.21939 0.63781 0.0
C203 C 0.39128 0.15886 0.88213 0.0
C204 C 0.3701 0.13044 0.83932 0.0
C205 C 0.35321 0.12468 0.74648 0.0
C206 C 0.3696 0.10885 0.88376 0.0
C207 C 0.33765 0.07636 0.73908 0.0
C208 C 0.35344 0.08201 0.83425 0.0
C209 C 0.33708 0.09792 0.69713 0.0
C210 C 0.42948 0.18906 0.62716 0.0
C211 C 0.48467 0.23393 0.88128 0.0
C212 C 0.48216 0.28687 0.60867 0.0
C213 C 0.50677 0.3144 0.63423 0.0
C214 C 0.51046 0.33297 0.71206 0.0
C215 C 0.5271 0.32212 0.58175 0.0
C216 C 0.55442 0.36669 0.68401 0.0
C217 C 0.55079 0.34801 0.60662 0.0
C218 C 0.53397 0.35891 0.73627 0.0
C219 C 0.44452 0.26147 0.87514 0.0
O220 O 0.38738 0.20795 0.71721 0.0
O221 O 0.4128 0.23162 0.61001 0.0
O222 O 0.41574 0.16602 0.87082 0.0
O223 O 0.38492 0.17756 0.86558 0.0
O224 O 0.40629 0.17407 0.64955 0.0
O225 O 0.44555 0.20773 0.6966 0.0
O226 O 0.48741 0.24549 0.80233 0.0
O227 O 0.46046 0.21904 0.90214 0.0
O228 O 0.46041 0.284 0.63459 0.0
O229 O 0.48608 0.26657 0.62379 0.0
O230 O 0.4674 0.27708 0.85122 0.0
O231 O 0.42844 0.24188 0.80842 0.0
H232 H 0.35345 0.141 0.71006 0.0
H233 H 0.38277 0.1129 0.95474 0.0
H234 H 0.35454 0.06594 0.86837 0.0
H235 H 0.32484 0.09424 0.62459 0.0
H236 H 0.49524 0.32743 0.75462 0.0
H237 H 0.52469 0.30809 0.5217 0.0
H238 H 0.56614 0.35355 0.56464 0.0
H239 H 0.53638 0.37275 0.79695 0.0
C240 C 0.37061 0.24058 0.51999 0.0
C241 C 0.36677 0.2232 0.59005 0.0
C242 C 0.35201 0.2492 0.49102 0.0
C243 C 0.32893 0.24036 0.53086 0.0
C244 C 0.32414 0.22142 0.59538 0.0
C245 C 0.34278 0.2129 0.62457 0.0
C246 C 0.31108 0.25237 0.51597 0.0
C247 C 0.31132 0.26841 0.44896 0.0
C248 C 0.29586 0.28289 0.4453 0.0
C249 C 0.28751 0.28956 0.35664 0.0
C250 C 0.27372 0.30395 0.35155 0.0
C251 C 0.26831 0.31236 0.43549 0.0
H252 H 0.29778 0.28773 0.59987 0.0
C253 C 0.2771 0.30604 0.52455 0.0
C254 C 0.29072 0.29152 0.52949 0.0
H255 H 0.27388 0.31273 0.59103 0.0
H256 H 0.38886 0.2489 0.49172 0.0
H257 H 0.35681 0.26392 0.44177 0.0
H258 H 0.30652 0.21411 0.62699 0.0
H259 H 0.33905 0.19937 0.67824 0.0
H260 H 0.29747 0.24822 0.56471 0.0
H261 H 0.32283 0.27096 0.394 0.0
H262 H 0.29146 0.28343 0.29088 0.0
H263 H 0.267 0.30816 0.28149 0.0
C264 C 0.09937 0.35037 0.35902 0.0
C265 C 0.10063 0.35582 0.2638 0.0
C266 C 0.07432 0.33844 0.38634 0.0
C267 C 0.05003 0.33171 0.31879 0.0
C268 C 0.05137 0.33702 0.22374 0.0
C269 C 0.0763 0.34879 0.19635 0.0
C270 C 0.02326 0.32086 0.34557 0.0
C271 C 0.01669 0.30726 0.42077 0.0
C272 C 0.98978 0.29741 0.44563 0.0
C273 C 0.9782 0.27378 0.48858 0.0
C274 C 0.95265 0.26396 0.51101 0.0
C275 C 0.93831 0.27778 0.49175 0.0
H276 H 0.98454 0.33053 0.39969 0.0
C277 C 0.95039 0.30191 0.45157 0.0
C278 C 0.97578 0.31162 0.42891 0.0
H279 H 0.94039 0.3136 0.43872 0.0
H280 H 0.11779 0.35579 0.41308 0.0
H281 H 0.07428 0.33535 0.46098 0.0
H282 H 0.03303 0.33223 0.17042 0.0
H283 H 0.0765 0.35275 0.1225 0.0
H284 H 0.00792 0.32348 0.29867 0.0
H285 H 0.03072 0.30209 0.46252 0.0
H286 H 0.98872 0.26263 0.50327 0.0
H287 H 0.94394 0.24532 0.5419 0.0
C288 C 0.76792 0.13062 0.53482 0.0
C289 C 0.76631 0.13431 0.63161 0.0
C290 C 0.76 0.10479 0.4879 0.0
C291 C 0.75037 0.08212 0.53716 0.0
C292 C 0.74966 0.08614 0.6347 0.0
C293 C 0.75734 0.11181 0.68116 0.0
C294 C 0.74063 0.05392 0.49079 0.0
C295 C 0.73196 0.04507 0.3942 0.0
C296 C 0.71934 0.01592 0.35103 0.0
C297 C 0.71958 0.00945 0.25462 0.0
C298 C 0.70675 0.98223 0.21054 0.0
C299 C 0.69319 0.96081 0.2618 0.0
H300 H 0.70389 0.99835 0.47493 0.0
C301 C 0.69287 0.96733 0.35812 0.0
C302 C 0.70566 0.99445 0.40207 0.0
H303 H 0.68195 0.95142 0.39895 0.0
H304 H 0.77477 0.14757 0.49463 0.0
H305 H 0.76157 0.10282 0.41353 0.0
H306 H 0.74255 0.06918 0.67484 0.0
H307 H 0.756 0.11392 0.75591 0.0
H308 H 0.73943 0.03952 0.53967 0.0
H309 H 0.73351 0.0593 0.34429 0.0
H310 H 0.72969 0.02552 0.21314 0.0
H311 H 0.70747 0.97797 0.13633 0.0
C312 C 0.72412 0.69221 0.51678 0.0
C313 C 0.7528 0.70489 0.54224 0.0
C314 C 0.71168 0.70778 0.5024 0.0
C315 C 0.72771 0.7364 0.51276 0.0
C316 C 0.75636 0.749 0.53718 0.0
C317 C 0.76879 0.73345 0.55273 0.0
C318 C 0.71511 0.75335 0.4924 0.0
C319 C 0.69028 0.74634 0.50733 0.0
C320 C 0.67571 0.76109 0.47723 0.0
C321 C 0.65379 0.75673 0.51799 0.0
C322 C 0.63689 0.76676 0.48164 0.0
C323 C 0.64137 0.78115 0.40272 0.0
H324 H 0.69758 0.78044 0.36737 0.0
C325 C 0.66428 0.78694 0.36563 0.0
C326 C 0.68123 0.77696 0.40218 0.0
H327 H 0.66832 0.7979 0.30468 0.0
H328 H 0.71129 0.67024 0.50828 0.0
H329 H 0.68954 0.69727 0.48081 0.0
H330 H 0.76916 0.77095 0.54429 0.0
H331 H 0.79096 0.74375 0.57109 0.0
H332 H 0.72695 0.77231 0.46598 0.0
H333 H 0.67986 0.72873 0.54259 0.0
H334 H 0.64905 0.74462 0.57586 0.0
H335 H 0.6195 0.76199 0.51236 0.0
C336 C 0.06546 0.71403 0.56104 0.0
C337 C 0.0736 0.73389 0.49976 0.0
C338 C 0.04053 0.70416 0.58752 0.0
C339 C 0.02313 0.71408 0.55396 0.0
C340 C 0.03121 0.73389 0.49264 0.0
C341 C 0.05622 0.74378 0.46605 0.0
C342 C 0.99592 0.70316 0.57763 0.0
C343 C 0.99021 0.6919 0.658 0.0
C344 C 0.96291 0.67962 0.68166 0.0
C345 C 0.96143 0.67591 0.77793 0.0
C346 C 0.9362 0.6631 0.80321 0.0
C347 C 0.91174 0.6535 0.73255 0.0
H348 H 0.93852 0.67186 0.53519 0.0
C349 C 0.9131 0.65729 0.63607 0.0
C350 C 0.93842 0.67015 0.61071 0.0
H351 H 0.8946 0.64986 0.57966 0.0
H352 H 0.07796 0.70539 0.58611 0.0
H353 H 0.03467 0.68814 0.63175 0.0
H354 H 0.01813 0.74173 0.46507 0.0
H355 H 0.06191 0.75913 0.41895 0.0
H356 H 0.98056 0.70527 0.52863 0.0
H357 H 0.00649 0.69225 0.71113 0.0
H358 H 0.9799 0.68279 0.83396 0.0
H359 H 0.93593 0.6605 0.87821 0.0
C360 C 0.25507 0.89254 0.31135 0.0
C361 C 0.24317 0.86832 0.35087 0.0
C362 C 0.26352 0.91755 0.36589 0.0
C363 C 0.2607 0.91904 0.46222 0.0
C364 C 0.24804 0.89468 0.50058 0.0
C365 C 0.2394 0.8696 0.4457 0.0
C366 C 0.27047 0.94546 0.52434 0.0
C367 C 0.29001 0.96975 0.50833 0.0
C368 C 0.30049 0.99649 0.56909 0.0
C369 C 0.31423 0.02027 0.52887 0.0
C370 C 0.32567 0.04599 0.58346 0.0
C371 C 0.32388 0.0487 0.68041 0.0
H372 H 0.28863 0.98136 0.70083 0.0
C373 C 0.31009 0.02494 0.72111 0.0
C374 C 0.29846 0.99908 0.66608 0.0
H375 H 0.30839 0.02634 0.79565 0.0
H376 H 0.25792 0.89225 0.23804 0.0
H377 H 0.27204 0.93552 0.33145 0.0
H378 H 0.24529 0.89508 0.57404 0.0
H379 H 0.23033 0.85132 0.47849 0.0
H380 H 0.26159 0.94457 0.58613 0.0
H381 H 0.29906 0.97047 0.44715 0.0
H382 H 0.31637 0.01899 0.4548 0.0
H383 H 0.33662 0.0638 0.55026 0.0
C384 C 0.19381 0.6912 0.09809 0.0
C385 C 0.21162 0.71572 0.06888 0.0
C386 C 0.19039 0.66654 0.05945 0.0
C387 C 0.20466 0.66572 -0.00981 0.0
C388 C 0.22247 0.6902 0.96076 0.0
C389 C 0.22574 0.71496 -0.00104 0.0
C390 C 0.20265 0.63985 0.95341 0.0
C391 C 0.17985 0.61531 0.94597 0.0
C392 C 0.17792 0.58862 0.92451 0.0
C393 C 0.15182 0.56495 0.89972 0.0
C394 C 0.14883 0.53914 0.89238 0.0
C395 C 0.17195 0.53631 0.91013 0.0
H396 H 0.22164 0.60348 0.959 0.0
C397 C 0.19813 0.55998 0.93087 0.0
C398 C 0.20113 0.58587 0.93819 0.0
H399 H 0.21636 0.55851 0.94417 0.0
H400 H 0.18266 0.69101 0.15195 0.0
H401 H 0.17718 0.64831 0.08652 0.0
H402 H 0.23395 0.69018 0.90835 0.0
H403 H 0.23968 0.7335 0.97505 0.0
H404 H 0.22038 0.64125 0.93256 0.0
H405 H 0.16152 0.61458 0.95826 0.0
H406 H 0.13357 0.56639 0.88939 0.0
H407 H 0.12835 0.52143 0.87768 0.0
C408 C 0.5073 0.21615 0.00094 0.0
C409 C 0.50939 0.23599 0.94259 0.0
C410 C 0.53066 0.21532 0.04357 0.0
C411 C 0.55651 0.23443 0.02869 0.0
C412 C 0.55874 0.25554 0.97727 0.0
C413 C 0.53547 0.25622 0.93412 0.0
C414 C 0.58126 0.23218 0.05878 0.0
C415 C 0.58003 0.20821 0.06672 0.0
C416 C 0.60396 0.20456 0.07064 0.0
C417 C 0.59889 0.17836 0.04094 0.0
C418 C 0.62032 0.17433 0.03144 0.0
C419 C 0.64743 0.19643 0.05184 0.0
H420 H 0.63639 0.24678 0.12398 0.0
C421 C 0.65277 0.22241 0.08696 0.0
C422 C 0.63133 0.22644 0.09697 0.0
H423 H 0.67354 0.23973 0.10542 0.0
H424 H 0.48749 0.20042 0.00948 0.0
H425 H 0.52824 0.19931 0.08575 0.0
H426 H 0.5784 0.27077 0.9658 0.0
H427 H 0.53784 0.27204 0.89082 0.0
H428 H 0.60079 0.2503 0.06054 0.0
H429 H 0.56016 0.18979 0.05746 0.0
H430 H 0.57811 0.16106 0.02089 0.0
H431 H 0.61546 0.15406 0.00378 0.0
C432 C 0.40539 0.61268 0.2242 0.0
C433 C 0.42826 0.61937 0.29916 0.0
C434 C 0.38211 0.58651 0.2049 0.0
C435 C 0.38122 0.56637 0.26005 0.0
C436 C 0.40407 0.57307 0.33476 0.0
C437 C 0.42736 0.59918 0.3538 0.0
C438 C 0.3563 0.53885 0.2468 0.0
C439 C 0.33655 0.52695 0.16392 0.0
C440 C 0.31032 0.50087 0.15601 0.0
C441 C 0.28687 0.49603 0.08826 0.0
C442 C 0.26121 0.47338 0.08623 0.0
C443 C 0.25848 0.45495 0.15171 0.0
H444 H 0.3256 0.4836 0.26675 0.0
C445 C 0.28223 0.4587 0.21462 0.0
C446 C 0.30788 0.48134 0.21657 0.0
H447 H 0.28096 0.44465 0.26487 0.0
H448 H 0.40519 0.62788 0.18185 0.0
H449 H 0.36464 0.58255 0.14887 0.0
H450 H 0.40392 0.55804 0.3788 0.0
H451 H 0.44474 0.60347 0.41112 0.0
H452 H 0.35408 0.52844 0.30954 0.0
H453 H 0.3387 0.53737 0.10122 0.0
H454 H 0.2882 0.51048 0.03962 0.0
H455 H 0.2434 0.47103 0.03609 0.0
C456 C 0.81149 0.44606 0.03543 0.0
C457 C 0.83797 0.46917 0.0517 0.0
C458 C 0.80737 0.41978 0.02029 0.0
C459 C 0.82972 0.41607 0.0214 0.0
C460 C 0.8562 0.43915 0.04114 0.0
C461 C 0.86031 0.46535 0.05636 0.0
C462 C 0.82627 0.38895 -0.00689 0.0
C463 C 0.80356 0.36481 -0.00854 0.0
C464 C 0.80013 0.33843 0.95232 0.0
C465 C 0.78373 0.31461 0.9883 0.0
C466 C 0.77981 0.2895 0.95082 0.0
C467 C 0.79187 0.28768 0.8753 0.0
H468 H 0.82398 0.3542 0.84426 0.0
C469 C 0.80794 0.31147 0.83848 0.0
C470 C 0.81199 0.33651 0.87631 0.0
H471 H 0.81744 0.31084 0.78004 0.0
H472 H 0.79385 0.44829 0.03201 0.0
H473 H 0.78657 0.40264 0.00366 0.0
H474 H 0.8738 0.43697 0.04184 0.0
H475 H 0.88094 0.48263 0.06714 0.0
H476 H 0.84345 0.38902 0.97211 0.0
H477 H 0.7872 0.3641 0.02077 0.0
H478 H 0.77407 0.31546 0.04599 0.0
H479 H 0.76722 0.27153 0.9806 0.0
C480 C 0.3805 0.81705 0.92623 0.0
C481 C 0.3527 0.79663 0.90892 0.0
C482 C 0.40035 0.81032 0.91921 0.0
C483 C 0.3928 0.78295 0.89397 0.0
C484 C 0.36485 0.76278 0.8716 0.0
C485 C 0.34502 0.76951 0.87874 0.0
C486 C 0.41336 0.77425 0.90339 0.0
C487 C 0.44031 0.79133 0.91012 0.0
C488 C 0.46153 0.78425 0.946 0.0
C489 C 0.48782 0.79998 0.92886 0.0
C490 C 0.50948 0.79696 0.97535 0.0
C491 C 0.50532 0.77841 0.04115 0.0
H492 H 0.43747 0.75242 0.02497 0.0
C493 C 0.47873 0.76167 0.05423 0.0
C494 C 0.45712 0.76456 0.00753 0.0
H495 H 0.47478 0.74708 0.10414 0.0
H496 H 0.38717 0.83808 0.95099 0.0
H497 H 0.4216 0.82652 0.93941 0.0
H498 H 0.35839 0.74154 0.85219 0.0
H499 H 0.32373 0.75334 0.86362 0.0
H500 H 0.40601 0.75303 0.9104 0.0
H501 H 0.4475 0.81183 0.89386 0.0
H502 H 0.49187 0.81542 0.88237 0.0
H503 H 0.52974 0.81021 0.96378 0.0
C504 C 0.73021 0.54836 0.7762 0.0
C505 C 0.754 0.55306 0.84164 0.0
C506 C 0.7048 0.52528 0.77361 0.0
C507 C 0.7026 0.50642 0.83696 0.0
C508 C 0.72615 0.51189 0.90563 0.0
C509 C 0.75155 0.53501 0.90841 0.0
C510 C 0.67701 0.47959 0.8266 0.0
C511 C 0.65196 0.47431 0.78133 0.0
C512 C 0.62731 0.44646 0.76064 0.0
C513 C 0.60138 0.44338 0.75256 0.0
C514 C 0.57772 0.41747 0.72874 0.0
C515 C 0.57952 0.39415 0.71064 0.0
H516 H 0.64866 0.4247 0.74526 0.0
C517 C 0.60544 0.39723 0.71782 0.0
C518 C 0.6291 0.42308 0.74266 0.0
H519 H 0.60745 0.3796 0.70457 0.0
H520 H 0.73134 0.56182 0.72365 0.0
H521 H 0.68735 0.52166 0.71825 0.0
H522 H 0.7251 0.49772 0.9552 0.0
H523 H 0.76941 0.53796 0.95997 0.0
H524 H 0.67907 0.46342 0.85667 0.0
H525 H 0.64914 0.49081 0.75936 0.0
H526 H 0.5994 0.46107 0.76471 0.0
H527 H 0.55797 0.41573 0.72266 0.0
C528 C 0.14637 0.35802 0.9129 0.0
C529 C 0.17157 0.36416 0.97168 0.0
C530 C 0.1451 0.36517 0.82044 0.0
C531 C 0.1691 0.37901 0.78707 0.0
C532 C 0.19379 0.38271 0.84217 0.0
C533 C 0.19499 0.3752 0.93411 0.0
C534 C 0.1682 0.39094 0.69793 0.0
C535 C 0.18872 0.4155 0.68979 0.0
C536 C 0.18823 0.42673 0.59899 0.0
C537 C 0.16392 0.42374 0.54345 0.0
C538 C 0.16274 0.42984 0.44939 0.0
C539 C 0.18574 0.43856 0.4102 0.0
H540 H 0.23095 0.44113 0.60593 0.0
C541 C 0.21066 0.44399 0.46888 0.0
C542 C 0.21197 0.43839 0.56345 0.0
H543 H 0.22863 0.45082 0.43951 0.0
H544 H 0.12807 0.34941 0.94094 0.0
H545 H 0.1258 0.36174 0.77811 0.0
H546 H 0.21239 0.39243 0.81609 0.0
H547 H 0.21462 0.38003 0.97835 0.0
H548 H 0.14976 0.37986 0.63976 0.0
H549 H 0.20718 0.42662 0.74778 0.0
H550 H 0.14553 0.41546 0.57086 0.0
H551 H 0.14332 0.42551 0.40499 0.0
C552 C 0.76034 0.22633 0.49344 0.0
C553 C 0.74392 0.20189 0.52573 0.0
C554 C 0.76762 0.22583 0.40545 0.0
C555 C 0.75877 0.2008 0.34893 0.0
C556 C 0.74018 0.17645 0.3767 0.0
C557 C 0.73282 0.17695 0.46493 0.0
C558 C 0.76963 0.19958 0.26351 0.0
C559 C 0.7956 0.21766 0.2602 0.0
C560 C 0.80645 0.2173 0.17408 0.0
C561 C 0.82477 0.24217 0.14842 0.0
C562 C 0.83157 0.24272 0.05868 0.0
C563 C 0.82022 0.21834 -0.00552 0.0
H564 H 0.78444 0.17326 0.13425 0.0
C565 C 0.80446 0.19334 0.02488 0.0
C566 C 0.79762 0.19279 0.11427 0.0
H567 H 0.79583 0.17428 0.97666 0.0
H568 H 0.76888 0.2458 0.53895 0.0
H569 H 0.78101 0.24501 0.38379 0.0
H570 H 0.73273 0.15696 0.33319 0.0
H571 H 0.72015 0.15782 0.48854 0.0
H572 H 0.75622 0.18292 0.20389 0.0
H573 H 0.80886 0.23426 0.31987 0.0
H574 H 0.8323 0.26127 0.19472 0.0
H575 H 0.84387 0.26224 0.03671 0.0
C576 C 0.59403 0.75963 -0.00303 0.0
C577 C 0.56752 0.74609 0.01296 0.0
C578 C 0.5979 0.76633 0.90588 0.0
C579 C 0.57532 0.76006 0.83123 0.0
C580 C 0.54864 0.74402 0.84448 0.0
C581 C 0.54474 0.73689 0.93522 0.0
C582 C 0.58022 0.77343 0.74542 0.0
C583 C 0.56664 0.78592 0.7124 0.0
C584 C 0.57252 0.8009 0.63043 0.0
C585 C 0.59942 0.81637 0.6184 0.0
C586 C 0.60396 0.82619 0.53162 0.0
C587 C 0.58161 0.82032 0.45638 0.0
H588 H 0.52982 0.7866 0.56892 0.0
C589 C 0.55511 0.80753 0.4725 0.0
C590 C 0.55061 0.79803 0.55978 0.0
H591 H 0.53769 0.80311 0.41508 0.0
H592 H 0.61181 0.76667 0.0564 0.0
H593 H 0.61858 0.77844 0.89622 0.0
H594 H 0.53094 0.73843 0.78649 0.0
H595 H 0.52412 0.72633 0.94634 0.0
H596 H 0.59687 0.77522 0.71501 0.0
H597 H 0.55005 0.78412 0.74324 0.0
H598 H 0.61675 0.81971 0.67394 0.0
H599 H 0.62459 0.83619 0.52056 0.0
C600 C 0.84909 0.57799 0.54318 0.0
C601 C 0.82628 0.56977 0.58309 0.0
C602 C 0.84786 0.58399 0.449 0.0
C603 C 0.82368 0.58141 0.39409 0.0
C604 C 0.80006 0.57022 0.43033 0.0
C605 C 0.80143 0.56472 0.52499 0.0
C606 C 0.82328 0.59273 0.30349 0.0
C607 C 0.84396 0.61721 0.29565 0.0
C608 C 0.84322 0.6293 0.20686 0.0
C609 C 0.86723 0.64294 0.17349 0.0
C610 C 0.86607 0.65026 0.08131 0.0
C611 C 0.84098 0.64451 0.02284 0.0
H612 H 0.80005 0.61639 0.17822 0.0
C613 C 0.81757 0.63365 0.06043 0.0
C614 C 0.81865 0.62596 0.1521 0.0
H615 H 0.79802 0.6291 0.01637 0.0
H616 H 0.86846 0.58204 0.58712 0.0
H617 H 0.86614 0.59194 0.42103 0.0
H618 H 0.78117 0.56781 0.38836 0.0
H619 H 0.7836 0.55827 0.55491 0.0
H620 H 0.80478 0.5818 0.24558 0.0
H621 H 0.86242 0.6281 0.35382 0.0
H622 H 0.88644 0.64609 0.21557 0.0
H623 H 0.88436 0.65872 0.05321 0.0
C624 C 0.24425 0.76795 0.45812 0.0
C625 C 0.25905 0.7939 0.43261 0.0
C626 C 0.23515 0.76508 0.54368 0.0
C627 C 0.24014 0.78806 0.6033 0.0
C628 C 0.25693 0.81421 0.58182 0.0
C629 C 0.26648 0.8171 0.49708 0.0
C630 C 0.22658 0.78403 0.68467 0.0
C631 C 0.21713 0.80001 0.71047 0.0
C632 C 0.2043 0.79625 0.79368 0.0
C633 C 0.18752 0.77016 0.81558 0.0
C634 C 0.1796 0.76739 0.90357 0.0
C635 C 0.18859 0.79066 0.97054 0.0
H636 H 0.22321 0.83962 0.83977 0.0
C637 C 0.20313 0.8166 0.94472 0.0
C638 C 0.21066 0.81936 0.85611 0.0
H639 H 0.21019 0.83478 -0.00432 0.0
H640 H 0.23828 0.74981 0.40897 0.0
H641 H 0.22261 0.74479 0.55979 0.0
H642 H 0.26191 0.83235 0.62857 0.0
H643 H 0.2778 0.83732 0.47854 0.0
H644 H 0.22326 0.76673 0.72126 0.0
H645 H 0.22047 0.81735 0.67412 0.0
H646 H 0.1815 0.75196 0.76676 0.0
H647 H 0.16835 0.74717 0.92217 0.0
C648 C 0.40933 0.1862 0.45513 0.0
C649 C 0.43226 0.19237 0.52811 0.0
C650 C 0.41299 0.19761 0.37067 0.0
C651 C 0.43958 0.21494 0.35866 0.0
C652 C 0.46223 0.21825 0.42632 0.0
C653 C 0.4586 0.20717 0.51135 0.0
C654 C 0.4443 0.23069 0.27848 0.0
C655 C 0.42881 0.24125 0.24552 0.0
C656 C 0.4321 0.25357 0.15728 0.0
C657 C 0.40937 0.24253 0.07855 0.0
C658 C 0.41328 0.24695 0.98573 0.0
C659 C 0.43987 0.26289 0.97202 0.0
H660 H 0.47601 0.28111 0.2058 0.0
C661 C 0.46218 0.27687 0.05219 0.0
C662 C 0.45832 0.27211 0.14492 0.0
H663 H 0.48281 0.28948 0.04274 0.0
H664 H 0.38881 0.17467 0.46675 0.0
H665 H 0.39512 0.19383 0.31701 0.0
H666 H 0.48283 0.23106 0.41685 0.0
H667 H 0.47648 0.21188 0.56707 0.0
H668 H 0.46135 0.23414 0.2471 0.0
H669 H 0.41155 0.23775 0.27551 0.0
H670 H 0.38902 0.22833 0.08741 0.0
H671 H 0.39577 0.23636 0.9243 0.0
loop_
_geom_bond_atom_site_label_1
_geom_bond_atom_site_label_2
_geom_bond_distance
_geom_bond_site_symmetry_2
_ccdc_geom_bond_type
Gd0 C3 2.818 . S
Gd0 O20 2.377 1_554 S
Gd0 O22 2.448 1_554 S
Gd0 O23 2.506 . S
Gd0 O24 2.435 1_554 S
Gd0 O25 2.717 1_554 S
Gd0 O27 2.395 1_554 S
Gd0 O31 2.327 . S
Gd1 C12 2.818 . S
Gd1 O21 2.395 1_556 S
Gd1 O25 2.327 . S
Gd1 O26 2.377 1_556 S
Gd1 O28 2.448 1_556 S
Gd1 O29 2.506 . S
Gd1 O30 2.435 1_556 S
Gd1 O31 2.717 1_556 S
C2 O20 1.240 1_554 S
C2 O21 1.240 . S
C3 Gd0 2.818 . S
C3 C4 1.510 . S
C3 O22 1.249 1_554 S
C3 O23 1.252 . S
C4 C3 1.510 . S
C4 C5 1.404 . S
C4 C6 1.352 . S
C5 C4 1.404 . S
C5 C9 1.389 . S
C5 H32 0.930 1_554 S
C6 C4 1.352 . S
C6 C8 1.374 . S
C6 H33 0.931 . S
C7 C8 1.359 . S
C7 C9 1.364 . S
C8 C6 1.374 . S
C8 C7 1.359 . S
C8 H34 0.931 . S
C9 C5 1.389 . S
C9 C7 1.364 . S
C9 H35 0.931 . S
C10 O24 1.256 . S
C10 O25 1.257 . S
C11 O26 1.240 1_556 S
C11 O27 1.240 . S
C12 Gd1 2.818 . S
C12 C13 1.510 . S
C12 O28 1.249 1_556 S
C12 O29 1.252 . S
C13 C12 1.510 . S
C13 C14 1.404 . S
C13 C15 1.352 . S
C14 C13 1.404 . S
C14 C18 1.389 . S
C14 H36 0.930 1_556 S
C15 C13 1.352 . S
C15 C17 1.374 . S
C15 H37 0.931 . S
C16 C17 1.359 . S
C16 C18 1.364 . S
C17 C15 1.374 . S
C17 C16 1.359 . S
C17 H38 0.931 . S
C18 C14 1.389 . S
C18 C16 1.364 . S
C18 H39 0.931 . S
C19 O30 1.256 . S
C19 O31 1.257 . S
O20 Gd0 2.377 1_556 S
O20 C2 1.240 1_556 S
O21 Gd1 2.395 1_554 S
O21 C2 1.240 . S
O22 Gd0 2.448 1_556 S
O22 C3 1.249 1_556 S
O23 Gd0 2.506 . S
O23 C3 1.252 . S
O24 Gd0 2.435 1_556 S
O24 C10 1.256 . S
O25 Gd0 2.717 1_556 S
O25 Gd1 2.327 . S
O25 C10 1.257 . S
O26 Gd1 2.377 1_554 S
O26 C11 1.240 1_554 S
O27 Gd0 2.395 1_556 S
O27 C11 1.240 . S
O28 Gd1 2.448 1_554 S
O28 C12 1.249 1_554 S
O29 Gd1 2.506 . S
O29 C12 1.252 . S
O30 Gd1 2.435 1_554 S
O30 C19 1.256 . S
O31 Gd0 2.327 . S
O31 Gd1 2.717 1_554 S
O31 C19 1.257 . S
H32 C5 0.930 1_556 S
H33 C6 0.931 . S
H34 C8 0.931 . S
H35 C9 0.931 . S
H36 C14 0.930 1_554 S
H37 C15 0.931 . S
H38 C17 0.931 . S
H39 C18 0.931 . S
Gd40 C43 2.818 1_556 S
Gd40 O60 2.377 . S
Gd40 O62 2.448 . S
Gd40 O63 2.506 1_556 S
Gd40 O64 2.435 . S
Gd40 O65 2.717 . S
Gd40 O67 2.395 . S
Gd40 O71 2.327 1_556 S
Gd41 C52 2.818 1_554 S
Gd41 O61 2.395 . S
Gd41 O65 2.327 1_554 S
Gd41 O66 2.377 . S
Gd41 O68 2.448 . S
Gd41 O69 2.506 1_554 S
Gd41 O70 2.435 . S
Gd41 O71 2.717 . S
C42 O60 1.240 1_554 S
C42 O61 1.240 . S
C43 Gd40 2.818 1_554 S
C43 C44 1.510 . S
C43 O62 1.249 1_554 S
C43 O63 1.252 . S
C44 C43 1.510 . S
C44 C45 1.404 1_554 S
C44 C46 1.352 . S
C45 C44 1.404 1_556 S
C45 C49 1.389 . S
C45 H72 0.930 . S
C46 C44 1.352 . S
C46 C48 1.374 . S
C46 H73 0.931 . S
C47 C48 1.359 . S
C47 C49 1.364 1_554 S
C48 C46 1.374 . S
C48 C47 1.359 . S
C48 H74 0.931 . S
C49 C45 1.389 . S
C49 C47 1.364 1_556 S
C49 H75 0.931 . S
C50 O64 1.256 . S
C50 O65 1.257 . S
C51 O66 1.240 1_556 S
C51 O67 1.240 . S
C52 Gd41 2.818 1_556 S
C52 C53 1.510 . S
C52 O68 1.249 1_556 S
C52 O69 1.252 . S
C53 C52 1.510 . S
C53 C54 1.404 1_556 S
C53 C55 1.352 . S
C54 C53 1.404 1_554 S
C54 C58 1.389 . S
C54 H76 0.930 . S
C55 C53 1.352 . S
C55 C57 1.374 . S
C55 H77 0.931 . S
C56 C57 1.359 . S
C56 C58 1.364 1_556 S
C57 C55 1.374 . S
C57 C56 1.359 . S
C57 H78 0.931 . S
C58 C54 1.389 . S
C58 C56 1.364 1_554 S
C58 H79 0.951 . S
C59 O70 1.256 . S
C59 O71 1.257 . S
O60 Gd40 2.377 . S
O60 C42 1.240 1_556 S
O61 Gd41 2.395 . S
O61 C42 1.240 . S
O62 Gd40 2.448 . S
O62 C43 1.249 1_556 S
O63 Gd40 2.506 1_554 S
O63 C43 1.252 . S
O64 Gd40 2.435 . S
O64 C50 1.256 . S
O65 Gd40 2.717 . S
O65 Gd41 2.327 1_556 S
O65 C50 1.257 . S
O66 Gd41 2.377 . S
O66 C51 1.240 1_554 S
O67 Gd40 2.395 . S
O67 C51 1.240 . S
O68 Gd41 2.448 . S
O68 C52 1.249 1_554 S
O69 Gd41 2.506 1_556 S
O69 C52 1.252 . S
O70 Gd41 2.435 . S
O70 C59 1.256 . S
O71 Gd40 2.327 1_554 S
O71 Gd41 2.717 . S
O71 C59 1.257 . S
H72 C45 0.930 . S
H73 C46 0.931 . S
H74 C48 0.931 . S
H75 C49 0.931 . S
H76 C54 0.930 . S
H77 C55 0.931 . S
H78 C57 0.931 . S
H79 C58 0.951 . S
Gd80 C83 2.818 . S
Gd80 O100 2.377 . S
Gd80 O102 2.448 . S
Gd80 O103 2.506 1_556 S
Gd80 O104 2.435 . S
Gd80 O105 2.717 . S
Gd80 O107 2.395 1_556 S
Gd80 O111 2.327 1_556 S
Gd81 C92 2.818 . S
Gd81 O101 2.395 1_554 S
Gd81 O105 2.327 1_554 S
Gd81 O106 2.377 . S
Gd81 O108 2.448 . S
Gd81 O109 2.506 1_554 S
Gd81 O110 2.435 . S
Gd81 O111 2.717 . S
C82 O100 1.240 . S
C82 O101 1.240 . S
C83 Gd80 2.818 . S
C83 C84 1.510 . S
C83 O102 1.249 . S
C83 O103 1.252 1_556 S
C84 C83 1.510 . S
C84 C85 1.404 . S
C84 C86 1.352 . S
C85 C84 1.404 . S
C85 C89 1.389 . S
C85 H112 0.930 . S
C86 C84 1.352 . S
C86 C88 1.374 . S
C86 H113 0.931 1_556 S
C87 C88 1.359 . S
C87 C89 1.364 . S
C88 C86 1.374 . S
C88 C87 1.359 . S
C88 H114 0.931 . S
C89 C85 1.389 . S
C89 C87 1.364 . S
C89 H115 0.931 . S
C90 O104 1.256 . S
C90 O105 1.257 . S
C91 O106 1.240 . S
C91 O107 1.240 . S
C92 Gd81 2.818 . S
C92 C93 1.510 . S
C92 O108 1.249 . S
C92 O109 1.252 1_554 S
C93 C92 1.510 . S
C93 C94 1.404 . S
C93 C95 1.352 . S
C94 C93 1.404 . S
C94 C98 1.389 . S
C94 H116 0.930 . S
C95 C93 1.352 . S
C95 C97 1.374 . S
C95 H117 0.931 1_554 S
C96 C97 1.359 . S
C96 C98 1.364 . S
C97 C95 1.374 . S
C97 C96 1.359 . S
C97 H118 0.931 . S
C98 C94 1.389 . S
C98 C96 1.364 . S
C98 H119 0.931 . S
C99 O110 1.256 . S
C99 O111 1.257 . S
O100 Gd80 2.377 . S
O100 C82 1.240 . S
O101 Gd81 2.395 1_556 S
O101 C82 1.240 . S
O102 Gd80 2.448 . S
O102 C83 1.249 . S
O103 Gd80 2.506 1_554 S
O103 C83 1.252 1_554 S
O104 Gd80 2.435 . S
O104 C90 1.256 . S
O105 Gd80 2.717 . S
O105 Gd81 2.327 1_556 S
O105 C90 1.257 . S
O106 Gd81 2.377 . S
O106 C91 1.240 . S
O107 Gd80 2.395 1_554 S
O107 C91 1.240 . S
O108 Gd81 2.448 . S
O108 C92 1.249 . S
O109 Gd81 2.506 1_556 S
O109 C92 1.252 1_556 S
O110 Gd81 2.435 . S
O110 C99 1.256 . S
O111 Gd80 2.327 1_554 S
O111 Gd81 2.717 . S
O111 C99 1.257 . S
H112 C85 0.930 . S
H113 C86 0.931 1_554 S
H114 C88 0.931 . S
H115 C89 0.931 . S
H116 C94 0.930 . S
H117 C95 0.931 1_556 S
H118 C97 0.931 . S
H119 C98 0.931 . S
Gd120 C123 2.818 . S
Gd120 O140 2.377 1_554 S
Gd120 O142 2.448 1_554 S
Gd120 O143 2.506 . S
Gd120 O144 2.435 1_554 S
Gd120 O145 2.717 1_554 S
Gd120 O147 2.395 1_554 S
Gd120 O151 2.327 . S
Gd121 C132 2.818 . S
Gd121 O141 2.395 1_556 S
Gd121 O145 2.327 . S
Gd121 O146 2.377 1_556 S
Gd121 O148 2.448 1_556 S
Gd121 O149 2.506 . S
Gd121 O150 2.435 1_556 S
Gd121 O151 2.717 1_556 S
C122 O140 1.240 1_554 S
C122 O141 1.240 . S
C123 Gd120 2.818 . S
C123 C124 1.510 . S
C123 O142 1.249 1_554 S
C123 O143 1.252 . S
C124 C123 1.510 . S
C124 C125 1.404 . S
C124 C126 1.352 . S
C125 C124 1.404 . S
C125 C129 1.389 . S
C125 H152 0.930 1_554 S
C126 C124 1.352 . S
C126 C128 1.374 . S
C126 H153 0.931 . S
C127 C128 1.359 . S
C127 C129 1.364 . S
C128 C126 1.374 . S
C128 C127 1.359 . S
C128 H154 0.931 . S
C129 C125 1.389 . S
C129 C127 1.364 . S
C129 H155 0.931 . S
C130 O144 1.256 . S
C130 O145 1.257 . S
C131 O146 1.240 1_556 S
C131 O147 1.240 . S
C132 Gd121 2.818 . S
C132 C133 1.510 . S
C132 O148 1.249 1_556 S
C132 O149 1.252 . S
C133 C132 1.510 . S
C133 C134 1.404 . S
C133 C135 1.352 . S
C134 C133 1.404 . S
C134 C138 1.389 . S
C134 H156 0.930 1_556 S
C135 C133 1.352 . S
C135 C137 1.374 . S
C135 H157 0.931 . S
C136 C137 1.359 . S
C136 C138 1.364 . S
C137 C135 1.374 . S
C137 C136 1.359 . S
C137 H158 0.931 . S
C138 C134 1.389 . S
C138 C136 1.364 . S
C138 H159 0.931 . S
C139 O150 1.256 . S
C139 O151 1.257 . S
O140 Gd120 2.377 1_556 S
O140 C122 1.240 1_556 S
O141 Gd121 2.395 1_554 S
O141 C122 1.240 . S
O142 Gd120 2.448 1_556 S
O142 C123 1.249 1_556 S
O143 Gd120 2.506 . S
O143 C123 1.252 . S
O144 Gd120 2.435 1_556 S
O144 C130 1.256 . S
O145 Gd120 2.717 1_556 S
O145 Gd121 2.327 . S
O145 C130 1.257 . S
O146 Gd121 2.377 1_554 S
O146 C131 1.240 1_554 S
O147 Gd120 2.395 1_556 S
O147 C131 1.240 . S
O148 Gd121 2.448 1_554 S
O148 C132 1.249 1_554 S
O149 Gd121 2.506 . S
O149 C132 1.252 . S
O150 Gd121 2.435 1_554 S
O150 C139 1.256 . S
O151 Gd120 2.327 . S
O151 Gd121 2.717 1_554 S
O151 C139 1.257 . S
H152 C125 0.930 1_556 S
H153 C126 0.931 . S
H154 C128 0.931 . S
H155 C129 0.931 . S
H156 C134 0.930 1_554 S
H157 C135 0.931 . S
H158 C137 0.931 . S
H159 C138 0.931 . S
Gd160 C163 2.818 1_556 S
Gd160 O180 2.377 . S
Gd160 O182 2.448 . S
Gd160 O183 2.506 1_556 S
Gd160 O184 2.435 . S
Gd160 O185 2.717 . S
Gd160 O187 2.395 . S
Gd160 O191 2.327 1_556 S
Gd161 C172 2.818 1_554 S
Gd161 O181 2.395 . S
Gd161 O185 2.327 1_554 S
Gd161 O186 2.377 . S
Gd161 O188 2.448 . S
Gd161 O189 2.506 1_554 S
Gd161 O190 2.435 . S
Gd161 O191 2.717 . S
C162 O180 1.240 1_554 S
C162 O181 1.240 . S
C163 Gd160 2.818 1_554 S
C163 C164 1.510 . S
C163 O182 1.249 1_554 S
C163 O183 1.252 . S
C164 C163 1.510 . S
C164 C165 1.404 1_554 S
C164 C166 1.352 . S
C165 C164 1.404 1_556 S
C165 C169 1.389 . S
C165 H192 0.930 . S
C166 C164 1.352 . S
C166 C168 1.374 . S
C166 H193 0.931 . S
C167 C168 1.359 . S
C167 C169 1.364 1_554 S
C168 C166 1.374 . S
C168 C167 1.359 . S
C168 H194 0.931 . S
C169 C165 1.389 . S
C169 C167 1.364 1_556 S
C169 H195 0.951 . S
C170 O184 1.256 . S
C170 O185 1.257 . S
C171 O186 1.240 1_556 S
C171 O187 1.240 . S
C172 Gd161 2.818 1_556 S
C172 C173 1.510 . S
C172 O188 1.249 1_556 S
C172 O189 1.252 . S
C173 C172 1.510 . S
C173 C174 1.404 1_556 S
C173 C175 1.352 . S
C174 C173 1.404 1_554 S
C174 C178 1.389 . S
C174 H196 0.930 . S
C175 C173 1.352 . S
C175 C177 1.374 . S
C175 H197 0.931 . S
C176 C177 1.359 . S
C176 C178 1.364 1_556 S
C177 C175 1.374 . S
C177 C176 1.359 . S
C177 H198 0.931 . S
C178 C174 1.389 . S
C178 C176 1.364 1_554 S
C178 H199 0.931 . S
C179 O190 1.256 . S
C179 O191 1.257 . S
O180 Gd160 2.377 . S
O180 C162 1.240 1_556 S
O181 Gd161 2.395 . S
O181 C162 1.240 . S
O182 Gd160 2.448 . S
O182 C163 1.249 1_556 S
O183 Gd160 2.506 1_554 S
O183 C163 1.252 . S
O184 Gd160 2.435 . S
O184 C170 1.256 . S
O185 Gd160 2.717 . S
O185 Gd161 2.327 1_556 S
O185 C170 1.257 . S
O186 Gd161 2.377 . S
O186 C171 1.240 1_554 S
O187 Gd160 2.395 . S
O187 C171 1.240 . S
O188 Gd161 2.448 . S
O188 C172 1.249 1_554 S
O189 Gd161 2.506 1_556 S
O189 C172 1.252 . S
O190 Gd161 2.435 . S
O190 C179 1.256 . S
O191 Gd160 2.327 1_554 S
O191 Gd161 2.717 . S
O191 C179 1.257 . S
H192 C165 0.930 . S
H193 C166 0.931 . S
H194 C168 0.931 . S
H195 C169 0.951 . S
H196 C174 0.930 . S
H197 C175 0.931 . S
H198 C177 0.931 . S
H199 C178 0.931 . S
Gd200 C203 2.818 . S
Gd200 O220 2.377 . S
Gd200 O222 2.448 . S
Gd200 O223 2.506 1_556 S
Gd200 O224 2.435 . S
Gd200 O225 2.717 . S
Gd200 O227 2.395 1_556 S
Gd200 O231 2.327 1_556 S
Gd201 C212 2.818 . S
Gd201 O221 2.395 1_554 S
Gd201 O225 2.327 1_554 S
Gd201 O226 2.377 . S
Gd201 O228 2.448 . S
Gd201 O229 2.506 1_554 S
Gd201 O230 2.435 . S
Gd201 O231 2.717 . S
C202 O220 1.240 . S
C202 O221 1.240 . S
C203 Gd200 2.818 . S
C203 C204 1.510 . S
C203 O222 1.249 . S
C203 O223 1.252 1_556 S
C204 C203 1.510 . S
C204 C205 1.404 . S
C204 C206 1.352 . S
C205 C204 1.404 . S
C205 C209 1.389 . S
C205 H232 0.930 . S
C206 C204 1.352 . S
C206 C208 1.374 . S
C206 H233 0.931 1_556 S
C207 C208 1.359 . S
C207 C209 1.364 . S
C208 C206 1.374 . S
C208 C207 1.359 . S
C208 H234 0.931 . S
C209 C205 1.389 . S
C209 C207 1.364 . S
C209 H235 0.931 . S
C210 O224 1.256 . S
C210 O225 1.257 . S
C211 O226 1.240 . S
C211 O227 1.240 . S
C212 Gd201 2.818 . S
C212 C213 1.510 . S
C212 O228 1.249 . S
C212 O229 1.252 1_554 S
C213 C212 1.510 . S
C213 C214 1.404 . S
C213 C215 1.352 . S
C214 C213 1.404 . S
C214 C218 1.389 . S
C214 H236 0.930 . S
C215 C213 1.352 . S
C215 C217 1.374 . S
C215 H237 0.931 1_554 S
C216 C217 1.359 . S
C216 C218 1.364 . S
C217 C215 1.374 . S
C217 C216 1.359 . S
C217 H238 0.931 . S
C218 C214 1.389 . S
C218 C216 1.364 . S
C218 H239 0.931 . S
C219 O230 1.256 . S
C219 O231 1.257 . S
O220 Gd200 2.377 . S
O220 C202 1.240 . S
O221 Gd201 2.395 1_556 S
O221 C202 1.240 . S
O222 Gd200 2.448 . S
O222 C203 1.249 . S
O223 Gd200 2.506 1_554 S
O223 C203 1.252 1_554 S
O224 Gd200 2.435 . S
O224 C210 1.256 . S
O225 Gd200 2.717 . S
O225 Gd201 2.327 1_556 S
O225 C210 1.257 . S
O226 Gd201 2.377 . S
O226 C211 1.240 . S
O227 Gd200 2.395 1_554 S
O227 C211 1.240 . S
O228 Gd201 2.448 . S
O228 C212 1.249 . S
O229 Gd201 2.506 1_556 S
O229 C212 1.252 1_556 S
O230 Gd201 2.435 . S
O230 C219 1.256 . S
O231 Gd200 2.327 1_554 S
O231 Gd201 2.717 . S
O231 C219 1.257 . S
H232 C205 0.930 . S
H233 C206 0.931 1_554 S
H234 C208 0.931 . S
H235 C209 0.931 . S
H236 C214 0.930 . S
H237 C215 0.931 1_556 S
H238 C217 0.931 . S
H239 C218 0.931 . S
C240 C241 1.386 . S
C240 C242 1.383 . S
C240 H256 0.951 . S
C241 C240 1.386 . S
C241 C245 1.383 . S
C242 C240 1.383 . S
C242 C243 1.402 . S
C242 H257 0.951 . S
C243 C242 1.402 . S
C243 C244 1.375 . S
C243 C246 1.481 . S
C244 C243 1.375 . S
C244 C245 1.367 . S
C244 H258 0.951 . S
C245 C241 1.383 . S
C245 C244 1.367 . S
C245 H259 0.950 . S
C246 C243 1.481 . S
C246 C247 1.297 . S
C246 H260 0.950 . S
C247 C246 1.297 . S
C247 C248 1.479 . S
C247 H261 0.950 . S
C248 C247 1.479 . S
C248 C249 1.375 . S
C248 C254 1.404 . S
C249 C248 1.375 . S
C249 C250 1.369 . S
C249 H262 0.950 . S
C250 C249 1.369 . S
C250 C251 1.392 . S
C250 H263 0.951 . S
C251 C250 1.392 . S
C251 C253 1.384 . S
H252 C254 0.949 . S
C253 C251 1.384 . S
C253 C254 1.385 . S
C253 H255 0.950 . S
C254 C248 1.404 . S
C254 H252 0.949 . S
C254 C253 1.385 . S
H255 C253 0.950 . S
H256 C240 0.951 . S
H257 C242 0.951 . S
H258 C244 0.951 . S
H259 C245 0.950 . S
H260 C246 0.950 . S
H261 C247 0.950 . S
H262 C249 0.950 . S
H263 C250 0.951 . S
C264 C265 1.386 . S
C264 C266 1.383 . S
C264 H280 0.951 . S
C265 C264 1.386 . S
C265 C269 1.383 . S
C266 C264 1.383 . S
C266 C267 1.402 . S
C266 H281 0.951 . S
C267 C266 1.402 . S
C267 C268 1.375 . S
C267 C270 1.481 . S
C268 C267 1.375 . S
C268 C269 1.367 . S
C268 H282 0.951 . S
C269 C265 1.383 . S
C269 C268 1.367 . S
C269 H283 0.950 . S
C270 C267 1.481 . S
C270 C271 1.297 . S
C270 H284 0.950 . S
C271 C270 1.297 . S
C271 C272 1.479 . S
C271 H285 0.950 . S
C272 C271 1.479 . S
C272 C273 1.375 . S
C272 C278 1.404 . S
C273 C272 1.375 . S
C273 C274 1.369 . S
C273 H286 0.950 . S
C274 C273 1.369 . S
C274 C275 1.392 . S
C274 H287 0.951 . S
C275 C274 1.392 . S
C275 C277 1.384 . S
H276 C278 0.949 . S
C277 C275 1.384 . S
C277 C278 1.385 . S
C277 H279 0.950 . S
C278 C272 1.404 . S
C278 H276 0.949 . S
C278 C277 1.385 . S
H279 C277 0.950 . S
H280 C264 0.951 . S
H281 C266 0.951 . S
H282 C268 0.951 . S
H283 C269 0.950 . S
H284 C270 0.950 . S
H285 C271 0.950 . S
H286 C273 0.950 . S
H287 C274 0.951 . S
C288 C289 1.386 . S
C288 C290 1.383 . S
C288 H304 0.951 . S
C289 C288 1.386 . S
C289 C293 1.383 . S
C290 C288 1.383 . S
C290 C291 1.402 . S
C290 H305 0.951 . S
C291 C290 1.402 . S
C291 C292 1.375 . S
C291 C294 1.481 . S
C292 C291 1.375 . S
C292 C293 1.367 . S
C292 H306 0.951 . S
C293 C289 1.383 . S
C293 C292 1.367 . S
C293 H307 0.950 . S
C294 C291 1.481 . S
C294 C295 1.297 . S
C294 H308 0.950 . S
C295 C294 1.297 . S
C295 C296 1.479 . S
C295 H309 0.950 . S
C296 C295 1.479 . S
C296 C297 1.375 . S
C296 C302 1.404 1_545 S
C297 C296 1.375 . S
C297 C298 1.369 1_545 S
C297 H310 0.950 . S
C298 C297 1.369 1_565 S
C298 C299 1.392 . S
C298 H311 0.951 . S
C299 C298 1.392 . S
C299 C301 1.384 . S
H300 C302 0.949 . S
C301 C299 1.384 . S
C301 C302 1.385 . S
C301 H303 0.950 . S
C302 C296 1.404 1_565 S
C302 H300 0.949 . S
C302 C301 1.385 . S
H303 C301 0.950 . S
H304 C288 0.951 . S
H305 C290 0.951 . S
H306 C292 0.951 . S
H307 C293 0.950 . S
H308 C294 0.950 . S
H309 C295 0.950 . S
H310 C297 0.950 . S
H311 C298 0.951 . S
C312 C313 1.386 . S
C312 C314 1.383 . S
C312 H328 0.951 . S
C313 C312 1.386 . S
C313 C317 1.383 . S
C314 C312 1.383 . S
C314 C315 1.402 . S
C314 H329 0.951 . S
C315 C314 1.402 . S
C315 C316 1.375 . S
C315 C318 1.481 . S
C316 C315 1.375 . S
C316 C317 1.367 . S
C316 H330 0.951 . S
C317 C313 1.383 . S
C317 C316 1.367 . S
C317 H331 0.950 . S
C318 C315 1.481 . S
C318 C319 1.297 . S
C318 H332 0.950 . S
C319 C318 1.297 . S
C319 C320 1.479 . S
C319 H333 0.950 . S
C320 C319 1.479 . S
C320 C321 1.375 . S
C320 C326 1.404 . S
C321 C320 1.375 . S
C321 C322 1.369 . S
C321 H334 0.950 . S
C322 C321 1.369 . S
C322 C323 1.392 . S
C322 H335 0.951 . S
C323 C322 1.392 . S
C323 C325 1.384 . S
H324 C326 0.949 . S
C325 C323 1.384 . S
C325 C326 1.385 . S
C325 H327 0.950 . S
C326 C320 1.404 . S
C326 H324 0.949 . S
C326 C325 1.385 . S
H327 C325 0.950 . S
H328 C312 0.951 . S
H329 C314 0.951 . S
H330 C316 0.951 . S
H331 C317 0.950 . S
H332 C318 0.950 . S
H333 C319 0.950 . S
H334 C321 0.950 . S
H335 C322 0.951 . S
C336 C337 1.386 . S
C336 C338 1.383 . S
C336 H352 0.951 1_655 S
C337 C336 1.386 . S
C337 C341 1.383 . S
C338 C336 1.383 . S
C338 C339 1.402 . S
C338 H353 0.951 . S
C339 C338 1.402 . S
C339 C340 1.375 . S
C339 C342 1.481 . S
C340 C339 1.375 . S
C340 C341 1.367 . S
C340 H354 0.951 . S
C341 C337 1.383 . S
C341 C340 1.367 . S
C341 H355 0.950 . S
C342 C339 1.481 . S
C342 C343 1.297 . S
C342 H356 0.950 . S
C343 C342 1.297 . S
C343 C344 1.479 . S
C343 H357 0.950 . S
C344 C343 1.479 . S
C344 C345 1.375 . S
C344 C350 1.404 . S
C345 C344 1.375 . S
C345 C346 1.369 . S
C345 H358 0.950 . S
C346 C345 1.369 . S
C346 C347 1.392 . S
C346 H359 0.951 . S
C347 C346 1.392 . S
C347 C349 1.384 . S
H348 C350 0.949 . S
C349 C347 1.384 . S
C349 C350 1.385 . S
C349 H351 0.950 . S
C350 C344 1.404 . S
C350 H348 0.949 . S
C350 C349 1.385 . S
H351 C349 0.950 . S
H352 C336 0.951 1_455 S
H353 C338 0.951 . S
H354 C340 0.951 . S
H355 C341 0.950 . S
H356 C342 0.950 . S
H357 C343 0.950 . S
H358 C345 0.950 . S
H359 C346 0.951 . S
C360 C361 1.386 . S
C360 C362 1.383 . S
C360 H376 0.951 . S
C361 C360 1.386 . S
C361 C365 1.383 . S
C362 C360 1.383 . S
C362 C363 1.402 . S
C362 H377 0.951 . S
C363 C362 1.402 . S
C363 C364 1.375 . S
C363 C366 1.481 . S
C364 C363 1.375 . S
C364 C365 1.367 . S
C364 H378 0.951 . S
C365 C361 1.383 . S
C365 C364 1.367 . S
C365 H379 0.950 . S
C366 C363 1.481 . S
C366 C367 1.297 . S
C366 H380 0.950 . S
C367 C366 1.297 . S
C367 C368 1.479 . S
C367 H381 0.950 . S
C368 C367 1.479 . S
C368 C369 1.375 1_565 S
C368 C374 1.404 . S
C369 C368 1.375 1_545 S
C369 C370 1.369 . S
C369 H382 0.950 . S
C370 C369 1.369 . S
C370 C371 1.392 . S
C370 H383 0.951 . S
C371 C370 1.392 . S
C371 C373 1.384 . S
H372 C374 0.949 . S
C373 C371 1.384 . S
C373 C374 1.385 1_545 S
C373 H375 0.950 . S
C374 C368 1.404 . S
C374 H372 0.949 . S
C374 C373 1.385 1_565 S
H375 C373 0.950 . S
H376 C360 0.951 . S
H377 C362 0.951 . S
H378 C364 0.951 . S
H379 C365 0.950 . S
H380 C366 0.950 . S
H381 C367 0.950 . S
H382 C369 0.950 . S
H383 C370 0.951 . S
C384 C385 1.386 . S
C384 C386 1.383 . S
C384 H400 0.951 . S
C385 C384 1.386 . S
C385 C389 1.383 . S
C386 C384 1.383 . S
C386 C387 1.402 . S
C386 H401 0.951 . S
C387 C386 1.402 . S
C387 C388 1.375 . S
C387 C390 1.481 . S
C388 C387 1.375 . S
C388 C389 1.367 . S
C388 H402 0.951 1_556 S
C389 C385 1.383 . S
C389 C388 1.367 . S
C389 H403 0.950 1_556 S
C390 C387 1.481 . S
C390 C391 1.297 . S
C390 H404 0.950 . S
C391 C390 1.297 . S
C391 C392 1.479 . S
C391 H405 0.950 . S
C392 C391 1.479 . S
C392 C393 1.375 . S
C392 C398 1.404 . S
C393 C392 1.375 . S
C393 C394 1.369 . S
C393 H406 0.950 . S
C394 C393 1.369 . S
C394 C395 1.392 . S
C394 H407 0.951 . S
C395 C394 1.392 . S
C395 C397 1.384 . S
H396 C398 0.949 . S
C397 C395 1.384 . S
C397 C398 1.385 . S
C397 H399 0.950 . S
C398 C392 1.404 . S
C398 H396 0.949 . S
C398 C397 1.385 . S
H399 C397 0.950 . S
H400 C384 0.951 . S
H401 C386 0.951 . S
H402 C388 0.951 1_554 S
H403 C389 0.950 1_554 S
H404 C390 0.950 . S
H405 C391 0.950 . S
H406 C393 0.950 . S
H407 C394 0.951 . S
C408 C409 1.386 . S
C408 C410 1.383 . S
C408 H424 0.951 . S
C409 C408 1.386 . S
C409 C413 1.383 . S
C410 C408 1.383 . S
C410 C411 1.402 . S
C410 H425 0.951 . S
C411 C410 1.402 . S
C411 C412 1.375 . S
C411 C414 1.481 . S
C412 C411 1.375 . S
C412 C413 1.367 . S
C412 H426 0.951 1_554 S
C413 C409 1.383 . S
C413 C412 1.367 . S
C413 H427 0.950 1_554 S
C414 C411 1.481 . S
C414 C415 1.297 . S
C414 H428 0.950 . S
C415 C414 1.297 . S
C415 C416 1.479 . S
C415 H429 0.950 . S
C416 C415 1.479 . S
C416 C417 1.375 . S
C416 C422 1.404 . S
C417 C416 1.375 . S
C417 C418 1.369 . S
C417 H430 0.950 . S
C418 C417 1.369 . S
C418 C419 1.392 . S
C418 H431 0.951 . S
C419 C418 1.392 . S
C419 C421 1.384 . S
H420 C422 0.949 1_556 S
C421 C419 1.384 . S
C421 C422 1.385 . S
C421 H423 0.950 . S
C422 C416 1.404 . S
C422 H420 0.949 1_554 S
C422 C421 1.385 . S
H423 C421 0.950 . S
H424 C408 0.951 . S
H425 C410 0.951 . S
H426 C412 0.951 1_556 S
H427 C413 0.950 1_556 S
H428 C414 0.950 . S
H429 C415 0.950 . S
H430 C417 0.950 . S
H431 C418 0.951 . S
C432 C433 1.386 . S
C432 C434 1.383 . S
C432 H448 0.951 . S
C433 C432 1.386 . S
C433 C437 1.383 . S
C434 C432 1.383 . S
C434 C435 1.402 . S
C434 H449 0.951 . S
C435 C434 1.402 . S
C435 C436 1.375 . S
C435 C438 1.481 . S
C436 C435 1.375 . S
C436 C437 1.367 . S
C436 H450 0.951 1_556 S
C437 C433 1.383 . S
C437 C436 1.367 . S
C437 H451 0.950 . S
C438 C435 1.481 . S
C438 C439 1.297 . S
C438 H452 0.950 . S
C439 C438 1.297 . S
C439 C440 1.479 . S
C439 H453 0.950 . S
C440 C439 1.479 . S
C440 C441 1.375 . S
C440 C446 1.404 . S
C441 C440 1.375 . S
C441 C442 1.369 . S
C441 H454 0.950 . S
C442 C441 1.369 . S
C442 C443 1.392 . S
C442 H455 0.951 . S
C443 C442 1.392 . S
C443 C445 1.384 1_556 S
H444 C446 0.949 1_554 S
C445 C443 1.384 1_554 S
C445 C446 1.385 1_554 S
C445 H447 0.950 . S
C446 C440 1.404 . S
C446 H444 0.949 1_556 S
C446 C445 1.385 1_556 S
H447 C445 0.950 . S
H448 C432 0.951 . S
H449 C434 0.951 . S
H450 C436 0.951 1_554 S
H451 C437 0.950 . S
H452 C438 0.950 . S
H453 C439 0.950 . S
H454 C441 0.950 . S
H455 C442 0.951 . S
C456 C457 1.386 . S
C456 C458 1.383 . S
C456 H472 0.951 . S
C457 C456 1.386 . S
C457 C461 1.383 . S
C458 C456 1.383 . S
C458 C459 1.402 . S
C458 H473 0.951 . S
C459 C458 1.402 . S
C459 C460 1.375 . S
C459 C462 1.481 . S
C460 C459 1.375 . S
C460 C461 1.367 . S
C460 H474 0.951 . S
C461 C457 1.383 . S
C461 C460 1.367 . S
C461 H475 0.950 . S
C462 C459 1.481 . S
C462 C463 1.297 . S
C462 H476 0.950 . S
C463 C462 1.297 . S
C463 C464 1.479 . S
C463 H477 0.950 . S
C464 C463 1.479 . S
C464 C465 1.375 . S
C464 C470 1.404 . S
C465 C464 1.375 . S
C465 C466 1.369 . S
C465 H478 0.950 . S
C466 C465 1.369 . S
C466 C467 1.392 . S
C466 H479 0.951 . S
C467 C466 1.392 . S
C467 C469 1.384 . S
H468 C470 0.949 . S
C469 C467 1.384 . S
C469 C470 1.385 . S
C469 H471 0.950 . S
C470 C464 1.404 . S
C470 H468 0.949 . S
C470 C469 1.385 . S
H471 C469 0.950 . S
H472 C456 0.951 . S
H473 C458 0.951 . S
H474 C460 0.951 . S
H475 C461 0.950 . S
H476 C462 0.950 . S
H477 C463 0.950 . S
H478 C465 0.950 . S
H479 C466 0.951 . S
C480 C481 1.386 . S
C480 C482 1.383 . S
C480 H496 0.951 . S
C481 C480 1.386 . S
C481 C485 1.383 . S
C482 C480 1.383 . S
C482 C483 1.402 . S
C482 H497 0.951 . S
C483 C482 1.402 . S
C483 C484 1.375 1_556 S
C483 C486 1.481 . S
C484 C483 1.375 1_554 S
C484 C485 1.367 1_554 S
C484 H498 0.951 . S
C485 C481 1.383 . S
C485 C484 1.367 1_556 S
C485 H499 0.950 1_556 S
C486 C483 1.481 . S
C486 C487 1.297 . S
C486 H500 0.950 1_556 S
C487 C486 1.297 . S
C487 C488 1.479 . S
C487 H501 0.950 . S
C488 C487 1.479 . S
C488 C489 1.375 . S
C488 C494 1.404 1_556 S
C489 C488 1.375 . S
C489 C490 1.369 . S
C489 H502 0.950 . S
C490 C489 1.369 . S
C490 C491 1.392 . S
C490 H503 0.951 . S
C491 C490 1.392 . S
C491 C493 1.384 1_556 S
H492 C494 0.949 . S
C493 C491 1.384 1_554 S
C493 C494 1.385 . S
C493 H495 0.950 . S
C494 C488 1.404 1_554 S
C494 H492 0.949 . S
C494 C493 1.385 . S
H495 C493 0.950 . S
H496 C480 0.951 . S
H497 C482 0.951 . S
H498 C484 0.951 . S
H499 C485 0.950 1_554 S
H500 C486 0.950 1_554 S
H501 C487 0.950 . S
H502 C489 0.950 . S
H503 C490 0.951 . S
C504 C505 1.386 . S
C504 C506 1.383 . S
C504 H520 0.951 . S
C505 C504 1.386 . S
C505 C509 1.383 . S
C506 C504 1.383 . S
C506 C507 1.402 . S
C506 H521 0.951 . S
C507 C506 1.402 . S
C507 C508 1.375 . S
C507 C510 1.481 . S
C508 C507 1.375 . S
C508 C509 1.367 . S
C508 H522 0.951 . S
C509 C505 1.383 . S
C509 C508 1.367 . S
C509 H523 0.950 . S
C510 C507 1.481 . S
C510 C511 1.297 . S
C510 H524 0.950 . S
C511 C510 1.297 . S
C511 C512 1.479 . S
C511 H525 0.950 . S
C512 C511 1.479 . S
C512 C513 1.375 . S
C512 C518 1.404 . S
C513 C512 1.375 . S
C513 C514 1.369 . S
C513 H526 0.950 . S
C514 C513 1.369 . S
C514 C515 1.392 . S
C514 H527 0.951 . S
C515 C514 1.392 . S
C515 C517 1.384 . S
H516 C518 0.949 . S
C517 C515 1.384 . S
C517 C518 1.385 . S
C517 H519 0.950 . S
C518 C512 1.404 . S
C518 H516 0.949 . S
C518 C517 1.385 . S
H519 C517 0.950 . S
H520 C504 0.951 . S
H521 C506 0.951 . S
H522 C508 0.951 . S
H523 C509 0.950 . S
H524 C510 0.950 . S
H525 C511 0.950 . S
H526 C513 0.950 . S
H527 C514 0.951 . S
C528 C529 1.386 . S
C528 C530 1.383 . S
C528 H544 0.951 . S
C529 C528 1.386 . S
C529 C533 1.383 . S
C530 C528 1.383 . S
C530 C531 1.402 . S
C530 H545 0.951 . S
C531 C530 1.402 . S
C531 C532 1.375 . S
C531 C534 1.481 . S
C532 C531 1.375 . S
C532 C533 1.367 . S
C532 H546 0.951 . S
C533 C529 1.383 . S
C533 C532 1.367 . S
C533 H547 0.950 . S
C534 C531 1.481 . S
C534 C535 1.297 . S
C534 H548 0.950 . S
C535 C534 1.297 . S
C535 C536 1.479 . S
C535 H549 0.950 . S
C536 C535 1.479 . S
C536 C537 1.375 . S
C536 C542 1.404 . S
C537 C536 1.375 . S
C537 C538 1.369 . S
C537 H550 0.950 . S
C538 C537 1.369 . S
C538 C539 1.392 . S
C538 H551 0.951 . S
C539 C538 1.392 . S
C539 C541 1.384 . S
H540 C542 0.949 . S
C541 C539 1.384 . S
C541 C542 1.385 . S
C541 H543 0.950 . S
C542 C536 1.404 . S
C542 H540 0.949 . S
C542 C541 1.385 . S
H543 C541 0.950 . S
H544 C528 0.951 . S
H545 C530 0.951 . S
H546 C532 0.951 . S
H547 C533 0.950 . S
H548 C534 0.950 . S
H549 C535 0.950 . S
H550 C537 0.950 . S
H551 C538 0.951 . S
C552 C553 1.386 . S
C552 C554 1.383 . S
C552 H568 0.951 . S
C553 C552 1.386 . S
C553 C557 1.383 . S
C554 C552 1.383 . S
C554 C555 1.402 . S
C554 H569 0.951 . S
C555 C554 1.402 . S
C555 C556 1.375 . S
C555 C558 1.481 . S
C556 C555 1.375 . S
C556 C557 1.367 . S
C556 H570 0.951 . S
C557 C553 1.383 . S
C557 C556 1.367 . S
C557 H571 0.950 . S
C558 C555 1.481 . S
C558 C559 1.297 . S
C558 H572 0.950 . S
C559 C558 1.297 . S
C559 C560 1.479 . S
C559 H573 0.950 . S
C560 C559 1.479 . S
C560 C561 1.375 . S
C560 C566 1.404 . S
C561 C560 1.375 . S
C561 C562 1.369 . S
C561 H574 0.950 . S
C562 C561 1.369 . S
C562 C563 1.392 . S
C562 H575 0.951 . S
C563 C562 1.392 . S
C563 C565 1.384 . S
H564 C566 0.949 . S
C565 C563 1.384 . S
C565 C566 1.385 . S
C565 H567 0.950 . S
C566 C560 1.404 . S
C566 H564 0.949 . S
C566 C565 1.385 . S
H567 C565 0.950 . S
H568 C552 0.951 . S
H569 C554 0.951 . S
H570 C556 0.951 . S
H571 C557 0.950 . S
H572 C558 0.950 . S
H573 C559 0.950 . S
H574 C561 0.950 . S
H575 C562 0.951 . S
C576 C577 1.386 . S
C576 C578 1.383 . S
C576 H592 0.951 . S
C577 C576 1.386 . S
C577 C581 1.383 . S
C578 C576 1.383 . S
C578 C579 1.402 . S
C578 H593 0.951 . S
C579 C578 1.402 . S
C579 C580 1.375 . S
C579 C582 1.481 . S
C580 C579 1.375 . S
C580 C581 1.367 . S
C580 H594 0.951 . S
C581 C577 1.383 . S
C581 C580 1.367 . S
C581 H595 0.950 . S
C582 C579 1.481 . S
C582 C583 1.297 . S
C582 H596 0.950 . S
C583 C582 1.297 . S
C583 C584 1.479 . S
C583 H597 0.950 . S
C584 C583 1.479 . S
C584 C585 1.375 . S
C584 C590 1.404 . S
C585 C584 1.375 . S
C585 C586 1.369 . S
C585 H598 0.950 . S
C586 C585 1.369 . S
C586 C587 1.392 . S
C586 H599 0.951 . S
C587 C586 1.392 . S
C587 C589 1.384 . S
H588 C590 0.949 . S
C589 C587 1.384 . S
C589 C590 1.385 . S
C589 H591 0.950 . S
C590 C584 1.404 . S
C590 H588 0.949 . S
C590 C589 1.385 . S
H591 C589 0.950 . S
H592 C576 0.951 . S
H593 C578 0.951 . S
H594 C580 0.951 . S
H595 C581 0.950 . S
H596 C582 0.950 . S
H597 C583 0.950 . S
H598 C585 0.950 . S
H599 C586 0.951 . S
C600 C601 1.386 . S
C600 C602 1.383 . S
C600 H616 0.951 . S
C601 C600 1.386 . S
C601 C605 1.383 . S
C602 C600 1.383 . S
C602 C603 1.402 . S
C602 H617 0.951 . S
C603 C602 1.402 . S
C603 C604 1.375 . S
C603 C606 1.481 . S
C604 C603 1.375 . S
C604 C605 1.367 . S
C604 H618 0.951 . S
C605 C601 1.383 . S
C605 C604 1.367 . S
C605 H619 0.950 . S
C606 C603 1.481 . S
C606 C607 1.297 . S
C606 H620 0.950 . S
C607 C606 1.297 . S
C607 C608 1.479 . S
C607 H621 0.950 . S
C608 C607 1.479 . S
C608 C609 1.375 . S
C608 C614 1.404 . S
C609 C608 1.375 . S
C609 C610 1.369 . S
C609 H622 0.950 . S
C610 C609 1.369 . S
C610 C611 1.392 . S
C610 H623 0.951 . S
C611 C610 1.392 . S
C611 C613 1.384 . S
H612 C614 0.949 . S
C613 C611 1.384 . S
C613 C614 1.385 . S
C613 H615 0.950 . S
C614 C608 1.404 . S
C614 H612 0.949 . S
C614 C613 1.385 . S
H615 C613 0.950 . S
H616 C600 0.951 . S
H617 C602 0.951 . S
H618 C604 0.951 . S
H619 C605 0.950 . S
H620 C606 0.950 . S
H621 C607 0.950 . S
H622 C609 0.950 . S
H623 C610 0.951 . S
C624 C625 1.386 . S
C624 C626 1.383 . S
C624 H640 0.951 . S
C625 C624 1.386 . S
C625 C629 1.383 . S
C626 C624 1.383 . S
C626 C627 1.402 . S
C626 H641 0.951 . S
C627 C626 1.402 . S
C627 C628 1.375 . S
C627 C630 1.481 . S
C628 C627 1.375 . S
C628 C629 1.367 . S
C628 H642 0.951 . S
C629 C625 1.383 . S
C629 C628 1.367 . S
C629 H643 0.950 . S
C630 C627 1.481 . S
C630 C631 1.297 . S
C630 H644 0.950 . S
C631 C630 1.297 . S
C631 C632 1.479 . S
C631 H645 0.950 . S
C632 C631 1.479 . S
C632 C633 1.375 . S
C632 C638 1.404 . S
C633 C632 1.375 . S
C633 C634 1.369 . S
C633 H646 0.950 . S
C634 C633 1.369 . S
C634 C635 1.392 . S
C634 H647 0.951 . S
C635 C634 1.392 . S
C635 C637 1.384 . S
H636 C638 0.949 . S
C637 C635 1.384 . S
C637 C638 1.385 . S
C637 H639 0.950 . S
C638 C632 1.404 . S
C638 H636 0.949 . S
C638 C637 1.385 . S
H639 C637 0.950 . S
H640 C624 0.951 . S
H641 C626 0.951 . S
H642 C628 0.951 . S
H643 C629 0.950 . S
H644 C630 0.950 . S
H645 C631 0.950 . S
H646 C633 0.950 . S
H647 C634 0.951 . S
C648 C649 1.386 . S
C648 C650 1.383 . S
C648 H664 0.951 . S
C649 C648 1.386 . S
C649 C653 1.383 . S
C650 C648 1.383 . S
C650 C651 1.402 . S
C650 H665 0.951 . S
C651 C650 1.402 . S
C651 C652 1.375 . S
C651 C654 1.481 . S
C652 C651 1.375 . S
C652 C653 1.367 . S
C652 H666 0.951 . S
C653 C649 1.383 . S
C653 C652 1.367 . S
C653 H667 0.950 . S
C654 C651 1.481 . S
C654 C655 1.297 . S
C654 H668 0.950 . S
C655 C654 1.297 . S
C655 C656 1.479 . S
C655 H669 0.950 . S
C656 C655 1.479 . S
C656 C657 1.375 . S
C656 C662 1.404 . S
C657 C656 1.375 . S
C657 C658 1.369 . S
C657 H670 0.950 . S
C658 C657 1.369 . S
C658 C659 1.392 . S
C658 H671 0.951 . S
C659 C658 1.392 . S
C659 C661 1.384 . S
H660 C662 0.949 . S
C661 C659 1.384 . S
C661 C662 1.385 . S
C661 H663 0.950 . S
C662 C656 1.404 . S
C662 H660 0.949 . S
C662 C661 1.385 . S
H663 C661 0.950 . S
H664 C648 0.951 . S
H665 C650 0.951 . S
H666 C652 0.951 . S
H667 C653 0.950 . S
H668 C654 0.950 . S
H669 C655 0.950 . S
H670 C657 0.950 . S
H671 C658 0.951 . S
C241 C202 3.096 . S
C251 C7 2.922 . S
C265 C2 3.201 . S
C275 C56 3.012 1_455 S
C289 C51 3.078 . S
C299 C96 2.919 . S
C313 C136 2.961 . S
C323 C91 3.049 . S
C337 C167 3.003 1_655 S
C347 C131 3.230 . S
C361 C162 3.087 . S
C371 C207 2.905 . S
C385 C171 2.323 . S
C395 C16 2.323 . S
C409 C211 2.135 . S
C419 C47 2.093 . S
C433 C87 2.146 . S
C443 C11 2.179 . S
C457 C127 2.311 . S
C467 C42 2.296 . S
C481 C176 2.113 . S
C491 C82 2.117 . S
C505 C122 2.193 . S
C515 C216 2.121 . S
C529 C10 0.442 . S
C539 C19 0.562 . S
C553 C50 0.174 . S
C563 C59 0.313 . S
C577 C90 0.452 . S
C587 C99 0.594 . S
C601 C130 0.499 . S
C611 C139 0.470 . S
C625 C179 0.164 . S
C635 C170 0.401 . S
C649 C210 0.627 . S
C659 C219 0.492 . S
