# Generated by pormake.
# Topology mer, (4)-cn, num edge types: 1
# Building blocks:
#     Node 0, Type 0, BuildingBlock: NAHDIM_clean_sbu_0, # of connection points: 4
#     Node 1, Type 0, BuildingBlock: NAHDIM_clean_sbu_0, # of connection points: 4
#     Node 2, Type 0, BuildingBlock: NAHDIM_clean_sbu_0, # of connection points: 4
#     Node 3, Type 0, BuildingBlock: NAHDIM_clean_sbu_0, # of connection points: 4
#     Node 4, Type 0, BuildingBlock: NAHDIM_clean_sbu_0, # of connection points: 4
#     Node 5, Type 0, BuildingBlock: NAHDIM_clean_sbu_0, # of connection points: 4
#     Node 6, Type 0, BuildingBlock: NAHDIM_clean_sbu_0, # of connection points: 4
#     Node 7, Type 0, BuildingBlock: NAHDIM_clean_sbu_0, # of connection points: 4
#     Node 8, Type 0, BuildingBlock: NAHDIM_clean_sbu_0, # of connection points: 4
#     Node 9, Type 0, BuildingBlock: NAHDIM_clean_sbu_0, # of connection points: 4
#     Node 10, Type 0, BuildingBlock: NAHDIM_clean_sbu_0, # of connection points: 4
#     Node 11, Type 0, BuildingBlock: NAHDIM_clean_sbu_0, # of connection points: 4
#     Node 12, Type 0, BuildingBlock: NAHDIM_clean_sbu_0, # of connection points: 4
#     Node 13, Type 0, BuildingBlock: NAHDIM_clean_sbu_0, # of connection points: 4
#     Node 14, Type 0, BuildingBlock: NAHDIM_clean_sbu_0, # of connection points: 4
#     Node 15, Type 0, BuildingBlock: NAHDIM_clean_sbu_0, # of connection points: 4
#     Node 16, Type 0, BuildingBlock: NAHDIM_clean_sbu_0, # of connection points: 4
#     Node 17, Type 0, BuildingBlock: NAHDIM_clean_sbu_0, # of connection points: 4
#     Node 18, Type 0, BuildingBlock: NAHDIM_clean_sbu_0, # of connection points: 4
#     Node 19, Type 0, BuildingBlock: NAHDIM_clean_sbu_0, # of connection points: 4
#     Node 20, Type 0, BuildingBlock: NAHDIM_clean_sbu_0, # of connection points: 4
#     Node 21, Type 0, BuildingBlock: NAHDIM_clean_sbu_0, # of connection points: 4
#     Node 22, Type 0, BuildingBlock: NAHDIM_clean_sbu_0, # of connection points: 4
#     Node 23, Type 0, BuildingBlock: NAHDIM_clean_sbu_0, # of connection points: 4
#     Node 24, Type 0, BuildingBlock: NAHDIM_clean_sbu_0, # of connection points: 4
#     Node 25, Type 0, BuildingBlock: NAHDIM_clean_sbu_0, # of connection points: 4
#     Node 26, Type 0, BuildingBlock: NAHDIM_clean_sbu_0, # of connection points: 4
#     Node 27, Type 0, BuildingBlock: NAHDIM_clean_sbu_0, # of connection points: 4
#     Node 28, Type 0, BuildingBlock: NAHDIM_clean_sbu_0, # of connection points: 4
#     Node 29, Type 0, BuildingBlock: NAHDIM_clean_sbu_0, # of connection points: 4
#     Node 30, Type 0, BuildingBlock: NAHDIM_clean_sbu_0, # of connection points: 4
#     Node 31, Type 0, BuildingBlock: NAHDIM_clean_sbu_0, # of connection points: 4
#     Edge 32, Type (0, 0), BuildingBlock: TEMPAE_clean_linker_10, # of connection points: 2
#     Edge 33, Type (0, 0), BuildingBlock: TEMPAE_clean_linker_10, # of connection points: 2
#     Edge 34, Type (0, 0), BuildingBlock: TEMPAE_clean_linker_10, # of connection points: 2
#     Edge 35, Type (0, 0), BuildingBlock: TEMPAE_clean_linker_10, # of connection points: 2
#     Edge 36, Type (0, 0), BuildingBlock: TEMPAE_clean_linker_10, # of connection points: 2
#     Edge 37, Type (0, 0), BuildingBlock: TEMPAE_clean_linker_10, # of connection points: 2
#     Edge 38, Type (0, 0), BuildingBlock: TEMPAE_clean_linker_10, # of connection points: 2
#     Edge 39, Type (0, 0), BuildingBlock: TEMPAE_clean_linker_10, # of connection points: 2
#     Edge 40, Type (0, 0), BuildingBlock: TEMPAE_clean_linker_10, # of connection points: 2
#     Edge 41, Type (0, 0), BuildingBlock: TEMPAE_clean_linker_10, # of connection points: 2
#     Edge 42, Type (0, 0), BuildingBlock: TEMPAE_clean_linker_10, # of connection points: 2
#     Edge 43, Type (0, 0), BuildingBlock: TEMPAE_clean_linker_10, # of connection points: 2
#     Edge 44, Type (0, 0), BuildingBlock: TEMPAE_clean_linker_10, # of connection points: 2
#     Edge 45, Type (0, 0), BuildingBlock: TEMPAE_clean_linker_10, # of connection points: 2
#     Edge 46, Type (0, 0), BuildingBlock: TEMPAE_clean_linker_10, # of connection points: 2
#     Edge 47, Type (0, 0), BuildingBlock: TEMPAE_clean_linker_10, # of connection points: 2
#     Edge 48, Type (0, 0), BuildingBlock: TEMPAE_clean_linker_10, # of connection points: 2
#     Edge 49, Type (0, 0), BuildingBlock: TEMPAE_clean_linker_10, # of connection points: 2
#     Edge 50, Type (0, 0), BuildingBlock: TEMPAE_clean_linker_10, # of connection points: 2
#     Edge 51, Type (0, 0), BuildingBlock: TEMPAE_clean_linker_10, # of connection points: 2
#     Edge 52, Type (0, 0), BuildingBlock: TEMPAE_clean_linker_10, # of connection points: 2
#     Edge 53, Type (0, 0), BuildingBlock: TEMPAE_clean_linker_10, # of connection points: 2
#     Edge 54, Type (0, 0), BuildingBlock: TEMPAE_clean_linker_10, # of connection points: 2
#     Edge 55, Type (0, 0), BuildingBlock: TEMPAE_clean_linker_10, # of connection points: 2
#     Edge 56, Type (0, 0), BuildingBlock: TEMPAE_clean_linker_10, # of connection points: 2
#     Edge 57, Type (0, 0), BuildingBlock: TEMPAE_clean_linker_10, # of connection points: 2
#     Edge 58, Type (0, 0), BuildingBlock: TEMPAE_clean_linker_10, # of connection points: 2
#     Edge 59, Type (0, 0), BuildingBlock: TEMPAE_clean_linker_10, # of connection points: 2
#     Edge 60, Type (0, 0), BuildingBlock: TEMPAE_clean_linker_10, # of connection points: 2
#     Edge 61, Type (0, 0), BuildingBlock: TEMPAE_clean_linker_10, # of connection points: 2
#     Edge 62, Type (0, 0), BuildingBlock: TEMPAE_clean_linker_10, # of connection points: 2
#     Edge 63, Type (0, 0), BuildingBlock: TEMPAE_clean_linker_10, # of connection points: 2
#     Edge 64, Type (0, 0), BuildingBlock: TEMPAE_clean_linker_10, # of connection points: 2
#     Edge 65, Type (0, 0), BuildingBlock: TEMPAE_clean_linker_10, # of connection points: 2
#     Edge 66, Type (0, 0), BuildingBlock: TEMPAE_clean_linker_10, # of connection points: 2
#     Edge 67, Type (0, 0), BuildingBlock: TEMPAE_clean_linker_10, # of connection points: 2
#     Edge 68, Type (0, 0), BuildingBlock: TEMPAE_clean_linker_10, # of connection points: 2
#     Edge 69, Type (0, 0), BuildingBlock: TEMPAE_clean_linker_10, # of connection points: 2
#     Edge 70, Type (0, 0), BuildingBlock: TEMPAE_clean_linker_10, # of connection points: 2
#     Edge 71, Type (0, 0), BuildingBlock: TEMPAE_clean_linker_10, # of connection points: 2
#     Edge 72, Type (0, 0), BuildingBlock: TEMPAE_clean_linker_10, # of connection points: 2
#     Edge 73, Type (0, 0), BuildingBlock: TEMPAE_clean_linker_10, # of connection points: 2
#     Edge 74, Type (0, 0), BuildingBlock: TEMPAE_clean_linker_10, # of connection points: 2
#     Edge 75, Type (0, 0), BuildingBlock: TEMPAE_clean_linker_10, # of connection points: 2
#     Edge 76, Type (0, 0), BuildingBlock: TEMPAE_clean_linker_10, # of connection points: 2
#     Edge 77, Type (0, 0), BuildingBlock: TEMPAE_clean_linker_10, # of connection points: 2
#     Edge 78, Type (0, 0), BuildingBlock: TEMPAE_clean_linker_10, # of connection points: 2
#     Edge 79, Type (0, 0), BuildingBlock: TEMPAE_clean_linker_10, # of connection points: 2
#     Edge 80, Type (0, 0), BuildingBlock: TEMPAE_clean_linker_10, # of connection points: 2
#     Edge 81, Type (0, 0), BuildingBlock: TEMPAE_clean_linker_10, # of connection points: 2
#     Edge 82, Type (0, 0), BuildingBlock: TEMPAE_clean_linker_10, # of connection points: 2
#     Edge 83, Type (0, 0), BuildingBlock: TEMPAE_clean_linker_10, # of connection points: 2
#     Edge 84, Type (0, 0), BuildingBlock: TEMPAE_clean_linker_10, # of connection points: 2
#     Edge 85, Type (0, 0), BuildingBlock: TEMPAE_clean_linker_10, # of connection points: 2
#     Edge 86, Type (0, 0), BuildingBlock: TEMPAE_clean_linker_10, # of connection points: 2
#     Edge 87, Type (0, 0), BuildingBlock: TEMPAE_clean_linker_10, # of connection points: 2
#     Edge 88, Type (0, 0), BuildingBlock: TEMPAE_clean_linker_10, # of connection points: 2
#     Edge 89, Type (0, 0), BuildingBlock: TEMPAE_clean_linker_10, # of connection points: 2
#     Edge 90, Type (0, 0), BuildingBlock: TEMPAE_clean_linker_10, # of connection points: 2
#     Edge 91, Type (0, 0), BuildingBlock: TEMPAE_clean_linker_10, # of connection points: 2
#     Edge 92, Type (0, 0), BuildingBlock: TEMPAE_clean_linker_10, # of connection points: 2
#     Edge 93, Type (0, 0), BuildingBlock: TEMPAE_clean_linker_10, # of connection points: 2
#     Edge 94, Type (0, 0), BuildingBlock: TEMPAE_clean_linker_10, # of connection points: 2
#     Edge 95, Type (0, 0), BuildingBlock: TEMPAE_clean_linker_10, # of connection points: 2
# Relax obj value: 0.160
# Max RMSD: 0.165
# Mean RMSD: 0.153
data_MOF--net-mer--node1-NAHDIM_clean_sbu_0--edge1-TEMPAE_clean_linker_10
_symmetry_space_group_name_H-M    P1
_symmetry_Int_Tables_number       1
_symmetry_cell_setting            triclinic
loop_
_symmetry_equiv_pos_as_xyz
'x, y, z'
_cell_length_a     70.011643
_cell_length_b     68.378045
_cell_length_c     44.626704
_cell_angle_alpha  89.970323
_cell_angle_beta   89.989843
_cell_angle_gamma 89.983188
loop_
_atom_site_label
_atom_site_type_symbol
_atom_site_fract_x
_atom_site_fract_y
_atom_site_fract_z
_atom_type_partial_charge
C0 C 0.0482 0.2378 0.28223 0.0
O1 O 0.05546 0.25453 0.29116 0.0
O2 O 0.09518 0.25255 0.2609 0.0
Zn3 Zn 0.087 0.2292 0.28531 0.0
O4 O 0.09009 0.23466 0.32932 0.0
C5 C 0.12161 0.20941 0.27878 0.0
O6 O 0.12728 0.22704 0.28638 0.0
O7 O 0.05942 0.22356 0.2773 0.0
C8 C 0.08658 0.22111 0.34799 0.0
O9 O 0.08061 0.2041 0.33797 0.0
C10 C 0.10231 0.26768 0.2731 0.0
O11 O 0.10428 0.26819 0.30235 0.0
O12 O 0.10383 0.20625 0.2757 0.0
C13 C 0.65949 0.12253 0.30707 0.0
O14 O 0.66197 0.10447 0.2979 0.0
O15 O 0.69324 0.08668 0.33073 0.0
Zn16 Zn 0.69236 0.11447 0.34516 0.0
O17 O 0.71658 0.12839 0.33325 0.0
C18 C 0.70237 0.10209 0.4034 0.0
O19 O 0.71242 0.08992 0.38699 0.0
O20 O 0.6702 0.12932 0.32757 0.0
C21 C 0.73269 0.11993 0.33084 0.0
O22 O 0.73389 0.10101 0.33554 0.0
C23 C 0.6995 0.08144 0.30523 0.0
O24 O 0.70472 0.09485 0.28578 0.0
O25 O 0.69152 0.11434 0.39035 0.0
C26 C 0.94189 0.76557 0.31374 0.0
O27 O 0.93391 0.75544 0.33541 0.0
O28 O 0.89287 0.7482 0.28338 0.0
Zn29 Zn 0.90296 0.77251 0.30319 0.0
O30 O 0.89801 0.77092 0.34769 0.0
C31 C 0.86985 0.79237 0.28884 0.0
O32 O 0.86371 0.77522 0.29801 0.0
O33 O 0.93123 0.77505 0.29582 0.0
C34 C 0.88849 0.75716 0.35972 0.0
O35 O 0.88154 0.74317 0.34278 0.0
C36 C 0.9021 0.73281 0.27671 0.0
O37 O 0.92056 0.73199 0.28173 0.0
O38 O 0.88775 0.79543 0.288 0.0
C39 C 0.32326 0.86767 0.31447 0.0
O40 O 0.31282 0.88109 0.30117 0.0
O41 O 0.295 0.90375 0.35173 0.0
Zn42 Zn 0.2971 0.87528 0.36207 0.0
O43 O 0.27335 0.86124 0.34863 0.0
C44 C 0.31157 0.87982 0.42349 0.0
O45 O 0.32522 0.89047 0.41154 0.0
O46 O 0.31953 0.8631 0.34143 0.0
C47 C 0.25947 0.85929 0.36676 0.0
O48 O 0.26063 0.86722 0.39349 0.0
C49 C 0.28545 0.91508 0.36859 0.0
O50 O 0.27724 0.90791 0.39267 0.0
O51 O 0.29915 0.872 0.40661 0.0
C52 C 0.05745 0.75271 0.6821 0.0
O53 O 0.06457 0.73701 0.66935 0.0
O54 O 0.10537 0.73731 0.70555 0.0
Zn55 Zn 0.09675 0.76139 0.68344 0.0
O56 O 0.10119 0.75781 0.63911 0.0
C57 C 0.1306 0.78193 0.69421 0.0
O58 O 0.13707 0.76523 0.68376 0.0
O59 O 0.0688 0.76607 0.69072 0.0
C60 C 0.10408 0.74123 0.62705 0.0
O61 O 0.104 0.72546 0.64387 0.0
C62 C 0.09733 0.73097 0.72917 0.0
O63 O 0.0826 0.74046 0.7402 0.0
O64 O 0.11267 0.78419 0.69692 0.0
C65 C 0.315 0.13853 0.70504 0.0
O66 O 0.31243 0.12069 0.71517 0.0
O67 O 0.28138 0.10216 0.68094 0.0
Zn68 Zn 0.28262 0.12989 0.66622 0.0
O69 O 0.25856 0.14423 0.67649 0.0
C70 C 0.29338 0.1169 0.60658 0.0
O71 O 0.30368 0.10394 0.62113 0.0
O72 O 0.30446 0.14483 0.68396 0.0
C73 C 0.24553 0.13866 0.69438 0.0
O74 O 0.24739 0.12201 0.70877 0.0
C75 C 0.26908 0.09107 0.66875 0.0
O76 O 0.25772 0.09836 0.64813 0.0
O77 O 0.28409 0.12964 0.6213 0.0
C78 C 0.93379 0.22879 0.7107 0.0
O79 O 0.92507 0.22374 0.73561 0.0
O80 O 0.88542 0.2562 0.70746 0.0
Zn81 Zn 0.89558 0.23306 0.68506 0.0
O82 O 0.88821 0.23511 0.64172 0.0
C83 C 0.8655 0.20998 0.70481 0.0
O84 O 0.85716 0.22683 0.69932 0.0
O85 O 0.92401 0.23261 0.68747 0.0
C86 C 0.88611 0.25124 0.62797 0.0
O87 O 0.8888 0.26772 0.64247 0.0
C88 C 0.89505 0.27134 0.71405 0.0
O89 O 0.91311 0.27238 0.70617 0.0
O90 O 0.88345 0.20863 0.70112 0.0
C91 C 0.66711 0.86619 0.69769 0.0
O92 O 0.67501 0.87988 0.71417 0.0
O93 O 0.69882 0.90361 0.67411 0.0
Zn94 Zn 0.69747 0.87645 0.65727 0.0
O95 O 0.72099 0.86164 0.66935 0.0
C96 C 0.71026 0.88855 0.60018 0.0
O97 O 0.7224 0.89791 0.61745 0.0
O98 O 0.67416 0.86235 0.67211 0.0
C99 C 0.72436 0.84501 0.65788 0.0
O100 O 0.71198 0.83757 0.63891 0.0
C101 C 0.70937 0.90779 0.69638 0.0
O102 O 0.71924 0.89385 0.70948 0.0
O103 O 0.69738 0.87812 0.61232 0.0
C104 C 0.91463 0.75863 0.68348 0.0
O105 O 0.90448 0.74809 0.70227 0.0
O106 O 0.87355 0.73066 0.66461 0.0
Zn107 Zn 0.88096 0.75619 0.64553 0.0
O108 O 0.88219 0.75305 0.60072 0.0
C109 C 0.8495 0.77433 0.67712 0.0
O110 O 0.85166 0.75946 0.69545 0.0
O111 O 0.9071 0.76423 0.65904 0.0
C112 C 0.86895 0.75902 0.5835 0.0
O113 O 0.85363 0.76707 0.5952 0.0
C114 C 0.86146 0.71944 0.65217 0.0
O115 O 0.85443 0.72431 0.62591 0.0
O116 O 0.86106 0.77641 0.6554 0.0
C117 C 0.27474 0.94513 0.6901 0.0
O118 O 0.28806 0.93639 0.67428 0.0
O119 O 0.28047 0.89192 0.72274 0.0
Zn120 Zn 0.26275 0.90581 0.69433 0.0
O121 O 0.27196 0.90184 0.65205 0.0
C122 C 0.23067 0.88544 0.7209 0.0
O123 O 0.24114 0.88631 0.7453 0.0
O124 O 0.26183 0.93479 0.70236 0.0
C125 C 0.27948 0.88605 0.64274 0.0
O126 O 0.28129 0.8712 0.66121 0.0
C127 C 0.29848 0.89169 0.71926 0.0
O128 O 0.30611 0.90182 0.6973 0.0
O129 O 0.23674 0.8935 0.69707 0.0
C130 C 0.07335 0.24685 0.6744 0.0
O131 O 0.08387 0.26093 0.68572 0.0
O132 O 0.11583 0.26777 0.64529 0.0
Zn133 Zn 0.10437 0.24235 0.63153 0.0
O134 O 0.10039 0.24241 0.58686 0.0
C135 C 0.12782 0.21956 0.67022 0.0
O136 O 0.12139 0.23221 0.68995 0.0
O137 O 0.07928 0.23748 0.65167 0.0
C138 C 0.11319 0.23632 0.56893 0.0
O139 O 0.12957 0.2302 0.57981 0.0
C140 C 0.13374 0.2702 0.6426 0.0
O141 O 0.14392 0.25655 0.62939 0.0
O142 O 0.12215 0.22073 0.64324 0.0
C143 C 0.73083 0.05113 0.71744 0.0
O144 O 0.72255 0.06283 0.73684 0.0
O145 O 0.71907 0.10143 0.70864 0.0
Zn146 Zn 0.73716 0.08652 0.6825 0.0
O147 O 0.72806 0.08856 0.63992 0.0
C148 C 0.77102 0.10143 0.711 0.0
O149 O 0.76253 0.09514 0.73543 0.0
O150 O 0.73813 0.05825 0.69376 0.0
C151 C 0.73173 0.10355 0.62412 0.0
O152 O 0.74175 0.11787 0.63588 0.0
C153 C 0.70116 0.10072 0.7043 0.0
O154 O 0.69443 0.08941 0.68298 0.0
O155 O 0.76302 0.09873 0.68581 0.0
C156 C 0.90658 0.2278 0.30428 0.0
O157 O 0.89443 0.23508 0.2848 0.0
O158 O 0.86506 0.25493 0.32339 0.0
Zn159 Zn 0.87523 0.23199 0.34625 0.0
O160 O 0.87786 0.23904 0.38959 0.0
C161 C 0.84931 0.2049 0.31805 0.0
O162 O 0.85456 0.214 0.29346 0.0
O163 O 0.90114 0.22476 0.33103 0.0
C164 C 0.86342 0.24282 0.40581 0.0
O165 O 0.84631 0.24238 0.39376 0.0
C166 C 0.87035 0.27229 0.32917 0.0
O167 O 0.88287 0.27529 0.35062 0.0
O168 O 0.85677 0.2098 0.34288 0.0
C169 C 0.73736 0.94086 0.30507 0.0
O170 O 0.7529 0.93631 0.32005 0.0
O171 O 0.71215 0.88197 0.29289 0.0
Zn172 Zn 0.72937 0.90046 0.31484 0.0
O173 O 0.72332 0.89985 0.35905 0.0
C174 C 0.76327 0.8885 0.28261 0.0
O175 O 0.75252 0.89148 0.25891 0.0
O176 O 0.72521 0.92758 0.29951 0.0
C177 C 0.73284 0.88918 0.37699 0.0
O178 O 0.74679 0.87834 0.36642 0.0
C179 C 0.71291 0.86383 0.2989 0.0
O180 O 0.72478 0.85772 0.3197 0.0
O181 O 0.75647 0.892 0.30845 0.0
C182 C 0.08311 0.7466 0.30585 0.0
O183 O 0.09045 0.73124 0.29245 0.0
O184 O 0.12603 0.72099 0.3209 0.0
Zn185 Zn 0.11763 0.74537 0.3423 0.0
O186 O 0.11422 0.74032 0.38647 0.0
C187 C 0.15496 0.76145 0.33304 0.0
O188 O 0.15951 0.74284 0.33157 0.0
O189 O 0.09245 0.75494 0.32663 0.0
C190 C 0.12814 0.73778 0.40432 0.0
O191 O 0.14563 0.73778 0.39366 0.0
C192 C 0.12356 0.70376 0.33083 0.0
O193 O 0.11449 0.7012 0.35631 0.0
O194 O 0.13759 0.76623 0.33697 0.0
C195 C 0.27549 0.05987 0.33107 0.0
O196 O 0.28942 0.07129 0.34019 0.0
O197 O 0.27678 0.10983 0.29866 0.0
Zn198 Zn 0.25842 0.09674 0.3267 0.0
O199 O 0.26609 0.10354 0.36876 0.0
C200 C 0.22551 0.10934 0.29282 0.0
O201 O 0.23609 0.10406 0.26988 0.0
O202 O 0.25991 0.06762 0.32256 0.0
C203 C 0.25793 0.09503 0.39057 0.0
O204 O 0.24426 0.08238 0.385 0.0
C205 C 0.27546 0.12827 0.2959 0.0
O206 O 0.26215 0.1376 0.31097 0.0
O207 O 0.2319 0.10682 0.31919 0.0
C208 C 0.54808 0.72039 0.7874 0.0
O209 O 0.5599 0.71889 0.76464 0.0
O210 O 0.59245 0.75054 0.80208 0.0
Zn211 Zn 0.5823 0.72689 0.82326 0.0
O212 O 0.58512 0.73006 0.86792 0.0
C213 C 0.61638 0.70789 0.81349 0.0
O214 O 0.62151 0.72504 0.82405 0.0
O215 O 0.55471 0.72316 0.81354 0.0
C216 C 0.59224 0.74517 0.88021 0.0
O217 O 0.59784 0.75983 0.86335 0.0
C218 C 0.58316 0.76534 0.79297 0.0
O219 O 0.5646 0.76614 0.79711 0.0
O220 O 0.59868 0.70422 0.81062 0.0
C221 C 0.16575 0.62109 0.83205 0.0
O222 O 0.16371 0.60261 0.8247 0.0
O223 O 0.20036 0.58215 0.84218 0.0
Zn224 Zn 0.20257 0.6094 0.85835 0.0
O225 O 0.22596 0.62212 0.8414 0.0
C226 C 0.19108 0.60688 0.92067 0.0
O227 O 0.1738 0.60576 0.90932 0.0
O228 O 0.18045 0.62641 0.84662 0.0
C229 C 0.24234 0.61414 0.84137 0.0
O230 O 0.24435 0.59653 0.85273 0.0
C231 C 0.20328 0.57836 0.81468 0.0
O232 O 0.20707 0.59277 0.79612 0.0
O233 O 0.20529 0.60847 0.90312 0.0
C234 C 0.44173 0.27674 0.79337 0.0
O235 O 0.42909 0.27237 0.77268 0.0
O236 O 0.40024 0.24885 0.81403 0.0
Zn237 Zn 0.40969 0.27319 0.83426 0.0
O238 O 0.41066 0.26829 0.87871 0.0
C239 C 0.38292 0.29624 0.8003 0.0
O240 O 0.38668 0.28313 0.77961 0.0
O241 O 0.43631 0.2786 0.82039 0.0
C242 C 0.39772 0.27423 0.89649 0.0
O243 O 0.38312 0.28401 0.88567 0.0
C244 C 0.3841 0.24191 0.8215 0.0
O245 O 0.37418 0.25078 0.84247 0.0
O246 O 0.39172 0.29539 0.82517 0.0
C247 C 0.81605 0.37443 0.81248 0.0
O248 O 0.8061 0.38646 0.79561 0.0
O249 O 0.78586 0.41194 0.83882 0.0
Zn250 Zn 0.78688 0.38442 0.8537 0.0
O251 O 0.76446 0.36957 0.83769 0.0
C252 C 0.79548 0.39671 0.91369 0.0
O253 O 0.80663 0.40909 0.89951 0.0
O254 O 0.81077 0.3715 0.83932 0.0
C255 C 0.76372 0.35127 0.8424 0.0
O256 O 0.77759 0.3429 0.85756 0.0
C257 C 0.77261 0.42307 0.84807 0.0
O258 O 0.75985 0.4161 0.86683 0.0
O259 O 0.78585 0.38442 0.89862 0.0
C260 C 0.56422 0.27003 0.18959 0.0
O261 O 0.57677 0.26986 0.21149 0.0
O262 O 0.60614 0.23867 0.17435 0.0
Zn263 Zn 0.59749 0.26317 0.15334 0.0
O264 O 0.6009 0.26029 0.10879 0.0
C265 C 0.63174 0.28277 0.16495 0.0
O266 O 0.63794 0.2664 0.15294 0.0
O267 O 0.56999 0.26808 0.16276 0.0
C268 C 0.59866 0.24403 0.09548 0.0
O269 O 0.59379 0.22855 0.11116 0.0
C270 C 0.59486 0.22543 0.18368 0.0
O271 O 0.57642 0.22716 0.17892 0.0
O272 O 0.61386 0.2853 0.16773 0.0
C273 C 0.81853 0.62504 0.20065 0.0
O274 O 0.81141 0.61162 0.2185 0.0
O275 O 0.78605 0.5865 0.17306 0.0
Zn276 Zn 0.78725 0.61463 0.16016 0.0
O277 O 0.76392 0.62908 0.17438 0.0
C278 C 0.77776 0.6046 0.09922 0.0
O279 O 0.76774 0.5908 0.11235 0.0
O280 O 0.8107 0.6282 0.17544 0.0
C281 C 0.74748 0.62118 0.17429 0.0
O282 O 0.74572 0.60294 0.1655 0.0
C283 C 0.77923 0.5811 0.19814 0.0
O284 O 0.77347 0.59439 0.2174 0.0
O285 O 0.78754 0.61623 0.11523 0.0
C286 C 0.43073 0.72663 0.19717 0.0
O287 O 0.41991 0.72733 0.22122 0.0
O288 O 0.38531 0.75417 0.18669 0.0
Zn289 Zn 0.39486 0.73032 0.16517 0.0
O290 O 0.38977 0.73289 0.12107 0.0
C291 C 0.36211 0.70931 0.1797 0.0
O292 O 0.35506 0.72589 0.16968 0.0
O293 O 0.42296 0.7272 0.17147 0.0
C294 C 0.39285 0.74863 0.10672 0.0
O295 O 0.39958 0.76391 0.12108 0.0
C296 C 0.3953 0.76901 0.1936 0.0
O297 O 0.41346 0.76951 0.18622 0.0
O298 O 0.38013 0.70717 0.18039 0.0
C299 C 0.17413 0.3654 0.1497 0.0
O300 O 0.17022 0.38418 0.14832 0.0
O301 O 0.21056 0.40263 0.14444 0.0
Zn302 Zn 0.21168 0.37603 0.12592 0.0
O303 O 0.23574 0.36279 0.13882 0.0
C304 C 0.20384 0.39183 0.06688 0.0
O305 O 0.19433 0.40517 0.08193 0.0
O306 O 0.19024 0.35928 0.14057 0.0
C307 C 0.25225 0.36908 0.13211 0.0
O308 O 0.25387 0.38518 0.11622 0.0
C309 C 0.21556 0.40534 0.17149 0.0
O310 O 0.22121 0.39032 0.1876 0.0
O311 O 0.21188 0.37797 0.08104 0.0
C312 C 0.42531 0.24216 0.20159 0.0
O313 O 0.42078 0.22414 0.1942 0.0
O314 O 0.37614 0.2254 0.196 0.0
Zn315 Zn 0.38868 0.24872 0.17697 0.0
O316 O 0.39472 0.24395 0.13354 0.0
C317 C 0.35752 0.27137 0.15803 0.0
O318 O 0.35686 0.25676 0.13896 0.0
O319 O 0.41308 0.25561 0.19768 0.0
C320 C 0.40349 0.25769 0.12019 0.0
O321 O 0.4091 0.27291 0.13586 0.0
C322 C 0.36648 0.21327 0.18065 0.0
O323 O 0.36545 0.2155 0.15146 0.0
O324 O 0.37037 0.27137 0.17814 0.0
C325 C 0.75461 0.4374 0.21192 0.0
O326 O 0.73802 0.43028 0.20357 0.0
O327 O 0.78514 0.38173 0.22252 0.0
Zn328 Zn 0.76848 0.39873 0.19696 0.0
O329 O 0.77791 0.39825 0.15445 0.0
C330 C 0.7347 0.37836 0.2182 0.0
O331 O 0.74447 0.37661 0.24319 0.0
O332 O 0.76921 0.42637 0.21173 0.0
C333 C 0.76831 0.40738 0.13474 0.0
O334 O 0.75294 0.41699 0.14304 0.0
C335 C 0.80277 0.37937 0.21683 0.0
O336 O 0.81039 0.38862 0.19396 0.0
O337 O 0.74192 0.38775 0.19642 0.0
C338 C 0.57214 0.74594 0.18895 0.0
O339 O 0.57826 0.76389 0.18458 0.0
O340 O 0.6212 0.76002 0.18679 0.0
Zn341 Zn 0.60883 0.7376 0.16522 0.0
O342 O 0.60526 0.74412 0.1215 0.0
C343 C 0.63317 0.70863 0.19313 0.0
O344 O 0.62831 0.71755 0.21806 0.0
O345 O 0.58319 0.73175 0.18293 0.0
C346 C 0.61761 0.739 0.10214 0.0
O347 O 0.63311 0.72987 0.11105 0.0
C348 C 0.63853 0.76401 0.18096 0.0
O349 O 0.64756 0.75364 0.16063 0.0
O350 O 0.626 0.71431 0.16849 0.0
C351 C 0.22226 0.54678 0.22403 0.0
O352 O 0.20772 0.55623 0.23569 0.0
O353 O 0.21366 0.59879 0.22474 0.0
Zn354 Zn 0.23146 0.58435 0.19718 0.0
O355 O 0.22141 0.58551 0.15505 0.0
C356 C 0.26392 0.60598 0.2201 0.0
O357 O 0.25473 0.60479 0.24571 0.0
O358 O 0.23434 0.55607 0.20825 0.0
C359 C 0.21827 0.60186 0.14243 0.0
O360 O 0.22119 0.61804 0.15762 0.0
C361 C 0.19575 0.59946 0.22023 0.0
O362 O 0.18844 0.58973 0.19759 0.0
O363 O 0.25688 0.59784 0.19703 0.0
C364 C 0.40784 0.74101 0.78473 0.0
O365 O 0.40105 0.75853 0.77905 0.0
O366 O 0.36345 0.76249 0.80503 0.0
Zn367 Zn 0.37463 0.73811 0.8232 0.0
O368 O 0.38101 0.74299 0.86639 0.0
C369 C 0.35202 0.70478 0.80172 0.0
O370 O 0.36205 0.70609 0.7769 0.0
O371 O 0.39859 0.72968 0.80203 0.0
C372 C 0.36775 0.74774 0.88443 0.0
O373 O 0.35029 0.74984 0.8741 0.0
C374 C 0.36788 0.77937 0.81474 0.0
O375 O 0.3803 0.78091 0.83666 0.0
O376 O 0.35514 0.71673 0.82293 0.0
C377 C 0.21388 0.4355 0.76864 0.0
O378 O 0.19836 0.42471 0.76904 0.0
O379 O 0.2128 0.38332 0.75673 0.0
Zn380 Zn 0.23041 0.39884 0.78342 0.0
O381 O 0.22198 0.39685 0.82639 0.0
C382 C 0.25957 0.37101 0.79197 0.0
O383 O 0.245 0.36218 0.80466 0.0
O384 O 0.22996 0.42731 0.77279 0.0
C385 C 0.23164 0.40575 0.84624 0.0
O386 O 0.24665 0.41595 0.83794 0.0
C387 C 0.20259 0.36974 0.76777 0.0
O388 O 0.20327 0.3664 0.79674 0.0
O389 O 0.25702 0.3878 0.78039 0.0
C390 C 0.57915 0.2439 0.78532 0.0
O391 O 0.58281 0.22551 0.79158 0.0
O392 O 0.62625 0.22343 0.79198 0.0
Zn393 Zn 0.61584 0.24782 0.81112 0.0
O394 O 0.60976 0.24303 0.8545 0.0
C395 C 0.64918 0.26931 0.79087 0.0
O396 O 0.64946 0.25633 0.76919 0.0
O397 O 0.59185 0.25669 0.79071 0.0
C398 C 0.62324 0.24002 0.873 0.0
O399 O 0.6409 0.23933 0.86305 0.0
C400 C 0.6242 0.20643 0.80303 0.0
O401 O 0.61443 0.20424 0.82793 0.0
O402 O 0.63584 0.26876 0.81015 0.0
C403 C 0.77891 0.56816 0.81903 0.0
O404 O 0.79122 0.57767 0.83579 0.0
O405 O 0.77961 0.62299 0.78886 0.0
Zn406 Zn 0.76334 0.6062 0.81556 0.0
O407 O 0.77105 0.60972 0.85865 0.0
C408 C 0.72812 0.6191 0.78717 0.0
O409 O 0.73798 0.61789 0.76218 0.0
O410 O 0.76566 0.57764 0.80612 0.0
C411 C 0.76255 0.62137 0.87636 0.0
O412 O 0.74882 0.63258 0.86596 0.0
C413 C 0.79408 0.61703 0.77427 0.0
O414 O 0.7992 0.5986 0.77619 0.0
O415 O 0.73602 0.61444 0.81177 0.0
C416 C 0.19678 0.12664 0.31285 0.0
C417 C 0.20768 0.1206 0.28815 0.0
C418 C 0.18137 0.13952 0.3093 0.0
C419 C 0.17674 0.14654 0.28036 0.0
C420 C 0.18697 0.13963 0.25513 0.0
C421 C 0.20234 0.12672 0.25933 0.0
C422 C 0.17072 0.14646 0.33676 0.0
C423 C 0.18238 0.14671 0.22391 0.0
C424 C 0.12968 0.17386 0.27281 0.0
C425 C 0.13566 0.19331 0.27638 0.0
C426 C 0.14294 0.15843 0.2731 0.0
C427 C 0.16258 0.1626 0.27705 0.0
C428 C 0.16874 0.18224 0.27961 0.0
C429 C 0.15521 0.19734 0.27924 0.0
C430 C 0.13588 0.13766 0.2702 0.0
C431 C 0.18958 0.18731 0.28373 0.0
H432 H 0.20069 0.12185 0.33518 0.0
H433 H 0.21062 0.12205 0.2401 0.0
H434 H 0.17374 0.1622 0.34053 0.0
H435 H 0.15509 0.14495 0.33345 0.0
H436 H 0.17487 0.13823 0.35722 0.0
H437 H 0.19004 0.13819 0.20645 0.0
H438 H 0.1668 0.14578 0.2196 0.0
H439 H 0.18653 0.16231 0.22172 0.0
H440 H 0.11459 0.17064 0.27054 0.0
H441 H 0.15998 0.21232 0.28182 0.0
H442 H 0.13831 0.12974 0.29156 0.0
H443 H 0.144 0.12984 0.25254 0.0
H444 H 0.12042 0.13698 0.26472 0.0
H445 H 0.19481 0.18116 0.30524 0.0
H446 H 0.1921 0.20335 0.28385 0.0
H447 H 0.19824 0.1807 0.26555 0.0
C448 C 0.74924 0.15197 0.32373 0.0
C449 C 0.75011 0.13149 0.32472 0.0
C450 C 0.76585 0.1632 0.32034 0.0
C451 C 0.78374 0.1537 0.31769 0.0
C452 C 0.78465 0.13303 0.3175 0.0
C453 C 0.76781 0.12216 0.32112 0.0
C454 C 0.76432 0.18523 0.32074 0.0
C455 C 0.80346 0.12242 0.31445 0.0
C456 C 0.82503 0.18497 0.29035 0.0
C457 C 0.83358 0.19046 0.3175 0.0
C458 C 0.80911 0.17249 0.28993 0.0
C459 C 0.80154 0.16548 0.31732 0.0
C460 C 0.81045 0.17051 0.3447 0.0
C461 C 0.8264 0.18287 0.34446 0.0
C462 C 0.80007 0.16725 0.26029 0.0
C463 C 0.80276 0.16336 0.37439 0.0
H464 H 0.73562 0.1593 0.32641 0.0
H465 H 0.76859 0.10633 0.32164 0.0
H466 H 0.77177 0.19108 0.34076 0.0
H467 H 0.77141 0.19154 0.30072 0.0
H468 H 0.74925 0.19032 0.32125 0.0
H469 H 0.80156 0.10636 0.31212 0.0
H470 H 0.81143 0.12794 0.29469 0.0
H471 H 0.81242 0.12527 0.3345 0.0
H472 H 0.83055 0.1907 0.26943 0.0
H473 H 0.83292 0.187 0.36555 0.0
H474 H 0.78551 0.17361 0.25903 0.0
H475 H 0.79855 0.15115 0.25831 0.0
H476 H 0.80851 0.1727 0.24093 0.0
H477 H 0.78811 0.16915 0.37788 0.0
H478 H 0.8118 0.16797 0.39358 0.0
H479 H 0.80177 0.14717 0.37441 0.0
C480 C 0.83634 0.80396 0.2834 0.0
C481 C 0.85594 0.80809 0.28227 0.0
C482 C 0.82273 0.81881 0.28034 0.0
C483 C 0.82884 0.83833 0.2759 0.0
C484 C 0.84858 0.84252 0.27332 0.0
C485 C 0.86194 0.82732 0.27661 0.0
C486 C 0.8018 0.8137 0.28318 0.0
C487 C 0.85558 0.86313 0.26829 0.0
C488 C 0.78836 0.87163 0.25203 0.0
C489 C 0.78196 0.87855 0.27987 0.0
C490 C 0.80455 0.85957 0.25001 0.0
C491 C 0.81445 0.85429 0.27645 0.0
C492 C 0.80883 0.86234 0.3043 0.0
C493 C 0.79268 0.87441 0.30566 0.0
C494 C 0.81026 0.85145 0.21986 0.0
C495 C 0.81903 0.85711 0.33304 0.0
H496 H 0.83155 0.78912 0.2875 0.0
H497 H 0.87707 0.8306 0.27558 0.0
H498 H 0.79575 0.82081 0.30342 0.0
H499 H 0.79376 0.81927 0.26354 0.0
H500 H 0.7994 0.79768 0.28497 0.0
H501 H 0.8711 0.86361 0.26314 0.0
H502 H 0.84762 0.87011 0.24962 0.0
H503 H 0.85293 0.87199 0.28869 0.0
H504 H 0.78027 0.87491 0.23195 0.0
H505 H 0.78798 0.87987 0.32724 0.0
H506 H 0.80616 0.8358 0.2186 0.0
H507 H 0.82597 0.85228 0.2168 0.0
H508 H 0.80321 0.85935 0.20113 0.0
H509 H 0.81626 0.84154 0.33857 0.0
H510 H 0.81424 0.86624 0.3522 0.0
H511 H 0.83469 0.85885 0.33037 0.0
C512 C 0.18915 0.77114 0.3379 0.0
C513 C 0.17007 0.77653 0.33322 0.0
C514 C 0.20346 0.78532 0.34103 0.0
C515 C 0.19858 0.80537 0.33896 0.0
C516 C 0.17949 0.81089 0.33286 0.0
C517 C 0.16541 0.79639 0.3303 0.0
C518 C 0.22363 0.77886 0.34786 0.0
C519 C 0.17385 0.83212 0.32996 0.0
C520 C 0.23058 0.8403 0.38152 0.0
C521 C 0.24301 0.84677 0.35897 0.0
C522 C 0.21582 0.82712 0.37514 0.0
C523 C 0.21324 0.82048 0.34538 0.0
C524 C 0.22527 0.82751 0.32228 0.0
C525 C 0.24014 0.84048 0.32939 0.0
C526 C 0.20341 0.81977 0.40046 0.0
C527 C 0.22271 0.821 0.29021 0.0
H528 H 0.19285 0.75582 0.34022 0.0
H529 H 0.15069 0.80064 0.32642 0.0
H530 H 0.23374 0.78537 0.33153 0.0
H531 H 0.22782 0.78414 0.37044 0.0
H532 H 0.22523 0.7627 0.34729 0.0
H533 H 0.15885 0.83389 0.3223 0.0
H534 H 0.17544 0.83951 0.35194 0.0
H535 H 0.18343 0.83971 0.31391 0.0
H536 H 0.23274 0.84506 0.40444 0.0
H537 H 0.24963 0.84554 0.31183 0.0
H538 H 0.20521 0.80372 0.40291 0.0
H539 H 0.18814 0.82253 0.39539 0.0
H540 H 0.20694 0.82681 0.42219 0.0
H541 H 0.22582 0.80514 0.28833 0.0
H542 H 0.23225 0.82903 0.27456 0.0
H543 H 0.20769 0.82321 0.28306 0.0
C544 C 0.16371 0.7953 0.69717 0.0
C545 C 0.14403 0.79802 0.70127 0.0
C546 C 0.17666 0.81055 0.70231 0.0
C547 C 0.1698 0.829 0.71185 0.0
C548 C 0.15 0.83176 0.71666 0.0
C549 C 0.13732 0.81622 0.71128 0.0
C550 C 0.19769 0.807 0.69691 0.0
C551 C 0.1422 0.85122 0.72695 0.0
C552 C 0.2079 0.86196 0.74503 0.0
C553 C 0.21334 0.87301 0.71994 0.0
C554 C 0.19305 0.84822 0.74318 0.0
C555 C 0.18345 0.84548 0.71559 0.0
C556 C 0.18819 0.85732 0.69065 0.0
C557 C 0.20306 0.87095 0.69314 0.0
C558 C 0.1883 0.83595 0.77031 0.0
C559 C 0.17824 0.85488 0.66086 0.0
H560 H 0.16904 0.78128 0.68953 0.0
H561 H 0.12213 0.81843 0.71457 0.0
H562 H 0.20289 0.81682 0.67887 0.0
H563 H 0.20597 0.81046 0.71742 0.0
H564 H 0.20075 0.79165 0.69036 0.0
H565 H 0.12657 0.85069 0.73117 0.0
H566 H 0.1495 0.85593 0.74779 0.0
H567 H 0.14507 0.86253 0.70969 0.0
H568 H 0.21569 0.86352 0.76588 0.0
H569 H 0.20706 0.87952 0.67368 0.0
H570 H 0.19283 0.82061 0.76633 0.0
H571 H 0.17266 0.83579 0.77426 0.0
H572 H 0.19553 0.84134 0.79087 0.0
H573 H 0.18193 0.84041 0.65119 0.0
H574 H 0.18237 0.8664 0.64453 0.0
H575 H 0.16252 0.85526 0.66385 0.0
C576 C 0.21117 0.14217 0.70913 0.0
C577 C 0.2278 0.15028 0.69678 0.0
C578 C 0.19381 0.15247 0.70846 0.0
C579 C 0.19321 0.17131 0.69533 0.0
C580 C 0.21015 0.1799 0.68415 0.0
C581 C 0.22722 0.16926 0.68494 0.0
C582 C 0.176 0.14289 0.72061 0.0
C583 C 0.21013 0.20006 0.67023 0.0
C584 C 0.14893 0.19132 0.65778 0.0
C585 C 0.14297 0.2055 0.67843 0.0
C586 C 0.16468 0.1793 0.6638 0.0
C587 C 0.17475 0.18161 0.69106 0.0
C588 C 0.16824 0.19521 0.71265 0.0
C589 C 0.15236 0.20699 0.7061 0.0
C590 C 0.17111 0.16483 0.64029 0.0
C591 C 0.17865 0.19809 0.74195 0.0
H592 H 0.21154 0.1275 0.71834 0.0
H593 H 0.24007 0.17571 0.67566 0.0
H594 H 0.16839 0.15296 0.736 0.0
H595 H 0.16614 0.13953 0.70185 0.0
H596 H 0.1792 0.12908 0.73276 0.0
H597 H 0.22475 0.20516 0.6645 0.0
H598 H 0.20143 0.19993 0.64945 0.0
H599 H 0.20355 0.21078 0.68575 0.0
H600 H 0.14162 0.18995 0.63647 0.0
H601 H 0.14779 0.21788 0.72222 0.0
H602 H 0.17327 0.15019 0.65044 0.0
H603 H 0.18502 0.16957 0.63084 0.0
H604 H 0.16068 0.1635 0.62165 0.0
H605 H 0.18152 0.18379 0.75283 0.0
H606 H 0.17047 0.20743 0.75776 0.0
H607 H 0.19266 0.20512 0.73762 0.0
C608 C 0.79577 0.1194 0.74077 0.0
C609 C 0.78831 0.11382 0.71288 0.0
C610 C 0.81043 0.13335 0.74274 0.0
C611 C 0.81768 0.14192 0.71619 0.0
C612 C 0.81104 0.13542 0.68795 0.0
C613 C 0.79647 0.12142 0.68664 0.0
C614 C 0.81734 0.13975 0.77323 0.0
C615 C 0.81844 0.14416 0.65909 0.0
C616 C 0.83396 0.19458 0.71511 0.0
C617 C 0.85378 0.19258 0.71179 0.0
C618 C 0.82217 0.17817 0.71801 0.0
C619 C 0.83039 0.15926 0.7177 0.0
C620 C 0.85047 0.15714 0.71606 0.0
C621 C 0.86197 0.17387 0.71306 0.0
C622 C 0.8008 0.18107 0.7198 0.0
C623 C 0.85973 0.1372 0.71602 0.0
H624 H 0.78966 0.11347 0.76116 0.0
H625 H 0.79093 0.11705 0.66497 0.0
H626 H 0.83316 0.14056 0.77372 0.0
H627 H 0.81179 0.1546 0.77816 0.0
H628 H 0.81248 0.1297 0.79125 0.0
H629 H 0.81311 0.13624 0.63904 0.0
H630 H 0.81385 0.15966 0.65747 0.0
H631 H 0.83427 0.14397 0.65877 0.0
H632 H 0.82753 0.209 0.71446 0.0
H633 H 0.87729 0.17221 0.71068 0.0
H634 H 0.79486 0.17302 0.73926 0.0
H635 H 0.79396 0.17508 0.69934 0.0
H636 H 0.7968 0.19674 0.72188 0.0
H637 H 0.8538 0.12799 0.73425 0.0
H638 H 0.87548 0.13811 0.71875 0.0
H639 H 0.85661 0.12972 0.69452 0.0
C640 C 0.81792 0.78276 0.70007 0.0
C641 C 0.83221 0.78676 0.6789 0.0
C642 C 0.80042 0.79278 0.69946 0.0
C643 C 0.79718 0.80713 0.67717 0.0
C644 C 0.81188 0.81188 0.65664 0.0
C645 C 0.82922 0.80164 0.65775 0.0
C646 C 0.78511 0.7874 0.72182 0.0
C647 C 0.80899 0.82717 0.63262 0.0
C648 C 0.74667 0.8169 0.65038 0.0
C649 C 0.74251 0.83475 0.66438 0.0
C650 C 0.76427 0.80756 0.65491 0.0
C651 C 0.77804 0.81628 0.67392 0.0
C652 C 0.77376 0.83404 0.68872 0.0
C653 C 0.75604 0.84308 0.68376 0.0
C654 C 0.76831 0.78859 0.63876 0.0
C655 C 0.78807 0.84371 0.70923 0.0
H656 H 0.82012 0.77132 0.71653 0.0
H657 H 0.84021 0.8049 0.64138 0.0
H658 H 0.77946 0.80072 0.73291 0.0
H659 H 0.773 0.78033 0.71001 0.0
H660 H 0.79044 0.7772 0.73931 0.0
H661 H 0.82227 0.8301 0.61975 0.0
H662 H 0.79779 0.82222 0.61677 0.0
H663 H 0.80399 0.84108 0.64273 0.0
H664 H 0.73629 0.81033 0.63544 0.0
H665 H 0.75292 0.85685 0.69474 0.0
H666 H 0.77239 0.77708 0.65508 0.0
H667 H 0.78054 0.79057 0.62323 0.0
H668 H 0.75582 0.78336 0.62567 0.0
H669 H 0.79283 0.83329 0.72675 0.0
H670 H 0.78215 0.85693 0.72032 0.0
H671 H 0.80091 0.84803 0.69623 0.0
C672 C 0.62615 0.67418 0.79718 0.0
C673 C 0.63113 0.69323 0.80587 0.0
C674 C 0.6403 0.6601 0.79133 0.0
C675 C 0.65979 0.66526 0.79428 0.0
C676 C 0.66486 0.68459 0.80227 0.0
C677 C 0.65048 0.69831 0.80796 0.0
C678 C 0.63442 0.63962 0.78275 0.0
C679 C 0.6855 0.6907 0.80561 0.0
C680 C 0.69871 0.62937 0.81451 0.0
C681 C 0.70892 0.62814 0.78753 0.0
C682 C 0.68188 0.64037 0.8165 0.0
C683 C 0.67509 0.65037 0.79086 0.0
C684 C 0.68457 0.64808 0.76306 0.0
C685 C 0.70141 0.63697 0.76171 0.0
C686 C 0.67214 0.64238 0.84655 0.0
C687 C 0.67765 0.65841 0.73519 0.0
H688 H 0.61121 0.67018 0.79542 0.0
H689 H 0.65448 0.71302 0.81445 0.0
H690 H 0.64195 0.63499 0.76206 0.0
H691 H 0.63858 0.62928 0.80076 0.0
H692 H 0.61877 0.63838 0.77904 0.0
H693 H 0.68701 0.70652 0.81075 0.0
H694 H 0.69229 0.6822 0.82393 0.0
H695 H 0.69349 0.6875 0.78473 0.0
H696 H 0.70427 0.6224 0.83451 0.0
H697 H 0.70913 0.63595 0.74071 0.0
H698 H 0.65653 0.64002 0.84432 0.0
H699 H 0.67428 0.65744 0.8552 0.0
H700 H 0.67784 0.63189 0.86333 0.0
H701 H 0.66198 0.6567 0.73262 0.0
H702 H 0.68479 0.65284 0.71466 0.0
H703 H 0.68066 0.67429 0.73715 0.0
C704 C 0.27768 0.61815 0.83491 0.0
C705 C 0.2591 0.62532 0.83067 0.0
C706 C 0.29367 0.62959 0.82757 0.0
C707 C 0.29096 0.64859 0.81567 0.0
C708 C 0.27226 0.65548 0.80991 0.0
C709 C 0.25657 0.64378 0.8175 0.0
C710 C 0.31341 0.62173 0.83393 0.0
C711 C 0.26878 0.67564 0.79714 0.0
C712 C 0.32731 0.68799 0.83263 0.0
C713 C 0.337 0.68973 0.80524 0.0
C714 C 0.31262 0.67433 0.83643 0.0
C715 C 0.30743 0.66208 0.81222 0.0
C716 C 0.31736 0.66345 0.78466 0.0
C717 C 0.33208 0.67728 0.78149 0.0
C718 C 0.30239 0.6733 0.86621 0.0
C719 C 0.31218 0.6506 0.7584 0.0
H720 H 0.27976 0.60386 0.84491 0.0
H721 H 0.24226 0.64936 0.81384 0.0
H722 H 0.32281 0.62374 0.81416 0.0
H723 H 0.31985 0.63001 0.85277 0.0
H724 H 0.31318 0.60597 0.83999 0.0
H725 H 0.25353 0.67807 0.79136 0.0
H726 H 0.27314 0.68686 0.81373 0.0
H727 H 0.27755 0.67792 0.77673 0.0
H728 H 0.33107 0.69745 0.85119 0.0
H729 H 0.33953 0.67851 0.76028 0.0
H730 H 0.30292 0.65817 0.87517 0.0
H731 H 0.28712 0.67717 0.86319 0.0
H732 H 0.30867 0.68333 0.88312 0.0
H733 H 0.31251 0.63499 0.76514 0.0
H734 H 0.32198 0.6527 0.73908 0.0
H735 H 0.2974 0.65391 0.751 0.0
C736 C 0.36206 0.32328 0.81921 0.0
C737 C 0.36691 0.31015 0.79628 0.0
C738 C 0.34554 0.33484 0.81728 0.0
C739 C 0.33358 0.3332 0.79184 0.0
C740 C 0.33889 0.32071 0.76797 0.0
C741 C 0.35551 0.30935 0.77045 0.0
C742 C 0.34041 0.34807 0.84314 0.0
C743 C 0.32651 0.31857 0.74046 0.0
C744 C 0.28076 0.34265 0.80351 0.0
C745 C 0.27857 0.36149 0.79154 0.0
C746 C 0.29857 0.33332 0.80361 0.0
C747 C 0.31466 0.34306 0.7915 0.0
C748 C 0.31259 0.36207 0.77932 0.0
C749 C 0.29454 0.37106 0.77945 0.0
C750 C 0.30018 0.31302 0.81676 0.0
C751 C 0.32945 0.37289 0.76629 0.0
H752 H 0.37083 0.32409 0.83918 0.0
H753 H 0.35918 0.29932 0.75256 0.0
H754 H 0.33696 0.36297 0.8349 0.0
H755 H 0.32749 0.34236 0.85457 0.0
H756 H 0.35212 0.34916 0.85986 0.0
H757 H 0.33354 0.30974 0.72271 0.0
H758 H 0.31288 0.31135 0.74667 0.0
H759 H 0.3229 0.33315 0.73111 0.0
H760 H 0.26851 0.33512 0.81286 0.0
H761 H 0.29296 0.38563 0.77019 0.0
H762 H 0.31051 0.31305 0.83562 0.0
H763 H 0.30571 0.30272 0.79961 0.0
H764 H 0.28627 0.30742 0.82511 0.0
H765 H 0.34065 0.37473 0.78363 0.0
H766 H 0.32544 0.38754 0.75756 0.0
H767 H 0.33584 0.36426 0.74777 0.0
C768 C 0.68061 0.28331 0.77472 0.0
C769 C 0.66527 0.28309 0.79494 0.0
C770 C 0.69672 0.29505 0.77998 0.0
C771 C 0.6975 0.30673 0.80613 0.0
C772 C 0.6818 0.30704 0.8261 0.0
C773 C 0.66587 0.29527 0.82022 0.0
C774 C 0.71314 0.29449 0.75806 0.0
C775 C 0.68212 0.31929 0.85427 0.0
C776 C 0.74545 0.31994 0.83993 0.0
C777 C 0.74724 0.33965 0.83175 0.0
C778 C 0.72951 0.30894 0.83115 0.0
C779 C 0.71508 0.31785 0.81361 0.0
C780 C 0.71703 0.33759 0.8046 0.0
C781 C 0.73307 0.34829 0.81387 0.0
C782 C 0.72788 0.28793 0.84131 0.0
C783 C 0.70198 0.34751 0.7857 0.0
H784 H 0.68024 0.27399 0.75509 0.0
H785 H 0.65407 0.29524 0.83596 0.0
H786 H 0.71707 0.30954 0.75111 0.0
H787 H 0.72586 0.28796 0.76901 0.0
H788 H 0.70972 0.28581 0.73772 0.0
H789 H 0.66839 0.3186 0.86673 0.0
H790 H 0.69371 0.31413 0.86926 0.0
H791 H 0.68516 0.33478 0.84868 0.0
H792 H 0.75635 0.31315 0.8537 0.0
H793 H 0.73442 0.36349 0.8073 0.0
H794 H 0.72586 0.27819 0.8217 0.0
H795 H 0.71516 0.28621 0.85592 0.0
H796 H 0.74068 0.28297 0.8539 0.0
H797 H 0.6992 0.33884 0.76514 0.0
H798 H 0.7062 0.36256 0.77905 0.0
H799 H 0.68837 0.34832 0.79835 0.0
C800 C 0.66509 0.29502 0.1707 0.0
C801 C 0.64545 0.2979 0.17488 0.0
C802 C 0.67836 0.30921 0.17956 0.0
C803 C 0.67184 0.32673 0.19301 0.0
C804 C 0.65205 0.32969 0.1976 0.0
C805 C 0.63905 0.31523 0.18843 0.0
C806 C 0.69937 0.30553 0.17422 0.0
C807 C 0.64461 0.34819 0.21192 0.0
C808 C 0.7103 0.3541 0.23558 0.0
C809 C 0.71678 0.36724 0.21369 0.0
C810 C 0.69493 0.34148 0.22976 0.0
C811 C 0.68588 0.34206 0.2014 0.0
C812 C 0.69163 0.35609 0.17991 0.0
C813 C 0.707 0.36853 0.18632 0.0
C814 C 0.68909 0.3268 0.25332 0.0
C815 C 0.68228 0.35721 0.14945 0.0
H816 H 0.67016 0.28167 0.16029 0.0
H817 H 0.62389 0.31754 0.1918 0.0
H818 H 0.70525 0.31697 0.15918 0.0
H819 H 0.70731 0.3064 0.19569 0.0
H820 H 0.70209 0.29099 0.16396 0.0
H821 H 0.62885 0.34798 0.21475 0.0
H822 H 0.65132 0.35029 0.23421 0.0
H823 H 0.64853 0.36101 0.19798 0.0
H824 H 0.7177 0.3531 0.25686 0.0
H825 H 0.71179 0.37877 0.16936 0.0
H826 H 0.6932 0.31189 0.24592 0.0
H827 H 0.67337 0.32689 0.25637 0.0
H828 H 0.69598 0.32973 0.27529 0.0
H829 H 0.6858 0.34386 0.13643 0.0
H830 H 0.68709 0.37018 0.13647 0.0
H831 H 0.66652 0.3578 0.15174 0.0
C832 C 0.71242 0.62381 0.18427 0.0
C833 C 0.73035 0.63282 0.18191 0.0
C834 C 0.69584 0.63492 0.18903 0.0
C835 C 0.69725 0.65551 0.19113 0.0
C836 C 0.71538 0.66462 0.18986 0.0
C837 C 0.73173 0.65315 0.18542 0.0
C838 C 0.67676 0.62469 0.19067 0.0
C839 C 0.71744 0.68658 0.19183 0.0
C840 C 0.65572 0.68682 0.16568 0.0
C841 C 0.64839 0.69362 0.19301 0.0
C842 C 0.67134 0.67403 0.16486 0.0
C843 C 0.67972 0.66772 0.19204 0.0
C844 C 0.67196 0.67391 0.21975 0.0
C845 C 0.65641 0.68689 0.21991 0.0
C846 C 0.67928 0.66785 0.13483 0.0
C847 C 0.6804 0.66724 0.24915 0.0
H848 H 0.71126 0.60808 0.18186 0.0
H849 H 0.74554 0.66023 0.18369 0.0
H850 H 0.66865 0.62971 0.21059 0.0
H851 H 0.66815 0.62843 0.1706 0.0
H852 H 0.67829 0.60853 0.19177 0.0
H853 H 0.73263 0.69126 0.19239 0.0
H854 H 0.71045 0.6935 0.17219 0.0
H855 H 0.71019 0.69218 0.21219 0.0
H856 H 0.64962 0.69193 0.14477 0.0
H857 H 0.65076 0.69202 0.24111 0.0
H858 H 0.67981 0.65167 0.13333 0.0
H859 H 0.69413 0.6733 0.13241 0.0
H860 H 0.67067 0.67351 0.1158 0.0
H861 H 0.68159 0.65107 0.24963 0.0
H862 H 0.67174 0.67206 0.26866 0.0
H863 H 0.69505 0.67323 0.25159 0.0
C864 C 0.29008 0.62049 0.1892 0.0
C865 C 0.28103 0.61855 0.2171 0.0
C866 C 0.30479 0.63411 0.18492 0.0
C867 C 0.31063 0.64604 0.20913 0.0
C868 C 0.3023 0.64343 0.23776 0.0
C869 C 0.28756 0.6297 0.24141 0.0
C870 C 0.31336 0.63642 0.15405 0.0
C871 C 0.30825 0.65581 0.26415 0.0
C872 C 0.35635 0.67523 0.19856 0.0
C873 C 0.34913 0.69331 0.18889 0.0
C874 C 0.344 0.65978 0.20601 0.0
C875 C 0.32402 0.66251 0.20362 0.0
C876 C 0.31667 0.68086 0.19451 0.0
C877 C 0.32931 0.69602 0.1873 0.0
C878 C 0.35231 0.64043 0.21577 0.0
C879 C 0.29543 0.68436 0.19168 0.0
H880 H 0.28525 0.61184 0.17033 0.0
H881 H 0.28073 0.62821 0.26308 0.0
H882 H 0.30927 0.65086 0.14468 0.0
H883 H 0.32918 0.63602 0.15528 0.0
H884 H 0.30849 0.62486 0.13834 0.0
H885 H 0.30202 0.65046 0.28553 0.0
H886 H 0.32404 0.65603 0.26628 0.0
H887 H 0.3035 0.67111 0.26055 0.0
H888 H 0.37166 0.67305 0.19995 0.0
H889 H 0.32359 0.70996 0.17997 0.0
H890 H 0.34877 0.629 0.19904 0.0
H891 H 0.34594 0.63582 0.23742 0.0
H892 H 0.36809 0.64106 0.21832 0.0
H893 H 0.28937 0.67446 0.17443 0.0
H894 H 0.29203 0.69969 0.18535 0.0
H895 H 0.28819 0.68097 0.21317 0.0
C896 C 0.26729 0.34087 0.15853 0.0
C897 C 0.26925 0.35735 0.14004 0.0
C898 C 0.28272 0.32829 0.16374 0.0
C899 C 0.30054 0.33226 0.15008 0.0
C900 C 0.3029 0.3494 0.13267 0.0
C901 C 0.2872 0.36179 0.12787 0.0
C902 C 0.27966 0.3102 0.18258 0.0
C903 C 0.32173 0.35411 0.11783 0.0
C904 C 0.34314 0.30262 0.17692 0.0
C905 C 0.34349 0.28746 0.15576 0.0
C906 C 0.32949 0.31763 0.17506 0.0
C907 C 0.31596 0.3174 0.1515 0.0
C908 C 0.31651 0.30234 0.12979 0.0
C909 C 0.33025 0.28756 0.13221 0.0
C910 C 0.32929 0.33349 0.19858 0.0
C911 C 0.30232 0.30161 0.10429 0.0
H912 H 0.25352 0.33745 0.16831 0.0
H913 H 0.28884 0.37455 0.11369 0.0
H914 H 0.28058 0.29701 0.16817 0.0
H915 H 0.29098 0.30893 0.19986 0.0
H916 H 0.26553 0.31021 0.19391 0.0
H917 H 0.32185 0.36902 0.10791 0.0
H918 H 0.3336 0.35295 0.1342 0.0
H919 H 0.32456 0.34336 0.09975 0.0
H920 H 0.35339 0.30266 0.19512 0.0
H921 H 0.33048 0.27597 0.11565 0.0
H922 H 0.31575 0.33279 0.21146 0.0
H923 H 0.32989 0.34809 0.18779 0.0
H924 H 0.34143 0.33216 0.21448 0.0
H925 H 0.28765 0.29995 0.11332 0.0
H926 H 0.30517 0.28932 0.08864 0.0
H927 H 0.30272 0.3155 0.09144 0.0
C928 C 0.94005 0.21936 0.31842 0.0
C929 C 0.92702 0.22562 0.29655 0.0
C930 C 0.95975 0.21976 0.31304 0.0
C931 C 0.96659 0.22645 0.28502 0.0
C932 C 0.95351 0.23165 0.26219 0.0
C933 C 0.93383 0.23122 0.26825 0.0
C934 C 0.97325 0.21409 0.33799 0.0
C935 C 0.96031 0.23862 0.23191 0.0
C936 C 0.01513 0.25059 0.28883 0.0
C937 C 0.02727 0.2353 0.28014 0.0
C938 C 0.99529 0.24807 0.28945 0.0
C939 C 0.98737 0.22986 0.28097 0.0
C940 C -0.00054 0.21462 0.27095 0.0
C941 C 0.01931 0.21749 0.27076 0.0
C942 C 0.98286 0.26468 0.30036 0.0
C943 C 0.99147 0.19508 0.26143 0.0
H944 H 0.93492 0.21484 0.34027 0.0
H945 H 0.92385 0.23594 0.25115 0.0
H946 H 0.98391 0.20333 0.32984 0.0
H947 H 0.98122 0.2272 0.34564 0.0
H948 H 0.96565 0.2077 0.35754 0.0
H949 H 0.94845 0.23962 0.21544 0.0
H950 H 0.96687 0.25331 0.23422 0.0
H951 H 0.97143 0.22866 0.22293 0.0
H952 H 0.02114 0.26443 0.29598 0.0
H953 H 0.02861 0.20565 0.26382 0.0
H954 H 0.97565 0.26036 0.3215 0.0
H955 H 0.97155 0.26795 0.2837 0.0
H956 H 0.99117 0.27824 0.30456 0.0
H957 H 0.98534 0.18746 0.28117 0.0
H958 H 0.00254 0.18551 0.25129 0.0
H959 H 0.97973 0.19714 0.24503 0.0
C960 C 0.71348 0.05455 0.27406 0.0
C961 C 0.70324 0.06051 0.2995 0.0
C962 C 0.71907 0.03496 0.27045 0.0
C963 C 0.71432 0.02113 0.29284 0.0
C964 C 0.70327 0.02692 0.31787 0.0
C965 C 0.69784 0.04651 0.32085 0.0
C966 C 0.7307 0.02924 0.24335 0.0
C967 C 0.69783 0.01257 0.34218 0.0
C968 C 0.71619 0.96627 0.28224 0.0
C969 C 0.73291 0.96149 0.29797 0.0
C970 C 0.7105 0.9858 0.27873 0.0
C971 C 0.72176 0.00084 0.2914 0.0
C972 C 0.73921 -0.00382 0.30575 0.0
C973 C 0.74461 0.97654 0.30879 0.0
C974 C 0.69191 0.99024 0.26298 0.0
C975 C 0.75163 0.01185 0.31951 0.0
H976 H 0.71768 0.06528 0.25743 0.0
H977 H 0.68981 0.05096 0.34047 0.0
H978 H 0.74545 0.02551 0.2504 0.0
H979 H 0.72456 0.01605 0.23257 0.0
H980 H 0.73145 0.04118 0.2265 0.0
H981 H 0.68839 0.01922 0.3594 0.0
H982 H 0.6904 -0.00023 0.33234 0.0
H983 H 0.7109 0.00706 0.35343 0.0
H984 H 0.70717 0.95472 0.2735 0.0
H985 H 0.75762 0.97297 0.32078 0.0
H986 H 0.6938 0.00236 0.24672 0.0
H987 H 0.68114 0.99504 0.27967 0.0
H988 H 0.68619 0.97729 0.25094 0.0
H989 H 0.75431 0.02374 0.30312 0.0
H990 H 0.76558 0.00601 0.32729 0.0
H991 H 0.74413 0.01842 0.33896 0.0
C992 C 0.05106 0.74058 0.28289 0.0
C993 C 0.06312 0.7525 0.30007 0.0
C994 C 0.03137 0.74431 0.28138 0.0
C995 C 0.02365 0.76038 0.2973 0.0
C996 C 0.03596 0.77329 0.3128 0.0
C997 C 0.05555 0.76917 0.31405 0.0
C998 C 0.01869 0.73025 0.26452 0.0
C999 C 0.02829 0.79068 0.32983 0.0
C1000 C 0.97164 0.77451 0.28547 0.0
C1001 C 0.96283 0.76486 0.30954 0.0
C1002 C 0.99149 0.77326 0.2811 0.0
C1003 C 0.00267 0.7621 0.30125 0.0
C1004 C 0.99384 0.75246 0.32566 0.0
C1005 C 0.97406 0.75397 0.3295 0.0
C1006 C 0.00048 0.78377 0.2549 0.0
C1007 C 0.00527 0.74043 0.34771 0.0
H1008 H 0.0568 0.72775 0.27185 0.0
H1009 H 0.06482 0.77861 0.32705 0.0
H1010 H 0.01034 0.72141 0.28074 0.0
H1011 H 0.00835 0.73831 0.2503 0.0
H1012 H 0.02704 0.72013 0.25011 0.0
H1013 H 0.03986 0.80073 0.33713 0.0
H1014 H 0.01799 0.799 0.3159 0.0
H1015 H 0.02053 0.78552 0.35002 0.0
H1016 H 0.96304 0.78293 0.26994 0.0
H1017 H 0.96739 0.74647 0.34817 0.0
H1018 H 0.00771 0.77309 0.24004 0.0
H1019 H 0.01155 0.79409 0.263 0.0
H1020 H 0.98982 0.79205 0.2415 0.0
H1021 H 0.01287 0.7285 0.33577 0.0
H1022 H 0.9962 0.73382 0.36544 0.0
H1023 H 0.01626 0.7497 0.35859 0.0
C1024 C 0.27507 0.94895 0.38171 0.0
C1025 C 0.28371 0.93611 0.36133 0.0
C1026 C 0.2736 0.96899 0.37543 0.0
C1027 C 0.28085 0.97631 0.34802 0.0
C1028 C 0.28936 0.96339 0.32716 0.0
C1029 C 0.29075 0.94343 0.33411 0.0
C1030 C 0.26453 0.98236 0.39831 0.0
C1031 C 0.29712 0.97069 0.29763 0.0
C1032 C 0.26259 0.02608 0.32358 0.0
C1033 C 0.27738 0.03838 0.33327 0.0
C1034 C 0.26372 0.00575 0.32754 0.0
C1035 C 0.27998 -0.0024 0.34166 0.0
C1036 C 0.29514 0.00989 0.35084 0.0
C1037 C 0.29368 0.03013 0.34645 0.0
C1038 C 0.24735 0.99305 0.31727 0.0
C1039 C 0.31269 0.00171 0.36607 0.0
H1040 H 0.26961 0.94341 0.4028 0.0
H1041 H 0.29737 0.93357 0.31819 0.0
H1042 H 0.27503 0.9935 0.40572 0.0
H1043 H 0.25233 0.99029 0.38812 0.0
H1044 H 0.25933 0.97429 0.41832 0.0
H1045 H 0.30275 0.95864 0.28345 0.0
H1046 H 0.28577 0.97847 0.28502 0.0
H1047 H 0.30879 0.98133 0.30168 0.0
H1048 H 0.24997 0.03235 0.31329 0.0
H1049 H 0.30518 0.03952 0.354 0.0
H1050 H 0.24062 0.98585 0.3369 0.0
H1051 H 0.25267 0.9813 0.3023 0.0
H1052 H 0.23623 0.00154 0.30517 0.0
H1053 H 0.30857 0.99468 0.38753 0.0
H1054 H 0.32352 0.01317 0.37083 0.0
H1055 H 0.31934 0.99028 0.35187 0.0
C1056 C 0.02424 0.7408 0.6736 0.0
C1057 C 0.03656 0.75482 0.68588 0.0
C1058 C 0.00438 0.74276 0.676 0.0
C1059 C -0.00337 0.7591 0.69122 0.0
C1060 C 0.00896 0.77311 0.70425 0.0
C1061 C 0.02882 0.77084 0.70133 0.0
C1062 C 0.99169 0.72754 0.66167 0.0
C1063 C 0.00118 0.79062 0.72082 0.0
C1064 C 0.94631 0.77137 0.66675 0.0
C1065 C 0.93538 0.76143 0.68827 0.0
C1066 C 0.9663 0.77162 0.66836 0.0
C1067 C 0.97558 0.76177 0.69214 0.0
C1068 C 0.96462 0.7528 0.715 0.0
C1069 C 0.94461 0.75271 0.71277 0.0
C1070 C 0.97748 0.78139 0.64357 0.0
C1071 C 0.97403 0.74234 0.74088 0.0
H1072 H 0.03009 0.72836 0.66166 0.0
H1073 H 0.03826 0.78168 0.71102 0.0
H1074 H 0.98188 0.72123 0.67863 0.0
H1075 H 0.98274 0.73444 0.64408 0.0
H1076 H -1e-05 0.71545 0.65132 0.0
H1077 H 0.01267 0.79958 0.73111 0.0
H1078 H 0.99292 0.79999 0.7052 0.0
H1079 H 0.99122 0.78581 0.73871 0.0
H1080 H 0.93931 0.77831 0.64787 0.0
H1081 H 0.93627 0.74512 0.72961 0.0
H1082 H 0.98499 0.7701 0.63015 0.0
H1083 H 0.98851 0.79124 0.65306 0.0
H1084 H 0.96817 0.79001 0.62834 0.0
H1085 H 0.98094 0.72877 0.73264 0.0
H1086 H 0.96362 0.73833 0.75864 0.0
H1087 H 0.98537 0.75159 0.7509 0.0
C1088 C 0.26023 0.97644 0.70854 0.0
C1089 C 0.27406 0.96674 0.69134 0.0
C1090 C 0.25882 -0.00306 0.70809 0.0
C1091 C 0.27143 0.00787 0.68981 0.0
C1092 C 0.2857 -0.00183 0.67299 0.0
C1093 C 0.2869 0.97775 0.67408 0.0
C1094 C 0.24357 0.00685 0.72656 0.0
C1095 C 0.29935 0.00932 0.65308 0.0
C1096 C 0.25709 0.05732 0.65892 0.0
C1097 C 0.26838 0.07 0.67611 0.0
C1098 C 0.25743 0.03709 0.66391 0.0
C1099 C 0.26921 0.02938 0.68682 0.0
C1100 C 0.28 0.04216 0.70511 0.0
C1101 C 0.27953 0.06235 0.69944 0.0
C1102 C 0.24581 0.02391 0.64379 0.0
C1103 C 0.29257 0.03446 0.72996 0.0
H1104 H 0.25032 0.96803 0.72204 0.0
H1105 H 0.29765 0.97039 0.66073 0.0
H1106 H 0.24999 0.01846 0.74069 0.0
H1107 H 0.23306 0.01401 0.71153 0.0
H1108 H 0.23584 -0.0036 0.74128 0.0
H1109 H 0.31005 -0.00038 0.64224 0.0
H1110 H 0.29125 0.01705 0.63528 0.0
H1111 H 0.30704 0.02058 0.66627 0.0
H1112 H 0.2484 0.06313 0.64089 0.0
H1113 H 0.28818 0.07209 0.71298 0.0
H1114 H 0.23677 0.01398 0.6574 0.0
H1115 H 0.25552 0.01462 0.63024 0.0
H1116 H 0.23646 0.03229 0.6283 0.0
H1117 H 0.28439 0.02434 0.74456 0.0
H1118 H 0.29855 0.04639 0.74399 0.0
H1119 H 0.30459 0.02602 0.72022 0.0
C1120 C 0.0447 0.25643 0.70449 0.0
C1121 C 0.05413 0.24271 0.68644 0.0
C1122 C 0.02555 0.25366 0.71279 0.0
C1123 C 0.01578 0.23669 0.70303 0.0
C1124 C 0.02565 0.22218 0.68658 0.0
C1125 C 0.04469 0.22542 0.67833 0.0
C1126 C 0.01545 0.26949 0.73026 0.0
C1127 C 0.01579 0.20378 0.67607 0.0
C1128 C 0.96641 0.22412 0.73289 0.0
C1129 C 0.95476 0.23104 0.70961 0.0
C1130 C 0.98637 0.22608 0.73141 0.0
C1131 C 0.99473 0.23532 0.70621 0.0
C1132 C 0.98299 0.24266 0.683 0.0
C1133 C 0.96319 0.24035 0.68493 0.0
C1134 C -0.00147 0.21797 0.75643 0.0
C1135 C 0.99135 0.25275 0.65585 0.0
H1136 H 0.05197 0.26977 0.71094 0.0
H1137 H 0.05201 0.21462 0.66477 0.0
H1138 H 0.00527 0.27722 0.7153 0.0
H1139 H 0.00705 0.26308 0.74891 0.0
H1140 H 0.02559 0.28039 0.73959 0.0
H1141 H 0.02605 0.19289 0.66699 0.0
H1142 H 0.00771 0.19695 0.69471 0.0
H1143 H 0.00538 0.20749 0.6582 0.0
H1144 H 0.95996 0.21693 0.75203 0.0
H1145 H 0.95429 0.24593 0.66698 0.0
H1146 H 0.00809 0.22951 0.76537 0.0
H1147 H 0.00777 0.2061 0.74767 0.0
H1148 H 0.98978 0.21205 0.77513 0.0
H1149 H 0.00046 0.26518 0.66293 0.0
H1150 H 0.98016 0.25836 0.64042 0.0
H1151 H 0.00055 0.2424 0.64328 0.0
C1152 C 0.73967 0.01751 0.70105 0.0
C1153 C 0.72975 0.02967 0.72099 0.0
C1154 C 0.73689 -0.00275 0.70124 0.0
C1155 C 0.72386 0.98894 0.72187 0.0
C1156 C 0.71465 0.00097 0.74325 0.0
C1157 C 0.71773 0.02126 0.74258 0.0
C1158 C 0.74711 0.98487 0.67822 0.0
C1159 C 0.70076 0.99258 0.7657 0.0
C1160 C 0.70052 0.94301 0.69237 0.0
C1161 C 0.71163 0.92837 0.70578 0.0
C1162 C 0.70377 0.96279 0.69864 0.0
C1163 C 0.71852 0.96806 0.71876 0.0
C1164 C 0.72918 0.95334 0.73351 0.0
C1165 C 0.72559 0.93362 0.72685 0.0
C1166 C 0.69201 0.97808 0.68258 0.0
C1167 C 0.74496 0.95844 0.75518 0.0
H1168 H 0.74917 0.02388 0.68453 0.0
H1169 H 0.71009 0.03057 0.75816 0.0
H1170 H 0.75422 0.97225 0.68917 0.0
H1171 H 0.73659 0.97892 0.66202 0.0
H1172 H 0.75801 0.99332 0.66558 0.0
H1173 H 0.6968 0.00338 0.78323 0.0
H1174 H 0.68757 0.98791 0.75396 0.0
H1175 H 0.7069 0.97945 0.77671 0.0
H1176 H 0.68957 0.93906 0.6763 0.0
H1177 H 0.73418 0.92238 0.73742 0.0
H1178 H 0.70127 0.98645 0.66699 0.0
H1179 H 0.68595 0.98863 0.69888 0.0
H1180 H 0.68011 0.97155 0.66951 0.0
H1181 H 0.75709 0.965 0.74273 0.0
H1182 H 0.75026 0.9454 0.76751 0.0
H1183 H 0.73997 0.96947 0.77164 0.0
C1184 C 0.51507 0.72538 0.8067 0.0
C1185 C 0.52717 0.72075 0.78268 0.0
C1186 C 0.49536 0.72727 0.80261 0.0
C1187 C 0.48744 0.72424 0.77381 0.0
C1188 C 0.49943 0.71896 0.74959 0.0
C1189 C 0.51923 0.71739 0.75427 0.0
C1190 C 0.48307 0.73301 0.82905 0.0
C1191 C 0.49139 0.71536 0.7187 0.0
C1192 C 0.43417 0.71659 0.77943 0.0
C1193 C 0.42747 0.73576 0.7756 0.0
C1194 C 0.45363 0.71218 0.77619 0.0
C1195 C 0.46664 0.72738 0.7694 0.0
C1196 C 0.45974 0.74641 0.76315 0.0
C1197 C 0.44018 0.75035 0.76613 0.0
C1198 C 0.46039 0.69161 0.78237 0.0
C1199 C 0.47318 0.76304 0.75596 0.0
H1200 H 0.52105 0.728 0.82874 0.0
H1201 H 0.52849 0.71374 0.73563 0.0
H1202 H 0.47576 0.74709 0.82432 0.0
H1203 H 0.47184 0.72185 0.83284 0.0
H1204 H 0.49147 0.73464 0.85001 0.0
H1205 H 0.50238 0.70977 0.70291 0.0
H1206 H 0.47949 0.70467 0.71985 0.0
H1207 H 0.48546 0.72916 0.70954 0.0
H1208 H 0.42435 0.70517 0.78628 0.0
H1209 H 0.43509 0.76517 0.76292 0.0
H1210 H 0.46716 0.69103 0.80483 0.0
H1211 H 0.47129 0.68706 0.76572 0.0
H1212 H 0.44843 0.68093 0.78196 0.0
H1213 H 0.4812 0.76714 0.77646 0.0
H1214 H 0.46545 0.77617 0.7477 0.0
H1215 H 0.48377 0.75854 0.73882 0.0
C1216 C 0.22856 0.46865 0.77387 0.0
C1217 C 0.21242 0.4571 0.76812 0.0
C1218 C 0.22689 0.48891 0.778 0.0
C1219 C 0.20868 0.49782 0.77613 0.0
C1220 C 0.19254 0.48644 0.76843 0.0
C1221 C 0.19459 0.46618 0.76459 0.0
C1222 C 0.24446 0.50057 0.78617 0.0
C1223 C 0.17292 0.49546 0.76589 0.0
C1224 C 0.20126 0.54252 0.82486 0.0
C1225 C 0.20357 0.55782 0.80424 0.0
C1226 C 0.20262 0.52295 0.81583 0.0
C1227 C 0.20626 0.51854 0.78537 0.0
C1228 C 0.20816 0.53387 0.76427 0.0
C1229 C 0.20684 0.55337 0.77397 0.0
C1230 C 0.20054 0.507 0.83905 0.0
C1231 C 0.21192 0.52968 0.73158 0.0
H1232 H 0.24241 0.46178 0.7765 0.0
H1233 H 0.18207 0.45738 0.75988 0.0
H1234 H 0.24561 0.51378 0.77185 0.0
H1235 H 0.2433 0.5056 0.80974 0.0
H1236 H 0.25778 0.49187 0.78382 0.0
H1237 H 0.16234 0.48516 0.75616 0.0
H1238 H 0.16787 0.4999 0.78845 0.0
H1239 H 0.17341 0.50882 0.75181 0.0
H1240 H 0.19871 0.54581 0.84828 0.0
H1241 H 0.20859 0.56511 0.75788 0.0
H1242 H 0.21393 0.49835 0.84032 0.0
H1243 H 0.18893 0.49682 0.83253 0.0
H1244 H 0.19733 0.51289 0.86169 0.0
H1245 H 0.22594 0.5223 0.72908 0.0
H1246 H 0.21198 0.54319 0.71776 0.0
H1247 H 0.2009 0.51958 0.72265 0.0
C1248 C 0.46893 0.2727 0.75729 0.0
C1249 C 0.46241 0.27632 0.78651 0.0
C1250 C 0.4884 0.26939 0.75159 0.0
C1251 C 0.5015 0.26945 0.77574 0.0
C1252 C 0.49513 0.27424 0.80493 0.0
C1253 C 0.4757 0.27777 0.8099 0.0
C1254 C 0.49476 0.26481 0.72005 0.0
C1255 C 0.50864 0.27443 0.83135 0.0
C1256 C 0.54461 0.23637 0.77839 0.0
C1257 C 0.55958 0.24996 0.777 0.0
C1258 C 0.52556 0.2424 0.77597 0.0
C1259 C 0.5214 0.26247 0.7716 0.0
C1260 C 0.53647 0.27599 0.76756 0.0
C1261 C 0.55543 0.26959 0.77054 0.0
C1262 C 0.50988 0.2275 0.78045 0.0
C1263 C 0.53259 0.29741 0.76208 0.0
H1264 H 0.45876 0.27176 0.73903 0.0
H1265 H 0.47084 0.28073 0.83251 0.0
H1266 H 0.50817 0.27269 0.71458 0.0
H1267 H 0.49771 0.24893 0.71806 0.0
H1268 H 0.4837 0.26878 0.70326 0.0
H1269 H 0.50162 0.27961 0.85222 0.0
H1270 H 0.51419 0.25944 0.83531 0.0
H1271 H 0.52107 0.28398 0.82663 0.0
H1272 H 0.54769 0.22114 0.7831 0.0
H1273 H 0.56695 0.28014 0.76899 0.0
H1274 H 0.49904 0.22873 0.76244 0.0
H1275 H 0.50255 0.23035 0.80206 0.0
H1276 H 0.51545 0.21229 0.78075 0.0
H1277 H 0.52092 0.29932 0.74551 0.0
H1278 H 0.5455 0.3052 0.75389 0.0
H1279 H 0.52791 0.30438 0.78329 0.0
C1280 C 0.78481 0.45085 0.81714 0.0
C1281 C 0.77245 0.44393 0.83951 0.0
C1282 C 0.78581 0.47084 0.81033 0.0
C1283 C 0.77433 0.48418 0.82652 0.0
C1284 C 0.76141 0.47722 0.84846 0.0
C1285 C 0.76055 0.45714 0.8546 0.0
C1286 C 0.79958 0.47773 0.78651 0.0
C1287 C 0.74901 0.49106 0.8663 0.0
C1288 C 0.79132 0.53619 0.83749 0.0
C1289 C 0.77912 0.54656 0.81829 0.0
C1290 C 0.79023 0.5158 0.83975 0.0
C1291 C 0.77676 0.50553 0.82214 0.0
C1292 C 0.765 0.51579 0.8017 0.0
C1293 C 0.76626 0.53625 0.80011 0.0
C1294 C 0.80297 0.50534 0.8619 0.0
C1295 C 0.75067 0.50525 0.78227 0.0
H1296 H 0.79393 0.44067 0.80521 0.0
H1297 H 0.75097 0.45188 0.87189 0.0
H1298 H 0.79216 0.48738 0.77024 0.0
H1299 H 0.81112 0.48648 0.79701 0.0
H1300 H 0.80619 0.46537 0.77413 0.0
H1301 H 0.73901 0.48321 0.88143 0.0
H1302 H 0.75817 0.50079 0.88006 0.0
H1303 H 0.74059 0.50051 0.85102 0.0
H1304 H 0.80131 0.54405 0.8516 0.0
H1305 H 0.75687 0.54418 0.78509 0.0
H1306 H 0.8111 0.49358 0.85051 0.0
H1307 H 0.79409 0.49831 0.87948 0.0
H1308 H 0.81326 0.51538 0.87294 0.0
H1309 H 0.75767 0.49306 0.77008 0.0
H1310 H 0.74383 0.51515 0.7657 0.0
H1311 H 0.73935 0.49876 0.79656 0.0
C1312 C 0.45944 0.23272 0.20871 0.0
C1313 C 0.44529 0.24722 0.20905 0.0
C1314 C 0.47884 0.23769 0.2102 0.0
C1315 C 0.48415 0.25762 0.21222 0.0
C1316 C 0.46991 0.27218 0.21502 0.0
C1317 C 0.45061 0.26681 0.21335 0.0
C1318 C 0.49363 0.22171 0.20734 0.0
C1319 C 0.47504 0.29356 0.21763 0.0
C1320 C 0.53685 0.26742 0.22555 0.0
C1321 C 0.54352 0.26945 0.19605 0.0
C1322 C 0.51737 0.26435 0.23142 0.0
C1323 C 0.50437 0.26326 0.20721 0.0
C1324 C 0.51091 0.26625 0.17754 0.0
C1325 C 0.53039 0.26934 0.17235 0.0
C1326 C 0.51085 0.26141 0.26335 0.0
C1327 C 0.49746 0.26531 0.15109 0.0
H1328 H 0.45545 0.21753 0.20571 0.0
H1329 H 0.43974 0.2781 0.21398 0.0
H1330 H 0.50072 0.22283 0.18516 0.0
H1331 H 0.50483 0.22338 0.22471 0.0
H1332 H 0.48726 0.20689 0.20941 0.0
H1333 H 0.4626 0.3026 0.22448 0.0
H1334 H 0.48672 0.29569 0.23409 0.0
H1335 H 0.48023 0.29896 0.19564 0.0
H1336 H 0.54691 0.26754 0.24401 0.0
H1337 H 0.53539 0.27106 0.14951 0.0
H1338 H 0.50676 0.24589 0.26674 0.0
H1339 H 0.49804 0.27045 0.26811 0.0
H1340 H 0.52219 0.26516 0.27977 0.0
H1341 H 0.49143 0.25035 0.14919 0.0
H1342 H 0.50466 0.26901 0.12964 0.0
H1343 H 0.48533 0.27552 0.15439 0.0
C1344 C 0.78005 0.54622 0.1819 0.0
C1345 C 0.77623 0.56008 0.20427 0.0
C1346 C 0.77616 0.52636 0.18647 0.0
C1347 C 0.76838 0.52017 0.21417 0.0
C1348 C 0.76487 0.53398 0.23711 0.0
C1349 C 0.76879 0.55383 0.23185 0.0
C1350 C 0.78006 0.51206 0.16141 0.0
C1351 C 0.75674 0.52783 0.267 0.0
C1352 C 0.74246 0.47171 0.20919 0.0
C1353 C 0.75699 0.4586 0.21718 0.0
C1354 C 0.74563 0.49196 0.20966 0.0
C1355 C 0.7637 0.4992 0.21859 0.0
C1356 C 0.77797 0.48609 0.22863 0.0
C1357 C 0.77446 0.46592 0.2277 0.0
C1358 C 0.73007 0.50551 0.19878 0.0
C1359 C 0.79732 0.49328 0.23867 0.0
H1360 H 0.78577 0.55092 0.16051 0.0
H1361 H 0.76584 0.56445 0.24926 0.0
H1362 H 0.79006 0.50053 0.16917 0.0
H1363 H 0.7666 0.5047 0.15472 0.0
H1364 H 0.7863 0.51925 0.14134 0.0
H1365 H 0.75561 0.54025 0.28293 0.0
H1366 H 0.74232 0.52145 0.26379 0.0
H1367 H 0.76582 0.51631 0.27719 0.0
H1368 H 0.72889 0.46617 0.20115 0.0
H1369 H 0.78569 0.45587 0.23425 0.0
H1370 H 0.73436 0.51204 0.17702 0.0
H1371 H 0.72794 0.51771 0.21481 0.0
H1372 H 0.71625 0.4978 0.19566 0.0
H1373 H 0.80535 0.49893 0.21905 0.0
H1374 H 0.80591 0.48152 0.24933 0.0
H1375 H 0.79577 0.50553 0.25479 0.0
C1376 C 0.463 0.72746 0.17358 0.0
C1377 C 0.4518 0.72715 0.19963 0.0
C1378 C 0.48285 0.72959 0.17511 0.0
C1379 C 0.49178 0.73138 0.20342 0.0
C1380 C 0.48068 0.73043 0.22989 0.0
C1381 C 0.46077 0.72836 0.22769 0.0
C1382 C 0.4942 0.73053 0.14634 0.0
C1383 C 0.48978 0.73213 0.26044 0.0
C1384 C 0.54522 0.72309 0.20055 0.0
C1385 C 0.55198 0.74228 0.19716 0.0
C1386 C 0.52568 0.71933 0.20446 0.0
C1387 C 0.51264 0.73514 0.20485 0.0
C1388 C 0.5195 0.75458 0.2032 0.0
C1389 C 0.53911 0.75792 0.19945 0.0
C1390 C 0.51891 0.69841 0.20646 0.0
C1391 C 0.50602 0.77183 0.20357 0.0
H1392 H 0.45621 0.72646 0.1518 0.0
H1393 H 0.45221 0.72809 0.24792 0.0
H1394 H 0.50125 0.74501 0.14439 0.0
H1395 H 0.50562 0.71928 0.14649 0.0
H1396 H 0.48515 0.72823 0.1262 0.0
H1397 H 0.47937 0.72959 0.27883 0.0
H1398 H 0.50165 0.72148 0.26268 0.0
H1399 H 0.49599 0.74695 0.26319 0.0
H1400 H 0.55511 0.71092 0.1991 0.0
H1401 H 0.54422 0.7728 0.19709 0.0
H1402 H 0.51135 0.69442 0.18548 0.0
H1403 H 0.50862 0.69665 0.22517 0.0
H1404 H 0.53092 0.68801 0.20978 0.0
H1405 H 0.49735 0.77186 0.18275 0.0
H1406 H 0.51373 0.786 0.2051 0.0
H1407 H 0.49599 0.7707 0.22272 0.0
C1408 C 0.22369 0.42894 0.21249 0.0
C1409 C 0.21593 0.42534 0.18402 0.0
C1410 C 0.2251 0.44807 0.2237 0.0
C1411 C 0.21856 0.46389 0.206 0.0
C1412 C 0.21026 0.46028 0.17762 0.0
C1413 C 0.20906 0.44107 0.16698 0.0
C1414 C 0.23401 0.45141 0.25406 0.0
C1415 C 0.20305 0.47678 0.15811 0.0
C1416 C 0.20729 0.51444 0.23565 0.0
C1417 C 0.22289 0.52516 0.22473 0.0
C1418 C 0.20623 0.49412 0.2315 0.0
C1419 C 0.22114 0.48439 0.21615 0.0
C1420 C 0.23757 0.49491 0.20716 0.0
C1421 C 0.23825 0.51518 0.21155 0.0
C1422 C 0.18855 0.48335 0.24164 0.0
C1423 C 0.25387 0.48501 0.19096 0.0
H1424 H 0.22901 0.41685 0.2258 0.0
H1425 H 0.20294 0.43841 0.14504 0.0
H1426 H 0.24759 0.45959 0.25143 0.0
H1427 H 0.22446 0.46045 0.26824 0.0
H1428 H 0.23707 0.43748 0.26596 0.0
H1429 H 0.19629 0.47141 0.13714 0.0
H1430 H 0.19244 0.48568 0.17057 0.0
H1431 H 0.21507 0.48658 0.15202 0.0
H1432 H 0.19542 0.52201 0.24608 0.0
H1433 H 0.25048 0.52332 0.2034 0.0
H1434 H 0.19243 0.46955 0.25319 0.0
H1435 H 0.17981 0.47942 0.22179 0.0
H1436 H 0.17963 0.49234 0.25695 0.0
H1437 H 0.25822 0.47148 0.20288 0.0
H1438 H 0.26652 0.4947 0.18876 0.0
H1439 H 0.24914 0.48069 0.16817 0.0
C1440 C 0.09715 0.242 0.39099 0.0
C1441 C 0.08986 0.22417 0.38043 0.0
C1442 C 0.10088 0.24484 0.42158 0.0
C1443 C 0.09722 0.22949 0.44208 0.0
C1444 C 0.08966 0.21155 0.43163 0.0
C1445 C 0.08608 0.20911 0.40093 0.0
C1446 C 0.10894 0.26418 0.43192 0.0
C1447 C 0.08553 0.19486 0.45285 0.0
C1448 C 0.1234 0.22844 0.51657 0.0
C1449 C 0.10936 0.23536 0.53632 0.0
C1450 C 0.11973 0.22673 0.48577 0.0
C1451 C 0.10156 0.23204 0.47446 0.0
C1452 C 0.08742 0.23932 0.49418 0.0
C1453 C 0.09148 0.2409 0.52487 0.0
C1454 C 0.13519 0.21896 0.4654 0.0
C1455 C 0.06788 0.24514 0.48292 0.0
H1456 H 0.10011 0.25373 0.3753 0.0
H1457 H 0.08043 0.19529 0.39299 0.0
H1458 H 0.09945 0.27075 0.44911 0.0
H1459 H 0.12308 0.26186 0.44255 0.0
H1460 H 0.11063 0.27476 0.41321 0.0
H1461 H 0.07933 0.18199 0.44121 0.0
H1462 H 0.09889 0.19026 0.46422 0.0
H1463 H 0.07543 0.1997 0.47051 0.0
H1464 H 0.13726 0.22416 0.52519 0.0
H1465 H 0.08054 0.24628 0.53995 0.0
H1466 H 0.13812 0.2296 0.44719 0.0
H1467 H 0.13034 0.20519 0.45467 0.0
H1468 H 0.14873 0.21601 0.47759 0.0
H1469 H 0.06924 0.25635 0.46508 0.0
H1470 H 0.05866 0.25105 0.50103 0.0
H1471 H 0.06066 0.23228 0.47285 0.0
C1472 C 0.71198 0.09107 0.58155 0.0
C1473 C 0.72543 0.10448 0.59251 0.0
C1474 C 0.70658 0.09115 0.55127 0.0
C1475 C 0.71503 0.1048 0.53144 0.0
C1476 C 0.72827 0.11867 0.54252 0.0
C1477 C 0.73323 0.11842 0.57299 0.0
C1478 C 0.69223 0.07629 0.54035 0.0
C1479 C 0.73774 0.13332 0.52199 0.0
C1480 C 0.71917 0.09084 0.44955 0.0
C1481 C 0.70481 0.10226 0.43634 0.0
C1482 C 0.72252 0.09146 0.48047 0.0
C1483 C 0.7111 0.10366 0.49877 0.0
C1484 C 0.6963 0.11494 0.48574 0.0
C1485 C 0.69338 0.11419 0.4546 0.0
C1486 C 0.73853 0.07931 0.49349 0.0
C1487 C 0.6837 0.12793 0.50464 0.0
H1488 H 0.70576 0.08037 0.59659 0.0
H1489 H 0.74363 0.12882 0.58131 0.0
H1490 H 0.6806 0.08367 0.52778 0.0
H1491 H 0.69927 0.06595 0.5247 0.0
H1492 H 0.68583 0.06778 0.55902 0.0
H1493 H 0.74696 0.14377 0.53438 0.0
H1494 H 0.74664 0.12551 0.50525 0.0
H1495 H 0.72679 0.14171 0.50944 0.0
H1496 H 0.7281 0.08161 0.43563 0.0
H1497 H 0.68222 0.12301 0.44456 0.0
H1498 H 0.73286 0.06928 0.51089 0.0
H1499 H 0.74913 0.08899 0.50452 0.0
H1500 H 0.746 0.07048 0.4762 0.0
H1501 H 0.67689 0.11924 0.52273 0.0
H1502 H 0.67233 0.13515 0.49125 0.0
H1503 H 0.69247 0.13939 0.51559 0.0
C1504 C 0.89196 0.77234 0.41039 0.0
C1505 C 0.88528 0.75694 0.39249 0.0
C1506 C 0.889 0.77236 0.44146 0.0
C1507 C 0.87917 0.75656 0.45497 0.0
C1508 C 0.8724 0.74095 0.43707 0.0
C1509 C 0.87551 0.74134 0.40601 0.0
C1510 C 0.89639 0.78928 0.45985 0.0
C1511 C 0.86191 0.72384 0.45075 0.0
C1512 C 0.88735 0.7487 0.53813 0.0
C1513 C 0.87112 0.75758 0.55059 0.0
C1514 C 0.89 0.74798 0.507 0.0
C1515 C 0.8761 0.75636 0.4879 0.0
C1516 C 0.85953 0.76505 0.50028 0.0
C1517 C 0.85722 0.76553 0.5315 0.0
C1518 C 0.90781 0.73852 0.49458 0.0
C1519 C 0.84441 0.77415 0.48057 0.0
H1520 H 0.8995 0.78446 0.40013 0.0
H1521 H 0.87032 0.72937 0.39236 0.0
H1522 H 0.88442 0.79634 0.47204 0.0
H1523 H 0.90665 0.78389 0.47691 0.0
H1524 H 0.90363 0.8005 0.44587 0.0
H1525 H 0.85754 0.71288 0.4337 0.0
H1526 H 0.87113 0.71651 0.46757 0.0
H1527 H 0.84897 0.72906 0.46266 0.0
H1528 H 0.89813 0.74246 0.55272 0.0
H1529 H 0.84463 0.7724 0.54093 0.0
H1530 H 0.91635 0.74951 0.48213 0.0
H1531 H 0.90392 0.72683 0.47847 0.0
H1532 H 0.91691 0.73207 0.51242 0.0
H1533 H 0.85067 0.78642 0.4676 0.0
H1534 H 0.8321 0.77979 0.49368 0.0
H1535 H 0.83909 0.76326 0.46416 0.0
C1536 C 0.29677 0.86837 0.60174 0.0
C1537 C 0.28606 0.88454 0.61132 0.0
C1538 C 0.30276 0.86671 0.57181 0.0
C1539 C 0.29772 0.88146 0.55099 0.0
C1540 C 0.28715 0.89793 0.56065 0.0
C1541 C 0.28153 0.89932 0.59071 0.0
C1542 C 0.31419 0.84903 0.56235 0.0
C1543 C 0.28134 0.91389 0.53905 0.0
C1544 C 0.3225 0.8873 0.47579 0.0
C1545 C 0.30922 0.87859 0.45641 0.0
C1546 C 0.31936 0.88765 0.50688 0.0
C1547 C 0.30248 0.87925 0.51873 0.0
C1548 C 0.28937 0.86986 0.49938 0.0
C1549 C 0.29295 0.86956 0.46851 0.0
C1550 C 0.33376 0.89757 0.52693 0.0
C1551 C 0.27115 0.86084 0.51112 0.0
H1552 H 0.30046 0.85697 0.6176 0.0
H1553 H 0.27328 0.91188 0.59793 0.0
H1554 H 0.30586 0.84025 0.54605 0.0
H1555 H 0.32751 0.85369 0.55092 0.0
H1556 H 0.31802 0.83953 0.58164 0.0
H1557 H 0.27364 0.92603 0.55034 0.0
H1558 H 0.29412 0.91996 0.52768 0.0
H1559 H 0.27192 0.90772 0.52143 0.0
H1560 H 0.33515 0.89421 0.46663 0.0
H1561 H 0.28262 0.86274 0.45376 0.0
H1562 H 0.33771 0.88783 0.54582 0.0
H1563 H 0.32736 0.91098 0.53671 0.0
H1564 H 0.34694 0.90174 0.51463 0.0
H1565 H 0.27438 0.85026 0.52927 0.0
H1566 H 0.26297 0.85317 0.49332 0.0
H1567 H 0.26192 0.87241 0.52085 0.0
C1568 C 0.14009 0.73605 0.45713 0.0
C1569 C 0.12471 0.73619 0.43698 0.0
C1570 C 0.13699 0.73592 0.48821 0.0
C1571 C 0.11807 0.73583 0.49938 0.0
C1572 C 0.10249 0.73539 0.47918 0.0
C1573 C 0.106 0.73561 0.44823 0.0
C1574 C 0.15396 0.73641 0.50907 0.0
C1575 C 0.08211 0.73516 0.49026 0.0
C1576 C 0.10961 0.72144 0.5806 0.0
C1577 C 0.10763 0.73977 0.5944 0.0
C1578 C 0.11301 0.71991 0.54967 0.0
C1579 C 0.11453 0.73711 0.53218 0.0
C1580 C 0.11259 0.75564 0.54598 0.0
C1581 C 0.10913 0.75675 0.57689 0.0
C1582 C 0.11492 0.6999 0.5357 0.0
C1583 C 0.11419 0.77433 0.52808 0.0
H1584 H 0.15459 0.73648 0.44865 0.0
H1585 H 0.09402 0.73562 0.43283 0.0
H1586 H 0.15376 0.75016 0.52227 0.0
H1587 H 0.15318 0.72411 0.52524 0.0
H1588 H 0.16776 0.73551 0.49684 0.0
H1589 H 0.07164 0.73378 0.47167 0.0
H1590 H 0.07995 0.72284 0.50608 0.0
H1591 H 0.07904 0.74886 0.50268 0.0
H1592 H 0.10845 0.70825 0.59394 0.0
H1593 H 0.10766 0.77097 0.58735 0.0
H1594 H 0.12907 0.69847 0.5247 0.0
H1595 H 0.10392 0.69795 0.51807 0.0
H1596 H 0.11337 0.68795 0.55241 0.0
H1597 H 0.12831 0.77501 0.51682 0.0
H1598 H 0.11248 0.78757 0.54224 0.0
H1599 H 0.10313 0.7746 0.51028 0.0
C1600 C 0.25441 0.09021 0.44582 0.0
C1601 C 0.26408 0.0989 0.42174 0.0
C1602 C 0.26015 0.09359 0.47548 0.0
C1603 C 0.276 0.1059 0.48119 0.0
C1604 C 0.28588 0.11466 0.457 0.0
C1605 C 0.27977 0.11109 0.42755 0.0
C1606 C 0.24919 0.08406 0.50073 0.0
C1607 C 0.30287 0.12782 0.46225 0.0
C1608 C 0.27816 0.12813 0.55891 0.0
C1609 C 0.29057 0.11526 0.57378 0.0
C1610 C 0.27372 0.12558 0.52853 0.0
C1611 C 0.28195 0.10981 0.51258 0.0
C1612 C 0.29506 0.09721 0.52711 0.0
C1613 C 0.29921 0.10007 0.55757 0.0
C1614 C 0.25968 0.13933 0.51381 0.0
C1615 C 0.30422 0.08031 0.51073 0.0
H1616 H 0.24228 0.08078 0.44155 0.0
H1617 H 0.28737 0.11782 0.40905 0.0
H1618 H 0.25893 0.07484 0.51435 0.0
H1619 H 0.24324 0.09544 0.51579 0.0
H1620 H 0.23727 0.07479 0.49249 0.0
H1621 H 0.30917 0.13326 0.44098 0.0
H1622 H 0.29856 0.14056 0.47606 0.0
H1623 H 0.31405 0.11982 0.47491 0.0
H1624 H 0.27145 0.13995 0.57121 0.0
H1625 H 0.30885 0.09008 0.56885 0.0
H1626 H 0.24665 0.13115 0.50724 0.0
H1627 H 0.26592 0.14558 0.49306 0.0
H1628 H 0.25542 0.15153 0.52882 0.0
H1629 H 0.2931 0.06956 0.50423 0.0
H1630 H 0.31511 0.07272 0.5246 0.0
H1631 H 0.31109 0.08552 0.4898 0.0
C1632 C 0.8843 0.24751 0.45061 0.0
C1633 C 0.8659 0.24651 0.43825 0.0
C1634 C 0.88698 0.24965 0.48155 0.0
C1635 C 0.87087 0.25079 0.50062 0.0
C1636 C 0.85226 0.25042 0.48825 0.0
C1637 C 0.84999 0.2483 0.45716 0.0
C1638 C 0.90706 0.25006 0.49392 0.0
C1639 C 0.83475 0.25164 0.50793 0.0
C1640 C 0.87874 0.23358 0.58037 0.0
C1641 C 0.88127 0.2513 0.59568 0.0
C1642 C 0.87493 0.23326 0.54956 0.0
C1643 C 0.87359 0.25111 0.53363 0.0
C1644 C 0.8757 0.26908 0.549 0.0
C1645 C 0.87953 0.26896 0.57989 0.0
C1646 C 0.87276 0.21379 0.53393 0.0
C1647 C 0.87431 0.28838 0.53271 0.0
H1648 H 0.89668 0.24628 0.43615 0.0
H1649 H 0.83573 0.2476 0.44777 0.0
H1650 H 0.90911 0.26317 0.5082 0.0
H1651 H 0.90946 0.23703 0.50826 0.0
H1652 H 0.91803 0.25018 0.47594 0.0
H1653 H 0.82135 0.25255 0.49467 0.0
H1654 H 0.834 0.23853 0.52254 0.0
H1655 H 0.83564 0.2646 0.5228 0.0
H1656 H 0.87998 0.21986 0.59239 0.0
H1657 H 0.8814 0.28273 0.59157 0.0
H1658 H 0.88423 0.21202 0.51699 0.0
H1659 H 0.85892 0.21321 0.52186 0.0
H1660 H 0.87345 0.20128 0.54977 0.0
H1661 H 0.88598 0.28951 0.51597 0.0
H1662 H 0.87529 0.30106 0.54818 0.0
H1663 H 0.86061 0.28929 0.5203 0.0
C1664 C 0.72586 0.9018 0.55407 0.0
C1665 C 0.71219 0.88947 0.56717 0.0
C1666 C 0.72853 0.90222 0.52292 0.0
C1667 C 0.71731 0.88995 0.50443 0.0
C1668 C 0.70326 0.87772 0.51743 0.0
C1669 C 0.70083 0.87766 0.54866 0.0
C1670 C 0.74359 0.91554 0.50986 0.0
C1671 C 0.69106 0.86441 0.4984 0.0
C1672 C 0.71475 0.90191 0.42136 0.0
C1673 C 0.72847 0.88912 0.40946 0.0
C1674 C 0.71083 0.90224 0.45221 0.0
C1675 C 0.72082 0.88942 0.47158 0.0
C1676 C 0.73451 0.87632 0.45967 0.0
C1677 C 0.7382 0.87636 0.42878 0.0
C1678 C 0.69619 0.91646 0.46414 0.0
C1679 C 0.7454 0.86237 0.47961 0.0
H1680 H 0.73465 0.91104 0.56818 0.0
H1681 H 0.69024 0.86808 0.5586 0.0
H1682 H 0.75475 0.90669 0.49855 0.0
H1683 H 0.73717 0.92524 0.49267 0.0
H1684 H 0.75055 0.92476 0.5272 0.0
H1685 H 0.68028 0.85634 0.51185 0.0
H1686 H 0.68354 0.87301 0.48093 0.0
H1687 H 0.70026 0.85363 0.48669 0.0
H1688 H 0.70717 0.91184 0.40659 0.0
H1689 H 0.74878 0.86638 0.41979 0.0
H1690 H 0.70303 0.92664 0.48024 0.0
H1691 H 0.68487 0.90847 0.4765 0.0
H1692 H 0.68939 0.92519 0.44604 0.0
H1693 H 0.75389 0.87072 0.49624 0.0
H1694 H 0.75523 0.85278 0.46674 0.0
H1695 H 0.73529 0.85302 0.49232 0.0
C1696 C 0.59692 0.75059 0.0599 0.0
C1697 C 0.61405 0.7421 0.06978 0.0
C1698 C 0.59291 0.75243 0.0292 0.0
C1699 C 0.60636 0.74562 0.00794 0.0
C1700 C 0.62388 0.73752 0.01776 0.0
C1701 C 0.62751 0.73587 0.04856 0.0
C1702 C 0.5741 0.76119 0.01953 0.0
C1703 C 0.63859 0.73013 0.99575 0.0
C1704 C 0.58944 0.72987 0.93093 0.0
C1705 C 0.59499 0.74578 0.91309 0.0
C1706 C 0.59273 0.72981 0.96192 0.0
C1707 C 0.6018 0.74607 0.97543 0.0
C1708 C 0.6071 0.76235 0.9577 0.0
C1709 C 0.60363 0.76202 0.92671 0.0
C1710 C 0.58685 0.71218 0.98011 0.0
C1711 C 0.61676 0.77996 0.97136 0.0
H1712 H 0.58645 0.7555 0.07614 0.0
H1713 H 0.64081 0.72936 0.05597 0.0
H1714 H 0.57657 0.77338 0.00358 0.0
H1715 H 0.56549 0.75 0.00765 0.0
H1716 H 0.56565 0.76678 0.03879 0.0
H1717 H 0.65185 0.72505 0.007 0.0
H1718 H 0.63257 0.71779 0.98268 0.0
H1719 H 0.64238 0.74183 0.97957 0.0
H1720 H 0.58271 0.71728 0.92063 0.0
H1721 H 0.60794 0.7744 0.91312 0.0
H1722 H 0.57731 0.7167 0.99871 0.0
H1723 H 0.59965 0.7053 0.99031 0.0
H1724 H 0.57934 0.70103 0.96637 0.0
H1725 H 0.60798 0.78586 0.98998 0.0
H1726 H 0.61921 0.79179 0.95473 0.0
H1727 H 0.63074 0.77559 0.981 0.0
C1728 C 0.21266 0.60704 0.96532 0.0
C1729 C 0.1941 0.60627 0.95352 0.0
C1730 C 0.21584 0.60641 0.99632 0.0
C1731 C 0.20008 0.60502 0.01607 0.0
C1732 C 0.1813 0.6043 0.00438 0.0
C1733 C 0.17853 0.60492 0.97321 0.0
C1734 C 0.23609 0.60718 0.00794 0.0
C1735 C 0.16416 0.60283 0.02478 0.0
C1736 C 0.21068 0.58534 0.09384 0.0
C1737 C 0.21239 0.60262 0.11057 0.0
C1738 C 0.20624 0.58589 0.0632 0.0
C1739 C 0.20338 0.60415 0.04896 0.0
C1740 C 0.20457 0.62162 0.06587 0.0
C1741 C 0.20908 0.62065 0.09648 0.0
C1742 C 0.20511 0.56695 0.0459 0.0
C1743 C 0.20152 0.64137 0.05146 0.0
H1744 H 0.22479 0.60808 0.9503 0.0
H1745 H 0.16414 0.60434 0.96431 0.0
H1746 H 0.23786 0.61989 0.02311 0.0
H1747 H 0.23923 0.59383 0.02121 0.0
H1748 H 0.24677 0.60834 0.9896 0.0
H1749 H 0.15048 0.6026 0.01216 0.0
H1750 H 0.16511 0.58934 0.03851 0.0
H1751 H 0.16393 0.6154 0.0405 0.0
H1752 H 0.21317 0.57134 0.10455 0.0
H1753 H 0.21029 0.63407 0.10925 0.0
H1754 H 0.21647 0.56661 0.02856 0.0
H1755 H 0.1912 0.56588 0.03411 0.0
H1756 H 0.2068 0.55393 0.06057 0.0
H1757 H 0.21276 0.644 0.03439 0.0
H1758 H 0.20192 0.65348 0.06803 0.0
H1759 H 0.18756 0.64173 0.03972 0.0
C1760 C 0.39642 0.24324 0.06985 0.0
C1761 C 0.40509 0.25789 0.08714 0.0
C1762 C 0.39599 0.24454 0.03846 0.0
C1763 C 0.40444 0.26085 0.0241 0.0
C1764 C 0.4139 0.27525 0.04137 0.0
C1765 C 0.41412 0.27358 0.07267 0.0
C1766 C 0.38587 0.22885 0.02075 0.0
C1767 C 0.42314 0.29282 0.02685 0.0
C1768 C 0.41474 0.2597 0.94057 0.0
C1769 C 0.39921 0.27029 0.92903 0.0
C1770 C 0.4165 0.25623 0.97145 0.0
C1771 C 0.40241 0.26355 0.99122 0.0
C1772 C 0.38659 0.27403 0.97969 0.0
C1773 C 0.38518 0.27727 0.94874 0.0
C1774 C 0.43354 0.24495 0.98296 0.0
C1775 C 0.37128 0.28208 0.00012 0.0
H1776 H 0.38944 0.23105 0.08085 0.0
H1777 H 0.42094 0.28491 0.08585 0.0
H1778 H 0.37301 0.23513 0.00987 0.0
H1779 H 0.39528 0.22325 0.00268 0.0
H1780 H 0.38136 0.21637 0.03505 0.0
H1781 H 0.43097 0.30203 0.04327 0.0
H1782 H 0.43326 0.28809 0.00916 0.0
H1783 H 0.41205 0.30195 0.0159 0.0
H1784 H 0.42562 0.2542 0.9255 0.0
H1785 H 0.37312 0.28542 0.94003 0.0
H1786 H 0.42871 0.23219 0.99631 0.0
H1787 H 0.44213 0.25437 0.99805 0.0
H1788 H 0.44288 0.23966 0.96454 0.0
H1789 H 0.36496 0.27011 0.01366 0.0
H1790 H 0.35966 0.28949 0.98753 0.0
H1791 H 0.37765 0.29273 0.01598 0.0
C1792 C 0.76294 0.41644 0.08116 0.0
C1793 C 0.7738 0.4065 0.10274 0.0
C1794 C 0.76738 0.41507 0.0506 0.0
C1795 C 0.78306 0.40347 0.04138 0.0
C1796 C 0.79431 0.39369 0.06306 0.0
C1797 C 0.78955 0.39533 0.09352 0.0
C1798 C 0.75507 0.42575 0.02811 0.0
C1799 C 0.81115 0.38121 0.05404 0.0
C1800 C 0.78136 0.38446 0.96162 0.0
C1801 C 0.79324 0.39778 0.94663 0.0
C1802 C 0.77826 0.38591 0.99258 0.0
C1803 C 0.78722 0.40107 0.00894 0.0
C1804 C 0.79954 0.41432 0.9941 0.0
C1805 C 0.80242 0.41251 0.9631 0.0
C1806 C 0.76506 0.37147 0.00766 0.0
C1807 C 0.80933 0.43068 0.01085 0.0
H1808 H 0.75078 0.42515 0.08808 0.0
H1809 H 0.79804 0.38762 0.11006 0.0
H1810 H 0.76403 0.43547 0.014 0.0
H1811 H 0.74809 0.41507 0.01295 0.0
H1812 H 0.74381 0.43472 0.03902 0.0
H1813 H 0.81891 0.3752 0.07372 0.0
H1814 H 0.8062 0.36884 0.03997 0.0
H1815 H 0.82129 0.38989 0.04034 0.0
H1816 H 0.77426 0.37299 0.9491 0.0
H1817 H 0.81162 0.42286 0.9517 0.0
H1818 H 0.75255 0.37928 0.01715 0.0
H1819 H 0.77251 0.36418 0.02655 0.0
H1820 H 0.75982 0.36007 0.99196 0.0
H1821 H 0.79847 0.44077 0.02027 0.0
H1822 H 0.81913 0.43921 0.99628 0.0
H1823 H 0.81761 0.42468 0.02995 0.0
C1824 C 0.60051 0.2244 0.04817 0.0
C1825 C 0.60179 0.24254 0.06273 0.0
C1826 C 0.60373 0.2228 0.01721 0.0
C1827 C 0.60826 0.23975 0.00044 0.0
C1828 C 0.60945 0.25811 0.01496 0.0
C1829 C 0.60623 0.25928 0.04592 0.0
C1830 C 0.60237 0.20298 0.00247 0.0
C1831 C 0.61418 0.27652 0.99779 0.0
C1832 C 0.63414 0.23563 0.92597 0.0
C1833 C 0.61921 0.23855 0.90549 0.0
C1834 C 0.63069 0.23549 0.95694 0.0
C1835 C 0.61188 0.23837 0.96769 0.0
C1836 C 0.59667 0.24081 0.94714 0.0
C1837 C 0.60051 0.24084 0.91628 0.0
C1838 C 0.64727 0.23274 0.97819 0.0
C1839 C 0.57641 0.24392 0.95776 0.0
H1840 H 0.59711 0.21139 0.06099 0.0
H1841 H 0.60722 0.27336 0.05696 0.0
H1842 H 0.59145 0.20329 0.98447 0.0
H1843 H 0.61621 0.19922 0.9918 0.0
H1844 H 0.59859 0.19124 0.01865 0.0
H1845 H 0.61437 0.28968 0.01238 0.0
H1846 H 0.62837 0.27503 0.98697 0.0
H1847 H 0.60355 0.27885 0.9797 0.0
H1848 H 0.64861 0.23377 0.91784 0.0
H1849 H 0.58887 0.24306 0.90062 0.0
H1850 H 0.64429 0.22052 0.99387 0.0
H1851 H 0.64919 0.24613 0.9919 0.0
H1852 H 0.66085 0.22965 0.96623 0.0
H1853 H 0.57209 0.23191 0.97305 0.0
H1854 H 0.56608 0.24463 0.9389 0.0
H1855 H 0.5755 0.25776 0.97064 0.0
C1856 C 0.76488 0.59543 0.04891 0.0
C1857 C 0.77695 0.6072 0.06632 0.0
C1858 C 0.76336 0.59825 0.01787 0.0
C1859 C 0.77421 0.61316 0.0039 0.0
C1860 C 0.78662 0.62491 0.02124 0.0
C1861 C 0.78782 0.62181 0.05227 0.0
C1862 C 0.74995 0.58543 7e-05 0.0
C1863 C 0.79847 0.64088 0.00707 0.0
C1864 C 0.78108 0.60831 0.91992 0.0
C1865 C 0.76672 0.62069 0.90886 0.0
C1866 C 0.78403 0.60613 0.95082 0.0
C1867 C 0.77232 0.61655 0.97114 0.0
C1868 C 0.75822 0.62954 0.96015 0.0
C1869 C 0.75561 0.63149 0.92912 0.0
C1870 C 0.7993 0.59224 0.96172 0.0
C1871 C 0.74548 0.64091 0.98117 0.0
H1872 H 0.75643 0.58412 0.05956 0.0
H1873 H 0.79721 0.63096 0.06555 0.0
H1874 H 0.7389 0.59457 0.98905 0.0
H1875 H 0.75793 0.57775 0.9821 0.0
H1876 H 0.7427 0.57433 0.01427 0.0
H1877 H 0.80777 0.64843 0.02359 0.0
H1878 H 0.8076 0.63468 0.98911 0.0
H1879 H 0.78898 0.65188 0.99646 0.0
H1880 H 0.78978 0.59996 0.90443 0.0
H1881 H 0.7445 0.6411 0.92078 0.0
H1882 H 0.79259 0.57992 0.97403 0.0
H1883 H 0.809 0.59979 0.9776 0.0
H1884 H 0.80795 0.58615 0.94304 0.0
H1885 H 0.73658 0.63063 0.99443 0.0
H1886 H 0.73587 0.65115 0.96906 0.0
H1887 H 0.75424 0.64941 0.99727 0.0
C1888 C 0.35708 0.75498 0.93676 0.0
C1889 C 0.37175 0.74988 0.91682 0.0
C1890 C 0.36041 0.75595 0.96772 0.0
C1891 C 0.37884 0.75167 0.97899 0.0
C1892 C 0.39383 0.747 0.95894 0.0
C1893 C 0.39011 0.7462 0.92808 0.0
C1894 C 0.3441 0.76107 0.98843 0.0
C1895 C 0.41367 0.74234 0.97014 0.0
C1896 C 0.3918 0.76707 0.05821 0.0
C1897 C 0.38908 0.74958 0.07411 0.0
C1898 C 0.38841 0.76803 0.02724 0.0
C1899 C 0.38222 0.75108 0.01184 0.0
C1900 C 0.3794 0.73342 0.02777 0.0
C1901 C 0.38283 0.73288 0.0587 0.0
C1902 C 0.3915 0.78713 0.01097 0.0
C1903 C 0.37285 0.71502 0.01209 0.0
H1904 H 0.34287 0.75794 0.92824 0.0
H1905 H 0.40154 0.7423 0.91284 0.0
H1906 H 0.34086 0.74843 0.00318 0.0
H1907 H 0.34817 0.77346 0.00314 0.0
H1908 H 0.33092 0.76509 0.97601 0.0
H1909 H 0.42395 0.73993 0.95154 0.0
H1910 H 0.41904 0.75443 0.98441 0.0
H1911 H 0.41325 0.72898 0.98424 0.0
H1912 H 0.39659 0.78004 0.06996 0.0
H1913 H 0.3807 0.7193 0.07078 0.0
H1914 H 0.37813 0.79169 -0.0004 0.0
H1915 H 0.40253 0.78526 0.99335 0.0
H1916 H 0.3961 0.79904 0.02628 0.0
H1917 H 0.35894 0.71763 0.00087 0.0
H1918 H 0.37125 0.7025 0.02776 0.0
H1919 H 0.38327 0.71092 0.99443 0.0
C1920 C 0.23775 0.41318 0.90024 0.0
C1921 C 0.22638 0.40425 0.87829 0.0
C1922 C 0.2333 0.41142 0.93077 0.0
C1923 C 0.21705 0.40052 0.93956 0.0
C1924 C 0.20533 0.39173 0.91751 0.0
C1925 C 0.21015 0.39367 0.88713 0.0
C1926 C 0.24617 0.42097 0.95364 0.0
C1927 C 0.18786 0.38004 0.92606 0.0
C1928 C 0.21741 0.37983 0.01843 0.0
C1929 C 0.20626 0.39352 0.034 0.0
C1930 C 0.22076 0.38177 0.9876 0.0
C1931 C 0.21274 0.39778 0.9719 0.0
C1932 C 0.20114 0.41143 0.98731 0.0
C1933 C 0.19805 0.40915 0.01821 0.0
C1934 C 0.23323 0.36691 0.97193 0.0
C1935 C 0.1923 0.42864 0.97127 0.0
H1936 H 0.25029 0.4214 0.89362 0.0
H1937 H 0.20126 0.38677 0.8703 0.0
H1938 H 0.23776 0.43099 0.96807 0.0
H1939 H 0.25248 0.40964 0.96845 0.0
H1940 H 0.25795 0.42939 0.94308 0.0
H1941 H 0.17985 0.37475 0.90616 0.0
H1942 H 0.19214 0.36722 0.93975 0.0
H1943 H 0.17815 0.38907 0.94 0.0
H1944 H 0.2238 0.36769 0.03041 0.0
H1945 H 0.18939 0.41978 0.03005 0.0
H1946 H 0.2461 0.37421 0.96271 0.0
H1947 H 0.22542 0.36036 0.95279 0.0
H1948 H 0.23789 0.35498 0.98717 0.0
H1949 H 0.20371 0.43824 0.96223 0.0
H1950 H 0.183 0.43748 0.98621 0.0
H1951 H 0.1837 0.4235 0.95195 0.0
C1952 C 0.16663 0.33218 0.16945 0.0
C1953 C 0.16093 0.35161 0.16468 0.0
C1954 C 0.1553 0.31927 0.18607 0.0
C1955 C 0.13771 0.32585 0.19798 0.0
C1956 C 0.13146 0.34518 0.19225 0.0
C1957 C 0.14322 0.3579 0.17576 0.0
C1958 C 0.16253 0.29877 0.19182 0.0
C1959 C 0.11265 0.35258 0.20426 0.0
C1960 C 0.10531 0.28476 0.22373 0.0
C1961 C 0.10966 0.28385 0.25438 0.0
C1962 C 0.11351 0.29911 0.20529 0.0
C1963 C 0.12654 0.31266 0.21777 0.0
C1964 C 0.13039 0.31229 0.24891 0.0
C1965 C 0.12179 0.29796 0.26688 0.0
C1966 C 0.10884 0.29926 0.17226 0.0
C1967 C 0.14435 0.32639 0.26301 0.0
H1968 H 0.18027 0.32714 0.16093 0.0
H1969 H 0.13868 0.37286 0.17204 0.0
H1970 H 0.16472 0.29658 0.21622 0.0
H1971 H 0.1518 0.28788 0.18435 0.0
H1972 H 0.17622 0.29575 0.18011 0.0
H1973 H 0.10906 0.36736 0.19556 0.0
H1974 H 0.10096 0.34235 0.19826 0.0
H1975 H 0.11324 0.35329 0.22908 0.0
H1976 H 0.09577 0.27402 0.21399 0.0
H1977 H 0.12518 0.29739 0.29057 0.0
H1978 H 0.12153 0.29451 0.15927 0.0
H1979 H 0.1052 0.31428 0.16479 0.0
H1980 H 0.09675 0.28937 0.16677 0.0
H1981 H 0.15892 0.32347 0.25428 0.0
H1982 H 0.14468 0.32512 0.28782 0.0
H1983 H 0.14065 0.34166 0.25696 0.0
C1984 C 0.59021 0.19677 0.21782 0.0
C1985 C 0.60246 0.2087 0.20094 0.0
C1986 C 0.59747 0.1816 0.23571 0.0
C1987 C 0.61741 0.1782 0.23641 0.0
C1988 C 0.62977 0.18987 0.21876 0.0
C1989 C 0.62215 0.20504 0.20138 0.0
C1990 C 0.5839 0.16955 0.25443 0.0
C1991 C 0.65111 0.18654 0.21864 0.0
C1992 C 0.64237 0.15443 0.30224 0.0
C1993 C 0.6463 0.13574 0.29091 0.0
C1994 C 0.63201 0.16808 0.28534 0.0
C1995 C 0.62561 0.16295 0.2563 0.0
C1996 C 0.62868 0.14379 0.24536 0.0
C1997 C 0.63891 0.13035 0.26289 0.0
C1998 C 0.62876 0.1883 0.29795 0.0
C1999 C 0.62213 0.13782 0.21445 0.0
H2000 H 0.57497 0.19958 0.21764 0.0
H2001 H 0.63168 0.21412 0.18822 0.0
H2002 H 0.58588 0.15376 0.24963 0.0
H2003 H 0.58707 0.17176 0.27856 0.0
H2004 H 0.56873 0.17345 0.25032 0.0
H2005 H 0.65863 0.19633 0.20264 0.0
H2006 H 0.65697 0.18912 0.2414 0.0
H2007 H 0.65432 0.17115 0.21261 0.0
H2008 H 0.64787 0.15863 0.32402 0.0
H2009 H 0.64187 0.11592 0.25399 0.0
H2010 H 0.61354 0.19255 0.29562 0.0
H2011 H 0.63735 0.19908 0.28515 0.0
H2012 H 0.63283 0.1893 0.32196 0.0
H2013 H 0.60692 0.14176 0.21105 0.0
H2014 H 0.62387 0.12188 0.21049 0.0
H2015 H 0.63058 0.14583 0.19735 0.0
C2016 C 0.84269 0.6511 0.19084 0.0
C2017 C 0.83419 0.6379 0.21088 0.0
C2018 C 0.8558 0.66512 0.20085 0.0
C2019 C 0.86042 0.66603 0.23167 0.0
C2020 C 0.85275 0.65204 0.25174 0.0
C2021 C 0.83975 0.63807 0.24107 0.0
C2022 C 0.86383 0.67968 0.17872 0.0
C2023 C 0.85735 0.65257 0.28478 0.0
C2024 C 0.90147 0.69857 0.25655 0.0
C2025 C 0.89171 0.71566 0.2648 0.0
C2026 C 0.89151 0.68219 0.24578 0.0
C2027 C 0.87137 0.68296 0.24336 0.0
C2028 C 0.86147 0.70016 0.25172 0.0
C2029 C 0.87175 0.71629 0.26226 0.0
C2030 C 0.9025 0.66409 0.23692 0.0
C2031 C 0.83996 0.70154 0.24952 0.0
H2032 H 0.83864 0.6509 0.16739 0.0
H2033 H 0.83331 0.62785 0.25666 0.0
H2034 H 0.85759 0.69433 0.18308 0.0
H2035 H 0.87953 0.68097 0.1814 0.0
H2036 H 0.86064 0.67557 0.15516 0.0
H2037 H 0.85205 0.63938 0.29672 0.0
H2038 H 0.87298 0.65377 0.28831 0.0
H2039 H 0.85065 0.66567 0.29504 0.0
H2040 H 0.91689 0.69798 0.25849 0.0
H2041 H 0.86406 0.7294 0.26868 0.0
H2042 H 0.89983 0.66065 0.21299 0.0
H2043 H 0.89749 0.65137 0.25022 0.0
H2044 H 0.91813 0.6658 0.24033 0.0
H2045 H 0.83539 0.69935 0.22596 0.0
H2046 H 0.83444 0.71589 0.25735 0.0
H2047 H 0.83324 0.68983 0.26313 0.0
C2048 C 0.36691 0.78475 0.21716 0.0
C2049 C 0.38646 0.78531 0.2104 0.0
C2050 C 0.35826 0.79966 0.23381 0.0
C2051 C 0.36943 0.81556 0.24401 0.0
C2052 C 0.38912 0.81641 0.23696 0.0
C2053 C 0.39743 0.80125 0.22018 0.0
C2054 C 0.33719 0.79824 0.24082 0.0
C2055 C 0.40143 0.83318 0.24747 0.0
C2056 C 0.3398 0.85951 0.26639 0.0
C2057 C 0.33744 0.85625 0.29721 0.0
C2058 C 0.35116 0.84702 0.24896 0.0
C2059 C 0.36036 0.83092 0.26272 0.0
C2060 C 0.35902 0.82829 0.29411 0.0
C2061 C 0.34757 0.841 0.31099 0.0
C2062 C 0.35236 0.85036 0.21556 0.0
C2063 C 0.36871 0.81135 0.30962 0.0
H2064 H 0.35829 0.77253 0.2096 0.0
H2065 H 0.41255 0.80179 0.21503 0.0
H2066 H 0.33504 0.79764 0.26544 0.0
H2067 H 0.32965 0.81144 0.23246 0.0
H2068 H 0.33046 0.78511 0.23065 0.0
H2069 H 0.41634 0.83206 0.2391 0.0
H2070 H 0.39529 0.84729 0.23985 0.0
H2071 H 0.40174 0.83352 0.27232 0.0
H2072 H 0.33215 0.87137 0.2556 0.0
H2073 H 0.34599 0.83849 0.33484 0.0
H2074 H 0.3442 0.83878 0.20376 0.0
H2075 H 0.36738 0.84941 0.20781 0.0
H2076 H 0.34645 0.8648 0.20893 0.0
H2077 H 0.36168 0.79748 0.30296 0.0
H2078 H 0.36806 0.81262 0.33442 0.0
H2079 H 0.3839 0.81035 0.30272 0.0
C2080 C 0.15523 0.65585 0.82788 0.0
C2081 C 0.15245 0.63612 0.82044 0.0
C2082 C 0.14443 0.67064 0.81427 0.0
C2083 C 0.13043 0.66558 0.79277 0.0
C2084 C 0.12682 0.64565 0.78632 0.0
C2085 C 0.1379 0.63113 0.80024 0.0
C2086 C 0.14869 0.69173 0.82181 0.0
C2087 C 0.11188 0.63972 0.7637 0.0
C2088 C 0.09617 0.70614 0.77046 0.0
C2089 C 0.10499 0.71346 0.74454 0.0
C2090 C 0.10391 0.69009 0.78592 0.0
C2091 C 0.12089 0.68127 0.77526 0.0
C2092 C 0.12956 0.68828 0.74869 0.0
C2093 C 0.12148 0.70425 0.73363 0.0
C2094 C 0.09422 0.68291 0.81408 0.0
C2095 C 0.14772 0.6793 0.73664 0.0
H2096 H 0.16632 0.65986 0.84367 0.0
H2097 H 0.13559 0.61591 0.79447 0.0
H2098 H 0.15481 0.69916 0.80189 0.0
H2099 H 0.13536 0.69956 0.82784 0.0
H2100 H 0.15897 0.69313 0.84066 0.0
H2101 H 0.10932 0.62369 0.76372 0.0
H2102 H 0.09818 0.64732 0.76829 0.0
H2103 H 0.11658 0.64414 0.74094 0.0
H2104 H 0.08335 0.71309 0.77893 0.0
H2105 H 0.12835 0.70975 0.71355 0.0
H2106 H 0.1036 0.68558 0.83368 0.0
H2107 H 0.09176 0.6669 0.81277 0.0
H2108 H 0.08031 0.6903 0.81804 0.0
H2109 H 0.15946 0.68134 0.75304 0.0
H2110 H 0.15214 0.68586 0.71494 0.0
H2111 H 0.14582 0.66333 0.73345 0.0
C2112 C 0.33928 0.14582 0.74475 0.0
C2113 C 0.3283 0.15209 0.72028 0.0
C2114 C 0.3503 0.15914 0.76133 0.0
C2115 C 0.35017 0.17917 0.75331 0.0
C2116 C 0.33977 0.18543 0.72787 0.0
C2117 C 0.32903 0.1718 0.7116 0.0
C2118 C 0.36143 0.15192 0.78811 0.0
C2119 C 0.33927 0.20668 0.71861 0.0
C2120 C 0.3576 0.21826 0.81225 0.0
C2121 C 0.37608 0.22482 0.80558 0.0
C2122 C 0.34925 0.20295 0.79601 0.0
C2123 C 0.35968 0.19392 0.77262 0.0
C2124 C 0.3786 0.19998 0.76646 0.0
C2125 C 0.38657 0.21541 0.78298 0.0
C2126 C 0.32901 0.19691 0.80321 0.0
C2127 C 0.39019 0.19058 0.74183 0.0
H2128 H 0.3389 0.13059 0.75149 0.0
H2129 H 0.32068 0.17679 0.69263 0.0
H2130 H 0.37636 0.15732 0.78718 0.0
H2131 H 0.35494 0.15776 0.80895 0.0
H2132 H 0.36164 0.1357 0.78952 0.0
H2133 H 0.33144 0.20895 0.69723 0.0
H2134 H 0.3322 0.21546 0.73634 0.0
H2135 H 0.35399 0.21241 0.716 0.0
H2136 H 0.34943 0.22539 0.82975 0.0
H2137 H 0.40092 0.22032 0.7778 0.0
H2138 H 0.32833 0.18093 0.80741 0.0
H2139 H 0.31962 0.20007 0.78376 0.0
H2140 H 0.32324 0.20466 0.82312 0.0
H2141 H 0.39012 0.17444 0.74434 0.0
H2142 H 0.40523 0.19575 0.74168 0.0
H2143 H 0.38368 0.194 0.71977 0.0
C2144 C 0.89597 0.30455 0.7378 0.0
C2145 C 0.88563 0.28782 0.72954 0.0
C2146 C 0.8869 0.32032 0.75209 0.0
C2147 C 0.86708 0.31928 0.75808 0.0
C2148 C 0.85662 0.3024 0.7499 0.0
C2149 C 0.86603 0.28688 0.7358 0.0
C2150 C 0.89846 0.33809 0.76067 0.0
C2151 C 0.83543 0.30076 0.75586 0.0
C2152 C 0.84157 0.34906 0.81709 0.0
C2153 C 0.83155 0.36253 0.79932 0.0
C2154 C 0.85429 0.33568 0.80414 0.0
C2155 C 0.85696 0.33576 0.77272 0.0
C2156 C 0.84788 0.35017 0.75494 0.0
C2157 C 0.8353 0.36343 0.76849 0.0
C2158 C 0.86386 0.32063 0.82386 0.0
C2159 C 0.85043 0.35073 0.72134 0.0
H2160 H 0.91113 0.30535 0.73306 0.0
H2161 H 0.85792 0.27403 0.72949 0.0
H2162 H 0.89276 0.35121 0.7491 0.0
H2163 H 0.89722 0.34078 0.78511 0.0
H2164 H 0.91381 0.33646 0.75488 0.0
H2165 H 0.82942 0.2866 0.74811 0.0
H2166 H 0.83258 0.30224 0.78021 0.0
H2167 H 0.82772 0.31278 0.74434 0.0
H2168 H 0.83891 0.34842 0.841 0.0
H2169 H 0.82774 0.37391 0.75464 0.0
H2170 H 0.87926 0.31942 0.81831 0.0
H2171 H 0.8573 0.3061 0.81985 0.0
H2172 H 0.8624 0.32419 0.84804 0.0
H2173 H 0.86577 0.34977 0.71534 0.0
H2174 H 0.84437 0.36425 0.7113 0.0
H2175 H 0.84315 0.33794 0.71117 0.0
C2176 C 0.64301 0.83943 0.69234 0.0
C2177 C 0.65144 0.85407 0.70993 0.0
C2178 C 0.62975 0.82635 0.7047 0.0
C2179 C 0.6249 0.82791 0.7354 0.0
C2180 C 0.63253 0.84333 0.75282 0.0
C2181 C 0.64569 0.85627 0.73984 0.0
C2182 C 0.6218 0.81018 0.68535 0.0
C2183 C 0.62771 0.84546 0.78564 0.0
C2184 C 0.58376 0.79774 0.76646 0.0
C2185 C 0.59353 0.78153 0.77817 0.0
C2186 C 0.59374 0.81304 0.75237 0.0
C2187 C 0.61389 0.81205 0.75012 0.0
C2188 C 0.62378 0.79575 0.76197 0.0
C2189 C 0.61349 0.78071 0.77579 0.0
C2190 C 0.58277 0.83021 0.73988 0.0
C2191 C 0.64528 0.79416 0.76008 0.0
H2192 H 0.64723 0.83776 0.66911 0.0
H2193 H 0.65203 0.86763 0.75354 0.0
H2194 H 0.62801 0.79598 0.69244 0.0
H2195 H 0.60609 0.8091 0.68813 0.0
H2196 H 0.62507 0.81243 0.66124 0.0
H2197 H 0.633 0.85947 0.7951 0.0
H2198 H 0.61204 0.84463 0.78911 0.0
H2199 H 0.63425 0.83324 0.7984 0.0
H2200 H 0.56834 0.79846 0.7682 0.0
H2201 H 0.62119 0.76827 0.78482 0.0
H2202 H 0.58555 0.83162 0.7155 0.0
H2203 H 0.58769 0.84394 0.75059 0.0
H2204 H 0.56713 0.82876 0.74344 0.0
H2205 H 0.64989 0.79444 0.7363 0.0
H2206 H 0.65078 0.78054 0.77058 0.0
H2207 H 0.65201 0.80686 0.77138 0.0
C2208 C 0.84032 0.69003 0.65492 0.0
C2209 C 0.85392 0.70223 0.66843 0.0
C2210 C 0.83163 0.67485 0.67108 0.0
C2211 C 0.83662 0.67187 0.70147 0.0
C2212 C 0.85092 0.68359 0.71485 0.0
C2213 C 0.85943 0.69862 0.69815 0.0
C2214 C 0.81651 0.66256 0.656 0.0
C2215 C 0.85662 0.68083 0.74722 0.0
C2216 C 0.79892 0.65036 0.75269 0.0
C2217 C 0.805 0.6309 0.75543 0.0
C2218 C 0.80909 0.66378 0.73514 0.0
C2219 C 0.82577 0.65761 0.71994 0.0
C2220 C 0.83201 0.638 0.72251 0.0
C2221 C 0.82153 0.62484 0.74023 0.0
C2222 C 0.80197 0.6846 0.73291 0.0
C2223 C 0.84976 0.63094 0.70662 0.0
H2224 H 0.83608 0.69263 0.63191 0.0
H2225 H 0.86998 0.70794 0.70874 0.0
H2226 H 0.81959 0.64678 0.65923 0.0
H2227 H 0.80241 0.66555 0.66638 0.0
H2228 H 0.81549 0.66559 0.63159 0.0
H2229 H 0.86907 0.69002 0.75351 0.0
H2230 H 0.84445 0.68471 0.76198 0.0
H2231 H 0.8602 0.66528 0.75161 0.0
H2232 H 0.78616 0.65518 0.7643 0.0
H2233 H 0.82633 0.60983 0.74225 0.0
H2234 H 0.79907 0.68836 0.70915 0.0
H2235 H 0.8131 0.69483 0.7411 0.0
H2236 H 0.78871 0.68702 0.74608 0.0
H2237 H 0.84829 0.63326 0.68212 0.0
H2238 H 0.85263 0.61519 0.71079 0.0
H2239 H 0.86231 0.63954 0.71413 0.0
C2240 C 0.36182 0.81544 0.81484 0.0
C2241 C 0.35893 0.79703 0.80173 0.0
C2242 C 0.35296 0.83221 0.80316 0.0
C2243 C 0.34104 0.8305 0.7777 0.0
C2244 C 0.33827 0.812 0.76414 0.0
C2245 C 0.34721 0.79548 0.77638 0.0
C2246 C 0.35613 0.8517 0.81826 0.0
C2247 C 0.32574 0.80962 0.73683 0.0
C2248 C 0.30211 0.86732 0.76058 0.0
C2249 C 0.31025 0.87788 0.73684 0.0
C2250 C 0.31233 0.85241 0.77503 0.0
C2251 C 0.33107 0.8479 0.76539 0.0
C2252 C 0.33969 0.85911 0.7424 0.0
C2253 C 0.32919 0.87403 0.72845 0.0
C2254 C 0.30273 0.8409 0.79969 0.0
C2255 C 0.35966 0.85471 0.73151 0.0
H2256 H 0.37083 0.81675 0.83448 0.0
H2257 H 0.34496 0.78133 0.76605 0.0
H2258 H 0.36191 0.86241 0.80194 0.0
H2259 H 0.34232 0.85758 0.82646 0.0
H2260 H 0.36615 0.85062 0.83749 0.0
H2261 H 0.32546 0.7943 0.72855 0.0
H2262 H 0.31091 0.81415 0.74218 0.0
H2263 H 0.33089 0.81924 0.71849 0.0
H2264 H 0.28753 0.87031 0.76735 0.0
H2265 H 0.33559 0.88214 0.71016 0.0
H2266 H 0.31209 0.84015 0.81971 0.0
H2267 H 0.30023 0.82568 0.79205 0.0
H2268 H 0.2888 0.84736 0.80636 0.0
H2269 H 0.36973 0.854 0.75066 0.0
H2270 H 0.3649 0.86583 0.71532 0.0
H2271 H 0.35987 0.8402 0.7204 0.0
C2272 C 0.13254 0.30218 0.66985 0.0
C2273 C 0.1433 0.28698 0.65717 0.0
C2274 C 0.14142 0.31719 0.68614 0.0
C2275 C 0.16148 0.31684 0.6901 0.0
C2276 C 0.17246 0.30189 0.67651 0.0
C2277 C 0.16324 0.2872 0.66006 0.0
C2278 C 0.12928 0.33305 0.69999 0.0
C2279 C 0.19387 0.30093 0.68041 0.0
C2280 C 0.18876 0.36136 0.7176 0.0
C2281 C 0.19105 0.35695 0.7481 0.0
C2282 C 0.17867 0.34871 0.69853 0.0
C2283 C 0.17089 0.33119 0.71022 0.0
C2284 C 0.17285 0.32687 0.74109 0.0
C2285 C 0.18281 0.33985 0.75967 0.0
C2286 C 0.17665 0.3539 0.66579 0.0
C2287 C 0.16488 0.30825 0.75435 0.0
H2288 H 0.11713 0.30216 0.66755 0.0
H2289 H 0.17167 0.27551 0.65035 0.0
H2290 H 0.12963 0.3317 0.72476 0.0
H2291 H 0.13507 0.34768 0.69424 0.0
H2292 H 0.11417 0.33227 0.6925 0.0
H2293 H 0.20043 0.289 0.667 0.0
H2294 H 0.2005 0.315 0.67376 0.0
H2295 H 0.19735 0.29846 0.70438 0.0
H2296 H 0.19499 0.37461 0.70854 0.0
H2297 H 0.18452 0.33633 0.7832 0.0
H2298 H 0.1614 0.3534 0.65907 0.0
H2299 H 0.18436 0.343 0.65191 0.0
H2300 H 0.18241 0.36866 0.66064 0.0
H2301 H 0.14934 0.30721 0.74979 0.0
H2302 H 0.16716 0.30734 0.77895 0.0
H2303 H 0.17178 0.29541 0.74367 0.0
C2304 C 0.66891 0.11522 0.71386 0.0
C2305 C 0.68832 0.11381 0.72132 0.0
C2306 C 0.65704 0.12898 0.72794 0.0
C2307 C 0.66481 0.14155 0.74998 0.0
C2308 C 0.68418 0.13962 0.7585 0.0
C2309 C 0.69571 0.12577 0.74406 0.0
C2310 C 0.63642 0.13061 0.71837 0.0
C2311 C 0.69296 0.15271 0.78203 0.0
C2312 C 0.64357 0.1919 0.76168 0.0
C2313 C 0.6335 0.18945 0.78858 0.0
C2314 C 0.65339 0.17627 0.7485 0.0
C2315 C 0.65316 0.15772 0.76258 0.0
C2316 C 0.64264 0.15499 0.78933 0.0
C2317 C 0.6329 0.17091 0.80202 0.0
C2318 C 0.66442 0.17973 0.71988 0.0
C2319 C 0.64208 0.13539 0.80492 0.0
H2320 H 0.66308 0.10598 0.6964 0.0
H2321 H 0.71066 0.12467 0.75012 0.0
H2322 H 0.62689 0.13032 0.73822 0.0
H2323 H 0.63411 0.1448 0.70686 0.0
H2324 H 0.63217 0.11865 0.70292 0.0
H2325 H 0.70784 0.14839 0.78759 0.0
H2326 H 0.69307 0.16804 0.77389 0.0
H2327 H 0.68429 0.15236 0.80283 0.0
H2328 H 0.64404 0.20616 0.75106 0.0
H2329 H 0.62512 0.16888 0.82279 0.0
H2330 H 0.65989 0.16915 0.70244 0.0
H2331 H 0.67988 0.17734 0.72393 0.0
H2332 H 0.66241 0.19478 0.71104 0.0
H2333 H 0.63748 0.12383 0.78907 0.0
H2334 H 0.63227 0.13537 0.82449 0.0
H2335 H 0.65662 0.13147 0.81279 0.0
C2336 C 0.80627 0.3566 0.26025 0.0
C2337 C 0.81418 0.36539 0.2347 0.0
C2338 C 0.81638 0.34235 0.27633 0.0
C2339 C 0.83478 0.33669 0.26652 0.0
C2340 C 0.84308 0.34588 0.24126 0.0
C2341 C 0.83269 0.36019 0.22567 0.0
C2342 C 0.80711 0.33296 0.30331 0.0
C2343 C 0.86266 0.34015 0.23011 0.0
C2344 C 0.86564 0.30821 0.32126 0.0
C2345 C 0.86203 0.28888 0.31241 0.0
C2346 C 0.85711 0.324 0.30622 0.0
C2347 C 0.84481 0.32032 0.28171 0.0
C2348 C 0.84146 0.30087 0.27227 0.0
C2349 C 0.85007 0.28539 0.28778 0.0
C2350 C 0.86093 0.34457 0.31695 0.0
C2351 C 0.82851 0.29638 0.24609 0.0
H2352 H 0.79203 0.36063 0.26749 0.0
H2353 H 0.8389 0.36693 0.20596 0.0
H2354 H 0.80463 0.3172 0.29885 0.0
H2355 H 0.81672 0.33395 0.32302 0.0
H2356 H 0.79323 0.33987 0.3091 0.0
H2357 H 0.86756 0.34953 0.2113 0.0
H2358 H 0.87324 0.3411 0.24856 0.0
H2359 H 0.86243 0.32473 0.22238 0.0
H2360 H 0.87486 0.31102 0.34027 0.0
H2361 H 0.8473 0.2705 0.28068 0.0
H2362 H 0.84742 0.35134 0.32479 0.0
H2363 H 0.86636 0.35368 0.29821 0.0
H2364 H 0.87147 0.345 0.33555 0.0
H2365 H 0.81378 0.30142 0.2511 0.0
H2366 H 0.82802 0.28051 0.24084 0.0
H2367 H 0.83339 0.30438 0.22586 0.0
C2368 C 0.66758 0.78429 0.19034 0.0
C2369 C 0.64867 0.77952 0.19768 0.0
C2370 C 0.67764 0.79846 0.20661 0.0
C2371 C 0.6686 0.80803 0.23088 0.0
C2372 C 0.64944 0.80347 0.23821 0.0
C2373 C 0.63968 0.78928 0.22146 0.0
C2374 C 0.69804 0.80303 0.19807 0.0
C2375 C 0.63937 0.81336 0.26401 0.0
C2376 C 0.70097 0.82988 0.29018 0.0
C2377 C 0.70104 0.8497 0.2821 0.0
C2378 C 0.69022 0.81621 0.27396 0.0
C2379 C 0.67937 0.82251 0.24899 0.0
C2380 C 0.67922 0.84252 0.2409 0.0
C2381 C 0.69003 0.8559 0.25761 0.0
C2382 C 0.69063 0.79498 0.28334 0.0
C2383 C 0.66788 0.84973 0.21431 0.0
H2384 H 0.67461 0.77685 0.17194 0.0
H2385 H 0.62507 0.78566 0.22728 0.0
H2386 H 0.69959 0.81888 0.19333 0.0
H2387 H 0.7077 0.79951 0.21702 0.0
H2388 H 0.70281 0.79469 0.17806 0.0
H2389 H 0.62431 0.80847 0.26635 0.0
H2390 H 0.64702 0.81019 0.28524 0.0
H2391 H 0.63953 0.82945 0.26087 0.0
H2392 H 0.70938 0.82499 0.30914 0.0
H2393 H 0.69003 0.87119 0.25122 0.0
H2394 H 0.69664 0.78593 0.26499 0.0
H2395 H 0.6759 0.78969 0.28759 0.0
H2396 H 0.69932 0.79258 0.30384 0.0
H2397 H 0.67311 0.84259 0.19356 0.0
H2398 H 0.66891 0.86584 0.21143 0.0
H2399 H 0.65262 0.84572 0.21692 0.0
C2400 C 0.13108 0.66801 0.32665 0.0
C2401 C 0.13195 0.68695 0.31461 0.0
C2402 C 0.14014 0.65226 0.31228 0.0
C2403 C 0.15027 0.65557 0.2853 0.0
C2404 C 0.15072 0.67454 0.27262 0.0
C2405 C 0.14156 0.68998 0.28741 0.0
C2406 C 0.13933 0.6322 0.32638 0.0
C2407 C 0.16133 0.67866 0.24382 0.0
C2408 C 0.19165 0.62322 0.26226 0.0
C2409 C 0.18357 0.6123 0.23887 0.0
C2410 C 0.18073 0.63681 0.27836 0.0
C2411 C 0.16126 0.63954 0.27092 0.0
C2412 C 0.15281 0.628 0.24819 0.0
C2413 C 0.16408 0.6145 0.23241 0.0
C2414 C 0.19025 0.64882 0.30252 0.0
C2415 C 0.13207 0.63047 0.23973 0.0
H2416 H 0.12365 0.66554 0.34761 0.0
H2417 H 0.14223 0.70454 0.27785 0.0
H2418 H 0.1342 0.62129 0.30984 0.0
H2419 H 0.15387 0.62766 0.33337 0.0
H2420 H 0.12981 0.63179 0.34629 0.0
H2421 H 0.15958 0.69403 0.23624 0.0
H2422 H 0.17679 0.67572 0.24699 0.0
H2423 H 0.15621 0.6688 0.2258 0.0
H2424 H 0.20667 0.62153 0.26753 0.0
H2425 H 0.1577 0.60606 0.21446 0.0
H2426 H 0.18195 0.64796 0.32365 0.0
H2427 H 0.19062 0.66441 0.29564 0.0
H2428 H 0.20511 0.64393 0.30705 0.0
H2429 H 0.12289 0.62975 0.25997 0.0
H2430 H 0.12723 0.61916 0.22357 0.0
H2431 H 0.12991 0.64508 0.22946 0.0
C2432 C 0.3052 0.12996 0.26483 0.0
C2433 C 0.28904 0.13922 0.27686 0.0
C2434 C 0.31861 0.1405 0.2479 0.0
C2435 C 0.31568 0.1607 0.24277 0.0
C2436 C 0.29918 0.17001 0.25429 0.0
C2437 C 0.28609 0.15916 0.27129 0.0
C2438 C 0.33609 0.13013 0.23606 0.0
C2439 C 0.29548 0.19151 0.24906 0.0
C2440 C 0.35689 0.19504 0.22679 0.0
C2441 C 0.3549 0.19815 0.19589 0.0
C2442 C 0.3447 0.18222 0.24213 0.0
C2443 C 0.3301 0.17239 0.2262 0.0
C2444 C 0.32849 0.17486 0.19481 0.0
C2445 C 0.34098 0.18768 0.17999 0.0
C2446 C 0.34697 0.17978 0.27558 0.0
C2447 C 0.31306 0.16465 0.1771 0.0
H2448 H 0.30757 0.11454 0.26908 0.0
H2449 H 0.27358 0.16639 0.28035 0.0
H2450 H 0.3372 0.13215 0.21146 0.0
H2451 H 0.34912 0.13657 0.24618 0.0
H2452 H 0.33588 0.11421 0.24104 0.0
H2453 H 0.2816 0.19635 0.25858 0.0
H2454 H 0.30704 0.2003 0.2594 0.0
H2455 H 0.29554 0.19473 0.22469 0.0
H2456 H 0.36772 0.20296 0.23919 0.0
H2457 H 0.33937 0.18998 0.1561 0.0
H2458 H 0.34775 0.16405 0.28151 0.0
H2459 H 0.33432 0.18597 0.2872 0.0
H2460 H 0.35996 0.1872 0.28421 0.0
H2461 H 0.3132 0.14873 0.18184 0.0
H2462 H 0.3147 0.16688 0.15258 0.0
H2463 H 0.29887 0.17031 0.18399 0.0
loop_
_geom_bond_atom_site_label_1
_geom_bond_atom_site_label_2
_geom_bond_distance
_geom_bond_site_symmetry_2
_ccdc_geom_bond_type
C0 O1 1.160 . S
C0 O7 1.185 . S
O1 C0 1.160 . S
O2 Zn3 1.899 . S
O2 C10 1.284 . S
Zn3 O2 1.899 . S
Zn3 O4 2.032 . S
Zn3 O7 2.086 . S
Zn3 O12 1.977 . S
O4 Zn3 2.032 . S
O4 C8 1.278 . S
C5 O6 1.203 . S
C5 O12 1.267 . S
O6 C5 1.203 . S
O7 C0 1.185 . S
O7 Zn3 2.086 . S
C8 O4 1.278 . S
C8 O9 1.211 . S
O9 C8 1.211 . S
C10 O2 1.284 . S
C10 O11 1.273 . S
O11 C10 1.273 . S
O12 Zn3 1.977 . S
O12 C5 1.267 . S
C13 O14 1.160 . S
C13 O20 1.185 . S
O14 C13 1.160 . S
O15 Zn16 1.899 . S
O15 C23 1.284 . S
Zn16 O15 1.899 . S
Zn16 O17 2.032 . S
Zn16 O20 2.086 . S
Zn16 O25 1.977 . S
O17 Zn16 2.032 . S
O17 C21 1.278 . S
C18 O19 1.203 . S
C18 O25 1.267 . S
O19 C18 1.203 . S
O20 C13 1.185 . S
O20 Zn16 2.086 . S
C21 O17 1.278 . S
C21 O22 1.211 . S
O22 C21 1.211 . S
C23 O15 1.284 . S
C23 O24 1.273 . S
O24 C23 1.273 . S
O25 Zn16 1.977 . S
O25 C18 1.267 . S
C26 O27 1.160 . S
C26 O33 1.185 . S
O27 C26 1.160 . S
O28 Zn29 1.899 . S
O28 C36 1.284 . S
Zn29 O28 1.899 . S
Zn29 O30 2.032 . S
Zn29 O33 2.086 . S
Zn29 O38 1.977 . S
O30 Zn29 2.032 . S
O30 C34 1.278 . S
C31 O32 1.203 . S
C31 O38 1.267 . S
O32 C31 1.203 . S
O33 C26 1.185 . S
O33 Zn29 2.086 . S
C34 O30 1.278 . S
C34 O35 1.211 . S
O35 C34 1.211 . S
C36 O28 1.284 . S
C36 O37 1.273 . S
O37 C36 1.273 . S
O38 Zn29 1.977 . S
O38 C31 1.267 . S
C39 O40 1.160 . S
C39 O46 1.185 . S
O40 C39 1.160 . S
O41 Zn42 1.899 . S
O41 C49 1.284 . S
Zn42 O41 1.899 . S
Zn42 O43 2.032 . S
Zn42 O46 2.086 . S
Zn42 O51 1.977 . S
O43 Zn42 2.032 . S
O43 C47 1.278 . S
C44 O45 1.203 . S
C44 O51 1.267 . S
O45 C44 1.203 . S
O46 C39 1.185 . S
O46 Zn42 2.086 . S
C47 O43 1.278 . S
C47 O48 1.211 . S
O48 C47 1.211 . S
C49 O41 1.284 . S
C49 O50 1.273 . S
O50 C49 1.273 . S
O51 Zn42 1.977 . S
O51 C44 1.267 . S
C52 O53 1.160 . S
C52 O59 1.185 . S
O53 C52 1.160 . S
O54 Zn55 1.899 . S
O54 C62 1.284 . S
Zn55 O54 1.899 . S
Zn55 O56 2.032 . S
Zn55 O59 2.086 . S
Zn55 O64 1.977 . S
O56 Zn55 2.032 . S
O56 C60 1.278 . S
C57 O58 1.203 . S
C57 O64 1.267 . S
O58 C57 1.203 . S
O59 C52 1.185 . S
O59 Zn55 2.086 . S
C60 O56 1.278 . S
C60 O61 1.211 . S
O61 C60 1.211 . S
C62 O54 1.284 . S
C62 O63 1.273 . S
O63 C62 1.273 . S
O64 Zn55 1.977 . S
O64 C57 1.267 . S
C65 O66 1.160 . S
C65 O72 1.185 . S
O66 C65 1.160 . S
O67 Zn68 1.899 . S
O67 C75 1.284 . S
Zn68 O67 1.899 . S
Zn68 O69 2.032 . S
Zn68 O72 2.086 . S
Zn68 O77 1.977 . S
O69 Zn68 2.032 . S
O69 C73 1.278 . S
C70 O71 1.203 . S
C70 O77 1.267 . S
O71 C70 1.203 . S
O72 C65 1.185 . S
O72 Zn68 2.086 . S
C73 O69 1.278 . S
C73 O74 1.211 . S
O74 C73 1.211 . S
C75 O67 1.284 . S
C75 O76 1.273 . S
O76 C75 1.273 . S
O77 Zn68 1.977 . S
O77 C70 1.267 . S
C78 O79 1.160 . S
C78 O85 1.185 . S
O79 C78 1.160 . S
O80 Zn81 1.899 . S
O80 C88 1.284 . S
Zn81 O80 1.899 . S
Zn81 O82 2.032 . S
Zn81 O85 2.086 . S
Zn81 O90 1.977 . S
O82 Zn81 2.032 . S
O82 C86 1.278 . S
C83 O84 1.203 . S
C83 O90 1.267 . S
O84 C83 1.203 . S
O85 C78 1.185 . S
O85 Zn81 2.086 . S
C86 O82 1.278 . S
C86 O87 1.211 . S
O87 C86 1.211 . S
C88 O80 1.284 . S
C88 O89 1.273 . S
O89 C88 1.273 . S
O90 Zn81 1.977 . S
O90 C83 1.267 . S
C91 O92 1.160 . S
C91 O98 1.185 . S
O92 C91 1.160 . S
O93 Zn94 1.899 . S
O93 C101 1.284 . S
Zn94 O93 1.899 . S
Zn94 O95 2.032 . S
Zn94 O98 2.086 . S
Zn94 O103 1.977 . S
O95 Zn94 2.032 . S
O95 C99 1.278 . S
C96 O97 1.203 . S
C96 O103 1.267 . S
O97 C96 1.203 . S
O98 C91 1.185 . S
O98 Zn94 2.086 . S
C99 O95 1.278 . S
C99 O100 1.211 . S
O100 C99 1.211 . S
C101 O93 1.284 . S
C101 O102 1.273 . S
O102 C101 1.273 . S
O103 Zn94 1.977 . S
O103 C96 1.267 . S
C104 O105 1.160 . S
C104 O111 1.185 . S
O105 C104 1.160 . S
O106 Zn107 1.899 . S
O106 C114 1.284 . S
Zn107 O106 1.899 . S
Zn107 O108 2.032 . S
Zn107 O111 2.086 . S
Zn107 O116 1.977 . S
O108 Zn107 2.032 . S
O108 C112 1.278 . S
C109 O110 1.203 . S
C109 O116 1.267 . S
O110 C109 1.203 . S
O111 C104 1.185 . S
O111 Zn107 2.086 . S
C112 O108 1.278 . S
C112 O113 1.211 . S
O113 C112 1.211 . S
C114 O106 1.284 . S
C114 O115 1.273 . S
O115 C114 1.273 . S
O116 Zn107 1.977 . S
O116 C109 1.267 . S
C117 O118 1.160 . S
C117 O124 1.185 . S
O118 C117 1.160 . S
O119 Zn120 1.899 . S
O119 C127 1.284 . S
Zn120 O119 1.899 . S
Zn120 O121 2.032 . S
Zn120 O124 2.086 . S
Zn120 O129 1.977 . S
O121 Zn120 2.032 . S
O121 C125 1.278 . S
C122 O123 1.203 . S
C122 O129 1.267 . S
O123 C122 1.203 . S
O124 C117 1.185 . S
O124 Zn120 2.086 . S
C125 O121 1.278 . S
C125 O126 1.211 . S
O126 C125 1.211 . S
C127 O119 1.284 . S
C127 O128 1.273 . S
O128 C127 1.273 . S
O129 Zn120 1.977 . S
O129 C122 1.267 . S
C130 O131 1.160 . S
C130 O137 1.185 . S
O131 C130 1.160 . S
O132 Zn133 1.899 . S
O132 C140 1.284 . S
Zn133 O132 1.899 . S
Zn133 O134 2.032 . S
Zn133 O137 2.086 . S
Zn133 O142 1.977 . S
O134 Zn133 2.032 . S
O134 C138 1.278 . S
C135 O136 1.203 . S
C135 O142 1.267 . S
O136 C135 1.203 . S
O137 C130 1.185 . S
O137 Zn133 2.086 . S
C138 O134 1.278 . S
C138 O139 1.211 . S
O139 C138 1.211 . S
C140 O132 1.284 . S
C140 O141 1.273 . S
O141 C140 1.273 . S
O142 Zn133 1.977 . S
O142 C135 1.267 . S
C143 O144 1.160 . S
C143 O150 1.185 . S
O144 C143 1.160 . S
O145 Zn146 1.899 . S
O145 C153 1.284 . S
Zn146 O145 1.899 . S
Zn146 O147 2.032 . S
Zn146 O150 2.086 . S
Zn146 O155 1.977 . S
O147 Zn146 2.032 . S
O147 C151 1.278 . S
C148 O149 1.203 . S
C148 O155 1.267 . S
O149 C148 1.203 . S
O150 C143 1.185 . S
O150 Zn146 2.086 . S
C151 O147 1.278 . S
C151 O152 1.211 . S
O152 C151 1.211 . S
C153 O145 1.284 . S
C153 O154 1.273 . S
O154 C153 1.273 . S
O155 Zn146 1.977 . S
O155 C148 1.267 . S
C156 O157 1.160 . S
C156 O163 1.185 . S
O157 C156 1.160 . S
O158 Zn159 1.899 . S
O158 C166 1.284 . S
Zn159 O158 1.899 . S
Zn159 O160 2.032 . S
Zn159 O163 2.086 . S
Zn159 O168 1.977 . S
O160 Zn159 2.032 . S
O160 C164 1.278 . S
C161 O162 1.203 . S
C161 O168 1.267 . S
O162 C161 1.203 . S
O163 C156 1.185 . S
O163 Zn159 2.086 . S
C164 O160 1.278 . S
C164 O165 1.211 . S
O165 C164 1.211 . S
C166 O158 1.284 . S
C166 O167 1.273 . S
O167 C166 1.273 . S
O168 Zn159 1.977 . S
O168 C161 1.267 . S
C169 O170 1.160 . S
C169 O176 1.185 . S
O170 C169 1.160 . S
O171 Zn172 1.899 . S
O171 C179 1.284 . S
Zn172 O171 1.899 . S
Zn172 O173 2.032 . S
Zn172 O176 2.086 . S
Zn172 O181 1.977 . S
O173 Zn172 2.032 . S
O173 C177 1.278 . S
C174 O175 1.203 . S
C174 O181 1.267 . S
O175 C174 1.203 . S
O176 C169 1.185 . S
O176 Zn172 2.086 . S
C177 O173 1.278 . S
C177 O178 1.211 . S
O178 C177 1.211 . S
C179 O171 1.284 . S
C179 O180 1.273 . S
O180 C179 1.273 . S
O181 Zn172 1.977 . S
O181 C174 1.267 . S
C182 O183 1.160 . S
C182 O189 1.185 . S
O183 C182 1.160 . S
O184 Zn185 1.899 . S
O184 C192 1.284 . S
Zn185 O184 1.899 . S
Zn185 O186 2.032 . S
Zn185 O189 2.086 . S
Zn185 O194 1.977 . S
O186 Zn185 2.032 . S
O186 C190 1.278 . S
C187 O188 1.203 . S
C187 O194 1.267 . S
O188 C187 1.203 . S
O189 C182 1.185 . S
O189 Zn185 2.086 . S
C190 O186 1.278 . S
C190 O191 1.211 . S
O191 C190 1.211 . S
C192 O184 1.284 . S
C192 O193 1.273 . S
O193 C192 1.273 . S
O194 Zn185 1.977 . S
O194 C187 1.267 . S
C195 O196 1.160 . S
C195 O202 1.185 . S
O196 C195 1.160 . S
O197 Zn198 1.899 . S
O197 C205 1.284 . S
Zn198 O197 1.899 . S
Zn198 O199 2.032 . S
Zn198 O202 2.086 . S
Zn198 O207 1.977 . S
O199 Zn198 2.032 . S
O199 C203 1.278 . S
C200 O201 1.203 . S
C200 O207 1.267 . S
O201 C200 1.203 . S
O202 C195 1.185 . S
O202 Zn198 2.086 . S
C203 O199 1.278 . S
C203 O204 1.211 . S
O204 C203 1.211 . S
C205 O197 1.284 . S
C205 O206 1.273 . S
O206 C205 1.273 . S
O207 Zn198 1.977 . S
O207 C200 1.267 . S
C208 O209 1.160 . S
C208 O215 1.185 . S
O209 C208 1.160 . S
O210 Zn211 1.899 . S
O210 C218 1.284 . S
Zn211 O210 1.899 . S
Zn211 O212 2.032 . S
Zn211 O215 2.086 . S
Zn211 O220 1.977 . S
O212 Zn211 2.032 . S
O212 C216 1.278 . S
C213 O214 1.203 . S
C213 O220 1.267 . S
O214 C213 1.203 . S
O215 C208 1.185 . S
O215 Zn211 2.086 . S
C216 O212 1.278 . S
C216 O217 1.211 . S
O217 C216 1.211 . S
C218 O210 1.284 . S
C218 O219 1.273 . S
O219 C218 1.273 . S
O220 Zn211 1.977 . S
O220 C213 1.267 . S
C221 O222 1.160 . S
C221 O228 1.185 . S
O222 C221 1.160 . S
O223 Zn224 1.899 . S
O223 C231 1.284 . S
Zn224 O223 1.899 . S
Zn224 O225 2.032 . S
Zn224 O228 2.086 . S
Zn224 O233 1.977 . S
O225 Zn224 2.032 . S
O225 C229 1.278 . S
C226 O227 1.203 . S
C226 O233 1.267 . S
O227 C226 1.203 . S
O228 C221 1.185 . S
O228 Zn224 2.086 . S
C229 O225 1.278 . S
C229 O230 1.211 . S
O230 C229 1.211 . S
C231 O223 1.284 . S
C231 O232 1.273 . S
O232 C231 1.273 . S
O233 Zn224 1.977 . S
O233 C226 1.267 . S
C234 O235 1.160 . S
C234 O241 1.185 . S
O235 C234 1.160 . S
O236 Zn237 1.899 . S
O236 C244 1.284 . S
Zn237 O236 1.899 . S
Zn237 O238 2.032 . S
Zn237 O241 2.086 . S
Zn237 O246 1.977 . S
O238 Zn237 2.032 . S
O238 C242 1.278 . S
C239 O240 1.203 . S
C239 O246 1.267 . S
O240 C239 1.203 . S
O241 C234 1.185 . S
O241 Zn237 2.086 . S
C242 O238 1.278 . S
C242 O243 1.211 . S
O243 C242 1.211 . S
C244 O236 1.284 . S
C244 O245 1.273 . S
O245 C244 1.273 . S
O246 Zn237 1.977 . S
O246 C239 1.267 . S
C247 O248 1.160 . S
C247 O254 1.185 . S
O248 C247 1.160 . S
O249 Zn250 1.899 . S
O249 C257 1.284 . S
Zn250 O249 1.899 . S
Zn250 O251 2.032 . S
Zn250 O254 2.086 . S
Zn250 O259 1.977 . S
O251 Zn250 2.032 . S
O251 C255 1.278 . S
C252 O253 1.203 . S
C252 O259 1.267 . S
O253 C252 1.203 . S
O254 C247 1.185 . S
O254 Zn250 2.086 . S
C255 O251 1.278 . S
C255 O256 1.211 . S
O256 C255 1.211 . S
C257 O249 1.284 . S
C257 O258 1.273 . S
O258 C257 1.273 . S
O259 Zn250 1.977 . S
O259 C252 1.267 . S
C260 O261 1.160 . S
C260 O267 1.185 . S
O261 C260 1.160 . S
O262 Zn263 1.899 . S
O262 C270 1.284 . S
Zn263 O262 1.899 . S
Zn263 O264 2.032 . S
Zn263 O267 2.086 . S
Zn263 O272 1.977 . S
O264 Zn263 2.032 . S
O264 C268 1.278 . S
C265 O266 1.203 . S
C265 O272 1.267 . S
O266 C265 1.203 . S
O267 C260 1.185 . S
O267 Zn263 2.086 . S
C268 O264 1.278 . S
C268 O269 1.211 . S
O269 C268 1.211 . S
C270 O262 1.284 . S
C270 O271 1.273 . S
O271 C270 1.273 . S
O272 Zn263 1.977 . S
O272 C265 1.267 . S
C273 O274 1.160 . S
C273 O280 1.185 . S
O274 C273 1.160 . S
O275 Zn276 1.899 . S
O275 C283 1.284 . S
Zn276 O275 1.899 . S
Zn276 O277 2.032 . S
Zn276 O280 2.086 . S
Zn276 O285 1.977 . S
O277 Zn276 2.032 . S
O277 C281 1.278 . S
C278 O279 1.203 . S
C278 O285 1.267 . S
O279 C278 1.203 . S
O280 C273 1.185 . S
O280 Zn276 2.086 . S
C281 O277 1.278 . S
C281 O282 1.211 . S
O282 C281 1.211 . S
C283 O275 1.284 . S
C283 O284 1.273 . S
O284 C283 1.273 . S
O285 Zn276 1.977 . S
O285 C278 1.267 . S
C286 O287 1.160 . S
C286 O293 1.185 . S
O287 C286 1.160 . S
O288 Zn289 1.899 . S
O288 C296 1.284 . S
Zn289 O288 1.899 . S
Zn289 O290 2.032 . S
Zn289 O293 2.086 . S
Zn289 O298 1.977 . S
O290 Zn289 2.032 . S
O290 C294 1.278 . S
C291 O292 1.203 . S
C291 O298 1.267 . S
O292 C291 1.203 . S
O293 C286 1.185 . S
O293 Zn289 2.086 . S
C294 O290 1.278 . S
C294 O295 1.211 . S
O295 C294 1.211 . S
C296 O288 1.284 . S
C296 O297 1.273 . S
O297 C296 1.273 . S
O298 Zn289 1.977 . S
O298 C291 1.267 . S
C299 O300 1.160 . S
C299 O306 1.185 . S
O300 C299 1.160 . S
O301 Zn302 1.899 . S
O301 C309 1.284 . S
Zn302 O301 1.899 . S
Zn302 O303 2.032 . S
Zn302 O306 2.086 . S
Zn302 O311 1.977 . S
O303 Zn302 2.032 . S
O303 C307 1.278 . S
C304 O305 1.203 . S
C304 O311 1.267 . S
O305 C304 1.203 . S
O306 C299 1.185 . S
O306 Zn302 2.086 . S
C307 O303 1.278 . S
C307 O308 1.211 . S
O308 C307 1.211 . S
C309 O301 1.284 . S
C309 O310 1.273 . S
O310 C309 1.273 . S
O311 Zn302 1.977 . S
O311 C304 1.267 . S
C312 O313 1.160 . S
C312 O319 1.185 . S
O313 C312 1.160 . S
O314 Zn315 1.899 . S
O314 C322 1.284 . S
Zn315 O314 1.899 . S
Zn315 O316 2.032 . S
Zn315 O319 2.086 . S
Zn315 O324 1.977 . S
O316 Zn315 2.032 . S
O316 C320 1.278 . S
C317 O318 1.203 . S
C317 O324 1.267 . S
O318 C317 1.203 . S
O319 C312 1.185 . S
O319 Zn315 2.086 . S
C320 O316 1.278 . S
C320 O321 1.211 . S
O321 C320 1.211 . S
C322 O314 1.284 . S
C322 O323 1.273 . S
O323 C322 1.273 . S
O324 Zn315 1.977 . S
O324 C317 1.267 . S
C325 O326 1.160 . S
C325 O332 1.185 . S
O326 C325 1.160 . S
O327 Zn328 1.899 . S
O327 C335 1.284 . S
Zn328 O327 1.899 . S
Zn328 O329 2.032 . S
Zn328 O332 2.086 . S
Zn328 O337 1.977 . S
O329 Zn328 2.032 . S
O329 C333 1.278 . S
C330 O331 1.203 . S
C330 O337 1.267 . S
O331 C330 1.203 . S
O332 C325 1.185 . S
O332 Zn328 2.086 . S
C333 O329 1.278 . S
C333 O334 1.211 . S
O334 C333 1.211 . S
C335 O327 1.284 . S
C335 O336 1.273 . S
O336 C335 1.273 . S
O337 Zn328 1.977 . S
O337 C330 1.267 . S
C338 O339 1.160 . S
C338 O345 1.185 . S
O339 C338 1.160 . S
O340 Zn341 1.899 . S
O340 C348 1.284 . S
Zn341 O340 1.899 . S
Zn341 O342 2.032 . S
Zn341 O345 2.086 . S
Zn341 O350 1.977 . S
O342 Zn341 2.032 . S
O342 C346 1.278 . S
C343 O344 1.203 . S
C343 O350 1.267 . S
O344 C343 1.203 . S
O345 C338 1.185 . S
O345 Zn341 2.086 . S
C346 O342 1.278 . S
C346 O347 1.211 . S
O347 C346 1.211 . S
C348 O340 1.284 . S
C348 O349 1.273 . S
O349 C348 1.273 . S
O350 Zn341 1.977 . S
O350 C343 1.267 . S
C351 O352 1.160 . S
C351 O358 1.185 . S
O352 C351 1.160 . S
O353 Zn354 1.899 . S
O353 C361 1.284 . S
Zn354 O353 1.899 . S
Zn354 O355 2.032 . S
Zn354 O358 2.086 . S
Zn354 O363 1.977 . S
O355 Zn354 2.032 . S
O355 C359 1.278 . S
C356 O357 1.203 . S
C356 O363 1.267 . S
O357 C356 1.203 . S
O358 C351 1.185 . S
O358 Zn354 2.086 . S
C359 O355 1.278 . S
C359 O360 1.211 . S
O360 C359 1.211 . S
C361 O353 1.284 . S
C361 O362 1.273 . S
O362 C361 1.273 . S
O363 Zn354 1.977 . S
O363 C356 1.267 . S
C364 O365 1.160 . S
C364 O371 1.185 . S
O365 C364 1.160 . S
O366 Zn367 1.899 . S
O366 C374 1.284 . S
Zn367 O366 1.899 . S
Zn367 O368 2.032 . S
Zn367 O371 2.086 . S
Zn367 O376 1.977 . S
O368 Zn367 2.032 . S
O368 C372 1.278 . S
C369 O370 1.203 . S
C369 O376 1.267 . S
O370 C369 1.203 . S
O371 C364 1.185 . S
O371 Zn367 2.086 . S
C372 O368 1.278 . S
C372 O373 1.211 . S
O373 C372 1.211 . S
C374 O366 1.284 . S
C374 O375 1.273 . S
O375 C374 1.273 . S
O376 Zn367 1.977 . S
O376 C369 1.267 . S
C377 O378 1.160 . S
C377 O384 1.185 . S
O378 C377 1.160 . S
O379 Zn380 1.899 . S
O379 C387 1.284 . S
Zn380 O379 1.899 . S
Zn380 O381 2.032 . S
Zn380 O384 2.086 . S
Zn380 O389 1.977 . S
O381 Zn380 2.032 . S
O381 C385 1.278 . S
C382 O383 1.203 . S
C382 O389 1.267 . S
O383 C382 1.203 . S
O384 C377 1.185 . S
O384 Zn380 2.086 . S
C385 O381 1.278 . S
C385 O386 1.211 . S
O386 C385 1.211 . S
C387 O379 1.284 . S
C387 O388 1.273 . S
O388 C387 1.273 . S
O389 Zn380 1.977 . S
O389 C382 1.267 . S
C390 O391 1.160 . S
C390 O397 1.185 . S
O391 C390 1.160 . S
O392 Zn393 1.899 . S
O392 C400 1.284 . S
Zn393 O392 1.899 . S
Zn393 O394 2.032 . S
Zn393 O397 2.086 . S
Zn393 O402 1.977 . S
O394 Zn393 2.032 . S
O394 C398 1.278 . S
C395 O396 1.203 . S
C395 O402 1.267 . S
O396 C395 1.203 . S
O397 C390 1.185 . S
O397 Zn393 2.086 . S
C398 O394 1.278 . S
C398 O399 1.211 . S
O399 C398 1.211 . S
C400 O392 1.284 . S
C400 O401 1.273 . S
O401 C400 1.273 . S
O402 Zn393 1.977 . S
O402 C395 1.267 . S
C403 O404 1.160 . S
C403 O410 1.185 . S
O404 C403 1.160 . S
O405 Zn406 1.899 . S
O405 C413 1.284 . S
Zn406 O405 1.899 . S
Zn406 O407 2.032 . S
Zn406 O410 2.086 . S
Zn406 O415 1.977 . S
O407 Zn406 2.032 . S
O407 C411 1.278 . S
C408 O409 1.203 . S
C408 O415 1.267 . S
O409 C408 1.203 . S
O410 C403 1.185 . S
O410 Zn406 2.086 . S
C411 O407 1.278 . S
C411 O412 1.211 . S
O412 C411 1.211 . S
C413 O405 1.284 . S
C413 O414 1.273 . S
O414 C413 1.273 . S
O415 Zn406 1.977 . S
O415 C408 1.267 . S
C416 C417 1.391 . S
C416 C418 1.394 . S
C416 H432 0.931 . S
C417 C416 1.391 . S
C417 C421 1.376 . S
C418 C416 1.394 . S
C418 C419 1.369 . S
C418 C422 1.531 . S
C419 C418 1.369 . S
C419 C420 1.410 . S
C419 C427 1.503 . S
C420 C419 1.410 . S
C420 C421 1.392 . S
C420 C423 1.511 . S
C421 C417 1.376 . S
C421 C420 1.392 . S
C421 H433 0.929 . S
C422 C418 1.531 . S
C422 H434 0.960 . S
C422 H435 0.962 . S
C422 H436 0.960 . S
C423 C420 1.511 . S
C423 H437 0.961 . S
C423 H438 0.961 . S
C423 H439 0.961 . S
C424 C425 1.370 . S
C424 C426 1.363 . S
C424 H440 0.931 . S
C425 C424 1.370 . S
C425 C429 1.408 . S
C426 C424 1.363 . S
C426 C427 1.370 . S
C426 C430 1.524 . S
C427 C419 1.503 . S
C427 C426 1.370 . S
C427 C428 1.403 . S
C428 C427 1.403 . S
C428 C429 1.404 . S
C428 C431 1.539 . S
C429 C425 1.408 . S
C429 C428 1.404 . S
C429 H441 0.930 . S
C430 C426 1.524 . S
C430 H442 0.956 . S
C430 H443 0.961 . S
C430 H444 0.961 . S
C431 C428 1.539 . S
C431 H445 0.958 . S
C431 H446 0.961 . S
C431 H447 0.960 . S
H432 C416 0.931 . S
H433 C421 0.929 . S
H434 C422 0.960 . S
H435 C422 0.962 . S
H436 C422 0.960 . S
H437 C423 0.961 . S
H438 C423 0.961 . S
H439 C423 0.961 . S
H440 C424 0.931 . S
H441 C429 0.930 . S
H442 C430 0.956 . S
H443 C430 0.961 . S
H444 C430 0.961 . S
H445 C431 0.958 . S
H446 C431 0.961 . S
H447 C431 0.960 . S
C448 C449 1.391 . S
C448 C450 1.394 . S
C448 H464 0.931 . S
C449 C448 1.391 . S
C449 C453 1.376 . S
C450 C448 1.394 . S
C450 C451 1.369 . S
C450 C454 1.531 . S
C451 C450 1.369 . S
C451 C452 1.410 . S
C451 C459 1.503 . S
C452 C451 1.410 . S
C452 C453 1.392 . S
C452 C455 1.511 . S
C453 C449 1.376 . S
C453 C452 1.392 . S
C453 H465 0.929 . S
C454 C450 1.531 . S
C454 H466 0.960 . S
C454 H467 0.962 . S
C454 H468 0.960 . S
C455 C452 1.511 . S
C455 H469 0.961 . S
C455 H470 0.961 . S
C455 H471 0.961 . S
C456 C457 1.370 . S
C456 C458 1.363 . S
C456 H472 0.931 . S
C457 C456 1.370 . S
C457 C461 1.408 . S
C458 C456 1.363 . S
C458 C459 1.370 . S
C458 C462 1.524 . S
C459 C451 1.503 . S
C459 C458 1.370 . S
C459 C460 1.403 . S
C460 C459 1.403 . S
C460 C461 1.404 . S
C460 C463 1.539 . S
C461 C457 1.408 . S
C461 C460 1.404 . S
C461 H473 0.930 . S
C462 C458 1.524 . S
C462 H474 0.956 . S
C462 H475 0.961 . S
C462 H476 0.961 . S
C463 C460 1.539 . S
C463 H477 0.958 . S
C463 H478 0.961 . S
C463 H479 0.960 . S
H464 C448 0.931 . S
H465 C453 0.929 . S
H466 C454 0.960 . S
H467 C454 0.962 . S
H468 C454 0.960 . S
H469 C455 0.961 . S
H470 C455 0.961 . S
H471 C455 0.961 . S
H472 C456 0.931 . S
H473 C461 0.930 . S
H474 C462 0.956 . S
H475 C462 0.961 . S
H476 C462 0.961 . S
H477 C463 0.958 . S
H478 C463 0.961 . S
H479 C463 0.960 . S
C480 C481 1.391 . S
C480 C482 1.394 . S
C480 H496 0.931 . S
C481 C480 1.391 . S
C481 C485 1.376 . S
C482 C480 1.394 . S
C482 C483 1.369 . S
C482 C486 1.531 . S
C483 C482 1.369 . S
C483 C484 1.410 . S
C483 C491 1.503 . S
C484 C483 1.410 . S
C484 C485 1.392 . S
C484 C487 1.511 . S
C485 C481 1.376 . S
C485 C484 1.392 . S
C485 H497 0.929 . S
C486 C482 1.531 . S
C486 H498 0.960 . S
C486 H499 0.962 . S
C486 H500 0.960 . S
C487 C484 1.511 . S
C487 H501 0.961 . S
C487 H502 0.961 . S
C487 H503 0.961 . S
C488 C489 1.370 . S
C488 C490 1.363 . S
C488 H504 0.931 . S
C489 C488 1.370 . S
C489 C493 1.408 . S
C490 C488 1.363 . S
C490 C491 1.370 . S
C490 C494 1.524 . S
C491 C483 1.503 . S
C491 C490 1.370 . S
C491 C492 1.403 . S
C492 C491 1.403 . S
C492 C493 1.404 . S
C492 C495 1.539 . S
C493 C489 1.408 . S
C493 C492 1.404 . S
C493 H505 0.930 . S
C494 C490 1.524 . S
C494 H506 0.956 . S
C494 H507 0.961 . S
C494 H508 0.961 . S
C495 C492 1.539 . S
C495 H509 0.958 . S
C495 H510 0.961 . S
C495 H511 0.960 . S
H496 C480 0.931 . S
H497 C485 0.929 . S
H498 C486 0.960 . S
H499 C486 0.962 . S
H500 C486 0.960 . S
H501 C487 0.961 . S
H502 C487 0.961 . S
H503 C487 0.961 . S
H504 C488 0.931 . S
H505 C493 0.930 . S
H506 C494 0.956 . S
H507 C494 0.961 . S
H508 C494 0.961 . S
H509 C495 0.958 . S
H510 C495 0.961 . S
H511 C495 0.960 . S
C512 C513 1.391 . S
C512 C514 1.394 . S
C512 H528 0.931 . S
C513 C512 1.391 . S
C513 C517 1.376 . S
C514 C512 1.394 . S
C514 C515 1.369 . S
C514 C518 1.531 . S
C515 C514 1.369 . S
C515 C516 1.410 . S
C515 C523 1.503 . S
C516 C515 1.410 . S
C516 C517 1.392 . S
C516 C519 1.511 . S
C517 C513 1.376 . S
C517 C516 1.392 . S
C517 H529 0.929 . S
C518 C514 1.531 . S
C518 H530 0.960 . S
C518 H531 0.962 . S
C518 H532 0.960 . S
C519 C516 1.511 . S
C519 H533 0.961 . S
C519 H534 0.961 . S
C519 H535 0.961 . S
C520 C521 1.370 . S
C520 C522 1.363 . S
C520 H536 0.931 . S
C521 C520 1.370 . S
C521 C525 1.408 . S
C522 C520 1.363 . S
C522 C523 1.370 . S
C522 C526 1.524 . S
C523 C515 1.503 . S
C523 C522 1.370 . S
C523 C524 1.403 . S
C524 C523 1.403 . S
C524 C525 1.404 . S
C524 C527 1.539 . S
C525 C521 1.408 . S
C525 C524 1.404 . S
C525 H537 0.930 . S
C526 C522 1.524 . S
C526 H538 0.956 . S
C526 H539 0.961 . S
C526 H540 0.961 . S
C527 C524 1.539 . S
C527 H541 0.958 . S
C527 H542 0.961 . S
C527 H543 0.960 . S
H528 C512 0.931 . S
H529 C517 0.929 . S
H530 C518 0.960 . S
H531 C518 0.962 . S
H532 C518 0.960 . S
H533 C519 0.961 . S
H534 C519 0.961 . S
H535 C519 0.961 . S
H536 C520 0.931 . S
H537 C525 0.930 . S
H538 C526 0.956 . S
H539 C526 0.961 . S
H540 C526 0.961 . S
H541 C527 0.958 . S
H542 C527 0.961 . S
H543 C527 0.960 . S
C544 C545 1.391 . S
C544 C546 1.394 . S
C544 H560 0.931 . S
C545 C544 1.391 . S
C545 C549 1.376 . S
C546 C544 1.394 . S
C546 C547 1.369 . S
C546 C550 1.531 . S
C547 C546 1.369 . S
C547 C548 1.410 . S
C547 C555 1.503 . S
C548 C547 1.410 . S
C548 C549 1.392 . S
C548 C551 1.511 . S
C549 C545 1.376 . S
C549 C548 1.392 . S
C549 H561 0.929 . S
C550 C546 1.531 . S
C550 H562 0.960 . S
C550 H563 0.962 . S
C550 H564 0.960 . S
C551 C548 1.511 . S
C551 H565 0.961 . S
C551 H566 0.961 . S
C551 H567 0.961 . S
C552 C553 1.370 . S
C552 C554 1.363 . S
C552 H568 0.931 . S
C553 C552 1.370 . S
C553 C557 1.408 . S
C554 C552 1.363 . S
C554 C555 1.370 . S
C554 C558 1.524 . S
C555 C547 1.503 . S
C555 C554 1.370 . S
C555 C556 1.403 . S
C556 C555 1.403 . S
C556 C557 1.404 . S
C556 C559 1.539 . S
C557 C553 1.408 . S
C557 C556 1.404 . S
C557 H569 0.930 . S
C558 C554 1.524 . S
C558 H570 0.956 . S
C558 H571 0.961 . S
C558 H572 0.961 . S
C559 C556 1.539 . S
C559 H573 0.958 . S
C559 H574 0.961 . S
C559 H575 0.960 . S
H560 C544 0.931 . S
H561 C549 0.929 . S
H562 C550 0.960 . S
H563 C550 0.962 . S
H564 C550 0.960 . S
H565 C551 0.961 . S
H566 C551 0.961 . S
H567 C551 0.961 . S
H568 C552 0.931 . S
H569 C557 0.930 . S
H570 C558 0.956 . S
H571 C558 0.961 . S
H572 C558 0.961 . S
H573 C559 0.958 . S
H574 C559 0.961 . S
H575 C559 0.960 . S
C576 C577 1.391 . S
C576 C578 1.394 . S
C576 H592 0.931 . S
C577 C576 1.391 . S
C577 C581 1.376 . S
C578 C576 1.394 . S
C578 C579 1.369 . S
C578 C582 1.531 . S
C579 C578 1.369 . S
C579 C580 1.410 . S
C579 C587 1.503 . S
C580 C579 1.410 . S
C580 C581 1.392 . S
C580 C583 1.511 . S
C581 C577 1.376 . S
C581 C580 1.392 . S
C581 H593 0.929 . S
C582 C578 1.531 . S
C582 H594 0.960 . S
C582 H595 0.962 . S
C582 H596 0.960 . S
C583 C580 1.511 . S
C583 H597 0.961 . S
C583 H598 0.961 . S
C583 H599 0.961 . S
C584 C585 1.370 . S
C584 C586 1.363 . S
C584 H600 0.931 . S
C585 C584 1.370 . S
C585 C589 1.408 . S
C586 C584 1.363 . S
C586 C587 1.370 . S
C586 C590 1.524 . S
C587 C579 1.503 . S
C587 C586 1.370 . S
C587 C588 1.403 . S
C588 C587 1.403 . S
C588 C589 1.404 . S
C588 C591 1.539 . S
C589 C585 1.408 . S
C589 C588 1.404 . S
C589 H601 0.930 . S
C590 C586 1.524 . S
C590 H602 0.956 . S
C590 H603 0.961 . S
C590 H604 0.961 . S
C591 C588 1.539 . S
C591 H605 0.958 . S
C591 H606 0.961 . S
C591 H607 0.960 . S
H592 C576 0.931 . S
H593 C581 0.929 . S
H594 C582 0.960 . S
H595 C582 0.962 . S
H596 C582 0.960 . S
H597 C583 0.961 . S
H598 C583 0.961 . S
H599 C583 0.961 . S
H600 C584 0.931 . S
H601 C589 0.930 . S
H602 C590 0.956 . S
H603 C590 0.961 . S
H604 C590 0.961 . S
H605 C591 0.958 . S
H606 C591 0.961 . S
H607 C591 0.960 . S
C608 C609 1.391 . S
C608 C610 1.394 . S
C608 H624 0.931 . S
C609 C608 1.391 . S
C609 C613 1.376 . S
C610 C608 1.394 . S
C610 C611 1.369 . S
C610 C614 1.531 . S
C611 C610 1.369 . S
C611 C612 1.410 . S
C611 C619 1.503 . S
C612 C611 1.410 . S
C612 C613 1.392 . S
C612 C615 1.511 . S
C613 C609 1.376 . S
C613 C612 1.392 . S
C613 H625 0.929 . S
C614 C610 1.531 . S
C614 H626 0.960 . S
C614 H627 0.962 . S
C614 H628 0.960 . S
C615 C612 1.511 . S
C615 H629 0.961 . S
C615 H630 0.961 . S
C615 H631 0.961 . S
C616 C617 1.370 . S
C616 C618 1.363 . S
C616 H632 0.931 . S
C617 C616 1.370 . S
C617 C621 1.408 . S
C618 C616 1.363 . S
C618 C619 1.370 . S
C618 C622 1.524 . S
C619 C611 1.503 . S
C619 C618 1.370 . S
C619 C620 1.403 . S
C620 C619 1.403 . S
C620 C621 1.404 . S
C620 C623 1.539 . S
C621 C617 1.408 . S
C621 C620 1.404 . S
C621 H633 0.930 . S
C622 C618 1.524 . S
C622 H634 0.956 . S
C622 H635 0.961 . S
C622 H636 0.961 . S
C623 C620 1.539 . S
C623 H637 0.958 . S
C623 H638 0.961 . S
C623 H639 0.960 . S
H624 C608 0.931 . S
H625 C613 0.929 . S
H626 C614 0.960 . S
H627 C614 0.962 . S
H628 C614 0.960 . S
H629 C615 0.961 . S
H630 C615 0.961 . S
H631 C615 0.961 . S
H632 C616 0.931 . S
H633 C621 0.930 . S
H634 C622 0.956 . S
H635 C622 0.961 . S
H636 C622 0.961 . S
H637 C623 0.958 . S
H638 C623 0.961 . S
H639 C623 0.960 . S
C640 C641 1.391 . S
C640 C642 1.394 . S
C640 H656 0.931 . S
C641 C640 1.391 . S
C641 C645 1.376 . S
C642 C640 1.394 . S
C642 C643 1.369 . S
C642 C646 1.531 . S
C643 C642 1.369 . S
C643 C644 1.410 . S
C643 C651 1.503 . S
C644 C643 1.410 . S
C644 C645 1.392 . S
C644 C647 1.511 . S
C645 C641 1.376 . S
C645 C644 1.392 . S
C645 H657 0.929 . S
C646 C642 1.531 . S
C646 H658 0.960 . S
C646 H659 0.962 . S
C646 H660 0.960 . S
C647 C644 1.511 . S
C647 H661 0.961 . S
C647 H662 0.961 . S
C647 H663 0.961 . S
C648 C649 1.370 . S
C648 C650 1.363 . S
C648 H664 0.931 . S
C649 C648 1.370 . S
C649 C653 1.408 . S
C650 C648 1.363 . S
C650 C651 1.370 . S
C650 C654 1.524 . S
C651 C643 1.503 . S
C651 C650 1.370 . S
C651 C652 1.403 . S
C652 C651 1.403 . S
C652 C653 1.404 . S
C652 C655 1.539 . S
C653 C649 1.408 . S
C653 C652 1.404 . S
C653 H665 0.930 . S
C654 C650 1.524 . S
C654 H666 0.956 . S
C654 H667 0.961 . S
C654 H668 0.961 . S
C655 C652 1.539 . S
C655 H669 0.958 . S
C655 H670 0.961 . S
C655 H671 0.960 . S
H656 C640 0.931 . S
H657 C645 0.929 . S
H658 C646 0.960 . S
H659 C646 0.962 . S
H660 C646 0.960 . S
H661 C647 0.961 . S
H662 C647 0.961 . S
H663 C647 0.961 . S
H664 C648 0.931 . S
H665 C653 0.930 . S
H666 C654 0.956 . S
H667 C654 0.961 . S
H668 C654 0.961 . S
H669 C655 0.958 . S
H670 C655 0.961 . S
H671 C655 0.960 . S
C672 C673 1.391 . S
C672 C674 1.394 . S
C672 H688 0.931 . S
C673 C672 1.391 . S
C673 C677 1.376 . S
C674 C672 1.394 . S
C674 C675 1.369 . S
C674 C678 1.531 . S
C675 C674 1.369 . S
C675 C676 1.410 . S
C675 C683 1.503 . S
C676 C675 1.410 . S
C676 C677 1.392 . S
C676 C679 1.511 . S
C677 C673 1.376 . S
C677 C676 1.392 . S
C677 H689 0.929 . S
C678 C674 1.531 . S
C678 H690 0.960 . S
C678 H691 0.962 . S
C678 H692 0.960 . S
C679 C676 1.511 . S
C679 H693 0.961 . S
C679 H694 0.961 . S
C679 H695 0.961 . S
C680 C681 1.370 . S
C680 C682 1.363 . S
C680 H696 0.931 . S
C681 C680 1.370 . S
C681 C685 1.408 . S
C682 C680 1.363 . S
C682 C683 1.370 . S
C682 C686 1.524 . S
C683 C675 1.503 . S
C683 C682 1.370 . S
C683 C684 1.403 . S
C684 C683 1.403 . S
C684 C685 1.404 . S
C684 C687 1.539 . S
C685 C681 1.408 . S
C685 C684 1.404 . S
C685 H697 0.930 . S
C686 C682 1.524 . S
C686 H698 0.956 . S
C686 H699 0.961 . S
C686 H700 0.961 . S
C687 C684 1.539 . S
C687 H701 0.958 . S
C687 H702 0.961 . S
C687 H703 0.960 . S
H688 C672 0.931 . S
H689 C677 0.929 . S
H690 C678 0.960 . S
H691 C678 0.962 . S
H692 C678 0.960 . S
H693 C679 0.961 . S
H694 C679 0.961 . S
H695 C679 0.961 . S
H696 C680 0.931 . S
H697 C685 0.930 . S
H698 C686 0.956 . S
H699 C686 0.961 . S
H700 C686 0.961 . S
H701 C687 0.958 . S
H702 C687 0.961 . S
H703 C687 0.960 . S
C704 C705 1.391 . S
C704 C706 1.394 . S
C704 H720 0.931 . S
C705 C704 1.391 . S
C705 C709 1.376 . S
C706 C704 1.394 . S
C706 C707 1.369 . S
C706 C710 1.531 . S
C707 C706 1.369 . S
C707 C708 1.410 . S
C707 C715 1.503 . S
C708 C707 1.410 . S
C708 C709 1.392 . S
C708 C711 1.511 . S
C709 C705 1.376 . S
C709 C708 1.392 . S
C709 H721 0.929 . S
C710 C706 1.531 . S
C710 H722 0.960 . S
C710 H723 0.962 . S
C710 H724 0.960 . S
C711 C708 1.511 . S
C711 H725 0.961 . S
C711 H726 0.961 . S
C711 H727 0.961 . S
C712 C713 1.370 . S
C712 C714 1.363 . S
C712 H728 0.931 . S
C713 C712 1.370 . S
C713 C717 1.408 . S
C714 C712 1.363 . S
C714 C715 1.370 . S
C714 C718 1.524 . S
C715 C707 1.503 . S
C715 C714 1.370 . S
C715 C716 1.403 . S
C716 C715 1.403 . S
C716 C717 1.404 . S
C716 C719 1.539 . S
C717 C713 1.408 . S
C717 C716 1.404 . S
C717 H729 0.930 . S
C718 C714 1.524 . S
C718 H730 0.956 . S
C718 H731 0.961 . S
C718 H732 0.961 . S
C719 C716 1.539 . S
C719 H733 0.958 . S
C719 H734 0.961 . S
C719 H735 0.960 . S
H720 C704 0.931 . S
H721 C709 0.929 . S
H722 C710 0.960 . S
H723 C710 0.962 . S
H724 C710 0.960 . S
H725 C711 0.961 . S
H726 C711 0.961 . S
H727 C711 0.961 . S
H728 C712 0.931 . S
H729 C717 0.930 . S
H730 C718 0.956 . S
H731 C718 0.961 . S
H732 C718 0.961 . S
H733 C719 0.958 . S
H734 C719 0.961 . S
H735 C719 0.960 . S
C736 C737 1.391 . S
C736 C738 1.394 . S
C736 H752 0.931 . S
C737 C736 1.391 . S
C737 C741 1.376 . S
C738 C736 1.394 . S
C738 C739 1.369 . S
C738 C742 1.531 . S
C739 C738 1.369 . S
C739 C740 1.410 . S
C739 C747 1.503 . S
C740 C739 1.410 . S
C740 C741 1.392 . S
C740 C743 1.511 . S
C741 C737 1.376 . S
C741 C740 1.392 . S
C741 H753 0.929 . S
C742 C738 1.531 . S
C742 H754 0.960 . S
C742 H755 0.962 . S
C742 H756 0.960 . S
C743 C740 1.511 . S
C743 H757 0.961 . S
C743 H758 0.961 . S
C743 H759 0.961 . S
C744 C745 1.370 . S
C744 C746 1.363 . S
C744 H760 0.931 . S
C745 C744 1.370 . S
C745 C749 1.408 . S
C746 C744 1.363 . S
C746 C747 1.370 . S
C746 C750 1.524 . S
C747 C739 1.503 . S
C747 C746 1.370 . S
C747 C748 1.403 . S
C748 C747 1.403 . S
C748 C749 1.404 . S
C748 C751 1.539 . S
C749 C745 1.408 . S
C749 C748 1.404 . S
C749 H761 0.930 . S
C750 C746 1.524 . S
C750 H762 0.956 . S
C750 H763 0.961 . S
C750 H764 0.961 . S
C751 C748 1.539 . S
C751 H765 0.958 . S
C751 H766 0.961 . S
C751 H767 0.960 . S
H752 C736 0.931 . S
H753 C741 0.929 . S
H754 C742 0.960 . S
H755 C742 0.962 . S
H756 C742 0.960 . S
H757 C743 0.961 . S
H758 C743 0.961 . S
H759 C743 0.961 . S
H760 C744 0.931 . S
H761 C749 0.930 . S
H762 C750 0.956 . S
H763 C750 0.961 . S
H764 C750 0.961 . S
H765 C751 0.958 . S
H766 C751 0.961 . S
H767 C751 0.960 . S
C768 C769 1.391 . S
C768 C770 1.394 . S
C768 H784 0.931 . S
C769 C768 1.391 . S
C769 C773 1.376 . S
C770 C768 1.394 . S
C770 C771 1.369 . S
C770 C774 1.531 . S
C771 C770 1.369 . S
C771 C772 1.410 . S
C771 C779 1.503 . S
C772 C771 1.410 . S
C772 C773 1.392 . S
C772 C775 1.511 . S
C773 C769 1.376 . S
C773 C772 1.392 . S
C773 H785 0.929 . S
C774 C770 1.531 . S
C774 H786 0.960 . S
C774 H787 0.962 . S
C774 H788 0.960 . S
C775 C772 1.511 . S
C775 H789 0.961 . S
C775 H790 0.961 . S
C775 H791 0.961 . S
C776 C777 1.370 . S
C776 C778 1.363 . S
C776 H792 0.931 . S
C777 C776 1.370 . S
C777 C781 1.408 . S
C778 C776 1.363 . S
C778 C779 1.370 . S
C778 C782 1.524 . S
C779 C771 1.503 . S
C779 C778 1.370 . S
C779 C780 1.403 . S
C780 C779 1.403 . S
C780 C781 1.404 . S
C780 C783 1.539 . S
C781 C777 1.408 . S
C781 C780 1.404 . S
C781 H793 0.930 . S
C782 C778 1.524 . S
C782 H794 0.956 . S
C782 H795 0.961 . S
C782 H796 0.961 . S
C783 C780 1.539 . S
C783 H797 0.958 . S
C783 H798 0.961 . S
C783 H799 0.960 . S
H784 C768 0.931 . S
H785 C773 0.929 . S
H786 C774 0.960 . S
H787 C774 0.962 . S
H788 C774 0.960 . S
H789 C775 0.961 . S
H790 C775 0.961 . S
H791 C775 0.961 . S
H792 C776 0.931 . S
H793 C781 0.930 . S
H794 C782 0.956 . S
H795 C782 0.961 . S
H796 C782 0.961 . S
H797 C783 0.958 . S
H798 C783 0.961 . S
H799 C783 0.960 . S
C800 C801 1.391 . S
C800 C802 1.394 . S
C800 H816 0.931 . S
C801 C800 1.391 . S
C801 C805 1.376 . S
C802 C800 1.394 . S
C802 C803 1.369 . S
C802 C806 1.531 . S
C803 C802 1.369 . S
C803 C804 1.410 . S
C803 C811 1.503 . S
C804 C803 1.410 . S
C804 C805 1.392 . S
C804 C807 1.511 . S
C805 C801 1.376 . S
C805 C804 1.392 . S
C805 H817 0.929 . S
C806 C802 1.531 . S
C806 H818 0.960 . S
C806 H819 0.962 . S
C806 H820 0.960 . S
C807 C804 1.511 . S
C807 H821 0.961 . S
C807 H822 0.961 . S
C807 H823 0.961 . S
C808 C809 1.370 . S
C808 C810 1.363 . S
C808 H824 0.931 . S
C809 C808 1.370 . S
C809 C813 1.408 . S
C810 C808 1.363 . S
C810 C811 1.370 . S
C810 C814 1.524 . S
C811 C803 1.503 . S
C811 C810 1.370 . S
C811 C812 1.403 . S
C812 C811 1.403 . S
C812 C813 1.404 . S
C812 C815 1.539 . S
C813 C809 1.408 . S
C813 C812 1.404 . S
C813 H825 0.930 . S
C814 C810 1.524 . S
C814 H826 0.956 . S
C814 H827 0.961 . S
C814 H828 0.961 . S
C815 C812 1.539 . S
C815 H829 0.958 . S
C815 H830 0.961 . S
C815 H831 0.960 . S
H816 C800 0.931 . S
H817 C805 0.929 . S
H818 C806 0.960 . S
H819 C806 0.962 . S
H820 C806 0.960 . S
H821 C807 0.961 . S
H822 C807 0.961 . S
H823 C807 0.961 . S
H824 C808 0.931 . S
H825 C813 0.930 . S
H826 C814 0.956 . S
H827 C814 0.961 . S
H828 C814 0.961 . S
H829 C815 0.958 . S
H830 C815 0.961 . S
H831 C815 0.960 . S
C832 C833 1.391 . S
C832 C834 1.394 . S
C832 H848 0.931 . S
C833 C832 1.391 . S
C833 C837 1.376 . S
C834 C832 1.394 . S
C834 C835 1.369 . S
C834 C838 1.531 . S
C835 C834 1.369 . S
C835 C836 1.410 . S
C835 C843 1.503 . S
C836 C835 1.410 . S
C836 C837 1.392 . S
C836 C839 1.511 . S
C837 C833 1.376 . S
C837 C836 1.392 . S
C837 H849 0.929 . S
C838 C834 1.531 . S
C838 H850 0.960 . S
C838 H851 0.962 . S
C838 H852 0.960 . S
C839 C836 1.511 . S
C839 H853 0.961 . S
C839 H854 0.961 . S
C839 H855 0.961 . S
C840 C841 1.370 . S
C840 C842 1.363 . S
C840 H856 0.931 . S
C841 C840 1.370 . S
C841 C845 1.408 . S
C842 C840 1.363 . S
C842 C843 1.370 . S
C842 C846 1.524 . S
C843 C835 1.503 . S
C843 C842 1.370 . S
C843 C844 1.403 . S
C844 C843 1.403 . S
C844 C845 1.404 . S
C844 C847 1.539 . S
C845 C841 1.408 . S
C845 C844 1.404 . S
C845 H857 0.930 . S
C846 C842 1.524 . S
C846 H858 0.956 . S
C846 H859 0.961 . S
C846 H860 0.961 . S
C847 C844 1.539 . S
C847 H861 0.958 . S
C847 H862 0.961 . S
C847 H863 0.960 . S
H848 C832 0.931 . S
H849 C837 0.929 . S
H850 C838 0.960 . S
H851 C838 0.962 . S
H852 C838 0.960 . S
H853 C839 0.961 . S
H854 C839 0.961 . S
H855 C839 0.961 . S
H856 C840 0.931 . S
H857 C845 0.930 . S
H858 C846 0.956 . S
H859 C846 0.961 . S
H860 C846 0.961 . S
H861 C847 0.958 . S
H862 C847 0.961 . S
H863 C847 0.960 . S
C864 C865 1.391 . S
C864 C866 1.394 . S
C864 H880 0.931 . S
C865 C864 1.391 . S
C865 C869 1.376 . S
C866 C864 1.394 . S
C866 C867 1.369 . S
C866 C870 1.531 . S
C867 C866 1.369 . S
C867 C868 1.410 . S
C867 C875 1.503 . S
C868 C867 1.410 . S
C868 C869 1.392 . S
C868 C871 1.511 . S
C869 C865 1.376 . S
C869 C868 1.392 . S
C869 H881 0.929 . S
C870 C866 1.531 . S
C870 H882 0.960 . S
C870 H883 0.962 . S
C870 H884 0.960 . S
C871 C868 1.511 . S
C871 H885 0.961 . S
C871 H886 0.961 . S
C871 H887 0.961 . S
C872 C873 1.370 . S
C872 C874 1.363 . S
C872 H888 0.931 . S
C873 C872 1.370 . S
C873 C877 1.408 . S
C874 C872 1.363 . S
C874 C875 1.370 . S
C874 C878 1.524 . S
C875 C867 1.503 . S
C875 C874 1.370 . S
C875 C876 1.403 . S
C876 C875 1.403 . S
C876 C877 1.404 . S
C876 C879 1.539 . S
C877 C873 1.408 . S
C877 C876 1.404 . S
C877 H889 0.930 . S
C878 C874 1.524 . S
C878 H890 0.956 . S
C878 H891 0.961 . S
C878 H892 0.961 . S
C879 C876 1.539 . S
C879 H893 0.958 . S
C879 H894 0.961 . S
C879 H895 0.960 . S
H880 C864 0.931 . S
H881 C869 0.929 . S
H882 C870 0.960 . S
H883 C870 0.962 . S
H884 C870 0.960 . S
H885 C871 0.961 . S
H886 C871 0.961 . S
H887 C871 0.961 . S
H888 C872 0.931 . S
H889 C877 0.930 . S
H890 C878 0.956 . S
H891 C878 0.961 . S
H892 C878 0.961 . S
H893 C879 0.958 . S
H894 C879 0.961 . S
H895 C879 0.960 . S
C896 C897 1.391 . S
C896 C898 1.394 . S
C896 H912 0.931 . S
C897 C896 1.391 . S
C897 C901 1.376 . S
C898 C896 1.394 . S
C898 C899 1.369 . S
C898 C902 1.531 . S
C899 C898 1.369 . S
C899 C900 1.410 . S
C899 C907 1.503 . S
C900 C899 1.410 . S
C900 C901 1.392 . S
C900 C903 1.511 . S
C901 C897 1.376 . S
C901 C900 1.392 . S
C901 H913 0.929 . S
C902 C898 1.531 . S
C902 H914 0.960 . S
C902 H915 0.962 . S
C902 H916 0.960 . S
C903 C900 1.511 . S
C903 H917 0.961 . S
C903 H918 0.961 . S
C903 H919 0.961 . S
C904 C905 1.370 . S
C904 C906 1.363 . S
C904 H920 0.931 . S
C905 C904 1.370 . S
C905 C909 1.408 . S
C906 C904 1.363 . S
C906 C907 1.370 . S
C906 C910 1.524 . S
C907 C899 1.503 . S
C907 C906 1.370 . S
C907 C908 1.403 . S
C908 C907 1.403 . S
C908 C909 1.404 . S
C908 C911 1.539 . S
C909 C905 1.408 . S
C909 C908 1.404 . S
C909 H921 0.930 . S
C910 C906 1.524 . S
C910 H922 0.956 . S
C910 H923 0.961 . S
C910 H924 0.961 . S
C911 C908 1.539 . S
C911 H925 0.958 . S
C911 H926 0.961 . S
C911 H927 0.960 . S
H912 C896 0.931 . S
H913 C901 0.929 . S
H914 C902 0.960 . S
H915 C902 0.962 . S
H916 C902 0.960 . S
H917 C903 0.961 . S
H918 C903 0.961 . S
H919 C903 0.961 . S
H920 C904 0.931 . S
H921 C909 0.930 . S
H922 C910 0.956 . S
H923 C910 0.961 . S
H924 C910 0.961 . S
H925 C911 0.958 . S
H926 C911 0.961 . S
H927 C911 0.960 . S
C928 C929 1.391 . S
C928 C930 1.394 . S
C928 H944 0.931 . S
C929 C928 1.391 . S
C929 C933 1.376 . S
C930 C928 1.394 . S
C930 C931 1.369 . S
C930 C934 1.531 . S
C931 C930 1.369 . S
C931 C932 1.410 . S
C931 C939 1.503 1_655 S
C932 C931 1.410 . S
C932 C933 1.392 . S
C932 C935 1.511 . S
C933 C929 1.376 . S
C933 C932 1.392 . S
C933 H945 0.929 . S
C934 C930 1.531 . S
C934 H946 0.960 . S
C934 H947 0.962 . S
C934 H948 0.960 . S
C935 C932 1.511 . S
C935 H949 0.961 . S
C935 H950 0.961 . S
C935 H951 0.961 . S
C936 C937 1.370 . S
C936 C938 1.363 . S
C936 H952 0.931 . S
C937 C936 1.370 . S
C937 C941 1.408 . S
C938 C936 1.363 . S
C938 C939 1.370 . S
C938 C942 1.524 . S
C939 C931 1.503 1_455 S
C939 C938 1.370 . S
C939 C940 1.403 . S
C940 C939 1.403 . S
C940 C941 1.404 . S
C940 C943 1.539 . S
C941 C937 1.408 . S
C941 C940 1.404 . S
C941 H953 0.930 . S
C942 C938 1.524 . S
C942 H954 0.956 1_455 S
C942 H955 0.961 1_455 S
C942 H956 0.961 . S
C943 C940 1.539 . S
C943 H957 0.958 . S
C943 H958 0.961 . S
C943 H959 0.960 1_455 S
H944 C928 0.931 . S
H945 C933 0.929 . S
H946 C934 0.960 . S
H947 C934 0.962 . S
H948 C934 0.960 . S
H949 C935 0.961 . S
H950 C935 0.961 . S
H951 C935 0.961 . S
H952 C936 0.931 . S
H953 C941 0.930 . S
H954 C942 0.956 1_655 S
H955 C942 0.961 1_655 S
H956 C942 0.961 . S
H957 C943 0.958 . S
H958 C943 0.961 . S
H959 C943 0.960 1_655 S
C960 C961 1.391 . S
C960 C962 1.394 . S
C960 H976 0.931 . S
C961 C960 1.391 . S
C961 C965 1.376 . S
C962 C960 1.394 . S
C962 C963 1.369 . S
C962 C966 1.531 . S
C963 C962 1.369 . S
C963 C964 1.410 . S
C963 C971 1.503 1_545 S
C964 C963 1.410 . S
C964 C965 1.392 . S
C964 C967 1.511 . S
C965 C961 1.376 . S
C965 C964 1.392 . S
C965 H977 0.929 . S
C966 C962 1.531 . S
C966 H978 0.960 . S
C966 H979 0.962 . S
C966 H980 0.960 . S
C967 C964 1.511 . S
C967 H981 0.961 . S
C967 H982 0.961 . S
C967 H983 0.961 . S
C968 C969 1.370 . S
C968 C970 1.363 . S
C968 H984 0.931 . S
C969 C968 1.370 . S
C969 C973 1.408 . S
C970 C968 1.363 . S
C970 C971 1.370 . S
C970 C974 1.524 1_565 S
C971 C963 1.503 1_565 S
C971 C970 1.370 . S
C971 C972 1.403 . S
C972 C971 1.403 . S
C972 C973 1.404 . S
C972 C975 1.539 . S
C973 C969 1.408 . S
C973 C972 1.404 . S
C973 H985 0.930 . S
C974 C970 1.524 1_545 S
C974 H986 0.956 . S
C974 H987 0.961 . S
C974 H988 0.961 1_545 S
C975 C972 1.539 . S
C975 H989 0.958 . S
C975 H990 0.961 . S
C975 H991 0.960 1_565 S
H976 C960 0.931 . S
H977 C965 0.929 . S
H978 C966 0.960 . S
H979 C966 0.962 . S
H980 C966 0.960 . S
H981 C967 0.961 . S
H982 C967 0.961 . S
H983 C967 0.961 . S
H984 C968 0.931 . S
H985 C973 0.930 . S
H986 C974 0.956 . S
H987 C974 0.961 . S
H988 C974 0.961 1_565 S
H989 C975 0.958 . S
H990 C975 0.961 . S
H991 C975 0.960 1_545 S
C992 C993 1.391 . S
C992 C994 1.394 . S
C992 H1008 0.931 . S
C993 C992 1.391 . S
C993 C997 1.376 . S
C994 C992 1.394 . S
C994 C995 1.369 . S
C994 C998 1.531 . S
C995 C994 1.369 . S
C995 C996 1.410 . S
C995 C1003 1.503 1_455 S
C996 C995 1.410 . S
C996 C997 1.392 . S
C996 C999 1.511 . S
C997 C993 1.376 . S
C997 C996 1.392 . S
C997 H1009 0.929 . S
C998 C994 1.531 . S
C998 H1010 0.960 . S
C998 H1011 0.962 . S
C998 H1012 0.960 . S
C999 C996 1.511 . S
C999 H1013 0.961 . S
C999 H1014 0.961 . S
C999 H1015 0.961 . S
C1000 C1001 1.370 . S
C1000 C1002 1.363 . S
C1000 H1016 0.931 . S
C1001 C1000 1.370 . S
C1001 C1005 1.408 . S
C1002 C1000 1.363 . S
C1002 C1003 1.370 . S
C1002 C1006 1.524 . S
C1003 C995 1.503 1_655 S
C1003 C1002 1.370 . S
C1003 C1004 1.403 . S
C1004 C1003 1.403 . S
C1004 C1005 1.404 . S
C1004 C1007 1.539 . S
C1005 C1001 1.408 . S
C1005 C1004 1.404 . S
C1005 H1017 0.930 . S
C1006 C1002 1.524 . S
C1006 H1018 0.956 1_655 S
C1006 H1019 0.961 1_655 S
C1006 H1020 0.961 . S
C1007 C1004 1.539 . S
C1007 H1021 0.958 . S
C1007 H1022 0.961 . S
C1007 H1023 0.960 1_655 S
H1008 C992 0.931 . S
H1009 C997 0.929 . S
H1010 C998 0.960 . S
H1011 C998 0.962 . S
H1012 C998 0.960 . S
H1013 C999 0.961 . S
H1014 C999 0.961 . S
H1015 C999 0.961 . S
H1016 C1000 0.931 . S
H1017 C1005 0.930 . S
H1018 C1006 0.956 1_455 S
H1019 C1006 0.961 1_455 S
H1020 C1006 0.961 . S
H1021 C1007 0.958 . S
H1022 C1007 0.961 . S
H1023 C1007 0.960 1_455 S
C1024 C1025 1.391 . S
C1024 C1026 1.394 . S
C1024 H1040 0.931 . S
C1025 C1024 1.391 . S
C1025 C1029 1.376 . S
C1026 C1024 1.394 . S
C1026 C1027 1.369 . S
C1026 C1030 1.531 . S
C1027 C1026 1.369 . S
C1027 C1028 1.410 . S
C1027 C1035 1.503 1_565 S
C1028 C1027 1.410 . S
C1028 C1029 1.392 . S
C1028 C1031 1.511 . S
C1029 C1025 1.376 . S
C1029 C1028 1.392 . S
C1029 H1041 0.929 . S
C1030 C1026 1.531 . S
C1030 H1042 0.960 . S
C1030 H1043 0.962 . S
C1030 H1044 0.960 . S
C1031 C1028 1.511 . S
C1031 H1045 0.961 . S
C1031 H1046 0.961 . S
C1031 H1047 0.961 . S
C1032 C1033 1.370 . S
C1032 C1034 1.363 . S
C1032 H1048 0.931 . S
C1033 C1032 1.370 . S
C1033 C1037 1.408 . S
C1034 C1032 1.363 . S
C1034 C1035 1.370 . S
C1034 C1038 1.524 1_545 S
C1035 C1027 1.503 1_545 S
C1035 C1034 1.370 . S
C1035 C1036 1.403 . S
C1036 C1035 1.403 . S
C1036 C1037 1.404 . S
C1036 C1039 1.539 . S
C1037 C1033 1.408 . S
C1037 C1036 1.404 . S
C1037 H1049 0.930 . S
C1038 C1034 1.524 1_565 S
C1038 H1050 0.956 . S
C1038 H1051 0.961 . S
C1038 H1052 0.961 1_565 S
C1039 C1036 1.539 . S
C1039 H1053 0.958 . S
C1039 H1054 0.961 . S
C1039 H1055 0.960 1_545 S
H1040 C1024 0.931 . S
H1041 C1029 0.929 . S
H1042 C1030 0.960 . S
H1043 C1030 0.962 . S
H1044 C1030 0.960 . S
H1045 C1031 0.961 . S
H1046 C1031 0.961 . S
H1047 C1031 0.961 . S
H1048 C1032 0.931 . S
H1049 C1037 0.930 . S
H1050 C1038 0.956 . S
H1051 C1038 0.961 . S
H1052 C1038 0.961 1_545 S
H1053 C1039 0.958 . S
H1054 C1039 0.961 . S
H1055 C1039 0.960 1_565 S
C1056 C1057 1.391 . S
C1056 C1058 1.394 . S
C1056 H1072 0.931 . S
C1057 C1056 1.391 . S
C1057 C1061 1.376 . S
C1058 C1056 1.394 . S
C1058 C1059 1.369 . S
C1058 C1062 1.531 . S
C1059 C1058 1.369 . S
C1059 C1060 1.410 . S
C1059 C1067 1.503 1_455 S
C1060 C1059 1.410 . S
C1060 C1061 1.392 . S
C1060 C1063 1.511 . S
C1061 C1057 1.376 . S
C1061 C1060 1.392 . S
C1061 H1073 0.929 . S
C1062 C1058 1.531 . S
C1062 H1074 0.960 1_455 S
C1062 H1075 0.962 . S
C1062 H1076 0.960 . S
C1063 C1060 1.511 . S
C1063 H1077 0.961 . S
C1063 H1078 0.961 1_455 S
C1063 H1079 0.961 . S
C1064 C1065 1.370 . S
C1064 C1066 1.363 . S
C1064 H1080 0.931 . S
C1065 C1064 1.370 . S
C1065 C1069 1.408 . S
C1066 C1064 1.363 . S
C1066 C1067 1.370 . S
C1066 C1070 1.524 . S
C1067 C1059 1.503 1_655 S
C1067 C1066 1.370 . S
C1067 C1068 1.403 . S
C1068 C1067 1.403 . S
C1068 C1069 1.404 . S
C1068 C1071 1.539 . S
C1069 C1065 1.408 . S
C1069 C1068 1.404 . S
C1069 H1081 0.930 . S
C1070 C1066 1.524 . S
C1070 H1082 0.956 . S
C1070 H1083 0.961 . S
C1070 H1084 0.961 . S
C1071 C1068 1.539 . S
C1071 H1085 0.958 . S
C1071 H1086 0.961 . S
C1071 H1087 0.960 . S
H1072 C1056 0.931 . S
H1073 C1061 0.929 . S
H1074 C1062 0.960 1_655 S
H1075 C1062 0.962 . S
H1076 C1062 0.960 . S
H1077 C1063 0.961 . S
H1078 C1063 0.961 1_655 S
H1079 C1063 0.961 . S
H1080 C1064 0.931 . S
H1081 C1069 0.930 . S
H1082 C1070 0.956 . S
H1083 C1070 0.961 . S
H1084 C1070 0.961 . S
H1085 C1071 0.958 . S
H1086 C1071 0.961 . S
H1087 C1071 0.960 . S
C1088 C1089 1.391 . S
C1088 C1090 1.394 . S
C1088 H1104 0.931 . S
C1089 C1088 1.391 . S
C1089 C1093 1.376 . S
C1090 C1088 1.394 . S
C1090 C1091 1.369 . S
C1090 C1094 1.531 1_565 S
C1091 C1090 1.369 . S
C1091 C1092 1.410 . S
C1091 C1099 1.503 1_565 S
C1092 C1091 1.410 . S
C1092 C1093 1.392 . S
C1092 C1095 1.511 . S
C1093 C1089 1.376 . S
C1093 C1092 1.392 . S
C1093 H1105 0.929 . S
C1094 C1090 1.531 1_545 S
C1094 H1106 0.960 . S
C1094 H1107 0.962 . S
C1094 H1108 0.960 1_545 S
C1095 C1092 1.511 . S
C1095 H1109 0.961 . S
C1095 H1110 0.961 1_565 S
C1095 H1111 0.961 . S
C1096 C1097 1.370 . S
C1096 C1098 1.363 . S
C1096 H1112 0.931 . S
C1097 C1096 1.370 . S
C1097 C1101 1.408 . S
C1098 C1096 1.363 . S
C1098 C1099 1.370 . S
C1098 C1102 1.524 . S
C1099 C1091 1.503 1_545 S
C1099 C1098 1.370 . S
C1099 C1100 1.403 . S
C1100 C1099 1.403 . S
C1100 C1101 1.404 . S
C1100 C1103 1.539 . S
C1101 C1097 1.408 . S
C1101 C1100 1.404 . S
C1101 H1113 0.930 . S
C1102 C1098 1.524 . S
C1102 H1114 0.956 . S
C1102 H1115 0.961 . S
C1102 H1116 0.961 . S
C1103 C1100 1.539 . S
C1103 H1117 0.958 . S
C1103 H1118 0.961 . S
C1103 H1119 0.960 . S
H1104 C1088 0.931 . S
H1105 C1093 0.929 . S
H1106 C1094 0.960 . S
H1107 C1094 0.962 . S
H1108 C1094 0.960 1_565 S
H1109 C1095 0.961 . S
H1110 C1095 0.961 1_545 S
H1111 C1095 0.961 . S
H1112 C1096 0.931 . S
H1113 C1101 0.930 . S
H1114 C1102 0.956 . S
H1115 C1102 0.961 . S
H1116 C1102 0.961 . S
H1117 C1103 0.958 . S
H1118 C1103 0.961 . S
H1119 C1103 0.960 . S
C1120 C1121 1.391 . S
C1120 C1122 1.394 . S
C1120 H1136 0.931 . S
C1121 C1120 1.391 . S
C1121 C1125 1.376 . S
C1122 C1120 1.394 . S
C1122 C1123 1.369 . S
C1122 C1126 1.531 . S
C1123 C1122 1.369 . S
C1123 C1124 1.410 . S
C1123 C1131 1.503 1_455 S
C1124 C1123 1.410 . S
C1124 C1125 1.392 . S
C1124 C1127 1.511 . S
C1125 C1121 1.376 . S
C1125 C1124 1.392 . S
C1125 H1137 0.929 . S
C1126 C1122 1.531 . S
C1126 H1138 0.960 . S
C1126 H1139 0.962 . S
C1126 H1140 0.960 . S
C1127 C1124 1.511 . S
C1127 H1141 0.961 . S
C1127 H1142 0.961 . S
C1127 H1143 0.961 . S
C1128 C1129 1.370 . S
C1128 C1130 1.363 . S
C1128 H1144 0.931 . S
C1129 C1128 1.370 . S
C1129 C1133 1.408 . S
C1130 C1128 1.363 . S
C1130 C1131 1.370 . S
C1130 C1134 1.524 . S
C1131 C1123 1.503 1_655 S
C1131 C1130 1.370 . S
C1131 C1132 1.403 . S
C1132 C1131 1.403 . S
C1132 C1133 1.404 . S
C1132 C1135 1.539 . S
C1133 C1129 1.408 . S
C1133 C1132 1.404 . S
C1133 H1145 0.930 . S
C1134 C1130 1.524 . S
C1134 H1146 0.956 1_655 S
C1134 H1147 0.961 1_655 S
C1134 H1148 0.961 . S
C1135 C1132 1.539 . S
C1135 H1149 0.958 . S
C1135 H1150 0.961 . S
C1135 H1151 0.960 1_655 S
H1136 C1120 0.931 . S
H1137 C1125 0.929 . S
H1138 C1126 0.960 . S
H1139 C1126 0.962 . S
H1140 C1126 0.960 . S
H1141 C1127 0.961 . S
H1142 C1127 0.961 . S
H1143 C1127 0.961 . S
H1144 C1128 0.931 . S
H1145 C1133 0.930 . S
H1146 C1134 0.956 1_455 S
H1147 C1134 0.961 1_455 S
H1148 C1134 0.961 . S
H1149 C1135 0.958 . S
H1150 C1135 0.961 . S
H1151 C1135 0.960 1_455 S
C1152 C1153 1.391 . S
C1152 C1154 1.394 . S
C1152 H1168 0.931 . S
C1153 C1152 1.391 . S
C1153 C1157 1.376 . S
C1154 C1152 1.394 . S
C1154 C1155 1.369 . S
C1154 C1158 1.531 . S
C1155 C1154 1.369 . S
C1155 C1156 1.410 . S
C1155 C1163 1.503 1_545 S
C1156 C1155 1.410 . S
C1156 C1157 1.392 . S
C1156 C1159 1.511 1_545 S
C1157 C1153 1.376 . S
C1157 C1156 1.392 . S
C1157 H1169 0.929 . S
C1158 C1154 1.531 . S
C1158 H1170 0.960 1_545 S
C1158 H1171 0.962 . S
C1158 H1172 0.960 . S
C1159 C1156 1.511 1_565 S
C1159 H1173 0.961 1_565 S
C1159 H1174 0.961 . S
C1159 H1175 0.961 . S
C1160 C1161 1.370 . S
C1160 C1162 1.363 . S
C1160 H1176 0.931 . S
C1161 C1160 1.370 . S
C1161 C1165 1.408 . S
C1162 C1160 1.363 . S
C1162 C1163 1.370 . S
C1162 C1166 1.524 . S
C1163 C1155 1.503 1_565 S
C1163 C1162 1.370 . S
C1163 C1164 1.403 . S
C1164 C1163 1.403 . S
C1164 C1165 1.404 . S
C1164 C1167 1.539 . S
C1165 C1161 1.408 . S
C1165 C1164 1.404 . S
C1165 H1177 0.930 . S
C1166 C1162 1.524 . S
C1166 H1178 0.956 . S
C1166 H1179 0.961 . S
C1166 H1180 0.961 . S
C1167 C1164 1.539 . S
C1167 H1181 0.958 . S
C1167 H1182 0.961 . S
C1167 H1183 0.960 . S
H1168 C1152 0.931 . S
H1169 C1157 0.929 . S
H1170 C1158 0.960 1_565 S
H1171 C1158 0.962 . S
H1172 C1158 0.960 . S
H1173 C1159 0.961 1_545 S
H1174 C1159 0.961 . S
H1175 C1159 0.961 . S
H1176 C1160 0.931 . S
H1177 C1165 0.930 . S
H1178 C1166 0.956 . S
H1179 C1166 0.961 . S
H1180 C1166 0.961 . S
H1181 C1167 0.958 . S
H1182 C1167 0.961 . S
H1183 C1167 0.960 . S
C1184 C1185 1.391 . S
C1184 C1186 1.394 . S
C1184 H1200 0.931 . S
C1185 C1184 1.391 . S
C1185 C1189 1.376 . S
C1186 C1184 1.394 . S
C1186 C1187 1.369 . S
C1186 C1190 1.531 . S
C1187 C1186 1.369 . S
C1187 C1188 1.410 . S
C1187 C1195 1.503 . S
C1188 C1187 1.410 . S
C1188 C1189 1.392 . S
C1188 C1191 1.511 . S
C1189 C1185 1.376 . S
C1189 C1188 1.392 . S
C1189 H1201 0.929 . S
C1190 C1186 1.531 . S
C1190 H1202 0.960 . S
C1190 H1203 0.962 . S
C1190 H1204 0.960 . S
C1191 C1188 1.511 . S
C1191 H1205 0.961 . S
C1191 H1206 0.961 . S
C1191 H1207 0.961 . S
C1192 C1193 1.370 . S
C1192 C1194 1.363 . S
C1192 H1208 0.931 . S
C1193 C1192 1.370 . S
C1193 C1197 1.408 . S
C1194 C1192 1.363 . S
C1194 C1195 1.370 . S
C1194 C1198 1.524 . S
C1195 C1187 1.503 . S
C1195 C1194 1.370 . S
C1195 C1196 1.403 . S
C1196 C1195 1.403 . S
C1196 C1197 1.404 . S
C1196 C1199 1.539 . S
C1197 C1193 1.408 . S
C1197 C1196 1.404 . S
C1197 H1209 0.930 . S
C1198 C1194 1.524 . S
C1198 H1210 0.956 . S
C1198 H1211 0.961 . S
C1198 H1212 0.961 . S
C1199 C1196 1.539 . S
C1199 H1213 0.958 . S
C1199 H1214 0.961 . S
C1199 H1215 0.960 . S
H1200 C1184 0.931 . S
H1201 C1189 0.929 . S
H1202 C1190 0.960 . S
H1203 C1190 0.962 . S
H1204 C1190 0.960 . S
H1205 C1191 0.961 . S
H1206 C1191 0.961 . S
H1207 C1191 0.961 . S
H1208 C1192 0.931 . S
H1209 C1197 0.930 . S
H1210 C1198 0.956 . S
H1211 C1198 0.961 . S
H1212 C1198 0.961 . S
H1213 C1199 0.958 . S
H1214 C1199 0.961 . S
H1215 C1199 0.960 . S
C1216 C1217 1.391 . S
C1216 C1218 1.394 . S
C1216 H1232 0.931 . S
C1217 C1216 1.391 . S
C1217 C1221 1.376 . S
C1218 C1216 1.394 . S
C1218 C1219 1.369 . S
C1218 C1222 1.531 . S
C1219 C1218 1.369 . S
C1219 C1220 1.410 . S
C1219 C1227 1.503 . S
C1220 C1219 1.410 . S
C1220 C1221 1.392 . S
C1220 C1223 1.511 . S
C1221 C1217 1.376 . S
C1221 C1220 1.392 . S
C1221 H1233 0.929 . S
C1222 C1218 1.531 . S
C1222 H1234 0.960 . S
C1222 H1235 0.962 . S
C1222 H1236 0.960 . S
C1223 C1220 1.511 . S
C1223 H1237 0.961 . S
C1223 H1238 0.961 . S
C1223 H1239 0.961 . S
C1224 C1225 1.370 . S
C1224 C1226 1.363 . S
C1224 H1240 0.931 . S
C1225 C1224 1.370 . S
C1225 C1229 1.408 . S
C1226 C1224 1.363 . S
C1226 C1227 1.370 . S
C1226 C1230 1.524 . S
C1227 C1219 1.503 . S
C1227 C1226 1.370 . S
C1227 C1228 1.403 . S
C1228 C1227 1.403 . S
C1228 C1229 1.404 . S
C1228 C1231 1.539 . S
C1229 C1225 1.408 . S
C1229 C1228 1.404 . S
C1229 H1241 0.930 . S
C1230 C1226 1.524 . S
C1230 H1242 0.956 . S
C1230 H1243 0.961 . S
C1230 H1244 0.961 . S
C1231 C1228 1.539 . S
C1231 H1245 0.958 . S
C1231 H1246 0.961 . S
C1231 H1247 0.960 . S
H1232 C1216 0.931 . S
H1233 C1221 0.929 . S
H1234 C1222 0.960 . S
H1235 C1222 0.962 . S
H1236 C1222 0.960 . S
H1237 C1223 0.961 . S
H1238 C1223 0.961 . S
H1239 C1223 0.961 . S
H1240 C1224 0.931 . S
H1241 C1229 0.930 . S
H1242 C1230 0.956 . S
H1243 C1230 0.961 . S
H1244 C1230 0.961 . S
H1245 C1231 0.958 . S
H1246 C1231 0.961 . S
H1247 C1231 0.960 . S
C1248 C1249 1.391 . S
C1248 C1250 1.394 . S
C1248 H1264 0.931 . S
C1249 C1248 1.391 . S
C1249 C1253 1.376 . S
C1250 C1248 1.394 . S
C1250 C1251 1.369 . S
C1250 C1254 1.531 . S
C1251 C1250 1.369 . S
C1251 C1252 1.410 . S
C1251 C1259 1.503 . S
C1252 C1251 1.410 . S
C1252 C1253 1.392 . S
C1252 C1255 1.511 . S
C1253 C1249 1.376 . S
C1253 C1252 1.392 . S
C1253 H1265 0.929 . S
C1254 C1250 1.531 . S
C1254 H1266 0.960 . S
C1254 H1267 0.962 . S
C1254 H1268 0.960 . S
C1255 C1252 1.511 . S
C1255 H1269 0.961 . S
C1255 H1270 0.961 . S
C1255 H1271 0.961 . S
C1256 C1257 1.370 . S
C1256 C1258 1.363 . S
C1256 H1272 0.931 . S
C1257 C1256 1.370 . S
C1257 C1261 1.408 . S
C1258 C1256 1.363 . S
C1258 C1259 1.370 . S
C1258 C1262 1.524 . S
C1259 C1251 1.503 . S
C1259 C1258 1.370 . S
C1259 C1260 1.403 . S
C1260 C1259 1.403 . S
C1260 C1261 1.404 . S
C1260 C1263 1.539 . S
C1261 C1257 1.408 . S
C1261 C1260 1.404 . S
C1261 H1273 0.930 . S
C1262 C1258 1.524 . S
C1262 H1274 0.956 . S
C1262 H1275 0.961 . S
C1262 H1276 0.961 . S
C1263 C1260 1.539 . S
C1263 H1277 0.958 . S
C1263 H1278 0.961 . S
C1263 H1279 0.960 . S
H1264 C1248 0.931 . S
H1265 C1253 0.929 . S
H1266 C1254 0.960 . S
H1267 C1254 0.962 . S
H1268 C1254 0.960 . S
H1269 C1255 0.961 . S
H1270 C1255 0.961 . S
H1271 C1255 0.961 . S
H1272 C1256 0.931 . S
H1273 C1261 0.930 . S
H1274 C1262 0.956 . S
H1275 C1262 0.961 . S
H1276 C1262 0.961 . S
H1277 C1263 0.958 . S
H1278 C1263 0.961 . S
H1279 C1263 0.960 . S
C1280 C1281 1.391 . S
C1280 C1282 1.394 . S
C1280 H1296 0.931 . S
C1281 C1280 1.391 . S
C1281 C1285 1.376 . S
C1282 C1280 1.394 . S
C1282 C1283 1.369 . S
C1282 C1286 1.531 . S
C1283 C1282 1.369 . S
C1283 C1284 1.410 . S
C1283 C1291 1.503 . S
C1284 C1283 1.410 . S
C1284 C1285 1.392 . S
C1284 C1287 1.511 . S
C1285 C1281 1.376 . S
C1285 C1284 1.392 . S
C1285 H1297 0.929 . S
C1286 C1282 1.531 . S
C1286 H1298 0.960 . S
C1286 H1299 0.962 . S
C1286 H1300 0.960 . S
C1287 C1284 1.511 . S
C1287 H1301 0.961 . S
C1287 H1302 0.961 . S
C1287 H1303 0.961 . S
C1288 C1289 1.370 . S
C1288 C1290 1.363 . S
C1288 H1304 0.931 . S
C1289 C1288 1.370 . S
C1289 C1293 1.408 . S
C1290 C1288 1.363 . S
C1290 C1291 1.370 . S
C1290 C1294 1.524 . S
C1291 C1283 1.503 . S
C1291 C1290 1.370 . S
C1291 C1292 1.403 . S
C1292 C1291 1.403 . S
C1292 C1293 1.404 . S
C1292 C1295 1.539 . S
C1293 C1289 1.408 . S
C1293 C1292 1.404 . S
C1293 H1305 0.930 . S
C1294 C1290 1.524 . S
C1294 H1306 0.956 . S
C1294 H1307 0.961 . S
C1294 H1308 0.961 . S
C1295 C1292 1.539 . S
C1295 H1309 0.958 . S
C1295 H1310 0.961 . S
C1295 H1311 0.960 . S
H1296 C1280 0.931 . S
H1297 C1285 0.929 . S
H1298 C1286 0.960 . S
H1299 C1286 0.962 . S
H1300 C1286 0.960 . S
H1301 C1287 0.961 . S
H1302 C1287 0.961 . S
H1303 C1287 0.961 . S
H1304 C1288 0.931 . S
H1305 C1293 0.930 . S
H1306 C1294 0.956 . S
H1307 C1294 0.961 . S
H1308 C1294 0.961 . S
H1309 C1295 0.958 . S
H1310 C1295 0.961 . S
H1311 C1295 0.960 . S
C1312 C1313 1.391 . S
C1312 C1314 1.394 . S
C1312 H1328 0.931 . S
C1313 C1312 1.391 . S
C1313 C1317 1.376 . S
C1314 C1312 1.394 . S
C1314 C1315 1.369 . S
C1314 C1318 1.531 . S
C1315 C1314 1.369 . S
C1315 C1316 1.410 . S
C1315 C1323 1.503 . S
C1316 C1315 1.410 . S
C1316 C1317 1.392 . S
C1316 C1319 1.511 . S
C1317 C1313 1.376 . S
C1317 C1316 1.392 . S
C1317 H1329 0.929 . S
C1318 C1314 1.531 . S
C1318 H1330 0.960 . S
C1318 H1331 0.962 . S
C1318 H1332 0.960 . S
C1319 C1316 1.511 . S
C1319 H1333 0.961 . S
C1319 H1334 0.961 . S
C1319 H1335 0.961 . S
C1320 C1321 1.370 . S
C1320 C1322 1.363 . S
C1320 H1336 0.931 . S
C1321 C1320 1.370 . S
C1321 C1325 1.408 . S
C1322 C1320 1.363 . S
C1322 C1323 1.370 . S
C1322 C1326 1.524 . S
C1323 C1315 1.503 . S
C1323 C1322 1.370 . S
C1323 C1324 1.403 . S
C1324 C1323 1.403 . S
C1324 C1325 1.404 . S
C1324 C1327 1.539 . S
C1325 C1321 1.408 . S
C1325 C1324 1.404 . S
C1325 H1337 0.930 . S
C1326 C1322 1.524 . S
C1326 H1338 0.956 . S
C1326 H1339 0.961 . S
C1326 H1340 0.961 . S
C1327 C1324 1.539 . S
C1327 H1341 0.958 . S
C1327 H1342 0.961 . S
C1327 H1343 0.960 . S
H1328 C1312 0.931 . S
H1329 C1317 0.929 . S
H1330 C1318 0.960 . S
H1331 C1318 0.962 . S
H1332 C1318 0.960 . S
H1333 C1319 0.961 . S
H1334 C1319 0.961 . S
H1335 C1319 0.961 . S
H1336 C1320 0.931 . S
H1337 C1325 0.930 . S
H1338 C1326 0.956 . S
H1339 C1326 0.961 . S
H1340 C1326 0.961 . S
H1341 C1327 0.958 . S
H1342 C1327 0.961 . S
H1343 C1327 0.960 . S
C1344 C1345 1.391 . S
C1344 C1346 1.394 . S
C1344 H1360 0.931 . S
C1345 C1344 1.391 . S
C1345 C1349 1.376 . S
C1346 C1344 1.394 . S
C1346 C1347 1.369 . S
C1346 C1350 1.531 . S
C1347 C1346 1.369 . S
C1347 C1348 1.410 . S
C1347 C1355 1.503 . S
C1348 C1347 1.410 . S
C1348 C1349 1.392 . S
C1348 C1351 1.511 . S
C1349 C1345 1.376 . S
C1349 C1348 1.392 . S
C1349 H1361 0.929 . S
C1350 C1346 1.531 . S
C1350 H1362 0.960 . S
C1350 H1363 0.962 . S
C1350 H1364 0.960 . S
C1351 C1348 1.511 . S
C1351 H1365 0.961 . S
C1351 H1366 0.961 . S
C1351 H1367 0.961 . S
C1352 C1353 1.370 . S
C1352 C1354 1.363 . S
C1352 H1368 0.931 . S
C1353 C1352 1.370 . S
C1353 C1357 1.408 . S
C1354 C1352 1.363 . S
C1354 C1355 1.370 . S
C1354 C1358 1.524 . S
C1355 C1347 1.503 . S
C1355 C1354 1.370 . S
C1355 C1356 1.403 . S
C1356 C1355 1.403 . S
C1356 C1357 1.404 . S
C1356 C1359 1.539 . S
C1357 C1353 1.408 . S
C1357 C1356 1.404 . S
C1357 H1369 0.930 . S
C1358 C1354 1.524 . S
C1358 H1370 0.956 . S
C1358 H1371 0.961 . S
C1358 H1372 0.961 . S
C1359 C1356 1.539 . S
C1359 H1373 0.958 . S
C1359 H1374 0.961 . S
C1359 H1375 0.960 . S
H1360 C1344 0.931 . S
H1361 C1349 0.929 . S
H1362 C1350 0.960 . S
H1363 C1350 0.962 . S
H1364 C1350 0.960 . S
H1365 C1351 0.961 . S
H1366 C1351 0.961 . S
H1367 C1351 0.961 . S
H1368 C1352 0.931 . S
H1369 C1357 0.930 . S
H1370 C1358 0.956 . S
H1371 C1358 0.961 . S
H1372 C1358 0.961 . S
H1373 C1359 0.958 . S
H1374 C1359 0.961 . S
H1375 C1359 0.960 . S
C1376 C1377 1.391 . S
C1376 C1378 1.394 . S
C1376 H1392 0.931 . S
C1377 C1376 1.391 . S
C1377 C1381 1.376 . S
C1378 C1376 1.394 . S
C1378 C1379 1.369 . S
C1378 C1382 1.531 . S
C1379 C1378 1.369 . S
C1379 C1380 1.410 . S
C1379 C1387 1.503 . S
C1380 C1379 1.410 . S
C1380 C1381 1.392 . S
C1380 C1383 1.511 . S
C1381 C1377 1.376 . S
C1381 C1380 1.392 . S
C1381 H1393 0.929 . S
C1382 C1378 1.531 . S
C1382 H1394 0.960 . S
C1382 H1395 0.962 . S
C1382 H1396 0.960 . S
C1383 C1380 1.511 . S
C1383 H1397 0.961 . S
C1383 H1398 0.961 . S
C1383 H1399 0.961 . S
C1384 C1385 1.370 . S
C1384 C1386 1.363 . S
C1384 H1400 0.931 . S
C1385 C1384 1.370 . S
C1385 C1389 1.408 . S
C1386 C1384 1.363 . S
C1386 C1387 1.370 . S
C1386 C1390 1.524 . S
C1387 C1379 1.503 . S
C1387 C1386 1.370 . S
C1387 C1388 1.403 . S
C1388 C1387 1.403 . S
C1388 C1389 1.404 . S
C1388 C1391 1.539 . S
C1389 C1385 1.408 . S
C1389 C1388 1.404 . S
C1389 H1401 0.930 . S
C1390 C1386 1.524 . S
C1390 H1402 0.956 . S
C1390 H1403 0.961 . S
C1390 H1404 0.961 . S
C1391 C1388 1.539 . S
C1391 H1405 0.958 . S
C1391 H1406 0.961 . S
C1391 H1407 0.960 . S
H1392 C1376 0.931 . S
H1393 C1381 0.929 . S
H1394 C1382 0.960 . S
H1395 C1382 0.962 . S
H1396 C1382 0.960 . S
H1397 C1383 0.961 . S
H1398 C1383 0.961 . S
H1399 C1383 0.961 . S
H1400 C1384 0.931 . S
H1401 C1389 0.930 . S
H1402 C1390 0.956 . S
H1403 C1390 0.961 . S
H1404 C1390 0.961 . S
H1405 C1391 0.958 . S
H1406 C1391 0.961 . S
H1407 C1391 0.960 . S
C1408 C1409 1.391 . S
C1408 C1410 1.394 . S
C1408 H1424 0.931 . S
C1409 C1408 1.391 . S
C1409 C1413 1.376 . S
C1410 C1408 1.394 . S
C1410 C1411 1.369 . S
C1410 C1414 1.531 . S
C1411 C1410 1.369 . S
C1411 C1412 1.410 . S
C1411 C1419 1.503 . S
C1412 C1411 1.410 . S
C1412 C1413 1.392 . S
C1412 C1415 1.511 . S
C1413 C1409 1.376 . S
C1413 C1412 1.392 . S
C1413 H1425 0.929 . S
C1414 C1410 1.531 . S
C1414 H1426 0.960 . S
C1414 H1427 0.962 . S
C1414 H1428 0.960 . S
C1415 C1412 1.511 . S
C1415 H1429 0.961 . S
C1415 H1430 0.961 . S
C1415 H1431 0.961 . S
C1416 C1417 1.370 . S
C1416 C1418 1.363 . S
C1416 H1432 0.931 . S
C1417 C1416 1.370 . S
C1417 C1421 1.408 . S
C1418 C1416 1.363 . S
C1418 C1419 1.370 . S
C1418 C1422 1.524 . S
C1419 C1411 1.503 . S
C1419 C1418 1.370 . S
C1419 C1420 1.403 . S
C1420 C1419 1.403 . S
C1420 C1421 1.404 . S
C1420 C1423 1.539 . S
C1421 C1417 1.408 . S
C1421 C1420 1.404 . S
C1421 H1433 0.930 . S
C1422 C1418 1.524 . S
C1422 H1434 0.956 . S
C1422 H1435 0.961 . S
C1422 H1436 0.961 . S
C1423 C1420 1.539 . S
C1423 H1437 0.958 . S
C1423 H1438 0.961 . S
C1423 H1439 0.960 . S
H1424 C1408 0.931 . S
H1425 C1413 0.929 . S
H1426 C1414 0.960 . S
H1427 C1414 0.962 . S
H1428 C1414 0.960 . S
H1429 C1415 0.961 . S
H1430 C1415 0.961 . S
H1431 C1415 0.961 . S
H1432 C1416 0.931 . S
H1433 C1421 0.930 . S
H1434 C1422 0.956 . S
H1435 C1422 0.961 . S
H1436 C1422 0.961 . S
H1437 C1423 0.958 . S
H1438 C1423 0.961 . S
H1439 C1423 0.960 . S
C1440 C1441 1.391 . S
C1440 C1442 1.394 . S
C1440 H1456 0.931 . S
C1441 C1440 1.391 . S
C1441 C1445 1.376 . S
C1442 C1440 1.394 . S
C1442 C1443 1.369 . S
C1442 C1446 1.531 . S
C1443 C1442 1.369 . S
C1443 C1444 1.410 . S
C1443 C1451 1.503 . S
C1444 C1443 1.410 . S
C1444 C1445 1.392 . S
C1444 C1447 1.511 . S
C1445 C1441 1.376 . S
C1445 C1444 1.392 . S
C1445 H1457 0.929 . S
C1446 C1442 1.531 . S
C1446 H1458 0.960 . S
C1446 H1459 0.962 . S
C1446 H1460 0.960 . S
C1447 C1444 1.511 . S
C1447 H1461 0.961 . S
C1447 H1462 0.961 . S
C1447 H1463 0.961 . S
C1448 C1449 1.370 . S
C1448 C1450 1.363 . S
C1448 H1464 0.931 . S
C1449 C1448 1.370 . S
C1449 C1453 1.408 . S
C1450 C1448 1.363 . S
C1450 C1451 1.370 . S
C1450 C1454 1.524 . S
C1451 C1443 1.503 . S
C1451 C1450 1.370 . S
C1451 C1452 1.403 . S
C1452 C1451 1.403 . S
C1452 C1453 1.404 . S
C1452 C1455 1.539 . S
C1453 C1449 1.408 . S
C1453 C1452 1.404 . S
C1453 H1465 0.930 . S
C1454 C1450 1.524 . S
C1454 H1466 0.956 . S
C1454 H1467 0.961 . S
C1454 H1468 0.961 . S
C1455 C1452 1.539 . S
C1455 H1469 0.958 . S
C1455 H1470 0.961 . S
C1455 H1471 0.960 . S
H1456 C1440 0.931 . S
H1457 C1445 0.929 . S
H1458 C1446 0.960 . S
H1459 C1446 0.962 . S
H1460 C1446 0.960 . S
H1461 C1447 0.961 . S
H1462 C1447 0.961 . S
H1463 C1447 0.961 . S
H1464 C1448 0.931 . S
H1465 C1453 0.930 . S
H1466 C1454 0.956 . S
H1467 C1454 0.961 . S
H1468 C1454 0.961 . S
H1469 C1455 0.958 . S
H1470 C1455 0.961 . S
H1471 C1455 0.960 . S
C1472 C1473 1.391 . S
C1472 C1474 1.394 . S
C1472 H1488 0.931 . S
C1473 C1472 1.391 . S
C1473 C1477 1.376 . S
C1474 C1472 1.394 . S
C1474 C1475 1.369 . S
C1474 C1478 1.531 . S
C1475 C1474 1.369 . S
C1475 C1476 1.410 . S
C1475 C1483 1.503 . S
C1476 C1475 1.410 . S
C1476 C1477 1.392 . S
C1476 C1479 1.511 . S
C1477 C1473 1.376 . S
C1477 C1476 1.392 . S
C1477 H1489 0.929 . S
C1478 C1474 1.531 . S
C1478 H1490 0.960 . S
C1478 H1491 0.962 . S
C1478 H1492 0.960 . S
C1479 C1476 1.511 . S
C1479 H1493 0.961 . S
C1479 H1494 0.961 . S
C1479 H1495 0.961 . S
C1480 C1481 1.370 . S
C1480 C1482 1.363 . S
C1480 H1496 0.931 . S
C1481 C1480 1.370 . S
C1481 C1485 1.408 . S
C1482 C1480 1.363 . S
C1482 C1483 1.370 . S
C1482 C1486 1.524 . S
C1483 C1475 1.503 . S
C1483 C1482 1.370 . S
C1483 C1484 1.403 . S
C1484 C1483 1.403 . S
C1484 C1485 1.404 . S
C1484 C1487 1.539 . S
C1485 C1481 1.408 . S
C1485 C1484 1.404 . S
C1485 H1497 0.930 . S
C1486 C1482 1.524 . S
C1486 H1498 0.956 . S
C1486 H1499 0.961 . S
C1486 H1500 0.961 . S
C1487 C1484 1.539 . S
C1487 H1501 0.958 . S
C1487 H1502 0.961 . S
C1487 H1503 0.960 . S
H1488 C1472 0.931 . S
H1489 C1477 0.929 . S
H1490 C1478 0.960 . S
H1491 C1478 0.962 . S
H1492 C1478 0.960 . S
H1493 C1479 0.961 . S
H1494 C1479 0.961 . S
H1495 C1479 0.961 . S
H1496 C1480 0.931 . S
H1497 C1485 0.930 . S
H1498 C1486 0.956 . S
H1499 C1486 0.961 . S
H1500 C1486 0.961 . S
H1501 C1487 0.958 . S
H1502 C1487 0.961 . S
H1503 C1487 0.960 . S
C1504 C1505 1.391 . S
C1504 C1506 1.394 . S
C1504 H1520 0.931 . S
C1505 C1504 1.391 . S
C1505 C1509 1.376 . S
C1506 C1504 1.394 . S
C1506 C1507 1.369 . S
C1506 C1510 1.531 . S
C1507 C1506 1.369 . S
C1507 C1508 1.410 . S
C1507 C1515 1.503 . S
C1508 C1507 1.410 . S
C1508 C1509 1.392 . S
C1508 C1511 1.511 . S
C1509 C1505 1.376 . S
C1509 C1508 1.392 . S
C1509 H1521 0.929 . S
C1510 C1506 1.531 . S
C1510 H1522 0.960 . S
C1510 H1523 0.962 . S
C1510 H1524 0.960 . S
C1511 C1508 1.511 . S
C1511 H1525 0.961 . S
C1511 H1526 0.961 . S
C1511 H1527 0.961 . S
C1512 C1513 1.370 . S
C1512 C1514 1.363 . S
C1512 H1528 0.931 . S
C1513 C1512 1.370 . S
C1513 C1517 1.408 . S
C1514 C1512 1.363 . S
C1514 C1515 1.370 . S
C1514 C1518 1.524 . S
C1515 C1507 1.503 . S
C1515 C1514 1.370 . S
C1515 C1516 1.403 . S
C1516 C1515 1.403 . S
C1516 C1517 1.404 . S
C1516 C1519 1.539 . S
C1517 C1513 1.408 . S
C1517 C1516 1.404 . S
C1517 H1529 0.930 . S
C1518 C1514 1.524 . S
C1518 H1530 0.956 . S
C1518 H1531 0.961 . S
C1518 H1532 0.961 . S
C1519 C1516 1.539 . S
C1519 H1533 0.958 . S
C1519 H1534 0.961 . S
C1519 H1535 0.960 . S
H1520 C1504 0.931 . S
H1521 C1509 0.929 . S
H1522 C1510 0.960 . S
H1523 C1510 0.962 . S
H1524 C1510 0.960 . S
H1525 C1511 0.961 . S
H1526 C1511 0.961 . S
H1527 C1511 0.961 . S
H1528 C1512 0.931 . S
H1529 C1517 0.930 . S
H1530 C1518 0.956 . S
H1531 C1518 0.961 . S
H1532 C1518 0.961 . S
H1533 C1519 0.958 . S
H1534 C1519 0.961 . S
H1535 C1519 0.960 . S
C1536 C1537 1.391 . S
C1536 C1538 1.394 . S
C1536 H1552 0.931 . S
C1537 C1536 1.391 . S
C1537 C1541 1.376 . S
C1538 C1536 1.394 . S
C1538 C1539 1.369 . S
C1538 C1542 1.531 . S
C1539 C1538 1.369 . S
C1539 C1540 1.410 . S
C1539 C1547 1.503 . S
C1540 C1539 1.410 . S
C1540 C1541 1.392 . S
C1540 C1543 1.511 . S
C1541 C1537 1.376 . S
C1541 C1540 1.392 . S
C1541 H1553 0.929 . S
C1542 C1538 1.531 . S
C1542 H1554 0.960 . S
C1542 H1555 0.962 . S
C1542 H1556 0.960 . S
C1543 C1540 1.511 . S
C1543 H1557 0.961 . S
C1543 H1558 0.961 . S
C1543 H1559 0.961 . S
C1544 C1545 1.370 . S
C1544 C1546 1.363 . S
C1544 H1560 0.931 . S
C1545 C1544 1.370 . S
C1545 C1549 1.408 . S
C1546 C1544 1.363 . S
C1546 C1547 1.370 . S
C1546 C1550 1.524 . S
C1547 C1539 1.503 . S
C1547 C1546 1.370 . S
C1547 C1548 1.403 . S
C1548 C1547 1.403 . S
C1548 C1549 1.404 . S
C1548 C1551 1.539 . S
C1549 C1545 1.408 . S
C1549 C1548 1.404 . S
C1549 H1561 0.930 . S
C1550 C1546 1.524 . S
C1550 H1562 0.956 . S
C1550 H1563 0.961 . S
C1550 H1564 0.961 . S
C1551 C1548 1.539 . S
C1551 H1565 0.958 . S
C1551 H1566 0.961 . S
C1551 H1567 0.960 . S
H1552 C1536 0.931 . S
H1553 C1541 0.929 . S
H1554 C1542 0.960 . S
H1555 C1542 0.962 . S
H1556 C1542 0.960 . S
H1557 C1543 0.961 . S
H1558 C1543 0.961 . S
H1559 C1543 0.961 . S
H1560 C1544 0.931 . S
H1561 C1549 0.930 . S
H1562 C1550 0.956 . S
H1563 C1550 0.961 . S
H1564 C1550 0.961 . S
H1565 C1551 0.958 . S
H1566 C1551 0.961 . S
H1567 C1551 0.960 . S
C1568 C1569 1.391 . S
C1568 C1570 1.394 . S
C1568 H1584 0.931 . S
C1569 C1568 1.391 . S
C1569 C1573 1.376 . S
C1570 C1568 1.394 . S
C1570 C1571 1.369 . S
C1570 C1574 1.531 . S
C1571 C1570 1.369 . S
C1571 C1572 1.410 . S
C1571 C1579 1.503 . S
C1572 C1571 1.410 . S
C1572 C1573 1.392 . S
C1572 C1575 1.511 . S
C1573 C1569 1.376 . S
C1573 C1572 1.392 . S
C1573 H1585 0.929 . S
C1574 C1570 1.531 . S
C1574 H1586 0.960 . S
C1574 H1587 0.962 . S
C1574 H1588 0.960 . S
C1575 C1572 1.511 . S
C1575 H1589 0.961 . S
C1575 H1590 0.961 . S
C1575 H1591 0.961 . S
C1576 C1577 1.370 . S
C1576 C1578 1.363 . S
C1576 H1592 0.931 . S
C1577 C1576 1.370 . S
C1577 C1581 1.408 . S
C1578 C1576 1.363 . S
C1578 C1579 1.370 . S
C1578 C1582 1.524 . S
C1579 C1571 1.503 . S
C1579 C1578 1.370 . S
C1579 C1580 1.403 . S
C1580 C1579 1.403 . S
C1580 C1581 1.404 . S
C1580 C1583 1.539 . S
C1581 C1577 1.408 . S
C1581 C1580 1.404 . S
C1581 H1593 0.930 . S
C1582 C1578 1.524 . S
C1582 H1594 0.956 . S
C1582 H1595 0.961 . S
C1582 H1596 0.961 . S
C1583 C1580 1.539 . S
C1583 H1597 0.958 . S
C1583 H1598 0.961 . S
C1583 H1599 0.960 . S
H1584 C1568 0.931 . S
H1585 C1573 0.929 . S
H1586 C1574 0.960 . S
H1587 C1574 0.962 . S
H1588 C1574 0.960 . S
H1589 C1575 0.961 . S
H1590 C1575 0.961 . S
H1591 C1575 0.961 . S
H1592 C1576 0.931 . S
H1593 C1581 0.930 . S
H1594 C1582 0.956 . S
H1595 C1582 0.961 . S
H1596 C1582 0.961 . S
H1597 C1583 0.958 . S
H1598 C1583 0.961 . S
H1599 C1583 0.960 . S
C1600 C1601 1.391 . S
C1600 C1602 1.394 . S
C1600 H1616 0.931 . S
C1601 C1600 1.391 . S
C1601 C1605 1.376 . S
C1602 C1600 1.394 . S
C1602 C1603 1.369 . S
C1602 C1606 1.531 . S
C1603 C1602 1.369 . S
C1603 C1604 1.410 . S
C1603 C1611 1.503 . S
C1604 C1603 1.410 . S
C1604 C1605 1.392 . S
C1604 C1607 1.511 . S
C1605 C1601 1.376 . S
C1605 C1604 1.392 . S
C1605 H1617 0.929 . S
C1606 C1602 1.531 . S
C1606 H1618 0.960 . S
C1606 H1619 0.962 . S
C1606 H1620 0.960 . S
C1607 C1604 1.511 . S
C1607 H1621 0.961 . S
C1607 H1622 0.961 . S
C1607 H1623 0.961 . S
C1608 C1609 1.370 . S
C1608 C1610 1.363 . S
C1608 H1624 0.931 . S
C1609 C1608 1.370 . S
C1609 C1613 1.408 . S
C1610 C1608 1.363 . S
C1610 C1611 1.370 . S
C1610 C1614 1.524 . S
C1611 C1603 1.503 . S
C1611 C1610 1.370 . S
C1611 C1612 1.403 . S
C1612 C1611 1.403 . S
C1612 C1613 1.404 . S
C1612 C1615 1.539 . S
C1613 C1609 1.408 . S
C1613 C1612 1.404 . S
C1613 H1625 0.930 . S
C1614 C1610 1.524 . S
C1614 H1626 0.956 . S
C1614 H1627 0.961 . S
C1614 H1628 0.961 . S
C1615 C1612 1.539 . S
C1615 H1629 0.958 . S
C1615 H1630 0.961 . S
C1615 H1631 0.960 . S
H1616 C1600 0.931 . S
H1617 C1605 0.929 . S
H1618 C1606 0.960 . S
H1619 C1606 0.962 . S
H1620 C1606 0.960 . S
H1621 C1607 0.961 . S
H1622 C1607 0.961 . S
H1623 C1607 0.961 . S
H1624 C1608 0.931 . S
H1625 C1613 0.930 . S
H1626 C1614 0.956 . S
H1627 C1614 0.961 . S
H1628 C1614 0.961 . S
H1629 C1615 0.958 . S
H1630 C1615 0.961 . S
H1631 C1615 0.960 . S
C1632 C1633 1.391 . S
C1632 C1634 1.394 . S
C1632 H1648 0.931 . S
C1633 C1632 1.391 . S
C1633 C1637 1.376 . S
C1634 C1632 1.394 . S
C1634 C1635 1.369 . S
C1634 C1638 1.531 . S
C1635 C1634 1.369 . S
C1635 C1636 1.410 . S
C1635 C1643 1.503 . S
C1636 C1635 1.410 . S
C1636 C1637 1.392 . S
C1636 C1639 1.511 . S
C1637 C1633 1.376 . S
C1637 C1636 1.392 . S
C1637 H1649 0.929 . S
C1638 C1634 1.531 . S
C1638 H1650 0.960 . S
C1638 H1651 0.962 . S
C1638 H1652 0.960 . S
C1639 C1636 1.511 . S
C1639 H1653 0.961 . S
C1639 H1654 0.961 . S
C1639 H1655 0.961 . S
C1640 C1641 1.370 . S
C1640 C1642 1.363 . S
C1640 H1656 0.931 . S
C1641 C1640 1.370 . S
C1641 C1645 1.408 . S
C1642 C1640 1.363 . S
C1642 C1643 1.370 . S
C1642 C1646 1.524 . S
C1643 C1635 1.503 . S
C1643 C1642 1.370 . S
C1643 C1644 1.403 . S
C1644 C1643 1.403 . S
C1644 C1645 1.404 . S
C1644 C1647 1.539 . S
C1645 C1641 1.408 . S
C1645 C1644 1.404 . S
C1645 H1657 0.930 . S
C1646 C1642 1.524 . S
C1646 H1658 0.956 . S
C1646 H1659 0.961 . S
C1646 H1660 0.961 . S
C1647 C1644 1.539 . S
C1647 H1661 0.958 . S
C1647 H1662 0.961 . S
C1647 H1663 0.960 . S
H1648 C1632 0.931 . S
H1649 C1637 0.929 . S
H1650 C1638 0.960 . S
H1651 C1638 0.962 . S
H1652 C1638 0.960 . S
H1653 C1639 0.961 . S
H1654 C1639 0.961 . S
H1655 C1639 0.961 . S
H1656 C1640 0.931 . S
H1657 C1645 0.930 . S
H1658 C1646 0.956 . S
H1659 C1646 0.961 . S
H1660 C1646 0.961 . S
H1661 C1647 0.958 . S
H1662 C1647 0.961 . S
H1663 C1647 0.960 . S
C1664 C1665 1.391 . S
C1664 C1666 1.394 . S
C1664 H1680 0.931 . S
C1665 C1664 1.391 . S
C1665 C1669 1.376 . S
C1666 C1664 1.394 . S
C1666 C1667 1.369 . S
C1666 C1670 1.531 . S
C1667 C1666 1.369 . S
C1667 C1668 1.410 . S
C1667 C1675 1.503 . S
C1668 C1667 1.410 . S
C1668 C1669 1.392 . S
C1668 C1671 1.511 . S
C1669 C1665 1.376 . S
C1669 C1668 1.392 . S
C1669 H1681 0.929 . S
C1670 C1666 1.531 . S
C1670 H1682 0.960 . S
C1670 H1683 0.962 . S
C1670 H1684 0.960 . S
C1671 C1668 1.511 . S
C1671 H1685 0.961 . S
C1671 H1686 0.961 . S
C1671 H1687 0.961 . S
C1672 C1673 1.370 . S
C1672 C1674 1.363 . S
C1672 H1688 0.931 . S
C1673 C1672 1.370 . S
C1673 C1677 1.408 . S
C1674 C1672 1.363 . S
C1674 C1675 1.370 . S
C1674 C1678 1.524 . S
C1675 C1667 1.503 . S
C1675 C1674 1.370 . S
C1675 C1676 1.403 . S
C1676 C1675 1.403 . S
C1676 C1677 1.404 . S
C1676 C1679 1.539 . S
C1677 C1673 1.408 . S
C1677 C1676 1.404 . S
C1677 H1689 0.930 . S
C1678 C1674 1.524 . S
C1678 H1690 0.956 . S
C1678 H1691 0.961 . S
C1678 H1692 0.961 . S
C1679 C1676 1.539 . S
C1679 H1693 0.958 . S
C1679 H1694 0.961 . S
C1679 H1695 0.960 . S
H1680 C1664 0.931 . S
H1681 C1669 0.929 . S
H1682 C1670 0.960 . S
H1683 C1670 0.962 . S
H1684 C1670 0.960 . S
H1685 C1671 0.961 . S
H1686 C1671 0.961 . S
H1687 C1671 0.961 . S
H1688 C1672 0.931 . S
H1689 C1677 0.930 . S
H1690 C1678 0.956 . S
H1691 C1678 0.961 . S
H1692 C1678 0.961 . S
H1693 C1679 0.958 . S
H1694 C1679 0.961 . S
H1695 C1679 0.960 . S
C1696 C1697 1.391 . S
C1696 C1698 1.394 . S
C1696 H1712 0.931 . S
C1697 C1696 1.391 . S
C1697 C1701 1.376 . S
C1698 C1696 1.394 . S
C1698 C1699 1.369 . S
C1698 C1702 1.531 . S
C1699 C1698 1.369 . S
C1699 C1700 1.410 . S
C1699 C1707 1.503 1_554 S
C1700 C1699 1.410 . S
C1700 C1701 1.392 . S
C1700 C1703 1.511 . S
C1701 C1697 1.376 . S
C1701 C1700 1.392 . S
C1701 H1713 0.929 . S
C1702 C1698 1.531 . S
C1702 H1714 0.960 1_554 S
C1702 H1715 0.962 . S
C1702 H1716 0.960 . S
C1703 C1700 1.511 . S
C1703 H1717 0.961 . S
C1703 H1718 0.961 1_554 S
C1703 H1719 0.961 . S
C1704 C1705 1.370 . S
C1704 C1706 1.363 . S
C1704 H1720 0.931 . S
C1705 C1704 1.370 . S
C1705 C1709 1.408 . S
C1706 C1704 1.363 . S
C1706 C1707 1.370 . S
C1706 C1710 1.524 . S
C1707 C1699 1.503 1_556 S
C1707 C1706 1.370 . S
C1707 C1708 1.403 . S
C1708 C1707 1.403 . S
C1708 C1709 1.404 . S
C1708 C1711 1.539 . S
C1709 C1705 1.408 . S
C1709 C1708 1.404 . S
C1709 H1721 0.930 . S
C1710 C1706 1.524 . S
C1710 H1722 0.956 . S
C1710 H1723 0.966 . S
C1710 H1724 0.961 . S
C1711 C1708 1.539 . S
C1711 H1725 0.958 . S
C1711 H1726 0.961 . S
C1711 H1727 0.960 . S
H1712 C1696 0.931 . S
H1713 C1701 0.929 . S
H1714 C1702 0.960 1_556 S
H1715 C1702 0.962 . S
H1716 C1702 0.960 . S
H1717 C1703 0.961 . S
H1718 C1703 0.961 1_556 S
H1719 C1703 0.961 . S
H1720 C1704 0.931 . S
H1721 C1709 0.930 . S
H1722 C1710 0.956 . S
H1723 C1710 0.966 . S
H1724 C1710 0.961 . S
H1725 C1711 0.958 . S
H1726 C1711 0.961 . S
H1727 C1711 0.960 . S
C1728 C1729 1.391 . S
C1728 C1730 1.394 . S
C1728 H1744 0.931 . S
C1729 C1728 1.391 . S
C1729 C1733 1.376 . S
C1730 C1728 1.394 . S
C1730 C1731 1.369 . S
C1730 C1734 1.531 . S
C1731 C1730 1.369 . S
C1731 C1732 1.410 . S
C1731 C1739 1.503 1_556 S
C1732 C1731 1.410 . S
C1732 C1733 1.392 . S
C1732 C1735 1.511 1_556 S
C1733 C1729 1.376 . S
C1733 C1732 1.392 . S
C1733 H1745 0.929 . S
C1734 C1730 1.531 . S
C1734 H1746 0.960 1_556 S
C1734 H1747 0.962 1_556 S
C1734 H1748 0.960 . S
C1735 C1732 1.511 1_554 S
C1735 H1749 0.961 1_554 S
C1735 H1750 0.961 . S
C1735 H1751 0.961 . S
C1736 C1737 1.370 . S
C1736 C1738 1.363 . S
C1736 H1752 0.931 . S
C1737 C1736 1.370 . S
C1737 C1741 1.408 . S
C1738 C1736 1.363 . S
C1738 C1739 1.370 . S
C1738 C1742 1.524 . S
C1739 C1731 1.503 1_554 S
C1739 C1738 1.370 . S
C1739 C1740 1.403 . S
C1740 C1739 1.403 . S
C1740 C1741 1.404 . S
C1740 C1743 1.539 . S
C1741 C1737 1.408 . S
C1741 C1740 1.404 . S
C1741 H1753 0.930 . S
C1742 C1738 1.524 . S
C1742 H1754 0.956 . S
C1742 H1755 0.961 . S
C1742 H1756 0.961 . S
C1743 C1740 1.539 . S
C1743 H1757 0.958 . S
C1743 H1758 0.961 . S
C1743 H1759 0.960 . S
H1744 C1728 0.931 . S
H1745 C1733 0.929 . S
H1746 C1734 0.960 1_554 S
H1747 C1734 0.962 1_554 S
H1748 C1734 0.960 . S
H1749 C1735 0.961 1_556 S
H1750 C1735 0.961 . S
H1751 C1735 0.961 . S
H1752 C1736 0.931 . S
H1753 C1741 0.930 . S
H1754 C1742 0.956 . S
H1755 C1742 0.961 . S
H1756 C1742 0.961 . S
H1757 C1743 0.958 . S
H1758 C1743 0.961 . S
H1759 C1743 0.960 . S
C1760 C1761 1.391 . S
C1760 C1762 1.394 . S
C1760 H1776 0.931 . S
C1761 C1760 1.391 . S
C1761 C1765 1.376 . S
C1762 C1760 1.394 . S
C1762 C1763 1.369 . S
C1762 C1766 1.531 . S
C1763 C1762 1.369 . S
C1763 C1764 1.410 . S
C1763 C1771 1.503 1_554 S
C1764 C1763 1.410 . S
C1764 C1765 1.392 . S
C1764 C1767 1.511 . S
C1765 C1761 1.376 . S
C1765 C1764 1.392 . S
C1765 H1777 0.929 . S
C1766 C1762 1.531 . S
C1766 H1778 0.960 1_554 S
C1766 H1779 0.962 . S
C1766 H1780 0.960 . S
C1767 C1764 1.511 . S
C1767 H1781 0.961 . S
C1767 H1782 0.961 1_554 S
C1767 H1783 0.961 . S
C1768 C1769 1.370 . S
C1768 C1770 1.363 . S
C1768 H1784 0.931 . S
C1769 C1768 1.370 . S
C1769 C1773 1.408 . S
C1770 C1768 1.363 . S
C1770 C1771 1.370 . S
C1770 C1774 1.524 . S
C1771 C1763 1.503 1_556 S
C1771 C1770 1.370 . S
C1771 C1772 1.403 . S
C1772 C1771 1.403 . S
C1772 C1773 1.404 . S
C1772 C1775 1.539 . S
C1773 C1769 1.408 . S
C1773 C1772 1.404 . S
C1773 H1785 0.930 . S
C1774 C1770 1.524 . S
C1774 H1786 0.956 . S
C1774 H1787 0.961 1_556 S
C1774 H1788 0.961 . S
C1775 C1772 1.539 . S
C1775 H1789 0.958 . S
C1775 H1790 0.961 . S
C1775 H1791 0.960 . S
H1776 C1760 0.931 . S
H1777 C1765 0.929 . S
H1778 C1766 0.960 1_556 S
H1779 C1766 0.962 . S
H1780 C1766 0.960 . S
H1781 C1767 0.961 . S
H1782 C1767 0.961 1_556 S
H1783 C1767 0.961 . S
H1784 C1768 0.931 . S
H1785 C1773 0.930 . S
H1786 C1774 0.956 . S
H1787 C1774 0.961 1_554 S
H1788 C1774 0.961 . S
H1789 C1775 0.958 . S
H1790 C1775 0.961 . S
H1791 C1775 0.960 . S
C1792 C1793 1.391 . S
C1792 C1794 1.394 . S
C1792 H1808 0.931 . S
C1793 C1792 1.391 . S
C1793 C1797 1.376 . S
C1794 C1792 1.394 . S
C1794 C1795 1.369 . S
C1794 C1798 1.531 . S
C1795 C1794 1.369 . S
C1795 C1796 1.410 . S
C1795 C1803 1.503 1_554 S
C1796 C1795 1.410 . S
C1796 C1797 1.392 . S
C1796 C1799 1.511 . S
C1797 C1793 1.376 . S
C1797 C1796 1.392 . S
C1797 H1809 0.929 . S
C1798 C1794 1.531 . S
C1798 H1810 0.960 . S
C1798 H1811 0.962 . S
C1798 H1812 0.960 . S
C1799 C1796 1.511 . S
C1799 H1813 0.961 . S
C1799 H1814 0.961 . S
C1799 H1815 0.961 . S
C1800 C1801 1.370 . S
C1800 C1802 1.363 . S
C1800 H1816 0.931 . S
C1801 C1800 1.370 . S
C1801 C1805 1.408 . S
C1802 C1800 1.363 . S
C1802 C1803 1.370 . S
C1802 C1806 1.524 1_556 S
C1803 C1795 1.503 1_556 S
C1803 C1802 1.370 . S
C1803 C1804 1.403 . S
C1804 C1803 1.403 . S
C1804 C1805 1.404 . S
C1804 C1807 1.539 . S
C1805 C1801 1.408 . S
C1805 C1804 1.404 . S
C1805 H1817 0.930 . S
C1806 C1802 1.524 1_554 S
C1806 H1818 0.956 . S
C1806 H1819 0.961 . S
C1806 H1820 0.961 1_554 S
C1807 C1804 1.539 . S
C1807 H1821 0.958 . S
C1807 H1822 0.961 . S
C1807 H1823 0.960 1_556 S
H1808 C1792 0.931 . S
H1809 C1797 0.929 . S
H1810 C1798 0.960 . S
H1811 C1798 0.962 . S
H1812 C1798 0.960 . S
H1813 C1799 0.961 . S
H1814 C1799 0.961 . S
H1815 C1799 0.961 . S
H1816 C1800 0.931 . S
H1817 C1805 0.930 . S
H1818 C1806 0.956 . S
H1819 C1806 0.961 . S
H1820 C1806 0.961 1_556 S
H1821 C1807 0.958 . S
H1822 C1807 0.961 . S
H1823 C1807 0.960 1_554 S
C1824 C1825 1.391 . S
C1824 C1826 1.394 . S
C1824 H1840 0.931 . S
C1825 C1824 1.391 . S
C1825 C1829 1.376 . S
C1826 C1824 1.394 . S
C1826 C1827 1.369 . S
C1826 C1830 1.531 . S
C1827 C1826 1.369 . S
C1827 C1828 1.410 . S
C1827 C1835 1.503 1_554 S
C1828 C1827 1.410 . S
C1828 C1829 1.392 . S
C1828 C1831 1.511 . S
C1829 C1825 1.376 . S
C1829 C1828 1.392 . S
C1829 H1841 0.929 . S
C1830 C1826 1.531 . S
C1830 H1842 0.960 . S
C1830 H1843 0.962 . S
C1830 H1844 0.960 . S
C1831 C1828 1.511 . S
C1831 H1845 0.961 . S
C1831 H1846 0.961 1_554 S
C1831 H1847 0.961 . S
C1832 C1833 1.370 . S
C1832 C1834 1.363 . S
C1832 H1848 0.931 . S
C1833 C1832 1.370 . S
C1833 C1837 1.408 . S
C1834 C1832 1.363 . S
C1834 C1835 1.370 . S
C1834 C1838 1.524 . S
C1835 C1827 1.503 1_556 S
C1835 C1834 1.370 . S
C1835 C1836 1.403 . S
C1836 C1835 1.403 . S
C1836 C1837 1.404 . S
C1836 C1839 1.539 . S
C1837 C1833 1.408 . S
C1837 C1836 1.404 . S
C1837 H1849 0.930 . S
C1838 C1834 1.524 . S
C1838 H1850 0.956 1_556 S
C1838 H1851 0.961 1_556 S
C1838 H1852 0.961 . S
C1839 C1836 1.539 . S
C1839 H1853 0.958 . S
C1839 H1854 0.961 . S
C1839 H1855 0.960 1_556 S
H1840 C1824 0.931 . S
H1841 C1829 0.929 . S
H1842 C1830 0.960 . S
H1843 C1830 0.962 . S
H1844 C1830 0.960 . S
H1845 C1831 0.961 . S
H1846 C1831 0.961 1_556 S
H1847 C1831 0.961 . S
H1848 C1832 0.931 . S
H1849 C1837 0.930 . S
H1850 C1838 0.956 1_554 S
H1851 C1838 0.961 1_554 S
H1852 C1838 0.961 . S
H1853 C1839 0.958 . S
H1854 C1839 0.961 . S
H1855 C1839 0.960 1_554 S
C1856 C1857 1.391 . S
C1856 C1858 1.394 . S
C1856 H1872 0.931 . S
C1857 C1856 1.391 . S
C1857 C1861 1.376 . S
C1858 C1856 1.394 . S
C1858 C1859 1.369 . S
C1858 C1862 1.531 . S
C1859 C1858 1.369 . S
C1859 C1860 1.410 . S
C1859 C1867 1.503 1_554 S
C1860 C1859 1.410 . S
C1860 C1861 1.392 . S
C1860 C1863 1.504 1_554 S
C1861 C1857 1.376 . S
C1861 C1860 1.392 . S
C1861 H1873 0.929 . S
C1862 C1858 1.531 . S
C1862 H1874 0.960 1_554 S
C1862 H1875 0.962 . S
C1862 H1876 0.960 . S
C1863 C1860 1.504 1_556 S
C1863 H1877 0.954 1_556 S
C1863 H1878 0.973 . S
C1863 H1879 0.963 . S
C1864 C1865 1.370 . S
C1864 C1866 1.363 . S
C1864 H1880 0.931 . S
C1865 C1864 1.370 . S
C1865 C1869 1.408 . S
C1866 C1864 1.363 . S
C1866 C1867 1.370 . S
C1866 C1870 1.524 . S
C1867 C1859 1.503 1_556 S
C1867 C1866 1.370 . S
C1867 C1868 1.403 . S
C1868 C1867 1.403 . S
C1868 C1869 1.404 . S
C1868 C1871 1.539 . S
C1869 C1865 1.408 . S
C1869 C1868 1.404 . S
C1869 H1881 0.930 . S
C1870 C1866 1.524 . S
C1870 H1882 0.956 . S
C1870 H1883 0.961 . S
C1870 H1884 0.961 . S
C1871 C1868 1.539 . S
C1871 H1885 0.958 . S
C1871 H1886 0.961 . S
C1871 H1887 0.960 . S
H1872 C1856 0.931 . S
H1873 C1861 0.929 . S
H1874 C1862 0.960 1_556 S
H1875 C1862 0.962 . S
H1876 C1862 0.960 . S
H1877 C1863 0.954 1_554 S
H1878 C1863 0.973 . S
H1879 C1863 0.963 . S
H1880 C1864 0.931 . S
H1881 C1869 0.930 . S
H1882 C1870 0.956 . S
H1883 C1870 0.961 . S
H1884 C1870 0.961 . S
H1885 C1871 0.958 . S
H1886 C1871 0.961 . S
H1887 C1871 0.960 . S
C1888 C1889 1.391 . S
C1888 C1890 1.394 . S
C1888 H1904 0.931 . S
C1889 C1888 1.391 . S
C1889 C1893 1.376 . S
C1890 C1888 1.394 . S
C1890 C1891 1.369 . S
C1890 C1894 1.531 . S
C1891 C1890 1.369 . S
C1891 C1892 1.410 . S
C1891 C1899 1.503 1_556 S
C1892 C1891 1.410 . S
C1892 C1893 1.392 . S
C1892 C1895 1.511 . S
C1893 C1889 1.376 . S
C1893 C1892 1.392 . S
C1893 H1905 0.929 . S
C1894 C1890 1.531 . S
C1894 H1906 0.960 1_556 S
C1894 H1907 0.962 . S
C1894 H1908 0.960 . S
C1895 C1892 1.511 . S
C1895 H1909 0.961 . S
C1895 H1910 0.961 1_556 S
C1895 H1911 0.961 . S
C1896 C1897 1.370 . S
C1896 C1898 1.363 . S
C1896 H1912 0.931 . S
C1897 C1896 1.370 . S
C1897 C1901 1.408 . S
C1898 C1896 1.363 . S
C1898 C1899 1.370 . S
C1898 C1902 1.524 . S
C1899 C1891 1.503 1_554 S
C1899 C1898 1.370 . S
C1899 C1900 1.403 . S
C1900 C1899 1.403 . S
C1900 C1901 1.404 . S
C1900 C1903 1.539 . S
C1901 C1897 1.408 . S
C1901 C1900 1.404 . S
C1901 H1913 0.930 . S
C1902 C1898 1.524 . S
C1902 H1914 0.956 . S
C1902 H1915 0.961 . S
C1902 H1916 0.961 . S
C1903 C1900 1.539 . S
C1903 H1917 0.958 . S
C1903 H1918 0.961 . S
C1903 H1919 0.977 . S
H1904 C1888 0.931 . S
H1905 C1893 0.929 . S
H1906 C1894 0.960 1_554 S
H1907 C1894 0.962 . S
H1908 C1894 0.960 . S
H1909 C1895 0.961 . S
H1910 C1895 0.961 1_554 S
H1911 C1895 0.961 . S
H1912 C1896 0.931 . S
H1913 C1901 0.930 . S
H1914 C1902 0.956 . S
H1915 C1902 0.961 . S
H1916 C1902 0.961 . S
H1917 C1903 0.958 . S
H1918 C1903 0.961 . S
H1919 C1903 0.977 . S
C1920 C1921 1.391 . S
C1920 C1922 1.394 . S
C1920 H1936 0.931 . S
C1921 C1920 1.391 . S
C1921 C1925 1.376 . S
C1922 C1920 1.394 . S
C1922 C1923 1.369 . S
C1922 C1926 1.531 . S
C1923 C1922 1.369 . S
C1923 C1924 1.410 . S
C1923 C1931 1.503 1_556 S
C1924 C1923 1.410 . S
C1924 C1925 1.392 . S
C1924 C1927 1.511 . S
C1925 C1921 1.376 . S
C1925 C1924 1.392 . S
C1925 H1937 0.929 . S
C1926 C1922 1.531 . S
C1926 H1938 0.960 . S
C1926 H1939 0.962 . S
C1926 H1940 0.960 . S
C1927 C1924 1.511 . S
C1927 H1941 0.961 . S
C1927 H1942 0.961 . S
C1927 H1943 0.961 . S
C1928 C1929 1.370 . S
C1928 C1930 1.363 . S
C1928 H1944 0.931 . S
C1929 C1928 1.370 . S
C1929 C1933 1.408 . S
C1930 C1928 1.363 . S
C1930 C1931 1.370 . S
C1930 C1934 1.524 1_554 S
C1931 C1923 1.503 1_554 S
C1931 C1930 1.370 . S
C1931 C1932 1.403 . S
C1932 C1931 1.403 . S
C1932 C1933 1.404 . S
C1932 C1935 1.539 . S
C1933 C1929 1.408 . S
C1933 C1932 1.404 . S
C1933 H1945 0.930 . S
C1934 C1930 1.524 1_556 S
C1934 H1946 0.956 . S
C1934 H1947 0.961 . S
C1934 H1948 0.961 1_556 S
C1935 C1932 1.539 . S
C1935 H1949 0.958 . S
C1935 H1950 0.961 . S
C1935 H1951 0.960 1_554 S
H1936 C1920 0.931 . S
H1937 C1925 0.929 . S
H1938 C1926 0.960 . S
H1939 C1926 0.962 . S
H1940 C1926 0.960 . S
H1941 C1927 0.961 . S
H1942 C1927 0.961 . S
H1943 C1927 0.961 . S
H1944 C1928 0.931 . S
H1945 C1933 0.930 . S
H1946 C1934 0.956 . S
H1947 C1934 0.961 . S
H1948 C1934 0.961 1_554 S
H1949 C1935 0.958 . S
H1950 C1935 0.961 . S
H1951 C1935 0.960 1_556 S
C1952 C1953 1.391 . S
C1952 C1954 1.394 . S
C1952 H1968 0.931 . S
C1953 C1952 1.391 . S
C1953 C1957 1.376 . S
C1954 C1952 1.394 . S
C1954 C1955 1.369 . S
C1954 C1958 1.531 . S
C1955 C1954 1.369 . S
C1955 C1956 1.410 . S
C1955 C1963 1.503 . S
C1956 C1955 1.410 . S
C1956 C1957 1.392 . S
C1956 C1959 1.511 . S
C1957 C1953 1.376 . S
C1957 C1956 1.392 . S
C1957 H1969 0.929 . S
C1958 C1954 1.531 . S
C1958 H1970 0.960 . S
C1958 H1971 0.962 . S
C1958 H1972 0.960 . S
C1959 C1956 1.511 . S
C1959 H1973 0.961 . S
C1959 H1974 0.961 . S
C1959 H1975 0.961 . S
C1960 C1961 1.370 . S
C1960 C1962 1.363 . S
C1960 H1976 0.931 . S
C1961 C1960 1.370 . S
C1961 C1965 1.408 . S
C1962 C1960 1.363 . S
C1962 C1963 1.370 . S
C1962 C1966 1.524 . S
C1963 C1955 1.503 . S
C1963 C1962 1.370 . S
C1963 C1964 1.403 . S
C1964 C1963 1.403 . S
C1964 C1965 1.404 . S
C1964 C1967 1.539 . S
C1965 C1961 1.408 . S
C1965 C1964 1.404 . S
C1965 H1977 0.930 . S
C1966 C1962 1.524 . S
C1966 H1978 0.956 . S
C1966 H1979 0.961 . S
C1966 H1980 0.961 . S
C1967 C1964 1.539 . S
C1967 H1981 0.958 . S
C1967 H1982 0.961 . S
C1967 H1983 0.960 . S
H1968 C1952 0.931 . S
H1969 C1957 0.929 . S
H1970 C1958 0.960 . S
H1971 C1958 0.962 . S
H1972 C1958 0.960 . S
H1973 C1959 0.961 . S
H1974 C1959 0.961 . S
H1975 C1959 0.961 . S
H1976 C1960 0.931 . S
H1977 C1965 0.930 . S
H1978 C1966 0.956 . S
H1979 C1966 0.961 . S
H1980 C1966 0.961 . S
H1981 C1967 0.958 . S
H1982 C1967 0.961 . S
H1983 C1967 0.960 . S
C1984 C1985 1.391 . S
C1984 C1986 1.394 . S
C1984 H2000 0.931 . S
C1985 C1984 1.391 . S
C1985 C1989 1.376 . S
C1986 C1984 1.394 . S
C1986 C1987 1.369 . S
C1986 C1990 1.531 . S
C1987 C1986 1.369 . S
C1987 C1988 1.410 . S
C1987 C1995 1.503 . S
C1988 C1987 1.410 . S
C1988 C1989 1.392 . S
C1988 C1991 1.511 . S
C1989 C1985 1.376 . S
C1989 C1988 1.392 . S
C1989 H2001 0.929 . S
C1990 C1986 1.531 . S
C1990 H2002 0.960 . S
C1990 H2003 0.962 . S
C1990 H2004 0.960 . S
C1991 C1988 1.511 . S
C1991 H2005 0.961 . S
C1991 H2006 0.961 . S
C1991 H2007 0.961 . S
C1992 C1993 1.370 . S
C1992 C1994 1.363 . S
C1992 H2008 0.931 . S
C1993 C1992 1.370 . S
C1993 C1997 1.408 . S
C1994 C1992 1.363 . S
C1994 C1995 1.370 . S
C1994 C1998 1.524 . S
C1995 C1987 1.503 . S
C1995 C1994 1.370 . S
C1995 C1996 1.403 . S
C1996 C1995 1.403 . S
C1996 C1997 1.404 . S
C1996 C1999 1.539 . S
C1997 C1993 1.408 . S
C1997 C1996 1.404 . S
C1997 H2009 0.930 . S
C1998 C1994 1.524 . S
C1998 H2010 0.956 . S
C1998 H2011 0.961 . S
C1998 H2012 0.961 . S
C1999 C1996 1.539 . S
C1999 H2013 0.958 . S
C1999 H2014 0.961 . S
C1999 H2015 0.960 . S
H2000 C1984 0.931 . S
H2001 C1989 0.929 . S
H2002 C1990 0.960 . S
H2003 C1990 0.962 . S
H2004 C1990 0.960 . S
H2005 C1991 0.961 . S
H2006 C1991 0.961 . S
H2007 C1991 0.961 . S
H2008 C1992 0.931 . S
H2009 C1997 0.930 . S
H2010 C1998 0.956 . S
H2011 C1998 0.961 . S
H2012 C1998 0.961 . S
H2013 C1999 0.958 . S
H2014 C1999 0.961 . S
H2015 C1999 0.960 . S
C2016 C2017 1.391 . S
C2016 C2018 1.394 . S
C2016 H2032 0.931 . S
C2017 C2016 1.391 . S
C2017 C2021 1.376 . S
C2018 C2016 1.394 . S
C2018 C2019 1.369 . S
C2018 C2022 1.531 . S
C2019 C2018 1.369 . S
C2019 C2020 1.410 . S
C2019 C2027 1.503 . S
C2020 C2019 1.410 . S
C2020 C2021 1.392 . S
C2020 C2023 1.511 . S
C2021 C2017 1.376 . S
C2021 C2020 1.392 . S
C2021 H2033 0.929 . S
C2022 C2018 1.531 . S
C2022 H2034 0.960 . S
C2022 H2035 0.962 . S
C2022 H2036 0.960 . S
C2023 C2020 1.511 . S
C2023 H2037 0.961 . S
C2023 H2038 0.961 . S
C2023 H2039 0.961 . S
C2024 C2025 1.370 . S
C2024 C2026 1.363 . S
C2024 H2040 0.931 . S
C2025 C2024 1.370 . S
C2025 C2029 1.408 . S
C2026 C2024 1.363 . S
C2026 C2027 1.370 . S
C2026 C2030 1.524 . S
C2027 C2019 1.503 . S
C2027 C2026 1.370 . S
C2027 C2028 1.403 . S
C2028 C2027 1.403 . S
C2028 C2029 1.404 . S
C2028 C2031 1.539 . S
C2029 C2025 1.408 . S
C2029 C2028 1.404 . S
C2029 H2041 0.930 . S
C2030 C2026 1.524 . S
C2030 H2042 0.956 . S
C2030 H2043 0.961 . S
C2030 H2044 0.961 . S
C2031 C2028 1.539 . S
C2031 H2045 0.958 . S
C2031 H2046 0.961 . S
C2031 H2047 0.960 . S
H2032 C2016 0.931 . S
H2033 C2021 0.929 . S
H2034 C2022 0.960 . S
H2035 C2022 0.962 . S
H2036 C2022 0.960 . S
H2037 C2023 0.961 . S
H2038 C2023 0.961 . S
H2039 C2023 0.961 . S
H2040 C2024 0.931 . S
H2041 C2029 0.930 . S
H2042 C2030 0.956 . S
H2043 C2030 0.961 . S
H2044 C2030 0.961 . S
H2045 C2031 0.958 . S
H2046 C2031 0.961 . S
H2047 C2031 0.960 . S
C2048 C2049 1.391 . S
C2048 C2050 1.394 . S
C2048 H2064 0.931 . S
C2049 C2048 1.391 . S
C2049 C2053 1.376 . S
C2050 C2048 1.394 . S
C2050 C2051 1.369 . S
C2050 C2054 1.531 . S
C2051 C2050 1.369 . S
C2051 C2052 1.410 . S
C2051 C2059 1.503 . S
C2052 C2051 1.410 . S
C2052 C2053 1.392 . S
C2052 C2055 1.511 . S
C2053 C2049 1.376 . S
C2053 C2052 1.392 . S
C2053 H2065 0.929 . S
C2054 C2050 1.531 . S
C2054 H2066 0.960 . S
C2054 H2067 0.962 . S
C2054 H2068 0.960 . S
C2055 C2052 1.511 . S
C2055 H2069 0.961 . S
C2055 H2070 0.961 . S
C2055 H2071 0.961 . S
C2056 C2057 1.370 . S
C2056 C2058 1.363 . S
C2056 H2072 0.931 . S
C2057 C2056 1.370 . S
C2057 C2061 1.408 . S
C2058 C2056 1.363 . S
C2058 C2059 1.370 . S
C2058 C2062 1.524 . S
C2059 C2051 1.503 . S
C2059 C2058 1.370 . S
C2059 C2060 1.403 . S
C2060 C2059 1.403 . S
C2060 C2061 1.404 . S
C2060 C2063 1.539 . S
C2061 C2057 1.408 . S
C2061 C2060 1.404 . S
C2061 H2073 0.930 . S
C2062 C2058 1.524 . S
C2062 H2074 0.956 . S
C2062 H2075 0.961 . S
C2062 H2076 0.961 . S
C2063 C2060 1.539 . S
C2063 H2077 0.958 . S
C2063 H2078 0.961 . S
C2063 H2079 0.960 . S
H2064 C2048 0.931 . S
H2065 C2053 0.929 . S
H2066 C2054 0.960 . S
H2067 C2054 0.962 . S
H2068 C2054 0.960 . S
H2069 C2055 0.961 . S
H2070 C2055 0.961 . S
H2071 C2055 0.961 . S
H2072 C2056 0.931 . S
H2073 C2061 0.930 . S
H2074 C2062 0.956 . S
H2075 C2062 0.961 . S
H2076 C2062 0.961 . S
H2077 C2063 0.958 . S
H2078 C2063 0.961 . S
H2079 C2063 0.960 . S
C2080 C2081 1.391 . S
C2080 C2082 1.394 . S
C2080 H2096 0.931 . S
C2081 C2080 1.391 . S
C2081 C2085 1.376 . S
C2082 C2080 1.394 . S
C2082 C2083 1.369 . S
C2082 C2086 1.531 . S
C2083 C2082 1.369 . S
C2083 C2084 1.410 . S
C2083 C2091 1.503 . S
C2084 C2083 1.410 . S
C2084 C2085 1.392 . S
C2084 C2087 1.511 . S
C2085 C2081 1.376 . S
C2085 C2084 1.392 . S
C2085 H2097 0.929 . S
C2086 C2082 1.531 . S
C2086 H2098 0.960 . S
C2086 H2099 0.962 . S
C2086 H2100 0.960 . S
C2087 C2084 1.511 . S
C2087 H2101 0.961 . S
C2087 H2102 0.961 . S
C2087 H2103 0.961 . S
C2088 C2089 1.370 . S
C2088 C2090 1.363 . S
C2088 H2104 0.931 . S
C2089 C2088 1.370 . S
C2089 C2093 1.408 . S
C2090 C2088 1.363 . S
C2090 C2091 1.370 . S
C2090 C2094 1.524 . S
C2091 C2083 1.503 . S
C2091 C2090 1.370 . S
C2091 C2092 1.403 . S
C2092 C2091 1.403 . S
C2092 C2093 1.404 . S
C2092 C2095 1.539 . S
C2093 C2089 1.408 . S
C2093 C2092 1.404 . S
C2093 H2105 0.930 . S
C2094 C2090 1.524 . S
C2094 H2106 0.956 . S
C2094 H2107 0.961 . S
C2094 H2108 0.961 . S
C2095 C2092 1.539 . S
C2095 H2109 0.958 . S
C2095 H2110 0.961 . S
C2095 H2111 0.960 . S
H2096 C2080 0.931 . S
H2097 C2085 0.929 . S
H2098 C2086 0.960 . S
H2099 C2086 0.962 . S
H2100 C2086 0.960 . S
H2101 C2087 0.961 . S
H2102 C2087 0.961 . S
H2103 C2087 0.961 . S
H2104 C2088 0.931 . S
H2105 C2093 0.930 . S
H2106 C2094 0.956 . S
H2107 C2094 0.961 . S
H2108 C2094 0.961 . S
H2109 C2095 0.958 . S
H2110 C2095 0.961 . S
H2111 C2095 0.960 . S
C2112 C2113 1.391 . S
C2112 C2114 1.394 . S
C2112 H2128 0.931 . S
C2113 C2112 1.391 . S
C2113 C2117 1.376 . S
C2114 C2112 1.394 . S
C2114 C2115 1.369 . S
C2114 C2118 1.531 . S
C2115 C2114 1.369 . S
C2115 C2116 1.410 . S
C2115 C2123 1.503 . S
C2116 C2115 1.410 . S
C2116 C2117 1.392 . S
C2116 C2119 1.511 . S
C2117 C2113 1.376 . S
C2117 C2116 1.392 . S
C2117 H2129 0.929 . S
C2118 C2114 1.531 . S
C2118 H2130 0.960 . S
C2118 H2131 0.962 . S
C2118 H2132 0.960 . S
C2119 C2116 1.511 . S
C2119 H2133 0.961 . S
C2119 H2134 0.961 . S
C2119 H2135 0.961 . S
C2120 C2121 1.370 . S
C2120 C2122 1.363 . S
C2120 H2136 0.931 . S
C2121 C2120 1.370 . S
C2121 C2125 1.408 . S
C2122 C2120 1.363 . S
C2122 C2123 1.370 . S
C2122 C2126 1.524 . S
C2123 C2115 1.503 . S
C2123 C2122 1.370 . S
C2123 C2124 1.403 . S
C2124 C2123 1.403 . S
C2124 C2125 1.404 . S
C2124 C2127 1.539 . S
C2125 C2121 1.408 . S
C2125 C2124 1.404 . S
C2125 H2137 0.930 . S
C2126 C2122 1.524 . S
C2126 H2138 0.956 . S
C2126 H2139 0.961 . S
C2126 H2140 0.961 . S
C2127 C2124 1.539 . S
C2127 H2141 0.958 . S
C2127 H2142 0.961 . S
C2127 H2143 0.960 . S
H2128 C2112 0.931 . S
H2129 C2117 0.929 . S
H2130 C2118 0.960 . S
H2131 C2118 0.962 . S
H2132 C2118 0.960 . S
H2133 C2119 0.961 . S
H2134 C2119 0.961 . S
H2135 C2119 0.961 . S
H2136 C2120 0.931 . S
H2137 C2125 0.930 . S
H2138 C2126 0.956 . S
H2139 C2126 0.961 . S
H2140 C2126 0.961 . S
H2141 C2127 0.958 . S
H2142 C2127 0.961 . S
H2143 C2127 0.960 . S
C2144 C2145 1.391 . S
C2144 C2146 1.394 . S
C2144 H2160 0.931 . S
C2145 C2144 1.391 . S
C2145 C2149 1.376 . S
C2146 C2144 1.394 . S
C2146 C2147 1.369 . S
C2146 C2150 1.531 . S
C2147 C2146 1.369 . S
C2147 C2148 1.410 . S
C2147 C2155 1.503 . S
C2148 C2147 1.410 . S
C2148 C2149 1.392 . S
C2148 C2151 1.511 . S
C2149 C2145 1.376 . S
C2149 C2148 1.392 . S
C2149 H2161 0.929 . S
C2150 C2146 1.531 . S
C2150 H2162 0.960 . S
C2150 H2163 0.962 . S
C2150 H2164 0.960 . S
C2151 C2148 1.511 . S
C2151 H2165 0.961 . S
C2151 H2166 0.961 . S
C2151 H2167 0.961 . S
C2152 C2153 1.370 . S
C2152 C2154 1.363 . S
C2152 H2168 0.931 . S
C2153 C2152 1.370 . S
C2153 C2157 1.408 . S
C2154 C2152 1.363 . S
C2154 C2155 1.370 . S
C2154 C2158 1.524 . S
C2155 C2147 1.503 . S
C2155 C2154 1.370 . S
C2155 C2156 1.403 . S
C2156 C2155 1.403 . S
C2156 C2157 1.404 . S
C2156 C2159 1.539 . S
C2157 C2153 1.408 . S
C2157 C2156 1.404 . S
C2157 H2169 0.930 . S
C2158 C2154 1.524 . S
C2158 H2170 0.956 . S
C2158 H2171 0.961 . S
C2158 H2172 0.961 . S
C2159 C2156 1.539 . S
C2159 H2173 0.958 . S
C2159 H2174 0.961 . S
C2159 H2175 0.960 . S
H2160 C2144 0.931 . S
H2161 C2149 0.929 . S
H2162 C2150 0.960 . S
H2163 C2150 0.962 . S
H2164 C2150 0.960 . S
H2165 C2151 0.961 . S
H2166 C2151 0.961 . S
H2167 C2151 0.961 . S
H2168 C2152 0.931 . S
H2169 C2157 0.930 . S
H2170 C2158 0.956 . S
H2171 C2158 0.961 . S
H2172 C2158 0.961 . S
H2173 C2159 0.958 . S
H2174 C2159 0.961 . S
H2175 C2159 0.960 . S
C2176 C2177 1.391 . S
C2176 C2178 1.394 . S
C2176 H2192 0.931 . S
C2177 C2176 1.391 . S
C2177 C2181 1.376 . S
C2178 C2176 1.394 . S
C2178 C2179 1.369 . S
C2178 C2182 1.531 . S
C2179 C2178 1.369 . S
C2179 C2180 1.410 . S
C2179 C2187 1.503 . S
C2180 C2179 1.410 . S
C2180 C2181 1.392 . S
C2180 C2183 1.511 . S
C2181 C2177 1.376 . S
C2181 C2180 1.392 . S
C2181 H2193 0.929 . S
C2182 C2178 1.531 . S
C2182 H2194 0.960 . S
C2182 H2195 0.962 . S
C2182 H2196 0.960 . S
C2183 C2180 1.511 . S
C2183 H2197 0.961 . S
C2183 H2198 0.961 . S
C2183 H2199 0.961 . S
C2184 C2185 1.370 . S
C2184 C2186 1.363 . S
C2184 H2200 0.931 . S
C2185 C2184 1.370 . S
C2185 C2189 1.408 . S
C2186 C2184 1.363 . S
C2186 C2187 1.370 . S
C2186 C2190 1.524 . S
C2187 C2179 1.503 . S
C2187 C2186 1.370 . S
C2187 C2188 1.403 . S
C2188 C2187 1.403 . S
C2188 C2189 1.404 . S
C2188 C2191 1.539 . S
C2189 C2185 1.408 . S
C2189 C2188 1.404 . S
C2189 H2201 0.930 . S
C2190 C2186 1.524 . S
C2190 H2202 0.956 . S
C2190 H2203 0.961 . S
C2190 H2204 0.961 . S
C2191 C2188 1.539 . S
C2191 H2205 0.958 . S
C2191 H2206 0.961 . S
C2191 H2207 0.960 . S
H2192 C2176 0.931 . S
H2193 C2181 0.929 . S
H2194 C2182 0.960 . S
H2195 C2182 0.962 . S
H2196 C2182 0.960 . S
H2197 C2183 0.961 . S
H2198 C2183 0.961 . S
H2199 C2183 0.961 . S
H2200 C2184 0.931 . S
H2201 C2189 0.930 . S
H2202 C2190 0.956 . S
H2203 C2190 0.961 . S
H2204 C2190 0.961 . S
H2205 C2191 0.958 . S
H2206 C2191 0.961 . S
H2207 C2191 0.960 . S
C2208 C2209 1.391 . S
C2208 C2210 1.394 . S
C2208 H2224 0.931 . S
C2209 C2208 1.391 . S
C2209 C2213 1.376 . S
C2210 C2208 1.394 . S
C2210 C2211 1.369 . S
C2210 C2214 1.531 . S
C2211 C2210 1.369 . S
C2211 C2212 1.410 . S
C2211 C2219 1.503 . S
C2212 C2211 1.410 . S
C2212 C2213 1.392 . S
C2212 C2215 1.511 . S
C2213 C2209 1.376 . S
C2213 C2212 1.392 . S
C2213 H2225 0.929 . S
C2214 C2210 1.531 . S
C2214 H2226 0.960 . S
C2214 H2227 0.962 . S
C2214 H2228 0.960 . S
C2215 C2212 1.511 . S
C2215 H2229 0.961 . S
C2215 H2230 0.961 . S
C2215 H2231 0.961 . S
C2216 C2217 1.370 . S
C2216 C2218 1.363 . S
C2216 H2232 0.931 . S
C2217 C2216 1.370 . S
C2217 C2221 1.408 . S
C2218 C2216 1.363 . S
C2218 C2219 1.370 . S
C2218 C2222 1.524 . S
C2219 C2211 1.503 . S
C2219 C2218 1.370 . S
C2219 C2220 1.403 . S
C2220 C2219 1.403 . S
C2220 C2221 1.404 . S
C2220 C2223 1.539 . S
C2221 C2217 1.408 . S
C2221 C2220 1.404 . S
C2221 H2233 0.930 . S
C2222 C2218 1.524 . S
C2222 H2234 0.956 . S
C2222 H2235 0.961 . S
C2222 H2236 0.961 . S
C2223 C2220 1.539 . S
C2223 H2237 0.958 . S
C2223 H2238 0.961 . S
C2223 H2239 0.960 . S
H2224 C2208 0.931 . S
H2225 C2213 0.929 . S
H2226 C2214 0.960 . S
H2227 C2214 0.962 . S
H2228 C2214 0.960 . S
H2229 C2215 0.961 . S
H2230 C2215 0.961 . S
H2231 C2215 0.961 . S
H2232 C2216 0.931 . S
H2233 C2221 0.930 . S
H2234 C2222 0.956 . S
H2235 C2222 0.961 . S
H2236 C2222 0.961 . S
H2237 C2223 0.958 . S
H2238 C2223 0.961 . S
H2239 C2223 0.960 . S
C2240 C2241 1.391 . S
C2240 C2242 1.394 . S
C2240 H2256 0.931 . S
C2241 C2240 1.391 . S
C2241 C2245 1.376 . S
C2242 C2240 1.394 . S
C2242 C2243 1.369 . S
C2242 C2246 1.531 . S
C2243 C2242 1.369 . S
C2243 C2244 1.410 . S
C2243 C2251 1.503 . S
C2244 C2243 1.410 . S
C2244 C2245 1.392 . S
C2244 C2247 1.511 . S
C2245 C2241 1.376 . S
C2245 C2244 1.392 . S
C2245 H2257 0.929 . S
C2246 C2242 1.531 . S
C2246 H2258 0.960 . S
C2246 H2259 0.962 . S
C2246 H2260 0.960 . S
C2247 C2244 1.511 . S
C2247 H2261 0.961 . S
C2247 H2262 0.961 . S
C2247 H2263 0.961 . S
C2248 C2249 1.370 . S
C2248 C2250 1.363 . S
C2248 H2264 0.931 . S
C2249 C2248 1.370 . S
C2249 C2253 1.408 . S
C2250 C2248 1.363 . S
C2250 C2251 1.370 . S
C2250 C2254 1.524 . S
C2251 C2243 1.503 . S
C2251 C2250 1.370 . S
C2251 C2252 1.403 . S
C2252 C2251 1.403 . S
C2252 C2253 1.404 . S
C2252 C2255 1.539 . S
C2253 C2249 1.408 . S
C2253 C2252 1.404 . S
C2253 H2265 0.930 . S
C2254 C2250 1.524 . S
C2254 H2266 0.956 . S
C2254 H2267 0.961 . S
C2254 H2268 0.961 . S
C2255 C2252 1.539 . S
C2255 H2269 0.958 . S
C2255 H2270 0.961 . S
C2255 H2271 0.960 . S
H2256 C2240 0.931 . S
H2257 C2245 0.929 . S
H2258 C2246 0.960 . S
H2259 C2246 0.962 . S
H2260 C2246 0.960 . S
H2261 C2247 0.961 . S
H2262 C2247 0.961 . S
H2263 C2247 0.961 . S
H2264 C2248 0.931 . S
H2265 C2253 0.930 . S
H2266 C2254 0.956 . S
H2267 C2254 0.961 . S
H2268 C2254 0.961 . S
H2269 C2255 0.958 . S
H2270 C2255 0.961 . S
H2271 C2255 0.960 . S
C2272 C2273 1.391 . S
C2272 C2274 1.394 . S
C2272 H2288 0.931 . S
C2273 C2272 1.391 . S
C2273 C2277 1.376 . S
C2274 C2272 1.394 . S
C2274 C2275 1.369 . S
C2274 C2278 1.531 . S
C2275 C2274 1.369 . S
C2275 C2276 1.410 . S
C2275 C2283 1.503 . S
C2276 C2275 1.410 . S
C2276 C2277 1.392 . S
C2276 C2279 1.511 . S
C2277 C2273 1.376 . S
C2277 C2276 1.392 . S
C2277 H2289 0.929 . S
C2278 C2274 1.531 . S
C2278 H2290 0.960 . S
C2278 H2291 0.962 . S
C2278 H2292 0.960 . S
C2279 C2276 1.511 . S
C2279 H2293 0.961 . S
C2279 H2294 0.961 . S
C2279 H2295 0.961 . S
C2280 C2281 1.370 . S
C2280 C2282 1.363 . S
C2280 H2296 0.931 . S
C2281 C2280 1.370 . S
C2281 C2285 1.408 . S
C2282 C2280 1.363 . S
C2282 C2283 1.370 . S
C2282 C2286 1.524 . S
C2283 C2275 1.503 . S
C2283 C2282 1.370 . S
C2283 C2284 1.403 . S
C2284 C2283 1.403 . S
C2284 C2285 1.404 . S
C2284 C2287 1.539 . S
C2285 C2281 1.408 . S
C2285 C2284 1.404 . S
C2285 H2297 0.930 . S
C2286 C2282 1.524 . S
C2286 H2298 0.956 . S
C2286 H2299 0.961 . S
C2286 H2300 0.961 . S
C2287 C2284 1.539 . S
C2287 H2301 0.958 . S
C2287 H2302 0.961 . S
C2287 H2303 0.960 . S
H2288 C2272 0.931 . S
H2289 C2277 0.929 . S
H2290 C2278 0.960 . S
H2291 C2278 0.962 . S
H2292 C2278 0.960 . S
H2293 C2279 0.961 . S
H2294 C2279 0.961 . S
H2295 C2279 0.961 . S
H2296 C2280 0.931 . S
H2297 C2285 0.930 . S
H2298 C2286 0.956 . S
H2299 C2286 0.961 . S
H2300 C2286 0.961 . S
H2301 C2287 0.958 . S
H2302 C2287 0.961 . S
H2303 C2287 0.960 . S
C2304 C2305 1.391 . S
C2304 C2306 1.394 . S
C2304 H2320 0.931 . S
C2305 C2304 1.391 . S
C2305 C2309 1.376 . S
C2306 C2304 1.394 . S
C2306 C2307 1.369 . S
C2306 C2310 1.531 . S
C2307 C2306 1.369 . S
C2307 C2308 1.410 . S
C2307 C2315 1.503 . S
C2308 C2307 1.410 . S
C2308 C2309 1.392 . S
C2308 C2311 1.511 . S
C2309 C2305 1.376 . S
C2309 C2308 1.392 . S
C2309 H2321 0.929 . S
C2310 C2306 1.531 . S
C2310 H2322 0.960 . S
C2310 H2323 0.962 . S
C2310 H2324 0.960 . S
C2311 C2308 1.511 . S
C2311 H2325 0.961 . S
C2311 H2326 0.961 . S
C2311 H2327 0.961 . S
C2312 C2313 1.370 . S
C2312 C2314 1.363 . S
C2312 H2328 0.931 . S
C2313 C2312 1.370 . S
C2313 C2317 1.408 . S
C2314 C2312 1.363 . S
C2314 C2315 1.370 . S
C2314 C2318 1.524 . S
C2315 C2307 1.503 . S
C2315 C2314 1.370 . S
C2315 C2316 1.403 . S
C2316 C2315 1.403 . S
C2316 C2317 1.404 . S
C2316 C2319 1.539 . S
C2317 C2313 1.408 . S
C2317 C2316 1.404 . S
C2317 H2329 0.930 . S
C2318 C2314 1.524 . S
C2318 H2330 0.956 . S
C2318 H2331 0.961 . S
C2318 H2332 0.961 . S
C2319 C2316 1.539 . S
C2319 H2333 0.958 . S
C2319 H2334 0.961 . S
C2319 H2335 0.960 . S
H2320 C2304 0.931 . S
H2321 C2309 0.929 . S
H2322 C2310 0.960 . S
H2323 C2310 0.962 . S
H2324 C2310 0.960 . S
H2325 C2311 0.961 . S
H2326 C2311 0.961 . S
H2327 C2311 0.961 . S
H2328 C2312 0.931 . S
H2329 C2317 0.930 . S
H2330 C2318 0.956 . S
H2331 C2318 0.961 . S
H2332 C2318 0.961 . S
H2333 C2319 0.958 . S
H2334 C2319 0.961 . S
H2335 C2319 0.960 . S
C2336 C2337 1.391 . S
C2336 C2338 1.394 . S
C2336 H2352 0.931 . S
C2337 C2336 1.391 . S
C2337 C2341 1.376 . S
C2338 C2336 1.394 . S
C2338 C2339 1.369 . S
C2338 C2342 1.531 . S
C2339 C2338 1.369 . S
C2339 C2340 1.410 . S
C2339 C2347 1.503 . S
C2340 C2339 1.410 . S
C2340 C2341 1.392 . S
C2340 C2343 1.511 . S
C2341 C2337 1.376 . S
C2341 C2340 1.392 . S
C2341 H2353 0.929 . S
C2342 C2338 1.531 . S
C2342 H2354 0.960 . S
C2342 H2355 0.962 . S
C2342 H2356 0.960 . S
C2343 C2340 1.511 . S
C2343 H2357 0.961 . S
C2343 H2358 0.961 . S
C2343 H2359 0.961 . S
C2344 C2345 1.370 . S
C2344 C2346 1.363 . S
C2344 H2360 0.931 . S
C2345 C2344 1.370 . S
C2345 C2349 1.408 . S
C2346 C2344 1.363 . S
C2346 C2347 1.370 . S
C2346 C2350 1.524 . S
C2347 C2339 1.503 . S
C2347 C2346 1.370 . S
C2347 C2348 1.403 . S
C2348 C2347 1.403 . S
C2348 C2349 1.404 . S
C2348 C2351 1.539 . S
C2349 C2345 1.408 . S
C2349 C2348 1.404 . S
C2349 H2361 0.930 . S
C2350 C2346 1.524 . S
C2350 H2362 0.956 . S
C2350 H2363 0.961 . S
C2350 H2364 0.961 . S
C2351 C2348 1.539 . S
C2351 H2365 0.958 . S
C2351 H2366 0.961 . S
C2351 H2367 0.960 . S
H2352 C2336 0.931 . S
H2353 C2341 0.929 . S
H2354 C2342 0.960 . S
H2355 C2342 0.962 . S
H2356 C2342 0.960 . S
H2357 C2343 0.961 . S
H2358 C2343 0.961 . S
H2359 C2343 0.961 . S
H2360 C2344 0.931 . S
H2361 C2349 0.930 . S
H2362 C2350 0.956 . S
H2363 C2350 0.961 . S
H2364 C2350 0.961 . S
H2365 C2351 0.958 . S
H2366 C2351 0.961 . S
H2367 C2351 0.960 . S
C2368 C2369 1.391 . S
C2368 C2370 1.394 . S
C2368 H2384 0.931 . S
C2369 C2368 1.391 . S
C2369 C2373 1.376 . S
C2370 C2368 1.394 . S
C2370 C2371 1.369 . S
C2370 C2374 1.531 . S
C2371 C2370 1.369 . S
C2371 C2372 1.410 . S
C2371 C2379 1.503 . S
C2372 C2371 1.410 . S
C2372 C2373 1.392 . S
C2372 C2375 1.511 . S
C2373 C2369 1.376 . S
C2373 C2372 1.392 . S
C2373 H2385 0.929 . S
C2374 C2370 1.531 . S
C2374 H2386 0.960 . S
C2374 H2387 0.962 . S
C2374 H2388 0.960 . S
C2375 C2372 1.511 . S
C2375 H2389 0.961 . S
C2375 H2390 0.961 . S
C2375 H2391 0.961 . S
C2376 C2377 1.370 . S
C2376 C2378 1.363 . S
C2376 H2392 0.931 . S
C2377 C2376 1.370 . S
C2377 C2381 1.408 . S
C2378 C2376 1.363 . S
C2378 C2379 1.370 . S
C2378 C2382 1.524 . S
C2379 C2371 1.503 . S
C2379 C2378 1.370 . S
C2379 C2380 1.403 . S
C2380 C2379 1.403 . S
C2380 C2381 1.404 . S
C2380 C2383 1.539 . S
C2381 C2377 1.408 . S
C2381 C2380 1.404 . S
C2381 H2393 0.930 . S
C2382 C2378 1.524 . S
C2382 H2394 0.956 . S
C2382 H2395 0.961 . S
C2382 H2396 0.961 . S
C2383 C2380 1.539 . S
C2383 H2397 0.958 . S
C2383 H2398 0.961 . S
C2383 H2399 0.960 . S
H2384 C2368 0.931 . S
H2385 C2373 0.929 . S
H2386 C2374 0.960 . S
H2387 C2374 0.962 . S
H2388 C2374 0.960 . S
H2389 C2375 0.961 . S
H2390 C2375 0.961 . S
H2391 C2375 0.961 . S
H2392 C2376 0.931 . S
H2393 C2381 0.930 . S
H2394 C2382 0.956 . S
H2395 C2382 0.961 . S
H2396 C2382 0.961 . S
H2397 C2383 0.958 . S
H2398 C2383 0.961 . S
H2399 C2383 0.960 . S
C2400 C2401 1.391 . S
C2400 C2402 1.394 . S
C2400 H2416 0.931 . S
C2401 C2400 1.391 . S
C2401 C2405 1.376 . S
C2402 C2400 1.394 . S
C2402 C2403 1.369 . S
C2402 C2406 1.531 . S
C2403 C2402 1.369 . S
C2403 C2404 1.410 . S
C2403 C2411 1.503 . S
C2404 C2403 1.410 . S
C2404 C2405 1.392 . S
C2404 C2407 1.511 . S
C2405 C2401 1.376 . S
C2405 C2404 1.392 . S
C2405 H2417 0.929 . S
C2406 C2402 1.531 . S
C2406 H2418 0.960 . S
C2406 H2419 0.962 . S
C2406 H2420 0.960 . S
C2407 C2404 1.511 . S
C2407 H2421 0.961 . S
C2407 H2422 0.961 . S
C2407 H2423 0.961 . S
C2408 C2409 1.370 . S
C2408 C2410 1.363 . S
C2408 H2424 0.931 . S
C2409 C2408 1.370 . S
C2409 C2413 1.408 . S
C2410 C2408 1.363 . S
C2410 C2411 1.370 . S
C2410 C2414 1.524 . S
C2411 C2403 1.503 . S
C2411 C2410 1.370 . S
C2411 C2412 1.403 . S
C2412 C2411 1.403 . S
C2412 C2413 1.404 . S
C2412 C2415 1.539 . S
C2413 C2409 1.408 . S
C2413 C2412 1.404 . S
C2413 H2425 0.930 . S
C2414 C2410 1.524 . S
C2414 H2426 0.956 . S
C2414 H2427 0.961 . S
C2414 H2428 0.961 . S
C2415 C2412 1.539 . S
C2415 H2429 0.958 . S
C2415 H2430 0.961 . S
C2415 H2431 0.960 . S
H2416 C2400 0.931 . S
H2417 C2405 0.929 . S
H2418 C2406 0.960 . S
H2419 C2406 0.962 . S
H2420 C2406 0.960 . S
H2421 C2407 0.961 . S
H2422 C2407 0.961 . S
H2423 C2407 0.961 . S
H2424 C2408 0.931 . S
H2425 C2413 0.930 . S
H2426 C2414 0.956 . S
H2427 C2414 0.961 . S
H2428 C2414 0.961 . S
H2429 C2415 0.958 . S
H2430 C2415 0.961 . S
H2431 C2415 0.960 . S
C2432 C2433 1.391 . S
C2432 C2434 1.394 . S
C2432 H2448 0.931 . S
C2433 C2432 1.391 . S
C2433 C2437 1.376 . S
C2434 C2432 1.394 . S
C2434 C2435 1.369 . S
C2434 C2438 1.531 . S
C2435 C2434 1.369 . S
C2435 C2436 1.410 . S
C2435 C2443 1.503 . S
C2436 C2435 1.410 . S
C2436 C2437 1.392 . S
C2436 C2439 1.511 . S
C2437 C2433 1.376 . S
C2437 C2436 1.392 . S
C2437 H2449 0.929 . S
C2438 C2434 1.531 . S
C2438 H2450 0.960 . S
C2438 H2451 0.962 . S
C2438 H2452 0.960 . S
C2439 C2436 1.511 . S
C2439 H2453 0.961 . S
C2439 H2454 0.961 . S
C2439 H2455 0.961 . S
C2440 C2441 1.370 . S
C2440 C2442 1.363 . S
C2440 H2456 0.931 . S
C2441 C2440 1.370 . S
C2441 C2445 1.408 . S
C2442 C2440 1.363 . S
C2442 C2443 1.370 . S
C2442 C2446 1.524 . S
C2443 C2435 1.503 . S
C2443 C2442 1.370 . S
C2443 C2444 1.403 . S
C2444 C2443 1.403 . S
C2444 C2445 1.404 . S
C2444 C2447 1.539 . S
C2445 C2441 1.408 . S
C2445 C2444 1.404 . S
C2445 H2457 0.930 . S
C2446 C2442 1.524 . S
C2446 H2458 0.956 . S
C2446 H2459 0.961 . S
C2446 H2460 0.961 . S
C2447 C2444 1.539 . S
C2447 H2461 0.958 . S
C2447 H2462 0.961 . S
C2447 H2463 0.960 . S
H2448 C2432 0.931 . S
H2449 C2437 0.929 . S
H2450 C2438 0.960 . S
H2451 C2438 0.962 . S
H2452 C2438 0.960 . S
H2453 C2439 0.961 . S
H2454 C2439 0.961 . S
H2455 C2439 0.961 . S
H2456 C2440 0.931 . S
H2457 C2445 0.930 . S
H2458 C2446 0.956 . S
H2459 C2446 0.961 . S
H2460 C2446 0.961 . S
H2461 C2447 0.958 . S
H2462 C2447 0.961 . S
H2463 C2447 0.960 . S
C417 C200 1.243 . S
C425 C5 1.268 . S
C449 C21 1.288 . S
C457 C161 1.319 . S
C481 C31 1.296 . S
C489 C174 1.291 . S
C513 C187 1.301 . S
C521 C47 1.336 . S
C545 C57 1.289 . S
C553 C122 1.288 . S
C577 C73 1.348 . S
C585 C135 1.313 . S
C609 C148 1.318 . S
C617 C83 1.299 . S
C641 C109 1.332 . S
C649 C99 1.340 . S
C673 C213 1.269 . S
C681 C408 1.278 . S
C705 C229 1.355 . S
C713 C369 1.320 . S
C737 C239 1.318 . S
C745 C382 1.299 . S
C769 C395 1.341 . S
C777 C255 1.339 . S
C801 C265 1.286 . S
C809 C330 1.287 . S
C833 C281 1.347 . S
C841 C343 1.312 . S
C865 C356 1.244 . S
C873 C291 1.268 . S
C897 C307 1.298 . S
C905 C317 1.305 . S
C929 C156 1.134 . S
C937 C0 1.125 . S
C961 C23 1.090 . S
C969 C169 1.081 . S
C993 C182 1.104 . S
C1001 C26 1.119 . S
C1025 C49 1.098 . S
C1033 C195 1.078 . S
C1057 C52 1.099 . S
C1065 C104 1.118 . S
C1089 C117 1.074 . S
C1097 C75 1.102 . S
C1121 C130 1.124 . S
C1129 C78 1.128 . S
C1153 C143 1.112 . S
C1161 C101 1.089 . S
C1185 C208 1.104 . S
C1193 C364 1.115 . S
C1217 C377 1.064 . S
C1225 C231 1.102 . S
C1249 C234 1.123 . S
C1257 C390 1.128 . S
C1281 C257 1.083 . S
C1289 C403 1.098 . S
C1313 C312 1.125 . S
C1321 C260 1.128 . S
C1345 C283 1.097 . S
C1353 C325 1.093 . S
C1377 C286 1.119 . S
C1385 C338 1.120 . S
C1409 C309 1.082 . S
C1417 C351 1.098 . S
C1441 C8 1.436 . S
C1449 C138 1.430 . S
C1473 C151 1.396 . S
C1481 C18 1.423 . S
C1505 C34 1.393 . S
C1513 C112 1.415 . S
C1537 C125 1.381 . S
C1545 C44 1.412 . S
C1569 C190 1.406 . S
C1577 C60 1.421 . S
C1601 C203 1.432 . S
C1609 C70 1.415 . S
C1633 C164 1.430 . S
C1641 C86 1.426 . S
C1665 C96 1.425 . S
C1673 C177 1.407 . S
C1697 C346 1.444 . S
C1705 C216 1.433 . S
C1729 C226 1.440 . S
C1737 C359 1.415 . S
C1761 C320 1.422 . S
C1769 C242 1.423 . S
C1793 C333 1.425 . S
C1801 C252 1.412 . S
C1825 C268 1.453 . S
C1833 C398 1.440 . S
C1857 C278 1.438 . S
C1865 C411 1.414 . S
C1889 C372 1.410 . S
C1897 C294 1.423 . S
C1921 C385 1.431 . S
C1929 C304 1.414 . S
C1953 C299 1.137 . S
C1961 C10 1.127 . S
C1985 C270 1.112 . S
C1993 C13 1.137 . S
C2017 C273 1.147 . S
C2025 C36 1.131 . S
C2049 C296 1.142 . S
C2057 C39 1.150 . S
C2081 C221 1.150 . S
C2089 C62 1.133 . S
C2113 C65 1.153 . S
C2121 C244 1.146 . S
C2145 C88 1.112 . S
C2153 C247 1.143 . S
C2177 C91 1.157 . S
C2185 C218 1.145 . S
C2209 C114 1.324 . S
C2217 C413 1.327 . S
C2241 C374 1.343 . S
C2249 C127 1.310 . S
C2273 C140 1.330 . S
C2281 C387 1.311 . S
C2305 C153 1.341 . S
C2313 C400 1.322 . S
C2337 C335 1.294 . S
C2345 C166 1.336 . S
C2369 C348 1.309 . S
C2377 C179 1.331 . S
C2401 C192 1.327 . S
C2409 C361 1.326 . S
C2433 C205 1.338 . S
C2441 C322 1.318 . S
