# Generated by pormake.
# Topology ana-e, (6)-cn, num edge types: 1
# Building blocks:
#     Node 0, Type 0, BuildingBlock: BETDEL_clean_sbu_0, # of connection points: 6
#     Node 1, Type 0, BuildingBlock: BETDEL_clean_sbu_0, # of connection points: 6
#     Node 2, Type 0, BuildingBlock: BETDEL_clean_sbu_0, # of connection points: 6
#     Node 3, Type 0, BuildingBlock: BETDEL_clean_sbu_0, # of connection points: 6
#     Node 4, Type 0, BuildingBlock: BETDEL_clean_sbu_0, # of connection points: 6
#     Node 5, Type 0, BuildingBlock: BETDEL_clean_sbu_0, # of connection points: 6
#     Node 6, Type 0, BuildingBlock: BETDEL_clean_sbu_0, # of connection points: 6
#     Node 7, Type 0, BuildingBlock: BETDEL_clean_sbu_0, # of connection points: 6
#     Node 8, Type 0, BuildingBlock: BETDEL_clean_sbu_0, # of connection points: 6
#     Node 9, Type 0, BuildingBlock: BETDEL_clean_sbu_0, # of connection points: 6
#     Node 10, Type 0, BuildingBlock: BETDEL_clean_sbu_0, # of connection points: 6
#     Node 11, Type 0, BuildingBlock: BETDEL_clean_sbu_0, # of connection points: 6
#     Node 12, Type 0, BuildingBlock: BETDEL_clean_sbu_0, # of connection points: 6
#     Node 13, Type 0, BuildingBlock: BETDEL_clean_sbu_0, # of connection points: 6
#     Node 14, Type 0, BuildingBlock: BETDEL_clean_sbu_0, # of connection points: 6
#     Node 15, Type 0, BuildingBlock: BETDEL_clean_sbu_0, # of connection points: 6
#     Node 16, Type 0, BuildingBlock: BETDEL_clean_sbu_0, # of connection points: 6
#     Node 17, Type 0, BuildingBlock: BETDEL_clean_sbu_0, # of connection points: 6
#     Node 18, Type 0, BuildingBlock: BETDEL_clean_sbu_0, # of connection points: 6
#     Node 19, Type 0, BuildingBlock: BETDEL_clean_sbu_0, # of connection points: 6
#     Node 20, Type 0, BuildingBlock: BETDEL_clean_sbu_0, # of connection points: 6
#     Node 21, Type 0, BuildingBlock: BETDEL_clean_sbu_0, # of connection points: 6
#     Node 22, Type 0, BuildingBlock: BETDEL_clean_sbu_0, # of connection points: 6
#     Node 23, Type 0, BuildingBlock: BETDEL_clean_sbu_0, # of connection points: 6
#     Node 24, Type 0, BuildingBlock: BETDEL_clean_sbu_0, # of connection points: 6
#     Node 25, Type 0, BuildingBlock: BETDEL_clean_sbu_0, # of connection points: 6
#     Node 26, Type 0, BuildingBlock: BETDEL_clean_sbu_0, # of connection points: 6
#     Node 27, Type 0, BuildingBlock: BETDEL_clean_sbu_0, # of connection points: 6
#     Node 28, Type 0, BuildingBlock: BETDEL_clean_sbu_0, # of connection points: 6
#     Node 29, Type 0, BuildingBlock: BETDEL_clean_sbu_0, # of connection points: 6
#     Node 30, Type 0, BuildingBlock: BETDEL_clean_sbu_0, # of connection points: 6
#     Node 31, Type 0, BuildingBlock: BETDEL_clean_sbu_0, # of connection points: 6
#     Node 32, Type 0, BuildingBlock: BETDEL_clean_sbu_0, # of connection points: 6
#     Node 33, Type 0, BuildingBlock: BETDEL_clean_sbu_0, # of connection points: 6
#     Node 34, Type 0, BuildingBlock: BETDEL_clean_sbu_0, # of connection points: 6
#     Node 35, Type 0, BuildingBlock: BETDEL_clean_sbu_0, # of connection points: 6
#     Node 36, Type 0, BuildingBlock: BETDEL_clean_sbu_0, # of connection points: 6
#     Node 37, Type 0, BuildingBlock: BETDEL_clean_sbu_0, # of connection points: 6
#     Node 38, Type 0, BuildingBlock: BETDEL_clean_sbu_0, # of connection points: 6
#     Node 39, Type 0, BuildingBlock: BETDEL_clean_sbu_0, # of connection points: 6
#     Node 40, Type 0, BuildingBlock: BETDEL_clean_sbu_0, # of connection points: 6
#     Node 41, Type 0, BuildingBlock: BETDEL_clean_sbu_0, # of connection points: 6
#     Node 42, Type 0, BuildingBlock: BETDEL_clean_sbu_0, # of connection points: 6
#     Node 43, Type 0, BuildingBlock: BETDEL_clean_sbu_0, # of connection points: 6
#     Node 44, Type 0, BuildingBlock: BETDEL_clean_sbu_0, # of connection points: 6
#     Node 45, Type 0, BuildingBlock: BETDEL_clean_sbu_0, # of connection points: 6
#     Node 46, Type 0, BuildingBlock: BETDEL_clean_sbu_0, # of connection points: 6
#     Node 47, Type 0, BuildingBlock: BETDEL_clean_sbu_0, # of connection points: 6
#     Node 48, Type 0, BuildingBlock: BETDEL_clean_sbu_0, # of connection points: 6
#     Node 49, Type 0, BuildingBlock: BETDEL_clean_sbu_0, # of connection points: 6
#     Node 50, Type 0, BuildingBlock: BETDEL_clean_sbu_0, # of connection points: 6
#     Node 51, Type 0, BuildingBlock: BETDEL_clean_sbu_0, # of connection points: 6
#     Node 52, Type 0, BuildingBlock: BETDEL_clean_sbu_0, # of connection points: 6
#     Node 53, Type 0, BuildingBlock: BETDEL_clean_sbu_0, # of connection points: 6
#     Node 54, Type 0, BuildingBlock: BETDEL_clean_sbu_0, # of connection points: 6
#     Node 55, Type 0, BuildingBlock: BETDEL_clean_sbu_0, # of connection points: 6
#     Node 56, Type 0, BuildingBlock: BETDEL_clean_sbu_0, # of connection points: 6
#     Node 57, Type 0, BuildingBlock: BETDEL_clean_sbu_0, # of connection points: 6
#     Node 58, Type 0, BuildingBlock: BETDEL_clean_sbu_0, # of connection points: 6
#     Node 59, Type 0, BuildingBlock: BETDEL_clean_sbu_0, # of connection points: 6
#     Node 60, Type 0, BuildingBlock: BETDEL_clean_sbu_0, # of connection points: 6
#     Node 61, Type 0, BuildingBlock: BETDEL_clean_sbu_0, # of connection points: 6
#     Node 62, Type 0, BuildingBlock: BETDEL_clean_sbu_0, # of connection points: 6
#     Node 63, Type 0, BuildingBlock: BETDEL_clean_sbu_0, # of connection points: 6
#     Node 64, Type 0, BuildingBlock: BETDEL_clean_sbu_0, # of connection points: 6
#     Node 65, Type 0, BuildingBlock: BETDEL_clean_sbu_0, # of connection points: 6
#     Node 66, Type 0, BuildingBlock: BETDEL_clean_sbu_0, # of connection points: 6
#     Node 67, Type 0, BuildingBlock: BETDEL_clean_sbu_0, # of connection points: 6
#     Node 68, Type 0, BuildingBlock: BETDEL_clean_sbu_0, # of connection points: 6
#     Node 69, Type 0, BuildingBlock: BETDEL_clean_sbu_0, # of connection points: 6
#     Node 70, Type 0, BuildingBlock: BETDEL_clean_sbu_0, # of connection points: 6
#     Node 71, Type 0, BuildingBlock: BETDEL_clean_sbu_0, # of connection points: 6
#     Node 72, Type 0, BuildingBlock: BETDEL_clean_sbu_0, # of connection points: 6
#     Node 73, Type 0, BuildingBlock: BETDEL_clean_sbu_0, # of connection points: 6
#     Node 74, Type 0, BuildingBlock: BETDEL_clean_sbu_0, # of connection points: 6
#     Node 75, Type 0, BuildingBlock: BETDEL_clean_sbu_0, # of connection points: 6
#     Node 76, Type 0, BuildingBlock: BETDEL_clean_sbu_0, # of connection points: 6
#     Node 77, Type 0, BuildingBlock: BETDEL_clean_sbu_0, # of connection points: 6
#     Node 78, Type 0, BuildingBlock: BETDEL_clean_sbu_0, # of connection points: 6
#     Node 79, Type 0, BuildingBlock: BETDEL_clean_sbu_0, # of connection points: 6
#     Node 80, Type 0, BuildingBlock: BETDEL_clean_sbu_0, # of connection points: 6
#     Node 81, Type 0, BuildingBlock: BETDEL_clean_sbu_0, # of connection points: 6
#     Node 82, Type 0, BuildingBlock: BETDEL_clean_sbu_0, # of connection points: 6
#     Node 83, Type 0, BuildingBlock: BETDEL_clean_sbu_0, # of connection points: 6
#     Node 84, Type 0, BuildingBlock: BETDEL_clean_sbu_0, # of connection points: 6
#     Node 85, Type 0, BuildingBlock: BETDEL_clean_sbu_0, # of connection points: 6
#     Node 86, Type 0, BuildingBlock: BETDEL_clean_sbu_0, # of connection points: 6
#     Node 87, Type 0, BuildingBlock: BETDEL_clean_sbu_0, # of connection points: 6
#     Node 88, Type 0, BuildingBlock: BETDEL_clean_sbu_0, # of connection points: 6
#     Node 89, Type 0, BuildingBlock: BETDEL_clean_sbu_0, # of connection points: 6
#     Node 90, Type 0, BuildingBlock: BETDEL_clean_sbu_0, # of connection points: 6
#     Node 91, Type 0, BuildingBlock: BETDEL_clean_sbu_0, # of connection points: 6
#     Node 92, Type 0, BuildingBlock: BETDEL_clean_sbu_0, # of connection points: 6
#     Node 93, Type 0, BuildingBlock: BETDEL_clean_sbu_0, # of connection points: 6
#     Node 94, Type 0, BuildingBlock: BETDEL_clean_sbu_0, # of connection points: 6
#     Node 95, Type 0, BuildingBlock: BETDEL_clean_sbu_0, # of connection points: 6
#     Edge 96, Type (0, 0), BuildingBlock: OJICUG_clean_linker_0, # of connection points: 2
#     Edge 97, Type (0, 0), BuildingBlock: OJICUG_clean_linker_0, # of connection points: 2
#     Edge 98, Type (0, 0), BuildingBlock: OJICUG_clean_linker_0, # of connection points: 2
#     Edge 99, Type (0, 0), BuildingBlock: OJICUG_clean_linker_0, # of connection points: 2
#     Edge 100, Type (0, 0), BuildingBlock: OJICUG_clean_linker_0, # of connection points: 2
#     Edge 101, Type (0, 0), BuildingBlock: OJICUG_clean_linker_0, # of connection points: 2
#     Edge 102, Type (0, 0), BuildingBlock: OJICUG_clean_linker_0, # of connection points: 2
#     Edge 103, Type (0, 0), BuildingBlock: OJICUG_clean_linker_0, # of connection points: 2
#     Edge 104, Type (0, 0), BuildingBlock: OJICUG_clean_linker_0, # of connection points: 2
#     Edge 105, Type (0, 0), BuildingBlock: OJICUG_clean_linker_0, # of connection points: 2
#     Edge 106, Type (0, 0), BuildingBlock: OJICUG_clean_linker_0, # of connection points: 2
#     Edge 107, Type (0, 0), BuildingBlock: OJICUG_clean_linker_0, # of connection points: 2
#     Edge 108, Type (0, 0), BuildingBlock: OJICUG_clean_linker_0, # of connection points: 2
#     Edge 109, Type (0, 0), BuildingBlock: OJICUG_clean_linker_0, # of connection points: 2
#     Edge 110, Type (0, 0), BuildingBlock: OJICUG_clean_linker_0, # of connection points: 2
#     Edge 111, Type (0, 0), BuildingBlock: OJICUG_clean_linker_0, # of connection points: 2
#     Edge 112, Type (0, 0), BuildingBlock: OJICUG_clean_linker_0, # of connection points: 2
#     Edge 113, Type (0, 0), BuildingBlock: OJICUG_clean_linker_0, # of connection points: 2
#     Edge 114, Type (0, 0), BuildingBlock: OJICUG_clean_linker_0, # of connection points: 2
#     Edge 115, Type (0, 0), BuildingBlock: OJICUG_clean_linker_0, # of connection points: 2
#     Edge 116, Type (0, 0), BuildingBlock: OJICUG_clean_linker_0, # of connection points: 2
#     Edge 117, Type (0, 0), BuildingBlock: OJICUG_clean_linker_0, # of connection points: 2
#     Edge 118, Type (0, 0), BuildingBlock: OJICUG_clean_linker_0, # of connection points: 2
#     Edge 119, Type (0, 0), BuildingBlock: OJICUG_clean_linker_0, # of connection points: 2
#     Edge 120, Type (0, 0), BuildingBlock: OJICUG_clean_linker_0, # of connection points: 2
#     Edge 121, Type (0, 0), BuildingBlock: OJICUG_clean_linker_0, # of connection points: 2
#     Edge 122, Type (0, 0), BuildingBlock: OJICUG_clean_linker_0, # of connection points: 2
#     Edge 123, Type (0, 0), BuildingBlock: OJICUG_clean_linker_0, # of connection points: 2
#     Edge 124, Type (0, 0), BuildingBlock: OJICUG_clean_linker_0, # of connection points: 2
#     Edge 125, Type (0, 0), BuildingBlock: OJICUG_clean_linker_0, # of connection points: 2
#     Edge 126, Type (0, 0), BuildingBlock: OJICUG_clean_linker_0, # of connection points: 2
#     Edge 127, Type (0, 0), BuildingBlock: OJICUG_clean_linker_0, # of connection points: 2
#     Edge 128, Type (0, 0), BuildingBlock: OJICUG_clean_linker_0, # of connection points: 2
#     Edge 129, Type (0, 0), BuildingBlock: OJICUG_clean_linker_0, # of connection points: 2
#     Edge 130, Type (0, 0), BuildingBlock: OJICUG_clean_linker_0, # of connection points: 2
#     Edge 131, Type (0, 0), BuildingBlock: OJICUG_clean_linker_0, # of connection points: 2
#     Edge 132, Type (0, 0), BuildingBlock: OJICUG_clean_linker_0, # of connection points: 2
#     Edge 133, Type (0, 0), BuildingBlock: OJICUG_clean_linker_0, # of connection points: 2
#     Edge 134, Type (0, 0), BuildingBlock: OJICUG_clean_linker_0, # of connection points: 2
#     Edge 135, Type (0, 0), BuildingBlock: OJICUG_clean_linker_0, # of connection points: 2
#     Edge 136, Type (0, 0), BuildingBlock: OJICUG_clean_linker_0, # of connection points: 2
#     Edge 137, Type (0, 0), BuildingBlock: OJICUG_clean_linker_0, # of connection points: 2
#     Edge 138, Type (0, 0), BuildingBlock: OJICUG_clean_linker_0, # of connection points: 2
#     Edge 139, Type (0, 0), BuildingBlock: OJICUG_clean_linker_0, # of connection points: 2
#     Edge 140, Type (0, 0), BuildingBlock: OJICUG_clean_linker_0, # of connection points: 2
#     Edge 141, Type (0, 0), BuildingBlock: OJICUG_clean_linker_0, # of connection points: 2
#     Edge 142, Type (0, 0), BuildingBlock: OJICUG_clean_linker_0, # of connection points: 2
#     Edge 143, Type (0, 0), BuildingBlock: OJICUG_clean_linker_0, # of connection points: 2
#     Edge 144, Type (0, 0), BuildingBlock: OJICUG_clean_linker_0, # of connection points: 2
#     Edge 145, Type (0, 0), BuildingBlock: OJICUG_clean_linker_0, # of connection points: 2
#     Edge 146, Type (0, 0), BuildingBlock: OJICUG_clean_linker_0, # of connection points: 2
#     Edge 147, Type (0, 0), BuildingBlock: OJICUG_clean_linker_0, # of connection points: 2
#     Edge 148, Type (0, 0), BuildingBlock: OJICUG_clean_linker_0, # of connection points: 2
#     Edge 149, Type (0, 0), BuildingBlock: OJICUG_clean_linker_0, # of connection points: 2
#     Edge 150, Type (0, 0), BuildingBlock: OJICUG_clean_linker_0, # of connection points: 2
#     Edge 151, Type (0, 0), BuildingBlock: OJICUG_clean_linker_0, # of connection points: 2
#     Edge 152, Type (0, 0), BuildingBlock: OJICUG_clean_linker_0, # of connection points: 2
#     Edge 153, Type (0, 0), BuildingBlock: OJICUG_clean_linker_0, # of connection points: 2
#     Edge 154, Type (0, 0), BuildingBlock: OJICUG_clean_linker_0, # of connection points: 2
#     Edge 155, Type (0, 0), BuildingBlock: OJICUG_clean_linker_0, # of connection points: 2
#     Edge 156, Type (0, 0), BuildingBlock: OJICUG_clean_linker_0, # of connection points: 2
#     Edge 157, Type (0, 0), BuildingBlock: OJICUG_clean_linker_0, # of connection points: 2
#     Edge 158, Type (0, 0), BuildingBlock: OJICUG_clean_linker_0, # of connection points: 2
#     Edge 159, Type (0, 0), BuildingBlock: OJICUG_clean_linker_0, # of connection points: 2
#     Edge 160, Type (0, 0), BuildingBlock: OJICUG_clean_linker_0, # of connection points: 2
#     Edge 161, Type (0, 0), BuildingBlock: OJICUG_clean_linker_0, # of connection points: 2
#     Edge 162, Type (0, 0), BuildingBlock: OJICUG_clean_linker_0, # of connection points: 2
#     Edge 163, Type (0, 0), BuildingBlock: OJICUG_clean_linker_0, # of connection points: 2
#     Edge 164, Type (0, 0), BuildingBlock: OJICUG_clean_linker_0, # of connection points: 2
#     Edge 165, Type (0, 0), BuildingBlock: OJICUG_clean_linker_0, # of connection points: 2
#     Edge 166, Type (0, 0), BuildingBlock: OJICUG_clean_linker_0, # of connection points: 2
#     Edge 167, Type (0, 0), BuildingBlock: OJICUG_clean_linker_0, # of connection points: 2
#     Edge 168, Type (0, 0), BuildingBlock: OJICUG_clean_linker_0, # of connection points: 2
#     Edge 169, Type (0, 0), BuildingBlock: OJICUG_clean_linker_0, # of connection points: 2
#     Edge 170, Type (0, 0), BuildingBlock: OJICUG_clean_linker_0, # of connection points: 2
#     Edge 171, Type (0, 0), BuildingBlock: OJICUG_clean_linker_0, # of connection points: 2
#     Edge 172, Type (0, 0), BuildingBlock: OJICUG_clean_linker_0, # of connection points: 2
#     Edge 173, Type (0, 0), BuildingBlock: OJICUG_clean_linker_0, # of connection points: 2
#     Edge 174, Type (0, 0), BuildingBlock: OJICUG_clean_linker_0, # of connection points: 2
#     Edge 175, Type (0, 0), BuildingBlock: OJICUG_clean_linker_0, # of connection points: 2
#     Edge 176, Type (0, 0), BuildingBlock: OJICUG_clean_linker_0, # of connection points: 2
#     Edge 177, Type (0, 0), BuildingBlock: OJICUG_clean_linker_0, # of connection points: 2
#     Edge 178, Type (0, 0), BuildingBlock: OJICUG_clean_linker_0, # of connection points: 2
#     Edge 179, Type (0, 0), BuildingBlock: OJICUG_clean_linker_0, # of connection points: 2
#     Edge 180, Type (0, 0), BuildingBlock: OJICUG_clean_linker_0, # of connection points: 2
#     Edge 181, Type (0, 0), BuildingBlock: OJICUG_clean_linker_0, # of connection points: 2
#     Edge 182, Type (0, 0), BuildingBlock: OJICUG_clean_linker_0, # of connection points: 2
#     Edge 183, Type (0, 0), BuildingBlock: OJICUG_clean_linker_0, # of connection points: 2
#     Edge 184, Type (0, 0), BuildingBlock: OJICUG_clean_linker_0, # of connection points: 2
#     Edge 185, Type (0, 0), BuildingBlock: OJICUG_clean_linker_0, # of connection points: 2
#     Edge 186, Type (0, 0), BuildingBlock: OJICUG_clean_linker_0, # of connection points: 2
#     Edge 187, Type (0, 0), BuildingBlock: OJICUG_clean_linker_0, # of connection points: 2
#     Edge 188, Type (0, 0), BuildingBlock: OJICUG_clean_linker_0, # of connection points: 2
#     Edge 189, Type (0, 0), BuildingBlock: OJICUG_clean_linker_0, # of connection points: 2
#     Edge 190, Type (0, 0), BuildingBlock: OJICUG_clean_linker_0, # of connection points: 2
#     Edge 191, Type (0, 0), BuildingBlock: OJICUG_clean_linker_0, # of connection points: 2
#     Edge 192, Type (0, 0), BuildingBlock: OJICUG_clean_linker_0, # of connection points: 2
#     Edge 193, Type (0, 0), BuildingBlock: OJICUG_clean_linker_0, # of connection points: 2
#     Edge 194, Type (0, 0), BuildingBlock: OJICUG_clean_linker_0, # of connection points: 2
#     Edge 195, Type (0, 0), BuildingBlock: OJICUG_clean_linker_0, # of connection points: 2
#     Edge 196, Type (0, 0), BuildingBlock: OJICUG_clean_linker_0, # of connection points: 2
#     Edge 197, Type (0, 0), BuildingBlock: OJICUG_clean_linker_0, # of connection points: 2
#     Edge 198, Type (0, 0), BuildingBlock: OJICUG_clean_linker_0, # of connection points: 2
#     Edge 199, Type (0, 0), BuildingBlock: OJICUG_clean_linker_0, # of connection points: 2
#     Edge 200, Type (0, 0), BuildingBlock: OJICUG_clean_linker_0, # of connection points: 2
#     Edge 201, Type (0, 0), BuildingBlock: OJICUG_clean_linker_0, # of connection points: 2
#     Edge 202, Type (0, 0), BuildingBlock: OJICUG_clean_linker_0, # of connection points: 2
#     Edge 203, Type (0, 0), BuildingBlock: OJICUG_clean_linker_0, # of connection points: 2
#     Edge 204, Type (0, 0), BuildingBlock: OJICUG_clean_linker_0, # of connection points: 2
#     Edge 205, Type (0, 0), BuildingBlock: OJICUG_clean_linker_0, # of connection points: 2
#     Edge 206, Type (0, 0), BuildingBlock: OJICUG_clean_linker_0, # of connection points: 2
#     Edge 207, Type (0, 0), BuildingBlock: OJICUG_clean_linker_0, # of connection points: 2
#     Edge 208, Type (0, 0), BuildingBlock: OJICUG_clean_linker_0, # of connection points: 2
#     Edge 209, Type (0, 0), BuildingBlock: OJICUG_clean_linker_0, # of connection points: 2
#     Edge 210, Type (0, 0), BuildingBlock: OJICUG_clean_linker_0, # of connection points: 2
#     Edge 211, Type (0, 0), BuildingBlock: OJICUG_clean_linker_0, # of connection points: 2
#     Edge 212, Type (0, 0), BuildingBlock: OJICUG_clean_linker_0, # of connection points: 2
#     Edge 213, Type (0, 0), BuildingBlock: OJICUG_clean_linker_0, # of connection points: 2
#     Edge 214, Type (0, 0), BuildingBlock: OJICUG_clean_linker_0, # of connection points: 2
#     Edge 215, Type (0, 0), BuildingBlock: OJICUG_clean_linker_0, # of connection points: 2
#     Edge 216, Type (0, 0), BuildingBlock: OJICUG_clean_linker_0, # of connection points: 2
#     Edge 217, Type (0, 0), BuildingBlock: OJICUG_clean_linker_0, # of connection points: 2
#     Edge 218, Type (0, 0), BuildingBlock: OJICUG_clean_linker_0, # of connection points: 2
#     Edge 219, Type (0, 0), BuildingBlock: OJICUG_clean_linker_0, # of connection points: 2
#     Edge 220, Type (0, 0), BuildingBlock: OJICUG_clean_linker_0, # of connection points: 2
#     Edge 221, Type (0, 0), BuildingBlock: OJICUG_clean_linker_0, # of connection points: 2
#     Edge 222, Type (0, 0), BuildingBlock: OJICUG_clean_linker_0, # of connection points: 2
#     Edge 223, Type (0, 0), BuildingBlock: OJICUG_clean_linker_0, # of connection points: 2
#     Edge 224, Type (0, 0), BuildingBlock: OJICUG_clean_linker_0, # of connection points: 2
#     Edge 225, Type (0, 0), BuildingBlock: OJICUG_clean_linker_0, # of connection points: 2
#     Edge 226, Type (0, 0), BuildingBlock: OJICUG_clean_linker_0, # of connection points: 2
#     Edge 227, Type (0, 0), BuildingBlock: OJICUG_clean_linker_0, # of connection points: 2
#     Edge 228, Type (0, 0), BuildingBlock: OJICUG_clean_linker_0, # of connection points: 2
#     Edge 229, Type (0, 0), BuildingBlock: OJICUG_clean_linker_0, # of connection points: 2
#     Edge 230, Type (0, 0), BuildingBlock: OJICUG_clean_linker_0, # of connection points: 2
#     Edge 231, Type (0, 0), BuildingBlock: OJICUG_clean_linker_0, # of connection points: 2
#     Edge 232, Type (0, 0), BuildingBlock: OJICUG_clean_linker_0, # of connection points: 2
#     Edge 233, Type (0, 0), BuildingBlock: OJICUG_clean_linker_0, # of connection points: 2
#     Edge 234, Type (0, 0), BuildingBlock: OJICUG_clean_linker_0, # of connection points: 2
#     Edge 235, Type (0, 0), BuildingBlock: OJICUG_clean_linker_0, # of connection points: 2
#     Edge 236, Type (0, 0), BuildingBlock: OJICUG_clean_linker_0, # of connection points: 2
#     Edge 237, Type (0, 0), BuildingBlock: OJICUG_clean_linker_0, # of connection points: 2
#     Edge 238, Type (0, 0), BuildingBlock: OJICUG_clean_linker_0, # of connection points: 2
#     Edge 239, Type (0, 0), BuildingBlock: OJICUG_clean_linker_0, # of connection points: 2
#     Edge 240, Type (0, 0), BuildingBlock: OJICUG_clean_linker_0, # of connection points: 2
#     Edge 241, Type (0, 0), BuildingBlock: OJICUG_clean_linker_0, # of connection points: 2
#     Edge 242, Type (0, 0), BuildingBlock: OJICUG_clean_linker_0, # of connection points: 2
#     Edge 243, Type (0, 0), BuildingBlock: OJICUG_clean_linker_0, # of connection points: 2
#     Edge 244, Type (0, 0), BuildingBlock: OJICUG_clean_linker_0, # of connection points: 2
#     Edge 245, Type (0, 0), BuildingBlock: OJICUG_clean_linker_0, # of connection points: 2
#     Edge 246, Type (0, 0), BuildingBlock: OJICUG_clean_linker_0, # of connection points: 2
#     Edge 247, Type (0, 0), BuildingBlock: OJICUG_clean_linker_0, # of connection points: 2
#     Edge 248, Type (0, 0), BuildingBlock: OJICUG_clean_linker_0, # of connection points: 2
#     Edge 249, Type (0, 0), BuildingBlock: OJICUG_clean_linker_0, # of connection points: 2
#     Edge 250, Type (0, 0), BuildingBlock: OJICUG_clean_linker_0, # of connection points: 2
#     Edge 251, Type (0, 0), BuildingBlock: OJICUG_clean_linker_0, # of connection points: 2
#     Edge 252, Type (0, 0), BuildingBlock: OJICUG_clean_linker_0, # of connection points: 2
#     Edge 253, Type (0, 0), BuildingBlock: OJICUG_clean_linker_0, # of connection points: 2
#     Edge 254, Type (0, 0), BuildingBlock: OJICUG_clean_linker_0, # of connection points: 2
#     Edge 255, Type (0, 0), BuildingBlock: OJICUG_clean_linker_0, # of connection points: 2
#     Edge 256, Type (0, 0), BuildingBlock: OJICUG_clean_linker_0, # of connection points: 2
#     Edge 257, Type (0, 0), BuildingBlock: OJICUG_clean_linker_0, # of connection points: 2
#     Edge 258, Type (0, 0), BuildingBlock: OJICUG_clean_linker_0, # of connection points: 2
#     Edge 259, Type (0, 0), BuildingBlock: OJICUG_clean_linker_0, # of connection points: 2
#     Edge 260, Type (0, 0), BuildingBlock: OJICUG_clean_linker_0, # of connection points: 2
#     Edge 261, Type (0, 0), BuildingBlock: OJICUG_clean_linker_0, # of connection points: 2
#     Edge 262, Type (0, 0), BuildingBlock: OJICUG_clean_linker_0, # of connection points: 2
#     Edge 263, Type (0, 0), BuildingBlock: OJICUG_clean_linker_0, # of connection points: 2
#     Edge 264, Type (0, 0), BuildingBlock: OJICUG_clean_linker_0, # of connection points: 2
#     Edge 265, Type (0, 0), BuildingBlock: OJICUG_clean_linker_0, # of connection points: 2
#     Edge 266, Type (0, 0), BuildingBlock: OJICUG_clean_linker_0, # of connection points: 2
#     Edge 267, Type (0, 0), BuildingBlock: OJICUG_clean_linker_0, # of connection points: 2
#     Edge 268, Type (0, 0), BuildingBlock: OJICUG_clean_linker_0, # of connection points: 2
#     Edge 269, Type (0, 0), BuildingBlock: OJICUG_clean_linker_0, # of connection points: 2
#     Edge 270, Type (0, 0), BuildingBlock: OJICUG_clean_linker_0, # of connection points: 2
#     Edge 271, Type (0, 0), BuildingBlock: OJICUG_clean_linker_0, # of connection points: 2
#     Edge 272, Type (0, 0), BuildingBlock: OJICUG_clean_linker_0, # of connection points: 2
#     Edge 273, Type (0, 0), BuildingBlock: OJICUG_clean_linker_0, # of connection points: 2
#     Edge 274, Type (0, 0), BuildingBlock: OJICUG_clean_linker_0, # of connection points: 2
#     Edge 275, Type (0, 0), BuildingBlock: OJICUG_clean_linker_0, # of connection points: 2
#     Edge 276, Type (0, 0), BuildingBlock: OJICUG_clean_linker_0, # of connection points: 2
#     Edge 277, Type (0, 0), BuildingBlock: OJICUG_clean_linker_0, # of connection points: 2
#     Edge 278, Type (0, 0), BuildingBlock: OJICUG_clean_linker_0, # of connection points: 2
#     Edge 279, Type (0, 0), BuildingBlock: OJICUG_clean_linker_0, # of connection points: 2
#     Edge 280, Type (0, 0), BuildingBlock: OJICUG_clean_linker_0, # of connection points: 2
#     Edge 281, Type (0, 0), BuildingBlock: OJICUG_clean_linker_0, # of connection points: 2
#     Edge 282, Type (0, 0), BuildingBlock: OJICUG_clean_linker_0, # of connection points: 2
#     Edge 283, Type (0, 0), BuildingBlock: OJICUG_clean_linker_0, # of connection points: 2
#     Edge 284, Type (0, 0), BuildingBlock: OJICUG_clean_linker_0, # of connection points: 2
#     Edge 285, Type (0, 0), BuildingBlock: OJICUG_clean_linker_0, # of connection points: 2
#     Edge 286, Type (0, 0), BuildingBlock: OJICUG_clean_linker_0, # of connection points: 2
#     Edge 287, Type (0, 0), BuildingBlock: OJICUG_clean_linker_0, # of connection points: 2
#     Edge 288, Type (0, 0), BuildingBlock: OJICUG_clean_linker_0, # of connection points: 2
#     Edge 289, Type (0, 0), BuildingBlock: OJICUG_clean_linker_0, # of connection points: 2
#     Edge 290, Type (0, 0), BuildingBlock: OJICUG_clean_linker_0, # of connection points: 2
#     Edge 291, Type (0, 0), BuildingBlock: OJICUG_clean_linker_0, # of connection points: 2
#     Edge 292, Type (0, 0), BuildingBlock: OJICUG_clean_linker_0, # of connection points: 2
#     Edge 293, Type (0, 0), BuildingBlock: OJICUG_clean_linker_0, # of connection points: 2
#     Edge 294, Type (0, 0), BuildingBlock: OJICUG_clean_linker_0, # of connection points: 2
#     Edge 295, Type (0, 0), BuildingBlock: OJICUG_clean_linker_0, # of connection points: 2
#     Edge 296, Type (0, 0), BuildingBlock: OJICUG_clean_linker_0, # of connection points: 2
#     Edge 297, Type (0, 0), BuildingBlock: OJICUG_clean_linker_0, # of connection points: 2
#     Edge 298, Type (0, 0), BuildingBlock: OJICUG_clean_linker_0, # of connection points: 2
#     Edge 299, Type (0, 0), BuildingBlock: OJICUG_clean_linker_0, # of connection points: 2
#     Edge 300, Type (0, 0), BuildingBlock: OJICUG_clean_linker_0, # of connection points: 2
#     Edge 301, Type (0, 0), BuildingBlock: OJICUG_clean_linker_0, # of connection points: 2
#     Edge 302, Type (0, 0), BuildingBlock: OJICUG_clean_linker_0, # of connection points: 2
#     Edge 303, Type (0, 0), BuildingBlock: OJICUG_clean_linker_0, # of connection points: 2
#     Edge 304, Type (0, 0), BuildingBlock: OJICUG_clean_linker_0, # of connection points: 2
#     Edge 305, Type (0, 0), BuildingBlock: OJICUG_clean_linker_0, # of connection points: 2
#     Edge 306, Type (0, 0), BuildingBlock: OJICUG_clean_linker_0, # of connection points: 2
#     Edge 307, Type (0, 0), BuildingBlock: OJICUG_clean_linker_0, # of connection points: 2
#     Edge 308, Type (0, 0), BuildingBlock: OJICUG_clean_linker_0, # of connection points: 2
#     Edge 309, Type (0, 0), BuildingBlock: OJICUG_clean_linker_0, # of connection points: 2
#     Edge 310, Type (0, 0), BuildingBlock: OJICUG_clean_linker_0, # of connection points: 2
#     Edge 311, Type (0, 0), BuildingBlock: OJICUG_clean_linker_0, # of connection points: 2
#     Edge 312, Type (0, 0), BuildingBlock: OJICUG_clean_linker_0, # of connection points: 2
#     Edge 313, Type (0, 0), BuildingBlock: OJICUG_clean_linker_0, # of connection points: 2
#     Edge 314, Type (0, 0), BuildingBlock: OJICUG_clean_linker_0, # of connection points: 2
#     Edge 315, Type (0, 0), BuildingBlock: OJICUG_clean_linker_0, # of connection points: 2
#     Edge 316, Type (0, 0), BuildingBlock: OJICUG_clean_linker_0, # of connection points: 2
#     Edge 317, Type (0, 0), BuildingBlock: OJICUG_clean_linker_0, # of connection points: 2
#     Edge 318, Type (0, 0), BuildingBlock: OJICUG_clean_linker_0, # of connection points: 2
#     Edge 319, Type (0, 0), BuildingBlock: OJICUG_clean_linker_0, # of connection points: 2
#     Edge 320, Type (0, 0), BuildingBlock: OJICUG_clean_linker_0, # of connection points: 2
#     Edge 321, Type (0, 0), BuildingBlock: OJICUG_clean_linker_0, # of connection points: 2
#     Edge 322, Type (0, 0), BuildingBlock: OJICUG_clean_linker_0, # of connection points: 2
#     Edge 323, Type (0, 0), BuildingBlock: OJICUG_clean_linker_0, # of connection points: 2
#     Edge 324, Type (0, 0), BuildingBlock: OJICUG_clean_linker_0, # of connection points: 2
#     Edge 325, Type (0, 0), BuildingBlock: OJICUG_clean_linker_0, # of connection points: 2
#     Edge 326, Type (0, 0), BuildingBlock: OJICUG_clean_linker_0, # of connection points: 2
#     Edge 327, Type (0, 0), BuildingBlock: OJICUG_clean_linker_0, # of connection points: 2
#     Edge 328, Type (0, 0), BuildingBlock: OJICUG_clean_linker_0, # of connection points: 2
#     Edge 329, Type (0, 0), BuildingBlock: OJICUG_clean_linker_0, # of connection points: 2
#     Edge 330, Type (0, 0), BuildingBlock: OJICUG_clean_linker_0, # of connection points: 2
#     Edge 331, Type (0, 0), BuildingBlock: OJICUG_clean_linker_0, # of connection points: 2
#     Edge 332, Type (0, 0), BuildingBlock: OJICUG_clean_linker_0, # of connection points: 2
#     Edge 333, Type (0, 0), BuildingBlock: OJICUG_clean_linker_0, # of connection points: 2
#     Edge 334, Type (0, 0), BuildingBlock: OJICUG_clean_linker_0, # of connection points: 2
#     Edge 335, Type (0, 0), BuildingBlock: OJICUG_clean_linker_0, # of connection points: 2
#     Edge 336, Type (0, 0), BuildingBlock: OJICUG_clean_linker_0, # of connection points: 2
#     Edge 337, Type (0, 0), BuildingBlock: OJICUG_clean_linker_0, # of connection points: 2
#     Edge 338, Type (0, 0), BuildingBlock: OJICUG_clean_linker_0, # of connection points: 2
#     Edge 339, Type (0, 0), BuildingBlock: OJICUG_clean_linker_0, # of connection points: 2
#     Edge 340, Type (0, 0), BuildingBlock: OJICUG_clean_linker_0, # of connection points: 2
#     Edge 341, Type (0, 0), BuildingBlock: OJICUG_clean_linker_0, # of connection points: 2
#     Edge 342, Type (0, 0), BuildingBlock: OJICUG_clean_linker_0, # of connection points: 2
#     Edge 343, Type (0, 0), BuildingBlock: OJICUG_clean_linker_0, # of connection points: 2
#     Edge 344, Type (0, 0), BuildingBlock: OJICUG_clean_linker_0, # of connection points: 2
#     Edge 345, Type (0, 0), BuildingBlock: OJICUG_clean_linker_0, # of connection points: 2
#     Edge 346, Type (0, 0), BuildingBlock: OJICUG_clean_linker_0, # of connection points: 2
#     Edge 347, Type (0, 0), BuildingBlock: OJICUG_clean_linker_0, # of connection points: 2
#     Edge 348, Type (0, 0), BuildingBlock: OJICUG_clean_linker_0, # of connection points: 2
#     Edge 349, Type (0, 0), BuildingBlock: OJICUG_clean_linker_0, # of connection points: 2
#     Edge 350, Type (0, 0), BuildingBlock: OJICUG_clean_linker_0, # of connection points: 2
#     Edge 351, Type (0, 0), BuildingBlock: OJICUG_clean_linker_0, # of connection points: 2
#     Edge 352, Type (0, 0), BuildingBlock: OJICUG_clean_linker_0, # of connection points: 2
#     Edge 353, Type (0, 0), BuildingBlock: OJICUG_clean_linker_0, # of connection points: 2
#     Edge 354, Type (0, 0), BuildingBlock: OJICUG_clean_linker_0, # of connection points: 2
#     Edge 355, Type (0, 0), BuildingBlock: OJICUG_clean_linker_0, # of connection points: 2
#     Edge 356, Type (0, 0), BuildingBlock: OJICUG_clean_linker_0, # of connection points: 2
#     Edge 357, Type (0, 0), BuildingBlock: OJICUG_clean_linker_0, # of connection points: 2
#     Edge 358, Type (0, 0), BuildingBlock: OJICUG_clean_linker_0, # of connection points: 2
#     Edge 359, Type (0, 0), BuildingBlock: OJICUG_clean_linker_0, # of connection points: 2
#     Edge 360, Type (0, 0), BuildingBlock: OJICUG_clean_linker_0, # of connection points: 2
#     Edge 361, Type (0, 0), BuildingBlock: OJICUG_clean_linker_0, # of connection points: 2
#     Edge 362, Type (0, 0), BuildingBlock: OJICUG_clean_linker_0, # of connection points: 2
#     Edge 363, Type (0, 0), BuildingBlock: OJICUG_clean_linker_0, # of connection points: 2
#     Edge 364, Type (0, 0), BuildingBlock: OJICUG_clean_linker_0, # of connection points: 2
#     Edge 365, Type (0, 0), BuildingBlock: OJICUG_clean_linker_0, # of connection points: 2
#     Edge 366, Type (0, 0), BuildingBlock: OJICUG_clean_linker_0, # of connection points: 2
#     Edge 367, Type (0, 0), BuildingBlock: OJICUG_clean_linker_0, # of connection points: 2
#     Edge 368, Type (0, 0), BuildingBlock: OJICUG_clean_linker_0, # of connection points: 2
#     Edge 369, Type (0, 0), BuildingBlock: OJICUG_clean_linker_0, # of connection points: 2
#     Edge 370, Type (0, 0), BuildingBlock: OJICUG_clean_linker_0, # of connection points: 2
#     Edge 371, Type (0, 0), BuildingBlock: OJICUG_clean_linker_0, # of connection points: 2
#     Edge 372, Type (0, 0), BuildingBlock: OJICUG_clean_linker_0, # of connection points: 2
#     Edge 373, Type (0, 0), BuildingBlock: OJICUG_clean_linker_0, # of connection points: 2
#     Edge 374, Type (0, 0), BuildingBlock: OJICUG_clean_linker_0, # of connection points: 2
#     Edge 375, Type (0, 0), BuildingBlock: OJICUG_clean_linker_0, # of connection points: 2
#     Edge 376, Type (0, 0), BuildingBlock: OJICUG_clean_linker_0, # of connection points: 2
#     Edge 377, Type (0, 0), BuildingBlock: OJICUG_clean_linker_0, # of connection points: 2
#     Edge 378, Type (0, 0), BuildingBlock: OJICUG_clean_linker_0, # of connection points: 2
#     Edge 379, Type (0, 0), BuildingBlock: OJICUG_clean_linker_0, # of connection points: 2
#     Edge 380, Type (0, 0), BuildingBlock: OJICUG_clean_linker_0, # of connection points: 2
#     Edge 381, Type (0, 0), BuildingBlock: OJICUG_clean_linker_0, # of connection points: 2
#     Edge 382, Type (0, 0), BuildingBlock: OJICUG_clean_linker_0, # of connection points: 2
#     Edge 383, Type (0, 0), BuildingBlock: OJICUG_clean_linker_0, # of connection points: 2
# Relax obj value: 0.398
# Max RMSD: 0.273
# Mean RMSD: 0.253
data_MOF--net-ana-e--node1-BETDEL_clean_sbu_0--edge1-OJICUG_clean_linker_0
_symmetry_space_group_name_H-M    P1
_symmetry_Int_Tables_number       1
_symmetry_cell_setting            triclinic
loop_
_symmetry_equiv_pos_as_xyz
'x, y, z'
_cell_length_a     57.69547
_cell_length_b     58.660823
_cell_length_c     60.054064
_cell_angle_alpha  90.258078
_cell_angle_beta   90.904332
_cell_angle_gamma 89.409617
loop_
_atom_site_label
_atom_site_type_symbol
_atom_site_fract_x
_atom_site_fract_y
_atom_site_fract_z
_atom_type_partial_charge
Dy0 Dy 0.01755 0.09439 0.36591 0.0
C1 C 0.93187 0.12683 0.40187 0.0
C2 C 0.06002 0.0853 0.34842 0.0
Dy3 Dy 0.976 0.11656 0.38999 0.0
O4 O 0.04875 0.07161 0.36119 0.0
O5 O 0.04811 0.10393 0.34528 0.0
O6 O 0.99732 0.06222 0.36145 0.0
O7 O 0.99194 0.08309 0.38953 0.0
C8 C 0.98494 0.06581 0.37909 0.0
C9 C 0.00828 0.145 0.37599 0.0
O10 O 0.99702 0.1082 0.41996 0.0
O11 O 0.03153 0.10507 0.40055 0.0
O12 O 0.95039 0.13675 0.40959 0.0
O13 O 0.93791 0.11018 0.38886 0.0
O14 O 0.99601 0.14924 0.39351 0.0
O15 O 0.00116 0.12745 0.36639 0.0
O16 O 0.99479 0.10182 0.33531 0.0
O17 O 0.96235 0.11375 0.35487 0.0
C18 C 0.01994 0.10814 0.41952 0.0
C19 C 0.97274 0.10891 0.33585 0.0
Dy20 Dy 0.1662 0.79136 0.61421 0.0
C21 C 0.1019 0.72224 0.64397 0.0
C22 C 0.18374 0.8323 0.60104 0.0
Dy23 Dy 0.12989 0.75755 0.63387 0.0
O24 O 0.16957 0.81977 0.58949 0.0
O25 O 0.18901 0.82201 0.61962 0.0
O26 O 0.19231 0.76369 0.60801 0.0
O27 O 0.16766 0.76004 0.63335 0.0
C28 C 0.18285 0.74983 0.62211 0.0
C29 C 0.11569 0.80005 0.62462 0.0
O30 O 0.14811 0.76761 0.6646 0.0
O31 O 0.15907 0.80241 0.65 0.0
O32 O 0.09914 0.74308 0.6509 0.0
O33 O 0.12053 0.72046 0.63216 0.0
O34 O 0.10662 0.7883 0.64047 0.0
O35 O 0.12939 0.7879 0.61402 0.0
O36 O 0.15 0.77742 0.58251 0.0
O37 O 0.12884 0.74799 0.59813 0.0
C38 C 0.15414 0.7891 0.66725 0.0
C39 C 0.13632 0.75935 0.58075 0.0
Dy40 Dy 0.49127 0.88185 0.8357 0.0
C41 C 0.47619 0.87231 0.92698 0.0
C42 C 0.50697 0.88853 0.79355 0.0
Dy43 Dy 0.48353 0.88225 0.88361 0.0
O44 O 0.49498 0.87128 0.80001 0.0
O45 O 0.5087 0.90311 0.8099 0.0
O46 O 0.48217 0.84523 0.83299 0.0
O47 O 0.46471 0.86614 0.85593 0.0
C48 C 0.46679 0.84604 0.84852 0.0
C49 C 0.51347 0.91499 0.87102 0.0
O50 O 0.51058 0.85472 0.88286 0.0
O51 O 0.5226 0.86193 0.84721 0.0
O52 O 0.48066 0.89241 0.91936 0.0
O53 O 0.47532 0.85763 0.91081 0.0
O54 O 0.49739 0.91799 0.88563 0.0
O55 O 0.51203 0.89491 0.86365 0.0
O56 O 0.45803 0.90361 0.83645 0.0
O57 O 0.44939 0.89748 0.87344 0.0
C58 C 0.52505 0.8511 0.86641 0.0
C59 C 0.44361 0.9056 0.85357 0.0
Dy60 Dy 0.35943 0.22408 0.10867 0.0
C61 C 0.40882 0.30225 0.13801 0.0
C62 C 0.34125 0.18256 0.09757 0.0
Dy63 Dy 0.38897 0.26116 0.13001 0.0
O64 O 0.33201 0.19715 0.11121 0.0
O65 O 0.36016 0.19089 0.08961 0.0
O66 O 0.33182 0.25042 0.09965 0.0
O67 O 0.35258 0.25451 0.12819 0.0
C68 C 0.3377 0.264 0.11594 0.0
C69 C 0.41065 0.22147 0.12809 0.0
O70 O 0.37173 0.24875 0.16054 0.0
O71 O 0.36334 0.21354 0.14478 0.0
O72 O 0.41372 0.28361 0.14875 0.0
O73 O 0.39202 0.29856 0.1239 0.0
O74 O 0.41532 0.23702 0.14283 0.0
O75 O 0.39704 0.22899 0.11292 0.0
O76 O 0.37077 0.24016 0.07658 0.0
O77 O 0.39203 0.26892 0.09361 0.0
C78 C 0.36604 0.22699 0.16249 0.0
C79 C 0.38364 0.25876 0.07552 0.0
Dy80 Dy 0.01713 0.88335 0.13275 0.0
C81 C 0.9343 0.84913 0.09346 0.0
C82 C 0.05964 0.89641 0.1487 0.0
Dy83 Dy 0.97734 0.86062 0.1084 0.0
O84 O 0.04618 0.90857 0.13583 0.0
O85 O 0.04983 0.87712 0.15293 0.0
O86 O 0.99325 0.91278 0.14166 0.0
O87 O 0.98874 0.89522 0.11152 0.0
C88 C 0.98032 0.9103 0.1239 0.0
C89 C 0.01375 0.83304 0.11438 0.0
O90 O 0.99398 0.87623 0.07938 0.0
O91 O 0.02977 0.87892 0.09712 0.0
O92 O 0.95364 0.84174 0.08522 0.0
O93 O 0.93868 0.86329 0.10962 0.0
O94 O -0.00095 0.83124 0.09793 0.0
O95 O 0.00686 0.84766 0.12843 0.0
O96 O 0.99771 0.87206 0.1632 0.0
O97 O 0.96598 0.85759 0.14374 0.0
C98 C 0.0167 0.87837 0.07863 0.0
C99 C 0.97689 0.86254 0.1627 0.0
Dy100 Dy 0.38249 0.76539 0.41454 0.0
C101 C 0.38349 0.78824 0.32066 0.0
C102 C 0.38116 0.74461 0.45501 0.0
Dy103 Dy 0.38087 0.77182 0.3624 0.0
O104 O 0.39942 0.75365 0.44643 0.0
O105 O 0.36329 0.74797 0.44183 0.0
O106 O 0.40486 0.79636 0.41884 0.0
O107 O 0.40611 0.77749 0.38912 0.0
C108 C 0.41273 0.79559 0.39862 0.0
C109 C 0.34758 0.74223 0.37467 0.0
O110 O 0.40704 0.74337 0.36405 0.0
O111 O 0.40113 0.73455 0.40137 0.0
O112 O 0.39819 0.77363 0.32923 0.0
O113 O 0.36784 0.79395 0.33494 0.0
O114 O 0.35167 0.74758 0.35421 0.0
O115 O 0.36111 0.75398 0.38672 0.0
O116 O 0.35913 0.79634 0.41292 0.0
O117 O 0.3683 0.80542 0.37634 0.0
C118 C 0.41042 0.73009 0.38171 0.0
C119 C 0.35899 0.81071 0.39581 0.0
Dy120 Dy 0.48548 0.11225 0.6703 0.0
C121 C 0.45843 0.10998 0.57754 0.0
C122 C 0.50792 0.11351 0.71012 0.0
Dy123 Dy 0.47207 0.10518 0.62079 0.0
O124 O 0.49808 0.13093 0.70046 0.0
O125 O 0.50552 0.09518 0.69796 0.0
O126 O 0.45271 0.13063 0.67851 0.0
O127 O 0.46593 0.1314 0.64588 0.0
C128 C 0.44882 0.1363 0.6579 0.0
C129 C 0.50199 0.0735 0.63765 0.0
O130 O 0.50255 0.12763 0.61606 0.0
O131 O 0.51097 0.13563 0.65346 0.0
O132 O 0.4669 0.12612 0.58989 0.0
O133 O 0.45752 0.09118 0.58874 0.0
O134 O 0.48641 0.06928 0.6224 0.0
O135 O 0.5006 0.09433 0.64223 0.0
O136 O 0.45555 0.08727 0.67228 0.0
O137 O 0.43979 0.09474 0.63718 0.0
C138 C 0.51477 0.13829 0.63176 0.0
C139 C 0.43804 0.08643 0.65747 0.0
Dy140 Dy 0.16518 0.22044 0.89843 0.0
C141 C 0.12115 0.30361 0.86956 0.0
C142 C 0.17315 0.17759 0.91467 0.0
Dy143 Dy 0.13884 0.26193 0.87815 0.0
O144 O 0.18825 0.18955 0.904 0.0
O145 O 0.15403 0.18918 0.91659 0.0
O146 O 0.19808 0.24109 0.89884 0.0
O147 O 0.17238 0.24595 0.87417 0.0
C148 C 0.19132 0.25316 0.88164 0.0
C149 C 0.11295 0.22853 0.89377 0.0
O150 O 0.1414 0.24277 0.8466 0.0
O151 O 0.15356 0.20855 0.86307 0.0
O152 O 0.11733 0.29187 0.8873 0.0
O153 O 0.13446 0.29235 0.856 0.0
O154 O 0.10668 0.24082 0.87677 0.0
O155 O 0.13148 0.23583 0.90204 0.0
O156 O 0.16065 0.24363 0.92884 0.0
O157 O 0.15694 0.27653 0.90794 0.0
C158 C 0.14583 0.22062 0.84539 0.0
C159 C 0.1595 0.26633 0.92739 0.0
Dy160 Dy 0.33972 0.04187 0.10543 0.0
C161 C 0.37978 0.95641 0.13175 0.0
C162 C 0.32733 0.08609 0.09666 0.0
Dy163 Dy 0.36577 2e-05 0.12453 0.0
O164 O 0.3379 0.07243 0.08302 0.0
O165 O 0.32259 0.07523 0.11484 0.0
O166 O 0.33232 0.02122 0.07435 0.0
O167 O 0.36337 0.0165 0.09255 0.0
C168 C 0.35145 0.00936 0.07638 0.0
C169 C 0.35366 0.03202 0.15406 0.0
O170 O 0.3962 0.01882 0.11298 0.0
O171 O 0.37668 0.05337 0.11519 0.0
O172 O 0.38742 0.97408 0.14262 0.0
O173 O 0.36506 0.96285 0.11646 0.0
O174 O 0.37199 0.01921 0.15663 0.0
O175 O 0.34216 0.02551 0.13743 0.0
O176 O 0.30812 0.02045 0.11334 0.0
O177 O 0.32937 0.9872 0.12066 0.0
C178 C 0.39645 0.04125 0.11479 0.0
C179 C 0.30934 0.99812 0.11761 0.0
Dy180 Dy 0.20142 0.09144 0.34384 0.0
C181 C 0.28237 0.12291 0.3916 0.0
C182 C 0.15709 0.07971 0.33264 0.0
Dy183 Dy 0.24128 0.11067 0.3732 0.0
O184 O 0.16881 0.09565 0.32308 0.0
O185 O 0.17005 0.06961 0.34751 0.0
O186 O 0.22453 0.09039 0.31357 0.0
O187 O 0.22993 0.1143 0.33908 0.0
C188 C 0.23824 0.1061 0.32163 0.0
C189 C 0.2036 0.09944 0.39527 0.0
O190 O 0.22525 0.14297 0.36201 0.0
O191 O 0.18939 0.1267 0.35528 0.0
O192 O 0.26245 0.13196 0.39629 0.0
O193 O 0.27988 0.10755 0.37612 0.0
O194 O 0.21783 0.11497 0.40223 0.0
O195 O 0.21165 0.08914 0.37867 0.0
O196 O 0.22142 0.0585 0.34981 0.0
O197 O 0.25253 0.07432 0.36961 0.0
C198 C 0.20251 0.14476 0.35986 0.0
C199 C 0.2417 0.05667 0.36061 0.0
Dy200 Dy 0.15479 0.97037 0.59905 0.0
C201 C 0.12145 0.04881 0.65104 0.0
C202 C 0.17195 0.92757 0.59323 0.0
Dy203 Dy 0.13119 0.00918 0.62889 0.0
O204 O 0.17784 0.94495 0.58105 0.0
O205 O 0.15663 0.9336 0.60771 0.0
O206 O 0.14178 0.98662 0.56717 0.0
O207 O 0.14682 0.00633 0.59624 0.0
C208 C 0.13846 0.00642 0.57673 0.0
C209 C 0.13579 0.96744 0.64592 0.0
O210 O 0.1018 -0.00113 0.60729 0.0
O211 O 0.11645 0.96241 0.60033 0.0
O212 O 0.10951 0.03023 0.65231 0.0
O213 O 0.13824 0.04584 0.6372 0.0
O214 O 0.11911 0.98108 0.65189 0.0
O215 O 0.14918 0.97762 0.63351 0.0
O216 O 0.1868 0.98687 0.61395 0.0
O217 O 0.16849 0.01221 0.63861 0.0
C218 C 0.09883 0.97719 0.60196 0.0
C219 C 0.18734 0.00248 0.6302 0.0
Dy220 Dy 0.29788 0.89633 0.85893 0.0
C221 C 0.21052 0.87374 0.90284 0.0
C222 C 0.34361 0.90763 0.85186 0.0
Dy223 Dy 0.25406 0.87812 0.88654 0.0
O224 O 0.33079 0.89529 0.83855 0.0
O225 O 0.3312 0.91412 0.86869 0.0
O226 O 0.27831 0.89847 0.82524 0.0
O227 O 0.26256 0.88726 0.85352 0.0
C228 C 0.25896 0.8907 0.83323 0.0
C229 C 0.29525 0.87432 0.90693 0.0
O230 O 0.26257 0.84879 0.86469 0.0
O231 O 0.30157 0.85801 0.86101 0.0
O232 O 0.22722 0.85893 0.90561 0.0
O233 O 0.21753 0.89054 0.89079 0.0
O234 O 0.27769 0.86152 0.91141 0.0
O235 O 0.28901 0.89035 0.89408 0.0
O236 O 0.28063 0.92973 0.86823 0.0
O237 O 0.25288 0.91563 0.89274 0.0
C238 C 0.28442 0.84294 0.86085 0.0
C239 C 0.26346 0.93259 0.88266 0.0
Dy240 Dy 0.35016 0.95399 0.38906 0.0
C241 C 0.37077 0.03923 0.34676 0.0
C242 C 0.3435 0.9083 0.39765 0.0
Dy243 Dy 0.36548 0.99603 0.36164 0.0
O244 O 0.35411 0.92251 0.411 0.0
O245 O 0.33584 0.9194 0.38034 0.0
O246 O 0.34479 0.97643 0.41939 0.0
O247 O 0.36964 0.98519 0.39588 0.0
C248 C 0.35912 0.99211 0.41291 0.0
C249 C 0.35731 0.95827 0.338 0.0
O250 O 0.40011 0.98342 0.3727 0.0
O251 O 0.38698 0.94666 0.37805 0.0
O252 O 0.38275 0.02169 0.34008 0.0
O253 O 0.35632 0.03319 0.3619 0.0
O254 O 0.37081 0.97427 0.33119 0.0
O255 O 0.34644 0.965 0.3548 0.0
O256 O 0.31466 0.96972 0.38258 0.0
O257 O 0.32766 0.00302 0.36579 0.0
C258 C 0.40401 0.96126 0.37442 0.0
C259 C 0.3109 0.99013 0.37344 0.0
Dy260 Dy 0.29359 0.10088 0.65628 0.0
C261 C 0.20598 0.11497 0.60539 0.0
C262 C 0.33967 0.09005 0.66368 0.0
Dy263 Dy 0.24774 0.11024 0.62722 0.0
O264 O 0.3268 0.1017 0.67744 0.0
O265 O 0.3273 0.08462 0.64628 0.0
O266 O 0.27307 0.10205 0.68804 0.0
O267 O 0.2615 0.1202 0.65972 0.0
C268 C 0.25619 0.11412 0.67905 0.0
C269 C 0.28606 0.09808 0.60566 0.0
O270 O 0.26112 0.14512 0.62894 0.0
O271 O 0.29867 0.13623 0.64188 0.0
O272 O 0.21575 0.13075 0.61746 0.0
O273 O 0.21873 0.09659 0.60595 0.0
O274 O 0.27012 0.11097 0.59681 0.0
O275 O 0.27972 0.09092 0.62412 0.0
O276 O 0.27694 0.06645 0.65511 0.0
O277 O 0.23937 0.07968 0.64732 0.0
C278 C 0.2829 0.15062 0.63317 0.0
C279 C 0.25424 0.06331 0.65315 0.0
Dy280 Dy 0.15822 0.03839 0.90728 0.0
C281 C 0.1271 0.96387 0.85042 0.0
C282 C 0.17175 0.08062 0.92129 0.0
Dy283 Dy 0.13993 0.0018 0.87345 0.0
O284 O 0.18134 0.06881 0.90556 0.0
O285 O 0.15517 0.06893 0.93006 0.0
O286 O 0.15712 0.01336 0.93573 0.0
O287 O 0.13457 0.00995 0.90812 0.0
C288 C 0.14195 0.00041 0.92553 0.0
C289 C 0.15419 0.04045 0.85566 0.0
O290 O 0.10668 0.01766 0.88352 0.0
O291 O 0.12313 0.05169 0.89535 0.0
O292 O 0.11868 0.98418 0.84725 0.0
O293 O 0.1424 0.96421 0.86654 0.0
O294 O 0.13876 0.02768 0.84609 0.0
O295 O 0.16283 0.03067 0.87237 0.0
O296 O 0.19133 0.0183 0.90317 0.0
O297 O 0.17641 0.98966 0.87994 0.0
C298 C 0.10499 0.03964 0.88833 0.0
C299 C 0.19365 -0.00082 0.89142 0.0
Dy300 Dy 0.20058 0.89442 0.14378 0.0
C301 C 0.27494 0.86223 0.08926 0.0
C302 C 0.15738 0.90711 0.15744 0.0
Dy303 Dy 0.23746 0.87359 0.11301 0.0
O304 O 0.17087 0.89244 0.16753 0.0
O305 O 0.16809 0.91566 0.14062 0.0
O306 O 0.22599 0.89526 0.17261 0.0
O307 O 0.22859 0.87001 0.14764 0.0
C308 C 0.23831 0.87839 0.16461 0.0
C309 C 0.19824 0.88736 0.09359 0.0
O310 O 0.21981 0.84123 0.1203 0.0
O311 O 0.18643 0.85935 0.13286 0.0
O312 O 0.25953 0.87729 0.08334 0.0
O313 O 0.26988 0.85302 0.10818 0.0
O314 O 0.20986 0.8697 0.08675 0.0
O315 O 0.20881 0.89728 0.10915 0.0
O316 O 0.22167 0.92631 0.13684 0.0
O317 O 0.25374 0.90628 0.12394 0.0
C318 C 0.19776 0.84064 0.12593 0.0
C319 C 0.24343 0.92571 0.12955 0.0
Dy320 Dy 0.11893 0.36333 0.03507 0.0
C321 C 0.14361 0.41095 0.9548 0.0
C322 C 0.11399 0.34332 0.07564 0.0
Dy323 Dy 0.13547 0.39309 0.99565 0.0
O324 O 0.13258 0.34237 0.06376 0.0
O325 O 0.09799 0.35508 0.06526 0.0
O326 O 0.08717 0.35393 0.01524 0.0
O327 O 0.10253 0.38609 0.011 0.0
C328 C 0.08709 0.3728 0.0039 0.0
C329 C 0.16709 0.38278 0.02681 0.0
O330 O 0.12201 0.42087 0.01721 0.0
O331 O 0.12388 0.39937 0.04968 0.0
O332 O 0.15362 0.41721 0.97332 0.0
O333 O 0.12817 0.3956 0.9589 0.0
O334 O 0.16773 0.40155 0.01548 0.0
O335 O 0.1513 0.37036 0.01942 0.0
O336 O 0.13155 0.33467 0.01242 0.0
O337 O 0.13907 0.35748 0.98171 0.0
C338 C 0.12299 0.4195 0.03923 0.0
C339 C 0.13796 0.33712 0.9913 0.0
Dy340 Dy 0.61217 0.16246 0.98753 0.0
C341 C 0.61053 0.06731 0.96584 0.0
C342 C 0.61211 0.20701 0.00063 0.0
Dy343 Dy 0.60612 0.11249 0.97602 0.0
O344 O 0.62858 0.19681 0.98992 0.0
O345 O 0.59502 0.193 0.00308 0.0
O346 O 0.65045 0.15747 0.98666 0.0
O347 O 0.62924 0.1388 0.96474 0.0
C348 C 0.64977 0.14191 0.97129 0.0
C349 C 0.56876 0.13241 0.99407 0.0
O350 O 0.62808 0.11023 0.00734 0.0
O351 O 0.62179 0.14699 0.02028 0.0
O352 O 0.62466 0.07854 0.97871 0.0
O353 O 0.59421 0.08077 0.95848 0.0
O354 O 0.56771 0.11538 0.9803 0.0
O355 O 0.58963 0.13584 -0.00085 0.0
O356 O 0.59337 0.16565 0.95459 0.0
O357 O 0.60139 0.12873 0.94276 0.0
C358 C 0.63039 0.12615 0.02296 0.0
C359 C 0.59348 0.14967 0.93891 0.0
Dy360 Dy 0.12609 0.33794 0.21256 0.0
C361 C 0.15609 0.38131 0.29407 0.0
C362 C 0.11543 0.3271 0.16933 0.0
Dy363 Dy 0.14649 0.36353 0.25307 0.0
O364 O 0.1331 0.31903 0.18054 0.0
O365 O 0.10325 0.34035 0.18204 0.0
O366 O 0.11569 0.30821 0.23357 0.0
O367 O 0.14443 0.32791 0.24316 0.0
C368 C 0.13086 0.31255 0.24926 0.0
C369 C 0.14132 0.38842 0.2162 0.0
O370 O 0.17861 0.3484 0.23979 0.0
O371 O 0.16302 0.34649 0.20416 0.0
O372 O 0.16798 0.38483 0.27629 0.0
O373 O 0.13968 0.36694 0.28957 0.0
O374 O 0.15702 0.39264 0.23128 0.0
O375 O 0.12794 0.37334 0.22287 0.0
O376 O 0.09292 0.35259 0.22595 0.0
O377 O 0.10849 0.36654 0.25924 0.0
C378 C 0.18115 0.34803 0.21799 0.0
C379 C 0.09065 0.36257 0.24569 0.0
Dy380 Dy 0.89952 0.85285 0.46105 0.0
C381 C 0.86399 0.88746 0.54563 0.0
C382 C 0.90527 0.84072 0.41686 0.0
Dy383 Dy 0.87547 0.8735 0.50384 0.0
O384 O 0.89057 0.83174 0.4304 0.0
O385 O 0.91762 0.85562 0.42784 0.0
O386 O 0.93379 0.85102 0.48062 0.0
O387 O 0.9089 0.87564 0.48858 0.0
C388 C 0.92783 0.86691 0.49484 0.0
C389 C 0.84585 0.86197 0.47091 0.0
O390 O 0.88277 0.90523 0.48539 0.0
O391 O 0.88608 0.88752 0.45083 0.0
O392 O 0.86399 0.90046 0.52821 0.0
O393 O 0.87053 0.86701 0.54012 0.0
O394 O 0.84041 0.87522 0.48741 0.0
O395 O 0.86512 0.85259 0.4755 0.0
O396 O 0.89526 0.82077 0.48139 0.0
O397 O 0.88884 0.83955 0.51518 0.0
C398 C 0.88253 0.90589 0.46337 0.0
C399 C 0.8929 0.8208 0.50344 0.0
Dy400 Dy 0.88051 0.13252 0.21651 0.0
C401 C 0.83709 0.10447 0.29749 0.0
C402 C 0.90081 0.13898 0.17628 0.0
Dy403 Dy 0.85215 0.11365 0.25578 0.0
O404 O 0.88787 0.15387 0.18642 0.0
O405 O 0.90277 0.12061 0.18818 0.0
O406 O 0.8846 0.16549 0.23539 0.0
O407 O 0.85461 0.14597 0.2391 0.0
C408 C 0.8653 0.16318 0.24608 0.0
C409 C 0.86739 0.08248 0.22684 0.0
O410 O 0.82266 0.12319 0.23337 0.0
O411 O 0.845 0.12366 0.20141 0.0
O412 O 0.82894 0.09554 0.27917 0.0
O413 O 0.8521 0.11985 0.29252 0.0
O414 O 0.84904 0.07976 0.23869 0.0
O415 O 0.87768 0.10014 0.23315 0.0
O416 O 0.91039 0.12538 0.24074 0.0
O417 O 0.88714 0.11941 0.27146 0.0
C418 C 0.82449 0.12249 0.21139 0.0
C419 C 0.90776 0.12213 0.26251 0.0
Dy420 Dy 0.41344 0.62725 0.541 0.0
C421 C 0.37522 0.59785 0.45709 0.0
C422 C 0.42298 0.63689 0.58471 0.0
Dy423 Dy 0.38826 0.60856 0.49948 0.0
O424 O 0.43217 0.62016 0.57351 0.0
O425 O 0.40946 0.64881 0.57169 0.0
O426 O 0.44525 0.63443 0.52065 0.0
O427 O 0.42347 0.60746 0.51189 0.0
C428 C 0.44035 0.61899 0.50568 0.0
C429 C 0.36086 0.61565 0.53417 0.0
O430 O 0.40106 0.57649 0.51458 0.0
O431 O 0.40154 0.59195 0.54993 0.0
O432 O 0.36879 0.58719 0.4748 0.0
O433 O 0.38921 0.61416 0.46266 0.0
O434 O 0.35655 0.60052 0.51888 0.0
O435 O 0.3776 0.6279 0.5287 0.0
O436 O 0.40407 0.66084 0.52536 0.0
O437 O 0.38879 0.64599 0.49224 0.0
C438 C 0.3998 0.57413 0.53635 0.0
C439 C 0.39488 0.6634 0.50513 0.0
Dy440 Dy 0.11413 0.65369 0.30316 0.0
C441 C 0.15009 0.61542 0.22059 0.0
C442 C 0.09725 0.66044 0.3448 0.0
Dy443 Dy 0.13857 0.63132 0.26183 0.0
O444 O 0.1092 0.67539 0.33398 0.0
O445 O 0.09495 0.64204 0.33296 0.0
O446 O 0.10052 0.68238 0.28203 0.0
O447 O 0.13205 0.66577 0.27414 0.0
C448 C 0.117 0.68003 0.26761 0.0
C449 C 0.13373 0.60543 0.29774 0.0
O450 O 0.1676 0.65036 0.27662 0.0
O451 O 0.15251 0.64965 0.31226 0.0
O452 O 0.16088 0.61029 0.23908 0.0
O453 O 0.1338 0.6303 0.22462 0.0
O454 O 0.15081 0.60254 0.28417 0.0
O455 O 0.11974 0.61986 0.29023 0.0
O456 O 0.0829 0.63898 0.28576 0.0
O457 O 0.10119 0.62733 0.25313 0.0
C458 C 0.17045 0.65033 0.29849 0.0
C459 C 0.08252 0.63007 0.2654 0.0
Dy460 Dy 0.38171 0.34162 0.7758 0.0
C461 C 0.34195 0.37875 0.69363 0.0
C462 C 0.39578 0.33433 0.81955 0.0
Dy463 Dy 0.3587 0.36639 0.73451 0.0
O464 O 0.40418 0.34945 0.80619 0.0
O465 O 0.38046 0.32237 0.80856 0.0
O466 O 0.38454 0.3093 0.75492 0.0
O467 O 0.35777 0.33275 0.74864 0.0
C468 C 0.36752 0.31502 0.74136 0.0
C469 C 0.37322 0.3941 0.76711 0.0
O470 O 0.32734 0.35677 0.75289 0.0
O471 O 0.3463 0.35421 0.78709 0.0
O472 O 0.33191 0.38301 0.71239 0.0
O473 O 0.36108 0.36747 0.69731 0.0
O474 O 0.35819 0.40038 0.75203 0.0
O475 O 0.38234 0.37547 0.76155 0.0
O476 O 0.41362 0.34696 0.75464 0.0
O477 O 0.39351 0.35629 0.72172 0.0
C478 C 0.32702 0.35703 0.77488 0.0
C479 C 0.41293 0.35116 0.73277 0.0
Dy480 Dy 0.02089 0.88385 0.60668 0.0
C481 C 0.93665 0.91355 0.6486 0.0
C482 C 0.06557 0.87513 0.59559 0.0
Dy483 Dy 0.97933 0.90555 0.63097 0.0
O484 O 0.04756 0.86449 0.58761 0.0
O485 O 0.05864 0.89175 0.60822 0.0
O486 O 0.00144 0.85098 0.60266 0.0
O487 O 0.99571 0.87241 0.6301 0.0
C488 C 0.98892 0.8549 0.62009 0.0
C489 C 0.01164 0.9345 0.61729 0.0
O490 O 0.0021 0.89805 0.66159 0.0
O491 O 0.03427 0.88554 0.642 0.0
O492 O 0.94924 0.89541 0.65195 0.0
O493 O 0.94739 0.92744 0.63559 0.0
O494 O -0.00045 0.93802 0.63514 0.0
O495 O 0.00454 0.9171 0.60715 0.0
O496 O -0.00045 0.89184 0.57675 0.0
O497 O 0.9652 0.89466 0.59642 0.0
C498 C 0.02398 0.89047 0.66105 0.0
C499 C 0.97662 0.89169 0.57732 0.0
Dy500 Dy 0.8636 0.24338 0.3644 0.0
C501 C 0.81635 0.16385 0.39654 0.0
C502 C 0.89047 0.28049 0.35833 0.0
Dy503 Dy 0.82936 0.20564 0.38165 0.0
O504 O 0.87338 0.27463 0.34516 0.0
O505 O 0.89294 0.26598 0.3744 0.0
O506 O 0.89029 0.2152 0.35971 0.0
O507 O 0.86551 0.21332 0.38455 0.0
C508 C 0.88135 0.20277 0.37512 0.0
C509 C 0.80948 0.24537 0.37156 0.0
O510 O 0.84189 0.22226 0.41334 0.0
O511 O 0.85167 0.25654 0.39706 0.0
O512 O 0.83257 0.17631 0.40521 0.0
O513 O 0.80661 0.17451 0.37979 0.0
O514 O 0.80041 0.23117 0.38563 0.0
O515 O 0.8266 0.23635 0.36208 0.0
O516 O 0.85379 0.22848 0.33206 0.0
O517 O 0.83936 0.19457 0.34661 0.0
C518 C 0.84913 0.24361 0.4148 0.0
C519 C 0.84697 0.20713 0.32974 0.0
Dy520 Dy 0.51491 0.11608 0.11538 0.0
C521 C 0.48883 0.10811 0.20739 0.0
C522 C 0.52032 0.12926 0.07269 0.0
Dy523 Dy 0.50803 0.11459 0.16685 0.0
O524 O 0.5128 0.10948 0.07868 0.0
O525 O 0.52556 0.14154 0.09001 0.0
O526 O 0.50155 0.08029 0.11371 0.0
O527 O 0.48846 0.10276 0.13737 0.0
C528 C 0.4866 0.08284 0.12956 0.0
C529 C 0.53793 0.14734 0.15749 0.0
O530 O 0.54085 0.09283 0.16299 0.0
O531 O 0.54934 0.1024 0.12623 0.0
O532 O 0.49903 0.12645 0.20093 0.0
O533 O 0.49012 0.09254 0.19182 0.0
O534 O 0.5313 0.14314 0.17762 0.0
O535 O 0.52773 0.13405 0.14414 0.0
O536 O 0.48636 0.1416 0.11787 0.0
O537 O 0.47891 0.13812 0.15571 0.0
C538 C 0.55531 0.09342 0.14574 0.0
C539 C 0.47433 0.14695 0.13572 0.0
Dy540 Dy 0.61012 0.73648 0.86935 0.0
C541 C 0.66011 0.81438 0.90136 0.0
C542 C 0.59062 0.69538 0.86061 0.0
Dy543 Dy 0.64011 0.77345 0.89053 0.0
O544 O 0.58567 0.71415 0.8501 0.0
O545 O 0.60716 0.699 0.87503 0.0
O546 O 0.58304 0.76071 0.858 0.0
O547 O 0.60241 0.76829 0.88741 0.0
C548 C 0.58796 0.7759 0.87303 0.0
C549 C 0.66161 0.73341 0.88216 0.0
O550 O 0.62841 0.7577 0.92263 0.0
O551 O 0.60786 0.72836 0.90568 0.0
O552 O 0.66744 0.80022 0.88631 0.0
O553 O 0.64197 0.80601 0.91079 0.0
O554 O 0.66781 0.7467 0.89856 0.0
O555 O 0.64652 0.74325 0.87046 0.0
O556 O 0.62724 0.74932 0.83895 0.0
O557 O 0.63325 0.78475 0.855 0.0
C558 C 0.61582 0.73892 0.92372 0.0
C559 C 0.63123 0.77142 0.8371 0.0
Dy560 Dy 0.02066 0.13558 0.88823 0.0
C561 C 0.93834 0.09987 0.84783 0.0
C562 C 0.0635 0.14839 0.90254 0.0
Dy563 Dy 0.98087 0.11286 0.86374 0.0
O564 O 0.04411 0.15463 0.91148 0.0
O565 O 0.0593 0.13439 0.88622 0.0
O566 O 0.99847 0.16437 0.89944 0.0
O567 O 0.99086 0.14851 0.86861 0.0
C568 C 0.98384 0.16273 0.88295 0.0
C569 C 0.01825 0.08637 0.87135 0.0
O570 O -4e-05 0.12489 0.83338 0.0
O571 O 0.03179 0.13906 0.85292 0.0
O572 O 0.95206 0.08742 0.86019 0.0
O573 O 0.94789 0.1194 0.84411 0.0
O574 O 0.00502 0.08407 0.85377 0.0
O575 O 0.00972 0.1009 0.88427 0.0
O576 O 0.00492 0.1188 0.91699 0.0
O577 O 0.96886 0.1165 0.89971 0.0
C578 C 0.02079 0.13441 0.83396 0.0
C579 C 0.98224 0.11668 0.91803 0.0
Dy580 Dy 0.61511 0.2253 0.63594 0.0
C581 C 0.61783 0.25149 0.54596 0.0
C582 C 0.61616 0.21136 0.67875 0.0
Dy583 Dy 0.6157 0.23089 0.58671 0.0
O584 O 0.63423 0.21379 0.66648 0.0
O585 O 0.59732 0.21643 0.66766 0.0
O586 O 0.62954 0.2593 0.6423 0.0
O587 O 0.64031 0.24137 0.61347 0.0
C588 C 0.64101 0.26034 0.62404 0.0
C589 C 0.58483 0.20021 0.60061 0.0
O590 O 0.63862 0.1997 0.58767 0.0
O591 O 0.62969 0.19154 0.62424 0.0
O592 O 0.59979 0.24149 0.55383 0.0
O593 O 0.63512 0.2491 0.55994 0.0
O594 O 0.59499 0.19876 0.58145 0.0
O595 O 0.58986 0.21881 0.60991 0.0
O596 O 0.58606 0.25078 0.63368 0.0
O597 O 0.59578 0.26167 0.59812 0.0
C598 C 0.63906 0.18571 0.60499 0.0
C599 C 0.58398 0.2649 0.6166 0.0
Dy600 Dy 0.52459 0.8914 0.37755 0.0
C601 C 0.49114 0.88139 0.28762 0.0
C602 C 0.53814 0.88735 0.42094 0.0
Dy603 Dy 0.51194 0.88353 0.32813 0.0
O604 O 0.53986 0.90572 0.40918 0.0
O605 O 0.52881 0.87128 0.40909 0.0
O606 O 0.51029 0.92723 0.37548 0.0
O607 O 0.49619 0.90205 0.35562 0.0
C608 C 0.49487 0.92294 0.36011 0.0
C609 C 0.54851 0.85975 0.34145 0.0
O610 O 0.54184 0.9085 0.32608 0.0
O611 O 0.55714 0.90153 0.3614 0.0
O612 O 0.50009 0.8641 0.29821 0.0
O613 O 0.49335 0.90006 0.29931 0.0
O614 O 0.54497 0.86511 0.32072 0.0
O615 O 0.53115 0.86482 0.35303 0.0
O616 O 0.49433 0.86854 0.38208 0.0
O617 O 0.48597 0.86048 0.34469 0.0
C618 C 0.55919 0.90949 0.34101 0.0
C619 C 0.48212 0.85782 0.36638 0.0
Dy620 Dy 0.85901 0.73689 0.11977 0.0
C621 C 0.82025 0.81947 0.08403 0.0
C622 C 0.88203 0.69784 0.12866 0.0
Dy623 Dy 0.82943 0.77708 0.10078 0.0
O624 O 0.88511 0.71054 0.1114 0.0
O625 O 0.86602 0.70637 0.14135 0.0
O626 O 0.88944 0.76026 0.12027 0.0
O627 O 0.86365 0.76351 0.09557 0.0
C628 C 0.88198 0.77187 0.10327 0.0
C629 C 0.80582 0.74369 0.1193 0.0
O630 O 0.83283 0.75369 0.0704 0.0
O631 O 0.84047 0.721 0.0909 0.0
O632 O 0.80624 0.80816 0.09659 0.0
O633 O 0.83884 0.80748 0.08059 0.0
O634 O 0.79717 0.75563 0.10274 0.0
O635 O 0.82506 0.75137 0.12543 0.0
O636 O 0.85657 0.75576 0.15143 0.0
O637 O 0.84226 0.78951 0.13557 0.0
C638 C 0.83571 0.73112 0.07172 0.0
C639 C 0.85127 0.7777 0.15289 0.0
Dy640 Dy 0.6358 0.99631 0.87481 0.0
C641 C 0.67605 0.91032 0.90343 0.0
C642 C 0.62408 0.03988 0.86436 0.0
Dy643 Dy 0.65909 0.95374 0.89853 0.0
O644 O 0.61623 0.02188 0.85427 0.0
O645 O 0.63806 0.03396 0.88045 0.0
O646 O 0.62752 0.97457 0.84488 0.0
O647 O 0.65666 0.96737 0.86515 0.0
C648 C 0.64454 0.96048 0.84906 0.0
C649 C 0.63737 0.98379 0.92499 0.0
O650 O 0.69089 0.97624 0.89401 0.0
O651 O 0.67347 0.00427 0.87115 0.0
O652 O 0.67322 0.92481 0.91972 0.0
O653 O 0.67074 0.92007 0.88467 0.0
O654 O 0.64109 0.96278 0.93107 0.0
O655 O 0.64804 0.98753 0.90749 0.0
O656 O 0.60473 0.97869 0.88766 0.0
O657 O 0.62248 0.94309 0.88866 0.0
C658 C 0.69187 0.99513 0.88147 0.0
C659 C 0.60349 0.95619 0.88775 0.0
Dy660 Dy 0.75393 0.88413 0.62719 0.0
C661 C 0.83942 0.91582 0.66522 0.0
C662 C 0.71226 0.87189 0.60992 0.0
Dy663 Dy 0.79487 0.90342 0.65568 0.0
O664 O 0.73197 0.86236 0.60523 0.0
O665 O 0.71531 0.88765 0.62492 0.0
O666 O 0.77604 0.88033 0.59721 0.0
O667 O 0.78353 0.90554 0.62107 0.0
C668 C 0.79077 0.89551 0.60394 0.0
C669 C 0.75845 0.88848 0.67849 0.0
O670 O 0.77472 0.93627 0.65031 0.0
O671 O 0.74294 0.92054 0.63139 0.0
O672 O 0.82828 0.89986 0.67541 0.0
O673 O 0.8258 0.92554 0.65065 0.0
O674 O 0.77232 0.9041 0.68651 0.0
O675 O 0.7665 0.88059 0.66084 0.0
O676 O 0.77075 0.85184 0.6377 0.0
O677 O 0.80666 0.86827 0.64401 0.0
C678 C 0.75412 0.93813 0.64014 0.0
C679 C 0.79354 0.85019 0.63956 0.0
Dy680 Dy 0.86669 0.98749 0.36742 0.0
C681 C 0.82317 0.06736 0.4049 0.0
C682 C 0.87978 0.94787 0.34722 0.0
Dy683 Dy 0.84102 0.02507 0.39624 0.0
O684 O 0.88906 0.96763 0.34383 0.0
O685 O 0.864 0.94972 0.36236 0.0
O686 O 0.87551 0.0149 0.34263 0.0
O687 O 0.84548 0.0171 0.36159 0.0
C688 C 0.85786 0.02747 0.34829 0.0
C689 C 0.8503 0.98593 0.41712 0.0
O690 O 0.80979 0.00767 0.38151 0.0
O691 O 0.82948 0.97845 0.36287 0.0
O692 O 0.83781 0.05653 0.41793 0.0
O693 O 0.8181 0.05481 0.38775 0.0
O694 O 0.8338 -0.00015 0.4235 0.0
O695 O 0.86222 0.9952 0.40246 0.0
O696 O 0.89604 0.00081 0.3871 0.0
O697 O 0.87861 0.03623 0.39325 0.0
C698 C 0.81016 0.98919 0.36868 0.0
C699 C 0.89739 0.02286 0.39154 0.0
Dy700 Dy 0.74449 0.11621 0.10847 0.0
C701 C 0.65525 0.09064 0.14359 0.0
C702 C 0.78825 0.12187 0.09288 0.0
Dy703 Dy 0.70117 0.09995 0.1349 0.0
O704 O 0.77038 0.13439 0.08738 0.0
O705 O 0.78228 0.10666 0.10727 0.0
O706 O 0.72202 0.12815 0.08027 0.0
O707 O 0.71124 0.10068 0.09994 0.0
C708 C 0.70519 0.11456 0.08487 0.0
C709 C 0.74084 0.10443 0.15902 0.0
O710 O 0.71671 0.06553 0.12667 0.0
O711 O 0.74955 0.07856 0.10851 0.0
O712 O 0.66618 0.08557 0.12545 0.0
O713 O 0.66961 0.10068 0.15738 0.0
O714 O 0.72416 0.0908 0.16466 0.0
O715 O 0.73402 0.11649 0.1429 0.0
O716 O 0.7338 0.14866 0.12442 0.0
O717 O 0.69557 0.13799 0.1299 0.0
C718 C 0.73658 0.06201 0.1162 0.0
C719 C 0.71172 0.15388 0.12771 0.0
Dy720 Dy 0.63065 0.00081 0.63799 0.0
C721 C 0.65482 0.08802 0.60309 0.0
C722 C 0.62443 0.9578 0.65302 0.0
Dy723 Dy 0.64758 0.04228 0.61103 0.0
O724 O 0.61324 0.97569 0.66006 0.0
O725 O 0.63864 0.96341 0.6375 0.0
O726 O 0.6232 0.02367 0.66722 0.0
O727 O 0.65013 0.0315 0.64554 0.0
C728 C 0.63846 0.03865 0.6617 0.0
C729 C 0.63889 0.00416 0.58697 0.0
O730 O 0.68263 0.026 0.61815 0.0
O731 O 0.66861 0.99346 0.63551 0.0
O732 O 0.64486 0.07392 0.58915 0.0
O733 O 0.6616 0.07676 0.62062 0.0
O734 O 0.65369 0.01962 0.58092 0.0
O735 O 0.62789 0.01139 0.60358 0.0
O736 O 0.59666 0.01329 0.62528 0.0
O737 O 0.61032 0.04991 0.62058 0.0
C738 C 0.68579 0.00579 0.62783 0.0
C739 C 0.59299 0.03546 0.62346 0.0
Dy740 Dy 0.74937 0.88225 0.37018 0.0
C741 C 0.6575 0.90354 0.33429 0.0
C742 C 0.79093 0.87771 0.39236 0.0
Dy743 Dy 0.70342 0.89189 0.34132 0.0
O744 O 0.78141 0.86188 0.38016 0.0
O745 O 0.77812 0.89605 0.3916 0.0
O746 O 0.72736 0.88215 0.4008 0.0
O747 O 0.71751 0.90191 0.37336 0.0
C748 C 0.71131 0.89484 0.3919 0.0
C749 C 0.74066 0.87842 0.3184 0.0
O750 O 0.72057 0.92606 0.34226 0.0
O751 O 0.75801 0.9123 0.34958 0.0
O752 O 0.66997 0.8915 0.32049 0.0
O753 O 0.67018 0.90888 0.35152 0.0
O754 O 0.72379 0.89058 0.30947 0.0
O755 O 0.73535 0.87239 0.33775 0.0
O756 O 0.73571 0.84752 0.36873 0.0
O757 O 0.69815 0.85672 0.35599 0.0
C758 C 0.74333 0.92884 0.34383 0.0
C759 C 0.71385 0.84225 0.36469 0.0
Dy760 Dy 0.86045 0.99412 0.1234 0.0
C761 C 0.82477 0.91587 0.07447 0.0
C762 C 0.87189 0.03254 0.14619 0.0
Dy763 Dy 0.84088 0.95751 0.08746 0.0
O764 O 0.88235 0.01297 0.14831 0.0
O765 O 0.85545 0.03116 0.13123 0.0
O766 O 0.86435 0.96672 0.14911 0.0
O767 O 0.8397 0.96362 0.12322 0.0
C768 C 0.84986 0.95336 0.13886 0.0
C769 C 0.86044 0.99398 0.0684 0.0
O770 O 0.80861 0.97881 0.09247 0.0
O771 O 0.82256 0.00296 0.12101 0.0
O772 O 0.8434 0.92537 0.06708 0.0
O773 O 0.81447 0.92962 0.08824 0.0
O774 O 0.85074 0.97783 0.05651 0.0
O775 O 0.85786 0.98926 0.08841 0.0
O776 O 0.89268 0.98002 0.10901 0.0
O777 O 0.87648 0.94523 0.09872 0.0
C778 C 0.80575 0.99529 0.1076 0.0
C779 C 0.89466 0.95804 0.10422 0.0
Dy780 Dy 0.76363 0.11959 0.88908 0.0
C781 C 0.84073 0.0882 0.83982 0.0
C782 C 0.72645 0.13119 0.91338 0.0
Dy783 Dy 0.79811 0.10013 0.85553 0.0
O784 O 0.74779 0.133 0.9201 0.0
O785 O 0.72528 0.12371 0.893 0.0
O786 O 0.79218 0.12076 0.91465 0.0
O787 O 0.79176 0.09504 0.89025 0.0
C788 C 0.80314 0.10355 0.90605 0.0
C789 C 0.75948 0.11698 0.83711 0.0
O790 O 0.77734 0.06792 0.8605 0.0
O791 O 0.74996 0.08404 0.88419 0.0
O792 O 0.82693 0.1034 0.83093 0.0
O793 O 0.83057 0.0787 0.85647 0.0
O794 O 0.77167 0.10068 0.82793 0.0
O795 O 0.76993 0.12501 0.85395 0.0
O796 O 0.78034 0.15251 0.88063 0.0
O797 O 0.81304 0.13415 0.8673 0.0
C798 C 0.75835 0.06645 0.87278 0.0
C799 C 0.80237 0.1529 0.8748 0.0
Dy800 Dy 0.86004 0.60554 0.00267 0.0
C801 C 0.87988 0.65468 0.92157 0.0
C802 C 0.85631 0.59157 0.04555 0.0
Dy803 Dy 0.87471 0.63532 0.9624 0.0
O804 O 0.8441 0.5839 0.02878 0.0
O805 O 0.87164 0.60567 0.03834 0.0
O806 O 0.827 0.59657 0.98437 0.0
O807 O 0.84311 0.62787 0.97931 0.0
C808 C 0.82712 0.61521 0.97272 0.0
C809 C 0.90741 0.62609 0.99278 0.0
O810 O 0.86201 0.66407 0.98501 0.0
O811 O 0.85586 0.64128 0.01599 0.0
O812 O 0.86087 0.65496 0.93286 0.0
O813 O 0.89608 0.64392 0.93265 0.0
O814 O 0.90657 0.64522 0.98189 0.0
O815 O 0.89198 0.6128 0.98583 0.0
O816 O 0.8722 0.57737 0.98101 0.0
O817 O 0.87003 0.59889 0.94843 0.0
C818 C 0.85624 0.6616 0.00632 0.0
C819 C 0.87108 0.57878 0.95899 0.0
Dy820 Dy 0.38142 0.87863 0.02381 0.0
C821 C 0.38938 0.78664 0.99013 0.0
C822 C 0.3705 0.91971 0.04222 0.0
Dy823 Dy 0.38746 0.82818 0.01035 0.0
O824 O 0.35548 0.90553 0.03397 0.0
O825 O 0.39128 0.91121 0.04087 0.0
O826 O 0.40717 0.88987 -0.00046 0.0
O827 O 0.41086 0.85705 0.01391 0.0
C828 C 0.41827 0.87054 -0.00062 0.0
C829 C 0.35113 0.83782 0.03497 0.0
O830 O 0.40727 0.82685 0.04244 0.0
O831 O 0.39171 0.8612 0.05561 0.0
O832 O 0.37294 0.79393 0.00275 0.0
O833 O 0.40561 0.80188 0.98933 0.0
O834 O 0.36256 0.81879 0.03672 0.0
O835 O 0.35871 0.8499 0.01952 0.0
O836 O 0.362 0.87981 0.99149 0.0
O837 O 0.37431 0.84439 0.97853 0.0
C838 C 0.4034 0.8418 0.05863 0.0
C839 C 0.36349 0.86425 0.97554 0.0
Dy840 Dy 0.85406 0.63262 0.74363 0.0
C841 C 0.88181 0.67029 0.82783 0.0
C842 C 0.8448 0.61481 0.70255 0.0
Dy843 Dy 0.87292 0.65878 0.78443 0.0
O844 O 0.83271 0.61142 0.7202 0.0
O845 O 0.8614 0.62892 0.70721 0.0
O846 O 0.84432 0.60296 0.765 0.0
O847 O 0.87251 0.62332 0.77409 0.0
C848 C 0.85956 0.60769 0.78035 0.0
C849 C 0.86782 0.684 0.74763 0.0
O850 O 0.90692 0.64552 0.77154 0.0
O851 O 0.89233 0.63091 0.73808 0.0
O852 O 0.86446 0.67797 0.81592 0.0
O853 O 0.8947 0.6571 0.81571 0.0
O854 O 0.88268 0.68878 0.76347 0.0
O855 O 0.85468 0.66824 0.75364 0.0
O856 O 0.8211 0.64618 0.75676 0.0
O857 O 0.83627 0.6489 0.79249 0.0
C858 C 0.90983 0.63562 0.75185 0.0
C859 C 0.81834 0.64666 0.77854 0.0
Dy860 Dy 0.11905 0.11979 0.49483 0.0
C861 C 0.09221 0.15667 0.58094 0.0
C862 C 0.13025 0.10376 0.45364 0.0
Dy863 Dy 0.0966 0.14367 0.53674 0.0
O864 O 0.134 0.09303 0.47221 0.0
O865 O 0.11999 0.12311 0.45765 0.0
O866 O 0.15296 0.1141 0.51241 0.0
O867 O 0.13122 0.14048 0.52288 0.0
C868 C 0.14897 0.12877 0.52812 0.0
C869 C 0.06761 0.1314 0.50281 0.0
O870 O 0.10295 0.17492 0.51566 0.0
O871 O 0.11163 0.15521 0.48279 0.0
O872 O 0.07836 0.143 0.57006 0.0
O873 O 0.10767 0.16407 0.56726 0.0
O874 O 0.06287 0.14817 0.51651 0.0
O875 O 0.08549 0.12123 0.50974 0.0
O876 O 0.1056 0.08977 0.51277 0.0
O877 O 0.10632 0.10783 0.54717 0.0
C878 C 0.10723 0.17431 0.49389 0.0
C879 C 0.10658 0.08898 0.53479 0.0
Dy880 Dy 0.14463 0.88298 0.74014 0.0
C881 C 0.09752 0.85777 0.82027 0.0
C882 C 0.15805 0.89147 0.69788 0.0
Dy883 Dy 0.11698 0.86394 0.77958 0.0
O884 O 0.16682 0.90083 0.71574 0.0
O885 O 0.14342 0.87602 0.70359 0.0
O886 O 0.14873 0.91653 0.7576 0.0
O887 O 0.11968 0.89659 0.76336 0.0
C888 C 0.13051 0.91396 0.76969 0.0
C889 C 0.13232 0.83348 0.74978 0.0
O890 O 0.08662 0.8713 0.75587 0.0
O891 O 0.10934 0.87785 0.72495 0.0
O892 O 0.1098 0.8426 0.80976 0.0
O893 O 0.09575 0.87621 0.80847 0.0
O894 O 0.11298 0.83093 0.76037 0.0
O895 O 0.14267 0.85076 0.75687 0.0
O896 O 0.1745 0.87247 0.76153 0.0
O897 O 0.153 0.87257 0.79398 0.0
C898 C 0.08888 0.87504 0.73413 0.0
C899 C 0.17334 0.8733 0.78356 0.0
Dy900 Dy 0.608 0.38695 0.49818 0.0
C901 C 0.5783 0.35462 0.41223 0.0
C902 C 0.6197 0.39943 0.54053 0.0
Dy903 Dy 0.58496 0.36612 0.4561 0.0
O904 O 0.6261 0.40974 0.52261 0.0
O905 O 0.60633 0.38255 0.53515 0.0
O906 O 0.64011 0.39545 0.47963 0.0
O907 O 0.62019 0.36722 0.4698 0.0
C908 C 0.63677 0.37981 0.46463 0.0
C909 C 0.55662 0.37448 0.49051 0.0
O910 O 0.59464 0.33334 0.47329 0.0
O911 O 0.60834 0.3497 0.5064 0.0
O912 O 0.59248 0.34446 0.42603 0.0
O913 O 0.56687 0.3705 0.42271 0.0
O914 O 0.55269 0.35849 0.47579 0.0
O915 O 0.57334 0.3863 0.48438 0.0
O916 O 0.59467 0.41813 0.48172 0.0
O917 O 0.59569 0.40174 0.44674 0.0
C918 C 0.60319 0.3317 0.49388 0.0
C919 C 0.59654 0.41995 0.45992 0.0
Dy920 Dy 0.85923 0.36769 0.73484 0.0
C921 C 0.89769 0.33567 0.65172 0.0
C922 C 0.84959 0.38436 0.77626 0.0
Dy923 Dy 0.88112 0.34315 0.69325 0.0
O924 O 0.83849 0.3898 0.75803 0.0
O925 O 0.86523 0.36893 0.77189 0.0
O926 O 0.84862 0.39697 0.71255 0.0
O927 O 0.87831 0.37748 0.70589 0.0
C928 C 0.8651 0.39276 0.69863 0.0
C929 C 0.87714 0.31772 0.72931 0.0
O930 O 0.91378 0.35483 0.71026 0.0
O931 O 0.89705 0.36899 0.74279 0.0
O932 O 0.8853 0.32109 0.66259 0.0
O933 O 0.90045 0.35412 0.66339 0.0
O934 O 0.89296 0.31384 0.71449 0.0
O935 O 0.86307 0.33288 0.72279 0.0
O936 O 0.82848 0.35069 0.72068 0.0
O937 O 0.8429 0.34887 0.68472 0.0
C938 C 0.91523 0.36404 0.73043 0.0
C939 C 0.82526 0.3498 0.69884 0.0
Dy940 Dy 0.64036 0.63242 0.26174 0.0
C941 C 0.6002 0.66339 0.1785 0.0
C942 C 0.65698 0.61732 0.30184 0.0
Dy943 Dy 0.61469 0.65686 0.22221 0.0
O944 O 0.6663 0.61311 0.28273 0.0
O945 O 0.63881 0.63025 0.29897 0.0
O946 O 0.64593 0.60131 0.24059 0.0
O947 O 0.61691 0.62218 0.23476 0.0
C948 C 0.62839 0.6055 0.2275 0.0
C949 C 0.62685 0.6831 0.25767 0.0
O950 O 0.58341 0.64901 0.24303 0.0
O951 O 0.60456 0.63818 0.27489 0.0
O952 O 0.61361 0.67705 0.18991 0.0
O953 O 0.59379 0.64698 0.19146 0.0
O954 O 0.60918 0.6879 0.24453 0.0
O955 O 0.63808 0.66674 0.24943 0.0
O956 O 0.67041 0.64734 0.24458 0.0
O957 O 0.65103 0.64811 0.2106 0.0
C958 C 0.58472 0.64328 0.26448 0.0
C959 C 0.67065 0.64762 0.22256 0.0
Dy960 Dy 0.51792 0.59431 0.86792 0.0
C961 C 0.4329 0.62916 0.90282 0.0
C962 C 0.5601 0.58561 0.84966 0.0
Dy963 Dy 0.47694 0.61743 0.89184 0.0
O964 O 0.54929 0.57181 0.86272 0.0
O965 O 0.54791 0.60409 0.84673 0.0
O966 O 0.49742 0.56219 0.86409 0.0
O967 O 0.49221 0.58364 0.89181 0.0
C968 C 0.48504 0.56623 0.88165 0.0
C969 C 0.50974 0.64516 0.8777 0.0
O970 O 0.49789 0.60898 0.92193 0.0
O971 O 0.53227 0.60478 0.90247 0.0
O972 O 0.45156 0.63902 0.91031 0.0
O973 O 0.43876 0.61159 0.89091 0.0
O974 O 0.49765 0.64962 0.89528 0.0
O975 O 0.50225 0.62773 0.86807 0.0
O976 O 0.49506 0.60123 0.8373 0.0
O977 O 0.46313 0.61448 0.85678 0.0
C978 C 0.52084 0.60824 0.92148 0.0
C979 C 0.47323 0.6089 0.8378 0.0
Dy980 Dy 0.66596 0.28907 0.11135 0.0
C981 C 0.60448 0.21693 0.14061 0.0
C982 C 0.67897 0.3308 0.09639 0.0
Dy983 Dy 0.63046 0.25357 0.13014 0.0
O984 O 0.6617 0.31902 0.08879 0.0
O985 O 0.68986 0.31944 0.11208 0.0
O986 O 0.69298 0.26208 0.10544 0.0
O987 O 0.66794 0.25765 0.13035 0.0
C988 C 0.68365 0.2479 0.11938 0.0
C989 C 0.61471 0.29527 0.12054 0.0
O990 O 0.64743 0.26503 0.16134 0.0
O991 O 0.6588 0.29992 0.14711 0.0
O992 O 0.60292 0.2369 0.14991 0.0
O993 O 0.62077 0.21666 0.12591 0.0
O994 O 0.60527 0.283 0.1358 0.0
O995 O 0.62937 0.28378 0.11047 0.0
O996 O 0.6533 0.27355 0.07913 0.0
O997 O 0.63022 0.24496 0.09392 0.0
C998 C 0.65338 0.28657 0.16417 0.0
C999 C 0.6393 0.25583 0.07688 0.0
Dy1000 Dy 0.98925 0.37996 0.3313 0.0
C1001 C 0.97536 0.37048 0.42637 0.0
C1002 C 0.00872 0.38535 0.29079 0.0
Dy1003 Dy 0.98263 0.37948 0.38282 0.0
O1004 O -0.00099 0.36697 0.29782 0.0
O1005 O 0.00689 0.40149 0.30576 0.0
O1006 O 0.96411 0.35281 0.32089 0.0
O1007 O 0.9691 0.3614 0.35438 0.0
C1008 C 0.95794 0.34869 0.34118 0.0
C1009 C 0.01121 0.41224 0.36766 0.0
O1010 O 0.01095 0.35358 0.38111 0.0
O1011 O 0.01763 0.35583 0.34298 0.0
O1012 O 0.98058 0.39026 0.41842 0.0
O1013 O 0.97392 0.35553 0.41043 0.0
O1014 O 0.99649 0.41518 0.38359 0.0
O1015 O 0.00914 0.39213 0.36047 0.0
O1016 O 0.95696 0.40246 0.33479 0.0
O1017 O 0.94799 0.39216 0.37117 0.0
C1018 C 0.02248 0.34751 0.36314 0.0
C1019 C 0.94224 0.40155 0.35179 0.0
Dy1020 Dy 0.85873 0.725 0.60805 0.0
C1021 C 0.90895 0.80289 0.63747 0.0
C1022 C 0.84046 0.68356 0.59686 0.0
Dy1023 Dy 0.88883 0.76195 0.62933 0.0
O1024 O 0.83142 0.69798 0.61077 0.0
O1025 O 0.85923 0.69201 0.58871 0.0
O1026 O 0.83111 0.75136 0.59933 0.0
O1027 O 0.8523 0.75555 0.62759 0.0
C1028 C 0.83729 0.76503 0.61546 0.0
C1029 C 0.9101 0.72206 0.62641 0.0
O1030 O 0.87172 0.74951 0.65984 0.0
O1031 O 0.86324 0.71434 0.64406 0.0
O1032 O 0.91392 0.78413 0.648 0.0
O1033 O 0.89206 0.79938 0.6234 0.0
O1034 O 0.91513 0.73719 0.64147 0.0
O1035 O 0.89626 0.73001 0.61173 0.0
O1036 O 0.87061 0.74063 0.576 0.0
O1037 O 0.89197 0.76943 0.59293 0.0
C1038 C 0.86608 0.72776 0.66178 0.0
C1039 C 0.88375 0.75903 0.57491 0.0
Dy1040 Dy 0.51673 0.3847 0.63206 0.0
C1041 C 0.4339 0.34858 0.59435 0.0
C1042 C 0.55941 0.39842 0.64701 0.0
Dy1043 Dy 0.47685 0.3618 0.60797 0.0
O1044 O 0.5456 0.4102 0.63414 0.0
O1045 O 0.54983 0.37916 0.65184 0.0
O1046 O 0.49272 0.4135 0.64208 0.0
O1047 O 0.4877 0.39654 0.61162 0.0
C1048 C 0.47937 0.41115 0.62459 0.0
C1049 C 0.51374 0.33477 0.61333 0.0
O1050 O 0.4926 0.37806 0.57884 0.0
O1051 O 0.52865 0.38054 0.59609 0.0
O1052 O 0.4532 0.34233 0.58525 0.0
O1053 O 0.43823 0.36289 0.61037 0.0
O1054 O 0.49909 0.33299 0.59686 0.0
O1055 O 0.50666 0.34904 0.62757 0.0
O1056 O 0.49795 0.37268 0.66271 0.0
O1057 O 0.46603 0.35835 0.64344 0.0
C1058 C 0.51531 0.38018 0.57775 0.0
C1059 C 0.47715 0.36306 0.66233 0.0
Dy1060 Dy 0.8807 0.26546 0.91094 0.0
C1061 C 0.88024 0.28586 0.81903 0.0
C1062 C 0.87824 0.24374 0.95114 0.0
Dy1063 Dy 0.881 0.27146 0.86172 0.0
O1064 O 0.89617 0.25446 0.94391 0.0
O1065 O 0.86119 0.24615 0.93689 0.0
O1066 O 0.90174 0.29726 0.91659 0.0
O1067 O 0.90648 0.2777 0.88766 0.0
C1068 C 0.91173 0.2961 0.89731 0.0
C1069 C 0.85486 0.23652 0.87363 0.0
O1070 O 0.91004 0.2459 0.86353 0.0
O1071 O 0.90096 0.23495 0.89923 0.0
O1072 O 0.89893 0.28018 0.83006 0.0
O1073 O 0.8621 0.28375 0.83128 0.0
O1074 O 0.86613 0.23763 0.85525 0.0
O1075 O 0.85584 0.25544 0.88429 0.0
O1076 O 0.8582 0.29708 0.91032 0.0
O1077 O 0.8668 0.30528 0.87366 0.0
C1078 C 0.91248 0.23179 0.88057 0.0
C1079 C 0.85771 0.31115 0.89303 0.0
Dy1080 Dy 0.98682 0.60788 0.16763 0.0
C1081 C 0.95053 0.61275 0.078 0.0
C1082 C 0.00887 0.60705 0.20784 0.0
Dy1083 Dy 0.97084 0.60759 0.11856 0.0
O1084 O 0.99707 0.6241 0.19986 0.0
O1085 O 0.00887 0.59014 0.19368 0.0
O1086 O 0.95555 0.62849 0.17709 0.0
O1087 O 0.97054 0.63199 0.14553 0.0
C1088 C 0.95378 0.63768 0.15753 0.0
C1089 C 0.00625 0.57956 0.1271 0.0
O1090 O 0.99721 0.63464 0.11664 0.0
O1091 O 0.0155 0.62776 0.15072 0.0
O1092 O 0.95401 0.59322 0.08769 0.0
O1093 O 0.95774 0.62929 0.09058 0.0
O1094 O 0.0024 0.58914 0.10802 0.0
O1095 O 0.98959 0.58325 0.14024 0.0
O1096 O 0.95418 0.58699 0.17089 0.0
O1097 O 0.9394 0.59487 0.13539 0.0
C1098 C 0.01469 0.63774 0.13079 0.0
C1099 C 0.937 0.58678 0.15576 0.0
Dy1100 Dy 0.66166 0.71854 0.40027 0.0
C1101 C 0.62041 0.80306 0.37144 0.0
C1102 C 0.66938 0.67557 0.41614 0.0
Dy1103 Dy 0.63641 0.76078 0.38031 0.0
O1104 O 0.68496 0.68807 0.4068 0.0
O1105 O 0.64984 0.68663 0.41688 0.0
O1106 O 0.69507 0.73838 0.40048 0.0
O1107 O 0.66937 0.74377 0.37592 0.0
C1108 C 0.68857 0.75044 0.3832 0.0
C1109 C 0.60955 0.72821 0.39616 0.0
O1110 O 0.63785 0.74154 0.3487 0.0
O1111 O 0.64995 0.7071 0.36481 0.0
O1112 O 0.616 0.79156 0.38921 0.0
O1113 O 0.63336 0.79122 0.35804 0.0
O1114 O 0.60351 0.7408 0.37929 0.0
O1115 O 0.62842 0.73487 0.40424 0.0
O1116 O 0.65742 0.74158 0.43081 0.0
O1117 O 0.65514 0.77465 0.41006 0.0
C1118 C 0.64211 0.71938 0.3473 0.0
C1119 C 0.65712 0.76429 0.42948 0.0
Dy1120 Dy 0.84005 0.54287 0.60421 0.0
C1121 C 0.87918 0.45729 0.63215 0.0
C1122 C 0.82743 0.58704 0.59562 0.0
Dy1123 Dy 0.86568 0.50086 0.62376 0.0
O1124 O 0.83817 0.57353 0.58195 0.0
O1125 O 0.82271 0.57606 0.61373 0.0
O1126 O 0.83351 0.52236 0.57286 0.0
O1127 O 0.864 0.51752 0.59185 0.0
C1128 C 0.85257 0.51046 0.57535 0.0
C1129 C 0.85325 0.53287 0.65312 0.0
O1130 O 0.89637 0.51961 0.6126 0.0
O1131 O 0.87687 0.55425 0.61431 0.0
O1132 O 0.88723 0.47519 0.64234 0.0
O1133 O 0.86447 0.46347 0.61675 0.0
O1134 O 0.87131 0.51978 0.65601 0.0
O1135 O 0.84196 0.52651 0.63628 0.0
O1136 O 0.80835 0.52133 0.61116 0.0
O1137 O 0.82948 0.48803 0.61856 0.0
C1138 C 0.89661 0.54207 0.61426 0.0
C1139 C 0.80952 0.49895 0.61514 0.0
Dy1140 Dy 0.70107 0.5937 0.84122 0.0
C1141 C 0.7822 0.62425 0.88948 0.0
C1142 C 0.65664 0.58148 0.83108 0.0
Dy1143 Dy 0.74135 0.61235 0.87032 0.0
O1144 O 0.66783 0.5977 0.82134 0.0
O1145 O 0.67017 0.57142 0.84549 0.0
O1146 O 0.72385 0.59276 0.81066 0.0
O1147 O 0.72972 0.61636 0.83635 0.0
C1148 C 0.73781 0.60823 0.81879 0.0
C1149 C 0.7039 0.60109 0.89279 0.0
O1150 O 0.72547 0.64489 0.85944 0.0
O1151 O 0.6894 0.629 0.85299 0.0
O1152 O 0.76243 0.63421 0.89293 0.0
O1153 O 0.77975 0.60833 0.87455 0.0
O1154 O 0.71839 0.61635 0.89973 0.0
O1155 O 0.71162 0.59096 0.87594 0.0
O1156 O 0.72115 0.56069 0.84644 0.0
O1157 O 0.75288 0.57622 0.86549 0.0
C1158 C 0.70271 0.64691 0.85761 0.0
C1159 C 0.74178 0.55872 0.85655 0.0
Dy1160 Dy 0.65639 0.4702 0.09933 0.0
C1161 C 0.62259 0.54777 0.15147 0.0
C1162 C 0.67279 0.42754 0.08979 0.0
Dy1163 Dy 0.63384 0.50808 0.13029 0.0
O1164 O 0.65816 0.43893 0.07718 0.0
O1165 O 0.67857 0.43971 0.10699 0.0
O1166 O 0.66307 0.49563 0.0722 0.0
O1167 O 0.63611 0.50113 0.09485 0.0
C1168 C 0.64765 0.51014 0.07971 0.0
C1169 C 0.64195 0.46731 0.14796 0.0
O1170 O 0.60281 0.49584 0.11216 0.0
O1171 O 0.61868 0.46026 0.10334 0.0
O1172 O 0.61281 0.52825 0.15482 0.0
O1173 O 0.63807 0.54566 0.13606 0.0
O1174 O 0.6253 0.48046 0.15497 0.0
O1175 O 0.65399 0.47757 0.1343 0.0
O1176 O 0.68899 0.48632 0.11223 0.0
O1177 O 0.67179 0.51506 0.1337 0.0
C1178 C 0.60053 0.47411 0.10661 0.0
C1179 C 0.69021 0.50404 0.12596 0.0
Dy1180 Dy 0.79617 0.39373 0.36116 0.0
C1181 C 0.70831 0.37158 0.40112 0.0
C1182 C 0.84226 0.40297 0.3531 0.0
Dy1183 Dy 0.75231 0.37728 0.38642 0.0
O1184 O 0.82807 0.39299 0.33911 0.0
O1185 O 0.83109 0.40795 0.37113 0.0
O1186 O 0.77371 0.40412 0.33127 0.0
O1187 O 0.76321 0.37812 0.35227 0.0
C1188 C 0.75674 0.39061 0.33641 0.0
C1189 C 0.79143 0.37613 0.41026 0.0
O1190 O 0.76206 0.34566 0.36867 0.0
O1191 O 0.80077 0.35538 0.3646 0.0
O1192 O 0.7259 0.35853 0.40629 0.0
O1193 O 0.71471 0.38741 0.38757 0.0
O1194 O 0.77404 0.3629 0.41391 0.0
O1195 O 0.78598 0.39132 0.39616 0.0
O1196 O 0.78097 0.42806 0.37016 0.0
O1197 O 0.74812 0.41496 0.38822 0.0
C1198 C 0.78404 0.33991 0.36567 0.0
C1199 C 0.76128 0.43154 0.38092 0.0
Dy1200 Dy 0.84877 0.45494 0.88683 0.0
C1201 C 0.87304 0.53972 0.84573 0.0
C1202 C 0.84176 0.40905 0.89469 0.0
Dy1203 Dy 0.86642 0.49667 0.86054 0.0
O1204 O 0.85146 0.42325 0.9087 0.0
O1205 O 0.83505 0.4203 0.87712 0.0
O1206 O 0.84178 0.4774 0.91685 0.0
O1207 O 0.86824 0.48588 0.89493 0.0
C1208 C 0.8567 0.49293 0.91129 0.0
C1209 C 0.85924 0.45896 0.83649 0.0
O1210 O 0.90017 0.48391 0.87368 0.0
O1211 O 0.88622 0.44733 0.87793 0.0
O1212 O 0.88437 0.52182 0.8389 0.0
O1213 O 0.85851 0.53409 0.86095 0.0
O1214 O 0.87459 0.474 0.83136 0.0
O1215 O 0.84717 0.46604 0.85239 0.0
O1216 O 0.81386 0.47129 0.87887 0.0
O1217 O 0.82834 0.50394 0.86204 0.0
C1218 C 0.90369 0.4617 0.87541 0.0
C1219 C 0.81093 0.49158 0.86923 0.0
Dy1220 Dy 0.7932 0.60309 0.16028 0.0
C1221 C 0.70907 0.61762 0.10423 0.0
C1222 C 0.8392 0.59202 0.16565 0.0
Dy1223 Dy 0.74876 0.61398 0.12942 0.0
O1224 O 0.82386 0.59012 0.18136 0.0
O1225 O 0.82935 0.60015 0.14777 0.0
O1226 O 0.77713 0.62139 0.18964 0.0
O1227 O 0.75609 0.60723 0.16435 0.0
C1228 C 0.75608 0.61982 0.18138 0.0
C1229 C 0.79025 0.6107 0.1102 0.0
O1230 O 0.75716 0.64814 0.14206 0.0
O1231 O 0.79602 0.64007 0.15025 0.0
O1232 O 0.71477 0.63159 0.12026 0.0
O1233 O 0.72468 0.60161 0.1026 0.0
O1234 O 0.77398 0.62421 0.10293 0.0
O1235 O 0.78285 0.59897 0.12578 0.0
O1236 O 0.77858 0.56784 0.15658 0.0
O1237 O 0.74311 0.57798 0.13912 0.0
C1238 C 0.7787 0.65461 0.14573 0.0
C1239 C 0.7579 0.56284 0.14782 0.0
Dy1240 Dy 0.65666 0.53682 0.40541 0.0
C1241 C 0.6264 0.46295 0.34777 0.0
C1242 C 0.66951 0.57865 0.42105 0.0
Dy1243 Dy 0.63871 0.50098 0.37089 0.0
O1244 O 0.6528 0.56656 0.42901 0.0
O1245 O 0.6796 0.56746 0.40518 0.0
O1246 O 0.65576 0.51123 0.4333 0.0
O1247 O 0.6331 0.50828 0.40573 0.0
C1248 C 0.64057 0.49844 0.42295 0.0
C1249 C 0.65269 0.54009 0.35389 0.0
O1250 O 0.60536 0.51645 0.38111 0.0
O1251 O 0.62166 0.55031 0.39352 0.0
O1252 O 0.61839 0.48332 0.344 0.0
O1253 O 0.64103 0.46331 0.36443 0.0
O1254 O 0.6373 0.52744 0.34407 0.0
O1255 O 0.66149 0.52999 0.37035 0.0
O1256 O 0.68997 0.51718 0.40098 0.0
O1257 O 0.67537 0.48919 0.37685 0.0
C1258 C 0.60357 0.53831 0.38632 0.0
C1259 C 0.6925 0.49849 0.38864 0.0
Dy1260 Dy 0.70032 0.39635 0.64112 0.0
C1261 C 0.77655 0.35616 0.59503 0.0
C1262 C 0.65724 0.40991 0.65439 0.0
Dy1263 Dy 0.73684 0.37236 0.61211 0.0
O1264 O 0.67078 0.39575 0.6651 0.0
O1265 O 0.66789 0.4176 0.63712 0.0
O1266 O 0.72542 0.39696 0.67022 0.0
O1267 O 0.72691 0.37044 0.64649 0.0
C1268 C 0.73689 0.37911 0.66317 0.0
C1269 C 0.70006 0.38876 0.59018 0.0
O1270 O 0.71784 0.34155 0.62254 0.0
O1271 O 0.68462 0.36235 0.63006 0.0
O1272 O 0.75604 0.34941 0.58907 0.0
O1273 O 0.77548 0.37162 0.61047 0.0
O1274 O 0.71183 0.37126 0.5832 0.0
O1275 O 0.71001 0.39764 0.60666 0.0
O1276 O 0.72235 0.42746 0.63411 0.0
O1277 O 0.75185 0.40733 0.61633 0.0
C1278 C 0.6952 0.34259 0.6254 0.0
C1279 C 0.74295 0.42666 0.62425 0.0
Dy1280 Dy 0.61657 0.86272 0.5358 0.0
C1281 C 0.64339 0.9088 0.45531 0.0
C1282 C 0.61086 0.84355 0.57667 0.0
Dy1283 Dy 0.6344 0.89162 0.49626 0.0
O1284 O 0.62935 0.84162 0.56474 0.0
O1285 O 0.59534 0.85579 0.56614 0.0
O1286 O 0.58486 0.85373 0.51568 0.0
O1287 O 0.60107 0.88544 0.5112 0.0
C1288 C 0.58543 0.8724 0.50406 0.0
C1289 C 0.66523 0.8812 0.52811 0.0
O1290 O 0.62107 0.91993 0.51717 0.0
O1291 O 0.62202 0.89887 0.54993 0.0
O1292 O 0.65341 0.915 0.47384 0.0
O1293 O 0.62755 0.89385 0.45942 0.0
O1294 O 0.66646 0.89977 0.51654 0.0
O1295 O 0.64933 0.86898 0.5206 0.0
O1296 O 0.62896 0.83354 0.51367 0.0
O1297 O 0.63763 0.85579 0.48286 0.0
C1298 C 0.62166 0.91885 0.53921 0.0
C1299 C 0.63589 0.83561 0.49267 0.0
Dy1300 Dy 0.1094 0.66816 0.48537 0.0
C1301 C 0.12551 0.57638 0.45355 0.0
C1302 C 0.10839 0.70998 0.505 0.0
Dy1303 Dy 0.11495 0.61764 0.47166 0.0
O1304 O 0.12549 0.70137 0.49405 0.0
O1305 O 0.09119 0.6957 0.50501 0.0
O1306 O 0.13166 0.67911 0.45776 0.0
O1307 O 0.1374 0.64694 0.47292 0.0
C1308 C 0.14279 0.65987 0.45714 0.0
C1309 C 0.08013 0.62569 0.49889 0.0
O1310 O 0.13697 0.61706 0.50243 0.0
O1311 O 0.12474 0.65207 0.51638 0.0
O1312 O 0.10495 0.5856 0.45362 0.0
O1313 O 0.14044 0.58991 0.46291 0.0
O1314 O 0.09106 0.60632 0.49779 0.0
O1315 O 0.08633 0.63898 0.4837 0.0
O1316 O 0.08819 0.66911 0.45385 0.0
O1317 O 0.10251 0.63437 0.4403 0.0
C1318 C 0.13621 0.63246 0.51855 0.0
C1319 C 0.09096 0.65387 0.43762 0.0
Dy1320 Dy 0.62328 0.8389 0.71392 0.0
C1321 C 0.65493 0.8818 0.79556 0.0
C1322 C 0.61219 0.82869 0.67065 0.0
Dy1323 Dy 0.64411 0.86456 0.75459 0.0
O1324 O 0.62942 0.81972 0.68188 0.0
O1325 O 0.60067 0.84253 0.68336 0.0
O1326 O 0.61308 0.80881 0.73465 0.0
O1327 O 0.6415 0.82899 0.74453 0.0
C1328 C 0.628 0.81346 0.75047 0.0
C1329 C 0.63866 0.88931 0.71774 0.0
O1330 O 0.67613 0.84959 0.74091 0.0
O1331 O 0.66028 0.84739 0.70537 0.0
O1332 O 0.66567 0.88644 0.77736 0.0
O1333 O 0.63892 0.86702 0.79137 0.0
O1334 O 0.6545 0.8936 0.73267 0.0
O1335 O 0.62537 0.87419 0.72451 0.0
O1336 O 0.59012 0.85312 0.72793 0.0
O1337 O 0.60607 0.86816 0.76068 0.0
C1338 C 0.6785 0.84917 0.71909 0.0
C1339 C 0.58806 0.86358 0.74748 0.0
Dy1340 Dy 0.39982 0.35258 0.96054 0.0
C1341 C 0.36601 0.3916 0.04397 0.0
C1342 C 0.40485 0.33982 0.91639 0.0
Dy1343 Dy 0.37677 0.37531 0.00281 0.0
O1344 O 0.41827 0.3538 0.92738 0.0
O1345 O 0.38947 0.33201 0.92993 0.0
O1346 O 0.43385 0.34947 0.98038 0.0
O1347 O 0.41023 0.37552 0.98754 0.0
C1348 C 0.42863 0.36602 0.99416 0.0
C1349 C 0.3468 0.36474 0.96991 0.0
O1350 O 0.38782 0.40589 0.98425 0.0
O1351 O 0.38817 0.38783 0.94983 0.0
O1352 O 0.36185 0.40211 0.02536 0.0
O1353 O 0.37633 0.37227 0.04002 0.0
O1354 O 0.34209 0.37881 0.98598 0.0
O1355 O 0.3654 0.35427 0.97487 0.0
O1356 O 0.39468 0.32101 0.98165 0.0
O1357 O 0.38599 0.34027 0.01478 0.0
C1358 C 0.38657 0.40659 0.96222 0.0
C1359 C 0.39076 0.32136 0.00352 0.0
Dy1360 Dy 0.38126 0.63007 0.71764 0.0
C1361 C 0.33795 0.60895 0.80032 0.0
C1362 C 0.40207 0.6349 0.67741 0.0
Dy1363 Dy 0.3524 0.61346 0.75763 0.0
O1364 O 0.39091 0.65091 0.68788 0.0
O1365 O 0.40188 0.61623 0.68894 0.0
O1366 O 0.38487 0.66403 0.73503 0.0
O1367 O 0.3549 0.64458 0.73898 0.0
C1368 C 0.36518 0.66229 0.74518 0.0
C1369 C 0.36729 0.58071 0.73023 0.0
O1370 O 0.32299 0.62136 0.73453 0.0
O1371 O 0.34561 0.62144 0.70263 0.0
O1372 O 0.32997 0.59762 0.78321 0.0
O1373 O 0.35243 0.624 0.79343 0.0
O1374 O 0.34909 0.57865 0.74248 0.0
O1375 O 0.37781 0.59856 0.73572 0.0
O1376 O 0.411 0.6235 0.74222 0.0
O1377 O 0.38758 0.61891 0.77302 0.0
C1378 C 0.32503 0.62033 0.71256 0.0
C1379 C 0.40826 0.62104 0.76407 0.0
Dy1380 Dy 0.91337 0.12871 0.03968 0.0
C1381 C 0.8818 0.09335 0.95553 0.0
C1382 C 0.92077 0.14034 0.08329 0.0
Dy1383 Dy 0.89154 0.10702 0.99792 0.0
O1384 O 0.90601 0.15018 0.06985 0.0
O1385 O 0.93224 0.12465 0.07262 0.0
O1386 O 0.9452 0.13773 0.01999 0.0
O1387 O 0.92608 0.10877 0.01176 0.0
C1388 C 0.94224 0.12127 0.00561 0.0
C1389 C 0.86214 0.11315 0.03131 0.0
O1390 O 0.90681 0.07664 0.0143 0.0
O1391 O 0.90383 0.09273 0.04914 0.0
O1392 O 0.87482 0.08335 0.97341 0.0
O1393 O 0.89434 0.1108 0.96099 0.0
O1394 O 0.85978 0.09716 0.01647 0.0
O1395 O 0.87813 0.12645 0.02604 0.0
O1396 O 0.90263 0.16112 0.02244 0.0
O1397 O 0.88984 0.14422 0.9893 0.0
C1398 C 0.90446 0.07449 0.03599 0.0
C1399 C 0.89424 0.16245 0.00177 0.0
Dy1400 Dy 0.61734 0.15363 0.80404 0.0
C1401 C 0.64994 0.11444 0.72046 0.0
C1402 C 0.60105 0.15919 0.8459 0.0
Dy1403 Dy 0.64042 0.13067 0.76213 0.0
O1404 O 0.59835 0.14123 0.83351 0.0
O1405 O 0.61304 0.17444 0.83548 0.0
O1406 O 0.60463 0.18302 0.7834 0.0
O1407 O 0.63519 0.1651 0.77479 0.0
C1408 C 0.62062 0.17994 0.76856 0.0
C1409 C 0.63563 0.10488 0.79795 0.0
O1410 O 0.67057 0.14828 0.77703 0.0
O1411 O 0.65553 0.1491 0.81279 0.0
O1412 O 0.66125 0.10902 0.7386 0.0
O1413 O 0.63433 0.12983 0.72507 0.0
O1414 O 0.6523 0.10156 0.78402 0.0
O1415 O 0.62178 0.11968 0.79082 0.0
O1416 O 0.58518 0.14123 0.7868 0.0
O1417 O 0.60259 0.12791 0.7543 0.0
C1418 C 0.67341 0.14899 0.79896 0.0
C1419 C 0.58417 0.13214 0.76658 0.0
Dy1420 Dy 0.8821 0.84118 0.2764 0.0
C1421 C 0.84296 0.88001 0.19507 0.0
C1422 C 0.89658 0.83493 0.32012 0.0
Dy1423 Dy 0.85834 0.86639 0.236 0.0
O1424 O 0.88317 0.82118 0.30881 0.0
O1425 O 0.90286 0.85135 0.30713 0.0
O1426 O 0.88544 0.80936 0.25493 0.0
O1427 O 0.85807 0.83242 0.24935 0.0
C1428 C 0.86813 0.81506 0.24167 0.0
C1429 C 0.87275 0.89306 0.26959 0.0
O1430 O 0.82715 0.85474 0.25339 0.0
O1431 O 0.84597 0.85188 0.28765 0.0
O1432 O 0.83414 0.88643 0.21386 0.0
O1433 O 0.86006 0.86595 0.19874 0.0
O1434 O 0.85557 0.89851 0.25644 0.0
O1435 O 0.88245 0.87525 0.26264 0.0
O1436 O 0.91389 0.84651 0.25527 0.0
O1437 O 0.89369 0.8583 0.22316 0.0
C1438 C 0.82666 0.85438 0.27538 0.0
C1439 C 0.91307 0.85208 0.23373 0.0
Dy1440 Dy 0.52145 0.38146 0.10574 0.0
C1441 C 0.43806 0.4111 0.14924 0.0
C1442 C 0.56562 0.37182 0.09344 0.0
Dy1443 Dy 0.48015 0.40269 0.13076 0.0
O1444 O 0.54713 0.36193 0.08561 0.0
O1445 O 0.55947 0.38825 0.10667 0.0
O1446 O 0.50167 0.34873 0.10155 0.0
O1447 O 0.49666 0.3697 0.12936 0.0
C1448 C 0.48961 0.35236 0.11933 0.0
C1449 C 0.51249 0.43186 0.11801 0.0
O1450 O 0.50323 0.39449 0.16095 0.0
O1451 O 0.53548 0.38323 0.14079 0.0
O1452 O 0.44887 0.4251 0.1364 0.0
O1453 O 0.45019 0.39253 0.15185 0.0
O1454 O 0.50034 0.43483 0.1359 0.0
O1455 O 0.50537 0.41485 0.10722 0.0
O1456 O 0.49996 0.39032 0.07621 0.0
O1457 O 0.46572 0.39254 0.09612 0.0
C1458 C 0.52527 0.38747 0.16003 0.0
C1459 C 0.47705 0.39002 0.07693 0.0
Dy1460 Dy 0.36606 0.74426 0.85823 0.0
C1461 C 0.31983 0.66669 0.89456 0.0
C1462 C 0.39346 0.78023 0.84849 0.0
Dy1463 Dy 0.33116 0.70859 0.87844 0.0
O1464 O 0.39647 0.75951 0.84132 0.0
O1465 O 0.37468 0.78161 0.86014 0.0
O1466 O 0.3914 0.71472 0.85341 0.0
O1467 O 0.36756 0.71471 0.8789 0.0
C1468 C 0.38234 0.703 0.86926 0.0
C1469 C 0.31273 0.74922 0.86937 0.0
O1470 O 0.34479 0.72495 0.90995 0.0
O1471 O 0.36555 0.75452 0.89391 0.0
O1472 O 0.30791 0.67757 0.8792 0.0
O1473 O 0.33711 0.67902 0.90115 0.0
O1474 O 0.30377 0.73534 0.88384 0.0
O1475 O 0.32861 0.73938 0.85865 0.0
O1476 O 0.34913 0.73218 0.82742 0.0
O1477 O 0.33818 0.69751 0.84273 0.0
C1478 C 0.35793 0.74341 0.91144 0.0
C1479 C 0.34323 0.71055 0.82531 0.0
Dy1480 Dy 0.01554 0.61712 0.61662 0.0
C1481 C 0.99216 0.61223 0.70718 0.0
C1482 C 0.02342 0.62588 0.57307 0.0
Dy1483 Dy 0.00794 0.61839 0.665 0.0
O1484 O 0.01822 0.60613 0.58109 0.0
O1485 O 0.02455 0.64092 0.58892 0.0
O1486 O 0.00197 0.58132 0.61532 0.0
O1487 O 0.98745 0.6046 0.63724 0.0
C1488 C 0.98609 0.58443 0.63012 0.0
C1489 C 0.03143 0.65421 0.65079 0.0
O1490 O 0.04157 0.59718 0.66445 0.0
O1491 O 0.04966 0.60227 0.62714 0.0
O1492 O 0.00366 0.6297 0.70041 0.0
O1493 O 0.99102 0.59721 0.69117 0.0
O1494 O 0.01659 0.65523 0.6668 0.0
O1495 O 0.03385 0.63391 0.64409 0.0
O1496 O 0.98817 0.64429 0.61706 0.0
O1497 O 0.97624 0.63737 0.65285 0.0
C1498 C 0.05572 0.59478 0.64716 0.0
C1499 C 0.97363 0.64787 0.63347 0.0
Dy1500 Dy 0.10987 0.23437 0.36743 0.0
C1501 C 0.15704 0.31314 0.40002 0.0
C1502 C 0.09038 0.19323 0.35885 0.0
Dy1503 Dy 0.13906 0.27156 0.38881 0.0
O1504 O 0.0857 0.2119 0.34807 0.0
O1505 O 0.10677 0.19695 0.3734 0.0
O1506 O 0.08318 0.25827 0.35485 0.0
O1507 O 0.10144 0.26641 0.38476 0.0
C1508 C 0.08759 0.27377 0.3697 0.0
C1509 C 0.16101 0.23169 0.38154 0.0
O1510 O 0.12771 0.25544 0.42086 0.0
O1511 O 0.10696 0.22636 0.40376 0.0
O1512 O 0.13816 0.30469 0.40795 0.0
O1513 O 0.16635 0.29863 0.38635 0.0
O1514 O 0.16672 0.24523 0.39793 0.0
O1515 O 0.1462 0.24123 0.36927 0.0
O1516 O 0.12711 0.24688 0.33701 0.0
O1517 O 0.13489 0.28219 0.35276 0.0
C1518 C 0.1151 0.23668 0.42186 0.0
C1519 C 0.13241 0.2687 0.33505 0.0
Dy1520 Dy 0.51815 0.63354 0.38845 0.0
C1521 C 0.43631 0.59763 0.34787 0.0
C1522 C 0.5605 0.64726 0.40333 0.0
Dy1523 Dy 0.47882 0.61074 0.36362 0.0
O1524 O 0.54087 0.6529 0.41215 0.0
O1525 O 0.55683 0.63334 0.38684 0.0
O1526 O 0.4954 0.66189 0.39979 0.0
O1527 O 0.4884 0.64644 0.36867 0.0
C1528 C 0.48103 0.6604 0.38307 0.0
C1529 C 0.51627 0.5844 0.37094 0.0
O1530 O 0.49829 0.62281 0.33342 0.0
O1531 O 0.52991 0.6368 0.35337 0.0
O1532 O 0.44979 0.58551 0.36076 0.0
O1533 O 0.44613 0.61687 0.34346 0.0
O1534 O 0.50298 0.58214 0.35339 0.0
O1535 O 0.50769 0.59872 0.38408 0.0
O1536 O 0.50277 0.6158 0.4168 0.0
O1537 O 0.46671 0.61415 0.39961 0.0
C1538 C 0.51918 0.6322 0.33427 0.0
C1539 C 0.48008 0.61388 0.41792 0.0
Dy1540 Dy 0.11995 0.72538 0.13563 0.0
C1541 C 0.11989 0.74981 0.0433 0.0
C1542 C 0.11857 0.71687 0.17983 0.0
Dy1543 Dy 0.11559 0.72986 0.08394 0.0
O1544 O 0.13711 0.71668 0.16797 0.0
O1545 O 0.10047 0.72198 0.16761 0.0
O1546 O 0.15573 0.73982 0.13374 0.0
O1547 O 0.1306 0.75077 0.11124 0.0
C1548 C 0.15154 0.75327 0.11708 0.0
C1549 C 0.08465 0.69943 0.09876 0.0
O1550 O 0.14023 0.69969 0.0865 0.0
O1551 O 0.13162 0.69095 0.12324 0.0
O1552 O 0.10109 0.74078 0.05077 0.0
O1553 O 0.13684 0.74658 0.05761 0.0
O1554 O 0.08649 0.70473 0.07779 0.0
O1555 O 0.09936 0.71076 0.10963 0.0
O1556 O 0.09262 0.7532 0.13431 0.0
O1557 O 0.09243 0.75796 0.09576 0.0
C1558 C 0.14086 0.68548 0.10378 0.0
C1559 C 0.08514 0.76367 0.1159 0.0
Dy1560 Dy 0.02478 0.39163 0.87799 0.0
C1561 C 0.99004 0.3822 0.78837 0.0
C1562 C 0.03884 0.38738 0.92121 0.0
Dy1563 Dy 0.01165 0.38434 0.82857 0.0
O1564 O 0.0299 0.37118 0.90923 0.0
O1565 O 0.03989 0.40595 0.90968 0.0
O1566 O 0.0103 0.42744 0.8764 0.0
O1567 O 0.99613 0.40241 0.85644 0.0
C1568 C 0.9947 0.42323 0.86118 0.0
C1569 C 0.04832 0.36041 0.84124 0.0
O1570 O 0.04171 0.40923 0.82652 0.0
O1571 O 0.05721 0.40199 0.86173 0.0
O1572 O -0.00061 0.36495 0.79872 0.0
O1573 O 0.99236 0.40084 0.80009 0.0
O1574 O 0.04455 0.36604 0.82061 0.0
O1575 O 0.0311 0.36532 0.85308 0.0
O1576 O 0.99451 0.36883 0.88278 0.0
O1577 O 0.98603 0.36105 0.84535 0.0
C1578 C 0.05916 0.41011 0.84139 0.0
C1579 C 0.98227 0.35822 0.86704 0.0
Dy1580 Dy 0.35855 0.23498 0.62019 0.0
C1581 C 0.32386 0.31902 0.58324 0.0
C1582 C 0.37615 0.19336 0.62936 0.0
Dy1583 Dy 0.33223 0.27641 0.59979 0.0
O1584 O 0.37998 0.20483 0.61145 0.0
O1585 O 0.36287 0.20485 0.64275 0.0
O1586 O 0.39071 0.2561 0.62171 0.0
O1587 O 0.36602 0.26112 0.59629 0.0
C1588 C 0.38451 0.26837 0.60468 0.0
C1589 C 0.30611 0.24349 0.61634 0.0
O1590 O 0.33706 0.25338 0.56939 0.0
O1591 O 0.34083 0.2204 0.59019 0.0
O1592 O 0.30895 0.3071 0.59418 0.0
O1593 O 0.34304 0.30754 0.58126 0.0
O1594 O 0.29944 0.25557 0.59911 0.0
O1595 O 0.32493 0.25083 0.62394 0.0
O1596 O 0.35576 0.25426 0.65164 0.0
O1597 O 0.34393 0.2885 0.63502 0.0
C1598 C 0.33829 0.2307 0.57077 0.0
C1599 C 0.3515 0.27644 0.65275 0.0
Dy1600 Dy 0.13244 0.49571 0.37155 0.0
C1601 C 0.17009 0.40973 0.40076 0.0
C1602 C 0.11933 0.5393 0.36288 0.0
Dy1603 Dy 0.15766 0.45389 0.39177 0.0
O1604 O 0.11143 0.52144 0.3525 0.0
O1605 O 0.13367 0.53307 0.37858 0.0
O1606 O 0.12744 0.47653 0.33936 0.0
O1607 O 0.15652 0.47004 0.3596 0.0
C1608 C 0.14556 0.46361 0.3426 0.0
C1609 C 0.14475 0.48652 0.42022 0.0
O1610 O 0.18951 0.47549 0.38525 0.0
O1611 O 0.16853 0.50869 0.37708 0.0
O1612 O 0.15928 0.42337 0.41425 0.0
O1613 O 0.17501 0.42057 0.38262 0.0
O1614 O 0.16371 0.47456 0.4231 0.0
O1615 O 0.13356 0.47933 0.40361 0.0
O1616 O 0.10147 0.4771 0.38224 0.0
O1617 O 0.12092 0.44241 0.38128 0.0
C1618 C 0.18842 0.49783 0.38096 0.0
C1619 C 0.1012 0.45462 0.38089 0.0
Dy1620 Dy 0.25698 0.38489 0.12617 0.0
C1621 C 0.34146 0.41532 0.16679 0.0
C1622 C 0.21571 0.37299 0.10783 0.0
Dy1623 Dy 0.29721 0.40337 0.1557 0.0
O1624 O 0.23557 0.36381 0.10308 0.0
O1625 O 0.21837 0.38828 0.12335 0.0
O1626 O 0.27992 0.38135 0.09673 0.0
O1627 O 0.28672 0.40645 0.12096 0.0
C1628 C 0.2944 0.39651 0.10399 0.0
C1629 C 0.26043 0.38833 0.17768 0.0
O1630 O 0.27728 0.43639 0.15069 0.0
O1631 O 0.24588 0.42118 0.13081 0.0
O1632 O 0.33005 0.39898 0.17606 0.0
O1633 O 0.32825 0.42563 0.15226 0.0
O1634 O 0.27423 0.40377 0.1861 0.0
O1635 O 0.26869 0.38056 0.16006 0.0
O1636 O 0.27318 0.35234 0.13649 0.0
O1637 O 0.30911 0.36839 0.14352 0.0
C1638 C 0.2569 0.43853 0.14017 0.0
C1639 C 0.29593 0.35049 0.13856 0.0
Dy1640 Dy 0.36764 0.49203 0.86557 0.0
C1641 C 0.32512 0.57023 0.90838 0.0
C1642 C 0.38207 0.45736 0.83862 0.0
Dy1643 Dy 0.34144 0.52742 0.89871 0.0
O1644 O 0.38525 0.4789 0.83513 0.0
O1645 O 0.37142 0.45459 0.85735 0.0
O1646 O 0.37876 0.52324 0.84643 0.0
O1647 O 0.34772 0.52319 0.86375 0.0
C1648 C 0.36094 0.53521 0.85273 0.0
C1649 C 0.35323 0.48861 0.91953 0.0
O1650 O 0.31061 0.51034 0.88252 0.0
O1651 O 0.3303 0.48493 0.8588 0.0
O1652 O 0.31428 0.55525 0.89624 0.0
O1653 O 0.3443 0.56131 0.91619 0.0
O1654 O 0.34195 0.50514 0.92953 0.0
O1655 O 0.35622 0.49411 0.8996 0.0
O1656 O 0.3959 0.5012 0.88865 0.0
O1657 O 0.3797 0.53668 0.89702 0.0
C1658 C 0.31101 0.49421 0.8668 0.0
C1659 C 0.39796 0.52263 0.89516 0.0
Dy1660 Dy 0.24429 0.62006 0.61087 0.0
C1661 C 0.15546 0.59262 0.6451 0.0
C1662 C 0.28845 0.6258 0.59652 0.0
Dy1663 Dy 0.20112 0.60243 0.63592 0.0
O1664 O 0.27084 0.63866 0.59096 0.0
O1665 O 0.28197 0.61022 0.6103 0.0
O1666 O 0.22238 0.63508 0.58391 0.0
O1667 O 0.21068 0.60591 0.60077 0.0
C1668 C 0.20512 0.62153 0.58711 0.0
C1669 C 0.24085 0.605 0.66032 0.0
O1670 O 0.21624 0.5685 0.62565 0.0
O1671 O 0.24853 0.58247 0.6074 0.0
O1672 O 0.16973 0.6032 0.65855 0.0
O1673 O 0.16633 0.58731 0.62699 0.0
O1674 O 0.22419 0.59097 0.66498 0.0
O1675 O 0.23396 0.61817 0.64514 0.0
O1676 O 0.23393 0.65131 0.62901 0.0
O1677 O 0.19552 0.64063 0.63291 0.0
C1678 C 0.23569 0.56551 0.61441 0.0
C1679 C 0.21181 0.65651 0.63206 0.0
Dy1680 Dy 0.13308 0.50189 0.1388 0.0
C1681 C 0.15807 0.58809 0.10211 0.0
C1682 C 0.12646 0.45877 0.15344 0.0
Dy1683 Dy 0.15058 0.54262 0.11115 0.0
O1684 O 0.11613 0.47681 0.16128 0.0
O1685 O 0.14001 0.4643 0.13737 0.0
O1686 O 0.12668 0.52484 0.16812 0.0
O1687 O 0.15319 0.53224 0.14575 0.0
C1688 C 0.14191 0.53963 0.16206 0.0
C1689 C 0.14082 0.50446 0.08755 0.0
O1690 O 0.18544 0.52598 0.11819 0.0
O1691 O 0.17111 0.49441 0.13695 0.0
O1692 O 0.1475 0.57384 0.08877 0.0
O1693 O 0.16542 0.57708 0.11959 0.0
O1694 O 0.15592 0.51955 0.08133 0.0
O1695 O 0.13001 0.51203 0.1042 0.0
O1696 O 0.09887 0.51603 0.12845 0.0
O1697 O 0.11395 0.55164 0.12112 0.0
C1698 C 0.1884 0.50615 0.12862 0.0
C1699 C 0.09619 0.53824 0.12565 0.0
Dy1700 Dy 0.2501 0.386 0.86989 0.0
C1701 C 0.15782 0.40649 0.83423 0.0
C1702 C 0.29181 0.38076 0.89167 0.0
Dy1703 Dy 0.20405 0.39561 0.84105 0.0
O1704 O 0.28183 0.3651 0.87963 0.0
O1705 O 0.27935 0.39934 0.89102 0.0
O1706 O 0.22817 0.38578 0.90058 0.0
O1707 O 0.21814 0.40546 0.87315 0.0
C1708 C 0.212 0.39835 0.89169 0.0
C1709 C 0.2414 0.38241 0.81811 0.0
O1710 O 0.22113 0.42991 0.84212 0.0
O1711 O 0.25865 0.41636 0.84967 0.0
O1712 O 0.17049 0.39474 0.82035 0.0
O1713 O 0.17052 0.41208 0.85137 0.0
O1714 O 0.22448 0.39452 0.8092 0.0
O1715 O 0.23607 0.37628 0.83742 0.0
O1716 O 0.23658 0.35121 0.86821 0.0
O1717 O 0.199 0.36025 0.85549 0.0
C1718 C 0.24389 0.43284 0.8439 0.0
C1719 C 0.21477 0.34581 0.86413 0.0
Dy1720 Dy 0.35675 0.49425 0.62464 0.0
C1721 C 0.32477 0.41579 0.57621 0.0
C1722 C 0.36966 0.53157 0.64862 0.0
Dy1723 Dy 0.3385 0.45784 0.59041 0.0
O1724 O 0.37836 0.51126 0.65099 0.0
O1725 O 0.3541 0.53158 0.63273 0.0
O1726 O 0.35762 0.46814 0.65175 0.0
O1727 O 0.33373 0.46541 0.62532 0.0
C1728 C 0.34215 0.45553 0.64206 0.0
C1729 C 0.35486 0.49593 0.57257 0.0
O1730 O 0.30554 0.47813 0.59437 0.0
O1731 O 0.32059 0.50683 0.61749 0.0
O1732 O 0.31538 0.42747 0.59216 0.0
O1733 O 0.34129 0.42751 0.56737 0.0
O1734 O 0.3398 0.48304 0.56214 0.0
O1735 O 0.36207 0.48622 0.58994 0.0
O1736 O 0.38999 0.4787 0.61414 0.0
O1737 O 0.37372 0.44465 0.6021 0.0
C1738 C 0.30336 0.49736 0.60597 0.0
C1739 C 0.39181 0.45678 0.60916 0.0
Dy1740 Dy 0.25849 0.62561 0.38451 0.0
C1741 C 0.33833 0.58911 0.34159 0.0
C1742 C 0.21836 0.64133 0.40096 0.0
Dy1743 Dy 0.29559 0.60286 0.35551 0.0
O1744 O 0.23867 0.64858 0.407 0.0
O1745 O 0.21985 0.62555 0.38588 0.0
O1746 O 0.28309 0.62704 0.41365 0.0
O1747 O 0.28582 0.60081 0.38995 0.0
C1748 C 0.2953 0.60986 0.4066 0.0
C1749 C 0.25869 0.6199 0.33362 0.0
O1750 O 0.27408 0.57122 0.36212 0.0
O1751 O 0.2441 0.59041 0.38006 0.0
O1752 O 0.32502 0.60387 0.33143 0.0
O1753 O 0.32774 0.58115 0.35877 0.0
O1754 O 0.27034 0.60226 0.32636 0.0
O1755 O 0.26865 0.62833 0.35036 0.0
O1756 O 0.27696 0.65663 0.37389 0.0
O1757 O 0.31104 0.63693 0.3673 0.0
C1758 C 0.25347 0.57139 0.37198 0.0
C1759 C 0.29973 0.65637 0.37171 0.0
Dy1760 Dy 0.36375 0.10447 0.50324 0.0
C1761 C 0.38403 0.1533 0.42222 0.0
C1762 C 0.35657 0.08724 0.54454 0.0
Dy1763 Dy 0.37953 0.13404 0.46323 0.0
O1764 O 0.34666 0.08021 0.52623 0.0
O1765 O 0.37141 0.103 0.53996 0.0
O1766 O 0.33121 0.0956 0.48409 0.0
O1767 O 0.34744 0.12683 0.47939 0.0
C1768 C 0.33159 0.1142 0.47246 0.0
C1769 C 0.41173 0.12481 0.49419 0.0
O1770 O 0.36677 0.16278 0.48568 0.0
O1771 O 0.36009 0.1402 0.51676 0.0
O1772 O 0.36549 0.15429 0.43419 0.0
O1773 O 0.40022 0.14197 0.43278 0.0
O1774 O 0.41145 0.1437 0.48287 0.0
O1775 O 0.39625 0.11156 0.4872 0.0
O1776 O 0.3774 0.0767 0.4819 0.0
O1777 O 0.37457 0.09779 0.44921 0.0
C1778 C 0.36071 0.16045 0.50691 0.0
C1779 C 0.37591 0.07781 0.4599 0.0
Dy1780 Dy 0.88139 0.3786 0.52553 0.0
C1781 C 0.88742 0.28696 0.49089 0.0
C1782 C 0.87098 0.41991 0.54358 0.0
Dy1783 Dy 0.88644 0.32829 0.51165 0.0
O1784 O 0.89152 0.41067 0.54341 0.0
O1785 O 0.85596 0.40632 0.53445 0.0
O1786 O 0.90578 0.3898 0.49988 0.0
O1787 O 0.91014 0.357 0.51391 0.0
C1788 C 0.91673 0.37043 0.49898 0.0
C1789 C 0.85242 0.33697 0.53917 0.0
O1790 O 0.90791 0.32693 0.54289 0.0
O1791 O 0.89326 0.36135 0.55682 0.0
O1792 O 0.87196 0.29384 0.50479 0.0
O1793 O 0.90328 0.30247 0.48912 0.0
O1794 O 0.86328 0.31758 0.53874 0.0
O1795 O 0.85842 0.34978 0.52351 0.0
O1796 O 0.86003 0.37994 0.49437 0.0
O1797 O 0.87105 0.34444 0.48075 0.0
C1798 C 0.90493 0.34188 0.5593 0.0
C1799 C 0.86034 0.36442 0.47837 0.0
Dy1800 Dy 0.35107 0.13173 0.24431 0.0
C1801 C 0.38214 0.16817 0.32817 0.0
C1802 C 0.34197 0.114 0.20317 0.0
Dy1803 Dy 0.37162 0.15725 0.2849 0.0
O1804 O 0.32992 0.11038 0.22083 0.0
O1805 O 0.35819 0.12853 0.20784 0.0
O1806 O 0.34055 0.10249 0.26594 0.0
O1807 O 0.36957 0.12191 0.27451 0.0
C1808 C 0.35622 0.10674 0.28104 0.0
C1809 C 0.36703 0.18262 0.2481 0.0
O1810 O 0.4047 0.14209 0.27168 0.0
O1811 O 0.38909 0.12833 0.23833 0.0
O1812 O 0.36443 0.1761 0.31692 0.0
O1813 O 0.39447 0.15504 0.31547 0.0
O1814 O 0.38221 0.18687 0.26382 0.0
O1815 O 0.35336 0.16735 0.25427 0.0
O1816 O 0.31882 0.14631 0.25792 0.0
O1817 O 0.33476 0.14862 0.29343 0.0
C1818 C 0.40693 0.13207 0.25195 0.0
C1819 C 0.31652 0.1468 0.27977 0.0
Dy1820 Dy 0.62228 0.62333 0.99433 0.0
C1821 C 0.5934 0.65683 0.08165 0.0
C1822 C 0.63227 0.60789 0.95261 0.0
Dy1823 Dy 0.59946 0.64464 0.03747 0.0
O1824 O 0.63491 0.59621 0.97077 0.0
O1825 O 0.62385 0.6279 0.95732 0.0
O1826 O 0.65775 0.62125 0.00964 0.0
O1827 O 0.63368 0.6441 0.02252 0.0
C1828 C 0.65289 0.63428 0.02648 0.0
C1829 C 0.57041 0.63106 0.00403 0.0
O1830 O 0.60425 0.67666 0.01706 0.0
O1831 O 0.61093 0.65801 0.9832 0.0
O1832 O 0.6082 0.66582 0.06819 0.0
O1833 O 0.58122 0.64187 0.0706 0.0
O1834 O 0.5651 0.64726 0.01813 0.0
O1835 O 0.58916 0.62191 0.01022 0.0
O1836 O 0.6144 0.59202 0.01325 0.0
O1837 O 0.61291 0.60999 0.04779 0.0
C1838 C 0.60696 0.67672 0.99503 0.0
C1839 C 0.61565 0.59147 0.03526 0.0
Dy1840 Dy 0.64638 0.38001 0.23907 0.0
C1841 C 0.59835 0.35439 0.31882 0.0
C1842 C 0.66143 0.38938 0.1974 0.0
Dy1843 Dy 0.61825 0.36043 0.27816 0.0
O1844 O 0.66969 0.3981 0.21576 0.0
O1845 O 0.64621 0.37417 0.20226 0.0
O1846 O 0.64967 0.41366 0.25652 0.0
O1847 O 0.62099 0.3932 0.26211 0.0
C1848 C 0.63144 0.41077 0.26849 0.0
C1849 C 0.63377 0.33022 0.24801 0.0
O1850 O 0.58821 0.36788 0.25421 0.0
O1851 O 0.61125 0.37476 0.22352 0.0
O1852 O 0.61151 0.33954 0.30883 0.0
O1853 O 0.59586 0.37237 0.30644 0.0
O1854 O 0.61453 0.32754 0.25876 0.0
O1855 O 0.64418 0.34746 0.25531 0.0
O1856 O 0.676 0.37052 0.26125 0.0
O1857 O 0.65364 0.3697 0.29318 0.0
C1858 C 0.59071 0.37175 0.23252 0.0
C1859 C 0.67414 0.37118 0.28322 0.0
Dy1860 Dy 0.10959 0.88719 6e-05 0.0
C1861 C 0.07938 0.85664 0.91371 0.0
C1862 C 0.11928 0.89871 0.04308 0.0
Dy1863 Dy 0.08727 0.86724 0.95751 0.0
O1864 O 0.1266 0.90937 0.02572 0.0
O1865 O 0.10625 0.8819 0.03676 0.0
O1866 O 0.14212 0.89616 0.98245 0.0
O1867 O 0.12242 0.86815 0.97149 0.0
C1868 C 0.1391 0.88091 0.96698 0.0
C1869 C 0.0585 0.87469 0.99172 0.0
O1870 O 0.09744 0.83411 0.97372 0.0
O1871 O 0.11074 0.84967 0.00731 0.0
O1872 O 0.06863 0.87263 0.92464 0.0
O1873 O 0.09372 0.84598 0.92699 0.0
O1874 O 0.05508 0.85874 0.97688 0.0
O1875 O 0.0751 0.88684 0.98592 0.0
O1876 O 0.09722 0.91884 0.98373 0.0
O1877 O 0.09833 0.90284 0.94858 0.0
C1878 C 0.10596 0.83195 0.99427 0.0
C1879 C 0.0992 0.92089 0.96197 0.0
Dy1880 Dy 0.3606 0.86766 0.23426 0.0
C1881 C 0.3983 0.8343 0.15156 0.0
C1882 C 0.3481 0.88783 0.27339 0.0
Dy1883 Dy 0.38225 0.84157 0.19328 0.0
O1884 O 0.33973 0.89287 0.25383 0.0
O1885 O 0.36282 0.87095 0.27172 0.0
O1886 O 0.3495 0.89547 0.21048 0.0
O1887 O 0.37957 0.87628 0.20481 0.0
C1888 C 0.36617 0.89104 0.19688 0.0
C1889 C 0.37866 0.81731 0.23005 0.0
O1890 O 0.41486 0.85353 0.21017 0.0
O1891 O 0.39834 0.86894 0.24235 0.0
O1892 O 0.38584 0.81973 0.1624 0.0
O1893 O 0.40158 0.85249 0.16347 0.0
O1894 O 0.39395 0.81251 0.21492 0.0
O1895 O 0.36464 0.83245 0.22331 0.0
O1896 O 0.33015 0.8494 0.22123 0.0
O1897 O 0.34392 0.84698 0.18511 0.0
C1898 C 0.41641 0.86341 0.23004 0.0
C1899 C 0.32652 0.8481 0.19949 0.0
Dy1900 Dy 0.14033 0.13113 0.7623 0.0
C1901 C 0.10236 0.16253 0.67774 0.0
C1902 C 0.15652 0.11696 0.80286 0.0
Dy1903 Dy 0.1167 0.15602 0.72156 0.0
O1904 O 0.16618 0.11251 0.78396 0.0
O1905 O 0.13814 0.12947 0.79953 0.0
O1906 O 0.14338 0.09873 0.74246 0.0
O1907 O 0.11661 0.12186 0.73534 0.0
C1908 C 0.12657 0.10398 0.72883 0.0
C1909 C 0.13016 0.1824 0.7565 0.0
O1910 O 0.08485 0.15021 0.74238 0.0
O1911 O 0.10498 0.13966 0.77495 0.0
O1912 O 0.1167 0.17554 0.68884 0.0
O1913 O 0.0951 0.14675 0.69101 0.0
O1914 O 0.11304 0.18796 0.74296 0.0
O1915 O 0.14037 0.16508 0.74889 0.0
O1916 O 0.17142 0.14275 0.74466 0.0
O1917 O 0.15254 0.14466 0.71041 0.0
C1918 C 0.08558 0.14523 0.76405 0.0
C1919 C 0.17186 0.14243 0.72267 0.0
C1920 C 0.05759 0.1701 0.34471 0.0
C1921 C 0.07258 0.17618 0.36227 0.0
H1922 H 0.02515 0.15488 0.33552 0.0
C1923 C 0.06709 0.17041 0.38423 0.0
H1924 H 0.06143 0.17473 0.32772 0.0
C1925 C 0.04596 0.16034 0.38875 0.0
C1926 C 0.03056 0.15518 0.37128 0.0
H1927 H 0.07826 0.17528 0.3981 0.0
H1928 H 0.04154 0.15687 0.40587 0.0
C1929 C 0.03682 0.15918 0.34918 0.0
C1930 C 0.09444 0.84575 0.58612 0.0
C1931 C 0.08634 0.86196 0.60134 0.0
H1932 H 0.11056 0.81309 0.58195 0.0
C1933 C 0.09206 0.85973 0.62411 0.0
H1934 H 0.09005 0.84713 0.56856 0.0
C1935 C 0.1023 0.83964 0.63193 0.0
C1936 C 0.10807 0.82239 0.61685 0.0
H1937 H 0.08603 0.87213 0.63618 0.0
H1938 H 0.10471 0.83716 0.6497 0.0
C1939 C 0.10569 0.82617 0.59385 0.0
C1940 C 0.42724 0.83401 0.86027 0.0
C1941 C 0.44805 0.82919 0.84924 0.0
H1942 H 0.39324 0.82234 0.8683 0.0
C1943 C 0.45028 0.80865 0.83734 0.0
H1944 H 0.425 0.84984 0.86939 0.0
C1945 C 0.43211 0.79318 0.83648 0.0
C1946 C 0.41136 0.79789 0.84754 0.0
H1947 H 0.46607 0.80455 0.8286 0.0
H1948 H 0.43448 0.77735 0.8274 0.0
C1949 C 0.409 0.81845 0.85942 0.0
C1950 C 0.42812 0.19022 0.14983 0.0
C1951 C 0.42256 0.19932 0.12881 0.0
H1952 H 0.44867 0.16643 0.16854 0.0
C1953 C 0.43188 0.18931 0.10972 0.0
H1954 H 0.42094 0.1977 0.1648 0.0
C1955 C 0.44814 0.17153 0.11186 0.0
C1956 C 0.455 0.16349 0.13312 0.0
H1957 H 0.42789 0.19621 0.09338 0.0
H1958 H 0.456 0.16475 0.09694 0.0
C1959 C 0.44407 0.17239 0.15198 0.0
C1960 C 0.0442 0.81034 0.0966 0.0
C1961 C 0.03408 0.81779 0.11639 0.0
H1962 H 0.06802 0.788 0.08097 0.0
C1963 C 0.04193 0.80858 0.13676 0.0
H1964 H 0.03858 0.81731 0.08069 0.0
C1965 C 0.05892 0.79113 0.13702 0.0
C1966 C 0.06832 0.78301 0.11692 0.0
H1967 H 0.03422 0.81406 0.15224 0.0
H1968 H 0.06425 0.78369 0.15278 0.0
C1969 C 0.06111 0.79336 0.09684 0.0
C1970 C 0.45515 0.84422 0.39566 0.0
C1971 C 0.46337 0.84246 0.37378 0.0
H1972 H 0.43265 0.83108 0.42041 0.0
C1973 C 0.45401 0.82555 0.35966 0.0
H1974 H 0.46172 0.85714 0.40698 0.0
C1975 C 0.43737 0.81033 0.36755 0.0
C1976 C 0.42958 0.81195 0.38959 0.0
H1977 H 0.45993 0.82371 0.34272 0.0
H1978 H 0.43078 0.7972 0.3565 0.0
C1979 C 0.4384 0.82927 0.4034 0.0
C1980 C 0.41036 0.15355 0.66511 0.0
C1981 C 0.42735 0.14681 0.64991 0.0
H1982 H 0.37976 0.1737 0.67017 0.0
C1983 C 0.42421 0.15126 0.62721 0.0
H1984 H 0.41224 0.14971 0.68268 0.0
C1985 C 0.40552 0.1645 0.62005 0.0
C1986 C 0.39009 0.17359 0.63563 0.0
H1987 H 0.43683 0.14567 0.6152 0.0
H1988 H 0.4043 0.16915 0.60262 0.0
C1989 C 0.3917 0.16698 0.65797 0.0
C1990 C 0.10238 0.19075 0.87908 0.0
C1991 C 0.10483 0.20551 0.89729 0.0
H1992 H 0.08889 0.15929 0.86711 0.0
C1993 C 0.09866 0.19842 0.9186 0.0
H1994 H 0.10733 0.19592 0.86255 0.0
C1995 C 0.08742 0.17768 0.92117 0.0
C1996 C 0.08313 0.16377 0.90252 0.0
H1997 H 0.10087 0.20963 0.93285 0.0
H1998 H 0.08037 0.17344 0.93723 0.0
C1999 C 0.09217 0.16965 0.8818 0.0
C2000 C 0.36977 0.06743 0.17048 0.0
C2001 C 0.35046 0.05439 0.16445 0.0
H2002 H 0.38197 0.09776 0.18638 0.0
C2003 C 0.32806 0.06304 0.168 0.0
H2004 H 0.38718 0.06117 0.1675 0.0
C2005 C 0.32503 0.08377 0.17915 0.0
C2006 C 0.34438 0.09638 0.18604 0.0
H2007 H 0.31296 0.05325 0.16312 0.0
H2008 H 0.30768 0.08941 0.18332 0.0
C2009 C 0.36674 0.08852 0.18085 0.0
C2010 C 0.14673 0.11688 0.41834 0.0
C2011 C 0.14317 0.099 0.43328 0.0
H2012 H 0.16959 0.13112 0.39469 0.0
C2013 C 0.15646 0.07888 0.43146 0.0
H2014 H 0.1367 0.13256 0.41936 0.0
C2015 C 0.17496 0.07782 0.41671 0.0
C2016 C 0.18035 0.09699 0.40407 0.0
H2017 H 0.15394 0.06486 0.44282 0.0
H2018 H 0.18638 0.06304 0.41693 0.0
C2019 C 0.16555 0.11607 0.40416 0.0
C2020 C 0.17106 0.92012 0.67125 0.0
C2021 C 0.15369 0.90552 0.6783 0.0
H2022 H 0.17868 0.95147 0.65515 0.0
C2023 C 0.13046 0.90973 0.67184 0.0
H2024 H 0.18897 0.91728 0.6763 0.0
C2025 C 0.1244 0.92987 0.66089 0.0
C2026 C 0.14165 0.94535 0.65554 0.0
H2027 H 0.11669 0.89875 0.67732 0.0
H2028 H 0.10631 0.9337 0.65732 0.0
C2029 C 0.16509 0.93981 0.6596 0.0
C2030 C 0.3418 0.8897 0.94864 0.0
C2031 C 0.35007 0.86786 0.95461 0.0
H2032 H 0.31819 0.90908 0.9279 0.0
C2033 C 0.34299 0.84895 0.94187 0.0
H2034 H 0.34709 0.90461 0.95805 0.0
C2035 C 0.32629 0.85152 0.925 0.0
C2036 C 0.31685 0.87307 0.92012 0.0
H2037 H 0.34902 0.8319 0.94596 0.0
H2038 H 0.31979 0.83645 0.91655 0.0
C2039 C 0.32545 0.89232 0.9313 0.0
C2040 C 0.36289 0.91758 0.32748 0.0
C2041 C 0.35111 0.93839 0.32442 0.0
H2042 H 0.37084 0.88466 0.31365 0.0
C2043 C 0.33567 0.94101 0.30639 0.0
H2044 H 0.37487 0.91533 0.34138 0.0
C2045 C 0.33314 0.92351 0.29073 0.0
C2046 C 0.34628 0.90328 0.29275 0.0
H2047 H 0.32651 0.95702 0.30379 0.0
H2048 H 0.32205 0.92645 0.27628 0.0
C2049 C 0.36049 0.90007 0.31171 0.0
C2050 C 0.32513 0.10899 0.59366 0.0
C2051 C 0.30801 0.09238 0.59523 0.0
H2052 H 0.35555 0.11956 0.57689 0.0
C2053 C 0.31053 0.07156 0.58401 0.0
H2054 H 0.32336 0.12514 0.60233 0.0
C2055 C 0.32872 0.06844 0.56921 0.0
C2056 C 0.34458 0.08603 0.56583 0.0
H2057 H 0.29738 0.05859 0.58519 0.0
H2058 H 0.32908 0.05323 0.55891 0.0
C2059 C 0.34364 0.10565 0.5793 0.0
C2060 C 0.17949 0.08793 0.82374 0.0
C2061 C 0.16025 0.10277 0.82262 0.0
H2062 H 0.19274 0.05602 0.83608 0.0
C2063 C 0.14169 0.09961 0.83705 0.0
H2064 H 0.19401 0.09014 0.81276 0.0
C2065 C 0.14071 0.07988 0.84977 0.0
C2066 C 0.15872 0.06374 0.84886 0.0
H2067 H 0.12666 0.11085 0.83652 0.0
H2068 H 0.12502 0.07638 0.85872 0.0
C2069 C 0.17877 0.06846 0.83699 0.0
C2070 C 0.16719 0.91408 0.08138 0.0
C2071 C 0.17425 0.89198 0.08722 0.0
H2072 H 0.14269 0.93387 0.06228 0.0
C2073 C 0.15912 0.87371 0.08419 0.0
H2074 H 0.1787 0.92837 0.08394 0.0
C2075 C 0.13807 0.87703 0.07309 0.0
C2076 C 0.13281 0.89838 0.06378 0.0
H2077 H 0.16431 0.85659 0.08887 0.0
H2078 H 0.12771 0.86222 0.06909 0.0
C2079 C 0.14655 0.91726 0.06933 0.0
C2080 C 0.17961 0.3987 0.06319 0.0
C2081 C 0.17704 0.37988 0.049 0.0
H2082 H 0.19264 0.41075 0.09451 0.0
C2083 C 0.18308 0.35798 0.05643 0.0
H2084 H 0.17448 0.41565 0.05782 0.0
C2085 C 0.19354 0.35517 0.07728 0.0
C2086 C 0.19744 0.37418 0.09097 0.0
H2087 H 0.18073 0.34325 0.0457 0.0
H2088 H 0.19998 0.33845 0.08208 0.0
C2089 C 0.1894 0.39579 0.08431 0.0
C2090 C 0.68464 0.12694 0.92102 0.0
C2091 C 0.70672 0.13397 0.92801 0.0
H2092 H 0.64912 0.12334 0.92974 0.0
C2093 C 0.71024 0.14228 0.94971 0.0
H2094 H 0.68169 0.12017 0.90441 0.0
C2095 C 0.69175 0.14399 0.96418 0.0
C2096 C 0.66958 0.13733 0.95712 0.0
H2097 H 0.72726 0.14755 0.95549 0.0
H2098 H 0.69471 0.15089 0.98074 0.0
C2099 C 0.66615 0.12849 0.93556 0.0
C2100 C 0.11022 0.42997 0.17884 0.0
C2101 C 0.12852 0.43739 0.16571 0.0
H2102 H 0.09994 0.40762 0.20499 0.0
C2103 C 0.1503 0.42658 0.16742 0.0
H2104 H 0.09337 0.43825 0.17779 0.0
C2105 C 0.15428 0.4099 0.18352 0.0
C2106 C 0.13629 0.40331 0.19736 0.0
H2107 H 0.16471 0.43223 0.15757 0.0
H2108 H 0.17155 0.4027 0.18565 0.0
C2109 C 0.11399 0.41262 0.19434 0.0
C2110 C 0.83251 0.84828 0.43289 0.0
C2111 C 0.83587 0.86593 0.44844 0.0
H2112 H 0.81528 0.83813 0.40239 0.0
C2113 C 0.82741 0.88787 0.44343 0.0
H2114 H 0.8389 0.83123 0.4364 0.0
C2115 C 0.81466 0.89195 0.424 0.0
C2116 C 0.8094 0.87403 0.40934 0.0
H2117 H 0.82984 0.90185 0.45504 0.0
H2118 H 0.80761 0.90892 0.42126 0.0
C2119 C 0.8191 0.85227 0.41347 0.0
C2120 C 0.89119 0.0652 0.19685 0.0
C2121 C 0.86961 0.07257 0.20464 0.0
H2122 H 0.9089 0.04611 0.17157 0.0
C2123 C 0.84966 0.06977 0.19135 0.0
H2124 H 0.90675 0.06743 0.20693 0.0
C2125 C 0.85106 0.0589 0.17082 0.0
C2126 C 0.87225 0.04972 0.16384 0.0
H2127 H 0.83285 0.07544 0.19708 0.0
H2128 H 0.83521 0.05604 0.16134 0.0
C2129 C 0.89245 0.05332 0.17667 0.0
C2130 C 0.33575 0.64122 0.55683 0.0
C2131 C 0.34581 0.6197 0.55319 0.0
H2132 H 0.309 0.66005 0.57357 0.0
C2133 C 0.33917 0.60115 0.56614 0.0
H2134 H 0.34064 0.65568 0.54683 0.0
C2135 C 0.32182 0.60378 0.58187 0.0
C2136 C 0.31027 0.62482 0.58422 0.0
H2137 H 0.34682 0.58441 0.56351 0.0
H2138 H 0.31629 0.58894 0.59097 0.0
C2139 C 0.31774 0.6437 0.57205 0.0
C2140 C 0.10668 0.58511 0.3219 0.0
C2141 C 0.12939 0.59186 0.3174 0.0
H2142 H 0.08552 0.56248 0.34052 0.0
C2143 C 0.1478 0.58476 0.33117 0.0
H2144 H 0.09225 0.59073 0.31145 0.0
C2145 C 0.14373 0.56968 0.34847 0.0
C2146 C 0.1214 0.56095 0.35142 0.0
H2147 H 0.16534 0.59022 0.32807 0.0
H2148 H 0.15843 0.56317 0.35804 0.0
C2149 C 0.10276 0.56929 0.3386 0.0
C2150 C 0.37992 0.4168 0.82553 0.0
C2151 C 0.38475 0.43978 0.82125 0.0
H2152 H 0.37289 0.38388 0.81134 0.0
C2153 C 0.38899 0.44659 0.79931 0.0
H2154 H 0.37648 0.41117 0.8423 0.0
C2155 C 0.3865 0.43118 0.78173 0.0
C2156 C 0.38047 0.40856 0.78585 0.0
H2157 H 0.39269 0.46421 0.79551 0.0
H2158 H 0.38834 0.43717 0.76481 0.0
C2159 C 0.37797 0.40119 0.80788 0.0
C2160 C 0.96138 0.83895 0.64703 0.0
C2161 C 0.96718 0.84365 0.62494 0.0
H2162 H 0.93782 0.82186 0.66849 0.0
C2163 C 0.95192 0.83786 0.60753 0.0
H2164 H 0.97294 0.84365 0.66065 0.0
C2165 C 0.93141 0.82663 0.61209 0.0
C2166 C 0.9264 0.82033 0.63403 0.0
H2167 H 0.95599 0.84178 0.59042 0.0
H2168 H 0.92035 0.82142 0.59827 0.0
C2169 C 0.94128 0.82686 0.65153 0.0
C2170 C 0.89301 0.17675 0.4054 0.0
C2171 C 0.88961 0.18059 0.38254 0.0
H2172 H 0.90938 0.15541 0.42997 0.0
C2173 C 0.89446 0.16336 0.36715 0.0
H2174 H 0.88876 0.18985 0.41749 0.0
C2175 C 0.90469 0.14309 0.37446 0.0
C2176 C 0.91132 0.14063 0.39698 0.0
H2177 H 0.89119 0.16592 0.34951 0.0
H2178 H 0.90993 0.13063 0.3621 0.0
C2179 C 0.90426 0.15695 0.41259 0.0
C2180 C 0.55864 0.18241 0.1679 0.0
C2181 C 0.55477 0.165 0.15223 0.0
H2182 H 0.57745 0.21246 0.17637 0.0
C2183 C 0.56788 0.16422 0.13276 0.0
H2184 H 0.54879 0.1833 0.1831 0.0
C2185 C 0.5848 0.18074 0.12915 0.0
C2186 C 0.58833 0.19832 0.14479 0.0
H2187 H 0.56533 0.15074 0.12061 0.0
H2188 H 0.59474 0.18003 0.114 0.0
C2189 C 0.57509 0.19903 0.16412 0.0
C2190 C 0.54968 0.82497 0.89029 0.0
C2191 C 0.5442 0.83442 0.86928 0.0
H2192 H 0.56882 0.79903 0.90823 0.0
C2193 C 0.55617 0.82661 0.85054 0.0
H2194 H 0.54088 0.83083 0.90508 0.0
C2195 C 0.57181 0.80851 0.8524 0.0
C2196 C 0.57623 0.79816 0.87305 0.0
H2197 H 0.55251 0.83357 0.83417 0.0
H2198 H 0.5796 0.80179 0.8374 0.0
C2199 C 0.56581 0.807 0.89219 0.0
C2200 C 0.93547 0.20159 0.89996 0.0
C2201 C 0.9293 0.21256 0.87993 0.0
H2202 H 0.9575 0.17723 0.91629 0.0
C2203 C 0.93982 0.20531 0.86007 0.0
H2204 H 0.92772 0.20655 0.91559 0.0
C2205 C 0.95676 0.18791 0.8605 0.0
C2206 C 0.96361 0.17801 0.88085 0.0
H2207 H 0.93526 0.21331 0.84436 0.0
H2208 H 0.96525 0.18301 0.84522 0.0
C2209 C 0.95254 0.18472 0.90042 0.0
C2210 C 0.5582 0.18662 0.63035 0.0
C2211 C 0.56753 0.18396 0.60898 0.0
H2212 H 0.53449 0.17408 0.65453 0.0
C2213 C 0.56 0.16576 0.59557 0.0
H2214 H 0.56364 0.20053 0.64103 0.0
C2215 C 0.54305 0.15088 0.60312 0.0
C2216 C 0.53351 0.1536 0.62443 0.0
H2217 H 0.56693 0.16321 0.57908 0.0
H2218 H 0.53742 0.13719 0.59221 0.0
C2219 C 0.54153 0.17145 0.63809 0.0
C2220 C 0.60594 0.82978 0.34273 0.0
C2221 C 0.60699 0.82312 0.36508 0.0
H2222 H 0.58586 0.84684 0.31757 0.0
C2223 C 0.59122 0.83224 0.38034 0.0
H2224 H 0.61817 0.82309 0.33079 0.0
C2225 C 0.57262 0.84536 0.37276 0.0
C2226 C 0.56995 0.84966 0.34998 0.0
H2227 H 0.59204 0.82757 0.39777 0.0
H2228 H 0.55965 0.85086 0.38448 0.0
C2229 C 0.58737 0.84308 0.33518 0.0
C2230 C 0.89095 0.81079 0.11596 0.0
C2231 C 0.88951 0.79487 0.09858 0.0
H2232 H 0.90493 0.84236 0.12707 0.0
C2233 C 0.89756 0.80034 0.07743 0.0
H2234 H 0.88468 0.80684 0.13237 0.0
C2235 C 0.90992 0.8204 0.07454 0.0
C2236 C 0.91355 0.83518 0.09267 0.0
H2237 H 0.89626 0.7882 0.06383 0.0
H2238 H 0.91853 0.82321 0.0589 0.0
C2239 C 0.90233 0.83123 0.11281 0.0
C2240 C 0.67008 0.93069 0.83292 0.0
C2241 C 0.64775 0.93846 0.8382 0.0
H2242 H 0.68998 0.90595 0.81476 0.0
C2243 C 0.62842 0.92536 0.83253 0.0
H2244 H 0.68517 0.94065 0.8374 0.0
C2245 C 0.63125 0.90506 0.82079 0.0
C2246 C 0.65337 0.89825 0.81376 0.0
H2247 H 0.61111 0.93112 0.83667 0.0
H2248 H 0.61593 0.89579 0.81558 0.0
C2249 C 0.67285 0.91084 0.82031 0.0
C2250 C 0.82127 0.91568 0.58335 0.0
C2251 C 0.81421 0.89656 0.59526 0.0
H2252 H 0.84346 0.92784 0.55775 0.0
C2253 C 0.82734 0.87637 0.59439 0.0
H2254 H 0.81113 0.93133 0.58371 0.0
C2255 C 0.84606 0.87455 0.58022 0.0
C2256 C 0.8512 0.89259 0.56598 0.0
H2257 H 0.82199 0.86131 0.60315 0.0
H2258 H 0.85475 0.85816 0.57867 0.0
C2259 C 0.8397 0.91366 0.56856 0.0
C2260 C 0.82853 0.05515 0.33447 0.0
C2261 C 0.85181 0.04987 0.33949 0.0
H2262 H 0.80524 0.07769 0.31697 0.0
C2263 C 0.86905 0.0658 0.33544 0.0
H2264 H 0.81497 0.04307 0.3379 0.0
C2265 C 0.86329 0.08612 0.3247 0.0
C2266 C 0.84042 0.09008 0.31705 0.0
H2267 H 0.88701 0.06214 0.33977 0.0
H2268 H 0.8772 0.09742 0.32021 0.0
C2269 C 0.82289 0.07504 0.32293 0.0
C2270 C 0.65393 0.14031 0.05523 0.0
C2271 C 0.64572 0.12176 0.04256 0.0
H2272 H 0.67945 0.15229 0.0786 0.0
C2273 C 0.65487 0.09984 0.04695 0.0
H2274 H 0.6473 0.15742 0.05244 0.0
C2275 C 0.67306 0.09689 0.06251 0.0
C2276 C 0.68253 0.11589 0.07345 0.0
H2277 H 0.64885 0.0852 0.03754 0.0
H2278 H 0.68084 0.08015 0.06467 0.0
C2279 C 0.67235 0.13743 0.07026 0.0
C2280 C 0.66733 0.08629 0.69392 0.0
C2281 C 0.64796 0.09865 0.70139 0.0
H2282 H 0.6795 0.05776 0.67455 0.0
C2283 C 0.62575 0.09254 0.69367 0.0
H2284 H 0.68458 0.09052 0.69991 0.0
C2285 C 0.6228 0.07329 0.68021 0.0
C2286 C 0.64206 0.0604 0.67346 0.0
H2287 H 0.61048 0.10154 0.69948 0.0
H2288 H 0.60541 0.06805 0.67563 0.0
C2289 C 0.66442 0.06755 0.67959 0.0
C2290 C 0.69089 0.92189 0.41649 0.0
C2291 C 0.69039 0.9022 0.40326 0.0
H2292 H 0.6752 0.93999 0.44344 0.0
C2293 C 0.67117 0.88786 0.40365 0.0
H2294 H 0.70568 0.93311 0.41624 0.0
C2295 C 0.6535 0.89202 0.41879 0.0
C2296 C 0.65537 0.9102 0.43401 0.0
H2297 H 0.67062 0.8726 0.39342 0.0
H2298 H 0.63982 0.8796 0.4202 0.0
C2299 C 0.67341 0.92589 0.43185 0.0
C2300 C 0.82371 0.92767 0.1585 0.0
C2301 C 0.84415 0.93075 0.14669 0.0
H2302 H 0.80706 0.90811 0.18352 0.0
C2303 C 0.8613 0.91373 0.14667 0.0
H2304 H 0.81039 0.94084 0.15863 0.0
C2305 C 0.85913 0.89475 0.16029 0.0
C2306 C 0.84024 0.89331 0.17464 0.0
H2307 H 0.87719 0.916 0.13759 0.0
H2308 H 0.87354 0.8828 0.16152 0.0
C2309 C 0.82181 0.909 0.17262 0.0
C2310 C 0.86446 0.11238 0.92308 0.0
C2311 C 0.86858 0.09201 0.93467 0.0
H2312 H 0.83908 0.13242 0.9056 0.0
C2313 C 0.85391 0.07336 0.93106 0.0
H2314 H 0.87568 0.12693 0.92542 0.0
C2315 C 0.83321 0.07636 0.91908 0.0
C2316 C 0.82721 0.09806 0.91119 0.0
H2317 H 0.85696 0.05744 0.93975 0.0
H2318 H 0.82082 0.06261 0.91834 0.0
C2319 C 0.84344 0.11562 0.9119 0.0
C2320 C 0.81474 0.59851 0.93661 0.0
C2321 C 0.81704 0.61756 0.95054 0.0
H2322 H 0.80329 0.58613 0.90486 0.0
C2323 C 0.8117 0.63939 0.94248 0.0
H2324 H 0.81937 0.5816 0.94246 0.0
C2325 C 0.80261 0.64204 0.92107 0.0
C2326 C 0.79923 0.62288 0.90747 0.0
H2327 H 0.8139 0.65431 0.953 0.0
H2328 H 0.7969 0.6588 0.91563 0.0
C2329 C 0.80623 0.60121 0.91497 0.0
C2330 C 0.31798 0.86303 0.04347 0.0
C2331 C 0.33221 0.84448 0.04931 0.0
H2332 H 0.2884 0.88319 0.05185 0.0
C2333 C 0.32807 0.83214 0.06875 0.0
H2334 H 0.32094 0.87268 0.02846 0.0
C2335 C 0.30953 0.83815 0.08216 0.0
C2336 C 0.29501 0.85641 0.07603 0.0
H2337 H 0.33908 0.81784 0.07355 0.0
H2338 H 0.30638 0.82837 0.09705 0.0
C2339 C 0.29941 0.86895 0.05677 0.0
C2340 C 0.84919 0.57095 0.82985 0.0
C2341 C 0.87113 0.56074 0.83286 0.0
H2342 H 0.82826 0.59367 0.80995 0.0
C2343 C 0.88988 0.56821 0.82035 0.0
H2344 H 0.83444 0.56525 0.8392 0.0
C2345 C 0.88644 0.58494 0.80415 0.0
C2346 C 0.86407 0.59355 0.79983 0.0
H2347 H 0.90687 0.56039 0.8224 0.0
H2348 H 0.90087 0.58995 0.79398 0.0
C2349 C 0.84559 0.58697 0.81307 0.0
C2350 C 0.1647 0.14419 0.56458 0.0
C2351 C 0.15912 0.12571 0.55064 0.0
H2352 H 0.18421 0.15528 0.59342 0.0
C2353 C 0.1658 0.10359 0.55713 0.0
H2354 H 0.15966 0.16137 0.55992 0.0
C2355 C 0.17937 0.10007 0.57619 0.0
C2356 C 0.18688 0.11862 0.58907 0.0
H2357 H 0.16141 0.08897 0.54687 0.0
H2358 H 0.18517 0.08288 0.58002 0.0
C2359 C 0.17866 0.14066 0.58371 0.0
C2360 C 0.14864 0.92627 0.80523 0.0
C2361 C 0.12861 0.92387 0.79195 0.0
H2362 H 0.16339 0.9397 0.8353 0.0
C2363 C 0.10718 0.93156 0.79984 0.0
H2364 H 0.16533 0.92032 0.79943 0.0
C2365 C 0.10619 0.94336 0.82009 0.0
C2366 C 0.12645 0.94654 0.83292 0.0
H2367 H 0.09156 0.92966 0.78979 0.0
H2368 H 0.08988 0.95086 0.82523 0.0
C2369 C 0.14748 0.93707 0.82584 0.0
C2370 C 0.67564 0.39346 0.41722 0.0
C2371 C 0.68667 0.37235 0.41368 0.0
H2372 H 0.65129 0.41232 0.43682 0.0
C2373 C 0.67898 0.35301 0.42499 0.0
H2374 H 0.68137 0.40865 0.40879 0.0
C2375 C 0.66124 0.35503 0.44053 0.0
C2376 C 0.65172 0.37653 0.4454 0.0
H2377 H 0.68734 0.33659 0.42252 0.0
H2378 H 0.65613 0.34015 0.44981 0.0
C2379 C 0.65858 0.39561 0.43329 0.0
C2380 C 0.89603 0.42766 0.65673 0.0
C2381 C 0.87732 0.43569 0.64378 0.0
H2382 H 0.90662 0.4069 0.6844 0.0
C2383 C 0.85505 0.4269 0.64692 0.0
H2384 H 0.91323 0.43451 0.65467 0.0
C2385 C 0.85107 0.41225 0.66458 0.0
C2386 C 0.8695 0.40558 0.67852 0.0
H2387 H 0.84031 0.43313 0.63724 0.0
H2388 H 0.83354 0.40685 0.66786 0.0
C2389 C 0.89219 0.41222 0.67381 0.0
C2390 C 0.60242 0.57067 0.18072 0.0
C2391 C 0.62208 0.56659 0.16771 0.0
H2392 H 0.58881 0.58728 0.20982 0.0
C2393 C 0.6428 0.57783 0.17298 0.0
H2394 H 0.58632 0.56201 0.17701 0.0
C2395 C 0.64446 0.59127 0.19213 0.0
C2396 C 0.62517 0.59454 0.2057 0.0
H2397 H 0.65828 0.57475 0.16338 0.0
H2398 H 0.66109 0.59836 0.19683 0.0
C2399 C 0.60384 0.58501 0.19943 0.0
C2400 C 0.54768 0.66016 0.89007 0.0
C2401 C 0.53196 0.65539 0.87275 0.0
H2402 H 0.57981 0.67548 0.89934 0.0
C2403 C 0.5376 0.66041 0.8507 0.0
H2404 H 0.54372 0.65595 0.90714 0.0
C2405 C 0.55798 0.67205 0.84623 0.0
C2406 C 0.57323 0.67781 0.86372 0.0
H2407 H 0.52566 0.65648 0.83714 0.0
H2408 H 0.56128 0.67749 0.82937 0.0
C2409 C 0.56844 0.67092 0.88552 0.0
C2410 C 0.59275 0.3555 0.12088 0.0
C2411 C 0.58613 0.35794 0.09835 0.0
H2412 H 0.60575 0.33254 0.14597 0.0
C2413 C 0.59293 0.34143 0.08282 0.0
H2414 H 0.58777 0.36813 0.13318 0.0
C2415 C 0.60372 0.32144 0.09013 0.0
C2416 C 0.60701 0.31763 0.11302 0.0
H2417 H 0.58784 0.34296 0.06544 0.0
H2418 H 0.60767 0.30819 0.07809 0.0
C2419 C 0.60255 0.33506 0.12831 0.0
C2420 C 0.92171 0.30633 0.37184 0.0
C2421 C 0.90605 0.29969 0.35488 0.0
H2422 H 0.95048 0.32759 0.38087 0.0
C2423 C 0.90644 0.31058 0.33421 0.0
H2424 H 0.92158 0.2982 0.388 0.0
C2425 C 0.92308 0.32701 0.33012 0.0
C2426 C 0.93928 0.33307 0.34676 0.0
H2427 H 0.89449 0.30579 0.32094 0.0
H2428 H 0.92353 0.33469 0.31376 0.0
C2429 C 0.93813 0.32312 0.36785 0.0
C2430 C 0.94938 0.67398 0.60937 0.0
C2431 C 0.95414 0.66406 0.6303 0.0
H2432 H 0.93071 0.7002 0.59143 0.0
C2433 C 0.94111 0.67098 0.64871 0.0
H2434 H 0.95897 0.66878 0.59481 0.0
C2435 C 0.92518 0.68883 0.64671 0.0
C2436 C 0.92168 0.6998 0.62623 0.0
H2437 H 0.94413 0.66355 0.665 0.0
H2438 H 0.91649 0.69491 0.6615 0.0
C2439 C 0.93307 0.69172 0.60731 0.0
C2440 C 0.54012 0.30934 0.63612 0.0
C2441 C 0.53375 0.31934 0.61569 0.0
H2442 H 0.56099 0.28363 0.65252 0.0
C2443 C 0.54498 0.3125 0.59626 0.0
H2444 H 0.53147 0.31435 0.65128 0.0
C2445 C 0.56176 0.29538 0.59693 0.0
C2446 C 0.56745 0.28432 0.61704 0.0
H2447 H 0.54035 0.32006 0.58034 0.0
H2448 H 0.56965 0.29031 0.5814 0.0
C2449 C 0.55678 0.2917 0.63676 0.0
C2450 C 0.9372 0.33006 0.90305 0.0
C2451 C 0.92923 0.31234 0.88923 0.0
H2452 H 0.96018 0.35827 0.90696 0.0
C2453 C 0.93833 0.31019 0.86771 0.0
H2454 H 0.93047 0.33222 0.91967 0.0
C2455 C 0.95513 0.32537 0.86022 0.0
C2456 C 0.96353 0.34278 0.87426 0.0
H2457 H 0.93257 0.29668 0.85669 0.0
H2458 H 0.96192 0.32315 0.84363 0.0
C2459 C 0.95426 0.34496 0.89574 0.0
C2460 C 0.89629 0.66833 0.15528 0.0
C2461 C 0.89813 0.67965 0.13489 0.0
H2462 H 0.91296 0.64567 0.17859 0.0
C2463 C 0.91746 0.67583 0.12149 0.0
H2464 H 0.88146 0.67115 0.16583 0.0
C2465 C 0.9355 0.66205 0.129 0.0
C2466 C 0.93418 0.65136 0.14968 0.0
H2467 H 0.91929 0.68447 0.10572 0.0
H2468 H 0.95086 0.66053 0.11899 0.0
C2469 C 0.9143 0.65406 0.16263 0.0
C2470 C 0.58853 0.66965 0.38296 0.0
C2471 C 0.57968 0.66319 0.40358 0.0
H2472 H 0.60342 0.69643 0.36424 0.0
C2473 C 0.58379 0.67678 0.42249 0.0
H2474 H 0.58533 0.65958 0.36807 0.0
C2475 C 0.59492 0.69765 0.42035 0.0
C2476 C 0.60109 0.70522 0.39919 0.0
H2477 H 0.57682 0.67212 0.43847 0.0
H2478 H 0.59715 0.70854 0.43483 0.0
C2479 C 0.59858 0.69088 0.38066 0.0
C2480 C 0.86834 0.58908 0.67938 0.0
C2481 C 0.84634 0.59747 0.68507 0.0
H2482 H 0.88772 0.56122 0.66566 0.0
C2483 C 0.82649 0.58549 0.67838 0.0
H2484 H 0.88393 0.59785 0.68471 0.0
C2485 C 0.82869 0.56474 0.66705 0.0
C2486 C 0.85075 0.55548 0.66317 0.0
H2487 H 0.8094 0.59157 0.68291 0.0
H2488 H 0.81324 0.55537 0.66244 0.0
C2489 C 0.87054 0.56798 0.66888 0.0
C2490 C 0.67491 0.58026 0.91454 0.0
C2491 C 0.68061 0.59918 0.90167 0.0
H2492 H 0.65421 0.56812 0.94125 0.0
C2493 C 0.66645 0.61872 0.90206 0.0
H2494 H 0.68586 0.56514 0.91456 0.0
C2495 C 0.64813 0.62026 0.91678 0.0
C2496 C 0.64441 0.6026 0.93191 0.0
H2497 H 0.67076 0.63363 0.8925 0.0
H2498 H 0.6387 0.63628 0.91801 0.0
C2499 C 0.65687 0.582 0.92977 0.0
C2500 C 0.67087 0.43881 0.16087 0.0
C2501 C 0.64766 0.4446 0.15612 0.0
H2502 H 0.6938 0.41559 0.17794 0.0
C2503 C 0.63013 0.42893 0.15999 0.0
H2504 H 0.68464 0.4507 0.15755 0.0
C2505 C 0.63555 0.40834 0.17036 0.0
C2506 C 0.65837 0.40388 0.17789 0.0
H2507 H 0.61222 0.43301 0.15585 0.0
H2508 H 0.62144 0.39725 0.17477 0.0
C2509 C 0.67618 0.41864 0.17209 0.0
C2510 C 0.8379 0.3905 0.45253 0.0
C2511 C 0.84624 0.3685 0.45792 0.0
H2512 H 0.81423 0.41041 0.43229 0.0
C2513 C 0.83902 0.34992 0.44479 0.0
H2514 H 0.8433 0.40518 0.46223 0.0
C2515 C 0.8223 0.35294 0.42803 0.0
C2516 C 0.81291 0.37463 0.42362 0.0
H2517 H 0.84511 0.33278 0.44839 0.0
H2518 H 0.81581 0.33809 0.4192 0.0
C2519 C 0.82147 0.39358 0.4353 0.0
C2520 C 0.87283 0.40546 0.80439 0.0
C2521 C 0.85091 0.39976 0.79564 0.0
H2522 H 0.89259 0.42943 0.82365 0.0
C2523 C 0.83131 0.41214 0.80256 0.0
H2524 H 0.88826 0.39642 0.79904 0.0
C2525 C 0.83376 0.43056 0.81732 0.0
C2526 C 0.85593 0.43736 0.82447 0.0
H2527 H 0.8143 0.40819 0.79579 0.0
H2528 H 0.81857 0.44043 0.8219 0.0
C2529 C 0.87536 0.42442 0.8183 0.0
C2530 C 0.84304 0.61697 0.07548 0.0
C2531 C 0.84565 0.59461 0.06728 0.0
H2532 H 0.82233 0.6398 0.09506 0.0
C2533 C 0.83242 0.57707 0.07619 0.0
H2534 H 0.85287 0.63086 0.06862 0.0
C2535 C 0.81547 0.58216 0.09182 0.0
C2536 C 0.81106 0.60492 0.09785 0.0
H2537 H 0.83398 0.55981 0.06984 0.0
H2538 H 0.80451 0.56862 0.09769 0.0
C2539 C 0.82543 0.62219 0.09031 0.0
C2540 C 0.64219 0.59992 0.33608 0.0
C2541 C 0.6605 0.60253 0.32123 0.0
H2542 H 0.62515 0.57713 0.35798 0.0
C2543 C 0.67905 0.58683 0.3216 0.0
H2544 H 0.6277 0.61182 0.33612 0.0
C2545 C 0.67779 0.56719 0.33458 0.0
C2546 C 0.65791 0.56319 0.34697 0.0
H2547 H 0.69336 0.58857 0.3103 0.0
H2548 H 0.69116 0.55418 0.33315 0.0
C2549 C 0.64068 0.58007 0.34857 0.0
C2550 C 0.64849 0.41832 0.56505 0.0
C2551 C 0.63428 0.3995 0.5606 0.0
H2552 H 0.68107 0.42953 0.57867 0.0
C2553 C 0.63951 0.37843 0.57052 0.0
H2554 H 0.64469 0.4347 0.55749 0.0
C2555 C 0.6607 0.37525 0.58142 0.0
C2556 C 0.67613 0.39341 0.58354 0.0
H2557 H 0.6288 0.36366 0.56735 0.0
H2558 H 0.66566 0.35826 0.58681 0.0
C2559 C 0.66933 0.41532 0.57684 0.0
C2560 C 0.68996 0.85392 0.57954 0.0
C2561 C 0.69403 0.87308 0.59299 0.0
H2562 H 0.67759 0.84174 0.54791 0.0
C2563 C 0.68651 0.89472 0.58587 0.0
H2564 H 0.696 0.83717 0.5847 0.0
C2565 C 0.67722 0.89746 0.56452 0.0
C2566 C 0.6746 0.87847 0.55055 0.0
H2567 H 0.68987 0.90979 0.59587 0.0
H2568 H 0.67256 0.91441 0.5588 0.0
C2569 C 0.68 0.85659 0.55846 0.0
C2570 C 0.19549 0.66827 0.42329 0.0
C2571 C 0.19743 0.64702 0.4128 0.0
H2572 H 0.17591 0.68902 0.44565 0.0
C2573 C 0.1807 0.63025 0.41604 0.0
H2574 H 0.20838 0.68131 0.4209 0.0
C2575 C 0.16275 0.63434 0.43076 0.0
C2576 C 0.16124 0.65538 0.44169 0.0
H2577 H 0.18213 0.61368 0.4081 0.0
H2578 H 0.15009 0.62122 0.43351 0.0
C2579 C 0.17717 0.67258 0.43743 0.0
C2580 C 0.61153 0.91227 0.69443 0.0
C2581 C 0.63394 0.90359 0.6984 0.0
H2582 H 0.59092 0.93702 0.67663 0.0
C2583 C 0.65226 0.91025 0.68499 0.0
H2584 H 0.59723 0.90719 0.70472 0.0
C2585 C 0.64846 0.92643 0.6684 0.0
C2586 C 0.62651 0.9367 0.66575 0.0
H2587 H 0.66961 0.90351 0.68785 0.0
H2588 H 0.66309 0.93219 0.65891 0.0
C2589 C 0.60791 0.92915 0.67841 0.0
C2590 C 0.31889 0.35461 0.91314 0.0
C2591 C 0.31049 0.37674 0.90835 0.0
H2592 H 0.33755 0.33327 0.93663 0.0
C2593 C 0.31725 0.39486 0.92217 0.0
H2594 H 0.31391 0.34031 0.9027 0.0
C2595 C 0.33015 0.39077 0.94152 0.0
C2596 C 0.33711 0.36853 0.94732 0.0
H2597 H 0.31126 0.41211 0.91886 0.0
H2598 H 0.33383 0.40503 0.9525 0.0
C2599 C 0.33232 0.35054 0.93251 0.0
C2600 C 0.39081 0.55193 0.67899 0.0
C2601 C 0.37026 0.54822 0.66675 0.0
H2602 H 0.40602 0.56598 0.70889 0.0
C2603 C 0.34914 0.55657 0.67478 0.0
H2604 H 0.4072 0.54523 0.67314 0.0
C2605 C 0.34832 0.56704 0.69557 0.0
C2606 C 0.36873 0.5703 0.70812 0.0
H2607 H 0.33303 0.55344 0.66582 0.0
H2608 H 0.33164 0.57224 0.70198 0.0
C2609 C 0.39011 0.56344 0.69942 0.0
C2610 C 0.83924 0.09781 0.06222 0.0
C2611 C 0.84608 0.11664 0.04973 0.0
H2612 H 0.81605 0.08508 0.08657 0.0
C2613 C 0.83574 0.13802 0.05352 0.0
H2614 H 0.84711 0.08118 0.05952 0.0
C2615 C 0.81744 0.14012 0.06848 0.0
C2616 C 0.80996 0.12104 0.08034 0.0
H2617 H 0.84079 0.15271 0.04393 0.0
H2618 H 0.80863 0.15642 0.0702 0.0
C2619 C 0.8216 0.10008 0.07773 0.0
C2620 C 0.60961 0.08539 0.82371 0.0
C2621 C 0.63208 0.09195 0.81814 0.0
H2622 H 0.58933 0.06302 0.84348 0.0
C2623 C 0.6511 0.08497 0.83121 0.0
H2624 H 0.59474 0.09091 0.8138 0.0
C2625 C 0.64784 0.07007 0.84883 0.0
C2626 C 0.62568 0.06147 0.8528 0.0
H2627 H 0.66849 0.09029 0.82725 0.0
H2628 H 0.66293 0.06354 0.85779 0.0
C2629 C 0.60646 0.06977 0.84075 0.0
C2630 C 0.89765 0.91313 0.29746 0.0
C2631 C 0.87641 0.90316 0.29168 0.0
H2632 H 0.91543 0.93568 0.32009 0.0
C2633 C 0.85774 0.90493 0.30623 0.0
H2634 H 0.91221 0.9119 0.28632 0.0
C2635 C 0.85986 0.91754 0.32586 0.0
C2636 C 0.88038 0.92935 0.3307 0.0
H2637 H 0.8412 0.89734 0.30199 0.0
H2638 H 0.84477 0.91962 0.33622 0.0
C2639 C 0.89951 0.92655 0.31673 0.0
C2640 C 0.45217 0.33588 0.10722 0.0
C2641 C 0.46779 0.3414 0.1244 0.0
H2642 H 0.42003 0.32024 0.09848 0.0
C2643 C 0.46212 0.33711 0.14661 0.0
H2644 H 0.45611 0.33957 0.09003 0.0
C2645 C 0.44174 0.32568 0.15147 0.0
C2646 C 0.42649 0.31937 0.1342 0.0
H2647 H 0.47395 0.34166 0.16007 0.0
H2648 H 0.43836 0.32095 0.16852 0.0
C2649 C 0.4314 0.32529 0.11213 0.0
C2650 C 0.40567 0.64335 0.87414 0.0
C2651 C 0.41282 0.6432 0.89667 0.0
H2652 H 0.39159 0.66347 0.84726 0.0
C2653 C 0.4066 0.66137 0.91059 0.0
H2654 H 0.41022 0.62943 0.86307 0.0
C2655 C 0.39552 0.68047 0.90161 0.0
C2656 C 0.39131 0.68179 0.87857 0.0
H2657 H 0.41212 0.66164 0.92792 0.0
H2658 H 0.39181 0.69488 0.91239 0.0
C2659 C 0.3955 0.66288 0.86497 0.0
C2660 C 0.04665 0.69285 0.65894 0.0
C2661 C 0.04922 0.67171 0.64818 0.0
H2662 H 0.06159 0.72527 0.66631 0.0
C2663 C 0.06953 0.66704 0.63632 0.0
H2664 H 0.03119 0.69685 0.66825 0.0
C2665 C 0.08706 0.68328 0.63537 0.0
C2666 C 0.08444 0.70438 0.64622 0.0
H2667 H 0.07198 0.65079 0.628 0.0
H2668 H 0.10252 0.67941 0.62601 0.0
C2669 C 0.06411 0.70904 0.65798 0.0
C2670 C 0.06924 0.30491 0.34853 0.0
C2671 C 0.07497 0.29557 0.36939 0.0
H2672 H 0.04838 0.32867 0.33018 0.0
C2673 C 0.06527 0.30496 0.38862 0.0
H2674 H 0.07666 0.29791 0.33346 0.0
C2675 C 0.04864 0.32248 0.38674 0.0
C2676 C 0.04178 0.33086 0.36562 0.0
H2677 H 0.06936 0.29782 0.40484 0.0
H2678 H 0.04059 0.32883 0.40174 0.0
C2679 C 0.05293 0.32245 0.34665 0.0
C2680 C 0.44893 0.68129 0.40048 0.0
C2681 C 0.46057 0.6754 0.38098 0.0
H2682 H 0.42384 0.70255 0.41589 0.0
C2683 C 0.45416 0.68601 0.36085 0.0
H2684 H 0.45351 0.67319 0.41616 0.0
C2685 C 0.43725 0.70347 0.36067 0.0
C2686 C 0.42638 0.71013 0.38055 0.0
H2687 H 0.46308 0.68174 0.34563 0.0
H2688 H 0.43325 0.71216 0.34519 0.0
C2689 C 0.43192 0.69822 0.40025 0.0
C2690 C 0.05023 0.66216 0.13815 0.0
C2691 C 0.0336 0.65292 0.12336 0.0
H2692 H 0.07954 0.68445 0.14205 0.0
C2693 C 0.03462 0.6587 0.10067 0.0
H2694 H 0.04999 0.65803 0.1557 0.0
C2695 C 0.05136 0.67355 0.09297 0.0
C2696 C 0.06762 0.68323 0.10768 0.0
H2697 H 0.02237 0.65178 0.08864 0.0
H2698 H 0.05139 0.67762 0.07539 0.0
C2699 C 0.06707 0.67731 0.13037 0.0
C2700 C 0.09145 0.33205 0.87913 0.0
C2701 C 0.10717 0.32342 0.86356 0.0
H2702 H 0.05983 0.35041 0.88395 0.0
C2703 C 0.10579 0.33047 0.84134 0.0
H2704 H 0.09251 0.32706 0.89647 0.0
C2705 C 0.08707 0.34382 0.83424 0.0
C2706 C 0.0698 0.35005 0.84936 0.0
H2707 H 0.11795 0.32413 0.82916 0.0
H2708 H 0.08537 0.34796 0.81673 0.0
C2709 C 0.0727 0.34522 0.872 0.0
C2710 C 0.39858 0.29823 0.57945 0.0
C2711 C 0.39286 0.29128 0.60093 0.0
H2712 H 0.41641 0.32309 0.56026 0.0
C2713 C 0.39577 0.30613 0.61901 0.0
H2714 H 0.39599 0.28696 0.5653 0.0
C2715 C 0.40597 0.32719 0.61594 0.0
C2716 C 0.41446 0.33298 0.59496 0.0
H2717 H 0.39109 0.30109 0.63566 0.0
H2718 H 0.40958 0.33765 0.63049 0.0
C2719 C 0.40977 0.31894 0.57651 0.0
C2720 C 0.17364 0.41144 0.3178 0.0
C2721 C 0.15411 0.39888 0.31128 0.0
H2722 H 0.18609 0.44206 0.33339 0.0
C2723 C 0.13189 0.40683 0.31682 0.0
H2724 H 0.19088 0.40571 0.31336 0.0
C2725 C 0.12913 0.428 0.32706 0.0
C2726 C 0.14859 0.44104 0.33262 0.0
H2727 H 0.11653 0.39761 0.31161 0.0
H2728 H 0.1118 0.43437 0.33023 0.0
C2729 C 0.17089 0.43227 0.32886 0.0
C2730 C 0.34027 0.41674 0.06632 0.0
C2731 C 0.35369 0.3967 0.06459 0.0
H2732 H 0.31061 0.43263 0.08126 0.0
C2733 C 0.35082 0.37917 0.08006 0.0
H2734 H 0.34228 0.4305 0.05455 0.0
C2735 C 0.33246 0.38018 0.09478 0.0
C2736 C 0.31746 0.39911 0.09482 0.0
H2737 H 0.36097 0.36357 0.07911 0.0
H2738 H 0.32887 0.3653 0.10467 0.0
C2739 C 0.32223 0.41799 0.08155 0.0
C2740 C 0.33106 0.56356 0.84162 0.0
C2741 C 0.35459 0.55807 0.84516 0.0
H2742 H 0.30689 0.58526 0.82423 0.0
C2743 C 0.37162 0.57367 0.8395 0.0
H2744 H 0.31762 0.55182 0.8463 0.0
C2745 C 0.36531 0.59346 0.82808 0.0
C2746 C 0.34208 0.59703 0.8213 0.0
H2747 H 0.38981 0.5699 0.84264 0.0
H2748 H 0.37899 0.60423 0.82203 0.0
C2749 C 0.32483 0.58283 0.82937 0.0
C2750 C 0.17543 0.60385 0.56174 0.0
C2751 C 0.18388 0.62291 0.57333 0.0
H2752 H 0.15367 0.59195 0.53488 0.0
C2753 C 0.17443 0.64453 0.5687 0.0
H2754 H 0.18269 0.58705 0.56493 0.0
C2755 C 0.15769 0.64735 0.55189 0.0
C2756 C 0.15052 0.62864 0.53893 0.0
H2757 H 0.1808 0.65947 0.57745 0.0
H2758 H 0.15152 0.66443 0.54815 0.0
C2759 C 0.15901 0.60673 0.54446 0.0
C2760 C 0.16718 0.56758 0.18197 0.0
C2761 C 0.1454 0.56172 0.17311 0.0
H2762 H 0.18581 0.5896 0.20447 0.0
C2763 C 0.12624 0.57599 0.17695 0.0
H2764 H 0.18214 0.55669 0.17916 0.0
C2765 C 0.12851 0.59524 0.19054 0.0
C2766 C 0.1498 0.59997 0.20118 0.0
H2767 H 0.10931 0.57174 0.17014 0.0
H2768 H 0.11313 0.60525 0.19422 0.0
C2769 C 0.16929 0.5864 0.19629 0.0
C2770 C 0.17197 0.39055 0.90329 0.0
C2771 C 0.19087 0.40531 0.90293 0.0
H2772 H 0.14075 0.38166 0.91971 0.0
C2773 C 0.19084 0.42506 0.91607 0.0
H2774 H 0.17183 0.37523 0.89313 0.0
C2775 C 0.17319 0.42873 0.93134 0.0
C2776 C 0.15552 0.41265 0.93349 0.0
H2777 H 0.20537 0.43661 0.91584 0.0
H2778 H 0.17461 0.44291 0.94289 0.0
C2779 C 0.15413 0.39438 0.91832 0.0
C2780 C 0.31811 0.42629 0.65949 0.0
C2781 C 0.33821 0.43193 0.6481 0.0
H2782 H 0.30331 0.40375 0.6832 0.0
C2783 C 0.35673 0.41636 0.64711 0.0
H2784 H 0.30372 0.43826 0.6604 0.0
C2785 C 0.35623 0.39638 0.65945 0.0
C2786 C 0.33766 0.39247 0.67367 0.0
H2787 H 0.37246 0.42056 0.63853 0.0
H2788 H 0.37165 0.38568 0.66005 0.0
C2789 C 0.31787 0.40657 0.67241 0.0
C2790 C 0.34649 0.57984 0.4319 0.0
C2791 C 0.36053 0.59857 0.43714 0.0
H2792 H 0.31426 0.5689 0.41731 0.0
C2793 C 0.35524 0.62 0.42803 0.0
H2794 H 0.35033 0.5632 0.43888 0.0
C2795 C 0.33422 0.62344 0.41691 0.0
C2796 C 0.31901 0.60523 0.41385 0.0
H2797 H 0.36581 0.63471 0.43189 0.0
H2798 H 0.32922 0.64056 0.41199 0.0
C2799 C 0.32584 0.58313 0.4199 0.0
C2800 C 0.30871 0.10039 0.41535 0.0
C2801 C 0.30062 0.12192 0.40848 0.0
H2802 H 0.32387 0.08088 0.44197 0.0
C2803 C 0.30452 0.14109 0.42195 0.0
H2804 H 0.30545 0.08532 0.40533 0.0
C2805 C 0.31511 0.13854 0.44276 0.0
C2806 C 0.32127 0.11675 0.4504 0.0
H2807 H 0.29803 0.15774 0.41698 0.0
H2808 H 0.31752 0.15341 0.4533 0.0
C2809 C 0.31864 0.09775 0.43645 0.0
C2810 C 0.81693 0.32502 0.55752 0.0
C2811 C 0.83364 0.34173 0.55418 0.0
H2812 H 0.78515 0.3168 0.57333 0.0
C2813 C 0.83273 0.36238 0.56586 0.0
H2814 H 0.81771 0.30885 0.54873 0.0
C2815 C 0.8147 0.36657 0.58047 0.0
C2816 C 0.7973 0.35031 0.58292 0.0
H2817 H 0.84598 0.37508 0.56384 0.0
H2818 H 0.81382 0.38284 0.58906 0.0
C2819 C 0.79855 0.32945 0.57158 0.0
C2820 C 0.34213 0.08519 0.31326 0.0
C2821 C 0.36068 0.09256 0.30051 0.0
H2822 H 0.33123 0.06302 0.33913 0.0
C2823 C 0.38328 0.08492 0.30546 0.0
H2824 H 0.32462 0.09117 0.3097 0.0
C2825 C 0.387 0.06837 0.32177 0.0
C2826 C 0.36825 0.06012 0.33379 0.0
H2827 H 0.39778 0.09058 0.29572 0.0
H2828 H 0.40426 0.0613 0.3243 0.0
C2829 C 0.34597 0.06935 0.33015 0.0
C2830 C 0.66579 0.64681 0.06512 0.0
C2831 C 0.66361 0.62991 0.04859 0.0
H2832 H 0.68217 0.65617 0.0963 0.0
C2833 C 0.67357 0.6083 0.05239 0.0
H2834 H 0.65818 0.66356 0.06258 0.0
C2835 C 0.68676 0.604 0.07149 0.0
C2836 C 0.69065 0.62129 0.08722 0.0
H2837 H 0.67185 0.59476 0.04016 0.0
H2838 H 0.69494 0.58739 0.07332 0.0
C2839 C 0.6794 0.64254 0.08437 0.0
C2840 C 0.60603 0.44168 0.31753 0.0
C2841 C 0.62604 0.44521 0.33065 0.0
H2842 H 0.592 0.42701 0.2874 0.0
C2843 C 0.64717 0.43539 0.32431 0.0
H2844 H 0.58965 0.44945 0.32209 0.0
C2845 C 0.64872 0.42387 0.30411 0.0
C2846 C 0.62897 0.42107 0.29053 0.0
H2847 H 0.66288 0.43828 0.334 0.0
H2848 H 0.66553 0.41776 0.2988 0.0
C2849 C 0.6074 0.42914 0.29772 0.0
C2850 C 0.18089 0.85489 0.92631 0.0
C2851 C 0.18932 0.87456 0.91607 0.0
H2852 H 0.15742 0.84146 0.9503 0.0
C2853 C 0.17915 0.89583 0.92088 0.0
H2854 H 0.18854 0.83834 0.92284 0.0
C2855 C 0.16213 0.89766 0.93701 0.0
C2856 C 0.15444 0.87818 0.94795 0.0
H2857 H 0.18539 0.91126 0.91326 0.0
H2858 H 0.15541 0.91439 0.94138 0.0
C2859 C 0.16319 0.85666 0.94194 0.0
C2860 C 0.35632 0.92488 0.14506 0.0
C2861 C 0.37839 0.93432 0.14251 0.0
H2862 H 0.33493 0.90414 0.16545 0.0
C2863 C 0.39711 0.9264 0.15552 0.0
H2864 H 0.34158 0.93098 0.1353 0.0
C2865 C 0.39335 0.91062 0.17231 0.0
C2866 C 0.37074 0.90352 0.17663 0.0
H2867 H 0.41416 0.93372 0.15387 0.0
H2868 H 0.40772 0.90555 0.1831 0.0
C2869 C 0.35239 0.90989 0.16244 0.0
C2870 C 0.1433 0.09051 0.69348 0.0
C2871 C 0.12376 0.09364 0.70674 0.0
H2872 H 0.15745 0.07467 0.66457 0.0
C2873 C 0.10239 0.08472 0.69977 0.0
H2874 H 0.15995 0.09729 0.69864 0.0
C2875 C 0.10109 0.07107 0.68059 0.0
C2876 C 0.12098 0.067 0.66792 0.0
H2877 H 0.08716 0.08698 0.7099 0.0
H2878 H 0.08487 0.06289 0.67626 0.0
C2879 C 0.14182 0.07768 0.67395 0.0
C2880 C 0.94054 0.12997 0.31652 0.0
C2881 C 0.95894 0.11409 0.31508 0.0
H2882 H 0.91062 0.14513 0.30101 0.0
C2883 C 0.96252 0.10313 0.29444 0.0
H2884 H 0.93747 0.13932 0.3318 0.0
C2885 C 0.94696 0.10689 0.27628 0.0
C2886 C 0.92773 0.12173 0.27854 0.0
H2887 H 0.97656 0.0909 0.29267 0.0
H2888 H 0.94916 0.09722 0.26105 0.0
C2889 C 0.9252 0.1336 0.29869 0.0
C2890 C 0.13277 0.74081 0.52085 0.0
C2891 C 0.11183 0.72866 0.52094 0.0
H2892 H 0.15722 0.76035 0.54014 0.0
C2893 C 0.09717 0.73073 0.53915 0.0
H2894 H 0.1443 0.73956 0.50682 0.0
C2895 C 0.10468 0.74236 0.55813 0.0
C2896 C 0.12684 0.75219 0.55905 0.0
H2897 H 0.08093 0.72163 0.53957 0.0
H2898 H 0.09371 0.74239 0.57262 0.0
C2899 C 0.14025 0.75261 0.53986 0.0
C2900 C 0.54416 0.90002 0.77704 0.0
C2901 C 0.5245 0.88618 0.77606 0.0
H2902 H 0.57986 0.90336 0.76888 0.0
C2903 C 0.52469 0.86673 0.7622 0.0
H2904 H 0.54456 0.91508 0.78754 0.0
C2905 C 0.545 0.86002 0.75136 0.0
C2906 C 0.56537 0.87253 0.75456 0.0
H2907 H 0.50974 0.85573 0.76118 0.0
H2908 H 0.54525 0.8442 0.74198 0.0
C2909 C 0.56447 0.89312 0.76658 0.0
C2910 C 0.37247 0.26932 0.0357 0.0
C2911 C 0.38828 0.27014 0.05381 0.0
H2912 H 0.36103 0.28492 0.00489 0.0
C2913 C 0.40725 0.28496 0.05242 0.0
H2914 H 0.35755 0.25829 0.03629 0.0
C2915 C 0.4093 0.29992 0.0345 0.0
C2916 C 0.39259 0.30043 0.01728 0.0
H2917 H 0.41988 0.28604 0.06592 0.0
H2918 H 0.42311 0.31231 0.03492 0.0
C2919 C 0.37453 0.28447 0.01763 0.0
C2920 C 0.96713 0.86966 0.20338 0.0
C2921 C 0.9645 0.85689 0.18358 0.0
H2922 H 0.95283 0.87794 0.23547 0.0
C2923 C 0.94755 0.8398 0.18281 0.0
H2924 H 0.97992 0.88302 0.20448 0.0
C2925 C 0.93243 0.83677 0.20045 0.0
C2926 C 0.93381 0.85061 0.21952 0.0
H2927 H 0.94511 0.82943 0.16799 0.0
H2928 H 0.91856 0.82455 0.19854 0.0
C2929 C 0.95177 0.86663 0.22119 0.0
C2930 C 0.40284 0.7237 0.48514 0.0
C2931 C 0.38242 0.72691 0.47236 0.0
H2932 H 0.42271 0.70092 0.50615 0.0
C2933 C 0.36497 0.71049 0.47321 0.0
H2934 H 0.41661 0.7361 0.48467 0.0
C2935 C 0.36872 0.69028 0.48494 0.0
C2936 C 0.38974 0.68637 0.49648 0.0
H2937 H 0.34912 0.71244 0.46346 0.0
H2938 H 0.35555 0.67725 0.4842 0.0
C2939 C 0.40637 0.70362 0.49737 0.0
C2940 C 0.54333 0.14074 0.75566 0.0
C2941 C 0.56189 0.12523 0.75704 0.0
H2942 H 0.5111 0.14897 0.73927 0.0
C2943 C 0.56043 0.10411 0.74607 0.0
H2944 H 0.54428 0.15714 0.76397 0.0
C2945 C 0.54143 0.09925 0.73235 0.0
C2946 C 0.52399 0.11571 0.7291 0.0
H2947 H 0.57463 0.0919 0.74709 0.0
H2948 H 0.54141 0.08346 0.72293 0.0
C2949 C 0.52449 0.13607 0.74155 0.0
C2950 C 0.13862 0.29465 0.98097 0.0
C2951 C 0.14617 0.31718 0.9777 0.0
H2952 H 0.13719 0.26036 0.96769 0.0
C2953 C 0.16127 0.32121 0.95998 0.0
H2954 H 0.12708 0.29088 0.99448 0.0
C2955 C 0.16735 0.30386 0.94511 0.0
C2956 C 0.15851 0.28175 0.94723 0.0
H2957 H 0.16792 0.33812 0.95706 0.0
H2958 H 0.17803 0.30813 0.93107 0.0
C2959 C 0.14465 0.27709 0.96578 0.0
C2960 C 0.27129 0.98515 0.13438 0.0
C2961 C 0.28846 0.98333 0.11794 0.0
H2962 H 0.2432 0.96843 0.15117 0.0
C2963 C 0.28877 0.96375 0.10447 0.0
H2964 H 0.27096 -0.0002 0.1454 0.0
C2965 C 0.27338 0.94596 0.10791 0.0
C2966 C 0.25703 0.94687 0.12509 0.0
H2967 H 0.30189 0.96164 0.09188 0.0
H2968 H 0.2749 0.93098 0.09739 0.0
C2969 C 0.25555 0.96709 0.13783 0.0
C2970 C 0.27853 0.00463 0.34949 0.0
C2971 C 0.28736 1e-05 0.37103 0.0
H2972 H 0.25628 0.02599 0.3292 0.0
C2973 C 0.27748 0.01127 0.38924 0.0
H2974 H 0.28638 0.99663 0.33512 0.0
C2975 C 0.26065 0.02835 0.3858 0.0
C2976 C 0.25317 0.03426 0.36412 0.0
H2977 H 0.28445 0.00858 0.4059 0.0
H2978 H 0.2548 0.03819 0.39999 0.0
C2979 C 0.26137 0.02147 0.34606 0.0
C2980 C 0.229 0.01293 0.62612 0.0
C2981 C 0.20955 0.01051 0.63959 0.0
H2982 H 0.26001 0.03185 0.62086 0.0
C2983 C 0.20975 0.02029 0.66104 0.0
H2984 H 0.2293 0.0055 0.60958 0.0
C2985 C 0.22717 0.03531 0.66741 0.0
C2986 C 0.24482 0.04034 0.65261 0.0
H2987 H 0.19517 0.01828 0.672 0.0
H2988 H 0.22532 0.045 0.68271 0.0
C2989 C 0.24667 0.02783 0.63268 0.0
C2990 C 0.24437 0.9615 0.90691 0.0
C2991 C 0.2524 0.95517 0.88571 0.0
H2992 H 0.21957 0.98118 0.92543 0.0
C2993 C 0.24384 0.96687 0.86696 0.0
H2994 H 0.25044 0.95243 0.9216 0.0
C2995 C 0.22573 0.98276 0.86912 0.0
C2996 C 0.21642 0.98767 0.89012 0.0
H2997 H 0.24931 0.96197 0.85042 0.0
H2998 H 0.21792 0.99007 0.85422 0.0
C2999 C 0.22667 0.97785 0.90913 0.0
C3000 C 0.63894 0.23553 0.01735 0.0
C3001 C 0.61659 0.22615 0.01588 0.0
H3002 H 0.66393 0.25254 0.03833 0.0
C3003 C 0.60069 0.23078 0.03272 0.0
H3004 H 0.6515 0.23224 0.00448 0.0
C3005 C 0.60794 0.24191 0.05207 0.0
C3006 C 0.63105 0.24888 0.05468 0.0
H3007 H 0.58334 0.22391 0.03194 0.0
H3008 H 0.5958 0.24383 0.06556 0.0
C3009 C 0.64614 0.24697 0.03672 0.0
C3010 C 0.04755 0.35942 0.24811 0.0
C3011 C 0.06794 0.37143 0.25268 0.0
H3012 H 0.01197 0.35494 0.25666 0.0
C3013 C 0.06696 0.39126 0.2659 0.0
H3014 H 0.04787 0.34422 0.2378 0.0
C3015 C 0.0464 0.39776 0.27617 0.0
C3016 C 0.02667 0.38422 0.27372 0.0
H3017 H 0.08242 0.40111 0.26928 0.0
H3018 H 0.04664 0.41203 0.28768 0.0
C3019 C 0.02703 0.36568 0.25875 0.0
C3020 C 0.87633 0.78402 0.51676 0.0
C3021 C 0.89469 0.79963 0.51667 0.0
H3022 H 0.85841 0.75846 0.53534 0.0
C3023 C 0.91125 0.79878 0.53398 0.0
H3024 H 0.86296 0.78478 0.5039 0.0
C3025 C 0.9086 0.78401 0.55192 0.0
C3026 C 0.88915 0.76978 0.55317 0.0
H3027 H 0.92531 0.81091 0.53455 0.0
H3028 H 0.92105 0.78488 0.56558 0.0
C3029 C 0.87363 0.76909 0.53485 0.0
C3030 C 0.04069 0.63441 0.25556 0.0
C3031 C 0.06099 0.62118 0.25581 0.0
H3032 H 0.00761 0.63994 0.23977 0.0
C3033 C 0.06187 0.60071 0.24359 0.0
H3034 H 0.03975 0.65023 0.2649 0.0
C3035 C 0.04354 0.59466 0.22951 0.0
C3036 C 0.02434 0.60925 0.22726 0.0
H3037 H 0.07739 0.59013 0.24383 0.0
H3038 H 0.04534 0.5797 0.219 0.0
C3039 C 0.02243 0.62852 0.24119 0.0
C3040 C 0.44846 0.33942 0.68235 0.0
C3041 C 0.46497 0.35693 0.68324 0.0
H3042 H 0.41964 0.32352 0.69778 0.0
C3043 C 0.46707 0.36977 0.70305 0.0
H3044 H 0.44643 0.329 0.66752 0.0
C3045 C 0.45158 0.36638 0.72073 0.0
C3046 C 0.43398 0.34997 0.71888 0.0
H3047 H 0.47948 0.38346 0.70425 0.0
H3048 H 0.45219 0.37775 0.73498 0.0
C3049 C 0.43321 0.33605 0.69984 0.0
C3050 C 0.05542 0.8682 0.68033 0.0
C3051 C 0.03762 0.88473 0.68182 0.0
H3052 H 0.08485 0.85199 0.69572 0.0
C3053 C 0.03454 0.89579 0.7025 0.0
H3054 H 0.05809 0.85878 0.66502 0.0
C3055 C 0.05003 0.89146 0.72062 0.0
C3056 C 0.06868 0.87591 0.71832 0.0
H3057 H 0.02099 0.90854 0.70432 0.0
H3058 H 0.04828 0.90124 0.73584 0.0
C3059 C 0.07068 0.86399 0.69813 0.0
C3060 C 0.88144 0.2634 0.43377 0.0
C3061 C 0.86053 0.25147 0.43537 0.0
H3062 H 0.90729 0.28303 0.45061 0.0
C3063 C 0.85141 0.24715 0.45637 0.0
H3064 H 0.88933 0.2662 0.4178 0.0
C3065 C 0.86182 0.25684 0.47531 0.0
C3066 C 0.88164 0.27048 0.47334 0.0
H3067 H 0.83561 0.23751 0.45798 0.0
H3068 H 0.85347 0.255 0.49123 0.0
C3069 C 0.89206 0.27262 0.45261 0.0
C3070 C 0.43017 0.10315 0.23152 0.0
C3071 C 0.42953 0.12277 0.24508 0.0
H3072 H 0.45021 0.08227 0.20962 0.0
C3073 C 0.4502 0.13411 0.25017 0.0
H3074 H 0.41449 0.09377 0.22776 0.0
C3075 C 0.47071 0.12748 0.2397 0.0
C3076 C 0.47077 0.10925 0.22436 0.0
H3077 H 0.45016 0.1491 0.26076 0.0
H3078 H 0.48603 0.13777 0.24219 0.0
C3079 C 0.4507 0.0963 0.22141 0.0
C3080 C 0.58858 0.69905 0.96472 0.0
C3081 C 0.60533 0.69796 0.98187 0.0
H3082 H 0.57855 0.7132 0.93328 0.0
C3083 C 0.62384 0.71341 0.98164 0.0
H3084 H 0.57442 0.68705 0.96424 0.0
C3085 C 0.62643 0.72846 0.96359 0.0
C3086 C 0.61066 0.72802 0.94545 0.0
H3087 H 0.63735 0.71247 0.99434 0.0
H3088 H 0.64171 0.73899 0.96299 0.0
C3089 C 0.59115 0.7139 0.94682 0.0
C3090 C 0.03109 0.12735 0.79346 0.0
C3091 C 0.0332 0.1403 0.81319 0.0
H3092 H 0.04615 0.11897 0.76173 0.0
C3093 C 0.04992 0.15759 0.81417 0.0
H3094 H 0.01849 0.11382 0.79223 0.0
C3095 C 0.06542 0.16059 0.79685 0.0
C3096 C 0.0646 0.14655 0.77791 0.0
H3097 H 0.05194 0.16808 0.82896 0.0
H3098 H 0.07913 0.17296 0.79893 0.0
C3099 C 0.0468 0.13039 0.77595 0.0
C3100 C 0.63316 0.28637 0.52831 0.0
C3101 C 0.61646 0.26917 0.52853 0.0
H3102 H 0.64175 0.31982 0.51726 0.0
C3103 C 0.59656 0.2714 0.5148 0.0
H3104 H 0.64858 0.28521 0.5388 0.0
C3105 C 0.59282 0.29117 0.50211 0.0
C3106 C 0.60866 0.30913 0.50346 0.0
H3107 H 0.58335 0.25842 0.51478 0.0
H3108 H 0.57688 0.29304 0.49249 0.0
C3109 C 0.62916 0.30626 0.51612 0.0
C3110 C 0.44156 0.89163 0.24837 0.0
C3111 C 0.439 0.86979 0.2391 0.0
H3112 H 0.46093 0.91273 0.27082 0.0
C3113 C 0.45634 0.85326 0.24235 0.0
H3114 H 0.42827 0.9046 0.24585 0.0
C3115 C 0.47486 0.85779 0.25688 0.0
C3116 C 0.47615 0.87894 0.26792 0.0
H3117 H 0.45449 0.8363 0.23536 0.0
H3118 H 0.48714 0.84423 0.26072 0.0
C3119 C 0.4602 0.89628 0.26257 0.0
C3120 C 0.84899 0.72121 0.03262 0.0
C3121 C 0.83613 0.71594 0.0517 0.0
H3122 H 0.86568 0.70822 0.00307 0.0
C3123 C 0.82795 0.69363 0.0539 0.0
H3124 H 0.85594 0.73814 0.03064 0.0
C3125 C 0.83369 0.67667 0.0385 0.0
C3126 C 0.84793 0.68127 0.02024 0.0
H3127 H 0.81809 0.68891 0.06836 0.0
H3128 H 0.82754 0.65957 0.04147 0.0
C3129 C 0.85479 0.70401 0.01696 0.0
C3130 C 0.73914 0.0369 0.89607 0.0
C3131 C 0.74579 0.04448 0.87488 0.0
H3132 H 0.71769 0.01442 0.91483 0.0
C3133 C 0.73731 0.03282 0.85603 0.0
H3134 H 0.74524 0.04568 0.91092 0.0
C3135 C 0.72112 0.0152 0.8583 0.0
C3136 C 0.71367 0.00831 0.87948 0.0
H3137 H 0.74178 0.03846 0.83951 0.0
H3138 H 0.71341 0.00779 0.84341 0.0
C3139 C 0.72353 0.01883 0.89836 0.0
C3140 C 0.71722 0.98987 0.65206 0.0
C3141 C 0.70905 0.99535 0.63049 0.0
H3142 H 0.73877 0.96766 0.67212 0.0
C3143 C 0.7193 0.98465 0.61215 0.0
H3144 H 0.70909 0.99746 0.66649 0.0
C3145 C 0.73585 0.96729 0.61541 0.0
C3146 C 0.74274 0.96061 0.63703 0.0
H3147 H 0.71282 0.98803 0.59544 0.0
H3148 H 0.74201 0.95788 0.60106 0.0
C3149 C 0.73414 0.97279 0.65531 0.0
C3150 C 0.75038 0.96482 0.36354 0.0
C3151 C 0.7532 0.95157 0.34417 0.0
H3152 H 0.76689 0.98746 0.38698 0.0
C3153 C 0.77213 0.95538 0.33051 0.0
H3154 H 0.736 0.96173 0.37449 0.0
C3155 C 0.78974 0.96974 0.3377 0.0
C3156 C 0.78865 0.98035 0.35871 0.0
H3157 H 0.7747 0.94511 0.31568 0.0
H3158 H 0.80518 0.97087 0.32773 0.0
C3159 C 0.76816 0.97924 0.37085 0.0
C3160 C 0.75715 0.0292 0.13318 0.0
C3161 C 0.74683 0.03906 0.11423 0.0
H3162 H 0.78429 0.00741 0.14581 0.0
C3163 C 0.75313 0.03099 0.09305 0.0
H3164 H 0.75303 0.03558 0.14963 0.0
C3165 C 0.77086 0.01466 0.09081 0.0
C3166 C 0.78294 0.00673 0.10973 0.0
H3167 H 0.74578 0.0388 0.07819 0.0
H3168 H 0.77659 0.01001 0.07429 0.0
C3169 C 0.77523 0.01332 0.13095 0.0
C3170 C 0.39833 0.77004 0.95343 0.0
C3171 C 0.38497 0.76969 0.97263 0.0
H3172 H 0.39987 0.76214 0.91884 0.0
C3173 C 0.3641 0.75744 0.97257 0.0
H3174 H 0.41448 0.7793 0.95305 0.0
C3175 C 0.35553 0.74772 0.95285 0.0
C3176 C 0.36771 0.7504 0.93308 0.0
H3177 H 0.35352 0.75692 0.9873 0.0
H3178 H 0.33881 0.7395 0.95277 0.0
C3179 C 0.3897 0.76059 0.93377 0.0
C3180 C 0.95527 0.59992 0.72368 0.0
C3181 C 0.97442 0.61443 0.7245 0.0
H3182 H 0.9196 0.59563 0.73158 0.0
C3183 C 0.97343 0.63419 0.73788 0.0
H3184 H 0.95548 0.58459 0.71355 0.0
C3185 C 0.95278 0.64049 0.74839 0.0
C3186 C 0.9329 0.62724 0.74529 0.0
H3187 H 0.98797 0.64571 0.73876 0.0
H3188 H 0.95188 0.65652 0.75738 0.0
C3189 C 0.93462 0.6064 0.73378 0.0
C3190 C 0.09126 0.21072 0.44491 0.0
C3191 C 0.11038 0.22536 0.44354 0.0
H3192 H 0.07511 0.18356 0.46241 0.0
C3193 C 0.12622 0.22603 0.46163 0.0
H3194 H 0.07862 0.20979 0.43141 0.0
C3195 C 0.12401 0.2109 0.47969 0.0
C3196 C 0.10579 0.19513 0.48001 0.0
H3197 H 0.14124 0.23691 0.46103 0.0
H3198 H 0.1375 0.21031 0.49243 0.0
C3199 C 0.08907 0.1958 0.46281 0.0
C3200 C 0.93994 0.39219 0.74947 0.0
C3201 C 0.93771 0.3705 0.73978 0.0
H3202 H 0.95904 0.4132 0.77225 0.0
C3203 C 0.95524 0.35413 0.74288 0.0
H3204 H 0.92649 0.40503 0.74714 0.0
C3205 C 0.97369 0.35867 0.75752 0.0
C3206 C 0.97476 0.3797 0.76883 0.0
H3207 H 0.95363 0.33726 0.73562 0.0
H3208 H 0.98617 0.34522 0.76115 0.0
C3209 C 0.95852 0.39687 0.76377 0.0
C3210 C 0.54931 0.65472 0.31513 0.0
C3211 C 0.53208 0.63792 0.3137 0.0
H3212 H 0.57899 0.6697 0.30039 0.0
C3213 C 0.52988 0.62532 0.29375 0.0
H3214 H 0.55143 0.66495 0.33007 0.0
C3215 C 0.54584 0.62831 0.2764 0.0
C3216 C 0.56403 0.64401 0.2788 0.0
H3217 H 0.51692 0.61218 0.29216 0.0
H3218 H 0.54494 0.61729 0.2619 0.0
C3219 C 0.56506 0.65761 0.29802 0.0
C3220 C 0.42559 0.63288 0.80023 0.0
C3221 C 0.42818 0.62077 0.78022 0.0
H3222 H 0.43781 0.63912 0.83327 0.0
C3223 C 0.44743 0.6059 0.77822 0.0
H3224 H 0.411 0.64445 0.80238 0.0
C3225 C 0.46295 0.60241 0.79647 0.0
C3226 C 0.45934 0.61367 0.81696 0.0
H3227 H 0.44969 0.59604 0.76311 0.0
H3228 H 0.47702 0.59018 0.79488 0.0
C3229 C 0.4409 0.62953 0.81814 0.0
C3230 C 0.90318 0.2036 0.9947 0.0
C3231 C 0.88836 0.18491 0.99207 0.0
H3232 H 0.91158 0.23724 0.98354 0.0
C3233 C 0.86847 0.18718 0.97842 0.0
H3234 H 0.91863 0.20224 0.00511 0.0
C3235 C 0.86407 0.2073 0.96668 0.0
C3236 C 0.87979 0.22538 0.96789 0.0
H3237 H 0.85665 0.17308 0.97628 0.0
H3238 H 0.84916 0.20807 0.9555 0.0
C3239 C 0.89909 0.22361 0.98244 0.0
C3240 C 0.65999 0.81887 0.46235 0.0
C3241 C 0.64403 0.81538 0.47947 0.0
H3242 H 0.67731 0.80525 0.43399 0.0
C3243 C 0.63555 0.79315 0.48244 0.0
H3244 H 0.66736 0.83554 0.45972 0.0
C3245 C 0.64149 0.77541 0.46743 0.0
C3246 C 0.6562 0.7796 0.44938 0.0
H3247 H 0.62332 0.7898 0.4955 0.0
H3248 H 0.63331 0.75898 0.46899 0.0
C3249 C 0.66598 0.80135 0.44766 0.0
C3250 C 0.78934 0.46481 0.60089 0.0
C3251 C 0.78867 0.48416 0.61466 0.0
H3252 H 0.77556 0.43223 0.59285 0.0
C3253 C 0.77107 0.48576 0.63065 0.0
H3254 H 0.80282 0.46286 0.58865 0.0
C3255 C 0.75522 0.4677 0.6334 0.0
C3256 C 0.75693 0.4477 0.62034 0.0
H3257 H 0.77047 0.50023 0.6419 0.0
H3258 H 0.74251 0.46888 0.64644 0.0
C3259 C 0.77376 0.44702 0.60358 0.0
C3260 C 0.75931 0.52869 0.88084 0.0
C3261 C 0.75336 0.53624 0.85925 0.0
H3262 H 0.7818 0.50751 0.90099 0.0
C3263 C 0.76335 0.52522 0.84094 0.0
H3264 H 0.75217 0.53726 0.89525 0.0
C3265 C 0.78054 0.5084 0.84427 0.0
C3266 C 0.78768 0.50201 0.86593 0.0
H3267 H 0.75952 0.53108 0.82419 0.0
H3268 H 0.7896 0.50171 0.82995 0.0
C3269 C 0.77616 0.51157 0.88416 0.0
C3270 C 0.73308 0.53368 0.1627 0.0
C3271 C 0.74973 0.53949 0.1471 0.0
H3272 H 0.70058 0.51761 0.16786 0.0
C3273 C 0.74986 0.52841 0.1263 0.0
H3274 H 0.73251 0.54234 0.17868 0.0
C3275 C 0.73141 0.51444 0.11991 0.0
C3276 C 0.71282 0.51173 0.13434 0.0
H3277 H 0.76241 0.53307 0.11391 0.0
H3278 H 0.73043 0.50806 0.10297 0.0
C3279 C 0.71459 0.51997 0.1563 0.0
C3280 C 0.72391 0.48116 0.36615 0.0
C3281 C 0.71531 0.48711 0.3872 0.0
H3282 H 0.74676 0.45933 0.34774 0.0
C3283 C 0.72632 0.47838 0.40634 0.0
H3284 H 0.71554 0.48763 0.35115 0.0
C3285 C 0.74396 0.46194 0.40435 0.0
C3286 C 0.7512 0.45453 0.38322 0.0
H3287 H 0.71978 0.48253 0.4227 0.0
H3288 H 0.75048 0.45352 0.41924 0.0
C3289 C 0.74194 0.46519 0.36419 0.0
C3290 C 0.55755 0.36573 0.1785 0.0
C3291 C 0.53922 0.38161 0.18054 0.0
H3292 H 0.58751 0.34998 0.19336 0.0
C3293 C 0.53581 0.39191 0.20152 0.0
H3294 H 0.56047 0.35686 0.16292 0.0
C3295 C 0.55147 0.3875 0.21947 0.0
C3296 C 0.57062 0.37268 0.21664 0.0
H3297 H 0.52183 0.40412 0.20375 0.0
H3298 H 0.5494 0.39669 0.235 0.0
C3299 C 0.57298 0.36147 0.19612 0.0
C3300 C 0.13152 0.80615 0.01668 0.0
C3301 C 0.11164 0.80911 0.00314 0.0
H3302 H 0.15032 0.78445 0.03926 0.0
C3303 C 0.09655 0.79074 -5e-05 0.0
H3304 H 0.14357 0.82002 0.0192 0.0
C3305 C 0.10024 0.77041 0.01175 0.0
C3306 C 0.11939 0.76802 0.0264 0.0
H3307 H 0.08112 0.79262 0.98958 0.0
H3308 H 0.08744 0.75707 0.01038 0.0
C3309 C 0.13553 0.7857 0.02797 0.0
C3310 C 0.33056 0.19336 0.55275 0.0
C3311 C 0.33943 0.21546 0.55086 0.0
H3312 H 0.33019 0.15918 0.54058 0.0
C3313 C 0.35348 0.22029 0.53249 0.0
H3314 H 0.31973 0.18898 0.56665 0.0
C3315 C 0.35972 0.20285 0.51727 0.0
C3316 C 0.35218 0.18031 0.52036 0.0
H3317 H 0.36094 0.23704 0.53078 0.0
H3318 H 0.37144 0.20671 0.50393 0.0
C3319 C 0.33684 0.17613 0.53784 0.0
C3320 C 0.20883 0.53156 0.39593 0.0
C3321 C 0.20924 0.51268 0.38153 0.0
H3322 H 0.22234 0.56418 0.40442 0.0
C3323 C 0.22619 0.51197 0.36484 0.0
H3324 H 0.19577 0.53289 0.40866 0.0
C3325 C 0.24164 0.53038 0.36212 0.0
C3326 C 0.24011 0.54992 0.37585 0.0
H3327 H 0.22652 0.49795 0.35306 0.0
H3328 H 0.25379 0.52987 0.34857 0.0
C3329 C 0.22397 0.54974 0.39322 0.0
C3330 C 0.21923 0.48935 0.15299 0.0
C3331 C 0.21156 0.49554 0.13145 0.0
H3332 H 0.24053 0.46665 0.17274 0.0
C3333 C 0.22246 0.48576 0.11299 0.0
H3334 H 0.21065 0.4963 0.16747 0.0
C3335 C 0.23915 0.46847 0.11603 0.0
C3336 C 0.24552 0.46104 0.13756 0.0
H3337 H 0.21643 0.48975 0.09627 0.0
H3338 H 0.24581 0.45969 0.10152 0.0
C3339 C 0.23628 0.47238 0.15603 0.0
C3340 C 0.25153 0.46868 0.86375 0.0
C3341 C 0.25368 0.45566 0.84417 0.0
H3342 H 0.26855 0.49146 0.88666 0.0
C3343 C 0.27191 0.45994 0.82977 0.0
H3344 H 0.23774 0.46523 0.87528 0.0
C3345 C 0.28947 0.47474 0.83627 0.0
C3346 C 0.28917 0.4852 0.85741 0.0
H3347 H 0.27401 0.44984 0.81476 0.0
H3348 H 0.30436 0.47628 0.82562 0.0
C3349 C 0.26929 0.48345 0.8704 0.0
C3350 C 0.25341 0.53028 0.62984 0.0
C3351 C 0.24579 0.54263 0.61114 0.0
H3352 H 0.27822 0.50602 0.6427 0.0
C3353 C 0.25421 0.53658 0.59003 0.0
H3354 H 0.24764 0.53504 0.64632 0.0
C3355 C 0.27141 0.51973 0.5879 0.0
C3356 C 0.28077 0.50916 0.60692 0.0
H3357 H 0.24891 0.54624 0.57545 0.0
H3358 H 0.27893 0.51661 0.57173 0.0
C3359 C 0.27103 0.51386 0.62778 0.0
C3360 C 0.02244 0.12959 0.45579 0.0
C3361 C 0.03248 0.114 0.44068 0.0
H3362 H 0.02575 0.14774 0.48689 0.0
C3363 C 0.05421 0.10445 0.44613 0.0
H3364 H 0.00578 0.13747 0.452 0.0
C3365 C 0.06528 0.10987 0.46647 0.0
C3366 C 0.05537 0.12566 0.48146 0.0
H3367 H 0.06239 0.09239 0.43495 0.0
H3368 H 0.08168 0.10165 0.47047 0.0
C3369 C 0.03387 0.13557 0.47578 0.0
C3370 C 0.12654 0.80204 0.72234 0.0
C3371 C 0.13932 0.8208 0.72977 0.0
H3372 H 0.12163 0.77707 0.6968 0.0
C3373 C 0.1583 0.82813 0.71731 0.0
H3374 H 0.11193 0.79601 0.73169 0.0
C3375 C 0.1635 0.81775 0.69697 0.0
C3376 C 0.15041 0.79926 0.68935 0.0
H3377 H 0.16868 0.84238 0.72291 0.0
H3378 H 0.1776 0.82422 0.6872 0.0
C3379 C 0.1322 0.7912 0.70242 0.0
C3380 C 0.441 0.84781 0.97245 0.0
C3381 C 0.43888 0.8671 0.98607 0.0
H3382 H 0.45522 0.83422 0.94241 0.0
C3383 C 0.45343 0.88576 0.98298 0.0
H3384 H 0.42969 0.83345 0.97448 0.0
C3385 C 0.46793 0.8863 0.96477 0.0
C3386 C 0.46775 0.86829 0.9494 0.0
H3387 H 0.45207 0.90076 0.99349 0.0
H3388 H 0.47755 0.9017 0.96163 0.0
C3389 C 0.45547 0.84837 0.95406 0.0
C3390 C 0.3514 0.18655 0.20915 0.0
C3391 C 0.36535 0.19487 0.22668 0.0
H3392 H 0.34087 0.19007 0.17491 0.0
C3393 C 0.37836 0.21464 0.22336 0.0
H3394 H 0.34104 0.17146 0.21134 0.0
C3395 C 0.37775 0.22567 0.20275 0.0
C3396 C 0.36453 0.21684 0.18492 0.0
H3397 H 0.38921 0.22146 0.23662 0.0
H3398 H 0.38833 0.24062 0.20054 0.0
C3399 C 0.35125 0.19724 0.18835 0.0
C3400 C 0.04537 0.89277 0.05107 0.0
C3401 C 0.02746 0.87792 0.05646 0.0
H3402 H 0.06821 0.90435 0.02575 0.0
C3403 C 0.01931 0.86248 0.04021 0.0
H3404 H 0.05176 0.90499 0.06322 0.0
C3405 C 0.02927 0.86148 0.01912 0.0
C3406 C 0.04718 0.87634 0.01366 0.0
H3407 H 0.0055 0.85079 0.04398 0.0
H3408 H 0.02301 0.84905 0.00714 0.0
C3409 C 0.05478 0.89233 0.02968 0.0
C3410 C 0.3985 0.79548 0.26036 0.0
C3411 C 0.37989 0.80923 0.25299 0.0
H3412 H 0.41436 0.77802 0.28805 0.0
C3413 C 0.36282 0.81615 0.26796 0.0
H3414 H 0.41192 0.79007 0.24902 0.0
C3415 C 0.36439 0.8096 0.29011 0.0
C3416 C 0.38292 0.79583 0.29755 0.0
H3417 H 0.34828 0.82671 0.26259 0.0
H3418 H 0.35094 0.81518 0.30136 0.0
C3419 C 0.39998 0.78874 0.2826 0.0
C3420 C 0.43693 0.0953 0.54451 0.0
C3421 C 0.44874 0.11318 0.55509 0.0
H3422 H 0.41591 0.08508 0.51667 0.0
C3423 C 0.44977 0.13455 0.54475 0.0
H3424 H 0.43592 0.07867 0.5522 0.0
C3425 C 0.43839 0.1382 0.52438 0.0
C3426 C 0.42577 0.12056 0.51428 0.0
H3427 H 0.45881 0.14858 0.55267 0.0
H3428 H 0.43883 0.15498 0.51695 0.0
C3429 C 0.42548 0.09898 0.52425 0.0
C3430 C 0.12091 0.21035 0.78709 0.0
C3431 C 0.13416 0.19186 0.77937 0.0
H3432 H 0.11415 0.23366 0.81379 0.0
C3433 C 0.15095 0.18215 0.79395 0.0
H3434 H 0.10777 0.21815 0.77645 0.0
C3435 C 0.15431 0.19072 0.81573 0.0
C3436 C 0.14138 0.2096 0.82322 0.0
H3437 H 0.16157 0.16794 0.78849 0.0
H3438 H 0.16747 0.18301 0.82641 0.0
C3439 C 0.12458 0.21919 0.8086 0.0
C3440 C 0.46175 0.05008 0.11731 0.0
C3441 C 0.46364 0.07151 0.12763 0.0
H3442 H 0.43925 0.02391 0.10504 0.0
C3443 C 0.44311 0.08316 0.13353 0.0
H3444 H 0.47716 0.04079 0.11234 0.0
C3445 C 0.42124 0.07377 0.12879 0.0
C3446 C 0.41939 0.05232 0.11841 0.0
H3447 H 0.44389 0.09986 0.14126 0.0
H3448 H 0.40583 0.0832 0.13349 0.0
C3449 C 0.43996 0.04053 0.11294 0.0
C3450 C 0.19183 0.20194 0.38725 0.0
C3451 C 0.17152 0.20933 0.37634 0.0
H3452 H 0.21777 0.17574 0.39016 0.0
C3453 C 0.16137 0.19534 0.35983 0.0
H3454 H 0.20001 0.21241 0.39997 0.0
C3455 C 0.17115 0.17412 0.35458 0.0
C3456 C 0.19173 0.16696 0.36517 0.0
H3457 H 0.14582 0.20078 0.35094 0.0
H3458 H 0.16291 0.16356 0.34197 0.0
C3459 C 0.20201 0.18105 0.38152 0.0
C3460 C 0.06806 0.94968 0.59009 0.0
C3461 C 0.07511 0.96832 0.60311 0.0
H3462 H 0.04152 0.92513 0.58356 0.0
C3463 C 0.06014 0.97704 0.61942 0.0
H3464 H 0.07928 0.9427 0.57742 0.0
C3465 C 0.03914 0.96642 0.62361 0.0
C3466 C 0.03247 0.94725 0.6112 0.0
H3467 H 0.06526 0.99129 0.62987 0.0
H3468 H 0.02847 0.97282 0.63699 0.0
C3469 C 0.04659 0.93957 0.59376 0.0
C3470 C 0.31718 0.78757 0.852 0.0
C3471 C 0.3045 0.77268 0.8653 0.0
H3472 H 0.32092 0.82186 0.84034 0.0
C3473 C 0.28417 0.78058 0.87535 0.0
H3474 H 0.33266 0.7817 0.8437 0.0
C3475 C 0.277 0.80319 0.87274 0.0
C3476 C 0.29033 0.81846 0.86046 0.0
H3477 H 0.27398 0.76939 0.88554 0.0
H3478 H 0.26157 0.80895 0.88126 0.0
C3479 C 0.31038 0.81043 0.84992 0.0
C3480 C 0.43 0.93056 0.36023 0.0
C3481 C 0.42746 0.95226 0.36984 0.0
H3482 H 0.45323 0.90482 0.34851 0.0
C3483 C 0.44731 0.96541 0.37401 0.0
H3484 H 0.41501 0.92022 0.35639 0.0
C3485 C 0.46943 0.95643 0.36976 0.0
C3486 C 0.47195 0.93442 0.36073 0.0
H3487 H 0.44578 0.98233 0.38117 0.0
H3488 H 0.48455 0.9664 0.37412 0.0
C3489 C 0.45195 0.92187 0.35543 0.0
C3490 C 0.30415 0.1859 0.64313 0.0
C3491 C 0.28905 0.17429 0.62875 0.0
H3492 H 0.32001 0.21766 0.65117 0.0
C3493 C 0.27828 0.18597 0.61089 0.0
H3494 H 0.31222 0.17735 0.65725 0.0
C3495 C 0.28304 0.20889 0.60714 0.0
C3496 C 0.29832 0.22043 0.62143 0.0
H3497 H 0.26643 0.17727 0.59964 0.0
H3498 H 0.27522 0.21736 0.59285 0.0
C3499 C 0.30843 0.20892 0.6397 0.0
C3500 C 0.07572 0.06962 0.8979 0.0
C3501 C 0.08249 0.05116 0.88454 0.0
H3502 H 0.04946 0.09459 0.90471 0.0
C3503 C 0.06784 0.04406 0.86695 0.0
H3504 H 0.08668 0.07535 0.91158 0.0
C3505 C 0.04695 0.05556 0.86251 0.0
C3506 C 0.04012 0.07396 0.87593 0.0
H3507 H 0.07281 0.02995 0.85628 0.0
H3508 H 0.03614 0.05003 0.84863 0.0
C3509 C 0.0545 0.08065 0.89388 0.0
C3510 C 0.19839 0.79789 0.1225 0.0
C3511 C 0.18551 0.81843 0.12325 0.0
H3512 H 0.19773 0.76136 0.11994 0.0
C3513 C 0.16128 0.81735 0.12044 0.0
H3514 H 0.21707 0.79797 0.1246 0.0
C3515 C 0.15029 0.79629 0.11696 0.0
C3516 C 0.16322 0.77577 0.11677 0.0
H3517 H 0.15081 0.83277 0.12083 0.0
H3518 H 0.13157 0.796 0.11528 0.0
C3519 C 0.18737 0.77686 0.11962 0.0
C3520 C 0.13991 0.4586 0.04245 0.0
C3521 C 0.12661 0.44122 0.05193 0.0
H3522 H 0.15518 0.4916 0.04631 0.0
C3523 C 0.11781 0.44487 0.07338 0.0
H3524 H 0.14724 0.45632 0.02608 0.0
C3525 C 0.12184 0.4656 0.08478 0.0
C3526 C 0.13558 0.48273 0.07539 0.0
H3527 H 0.10753 0.43188 0.08118 0.0
H3528 H 0.11435 0.46814 0.10102 0.0
C3529 C 0.14458 0.47886 0.0541 0.0
C3530 C 0.63554 0.00787 0.95922 0.0
C3531 C 0.62673 0.00216 0.93804 0.0
H3532 H 0.63757 0.03367 0.98472 0.0
C3533 C 0.61083 0.01689 0.92743 0.0
H3534 H 0.64823 0.99693 0.96746 0.0
C3535 C 0.60436 0.03738 0.93738 0.0
C3536 C 0.6144 0.04394 0.95776 0.0
H3537 H 0.60416 0.01322 0.91091 0.0
H3538 H 0.59268 0.04875 0.92837 0.0
C3539 C 0.62963 0.02887 0.96894 0.0
C3540 C 0.22675 0.36241 0.17642 0.0
C3541 C 0.24086 0.37744 0.18873 0.0
H3542 H 0.19696 0.34099 0.17614 0.0
C3543 C 0.23647 0.38105 0.21136 0.0
H3544 H 0.22989 0.35914 0.15895 0.0
C3545 C 0.21791 0.37009 0.22138 0.0
C3546 C 0.20329 0.35567 0.2088 0.0
H3547 H 0.24725 0.39238 0.22123 0.0
H3548 H 0.21439 0.37376 0.2387 0.0
C3549 C 0.20805 0.35179 0.18629 0.0
C3550 C 0.88299 0.93174 0.43067 0.0
C3551 C 0.87547 0.92718 0.45225 0.0
H3552 H 0.88121 0.95434 0.4029 0.0
C3553 C 0.85941 0.94202 0.46229 0.0
H3554 H 0.89529 0.9205 0.42255 0.0
C3555 C 0.85061 0.96089 0.45067 0.0
C3556 C 0.85826 0.96547 0.42912 0.0
H3557 H 0.85305 0.93862 0.47881 0.0
H3558 H 0.83808 0.972 0.45862 0.0
C3559 C 0.87474 0.95093 0.41935 0.0
C3560 C 0.78488 0.10559 0.20682 0.0
C3561 C 0.80307 0.11828 0.19783 0.0
H3562 H 0.75136 0.09074 0.20149 0.0
C3563 C 0.80077 0.12603 0.17579 0.0
H3564 H 0.78621 0.09908 0.22365 0.0
C3565 C 0.78049 0.12166 0.16327 0.0
C3566 C 0.76242 0.10876 0.17221 0.0
H3567 H 0.81447 0.13577 0.16835 0.0
H3568 H 0.77898 0.12835 0.14654 0.0
C3569 C 0.76495 0.10064 0.19408 0.0
C3570 C 0.39229 0.54794 0.568 0.0
C3571 C 0.39058 0.5527 0.54516 0.0
H3572 H 0.38227 0.52606 0.5945 0.0
C3573 C 0.37713 0.53845 0.53128 0.0
H3574 H 0.40232 0.55876 0.5791 0.0
C3575 C 0.36509 0.52017 0.5402 0.0
C3576 C 0.36669 0.51559 0.56304 0.0
H3577 H 0.37512 0.54193 0.51365 0.0
H3578 H 0.35462 0.50962 0.52923 0.0
C3579 C 0.38064 0.52939 0.57681 0.0
C3580 C 0.20751 0.62899 0.29483 0.0
C3581 C 0.19384 0.64453 0.30699 0.0
H3582 H 0.2385 0.60859 0.294 0.0
C3583 C 0.20199 0.65249 0.32765 0.0
H3584 H 0.20145 0.62226 0.27897 0.0
C3585 C 0.22358 0.64508 0.33592 0.0
C3586 C 0.23677 0.62884 0.32412 0.0
H3587 H 0.19171 0.66436 0.33734 0.0
H3588 H 0.22974 0.65172 0.35176 0.0
C3589 C 0.22863 0.621 0.30345 0.0
C3590 C 0.30182 0.35844 0.80869 0.0
C3591 C 0.30478 0.36252 0.78589 0.0
H3592 H 0.27923 0.36114 0.83657 0.0
C3593 C 0.28657 0.37309 0.77375 0.0
H3594 H 0.31548 0.35039 0.81853 0.0
C3595 C 0.26605 0.37971 0.78422 0.0
C3596 C 0.26311 0.37558 0.80697 0.0
H3597 H 0.28833 0.37673 0.75619 0.0
H3598 H 0.25247 0.38802 0.77448 0.0
C3599 C 0.2811 0.36468 0.81904 0.0
C3600 C 0.92927 0.88661 0.53228 0.0
C3601 C 0.94032 0.8732 0.51594 0.0
H3602 H 0.93164 0.90261 0.56458 0.0
C3603 C 0.96328 0.86609 0.52002 0.0
H3604 H 0.91162 0.89249 0.52961 0.0
C3605 C 0.97498 0.87249 0.53974 0.0
C3606 C 0.96389 0.88573 0.55621 0.0
H3607 H 0.97231 0.85577 0.50785 0.0
H3608 H 0.99271 0.86668 0.54223 0.0
C3609 C 0.94075 0.89249 0.55231 0.0
C3610 C 0.8689 0.20382 0.29462 0.0
C3611 C 0.85047 0.19651 0.30781 0.0
H3612 H 0.88815 0.1988 0.2648 0.0
C3613 C 0.83619 0.17894 0.3 0.0
H3614 H 0.8803 0.21727 0.30033 0.0
C3615 C 0.84037 0.1688 0.27931 0.0
C3616 C 0.85938 0.17552 0.2666 0.0
H3617 H 0.82182 0.17312 0.3098 0.0
H3618 H 0.82908 0.15529 0.27354 0.0
C3619 C 0.87343 0.19328 0.2743 0.0
C3620 C 0.55412 0.15368 0.02654 0.0
C3621 C 0.55051 0.13696 0.01013 0.0
H3622 H 0.54668 0.16453 0.05967 0.0
C3623 C 0.53246 0.12133 0.0124 0.0
H3624 H 0.56781 0.16601 0.02501 0.0
C3625 C 0.52069 0.12017 0.03242 0.0
C3626 C 0.52667 0.13491 0.04998 0.0
H3627 H 0.52916 0.10844 -0.00019 0.0
H3628 H 0.50845 0.10655 0.03481 0.0
C3629 C 0.5421 0.15276 0.0464 0.0
C3630 C 0.63556 0.76894 0.79552 0.0
C3631 C 0.63112 0.78195 0.81477 0.0
H3632 H 0.6383 0.76895 0.7598 0.0
C3633 C 0.62514 0.8051 0.81246 0.0
H3634 H 0.63995 0.75099 0.79678 0.0
C3635 C 0.62358 0.815 0.79141 0.0
C3636 C 0.62885 0.80233 0.77235 0.0
H3637 H 0.62092 0.81543 0.82686 0.0
H3638 H 0.61747 0.83235 0.78996 0.0
C3639 C 0.63454 0.77912 0.77443 0.0
C3640 C 0.95487 0.10193 0.94656 0.0
C3641 C 0.97189 0.11741 0.94034 0.0
H3642 H 0.93325 0.09014 0.97274 0.0
C3643 C 0.97967 0.13372 0.95592 0.0
H3644 H 0.94881 0.08906 0.93493 0.0
C3645 C 0.97019 0.13493 0.97721 0.0
C3646 C 0.95318 0.11946 0.98352 0.0
H3647 H 0.99281 0.14587 0.95147 0.0
H3648 H 0.97612 0.14802 0.98867 0.0
C3649 C 0.94598 0.10263 0.96815 0.0
C3650 C 0.59889 0.19853 0.73746 0.0
C3651 C 0.61961 0.18916 0.74605 0.0
H3652 H 0.58145 0.2127 0.70887 0.0
C3653 C 0.63913 0.18741 0.73256 0.0
H3654 H 0.58357 0.19981 0.74761 0.0
C3655 C 0.63798 0.19488 0.71064 0.0
C3656 C 0.61719 0.2039 0.70189 0.0
H3657 H 0.65525 0.18012 0.7389 0.0
H3658 H 0.65326 0.1933 0.70047 0.0
C3659 C 0.59763 0.20573 0.71537 0.0
C3660 C 0.55777 0.85961 0.47447 0.0
C3661 C 0.57146 0.87685 0.48394 0.0
H3662 H 0.53629 0.84954 0.4468 0.0
C3663 C 0.57266 0.89811 0.47343 0.0
H3664 H 0.5566 0.84309 0.48233 0.0
C3665 C 0.56099 0.90183 0.45327 0.0
C3666 C 0.54806 0.88431 0.44333 0.0
H3667 H 0.58305 0.91169 0.48052 0.0
H3668 H 0.5627 0.91817 0.44514 0.0
C3669 C 0.54618 0.8633 0.45422 0.0
C3670 C 0.87375 0.77958 0.18887 0.0
C3671 C 0.85605 0.78867 0.17494 0.0
H3672 H 0.89148 0.78072 0.22054 0.0
C3673 C 0.84248 0.80677 0.18312 0.0
H3674 H 0.88467 0.7657 0.18311 0.0
C3675 C 0.84615 0.81505 0.20493 0.0
C3676 C 0.86381 0.80581 0.21883 0.0
H3677 H 0.82862 0.81403 0.17296 0.0
H3678 H 0.83507 0.82867 0.21096 0.0
C3679 C 0.87766 0.7881 0.21042 0.0
C3680 C 0.53799 0.94835 0.88293 0.0
C3681 C 0.53636 0.92623 0.874 0.0
H3682 H 0.56036 0.97519 0.89426 0.0
C3683 C 0.55701 0.91395 0.87001 0.0
H3684 H 0.52243 0.95815 0.88641 0.0
C3685 C 0.57868 0.92338 0.87518 0.0
C3686 C 0.58037 0.94557 0.88397 0.0
H3687 H 0.55646 0.89676 0.86339 0.0
H3688 H 0.59414 0.91334 0.87196 0.0
C3689 C 0.55973 0.95801 0.8876 0.0
C3690 C 0.79404 0.81376 0.61804 0.0
C3691 C 0.80454 0.82815 0.63399 0.0
H3692 H 0.79652 0.78271 0.59915 0.0
C3693 C 0.82595 0.82178 0.6435 0.0
H3694 H 0.77767 0.81848 0.61018 0.0
C3695 C 0.83643 0.80111 0.63752 0.0
C3696 C 0.82609 0.78688 0.62134 0.0
H3697 H 0.83442 0.83261 0.65574 0.0
H3698 H 0.85268 0.79631 0.64554 0.0
C3699 C 0.80487 0.79342 0.61157 0.0
C3700 C 0.9358 0.02457 0.37414 0.0
C3701 C 0.92045 0.033 0.39022 0.0
H3702 H 0.96815 0.02861 0.35786 0.0
C3703 C 0.92707 0.0514 0.40375 0.0
H3704 H 0.931 0.01046 0.36337 0.0
C3705 C 0.94879 0.06132 0.40104 0.0
C3706 C 0.96354 0.05364 0.38408 0.0
H3707 H 0.91552 0.05804 0.41632 0.0
H3708 H 0.95375 0.07541 0.41175 0.0
C3709 C 0.95704 0.03495 0.37094 0.0
C3710 C 0.71129 0.21606 0.11223 0.0
C3711 C 0.69121 0.2241 0.12259 0.0
H3712 H 0.73366 0.18759 0.1061 0.0
C3713 C 0.67824 0.20912 0.13556 0.0
H3714 H 0.72162 0.22727 0.1022 0.0
C3715 C 0.68485 0.18618 0.13744 0.0
C3716 C 0.70493 0.17814 0.12696 0.0
H3717 H 0.66285 0.21505 0.14396 0.0
H3718 H 0.67434 0.1748 0.14711 0.0
C3719 C 0.71822 0.19336 0.11458 0.0
C3720 C 0.52756 0.04018 0.62784 0.0
C3721 C 0.52497 0.06223 0.63673 0.0
H3722 H 0.55129 0.01427 0.61664 0.0
C3723 C 0.54493 0.075 0.64169 0.0
H3724 H 0.51247 0.03006 0.62371 0.0
C3725 C 0.56688 0.06642 0.63683 0.0
C3726 C 0.5695 0.04458 0.62754 0.0
H3727 H 0.54359 0.0921 0.64847 0.0
H3728 H 0.58183 0.0769 0.64047 0.0
C3729 C 0.5497 0.03129 0.62357 0.0
C3730 C 0.71805 0.80718 0.38741 0.0
C3731 C 0.70743 0.81875 0.36941 0.0
H3732 H 0.72041 0.7761 0.40602 0.0
C3733 C 0.69207 0.80722 0.35524 0.0
H3734 H 0.73011 0.81584 0.39848 0.0
C3735 C 0.68728 0.7844 0.35909 0.0
C3736 C 0.69714 0.77305 0.37757 0.0
H3737 H 0.68411 0.81569 0.34101 0.0
H3738 H 0.67541 0.77574 0.34783 0.0
C3739 C 0.71278 0.78447 0.39159 0.0
C3740 C 0.92405 0.92789 0.09542 0.0
C3741 C 0.91732 0.94682 0.10817 0.0
H3742 H 0.94986 0.90213 0.08989 0.0
C3743 C 0.93178 0.95414 0.12584 0.0
H3744 H 0.91322 0.92193 0.08174 0.0
C3745 C 0.95231 0.94229 0.13107 0.0
C3746 C 0.95898 0.92329 0.11837 0.0
H3747 H 0.92682 0.96856 0.1361 0.0
H3748 H 0.96288 0.94793 0.14506 0.0
C3749 C 0.94492 0.9165 0.10021 0.0
C3750 C 0.85236 0.19454 0.87311 0.0
C3751 C 0.84195 0.21547 0.87895 0.0
H3752 H 0.84837 0.15886 0.86719 0.0
C3753 C 0.81854 0.21561 0.88506 0.0
H3754 H 0.87035 0.19388 0.86819 0.0
C3755 C 0.80561 0.19526 0.88419 0.0
C3756 C 0.81589 0.17449 0.87718 0.0
H3757 H 0.80993 0.23152 0.88922 0.0
H3758 H 0.78742 0.19596 0.88832 0.0
C3759 C 0.83962 0.17441 0.87229 0.0
C3760 C 0.8545 0.53955 0.95559 0.0
C3761 C 0.86789 0.55699 0.94635 0.0
H3762 H 0.84005 0.50616 0.95169 0.0
C3763 C 0.87759 0.55321 0.92531 0.0
H3764 H 0.84653 0.54196 0.97166 0.0
C3765 C 0.87442 0.53224 0.91412 0.0
C3766 C 0.86069 0.51498 0.92328 0.0
H3767 H 0.888 0.56623 0.91773 0.0
H3768 H 0.88265 0.5296 0.89824 0.0
C3769 C 0.85069 0.51901 0.94411 0.0
C3770 C 0.34273 0.95207 0.04865 0.0
C3771 C 0.36522 0.94277 0.05046 0.0
H3772 H 0.32068 0.98102 0.05513 0.0
C3773 C 0.38311 0.95595 0.05966 0.0
H3774 H 0.32869 0.9422 0.04147 0.0
C3775 C 0.37857 0.97794 0.06732 0.0
C3776 C 0.35609 0.9872 0.06583 0.0
H3777 H 0.40062 0.94922 0.06114 0.0
H3778 H 0.39264 0.98758 0.07476 0.0
C3779 C 0.3382 0.97427 0.05621 0.0
C3780 C 0.76238 0.61441 0.78519 0.0
C3781 C 0.75778 0.61847 0.80772 0.0
H3782 H 0.78492 0.62089 0.75795 0.0
C3783 C 0.77216 0.63331 0.81997 0.0
H3784 H 0.75144 0.60319 0.77537 0.0
C3785 C 0.79119 0.64339 0.81014 0.0
C3786 C 0.7961 0.63915 0.78771 0.0
H3787 H 0.76894 0.63687 0.83737 0.0
H3788 H 0.80237 0.65414 0.82025 0.0
C3789 C 0.78132 0.62483 0.7752 0.0
C3790 C 0.11564 0.06624 0.56882 0.0
C3791 C 0.11133 0.0669 0.54576 0.0
H3792 H 0.12769 0.04657 0.59648 0.0
C3793 C 0.11426 0.04682 0.53313 0.0
H3794 H 0.11357 0.08134 0.57908 0.0
C3795 C 0.12242 0.0268 0.54327 0.0
C3796 C 0.12788 0.02663 0.56611 0.0
H3797 H 0.11109 0.04676 0.51531 0.0
H3798 H 0.12519 0.01173 0.53313 0.0
C3799 C 0.1239 0.04634 0.57883 0.0
C3800 C 0.21702 0.87904 0.83172 0.0
C3801 C 0.23706 0.88607 0.82067 0.0
H3802 H 0.18116 0.86966 0.82888 0.0
C3803 C 0.23608 0.88825 0.79743 0.0
H3804 H 0.2173 0.87693 0.84959 0.0
C3805 C 0.21557 0.88359 0.7855 0.0
C3806 C 0.19535 0.87687 0.79651 0.0
H3807 H 0.25121 0.89353 0.78841 0.0
H3808 H 0.21553 0.88566 0.76759 0.0
C3809 C 0.19633 0.87472 0.81982 0.0
C3810 C 0.60353 0.44607 0.42802 0.0
C3811 C 0.6055 0.4414 0.45086 0.0
H3812 H 0.61298 0.46807 0.40137 0.0
C3813 C 0.61897 0.45581 0.46455 0.0
H3814 H 0.59349 0.43512 0.41705 0.0
C3815 C 0.63077 0.47416 0.45546 0.0
C3816 C 0.62888 0.47871 0.43262 0.0
H3817 H 0.62121 0.45239 0.48217 0.0
H3818 H 0.64129 0.4848 0.4663 0.0
C3819 C 0.61487 0.46476 0.41903 0.0
C3820 C 0.77203 0.35389 0.6614 0.0
C3821 C 0.75874 0.37026 0.67289 0.0
H3822 H 0.80402 0.3348 0.66034 0.0
C3823 C 0.76679 0.37849 0.69347 0.0
H3824 H 0.76594 0.34696 0.64566 0.0
C3825 C 0.78796 0.37081 0.70225 0.0
C3826 C 0.80177 0.3552 0.69035 0.0
H3827 H 0.75683 0.39101 0.7027 0.0
H3828 H 0.79395 0.37788 0.71799 0.0
C3829 C 0.79366 0.34678 0.66983 0.0
C3830 C 0.71374 0.62857 0.17936 0.0
C3831 C 0.7348 0.62935 0.19136 0.0
H3832 H 0.67715 0.63458 0.17943 0.0
C3833 C 0.73499 0.63832 0.21306 0.0
H3834 H 0.71307 0.62165 0.16264 0.0
C3835 C 0.71423 0.64526 0.22299 0.0
C3836 C 0.693 0.64377 0.21119 0.0
H3837 H 0.75102 0.63916 0.22266 0.0
H3838 H 0.71474 0.65121 0.24009 0.0
C3839 C 0.69313 0.63601 0.18903 0.0
C3840 C 0.53526 0.63366 0.97859 0.0
C3841 C 0.55766 0.62512 0.98298 0.0
H3842 H 0.50607 0.63471 0.95607 0.0
C3843 C 0.56793 0.61072 0.96696 0.0
H3844 H 0.52684 0.64476 0.99052 0.0
C3845 C 0.55628 0.60536 0.94687 0.0
C3846 C 0.53371 0.61363 0.94264 0.0
H3847 H 0.58508 0.60364 0.96992 0.0
H3848 H 0.56479 0.59446 0.93483 0.0
C3849 C 0.52335 0.62778 0.95884 0.0
C3850 C 0.65894 0.32515 0.21473 0.0
C3851 C 0.64028 0.31778 0.22759 0.0
H3852 H 0.67744 0.32147 0.18409 0.0
C3853 C 0.62722 0.29916 0.22017 0.0
H3854 H 0.66957 0.33924 0.22029 0.0
C3855 C 0.63229 0.28851 0.19996 0.0
C3856 C 0.65018 0.2966 0.18651 0.0
H3857 H 0.61283 0.29307 0.22979 0.0
H3858 H 0.62153 0.27448 0.19444 0.0
C3859 C 0.66354 0.31496 0.1941 0.0
C3860 C 0.966 0.38597 0.46337 0.0
C3861 C 0.96643 0.3673 0.44876 0.0
H3862 H 0.94954 0.40136 0.49132 0.0
C3863 C 0.95431 0.34745 0.45402 0.0
H3864 H 0.97545 0.40136 0.45977 0.0
C3865 C 0.93964 0.3474 0.47228 0.0
C3866 C 0.93703 0.36719 0.48514 0.0
H3867 H 0.9545 0.33281 0.44296 0.0
H3868 H 0.92872 0.33287 0.47489 0.0
C3869 C 0.95121 0.38598 0.48137 0.0
C3870 C 0.87759 0.727 0.70208 0.0
C3871 C 0.86482 0.71762 0.68422 0.0
H3872 H 0.88885 0.72342 0.73608 0.0
C3873 C 0.85218 0.69762 0.68767 0.0
H3874 H 0.88767 0.74228 0.69988 0.0
C3875 C 0.85252 0.68708 0.70853 0.0
C3876 C 0.866 0.696 0.72612 0.0
H3877 H 0.84215 0.69004 0.6742 0.0
H3878 H 0.84267 0.67166 0.71074 0.0
C3879 C 0.87837 0.71615 0.72277 0.0
C3880 C 0.54442 0.39338 0.54991 0.0
C3881 C 0.5258 0.37941 0.5554 0.0
H3882 H 0.56777 0.40377 0.5245 0.0
C3883 C 0.51693 0.36429 0.53918 0.0
H3884 H 0.55143 0.4053 0.56201 0.0
C3885 C 0.52684 0.36273 0.51808 0.0
C3886 C 0.54544 0.3767 0.51252 0.0
H3887 H 0.50262 0.35323 0.54301 0.0
H3888 H 0.51997 0.35054 0.50615 0.0
C3889 C 0.55379 0.3924 0.52849 0.0
C3890 C 0.85913 0.30357 0.78729 0.0
C3891 C 0.8795 0.2936 0.79597 0.0
H3892 H 0.84254 0.31921 0.7591 0.0
C3893 C 0.89897 0.29104 0.78248 0.0
H3894 H 0.84393 0.30574 0.79749 0.0
C3895 C 0.89804 0.29839 0.76045 0.0
C3896 C 0.87775 0.30866 0.75189 0.0
H3897 H 0.91484 0.28334 0.78893 0.0
H3898 H 0.91329 0.29647 0.75028 0.0
C3899 C 0.85832 0.31123 0.76541 0.0
C3900 C 0.92951 0.64104 0.02534 0.0
C3901 C 0.92033 0.62246 0.01358 0.0
H3902 H 0.94609 0.65243 0.05541 0.0
C3903 C 0.92194 0.60049 0.02267 0.0
H3904 H 0.92833 0.65814 0.01864 0.0
C3905 C 0.93202 0.59722 0.04365 0.0
C3906 C 0.94053 0.61591 0.05572 0.0
H3907 H 0.91492 0.58594 0.01378 0.0
H3908 H 0.93279 0.58019 0.05054 0.0
C3909 C 0.93947 0.63779 0.04637 0.0
C3910 C 0.64833 0.68295 0.29472 0.0
C3911 C 0.63061 0.69202 0.28079 0.0
H3912 H 0.6655 0.68379 0.32687 0.0
C3913 C 0.61629 0.70929 0.28938 0.0
H3914 H 0.65982 0.66973 0.28858 0.0
C3915 C 0.61985 0.71759 0.3111 0.0
C3916 C 0.63757 0.70861 0.32507 0.0
H3917 H 0.60242 0.71656 0.27923 0.0
H3918 H 0.60866 0.73121 0.31699 0.0
C3919 C 0.65157 0.69092 0.31672 0.0
C3920 C 0.92091 0.57496 0.62791 0.0
C3921 C 0.91942 0.55324 0.61805 0.0
H3922 H 0.94304 0.60146 0.64025 0.0
C3923 C 0.94017 0.54145 0.61322 0.0
H3924 H 0.90534 0.58442 0.63208 0.0
C3925 C 0.96181 0.55126 0.61777 0.0
C3926 C 0.9633 0.57294 0.62763 0.0
H3927 H 0.93972 0.52463 0.60572 0.0
H3928 H 0.9774 0.54194 0.61336 0.0
C3929 C 0.94257 0.58459 0.63285 0.0
C3930 C 0.67116 0.6764 0.85373 0.0
C3931 C 0.69215 0.66912 0.86349 0.0
H3932 H 0.64555 0.70297 0.85146 0.0
C3933 C 0.70291 0.68298 0.87975 0.0
H3934 H 0.66251 0.66603 0.84122 0.0
C3935 C 0.69282 0.7037 0.88623 0.0
C3936 C 0.67207 0.71119 0.87616 0.0
H3937 H 0.71898 0.6776 0.8878 0.0
H3938 H 0.70139 0.71396 0.89887 0.0
C3939 C 0.66144 0.69746 0.85971 0.0
C3940 C 0.57012 0.44688 0.09331 0.0
C3941 C 0.57714 0.46461 0.10751 0.0
H3942 H 0.54312 0.42346 0.08463 0.0
C3943 C 0.56198 0.47266 0.12393 0.0
H3944 H 0.5815 0.44055 0.08044 0.0
C3945 C 0.54063 0.46238 0.1269 0.0
C3946 C 0.53383 0.44421 0.11317 0.0
H3947 H 0.56707 0.48627 0.13519 0.0
H3948 H 0.5297 0.4683 0.14029 0.0
C3949 C 0.54831 0.4371 0.09579 0.0
C3950 C 0.80944 0.30719 0.35452 0.0
C3951 C 0.78992 0.31552 0.36562 0.0
H3952 H 0.83019 0.27785 0.34683 0.0
C3953 C 0.77626 0.30043 0.37778 0.0
H3954 H 0.82013 0.31849 0.34494 0.0
C3955 C 0.78245 0.27749 0.37945 0.0
C3956 C 0.80213 0.26919 0.36862 0.0
H3957 H 0.76118 0.30648 0.38666 0.0
H3958 H 0.772 0.26634 0.38943 0.0
C3959 C 0.81525 0.28405 0.35571 0.0
C3960 C 0.92975 0.43036 0.86261 0.0
C3961 C 0.92719 0.4524 0.87146 0.0
H3962 H 0.95294 0.4044 0.85131 0.0
C3963 C 0.94706 0.46571 0.87507 0.0
H3964 H 0.91478 0.41981 0.85928 0.0
C3965 C 0.96917 0.4567 0.8708 0.0
C3966 C 0.97168 0.43448 0.86227 0.0
H3967 H 0.94555 0.48287 0.88166 0.0
H3968 H 0.98429 0.46688 0.8746 0.0
C3969 C 0.95167 0.42164 0.85776 0.0
C3970 C 0.80309 0.68893 0.1512 0.0
C3971 C 0.78393 0.6785 0.14112 0.0
H3972 H 0.8242 0.71852 0.15286 0.0
C3973 C 0.77064 0.69049 0.12505 0.0
H3974 H 0.81344 0.6801 0.16372 0.0
C3975 C 0.77721 0.71216 0.11828 0.0
C3976 C 0.79689 0.7222 0.1278 0.0
H3977 H 0.75581 0.68269 0.11689 0.0
H3978 H 0.76738 0.72069 0.10519 0.0
C3979 C 0.80927 0.7108 0.14485 0.0
C3980 C 0.56614 0.54268 0.36547 0.0
C3981 C 0.58098 0.54974 0.38292 0.0
H3982 H 0.53412 0.54851 0.34767 0.0
C3983 C 0.57424 0.56799 0.39657 0.0
H3984 H 0.57107 0.52873 0.35458 0.0
C3985 C 0.55286 0.57886 0.39297 0.0
C3986 C 0.53829 0.57218 0.37517 0.0
H3987 H 0.58535 0.57367 0.41017 0.0
H3988 H 0.54786 0.59264 0.404 0.0
C3989 C 0.54508 0.554 0.36145 0.0
C3990 C 0.69154 0.30036 0.61649 0.0
C3991 C 0.6812 0.32143 0.62251 0.0
H3992 H 0.68685 0.2642 0.61149 0.0
C3993 C 0.65714 0.32215 0.62559 0.0
H3994 H 0.71001 0.29918 0.6137 0.0
C3995 C 0.64403 0.30227 0.62405 0.0
C3996 C 0.65445 0.28108 0.61915 0.0
H3997 H 0.64843 0.33797 0.62989 0.0
H3998 H 0.62571 0.30331 0.6277 0.0
C3999 C 0.67827 0.28034 0.61481 0.0
C4000 C 0.64298 0.97845 0.55359 0.0
C4001 C 0.63406 0.98233 0.5749 0.0
H4002 H 0.64564 0.95579 0.52566 0.0
C4003 C 0.62056 0.96512 0.58447 0.0
H4004 H 0.65341 0.99127 0.54569 0.0
C4005 C 0.6166 0.94434 0.57319 0.0
C4006 C 0.62527 0.94068 0.5517 0.0
H4007 H 0.61316 0.96765 0.60075 0.0
H4008 H 0.60647 0.93132 0.58112 0.0
C4009 C 0.6384 0.95809 0.54206 0.0
C4010 C 0.15727 0.52117 0.44141 0.0
C4011 C 0.13982 0.50875 0.43044 0.0
H4012 H 0.16647 0.55284 0.45702 0.0
C4013 C 0.11772 0.51857 0.42744 0.0
H4014 H 0.1745 0.51397 0.4437 0.0
C4015 C 0.11316 0.54062 0.43495 0.0
C4016 C 0.13066 0.55326 0.44548 0.0
H4017 H 0.10399 0.50932 0.41897 0.0
H4018 H 0.09597 0.54782 0.43231 0.0
C4019 C 0.15274 0.54339 0.44879 0.0
C4020 C 0.7244 0.86292 0.67743 0.0
C4021 C 0.73864 0.87798 0.68961 0.0
H4022 H 0.69437 0.8418 0.67725 0.0
C4023 C 0.73408 0.88196 0.71215 0.0
H4024 H 0.72765 0.85934 0.66005 0.0
C4025 C 0.71532 0.87131 0.72221 0.0
C4026 C 0.70063 0.85682 0.70976 0.0
H4027 H 0.74491 0.89332 0.72194 0.0
H4028 H 0.71176 0.87522 0.73947 0.0
C4029 C 0.70548 0.85265 0.68731 0.0
C4030 C 0.37228 0.45021 0.91772 0.0
C4031 C 0.36253 0.46792 0.93037 0.0
H4032 H 0.38771 0.41685 0.91784 0.0
C4033 C 0.36212 0.46596 0.95362 0.0
H4034 H 0.37295 0.45143 0.8998 0.0
C4035 C 0.371 0.44644 0.96404 0.0
C4036 C 0.38018 0.42837 0.95137 0.0
H4037 H 0.35485 0.47948 0.96377 0.0
H4038 H 0.36995 0.44526 0.98199 0.0
C4039 C 0.38087 0.43051 0.92809 0.0
C4040 C 0.3008 0.62587 0.67765 0.0
C4041 C 0.30367 0.61638 0.69894 0.0
H4042 H 0.2783 0.63045 0.64921 0.0
C4043 C 0.2859 0.60264 0.70724 0.0
H4044 H 0.31414 0.63653 0.67082 0.0
C4045 C 0.26578 0.5984 0.69451 0.0
C4046 C 0.26265 0.60834 0.67344 0.0
H4047 H 0.28771 0.59486 0.72351 0.0
H4048 H 0.25249 0.58769 0.70134 0.0
C4049 C 0.28033 0.62226 0.66524 0.0
C4050 C 0.88926 0.03517 0.02971 0.0
C4051 C 0.89657 0.05237 0.04462 0.0
H4052 H 0.87162 0.00338 0.02555 0.0
C4053 C 0.89298 0.04948 0.0675 0.0
H4054 H 0.89159 0.03688 0.01194 0.0
C4055 C 0.88155 0.03025 0.07519 0.0
C4056 C 0.87326 0.01371 0.06017 0.0
H4057 H 0.89832 0.0624 0.0794 0.0
H4058 H 0.87875 0.0286 0.09288 0.0
C4059 C 0.87758 0.01608 0.03742 0.0
C4060 C 0.7031 0.14987 0.82994 0.0
C4061 C 0.6968 0.14399 0.808 0.0
H4062 H 0.72862 0.14662 0.85613 0.0
C4063 C 0.71197 0.13036 0.79541 0.0
H4064 H 0.69166 0.16026 0.84001 0.0
C4065 C 0.73244 0.12181 0.80489 0.0
C4066 C 0.73848 0.12719 0.82695 0.0
H4067 H 0.70748 0.12524 0.77854 0.0
H4068 H 0.74336 0.1107 0.79501 0.0
C4069 C 0.72406 0.14188 0.83921 0.0
C4070 C 0.80135 0.85514 0.30912 0.0
C4071 C 0.80424 0.85921 0.28631 0.0
H4072 H 0.77872 0.85765 0.33699 0.0
C4073 C 0.78586 0.86941 0.27411 0.0
H4074 H 0.81517 0.84741 0.319 0.0
C4075 C 0.76525 0.87575 0.28454 0.0
C4076 C 0.7624 0.87169 0.30731 0.0
H4077 H 0.78756 0.87305 0.25655 0.0
H4078 H 0.75156 0.88383 0.27477 0.0
C4079 C 0.78053 0.8611 0.31944 0.0
C4080 C 0.46303 0.36295 0.02052 0.0
C4081 C 0.44105 0.3721 0.01534 0.0
H4082 H 0.49162 0.36178 0.04375 0.0
C4083 C 0.43087 0.38734 0.03068 0.0
H4084 H 0.47138 0.35121 0.00913 0.0
C4085 C 0.44215 0.39294 0.05089 0.0
C4086 C 0.46434 0.38412 0.05585 0.0
H4087 H 0.41409 0.39496 0.02708 0.0
H4088 H 0.43375 0.40452 0.06239 0.0
C4089 C 0.47463 0.36911 0.04036 0.0
C4090 C 0.33831 0.67018 0.77644 0.0
C4091 C 0.35782 0.67634 0.76415 0.0
H4092 H 0.31866 0.67585 0.80607 0.0
C4093 C 0.37093 0.69513 0.77096 0.0
H4094 H 0.32764 0.65598 0.77124 0.0
C4095 C 0.36524 0.70697 0.79033 0.0
C4096 C 0.34667 0.69987 0.80344 0.0
H4097 H 0.38593 0.7003 0.76168 0.0
H4098 H 0.37613 0.72099 0.79562 0.0
C4099 C 0.33308 0.68154 0.79626 0.0
C4100 C 0.04458 0.64873 0.54532 0.0
C4101 C 0.03216 0.62907 0.55062 0.0
H4102 H 0.06994 0.66309 0.52395 0.0
C4103 C 0.03181 0.61058 0.53578 0.0
H4104 H 0.04501 0.66321 0.55658 0.0
C4105 C 0.04602 0.61056 0.51734 0.0
C4106 C 0.06041 0.62915 0.51339 0.0
H4107 H 0.02214 0.59534 0.53942 0.0
H4108 H 0.04705 0.59531 0.50713 0.0
C4109 C 0.05871 0.64876 0.52665 0.0
C4110 C 0.12049 0.26975 0.29487 0.0
C4111 C 0.1337 0.2788 0.31261 0.0
H4112 H 0.10893 0.27364 0.26099 0.0
C4113 C 0.14679 0.29848 0.30905 0.0
H4114 H 0.11006 0.25472 0.29719 0.0
C4115 C 0.14651 0.30902 0.28819 0.0
C4116 C 0.13259 0.30046 0.27074 0.0
H4117 H 0.15715 0.3058 0.32243 0.0
H4118 H 0.15677 0.32415 0.28588 0.0
C4119 C 0.11974 0.28063 0.2742 0.0
C4120 C 0.44174 0.60195 0.46727 0.0
C4121 C 0.45098 0.61691 0.48346 0.0
H4122 H 0.44312 0.58975 0.43344 0.0
C4123 C 0.46998 0.63036 0.47797 0.0
H4124 H 0.42738 0.59102 0.47121 0.0
C4125 C 0.47946 0.62897 0.45671 0.0
C4126 C 0.4698 0.61453 0.44032 0.0
H4127 H 0.47749 0.64199 0.49007 0.0
H4128 H 0.49412 0.63961 0.45294 0.0
C4129 C 0.45074 0.60112 0.44571 0.0
C4130 C 0.13846 0.70007 0.21262 0.0
C4131 C 0.11823 0.70952 0.20305 0.0
H4132 H 0.15375 0.68312 0.24067 0.0
C4133 C 0.09777 0.71044 0.21532 0.0
H4134 H 0.15446 0.69914 0.20343 0.0
C4135 C 0.09746 0.70148 0.23682 0.0
C4136 C 0.11753 0.69128 0.24599 0.0
H4137 H 0.08198 0.71765 0.20817 0.0
H4138 H 0.08142 0.70187 0.24596 0.0
C4139 C 0.13806 0.69086 0.23386 0.0
C4140 C 0.0596 0.35959 0.97435 0.0
C4141 C 0.07285 0.37709 0.98392 0.0
H4142 H 0.03824 0.34923 0.9467 0.0
C4143 C 0.07339 0.39849 0.97362 0.0
H4144 H 0.05894 0.34295 0.98205 0.0
C4145 C 0.0615 0.40211 0.95355 0.0
C4146 C 0.04901 0.38435 0.94351 0.0
H4147 H 0.08344 0.41228 0.98078 0.0
H4148 H 0.06269 0.41858 0.94558 0.0
C4149 C 0.04779 0.36318 0.95419 0.0
C4150 C 0.37639 0.28669 0.71102 0.0
C4151 C 0.36337 0.30541 0.71859 0.0
H4152 H 0.38291 0.26315 0.68447 0.0
C4153 C 0.34674 0.31524 0.70394 0.0
H4154 H 0.38942 0.2788 0.72173 0.0
C4155 C 0.3433 0.30658 0.68221 0.0
C4156 C 0.35601 0.28751 0.67486 0.0
H4157 H 0.33629 0.32962 0.7093 0.0
H4158 H 0.33027 0.31439 0.67145 0.0
C4159 C 0.37265 0.27778 0.68957 0.0
C4160 C 0.07653 0.42154 0.36791 0.0
C4161 C 0.07829 0.44345 0.37737 0.0
H4162 H 0.05399 0.3948 0.35662 0.0
C4163 C 0.05766 0.45541 0.38227 0.0
H4164 H 0.09199 0.41194 0.36368 0.0
C4165 C 0.03593 0.4456 0.37831 0.0
C4166 C 0.03413 0.42369 0.36899 0.0
H4167 H 0.05828 0.47236 0.38946 0.0
H4168 H 0.02047 0.45505 0.38287 0.0
C4169 C 0.0547 0.41185 0.36358 0.0
C4170 C 0.32747 0.32129 0.14329 0.0
C4171 C 0.3067 0.32836 0.133 0.0
H4172 H 0.35307 0.29484 0.14644 0.0
C4173 C 0.29631 0.31431 0.11668 0.0
H4174 H 0.33581 0.33183 0.15586 0.0
C4175 C 0.30658 0.29355 0.11069 0.0
C4176 C 0.3271 0.28626 0.12131 0.0
H4177 H 0.28039 0.31956 0.10827 0.0
H4178 H 0.29832 0.28308 0.09802 0.0
C4179 C 0.33736 0.30022 0.13777 0.0
C4180 C 0.42752 0.55154 0.90703 0.0
C4181 C 0.42141 0.53225 0.89447 0.0
H4182 H 0.45344 0.57673 0.91375 0.0
C4183 C 0.4373 0.52318 0.87916 0.0
H4184 H 0.41561 0.55879 0.91897 0.0
C4185 C 0.45827 0.53393 0.8755 0.0
C4186 C 0.46406 0.55366 0.88743 0.0
H4187 H 0.43303 0.50841 0.86906 0.0
H4188 H 0.46968 0.52712 0.86288 0.0
C4189 C 0.449 0.56187 0.90389 0.0
C4190 C 0.18495 0.68873 0.64183 0.0
C4191 C 0.20507 0.68072 0.63143 0.0
H4192 H 0.16265 0.71749 0.64782 0.0
C4193 C 0.21822 0.69581 0.61878 0.0
H4194 H 0.17458 0.67739 0.65168 0.0
C4195 C 0.21098 0.71832 0.61592 0.0
C4196 C 0.19076 0.72631 0.62607 0.0
H4197 H 0.23368 0.69002 0.61035 0.0
H4198 H 0.22114 0.7294 0.60559 0.0
C4199 C 0.17807 0.71154 0.63949 0.0
C4200 C 0.04855 0.5827 0.12732 0.0
C4201 C 0.02909 0.56974 0.13249 0.0
H4202 H 0.08477 0.58305 0.12109 0.0
C4203 C 0.03187 0.54644 0.13694 0.0
H4204 H 0.04673 0.60062 0.12332 0.0
C4205 C 0.05379 0.53604 0.13508 0.0
C4206 C 0.0731 0.54891 0.12875 0.0
H4207 H 0.01694 0.53604 0.14037 0.0
H4208 H 0.05544 0.51787 0.13789 0.0
C4209 C 0.07031 0.57249 0.12564 0.0
C4210 C 0.21465 0.28769 0.89045 0.0
C4211 C 0.1992 0.27613 0.87635 0.0
H4212 H 0.23144 0.31928 0.89765 0.0
C4213 C 0.18895 0.2876 0.85811 0.0
H4214 H 0.22257 0.27926 0.90471 0.0
C4215 C 0.19328 0.31058 0.85453 0.0
C4216 C 0.20855 0.3222 0.86872 0.0
H4217 H 0.1772 0.27886 0.8468 0.0
H4218 H 0.1851 0.31909 0.84044 0.0
C4219 C 0.21945 0.31057 0.88654 0.0
C4220 C 0.44273 0.41649 0.6026 0.0
C4221 C 0.45729 0.42329 0.62037 0.0
H4222 H 0.41019 0.42143 0.58542 0.0
C4223 C 0.45041 0.44148 0.63403 0.0
H4224 H 0.44779 0.4027 0.5916 0.0
C4225 C 0.42928 0.45268 0.62999 0.0
C4226 C 0.41446 0.44547 0.61258 0.0
H4227 H 0.46136 0.44708 0.64777 0.0
H4228 H 0.42429 0.46665 0.64083 0.0
C4229 C 0.42128 0.42721 0.59899 0.0
C4230 C 0.33688 0.67893 0.37634 0.0
C4231 C 0.31249 0.67828 0.37505 0.0
H4232 H 0.36724 0.69992 0.37827 0.0
C4233 C 0.30012 0.69902 0.37725 0.0
H4234 H 0.34703 0.66337 0.37492 0.0
C4235 C 0.31172 0.71983 0.37945 0.0
C4236 C 0.336 0.72055 0.38002 0.0
H4237 H 0.28135 0.69934 0.37644 0.0
H4238 H 0.30166 0.73554 0.37952 0.0
C4239 C 0.34848 0.69984 0.37875 0.0
C4240 C 0.37641 0.0316 0.41463 0.0
C4241 C 0.36381 0.01406 0.42474 0.0
H4242 H 0.38968 0.06577 0.41741 0.0
C4243 C 0.35567 0.01771 0.44638 0.0
H4244 H 0.38317 0.02925 0.39807 0.0
C4245 C 0.36015 0.03819 0.4577 0.0
C4246 C 0.37239 0.05592 0.44754 0.0
H4247 H 0.34595 0.00462 0.45467 0.0
H4248 H 0.35353 0.04032 0.47438 0.0
C4249 C 0.38026 0.05249 0.42573 0.0
C4250 C 0.88378 0.45615 0.56088 0.0
C4251 C 0.86598 0.4432 0.55121 0.0
H4252 H 0.89338 0.48787 0.57571 0.0
C4253 C 0.84382 0.45299 0.54819 0.0
H4254 H 0.90104 0.44903 0.56323 0.0
C4255 C 0.83949 0.47542 0.5551 0.0
C4256 C 0.85723 0.48812 0.56525 0.0
H4257 H 0.82987 0.44332 0.5406 0.0
H4258 H 0.82218 0.48254 0.55313 0.0
C4259 C 0.87943 0.4784 0.56786 0.0
C4260 C 0.28002 0.12418 0.27712 0.0
C4261 C 0.29457 0.139 0.2893 0.0
H4262 H 0.25101 0.10149 0.27797 0.0
C4263 C 0.29004 0.14314 0.31183 0.0
H4264 H 0.28338 0.12028 0.25982 0.0
C4265 C 0.27163 0.1324 0.32209 0.0
C4266 C 0.25758 0.117 0.31018 0.0
H4267 H 0.30109 0.15424 0.32168 0.0
H4268 H 0.26869 0.13588 0.33955 0.0
C4269 C 0.26175 0.11311 0.28755 0.0
C4270 C 0.64666 0.5356 0.04646 0.0
C4271 C 0.63993 0.53108 0.06832 0.0
H4272 H 0.64356 0.5581 0.01855 0.0
C4273 C 0.62458 0.54616 0.07898 0.0
H4274 H 0.65834 0.52413 0.03785 0.0
C4275 C 0.61641 0.5657 0.06814 0.0
C4276 C 0.62289 0.57011 0.04619 0.0
H4277 H 0.61888 0.54287 0.09573 0.0
H4278 H 0.60492 0.57728 0.07687 0.0
C4279 C 0.63797 0.55484 0.03537 0.0
C4280 C 0.69746 0.36835 0.31895 0.0
C4281 C 0.69536 0.37583 0.29684 0.0
H4282 H 0.71879 0.36659 0.34846 0.0
C4283 C 0.71344 0.38882 0.28798 0.0
H4284 H 0.68384 0.35842 0.32629 0.0
C4285 C 0.7331 0.39424 0.30095 0.0
C4286 C 0.73539 0.38632 0.3229 0.0
H4287 H 0.71222 0.39515 0.27108 0.0
H4288 H 0.74666 0.40427 0.29367 0.0
C4289 C 0.71742 0.37319 0.33169 0.0
C4290 C 0.12123 0.95701 0.96688 0.0
C4291 C 0.10793 0.94253 0.95309 0.0
H4292 H 0.14307 0.98637 0.96882 0.0
C4293 C 0.10579 0.94742 0.93031 0.0
H4294 H 0.12358 0.95344 0.98445 0.0
C4295 C 0.11679 0.96637 0.92147 0.0
C4296 C 0.13061 0.98043 0.93513 0.0
H4297 H 0.09588 0.93643 0.91927 0.0
H4298 H 0.11477 0.96982 0.90384 0.0
C4299 C 0.13268 0.97567 0.95792 0.0
C4300 C 0.27239 0.85186 0.16348 0.0
C4301 C 0.26012 0.86945 0.17429 0.0
H4302 H 0.30357 0.8315 0.16267 0.0
C4303 C 0.26908 0.87862 0.19412 0.0
H4304 H 0.26542 0.84398 0.14856 0.0
C4305 C 0.29025 0.87072 0.20272 0.0
C4306 C 0.30306 0.85389 0.19135 0.0
H4307 H 0.25991 0.89207 0.20285 0.0
H4308 H 0.29703 0.87851 0.21783 0.0
C4309 C 0.294 0.84449 0.17166 0.0
C4310 C 0.19666 0.13987 0.68873 0.0
C4311 C 0.19402 0.13665 0.71171 0.0
H4312 H 0.21858 0.13557 0.66057 0.0
C4313 C 0.21219 0.12611 0.72392 0.0
H4314 H 0.18298 0.14781 0.67883 0.0
C4315 C 0.23234 0.1186 0.71333 0.0
C4316 C 0.2349 0.1218 0.69038 0.0
H4317 H 0.21064 0.12309 0.74161 0.0
H4318 H 0.24589 0.11031 0.7231 0.0
C4319 C 0.21699 0.13273 0.67825 0.0
C4320 C 0.09698 0.06288 0.34877 0.0
C4321 C 0.08392 0.08154 0.34085 0.0
H4322 H 0.13068 0.04749 0.352 0.0
C4323 C 0.09452 0.09766 0.32722 0.0
H4324 H 0.08917 0.05016 0.35923 0.0
C4325 C 0.1182 0.09596 0.32281 0.0
C4326 C 0.13162 0.07824 0.33218 0.0
H4327 H 0.08477 0.11216 0.32083 0.0
H4328 H 0.12623 0.10932 0.31334 0.0
C4329 C 0.12068 0.06129 0.34454 0.0
C4330 C 0.19037 0.89486 0.61242 0.0
C4331 C 0.18162 0.90433 0.59254 0.0
H4332 H 0.19879 0.86442 0.63045 0.0
C4333 C 0.17741 0.89009 0.57415 0.0
H4334 H 0.19345 0.90559 0.62688 0.0
C4335 C 0.18001 0.86641 0.57632 0.0
C4336 C 0.18713 0.8568 0.59679 0.0
H4337 H 0.17022 0.89704 0.55882 0.0
H4338 H 0.17494 0.85555 0.56247 0.0
C4339 C 0.19342 0.87131 0.61445 0.0
C4340 C 0.40603 0.92092 0.868 0.0
C4341 C 0.41858 0.91159 0.85016 0.0
H4342 H 0.37276 0.92728 0.88235 0.0
C4343 C 0.40604 0.90327 0.83159 0.0
H4344 H 0.41508 0.9272 0.8827 0.0
C4345 C 0.3816 0.90287 0.83159 0.0
C4346 C 0.36917 0.91103 0.85005 0.0
H4347 H 0.4151 0.89548 0.81779 0.0
H4348 H 0.37249 0.89522 0.81758 0.0
C4349 C 0.3817 0.92081 0.86787 0.0
C4350 C 0.31624 0.12494 0.11055 0.0
C4351 C 0.32677 0.11115 0.09434 0.0
H4352 H 0.31221 0.15868 0.12396 0.0
C4353 C 0.33969 0.12151 0.07758 0.0
H4354 H 0.3063 0.11738 0.12371 0.0
C4355 C 0.34345 0.14502 0.07798 0.0
C4356 C 0.33398 0.15864 0.09488 0.0
H4357 H 0.34808 0.11129 0.06492 0.0
H4358 H 0.35453 0.15239 0.06558 0.0
C4359 C 0.31965 0.14855 0.11069 0.0
C4360 C 0.12069 0.89098 0.17168 0.0
C4361 C 0.13198 0.90797 0.15966 0.0
H4362 H 0.08869 0.87387 0.17745 0.0
C4363 C 0.11872 0.92309 0.14648 0.0
H4364 H 0.13052 0.879 0.18186 0.0
C4365 C 0.09478 0.92025 0.1441 0.0
C4366 C 0.08381 0.90206 0.15463 0.0
H4367 H 0.12701 0.93629 0.13698 0.0
H4368 H 0.08514 0.93143 0.13293 0.0
C4369 C 0.09679 0.88794 0.16905 0.0
C4370 C 0.33718 0.86982 0.38058 0.0
C4371 C 0.34395 0.8829 0.39921 0.0
H4372 H 0.33649 0.83687 0.36504 0.0
C4373 C 0.3531 0.87146 0.41802 0.0
H4374 H 0.33016 0.878 0.36577 0.0
C4375 C 0.3563 0.84757 0.41775 0.0
C4376 C 0.3508 0.83475 0.39852 0.0
H4377 H 0.35858 0.88104 0.4326 0.0
H4378 H 0.36444 0.83937 0.43202 0.0
C4379 C 0.34077 0.84617 0.38016 0.0
C4380 C 0.3998 0.06952 0.64868 0.0
C4381 C 0.41403 0.08111 0.66408 0.0
H4382 H 0.36537 0.06321 0.63665 0.0
C4383 C 0.40342 0.09329 0.6815 0.0
H4384 H 0.40741 0.06037 0.63484 0.0
C4385 C 0.37906 0.09532 0.68234 0.0
C4386 C 0.36499 0.08513 0.6658 0.0
H4387 H 0.41389 0.10295 0.69324 0.0
H4388 H 0.37136 0.10599 0.69506 0.0
C4389 C 0.37565 0.07144 0.64957 0.0
C4390 C 0.19364 0.14 0.91158 0.0
C4391 C 0.17552 0.15323 0.92033 0.0
H4392 H 0.2067 0.1063 0.90523 0.0
C4393 C 0.15805 0.14248 0.93235 0.0
H4394 H 0.2073 0.14787 0.90223 0.0
C4395 C 0.15787 0.11874 0.93435 0.0
C4396 C 0.175 0.10538 0.92409 0.0
H4397 H 0.14387 0.15232 0.93929 0.0
H4398 H 0.1435 0.11082 0.94263 0.0
C4399 C 0.1933 0.11623 0.91333 0.0
C4400 C 0.13143 0.32378 0.10884 0.0
C4401 C 0.11255 0.33528 0.09878 0.0
H4402 H 0.1469 0.31163 0.13928 0.0
C4403 C 0.09325 0.34101 0.11166 0.0
H4404 H 0.14652 0.31913 0.09924 0.0
C4405 C 0.09351 0.33682 0.13455 0.0
C4406 C 0.113 0.32665 0.14487 0.0
H4407 H 0.07844 0.34983 0.10429 0.0
H4408 H 0.07896 0.3426 0.14434 0.0
C4409 C 0.13161 0.31939 0.13171 0.0
C4410 C 0.60167 0.17765 0.88362 0.0
C4411 C 0.59422 0.16008 0.86935 0.0
H4412 H 0.60666 0.18835 0.91759 0.0
C4413 C 0.58236 0.1415 0.87817 0.0
H4414 H 0.61078 0.19218 0.87713 0.0
C4415 C 0.58007 0.13931 0.90107 0.0
C4416 C 0.58935 0.15578 0.91552 0.0
H4417 H 0.5762 0.12783 0.8675 0.0
H4418 H 0.57245 0.12394 0.90756 0.0
C4419 C 0.59914 0.17555 0.90668 0.0
C4420 C 0.91802 0.85167 0.37835 0.0
C4421 C 0.90518 0.83732 0.39213 0.0
H4422 H 0.92539 0.86216 0.34498 0.0
C4423 C 0.89072 0.82101 0.38189 0.0
H4424 H 0.9292 0.86453 0.38562 0.0
C4425 C 0.88871 0.81948 0.35852 0.0
C4426 C 0.90091 0.83441 0.34476 0.0
H4427 H 0.88047 0.80977 0.39196 0.0
H4428 H 0.87694 0.80715 0.35124 0.0
C4429 C 0.91583 0.85031 0.35501 0.0
C4430 C 0.90679 0.16011 0.11742 0.0
C4431 C 0.91984 0.14244 0.10774 0.0
H4432 H 0.89081 0.17302 0.14693 0.0
C4433 C 0.92885 0.12497 0.12137 0.0
H4434 H 0.89959 0.17374 0.10726 0.0
C4435 C 0.92351 0.12436 0.14401 0.0
C4436 C 0.90935 0.14136 0.15339 0.0
H4437 H 0.93883 0.11105 0.11429 0.0
H4438 H 0.92968 0.1101 0.15394 0.0
C4439 C 0.90172 0.15966 0.14009 0.0
C4440 C 0.40624 0.6565 0.64205 0.0
C4441 C 0.41109 0.63688 0.65467 0.0
H4442 H 0.40653 0.67194 0.6098 0.0
C4443 C 0.42293 0.61853 0.64475 0.0
H4444 H 0.3972 0.67092 0.64933 0.0
C4445 C 0.42862 0.61927 0.62219 0.0
C4446 C 0.42227 0.63826 0.6092 0.0
H4447 H 0.42693 0.60324 0.65416 0.0
H4448 H 0.43664 0.60442 0.61464 0.0
C4449 C 0.41166 0.65712 0.61947 0.0
C4450 C 0.07827 0.64393 0.37765 0.0
C4451 C 0.09003 0.66223 0.36816 0.0
H4452 H 0.06872 0.62731 0.40771 0.0
C4453 C 0.09709 0.68047 0.3818 0.0
H4454 H 0.07242 0.62973 0.36748 0.0
C4455 C 0.09449 0.67925 0.40493 0.0
C4456 C 0.08498 0.65972 0.41451 0.0
H4457 H 0.10612 0.69481 0.37482 0.0
H4458 H 0.10205 0.69242 0.41537 0.0
C4459 C 0.07589 0.64263 0.40064 0.0
C4460 C 0.38639 0.32006 0.85804 0.0
C4461 C 0.40004 0.33365 0.84423 0.0
H4462 H 0.37719 0.31132 0.89149 0.0
C4463 C 0.41645 0.34809 0.85445 0.0
H4464 H 0.37347 0.30887 0.8508 0.0
C4465 C 0.41872 0.34937 0.87781 0.0
C4466 C 0.4045 0.33638 0.89164 0.0
H4467 H 0.42716 0.35891 0.84438 0.0
H4468 H 0.43109 0.36113 0.88505 0.0
C4469 C 0.38852 0.32148 0.88141 0.0
C4470 C 0.87905 0.90104 0.67469 0.0
C4471 C 0.86484 0.91805 0.66513 0.0
H4472 H 0.91313 0.88623 0.67677 0.0
C4473 C 0.87499 0.93514 0.6523 0.0
H4474 H 0.87165 0.88758 0.68452 0.0
C4475 C 0.89871 0.93442 0.64793 0.0
C4476 C 0.91261 0.91648 0.65616 0.0
H4477 H 0.86439 0.94841 0.64468 0.0
H4478 H 0.90591 0.94722 0.63717 0.0
C4479 C 0.90275 0.9002 0.67014 0.0
C4480 C 0.80086 0.12526 0.38756 0.0
C4481 C 0.81369 0.13951 0.4018 0.0
H4482 H 0.7937 0.09093 0.37763 0.0
C4483 C 0.82686 0.12978 0.4193 0.0
H4484 H 0.79064 0.13231 0.37392 0.0
C4485 C 0.8286 0.1061 0.42149 0.0
C4486 C 0.81725 0.09183 0.40614 0.0
H4487 H 0.83693 0.14043 0.43054 0.0
H4488 H 0.83997 0.09902 0.43428 0.0
C4489 C 0.80266 0.10159 0.3897 0.0
C4490 C 0.59213 0.0781 0.12991 0.0
C4491 C 0.58038 0.08723 0.14833 0.0
H4492 H 0.62465 0.07182 0.11417 0.0
C4493 C 0.59371 0.09532 0.16651 0.0
H4494 H 0.58245 0.07202 0.1155 0.0
C4495 C 0.61817 0.09559 0.16558 0.0
C4496 C 0.62975 0.08764 0.14652 0.0
H4497 H 0.58525 0.10301 0.1807 0.0
H4498 H 0.62791 0.10299 0.17932 0.0
C4499 C 0.6164 0.07818 0.12908 0.0
C4500 C 0.68477 0.87192 0.88767 0.0
C4501 C 0.67729 0.88527 0.9057 0.0
H4502 H 0.68572 0.83879 0.87251 0.0
C4503 C 0.66671 0.87453 0.92372 0.0
H4504 H 0.69272 0.87983 0.87346 0.0
C4505 C 0.662 0.85112 0.92286 0.0
C4506 C 0.66837 0.83803 0.90424 0.0
H4507 H 0.66045 0.88449 0.93766 0.0
H4508 H 0.65253 0.84348 0.9363 0.0
C4509 C 0.68066 0.84845 0.8871 0.0
C4510 C 0.87694 0.10553 0.8258 0.0
C4511 C 0.86607 0.08773 0.83707 0.0
H4512 H 0.90859 0.12343 0.82054 0.0
C4513 C 0.87974 0.07211 0.84928 0.0
H4514 H 0.86679 0.1179 0.81639 0.0
C4515 C 0.90366 0.07521 0.85155 0.0
C4516 C 0.9142 0.09413 0.84186 0.0
H4517 H 0.87178 0.0583 0.8582 0.0
H4518 H 0.91361 0.0636 0.86203 0.0
C4519 C 0.90082 0.10878 0.8283 0.0
C4520 C 0.6462 0.12506 0.58268 0.0
C4521 C 0.65434 0.11345 0.60179 0.0
H4522 H 0.6356 0.15725 0.56842 0.0
C4523 C 0.65998 0.12637 0.62087 0.0
H4524 H 0.6416 0.11562 0.56775 0.0
C4525 C 0.65627 0.15002 0.62135 0.0
C4526 C 0.64727 0.1616 0.60262 0.0
H4527 H 0.6662 0.11806 0.63593 0.0
H4528 H 0.6597 0.15918 0.63675 0.0
C4529 C 0.64291 0.14893 0.58303 0.0
C4530 C 0.61787 0.89937 0.31581 0.0
C4531 C 0.63228 0.90902 0.3324 0.0
H4532 H 0.58281 0.89278 0.30496 0.0
C4533 C 0.62205 0.92276 0.34885 0.0
H4534 H 0.62523 0.88869 0.30292 0.0
C4535 C 0.59796 0.92525 0.34988 0.0
C4536 C 0.58336 0.91421 0.33442 0.0
H4537 H 0.6326 0.93059 0.3618 0.0
H4538 H 0.59066 0.93443 0.36386 0.0
C4539 C 0.59358 0.902 0.31679 0.0
C4540 C 0.80232 0.88152 0.08529 0.0
C4541 C 0.81996 0.89128 0.07267 0.0
H4542 H 0.78837 0.85077 0.09865 0.0
C4543 C 0.83536 0.87695 0.06122 0.0
H4544 H 0.79026 0.89222 0.09433 0.0
C4545 C 0.83438 0.85335 0.06383 0.0
C4546 C 0.81788 0.84366 0.07779 0.0
H4547 H 0.84913 0.884 0.05139 0.0
H4548 H 0.84735 0.84277 0.05584 0.0
C4549 C 0.80125 0.85783 0.08779 0.0
C4550 C 0.86369 0.67753 0.86468 0.0
C4551 C 0.88314 0.67093 0.85234 0.0
H4552 H 0.84736 0.67736 0.89651 0.0
C4553 C 0.90253 0.66151 0.86348 0.0
H4554 H 0.84846 0.68469 0.85645 0.0
C4555 C 0.90195 0.65744 0.88636 0.0
C4556 C 0.88188 0.66252 0.89841 0.0
H4557 H 0.91771 0.65623 0.85432 0.0
H4558 H 0.91676 0.64924 0.89437 0.0
C4559 C 0.86302 0.67323 0.88755 0.0
C4560 C 0.39908 0.81642 0.09117 0.0
C4561 C 0.40891 0.83586 0.08175 0.0
H4562 H 0.38776 0.80063 0.12127 0.0
C4563 C 0.41864 0.85256 0.09563 0.0
H4564 H 0.39106 0.80358 0.08065 0.0
C4565 C 0.41685 0.85087 0.11863 0.0
C4566 C 0.4049 0.83265 0.12807 0.0
H4567 H 0.42607 0.86778 0.08862 0.0
H4568 H 0.42331 0.86474 0.12888 0.0
C4569 C 0.39699 0.81485 0.11432 0.0
C4570 C 0.07906 0.14698 0.61972 0.0
C4571 C 0.09286 0.16018 0.6057 0.0
H4572 H 0.07123 0.13733 0.65327 0.0
C4573 C 0.10871 0.17535 0.61572 0.0
H4574 H 0.0668 0.13499 0.61265 0.0
C4575 C 0.11108 0.17688 0.63908 0.0
C4576 C 0.09786 0.16308 0.65308 0.0
H4577 H 0.11973 0.18567 0.60548 0.0
H4578 H 0.12388 0.18832 0.64615 0.0
C4579 C 0.08162 0.14831 0.64306 0.0
C4580 C 0.07607 0.87296 0.85308 0.0
C4581 C 0.08949 0.85557 0.84336 0.0
H4582 H 0.06179 0.88663 0.88312 0.0
C4583 C 0.09689 0.83705 0.85647 0.0
H4584 H 0.07012 0.88742 0.8433 0.0
C4585 C 0.09229 0.83669 0.87926 0.0
C4586 C 0.07996 0.85469 0.88923 0.0
H4587 H 0.10723 0.8234 0.84938 0.0
H4588 H 0.09926 0.82282 0.88924 0.0
C4589 C 0.07121 0.87246 0.87583 0.0
C4590 C 0.57585 0.36962 0.35108 0.0
C4591 C 0.59009 0.35251 0.34193 0.0
H4592 H 0.56043 0.38341 0.38057 0.0
C4593 C 0.59798 0.33462 0.35564 0.0
H4594 H 0.56951 0.38361 0.34087 0.0
C4595 C 0.59291 0.33459 0.37836 0.0
C4596 C 0.57965 0.35231 0.38775 0.0
H4597 H 0.60897 0.32121 0.34904 0.0
H4598 H 0.60021 0.3212 0.38876 0.0
C4599 C 0.57056 0.36945 0.37377 0.0
C4600 C 0.92047 0.35243 0.5962 0.0
C4601 C 0.91079 0.3357 0.58229 0.0
H4602 H 0.92412 0.36522 0.62935 0.0
C4603 C 0.90044 0.31655 0.59177 0.0
H4604 H 0.92827 0.36745 0.58917 0.0
C4605 C 0.89756 0.31546 0.61486 0.0
C4606 C 0.90518 0.33346 0.62851 0.0
H4607 H 0.89243 0.3037 0.58125 0.0
H4608 H 0.88787 0.30152 0.62176 0.0
C4609 C 0.91782 0.35125 0.61915 0.0
C4610 C 0.57986 0.64628 0.12001 0.0
C4611 C 0.59307 0.66043 0.10636 0.0
H4612 H 0.57172 0.63612 0.15331 0.0
C4613 C 0.60735 0.6768 0.11675 0.0
H4614 H 0.56879 0.63339 0.11264 0.0
C4615 C 0.60885 0.67854 0.14014 0.0
C4616 C 0.59629 0.66379 0.15378 0.0
H4617 H 0.61786 0.68792 0.10679 0.0
H4618 H 0.62052 0.69089 0.14754 0.0
C4619 C 0.58154 0.64785 0.14337 0.0
C4620 C 0.5974 0.56374 0.84905 0.0
C4621 C 0.5838 0.58215 0.84145 0.0
H4622 H 0.63142 0.5489 0.85132 0.0
C4623 C 0.59367 0.59838 0.82742 0.0
H4624 H 0.59015 0.55095 0.85981 0.0
C4625 C 0.6172 0.59705 0.82231 0.0
C4626 C 0.63121 0.57959 0.83134 0.0
H4627 H 0.58348 0.61269 0.82124 0.0
H4628 H 0.6247 0.6105 0.81254 0.0
C4629 C 0.62096 0.56251 0.84411 0.0
C4630 C 0.69532 0.36911 0.10527 0.0
C4631 C 0.6817 0.35521 0.0914 0.0
H4632 H 0.70324 0.40322 0.11543 0.0
C4633 C 0.66775 0.36537 0.07467 0.0
H4634 H 0.70613 0.36173 0.11834 0.0
C4635 C 0.66612 0.3891 0.07293 0.0
C4636 C 0.67832 0.40301 0.08798 0.0
H4637 H 0.65704 0.355 0.06374 0.0
H4638 H 0.6542 0.39648 0.06078 0.0
C4639 C 0.6936 0.39284 0.10361 0.0
C4640 C 0.90407 0.3989 0.33074 0.0
C4641 C 0.91713 0.40741 0.34892 0.0
H4642 H 0.87011 0.39057 0.31775 0.0
C4643 C 0.90509 0.41651 0.36716 0.0
H4644 H 0.91278 0.39116 0.31671 0.0
C4645 C 0.88082 0.41606 0.36783 0.0
C4646 C 0.86776 0.40624 0.35038 0.0
H4647 H 0.91456 0.42287 0.38159 0.0
H4648 H 0.87235 0.42245 0.3826 0.0
C4649 C 0.87962 0.39827 0.33148 0.0
C4650 C 0.84267 0.64619 0.57698 0.0
C4651 C 0.83329 0.65963 0.59406 0.0
H4652 H 0.84751 0.61258 0.56373 0.0
C4653 C 0.81921 0.64934 0.60996 0.0
H4654 H 0.85354 0.65374 0.56451 0.0
C4655 C 0.81604 0.6257 0.60974 0.0
C4656 C 0.82655 0.61209 0.59338 0.0
H4657 H 0.81184 0.65933 0.62337 0.0
H4658 H 0.80632 0.61797 0.62297 0.0
C4659 C 0.83915 0.62265 0.57652 0.0
C4660 C 0.61837 0.42514 0.64292 0.0
C4661 C 0.63183 0.41075 0.65668 0.0
H4662 H 0.58461 0.43269 0.62934 0.0
C4663 C 0.62074 0.39428 0.66955 0.0
H4664 H 0.62651 0.43789 0.63274 0.0
C4665 C 0.59684 0.39101 0.66727 0.0
C4666 C 0.58364 0.40439 0.65237 0.0
H4667 H 0.63071 0.38285 0.68019 0.0
H4668 H 0.5889 0.37732 0.67639 0.0
C4669 C 0.59442 0.42209 0.6409 0.0
C4670 C 0.84048 0.34688 0.87664 0.0
C4671 C 0.84955 0.33534 0.89538 0.0
H4672 H 0.83046 0.37879 0.86197 0.0
C4673 C 0.85397 0.34811 0.9149 0.0
H4674 H 0.837 0.33768 0.86128 0.0
C4675 C 0.85062 0.37201 0.91517 0.0
C4676 C 0.84239 0.38357 0.89605 0.0
H4677 H 0.86133 0.33986 0.92952 0.0
H4678 H 0.85525 0.3815 0.93006 0.0
C4679 C 0.83675 0.37055 0.87703 0.0
C4680 C 0.87893 0.59052 0.18441 0.0
C4681 C 0.86404 0.58517 0.16639 0.0
H4682 H 0.91439 0.59496 0.19538 0.0
C4683 C 0.87366 0.576 0.14695 0.0
H4684 H 0.87195 0.59781 0.19952 0.0
C4685 C 0.89762 0.57386 0.14478 0.0
C4686 C 0.91278 0.58127 0.16182 0.0
H4687 H 0.86263 0.57162 0.13282 0.0
H4688 H 0.90434 0.56808 0.12895 0.0
C4689 C 0.90321 0.5887 0.1821 0.0
C4690 C 0.6909 0.61471 0.41488 0.0
C4691 C 0.67229 0.60335 0.42459 0.0
H4692 H 0.70477 0.6468 0.40494 0.0
C4693 C 0.65443 0.61618 0.43432 0.0
H4694 H 0.70485 0.60516 0.40722 0.0
C4695 C 0.6542 0.63995 0.43269 0.0
C4696 C 0.67201 0.65121 0.42162 0.0
H4697 H 0.63982 0.60784 0.44179 0.0
H4698 H 0.6395 0.6494 0.43911 0.0
C4699 C 0.69084 0.6385 0.41355 0.0
C4700 C 0.62771 0.81976 0.63301 0.0
C4701 C 0.60963 0.82817 0.6462 0.0
H4702 H 0.64229 0.81817 0.60042 0.0
C4703 C 0.59063 0.83921 0.63588 0.0
H4704 H 0.64262 0.81131 0.64058 0.0
C4705 C 0.59037 0.84302 0.61292 0.0
C4706 C 0.60921 0.83604 0.59997 0.0
H4707 H 0.57648 0.84589 0.6457 0.0
H4708 H 0.576 0.85248 0.60554 0.0
C4709 C 0.62756 0.82377 0.61006 0.0
C4710 C 0.401 0.43326 0.15019 0.0
C4711 C 0.41436 0.41452 0.15742 0.0
H4712 H 0.36713 0.44839 0.14792 0.0
C4713 C 0.40422 0.398 0.17092 0.0
H4714 H 0.40847 0.44629 0.13987 0.0
C4715 C 0.38064 0.39936 0.17579 0.0
C4716 C 0.36687 0.41714 0.16703 0.0
H4717 H 0.41423 0.38344 0.1768 0.0
H4718 H 0.37292 0.38567 0.18508 0.0
C4719 C 0.3774 0.43452 0.15489 0.0
C4720 C 0.33418 0.60983 0.92053 0.0
C4721 C 0.32005 0.59499 0.90815 0.0
H4722 H 0.34485 0.64418 0.92608 0.0
C4723 C 0.30352 0.60423 0.89313 0.0
H4724 H 0.34713 0.60321 0.93214 0.0
C4725 C 0.30226 0.62785 0.88953 0.0
C4726 C 0.31747 0.64251 0.90095 0.0
H4727 H 0.29252 0.59315 0.88321 0.0
H4728 H 0.2903 0.63447 0.87701 0.0
C4729 C 0.33288 0.63332 0.91701 0.0
C4730 C 0.09256 0.57854 0.63231 0.0
C4731 C 0.08076 0.58871 0.65018 0.0
H4732 H 0.12512 0.57165 0.61688 0.0
C4733 C 0.09402 0.59785 0.66791 0.0
H4734 H 0.08293 0.57158 0.61826 0.0
C4735 C 0.11845 0.59822 0.66695 0.0
C4736 C 0.13007 0.58935 0.6483 0.0
H4737 H 0.08551 0.6063 0.68168 0.0
H4738 H 0.12814 0.60649 0.68025 0.0
C4739 C 0.11681 0.57877 0.63143 0.0
C4740 C 0.18161 0.37094 0.38705 0.0
C4741 C 0.17085 0.38468 0.40316 0.0
H4742 H 0.18604 0.3372 0.37375 0.0
C4743 C 0.15795 0.37425 0.41988 0.0
H4744 H 0.19156 0.37855 0.37392 0.0
C4745 C 0.15442 0.3507 0.41953 0.0
C4746 C 0.1641 0.33712 0.40272 0.0
H4747 H 0.14939 0.38443 0.43247 0.0
H4748 H 0.14334 0.34326 0.43189 0.0
C4749 C 0.17843 0.3473 0.38696 0.0
C4750 C 0.39901 0.60627 0.32795 0.0
C4751 C 0.41199 0.59222 0.34242 0.0
H4752 H 0.36521 0.61577 0.31576 0.0
C4753 C 0.40087 0.57457 0.35364 0.0
H4754 H 0.40723 0.61993 0.31902 0.0
C4755 C 0.37681 0.57231 0.35194 0.0
C4756 C 0.36361 0.58746 0.33876 0.0
H4757 H 0.41052 0.56346 0.36487 0.0
H4758 H 0.36843 0.5596 0.36198 0.0
C4759 C 0.37499 0.6038 0.32599 0.0
C4760 C 0.16353 0.62668 0.11928 0.0
C4761 C 0.15733 0.6135 0.10053 0.0
H4762 H 0.16328 0.65961 0.13489 0.0
C4763 C 0.14825 0.62482 0.08162 0.0
H4764 H 0.17046 0.6186 0.13418 0.0
C4765 C 0.14455 0.64864 0.08189 0.0
C4766 C 0.14944 0.66152 0.10122 0.0
H4767 H 0.14319 0.61516 0.06695 0.0
H4768 H 0.13651 0.65671 0.0675 0.0
C4769 C 0.15942 0.65026 0.1197 0.0
C4770 C 0.09375 0.40337 0.81711 0.0
C4771 C 0.0833 0.41522 0.83484 0.0
H4772 H 0.12567 0.39098 0.80298 0.0
C4773 C 0.09773 0.42644 0.85034 0.0
H4774 H 0.08316 0.39399 0.80525 0.0
C4775 C 0.12187 0.42457 0.84918 0.0
C4776 C 0.13239 0.41127 0.83255 0.0
H4777 H 0.09027 0.43534 0.86442 0.0
H4778 H 0.13228 0.43256 0.86214 0.0
C4779 C 0.11812 0.40136 0.81599 0.0
C4780 C 0.33858 0.35403 0.56513 0.0
C4781 C 0.32126 0.34327 0.57735 0.0
H4782 H 0.35291 0.3857 0.55463 0.0
C4783 C 0.30311 0.35644 0.5861 0.0
H4784 H 0.35276 0.34422 0.55817 0.0
C4785 C 0.30331 0.38019 0.58423 0.0
C4786 C 0.32151 0.39106 0.57334 0.0
H4787 H 0.28956 0.34856 0.59559 0.0
H4788 H 0.28993 0.3901 0.59237 0.0
C4789 C 0.33862 0.37775 0.56301 0.0
C4790 C 0.36627 0.17208 0.38872 0.0
C4791 C 0.38526 0.16087 0.39889 0.0
H4792 H 0.35062 0.18371 0.35816 0.0
C4793 C 0.40452 0.15498 0.386 0.0
H4794 H 0.3512 0.17682 0.39832 0.0
C4795 C 0.40413 0.15881 0.36304 0.0
C4796 C 0.38457 0.16877 0.35264 0.0
H4797 H 0.4194 0.14636 0.39344 0.0
H4798 H 0.41868 0.15296 0.35328 0.0
C4799 C 0.36597 0.17611 0.36577 0.0
loop_
_geom_bond_atom_site_label_1
_geom_bond_atom_site_label_2
_geom_bond_distance
_geom_bond_site_symmetry_2
_ccdc_geom_bond_type
Dy0 O4 2.398 . S
Dy0 O5 2.491 . S
Dy0 O6 2.401 1_455 S
Dy0 O7 2.664 1_455 S
Dy0 O11 2.326 . S
Dy0 O15 2.310 . S
Dy0 O16 2.351 1_455 S
C1 O12 1.185 . S
C1 O13 1.355 . S
C2 O4 1.185 . S
C2 O5 1.355 . S
Dy3 O7 2.310 . S
Dy3 O10 2.351 1_655 S
Dy3 O12 2.398 . S
Dy3 O13 2.491 . S
Dy3 O14 2.403 1_655 S
Dy3 O15 2.664 1_655 S
Dy3 O17 2.326 . S
O4 Dy0 2.398 . S
O4 C2 1.185 . S
O5 Dy0 2.491 . S
O5 C2 1.355 . S
O6 Dy0 2.401 1_655 S
O6 C8 1.257 . S
O7 Dy0 2.664 1_655 S
O7 Dy3 2.310 . S
O7 C8 1.268 . S
C8 O6 1.257 . S
C8 O7 1.268 . S
C9 O14 1.254 . S
C9 O15 1.268 . S
O10 Dy3 2.351 1_455 S
O10 C18 1.249 . S
O11 Dy0 2.326 . S
O11 C18 1.267 . S
O12 C1 1.185 . S
O12 Dy3 2.398 . S
O13 C1 1.355 . S
O13 Dy3 2.491 . S
O14 Dy3 2.403 1_455 S
O14 C9 1.254 . S
O15 Dy0 2.310 . S
O15 Dy3 2.664 1_455 S
O15 C9 1.268 . S
O16 Dy0 2.351 1_655 S
O16 C19 1.249 . S
O17 Dy3 2.326 . S
O17 C19 1.267 . S
C18 O10 1.249 . S
C18 O11 1.267 . S
C19 O16 1.249 . S
C19 O17 1.267 . S
Dy20 O24 2.398 . S
Dy20 O25 2.491 . S
Dy20 O26 2.403 . S
Dy20 O27 2.664 . S
Dy20 O31 2.326 . S
Dy20 O35 2.310 . S
Dy20 O36 2.351 . S
C21 O32 1.185 . S
C21 O33 1.355 . S
C22 O24 1.185 . S
C22 O25 1.355 . S
Dy23 O27 2.310 . S
Dy23 O30 2.351 . S
Dy23 O32 2.398 . S
Dy23 O33 2.491 . S
Dy23 O34 2.403 . S
Dy23 O35 2.664 . S
Dy23 O37 2.326 . S
O24 Dy20 2.398 . S
O24 C22 1.185 . S
O25 Dy20 2.491 . S
O25 C22 1.355 . S
O26 Dy20 2.403 . S
O26 C28 1.254 . S
O27 Dy20 2.664 . S
O27 Dy23 2.310 . S
O27 C28 1.268 . S
C28 O26 1.254 . S
C28 O27 1.268 . S
C29 O34 1.254 . S
C29 O35 1.268 . S
O30 Dy23 2.351 . S
O30 C38 1.249 . S
O31 Dy20 2.326 . S
O31 C38 1.267 . S
O32 C21 1.185 . S
O32 Dy23 2.398 . S
O33 C21 1.355 . S
O33 Dy23 2.491 . S
O34 Dy23 2.403 . S
O34 C29 1.254 . S
O35 Dy20 2.310 . S
O35 Dy23 2.664 . S
O35 C29 1.268 . S
O36 Dy20 2.351 . S
O36 C39 1.249 . S
O37 Dy23 2.326 . S
O37 C39 1.267 . S
C38 O30 1.249 . S
C38 O31 1.267 . S
C39 O36 1.249 . S
C39 O37 1.267 . S
Dy40 O44 2.398 . S
Dy40 O45 2.491 . S
Dy40 O46 2.403 . S
Dy40 O47 2.664 . S
Dy40 O51 2.326 . S
Dy40 O55 2.310 . S
Dy40 O56 2.351 . S
C41 O52 1.185 . S
C41 O53 1.355 . S
C42 O44 1.185 . S
C42 O45 1.355 . S
Dy43 O47 2.310 . S
Dy43 O50 2.351 . S
Dy43 O52 2.398 . S
Dy43 O53 2.491 . S
Dy43 O54 2.403 . S
Dy43 O55 2.664 . S
Dy43 O57 2.326 . S
O44 Dy40 2.398 . S
O44 C42 1.185 . S
O45 Dy40 2.491 . S
O45 C42 1.355 . S
O46 Dy40 2.403 . S
O46 C48 1.254 . S
O47 Dy40 2.664 . S
O47 Dy43 2.310 . S
O47 C48 1.268 . S
C48 O46 1.254 . S
C48 O47 1.268 . S
C49 O54 1.254 . S
C49 O55 1.268 . S
O50 Dy43 2.351 . S
O50 C58 1.249 . S
O51 Dy40 2.326 . S
O51 C58 1.267 . S
O52 C41 1.185 . S
O52 Dy43 2.398 . S
O53 C41 1.355 . S
O53 Dy43 2.491 . S
O54 Dy43 2.403 . S
O54 C49 1.254 . S
O55 Dy40 2.310 . S
O55 Dy43 2.664 . S
O55 C49 1.268 . S
O56 Dy40 2.351 . S
O56 C59 1.249 . S
O57 Dy43 2.326 . S
O57 C59 1.267 . S
C58 O50 1.249 . S
C58 O51 1.267 . S
C59 O56 1.249 . S
C59 O57 1.267 . S
Dy60 O64 2.398 . S
Dy60 O65 2.491 . S
Dy60 O66 2.403 . S
Dy60 O67 2.664 . S
Dy60 O71 2.326 . S
Dy60 O75 2.310 . S
Dy60 O76 2.351 . S
C61 O72 1.185 . S
C61 O73 1.355 . S
C62 O64 1.185 . S
C62 O65 1.355 . S
Dy63 O67 2.310 . S
Dy63 O70 2.351 . S
Dy63 O72 2.398 . S
Dy63 O73 2.491 . S
Dy63 O74 2.403 . S
Dy63 O75 2.664 . S
Dy63 O77 2.326 . S
O64 Dy60 2.398 . S
O64 C62 1.185 . S
O65 Dy60 2.491 . S
O65 C62 1.355 . S
O66 Dy60 2.403 . S
O66 C68 1.254 . S
O67 Dy60 2.664 . S
O67 Dy63 2.310 . S
O67 C68 1.268 . S
C68 O66 1.254 . S
C68 O67 1.268 . S
C69 O74 1.254 . S
C69 O75 1.268 . S
O70 Dy63 2.351 . S
O70 C78 1.249 . S
O71 Dy60 2.326 . S
O71 C78 1.267 . S
O72 C61 1.185 . S
O72 Dy63 2.398 . S
O73 C61 1.355 . S
O73 Dy63 2.491 . S
O74 Dy63 2.403 . S
O74 C69 1.254 . S
O75 Dy60 2.310 . S
O75 Dy63 2.664 . S
O75 C69 1.268 . S
O76 Dy60 2.351 . S
O76 C79 1.249 . S
O77 Dy63 2.326 . S
O77 C79 1.267 . S
C78 O70 1.249 . S
C78 O71 1.267 . S
C79 O76 1.249 . S
C79 O77 1.267 . S
Dy80 O84 2.398 . S
Dy80 O85 2.491 . S
Dy80 O86 2.392 1_455 S
Dy80 O87 2.664 1_455 S
Dy80 O91 2.326 . S
Dy80 O95 2.310 . S
Dy80 O96 2.351 1_455 S
C81 O92 1.185 . S
C81 O93 1.355 . S
C82 O84 1.185 . S
C82 O85 1.355 . S
Dy83 O87 2.310 . S
Dy83 O90 2.351 1_655 S
Dy83 O92 2.398 . S
Dy83 O93 2.491 . S
Dy83 O94 2.403 1_655 S
Dy83 O95 2.664 1_655 S
Dy83 O97 2.326 . S
O84 Dy80 2.398 . S
O84 C82 1.185 . S
O85 Dy80 2.491 . S
O85 C82 1.355 . S
O86 Dy80 2.392 1_655 S
O86 C88 1.268 . S
O87 Dy80 2.664 1_655 S
O87 Dy83 2.310 . S
O87 C88 1.268 . S
C88 O86 1.268 . S
C88 O87 1.268 . S
C89 O94 1.254 . S
C89 O95 1.268 . S
O90 Dy83 2.351 1_455 S
O90 C98 1.249 . S
O91 Dy80 2.326 . S
O91 C98 1.267 . S
O92 C81 1.185 . S
O92 Dy83 2.398 . S
O93 C81 1.355 . S
O93 Dy83 2.491 . S
O94 Dy83 2.403 1_455 S
O94 C89 1.254 . S
O95 Dy80 2.310 . S
O95 Dy83 2.664 1_455 S
O95 C89 1.268 . S
O96 Dy80 2.351 1_655 S
O96 C99 1.249 . S
O97 Dy83 2.326 . S
O97 C99 1.267 . S
C98 O90 1.249 . S
C98 O91 1.267 . S
C99 O96 1.249 . S
C99 O97 1.267 . S
Dy100 O104 2.398 . S
Dy100 O105 2.491 . S
Dy100 O106 2.403 . S
Dy100 O107 2.664 . S
Dy100 O111 2.326 . S
Dy100 O115 2.310 . S
Dy100 O116 2.351 . S
C101 O112 1.185 . S
C101 O113 1.355 . S
C102 O104 1.185 . S
C102 O105 1.355 . S
Dy103 O107 2.310 . S
Dy103 O110 2.351 . S
Dy103 O112 2.398 . S
Dy103 O113 2.491 . S
Dy103 O114 2.403 . S
Dy103 O115 2.664 . S
Dy103 O117 2.326 . S
O104 Dy100 2.398 . S
O104 C102 1.185 . S
O105 Dy100 2.491 . S
O105 C102 1.355 . S
O106 Dy100 2.403 . S
O106 C108 1.254 . S
O107 Dy100 2.664 . S
O107 Dy103 2.310 . S
O107 C108 1.268 . S
C108 O106 1.254 . S
C108 O107 1.268 . S
C109 O114 1.254 . S
C109 O115 1.268 . S
O110 Dy103 2.351 . S
O110 C118 1.249 . S
O111 Dy100 2.326 . S
O111 C118 1.267 . S
O112 C101 1.185 . S
O112 Dy103 2.398 . S
O113 C101 1.355 . S
O113 Dy103 2.491 . S
O114 Dy103 2.403 . S
O114 C109 1.254 . S
O115 Dy100 2.310 . S
O115 Dy103 2.664 . S
O115 C109 1.268 . S
O116 Dy100 2.351 . S
O116 C119 1.249 . S
O117 Dy103 2.326 . S
O117 C119 1.267 . S
C118 O110 1.249 . S
C118 O111 1.267 . S
C119 O116 1.249 . S
C119 O117 1.267 . S
Dy120 O124 2.398 . S
Dy120 O125 2.491 . S
Dy120 O126 2.403 . S
Dy120 O127 2.664 . S
Dy120 O131 2.326 . S
Dy120 O135 2.310 . S
Dy120 O136 2.351 . S
C121 O132 1.185 . S
C121 O133 1.355 . S
C122 O124 1.185 . S
C122 O125 1.355 . S
Dy123 O127 2.310 . S
Dy123 O130 2.351 . S
Dy123 O132 2.398 . S
Dy123 O133 2.491 . S
Dy123 O134 2.403 . S
Dy123 O135 2.664 . S
Dy123 O137 2.326 . S
O124 Dy120 2.398 . S
O124 C122 1.185 . S
O125 Dy120 2.491 . S
O125 C122 1.355 . S
O126 Dy120 2.403 . S
O126 C128 1.254 . S
O127 Dy120 2.664 . S
O127 Dy123 2.310 . S
O127 C128 1.268 . S
C128 O126 1.254 . S
C128 O127 1.268 . S
C129 O134 1.254 . S
C129 O135 1.268 . S
O130 Dy123 2.351 . S
O130 C138 1.249 . S
O131 Dy120 2.326 . S
O131 C138 1.267 . S
O132 C121 1.185 . S
O132 Dy123 2.398 . S
O133 C121 1.355 . S
O133 Dy123 2.491 . S
O134 Dy123 2.403 . S
O134 C129 1.254 . S
O135 Dy120 2.310 . S
O135 Dy123 2.664 . S
O135 C129 1.268 . S
O136 Dy120 2.351 . S
O136 C139 1.249 . S
O137 Dy123 2.326 . S
O137 C139 1.267 . S
C138 O130 1.249 . S
C138 O131 1.267 . S
C139 O136 1.249 . S
C139 O137 1.267 . S
Dy140 O144 2.398 . S
Dy140 O145 2.491 . S
Dy140 O146 2.403 . S
Dy140 O147 2.664 . S
Dy140 O151 2.326 . S
Dy140 O155 2.310 . S
Dy140 O156 2.351 . S
C141 O152 1.185 . S
C141 O153 1.355 . S
C142 O144 1.185 . S
C142 O145 1.355 . S
Dy143 O147 2.310 . S
Dy143 O150 2.351 . S
Dy143 O152 2.398 . S
Dy143 O153 2.491 . S
Dy143 O154 2.403 . S
Dy143 O155 2.664 . S
Dy143 O157 2.326 . S
O144 Dy140 2.398 . S
O144 C142 1.185 . S
O145 Dy140 2.491 . S
O145 C142 1.355 . S
O146 Dy140 2.403 . S
O146 C148 1.254 . S
O147 Dy140 2.664 . S
O147 Dy143 2.310 . S
O147 C148 1.268 . S
C148 O146 1.254 . S
C148 O147 1.268 . S
C149 O154 1.254 . S
C149 O155 1.268 . S
O150 Dy143 2.351 . S
O150 C158 1.249 . S
O151 Dy140 2.326 . S
O151 C158 1.267 . S
O152 C141 1.185 . S
O152 Dy143 2.398 . S
O153 C141 1.355 . S
O153 Dy143 2.491 . S
O154 Dy143 2.403 . S
O154 C149 1.254 . S
O155 Dy140 2.310 . S
O155 Dy143 2.664 . S
O155 C149 1.268 . S
O156 Dy140 2.351 . S
O156 C159 1.249 . S
O157 Dy143 2.326 . S
O157 C159 1.267 . S
C158 O150 1.249 . S
C158 O151 1.267 . S
C159 O156 1.249 . S
C159 O157 1.267 . S
Dy160 O164 2.398 . S
Dy160 O165 2.491 . S
Dy160 O166 2.403 . S
Dy160 O167 2.664 . S
Dy160 O171 2.326 . S
Dy160 O175 2.310 . S
Dy160 O176 2.351 . S
C161 O172 1.185 . S
C161 O173 1.355 . S
C162 O164 1.185 . S
C162 O165 1.355 . S
Dy163 O167 2.310 . S
Dy163 O170 2.351 . S
Dy163 O172 2.398 1_545 S
Dy163 O173 2.491 1_545 S
Dy163 O174 2.403 . S
Dy163 O175 2.664 . S
Dy163 O177 2.326 1_545 S
O164 Dy160 2.398 . S
O164 C162 1.185 . S
O165 Dy160 2.491 . S
O165 C162 1.355 . S
O166 Dy160 2.403 . S
O166 C168 1.254 . S
O167 Dy160 2.664 . S
O167 Dy163 2.310 . S
O167 C168 1.268 . S
C168 O166 1.254 . S
C168 O167 1.268 . S
C169 O174 1.254 . S
C169 O175 1.268 . S
O170 Dy163 2.351 . S
O170 C178 1.249 . S
O171 Dy160 2.326 . S
O171 C178 1.267 . S
O172 C161 1.185 . S
O172 Dy163 2.398 1_565 S
O173 C161 1.355 . S
O173 Dy163 2.491 1_565 S
O174 Dy163 2.403 . S
O174 C169 1.254 . S
O175 Dy160 2.310 . S
O175 Dy163 2.664 . S
O175 C169 1.268 . S
O176 Dy160 2.351 . S
O176 C179 1.249 . S
O177 Dy163 2.326 1_565 S
O177 C179 1.267 1_565 S
C178 O170 1.249 . S
C178 O171 1.267 . S
C179 O176 1.249 . S
C179 O177 1.267 1_545 S
Dy180 O184 2.398 . S
Dy180 O185 2.491 . S
Dy180 O186 2.403 . S
Dy180 O187 2.664 . S
Dy180 O191 2.326 . S
Dy180 O195 2.310 . S
Dy180 O196 2.351 . S
C181 O192 1.185 . S
C181 O193 1.355 . S
C182 O184 1.185 . S
C182 O185 1.355 . S
Dy183 O187 2.310 . S
Dy183 O190 2.351 . S
Dy183 O192 2.398 . S
Dy183 O193 2.491 . S
Dy183 O194 2.403 . S
Dy183 O195 2.664 . S
Dy183 O197 2.326 . S
O184 Dy180 2.398 . S
O184 C182 1.185 . S
O185 Dy180 2.491 . S
O185 C182 1.355 . S
O186 Dy180 2.403 . S
O186 C188 1.254 . S
O187 Dy180 2.664 . S
O187 Dy183 2.310 . S
O187 C188 1.268 . S
C188 O186 1.254 . S
C188 O187 1.268 . S
C189 O194 1.254 . S
C189 O195 1.268 . S
O190 Dy183 2.351 . S
O190 C198 1.249 . S
O191 Dy180 2.326 . S
O191 C198 1.267 . S
O192 C181 1.185 . S
O192 Dy183 2.398 . S
O193 C181 1.355 . S
O193 Dy183 2.491 . S
O194 Dy183 2.403 . S
O194 C189 1.254 . S
O195 Dy180 2.310 . S
O195 Dy183 2.664 . S
O195 C189 1.268 . S
O196 Dy180 2.351 . S
O196 C199 1.249 . S
O197 Dy183 2.326 . S
O197 C199 1.267 . S
C198 O190 1.249 . S
C198 O191 1.267 . S
C199 O196 1.249 . S
C199 O197 1.267 . S
Dy200 O204 2.398 . S
Dy200 O205 2.491 . S
Dy200 O206 2.403 . S
Dy200 O207 2.664 1_565 S
Dy200 O211 2.326 . S
Dy200 O215 2.310 . S
Dy200 O216 2.367 . S
C201 O212 1.185 . S
C201 O213 1.355 . S
C202 O204 1.185 . S
C202 O205 1.355 . S
Dy203 O207 2.310 . S
Dy203 O210 2.351 1_545 S
Dy203 O212 2.398 . S
Dy203 O213 2.491 . S
Dy203 O214 2.403 1_545 S
Dy203 O215 2.664 1_545 S
Dy203 O217 2.326 . S
O204 Dy200 2.398 . S
O204 C202 1.185 . S
O205 Dy200 2.491 . S
O205 C202 1.355 . S
O206 Dy200 2.403 . S
O206 C208 1.254 1_565 S
O207 Dy200 2.664 1_545 S
O207 Dy203 2.310 . S
O207 C208 1.268 . S
C208 O206 1.254 1_545 S
C208 O207 1.268 . S
C209 O214 1.254 . S
C209 O215 1.268 . S
O210 Dy203 2.351 1_565 S
O210 C218 1.249 . S
O211 Dy200 2.326 . S
O211 C218 1.267 . S
O212 C201 1.185 . S
O212 Dy203 2.398 . S
O213 C201 1.355 . S
O213 Dy203 2.491 . S
O214 Dy203 2.403 1_565 S
O214 C209 1.254 . S
O215 Dy200 2.310 . S
O215 Dy203 2.664 1_565 S
O215 C209 1.268 . S
O216 Dy200 2.367 . S
O216 C219 1.233 1_565 S
O217 Dy203 2.326 . S
O217 C219 1.267 . S
C218 O210 1.249 . S
C218 O211 1.267 . S
C219 O216 1.233 1_545 S
C219 O217 1.267 . S
Dy220 O224 2.398 . S
Dy220 O225 2.491 . S
Dy220 O226 2.403 . S
Dy220 O227 2.664 . S
Dy220 O231 2.326 . S
Dy220 O235 2.310 . S
Dy220 O236 2.351 . S
C221 O232 1.185 . S
C221 O233 1.355 . S
C222 O224 1.185 . S
C222 O225 1.355 . S
Dy223 O227 2.310 . S
Dy223 O230 2.351 . S
Dy223 O232 2.398 . S
Dy223 O233 2.491 . S
Dy223 O234 2.403 . S
Dy223 O235 2.664 . S
Dy223 O237 2.326 . S
O224 Dy220 2.398 . S
O224 C222 1.185 . S
O225 Dy220 2.491 . S
O225 C222 1.355 . S
O226 Dy220 2.403 . S
O226 C228 1.254 . S
O227 Dy220 2.664 . S
O227 Dy223 2.310 . S
O227 C228 1.268 . S
C228 O226 1.254 . S
C228 O227 1.268 . S
C229 O234 1.254 . S
C229 O235 1.268 . S
O230 Dy223 2.351 . S
O230 C238 1.249 . S
O231 Dy220 2.326 . S
O231 C238 1.267 . S
O232 C221 1.185 . S
O232 Dy223 2.398 . S
O233 C221 1.355 . S
O233 Dy223 2.491 . S
O234 Dy223 2.403 . S
O234 C229 1.254 . S
O235 Dy220 2.310 . S
O235 Dy223 2.664 . S
O235 C229 1.268 . S
O236 Dy220 2.351 . S
O236 C239 1.249 . S
O237 Dy223 2.326 . S
O237 C239 1.267 . S
C238 O230 1.249 . S
C238 O231 1.267 . S
C239 O236 1.249 . S
C239 O237 1.267 . S
Dy240 O244 2.398 . S
Dy240 O245 2.491 . S
Dy240 O246 2.403 . S
Dy240 O247 2.664 . S
Dy240 O251 2.326 . S
Dy240 O255 2.310 . S
Dy240 O256 2.351 . S
C241 O252 1.185 . S
C241 O253 1.355 . S
C242 O244 1.185 . S
C242 O245 1.355 . S
Dy243 O247 2.304 1_545 S
Dy243 O250 2.319 1_545 S
Dy243 O252 2.431 . S
Dy243 O253 2.536 . S
Dy243 O254 2.376 1_545 S
Dy243 O255 2.622 1_545 S
Dy243 O257 2.330 . S
O244 Dy240 2.398 . S
O244 C242 1.185 . S
O245 Dy240 2.491 . S
O245 C242 1.355 . S
O246 Dy240 2.403 . S
O246 C248 1.254 . S
O247 Dy240 2.664 . S
O247 Dy243 2.304 1_565 S
O247 C248 1.268 . S
C248 O246 1.254 . S
C248 O247 1.268 . S
C249 O254 1.254 . S
C249 O255 1.268 . S
O250 Dy243 2.319 1_565 S
O250 C258 1.249 . S
O251 Dy240 2.326 . S
O251 C258 1.267 . S
O252 C241 1.185 . S
O252 Dy243 2.431 . S
O253 C241 1.355 . S
O253 Dy243 2.536 . S
O254 Dy243 2.376 1_565 S
O254 C249 1.254 . S
O255 Dy240 2.310 . S
O255 Dy243 2.622 1_565 S
O255 C249 1.268 . S
O256 Dy240 2.351 . S
O256 C259 1.248 1_565 S
O257 Dy243 2.330 . S
O257 C259 1.267 . S
C258 O250 1.249 . S
C258 O251 1.267 . S
C259 O256 1.248 1_545 S
C259 O257 1.267 . S
Dy260 O264 2.398 . S
Dy260 O265 2.491 . S
Dy260 O266 2.403 . S
Dy260 O267 2.664 . S
Dy260 O271 2.326 . S
Dy260 O275 2.310 . S
Dy260 O276 2.351 . S
C261 O272 1.185 . S
C261 O273 1.355 . S
C262 O264 1.185 . S
C262 O265 1.355 . S
Dy263 O267 2.310 . S
Dy263 O270 2.351 . S
Dy263 O272 2.398 . S
Dy263 O273 2.491 . S
Dy263 O274 2.403 . S
Dy263 O275 2.664 . S
Dy263 O277 2.326 . S
O264 Dy260 2.398 . S
O264 C262 1.185 . S
O265 Dy260 2.491 . S
O265 C262 1.355 . S
O266 Dy260 2.403 . S
O266 C268 1.254 . S
O267 Dy260 2.664 . S
O267 Dy263 2.310 . S
O267 C268 1.268 . S
C268 O266 1.254 . S
C268 O267 1.268 . S
C269 O274 1.254 . S
C269 O275 1.268 . S
O270 Dy263 2.351 . S
O270 C278 1.249 . S
O271 Dy260 2.326 . S
O271 C278 1.267 . S
O272 C261 1.185 . S
O272 Dy263 2.398 . S
O273 C261 1.355 . S
O273 Dy263 2.491 . S
O274 Dy263 2.403 . S
O274 C269 1.254 . S
O275 Dy260 2.310 . S
O275 Dy263 2.664 . S
O275 C269 1.268 . S
O276 Dy260 2.351 . S
O276 C279 1.249 . S
O277 Dy263 2.326 . S
O277 C279 1.267 . S
C278 O270 1.249 . S
C278 O271 1.267 . S
C279 O276 1.249 . S
C279 O277 1.267 . S
Dy280 O284 2.398 . S
Dy280 O285 2.491 . S
Dy280 O286 2.403 . S
Dy280 O287 2.631 1_545 S
Dy280 O291 2.326 . S
Dy280 O295 2.310 . S
Dy280 O296 2.351 . S
C281 O292 1.185 . S
C281 O293 1.355 . S
C282 O284 1.185 . S
C282 O285 1.355 . S
Dy283 O287 2.313 . S
Dy283 O290 2.351 1_565 S
Dy283 O292 2.398 . S
Dy283 O293 2.491 . S
Dy283 O294 2.403 1_565 S
Dy283 O295 2.664 1_565 S
Dy283 O297 2.326 . S
O284 Dy280 2.398 . S
O284 C282 1.185 . S
O285 Dy280 2.491 . S
O285 C282 1.355 . S
O286 Dy280 2.403 . S
O286 C288 1.254 1_545 S
O287 Dy280 2.631 1_565 S
O287 Dy283 2.313 . S
O287 C288 1.269 . S
C288 O286 1.254 1_565 S
C288 O287 1.269 . S
C289 O294 1.254 . S
C289 O295 1.268 . S
O290 Dy283 2.351 1_545 S
O290 C298 1.249 . S
O291 Dy280 2.326 . S
O291 C298 1.267 . S
O292 C281 1.185 . S
O292 Dy283 2.398 . S
O293 C281 1.355 . S
O293 Dy283 2.491 . S
O294 Dy283 2.403 1_545 S
O294 C289 1.254 . S
O295 Dy280 2.310 . S
O295 Dy283 2.664 1_545 S
O295 C289 1.268 . S
O296 Dy280 2.351 . S
O296 C299 1.249 1_545 S
O297 Dy283 2.326 . S
O297 C299 1.267 . S
C298 O290 1.249 . S
C298 O291 1.267 . S
C299 O296 1.249 1_565 S
C299 O297 1.267 . S
Dy300 O304 2.398 . S
Dy300 O305 2.491 . S
Dy300 O306 2.403 . S
Dy300 O307 2.664 . S
Dy300 O311 2.326 . S
Dy300 O315 2.310 . S
Dy300 O316 2.351 . S
C301 O312 1.185 . S
C301 O313 1.355 . S
C302 O304 1.185 . S
C302 O305 1.355 . S
Dy303 O307 2.310 . S
Dy303 O310 2.351 . S
Dy303 O312 2.398 . S
Dy303 O313 2.491 . S
Dy303 O314 2.403 . S
Dy303 O315 2.664 . S
Dy303 O317 2.326 . S
O304 Dy300 2.398 . S
O304 C302 1.185 . S
O305 Dy300 2.491 . S
O305 C302 1.355 . S
O306 Dy300 2.403 . S
O306 C308 1.254 . S
O307 Dy300 2.664 . S
O307 Dy303 2.310 . S
O307 C308 1.268 . S
C308 O306 1.254 . S
C308 O307 1.268 . S
C309 O314 1.254 . S
C309 O315 1.268 . S
O310 Dy303 2.351 . S
O310 C318 1.249 . S
O311 Dy300 2.326 . S
O311 C318 1.267 . S
O312 C301 1.185 . S
O312 Dy303 2.398 . S
O313 C301 1.355 . S
O313 Dy303 2.491 . S
O314 Dy303 2.403 . S
O314 C309 1.254 . S
O315 Dy300 2.310 . S
O315 Dy303 2.664 . S
O315 C309 1.268 . S
O316 Dy300 2.351 . S
O316 C319 1.249 . S
O317 Dy303 2.326 . S
O317 C319 1.267 . S
C318 O310 1.249 . S
C318 O311 1.267 . S
C319 O316 1.249 . S
C319 O317 1.267 . S
Dy320 O324 2.398 . S
Dy320 O325 2.491 . S
Dy320 O326 2.403 . S
Dy320 O327 2.653 1_554 S
Dy320 O331 2.326 . S
Dy320 O335 2.310 . S
Dy320 O336 2.351 . S
C321 O332 1.185 . S
C321 O333 1.355 . S
C322 O324 1.185 . S
C322 O325 1.355 . S
Dy323 O327 2.311 . S
Dy323 O330 2.351 1_556 S
Dy323 O332 2.398 . S
Dy323 O333 2.491 . S
Dy323 O334 2.403 1_556 S
Dy323 O335 2.664 1_556 S
Dy323 O337 2.326 . S
O324 Dy320 2.398 . S
O324 C322 1.185 . S
O325 Dy320 2.491 . S
O325 C322 1.355 . S
O326 Dy320 2.403 . S
O326 C328 1.239 1_554 S
O327 Dy320 2.653 1_556 S
O327 Dy323 2.311 . S
O327 C328 1.268 . S
C328 O326 1.239 1_556 S
C328 O327 1.268 . S
C329 O334 1.254 . S
C329 O335 1.268 . S
O330 Dy323 2.351 1_554 S
O330 C338 1.249 . S
O331 Dy320 2.326 . S
O331 C338 1.267 . S
O332 C321 1.185 . S
O332 Dy323 2.398 . S
O333 C321 1.355 . S
O333 Dy323 2.491 . S
O334 Dy323 2.403 1_554 S
O334 C329 1.254 . S
O335 Dy320 2.310 . S
O335 Dy323 2.664 1_554 S
O335 C329 1.268 . S
O336 Dy320 2.351 . S
O336 C339 1.249 1_554 S
O337 Dy323 2.326 . S
O337 C339 1.267 . S
C338 O330 1.249 . S
C338 O331 1.267 . S
C339 O336 1.249 1_556 S
C339 O337 1.267 . S
Dy340 O344 2.398 1_556 S
Dy340 O345 2.491 1_556 S
Dy340 O346 2.403 . S
Dy340 O347 2.664 . S
Dy340 O351 2.326 1_556 S
Dy340 O355 2.310 . S
Dy340 O356 2.351 . S
C341 O352 1.185 . S
C341 O353 1.355 . S
C342 O344 1.185 . S
C342 O345 1.355 . S
Dy343 O347 2.310 . S
Dy343 O350 2.351 1_556 S
Dy343 O352 2.398 . S
Dy343 O353 2.491 . S
Dy343 O354 2.403 . S
Dy343 O355 2.664 . S
Dy343 O357 2.326 . S
O344 Dy340 2.398 1_554 S
O344 C342 1.185 . S
O345 Dy340 2.491 1_554 S
O345 C342 1.355 . S
O346 Dy340 2.403 . S
O346 C348 1.254 . S
O347 Dy340 2.664 . S
O347 Dy343 2.310 . S
O347 C348 1.268 . S
C348 O346 1.254 . S
C348 O347 1.268 . S
C349 O354 1.254 1_554 S
C349 O355 1.268 1_554 S
O350 Dy343 2.351 1_554 S
O350 C358 1.249 . S
O351 Dy340 2.326 1_554 S
O351 C358 1.267 . S
O352 C341 1.185 . S
O352 Dy343 2.398 . S
O353 C341 1.355 . S
O353 Dy343 2.491 . S
O354 Dy343 2.403 . S
O354 C349 1.254 1_556 S
O355 Dy340 2.310 . S
O355 Dy343 2.664 . S
O355 C349 1.268 1_556 S
O356 Dy340 2.351 . S
O356 C359 1.249 . S
O357 Dy343 2.326 . S
O357 C359 1.267 . S
C358 O350 1.249 . S
C358 O351 1.267 . S
C359 O356 1.249 . S
C359 O357 1.267 . S
Dy360 O364 2.398 . S
Dy360 O365 2.491 . S
Dy360 O366 2.403 . S
Dy360 O367 2.664 . S
Dy360 O371 2.326 . S
Dy360 O375 2.310 . S
Dy360 O376 2.351 . S
C361 O372 1.185 . S
C361 O373 1.355 . S
C362 O364 1.185 . S
C362 O365 1.355 . S
Dy363 O367 2.310 . S
Dy363 O370 2.351 . S
Dy363 O372 2.398 . S
Dy363 O373 2.491 . S
Dy363 O374 2.403 . S
Dy363 O375 2.664 . S
Dy363 O377 2.326 . S
O364 Dy360 2.398 . S
O364 C362 1.185 . S
O365 Dy360 2.491 . S
O365 C362 1.355 . S
O366 Dy360 2.403 . S
O366 C368 1.254 . S
O367 Dy360 2.664 . S
O367 Dy363 2.310 . S
O367 C368 1.268 . S
C368 O366 1.254 . S
C368 O367 1.268 . S
C369 O374 1.254 . S
C369 O375 1.268 . S
O370 Dy363 2.351 . S
O370 C378 1.249 . S
O371 Dy360 2.326 . S
O371 C378 1.267 . S
O372 C361 1.185 . S
O372 Dy363 2.398 . S
O373 C361 1.355 . S
O373 Dy363 2.491 . S
O374 Dy363 2.403 . S
O374 C369 1.254 . S
O375 Dy360 2.310 . S
O375 Dy363 2.664 . S
O375 C369 1.268 . S
O376 Dy360 2.351 . S
O376 C379 1.249 . S
O377 Dy363 2.326 . S
O377 C379 1.267 . S
C378 O370 1.249 . S
C378 O371 1.267 . S
C379 O376 1.249 . S
C379 O377 1.267 . S
Dy380 O384 2.398 . S
Dy380 O385 2.491 . S
Dy380 O386 2.403 . S
Dy380 O387 2.664 . S
Dy380 O391 2.326 . S
Dy380 O395 2.310 . S
Dy380 O396 2.351 . S
C381 O392 1.185 . S
C381 O393 1.355 . S
C382 O384 1.185 . S
C382 O385 1.355 . S
Dy383 O387 2.310 . S
Dy383 O390 2.351 . S
Dy383 O392 2.398 . S
Dy383 O393 2.491 . S
Dy383 O394 2.403 . S
Dy383 O395 2.664 . S
Dy383 O397 2.326 . S
O384 Dy380 2.398 . S
O384 C382 1.185 . S
O385 Dy380 2.491 . S
O385 C382 1.355 . S
O386 Dy380 2.403 . S
O386 C388 1.254 . S
O387 Dy380 2.664 . S
O387 Dy383 2.310 . S
O387 C388 1.268 . S
C388 O386 1.254 . S
C388 O387 1.268 . S
C389 O394 1.254 . S
C389 O395 1.268 . S
O390 Dy383 2.351 . S
O390 C398 1.249 . S
O391 Dy380 2.326 . S
O391 C398 1.267 . S
O392 C381 1.185 . S
O392 Dy383 2.398 . S
O393 C381 1.355 . S
O393 Dy383 2.491 . S
O394 Dy383 2.403 . S
O394 C389 1.254 . S
O395 Dy380 2.310 . S
O395 Dy383 2.664 . S
O395 C389 1.268 . S
O396 Dy380 2.351 . S
O396 C399 1.249 . S
O397 Dy383 2.326 . S
O397 C399 1.267 . S
C398 O390 1.249 . S
C398 O391 1.267 . S
C399 O396 1.249 . S
C399 O397 1.267 . S
Dy400 O404 2.398 . S
Dy400 O405 2.491 . S
Dy400 O406 2.403 . S
Dy400 O407 2.664 . S
Dy400 O411 2.326 . S
Dy400 O415 2.310 . S
Dy400 O416 2.351 . S
C401 O412 1.185 . S
C401 O413 1.355 . S
C402 O404 1.185 . S
C402 O405 1.355 . S
Dy403 O407 2.310 . S
Dy403 O410 2.351 . S
Dy403 O412 2.398 . S
Dy403 O413 2.491 . S
Dy403 O414 2.403 . S
Dy403 O415 2.664 . S
Dy403 O417 2.326 . S
O404 Dy400 2.398 . S
O404 C402 1.185 . S
O405 Dy400 2.491 . S
O405 C402 1.355 . S
O406 Dy400 2.403 . S
O406 C408 1.254 . S
O407 Dy400 2.664 . S
O407 Dy403 2.310 . S
O407 C408 1.268 . S
C408 O406 1.254 . S
C408 O407 1.268 . S
C409 O414 1.254 . S
C409 O415 1.268 . S
O410 Dy403 2.351 . S
O410 C418 1.249 . S
O411 Dy400 2.326 . S
O411 C418 1.267 . S
O412 C401 1.185 . S
O412 Dy403 2.398 . S
O413 C401 1.355 . S
O413 Dy403 2.491 . S
O414 Dy403 2.403 . S
O414 C409 1.254 . S
O415 Dy400 2.310 . S
O415 Dy403 2.664 . S
O415 C409 1.268 . S
O416 Dy400 2.351 . S
O416 C419 1.249 . S
O417 Dy403 2.326 . S
O417 C419 1.267 . S
C418 O410 1.249 . S
C418 O411 1.267 . S
C419 O416 1.249 . S
C419 O417 1.267 . S
Dy420 O424 2.398 . S
Dy420 O425 2.491 . S
Dy420 O426 2.403 . S
Dy420 O427 2.664 . S
Dy420 O431 2.326 . S
Dy420 O435 2.310 . S
Dy420 O436 2.351 . S
C421 O432 1.185 . S
C421 O433 1.355 . S
C422 O424 1.185 . S
C422 O425 1.355 . S
Dy423 O427 2.310 . S
Dy423 O430 2.351 . S
Dy423 O432 2.398 . S
Dy423 O433 2.491 . S
Dy423 O434 2.403 . S
Dy423 O435 2.664 . S
Dy423 O437 2.326 . S
O424 Dy420 2.398 . S
O424 C422 1.185 . S
O425 Dy420 2.491 . S
O425 C422 1.355 . S
O426 Dy420 2.403 . S
O426 C428 1.254 . S
O427 Dy420 2.664 . S
O427 Dy423 2.310 . S
O427 C428 1.268 . S
C428 O426 1.254 . S
C428 O427 1.268 . S
C429 O434 1.254 . S
C429 O435 1.268 . S
O430 Dy423 2.351 . S
O430 C438 1.249 . S
O431 Dy420 2.326 . S
O431 C438 1.267 . S
O432 C421 1.185 . S
O432 Dy423 2.398 . S
O433 C421 1.355 . S
O433 Dy423 2.491 . S
O434 Dy423 2.403 . S
O434 C429 1.254 . S
O435 Dy420 2.310 . S
O435 Dy423 2.664 . S
O435 C429 1.268 . S
O436 Dy420 2.351 . S
O436 C439 1.249 . S
O437 Dy423 2.326 . S
O437 C439 1.267 . S
C438 O430 1.249 . S
C438 O431 1.267 . S
C439 O436 1.249 . S
C439 O437 1.267 . S
Dy440 O444 2.398 . S
Dy440 O445 2.491 . S
Dy440 O446 2.403 . S
Dy440 O447 2.664 . S
Dy440 O451 2.326 . S
Dy440 O455 2.310 . S
Dy440 O456 2.351 . S
C441 O452 1.185 . S
C441 O453 1.355 . S
C442 O444 1.185 . S
C442 O445 1.355 . S
Dy443 O447 2.310 . S
Dy443 O450 2.351 . S
Dy443 O452 2.398 . S
Dy443 O453 2.491 . S
Dy443 O454 2.403 . S
Dy443 O455 2.664 . S
Dy443 O457 2.326 . S
O444 Dy440 2.398 . S
O444 C442 1.185 . S
O445 Dy440 2.491 . S
O445 C442 1.355 . S
O446 Dy440 2.403 . S
O446 C448 1.254 . S
O447 Dy440 2.664 . S
O447 Dy443 2.310 . S
O447 C448 1.268 . S
C448 O446 1.254 . S
C448 O447 1.268 . S
C449 O454 1.254 . S
C449 O455 1.268 . S
O450 Dy443 2.351 . S
O450 C458 1.249 . S
O451 Dy440 2.326 . S
O451 C458 1.267 . S
O452 C441 1.185 . S
O452 Dy443 2.398 . S
O453 C441 1.355 . S
O453 Dy443 2.491 . S
O454 Dy443 2.403 . S
O454 C449 1.254 . S
O455 Dy440 2.310 . S
O455 Dy443 2.664 . S
O455 C449 1.268 . S
O456 Dy440 2.351 . S
O456 C459 1.249 . S
O457 Dy443 2.326 . S
O457 C459 1.267 . S
C458 O450 1.249 . S
C458 O451 1.267 . S
C459 O456 1.249 . S
C459 O457 1.267 . S
Dy460 O464 2.398 . S
Dy460 O465 2.491 . S
Dy460 O466 2.403 . S
Dy460 O467 2.664 . S
Dy460 O471 2.326 . S
Dy460 O475 2.310 . S
Dy460 O476 2.351 . S
C461 O472 1.185 . S
C461 O473 1.355 . S
C462 O464 1.185 . S
C462 O465 1.355 . S
Dy463 O467 2.310 . S
Dy463 O470 2.351 . S
Dy463 O472 2.398 . S
Dy463 O473 2.491 . S
Dy463 O474 2.403 . S
Dy463 O475 2.664 . S
Dy463 O477 2.326 . S
O464 Dy460 2.398 . S
O464 C462 1.185 . S
O465 Dy460 2.491 . S
O465 C462 1.355 . S
O466 Dy460 2.403 . S
O466 C468 1.254 . S
O467 Dy460 2.664 . S
O467 Dy463 2.310 . S
O467 C468 1.268 . S
C468 O466 1.254 . S
C468 O467 1.268 . S
C469 O474 1.254 . S
C469 O475 1.268 . S
O470 Dy463 2.351 . S
O470 C478 1.249 . S
O471 Dy460 2.326 . S
O471 C478 1.267 . S
O472 C461 1.185 . S
O472 Dy463 2.398 . S
O473 C461 1.355 . S
O473 Dy463 2.491 . S
O474 Dy463 2.403 . S
O474 C469 1.254 . S
O475 Dy460 2.310 . S
O475 Dy463 2.664 . S
O475 C469 1.268 . S
O476 Dy460 2.351 . S
O476 C479 1.249 . S
O477 Dy463 2.326 . S
O477 C479 1.267 . S
C478 O470 1.249 . S
C478 O471 1.267 . S
C479 O476 1.249 . S
C479 O477 1.267 . S
Dy480 O484 2.398 . S
Dy480 O485 2.491 . S
Dy480 O486 2.403 1_455 S
Dy480 O487 2.664 1_455 S
Dy480 O491 2.326 . S
Dy480 O495 2.310 . S
Dy480 O496 2.351 1_455 S
C481 O492 1.185 . S
C481 O493 1.355 . S
C482 O484 1.185 . S
C482 O485 1.355 . S
Dy483 O487 2.310 . S
Dy483 O490 2.351 1_655 S
Dy483 O492 2.398 . S
Dy483 O493 2.491 . S
Dy483 O494 2.401 1_655 S
Dy483 O495 2.664 1_655 S
Dy483 O497 2.326 . S
O484 Dy480 2.398 . S
O484 C482 1.185 . S
O485 Dy480 2.491 . S
O485 C482 1.355 . S
O486 Dy480 2.403 1_655 S
O486 C488 1.254 . S
O487 Dy480 2.664 1_655 S
O487 Dy483 2.310 . S
O487 C488 1.268 . S
C488 O486 1.254 . S
C488 O487 1.268 . S
C489 O494 1.257 . S
C489 O495 1.268 . S
O490 Dy483 2.351 1_455 S
O490 C498 1.249 . S
O491 Dy480 2.326 . S
O491 C498 1.267 . S
O492 C481 1.185 . S
O492 Dy483 2.398 . S
O493 C481 1.355 . S
O493 Dy483 2.491 . S
O494 Dy483 2.401 1_455 S
O494 C489 1.257 . S
O495 Dy480 2.310 . S
O495 Dy483 2.664 1_455 S
O495 C489 1.268 . S
O496 Dy480 2.351 1_655 S
O496 C499 1.249 . S
O497 Dy483 2.326 . S
O497 C499 1.267 . S
C498 O490 1.249 . S
C498 O491 1.267 . S
C499 O496 1.249 . S
C499 O497 1.267 . S
Dy500 O504 2.398 . S
Dy500 O505 2.491 . S
Dy500 O506 2.403 . S
Dy500 O507 2.664 . S
Dy500 O511 2.326 . S
Dy500 O515 2.310 . S
Dy500 O516 2.351 . S
C501 O512 1.185 . S
C501 O513 1.355 . S
C502 O504 1.185 . S
C502 O505 1.355 . S
Dy503 O507 2.310 . S
Dy503 O510 2.351 . S
Dy503 O512 2.398 . S
Dy503 O513 2.491 . S
Dy503 O514 2.403 . S
Dy503 O515 2.664 . S
Dy503 O517 2.326 . S
O504 Dy500 2.398 . S
O504 C502 1.185 . S
O505 Dy500 2.491 . S
O505 C502 1.355 . S
O506 Dy500 2.403 . S
O506 C508 1.254 . S
O507 Dy500 2.664 . S
O507 Dy503 2.310 . S
O507 C508 1.268 . S
C508 O506 1.254 . S
C508 O507 1.268 . S
C509 O514 1.254 . S
C509 O515 1.268 . S
O510 Dy503 2.351 . S
O510 C518 1.249 . S
O511 Dy500 2.326 . S
O511 C518 1.267 . S
O512 C501 1.185 . S
O512 Dy503 2.398 . S
O513 C501 1.355 . S
O513 Dy503 2.491 . S
O514 Dy503 2.403 . S
O514 C509 1.254 . S
O515 Dy500 2.310 . S
O515 Dy503 2.664 . S
O515 C509 1.268 . S
O516 Dy500 2.351 . S
O516 C519 1.249 . S
O517 Dy503 2.326 . S
O517 C519 1.267 . S
C518 O510 1.249 . S
C518 O511 1.267 . S
C519 O516 1.249 . S
C519 O517 1.267 . S
Dy520 O524 2.398 . S
Dy520 O525 2.491 . S
Dy520 O526 2.403 . S
Dy520 O527 2.664 . S
Dy520 O531 2.326 . S
Dy520 O535 2.310 . S
Dy520 O536 2.351 . S
C521 O532 1.185 . S
C521 O533 1.355 . S
C522 O524 1.185 . S
C522 O525 1.355 . S
Dy523 O527 2.310 . S
Dy523 O530 2.351 . S
Dy523 O532 2.398 . S
Dy523 O533 2.491 . S
Dy523 O534 2.403 . S
Dy523 O535 2.664 . S
Dy523 O537 2.326 . S
O524 Dy520 2.398 . S
O524 C522 1.185 . S
O525 Dy520 2.491 . S
O525 C522 1.355 . S
O526 Dy520 2.403 . S
O526 C528 1.254 . S
O527 Dy520 2.664 . S
O527 Dy523 2.310 . S
O527 C528 1.268 . S
C528 O526 1.254 . S
C528 O527 1.268 . S
C529 O534 1.254 . S
C529 O535 1.268 . S
O530 Dy523 2.351 . S
O530 C538 1.249 . S
O531 Dy520 2.326 . S
O531 C538 1.267 . S
O532 C521 1.185 . S
O532 Dy523 2.398 . S
O533 C521 1.355 . S
O533 Dy523 2.491 . S
O534 Dy523 2.403 . S
O534 C529 1.254 . S
O535 Dy520 2.310 . S
O535 Dy523 2.664 . S
O535 C529 1.268 . S
O536 Dy520 2.351 . S
O536 C539 1.249 . S
O537 Dy523 2.326 . S
O537 C539 1.267 . S
C538 O530 1.249 . S
C538 O531 1.267 . S
C539 O536 1.249 . S
C539 O537 1.267 . S
Dy540 O544 2.398 . S
Dy540 O545 2.491 . S
Dy540 O546 2.403 . S
Dy540 O547 2.664 . S
Dy540 O551 2.326 . S
Dy540 O555 2.310 . S
Dy540 O556 2.351 . S
C541 O552 1.185 . S
C541 O553 1.355 . S
C542 O544 1.185 . S
C542 O545 1.355 . S
Dy543 O547 2.310 . S
Dy543 O550 2.351 . S
Dy543 O552 2.398 . S
Dy543 O553 2.491 . S
Dy543 O554 2.403 . S
Dy543 O555 2.664 . S
Dy543 O557 2.326 . S
O544 Dy540 2.398 . S
O544 C542 1.185 . S
O545 Dy540 2.491 . S
O545 C542 1.355 . S
O546 Dy540 2.403 . S
O546 C548 1.254 . S
O547 Dy540 2.664 . S
O547 Dy543 2.310 . S
O547 C548 1.268 . S
C548 O546 1.254 . S
C548 O547 1.268 . S
C549 O554 1.254 . S
C549 O555 1.268 . S
O550 Dy543 2.351 . S
O550 C558 1.249 . S
O551 Dy540 2.326 . S
O551 C558 1.267 . S
O552 C541 1.185 . S
O552 Dy543 2.398 . S
O553 C541 1.355 . S
O553 Dy543 2.491 . S
O554 Dy543 2.403 . S
O554 C549 1.254 . S
O555 Dy540 2.310 . S
O555 Dy543 2.664 . S
O555 C549 1.268 . S
O556 Dy540 2.351 . S
O556 C559 1.249 . S
O557 Dy543 2.326 . S
O557 C559 1.267 . S
C558 O550 1.249 . S
C558 O551 1.267 . S
C559 O556 1.249 . S
C559 O557 1.267 . S
Dy560 O564 2.398 . S
Dy560 O565 2.491 . S
Dy560 O566 2.403 1_455 S
Dy560 O567 2.664 1_455 S
Dy560 O571 2.326 . S
Dy560 O575 2.310 . S
Dy560 O576 2.351 1_455 S
C561 O572 1.185 . S
C561 O573 1.355 . S
C562 O564 1.185 . S
C562 O565 1.355 . S
Dy563 O567 2.310 . S
Dy563 O570 2.351 1_655 S
Dy563 O572 2.398 . S
Dy563 O573 2.491 . S
Dy563 O574 2.392 1_655 S
Dy563 O575 2.664 1_655 S
Dy563 O577 2.326 . S
O564 Dy560 2.398 . S
O564 C562 1.185 . S
O565 Dy560 2.491 . S
O565 C562 1.355 . S
O566 Dy560 2.403 1_655 S
O566 C568 1.254 . S
O567 Dy560 2.664 1_655 S
O567 Dy563 2.310 . S
O567 C568 1.268 . S
C568 O566 1.254 . S
C568 O567 1.268 . S
C569 O574 1.268 . S
C569 O575 1.268 . S
O570 Dy563 2.351 1_455 S
O570 C578 1.249 . S
O571 Dy560 2.326 . S
O571 C578 1.267 . S
O572 C561 1.185 . S
O572 Dy563 2.398 . S
O573 C561 1.355 . S
O573 Dy563 2.491 . S
O574 Dy563 2.392 1_455 S
O574 C569 1.268 . S
O575 Dy560 2.310 . S
O575 Dy563 2.664 1_455 S
O575 C569 1.268 . S
O576 Dy560 2.351 1_655 S
O576 C579 1.249 . S
O577 Dy563 2.326 . S
O577 C579 1.267 . S
C578 O570 1.249 . S
C578 O571 1.267 . S
C579 O576 1.249 . S
C579 O577 1.267 . S
Dy580 O584 2.398 . S
Dy580 O585 2.491 . S
Dy580 O586 2.403 . S
Dy580 O587 2.664 . S
Dy580 O591 2.326 . S
Dy580 O595 2.310 . S
Dy580 O596 2.351 . S
C581 O592 1.185 . S
C581 O593 1.355 . S
C582 O584 1.185 . S
C582 O585 1.355 . S
Dy583 O587 2.310 . S
Dy583 O590 2.351 . S
Dy583 O592 2.398 . S
Dy583 O593 2.491 . S
Dy583 O594 2.403 . S
Dy583 O595 2.664 . S
Dy583 O597 2.326 . S
O584 Dy580 2.398 . S
O584 C582 1.185 . S
O585 Dy580 2.491 . S
O585 C582 1.355 . S
O586 Dy580 2.403 . S
O586 C588 1.254 . S
O587 Dy580 2.664 . S
O587 Dy583 2.310 . S
O587 C588 1.268 . S
C588 O586 1.254 . S
C588 O587 1.268 . S
C589 O594 1.254 . S
C589 O595 1.268 . S
O590 Dy583 2.351 . S
O590 C598 1.249 . S
O591 Dy580 2.326 . S
O591 C598 1.267 . S
O592 C581 1.185 . S
O592 Dy583 2.398 . S
O593 C581 1.355 . S
O593 Dy583 2.491 . S
O594 Dy583 2.403 . S
O594 C589 1.254 . S
O595 Dy580 2.310 . S
O595 Dy583 2.664 . S
O595 C589 1.268 . S
O596 Dy580 2.351 . S
O596 C599 1.249 . S
O597 Dy583 2.326 . S
O597 C599 1.267 . S
C598 O590 1.249 . S
C598 O591 1.267 . S
C599 O596 1.249 . S
C599 O597 1.267 . S
Dy600 O604 2.398 . S
Dy600 O605 2.491 . S
Dy600 O606 2.403 . S
Dy600 O607 2.664 . S
Dy600 O611 2.326 . S
Dy600 O615 2.310 . S
Dy600 O616 2.351 . S
C601 O612 1.185 . S
C601 O613 1.355 . S
C602 O604 1.185 . S
C602 O605 1.355 . S
Dy603 O607 2.310 . S
Dy603 O610 2.351 . S
Dy603 O612 2.398 . S
Dy603 O613 2.491 . S
Dy603 O614 2.403 . S
Dy603 O615 2.664 . S
Dy603 O617 2.326 . S
O604 Dy600 2.398 . S
O604 C602 1.185 . S
O605 Dy600 2.491 . S
O605 C602 1.355 . S
O606 Dy600 2.403 . S
O606 C608 1.254 . S
O607 Dy600 2.664 . S
O607 Dy603 2.310 . S
O607 C608 1.268 . S
C608 O606 1.254 . S
C608 O607 1.268 . S
C609 O614 1.254 . S
C609 O615 1.268 . S
O610 Dy603 2.351 . S
O610 C618 1.249 . S
O611 Dy600 2.326 . S
O611 C618 1.267 . S
O612 C601 1.185 . S
O612 Dy603 2.398 . S
O613 C601 1.355 . S
O613 Dy603 2.491 . S
O614 Dy603 2.403 . S
O614 C609 1.254 . S
O615 Dy600 2.310 . S
O615 Dy603 2.664 . S
O615 C609 1.268 . S
O616 Dy600 2.351 . S
O616 C619 1.249 . S
O617 Dy603 2.326 . S
O617 C619 1.267 . S
C618 O610 1.249 . S
C618 O611 1.267 . S
C619 O616 1.249 . S
C619 O617 1.267 . S
Dy620 O624 2.398 . S
Dy620 O625 2.491 . S
Dy620 O626 2.403 . S
Dy620 O627 2.664 . S
Dy620 O631 2.326 . S
Dy620 O635 2.310 . S
Dy620 O636 2.351 . S
C621 O632 1.185 . S
C621 O633 1.355 . S
C622 O624 1.185 . S
C622 O625 1.355 . S
Dy623 O627 2.310 . S
Dy623 O630 2.351 . S
Dy623 O632 2.398 . S
Dy623 O633 2.491 . S
Dy623 O634 2.403 . S
Dy623 O635 2.664 . S
Dy623 O637 2.326 . S
O624 Dy620 2.398 . S
O624 C622 1.185 . S
O625 Dy620 2.491 . S
O625 C622 1.355 . S
O626 Dy620 2.403 . S
O626 C628 1.254 . S
O627 Dy620 2.664 . S
O627 Dy623 2.310 . S
O627 C628 1.268 . S
C628 O626 1.254 . S
C628 O627 1.268 . S
C629 O634 1.254 . S
C629 O635 1.268 . S
O630 Dy623 2.351 . S
O630 C638 1.249 . S
O631 Dy620 2.326 . S
O631 C638 1.267 . S
O632 C621 1.185 . S
O632 Dy623 2.398 . S
O633 C621 1.355 . S
O633 Dy623 2.491 . S
O634 Dy623 2.403 . S
O634 C629 1.254 . S
O635 Dy620 2.310 . S
O635 Dy623 2.664 . S
O635 C629 1.268 . S
O636 Dy620 2.351 . S
O636 C639 1.249 . S
O637 Dy623 2.326 . S
O637 C639 1.267 . S
C638 O630 1.249 . S
C638 O631 1.267 . S
C639 O636 1.249 . S
C639 O637 1.267 . S
Dy640 O644 2.398 1_565 S
Dy640 O645 2.491 1_565 S
Dy640 O646 2.403 . S
Dy640 O647 2.664 . S
Dy640 O651 2.326 1_565 S
Dy640 O655 2.310 . S
Dy640 O656 2.351 . S
C641 O652 1.185 . S
C641 O653 1.355 . S
C642 O644 1.185 . S
C642 O645 1.355 . S
Dy643 O647 2.310 . S
Dy643 O650 2.351 . S
Dy643 O652 2.398 . S
Dy643 O653 2.491 . S
Dy643 O654 2.403 . S
Dy643 O655 2.664 . S
Dy643 O657 2.326 . S
O644 Dy640 2.398 1_545 S
O644 C642 1.185 . S
O645 Dy640 2.491 1_545 S
O645 C642 1.355 . S
O646 Dy640 2.403 . S
O646 C648 1.254 . S
O647 Dy640 2.664 . S
O647 Dy643 2.310 . S
O647 C648 1.268 . S
C648 O646 1.254 . S
C648 O647 1.268 . S
C649 O654 1.254 . S
C649 O655 1.268 . S
O650 Dy643 2.351 . S
O650 C658 1.249 . S
O651 Dy640 2.326 1_545 S
O651 C658 1.267 1_545 S
O652 C641 1.185 . S
O652 Dy643 2.398 . S
O653 C641 1.355 . S
O653 Dy643 2.491 . S
O654 Dy643 2.403 . S
O654 C649 1.254 . S
O655 Dy640 2.310 . S
O655 Dy643 2.664 . S
O655 C649 1.268 . S
O656 Dy640 2.351 . S
O656 C659 1.249 . S
O657 Dy643 2.326 . S
O657 C659 1.267 . S
C658 O650 1.249 . S
C658 O651 1.267 1_565 S
C659 O656 1.249 . S
C659 O657 1.267 . S
Dy660 O664 2.398 . S
Dy660 O665 2.491 . S
Dy660 O666 2.403 . S
Dy660 O667 2.664 . S
Dy660 O671 2.326 . S
Dy660 O675 2.310 . S
Dy660 O676 2.351 . S
C661 O672 1.185 . S
C661 O673 1.355 . S
C662 O664 1.185 . S
C662 O665 1.355 . S
Dy663 O667 2.310 . S
Dy663 O670 2.351 . S
Dy663 O672 2.398 . S
Dy663 O673 2.491 . S
Dy663 O674 2.403 . S
Dy663 O675 2.664 . S
Dy663 O677 2.326 . S
O664 Dy660 2.398 . S
O664 C662 1.185 . S
O665 Dy660 2.491 . S
O665 C662 1.355 . S
O666 Dy660 2.403 . S
O666 C668 1.254 . S
O667 Dy660 2.664 . S
O667 Dy663 2.310 . S
O667 C668 1.268 . S
C668 O666 1.254 . S
C668 O667 1.268 . S
C669 O674 1.254 . S
C669 O675 1.268 . S
O670 Dy663 2.351 . S
O670 C678 1.249 . S
O671 Dy660 2.326 . S
O671 C678 1.267 . S
O672 C661 1.185 . S
O672 Dy663 2.398 . S
O673 C661 1.355 . S
O673 Dy663 2.491 . S
O674 Dy663 2.403 . S
O674 C669 1.254 . S
O675 Dy660 2.310 . S
O675 Dy663 2.664 . S
O675 C669 1.268 . S
O676 Dy660 2.351 . S
O676 C679 1.249 . S
O677 Dy663 2.326 . S
O677 C679 1.267 . S
C678 O670 1.249 . S
C678 O671 1.267 . S
C679 O676 1.249 . S
C679 O677 1.267 . S
Dy680 O684 2.398 . S
Dy680 O685 2.491 . S
Dy680 O686 2.403 1_565 S
Dy680 O687 2.664 1_565 S
Dy680 O691 2.326 . S
Dy680 O695 2.310 . S
Dy680 O696 2.351 1_565 S
C681 O692 1.185 . S
C681 O693 1.355 . S
C682 O684 1.185 . S
C682 O685 1.355 . S
Dy683 O687 2.310 . S
Dy683 O690 2.367 . S
Dy683 O692 2.398 . S
Dy683 O693 2.491 . S
Dy683 O694 2.403 . S
Dy683 O695 2.664 1_545 S
Dy683 O697 2.326 . S
O684 Dy680 2.398 . S
O684 C682 1.185 . S
O685 Dy680 2.491 . S
O685 C682 1.355 . S
O686 Dy680 2.403 1_545 S
O686 C688 1.254 . S
O687 Dy680 2.664 1_545 S
O687 Dy683 2.310 . S
O687 C688 1.268 . S
C688 O686 1.254 . S
C688 O687 1.268 . S
C689 O694 1.254 1_565 S
C689 O695 1.268 . S
O690 Dy683 2.367 . S
O690 C698 1.233 1_545 S
O691 Dy680 2.326 . S
O691 C698 1.267 . S
O692 C681 1.185 . S
O692 Dy683 2.398 . S
O693 C681 1.355 . S
O693 Dy683 2.491 . S
O694 Dy683 2.403 . S
O694 C689 1.254 1_545 S
O695 Dy680 2.310 . S
O695 Dy683 2.664 1_565 S
O695 C689 1.268 . S
O696 Dy680 2.351 1_545 S
O696 C699 1.249 . S
O697 Dy683 2.326 . S
O697 C699 1.267 . S
C698 O690 1.233 1_565 S
C698 O691 1.267 . S
C699 O696 1.249 . S
C699 O697 1.267 . S
Dy700 O704 2.398 . S
Dy700 O705 2.491 . S
Dy700 O706 2.403 . S
Dy700 O707 2.664 . S
Dy700 O711 2.326 . S
Dy700 O715 2.310 . S
Dy700 O716 2.351 . S
C701 O712 1.185 . S
C701 O713 1.355 . S
C702 O704 1.185 . S
C702 O705 1.355 . S
Dy703 O707 2.310 . S
Dy703 O710 2.351 . S
Dy703 O712 2.398 . S
Dy703 O713 2.491 . S
Dy703 O714 2.403 . S
Dy703 O715 2.664 . S
Dy703 O717 2.326 . S
O704 Dy700 2.398 . S
O704 C702 1.185 . S
O705 Dy700 2.491 . S
O705 C702 1.355 . S
O706 Dy700 2.403 . S
O706 C708 1.254 . S
O707 Dy700 2.664 . S
O707 Dy703 2.310 . S
O707 C708 1.268 . S
C708 O706 1.254 . S
C708 O707 1.268 . S
C709 O714 1.254 . S
C709 O715 1.268 . S
O710 Dy703 2.351 . S
O710 C718 1.249 . S
O711 Dy700 2.326 . S
O711 C718 1.267 . S
O712 C701 1.185 . S
O712 Dy703 2.398 . S
O713 C701 1.355 . S
O713 Dy703 2.491 . S
O714 Dy703 2.403 . S
O714 C709 1.254 . S
O715 Dy700 2.310 . S
O715 Dy703 2.664 . S
O715 C709 1.268 . S
O716 Dy700 2.351 . S
O716 C719 1.249 . S
O717 Dy703 2.326 . S
O717 C719 1.267 . S
C718 O710 1.249 . S
C718 O711 1.267 . S
C719 O716 1.249 . S
C719 O717 1.267 . S
Dy720 O724 2.431 . S
Dy720 O725 2.536 . S
Dy720 O726 2.376 1_565 S
Dy720 O727 2.622 1_565 S
Dy720 O731 2.330 . S
Dy720 O735 2.304 1_565 S
Dy720 O736 2.319 1_565 S
C721 O732 1.185 . S
C721 O733 1.355 . S
C722 O724 1.185 . S
C722 O725 1.355 . S
Dy723 O727 2.310 . S
Dy723 O730 2.351 . S
Dy723 O732 2.398 . S
Dy723 O733 2.491 . S
Dy723 O734 2.403 . S
Dy723 O735 2.664 . S
Dy723 O737 2.326 . S
O724 Dy720 2.431 . S
O724 C722 1.185 . S
O725 Dy720 2.536 . S
O725 C722 1.355 . S
O726 Dy720 2.376 1_545 S
O726 C728 1.254 . S
O727 Dy720 2.622 1_545 S
O727 Dy723 2.310 . S
O727 C728 1.268 . S
C728 O726 1.254 . S
C728 O727 1.268 . S
C729 O734 1.254 . S
C729 O735 1.268 . S
O730 Dy723 2.351 . S
O730 C738 1.248 1_545 S
O731 Dy720 2.330 . S
O731 C738 1.267 . S
O732 C721 1.185 . S
O732 Dy723 2.398 . S
O733 C721 1.355 . S
O733 Dy723 2.491 . S
O734 Dy723 2.403 . S
O734 C729 1.254 . S
O735 Dy720 2.304 1_545 S
O735 Dy723 2.664 . S
O735 C729 1.268 . S
O736 Dy720 2.319 1_545 S
O736 C739 1.249 . S
O737 Dy723 2.326 . S
O737 C739 1.267 . S
C738 O730 1.248 1_565 S
C738 O731 1.267 . S
C739 O736 1.249 . S
C739 O737 1.267 . S
Dy740 O744 2.398 . S
Dy740 O745 2.491 . S
Dy740 O746 2.403 . S
Dy740 O747 2.664 . S
Dy740 O751 2.326 . S
Dy740 O755 2.310 . S
Dy740 O756 2.351 . S
C741 O752 1.185 . S
C741 O753 1.355 . S
C742 O744 1.185 . S
C742 O745 1.355 . S
Dy743 O747 2.310 . S
Dy743 O750 2.351 . S
Dy743 O752 2.398 . S
Dy743 O753 2.491 . S
Dy743 O754 2.403 . S
Dy743 O755 2.664 . S
Dy743 O757 2.326 . S
O744 Dy740 2.398 . S
O744 C742 1.185 . S
O745 Dy740 2.491 . S
O745 C742 1.355 . S
O746 Dy740 2.403 . S
O746 C748 1.254 . S
O747 Dy740 2.664 . S
O747 Dy743 2.310 . S
O747 C748 1.268 . S
C748 O746 1.254 . S
C748 O747 1.268 . S
C749 O754 1.254 . S
C749 O755 1.268 . S
O750 Dy743 2.351 . S
O750 C758 1.249 . S
O751 Dy740 2.326 . S
O751 C758 1.267 . S
O752 C741 1.185 . S
O752 Dy743 2.398 . S
O753 C741 1.355 . S
O753 Dy743 2.491 . S
O754 Dy743 2.403 . S
O754 C749 1.254 . S
O755 Dy740 2.310 . S
O755 Dy743 2.664 . S
O755 C749 1.268 . S
O756 Dy740 2.351 . S
O756 C759 1.249 . S
O757 Dy743 2.326 . S
O757 C759 1.267 . S
C758 O750 1.249 . S
C758 O751 1.267 . S
C759 O756 1.249 . S
C759 O757 1.267 . S
Dy760 O764 2.398 . S
Dy760 O765 2.491 . S
Dy760 O766 2.403 1_545 S
Dy760 O767 2.664 1_545 S
Dy760 O771 2.326 . S
Dy760 O775 2.313 . S
Dy760 O776 2.351 1_545 S
C761 O772 1.185 . S
C761 O773 1.355 . S
C762 O764 1.185 . S
C762 O765 1.355 . S
Dy763 O767 2.310 . S
Dy763 O770 2.351 . S
Dy763 O772 2.398 . S
Dy763 O773 2.491 . S
Dy763 O774 2.403 . S
Dy763 O775 2.631 1_565 S
Dy763 O777 2.326 . S
O764 Dy760 2.398 . S
O764 C762 1.185 . S
O765 Dy760 2.491 . S
O765 C762 1.355 . S
O766 Dy760 2.403 1_565 S
O766 C768 1.254 . S
O767 Dy760 2.664 1_565 S
O767 Dy763 2.310 . S
O767 C768 1.268 . S
C768 O766 1.254 . S
C768 O767 1.268 . S
C769 O774 1.254 1_545 S
C769 O775 1.269 . S
O770 Dy763 2.351 . S
O770 C778 1.249 1_565 S
O771 Dy760 2.326 . S
O771 C778 1.267 . S
O772 C761 1.185 . S
O772 Dy763 2.398 . S
O773 C761 1.355 . S
O773 Dy763 2.491 . S
O774 Dy763 2.403 . S
O774 C769 1.254 1_565 S
O775 Dy760 2.313 . S
O775 Dy763 2.631 1_545 S
O775 C769 1.269 . S
O776 Dy760 2.351 1_565 S
O776 C779 1.249 . S
O777 Dy763 2.326 . S
O777 C779 1.267 . S
C778 O770 1.249 1_545 S
C778 O771 1.267 . S
C779 O776 1.249 . S
C779 O777 1.267 . S
Dy780 O784 2.398 . S
Dy780 O785 2.491 . S
Dy780 O786 2.403 . S
Dy780 O787 2.664 . S
Dy780 O791 2.326 . S
Dy780 O795 2.310 . S
Dy780 O796 2.351 . S
C781 O792 1.185 . S
C781 O793 1.355 . S
C782 O784 1.185 . S
C782 O785 1.355 . S
Dy783 O787 2.310 . S
Dy783 O790 2.351 . S
Dy783 O792 2.398 . S
Dy783 O793 2.491 . S
Dy783 O794 2.403 . S
Dy783 O795 2.664 . S
Dy783 O797 2.326 . S
O784 Dy780 2.398 . S
O784 C782 1.185 . S
O785 Dy780 2.491 . S
O785 C782 1.355 . S
O786 Dy780 2.403 . S
O786 C788 1.254 . S
O787 Dy780 2.664 . S
O787 Dy783 2.310 . S
O787 C788 1.268 . S
C788 O786 1.254 . S
C788 O787 1.268 . S
C789 O794 1.254 . S
C789 O795 1.268 . S
O790 Dy783 2.351 . S
O790 C798 1.249 . S
O791 Dy780 2.326 . S
O791 C798 1.267 . S
O792 C781 1.185 . S
O792 Dy783 2.398 . S
O793 C781 1.355 . S
O793 Dy783 2.491 . S
O794 Dy783 2.403 . S
O794 C789 1.254 . S
O795 Dy780 2.310 . S
O795 Dy783 2.664 . S
O795 C789 1.268 . S
O796 Dy780 2.351 . S
O796 C799 1.249 . S
O797 Dy783 2.326 . S
O797 C799 1.267 . S
C798 O790 1.249 . S
C798 O791 1.267 . S
C799 O796 1.249 . S
C799 O797 1.267 . S
Dy800 O804 2.398 . S
Dy800 O805 2.491 . S
Dy800 O806 2.403 1_554 S
Dy800 O807 2.664 1_554 S
Dy800 O811 2.326 . S
Dy800 O815 2.311 . S
Dy800 O816 2.351 1_554 S
C801 O812 1.185 . S
C801 O813 1.355 . S
C802 O804 1.185 . S
C802 O805 1.355 . S
Dy803 O807 2.310 . S
Dy803 O810 2.351 . S
Dy803 O812 2.398 . S
Dy803 O813 2.491 . S
Dy803 O814 2.403 . S
Dy803 O815 2.653 1_556 S
Dy803 O817 2.326 . S
O804 Dy800 2.398 . S
O804 C802 1.185 . S
O805 Dy800 2.491 . S
O805 C802 1.355 . S
O806 Dy800 2.403 1_556 S
O806 C808 1.254 . S
O807 Dy800 2.664 1_556 S
O807 Dy803 2.310 . S
O807 C808 1.268 . S
C808 O806 1.254 . S
C808 O807 1.268 . S
C809 O814 1.239 1_554 S
C809 O815 1.268 . S
O810 Dy803 2.351 . S
O810 C818 1.249 1_556 S
O811 Dy800 2.326 . S
O811 C818 1.267 . S
O812 C801 1.185 . S
O812 Dy803 2.398 . S
O813 C801 1.355 . S
O813 Dy803 2.491 . S
O814 Dy803 2.403 . S
O814 C809 1.239 1_556 S
O815 Dy800 2.311 . S
O815 Dy803 2.653 1_554 S
O815 C809 1.268 . S
O816 Dy800 2.351 1_556 S
O816 C819 1.249 . S
O817 Dy803 2.326 . S
O817 C819 1.267 . S
C818 O810 1.249 1_554 S
C818 O811 1.267 . S
C819 O816 1.249 . S
C819 O817 1.267 . S
Dy820 O824 2.398 . S
Dy820 O825 2.491 . S
Dy820 O826 2.403 . S
Dy820 O827 2.664 . S
Dy820 O831 2.326 . S
Dy820 O835 2.310 . S
Dy820 O836 2.351 1_554 S
C821 O832 1.185 . S
C821 O833 1.355 . S
C822 O824 1.185 . S
C822 O825 1.355 . S
Dy823 O827 2.310 . S
Dy823 O830 2.351 . S
Dy823 O832 2.398 1_554 S
Dy823 O833 2.491 1_554 S
Dy823 O834 2.403 . S
Dy823 O835 2.664 . S
Dy823 O837 2.326 1_554 S
O824 Dy820 2.398 . S
O824 C822 1.185 . S
O825 Dy820 2.491 . S
O825 C822 1.355 . S
O826 Dy820 2.403 . S
O826 C828 1.254 1_554 S
O827 Dy820 2.664 . S
O827 Dy823 2.310 . S
O827 C828 1.268 1_554 S
C828 O826 1.254 1_556 S
C828 O827 1.268 1_556 S
C829 O834 1.254 . S
C829 O835 1.268 . S
O830 Dy823 2.351 . S
O830 C838 1.249 . S
O831 Dy820 2.326 . S
O831 C838 1.267 . S
O832 C821 1.185 . S
O832 Dy823 2.398 1_556 S
O833 C821 1.355 . S
O833 Dy823 2.491 1_556 S
O834 Dy823 2.403 . S
O834 C829 1.254 . S
O835 Dy820 2.310 . S
O835 Dy823 2.664 . S
O835 C829 1.268 . S
O836 Dy820 2.351 1_556 S
O836 C839 1.249 . S
O837 Dy823 2.326 1_556 S
O837 C839 1.267 . S
C838 O830 1.249 . S
C838 O831 1.267 . S
C839 O836 1.249 . S
C839 O837 1.267 . S
Dy840 O844 2.398 . S
Dy840 O845 2.491 . S
Dy840 O846 2.403 . S
Dy840 O847 2.664 . S
Dy840 O851 2.326 . S
Dy840 O855 2.310 . S
Dy840 O856 2.351 . S
C841 O852 1.185 . S
C841 O853 1.355 . S
C842 O844 1.185 . S
C842 O845 1.355 . S
Dy843 O847 2.310 . S
Dy843 O850 2.351 . S
Dy843 O852 2.398 . S
Dy843 O853 2.491 . S
Dy843 O854 2.403 . S
Dy843 O855 2.664 . S
Dy843 O857 2.326 . S
O844 Dy840 2.398 . S
O844 C842 1.185 . S
O845 Dy840 2.491 . S
O845 C842 1.355 . S
O846 Dy840 2.403 . S
O846 C848 1.254 . S
O847 Dy840 2.664 . S
O847 Dy843 2.310 . S
O847 C848 1.268 . S
C848 O846 1.254 . S
C848 O847 1.268 . S
C849 O854 1.254 . S
C849 O855 1.268 . S
O850 Dy843 2.351 . S
O850 C858 1.249 . S
O851 Dy840 2.326 . S
O851 C858 1.267 . S
O852 C841 1.185 . S
O852 Dy843 2.398 . S
O853 C841 1.355 . S
O853 Dy843 2.491 . S
O854 Dy843 2.403 . S
O854 C849 1.254 . S
O855 Dy840 2.310 . S
O855 Dy843 2.664 . S
O855 C849 1.268 . S
O856 Dy840 2.351 . S
O856 C859 1.249 . S
O857 Dy843 2.326 . S
O857 C859 1.267 . S
C858 O850 1.249 . S
C858 O851 1.267 . S
C859 O856 1.249 . S
C859 O857 1.267 . S
Dy860 O864 2.398 . S
Dy860 O865 2.491 . S
Dy860 O866 2.403 . S
Dy860 O867 2.664 . S
Dy860 O871 2.326 . S
Dy860 O875 2.310 . S
Dy860 O876 2.351 . S
C861 O872 1.185 . S
C861 O873 1.355 . S
C862 O864 1.185 . S
C862 O865 1.355 . S
Dy863 O867 2.310 . S
Dy863 O870 2.351 . S
Dy863 O872 2.398 . S
Dy863 O873 2.491 . S
Dy863 O874 2.403 . S
Dy863 O875 2.664 . S
Dy863 O877 2.326 . S
O864 Dy860 2.398 . S
O864 C862 1.185 . S
O865 Dy860 2.491 . S
O865 C862 1.355 . S
O866 Dy860 2.403 . S
O866 C868 1.254 . S
O867 Dy860 2.664 . S
O867 Dy863 2.310 . S
O867 C868 1.268 . S
C868 O866 1.254 . S
C868 O867 1.268 . S
C869 O874 1.254 . S
C869 O875 1.268 . S
O870 Dy863 2.351 . S
O870 C878 1.249 . S
O871 Dy860 2.326 . S
O871 C878 1.267 . S
O872 C861 1.185 . S
O872 Dy863 2.398 . S
O873 C861 1.355 . S
O873 Dy863 2.491 . S
O874 Dy863 2.403 . S
O874 C869 1.254 . S
O875 Dy860 2.310 . S
O875 Dy863 2.664 . S
O875 C869 1.268 . S
O876 Dy860 2.351 . S
O876 C879 1.249 . S
O877 Dy863 2.326 . S
O877 C879 1.267 . S
C878 O870 1.249 . S
C878 O871 1.267 . S
C879 O876 1.249 . S
C879 O877 1.267 . S
Dy880 O884 2.398 . S
Dy880 O885 2.491 . S
Dy880 O886 2.403 . S
Dy880 O887 2.664 . S
Dy880 O891 2.326 . S
Dy880 O895 2.310 . S
Dy880 O896 2.351 . S
C881 O892 1.185 . S
C881 O893 1.355 . S
C882 O884 1.185 . S
C882 O885 1.355 . S
Dy883 O887 2.310 . S
Dy883 O890 2.351 . S
Dy883 O892 2.398 . S
Dy883 O893 2.491 . S
Dy883 O894 2.403 . S
Dy883 O895 2.664 . S
Dy883 O897 2.326 . S
O884 Dy880 2.398 . S
O884 C882 1.185 . S
O885 Dy880 2.491 . S
O885 C882 1.355 . S
O886 Dy880 2.403 . S
O886 C888 1.254 . S
O887 Dy880 2.664 . S
O887 Dy883 2.310 . S
O887 C888 1.268 . S
C888 O886 1.254 . S
C888 O887 1.268 . S
C889 O894 1.254 . S
C889 O895 1.268 . S
O890 Dy883 2.351 . S
O890 C898 1.249 . S
O891 Dy880 2.326 . S
O891 C898 1.267 . S
O892 C881 1.185 . S
O892 Dy883 2.398 . S
O893 C881 1.355 . S
O893 Dy883 2.491 . S
O894 Dy883 2.403 . S
O894 C889 1.254 . S
O895 Dy880 2.310 . S
O895 Dy883 2.664 . S
O895 C889 1.268 . S
O896 Dy880 2.351 . S
O896 C899 1.249 . S
O897 Dy883 2.326 . S
O897 C899 1.267 . S
C898 O890 1.249 . S
C898 O891 1.267 . S
C899 O896 1.249 . S
C899 O897 1.267 . S
Dy900 O904 2.398 . S
Dy900 O905 2.491 . S
Dy900 O906 2.403 . S
Dy900 O907 2.664 . S
Dy900 O911 2.326 . S
Dy900 O915 2.310 . S
Dy900 O916 2.351 . S
C901 O912 1.185 . S
C901 O913 1.355 . S
C902 O904 1.185 . S
C902 O905 1.355 . S
Dy903 O907 2.310 . S
Dy903 O910 2.351 . S
Dy903 O912 2.398 . S
Dy903 O913 2.491 . S
Dy903 O914 2.403 . S
Dy903 O915 2.664 . S
Dy903 O917 2.326 . S
O904 Dy900 2.398 . S
O904 C902 1.185 . S
O905 Dy900 2.491 . S
O905 C902 1.355 . S
O906 Dy900 2.403 . S
O906 C908 1.254 . S
O907 Dy900 2.664 . S
O907 Dy903 2.310 . S
O907 C908 1.268 . S
C908 O906 1.254 . S
C908 O907 1.268 . S
C909 O914 1.254 . S
C909 O915 1.268 . S
O910 Dy903 2.351 . S
O910 C918 1.249 . S
O911 Dy900 2.326 . S
O911 C918 1.267 . S
O912 C901 1.185 . S
O912 Dy903 2.398 . S
O913 C901 1.355 . S
O913 Dy903 2.491 . S
O914 Dy903 2.403 . S
O914 C909 1.254 . S
O915 Dy900 2.310 . S
O915 Dy903 2.664 . S
O915 C909 1.268 . S
O916 Dy900 2.351 . S
O916 C919 1.249 . S
O917 Dy903 2.326 . S
O917 C919 1.267 . S
C918 O910 1.249 . S
C918 O911 1.267 . S
C919 O916 1.249 . S
C919 O917 1.267 . S
Dy920 O924 2.398 . S
Dy920 O925 2.491 . S
Dy920 O926 2.403 . S
Dy920 O927 2.664 . S
Dy920 O931 2.326 . S
Dy920 O935 2.310 . S
Dy920 O936 2.351 . S
C921 O932 1.185 . S
C921 O933 1.355 . S
C922 O924 1.185 . S
C922 O925 1.355 . S
Dy923 O927 2.310 . S
Dy923 O930 2.351 . S
Dy923 O932 2.398 . S
Dy923 O933 2.491 . S
Dy923 O934 2.403 . S
Dy923 O935 2.664 . S
Dy923 O937 2.326 . S
O924 Dy920 2.398 . S
O924 C922 1.185 . S
O925 Dy920 2.491 . S
O925 C922 1.355 . S
O926 Dy920 2.403 . S
O926 C928 1.254 . S
O927 Dy920 2.664 . S
O927 Dy923 2.310 . S
O927 C928 1.268 . S
C928 O926 1.254 . S
C928 O927 1.268 . S
C929 O934 1.254 . S
C929 O935 1.268 . S
O930 Dy923 2.351 . S
O930 C938 1.249 . S
O931 Dy920 2.326 . S
O931 C938 1.267 . S
O932 C921 1.185 . S
O932 Dy923 2.398 . S
O933 C921 1.355 . S
O933 Dy923 2.491 . S
O934 Dy923 2.403 . S
O934 C929 1.254 . S
O935 Dy920 2.310 . S
O935 Dy923 2.664 . S
O935 C929 1.268 . S
O936 Dy920 2.351 . S
O936 C939 1.249 . S
O937 Dy923 2.326 . S
O937 C939 1.267 . S
C938 O930 1.249 . S
C938 O931 1.267 . S
C939 O936 1.249 . S
C939 O937 1.267 . S
Dy940 O944 2.398 . S
Dy940 O945 2.491 . S
Dy940 O946 2.403 . S
Dy940 O947 2.664 . S
Dy940 O951 2.326 . S
Dy940 O955 2.310 . S
Dy940 O956 2.351 . S
C941 O952 1.185 . S
C941 O953 1.355 . S
C942 O944 1.185 . S
C942 O945 1.355 . S
Dy943 O947 2.310 . S
Dy943 O950 2.351 . S
Dy943 O952 2.398 . S
Dy943 O953 2.491 . S
Dy943 O954 2.403 . S
Dy943 O955 2.664 . S
Dy943 O957 2.326 . S
O944 Dy940 2.398 . S
O944 C942 1.185 . S
O945 Dy940 2.491 . S
O945 C942 1.355 . S
O946 Dy940 2.403 . S
O946 C948 1.254 . S
O947 Dy940 2.664 . S
O947 Dy943 2.310 . S
O947 C948 1.268 . S
C948 O946 1.254 . S
C948 O947 1.268 . S
C949 O954 1.254 . S
C949 O955 1.268 . S
O950 Dy943 2.351 . S
O950 C958 1.249 . S
O951 Dy940 2.326 . S
O951 C958 1.267 . S
O952 C941 1.185 . S
O952 Dy943 2.398 . S
O953 C941 1.355 . S
O953 Dy943 2.491 . S
O954 Dy943 2.403 . S
O954 C949 1.254 . S
O955 Dy940 2.310 . S
O955 Dy943 2.664 . S
O955 C949 1.268 . S
O956 Dy940 2.351 . S
O956 C959 1.249 . S
O957 Dy943 2.326 . S
O957 C959 1.267 . S
C958 O950 1.249 . S
C958 O951 1.267 . S
C959 O956 1.249 . S
C959 O957 1.267 . S
Dy960 O964 2.398 . S
Dy960 O965 2.491 . S
Dy960 O966 2.403 . S
Dy960 O967 2.664 . S
Dy960 O971 2.326 . S
Dy960 O975 2.310 . S
Dy960 O976 2.351 . S
C961 O972 1.185 . S
C961 O973 1.355 . S
C962 O964 1.185 . S
C962 O965 1.355 . S
Dy963 O967 2.310 . S
Dy963 O970 2.351 . S
Dy963 O972 2.398 . S
Dy963 O973 2.491 . S
Dy963 O974 2.403 . S
Dy963 O975 2.664 . S
Dy963 O977 2.326 . S
O964 Dy960 2.398 . S
O964 C962 1.185 . S
O965 Dy960 2.491 . S
O965 C962 1.355 . S
O966 Dy960 2.403 . S
O966 C968 1.254 . S
O967 Dy960 2.664 . S
O967 Dy963 2.310 . S
O967 C968 1.268 . S
C968 O966 1.254 . S
C968 O967 1.268 . S
C969 O974 1.254 . S
C969 O975 1.268 . S
O970 Dy963 2.351 . S
O970 C978 1.249 . S
O971 Dy960 2.326 . S
O971 C978 1.267 . S
O972 C961 1.185 . S
O972 Dy963 2.398 . S
O973 C961 1.355 . S
O973 Dy963 2.491 . S
O974 Dy963 2.403 . S
O974 C969 1.254 . S
O975 Dy960 2.310 . S
O975 Dy963 2.664 . S
O975 C969 1.268 . S
O976 Dy960 2.351 . S
O976 C979 1.249 . S
O977 Dy963 2.326 . S
O977 C979 1.267 . S
C978 O970 1.249 . S
C978 O971 1.267 . S
C979 O976 1.249 . S
C979 O977 1.267 . S
Dy980 O984 2.398 . S
Dy980 O985 2.491 . S
Dy980 O986 2.403 . S
Dy980 O987 2.664 . S
Dy980 O991 2.326 . S
Dy980 O995 2.310 . S
Dy980 O996 2.351 . S
C981 O992 1.185 . S
C981 O993 1.355 . S
C982 O984 1.185 . S
C982 O985 1.355 . S
Dy983 O987 2.310 . S
Dy983 O990 2.351 . S
Dy983 O992 2.398 . S
Dy983 O993 2.491 . S
Dy983 O994 2.403 . S
Dy983 O995 2.664 . S
Dy983 O997 2.326 . S
O984 Dy980 2.398 . S
O984 C982 1.185 . S
O985 Dy980 2.491 . S
O985 C982 1.355 . S
O986 Dy980 2.403 . S
O986 C988 1.254 . S
O987 Dy980 2.664 . S
O987 Dy983 2.310 . S
O987 C988 1.268 . S
C988 O986 1.254 . S
C988 O987 1.268 . S
C989 O994 1.254 . S
C989 O995 1.268 . S
O990 Dy983 2.351 . S
O990 C998 1.249 . S
O991 Dy980 2.326 . S
O991 C998 1.267 . S
O992 C981 1.185 . S
O992 Dy983 2.398 . S
O993 C981 1.355 . S
O993 Dy983 2.491 . S
O994 Dy983 2.403 . S
O994 C989 1.254 . S
O995 Dy980 2.310 . S
O995 Dy983 2.664 . S
O995 C989 1.268 . S
O996 Dy980 2.351 . S
O996 C999 1.249 . S
O997 Dy983 2.326 . S
O997 C999 1.267 . S
C998 O990 1.249 . S
C998 O991 1.267 . S
C999 O996 1.249 . S
C999 O997 1.267 . S
Dy1000 O1004 2.398 1_655 S
Dy1000 O1005 2.491 1_655 S
Dy1000 O1006 2.403 . S
Dy1000 O1007 2.664 . S
Dy1000 O1011 2.326 1_655 S
Dy1000 O1015 2.310 1_655 S
Dy1000 O1016 2.351 . S
C1001 O1012 1.185 . S
C1001 O1013 1.355 . S
C1002 O1004 1.185 . S
C1002 O1005 1.355 . S
Dy1003 O1007 2.310 . S
Dy1003 O1010 2.351 1_655 S
Dy1003 O1012 2.398 . S
Dy1003 O1013 2.491 . S
Dy1003 O1014 2.403 1_655 S
Dy1003 O1015 2.664 1_655 S
Dy1003 O1017 2.326 . S
O1004 Dy1000 2.398 1_455 S
O1004 C1002 1.185 . S
O1005 Dy1000 2.491 1_455 S
O1005 C1002 1.355 . S
O1006 Dy1000 2.403 . S
O1006 C1008 1.254 . S
O1007 Dy1000 2.664 . S
O1007 Dy1003 2.310 . S
O1007 C1008 1.268 . S
C1008 O1006 1.254 . S
C1008 O1007 1.268 . S
C1009 O1014 1.254 . S
C1009 O1015 1.268 . S
O1010 Dy1003 2.351 1_455 S
O1010 C1018 1.249 . S
O1011 Dy1000 2.326 1_455 S
O1011 C1018 1.267 . S
O1012 C1001 1.185 . S
O1012 Dy1003 2.398 . S
O1013 C1001 1.355 . S
O1013 Dy1003 2.491 . S
O1014 Dy1003 2.403 1_455 S
O1014 C1009 1.254 . S
O1015 Dy1000 2.310 1_455 S
O1015 Dy1003 2.664 1_455 S
O1015 C1009 1.268 . S
O1016 Dy1000 2.351 . S
O1016 C1019 1.249 . S
O1017 Dy1003 2.326 . S
O1017 C1019 1.267 . S
C1018 O1010 1.249 . S
C1018 O1011 1.267 . S
C1019 O1016 1.249 . S
C1019 O1017 1.267 . S
Dy1020 O1024 2.398 . S
Dy1020 O1025 2.491 . S
Dy1020 O1026 2.403 . S
Dy1020 O1027 2.664 . S
Dy1020 O1031 2.326 . S
Dy1020 O1035 2.310 . S
Dy1020 O1036 2.351 . S
C1021 O1032 1.185 . S
C1021 O1033 1.355 . S
C1022 O1024 1.185 . S
C1022 O1025 1.355 . S
Dy1023 O1027 2.310 . S
Dy1023 O1030 2.351 . S
Dy1023 O1032 2.398 . S
Dy1023 O1033 2.491 . S
Dy1023 O1034 2.403 . S
Dy1023 O1035 2.664 . S
Dy1023 O1037 2.326 . S
O1024 Dy1020 2.398 . S
O1024 C1022 1.185 . S
O1025 Dy1020 2.491 . S
O1025 C1022 1.355 . S
O1026 Dy1020 2.403 . S
O1026 C1028 1.254 . S
O1027 Dy1020 2.664 . S
O1027 Dy1023 2.310 . S
O1027 C1028 1.268 . S
C1028 O1026 1.254 . S
C1028 O1027 1.268 . S
C1029 O1034 1.254 . S
C1029 O1035 1.268 . S
O1030 Dy1023 2.351 . S
O1030 C1038 1.249 . S
O1031 Dy1020 2.326 . S
O1031 C1038 1.267 . S
O1032 C1021 1.185 . S
O1032 Dy1023 2.398 . S
O1033 C1021 1.355 . S
O1033 Dy1023 2.491 . S
O1034 Dy1023 2.403 . S
O1034 C1029 1.254 . S
O1035 Dy1020 2.310 . S
O1035 Dy1023 2.664 . S
O1035 C1029 1.268 . S
O1036 Dy1020 2.351 . S
O1036 C1039 1.249 . S
O1037 Dy1023 2.326 . S
O1037 C1039 1.267 . S
C1038 O1030 1.249 . S
C1038 O1031 1.267 . S
C1039 O1036 1.249 . S
C1039 O1037 1.267 . S
Dy1040 O1044 2.398 . S
Dy1040 O1045 2.491 . S
Dy1040 O1046 2.403 . S
Dy1040 O1047 2.664 . S
Dy1040 O1051 2.326 . S
Dy1040 O1055 2.310 . S
Dy1040 O1056 2.351 . S
C1041 O1052 1.185 . S
C1041 O1053 1.355 . S
C1042 O1044 1.185 . S
C1042 O1045 1.355 . S
Dy1043 O1047 2.310 . S
Dy1043 O1050 2.351 . S
Dy1043 O1052 2.398 . S
Dy1043 O1053 2.491 . S
Dy1043 O1054 2.403 . S
Dy1043 O1055 2.664 . S
Dy1043 O1057 2.326 . S
O1044 Dy1040 2.398 . S
O1044 C1042 1.185 . S
O1045 Dy1040 2.491 . S
O1045 C1042 1.355 . S
O1046 Dy1040 2.403 . S
O1046 C1048 1.254 . S
O1047 Dy1040 2.664 . S
O1047 Dy1043 2.310 . S
O1047 C1048 1.268 . S
C1048 O1046 1.254 . S
C1048 O1047 1.268 . S
C1049 O1054 1.254 . S
C1049 O1055 1.268 . S
O1050 Dy1043 2.351 . S
O1050 C1058 1.249 . S
O1051 Dy1040 2.326 . S
O1051 C1058 1.267 . S
O1052 C1041 1.185 . S
O1052 Dy1043 2.398 . S
O1053 C1041 1.355 . S
O1053 Dy1043 2.491 . S
O1054 Dy1043 2.403 . S
O1054 C1049 1.254 . S
O1055 Dy1040 2.310 . S
O1055 Dy1043 2.664 . S
O1055 C1049 1.268 . S
O1056 Dy1040 2.351 . S
O1056 C1059 1.249 . S
O1057 Dy1043 2.326 . S
O1057 C1059 1.267 . S
C1058 O1050 1.249 . S
C1058 O1051 1.267 . S
C1059 O1056 1.249 . S
C1059 O1057 1.267 . S
Dy1060 O1064 2.398 . S
Dy1060 O1065 2.491 . S
Dy1060 O1066 2.403 . S
Dy1060 O1067 2.664 . S
Dy1060 O1071 2.326 . S
Dy1060 O1075 2.310 . S
Dy1060 O1076 2.351 . S
C1061 O1072 1.185 . S
C1061 O1073 1.355 . S
C1062 O1064 1.185 . S
C1062 O1065 1.355 . S
Dy1063 O1067 2.310 . S
Dy1063 O1070 2.351 . S
Dy1063 O1072 2.398 . S
Dy1063 O1073 2.491 . S
Dy1063 O1074 2.403 . S
Dy1063 O1075 2.664 . S
Dy1063 O1077 2.326 . S
O1064 Dy1060 2.398 . S
O1064 C1062 1.185 . S
O1065 Dy1060 2.491 . S
O1065 C1062 1.355 . S
O1066 Dy1060 2.403 . S
O1066 C1068 1.254 . S
O1067 Dy1060 2.664 . S
O1067 Dy1063 2.310 . S
O1067 C1068 1.268 . S
C1068 O1066 1.254 . S
C1068 O1067 1.268 . S
C1069 O1074 1.254 . S
C1069 O1075 1.268 . S
O1070 Dy1063 2.351 . S
O1070 C1078 1.249 . S
O1071 Dy1060 2.326 . S
O1071 C1078 1.267 . S
O1072 C1061 1.185 . S
O1072 Dy1063 2.398 . S
O1073 C1061 1.355 . S
O1073 Dy1063 2.491 . S
O1074 Dy1063 2.403 . S
O1074 C1069 1.254 . S
O1075 Dy1060 2.310 . S
O1075 Dy1063 2.664 . S
O1075 C1069 1.268 . S
O1076 Dy1060 2.351 . S
O1076 C1079 1.249 . S
O1077 Dy1063 2.326 . S
O1077 C1079 1.267 . S
C1078 O1070 1.249 . S
C1078 O1071 1.267 . S
C1079 O1076 1.249 . S
C1079 O1077 1.267 . S
Dy1080 O1084 2.398 1_655 S
Dy1080 O1085 2.491 1_655 S
Dy1080 O1086 2.403 . S
Dy1080 O1087 2.664 . S
Dy1080 O1091 2.326 1_655 S
Dy1080 O1095 2.310 1_655 S
Dy1080 O1096 2.351 . S
C1081 O1092 1.185 . S
C1081 O1093 1.355 . S
C1082 O1084 1.185 . S
C1082 O1085 1.355 . S
Dy1083 O1087 2.310 . S
Dy1083 O1090 2.351 1_655 S
Dy1083 O1092 2.398 . S
Dy1083 O1093 2.491 . S
Dy1083 O1094 2.403 1_655 S
Dy1083 O1095 2.664 1_655 S
Dy1083 O1097 2.326 . S
O1084 Dy1080 2.398 1_455 S
O1084 C1082 1.185 . S
O1085 Dy1080 2.491 1_455 S
O1085 C1082 1.355 . S
O1086 Dy1080 2.403 . S
O1086 C1088 1.254 . S
O1087 Dy1080 2.664 . S
O1087 Dy1083 2.310 . S
O1087 C1088 1.268 . S
C1088 O1086 1.254 . S
C1088 O1087 1.268 . S
C1089 O1094 1.254 . S
C1089 O1095 1.268 . S
O1090 Dy1083 2.351 1_455 S
O1090 C1098 1.249 . S
O1091 Dy1080 2.326 1_455 S
O1091 C1098 1.267 . S
O1092 C1081 1.185 . S
O1092 Dy1083 2.398 . S
O1093 C1081 1.355 . S
O1093 Dy1083 2.491 . S
O1094 Dy1083 2.403 1_455 S
O1094 C1089 1.254 . S
O1095 Dy1080 2.310 1_455 S
O1095 Dy1083 2.664 1_455 S
O1095 C1089 1.268 . S
O1096 Dy1080 2.351 . S
O1096 C1099 1.249 . S
O1097 Dy1083 2.326 . S
O1097 C1099 1.267 . S
C1098 O1090 1.249 . S
C1098 O1091 1.267 . S
C1099 O1096 1.249 . S
C1099 O1097 1.267 . S
Dy1100 O1104 2.398 . S
Dy1100 O1105 2.491 . S
Dy1100 O1106 2.403 . S
Dy1100 O1107 2.664 . S
Dy1100 O1111 2.326 . S
Dy1100 O1115 2.310 . S
Dy1100 O1116 2.351 . S
C1101 O1112 1.185 . S
C1101 O1113 1.355 . S
C1102 O1104 1.185 . S
C1102 O1105 1.355 . S
Dy1103 O1107 2.310 . S
Dy1103 O1110 2.351 . S
Dy1103 O1112 2.398 . S
Dy1103 O1113 2.491 . S
Dy1103 O1114 2.403 . S
Dy1103 O1115 2.664 . S
Dy1103 O1117 2.326 . S
O1104 Dy1100 2.398 . S
O1104 C1102 1.185 . S
O1105 Dy1100 2.491 . S
O1105 C1102 1.355 . S
O1106 Dy1100 2.403 . S
O1106 C1108 1.254 . S
O1107 Dy1100 2.664 . S
O1107 Dy1103 2.310 . S
O1107 C1108 1.268 . S
C1108 O1106 1.254 . S
C1108 O1107 1.268 . S
C1109 O1114 1.254 . S
C1109 O1115 1.268 . S
O1110 Dy1103 2.351 . S
O1110 C1118 1.249 . S
O1111 Dy1100 2.326 . S
O1111 C1118 1.267 . S
O1112 C1101 1.185 . S
O1112 Dy1103 2.398 . S
O1113 C1101 1.355 . S
O1113 Dy1103 2.491 . S
O1114 Dy1103 2.403 . S
O1114 C1109 1.254 . S
O1115 Dy1100 2.310 . S
O1115 Dy1103 2.664 . S
O1115 C1109 1.268 . S
O1116 Dy1100 2.351 . S
O1116 C1119 1.249 . S
O1117 Dy1103 2.326 . S
O1117 C1119 1.267 . S
C1118 O1110 1.249 . S
C1118 O1111 1.267 . S
C1119 O1116 1.249 . S
C1119 O1117 1.267 . S
Dy1120 O1124 2.398 . S
Dy1120 O1125 2.491 . S
Dy1120 O1126 2.403 . S
Dy1120 O1127 2.664 . S
Dy1120 O1131 2.326 . S
Dy1120 O1135 2.310 . S
Dy1120 O1136 2.351 . S
C1121 O1132 1.185 . S
C1121 O1133 1.355 . S
C1122 O1124 1.185 . S
C1122 O1125 1.355 . S
Dy1123 O1127 2.310 . S
Dy1123 O1130 2.351 . S
Dy1123 O1132 2.398 . S
Dy1123 O1133 2.491 . S
Dy1123 O1134 2.403 . S
Dy1123 O1135 2.664 . S
Dy1123 O1137 2.326 . S
O1124 Dy1120 2.398 . S
O1124 C1122 1.185 . S
O1125 Dy1120 2.491 . S
O1125 C1122 1.355 . S
O1126 Dy1120 2.403 . S
O1126 C1128 1.254 . S
O1127 Dy1120 2.664 . S
O1127 Dy1123 2.310 . S
O1127 C1128 1.268 . S
C1128 O1126 1.254 . S
C1128 O1127 1.268 . S
C1129 O1134 1.254 . S
C1129 O1135 1.268 . S
O1130 Dy1123 2.351 . S
O1130 C1138 1.249 . S
O1131 Dy1120 2.326 . S
O1131 C1138 1.267 . S
O1132 C1121 1.185 . S
O1132 Dy1123 2.398 . S
O1133 C1121 1.355 . S
O1133 Dy1123 2.491 . S
O1134 Dy1123 2.403 . S
O1134 C1129 1.254 . S
O1135 Dy1120 2.310 . S
O1135 Dy1123 2.664 . S
O1135 C1129 1.268 . S
O1136 Dy1120 2.351 . S
O1136 C1139 1.249 . S
O1137 Dy1123 2.326 . S
O1137 C1139 1.267 . S
C1138 O1130 1.249 . S
C1138 O1131 1.267 . S
C1139 O1136 1.249 . S
C1139 O1137 1.267 . S
Dy1140 O1144 2.398 . S
Dy1140 O1145 2.491 . S
Dy1140 O1146 2.403 . S
Dy1140 O1147 2.664 . S
Dy1140 O1151 2.326 . S
Dy1140 O1155 2.310 . S
Dy1140 O1156 2.351 . S
C1141 O1152 1.185 . S
C1141 O1153 1.355 . S
C1142 O1144 1.185 . S
C1142 O1145 1.355 . S
Dy1143 O1147 2.310 . S
Dy1143 O1150 2.351 . S
Dy1143 O1152 2.398 . S
Dy1143 O1153 2.491 . S
Dy1143 O1154 2.403 . S
Dy1143 O1155 2.664 . S
Dy1143 O1157 2.326 . S
O1144 Dy1140 2.398 . S
O1144 C1142 1.185 . S
O1145 Dy1140 2.491 . S
O1145 C1142 1.355 . S
O1146 Dy1140 2.403 . S
O1146 C1148 1.254 . S
O1147 Dy1140 2.664 . S
O1147 Dy1143 2.310 . S
O1147 C1148 1.268 . S
C1148 O1146 1.254 . S
C1148 O1147 1.268 . S
C1149 O1154 1.254 . S
C1149 O1155 1.268 . S
O1150 Dy1143 2.351 . S
O1150 C1158 1.249 . S
O1151 Dy1140 2.326 . S
O1151 C1158 1.267 . S
O1152 C1141 1.185 . S
O1152 Dy1143 2.398 . S
O1153 C1141 1.355 . S
O1153 Dy1143 2.491 . S
O1154 Dy1143 2.403 . S
O1154 C1149 1.254 . S
O1155 Dy1140 2.310 . S
O1155 Dy1143 2.664 . S
O1155 C1149 1.268 . S
O1156 Dy1140 2.351 . S
O1156 C1159 1.249 . S
O1157 Dy1143 2.326 . S
O1157 C1159 1.267 . S
C1158 O1150 1.249 . S
C1158 O1151 1.267 . S
C1159 O1156 1.249 . S
C1159 O1157 1.267 . S
Dy1160 O1164 2.398 . S
Dy1160 O1165 2.491 . S
Dy1160 O1166 2.403 . S
Dy1160 O1167 2.664 . S
Dy1160 O1171 2.326 . S
Dy1160 O1175 2.310 . S
Dy1160 O1176 2.351 . S
C1161 O1172 1.185 . S
C1161 O1173 1.355 . S
C1162 O1164 1.185 . S
C1162 O1165 1.355 . S
Dy1163 O1167 2.310 . S
Dy1163 O1170 2.351 . S
Dy1163 O1172 2.398 . S
Dy1163 O1173 2.491 . S
Dy1163 O1174 2.403 . S
Dy1163 O1175 2.664 . S
Dy1163 O1177 2.326 . S
O1164 Dy1160 2.398 . S
O1164 C1162 1.185 . S
O1165 Dy1160 2.491 . S
O1165 C1162 1.355 . S
O1166 Dy1160 2.403 . S
O1166 C1168 1.254 . S
O1167 Dy1160 2.664 . S
O1167 Dy1163 2.310 . S
O1167 C1168 1.268 . S
C1168 O1166 1.254 . S
C1168 O1167 1.268 . S
C1169 O1174 1.254 . S
C1169 O1175 1.268 . S
O1170 Dy1163 2.351 . S
O1170 C1178 1.249 . S
O1171 Dy1160 2.326 . S
O1171 C1178 1.267 . S
O1172 C1161 1.185 . S
O1172 Dy1163 2.398 . S
O1173 C1161 1.355 . S
O1173 Dy1163 2.491 . S
O1174 Dy1163 2.403 . S
O1174 C1169 1.254 . S
O1175 Dy1160 2.310 . S
O1175 Dy1163 2.664 . S
O1175 C1169 1.268 . S
O1176 Dy1160 2.351 . S
O1176 C1179 1.249 . S
O1177 Dy1163 2.326 . S
O1177 C1179 1.267 . S
C1178 O1170 1.249 . S
C1178 O1171 1.267 . S
C1179 O1176 1.249 . S
C1179 O1177 1.267 . S
Dy1180 O1184 2.398 . S
Dy1180 O1185 2.491 . S
Dy1180 O1186 2.403 . S
Dy1180 O1187 2.664 . S
Dy1180 O1191 2.326 . S
Dy1180 O1195 2.310 . S
Dy1180 O1196 2.351 . S
C1181 O1192 1.185 . S
C1181 O1193 1.355 . S
C1182 O1184 1.185 . S
C1182 O1185 1.355 . S
Dy1183 O1187 2.310 . S
Dy1183 O1190 2.351 . S
Dy1183 O1192 2.398 . S
Dy1183 O1193 2.491 . S
Dy1183 O1194 2.403 . S
Dy1183 O1195 2.664 . S
Dy1183 O1197 2.326 . S
O1184 Dy1180 2.398 . S
O1184 C1182 1.185 . S
O1185 Dy1180 2.491 . S
O1185 C1182 1.355 . S
O1186 Dy1180 2.403 . S
O1186 C1188 1.254 . S
O1187 Dy1180 2.664 . S
O1187 Dy1183 2.310 . S
O1187 C1188 1.268 . S
C1188 O1186 1.254 . S
C1188 O1187 1.268 . S
C1189 O1194 1.254 . S
C1189 O1195 1.268 . S
O1190 Dy1183 2.351 . S
O1190 C1198 1.249 . S
O1191 Dy1180 2.326 . S
O1191 C1198 1.267 . S
O1192 C1181 1.185 . S
O1192 Dy1183 2.398 . S
O1193 C1181 1.355 . S
O1193 Dy1183 2.491 . S
O1194 Dy1183 2.403 . S
O1194 C1189 1.254 . S
O1195 Dy1180 2.310 . S
O1195 Dy1183 2.664 . S
O1195 C1189 1.268 . S
O1196 Dy1180 2.351 . S
O1196 C1199 1.249 . S
O1197 Dy1183 2.326 . S
O1197 C1199 1.267 . S
C1198 O1190 1.249 . S
C1198 O1191 1.267 . S
C1199 O1196 1.249 . S
C1199 O1197 1.267 . S
Dy1200 O1204 2.398 . S
Dy1200 O1205 2.491 . S
Dy1200 O1206 2.403 . S
Dy1200 O1207 2.664 . S
Dy1200 O1211 2.326 . S
Dy1200 O1215 2.310 . S
Dy1200 O1216 2.351 . S
C1201 O1212 1.185 . S
C1201 O1213 1.355 . S
C1202 O1204 1.185 . S
C1202 O1205 1.355 . S
Dy1203 O1207 2.310 . S
Dy1203 O1210 2.351 . S
Dy1203 O1212 2.398 . S
Dy1203 O1213 2.491 . S
Dy1203 O1214 2.403 . S
Dy1203 O1215 2.664 . S
Dy1203 O1217 2.326 . S
O1204 Dy1200 2.398 . S
O1204 C1202 1.185 . S
O1205 Dy1200 2.491 . S
O1205 C1202 1.355 . S
O1206 Dy1200 2.403 . S
O1206 C1208 1.254 . S
O1207 Dy1200 2.664 . S
O1207 Dy1203 2.310 . S
O1207 C1208 1.268 . S
C1208 O1206 1.254 . S
C1208 O1207 1.268 . S
C1209 O1214 1.254 . S
C1209 O1215 1.268 . S
O1210 Dy1203 2.351 . S
O1210 C1218 1.249 . S
O1211 Dy1200 2.326 . S
O1211 C1218 1.267 . S
O1212 C1201 1.185 . S
O1212 Dy1203 2.398 . S
O1213 C1201 1.355 . S
O1213 Dy1203 2.491 . S
O1214 Dy1203 2.403 . S
O1214 C1209 1.254 . S
O1215 Dy1200 2.310 . S
O1215 Dy1203 2.664 . S
O1215 C1209 1.268 . S
O1216 Dy1200 2.351 . S
O1216 C1219 1.249 . S
O1217 Dy1203 2.326 . S
O1217 C1219 1.267 . S
C1218 O1210 1.249 . S
C1218 O1211 1.267 . S
C1219 O1216 1.249 . S
C1219 O1217 1.267 . S
Dy1220 O1224 2.398 . S
Dy1220 O1225 2.491 . S
Dy1220 O1226 2.403 . S
Dy1220 O1227 2.664 . S
Dy1220 O1231 2.326 . S
Dy1220 O1235 2.310 . S
Dy1220 O1236 2.351 . S
C1221 O1232 1.185 . S
C1221 O1233 1.355 . S
C1222 O1224 1.185 . S
C1222 O1225 1.355 . S
Dy1223 O1227 2.310 . S
Dy1223 O1230 2.351 . S
Dy1223 O1232 2.398 . S
Dy1223 O1233 2.491 . S
Dy1223 O1234 2.403 . S
Dy1223 O1235 2.664 . S
Dy1223 O1237 2.326 . S
O1224 Dy1220 2.398 . S
O1224 C1222 1.185 . S
O1225 Dy1220 2.491 . S
O1225 C1222 1.355 . S
O1226 Dy1220 2.403 . S
O1226 C1228 1.254 . S
O1227 Dy1220 2.664 . S
O1227 Dy1223 2.310 . S
O1227 C1228 1.268 . S
C1228 O1226 1.254 . S
C1228 O1227 1.268 . S
C1229 O1234 1.254 . S
C1229 O1235 1.268 . S
O1230 Dy1223 2.351 . S
O1230 C1238 1.249 . S
O1231 Dy1220 2.326 . S
O1231 C1238 1.267 . S
O1232 C1221 1.185 . S
O1232 Dy1223 2.398 . S
O1233 C1221 1.355 . S
O1233 Dy1223 2.491 . S
O1234 Dy1223 2.403 . S
O1234 C1229 1.254 . S
O1235 Dy1220 2.310 . S
O1235 Dy1223 2.664 . S
O1235 C1229 1.268 . S
O1236 Dy1220 2.351 . S
O1236 C1239 1.249 . S
O1237 Dy1223 2.326 . S
O1237 C1239 1.267 . S
C1238 O1230 1.249 . S
C1238 O1231 1.267 . S
C1239 O1236 1.249 . S
C1239 O1237 1.267 . S
Dy1240 O1244 2.398 . S
Dy1240 O1245 2.491 . S
Dy1240 O1246 2.403 . S
Dy1240 O1247 2.664 . S
Dy1240 O1251 2.326 . S
Dy1240 O1255 2.310 . S
Dy1240 O1256 2.351 . S
C1241 O1252 1.185 . S
C1241 O1253 1.355 . S
C1242 O1244 1.185 . S
C1242 O1245 1.355 . S
Dy1243 O1247 2.310 . S
Dy1243 O1250 2.351 . S
Dy1243 O1252 2.398 . S
Dy1243 O1253 2.491 . S
Dy1243 O1254 2.403 . S
Dy1243 O1255 2.664 . S
Dy1243 O1257 2.326 . S
O1244 Dy1240 2.398 . S
O1244 C1242 1.185 . S
O1245 Dy1240 2.491 . S
O1245 C1242 1.355 . S
O1246 Dy1240 2.403 . S
O1246 C1248 1.254 . S
O1247 Dy1240 2.664 . S
O1247 Dy1243 2.310 . S
O1247 C1248 1.268 . S
C1248 O1246 1.254 . S
C1248 O1247 1.268 . S
C1249 O1254 1.254 . S
C1249 O1255 1.268 . S
O1250 Dy1243 2.351 . S
O1250 C1258 1.249 . S
O1251 Dy1240 2.326 . S
O1251 C1258 1.267 . S
O1252 C1241 1.185 . S
O1252 Dy1243 2.398 . S
O1253 C1241 1.355 . S
O1253 Dy1243 2.491 . S
O1254 Dy1243 2.403 . S
O1254 C1249 1.254 . S
O1255 Dy1240 2.310 . S
O1255 Dy1243 2.664 . S
O1255 C1249 1.268 . S
O1256 Dy1240 2.351 . S
O1256 C1259 1.249 . S
O1257 Dy1243 2.326 . S
O1257 C1259 1.267 . S
C1258 O1250 1.249 . S
C1258 O1251 1.267 . S
C1259 O1256 1.249 . S
C1259 O1257 1.267 . S
Dy1260 O1264 2.398 . S
Dy1260 O1265 2.491 . S
Dy1260 O1266 2.403 . S
Dy1260 O1267 2.664 . S
Dy1260 O1271 2.326 . S
Dy1260 O1275 2.310 . S
Dy1260 O1276 2.351 . S
C1261 O1272 1.185 . S
C1261 O1273 1.355 . S
C1262 O1264 1.185 . S
C1262 O1265 1.355 . S
Dy1263 O1267 2.310 . S
Dy1263 O1270 2.351 . S
Dy1263 O1272 2.398 . S
Dy1263 O1273 2.491 . S
Dy1263 O1274 2.403 . S
Dy1263 O1275 2.664 . S
Dy1263 O1277 2.326 . S
O1264 Dy1260 2.398 . S
O1264 C1262 1.185 . S
O1265 Dy1260 2.491 . S
O1265 C1262 1.355 . S
O1266 Dy1260 2.403 . S
O1266 C1268 1.254 . S
O1267 Dy1260 2.664 . S
O1267 Dy1263 2.310 . S
O1267 C1268 1.268 . S
C1268 O1266 1.254 . S
C1268 O1267 1.268 . S
C1269 O1274 1.254 . S
C1269 O1275 1.268 . S
O1270 Dy1263 2.351 . S
O1270 C1278 1.249 . S
O1271 Dy1260 2.326 . S
O1271 C1278 1.267 . S
O1272 C1261 1.185 . S
O1272 Dy1263 2.398 . S
O1273 C1261 1.355 . S
O1273 Dy1263 2.491 . S
O1274 Dy1263 2.403 . S
O1274 C1269 1.254 . S
O1275 Dy1260 2.310 . S
O1275 Dy1263 2.664 . S
O1275 C1269 1.268 . S
O1276 Dy1260 2.351 . S
O1276 C1279 1.249 . S
O1277 Dy1263 2.326 . S
O1277 C1279 1.267 . S
C1278 O1270 1.249 . S
C1278 O1271 1.267 . S
C1279 O1276 1.249 . S
C1279 O1277 1.267 . S
Dy1280 O1284 2.398 . S
Dy1280 O1285 2.491 . S
Dy1280 O1286 2.403 . S
Dy1280 O1287 2.664 . S
Dy1280 O1291 2.326 . S
Dy1280 O1295 2.310 . S
Dy1280 O1296 2.351 . S
C1281 O1292 1.185 . S
C1281 O1293 1.355 . S
C1282 O1284 1.185 . S
C1282 O1285 1.355 . S
Dy1283 O1287 2.310 . S
Dy1283 O1290 2.351 . S
Dy1283 O1292 2.398 . S
Dy1283 O1293 2.491 . S
Dy1283 O1294 2.403 . S
Dy1283 O1295 2.664 . S
Dy1283 O1297 2.326 . S
O1284 Dy1280 2.398 . S
O1284 C1282 1.185 . S
O1285 Dy1280 2.491 . S
O1285 C1282 1.355 . S
O1286 Dy1280 2.403 . S
O1286 C1288 1.254 . S
O1287 Dy1280 2.664 . S
O1287 Dy1283 2.310 . S
O1287 C1288 1.268 . S
C1288 O1286 1.254 . S
C1288 O1287 1.268 . S
C1289 O1294 1.254 . S
C1289 O1295 1.268 . S
O1290 Dy1283 2.351 . S
O1290 C1298 1.249 . S
O1291 Dy1280 2.326 . S
O1291 C1298 1.267 . S
O1292 C1281 1.185 . S
O1292 Dy1283 2.398 . S
O1293 C1281 1.355 . S
O1293 Dy1283 2.491 . S
O1294 Dy1283 2.403 . S
O1294 C1289 1.254 . S
O1295 Dy1280 2.310 . S
O1295 Dy1283 2.664 . S
O1295 C1289 1.268 . S
O1296 Dy1280 2.351 . S
O1296 C1299 1.249 . S
O1297 Dy1283 2.326 . S
O1297 C1299 1.267 . S
C1298 O1290 1.249 . S
C1298 O1291 1.267 . S
C1299 O1296 1.249 . S
C1299 O1297 1.267 . S
Dy1300 O1304 2.398 . S
Dy1300 O1305 2.491 . S
Dy1300 O1306 2.403 . S
Dy1300 O1307 2.664 . S
Dy1300 O1311 2.326 . S
Dy1300 O1315 2.310 . S
Dy1300 O1316 2.351 . S
C1301 O1312 1.185 . S
C1301 O1313 1.355 . S
C1302 O1304 1.185 . S
C1302 O1305 1.355 . S
Dy1303 O1307 2.310 . S
Dy1303 O1310 2.351 . S
Dy1303 O1312 2.398 . S
Dy1303 O1313 2.491 . S
Dy1303 O1314 2.403 . S
Dy1303 O1315 2.664 . S
Dy1303 O1317 2.326 . S
O1304 Dy1300 2.398 . S
O1304 C1302 1.185 . S
O1305 Dy1300 2.491 . S
O1305 C1302 1.355 . S
O1306 Dy1300 2.403 . S
O1306 C1308 1.254 . S
O1307 Dy1300 2.664 . S
O1307 Dy1303 2.310 . S
O1307 C1308 1.268 . S
C1308 O1306 1.254 . S
C1308 O1307 1.268 . S
C1309 O1314 1.254 . S
C1309 O1315 1.268 . S
O1310 Dy1303 2.351 . S
O1310 C1318 1.249 . S
O1311 Dy1300 2.326 . S
O1311 C1318 1.267 . S
O1312 C1301 1.185 . S
O1312 Dy1303 2.398 . S
O1313 C1301 1.355 . S
O1313 Dy1303 2.491 . S
O1314 Dy1303 2.403 . S
O1314 C1309 1.254 . S
O1315 Dy1300 2.310 . S
O1315 Dy1303 2.664 . S
O1315 C1309 1.268 . S
O1316 Dy1300 2.351 . S
O1316 C1319 1.249 . S
O1317 Dy1303 2.326 . S
O1317 C1319 1.267 . S
C1318 O1310 1.249 . S
C1318 O1311 1.267 . S
C1319 O1316 1.249 . S
C1319 O1317 1.267 . S
Dy1320 O1324 2.398 . S
Dy1320 O1325 2.491 . S
Dy1320 O1326 2.403 . S
Dy1320 O1327 2.664 . S
Dy1320 O1331 2.326 . S
Dy1320 O1335 2.310 . S
Dy1320 O1336 2.351 . S
C1321 O1332 1.185 . S
C1321 O1333 1.355 . S
C1322 O1324 1.185 . S
C1322 O1325 1.355 . S
Dy1323 O1327 2.310 . S
Dy1323 O1330 2.351 . S
Dy1323 O1332 2.398 . S
Dy1323 O1333 2.491 . S
Dy1323 O1334 2.403 . S
Dy1323 O1335 2.664 . S
Dy1323 O1337 2.326 . S
O1324 Dy1320 2.398 . S
O1324 C1322 1.185 . S
O1325 Dy1320 2.491 . S
O1325 C1322 1.355 . S
O1326 Dy1320 2.403 . S
O1326 C1328 1.254 . S
O1327 Dy1320 2.664 . S
O1327 Dy1323 2.310 . S
O1327 C1328 1.268 . S
C1328 O1326 1.254 . S
C1328 O1327 1.268 . S
C1329 O1334 1.254 . S
C1329 O1335 1.268 . S
O1330 Dy1323 2.351 . S
O1330 C1338 1.249 . S
O1331 Dy1320 2.326 . S
O1331 C1338 1.267 . S
O1332 C1321 1.185 . S
O1332 Dy1323 2.398 . S
O1333 C1321 1.355 . S
O1333 Dy1323 2.491 . S
O1334 Dy1323 2.403 . S
O1334 C1329 1.254 . S
O1335 Dy1320 2.310 . S
O1335 Dy1323 2.664 . S
O1335 C1329 1.268 . S
O1336 Dy1320 2.351 . S
O1336 C1339 1.249 . S
O1337 Dy1323 2.326 . S
O1337 C1339 1.267 . S
C1338 O1330 1.249 . S
C1338 O1331 1.267 . S
C1339 O1336 1.249 . S
C1339 O1337 1.267 . S
Dy1340 O1344 2.398 . S
Dy1340 O1345 2.491 . S
Dy1340 O1346 2.403 . S
Dy1340 O1347 2.664 1_556 S
Dy1340 O1351 2.326 . S
Dy1340 O1355 2.310 . S
Dy1340 O1356 2.351 . S
C1341 O1352 1.185 . S
C1341 O1353 1.355 . S
C1342 O1344 1.185 . S
C1342 O1345 1.355 . S
Dy1343 O1347 2.310 . S
Dy1343 O1350 2.351 1_554 S
Dy1343 O1352 2.398 . S
Dy1343 O1353 2.491 . S
Dy1343 O1354 2.403 1_554 S
Dy1343 O1355 2.664 1_554 S
Dy1343 O1357 2.326 . S
O1344 Dy1340 2.398 . S
O1344 C1342 1.185 . S
O1345 Dy1340 2.491 . S
O1345 C1342 1.355 . S
O1346 Dy1340 2.403 . S
O1346 C1348 1.254 1_556 S
O1347 Dy1340 2.664 1_554 S
O1347 Dy1343 2.310 . S
O1347 C1348 1.268 . S
C1348 O1346 1.254 1_554 S
C1348 O1347 1.268 . S
C1349 O1354 1.254 . S
C1349 O1355 1.268 . S
O1350 Dy1343 2.351 1_556 S
O1350 C1358 1.249 . S
O1351 Dy1340 2.326 . S
O1351 C1358 1.267 . S
O1352 C1341 1.185 . S
O1352 Dy1343 2.398 . S
O1353 C1341 1.355 . S
O1353 Dy1343 2.491 . S
O1354 Dy1343 2.403 1_556 S
O1354 C1349 1.254 . S
O1355 Dy1340 2.310 . S
O1355 Dy1343 2.664 1_556 S
O1355 C1349 1.268 . S
O1356 Dy1340 2.351 . S
O1356 C1359 1.249 1_556 S
O1357 Dy1343 2.326 . S
O1357 C1359 1.267 . S
C1358 O1350 1.249 . S
C1358 O1351 1.267 . S
C1359 O1356 1.249 1_554 S
C1359 O1357 1.267 . S
Dy1360 O1364 2.398 . S
Dy1360 O1365 2.491 . S
Dy1360 O1366 2.403 . S
Dy1360 O1367 2.664 . S
Dy1360 O1371 2.326 . S
Dy1360 O1375 2.310 . S
Dy1360 O1376 2.351 . S
C1361 O1372 1.185 . S
C1361 O1373 1.355 . S
C1362 O1364 1.185 . S
C1362 O1365 1.355 . S
Dy1363 O1367 2.310 . S
Dy1363 O1370 2.351 . S
Dy1363 O1372 2.398 . S
Dy1363 O1373 2.491 . S
Dy1363 O1374 2.403 . S
Dy1363 O1375 2.664 . S
Dy1363 O1377 2.326 . S
O1364 Dy1360 2.398 . S
O1364 C1362 1.185 . S
O1365 Dy1360 2.491 . S
O1365 C1362 1.355 . S
O1366 Dy1360 2.403 . S
O1366 C1368 1.254 . S
O1367 Dy1360 2.664 . S
O1367 Dy1363 2.310 . S
O1367 C1368 1.268 . S
C1368 O1366 1.254 . S
C1368 O1367 1.268 . S
C1369 O1374 1.254 . S
C1369 O1375 1.268 . S
O1370 Dy1363 2.351 . S
O1370 C1378 1.249 . S
O1371 Dy1360 2.326 . S
O1371 C1378 1.267 . S
O1372 C1361 1.185 . S
O1372 Dy1363 2.398 . S
O1373 C1361 1.355 . S
O1373 Dy1363 2.491 . S
O1374 Dy1363 2.403 . S
O1374 C1369 1.254 . S
O1375 Dy1360 2.310 . S
O1375 Dy1363 2.664 . S
O1375 C1369 1.268 . S
O1376 Dy1360 2.351 . S
O1376 C1379 1.249 . S
O1377 Dy1363 2.326 . S
O1377 C1379 1.267 . S
C1378 O1370 1.249 . S
C1378 O1371 1.267 . S
C1379 O1376 1.249 . S
C1379 O1377 1.267 . S
Dy1380 O1384 2.398 . S
Dy1380 O1385 2.491 . S
Dy1380 O1386 2.403 . S
Dy1380 O1387 2.639 1_554 S
Dy1380 O1391 2.326 . S
Dy1380 O1395 2.310 . S
Dy1380 O1396 2.351 . S
C1381 O1392 1.185 . S
C1381 O1393 1.355 . S
C1382 O1384 1.185 . S
C1382 O1385 1.355 . S
Dy1383 O1387 2.314 . S
Dy1383 O1390 2.351 1_556 S
Dy1383 O1392 2.398 . S
Dy1383 O1393 2.491 . S
Dy1383 O1394 2.403 1_556 S
Dy1383 O1395 2.664 1_556 S
Dy1383 O1397 2.326 . S
O1384 Dy1380 2.398 . S
O1384 C1382 1.185 . S
O1385 Dy1380 2.491 . S
O1385 C1382 1.355 . S
O1386 Dy1380 2.403 . S
O1386 C1388 1.274 . S
O1387 Dy1380 2.639 1_556 S
O1387 Dy1383 2.314 . S
O1387 C1388 1.267 1_556 S
C1388 O1386 1.274 . S
C1388 O1387 1.267 1_554 S
C1389 O1394 1.254 . S
C1389 O1395 1.268 . S
O1390 Dy1383 2.351 1_554 S
O1390 C1398 1.249 . S
O1391 Dy1380 2.326 . S
O1391 C1398 1.267 . S
O1392 C1381 1.185 . S
O1392 Dy1383 2.398 . S
O1393 C1381 1.355 . S
O1393 Dy1383 2.491 . S
O1394 Dy1383 2.403 1_554 S
O1394 C1389 1.254 . S
O1395 Dy1380 2.310 . S
O1395 Dy1383 2.664 1_554 S
O1395 C1389 1.268 . S
O1396 Dy1380 2.351 . S
O1396 C1399 1.249 1_554 S
O1397 Dy1383 2.326 . S
O1397 C1399 1.267 . S
C1398 O1390 1.249 . S
C1398 O1391 1.267 . S
C1399 O1396 1.249 1_556 S
C1399 O1397 1.267 . S
Dy1400 O1404 2.398 . S
Dy1400 O1405 2.491 . S
Dy1400 O1406 2.403 . S
Dy1400 O1407 2.664 . S
Dy1400 O1411 2.326 . S
Dy1400 O1415 2.310 . S
Dy1400 O1416 2.351 . S
C1401 O1412 1.185 . S
C1401 O1413 1.355 . S
C1402 O1404 1.185 . S
C1402 O1405 1.355 . S
Dy1403 O1407 2.310 . S
Dy1403 O1410 2.351 . S
Dy1403 O1412 2.398 . S
Dy1403 O1413 2.491 . S
Dy1403 O1414 2.403 . S
Dy1403 O1415 2.664 . S
Dy1403 O1417 2.326 . S
O1404 Dy1400 2.398 . S
O1404 C1402 1.185 . S
O1405 Dy1400 2.491 . S
O1405 C1402 1.355 . S
O1406 Dy1400 2.403 . S
O1406 C1408 1.254 . S
O1407 Dy1400 2.664 . S
O1407 Dy1403 2.310 . S
O1407 C1408 1.268 . S
C1408 O1406 1.254 . S
C1408 O1407 1.268 . S
C1409 O1414 1.254 . S
C1409 O1415 1.268 . S
O1410 Dy1403 2.351 . S
O1410 C1418 1.249 . S
O1411 Dy1400 2.326 . S
O1411 C1418 1.267 . S
O1412 C1401 1.185 . S
O1412 Dy1403 2.398 . S
O1413 C1401 1.355 . S
O1413 Dy1403 2.491 . S
O1414 Dy1403 2.403 . S
O1414 C1409 1.254 . S
O1415 Dy1400 2.310 . S
O1415 Dy1403 2.664 . S
O1415 C1409 1.268 . S
O1416 Dy1400 2.351 . S
O1416 C1419 1.249 . S
O1417 Dy1403 2.326 . S
O1417 C1419 1.267 . S
C1418 O1410 1.249 . S
C1418 O1411 1.267 . S
C1419 O1416 1.249 . S
C1419 O1417 1.267 . S
Dy1420 O1424 2.398 . S
Dy1420 O1425 2.491 . S
Dy1420 O1426 2.403 . S
Dy1420 O1427 2.664 . S
Dy1420 O1431 2.326 . S
Dy1420 O1435 2.310 . S
Dy1420 O1436 2.351 . S
C1421 O1432 1.185 . S
C1421 O1433 1.355 . S
C1422 O1424 1.185 . S
C1422 O1425 1.355 . S
Dy1423 O1427 2.310 . S
Dy1423 O1430 2.351 . S
Dy1423 O1432 2.398 . S
Dy1423 O1433 2.491 . S
Dy1423 O1434 2.403 . S
Dy1423 O1435 2.664 . S
Dy1423 O1437 2.326 . S
O1424 Dy1420 2.398 . S
O1424 C1422 1.185 . S
O1425 Dy1420 2.491 . S
O1425 C1422 1.355 . S
O1426 Dy1420 2.403 . S
O1426 C1428 1.254 . S
O1427 Dy1420 2.664 . S
O1427 Dy1423 2.310 . S
O1427 C1428 1.268 . S
C1428 O1426 1.254 . S
C1428 O1427 1.268 . S
C1429 O1434 1.254 . S
C1429 O1435 1.268 . S
O1430 Dy1423 2.351 . S
O1430 C1438 1.249 . S
O1431 Dy1420 2.326 . S
O1431 C1438 1.267 . S
O1432 C1421 1.185 . S
O1432 Dy1423 2.398 . S
O1433 C1421 1.355 . S
O1433 Dy1423 2.491 . S
O1434 Dy1423 2.403 . S
O1434 C1429 1.254 . S
O1435 Dy1420 2.310 . S
O1435 Dy1423 2.664 . S
O1435 C1429 1.268 . S
O1436 Dy1420 2.351 . S
O1436 C1439 1.249 . S
O1437 Dy1423 2.326 . S
O1437 C1439 1.267 . S
C1438 O1430 1.249 . S
C1438 O1431 1.267 . S
C1439 O1436 1.249 . S
C1439 O1437 1.267 . S
Dy1440 O1444 2.398 . S
Dy1440 O1445 2.491 . S
Dy1440 O1446 2.403 . S
Dy1440 O1447 2.664 . S
Dy1440 O1451 2.326 . S
Dy1440 O1455 2.310 . S
Dy1440 O1456 2.351 . S
C1441 O1452 1.185 . S
C1441 O1453 1.355 . S
C1442 O1444 1.185 . S
C1442 O1445 1.355 . S
Dy1443 O1447 2.310 . S
Dy1443 O1450 2.351 . S
Dy1443 O1452 2.398 . S
Dy1443 O1453 2.491 . S
Dy1443 O1454 2.403 . S
Dy1443 O1455 2.664 . S
Dy1443 O1457 2.326 . S
O1444 Dy1440 2.398 . S
O1444 C1442 1.185 . S
O1445 Dy1440 2.491 . S
O1445 C1442 1.355 . S
O1446 Dy1440 2.403 . S
O1446 C1448 1.254 . S
O1447 Dy1440 2.664 . S
O1447 Dy1443 2.310 . S
O1447 C1448 1.268 . S
C1448 O1446 1.254 . S
C1448 O1447 1.268 . S
C1449 O1454 1.254 . S
C1449 O1455 1.268 . S
O1450 Dy1443 2.351 . S
O1450 C1458 1.249 . S
O1451 Dy1440 2.326 . S
O1451 C1458 1.267 . S
O1452 C1441 1.185 . S
O1452 Dy1443 2.398 . S
O1453 C1441 1.355 . S
O1453 Dy1443 2.491 . S
O1454 Dy1443 2.403 . S
O1454 C1449 1.254 . S
O1455 Dy1440 2.310 . S
O1455 Dy1443 2.664 . S
O1455 C1449 1.268 . S
O1456 Dy1440 2.351 . S
O1456 C1459 1.249 . S
O1457 Dy1443 2.326 . S
O1457 C1459 1.267 . S
C1458 O1450 1.249 . S
C1458 O1451 1.267 . S
C1459 O1456 1.249 . S
C1459 O1457 1.267 . S
Dy1460 O1464 2.398 . S
Dy1460 O1465 2.491 . S
Dy1460 O1466 2.403 . S
Dy1460 O1467 2.664 . S
Dy1460 O1471 2.326 . S
Dy1460 O1475 2.310 . S
Dy1460 O1476 2.351 . S
C1461 O1472 1.185 . S
C1461 O1473 1.355 . S
C1462 O1464 1.185 . S
C1462 O1465 1.355 . S
Dy1463 O1467 2.310 . S
Dy1463 O1470 2.351 . S
Dy1463 O1472 2.398 . S
Dy1463 O1473 2.491 . S
Dy1463 O1474 2.403 . S
Dy1463 O1475 2.664 . S
Dy1463 O1477 2.326 . S
O1464 Dy1460 2.398 . S
O1464 C1462 1.185 . S
O1465 Dy1460 2.491 . S
O1465 C1462 1.355 . S
O1466 Dy1460 2.403 . S
O1466 C1468 1.254 . S
O1467 Dy1460 2.664 . S
O1467 Dy1463 2.310 . S
O1467 C1468 1.268 . S
C1468 O1466 1.254 . S
C1468 O1467 1.268 . S
C1469 O1474 1.254 . S
C1469 O1475 1.268 . S
O1470 Dy1463 2.351 . S
O1470 C1478 1.249 . S
O1471 Dy1460 2.326 . S
O1471 C1478 1.267 . S
O1472 C1461 1.185 . S
O1472 Dy1463 2.398 . S
O1473 C1461 1.355 . S
O1473 Dy1463 2.491 . S
O1474 Dy1463 2.403 . S
O1474 C1469 1.254 . S
O1475 Dy1460 2.310 . S
O1475 Dy1463 2.664 . S
O1475 C1469 1.268 . S
O1476 Dy1460 2.351 . S
O1476 C1479 1.249 . S
O1477 Dy1463 2.326 . S
O1477 C1479 1.267 . S
C1478 O1470 1.249 . S
C1478 O1471 1.267 . S
C1479 O1476 1.249 . S
C1479 O1477 1.267 . S
Dy1480 O1484 2.398 . S
Dy1480 O1485 2.491 . S
Dy1480 O1486 2.403 1_455 S
Dy1480 O1487 2.664 1_455 S
Dy1480 O1491 2.326 . S
Dy1480 O1495 2.310 . S
Dy1480 O1496 2.351 1_455 S
C1481 O1492 1.185 . S
C1481 O1493 1.355 . S
C1482 O1484 1.185 . S
C1482 O1485 1.355 . S
Dy1483 O1487 2.310 1_455 S
Dy1483 O1490 2.351 . S
Dy1483 O1492 2.398 1_455 S
Dy1483 O1493 2.491 1_455 S
Dy1483 O1494 2.403 . S
Dy1483 O1495 2.664 . S
Dy1483 O1497 2.326 1_455 S
O1484 Dy1480 2.398 . S
O1484 C1482 1.185 . S
O1485 Dy1480 2.491 . S
O1485 C1482 1.355 . S
O1486 Dy1480 2.403 1_655 S
O1486 C1488 1.254 . S
O1487 Dy1480 2.664 1_655 S
O1487 Dy1483 2.310 1_655 S
O1487 C1488 1.268 . S
C1488 O1486 1.254 . S
C1488 O1487 1.268 . S
C1489 O1494 1.254 . S
C1489 O1495 1.268 . S
O1490 Dy1483 2.351 . S
O1490 C1498 1.249 . S
O1491 Dy1480 2.326 . S
O1491 C1498 1.267 . S
O1492 C1481 1.185 . S
O1492 Dy1483 2.398 1_655 S
O1493 C1481 1.355 . S
O1493 Dy1483 2.491 1_655 S
O1494 Dy1483 2.403 . S
O1494 C1489 1.254 . S
O1495 Dy1480 2.310 . S
O1495 Dy1483 2.664 . S
O1495 C1489 1.268 . S
O1496 Dy1480 2.351 1_655 S
O1496 C1499 1.249 . S
O1497 Dy1483 2.326 1_655 S
O1497 C1499 1.267 . S
C1498 O1490 1.249 . S
C1498 O1491 1.267 . S
C1499 O1496 1.249 . S
C1499 O1497 1.267 . S
Dy1500 O1504 2.398 . S
Dy1500 O1505 2.491 . S
Dy1500 O1506 2.403 . S
Dy1500 O1507 2.664 . S
Dy1500 O1511 2.326 . S
Dy1500 O1515 2.310 . S
Dy1500 O1516 2.351 . S
C1501 O1512 1.185 . S
C1501 O1513 1.355 . S
C1502 O1504 1.185 . S
C1502 O1505 1.355 . S
Dy1503 O1507 2.310 . S
Dy1503 O1510 2.351 . S
Dy1503 O1512 2.398 . S
Dy1503 O1513 2.491 . S
Dy1503 O1514 2.403 . S
Dy1503 O1515 2.664 . S
Dy1503 O1517 2.326 . S
O1504 Dy1500 2.398 . S
O1504 C1502 1.185 . S
O1505 Dy1500 2.491 . S
O1505 C1502 1.355 . S
O1506 Dy1500 2.403 . S
O1506 C1508 1.254 . S
O1507 Dy1500 2.664 . S
O1507 Dy1503 2.310 . S
O1507 C1508 1.268 . S
C1508 O1506 1.254 . S
C1508 O1507 1.268 . S
C1509 O1514 1.254 . S
C1509 O1515 1.268 . S
O1510 Dy1503 2.351 . S
O1510 C1518 1.249 . S
O1511 Dy1500 2.326 . S
O1511 C1518 1.267 . S
O1512 C1501 1.185 . S
O1512 Dy1503 2.398 . S
O1513 C1501 1.355 . S
O1513 Dy1503 2.491 . S
O1514 Dy1503 2.403 . S
O1514 C1509 1.254 . S
O1515 Dy1500 2.310 . S
O1515 Dy1503 2.664 . S
O1515 C1509 1.268 . S
O1516 Dy1500 2.351 . S
O1516 C1519 1.249 . S
O1517 Dy1503 2.326 . S
O1517 C1519 1.267 . S
C1518 O1510 1.249 . S
C1518 O1511 1.267 . S
C1519 O1516 1.249 . S
C1519 O1517 1.267 . S
Dy1520 O1524 2.398 . S
Dy1520 O1525 2.491 . S
Dy1520 O1526 2.403 . S
Dy1520 O1527 2.664 . S
Dy1520 O1531 2.326 . S
Dy1520 O1535 2.310 . S
Dy1520 O1536 2.351 . S
C1521 O1532 1.185 . S
C1521 O1533 1.355 . S
C1522 O1524 1.185 . S
C1522 O1525 1.355 . S
Dy1523 O1527 2.310 . S
Dy1523 O1530 2.351 . S
Dy1523 O1532 2.398 . S
Dy1523 O1533 2.491 . S
Dy1523 O1534 2.403 . S
Dy1523 O1535 2.664 . S
Dy1523 O1537 2.326 . S
O1524 Dy1520 2.398 . S
O1524 C1522 1.185 . S
O1525 Dy1520 2.491 . S
O1525 C1522 1.355 . S
O1526 Dy1520 2.403 . S
O1526 C1528 1.254 . S
O1527 Dy1520 2.664 . S
O1527 Dy1523 2.310 . S
O1527 C1528 1.268 . S
C1528 O1526 1.254 . S
C1528 O1527 1.268 . S
C1529 O1534 1.254 . S
C1529 O1535 1.268 . S
O1530 Dy1523 2.351 . S
O1530 C1538 1.249 . S
O1531 Dy1520 2.326 . S
O1531 C1538 1.267 . S
O1532 C1521 1.185 . S
O1532 Dy1523 2.398 . S
O1533 C1521 1.355 . S
O1533 Dy1523 2.491 . S
O1534 Dy1523 2.403 . S
O1534 C1529 1.254 . S
O1535 Dy1520 2.310 . S
O1535 Dy1523 2.664 . S
O1535 C1529 1.268 . S
O1536 Dy1520 2.351 . S
O1536 C1539 1.249 . S
O1537 Dy1523 2.326 . S
O1537 C1539 1.267 . S
C1538 O1530 1.249 . S
C1538 O1531 1.267 . S
C1539 O1536 1.249 . S
C1539 O1537 1.267 . S
Dy1540 O1544 2.398 . S
Dy1540 O1545 2.491 . S
Dy1540 O1546 2.403 . S
Dy1540 O1547 2.664 . S
Dy1540 O1551 2.326 . S
Dy1540 O1555 2.310 . S
Dy1540 O1556 2.351 . S
C1541 O1552 1.185 . S
C1541 O1553 1.355 . S
C1542 O1544 1.185 . S
C1542 O1545 1.355 . S
Dy1543 O1547 2.310 . S
Dy1543 O1550 2.351 . S
Dy1543 O1552 2.398 . S
Dy1543 O1553 2.491 . S
Dy1543 O1554 2.403 . S
Dy1543 O1555 2.664 . S
Dy1543 O1557 2.326 . S
O1544 Dy1540 2.398 . S
O1544 C1542 1.185 . S
O1545 Dy1540 2.491 . S
O1545 C1542 1.355 . S
O1546 Dy1540 2.403 . S
O1546 C1548 1.254 . S
O1547 Dy1540 2.664 . S
O1547 Dy1543 2.310 . S
O1547 C1548 1.268 . S
C1548 O1546 1.254 . S
C1548 O1547 1.268 . S
C1549 O1554 1.254 . S
C1549 O1555 1.268 . S
O1550 Dy1543 2.351 . S
O1550 C1558 1.249 . S
O1551 Dy1540 2.326 . S
O1551 C1558 1.267 . S
O1552 C1541 1.185 . S
O1552 Dy1543 2.398 . S
O1553 C1541 1.355 . S
O1553 Dy1543 2.491 . S
O1554 Dy1543 2.403 . S
O1554 C1549 1.254 . S
O1555 Dy1540 2.310 . S
O1555 Dy1543 2.664 . S
O1555 C1549 1.268 . S
O1556 Dy1540 2.351 . S
O1556 C1559 1.249 . S
O1557 Dy1543 2.326 . S
O1557 C1559 1.267 . S
C1558 O1550 1.249 . S
C1558 O1551 1.267 . S
C1559 O1556 1.249 . S
C1559 O1557 1.267 . S
Dy1560 O1564 2.398 . S
Dy1560 O1565 2.491 . S
Dy1560 O1566 2.403 1_455 S
Dy1560 O1567 2.664 1_455 S
Dy1560 O1571 2.326 . S
Dy1560 O1575 2.310 . S
Dy1560 O1576 2.351 1_455 S
C1561 O1572 1.185 . S
C1561 O1573 1.355 . S
C1562 O1564 1.185 . S
C1562 O1565 1.355 . S
Dy1563 O1567 2.310 1_455 S
Dy1563 O1570 2.351 . S
Dy1563 O1572 2.398 1_455 S
Dy1563 O1573 2.491 1_455 S
Dy1563 O1574 2.403 . S
Dy1563 O1575 2.664 . S
Dy1563 O1577 2.326 1_455 S
O1564 Dy1560 2.398 . S
O1564 C1562 1.185 . S
O1565 Dy1560 2.491 . S
O1565 C1562 1.355 . S
O1566 Dy1560 2.403 1_655 S
O1566 C1568 1.254 . S
O1567 Dy1560 2.664 1_655 S
O1567 Dy1563 2.310 1_655 S
O1567 C1568 1.268 . S
C1568 O1566 1.254 . S
C1568 O1567 1.268 . S
C1569 O1574 1.254 . S
C1569 O1575 1.268 . S
O1570 Dy1563 2.351 . S
O1570 C1578 1.249 . S
O1571 Dy1560 2.326 . S
O1571 C1578 1.267 . S
O1572 C1561 1.185 . S
O1572 Dy1563 2.398 1_655 S
O1573 C1561 1.355 . S
O1573 Dy1563 2.491 1_655 S
O1574 Dy1563 2.403 . S
O1574 C1569 1.254 . S
O1575 Dy1560 2.310 . S
O1575 Dy1563 2.664 . S
O1575 C1569 1.268 . S
O1576 Dy1560 2.351 1_655 S
O1576 C1579 1.249 . S
O1577 Dy1563 2.326 1_655 S
O1577 C1579 1.267 . S
C1578 O1570 1.249 . S
C1578 O1571 1.267 . S
C1579 O1576 1.249 . S
C1579 O1577 1.267 . S
Dy1580 O1584 2.398 . S
Dy1580 O1585 2.491 . S
Dy1580 O1586 2.403 . S
Dy1580 O1587 2.664 . S
Dy1580 O1591 2.326 . S
Dy1580 O1595 2.310 . S
Dy1580 O1596 2.351 . S
C1581 O1592 1.185 . S
C1581 O1593 1.355 . S
C1582 O1584 1.185 . S
C1582 O1585 1.355 . S
Dy1583 O1587 2.310 . S
Dy1583 O1590 2.351 . S
Dy1583 O1592 2.398 . S
Dy1583 O1593 2.491 . S
Dy1583 O1594 2.403 . S
Dy1583 O1595 2.664 . S
Dy1583 O1597 2.326 . S
O1584 Dy1580 2.398 . S
O1584 C1582 1.185 . S
O1585 Dy1580 2.491 . S
O1585 C1582 1.355 . S
O1586 Dy1580 2.403 . S
O1586 C1588 1.254 . S
O1587 Dy1580 2.664 . S
O1587 Dy1583 2.310 . S
O1587 C1588 1.268 . S
C1588 O1586 1.254 . S
C1588 O1587 1.268 . S
C1589 O1594 1.254 . S
C1589 O1595 1.268 . S
O1590 Dy1583 2.351 . S
O1590 C1598 1.249 . S
O1591 Dy1580 2.326 . S
O1591 C1598 1.267 . S
O1592 C1581 1.185 . S
O1592 Dy1583 2.398 . S
O1593 C1581 1.355 . S
O1593 Dy1583 2.491 . S
O1594 Dy1583 2.403 . S
O1594 C1589 1.254 . S
O1595 Dy1580 2.310 . S
O1595 Dy1583 2.664 . S
O1595 C1589 1.268 . S
O1596 Dy1580 2.351 . S
O1596 C1599 1.249 . S
O1597 Dy1583 2.326 . S
O1597 C1599 1.267 . S
C1598 O1590 1.249 . S
C1598 O1591 1.267 . S
C1599 O1596 1.249 . S
C1599 O1597 1.267 . S
Dy1600 O1604 2.398 . S
Dy1600 O1605 2.491 . S
Dy1600 O1606 2.403 . S
Dy1600 O1607 2.664 . S
Dy1600 O1611 2.326 . S
Dy1600 O1615 2.310 . S
Dy1600 O1616 2.351 . S
C1601 O1612 1.185 . S
C1601 O1613 1.355 . S
C1602 O1604 1.185 . S
C1602 O1605 1.355 . S
Dy1603 O1607 2.310 . S
Dy1603 O1610 2.351 . S
Dy1603 O1612 2.398 . S
Dy1603 O1613 2.491 . S
Dy1603 O1614 2.403 . S
Dy1603 O1615 2.664 . S
Dy1603 O1617 2.326 . S
O1604 Dy1600 2.398 . S
O1604 C1602 1.185 . S
O1605 Dy1600 2.491 . S
O1605 C1602 1.355 . S
O1606 Dy1600 2.403 . S
O1606 C1608 1.254 . S
O1607 Dy1600 2.664 . S
O1607 Dy1603 2.310 . S
O1607 C1608 1.268 . S
C1608 O1606 1.254 . S
C1608 O1607 1.268 . S
C1609 O1614 1.254 . S
C1609 O1615 1.268 . S
O1610 Dy1603 2.351 . S
O1610 C1618 1.249 . S
O1611 Dy1600 2.326 . S
O1611 C1618 1.267 . S
O1612 C1601 1.185 . S
O1612 Dy1603 2.398 . S
O1613 C1601 1.355 . S
O1613 Dy1603 2.491 . S
O1614 Dy1603 2.403 . S
O1614 C1609 1.254 . S
O1615 Dy1600 2.310 . S
O1615 Dy1603 2.664 . S
O1615 C1609 1.268 . S
O1616 Dy1600 2.351 . S
O1616 C1619 1.249 . S
O1617 Dy1603 2.326 . S
O1617 C1619 1.267 . S
C1618 O1610 1.249 . S
C1618 O1611 1.267 . S
C1619 O1616 1.249 . S
C1619 O1617 1.267 . S
Dy1620 O1624 2.398 . S
Dy1620 O1625 2.491 . S
Dy1620 O1626 2.403 . S
Dy1620 O1627 2.664 . S
Dy1620 O1631 2.326 . S
Dy1620 O1635 2.310 . S
Dy1620 O1636 2.351 . S
C1621 O1632 1.185 . S
C1621 O1633 1.355 . S
C1622 O1624 1.185 . S
C1622 O1625 1.355 . S
Dy1623 O1627 2.310 . S
Dy1623 O1630 2.351 . S
Dy1623 O1632 2.398 . S
Dy1623 O1633 2.491 . S
Dy1623 O1634 2.403 . S
Dy1623 O1635 2.664 . S
Dy1623 O1637 2.326 . S
O1624 Dy1620 2.398 . S
O1624 C1622 1.185 . S
O1625 Dy1620 2.491 . S
O1625 C1622 1.355 . S
O1626 Dy1620 2.403 . S
O1626 C1628 1.254 . S
O1627 Dy1620 2.664 . S
O1627 Dy1623 2.310 . S
O1627 C1628 1.268 . S
C1628 O1626 1.254 . S
C1628 O1627 1.268 . S
C1629 O1634 1.254 . S
C1629 O1635 1.268 . S
O1630 Dy1623 2.351 . S
O1630 C1638 1.249 . S
O1631 Dy1620 2.326 . S
O1631 C1638 1.267 . S
O1632 C1621 1.185 . S
O1632 Dy1623 2.398 . S
O1633 C1621 1.355 . S
O1633 Dy1623 2.491 . S
O1634 Dy1623 2.403 . S
O1634 C1629 1.254 . S
O1635 Dy1620 2.310 . S
O1635 Dy1623 2.664 . S
O1635 C1629 1.268 . S
O1636 Dy1620 2.351 . S
O1636 C1639 1.249 . S
O1637 Dy1623 2.326 . S
O1637 C1639 1.267 . S
C1638 O1630 1.249 . S
C1638 O1631 1.267 . S
C1639 O1636 1.249 . S
C1639 O1637 1.267 . S
Dy1640 O1644 2.398 . S
Dy1640 O1645 2.491 . S
Dy1640 O1646 2.403 . S
Dy1640 O1647 2.664 . S
Dy1640 O1651 2.326 . S
Dy1640 O1655 2.310 . S
Dy1640 O1656 2.351 . S
C1641 O1652 1.185 . S
C1641 O1653 1.355 . S
C1642 O1644 1.185 . S
C1642 O1645 1.355 . S
Dy1643 O1647 2.310 . S
Dy1643 O1650 2.351 . S
Dy1643 O1652 2.398 . S
Dy1643 O1653 2.491 . S
Dy1643 O1654 2.403 . S
Dy1643 O1655 2.664 . S
Dy1643 O1657 2.326 . S
O1644 Dy1640 2.398 . S
O1644 C1642 1.185 . S
O1645 Dy1640 2.491 . S
O1645 C1642 1.355 . S
O1646 Dy1640 2.403 . S
O1646 C1648 1.254 . S
O1647 Dy1640 2.664 . S
O1647 Dy1643 2.310 . S
O1647 C1648 1.268 . S
C1648 O1646 1.254 . S
C1648 O1647 1.268 . S
C1649 O1654 1.254 . S
C1649 O1655 1.268 . S
O1650 Dy1643 2.351 . S
O1650 C1658 1.249 . S
O1651 Dy1640 2.326 . S
O1651 C1658 1.267 . S
O1652 C1641 1.185 . S
O1652 Dy1643 2.398 . S
O1653 C1641 1.355 . S
O1653 Dy1643 2.491 . S
O1654 Dy1643 2.403 . S
O1654 C1649 1.254 . S
O1655 Dy1640 2.310 . S
O1655 Dy1643 2.664 . S
O1655 C1649 1.268 . S
O1656 Dy1640 2.351 . S
O1656 C1659 1.249 . S
O1657 Dy1643 2.326 . S
O1657 C1659 1.267 . S
C1658 O1650 1.249 . S
C1658 O1651 1.267 . S
C1659 O1656 1.249 . S
C1659 O1657 1.267 . S
Dy1660 O1664 2.398 . S
Dy1660 O1665 2.491 . S
Dy1660 O1666 2.403 . S
Dy1660 O1667 2.664 . S
Dy1660 O1671 2.326 . S
Dy1660 O1675 2.310 . S
Dy1660 O1676 2.351 . S
C1661 O1672 1.185 . S
C1661 O1673 1.355 . S
C1662 O1664 1.185 . S
C1662 O1665 1.355 . S
Dy1663 O1667 2.310 . S
Dy1663 O1670 2.351 . S
Dy1663 O1672 2.398 . S
Dy1663 O1673 2.491 . S
Dy1663 O1674 2.403 . S
Dy1663 O1675 2.664 . S
Dy1663 O1677 2.326 . S
O1664 Dy1660 2.398 . S
O1664 C1662 1.185 . S
O1665 Dy1660 2.491 . S
O1665 C1662 1.355 . S
O1666 Dy1660 2.403 . S
O1666 C1668 1.254 . S
O1667 Dy1660 2.664 . S
O1667 Dy1663 2.310 . S
O1667 C1668 1.268 . S
C1668 O1666 1.254 . S
C1668 O1667 1.268 . S
C1669 O1674 1.254 . S
C1669 O1675 1.268 . S
O1670 Dy1663 2.351 . S
O1670 C1678 1.249 . S
O1671 Dy1660 2.326 . S
O1671 C1678 1.267 . S
O1672 C1661 1.185 . S
O1672 Dy1663 2.398 . S
O1673 C1661 1.355 . S
O1673 Dy1663 2.491 . S
O1674 Dy1663 2.403 . S
O1674 C1669 1.254 . S
O1675 Dy1660 2.310 . S
O1675 Dy1663 2.664 . S
O1675 C1669 1.268 . S
O1676 Dy1660 2.351 . S
O1676 C1679 1.249 . S
O1677 Dy1663 2.326 . S
O1677 C1679 1.267 . S
C1678 O1670 1.249 . S
C1678 O1671 1.267 . S
C1679 O1676 1.249 . S
C1679 O1677 1.267 . S
Dy1680 O1684 2.398 . S
Dy1680 O1685 2.491 . S
Dy1680 O1686 2.403 . S
Dy1680 O1687 2.664 . S
Dy1680 O1691 2.326 . S
Dy1680 O1695 2.310 . S
Dy1680 O1696 2.351 . S
C1681 O1692 1.185 . S
C1681 O1693 1.355 . S
C1682 O1684 1.185 . S
C1682 O1685 1.355 . S
Dy1683 O1687 2.310 . S
Dy1683 O1690 2.351 . S
Dy1683 O1692 2.398 . S
Dy1683 O1693 2.491 . S
Dy1683 O1694 2.403 . S
Dy1683 O1695 2.664 . S
Dy1683 O1697 2.326 . S
O1684 Dy1680 2.398 . S
O1684 C1682 1.185 . S
O1685 Dy1680 2.491 . S
O1685 C1682 1.355 . S
O1686 Dy1680 2.403 . S
O1686 C1688 1.254 . S
O1687 Dy1680 2.664 . S
O1687 Dy1683 2.310 . S
O1687 C1688 1.268 . S
C1688 O1686 1.254 . S
C1688 O1687 1.268 . S
C1689 O1694 1.254 . S
C1689 O1695 1.268 . S
O1690 Dy1683 2.351 . S
O1690 C1698 1.249 . S
O1691 Dy1680 2.326 . S
O1691 C1698 1.267 . S
O1692 C1681 1.185 . S
O1692 Dy1683 2.398 . S
O1693 C1681 1.355 . S
O1693 Dy1683 2.491 . S
O1694 Dy1683 2.403 . S
O1694 C1689 1.254 . S
O1695 Dy1680 2.310 . S
O1695 Dy1683 2.664 . S
O1695 C1689 1.268 . S
O1696 Dy1680 2.351 . S
O1696 C1699 1.249 . S
O1697 Dy1683 2.326 . S
O1697 C1699 1.267 . S
C1698 O1690 1.249 . S
C1698 O1691 1.267 . S
C1699 O1696 1.249 . S
C1699 O1697 1.267 . S
Dy1700 O1704 2.398 . S
Dy1700 O1705 2.491 . S
Dy1700 O1706 2.403 . S
Dy1700 O1707 2.664 . S
Dy1700 O1711 2.326 . S
Dy1700 O1715 2.310 . S
Dy1700 O1716 2.351 . S
C1701 O1712 1.185 . S
C1701 O1713 1.355 . S
C1702 O1704 1.185 . S
C1702 O1705 1.355 . S
Dy1703 O1707 2.310 . S
Dy1703 O1710 2.351 . S
Dy1703 O1712 2.398 . S
Dy1703 O1713 2.491 . S
Dy1703 O1714 2.403 . S
Dy1703 O1715 2.664 . S
Dy1703 O1717 2.326 . S
O1704 Dy1700 2.398 . S
O1704 C1702 1.185 . S
O1705 Dy1700 2.491 . S
O1705 C1702 1.355 . S
O1706 Dy1700 2.403 . S
O1706 C1708 1.254 . S
O1707 Dy1700 2.664 . S
O1707 Dy1703 2.310 . S
O1707 C1708 1.268 . S
C1708 O1706 1.254 . S
C1708 O1707 1.268 . S
C1709 O1714 1.254 . S
C1709 O1715 1.268 . S
O1710 Dy1703 2.351 . S
O1710 C1718 1.249 . S
O1711 Dy1700 2.326 . S
O1711 C1718 1.267 . S
O1712 C1701 1.185 . S
O1712 Dy1703 2.398 . S
O1713 C1701 1.355 . S
O1713 Dy1703 2.491 . S
O1714 Dy1703 2.403 . S
O1714 C1709 1.254 . S
O1715 Dy1700 2.310 . S
O1715 Dy1703 2.664 . S
O1715 C1709 1.268 . S
O1716 Dy1700 2.351 . S
O1716 C1719 1.249 . S
O1717 Dy1703 2.326 . S
O1717 C1719 1.267 . S
C1718 O1710 1.249 . S
C1718 O1711 1.267 . S
C1719 O1716 1.249 . S
C1719 O1717 1.267 . S
Dy1720 O1724 2.398 . S
Dy1720 O1725 2.491 . S
Dy1720 O1726 2.403 . S
Dy1720 O1727 2.664 . S
Dy1720 O1731 2.326 . S
Dy1720 O1735 2.310 . S
Dy1720 O1736 2.351 . S
C1721 O1732 1.185 . S
C1721 O1733 1.355 . S
C1722 O1724 1.185 . S
C1722 O1725 1.355 . S
Dy1723 O1727 2.310 . S
Dy1723 O1730 2.351 . S
Dy1723 O1732 2.398 . S
Dy1723 O1733 2.491 . S
Dy1723 O1734 2.403 . S
Dy1723 O1735 2.664 . S
Dy1723 O1737 2.326 . S
O1724 Dy1720 2.398 . S
O1724 C1722 1.185 . S
O1725 Dy1720 2.491 . S
O1725 C1722 1.355 . S
O1726 Dy1720 2.403 . S
O1726 C1728 1.254 . S
O1727 Dy1720 2.664 . S
O1727 Dy1723 2.310 . S
O1727 C1728 1.268 . S
C1728 O1726 1.254 . S
C1728 O1727 1.268 . S
C1729 O1734 1.254 . S
C1729 O1735 1.268 . S
O1730 Dy1723 2.351 . S
O1730 C1738 1.249 . S
O1731 Dy1720 2.326 . S
O1731 C1738 1.267 . S
O1732 C1721 1.185 . S
O1732 Dy1723 2.398 . S
O1733 C1721 1.355 . S
O1733 Dy1723 2.491 . S
O1734 Dy1723 2.403 . S
O1734 C1729 1.254 . S
O1735 Dy1720 2.310 . S
O1735 Dy1723 2.664 . S
O1735 C1729 1.268 . S
O1736 Dy1720 2.351 . S
O1736 C1739 1.249 . S
O1737 Dy1723 2.326 . S
O1737 C1739 1.267 . S
C1738 O1730 1.249 . S
C1738 O1731 1.267 . S
C1739 O1736 1.249 . S
C1739 O1737 1.267 . S
Dy1740 O1744 2.398 . S
Dy1740 O1745 2.491 . S
Dy1740 O1746 2.403 . S
Dy1740 O1747 2.664 . S
Dy1740 O1751 2.326 . S
Dy1740 O1755 2.310 . S
Dy1740 O1756 2.351 . S
C1741 O1752 1.185 . S
C1741 O1753 1.355 . S
C1742 O1744 1.185 . S
C1742 O1745 1.355 . S
Dy1743 O1747 2.310 . S
Dy1743 O1750 2.351 . S
Dy1743 O1752 2.398 . S
Dy1743 O1753 2.491 . S
Dy1743 O1754 2.403 . S
Dy1743 O1755 2.664 . S
Dy1743 O1757 2.326 . S
O1744 Dy1740 2.398 . S
O1744 C1742 1.185 . S
O1745 Dy1740 2.491 . S
O1745 C1742 1.355 . S
O1746 Dy1740 2.403 . S
O1746 C1748 1.254 . S
O1747 Dy1740 2.664 . S
O1747 Dy1743 2.310 . S
O1747 C1748 1.268 . S
C1748 O1746 1.254 . S
C1748 O1747 1.268 . S
C1749 O1754 1.254 . S
C1749 O1755 1.268 . S
O1750 Dy1743 2.351 . S
O1750 C1758 1.249 . S
O1751 Dy1740 2.326 . S
O1751 C1758 1.267 . S
O1752 C1741 1.185 . S
O1752 Dy1743 2.398 . S
O1753 C1741 1.355 . S
O1753 Dy1743 2.491 . S
O1754 Dy1743 2.403 . S
O1754 C1749 1.254 . S
O1755 Dy1740 2.310 . S
O1755 Dy1743 2.664 . S
O1755 C1749 1.268 . S
O1756 Dy1740 2.351 . S
O1756 C1759 1.249 . S
O1757 Dy1743 2.326 . S
O1757 C1759 1.267 . S
C1758 O1750 1.249 . S
C1758 O1751 1.267 . S
C1759 O1756 1.249 . S
C1759 O1757 1.267 . S
Dy1760 O1764 2.398 . S
Dy1760 O1765 2.491 . S
Dy1760 O1766 2.403 . S
Dy1760 O1767 2.664 . S
Dy1760 O1771 2.326 . S
Dy1760 O1775 2.310 . S
Dy1760 O1776 2.351 . S
C1761 O1772 1.185 . S
C1761 O1773 1.355 . S
C1762 O1764 1.185 . S
C1762 O1765 1.355 . S
Dy1763 O1767 2.310 . S
Dy1763 O1770 2.351 . S
Dy1763 O1772 2.398 . S
Dy1763 O1773 2.491 . S
Dy1763 O1774 2.403 . S
Dy1763 O1775 2.664 . S
Dy1763 O1777 2.326 . S
O1764 Dy1760 2.398 . S
O1764 C1762 1.185 . S
O1765 Dy1760 2.491 . S
O1765 C1762 1.355 . S
O1766 Dy1760 2.403 . S
O1766 C1768 1.254 . S
O1767 Dy1760 2.664 . S
O1767 Dy1763 2.310 . S
O1767 C1768 1.268 . S
C1768 O1766 1.254 . S
C1768 O1767 1.268 . S
C1769 O1774 1.254 . S
C1769 O1775 1.268 . S
O1770 Dy1763 2.351 . S
O1770 C1778 1.249 . S
O1771 Dy1760 2.326 . S
O1771 C1778 1.267 . S
O1772 C1761 1.185 . S
O1772 Dy1763 2.398 . S
O1773 C1761 1.355 . S
O1773 Dy1763 2.491 . S
O1774 Dy1763 2.403 . S
O1774 C1769 1.254 . S
O1775 Dy1760 2.310 . S
O1775 Dy1763 2.664 . S
O1775 C1769 1.268 . S
O1776 Dy1760 2.351 . S
O1776 C1779 1.249 . S
O1777 Dy1763 2.326 . S
O1777 C1779 1.267 . S
C1778 O1770 1.249 . S
C1778 O1771 1.267 . S
C1779 O1776 1.249 . S
C1779 O1777 1.267 . S
Dy1780 O1784 2.398 . S
Dy1780 O1785 2.491 . S
Dy1780 O1786 2.403 . S
Dy1780 O1787 2.664 . S
Dy1780 O1791 2.326 . S
Dy1780 O1795 2.310 . S
Dy1780 O1796 2.351 . S
C1781 O1792 1.185 . S
C1781 O1793 1.355 . S
C1782 O1784 1.185 . S
C1782 O1785 1.355 . S
Dy1783 O1787 2.310 . S
Dy1783 O1790 2.351 . S
Dy1783 O1792 2.398 . S
Dy1783 O1793 2.491 . S
Dy1783 O1794 2.403 . S
Dy1783 O1795 2.664 . S
Dy1783 O1797 2.326 . S
O1784 Dy1780 2.398 . S
O1784 C1782 1.185 . S
O1785 Dy1780 2.491 . S
O1785 C1782 1.355 . S
O1786 Dy1780 2.403 . S
O1786 C1788 1.254 . S
O1787 Dy1780 2.664 . S
O1787 Dy1783 2.310 . S
O1787 C1788 1.268 . S
C1788 O1786 1.254 . S
C1788 O1787 1.268 . S
C1789 O1794 1.254 . S
C1789 O1795 1.268 . S
O1790 Dy1783 2.351 . S
O1790 C1798 1.249 . S
O1791 Dy1780 2.326 . S
O1791 C1798 1.267 . S
O1792 C1781 1.185 . S
O1792 Dy1783 2.398 . S
O1793 C1781 1.355 . S
O1793 Dy1783 2.491 . S
O1794 Dy1783 2.403 . S
O1794 C1789 1.254 . S
O1795 Dy1780 2.310 . S
O1795 Dy1783 2.664 . S
O1795 C1789 1.268 . S
O1796 Dy1780 2.351 . S
O1796 C1799 1.249 . S
O1797 Dy1783 2.326 . S
O1797 C1799 1.267 . S
C1798 O1790 1.249 . S
C1798 O1791 1.267 . S
C1799 O1796 1.249 . S
C1799 O1797 1.267 . S
Dy1800 O1804 2.398 . S
Dy1800 O1805 2.491 . S
Dy1800 O1806 2.403 . S
Dy1800 O1807 2.664 . S
Dy1800 O1811 2.326 . S
Dy1800 O1815 2.310 . S
Dy1800 O1816 2.351 . S
C1801 O1812 1.185 . S
C1801 O1813 1.355 . S
C1802 O1804 1.185 . S
C1802 O1805 1.355 . S
Dy1803 O1807 2.310 . S
Dy1803 O1810 2.351 . S
Dy1803 O1812 2.398 . S
Dy1803 O1813 2.491 . S
Dy1803 O1814 2.403 . S
Dy1803 O1815 2.664 . S
Dy1803 O1817 2.326 . S
O1804 Dy1800 2.398 . S
O1804 C1802 1.185 . S
O1805 Dy1800 2.491 . S
O1805 C1802 1.355 . S
O1806 Dy1800 2.403 . S
O1806 C1808 1.254 . S
O1807 Dy1800 2.664 . S
O1807 Dy1803 2.310 . S
O1807 C1808 1.268 . S
C1808 O1806 1.254 . S
C1808 O1807 1.268 . S
C1809 O1814 1.254 . S
C1809 O1815 1.268 . S
O1810 Dy1803 2.351 . S
O1810 C1818 1.249 . S
O1811 Dy1800 2.326 . S
O1811 C1818 1.267 . S
O1812 C1801 1.185 . S
O1812 Dy1803 2.398 . S
O1813 C1801 1.355 . S
O1813 Dy1803 2.491 . S
O1814 Dy1803 2.403 . S
O1814 C1809 1.254 . S
O1815 Dy1800 2.310 . S
O1815 Dy1803 2.664 . S
O1815 C1809 1.268 . S
O1816 Dy1800 2.351 . S
O1816 C1819 1.249 . S
O1817 Dy1803 2.326 . S
O1817 C1819 1.267 . S
C1818 O1810 1.249 . S
C1818 O1811 1.267 . S
C1819 O1816 1.249 . S
C1819 O1817 1.267 . S
Dy1820 O1824 2.398 . S
Dy1820 O1825 2.491 . S
Dy1820 O1826 2.403 1_556 S
Dy1820 O1827 2.664 1_556 S
Dy1820 O1831 2.326 . S
Dy1820 O1835 2.310 . S
Dy1820 O1836 2.351 1_556 S
C1821 O1832 1.185 . S
C1821 O1833 1.355 . S
C1822 O1824 1.185 . S
C1822 O1825 1.355 . S
Dy1823 O1827 2.310 . S
Dy1823 O1830 2.351 . S
Dy1823 O1832 2.398 . S
Dy1823 O1833 2.491 . S
Dy1823 O1834 2.403 . S
Dy1823 O1835 2.664 1_554 S
Dy1823 O1837 2.326 . S
O1824 Dy1820 2.398 . S
O1824 C1822 1.185 . S
O1825 Dy1820 2.491 . S
O1825 C1822 1.355 . S
O1826 Dy1820 2.403 1_554 S
O1826 C1828 1.254 . S
O1827 Dy1820 2.664 1_554 S
O1827 Dy1823 2.310 . S
O1827 C1828 1.268 . S
C1828 O1826 1.254 . S
C1828 O1827 1.268 . S
C1829 O1834 1.254 1_556 S
C1829 O1835 1.268 . S
O1830 Dy1823 2.351 . S
O1830 C1838 1.249 1_554 S
O1831 Dy1820 2.326 . S
O1831 C1838 1.267 . S
O1832 C1821 1.185 . S
O1832 Dy1823 2.398 . S
O1833 C1821 1.355 . S
O1833 Dy1823 2.491 . S
O1834 Dy1823 2.403 . S
O1834 C1829 1.254 1_554 S
O1835 Dy1820 2.310 . S
O1835 Dy1823 2.664 1_556 S
O1835 C1829 1.268 . S
O1836 Dy1820 2.351 1_554 S
O1836 C1839 1.249 . S
O1837 Dy1823 2.326 . S
O1837 C1839 1.267 . S
C1838 O1830 1.249 1_556 S
C1838 O1831 1.267 . S
C1839 O1836 1.249 . S
C1839 O1837 1.267 . S
Dy1840 O1844 2.398 . S
Dy1840 O1845 2.491 . S
Dy1840 O1846 2.403 . S
Dy1840 O1847 2.664 . S
Dy1840 O1851 2.326 . S
Dy1840 O1855 2.310 . S
Dy1840 O1856 2.351 . S
C1841 O1852 1.185 . S
C1841 O1853 1.355 . S
C1842 O1844 1.185 . S
C1842 O1845 1.355 . S
Dy1843 O1847 2.310 . S
Dy1843 O1850 2.351 . S
Dy1843 O1852 2.398 . S
Dy1843 O1853 2.491 . S
Dy1843 O1854 2.403 . S
Dy1843 O1855 2.664 . S
Dy1843 O1857 2.326 . S
O1844 Dy1840 2.398 . S
O1844 C1842 1.185 . S
O1845 Dy1840 2.491 . S
O1845 C1842 1.355 . S
O1846 Dy1840 2.403 . S
O1846 C1848 1.254 . S
O1847 Dy1840 2.664 . S
O1847 Dy1843 2.310 . S
O1847 C1848 1.268 . S
C1848 O1846 1.254 . S
C1848 O1847 1.268 . S
C1849 O1854 1.254 . S
C1849 O1855 1.268 . S
O1850 Dy1843 2.351 . S
O1850 C1858 1.249 . S
O1851 Dy1840 2.326 . S
O1851 C1858 1.267 . S
O1852 C1841 1.185 . S
O1852 Dy1843 2.398 . S
O1853 C1841 1.355 . S
O1853 Dy1843 2.491 . S
O1854 Dy1843 2.403 . S
O1854 C1849 1.254 . S
O1855 Dy1840 2.310 . S
O1855 Dy1843 2.664 . S
O1855 C1849 1.268 . S
O1856 Dy1840 2.351 . S
O1856 C1859 1.249 . S
O1857 Dy1843 2.326 . S
O1857 C1859 1.267 . S
C1858 O1850 1.249 . S
C1858 O1851 1.267 . S
C1859 O1856 1.249 . S
C1859 O1857 1.267 . S
Dy1860 O1864 2.398 . S
Dy1860 O1865 2.491 . S
Dy1860 O1866 2.403 1_554 S
Dy1860 O1867 2.664 1_554 S
Dy1860 O1871 2.326 . S
Dy1860 O1875 2.314 . S
Dy1860 O1876 2.351 1_554 S
C1861 O1872 1.185 . S
C1861 O1873 1.355 . S
C1862 O1864 1.185 . S
C1862 O1865 1.355 . S
Dy1863 O1867 2.310 . S
Dy1863 O1870 2.351 . S
Dy1863 O1872 2.398 . S
Dy1863 O1873 2.491 . S
Dy1863 O1874 2.403 . S
Dy1863 O1875 2.639 1_556 S
Dy1863 O1877 2.326 . S
O1864 Dy1860 2.398 . S
O1864 C1862 1.185 . S
O1865 Dy1860 2.491 . S
O1865 C1862 1.355 . S
O1866 Dy1860 2.403 1_556 S
O1866 C1868 1.254 . S
O1867 Dy1860 2.664 1_556 S
O1867 Dy1863 2.310 . S
O1867 C1868 1.268 . S
C1868 O1866 1.254 . S
C1868 O1867 1.268 . S
C1869 O1874 1.274 . S
C1869 O1875 1.267 1_556 S
O1870 Dy1863 2.351 . S
O1870 C1878 1.249 1_556 S
O1871 Dy1860 2.326 . S
O1871 C1878 1.267 . S
O1872 C1861 1.185 . S
O1872 Dy1863 2.398 . S
O1873 C1861 1.355 . S
O1873 Dy1863 2.491 . S
O1874 Dy1863 2.403 . S
O1874 C1869 1.274 . S
O1875 Dy1860 2.314 . S
O1875 Dy1863 2.639 1_554 S
O1875 C1869 1.267 1_554 S
O1876 Dy1860 2.351 1_556 S
O1876 C1879 1.249 . S
O1877 Dy1863 2.326 . S
O1877 C1879 1.267 . S
C1878 O1870 1.249 1_554 S
C1878 O1871 1.267 . S
C1879 O1876 1.249 . S
C1879 O1877 1.267 . S
Dy1880 O1884 2.398 . S
Dy1880 O1885 2.491 . S
Dy1880 O1886 2.403 . S
Dy1880 O1887 2.664 . S
Dy1880 O1891 2.326 . S
Dy1880 O1895 2.310 . S
Dy1880 O1896 2.351 . S
C1881 O1892 1.185 . S
C1881 O1893 1.355 . S
C1882 O1884 1.185 . S
C1882 O1885 1.355 . S
Dy1883 O1887 2.310 . S
Dy1883 O1890 2.351 . S
Dy1883 O1892 2.398 . S
Dy1883 O1893 2.491 . S
Dy1883 O1894 2.403 . S
Dy1883 O1895 2.664 . S
Dy1883 O1897 2.326 . S
O1884 Dy1880 2.398 . S
O1884 C1882 1.185 . S
O1885 Dy1880 2.491 . S
O1885 C1882 1.355 . S
O1886 Dy1880 2.403 . S
O1886 C1888 1.254 . S
O1887 Dy1880 2.664 . S
O1887 Dy1883 2.310 . S
O1887 C1888 1.268 . S
C1888 O1886 1.254 . S
C1888 O1887 1.268 . S
C1889 O1894 1.254 . S
C1889 O1895 1.268 . S
O1890 Dy1883 2.351 . S
O1890 C1898 1.249 . S
O1891 Dy1880 2.326 . S
O1891 C1898 1.267 . S
O1892 C1881 1.185 . S
O1892 Dy1883 2.398 . S
O1893 C1881 1.355 . S
O1893 Dy1883 2.491 . S
O1894 Dy1883 2.403 . S
O1894 C1889 1.254 . S
O1895 Dy1880 2.310 . S
O1895 Dy1883 2.664 . S
O1895 C1889 1.268 . S
O1896 Dy1880 2.351 . S
O1896 C1899 1.249 . S
O1897 Dy1883 2.326 . S
O1897 C1899 1.267 . S
C1898 O1890 1.249 . S
C1898 O1891 1.267 . S
C1899 O1896 1.249 . S
C1899 O1897 1.267 . S
Dy1900 O1904 2.398 . S
Dy1900 O1905 2.491 . S
Dy1900 O1906 2.403 . S
Dy1900 O1907 2.664 . S
Dy1900 O1911 2.326 . S
Dy1900 O1915 2.310 . S
Dy1900 O1916 2.351 . S
C1901 O1912 1.185 . S
C1901 O1913 1.355 . S
C1902 O1904 1.185 . S
C1902 O1905 1.355 . S
Dy1903 O1907 2.310 . S
Dy1903 O1910 2.351 . S
Dy1903 O1912 2.398 . S
Dy1903 O1913 2.491 . S
Dy1903 O1914 2.403 . S
Dy1903 O1915 2.664 . S
Dy1903 O1917 2.326 . S
O1904 Dy1900 2.398 . S
O1904 C1902 1.185 . S
O1905 Dy1900 2.491 . S
O1905 C1902 1.355 . S
O1906 Dy1900 2.403 . S
O1906 C1908 1.254 . S
O1907 Dy1900 2.664 . S
O1907 Dy1903 2.310 . S
O1907 C1908 1.268 . S
C1908 O1906 1.254 . S
C1908 O1907 1.268 . S
C1909 O1914 1.254 . S
C1909 O1915 1.268 . S
O1910 Dy1903 2.351 . S
O1910 C1918 1.249 . S
O1911 Dy1900 2.326 . S
O1911 C1918 1.267 . S
O1912 C1901 1.185 . S
O1912 Dy1903 2.398 . S
O1913 C1901 1.355 . S
O1913 Dy1903 2.491 . S
O1914 Dy1903 2.403 . S
O1914 C1909 1.254 . S
O1915 Dy1900 2.310 . S
O1915 Dy1903 2.664 . S
O1915 C1909 1.268 . S
O1916 Dy1900 2.351 . S
O1916 C1919 1.249 . S
O1917 Dy1903 2.326 . S
O1917 C1919 1.267 . S
C1918 O1910 1.249 . S
C1918 O1911 1.267 . S
C1919 O1916 1.249 . S
C1919 O1917 1.267 . S
C1920 C1921 1.387 . S
C1920 H1924 0.950 . S
C1920 C1929 1.390 . S
C1921 C1920 1.387 . S
C1921 C1923 1.387 . S
H1922 C1929 0.950 . S
C1923 C1921 1.387 . S
C1923 C1925 1.390 . S
C1923 H1927 0.950 . S
H1924 C1920 0.950 . S
C1925 C1923 1.390 . S
C1925 C1926 1.387 . S
C1925 H1928 0.950 . S
C1926 C1925 1.387 . S
C1926 C1929 1.387 . S
H1927 C1923 0.950 . S
H1928 C1925 0.950 . S
C1929 C1920 1.390 . S
C1929 H1922 0.950 . S
C1929 C1926 1.387 . S
C1930 C1931 1.387 . S
C1930 H1934 0.950 . S
C1930 C1939 1.390 . S
C1931 C1930 1.387 . S
C1931 C1933 1.387 . S
H1932 C1939 0.950 . S
C1933 C1931 1.387 . S
C1933 C1935 1.390 . S
C1933 H1937 0.950 . S
H1934 C1930 0.950 . S
C1935 C1933 1.390 . S
C1935 C1936 1.387 . S
C1935 H1938 0.950 . S
C1936 C1935 1.387 . S
C1936 C1939 1.387 . S
H1937 C1933 0.950 . S
H1938 C1935 0.950 . S
C1939 C1930 1.390 . S
C1939 H1932 0.950 . S
C1939 C1936 1.387 . S
C1940 C1941 1.387 . S
C1940 H1944 0.950 . S
C1940 C1949 1.390 . S
C1941 C1940 1.387 . S
C1941 C1943 1.387 . S
H1942 C1949 0.950 . S
C1943 C1941 1.387 . S
C1943 C1945 1.390 . S
C1943 H1947 0.950 . S
H1944 C1940 0.950 . S
C1945 C1943 1.390 . S
C1945 C1946 1.387 . S
C1945 H1948 0.950 . S
C1946 C1945 1.387 . S
C1946 C1949 1.387 . S
H1947 C1943 0.950 . S
H1948 C1945 0.950 . S
C1949 C1940 1.390 . S
C1949 H1942 0.950 . S
C1949 C1946 1.387 . S
C1950 C1951 1.387 . S
C1950 H1954 0.950 . S
C1950 C1959 1.390 . S
C1951 C1950 1.387 . S
C1951 C1953 1.387 . S
H1952 C1959 0.950 . S
C1953 C1951 1.387 . S
C1953 C1955 1.390 . S
C1953 H1957 0.950 . S
H1954 C1950 0.950 . S
C1955 C1953 1.390 . S
C1955 C1956 1.387 . S
C1955 H1958 0.950 . S
C1956 C1955 1.387 . S
C1956 C1959 1.387 . S
H1957 C1953 0.950 . S
H1958 C1955 0.950 . S
C1959 C1950 1.390 . S
C1959 H1952 0.950 . S
C1959 C1956 1.387 . S
C1960 C1961 1.387 . S
C1960 H1964 0.950 . S
C1960 C1969 1.390 . S
C1961 C1960 1.387 . S
C1961 C1963 1.387 . S
H1962 C1969 0.950 . S
C1963 C1961 1.387 . S
C1963 C1965 1.390 . S
C1963 H1967 0.950 . S
H1964 C1960 0.950 . S
C1965 C1963 1.390 . S
C1965 C1966 1.387 . S
C1965 H1968 0.950 . S
C1966 C1965 1.387 . S
C1966 C1969 1.387 . S
H1967 C1963 0.950 . S
H1968 C1965 0.950 . S
C1969 C1960 1.390 . S
C1969 H1962 0.950 . S
C1969 C1966 1.387 . S
C1970 C1971 1.387 . S
C1970 H1974 0.950 . S
C1970 C1979 1.390 . S
C1971 C1970 1.387 . S
C1971 C1973 1.387 . S
H1972 C1979 0.950 . S
C1973 C1971 1.387 . S
C1973 C1975 1.390 . S
C1973 H1977 0.950 . S
H1974 C1970 0.950 . S
C1975 C1973 1.390 . S
C1975 C1976 1.387 . S
C1975 H1978 0.950 . S
C1976 C1975 1.387 . S
C1976 C1979 1.387 . S
H1977 C1973 0.950 . S
H1978 C1975 0.950 . S
C1979 C1970 1.390 . S
C1979 H1972 0.950 . S
C1979 C1976 1.387 . S
C1980 C1981 1.387 . S
C1980 H1984 0.950 . S
C1980 C1989 1.390 . S
C1981 C1980 1.387 . S
C1981 C1983 1.387 . S
H1982 C1989 0.950 . S
C1983 C1981 1.387 . S
C1983 C1985 1.390 . S
C1983 H1987 0.950 . S
H1984 C1980 0.950 . S
C1985 C1983 1.390 . S
C1985 C1986 1.387 . S
C1985 H1988 0.950 . S
C1986 C1985 1.387 . S
C1986 C1989 1.387 . S
H1987 C1983 0.950 . S
H1988 C1985 0.950 . S
C1989 C1980 1.390 . S
C1989 H1982 0.950 . S
C1989 C1986 1.387 . S
C1990 C1991 1.387 . S
C1990 H1994 0.950 . S
C1990 C1999 1.390 . S
C1991 C1990 1.387 . S
C1991 C1993 1.387 . S
H1992 C1999 0.950 . S
C1993 C1991 1.387 . S
C1993 C1995 1.390 . S
C1993 H1997 0.950 . S
H1994 C1990 0.950 . S
C1995 C1993 1.390 . S
C1995 C1996 1.387 . S
C1995 H1998 0.950 . S
C1996 C1995 1.387 . S
C1996 C1999 1.387 . S
H1997 C1993 0.950 . S
H1998 C1995 0.950 . S
C1999 C1990 1.390 . S
C1999 H1992 0.950 . S
C1999 C1996 1.387 . S
C2000 C2001 1.387 . S
C2000 H2004 0.950 . S
C2000 C2009 1.390 . S
C2001 C2000 1.387 . S
C2001 C2003 1.387 . S
H2002 C2009 0.950 . S
C2003 C2001 1.387 . S
C2003 C2005 1.390 . S
C2003 H2007 0.950 . S
H2004 C2000 0.950 . S
C2005 C2003 1.390 . S
C2005 C2006 1.387 . S
C2005 H2008 0.950 . S
C2006 C2005 1.387 . S
C2006 C2009 1.387 . S
H2007 C2003 0.950 . S
H2008 C2005 0.950 . S
C2009 C2000 1.390 . S
C2009 H2002 0.950 . S
C2009 C2006 1.387 . S
C2010 C2011 1.387 . S
C2010 H2014 0.950 . S
C2010 C2019 1.390 . S
C2011 C2010 1.387 . S
C2011 C2013 1.387 . S
H2012 C2019 0.950 . S
C2013 C2011 1.387 . S
C2013 C2015 1.390 . S
C2013 H2017 0.950 . S
H2014 C2010 0.950 . S
C2015 C2013 1.390 . S
C2015 C2016 1.387 . S
C2015 H2018 0.950 . S
C2016 C2015 1.387 . S
C2016 C2019 1.387 . S
H2017 C2013 0.950 . S
H2018 C2015 0.950 . S
C2019 C2010 1.390 . S
C2019 H2012 0.950 . S
C2019 C2016 1.387 . S
C2020 C2021 1.387 . S
C2020 H2024 0.950 . S
C2020 C2029 1.390 . S
C2021 C2020 1.387 . S
C2021 C2023 1.387 . S
H2022 C2029 0.950 . S
C2023 C2021 1.387 . S
C2023 C2025 1.390 . S
C2023 H2027 0.950 . S
H2024 C2020 0.950 . S
C2025 C2023 1.390 . S
C2025 C2026 1.387 . S
C2025 H2028 0.950 . S
C2026 C2025 1.387 . S
C2026 C2029 1.387 . S
H2027 C2023 0.950 . S
H2028 C2025 0.950 . S
C2029 C2020 1.390 . S
C2029 H2022 0.950 . S
C2029 C2026 1.387 . S
C2030 C2031 1.387 . S
C2030 H2034 0.950 . S
C2030 C2039 1.390 . S
C2031 C2030 1.387 . S
C2031 C2033 1.387 . S
H2032 C2039 0.950 . S
C2033 C2031 1.387 . S
C2033 C2035 1.390 . S
C2033 H2037 0.950 . S
H2034 C2030 0.950 . S
C2035 C2033 1.390 . S
C2035 C2036 1.387 . S
C2035 H2038 0.950 . S
C2036 C2035 1.387 . S
C2036 C2039 1.387 . S
H2037 C2033 0.950 . S
H2038 C2035 0.950 . S
C2039 C2030 1.390 . S
C2039 H2032 0.950 . S
C2039 C2036 1.387 . S
C2040 C2041 1.387 . S
C2040 H2044 0.950 . S
C2040 C2049 1.390 . S
C2041 C2040 1.387 . S
C2041 C2043 1.387 . S
H2042 C2049 0.950 . S
C2043 C2041 1.387 . S
C2043 C2045 1.390 . S
C2043 H2047 0.950 . S
H2044 C2040 0.950 . S
C2045 C2043 1.390 . S
C2045 C2046 1.387 . S
C2045 H2048 0.950 . S
C2046 C2045 1.387 . S
C2046 C2049 1.387 . S
H2047 C2043 0.950 . S
H2048 C2045 0.950 . S
C2049 C2040 1.390 . S
C2049 H2042 0.950 . S
C2049 C2046 1.387 . S
C2050 C2051 1.387 . S
C2050 H2054 0.950 . S
C2050 C2059 1.390 . S
C2051 C2050 1.387 . S
C2051 C2053 1.387 . S
H2052 C2059 0.950 . S
C2053 C2051 1.387 . S
C2053 C2055 1.390 . S
C2053 H2057 0.950 . S
H2054 C2050 0.950 . S
C2055 C2053 1.390 . S
C2055 C2056 1.387 . S
C2055 H2058 0.950 . S
C2056 C2055 1.387 . S
C2056 C2059 1.387 . S
H2057 C2053 0.950 . S
H2058 C2055 0.950 . S
C2059 C2050 1.390 . S
C2059 H2052 0.950 . S
C2059 C2056 1.387 . S
C2060 C2061 1.387 . S
C2060 H2064 0.950 . S
C2060 C2069 1.390 . S
C2061 C2060 1.387 . S
C2061 C2063 1.387 . S
H2062 C2069 0.950 . S
C2063 C2061 1.387 . S
C2063 C2065 1.390 . S
C2063 H2067 0.950 . S
H2064 C2060 0.950 . S
C2065 C2063 1.390 . S
C2065 C2066 1.387 . S
C2065 H2068 0.950 . S
C2066 C2065 1.387 . S
C2066 C2069 1.387 . S
H2067 C2063 0.950 . S
H2068 C2065 0.950 . S
C2069 C2060 1.390 . S
C2069 H2062 0.950 . S
C2069 C2066 1.387 . S
C2070 C2071 1.387 . S
C2070 H2074 0.950 . S
C2070 C2079 1.390 . S
C2071 C2070 1.387 . S
C2071 C2073 1.387 . S
H2072 C2079 0.950 . S
C2073 C2071 1.387 . S
C2073 C2075 1.390 . S
C2073 H2077 0.950 . S
H2074 C2070 0.950 . S
C2075 C2073 1.390 . S
C2075 C2076 1.387 . S
C2075 H2078 0.950 . S
C2076 C2075 1.387 . S
C2076 C2079 1.387 . S
H2077 C2073 0.950 . S
H2078 C2075 0.950 . S
C2079 C2070 1.390 . S
C2079 H2072 0.950 . S
C2079 C2076 1.387 . S
C2080 C2081 1.387 . S
C2080 H2084 0.950 . S
C2080 C2089 1.390 . S
C2081 C2080 1.387 . S
C2081 C2083 1.387 . S
H2082 C2089 0.950 . S
C2083 C2081 1.387 . S
C2083 C2085 1.390 . S
C2083 H2087 0.950 . S
H2084 C2080 0.950 . S
C2085 C2083 1.390 . S
C2085 C2086 1.387 . S
C2085 H2088 0.950 . S
C2086 C2085 1.387 . S
C2086 C2089 1.387 . S
H2087 C2083 0.950 . S
H2088 C2085 0.950 . S
C2089 C2080 1.390 . S
C2089 H2082 0.950 . S
C2089 C2086 1.387 . S
C2090 C2091 1.387 . S
C2090 H2094 0.950 . S
C2090 C2099 1.390 . S
C2091 C2090 1.387 . S
C2091 C2093 1.387 . S
H2092 C2099 0.950 . S
C2093 C2091 1.387 . S
C2093 C2095 1.390 . S
C2093 H2097 0.950 . S
H2094 C2090 0.950 . S
C2095 C2093 1.390 . S
C2095 C2096 1.387 . S
C2095 H2098 0.950 . S
C2096 C2095 1.387 . S
C2096 C2099 1.387 . S
H2097 C2093 0.950 . S
H2098 C2095 0.950 . S
C2099 C2090 1.390 . S
C2099 H2092 0.950 . S
C2099 C2096 1.387 . S
C2100 C2101 1.387 . S
C2100 H2104 0.950 . S
C2100 C2109 1.390 . S
C2101 C2100 1.387 . S
C2101 C2103 1.387 . S
H2102 C2109 0.950 . S
C2103 C2101 1.387 . S
C2103 C2105 1.390 . S
C2103 H2107 0.950 . S
H2104 C2100 0.950 . S
C2105 C2103 1.390 . S
C2105 C2106 1.387 . S
C2105 H2108 0.950 . S
C2106 C2105 1.387 . S
C2106 C2109 1.387 . S
H2107 C2103 0.950 . S
H2108 C2105 0.950 . S
C2109 C2100 1.390 . S
C2109 H2102 0.950 . S
C2109 C2106 1.387 . S
C2110 C2111 1.387 . S
C2110 H2114 0.950 . S
C2110 C2119 1.390 . S
C2111 C2110 1.387 . S
C2111 C2113 1.387 . S
H2112 C2119 0.950 . S
C2113 C2111 1.387 . S
C2113 C2115 1.390 . S
C2113 H2117 0.950 . S
H2114 C2110 0.950 . S
C2115 C2113 1.390 . S
C2115 C2116 1.387 . S
C2115 H2118 0.950 . S
C2116 C2115 1.387 . S
C2116 C2119 1.387 . S
H2117 C2113 0.950 . S
H2118 C2115 0.950 . S
C2119 C2110 1.390 . S
C2119 H2112 0.950 . S
C2119 C2116 1.387 . S
C2120 C2121 1.387 . S
C2120 H2124 0.950 . S
C2120 C2129 1.390 . S
C2121 C2120 1.387 . S
C2121 C2123 1.387 . S
H2122 C2129 0.950 . S
C2123 C2121 1.387 . S
C2123 C2125 1.390 . S
C2123 H2127 0.950 . S
H2124 C2120 0.950 . S
C2125 C2123 1.390 . S
C2125 C2126 1.387 . S
C2125 H2128 0.950 . S
C2126 C2125 1.387 . S
C2126 C2129 1.387 . S
H2127 C2123 0.950 . S
H2128 C2125 0.950 . S
C2129 C2120 1.390 . S
C2129 H2122 0.950 . S
C2129 C2126 1.387 . S
C2130 C2131 1.387 . S
C2130 H2134 0.950 . S
C2130 C2139 1.390 . S
C2131 C2130 1.387 . S
C2131 C2133 1.387 . S
H2132 C2139 0.950 . S
C2133 C2131 1.387 . S
C2133 C2135 1.390 . S
C2133 H2137 0.950 . S
H2134 C2130 0.950 . S
C2135 C2133 1.390 . S
C2135 C2136 1.387 . S
C2135 H2138 0.950 . S
C2136 C2135 1.387 . S
C2136 C2139 1.387 . S
H2137 C2133 0.950 . S
H2138 C2135 0.950 . S
C2139 C2130 1.390 . S
C2139 H2132 0.950 . S
C2139 C2136 1.387 . S
C2140 C2141 1.387 . S
C2140 H2144 0.950 . S
C2140 C2149 1.390 . S
C2141 C2140 1.387 . S
C2141 C2143 1.387 . S
H2142 C2149 0.950 . S
C2143 C2141 1.387 . S
C2143 C2145 1.390 . S
C2143 H2147 0.950 . S
H2144 C2140 0.950 . S
C2145 C2143 1.390 . S
C2145 C2146 1.387 . S
C2145 H2148 0.950 . S
C2146 C2145 1.387 . S
C2146 C2149 1.387 . S
H2147 C2143 0.950 . S
H2148 C2145 0.950 . S
C2149 C2140 1.390 . S
C2149 H2142 0.950 . S
C2149 C2146 1.387 . S
C2150 C2151 1.387 . S
C2150 H2154 0.950 . S
C2150 C2159 1.390 . S
C2151 C2150 1.387 . S
C2151 C2153 1.387 . S
H2152 C2159 0.950 . S
C2153 C2151 1.387 . S
C2153 C2155 1.390 . S
C2153 H2157 0.950 . S
H2154 C2150 0.950 . S
C2155 C2153 1.390 . S
C2155 C2156 1.387 . S
C2155 H2158 0.950 . S
C2156 C2155 1.387 . S
C2156 C2159 1.387 . S
H2157 C2153 0.950 . S
H2158 C2155 0.950 . S
C2159 C2150 1.390 . S
C2159 H2152 0.950 . S
C2159 C2156 1.387 . S
C2160 C2161 1.387 . S
C2160 H2164 0.950 . S
C2160 C2169 1.390 . S
C2161 C2160 1.387 . S
C2161 C2163 1.387 . S
H2162 C2169 0.950 . S
C2163 C2161 1.387 . S
C2163 C2165 1.390 . S
C2163 H2167 0.950 . S
H2164 C2160 0.950 . S
C2165 C2163 1.390 . S
C2165 C2166 1.387 . S
C2165 H2168 0.950 . S
C2166 C2165 1.387 . S
C2166 C2169 1.387 . S
H2167 C2163 0.950 . S
H2168 C2165 0.950 . S
C2169 C2160 1.390 . S
C2169 H2162 0.950 . S
C2169 C2166 1.387 . S
C2170 C2171 1.387 . S
C2170 H2174 0.950 . S
C2170 C2179 1.390 . S
C2171 C2170 1.387 . S
C2171 C2173 1.387 . S
H2172 C2179 0.950 . S
C2173 C2171 1.387 . S
C2173 C2175 1.390 . S
C2173 H2177 0.950 . S
H2174 C2170 0.950 . S
C2175 C2173 1.390 . S
C2175 C2176 1.387 . S
C2175 H2178 0.950 . S
C2176 C2175 1.387 . S
C2176 C2179 1.387 . S
H2177 C2173 0.950 . S
H2178 C2175 0.950 . S
C2179 C2170 1.390 . S
C2179 H2172 0.950 . S
C2179 C2176 1.387 . S
C2180 C2181 1.387 . S
C2180 H2184 0.950 . S
C2180 C2189 1.390 . S
C2181 C2180 1.387 . S
C2181 C2183 1.387 . S
H2182 C2189 0.950 . S
C2183 C2181 1.387 . S
C2183 C2185 1.390 . S
C2183 H2187 0.950 . S
H2184 C2180 0.950 . S
C2185 C2183 1.390 . S
C2185 C2186 1.387 . S
C2185 H2188 0.950 . S
C2186 C2185 1.387 . S
C2186 C2189 1.387 . S
H2187 C2183 0.950 . S
H2188 C2185 0.950 . S
C2189 C2180 1.390 . S
C2189 H2182 0.950 . S
C2189 C2186 1.387 . S
C2190 C2191 1.387 . S
C2190 H2194 0.950 . S
C2190 C2199 1.390 . S
C2191 C2190 1.387 . S
C2191 C2193 1.387 . S
H2192 C2199 0.950 . S
C2193 C2191 1.387 . S
C2193 C2195 1.390 . S
C2193 H2197 0.950 . S
H2194 C2190 0.950 . S
C2195 C2193 1.390 . S
C2195 C2196 1.387 . S
C2195 H2198 0.950 . S
C2196 C2195 1.387 . S
C2196 C2199 1.387 . S
H2197 C2193 0.950 . S
H2198 C2195 0.950 . S
C2199 C2190 1.390 . S
C2199 H2192 0.950 . S
C2199 C2196 1.387 . S
C2200 C2201 1.387 . S
C2200 H2204 0.950 . S
C2200 C2209 1.390 . S
C2201 C2200 1.387 . S
C2201 C2203 1.387 . S
H2202 C2209 0.950 . S
C2203 C2201 1.387 . S
C2203 C2205 1.390 . S
C2203 H2207 0.950 . S
H2204 C2200 0.950 . S
C2205 C2203 1.390 . S
C2205 C2206 1.387 . S
C2205 H2208 0.950 . S
C2206 C2205 1.387 . S
C2206 C2209 1.387 . S
H2207 C2203 0.950 . S
H2208 C2205 0.950 . S
C2209 C2200 1.390 . S
C2209 H2202 0.950 . S
C2209 C2206 1.387 . S
C2210 C2211 1.387 . S
C2210 H2214 0.950 . S
C2210 C2219 1.390 . S
C2211 C2210 1.387 . S
C2211 C2213 1.387 . S
H2212 C2219 0.950 . S
C2213 C2211 1.387 . S
C2213 C2215 1.390 . S
C2213 H2217 0.950 . S
H2214 C2210 0.950 . S
C2215 C2213 1.390 . S
C2215 C2216 1.387 . S
C2215 H2218 0.950 . S
C2216 C2215 1.387 . S
C2216 C2219 1.387 . S
H2217 C2213 0.950 . S
H2218 C2215 0.950 . S
C2219 C2210 1.390 . S
C2219 H2212 0.950 . S
C2219 C2216 1.387 . S
C2220 C2221 1.387 . S
C2220 H2224 0.950 . S
C2220 C2229 1.390 . S
C2221 C2220 1.387 . S
C2221 C2223 1.387 . S
H2222 C2229 0.950 . S
C2223 C2221 1.387 . S
C2223 C2225 1.390 . S
C2223 H2227 0.950 . S
H2224 C2220 0.950 . S
C2225 C2223 1.390 . S
C2225 C2226 1.387 . S
C2225 H2228 0.950 . S
C2226 C2225 1.387 . S
C2226 C2229 1.387 . S
H2227 C2223 0.950 . S
H2228 C2225 0.950 . S
C2229 C2220 1.390 . S
C2229 H2222 0.950 . S
C2229 C2226 1.387 . S
C2230 C2231 1.387 . S
C2230 H2234 0.950 . S
C2230 C2239 1.390 . S
C2231 C2230 1.387 . S
C2231 C2233 1.387 . S
H2232 C2239 0.950 . S
C2233 C2231 1.387 . S
C2233 C2235 1.390 . S
C2233 H2237 0.950 . S
H2234 C2230 0.950 . S
C2235 C2233 1.390 . S
C2235 C2236 1.387 . S
C2235 H2238 0.950 . S
C2236 C2235 1.387 . S
C2236 C2239 1.387 . S
H2237 C2233 0.950 . S
H2238 C2235 0.950 . S
C2239 C2230 1.390 . S
C2239 H2232 0.950 . S
C2239 C2236 1.387 . S
C2240 C2241 1.387 . S
C2240 H2244 0.950 . S
C2240 C2249 1.390 . S
C2241 C2240 1.387 . S
C2241 C2243 1.387 . S
H2242 C2249 0.950 . S
C2243 C2241 1.387 . S
C2243 C2245 1.390 . S
C2243 H2247 0.950 . S
H2244 C2240 0.950 . S
C2245 C2243 1.390 . S
C2245 C2246 1.387 . S
C2245 H2248 0.950 . S
C2246 C2245 1.387 . S
C2246 C2249 1.387 . S
H2247 C2243 0.950 . S
H2248 C2245 0.950 . S
C2249 C2240 1.390 . S
C2249 H2242 0.950 . S
C2249 C2246 1.387 . S
C2250 C2251 1.387 . S
C2250 H2254 0.950 . S
C2250 C2259 1.390 . S
C2251 C2250 1.387 . S
C2251 C2253 1.387 . S
H2252 C2259 0.950 . S
C2253 C2251 1.387 . S
C2253 C2255 1.390 . S
C2253 H2257 0.950 . S
H2254 C2250 0.950 . S
C2255 C2253 1.390 . S
C2255 C2256 1.387 . S
C2255 H2258 0.950 . S
C2256 C2255 1.387 . S
C2256 C2259 1.387 . S
H2257 C2253 0.950 . S
H2258 C2255 0.950 . S
C2259 C2250 1.390 . S
C2259 H2252 0.950 . S
C2259 C2256 1.387 . S
C2260 C2261 1.387 . S
C2260 H2264 0.950 . S
C2260 C2269 1.390 . S
C2261 C2260 1.387 . S
C2261 C2263 1.387 . S
H2262 C2269 0.950 . S
C2263 C2261 1.387 . S
C2263 C2265 1.390 . S
C2263 H2267 0.950 . S
H2264 C2260 0.950 . S
C2265 C2263 1.390 . S
C2265 C2266 1.387 . S
C2265 H2268 0.950 . S
C2266 C2265 1.387 . S
C2266 C2269 1.387 . S
H2267 C2263 0.950 . S
H2268 C2265 0.950 . S
C2269 C2260 1.390 . S
C2269 H2262 0.950 . S
C2269 C2266 1.387 . S
C2270 C2271 1.387 . S
C2270 H2274 0.950 . S
C2270 C2279 1.390 . S
C2271 C2270 1.387 . S
C2271 C2273 1.387 . S
H2272 C2279 0.950 . S
C2273 C2271 1.387 . S
C2273 C2275 1.390 . S
C2273 H2277 0.950 . S
H2274 C2270 0.950 . S
C2275 C2273 1.390 . S
C2275 C2276 1.387 . S
C2275 H2278 0.950 . S
C2276 C2275 1.387 . S
C2276 C2279 1.387 . S
H2277 C2273 0.950 . S
H2278 C2275 0.950 . S
C2279 C2270 1.390 . S
C2279 H2272 0.950 . S
C2279 C2276 1.387 . S
C2280 C2281 1.387 . S
C2280 H2284 0.950 . S
C2280 C2289 1.390 . S
C2281 C2280 1.387 . S
C2281 C2283 1.387 . S
H2282 C2289 0.950 . S
C2283 C2281 1.387 . S
C2283 C2285 1.390 . S
C2283 H2287 0.950 . S
H2284 C2280 0.950 . S
C2285 C2283 1.390 . S
C2285 C2286 1.387 . S
C2285 H2288 0.950 . S
C2286 C2285 1.387 . S
C2286 C2289 1.387 . S
H2287 C2283 0.950 . S
H2288 C2285 0.950 . S
C2289 C2280 1.390 . S
C2289 H2282 0.950 . S
C2289 C2286 1.387 . S
C2290 C2291 1.387 . S
C2290 H2294 0.950 . S
C2290 C2299 1.390 . S
C2291 C2290 1.387 . S
C2291 C2293 1.387 . S
H2292 C2299 0.950 . S
C2293 C2291 1.387 . S
C2293 C2295 1.390 . S
C2293 H2297 0.950 . S
H2294 C2290 0.950 . S
C2295 C2293 1.390 . S
C2295 C2296 1.387 . S
C2295 H2298 0.950 . S
C2296 C2295 1.387 . S
C2296 C2299 1.387 . S
H2297 C2293 0.950 . S
H2298 C2295 0.950 . S
C2299 C2290 1.390 . S
C2299 H2292 0.950 . S
C2299 C2296 1.387 . S
C2300 C2301 1.387 . S
C2300 H2304 0.950 . S
C2300 C2309 1.390 . S
C2301 C2300 1.387 . S
C2301 C2303 1.387 . S
H2302 C2309 0.950 . S
C2303 C2301 1.387 . S
C2303 C2305 1.390 . S
C2303 H2307 0.950 . S
H2304 C2300 0.950 . S
C2305 C2303 1.390 . S
C2305 C2306 1.387 . S
C2305 H2308 0.950 . S
C2306 C2305 1.387 . S
C2306 C2309 1.387 . S
H2307 C2303 0.950 . S
H2308 C2305 0.950 . S
C2309 C2300 1.390 . S
C2309 H2302 0.950 . S
C2309 C2306 1.387 . S
C2310 C2311 1.387 . S
C2310 H2314 0.950 . S
C2310 C2319 1.390 . S
C2311 C2310 1.387 . S
C2311 C2313 1.387 . S
H2312 C2319 0.950 . S
C2313 C2311 1.387 . S
C2313 C2315 1.390 . S
C2313 H2317 0.950 . S
H2314 C2310 0.950 . S
C2315 C2313 1.390 . S
C2315 C2316 1.387 . S
C2315 H2318 0.950 . S
C2316 C2315 1.387 . S
C2316 C2319 1.387 . S
H2317 C2313 0.950 . S
H2318 C2315 0.950 . S
C2319 C2310 1.390 . S
C2319 H2312 0.950 . S
C2319 C2316 1.387 . S
C2320 C2321 1.387 . S
C2320 H2324 0.950 . S
C2320 C2329 1.390 . S
C2321 C2320 1.387 . S
C2321 C2323 1.387 . S
H2322 C2329 0.950 . S
C2323 C2321 1.387 . S
C2323 C2325 1.390 . S
C2323 H2327 0.950 . S
H2324 C2320 0.950 . S
C2325 C2323 1.390 . S
C2325 C2326 1.387 . S
C2325 H2328 0.950 . S
C2326 C2325 1.387 . S
C2326 C2329 1.387 . S
H2327 C2323 0.950 . S
H2328 C2325 0.950 . S
C2329 C2320 1.390 . S
C2329 H2322 0.950 . S
C2329 C2326 1.387 . S
C2330 C2331 1.387 . S
C2330 H2334 0.950 . S
C2330 C2339 1.390 . S
C2331 C2330 1.387 . S
C2331 C2333 1.387 . S
H2332 C2339 0.950 . S
C2333 C2331 1.387 . S
C2333 C2335 1.390 . S
C2333 H2337 0.950 . S
H2334 C2330 0.950 . S
C2335 C2333 1.390 . S
C2335 C2336 1.387 . S
C2335 H2338 0.950 . S
C2336 C2335 1.387 . S
C2336 C2339 1.387 . S
H2337 C2333 0.950 . S
H2338 C2335 0.950 . S
C2339 C2330 1.390 . S
C2339 H2332 0.950 . S
C2339 C2336 1.387 . S
C2340 C2341 1.387 . S
C2340 H2344 0.950 . S
C2340 C2349 1.390 . S
C2341 C2340 1.387 . S
C2341 C2343 1.387 . S
H2342 C2349 0.950 . S
C2343 C2341 1.387 . S
C2343 C2345 1.390 . S
C2343 H2347 0.950 . S
H2344 C2340 0.950 . S
C2345 C2343 1.390 . S
C2345 C2346 1.387 . S
C2345 H2348 0.950 . S
C2346 C2345 1.387 . S
C2346 C2349 1.387 . S
H2347 C2343 0.950 . S
H2348 C2345 0.950 . S
C2349 C2340 1.390 . S
C2349 H2342 0.950 . S
C2349 C2346 1.387 . S
C2350 C2351 1.387 . S
C2350 H2354 0.950 . S
C2350 C2359 1.390 . S
C2351 C2350 1.387 . S
C2351 C2353 1.387 . S
H2352 C2359 0.950 . S
C2353 C2351 1.387 . S
C2353 C2355 1.390 . S
C2353 H2357 0.950 . S
H2354 C2350 0.950 . S
C2355 C2353 1.390 . S
C2355 C2356 1.387 . S
C2355 H2358 0.950 . S
C2356 C2355 1.387 . S
C2356 C2359 1.387 . S
H2357 C2353 0.950 . S
H2358 C2355 0.950 . S
C2359 C2350 1.390 . S
C2359 H2352 0.950 . S
C2359 C2356 1.387 . S
C2360 C2361 1.387 . S
C2360 H2364 0.950 . S
C2360 C2369 1.390 . S
C2361 C2360 1.387 . S
C2361 C2363 1.387 . S
H2362 C2369 0.950 . S
C2363 C2361 1.387 . S
C2363 C2365 1.390 . S
C2363 H2367 0.950 . S
H2364 C2360 0.950 . S
C2365 C2363 1.390 . S
C2365 C2366 1.387 . S
C2365 H2368 0.950 . S
C2366 C2365 1.387 . S
C2366 C2369 1.387 . S
H2367 C2363 0.950 . S
H2368 C2365 0.950 . S
C2369 C2360 1.390 . S
C2369 H2362 0.950 . S
C2369 C2366 1.387 . S
C2370 C2371 1.387 . S
C2370 H2374 0.950 . S
C2370 C2379 1.390 . S
C2371 C2370 1.387 . S
C2371 C2373 1.387 . S
H2372 C2379 0.950 . S
C2373 C2371 1.387 . S
C2373 C2375 1.390 . S
C2373 H2377 0.950 . S
H2374 C2370 0.950 . S
C2375 C2373 1.390 . S
C2375 C2376 1.387 . S
C2375 H2378 0.950 . S
C2376 C2375 1.387 . S
C2376 C2379 1.387 . S
H2377 C2373 0.950 . S
H2378 C2375 0.950 . S
C2379 C2370 1.390 . S
C2379 H2372 0.950 . S
C2379 C2376 1.387 . S
C2380 C2381 1.387 . S
C2380 H2384 0.950 . S
C2380 C2389 1.390 . S
C2381 C2380 1.387 . S
C2381 C2383 1.387 . S
H2382 C2389 0.950 . S
C2383 C2381 1.387 . S
C2383 C2385 1.390 . S
C2383 H2387 0.950 . S
H2384 C2380 0.950 . S
C2385 C2383 1.390 . S
C2385 C2386 1.387 . S
C2385 H2388 0.950 . S
C2386 C2385 1.387 . S
C2386 C2389 1.387 . S
H2387 C2383 0.950 . S
H2388 C2385 0.950 . S
C2389 C2380 1.390 . S
C2389 H2382 0.950 . S
C2389 C2386 1.387 . S
C2390 C2391 1.387 . S
C2390 H2394 0.950 . S
C2390 C2399 1.390 . S
C2391 C2390 1.387 . S
C2391 C2393 1.387 . S
H2392 C2399 0.950 . S
C2393 C2391 1.387 . S
C2393 C2395 1.390 . S
C2393 H2397 0.950 . S
H2394 C2390 0.950 . S
C2395 C2393 1.390 . S
C2395 C2396 1.387 . S
C2395 H2398 0.950 . S
C2396 C2395 1.387 . S
C2396 C2399 1.387 . S
H2397 C2393 0.950 . S
H2398 C2395 0.950 . S
C2399 C2390 1.390 . S
C2399 H2392 0.950 . S
C2399 C2396 1.387 . S
C2400 C2401 1.387 . S
C2400 H2404 0.950 . S
C2400 C2409 1.390 . S
C2401 C2400 1.387 . S
C2401 C2403 1.387 . S
H2402 C2409 0.950 . S
C2403 C2401 1.387 . S
C2403 C2405 1.390 . S
C2403 H2407 0.950 . S
H2404 C2400 0.950 . S
C2405 C2403 1.390 . S
C2405 C2406 1.387 . S
C2405 H2408 0.950 . S
C2406 C2405 1.387 . S
C2406 C2409 1.387 . S
H2407 C2403 0.950 . S
H2408 C2405 0.950 . S
C2409 C2400 1.390 . S
C2409 H2402 0.950 . S
C2409 C2406 1.387 . S
C2410 C2411 1.387 . S
C2410 H2414 0.950 . S
C2410 C2419 1.390 . S
C2411 C2410 1.387 . S
C2411 C2413 1.387 . S
H2412 C2419 0.950 . S
C2413 C2411 1.387 . S
C2413 C2415 1.390 . S
C2413 H2417 0.950 . S
H2414 C2410 0.950 . S
C2415 C2413 1.390 . S
C2415 C2416 1.387 . S
C2415 H2418 0.950 . S
C2416 C2415 1.387 . S
C2416 C2419 1.387 . S
H2417 C2413 0.950 . S
H2418 C2415 0.950 . S
C2419 C2410 1.390 . S
C2419 H2412 0.950 . S
C2419 C2416 1.387 . S
C2420 C2421 1.387 . S
C2420 H2424 0.950 . S
C2420 C2429 1.390 . S
C2421 C2420 1.387 . S
C2421 C2423 1.387 . S
H2422 C2429 0.950 . S
C2423 C2421 1.387 . S
C2423 C2425 1.390 . S
C2423 H2427 0.950 . S
H2424 C2420 0.950 . S
C2425 C2423 1.390 . S
C2425 C2426 1.387 . S
C2425 H2428 0.950 . S
C2426 C2425 1.387 . S
C2426 C2429 1.387 . S
H2427 C2423 0.950 . S
H2428 C2425 0.950 . S
C2429 C2420 1.390 . S
C2429 H2422 0.950 . S
C2429 C2426 1.387 . S
C2430 C2431 1.387 . S
C2430 H2434 0.950 . S
C2430 C2439 1.390 . S
C2431 C2430 1.387 . S
C2431 C2433 1.387 . S
H2432 C2439 0.950 . S
C2433 C2431 1.387 . S
C2433 C2435 1.390 . S
C2433 H2437 0.950 . S
H2434 C2430 0.950 . S
C2435 C2433 1.390 . S
C2435 C2436 1.387 . S
C2435 H2438 0.950 . S
C2436 C2435 1.387 . S
C2436 C2439 1.387 . S
H2437 C2433 0.950 . S
H2438 C2435 0.950 . S
C2439 C2430 1.390 . S
C2439 H2432 0.950 . S
C2439 C2436 1.387 . S
C2440 C2441 1.387 . S
C2440 H2444 0.950 . S
C2440 C2449 1.390 . S
C2441 C2440 1.387 . S
C2441 C2443 1.387 . S
H2442 C2449 0.950 . S
C2443 C2441 1.387 . S
C2443 C2445 1.390 . S
C2443 H2447 0.950 . S
H2444 C2440 0.950 . S
C2445 C2443 1.390 . S
C2445 C2446 1.387 . S
C2445 H2448 0.950 . S
C2446 C2445 1.387 . S
C2446 C2449 1.387 . S
H2447 C2443 0.950 . S
H2448 C2445 0.950 . S
C2449 C2440 1.390 . S
C2449 H2442 0.950 . S
C2449 C2446 1.387 . S
C2450 C2451 1.387 . S
C2450 H2454 0.950 . S
C2450 C2459 1.390 . S
C2451 C2450 1.387 . S
C2451 C2453 1.387 . S
H2452 C2459 0.950 . S
C2453 C2451 1.387 . S
C2453 C2455 1.390 . S
C2453 H2457 0.950 . S
H2454 C2450 0.950 . S
C2455 C2453 1.390 . S
C2455 C2456 1.387 . S
C2455 H2458 0.950 . S
C2456 C2455 1.387 . S
C2456 C2459 1.387 . S
H2457 C2453 0.950 . S
H2458 C2455 0.950 . S
C2459 C2450 1.390 . S
C2459 H2452 0.950 . S
C2459 C2456 1.387 . S
C2460 C2461 1.387 . S
C2460 H2464 0.950 . S
C2460 C2469 1.390 . S
C2461 C2460 1.387 . S
C2461 C2463 1.387 . S
H2462 C2469 0.950 . S
C2463 C2461 1.387 . S
C2463 C2465 1.390 . S
C2463 H2467 0.950 . S
H2464 C2460 0.950 . S
C2465 C2463 1.390 . S
C2465 C2466 1.387 . S
C2465 H2468 0.950 . S
C2466 C2465 1.387 . S
C2466 C2469 1.387 . S
H2467 C2463 0.950 . S
H2468 C2465 0.950 . S
C2469 C2460 1.390 . S
C2469 H2462 0.950 . S
C2469 C2466 1.387 . S
C2470 C2471 1.387 . S
C2470 H2474 0.950 . S
C2470 C2479 1.390 . S
C2471 C2470 1.387 . S
C2471 C2473 1.387 . S
H2472 C2479 0.950 . S
C2473 C2471 1.387 . S
C2473 C2475 1.390 . S
C2473 H2477 0.950 . S
H2474 C2470 0.950 . S
C2475 C2473 1.390 . S
C2475 C2476 1.387 . S
C2475 H2478 0.950 . S
C2476 C2475 1.387 . S
C2476 C2479 1.387 . S
H2477 C2473 0.950 . S
H2478 C2475 0.950 . S
C2479 C2470 1.390 . S
C2479 H2472 0.950 . S
C2479 C2476 1.387 . S
C2480 C2481 1.387 . S
C2480 H2484 0.950 . S
C2480 C2489 1.390 . S
C2481 C2480 1.387 . S
C2481 C2483 1.387 . S
H2482 C2489 0.950 . S
C2483 C2481 1.387 . S
C2483 C2485 1.390 . S
C2483 H2487 0.950 . S
H2484 C2480 0.950 . S
C2485 C2483 1.390 . S
C2485 C2486 1.387 . S
C2485 H2488 0.950 . S
C2486 C2485 1.387 . S
C2486 C2489 1.387 . S
H2487 C2483 0.950 . S
H2488 C2485 0.950 . S
C2489 C2480 1.390 . S
C2489 H2482 0.950 . S
C2489 C2486 1.387 . S
C2490 C2491 1.387 . S
C2490 H2494 0.950 . S
C2490 C2499 1.390 . S
C2491 C2490 1.387 . S
C2491 C2493 1.387 . S
H2492 C2499 0.950 . S
C2493 C2491 1.387 . S
C2493 C2495 1.390 . S
C2493 H2497 0.950 . S
H2494 C2490 0.950 . S
C2495 C2493 1.390 . S
C2495 C2496 1.387 . S
C2495 H2498 0.950 . S
C2496 C2495 1.387 . S
C2496 C2499 1.387 . S
H2497 C2493 0.950 . S
H2498 C2495 0.950 . S
C2499 C2490 1.390 . S
C2499 H2492 0.950 . S
C2499 C2496 1.387 . S
C2500 C2501 1.387 . S
C2500 H2504 0.950 . S
C2500 C2509 1.390 . S
C2501 C2500 1.387 . S
C2501 C2503 1.387 . S
H2502 C2509 0.950 . S
C2503 C2501 1.387 . S
C2503 C2505 1.390 . S
C2503 H2507 0.950 . S
H2504 C2500 0.950 . S
C2505 C2503 1.390 . S
C2505 C2506 1.387 . S
C2505 H2508 0.950 . S
C2506 C2505 1.387 . S
C2506 C2509 1.387 . S
H2507 C2503 0.950 . S
H2508 C2505 0.950 . S
C2509 C2500 1.390 . S
C2509 H2502 0.950 . S
C2509 C2506 1.387 . S
C2510 C2511 1.387 . S
C2510 H2514 0.950 . S
C2510 C2519 1.390 . S
C2511 C2510 1.387 . S
C2511 C2513 1.387 . S
H2512 C2519 0.950 . S
C2513 C2511 1.387 . S
C2513 C2515 1.390 . S
C2513 H2517 0.950 . S
H2514 C2510 0.950 . S
C2515 C2513 1.390 . S
C2515 C2516 1.387 . S
C2515 H2518 0.950 . S
C2516 C2515 1.387 . S
C2516 C2519 1.387 . S
H2517 C2513 0.950 . S
H2518 C2515 0.950 . S
C2519 C2510 1.390 . S
C2519 H2512 0.950 . S
C2519 C2516 1.387 . S
C2520 C2521 1.387 . S
C2520 H2524 0.950 . S
C2520 C2529 1.390 . S
C2521 C2520 1.387 . S
C2521 C2523 1.387 . S
H2522 C2529 0.950 . S
C2523 C2521 1.387 . S
C2523 C2525 1.390 . S
C2523 H2527 0.950 . S
H2524 C2520 0.950 . S
C2525 C2523 1.390 . S
C2525 C2526 1.387 . S
C2525 H2528 0.950 . S
C2526 C2525 1.387 . S
C2526 C2529 1.387 . S
H2527 C2523 0.950 . S
H2528 C2525 0.950 . S
C2529 C2520 1.390 . S
C2529 H2522 0.950 . S
C2529 C2526 1.387 . S
C2530 C2531 1.387 . S
C2530 H2534 0.950 . S
C2530 C2539 1.390 . S
C2531 C2530 1.387 . S
C2531 C2533 1.387 . S
H2532 C2539 0.950 . S
C2533 C2531 1.387 . S
C2533 C2535 1.390 . S
C2533 H2537 0.950 . S
H2534 C2530 0.950 . S
C2535 C2533 1.390 . S
C2535 C2536 1.387 . S
C2535 H2538 0.950 . S
C2536 C2535 1.387 . S
C2536 C2539 1.387 . S
H2537 C2533 0.950 . S
H2538 C2535 0.950 . S
C2539 C2530 1.390 . S
C2539 H2532 0.950 . S
C2539 C2536 1.387 . S
C2540 C2541 1.387 . S
C2540 H2544 0.950 . S
C2540 C2549 1.390 . S
C2541 C2540 1.387 . S
C2541 C2543 1.387 . S
H2542 C2549 0.950 . S
C2543 C2541 1.387 . S
C2543 C2545 1.390 . S
C2543 H2547 0.950 . S
H2544 C2540 0.950 . S
C2545 C2543 1.390 . S
C2545 C2546 1.387 . S
C2545 H2548 0.950 . S
C2546 C2545 1.387 . S
C2546 C2549 1.387 . S
H2547 C2543 0.950 . S
H2548 C2545 0.950 . S
C2549 C2540 1.390 . S
C2549 H2542 0.950 . S
C2549 C2546 1.387 . S
C2550 C2551 1.387 . S
C2550 H2554 0.950 . S
C2550 C2559 1.390 . S
C2551 C2550 1.387 . S
C2551 C2553 1.387 . S
H2552 C2559 0.950 . S
C2553 C2551 1.387 . S
C2553 C2555 1.390 . S
C2553 H2557 0.950 . S
H2554 C2550 0.950 . S
C2555 C2553 1.390 . S
C2555 C2556 1.387 . S
C2555 H2558 0.950 . S
C2556 C2555 1.387 . S
C2556 C2559 1.387 . S
H2557 C2553 0.950 . S
H2558 C2555 0.950 . S
C2559 C2550 1.390 . S
C2559 H2552 0.950 . S
C2559 C2556 1.387 . S
C2560 C2561 1.387 . S
C2560 H2564 0.950 . S
C2560 C2569 1.390 . S
C2561 C2560 1.387 . S
C2561 C2563 1.387 . S
H2562 C2569 0.950 . S
C2563 C2561 1.387 . S
C2563 C2565 1.390 . S
C2563 H2567 0.950 . S
H2564 C2560 0.950 . S
C2565 C2563 1.390 . S
C2565 C2566 1.387 . S
C2565 H2568 0.950 . S
C2566 C2565 1.387 . S
C2566 C2569 1.387 . S
H2567 C2563 0.950 . S
H2568 C2565 0.950 . S
C2569 C2560 1.390 . S
C2569 H2562 0.950 . S
C2569 C2566 1.387 . S
C2570 C2571 1.387 . S
C2570 H2574 0.950 . S
C2570 C2579 1.390 . S
C2571 C2570 1.387 . S
C2571 C2573 1.387 . S
H2572 C2579 0.950 . S
C2573 C2571 1.387 . S
C2573 C2575 1.390 . S
C2573 H2577 0.950 . S
H2574 C2570 0.950 . S
C2575 C2573 1.390 . S
C2575 C2576 1.387 . S
C2575 H2578 0.950 . S
C2576 C2575 1.387 . S
C2576 C2579 1.387 . S
H2577 C2573 0.950 . S
H2578 C2575 0.950 . S
C2579 C2570 1.390 . S
C2579 H2572 0.950 . S
C2579 C2576 1.387 . S
C2580 C2581 1.387 . S
C2580 H2584 0.950 . S
C2580 C2589 1.390 . S
C2581 C2580 1.387 . S
C2581 C2583 1.387 . S
H2582 C2589 0.950 . S
C2583 C2581 1.387 . S
C2583 C2585 1.390 . S
C2583 H2587 0.950 . S
H2584 C2580 0.950 . S
C2585 C2583 1.390 . S
C2585 C2586 1.387 . S
C2585 H2588 0.950 . S
C2586 C2585 1.387 . S
C2586 C2589 1.387 . S
H2587 C2583 0.950 . S
H2588 C2585 0.950 . S
C2589 C2580 1.390 . S
C2589 H2582 0.950 . S
C2589 C2586 1.387 . S
C2590 C2591 1.387 . S
C2590 H2594 0.950 . S
C2590 C2599 1.390 . S
C2591 C2590 1.387 . S
C2591 C2593 1.387 . S
H2592 C2599 0.950 . S
C2593 C2591 1.387 . S
C2593 C2595 1.390 . S
C2593 H2597 0.950 . S
H2594 C2590 0.950 . S
C2595 C2593 1.390 . S
C2595 C2596 1.387 . S
C2595 H2598 0.950 . S
C2596 C2595 1.387 . S
C2596 C2599 1.387 . S
H2597 C2593 0.950 . S
H2598 C2595 0.950 . S
C2599 C2590 1.390 . S
C2599 H2592 0.950 . S
C2599 C2596 1.387 . S
C2600 C2601 1.387 . S
C2600 H2604 0.950 . S
C2600 C2609 1.390 . S
C2601 C2600 1.387 . S
C2601 C2603 1.387 . S
H2602 C2609 0.950 . S
C2603 C2601 1.387 . S
C2603 C2605 1.390 . S
C2603 H2607 0.950 . S
H2604 C2600 0.950 . S
C2605 C2603 1.390 . S
C2605 C2606 1.387 . S
C2605 H2608 0.950 . S
C2606 C2605 1.387 . S
C2606 C2609 1.387 . S
H2607 C2603 0.950 . S
H2608 C2605 0.950 . S
C2609 C2600 1.390 . S
C2609 H2602 0.950 . S
C2609 C2606 1.387 . S
C2610 C2611 1.387 . S
C2610 H2614 0.950 . S
C2610 C2619 1.390 . S
C2611 C2610 1.387 . S
C2611 C2613 1.387 . S
H2612 C2619 0.950 . S
C2613 C2611 1.387 . S
C2613 C2615 1.390 . S
C2613 H2617 0.950 . S
H2614 C2610 0.950 . S
C2615 C2613 1.390 . S
C2615 C2616 1.387 . S
C2615 H2618 0.950 . S
C2616 C2615 1.387 . S
C2616 C2619 1.387 . S
H2617 C2613 0.950 . S
H2618 C2615 0.950 . S
C2619 C2610 1.390 . S
C2619 H2612 0.950 . S
C2619 C2616 1.387 . S
C2620 C2621 1.387 . S
C2620 H2624 0.950 . S
C2620 C2629 1.390 . S
C2621 C2620 1.387 . S
C2621 C2623 1.387 . S
H2622 C2629 0.950 . S
C2623 C2621 1.387 . S
C2623 C2625 1.390 . S
C2623 H2627 0.950 . S
H2624 C2620 0.950 . S
C2625 C2623 1.390 . S
C2625 C2626 1.387 . S
C2625 H2628 0.950 . S
C2626 C2625 1.387 . S
C2626 C2629 1.387 . S
H2627 C2623 0.950 . S
H2628 C2625 0.950 . S
C2629 C2620 1.390 . S
C2629 H2622 0.950 . S
C2629 C2626 1.387 . S
C2630 C2631 1.387 . S
C2630 H2634 0.950 . S
C2630 C2639 1.390 . S
C2631 C2630 1.387 . S
C2631 C2633 1.387 . S
H2632 C2639 0.950 . S
C2633 C2631 1.387 . S
C2633 C2635 1.390 . S
C2633 H2637 0.950 . S
H2634 C2630 0.950 . S
C2635 C2633 1.390 . S
C2635 C2636 1.387 . S
C2635 H2638 0.950 . S
C2636 C2635 1.387 . S
C2636 C2639 1.387 . S
H2637 C2633 0.950 . S
H2638 C2635 0.950 . S
C2639 C2630 1.390 . S
C2639 H2632 0.950 . S
C2639 C2636 1.387 . S
C2640 C2641 1.387 . S
C2640 H2644 0.950 . S
C2640 C2649 1.390 . S
C2641 C2640 1.387 . S
C2641 C2643 1.387 . S
H2642 C2649 0.950 . S
C2643 C2641 1.387 . S
C2643 C2645 1.390 . S
C2643 H2647 0.950 . S
H2644 C2640 0.950 . S
C2645 C2643 1.390 . S
C2645 C2646 1.387 . S
C2645 H2648 0.950 . S
C2646 C2645 1.387 . S
C2646 C2649 1.387 . S
H2647 C2643 0.950 . S
H2648 C2645 0.950 . S
C2649 C2640 1.390 . S
C2649 H2642 0.950 . S
C2649 C2646 1.387 . S
C2650 C2651 1.387 . S
C2650 H2654 0.950 . S
C2650 C2659 1.390 . S
C2651 C2650 1.387 . S
C2651 C2653 1.387 . S
H2652 C2659 0.950 . S
C2653 C2651 1.387 . S
C2653 C2655 1.390 . S
C2653 H2657 0.950 . S
H2654 C2650 0.950 . S
C2655 C2653 1.390 . S
C2655 C2656 1.387 . S
C2655 H2658 0.950 . S
C2656 C2655 1.387 . S
C2656 C2659 1.387 . S
H2657 C2653 0.950 . S
H2658 C2655 0.950 . S
C2659 C2650 1.390 . S
C2659 H2652 0.950 . S
C2659 C2656 1.387 . S
C2660 C2661 1.387 . S
C2660 H2664 0.950 . S
C2660 C2669 1.390 . S
C2661 C2660 1.387 . S
C2661 C2663 1.387 . S
H2662 C2669 0.950 . S
C2663 C2661 1.387 . S
C2663 C2665 1.390 . S
C2663 H2667 0.950 . S
H2664 C2660 0.950 . S
C2665 C2663 1.390 . S
C2665 C2666 1.387 . S
C2665 H2668 0.950 . S
C2666 C2665 1.387 . S
C2666 C2669 1.387 . S
H2667 C2663 0.950 . S
H2668 C2665 0.950 . S
C2669 C2660 1.390 . S
C2669 H2662 0.950 . S
C2669 C2666 1.387 . S
C2670 C2671 1.387 . S
C2670 H2674 0.950 . S
C2670 C2679 1.390 . S
C2671 C2670 1.387 . S
C2671 C2673 1.387 . S
H2672 C2679 0.950 . S
C2673 C2671 1.387 . S
C2673 C2675 1.390 . S
C2673 H2677 0.950 . S
H2674 C2670 0.950 . S
C2675 C2673 1.390 . S
C2675 C2676 1.387 . S
C2675 H2678 0.950 . S
C2676 C2675 1.387 . S
C2676 C2679 1.387 . S
H2677 C2673 0.950 . S
H2678 C2675 0.950 . S
C2679 C2670 1.390 . S
C2679 H2672 0.950 . S
C2679 C2676 1.387 . S
C2680 C2681 1.387 . S
C2680 H2684 0.950 . S
C2680 C2689 1.390 . S
C2681 C2680 1.387 . S
C2681 C2683 1.387 . S
H2682 C2689 0.950 . S
C2683 C2681 1.387 . S
C2683 C2685 1.390 . S
C2683 H2687 0.950 . S
H2684 C2680 0.950 . S
C2685 C2683 1.390 . S
C2685 C2686 1.387 . S
C2685 H2688 0.950 . S
C2686 C2685 1.387 . S
C2686 C2689 1.387 . S
H2687 C2683 0.950 . S
H2688 C2685 0.950 . S
C2689 C2680 1.390 . S
C2689 H2682 0.950 . S
C2689 C2686 1.387 . S
C2690 C2691 1.387 . S
C2690 H2694 0.950 . S
C2690 C2699 1.390 . S
C2691 C2690 1.387 . S
C2691 C2693 1.387 . S
H2692 C2699 0.950 . S
C2693 C2691 1.387 . S
C2693 C2695 1.390 . S
C2693 H2697 0.950 . S
H2694 C2690 0.950 . S
C2695 C2693 1.390 . S
C2695 C2696 1.387 . S
C2695 H2698 0.950 . S
C2696 C2695 1.387 . S
C2696 C2699 1.387 . S
H2697 C2693 0.950 . S
H2698 C2695 0.950 . S
C2699 C2690 1.390 . S
C2699 H2692 0.950 . S
C2699 C2696 1.387 . S
C2700 C2701 1.387 . S
C2700 H2704 0.950 . S
C2700 C2709 1.390 . S
C2701 C2700 1.387 . S
C2701 C2703 1.387 . S
H2702 C2709 0.950 . S
C2703 C2701 1.387 . S
C2703 C2705 1.390 . S
C2703 H2707 0.950 . S
H2704 C2700 0.950 . S
C2705 C2703 1.390 . S
C2705 C2706 1.387 . S
C2705 H2708 0.950 . S
C2706 C2705 1.387 . S
C2706 C2709 1.387 . S
H2707 C2703 0.950 . S
H2708 C2705 0.950 . S
C2709 C2700 1.390 . S
C2709 H2702 0.950 . S
C2709 C2706 1.387 . S
C2710 C2711 1.387 . S
C2710 H2714 0.950 . S
C2710 C2719 1.390 . S
C2711 C2710 1.387 . S
C2711 C2713 1.387 . S
H2712 C2719 0.950 . S
C2713 C2711 1.387 . S
C2713 C2715 1.390 . S
C2713 H2717 0.950 . S
H2714 C2710 0.950 . S
C2715 C2713 1.390 . S
C2715 C2716 1.387 . S
C2715 H2718 0.950 . S
C2716 C2715 1.387 . S
C2716 C2719 1.387 . S
H2717 C2713 0.950 . S
H2718 C2715 0.950 . S
C2719 C2710 1.390 . S
C2719 H2712 0.950 . S
C2719 C2716 1.387 . S
C2720 C2721 1.387 . S
C2720 H2724 0.950 . S
C2720 C2729 1.390 . S
C2721 C2720 1.387 . S
C2721 C2723 1.387 . S
H2722 C2729 0.950 . S
C2723 C2721 1.387 . S
C2723 C2725 1.390 . S
C2723 H2727 0.950 . S
H2724 C2720 0.950 . S
C2725 C2723 1.390 . S
C2725 C2726 1.387 . S
C2725 H2728 0.950 . S
C2726 C2725 1.387 . S
C2726 C2729 1.387 . S
H2727 C2723 0.950 . S
H2728 C2725 0.950 . S
C2729 C2720 1.390 . S
C2729 H2722 0.950 . S
C2729 C2726 1.387 . S
C2730 C2731 1.387 . S
C2730 H2734 0.950 . S
C2730 C2739 1.390 . S
C2731 C2730 1.387 . S
C2731 C2733 1.387 . S
H2732 C2739 0.950 . S
C2733 C2731 1.387 . S
C2733 C2735 1.390 . S
C2733 H2737 0.950 . S
H2734 C2730 0.950 . S
C2735 C2733 1.390 . S
C2735 C2736 1.387 . S
C2735 H2738 0.950 . S
C2736 C2735 1.387 . S
C2736 C2739 1.387 . S
H2737 C2733 0.950 . S
H2738 C2735 0.950 . S
C2739 C2730 1.390 . S
C2739 H2732 0.950 . S
C2739 C2736 1.387 . S
C2740 C2741 1.387 . S
C2740 H2744 0.950 . S
C2740 C2749 1.390 . S
C2741 C2740 1.387 . S
C2741 C2743 1.387 . S
H2742 C2749 0.950 . S
C2743 C2741 1.387 . S
C2743 C2745 1.390 . S
C2743 H2747 0.950 . S
H2744 C2740 0.950 . S
C2745 C2743 1.390 . S
C2745 C2746 1.387 . S
C2745 H2748 0.950 . S
C2746 C2745 1.387 . S
C2746 C2749 1.387 . S
H2747 C2743 0.950 . S
H2748 C2745 0.950 . S
C2749 C2740 1.390 . S
C2749 H2742 0.950 . S
C2749 C2746 1.387 . S
C2750 C2751 1.387 . S
C2750 H2754 0.950 . S
C2750 C2759 1.390 . S
C2751 C2750 1.387 . S
C2751 C2753 1.387 . S
H2752 C2759 0.950 . S
C2753 C2751 1.387 . S
C2753 C2755 1.390 . S
C2753 H2757 0.950 . S
H2754 C2750 0.950 . S
C2755 C2753 1.390 . S
C2755 C2756 1.387 . S
C2755 H2758 0.950 . S
C2756 C2755 1.387 . S
C2756 C2759 1.387 . S
H2757 C2753 0.950 . S
H2758 C2755 0.950 . S
C2759 C2750 1.390 . S
C2759 H2752 0.950 . S
C2759 C2756 1.387 . S
C2760 C2761 1.387 . S
C2760 H2764 0.950 . S
C2760 C2769 1.390 . S
C2761 C2760 1.387 . S
C2761 C2763 1.387 . S
H2762 C2769 0.950 . S
C2763 C2761 1.387 . S
C2763 C2765 1.390 . S
C2763 H2767 0.950 . S
H2764 C2760 0.950 . S
C2765 C2763 1.390 . S
C2765 C2766 1.387 . S
C2765 H2768 0.950 . S
C2766 C2765 1.387 . S
C2766 C2769 1.387 . S
H2767 C2763 0.950 . S
H2768 C2765 0.950 . S
C2769 C2760 1.390 . S
C2769 H2762 0.950 . S
C2769 C2766 1.387 . S
C2770 C2771 1.387 . S
C2770 H2774 0.950 . S
C2770 C2779 1.390 . S
C2771 C2770 1.387 . S
C2771 C2773 1.387 . S
H2772 C2779 0.950 . S
C2773 C2771 1.387 . S
C2773 C2775 1.390 . S
C2773 H2777 0.950 . S
H2774 C2770 0.950 . S
C2775 C2773 1.390 . S
C2775 C2776 1.387 . S
C2775 H2778 0.950 . S
C2776 C2775 1.387 . S
C2776 C2779 1.387 . S
H2777 C2773 0.950 . S
H2778 C2775 0.950 . S
C2779 C2770 1.390 . S
C2779 H2772 0.950 . S
C2779 C2776 1.387 . S
C2780 C2781 1.387 . S
C2780 H2784 0.950 . S
C2780 C2789 1.390 . S
C2781 C2780 1.387 . S
C2781 C2783 1.387 . S
H2782 C2789 0.950 . S
C2783 C2781 1.387 . S
C2783 C2785 1.390 . S
C2783 H2787 0.950 . S
H2784 C2780 0.950 . S
C2785 C2783 1.390 . S
C2785 C2786 1.387 . S
C2785 H2788 0.950 . S
C2786 C2785 1.387 . S
C2786 C2789 1.387 . S
H2787 C2783 0.950 . S
H2788 C2785 0.950 . S
C2789 C2780 1.390 . S
C2789 H2782 0.950 . S
C2789 C2786 1.387 . S
C2790 C2791 1.387 . S
C2790 H2794 0.950 . S
C2790 C2799 1.390 . S
C2791 C2790 1.387 . S
C2791 C2793 1.387 . S
H2792 C2799 0.950 . S
C2793 C2791 1.387 . S
C2793 C2795 1.390 . S
C2793 H2797 0.950 . S
H2794 C2790 0.950 . S
C2795 C2793 1.390 . S
C2795 C2796 1.387 . S
C2795 H2798 0.950 . S
C2796 C2795 1.387 . S
C2796 C2799 1.387 . S
H2797 C2793 0.950 . S
H2798 C2795 0.950 . S
C2799 C2790 1.390 . S
C2799 H2792 0.950 . S
C2799 C2796 1.387 . S
C2800 C2801 1.387 . S
C2800 H2804 0.950 . S
C2800 C2809 1.390 . S
C2801 C2800 1.387 . S
C2801 C2803 1.387 . S
H2802 C2809 0.950 . S
C2803 C2801 1.387 . S
C2803 C2805 1.390 . S
C2803 H2807 0.950 . S
H2804 C2800 0.950 . S
C2805 C2803 1.390 . S
C2805 C2806 1.387 . S
C2805 H2808 0.950 . S
C2806 C2805 1.387 . S
C2806 C2809 1.387 . S
H2807 C2803 0.950 . S
H2808 C2805 0.950 . S
C2809 C2800 1.390 . S
C2809 H2802 0.950 . S
C2809 C2806 1.387 . S
C2810 C2811 1.387 . S
C2810 H2814 0.950 . S
C2810 C2819 1.390 . S
C2811 C2810 1.387 . S
C2811 C2813 1.387 . S
H2812 C2819 0.950 . S
C2813 C2811 1.387 . S
C2813 C2815 1.390 . S
C2813 H2817 0.950 . S
H2814 C2810 0.950 . S
C2815 C2813 1.390 . S
C2815 C2816 1.387 . S
C2815 H2818 0.950 . S
C2816 C2815 1.387 . S
C2816 C2819 1.387 . S
H2817 C2813 0.950 . S
H2818 C2815 0.950 . S
C2819 C2810 1.390 . S
C2819 H2812 0.950 . S
C2819 C2816 1.387 . S
C2820 C2821 1.387 . S
C2820 H2824 0.950 . S
C2820 C2829 1.390 . S
C2821 C2820 1.387 . S
C2821 C2823 1.387 . S
H2822 C2829 0.950 . S
C2823 C2821 1.387 . S
C2823 C2825 1.390 . S
C2823 H2827 0.950 . S
H2824 C2820 0.950 . S
C2825 C2823 1.390 . S
C2825 C2826 1.387 . S
C2825 H2828 0.950 . S
C2826 C2825 1.387 . S
C2826 C2829 1.387 . S
H2827 C2823 0.950 . S
H2828 C2825 0.950 . S
C2829 C2820 1.390 . S
C2829 H2822 0.950 . S
C2829 C2826 1.387 . S
C2830 C2831 1.387 . S
C2830 H2834 0.950 . S
C2830 C2839 1.390 . S
C2831 C2830 1.387 . S
C2831 C2833 1.387 . S
H2832 C2839 0.950 . S
C2833 C2831 1.387 . S
C2833 C2835 1.390 . S
C2833 H2837 0.950 . S
H2834 C2830 0.950 . S
C2835 C2833 1.390 . S
C2835 C2836 1.387 . S
C2835 H2838 0.950 . S
C2836 C2835 1.387 . S
C2836 C2839 1.387 . S
H2837 C2833 0.950 . S
H2838 C2835 0.950 . S
C2839 C2830 1.390 . S
C2839 H2832 0.950 . S
C2839 C2836 1.387 . S
C2840 C2841 1.387 . S
C2840 H2844 0.950 . S
C2840 C2849 1.390 . S
C2841 C2840 1.387 . S
C2841 C2843 1.387 . S
H2842 C2849 0.950 . S
C2843 C2841 1.387 . S
C2843 C2845 1.390 . S
C2843 H2847 0.950 . S
H2844 C2840 0.950 . S
C2845 C2843 1.390 . S
C2845 C2846 1.387 . S
C2845 H2848 0.950 . S
C2846 C2845 1.387 . S
C2846 C2849 1.387 . S
H2847 C2843 0.950 . S
H2848 C2845 0.950 . S
C2849 C2840 1.390 . S
C2849 H2842 0.950 . S
C2849 C2846 1.387 . S
C2850 C2851 1.387 . S
C2850 H2854 0.950 . S
C2850 C2859 1.390 . S
C2851 C2850 1.387 . S
C2851 C2853 1.387 . S
H2852 C2859 0.950 . S
C2853 C2851 1.387 . S
C2853 C2855 1.390 . S
C2853 H2857 0.950 . S
H2854 C2850 0.950 . S
C2855 C2853 1.390 . S
C2855 C2856 1.387 . S
C2855 H2858 0.950 . S
C2856 C2855 1.387 . S
C2856 C2859 1.387 . S
H2857 C2853 0.950 . S
H2858 C2855 0.950 . S
C2859 C2850 1.390 . S
C2859 H2852 0.950 . S
C2859 C2856 1.387 . S
C2860 C2861 1.387 . S
C2860 H2864 0.950 . S
C2860 C2869 1.390 . S
C2861 C2860 1.387 . S
C2861 C2863 1.387 . S
H2862 C2869 0.950 . S
C2863 C2861 1.387 . S
C2863 C2865 1.390 . S
C2863 H2867 0.950 . S
H2864 C2860 0.950 . S
C2865 C2863 1.390 . S
C2865 C2866 1.387 . S
C2865 H2868 0.950 . S
C2866 C2865 1.387 . S
C2866 C2869 1.387 . S
H2867 C2863 0.950 . S
H2868 C2865 0.950 . S
C2869 C2860 1.390 . S
C2869 H2862 0.950 . S
C2869 C2866 1.387 . S
C2870 C2871 1.387 . S
C2870 H2874 0.950 . S
C2870 C2879 1.390 . S
C2871 C2870 1.387 . S
C2871 C2873 1.387 . S
H2872 C2879 0.950 . S
C2873 C2871 1.387 . S
C2873 C2875 1.390 . S
C2873 H2877 0.950 . S
H2874 C2870 0.950 . S
C2875 C2873 1.390 . S
C2875 C2876 1.387 . S
C2875 H2878 0.950 . S
C2876 C2875 1.387 . S
C2876 C2879 1.387 . S
H2877 C2873 0.950 . S
H2878 C2875 0.950 . S
C2879 C2870 1.390 . S
C2879 H2872 0.950 . S
C2879 C2876 1.387 . S
C2880 C2881 1.387 . S
C2880 H2884 0.950 . S
C2880 C2889 1.390 . S
C2881 C2880 1.387 . S
C2881 C2883 1.387 . S
H2882 C2889 0.950 . S
C2883 C2881 1.387 . S
C2883 C2885 1.390 . S
C2883 H2887 0.950 . S
H2884 C2880 0.950 . S
C2885 C2883 1.390 . S
C2885 C2886 1.387 . S
C2885 H2888 0.950 . S
C2886 C2885 1.387 . S
C2886 C2889 1.387 . S
H2887 C2883 0.950 . S
H2888 C2885 0.950 . S
C2889 C2880 1.390 . S
C2889 H2882 0.950 . S
C2889 C2886 1.387 . S
C2890 C2891 1.387 . S
C2890 H2894 0.950 . S
C2890 C2899 1.390 . S
C2891 C2890 1.387 . S
C2891 C2893 1.387 . S
H2892 C2899 0.950 . S
C2893 C2891 1.387 . S
C2893 C2895 1.390 . S
C2893 H2897 0.950 . S
H2894 C2890 0.950 . S
C2895 C2893 1.390 . S
C2895 C2896 1.387 . S
C2895 H2898 0.950 . S
C2896 C2895 1.387 . S
C2896 C2899 1.387 . S
H2897 C2893 0.950 . S
H2898 C2895 0.950 . S
C2899 C2890 1.390 . S
C2899 H2892 0.950 . S
C2899 C2896 1.387 . S
C2900 C2901 1.387 . S
C2900 H2904 0.950 . S
C2900 C2909 1.390 . S
C2901 C2900 1.387 . S
C2901 C2903 1.387 . S
H2902 C2909 0.950 . S
C2903 C2901 1.387 . S
C2903 C2905 1.390 . S
C2903 H2907 0.950 . S
H2904 C2900 0.950 . S
C2905 C2903 1.390 . S
C2905 C2906 1.387 . S
C2905 H2908 0.950 . S
C2906 C2905 1.387 . S
C2906 C2909 1.387 . S
H2907 C2903 0.950 . S
H2908 C2905 0.950 . S
C2909 C2900 1.390 . S
C2909 H2902 0.950 . S
C2909 C2906 1.387 . S
C2910 C2911 1.387 . S
C2910 H2914 0.950 . S
C2910 C2919 1.390 . S
C2911 C2910 1.387 . S
C2911 C2913 1.387 . S
H2912 C2919 0.950 . S
C2913 C2911 1.387 . S
C2913 C2915 1.390 . S
C2913 H2917 0.950 . S
H2914 C2910 0.950 . S
C2915 C2913 1.390 . S
C2915 C2916 1.387 . S
C2915 H2918 0.950 . S
C2916 C2915 1.387 . S
C2916 C2919 1.387 . S
H2917 C2913 0.950 . S
H2918 C2915 0.950 . S
C2919 C2910 1.390 . S
C2919 H2912 0.950 . S
C2919 C2916 1.387 . S
C2920 C2921 1.387 . S
C2920 H2924 0.950 . S
C2920 C2929 1.390 . S
C2921 C2920 1.387 . S
C2921 C2923 1.387 . S
H2922 C2929 0.950 . S
C2923 C2921 1.387 . S
C2923 C2925 1.390 . S
C2923 H2927 0.950 . S
H2924 C2920 0.950 . S
C2925 C2923 1.390 . S
C2925 C2926 1.387 . S
C2925 H2928 0.950 . S
C2926 C2925 1.387 . S
C2926 C2929 1.387 . S
H2927 C2923 0.950 . S
H2928 C2925 0.950 . S
C2929 C2920 1.390 . S
C2929 H2922 0.950 . S
C2929 C2926 1.387 . S
C2930 C2931 1.387 . S
C2930 H2934 0.950 . S
C2930 C2939 1.390 . S
C2931 C2930 1.387 . S
C2931 C2933 1.387 . S
H2932 C2939 0.950 . S
C2933 C2931 1.387 . S
C2933 C2935 1.390 . S
C2933 H2937 0.950 . S
H2934 C2930 0.950 . S
C2935 C2933 1.390 . S
C2935 C2936 1.387 . S
C2935 H2938 0.950 . S
C2936 C2935 1.387 . S
C2936 C2939 1.387 . S
H2937 C2933 0.950 . S
H2938 C2935 0.950 . S
C2939 C2930 1.390 . S
C2939 H2932 0.950 . S
C2939 C2936 1.387 . S
C2940 C2941 1.387 . S
C2940 H2944 0.950 . S
C2940 C2949 1.390 . S
C2941 C2940 1.387 . S
C2941 C2943 1.387 . S
H2942 C2949 0.950 . S
C2943 C2941 1.387 . S
C2943 C2945 1.390 . S
C2943 H2947 0.950 . S
H2944 C2940 0.950 . S
C2945 C2943 1.390 . S
C2945 C2946 1.387 . S
C2945 H2948 0.950 . S
C2946 C2945 1.387 . S
C2946 C2949 1.387 . S
H2947 C2943 0.950 . S
H2948 C2945 0.950 . S
C2949 C2940 1.390 . S
C2949 H2942 0.950 . S
C2949 C2946 1.387 . S
C2950 C2951 1.387 . S
C2950 H2954 0.950 . S
C2950 C2959 1.390 . S
C2951 C2950 1.387 . S
C2951 C2953 1.387 . S
H2952 C2959 0.950 . S
C2953 C2951 1.387 . S
C2953 C2955 1.390 . S
C2953 H2957 0.950 . S
H2954 C2950 0.950 . S
C2955 C2953 1.390 . S
C2955 C2956 1.387 . S
C2955 H2958 0.950 . S
C2956 C2955 1.387 . S
C2956 C2959 1.387 . S
H2957 C2953 0.950 . S
H2958 C2955 0.950 . S
C2959 C2950 1.390 . S
C2959 H2952 0.950 . S
C2959 C2956 1.387 . S
C2960 C2961 1.387 . S
C2960 H2964 0.950 . S
C2960 C2969 1.390 . S
C2961 C2960 1.387 . S
C2961 C2963 1.387 . S
H2962 C2969 0.950 . S
C2963 C2961 1.387 . S
C2963 C2965 1.390 . S
C2963 H2967 0.950 . S
H2964 C2960 0.950 . S
C2965 C2963 1.390 . S
C2965 C2966 1.387 . S
C2965 H2968 0.950 . S
C2966 C2965 1.387 . S
C2966 C2969 1.387 . S
H2967 C2963 0.950 . S
H2968 C2965 0.950 . S
C2969 C2960 1.390 . S
C2969 H2962 0.950 . S
C2969 C2966 1.387 . S
C2970 C2971 1.387 . S
C2970 H2974 0.950 . S
C2970 C2979 1.390 . S
C2971 C2970 1.387 . S
C2971 C2973 1.387 . S
H2972 C2979 0.950 . S
C2973 C2971 1.387 . S
C2973 C2975 1.390 . S
C2973 H2977 0.950 . S
H2974 C2970 0.950 . S
C2975 C2973 1.390 . S
C2975 C2976 1.387 . S
C2975 H2978 0.950 . S
C2976 C2975 1.387 . S
C2976 C2979 1.387 . S
H2977 C2973 0.950 . S
H2978 C2975 0.950 . S
C2979 C2970 1.390 . S
C2979 H2972 0.950 . S
C2979 C2976 1.387 . S
C2980 C2981 1.387 . S
C2980 H2984 0.950 . S
C2980 C2989 1.390 . S
C2981 C2980 1.387 . S
C2981 C2983 1.387 . S
H2982 C2989 0.950 . S
C2983 C2981 1.387 . S
C2983 C2985 1.390 . S
C2983 H2987 0.950 . S
H2984 C2980 0.950 . S
C2985 C2983 1.390 . S
C2985 C2986 1.387 . S
C2985 H2988 0.950 . S
C2986 C2985 1.387 . S
C2986 C2989 1.387 . S
H2987 C2983 0.950 . S
H2988 C2985 0.950 . S
C2989 C2980 1.390 . S
C2989 H2982 0.950 . S
C2989 C2986 1.387 . S
C2990 C2991 1.387 . S
C2990 H2994 0.950 . S
C2990 C2999 1.390 . S
C2991 C2990 1.387 . S
C2991 C2993 1.387 . S
H2992 C2999 0.950 . S
C2993 C2991 1.387 . S
C2993 C2995 1.390 . S
C2993 H2997 0.950 . S
H2994 C2990 0.950 . S
C2995 C2993 1.390 . S
C2995 C2996 1.387 . S
C2995 H2998 0.950 . S
C2996 C2995 1.387 . S
C2996 C2999 1.387 . S
H2997 C2993 0.950 . S
H2998 C2995 0.950 . S
C2999 C2990 1.390 . S
C2999 H2992 0.950 . S
C2999 C2996 1.387 . S
C3000 C3001 1.387 . S
C3000 H3004 0.950 . S
C3000 C3009 1.390 . S
C3001 C3000 1.387 . S
C3001 C3003 1.387 . S
H3002 C3009 0.950 . S
C3003 C3001 1.387 . S
C3003 C3005 1.390 . S
C3003 H3007 0.950 . S
H3004 C3000 0.950 . S
C3005 C3003 1.390 . S
C3005 C3006 1.387 . S
C3005 H3008 0.950 . S
C3006 C3005 1.387 . S
C3006 C3009 1.387 . S
H3007 C3003 0.950 . S
H3008 C3005 0.950 . S
C3009 C3000 1.390 . S
C3009 H3002 0.950 . S
C3009 C3006 1.387 . S
C3010 C3011 1.387 . S
C3010 H3014 0.950 . S
C3010 C3019 1.390 . S
C3011 C3010 1.387 . S
C3011 C3013 1.387 . S
H3012 C3019 0.950 . S
C3013 C3011 1.387 . S
C3013 C3015 1.390 . S
C3013 H3017 0.950 . S
H3014 C3010 0.950 . S
C3015 C3013 1.390 . S
C3015 C3016 1.387 . S
C3015 H3018 0.950 . S
C3016 C3015 1.387 . S
C3016 C3019 1.387 . S
H3017 C3013 0.950 . S
H3018 C3015 0.950 . S
C3019 C3010 1.390 . S
C3019 H3012 0.950 . S
C3019 C3016 1.387 . S
C3020 C3021 1.387 . S
C3020 H3024 0.950 . S
C3020 C3029 1.390 . S
C3021 C3020 1.387 . S
C3021 C3023 1.387 . S
H3022 C3029 0.950 . S
C3023 C3021 1.387 . S
C3023 C3025 1.390 . S
C3023 H3027 0.950 . S
H3024 C3020 0.950 . S
C3025 C3023 1.390 . S
C3025 C3026 1.387 . S
C3025 H3028 0.950 . S
C3026 C3025 1.387 . S
C3026 C3029 1.387 . S
H3027 C3023 0.950 . S
H3028 C3025 0.950 . S
C3029 C3020 1.390 . S
C3029 H3022 0.950 . S
C3029 C3026 1.387 . S
C3030 C3031 1.387 . S
C3030 H3034 0.950 . S
C3030 C3039 1.390 . S
C3031 C3030 1.387 . S
C3031 C3033 1.387 . S
H3032 C3039 0.950 . S
C3033 C3031 1.387 . S
C3033 C3035 1.390 . S
C3033 H3037 0.950 . S
H3034 C3030 0.950 . S
C3035 C3033 1.390 . S
C3035 C3036 1.387 . S
C3035 H3038 0.950 . S
C3036 C3035 1.387 . S
C3036 C3039 1.387 . S
H3037 C3033 0.950 . S
H3038 C3035 0.950 . S
C3039 C3030 1.390 . S
C3039 H3032 0.950 . S
C3039 C3036 1.387 . S
C3040 C3041 1.387 . S
C3040 H3044 0.950 . S
C3040 C3049 1.390 . S
C3041 C3040 1.387 . S
C3041 C3043 1.387 . S
H3042 C3049 0.950 . S
C3043 C3041 1.387 . S
C3043 C3045 1.390 . S
C3043 H3047 0.950 . S
H3044 C3040 0.950 . S
C3045 C3043 1.390 . S
C3045 C3046 1.387 . S
C3045 H3048 0.950 . S
C3046 C3045 1.387 . S
C3046 C3049 1.387 . S
H3047 C3043 0.950 . S
H3048 C3045 0.950 . S
C3049 C3040 1.390 . S
C3049 H3042 0.950 . S
C3049 C3046 1.387 . S
C3050 C3051 1.387 . S
C3050 H3054 0.950 . S
C3050 C3059 1.390 . S
C3051 C3050 1.387 . S
C3051 C3053 1.387 . S
H3052 C3059 0.950 . S
C3053 C3051 1.387 . S
C3053 C3055 1.390 . S
C3053 H3057 0.950 . S
H3054 C3050 0.950 . S
C3055 C3053 1.390 . S
C3055 C3056 1.387 . S
C3055 H3058 0.950 . S
C3056 C3055 1.387 . S
C3056 C3059 1.387 . S
H3057 C3053 0.950 . S
H3058 C3055 0.950 . S
C3059 C3050 1.390 . S
C3059 H3052 0.950 . S
C3059 C3056 1.387 . S
C3060 C3061 1.387 . S
C3060 H3064 0.950 . S
C3060 C3069 1.390 . S
C3061 C3060 1.387 . S
C3061 C3063 1.387 . S
H3062 C3069 0.950 . S
C3063 C3061 1.387 . S
C3063 C3065 1.390 . S
C3063 H3067 0.950 . S
H3064 C3060 0.950 . S
C3065 C3063 1.390 . S
C3065 C3066 1.387 . S
C3065 H3068 0.950 . S
C3066 C3065 1.387 . S
C3066 C3069 1.387 . S
H3067 C3063 0.950 . S
H3068 C3065 0.950 . S
C3069 C3060 1.390 . S
C3069 H3062 0.950 . S
C3069 C3066 1.387 . S
C3070 C3071 1.387 . S
C3070 H3074 0.950 . S
C3070 C3079 1.390 . S
C3071 C3070 1.387 . S
C3071 C3073 1.387 . S
H3072 C3079 0.950 . S
C3073 C3071 1.387 . S
C3073 C3075 1.390 . S
C3073 H3077 0.950 . S
H3074 C3070 0.950 . S
C3075 C3073 1.390 . S
C3075 C3076 1.387 . S
C3075 H3078 0.950 . S
C3076 C3075 1.387 . S
C3076 C3079 1.387 . S
H3077 C3073 0.950 . S
H3078 C3075 0.950 . S
C3079 C3070 1.390 . S
C3079 H3072 0.950 . S
C3079 C3076 1.387 . S
C3080 C3081 1.387 . S
C3080 H3084 0.950 . S
C3080 C3089 1.390 . S
C3081 C3080 1.387 . S
C3081 C3083 1.387 . S
H3082 C3089 0.950 . S
C3083 C3081 1.387 . S
C3083 C3085 1.390 . S
C3083 H3087 0.950 . S
H3084 C3080 0.950 . S
C3085 C3083 1.390 . S
C3085 C3086 1.387 . S
C3085 H3088 0.950 . S
C3086 C3085 1.387 . S
C3086 C3089 1.387 . S
H3087 C3083 0.950 . S
H3088 C3085 0.950 . S
C3089 C3080 1.390 . S
C3089 H3082 0.950 . S
C3089 C3086 1.387 . S
C3090 C3091 1.387 . S
C3090 H3094 0.950 . S
C3090 C3099 1.390 . S
C3091 C3090 1.387 . S
C3091 C3093 1.387 . S
H3092 C3099 0.950 . S
C3093 C3091 1.387 . S
C3093 C3095 1.390 . S
C3093 H3097 0.950 . S
H3094 C3090 0.950 . S
C3095 C3093 1.390 . S
C3095 C3096 1.387 . S
C3095 H3098 0.950 . S
C3096 C3095 1.387 . S
C3096 C3099 1.387 . S
H3097 C3093 0.950 . S
H3098 C3095 0.950 . S
C3099 C3090 1.390 . S
C3099 H3092 0.950 . S
C3099 C3096 1.387 . S
C3100 C3101 1.387 . S
C3100 H3104 0.950 . S
C3100 C3109 1.390 . S
C3101 C3100 1.387 . S
C3101 C3103 1.387 . S
H3102 C3109 0.950 . S
C3103 C3101 1.387 . S
C3103 C3105 1.390 . S
C3103 H3107 0.950 . S
H3104 C3100 0.950 . S
C3105 C3103 1.390 . S
C3105 C3106 1.387 . S
C3105 H3108 0.950 . S
C3106 C3105 1.387 . S
C3106 C3109 1.387 . S
H3107 C3103 0.950 . S
H3108 C3105 0.950 . S
C3109 C3100 1.390 . S
C3109 H3102 0.950 . S
C3109 C3106 1.387 . S
C3110 C3111 1.387 . S
C3110 H3114 0.950 . S
C3110 C3119 1.390 . S
C3111 C3110 1.387 . S
C3111 C3113 1.387 . S
H3112 C3119 0.950 . S
C3113 C3111 1.387 . S
C3113 C3115 1.390 . S
C3113 H3117 0.950 . S
H3114 C3110 0.950 . S
C3115 C3113 1.390 . S
C3115 C3116 1.387 . S
C3115 H3118 0.950 . S
C3116 C3115 1.387 . S
C3116 C3119 1.387 . S
H3117 C3113 0.950 . S
H3118 C3115 0.950 . S
C3119 C3110 1.390 . S
C3119 H3112 0.950 . S
C3119 C3116 1.387 . S
C3120 C3121 1.387 . S
C3120 H3124 0.950 . S
C3120 C3129 1.390 . S
C3121 C3120 1.387 . S
C3121 C3123 1.387 . S
H3122 C3129 0.950 . S
C3123 C3121 1.387 . S
C3123 C3125 1.390 . S
C3123 H3127 0.950 . S
H3124 C3120 0.950 . S
C3125 C3123 1.390 . S
C3125 C3126 1.387 . S
C3125 H3128 0.950 . S
C3126 C3125 1.387 . S
C3126 C3129 1.387 . S
H3127 C3123 0.950 . S
H3128 C3125 0.950 . S
C3129 C3120 1.390 . S
C3129 H3122 0.950 . S
C3129 C3126 1.387 . S
C3130 C3131 1.387 . S
C3130 H3134 0.950 . S
C3130 C3139 1.390 . S
C3131 C3130 1.387 . S
C3131 C3133 1.387 . S
H3132 C3139 0.950 . S
C3133 C3131 1.387 . S
C3133 C3135 1.390 . S
C3133 H3137 0.950 . S
H3134 C3130 0.950 . S
C3135 C3133 1.390 . S
C3135 C3136 1.387 . S
C3135 H3138 0.950 . S
C3136 C3135 1.387 . S
C3136 C3139 1.387 . S
H3137 C3133 0.950 . S
H3138 C3135 0.950 . S
C3139 C3130 1.390 . S
C3139 H3132 0.950 . S
C3139 C3136 1.387 . S
C3140 C3141 1.387 . S
C3140 H3144 0.950 . S
C3140 C3149 1.390 . S
C3141 C3140 1.387 . S
C3141 C3143 1.387 . S
H3142 C3149 0.950 . S
C3143 C3141 1.387 . S
C3143 C3145 1.390 . S
C3143 H3147 0.950 . S
H3144 C3140 0.950 . S
C3145 C3143 1.390 . S
C3145 C3146 1.387 . S
C3145 H3148 0.950 . S
C3146 C3145 1.387 . S
C3146 C3149 1.387 . S
H3147 C3143 0.950 . S
H3148 C3145 0.950 . S
C3149 C3140 1.390 . S
C3149 H3142 0.950 . S
C3149 C3146 1.387 . S
C3150 C3151 1.387 . S
C3150 H3154 0.950 . S
C3150 C3159 1.390 . S
C3151 C3150 1.387 . S
C3151 C3153 1.387 . S
H3152 C3159 0.950 . S
C3153 C3151 1.387 . S
C3153 C3155 1.390 . S
C3153 H3157 0.950 . S
H3154 C3150 0.950 . S
C3155 C3153 1.390 . S
C3155 C3156 1.387 . S
C3155 H3158 0.950 . S
C3156 C3155 1.387 . S
C3156 C3159 1.387 . S
H3157 C3153 0.950 . S
H3158 C3155 0.950 . S
C3159 C3150 1.390 . S
C3159 H3152 0.950 . S
C3159 C3156 1.387 . S
C3160 C3161 1.387 . S
C3160 H3164 0.950 . S
C3160 C3169 1.390 . S
C3161 C3160 1.387 . S
C3161 C3163 1.387 . S
H3162 C3169 0.950 . S
C3163 C3161 1.387 . S
C3163 C3165 1.390 . S
C3163 H3167 0.950 . S
H3164 C3160 0.950 . S
C3165 C3163 1.390 . S
C3165 C3166 1.387 . S
C3165 H3168 0.950 . S
C3166 C3165 1.387 . S
C3166 C3169 1.387 . S
H3167 C3163 0.950 . S
H3168 C3165 0.950 . S
C3169 C3160 1.390 . S
C3169 H3162 0.950 . S
C3169 C3166 1.387 . S
C3170 C3171 1.387 . S
C3170 H3174 0.950 . S
C3170 C3179 1.390 . S
C3171 C3170 1.387 . S
C3171 C3173 1.387 . S
H3172 C3179 0.950 . S
C3173 C3171 1.387 . S
C3173 C3175 1.390 . S
C3173 H3177 0.950 . S
H3174 C3170 0.950 . S
C3175 C3173 1.390 . S
C3175 C3176 1.387 . S
C3175 H3178 0.950 . S
C3176 C3175 1.387 . S
C3176 C3179 1.387 . S
H3177 C3173 0.950 . S
H3178 C3175 0.950 . S
C3179 C3170 1.390 . S
C3179 H3172 0.950 . S
C3179 C3176 1.387 . S
C3180 C3181 1.387 . S
C3180 H3184 0.950 . S
C3180 C3189 1.390 . S
C3181 C3180 1.387 . S
C3181 C3183 1.387 . S
H3182 C3189 0.950 . S
C3183 C3181 1.387 . S
C3183 C3185 1.390 . S
C3183 H3187 0.950 . S
H3184 C3180 0.950 . S
C3185 C3183 1.390 . S
C3185 C3186 1.387 . S
C3185 H3188 0.950 . S
C3186 C3185 1.387 . S
C3186 C3189 1.387 . S
H3187 C3183 0.950 . S
H3188 C3185 0.950 . S
C3189 C3180 1.390 . S
C3189 H3182 0.950 . S
C3189 C3186 1.387 . S
C3190 C3191 1.387 . S
C3190 H3194 0.950 . S
C3190 C3199 1.390 . S
C3191 C3190 1.387 . S
C3191 C3193 1.387 . S
H3192 C3199 0.950 . S
C3193 C3191 1.387 . S
C3193 C3195 1.390 . S
C3193 H3197 0.950 . S
H3194 C3190 0.950 . S
C3195 C3193 1.390 . S
C3195 C3196 1.387 . S
C3195 H3198 0.950 . S
C3196 C3195 1.387 . S
C3196 C3199 1.387 . S
H3197 C3193 0.950 . S
H3198 C3195 0.950 . S
C3199 C3190 1.390 . S
C3199 H3192 0.950 . S
C3199 C3196 1.387 . S
C3200 C3201 1.387 . S
C3200 H3204 0.950 . S
C3200 C3209 1.390 . S
C3201 C3200 1.387 . S
C3201 C3203 1.387 . S
H3202 C3209 0.950 . S
C3203 C3201 1.387 . S
C3203 C3205 1.390 . S
C3203 H3207 0.950 . S
H3204 C3200 0.950 . S
C3205 C3203 1.390 . S
C3205 C3206 1.387 . S
C3205 H3208 0.950 . S
C3206 C3205 1.387 . S
C3206 C3209 1.387 . S
H3207 C3203 0.950 . S
H3208 C3205 0.950 . S
C3209 C3200 1.390 . S
C3209 H3202 0.950 . S
C3209 C3206 1.387 . S
C3210 C3211 1.387 . S
C3210 H3214 0.950 . S
C3210 C3219 1.390 . S
C3211 C3210 1.387 . S
C3211 C3213 1.387 . S
H3212 C3219 0.950 . S
C3213 C3211 1.387 . S
C3213 C3215 1.390 . S
C3213 H3217 0.950 . S
H3214 C3210 0.950 . S
C3215 C3213 1.390 . S
C3215 C3216 1.387 . S
C3215 H3218 0.950 . S
C3216 C3215 1.387 . S
C3216 C3219 1.387 . S
H3217 C3213 0.950 . S
H3218 C3215 0.950 . S
C3219 C3210 1.390 . S
C3219 H3212 0.950 . S
C3219 C3216 1.387 . S
C3220 C3221 1.387 . S
C3220 H3224 0.950 . S
C3220 C3229 1.390 . S
C3221 C3220 1.387 . S
C3221 C3223 1.387 . S
H3222 C3229 0.950 . S
C3223 C3221 1.387 . S
C3223 C3225 1.390 . S
C3223 H3227 0.950 . S
H3224 C3220 0.950 . S
C3225 C3223 1.390 . S
C3225 C3226 1.387 . S
C3225 H3228 0.950 . S
C3226 C3225 1.387 . S
C3226 C3229 1.387 . S
H3227 C3223 0.950 . S
H3228 C3225 0.950 . S
C3229 C3220 1.390 . S
C3229 H3222 0.950 . S
C3229 C3226 1.387 . S
C3230 C3231 1.387 . S
C3230 H3234 0.950 . S
C3230 C3239 1.390 . S
C3231 C3230 1.387 . S
C3231 C3233 1.387 . S
H3232 C3239 0.950 . S
C3233 C3231 1.387 . S
C3233 C3235 1.390 . S
C3233 H3237 0.950 . S
H3234 C3230 0.950 . S
C3235 C3233 1.390 . S
C3235 C3236 1.387 . S
C3235 H3238 0.950 . S
C3236 C3235 1.387 . S
C3236 C3239 1.387 . S
H3237 C3233 0.950 . S
H3238 C3235 0.950 . S
C3239 C3230 1.390 . S
C3239 H3232 0.950 . S
C3239 C3236 1.387 . S
C3240 C3241 1.387 . S
C3240 H3244 0.950 . S
C3240 C3249 1.390 . S
C3241 C3240 1.387 . S
C3241 C3243 1.387 . S
H3242 C3249 0.950 . S
C3243 C3241 1.387 . S
C3243 C3245 1.390 . S
C3243 H3247 0.950 . S
H3244 C3240 0.950 . S
C3245 C3243 1.390 . S
C3245 C3246 1.387 . S
C3245 H3248 0.950 . S
C3246 C3245 1.387 . S
C3246 C3249 1.387 . S
H3247 C3243 0.950 . S
H3248 C3245 0.950 . S
C3249 C3240 1.390 . S
C3249 H3242 0.950 . S
C3249 C3246 1.387 . S
C3250 C3251 1.387 . S
C3250 H3254 0.950 . S
C3250 C3259 1.390 . S
C3251 C3250 1.387 . S
C3251 C3253 1.387 . S
H3252 C3259 0.950 . S
C3253 C3251 1.387 . S
C3253 C3255 1.390 . S
C3253 H3257 0.950 . S
H3254 C3250 0.950 . S
C3255 C3253 1.390 . S
C3255 C3256 1.387 . S
C3255 H3258 0.950 . S
C3256 C3255 1.387 . S
C3256 C3259 1.387 . S
H3257 C3253 0.950 . S
H3258 C3255 0.950 . S
C3259 C3250 1.390 . S
C3259 H3252 0.950 . S
C3259 C3256 1.387 . S
C3260 C3261 1.387 . S
C3260 H3264 0.950 . S
C3260 C3269 1.390 . S
C3261 C3260 1.387 . S
C3261 C3263 1.387 . S
H3262 C3269 0.950 . S
C3263 C3261 1.387 . S
C3263 C3265 1.390 . S
C3263 H3267 0.950 . S
H3264 C3260 0.950 . S
C3265 C3263 1.390 . S
C3265 C3266 1.387 . S
C3265 H3268 0.950 . S
C3266 C3265 1.387 . S
C3266 C3269 1.387 . S
H3267 C3263 0.950 . S
H3268 C3265 0.950 . S
C3269 C3260 1.390 . S
C3269 H3262 0.950 . S
C3269 C3266 1.387 . S
C3270 C3271 1.387 . S
C3270 H3274 0.950 . S
C3270 C3279 1.390 . S
C3271 C3270 1.387 . S
C3271 C3273 1.387 . S
H3272 C3279 0.950 . S
C3273 C3271 1.387 . S
C3273 C3275 1.390 . S
C3273 H3277 0.950 . S
H3274 C3270 0.950 . S
C3275 C3273 1.390 . S
C3275 C3276 1.387 . S
C3275 H3278 0.950 . S
C3276 C3275 1.387 . S
C3276 C3279 1.387 . S
H3277 C3273 0.950 . S
H3278 C3275 0.950 . S
C3279 C3270 1.390 . S
C3279 H3272 0.950 . S
C3279 C3276 1.387 . S
C3280 C3281 1.387 . S
C3280 H3284 0.950 . S
C3280 C3289 1.390 . S
C3281 C3280 1.387 . S
C3281 C3283 1.387 . S
H3282 C3289 0.950 . S
C3283 C3281 1.387 . S
C3283 C3285 1.390 . S
C3283 H3287 0.950 . S
H3284 C3280 0.950 . S
C3285 C3283 1.390 . S
C3285 C3286 1.387 . S
C3285 H3288 0.950 . S
C3286 C3285 1.387 . S
C3286 C3289 1.387 . S
H3287 C3283 0.950 . S
H3288 C3285 0.950 . S
C3289 C3280 1.390 . S
C3289 H3282 0.950 . S
C3289 C3286 1.387 . S
C3290 C3291 1.387 . S
C3290 H3294 0.950 . S
C3290 C3299 1.390 . S
C3291 C3290 1.387 . S
C3291 C3293 1.387 . S
H3292 C3299 0.950 . S
C3293 C3291 1.387 . S
C3293 C3295 1.390 . S
C3293 H3297 0.950 . S
H3294 C3290 0.950 . S
C3295 C3293 1.390 . S
C3295 C3296 1.387 . S
C3295 H3298 0.950 . S
C3296 C3295 1.387 . S
C3296 C3299 1.387 . S
H3297 C3293 0.950 . S
H3298 C3295 0.950 . S
C3299 C3290 1.390 . S
C3299 H3292 0.950 . S
C3299 C3296 1.387 . S
C3300 C3301 1.387 . S
C3300 H3304 0.950 . S
C3300 C3309 1.390 . S
C3301 C3300 1.387 . S
C3301 C3303 1.387 . S
H3302 C3309 0.950 . S
C3303 C3301 1.387 . S
C3303 C3305 1.390 . S
C3303 H3307 0.950 . S
H3304 C3300 0.950 . S
C3305 C3303 1.390 . S
C3305 C3306 1.387 . S
C3305 H3308 0.950 . S
C3306 C3305 1.387 . S
C3306 C3309 1.387 . S
H3307 C3303 0.950 . S
H3308 C3305 0.950 . S
C3309 C3300 1.390 . S
C3309 H3302 0.950 . S
C3309 C3306 1.387 . S
C3310 C3311 1.387 . S
C3310 H3314 0.950 . S
C3310 C3319 1.390 . S
C3311 C3310 1.387 . S
C3311 C3313 1.387 . S
H3312 C3319 0.950 . S
C3313 C3311 1.387 . S
C3313 C3315 1.390 . S
C3313 H3317 0.950 . S
H3314 C3310 0.950 . S
C3315 C3313 1.390 . S
C3315 C3316 1.387 . S
C3315 H3318 0.950 . S
C3316 C3315 1.387 . S
C3316 C3319 1.387 . S
H3317 C3313 0.950 . S
H3318 C3315 0.950 . S
C3319 C3310 1.390 . S
C3319 H3312 0.950 . S
C3319 C3316 1.387 . S
C3320 C3321 1.387 . S
C3320 H3324 0.950 . S
C3320 C3329 1.390 . S
C3321 C3320 1.387 . S
C3321 C3323 1.387 . S
H3322 C3329 0.950 . S
C3323 C3321 1.387 . S
C3323 C3325 1.390 . S
C3323 H3327 0.950 . S
H3324 C3320 0.950 . S
C3325 C3323 1.390 . S
C3325 C3326 1.387 . S
C3325 H3328 0.950 . S
C3326 C3325 1.387 . S
C3326 C3329 1.387 . S
H3327 C3323 0.950 . S
H3328 C3325 0.950 . S
C3329 C3320 1.390 . S
C3329 H3322 0.950 . S
C3329 C3326 1.387 . S
C3330 C3331 1.387 . S
C3330 H3334 0.950 . S
C3330 C3339 1.390 . S
C3331 C3330 1.387 . S
C3331 C3333 1.387 . S
H3332 C3339 0.950 . S
C3333 C3331 1.387 . S
C3333 C3335 1.390 . S
C3333 H3337 0.950 . S
H3334 C3330 0.950 . S
C3335 C3333 1.390 . S
C3335 C3336 1.387 . S
C3335 H3338 0.950 . S
C3336 C3335 1.387 . S
C3336 C3339 1.387 . S
H3337 C3333 0.950 . S
H3338 C3335 0.950 . S
C3339 C3330 1.390 . S
C3339 H3332 0.950 . S
C3339 C3336 1.387 . S
C3340 C3341 1.387 . S
C3340 H3344 0.950 . S
C3340 C3349 1.390 . S
C3341 C3340 1.387 . S
C3341 C3343 1.387 . S
H3342 C3349 0.950 . S
C3343 C3341 1.387 . S
C3343 C3345 1.390 . S
C3343 H3347 0.950 . S
H3344 C3340 0.950 . S
C3345 C3343 1.390 . S
C3345 C3346 1.387 . S
C3345 H3348 0.950 . S
C3346 C3345 1.387 . S
C3346 C3349 1.387 . S
H3347 C3343 0.950 . S
H3348 C3345 0.950 . S
C3349 C3340 1.390 . S
C3349 H3342 0.950 . S
C3349 C3346 1.387 . S
C3350 C3351 1.387 . S
C3350 H3354 0.950 . S
C3350 C3359 1.390 . S
C3351 C3350 1.387 . S
C3351 C3353 1.387 . S
H3352 C3359 0.950 . S
C3353 C3351 1.387 . S
C3353 C3355 1.390 . S
C3353 H3357 0.950 . S
H3354 C3350 0.950 . S
C3355 C3353 1.390 . S
C3355 C3356 1.387 . S
C3355 H3358 0.950 . S
C3356 C3355 1.387 . S
C3356 C3359 1.387 . S
H3357 C3353 0.950 . S
H3358 C3355 0.950 . S
C3359 C3350 1.390 . S
C3359 H3352 0.950 . S
C3359 C3356 1.387 . S
C3360 C3361 1.387 . S
C3360 H3364 0.950 . S
C3360 C3369 1.390 . S
C3361 C3360 1.387 . S
C3361 C3363 1.387 . S
H3362 C3369 0.950 . S
C3363 C3361 1.387 . S
C3363 C3365 1.390 . S
C3363 H3367 0.950 . S
H3364 C3360 0.950 . S
C3365 C3363 1.390 . S
C3365 C3366 1.387 . S
C3365 H3368 0.950 . S
C3366 C3365 1.387 . S
C3366 C3369 1.387 . S
H3367 C3363 0.950 . S
H3368 C3365 0.950 . S
C3369 C3360 1.390 . S
C3369 H3362 0.950 . S
C3369 C3366 1.387 . S
C3370 C3371 1.387 . S
C3370 H3374 0.950 . S
C3370 C3379 1.390 . S
C3371 C3370 1.387 . S
C3371 C3373 1.387 . S
H3372 C3379 0.950 . S
C3373 C3371 1.387 . S
C3373 C3375 1.390 . S
C3373 H3377 0.950 . S
H3374 C3370 0.950 . S
C3375 C3373 1.390 . S
C3375 C3376 1.387 . S
C3375 H3378 0.950 . S
C3376 C3375 1.387 . S
C3376 C3379 1.387 . S
H3377 C3373 0.950 . S
H3378 C3375 0.950 . S
C3379 C3370 1.390 . S
C3379 H3372 0.950 . S
C3379 C3376 1.387 . S
C3380 C3381 1.387 . S
C3380 H3384 0.950 . S
C3380 C3389 1.390 . S
C3381 C3380 1.387 . S
C3381 C3383 1.387 . S
H3382 C3389 0.950 . S
C3383 C3381 1.387 . S
C3383 C3385 1.390 . S
C3383 H3387 0.950 . S
H3384 C3380 0.950 . S
C3385 C3383 1.390 . S
C3385 C3386 1.387 . S
C3385 H3388 0.950 . S
C3386 C3385 1.387 . S
C3386 C3389 1.387 . S
H3387 C3383 0.950 . S
H3388 C3385 0.950 . S
C3389 C3380 1.390 . S
C3389 H3382 0.950 . S
C3389 C3386 1.387 . S
C3390 C3391 1.387 . S
C3390 H3394 0.950 . S
C3390 C3399 1.390 . S
C3391 C3390 1.387 . S
C3391 C3393 1.387 . S
H3392 C3399 0.950 . S
C3393 C3391 1.387 . S
C3393 C3395 1.390 . S
C3393 H3397 0.950 . S
H3394 C3390 0.950 . S
C3395 C3393 1.390 . S
C3395 C3396 1.387 . S
C3395 H3398 0.950 . S
C3396 C3395 1.387 . S
C3396 C3399 1.387 . S
H3397 C3393 0.950 . S
H3398 C3395 0.950 . S
C3399 C3390 1.390 . S
C3399 H3392 0.950 . S
C3399 C3396 1.387 . S
C3400 C3401 1.387 . S
C3400 H3404 0.950 . S
C3400 C3409 1.390 . S
C3401 C3400 1.387 . S
C3401 C3403 1.387 . S
H3402 C3409 0.950 . S
C3403 C3401 1.387 . S
C3403 C3405 1.390 . S
C3403 H3407 0.950 . S
H3404 C3400 0.950 . S
C3405 C3403 1.390 . S
C3405 C3406 1.387 . S
C3405 H3408 0.950 . S
C3406 C3405 1.387 . S
C3406 C3409 1.387 . S
H3407 C3403 0.950 . S
H3408 C3405 0.950 . S
C3409 C3400 1.390 . S
C3409 H3402 0.950 . S
C3409 C3406 1.387 . S
C3410 C3411 1.387 . S
C3410 H3414 0.950 . S
C3410 C3419 1.390 . S
C3411 C3410 1.387 . S
C3411 C3413 1.387 . S
H3412 C3419 0.950 . S
C3413 C3411 1.387 . S
C3413 C3415 1.390 . S
C3413 H3417 0.950 . S
H3414 C3410 0.950 . S
C3415 C3413 1.390 . S
C3415 C3416 1.387 . S
C3415 H3418 0.950 . S
C3416 C3415 1.387 . S
C3416 C3419 1.387 . S
H3417 C3413 0.950 . S
H3418 C3415 0.950 . S
C3419 C3410 1.390 . S
C3419 H3412 0.950 . S
C3419 C3416 1.387 . S
C3420 C3421 1.387 . S
C3420 H3424 0.950 . S
C3420 C3429 1.390 . S
C3421 C3420 1.387 . S
C3421 C3423 1.387 . S
H3422 C3429 0.950 . S
C3423 C3421 1.387 . S
C3423 C3425 1.390 . S
C3423 H3427 0.950 . S
H3424 C3420 0.950 . S
C3425 C3423 1.390 . S
C3425 C3426 1.387 . S
C3425 H3428 0.950 . S
C3426 C3425 1.387 . S
C3426 C3429 1.387 . S
H3427 C3423 0.950 . S
H3428 C3425 0.950 . S
C3429 C3420 1.390 . S
C3429 H3422 0.950 . S
C3429 C3426 1.387 . S
C3430 C3431 1.387 . S
C3430 H3434 0.950 . S
C3430 C3439 1.390 . S
C3431 C3430 1.387 . S
C3431 C3433 1.387 . S
H3432 C3439 0.950 . S
C3433 C3431 1.387 . S
C3433 C3435 1.390 . S
C3433 H3437 0.950 . S
H3434 C3430 0.950 . S
C3435 C3433 1.390 . S
C3435 C3436 1.387 . S
C3435 H3438 0.950 . S
C3436 C3435 1.387 . S
C3436 C3439 1.387 . S
H3437 C3433 0.950 . S
H3438 C3435 0.950 . S
C3439 C3430 1.390 . S
C3439 H3432 0.950 . S
C3439 C3436 1.387 . S
C3440 C3441 1.387 . S
C3440 H3444 0.950 . S
C3440 C3449 1.390 . S
C3441 C3440 1.387 . S
C3441 C3443 1.387 . S
H3442 C3449 0.950 . S
C3443 C3441 1.387 . S
C3443 C3445 1.390 . S
C3443 H3447 0.950 . S
H3444 C3440 0.950 . S
C3445 C3443 1.390 . S
C3445 C3446 1.387 . S
C3445 H3448 0.950 . S
C3446 C3445 1.387 . S
C3446 C3449 1.387 . S
H3447 C3443 0.950 . S
H3448 C3445 0.950 . S
C3449 C3440 1.390 . S
C3449 H3442 0.950 . S
C3449 C3446 1.387 . S
C3450 C3451 1.387 . S
C3450 H3454 0.950 . S
C3450 C3459 1.390 . S
C3451 C3450 1.387 . S
C3451 C3453 1.387 . S
H3452 C3459 0.950 . S
C3453 C3451 1.387 . S
C3453 C3455 1.390 . S
C3453 H3457 0.950 . S
H3454 C3450 0.950 . S
C3455 C3453 1.390 . S
C3455 C3456 1.387 . S
C3455 H3458 0.950 . S
C3456 C3455 1.387 . S
C3456 C3459 1.387 . S
H3457 C3453 0.950 . S
H3458 C3455 0.950 . S
C3459 C3450 1.390 . S
C3459 H3452 0.950 . S
C3459 C3456 1.387 . S
C3460 C3461 1.387 . S
C3460 H3464 0.950 . S
C3460 C3469 1.390 . S
C3461 C3460 1.387 . S
C3461 C3463 1.387 . S
H3462 C3469 0.950 . S
C3463 C3461 1.387 . S
C3463 C3465 1.390 . S
C3463 H3467 0.950 . S
H3464 C3460 0.950 . S
C3465 C3463 1.390 . S
C3465 C3466 1.387 . S
C3465 H3468 0.950 . S
C3466 C3465 1.387 . S
C3466 C3469 1.387 . S
H3467 C3463 0.950 . S
H3468 C3465 0.950 . S
C3469 C3460 1.390 . S
C3469 H3462 0.950 . S
C3469 C3466 1.387 . S
C3470 C3471 1.387 . S
C3470 H3474 0.950 . S
C3470 C3479 1.390 . S
C3471 C3470 1.387 . S
C3471 C3473 1.387 . S
H3472 C3479 0.950 . S
C3473 C3471 1.387 . S
C3473 C3475 1.390 . S
C3473 H3477 0.950 . S
H3474 C3470 0.950 . S
C3475 C3473 1.390 . S
C3475 C3476 1.387 . S
C3475 H3478 0.950 . S
C3476 C3475 1.387 . S
C3476 C3479 1.387 . S
H3477 C3473 0.950 . S
H3478 C3475 0.950 . S
C3479 C3470 1.390 . S
C3479 H3472 0.950 . S
C3479 C3476 1.387 . S
C3480 C3481 1.387 . S
C3480 H3484 0.950 . S
C3480 C3489 1.390 . S
C3481 C3480 1.387 . S
C3481 C3483 1.387 . S
H3482 C3489 0.950 . S
C3483 C3481 1.387 . S
C3483 C3485 1.390 . S
C3483 H3487 0.950 . S
H3484 C3480 0.950 . S
C3485 C3483 1.390 . S
C3485 C3486 1.387 . S
C3485 H3488 0.950 . S
C3486 C3485 1.387 . S
C3486 C3489 1.387 . S
H3487 C3483 0.950 . S
H3488 C3485 0.950 . S
C3489 C3480 1.390 . S
C3489 H3482 0.950 . S
C3489 C3486 1.387 . S
C3490 C3491 1.387 . S
C3490 H3494 0.950 . S
C3490 C3499 1.390 . S
C3491 C3490 1.387 . S
C3491 C3493 1.387 . S
H3492 C3499 0.950 . S
C3493 C3491 1.387 . S
C3493 C3495 1.390 . S
C3493 H3497 0.950 . S
H3494 C3490 0.950 . S
C3495 C3493 1.390 . S
C3495 C3496 1.387 . S
C3495 H3498 0.950 . S
C3496 C3495 1.387 . S
C3496 C3499 1.387 . S
H3497 C3493 0.950 . S
H3498 C3495 0.950 . S
C3499 C3490 1.390 . S
C3499 H3492 0.950 . S
C3499 C3496 1.387 . S
C3500 C3501 1.387 . S
C3500 H3504 0.950 . S
C3500 C3509 1.390 . S
C3501 C3500 1.387 . S
C3501 C3503 1.387 . S
H3502 C3509 0.950 . S
C3503 C3501 1.387 . S
C3503 C3505 1.390 . S
C3503 H3507 0.950 . S
H3504 C3500 0.950 . S
C3505 C3503 1.390 . S
C3505 C3506 1.387 . S
C3505 H3508 0.950 . S
C3506 C3505 1.387 . S
C3506 C3509 1.387 . S
H3507 C3503 0.950 . S
H3508 C3505 0.950 . S
C3509 C3500 1.390 . S
C3509 H3502 0.950 . S
C3509 C3506 1.387 . S
C3510 C3511 1.387 . S
C3510 H3514 0.950 . S
C3510 C3519 1.390 . S
C3511 C3510 1.387 . S
C3511 C3513 1.387 . S
H3512 C3519 0.950 . S
C3513 C3511 1.387 . S
C3513 C3515 1.390 . S
C3513 H3517 0.950 . S
H3514 C3510 0.950 . S
C3515 C3513 1.390 . S
C3515 C3516 1.387 . S
C3515 H3518 0.950 . S
C3516 C3515 1.387 . S
C3516 C3519 1.387 . S
H3517 C3513 0.950 . S
H3518 C3515 0.950 . S
C3519 C3510 1.390 . S
C3519 H3512 0.950 . S
C3519 C3516 1.387 . S
C3520 C3521 1.387 . S
C3520 H3524 0.950 . S
C3520 C3529 1.390 . S
C3521 C3520 1.387 . S
C3521 C3523 1.387 . S
H3522 C3529 0.950 . S
C3523 C3521 1.387 . S
C3523 C3525 1.390 . S
C3523 H3527 0.950 . S
H3524 C3520 0.950 . S
C3525 C3523 1.390 . S
C3525 C3526 1.387 . S
C3525 H3528 0.950 . S
C3526 C3525 1.387 . S
C3526 C3529 1.387 . S
H3527 C3523 0.950 . S
H3528 C3525 0.950 . S
C3529 C3520 1.390 . S
C3529 H3522 0.950 . S
C3529 C3526 1.387 . S
C3530 C3531 1.387 . S
C3530 H3534 0.950 . S
C3530 C3539 1.390 . S
C3531 C3530 1.387 . S
C3531 C3533 1.387 . S
H3532 C3539 0.950 . S
C3533 C3531 1.387 . S
C3533 C3535 1.390 . S
C3533 H3537 0.950 . S
H3534 C3530 0.950 . S
C3535 C3533 1.390 . S
C3535 C3536 1.387 . S
C3535 H3538 0.950 . S
C3536 C3535 1.387 . S
C3536 C3539 1.387 . S
H3537 C3533 0.950 . S
H3538 C3535 0.950 . S
C3539 C3530 1.390 . S
C3539 H3532 0.950 . S
C3539 C3536 1.387 . S
C3540 C3541 1.387 . S
C3540 H3544 0.950 . S
C3540 C3549 1.390 . S
C3541 C3540 1.387 . S
C3541 C3543 1.387 . S
H3542 C3549 0.950 . S
C3543 C3541 1.387 . S
C3543 C3545 1.390 . S
C3543 H3547 0.950 . S
H3544 C3540 0.950 . S
C3545 C3543 1.390 . S
C3545 C3546 1.387 . S
C3545 H3548 0.950 . S
C3546 C3545 1.387 . S
C3546 C3549 1.387 . S
H3547 C3543 0.950 . S
H3548 C3545 0.950 . S
C3549 C3540 1.390 . S
C3549 H3542 0.950 . S
C3549 C3546 1.387 . S
C3550 C3551 1.387 . S
C3550 H3554 0.950 . S
C3550 C3559 1.390 . S
C3551 C3550 1.387 . S
C3551 C3553 1.387 . S
H3552 C3559 0.950 . S
C3553 C3551 1.387 . S
C3553 C3555 1.390 . S
C3553 H3557 0.950 . S
H3554 C3550 0.950 . S
C3555 C3553 1.390 . S
C3555 C3556 1.387 . S
C3555 H3558 0.950 . S
C3556 C3555 1.387 . S
C3556 C3559 1.387 . S
H3557 C3553 0.950 . S
H3558 C3555 0.950 . S
C3559 C3550 1.390 . S
C3559 H3552 0.950 . S
C3559 C3556 1.387 . S
C3560 C3561 1.387 . S
C3560 H3564 0.950 . S
C3560 C3569 1.390 . S
C3561 C3560 1.387 . S
C3561 C3563 1.387 . S
H3562 C3569 0.950 . S
C3563 C3561 1.387 . S
C3563 C3565 1.390 . S
C3563 H3567 0.950 . S
H3564 C3560 0.950 . S
C3565 C3563 1.390 . S
C3565 C3566 1.387 . S
C3565 H3568 0.950 . S
C3566 C3565 1.387 . S
C3566 C3569 1.387 . S
H3567 C3563 0.950 . S
H3568 C3565 0.950 . S
C3569 C3560 1.390 . S
C3569 H3562 0.950 . S
C3569 C3566 1.387 . S
C3570 C3571 1.387 . S
C3570 H3574 0.950 . S
C3570 C3579 1.390 . S
C3571 C3570 1.387 . S
C3571 C3573 1.387 . S
H3572 C3579 0.950 . S
C3573 C3571 1.387 . S
C3573 C3575 1.390 . S
C3573 H3577 0.950 . S
H3574 C3570 0.950 . S
C3575 C3573 1.390 . S
C3575 C3576 1.387 . S
C3575 H3578 0.950 . S
C3576 C3575 1.387 . S
C3576 C3579 1.387 . S
H3577 C3573 0.950 . S
H3578 C3575 0.950 . S
C3579 C3570 1.390 . S
C3579 H3572 0.950 . S
C3579 C3576 1.387 . S
C3580 C3581 1.387 . S
C3580 H3584 0.950 . S
C3580 C3589 1.390 . S
C3581 C3580 1.387 . S
C3581 C3583 1.387 . S
H3582 C3589 0.950 . S
C3583 C3581 1.387 . S
C3583 C3585 1.390 . S
C3583 H3587 0.950 . S
H3584 C3580 0.950 . S
C3585 C3583 1.390 . S
C3585 C3586 1.387 . S
C3585 H3588 0.950 . S
C3586 C3585 1.387 . S
C3586 C3589 1.387 . S
H3587 C3583 0.950 . S
H3588 C3585 0.950 . S
C3589 C3580 1.390 . S
C3589 H3582 0.950 . S
C3589 C3586 1.387 . S
C3590 C3591 1.387 . S
C3590 H3594 0.950 . S
C3590 C3599 1.390 . S
C3591 C3590 1.387 . S
C3591 C3593 1.387 . S
H3592 C3599 0.950 . S
C3593 C3591 1.387 . S
C3593 C3595 1.390 . S
C3593 H3597 0.950 . S
H3594 C3590 0.950 . S
C3595 C3593 1.390 . S
C3595 C3596 1.387 . S
C3595 H3598 0.950 . S
C3596 C3595 1.387 . S
C3596 C3599 1.387 . S
H3597 C3593 0.950 . S
H3598 C3595 0.950 . S
C3599 C3590 1.390 . S
C3599 H3592 0.950 . S
C3599 C3596 1.387 . S
C3600 C3601 1.387 . S
C3600 H3604 0.950 . S
C3600 C3609 1.390 . S
C3601 C3600 1.387 . S
C3601 C3603 1.387 . S
H3602 C3609 0.950 . S
C3603 C3601 1.387 . S
C3603 C3605 1.390 . S
C3603 H3607 0.950 . S
H3604 C3600 0.950 . S
C3605 C3603 1.390 . S
C3605 C3606 1.387 . S
C3605 H3608 0.950 . S
C3606 C3605 1.387 . S
C3606 C3609 1.387 . S
H3607 C3603 0.950 . S
H3608 C3605 0.950 . S
C3609 C3600 1.390 . S
C3609 H3602 0.950 . S
C3609 C3606 1.387 . S
C3610 C3611 1.387 . S
C3610 H3614 0.950 . S
C3610 C3619 1.390 . S
C3611 C3610 1.387 . S
C3611 C3613 1.387 . S
H3612 C3619 0.950 . S
C3613 C3611 1.387 . S
C3613 C3615 1.390 . S
C3613 H3617 0.950 . S
H3614 C3610 0.950 . S
C3615 C3613 1.390 . S
C3615 C3616 1.387 . S
C3615 H3618 0.950 . S
C3616 C3615 1.387 . S
C3616 C3619 1.387 . S
H3617 C3613 0.950 . S
H3618 C3615 0.950 . S
C3619 C3610 1.390 . S
C3619 H3612 0.950 . S
C3619 C3616 1.387 . S
C3620 C3621 1.387 . S
C3620 H3624 0.950 . S
C3620 C3629 1.390 . S
C3621 C3620 1.387 . S
C3621 C3623 1.387 . S
H3622 C3629 0.950 . S
C3623 C3621 1.387 . S
C3623 C3625 1.390 . S
C3623 H3627 0.950 . S
H3624 C3620 0.950 . S
C3625 C3623 1.390 . S
C3625 C3626 1.387 . S
C3625 H3628 0.950 . S
C3626 C3625 1.387 . S
C3626 C3629 1.387 . S
H3627 C3623 0.950 . S
H3628 C3625 0.950 . S
C3629 C3620 1.390 . S
C3629 H3622 0.950 . S
C3629 C3626 1.387 . S
C3630 C3631 1.387 . S
C3630 H3634 0.950 . S
C3630 C3639 1.390 . S
C3631 C3630 1.387 . S
C3631 C3633 1.387 . S
H3632 C3639 0.950 . S
C3633 C3631 1.387 . S
C3633 C3635 1.390 . S
C3633 H3637 0.950 . S
H3634 C3630 0.950 . S
C3635 C3633 1.390 . S
C3635 C3636 1.387 . S
C3635 H3638 0.950 . S
C3636 C3635 1.387 . S
C3636 C3639 1.387 . S
H3637 C3633 0.950 . S
H3638 C3635 0.950 . S
C3639 C3630 1.390 . S
C3639 H3632 0.950 . S
C3639 C3636 1.387 . S
C3640 C3641 1.387 . S
C3640 H3644 0.950 . S
C3640 C3649 1.390 . S
C3641 C3640 1.387 . S
C3641 C3643 1.387 . S
H3642 C3649 0.950 . S
C3643 C3641 1.387 . S
C3643 C3645 1.390 . S
C3643 H3647 0.950 . S
H3644 C3640 0.950 . S
C3645 C3643 1.390 . S
C3645 C3646 1.387 . S
C3645 H3648 0.950 . S
C3646 C3645 1.387 . S
C3646 C3649 1.387 . S
H3647 C3643 0.950 . S
H3648 C3645 0.950 . S
C3649 C3640 1.390 . S
C3649 H3642 0.950 . S
C3649 C3646 1.387 . S
C3650 C3651 1.387 . S
C3650 H3654 0.950 . S
C3650 C3659 1.390 . S
C3651 C3650 1.387 . S
C3651 C3653 1.387 . S
H3652 C3659 0.950 . S
C3653 C3651 1.387 . S
C3653 C3655 1.390 . S
C3653 H3657 0.950 . S
H3654 C3650 0.950 . S
C3655 C3653 1.390 . S
C3655 C3656 1.387 . S
C3655 H3658 0.950 . S
C3656 C3655 1.387 . S
C3656 C3659 1.387 . S
H3657 C3653 0.950 . S
H3658 C3655 0.950 . S
C3659 C3650 1.390 . S
C3659 H3652 0.950 . S
C3659 C3656 1.387 . S
C3660 C3661 1.387 . S
C3660 H3664 0.950 . S
C3660 C3669 1.390 . S
C3661 C3660 1.387 . S
C3661 C3663 1.387 . S
H3662 C3669 0.950 . S
C3663 C3661 1.387 . S
C3663 C3665 1.390 . S
C3663 H3667 0.950 . S
H3664 C3660 0.950 . S
C3665 C3663 1.390 . S
C3665 C3666 1.387 . S
C3665 H3668 0.950 . S
C3666 C3665 1.387 . S
C3666 C3669 1.387 . S
H3667 C3663 0.950 . S
H3668 C3665 0.950 . S
C3669 C3660 1.390 . S
C3669 H3662 0.950 . S
C3669 C3666 1.387 . S
C3670 C3671 1.387 . S
C3670 H3674 0.950 . S
C3670 C3679 1.390 . S
C3671 C3670 1.387 . S
C3671 C3673 1.387 . S
H3672 C3679 0.950 . S
C3673 C3671 1.387 . S
C3673 C3675 1.390 . S
C3673 H3677 0.950 . S
H3674 C3670 0.950 . S
C3675 C3673 1.390 . S
C3675 C3676 1.387 . S
C3675 H3678 0.950 . S
C3676 C3675 1.387 . S
C3676 C3679 1.387 . S
H3677 C3673 0.950 . S
H3678 C3675 0.950 . S
C3679 C3670 1.390 . S
C3679 H3672 0.950 . S
C3679 C3676 1.387 . S
C3680 C3681 1.387 . S
C3680 H3684 0.950 . S
C3680 C3689 1.390 . S
C3681 C3680 1.387 . S
C3681 C3683 1.387 . S
H3682 C3689 0.950 . S
C3683 C3681 1.387 . S
C3683 C3685 1.390 . S
C3683 H3687 0.950 . S
H3684 C3680 0.950 . S
C3685 C3683 1.390 . S
C3685 C3686 1.387 . S
C3685 H3688 0.950 . S
C3686 C3685 1.387 . S
C3686 C3689 1.387 . S
H3687 C3683 0.950 . S
H3688 C3685 0.950 . S
C3689 C3680 1.390 . S
C3689 H3682 0.950 . S
C3689 C3686 1.387 . S
C3690 C3691 1.387 . S
C3690 H3694 0.950 . S
C3690 C3699 1.390 . S
C3691 C3690 1.387 . S
C3691 C3693 1.387 . S
H3692 C3699 0.950 . S
C3693 C3691 1.387 . S
C3693 C3695 1.390 . S
C3693 H3697 0.950 . S
H3694 C3690 0.950 . S
C3695 C3693 1.390 . S
C3695 C3696 1.387 . S
C3695 H3698 0.950 . S
C3696 C3695 1.387 . S
C3696 C3699 1.387 . S
H3697 C3693 0.950 . S
H3698 C3695 0.950 . S
C3699 C3690 1.390 . S
C3699 H3692 0.950 . S
C3699 C3696 1.387 . S
C3700 C3701 1.387 . S
C3700 H3704 0.950 . S
C3700 C3709 1.390 . S
C3701 C3700 1.387 . S
C3701 C3703 1.387 . S
H3702 C3709 0.950 . S
C3703 C3701 1.387 . S
C3703 C3705 1.390 . S
C3703 H3707 0.950 . S
H3704 C3700 0.950 . S
C3705 C3703 1.390 . S
C3705 C3706 1.387 . S
C3705 H3708 0.950 . S
C3706 C3705 1.387 . S
C3706 C3709 1.387 . S
H3707 C3703 0.950 . S
H3708 C3705 0.950 . S
C3709 C3700 1.390 . S
C3709 H3702 0.950 . S
C3709 C3706 1.387 . S
C3710 C3711 1.387 . S
C3710 H3714 0.950 . S
C3710 C3719 1.390 . S
C3711 C3710 1.387 . S
C3711 C3713 1.387 . S
H3712 C3719 0.950 . S
C3713 C3711 1.387 . S
C3713 C3715 1.390 . S
C3713 H3717 0.950 . S
H3714 C3710 0.950 . S
C3715 C3713 1.390 . S
C3715 C3716 1.387 . S
C3715 H3718 0.950 . S
C3716 C3715 1.387 . S
C3716 C3719 1.387 . S
H3717 C3713 0.950 . S
H3718 C3715 0.950 . S
C3719 C3710 1.390 . S
C3719 H3712 0.950 . S
C3719 C3716 1.387 . S
C3720 C3721 1.387 . S
C3720 H3724 0.950 . S
C3720 C3729 1.390 . S
C3721 C3720 1.387 . S
C3721 C3723 1.387 . S
H3722 C3729 0.950 . S
C3723 C3721 1.387 . S
C3723 C3725 1.390 . S
C3723 H3727 0.950 . S
H3724 C3720 0.950 . S
C3725 C3723 1.390 . S
C3725 C3726 1.387 . S
C3725 H3728 0.950 . S
C3726 C3725 1.387 . S
C3726 C3729 1.387 . S
H3727 C3723 0.950 . S
H3728 C3725 0.950 . S
C3729 C3720 1.390 . S
C3729 H3722 0.950 . S
C3729 C3726 1.387 . S
C3730 C3731 1.387 . S
C3730 H3734 0.950 . S
C3730 C3739 1.390 . S
C3731 C3730 1.387 . S
C3731 C3733 1.387 . S
H3732 C3739 0.950 . S
C3733 C3731 1.387 . S
C3733 C3735 1.390 . S
C3733 H3737 0.950 . S
H3734 C3730 0.950 . S
C3735 C3733 1.390 . S
C3735 C3736 1.387 . S
C3735 H3738 0.950 . S
C3736 C3735 1.387 . S
C3736 C3739 1.387 . S
H3737 C3733 0.950 . S
H3738 C3735 0.950 . S
C3739 C3730 1.390 . S
C3739 H3732 0.950 . S
C3739 C3736 1.387 . S
C3740 C3741 1.387 . S
C3740 H3744 0.950 . S
C3740 C3749 1.390 . S
C3741 C3740 1.387 . S
C3741 C3743 1.387 . S
H3742 C3749 0.950 . S
C3743 C3741 1.387 . S
C3743 C3745 1.390 . S
C3743 H3747 0.950 . S
H3744 C3740 0.950 . S
C3745 C3743 1.390 . S
C3745 C3746 1.387 . S
C3745 H3748 0.950 . S
C3746 C3745 1.387 . S
C3746 C3749 1.387 . S
H3747 C3743 0.950 . S
H3748 C3745 0.950 . S
C3749 C3740 1.390 . S
C3749 H3742 0.950 . S
C3749 C3746 1.387 . S
C3750 C3751 1.387 . S
C3750 H3754 0.950 . S
C3750 C3759 1.390 . S
C3751 C3750 1.387 . S
C3751 C3753 1.387 . S
H3752 C3759 0.950 . S
C3753 C3751 1.387 . S
C3753 C3755 1.390 . S
C3753 H3757 0.950 . S
H3754 C3750 0.950 . S
C3755 C3753 1.390 . S
C3755 C3756 1.387 . S
C3755 H3758 0.950 . S
C3756 C3755 1.387 . S
C3756 C3759 1.387 . S
H3757 C3753 0.950 . S
H3758 C3755 0.950 . S
C3759 C3750 1.390 . S
C3759 H3752 0.950 . S
C3759 C3756 1.387 . S
C3760 C3761 1.387 . S
C3760 H3764 0.950 . S
C3760 C3769 1.390 . S
C3761 C3760 1.387 . S
C3761 C3763 1.387 . S
H3762 C3769 0.950 . S
C3763 C3761 1.387 . S
C3763 C3765 1.390 . S
C3763 H3767 0.950 . S
H3764 C3760 0.950 . S
C3765 C3763 1.390 . S
C3765 C3766 1.387 . S
C3765 H3768 0.950 . S
C3766 C3765 1.387 . S
C3766 C3769 1.387 . S
H3767 C3763 0.950 . S
H3768 C3765 0.950 . S
C3769 C3760 1.390 . S
C3769 H3762 0.950 . S
C3769 C3766 1.387 . S
C3770 C3771 1.387 . S
C3770 H3774 0.950 . S
C3770 C3779 1.390 . S
C3771 C3770 1.387 . S
C3771 C3773 1.387 . S
H3772 C3779 0.950 . S
C3773 C3771 1.387 . S
C3773 C3775 1.390 . S
C3773 H3777 0.950 . S
H3774 C3770 0.950 . S
C3775 C3773 1.390 . S
C3775 C3776 1.387 . S
C3775 H3778 0.950 . S
C3776 C3775 1.387 . S
C3776 C3779 1.387 . S
H3777 C3773 0.950 . S
H3778 C3775 0.950 . S
C3779 C3770 1.390 . S
C3779 H3772 0.950 . S
C3779 C3776 1.387 . S
C3780 C3781 1.387 . S
C3780 H3784 0.950 . S
C3780 C3789 1.390 . S
C3781 C3780 1.387 . S
C3781 C3783 1.387 . S
H3782 C3789 0.950 . S
C3783 C3781 1.387 . S
C3783 C3785 1.390 . S
C3783 H3787 0.950 . S
H3784 C3780 0.950 . S
C3785 C3783 1.390 . S
C3785 C3786 1.387 . S
C3785 H3788 0.950 . S
C3786 C3785 1.387 . S
C3786 C3789 1.387 . S
H3787 C3783 0.950 . S
H3788 C3785 0.950 . S
C3789 C3780 1.390 . S
C3789 H3782 0.950 . S
C3789 C3786 1.387 . S
C3790 C3791 1.387 . S
C3790 H3794 0.950 . S
C3790 C3799 1.390 . S
C3791 C3790 1.387 . S
C3791 C3793 1.387 . S
H3792 C3799 0.950 . S
C3793 C3791 1.387 . S
C3793 C3795 1.390 . S
C3793 H3797 0.950 . S
H3794 C3790 0.950 . S
C3795 C3793 1.390 . S
C3795 C3796 1.387 . S
C3795 H3798 0.950 . S
C3796 C3795 1.387 . S
C3796 C3799 1.387 . S
H3797 C3793 0.950 . S
H3798 C3795 0.950 . S
C3799 C3790 1.390 . S
C3799 H3792 0.950 . S
C3799 C3796 1.387 . S
C3800 C3801 1.387 . S
C3800 H3804 0.950 . S
C3800 C3809 1.390 . S
C3801 C3800 1.387 . S
C3801 C3803 1.387 . S
H3802 C3809 0.950 . S
C3803 C3801 1.387 . S
C3803 C3805 1.390 . S
C3803 H3807 0.950 . S
H3804 C3800 0.950 . S
C3805 C3803 1.390 . S
C3805 C3806 1.387 . S
C3805 H3808 0.950 . S
C3806 C3805 1.387 . S
C3806 C3809 1.387 . S
H3807 C3803 0.950 . S
H3808 C3805 0.950 . S
C3809 C3800 1.390 . S
C3809 H3802 0.950 . S
C3809 C3806 1.387 . S
C3810 C3811 1.387 . S
C3810 H3814 0.950 . S
C3810 C3819 1.390 . S
C3811 C3810 1.387 . S
C3811 C3813 1.387 . S
H3812 C3819 0.950 . S
C3813 C3811 1.387 . S
C3813 C3815 1.390 . S
C3813 H3817 0.950 . S
H3814 C3810 0.950 . S
C3815 C3813 1.390 . S
C3815 C3816 1.387 . S
C3815 H3818 0.950 . S
C3816 C3815 1.387 . S
C3816 C3819 1.387 . S
H3817 C3813 0.950 . S
H3818 C3815 0.950 . S
C3819 C3810 1.390 . S
C3819 H3812 0.950 . S
C3819 C3816 1.387 . S
C3820 C3821 1.387 . S
C3820 H3824 0.950 . S
C3820 C3829 1.390 . S
C3821 C3820 1.387 . S
C3821 C3823 1.387 . S
H3822 C3829 0.950 . S
C3823 C3821 1.387 . S
C3823 C3825 1.390 . S
C3823 H3827 0.950 . S
H3824 C3820 0.950 . S
C3825 C3823 1.390 . S
C3825 C3826 1.387 . S
C3825 H3828 0.950 . S
C3826 C3825 1.387 . S
C3826 C3829 1.387 . S
H3827 C3823 0.950 . S
H3828 C3825 0.950 . S
C3829 C3820 1.390 . S
C3829 H3822 0.950 . S
C3829 C3826 1.387 . S
C3830 C3831 1.387 . S
C3830 H3834 0.950 . S
C3830 C3839 1.390 . S
C3831 C3830 1.387 . S
C3831 C3833 1.387 . S
H3832 C3839 0.950 . S
C3833 C3831 1.387 . S
C3833 C3835 1.390 . S
C3833 H3837 0.950 . S
H3834 C3830 0.950 . S
C3835 C3833 1.390 . S
C3835 C3836 1.387 . S
C3835 H3838 0.950 . S
C3836 C3835 1.387 . S
C3836 C3839 1.387 . S
H3837 C3833 0.950 . S
H3838 C3835 0.950 . S
C3839 C3830 1.390 . S
C3839 H3832 0.950 . S
C3839 C3836 1.387 . S
C3840 C3841 1.387 . S
C3840 H3844 0.950 . S
C3840 C3849 1.390 . S
C3841 C3840 1.387 . S
C3841 C3843 1.387 . S
H3842 C3849 0.950 . S
C3843 C3841 1.387 . S
C3843 C3845 1.390 . S
C3843 H3847 0.950 . S
H3844 C3840 0.950 . S
C3845 C3843 1.390 . S
C3845 C3846 1.387 . S
C3845 H3848 0.950 . S
C3846 C3845 1.387 . S
C3846 C3849 1.387 . S
H3847 C3843 0.950 . S
H3848 C3845 0.950 . S
C3849 C3840 1.390 . S
C3849 H3842 0.950 . S
C3849 C3846 1.387 . S
C3850 C3851 1.387 . S
C3850 H3854 0.950 . S
C3850 C3859 1.390 . S
C3851 C3850 1.387 . S
C3851 C3853 1.387 . S
H3852 C3859 0.950 . S
C3853 C3851 1.387 . S
C3853 C3855 1.390 . S
C3853 H3857 0.950 . S
H3854 C3850 0.950 . S
C3855 C3853 1.390 . S
C3855 C3856 1.387 . S
C3855 H3858 0.950 . S
C3856 C3855 1.387 . S
C3856 C3859 1.387 . S
H3857 C3853 0.950 . S
H3858 C3855 0.950 . S
C3859 C3850 1.390 . S
C3859 H3852 0.950 . S
C3859 C3856 1.387 . S
C3860 C3861 1.387 . S
C3860 H3864 0.950 . S
C3860 C3869 1.390 . S
C3861 C3860 1.387 . S
C3861 C3863 1.387 . S
H3862 C3869 0.950 . S
C3863 C3861 1.387 . S
C3863 C3865 1.390 . S
C3863 H3867 0.950 . S
H3864 C3860 0.950 . S
C3865 C3863 1.390 . S
C3865 C3866 1.387 . S
C3865 H3868 0.950 . S
C3866 C3865 1.387 . S
C3866 C3869 1.387 . S
H3867 C3863 0.950 . S
H3868 C3865 0.950 . S
C3869 C3860 1.390 . S
C3869 H3862 0.950 . S
C3869 C3866 1.387 . S
C3870 C3871 1.387 . S
C3870 H3874 0.950 . S
C3870 C3879 1.390 . S
C3871 C3870 1.387 . S
C3871 C3873 1.387 . S
H3872 C3879 0.950 . S
C3873 C3871 1.387 . S
C3873 C3875 1.390 . S
C3873 H3877 0.950 . S
H3874 C3870 0.950 . S
C3875 C3873 1.390 . S
C3875 C3876 1.387 . S
C3875 H3878 0.950 . S
C3876 C3875 1.387 . S
C3876 C3879 1.387 . S
H3877 C3873 0.950 . S
H3878 C3875 0.950 . S
C3879 C3870 1.390 . S
C3879 H3872 0.950 . S
C3879 C3876 1.387 . S
C3880 C3881 1.387 . S
C3880 H3884 0.950 . S
C3880 C3889 1.390 . S
C3881 C3880 1.387 . S
C3881 C3883 1.387 . S
H3882 C3889 0.950 . S
C3883 C3881 1.387 . S
C3883 C3885 1.390 . S
C3883 H3887 0.950 . S
H3884 C3880 0.950 . S
C3885 C3883 1.390 . S
C3885 C3886 1.387 . S
C3885 H3888 0.950 . S
C3886 C3885 1.387 . S
C3886 C3889 1.387 . S
H3887 C3883 0.950 . S
H3888 C3885 0.950 . S
C3889 C3880 1.390 . S
C3889 H3882 0.950 . S
C3889 C3886 1.387 . S
C3890 C3891 1.387 . S
C3890 H3894 0.950 . S
C3890 C3899 1.390 . S
C3891 C3890 1.387 . S
C3891 C3893 1.387 . S
H3892 C3899 0.950 . S
C3893 C3891 1.387 . S
C3893 C3895 1.390 . S
C3893 H3897 0.950 . S
H3894 C3890 0.950 . S
C3895 C3893 1.390 . S
C3895 C3896 1.387 . S
C3895 H3898 0.950 . S
C3896 C3895 1.387 . S
C3896 C3899 1.387 . S
H3897 C3893 0.950 . S
H3898 C3895 0.950 . S
C3899 C3890 1.390 . S
C3899 H3892 0.950 . S
C3899 C3896 1.387 . S
C3900 C3901 1.387 . S
C3900 H3904 0.950 . S
C3900 C3909 1.390 . S
C3901 C3900 1.387 . S
C3901 C3903 1.387 . S
H3902 C3909 0.950 . S
C3903 C3901 1.387 . S
C3903 C3905 1.390 . S
C3903 H3907 0.950 . S
H3904 C3900 0.950 . S
C3905 C3903 1.390 . S
C3905 C3906 1.387 . S
C3905 H3908 0.950 . S
C3906 C3905 1.387 . S
C3906 C3909 1.387 . S
H3907 C3903 0.950 . S
H3908 C3905 0.950 . S
C3909 C3900 1.390 . S
C3909 H3902 0.950 . S
C3909 C3906 1.387 . S
C3910 C3911 1.387 . S
C3910 H3914 0.950 . S
C3910 C3919 1.390 . S
C3911 C3910 1.387 . S
C3911 C3913 1.387 . S
H3912 C3919 0.950 . S
C3913 C3911 1.387 . S
C3913 C3915 1.390 . S
C3913 H3917 0.950 . S
H3914 C3910 0.950 . S
C3915 C3913 1.390 . S
C3915 C3916 1.387 . S
C3915 H3918 0.950 . S
C3916 C3915 1.387 . S
C3916 C3919 1.387 . S
H3917 C3913 0.950 . S
H3918 C3915 0.950 . S
C3919 C3910 1.390 . S
C3919 H3912 0.950 . S
C3919 C3916 1.387 . S
C3920 C3921 1.387 . S
C3920 H3924 0.950 . S
C3920 C3929 1.390 . S
C3921 C3920 1.387 . S
C3921 C3923 1.387 . S
H3922 C3929 0.950 . S
C3923 C3921 1.387 . S
C3923 C3925 1.390 . S
C3923 H3927 0.950 . S
H3924 C3920 0.950 . S
C3925 C3923 1.390 . S
C3925 C3926 1.387 . S
C3925 H3928 0.950 . S
C3926 C3925 1.387 . S
C3926 C3929 1.387 . S
H3927 C3923 0.950 . S
H3928 C3925 0.950 . S
C3929 C3920 1.390 . S
C3929 H3922 0.950 . S
C3929 C3926 1.387 . S
C3930 C3931 1.387 . S
C3930 H3934 0.950 . S
C3930 C3939 1.390 . S
C3931 C3930 1.387 . S
C3931 C3933 1.387 . S
H3932 C3939 0.950 . S
C3933 C3931 1.387 . S
C3933 C3935 1.390 . S
C3933 H3937 0.950 . S
H3934 C3930 0.950 . S
C3935 C3933 1.390 . S
C3935 C3936 1.387 . S
C3935 H3938 0.950 . S
C3936 C3935 1.387 . S
C3936 C3939 1.387 . S
H3937 C3933 0.950 . S
H3938 C3935 0.950 . S
C3939 C3930 1.390 . S
C3939 H3932 0.950 . S
C3939 C3936 1.387 . S
C3940 C3941 1.387 . S
C3940 H3944 0.950 . S
C3940 C3949 1.390 . S
C3941 C3940 1.387 . S
C3941 C3943 1.387 . S
H3942 C3949 0.950 . S
C3943 C3941 1.387 . S
C3943 C3945 1.390 . S
C3943 H3947 0.950 . S
H3944 C3940 0.950 . S
C3945 C3943 1.390 . S
C3945 C3946 1.387 . S
C3945 H3948 0.950 . S
C3946 C3945 1.387 . S
C3946 C3949 1.387 . S
H3947 C3943 0.950 . S
H3948 C3945 0.950 . S
C3949 C3940 1.390 . S
C3949 H3942 0.950 . S
C3949 C3946 1.387 . S
C3950 C3951 1.387 . S
C3950 H3954 0.950 . S
C3950 C3959 1.390 . S
C3951 C3950 1.387 . S
C3951 C3953 1.387 . S
H3952 C3959 0.950 . S
C3953 C3951 1.387 . S
C3953 C3955 1.390 . S
C3953 H3957 0.950 . S
H3954 C3950 0.950 . S
C3955 C3953 1.390 . S
C3955 C3956 1.387 . S
C3955 H3958 0.950 . S
C3956 C3955 1.387 . S
C3956 C3959 1.387 . S
H3957 C3953 0.950 . S
H3958 C3955 0.950 . S
C3959 C3950 1.390 . S
C3959 H3952 0.950 . S
C3959 C3956 1.387 . S
C3960 C3961 1.387 . S
C3960 H3964 0.950 . S
C3960 C3969 1.390 . S
C3961 C3960 1.387 . S
C3961 C3963 1.387 . S
H3962 C3969 0.950 . S
C3963 C3961 1.387 . S
C3963 C3965 1.390 . S
C3963 H3967 0.950 . S
H3964 C3960 0.950 . S
C3965 C3963 1.390 . S
C3965 C3966 1.387 . S
C3965 H3968 0.950 . S
C3966 C3965 1.387 . S
C3966 C3969 1.387 . S
H3967 C3963 0.950 . S
H3968 C3965 0.950 . S
C3969 C3960 1.390 . S
C3969 H3962 0.950 . S
C3969 C3966 1.387 . S
C3970 C3971 1.387 . S
C3970 H3974 0.950 . S
C3970 C3979 1.390 . S
C3971 C3970 1.387 . S
C3971 C3973 1.387 . S
H3972 C3979 0.950 . S
C3973 C3971 1.387 . S
C3973 C3975 1.390 . S
C3973 H3977 0.950 . S
H3974 C3970 0.950 . S
C3975 C3973 1.390 . S
C3975 C3976 1.387 . S
C3975 H3978 0.950 . S
C3976 C3975 1.387 . S
C3976 C3979 1.387 . S
H3977 C3973 0.950 . S
H3978 C3975 0.950 . S
C3979 C3970 1.390 . S
C3979 H3972 0.950 . S
C3979 C3976 1.387 . S
C3980 C3981 1.387 . S
C3980 H3984 0.950 . S
C3980 C3989 1.390 . S
C3981 C3980 1.387 . S
C3981 C3983 1.387 . S
H3982 C3989 0.950 . S
C3983 C3981 1.387 . S
C3983 C3985 1.390 . S
C3983 H3987 0.950 . S
H3984 C3980 0.950 . S
C3985 C3983 1.390 . S
C3985 C3986 1.387 . S
C3985 H3988 0.950 . S
C3986 C3985 1.387 . S
C3986 C3989 1.387 . S
H3987 C3983 0.950 . S
H3988 C3985 0.950 . S
C3989 C3980 1.390 . S
C3989 H3982 0.950 . S
C3989 C3986 1.387 . S
C3990 C3991 1.387 . S
C3990 H3994 0.950 . S
C3990 C3999 1.390 . S
C3991 C3990 1.387 . S
C3991 C3993 1.387 . S
H3992 C3999 0.950 . S
C3993 C3991 1.387 . S
C3993 C3995 1.390 . S
C3993 H3997 0.950 . S
H3994 C3990 0.950 . S
C3995 C3993 1.390 . S
C3995 C3996 1.387 . S
C3995 H3998 0.950 . S
C3996 C3995 1.387 . S
C3996 C3999 1.387 . S
H3997 C3993 0.950 . S
H3998 C3995 0.950 . S
C3999 C3990 1.390 . S
C3999 H3992 0.950 . S
C3999 C3996 1.387 . S
C4000 C4001 1.387 . S
C4000 H4004 0.950 . S
C4000 C4009 1.390 . S
C4001 C4000 1.387 . S
C4001 C4003 1.387 . S
H4002 C4009 0.950 . S
C4003 C4001 1.387 . S
C4003 C4005 1.390 . S
C4003 H4007 0.950 . S
H4004 C4000 0.950 . S
C4005 C4003 1.390 . S
C4005 C4006 1.387 . S
C4005 H4008 0.950 . S
C4006 C4005 1.387 . S
C4006 C4009 1.387 . S
H4007 C4003 0.950 . S
H4008 C4005 0.950 . S
C4009 C4000 1.390 . S
C4009 H4002 0.950 . S
C4009 C4006 1.387 . S
C4010 C4011 1.387 . S
C4010 H4014 0.950 . S
C4010 C4019 1.390 . S
C4011 C4010 1.387 . S
C4011 C4013 1.387 . S
H4012 C4019 0.950 . S
C4013 C4011 1.387 . S
C4013 C4015 1.390 . S
C4013 H4017 0.950 . S
H4014 C4010 0.950 . S
C4015 C4013 1.390 . S
C4015 C4016 1.387 . S
C4015 H4018 0.950 . S
C4016 C4015 1.387 . S
C4016 C4019 1.387 . S
H4017 C4013 0.950 . S
H4018 C4015 0.950 . S
C4019 C4010 1.390 . S
C4019 H4012 0.950 . S
C4019 C4016 1.387 . S
C4020 C4021 1.387 . S
C4020 H4024 0.950 . S
C4020 C4029 1.390 . S
C4021 C4020 1.387 . S
C4021 C4023 1.387 . S
H4022 C4029 0.950 . S
C4023 C4021 1.387 . S
C4023 C4025 1.390 . S
C4023 H4027 0.950 . S
H4024 C4020 0.950 . S
C4025 C4023 1.390 . S
C4025 C4026 1.387 . S
C4025 H4028 0.950 . S
C4026 C4025 1.387 . S
C4026 C4029 1.387 . S
H4027 C4023 0.950 . S
H4028 C4025 0.950 . S
C4029 C4020 1.390 . S
C4029 H4022 0.950 . S
C4029 C4026 1.387 . S
C4030 C4031 1.387 . S
C4030 H4034 0.950 . S
C4030 C4039 1.390 . S
C4031 C4030 1.387 . S
C4031 C4033 1.387 . S
H4032 C4039 0.950 . S
C4033 C4031 1.387 . S
C4033 C4035 1.390 . S
C4033 H4037 0.950 . S
H4034 C4030 0.950 . S
C4035 C4033 1.390 . S
C4035 C4036 1.387 . S
C4035 H4038 0.950 . S
C4036 C4035 1.387 . S
C4036 C4039 1.387 . S
H4037 C4033 0.950 . S
H4038 C4035 0.950 . S
C4039 C4030 1.390 . S
C4039 H4032 0.950 . S
C4039 C4036 1.387 . S
C4040 C4041 1.387 . S
C4040 H4044 0.950 . S
C4040 C4049 1.390 . S
C4041 C4040 1.387 . S
C4041 C4043 1.387 . S
H4042 C4049 0.950 . S
C4043 C4041 1.387 . S
C4043 C4045 1.390 . S
C4043 H4047 0.950 . S
H4044 C4040 0.950 . S
C4045 C4043 1.390 . S
C4045 C4046 1.387 . S
C4045 H4048 0.950 . S
C4046 C4045 1.387 . S
C4046 C4049 1.387 . S
H4047 C4043 0.950 . S
H4048 C4045 0.950 . S
C4049 C4040 1.390 . S
C4049 H4042 0.950 . S
C4049 C4046 1.387 . S
C4050 C4051 1.387 . S
C4050 H4054 0.950 . S
C4050 C4059 1.390 . S
C4051 C4050 1.387 . S
C4051 C4053 1.387 . S
H4052 C4059 0.950 . S
C4053 C4051 1.387 . S
C4053 C4055 1.390 . S
C4053 H4057 0.950 . S
H4054 C4050 0.950 . S
C4055 C4053 1.390 . S
C4055 C4056 1.387 . S
C4055 H4058 0.950 . S
C4056 C4055 1.387 . S
C4056 C4059 1.387 . S
H4057 C4053 0.950 . S
H4058 C4055 0.950 . S
C4059 C4050 1.390 . S
C4059 H4052 0.950 . S
C4059 C4056 1.387 . S
C4060 C4061 1.387 . S
C4060 H4064 0.950 . S
C4060 C4069 1.390 . S
C4061 C4060 1.387 . S
C4061 C4063 1.387 . S
H4062 C4069 0.950 . S
C4063 C4061 1.387 . S
C4063 C4065 1.390 . S
C4063 H4067 0.950 . S
H4064 C4060 0.950 . S
C4065 C4063 1.390 . S
C4065 C4066 1.387 . S
C4065 H4068 0.950 . S
C4066 C4065 1.387 . S
C4066 C4069 1.387 . S
H4067 C4063 0.950 . S
H4068 C4065 0.950 . S
C4069 C4060 1.390 . S
C4069 H4062 0.950 . S
C4069 C4066 1.387 . S
C4070 C4071 1.387 . S
C4070 H4074 0.950 . S
C4070 C4079 1.390 . S
C4071 C4070 1.387 . S
C4071 C4073 1.387 . S
H4072 C4079 0.950 . S
C4073 C4071 1.387 . S
C4073 C4075 1.390 . S
C4073 H4077 0.950 . S
H4074 C4070 0.950 . S
C4075 C4073 1.390 . S
C4075 C4076 1.387 . S
C4075 H4078 0.950 . S
C4076 C4075 1.387 . S
C4076 C4079 1.387 . S
H4077 C4073 0.950 . S
H4078 C4075 0.950 . S
C4079 C4070 1.390 . S
C4079 H4072 0.950 . S
C4079 C4076 1.387 . S
C4080 C4081 1.387 . S
C4080 H4084 0.950 . S
C4080 C4089 1.390 . S
C4081 C4080 1.387 . S
C4081 C4083 1.387 . S
H4082 C4089 0.950 . S
C4083 C4081 1.387 . S
C4083 C4085 1.390 . S
C4083 H4087 0.950 . S
H4084 C4080 0.950 . S
C4085 C4083 1.390 . S
C4085 C4086 1.387 . S
C4085 H4088 0.950 . S
C4086 C4085 1.387 . S
C4086 C4089 1.387 . S
H4087 C4083 0.950 . S
H4088 C4085 0.950 . S
C4089 C4080 1.390 . S
C4089 H4082 0.950 . S
C4089 C4086 1.387 . S
C4090 C4091 1.387 . S
C4090 H4094 0.950 . S
C4090 C4099 1.390 . S
C4091 C4090 1.387 . S
C4091 C4093 1.387 . S
H4092 C4099 0.950 . S
C4093 C4091 1.387 . S
C4093 C4095 1.390 . S
C4093 H4097 0.950 . S
H4094 C4090 0.950 . S
C4095 C4093 1.390 . S
C4095 C4096 1.387 . S
C4095 H4098 0.950 . S
C4096 C4095 1.387 . S
C4096 C4099 1.387 . S
H4097 C4093 0.950 . S
H4098 C4095 0.950 . S
C4099 C4090 1.390 . S
C4099 H4092 0.950 . S
C4099 C4096 1.387 . S
C4100 C4101 1.387 . S
C4100 H4104 0.950 . S
C4100 C4109 1.390 . S
C4101 C4100 1.387 . S
C4101 C4103 1.387 . S
H4102 C4109 0.950 . S
C4103 C4101 1.387 . S
C4103 C4105 1.390 . S
C4103 H4107 0.950 . S
H4104 C4100 0.950 . S
C4105 C4103 1.390 . S
C4105 C4106 1.387 . S
C4105 H4108 0.950 . S
C4106 C4105 1.387 . S
C4106 C4109 1.387 . S
H4107 C4103 0.950 . S
H4108 C4105 0.950 . S
C4109 C4100 1.390 . S
C4109 H4102 0.950 . S
C4109 C4106 1.387 . S
C4110 C4111 1.387 . S
C4110 H4114 0.950 . S
C4110 C4119 1.390 . S
C4111 C4110 1.387 . S
C4111 C4113 1.387 . S
H4112 C4119 0.950 . S
C4113 C4111 1.387 . S
C4113 C4115 1.390 . S
C4113 H4117 0.950 . S
H4114 C4110 0.950 . S
C4115 C4113 1.390 . S
C4115 C4116 1.387 . S
C4115 H4118 0.950 . S
C4116 C4115 1.387 . S
C4116 C4119 1.387 . S
H4117 C4113 0.950 . S
H4118 C4115 0.950 . S
C4119 C4110 1.390 . S
C4119 H4112 0.950 . S
C4119 C4116 1.387 . S
C4120 C4121 1.387 . S
C4120 H4124 0.950 . S
C4120 C4129 1.390 . S
C4121 C4120 1.387 . S
C4121 C4123 1.387 . S
H4122 C4129 0.950 . S
C4123 C4121 1.387 . S
C4123 C4125 1.390 . S
C4123 H4127 0.950 . S
H4124 C4120 0.950 . S
C4125 C4123 1.390 . S
C4125 C4126 1.387 . S
C4125 H4128 0.950 . S
C4126 C4125 1.387 . S
C4126 C4129 1.387 . S
H4127 C4123 0.950 . S
H4128 C4125 0.950 . S
C4129 C4120 1.390 . S
C4129 H4122 0.950 . S
C4129 C4126 1.387 . S
C4130 C4131 1.387 . S
C4130 H4134 0.950 . S
C4130 C4139 1.390 . S
C4131 C4130 1.387 . S
C4131 C4133 1.387 . S
H4132 C4139 0.950 . S
C4133 C4131 1.387 . S
C4133 C4135 1.390 . S
C4133 H4137 0.950 . S
H4134 C4130 0.950 . S
C4135 C4133 1.390 . S
C4135 C4136 1.387 . S
C4135 H4138 0.950 . S
C4136 C4135 1.387 . S
C4136 C4139 1.387 . S
H4137 C4133 0.950 . S
H4138 C4135 0.950 . S
C4139 C4130 1.390 . S
C4139 H4132 0.950 . S
C4139 C4136 1.387 . S
C4140 C4141 1.387 . S
C4140 H4144 0.950 . S
C4140 C4149 1.390 . S
C4141 C4140 1.387 . S
C4141 C4143 1.387 . S
H4142 C4149 0.950 . S
C4143 C4141 1.387 . S
C4143 C4145 1.390 . S
C4143 H4147 0.950 . S
H4144 C4140 0.950 . S
C4145 C4143 1.390 . S
C4145 C4146 1.387 . S
C4145 H4148 0.950 . S
C4146 C4145 1.387 . S
C4146 C4149 1.387 . S
H4147 C4143 0.950 . S
H4148 C4145 0.950 . S
C4149 C4140 1.390 . S
C4149 H4142 0.950 . S
C4149 C4146 1.387 . S
C4150 C4151 1.387 . S
C4150 H4154 0.950 . S
C4150 C4159 1.390 . S
C4151 C4150 1.387 . S
C4151 C4153 1.387 . S
H4152 C4159 0.950 . S
C4153 C4151 1.387 . S
C4153 C4155 1.390 . S
C4153 H4157 0.950 . S
H4154 C4150 0.950 . S
C4155 C4153 1.390 . S
C4155 C4156 1.387 . S
C4155 H4158 0.950 . S
C4156 C4155 1.387 . S
C4156 C4159 1.387 . S
H4157 C4153 0.950 . S
H4158 C4155 0.950 . S
C4159 C4150 1.390 . S
C4159 H4152 0.950 . S
C4159 C4156 1.387 . S
C4160 C4161 1.387 . S
C4160 H4164 0.950 . S
C4160 C4169 1.390 . S
C4161 C4160 1.387 . S
C4161 C4163 1.387 . S
H4162 C4169 0.950 . S
C4163 C4161 1.387 . S
C4163 C4165 1.390 . S
C4163 H4167 0.950 . S
H4164 C4160 0.950 . S
C4165 C4163 1.390 . S
C4165 C4166 1.387 . S
C4165 H4168 0.950 . S
C4166 C4165 1.387 . S
C4166 C4169 1.387 . S
H4167 C4163 0.950 . S
H4168 C4165 0.950 . S
C4169 C4160 1.390 . S
C4169 H4162 0.950 . S
C4169 C4166 1.387 . S
C4170 C4171 1.387 . S
C4170 H4174 0.950 . S
C4170 C4179 1.390 . S
C4171 C4170 1.387 . S
C4171 C4173 1.387 . S
H4172 C4179 0.950 . S
C4173 C4171 1.387 . S
C4173 C4175 1.390 . S
C4173 H4177 0.950 . S
H4174 C4170 0.950 . S
C4175 C4173 1.390 . S
C4175 C4176 1.387 . S
C4175 H4178 0.950 . S
C4176 C4175 1.387 . S
C4176 C4179 1.387 . S
H4177 C4173 0.950 . S
H4178 C4175 0.950 . S
C4179 C4170 1.390 . S
C4179 H4172 0.950 . S
C4179 C4176 1.387 . S
C4180 C4181 1.387 . S
C4180 H4184 0.950 . S
C4180 C4189 1.390 . S
C4181 C4180 1.387 . S
C4181 C4183 1.387 . S
H4182 C4189 0.950 . S
C4183 C4181 1.387 . S
C4183 C4185 1.390 . S
C4183 H4187 0.950 . S
H4184 C4180 0.950 . S
C4185 C4183 1.390 . S
C4185 C4186 1.387 . S
C4185 H4188 0.950 . S
C4186 C4185 1.387 . S
C4186 C4189 1.387 . S
H4187 C4183 0.950 . S
H4188 C4185 0.950 . S
C4189 C4180 1.390 . S
C4189 H4182 0.950 . S
C4189 C4186 1.387 . S
C4190 C4191 1.387 . S
C4190 H4194 0.950 . S
C4190 C4199 1.390 . S
C4191 C4190 1.387 . S
C4191 C4193 1.387 . S
H4192 C4199 0.950 . S
C4193 C4191 1.387 . S
C4193 C4195 1.390 . S
C4193 H4197 0.950 . S
H4194 C4190 0.950 . S
C4195 C4193 1.390 . S
C4195 C4196 1.387 . S
C4195 H4198 0.950 . S
C4196 C4195 1.387 . S
C4196 C4199 1.387 . S
H4197 C4193 0.950 . S
H4198 C4195 0.950 . S
C4199 C4190 1.390 . S
C4199 H4192 0.950 . S
C4199 C4196 1.387 . S
C4200 C4201 1.387 . S
C4200 H4204 0.950 . S
C4200 C4209 1.390 . S
C4201 C4200 1.387 . S
C4201 C4203 1.387 . S
H4202 C4209 0.950 . S
C4203 C4201 1.387 . S
C4203 C4205 1.390 . S
C4203 H4207 0.950 . S
H4204 C4200 0.950 . S
C4205 C4203 1.390 . S
C4205 C4206 1.387 . S
C4205 H4208 0.950 . S
C4206 C4205 1.387 . S
C4206 C4209 1.387 . S
H4207 C4203 0.950 . S
H4208 C4205 0.950 . S
C4209 C4200 1.390 . S
C4209 H4202 0.950 . S
C4209 C4206 1.387 . S
C4210 C4211 1.387 . S
C4210 H4214 0.950 . S
C4210 C4219 1.390 . S
C4211 C4210 1.387 . S
C4211 C4213 1.387 . S
H4212 C4219 0.950 . S
C4213 C4211 1.387 . S
C4213 C4215 1.390 . S
C4213 H4217 0.950 . S
H4214 C4210 0.950 . S
C4215 C4213 1.390 . S
C4215 C4216 1.387 . S
C4215 H4218 0.950 . S
C4216 C4215 1.387 . S
C4216 C4219 1.387 . S
H4217 C4213 0.950 . S
H4218 C4215 0.950 . S
C4219 C4210 1.390 . S
C4219 H4212 0.950 . S
C4219 C4216 1.387 . S
C4220 C4221 1.387 . S
C4220 H4224 0.950 . S
C4220 C4229 1.390 . S
C4221 C4220 1.387 . S
C4221 C4223 1.387 . S
H4222 C4229 0.950 . S
C4223 C4221 1.387 . S
C4223 C4225 1.390 . S
C4223 H4227 0.950 . S
H4224 C4220 0.950 . S
C4225 C4223 1.390 . S
C4225 C4226 1.387 . S
C4225 H4228 0.950 . S
C4226 C4225 1.387 . S
C4226 C4229 1.387 . S
H4227 C4223 0.950 . S
H4228 C4225 0.950 . S
C4229 C4220 1.390 . S
C4229 H4222 0.950 . S
C4229 C4226 1.387 . S
C4230 C4231 1.387 . S
C4230 H4234 0.950 . S
C4230 C4239 1.390 . S
C4231 C4230 1.387 . S
C4231 C4233 1.387 . S
H4232 C4239 0.950 . S
C4233 C4231 1.387 . S
C4233 C4235 1.390 . S
C4233 H4237 0.950 . S
H4234 C4230 0.950 . S
C4235 C4233 1.390 . S
C4235 C4236 1.387 . S
C4235 H4238 0.950 . S
C4236 C4235 1.387 . S
C4236 C4239 1.387 . S
H4237 C4233 0.950 . S
H4238 C4235 0.950 . S
C4239 C4230 1.390 . S
C4239 H4232 0.950 . S
C4239 C4236 1.387 . S
C4240 C4241 1.387 . S
C4240 H4244 0.950 . S
C4240 C4249 1.390 . S
C4241 C4240 1.387 . S
C4241 C4243 1.387 . S
H4242 C4249 0.950 . S
C4243 C4241 1.387 . S
C4243 C4245 1.390 . S
C4243 H4247 0.950 . S
H4244 C4240 0.950 . S
C4245 C4243 1.390 . S
C4245 C4246 1.387 . S
C4245 H4248 0.950 . S
C4246 C4245 1.387 . S
C4246 C4249 1.387 . S
H4247 C4243 0.950 . S
H4248 C4245 0.950 . S
C4249 C4240 1.390 . S
C4249 H4242 0.950 . S
C4249 C4246 1.387 . S
C4250 C4251 1.387 . S
C4250 H4254 0.950 . S
C4250 C4259 1.390 . S
C4251 C4250 1.387 . S
C4251 C4253 1.387 . S
H4252 C4259 0.950 . S
C4253 C4251 1.387 . S
C4253 C4255 1.390 . S
C4253 H4257 0.950 . S
H4254 C4250 0.950 . S
C4255 C4253 1.390 . S
C4255 C4256 1.387 . S
C4255 H4258 0.950 . S
C4256 C4255 1.387 . S
C4256 C4259 1.387 . S
H4257 C4253 0.950 . S
H4258 C4255 0.950 . S
C4259 C4250 1.390 . S
C4259 H4252 0.950 . S
C4259 C4256 1.387 . S
C4260 C4261 1.387 . S
C4260 H4264 0.950 . S
C4260 C4269 1.390 . S
C4261 C4260 1.387 . S
C4261 C4263 1.387 . S
H4262 C4269 0.950 . S
C4263 C4261 1.387 . S
C4263 C4265 1.390 . S
C4263 H4267 0.950 . S
H4264 C4260 0.950 . S
C4265 C4263 1.390 . S
C4265 C4266 1.387 . S
C4265 H4268 0.950 . S
C4266 C4265 1.387 . S
C4266 C4269 1.387 . S
H4267 C4263 0.950 . S
H4268 C4265 0.950 . S
C4269 C4260 1.390 . S
C4269 H4262 0.950 . S
C4269 C4266 1.387 . S
C4270 C4271 1.387 . S
C4270 H4274 0.950 . S
C4270 C4279 1.390 . S
C4271 C4270 1.387 . S
C4271 C4273 1.387 . S
H4272 C4279 0.950 . S
C4273 C4271 1.387 . S
C4273 C4275 1.390 . S
C4273 H4277 0.950 . S
H4274 C4270 0.950 . S
C4275 C4273 1.390 . S
C4275 C4276 1.387 . S
C4275 H4278 0.950 . S
C4276 C4275 1.387 . S
C4276 C4279 1.387 . S
H4277 C4273 0.950 . S
H4278 C4275 0.950 . S
C4279 C4270 1.390 . S
C4279 H4272 0.950 . S
C4279 C4276 1.387 . S
C4280 C4281 1.387 . S
C4280 H4284 0.950 . S
C4280 C4289 1.390 . S
C4281 C4280 1.387 . S
C4281 C4283 1.387 . S
H4282 C4289 0.950 . S
C4283 C4281 1.387 . S
C4283 C4285 1.390 . S
C4283 H4287 0.950 . S
H4284 C4280 0.950 . S
C4285 C4283 1.390 . S
C4285 C4286 1.387 . S
C4285 H4288 0.950 . S
C4286 C4285 1.387 . S
C4286 C4289 1.387 . S
H4287 C4283 0.950 . S
H4288 C4285 0.950 . S
C4289 C4280 1.390 . S
C4289 H4282 0.950 . S
C4289 C4286 1.387 . S
C4290 C4291 1.387 . S
C4290 H4294 0.950 . S
C4290 C4299 1.390 . S
C4291 C4290 1.387 . S
C4291 C4293 1.387 . S
H4292 C4299 0.950 . S
C4293 C4291 1.387 . S
C4293 C4295 1.390 . S
C4293 H4297 0.950 . S
H4294 C4290 0.950 . S
C4295 C4293 1.390 . S
C4295 C4296 1.387 . S
C4295 H4298 0.950 . S
C4296 C4295 1.387 . S
C4296 C4299 1.387 . S
H4297 C4293 0.950 . S
H4298 C4295 0.950 . S
C4299 C4290 1.390 . S
C4299 H4292 0.950 . S
C4299 C4296 1.387 . S
C4300 C4301 1.387 . S
C4300 H4304 0.950 . S
C4300 C4309 1.390 . S
C4301 C4300 1.387 . S
C4301 C4303 1.387 . S
H4302 C4309 0.950 . S
C4303 C4301 1.387 . S
C4303 C4305 1.390 . S
C4303 H4307 0.950 . S
H4304 C4300 0.950 . S
C4305 C4303 1.390 . S
C4305 C4306 1.387 . S
C4305 H4308 0.950 . S
C4306 C4305 1.387 . S
C4306 C4309 1.387 . S
H4307 C4303 0.950 . S
H4308 C4305 0.950 . S
C4309 C4300 1.390 . S
C4309 H4302 0.950 . S
C4309 C4306 1.387 . S
C4310 C4311 1.387 . S
C4310 H4314 0.950 . S
C4310 C4319 1.390 . S
C4311 C4310 1.387 . S
C4311 C4313 1.387 . S
H4312 C4319 0.950 . S
C4313 C4311 1.387 . S
C4313 C4315 1.390 . S
C4313 H4317 0.950 . S
H4314 C4310 0.950 . S
C4315 C4313 1.390 . S
C4315 C4316 1.387 . S
C4315 H4318 0.950 . S
C4316 C4315 1.387 . S
C4316 C4319 1.387 . S
H4317 C4313 0.950 . S
H4318 C4315 0.950 . S
C4319 C4310 1.390 . S
C4319 H4312 0.950 . S
C4319 C4316 1.387 . S
C4320 C4321 1.387 . S
C4320 H4324 0.950 . S
C4320 C4329 1.390 . S
C4321 C4320 1.387 . S
C4321 C4323 1.387 . S
H4322 C4329 0.950 . S
C4323 C4321 1.387 . S
C4323 C4325 1.390 . S
C4323 H4327 0.950 . S
H4324 C4320 0.950 . S
C4325 C4323 1.390 . S
C4325 C4326 1.387 . S
C4325 H4328 0.950 . S
C4326 C4325 1.387 . S
C4326 C4329 1.387 . S
H4327 C4323 0.950 . S
H4328 C4325 0.950 . S
C4329 C4320 1.390 . S
C4329 H4322 0.950 . S
C4329 C4326 1.387 . S
C4330 C4331 1.387 . S
C4330 H4334 0.950 . S
C4330 C4339 1.390 . S
C4331 C4330 1.387 . S
C4331 C4333 1.387 . S
H4332 C4339 0.950 . S
C4333 C4331 1.387 . S
C4333 C4335 1.390 . S
C4333 H4337 0.950 . S
H4334 C4330 0.950 . S
C4335 C4333 1.390 . S
C4335 C4336 1.387 . S
C4335 H4338 0.950 . S
C4336 C4335 1.387 . S
C4336 C4339 1.387 . S
H4337 C4333 0.950 . S
H4338 C4335 0.950 . S
C4339 C4330 1.390 . S
C4339 H4332 0.950 . S
C4339 C4336 1.387 . S
C4340 C4341 1.387 . S
C4340 H4344 0.950 . S
C4340 C4349 1.390 . S
C4341 C4340 1.387 . S
C4341 C4343 1.387 . S
H4342 C4349 0.950 . S
C4343 C4341 1.387 . S
C4343 C4345 1.390 . S
C4343 H4347 0.950 . S
H4344 C4340 0.950 . S
C4345 C4343 1.390 . S
C4345 C4346 1.387 . S
C4345 H4348 0.950 . S
C4346 C4345 1.387 . S
C4346 C4349 1.387 . S
H4347 C4343 0.950 . S
H4348 C4345 0.950 . S
C4349 C4340 1.390 . S
C4349 H4342 0.950 . S
C4349 C4346 1.387 . S
C4350 C4351 1.387 . S
C4350 H4354 0.950 . S
C4350 C4359 1.390 . S
C4351 C4350 1.387 . S
C4351 C4353 1.387 . S
H4352 C4359 0.950 . S
C4353 C4351 1.387 . S
C4353 C4355 1.390 . S
C4353 H4357 0.950 . S
H4354 C4350 0.950 . S
C4355 C4353 1.390 . S
C4355 C4356 1.387 . S
C4355 H4358 0.950 . S
C4356 C4355 1.387 . S
C4356 C4359 1.387 . S
H4357 C4353 0.950 . S
H4358 C4355 0.950 . S
C4359 C4350 1.390 . S
C4359 H4352 0.950 . S
C4359 C4356 1.387 . S
C4360 C4361 1.387 . S
C4360 H4364 0.950 . S
C4360 C4369 1.390 . S
C4361 C4360 1.387 . S
C4361 C4363 1.387 . S
H4362 C4369 0.950 . S
C4363 C4361 1.387 . S
C4363 C4365 1.390 . S
C4363 H4367 0.950 . S
H4364 C4360 0.950 . S
C4365 C4363 1.390 . S
C4365 C4366 1.387 . S
C4365 H4368 0.950 . S
C4366 C4365 1.387 . S
C4366 C4369 1.387 . S
H4367 C4363 0.950 . S
H4368 C4365 0.950 . S
C4369 C4360 1.390 . S
C4369 H4362 0.950 . S
C4369 C4366 1.387 . S
C4370 C4371 1.387 . S
C4370 H4374 0.950 . S
C4370 C4379 1.390 . S
C4371 C4370 1.387 . S
C4371 C4373 1.387 . S
H4372 C4379 0.950 . S
C4373 C4371 1.387 . S
C4373 C4375 1.390 . S
C4373 H4377 0.950 . S
H4374 C4370 0.950 . S
C4375 C4373 1.390 . S
C4375 C4376 1.387 . S
C4375 H4378 0.950 . S
C4376 C4375 1.387 . S
C4376 C4379 1.387 . S
H4377 C4373 0.950 . S
H4378 C4375 0.950 . S
C4379 C4370 1.390 . S
C4379 H4372 0.950 . S
C4379 C4376 1.387 . S
C4380 C4381 1.387 . S
C4380 H4384 0.950 . S
C4380 C4389 1.390 . S
C4381 C4380 1.387 . S
C4381 C4383 1.387 . S
H4382 C4389 0.950 . S
C4383 C4381 1.387 . S
C4383 C4385 1.390 . S
C4383 H4387 0.950 . S
H4384 C4380 0.950 . S
C4385 C4383 1.390 . S
C4385 C4386 1.387 . S
C4385 H4388 0.950 . S
C4386 C4385 1.387 . S
C4386 C4389 1.387 . S
H4387 C4383 0.950 . S
H4388 C4385 0.950 . S
C4389 C4380 1.390 . S
C4389 H4382 0.950 . S
C4389 C4386 1.387 . S
C4390 C4391 1.387 . S
C4390 H4394 0.950 . S
C4390 C4399 1.390 . S
C4391 C4390 1.387 . S
C4391 C4393 1.387 . S
H4392 C4399 0.950 . S
C4393 C4391 1.387 . S
C4393 C4395 1.390 . S
C4393 H4397 0.950 . S
H4394 C4390 0.950 . S
C4395 C4393 1.390 . S
C4395 C4396 1.387 . S
C4395 H4398 0.950 . S
C4396 C4395 1.387 . S
C4396 C4399 1.387 . S
H4397 C4393 0.950 . S
H4398 C4395 0.950 . S
C4399 C4390 1.390 . S
C4399 H4392 0.950 . S
C4399 C4396 1.387 . S
C4400 C4401 1.387 . S
C4400 H4404 0.950 . S
C4400 C4409 1.390 . S
C4401 C4400 1.387 . S
C4401 C4403 1.387 . S
H4402 C4409 0.950 . S
C4403 C4401 1.387 . S
C4403 C4405 1.390 . S
C4403 H4407 0.950 . S
H4404 C4400 0.950 . S
C4405 C4403 1.390 . S
C4405 C4406 1.387 . S
C4405 H4408 0.950 . S
C4406 C4405 1.387 . S
C4406 C4409 1.387 . S
H4407 C4403 0.950 . S
H4408 C4405 0.950 . S
C4409 C4400 1.390 . S
C4409 H4402 0.950 . S
C4409 C4406 1.387 . S
C4410 C4411 1.387 . S
C4410 H4414 0.950 . S
C4410 C4419 1.390 . S
C4411 C4410 1.387 . S
C4411 C4413 1.387 . S
H4412 C4419 0.950 . S
C4413 C4411 1.387 . S
C4413 C4415 1.390 . S
C4413 H4417 0.950 . S
H4414 C4410 0.950 . S
C4415 C4413 1.390 . S
C4415 C4416 1.387 . S
C4415 H4418 0.950 . S
C4416 C4415 1.387 . S
C4416 C4419 1.387 . S
H4417 C4413 0.950 . S
H4418 C4415 0.950 . S
C4419 C4410 1.390 . S
C4419 H4412 0.950 . S
C4419 C4416 1.387 . S
C4420 C4421 1.387 . S
C4420 H4424 0.950 . S
C4420 C4429 1.390 . S
C4421 C4420 1.387 . S
C4421 C4423 1.387 . S
H4422 C4429 0.950 . S
C4423 C4421 1.387 . S
C4423 C4425 1.390 . S
C4423 H4427 0.950 . S
H4424 C4420 0.950 . S
C4425 C4423 1.390 . S
C4425 C4426 1.387 . S
C4425 H4428 0.950 . S
C4426 C4425 1.387 . S
C4426 C4429 1.387 . S
H4427 C4423 0.950 . S
H4428 C4425 0.950 . S
C4429 C4420 1.390 . S
C4429 H4422 0.950 . S
C4429 C4426 1.387 . S
C4430 C4431 1.387 . S
C4430 H4434 0.950 . S
C4430 C4439 1.390 . S
C4431 C4430 1.387 . S
C4431 C4433 1.387 . S
H4432 C4439 0.950 . S
C4433 C4431 1.387 . S
C4433 C4435 1.390 . S
C4433 H4437 0.950 . S
H4434 C4430 0.950 . S
C4435 C4433 1.390 . S
C4435 C4436 1.387 . S
C4435 H4438 0.950 . S
C4436 C4435 1.387 . S
C4436 C4439 1.387 . S
H4437 C4433 0.950 . S
H4438 C4435 0.950 . S
C4439 C4430 1.390 . S
C4439 H4432 0.950 . S
C4439 C4436 1.387 . S
C4440 C4441 1.387 . S
C4440 H4444 0.950 . S
C4440 C4449 1.390 . S
C4441 C4440 1.387 . S
C4441 C4443 1.387 . S
H4442 C4449 0.950 . S
C4443 C4441 1.387 . S
C4443 C4445 1.390 . S
C4443 H4447 0.950 . S
H4444 C4440 0.950 . S
C4445 C4443 1.390 . S
C4445 C4446 1.387 . S
C4445 H4448 0.950 . S
C4446 C4445 1.387 . S
C4446 C4449 1.387 . S
H4447 C4443 0.950 . S
H4448 C4445 0.950 . S
C4449 C4440 1.390 . S
C4449 H4442 0.950 . S
C4449 C4446 1.387 . S
C4450 C4451 1.387 . S
C4450 H4454 0.950 . S
C4450 C4459 1.390 . S
C4451 C4450 1.387 . S
C4451 C4453 1.387 . S
H4452 C4459 0.950 . S
C4453 C4451 1.387 . S
C4453 C4455 1.390 . S
C4453 H4457 0.950 . S
H4454 C4450 0.950 . S
C4455 C4453 1.390 . S
C4455 C4456 1.387 . S
C4455 H4458 0.950 . S
C4456 C4455 1.387 . S
C4456 C4459 1.387 . S
H4457 C4453 0.950 . S
H4458 C4455 0.950 . S
C4459 C4450 1.390 . S
C4459 H4452 0.950 . S
C4459 C4456 1.387 . S
C4460 C4461 1.387 . S
C4460 H4464 0.950 . S
C4460 C4469 1.390 . S
C4461 C4460 1.387 . S
C4461 C4463 1.387 . S
H4462 C4469 0.950 . S
C4463 C4461 1.387 . S
C4463 C4465 1.390 . S
C4463 H4467 0.950 . S
H4464 C4460 0.950 . S
C4465 C4463 1.390 . S
C4465 C4466 1.387 . S
C4465 H4468 0.950 . S
C4466 C4465 1.387 . S
C4466 C4469 1.387 . S
H4467 C4463 0.950 . S
H4468 C4465 0.950 . S
C4469 C4460 1.390 . S
C4469 H4462 0.950 . S
C4469 C4466 1.387 . S
C4470 C4471 1.387 . S
C4470 H4474 0.950 . S
C4470 C4479 1.390 . S
C4471 C4470 1.387 . S
C4471 C4473 1.387 . S
H4472 C4479 0.950 . S
C4473 C4471 1.387 . S
C4473 C4475 1.390 . S
C4473 H4477 0.950 . S
H4474 C4470 0.950 . S
C4475 C4473 1.390 . S
C4475 C4476 1.387 . S
C4475 H4478 0.950 . S
C4476 C4475 1.387 . S
C4476 C4479 1.387 . S
H4477 C4473 0.950 . S
H4478 C4475 0.950 . S
C4479 C4470 1.390 . S
C4479 H4472 0.950 . S
C4479 C4476 1.387 . S
C4480 C4481 1.387 . S
C4480 H4484 0.950 . S
C4480 C4489 1.390 . S
C4481 C4480 1.387 . S
C4481 C4483 1.387 . S
H4482 C4489 0.950 . S
C4483 C4481 1.387 . S
C4483 C4485 1.390 . S
C4483 H4487 0.950 . S
H4484 C4480 0.950 . S
C4485 C4483 1.390 . S
C4485 C4486 1.387 . S
C4485 H4488 0.950 . S
C4486 C4485 1.387 . S
C4486 C4489 1.387 . S
H4487 C4483 0.950 . S
H4488 C4485 0.950 . S
C4489 C4480 1.390 . S
C4489 H4482 0.950 . S
C4489 C4486 1.387 . S
C4490 C4491 1.387 . S
C4490 H4494 0.950 . S
C4490 C4499 1.390 . S
C4491 C4490 1.387 . S
C4491 C4493 1.387 . S
H4492 C4499 0.950 . S
C4493 C4491 1.387 . S
C4493 C4495 1.390 . S
C4493 H4497 0.950 . S
H4494 C4490 0.950 . S
C4495 C4493 1.390 . S
C4495 C4496 1.387 . S
C4495 H4498 0.950 . S
C4496 C4495 1.387 . S
C4496 C4499 1.387 . S
H4497 C4493 0.950 . S
H4498 C4495 0.950 . S
C4499 C4490 1.390 . S
C4499 H4492 0.950 . S
C4499 C4496 1.387 . S
C4500 C4501 1.387 . S
C4500 H4504 0.950 . S
C4500 C4509 1.390 . S
C4501 C4500 1.387 . S
C4501 C4503 1.387 . S
H4502 C4509 0.950 . S
C4503 C4501 1.387 . S
C4503 C4505 1.390 . S
C4503 H4507 0.950 . S
H4504 C4500 0.950 . S
C4505 C4503 1.390 . S
C4505 C4506 1.387 . S
C4505 H4508 0.950 . S
C4506 C4505 1.387 . S
C4506 C4509 1.387 . S
H4507 C4503 0.950 . S
H4508 C4505 0.950 . S
C4509 C4500 1.390 . S
C4509 H4502 0.950 . S
C4509 C4506 1.387 . S
C4510 C4511 1.387 . S
C4510 H4514 0.950 . S
C4510 C4519 1.390 . S
C4511 C4510 1.387 . S
C4511 C4513 1.387 . S
H4512 C4519 0.950 . S
C4513 C4511 1.387 . S
C4513 C4515 1.390 . S
C4513 H4517 0.950 . S
H4514 C4510 0.950 . S
C4515 C4513 1.390 . S
C4515 C4516 1.387 . S
C4515 H4518 0.950 . S
C4516 C4515 1.387 . S
C4516 C4519 1.387 . S
H4517 C4513 0.950 . S
H4518 C4515 0.950 . S
C4519 C4510 1.390 . S
C4519 H4512 0.950 . S
C4519 C4516 1.387 . S
C4520 C4521 1.387 . S
C4520 H4524 0.950 . S
C4520 C4529 1.390 . S
C4521 C4520 1.387 . S
C4521 C4523 1.387 . S
H4522 C4529 0.950 . S
C4523 C4521 1.387 . S
C4523 C4525 1.390 . S
C4523 H4527 0.950 . S
H4524 C4520 0.950 . S
C4525 C4523 1.390 . S
C4525 C4526 1.387 . S
C4525 H4528 0.950 . S
C4526 C4525 1.387 . S
C4526 C4529 1.387 . S
H4527 C4523 0.950 . S
H4528 C4525 0.950 . S
C4529 C4520 1.390 . S
C4529 H4522 0.950 . S
C4529 C4526 1.387 . S
C4530 C4531 1.387 . S
C4530 H4534 0.950 . S
C4530 C4539 1.390 . S
C4531 C4530 1.387 . S
C4531 C4533 1.387 . S
H4532 C4539 0.950 . S
C4533 C4531 1.387 . S
C4533 C4535 1.390 . S
C4533 H4537 0.950 . S
H4534 C4530 0.950 . S
C4535 C4533 1.390 . S
C4535 C4536 1.387 . S
C4535 H4538 0.950 . S
C4536 C4535 1.387 . S
C4536 C4539 1.387 . S
H4537 C4533 0.950 . S
H4538 C4535 0.950 . S
C4539 C4530 1.390 . S
C4539 H4532 0.950 . S
C4539 C4536 1.387 . S
C4540 C4541 1.387 . S
C4540 H4544 0.950 . S
C4540 C4549 1.390 . S
C4541 C4540 1.387 . S
C4541 C4543 1.387 . S
H4542 C4549 0.950 . S
C4543 C4541 1.387 . S
C4543 C4545 1.390 . S
C4543 H4547 0.950 . S
H4544 C4540 0.950 . S
C4545 C4543 1.390 . S
C4545 C4546 1.387 . S
C4545 H4548 0.950 . S
C4546 C4545 1.387 . S
C4546 C4549 1.387 . S
H4547 C4543 0.950 . S
H4548 C4545 0.950 . S
C4549 C4540 1.390 . S
C4549 H4542 0.950 . S
C4549 C4546 1.387 . S
C4550 C4551 1.387 . S
C4550 H4554 0.950 . S
C4550 C4559 1.390 . S
C4551 C4550 1.387 . S
C4551 C4553 1.387 . S
H4552 C4559 0.950 . S
C4553 C4551 1.387 . S
C4553 C4555 1.390 . S
C4553 H4557 0.950 . S
H4554 C4550 0.950 . S
C4555 C4553 1.390 . S
C4555 C4556 1.387 . S
C4555 H4558 0.950 . S
C4556 C4555 1.387 . S
C4556 C4559 1.387 . S
H4557 C4553 0.950 . S
H4558 C4555 0.950 . S
C4559 C4550 1.390 . S
C4559 H4552 0.950 . S
C4559 C4556 1.387 . S
C4560 C4561 1.387 . S
C4560 H4564 0.950 . S
C4560 C4569 1.390 . S
C4561 C4560 1.387 . S
C4561 C4563 1.387 . S
H4562 C4569 0.950 . S
C4563 C4561 1.387 . S
C4563 C4565 1.390 . S
C4563 H4567 0.950 . S
H4564 C4560 0.950 . S
C4565 C4563 1.390 . S
C4565 C4566 1.387 . S
C4565 H4568 0.950 . S
C4566 C4565 1.387 . S
C4566 C4569 1.387 . S
H4567 C4563 0.950 . S
H4568 C4565 0.950 . S
C4569 C4560 1.390 . S
C4569 H4562 0.950 . S
C4569 C4566 1.387 . S
C4570 C4571 1.387 . S
C4570 H4574 0.950 . S
C4570 C4579 1.390 . S
C4571 C4570 1.387 . S
C4571 C4573 1.387 . S
H4572 C4579 0.950 . S
C4573 C4571 1.387 . S
C4573 C4575 1.390 . S
C4573 H4577 0.950 . S
H4574 C4570 0.950 . S
C4575 C4573 1.390 . S
C4575 C4576 1.387 . S
C4575 H4578 0.950 . S
C4576 C4575 1.387 . S
C4576 C4579 1.387 . S
H4577 C4573 0.950 . S
H4578 C4575 0.950 . S
C4579 C4570 1.390 . S
C4579 H4572 0.950 . S
C4579 C4576 1.387 . S
C4580 C4581 1.387 . S
C4580 H4584 0.950 . S
C4580 C4589 1.390 . S
C4581 C4580 1.387 . S
C4581 C4583 1.387 . S
H4582 C4589 0.950 . S
C4583 C4581 1.387 . S
C4583 C4585 1.390 . S
C4583 H4587 0.950 . S
H4584 C4580 0.950 . S
C4585 C4583 1.390 . S
C4585 C4586 1.387 . S
C4585 H4588 0.950 . S
C4586 C4585 1.387 . S
C4586 C4589 1.387 . S
H4587 C4583 0.950 . S
H4588 C4585 0.950 . S
C4589 C4580 1.390 . S
C4589 H4582 0.950 . S
C4589 C4586 1.387 . S
C4590 C4591 1.387 . S
C4590 H4594 0.950 . S
C4590 C4599 1.390 . S
C4591 C4590 1.387 . S
C4591 C4593 1.387 . S
H4592 C4599 0.950 . S
C4593 C4591 1.387 . S
C4593 C4595 1.390 . S
C4593 H4597 0.950 . S
H4594 C4590 0.950 . S
C4595 C4593 1.390 . S
C4595 C4596 1.387 . S
C4595 H4598 0.950 . S
C4596 C4595 1.387 . S
C4596 C4599 1.387 . S
H4597 C4593 0.950 . S
H4598 C4595 0.950 . S
C4599 C4590 1.390 . S
C4599 H4592 0.950 . S
C4599 C4596 1.387 . S
C4600 C4601 1.387 . S
C4600 H4604 0.950 . S
C4600 C4609 1.390 . S
C4601 C4600 1.387 . S
C4601 C4603 1.387 . S
H4602 C4609 0.950 . S
C4603 C4601 1.387 . S
C4603 C4605 1.390 . S
C4603 H4607 0.950 . S
H4604 C4600 0.950 . S
C4605 C4603 1.390 . S
C4605 C4606 1.387 . S
C4605 H4608 0.950 . S
C4606 C4605 1.387 . S
C4606 C4609 1.387 . S
H4607 C4603 0.950 . S
H4608 C4605 0.950 . S
C4609 C4600 1.390 . S
C4609 H4602 0.950 . S
C4609 C4606 1.387 . S
C4610 C4611 1.387 . S
C4610 H4614 0.950 . S
C4610 C4619 1.390 . S
C4611 C4610 1.387 . S
C4611 C4613 1.387 . S
H4612 C4619 0.950 . S
C4613 C4611 1.387 . S
C4613 C4615 1.390 . S
C4613 H4617 0.950 . S
H4614 C4610 0.950 . S
C4615 C4613 1.390 . S
C4615 C4616 1.387 . S
C4615 H4618 0.950 . S
C4616 C4615 1.387 . S
C4616 C4619 1.387 . S
H4617 C4613 0.950 . S
H4618 C4615 0.950 . S
C4619 C4610 1.390 . S
C4619 H4612 0.950 . S
C4619 C4616 1.387 . S
C4620 C4621 1.387 . S
C4620 H4624 0.950 . S
C4620 C4629 1.390 . S
C4621 C4620 1.387 . S
C4621 C4623 1.387 . S
H4622 C4629 0.950 . S
C4623 C4621 1.387 . S
C4623 C4625 1.390 . S
C4623 H4627 0.950 . S
H4624 C4620 0.950 . S
C4625 C4623 1.390 . S
C4625 C4626 1.387 . S
C4625 H4628 0.950 . S
C4626 C4625 1.387 . S
C4626 C4629 1.387 . S
H4627 C4623 0.950 . S
H4628 C4625 0.950 . S
C4629 C4620 1.390 . S
C4629 H4622 0.950 . S
C4629 C4626 1.387 . S
C4630 C4631 1.387 . S
C4630 H4634 0.950 . S
C4630 C4639 1.390 . S
C4631 C4630 1.387 . S
C4631 C4633 1.387 . S
H4632 C4639 0.950 . S
C4633 C4631 1.387 . S
C4633 C4635 1.390 . S
C4633 H4637 0.950 . S
H4634 C4630 0.950 . S
C4635 C4633 1.390 . S
C4635 C4636 1.387 . S
C4635 H4638 0.950 . S
C4636 C4635 1.387 . S
C4636 C4639 1.387 . S
H4637 C4633 0.950 . S
H4638 C4635 0.950 . S
C4639 C4630 1.390 . S
C4639 H4632 0.950 . S
C4639 C4636 1.387 . S
C4640 C4641 1.387 . S
C4640 H4644 0.950 . S
C4640 C4649 1.390 . S
C4641 C4640 1.387 . S
C4641 C4643 1.387 . S
H4642 C4649 0.950 . S
C4643 C4641 1.387 . S
C4643 C4645 1.390 . S
C4643 H4647 0.950 . S
H4644 C4640 0.950 . S
C4645 C4643 1.390 . S
C4645 C4646 1.387 . S
C4645 H4648 0.950 . S
C4646 C4645 1.387 . S
C4646 C4649 1.387 . S
H4647 C4643 0.950 . S
H4648 C4645 0.950 . S
C4649 C4640 1.390 . S
C4649 H4642 0.950 . S
C4649 C4646 1.387 . S
C4650 C4651 1.387 . S
C4650 H4654 0.950 . S
C4650 C4659 1.390 . S
C4651 C4650 1.387 . S
C4651 C4653 1.387 . S
H4652 C4659 0.950 . S
C4653 C4651 1.387 . S
C4653 C4655 1.390 . S
C4653 H4657 0.950 . S
H4654 C4650 0.950 . S
C4655 C4653 1.390 . S
C4655 C4656 1.387 . S
C4655 H4658 0.950 . S
C4656 C4655 1.387 . S
C4656 C4659 1.387 . S
H4657 C4653 0.950 . S
H4658 C4655 0.950 . S
C4659 C4650 1.390 . S
C4659 H4652 0.950 . S
C4659 C4656 1.387 . S
C4660 C4661 1.387 . S
C4660 H4664 0.950 . S
C4660 C4669 1.390 . S
C4661 C4660 1.387 . S
C4661 C4663 1.387 . S
H4662 C4669 0.950 . S
C4663 C4661 1.387 . S
C4663 C4665 1.390 . S
C4663 H4667 0.950 . S
H4664 C4660 0.950 . S
C4665 C4663 1.390 . S
C4665 C4666 1.387 . S
C4665 H4668 0.950 . S
C4666 C4665 1.387 . S
C4666 C4669 1.387 . S
H4667 C4663 0.950 . S
H4668 C4665 0.950 . S
C4669 C4660 1.390 . S
C4669 H4662 0.950 . S
C4669 C4666 1.387 . S
C4670 C4671 1.387 . S
C4670 H4674 0.950 . S
C4670 C4679 1.390 . S
C4671 C4670 1.387 . S
C4671 C4673 1.387 . S
H4672 C4679 0.950 . S
C4673 C4671 1.387 . S
C4673 C4675 1.390 . S
C4673 H4677 0.950 . S
H4674 C4670 0.950 . S
C4675 C4673 1.390 . S
C4675 C4676 1.387 . S
C4675 H4678 0.950 . S
C4676 C4675 1.387 . S
C4676 C4679 1.387 . S
H4677 C4673 0.950 . S
H4678 C4675 0.950 . S
C4679 C4670 1.390 . S
C4679 H4672 0.950 . S
C4679 C4676 1.387 . S
C4680 C4681 1.387 . S
C4680 H4684 0.950 . S
C4680 C4689 1.390 . S
C4681 C4680 1.387 . S
C4681 C4683 1.387 . S
H4682 C4689 0.950 . S
C4683 C4681 1.387 . S
C4683 C4685 1.390 . S
C4683 H4687 0.950 . S
H4684 C4680 0.950 . S
C4685 C4683 1.390 . S
C4685 C4686 1.387 . S
C4685 H4688 0.950 . S
C4686 C4685 1.387 . S
C4686 C4689 1.387 . S
H4687 C4683 0.950 . S
H4688 C4685 0.950 . S
C4689 C4680 1.390 . S
C4689 H4682 0.950 . S
C4689 C4686 1.387 . S
C4690 C4691 1.387 . S
C4690 H4694 0.950 . S
C4690 C4699 1.390 . S
C4691 C4690 1.387 . S
C4691 C4693 1.387 . S
H4692 C4699 0.950 . S
C4693 C4691 1.387 . S
C4693 C4695 1.390 . S
C4693 H4697 0.950 . S
H4694 C4690 0.950 . S
C4695 C4693 1.390 . S
C4695 C4696 1.387 . S
C4695 H4698 0.950 . S
C4696 C4695 1.387 . S
C4696 C4699 1.387 . S
H4697 C4693 0.950 . S
H4698 C4695 0.950 . S
C4699 C4690 1.390 . S
C4699 H4692 0.950 . S
C4699 C4696 1.387 . S
C4700 C4701 1.387 . S
C4700 H4704 0.950 . S
C4700 C4709 1.390 . S
C4701 C4700 1.387 . S
C4701 C4703 1.387 . S
H4702 C4709 0.950 . S
C4703 C4701 1.387 . S
C4703 C4705 1.390 . S
C4703 H4707 0.950 . S
H4704 C4700 0.950 . S
C4705 C4703 1.390 . S
C4705 C4706 1.387 . S
C4705 H4708 0.950 . S
C4706 C4705 1.387 . S
C4706 C4709 1.387 . S
H4707 C4703 0.950 . S
H4708 C4705 0.950 . S
C4709 C4700 1.390 . S
C4709 H4702 0.950 . S
C4709 C4706 1.387 . S
C4710 C4711 1.387 . S
C4710 H4714 0.950 . S
C4710 C4719 1.390 . S
C4711 C4710 1.387 . S
C4711 C4713 1.387 . S
H4712 C4719 0.950 . S
C4713 C4711 1.387 . S
C4713 C4715 1.390 . S
C4713 H4717 0.950 . S
H4714 C4710 0.950 . S
C4715 C4713 1.390 . S
C4715 C4716 1.387 . S
C4715 H4718 0.950 . S
C4716 C4715 1.387 . S
C4716 C4719 1.387 . S
H4717 C4713 0.950 . S
H4718 C4715 0.950 . S
C4719 C4710 1.390 . S
C4719 H4712 0.950 . S
C4719 C4716 1.387 . S
C4720 C4721 1.387 . S
C4720 H4724 0.950 . S
C4720 C4729 1.390 . S
C4721 C4720 1.387 . S
C4721 C4723 1.387 . S
H4722 C4729 0.950 . S
C4723 C4721 1.387 . S
C4723 C4725 1.390 . S
C4723 H4727 0.950 . S
H4724 C4720 0.950 . S
C4725 C4723 1.390 . S
C4725 C4726 1.387 . S
C4725 H4728 0.950 . S
C4726 C4725 1.387 . S
C4726 C4729 1.387 . S
H4727 C4723 0.950 . S
H4728 C4725 0.950 . S
C4729 C4720 1.390 . S
C4729 H4722 0.950 . S
C4729 C4726 1.387 . S
C4730 C4731 1.387 . S
C4730 H4734 0.950 . S
C4730 C4739 1.390 . S
C4731 C4730 1.387 . S
C4731 C4733 1.387 . S
H4732 C4739 0.950 . S
C4733 C4731 1.387 . S
C4733 C4735 1.390 . S
C4733 H4737 0.950 . S
H4734 C4730 0.950 . S
C4735 C4733 1.390 . S
C4735 C4736 1.387 . S
C4735 H4738 0.950 . S
C4736 C4735 1.387 . S
C4736 C4739 1.387 . S
H4737 C4733 0.950 . S
H4738 C4735 0.950 . S
C4739 C4730 1.390 . S
C4739 H4732 0.950 . S
C4739 C4736 1.387 . S
C4740 C4741 1.387 . S
C4740 H4744 0.950 . S
C4740 C4749 1.390 . S
C4741 C4740 1.387 . S
C4741 C4743 1.387 . S
H4742 C4749 0.950 . S
C4743 C4741 1.387 . S
C4743 C4745 1.390 . S
C4743 H4747 0.950 . S
H4744 C4740 0.950 . S
C4745 C4743 1.390 . S
C4745 C4746 1.387 . S
C4745 H4748 0.950 . S
C4746 C4745 1.387 . S
C4746 C4749 1.387 . S
H4747 C4743 0.950 . S
H4748 C4745 0.950 . S
C4749 C4740 1.390 . S
C4749 H4742 0.950 . S
C4749 C4746 1.387 . S
C4750 C4751 1.387 . S
C4750 H4754 0.950 . S
C4750 C4759 1.390 . S
C4751 C4750 1.387 . S
C4751 C4753 1.387 . S
H4752 C4759 0.950 . S
C4753 C4751 1.387 . S
C4753 C4755 1.390 . S
C4753 H4757 0.950 . S
H4754 C4750 0.950 . S
C4755 C4753 1.390 . S
C4755 C4756 1.387 . S
C4755 H4758 0.950 . S
C4756 C4755 1.387 . S
C4756 C4759 1.387 . S
H4757 C4753 0.950 . S
H4758 C4755 0.950 . S
C4759 C4750 1.390 . S
C4759 H4752 0.950 . S
C4759 C4756 1.387 . S
C4760 C4761 1.387 . S
C4760 H4764 0.950 . S
C4760 C4769 1.390 . S
C4761 C4760 1.387 . S
C4761 C4763 1.387 . S
H4762 C4769 0.950 . S
C4763 C4761 1.387 . S
C4763 C4765 1.390 . S
C4763 H4767 0.950 . S
H4764 C4760 0.950 . S
C4765 C4763 1.390 . S
C4765 C4766 1.387 . S
C4765 H4768 0.950 . S
C4766 C4765 1.387 . S
C4766 C4769 1.387 . S
H4767 C4763 0.950 . S
H4768 C4765 0.950 . S
C4769 C4760 1.390 . S
C4769 H4762 0.950 . S
C4769 C4766 1.387 . S
C4770 C4771 1.387 . S
C4770 H4774 0.950 . S
C4770 C4779 1.390 . S
C4771 C4770 1.387 . S
C4771 C4773 1.387 . S
H4772 C4779 0.950 . S
C4773 C4771 1.387 . S
C4773 C4775 1.390 . S
C4773 H4777 0.950 . S
H4774 C4770 0.950 . S
C4775 C4773 1.390 . S
C4775 C4776 1.387 . S
C4775 H4778 0.950 . S
C4776 C4775 1.387 . S
C4776 C4779 1.387 . S
H4777 C4773 0.950 . S
H4778 C4775 0.950 . S
C4779 C4770 1.390 . S
C4779 H4772 0.950 . S
C4779 C4776 1.387 . S
C4780 C4781 1.387 . S
C4780 H4784 0.950 . S
C4780 C4789 1.390 . S
C4781 C4780 1.387 . S
C4781 C4783 1.387 . S
H4782 C4789 0.950 . S
C4783 C4781 1.387 . S
C4783 C4785 1.390 . S
C4783 H4787 0.950 . S
H4784 C4780 0.950 . S
C4785 C4783 1.390 . S
C4785 C4786 1.387 . S
C4785 H4788 0.950 . S
C4786 C4785 1.387 . S
C4786 C4789 1.387 . S
H4787 C4783 0.950 . S
H4788 C4785 0.950 . S
C4789 C4780 1.390 . S
C4789 H4782 0.950 . S
C4789 C4786 1.387 . S
C4790 C4791 1.387 . S
C4790 H4794 0.950 . S
C4790 C4799 1.390 . S
C4791 C4790 1.387 . S
C4791 C4793 1.387 . S
H4792 C4799 0.950 . S
C4793 C4791 1.387 . S
C4793 C4795 1.390 . S
C4793 H4797 0.950 . S
H4794 C4790 0.950 . S
C4795 C4793 1.390 . S
C4795 C4796 1.387 . S
C4795 H4798 0.950 . S
C4796 C4795 1.387 . S
C4796 C4799 1.387 . S
H4797 C4793 0.950 . S
H4798 C4795 0.950 . S
C4799 C4790 1.390 . S
C4799 H4792 0.950 . S
C4799 C4796 1.387 . S
C1921 C1502 0.937 . S
C1926 C9 0.962 . S
C1931 C482 0.919 . S
C1936 C29 0.973 . S
C1941 C48 1.155 . S
C1946 C1462 1.136 . S
C1951 C69 1.499 . S
C1956 C539 1.449 . S
C1961 C89 1.446 . S
C1966 C1559 1.414 . S
C1971 C619 1.493 . S
C1976 C108 1.538 . S
C1981 C128 1.013 . S
C1986 C1582 0.968 . S
C1991 C149 0.863 . S
C1996 C562 0.847 . S
C2001 C169 1.057 . S
C2006 C1802 1.023 . S
C2011 C862 1.040 . S
C2016 C189 1.070 . S
C2021 C882 1.053 . S
C2026 C209 1.107 . S
C2031 C839 1.346 . S
C2036 C229 1.353 . S
C2041 C249 1.093 . S
C2046 C1882 1.086 . S
C2051 C269 0.941 . S
C2056 C1762 0.930 . S
C2061 C1902 1.087 . S
C2066 C289 1.135 . S
C2071 C309 1.050 . S
C2076 C1862 0.999 . S
C2081 C329 1.056 . S
C2086 C1622 1.009 . S
C2091 C782 0.997 . S
C2096 C348 1.037 . S
C2101 C1682 1.076 . S
C2106 C369 1.117 . S
C2111 C389 1.190 . S
C2116 C742 1.144 . S
C2121 C409 1.107 . S
C2126 C762 1.054 . S
C2131 C429 1.073 . S
C2136 C1662 1.049 . S
C2141 C449 0.837 . S
C2146 C1602 0.827 . S
C2151 C1642 1.065 . S
C2156 C469 1.114 . S
C2161 C488 0.963 . S
C2166 C1021 0.942 . S
C2171 C508 0.975 . S
C2176 C1 0.925 . S
C2181 C529 1.155 . S
C2186 C981 1.135 . S
C2191 C58 1.449 . S
C2196 C548 1.499 . S
C2201 C1078 1.411 . S
C2206 C568 1.446 . S
C2211 C589 1.537 . S
C2216 C138 1.492 . S
C2221 C1101 0.972 . S
C2226 C609 1.018 . S
C2231 C628 0.862 . S
C2236 C81 0.840 . S
C2241 C648 1.059 . S
C2246 C1321 1.021 . S
C2251 C668 1.069 . S
C2256 C381 1.039 . S
C2261 C688 1.107 . S
C2266 C401 1.058 . S
C2271 C358 1.346 . S
C2276 C708 1.353 . S
C2281 C1401 1.086 . S
C2286 C728 1.093 . S
C2291 C748 0.941 . S
C2296 C1281 0.930 . S
C2301 C768 1.136 . S
C2306 C1421 1.091 . S
C2311 C1381 0.999 . S
C2316 C788 1.050 . S
C2321 C808 1.058 . S
C2326 C1141 1.007 . S
C2331 C829 1.033 . S
C2336 C301 0.993 . S
C2341 C1201 1.076 . S
C2346 C848 1.117 . S
C2351 C868 1.192 . S
C2356 C261 1.150 . S
C2361 C888 1.105 . S
C2366 C281 1.055 . S
C2371 C1181 1.049 . S
C2376 C908 1.073 . S
C2381 C1121 0.832 . S
C2386 C928 0.836 . S
C2391 C1161 1.069 . S
C2396 C948 1.117 . S
C2401 C969 0.962 . S
C2406 C542 0.942 . S
C2411 C1442 0.926 . S
C2416 C989 0.974 . S
C2421 C502 1.136 . S
C2426 C1008 1.155 . S
C2431 C1499 1.446 . S
C2436 C1029 1.499 . S
C2441 C1049 1.446 . S
C2446 C599 1.411 . S
C2451 C1068 1.537 . S
C2456 C1579 1.492 . S
C2461 C622 0.968 . S
C2466 C1088 1.013 . S
C2471 C1522 0.847 . S
C2476 C1109 0.863 . S
C2481 C842 1.022 . S
C2486 C1129 1.057 . S
C2491 C1149 1.070 . S
C2496 C1822 1.035 . S
C2501 C1169 1.107 . S
C2506 C1842 1.053 . S
C2511 C1799 1.346 . S
C2516 C1189 1.353 . S
C2521 C922 1.086 . S
C2526 C1209 1.093 . S
C2531 C802 0.930 . S
C2536 C1229 0.940 . S
C2541 C942 1.093 . S
C2546 C1249 1.138 . S
C2551 C902 1.000 . S
C2556 C1269 1.050 . S
C2561 C662 1.003 . S
C2566 C1289 1.055 . S
C2571 C1742 0.993 . S
C2576 C1308 1.033 . S
C2581 C1329 1.117 . S
C2586 C722 1.076 . S
C2591 C1702 1.144 . S
C2596 C1349 1.190 . S
C2601 C1722 1.054 . S
C2606 C1369 1.107 . S
C2611 C1389 1.074 . S
C2616 C702 1.053 . S
C2621 C1409 0.838 . S
C2626 C642 0.829 . S
C2631 C1429 1.116 . S
C2636 C682 1.064 . S
C2641 C1448 0.962 . S
C2646 C61 0.937 . S
C2651 C961 0.919 . S
C2656 C1468 0.973 . S
C2661 C1489 1.155 . S
C2666 C21 1.136 . S
C2671 C1508 1.499 . S
C2676 C1018 1.446 . S
C2681 C1528 1.446 . S
C2686 C118 1.411 . S
C2691 C1098 1.492 . S
C2696 C1549 1.537 . S
C2701 C141 0.968 . S
C2706 C1569 1.013 . S
C2711 C1588 0.863 . S
C2716 C1041 0.847 . S
C2721 C361 1.020 . S
C2726 C1608 1.055 . S
C2731 C1341 1.040 . S
C2736 C1628 1.071 . S
C2741 C1648 1.108 . S
C2746 C1361 1.059 . S
C2751 C1668 1.351 . S
C2756 C1318 1.349 . S
C2761 C1688 1.093 . S
C2766 C441 1.086 . S
C2771 C1708 0.941 . S
C2776 C321 0.925 . S
C2781 C1728 1.138 . S
C2786 C461 1.093 . S
C2791 C421 1.005 . S
C2796 C1748 1.050 . S
C2801 C181 1.003 . S
C2806 C1768 1.055 . S
C2811 C1789 1.037 . S
C2816 C1261 0.999 . S
C2821 C1808 1.117 . S
C2826 C241 1.076 . S
C2831 C1828 1.190 . S
C2836 C1221 1.148 . S
C2841 C1241 1.058 . S
C2846 C1848 1.106 . S
C2851 C221 1.054 . S
C2856 C1868 1.074 . S
C2861 C161 0.828 . S
C2866 C1888 0.837 . S
C2871 C1908 1.116 . S
C2876 C201 1.063 . S
C2881 C19 1.742 . S
C2886 C419 1.742 . S
C2891 C1302 1.347 . S
C2896 C39 1.345 . S
C2901 C42 1.278 . S
C2906 C1339 1.280 . S
C2911 C79 1.795 . S
C2916 C1359 1.794 . S
C2921 C99 1.801 . S
C2926 C1439 1.799 . S
C2931 C102 1.347 . S
C2936 C439 1.363 . S
C2941 C1419 1.371 . S
C2946 C122 1.362 . S
C2951 C339 1.823 . S
C2956 C159 1.824 . S
C2961 C179 1.835 1_565 S
C2966 C319 1.843 . S
C2971 C259 1.716 . S
C2976 C199 1.719 . S
C2981 C219 1.595 . S
C2986 C279 1.593 . S
C2991 C239 1.758 . S
C2996 C299 1.760 . S
C3001 C342 1.347 . S
C3006 C999 1.346 . S
C3011 C379 1.279 . S
C3016 C1002 1.278 . S
C3021 C399 1.794 . S
C3026 C1039 1.795 . S
C3031 C459 1.371 . S
C3036 C1082 1.362 . S
C3041 C1059 1.802 . S
C3046 C479 1.800 . S
C3051 C498 1.742 . S
C3056 C898 1.742 . S
C3061 C518 1.345 . S
C3066 C1781 1.347 . S
C3071 C1818 1.279 . S
C3076 C521 1.278 . S
C3081 C1838 1.794 . S
C3086 C558 1.795 . S
C3091 C578 1.801 . S
C3096 C1918 1.799 . S
C3101 C581 1.346 . S
C3106 C918 1.362 . S
C3111 C1898 1.370 . S
C3116 C601 1.361 . S
C3121 C638 1.824 . S
C3126 C818 1.822 . S
C3131 C798 1.843 . S
C3136 C658 1.835 1_545 S
C3141 C738 1.717 . S
C3146 C678 1.719 . S
C3151 C758 1.594 . S
C3156 C698 1.595 . S
C3161 C718 1.758 . S
C3166 C778 1.760 . S
C3171 C821 1.347 . S
C3176 C1478 1.346 . S
C3181 C1481 1.278 . S
C3186 C858 1.279 . S
C3191 C1518 1.795 . S
C3196 C878 1.794 . S
C3201 C938 1.371 . S
C3206 C1561 1.362 . S
C3211 C1538 1.801 . S
C3216 C958 1.799 . S
C3221 C1379 1.743 . S
C3226 C979 1.742 . S
C3231 C1399 1.362 . S
C3236 C1062 1.346 . S
C3241 C1299 1.822 . S
C3246 C1119 1.824 . S
C3251 C1139 1.836 . S
C3256 C1279 1.844 . S
C3261 C1159 1.719 . S
C3266 C1219 1.716 . S
C3271 C1239 1.594 . S
C3276 C1179 1.595 . S
C3281 C1259 1.760 . S
C3286 C1199 1.758 . S
C3291 C1458 1.742 . S
C3296 C1858 1.742 . S
C3301 C1878 1.362 . S
C3306 C1541 1.347 . S
C3311 C1598 1.824 . S
C3316 C1778 1.823 . S
C3321 C1618 1.836 . S
C3326 C1758 1.843 . S
C3331 C1698 1.716 . S
C3336 C1638 1.719 . S
C3341 C1718 1.594 . S
C3346 C1658 1.595 . S
C3351 C1678 1.758 . S
C3356 C1738 1.760 . S
C3361 C18 1.468 . S
C3366 C869 1.480 . S
C3371 C889 1.220 . S
C3376 C38 1.210 . S
C3381 C828 0.794 . S
C3386 C41 0.806 . S
C3391 C1809 1.383 . S
C3396 C78 1.426 . S
C3401 C98 1.432 . S
C3406 C1869 1.381 1_554 S
C3411 C1889 0.963 . S
C3416 C101 0.946 . S
C3421 C121 0.856 . S
C3426 C1769 0.888 . S
C3431 C1909 1.418 . S
C3436 C158 1.404 . S
C3441 C528 1.351 . S
C3446 C178 1.437 . S
C3451 C1509 1.268 . S
C3456 C198 1.260 . S
C3461 C218 1.119 . S
C3466 C489 1.121 . S
C3471 C1469 1.201 . S
C3476 C238 1.209 . S
C3481 C258 1.220 . S
C3486 C608 1.131 . S
C3491 C278 1.020 . S
C3496 C1589 1.040 . S
C3501 C298 1.220 . S
C3506 C569 1.221 . S
C3511 C318 1.458 . S
C3516 C1548 1.380 . S
C3521 C338 1.513 . S
C3526 C1689 1.531 . S
C3531 C649 0.946 1_545 S
C3536 C341 0.881 . S
C3541 C1629 1.236 . S
C3546 C378 1.202 . S
C3551 C398 1.252 . S
C3556 C689 1.276 . S
C3561 C418 1.432 . S
C3566 C709 1.448 . S
C3571 C438 1.261 . S
C3576 C1729 1.292 . S
C3581 C458 1.075 . S
C3586 C1749 1.105 . S
C3591 C478 1.412 . S
C3596 C1709 1.436 . S
C3601 C388 1.480 . S
C3606 C499 1.466 . S
C3611 C519 1.210 . S
C3616 C408 1.218 . S
C3621 C349 0.789 . S
C3626 C522 0.801 . S
C3631 C559 1.428 . S
C3636 C1328 1.385 . S
C3641 C579 1.435 . S
C3646 C1388 1.383 1_556 S
C3651 C1408 0.959 . S
C3656 C582 0.939 . S
C3661 C1288 0.890 . S
C3666 C602 0.852 . S
C3671 C639 1.403 . S
C3676 C1428 1.416 . S
C3681 C49 1.348 . S
C3686 C659 1.434 . S
C3691 C679 1.257 . S
C3696 C1028 1.267 . S
C3701 C699 1.121 . S
C3706 C8 1.120 . S
C3711 C988 1.201 . S
C3716 C719 1.209 . S
C3721 C129 1.127 . S
C3726 C739 1.217 . S
C3731 C759 1.017 . S
C3736 C1108 1.040 . S
C3741 C779 1.223 . S
C3746 C88 1.222 . S
C3751 C1069 1.377 . S
C3756 C799 1.456 . S
C3761 C819 1.512 . S
C3766 C1208 1.529 . S
C3771 C822 0.885 . S
C3776 C168 0.946 1_565 S
C3781 C1148 1.236 . S
C3786 C859 1.203 . S
C3791 C879 1.252 . S
C3796 C208 1.277 . S
C3801 C228 1.448 . S
C3806 C899 1.431 . S
C3811 C919 1.260 . S
C3816 C1248 1.293 . S
C3821 C1268 1.105 . S
C3826 C939 1.076 . S
C3831 C1228 1.436 . S
C3836 C959 1.412 . S
C3841 C1829 1.480 . S
C3846 C978 1.467 . S
C3851 C1849 1.218 . S
C3856 C998 1.209 . S
C3861 C1001 0.801 . S
C3866 C1788 0.788 . S
C3871 C1038 1.427 . S
C3876 C849 1.387 . S
C3881 C1058 1.433 . S
C3886 C909 1.402 . S
C3891 C1061 0.939 . S
C3896 C929 0.959 . S
C3901 C809 0.908 . S
C3906 C1081 0.859 . S
C3911 C949 1.416 . S
C3916 C1118 1.403 . S
C3921 C1138 1.434 . S
C3926 C1488 1.349 . S
C3931 C1158 1.257 . S
C3936 C549 1.267 . S
C3941 C1178 1.119 . S
C3946 C1449 1.121 . S
C3951 C1198 1.212 . S
C3956 C509 1.203 . S
C3961 C1218 1.218 . S
C3966 C1568 1.127 . S
C3971 C1238 1.017 . S
C3976 C629 1.040 . S
C3981 C1258 1.223 . S
C3986 C1529 1.222 . S
C3991 C1278 1.458 . S
C3996 C588 1.380 . S
C4001 C729 1.531 1_565 S
C4006 C1298 1.512 . S
C4011 C1609 0.946 . S
C4016 C1301 0.880 . S
C4021 C669 1.236 . S
C4026 C1338 1.201 . S
C4031 C1649 1.276 . S
C4036 C1358 1.254 . S
C4041 C1378 1.430 . S
C4046 C1669 1.447 . S
C4051 C1398 1.260 . S
C4056 C769 1.293 . S
C4061 C1418 1.075 . S
C4066 C789 1.102 . S
C4071 C1438 1.412 . S
C4076 C749 1.436 . S
C4081 C1348 1.479 . S
C4086 C1459 1.467 . S
C4091 C1368 1.220 . S
C4096 C1479 1.210 . S
C4101 C1482 0.801 . S
C4106 C1309 0.788 . S
C4111 C1519 1.428 . S
C4116 C368 1.385 . S
C4121 C428 1.403 . S
C4126 C1539 1.435 . S
C4131 C1542 0.945 . S
C4136 C448 0.963 . S
C4141 C328 0.903 . S
C4146 C1562 0.853 . S
C4151 C468 1.416 . S
C4156 C1599 1.402 . S
C4161 C1619 1.436 . S
C4166 C1009 1.349 . S
C4171 C1639 1.260 . S
C4176 C68 1.268 . S
C4181 C1659 1.122 . S
C4186 C968 1.123 . S
C4191 C1679 1.212 . S
C4196 C28 1.205 . S
C4201 C1089 1.126 . S
C4206 C1699 1.218 . S
C4211 C148 1.040 . S
C4216 C1719 1.019 . S
C4221 C1048 1.223 . S
C4226 C1739 1.222 . S
C4231 C1759 1.456 . S
C4236 C109 1.376 . S
C4241 C248 1.530 1_545 S
C4246 C1779 1.511 . S
C4251 C1782 0.881 . S
C4256 C1128 0.946 . S
C4261 C1819 1.201 . S
C4266 C188 1.236 . S
C4271 C1168 1.276 . S
C4276 C1839 1.252 . S
C4281 C1859 1.432 . S
C4286 C1188 1.448 . S
C4291 C1879 1.262 . S
C4296 C288 1.292 . S
C4301 C308 1.105 . S
C4306 C1899 1.075 . S
C4311 C1919 1.414 . S
C4316 C268 1.437 . S
C4321 C2 1.829 . S
C4326 C182 1.841 . S
C4331 C202 1.970 . S
C4336 C22 1.941 . S
C4341 C59 2.042 . S
C4346 C222 1.973 . S
C4351 C162 1.644 . S
C4356 C62 1.639 . S
C4361 C302 1.682 . S
C4366 C82 1.696 . S
C4371 C242 1.998 . S
C4376 C119 2.081 . S
C4381 C139 2.150 . S
C4386 C262 2.076 . S
C4391 C142 1.888 . S
C4396 C282 1.902 . S
C4401 C322 1.786 . S
C4406 C362 1.800 . S
C4411 C1402 1.794 . S
C4416 C359 1.892 . S
C4421 C382 2.021 . S
C4426 C1422 2.004 . S
C4431 C1382 1.914 . S
C4436 C402 1.910 . S
C4441 C1362 1.908 . S
C4446 C422 1.912 . S
C4451 C442 1.793 . S
C4456 C1319 1.891 . S
C4461 C462 2.005 . S
C4466 C1342 2.023 . S
C4471 C661 1.838 . S
C4476 C481 1.825 . S
C4481 C501 1.944 . S
C4486 C681 1.972 . S
C4491 C538 2.043 . S
C4496 C701 1.974 . S
C4501 C641 1.643 . S
C4506 C541 1.639 . S
C4511 C781 1.687 . S
C4516 C561 1.700 . S
C4521 C721 1.998 . S
C4526 C598 2.081 . S
C4531 C741 2.076 . S
C4536 C618 2.150 . S
C4541 C761 1.902 . S
C4546 C621 1.888 . S
C4551 C841 1.798 . S
C4556 C801 1.784 . S
C4561 C838 1.891 . S
C4566 C1881 1.793 . S
C4571 C861 2.023 . S
C4576 C1901 2.006 . S
C4581 C881 1.910 . S
C4586 C1861 1.914 . S
C4591 C1841 1.909 . S
C4596 C901 1.913 . S
C4601 C1798 1.894 . S
C4606 C921 1.796 . S
C4611 C1821 2.025 . S
C4616 C941 2.008 . S
C4621 C962 1.829 . S
C4626 C1142 1.841 . S
C4631 C982 1.940 . S
C4636 C1162 1.969 . S
C4641 C1019 2.045 . S
C4646 C1182 1.977 . S
C4651 C1022 1.636 . S
C4656 C1122 1.640 . S
C4661 C1262 1.684 . S
C4666 C1042 1.697 . S
C4671 C1079 2.081 . S
C4676 C1202 1.999 . S
C4681 C1222 2.079 . S
C4686 C1099 2.152 . S
C4691 C1242 1.900 . S
C4696 C1102 1.886 . S
C4701 C1322 1.800 . S
C4706 C1282 1.787 . S
C4711 C1441 1.825 . S
C4716 C1621 1.837 . S
C4721 C1641 1.972 . S
C4726 C1461 1.944 . S
C4731 C1498 2.045 . S
C4736 C1661 1.977 . S
C4741 C1601 1.641 . S
C4746 C1501 1.637 . S
C4751 C1521 1.699 . S
C4756 C1741 1.686 . S
C4761 C1681 2.002 . S
C4766 C1558 2.083 . S
C4771 C1578 2.149 . S
C4776 C1701 2.076 . S
C4781 C1581 1.889 . S
C4786 C1721 1.903 . S
C4791 C1761 1.784 . S
C4796 C1801 1.798 . S
