# Generated by pormake.
# Topology umw, (4)-cn, num edge types: 1
# Building blocks:
#     Node 0, Type 0, BuildingBlock: TATPOV_clean_sbu_0, # of connection points: 4
#     Node 1, Type 0, BuildingBlock: TATPOV_clean_sbu_0, # of connection points: 4
#     Node 2, Type 0, BuildingBlock: TATPOV_clean_sbu_0, # of connection points: 4
#     Node 3, Type 0, BuildingBlock: TATPOV_clean_sbu_0, # of connection points: 4
#     Node 4, Type 0, BuildingBlock: TATPOV_clean_sbu_0, # of connection points: 4
#     Node 5, Type 0, BuildingBlock: TATPOV_clean_sbu_0, # of connection points: 4
#     Node 6, Type 0, BuildingBlock: TATPOV_clean_sbu_0, # of connection points: 4
#     Node 7, Type 0, BuildingBlock: TATPOV_clean_sbu_0, # of connection points: 4
#     Edge 8, Type (0, 0), BuildingBlock: TEMPAE_clean_linker_10, # of connection points: 2
#     Edge 9, Type (0, 0), BuildingBlock: TEMPAE_clean_linker_10, # of connection points: 2
#     Edge 10, Type (0, 0), BuildingBlock: TEMPAE_clean_linker_10, # of connection points: 2
#     Edge 11, Type (0, 0), BuildingBlock: TEMPAE_clean_linker_10, # of connection points: 2
#     Edge 12, Type (0, 0), BuildingBlock: TEMPAE_clean_linker_10, # of connection points: 2
#     Edge 13, Type (0, 0), BuildingBlock: TEMPAE_clean_linker_10, # of connection points: 2
#     Edge 14, Type (0, 0), BuildingBlock: TEMPAE_clean_linker_10, # of connection points: 2
#     Edge 15, Type (0, 0), BuildingBlock: TEMPAE_clean_linker_10, # of connection points: 2
#     Edge 16, Type (0, 0), BuildingBlock: TEMPAE_clean_linker_10, # of connection points: 2
#     Edge 17, Type (0, 0), BuildingBlock: TEMPAE_clean_linker_10, # of connection points: 2
#     Edge 18, Type (0, 0), BuildingBlock: TEMPAE_clean_linker_10, # of connection points: 2
#     Edge 19, Type (0, 0), BuildingBlock: TEMPAE_clean_linker_10, # of connection points: 2
#     Edge 20, Type (0, 0), BuildingBlock: TEMPAE_clean_linker_10, # of connection points: 2
#     Edge 21, Type (0, 0), BuildingBlock: TEMPAE_clean_linker_10, # of connection points: 2
#     Edge 22, Type (0, 0), BuildingBlock: TEMPAE_clean_linker_10, # of connection points: 2
#     Edge 23, Type (0, 0), BuildingBlock: TEMPAE_clean_linker_10, # of connection points: 2
# Relax obj value: 0.145
# Max RMSD: 0.109
# Mean RMSD: 0.109
data_MOF--net-umw--node1-TATPOV_clean_sbu_0--edge1-TEMPAE_clean_linker_10
_symmetry_space_group_name_H-M    P1
_symmetry_Int_Tables_number       1
_symmetry_cell_setting            triclinic
loop_
_symmetry_equiv_pos_as_xyz
'x, y, z'
_cell_length_a     44.06459
_cell_length_b     44.166174
_cell_length_c     25.582876
_cell_angle_alpha  89.659034
_cell_angle_beta   89.947735
_cell_angle_gamma 89.880012
loop_
_atom_site_label
_atom_site_type_symbol
_atom_site_fract_x
_atom_site_fract_y
_atom_site_fract_z
_atom_type_partial_charge
Zn0 Zn 0.4314 0.12504 0.24825 0.0
Zn1 Zn 0.38758 0.15991 0.26389 0.0
O2 O 0.40454 0.17431 0.191 0.0
O3 O 0.43456 0.1358 0.17324 0.0
O4 O 0.3534 0.18913 0.28283 0.0
O5 O 0.45923 0.14469 0.2986 0.0
O6 O 0.41798 0.16828 0.32412 0.0
C7 C 0.42229 0.16047 0.15956 0.0
C8 C 0.38003 0.09077 0.27273 0.0
O9 O 0.36729 0.11657 0.26638 0.0
O10 O 0.4086 0.08863 0.27078 0.0
C11 C 0.34274 0.1872 0.32906 0.0
O12 O 0.3531 0.16573 0.36008 0.0
C13 C 0.44602 0.16204 0.33045 0.0
Zn14 Zn 0.83893 0.43563 0.48576 0.0
Zn15 Zn 0.80704 0.38813 0.50986 0.0
O16 O 0.78554 0.40514 0.44233 0.0
O17 O 0.81069 0.4477 0.42948 0.0
O18 O 0.78057 0.35276 0.53376 0.0
O19 O 0.83424 0.4544 0.55575 0.0
O20 O 0.8035 0.41662 0.57361 0.0
C21 C 0.78945 0.42997 0.41733 0.0
C22 C 0.8751 0.3823 0.48234 0.0
O23 O 0.85093 0.37005 0.50028 0.0
O24 O 0.87507 0.4101 0.47017 0.0
C25 C 0.78313 0.34309 0.5806 0.0
O26 O 0.80413 0.35492 0.61061 0.0
C27 C 0.81605 0.44141 0.58676 0.0
Zn28 Zn 0.53568 0.83974 0.75201 0.0
Zn29 Zn 0.58194 0.80678 0.76287 0.0
O30 O 0.56082 0.78815 0.69666 0.0
O31 O 0.51662 0.81127 0.70249 0.0
O32 O 0.61782 0.77915 0.77951 0.0
O33 O 0.52289 0.83748 0.82621 0.0
O34 O 0.5568 0.80108 0.83074 0.0
C35 C 0.5333 0.79141 0.68177 0.0
C36 C 0.58786 0.87483 0.73696 0.0
O37 O 0.60026 0.85058 0.75431 0.0
O38 O 0.55975 0.87508 0.72704 0.0
C39 C 0.63064 0.78273 0.82367 0.0
O40 O 0.62176 0.80532 0.85323 0.0
C41 C 0.53517 0.81604 0.85136 0.0
Zn42 Zn 0.13308 0.53208 0.97834 0.0
Zn43 Zn 0.16338 0.58029 0.00244 0.0
O44 O 0.18586 0.56441 0.93525 0.0
O45 O 0.16162 0.52148 0.92183 0.0
O46 O 0.18735 0.61714 0.02611 0.0
O47 O 0.1388 0.51312 0.04828 0.0
O48 O 0.16775 0.55204 0.06696 0.0
C49 C 0.18254 0.53974 0.91 0.0
C50 C 0.09498 0.58378 0.9751 0.0
O51 O 0.1189 0.59662 -0.00762 0.0
O52 O 0.09575 0.55603 0.9632 0.0
C53 C 0.21482 0.6139 0.04056 0.0
O54 O 0.22744 0.587 0.03703 0.0
C55 C 0.15618 0.5266 0.07972 0.0
Zn56 Zn 0.42862 0.84339 0.28215 0.0
Zn57 Zn 0.38391 0.80954 0.26567 0.0
O58 O 0.39947 0.79505 0.33928 0.0
O59 O 0.43056 0.83254 0.35727 0.0
O60 O 0.34972 0.78083 0.24537 0.0
O61 O 0.45659 0.82295 0.23265 0.0
O62 O 0.41502 0.80021 0.20698 0.0
C63 C 0.41733 0.80842 0.37099 0.0
C64 C 0.37794 0.87875 0.25573 0.0
O65 O 0.36454 0.85331 0.26186 0.0
O66 O 0.40651 0.88015 0.2587 0.0
C67 C 0.34124 0.78156 0.19775 0.0
O68 O 0.35342 0.80183 0.16634 0.0
C69 C 0.44321 0.80571 0.20096 0.0
Zn70 Zn 0.12728 0.43436 0.54051 0.0
Zn71 Zn 0.1576 0.38574 0.51614 0.0
O72 O 0.17935 0.40096 0.58435 0.0
O73 O 0.15345 0.44262 0.60122 0.0
O74 O 0.18195 0.34897 0.49241 0.0
O75 O 0.13615 0.45472 0.47263 0.0
O76 O 0.16323 0.41454 0.45276 0.0
C77 C 0.17472 0.42449 0.61214 0.0
C78 C 0.08846 0.3832 0.53906 0.0
O79 O 0.11273 0.36976 0.5243 0.0
O80 O 0.08918 0.41107 0.54998 0.0
C81 C 0.21032 0.35167 0.48409 0.0
O82 O 0.22334 0.37778 0.49378 0.0
C83 C 0.15322 0.44083 0.44106 0.0
Zn84 Zn 0.53897 0.12508 0.7791 0.0
Zn85 Zn 0.58659 0.15592 0.76682 0.0
O86 O 0.56665 0.17582 0.83322 0.0
O87 O 0.52173 0.15413 0.82971 0.0
O88 O 0.62401 0.18116 0.74983 0.0
O89 O 0.52564 0.12847 0.70535 0.0
O90 O 0.56166 0.1626 0.69896 0.0
C91 C 0.53927 0.17351 0.8494 0.0
C92 C 0.58963 0.08749 0.79266 0.0
O93 O 0.60293 0.11129 0.7756 0.0
O94 O 0.56154 0.08839 0.80269 0.0
C95 C 0.62042 0.20901 0.73814 0.0
O96 O 0.59308 0.2208 0.74134 0.0
C97 C 0.53895 0.14891 0.67938 0.0
Zn98 Zn 0.84288 0.53446 0.04547 0.0
Zn99 Zn 0.81266 0.58302 0.01862 0.0
O100 O 0.79092 0.56877 0.08779 0.0
O101 O 0.81663 0.52716 0.10668 0.0
O102 O 0.78879 0.61977 -0.0069 0.0
O103 O 0.83372 0.51357 0.97855 0.0
O104 O 0.80679 0.55366 0.95684 0.0
C105 C 0.79548 0.54553 0.1168 0.0
C106 C 0.88182 0.58547 0.04063 0.0
O107 O 0.85756 0.59873 0.02527 0.0
O108 O 0.88108 0.55778 0.0534 0.0
C109 C 0.76029 0.61772 -0.01423 0.0
O110 O 0.74661 0.59219 -0.00231 0.0
C111 C 0.81668 0.52722 0.94639 0.0
C112 C 0.44702 0.18487 0.41981 0.0
C113 C 0.46252 0.17186 0.37764 0.0
C114 C 0.46128 0.18802 0.46852 0.0
C115 C 0.4915 0.17769 0.4749 0.0
C116 C 0.50814 0.16754 0.43108 0.0
C117 C 0.49346 0.16487 0.38288 0.0
C118 C 0.44304 0.19963 0.51418 0.0
C119 C 0.54041 0.15629 0.43613 0.0
C120 C 0.53409 0.18481 0.60348 0.0
C121 C 0.52754 0.15676 0.62685 0.0
C122 C 0.52196 0.19248 0.55433 0.0
C123 C 0.50342 0.17134 0.52801 0.0
C124 C 0.49702 0.14294 0.55141 0.0
C125 C 0.50899 0.13612 0.60061 0.0
C126 C 0.52879 0.22311 0.53073 0.0
C127 C 0.47775 0.1195 0.52427 0.0
H128 H 0.42324 0.19077 0.41584 0.0
H129 H 0.50582 0.1554 0.35014 0.0
H130 H 0.4353 0.18019 0.53838 0.0
H131 H 0.45707 0.21439 0.5394 0.0
H132 H 0.42271 0.21251 0.50108 0.0
H133 H 0.55169 0.15415 0.39747 0.0
H134 H 0.55405 0.17164 0.46087 0.0
H135 H 0.54035 0.13368 0.45529 0.0
H136 H 0.54822 0.20091 0.62396 0.0
H137 H 0.504 0.11435 0.61839 0.0
H138 H 0.5073 0.23546 0.52294 0.0
H139 H 0.54052 0.22039 0.49267 0.0
H140 H 0.54323 0.23714 0.55662 0.0
H141 H 0.45489 0.1289 0.51599 0.0
H142 H 0.47505 0.09851 0.54795 0.0
H143 H 0.48818 0.11338 0.48626 0.0
C144 C 0.78802 0.443 0.67212 0.0
C145 C 0.81045 0.45471 0.63876 0.0
C146 C 0.78394 0.45473 0.72256 0.0
C147 C 0.80307 0.4783 0.74002 0.0
C148 C 0.82512 0.49075 0.70595 0.0
C149 C 0.82839 0.47894 0.65569 0.0
C150 C 0.75987 0.4413 0.75766 0.0
C151 C 0.84625 0.51565 0.72334 0.0
C152 C 0.78985 0.52648 0.85996 0.0
C153 C 0.8099 0.5129 0.89565 0.0
C154 C 0.78572 0.51428 0.80991 0.0
C155 C 0.80238 0.48822 0.79526 0.0
C156 C 0.82148 0.47363 0.832 0.0
C157 C 0.82485 0.48603 0.88181 0.0
C158 C 0.76471 0.53007 0.77195 0.0
C159 C 0.83989 0.44596 0.81772 0.0
H160 H 0.77391 0.42444 0.6591 0.0
H161 H 0.84574 0.48818 0.63016 0.0
H162 H 0.77079 0.42846 0.78997 0.0
H163 H 0.74604 0.45952 0.77562 0.0
H164 H 0.74456 0.42575 0.73624 0.0
H165 H 0.86118 0.5238 0.69121 0.0
H166 H 0.83304 0.53515 0.73838 0.0
H167 H 0.86078 0.50727 0.75577 0.0
H168 H 0.77794 0.54705 0.87061 0.0
H169 H 0.84025 0.47523 0.90923 0.0
H170 H 0.74999 0.51341 0.75196 0.0
H171 H 0.77828 0.54177 0.74141 0.0
H172 H 0.75011 0.54712 0.79158 0.0
H173 H 0.82513 0.42844 0.80023 0.0
H174 H 0.85173 0.43592 0.85202 0.0
H175 H 0.85717 0.45223 0.78799 0.0
C176 C 0.44394 0.78228 0.11217 0.0
C177 C 0.45964 0.79522 0.15408 0.0
C178 C 0.4581 0.77868 0.06346 0.0
C179 C 0.48846 0.78843 0.05683 0.0
C180 C 0.5053 0.79837 0.10048 0.0
C181 C 0.49068 0.80155 0.14869 0.0
C182 C 0.43963 0.76733 0.01799 0.0
C183 C 0.53775 0.80891 0.09516 0.0
C184 C 0.53015 0.78036 0.92747 0.0
C185 C 0.5239 0.8085 0.90412 0.0
C186 C 0.51832 0.77302 0.97697 0.0
C187 C 0.50031 0.79456 0.00361 0.0
C188 C 0.49421 0.82306 0.98026 0.0
C189 C 0.50592 0.82958 0.93074 0.0
C190 C 0.52485 0.7423 0.00056 0.0
C191 C 0.47548 0.8469 0.00774 0.0
H192 H 0.42007 0.77686 0.11628 0.0
H193 H 0.50318 0.81094 0.18127 0.0
H194 H 0.43216 0.78687 -0.00627 0.0
H195 H 0.45339 0.75225 -0.00724 0.0
H196 H 0.41911 0.75488 0.03131 0.0
H197 H 0.54916 0.81069 0.13374 0.0
H198 H 0.55105 0.79334 0.07015 0.0
H199 H 0.53805 0.83158 0.07621 0.0
H200 H 0.54388 0.76393 0.90676 0.0
H201 H 0.50116 0.85143 0.91301 0.0
H202 H 0.50325 0.73011 0.00777 0.0
H203 H 0.53625 0.74483 0.03892 0.0
H204 H 0.53944 0.7282 0.97491 0.0
H205 H 0.4525 0.83798 0.01645 0.0
H206 H 0.473 0.86794 -0.01592 0.0
H207 H 0.48621 0.85282 0.04554 0.0
C208 C 0.14464 0.4812 0.37436 0.0
C209 C 0.16012 0.45484 0.3898 0.0
C210 C 0.14847 0.49348 0.32429 0.0
C211 C 0.16858 0.4793 0.28892 0.0
C212 C 0.18563 0.45372 0.30514 0.0
C213 C 0.18102 0.44159 0.3554 0.0
C214 C 0.12958 0.5206 0.30831 0.0
C215 C 0.20771 0.43838 0.26868 0.0
C216 C 0.14445 0.48816 0.14823 0.0
C217 C 0.16178 0.51307 0.13181 0.0
C218 C 0.14746 0.47617 0.19865 0.0
C219 C 0.16863 0.48914 0.23342 0.0
C220 C 0.18731 0.51333 0.21642 0.0
C221 C 0.18348 0.52522 0.16578 0.0
C222 C 0.12683 0.45059 0.21548 0.0
C223 C 0.2105 0.5273 0.25226 0.0
H224 H 0.12856 0.49171 0.40074 0.0
H225 H 0.19332 0.42143 0.36731 0.0
H226 H 0.1442 0.53855 0.29138 0.0
H227 H 0.11316 0.51385 0.27765 0.0
H228 H 0.1167 0.53028 0.34163 0.0
H229 H 0.22236 0.42174 0.28948 0.0
H230 H 0.195 0.4263 0.23778 0.0
H231 H 0.22236 0.45539 0.24899 0.0
H232 H 0.12768 0.47853 0.12221 0.0
H233 H 0.19718 0.54427 0.15312 0.0
H234 H 0.11141 0.45853 0.24689 0.0
H235 H 0.14035 0.43154 0.23171 0.0
H236 H 0.1128 0.44196 0.18276 0.0
H237 H 0.19877 0.54009 0.28355 0.0
H238 H 0.2259 0.54304 0.23108 0.0
H239 H 0.22433 0.50942 0.27151 0.0
C240 C 0.31095 0.20813 0.40171 0.0
C241 C 0.32069 0.20985 0.34947 0.0
C242 C 0.29175 0.23027 0.42314 0.0
C243 C 0.28181 0.25481 0.39163 0.0
C244 C 0.29087 0.25629 0.33848 0.0
C245 C 0.31024 0.23386 0.31806 0.0
C246 C 0.28278 0.22782 0.48 0.0
C247 C 0.28064 0.28197 0.30347 0.0
C248 C 0.21409 0.30109 0.43959 0.0
C249 C 0.22837 0.32642 0.46145 0.0
C250 C 0.23111 0.27778 0.41619 0.0
C251 C 0.26322 0.27962 0.41514 0.0
C252 C 0.27773 0.30499 0.43761 0.0
C253 C 0.26018 0.3281 0.46015 0.0
C254 C 0.21475 0.25125 0.39234 0.0
C255 C 0.3119 0.30771 0.43801 0.0
H256 H 0.3188 0.18971 0.42642 0.0
H257 H 0.31755 0.2354 0.27768 0.0
H258 H 0.29188 0.24745 0.50179 0.0
H259 H 0.25771 0.22844 0.48391 0.0
H260 H 0.29135 0.20669 0.49864 0.0
H261 H 0.28815 0.27895 0.26237 0.0
H262 H 0.25553 0.28389 0.3042 0.0
H263 H 0.28989 0.30367 0.3181 0.0
H264 H 0.18954 0.29967 0.44007 0.0
H265 H 0.27146 0.3475 0.47702 0.0
H266 H 0.2219 0.22993 0.4119 0.0
H267 H 0.22088 0.24927 0.35042 0.0
H268 H 0.18969 0.25339 0.39558 0.0
H269 H 0.322 0.28807 0.45895 0.0
H270 H 0.3197 0.32883 0.45711 0.0
H271 H 0.32074 0.30737 0.3974 0.0
C272 C 0.76168 0.31408 0.65656 0.0
C273 C 0.76129 0.32078 0.60282 0.0
C274 C 0.73998 0.29477 0.67927 0.0
C275 C 0.71737 0.28153 0.64751 0.0
C276 C 0.71736 0.28746 0.59298 0.0
C277 C 0.73921 0.3071 0.57133 0.0
C278 C 0.74072 0.28927 0.73758 0.0
C279 C 0.69383 0.27358 0.55766 0.0
C280 C 0.67324 0.21388 0.70145 0.0
C281 C 0.64595 0.2275 0.71729 0.0
C282 C 0.69666 0.2311 0.67853 0.0
C283 C 0.69286 0.26276 0.67179 0.0
C284 C 0.66558 0.27667 0.68858 0.0
C285 C 0.64247 0.2589 0.71082 0.0
C286 C 0.72529 0.21537 0.66086 0.0
C287 C 0.66072 0.31039 0.6828 0.0
H288 H 0.77857 0.32451 0.68136 0.0
H289 H 0.73875 0.31203 0.52978 0.0
H290 H 0.71968 0.29827 0.75564 0.0
H291 H 0.74151 0.26462 0.74605 0.0
H292 H 0.76054 0.30019 0.75649 0.0
H293 H 0.698 0.27891 0.51578 0.0
H294 H 0.69356 0.24862 0.56281 0.0
H295 H 0.67096 0.28208 0.56839 0.0
H296 H 0.6761 0.18962 0.70597 0.0
H297 H 0.62153 0.26968 0.72303 0.0
H298 H 0.74526 0.22525 0.68082 0.0
H299 H 0.72855 0.21894 0.61826 0.0
H300 H 0.7248 0.19064 0.66898 0.0
H301 H 0.67896 0.3228 0.70342 0.0
H302 H 0.63845 0.31781 0.69866 0.0
H303 H 0.66192 0.31697 0.64094 0.0
C304 C 0.75772 0.66735 0.93712 0.0
C305 C 0.74282 0.64307 0.96174 0.0
C306 C 0.74124 0.69074 0.91243 0.0
C307 C 0.70909 0.69008 0.91296 0.0
C308 C 0.69397 0.66579 0.93821 0.0
C309 C 0.71098 0.64254 0.96195 0.0
C310 C 0.75822 0.71607 0.88555 0.0
C311 C 0.65974 0.66439 0.94037 0.0
C312 C 0.66374 0.76288 0.89574 0.0
C313 C 0.65286 0.76024 0.84438 0.0
C314 C 0.6826 0.74061 0.91802 0.0
C315 C 0.69109 0.71506 0.88821 0.0
C316 C 0.68106 0.71271 0.83575 0.0
C317 C 0.66198 0.73526 0.81451 0.0
C318 C 0.6926 0.74397 0.97414 0.0
C319 C 0.68984 0.68597 0.80248 0.0
H320 H 0.7823 0.66787 0.93642 0.0
H321 H 0.69924 0.62395 -0.01904 0.0
H322 H 0.75151 0.71739 0.8438 0.0
H323 H 0.75219 0.73806 0.90357 0.0
H324 H 0.78322 0.71303 0.88779 0.0
H325 H 0.65144 0.64404 0.96169 0.0
H326 H 0.65069 0.68485 0.95998 0.0
H327 H 0.65032 0.66415 0.90019 0.0
H328 H 0.65689 0.78205 0.91926 0.0
H329 H 0.65379 0.73301 0.7748 0.0
H330 H 0.71767 0.74236 0.97691 0.0
H331 H 0.68303 0.72527 -0.00189 0.0
H332 H 0.68524 0.76585 -0.00874 0.0
H333 H 0.71485 0.68302 0.80246 0.0
H334 H 0.68196 0.6885 0.76144 0.0
H335 H 0.67986 0.66499 0.81916 0.0
C336 C 0.26333 0.63662 0.07287 0.0
C337 C 0.23208 0.63953 0.06344 0.0
C338 C 0.28 0.66018 0.09568 0.0
C339 C 0.26509 0.68734 0.11002 0.0
C340 C 0.23352 0.69042 0.10079 0.0
C341 C 0.21743 0.66657 0.07737 0.0
C342 C 0.31368 0.65606 0.10418 0.0
C343 C 0.21673 0.7189 0.11582 0.0
C344 C 0.30616 0.73697 0.20894 0.0
C345 C 0.32 0.75858 0.17637 0.0
C346 C 0.28753 0.71415 0.18809 0.0
C347 C 0.28282 0.71272 0.13334 0.0
C348 C 0.29627 0.73482 0.10045 0.0
C349 C 0.31453 0.75748 0.12233 0.0
C350 C 0.27338 0.69118 0.22455 0.0
C351 C 0.29207 0.73406 0.04188 0.0
H352 H 0.2749 0.61587 0.06221 0.0
H353 H 0.19327 0.66898 0.07057 0.0
H354 H 0.32636 0.67387 0.08263 0.0
H355 H 0.31915 0.65857 0.14624 0.0
H356 H 0.32187 0.63356 0.09098 0.0
H357 H 0.19207 0.71752 0.10713 0.0
H358 H 0.21966 0.72325 0.15818 0.0
H359 H 0.22633 0.73861 0.09447 0.0
H360 H 0.31015 0.73764 0.25071 0.0
H361 H 0.3251 0.774 0.09669 0.0
H362 H 0.28263 0.66834 0.21615 0.0
H363 H 0.2485 0.69021 0.21813 0.0
H364 H 0.27769 0.69644 0.2663 0.0
H365 H 0.30181 0.7128 0.02611 0.0
H366 H 0.30312 0.75353 0.0219 0.0
H367 H 0.26756 0.73424 0.03205 0.0
C368 C 0.33704 0.91601 0.27952 0.0
C369 C 0.36143 0.90755 0.24752 0.0
C370 C 0.32829 0.94669 0.28323 0.0
C371 C 0.34466 0.96905 0.25487 0.0
C372 C 0.36662 0.95983 0.21771 0.0
C373 C 0.37465 0.92923 0.21452 0.0
C374 C 0.30359 0.9553 0.32113 0.0
C375 C 0.38446 0.98256 0.1858 0.0
C376 C 0.3388 0.05456 0.2469 0.0
C377 C 0.36278 0.0624 0.28011 0.0
C378 C 0.32948 0.0241 0.24271 0.0
C379 C 0.34485 0.00134 0.27186 0.0
C380 C 0.36634 0.01 0.3101 0.0
C381 C 0.37496 0.04038 0.3137 0.0
C382 C 0.30529 0.01612 0.20356 0.0
C383 C 0.38312 -0.01317 0.34287 0.0
H384 H 0.32661 0.89925 0.30488 0.0
H385 H 0.39319 0.92257 0.18911 0.0
H386 H 0.31371 0.95956 0.36007 0.0
H387 H 0.29159 0.97619 0.30834 0.0
H388 H 0.28683 0.9367 0.3256 0.0
H389 H 0.3985 0.97155 0.1552 0.0
H390 H 0.36901 -0.001 0.16658 0.0
H391 H 0.39977 -0.00455 0.21192 0.0
H392 H 0.32918 0.07157 0.22104 0.0
H393 H 0.3932 0.04657 0.34001 0.0
H394 H 0.29264 -0.00446 0.21571 0.0
H395 H 0.31603 0.01162 0.16514 0.0
H396 H 0.28902 0.03514 0.19828 0.0
H397 H 0.36697 0.97079 0.3613 0.0
H398 H 0.39684 -0.00252 0.37417 0.0
H399 H 0.3986 0.97354 0.31752 0.0
C400 C 0.91191 0.34349 0.51761 0.0
C401 C 0.90469 0.3662 0.48109 0.0
C402 C 0.94241 0.33514 0.52655 0.0
C403 C 0.96592 0.35033 0.4991 0.0
C404 C 0.95827 0.3704 0.45777 0.0
C405 C 0.92779 0.37785 0.44909 0.0
C406 C 0.94947 0.31213 0.56858 0.0
C407 C 0.98234 0.38691 0.42671 0.0
C408 C 0.03456 0.38174 0.56698 0.0
C409 C 0.05835 0.36813 0.53918 0.0
C410 C 0.00428 0.37396 0.55778 0.0
C411 C -0.00256 0.35143 0.52044 0.0
C412 C 0.02151 0.33489 0.49712 0.0
C413 C 0.05182 0.34365 0.50636 0.0
C414 C 0.97962 0.39222 0.5841 0.0
C415 C 0.01539 0.30956 0.45937 0.0
H416 H 0.89415 0.334 0.54203 0.0
H417 H 0.92226 0.39485 0.41981 0.0
H418 H 0.97046 0.29928 0.55929 0.0
H419 H 0.95302 0.32388 0.60628 0.0
H420 H 0.93041 0.29597 0.57379 0.0
H421 H 0.97265 0.39969 0.39309 0.0
H422 H -0.00572 0.40316 0.45245 0.0
H423 H -0.00054 0.37075 0.41164 0.0
H424 H 0.03946 0.40016 0.5935 0.0
H425 H 0.07008 0.33268 0.48523 0.0
H426 H 0.96272 0.37703 0.60263 0.0
H427 H 0.96753 0.40619 0.55447 0.0
H428 H -0.01127 0.40756 0.61454 0.0
H429 H -0.00646 0.29811 0.46802 0.0
H430 H 0.03397 0.29252 0.46052 0.0
H431 H 0.01431 0.31885 0.41905 0.0
C432 C 0.62748 0.91085 0.77047 0.0
C433 C 0.60405 0.90425 0.73523 0.0
C434 C 0.63607 0.9411 0.77982 0.0
C435 C 0.62048 0.965 0.754 0.0
C436 C 0.5995 0.95802 0.71393 0.0
C437 C 0.59178 0.92778 0.70484 0.0
C438 C 0.65984 0.94742 0.82065 0.0
C439 C 0.58248 0.98255 0.68468 0.0
C440 C 0.59127 0.03407 0.82323 0.0
C441 C 0.60481 0.05745 0.79419 0.0
C442 C 0.59856 0.00369 0.81416 0.0
C443 C 0.6204 -0.00363 0.77555 0.0
C444 C 0.63705 0.01999 0.7511 0.0
C445 C 0.62887 0.0504 0.76037 0.0
C446 C 0.58035 0.97946 0.84186 0.0
C447 C 0.66167 0.01329 0.71188 0.0
H448 H 0.63738 0.89278 0.79373 0.0
H449 H 0.57415 0.92275 0.67665 0.0
H450 H 0.67252 0.96848 0.81149 0.0
H451 H 0.6487 0.9503 0.85921 0.0
H452 H 0.67615 0.92829 0.82404 0.0
H453 H 0.56898 0.97339 0.65172 0.0
H454 H 0.56676 -0.00573 0.71186 0.0
H455 H 0.59844 -0.00032 0.66896 0.0
H456 H 0.57313 0.0394 0.85038 0.0
H457 H 0.63975 0.06834 0.73819 0.0
H458 H 0.59559 0.962 0.85879 0.0
H459 H 0.56526 0.96807 0.81339 0.0
H460 H 0.56607 -0.01118 0.87374 0.0
H461 H 0.67354 -0.00826 0.72126 0.0
H462 H 0.67856 0.03191 0.7103 0.0
H463 H 0.65148 0.01118 0.67244 0.0
C464 C 0.93575 0.58762 0.06796 0.0
C465 C 0.91193 0.60042 0.03891 0.0
C466 C 0.96603 0.5948 0.05719 0.0
C467 C 0.97281 0.61578 0.01678 0.0
C468 C 0.94878 0.63171 -0.00804 0.0
C469 C 0.91846 0.62364 0.003 0.0
C470 C -0.00929 0.57734 0.0853 0.0
C471 C 0.95492 0.65544 0.95074 0.0
C472 C 0.05836 0.62315 0.0085 0.0
C473 C 0.06499 0.59916 0.97458 0.0
C474 C 0.02804 0.63175 0.01823 0.0
C475 C 0.00408 0.61557 -0.00576 0.0
C476 C 0.01099 0.59385 0.95548 0.0
C477 C 0.0413 0.58615 0.94589 0.0
C478 C 0.02173 0.65629 0.0575 0.0
C479 C -0.01363 0.57615 0.92824 0.0
H480 H 0.93082 0.57018 0.09675 0.0
H481 H 0.90017 0.63396 -0.01917 0.0
H482 H 0.00212 0.56183 0.05748 0.0
H483 H 0.00813 0.59299 0.10066 0.0
H484 H 0.98171 0.56364 0.11839 0.0
H485 H 0.93614 0.67223 0.94878 0.0
H486 H 0.97653 0.66751 0.95832 0.0
H487 H 0.95667 0.64446 0.91197 0.0
H488 H 0.07655 0.63369 0.0303 0.0
H489 H 0.0463 0.56813 0.91856 0.0
H490 H 0.01907 0.646 0.09688 0.0
H491 H 0.0005 0.66871 0.04796 0.0
H492 H 0.0408 0.67266 0.05926 0.0
H493 H 0.97489 0.56106 0.9569 0.0
H494 H -0.00454 0.56199 0.89605 0.0
H495 H 0.969 0.59168 0.91183 0.0
C496 C 0.49882 0.20451 0.88881 0.0
C497 C 0.5274 0.19081 0.89394 0.0
C498 C 0.48042 0.20958 0.93266 0.0
C499 C 0.49072 0.20008 -0.01755 0.0
C500 C 0.52122 0.19022 -0.01156 0.0
C501 C 0.53933 0.18572 0.94384 0.0
C502 C 0.44853 0.22119 0.92461 0.0
C503 C 0.53335 0.18048 0.04103 0.0
C504 C 0.44316 0.20362 0.10706 0.0
C505 C 0.43226 0.17384 0.10951 0.0
C506 C 0.46112 0.21335 0.06455 0.0
C507 C 0.46812 0.19274 0.024 0.0
C508 C 0.45497 0.16347 0.02461 0.0
C509 C 0.43733 0.15442 0.06739 0.0
C510 C 0.47428 0.24484 0.06516 0.0
C511 C 0.46119 0.14081 -0.01818 0.0
H512 H 0.48964 0.20849 0.85003 0.0
H513 H 0.56135 0.17494 0.94776 0.0
H514 H 0.43268 0.20172 0.92313 0.0
H515 H 0.44139 0.23591 0.9574 0.0
H516 H 0.44644 0.23409 0.88736 0.0
H517 H 0.55852 0.17879 0.04092 0.0
H518 H 0.52626 0.19658 0.07184 0.0
H519 H 0.52394 0.15792 0.05133 0.0
H520 H 0.43965 0.21853 0.14006 0.0
H521 H 0.42891 0.13138 0.06943 0.0
H522 H 0.47544 0.25468 0.02521 0.0
H523 H 0.49773 0.2438 0.08082 0.0
H524 H 0.46079 0.26018 0.09048 0.0
H525 H 0.45552 0.15072 0.9431 0.0
H526 H 0.44797 0.11961 -0.01302 0.0
H527 H 0.48569 0.13491 -0.01859 0.0
C528 C 0.79172 0.54182 0.212 0.0
C529 C 0.77736 0.53902 0.16362 0.0
C530 C 0.78312 0.52367 0.25458 0.0
C531 C 0.75939 0.50232 0.24845 0.0
C532 C 0.74221 0.50236 0.20167 0.0
C533 C 0.75169 0.52052 0.15933 0.0
C534 C 0.80201 0.52475 0.30379 0.0
C535 C 0.71591 0.48105 0.19422 0.0
C536 C 0.78293 0.43228 0.32228 0.0
C537 C 0.77113 0.43859 0.37174 0.0
C538 C 0.77632 0.45114 0.27945 0.0
C539 C 0.75724 0.47672 0.28654 0.0
C540 C 0.74189 0.48049 0.33469 0.0
C541 C 0.74943 0.4616 0.37718 0.0
C542 C 0.79305 0.44596 0.22872 0.0
C543 C 0.72024 0.50648 0.34323 0.0
H544 H 0.81186 0.5558 0.21487 0.0
H545 H 0.74086 0.51801 0.12155 0.0
H546 H 0.78724 0.52604 0.33879 0.0
H547 H 0.81573 0.50372 0.30715 0.0
H548 H 0.81769 0.54442 0.30404 0.0
H549 H 0.69974 0.49002 0.16462 0.0
H550 H 0.72452 0.45893 0.18011 0.0
H551 H 0.70359 0.47705 0.23147 0.0
H552 H 0.80009 0.41479 0.31843 0.0
H553 H 0.74059 0.46671 0.41572 0.0
H554 H 0.8108 0.46355 0.22379 0.0
H555 H 0.77734 0.44787 0.19505 0.0
H556 H 0.80416 0.42337 0.22764 0.0
H557 H 0.73324 0.52695 0.35424 0.0
H558 H 0.70402 0.50136 0.37535 0.0
H559 H 0.7073 0.51182 0.30712 0.0
C560 C 0.49112 0.76267 0.64301 0.0
C561 C 0.52035 0.77475 0.63747 0.0
C562 C 0.47248 0.75822 0.59934 0.0
C563 C 0.48324 0.76673 0.54931 0.0
C564 C 0.51417 0.77492 0.543 0.0
C565 C 0.5325 0.77879 0.58743 0.0
C566 C 0.44007 0.74836 0.60774 0.0
C567 C 0.52675 0.78358 0.49015 0.0
C568 C 0.43582 0.76462 0.42466 0.0
C569 C 0.4264 0.79492 0.42144 0.0
C570 C 0.45314 0.7543 0.46754 0.0
C571 C 0.46103 0.77486 0.50761 0.0
C572 C 0.44928 0.80477 0.50627 0.0
C573 C 0.43221 0.81437 0.46319 0.0
C574 C 0.46474 0.72216 0.46778 0.0
C575 C 0.45649 0.82742 0.54855 0.0
H576 H 0.48178 0.75945 0.68189 0.0
H577 H 0.55505 0.7883 0.5832 0.0
H578 H 0.42518 0.76865 0.60878 0.0
H579 H 0.43222 0.73377 0.57532 0.0
H580 H 0.43737 0.73589 0.64529 0.0
H581 H 0.55196 0.78402 0.49019 0.0
H582 H 0.51894 0.76757 0.45979 0.0
H583 H 0.51837 0.80648 0.47925 0.0
H584 H 0.43171 0.74966 0.39199 0.0
H585 H 0.4249 0.8378 0.46058 0.0
H586 H 0.46535 0.71262 0.50799 0.0
H587 H 0.48823 0.72181 0.45217 0.0
H588 H 0.45055 0.70734 0.44283 0.0
H589 H 0.45026 0.81813 0.58747 0.0
H590 H 0.44431 0.84924 0.54281 0.0
H591 H 0.48124 0.83204 0.54894 0.0
C592 C 0.22267 0.50872 0.8696 0.0
C593 C 0.20111 0.53191 0.86441 0.0
C594 C 0.22992 0.49003 0.82706 0.0
C595 C 0.21444 0.49422 0.77911 0.0
C596 C 0.19572 0.52011 0.77212 0.0
C597 C 0.18939 0.53876 0.815 0.0
C598 C 0.25127 0.46373 0.83543 0.0
C599 C 0.17894 0.52578 0.72155 0.0
C600 C 0.21868 0.44981 0.65307 0.0
C601 C 0.19287 0.43159 0.6585 0.0
C602 C 0.22851 0.46816 0.69454 0.0
C603 C 0.21155 0.46867 0.74158 0.0
C604 C 0.18753 0.44771 0.74883 0.0
C605 C 0.17857 0.42937 0.70712 0.0
C606 C 0.25506 0.48909 0.68586 0.0
C607 C 0.16882 0.44714 0.79837 0.0
H608 H 0.23149 0.50321 0.90808 0.0
H609 H 0.17236 0.55642 0.8113 0.0
H610 H 0.23802 0.44331 0.84632 0.0
H611 H 0.26415 0.45857 0.79925 0.0
H612 H 0.26754 0.46838 0.86754 0.0
H613 H 0.16837 0.54863 0.72031 0.0
H614 H 0.19447 0.52356 0.68768 0.0
H615 H 0.16075 0.50863 0.71715 0.0
H616 H 0.22945 0.4519 0.61508 0.0
H617 H 0.1583 0.41561 0.71084 0.0
H618 H 0.26744 0.4934 0.72281 0.0
H619 H 0.2467 0.51111 0.67049 0.0
H620 H 0.27112 0.47958 0.65672 0.0
H621 H 0.18372 0.44554 0.83315 0.0
H622 H 0.15268 0.42785 0.79937 0.0
H623 H 0.15562 0.4685 0.80145 0.0
loop_
_geom_bond_atom_site_label_1
_geom_bond_atom_site_label_2
_geom_bond_distance
_geom_bond_site_symmetry_2
_ccdc_geom_bond_type
Zn0 O3 2.031 . S
Zn0 O5 2.049 . S
Zn0 O10 2.067 . S
Zn1 O2 1.962 . S
Zn1 O4 1.986 . S
Zn1 O6 1.996 . S
Zn1 O9 1.943 . S
O2 Zn1 1.962 . S
O2 C7 1.254 . S
O3 Zn0 2.031 . S
O3 C7 1.269 . S
O4 Zn1 1.986 . S
O4 C11 1.262 . S
O5 Zn0 2.049 . S
O5 C13 1.260 . S
O6 Zn1 1.996 . S
O6 C13 1.257 . S
C7 O2 1.254 . S
C7 O3 1.269 . S
C8 O9 1.249 . S
C8 O10 1.270 . S
O9 Zn1 1.943 . S
O9 C8 1.249 . S
O10 Zn0 2.067 . S
O10 C8 1.270 . S
C11 O4 1.262 . S
C11 O12 1.232 . S
O12 C11 1.232 . S
C13 O5 1.260 . S
C13 O6 1.257 . S
Zn14 O17 2.031 . S
Zn14 O19 2.049 . S
Zn14 O24 2.067 . S
Zn15 O16 1.962 . S
Zn15 O18 1.986 . S
Zn15 O20 1.996 . S
Zn15 O23 1.943 . S
O16 Zn15 1.962 . S
O16 C21 1.254 . S
O17 Zn14 2.031 . S
O17 C21 1.269 . S
O18 Zn15 1.986 . S
O18 C25 1.262 . S
O19 Zn14 2.049 . S
O19 C27 1.260 . S
O20 Zn15 1.996 . S
O20 C27 1.257 . S
C21 O16 1.254 . S
C21 O17 1.269 . S
C22 O23 1.249 . S
C22 O24 1.270 . S
O23 Zn15 1.943 . S
O23 C22 1.249 . S
O24 Zn14 2.067 . S
O24 C22 1.270 . S
C25 O18 1.262 . S
C25 O26 1.232 . S
O26 C25 1.232 . S
C27 O19 1.260 . S
C27 O20 1.257 . S
Zn28 O31 2.031 . S
Zn28 O33 2.049 . S
Zn28 O38 2.067 . S
Zn29 O30 1.962 . S
Zn29 O32 1.986 . S
Zn29 O34 1.996 . S
Zn29 O37 1.943 . S
O30 Zn29 1.962 . S
O30 C35 1.254 . S
O31 Zn28 2.031 . S
O31 C35 1.269 . S
O32 Zn29 1.986 . S
O32 C39 1.262 . S
O33 Zn28 2.049 . S
O33 C41 1.260 . S
O34 Zn29 1.996 . S
O34 C41 1.257 . S
C35 O30 1.254 . S
C35 O31 1.269 . S
C36 O37 1.249 . S
C36 O38 1.270 . S
O37 Zn29 1.943 . S
O37 C36 1.249 . S
O38 Zn28 2.067 . S
O38 C36 1.270 . S
C39 O32 1.262 . S
C39 O40 1.232 . S
O40 C39 1.232 . S
C41 O33 1.260 . S
C41 O34 1.257 . S
Zn42 O45 2.031 1_554 S
Zn42 O47 2.049 . S
Zn42 O52 2.067 . S
Zn43 O44 1.962 1_554 S
Zn43 O46 1.986 . S
Zn43 O48 1.996 . S
Zn43 O51 1.943 . S
O44 Zn43 1.962 1_556 S
O44 C49 1.254 . S
O45 Zn42 2.031 1_556 S
O45 C49 1.269 . S
O46 Zn43 1.986 . S
O46 C53 1.262 . S
O47 Zn42 2.049 . S
O47 C55 1.260 . S
O48 Zn43 1.996 . S
O48 C55 1.257 . S
C49 O44 1.254 . S
C49 O45 1.269 . S
C50 O51 1.249 . S
C50 O52 1.270 . S
O51 Zn43 1.943 . S
O51 C50 1.249 . S
O52 Zn42 2.067 . S
O52 C50 1.270 . S
C53 O46 1.262 . S
C53 O54 1.232 . S
O54 C53 1.232 . S
C55 O47 1.260 . S
C55 O48 1.257 . S
Zn56 O59 2.031 . S
Zn56 O61 2.049 . S
Zn56 O66 2.067 . S
Zn57 O58 1.962 . S
Zn57 O60 1.986 . S
Zn57 O62 1.996 . S
Zn57 O65 1.943 . S
O58 Zn57 1.962 . S
O58 C63 1.254 . S
O59 Zn56 2.031 . S
O59 C63 1.269 . S
O60 Zn57 1.986 . S
O60 C67 1.262 . S
O61 Zn56 2.049 . S
O61 C69 1.260 . S
O62 Zn57 1.996 . S
O62 C69 1.257 . S
C63 O58 1.254 . S
C63 O59 1.269 . S
C64 O65 1.249 . S
C64 O66 1.270 . S
O65 Zn57 1.943 . S
O65 C64 1.249 . S
O66 Zn56 2.067 . S
O66 C64 1.270 . S
C67 O60 1.262 . S
C67 O68 1.232 . S
O68 C67 1.232 . S
C69 O61 1.260 . S
C69 O62 1.257 . S
Zn70 O73 2.031 . S
Zn70 O75 2.049 . S
Zn70 O80 2.067 . S
Zn71 O72 1.962 . S
Zn71 O74 1.986 . S
Zn71 O76 1.996 . S
Zn71 O79 1.943 . S
O72 Zn71 1.962 . S
O72 C77 1.254 . S
O73 Zn70 2.031 . S
O73 C77 1.269 . S
O74 Zn71 1.986 . S
O74 C81 1.262 . S
O75 Zn70 2.049 . S
O75 C83 1.260 . S
O76 Zn71 1.996 . S
O76 C83 1.257 . S
C77 O72 1.254 . S
C77 O73 1.269 . S
C78 O79 1.249 . S
C78 O80 1.270 . S
O79 Zn71 1.943 . S
O79 C78 1.249 . S
O80 Zn70 2.067 . S
O80 C78 1.270 . S
C81 O74 1.262 . S
C81 O82 1.232 . S
O82 C81 1.232 . S
C83 O75 1.260 . S
C83 O76 1.257 . S
Zn84 O87 2.031 . S
Zn84 O89 2.049 . S
Zn84 O94 2.067 . S
Zn85 O86 1.962 . S
Zn85 O88 1.986 . S
Zn85 O90 1.996 . S
Zn85 O93 1.943 . S
O86 Zn85 1.962 . S
O86 C91 1.254 . S
O87 Zn84 2.031 . S
O87 C91 1.269 . S
O88 Zn85 1.986 . S
O88 C95 1.262 . S
O89 Zn84 2.049 . S
O89 C97 1.260 . S
O90 Zn85 1.996 . S
O90 C97 1.257 . S
C91 O86 1.254 . S
C91 O87 1.269 . S
C92 O93 1.249 . S
C92 O94 1.270 . S
O93 Zn85 1.943 . S
O93 C92 1.249 . S
O94 Zn84 2.067 . S
O94 C92 1.270 . S
C95 O88 1.262 . S
C95 O96 1.232 . S
O96 C95 1.232 . S
C97 O89 1.260 . S
C97 O90 1.257 . S
Zn98 O101 2.031 . S
Zn98 O103 2.049 1_554 S
Zn98 O108 2.067 . S
Zn99 O100 1.962 . S
Zn99 O102 1.986 1_554 S
Zn99 O104 1.996 1_554 S
Zn99 O107 1.943 . S
O100 Zn99 1.962 . S
O100 C105 1.254 . S
O101 Zn98 2.031 . S
O101 C105 1.269 . S
O102 Zn99 1.986 1_556 S
O102 C109 1.262 1_556 S
O103 Zn98 2.049 1_556 S
O103 C111 1.260 . S
O104 Zn99 1.996 1_556 S
O104 C111 1.257 . S
C105 O100 1.254 . S
C105 O101 1.269 . S
C106 O107 1.249 . S
C106 O108 1.270 . S
O107 Zn99 1.943 . S
O107 C106 1.249 . S
O108 Zn98 2.067 . S
O108 C106 1.270 . S
C109 O102 1.262 1_554 S
C109 O110 1.232 . S
O110 C109 1.232 . S
C111 O103 1.260 . S
C111 O104 1.257 . S
C112 C113 1.391 . S
C112 C114 1.394 . S
C112 H128 0.931 . S
C113 C112 1.391 . S
C113 C117 1.376 . S
C114 C112 1.394 . S
C114 C115 1.369 . S
C114 C118 1.531 . S
C115 C114 1.369 . S
C115 C116 1.410 . S
C115 C123 1.503 . S
C116 C115 1.410 . S
C116 C117 1.392 . S
C116 C119 1.511 . S
C117 C113 1.376 . S
C117 C116 1.392 . S
C117 H129 0.929 . S
C118 C114 1.531 . S
C118 H130 0.960 . S
C118 H131 0.962 . S
C118 H132 0.960 . S
C119 C116 1.511 . S
C119 H133 0.961 . S
C119 H134 0.961 . S
C119 H135 0.961 . S
C120 C121 1.370 . S
C120 C122 1.363 . S
C120 H136 0.931 . S
C121 C120 1.370 . S
C121 C125 1.408 . S
C122 C120 1.363 . S
C122 C123 1.370 . S
C122 C126 1.524 . S
C123 C115 1.503 . S
C123 C122 1.370 . S
C123 C124 1.403 . S
C124 C123 1.403 . S
C124 C125 1.404 . S
C124 C127 1.539 . S
C125 C121 1.408 . S
C125 C124 1.404 . S
C125 H137 0.930 . S
C126 C122 1.524 . S
C126 H138 0.956 . S
C126 H139 0.961 . S
C126 H140 0.961 . S
C127 C124 1.539 . S
C127 H141 0.958 . S
C127 H142 0.961 . S
C127 H143 0.960 . S
H128 C112 0.931 . S
H129 C117 0.929 . S
H130 C118 0.960 . S
H131 C118 0.962 . S
H132 C118 0.960 . S
H133 C119 0.961 . S
H134 C119 0.961 . S
H135 C119 0.961 . S
H136 C120 0.931 . S
H137 C125 0.930 . S
H138 C126 0.956 . S
H139 C126 0.961 . S
H140 C126 0.961 . S
H141 C127 0.958 . S
H142 C127 0.961 . S
H143 C127 0.960 . S
C144 C145 1.391 . S
C144 C146 1.394 . S
C144 H160 0.931 . S
C145 C144 1.391 . S
C145 C149 1.376 . S
C146 C144 1.394 . S
C146 C147 1.369 . S
C146 C150 1.531 . S
C147 C146 1.369 . S
C147 C148 1.410 . S
C147 C155 1.503 . S
C148 C147 1.410 . S
C148 C149 1.392 . S
C148 C151 1.511 . S
C149 C145 1.376 . S
C149 C148 1.392 . S
C149 H161 0.929 . S
C150 C146 1.531 . S
C150 H162 0.960 . S
C150 H163 0.962 . S
C150 H164 0.960 . S
C151 C148 1.511 . S
C151 H165 0.961 . S
C151 H166 0.961 . S
C151 H167 0.961 . S
C152 C153 1.370 . S
C152 C154 1.363 . S
C152 H168 0.931 . S
C153 C152 1.370 . S
C153 C157 1.408 . S
C154 C152 1.363 . S
C154 C155 1.370 . S
C154 C158 1.524 . S
C155 C147 1.503 . S
C155 C154 1.370 . S
C155 C156 1.403 . S
C156 C155 1.403 . S
C156 C157 1.404 . S
C156 C159 1.539 . S
C157 C153 1.408 . S
C157 C156 1.404 . S
C157 H169 0.930 . S
C158 C154 1.524 . S
C158 H170 0.956 . S
C158 H171 0.961 . S
C158 H172 0.961 . S
C159 C156 1.539 . S
C159 H173 0.958 . S
C159 H174 0.961 . S
C159 H175 0.960 . S
H160 C144 0.931 . S
H161 C149 0.929 . S
H162 C150 0.960 . S
H163 C150 0.962 . S
H164 C150 0.960 . S
H165 C151 0.961 . S
H166 C151 0.961 . S
H167 C151 0.961 . S
H168 C152 0.931 . S
H169 C157 0.930 . S
H170 C158 0.956 . S
H171 C158 0.961 . S
H172 C158 0.961 . S
H173 C159 0.958 . S
H174 C159 0.961 . S
H175 C159 0.960 . S
C176 C177 1.391 . S
C176 C178 1.394 . S
C176 H192 0.931 . S
C177 C176 1.391 . S
C177 C181 1.376 . S
C178 C176 1.394 . S
C178 C179 1.369 . S
C178 C182 1.531 . S
C179 C178 1.369 . S
C179 C180 1.410 . S
C179 C187 1.503 . S
C180 C179 1.410 . S
C180 C181 1.392 . S
C180 C183 1.511 . S
C181 C177 1.376 . S
C181 C180 1.392 . S
C181 H193 0.929 . S
C182 C178 1.531 . S
C182 H194 0.960 . S
C182 H195 0.962 1_554 S
C182 H196 0.960 . S
C183 C180 1.511 . S
C183 H197 0.961 . S
C183 H198 0.961 . S
C183 H199 0.961 . S
C184 C185 1.370 . S
C184 C186 1.363 . S
C184 H200 0.931 . S
C185 C184 1.370 . S
C185 C189 1.408 . S
C186 C184 1.363 . S
C186 C187 1.370 1_556 S
C186 C190 1.524 . S
C187 C179 1.503 . S
C187 C186 1.370 1_554 S
C187 C188 1.403 . S
C188 C187 1.403 . S
C188 C189 1.404 1_554 S
C188 C191 1.539 . S
C189 C185 1.408 . S
C189 C188 1.404 1_556 S
C189 H201 0.930 . S
C190 C186 1.524 . S
C190 H202 0.956 . S
C190 H203 0.961 1_556 S
C190 H204 0.961 . S
C191 C188 1.539 . S
C191 H205 0.958 . S
C191 H206 0.961 . S
C191 H207 0.960 . S
H192 C176 0.931 . S
H193 C181 0.929 . S
H194 C182 0.960 . S
H195 C182 0.962 1_556 S
H196 C182 0.960 . S
H197 C183 0.961 . S
H198 C183 0.961 . S
H199 C183 0.961 . S
H200 C184 0.931 . S
H201 C189 0.930 . S
H202 C190 0.956 . S
H203 C190 0.961 1_554 S
H204 C190 0.961 . S
H205 C191 0.958 . S
H206 C191 0.961 . S
H207 C191 0.960 . S
C208 C209 1.391 . S
C208 C210 1.394 . S
C208 H224 0.931 . S
C209 C208 1.391 . S
C209 C213 1.376 . S
C210 C208 1.394 . S
C210 C211 1.369 . S
C210 C214 1.531 . S
C211 C210 1.369 . S
C211 C212 1.410 . S
C211 C219 1.503 . S
C212 C211 1.410 . S
C212 C213 1.392 . S
C212 C215 1.511 . S
C213 C209 1.376 . S
C213 C212 1.392 . S
C213 H225 0.929 . S
C214 C210 1.531 . S
C214 H226 0.960 . S
C214 H227 0.962 . S
C214 H228 0.960 . S
C215 C212 1.511 . S
C215 H229 0.961 . S
C215 H230 0.961 . S
C215 H231 0.961 . S
C216 C217 1.370 . S
C216 C218 1.363 . S
C216 H232 0.931 . S
C217 C216 1.370 . S
C217 C221 1.408 . S
C218 C216 1.363 . S
C218 C219 1.370 . S
C218 C222 1.524 . S
C219 C211 1.503 . S
C219 C218 1.370 . S
C219 C220 1.403 . S
C220 C219 1.403 . S
C220 C221 1.404 . S
C220 C223 1.539 . S
C221 C217 1.408 . S
C221 C220 1.404 . S
C221 H233 0.930 . S
C222 C218 1.524 . S
C222 H234 0.956 . S
C222 H235 0.961 . S
C222 H236 0.961 . S
C223 C220 1.539 . S
C223 H237 0.958 . S
C223 H238 0.961 . S
C223 H239 0.960 . S
H224 C208 0.931 . S
H225 C213 0.929 . S
H226 C214 0.960 . S
H227 C214 0.962 . S
H228 C214 0.960 . S
H229 C215 0.961 . S
H230 C215 0.961 . S
H231 C215 0.961 . S
H232 C216 0.931 . S
H233 C221 0.930 . S
H234 C222 0.956 . S
H235 C222 0.961 . S
H236 C222 0.961 . S
H237 C223 0.958 . S
H238 C223 0.961 . S
H239 C223 0.960 . S
C240 C241 1.391 . S
C240 C242 1.394 . S
C240 H256 0.931 . S
C241 C240 1.391 . S
C241 C245 1.376 . S
C242 C240 1.394 . S
C242 C243 1.369 . S
C242 C246 1.531 . S
C243 C242 1.369 . S
C243 C244 1.410 . S
C243 C251 1.503 . S
C244 C243 1.410 . S
C244 C245 1.392 . S
C244 C247 1.511 . S
C245 C241 1.376 . S
C245 C244 1.392 . S
C245 H257 0.929 . S
C246 C242 1.531 . S
C246 H258 0.960 . S
C246 H259 0.962 . S
C246 H260 0.960 . S
C247 C244 1.511 . S
C247 H261 0.961 . S
C247 H262 0.961 . S
C247 H263 0.961 . S
C248 C249 1.370 . S
C248 C250 1.363 . S
C248 H264 0.931 . S
C249 C248 1.370 . S
C249 C253 1.408 . S
C250 C248 1.363 . S
C250 C251 1.370 . S
C250 C254 1.524 . S
C251 C243 1.503 . S
C251 C250 1.370 . S
C251 C252 1.403 . S
C252 C251 1.403 . S
C252 C253 1.404 . S
C252 C255 1.539 . S
C253 C249 1.408 . S
C253 C252 1.404 . S
C253 H265 0.930 . S
C254 C250 1.524 . S
C254 H266 0.956 . S
C254 H267 0.961 . S
C254 H268 0.961 . S
C255 C252 1.539 . S
C255 H269 0.958 . S
C255 H270 0.961 . S
C255 H271 0.960 . S
H256 C240 0.931 . S
H257 C245 0.929 . S
H258 C246 0.960 . S
H259 C246 0.962 . S
H260 C246 0.960 . S
H261 C247 0.961 . S
H262 C247 0.961 . S
H263 C247 0.961 . S
H264 C248 0.931 . S
H265 C253 0.930 . S
H266 C254 0.956 . S
H267 C254 0.961 . S
H268 C254 0.961 . S
H269 C255 0.958 . S
H270 C255 0.961 . S
H271 C255 0.960 . S
C272 C273 1.391 . S
C272 C274 1.394 . S
C272 H288 0.931 . S
C273 C272 1.391 . S
C273 C277 1.376 . S
C274 C272 1.394 . S
C274 C275 1.369 . S
C274 C278 1.531 . S
C275 C274 1.369 . S
C275 C276 1.410 . S
C275 C283 1.503 . S
C276 C275 1.410 . S
C276 C277 1.392 . S
C276 C279 1.511 . S
C277 C273 1.376 . S
C277 C276 1.392 . S
C277 H289 0.929 . S
C278 C274 1.531 . S
C278 H290 0.960 . S
C278 H291 0.962 . S
C278 H292 0.960 . S
C279 C276 1.511 . S
C279 H293 0.961 . S
C279 H294 0.961 . S
C279 H295 0.961 . S
C280 C281 1.370 . S
C280 C282 1.363 . S
C280 H296 0.931 . S
C281 C280 1.370 . S
C281 C285 1.408 . S
C282 C280 1.363 . S
C282 C283 1.370 . S
C282 C286 1.524 . S
C283 C275 1.503 . S
C283 C282 1.370 . S
C283 C284 1.403 . S
C284 C283 1.403 . S
C284 C285 1.404 . S
C284 C287 1.539 . S
C285 C281 1.408 . S
C285 C284 1.404 . S
C285 H297 0.930 . S
C286 C282 1.524 . S
C286 H298 0.956 . S
C286 H299 0.961 . S
C286 H300 0.961 . S
C287 C284 1.539 . S
C287 H301 0.958 . S
C287 H302 0.961 . S
C287 H303 0.960 . S
H288 C272 0.931 . S
H289 C277 0.929 . S
H290 C278 0.960 . S
H291 C278 0.962 . S
H292 C278 0.960 . S
H293 C279 0.961 . S
H294 C279 0.961 . S
H295 C279 0.961 . S
H296 C280 0.931 . S
H297 C285 0.930 . S
H298 C286 0.956 . S
H299 C286 0.961 . S
H300 C286 0.961 . S
H301 C287 0.958 . S
H302 C287 0.961 . S
H303 C287 0.960 . S
C304 C305 1.391 . S
C304 C306 1.394 . S
C304 H320 0.931 . S
C305 C304 1.391 . S
C305 C309 1.376 1_556 S
C306 C304 1.394 . S
C306 C307 1.369 . S
C306 C310 1.531 . S
C307 C306 1.369 . S
C307 C308 1.410 . S
C307 C315 1.503 . S
C308 C307 1.410 . S
C308 C309 1.392 1_556 S
C308 C311 1.511 1_556 S
C309 C305 1.376 1_554 S
C309 C308 1.392 1_554 S
C309 H321 0.929 . S
C310 C306 1.531 . S
C310 H322 0.960 . S
C310 H323 0.962 . S
C310 H324 0.960 . S
C311 C308 1.511 1_554 S
C311 H325 0.961 . S
C311 H326 0.961 1_554 S
C311 H327 0.961 . S
C312 C313 1.370 . S
C312 C314 1.363 . S
C312 H328 0.931 . S
C313 C312 1.370 . S
C313 C317 1.408 . S
C314 C312 1.363 . S
C314 C315 1.370 . S
C314 C318 1.524 . S
C315 C307 1.503 . S
C315 C314 1.370 . S
C315 C316 1.403 . S
C316 C315 1.403 . S
C316 C317 1.404 . S
C316 C319 1.539 . S
C317 C313 1.408 . S
C317 C316 1.404 . S
C317 H329 0.930 . S
C318 C314 1.524 . S
C318 H330 0.956 . S
C318 H331 0.961 . S
C318 H332 0.961 . S
C319 C316 1.539 . S
C319 H333 0.958 . S
C319 H334 0.961 . S
C319 H335 0.960 . S
H320 C304 0.931 . S
H321 C309 0.929 . S
H322 C310 0.960 . S
H323 C310 0.962 . S
H324 C310 0.960 . S
H325 C311 0.961 . S
H326 C311 0.961 1_556 S
H327 C311 0.961 . S
H328 C312 0.931 . S
H329 C317 0.930 . S
H330 C318 0.956 . S
H331 C318 0.961 . S
H332 C318 0.961 . S
H333 C319 0.958 . S
H334 C319 0.961 . S
H335 C319 0.960 . S
C336 C337 1.391 . S
C336 C338 1.394 . S
C336 H352 0.931 . S
C337 C336 1.391 . S
C337 C341 1.376 . S
C338 C336 1.394 . S
C338 C339 1.369 . S
C338 C342 1.531 . S
C339 C338 1.369 . S
C339 C340 1.410 . S
C339 C347 1.503 . S
C340 C339 1.410 . S
C340 C341 1.392 . S
C340 C343 1.511 . S
C341 C337 1.376 . S
C341 C340 1.392 . S
C341 H353 0.929 . S
C342 C338 1.531 . S
C342 H354 0.960 . S
C342 H355 0.962 . S
C342 H356 0.960 . S
C343 C340 1.511 . S
C343 H357 0.961 . S
C343 H358 0.961 . S
C343 H359 0.961 . S
C344 C345 1.370 . S
C344 C346 1.363 . S
C344 H360 0.931 . S
C345 C344 1.370 . S
C345 C349 1.408 . S
C346 C344 1.363 . S
C346 C347 1.370 . S
C346 C350 1.524 . S
C347 C339 1.503 . S
C347 C346 1.370 . S
C347 C348 1.403 . S
C348 C347 1.403 . S
C348 C349 1.404 . S
C348 C351 1.539 . S
C349 C345 1.408 . S
C349 C348 1.404 . S
C349 H361 0.930 . S
C350 C346 1.524 . S
C350 H362 0.956 . S
C350 H363 0.961 . S
C350 H364 0.961 . S
C351 C348 1.539 . S
C351 H365 0.958 . S
C351 H366 0.961 . S
C351 H367 0.960 . S
H352 C336 0.931 . S
H353 C341 0.929 . S
H354 C342 0.960 . S
H355 C342 0.962 . S
H356 C342 0.960 . S
H357 C343 0.961 . S
H358 C343 0.961 . S
H359 C343 0.961 . S
H360 C344 0.931 . S
H361 C349 0.930 . S
H362 C350 0.956 . S
H363 C350 0.961 . S
H364 C350 0.961 . S
H365 C351 0.958 . S
H366 C351 0.961 . S
H367 C351 0.960 . S
C368 C369 1.391 . S
C368 C370 1.394 . S
C368 H384 0.931 . S
C369 C368 1.391 . S
C369 C373 1.376 . S
C370 C368 1.394 . S
C370 C371 1.369 . S
C370 C374 1.531 . S
C371 C370 1.369 . S
C371 C372 1.410 . S
C371 C379 1.503 1_565 S
C372 C371 1.410 . S
C372 C373 1.392 . S
C372 C375 1.511 . S
C373 C369 1.376 . S
C373 C372 1.392 . S
C373 H385 0.929 . S
C374 C370 1.531 . S
C374 H386 0.960 1_565 S
C374 H387 0.962 . S
C374 H388 0.960 . S
C375 C372 1.511 . S
C375 H389 0.961 . S
C375 H390 0.961 1_565 S
C375 H391 0.961 . S
C376 C377 1.370 . S
C376 C378 1.363 . S
C376 H392 0.931 . S
C377 C376 1.370 . S
C377 C381 1.408 . S
C378 C376 1.363 . S
C378 C379 1.370 . S
C378 C382 1.524 . S
C379 C371 1.503 1_545 S
C379 C378 1.370 . S
C379 C380 1.403 . S
C380 C379 1.403 . S
C380 C381 1.404 . S
C380 C383 1.539 . S
C381 C377 1.408 . S
C381 C380 1.404 . S
C381 H393 0.930 . S
C382 C378 1.524 . S
C382 H394 0.956 . S
C382 H395 0.961 1_545 S
C382 H396 0.961 . S
C383 C380 1.539 . S
C383 H397 0.958 . S
C383 H398 0.961 . S
C383 H399 0.961 1_545 S
H384 C368 0.931 . S
H385 C373 0.929 . S
H386 C374 0.960 1_545 S
H387 C374 0.962 . S
H388 C374 0.960 . S
H389 C375 0.961 . S
H390 C375 0.961 1_545 S
H391 C375 0.961 . S
H392 C376 0.931 . S
H393 C381 0.930 . S
H394 C382 0.956 . S
H395 C382 0.961 1_565 S
H396 C382 0.961 . S
H397 C383 0.958 . S
H398 C383 0.961 . S
H399 C383 0.961 1_565 S
C400 C401 1.391 . S
C400 C402 1.394 . S
C400 H416 0.931 . S
C401 C400 1.391 . S
C401 C405 1.376 . S
C402 C400 1.394 . S
C402 C403 1.369 . S
C402 C406 1.531 . S
C403 C402 1.369 . S
C403 C404 1.410 . S
C403 C411 1.503 1_655 S
C404 C403 1.410 . S
C404 C405 1.392 . S
C404 C407 1.511 . S
C405 C401 1.376 . S
C405 C404 1.392 . S
C405 H417 0.929 . S
C406 C402 1.531 . S
C406 H418 0.960 1_655 S
C406 H419 0.962 . S
C406 H420 0.960 . S
C407 C404 1.511 . S
C407 H421 0.961 . S
C407 H422 0.961 1_655 S
C407 H423 0.961 . S
C408 C409 1.370 . S
C408 C410 1.363 . S
C408 H424 0.931 . S
C409 C408 1.370 . S
C409 C413 1.408 . S
C410 C408 1.363 . S
C410 C411 1.370 . S
C410 C414 1.524 . S
C411 C403 1.503 1_455 S
C411 C410 1.370 . S
C411 C412 1.403 . S
C412 C411 1.403 . S
C412 C413 1.404 . S
C412 C415 1.539 . S
C413 C409 1.408 . S
C413 C412 1.404 . S
C413 H425 0.930 . S
C414 C410 1.524 . S
C414 H426 0.956 . S
C414 H427 0.961 1_455 S
C414 H428 0.961 . S
C415 C412 1.539 . S
C415 H429 0.958 . S
C415 H430 0.961 . S
C415 H431 0.960 1_455 S
H416 C400 0.931 . S
H417 C405 0.929 . S
H418 C406 0.960 1_455 S
H419 C406 0.962 . S
H420 C406 0.960 . S
H421 C407 0.961 . S
H422 C407 0.961 1_455 S
H423 C407 0.961 . S
H424 C408 0.931 . S
H425 C413 0.930 . S
H426 C414 0.956 . S
H427 C414 0.961 1_655 S
H428 C414 0.961 . S
H429 C415 0.958 . S
H430 C415 0.961 . S
H431 C415 0.960 1_655 S
C432 C433 1.391 . S
C432 C434 1.394 . S
C432 H448 0.931 . S
C433 C432 1.391 . S
C433 C437 1.376 . S
C434 C432 1.394 . S
C434 C435 1.369 . S
C434 C438 1.531 . S
C435 C434 1.369 . S
C435 C436 1.410 . S
C435 C443 1.503 1_565 S
C436 C435 1.410 . S
C436 C437 1.392 . S
C436 C439 1.511 . S
C437 C433 1.376 . S
C437 C436 1.392 . S
C437 H449 0.929 . S
C438 C434 1.531 . S
C438 H450 0.960 1_565 S
C438 H451 0.962 . S
C438 H452 0.960 . S
C439 C436 1.511 . S
C439 H453 0.961 . S
C439 H454 0.961 1_565 S
C439 H455 0.961 . S
C440 C441 1.370 . S
C440 C442 1.363 . S
C440 H456 0.931 . S
C441 C440 1.370 . S
C441 C445 1.408 . S
C442 C440 1.363 . S
C442 C443 1.370 . S
C442 C446 1.524 . S
C443 C435 1.503 1_545 S
C443 C442 1.370 . S
C443 C444 1.403 . S
C444 C443 1.403 . S
C444 C445 1.404 . S
C444 C447 1.539 . S
C445 C441 1.408 . S
C445 C444 1.404 . S
C445 H457 0.930 . S
C446 C442 1.524 . S
C446 H458 0.956 . S
C446 H459 0.961 1_545 S
C446 H460 0.961 . S
C447 C444 1.539 . S
C447 H461 0.958 . S
C447 H462 0.961 . S
C447 H463 0.949 1_545 S
H448 C432 0.931 . S
H449 C437 0.929 . S
H450 C438 0.960 1_545 S
H451 C438 0.962 . S
H452 C438 0.960 . S
H453 C439 0.961 . S
H454 C439 0.961 1_545 S
H455 C439 0.961 . S
H456 C440 0.931 . S
H457 C445 0.930 . S
H458 C446 0.956 . S
H459 C446 0.961 1_565 S
H460 C446 0.961 . S
H461 C447 0.958 . S
H462 C447 0.961 . S
H463 C447 0.949 1_565 S
C464 C465 1.391 . S
C464 C466 1.394 . S
C464 H480 0.931 . S
C465 C464 1.391 . S
C465 C469 1.376 1_554 S
C466 C464 1.394 . S
C466 C467 1.369 . S
C466 C470 1.531 . S
C467 C466 1.369 . S
C467 C468 1.410 1_554 S
C467 C475 1.503 1_655 S
C468 C467 1.410 1_556 S
C468 C469 1.392 . S
C468 C471 1.511 . S
C469 C465 1.376 1_556 S
C469 C468 1.392 . S
C469 H481 0.929 . S
C470 C466 1.531 . S
C470 H482 0.960 1_655 S
C470 H483 0.962 . S
C470 H484 0.960 . S
C471 C468 1.511 . S
C471 H485 0.961 . S
C471 H486 0.961 1_655 S
C471 H487 0.961 . S
C472 C473 1.370 . S
C472 C474 1.363 . S
C472 H488 0.931 . S
C473 C472 1.370 . S
C473 C477 1.408 . S
C474 C472 1.363 . S
C474 C475 1.370 . S
C474 C478 1.524 . S
C475 C467 1.503 1_455 S
C475 C474 1.370 . S
C475 C476 1.403 . S
C476 C475 1.403 . S
C476 C477 1.404 . S
C476 C479 1.539 . S
C477 C473 1.408 . S
C477 C476 1.404 . S
C477 H489 0.930 . S
C478 C474 1.524 . S
C478 H490 0.976 . S
C478 H491 0.961 1_455 S
C478 H492 0.961 . S
C479 C476 1.539 . S
C479 H493 0.958 . S
C479 H494 0.961 1_554 S
C479 H495 0.985 1_554 S
H480 C464 0.931 . S
H481 C469 0.929 . S
H482 C470 0.960 1_455 S
H483 C470 0.962 . S
H484 C470 0.960 . S
H485 C471 0.961 . S
H486 C471 0.961 1_455 S
H487 C471 0.961 . S
H488 C472 0.931 . S
H489 C477 0.930 . S
H490 C478 0.976 . S
H491 C478 0.961 1_655 S
H492 C478 0.961 . S
H493 C479 0.958 . S
H494 C479 0.961 1_556 S
H495 C479 0.985 1_556 S
C496 C497 1.391 . S
C496 C498 1.394 . S
C496 H512 0.931 . S
C497 C496 1.391 . S
C497 C501 1.376 . S
C498 C496 1.394 . S
C498 C499 1.369 1_556 S
C498 C502 1.531 . S
C499 C498 1.369 1_554 S
C499 C500 1.410 . S
C499 C507 1.503 . S
C500 C499 1.410 . S
C500 C501 1.392 1_554 S
C500 C503 1.511 . S
C501 C497 1.376 . S
C501 C500 1.392 1_556 S
C501 H513 0.929 . S
C502 C498 1.531 . S
C502 H514 0.960 . S
C502 H515 0.962 . S
C502 H516 0.960 . S
C503 C500 1.511 . S
C503 H517 0.961 . S
C503 H518 0.961 . S
C503 H519 0.961 . S
C504 C505 1.370 . S
C504 C506 1.363 . S
C504 H520 0.931 . S
C505 C504 1.370 . S
C505 C509 1.408 . S
C506 C504 1.363 . S
C506 C507 1.370 . S
C506 C510 1.524 . S
C507 C499 1.503 . S
C507 C506 1.370 . S
C507 C508 1.403 . S
C508 C507 1.403 . S
C508 C509 1.404 . S
C508 C511 1.539 . S
C509 C505 1.408 . S
C509 C508 1.404 . S
C509 H521 0.930 . S
C510 C506 1.524 . S
C510 H522 0.956 . S
C510 H523 0.961 . S
C510 H524 0.961 . S
C511 C508 1.539 . S
C511 H525 0.958 1_554 S
C511 H526 0.961 . S
C511 H527 0.960 1_554 S
H512 C496 0.931 . S
H513 C501 0.929 . S
H514 C502 0.960 . S
H515 C502 0.962 . S
H516 C502 0.960 . S
H517 C503 0.961 . S
H518 C503 0.961 . S
H519 C503 0.961 . S
H520 C504 0.931 . S
H521 C509 0.930 . S
H522 C510 0.956 . S
H523 C510 0.961 . S
H524 C510 0.961 . S
H525 C511 0.958 1_556 S
H526 C511 0.961 . S
H527 C511 0.960 1_556 S
C528 C529 1.391 . S
C528 C530 1.394 . S
C528 H544 0.931 . S
C529 C528 1.391 . S
C529 C533 1.376 . S
C530 C528 1.394 . S
C530 C531 1.369 . S
C530 C534 1.531 . S
C531 C530 1.369 . S
C531 C532 1.410 . S
C531 C539 1.503 . S
C532 C531 1.410 . S
C532 C533 1.392 . S
C532 C535 1.511 . S
C533 C529 1.376 . S
C533 C532 1.392 . S
C533 H545 0.929 . S
C534 C530 1.531 . S
C534 H546 0.960 . S
C534 H547 0.962 . S
C534 H548 0.960 . S
C535 C532 1.511 . S
C535 H549 0.961 . S
C535 H550 0.961 . S
C535 H551 0.961 . S
C536 C537 1.370 . S
C536 C538 1.363 . S
C536 H552 0.931 . S
C537 C536 1.370 . S
C537 C541 1.408 . S
C538 C536 1.363 . S
C538 C539 1.370 . S
C538 C542 1.524 . S
C539 C531 1.503 . S
C539 C538 1.370 . S
C539 C540 1.403 . S
C540 C539 1.403 . S
C540 C541 1.404 . S
C540 C543 1.539 . S
C541 C537 1.408 . S
C541 C540 1.404 . S
C541 H553 0.930 . S
C542 C538 1.524 . S
C542 H554 0.956 . S
C542 H555 0.961 . S
C542 H556 0.961 . S
C543 C540 1.539 . S
C543 H557 0.958 . S
C543 H558 0.961 . S
C543 H559 0.960 . S
H544 C528 0.931 . S
H545 C533 0.929 . S
H546 C534 0.960 . S
H547 C534 0.962 . S
H548 C534 0.960 . S
H549 C535 0.961 . S
H550 C535 0.961 . S
H551 C535 0.961 . S
H552 C536 0.931 . S
H553 C541 0.930 . S
H554 C542 0.956 . S
H555 C542 0.961 . S
H556 C542 0.961 . S
H557 C543 0.958 . S
H558 C543 0.961 . S
H559 C543 0.960 . S
C560 C561 1.391 . S
C560 C562 1.394 . S
C560 H576 0.931 . S
C561 C560 1.391 . S
C561 C565 1.376 . S
C562 C560 1.394 . S
C562 C563 1.369 . S
C562 C566 1.531 . S
C563 C562 1.369 . S
C563 C564 1.410 . S
C563 C571 1.503 . S
C564 C563 1.410 . S
C564 C565 1.392 . S
C564 C567 1.511 . S
C565 C561 1.376 . S
C565 C564 1.392 . S
C565 H577 0.929 . S
C566 C562 1.531 . S
C566 H578 0.960 . S
C566 H579 0.962 . S
C566 H580 0.960 . S
C567 C564 1.511 . S
C567 H581 0.961 . S
C567 H582 0.961 . S
C567 H583 0.961 . S
C568 C569 1.370 . S
C568 C570 1.363 . S
C568 H584 0.931 . S
C569 C568 1.370 . S
C569 C573 1.408 . S
C570 C568 1.363 . S
C570 C571 1.370 . S
C570 C574 1.524 . S
C571 C563 1.503 . S
C571 C570 1.370 . S
C571 C572 1.403 . S
C572 C571 1.403 . S
C572 C573 1.404 . S
C572 C575 1.539 . S
C573 C569 1.408 . S
C573 C572 1.404 . S
C573 H585 0.930 . S
C574 C570 1.524 . S
C574 H586 0.956 . S
C574 H587 0.961 . S
C574 H588 0.961 . S
C575 C572 1.539 . S
C575 H589 0.958 . S
C575 H590 0.961 . S
C575 H591 0.960 . S
H576 C560 0.931 . S
H577 C565 0.929 . S
H578 C566 0.960 . S
H579 C566 0.962 . S
H580 C566 0.960 . S
H581 C567 0.961 . S
H582 C567 0.961 . S
H583 C567 0.961 . S
H584 C568 0.931 . S
H585 C573 0.930 . S
H586 C574 0.956 . S
H587 C574 0.961 . S
H588 C574 0.961 . S
H589 C575 0.958 . S
H590 C575 0.961 . S
H591 C575 0.960 . S
C592 C593 1.391 . S
C592 C594 1.394 . S
C592 H608 0.931 . S
C593 C592 1.391 . S
C593 C597 1.376 . S
C594 C592 1.394 . S
C594 C595 1.369 . S
C594 C598 1.531 . S
C595 C594 1.369 . S
C595 C596 1.410 . S
C595 C603 1.503 . S
C596 C595 1.410 . S
C596 C597 1.392 . S
C596 C599 1.511 . S
C597 C593 1.376 . S
C597 C596 1.392 . S
C597 H609 0.929 . S
C598 C594 1.531 . S
C598 H610 0.960 . S
C598 H611 0.962 . S
C598 H612 0.960 . S
C599 C596 1.511 . S
C599 H613 0.961 . S
C599 H614 0.961 . S
C599 H615 0.961 . S
C600 C601 1.370 . S
C600 C602 1.363 . S
C600 H616 0.931 . S
C601 C600 1.370 . S
C601 C605 1.408 . S
C602 C600 1.363 . S
C602 C603 1.370 . S
C602 C606 1.524 . S
C603 C595 1.503 . S
C603 C602 1.370 . S
C603 C604 1.403 . S
C604 C603 1.403 . S
C604 C605 1.404 . S
C604 C607 1.539 . S
C605 C601 1.408 . S
C605 C604 1.404 . S
C605 H617 0.930 . S
C606 C602 1.524 . S
C606 H618 0.956 . S
C606 H619 0.961 . S
C606 H620 0.961 . S
C607 C604 1.539 . S
C607 H621 0.958 . S
C607 H622 0.961 . S
C607 H623 0.960 . S
H608 C592 0.931 . S
H609 C597 0.929 . S
H610 C598 0.960 . S
H611 C598 0.962 . S
H612 C598 0.960 . S
H613 C599 0.961 . S
H614 C599 0.961 . S
H615 C599 0.961 . S
H616 C600 0.931 . S
H617 C605 0.930 . S
H618 C606 0.956 . S
H619 C606 0.961 . S
H620 C606 0.961 . S
H621 C607 0.958 . S
H622 C607 0.961 . S
H623 C607 0.960 . S
C113 C13 0.800 . S
C121 C97 0.878 . S
C145 C27 0.919 . S
C153 C111 0.842 . S
C177 C69 0.799 . S
C185 C41 0.879 . S
C209 C83 0.844 . S
C217 C55 0.896 . S
C241 C11 1.365 . S
C249 C81 1.386 . S
C273 C25 1.359 . S
C281 C95 1.383 . S
C305 C109 1.368 1_556 S
C313 C39 1.373 . S
C337 C53 1.392 . S
C345 C67 1.382 . S
C369 C64 1.214 . S
C377 C8 1.207 . S
C401 C22 1.269 . S
C409 C78 1.233 . S
C433 C36 1.253 . S
C441 C92 1.218 . S
C465 C106 1.179 . S
C473 C50 1.215 . S
C497 C91 1.607 . S
C505 C7 1.636 . S
C529 C105 1.656 . S
C537 C21 1.632 . S
C561 C35 1.606 . S
C569 C63 1.641 . S
C593 C49 1.606 . S
C601 C77 1.637 . S
