# Generated by pormake.
# Topology bsn, (6)-cn, num edge types: 1
# Building blocks:
#     Node 0, Type 0, BuildingBlock: UKALOJ_clean_sbu_0, # of connection points: 6
#     Node 1, Type 0, BuildingBlock: UKALOJ_clean_sbu_0, # of connection points: 6
#     Node 2, Type 0, BuildingBlock: UKALOJ_clean_sbu_0, # of connection points: 6
#     Node 3, Type 0, BuildingBlock: UKALOJ_clean_sbu_0, # of connection points: 6
#     Edge 4, Type (0, 0), BuildingBlock: XUDNAN_clean_linker_2, # of connection points: 2
#     Edge 5, Type (0, 0), BuildingBlock: XUDNAN_clean_linker_2, # of connection points: 2
#     Edge 6, Type (0, 0), BuildingBlock: XUDNAN_clean_linker_2, # of connection points: 2
#     Edge 7, Type (0, 0), BuildingBlock: XUDNAN_clean_linker_2, # of connection points: 2
#     Edge 8, Type (0, 0), BuildingBlock: XUDNAN_clean_linker_2, # of connection points: 2
#     Edge 9, Type (0, 0), BuildingBlock: XUDNAN_clean_linker_2, # of connection points: 2
#     Edge 10, Type (0, 0), BuildingBlock: XUDNAN_clean_linker_2, # of connection points: 2
#     Edge 11, Type (0, 0), BuildingBlock: XUDNAN_clean_linker_2, # of connection points: 2
#     Edge 12, Type (0, 0), BuildingBlock: XUDNAN_clean_linker_2, # of connection points: 2
#     Edge 13, Type (0, 0), BuildingBlock: XUDNAN_clean_linker_2, # of connection points: 2
#     Edge 14, Type (0, 0), BuildingBlock: XUDNAN_clean_linker_2, # of connection points: 2
#     Edge 15, Type (0, 0), BuildingBlock: XUDNAN_clean_linker_2, # of connection points: 2
# Relax obj value: 0.178
# Max RMSD: 0.166
# Mean RMSD: 0.152
data_MOF--net-bsn--node1-UKALOJ_clean_sbu_0--edge1-XUDNAN_clean_linker_2
_symmetry_space_group_name_H-M    P1
_symmetry_Int_Tables_number       1
_symmetry_cell_setting            triclinic
loop_
_symmetry_equiv_pos_as_xyz
'x, y, z'
_cell_length_a     30.775971
_cell_length_b     36.094376
_cell_length_c     15.173114
_cell_angle_alpha  90.191831
_cell_angle_beta   96.968145
_cell_angle_gamma 90.377947
loop_
_atom_site_label
_atom_site_type_symbol
_atom_site_fract_x
_atom_site_fract_y
_atom_site_fract_z
_atom_type_partial_charge
Zn0 Zn 0.05437 0.32017 0.34719 0.0
O1 O 0.98548 0.32857 0.34673 0.0
C2 C 0.05477 0.29088 0.52707 0.0
Zn3 Zn 0.04169 0.25822 0.34544 0.0
C4 C 0.95853 0.30147 0.34279 0.0
O5 O 0.97304 0.26859 0.34021 0.0
C6 C 0.1376 0.27644 0.34884 0.0
O7 O 0.03561 0.25917 0.20336 0.0
O8 O 0.04664 0.31964 0.21152 0.0
N9 N 1.02917 0.20136 0.34971 0.0
C10 C 0.04757 0.1709 0.31797 0.0
C11 C 0.99806 0.15211 0.394 0.0
N12 N 0.99835 0.18941 0.39659 0.0
N13 N 1.02879 0.1394 0.34551 0.0
C14 C 0.04251 0.40719 0.32254 0.0
C15 C 0.10036 0.42773 0.39847 0.0
N16 N 0.06633 0.37738 0.35249 0.0
N17 N 0.10231 0.39042 0.39931 0.0
N18 N 0.06298 0.4393 0.35129 0.0
H19 H 0.9974 0.42839 0.21509 0.0
H20 H 0.97269 0.40456 0.30078 0.0
H21 H 0.99924 0.37838 0.22244 0.0
C22 C 1.00065 0.4045 0.26119 0.0
C23 C 0.08204 0.17255 0.2564 0.0
H24 H 0.08033 0.19902 0.21946 0.0
H25 H 0.07825 0.14905 0.20867 0.0
H26 H 0.11476 0.17099 0.29571 0.0
O27 O 0.11062 0.24953 0.35027 0.0
O28 O 0.12324 0.30954 0.34758 0.0
C29 C 0.03867 0.29041 0.16543 0.0
O30 O 0.06107 0.31964 0.48265 0.0
O31 O 0.04703 0.25997 0.48747 0.0
Zn32 Zn 1.00192 0.79163 0.3439 0.0
O33 O 0.99926 0.73163 0.34203 0.0
C34 C 0.04275 0.79263 0.53267 0.0
Zn35 Zn 0.07436 0.78624 0.36106 0.0
C36 C 0.03305 0.71126 0.35269 0.0
O37 O 0.07042 0.72683 0.36442 0.0
C38 C 0.04329 0.86646 0.34654 0.0
O39 O 0.07198 0.78466 0.22676 0.0
O40 O 1.00028 0.79118 0.20252 0.0
N41 N 0.14101 0.78177 0.37853 0.0
C42 C 0.17065 0.80157 0.43239 0.0
C43 C 0.20092 0.75088 0.4029 0.0
N44 N 0.16002 0.7504 0.35971 0.0
N45 N 0.20824 0.78247 0.45016 0.0
C46 C 0.90965 0.77346 0.39016 0.0
C47 C 0.86996 0.81599 0.32619 0.0
N48 N 0.93507 0.79309 0.34031 0.0
N49 N 0.91025 0.81939 0.30019 0.0
N50 N 0.86869 0.78712 0.38198 0.0
H51 H 0.91243 0.7163 0.42789 0.0
H52 H 0.91301 0.748 0.51932 0.0
H53 H 0.96122 0.74108 0.46681 0.0
C54 C 0.92544 0.74333 0.45456 0.0
C55 C 0.16398 0.84089 0.45965 0.0
H56 H 0.15558 0.85748 0.39903 0.0
H57 H 0.1939 0.85363 0.49537 0.0
H58 H 0.13662 0.84258 0.50066 0.0
O59 O 0.07689 0.84572 0.35468 0.0
O60 O 1.00554 0.85139 0.34217 0.0
C61 C 0.03731 0.78858 0.17324 0.0
O62 O 1.006 0.79421 0.48525 0.0
O63 O 0.07705 0.78854 0.49594 0.0
Zn64 Zn 0.58188 0.81496 0.83051 0.0
O65 O 0.51317 0.82067 0.82838 0.0
C66 C 0.58775 0.78068 0.00985 0.0
Zn67 Zn 0.57454 0.75367 0.82717 0.0
C68 C 0.48942 0.79175 0.8183 0.0
O69 O 0.5072 0.76026 0.81732 0.0
C70 C 0.66609 0.77526 0.82127 0.0
O71 O 0.57135 0.75878 0.68574 0.0
O72 O 0.57457 0.81969 0.69504 0.0
N73 N 0.56393 0.69795 0.81517 0.0
C74 C 0.57502 0.66991 0.87168 0.0
C75 C 0.53129 0.64792 0.76432 0.0
N76 N 0.53698 0.68419 0.74824 0.0
N77 N 0.55448 0.63828 0.84182 0.0
C78 C 0.57325 0.8936 0.90508 0.0
C79 C 0.62744 0.92268 0.86277 0.0
N80 N 0.59137 0.87104 0.84876 0.0
N81 N 0.62487 0.88927 0.82199 0.0
N82 N 0.59548 0.92595 0.91555 0.0
H83 H 0.50442 0.88278 0.89369 0.0
H84 H 0.52447 0.90664 -0.0067 0.0
H85 H 0.53557 0.85796 -0.01805 0.0
C86 C 0.53249 0.88476 0.94669 0.0
C87 C 0.60776 0.67318 0.95305 0.0
H88 H 0.63225 0.69509 0.94443 0.0
H89 H 0.62481 0.64648 -0.0327 0.0
H90 H 0.59071 0.68067 0.01088 0.0
O91 O 0.64212 0.74708 0.83072 0.0
O92 O 0.64982 0.8075 0.82471 0.0
C93 C 0.57267 0.7903 0.6485 0.0
O94 O 0.59116 0.80999 -0.03408 0.0
O95 O 0.57837 0.7504 -0.03104 0.0
Zn96 Zn 0.55234 0.25586 0.31467 0.0
O97 O 0.55572 0.26111 0.4565 0.0
C98 C 0.45625 0.27392 0.30859 0.0
Zn99 Zn 0.54002 0.31657 0.31145 0.0
C100 C 0.55057 0.29239 0.49304 0.0
O101 O 0.54492 0.3213 0.44581 0.0
C102 C 0.53817 0.28249 0.13258 0.0
O103 O 0.60916 0.325 0.31753 0.0
O104 O 0.62144 0.26537 0.32136 0.0
N105 N 0.5289 0.37223 0.29307 0.0
C106 C 0.54681 0.39532 0.23751 0.0
C107 C 0.49089 0.42237 0.2767 0.0
N108 N 0.49429 0.38921 0.31788 0.0
N109 N 0.52345 0.42674 0.22574 0.0
C110 C 0.55295 0.17203 0.26888 0.0
C111 C 0.59775 0.15087 0.37455 0.0
N112 N 0.56443 0.20036 0.32527 0.0
N113 N 0.59209 0.18711 0.39108 0.0
N114 N 0.57386 0.14075 0.29779 0.0
H115 H 0.49527 0.19635 0.19752 0.0
H116 H 0.5024 0.14773 0.17499 0.0
H117 H 0.5362 0.18198 0.12988 0.0
C118 C 0.51961 0.17464 0.18845 0.0
C119 C 0.58836 0.38799 0.19762 0.0
H120 H 0.61604 0.38814 0.25149 0.0
H121 H 0.59551 0.40966 0.14983 0.0
H122 H 0.58726 0.36068 0.16423 0.0
O123 O 0.53347 0.31147 0.17703 0.0
O124 O 0.54828 0.25243 0.17282 0.0
C125 C 0.63614 0.29835 0.32153 0.0
O126 O 0.48288 0.24696 0.30944 0.0
O127 O 0.47118 0.30688 0.30828 0.0
H128 H 0.11503 0.50016 0.34491 0.0
H129 H 0.97978 0.46638 0.34789 0.0
H130 H 0.95743 0.53177 0.3427 0.0
H131 H 0.11025 0.57752 0.49092 0.0
H132 H 0.14636 0.6065 0.43566 0.0
H133 H 0.15151 0.55687 0.43199 0.0
H134 H 0.1424 0.55856 0.26012 0.0
H135 H 0.13746 0.60824 0.26328 0.0
H136 H 0.09513 0.58065 0.20147 0.0
H137 H 0.9498 0.60168 0.34135 0.0
H138 H 0.95772 0.66979 0.34636 0.0
H139 H 0.09845 0.65894 0.35286 0.0
C140 C 0.08061 0.50651 0.34317 0.0
C141 C 0.04905 0.47765 0.34301 0.0
C142 C 1.00448 0.4874 0.34314 0.0
C143 C 0.99149 0.52472 0.34164 0.0
C144 C 1.02343 0.55233 0.34142 0.0
C145 C 0.06714 0.54368 0.3425 0.0
C146 C 0.09517 0.57862 0.34592 0.0
C147 C 0.12774 0.57994 0.4312 0.0
C148 C 0.11894 0.58169 0.26273 0.0
C149 C 0.06043 0.60829 0.34689 0.0
C150 C 1.01924 0.59251 0.34383 0.0
C151 C 0.98194 0.61427 0.34379 0.0
C152 C 0.9868 0.65304 0.34674 0.0
C153 C 1.0287 0.66999 0.35034 0.0
C154 C 0.06594 0.64703 0.35053 0.0
H155 H 0.71708 0.82899 0.75636 0.0
H156 H 0.70466 0.70981 0.78519 0.0
H157 H 0.75404 0.70039 0.67127 0.0
H158 H 0.71337 0.83047 0.53055 0.0
H159 H 0.75365 0.8665 0.52379 0.0
H160 H 0.72271 0.86496 0.61708 0.0
H161 H 0.79416 0.86283 0.72696 0.0
H162 H 0.8254 0.86586 0.63418 0.0
H163 H 0.83476 0.82831 0.71204 0.0
H164 H 0.79247 0.70373 0.53556 0.0
H165 H 0.83521 0.71963 0.41286 0.0
H166 H 0.82737 0.83609 0.47819 0.0
C167 C 0.72619 0.80091 0.74166 0.0
C168 C 0.70669 0.77015 0.77957 0.0
C169 C 0.71912 0.73386 0.75733 0.0
C170 C 0.74683 0.72818 0.69191 0.0
C171 C 0.76257 0.75906 0.65081 0.0
C172 C 0.75412 0.79472 0.67696 0.0
C173 C 0.77422 0.82306 0.62015 0.0
C174 C 0.73887 0.84769 0.56996 0.0
C175 C 0.80923 0.84639 0.6767 0.0
C176 C 0.79449 0.79771 0.55694 0.0
C177 C 0.78677 0.76092 0.57505 0.0
C178 C 0.79995 0.73238 0.52253 0.0
C179 C 0.82397 0.74162 0.45295 0.0
C180 C 0.83549 0.7789 0.43811 0.0
C181 C 0.81916 0.80736 0.48868 0.0
H182 H 0.52985 0.50135 0.24407 0.0
H183 H 0.51936 0.41204 0.05133 0.0
H184 H 0.52745 0.45683 0.93126 0.0
H185 H 0.46867 0.56899 0.09937 0.0
H186 H 0.50256 0.60745 0.14235 0.0
H187 H 0.49493 0.56828 0.21223 0.0
H188 H 0.57909 0.56043 0.242 0.0
H189 H 0.58685 0.59924 0.17108 0.0
H190 H 0.61021 0.55493 0.14954 0.0
H191 H 0.53975 0.51064 0.83389 0.0
H192 H 0.55026 0.5712 0.76299 0.0
H193 H 0.54909 0.6259 0.01744 0.0
C194 C 0.52893 0.49156 0.17635 0.0
C195 C 0.5249 0.45346 0.15639 0.0
C196 C 0.5233 0.44123 0.06731 0.0
C197 C 0.52782 0.46639 -0.00097 0.0
C198 C 0.53321 0.50373 0.02097 0.0
C199 C 0.53318 0.51644 0.10714 0.0
C200 C 0.5392 0.55811 0.11219 0.0
C201 C 0.49893 0.5768 0.14335 0.0
C202 C 0.58135 0.56879 0.17226 0.0
C203 C 0.54305 0.56666 0.01574 0.0
C204 C 0.53968 0.53489 -0.03564 0.0
C205 C 0.54243 0.53575 0.87339 0.0
C206 C 0.54845 0.57013 0.83376 0.0
C207 C 0.55178 0.60307 0.885 0.0
C208 C 0.54865 0.60117 -0.02293 0.0
H209 H 0.8908 0.25032 0.3225 0.0
H210 H 0.91783 0.36781 0.36176 0.0
H211 H 0.8389 0.37949 0.35974 0.0
H212 H 0.79072 0.26015 0.17382 0.0
H213 H 0.76374 0.22135 0.21897 0.0
H214 H 0.82248 0.22205 0.22299 0.0
H215 H 0.83014 0.21306 0.39344 0.0
H216 H 0.77142 0.21233 0.38995 0.0
H217 H 0.80362 0.24501 0.46089 0.0
H218 H 0.75706 0.37864 0.35452 0.0
H219 H 0.67807 0.36538 0.34648 0.0
H220 H 0.70306 0.24838 0.31039 0.0
C221 C 0.88016 0.27853 0.33063 0.0
C222 C 0.91077 0.3082 0.34172 0.0
C223 C 0.89526 0.34465 0.3523 0.0
C224 C 0.85038 0.35156 0.35153 0.0
C225 C 0.82118 0.32177 0.34026 0.0
C226 C 0.83537 0.28595 0.33004 0.0
C227 C 0.79701 0.25893 0.31933 0.0
C228 C 0.79328 0.23948 0.22836 0.0
C229 C 0.80078 0.23066 0.39545 0.0
C230 C 0.75908 0.28516 0.3252 0.0
C231 C 0.77384 0.32127 0.33723 0.0
C232 C 0.74513 0.35047 0.34475 0.0
C233 C 0.70017 0.34264 0.33968 0.0
C234 C 0.68404 0.30588 0.32699 0.0
C235 C 0.71417 0.2768 0.31999 0.0
H236 H 0.38999 0.32522 0.31007 0.0
H237 H 0.41445 0.20686 0.31529 0.0
H238 H 0.33631 0.19499 0.32724 0.0
H239 H 0.31187 0.32527 0.46738 0.0
H240 H 0.27757 0.36018 0.41056 0.0
H241 H 0.33531 0.35961 0.4008 0.0
H242 H 0.31851 0.35654 0.2295 0.0
H243 H 0.26071 0.35729 0.23869 0.0
H244 H 0.2833 0.32027 0.17888 0.0
H245 H 0.25573 0.1958 0.34217 0.0
H246 H 0.17815 0.20904 0.35339 0.0
H247 H 0.20488 0.3269 0.33673 0.0
C248 C 0.37893 0.29677 0.31324 0.0
C249 C 0.40863 0.26696 0.31169 0.0
C250 C 0.39257 0.2302 0.31623 0.0
C251 C 0.34816 0.22315 0.32318 0.0
C252 C 0.31993 0.25312 0.32533 0.0
C253 C 0.33458 0.28921 0.32002 0.0
C254 C 0.2973 0.31637 0.32375 0.0
C255 C 0.30605 0.34186 0.40549 0.0
C256 C 0.2895 0.33895 0.23757 0.0
C257 C 0.25945 0.28993 0.3323 0.0
C258 C 0.27331 0.25358 0.33323 0.0
C259 C 0.24451 0.22416 0.34112 0.0
C260 C 0.20036 0.23201 0.34745 0.0
C261 C 0.18504 0.26901 0.34565 0.0
C262 C 0.21532 0.2983 0.33836 0.0
H263 H 0.45407 0.76375 0.6633 0.0
H264 H 0.42267 0.82772 0.88893 0.0
H265 H 0.34524 0.83205 0.81921 0.0
H266 H 0.38936 0.81736 0.50013 0.0
H267 H 0.37422 0.7782 0.42866 0.0
H268 H 0.42555 0.77831 0.4996 0.0
H269 H 0.40451 0.71628 0.56939 0.0
H270 H 0.35317 0.71583 0.49849 0.0
H271 H 0.3538 0.71281 0.61719 0.0
H272 H 0.27046 0.82422 0.72735 0.0
H273 H 0.20701 0.81316 0.61438 0.0
H274 H 0.29179 0.76283 0.44048 0.0
C275 C 0.43065 0.77827 0.69848 0.0
C276 C 0.4434 0.79465 0.78201 0.0
C277 C 0.4128 0.81458 0.82531 0.0
C278 C 0.36905 0.8171 0.78624 0.0
C279 C 0.35745 0.80041 0.70334 0.0
C280 C 0.38769 0.78196 0.65949 0.0
C281 C 0.36813 0.76831 0.56902 0.0
C282 C 0.39065 0.78666 0.49501 0.0
C283 C 0.37001 0.72579 0.56324 0.0
C284 C 0.32176 0.78162 0.56856 0.0
C285 C 0.31597 0.7995 0.64707 0.0
C286 C 0.27499 0.81156 0.66438 0.0
C287 C 0.23926 0.80572 0.59914 0.0
C288 C 0.24506 0.78939 0.51618 0.0
C289 C 0.2868 0.77668 0.50183 0.0
H290 H 0.59016 1.00049 0.89617 0.0
H291 H 0.5989 0.91241 0.09042 0.0
H292 H 0.59283 0.95814 0.20998 0.0
H293 H 0.65448 0.06778 0.03734 0.0
H294 H 0.62192 0.10665 -0.00482 0.0
H295 H 0.62712 0.06687 0.92532 0.0
H296 H 0.54259 0.06045 0.89908 0.0
H297 H 0.53725 0.09996 -0.03028 0.0
H298 H 0.51227 0.05635 -0.00688 0.0
H299 H 0.58402 1.01293 0.30733 0.0
H300 H 0.57691 0.07421 0.37789 0.0
H301 H 0.57737 0.12703 0.12189 0.0
C302 C 0.59088 0.99112 -0.03597 0.0
C303 C 0.59383 0.95309 -0.01554 0.0
C304 C 0.59546 0.94149 0.07384 0.0
C305 C 0.59219 0.9672 0.14192 0.0
C306 C 0.588 1.00447 0.11955 0.0
C307 C 0.58783 1.01655 0.03303 0.0
C308 C 0.58357 0.0583 0.02757 0.0
C309 C 0.6242 0.07593 -0.00558 0.0
C310 C 0.54141 0.0694 -0.03111 0.0
C311 C 0.58106 0.06765 0.12426 0.0
C312 C 0.58354 1.03619 0.1761 0.0
C313 C 0.58198 0.0378 0.26744 0.0
C314 C 0.57792 0.07258 0.3069 0.0
C315 C 0.57532 0.10519 0.25512 0.0
C316 C 0.57736 0.10256 0.16273 0.0
H317 H 0.98032 0.92129 0.34877 0.0
H318 H 0.11836 0.90527 0.32818 0.0
H319 H 0.12916 0.97265 0.3221 0.0
H320 H 0.96677 0.99945 0.1964 0.0
H321 H 0.92926 1.02346 0.25869 0.0
H322 H 0.93193 0.97361 0.26165 0.0
H323 H 0.94724 0.97568 0.43323 0.0
H324 H 0.9445 1.0255 0.43079 0.0
H325 H 0.9925 1.00304 0.48538 0.0
H326 H 0.12626 0.04226 0.32574 0.0
H327 H 0.10916 0.10851 0.33448 0.0
H328 H 0.97222 0.08101 0.34145 0.0
C329 C 1.01281 0.93194 0.34283 0.0
C330 C 0.04867 0.90758 0.34072 0.0
C331 C 0.09051 0.92295 0.33229 0.0
C332 C 0.09697 0.96139 0.32798 0.0
C333 C 0.0612 0.98455 0.33111 0.0
C334 C 1.01984 0.97048 0.3378 0.0
C335 C 0.98706 1.00171 0.33994 0.0
C336 C 0.95166 0.99941 0.25936 0.0
C337 C 0.96663 1.00146 0.42755 0.0
C338 C 1.01658 1.03539 0.33423 0.0
C339 C 0.05921 1.02481 0.32922 0.0
C340 C 0.09276 0.05088 0.32747 0.0
C341 C 0.08256 0.08874 0.331 0.0
C342 C 0.03896 0.10052 0.33472 0.0
C343 C 1.00573 0.07313 0.33666 0.0
H344 H 0.049 0.23716 0.03806 0.0
H345 H 1.01562 0.35261 0.07454 0.0
H346 H 1.01373 0.36319 0.9151 0.0
H347 H 0.12023 0.25268 0.87804 0.0
H348 H 0.104 0.21281 0.80975 0.0
H349 H 0.0986 0.21204 0.92658 0.0
H350 H 1.01607 0.19626 0.8917 0.0
H351 H 1.02131 0.19649 0.77465 0.0
H352 H 0.98142 0.22563 0.81779 0.0
H353 H 1.02354 0.36442 0.76071 0.0
H354 H 0.03668 0.35474 0.60682 0.0
H355 H 0.06115 0.23788 0.65996 0.0
C356 C 0.04036 0.26434 0.01178 0.0
C357 C 0.03273 0.29412 0.06849 0.0
C358 C 1.02201 0.32949 0.03239 0.0
C359 C 1.02069 0.33582 0.94184 0.0
C360 C 1.02984 0.30644 0.88808 0.0
C361 C 0.03884 0.27125 0.92059 0.0
C362 C 0.0492 0.24536 0.84696 0.0
C363 C 0.09578 0.22982 0.86654 0.0
C364 C 1.01495 0.21408 0.83188 0.0
C365 C 0.04563 0.27196 0.76919 0.0
C366 C 0.0345 0.30697 0.79542 0.0
C367 C 0.03159 0.33706 0.73854 0.0
C368 C 0.03958 0.33126 0.6514 0.0
C369 C 0.04998 0.29552 0.62154 0.0
C370 C 0.05301 0.26539 0.68114 0.0
H371 H 0.97937 0.78247 0.64436 0.0
H372 H 0.11577 0.81339 0.63804 0.0
H373 H 0.12552 0.82035 0.79957 0.0
H374 H 0.95974 0.84347 0.83234 0.0
H375 H 0.9263 0.80961 0.88015 0.0
H376 H 0.92766 0.81059 0.76173 0.0
H377 H 0.9503 0.74163 0.76439 0.0
H378 H 0.94917 0.74039 0.8827 0.0
H379 H 0.99812 0.72729 0.83643 0.0
H380 H 0.12368 0.81986 0.95637 0.0
H381 H 0.111 0.81108 0.1104 0.0
H382 H 0.97574 0.77944 0.02481 0.0
C383 C 1.01098 0.79123 0.67731 0.0
C384 C 0.04679 0.79752 0.62905 0.0
C385 C 0.08794 0.80837 0.67384 0.0
C386 C 0.09379 0.81264 0.76552 0.0
C387 C 0.05823 0.80582 0.8114 0.0
C388 C 1.01763 0.79529 0.76972 0.0
C389 C 0.98621 0.78714 0.83712 0.0
C390 C 0.9477 0.81433 0.82723 0.0
C391 C 0.97002 0.74671 0.8297 0.0
C392 C 1.01615 0.79392 0.92279 0.0
C393 C 0.05727 0.80507 0.90525 0.0
C394 C 0.09161 0.81144 -0.02851 0.0
C395 C 0.08404 0.80602 0.0588 0.0
C396 C 0.04242 0.79425 0.07939 0.0
C397 C 1.00774 0.78859 0.01065 0.0
H398 H 0.55909 0.73336 0.13469 0.0
H399 H 0.63225 0.83504 0.10423 0.0
H400 H 0.6381 0.84609 0.26432 0.0
H401 H 0.49674 0.76756 0.29545 0.0
H402 H 0.49777 0.72613 0.36164 0.0
H403 H 0.50267 0.72289 0.24481 0.0
H404 H 0.57571 0.68754 0.27881 0.0
H405 H 0.57075 0.69017 0.39584 0.0
H406 H 0.61938 0.70758 0.35436 0.0
H407 H 0.62997 0.85082 0.42004 0.0
H408 H 0.61368 0.84607 0.5737 0.0
H409 H 0.54741 0.74073 0.51231 0.0
C410 C 0.57715 0.7574 0.16239 0.0
C411 C 0.59506 0.78339 0.10717 0.0
C412 C 0.618 0.81486 0.14522 0.0
C413 C 0.62166 0.82141 0.23617 0.0
C414 C 0.60248 0.79613 0.2885 0.0
C415 C 0.58115 0.7645 0.254 0.0
C416 C 0.56186 0.7431 0.3262 0.0
C417 C 0.51179 0.73974 0.30576 0.0
C418 C 0.58321 0.70483 0.33959 0.0
C419 C 0.57488 0.76832 0.40542 0.0
C420 C 0.59828 0.79866 0.38136 0.0
C421 C 0.61211 0.82703 0.44037 0.0
C422 C 0.60225 0.82424 0.52723 0.0
C423 C 0.57906 0.79314 0.55449 0.0
C424 C 0.56529 0.76471 0.49293 0.0
H425 H 0.57549 0.24236 0.62756 0.0
H426 H 0.51317 0.34898 0.57183 0.0
H427 H 0.49883 0.35396 0.72626 0.0
H428 H 0.50419 0.21029 0.78684 0.0
H429 H 0.54757 0.18957 0.86055 0.0
H430 H 0.55188 0.19242 0.74333 0.0
H431 H 0.62597 0.22728 0.77648 0.0
H432 H 0.62205 0.22416 0.8937 0.0
H433 H 0.62903 0.26871 0.84374 0.0
H434 H 0.49041 0.34887 0.88059 0.0
H435 H 0.49552 0.33737 0.03982 0.0
H436 H 0.56578 0.23504 0.00635 0.0
C437 C 0.55887 0.26666 0.64828 0.0
C438 C 0.54542 0.29525 0.58774 0.0
C439 C 0.52406 0.32682 0.61702 0.0
C440 C 0.51534 0.32982 0.70449 0.0
C441 C 0.52851 0.3012 0.76217 0.0
C442 C 0.55037 0.27046 0.73652 0.0
C443 C 0.56297 0.24506 0.815 0.0
C444 C 0.54029 0.20708 0.80053 0.0
C445 C 0.61298 0.24109 0.83331 0.0
C446 C 0.54495 0.26676 0.88822 0.0
C447 C 0.52469 0.29869 0.85495 0.0
C448 C 0.50618 0.32402 0.90791 0.0
C449 C 0.50941 0.31718 -0.00158 0.0
C450 C 0.53139 0.28543 0.03545 0.0
C451 C 0.54862 0.25938 -0.0205 0.0
loop_
_geom_bond_atom_site_label_1
_geom_bond_atom_site_label_2
_geom_bond_distance
_geom_bond_site_symmetry_2
_ccdc_geom_bond_type
Zn0 O1 2.055 1_455 S
Zn0 O8 2.046 . S
Zn0 N16 2.036 . S
Zn0 O28 2.053 . S
Zn0 O30 2.066 . S
O1 Zn0 2.055 1_655 S
O1 C4 1.259 . S
C2 O30 1.256 . S
C2 O31 1.244 . S
Zn3 O5 2.046 1_455 S
Zn3 O7 2.055 . S
Zn3 N9 2.036 . S
Zn3 O27 2.066 . S
Zn3 O31 2.053 . S
C4 O1 1.259 . S
C4 O5 1.254 . S
O5 Zn3 2.046 1_655 S
O5 C4 1.254 . S
C6 O27 1.256 . S
C6 O28 1.244 . S
O7 Zn3 2.055 . S
O7 C29 1.259 . S
O8 Zn0 2.046 . S
O8 C29 1.254 . S
N9 Zn3 2.036 . S
N9 C10 1.298 . S
N9 N12 1.398 . S
C10 N9 1.298 . S
C10 N13 1.367 . S
C10 C23 1.481 . S
C11 N12 1.299 . S
C11 N13 1.379 . S
N12 N9 1.398 . S
N12 C11 1.299 . S
N13 C10 1.367 . S
N13 C11 1.379 . S
C14 N16 1.298 . S
C14 N18 1.367 . S
C14 C22 1.481 1_455 S
C15 N17 1.299 . S
C15 N18 1.379 . S
N16 Zn0 2.036 . S
N16 C14 1.298 . S
N16 N17 1.398 . S
N17 C15 1.299 . S
N17 N16 1.398 . S
N18 C14 1.367 . S
N18 C15 1.379 . S
H19 C22 0.980 . S
H20 C22 0.981 . S
H21 C22 0.981 . S
C22 C14 1.481 1_655 S
C22 H19 0.980 . S
C22 H20 0.981 . S
C22 H21 0.981 . S
C23 C10 1.481 . S
C23 H24 0.980 . S
C23 H25 0.981 . S
C23 H26 0.981 . S
H24 C23 0.980 . S
H25 C23 0.981 . S
H26 C23 0.981 . S
O27 Zn3 2.066 . S
O27 C6 1.256 . S
O28 Zn0 2.053 . S
O28 C6 1.244 . S
C29 O7 1.259 . S
C29 O8 1.254 . S
O30 Zn0 2.066 . S
O30 C2 1.256 . S
O31 C2 1.244 . S
O31 Zn3 2.053 . S
Zn32 O33 2.055 . S
Zn32 O40 2.046 . S
Zn32 N48 2.036 . S
Zn32 O60 2.053 . S
Zn32 O62 2.066 . S
O33 Zn32 2.055 . S
O33 C36 1.259 1_655 S
C34 O62 1.256 1_455 S
C34 O63 1.244 . S
Zn35 O37 2.046 . S
Zn35 O39 2.055 . S
Zn35 N41 2.036 . S
Zn35 O59 2.066 . S
Zn35 O63 2.053 . S
C36 O33 1.259 1_455 S
C36 O37 1.254 . S
O37 Zn35 2.046 . S
O37 C36 1.254 . S
C38 O59 1.256 . S
C38 O60 1.244 1_455 S
O39 Zn35 2.055 . S
O39 C61 1.259 . S
O40 Zn32 2.046 . S
O40 C61 1.254 1_655 S
N41 Zn35 2.036 . S
N41 C42 1.298 . S
N41 N44 1.398 . S
C42 N41 1.298 . S
C42 N45 1.367 . S
C42 C55 1.481 . S
C43 N44 1.299 . S
C43 N45 1.379 . S
N44 N41 1.398 . S
N44 C43 1.299 . S
N45 C42 1.367 . S
N45 C43 1.379 . S
C46 N48 1.298 . S
C46 N50 1.367 . S
C46 C54 1.481 . S
C47 N49 1.299 . S
C47 N50 1.379 . S
N48 Zn32 2.036 . S
N48 C46 1.298 . S
N48 N49 1.398 . S
N49 C47 1.299 . S
N49 N48 1.398 . S
N50 C46 1.367 . S
N50 C47 1.379 . S
H51 C54 0.980 . S
H52 C54 0.981 . S
H53 C54 0.981 . S
C54 C46 1.481 . S
C54 H51 0.980 . S
C54 H52 0.981 . S
C54 H53 0.981 . S
C55 C42 1.481 . S
C55 H56 0.980 . S
C55 H57 0.981 . S
C55 H58 0.981 . S
H56 C55 0.980 . S
H57 C55 0.981 . S
H58 C55 0.981 . S
O59 Zn35 2.066 . S
O59 C38 1.256 . S
O60 Zn32 2.053 . S
O60 C38 1.244 1_655 S
C61 O39 1.259 . S
C61 O40 1.254 1_455 S
O62 Zn32 2.066 . S
O62 C34 1.256 1_655 S
O63 C34 1.244 . S
O63 Zn35 2.053 . S
Zn64 O65 2.055 . S
Zn64 O72 2.046 . S
Zn64 N80 2.036 . S
Zn64 O92 2.053 . S
Zn64 O94 2.066 . S
O65 Zn64 2.055 . S
O65 C68 1.259 . S
C66 O94 1.256 1_554 S
C66 O95 1.244 1_554 S
Zn67 O69 2.046 . S
Zn67 O71 2.055 . S
Zn67 N73 2.036 . S
Zn67 O91 2.066 . S
Zn67 O95 2.053 . S
C68 O65 1.259 . S
C68 O69 1.254 . S
O69 Zn67 2.046 . S
O69 C68 1.254 . S
C70 O91 1.256 . S
C70 O92 1.244 . S
O71 Zn67 2.055 . S
O71 C93 1.259 . S
O72 Zn64 2.046 . S
O72 C93 1.254 . S
N73 Zn67 2.036 . S
N73 C74 1.298 . S
N73 N76 1.398 . S
C74 N73 1.298 . S
C74 N77 1.367 . S
C74 C87 1.481 . S
C75 N76 1.299 . S
C75 N77 1.379 . S
N76 N73 1.398 . S
N76 C75 1.299 . S
N77 C74 1.367 . S
N77 C75 1.379 . S
C78 N80 1.298 . S
C78 N82 1.367 . S
C78 C86 1.481 . S
C79 N81 1.299 . S
C79 N82 1.379 . S
N80 Zn64 2.036 . S
N80 C78 1.298 . S
N80 N81 1.398 . S
N81 C79 1.299 . S
N81 N80 1.398 . S
N82 C78 1.367 . S
N82 C79 1.379 . S
H83 C86 0.980 . S
H84 C86 0.981 . S
H85 C86 0.981 . S
C86 C78 1.481 . S
C86 H83 0.980 . S
C86 H84 0.981 . S
C86 H85 0.981 . S
C87 C74 1.481 . S
C87 H88 0.980 . S
C87 H89 0.981 . S
C87 H90 0.981 . S
H88 C87 0.980 . S
H89 C87 0.981 . S
H90 C87 0.981 . S
O91 Zn67 2.066 . S
O91 C70 1.256 . S
O92 Zn64 2.053 . S
O92 C70 1.244 . S
C93 O71 1.259 . S
C93 O72 1.254 . S
O94 Zn64 2.066 . S
O94 C66 1.256 1_556 S
O95 C66 1.244 1_556 S
O95 Zn67 2.053 . S
Zn96 O97 2.055 . S
Zn96 O104 2.046 . S
Zn96 N112 2.036 . S
Zn96 O124 2.053 . S
Zn96 O126 2.066 . S
O97 Zn96 2.055 . S
O97 C100 1.259 . S
C98 O126 1.256 . S
C98 O127 1.244 . S
Zn99 O101 2.046 . S
Zn99 O103 2.055 . S
Zn99 N105 2.036 . S
Zn99 O123 2.066 . S
Zn99 O127 2.053 . S
C100 O97 1.259 . S
C100 O101 1.254 . S
O101 Zn99 2.046 . S
O101 C100 1.254 . S
C102 O123 1.256 1_556 S
C102 O124 1.244 1_556 S
O103 Zn99 2.055 . S
O103 C125 1.259 . S
O104 Zn96 2.046 . S
O104 C125 1.254 . S
N105 Zn99 2.036 . S
N105 C106 1.298 . S
N105 N108 1.398 . S
C106 N105 1.298 . S
C106 N109 1.367 . S
C106 C119 1.481 . S
C107 N108 1.299 . S
C107 N109 1.379 . S
N108 N105 1.398 . S
N108 C107 1.299 . S
N109 C106 1.367 . S
N109 C107 1.379 . S
C110 N112 1.298 . S
C110 N114 1.367 . S
C110 C118 1.481 . S
C111 N113 1.299 . S
C111 N114 1.379 . S
N112 Zn96 2.036 . S
N112 C110 1.298 . S
N112 N113 1.398 . S
N113 C111 1.299 . S
N113 N112 1.398 . S
N114 C110 1.367 . S
N114 C111 1.379 . S
H115 C118 0.980 . S
H116 C118 0.981 . S
H117 C118 0.981 . S
C118 C110 1.481 . S
C118 H115 0.980 . S
C118 H116 0.981 . S
C118 H117 0.981 . S
C119 C106 1.481 . S
C119 H120 0.980 . S
C119 H121 0.981 . S
C119 H122 0.981 . S
H120 C119 0.980 . S
H121 C119 0.981 . S
H122 C119 0.981 . S
O123 Zn99 2.066 . S
O123 C102 1.256 1_554 S
O124 Zn96 2.053 . S
O124 C102 1.244 1_554 S
C125 O103 1.259 . S
C125 O104 1.254 . S
O126 Zn96 2.066 . S
O126 C98 1.256 . S
O127 C98 1.244 . S
O127 Zn99 2.053 . S
H128 C140 0.930 . S
H129 C142 0.930 . S
H130 C143 0.930 . S
H131 C147 0.959 . S
H132 C147 0.959 . S
H133 C147 0.961 . S
H134 C148 0.960 . S
H135 C148 0.961 . S
H136 C148 0.959 . S
H137 C151 0.929 . S
H138 C152 0.931 . S
H139 C154 0.930 . S
C140 H128 0.930 . S
C140 C141 1.399 . S
C140 C145 1.399 . S
C141 C140 1.399 . S
C141 C142 1.376 . S
C142 H129 0.930 . S
C142 C141 1.376 . S
C142 C143 1.388 . S
C143 H130 0.930 . S
C143 C142 1.388 . S
C143 C144 1.390 . S
C144 C143 1.390 . S
C144 C145 1.394 . S
C144 C150 1.465 . S
C145 C140 1.399 . S
C145 C144 1.394 . S
C145 C146 1.516 . S
C146 C145 1.516 . S
C146 C147 1.502 1_455 S
C146 C148 1.561 . S
C146 C149 1.526 . S
C147 H131 0.959 . S
C147 H132 0.959 . S
C147 H133 0.961 . S
C147 C146 1.502 1_655 S
C148 H134 0.960 . S
C148 H135 0.961 . S
C148 H136 0.959 . S
C148 C146 1.561 . S
C149 C146 1.526 . S
C149 C150 1.396 . S
C149 C154 1.390 . S
C150 C144 1.465 . S
C150 C149 1.396 . S
C150 C151 1.399 . S
C151 H137 0.929 . S
C151 C150 1.399 . S
C151 C152 1.385 . S
C152 H138 0.931 . S
C152 C151 1.385 . S
C152 C153 1.389 . S
C153 C152 1.389 . S
C153 C154 1.387 . S
C154 H139 0.930 . S
C154 C149 1.390 . S
C154 C153 1.387 . S
H155 C167 0.930 . S
H156 C169 0.930 . S
H157 C170 0.930 . S
H158 C174 0.959 . S
H159 C174 0.959 . S
H160 C174 0.961 . S
H161 C175 0.960 . S
H162 C175 0.961 . S
H163 C175 0.959 . S
H164 C178 0.929 . S
H165 C179 0.931 . S
H166 C181 0.930 . S
C167 H155 0.930 . S
C167 C168 1.399 . S
C167 C172 1.399 . S
C168 C167 1.399 . S
C168 C169 1.376 . S
C169 H156 0.930 . S
C169 C168 1.376 . S
C169 C170 1.388 . S
C170 H157 0.930 . S
C170 C169 1.388 . S
C170 C171 1.390 . S
C171 C170 1.390 . S
C171 C172 1.394 . S
C171 C177 1.465 . S
C172 C167 1.399 . S
C172 C171 1.394 . S
C172 C173 1.516 . S
C173 C172 1.516 . S
C173 C174 1.502 . S
C173 C175 1.561 . S
C173 C176 1.526 . S
C174 H158 0.959 . S
C174 H159 0.959 . S
C174 H160 0.961 . S
C174 C173 1.502 . S
C175 H161 0.960 . S
C175 H162 0.961 . S
C175 H163 0.959 . S
C175 C173 1.561 . S
C176 C173 1.526 . S
C176 C177 1.396 . S
C176 C181 1.390 . S
C177 C171 1.465 . S
C177 C176 1.396 . S
C177 C178 1.399 . S
C178 H164 0.929 . S
C178 C177 1.399 . S
C178 C179 1.385 . S
C179 H165 0.931 . S
C179 C178 1.385 . S
C179 C180 1.389 . S
C180 C179 1.389 . S
C180 C181 1.387 . S
C181 H166 0.930 . S
C181 C176 1.390 . S
C181 C180 1.387 . S
H182 C194 0.930 . S
H183 C196 0.930 . S
H184 C197 0.930 . S
H185 C201 0.959 1_556 S
H186 C201 0.959 . S
H187 C201 0.961 . S
H188 C202 0.960 . S
H189 C202 0.961 . S
H190 C202 0.959 . S
H191 C205 0.929 . S
H192 C206 0.931 . S
H193 C208 0.930 . S
C194 H182 0.930 . S
C194 C195 1.399 . S
C194 C199 1.399 . S
C195 C194 1.399 . S
C195 C196 1.376 . S
C196 H183 0.930 . S
C196 C195 1.376 . S
C196 C197 1.388 1_554 S
C197 H184 0.930 . S
C197 C196 1.388 1_556 S
C197 C198 1.390 . S
C198 C197 1.390 . S
C198 C199 1.394 1_556 S
C198 C204 1.465 . S
C199 C194 1.399 . S
C199 C198 1.394 1_554 S
C199 C200 1.516 . S
C200 C199 1.516 . S
C200 C201 1.502 . S
C200 C202 1.561 . S
C200 C203 1.526 1_554 S
C201 H185 0.959 1_554 S
C201 H186 0.959 . S
C201 H187 0.961 . S
C201 C200 1.502 . S
C202 H188 0.960 . S
C202 H189 0.961 . S
C202 H190 0.959 . S
C202 C200 1.561 . S
C203 C200 1.526 1_556 S
C203 C204 1.396 . S
C203 C208 1.390 . S
C204 C198 1.465 . S
C204 C203 1.396 . S
C204 C205 1.399 . S
C205 H191 0.929 . S
C205 C204 1.399 . S
C205 C206 1.385 . S
C206 H192 0.931 . S
C206 C205 1.385 . S
C206 C207 1.389 . S
C207 C206 1.389 . S
C207 C208 1.387 . S
C208 H193 0.930 . S
C208 C203 1.390 . S
C208 C207 1.387 . S
H209 C221 0.930 . S
H210 C223 0.930 . S
H211 C224 0.930 . S
H212 C228 0.959 . S
H213 C228 0.959 . S
H214 C228 0.961 . S
H215 C229 0.960 . S
H216 C229 0.961 . S
H217 C229 0.959 . S
H218 C232 0.929 . S
H219 C233 0.931 . S
H220 C235 0.930 . S
C221 H209 0.930 . S
C221 C222 1.399 . S
C221 C226 1.399 . S
C222 C221 1.399 . S
C222 C223 1.376 . S
C223 H210 0.930 . S
C223 C222 1.376 . S
C223 C224 1.388 . S
C224 H211 0.930 . S
C224 C223 1.388 . S
C224 C225 1.390 . S
C225 C224 1.390 . S
C225 C226 1.394 . S
C225 C231 1.465 . S
C226 C221 1.399 . S
C226 C225 1.394 . S
C226 C227 1.516 . S
C227 C226 1.516 . S
C227 C228 1.502 . S
C227 C229 1.561 . S
C227 C230 1.526 . S
C228 H212 0.959 . S
C228 H213 0.959 . S
C228 H214 0.961 . S
C228 C227 1.502 . S
C229 H215 0.960 . S
C229 H216 0.961 . S
C229 H217 0.959 . S
C229 C227 1.561 . S
C230 C227 1.526 . S
C230 C231 1.396 . S
C230 C235 1.390 . S
C231 C225 1.465 . S
C231 C230 1.396 . S
C231 C232 1.399 . S
C232 H218 0.929 . S
C232 C231 1.399 . S
C232 C233 1.385 . S
C233 H219 0.931 . S
C233 C232 1.385 . S
C233 C234 1.389 . S
C234 C233 1.389 . S
C234 C235 1.387 . S
C235 H220 0.930 . S
C235 C230 1.390 . S
C235 C234 1.387 . S
H236 C248 0.930 . S
H237 C250 0.930 . S
H238 C251 0.930 . S
H239 C255 0.959 . S
H240 C255 0.959 . S
H241 C255 0.961 . S
H242 C256 0.960 . S
H243 C256 0.961 . S
H244 C256 0.959 . S
H245 C259 0.929 . S
H246 C260 0.931 . S
H247 C262 0.930 . S
C248 H236 0.930 . S
C248 C249 1.399 . S
C248 C253 1.399 . S
C249 C248 1.399 . S
C249 C250 1.376 . S
C250 H237 0.930 . S
C250 C249 1.376 . S
C250 C251 1.388 . S
C251 H238 0.930 . S
C251 C250 1.388 . S
C251 C252 1.390 . S
C252 C251 1.390 . S
C252 C253 1.394 . S
C252 C258 1.465 . S
C253 C248 1.399 . S
C253 C252 1.394 . S
C253 C254 1.516 . S
C254 C253 1.516 . S
C254 C255 1.502 . S
C254 C256 1.561 . S
C254 C257 1.526 . S
C255 H239 0.959 . S
C255 H240 0.959 . S
C255 H241 0.961 . S
C255 C254 1.502 . S
C256 H242 0.960 . S
C256 H243 0.961 . S
C256 H244 0.959 . S
C256 C254 1.561 . S
C257 C254 1.526 . S
C257 C258 1.396 . S
C257 C262 1.390 . S
C258 C252 1.465 . S
C258 C257 1.396 . S
C258 C259 1.399 . S
C259 H245 0.929 . S
C259 C258 1.399 . S
C259 C260 1.385 . S
C260 H246 0.931 . S
C260 C259 1.385 . S
C260 C261 1.389 . S
C261 C260 1.389 . S
C261 C262 1.387 . S
C262 H247 0.930 . S
C262 C257 1.390 . S
C262 C261 1.387 . S
H263 C275 0.930 . S
H264 C277 0.930 . S
H265 C278 0.930 . S
H266 C282 0.959 . S
H267 C282 0.959 . S
H268 C282 0.961 . S
H269 C283 0.960 . S
H270 C283 0.961 . S
H271 C283 0.959 . S
H272 C286 0.929 . S
H273 C287 0.931 . S
H274 C289 0.930 . S
C275 H263 0.930 . S
C275 C276 1.399 . S
C275 C280 1.399 . S
C276 C275 1.399 . S
C276 C277 1.376 . S
C277 H264 0.930 . S
C277 C276 1.376 . S
C277 C278 1.388 . S
C278 H265 0.930 . S
C278 C277 1.388 . S
C278 C279 1.390 . S
C279 C278 1.390 . S
C279 C280 1.394 . S
C279 C285 1.465 . S
C280 C275 1.399 . S
C280 C279 1.394 . S
C280 C281 1.516 . S
C281 C280 1.516 . S
C281 C282 1.502 . S
C281 C283 1.561 . S
C281 C284 1.526 . S
C282 H266 0.959 . S
C282 H267 0.959 . S
C282 H268 0.961 . S
C282 C281 1.502 . S
C283 H269 0.960 . S
C283 H270 0.961 . S
C283 H271 0.959 . S
C283 C281 1.561 . S
C284 C281 1.526 . S
C284 C285 1.396 . S
C284 C289 1.390 . S
C285 C279 1.465 . S
C285 C284 1.396 . S
C285 C286 1.399 . S
C286 H272 0.929 . S
C286 C285 1.399 . S
C286 C287 1.385 . S
C287 H273 0.931 . S
C287 C286 1.385 . S
C287 C288 1.389 . S
C288 C287 1.389 . S
C288 C289 1.387 . S
C289 H274 0.930 . S
C289 C284 1.390 . S
C289 C288 1.387 . S
H290 C302 0.930 . S
H291 C304 0.930 . S
H292 C305 0.930 . S
H293 C309 0.959 1_554 S
H294 C309 0.959 . S
H295 C309 0.961 . S
H296 C310 0.960 . S
H297 C310 0.961 . S
H298 C310 0.959 . S
H299 C313 0.929 . S
H300 C314 0.931 . S
H301 C316 0.930 . S
C302 H290 0.930 . S
C302 C303 1.399 . S
C302 C307 1.399 . S
C303 C302 1.399 . S
C303 C304 1.376 1_556 S
C304 H291 0.930 . S
C304 C303 1.376 1_554 S
C304 C305 1.388 . S
C305 H292 0.930 . S
C305 C304 1.388 . S
C305 C306 1.390 . S
C306 C305 1.390 . S
C306 C307 1.394 1_554 S
C306 C312 1.465 1_565 S
C307 C302 1.399 . S
C307 C306 1.394 1_556 S
C307 C308 1.516 1_565 S
C308 C307 1.516 1_545 S
C308 C309 1.502 . S
C308 C310 1.561 . S
C308 C311 1.526 1_556 S
C309 H293 0.959 1_556 S
C309 H294 0.959 . S
C309 H295 0.961 . S
C309 C308 1.502 . S
C310 H296 0.960 . S
C310 H297 0.961 . S
C310 H298 0.959 . S
C310 C308 1.561 . S
C311 C308 1.526 1_554 S
C311 C312 1.396 . S
C311 C316 1.390 . S
C312 C306 1.465 1_545 S
C312 C311 1.396 . S
C312 C313 1.399 . S
C313 H299 0.929 . S
C313 C312 1.399 . S
C313 C314 1.385 . S
C314 H300 0.931 . S
C314 C313 1.385 . S
C314 C315 1.389 . S
C315 C314 1.389 . S
C315 C316 1.387 . S
C316 H301 0.930 . S
C316 C311 1.390 . S
C316 C315 1.387 . S
H317 C329 0.930 . S
H318 C331 0.930 . S
H319 C332 0.930 . S
H320 C336 0.959 . S
H321 C336 0.959 . S
H322 C336 0.961 . S
H323 C337 0.960 . S
H324 C337 0.961 . S
H325 C337 0.959 . S
H326 C340 0.929 . S
H327 C341 0.931 . S
H328 C343 0.930 . S
C329 H317 0.930 . S
C329 C330 1.399 . S
C329 C334 1.399 . S
C330 C329 1.399 . S
C330 C331 1.376 . S
C331 H318 0.930 . S
C331 C330 1.376 . S
C331 C332 1.388 . S
C332 H319 0.930 . S
C332 C331 1.388 . S
C332 C333 1.390 . S
C333 C332 1.390 . S
C333 C334 1.394 . S
C333 C339 1.465 . S
C334 C329 1.399 . S
C334 C333 1.394 . S
C334 C335 1.516 . S
C335 C334 1.516 . S
C335 C336 1.502 1_455 S
C335 C337 1.561 . S
C335 C338 1.526 . S
C336 H320 0.959 . S
C336 H321 0.959 . S
C336 H322 0.961 . S
C336 C335 1.502 1_655 S
C337 H323 0.960 . S
C337 H324 0.961 . S
C337 H325 0.959 . S
C337 C335 1.561 . S
C338 C335 1.526 . S
C338 C339 1.396 . S
C338 C343 1.390 1_565 S
C339 C333 1.465 . S
C339 C338 1.396 . S
C339 C340 1.399 . S
C340 H326 0.929 . S
C340 C339 1.399 . S
C340 C341 1.385 1_565 S
C341 H327 0.931 . S
C341 C340 1.385 1_545 S
C341 C342 1.389 . S
C342 C341 1.389 . S
C342 C343 1.387 . S
C343 H328 0.930 . S
C343 C338 1.390 1_545 S
C343 C342 1.387 . S
H344 C356 0.930 . S
H345 C358 0.930 . S
H346 C359 0.930 . S
H347 C363 0.959 . S
H348 C363 0.959 1_655 S
H349 C363 0.961 . S
H350 C364 0.960 . S
H351 C364 0.961 . S
H352 C364 0.959 . S
H353 C367 0.929 . S
H354 C368 0.931 . S
H355 C370 0.930 1_655 S
C356 H344 0.930 . S
C356 C357 1.399 . S
C356 C361 1.399 1_554 S
C357 C356 1.399 . S
C357 C358 1.376 . S
C358 H345 0.930 . S
C358 C357 1.376 . S
C358 C359 1.388 1_554 S
C359 H346 0.930 . S
C359 C358 1.388 1_556 S
C359 C360 1.390 . S
C360 C359 1.390 . S
C360 C361 1.394 . S
C360 C366 1.465 . S
C361 C356 1.399 1_556 S
C361 C360 1.394 . S
C361 C362 1.516 1_455 S
C362 C361 1.516 1_655 S
C362 C363 1.502 1_655 S
C362 C364 1.561 . S
C362 C365 1.526 1_655 S
C363 H347 0.959 . S
C363 H348 0.959 1_455 S
C363 H349 0.961 . S
C363 C362 1.502 1_455 S
C364 H350 0.960 . S
C364 H351 0.961 . S
C364 H352 0.959 . S
C364 C362 1.561 . S
C365 C362 1.526 1_455 S
C365 C366 1.396 . S
C365 C370 1.390 . S
C366 C360 1.465 . S
C366 C365 1.396 . S
C366 C367 1.399 . S
C367 H353 0.929 . S
C367 C366 1.399 . S
C367 C368 1.385 . S
C368 H354 0.931 . S
C368 C367 1.385 . S
C368 C369 1.389 . S
C369 C368 1.389 . S
C369 C370 1.387 . S
C370 H355 0.930 1_455 S
C370 C365 1.390 . S
C370 C369 1.387 . S
H371 C383 0.930 . S
H372 C385 0.930 . S
H373 C386 0.930 1_554 S
H374 C390 0.959 . S
H375 C390 0.959 . S
H376 C390 0.953 1_556 S
H377 C391 0.960 . S
H378 C391 0.961 . S
H379 C391 0.959 . S
H380 C394 0.929 . S
H381 C395 0.931 . S
H382 C397 0.930 . S
C383 H371 0.930 . S
C383 C384 1.399 1_655 S
C383 C388 1.399 . S
C384 C383 1.399 1_455 S
C384 C385 1.376 . S
C385 H372 0.930 . S
C385 C384 1.376 . S
C385 C386 1.388 . S
C386 H373 0.930 1_556 S
C386 C385 1.388 . S
C386 C387 1.390 1_556 S
C387 C386 1.390 1_554 S
C387 C388 1.394 1_454 S
C387 C393 1.465 . S
C388 C383 1.399 . S
C388 C387 1.394 1_656 S
C388 C389 1.516 1_556 S
C389 C388 1.516 1_554 S
C389 C390 1.502 . S
C389 C391 1.561 . S
C389 C392 1.526 . S
C390 H374 0.959 . S
C390 H375 0.959 . S
C390 H376 0.953 1_554 S
C390 C389 1.502 . S
C391 H377 0.960 . S
C391 H378 0.961 . S
C391 H379 0.959 . S
C391 C389 1.561 . S
C392 C389 1.526 . S
C392 C393 1.396 1_655 S
C392 C397 1.390 . S
C393 C387 1.465 . S
C393 C392 1.396 1_455 S
C393 C394 1.399 . S
C394 H380 0.929 . S
C394 C393 1.399 . S
C394 C395 1.385 . S
C395 H381 0.931 . S
C395 C394 1.385 . S
C395 C396 1.389 . S
C396 C395 1.389 . S
C396 C397 1.387 1_455 S
C397 H382 0.930 . S
C397 C392 1.390 . S
C397 C396 1.387 1_655 S
H398 C410 0.930 . S
H399 C412 0.930 . S
H400 C413 0.930 . S
H401 C417 0.959 . S
H402 C417 0.959 . S
H403 C417 0.961 . S
H404 C418 0.960 . S
H405 C418 0.961 . S
H406 C418 0.959 . S
H407 C421 0.929 . S
H408 C422 0.931 . S
H409 C424 0.930 . S
C410 H398 0.930 . S
C410 C411 1.399 . S
C410 C415 1.399 . S
C411 C410 1.399 . S
C411 C412 1.376 . S
C412 H399 0.930 . S
C412 C411 1.376 . S
C412 C413 1.388 . S
C413 H400 0.930 . S
C413 C412 1.388 . S
C413 C414 1.390 . S
C414 C413 1.390 . S
C414 C415 1.394 . S
C414 C420 1.465 . S
C415 C410 1.399 . S
C415 C414 1.394 . S
C415 C416 1.516 . S
C416 C415 1.516 . S
C416 C417 1.502 . S
C416 C418 1.561 . S
C416 C419 1.526 . S
C417 H401 0.959 . S
C417 H402 0.959 . S
C417 H403 0.961 . S
C417 C416 1.502 . S
C418 H404 0.960 . S
C418 H405 0.961 . S
C418 H406 0.959 . S
C418 C416 1.561 . S
C419 C416 1.526 . S
C419 C420 1.396 . S
C419 C424 1.390 . S
C420 C414 1.465 . S
C420 C419 1.396 . S
C420 C421 1.399 . S
C421 H407 0.929 . S
C421 C420 1.399 . S
C421 C422 1.385 . S
C422 H408 0.931 . S
C422 C421 1.385 . S
C422 C423 1.389 . S
C423 C422 1.389 . S
C423 C424 1.387 . S
C424 H409 0.930 . S
C424 C419 1.390 . S
C424 C423 1.387 . S
H425 C437 0.930 . S
H426 C439 0.930 . S
H427 C440 0.930 . S
H428 C444 0.959 . S
H429 C444 0.959 . S
H430 C444 0.961 . S
H431 C445 0.960 . S
H432 C445 0.961 . S
H433 C445 0.959 . S
H434 C448 0.929 . S
H435 C449 0.931 . S
H436 C451 0.930 . S
C437 H425 0.930 . S
C437 C438 1.399 . S
C437 C442 1.399 . S
C438 C437 1.399 . S
C438 C439 1.376 . S
C439 H426 0.930 . S
C439 C438 1.376 . S
C439 C440 1.388 . S
C440 H427 0.930 . S
C440 C439 1.388 . S
C440 C441 1.390 . S
C441 C440 1.390 . S
C441 C442 1.394 . S
C441 C447 1.465 . S
C442 C437 1.399 . S
C442 C441 1.394 . S
C442 C443 1.516 . S
C443 C442 1.516 . S
C443 C444 1.502 . S
C443 C445 1.561 . S
C443 C446 1.526 . S
C444 H428 0.959 . S
C444 H429 0.959 . S
C444 H430 0.961 . S
C444 C443 1.502 . S
C445 H431 0.960 . S
C445 H432 0.961 . S
C445 H433 0.959 . S
C445 C443 1.561 . S
C446 C443 1.526 . S
C446 C447 1.396 . S
C446 C451 1.390 . S
C447 C441 1.465 . S
C447 C446 1.396 . S
C447 C448 1.399 . S
C448 H434 0.929 . S
C448 C447 1.399 . S
C448 C449 1.385 . S
C449 H435 0.931 . S
C449 C448 1.385 . S
C449 C450 1.389 . S
C450 C449 1.389 . S
C450 C451 1.387 . S
C451 H436 0.930 . S
C451 C446 1.390 . S
C451 C450 1.387 . S
C141 N18 2.289 . S
C153 C36 2.240 . S
C168 C70 1.298 . S
C180 N50 1.337 . S
C195 N109 1.248 . S
C207 N77 1.187 . S
C222 C4 2.111 . S
C234 C125 2.065 . S
C249 C98 2.678 . S
C261 C6 2.672 . S
C276 C68 0.904 . S
C288 N45 0.922 . S
C303 N82 1.124 . S
C315 N114 1.093 . S
C330 C38 2.529 . S
C342 N13 2.404 . S
C357 C29 1.006 . S
C369 C2 1.020 . S
C384 C34 1.028 . S
C396 C61 1.030 . S
C411 C66 1.015 . S
C423 C93 1.016 . S
C438 C100 0.993 . S
C450 C102 1.029 . S
