# Generated by pormake.
# Topology unr, (4)-cn, num edge types: 1
# Building blocks:
#     Node 0, Type 0, BuildingBlock: QUQFOY_clean_sbu_1, # of connection points: 4
#     Node 1, Type 0, BuildingBlock: QUQFOY_clean_sbu_1, # of connection points: 4
#     Node 2, Type 0, BuildingBlock: QUQFOY_clean_sbu_1, # of connection points: 4
#     Node 3, Type 0, BuildingBlock: QUQFOY_clean_sbu_1, # of connection points: 4
#     Node 4, Type 0, BuildingBlock: QUQFOY_clean_sbu_1, # of connection points: 4
#     Node 5, Type 0, BuildingBlock: QUQFOY_clean_sbu_1, # of connection points: 4
#     Node 6, Type 0, BuildingBlock: QUQFOY_clean_sbu_1, # of connection points: 4
#     Node 7, Type 0, BuildingBlock: QUQFOY_clean_sbu_1, # of connection points: 4
#     Node 8, Type 0, BuildingBlock: QUQFOY_clean_sbu_1, # of connection points: 4
#     Node 9, Type 0, BuildingBlock: QUQFOY_clean_sbu_1, # of connection points: 4
#     Node 10, Type 0, BuildingBlock: QUQFOY_clean_sbu_1, # of connection points: 4
#     Node 11, Type 0, BuildingBlock: QUQFOY_clean_sbu_1, # of connection points: 4
#     Node 12, Type 0, BuildingBlock: QUQFOY_clean_sbu_1, # of connection points: 4
#     Node 13, Type 0, BuildingBlock: QUQFOY_clean_sbu_1, # of connection points: 4
#     Node 14, Type 0, BuildingBlock: QUQFOY_clean_sbu_1, # of connection points: 4
#     Node 15, Type 0, BuildingBlock: QUQFOY_clean_sbu_1, # of connection points: 4
#     Node 16, Type 0, BuildingBlock: QUQFOY_clean_sbu_1, # of connection points: 4
#     Node 17, Type 0, BuildingBlock: QUQFOY_clean_sbu_1, # of connection points: 4
#     Node 18, Type 0, BuildingBlock: QUQFOY_clean_sbu_1, # of connection points: 4
#     Node 19, Type 0, BuildingBlock: QUQFOY_clean_sbu_1, # of connection points: 4
#     Node 20, Type 0, BuildingBlock: QUQFOY_clean_sbu_1, # of connection points: 4
#     Node 21, Type 0, BuildingBlock: QUQFOY_clean_sbu_1, # of connection points: 4
#     Node 22, Type 0, BuildingBlock: QUQFOY_clean_sbu_1, # of connection points: 4
#     Node 23, Type 0, BuildingBlock: QUQFOY_clean_sbu_1, # of connection points: 4
#     Node 24, Type 0, BuildingBlock: QUQFOY_clean_sbu_1, # of connection points: 4
#     Node 25, Type 0, BuildingBlock: QUQFOY_clean_sbu_1, # of connection points: 4
#     Node 26, Type 0, BuildingBlock: QUQFOY_clean_sbu_1, # of connection points: 4
#     Node 27, Type 0, BuildingBlock: QUQFOY_clean_sbu_1, # of connection points: 4
#     Node 28, Type 0, BuildingBlock: QUQFOY_clean_sbu_1, # of connection points: 4
#     Node 29, Type 0, BuildingBlock: QUQFOY_clean_sbu_1, # of connection points: 4
#     Node 30, Type 0, BuildingBlock: QUQFOY_clean_sbu_1, # of connection points: 4
#     Node 31, Type 0, BuildingBlock: QUQFOY_clean_sbu_1, # of connection points: 4
#     Node 32, Type 0, BuildingBlock: QUQFOY_clean_sbu_1, # of connection points: 4
#     Node 33, Type 0, BuildingBlock: QUQFOY_clean_sbu_1, # of connection points: 4
#     Node 34, Type 0, BuildingBlock: QUQFOY_clean_sbu_1, # of connection points: 4
#     Node 35, Type 0, BuildingBlock: QUQFOY_clean_sbu_1, # of connection points: 4
#     Edge 36, Type (0, 0), BuildingBlock: EZIPEK_clean_linker_0, # of connection points: 2
#     Edge 37, Type (0, 0), BuildingBlock: EZIPEK_clean_linker_0, # of connection points: 2
#     Edge 38, Type (0, 0), BuildingBlock: EZIPEK_clean_linker_0, # of connection points: 2
#     Edge 39, Type (0, 0), BuildingBlock: EZIPEK_clean_linker_0, # of connection points: 2
#     Edge 40, Type (0, 0), BuildingBlock: EZIPEK_clean_linker_0, # of connection points: 2
#     Edge 41, Type (0, 0), BuildingBlock: EZIPEK_clean_linker_0, # of connection points: 2
#     Edge 42, Type (0, 0), BuildingBlock: EZIPEK_clean_linker_0, # of connection points: 2
#     Edge 43, Type (0, 0), BuildingBlock: EZIPEK_clean_linker_0, # of connection points: 2
#     Edge 44, Type (0, 0), BuildingBlock: EZIPEK_clean_linker_0, # of connection points: 2
#     Edge 45, Type (0, 0), BuildingBlock: EZIPEK_clean_linker_0, # of connection points: 2
#     Edge 46, Type (0, 0), BuildingBlock: EZIPEK_clean_linker_0, # of connection points: 2
#     Edge 47, Type (0, 0), BuildingBlock: EZIPEK_clean_linker_0, # of connection points: 2
#     Edge 48, Type (0, 0), BuildingBlock: EZIPEK_clean_linker_0, # of connection points: 2
#     Edge 49, Type (0, 0), BuildingBlock: EZIPEK_clean_linker_0, # of connection points: 2
#     Edge 50, Type (0, 0), BuildingBlock: EZIPEK_clean_linker_0, # of connection points: 2
#     Edge 51, Type (0, 0), BuildingBlock: EZIPEK_clean_linker_0, # of connection points: 2
#     Edge 52, Type (0, 0), BuildingBlock: EZIPEK_clean_linker_0, # of connection points: 2
#     Edge 53, Type (0, 0), BuildingBlock: EZIPEK_clean_linker_0, # of connection points: 2
#     Edge 54, Type (0, 0), BuildingBlock: EZIPEK_clean_linker_0, # of connection points: 2
#     Edge 55, Type (0, 0), BuildingBlock: EZIPEK_clean_linker_0, # of connection points: 2
#     Edge 56, Type (0, 0), BuildingBlock: EZIPEK_clean_linker_0, # of connection points: 2
#     Edge 57, Type (0, 0), BuildingBlock: EZIPEK_clean_linker_0, # of connection points: 2
#     Edge 58, Type (0, 0), BuildingBlock: EZIPEK_clean_linker_0, # of connection points: 2
#     Edge 59, Type (0, 0), BuildingBlock: EZIPEK_clean_linker_0, # of connection points: 2
#     Edge 60, Type (0, 0), BuildingBlock: EZIPEK_clean_linker_0, # of connection points: 2
#     Edge 61, Type (0, 0), BuildingBlock: EZIPEK_clean_linker_0, # of connection points: 2
#     Edge 62, Type (0, 0), BuildingBlock: EZIPEK_clean_linker_0, # of connection points: 2
#     Edge 63, Type (0, 0), BuildingBlock: EZIPEK_clean_linker_0, # of connection points: 2
#     Edge 64, Type (0, 0), BuildingBlock: EZIPEK_clean_linker_0, # of connection points: 2
#     Edge 65, Type (0, 0), BuildingBlock: EZIPEK_clean_linker_0, # of connection points: 2
#     Edge 66, Type (0, 0), BuildingBlock: EZIPEK_clean_linker_0, # of connection points: 2
#     Edge 67, Type (0, 0), BuildingBlock: EZIPEK_clean_linker_0, # of connection points: 2
#     Edge 68, Type (0, 0), BuildingBlock: EZIPEK_clean_linker_0, # of connection points: 2
#     Edge 69, Type (0, 0), BuildingBlock: EZIPEK_clean_linker_0, # of connection points: 2
#     Edge 70, Type (0, 0), BuildingBlock: EZIPEK_clean_linker_0, # of connection points: 2
#     Edge 71, Type (0, 0), BuildingBlock: EZIPEK_clean_linker_0, # of connection points: 2
#     Edge 72, Type (0, 0), BuildingBlock: EZIPEK_clean_linker_0, # of connection points: 2
#     Edge 73, Type (0, 0), BuildingBlock: EZIPEK_clean_linker_0, # of connection points: 2
#     Edge 74, Type (0, 0), BuildingBlock: EZIPEK_clean_linker_0, # of connection points: 2
#     Edge 75, Type (0, 0), BuildingBlock: EZIPEK_clean_linker_0, # of connection points: 2
#     Edge 76, Type (0, 0), BuildingBlock: EZIPEK_clean_linker_0, # of connection points: 2
#     Edge 77, Type (0, 0), BuildingBlock: EZIPEK_clean_linker_0, # of connection points: 2
#     Edge 78, Type (0, 0), BuildingBlock: EZIPEK_clean_linker_0, # of connection points: 2
#     Edge 79, Type (0, 0), BuildingBlock: EZIPEK_clean_linker_0, # of connection points: 2
#     Edge 80, Type (0, 0), BuildingBlock: EZIPEK_clean_linker_0, # of connection points: 2
#     Edge 81, Type (0, 0), BuildingBlock: EZIPEK_clean_linker_0, # of connection points: 2
#     Edge 82, Type (0, 0), BuildingBlock: EZIPEK_clean_linker_0, # of connection points: 2
#     Edge 83, Type (0, 0), BuildingBlock: EZIPEK_clean_linker_0, # of connection points: 2
#     Edge 84, Type (0, 0), BuildingBlock: EZIPEK_clean_linker_0, # of connection points: 2
#     Edge 85, Type (0, 0), BuildingBlock: EZIPEK_clean_linker_0, # of connection points: 2
#     Edge 86, Type (0, 0), BuildingBlock: EZIPEK_clean_linker_0, # of connection points: 2
#     Edge 87, Type (0, 0), BuildingBlock: EZIPEK_clean_linker_0, # of connection points: 2
#     Edge 88, Type (0, 0), BuildingBlock: EZIPEK_clean_linker_0, # of connection points: 2
#     Edge 89, Type (0, 0), BuildingBlock: EZIPEK_clean_linker_0, # of connection points: 2
#     Edge 90, Type (0, 0), BuildingBlock: EZIPEK_clean_linker_0, # of connection points: 2
#     Edge 91, Type (0, 0), BuildingBlock: EZIPEK_clean_linker_0, # of connection points: 2
#     Edge 92, Type (0, 0), BuildingBlock: EZIPEK_clean_linker_0, # of connection points: 2
#     Edge 93, Type (0, 0), BuildingBlock: EZIPEK_clean_linker_0, # of connection points: 2
#     Edge 94, Type (0, 0), BuildingBlock: EZIPEK_clean_linker_0, # of connection points: 2
#     Edge 95, Type (0, 0), BuildingBlock: EZIPEK_clean_linker_0, # of connection points: 2
#     Edge 96, Type (0, 0), BuildingBlock: EZIPEK_clean_linker_0, # of connection points: 2
#     Edge 97, Type (0, 0), BuildingBlock: EZIPEK_clean_linker_0, # of connection points: 2
#     Edge 98, Type (0, 0), BuildingBlock: EZIPEK_clean_linker_0, # of connection points: 2
#     Edge 99, Type (0, 0), BuildingBlock: EZIPEK_clean_linker_0, # of connection points: 2
#     Edge 100, Type (0, 0), BuildingBlock: EZIPEK_clean_linker_0, # of connection points: 2
#     Edge 101, Type (0, 0), BuildingBlock: EZIPEK_clean_linker_0, # of connection points: 2
#     Edge 102, Type (0, 0), BuildingBlock: EZIPEK_clean_linker_0, # of connection points: 2
#     Edge 103, Type (0, 0), BuildingBlock: EZIPEK_clean_linker_0, # of connection points: 2
#     Edge 104, Type (0, 0), BuildingBlock: EZIPEK_clean_linker_0, # of connection points: 2
#     Edge 105, Type (0, 0), BuildingBlock: EZIPEK_clean_linker_0, # of connection points: 2
#     Edge 106, Type (0, 0), BuildingBlock: EZIPEK_clean_linker_0, # of connection points: 2
#     Edge 107, Type (0, 0), BuildingBlock: EZIPEK_clean_linker_0, # of connection points: 2
# Relax obj value: 0.297
# Max RMSD: 0.115
# Mean RMSD: 0.115
data_MOF--net-unr--node1-QUQFOY_clean_sbu_1--edge1-EZIPEK_clean_linker_0
_symmetry_space_group_name_H-M    P1
_symmetry_Int_Tables_number       1
_symmetry_cell_setting            triclinic
loop_
_symmetry_equiv_pos_as_xyz
'x, y, z'
_cell_length_a     36.603856
_cell_length_b     36.611921
_cell_length_c     102.82266
_cell_angle_alpha  90.051969
_cell_angle_beta   89.970116
_cell_angle_gamma 119.96961
loop_
_atom_site_label
_atom_site_type_symbol
_atom_site_fract_x
_atom_site_fract_y
_atom_site_fract_z
_atom_type_partial_charge
O0 O 0.13747 0.05503 0.17364 0.0
Cd1 Cd 0.17468 0.11878 0.17606 0.0
Cd2 Cd 0.13513 0.09412 0.20101 0.0
O3 O 0.1264 0.03689 0.19436 0.0
O4 O 0.21132 0.13255 0.16058 0.0
O5 O 0.23425 0.13711 0.18086 0.0
C6 C 0.24099 0.13813 0.16849 0.0
C7 C 0.13653 0.10907 0.22321 0.0
C8 C 0.1247 0.02702 0.18242 0.0
C9 C 0.11577 0.14746 0.18264 0.0
O10 O 0.10457 0.1204 0.19167 0.0
O11 O 0.14797 0.15682 0.17571 0.0
O12 O 0.10321 0.07954 0.21774 0.0
O13 O 0.17058 0.12801 0.21635 0.0
O14 O 0.94026 0.10443 0.18073 0.0
Cd15 Cd 0.8772 0.07004 0.18489 0.0
Cd16 Cd 0.90575 0.07625 0.20762 0.0
O17 O 0.95664 0.13088 0.20035 0.0
O18 O 0.84917 0.08791 0.17209 0.0
O19 O 0.85517 0.10393 0.19323 0.0
C20 C 0.84513 0.10886 0.18157 0.0
C21 C 0.87576 0.06637 0.22808 0.0
C22 C 0.96656 0.13238 0.18841 0.0
C23 C 0.87292 0.9947 0.19347 0.0
O24 O 0.90046 0.02073 0.20126 0.0
O25 O 0.85179 0.00584 0.18639 0.0
O26 O 0.91338 0.07251 0.22658 0.0
O27 O 0.85675 0.07064 0.21811 0.0
O28 O 0.91197 0.84383 0.18297 0.0
Cd29 Cd 0.93459 0.80372 0.18021 0.0
Cd30 Cd 0.96623 0.83415 0.20533 0.0
O31 O 0.92446 0.85659 0.20401 0.0
O32 O 0.89838 0.76754 0.16591 0.0
O33 O 0.89916 0.74394 0.1858 0.0
C34 C 0.88308 0.73725 0.17426 0.0
C35 C 0.98939 0.82771 0.22605 0.0
C36 C 0.90914 0.86077 0.19338 0.0
C37 C 0.02495 0.85937 0.18143 0.0
O38 O 0.017 0.86363 0.19316 0.0
O39 O -0.00387 0.83242 0.17413 0.0
O40 O -0.00287 0.86343 0.22146 0.0
O41 O 0.96647 0.79447 0.21918 0.0
O42 O 0.06556 0.14463 0.32672 0.0
Cd43 Cd 0.12813 0.17993 0.32202 0.0
Cd44 Cd 0.09865 0.13777 0.29858 0.0
O45 O 0.04255 0.12849 0.30652 0.0
O46 O 0.14924 0.22643 0.33479 0.0
O47 O 0.143 0.23455 0.31358 0.0
C48 C 0.15038 0.24984 0.32525 0.0
C49 C 0.11004 0.14221 0.27614 0.0
C50 C 0.03547 0.1297 0.3186 0.0
C51 C 0.15568 0.11992 0.31572 0.0
O52 O 0.12759 0.10805 0.30697 0.0
O53 O 0.16571 0.15268 0.32245 0.0
O54 O 0.08249 0.10762 0.28154 0.0
O55 O 0.12921 0.17559 0.28328 0.0
O56 O 0.85271 0.91951 0.32167 0.0
Cd57 Cd 0.81267 0.94206 0.32469 0.0
Cd58 Cd 0.84013 0.97086 0.29898 0.0
O59 O 0.86143 0.92827 0.30038 0.0
O60 O 0.77869 0.90775 0.33961 0.0
O61 O 0.75219 0.90532 0.31994 0.0
C62 C 0.74723 0.89099 0.33168 0.0
C63 C 0.83436 0.99334 0.27807 0.0
C64 C 0.86755 0.91475 0.31108 0.0
C65 C 0.86848 0.03188 0.32246 0.0
O66 O 0.8712 0.02241 0.31077 0.0
O67 O 0.84213 0.00421 0.33016 0.0
O68 O 0.86977 0.00041 0.28272 0.0
O69 O 0.80099 0.97156 0.28499 0.0
O70 O 0.11496 0.94526 0.32106 0.0
Cd71 Cd 0.077 0.88155 0.31868 0.0
Cd72 Cd 0.0804 0.90447 0.29512 0.0
O73 O 0.13643 0.95682 0.30084 0.0
O74 O 0.09315 0.85615 0.33285 0.0
O75 O 0.10587 0.85171 0.31208 0.0
C76 C 0.11075 0.8447 0.32409 0.0
C77 C 0.06732 0.87093 0.27512 0.0
C78 C 0.1409 0.96956 0.31257 0.0
C79 C 0.00149 0.878 0.31036 0.0
O80 O 0.02633 0.90214 0.30166 0.0
O81 O 0.01318 0.85885 0.31809 0.0
O82 O 0.0742 0.90892 0.27612 0.0
O83 O 0.0724 0.85327 0.2853 0.0
O84 O 0.84217 0.92748 0.82402 0.0
Cd85 Cd 0.81271 0.86458 0.81938 0.0
Cd86 Cd 0.84327 0.89639 0.79754 0.0
O87 O 0.83036 0.94199 0.80446 0.0
O88 O 0.76542 0.83709 0.8317 0.0
O89 O 0.75788 0.84469 0.81049 0.0
C90 C 0.74178 0.83498 0.82206 0.0
C91 C 0.84353 0.87782 0.77582 0.0
C92 C 0.83796 0.95232 0.81638 0.0
C93 C 0.88468 0.85964 0.81236 0.0
O94 O 0.89184 0.89259 0.8062 0.0
O95 O 0.84859 0.83604 0.8173 0.0
O96 O 0.8652 0.91626 0.77975 0.0
O97 O 0.81662 0.85071 0.78389 0.0
O98 O 0.06495 0.90086 0.82094 0.0
Cd99 Cd 0.12913 0.93128 0.82208 0.0
Cd100 Cd 0.12035 0.94906 0.79732 0.0
O101 O 0.06279 0.89447 0.79977 0.0
O102 O 0.13863 0.90194 0.83665 0.0
O103 O 0.15563 0.89837 0.81605 0.0
C104 C 0.15164 0.88563 0.82797 0.0
C105 C 0.14804 0.96707 0.77628 0.0
C106 C 0.04435 0.88307 0.81072 0.0
C107 C 0.1486 0.01608 0.81855 0.0
O108 O 0.13023 0.00129 0.80776 0.0
O109 O 0.15882 0.9946 0.82578 0.0
O110 O 0.11448 0.96756 0.77963 0.0
O111 O 0.16577 0.95496 0.78475 0.0
O112 O 0.07462 0.13935 0.82982 0.0
Cd113 Cd 0.04409 0.17313 0.82815 0.0
Cd114 Cd 0.03389 0.14638 0.80383 0.0
O115 O 0.08008 0.13233 0.80873 0.0
O116 O 0.07011 0.21698 0.84166 0.0
O117 O 0.07837 0.23049 0.82064 0.0
C118 C 0.08806 0.24414 0.83244 0.0
C119 C 0.02852 0.16669 0.7828 0.0
C120 C 0.08867 0.12768 0.82038 0.0
C121 C 0.95798 0.11165 0.82161 0.0
O122 O 0.97539 0.10752 0.81149 0.0
O123 O 0.97919 0.1411 0.82964 0.0
O124 O 0.0222 0.12958 0.78527 0.0
O125 O 0.04072 0.19387 0.79213 0.0
O126 O 0.94474 0.847 0.67747 0.0
Cd127 Cd 0.88129 0.81651 0.68131 0.0
Cd128 Cd 0.91035 0.84126 0.70401 0.0
O129 O 0.95563 0.82862 0.69659 0.0
O130 O 0.85457 0.77323 0.66768 0.0
O131 O 0.86066 0.75932 0.68848 0.0
C132 C 0.85087 0.74666 0.67657 0.0
C133 C 0.89043 0.83713 0.72576 0.0
C134 C 0.96786 0.83958 0.68494 0.0
C135 C 0.87455 0.88576 0.6905 0.0
O136 O 0.90729 0.8919 0.6966 0.0
O137 O 0.85187 0.85097 0.68472 0.0
O138 O 0.86374 0.8121 0.71722 0.0
O139 O 0.92921 0.85905 0.72217 0.0
O140 O 0.14687 0.0733 0.67725 0.0
Cd141 Cd 0.18446 0.04679 0.67756 0.0
Cd142 Cd 0.15578 0.02966 0.70258 0.0
O143 O 0.1396 0.07499 0.69851 0.0
O144 O 0.22318 0.07555 0.66294 0.0
O145 O 0.24306 0.08447 0.68373 0.0
C146 C 0.25172 0.09529 0.67165 0.0
C147 C 0.17153 0.02109 0.724 0.0
C148 C 0.13444 0.08496 0.6871 0.0
C149 C 0.12708 0.95845 0.68275 0.0
O150 O 0.1213 0.97263 0.69335 0.0
O151 O 0.15619 0.98264 0.67502 0.0
O152 O 0.13425 0.01232 0.72061 0.0
O153 O 0.20106 0.03662 0.71537 0.0
O154 O 0.90836 0.06421 0.68617 0.0
Cd155 Cd 0.93879 0.12853 0.6859 0.0
Cd156 Cd 0.95331 0.11564 0.71022 0.0
O157 O 0.89918 0.05827 0.70724 0.0
O158 O 0.9123 0.14009 0.67096 0.0
O159 O 0.90436 0.15394 0.69154 0.0
C160 C 0.89414 0.15174 0.67941 0.0
C161 C 0.97137 0.14356 0.73118 0.0
C162 C 0.88964 0.04165 0.696 0.0
C163 C 0.02221 0.14511 0.68981 0.0
O164 O 0.00566 0.12464 0.70016 0.0
O165 O 0.00257 0.15821 0.68284 0.0
O166 O 0.97116 0.10956 0.72794 0.0
O167 O 0.95927 0.16127 0.7227 0.0
O168 O 0.79305 0.40477 0.51388 0.0
Cd169 Cd 0.82788 0.46705 0.509 0.0
Cd170 Cd 0.83198 0.47244 0.53557 0.0
O171 O 0.8314 0.41641 0.53139 0.0
O172 O 0.86167 0.47163 0.49342 0.0
O173 O 0.88866 0.49412 0.51323 0.0
C174 C 0.89367 0.48694 0.50121 0.0
C175 C 0.84345 0.49366 0.55738 0.0
C176 C 0.80558 0.3908 0.5231 0.0
C177 C 0.77578 0.49634 0.5188 0.0
O178 O 0.78459 0.48297 0.52907 0.0
O179 O 0.79545 0.49888 0.50839 0.0
O180 O 0.81089 0.45937 0.55373 0.0
O181 O 0.87178 0.51541 0.54879 0.0
O182 O 0.5897 0.39104 0.51096 0.0
Cd183 Cd 0.52581 0.36055 0.50784 0.0
Cd184 Cd 0.52654 0.35405 0.53324 0.0
O185 O 0.57833 0.41307 0.52945 0.0
O186 O 0.51587 0.38937 0.49317 0.0
O187 O 0.49765 0.39186 0.51375 0.0
C188 C 0.50153 0.40464 0.50183 0.0
C189 C 0.49837 0.34226 0.5542 0.0
C190 C 0.60344 0.41695 0.52035 0.0
C191 C 0.50635 0.27959 0.51544 0.0
O192 O 0.52362 0.29984 0.52581 0.0
O193 O 0.49525 0.29636 0.50668 0.0
O194 O 0.53481 0.34653 0.55194 0.0
O195 O 0.47782 0.34619 0.54462 0.0
O196 O 0.58423 0.16751 0.51272 0.0
Cd197 Cd 0.62272 0.1428 0.51625 0.0
Cd198 Cd 0.61492 0.16248 0.53916 0.0
O199 O 0.55789 0.15364 0.53235 0.0
O200 O 0.60714 0.09786 0.50317 0.0
O201 O 0.59218 0.08594 0.5241 0.0
C202 C 0.58765 0.07116 0.51243 0.0
C203 C 0.62648 0.14431 0.55978 0.0
C204 C 0.55512 0.16227 0.52054 0.0
C205 C 0.69519 0.21658 0.52481 0.0
O206 O 0.66784 0.21551 0.53263 0.0
O207 O 0.68652 0.18434 0.518 0.0
O208 O 0.61794 0.17412 0.55812 0.0
O209 O 0.62446 0.12176 0.54985 0.0
O210 O 0.72223 0.48414 0.65526 0.0
Cd211 Cd 0.78652 0.51313 0.65439 0.0
Cd212 Cd 0.76952 0.4911 0.62986 0.0
O213 O 0.71695 0.49603 0.63474 0.0
O214 O 0.80463 0.55268 0.66916 0.0
O215 O 0.81468 0.57252 0.64834 0.0
C216 C 0.81632 0.582 0.66053 0.0
C217 C 0.79924 0.50793 0.60914 0.0
C218 C 0.70133 0.4883 0.64614 0.0
C219 C 0.80011 0.44552 0.64728 0.0
O220 O 0.77707 0.44321 0.63772 0.0
O221 O 0.81459 0.4768 0.65495 0.0
O222 O 0.76248 0.4757 0.61111 0.0
O223 O 0.81829 0.5328 0.61881 0.0
O224 O 0.51038 0.26221 0.65492 0.0
Cd225 Cd 0.47455 0.29009 0.65216 0.0
Cd226 Cd 0.50354 0.29848 0.62842 0.0
O227 O 0.51671 0.25226 0.63408 0.0
O228 O 0.43089 0.26454 0.66571 0.0
O229 O 0.41831 0.25222 0.64446 0.0
C230 C 0.40548 0.24337 0.65638 0.0
C231 C 0.48292 0.30186 0.60723 0.0
C232 C 0.52189 0.24631 0.64596 0.0
C233 C 0.53688 0.37519 0.64576 0.0
O234 O 0.54272 0.35704 0.63612 0.0
O235 O 0.50514 0.35488 0.6531 0.0
O236 O 0.52021 0.30878 0.60981 0.0
O237 O 0.45599 0.29087 0.6166 0.0
O238 O 0.74627 0.25996 0.65556 0.0
Cd239 Cd 0.71298 0.19562 0.65509 0.0
Cd240 Cd 0.70821 0.21223 0.63085 0.0
O241 O 0.76368 0.26762 0.63502 0.0
O242 O 0.73636 0.18054 0.67006 0.0
O243 O 0.74523 0.16806 0.64939 0.0
C244 C 0.75462 0.16904 0.66157 0.0
C245 C 0.69316 0.18085 0.61037 0.0
C246 C 0.76977 0.28299 0.64644 0.0
C247 C 0.63356 0.18498 0.6489 0.0
O248 O 0.65459 0.20661 0.63918 0.0
O249 O 0.64888 0.16891 0.65653 0.0
O250 O 0.69632 0.21704 0.61227 0.0
O251 O 0.7015 0.16327 0.61991 0.0
O252 O 0.49124 0.25727 0.16048 0.0
Cd253 Cd 0.47058 0.19749 0.15339 0.0
Cd254 Cd 0.49503 0.23809 0.13286 0.0
O255 O 0.47398 0.27429 0.1421 0.0
O256 O 0.41829 0.15726 0.16257 0.0
O257 O 0.42034 0.17812 0.14224 0.0
C258 C 0.39828 0.1579 0.15227 0.0
C259 C 0.49248 0.22277 0.11072 0.0
C260 C 0.4831 0.28206 0.15409 0.0
C261 C 0.54923 0.21062 0.1445 0.0
O262 O 0.54961 0.24307 0.13997 0.0
O263 O 0.51505 0.18045 0.14895 0.0
O264 O 0.50918 0.26096 0.1149 0.0
O265 O 0.47168 0.19306 0.11904 0.0
O266 O 0.73477 0.26832 0.15553 0.0
Cd267 Cd 0.79671 0.29154 0.16019 0.0
Cd268 Cd 0.80483 0.30935 0.13487 0.0
O269 O 0.74482 0.25679 0.13527 0.0
O270 O 0.79833 0.25935 0.17542 0.0
O271 O 0.82254 0.25673 0.15574 0.0
C272 C 0.8143 0.24336 0.16762 0.0
C273 C 0.83893 0.323 0.11469 0.0
C274 C 0.7199 0.2519 0.14455 0.0
C275 C 0.82527 0.37766 0.15543 0.0
O276 O 0.8128 0.36345 0.14402 0.0
O277 O 0.82928 0.35457 0.16381 0.0
O278 O 0.80652 0.32717 0.11651 0.0
O279 O 0.85265 0.3108 0.12435 0.0
O280 O 0.72393 0.47536 0.16529 0.0
Cd281 Cd 0.69092 0.50625 0.1626 0.0
Cd282 Cd 0.67784 0.47194 0.13912 0.0
O283 O 0.73176 0.47052 0.14427 0.0
O284 O 0.7183 0.55511 0.17439 0.0
O285 O 0.7235 0.55969 0.15276 0.0
C286 C 0.73537 0.57723 0.16407 0.0
C287 C 0.66154 0.47309 0.11694 0.0
C288 C 0.74139 0.46732 0.15593 0.0
C289 C 0.60605 0.43887 0.15823 0.0
O290 O 0.62333 0.43111 0.14874 0.0
O291 O 0.62628 0.47265 0.16475 0.0
O292 O 0.66728 0.50341 0.1246 0.0
O293 O 0.6685 0.44478 0.12175 0.0
O294 O 0.60217 0.1814 0.01283 0.0
Cd295 Cd 0.53848 0.15268 0.01608 0.0
Cd296 Cd 0.56381 0.19159 0.03836 0.0
O297 O 0.61815 0.19056 0.03361 0.0
O298 O 0.5152 0.10731 0.00309 0.0
O299 O 0.51453 0.09639 0.02446 0.0
C300 C 0.50805 0.08196 0.01269 0.0
C301 C 0.54069 0.19042 0.05971 0.0
C302 C 0.62911 0.19111 0.02184 0.0
C303 C 0.52398 0.22258 0.01994 0.0
O304 O 0.55304 0.23342 0.02829 0.0
O305 O 0.50751 0.18657 0.0146 0.0
O306 O 0.51772 0.16037 0.05174 0.0
O307 O 0.57807 0.21756 0.05591 0.0
O308 O 0.81553 0.39828 0.01617 0.0
Cd309 Cd 0.85509 0.37436 0.01519 0.0
Cd310 Cd 0.8343 0.35845 0.04059 0.0
O311 O 0.81242 0.40005 0.03758 0.0
O312 O 0.8901 0.40289 0.99979 0.0
O313 O 0.91498 0.4127 0.02004 0.0
C314 C 0.92079 0.42276 0.00786 0.0
C315 C 0.85677 0.35486 0.06161 0.0
C316 C 0.8037 0.40857 0.02643 0.0
C317 C 0.79942 0.28606 0.02093 0.0
O318 O 0.79803 0.30026 0.03208 0.0
O319 O 0.82558 0.31045 0.01251 0.0
O320 O 0.81801 0.34254 0.05904 0.0
O321 O 0.88384 0.37021 0.05227 0.0
O322 O 0.57274 0.39838 0.01342 0.0
Cd323 Cd 0.60891 0.46163 0.01688 0.0
Cd324 Cd 0.59739 0.43364 0.0401 0.0
O325 O 0.54043 0.38949 0.03197 0.0
O326 O 0.59504 0.48975 0.00297 0.0
O327 O 0.57593 0.48683 0.02376 0.0
C328 C 0.57304 0.49553 0.01173 0.0
C329 C 0.60643 0.44762 0.06265 0.0
C330 C 0.54147 0.37572 0.02069 0.0
C331 C 0.67776 0.4568 0.02639 0.0
O332 O 0.64851 0.4299 0.03359 0.0
O333 O 0.67182 0.48235 0.01961 0.0
O334 O 0.58892 0.41006 0.05802 0.0
O335 O 0.61477 0.47743 0.05446 0.0
O336 O 0.47798 0.73464 0.8492 0.0
Cd337 Cd 0.51613 0.79709 0.84552 0.0
Cd338 Cd 0.49111 0.80024 0.8709 0.0
O339 O 0.4737 0.73707 0.87059 0.0
O340 O 0.54887 0.79646 0.83028 0.0
O341 O 0.57739 0.82336 0.84955 0.0
C342 C 0.58137 0.8133 0.83779 0.0
C343 C 0.50152 0.83362 0.89119 0.0
C344 C 0.4662 0.71618 0.86008 0.0
C345 C 0.45629 0.82597 0.84753 0.0
O346 O 0.45452 0.81456 0.85928 0.0
O347 O 0.48422 0.82714 0.83996 0.0
O348 O 0.46569 0.80261 0.88778 0.0
O349 O 0.53283 0.84527 0.88331 0.0
O350 O 0.25852 0.72864 0.83944 0.0
Cd351 Cd 0.19474 0.697 0.84281 0.0
Cd352 Cd 0.22001 0.68469 0.86647 0.0
O353 O 0.27641 0.73492 0.86015 0.0
O354 O 0.17304 0.7226 0.83038 0.0
O355 O 0.17508 0.73207 0.85185 0.0
C356 C 0.16872 0.74174 0.8403 0.0
C357 C 0.20221 0.67389 0.88846 0.0
C358 C 0.2863 0.74475 0.84828 0.0
C359 C 0.17163 0.61047 0.84842 0.0
O360 O 0.19794 0.62742 0.8576 0.0
O361 O 0.16064 0.63209 0.84152 0.0
O362 O 0.23334 0.67088 0.88391 0.0
O363 O 0.18278 0.68627 0.88072 0.0
O364 O 0.2275 0.48919 0.84612 0.0
Cd365 Cd 0.26821 0.4678 0.85028 0.0
Cd366 Cd 0.25506 0.48368 0.87328 0.0
O367 O 0.1986 0.47385 0.86545 0.0
O368 O 0.25643 0.42295 0.83749 0.0
O369 O 0.2399 0.41142 0.85835 0.0
C370 C 0.23719 0.39632 0.84679 0.0
C371 C 0.26541 0.46358 0.89369 0.0
C372 C 0.19732 0.48312 0.85358 0.0
C373 C 0.33669 0.5427 0.86033 0.0
O374 O 0.30767 0.53886 0.86793 0.0
O375 O 0.33053 0.51279 0.85273 0.0
O376 O 0.25411 0.49154 0.89237 0.0
O377 O 0.26642 0.44348 0.88349 0.0
O378 O 0.3777 0.82902 0.9851 0.0
Cd379 Cd 0.44182 0.8556 0.98442 0.0
Cd380 Cd 0.42401 0.84302 0.95995 0.0
O381 O 0.37134 0.84675 0.96527 0.0
O382 O 0.46001 0.88792 1.0008 0.0
O383 O 0.4729 0.91702 0.98105 0.0
C384 C 0.47338 0.92097 0.99357 0.0
C385 C 0.4595 0.86636 0.94031 0.0
C386 C 0.35586 0.83456 0.97658 0.0
C387 C 0.44709 0.78643 0.97441 0.0
O388 O 0.42432 0.78941 0.96566 0.0
O389 O 0.46517 0.81529 0.98285 0.0
O390 O 0.42118 0.83572 0.94079 0.0
O391 O 0.47672 0.88691 0.95088 0.0
O392 O 0.18113 0.58704 0.99255 0.0
Cd393 Cd 0.14553 0.61421 0.98783 0.0
Cd394 Cd 0.18302 0.62282 0.96431 0.0
O395 O 0.1943 0.57756 0.97227 0.0
O396 O 0.09967 0.59014 1.00079 0.0
O397 O 0.0905 0.5743 0.97967 0.0
C398 C 0.07575 0.56732 0.9914 0.0
C399 C 0.17312 0.62512 0.94201 0.0
C400 C 0.19498 0.57088 0.98438 0.0
C401 C 0.20461 0.70061 0.98028 0.0
O402 O 0.21514 0.68287 0.97163 0.0
O403 O 0.17274 0.67901 0.98745 0.0
O404 O 0.20894 0.63323 0.94671 0.0
O405 O 0.14152 0.6126 0.94985 0.0
O406 O 0.40732 0.59798 0.9863 0.0
Cd407 Cd 0.38492 0.53585 0.98986 0.0
Cd408 Cd 0.35628 0.53103 0.9645 0.0
O409 O 0.39961 0.59486 0.96494 0.0
O410 O 0.42043 0.53612 0.0044 0.0
O411 O 0.41987 0.51058 0.98469 0.0
C412 C 0.4355 0.52013 0.99629 0.0
C413 C 0.33517 0.4987 0.944 0.0
C414 C 0.41274 0.61605 0.9754 0.0
C415 C 0.29537 0.50296 0.98785 0.0
O416 O 0.30456 0.51377 0.97605 0.0
O417 O 0.323 0.50418 0.99556 0.0
O418 O 0.32828 0.52823 0.94763 0.0
O419 O 0.35568 0.48789 0.95181 0.0
O420 O 0.16184 0.59855 0.49133 0.0
Cd421 Cd 0.12776 0.53508 0.48785 0.0
Cd422 Cd 0.1681 0.55741 0.46519 0.0
O423 O 0.18249 0.61727 0.47105 0.0
O424 O 0.07823 0.51534 0.49925 0.0
O425 O 0.07488 0.51512 0.47761 0.0
C426 C 0.05665 0.50987 0.48879 0.0
C427 C 0.16008 0.5367 0.44343 0.0
C428 C 0.18061 0.62702 0.48283 0.0
C429 C 0.19026 0.50956 0.48476 0.0
O430 O 0.19987 0.53308 0.47484 0.0
O431 O 0.15783 0.50119 0.49143 0.0
O432 O 0.1956 0.56582 0.44791 0.0
O433 O 0.12771 0.52116 0.45105 0.0
O434 O 0.38103 0.55649 0.49311 0.0
Cd435 Cd 0.44475 0.58607 0.49016 0.0
Cd436 Cd 0.42528 0.60072 0.46693 0.0
O437 O 0.36472 0.55631 0.47245 0.0
O438 O 0.46511 0.55724 0.50172 0.0
O439 O 0.46538 0.55364 0.48006 0.0
C440 C 0.47103 0.54126 0.49128 0.0
C441 C 0.44961 0.60895 0.44563 0.0
C442 C 0.35357 0.54604 0.48423 0.0
C443 C 0.46996 0.67344 0.4857 0.0
O444 O 0.44785 0.65823 0.47554 0.0
O445 O 0.4777 0.65036 0.49307 0.0
O446 O 0.41963 0.61589 0.44878 0.0
O447 O 0.46402 0.59406 0.45434 0.0
O448 O 0.4203 0.81595 0.49303 0.0
Cd449 Cd 0.39182 0.85148 0.49125 0.0
Cd450 Cd 0.37465 0.81597 0.46668 0.0
O451 O 0.41846 0.79906 0.47233 0.0
O452 O 0.42002 0.89421 0.50504 0.0
O453 O 0.42709 0.90957 0.48415 0.0
C454 C 0.43814 0.92195 0.49599 0.0
C455 C 0.36367 0.82265 0.44463 0.0
C456 C 0.42966 0.79848 0.484 0.0
C457 C 0.30342 0.79118 0.48637 0.0
O458 O 0.31778 0.78476 0.47593 0.0
O459 O 0.32744 0.82049 0.49409 0.0
O460 O 0.3564 0.78738 0.4495 0.0
O461 O 0.37995 0.8555 0.45203 0.0
O462 O 0.25128 0.50985 0.34334 0.0
Cd463 Cd 0.18696 0.47682 0.34468 0.0
Cd464 Cd 0.20606 0.50845 0.36964 0.0
O465 O 0.26444 0.51749 0.36441 0.0
O466 O 0.17134 0.43568 0.33036 0.0
O467 O 0.16349 0.4184 0.35137 0.0
C468 C 0.16273 0.40787 0.33931 0.0
C469 C 0.18606 0.50016 0.39151 0.0
C470 C 0.27709 0.52071 0.35272 0.0
C471 C 0.16495 0.54072 0.35053 0.0
O472 O 0.18702 0.54583 0.36059 0.0
O473 O 0.15515 0.50981 0.34294 0.0
O474 O 0.21696 0.53478 0.38722 0.0
O475 O 0.16764 0.46868 0.38361 0.0
O476 O 0.48895 0.73603 0.34797 0.0
Cd477 Cd 0.51968 0.70257 0.3497 0.0
Cd478 Cd 0.48944 0.69351 0.37323 0.0
O479 O 0.49206 0.74996 0.36873 0.0
O480 O 0.56451 0.72856 0.33652 0.0
O481 O 0.57627 0.73401 0.35791 0.0
C482 C 0.59005 0.7456 0.34618 0.0
C483 C 0.49404 0.67533 0.39463 0.0
C484 C 0.48688 0.75824 0.35709 0.0
C485 C 0.44963 0.62204 0.35358 0.0
O486 O 0.4456 0.64128 0.36325 0.0
O487 O 0.48338 0.63884 0.34697 0.0
O488 O 0.46259 0.67877 0.39069 0.0
O489 O 0.52481 0.68488 0.38668 0.0
O490 O 0.24308 0.7263 0.34488 0.0
Cd491 Cd 0.28161 0.78953 0.34801 0.0
Cd492 Cd 0.28217 0.76207 0.37149 0.0
O493 O 0.2235 0.71433 0.36524 0.0
O494 O 0.26532 0.81578 0.33417 0.0
O495 O 0.25241 0.81878 0.355 0.0
C496 C 0.24759 0.82658 0.34306 0.0
C497 C 0.2971 0.78521 0.39295 0.0
C498 C 0.21649 0.703 0.35337 0.0
C499 C 0.35943 0.79444 0.35478 0.0
O500 O 0.33617 0.76769 0.36326 0.0
O501 O 0.34562 0.81396 0.34806 0.0
O502 O 0.2882 0.74765 0.38972 0.0
O503 O 0.2936 0.80862 0.38421 0.0
C504 C 0.08293 0.18685 0.19159 0.0
C505 C 0.0896 0.1672 0.18067 0.0
C506 C 0.02293 0.15413 0.17142 0.0
C507 C 0.01102 0.16018 0.18399 0.0
N508 N 0.03509 0.20423 0.20295 0.0
N509 N 0.07047 0.13967 0.15892 0.0
C510 C 0.04305 0.18415 0.19311 0.0
C511 C 0.06167 0.15457 0.16995 0.0
N512 N 0.11388 0.20532 0.20076 0.0
N513 N -0.00264 0.14844 0.16106 0.0
H514 H 0.09937 0.14115 0.15746 0.0
H515 H 0.04882 0.12492 0.15143 0.0
H516 H 0.97032 0.15096 0.16203 0.0
H517 H 0.00538 0.1463 0.15148 0.0
H518 H 0.11036 0.21714 0.20958 0.0
H519 H 0.14358 0.2084 0.19939 0.0
H520 H 0.05713 0.22306 0.2099 0.0
H521 H 0.00699 0.20504 0.20331 0.0
C522 C 0.90265 0.95595 0.18235 0.0
C523 C 0.87246 0.95487 0.19113 0.0
C524 C 0.86017 0.88731 0.19978 0.0
C525 C 0.89508 0.89205 0.19243 0.0
N526 N 0.95458 0.93506 0.17841 0.0
N527 N 0.82244 0.92094 0.2084 0.0
C528 C 0.9174 0.92719 0.18402 0.0
C529 C 0.85084 0.92068 0.19984 0.0
N530 N 0.91794 0.98523 0.1726 0.0
N531 N 0.83568 0.85077 0.20645 0.0
H532 H 0.81333 0.94376 0.20805 0.0
H533 H 0.80925 0.89975 0.21608 0.0
H534 H 0.84182 0.82584 0.20654 0.0
H535 H 0.8076 0.84383 0.21105 0.0
H536 H 0.93706 0.98497 0.16513 0.0
H537 H 0.90804 0.00719 0.17124 0.0
H538 H 0.97434 0.96275 0.1734 0.0
H539 H 0.96824 0.91632 0.17987 0.0
C540 C 0.07612 0.96294 0.16902 0.0
C541 C 0.1081 0.98236 0.17868 0.0
C542 C 0.09956 0.91362 0.18432 0.0
C543 C 0.0642 0.89453 0.17598 0.0
N544 N 0.03568 0.90072 0.15567 0.0
N545 N 0.16073 0.97819 0.19174 0.0
C546 C 0.05885 0.91931 0.16655 0.0
C547 C 0.12353 0.95833 0.18506 0.0
N548 N 0.05959 0.98473 0.16301 0.0
N549 N 0.10758 0.88858 0.19224 0.0
H550 H 0.17935 0.01096 0.19213 0.0
H551 H 0.17497 0.96242 0.19583 0.0
H552 H 0.0905 0.85575 0.19138 0.0
H553 H 0.12956 0.89996 0.19977 0.0
H554 H 0.03351 0.97037 0.15686 0.0
H555 H 0.06895 0.01605 0.16504 0.0
H556 H 0.03265 0.91777 0.14805 0.0
H557 H 0.02417 0.86884 0.15368 0.0
C558 C 0.1933 0.08491 0.30685 0.0
C559 C 0.17532 0.09362 0.3178 0.0
C560 C 0.16568 0.02975 0.32826 0.0
C561 C 0.16928 0.01504 0.31586 0.0
N562 N 0.2083 0.0347 0.29588 0.0
N563 N 0.15157 0.07865 0.34006 0.0
C564 C 0.19065 0.04488 0.30592 0.0
C565 C 0.16511 0.06813 0.32907 0.0
N566 N 0.2107 0.11432 0.29722 0.0
N567 N 0.16306 0.00704 0.33908 0.0
H568 H 0.15226 0.10731 0.34109 0.0
H569 H 0.13854 0.05845 0.34798 0.0
H570 H 0.16618 0.98024 0.3385 0.0
H571 H 0.16291 0.01733 0.34851 0.0
H572 H 0.22199 0.10964 0.28846 0.0
H573 H 0.21426 0.14432 0.29826 0.0
H574 H 0.2245 0.05468 0.28818 0.0
H575 H 0.20951 0.0068 0.29594 0.0
C576 C 0.92227 0.10584 0.31853 0.0
C577 C 0.9045 0.07164 0.32731 0.0
C578 C 0.97398 0.08418 0.33335 0.0
C579 C 0.99174 0.11441 0.32315 0.0
N580 N 0.98555 0.16468 0.30946 0.0
N581 N 0.91377 0.04537 0.34763 0.0
C582 C 0.96677 0.12905 0.31691 0.0
C583 C 0.93073 0.06727 0.33643 0.0
N584 N 0.89591 0.11316 0.311 0.0
N585 N -0.00312 0.06886 0.33933 0.0
H586 H 0.8822 0.03408 0.35002 0.0
H587 H 0.93188 0.04313 0.35506 0.0
H588 H 0.02802 0.0783 0.33698 0.0
H589 H 0.98368 0.04378 0.34587 0.0
H590 H 0.90586 0.13412 0.30322 0.0
H591 H 0.86331 0.09654 0.3125 0.0
H592 H 0.96937 0.17857 0.30543 0.0
H593 H 0.01814 0.18244 0.30822 0.0
C594 C 0.93639 0.92611 0.31925 0.0
C595 C 0.89937 0.90139 0.31177 0.0
C596 C 0.92673 0.85566 0.30483 0.0
C597 C 0.96268 0.87944 0.31275 0.0
N598 N -0.00269 0.93025 0.32986 0.0
N599 N 0.85539 0.83868 0.29933 0.0
C600 C 0.96575 0.91209 0.32083 0.0
C601 C 0.89327 0.86483 0.30512 0.0
N602 N 0.94518 0.9646 0.32401 0.0
N603 N 0.9253 0.82523 0.29679 0.0
H604 H 0.8304 0.84474 0.2994 0.0
H605 H 0.8476 0.80953 0.29534 0.0
H606 H 0.94834 0.81639 0.29698 0.0
H607 H 0.90248 0.81013 0.28963 0.0
H608 H 0.97399 0.98587 0.32821 0.0
H609 H 0.92576 0.97753 0.32258 0.0
H610 H -0.00137 0.95134 0.33691 0.0
H611 H 0.01991 0.92115 0.33113 0.0
C612 C 0.93838 0.84909 0.82432 0.0
C613 C 0.91775 0.84787 0.81254 0.0
C614 C 0.97273 0.84392 0.80008 0.0
C615 C -0.00249 0.85576 0.8115 0.0
N616 N -0.00535 0.84248 0.83447 0.0
N617 N 0.90958 0.83504 0.78943 0.0
C618 C 0.97724 0.84943 0.8237 0.0
C619 C 0.93283 0.8416 0.80047 0.0
N620 N 0.92268 0.85312 0.83595 0.0
N621 N 0.98662 0.83306 0.78923 0.0
H622 H 0.8789 0.83 0.78968 0.0
H623 H 0.92064 0.83528 0.78009 0.0
H624 H 0.01358 0.83018 0.78941 0.0
H625 H 0.96942 0.82225 0.78065 0.0
H626 H 0.93922 0.85939 0.84467 0.0
H627 H 0.89391 0.85231 0.83679 0.0
H628 H 0.97998 0.83482 0.84354 0.0
H629 H 0.02128 0.83909 0.83385 0.0
C630 C 0.0976 0.07143 0.8316 0.0
C631 C 0.11318 0.10623 0.82288 0.0
C632 C 0.16686 0.09034 0.81508 0.0
C633 C 0.14978 0.05468 0.82332 0.0
N634 N 0.11263 0.02294 0.84319 0.0
N635 N 0.17102 0.15684 0.80974 0.0
C636 C 0.12029 0.0497 0.83301 0.0
C637 C 0.1508 0.11848 0.81576 0.0
N638 N 0.05933 0.05631 0.83757 0.0
N639 N 0.19694 0.09589 0.8062 0.0
H640 H 0.16049 0.17853 0.81043 0.0
H641 H 0.20022 0.16874 0.8052 0.0
H642 H 0.21049 0.07665 0.80608 0.0
H643 H 0.2071 0.1182 0.79878 0.0
H644 H 0.045 0.02827 0.84285 0.0
H645 H 0.03955 0.06878 0.83622 0.0
H646 H 0.09343 0.02049 0.85102 0.0
H647 H 0.1296 0.00738 0.84461 0.0
C648 C 0.85238 0.0261 0.81173 0.0
C649 C 0.85007 0.99591 0.82075 0.0
C650 C 0.90241 0.05154 0.83458 0.0
C651 C 0.91332 0.07946 0.82386 0.0
N652 N 0.89244 0.09853 0.80402 0.0
N653 N 0.8513 0.98364 0.84365 0.0
C654 C 0.88533 0.06859 0.81314 0.0
C655 C 0.868 0.00986 0.83322 0.0
N656 N 0.82263 0.01402 0.8022 0.0
N657 N 0.92663 0.06349 0.84555 0.0
H658 H 0.82382 0.95436 0.84282 0.0
H659 H 0.8612 0.99284 0.85319 0.0
H660 H 0.95032 0.0944 0.84726 0.0
H661 H 0.92366 0.04248 0.85286 0.0
H662 H 0.82145 0.0345 0.79543 0.0
H663 H 0.79639 0.98369 0.80198 0.0
H664 H 0.87628 0.09242 0.79525 0.0
H665 H 0.91539 0.13011 0.80539 0.0
C666 C 0.85918 0.97751 0.68177 0.0
C667 C 0.86415 0.99491 0.69437 0.0
C668 C 0.85396 0.9295 0.70386 0.0
C669 C 0.86158 0.91791 0.69138 0.0
N670 N 0.8672 0.92813 0.66809 0.0
N671 N 0.84166 0.97846 0.71658 0.0
C672 C 0.86163 0.94034 0.68014 0.0
C673 C 0.85371 0.96799 0.70526 0.0
N674 N 0.85113 -0.00385 0.67153 0.0
N675 N 0.84825 0.9042 0.71433 0.0
H676 H 0.83676 0.00416 0.71712 0.0
H677 H 0.83191 0.95961 0.72485 0.0
H678 H 0.84463 0.87422 0.71331 0.0
H679 H 0.84758 0.9128 0.72393 0.0
H680 H 0.84428 0.98342 0.6622 0.0
H681 H 0.84621 0.02165 0.67288 0.0
H682 H 0.8726 0.94633 0.65977 0.0
H683 H 0.86873 0.90081 0.6665 0.0
C684 C 0.08331 0.88387 0.6894 0.0
C685 C 0.09598 0.91426 0.67933 0.0
C686 C 0.02756 0.87207 0.66885 0.0
C687 C 0.01175 0.85167 0.68092 0.0
N688 N 0.02668 0.81932 0.69887 0.0
N689 N 0.08419 0.93157 0.65763 0.0
C690 C 0.04046 0.85122 0.69002 0.0
C691 C 0.06985 0.90581 0.66824 0.0
N692 N 0.11191 0.88839 0.69868 0.0
N693 N 0.00249 0.85823 0.65808 0.0
H694 H 0.11582 0.95399 0.65632 0.0
H695 H 0.06468 0.93073 0.65013 0.0
H696 H 0.97267 0.83128 0.65833 0.0
H697 H 0.01289 0.86996 0.64876 0.0
H698 H 0.10447 0.87014 0.70706 0.0
H699 H 0.14373 0.91132 0.69785 0.0
H700 H 0.04604 0.8162 0.70565 0.0
H701 H -0.00383 0.79342 0.69846 0.0
C702 C 0.05412 0.11477 0.67554 0.0
C703 C 0.06019 0.14515 0.68505 0.0
C704 C 0.12426 0.14616 0.69236 0.0
C705 C 0.11176 0.10852 0.68522 0.0
N706 N 0.0612 0.05409 0.67085 0.0
N707 N 0.10229 0.19271 0.70199 0.0
C708 C 0.07628 0.09245 0.67677 0.0
C709 C 0.09622 0.16233 0.69315 0.0
N710 N 0.02588 0.10595 0.66569 0.0
N711 N 0.16288 0.16645 0.69824 0.0
H712 H 0.08318 0.2064 0.70217 0.0
H713 H 0.12489 0.20298 0.70933 0.0
H714 H 0.18447 0.15582 0.69754 0.0
H715 H 0.17502 0.19576 0.70273 0.0
H716 H 0.02261 0.08626 0.65792 0.0
H717 H 0.00948 0.12218 0.6645 0.0
H718 H 0.03277 0.03919 0.66578 0.0
H719 H 0.07433 0.03481 0.67208 0.0
C720 C 0.67277 0.46381 0.53199 0.0
C721 C 0.64819 0.45154 0.52039 0.0
C722 C 0.71252 0.49292 0.50746 0.0
C723 C 0.73635 0.49905 0.5189 0.0
N724 N 0.73947 0.5147 0.54166 0.0
N725 N 0.64338 0.47007 0.49814 0.0
C726 C 0.71626 0.49343 0.53104 0.0
C727 C 0.66767 0.47121 0.5084 0.0
N728 N 0.65645 0.44478 0.54367 0.0
N729 N 0.73255 0.50749 0.49584 0.0
H730 H 0.61072 0.45647 0.49882 0.0
H731 H 0.65566 0.48612 0.48945 0.0
H732 H 0.76478 0.52907 0.4953 0.0
H733 H 0.71728 0.49894 0.48688 0.0
H734 H 0.67508 0.45059 0.55193 0.0
H735 H 0.62579 0.42021 0.545 0.0
H736 H 0.72597 0.51372 0.55068 0.0
H737 H 0.77156 0.53682 0.54087 0.0
C738 C 0.52203 0.2291 0.50329 0.0
C739 C 0.50179 0.23735 0.51375 0.0
C740 C 0.49545 0.17637 0.52562 0.0
C741 C 0.52356 0.17472 0.51648 0.0
N742 N 0.53776 0.17822 0.49355 0.0
N743 N 0.45647 0.21109 0.53243 0.0
C744 C 0.52822 0.19401 0.50422 0.0
C745 C 0.48389 0.20796 0.52411 0.0
N746 N 0.5384 0.25618 0.49302 0.0
N747 N 0.47969 0.14742 0.53542 0.0
H748 H 0.44626 0.23275 0.53089 0.0
H749 H 0.4423 0.19149 0.54038 0.0
H750 H 0.48354 0.12102 0.53546 0.0
H751 H 0.46114 0.14787 0.54301 0.0
H752 H 0.55801 0.25395 0.48609 0.0
H753 H 0.53457 0.28223 0.49171 0.0
H754 H 0.53871 0.18934 0.48415 0.0
H755 H 0.53899 0.15036 0.49399 0.0
C756 C 0.75359 0.27786 0.53578 0.0
C757 C 0.7361 0.25647 0.52395 0.0
C758 C 0.78238 0.32154 0.51225 0.0
C759 C 0.78925 0.34465 0.52399 0.0
N760 N 0.77842 0.34304 0.54741 0.0
N761 N 0.73509 0.25833 0.50041 0.0
C762 C 0.77514 0.3225 0.53598 0.0
C763 C 0.75155 0.27803 0.51198 0.0
N764 N 0.74809 0.25522 0.54687 0.0
N765 N 0.8053 0.3412 0.50139 0.0
H766 H 0.71338 0.22634 0.49958 0.0
H767 H 0.7415 0.2745 0.49161 0.0
H768 H 0.82903 0.37278 0.50141 0.0
H769 H 0.80402 0.32507 0.49289 0.0
H770 H 0.7629 0.26898 0.55564 0.0
H771 H 0.73246 0.22232 0.5468 0.0
H772 H 0.76406 0.32722 0.55599 0.0
H773 H 0.79182 0.37548 0.54829 0.0
C774 C 0.82724 0.39943 0.63912 0.0
C775 C 0.80871 0.4106 0.64935 0.0
C776 C 0.79366 0.34634 0.66073 0.0
C777 C 0.79747 0.32932 0.64877 0.0
N778 N 0.83364 0.34387 0.62823 0.0
N779 N 0.77676 0.39567 0.67074 0.0
C780 C 0.81976 0.35739 0.63846 0.0
C781 C 0.79364 0.38495 0.6606 0.0
N782 N 0.8525 0.4294 0.63033 0.0
N783 N 0.79097 0.32607 0.67212 0.0
H784 H 0.77601 0.42371 0.67111 0.0
H785 H 0.76107 0.37524 0.67844 0.0
H786 H 0.79494 0.29975 0.67244 0.0
H787 H 0.79073 0.33862 0.68121 0.0
H788 H 0.86922 0.42446 0.62302 0.0
H789 H 0.85933 0.46064 0.6311 0.0
H790 H 0.84535 0.36074 0.61963 0.0
H791 H 0.83415 0.31565 0.62858 0.0
C792 C 0.58739 0.44732 0.63817 0.0
C793 C 0.57058 0.41876 0.64873 0.0
C794 C 0.63687 0.45968 0.66045 0.0
C795 C 0.65656 0.47734 0.64841 0.0
N796 N 0.64895 0.50737 0.62854 0.0
N797 N 0.57666 0.4027 0.67119 0.0
C798 C 0.63121 0.47758 0.63805 0.0
C799 C 0.59401 0.42726 0.66044 0.0
N800 N 0.56143 0.44359 0.6281 0.0
N801 N 0.65862 0.47509 0.67178 0.0
H802 H 0.54466 0.38092 0.67201 0.0
H803 H 0.59436 0.40355 0.67923 0.0
H804 H 0.68868 0.50168 0.67196 0.0
H805 H 0.64498 0.4654 0.68094 0.0
H806 H 0.57147 0.46057 0.61948 0.0
H807 H 0.52892 0.42297 0.62863 0.0
H808 H 0.63252 0.50992 0.62068 0.0
H809 H 0.67989 0.53234 0.62927 0.0
C810 C 0.56017 0.16756 0.6441 0.0
C811 C 0.59574 0.18717 0.65235 0.0
C812 C 0.57983 0.2424 0.65785 0.0
C813 C 0.54442 0.22349 0.64935 0.0
N814 N 0.49387 0.16178 0.63751 0.0
N815 N 0.63044 0.23312 0.67047 0.0
C816 C 0.53218 0.18384 0.6435 0.0
C817 C 0.60188 0.22069 0.66056 0.0
N818 N 0.55444 0.13463 0.63644 0.0
N819 N 0.59515 0.28266 0.66233 0.0
H820 H 0.64734 0.21782 0.67253 0.0
H821 H 0.63382 0.25529 0.67744 0.0
H822 H 0.5825 0.30164 0.65986 0.0
H823 H 0.62347 0.29915 0.6674 0.0
H824 H 0.53221 0.12214 0.629 0.0
H825 H 0.57344 0.12095 0.63733 0.0
H826 H 0.48187 0.13121 0.63399 0.0
H827 H 0.47236 0.17256 0.63716 0.0
C828 C 0.65504 0.23832 0.13174 0.0
C829 C 0.67352 0.22978 0.14265 0.0
C830 C 0.60614 0.19899 0.15425 0.0
C831 C 0.58814 0.20801 0.1434 0.0
N832 N 0.59015 0.21814 0.12021 0.0
N833 N 0.66195 0.1869 0.16166 0.0
C834 C 0.61085 0.22134 0.13157 0.0
C835 C 0.64734 0.20489 0.15303 0.0
N836 N 0.67911 0.26529 0.12208 0.0
N837 N 0.58556 0.18754 0.16591 0.0
H838 H 0.6913 0.18914 0.1605 0.0
H839 H 0.64316 0.16592 0.16888 0.0
H840 H 0.55552 0.18327 0.16735 0.0
H841 H 0.59978 0.18533 0.17442 0.0
H842 H 0.66639 0.27545 0.11482 0.0
H843 H 0.71185 0.28092 0.12184 0.0
H844 H 0.60485 0.22442 0.11114 0.0
H845 H 0.5574 0.20439 0.11981 0.0
C846 C 0.83214 0.44735 0.15024 0.0
C847 C 0.82268 0.41525 0.15949 0.0
C848 C 0.76571 0.42351 0.16833 0.0
C849 C 0.77276 0.45371 0.15849 0.0
N850 N 0.823 0.50591 0.14368 0.0
N851 N 0.79808 0.39231 0.18132 0.0
C852 C 0.80954 0.46959 0.15061 0.0
C853 C 0.79576 0.41035 0.16999 0.0
N854 N 0.86145 0.4551 0.14084 0.0
N855 N 0.7291 0.4044 0.17534 0.0
H856 H 0.82201 0.38535 0.18306 0.0
H857 H 0.78027 0.39016 0.1895 0.0
H858 H 0.70395 0.40957 0.17382 0.0
H859 H 0.72179 0.37951 0.1817 0.0
H860 H 0.86632 0.47441 0.13283 0.0
H861 H 0.87987 0.44064 0.14098 0.0
H862 H 0.85123 0.52042 0.1385 0.0
H863 H 0.80818 0.52389 0.14426 0.0
C864 C 0.51844 0.3379 0.17118 0.0
C865 C 0.49555 0.32472 0.1594 0.0
C866 C 0.53108 0.3972 0.15164 0.0
C867 C 0.56213 0.40708 0.16135 0.0
N868 N 0.5824 0.39059 0.18184 0.0
N869 N 0.4632 0.34468 0.14273 0.0
C870 C 0.55413 0.37908 0.17187 0.0
C871 C 0.49609 0.35559 0.15105 0.0
N872 N 0.50568 0.31104 0.18153 0.0
N873 N 0.53702 0.42684 0.14255 0.0
H874 H 0.43654 0.31461 0.14295 0.0
H875 H 0.4604 0.36593 0.13668 0.0
H876 H 0.56185 0.4579 0.14323 0.0
H877 H 0.51819 0.42069 0.13434 0.0
H878 H 0.51954 0.31936 0.19069 0.0
H879 H 0.47794 0.28183 0.18117 0.0
H880 H 0.58106 0.36981 0.18898 0.0
H881 H 0.60807 0.42104 0.18272 0.0
C882 C 0.49026 0.30139 0.02729 0.0
C883 C 0.5136 0.33032 0.01736 0.0
C884 C 0.52058 0.27603 0.00573 0.0
C885 C 0.50839 0.25191 0.01731 0.0
N886 N 0.47414 0.23627 0.03822 0.0
N887 N 0.52759 0.33756 0.99444 0.0
C888 C 0.48973 0.2624 0.0277 0.0
C889 C 0.52073 0.31486 0.00558 0.0
N890 N 0.46845 0.31121 0.03603 0.0
N891 N 0.53526 0.26361 0.99541 0.0
H892 H 0.52568 0.36506 0.9943 0.0
H893 H 0.53063 0.32714 0.98529 0.0
H894 H 0.53443 0.23473 0.99519 0.0
H895 H 0.54938 0.28233 0.98727 0.0
H896 H 0.44893 0.29064 0.0432 0.0
H897 H 0.4664 0.33852 0.03505 0.0
H898 H 0.46475 0.24431 0.04681 0.0
H899 H 0.47175 0.20664 0.03841 0.0
C900 C 0.7412 0.21445 0.0266 0.0
C901 C 0.76206 0.24567 0.01697 0.0
C902 C 0.69523 0.23332 0.00832 0.0
C903 C 0.67377 0.20471 0.01871 0.0
N904 N 0.67508 0.15592 0.03426 0.0
N905 N 0.75796 0.26459 0.99488 0.0
C906 C 0.69637 0.19104 0.0267 0.0
C907 C 0.73858 0.24755 0.00641 0.0
N908 N 0.76448 0.20932 0.03601 0.0
N909 N 0.67615 0.25028 1.00105 0.0
H910 H 0.78938 0.2732 0.99321 0.0
H911 H 0.74143 0.2647 0.98663 0.0
H912 H 0.64568 0.24453 0.00267 0.0
H913 H 0.69256 0.27417 0.99427 0.0
H914 H 0.75141 0.19076 0.04426 0.0
H915 H 0.79741 0.22531 0.0356 0.0
H916 H 0.69 0.143 0.03962 0.0
H917 H 0.64228 0.13725 0.03406 0.0
C918 C 0.78416 0.4643 0.03054 0.0
C919 C 0.77399 0.42449 0.02526 0.0
C920 C 0.70719 0.41507 0.01706 0.0
C921 C 0.71434 0.45131 0.02406 0.0
N922 N 0.75809 0.5102 0.0379 0.0
N923 N 0.72266 0.35846 0.01535 0.0
C924 C 0.75264 0.47623 0.03083 0.0
C925 C 0.73484 0.39905 0.01887 0.0
N926 N 0.82401 0.49084 0.03501 0.0
N927 N 0.67365 0.39583 0.00875 0.0
H928 H 0.74091 0.34435 0.017 0.0
H929 H 0.69252 0.3372 0.01198 0.0
H930 H 0.65286 0.40711 0.00718 0.0
H931 H 0.66901 0.37156 0.00246 0.0
H932 H 0.8345 0.52181 0.03787 0.0
H933 H 0.84775 0.48296 0.03486 0.0
H934 H 0.78316 0.52682 0.04427 0.0
H935 H 0.73614 0.52048 0.03784 0.0
C936 C 0.35219 0.76636 0.83505 0.0
C937 C 0.33056 0.77572 0.84484 0.0
C938 C 0.3968 0.83853 0.85104 0.0
C939 C 0.41832 0.82567 0.84243 0.0
N940 N 0.41528 0.79378 0.82178 0.0
N941 N 0.32986 0.82831 0.85893 0.0
C942 C 0.39539 0.79548 0.83278 0.0
C943 C 0.35207 0.81459 0.85174 0.0
N944 N 0.33307 0.72847 0.82871 0.0
N945 N 0.41982 0.87169 0.85919 0.0
H946 H 0.29708 0.81148 0.85961 0.0
H947 H 0.34347 0.85784 0.86333 0.0
H948 H 0.45258 0.89001 0.85829 0.0
H949 H 0.40705 0.88004 0.8669 0.0
H950 H 0.34933 0.71896 0.82252 0.0
H951 H 0.30225 0.70473 0.83052 0.0
H952 H 0.39938 0.77374 0.81402 0.0
H953 H 0.44658 0.81633 0.81984 0.0
C954 C 0.16926 0.55176 0.83542 0.0
C955 C 0.15476 0.56502 0.8462 0.0
C956 C 0.14108 0.50191 0.85827 0.0
C957 C 0.1668 0.49638 0.84915 0.0
N958 N 0.18022 0.49669 0.82628 0.0
N959 N 0.11506 0.54762 0.86606 0.0
C960 C 0.17225 0.51477 0.83669 0.0
C961 C 0.13571 0.5376 0.85692 0.0
N962 N 0.18347 0.57624 0.82453 0.0
N963 N 0.12209 0.47302 0.86796 0.0
H964 H 0.1101 0.57313 0.86481 0.0
H965 H 0.10309 0.53124 0.87471 0.0
H966 H 0.12338 0.44518 0.86817 0.0
H967 H 0.1023 0.47447 0.87494 0.0
H968 H 0.19934 0.57093 0.81702 0.0
H969 H 0.18021 0.6027 0.82322 0.0
H970 H 0.18217 0.50712 0.81675 0.0
H971 H 0.18006 0.46819 0.82718 0.0
C972 C 0.36588 0.61536 0.85231 0.0
C973 C 0.37315 0.58517 0.85855 0.0
C974 C 0.44404 0.64051 0.86486 0.0
C975 C 0.43453 0.67099 0.85996 0.0
N976 N 0.38374 0.68828 0.85113 0.0
N977 N 0.41727 0.56764 0.87135 0.0
C978 C 0.39478 0.65867 0.85419 0.0
C979 C 0.41188 0.59727 0.86493 0.0
N980 N 0.33133 0.60246 0.84449 0.0
N981 N 0.48387 0.65286 0.86916 0.0
H982 H 0.39499 0.53556 0.87099 0.0
H983 H 0.44268 0.57491 0.87746 0.0
H984 H 0.50774 0.6844 0.86938 0.0
H985 H 0.49404 0.63188 0.87169 0.0
H986 H 0.32657 0.62292 0.83864 0.0
H987 H 0.30947 0.57073 0.84285 0.0
H988 H 0.35344 0.68067 0.84828 0.0
H989 H 0.40346 0.72053 0.85264 0.0
C990 C 0.46277 0.69223 0.97019 0.0
C991 C 0.42396 0.66061 0.97546 0.0
C992 C 0.40731 0.714 0.98291 0.0
C993 C 0.44357 0.7451 0.97637 0.0
N994 N 0.50507 0.76512 0.9632 0.0
N995 N 0.35545 0.64011 0.98463 0.0
C996 C 0.47132 0.73466 0.96989 0.0
C997 C 0.39525 0.67112 0.9813 0.0
N998 N 0.49154 0.68173 0.96577 0.0
N999 N 0.38436 0.72555 0.99065 0.0
H1000 H 0.34454 0.60804 0.98332 0.0
H1001 H 0.3317 0.64619 0.98749 0.0
H1002 H 0.39207 0.75686 0.99197 0.0
H1003 H 0.36016 0.7046 0.99673 0.0
H1004 H 0.52206 0.7038 0.96294 0.0
H1005 H 0.48571 0.65077 0.96574 0.0
H1006 H 0.52386 0.7589 0.95703 0.0
H1007 H 0.51318 0.79679 0.96344 0.0
C1008 C 0.24101 0.77144 0.97014 0.0
C1009 C 0.23125 0.74685 0.98164 0.0
C1010 C 0.2947 0.8026 0.99187 0.0
C1011 C 0.31025 0.81853 0.97931 0.0
N1012 N 0.2918 0.83491 0.95861 0.0
N1013 N 0.24431 0.74253 0.00445 0.0
C1014 C 0.28113 0.80857 0.96905 0.0
C1015 C 0.25591 0.76421 0.993 0.0
N1016 N 0.21253 0.75761 0.96019 0.0
N1017 N 0.31731 0.82434 0.00253 0.0
H1018 H 0.21528 0.71526 0.00575 0.0
H1019 H 0.26392 0.75107 0.01256 0.0
H1020 H 0.34487 0.85354 0.00161 0.0
H1021 H 0.30659 0.81597 0.01204 0.0
H1022 H 0.21838 0.77144 0.95103 0.0
H1023 H 0.18228 0.73167 0.96133 0.0
H1024 H 0.27203 0.83007 0.95074 0.0
H1025 H 0.31947 0.86417 0.95852 0.0
C1026 C 0.24318 0.5573 0.99868 0.0
C1027 C 0.21148 0.54339 0.98889 0.0
C1028 C 0.22118 0.48318 0.9842 0.0
C1029 C 0.25614 0.50051 0.99271 0.0
N1030 N 0.28425 0.53806 0.01268 0.0
N1031 N 0.16036 0.48539 0.97584 0.0
C1032 C 0.26111 0.5318 0.00167 0.0
C1033 C 0.19693 0.50349 0.98285 0.0
N1034 N 0.25888 0.5961 0.00432 0.0
N1035 N 0.21374 0.44934 0.97672 0.0
H1036 H 0.14184 0.49947 0.97477 0.0
H1037 H 0.14653 0.45501 0.97203 0.0
H1038 H 0.23081 0.43374 0.97808 0.0
H1039 H 0.19222 0.43785 0.96908 0.0
H1040 H 0.28506 0.60903 0.01045 0.0
H1041 H 0.24865 0.61721 0.00202 0.0
H1042 H 0.28693 0.55899 0.02 0.0
H1043 H 0.29604 0.51826 0.01515 0.0
C1044 C 0.2357 0.47879 0.48047 0.0
C1045 C 0.22216 0.49919 0.48931 0.0
C1046 C 0.2937 0.54317 0.49725 0.0
C1047 C 0.30825 0.52517 0.48768 0.0
N1048 N 0.29211 0.46667 0.47344 0.0
N1049 N 0.23386 0.53564 0.50961 0.0
C1050 C 0.27877 0.48961 0.48041 0.0
C1051 C 0.2497 0.52551 0.49908 0.0
N1052 N 0.20767 0.45118 0.47164 0.0
N1053 N 0.32112 0.57947 0.50364 0.0
H1054 H 0.2015 0.52277 0.51101 0.0
H1055 H 0.2523 0.55256 0.51754 0.0
H1056 H 0.35356 0.59581 0.50214 0.0
H1057 H 0.31119 0.59594 0.50957 0.0
H1058 H 0.21624 0.43885 0.46385 0.0
H1059 H 0.17568 0.44198 0.472 0.0
H1060 H 0.27168 0.43872 0.46865 0.0
H1061 H 0.32347 0.47364 0.4735 0.0
C1062 C 0.45264 0.71752 0.49934 0.0
C1063 C 0.47894 0.71585 0.48964 0.0
C1064 C 0.4861 0.78007 0.47992 0.0
C1065 C 0.4507 0.77408 0.48728 0.0
N1066 N 0.39727 0.73332 0.50349 0.0
N1067 N 0.52547 0.74784 0.47155 0.0
C1068 C 0.43372 0.74253 0.49713 0.0
C1069 C 0.498 0.74862 0.48037 0.0
N1070 N 0.44393 0.69342 0.51026 0.0
N1071 N 0.50803 0.81557 0.47255 0.0
H1072 H 0.53569 0.72587 0.47221 0.0
H1073 H 0.53673 0.76761 0.46348 0.0
H1074 H 0.50037 0.83946 0.47231 0.0
H1075 H 0.53591 0.82309 0.46771 0.0
H1076 H 0.42702 0.69554 0.5181 0.0
H1077 H 0.45805 0.67526 0.51207 0.0
H1078 H 0.38162 0.70755 0.5097 0.0
H1079 H 0.37992 0.74821 0.50164 0.0
C1080 C 0.22849 0.74515 0.48058 0.0
C1081 C 0.26048 0.75826 0.49011 0.0
C1082 C 0.23338 0.68588 0.49712 0.0
C1083 C 0.20332 0.67194 0.48682 0.0
N1084 N 0.1629 0.68843 0.47186 0.0
N1085 N 0.28022 0.74437 0.51097 0.0
C1086 C 0.19758 0.70173 0.47961 0.0
C1087 C 0.25774 0.72966 0.49973 0.0
N1088 N 0.22979 0.7741 0.47196 0.0
N1089 N 0.2419 0.65834 0.50358 0.0
H1090 H 0.29764 0.77652 0.51305 0.0
H1091 H 0.27732 0.72483 0.51874 0.0
H1092 H 0.22729 0.62623 0.50156 0.0
H1093 H 0.26678 0.66812 0.51013 0.0
H1094 H 0.21074 0.76626 0.46373 0.0
H1095 H 0.25151 0.80623 0.47297 0.0
H1096 H 0.1555 0.70892 0.46706 0.0
H1097 H 0.13943 0.65678 0.47124 0.0
C1098 C 0.18246 0.64276 0.33742 0.0
C1099 C 0.18213 0.65966 0.34978 0.0
C1100 C 0.14023 0.58843 0.35836 0.0
C1101 C 0.15429 0.57395 0.34773 0.0
N1102 N 0.18027 0.58438 0.32566 0.0
N1103 N 0.14095 0.6482 0.3691 0.0
C1104 C 0.1715 0.59978 0.33658 0.0
C1105 C 0.1542 0.63221 0.35936 0.0
N1106 N 0.19175 0.66734 0.32659 0.0
N1107 N 0.11593 0.56035 0.36772 0.0
H1108 H 0.14815 0.67962 0.36907 0.0
H1109 H 0.12032 0.63023 0.37647 0.0
H1110 H 0.10453 0.52805 0.36662 0.0
H1111 H 0.10687 0.56847 0.37634 0.0
H1112 H 0.18997 0.65601 0.31718 0.0
H1113 H 0.19566 0.69758 0.327 0.0
H1114 H 0.19834 0.60343 0.318 0.0
H1115 H 0.1699 0.55247 0.32436 0.0
C1116 C 0.34622 0.52433 0.35701 0.0
C1117 C 0.32267 0.53912 0.35003 0.0
C1118 C 0.3876 0.592 0.33947 0.0
C1119 C 0.41107 0.58468 0.34893 0.0
N1120 N 0.41447 0.54198 0.366 0.0
N1121 N 0.32217 0.59054 0.33521 0.0
C1122 C 0.39087 0.54956 0.35731 0.0
C1123 C 0.34343 0.57321 0.34112 0.0
N1124 N 0.32595 0.48636 0.36326 0.0
N1125 N 0.40787 0.61878 0.32938 0.0
H1126 H 0.2904 0.58031 0.33676 0.0
H1127 H 0.33716 0.61819 0.32976 0.0
H1128 H 0.4404 0.6329 0.32808 0.0
H1129 H 0.39203 0.62298 0.32163 0.0
H1130 H 0.34167 0.47256 0.36768 0.0
H1131 H 0.29329 0.46679 0.36292 0.0
H1132 H 0.40157 0.5201 0.37352 0.0
H1133 H 0.4474 0.55918 0.36585 0.0
C1134 C 0.4311 0.81901 0.36371 0.0
C1135 C 0.40273 0.80232 0.3531 0.0
C1136 C 0.45102 0.78487 0.34219 0.0
C1137 C 0.47028 0.78744 0.35436 0.0
N1138 N 0.49187 0.82351 0.3749 0.0
N1139 N 0.38746 0.77327 0.33139 0.0
C1140 C 0.46485 0.81035 0.36457 0.0
C1141 C 0.41369 0.7874 0.34191 0.0
N1142 N 0.42549 0.84306 0.37278 0.0
N1143 N 0.46903 0.78131 0.331 0.0
H1144 H 0.36014 0.77537 0.33074 0.0
H1145 H 0.39179 0.75748 0.32363 0.0
H1146 H 0.49876 0.7839 0.33098 0.0
H1147 H 0.4575 0.78183 0.32178 0.0
H1148 H 0.44572 0.85789 0.38056 0.0
H1149 H 0.40133 0.85026 0.37198 0.0
H1150 H 0.48751 0.83642 0.38337 0.0
H1151 H 0.51983 0.82243 0.3747 0.0
C1152 C 0.09372 0.13977 0.25236 0.0
C1153 C 0.1214 0.14188 0.26232 0.0
C1154 C 0.16104 0.12461 0.24658 0.0
C1155 C 0.13386 0.12336 0.23654 0.0
N1156 N 0.08204 0.14131 0.22924 0.0
N1157 N 0.18681 0.14605 0.26859 0.0
C1158 C 0.10244 0.13439 0.23924 0.0
C1159 C 0.157 0.13772 0.25928 0.0
N1160 N 0.05862 0.14209 0.25547 0.0
N1161 N 0.18892 0.11083 0.2442 0.0
H1162 H 0.1845 0.15517 0.27802 0.0
H1163 H 0.21553 0.14772 0.26666 0.0
H1164 H 0.19238 0.10038 0.2351 0.0
H1165 H 0.20614 0.10641 0.25146 0.0
H1166 H 0.03444 0.13547 0.2489 0.0
H1167 H 0.05254 0.14836 0.26489 0.0
H1168 H 0.0619 0.15342 0.23054 0.0
H1169 H 0.08849 0.13909 0.21948 0.0
C1170 C 0.82312 0.00724 0.24193 0.0
C1171 C 0.85422 0.05055 0.24074 0.0
C1172 C 0.85803 0.05739 0.26445 0.0
C1173 C 0.83376 0.01285 0.26552 0.0
N1174 N 0.79256 0.94467 0.25552 0.0
N1175 N 0.89988 0.1179 0.2506 0.0
C1176 C 0.81519 0.98758 0.25436 0.0
C1177 C 0.87082 0.07608 0.25195 0.0
N1178 N 0.80192 0.98472 0.23116 0.0
N1179 N 0.8685 0.0816 0.27545 0.0
H1180 H 0.90772 0.13288 0.24156 0.0
H1181 H 0.91727 0.13733 0.25829 0.0
H1182 H 0.85879 0.06854 0.2847 0.0
H1183 H 0.88329 0.11436 0.27537 0.0
H1184 H 0.77626 0.95421 0.23154 0.0
H1185 H 0.80745 -0.00228 0.22187 0.0
H1186 H 0.78281 0.92408 0.24764 0.0
H1187 H 0.78546 0.92931 0.26448 0.0
C1188 C 0.07442 0.86206 0.25134 0.0
C1189 C 0.04982 0.84769 0.2628 0.0
C1190 C 0.98517 0.80971 0.24982 0.0
C1191 C 0.00958 0.82659 0.2384 0.0
N1192 N 0.07717 0.8576 0.22781 0.0
N1193 N 0.98411 0.79872 0.27313 0.0
C1194 C 0.05427 0.84901 0.23903 0.0
C1195 C 0.00596 0.81803 0.26207 0.0
N1196 N 0.11681 0.88944 0.25228 0.0
N1197 N 0.94213 0.78836 0.24902 0.0
H1198 H -0.0018 0.80459 0.28227 0.0
H1199 H 0.95297 0.7742 0.27315 0.0
H1200 H 0.92603 0.78094 0.24019 0.0
H1201 H 0.92228 0.77986 0.25707 0.0
H1202 H 0.13601 0.90533 0.24439 0.0
H1203 H 0.1326 0.89736 0.26119 0.0
H1204 H 0.10981 0.87101 0.22755 0.0
H1205 H 0.06295 0.84772 0.2187 0.0
C1206 C 0.90183 0.88553 0.74466 0.0
C1207 C 0.87688 0.84559 0.73864 0.0
C1208 C 0.82458 0.82874 0.75601 0.0
C1209 C 0.85396 0.86517 0.7631 0.0
N1210 N 0.92871 0.91645 0.76546 0.0
N1211 N 0.81771 0.77456 0.74106 0.0
C1212 C 0.89514 0.89003 0.75788 0.0
C1213 C 0.83907 0.81562 0.74501 0.0
N1214 N 0.93011 0.92021 0.73783 0.0
N1215 N 0.78288 0.80752 0.75927 0.0
H1216 H 0.82891 0.76266 0.73385 0.0
H1217 H 0.79175 0.75139 0.74611 0.0
H1218 H 0.77013 0.81782 0.76648 0.0
H1219 H 0.76028 0.78275 0.75368 0.0
H1220 H 0.94711 0.94984 0.74219 0.0
H1221 H 0.93152 0.9211 0.72771 0.0
H1222 H 0.95924 0.93336 0.7617 0.0
H1223 H 0.92744 0.91636 0.77559 0.0
C1224 C 0.16074 0.95386 0.75328 0.0
C1225 C 0.16643 0.98289 0.76327 0.0
C1226 C 0.19109 0.04024 0.74729 0.0
C1227 C 0.1784 0.00991 0.73724 0.0
N1228 N 0.15442 0.9389 0.73008 0.0
N1229 N 0.1905 0.05399 0.77042 0.0
C1230 C 0.16495 0.96708 0.74007 0.0
C1231 C 0.18335 0.0264 0.76046 0.0
N1232 N 0.15068 0.91366 0.75647 0.0
N1233 N 0.21009 0.08205 0.74415 0.0
H1234 H 0.18754 0.04513 0.78018 0.0
H1235 H 0.19836 0.08525 0.76913 0.0
H1236 H 0.21587 0.0926 0.73453 0.0
H1237 H 0.2229 0.10644 0.75091 0.0
H1238 H 0.14912 0.89154 0.7498 0.0
H1239 H 0.14676 0.90314 0.76606 0.0
H1240 H 0.13978 0.9064 0.73129 0.0
H1241 H 0.15941 0.94821 0.72035 0.0
C1242 C 0.96169 0.15986 0.75423 0.0
C1243 C 0.98888 0.16292 0.74396 0.0
C1244 C 0.04683 0.18196 0.75931 0.0
C1245 C 0.01882 0.17578 0.76966 0.0
N1246 N 0.95403 0.17022 0.77723 0.0
N1247 N 0.05932 0.18837 0.73599 0.0
C1248 C 0.97775 0.16891 0.76716 0.0
C1249 C 0.03229 0.178 0.74629 0.0
N1250 N 0.92009 0.14579 0.7517 0.0
N1251 N 0.08666 0.18977 0.76201 0.0
H1252 H 0.04928 0.18609 0.72637 0.0
H1253 H 0.09191 0.20256 0.73692 0.0
H1254 H 0.09865 0.195 0.77146 0.0
H1255 H 0.10724 0.18967 0.75505 0.0
H1256 H 0.89731 0.13806 0.75887 0.0
H1257 H 0.90787 0.1401 0.74228 0.0
H1258 H 0.92501 0.16857 0.77605 0.0
H1259 H 0.96516 0.17654 0.78677 0.0
C1260 C 0.84779 0.48073 0.58077 0.0
C1261 C 0.84617 0.50714 0.57107 0.0
C1262 C 0.82697 0.54333 0.58752 0.0
C1263 C 0.82095 0.51174 0.59662 0.0
N1264 N 0.82553 0.45005 0.60216 0.0
N1265 N 0.83484 0.56411 0.5648 0.0
C1266 C 0.83193 0.48068 0.59337 0.0
C1267 C 0.83691 0.53934 0.57437 0.0
N1268 N 0.86449 0.45565 0.57782 0.0
N1269 N 0.82228 0.57647 0.59139 0.0
H1270 H 0.84319 0.56286 0.55518 0.0
H1271 H 0.82307 0.58447 0.56621 0.0
H1272 H 0.81373 0.57938 0.60085 0.0
H1273 H 0.82993 0.60258 0.58558 0.0
H1274 H 0.87014 0.43817 0.58469 0.0
H1275 H 0.87653 0.4556 0.56862 0.0
H1276 H 0.82793 0.42361 0.59989 0.0
H1277 H 0.81542 0.44978 0.61165 0.0
C1278 C 0.45936 0.28823 0.57132 0.0
C1279 C 0.48072 0.33119 0.56747 0.0
C1280 C 0.49111 0.35382 0.59019 0.0
C1281 C 0.47371 0.31106 0.59402 0.0
N1282 N 0.43198 0.2373 0.58904 0.0
N1283 N 0.50693 0.40405 0.57259 0.0
C1284 C 0.45437 0.27808 0.58481 0.0
C1285 C 0.49304 0.36376 0.57675 0.0
N1286 N 0.44584 0.25751 0.56201 0.0
N1287 N 0.50728 0.38477 0.59945 0.0
H1288 H 0.50825 0.41158 0.56275 0.0
H1289 H 0.51412 0.42933 0.57874 0.0
H1290 H 0.50401 0.37803 0.60938 0.0
H1291 H 0.52457 0.41685 0.59743 0.0
H1292 H 0.43409 0.2257 0.56396 0.0
H1293 H 0.44724 0.26431 0.55212 0.0
H1294 H 0.41467 0.21154 0.58298 0.0
H1295 H 0.42828 0.22949 0.59889 0.0
C1296 C 0.68457 0.15284 0.57459 0.0
C1297 C 0.64111 0.13907 0.57273 0.0
C1298 C 0.63103 0.13703 0.59634 0.0
C1299 C 0.67543 0.15864 0.59795 0.0
N1300 N 0.74501 0.18571 0.58914 0.0
N1301 N 0.57177 0.1141 0.58153 0.0
C1302 C 0.70236 0.16535 0.58724 0.0
C1303 C 0.61384 0.1293 0.58357 0.0
N1304 N 0.70887 0.15464 0.56424 0.0
N1305 N 0.60561 0.12444 0.60708 0.0
H1306 H 0.55816 0.10568 0.5723 0.0
H1307 H 0.55059 0.11087 0.5888 0.0
H1308 H 0.61766 0.12981 0.61653 0.0
H1309 H 0.57292 0.10589 0.60674 0.0
H1310 H 0.73987 0.16112 0.56509 0.0
H1311 H 0.697 0.14613 0.55485 0.0
H1312 H 0.76701 0.19648 0.58163 0.0
H1313 H 0.75854 0.19344 0.59838 0.0
C1314 C 0.54234 0.23878 0.07724 0.0
C1315 C 0.52429 0.19714 0.07231 0.0
C1316 C 0.47623 0.17411 0.09105 0.0
C1317 C 0.50182 0.21377 0.09727 0.0
N1318 N 0.57118 0.27748 0.09683 0.0
N1319 N 0.47751 0.12264 0.07658 0.0
C1320 C 0.53836 0.2445 0.09058 0.0
C1321 C 0.49204 0.16383 0.07975 0.0
N1322 N 0.56212 0.27316 0.06932 0.0
N1323 N 0.43658 0.14685 0.09546 0.0
H1324 H 0.49011 0.11328 0.06908 0.0
H1325 H 0.45633 0.09783 0.08246 0.0
H1326 H 0.42208 0.15466 0.10281 0.0
H1327 H 0.41622 0.11896 0.09059 0.0
H1328 H 0.57375 0.30374 0.07285 0.0
H1329 H 0.56111 0.27089 0.0592 0.0
H1330 H 0.59875 0.29848 0.09191 0.0
H1331 H 0.57425 0.27997 0.1069 0.0
C1332 C 0.85416 0.3077 0.07947 0.0
C1333 C 0.86826 0.34923 0.07494 0.0
C1334 C 0.87834 0.37542 0.09728 0.0
C1335 C 0.8594 0.33319 0.10176 0.0
N1336 N 0.84021 0.26099 0.09794 0.0
N1337 N 0.90444 0.42384 0.07891 0.0
C1338 C 0.85142 0.29995 0.09309 0.0
C1339 C 0.88441 0.38364 0.08369 0.0
N1340 N 0.84145 0.27562 0.07065 0.0
N1341 N 0.88856 0.40715 0.10607 0.0
H1342 H 0.90889 0.43021 0.06897 0.0
H1343 H 0.91927 0.45077 0.08466 0.0
H1344 H 0.88645 0.40195 0.1161 0.0
H1345 H 0.89834 0.43821 0.10357 0.0
H1346 H 0.82645 0.24383 0.0731 0.0
H1347 H 0.8453 0.28103 0.06064 0.0
H1348 H 0.83639 0.23574 0.0923 0.0
H1349 H 0.83772 0.25473 0.10789 0.0
C1350 C 0.64944 0.50268 0.0956 0.0
C1351 C 0.64499 0.46832 0.10333 0.0
C1352 C 0.62301 0.42451 0.08394 0.0
C1353 C 0.61948 0.45568 0.07669 0.0
N1354 N 0.61814 0.52133 0.078 0.0
N1355 N 0.60685 0.39177 0.10487 0.0
C1356 C 0.62925 0.49398 0.08319 0.0
C1357 C 0.62513 0.42767 0.09756 0.0
N1358 N 0.67396 0.54344 0.09958 0.0
N1359 N 0.62754 0.39349 0.07811 0.0
H1360 H 0.60208 0.39192 0.11487 0.0
H1361 H 0.59077 0.36195 0.1006 0.0
H1362 H 0.63413 0.39356 0.06825 0.0
H1363 H 0.63199 0.37196 0.08354 0.0
H1364 H 0.68002 0.56892 0.09363 0.0
H1365 H 0.69238 0.55206 0.10794 0.0
H1366 H 0.62252 0.54805 0.08299 0.0
H1367 H 0.59945 0.51453 0.06973 0.0
C1368 C 0.47114 0.88692 0.91698 0.0
C1369 C 0.48371 0.87344 0.92813 0.0
C1370 C 0.52403 0.85107 0.91444 0.0
C1371 C 0.50435 0.85653 0.90336 0.0
N1372 N 0.46399 0.88455 0.89344 0.0
N1373 N 0.52425 0.84527 0.93795 0.0
C1374 C 0.47994 0.87673 0.90444 0.0
C1375 C 0.51185 0.8574 0.92702 0.0
N1376 N 0.45055 0.90915 0.91853 0.0
N1377 N 0.55346 0.83884 0.91289 0.0
H1378 H 0.51719 0.85079 0.94731 0.0
H1379 H 0.54013 0.82833 0.93783 0.0
H1380 H 0.5622 0.8333 0.90377 0.0
H1381 H 0.57172 0.83759 0.92044 0.0
H1382 H 0.44248 0.92246 0.91092 0.0
H1383 H 0.44445 0.91712 0.92771 0.0
H1384 H 0.44213 0.89481 0.89344 0.0
H1385 H 0.47227 0.87986 0.88413 0.0
C1386 C 0.1728 0.67144 0.92423 0.0
C1387 C 0.17003 0.63288 0.92804 0.0
C1388 C 0.17662 0.61724 0.90531 0.0
C1389 C 0.1869 0.6589 0.90184 0.0
N1390 N 0.19717 0.72695 0.90805 0.0
N1391 N 0.16984 0.56892 0.9225 0.0
C1392 C 0.18492 0.68619 0.91126 0.0
C1393 C 0.17176 0.60556 0.91864 0.0
N1394 N 0.16426 0.69409 0.93306 0.0
N1395 N 0.17032 0.58851 0.89581 0.0
H1396 H 0.16374 0.55825 0.9321 0.0
H1397 H 0.17632 0.55023 0.91636 0.0
H1398 H 0.17258 0.59565 0.88592 0.0
H1399 H 0.15885 0.55663 0.89762 0.0
H1400 H 0.16194 0.72046 0.93063 0.0
H1401 H 0.15556 0.68419 0.94263 0.0
H1402 H 0.20115 0.74978 0.91483 0.0
H1403 H 0.20651 0.73899 0.89869 0.0
C1404 C 0.25503 0.44488 0.91723 0.0
C1405 C 0.2823 0.45961 0.90636 0.0
C1406 C 0.34374 0.48401 0.92075 0.0
C1407 C 0.317 0.47673 0.93155 0.0
N1408 N 0.24725 0.44643 0.94067 0.0
N1409 N 0.35268 0.49281 0.89738 0.0
C1410 C 0.2725 0.45535 0.92997 0.0
C1411 C 0.32666 0.47803 0.90798 0.0
N1412 N 0.21251 0.42093 0.91527 0.0
N1413 N 0.38551 0.49756 0.92271 0.0
H1414 H 0.34159 0.48837 0.88786 0.0
H1415 H 0.38533 0.51149 0.89799 0.0
H1416 H 0.39898 0.50316 0.93195 0.0
H1417 H 0.40602 0.49972 0.91535 0.0
H1418 H 0.19057 0.40644 0.92268 0.0
H1419 H 0.19941 0.4127 0.90597 0.0
H1420 H 0.21502 0.43547 0.94026 0.0
H1421 H 0.25906 0.45109 0.95014 0.0
C1422 C 0.13625 0.52353 0.42005 0.0
C1423 C 0.15868 0.51844 0.43046 0.0
C1424 C 0.19244 0.49224 0.41541 0.0
C1425 C 0.17107 0.49853 0.40496 0.0
N1426 N 0.11545 0.50996 0.39732 0.0
N1427 N 0.1983 0.48711 0.43876 0.0
C1428 C 0.14035 0.5106 0.40731 0.0
C1429 C 0.18367 0.49926 0.42834 0.0
N1430 N 0.1131 0.54288 0.4222 0.0
N1431 N 0.22222 0.48103 0.41291 0.0
H1432 H 0.19171 0.49111 0.44836 0.0
H1433 H 0.2135 0.4696 0.43794 0.0
H1434 H 0.22774 0.47357 0.40358 0.0
H1435 H 0.24275 0.48104 0.41991 0.0
H1436 H 0.09993 0.552 0.41481 0.0
H1437 H 0.109 0.55212 0.43143 0.0
H1438 H 0.09002 0.51492 0.39851 0.0
H1439 H 0.118 0.50075 0.38791 0.0
C1440 C 0.46313 0.61241 0.40905 0.0
C1441 C 0.4917 0.65619 0.40748 0.0
C1442 C 0.50303 0.66405 0.43103 0.0
C1443 C 0.46927 0.62212 0.43266 0.0
N1444 N 0.41754 0.55549 0.42364 0.0
N1445 N 0.5401 0.72408 0.41653 0.0
C1446 C 0.44983 0.59579 0.42177 0.0
C1447 C 0.5127 0.68203 0.41834 0.0
N1448 N 0.44897 0.58694 0.39833 0.0
N1449 N 0.5253 0.68664 0.44166 0.0
H1450 H 0.54872 0.73766 0.40731 0.0
H1451 H 0.55291 0.7459 0.42406 0.0
H1452 H 0.51853 0.67434 0.45107 0.0
H1453 H 0.55238 0.71614 0.44115 0.0
H1454 H 0.43081 0.55423 0.39875 0.0
H1455 H 0.4585 0.59841 0.38891 0.0
H1456 H 0.39849 0.53604 0.41619 0.0
H1457 H 0.40864 0.54195 0.43286 0.0
C1458 C 0.37556 0.82039 0.42092 0.0
C1459 C 0.35128 0.82383 0.43102 0.0
C1460 C 0.2958 0.81249 0.41537 0.0
C1461 C 0.3172 0.8026 0.40572 0.0
N1462 N 0.37746 0.79674 0.39907 0.0
N1463 N 0.28827 0.82279 0.43837 0.0
C1464 C 0.35732 0.80683 0.4084 0.0
C1465 C 0.31167 0.82055 0.42835 0.0
N1466 N 0.41632 0.83062 0.42335 0.0
N1467 N 0.26009 0.81351 0.41217 0.0
H1468 H 0.29953 0.83001 0.44788 0.0
H1469 H 0.25703 0.81552 0.43744 0.0
H1470 H 0.24676 0.80602 0.40291 0.0
H1471 H 0.24525 0.82451 0.41838 0.0
H1472 H 0.4374 0.83278 0.41619 0.0
H1473 H 0.43033 0.84083 0.43247 0.0
H1474 H 0.40395 0.79396 0.40086 0.0
H1475 H 0.36657 0.78903 0.38955 0.0
C1476 C 0.30356 0.17 0.15368 0.0
C1477 C 0.27951 0.13991 0.16332 0.0
C1478 C 0.32715 0.11098 0.16221 0.0
C1479 C 0.35214 0.14254 0.15301 0.0
N1480 N 0.35044 0.18558 0.13542 0.0
N1481 N 0.26049 0.07345 0.17368 0.0
C1482 C 0.33615 0.16694 0.14725 0.0
C1483 C 0.28892 0.10782 0.16672 0.0
N1484 N 0.29628 0.20232 0.15093 0.0
N1485 N 0.33997 0.08389 0.16651 0.0
H1486 H 0.2315 0.06921 0.17678 0.0
H1487 H 0.26372 0.0472 0.17542 0.0
H1488 H 0.36455 0.08188 0.16206 0.0
H1489 H 0.32681 0.06407 0.17449 0.0
H1490 H 0.31592 0.22745 0.1449 0.0
H1491 H 0.27319 0.2062 0.15564 0.0
H1492 H 0.33779 0.20171 0.13056 0.0
H1493 H 0.36957 0.17902 0.12951 0.0
C1494 C 0.79712 0.13912 0.18121 0.0
C1495 C 0.83715 0.14364 0.17872 0.0
C1496 C 0.86378 0.21605 0.17114 0.0
C1497 C 0.82246 0.2098 0.17214 0.0
N1498 N 0.74839 0.16409 0.1768 0.0
N1499 N 0.90843 0.18481 0.17062 0.0
C1500 C 0.78874 0.17113 0.17694 0.0
C1501 C 0.87044 0.18166 0.17347 0.0
N1502 N 0.76726 0.10434 0.18768 0.0
N1503 N 0.89695 0.25542 0.16858 0.0
H1504 H 0.91572 0.16151 0.17296 0.0
H1505 H 0.93194 0.20941 0.16524 0.0
H1506 H 0.89339 0.28168 0.16715 0.0
H1507 H 0.9284 0.26309 0.16909 0.0
H1508 H 0.73908 0.1013 0.19109 0.0
H1509 H 0.77201 0.07967 0.19052 0.0
H1510 H 0.72196 0.1349 0.1787 0.0
H1511 H 0.74079 0.18662 0.17381 0.0
C1512 C 0.84993 0.66089 0.16873 0.0
C1513 C 0.84566 0.69671 0.17092 0.0
C1514 C 0.76988 0.65555 0.16624 0.0
C1515 C 0.77345 0.61893 0.16539 0.0
N1516 N 0.81543 0.58494 0.16669 0.0
N1517 N 0.80195 0.72855 0.1731 0.0
C1518 C 0.81314 0.62111 0.16681 0.0
C1519 C 0.80577 0.69429 0.16994 0.0
N1520 N 0.88924 0.66521 0.16812 0.0
N1521 N 0.7323 0.65322 0.16337 0.0
H1522 H 0.82752 0.75755 0.17583 0.0
H1523 H 0.77316 0.72761 0.17395 0.0
H1524 H 0.7054 0.625 0.16082 0.0
H1525 H 0.72852 0.67946 0.16252 0.0
H1526 H 0.89487 0.64129 0.16514 0.0
H1527 H 0.91684 0.69392 0.16964 0.0
H1528 H 0.84231 0.5837 0.16923 0.0
H1529 H 0.78956 0.55535 0.16475 0.0
C1530 C 0.19418 0.3613 0.33781 0.0
C1531 C 0.15893 0.36707 0.33583 0.0
C1532 C 0.11832 0.296 0.3268 0.0
C1533 C 0.15439 0.29119 0.32802 0.0
N1534 N 0.22805 0.32031 0.33287 0.0
N1535 N 0.08996 0.34336 0.3268 0.0
C1536 C 0.19273 0.32413 0.33307 0.0
C1537 C 0.12179 0.3355 0.32977 0.0
N1538 N 0.22901 0.39136 0.34426 0.0
N1539 N 0.08018 0.26213 0.32351 0.0
H1540 H 0.09057 0.3712 0.32943 0.0
H1541 H 0.06425 0.32359 0.32101 0.0
H1542 H 0.07611 0.23247 0.3214 0.0
H1543 H 0.05185 0.26231 0.32389 0.0
H1544 H 0.25361 0.38699 0.34737 0.0
H1545 H 0.23246 0.42013 0.34724 0.0
H1546 H 0.25813 0.34473 0.33515 0.0
H1547 H 0.22791 0.29347 0.32938 0.0
C1548 C 0.64106 0.82291 0.34779 0.0
C1549 C 0.63226 0.78212 0.34375 0.0
C1550 C 0.69783 0.81323 0.3312 0.0
C1551 C 0.7075 0.85375 0.33575 0.0
N1552 N 0.69273 0.89709 0.35001 0.0
N1553 N 0.65442 0.73726 0.33355 0.0
C1554 C 0.68058 0.85851 0.34462 0.0
C1555 C 0.66129 0.77695 0.33598 0.0
N1556 N 0.61068 0.82804 0.35389 0.0
N1557 N 0.72348 0.80951 0.32226 0.0
H1558 H 0.62812 0.71017 0.33709 0.0
H1559 H 0.67621 0.73111 0.32903 0.0
H1560 H 0.75178 0.83503 0.31904 0.0
H1561 H 0.71572 0.78158 0.31742 0.0
H1562 H 0.6134 0.85733 0.3556 0.0
H1563 H 0.58108 0.80308 0.35637 0.0
H1564 H 0.67693 0.90152 0.35773 0.0
H1565 H 0.72038 0.92445 0.34738 0.0
C1566 C 0.1773 0.84174 0.32012 0.0
C1567 C 0.14198 0.83188 0.32813 0.0
C1568 C 0.18105 0.82961 0.34719 0.0
C1569 C 0.21639 0.8396 0.33917 0.0
N1570 N 0.25299 0.87208 0.31932 0.0
N1571 N 0.10542 0.80017 0.34805 0.0
C1572 C 0.21592 0.85076 0.326 0.0
C1573 C 0.14247 0.821 0.34133 0.0
N1574 N 0.17333 0.83906 0.3069 0.0
N1575 N 0.18504 0.83178 0.36042 0.0
H1576 H 0.07631 0.79024 0.3436 0.0
H1577 H 0.10317 0.78798 0.35736 0.0
H1578 H 0.21419 0.84473 0.36504 0.0
H1579 H 0.1608 0.82752 0.36666 0.0
H1580 H 0.1977 0.8433 0.30071 0.0
H1581 H 0.14418 0.82563 0.30226 0.0
H1582 H 0.25509 0.88436 0.31003 0.0
H1583 H 0.28212 0.88225 0.32379 0.0
C1584 C 0.68871 0.85923 0.82193 0.0
C1585 C 0.69876 0.82713 0.82466 0.0
C1586 C 0.6324 0.78705 0.83658 0.0
C1587 C 0.62158 0.81804 0.83322 0.0
N1588 N 0.63474 0.87899 0.82068 0.0
N1589 N 0.67741 0.7572 0.83236 0.0
C1590 C 0.64817 0.85254 0.82519 0.0
C1591 C 0.66975 0.79003 0.83136 0.0
N1592 N 0.7187 0.89733 0.81707 0.0
N1593 N 0.60723 0.75508 0.84489 0.0
H1594 H 0.70415 0.75824 0.82839 0.0
H1595 H 0.6557 0.72769 0.83602 0.0
H1596 H 0.57873 0.75086 0.8485 0.0
H1597 H 0.61577 0.73431 0.84889 0.0
H1598 H 0.71464 0.92346 0.81642 0.0
H1599 H 0.74917 0.90436 0.81474 0.0
H1600 H 0.65067 0.90167 0.81354 0.0
H1601 H 0.60592 0.87616 0.82333 0.0
C1602 C 0.19735 0.81954 0.84046 0.0
C1603 C 0.16292 0.77831 0.83817 0.0
C1604 C 0.12251 0.80789 0.82836 0.0
C1605 C 0.15605 0.84901 0.83135 0.0
N1606 N 0.22202 0.89438 0.84209 0.0
N1607 N 0.09079 0.73244 0.83184 0.0
C1608 C 0.19237 0.85495 0.83804 0.0
C1609 C 0.1249 0.77224 0.83263 0.0
N1610 N 0.23561 0.82496 0.8442 0.0
N1611 N 0.08857 0.803 0.82136 0.0
H1612 H 0.09168 0.70578 0.83496 0.0
H1613 H 0.06076 0.72596 0.82912 0.0
H1614 H 0.08461 0.82819 0.81858 0.0
H1615 H 0.06546 0.77428 0.81759 0.0
H1616 H 0.26308 0.85422 0.8446 0.0
H1617 H 0.24089 0.79991 0.84584 0.0
H1618 H 0.24672 0.90004 0.84833 0.0
H1619 H 0.22027 0.92133 0.83997 0.0
C1620 C 0.19775 0.3386 0.83054 0.0
C1621 C 0.20465 0.35178 0.84369 0.0
C1622 C 0.13152 0.29993 0.84879 0.0
C1623 C 0.12406 0.28716 0.83556 0.0
N1624 N 0.14659 0.30763 0.8133 0.0
N1625 N 0.18348 0.33044 0.86586 0.0
C1626 C 0.15619 0.31002 0.82622 0.0
C1627 C 0.17313 0.32813 0.85302 0.0
N1628 N 0.23134 0.35172 0.82234 0.0
N1629 N 0.09836 0.28751 0.85713 0.0
H1630 H 0.21474 0.34654 0.86902 0.0
H1631 H 0.1621 0.31143 0.87296 0.0
H1632 H 0.06712 0.27088 0.85396 0.0
H1633 H 0.10184 0.29872 0.86664 0.0
H1634 H 0.22868 0.34033 0.8129 0.0
H1635 H 0.26236 0.36939 0.82566 0.0
H1636 H 0.16859 0.32594 0.80625 0.0
H1637 H 0.11568 0.29316 0.8099 0.0
C1638 C 0.86773 0.65777 0.66505 0.0
C1639 C 0.82554 0.62434 0.6645 0.0
C1640 C 0.80013 0.67009 0.67313 0.0
C1641 C 0.84196 0.70425 0.67279 0.0
N1642 N 0.91541 0.73293 0.66723 0.0
N1643 N 0.75082 0.59907 0.66597 0.0
C1644 C 0.87577 0.69877 0.6684 0.0
C1645 C 0.79146 0.63054 0.66801 0.0
N1646 N 0.90002 0.64998 0.66275 0.0
N1647 N 0.76892 0.67538 0.67852 0.0
H1648 H 0.74321 0.56974 0.66214 0.0
H1649 H 0.7247 0.60299 0.66704 0.0
H1650 H 0.7742 0.70434 0.68207 0.0
H1651 H 0.7386 0.65064 0.68037 0.0
H1652 H 0.93163 0.67186 0.6644 0.0
H1653 H 0.89502 0.62038 0.66001 0.0
H1654 H 0.94036 0.73196 0.66271 0.0
H1655 H 0.92293 0.76322 0.67006 0.0
C1656 C 0.33287 0.20992 0.66567 0.0
C1657 C 0.36502 0.20554 0.6595 0.0
C1658 C 0.32219 0.12852 0.66084 0.0
C1659 C 0.29151 0.13299 0.66794 0.0
N1660 N 0.26775 0.17709 0.67805 0.0
N1661 N 0.39406 0.16179 0.65297 0.0
C1662 C 0.29695 0.1735 0.67067 0.0
C1663 C 0.36064 0.16513 0.65747 0.0
N1664 N 0.33616 0.24878 0.66631 0.0
N1665 N 0.31445 0.08929 0.65727 0.0
H1666 H 0.42292 0.18774 0.65039 0.0
H1667 H 0.39453 0.1336 0.65274 0.0
H1668 H 0.28766 0.06159 0.66022 0.0
H1669 H 0.33319 0.08418 0.65074 0.0
H1670 H 0.31206 0.25386 0.66949 0.0
H1671 H 0.3621 0.27597 0.66266 0.0
H1672 H 0.27215 0.20558 0.68165 0.0
H1673 H 0.23976 0.15123 0.68127 0.0
C1674 C 0.83192 0.19536 0.66268 0.0
C1675 C 0.79001 0.16331 0.66567 0.0
C1676 C 0.81675 0.12388 0.67769 0.0
C1677 C 0.85855 0.15706 0.67535 0.0
N1678 N 0.90682 0.22626 0.66716 0.0
N1679 N 0.74183 0.09984 0.67712 0.0
C1680 C 0.86642 0.19328 0.66821 0.0
C1681 C 0.78222 0.12841 0.67354 0.0
N1682 N 0.83873 0.22787 0.6546 0.0
N1683 N 0.81012 0.08729 0.68339 0.0
H1684 H 0.71555 0.10071 0.67359 0.0
H1685 H 0.73435 0.07665 0.68413 0.0
H1686 H 0.8345 0.08289 0.68678 0.0
H1687 H 0.78072 0.06008 0.68399 0.0
H1688 H 0.86808 0.24936 0.6508 0.0
H1689 H 0.81464 0.23239 0.65103 0.0
H1690 H 0.91468 0.25551 0.66328 0.0
H1691 H 0.93271 0.22553 0.67111 0.0
C1692 C 0.00203 0.53144 0.48586 0.0
C1693 C 0.01272 0.50079 0.48987 0.0
C1694 C 0.94528 0.46123 0.50118 0.0
C1695 C 0.93404 0.49119 0.49688 0.0
N1696 N 0.94732 0.54982 0.48313 0.0
N1697 N 0.99164 0.43216 0.49861 0.0
C1698 C 0.96091 0.52454 0.48848 0.0
C1699 C 0.98337 0.4643 0.49671 0.0
N1700 N 0.03192 0.56839 0.48033 0.0
N1701 N 0.91993 0.43026 0.50974 0.0
H1702 H 0.01911 0.43336 0.49522 0.0
H1703 H 0.96981 0.40287 0.50238 0.0
H1704 H 0.89088 0.4257 0.51285 0.0
H1705 H 0.92881 0.41072 0.51443 0.0
H1706 H 0.0275 0.59396 0.47867 0.0
H1707 H 0.0625 0.57501 0.47827 0.0
H1708 H 0.96356 0.57162 0.4758 0.0
H1709 H 0.91815 0.54689 0.48533 0.0
C1710 C 0.52358 0.48106 0.50285 0.0
C1711 C 0.49442 0.43972 0.49843 0.0
C1712 C 0.45101 0.46558 0.48842 0.0
C1713 C 0.48111 0.50715 0.49239 0.0
N1714 N 0.54978 0.55614 0.50084 0.0
N1715 N 0.43462 0.39331 0.4852 0.0
C1716 C 0.51853 0.51537 0.49887 0.0
C1717 C 0.45961 0.43226 0.49056 0.0
N1718 N 0.55583 0.48753 0.51098 0.0
N1719 N 0.41308 0.45745 0.48338 0.0
H1720 H 0.43857 0.36752 0.48713 0.0
H1721 H 0.41182 0.38721 0.47816 0.0
H1722 H 0.40523 0.48077 0.4817 0.0
H1723 H 0.38797 0.42716 0.48176 0.0
H1724 H 0.57492 0.51587 0.51578 0.0
H1725 H 0.56205 0.46376 0.51365 0.0
H1726 H 0.57968 0.56451 0.5043 0.0
H1727 H 0.54718 0.58198 0.49785 0.0
C1728 C 0.55037 0.01317 0.49614 0.0
C1729 C 0.55392 0.02722 0.50915 0.0
C1730 C 0.47886 0.97783 0.51252 0.0
C1731 C 0.47477 0.96428 0.49939 0.0
N1732 N 0.50456 0.98159 0.47768 0.0
N1733 N 0.52572 0.00775 0.53085 0.0
C1734 C 0.50992 0.98525 0.49086 0.0
C1735 C 0.5194 0.00521 0.51772 0.0
N1736 N 0.58611 0.02489 0.48906 0.0
N1737 N 0.44358 0.9665 0.51981 0.0
H1738 H 0.55581 0.0222 0.53493 0.0
H1739 H 0.50187 0.98989 0.5375 0.0
H1740 H 0.41329 0.94968 0.51588 0.0
H1741 H 0.44455 0.97847 0.52908 0.0
H1742 H 0.58602 0.01264 0.47991 0.0
H1743 H 0.6161 0.04247 0.49315 0.0
H1744 H 0.52893 -0.00137 0.47112 0.0
H1745 H 0.47511 0.96748 0.47325 0.0
C1746 C 0.45708 0.01076 0.00435 0.0
C1747 C 0.49684 0.0382 0.00993 0.0
C1748 C 0.5192 0.98599 0.00651 0.0
C1749 C 0.48158 0.961 0.99944 0.0
N1750 N 0.41434 0.94861 0.99131 0.0
N1751 N 0.56741 0.05456 0.01567 0.0
C1752 C 0.45029 0.97304 0.9983 0.0
C1753 C 0.52823 0.02634 0.01102 0.0
N1754 N 0.42562 0.02052 0.00516 0.0
N1755 N 0.5462 0.97114 0.00889 0.0
H1756 H 0.57515 0.08418 0.01928 0.0
H1757 H 0.59316 0.04983 0.01523 0.0
H1758 H 0.54137 0.94247 0.00522 0.0
H1759 H 0.57179 0.98569 0.0152 0.0
H1760 H 0.39453 0.00016 0.00242 0.0
H1761 H 0.42983 0.04791 0.00968 0.0
H1762 H 0.39275 0.95802 0.98878 0.0
H1763 H 0.40684 0.91945 0.98737 0.0
C1764 C 0.99007 0.4535 0.99639 0.0
C1765 C 0.96015 0.45952 0.00336 0.0
C1766 C 0.00271 0.536 1.00027 0.0
C1767 C 0.03454 0.53023 0.99446 0.0
N1768 N 0.06212 0.48443 0.9889 0.0
N1769 N 0.93818 0.50576 0.01291 0.0
C1770 C 0.0291 0.4892 0.99291 0.0
C1771 C 0.96654 0.50061 0.0056 0.0
N1772 N 0.98115 0.41369 0.99309 0.0
N1773 N 0.0066 0.57515 1.00029 0.0
H1774 H 0.91025 0.48058 0.01648 0.0
H1775 H 0.94338 0.53492 0.01615 0.0
H1776 H 0.03265 0.60156 0.99633 0.0
H1777 H 0.98275 0.58098 0.00319 0.0
H1778 H -0.00047 0.40757 0.9867 0.0
H1779 H 0.95364 0.38664 0.99601 0.0
H1780 H 0.06159 0.45573 0.98903 0.0
H1781 H 0.09159 0.50972 0.98649 0.0
C1782 C 0.46546 0.47306 1.00021 0.0
C1783 C 0.47092 0.51412 1.00017 0.0
C1784 C 0.54277 0.54315 0.00873 0.0
C1785 C 0.53848 0.50268 0.00768 0.0
N1786 N 0.49823 0.42989 1.00079 0.0
N1787 N 0.51649 0.58944 0.00223 0.0
C1788 C 0.50058 0.46789 0.00289 0.0
C1789 C 0.51001 0.54957 0.0039 0.0
N1790 N 0.42626 0.4388 0.9983 0.0
N1791 N 0.57793 0.57524 0.01442 0.0
H1792 H 0.49362 0.59552 0.99846 0.0
H1793 H 0.54563 0.61659 0.0035 0.0
H1794 H 0.60306 0.57177 0.01764 0.0
H1795 H 0.58094 0.60429 0.01677 0.0
H1796 H 0.4193 0.40782 0.9997 0.0
H1797 H 0.39955 0.44125 0.99644 0.0
H1798 H 0.47349 0.40499 0.99585 0.0
H1799 H 0.52252 0.42412 0.00312 0.0
loop_
_geom_bond_atom_site_label_1
_geom_bond_atom_site_label_2
_geom_bond_distance
_geom_bond_site_symmetry_2
_ccdc_geom_bond_type
O0 Cd1 2.223 . S
O0 C8 1.315 . S
Cd1 O0 2.223 . S
Cd1 O4 2.297 . S
Cd1 O5 2.439 . S
Cd1 O11 2.240 . S
Cd2 O3 2.240 . S
Cd2 O10 2.223 . S
Cd2 O12 2.297 . S
Cd2 O13 2.439 . S
O3 Cd2 2.240 . S
O3 C8 1.279 . S
O4 Cd1 2.297 . S
O4 C6 1.247 . S
O5 Cd1 2.439 . S
O5 C6 1.208 . S
C6 O4 1.247 . S
C6 O5 1.208 . S
C7 O12 1.247 . S
C7 O13 1.208 . S
C8 O0 1.315 . S
C8 O3 1.279 . S
C9 O10 1.315 . S
C9 O11 1.279 . S
O10 Cd2 2.223 . S
O10 C9 1.315 . S
O11 Cd1 2.240 . S
O11 C9 1.279 . S
O12 Cd2 2.297 . S
O12 C7 1.247 . S
O13 Cd2 2.439 . S
O13 C7 1.208 . S
O14 Cd15 2.223 . S
O14 C22 1.315 . S
Cd15 O14 2.223 . S
Cd15 O18 2.297 . S
Cd15 O19 2.439 . S
Cd15 O25 2.240 1_545 S
Cd16 O17 2.240 . S
Cd16 O24 2.223 1_545 S
Cd16 O26 2.297 1_545 S
Cd16 O27 2.439 . S
O17 Cd16 2.240 . S
O17 C22 1.279 . S
O18 Cd15 2.297 . S
O18 C20 1.247 . S
O19 Cd15 2.439 . S
O19 C20 1.208 . S
C20 O18 1.247 . S
C20 O19 1.208 . S
C21 O26 1.247 . S
C21 O27 1.208 1_565 S
C22 O14 1.315 . S
C22 O17 1.279 . S
C23 O24 1.315 . S
C23 O25 1.279 . S
O24 Cd16 2.223 1_565 S
O24 C23 1.315 . S
O25 Cd15 2.240 1_565 S
O25 C23 1.279 . S
O26 Cd16 2.297 1_565 S
O26 C21 1.247 . S
O27 Cd16 2.439 . S
O27 C21 1.208 1_545 S
O28 Cd29 2.223 . S
O28 C36 1.315 . S
Cd29 O28 2.223 . S
Cd29 O32 2.297 . S
Cd29 O33 2.439 . S
Cd29 O39 2.240 1_655 S
Cd30 O31 2.240 . S
Cd30 O38 2.223 1_655 S
Cd30 O40 2.297 1_655 S
Cd30 O41 2.439 . S
O31 Cd30 2.240 . S
O31 C36 1.279 . S
O32 Cd29 2.297 . S
O32 C34 1.247 . S
O33 Cd29 2.439 . S
O33 C34 1.208 . S
C34 O32 1.247 . S
C34 O33 1.208 . S
C35 O40 1.247 . S
C35 O41 1.208 1_455 S
C36 O28 1.315 . S
C36 O31 1.279 . S
C37 O38 1.315 . S
C37 O39 1.279 . S
O38 Cd30 2.223 1_455 S
O38 C37 1.315 . S
O39 Cd29 2.240 1_455 S
O39 C37 1.279 . S
O40 Cd30 2.297 1_455 S
O40 C35 1.247 . S
O41 Cd30 2.439 . S
O41 C35 1.208 1_655 S
O42 Cd43 2.223 . S
O42 C50 1.315 . S
Cd43 O42 2.223 . S
Cd43 O46 2.297 . S
Cd43 O47 2.439 . S
Cd43 O53 2.240 . S
Cd44 O45 2.240 . S
Cd44 O52 2.223 . S
Cd44 O54 2.297 . S
Cd44 O55 2.439 . S
O45 Cd44 2.240 . S
O45 C50 1.279 . S
O46 Cd43 2.297 . S
O46 C48 1.247 . S
O47 Cd43 2.439 . S
O47 C48 1.208 . S
C48 O46 1.247 . S
C48 O47 1.208 . S
C49 O54 1.247 . S
C49 O55 1.208 . S
C50 O42 1.315 . S
C50 O45 1.279 . S
C51 O52 1.315 . S
C51 O53 1.279 . S
O52 Cd44 2.223 . S
O52 C51 1.315 . S
O53 Cd43 2.240 . S
O53 C51 1.279 . S
O54 Cd44 2.297 . S
O54 C49 1.247 . S
O55 Cd44 2.439 . S
O55 C49 1.208 . S
O56 Cd57 2.223 . S
O56 C64 1.315 . S
Cd57 O56 2.223 . S
Cd57 O60 2.297 . S
Cd57 O61 2.439 . S
Cd57 O67 2.240 1_565 S
Cd58 O59 2.240 . S
Cd58 O66 2.223 1_565 S
Cd58 O68 2.297 1_565 S
Cd58 O69 2.439 . S
O59 Cd58 2.240 . S
O59 C64 1.279 . S
O60 Cd57 2.297 . S
O60 C62 1.247 . S
O61 Cd57 2.439 . S
O61 C62 1.208 . S
C62 O60 1.247 . S
C62 O61 1.208 . S
C63 O68 1.247 . S
C63 O69 1.208 1_545 S
C64 O56 1.315 . S
C64 O59 1.279 . S
C65 O66 1.315 . S
C65 O67 1.279 . S
O66 Cd58 2.223 1_545 S
O66 C65 1.315 . S
O67 Cd57 2.240 1_545 S
O67 C65 1.279 . S
O68 Cd58 2.297 1_545 S
O68 C63 1.247 . S
O69 Cd58 2.439 . S
O69 C63 1.208 1_565 S
O70 Cd71 2.223 . S
O70 C78 1.315 . S
Cd71 O70 2.223 . S
Cd71 O74 2.297 . S
Cd71 O75 2.439 . S
Cd71 O81 2.240 1_455 S
Cd72 O73 2.240 . S
Cd72 O80 2.223 1_455 S
Cd72 O82 2.297 1_455 S
Cd72 O83 2.439 . S
O73 Cd72 2.240 . S
O73 C78 1.279 . S
O74 Cd71 2.297 . S
O74 C76 1.247 . S
O75 Cd71 2.439 . S
O75 C76 1.208 . S
C76 O74 1.247 . S
C76 O75 1.208 . S
C77 O82 1.247 . S
C77 O83 1.208 1_655 S
C78 O70 1.315 . S
C78 O73 1.279 . S
C79 O80 1.315 . S
C79 O81 1.279 . S
O80 Cd72 2.223 1_655 S
O80 C79 1.315 . S
O81 Cd71 2.240 1_655 S
O81 C79 1.279 . S
O82 Cd72 2.297 1_655 S
O82 C77 1.247 . S
O83 Cd72 2.439 . S
O83 C77 1.208 1_455 S
O84 Cd85 2.223 . S
O84 C92 1.315 . S
Cd85 O84 2.223 . S
Cd85 O88 2.297 . S
Cd85 O89 2.439 . S
Cd85 O95 2.240 . S
Cd86 O87 2.240 . S
Cd86 O94 2.223 . S
Cd86 O96 2.297 . S
Cd86 O97 2.439 . S
O87 Cd86 2.240 . S
O87 C92 1.279 . S
O88 Cd85 2.297 . S
O88 C90 1.247 . S
O89 Cd85 2.439 . S
O89 C90 1.208 . S
C90 O88 1.247 . S
C90 O89 1.208 . S
C91 O96 1.247 . S
C91 O97 1.208 . S
C92 O84 1.315 . S
C92 O87 1.279 . S
C93 O94 1.315 . S
C93 O95 1.279 . S
O94 Cd86 2.223 . S
O94 C93 1.315 . S
O95 Cd85 2.240 . S
O95 C93 1.279 . S
O96 Cd86 2.297 . S
O96 C91 1.247 . S
O97 Cd86 2.439 . S
O97 C91 1.208 . S
O98 Cd99 2.223 . S
O98 C106 1.315 . S
Cd99 O98 2.223 . S
Cd99 O102 2.297 . S
Cd99 O103 2.439 . S
Cd99 O109 2.240 1_565 S
Cd100 O101 2.240 . S
Cd100 O108 2.223 1_565 S
Cd100 O110 2.297 1_565 S
Cd100 O111 2.439 . S
O101 Cd100 2.240 . S
O101 C106 1.279 . S
O102 Cd99 2.297 . S
O102 C104 1.247 . S
O103 Cd99 2.439 . S
O103 C104 1.208 . S
C104 O102 1.247 . S
C104 O103 1.208 . S
C105 O110 1.247 . S
C105 O111 1.208 1_545 S
C106 O98 1.315 . S
C106 O101 1.279 . S
C107 O108 1.315 . S
C107 O109 1.279 . S
O108 Cd100 2.223 1_545 S
O108 C107 1.315 . S
O109 Cd99 2.240 1_545 S
O109 C107 1.279 . S
O110 Cd100 2.297 1_545 S
O110 C105 1.247 . S
O111 Cd100 2.439 . S
O111 C105 1.208 1_565 S
O112 Cd113 2.223 . S
O112 C120 1.315 . S
Cd113 O112 2.223 . S
Cd113 O116 2.297 . S
Cd113 O117 2.439 . S
Cd113 O123 2.240 1_455 S
Cd114 O115 2.240 . S
Cd114 O122 2.223 1_455 S
Cd114 O124 2.297 1_455 S
Cd114 O125 2.439 . S
O115 Cd114 2.240 . S
O115 C120 1.279 . S
O116 Cd113 2.297 . S
O116 C118 1.247 . S
O117 Cd113 2.439 . S
O117 C118 1.208 . S
C118 O116 1.247 . S
C118 O117 1.208 . S
C119 O124 1.247 . S
C119 O125 1.208 1_655 S
C120 O112 1.315 . S
C120 O115 1.279 . S
C121 O122 1.315 . S
C121 O123 1.279 . S
O122 Cd114 2.223 1_655 S
O122 C121 1.315 . S
O123 Cd113 2.240 1_655 S
O123 C121 1.279 . S
O124 Cd114 2.297 1_655 S
O124 C119 1.247 . S
O125 Cd114 2.439 . S
O125 C119 1.208 1_455 S
O126 Cd127 2.223 . S
O126 C134 1.315 . S
Cd127 O126 2.223 . S
Cd127 O130 2.297 . S
Cd127 O131 2.439 . S
Cd127 O137 2.240 . S
Cd128 O129 2.240 . S
Cd128 O136 2.223 . S
Cd128 O138 2.297 . S
Cd128 O139 2.439 . S
O129 Cd128 2.240 . S
O129 C134 1.279 . S
O130 Cd127 2.297 . S
O130 C132 1.247 . S
O131 Cd127 2.439 . S
O131 C132 1.208 . S
C132 O130 1.247 . S
C132 O131 1.208 . S
C133 O138 1.247 . S
C133 O139 1.208 . S
C134 O126 1.315 . S
C134 O129 1.279 . S
C135 O136 1.315 . S
C135 O137 1.279 . S
O136 Cd128 2.223 . S
O136 C135 1.315 . S
O137 Cd127 2.240 . S
O137 C135 1.279 . S
O138 Cd128 2.297 . S
O138 C133 1.247 . S
O139 Cd128 2.439 . S
O139 C133 1.208 . S
O140 Cd141 2.223 . S
O140 C148 1.315 . S
Cd141 O140 2.223 . S
Cd141 O144 2.297 . S
Cd141 O145 2.439 . S
Cd141 O151 2.240 1_545 S
Cd142 O143 2.240 . S
Cd142 O150 2.223 1_545 S
Cd142 O152 2.297 1_545 S
Cd142 O153 2.439 . S
O143 Cd142 2.240 . S
O143 C148 1.279 . S
O144 Cd141 2.297 . S
O144 C146 1.247 . S
O145 Cd141 2.439 . S
O145 C146 1.208 . S
C146 O144 1.247 . S
C146 O145 1.208 . S
C147 O152 1.247 . S
C147 O153 1.208 1_565 S
C148 O140 1.315 . S
C148 O143 1.279 . S
C149 O150 1.315 . S
C149 O151 1.279 . S
O150 Cd142 2.223 1_565 S
O150 C149 1.315 . S
O151 Cd141 2.240 1_565 S
O151 C149 1.279 . S
O152 Cd142 2.297 1_565 S
O152 C147 1.247 . S
O153 Cd142 2.439 . S
O153 C147 1.208 1_545 S
O154 Cd155 2.223 . S
O154 C162 1.315 . S
Cd155 O154 2.223 . S
Cd155 O158 2.297 . S
Cd155 O159 2.439 . S
Cd155 O165 2.240 1_655 S
Cd156 O157 2.240 . S
Cd156 O164 2.223 1_655 S
Cd156 O166 2.297 1_655 S
Cd156 O167 2.439 . S
O157 Cd156 2.240 . S
O157 C162 1.279 . S
O158 Cd155 2.297 . S
O158 C160 1.247 . S
O159 Cd155 2.439 . S
O159 C160 1.208 . S
C160 O158 1.247 . S
C160 O159 1.208 . S
C161 O166 1.247 . S
C161 O167 1.208 1_455 S
C162 O154 1.315 . S
C162 O157 1.279 . S
C163 O164 1.315 . S
C163 O165 1.279 . S
O164 Cd156 2.223 1_455 S
O164 C163 1.315 . S
O165 Cd155 2.240 1_455 S
O165 C163 1.279 . S
O166 Cd156 2.297 1_455 S
O166 C161 1.247 . S
O167 Cd156 2.439 . S
O167 C161 1.208 1_655 S
O168 Cd169 2.223 . S
O168 C176 1.315 . S
Cd169 O168 2.223 . S
Cd169 O172 2.297 . S
Cd169 O173 2.439 . S
Cd169 O179 2.240 . S
Cd170 O171 2.240 . S
Cd170 O178 2.223 . S
Cd170 O180 2.297 . S
Cd170 O181 2.439 . S
O171 Cd170 2.240 . S
O171 C176 1.279 . S
O172 Cd169 2.297 . S
O172 C174 1.247 . S
O173 Cd169 2.439 . S
O173 C174 1.208 . S
C174 O172 1.247 . S
C174 O173 1.208 . S
C175 O180 1.247 . S
C175 O181 1.208 . S
C176 O168 1.315 . S
C176 O171 1.279 . S
C177 O178 1.315 . S
C177 O179 1.279 . S
O178 Cd170 2.223 . S
O178 C177 1.315 . S
O179 Cd169 2.240 . S
O179 C177 1.279 . S
O180 Cd170 2.297 . S
O180 C175 1.247 . S
O181 Cd170 2.439 . S
O181 C175 1.208 . S
O182 Cd183 2.223 . S
O182 C190 1.315 . S
Cd183 O182 2.223 . S
Cd183 O186 2.297 . S
Cd183 O187 2.439 . S
Cd183 O193 2.240 . S
Cd184 O185 2.240 . S
Cd184 O192 2.223 . S
Cd184 O194 2.297 . S
Cd184 O195 2.439 . S
O185 Cd184 2.240 . S
O185 C190 1.279 . S
O186 Cd183 2.297 . S
O186 C188 1.247 . S
O187 Cd183 2.439 . S
O187 C188 1.208 . S
C188 O186 1.247 . S
C188 O187 1.208 . S
C189 O194 1.247 . S
C189 O195 1.208 . S
C190 O182 1.315 . S
C190 O185 1.279 . S
C191 O192 1.315 . S
C191 O193 1.279 . S
O192 Cd184 2.223 . S
O192 C191 1.315 . S
O193 Cd183 2.240 . S
O193 C191 1.279 . S
O194 Cd184 2.297 . S
O194 C189 1.247 . S
O195 Cd184 2.439 . S
O195 C189 1.208 . S
O196 Cd197 2.223 . S
O196 C204 1.315 . S
Cd197 O196 2.223 . S
Cd197 O200 2.297 . S
Cd197 O201 2.439 . S
Cd197 O207 2.240 . S
Cd198 O199 2.240 . S
Cd198 O206 2.223 . S
Cd198 O208 2.297 . S
Cd198 O209 2.439 . S
O199 Cd198 2.240 . S
O199 C204 1.279 . S
O200 Cd197 2.297 . S
O200 C202 1.247 . S
O201 Cd197 2.439 . S
O201 C202 1.208 . S
C202 O200 1.247 . S
C202 O201 1.208 . S
C203 O208 1.247 . S
C203 O209 1.208 . S
C204 O196 1.315 . S
C204 O199 1.279 . S
C205 O206 1.315 . S
C205 O207 1.279 . S
O206 Cd198 2.223 . S
O206 C205 1.315 . S
O207 Cd197 2.240 . S
O207 C205 1.279 . S
O208 Cd198 2.297 . S
O208 C203 1.247 . S
O209 Cd198 2.439 . S
O209 C203 1.208 . S
O210 Cd211 2.223 . S
O210 C218 1.315 . S
Cd211 O210 2.223 . S
Cd211 O214 2.297 . S
Cd211 O215 2.439 . S
Cd211 O221 2.240 . S
Cd212 O213 2.240 . S
Cd212 O220 2.223 . S
Cd212 O222 2.297 . S
Cd212 O223 2.439 . S
O213 Cd212 2.240 . S
O213 C218 1.279 . S
O214 Cd211 2.297 . S
O214 C216 1.247 . S
O215 Cd211 2.439 . S
O215 C216 1.208 . S
C216 O214 1.247 . S
C216 O215 1.208 . S
C217 O222 1.247 . S
C217 O223 1.208 . S
C218 O210 1.315 . S
C218 O213 1.279 . S
C219 O220 1.315 . S
C219 O221 1.279 . S
O220 Cd212 2.223 . S
O220 C219 1.315 . S
O221 Cd211 2.240 . S
O221 C219 1.279 . S
O222 Cd212 2.297 . S
O222 C217 1.247 . S
O223 Cd212 2.439 . S
O223 C217 1.208 . S
O224 Cd225 2.223 . S
O224 C232 1.315 . S
Cd225 O224 2.223 . S
Cd225 O228 2.297 . S
Cd225 O229 2.439 . S
Cd225 O235 2.240 . S
Cd226 O227 2.240 . S
Cd226 O234 2.223 . S
Cd226 O236 2.297 . S
Cd226 O237 2.439 . S
O227 Cd226 2.240 . S
O227 C232 1.279 . S
O228 Cd225 2.297 . S
O228 C230 1.247 . S
O229 Cd225 2.439 . S
O229 C230 1.208 . S
C230 O228 1.247 . S
C230 O229 1.208 . S
C231 O236 1.247 . S
C231 O237 1.208 . S
C232 O224 1.315 . S
C232 O227 1.279 . S
C233 O234 1.315 . S
C233 O235 1.279 . S
O234 Cd226 2.223 . S
O234 C233 1.315 . S
O235 Cd225 2.240 . S
O235 C233 1.279 . S
O236 Cd226 2.297 . S
O236 C231 1.247 . S
O237 Cd226 2.439 . S
O237 C231 1.208 . S
O238 Cd239 2.223 . S
O238 C246 1.315 . S
Cd239 O238 2.223 . S
Cd239 O242 2.297 . S
Cd239 O243 2.439 . S
Cd239 O249 2.240 . S
Cd240 O241 2.240 . S
Cd240 O248 2.223 . S
Cd240 O250 2.297 . S
Cd240 O251 2.439 . S
O241 Cd240 2.240 . S
O241 C246 1.279 . S
O242 Cd239 2.297 . S
O242 C244 1.247 . S
O243 Cd239 2.439 . S
O243 C244 1.208 . S
C244 O242 1.247 . S
C244 O243 1.208 . S
C245 O250 1.247 . S
C245 O251 1.208 . S
C246 O238 1.315 . S
C246 O241 1.279 . S
C247 O248 1.315 . S
C247 O249 1.279 . S
O248 Cd240 2.223 . S
O248 C247 1.315 . S
O249 Cd239 2.240 . S
O249 C247 1.279 . S
O250 Cd240 2.297 . S
O250 C245 1.247 . S
O251 Cd240 2.439 . S
O251 C245 1.208 . S
O252 Cd253 2.223 . S
O252 C260 1.315 . S
Cd253 O252 2.223 . S
Cd253 O256 2.297 . S
Cd253 O257 2.439 . S
Cd253 O263 2.240 . S
Cd254 O255 2.240 . S
Cd254 O262 2.223 . S
Cd254 O264 2.297 . S
Cd254 O265 2.439 . S
O255 Cd254 2.240 . S
O255 C260 1.279 . S
O256 Cd253 2.297 . S
O256 C258 1.247 . S
O257 Cd253 2.439 . S
O257 C258 1.208 . S
C258 O256 1.247 . S
C258 O257 1.208 . S
C259 O264 1.247 . S
C259 O265 1.208 . S
C260 O252 1.315 . S
C260 O255 1.279 . S
C261 O262 1.315 . S
C261 O263 1.279 . S
O262 Cd254 2.223 . S
O262 C261 1.315 . S
O263 Cd253 2.240 . S
O263 C261 1.279 . S
O264 Cd254 2.297 . S
O264 C259 1.247 . S
O265 Cd254 2.439 . S
O265 C259 1.208 . S
O266 Cd267 2.223 . S
O266 C274 1.315 . S
Cd267 O266 2.223 . S
Cd267 O270 2.297 . S
Cd267 O271 2.439 . S
Cd267 O277 2.240 . S
Cd268 O269 2.240 . S
Cd268 O276 2.223 . S
Cd268 O278 2.297 . S
Cd268 O279 2.439 . S
O269 Cd268 2.240 . S
O269 C274 1.279 . S
O270 Cd267 2.297 . S
O270 C272 1.247 . S
O271 Cd267 2.439 . S
O271 C272 1.208 . S
C272 O270 1.247 . S
C272 O271 1.208 . S
C273 O278 1.247 . S
C273 O279 1.208 . S
C274 O266 1.315 . S
C274 O269 1.279 . S
C275 O276 1.315 . S
C275 O277 1.279 . S
O276 Cd268 2.223 . S
O276 C275 1.315 . S
O277 Cd267 2.240 . S
O277 C275 1.279 . S
O278 Cd268 2.297 . S
O278 C273 1.247 . S
O279 Cd268 2.439 . S
O279 C273 1.208 . S
O280 Cd281 2.223 . S
O280 C288 1.315 . S
Cd281 O280 2.223 . S
Cd281 O284 2.297 . S
Cd281 O285 2.439 . S
Cd281 O291 2.240 . S
Cd282 O283 2.240 . S
Cd282 O290 2.223 . S
Cd282 O292 2.297 . S
Cd282 O293 2.439 . S
O283 Cd282 2.240 . S
O283 C288 1.279 . S
O284 Cd281 2.297 . S
O284 C286 1.247 . S
O285 Cd281 2.439 . S
O285 C286 1.208 . S
C286 O284 1.247 . S
C286 O285 1.208 . S
C287 O292 1.247 . S
C287 O293 1.208 . S
C288 O280 1.315 . S
C288 O283 1.279 . S
C289 O290 1.315 . S
C289 O291 1.279 . S
O290 Cd282 2.223 . S
O290 C289 1.315 . S
O291 Cd281 2.240 . S
O291 C289 1.279 . S
O292 Cd282 2.297 . S
O292 C287 1.247 . S
O293 Cd282 2.439 . S
O293 C287 1.208 . S
O294 Cd295 2.223 . S
O294 C302 1.316 . S
Cd295 O294 2.223 . S
Cd295 O298 2.297 1_554 S
Cd295 O299 2.439 . S
Cd295 O305 2.240 . S
Cd296 O297 2.240 . S
Cd296 O304 2.223 . S
Cd296 O306 2.297 . S
Cd296 O307 2.439 . S
O297 Cd296 2.240 . S
O297 C302 1.279 . S
O298 Cd295 2.297 1_556 S
O298 C300 1.247 1_556 S
O299 Cd295 2.439 . S
O299 C300 1.208 . S
C300 O298 1.247 1_554 S
C300 O299 1.208 . S
C301 O306 1.247 . S
C301 O307 1.208 . S
C302 O294 1.316 . S
C302 O297 1.279 . S
C303 O304 1.315 . S
C303 O305 1.279 . S
O304 Cd296 2.223 . S
O304 C303 1.315 . S
O305 Cd295 2.240 . S
O305 C303 1.279 . S
O306 Cd296 2.297 . S
O306 C301 1.247 . S
O307 Cd296 2.439 . S
O307 C301 1.208 . S
O308 Cd309 2.223 . S
O308 C316 1.315 . S
Cd309 O308 2.223 . S
Cd309 O312 2.297 1_554 S
Cd309 O313 2.439 . S
Cd309 O319 2.240 . S
Cd310 O311 2.240 . S
Cd310 O318 2.223 . S
Cd310 O320 2.297 . S
Cd310 O321 2.439 . S
O311 Cd310 2.240 . S
O311 C316 1.279 . S
O312 Cd309 2.297 1_556 S
O312 C314 1.247 1_556 S
O313 Cd309 2.439 . S
O313 C314 1.208 . S
C314 O312 1.247 1_554 S
C314 O313 1.208 . S
C315 O320 1.247 . S
C315 O321 1.208 . S
C316 O308 1.315 . S
C316 O311 1.279 . S
C317 O318 1.315 . S
C317 O319 1.279 . S
O318 Cd310 2.223 . S
O318 C317 1.315 . S
O319 Cd309 2.240 . S
O319 C317 1.279 . S
O320 Cd310 2.297 . S
O320 C315 1.247 . S
O321 Cd310 2.439 . S
O321 C315 1.208 . S
O322 Cd323 2.223 . S
O322 C330 1.315 . S
Cd323 O322 2.223 . S
Cd323 O326 2.297 1_554 S
Cd323 O327 2.439 . S
Cd323 O333 2.240 . S
Cd324 O325 2.240 . S
Cd324 O332 2.223 . S
Cd324 O334 2.297 . S
Cd324 O335 2.439 . S
O325 Cd324 2.240 . S
O325 C330 1.279 . S
O326 Cd323 2.297 1_556 S
O326 C328 1.247 1_556 S
O327 Cd323 2.439 . S
O327 C328 1.208 . S
C328 O326 1.247 1_554 S
C328 O327 1.208 . S
C329 O334 1.247 . S
C329 O335 1.208 . S
C330 O322 1.315 . S
C330 O325 1.279 . S
C331 O332 1.315 . S
C331 O333 1.279 . S
O332 Cd324 2.223 . S
O332 C331 1.315 . S
O333 Cd323 2.240 . S
O333 C331 1.279 . S
O334 Cd324 2.297 . S
O334 C329 1.247 . S
O335 Cd324 2.439 . S
O335 C329 1.208 . S
O336 Cd337 2.223 . S
O336 C344 1.315 . S
Cd337 O336 2.223 . S
Cd337 O340 2.297 . S
Cd337 O341 2.439 . S
Cd337 O347 2.240 . S
Cd338 O339 2.240 . S
Cd338 O346 2.223 . S
Cd338 O348 2.297 . S
Cd338 O349 2.439 . S
O339 Cd338 2.240 . S
O339 C344 1.279 . S
O340 Cd337 2.297 . S
O340 C342 1.247 . S
O341 Cd337 2.439 . S
O341 C342 1.208 . S
C342 O340 1.247 . S
C342 O341 1.208 . S
C343 O348 1.247 . S
C343 O349 1.208 . S
C344 O336 1.315 . S
C344 O339 1.279 . S
C345 O346 1.315 . S
C345 O347 1.279 . S
O346 Cd338 2.223 . S
O346 C345 1.315 . S
O347 Cd337 2.240 . S
O347 C345 1.279 . S
O348 Cd338 2.297 . S
O348 C343 1.247 . S
O349 Cd338 2.439 . S
O349 C343 1.208 . S
O350 Cd351 2.223 . S
O350 C358 1.315 . S
Cd351 O350 2.223 . S
Cd351 O354 2.297 . S
Cd351 O355 2.439 . S
Cd351 O361 2.240 . S
Cd352 O353 2.240 . S
Cd352 O360 2.223 . S
Cd352 O362 2.297 . S
Cd352 O363 2.439 . S
O353 Cd352 2.240 . S
O353 C358 1.279 . S
O354 Cd351 2.297 . S
O354 C356 1.247 . S
O355 Cd351 2.439 . S
O355 C356 1.208 . S
C356 O354 1.247 . S
C356 O355 1.208 . S
C357 O362 1.247 . S
C357 O363 1.208 . S
C358 O350 1.315 . S
C358 O353 1.279 . S
C359 O360 1.315 . S
C359 O361 1.279 . S
O360 Cd352 2.223 . S
O360 C359 1.315 . S
O361 Cd351 2.240 . S
O361 C359 1.279 . S
O362 Cd352 2.297 . S
O362 C357 1.247 . S
O363 Cd352 2.439 . S
O363 C357 1.208 . S
O364 Cd365 2.223 . S
O364 C372 1.315 . S
Cd365 O364 2.223 . S
Cd365 O368 2.297 . S
Cd365 O369 2.439 . S
Cd365 O375 2.240 . S
Cd366 O367 2.240 . S
Cd366 O374 2.223 . S
Cd366 O376 2.297 . S
Cd366 O377 2.439 . S
O367 Cd366 2.240 . S
O367 C372 1.279 . S
O368 Cd365 2.297 . S
O368 C370 1.247 . S
O369 Cd365 2.439 . S
O369 C370 1.208 . S
C370 O368 1.247 . S
C370 O369 1.208 . S
C371 O376 1.247 . S
C371 O377 1.208 . S
C372 O364 1.315 . S
C372 O367 1.279 . S
C373 O374 1.315 . S
C373 O375 1.279 . S
O374 Cd366 2.223 . S
O374 C373 1.315 . S
O375 Cd365 2.240 . S
O375 C373 1.279 . S
O376 Cd366 2.297 . S
O376 C371 1.247 . S
O377 Cd366 2.439 . S
O377 C371 1.208 . S
O378 Cd379 2.223 . S
O378 C386 1.316 . S
Cd379 O378 2.223 . S
Cd379 O382 2.297 1_556 S
Cd379 O383 2.439 . S
Cd379 O389 2.240 . S
Cd380 O381 2.240 . S
Cd380 O388 2.223 . S
Cd380 O390 2.297 . S
Cd380 O391 2.439 . S
O381 Cd380 2.240 . S
O381 C386 1.279 . S
O382 Cd379 2.297 1_554 S
O382 C384 1.247 1_554 S
O383 Cd379 2.439 . S
O383 C384 1.208 . S
C384 O382 1.247 1_556 S
C384 O383 1.208 . S
C385 O390 1.247 . S
C385 O391 1.208 . S
C386 O378 1.316 . S
C386 O381 1.279 . S
C387 O388 1.315 . S
C387 O389 1.279 . S
O388 Cd380 2.223 . S
O388 C387 1.315 . S
O389 Cd379 2.240 . S
O389 C387 1.279 . S
O390 Cd380 2.297 . S
O390 C385 1.247 . S
O391 Cd380 2.439 . S
O391 C385 1.208 . S
O392 Cd393 2.223 . S
O392 C400 1.315 . S
Cd393 O392 2.223 . S
Cd393 O396 2.297 1_556 S
Cd393 O397 2.439 . S
Cd393 O403 2.240 . S
Cd394 O395 2.240 . S
Cd394 O402 2.223 . S
Cd394 O404 2.297 . S
Cd394 O405 2.439 . S
O395 Cd394 2.240 . S
O395 C400 1.279 . S
O396 Cd393 2.297 1_554 S
O396 C398 1.247 1_554 S
O397 Cd393 2.439 . S
O397 C398 1.208 . S
C398 O396 1.247 1_556 S
C398 O397 1.208 . S
C399 O404 1.247 . S
C399 O405 1.208 . S
C400 O392 1.315 . S
C400 O395 1.279 . S
C401 O402 1.315 . S
C401 O403 1.279 . S
O402 Cd394 2.223 . S
O402 C401 1.315 . S
O403 Cd393 2.240 . S
O403 C401 1.279 . S
O404 Cd394 2.297 . S
O404 C399 1.247 . S
O405 Cd394 2.439 . S
O405 C399 1.208 . S
O406 Cd407 2.223 . S
O406 C414 1.315 . S
Cd407 O406 2.223 . S
Cd407 O410 2.297 1_556 S
Cd407 O411 2.439 . S
Cd407 O417 2.240 . S
Cd408 O409 2.240 . S
Cd408 O416 2.223 . S
Cd408 O418 2.297 . S
Cd408 O419 2.439 . S
O409 Cd408 2.240 . S
O409 C414 1.279 . S
O410 Cd407 2.297 1_554 S
O410 C412 1.247 1_554 S
O411 Cd407 2.439 . S
O411 C412 1.208 . S
C412 O410 1.247 1_556 S
C412 O411 1.208 . S
C413 O418 1.247 . S
C413 O419 1.208 . S
C414 O406 1.315 . S
C414 O409 1.279 . S
C415 O416 1.315 . S
C415 O417 1.279 . S
O416 Cd408 2.223 . S
O416 C415 1.315 . S
O417 Cd407 2.240 . S
O417 C415 1.279 . S
O418 Cd408 2.297 . S
O418 C413 1.247 . S
O419 Cd408 2.439 . S
O419 C413 1.208 . S
O420 Cd421 2.223 . S
O420 C428 1.315 . S
Cd421 O420 2.223 . S
Cd421 O424 2.297 . S
Cd421 O425 2.439 . S
Cd421 O431 2.240 . S
Cd422 O423 2.240 . S
Cd422 O430 2.223 . S
Cd422 O432 2.297 . S
Cd422 O433 2.439 . S
O423 Cd422 2.240 . S
O423 C428 1.279 . S
O424 Cd421 2.297 . S
O424 C426 1.247 . S
O425 Cd421 2.439 . S
O425 C426 1.208 . S
C426 O424 1.247 . S
C426 O425 1.208 . S
C427 O432 1.247 . S
C427 O433 1.208 . S
C428 O420 1.315 . S
C428 O423 1.279 . S
C429 O430 1.315 . S
C429 O431 1.279 . S
O430 Cd422 2.223 . S
O430 C429 1.315 . S
O431 Cd421 2.240 . S
O431 C429 1.279 . S
O432 Cd422 2.297 . S
O432 C427 1.247 . S
O433 Cd422 2.439 . S
O433 C427 1.208 . S
O434 Cd435 2.223 . S
O434 C442 1.315 . S
Cd435 O434 2.223 . S
Cd435 O438 2.297 . S
Cd435 O439 2.439 . S
Cd435 O445 2.240 . S
Cd436 O437 2.240 . S
Cd436 O444 2.223 . S
Cd436 O446 2.297 . S
Cd436 O447 2.439 . S
O437 Cd436 2.240 . S
O437 C442 1.279 . S
O438 Cd435 2.297 . S
O438 C440 1.247 . S
O439 Cd435 2.439 . S
O439 C440 1.208 . S
C440 O438 1.247 . S
C440 O439 1.208 . S
C441 O446 1.247 . S
C441 O447 1.208 . S
C442 O434 1.315 . S
C442 O437 1.279 . S
C443 O444 1.315 . S
C443 O445 1.279 . S
O444 Cd436 2.223 . S
O444 C443 1.315 . S
O445 Cd435 2.240 . S
O445 C443 1.279 . S
O446 Cd436 2.297 . S
O446 C441 1.247 . S
O447 Cd436 2.439 . S
O447 C441 1.208 . S
O448 Cd449 2.223 . S
O448 C456 1.315 . S
Cd449 O448 2.223 . S
Cd449 O452 2.297 . S
Cd449 O453 2.439 . S
Cd449 O459 2.240 . S
Cd450 O451 2.240 . S
Cd450 O458 2.223 . S
Cd450 O460 2.297 . S
Cd450 O461 2.439 . S
O451 Cd450 2.240 . S
O451 C456 1.279 . S
O452 Cd449 2.297 . S
O452 C454 1.247 . S
O453 Cd449 2.439 . S
O453 C454 1.208 . S
C454 O452 1.247 . S
C454 O453 1.208 . S
C455 O460 1.247 . S
C455 O461 1.208 . S
C456 O448 1.315 . S
C456 O451 1.279 . S
C457 O458 1.315 . S
C457 O459 1.279 . S
O458 Cd450 2.223 . S
O458 C457 1.315 . S
O459 Cd449 2.240 . S
O459 C457 1.279 . S
O460 Cd450 2.297 . S
O460 C455 1.247 . S
O461 Cd450 2.439 . S
O461 C455 1.208 . S
O462 Cd463 2.223 . S
O462 C470 1.315 . S
Cd463 O462 2.223 . S
Cd463 O466 2.297 . S
Cd463 O467 2.439 . S
Cd463 O473 2.240 . S
Cd464 O465 2.240 . S
Cd464 O472 2.223 . S
Cd464 O474 2.297 . S
Cd464 O475 2.439 . S
O465 Cd464 2.240 . S
O465 C470 1.279 . S
O466 Cd463 2.297 . S
O466 C468 1.247 . S
O467 Cd463 2.439 . S
O467 C468 1.208 . S
C468 O466 1.247 . S
C468 O467 1.208 . S
C469 O474 1.247 . S
C469 O475 1.208 . S
C470 O462 1.315 . S
C470 O465 1.279 . S
C471 O472 1.315 . S
C471 O473 1.279 . S
O472 Cd464 2.223 . S
O472 C471 1.315 . S
O473 Cd463 2.240 . S
O473 C471 1.279 . S
O474 Cd464 2.297 . S
O474 C469 1.247 . S
O475 Cd464 2.439 . S
O475 C469 1.208 . S
O476 Cd477 2.223 . S
O476 C484 1.315 . S
Cd477 O476 2.223 . S
Cd477 O480 2.297 . S
Cd477 O481 2.439 . S
Cd477 O487 2.240 . S
Cd478 O479 2.240 . S
Cd478 O486 2.223 . S
Cd478 O488 2.297 . S
Cd478 O489 2.439 . S
O479 Cd478 2.240 . S
O479 C484 1.279 . S
O480 Cd477 2.297 . S
O480 C482 1.247 . S
O481 Cd477 2.439 . S
O481 C482 1.208 . S
C482 O480 1.247 . S
C482 O481 1.208 . S
C483 O488 1.247 . S
C483 O489 1.208 . S
C484 O476 1.315 . S
C484 O479 1.279 . S
C485 O486 1.315 . S
C485 O487 1.279 . S
O486 Cd478 2.223 . S
O486 C485 1.315 . S
O487 Cd477 2.240 . S
O487 C485 1.279 . S
O488 Cd478 2.297 . S
O488 C483 1.247 . S
O489 Cd478 2.439 . S
O489 C483 1.208 . S
O490 Cd491 2.223 . S
O490 C498 1.315 . S
Cd491 O490 2.223 . S
Cd491 O494 2.297 . S
Cd491 O495 2.439 . S
Cd491 O501 2.240 . S
Cd492 O493 2.240 . S
Cd492 O500 2.223 . S
Cd492 O502 2.297 . S
Cd492 O503 2.439 . S
O493 Cd492 2.240 . S
O493 C498 1.279 . S
O494 Cd491 2.297 . S
O494 C496 1.247 . S
O495 Cd491 2.439 . S
O495 C496 1.208 . S
C496 O494 1.247 . S
C496 O495 1.208 . S
C497 O502 1.247 . S
C497 O503 1.208 . S
C498 O490 1.315 . S
C498 O493 1.279 . S
C499 O500 1.315 . S
C499 O501 1.279 . S
O500 Cd492 2.223 . S
O500 C499 1.315 . S
O501 Cd491 2.240 . S
O501 C499 1.279 . S
O502 Cd492 2.297 . S
O502 C497 1.247 . S
O503 Cd492 2.439 . S
O503 C497 1.208 . S
C504 C505 1.363 . S
C504 C510 1.379 1_455 S
C504 N512 1.356 . S
C505 C504 1.363 . S
C505 C511 1.363 . S
C506 C507 1.363 . S
C506 C511 1.379 1_655 S
C506 N513 1.356 . S
C507 C506 1.363 . S
C507 C510 1.363 . S
N508 C510 1.356 . S
N508 H520 0.984 . S
N508 H521 0.985 . S
N509 C511 1.356 . S
N509 H514 0.984 . S
N509 H515 0.985 . S
C510 C504 1.379 1_655 S
C510 C507 1.363 . S
C510 N508 1.356 . S
C511 C505 1.363 . S
C511 C506 1.379 1_455 S
C511 N509 1.356 . S
N512 C504 1.356 . S
N512 H518 0.984 . S
N512 H519 0.984 . S
N513 C506 1.356 . S
N513 H516 0.984 . S
N513 H517 0.985 . S
H514 N509 0.984 . S
H515 N509 0.985 . S
H516 N513 0.984 . S
H517 N513 0.985 . S
H518 N512 0.984 . S
H519 N512 0.984 . S
H520 N508 0.984 . S
H521 N508 0.985 . S
C522 C523 1.363 . S
C522 C528 1.379 . S
C522 N530 1.356 . S
C523 C522 1.363 . S
C523 C529 1.363 . S
C524 C525 1.363 . S
C524 C529 1.379 . S
C524 N531 1.356 . S
C525 C524 1.363 . S
C525 C528 1.363 . S
N526 C528 1.356 . S
N526 H538 0.984 . S
N526 H539 0.985 . S
N527 C529 1.356 . S
N527 H532 0.984 . S
N527 H533 0.985 . S
C528 C522 1.379 . S
C528 C525 1.363 . S
C528 N526 1.356 . S
C529 C523 1.363 . S
C529 C524 1.379 . S
C529 N527 1.356 . S
N530 C522 1.356 . S
N530 H536 0.984 . S
N530 H537 0.984 . S
N531 C524 1.356 . S
N531 H534 0.984 . S
N531 H535 0.985 . S
H532 N527 0.984 . S
H533 N527 0.985 . S
H534 N531 0.984 . S
H535 N531 0.985 . S
H536 N530 0.984 . S
H537 N530 0.984 . S
H538 N526 0.984 . S
H539 N526 0.985 . S
C540 C541 1.363 . S
C540 C546 1.379 1_545 S
C540 N548 1.356 . S
C541 C540 1.363 . S
C541 C547 1.363 . S
C542 C543 1.363 . S
C542 C547 1.379 1_565 S
C542 N549 1.356 . S
C543 C542 1.363 . S
C543 C546 1.363 . S
N544 C546 1.356 . S
N544 H556 0.984 . S
N544 H557 0.985 . S
N545 C547 1.356 . S
N545 H550 0.984 . S
N545 H551 0.985 . S
C546 C540 1.379 1_565 S
C546 C543 1.363 . S
C546 N544 1.356 . S
C547 C541 1.363 . S
C547 C542 1.379 1_545 S
C547 N545 1.356 . S
N548 C540 1.356 . S
N548 H554 0.984 . S
N548 H555 0.984 . S
N549 C542 1.356 . S
N549 H552 0.984 . S
N549 H553 0.985 . S
H550 N545 0.984 . S
H551 N545 0.985 . S
H552 N549 0.984 . S
H553 N549 0.985 . S
H554 N548 0.984 . S
H555 N548 0.984 . S
H556 N544 0.984 . S
H557 N544 0.985 . S
C558 C559 1.363 . S
C558 C564 1.379 1_545 S
C558 N566 1.356 . S
C559 C558 1.363 . S
C559 C565 1.363 . S
C560 C561 1.363 . S
C560 C565 1.379 1_565 S
C560 N567 1.356 . S
C561 C560 1.363 . S
C561 C564 1.363 . S
N562 C564 1.356 . S
N562 H574 0.984 . S
N562 H575 0.985 . S
N563 C565 1.356 . S
N563 H568 0.984 . S
N563 H569 0.985 . S
C564 C558 1.379 1_565 S
C564 C561 1.363 . S
C564 N562 1.356 . S
C565 C559 1.363 . S
C565 C560 1.379 1_545 S
C565 N563 1.356 . S
N566 C558 1.356 . S
N566 H572 0.984 . S
N566 H573 0.984 . S
N567 C560 1.356 . S
N567 H570 0.984 . S
N567 H571 0.985 . S
H568 N563 0.984 . S
H569 N563 0.985 . S
H570 N567 0.984 . S
H571 N567 0.985 . S
H572 N566 0.984 . S
H573 N566 0.984 . S
H574 N562 0.984 . S
H575 N562 0.985 . S
C576 C577 1.363 . S
C576 C582 1.379 1_655 S
C576 N584 1.356 . S
C577 C576 1.363 . S
C577 C583 1.363 . S
C578 C579 1.363 . S
C578 C583 1.379 1_455 S
C578 N585 1.356 . S
C579 C578 1.363 . S
C579 C582 1.363 . S
N580 C582 1.356 . S
N580 H592 0.984 . S
N580 H593 0.985 . S
N581 C583 1.356 . S
N581 H586 0.984 . S
N581 H587 0.985 1_545 S
C582 C576 1.379 1_455 S
C582 C579 1.363 . S
C582 N580 1.356 . S
C583 C577 1.363 . S
C583 C578 1.379 1_655 S
C583 N581 1.356 . S
N584 C576 1.356 . S
N584 H590 0.984 . S
N584 H591 0.984 . S
N585 C578 1.356 . S
N585 H588 0.984 . S
N585 H589 0.985 . S
H586 N581 0.984 . S
H587 N581 0.985 1_565 S
H588 N585 0.984 . S
H589 N585 0.985 . S
H590 N584 0.984 . S
H591 N584 0.984 . S
H592 N580 0.984 . S
H593 N580 0.985 . S
C594 C595 1.363 . S
C594 C600 1.379 . S
C594 N602 1.356 . S
C595 C594 1.363 . S
C595 C601 1.363 . S
C596 C597 1.363 . S
C596 C601 1.379 . S
C596 N603 1.356 . S
C597 C596 1.363 . S
C597 C600 1.363 . S
N598 C600 1.356 . S
N598 H610 0.984 . S
N598 H611 0.985 . S
N599 C601 1.356 . S
N599 H604 0.984 . S
N599 H605 0.985 . S
C600 C594 1.379 . S
C600 C597 1.363 . S
C600 N598 1.356 . S
C601 C595 1.363 . S
C601 C596 1.379 . S
C601 N599 1.356 . S
N602 C594 1.356 . S
N602 H608 0.984 . S
N602 H609 0.984 . S
N603 C596 1.356 . S
N603 H606 0.984 . S
N603 H607 0.985 . S
H604 N599 0.984 . S
H605 N599 0.985 . S
H606 N603 0.984 . S
H607 N603 0.985 . S
H608 N602 0.984 . S
H609 N602 0.984 . S
H610 N598 0.984 . S
H611 N598 0.985 . S
C612 C613 1.363 . S
C612 C618 1.379 1_655 S
C612 N620 1.356 . S
C613 C612 1.363 . S
C613 C619 1.363 . S
C614 C615 1.363 . S
C614 C619 1.379 1_455 S
C614 N621 1.356 . S
C615 C614 1.363 . S
C615 C618 1.363 . S
N616 C618 1.356 . S
N616 H628 0.984 . S
N616 H629 0.985 . S
N617 C619 1.356 . S
N617 H622 0.984 . S
N617 H623 0.985 . S
C618 C612 1.379 1_455 S
C618 C615 1.363 . S
C618 N616 1.356 . S
C619 C613 1.363 . S
C619 C614 1.379 1_655 S
C619 N617 1.356 . S
N620 C612 1.356 . S
N620 H626 0.984 . S
N620 H627 0.984 . S
N621 C614 1.356 . S
N621 H624 0.984 . S
N621 H625 0.985 . S
H622 N617 0.984 . S
H623 N617 0.985 . S
H624 N621 0.984 . S
H625 N621 0.985 . S
H626 N620 0.984 . S
H627 N620 0.984 . S
H628 N616 0.984 . S
H629 N616 0.985 . S
C630 C631 1.363 . S
C630 C636 1.379 . S
C630 N638 1.356 . S
C631 C630 1.363 . S
C631 C637 1.363 . S
C632 C633 1.363 . S
C632 C637 1.379 . S
C632 N639 1.356 . S
C633 C632 1.363 . S
C633 C636 1.363 . S
N634 C636 1.356 . S
N634 H646 0.984 . S
N634 H647 0.985 . S
N635 C637 1.356 . S
N635 H640 0.984 . S
N635 H641 0.985 . S
C636 C630 1.379 . S
C636 C633 1.363 . S
C636 N634 1.356 . S
C637 C631 1.363 . S
C637 C632 1.379 . S
C637 N635 1.356 . S
N638 C630 1.356 . S
N638 H644 0.984 . S
N638 H645 0.984 . S
N639 C632 1.356 . S
N639 H642 0.984 . S
N639 H643 0.985 . S
H640 N635 0.984 . S
H641 N635 0.985 . S
H642 N639 0.984 . S
H643 N639 0.985 . S
H644 N638 0.984 . S
H645 N638 0.984 . S
H646 N634 0.984 . S
H647 N634 0.985 . S
C648 C649 1.363 . S
C648 C654 1.379 1_565 S
C648 N656 1.356 . S
C649 C648 1.363 . S
C649 C655 1.363 . S
C650 C651 1.363 . S
C650 C655 1.379 1_545 S
C650 N657 1.356 . S
C651 C650 1.363 . S
C651 C654 1.363 . S
N652 C654 1.356 . S
N652 H664 0.984 . S
N652 H665 0.985 . S
N653 C655 1.356 . S
N653 H658 0.984 . S
N653 H659 0.985 . S
C654 C648 1.379 1_545 S
C654 C651 1.363 . S
C654 N652 1.356 . S
C655 C649 1.363 . S
C655 C650 1.379 1_565 S
C655 N653 1.356 . S
N656 C648 1.356 . S
N656 H662 0.984 . S
N656 H663 0.984 . S
N657 C650 1.356 . S
N657 H660 0.984 . S
N657 H661 0.985 . S
H658 N653 0.984 . S
H659 N653 0.985 . S
H660 N657 0.984 . S
H661 N657 0.985 . S
H662 N656 0.984 . S
H663 N656 0.984 . S
H664 N652 0.984 . S
H665 N652 0.985 . S
C666 C667 1.363 . S
C666 C672 1.379 1_545 S
C666 N674 1.356 . S
C667 C666 1.363 . S
C667 C673 1.363 . S
C668 C669 1.363 . S
C668 C673 1.379 1_565 S
C668 N675 1.356 . S
C669 C668 1.363 . S
C669 C672 1.363 . S
N670 C672 1.356 . S
N670 H682 0.984 . S
N670 H683 0.985 . S
N671 C673 1.356 . S
N671 H676 0.984 . S
N671 H677 0.985 . S
C672 C666 1.379 1_565 S
C672 C669 1.363 . S
C672 N670 1.356 . S
C673 C667 1.363 . S
C673 C668 1.379 1_545 S
C673 N671 1.356 . S
N674 C666 1.356 . S
N674 H680 0.984 . S
N674 H681 0.984 . S
N675 C668 1.356 . S
N675 H678 0.984 . S
N675 H679 0.985 . S
H676 N671 0.984 . S
H677 N671 0.985 . S
H678 N675 0.984 . S
H679 N675 0.985 . S
H680 N674 0.984 . S
H681 N674 0.984 . S
H682 N670 0.984 . S
H683 N670 0.985 . S
C684 C685 1.363 . S
C684 C690 1.379 1_455 S
C684 N692 1.356 . S
C685 C684 1.363 . S
C685 C691 1.363 . S
C686 C687 1.363 . S
C686 C691 1.379 1_655 S
C686 N693 1.356 . S
C687 C686 1.363 . S
C687 C690 1.363 . S
N688 C690 1.356 . S
N688 H700 0.984 . S
N688 H701 0.985 . S
N689 C691 1.356 . S
N689 H694 0.984 . S
N689 H695 0.985 . S
C690 C684 1.379 1_655 S
C690 C687 1.363 . S
C690 N688 1.356 . S
C691 C685 1.363 . S
C691 C686 1.379 1_455 S
C691 N689 1.356 . S
N692 C684 1.356 . S
N692 H698 0.984 . S
N692 H699 0.984 . S
N693 C686 1.356 . S
N693 H696 0.984 . S
N693 H697 0.985 . S
H694 N689 0.984 . S
H695 N689 0.985 . S
H696 N693 0.984 . S
H697 N693 0.985 . S
H698 N692 0.984 . S
H699 N692 0.984 . S
H700 N688 0.984 . S
H701 N688 0.985 . S
C702 C703 1.363 . S
C702 C708 1.379 . S
C702 N710 1.356 . S
C703 C702 1.363 . S
C703 C709 1.363 . S
C704 C705 1.363 . S
C704 C709 1.379 . S
C704 N711 1.356 . S
C705 C704 1.363 . S
C705 C708 1.363 . S
N706 C708 1.356 . S
N706 H718 0.984 . S
N706 H719 0.985 . S
N707 C709 1.356 . S
N707 H712 0.984 . S
N707 H713 0.985 . S
C708 C702 1.379 . S
C708 C705 1.363 . S
C708 N706 1.356 . S
C709 C703 1.363 . S
C709 C704 1.379 . S
C709 N707 1.356 . S
N710 C702 1.356 . S
N710 H716 0.984 . S
N710 H717 0.984 . S
N711 C704 1.356 . S
N711 H714 0.984 . S
N711 H715 0.985 . S
H712 N707 0.984 . S
H713 N707 0.985 . S
H714 N711 0.984 . S
H715 N711 0.985 . S
H716 N710 0.984 . S
H717 N710 0.984 . S
H718 N706 0.984 . S
H719 N706 0.985 . S
C720 C721 1.363 . S
C720 C726 1.379 . S
C720 N728 1.356 . S
C721 C720 1.363 . S
C721 C727 1.363 . S
C722 C723 1.363 . S
C722 C727 1.379 . S
C722 N729 1.356 . S
C723 C722 1.363 . S
C723 C726 1.363 . S
N724 C726 1.356 . S
N724 H736 0.984 . S
N724 H737 0.985 . S
N725 C727 1.356 . S
N725 H730 0.984 . S
N725 H731 0.985 . S
C726 C720 1.379 . S
C726 C723 1.363 . S
C726 N724 1.356 . S
C727 C721 1.363 . S
C727 C722 1.379 . S
C727 N725 1.356 . S
N728 C720 1.356 . S
N728 H734 0.984 . S
N728 H735 0.984 . S
N729 C722 1.356 . S
N729 H732 0.984 . S
N729 H733 0.985 . S
H730 N725 0.984 . S
H731 N725 0.985 . S
H732 N729 0.984 . S
H733 N729 0.985 . S
H734 N728 0.984 . S
H735 N728 0.984 . S
H736 N724 0.984 . S
H737 N724 0.985 . S
C738 C739 1.363 . S
C738 C744 1.379 . S
C738 N746 1.356 . S
C739 C738 1.363 . S
C739 C745 1.363 . S
C740 C741 1.363 . S
C740 C745 1.379 . S
C740 N747 1.356 . S
C741 C740 1.363 . S
C741 C744 1.363 . S
N742 C744 1.356 . S
N742 H754 0.984 . S
N742 H755 0.985 . S
N743 C745 1.356 . S
N743 H748 0.984 . S
N743 H749 0.985 . S
C744 C738 1.379 . S
C744 C741 1.363 . S
C744 N742 1.356 . S
C745 C739 1.363 . S
C745 C740 1.379 . S
C745 N743 1.356 . S
N746 C738 1.356 . S
N746 H752 0.984 . S
N746 H753 0.984 . S
N747 C740 1.356 . S
N747 H750 0.984 . S
N747 H751 0.985 . S
H748 N743 0.984 . S
H749 N743 0.985 . S
H750 N747 0.984 . S
H751 N747 0.985 . S
H752 N746 0.984 . S
H753 N746 0.984 . S
H754 N742 0.984 . S
H755 N742 0.985 . S
C756 C757 1.363 . S
C756 C762 1.379 . S
C756 N764 1.356 . S
C757 C756 1.363 . S
C757 C763 1.363 . S
C758 C759 1.363 . S
C758 C763 1.379 . S
C758 N765 1.356 . S
C759 C758 1.363 . S
C759 C762 1.363 . S
N760 C762 1.356 . S
N760 H772 0.984 . S
N760 H773 0.985 . S
N761 C763 1.356 . S
N761 H766 0.984 . S
N761 H767 0.985 . S
C762 C756 1.379 . S
C762 C759 1.363 . S
C762 N760 1.356 . S
C763 C757 1.363 . S
C763 C758 1.379 . S
C763 N761 1.356 . S
N764 C756 1.356 . S
N764 H770 0.984 . S
N764 H771 0.984 . S
N765 C758 1.356 . S
N765 H768 0.984 . S
N765 H769 0.985 . S
H766 N761 0.984 . S
H767 N761 0.985 . S
H768 N765 0.984 . S
H769 N765 0.985 . S
H770 N764 0.984 . S
H771 N764 0.984 . S
H772 N760 0.984 . S
H773 N760 0.985 . S
C774 C775 1.363 . S
C774 C780 1.379 . S
C774 N782 1.356 . S
C775 C774 1.363 . S
C775 C781 1.363 . S
C776 C777 1.363 . S
C776 C781 1.379 . S
C776 N783 1.356 . S
C777 C776 1.363 . S
C777 C780 1.363 . S
N778 C780 1.356 . S
N778 H790 0.984 . S
N778 H791 0.985 . S
N779 C781 1.356 . S
N779 H784 0.984 . S
N779 H785 0.985 . S
C780 C774 1.379 . S
C780 C777 1.363 . S
C780 N778 1.356 . S
C781 C775 1.363 . S
C781 C776 1.379 . S
C781 N779 1.356 . S
N782 C774 1.356 . S
N782 H788 0.984 . S
N782 H789 0.984 . S
N783 C776 1.356 . S
N783 H786 0.984 . S
N783 H787 0.985 . S
H784 N779 0.984 . S
H785 N779 0.985 . S
H786 N783 0.984 . S
H787 N783 0.985 . S
H788 N782 0.984 . S
H789 N782 0.984 . S
H790 N778 0.984 . S
H791 N778 0.985 . S
C792 C793 1.363 . S
C792 C798 1.379 . S
C792 N800 1.356 . S
C793 C792 1.363 . S
C793 C799 1.363 . S
C794 C795 1.363 . S
C794 C799 1.379 . S
C794 N801 1.356 . S
C795 C794 1.363 . S
C795 C798 1.363 . S
N796 C798 1.356 . S
N796 H808 0.984 . S
N796 H809 0.985 . S
N797 C799 1.356 . S
N797 H802 0.984 . S
N797 H803 0.985 . S
C798 C792 1.379 . S
C798 C795 1.363 . S
C798 N796 1.356 . S
C799 C793 1.363 . S
C799 C794 1.379 . S
C799 N797 1.356 . S
N800 C792 1.356 . S
N800 H806 0.984 . S
N800 H807 0.984 . S
N801 C794 1.356 . S
N801 H804 0.984 . S
N801 H805 0.985 . S
H802 N797 0.984 . S
H803 N797 0.985 . S
H804 N801 0.984 . S
H805 N801 0.985 . S
H806 N800 0.984 . S
H807 N800 0.984 . S
H808 N796 0.984 . S
H809 N796 0.985 . S
C810 C811 1.363 . S
C810 C816 1.379 . S
C810 N818 1.356 . S
C811 C810 1.363 . S
C811 C817 1.363 . S
C812 C813 1.363 . S
C812 C817 1.379 . S
C812 N819 1.356 . S
C813 C812 1.363 . S
C813 C816 1.363 . S
N814 C816 1.356 . S
N814 H826 0.984 . S
N814 H827 0.985 . S
N815 C817 1.356 . S
N815 H820 0.984 . S
N815 H821 0.985 . S
C816 C810 1.379 . S
C816 C813 1.363 . S
C816 N814 1.356 . S
C817 C811 1.363 . S
C817 C812 1.379 . S
C817 N815 1.356 . S
N818 C810 1.356 . S
N818 H824 0.984 . S
N818 H825 0.984 . S
N819 C812 1.356 . S
N819 H822 0.984 . S
N819 H823 0.985 . S
H820 N815 0.984 . S
H821 N815 0.985 . S
H822 N819 0.984 . S
H823 N819 0.985 . S
H824 N818 0.984 . S
H825 N818 0.984 . S
H826 N814 0.984 . S
H827 N814 0.985 . S
C828 C829 1.363 . S
C828 C834 1.379 . S
C828 N836 1.356 . S
C829 C828 1.363 . S
C829 C835 1.363 . S
C830 C831 1.363 . S
C830 C835 1.379 . S
C830 N837 1.356 . S
C831 C830 1.363 . S
C831 C834 1.363 . S
N832 C834 1.356 . S
N832 H844 0.984 . S
N832 H845 0.985 . S
N833 C835 1.356 . S
N833 H838 0.984 . S
N833 H839 0.985 . S
C834 C828 1.379 . S
C834 C831 1.363 . S
C834 N832 1.356 . S
C835 C829 1.363 . S
C835 C830 1.379 . S
C835 N833 1.356 . S
N836 C828 1.356 . S
N836 H842 0.984 . S
N836 H843 0.984 . S
N837 C830 1.356 . S
N837 H840 0.984 . S
N837 H841 0.985 . S
H838 N833 0.984 . S
H839 N833 0.985 . S
H840 N837 0.984 . S
H841 N837 0.985 . S
H842 N836 0.984 . S
H843 N836 0.984 . S
H844 N832 0.984 . S
H845 N832 0.985 . S
C846 C847 1.363 . S
C846 C852 1.379 . S
C846 N854 1.356 . S
C847 C846 1.363 . S
C847 C853 1.363 . S
C848 C849 1.363 . S
C848 C853 1.379 . S
C848 N855 1.356 . S
C849 C848 1.363 . S
C849 C852 1.363 . S
N850 C852 1.356 . S
N850 H862 0.984 . S
N850 H863 0.985 . S
N851 C853 1.356 . S
N851 H856 0.984 . S
N851 H857 0.985 . S
C852 C846 1.379 . S
C852 C849 1.363 . S
C852 N850 1.356 . S
C853 C847 1.363 . S
C853 C848 1.379 . S
C853 N851 1.356 . S
N854 C846 1.356 . S
N854 H860 0.984 . S
N854 H861 0.984 . S
N855 C848 1.356 . S
N855 H858 0.984 . S
N855 H859 0.985 . S
H856 N851 0.984 . S
H857 N851 0.985 . S
H858 N855 0.984 . S
H859 N855 0.985 . S
H860 N854 0.984 . S
H861 N854 0.984 . S
H862 N850 0.984 . S
H863 N850 0.985 . S
C864 C865 1.363 . S
C864 C870 1.379 . S
C864 N872 1.356 . S
C865 C864 1.363 . S
C865 C871 1.363 . S
C866 C867 1.363 . S
C866 C871 1.379 . S
C866 N873 1.356 . S
C867 C866 1.363 . S
C867 C870 1.363 . S
N868 C870 1.356 . S
N868 H880 0.984 . S
N868 H881 0.985 . S
N869 C871 1.356 . S
N869 H874 0.984 . S
N869 H875 0.985 . S
C870 C864 1.379 . S
C870 C867 1.363 . S
C870 N868 1.356 . S
C871 C865 1.363 . S
C871 C866 1.379 . S
C871 N869 1.356 . S
N872 C864 1.356 . S
N872 H878 0.984 . S
N872 H879 0.984 . S
N873 C866 1.356 . S
N873 H876 0.984 . S
N873 H877 0.985 . S
H874 N869 0.984 . S
H875 N869 0.985 . S
H876 N873 0.984 . S
H877 N873 0.985 . S
H878 N872 0.984 . S
H879 N872 0.984 . S
H880 N868 0.984 . S
H881 N868 0.985 . S
C882 C883 1.363 . S
C882 C888 1.379 . S
C882 N890 1.356 . S
C883 C882 1.363 . S
C883 C889 1.363 . S
C884 C885 1.363 . S
C884 C889 1.379 . S
C884 N891 1.354 1_554 S
C885 C884 1.363 . S
C885 C888 1.363 . S
N886 C888 1.356 . S
N886 H898 0.984 . S
N886 H899 0.985 . S
N887 C889 1.356 1_556 S
N887 H892 0.984 . S
N887 H893 0.985 . S
C888 C882 1.379 . S
C888 C885 1.363 . S
C888 N886 1.356 . S
C889 C883 1.363 . S
C889 C884 1.379 . S
C889 N887 1.356 1_554 S
N890 C882 1.356 . S
N890 H896 0.984 . S
N890 H897 0.984 . S
N891 C884 1.354 1_556 S
N891 H894 0.983 1_556 S
N891 H895 0.989 . S
H892 N887 0.984 . S
H893 N887 0.985 . S
H894 N891 0.983 1_554 S
H895 N891 0.989 . S
H896 N890 0.984 . S
H897 N890 0.984 . S
H898 N886 0.984 . S
H899 N886 0.985 . S
C900 C901 1.363 . S
C900 C906 1.379 . S
C900 N908 1.356 . S
C901 C900 1.363 . S
C901 C907 1.363 . S
C902 C903 1.363 . S
C902 C907 1.379 . S
C902 N909 1.356 1_554 S
C903 C902 1.363 . S
C903 C906 1.363 . S
N904 C906 1.356 . S
N904 H916 0.984 . S
N904 H917 0.985 . S
N905 C907 1.356 1_556 S
N905 H910 0.984 1_556 S
N905 H911 0.985 . S
C906 C900 1.379 . S
C906 C903 1.363 . S
C906 N904 1.356 . S
C907 C901 1.363 . S
C907 C902 1.379 . S
C907 N905 1.356 1_554 S
N908 C900 1.356 . S
N908 H914 0.984 . S
N908 H915 0.984 . S
N909 C902 1.356 1_556 S
N909 H912 0.984 . S
N909 H913 0.985 . S
H910 N905 0.984 1_554 S
H911 N905 0.985 . S
H912 N909 0.984 . S
H913 N909 0.985 . S
H914 N908 0.984 . S
H915 N908 0.984 . S
H916 N904 0.984 . S
H917 N904 0.985 . S
C918 C919 1.363 . S
C918 C924 1.379 . S
C918 N926 1.356 . S
C919 C918 1.363 . S
C919 C925 1.363 . S
C920 C921 1.363 . S
C920 C925 1.379 . S
C920 N927 1.356 . S
C921 C920 1.363 . S
C921 C924 1.363 . S
N922 C924 1.356 . S
N922 H934 0.984 . S
N922 H935 0.985 . S
N923 C925 1.356 . S
N923 H928 0.984 . S
N923 H929 0.985 . S
C924 C918 1.379 . S
C924 C921 1.363 . S
C924 N922 1.356 . S
C925 C919 1.363 . S
C925 C920 1.379 . S
C925 N923 1.356 . S
N926 C918 1.356 . S
N926 H932 0.984 . S
N926 H933 0.984 . S
N927 C920 1.356 . S
N927 H930 0.984 . S
N927 H931 0.985 . S
H928 N923 0.984 . S
H929 N923 0.985 . S
H930 N927 0.984 . S
H931 N927 0.985 . S
H932 N926 0.984 . S
H933 N926 0.984 . S
H934 N922 0.984 . S
H935 N922 0.985 . S
C936 C937 1.363 . S
C936 C942 1.379 . S
C936 N944 1.356 . S
C937 C936 1.363 . S
C937 C943 1.363 . S
C938 C939 1.363 . S
C938 C943 1.379 . S
C938 N945 1.356 . S
C939 C938 1.363 . S
C939 C942 1.363 . S
N940 C942 1.356 . S
N940 H952 0.984 . S
N940 H953 0.985 . S
N941 C943 1.356 . S
N941 H946 0.984 . S
N941 H947 0.985 . S
C942 C936 1.379 . S
C942 C939 1.363 . S
C942 N940 1.356 . S
C943 C937 1.363 . S
C943 C938 1.379 . S
C943 N941 1.356 . S
N944 C936 1.356 . S
N944 H950 0.984 . S
N944 H951 0.984 . S
N945 C938 1.356 . S
N945 H948 0.984 . S
N945 H949 0.985 . S
H946 N941 0.984 . S
H947 N941 0.985 . S
H948 N945 0.984 . S
H949 N945 0.985 . S
H950 N944 0.984 . S
H951 N944 0.984 . S
H952 N940 0.984 . S
H953 N940 0.985 . S
C954 C955 1.363 . S
C954 C960 1.379 . S
C954 N962 1.356 . S
C955 C954 1.363 . S
C955 C961 1.363 . S
C956 C957 1.363 . S
C956 C961 1.379 . S
C956 N963 1.356 . S
C957 C956 1.363 . S
C957 C960 1.363 . S
N958 C960 1.356 . S
N958 H970 0.984 . S
N958 H971 0.985 . S
N959 C961 1.356 . S
N959 H964 0.984 . S
N959 H965 0.985 . S
C960 C954 1.379 . S
C960 C957 1.363 . S
C960 N958 1.356 . S
C961 C955 1.363 . S
C961 C956 1.379 . S
C961 N959 1.356 . S
N962 C954 1.356 . S
N962 H968 0.984 . S
N962 H969 0.984 . S
N963 C956 1.356 . S
N963 H966 0.984 . S
N963 H967 0.985 . S
H964 N959 0.984 . S
H965 N959 0.985 . S
H966 N963 0.984 . S
H967 N963 0.985 . S
H968 N962 0.984 . S
H969 N962 0.984 . S
H970 N958 0.984 . S
H971 N958 0.985 . S
C972 C973 1.363 . S
C972 C978 1.379 . S
C972 N980 1.356 . S
C973 C972 1.363 . S
C973 C979 1.363 . S
C974 C975 1.363 . S
C974 C979 1.379 . S
C974 N981 1.356 . S
C975 C974 1.363 . S
C975 C978 1.363 . S
N976 C978 1.356 . S
N976 H988 0.984 . S
N976 H989 0.985 . S
N977 C979 1.356 . S
N977 H982 0.984 . S
N977 H983 0.985 . S
C978 C972 1.379 . S
C978 C975 1.363 . S
C978 N976 1.356 . S
C979 C973 1.363 . S
C979 C974 1.379 . S
C979 N977 1.356 . S
N980 C972 1.356 . S
N980 H986 0.984 . S
N980 H987 0.984 . S
N981 C974 1.356 . S
N981 H984 0.984 . S
N981 H985 0.985 . S
H982 N977 0.984 . S
H983 N977 0.985 . S
H984 N981 0.984 . S
H985 N981 0.985 . S
H986 N980 0.984 . S
H987 N980 0.984 . S
H988 N976 0.984 . S
H989 N976 0.985 . S
C990 C991 1.363 . S
C990 C996 1.379 . S
C990 N998 1.356 . S
C991 C990 1.363 . S
C991 C997 1.363 . S
C992 C993 1.363 . S
C992 C997 1.379 . S
C992 N999 1.356 1_556 S
C993 C992 1.363 . S
C993 C996 1.363 . S
N994 C996 1.356 . S
N994 H1006 0.984 . S
N994 H1007 0.985 . S
N995 C997 1.356 1_554 S
N995 H1000 0.984 . S
N995 H1001 0.985 . S
C996 C990 1.379 . S
C996 C993 1.363 . S
C996 N994 1.356 . S
C997 C991 1.363 . S
C997 C992 1.379 . S
C997 N995 1.356 1_556 S
N998 C990 1.356 . S
N998 H1004 0.984 . S
N998 H1005 0.984 . S
N999 C992 1.356 1_554 S
N999 H1002 0.984 1_554 S
N999 H1003 0.985 . S
H1000 N995 0.984 . S
H1001 N995 0.985 . S
H1002 N999 0.984 1_556 S
H1003 N999 0.985 . S
H1004 N998 0.984 . S
H1005 N998 0.984 . S
H1006 N994 0.984 . S
H1007 N994 0.985 . S
C1008 C1009 1.363 . S
C1008 C1014 1.379 . S
C1008 N1016 1.356 . S
C1009 C1008 1.363 . S
C1009 C1015 1.363 . S
C1010 C1011 1.363 . S
C1010 C1015 1.379 . S
C1010 N1017 1.356 1_556 S
C1011 C1010 1.363 . S
C1011 C1014 1.363 . S
N1012 C1014 1.356 . S
N1012 H1024 0.984 . S
N1012 H1025 0.985 . S
N1013 C1015 1.356 1_554 S
N1013 H1018 0.984 1_554 S
N1013 H1019 0.985 . S
C1014 C1008 1.379 . S
C1014 C1011 1.363 . S
C1014 N1012 1.356 . S
C1015 C1009 1.363 . S
C1015 C1010 1.379 . S
C1015 N1013 1.356 1_556 S
N1016 C1008 1.356 . S
N1016 H1022 0.984 . S
N1016 H1023 0.984 . S
N1017 C1010 1.356 1_554 S
N1017 H1020 0.984 . S
N1017 H1021 0.985 . S
H1018 N1013 0.984 1_556 S
H1019 N1013 0.985 . S
H1020 N1017 0.984 . S
H1021 N1017 0.985 . S
H1022 N1016 0.984 . S
H1023 N1016 0.984 . S
H1024 N1012 0.984 . S
H1025 N1012 0.985 . S
C1026 C1027 1.363 . S
C1026 C1032 1.379 . S
C1026 N1034 1.356 1_556 S
C1027 C1026 1.363 . S
C1027 C1033 1.363 . S
C1028 C1029 1.363 . S
C1028 C1033 1.379 . S
C1028 N1035 1.356 . S
C1029 C1028 1.363 . S
C1029 C1032 1.363 . S
N1030 C1032 1.356 1_554 S
N1030 H1042 0.984 . S
N1030 H1043 0.985 1_554 S
N1031 C1033 1.356 . S
N1031 H1036 0.984 . S
N1031 H1037 0.985 . S
C1032 C1026 1.379 . S
C1032 C1029 1.363 . S
C1032 N1030 1.356 1_556 S
C1033 C1027 1.363 . S
C1033 C1028 1.379 . S
C1033 N1031 1.356 . S
N1034 C1026 1.356 1_554 S
N1034 H1040 0.984 . S
N1034 H1041 0.984 . S
N1035 C1028 1.356 . S
N1035 H1038 0.984 . S
N1035 H1039 0.985 . S
H1036 N1031 0.984 . S
H1037 N1031 0.985 . S
H1038 N1035 0.984 . S
H1039 N1035 0.985 . S
H1040 N1034 0.984 . S
H1041 N1034 0.984 . S
H1042 N1030 0.984 . S
H1043 N1030 0.985 1_556 S
C1044 C1045 1.363 . S
C1044 C1050 1.379 . S
C1044 N1052 1.356 . S
C1045 C1044 1.363 . S
C1045 C1051 1.363 . S
C1046 C1047 1.363 . S
C1046 C1051 1.379 . S
C1046 N1053 1.356 . S
C1047 C1046 1.363 . S
C1047 C1050 1.363 . S
N1048 C1050 1.356 . S
N1048 H1060 0.984 . S
N1048 H1061 0.985 . S
N1049 C1051 1.356 . S
N1049 H1054 0.984 . S
N1049 H1055 0.985 . S
C1050 C1044 1.379 . S
C1050 C1047 1.363 . S
C1050 N1048 1.356 . S
C1051 C1045 1.363 . S
C1051 C1046 1.379 . S
C1051 N1049 1.356 . S
N1052 C1044 1.356 . S
N1052 H1058 0.984 . S
N1052 H1059 0.984 . S
N1053 C1046 1.356 . S
N1053 H1056 0.984 . S
N1053 H1057 0.985 . S
H1054 N1049 0.984 . S
H1055 N1049 0.985 . S
H1056 N1053 0.984 . S
H1057 N1053 0.985 . S
H1058 N1052 0.984 . S
H1059 N1052 0.984 . S
H1060 N1048 0.984 . S
H1061 N1048 0.985 . S
C1062 C1063 1.363 . S
C1062 C1068 1.379 . S
C1062 N1070 1.356 . S
C1063 C1062 1.363 . S
C1063 C1069 1.363 . S
C1064 C1065 1.363 . S
C1064 C1069 1.379 . S
C1064 N1071 1.356 . S
C1065 C1064 1.363 . S
C1065 C1068 1.363 . S
N1066 C1068 1.356 . S
N1066 H1078 0.984 . S
N1066 H1079 0.985 . S
N1067 C1069 1.356 . S
N1067 H1072 0.984 . S
N1067 H1073 0.985 . S
C1068 C1062 1.379 . S
C1068 C1065 1.363 . S
C1068 N1066 1.356 . S
C1069 C1063 1.363 . S
C1069 C1064 1.379 . S
C1069 N1067 1.356 . S
N1070 C1062 1.356 . S
N1070 H1076 0.984 . S
N1070 H1077 0.984 . S
N1071 C1064 1.356 . S
N1071 H1074 0.984 . S
N1071 H1075 0.985 . S
H1072 N1067 0.984 . S
H1073 N1067 0.985 . S
H1074 N1071 0.984 . S
H1075 N1071 0.985 . S
H1076 N1070 0.984 . S
H1077 N1070 0.984 . S
H1078 N1066 0.984 . S
H1079 N1066 0.985 . S
C1080 C1081 1.363 . S
C1080 C1086 1.379 . S
C1080 N1088 1.356 . S
C1081 C1080 1.363 . S
C1081 C1087 1.363 . S
C1082 C1083 1.363 . S
C1082 C1087 1.379 . S
C1082 N1089 1.356 . S
C1083 C1082 1.363 . S
C1083 C1086 1.363 . S
N1084 C1086 1.356 . S
N1084 H1096 0.984 . S
N1084 H1097 0.985 . S
N1085 C1087 1.356 . S
N1085 H1090 0.984 . S
N1085 H1091 0.985 . S
C1086 C1080 1.379 . S
C1086 C1083 1.363 . S
C1086 N1084 1.356 . S
C1087 C1081 1.363 . S
C1087 C1082 1.379 . S
C1087 N1085 1.356 . S
N1088 C1080 1.356 . S
N1088 H1094 0.984 . S
N1088 H1095 0.984 . S
N1089 C1082 1.356 . S
N1089 H1092 0.984 . S
N1089 H1093 0.985 . S
H1090 N1085 0.984 . S
H1091 N1085 0.985 . S
H1092 N1089 0.984 . S
H1093 N1089 0.985 . S
H1094 N1088 0.984 . S
H1095 N1088 0.984 . S
H1096 N1084 0.984 . S
H1097 N1084 0.985 . S
C1098 C1099 1.363 . S
C1098 C1104 1.379 . S
C1098 N1106 1.356 . S
C1099 C1098 1.363 . S
C1099 C1105 1.363 . S
C1100 C1101 1.363 . S
C1100 C1105 1.379 . S
C1100 N1107 1.356 . S
C1101 C1100 1.363 . S
C1101 C1104 1.363 . S
N1102 C1104 1.356 . S
N1102 H1114 0.984 . S
N1102 H1115 0.985 . S
N1103 C1105 1.356 . S
N1103 H1108 0.984 . S
N1103 H1109 0.985 . S
C1104 C1098 1.379 . S
C1104 C1101 1.363 . S
C1104 N1102 1.356 . S
C1105 C1099 1.363 . S
C1105 C1100 1.379 . S
C1105 N1103 1.356 . S
N1106 C1098 1.356 . S
N1106 H1112 0.984 . S
N1106 H1113 0.984 . S
N1107 C1100 1.356 . S
N1107 H1110 0.984 . S
N1107 H1111 0.985 . S
H1108 N1103 0.984 . S
H1109 N1103 0.985 . S
H1110 N1107 0.984 . S
H1111 N1107 0.985 . S
H1112 N1106 0.984 . S
H1113 N1106 0.984 . S
H1114 N1102 0.984 . S
H1115 N1102 0.985 . S
C1116 C1117 1.363 . S
C1116 C1122 1.379 . S
C1116 N1124 1.356 . S
C1117 C1116 1.363 . S
C1117 C1123 1.363 . S
C1118 C1119 1.363 . S
C1118 C1123 1.379 . S
C1118 N1125 1.356 . S
C1119 C1118 1.363 . S
C1119 C1122 1.363 . S
N1120 C1122 1.356 . S
N1120 H1132 0.984 . S
N1120 H1133 0.985 . S
N1121 C1123 1.356 . S
N1121 H1126 0.984 . S
N1121 H1127 0.985 . S
C1122 C1116 1.379 . S
C1122 C1119 1.363 . S
C1122 N1120 1.356 . S
C1123 C1117 1.363 . S
C1123 C1118 1.379 . S
C1123 N1121 1.356 . S
N1124 C1116 1.356 . S
N1124 H1130 0.984 . S
N1124 H1131 0.984 . S
N1125 C1118 1.356 . S
N1125 H1128 0.984 . S
N1125 H1129 0.985 . S
H1126 N1121 0.984 . S
H1127 N1121 0.985 . S
H1128 N1125 0.984 . S
H1129 N1125 0.985 . S
H1130 N1124 0.984 . S
H1131 N1124 0.984 . S
H1132 N1120 0.984 . S
H1133 N1120 0.985 . S
C1134 C1135 1.363 . S
C1134 C1140 1.379 . S
C1134 N1142 1.356 . S
C1135 C1134 1.363 . S
C1135 C1141 1.363 . S
C1136 C1137 1.363 . S
C1136 C1141 1.379 . S
C1136 N1143 1.356 . S
C1137 C1136 1.363 . S
C1137 C1140 1.363 . S
N1138 C1140 1.356 . S
N1138 H1150 0.984 . S
N1138 H1151 0.985 . S
N1139 C1141 1.356 . S
N1139 H1144 0.984 . S
N1139 H1145 0.985 . S
C1140 C1134 1.379 . S
C1140 C1137 1.363 . S
C1140 N1138 1.356 . S
C1141 C1135 1.363 . S
C1141 C1136 1.379 . S
C1141 N1139 1.356 . S
N1142 C1134 1.356 . S
N1142 H1148 0.984 . S
N1142 H1149 0.984 . S
N1143 C1136 1.356 . S
N1143 H1146 0.984 . S
N1143 H1147 0.985 . S
H1144 N1139 0.984 . S
H1145 N1139 0.985 . S
H1146 N1143 0.984 . S
H1147 N1143 0.985 . S
H1148 N1142 0.984 . S
H1149 N1142 0.984 . S
H1150 N1138 0.984 . S
H1151 N1138 0.985 . S
C1152 C1153 1.363 . S
C1152 C1158 1.379 . S
C1152 N1160 1.356 . S
C1153 C1152 1.363 . S
C1153 C1159 1.363 . S
C1154 C1155 1.363 . S
C1154 C1159 1.379 . S
C1154 N1161 1.356 . S
C1155 C1154 1.363 . S
C1155 C1158 1.363 . S
N1156 C1158 1.356 . S
N1156 H1168 0.984 . S
N1156 H1169 0.985 . S
N1157 C1159 1.356 . S
N1157 H1162 0.984 . S
N1157 H1163 0.985 . S
C1158 C1152 1.379 . S
C1158 C1155 1.363 . S
C1158 N1156 1.356 . S
C1159 C1153 1.363 . S
C1159 C1154 1.379 . S
C1159 N1157 1.356 . S
N1160 C1152 1.356 . S
N1160 H1166 0.984 . S
N1160 H1167 0.984 . S
N1161 C1154 1.356 . S
N1161 H1164 0.984 . S
N1161 H1165 0.985 . S
H1162 N1157 0.984 . S
H1163 N1157 0.985 . S
H1164 N1161 0.984 . S
H1165 N1161 0.985 . S
H1166 N1160 0.984 . S
H1167 N1160 0.984 . S
H1168 N1156 0.984 . S
H1169 N1156 0.985 . S
C1170 C1171 1.363 . S
C1170 C1176 1.379 . S
C1170 N1178 1.356 . S
C1171 C1170 1.363 . S
C1171 C1177 1.363 1_565 S
C1172 C1173 1.363 . S
C1172 C1177 1.379 . S
C1172 N1179 1.356 . S
C1173 C1172 1.363 . S
C1173 C1176 1.363 1_545 S
N1174 C1176 1.356 . S
N1174 H1186 0.984 . S
N1174 H1187 0.985 . S
N1175 C1177 1.356 . S
N1175 H1180 0.984 . S
N1175 H1181 0.985 . S
C1176 C1170 1.379 . S
C1176 C1173 1.363 1_565 S
C1176 N1174 1.356 . S
C1177 C1171 1.363 1_545 S
C1177 C1172 1.379 . S
C1177 N1175 1.356 . S
N1178 C1170 1.356 . S
N1178 H1184 0.984 . S
N1178 H1185 0.984 . S
N1179 C1172 1.356 . S
N1179 H1182 0.984 . S
N1179 H1183 0.985 . S
H1180 N1175 0.984 . S
H1181 N1175 0.985 . S
H1182 N1179 0.984 . S
H1183 N1179 0.985 . S
H1184 N1178 0.984 . S
H1185 N1178 0.984 . S
H1186 N1174 0.984 . S
H1187 N1174 0.985 . S
C1188 C1189 1.363 1_455 S
C1188 C1194 1.379 . S
C1188 N1196 1.356 . S
C1189 C1188 1.363 1_655 S
C1189 C1195 1.363 . S
C1190 C1191 1.363 1_655 S
C1190 C1195 1.379 . S
C1190 N1197 1.356 . S
C1191 C1190 1.363 1_455 S
C1191 C1194 1.363 . S
N1192 C1194 1.356 . S
N1192 H1204 0.984 . S
N1192 H1205 0.985 . S
N1193 C1195 1.356 . S
N1193 H1198 0.984 . S
N1193 H1199 0.985 . S
C1194 C1188 1.379 . S
C1194 C1191 1.363 . S
C1194 N1192 1.356 . S
C1195 C1189 1.363 . S
C1195 C1190 1.379 . S
C1195 N1193 1.356 . S
N1196 C1188 1.356 . S
N1196 H1202 0.984 . S
N1196 H1203 0.984 . S
N1197 C1190 1.356 . S
N1197 H1200 0.984 . S
N1197 H1201 0.985 . S
H1198 N1193 0.984 . S
H1199 N1193 0.985 . S
H1200 N1197 0.984 . S
H1201 N1197 0.985 . S
H1202 N1196 0.984 . S
H1203 N1196 0.984 . S
H1204 N1192 0.984 . S
H1205 N1192 0.985 . S
C1206 C1207 1.363 . S
C1206 C1212 1.379 . S
C1206 N1214 1.356 . S
C1207 C1206 1.363 . S
C1207 C1213 1.363 . S
C1208 C1209 1.363 . S
C1208 C1213 1.379 . S
C1208 N1215 1.356 . S
C1209 C1208 1.363 . S
C1209 C1212 1.363 . S
N1210 C1212 1.356 . S
N1210 H1222 0.984 . S
N1210 H1223 0.985 . S
N1211 C1213 1.356 . S
N1211 H1216 0.984 . S
N1211 H1217 0.985 . S
C1212 C1206 1.379 . S
C1212 C1209 1.363 . S
C1212 N1210 1.356 . S
C1213 C1207 1.363 . S
C1213 C1208 1.379 . S
C1213 N1211 1.356 . S
N1214 C1206 1.356 . S
N1214 H1220 0.984 . S
N1214 H1221 0.984 . S
N1215 C1208 1.356 . S
N1215 H1218 0.984 . S
N1215 H1219 0.985 . S
H1216 N1211 0.984 . S
H1217 N1211 0.985 . S
H1218 N1215 0.984 . S
H1219 N1215 0.985 . S
H1220 N1214 0.984 . S
H1221 N1214 0.984 . S
H1222 N1210 0.984 . S
H1223 N1210 0.985 . S
C1224 C1225 1.363 1_565 S
C1224 C1230 1.379 . S
C1224 N1232 1.356 . S
C1225 C1224 1.363 1_545 S
C1225 C1231 1.363 . S
C1226 C1227 1.363 1_545 S
C1226 C1231 1.379 . S
C1226 N1233 1.356 . S
C1227 C1226 1.363 1_565 S
C1227 C1230 1.363 . S
N1228 C1230 1.356 . S
N1228 H1240 0.984 . S
N1228 H1241 0.985 . S
N1229 C1231 1.356 . S
N1229 H1234 0.984 . S
N1229 H1235 0.985 . S
C1230 C1224 1.379 . S
C1230 C1227 1.363 . S
C1230 N1228 1.356 . S
C1231 C1225 1.363 . S
C1231 C1226 1.379 . S
C1231 N1229 1.356 . S
N1232 C1224 1.356 . S
N1232 H1238 0.984 . S
N1232 H1239 0.984 . S
N1233 C1226 1.356 . S
N1233 H1236 0.984 . S
N1233 H1237 0.985 . S
H1234 N1229 0.984 . S
H1235 N1229 0.985 . S
H1236 N1233 0.984 . S
H1237 N1233 0.985 . S
H1238 N1232 0.984 . S
H1239 N1232 0.984 . S
H1240 N1228 0.984 . S
H1241 N1228 0.985 . S
C1242 C1243 1.363 1_655 S
C1242 C1248 1.379 . S
C1242 N1250 1.356 . S
C1243 C1242 1.363 1_455 S
C1243 C1249 1.363 . S
C1244 C1245 1.363 1_455 S
C1244 C1249 1.379 . S
C1244 N1251 1.356 . S
C1245 C1244 1.363 1_655 S
C1245 C1248 1.363 . S
N1246 C1248 1.356 . S
N1246 H1258 0.984 . S
N1246 H1259 0.985 . S
N1247 C1249 1.356 . S
N1247 H1252 0.984 . S
N1247 H1253 0.985 . S
C1248 C1242 1.379 . S
C1248 C1245 1.363 . S
C1248 N1246 1.356 . S
C1249 C1243 1.363 . S
C1249 C1244 1.379 . S
C1249 N1247 1.356 . S
N1250 C1242 1.356 . S
N1250 H1256 0.984 . S
N1250 H1257 0.984 . S
N1251 C1244 1.356 . S
N1251 H1254 0.984 . S
N1251 H1255 0.985 . S
H1252 N1247 0.984 . S
H1253 N1247 0.985 . S
H1254 N1251 0.984 . S
H1255 N1251 0.985 . S
H1256 N1250 0.984 . S
H1257 N1250 0.984 . S
H1258 N1246 0.984 . S
H1259 N1246 0.985 . S
C1260 C1261 1.363 . S
C1260 C1266 1.379 . S
C1260 N1268 1.356 . S
C1261 C1260 1.363 . S
C1261 C1267 1.363 . S
C1262 C1263 1.363 . S
C1262 C1267 1.379 . S
C1262 N1269 1.356 . S
C1263 C1262 1.363 . S
C1263 C1266 1.363 . S
N1264 C1266 1.356 . S
N1264 H1276 0.984 . S
N1264 H1277 0.985 . S
N1265 C1267 1.356 . S
N1265 H1270 0.984 . S
N1265 H1271 0.985 . S
C1266 C1260 1.379 . S
C1266 C1263 1.363 . S
C1266 N1264 1.356 . S
C1267 C1261 1.363 . S
C1267 C1262 1.379 . S
C1267 N1265 1.356 . S
N1268 C1260 1.356 . S
N1268 H1274 0.984 . S
N1268 H1275 0.984 . S
N1269 C1262 1.356 . S
N1269 H1272 0.984 . S
N1269 H1273 0.985 . S
H1270 N1265 0.984 . S
H1271 N1265 0.985 . S
H1272 N1269 0.984 . S
H1273 N1269 0.985 . S
H1274 N1268 0.984 . S
H1275 N1268 0.984 . S
H1276 N1264 0.984 . S
H1277 N1264 0.985 . S
C1278 C1279 1.363 . S
C1278 C1284 1.379 . S
C1278 N1286 1.356 . S
C1279 C1278 1.363 . S
C1279 C1285 1.363 . S
C1280 C1281 1.363 . S
C1280 C1285 1.379 . S
C1280 N1287 1.356 . S
C1281 C1280 1.363 . S
C1281 C1284 1.363 . S
N1282 C1284 1.356 . S
N1282 H1294 0.984 . S
N1282 H1295 0.985 . S
N1283 C1285 1.356 . S
N1283 H1288 0.984 . S
N1283 H1289 0.985 . S
C1284 C1278 1.379 . S
C1284 C1281 1.363 . S
C1284 N1282 1.356 . S
C1285 C1279 1.363 . S
C1285 C1280 1.379 . S
C1285 N1283 1.356 . S
N1286 C1278 1.356 . S
N1286 H1292 0.984 . S
N1286 H1293 0.984 . S
N1287 C1280 1.356 . S
N1287 H1290 0.984 . S
N1287 H1291 0.985 . S
H1288 N1283 0.984 . S
H1289 N1283 0.985 . S
H1290 N1287 0.984 . S
H1291 N1287 0.985 . S
H1292 N1286 0.984 . S
H1293 N1286 0.984 . S
H1294 N1282 0.984 . S
H1295 N1282 0.985 . S
C1296 C1297 1.363 . S
C1296 C1302 1.379 . S
C1296 N1304 1.356 . S
C1297 C1296 1.363 . S
C1297 C1303 1.363 . S
C1298 C1299 1.363 . S
C1298 C1303 1.379 . S
C1298 N1305 1.356 . S
C1299 C1298 1.363 . S
C1299 C1302 1.363 . S
N1300 C1302 1.356 . S
N1300 H1312 0.984 . S
N1300 H1313 0.985 . S
N1301 C1303 1.356 . S
N1301 H1306 0.984 . S
N1301 H1307 0.985 . S
C1302 C1296 1.379 . S
C1302 C1299 1.363 . S
C1302 N1300 1.356 . S
C1303 C1297 1.363 . S
C1303 C1298 1.379 . S
C1303 N1301 1.356 . S
N1304 C1296 1.356 . S
N1304 H1310 0.984 . S
N1304 H1311 0.984 . S
N1305 C1298 1.356 . S
N1305 H1308 0.984 . S
N1305 H1309 0.985 . S
H1306 N1301 0.984 . S
H1307 N1301 0.985 . S
H1308 N1305 0.984 . S
H1309 N1305 0.985 . S
H1310 N1304 0.984 . S
H1311 N1304 0.984 . S
H1312 N1300 0.984 . S
H1313 N1300 0.985 . S
C1314 C1315 1.363 . S
C1314 C1320 1.379 . S
C1314 N1322 1.356 . S
C1315 C1314 1.363 . S
C1315 C1321 1.363 . S
C1316 C1317 1.363 . S
C1316 C1321 1.379 . S
C1316 N1323 1.356 . S
C1317 C1316 1.363 . S
C1317 C1320 1.363 . S
N1318 C1320 1.356 . S
N1318 H1330 0.984 . S
N1318 H1331 0.985 . S
N1319 C1321 1.356 . S
N1319 H1324 0.984 . S
N1319 H1325 0.985 . S
C1320 C1314 1.379 . S
C1320 C1317 1.363 . S
C1320 N1318 1.356 . S
C1321 C1315 1.363 . S
C1321 C1316 1.379 . S
C1321 N1319 1.356 . S
N1322 C1314 1.356 . S
N1322 H1328 0.984 . S
N1322 H1329 0.984 . S
N1323 C1316 1.356 . S
N1323 H1326 0.984 . S
N1323 H1327 0.985 . S
H1324 N1319 0.984 . S
H1325 N1319 0.985 . S
H1326 N1323 0.984 . S
H1327 N1323 0.985 . S
H1328 N1322 0.984 . S
H1329 N1322 0.984 . S
H1330 N1318 0.984 . S
H1331 N1318 0.985 . S
C1332 C1333 1.363 . S
C1332 C1338 1.379 . S
C1332 N1340 1.356 . S
C1333 C1332 1.363 . S
C1333 C1339 1.363 . S
C1334 C1335 1.363 . S
C1334 C1339 1.379 . S
C1334 N1341 1.356 . S
C1335 C1334 1.363 . S
C1335 C1338 1.363 . S
N1336 C1338 1.356 . S
N1336 H1348 0.984 . S
N1336 H1349 0.985 . S
N1337 C1339 1.356 . S
N1337 H1342 0.984 . S
N1337 H1343 0.985 . S
C1338 C1332 1.379 . S
C1338 C1335 1.363 . S
C1338 N1336 1.356 . S
C1339 C1333 1.363 . S
C1339 C1334 1.379 . S
C1339 N1337 1.356 . S
N1340 C1332 1.356 . S
N1340 H1346 0.984 . S
N1340 H1347 0.984 . S
N1341 C1334 1.356 . S
N1341 H1344 0.984 . S
N1341 H1345 0.985 . S
H1342 N1337 0.984 . S
H1343 N1337 0.985 . S
H1344 N1341 0.984 . S
H1345 N1341 0.985 . S
H1346 N1340 0.984 . S
H1347 N1340 0.984 . S
H1348 N1336 0.984 . S
H1349 N1336 0.985 . S
C1350 C1351 1.363 . S
C1350 C1356 1.379 . S
C1350 N1358 1.356 . S
C1351 C1350 1.363 . S
C1351 C1357 1.363 . S
C1352 C1353 1.363 . S
C1352 C1357 1.379 . S
C1352 N1359 1.356 . S
C1353 C1352 1.363 . S
C1353 C1356 1.363 . S
N1354 C1356 1.356 . S
N1354 H1366 0.984 . S
N1354 H1367 0.985 . S
N1355 C1357 1.356 . S
N1355 H1360 0.984 . S
N1355 H1361 0.985 . S
C1356 C1350 1.379 . S
C1356 C1353 1.363 . S
C1356 N1354 1.356 . S
C1357 C1351 1.363 . S
C1357 C1352 1.379 . S
C1357 N1355 1.356 . S
N1358 C1350 1.356 . S
N1358 H1364 0.984 . S
N1358 H1365 0.984 . S
N1359 C1352 1.356 . S
N1359 H1362 0.984 . S
N1359 H1363 0.985 . S
H1360 N1355 0.984 . S
H1361 N1355 0.985 . S
H1362 N1359 0.984 . S
H1363 N1359 0.985 . S
H1364 N1358 0.984 . S
H1365 N1358 0.984 . S
H1366 N1354 0.984 . S
H1367 N1354 0.985 . S
C1368 C1369 1.363 . S
C1368 C1374 1.379 . S
C1368 N1376 1.356 . S
C1369 C1368 1.363 . S
C1369 C1375 1.363 . S
C1370 C1371 1.363 . S
C1370 C1375 1.379 . S
C1370 N1377 1.356 . S
C1371 C1370 1.363 . S
C1371 C1374 1.363 . S
N1372 C1374 1.356 . S
N1372 H1384 0.984 . S
N1372 H1385 0.985 . S
N1373 C1375 1.356 . S
N1373 H1378 0.984 . S
N1373 H1379 0.985 . S
C1374 C1368 1.379 . S
C1374 C1371 1.363 . S
C1374 N1372 1.356 . S
C1375 C1369 1.363 . S
C1375 C1370 1.379 . S
C1375 N1373 1.356 . S
N1376 C1368 1.356 . S
N1376 H1382 0.984 . S
N1376 H1383 0.984 . S
N1377 C1370 1.356 . S
N1377 H1380 0.984 . S
N1377 H1381 0.985 . S
H1378 N1373 0.984 . S
H1379 N1373 0.985 . S
H1380 N1377 0.984 . S
H1381 N1377 0.985 . S
H1382 N1376 0.984 . S
H1383 N1376 0.984 . S
H1384 N1372 0.984 . S
H1385 N1372 0.985 . S
C1386 C1387 1.363 . S
C1386 C1392 1.379 . S
C1386 N1394 1.356 . S
C1387 C1386 1.363 . S
C1387 C1393 1.363 . S
C1388 C1389 1.363 . S
C1388 C1393 1.379 . S
C1388 N1395 1.356 . S
C1389 C1388 1.363 . S
C1389 C1392 1.363 . S
N1390 C1392 1.356 . S
N1390 H1402 0.984 . S
N1390 H1403 0.985 . S
N1391 C1393 1.356 . S
N1391 H1396 0.984 . S
N1391 H1397 0.985 . S
C1392 C1386 1.379 . S
C1392 C1389 1.363 . S
C1392 N1390 1.356 . S
C1393 C1387 1.363 . S
C1393 C1388 1.379 . S
C1393 N1391 1.356 . S
N1394 C1386 1.356 . S
N1394 H1400 0.984 . S
N1394 H1401 0.984 . S
N1395 C1388 1.356 . S
N1395 H1398 0.984 . S
N1395 H1399 0.985 . S
H1396 N1391 0.984 . S
H1397 N1391 0.985 . S
H1398 N1395 0.984 . S
H1399 N1395 0.985 . S
H1400 N1394 0.984 . S
H1401 N1394 0.984 . S
H1402 N1390 0.984 . S
H1403 N1390 0.985 . S
C1404 C1405 1.363 . S
C1404 C1410 1.379 . S
C1404 N1412 1.356 . S
C1405 C1404 1.363 . S
C1405 C1411 1.363 . S
C1406 C1407 1.363 . S
C1406 C1411 1.379 . S
C1406 N1413 1.356 . S
C1407 C1406 1.363 . S
C1407 C1410 1.363 . S
N1408 C1410 1.356 . S
N1408 H1420 0.984 . S
N1408 H1421 0.985 . S
N1409 C1411 1.356 . S
N1409 H1414 0.984 . S
N1409 H1415 0.985 . S
C1410 C1404 1.379 . S
C1410 C1407 1.363 . S
C1410 N1408 1.356 . S
C1411 C1405 1.363 . S
C1411 C1406 1.379 . S
C1411 N1409 1.356 . S
N1412 C1404 1.356 . S
N1412 H1418 0.984 . S
N1412 H1419 0.984 . S
N1413 C1406 1.356 . S
N1413 H1416 0.984 . S
N1413 H1417 0.985 . S
H1414 N1409 0.984 . S
H1415 N1409 0.985 . S
H1416 N1413 0.984 . S
H1417 N1413 0.985 . S
H1418 N1412 0.984 . S
H1419 N1412 0.984 . S
H1420 N1408 0.984 . S
H1421 N1408 0.985 . S
C1422 C1423 1.363 . S
C1422 C1428 1.379 . S
C1422 N1430 1.356 . S
C1423 C1422 1.363 . S
C1423 C1429 1.363 . S
C1424 C1425 1.363 . S
C1424 C1429 1.379 . S
C1424 N1431 1.356 . S
C1425 C1424 1.363 . S
C1425 C1428 1.363 . S
N1426 C1428 1.356 . S
N1426 H1438 0.984 . S
N1426 H1439 0.985 . S
N1427 C1429 1.356 . S
N1427 H1432 0.984 . S
N1427 H1433 0.985 . S
C1428 C1422 1.379 . S
C1428 C1425 1.363 . S
C1428 N1426 1.356 . S
C1429 C1423 1.363 . S
C1429 C1424 1.379 . S
C1429 N1427 1.356 . S
N1430 C1422 1.356 . S
N1430 H1436 0.984 . S
N1430 H1437 0.984 . S
N1431 C1424 1.356 . S
N1431 H1434 0.984 . S
N1431 H1435 0.985 . S
H1432 N1427 0.984 . S
H1433 N1427 0.985 . S
H1434 N1431 0.984 . S
H1435 N1431 0.985 . S
H1436 N1430 0.984 . S
H1437 N1430 0.984 . S
H1438 N1426 0.984 . S
H1439 N1426 0.985 . S
C1440 C1441 1.363 . S
C1440 C1446 1.379 . S
C1440 N1448 1.356 . S
C1441 C1440 1.363 . S
C1441 C1447 1.363 . S
C1442 C1443 1.363 . S
C1442 C1447 1.379 . S
C1442 N1449 1.356 . S
C1443 C1442 1.363 . S
C1443 C1446 1.363 . S
N1444 C1446 1.356 . S
N1444 H1456 0.984 . S
N1444 H1457 0.985 . S
N1445 C1447 1.356 . S
N1445 H1450 0.984 . S
N1445 H1451 0.985 . S
C1446 C1440 1.379 . S
C1446 C1443 1.363 . S
C1446 N1444 1.356 . S
C1447 C1441 1.363 . S
C1447 C1442 1.379 . S
C1447 N1445 1.356 . S
N1448 C1440 1.356 . S
N1448 H1454 0.984 . S
N1448 H1455 0.984 . S
N1449 C1442 1.356 . S
N1449 H1452 0.984 . S
N1449 H1453 0.985 . S
H1450 N1445 0.984 . S
H1451 N1445 0.985 . S
H1452 N1449 0.984 . S
H1453 N1449 0.985 . S
H1454 N1448 0.984 . S
H1455 N1448 0.984 . S
H1456 N1444 0.984 . S
H1457 N1444 0.985 . S
C1458 C1459 1.363 . S
C1458 C1464 1.379 . S
C1458 N1466 1.356 . S
C1459 C1458 1.363 . S
C1459 C1465 1.363 . S
C1460 C1461 1.363 . S
C1460 C1465 1.379 . S
C1460 N1467 1.356 . S
C1461 C1460 1.363 . S
C1461 C1464 1.363 . S
N1462 C1464 1.356 . S
N1462 H1474 0.984 . S
N1462 H1475 0.985 . S
N1463 C1465 1.356 . S
N1463 H1468 0.984 . S
N1463 H1469 0.985 . S
C1464 C1458 1.379 . S
C1464 C1461 1.363 . S
C1464 N1462 1.356 . S
C1465 C1459 1.363 . S
C1465 C1460 1.379 . S
C1465 N1463 1.356 . S
N1466 C1458 1.356 . S
N1466 H1472 0.984 . S
N1466 H1473 0.984 . S
N1467 C1460 1.356 . S
N1467 H1470 0.984 . S
N1467 H1471 0.985 . S
H1468 N1463 0.984 . S
H1469 N1463 0.985 . S
H1470 N1467 0.984 . S
H1471 N1467 0.985 . S
H1472 N1466 0.984 . S
H1473 N1466 0.984 . S
H1474 N1462 0.984 . S
H1475 N1462 0.985 . S
C1476 C1477 1.363 . S
C1476 C1482 1.379 . S
C1476 N1484 1.356 . S
C1477 C1476 1.363 . S
C1477 C1483 1.363 . S
C1478 C1479 1.363 . S
C1478 C1483 1.379 . S
C1478 N1485 1.356 . S
C1479 C1478 1.363 . S
C1479 C1482 1.363 . S
N1480 C1482 1.356 . S
N1480 H1492 0.984 . S
N1480 H1493 0.985 . S
N1481 C1483 1.356 . S
N1481 H1486 0.984 . S
N1481 H1487 0.985 . S
C1482 C1476 1.379 . S
C1482 C1479 1.363 . S
C1482 N1480 1.356 . S
C1483 C1477 1.363 . S
C1483 C1478 1.379 . S
C1483 N1481 1.356 . S
N1484 C1476 1.356 . S
N1484 H1490 0.984 . S
N1484 H1491 0.984 . S
N1485 C1478 1.356 . S
N1485 H1488 0.984 . S
N1485 H1489 0.985 . S
H1486 N1481 0.984 . S
H1487 N1481 0.985 . S
H1488 N1485 0.984 . S
H1489 N1485 0.985 . S
H1490 N1484 0.984 . S
H1491 N1484 0.984 . S
H1492 N1480 0.984 . S
H1493 N1480 0.985 . S
C1494 C1495 1.363 . S
C1494 C1500 1.379 . S
C1494 N1502 1.356 . S
C1495 C1494 1.363 . S
C1495 C1501 1.363 . S
C1496 C1497 1.363 . S
C1496 C1501 1.379 . S
C1496 N1503 1.356 . S
C1497 C1496 1.363 . S
C1497 C1500 1.363 . S
N1498 C1500 1.356 . S
N1498 H1510 0.984 . S
N1498 H1511 0.985 . S
N1499 C1501 1.356 . S
N1499 H1504 0.984 . S
N1499 H1505 0.985 . S
C1500 C1494 1.379 . S
C1500 C1497 1.363 . S
C1500 N1498 1.356 . S
C1501 C1495 1.363 . S
C1501 C1496 1.379 . S
C1501 N1499 1.356 . S
N1502 C1494 1.356 . S
N1502 H1508 0.984 . S
N1502 H1509 0.984 . S
N1503 C1496 1.356 . S
N1503 H1506 0.984 . S
N1503 H1507 0.985 . S
H1504 N1499 0.984 . S
H1505 N1499 0.985 . S
H1506 N1503 0.984 . S
H1507 N1503 0.985 . S
H1508 N1502 0.984 . S
H1509 N1502 0.984 . S
H1510 N1498 0.984 . S
H1511 N1498 0.985 . S
C1512 C1513 1.363 . S
C1512 C1518 1.379 . S
C1512 N1520 1.356 . S
C1513 C1512 1.363 . S
C1513 C1519 1.363 . S
C1514 C1515 1.363 . S
C1514 C1519 1.379 . S
C1514 N1521 1.356 . S
C1515 C1514 1.363 . S
C1515 C1518 1.363 . S
N1516 C1518 1.356 . S
N1516 H1528 0.984 . S
N1516 H1529 0.985 . S
N1517 C1519 1.356 . S
N1517 H1522 0.984 . S
N1517 H1523 0.985 . S
C1518 C1512 1.379 . S
C1518 C1515 1.363 . S
C1518 N1516 1.356 . S
C1519 C1513 1.363 . S
C1519 C1514 1.379 . S
C1519 N1517 1.356 . S
N1520 C1512 1.356 . S
N1520 H1526 0.984 . S
N1520 H1527 0.984 . S
N1521 C1514 1.356 . S
N1521 H1524 0.984 . S
N1521 H1525 0.985 . S
H1522 N1517 0.984 . S
H1523 N1517 0.985 . S
H1524 N1521 0.984 . S
H1525 N1521 0.985 . S
H1526 N1520 0.984 . S
H1527 N1520 0.984 . S
H1528 N1516 0.984 . S
H1529 N1516 0.985 . S
C1530 C1531 1.363 . S
C1530 C1536 1.379 . S
C1530 N1538 1.356 . S
C1531 C1530 1.363 . S
C1531 C1537 1.363 . S
C1532 C1533 1.363 . S
C1532 C1537 1.379 . S
C1532 N1539 1.356 . S
C1533 C1532 1.363 . S
C1533 C1536 1.363 . S
N1534 C1536 1.356 . S
N1534 H1546 0.984 . S
N1534 H1547 0.985 . S
N1535 C1537 1.356 . S
N1535 H1540 0.984 . S
N1535 H1541 0.985 . S
C1536 C1530 1.379 . S
C1536 C1533 1.363 . S
C1536 N1534 1.356 . S
C1537 C1531 1.363 . S
C1537 C1532 1.379 . S
C1537 N1535 1.356 . S
N1538 C1530 1.356 . S
N1538 H1544 0.984 . S
N1538 H1545 0.984 . S
N1539 C1532 1.356 . S
N1539 H1542 0.984 . S
N1539 H1543 0.985 . S
H1540 N1535 0.984 . S
H1541 N1535 0.985 . S
H1542 N1539 0.984 . S
H1543 N1539 0.985 . S
H1544 N1538 0.984 . S
H1545 N1538 0.984 . S
H1546 N1534 0.984 . S
H1547 N1534 0.985 . S
C1548 C1549 1.363 . S
C1548 C1554 1.379 . S
C1548 N1556 1.356 . S
C1549 C1548 1.363 . S
C1549 C1555 1.363 . S
C1550 C1551 1.363 . S
C1550 C1555 1.379 . S
C1550 N1557 1.356 . S
C1551 C1550 1.363 . S
C1551 C1554 1.363 . S
N1552 C1554 1.356 . S
N1552 H1564 0.984 . S
N1552 H1565 0.985 . S
N1553 C1555 1.356 . S
N1553 H1558 0.984 . S
N1553 H1559 0.985 . S
C1554 C1548 1.379 . S
C1554 C1551 1.363 . S
C1554 N1552 1.356 . S
C1555 C1549 1.363 . S
C1555 C1550 1.379 . S
C1555 N1553 1.356 . S
N1556 C1548 1.356 . S
N1556 H1562 0.984 . S
N1556 H1563 0.984 . S
N1557 C1550 1.356 . S
N1557 H1560 0.984 . S
N1557 H1561 0.985 . S
H1558 N1553 0.984 . S
H1559 N1553 0.985 . S
H1560 N1557 0.984 . S
H1561 N1557 0.985 . S
H1562 N1556 0.984 . S
H1563 N1556 0.984 . S
H1564 N1552 0.984 . S
H1565 N1552 0.985 . S
C1566 C1567 1.363 . S
C1566 C1572 1.379 . S
C1566 N1574 1.356 . S
C1567 C1566 1.363 . S
C1567 C1573 1.363 . S
C1568 C1569 1.363 . S
C1568 C1573 1.379 . S
C1568 N1575 1.356 . S
C1569 C1568 1.363 . S
C1569 C1572 1.363 . S
N1570 C1572 1.356 . S
N1570 H1582 0.984 . S
N1570 H1583 0.985 . S
N1571 C1573 1.356 . S
N1571 H1576 0.984 . S
N1571 H1577 0.985 . S
C1572 C1566 1.379 . S
C1572 C1569 1.363 . S
C1572 N1570 1.356 . S
C1573 C1567 1.363 . S
C1573 C1568 1.379 . S
C1573 N1571 1.356 . S
N1574 C1566 1.356 . S
N1574 H1580 0.984 . S
N1574 H1581 0.984 . S
N1575 C1568 1.356 . S
N1575 H1578 0.984 . S
N1575 H1579 0.985 . S
H1576 N1571 0.984 . S
H1577 N1571 0.985 . S
H1578 N1575 0.984 . S
H1579 N1575 0.985 . S
H1580 N1574 0.984 . S
H1581 N1574 0.984 . S
H1582 N1570 0.984 . S
H1583 N1570 0.985 . S
C1584 C1585 1.363 . S
C1584 C1590 1.379 . S
C1584 N1592 1.356 . S
C1585 C1584 1.363 . S
C1585 C1591 1.363 . S
C1586 C1587 1.363 . S
C1586 C1591 1.379 . S
C1586 N1593 1.356 . S
C1587 C1586 1.363 . S
C1587 C1590 1.363 . S
N1588 C1590 1.356 . S
N1588 H1600 0.984 . S
N1588 H1601 0.985 . S
N1589 C1591 1.356 . S
N1589 H1594 0.984 . S
N1589 H1595 0.985 . S
C1590 C1584 1.379 . S
C1590 C1587 1.363 . S
C1590 N1588 1.356 . S
C1591 C1585 1.363 . S
C1591 C1586 1.379 . S
C1591 N1589 1.356 . S
N1592 C1584 1.356 . S
N1592 H1598 0.984 . S
N1592 H1599 0.984 . S
N1593 C1586 1.356 . S
N1593 H1596 0.984 . S
N1593 H1597 0.985 . S
H1594 N1589 0.984 . S
H1595 N1589 0.985 . S
H1596 N1593 0.984 . S
H1597 N1593 0.985 . S
H1598 N1592 0.984 . S
H1599 N1592 0.984 . S
H1600 N1588 0.984 . S
H1601 N1588 0.985 . S
C1602 C1603 1.363 . S
C1602 C1608 1.379 . S
C1602 N1610 1.356 . S
C1603 C1602 1.363 . S
C1603 C1609 1.363 . S
C1604 C1605 1.363 . S
C1604 C1609 1.379 . S
C1604 N1611 1.356 . S
C1605 C1604 1.363 . S
C1605 C1608 1.363 . S
N1606 C1608 1.356 . S
N1606 H1618 0.984 . S
N1606 H1619 0.985 . S
N1607 C1609 1.356 . S
N1607 H1612 0.984 . S
N1607 H1613 0.985 . S
C1608 C1602 1.379 . S
C1608 C1605 1.363 . S
C1608 N1606 1.356 . S
C1609 C1603 1.363 . S
C1609 C1604 1.379 . S
C1609 N1607 1.356 . S
N1610 C1602 1.356 . S
N1610 H1616 0.984 . S
N1610 H1617 0.984 . S
N1611 C1604 1.356 . S
N1611 H1614 0.984 . S
N1611 H1615 0.985 . S
H1612 N1607 0.984 . S
H1613 N1607 0.985 . S
H1614 N1611 0.984 . S
H1615 N1611 0.985 . S
H1616 N1610 0.984 . S
H1617 N1610 0.984 . S
H1618 N1606 0.984 . S
H1619 N1606 0.985 . S
C1620 C1621 1.363 . S
C1620 C1626 1.379 . S
C1620 N1628 1.356 . S
C1621 C1620 1.363 . S
C1621 C1627 1.363 . S
C1622 C1623 1.363 . S
C1622 C1627 1.379 . S
C1622 N1629 1.356 . S
C1623 C1622 1.363 . S
C1623 C1626 1.363 . S
N1624 C1626 1.356 . S
N1624 H1636 0.984 . S
N1624 H1637 0.985 . S
N1625 C1627 1.356 . S
N1625 H1630 0.984 . S
N1625 H1631 0.985 . S
C1626 C1620 1.379 . S
C1626 C1623 1.363 . S
C1626 N1624 1.356 . S
C1627 C1621 1.363 . S
C1627 C1622 1.379 . S
C1627 N1625 1.356 . S
N1628 C1620 1.356 . S
N1628 H1634 0.984 . S
N1628 H1635 0.984 . S
N1629 C1622 1.356 . S
N1629 H1632 0.984 . S
N1629 H1633 0.985 . S
H1630 N1625 0.984 . S
H1631 N1625 0.985 . S
H1632 N1629 0.984 . S
H1633 N1629 0.985 . S
H1634 N1628 0.984 . S
H1635 N1628 0.984 . S
H1636 N1624 0.984 . S
H1637 N1624 0.985 . S
C1638 C1639 1.363 . S
C1638 C1644 1.379 . S
C1638 N1646 1.356 . S
C1639 C1638 1.363 . S
C1639 C1645 1.363 . S
C1640 C1641 1.363 . S
C1640 C1645 1.379 . S
C1640 N1647 1.356 . S
C1641 C1640 1.363 . S
C1641 C1644 1.363 . S
N1642 C1644 1.356 . S
N1642 H1654 0.984 . S
N1642 H1655 0.985 . S
N1643 C1645 1.356 . S
N1643 H1648 0.984 . S
N1643 H1649 0.985 . S
C1644 C1638 1.379 . S
C1644 C1641 1.363 . S
C1644 N1642 1.356 . S
C1645 C1639 1.363 . S
C1645 C1640 1.379 . S
C1645 N1643 1.356 . S
N1646 C1638 1.356 . S
N1646 H1652 0.984 . S
N1646 H1653 0.984 . S
N1647 C1640 1.356 . S
N1647 H1650 0.984 . S
N1647 H1651 0.985 . S
H1648 N1643 0.984 . S
H1649 N1643 0.985 . S
H1650 N1647 0.984 . S
H1651 N1647 0.985 . S
H1652 N1646 0.984 . S
H1653 N1646 0.984 . S
H1654 N1642 0.984 . S
H1655 N1642 0.985 . S
C1656 C1657 1.363 . S
C1656 C1662 1.379 . S
C1656 N1664 1.356 . S
C1657 C1656 1.363 . S
C1657 C1663 1.363 . S
C1658 C1659 1.363 . S
C1658 C1663 1.379 . S
C1658 N1665 1.356 . S
C1659 C1658 1.363 . S
C1659 C1662 1.363 . S
N1660 C1662 1.356 . S
N1660 H1672 0.984 . S
N1660 H1673 0.985 . S
N1661 C1663 1.356 . S
N1661 H1666 0.984 . S
N1661 H1667 0.985 . S
C1662 C1656 1.379 . S
C1662 C1659 1.363 . S
C1662 N1660 1.356 . S
C1663 C1657 1.363 . S
C1663 C1658 1.379 . S
C1663 N1661 1.356 . S
N1664 C1656 1.356 . S
N1664 H1670 0.984 . S
N1664 H1671 0.984 . S
N1665 C1658 1.356 . S
N1665 H1668 0.984 . S
N1665 H1669 0.985 . S
H1666 N1661 0.984 . S
H1667 N1661 0.985 . S
H1668 N1665 0.984 . S
H1669 N1665 0.985 . S
H1670 N1664 0.984 . S
H1671 N1664 0.984 . S
H1672 N1660 0.984 . S
H1673 N1660 0.985 . S
C1674 C1675 1.363 . S
C1674 C1680 1.379 . S
C1674 N1682 1.356 . S
C1675 C1674 1.363 . S
C1675 C1681 1.363 . S
C1676 C1677 1.363 . S
C1676 C1681 1.379 . S
C1676 N1683 1.356 . S
C1677 C1676 1.363 . S
C1677 C1680 1.363 . S
N1678 C1680 1.356 . S
N1678 H1690 0.984 . S
N1678 H1691 0.985 . S
N1679 C1681 1.356 . S
N1679 H1684 0.984 . S
N1679 H1685 0.985 . S
C1680 C1674 1.379 . S
C1680 C1677 1.363 . S
C1680 N1678 1.356 . S
C1681 C1675 1.363 . S
C1681 C1676 1.379 . S
C1681 N1679 1.356 . S
N1682 C1674 1.356 . S
N1682 H1688 0.984 . S
N1682 H1689 0.984 . S
N1683 C1676 1.356 . S
N1683 H1686 0.984 . S
N1683 H1687 0.985 . S
H1684 N1679 0.984 . S
H1685 N1679 0.985 . S
H1686 N1683 0.984 . S
H1687 N1683 0.985 . S
H1688 N1682 0.984 . S
H1689 N1682 0.984 . S
H1690 N1678 0.984 . S
H1691 N1678 0.985 . S
C1692 C1693 1.363 . S
C1692 C1698 1.357 1_455 S
C1692 N1700 1.356 . S
C1693 C1692 1.363 . S
C1693 C1699 1.377 . S
C1694 C1695 1.363 . S
C1694 C1699 1.357 1_655 S
C1694 N1701 1.356 . S
C1695 C1694 1.363 . S
C1695 C1698 1.377 . S
N1696 C1698 1.371 . S
N1696 H1708 0.984 1_655 S
N1696 H1709 0.985 . S
N1697 C1699 1.371 . S
N1697 H1702 0.984 . S
N1697 H1703 0.985 1_455 S
C1698 C1692 1.357 1_655 S
C1698 C1695 1.377 . S
C1698 N1696 1.371 . S
C1699 C1693 1.377 . S
C1699 C1694 1.357 1_455 S
C1699 N1697 1.371 . S
N1700 C1692 1.356 . S
N1700 H1706 0.984 . S
N1700 H1707 0.984 . S
N1701 C1694 1.356 . S
N1701 H1704 0.984 . S
N1701 H1705 0.985 . S
H1702 N1697 0.984 . S
H1703 N1697 0.985 1_655 S
H1704 N1701 0.984 . S
H1705 N1701 0.985 . S
H1706 N1700 0.984 . S
H1707 N1700 0.984 . S
H1708 N1696 0.984 1_455 S
H1709 N1696 0.985 . S
C1710 C1711 1.363 . S
C1710 C1716 1.379 . S
C1710 N1718 1.356 . S
C1711 C1710 1.363 . S
C1711 C1717 1.363 . S
C1712 C1713 1.363 . S
C1712 C1717 1.379 . S
C1712 N1719 1.356 . S
C1713 C1712 1.363 . S
C1713 C1716 1.363 . S
N1714 C1716 1.356 . S
N1714 H1726 0.984 . S
N1714 H1727 0.985 . S
N1715 C1717 1.356 . S
N1715 H1720 0.984 . S
N1715 H1721 0.985 . S
C1716 C1710 1.379 . S
C1716 C1713 1.363 . S
C1716 N1714 1.356 . S
C1717 C1711 1.363 . S
C1717 C1712 1.379 . S
C1717 N1715 1.356 . S
N1718 C1710 1.356 . S
N1718 H1724 0.984 . S
N1718 H1725 0.984 . S
N1719 C1712 1.356 . S
N1719 H1722 0.984 . S
N1719 H1723 0.985 . S
H1720 N1715 0.984 . S
H1721 N1715 0.985 . S
H1722 N1719 0.984 . S
H1723 N1719 0.985 . S
H1724 N1718 0.984 . S
H1725 N1718 0.984 . S
H1726 N1714 0.984 . S
H1727 N1714 0.985 . S
C1728 C1729 1.363 . S
C1728 C1734 1.379 1_545 S
C1728 N1736 1.356 . S
C1729 C1728 1.363 . S
C1729 C1735 1.363 . S
C1730 C1731 1.363 . S
C1730 C1735 1.379 1_565 S
C1730 N1737 1.356 . S
C1731 C1730 1.363 . S
C1731 C1734 1.363 . S
N1732 C1734 1.356 . S
N1732 H1744 0.984 . S
N1732 H1745 0.985 . S
N1733 C1735 1.356 . S
N1733 H1738 0.984 . S
N1733 H1739 0.985 . S
C1734 C1728 1.379 1_565 S
C1734 C1731 1.363 . S
C1734 N1732 1.356 . S
C1735 C1729 1.363 . S
C1735 C1730 1.379 1_545 S
C1735 N1733 1.356 . S
N1736 C1728 1.356 . S
N1736 H1742 0.984 . S
N1736 H1743 0.984 . S
N1737 C1730 1.356 . S
N1737 H1740 0.984 . S
N1737 H1741 0.985 . S
H1738 N1733 0.984 . S
H1739 N1733 0.985 . S
H1740 N1737 0.984 . S
H1741 N1737 0.985 . S
H1742 N1736 0.984 . S
H1743 N1736 0.984 . S
H1744 N1732 0.984 . S
H1745 N1732 0.985 . S
C1746 C1747 1.363 1_556 S
C1746 C1752 1.379 1_545 S
C1746 N1754 1.356 . S
C1747 C1746 1.363 1_554 S
C1747 C1753 1.363 . S
C1748 C1749 1.363 1_554 S
C1748 C1753 1.379 1_565 S
C1748 N1755 1.356 . S
C1749 C1748 1.363 1_556 S
C1749 C1752 1.363 . S
N1750 C1752 1.356 . S
N1750 H1762 0.984 . S
N1750 H1763 0.985 . S
N1751 C1753 1.356 . S
N1751 H1756 0.984 . S
N1751 H1757 0.985 . S
C1752 C1746 1.379 1_565 S
C1752 C1749 1.363 . S
C1752 N1750 1.356 . S
C1753 C1747 1.363 . S
C1753 C1748 1.379 1_545 S
C1753 N1751 1.356 . S
N1754 C1746 1.356 . S
N1754 H1760 0.984 1_545 S
N1754 H1761 0.984 . S
N1755 C1748 1.356 . S
N1755 H1758 0.984 . S
N1755 H1759 0.985 1_565 S
H1756 N1751 0.984 . S
H1757 N1751 0.985 . S
H1758 N1755 0.984 . S
H1759 N1755 0.985 1_545 S
H1760 N1754 0.984 1_565 S
H1761 N1754 0.984 . S
H1762 N1750 0.984 . S
H1763 N1750 0.985 . S
C1764 C1765 1.363 1_556 S
C1764 C1770 1.379 1_655 S
C1764 N1772 1.356 . S
C1765 C1764 1.363 1_554 S
C1765 C1771 1.363 . S
C1766 C1767 1.363 1_554 S
C1766 C1771 1.379 1_455 S
C1766 N1773 1.356 . S
C1767 C1766 1.363 1_556 S
C1767 C1770 1.363 . S
N1768 C1770 1.356 . S
N1768 H1780 0.984 . S
N1768 H1781 0.985 . S
N1769 C1771 1.356 . S
N1769 H1774 0.984 . S
N1769 H1775 0.985 . S
C1770 C1764 1.379 1_455 S
C1770 C1767 1.363 . S
C1770 N1768 1.356 . S
C1771 C1765 1.363 . S
C1771 C1766 1.379 1_655 S
C1771 N1769 1.356 . S
N1772 C1764 1.356 . S
N1772 H1778 0.984 1_655 S
N1772 H1779 0.984 . S
N1773 C1766 1.356 . S
N1773 H1776 0.984 . S
N1773 H1777 0.985 1_455 S
H1774 N1769 0.984 . S
H1775 N1769 0.985 . S
H1776 N1773 0.984 . S
H1777 N1773 0.985 1_655 S
H1778 N1772 0.984 1_455 S
H1779 N1772 0.984 . S
H1780 N1768 0.984 . S
H1781 N1768 0.985 . S
C1782 C1783 1.363 . S
C1782 C1788 1.379 . S
C1782 N1790 1.356 . S
C1783 C1782 1.363 . S
C1783 C1789 1.363 1_556 S
C1784 C1785 1.363 . S
C1784 C1789 1.379 . S
C1784 N1791 1.356 . S
C1785 C1784 1.363 . S
C1785 C1788 1.363 1_554 S
N1786 C1788 1.356 . S
N1786 H1798 0.984 . S
N1786 H1799 0.985 . S
N1787 C1789 1.356 . S
N1787 H1792 0.984 . S
N1787 H1793 0.985 . S
C1788 C1782 1.379 . S
C1788 C1785 1.363 1_556 S
C1788 N1786 1.356 . S
C1789 C1783 1.363 1_554 S
C1789 C1784 1.379 . S
C1789 N1787 1.356 . S
N1790 C1782 1.356 . S
N1790 H1796 0.984 . S
N1790 H1797 0.984 . S
N1791 C1784 1.356 . S
N1791 H1794 0.984 . S
N1791 H1795 0.985 . S
H1792 N1787 0.984 . S
H1793 N1787 0.985 . S
H1794 N1791 0.984 . S
H1795 N1791 0.985 . S
H1796 N1790 0.984 . S
H1797 N1790 0.984 . S
H1798 N1786 0.984 . S
H1799 N1786 0.985 . S
C505 C9 1.468 . S
C507 C22 1.599 . S
C523 C23 1.468 . S
C525 C36 1.599 . S
C541 C8 1.599 . S
C543 C37 1.468 . S
C559 C51 1.468 . S
C561 C78 1.599 . S
C577 C65 1.468 . S
C579 C50 1.599 . S
C595 C64 1.599 . S
C597 C79 1.468 . S
C613 C93 1.468 . S
C615 C106 1.599 . S
C631 C120 1.599 . S
C633 C107 1.468 . S
C649 C92 1.599 . S
C651 C121 1.468 . S
C667 C162 1.599 . S
C669 C135 1.468 . S
C685 C149 1.468 . S
C687 C134 1.599 . S
C703 C163 1.468 . S
C705 C148 1.599 . S
C721 C190 1.599 . S
C723 C177 1.468 . S
C739 C191 1.468 . S
C741 C204 1.599 . S
C757 C205 1.468 . S
C759 C176 1.599 . S
C775 C219 1.468 . S
C777 C246 1.599 . S
C793 C233 1.468 . S
C795 C218 1.599 . S
C811 C247 1.468 . S
C813 C232 1.599 . S
C829 C274 1.599 . S
C831 C261 1.468 . S
C847 C275 1.468 . S
C849 C288 1.599 . S
C865 C260 1.599 . S
C867 C289 1.468 . S
C883 C330 1.599 . S
C885 C303 1.468 . S
C901 C317 1.468 . S
C903 C302 1.598 . S
C919 C316 1.599 . S
C921 C331 1.468 . S
C937 C358 1.599 . S
C939 C345 1.468 . S
C955 C359 1.468 . S
C957 C372 1.599 . S
C973 C373 1.468 . S
C975 C344 1.599 . S
C991 C414 1.599 . S
C993 C387 1.468 . S
C1009 C401 1.468 . S
C1011 C386 1.598 . S
C1027 C400 1.599 . S
C1029 C415 1.468 . S
C1045 C429 1.468 . S
C1047 C442 1.599 . S
C1063 C443 1.468 . S
C1065 C456 1.599 . S
C1081 C457 1.468 . S
C1083 C428 1.599 . S
C1099 C498 1.599 . S
C1101 C471 1.468 . S
C1117 C470 1.599 . S
C1119 C485 1.468 . S
C1135 C499 1.468 . S
C1137 C484 1.599 . S
C1153 C49 1.780 . S
C1155 C7 1.780 . S
C1171 C21 1.780 . S
C1173 C63 1.780 . S
C1189 C77 1.780 . S
C1191 C35 1.780 . S
C1207 C133 1.780 . S
C1209 C91 1.780 . S
C1225 C105 1.780 . S
C1227 C147 1.780 . S
C1243 C161 1.780 . S
C1245 C119 1.780 . S
C1261 C175 1.780 . S
C1263 C217 1.780 . S
C1279 C189 1.780 . S
C1281 C231 1.780 . S
C1297 C203 1.780 . S
C1299 C245 1.780 . S
C1315 C301 1.780 . S
C1317 C259 1.780 . S
C1333 C315 1.780 . S
C1335 C273 1.780 . S
C1351 C287 1.780 . S
C1353 C329 1.780 . S
C1369 C385 1.780 . S
C1371 C343 1.780 . S
C1387 C399 1.780 . S
C1389 C357 1.780 . S
C1405 C371 1.780 . S
C1407 C413 1.780 . S
C1423 C427 1.780 . S
C1425 C469 1.780 . S
C1441 C483 1.780 . S
C1443 C441 1.780 . S
C1459 C455 1.780 . S
C1461 C497 1.780 . S
C1477 C6 1.714 . S
C1479 C258 1.714 . S
C1495 C20 1.713 . S
C1497 C272 1.713 . S
C1513 C34 1.713 . S
C1515 C286 1.713 . S
C1531 C468 1.714 . S
C1533 C48 1.714 . S
C1549 C482 1.713 . S
C1551 C62 1.713 . S
C1567 C76 1.713 . S
C1569 C496 1.713 . S
C1585 C90 1.714 . S
C1587 C342 1.714 . S
C1603 C356 1.713 . S
C1605 C104 1.713 . S
C1621 C370 1.713 . S
C1623 C118 1.713 . S
C1639 C216 1.714 . S
C1641 C132 1.714 . S
C1657 C230 1.713 . S
C1659 C146 1.713 . S
C1675 C244 1.713 . S
C1677 C160 1.713 . S
C1693 C426 1.714 . S
C1695 C174 1.714 . S
C1711 C188 1.713 . S
C1713 C440 1.713 . S
C1729 C202 1.713 . S
C1731 C454 1.713 . S
C1747 C300 1.713 . S
C1749 C384 1.713 . S
C1765 C314 1.713 . S
C1767 C398 1.713 . S
C1783 C412 1.713 . S
C1785 C328 1.713 . S
