# Generated by pormake.
# Topology irl, (4)-cn, num edge types: 1
# Building blocks:
#     Node 0, Type 0, BuildingBlock: QUQFOY_clean_sbu_1, # of connection points: 4
#     Node 1, Type 0, BuildingBlock: QUQFOY_clean_sbu_1, # of connection points: 4
#     Node 2, Type 0, BuildingBlock: QUQFOY_clean_sbu_1, # of connection points: 4
#     Node 3, Type 0, BuildingBlock: QUQFOY_clean_sbu_1, # of connection points: 4
#     Node 4, Type 0, BuildingBlock: QUQFOY_clean_sbu_1, # of connection points: 4
#     Node 5, Type 0, BuildingBlock: QUQFOY_clean_sbu_1, # of connection points: 4
#     Node 6, Type 0, BuildingBlock: QUQFOY_clean_sbu_1, # of connection points: 4
#     Node 7, Type 0, BuildingBlock: QUQFOY_clean_sbu_1, # of connection points: 4
#     Edge 8, Type (0, 0), BuildingBlock: TEMPAE_clean_linker_10, # of connection points: 2
#     Edge 9, Type (0, 0), BuildingBlock: TEMPAE_clean_linker_10, # of connection points: 2
#     Edge 10, Type (0, 0), BuildingBlock: TEMPAE_clean_linker_10, # of connection points: 2
#     Edge 11, Type (0, 0), BuildingBlock: TEMPAE_clean_linker_10, # of connection points: 2
#     Edge 12, Type (0, 0), BuildingBlock: TEMPAE_clean_linker_10, # of connection points: 2
#     Edge 13, Type (0, 0), BuildingBlock: TEMPAE_clean_linker_10, # of connection points: 2
#     Edge 14, Type (0, 0), BuildingBlock: TEMPAE_clean_linker_10, # of connection points: 2
#     Edge 15, Type (0, 0), BuildingBlock: TEMPAE_clean_linker_10, # of connection points: 2
#     Edge 16, Type (0, 0), BuildingBlock: TEMPAE_clean_linker_10, # of connection points: 2
#     Edge 17, Type (0, 0), BuildingBlock: TEMPAE_clean_linker_10, # of connection points: 2
#     Edge 18, Type (0, 0), BuildingBlock: TEMPAE_clean_linker_10, # of connection points: 2
#     Edge 19, Type (0, 0), BuildingBlock: TEMPAE_clean_linker_10, # of connection points: 2
#     Edge 20, Type (0, 0), BuildingBlock: TEMPAE_clean_linker_10, # of connection points: 2
#     Edge 21, Type (0, 0), BuildingBlock: TEMPAE_clean_linker_10, # of connection points: 2
#     Edge 22, Type (0, 0), BuildingBlock: TEMPAE_clean_linker_10, # of connection points: 2
#     Edge 23, Type (0, 0), BuildingBlock: TEMPAE_clean_linker_10, # of connection points: 2
# Relax obj value: 0.045
# Max RMSD: 0.084
# Mean RMSD: 0.084
data_MOF--net-irl--node1-QUQFOY_clean_sbu_1--edge1-TEMPAE_clean_linker_10
_symmetry_space_group_name_H-M    P1
_symmetry_Int_Tables_number       1
_symmetry_cell_setting            triclinic
loop_
_symmetry_equiv_pos_as_xyz
'x, y, z'
_cell_length_a     37.008282
_cell_length_b     44.788458
_cell_length_c     29.165047
_cell_angle_alpha  90.054747
_cell_angle_beta   90.073596
_cell_angle_gamma 90.010849
loop_
_atom_site_label
_atom_site_type_symbol
_atom_site_fract_x
_atom_site_fract_y
_atom_site_fract_z
_atom_type_partial_charge
O0 O 0.0831 0.18142 0.08884 0.0
Cd1 Cd 0.1046 0.16737 0.02778 0.0
Cd2 Cd 0.03894 0.18377 0.99762 0.0
O3 O 0.03469 0.20412 0.06185 0.0
O4 O 0.15843 0.16999 0.03534 0.0
O5 O 0.12737 0.19848 0.98768 0.0
C6 C 0.1579 0.19181 1.00643 0.0
C7 C 0.03418 0.20654 0.92613 0.0
C8 C 0.05519 0.19736 0.09542 0.0
C9 C 0.05602 0.1181 0.99746 0.0
O10 O 0.03164 0.13807 0.99503 0.0
O11 O 0.08859 0.12513 1.00671 0.0
O12 O 1.00582 0.20244 0.95111 0.0
O13 O 0.06526 0.19979 0.94329 0.0
O14 O 0.94166 0.84168 0.08883 0.0
Cd15 Cd 0.92059 0.85604 0.02759 0.0
Cd16 Cd 0.98595 0.8386 0.99772 0.0
O17 O 0.98956 0.81821 0.06195 0.0
O18 O 0.86663 0.85432 0.03438 0.0
O19 O 0.89732 0.82535 0.98704 0.0
C20 C 0.86681 0.83256 1.00529 0.0
C21 C 0.99058 0.81563 0.92626 0.0
C22 C 0.96922 0.82532 0.09547 0.0
C23 C 0.97038 0.90453 0.99767 0.0
O24 O 0.99432 0.88419 0.99529 0.0
O25 O 0.93765 0.89799 1.00672 0.0
O26 O 0.0189 0.81939 0.95155 0.0
O27 O 0.95956 0.82288 0.94306 0.0
O28 O 0.08259 0.83967 0.42676 0.0
Cd29 Cd 0.104 0.85394 0.48791 0.0
Cd30 Cd 0.0384 0.83729 0.51787 0.0
O31 O 0.03415 0.81699 0.45359 0.0
O32 O 0.15788 0.85183 0.48058 0.0
O33 O 0.1272 0.82311 0.52822 0.0
C34 C 0.15766 0.83007 0.50961 0.0
C35 C 0.03372 0.81444 0.58933 0.0
C36 C 0.05467 0.82373 0.42007 0.0
C37 C 0.05504 0.90303 0.51799 0.0
O38 O 0.03079 0.88295 0.52048 0.0
O39 O 0.08764 0.89613 0.50876 0.0
O40 O 1.00535 0.81848 0.56424 0.0
O41 O 0.06479 0.8213 0.57229 0.0
O42 O 0.94247 0.17963 0.42624 0.0
Cd43 Cd 0.92109 0.16568 0.48737 0.0
Cd44 Cd 0.98655 0.18257 0.51754 0.0
O45 O 0.99042 0.20299 0.45337 0.0
O46 O 0.86721 0.16811 0.48012 0.0
O47 O 0.89835 0.19685 0.52744 0.0
C48 C 0.86777 0.19002 0.50894 0.0
C49 C 0.99134 0.20547 0.58902 0.0
C50 C 0.97011 0.1959 0.41973 0.0
C51 C 0.9701 0.11678 0.51769 0.0
O52 O 0.99432 0.13691 0.51999 0.0
O53 O 0.93744 0.1236 0.5086 0.0
O54 O 0.01966 0.20152 0.56389 0.0
O55 O 0.96027 0.19844 0.57206 0.0
O56 O 0.57783 0.68418 0.0874 0.0
Cd57 Cd 0.60281 0.66685 0.03019 0.0
Cd58 Cd 0.53686 0.67599 0.99362 0.0
O59 O 0.52394 0.69296 0.05756 0.0
O60 O 0.65556 0.67295 0.04097 0.0
O61 O 0.62516 0.696 0.9861 0.0
C62 C 0.6551 0.69233 1.00825 0.0
C63 C 0.52385 0.69981 0.92468 0.0
C64 C 0.54562 0.6936 0.09143 0.0
C65 C 0.56359 0.61234 0.99817 0.0
O66 O 0.53838 0.63031 0.9877 0.0
O67 O 0.59301 0.62205 0.01528 0.0
O68 O 0.49878 0.68738 0.94871 0.0
O69 O 0.55613 0.70066 0.94154 0.0
O70 O 0.44688 0.33676 0.08857 0.0
Cd71 Cd 0.42686 0.35183 0.02729 0.0
Cd72 Cd 0.49146 0.33196 0.99859 0.0
O73 O 0.49268 0.31048 0.06192 0.0
O74 O 0.37277 0.35154 0.03375 0.0
O75 O 0.40262 0.32161 0.98696 0.0
C76 C 0.37234 0.32953 1.00508 0.0
C77 C 0.49432 0.30962 0.92662 0.0
C78 C 0.47282 0.31871 0.09527 0.0
C79 C 0.47992 0.39838 0.99931 0.0
O80 O 0.50273 0.37713 0.99807 0.0
O81 O 0.44654 0.39303 1.00637 0.0
O82 O 0.52294 0.31167 0.95183 0.0
O83 O 0.46398 0.31837 0.94368 0.0
O84 O 0.57812 0.33175 0.42709 0.0
Cd85 Cd 0.59762 0.34817 0.48792 0.0
Cd86 Cd 0.53235 0.32918 0.51638 0.0
O87 O 0.53066 0.30743 0.45331 0.0
O88 O 0.65168 0.3482 0.48117 0.0
O89 O 0.62242 0.31894 0.52942 0.0
C90 C 0.65251 0.32673 0.51067 0.0
C91 C 0.52983 0.30735 0.58862 0.0
C92 C 0.55151 0.31437 0.42026 0.0
C93 C 0.5446 0.39547 0.51432 0.0
O94 O 0.52161 0.37437 0.51643 0.0
O95 O 0.57789 0.38984 0.50699 0.0
O96 O 0.50103 0.30942 0.56373 0.0
O97 O 0.56013 0.31574 0.57105 0.0
O98 O 0.44548 0.68067 0.42371 0.0
Cd99 Cd 0.42055 0.66341 0.48097 0.0
Cd100 Cd 0.48611 0.67349 0.51816 0.0
O101 O 0.49898 0.69035 0.45419 0.0
O102 O 0.3677 0.66944 0.47079 0.0
O103 O 0.39852 0.69261 0.52524 0.0
C104 C 0.36841 0.68888 0.50349 0.0
C105 C 0.49863 0.69784 0.58692 0.0
C106 C 0.47751 0.69057 0.42011 0.0
C107 C 0.4605 0.60948 0.5136 0.0
O108 O 0.48532 0.62779 0.52424 0.0
O109 O 0.43098 0.61878 0.49625 0.0
O110 O 0.52392 0.68549 0.56316 0.0
O111 O 0.46638 0.69823 0.56994 0.0
C112 C 0.96463 0.95847 0.01839 0.0
C113 C 0.98141 0.9361 0.99242 0.0
C114 C 0.97725 0.98806 0.01725 0.0
C115 C 1.00659 0.99562 0.9883 0.0
C116 C 0.02264 0.97329 0.96058 0.0
C117 C 1.01027 0.9437 0.96359 0.0
C118 C 0.95997 0.01101 0.04821 0.0
C119 C 0.05314 0.9806 0.92813 0.0
C120 C 0.01729 0.0784 0.96255 0.0
C121 C 0.04563 0.08639 0.99207 0.0
C122 C 1.00526 0.04871 0.95961 0.0
C123 C 0.02108 0.02669 0.9881 0.0
C124 C 0.04997 0.03463 0.01766 0.0
C125 C 0.06229 0.06431 0.01872 0.0
C126 C 0.97526 0.04099 0.92652 0.0
C127 C 0.06696 0.01203 0.04944 0.0
H128 H 0.94257 0.95259 0.04107 0.0
H129 H 0.02315 0.92644 0.94326 0.0
H130 H 0.98056 0.02031 0.07198 0.0
H131 H 0.94931 0.02985 0.02761 0.0
H132 H 0.93751 1.00151 0.0688 0.0
H133 H 0.06076 0.96122 0.9064 0.0
H134 H 0.04532 0.99944 0.90551 0.0
H135 H 0.07726 0.9878 0.94786 0.0
H136 H 1.00451 0.09544 0.94171 0.0
H137 H 0.08395 0.07051 0.04193 0.0
H138 H 0.95083 0.0341 0.94578 0.0
H139 H 0.98338 0.02185 0.90465 0.0
H140 H 0.96802 0.06009 0.90404 0.0
H141 H 0.04617 1.00306 0.07312 0.0
H142 H 0.08929 0.02173 0.07014 0.0
H143 H 0.07772 0.99292 0.0295 0.0
C144 C 0.06119 0.95684 0.49683 0.0
C145 C 0.04449 0.9347 0.52328 0.0
C146 C 0.04883 0.98651 0.49789 0.0
C147 C 0.01984 0.99437 0.52724 0.0
C148 C 1.00393 0.97229 0.55548 0.0
C149 C 0.01602 0.94262 0.55255 0.0
C150 C 0.06593 0.00918 0.46637 0.0
C151 C 0.97383 0.97993 0.58836 0.0
C152 C 1.00943 0.07734 0.55214 0.0
C153 C 0.98074 0.08513 0.52306 0.0
C154 C 0.02156 0.04768 0.55515 0.0
C155 C 1.00546 0.02548 0.52719 0.0
C156 C 0.97626 0.03322 0.49803 0.0
C157 C 0.96387 0.06288 0.49689 0.0
C158 C 0.0519 0.04018 0.58782 0.0
C159 C 0.95894 0.01041 0.4668 0.0
H160 H 0.08295 0.95071 0.47381 0.0
H161 H 1.0032 0.92554 0.57324 0.0
H162 H 0.04519 0.0183 0.44268 0.0
H163 H 0.07676 0.02819 0.48653 0.0
H164 H 0.08823 0.9995 0.44568 0.0
H165 H 0.96642 0.96076 0.61058 0.0
H166 H 0.98193 0.99897 0.61049 0.0
H167 H 0.9495 0.98697 0.56894 0.0
H168 H 0.02238 0.09451 0.57262 0.0
H169 H 0.94193 0.06891 0.47402 0.0
H170 H 0.07608 0.03304 0.56825 0.0
H171 H 0.04395 0.02126 0.61018 0.0
H172 H 0.05949 0.05946 0.60982 0.0
H173 H 0.97951 1.00118 0.44304 0.0
H174 H 0.93651 0.02002 0.44621 0.0
H175 H 0.94822 0.9915 0.48719 0.0
C176 C 0.57038 0.55959 0.02523 0.0
C177 C 0.55688 0.57994 0.99303 0.0
C178 C 0.55929 0.52953 0.02468 0.0
C179 C 0.53491 0.51952 0.9904 0.0
C180 C 0.52288 0.53968 0.9563 0.0
C181 C 0.5336 0.56971 0.95842 0.0
C182 C 0.57224 0.50887 0.06213 0.0
C183 C 0.49773 0.52979 0.91841 0.0
C184 C 0.52541 0.43571 0.97198 0.0
C185 C 0.49291 0.42956 0.99485 0.0
C186 C 0.53913 0.46493 0.96958 0.0
C187 C 0.52039 0.48846 0.9916 0.0
C188 C 0.48752 0.48237 0.01469 0.0
C189 C 0.47395 0.45307 0.01553 0.0
C190 C 0.57368 0.47061 0.94352 0.0
C191 C 0.46701 0.50673 0.03926 0.0
H192 H 0.58806 0.5675 0.0523 0.0
H193 H 0.52325 0.58539 0.93331 0.0
H194 H 0.54888 0.5016 0.08319 0.0
H195 H 0.58449 0.48852 0.04708 0.0
H196 H 0.59241 0.51969 0.08498 0.0
H197 H 0.49378 0.54741 0.89209 0.0
H198 H 0.50845 0.50947 0.9014 0.0
H199 H 0.47099 0.52395 0.93302 0.0
H200 H 0.5401 0.41763 0.95573 0.0
H201 H 0.44902 0.44841 0.03363 0.0
H202 H 0.59466 0.47944 0.96709 0.0
H203 H 0.56905 0.48779 0.91677 0.0
H204 H 0.58425 0.45009 0.92685 0.0
H205 H 0.48466 0.51737 0.06538 0.0
H206 H 0.44234 0.49821 0.05651 0.0
H207 H 0.45895 0.52437 0.01462 0.0
C208 C 0.55059 0.44994 0.4965 0.0
C209 C 0.53188 0.42675 0.5183 0.0
C210 C 0.53715 0.4793 0.49697 0.0
C211 C 0.50471 0.48576 0.52082 0.0
C212 C 0.48627 0.46255 0.54396 0.0
C213 C 0.49982 0.43327 0.54191 0.0
C214 C 0.55731 0.50331 0.4712 0.0
C215 C 0.45221 0.46864 0.57083 0.0
C216 C 0.49181 0.56731 0.55284 0.0
C217 C 0.46778 0.57715 0.51881 0.0
C218 C 0.50284 0.53736 0.55504 0.0
C219 C 0.4903 0.51687 0.52165 0.0
C220 C 0.46525 0.52649 0.48792 0.0
C221 C 0.45392 0.55648 0.48726 0.0
C222 C 0.52875 0.52789 0.59233 0.0
C223 C 0.45173 0.50545 0.45125 0.0
H224 H 0.57518 0.44498 0.47783 0.0
H225 H 0.48535 0.41544 0.55904 0.0
H226 H 0.53926 0.51362 0.44525 0.0
H227 H 0.5658 0.52125 0.49513 0.0
H228 H 0.58168 0.49452 0.45355 0.0
H229 H 0.44186 0.44835 0.58832 0.0
H230 H 0.45737 0.48613 0.59701 0.0
H231 H 0.43085 0.47724 0.54763 0.0
H232 H 0.50244 0.58321 0.57746 0.0
H233 H 0.43566 0.56407 0.46063 0.0
H234 H 0.55514 0.52177 0.57698 0.0
H235 H 0.51829 0.50782 0.61025 0.0
H236 H 0.53333 0.54583 0.61803 0.0
H237 H 0.47475 0.49787 0.42986 0.0
H238 H 0.43129 0.51606 0.42859 0.0
H239 H 0.43959 0.48531 0.46706 0.0
C240 C 0.01702 0.22522 0.15292 0.0
C241 C 0.04507 0.2051 0.14326 0.0
C242 C 1.00506 0.2297 0.19826 0.0
C243 C 0.02087 0.21307 0.23443 0.0
C244 C 0.0502 0.19377 0.22501 0.0
C245 C 0.06217 0.19032 0.17978 0.0
C246 C 0.97448 0.25119 0.20714 0.0
C247 C 0.06745 0.17511 0.26225 0.0
C248 C 1.00656 0.22532 0.36236 0.0
C249 C 0.98019 0.20371 0.37195 0.0
C250 C 0.01836 0.23028 0.31708 0.0
C251 C 1.0042 0.21259 0.28093 0.0
C252 C 0.97663 0.19158 0.29032 0.0
C253 C 0.9647 0.18769 0.33547 0.0
C254 C 0.04696 0.25356 0.30821 0.0
C255 C 0.96127 0.17174 0.25313 0.0
H256 H 1.0039 0.23697 0.12503 0.0
H257 H 0.0839 0.17474 0.17286 0.0
H258 H 0.94936 0.23852 0.21428 0.0
H259 H 0.98034 0.26515 0.23773 0.0
H260 H 0.96945 0.26605 0.17733 0.0
H261 H 0.09137 0.16254 0.24975 0.0
H262 H 0.07598 0.18943 0.29134 0.0
H263 H 0.04743 0.15887 0.27565 0.0
H264 H 0.01841 0.238 0.39026 0.0
H265 H 0.94434 0.1709 0.3424 0.0
H266 H 0.03986 0.2671 0.27765 0.0
H267 H 0.07313 0.24244 0.30101 0.0
H268 H 0.05068 0.26871 0.33803 0.0
H269 H 0.95134 0.1854 0.22405 0.0
H270 H 0.93867 0.15762 0.26566 0.0
H271 H 0.98282 0.15689 0.23971 0.0
C272 C 0.01635 0.79596 0.36247 0.0
C273 C 0.04449 0.81601 0.37219 0.0
C274 C 1.00428 0.79154 0.31712 0.0
C275 C 0.02008 0.80815 0.28097 0.0
C276 C 0.0495 0.82738 0.29044 0.0
C277 C 0.06156 0.83078 0.3357 0.0
C278 C 0.97361 0.77011 0.3082 0.0
C279 C 0.06676 0.84601 0.25323 0.0
C280 C 1.00557 0.79583 0.153 0.0
C281 C 0.97925 0.81748 0.14331 0.0
C282 C 0.01742 0.7909 0.19831 0.0
C283 C 1.00336 0.80864 0.23441 0.0
C284 C 0.97583 0.82968 0.22493 0.0
C285 C 0.96385 0.83354 0.17975 0.0
C286 C 0.04597 0.76758 0.20726 0.0
C287 C 0.96056 0.84956 0.26207 0.0
H288 H 1.00322 0.78422 0.39034 0.0
H289 H 0.08336 0.84631 0.34265 0.0
H290 H 0.94853 0.78284 0.30102 0.0
H291 H 0.97938 0.75614 0.27763 0.0
H292 H 0.96856 0.75526 0.33801 0.0
H293 H 0.09073 0.85854 0.26577 0.0
H294 H 0.07522 0.83167 0.22417 0.0
H295 H 0.04676 0.86228 0.23979 0.0
H296 H 0.01737 0.78312 0.12515 0.0
H297 H 0.94352 0.85036 0.17276 0.0
H298 H 0.03886 0.75407 0.23783 0.0
H299 H 0.07217 0.77866 0.21448 0.0
H300 H 0.04961 0.75241 0.17747 0.0
H301 H 0.95062 0.83594 0.29116 0.0
H302 H 0.93799 0.86372 0.24947 0.0
H303 H 0.98216 0.86439 0.2755 0.0
C304 C 0.05181 0.82174 0.67045 0.0
C305 C 0.0303 0.80668 0.63833 0.0
C306 C 0.04516 0.81913 0.71761 0.0
C307 C 0.01736 0.79991 0.73317 0.0
C308 C 0.99731 0.78293 0.70091 0.0
C309 C 1.00337 0.78714 0.65371 0.0
C310 C 0.06627 0.83857 0.75048 0.0
C311 C 0.96866 0.76114 0.71615 0.0
C312 C 0.02052 0.78759 0.86224 0.0
C313 C 0.99406 0.80768 0.87732 0.0
C314 C 0.02657 0.78303 0.8151 0.0
C315 C 1.00705 0.80018 0.7826 0.0
C316 C 0.97975 0.82 0.79787 0.0
C317 C 0.97306 0.82296 0.84498 0.0
C318 C 0.05464 0.76063 0.80018 0.0
C319 C 0.95923 0.83963 0.76474 0.0
H320 H 0.07234 0.83717 0.65855 0.0
H321 H 0.9868 0.77541 0.62884 0.0
H322 H 0.04758 0.85414 0.76822 0.0
H323 H 0.07941 0.82471 0.77717 0.0
H324 H 0.08742 0.85191 0.73289 0.0
H325 H 0.96027 0.74598 0.6879 0.0
H326 H 0.97861 0.74749 0.7453 0.0
H327 H 0.9445 0.7735 0.72814 0.0
H328 H 0.03668 0.77569 0.88729 0.0
H329 H 0.9529 0.83881 0.85665 0.0
H330 H 0.07912 0.77247 0.78799 0.0
H331 H 0.04432 0.74694 0.77123 0.0
H332 H 0.06265 0.74553 0.82864 0.0
H333 H 0.97837 0.85465 0.74672 0.0
H334 H 0.93851 0.85354 0.78215 0.0
H335 H 0.94562 0.82583 0.73829 0.0
C336 C 1.00392 0.23386 0.86161 0.0
C337 C 0.03077 0.21426 0.87711 0.0
C338 C 0.99793 0.23807 0.81438 0.0
C339 C 0.01794 0.22105 0.78223 0.0
C340 C 0.04565 0.20175 0.79792 0.0
C341 C 0.05224 0.19915 0.84511 0.0
C342 C 0.96938 0.25994 0.799 0.0
C343 C 0.06671 0.18225 0.76516 0.0
C344 C 0.97371 0.19814 0.67018 0.0
C345 C 0.99482 0.21338 0.63798 0.0
C346 C 0.98034 0.20107 0.71732 0.0
C347 C 1.00771 0.22082 0.73275 0.0
C348 C 0.02736 0.23792 0.70037 0.0
C349 C 0.02136 0.23338 0.6532 0.0
C350 C 0.9597 0.18149 0.75034 0.0
C351 C 0.05552 0.26024 0.71547 0.0
H352 H 0.98738 0.24563 0.8864 0.0
H353 H 0.07271 0.18367 0.85711 0.0
H354 H 0.97944 0.27358 0.76993 0.0
H355 H 0.9452 0.24763 0.78683 0.0
H356 H 0.96099 0.2751 0.82722 0.0
H357 H 0.08777 0.16885 0.78286 0.0
H358 H 0.04797 0.16675 0.7473 0.0
H359 H 0.07996 0.19608 0.73855 0.0
H360 H 0.95349 0.18236 0.65839 0.0
H361 H 0.03761 0.24525 0.62825 0.0
H362 H 0.94613 0.1953 0.77673 0.0
H363 H 0.97875 0.1664 0.76843 0.0
H364 H 0.93894 0.16764 0.73281 0.0
H365 H 0.04521 0.27395 0.74436 0.0
H366 H 0.06364 0.27532 0.68706 0.0
H367 H 0.07992 0.24832 0.72779 0.0
C368 C 0.50054 0.68936 0.15402 0.0
C369 C 0.53261 0.70185 0.13741 0.0
C370 C 0.49149 0.69158 0.20062 0.0
C371 C 0.51444 0.70766 0.23078 0.0
C372 C 0.54532 0.72239 0.21322 0.0
C373 C 0.55453 0.71869 0.16687 0.0
C374 C 0.45893 0.67478 0.21811 0.0
C375 C 0.56957 0.74082 0.24379 0.0
C376 C 0.47433 0.72113 0.34891 0.0
C377 C 0.49085 0.69841 0.37431 0.0
C378 C 0.48347 0.72575 0.3027 0.0
C379 C 0.50825 0.70616 0.28113 0.0
C380 C 0.52544 0.68352 0.30717 0.0
C381 C 0.51699 0.68031 0.35376 0.0
C382 C 0.4658 0.75094 0.27666 0.0
C383 C 0.55115 0.66154 0.28527 0.0
H384 H 0.48389 0.67601 0.13126 0.0
H385 H 0.57932 0.72839 0.15385 0.0
H386 H 0.4679 0.65674 0.24159 0.0
H387 H 0.44108 0.68983 0.23801 0.0
H388 H 0.4429 0.6646 0.18989 0.0
H389 H 0.58859 0.75482 0.22366 0.0
H390 H 0.55324 0.75555 0.26631 0.0
H391 H 0.58561 0.72588 0.26625 0.0
H392 H 0.45393 0.73496 0.36505 0.0
H393 H 0.52919 0.66243 0.37348 0.0
H394 H 0.44584 0.74176 0.25201 0.0
H395 H 0.48625 0.76347 0.25659 0.0
H396 H 0.4516 0.76673 0.29987 0.0
H397 H 0.53691 0.64893 0.2579 0.0
H398 H 0.5623 0.64535 0.31041 0.0
H399 H 0.57395 0.67352 0.26893 0.0
C400 C 0.51308 0.28709 0.36241 0.0
C401 C 0.54296 0.30526 0.37249 0.0
C402 C 0.50184 0.28259 0.31679 0.0
C403 C 0.52047 0.29711 0.28072 0.0
C404 C 0.55203 0.31377 0.29055 0.0
C405 C 0.56306 0.31735 0.33616 0.0
C406 C 0.46876 0.26384 0.3075 0.0
C407 C 0.57251 0.32999 0.25333 0.0
C408 C 0.5049 0.28612 0.15278 0.0
C409 C 0.48179 0.31012 0.14303 0.0
C410 C 0.51582 0.28011 0.19813 0.0
C411 C 0.50424 0.29913 0.23408 0.0
C412 C 0.47991 0.32269 0.22449 0.0
C413 C 0.46866 0.32761 0.1793 0.0
C414 C 0.54078 0.25416 0.20727 0.0
C415 C 0.46743 0.34396 0.26151 0.0
H416 H 0.49763 0.27732 0.39015 0.0
H417 H 0.58643 0.33118 0.34338 0.0
H418 H 0.44539 0.27864 0.30039 0.0
H419 H 0.47286 0.24953 0.27686 0.0
H420 H 0.46185 0.24943 0.33722 0.0
H421 H 0.59821 0.33979 0.26608 0.0
H422 H 0.57877 0.31467 0.22454 0.0
H423 H 0.55549 0.34828 0.23945 0.0
H424 H 0.51486 0.27232 0.12498 0.0
H425 H 0.45085 0.34625 0.17218 0.0
H426 H 0.53198 0.24169 0.23817 0.0
H427 H 0.56847 0.26258 0.21397 0.0
H428 H 0.54193 0.23851 0.17772 0.0
H429 H 0.45517 0.33144 0.29032 0.0
H430 H 0.44734 0.36039 0.24867 0.0
H431 H 0.49098 0.3564 0.2754 0.0
C432 C 0.47519 0.31672 0.84589 0.0
C433 C 0.49685 0.30155 0.87766 0.0
C434 C 0.48077 0.31345 0.79863 0.0
C435 C 0.50768 0.2935 0.78269 0.0
C436 C 0.52789 0.27649 0.81467 0.0
C437 C 0.52287 0.28128 0.86192 0.0
C438 C 0.45951 0.33288 0.76597 0.0
C439 C 0.55564 0.25401 0.79901 0.0
C440 C 0.50119 0.28004 0.65421 0.0
C441 C 0.52754 0.29975 0.63776 0.0
C442 C 0.49626 0.27591 0.70161 0.0
C443 C 0.51695 0.29304 0.733 0.0
C444 C 0.54426 0.31235 0.71636 0.0
C445 C 0.54971 0.31496 0.66898 0.0
C446 C 0.46806 0.25408 0.71803 0.0
C447 C 0.56605 0.33189 0.74836 0.0
H448 H 0.45532 0.33266 0.85803 0.0
H449 H 0.53951 0.26943 0.88653 0.0
H450 H 0.47823 0.34789 0.74721 0.0
H451 H 0.44546 0.31894 0.74009 0.0
H452 H 0.43909 0.34681 0.7839 0.0
H453 H 0.56431 0.23908 0.82736 0.0
H454 H 0.54468 0.24017 0.77063 0.0
H455 H 0.57981 0.26581 0.78578 0.0
H456 H 0.48415 0.26816 0.63004 0.0
H457 H 0.56985 0.33047 0.6563 0.0
H458 H 0.44414 0.26643 0.73086 0.0
H459 H 0.47872 0.24053 0.74688 0.0
H460 H 0.45906 0.23884 0.69019 0.0
H461 H 0.54776 0.34757 0.76652 0.0
H462 H 0.58688 0.34512 0.72997 0.0
H463 H 0.57968 0.31812 0.77477 0.0
C464 C 0.49004 0.69356 0.85179 0.0
C465 C 0.51679 0.70867 0.87671 0.0
C466 C 0.48704 0.69699 0.8042 0.0
C467 C 0.51049 0.71694 0.78114 0.0
C468 C 0.53556 0.73415 0.8067 0.0
C469 C 0.539 0.72931 0.85418 0.0
C470 C 0.46066 0.67748 0.77828 0.0
C471 C 0.55987 0.75662 0.78368 0.0
C472 C 0.53249 0.69277 0.65999 0.0
C473 C 0.50547 0.70726 0.63472 0.0
C474 C 0.53541 0.69677 0.7075 0.0
C475 C 0.51158 0.71666 0.7301 0.0
C476 C 0.48617 0.73324 0.70413 0.0
C477 C 0.48285 0.72784 0.65678 0.0
C478 C 0.56216 0.67792 0.73387 0.0
C479 C 0.46141 0.75562 0.72664 0.0
H480 H 0.47299 0.67739 0.86902 0.0
H481 H 0.55956 0.74118 0.87344 0.0
H482 H 0.44288 0.6913 0.75627 0.0
H483 H 0.47573 0.66206 0.75543 0.0
H484 H 0.44342 0.66397 0.80152 0.0
H485 H 0.57244 0.7721 0.80886 0.0
H486 H 0.58179 0.74482 0.76517 0.0
H487 H 0.54453 0.76988 0.75808 0.0
H488 H 0.54985 0.67666 0.64314 0.0
H489 H 0.46207 0.73923 0.63724 0.0
H490 H 0.5474 0.66256 0.75709 0.0
H491 H 0.57968 0.69223 0.75553 0.0
H492 H 0.57966 0.66439 0.71095 0.0
H493 H 0.43973 0.74372 0.74542 0.0
H494 H 0.44854 0.77065 0.7011 0.0
H495 H 0.47648 0.76937 0.75192 0.0
C496 C 0.30808 0.31678 0.02348 0.0
C497 C 0.33901 0.3119 0.99678 0.0
C498 C 0.27822 0.29748 0.02076 0.0
C499 C 0.27918 0.27279 0.99035 0.0
C500 C 0.30958 0.26862 0.96164 0.0
C501 C 0.33917 0.28815 0.96531 0.0
C502 C 0.24632 0.30272 0.05199 0.0
C503 C 0.31149 0.24281 0.92841 0.0
C504 C 0.22175 0.20607 0.02462 0.0
C505 C 0.19047 0.21038 0.99823 0.0
C506 C 0.25115 0.2258 0.02147 0.0
C507 C 0.2494 0.25034 0.99094 0.0
C508 C 0.21855 0.2541 0.96279 0.0
C509 C 0.1894 0.23414 0.96688 0.0
C510 C 0.28355 0.22099 0.05213 0.0
C511 C 0.21581 0.27976 0.92945 0.0
H512 H 0.30771 0.33502 0.04792 0.0
H513 H 0.36291 0.28424 0.94441 0.0
H514 H 0.22091 0.30332 0.0318 0.0
H515 H 0.24402 0.284 0.0767 0.0
H516 H 0.24877 0.32391 0.07158 0.0
H517 H 0.33539 0.24429 0.90551 0.0
H518 H 0.313 0.22151 0.9477 0.0
H519 H 0.28672 0.24196 0.90699 0.0
H520 H 0.22283 0.18783 0.04898 0.0
H521 H 0.16538 0.23762 0.94626 0.0
H522 H 0.28632 0.24008 0.07617 0.0
H523 H 0.3086 0.22004 0.03135 0.0
H524 H 0.28142 0.2001 0.07247 0.0
H525 H 0.21481 0.30116 0.94861 0.0
H526 H 0.19137 0.27819 0.90743 0.0
H527 H 0.24006 0.28049 0.90715 0.0
C528 C 0.68576 0.7343 0.96641 0.0
C529 C 0.68709 0.71146 0.99932 0.0
C530 C 0.71446 0.75467 0.96159 0.0
C531 C 0.7451 0.75223 0.99051 0.0
C532 C 0.74711 0.72857 0.0226 0.0
C533 C 0.71818 0.70848 0.02652 0.0
C534 C 0.71146 0.77939 0.92667 0.0
C535 C 0.77928 0.72511 0.05409 0.0
C536 C 0.83479 0.7904 0.9658 0.0
C537 C 0.83382 0.81458 0.99645 0.0
C538 C 0.80539 0.77069 0.96179 0.0
C539 C 0.77433 0.77515 0.98926 0.0
C540 C 0.77253 0.80033 0.01861 0.0
C541 C 0.80223 0.81977 0.02176 0.0
C542 C 0.80826 0.74429 0.92977 0.0
C543 C 0.73993 0.80592 0.04851 0.0
H544 H 0.66187 0.73678 0.94521 0.0
H545 H 0.71952 0.69092 0.052 0.0
H546 H 0.70955 0.80123 0.94449 0.0
H547 H 0.73601 0.78006 0.9049 0.0
H548 H 0.6874 0.77674 0.90422 0.0
H549 H 0.77743 0.70475 0.07568 0.0
H550 H 0.80458 0.72403 0.03381 0.0
H551 H 0.78134 0.74485 0.07697 0.0
H552 H 0.85902 0.78626 0.94595 0.0
H553 H 0.80118 0.83839 0.04548 0.0
H554 H 0.78372 0.74255 0.90805 0.0
H555 H 0.81019 0.72342 0.95007 0.0
H556 H 0.83233 0.74578 0.90716 0.0
H557 H 0.71488 0.80554 0.02759 0.0
H558 H 0.74153 0.82767 0.06674 0.0
H559 H 0.73762 0.78788 0.07439 0.0
C560 C 0.22197 0.81683 0.49232 0.0
C561 C 0.1905 0.81181 0.51794 0.0
C562 C 0.25149 0.79718 0.49498 0.0
C563 C 0.24962 0.77195 0.52415 0.0
C564 C 0.21869 0.76763 0.55189 0.0
C565 C 0.18947 0.78755 0.54838 0.0
C566 C 0.28395 0.80263 0.4648 0.0
C567 C 0.21576 0.74119 0.58374 0.0
C568 C 0.30525 0.70516 0.48594 0.0
C569 C 0.33651 0.70803 0.51286 0.0
C570 C 0.27641 0.72531 0.49029 0.0
C571 C 0.27869 0.7489 0.52253 0.0
C572 C 0.3095 0.75122 0.55118 0.0
C573 C 0.3381 0.73079 0.54593 0.0
C574 C 0.24404 0.72198 0.45908 0.0
C575 C 0.31281 0.77587 0.58625 0.0
H576 H 0.22307 0.8355 0.46875 0.0
H577 H 0.16533 0.78353 0.56845 0.0
H578 H 0.30911 0.80214 0.48548 0.0
H579 H 0.28599 0.78458 0.43884 0.0
H580 H 0.28239 0.82439 0.44665 0.0
H581 H 0.19181 0.74274 0.60654 0.0
H582 H 0.21359 0.72036 0.56329 0.0
H583 H 0.24039 0.73928 0.60525 0.0
H584 H 0.3037 0.68765 0.46033 0.0
H585 H 0.36212 0.73319 0.56692 0.0
H586 H 0.24199 0.74174 0.43628 0.0
H587 H 0.21885 0.721 0.47957 0.0
H588 H 0.24564 0.70162 0.4374 0.0
H589 H 0.31477 0.79773 0.56856 0.0
H590 H 0.33696 0.77309 0.6085 0.0
H591 H 0.28837 0.77659 0.60821 0.0
C592 C 0.68624 0.28593 0.55101 0.0
C593 C 0.68604 0.30939 0.51911 0.0
C594 C 0.71598 0.26656 0.55469 0.0
C595 C 0.74615 0.27059 0.52555 0.0
C596 C 0.74677 0.29503 0.49474 0.0
C597 C 0.71678 0.31418 0.49201 0.0
C598 C 0.71443 0.24101 0.58836 0.0
C599 C 0.77842 0.30014 0.46307 0.0
C600 C 0.83632 0.23245 0.54839 0.0
C601 C 0.83514 0.20849 0.51734 0.0
C602 C 0.80708 0.25231 0.55262 0.0
C603 C 0.77602 0.24823 0.52493 0.0
C604 C 0.77417 0.22347 0.49475 0.0
C605 C 0.80367 0.20387 0.49144 0.0
C606 C 0.80995 0.27822 0.58557 0.0
C607 C 0.74154 0.21831 0.4646 0.0
H608 H 0.66266 0.2821 0.57222 0.0
H609 H 0.71688 0.3322 0.46723 0.0
H610 H 0.7128 0.21955 0.56943 0.0
H611 H 0.7394 0.24037 0.60943 0.0
H612 H 0.69073 0.24264 0.61158 0.0
H613 H 0.77575 0.32118 0.44321 0.0
H614 H 0.80398 0.30096 0.48294 0.0
H615 H 0.78061 0.28125 0.43858 0.0
H616 H 0.86048 0.23618 0.56864 0.0
H617 H 0.8025 0.18546 0.46732 0.0
H618 H 0.78586 0.27905 0.60813 0.0
H619 H 0.81074 0.29948 0.5661 0.0
H620 H 0.83455 0.27687 0.60734 0.0
H621 H 0.71666 0.21745 0.48573 0.0
H622 H 0.7436 0.19727 0.44457 0.0
H623 H 0.73849 0.2372 0.4403 0.0
loop_
_geom_bond_atom_site_label_1
_geom_bond_atom_site_label_2
_geom_bond_distance
_geom_bond_site_symmetry_2
_ccdc_geom_bond_type
O0 Cd1 2.223 . S
O0 C8 1.315 . S
Cd1 O0 2.223 . S
Cd1 O4 2.297 . S
Cd1 O5 2.439 . S
Cd1 O11 2.240 . S
Cd2 O3 2.240 1_556 S
Cd2 O10 2.223 1_556 S
Cd2 O12 2.297 1_455 S
Cd2 O13 2.439 . S
O3 Cd2 2.240 1_554 S
O3 C8 1.279 . S
O4 Cd1 2.297 . S
O4 C6 1.247 . S
O5 Cd1 2.439 . S
O5 C6 1.208 . S
C6 O4 1.247 . S
C6 O5 1.208 . S
C7 O12 1.247 1_455 S
C7 O13 1.208 . S
C8 O0 1.315 . S
C8 O3 1.279 . S
C9 O10 1.318 . S
C9 O11 1.279 . S
O10 Cd2 2.223 1_554 S
O10 C9 1.318 . S
O11 Cd1 2.240 . S
O11 C9 1.279 . S
O12 Cd2 2.297 1_655 S
O12 C7 1.247 1_655 S
O13 Cd2 2.439 . S
O13 C7 1.208 . S
O14 Cd15 2.223 . S
O14 C22 1.315 . S
Cd15 O14 2.223 . S
Cd15 O18 2.297 . S
Cd15 O19 2.439 . S
Cd15 O25 2.240 . S
Cd16 O17 2.240 1_556 S
Cd16 O24 2.223 1_556 S
Cd16 O26 2.297 1_655 S
Cd16 O27 2.439 . S
O17 Cd16 2.240 1_554 S
O17 C22 1.279 . S
O18 Cd15 2.297 . S
O18 C20 1.247 . S
O19 Cd15 2.439 . S
O19 C20 1.208 . S
C20 O18 1.247 . S
C20 O19 1.208 . S
C21 O26 1.247 1_655 S
C21 O27 1.208 . S
C22 O14 1.315 . S
C22 O17 1.279 . S
C23 O24 1.318 . S
C23 O25 1.279 . S
O24 Cd16 2.223 1_554 S
O24 C23 1.318 . S
O25 Cd15 2.240 . S
O25 C23 1.279 . S
O26 Cd16 2.297 1_455 S
O26 C21 1.247 1_455 S
O27 Cd16 2.439 . S
O27 C21 1.208 . S
O28 Cd29 2.223 . S
O28 C36 1.315 . S
Cd29 O28 2.223 . S
Cd29 O32 2.297 . S
Cd29 O33 2.439 . S
Cd29 O39 2.240 . S
Cd30 O31 2.240 . S
Cd30 O38 2.223 . S
Cd30 O40 2.297 1_455 S
Cd30 O41 2.439 . S
O31 Cd30 2.240 . S
O31 C36 1.279 . S
O32 Cd29 2.297 . S
O32 C34 1.247 . S
O33 Cd29 2.439 . S
O33 C34 1.208 . S
C34 O32 1.247 . S
C34 O33 1.208 . S
C35 O40 1.247 1_455 S
C35 O41 1.208 . S
C36 O28 1.315 . S
C36 O31 1.279 . S
C37 O38 1.318 . S
C37 O39 1.279 . S
O38 Cd30 2.223 . S
O38 C37 1.318 . S
O39 Cd29 2.240 . S
O39 C37 1.279 . S
O40 Cd30 2.297 1_655 S
O40 C35 1.247 1_655 S
O41 Cd30 2.439 . S
O41 C35 1.208 . S
O42 Cd43 2.223 . S
O42 C50 1.315 . S
Cd43 O42 2.223 . S
Cd43 O46 2.297 . S
Cd43 O47 2.439 . S
Cd43 O53 2.240 . S
Cd44 O45 2.240 . S
Cd44 O52 2.223 . S
Cd44 O54 2.297 1_655 S
Cd44 O55 2.439 . S
O45 Cd44 2.240 . S
O45 C50 1.279 . S
O46 Cd43 2.297 . S
O46 C48 1.247 . S
O47 Cd43 2.439 . S
O47 C48 1.208 . S
C48 O46 1.247 . S
C48 O47 1.208 . S
C49 O54 1.247 1_655 S
C49 O55 1.208 . S
C50 O42 1.315 . S
C50 O45 1.279 . S
C51 O52 1.318 . S
C51 O53 1.279 . S
O52 Cd44 2.223 . S
O52 C51 1.318 . S
O53 Cd43 2.240 . S
O53 C51 1.279 . S
O54 Cd44 2.297 1_455 S
O54 C49 1.247 1_455 S
O55 Cd44 2.439 . S
O55 C49 1.208 . S
O56 Cd57 2.223 . S
O56 C64 1.315 . S
Cd57 O56 2.223 . S
Cd57 O60 2.297 . S
Cd57 O61 2.439 . S
Cd57 O67 2.240 . S
Cd58 O59 2.240 1_556 S
Cd58 O66 2.223 1_556 S
Cd58 O68 2.297 . S
Cd58 O69 2.439 . S
O59 Cd58 2.240 1_554 S
O59 C64 1.279 . S
O60 Cd57 2.297 . S
O60 C62 1.247 . S
O61 Cd57 2.439 . S
O61 C62 1.208 . S
C62 O60 1.247 . S
C62 O61 1.208 . S
C63 O68 1.247 . S
C63 O69 1.208 . S
C64 O56 1.315 . S
C64 O59 1.279 . S
C65 O66 1.315 . S
C65 O67 1.279 . S
O66 Cd58 2.223 1_554 S
O66 C65 1.315 . S
O67 Cd57 2.240 . S
O67 C65 1.279 . S
O68 Cd58 2.297 . S
O68 C63 1.247 . S
O69 Cd58 2.439 . S
O69 C63 1.208 . S
O70 Cd71 2.223 . S
O70 C78 1.315 . S
Cd71 O70 2.223 . S
Cd71 O74 2.297 . S
Cd71 O75 2.439 . S
Cd71 O81 2.240 . S
Cd72 O73 2.240 1_556 S
Cd72 O80 2.223 1_556 S
Cd72 O82 2.297 . S
Cd72 O83 2.439 . S
O73 Cd72 2.240 1_554 S
O73 C78 1.279 . S
O74 Cd71 2.297 . S
O74 C76 1.247 . S
O75 Cd71 2.439 . S
O75 C76 1.208 . S
C76 O74 1.247 . S
C76 O75 1.208 . S
C77 O82 1.247 . S
C77 O83 1.208 . S
C78 O70 1.315 . S
C78 O73 1.279 . S
C79 O80 1.315 . S
C79 O81 1.279 . S
O80 Cd72 2.223 1_554 S
O80 C79 1.315 . S
O81 Cd71 2.240 . S
O81 C79 1.279 . S
O82 Cd72 2.297 . S
O82 C77 1.247 . S
O83 Cd72 2.439 . S
O83 C77 1.208 . S
O84 Cd85 2.223 . S
O84 C92 1.315 . S
Cd85 O84 2.223 . S
Cd85 O88 2.297 . S
Cd85 O89 2.439 . S
Cd85 O95 2.240 . S
Cd86 O87 2.240 . S
Cd86 O94 2.223 . S
Cd86 O96 2.297 . S
Cd86 O97 2.439 . S
O87 Cd86 2.240 . S
O87 C92 1.279 . S
O88 Cd85 2.297 . S
O88 C90 1.247 . S
O89 Cd85 2.439 . S
O89 C90 1.208 . S
C90 O88 1.247 . S
C90 O89 1.208 . S
C91 O96 1.247 . S
C91 O97 1.208 . S
C92 O84 1.315 . S
C92 O87 1.279 . S
C93 O94 1.315 . S
C93 O95 1.279 . S
O94 Cd86 2.223 . S
O94 C93 1.315 . S
O95 Cd85 2.240 . S
O95 C93 1.279 . S
O96 Cd86 2.297 . S
O96 C91 1.247 . S
O97 Cd86 2.439 . S
O97 C91 1.208 . S
O98 Cd99 2.223 . S
O98 C106 1.315 . S
Cd99 O98 2.223 . S
Cd99 O102 2.297 . S
Cd99 O103 2.439 . S
Cd99 O109 2.240 . S
Cd100 O101 2.240 . S
Cd100 O108 2.223 . S
Cd100 O110 2.297 . S
Cd100 O111 2.439 . S
O101 Cd100 2.240 . S
O101 C106 1.279 . S
O102 Cd99 2.297 . S
O102 C104 1.247 . S
O103 Cd99 2.439 . S
O103 C104 1.208 . S
C104 O102 1.247 . S
C104 O103 1.208 . S
C105 O110 1.247 . S
C105 O111 1.208 . S
C106 O98 1.315 . S
C106 O101 1.279 . S
C107 O108 1.315 . S
C107 O109 1.279 . S
O108 Cd100 2.223 . S
O108 C107 1.315 . S
O109 Cd99 2.240 . S
O109 C107 1.279 . S
O110 Cd100 2.297 . S
O110 C105 1.247 . S
O111 Cd100 2.439 . S
O111 C105 1.208 . S
C112 C113 1.391 . S
C112 C114 1.394 . S
C112 H128 0.931 . S
C113 C112 1.391 . S
C113 C117 1.376 1_655 S
C114 C112 1.394 . S
C114 C115 1.369 . S
C114 C118 1.543 . S
C115 C114 1.369 . S
C115 C116 1.410 1_655 S
C115 C123 1.503 1_665 S
C116 C115 1.410 1_455 S
C116 C117 1.392 . S
C116 C119 1.511 . S
C117 C113 1.376 1_455 S
C117 C116 1.392 . S
C117 H129 0.929 . S
C118 C114 1.543 . S
C118 H130 0.947 1_565 S
C118 H131 0.955 1_565 S
C118 H132 0.968 . S
C119 C116 1.511 . S
C119 H133 0.961 1_554 S
C119 H134 0.961 1_554 S
C119 H135 0.961 . S
C120 C121 1.370 1_556 S
C120 C122 1.363 . S
C120 H136 0.931 . S
C121 C120 1.370 1_554 S
C121 C125 1.408 . S
C122 C120 1.363 . S
C122 C123 1.370 1_556 S
C122 C126 1.524 1_455 S
C123 C115 1.503 1_445 S
C123 C122 1.370 1_554 S
C123 C124 1.403 . S
C124 C123 1.403 . S
C124 C125 1.404 . S
C124 C127 1.539 . S
C125 C121 1.408 . S
C125 C124 1.404 . S
C125 H137 0.930 . S
C126 C122 1.524 1_655 S
C126 H138 0.956 . S
C126 H139 0.933 1_545 S
C126 H140 0.961 . S
C127 C124 1.539 . S
C127 H141 0.958 . S
C127 H142 0.961 . S
C127 H143 0.960 1_545 S
H128 C112 0.931 . S
H129 C117 0.929 . S
H130 C118 0.947 1_545 S
H131 C118 0.955 1_545 S
H132 C118 0.968 . S
H133 C119 0.961 1_556 S
H134 C119 0.961 1_556 S
H135 C119 0.961 . S
H136 C120 0.931 . S
H137 C125 0.930 . S
H138 C126 0.956 . S
H139 C126 0.933 1_565 S
H140 C126 0.961 . S
H141 C127 0.958 . S
H142 C127 0.961 . S
H143 C127 0.960 1_565 S
C144 C145 1.391 . S
C144 C146 1.394 . S
C144 H160 0.931 . S
C145 C144 1.391 . S
C145 C149 1.376 1_455 S
C146 C144 1.394 . S
C146 C147 1.369 . S
C146 C150 1.531 . S
C147 C146 1.369 . S
C147 C148 1.410 1_455 S
C147 C155 1.503 1_465 S
C148 C147 1.410 1_655 S
C148 C149 1.392 . S
C148 C151 1.511 . S
C149 C145 1.376 1_655 S
C149 C148 1.392 . S
C149 H161 0.929 . S
C150 C146 1.531 . S
C150 H162 0.960 1_565 S
C150 H163 0.962 1_565 S
C150 H164 0.960 . S
C151 C148 1.511 . S
C151 H165 0.961 . S
C151 H166 0.961 . S
C151 H167 0.961 . S
C152 C153 1.370 . S
C152 C154 1.363 1_655 S
C152 H168 0.931 1_655 S
C153 C152 1.370 . S
C153 C157 1.408 . S
C154 C152 1.363 1_455 S
C154 C155 1.370 1_455 S
C154 C158 1.524 . S
C155 C147 1.503 1_645 S
C155 C154 1.370 1_655 S
C155 C156 1.403 . S
C156 C155 1.403 . S
C156 C157 1.404 . S
C156 C159 1.539 . S
C157 C153 1.408 . S
C157 C156 1.404 . S
C157 H169 0.930 . S
C158 C154 1.524 . S
C158 H170 0.956 . S
C158 H171 0.961 . S
C158 H172 0.961 . S
C159 C156 1.539 . S
C159 H173 0.958 . S
C159 H174 0.961 . S
C159 H175 0.960 1_545 S
H160 C144 0.931 . S
H161 C149 0.929 . S
H162 C150 0.960 1_545 S
H163 C150 0.962 1_545 S
H164 C150 0.960 . S
H165 C151 0.961 . S
H166 C151 0.961 . S
H167 C151 0.961 . S
H168 C152 0.931 1_455 S
H169 C157 0.930 . S
H170 C158 0.956 . S
H171 C158 0.961 . S
H172 C158 0.961 . S
H173 C159 0.958 . S
H174 C159 0.961 . S
H175 C159 0.960 1_565 S
C176 C177 1.391 . S
C176 C178 1.394 . S
C176 H192 0.931 . S
C177 C176 1.391 . S
C177 C181 1.376 1_554 S
C178 C176 1.394 . S
C178 C179 1.369 . S
C178 C182 1.531 . S
C179 C178 1.369 . S
C179 C180 1.410 1_554 S
C179 C187 1.503 . S
C180 C179 1.410 1_556 S
C180 C181 1.392 . S
C180 C183 1.511 . S
C181 C177 1.376 1_556 S
C181 C180 1.392 . S
C181 H193 0.929 . S
C182 C178 1.531 . S
C182 H194 0.960 . S
C182 H195 0.962 . S
C182 H196 0.960 . S
C183 C180 1.511 . S
C183 H197 0.961 . S
C183 H198 0.961 . S
C183 H199 0.961 . S
C184 C185 1.370 . S
C184 C186 1.363 . S
C184 H200 0.931 1_554 S
C185 C184 1.370 . S
C185 C189 1.408 . S
C186 C184 1.363 . S
C186 C187 1.370 . S
C186 C190 1.524 1_554 S
C187 C179 1.503 . S
C187 C186 1.370 . S
C187 C188 1.403 . S
C188 C187 1.403 . S
C188 C189 1.404 . S
C188 C191 1.539 . S
C189 C185 1.408 . S
C189 C188 1.404 . S
C189 H201 0.930 . S
C190 C186 1.524 1_556 S
C190 H202 0.956 1_556 S
C190 H203 0.961 . S
C190 H204 0.961 . S
C191 C188 1.539 . S
C191 H205 0.958 . S
C191 H206 0.961 . S
C191 H207 0.960 . S
H192 C176 0.931 . S
H193 C181 0.929 . S
H194 C182 0.960 . S
H195 C182 0.962 . S
H196 C182 0.960 . S
H197 C183 0.961 . S
H198 C183 0.961 . S
H199 C183 0.961 . S
H200 C184 0.931 1_556 S
H201 C189 0.930 . S
H202 C190 0.956 1_554 S
H203 C190 0.961 . S
H204 C190 0.961 . S
H205 C191 0.958 . S
H206 C191 0.961 . S
H207 C191 0.960 . S
C208 C209 1.391 . S
C208 C210 1.394 . S
C208 H224 0.931 . S
C209 C208 1.391 . S
C209 C213 1.376 . S
C210 C208 1.394 . S
C210 C211 1.369 . S
C210 C214 1.531 . S
C211 C210 1.369 . S
C211 C212 1.410 . S
C211 C219 1.503 . S
C212 C211 1.410 . S
C212 C213 1.392 . S
C212 C215 1.511 . S
C213 C209 1.376 . S
C213 C212 1.392 . S
C213 H225 0.929 . S
C214 C210 1.531 . S
C214 H226 0.960 . S
C214 H227 0.962 . S
C214 H228 0.960 . S
C215 C212 1.511 . S
C215 H229 0.961 . S
C215 H230 0.961 . S
C215 H231 0.961 . S
C216 C217 1.370 . S
C216 C218 1.363 . S
C216 H232 0.931 . S
C217 C216 1.370 . S
C217 C221 1.408 . S
C218 C216 1.363 . S
C218 C219 1.370 . S
C218 C222 1.524 . S
C219 C211 1.503 . S
C219 C218 1.370 . S
C219 C220 1.403 . S
C220 C219 1.403 . S
C220 C221 1.404 . S
C220 C223 1.539 . S
C221 C217 1.408 . S
C221 C220 1.404 . S
C221 H233 0.930 . S
C222 C218 1.524 . S
C222 H234 0.956 . S
C222 H235 0.961 . S
C222 H236 0.961 . S
C223 C220 1.539 . S
C223 H237 0.958 . S
C223 H238 0.961 . S
C223 H239 0.960 . S
H224 C208 0.931 . S
H225 C213 0.929 . S
H226 C214 0.960 . S
H227 C214 0.962 . S
H228 C214 0.960 . S
H229 C215 0.961 . S
H230 C215 0.961 . S
H231 C215 0.961 . S
H232 C216 0.931 . S
H233 C221 0.930 . S
H234 C222 0.956 . S
H235 C222 0.961 . S
H236 C222 0.961 . S
H237 C223 0.958 . S
H238 C223 0.961 . S
H239 C223 0.960 . S
C240 C241 1.391 1_655 S
C240 C242 1.394 . S
C240 H256 0.931 . S
C241 C240 1.391 1_455 S
C241 C245 1.376 . S
C242 C240 1.394 . S
C242 C243 1.369 1_655 S
C242 C246 1.531 . S
C243 C242 1.369 1_455 S
C243 C244 1.410 . S
C243 C251 1.503 1_455 S
C244 C243 1.410 . S
C244 C245 1.392 . S
C244 C247 1.511 . S
C245 C241 1.376 . S
C245 C244 1.392 . S
C245 H257 0.929 . S
C246 C242 1.531 . S
C246 H258 0.960 . S
C246 H259 0.962 . S
C246 H260 0.960 . S
C247 C244 1.511 . S
C247 H261 0.961 . S
C247 H262 0.961 . S
C247 H263 0.961 . S
C248 C249 1.370 . S
C248 C250 1.363 . S
C248 H264 0.931 . S
C249 C248 1.370 . S
C249 C253 1.408 . S
C250 C248 1.363 . S
C250 C251 1.370 . S
C250 C254 1.524 . S
C251 C243 1.503 1_655 S
C251 C250 1.370 . S
C251 C252 1.403 . S
C252 C251 1.403 . S
C252 C253 1.404 . S
C252 C255 1.539 1_655 S
C253 C249 1.408 . S
C253 C252 1.404 . S
C253 H265 0.930 . S
C254 C250 1.524 . S
C254 H266 0.956 . S
C254 H267 0.961 1_655 S
C254 H268 0.961 . S
C255 C252 1.539 1_455 S
C255 H269 0.958 1_455 S
C255 H270 0.961 . S
C255 H271 0.960 . S
H256 C240 0.931 . S
H257 C245 0.929 . S
H258 C246 0.960 . S
H259 C246 0.962 . S
H260 C246 0.960 . S
H261 C247 0.961 . S
H262 C247 0.961 . S
H263 C247 0.961 . S
H264 C248 0.931 . S
H265 C253 0.930 . S
H266 C254 0.956 . S
H267 C254 0.961 1_455 S
H268 C254 0.961 . S
H269 C255 0.958 1_655 S
H270 C255 0.961 . S
H271 C255 0.960 . S
C272 C273 1.391 1_655 S
C272 C274 1.394 . S
C272 H288 0.931 . S
C273 C272 1.391 1_455 S
C273 C277 1.376 . S
C274 C272 1.394 . S
C274 C275 1.369 1_655 S
C274 C278 1.531 . S
C275 C274 1.369 1_455 S
C275 C276 1.410 . S
C275 C283 1.503 1_455 S
C276 C275 1.410 . S
C276 C277 1.392 . S
C276 C279 1.511 . S
C277 C273 1.376 . S
C277 C276 1.392 . S
C277 H289 0.929 . S
C278 C274 1.531 . S
C278 H290 0.960 . S
C278 H291 0.962 . S
C278 H292 0.960 . S
C279 C276 1.511 . S
C279 H293 0.961 . S
C279 H294 0.961 . S
C279 H295 0.961 . S
C280 C281 1.370 . S
C280 C282 1.363 . S
C280 H296 0.931 . S
C281 C280 1.370 . S
C281 C285 1.408 . S
C282 C280 1.363 . S
C282 C283 1.370 . S
C282 C286 1.524 . S
C283 C275 1.503 1_655 S
C283 C282 1.370 . S
C283 C284 1.403 1_655 S
C284 C283 1.403 1_455 S
C284 C285 1.404 1_455 S
C284 C287 1.539 . S
C285 C281 1.408 . S
C285 C284 1.404 1_655 S
C285 H297 0.930 . S
C286 C282 1.524 . S
C286 H298 0.956 . S
C286 H299 0.963 . S
C286 H300 0.961 . S
C287 C284 1.539 . S
C287 H301 0.970 . S
C287 H302 0.961 . S
C287 H303 0.960 . S
H288 C272 0.931 . S
H289 C277 0.929 . S
H290 C278 0.960 . S
H291 C278 0.962 . S
H292 C278 0.960 . S
H293 C279 0.961 . S
H294 C279 0.961 . S
H295 C279 0.961 . S
H296 C280 0.931 . S
H297 C285 0.930 . S
H298 C286 0.956 . S
H299 C286 0.963 . S
H300 C286 0.961 . S
H301 C287 0.970 . S
H302 C287 0.961 . S
H303 C287 0.960 . S
C304 C305 1.391 . S
C304 C306 1.394 . S
C304 H320 0.931 . S
C305 C304 1.391 . S
C305 C309 1.376 1_455 S
C306 C304 1.394 . S
C306 C307 1.369 1_455 S
C306 C310 1.531 . S
C307 C306 1.369 1_655 S
C307 C308 1.410 . S
C307 C315 1.503 . S
C308 C307 1.410 . S
C308 C309 1.392 . S
C308 C311 1.511 . S
C309 C305 1.376 1_655 S
C309 C308 1.392 . S
C309 H321 0.929 . S
C310 C306 1.531 . S
C310 H322 0.960 . S
C310 H323 0.962 . S
C310 H324 0.960 . S
C311 C308 1.511 . S
C311 H325 0.961 . S
C311 H326 0.961 . S
C311 H327 0.961 . S
C312 C313 1.370 1_455 S
C312 C314 1.363 . S
C312 H328 0.931 . S
C313 C312 1.370 1_655 S
C313 C317 1.408 . S
C314 C312 1.363 . S
C314 C315 1.370 1_455 S
C314 C318 1.524 . S
C315 C307 1.503 . S
C315 C314 1.370 1_655 S
C315 C316 1.403 . S
C316 C315 1.403 . S
C316 C317 1.404 . S
C316 C319 1.539 . S
C317 C313 1.408 . S
C317 C316 1.404 . S
C317 H329 0.930 . S
C318 C314 1.524 . S
C318 H330 0.956 . S
C318 H331 0.961 . S
C318 H332 0.961 . S
C319 C316 1.539 . S
C319 H333 0.958 . S
C319 H334 0.961 . S
C319 H335 0.960 . S
H320 C304 0.931 . S
H321 C309 0.929 . S
H322 C310 0.960 . S
H323 C310 0.962 . S
H324 C310 0.960 . S
H325 C311 0.961 . S
H326 C311 0.961 . S
H327 C311 0.961 . S
H328 C312 0.931 . S
H329 C317 0.930 . S
H330 C318 0.956 . S
H331 C318 0.961 . S
H332 C318 0.961 . S
H333 C319 0.958 . S
H334 C319 0.961 . S
H335 C319 0.960 . S
C336 C337 1.391 1_655 S
C336 C338 1.394 . S
C336 H352 0.931 . S
C337 C336 1.391 1_455 S
C337 C341 1.376 . S
C338 C336 1.394 . S
C338 C339 1.369 1_655 S
C338 C342 1.531 . S
C339 C338 1.369 1_455 S
C339 C340 1.410 . S
C339 C347 1.503 . S
C340 C339 1.410 . S
C340 C341 1.392 . S
C340 C343 1.511 . S
C341 C337 1.376 . S
C341 C340 1.392 . S
C341 H353 0.929 . S
C342 C338 1.531 . S
C342 H354 0.960 . S
C342 H355 0.962 . S
C342 H356 0.960 . S
C343 C340 1.511 . S
C343 H357 0.961 . S
C343 H358 0.961 . S
C343 H359 0.961 . S
C344 C345 1.370 . S
C344 C346 1.363 . S
C344 H360 0.931 . S
C345 C344 1.370 . S
C345 C349 1.408 1_655 S
C346 C344 1.363 . S
C346 C347 1.370 1_655 S
C346 C350 1.524 . S
C347 C339 1.503 . S
C347 C346 1.370 1_455 S
C347 C348 1.403 . S
C348 C347 1.403 . S
C348 C349 1.404 . S
C348 C351 1.539 . S
C349 C345 1.408 1_455 S
C349 C348 1.404 . S
C349 H361 0.930 . S
C350 C346 1.524 . S
C350 H362 0.956 . S
C350 H363 0.961 . S
C350 H364 0.961 . S
C351 C348 1.539 . S
C351 H365 0.958 . S
C351 H366 0.961 . S
C351 H367 0.960 . S
H352 C336 0.931 . S
H353 C341 0.929 . S
H354 C342 0.960 . S
H355 C342 0.962 . S
H356 C342 0.960 . S
H357 C343 0.961 . S
H358 C343 0.961 . S
H359 C343 0.961 . S
H360 C344 0.931 . S
H361 C349 0.930 . S
H362 C350 0.956 . S
H363 C350 0.961 . S
H364 C350 0.961 . S
H365 C351 0.958 . S
H366 C351 0.961 . S
H367 C351 0.960 . S
C368 C369 1.391 . S
C368 C370 1.394 . S
C368 H384 0.931 . S
C369 C368 1.391 . S
C369 C373 1.376 . S
C370 C368 1.394 . S
C370 C371 1.369 . S
C370 C374 1.531 . S
C371 C370 1.369 . S
C371 C372 1.410 . S
C371 C379 1.503 . S
C372 C371 1.410 . S
C372 C373 1.392 . S
C372 C375 1.511 . S
C373 C369 1.376 . S
C373 C372 1.392 . S
C373 H385 0.929 . S
C374 C370 1.531 . S
C374 H386 0.960 . S
C374 H387 0.962 . S
C374 H388 0.960 . S
C375 C372 1.511 . S
C375 H389 0.961 . S
C375 H390 0.961 . S
C375 H391 0.961 . S
C376 C377 1.370 . S
C376 C378 1.363 . S
C376 H392 0.931 . S
C377 C376 1.370 . S
C377 C381 1.408 . S
C378 C376 1.363 . S
C378 C379 1.370 . S
C378 C382 1.524 . S
C379 C371 1.503 . S
C379 C378 1.370 . S
C379 C380 1.403 . S
C380 C379 1.403 . S
C380 C381 1.404 . S
C380 C383 1.539 . S
C381 C377 1.408 . S
C381 C380 1.404 . S
C381 H393 0.930 . S
C382 C378 1.524 . S
C382 H394 0.956 . S
C382 H395 0.961 . S
C382 H396 0.961 . S
C383 C380 1.539 . S
C383 H397 0.958 . S
C383 H398 0.961 . S
C383 H399 0.960 . S
H384 C368 0.931 . S
H385 C373 0.929 . S
H386 C374 0.960 . S
H387 C374 0.962 . S
H388 C374 0.960 . S
H389 C375 0.961 . S
H390 C375 0.961 . S
H391 C375 0.961 . S
H392 C376 0.931 . S
H393 C381 0.930 . S
H394 C382 0.956 . S
H395 C382 0.961 . S
H396 C382 0.961 . S
H397 C383 0.958 . S
H398 C383 0.961 . S
H399 C383 0.960 . S
C400 C401 1.391 . S
C400 C402 1.394 . S
C400 H416 0.931 . S
C401 C400 1.391 . S
C401 C405 1.376 . S
C402 C400 1.394 . S
C402 C403 1.369 . S
C402 C406 1.531 . S
C403 C402 1.369 . S
C403 C404 1.410 . S
C403 C411 1.503 . S
C404 C403 1.410 . S
C404 C405 1.392 . S
C404 C407 1.511 . S
C405 C401 1.376 . S
C405 C404 1.392 . S
C405 H417 0.929 . S
C406 C402 1.531 . S
C406 H418 0.960 . S
C406 H419 0.962 . S
C406 H420 0.960 . S
C407 C404 1.511 . S
C407 H421 0.961 . S
C407 H422 0.961 . S
C407 H423 0.961 . S
C408 C409 1.370 . S
C408 C410 1.363 . S
C408 H424 0.931 . S
C409 C408 1.370 . S
C409 C413 1.408 . S
C410 C408 1.363 . S
C410 C411 1.370 . S
C410 C414 1.524 . S
C411 C403 1.503 . S
C411 C410 1.370 . S
C411 C412 1.403 . S
C412 C411 1.403 . S
C412 C413 1.404 . S
C412 C415 1.539 . S
C413 C409 1.408 . S
C413 C412 1.404 . S
C413 H425 0.930 . S
C414 C410 1.524 . S
C414 H426 0.956 . S
C414 H427 0.961 . S
C414 H428 0.961 . S
C415 C412 1.539 . S
C415 H429 0.958 . S
C415 H430 0.961 . S
C415 H431 0.960 . S
H416 C400 0.931 . S
H417 C405 0.929 . S
H418 C406 0.960 . S
H419 C406 0.962 . S
H420 C406 0.960 . S
H421 C407 0.961 . S
H422 C407 0.961 . S
H423 C407 0.961 . S
H424 C408 0.931 . S
H425 C413 0.930 . S
H426 C414 0.956 . S
H427 C414 0.961 . S
H428 C414 0.961 . S
H429 C415 0.958 . S
H430 C415 0.961 . S
H431 C415 0.960 . S
C432 C433 1.391 . S
C432 C434 1.394 . S
C432 H448 0.931 . S
C433 C432 1.391 . S
C433 C437 1.376 . S
C434 C432 1.394 . S
C434 C435 1.369 . S
C434 C438 1.531 . S
C435 C434 1.369 . S
C435 C436 1.410 . S
C435 C443 1.503 . S
C436 C435 1.410 . S
C436 C437 1.392 . S
C436 C439 1.511 . S
C437 C433 1.376 . S
C437 C436 1.392 . S
C437 H449 0.929 . S
C438 C434 1.531 . S
C438 H450 0.960 . S
C438 H451 0.962 . S
C438 H452 0.960 . S
C439 C436 1.511 . S
C439 H453 0.961 . S
C439 H454 0.961 . S
C439 H455 0.961 . S
C440 C441 1.370 . S
C440 C442 1.363 . S
C440 H456 0.931 . S
C441 C440 1.370 . S
C441 C445 1.408 . S
C442 C440 1.363 . S
C442 C443 1.370 . S
C442 C446 1.524 . S
C443 C435 1.503 . S
C443 C442 1.370 . S
C443 C444 1.403 . S
C444 C443 1.403 . S
C444 C445 1.404 . S
C444 C447 1.539 . S
C445 C441 1.408 . S
C445 C444 1.404 . S
C445 H457 0.930 . S
C446 C442 1.524 . S
C446 H458 0.956 . S
C446 H459 0.961 . S
C446 H460 0.961 . S
C447 C444 1.539 . S
C447 H461 0.958 . S
C447 H462 0.961 . S
C447 H463 0.960 . S
H448 C432 0.931 . S
H449 C437 0.929 . S
H450 C438 0.960 . S
H451 C438 0.962 . S
H452 C438 0.960 . S
H453 C439 0.961 . S
H454 C439 0.961 . S
H455 C439 0.961 . S
H456 C440 0.931 . S
H457 C445 0.930 . S
H458 C446 0.956 . S
H459 C446 0.961 . S
H460 C446 0.961 . S
H461 C447 0.958 . S
H462 C447 0.961 . S
H463 C447 0.960 . S
C464 C465 1.391 . S
C464 C466 1.394 . S
C464 H480 0.931 . S
C465 C464 1.391 . S
C465 C469 1.376 . S
C466 C464 1.394 . S
C466 C467 1.369 . S
C466 C470 1.531 . S
C467 C466 1.369 . S
C467 C468 1.410 . S
C467 C475 1.503 . S
C468 C467 1.410 . S
C468 C469 1.392 . S
C468 C471 1.511 . S
C469 C465 1.376 . S
C469 C468 1.392 . S
C469 H481 0.929 . S
C470 C466 1.531 . S
C470 H482 0.960 . S
C470 H483 0.962 . S
C470 H484 0.960 . S
C471 C468 1.511 . S
C471 H485 0.961 . S
C471 H486 0.961 . S
C471 H487 0.961 . S
C472 C473 1.370 . S
C472 C474 1.363 . S
C472 H488 0.931 . S
C473 C472 1.370 . S
C473 C477 1.408 . S
C474 C472 1.363 . S
C474 C475 1.370 . S
C474 C478 1.524 . S
C475 C467 1.503 . S
C475 C474 1.370 . S
C475 C476 1.403 . S
C476 C475 1.403 . S
C476 C477 1.404 . S
C476 C479 1.539 . S
C477 C473 1.408 . S
C477 C476 1.404 . S
C477 H489 0.930 . S
C478 C474 1.524 . S
C478 H490 0.956 . S
C478 H491 0.961 . S
C478 H492 0.961 . S
C479 C476 1.539 . S
C479 H493 0.958 . S
C479 H494 0.961 . S
C479 H495 0.960 . S
H480 C464 0.931 . S
H481 C469 0.929 . S
H482 C470 0.960 . S
H483 C470 0.962 . S
H484 C470 0.960 . S
H485 C471 0.961 . S
H486 C471 0.961 . S
H487 C471 0.961 . S
H488 C472 0.931 . S
H489 C477 0.930 . S
H490 C478 0.956 . S
H491 C478 0.961 . S
H492 C478 0.961 . S
H493 C479 0.958 . S
H494 C479 0.961 . S
H495 C479 0.960 . S
C496 C497 1.391 . S
C496 C498 1.394 . S
C496 H512 0.931 . S
C497 C496 1.391 . S
C497 C501 1.376 1_554 S
C498 C496 1.394 . S
C498 C499 1.369 . S
C498 C502 1.531 . S
C499 C498 1.369 . S
C499 C500 1.410 1_554 S
C499 C507 1.503 . S
C500 C499 1.410 1_556 S
C500 C501 1.392 . S
C500 C503 1.511 . S
C501 C497 1.376 1_556 S
C501 C500 1.392 . S
C501 H513 0.929 . S
C502 C498 1.531 . S
C502 H514 0.960 . S
C502 H515 0.962 . S
C502 H516 0.960 . S
C503 C500 1.511 . S
C503 H517 0.961 . S
C503 H518 0.961 . S
C503 H519 0.961 . S
C504 C505 1.370 . S
C504 C506 1.363 . S
C504 H520 0.931 . S
C505 C504 1.370 . S
C505 C509 1.408 . S
C506 C504 1.363 . S
C506 C507 1.370 . S
C506 C510 1.524 . S
C507 C499 1.503 . S
C507 C506 1.370 . S
C507 C508 1.403 . S
C508 C507 1.403 . S
C508 C509 1.404 . S
C508 C511 1.539 . S
C509 C505 1.408 . S
C509 C508 1.404 . S
C509 H521 0.930 . S
C510 C506 1.524 . S
C510 H522 0.956 . S
C510 H523 0.961 . S
C510 H524 0.961 . S
C511 C508 1.539 . S
C511 H525 0.958 . S
C511 H526 0.961 . S
C511 H527 0.960 . S
H512 C496 0.931 . S
H513 C501 0.929 . S
H514 C502 0.960 . S
H515 C502 0.962 . S
H516 C502 0.960 . S
H517 C503 0.961 . S
H518 C503 0.961 . S
H519 C503 0.961 . S
H520 C504 0.931 . S
H521 C509 0.930 . S
H522 C510 0.956 . S
H523 C510 0.961 . S
H524 C510 0.961 . S
H525 C511 0.958 . S
H526 C511 0.961 . S
H527 C511 0.960 . S
C528 C529 1.391 1_556 S
C528 C530 1.394 . S
C528 H544 0.931 . S
C529 C528 1.391 1_554 S
C529 C533 1.376 . S
C530 C528 1.394 . S
C530 C531 1.369 1_556 S
C530 C534 1.531 . S
C531 C530 1.369 1_554 S
C531 C532 1.410 . S
C531 C539 1.503 . S
C532 C531 1.410 . S
C532 C533 1.392 . S
C532 C535 1.511 . S
C533 C529 1.376 . S
C533 C532 1.392 . S
C533 H545 0.929 . S
C534 C530 1.531 . S
C534 H546 0.960 . S
C534 H547 0.962 . S
C534 H548 0.960 . S
C535 C532 1.511 . S
C535 H549 0.961 . S
C535 H550 0.961 . S
C535 H551 0.961 . S
C536 C537 1.370 . S
C536 C538 1.363 . S
C536 H552 0.931 . S
C537 C536 1.370 . S
C537 C541 1.408 . S
C538 C536 1.363 . S
C538 C539 1.370 . S
C538 C542 1.524 . S
C539 C531 1.503 . S
C539 C538 1.370 . S
C539 C540 1.403 . S
C540 C539 1.403 . S
C540 C541 1.404 . S
C540 C543 1.539 1_554 S
C541 C537 1.408 . S
C541 C540 1.404 . S
C541 H553 0.930 . S
C542 C538 1.524 . S
C542 H554 0.956 . S
C542 H555 0.961 . S
C542 H556 0.961 . S
C543 C540 1.539 1_556 S
C543 H557 0.958 . S
C543 H558 0.961 1_556 S
C543 H559 0.960 1_556 S
H544 C528 0.931 . S
H545 C533 0.929 . S
H546 C534 0.960 . S
H547 C534 0.962 . S
H548 C534 0.960 . S
H549 C535 0.961 . S
H550 C535 0.961 . S
H551 C535 0.961 . S
H552 C536 0.931 . S
H553 C541 0.930 . S
H554 C542 0.956 . S
H555 C542 0.961 . S
H556 C542 0.961 . S
H557 C543 0.958 . S
H558 C543 0.961 1_554 S
H559 C543 0.960 1_554 S
C560 C561 1.391 . S
C560 C562 1.394 . S
C560 H576 0.931 . S
C561 C560 1.391 . S
C561 C565 1.376 . S
C562 C560 1.394 . S
C562 C563 1.369 . S
C562 C566 1.531 . S
C563 C562 1.369 . S
C563 C564 1.410 . S
C563 C571 1.503 . S
C564 C563 1.410 . S
C564 C565 1.392 . S
C564 C567 1.511 . S
C565 C561 1.376 . S
C565 C564 1.392 . S
C565 H577 0.929 . S
C566 C562 1.531 . S
C566 H578 0.960 . S
C566 H579 0.962 . S
C566 H580 0.960 . S
C567 C564 1.511 . S
C567 H581 0.961 . S
C567 H582 0.961 . S
C567 H583 0.961 . S
C568 C569 1.370 . S
C568 C570 1.363 . S
C568 H584 0.931 . S
C569 C568 1.370 . S
C569 C573 1.408 . S
C570 C568 1.363 . S
C570 C571 1.370 . S
C570 C574 1.524 . S
C571 C563 1.503 . S
C571 C570 1.370 . S
C571 C572 1.403 . S
C572 C571 1.403 . S
C572 C573 1.404 . S
C572 C575 1.539 . S
C573 C569 1.408 . S
C573 C572 1.404 . S
C573 H585 0.930 . S
C574 C570 1.524 . S
C574 H586 0.956 . S
C574 H587 0.961 . S
C574 H588 0.961 . S
C575 C572 1.539 . S
C575 H589 0.958 . S
C575 H590 0.961 . S
C575 H591 0.960 . S
H576 C560 0.931 . S
H577 C565 0.929 . S
H578 C566 0.960 . S
H579 C566 0.962 . S
H580 C566 0.960 . S
H581 C567 0.961 . S
H582 C567 0.961 . S
H583 C567 0.961 . S
H584 C568 0.931 . S
H585 C573 0.930 . S
H586 C574 0.956 . S
H587 C574 0.961 . S
H588 C574 0.961 . S
H589 C575 0.958 . S
H590 C575 0.961 . S
H591 C575 0.960 . S
C592 C593 1.391 . S
C592 C594 1.394 . S
C592 H608 0.931 . S
C593 C592 1.391 . S
C593 C597 1.376 . S
C594 C592 1.394 . S
C594 C595 1.369 . S
C594 C598 1.531 . S
C595 C594 1.369 . S
C595 C596 1.410 . S
C595 C603 1.503 . S
C596 C595 1.410 . S
C596 C597 1.392 . S
C596 C599 1.511 . S
C597 C593 1.376 . S
C597 C596 1.392 . S
C597 H609 0.929 . S
C598 C594 1.531 . S
C598 H610 0.960 . S
C598 H611 0.962 . S
C598 H612 0.960 . S
C599 C596 1.511 . S
C599 H613 0.961 . S
C599 H614 0.961 . S
C599 H615 0.961 . S
C600 C601 1.370 . S
C600 C602 1.363 . S
C600 H616 0.931 . S
C601 C600 1.370 . S
C601 C605 1.408 . S
C602 C600 1.363 . S
C602 C603 1.370 . S
C602 C606 1.524 . S
C603 C595 1.503 . S
C603 C602 1.370 . S
C603 C604 1.403 . S
C604 C603 1.403 . S
C604 C605 1.404 . S
C604 C607 1.539 . S
C605 C601 1.408 . S
C605 C604 1.404 . S
C605 H617 0.930 . S
C606 C602 1.524 . S
C606 H618 0.956 . S
C606 H619 0.961 . S
C606 H620 0.961 . S
C607 C604 1.539 . S
C607 H621 0.958 . S
C607 H622 0.961 . S
C607 H623 0.960 . S
H608 C592 0.931 . S
H609 C597 0.929 . S
H610 C598 0.960 . S
H611 C598 0.962 . S
H612 C598 0.960 . S
H613 C599 0.961 . S
H614 C599 0.961 . S
H615 C599 0.961 . S
H616 C600 0.931 . S
H617 C605 0.930 . S
H618 C606 0.956 . S
H619 C606 0.961 . S
H620 C606 0.961 . S
H621 C607 0.958 . S
H622 C607 0.961 . S
H623 C607 0.960 . S
C113 C23 1.486 . S
C121 C9 1.493 . S
C145 C37 1.478 . S
C153 C51 1.494 . S
C177 C65 1.469 . S
C185 C79 1.493 . S
C209 C93 1.462 . S
C217 C107 1.492 . S
C241 C8 1.278 . S
C249 C50 1.296 . S
C273 C36 1.273 . S
C281 C22 1.299 . S
C305 C35 1.431 . S
C313 C21 1.448 . S
C337 C7 1.453 . S
C345 C49 1.444 . S
C369 C64 1.267 . S
C377 C106 1.303 . S
C401 C92 1.267 . S
C409 C78 1.303 . S
C433 C77 1.432 . S
C441 C91 1.446 . S
C465 C63 1.432 . S
C473 C105 1.450 . S
C497 C76 1.494 . S
C505 C6 1.529 . S
C529 C62 1.538 . S
C537 C20 1.511 . S
C561 C34 1.518 . S
C569 C104 1.521 . S
C593 C90 1.501 . S
C601 C48 1.524 . S
