# Generated by pormake.
# Topology fne, (5)-cn, num edge types: 1
# Building blocks:
#     Node 0, Type 0, BuildingBlock: XOMCOT_clean_sbu_0, # of connection points: 5
#     Node 1, Type 0, BuildingBlock: XOMCOT_clean_sbu_0, # of connection points: 5
#     Node 2, Type 0, BuildingBlock: XOMCOT_clean_sbu_0, # of connection points: 5
#     Node 3, Type 0, BuildingBlock: XOMCOT_clean_sbu_0, # of connection points: 5
#     Node 4, Type 0, BuildingBlock: XOMCOT_clean_sbu_0, # of connection points: 5
#     Node 5, Type 0, BuildingBlock: XOMCOT_clean_sbu_0, # of connection points: 5
#     Edge 6, Type (0, 0), BuildingBlock: KIFKEQ_clean_linker_1, # of connection points: 2
#     Edge 7, Type (0, 0), BuildingBlock: KIFKEQ_clean_linker_1, # of connection points: 2
#     Edge 8, Type (0, 0), BuildingBlock: KIFKEQ_clean_linker_1, # of connection points: 2
#     Edge 9, Type (0, 0), BuildingBlock: KIFKEQ_clean_linker_1, # of connection points: 2
#     Edge 10, Type (0, 0), BuildingBlock: KIFKEQ_clean_linker_1, # of connection points: 2
#     Edge 11, Type (0, 0), BuildingBlock: KIFKEQ_clean_linker_1, # of connection points: 2
#     Edge 12, Type (0, 0), BuildingBlock: KIFKEQ_clean_linker_1, # of connection points: 2
#     Edge 13, Type (0, 0), BuildingBlock: KIFKEQ_clean_linker_1, # of connection points: 2
#     Edge 14, Type (0, 0), BuildingBlock: KIFKEQ_clean_linker_1, # of connection points: 2
#     Edge 15, Type (0, 0), BuildingBlock: KIFKEQ_clean_linker_1, # of connection points: 2
#     Edge 16, Type (0, 0), BuildingBlock: KIFKEQ_clean_linker_1, # of connection points: 2
#     Edge 17, Type (0, 0), BuildingBlock: KIFKEQ_clean_linker_1, # of connection points: 2
#     Edge 18, Type (0, 0), BuildingBlock: KIFKEQ_clean_linker_1, # of connection points: 2
#     Edge 19, Type (0, 0), BuildingBlock: KIFKEQ_clean_linker_1, # of connection points: 2
#     Edge 20, Type (0, 0), BuildingBlock: KIFKEQ_clean_linker_1, # of connection points: 2
# Relax obj value: 0.065
# Max RMSD: 0.097
# Mean RMSD: 0.097
data_MOF--net-fne--node1-XOMCOT_clean_sbu_0--edge1-KIFKEQ_clean_linker_1
_symmetry_space_group_name_H-M    P1
_symmetry_Int_Tables_number       1
_symmetry_cell_setting            triclinic
loop_
_symmetry_equiv_pos_as_xyz
'x, y, z'
_cell_length_a     47.222562
_cell_length_b     47.333369
_cell_length_c     17.741488
_cell_angle_alpha  90.010761
_cell_angle_beta   90.008056
_cell_angle_gamma 120.003
loop_
_atom_site_label
_atom_site_type_symbol
_atom_site_fract_x
_atom_site_fract_y
_atom_site_fract_z
_atom_type_partial_charge
Co0 Co 0.35934 0.07342 0.0692 0.0
C1 C 0.35731 0.06332 0.23551 0.0
C2 C 0.31028 0.03592 0.18393 0.0
C3 C 0.30636 0.03294 0.26077 0.0
N4 N 0.34234 0.05445 0.16767 0.0
N5 N 0.33599 0.05033 0.29355 0.0
H6 H 0.38282 0.08068 0.24262 0.0
H7 H 0.29075 0.02701 0.1429 0.0
C8 C 0.31674 1.00166 0.03697 0.0
O9 O 0.33081 0.99583 0.09408 0.0
N10 N 0.37539 0.09253 0.97133 0.0
C11 C 0.40517 0.11794 0.95508 0.0
C12 C 0.40797 0.12183 0.87791 0.0
C13 C 0.36053 0.0813 0.90429 0.0
N14 N 0.37996 0.09858 0.84631 0.0
C15 C 0.41843 0.07593 0.11972 0.0
C16 C 0.42066 0.03516 0.01153 0.0
C17 C 0.44665 0.05019 0.06306 0.0
C18 C 0.44501 0.07066 0.11792 0.0
C19 C 0.39432 0.041 0.01561 0.0
N20 N 0.39282 0.06042 0.07084 0.0
H21 H 0.41959 0.09402 0.15818 0.0
H22 H 0.37596 0.03099 0.97198 0.0
H23 H 0.42396 0.1319 0.99621 0.0
H24 H 0.33621 0.06059 0.89765 0.0
O25 O 0.38425 0.11604 0.11554 0.0
O26 O 0.33335 0.09488 0.07523 0.0
O27 O 0.32572 0.03115 0.01887 0.0
C28 C 0.35853 0.11908 0.10784 0.0
H29 H 0.28311 0.02068 0.28976 0.0
H30 H 0.42945 0.13941 0.84733 0.0
H31 H 0.42123 0.02008 0.96634 0.0
H32 H 0.46446 0.08316 0.15866 0.0
Co33 Co 0.32182 0.34726 0.409 0.0
C34 C 0.32635 0.34409 0.57618 0.0
C35 C 0.31486 0.299 0.52341 0.0
C36 C 0.31354 0.2947 0.60023 0.0
N37 N 0.32392 0.33031 0.50785 0.0
N38 N 0.32066 0.32309 0.63352 0.0
H39 H 0.32911 0.36791 0.58421 0.0
H40 H 0.30761 0.27983 0.48209 0.0
C41 C 0.35277 0.30652 0.37225 0.0
O42 O 0.37375 0.32149 0.42709 0.0
N43 N 0.31866 0.36333 0.3112 0.0
C44 C 0.32671 0.39415 0.294 0.0
C45 C 0.32531 0.39665 0.21689 0.0
C46 C 0.31219 0.34742 0.24479 0.0
N47 N 0.31638 0.36728 0.18589 0.0
C48 C 0.3791 0.4045 0.46453 0.0
C49 C 0.42072 0.41016 0.34877 0.0
C50 C 0.43221 0.43463 0.40419 0.0
C51 C 0.41086 0.43122 0.46294 0.0
C52 C 0.38866 0.38367 0.35262 0.0
N53 N 0.36834 0.38061 0.41099 0.0
H54 H 0.36274 0.40417 0.50694 0.0
H55 H 0.37981 0.36639 0.30667 0.0
H56 H 0.3346 0.41379 0.3344 0.0
H57 H 0.30534 0.32204 0.23966 0.0
O58 O 0.30405 0.37216 0.45509 0.0
O59 O 0.27438 0.3213 0.41494 0.0
O60 O 0.3308 0.31405 0.35771 0.0
C61 C 0.27529 0.34646 0.44739 0.0
H62 H 0.30666 0.27201 0.62896 0.0
H63 H 0.33201 0.41884 0.18605 0.0
H64 H 0.43586 0.41208 0.301 0.0
H65 H 0.41834 0.44943 0.50696 0.0
Co66 Co 1.00824 0.31043 0.73797 0.0
C67 C 1.01785 0.31794 0.90425 0.0
C68 C 0.04404 0.29674 0.85367 0.0
C69 C 0.04718 0.29624 0.93067 0.0
N70 N 0.02622 0.31099 0.83681 0.0
N71 N 0.0305 0.3094 0.96244 0.0
H72 H 1.00147 0.32735 0.9113 0.0
H73 H 0.05262 0.28573 0.81293 0.0
C74 C 0.08047 0.339 0.70985 0.0
O75 O 0.08612 0.35759 0.76943 0.0
N76 N 0.99 0.30903 0.63985 0.0
C77 C 0.96602 0.31567 0.62428 0.0
C78 C 0.96248 0.31566 0.54725 0.0
C79 C 1.00064 0.30493 0.57244 0.0
N80 N 0.98438 0.30906 0.51471 0.0
C81 C 1.00353 0.36536 0.78988 0.0
C82 C 0.04934 0.41168 0.69444 0.0
C83 C 0.03207 0.42112 0.74331 0.0
C84 C 1.00864 0.39708 0.79081 0.0
C85 C 0.04293 0.37933 0.69425 0.0
N86 N 1.02118 0.35677 0.74387 0.0
H87 H 0.98394 0.34733 0.82385 0.0
H88 H 0.05474 0.37241 0.65202 0.0
H89 H 0.95275 0.32116 0.66594 0.0
H90 H 1.02075 0.30036 0.5656 0.0
O91 O 0.96508 0.29185 0.7823 0.0
O92 O 0.98667 0.26292 0.73999 0.0
O93 O 0.051 0.31973 0.68872 0.0
C94 C 0.96213 0.26332 0.77248 0.0
H95 H 0.059 0.28511 0.96091 0.0
H96 H 0.94537 0.32058 0.51765 0.0
H97 H 0.06742 0.42889 0.65567 0.0
H98 H 0.99322 0.40215 0.8268 0.0
Co99 Co 0.7333 0.99756 0.07006 0.0
C100 C 0.73649 1.0051 0.23729 0.0
C101 C 0.78155 0.03909 0.18463 0.0
C102 C 0.78587 0.04203 0.26146 0.0
N103 N 0.75023 0.01663 0.16898 0.0
N104 N 0.75749 0.02052 0.29468 0.0
H105 H 0.71272 0.98387 0.24524 0.0
H106 H 0.80076 0.05119 0.1434 0.0
C107 C 0.77412 0.06908 0.03292 0.0
O108 O 0.7589 0.07502 0.08727 0.0
N109 N 0.71726 0.97828 0.97223 0.0
C110 C 0.68638 0.95547 0.95495 0.0
C111 C 0.68392 0.95152 0.87785 0.0
C112 C 0.73324 0.9877 0.90588 0.0
N113 N 0.71337 0.97198 0.84694 0.0
C114 C 0.67638 0.99841 0.12566 0.0
C115 C 0.67051 0.03339 0.0081 0.0
C116 C 0.64626 0.02114 0.0642 0.0
C117 C 0.6498 1.00371 0.12389 0.0
C118 C 0.6969 0.02767 0.0123 0.0
N119 N 0.70005 1.01087 0.07147 0.0
H120 H 0.67678 0.98277 0.1689 0.0
H121 H 0.71407 0.03566 0.96608 0.0
H122 H 0.66667 0.94373 0.99527 0.0
H123 H 0.75868 1.00626 0.90081 0.0
O124 O 0.70808 0.95497 0.11615 0.0
O125 O 0.75911 0.97599 0.07656 0.0
O126 O 0.76676 0.03965 0.01881 0.0
C127 C 0.73375 0.95181 0.10879 0.0
H128 H 0.80857 0.05798 0.29024 0.0
H129 H 0.66169 0.936 0.84693 0.0
H130 H 0.66851 0.04617 0.95961 0.0
H131 H 0.63184 0.99361 0.1686 0.0
Co132 Co 0.7698 0.72315 0.40906 0.0
C133 C 0.76526 0.72631 0.57624 0.0
C134 C 0.77676 0.77141 0.52352 0.0
C135 C 0.77807 0.7757 0.60034 0.0
N136 N 0.76769 0.74009 0.50792 0.0
N137 N 0.77094 0.74731 0.6336 0.0
H138 H 0.76249 0.70248 0.58424 0.0
H139 H 0.78401 0.79058 0.48223 0.0
C140 C 0.73882 0.76387 0.37238 0.0
O141 O 0.71785 0.7489 0.42721 0.0
N142 N 0.77297 0.70709 0.31124 0.0
C143 C 0.76494 0.67627 0.29401 0.0
C144 C 0.76633 0.67377 0.2169 0.0
C145 C 0.77942 0.72299 0.24485 0.0
N146 N 0.77524 0.70313 0.18593 0.0
C147 C 0.71257 0.66587 0.46447 0.0
C148 C 0.67089 0.66022 0.3488 0.0
C149 C 0.65944 0.63574 0.40415 0.0
C150 C 0.68081 0.63914 0.46286 0.0
C151 C 0.70295 0.68671 0.35267 0.0
N152 N 0.72329 0.68978 0.411 0.0
H153 H 0.72895 0.6662 0.50684 0.0
H154 H 0.71178 0.704 0.30676 0.0
H155 H 0.75706 0.65664 0.33439 0.0
H156 H 0.78626 0.74837 0.23975 0.0
O157 O 0.78761 0.69828 0.45513 0.0
O158 O 0.81724 0.74914 0.41504 0.0
O159 O 0.76079 0.75634 0.35781 0.0
C160 C 0.81636 0.724 0.44748 0.0
H161 H 0.78496 0.7984 0.6291 0.0
H162 H 0.75964 0.65158 0.18604 0.0
H163 H 0.65574 0.65829 0.30105 0.0
H164 H 0.67335 0.62092 0.50683 0.0
Co165 Co 0.08332 0.76025 0.73959 0.0
C166 C 0.07368 0.75267 0.90584 0.0
C167 C 0.04731 0.77368 0.85527 0.0
C168 C 0.04418 0.77417 0.93227 0.0
N169 N 0.06523 0.75954 0.83839 0.0
N170 N 0.06097 0.76114 0.96403 0.0
H171 H 0.09018 0.74339 0.91288 0.0
H172 H 0.03866 0.78463 0.81456 0.0
C173 C 1.01111 0.73165 0.71094 0.0
O174 O 1.00541 0.71296 0.77033 0.0
N175 N 0.10167 0.7618 0.64151 0.0
C176 C 0.1257 0.75525 0.62597 0.0
C177 C 0.12929 0.75531 0.54895 0.0
C178 C 0.09103 0.7659 0.57408 0.0
N179 N 0.10735 0.76185 0.51637 0.0
C180 C 0.08793 0.70523 0.79121 0.0
C181 C 0.04231 0.65908 0.69507 0.0
C182 C 0.05947 0.64955 0.74405 0.0
C183 C 0.08281 0.67351 0.79191 0.0
C184 C 0.04873 0.69143 0.69512 0.0
N185 N 0.07037 0.7139 0.74508 0.0
H186 H 0.10745 0.7232 0.82545 0.0
H187 H 0.03701 0.69843 0.65283 0.0
H188 H 0.13898 0.74977 0.66765 0.0
H189 H 0.07088 0.77039 0.5672 0.0
O190 O 0.12642 0.77875 0.78425 0.0
O191 O 0.1049 0.80776 0.74206 0.0
O192 O 0.04061 0.75101 0.69012 0.0
C193 C 0.12939 0.8073 0.77471 0.0
H194 H 0.03229 0.78523 0.96252 0.0
H195 H 0.14644 0.75045 0.51938 0.0
H196 H 0.02432 0.64194 0.65603 0.0
H197 H 0.09815 0.66837 0.82801 0.0
H198 H 0.51115 0.09601 0.08711 0.0
H199 H 0.44893 0.99476 0.02677 0.0
H200 H 0.5585 0.08868 0.08521 0.0
H201 H 0.49673 0.98785 0.02081 0.0
H202 H 0.58277 0.97711 0.10308 0.0
H203 H 0.53532 0.98428 0.10026 0.0
H204 H 0.5946 0.08074 0.00666 0.0
H205 H 0.6426 0.07423 0.01341 0.0
C206 C 0.50748 0.07211 0.07344 0.0
C207 C 0.47594 0.04588 0.05804 0.0
C208 C 0.53486 0.06803 0.07117 0.0
C209 C 0.53167 0.03764 0.05295 0.0
C210 C 0.50021 1.01153 0.03616 0.0
C211 C 0.47275 0.01558 0.03869 0.0
C212 C 0.58591 1.00007 0.08277 0.0
C213 C 0.61683 0.02523 0.05931 0.0
C214 C 0.55843 1.00398 0.08001 0.0
C215 C 0.5609 0.03312 0.05328 0.0
C216 C 0.59171 0.05811 0.02863 0.0
C217 C 0.61926 0.05423 0.03164 0.0
H218 H 0.60176 0.63184 0.35923 0.0
H219 H 0.64137 0.57226 0.43747 0.0
H220 H 0.5474 0.58352 0.35333 0.0
H221 H 0.58699 0.52438 0.43483 0.0
H222 H 0.48986 0.43852 0.35909 0.0
H223 H 0.54422 0.48683 0.35317 0.0
H224 H 0.50469 0.54597 0.43504 0.0
H225 H 0.4503 0.49811 0.43771 0.0
C226 C 0.59895 0.60847 0.37506 0.0
C227 C 0.62608 0.60616 0.39938 0.0
C228 C 0.56765 0.58075 0.37247 0.0
C229 C 0.56259 0.5499 0.39394 0.0
C230 C 0.58983 0.54756 0.41716 0.0
C231 C 0.62107 0.57522 0.41974 0.0
C232 C 0.49268 0.46189 0.37499 0.0
C233 C 0.46556 0.4642 0.39942 0.0
C234 C 0.52398 0.48961 0.37239 0.0
C235 C 0.52905 0.52045 0.39396 0.0
C236 C 0.50183 0.5228 0.41729 0.0
C237 C 0.47059 0.49514 0.41989 0.0
H238 H 0.0252 0.45511 0.86143 0.0
H239 H 0.0505 0.46508 0.6249 0.0
H240 H 0.02911 0.50788 0.85981 0.0
H241 H 0.058 0.51963 0.62546 0.0
H242 H 0.04129 0.60578 0.62523 0.0
H243 H 0.03378 0.55123 0.62542 0.0
H244 H 0.06217 0.56259 0.86012 0.0
H245 H 0.06608 0.61536 0.86205 0.0
C246 C 0.03174 0.46848 0.80885 0.0
C247 C 0.03715 0.45513 0.74311 0.0
C248 C 0.03468 0.4994 0.80832 0.0
C249 C 0.04405 0.51865 0.74256 0.0
C250 C 0.05016 0.50564 0.67711 0.0
C251 C 0.04648 0.47432 0.6772 0.0
C252 C 0.04519 0.59646 0.67751 0.0
C253 C 0.05439 0.61554 0.74362 0.0
C254 C 0.04151 0.56514 0.67722 0.0
C255 C 0.04748 0.55202 0.74266 0.0
C256 C 0.05671 0.57116 0.80862 0.0
C257 C 0.05965 0.60208 0.80934 0.0
H258 H 0.39224 0.09757 0.36009 0.0
H259 H 0.29539 0.01764 0.41081 0.0
H260 H 0.40292 0.10835 0.49319 0.0
H261 H 0.30546 0.03003 0.54375 0.0
H262 H 0.34463 0.03922 0.78172 0.0
H263 H 0.3346 0.02708 0.64785 0.0
H264 H 0.38976 0.13027 0.5978 0.0
H265 H 0.40062 0.14209 0.73199 0.0
C266 C 0.37307 0.0822 0.39896 0.0
C267 C 0.34276 0.05667 0.37335 0.0
C268 C 0.37914 0.08878 0.47591 0.0
C269 C 0.35502 0.07027 0.52962 0.0
C270 C 0.32482 0.04464 0.50429 0.0
C271 C 0.31887 0.0378 0.42741 0.0
C272 C 0.35437 0.05928 0.74206 0.0
C273 C 0.37333 0.09162 0.76722 0.0
C274 C 0.34859 0.05236 0.66521 0.0
C275 C 0.3613 0.07767 0.61162 0.0
C276 C 0.38007 0.11008 0.63711 0.0
C277 C 0.3862 0.11694 0.71399 0.0
H278 H 0.35062 0.38159 0.70546 0.0
H279 H 0.28795 0.27818 0.74339 0.0
H280 H 0.34819 0.39173 0.83928 0.0
H281 H 0.286 0.2884 0.87712 0.0
H282 H 0.32264 0.31845 0.12147 0.0
H283 H 0.32284 0.30742 0.98768 0.0
H284 H 0.30831 0.38831 0.93493 0.0
H285 H 0.30761 0.39918 0.06898 0.0
C286 C 0.33612 0.36102 0.74198 0.0
C287 C 0.31947 0.32905 0.7131 0.0
C288 C 0.33476 0.36686 0.81881 0.0
C289 C 0.31688 0.34087 0.86883 0.0
C290 C 0.30033 0.30892 0.84021 0.0
C291 C 0.30154 0.30308 0.76333 0.0
C292 C 0.31895 0.33364 0.08173 0.0
C293 C 0.31511 0.35978 0.10652 0.0
C294 C 0.31917 0.32732 0.0048 0.0
C295 C 0.31572 0.34706 0.95065 0.0
C296 C 0.31154 0.37296 0.97524 0.0
C297 C 0.31114 0.37919 0.05219 0.0
H298 H 0.06974 0.31385 0.07857 0.0
H299 H 0.97703 0.30674 0.02677 0.0
H300 H 0.05871 0.31386 0.21291 0.0
H301 H 0.96597 0.30669 0.16069 0.0
H302 H 0.9727 0.3414 0.40382 0.0
H303 H 0.98435 0.34208 0.2701 0.0
H304 H 0.02268 0.27753 0.31056 0.0
H305 H 1.01104 0.27688 0.44463 0.0
C306 C 0.04696 0.31216 0.09582 0.0
C307 C 0.02436 0.31041 0.04179 0.0
C308 C 0.0406 0.3121 0.17282 0.0
C309 C 1.01143 0.31025 0.19763 0.0
C310 C 0.98891 0.30867 0.14356 0.0
C311 C 0.99529 0.30877 0.06662 0.0
C312 C 0.98326 0.32703 0.38427 0.0
C313 C 0.99081 0.30898 0.43518 0.0
C314 C 0.98999 0.32747 0.30746 0.0
C315 C 1.00443 0.30985 0.27951 0.0
C316 C 1.012 0.29178 0.33034 0.0
C317 C 1.00528 0.29136 0.40725 0.0
H318 H 0.76219 0.02711 0.78257 0.0
H319 H 0.68154 0.93121 0.73007 0.0
H320 H 0.77324 0.03834 0.64878 0.0
H321 H 0.69243 0.94275 0.59602 0.0
H322 H 0.69886 0.99153 0.36654 0.0
H323 H 0.68877 0.97893 0.50035 0.0
H324 H 0.79243 0.0208 0.53823 0.0
H325 H 0.80259 0.03302 0.40451 0.0
C326 C 0.74704 1.0082 0.74282 0.0
C327 C 0.7209 0.97818 0.7676 0.0
C328 C 0.75336 0.01473 0.66589 0.0
C329 C 0.73363 0.9915 0.61174 0.0
C330 C 0.70776 0.96137 0.63633 0.0
C331 C 0.70153 0.95475 0.71327 0.0
C332 C 0.71951 0.99776 0.40307 0.0
C333 C 0.75156 1.01331 0.37422 0.0
C334 C 0.7137 0.99053 0.47989 0.0
C335 C 0.7398 0.99884 0.52992 0.0
C336 C 0.77183 0.01446 0.50131 0.0
C337 C 0.77764 0.02153 0.42445 0.0
H338 H 0.74098 0.68881 0.70545 0.0
H339 H 0.80367 0.79221 0.74354 0.0
H340 H 0.7434 0.67866 0.83927 0.0
H341 H 0.80561 0.782 0.87726 0.0
H342 H 0.76897 0.75195 0.12155 0.0
H343 H 0.76876 0.76298 0.98777 0.0
H344 H 0.78329 0.68208 0.93496 0.0
H345 H 0.784 0.67122 0.06899 0.0
C346 C 0.75548 0.70938 0.74201 0.0
C347 C 0.77213 0.74135 0.71317 0.0
C348 C 0.75684 0.70354 0.81883 0.0
C349 C 0.77472 0.72953 0.86889 0.0
C350 C 0.79128 0.76148 0.84031 0.0
C351 C 0.79007 0.76732 0.76345 0.0
C352 C 0.77266 0.73677 0.0818 0.0
C353 C 0.7765 0.71062 0.10657 0.0
C354 C 0.77244 0.74308 0.00487 0.0
C355 C 0.77588 0.72334 0.95071 0.0
C356 C 0.78006 0.69743 0.97528 0.0
C357 C 0.78047 0.69121 0.05222 0.0
H358 H 0.11924 0.72967 0.40541 0.0
H359 H 0.08048 0.79383 0.44628 0.0
H360 H 0.10757 0.72893 0.2717 0.0
H361 H 0.06881 0.79312 0.3122 0.0
H362 H 1.02172 0.75657 0.08022 0.0
H363 H 0.03285 0.75669 0.21456 0.0
H364 H 0.12575 0.76427 0.16224 0.0
H365 H 0.1146 0.7641 0.02833 0.0
C366 C 0.10859 0.74395 0.38588 0.0
C367 C 0.10092 0.76191 0.43682 0.0
C368 C 0.10184 0.74348 0.30906 0.0
C369 C 0.08726 0.76098 0.28112 0.0
C370 C 0.0796 0.77897 0.33197 0.0
C371 C 0.08634 0.77942 0.40889 0.0
C372 C 0.04456 0.75838 0.09745 0.0
C373 C 0.06718 0.76021 0.04339 0.0
C374 C 0.05098 0.75852 0.17444 0.0
C375 C 0.08022 0.76052 0.19923 0.0
C376 C 0.10276 0.76218 0.14514 0.0
C377 C 0.09632 0.76201 0.0682 0.0
H378 H 0.4096 0.17505 0.16384 0.0
H379 H 0.30567 0.1281 0.12365 0.0
H380 H 0.40846 0.22092 0.22249 0.0
H381 H 0.3042 0.17366 0.18478 0.0
H382 H 0.31746 0.27382 0.24641 0.0
H383 H 0.31909 0.2299 0.17782 0.0
H384 H 0.39116 0.23427 0.33478 0.0
H385 H 0.39024 0.27865 0.40149 0.0
C386 C 0.38645 0.17452 0.16749 0.0
C387 C 0.35772 0.14783 0.1391 0.0
C388 C 0.38572 0.20079 0.2018 0.0
C389 C 0.35617 0.20106 0.20943 0.0
C390 C 0.3275 0.17461 0.17945 0.0
C391 C 0.32828 0.14836 0.14457 0.0
C392 C 0.33374 0.26547 0.26609 0.0
C393 C 0.35379 0.27993 0.32951 0.0
C394 C 0.33454 0.24009 0.22695 0.0
C395 C 0.35532 0.22838 0.25032 0.0
C396 C 0.37529 0.2429 0.31388 0.0
C397 C 0.37462 0.26834 0.35264 0.0
H398 H 0.21284 0.29414 0.45756 0.0
H399 H 0.27068 0.39679 0.50915 0.0
H400 H 0.16546 0.29233 0.51822 0.0
H401 H 0.22336 0.39529 0.5677 0.0
H402 H 0.14554 0.37404 0.74492 0.0
H403 H 0.19129 0.37548 0.67865 0.0
H404 H 0.12494 0.30894 0.5114 0.0
H405 H 0.07889 0.30683 0.57919 0.0
C406 C 0.21534 0.31641 0.48096 0.0
C407 C 0.24562 0.34557 0.47869 0.0
C408 C 0.18811 0.31543 0.51556 0.0
C409 C 0.19047 0.34361 0.54863 0.0
C410 C 0.22064 0.37292 0.54442 0.0
C411 C 0.2478 0.37385 0.51019 0.0
C412 C 0.14061 0.35975 0.69391 0.0
C413 C 0.10841 0.34035 0.66754 0.0
C414 C 0.16698 0.36073 0.65546 0.0
C415 C 0.16203 0.34246 0.58915 0.0
C416 C 0.12978 0.32307 0.56262 0.0
C417 C 0.10333 0.32202 0.60132 0.0
H418 H 0.80158 0.13431 0.06166 0.0
H419 H 0.80746 0.06665 0.90803 0.0
H420 H 0.84602 0.17968 0.99527 0.0
H421 H 0.8515 0.11232 0.83968 0.0
H422 H 0.95356 0.20168 0.78737 0.0
H423 H 0.90779 0.15423 0.84718 0.0
H424 H 0.85924 0.21001 0.88265 0.0
H425 H 0.90527 0.25739 0.82541 0.0
C426 C 0.81214 0.12907 0.01319 0.0
C427 C 0.80082 0.09672 0.99036 0.0
C428 C 0.83761 0.15523 0.97459 0.0
C429 C 0.85245 0.14991 0.91146 0.0
C430 C 0.84104 0.11748 0.88844 0.0
C431 C 0.8156 0.09124 0.92744 0.0
C432 C 0.93295 0.20365 0.80743 0.0
C433 C 0.93318 0.23339 0.80192 0.0
C434 C 0.9066 0.17639 0.84158 0.0
C435 C 0.87976 0.17818 0.87074 0.0
C436 C 0.87969 0.20774 0.8627 0.0
C437 C 0.90604 0.23494 0.82918 0.0
H438 H 0.68252 0.89599 0.16498 0.0
H439 H 0.78639 0.94245 0.12449 0.0
H440 H 0.68343 0.84996 0.22342 0.0
H441 H 0.78763 0.89676 0.1854 0.0
H442 H 0.70146 0.79185 0.40188 0.0
H443 H 0.70065 0.83632 0.33542 0.0
H444 H 0.77251 0.84051 0.17813 0.0
H445 H 0.77405 0.79651 0.24648 0.0
C446 C 0.70561 0.89638 0.16852 0.0
C447 C 0.73439 0.92298 0.14008 0.0
C448 C 0.7062 0.87002 0.20271 0.0
C449 C 0.73567 0.86956 0.21017 0.0
C450 C 0.76439 0.89594 0.18019 0.0
C451 C 0.76374 0.92227 0.14544 0.0
C452 C 0.71705 0.80214 0.35301 0.0
C453 C 0.73782 0.79049 0.32973 0.0
C454 C 0.71645 0.82763 0.31439 0.0
C455 C 0.7364 0.84215 0.25083 0.0
C456 C 0.75709 0.83035 0.22728 0.0
C457 C 0.75783 0.80491 0.26628 0.0
H458 H 0.94601 0.69647 0.74547 0.0
H459 H 1.01279 0.76396 0.58046 0.0
H460 H 0.90029 0.69499 0.67892 0.0
H461 H 0.96677 0.76181 0.51239 0.0
H462 H 0.82105 0.67369 0.50899 0.0
H463 H 0.86837 0.67524 0.56776 0.0
H464 H 0.92614 0.77826 0.51894 0.0
H465 H 0.87875 0.77639 0.45807 0.0
C466 C 0.95097 0.71082 0.69456 0.0
C467 C 0.9832 0.7303 0.66848 0.0
C468 C 0.92462 0.70981 0.65594 0.0
C469 C 0.92961 0.72815 0.58975 0.0
C470 C 0.96189 0.74763 0.56352 0.0
C471 C 0.98833 0.7487 0.60237 0.0
C472 C 0.8439 0.69665 0.51022 0.0
C473 C 0.84604 0.72493 0.47885 0.0
C474 C 0.87107 0.69762 0.54457 0.0
C475 C 0.90119 0.72695 0.54905 0.0
C476 C 0.90352 0.75514 0.51609 0.0
C477 C 0.87629 0.75412 0.48136 0.0
H478 H 0.1855 0.8128 0.83169 0.0
H479 H 0.13851 0.86926 0.78696 0.0
H480 H 0.23131 0.86013 0.8898 0.0
H481 H 0.1841 0.91669 0.84739 0.0
H482 H 0.28479 1.00376 0.90905 0.0
H483 H 0.2409 0.958 0.84063 0.0
H484 H 0.24367 0.89108 1.00201 0.0
H485 H 0.28795 0.93655 0.06874 0.0
C486 C 0.18497 0.8354 0.83412 0.0
C487 C 0.15825 0.83717 0.80474 0.0
C488 C 0.2112 0.86257 0.86813 0.0
C489 C 0.21143 0.89234 0.8744 0.0
C490 C 0.18503 0.89435 0.84318 0.0
C491 C 0.15879 0.8671 0.80867 0.0
C492 C 0.27611 0.97926 0.92975 0.0
C493 C 0.2901 0.97394 0.99442 0.0
C494 C 0.25074 0.95297 0.89069 0.0
C495 C 0.23862 0.92064 0.91533 0.0
C496 C 0.25264 0.91546 0.98018 0.0
C497 C 0.27802 0.94166 0.01893 0.0
loop_
_geom_bond_atom_site_label_1
_geom_bond_atom_site_label_2
_geom_bond_distance
_geom_bond_site_symmetry_2
_ccdc_geom_bond_type
Co0 N4 2.148 . S
Co0 N10 2.128 1_554 S
Co0 N20 2.194 . S
Co0 O25 2.351 . S
Co0 O26 2.155 . S
Co0 O27 2.096 1_545 S
C1 N4 1.301 . S
C1 N5 1.328 . S
C1 H6 0.930 . S
C2 C3 1.333 . S
C2 N4 1.317 1_565 S
C2 H7 0.930 . S
C3 C2 1.333 . S
C3 N5 1.350 1_565 S
C3 H29 0.931 . S
N4 Co0 2.148 . S
N4 C1 1.301 . S
N4 C2 1.317 1_545 S
N5 C1 1.328 . S
N5 C3 1.350 1_545 S
H6 C1 0.930 . S
H7 C2 0.930 . S
C8 O9 1.224 . S
C8 O27 1.247 . S
O9 C8 1.224 . S
N10 Co0 2.128 1_556 S
N10 C11 1.355 . S
N10 C13 1.311 . S
C11 N10 1.355 . S
C11 C12 1.363 . S
C11 H23 0.929 . S
C12 C11 1.363 . S
C12 N14 1.375 . S
C12 H30 0.931 . S
C13 N10 1.311 . S
C13 N14 1.347 . S
C13 H24 0.929 . S
N14 C12 1.375 . S
N14 C13 1.347 . S
C15 C18 1.365 . S
C15 N20 1.328 . S
C15 H21 0.929 . S
C16 C17 1.362 1_565 S
C16 C19 1.400 . S
C16 H31 0.929 . S
C17 C16 1.362 1_545 S
C17 C18 1.366 . S
C18 C15 1.365 . S
C18 C17 1.366 . S
C18 H32 0.930 . S
C19 C16 1.400 . S
C19 N20 1.277 1_565 S
C19 H22 0.948 . S
N20 Co0 2.194 . S
N20 C15 1.328 . S
N20 C19 1.277 1_545 S
H21 C15 0.929 . S
H22 C19 0.948 . S
H23 C11 0.929 . S
H24 C13 0.929 . S
O25 Co0 2.351 . S
O25 C28 1.244 . S
O26 Co0 2.155 . S
O26 C28 1.240 . S
O27 Co0 2.096 1_565 S
O27 C8 1.247 . S
C28 O25 1.244 . S
C28 O26 1.240 . S
H29 C3 0.931 . S
H30 C12 0.931 . S
H31 C16 0.929 . S
H32 C18 0.930 . S
Co33 N37 2.148 . S
Co33 N43 2.128 . S
Co33 N53 2.194 . S
Co33 O58 2.351 . S
Co33 O59 2.155 . S
Co33 O60 2.096 . S
C34 N37 1.301 . S
C34 N38 1.328 . S
C34 H39 0.930 . S
C35 C36 1.333 . S
C35 N37 1.317 . S
C35 H40 0.930 . S
C36 C35 1.333 . S
C36 N38 1.350 . S
C36 H62 0.931 . S
N37 Co33 2.148 . S
N37 C34 1.301 . S
N37 C35 1.317 . S
N38 C34 1.328 . S
N38 C36 1.350 . S
H39 C34 0.930 . S
H40 C35 0.930 . S
C41 O42 1.224 . S
C41 O60 1.247 . S
O42 C41 1.224 . S
N43 Co33 2.128 . S
N43 C44 1.355 . S
N43 C46 1.311 . S
C44 N43 1.355 . S
C44 C45 1.363 . S
C44 H56 0.929 . S
C45 C44 1.363 . S
C45 N47 1.375 . S
C45 H63 0.931 . S
C46 N43 1.311 . S
C46 N47 1.347 . S
C46 H57 0.929 . S
N47 C45 1.375 . S
N47 C46 1.347 . S
C48 C51 1.365 . S
C48 N53 1.328 . S
C48 H54 0.929 . S
C49 C50 1.362 . S
C49 C52 1.378 . S
C49 H64 0.929 . S
C50 C49 1.362 . S
C50 C51 1.366 . S
C51 C48 1.365 . S
C51 C50 1.366 . S
C51 H65 0.930 . S
C52 C49 1.378 . S
C52 N53 1.315 . S
C52 H55 0.930 . S
N53 Co33 2.194 . S
N53 C48 1.328 . S
N53 C52 1.315 . S
H54 C48 0.929 . S
H55 C52 0.930 . S
H56 C44 0.929 . S
H57 C46 0.929 . S
O58 Co33 2.351 . S
O58 C61 1.244 . S
O59 Co33 2.155 . S
O59 C61 1.240 . S
O60 Co33 2.096 . S
O60 C41 1.247 . S
C61 O58 1.244 . S
C61 O59 1.240 . S
H62 C36 0.931 . S
H63 C45 0.931 . S
H64 C49 0.929 . S
H65 C51 0.930 . S
Co66 N70 2.148 . S
Co66 N76 2.128 . S
Co66 N86 2.194 . S
Co66 O91 2.351 1_455 S
Co66 O92 2.155 1_455 S
Co66 O93 2.096 . S
C67 N70 1.301 . S
C67 N71 1.328 . S
C67 H72 0.930 . S
C68 C69 1.333 . S
C68 N70 1.317 . S
C68 H73 0.930 . S
C69 C68 1.333 . S
C69 N71 1.350 . S
C69 H95 0.931 . S
N70 Co66 2.148 . S
N70 C67 1.301 . S
N70 C68 1.317 . S
N71 C67 1.328 . S
N71 C69 1.350 . S
H72 C67 0.930 . S
H73 C68 0.930 . S
C74 O75 1.224 . S
C74 O93 1.247 . S
O75 C74 1.224 . S
N76 Co66 2.128 . S
N76 C77 1.355 1_455 S
N76 C79 1.311 . S
C77 N76 1.355 1_655 S
C77 C78 1.363 . S
C77 H89 0.929 . S
C78 C77 1.363 . S
C78 N80 1.375 1_655 S
C78 H96 0.931 . S
C79 N76 1.311 . S
C79 N80 1.347 . S
C79 H90 0.929 . S
N80 C78 1.375 1_455 S
N80 C79 1.347 . S
C81 C84 1.365 . S
C81 N86 1.328 1_655 S
C81 H87 0.929 . S
C82 C83 1.362 . S
C82 C85 1.378 . S
C82 H97 0.929 . S
C83 C82 1.362 . S
C83 C84 1.366 1_455 S
C84 C81 1.365 . S
C84 C83 1.366 1_655 S
C84 H98 0.930 . S
C85 C82 1.378 . S
C85 N86 1.315 . S
C85 H88 0.930 . S
N86 Co66 2.194 . S
N86 C81 1.328 1_455 S
N86 C85 1.315 . S
H87 C81 0.929 . S
H88 C85 0.930 . S
H89 C77 0.929 . S
H90 C79 0.929 . S
O91 Co66 2.351 1_655 S
O91 C94 1.244 . S
O92 Co66 2.155 1_655 S
O92 C94 1.240 . S
O93 Co66 2.096 . S
O93 C74 1.247 . S
C94 O91 1.244 . S
C94 O92 1.240 . S
H95 C69 0.931 . S
H96 C78 0.931 . S
H97 C82 0.929 . S
H98 C84 0.930 . S
Co99 N103 2.148 . S
Co99 N109 2.128 1_554 S
Co99 N119 2.194 . S
Co99 O124 2.351 1_545 S
Co99 O125 2.155 1_545 S
Co99 O126 2.096 . S
C100 N103 1.301 . S
C100 N104 1.328 . S
C100 H105 0.930 1_545 S
C101 C102 1.333 . S
C101 N103 1.317 . S
C101 H106 0.930 . S
C102 C101 1.333 . S
C102 N104 1.350 . S
C102 H128 0.931 . S
N103 Co99 2.148 . S
N103 C100 1.301 . S
N103 C101 1.317 . S
N104 C100 1.328 . S
N104 C102 1.350 . S
H105 C100 0.930 1_565 S
H106 C101 0.930 . S
C107 O108 1.224 . S
C107 O126 1.247 . S
O108 C107 1.224 . S
N109 Co99 2.128 1_556 S
N109 C110 1.355 1_545 S
N109 C112 1.311 . S
C110 N109 1.355 1_565 S
C110 C111 1.363 . S
C110 H122 0.929 . S
C111 C110 1.363 . S
C111 N113 1.375 1_565 S
C111 H129 0.931 . S
C112 N109 1.311 . S
C112 N113 1.347 . S
C112 H123 0.929 . S
N113 C111 1.375 1_545 S
N113 C112 1.347 . S
C114 C117 1.365 . S
C114 N119 1.328 1_565 S
C114 H120 0.929 . S
C115 C116 1.362 . S
C115 C118 1.378 . S
C115 H130 0.929 . S
C116 C115 1.362 . S
C116 C117 1.366 1_545 S
C117 C114 1.365 . S
C117 C116 1.366 1_565 S
C117 H131 0.930 . S
C118 C115 1.378 . S
C118 N119 1.315 . S
C118 H121 0.930 . S
N119 Co99 2.194 . S
N119 C114 1.328 1_545 S
N119 C118 1.315 . S
H120 C114 0.929 . S
H121 C118 0.930 . S
H122 C110 0.929 . S
H123 C112 0.929 . S
O124 Co99 2.351 1_565 S
O124 C127 1.244 . S
O125 Co99 2.155 1_565 S
O125 C127 1.240 . S
O126 Co99 2.096 . S
O126 C107 1.247 . S
C127 O124 1.244 . S
C127 O125 1.240 . S
H128 C102 0.931 . S
H129 C111 0.931 . S
H130 C115 0.929 . S
H131 C117 0.930 . S
Co132 N136 2.148 . S
Co132 N142 2.128 . S
Co132 N152 2.194 . S
Co132 O157 2.351 . S
Co132 O158 2.155 . S
Co132 O159 2.096 . S
C133 N136 1.301 . S
C133 N137 1.328 . S
C133 H138 0.930 . S
C134 C135 1.333 . S
C134 N136 1.317 . S
C134 H139 0.930 . S
C135 C134 1.333 . S
C135 N137 1.350 . S
C135 H161 0.931 . S
N136 Co132 2.148 . S
N136 C133 1.301 . S
N136 C134 1.317 . S
N137 C133 1.328 . S
N137 C135 1.350 . S
H138 C133 0.930 . S
H139 C134 0.930 . S
C140 O141 1.224 . S
C140 O159 1.247 . S
O141 C140 1.224 . S
N142 Co132 2.128 . S
N142 C143 1.355 . S
N142 C145 1.311 . S
C143 N142 1.355 . S
C143 C144 1.363 . S
C143 H155 0.929 . S
C144 C143 1.363 . S
C144 N146 1.375 . S
C144 H162 0.931 . S
C145 N142 1.311 . S
C145 N146 1.347 . S
C145 H156 0.929 . S
N146 C144 1.375 . S
N146 C145 1.347 . S
C147 C150 1.365 . S
C147 N152 1.328 . S
C147 H153 0.929 . S
C148 C149 1.362 . S
C148 C151 1.378 . S
C148 H163 0.929 . S
C149 C148 1.362 . S
C149 C150 1.366 . S
C150 C147 1.365 . S
C150 C149 1.366 . S
C150 H164 0.930 . S
C151 C148 1.378 . S
C151 N152 1.315 . S
C151 H154 0.930 . S
N152 Co132 2.194 . S
N152 C147 1.328 . S
N152 C151 1.315 . S
H153 C147 0.929 . S
H154 C151 0.930 . S
H155 C143 0.929 . S
H156 C145 0.929 . S
O157 Co132 2.351 . S
O157 C160 1.244 . S
O158 Co132 2.155 . S
O158 C160 1.240 . S
O159 Co132 2.096 . S
O159 C140 1.247 . S
C160 O157 1.244 . S
C160 O158 1.240 . S
H161 C135 0.931 . S
H162 C144 0.931 . S
H163 C148 0.929 . S
H164 C150 0.930 . S
Co165 N169 2.148 . S
Co165 N175 2.128 . S
Co165 N185 2.194 . S
Co165 O190 2.351 . S
Co165 O191 2.155 . S
Co165 O192 2.096 1_455 S
C166 N169 1.301 . S
C166 N170 1.328 . S
C166 H171 0.930 . S
C167 C168 1.333 . S
C167 N169 1.317 1_655 S
C167 H172 0.930 . S
C168 C167 1.333 . S
C168 N170 1.350 1_655 S
C168 H194 0.931 . S
N169 Co165 2.148 . S
N169 C166 1.301 . S
N169 C167 1.317 1_455 S
N170 C166 1.328 . S
N170 C168 1.350 1_455 S
H171 C166 0.930 . S
H172 C167 0.930 . S
C173 O174 1.224 . S
C173 O192 1.247 . S
O174 C173 1.224 . S
N175 Co165 2.128 . S
N175 C176 1.355 . S
N175 C178 1.311 . S
C176 N175 1.355 . S
C176 C177 1.363 . S
C176 H188 0.929 . S
C177 C176 1.363 . S
C177 N179 1.375 . S
C177 H195 0.931 . S
C178 N175 1.311 . S
C178 N179 1.347 . S
C178 H189 0.929 . S
N179 C177 1.375 . S
N179 C178 1.347 . S
C180 C183 1.365 . S
C180 N185 1.328 . S
C180 H186 0.929 . S
C181 C182 1.345 1_655 S
C181 C184 1.386 1_655 S
C181 H196 0.938 . S
C182 C181 1.345 1_455 S
C182 C183 1.366 . S
C183 C180 1.365 . S
C183 C182 1.366 . S
C183 H197 0.930 . S
C184 C181 1.386 1_455 S
C184 N185 1.315 . S
C184 H187 0.930 1_455 S
N185 Co165 2.194 . S
N185 C180 1.328 . S
N185 C184 1.315 . S
H186 C180 0.929 . S
H187 C184 0.930 1_655 S
H188 C176 0.929 . S
H189 C178 0.929 . S
O190 Co165 2.351 . S
O190 C193 1.244 . S
O191 Co165 2.155 . S
O191 C193 1.240 . S
O192 Co165 2.096 1_655 S
O192 C173 1.247 . S
C193 O190 1.244 . S
C193 O191 1.240 . S
H194 C168 0.931 . S
H195 C177 0.931 . S
H196 C181 0.938 . S
H197 C183 0.930 . S
H198 C206 0.950 . S
H199 C211 0.950 . S
H200 C208 0.950 . S
H201 C210 0.950 . S
H202 C212 0.950 . S
H203 C214 0.950 . S
H204 C216 0.950 . S
H205 C217 0.950 . S
C206 H198 0.950 . S
C206 C207 1.386 . S
C206 C208 1.391 . S
C207 C206 1.386 . S
C207 C211 1.393 1_545 S
C208 H200 0.950 . S
C208 C206 1.391 . S
C208 C209 1.400 . S
C209 C208 1.400 . S
C209 C210 1.398 1_545 S
C209 C215 1.491 . S
C210 H201 0.950 . S
C210 C209 1.398 1_565 S
C210 C211 1.391 . S
C211 H199 0.950 . S
C211 C207 1.393 1_565 S
C211 C210 1.391 . S
C212 H202 0.950 . S
C212 C213 1.386 1_565 S
C212 C214 1.391 . S
C213 C212 1.386 1_545 S
C213 C217 1.393 . S
C214 H203 0.950 . S
C214 C212 1.391 . S
C214 C215 1.400 1_565 S
C215 C209 1.491 . S
C215 C214 1.400 1_545 S
C215 C216 1.398 . S
C216 H204 0.950 . S
C216 C215 1.398 . S
C216 C217 1.391 . S
C217 H205 0.950 . S
C217 C213 1.393 . S
C217 C216 1.391 . S
H218 C226 0.950 . S
H219 C231 0.950 . S
H220 C228 0.950 . S
H221 C230 0.950 . S
H222 C232 0.950 . S
H223 C234 0.950 . S
H224 C236 0.950 . S
H225 C237 0.950 . S
C226 H218 0.950 . S
C226 C227 1.386 . S
C226 C228 1.391 . S
C227 C226 1.386 . S
C227 C231 1.393 . S
C228 H220 0.950 . S
C228 C226 1.391 . S
C228 C229 1.400 . S
C229 C228 1.400 . S
C229 C230 1.398 . S
C229 C235 1.491 . S
C230 H221 0.950 . S
C230 C229 1.398 . S
C230 C231 1.391 . S
C231 H219 0.950 . S
C231 C227 1.393 . S
C231 C230 1.391 . S
C232 H222 0.950 . S
C232 C233 1.386 . S
C232 C234 1.391 . S
C233 C232 1.386 . S
C233 C237 1.393 . S
C234 H223 0.950 . S
C234 C232 1.391 . S
C234 C235 1.400 . S
C235 C229 1.491 . S
C235 C234 1.400 . S
C235 C236 1.398 . S
C236 H224 0.950 . S
C236 C235 1.398 . S
C236 C237 1.391 . S
C237 H225 0.950 . S
C237 C233 1.393 . S
C237 C236 1.391 . S
H238 C246 0.950 . S
H239 C251 0.950 . S
H240 C248 0.950 . S
H241 C250 0.950 . S
H242 C252 0.950 . S
H243 C254 0.950 . S
H244 C256 0.950 . S
H245 C257 0.950 . S
C246 H238 0.950 . S
C246 C247 1.386 . S
C246 C248 1.391 . S
C247 C246 1.386 . S
C247 C251 1.393 . S
C248 H240 0.950 . S
C248 C246 1.391 . S
C248 C249 1.400 . S
C249 C248 1.400 . S
C249 C250 1.398 . S
C249 C255 1.491 . S
C250 H241 0.950 . S
C250 C249 1.398 . S
C250 C251 1.391 . S
C251 H239 0.950 . S
C251 C247 1.393 . S
C251 C250 1.391 . S
C252 H242 0.950 . S
C252 C253 1.386 . S
C252 C254 1.391 . S
C253 C252 1.386 . S
C253 C257 1.393 . S
C254 H243 0.950 . S
C254 C252 1.391 . S
C254 C255 1.400 . S
C255 C249 1.491 . S
C255 C254 1.400 . S
C255 C256 1.398 . S
C256 H244 0.950 . S
C256 C255 1.398 . S
C256 C257 1.391 . S
C257 H245 0.950 . S
C257 C253 1.393 . S
C257 C256 1.391 . S
H258 C266 0.950 . S
H259 C271 0.950 . S
H260 C268 0.950 . S
H261 C270 0.950 . S
H262 C272 0.950 1_565 S
H263 C274 0.950 1_565 S
H264 C276 0.950 . S
H265 C277 0.950 . S
C266 H258 0.950 . S
C266 C267 1.386 . S
C266 C268 1.391 . S
C267 C266 1.386 . S
C267 C271 1.393 1_545 S
C268 H260 0.950 . S
C268 C266 1.391 . S
C268 C269 1.400 . S
C269 C268 1.400 . S
C269 C270 1.398 1_545 S
C269 C275 1.491 . S
C270 H261 0.950 . S
C270 C269 1.398 1_565 S
C270 C271 1.391 . S
C271 H259 0.950 . S
C271 C267 1.393 1_565 S
C271 C270 1.391 . S
C272 H262 0.950 1_545 S
C272 C273 1.386 . S
C272 C274 1.391 . S
C273 C272 1.386 . S
C273 C277 1.393 . S
C274 H263 0.950 1_545 S
C274 C272 1.391 . S
C274 C275 1.400 . S
C275 C269 1.491 . S
C275 C274 1.400 . S
C275 C276 1.398 . S
C276 H264 0.950 . S
C276 C275 1.398 . S
C276 C277 1.391 . S
C277 H265 0.950 . S
C277 C273 1.393 . S
C277 C276 1.391 . S
H278 C286 0.950 . S
H279 C291 0.950 . S
H280 C288 0.950 . S
H281 C290 0.950 . S
H282 C292 0.950 . S
H283 C294 0.950 . S
H284 C296 0.950 . S
H285 C297 0.950 . S
C286 H278 0.950 . S
C286 C287 1.386 . S
C286 C288 1.391 . S
C287 C286 1.386 . S
C287 C291 1.393 . S
C288 H280 0.950 . S
C288 C286 1.391 . S
C288 C289 1.400 . S
C289 C288 1.400 . S
C289 C290 1.398 . S
C289 C295 1.491 . S
C290 H281 0.950 . S
C290 C289 1.398 . S
C290 C291 1.391 . S
C291 H279 0.950 . S
C291 C287 1.393 . S
C291 C290 1.391 . S
C292 H282 0.950 . S
C292 C293 1.386 . S
C292 C294 1.391 1_554 S
C293 C292 1.386 . S
C293 C297 1.393 . S
C294 H283 0.950 . S
C294 C292 1.391 1_556 S
C294 C295 1.400 . S
C295 C289 1.491 . S
C295 C294 1.400 . S
C295 C296 1.398 . S
C296 H284 0.950 . S
C296 C295 1.398 . S
C296 C297 1.391 1_556 S
C297 H285 0.950 . S
C297 C293 1.393 . S
C297 C296 1.391 1_554 S
H298 C306 0.950 . S
H299 C311 0.950 . S
H300 C308 0.950 . S
H301 C310 0.950 . S
H302 C312 0.950 1_655 S
H303 C314 0.950 . S
H304 C316 0.950 . S
H305 C317 0.950 . S
C306 H298 0.950 . S
C306 C307 1.386 . S
C306 C308 1.391 . S
C307 C306 1.386 . S
C307 C311 1.393 . S
C308 H300 0.950 . S
C308 C306 1.391 . S
C308 C309 1.400 . S
C309 C308 1.400 . S
C309 C310 1.398 . S
C309 C315 1.491 . S
C310 H301 0.950 . S
C310 C309 1.398 . S
C310 C311 1.391 . S
C311 H299 0.950 . S
C311 C307 1.393 . S
C311 C310 1.391 . S
C312 H302 0.950 1_455 S
C312 C313 1.386 . S
C312 C314 1.391 . S
C313 C312 1.386 . S
C313 C317 1.393 . S
C314 H303 0.950 . S
C314 C312 1.391 . S
C314 C315 1.400 . S
C315 C309 1.491 . S
C315 C314 1.400 . S
C315 C316 1.398 . S
C316 H304 0.950 . S
C316 C315 1.398 . S
C316 C317 1.391 . S
C317 H305 0.950 . S
C317 C313 1.393 . S
C317 C316 1.391 . S
H318 C326 0.931 1_565 S
H319 C331 0.950 . S
H320 C328 0.950 1_565 S
H321 C330 0.950 . S
H322 C332 0.950 . S
H323 C334 0.950 . S
H324 C336 0.950 . S
H325 C337 0.950 . S
C326 H318 0.931 1_545 S
C326 C327 1.401 . S
C326 C328 1.394 . S
C327 C326 1.401 . S
C327 C331 1.393 . S
C328 H320 0.950 1_545 S
C328 C326 1.394 . S
C328 C329 1.400 . S
C329 C328 1.400 . S
C329 C330 1.398 . S
C329 C335 1.491 . S
C330 H321 0.950 . S
C330 C329 1.398 . S
C330 C331 1.391 . S
C331 H319 0.950 . S
C331 C327 1.393 . S
C331 C330 1.391 . S
C332 H322 0.950 . S
C332 C333 1.386 . S
C332 C334 1.391 . S
C333 C332 1.386 . S
C333 C337 1.393 . S
C334 H323 0.950 . S
C334 C332 1.391 . S
C334 C335 1.400 . S
C335 C329 1.491 . S
C335 C334 1.400 . S
C335 C336 1.398 . S
C336 H324 0.950 . S
C336 C335 1.398 . S
C336 C337 1.391 . S
C337 H325 0.950 . S
C337 C333 1.393 . S
C337 C336 1.391 . S
H338 C346 0.950 . S
H339 C351 0.950 . S
H340 C348 0.950 . S
H341 C350 0.950 . S
H342 C352 0.950 . S
H343 C354 0.950 . S
H344 C356 0.950 . S
H345 C357 0.950 . S
C346 H338 0.950 . S
C346 C347 1.386 . S
C346 C348 1.391 . S
C347 C346 1.386 . S
C347 C351 1.393 . S
C348 H340 0.950 . S
C348 C346 1.391 . S
C348 C349 1.400 . S
C349 C348 1.400 . S
C349 C350 1.398 . S
C349 C355 1.491 . S
C350 H341 0.950 . S
C350 C349 1.398 . S
C350 C351 1.391 . S
C351 H339 0.950 . S
C351 C347 1.393 . S
C351 C350 1.391 . S
C352 H342 0.950 . S
C352 C353 1.386 . S
C352 C354 1.391 1_554 S
C353 C352 1.386 . S
C353 C357 1.393 . S
C354 H343 0.950 . S
C354 C352 1.391 1_556 S
C354 C355 1.400 . S
C355 C349 1.491 . S
C355 C354 1.400 . S
C355 C356 1.398 . S
C356 H344 0.950 . S
C356 C355 1.398 . S
C356 C357 1.391 1_556 S
C357 H345 0.950 . S
C357 C353 1.393 . S
C357 C356 1.391 1_554 S
H358 C366 0.950 . S
H359 C371 0.950 1_655 S
H360 C368 0.950 . S
H361 C370 0.918 1_655 S
H362 C372 0.950 . S
H363 C374 0.950 . S
H364 C376 0.950 . S
H365 C377 0.950 . S
C366 H358 0.950 . S
C366 C367 1.386 . S
C366 C368 1.391 . S
C367 C366 1.386 . S
C367 C371 1.393 . S
C368 H360 0.950 . S
C368 C366 1.391 . S
C368 C369 1.400 . S
C369 C368 1.400 . S
C369 C370 1.427 . S
C369 C375 1.491 . S
C370 H361 0.918 1_455 S
C370 C369 1.427 . S
C370 C371 1.394 . S
C371 H359 0.950 1_455 S
C371 C367 1.393 . S
C371 C370 1.394 . S
C372 H362 0.950 . S
C372 C373 1.386 1_655 S
C372 C374 1.391 . S
C373 C372 1.386 1_455 S
C373 C377 1.393 . S
C374 H363 0.950 . S
C374 C372 1.391 . S
C374 C375 1.400 1_655 S
C375 C369 1.491 . S
C375 C374 1.400 1_455 S
C375 C376 1.398 . S
C376 H364 0.950 . S
C376 C375 1.398 . S
C376 C377 1.391 . S
C377 H365 0.950 . S
C377 C373 1.393 . S
C377 C376 1.391 . S
H378 C386 0.950 . S
H379 C391 0.950 . S
H380 C388 0.950 . S
H381 C390 0.950 . S
H382 C392 0.950 . S
H383 C394 0.950 . S
H384 C396 0.950 . S
H385 C397 0.950 . S
C386 H378 0.950 . S
C386 C387 1.386 . S
C386 C388 1.391 . S
C387 C386 1.386 . S
C387 C391 1.393 . S
C388 H380 0.950 . S
C388 C386 1.391 . S
C388 C389 1.400 . S
C389 C388 1.400 . S
C389 C390 1.398 . S
C389 C395 1.491 . S
C390 H381 0.950 . S
C390 C389 1.398 . S
C390 C391 1.391 . S
C391 H379 0.950 . S
C391 C387 1.393 . S
C391 C390 1.391 . S
C392 H382 0.950 . S
C392 C393 1.386 . S
C392 C394 1.391 . S
C393 C392 1.386 . S
C393 C397 1.393 . S
C394 H383 0.950 . S
C394 C392 1.391 . S
C394 C395 1.400 . S
C395 C389 1.491 . S
C395 C394 1.400 . S
C395 C396 1.398 . S
C396 H384 0.950 . S
C396 C395 1.398 . S
C396 C397 1.391 . S
C397 H385 0.950 . S
C397 C393 1.393 . S
C397 C396 1.391 . S
H398 C406 0.950 . S
H399 C411 0.950 . S
H400 C408 0.950 . S
H401 C410 0.950 . S
H402 C412 0.950 . S
H403 C414 0.950 . S
H404 C416 0.950 . S
H405 C417 0.950 . S
C406 H398 0.950 . S
C406 C407 1.386 . S
C406 C408 1.391 . S
C407 C406 1.386 . S
C407 C411 1.393 . S
C408 H400 0.950 . S
C408 C406 1.391 . S
C408 C409 1.400 . S
C409 C408 1.400 . S
C409 C410 1.398 . S
C409 C415 1.491 . S
C410 H401 0.950 . S
C410 C409 1.398 . S
C410 C411 1.391 . S
C411 H399 0.950 . S
C411 C407 1.393 . S
C411 C410 1.391 . S
C412 H402 0.950 . S
C412 C413 1.386 . S
C412 C414 1.391 . S
C413 C412 1.386 . S
C413 C417 1.393 . S
C414 H403 0.950 . S
C414 C412 1.391 . S
C414 C415 1.400 . S
C415 C409 1.491 . S
C415 C414 1.400 . S
C415 C416 1.398 . S
C416 H404 0.950 . S
C416 C415 1.398 . S
C416 C417 1.391 . S
C417 H405 0.950 . S
C417 C413 1.393 . S
C417 C416 1.391 . S
H418 C426 0.950 . S
H419 C431 0.950 . S
H420 C428 0.950 1_554 S
H421 C430 0.950 . S
H422 C432 0.950 . S
H423 C434 0.950 . S
H424 C436 0.950 . S
H425 C437 0.950 . S
C426 H418 0.950 . S
C426 C427 1.386 1_554 S
C426 C428 1.391 1_554 S
C427 C426 1.386 1_556 S
C427 C431 1.393 . S
C428 H420 0.950 1_556 S
C428 C426 1.391 1_556 S
C428 C429 1.400 . S
C429 C428 1.400 . S
C429 C430 1.398 . S
C429 C435 1.491 . S
C430 H421 0.950 . S
C430 C429 1.398 . S
C430 C431 1.391 . S
C431 H419 0.950 . S
C431 C427 1.393 . S
C431 C430 1.391 . S
C432 H422 0.950 . S
C432 C433 1.386 . S
C432 C434 1.391 . S
C433 C432 1.386 . S
C433 C437 1.393 . S
C434 H423 0.950 . S
C434 C432 1.391 . S
C434 C435 1.400 . S
C435 C429 1.491 . S
C435 C434 1.400 . S
C435 C436 1.398 . S
C436 H424 0.950 . S
C436 C435 1.398 . S
C436 C437 1.391 . S
C437 H425 0.950 . S
C437 C433 1.393 . S
C437 C436 1.391 . S
H438 C446 0.950 . S
H439 C451 0.950 . S
H440 C448 0.950 . S
H441 C450 0.950 . S
H442 C452 0.950 . S
H443 C454 0.950 . S
H444 C456 0.950 . S
H445 C457 0.950 . S
C446 H438 0.950 . S
C446 C447 1.386 . S
C446 C448 1.391 . S
C447 C446 1.386 . S
C447 C451 1.393 . S
C448 H440 0.950 . S
C448 C446 1.391 . S
C448 C449 1.400 . S
C449 C448 1.400 . S
C449 C450 1.398 . S
C449 C455 1.491 . S
C450 H441 0.950 . S
C450 C449 1.398 . S
C450 C451 1.391 . S
C451 H439 0.950 . S
C451 C447 1.393 . S
C451 C450 1.391 . S
C452 H442 0.950 . S
C452 C453 1.386 . S
C452 C454 1.391 . S
C453 C452 1.386 . S
C453 C457 1.393 . S
C454 H443 0.950 . S
C454 C452 1.391 . S
C454 C455 1.400 . S
C455 C449 1.491 . S
C455 C454 1.400 . S
C455 C456 1.398 . S
C456 H444 0.950 . S
C456 C455 1.398 . S
C456 C457 1.391 . S
C457 H445 0.950 . S
C457 C453 1.393 . S
C457 C456 1.391 . S
H458 C466 0.950 . S
H459 C471 0.950 . S
H460 C468 0.950 . S
H461 C470 0.950 . S
H462 C472 0.950 . S
H463 C474 0.950 . S
H464 C476 0.950 . S
H465 C477 0.950 . S
C466 H458 0.950 . S
C466 C467 1.386 . S
C466 C468 1.391 . S
C467 C466 1.386 . S
C467 C471 1.393 . S
C468 H460 0.950 . S
C468 C466 1.391 . S
C468 C469 1.400 . S
C469 C468 1.400 . S
C469 C470 1.398 . S
C469 C475 1.491 . S
C470 H461 0.950 . S
C470 C469 1.398 . S
C470 C471 1.391 . S
C471 H459 0.950 . S
C471 C467 1.393 . S
C471 C470 1.391 . S
C472 H462 0.950 . S
C472 C473 1.386 . S
C472 C474 1.391 . S
C473 C472 1.386 . S
C473 C477 1.393 . S
C474 H463 0.950 . S
C474 C472 1.391 . S
C474 C475 1.400 . S
C475 C469 1.491 . S
C475 C474 1.400 . S
C475 C476 1.398 . S
C476 H464 0.950 . S
C476 C475 1.398 . S
C476 C477 1.391 . S
C477 H465 0.950 . S
C477 C473 1.393 . S
C477 C476 1.391 . S
H478 C486 0.950 . S
H479 C491 0.950 . S
H480 C488 0.950 . S
H481 C490 0.950 . S
H482 C492 0.950 . S
H483 C494 0.950 . S
H484 C496 0.950 . S
H485 C497 0.950 . S
C486 H478 0.950 . S
C486 C487 1.386 . S
C486 C488 1.391 . S
C487 C486 1.386 . S
C487 C491 1.393 . S
C488 H480 0.950 . S
C488 C486 1.391 . S
C488 C489 1.400 . S
C489 C488 1.400 . S
C489 C490 1.398 . S
C489 C495 1.491 . S
C490 H481 0.950 . S
C490 C489 1.398 . S
C490 C491 1.391 . S
C491 H479 0.950 . S
C491 C487 1.393 . S
C491 C490 1.391 . S
C492 H482 0.950 . S
C492 C493 1.386 . S
C492 C494 1.391 . S
C493 C492 1.386 . S
C493 C497 1.393 . S
C494 H483 0.950 . S
C494 C492 1.391 . S
C494 C495 1.400 . S
C495 C489 1.491 . S
C495 C494 1.400 . S
C495 C496 1.398 . S
C496 H484 0.950 . S
C496 C495 1.398 . S
C496 C497 1.391 . S
C497 H485 0.950 . S
C497 C493 1.393 . S
C497 C496 1.391 . S
C207 C17 1.589 . S
C213 C116 1.593 . S
C227 C149 1.594 . S
C233 C50 1.589 . S
C247 C83 1.592 . S
C253 C182 1.591 . S
C267 N5 1.202 . S
C273 N14 1.197 . S
C287 N38 1.206 . S
C293 N47 1.201 . S
C307 N71 1.208 1_554 S
C313 N80 1.204 . S
C327 N113 1.198 . S
C333 N104 1.203 . S
C347 N137 1.217 . S
C353 N146 1.214 . S
C367 N179 1.199 . S
C373 N170 1.205 1_554 S
C387 C28 1.517 . S
C393 C41 1.513 . S
C407 C61 1.510 . S
C413 C74 1.503 . S
C427 C107 1.511 1_556 S
C433 C94 1.515 . S
C447 C127 1.513 . S
C453 C140 1.507 . S
C467 C173 1.505 . S
C473 C160 1.511 . S
C487 C193 1.517 . S
C493 C8 1.513 1_556 S
