# Generated by pormake.
# Topology unx, (4)-cn, num edge types: 1
# Building blocks:
#     Node 0, Type 0, BuildingBlock: QUQFOY_clean_sbu_1, # of connection points: 4
#     Node 1, Type 0, BuildingBlock: QUQFOY_clean_sbu_1, # of connection points: 4
#     Node 2, Type 0, BuildingBlock: QUQFOY_clean_sbu_1, # of connection points: 4
#     Node 3, Type 0, BuildingBlock: QUQFOY_clean_sbu_1, # of connection points: 4
#     Node 4, Type 0, BuildingBlock: QUQFOY_clean_sbu_1, # of connection points: 4
#     Node 5, Type 0, BuildingBlock: QUQFOY_clean_sbu_1, # of connection points: 4
#     Node 6, Type 0, BuildingBlock: QUQFOY_clean_sbu_1, # of connection points: 4
#     Node 7, Type 0, BuildingBlock: QUQFOY_clean_sbu_1, # of connection points: 4
#     Node 8, Type 0, BuildingBlock: QUQFOY_clean_sbu_1, # of connection points: 4
#     Node 9, Type 0, BuildingBlock: QUQFOY_clean_sbu_1, # of connection points: 4
#     Node 10, Type 0, BuildingBlock: QUQFOY_clean_sbu_1, # of connection points: 4
#     Node 11, Type 0, BuildingBlock: QUQFOY_clean_sbu_1, # of connection points: 4
#     Node 12, Type 0, BuildingBlock: QUQFOY_clean_sbu_1, # of connection points: 4
#     Node 13, Type 0, BuildingBlock: QUQFOY_clean_sbu_1, # of connection points: 4
#     Node 14, Type 0, BuildingBlock: QUQFOY_clean_sbu_1, # of connection points: 4
#     Node 15, Type 0, BuildingBlock: QUQFOY_clean_sbu_1, # of connection points: 4
#     Node 16, Type 0, BuildingBlock: QUQFOY_clean_sbu_1, # of connection points: 4
#     Node 17, Type 0, BuildingBlock: QUQFOY_clean_sbu_1, # of connection points: 4
#     Node 18, Type 0, BuildingBlock: QUQFOY_clean_sbu_1, # of connection points: 4
#     Node 19, Type 0, BuildingBlock: QUQFOY_clean_sbu_1, # of connection points: 4
#     Node 20, Type 0, BuildingBlock: QUQFOY_clean_sbu_1, # of connection points: 4
#     Node 21, Type 0, BuildingBlock: QUQFOY_clean_sbu_1, # of connection points: 4
#     Node 22, Type 0, BuildingBlock: QUQFOY_clean_sbu_1, # of connection points: 4
#     Node 23, Type 0, BuildingBlock: QUQFOY_clean_sbu_1, # of connection points: 4
#     Node 24, Type 0, BuildingBlock: QUQFOY_clean_sbu_1, # of connection points: 4
#     Node 25, Type 0, BuildingBlock: QUQFOY_clean_sbu_1, # of connection points: 4
#     Node 26, Type 0, BuildingBlock: QUQFOY_clean_sbu_1, # of connection points: 4
#     Node 27, Type 0, BuildingBlock: QUQFOY_clean_sbu_1, # of connection points: 4
#     Node 28, Type 0, BuildingBlock: QUQFOY_clean_sbu_1, # of connection points: 4
#     Node 29, Type 0, BuildingBlock: QUQFOY_clean_sbu_1, # of connection points: 4
#     Node 30, Type 0, BuildingBlock: QUQFOY_clean_sbu_1, # of connection points: 4
#     Node 31, Type 0, BuildingBlock: QUQFOY_clean_sbu_1, # of connection points: 4
#     Node 32, Type 0, BuildingBlock: QUQFOY_clean_sbu_1, # of connection points: 4
#     Node 33, Type 0, BuildingBlock: QUQFOY_clean_sbu_1, # of connection points: 4
#     Node 34, Type 0, BuildingBlock: QUQFOY_clean_sbu_1, # of connection points: 4
#     Node 35, Type 0, BuildingBlock: QUQFOY_clean_sbu_1, # of connection points: 4
#     Node 36, Type 0, BuildingBlock: QUQFOY_clean_sbu_1, # of connection points: 4
#     Node 37, Type 0, BuildingBlock: QUQFOY_clean_sbu_1, # of connection points: 4
#     Node 38, Type 0, BuildingBlock: QUQFOY_clean_sbu_1, # of connection points: 4
#     Node 39, Type 0, BuildingBlock: QUQFOY_clean_sbu_1, # of connection points: 4
#     Node 40, Type 0, BuildingBlock: QUQFOY_clean_sbu_1, # of connection points: 4
#     Node 41, Type 0, BuildingBlock: QUQFOY_clean_sbu_1, # of connection points: 4
#     Node 42, Type 0, BuildingBlock: QUQFOY_clean_sbu_1, # of connection points: 4
#     Node 43, Type 0, BuildingBlock: QUQFOY_clean_sbu_1, # of connection points: 4
#     Node 44, Type 0, BuildingBlock: QUQFOY_clean_sbu_1, # of connection points: 4
#     Node 45, Type 0, BuildingBlock: QUQFOY_clean_sbu_1, # of connection points: 4
#     Node 46, Type 0, BuildingBlock: QUQFOY_clean_sbu_1, # of connection points: 4
#     Node 47, Type 0, BuildingBlock: QUQFOY_clean_sbu_1, # of connection points: 4
#     Edge 48, Type (0, 0), BuildingBlock: KIFKEQ_clean_linker_1, # of connection points: 2
#     Edge 49, Type (0, 0), BuildingBlock: KIFKEQ_clean_linker_1, # of connection points: 2
#     Edge 50, Type (0, 0), BuildingBlock: KIFKEQ_clean_linker_1, # of connection points: 2
#     Edge 51, Type (0, 0), BuildingBlock: KIFKEQ_clean_linker_1, # of connection points: 2
#     Edge 52, Type (0, 0), BuildingBlock: KIFKEQ_clean_linker_1, # of connection points: 2
#     Edge 53, Type (0, 0), BuildingBlock: KIFKEQ_clean_linker_1, # of connection points: 2
#     Edge 54, Type (0, 0), BuildingBlock: KIFKEQ_clean_linker_1, # of connection points: 2
#     Edge 55, Type (0, 0), BuildingBlock: KIFKEQ_clean_linker_1, # of connection points: 2
#     Edge 56, Type (0, 0), BuildingBlock: KIFKEQ_clean_linker_1, # of connection points: 2
#     Edge 57, Type (0, 0), BuildingBlock: KIFKEQ_clean_linker_1, # of connection points: 2
#     Edge 58, Type (0, 0), BuildingBlock: KIFKEQ_clean_linker_1, # of connection points: 2
#     Edge 59, Type (0, 0), BuildingBlock: KIFKEQ_clean_linker_1, # of connection points: 2
#     Edge 60, Type (0, 0), BuildingBlock: KIFKEQ_clean_linker_1, # of connection points: 2
#     Edge 61, Type (0, 0), BuildingBlock: KIFKEQ_clean_linker_1, # of connection points: 2
#     Edge 62, Type (0, 0), BuildingBlock: KIFKEQ_clean_linker_1, # of connection points: 2
#     Edge 63, Type (0, 0), BuildingBlock: KIFKEQ_clean_linker_1, # of connection points: 2
#     Edge 64, Type (0, 0), BuildingBlock: KIFKEQ_clean_linker_1, # of connection points: 2
#     Edge 65, Type (0, 0), BuildingBlock: KIFKEQ_clean_linker_1, # of connection points: 2
#     Edge 66, Type (0, 0), BuildingBlock: KIFKEQ_clean_linker_1, # of connection points: 2
#     Edge 67, Type (0, 0), BuildingBlock: KIFKEQ_clean_linker_1, # of connection points: 2
#     Edge 68, Type (0, 0), BuildingBlock: KIFKEQ_clean_linker_1, # of connection points: 2
#     Edge 69, Type (0, 0), BuildingBlock: KIFKEQ_clean_linker_1, # of connection points: 2
#     Edge 70, Type (0, 0), BuildingBlock: KIFKEQ_clean_linker_1, # of connection points: 2
#     Edge 71, Type (0, 0), BuildingBlock: KIFKEQ_clean_linker_1, # of connection points: 2
#     Edge 72, Type (0, 0), BuildingBlock: KIFKEQ_clean_linker_1, # of connection points: 2
#     Edge 73, Type (0, 0), BuildingBlock: KIFKEQ_clean_linker_1, # of connection points: 2
#     Edge 74, Type (0, 0), BuildingBlock: KIFKEQ_clean_linker_1, # of connection points: 2
#     Edge 75, Type (0, 0), BuildingBlock: KIFKEQ_clean_linker_1, # of connection points: 2
#     Edge 76, Type (0, 0), BuildingBlock: KIFKEQ_clean_linker_1, # of connection points: 2
#     Edge 77, Type (0, 0), BuildingBlock: KIFKEQ_clean_linker_1, # of connection points: 2
#     Edge 78, Type (0, 0), BuildingBlock: KIFKEQ_clean_linker_1, # of connection points: 2
#     Edge 79, Type (0, 0), BuildingBlock: KIFKEQ_clean_linker_1, # of connection points: 2
#     Edge 80, Type (0, 0), BuildingBlock: KIFKEQ_clean_linker_1, # of connection points: 2
#     Edge 81, Type (0, 0), BuildingBlock: KIFKEQ_clean_linker_1, # of connection points: 2
#     Edge 82, Type (0, 0), BuildingBlock: KIFKEQ_clean_linker_1, # of connection points: 2
#     Edge 83, Type (0, 0), BuildingBlock: KIFKEQ_clean_linker_1, # of connection points: 2
#     Edge 84, Type (0, 0), BuildingBlock: KIFKEQ_clean_linker_1, # of connection points: 2
#     Edge 85, Type (0, 0), BuildingBlock: KIFKEQ_clean_linker_1, # of connection points: 2
#     Edge 86, Type (0, 0), BuildingBlock: KIFKEQ_clean_linker_1, # of connection points: 2
#     Edge 87, Type (0, 0), BuildingBlock: KIFKEQ_clean_linker_1, # of connection points: 2
#     Edge 88, Type (0, 0), BuildingBlock: KIFKEQ_clean_linker_1, # of connection points: 2
#     Edge 89, Type (0, 0), BuildingBlock: KIFKEQ_clean_linker_1, # of connection points: 2
#     Edge 90, Type (0, 0), BuildingBlock: KIFKEQ_clean_linker_1, # of connection points: 2
#     Edge 91, Type (0, 0), BuildingBlock: KIFKEQ_clean_linker_1, # of connection points: 2
#     Edge 92, Type (0, 0), BuildingBlock: KIFKEQ_clean_linker_1, # of connection points: 2
#     Edge 93, Type (0, 0), BuildingBlock: KIFKEQ_clean_linker_1, # of connection points: 2
#     Edge 94, Type (0, 0), BuildingBlock: KIFKEQ_clean_linker_1, # of connection points: 2
#     Edge 95, Type (0, 0), BuildingBlock: KIFKEQ_clean_linker_1, # of connection points: 2
#     Edge 96, Type (0, 0), BuildingBlock: KIFKEQ_clean_linker_1, # of connection points: 2
#     Edge 97, Type (0, 0), BuildingBlock: KIFKEQ_clean_linker_1, # of connection points: 2
#     Edge 98, Type (0, 0), BuildingBlock: KIFKEQ_clean_linker_1, # of connection points: 2
#     Edge 99, Type (0, 0), BuildingBlock: KIFKEQ_clean_linker_1, # of connection points: 2
#     Edge 100, Type (0, 0), BuildingBlock: KIFKEQ_clean_linker_1, # of connection points: 2
#     Edge 101, Type (0, 0), BuildingBlock: KIFKEQ_clean_linker_1, # of connection points: 2
#     Edge 102, Type (0, 0), BuildingBlock: KIFKEQ_clean_linker_1, # of connection points: 2
#     Edge 103, Type (0, 0), BuildingBlock: KIFKEQ_clean_linker_1, # of connection points: 2
#     Edge 104, Type (0, 0), BuildingBlock: KIFKEQ_clean_linker_1, # of connection points: 2
#     Edge 105, Type (0, 0), BuildingBlock: KIFKEQ_clean_linker_1, # of connection points: 2
#     Edge 106, Type (0, 0), BuildingBlock: KIFKEQ_clean_linker_1, # of connection points: 2
#     Edge 107, Type (0, 0), BuildingBlock: KIFKEQ_clean_linker_1, # of connection points: 2
#     Edge 108, Type (0, 0), BuildingBlock: KIFKEQ_clean_linker_1, # of connection points: 2
#     Edge 109, Type (0, 0), BuildingBlock: KIFKEQ_clean_linker_1, # of connection points: 2
#     Edge 110, Type (0, 0), BuildingBlock: KIFKEQ_clean_linker_1, # of connection points: 2
#     Edge 111, Type (0, 0), BuildingBlock: KIFKEQ_clean_linker_1, # of connection points: 2
#     Edge 112, Type (0, 0), BuildingBlock: KIFKEQ_clean_linker_1, # of connection points: 2
#     Edge 113, Type (0, 0), BuildingBlock: KIFKEQ_clean_linker_1, # of connection points: 2
#     Edge 114, Type (0, 0), BuildingBlock: KIFKEQ_clean_linker_1, # of connection points: 2
#     Edge 115, Type (0, 0), BuildingBlock: KIFKEQ_clean_linker_1, # of connection points: 2
#     Edge 116, Type (0, 0), BuildingBlock: KIFKEQ_clean_linker_1, # of connection points: 2
#     Edge 117, Type (0, 0), BuildingBlock: KIFKEQ_clean_linker_1, # of connection points: 2
#     Edge 118, Type (0, 0), BuildingBlock: KIFKEQ_clean_linker_1, # of connection points: 2
#     Edge 119, Type (0, 0), BuildingBlock: KIFKEQ_clean_linker_1, # of connection points: 2
#     Edge 120, Type (0, 0), BuildingBlock: KIFKEQ_clean_linker_1, # of connection points: 2
#     Edge 121, Type (0, 0), BuildingBlock: KIFKEQ_clean_linker_1, # of connection points: 2
#     Edge 122, Type (0, 0), BuildingBlock: KIFKEQ_clean_linker_1, # of connection points: 2
#     Edge 123, Type (0, 0), BuildingBlock: KIFKEQ_clean_linker_1, # of connection points: 2
#     Edge 124, Type (0, 0), BuildingBlock: KIFKEQ_clean_linker_1, # of connection points: 2
#     Edge 125, Type (0, 0), BuildingBlock: KIFKEQ_clean_linker_1, # of connection points: 2
#     Edge 126, Type (0, 0), BuildingBlock: KIFKEQ_clean_linker_1, # of connection points: 2
#     Edge 127, Type (0, 0), BuildingBlock: KIFKEQ_clean_linker_1, # of connection points: 2
#     Edge 128, Type (0, 0), BuildingBlock: KIFKEQ_clean_linker_1, # of connection points: 2
#     Edge 129, Type (0, 0), BuildingBlock: KIFKEQ_clean_linker_1, # of connection points: 2
#     Edge 130, Type (0, 0), BuildingBlock: KIFKEQ_clean_linker_1, # of connection points: 2
#     Edge 131, Type (0, 0), BuildingBlock: KIFKEQ_clean_linker_1, # of connection points: 2
#     Edge 132, Type (0, 0), BuildingBlock: KIFKEQ_clean_linker_1, # of connection points: 2
#     Edge 133, Type (0, 0), BuildingBlock: KIFKEQ_clean_linker_1, # of connection points: 2
#     Edge 134, Type (0, 0), BuildingBlock: KIFKEQ_clean_linker_1, # of connection points: 2
#     Edge 135, Type (0, 0), BuildingBlock: KIFKEQ_clean_linker_1, # of connection points: 2
#     Edge 136, Type (0, 0), BuildingBlock: KIFKEQ_clean_linker_1, # of connection points: 2
#     Edge 137, Type (0, 0), BuildingBlock: KIFKEQ_clean_linker_1, # of connection points: 2
#     Edge 138, Type (0, 0), BuildingBlock: KIFKEQ_clean_linker_1, # of connection points: 2
#     Edge 139, Type (0, 0), BuildingBlock: KIFKEQ_clean_linker_1, # of connection points: 2
#     Edge 140, Type (0, 0), BuildingBlock: KIFKEQ_clean_linker_1, # of connection points: 2
#     Edge 141, Type (0, 0), BuildingBlock: KIFKEQ_clean_linker_1, # of connection points: 2
#     Edge 142, Type (0, 0), BuildingBlock: KIFKEQ_clean_linker_1, # of connection points: 2
#     Edge 143, Type (0, 0), BuildingBlock: KIFKEQ_clean_linker_1, # of connection points: 2
# Relax obj value: 0.334
# Max RMSD: 0.120
# Mean RMSD: 0.120
data_MOF--net-unx--node1-QUQFOY_clean_sbu_1--edge1-KIFKEQ_clean_linker_1
_symmetry_space_group_name_H-M    P1
_symmetry_Int_Tables_number       1
_symmetry_cell_setting            triclinic
loop_
_symmetry_equiv_pos_as_xyz
'x, y, z'
_cell_length_a     62.577839
_cell_length_b     62.645606
_cell_length_c     62.654705
_cell_angle_alpha  90.027087
_cell_angle_beta   89.983891
_cell_angle_gamma 89.996025
loop_
_atom_site_label
_atom_site_type_symbol
_atom_site_fract_x
_atom_site_fract_y
_atom_site_fract_z
_atom_type_partial_charge
O0 O 0.15043 0.55819 0.20316 0.0
Cd1 Cd 0.14401 0.54969 0.23399 0.0
Cd2 Cd 0.11596 0.52744 0.20996 0.0
O3 O 0.14257 0.52669 0.19005 0.0
O4 O 0.16953 0.56177 0.24837 0.0
O5 O 0.16408 0.52705 0.24495 0.0
C6 C 0.17678 0.54257 0.24986 0.0
C7 C 0.08649 0.50495 0.209 0.0
C8 C 0.15259 0.5443 0.1886 0.0
C9 C 0.1026 0.56698 0.23369 0.0
O10 O 0.10263 0.55665 0.21626 0.0
O11 O 0.1175 0.56412 0.24716 0.0
O12 O 0.09231 0.51553 0.19237 0.0
O13 O 0.09934 0.5045 0.22514 0.0
O14 O 0.6915 0.3505 0.44288 0.0
Cd15 Cd 0.7185 0.36882 0.44523 0.0
Cd16 Cd 0.69447 0.38419 0.47274 0.0
O17 O 0.68444 0.35293 0.47702 0.0
O18 O 0.73911 0.35111 0.42917 0.0
O19 O 0.73979 0.35482 0.46439 0.0
C20 C 0.74597 0.34461 0.4475 0.0
C21 C 0.70682 0.41035 0.49502 0.0
C22 C 0.68255 0.34298 0.45943 0.0
C23 C 0.69837 0.40769 0.43349 0.0
O24 O 0.68429 0.39967 0.44571 0.0
O25 O 0.71701 0.39959 0.43322 0.0
O26 O 0.68711 0.40414 0.49601 0.0
O27 O 0.72022 0.39892 0.48415 0.0
O28 O 0.85074 0.96868 0.69111 0.0
Cd29 Cd 0.862 0.9593 0.72052 0.0
Cd30 Cd 0.89442 0.98206 0.69894 0.0
O31 O 0.87016 0.99679 0.68259 0.0
O32 O 0.83689 0.94162 0.72902 0.0
O33 O 0.84417 0.97261 0.74405 0.0
C34 C 0.831 0.95698 0.74129 0.0
C35 C 0.9286 0.99594 0.70502 0.0
C36 C 0.85377 0.98517 0.67973 0.0
C37 C 0.89766 0.93546 0.70394 0.0
O38 O 0.89796 0.95077 0.69076 0.0
O39 O 0.88705 0.93712 0.7212 0.0
O40 O 0.92107 0.99371 0.68604 0.0
O41 O 0.91581 0.99252 0.72084 0.0
O42 O 0.29735 0.15651 0.96801 0.0
Cd43 Cd 0.26764 0.1514 0.95549 0.0
Cd44 Cd 0.28784 0.10881 0.98285 0.0
O45 O 0.31046 0.13177 0.98952 0.0
O46 O 0.26927 0.17614 0.93569 0.0
O47 O 0.24674 0.17522 0.96262 0.0
C48 C 0.25566 0.18594 0.94746 0.0
C49 C 0.29243 0.07519 0.9987 0.0
C50 C 0.31182 0.14985 0.98048 0.0
C51 C 0.27187 0.10863 0.93466 0.0
O52 O 0.28099 0.10237 0.9516 0.0
O53 O 0.2637 0.12718 0.93337 0.0
O54 O 0.30673 0.08366 0.98675 0.0
O55 O 0.27593 0.0866 0.00339 0.0
O56 O 0.1026 0.45554 0.79971 0.0
Cd57 Cd 0.11205 0.48606 0.79312 0.0
Cd58 Cd 0.14403 0.45961 0.77481 0.0
O59 O 0.11867 0.43832 0.77353 0.0
O60 O 0.08664 0.50119 0.80458 0.0
O61 O 0.09372 0.49925 0.7701 0.0
C62 C 0.08049 0.504 0.7852 0.0
C63 C 0.17507 0.45732 0.75429 0.0
C64 C 0.10437 0.43915 0.78796 0.0
C65 C 0.15232 0.48517 0.81521 0.0
O66 O 0.15465 0.46818 0.80442 0.0
O67 O 0.13696 0.49783 0.81127 0.0
O68 O 0.16894 0.44177 0.76621 0.0
O69 O 0.1621 0.47316 0.75174 0.0
O70 O 0.81323 0.39321 0.04943 0.0
Cd71 Cd 0.80416 0.38455 0.01939 0.0
Cd72 Cd 0.7811 0.36002 0.04427 0.0
O73 O 0.78107 0.38803 0.06226 0.0
O74 O 0.81443 0.40928 0.00251 0.0
O75 O 0.78014 0.40288 0.00856 0.0
C76 C 0.79486 0.4158 0.00198 0.0
C77 C 0.75645 0.33254 0.04331 0.0
C78 C 0.79911 0.39735 0.06334 0.0
C79 C 0.8199 0.34264 0.02297 0.0
O80 O 0.80963 0.34444 0.04035 0.0
O81 O 0.81781 0.35663 0.00843 0.0
O82 O 0.7656 0.33794 0.06094 0.0
O83 O 0.75852 0.34512 0.02706 0.0
O84 O 0.90377 0.05841 0.28158 0.0
Cd85 Cd 0.89027 0.03037 0.29189 0.0
Cd86 Cd 0.86094 0.05103 0.26638 0.0
O87 O 0.88683 0.06453 0.25135 0.0
O88 O 0.91402 0.02076 0.31082 0.0
O89 O 0.90674 0.00546 0.27989 0.0
C90 C 0.91963 0.00789 0.29582 0.0
C91 C 0.82784 0.04207 0.25192 0.0
C92 C 0.90265 0.06775 0.26364 0.0
C93 C 0.85381 0.04971 0.31216 0.0
O94 O 0.85565 0.06232 0.29646 0.0
O95 O 0.86369 0.03195 0.31198 0.0
O96 O 0.83483 0.06143 0.25163 0.0
O97 O 0.84084 0.02725 0.25805 0.0
O98 O 0.20631 0.10257 0.56516 0.0
Cd99 Cd 0.19907 0.11517 0.53587 0.0
Cd100 Cd 0.22797 0.14148 0.55474 0.0
O101 O 0.23953 0.11363 0.5682 0.0
O102 O 0.17735 0.09353 0.52771 0.0
O103 O 0.20912 0.09551 0.51246 0.0
C104 C 0.19169 0.08492 0.51572 0.0
C105 C 0.24634 0.17141 0.54313 0.0
C106 C 0.22488 0.10042 0.57292 0.0
C107 C 0.1844 0.1558 0.55111 0.0
O108 O 0.19866 0.15199 0.56497 0.0
O109 O 0.18378 0.14462 0.53416 0.0
O110 O 0.24649 0.16577 0.56295 0.0
O111 O 0.23831 0.15824 0.52939 0.0
O112 O 0.19855 0.85565 0.4505 0.0
Cd113 Cd 0.22833 0.86698 0.4572 0.0
Cd114 Cd 0.19993 0.89512 0.47845 0.0
O115 O 0.18205 0.86714 0.47932 0.0
O116 O 0.24557 0.84296 0.4457 0.0
O117 O 0.24271 0.84965 0.48022 0.0
C118 C 0.24862 0.83691 0.4651 0.0
C119 C 0.19305 0.92513 0.49952 0.0
C120 C 0.18308 0.8544 0.46352 0.0
C121 C 0.22321 0.90778 0.43741 0.0
O122 O 0.20677 0.90811 0.44924 0.0
O123 O 0.23732 0.89338 0.4397 0.0
O124 O 0.17876 0.91719 0.4871 0.0
O125 O 0.21034 0.91424 0.50236 0.0
O126 O 0.35386 0.44442 0.69559 0.0
Cd127 Cd 0.36495 0.44937 0.72573 0.0
Cd128 Cd 0.38973 0.47372 0.70093 0.0
O129 O 0.36076 0.47698 0.68476 0.0
O130 O 0.34134 0.43669 0.74268 0.0
O131 O 0.34735 0.4715 0.7408 0.0
C132 C 0.33486 0.45593 0.74613 0.0
C133 C 0.41852 0.49694 0.70297 0.0
C134 C 0.34978 0.45993 0.68326 0.0
C135 C 0.40586 0.4322 0.7175 0.0
O136 O 0.40362 0.44413 0.70128 0.0
O137 O 0.39296 0.43371 0.73311 0.0
O138 O 0.41202 0.48965 0.68484 0.0
O139 O 0.40653 0.4938 0.7195 0.0
O140 O 0.80947 0.64621 0.96242 0.0
Cd141 Cd 0.7791 0.63532 0.95832 0.0
Cd142 Cd 0.79913 0.60573 0.98479 0.0
O143 O 0.81585 0.63273 0.99429 0.0
O144 O 0.76728 0.65974 0.94176 0.0
O145 O 0.75863 0.65327 0.97539 0.0
C146 C 0.75845 0.66609 0.95922 0.0
C147 C 0.79262 0.57495 0.0045 0.0
C148 C 0.81958 0.64658 0.97994 0.0
C149 C 0.79032 0.59492 0.93943 0.0
O150 O 0.80403 0.59501 0.95434 0.0
O151 O 0.77525 0.60856 0.9393 0.0
O152 O 0.8118 0.5814 0.00069 0.0
O153 O 0.77706 0.58769 -0.00017 0.0
O154 O 0.6501 0.04571 0.19927 0.0
Cd155 Cd 0.63814 0.04479 0.22957 0.0
Cd156 Cd 0.60726 0.0236 0.20322 0.0
O157 O 0.63372 0.01851 0.18395 0.0
O158 O 0.66243 0.05909 0.24422 0.0
O159 O 0.65549 0.02477 0.24808 0.0
C160 C 0.66839 0.04062 0.25094 0.0
C161 C 0.57585 0.00368 0.20414 0.0
C162 C 0.6488 0.03214 0.1843 0.0
C163 C 0.59805 0.06692 0.22172 0.0
O164 O 0.59694 0.05432 0.20593 0.0
O165 O 0.61227 0.06447 0.23601 0.0
O166 O 0.58266 0.01206 0.18666 0.0
O167 O 0.58846 0.00391 0.22047 0.0
O168 O 0.55315 0.20396 0.09953 0.0
Cd169 Cd 0.52301 0.20528 0.11182 0.0
Cd170 Cd 0.5473 0.22928 0.13908 0.0
O171 O 0.56521 0.23467 0.11175 0.0
O172 O 0.50778 0.19047 0.08832 0.0
O173 O 0.50473 0.22512 0.09431 0.0
C174 C 0.50162 0.20898 0.08182 0.0
C175 C 0.54332 0.25093 0.16883 0.0
C176 C 0.56623 0.21937 0.09843 0.0
C177 C 0.5326 0.18624 0.15249 0.0
O178 O 0.54815 0.19918 0.15152 0.0
O179 O 0.51737 0.18746 0.13911 0.0
O180 O 0.56191 0.24463 0.16262 0.0
O181 O 0.52732 0.24781 0.15615 0.0
O182 O 0.04882 0.80413 0.38649 0.0
Cd183 Cd 0.01888 0.79996 0.37425 0.0
Cd184 Cd 0.04489 0.77568 0.34998 0.0
O185 O 0.06179 0.7726 0.37837 0.0
O186 O 0.00287 0.81634 0.39607 0.0
O187 O 0.00063 0.78127 0.39302 0.0
C188 C 0.99669 0.79837 0.40387 0.0
C189 C 0.04292 0.75264 0.3212 0.0
C190 C 0.0623 0.7894 0.38979 0.0
C191 C 0.02843 0.81704 0.33342 0.0
O192 O 0.04467 0.80518 0.33592 0.0
O193 O 0.01261 0.81554 0.34602 0.0
O194 O 0.06103 0.75999 0.32769 0.0
O195 O 0.02641 0.75544 0.33332 0.0
O196 O 0.44751 0.27892 0.60157 0.0
Cd197 Cd 0.47714 0.29134 0.60708 0.0
Cd198 Cd 0.45734 0.26398 0.64836 0.0
O199 O 0.43425 0.25694 0.62576 0.0
O200 O 0.47697 0.31099 0.58204 0.0
O201 O 0.49865 0.28341 0.58416 0.0
C202 C 0.49073 0.29879 0.57296 0.0
C203 C 0.45876 0.24612 0.68109 0.0
C204 C 0.43297 0.26631 0.60781 0.0
C205 C 0.47249 0.31185 0.65006 0.0
O206 O 0.46269 0.29522 0.65618 0.0
O207 O 0.48109 0.313 0.6317 0.0
O208 O 0.44184 0.25593 0.67491 0.0
O209 O 0.47427 0.24424 0.66764 0.0
O210 O 0.9511 0.69537 0.8584 0.0
Cd211 Cd 0.95427 0.72448 0.87352 0.0
Cd212 Cd 0.96846 0.69172 0.90124 0.0
O213 O 0.97551 0.67522 0.87375 0.0
O214 O 0.93785 0.74128 0.85242 0.0
O215 O 0.9728 0.74431 0.85613 0.0
C216 C 0.95574 0.74843 0.84528 0.0
C217 C 0.98391 0.68852 0.93473 0.0
C218 C 0.96295 0.6789 0.85825 0.0
C219 C 0.93019 0.71521 0.9112 0.0
O220 O 0.93684 0.69662 0.90699 0.0
O221 O 0.93823 0.73121 0.90177 0.0
O222 O 0.97428 0.67268 0.92582 0.0
O223 O 0.98759 0.70529 0.92328 0.0
O224 O 0.05616 0.68786 0.10496 0.0
Cd225 Cd 0.02787 0.69346 0.1205 0.0
Cd226 Cd 0.05359 0.71975 0.13659 0.0
O227 O 0.06606 0.72136 0.10595 0.0
O228 O 0.00811 0.67674 0.10242 0.0
O229 O 0.00854 0.7121 0.10307 0.0
C230 C 0.00232 0.69462 0.09397 0.0
C231 C 0.0447 0.7442 0.1622 0.0
C232 C 0.06724 0.70301 0.09733 0.0
C233 C 0.04371 0.68228 0.16128 0.0
O234 O 0.05946 0.69239 0.15347 0.0
O235 O 0.02572 0.68325 0.15189 0.0
O236 O 0.06437 0.74196 0.15622 0.0
O237 O 0.02986 0.73563 0.15058 0.0
O238 O 0.45023 0.78832 0.09588 0.0
Cd239 Cd 0.48167 0.79263 0.1036 0.0
Cd240 Cd 0.46034 0.76862 0.1412 0.0
O241 O 0.43703 0.76432 0.11822 0.0
O242 O 0.4903 0.80903 0.07776 0.0
O243 O 0.50145 0.77622 0.08386 0.0
C244 C 0.50004 0.79227 0.07102 0.0
C245 C 0.46066 0.74901 0.17293 0.0
C246 C 0.43537 0.7758 0.10157 0.0
C247 C 0.47875 0.81428 0.14561 0.0
O248 O 0.46655 0.79905 0.15097 0.0
O249 O 0.48853 0.81418 0.1278 0.0
O250 O 0.44414 0.75962 0.16704 0.0
O251 O 0.47628 0.7473 0.15958 0.0
O252 O 0.45575 0.18994 0.85366 0.0
Cd253 Cd 0.45439 0.21914 0.86808 0.0
Cd254 Cd 0.47947 0.19657 0.89361 0.0
O255 O 0.4877 0.18118 0.86547 0.0
O256 O 0.43969 0.23554 0.8454 0.0
O257 O 0.47405 0.23941 0.85299 0.0
C258 C 0.45824 0.24278 0.84013 0.0
C259 C 0.50011 0.20534 0.92287 0.0
C260 C 0.47277 0.1791 0.85187 0.0
C261 C 0.43584 0.20566 0.90784 0.0
O262 O 0.44966 0.19099 0.90573 0.0
O263 O 0.43635 0.22188 0.89565 0.0
O264 O 0.49752 0.18571 0.91718 0.0
O265 O 0.49381 0.22013 0.9099 0.0
O266 O 0.55768 0.28347 0.40081 0.0
Cd267 Cd 0.52948 0.29035 0.38551 0.0
Cd268 Cd 0.55348 0.26479 0.35942 0.0
O269 O 0.56747 0.25286 0.38669 0.0
O270 O 0.51909 0.31171 0.40658 0.0
O271 O 0.50425 0.28 0.40274 0.0
C272 C 0.50617 0.2974 0.41365 0.0
C273 C 0.54446 0.24785 0.32785 0.0
C274 C 0.56891 0.26661 0.40153 0.0
C275 C 0.54803 0.30897 0.34763 0.0
O276 O 0.56234 0.29514 0.35134 0.0
O277 O 0.53018 0.30772 0.35725 0.0
O278 O 0.564 0.24856 0.33437 0.0
O279 O 0.52963 0.25404 0.34084 0.0
O280 O 0.16066 0.03845 0.69328 0.0
Cd281 Cd 0.14595 0.04206 0.72222 0.0
Cd282 Cd 0.11934 0.01687 0.69818 0.0
O283 O 0.14691 0.00797 0.68228 0.0
O284 O 0.16847 0.05949 0.73632 0.0
O285 O 0.16217 0.02587 0.74487 0.0
C286 C 0.17444 0.04243 0.74609 0.0
C287 C 0.08858 0.9971 0.70477 0.0
C288 C 0.16136 0.02221 0.68121 0.0
C289 C 0.1074 0.0618 0.70623 0.0
O290 O 0.10928 0.04727 0.69225 0.0
O291 O 0.11875 0.06113 0.72308 0.0
O292 O 0.0952 0.00052 0.68558 0.0
O293 O 0.10107 0.00235 0.72035 0.0
O294 O 0.69667 0.84403 0.96875 0.0
Cd295 Cd 0.72631 0.85616 0.96216 0.0
Cd296 Cd 0.70372 0.88652 0.98634 0.0
O297 O 0.68633 0.86099 0.9978 0.0
O298 O 0.737 0.83183 0.94457 0.0
O299 O 0.74924 0.83877 0.97685 0.0
C300 C 0.74813 0.82592 0.96076 0.0
C301 C 0.70945 0.9196 0.00258 0.0
C302 C 0.68423 0.84563 0.98468 0.0
C303 C 0.71061 0.89331 0.93992 0.0
O304 O 0.69736 0.89327 0.95522 0.0
O305 O 0.72728 0.88169 0.9409 0.0
O306 O 0.69047 0.91225 -0.00042 0.0
O307 O 0.72533 0.9069 0.99904 0.0
O308 O 0.85145 0.46209 0.20096 0.0
Cd309 Cd 0.86034 0.46171 0.2323 0.0
Cd310 Cd 0.89402 0.48331 0.20857 0.0
O311 O 0.86926 0.48932 0.18748 0.0
O312 O 0.83474 0.44654 0.24362 0.0
O313 O 0.84105 0.48058 0.25007 0.0
C314 C 0.82807 0.46457 0.25082 0.0
C315 C 0.92648 0.50167 0.20952 0.0
C316 C 0.8542 0.47573 0.18626 0.0
C317 C 0.89995 0.43861 0.22655 0.0
O318 O 0.90271 0.45209 0.2117 0.0
O319 O 0.88493 0.44102 0.24002 0.0
O320 O 0.91958 0.49305 0.19222 0.0
O321 O 0.91366 0.50241 0.22566 0.0
O322 O 0.29653 0.64926 0.46171 0.0
Cd323 Cd 0.26449 0.64393 0.4591 0.0
Cd324 Cd 0.29135 0.59925 0.47374 0.0
O325 O 0.31484 0.62247 0.47587 0.0
O326 O 0.25724 0.67154 0.4451 0.0
O327 O 0.24726 0.66404 0.47795 0.0
C328 C 0.24887 0.67781 0.46273 0.0
C329 C 0.29933 0.56424 0.48495 0.0
C330 C 0.31385 0.64145 0.4687 0.0
C331 C 0.26185 0.60434 0.4327 0.0
O332 O 0.27513 0.59613 0.44558 0.0
O333 O 0.25444 0.62303 0.43558 0.0
O334 O 0.30971 0.57343 0.46986 0.0
O335 O 0.28544 0.57555 0.49515 0.0
O336 O 0.10191 0.94573 0.29218 0.0
Cd337 Cd 0.11151 0.97652 0.29641 0.0
Cd338 Cd 0.145 0.95496 0.27022 0.0
O339 O 0.1184 0.9369 0.26222 0.0
O340 O 0.08653 0.98698 0.31327 0.0
O341 O 0.09241 0.9964 0.27979 0.0
C342 C 0.07975 0.99594 0.29608 0.0
C343 C 0.17642 0.95635 0.25012 0.0
C344 C 0.10341 0.93414 0.27565 0.0
C345 C 0.1532 0.96885 0.31596 0.0
O346 O 0.15531 0.95514 0.3012 0.0
O347 O 0.13772 0.98202 0.31585 0.0
O348 O 0.16928 0.93863 0.25765 0.0
O349 O 0.16428 0.97297 0.2516 0.0
O350 O 0.81377 0.90096 0.55356 0.0
Cd351 Cd 0.80975 0.88423 0.52583 0.0
Cd352 Cd 0.78434 0.86332 0.55154 0.0
O353 O 0.7816 0.8932 0.56545 0.0
O354 O 0.81933 0.90517 0.50423 0.0
O355 O 0.78528 0.89676 0.50968 0.0
C356 C 0.79934 0.90952 0.50147 0.0
C357 C 0.75884 0.83666 0.54987 0.0
C358 C 0.798 0.90519 0.56558 0.0
C359 C 0.8255 0.84339 0.53942 0.0
O360 O 0.81268 0.8473 0.55461 0.0
O361 O 0.82554 0.85521 0.52292 0.0
O362 O 0.76571 0.84378 0.56792 0.0
O363 O 0.76399 0.84704 0.53279 0.0
O364 O 0.90061 0.55086 0.78826 0.0
Cd365 Cd 0.89019 0.52005 0.78993 0.0
Cd366 Cd 0.85565 0.54516 0.77001 0.0
O367 O 0.88008 0.5668 0.76441 0.0
O368 O 0.91581 0.50825 0.8045 0.0
O369 O 0.9081 0.50088 0.77097 0.0
C370 C 0.9216 0.50021 0.78654 0.0
C371 C 0.82339 0.54339 0.75144 0.0
C372 C 0.8967 0.56654 0.7761 0.0
C373 C 0.85092 0.52644 0.81462 0.0
O374 O 0.84704 0.54098 0.8011 0.0
O375 O 0.86647 0.51361 0.81207 0.0
O376 O 0.82965 0.56076 0.76042 0.0
O377 O 0.83677 0.52772 0.75044 0.0
O378 O 0.20592 0.59612 0.04423 0.0
Cd379 Cd 0.20596 0.6042 0.01267 0.0
Cd380 Cd 0.23011 0.63607 0.03392 0.0
O381 O 0.23559 0.61147 0.05532 0.0
O382 O 0.19071 0.57859 0.00172 0.0
O383 O 0.22491 0.58453 0.99544 0.0
C384 C 0.20881 0.57162 0.9949 0.0
C385 C 0.25028 0.66739 0.03221 0.0
C386 C 0.22073 0.59786 0.05793 0.0
C387 C 0.18514 0.64475 0.0178 0.0
O388 O 0.19933 0.64685 0.0321 0.0
O389 O 0.1862 0.62942 0.00453 0.0
O390 O 0.24186 0.66093 0.04976 0.0
O391 O 0.24984 0.65455 0.01609 0.0
O392 O 0.19378 0.35604 0.93979 0.0
Cd393 Cd 0.22187 0.37209 0.94471 0.0
Cd394 Cd 0.19729 0.38739 0.97169 0.0
O395 O 0.18606 0.35628 0.97384 0.0
O396 O 0.24187 0.35398 0.92843 0.0
O397 O 0.24109 0.35535 0.96383 0.0
C398 C 0.24728 0.34579 0.94657 0.0
C399 C 0.20837 0.41268 0.99544 0.0
C400 C 0.18409 0.34774 0.95552 0.0
C401 C 0.20514 0.41252 0.93421 0.0
O402 O 0.18979 0.40437 0.94469 0.0
O403 O 0.22335 0.40351 0.9348 0.0
O404 O 0.18854 0.40682 0.99489 0.0
O405 O 0.22237 0.40101 0.98559 0.0
O406 O 0.3577 0.93825 0.19147 0.0
Cd407 Cd 0.36725 0.94485 0.22179 0.0
Cd408 Cd 0.3891 0.9706 0.19813 0.0
O409 O 0.35978 0.97186 0.18213 0.0
O410 O 0.34343 0.93257 0.23876 0.0
O411 O 0.34884 0.96737 0.23518 0.0
C412 C 0.3365 0.95186 0.24105 0.0
C413 C 0.41608 0.99526 0.20249 0.0
C414 C 0.35153 0.95344 0.17963 0.0
C415 C 0.40887 0.93065 0.21393 0.0
O416 O 0.40531 0.94215 0.19763 0.0
O417 O 0.39622 0.93143 0.22981 0.0
O418 O 0.41036 0.98911 0.18367 0.0
O419 O 0.40383 0.99043 0.21843 0.0
O420 O 0.80133 0.15135 0.47362 0.0
Cd421 Cd 0.77204 0.14986 0.45949 0.0
Cd422 Cd 0.79239 0.10384 0.48444 0.0
O423 O 0.81578 0.12569 0.49292 0.0
O424 O 0.77653 0.17577 0.44149 0.0
O425 O 0.75222 0.17463 0.46678 0.0
C426 C 0.76254 0.18563 0.45276 0.0
C427 C 0.79316 0.06863 0.49741 0.0
C428 C 0.81645 0.14441 0.48511 0.0
C429 C 0.77639 0.10865 0.43602 0.0
O430 O 0.78526 0.1013 0.45268 0.0
O431 O 0.76803 0.12718 0.43579 0.0
O432 O 0.80887 0.07667 0.48698 0.0
O433 O 0.7776 0.08119 0.50244 0.0
O434 O 0.65101 0.54578 0.69633 0.0
Cd435 Cd 0.63569 0.54479 0.72527 0.0
Cd436 Cd 0.61118 0.52445 0.69766 0.0
O437 O 0.6392 0.5156 0.68277 0.0
O438 O 0.65795 0.55924 0.74264 0.0
O439 O 0.65138 0.5246 0.74469 0.0
C440 C 0.66383 0.54054 0.74888 0.0
C441 C 0.57875 0.50686 0.7017 0.0
C442 C 0.65298 0.53052 0.68313 0.0
C443 C 0.59991 0.56755 0.7101 0.0
O444 O 0.60438 0.55598 0.69412 0.0
O445 O 0.60794 0.56305 0.7282 0.0
O446 O 0.5863 0.5111 0.68301 0.0
O447 O 0.59103 0.50994 0.71802 0.0
O448 O 0.54711 0.69629 0.60123 0.0
Cd449 Cd 0.51768 0.70427 0.61279 0.0
Cd450 Cd 0.54647 0.72283 0.64097 0.0
O451 O 0.56499 0.72402 0.61338 0.0
O452 O 0.50017 0.69343 0.58868 0.0
O453 O 0.50448 0.72782 0.59521 0.0
C454 C 0.4982 0.71291 0.5824 0.0
C455 C 0.54846 0.74437 0.67109 0.0
C456 C 0.56307 0.70871 0.60014 0.0
C457 C 0.52187 0.68358 0.65337 0.0
O458 O 0.53961 0.69338 0.65306 0.0
O459 O 0.50763 0.68758 0.63947 0.0
O460 O 0.5648 0.73365 0.66463 0.0
O461 O 0.53204 0.74547 0.65862 0.0
O462 O 0.05337 0.28732 0.90469 0.0
Cd463 Cd 0.02305 0.29375 0.89481 0.0
Cd464 Cd 0.04277 0.26838 0.86166 0.0
O465 O 0.06265 0.25872 0.88634 0.0
O466 O 0.01374 0.31052 0.92023 0.0
O467 O 0.00148 0.27825 0.91318 0.0
C468 C 0.00318 0.29402 0.92636 0.0
C469 C 0.03669 0.24951 0.83008 0.0
C470 C 0.06564 0.27146 0.90187 0.0
C471 C 0.03367 0.31544 0.85501 0.0
O472 O 0.04574 0.29944 0.85206 0.0
O473 O 0.02012 0.31558 0.87016 0.0
O474 O 0.05566 0.25468 0.83607 0.0
O475 O 0.02126 0.25248 0.84345 0.0
O476 O 0.95007 0.18824 0.33929 0.0
Cd477 Cd 0.9479 0.21596 0.35677 0.0
Cd478 Cd 0.97114 0.18855 0.37972 0.0
O479 O 0.98144 0.17718 0.35065 0.0
O480 O 0.93155 0.23351 0.33602 0.0
O481 O 0.96594 0.23842 0.34264 0.0
C482 C 0.94954 0.24197 0.33058 0.0
C483 C 0.98941 0.19139 0.41187 0.0
C484 C 0.96688 0.17722 0.33653 0.0
C485 C 0.92816 0.19697 0.39322 0.0
O486 O 0.94006 0.1819 0.38689 0.0
O487 O 0.93107 0.21563 0.38571 0.0
O488 O 0.98585 0.17307 0.40314 0.0
O489 O 0.98513 0.20832 0.40086 0.0
O490 O 0.05274 0.22279 0.59451 0.0
Cd491 Cd 0.02418 0.21003 0.6042 0.0
Cd492 Cd 0.04374 0.23744 0.63851 0.0
O493 O 0.06273 0.24984 0.6147 0.0
O494 O 0.02253 0.18902 0.58032 0.0
O495 O 1.00015 0.21593 0.58302 0.0
C496 C 0.00761 0.20027 0.57189 0.0
C497 C 0.0361 0.25393 0.67113 0.0
C498 C 0.06519 0.23836 0.59817 0.0
C499 C 0.03932 0.18995 0.64396 0.0
O500 O 0.05073 0.20655 0.64593 0.0
O501 O 0.02437 0.18927 0.63018 0.0
O502 O 0.05542 0.25104 0.66474 0.0
O503 O 0.0209 0.24993 0.65779 0.0
O504 O 0.46528 0.69198 0.35067 0.0
Cd505 Cd 0.45918 0.72182 0.36237 0.0
Cd506 Cd 0.48497 0.70218 0.39258 0.0
O507 O 0.4953 0.68374 0.36721 0.0
O508 O 0.44249 0.73316 0.33788 0.0
O509 O 0.47525 0.74396 0.34547 0.0
C510 C 0.45938 0.74346 0.33229 0.0
C511 C 0.50339 0.71041 0.42378 0.0
C512 C 0.48196 0.68059 0.35223 0.0
C513 C 0.43879 0.7089 0.40175 0.0
O514 O 0.45456 0.69623 0.40253 0.0
O515 O 0.4384 0.7239 0.38808 0.0
O516 O 0.50038 0.69094 0.4179 0.0
O517 O 0.49875 0.72533 0.41033 0.0
O518 O 0.55679 0.81352 0.89227 0.0
Cd519 Cd 0.5269 0.80585 0.88168 0.0
Cd520 Cd 0.55223 0.7822 0.85836 0.0
O521 O 0.56748 0.78052 0.88792 0.0
O522 O 0.50854 0.81617 0.9053 0.0
O523 O 0.51464 0.78187 0.8989 0.0
C524 C 0.5074 0.79655 0.91153 0.0
C525 C 0.54996 0.75792 0.8308 0.0
C526 C 0.569 0.79829 0.89766 0.0
C527 C 0.53328 0.82087 0.83973 0.0
O528 O 0.55071 0.81104 0.843 0.0
O529 O 0.51783 0.81875 0.85272 0.0
O530 O 0.56825 0.76531 0.83682 0.0
O531 O 0.53356 0.76139 0.84292 0.0
O532 O 0.59273 0.45356 0.28915 0.0
Cd533 Cd 0.59929 0.48547 0.29047 0.0
Cd534 Cd 0.63557 0.46391 0.26824 0.0
O535 O 0.61226 0.44116 0.26256 0.0
O536 O 0.57324 0.49418 0.30656 0.0
O537 O 0.57836 0.50284 0.27286 0.0
C538 C 0.56577 0.50205 0.28916 0.0
C539 C 0.66815 0.46479 0.24991 0.0
C540 C 0.59702 0.43894 0.27581 0.0
C541 C 0.63961 0.48267 0.31336 0.0
O542 O 0.64399 0.46866 0.29939 0.0
O543 O 0.62321 0.49448 0.31141 0.0
O544 O 0.66171 0.4479 0.25958 0.0
O545 O 0.65494 0.48053 0.24832 0.0
O546 O 0.29396 0.39523 0.55573 0.0
Cd547 Cd 0.29741 0.3785 0.52783 0.0
Cd548 Cd 0.26884 0.35802 0.55006 0.0
O549 O 0.2606 0.38719 0.56307 0.0
O550 O 0.31773 0.39814 0.51342 0.0
O551 O 0.28408 0.39438 0.50336 0.0
C552 C 0.30176 0.40503 0.50242 0.0
C553 C 0.24837 0.32943 0.53894 0.0
C554 C 0.27669 0.39933 0.56553 0.0
C555 C 0.31129 0.33976 0.54767 0.0
O556 O 0.29702 0.34547 0.56088 0.0
O557 O 0.31226 0.34884 0.52953 0.0
O558 O 0.24819 0.33568 0.55858 0.0
O559 O 0.25758 0.34157 0.52498 0.0
O560 O 0.40674 0.05947 0.79174 0.0
Cd561 Cd 0.39121 0.03099 0.79613 0.0
Cd562 Cd 0.36617 0.05468 0.77174 0.0
O563 O 0.39388 0.06822 0.76023 0.0
O564 O 0.41369 0.01567 0.8125 0.0
O565 O 0.40586 0.00833 0.77882 0.0
C566 C 0.41876 0.00641 0.79483 0.0
C567 C 0.3341 0.04682 0.7549 0.0
C568 C 0.40817 0.07004 0.77452 0.0
C569 C 0.35492 0.04957 0.81626 0.0
O570 O 0.35891 0.06351 0.80217 0.0
O571 O 0.36364 0.03126 0.81489 0.0
O572 O 0.34117 0.06615 0.75589 0.0
O573 O 0.34672 0.03158 0.76085 0.0
O574 O 0.70409 0.09963 0.05113 0.0
Cd575 Cd 0.7041 0.11043 0.02042 0.0
Cd576 Cd 0.72688 0.1418 0.04499 0.0
O577 O 0.73244 0.11572 0.0646 0.0
O578 O 0.68936 0.08566 0.00702 0.0
O579 O 0.72364 0.0924 0.00211 0.0
C580 C 0.70772 0.0794 0.00019 0.0
C581 C 0.74697 0.17305 0.04309 0.0
C582 C 0.71847 0.10098 0.06531 0.0
C583 C 0.68301 0.15109 0.02775 0.0
O584 O 0.69616 0.15236 0.04307 0.0
O585 O 0.68468 0.13644 0.01377 0.0
O586 O 0.73908 0.16651 0.06089 0.0
O587 O 0.74616 0.16026 0.02692 0.0
O588 O 0.93899 0.28989 0.09783 0.0
Cd589 Cd 0.96756 0.29339 0.11346 0.0
Cd590 Cd 0.9424 0.2699 0.13896 0.0
O591 O 0.92916 0.25877 0.11089 0.0
O592 O 0.98308 0.31015 0.09144 0.0
O593 O 0.98997 0.27618 0.09826 0.0
C594 C 0.99212 0.29253 0.08585 0.0
C595 C 0.94883 0.25281 0.1712 0.0
C596 C 0.92806 0.27289 0.09637 0.0
C597 C 0.95013 0.31372 0.15047 0.0
O598 O 0.93517 0.30078 0.14616 0.0
O599 O 0.96821 0.31139 0.14145 0.0
O600 O 0.92969 0.25468 0.16375 0.0
O601 O 0.9646 0.25796 0.15887 0.0
O602 O 0.95459 0.77731 0.60547 0.0
Cd603 Cd 0.98123 0.7955 0.59978 0.0
Cd604 Cd 0.95777 0.76885 0.65005 0.0
O605 O 0.93588 0.75822 0.6277 0.0
O606 O 0.97346 0.81074 0.57336 0.0
O607 O 1.00002 0.78746 0.575 0.0
C608 C 0.9881 0.79997 0.56372 0.0
C609 C 0.95488 0.76098 0.68602 0.0
C610 C 0.93819 0.76602 0.60915 0.0
C611 C 0.97919 0.81651 0.64055 0.0
O612 O 0.97064 0.79872 0.64517 0.0
O613 O 0.98731 0.81901 0.62212 0.0
O614 O 0.94136 0.77324 0.67653 0.0
O615 O 0.96938 0.75173 0.67459 0.0
O616 O 0.59544 0.94165 0.78075 0.0
Cd617 Cd 0.60826 0.97074 0.78822 0.0
Cd618 Cd 0.63865 0.94859 0.76332 0.0
O619 O 0.6124 0.9327 0.7512 0.0
O620 O 0.58443 0.98116 0.80661 0.0
O621 O 0.59085 0.99412 0.77447 0.0
C622 C 0.57826 0.99263 0.79075 0.0
C623 C 0.67101 0.95563 0.74643 0.0
C624 C 0.59671 0.9305 0.7639 0.0
C625 C 0.6465 0.95502 0.80927 0.0
O626 O 0.64608 0.94152 0.79419 0.0
O627 O 0.63455 0.97145 0.80851 0.0
O628 O 0.66411 0.9364 0.74869 0.0
O629 O 0.65821 0.97111 0.75122 0.0
O630 O 0.28003 0.89767 0.05838 0.0
Cd631 Cd 0.28848 0.88487 0.02959 0.0
Cd632 Cd 0.26195 0.85546 0.05063 0.0
O633 O 0.2509 0.88084 0.06856 0.0
O634 O 0.30967 0.9074 0.02293 0.0
O635 O 0.2793 0.90422 0.00543 0.0
C636 C 0.29606 0.9154 0.00983 0.0
C637 C 0.24382 0.82541 0.03916 0.0
C638 C 0.26382 0.89636 0.07043 0.0
C639 C 0.30747 0.84494 0.04463 0.0
O640 O 0.29203 0.84501 0.05775 0.0
O641 O 0.30778 0.85801 0.02911 0.0
O642 O 0.24517 0.83009 0.05916 0.0
O643 O 0.24997 0.83956 0.02545 0.0
O644 O 0.39727 0.55988 0.30512 0.0
Cd645 Cd 0.38067 0.532 0.30226 0.0
Cd646 Cd 0.36114 0.55554 0.27567 0.0
O647 O 0.39103 0.56933 0.2719 0.0
O648 O 0.40127 0.51115 0.31398 0.0
O649 O 0.39409 0.51439 0.27939 0.0
C650 C 0.40643 0.50724 0.29437 0.0
C651 C 0.33541 0.54499 0.25175 0.0
C652 C 0.40233 0.57063 0.28872 0.0
C653 C 0.33973 0.54735 0.31606 0.0
O654 O 0.34476 0.56213 0.30314 0.0
O655 O 0.35086 0.53035 0.31669 0.0
O656 O 0.34068 0.56486 0.25354 0.0
O657 O 0.34749 0.53084 0.26079 0.0
O658 O 0.7119 0.59433 0.54958 0.0
Cd659 Cd 0.70417 0.60189 0.51883 0.0
Cd660 Cd 0.72608 0.64312 0.54459 0.0
O661 O 0.73068 0.61896 0.56675 0.0
O662 O 0.68852 0.57508 0.51209 0.0
O663 O 0.71972 0.58283 0.49772 0.0
C664 C 0.70466 0.56912 0.50091 0.0
C665 C 0.73977 0.67749 0.55034 0.0
C666 C 0.72225 0.60049 0.56585 0.0
C667 C 0.68022 0.64255 0.52274 0.0
O668 O 0.69585 0.64883 0.53393 0.0
O669 O 0.68037 0.62433 0.51379 0.0
O670 O 0.72677 0.66862 0.56348 0.0
O671 O 0.74725 0.66585 0.53506 0.0
H672 H 0.23679 0.60675 0.0978 0.0
H673 H 0.19991 0.56035 0.06254 0.0
H674 H 0.22551 0.59001 0.13125 0.0
H675 H 0.18803 0.54427 0.09558 0.0
H676 H 0.16866 0.51683 0.15828 0.0
H677 H 0.19217 0.52586 0.12835 0.0
H678 H 0.19155 0.592 0.14815 0.0
H679 H 0.16899 0.58292 0.17807 0.0
C680 C 0.22674 0.59268 0.09719 0.0
C681 C 0.2188 0.58517 0.07766 0.0
C682 C 0.2201 0.5832 0.11631 0.0
C683 C 0.20539 0.56613 0.11613 0.0
C684 C 0.19932 0.55735 0.09644 0.0
C685 C 0.20598 0.56674 0.07744 0.0
C686 C 0.17371 0.53324 0.15622 0.0
C687 C 0.16681 0.54917 0.1704 0.0
C688 C 0.18721 0.53843 0.13915 0.0
C689 C 0.19388 0.55967 0.13587 0.0
C690 C 0.18726 0.57541 0.15039 0.0
C691 C 0.174 0.57021 0.16745 0.0
H692 H 0.65885 0.42454 0.42717 0.0
H693 H 0.72485 0.43198 0.40836 0.0
H694 H 0.64826 0.45107 0.40129 0.0
H695 H 0.71435 0.45954 0.38288 0.0
H696 H 0.68035 0.46889 0.31726 0.0
H697 H 0.69761 0.45753 0.34972 0.0
H698 H 0.64643 0.48558 0.38674 0.0
H699 H 0.62846 0.49607 0.3537 0.0
C700 C 0.67119 0.43218 0.41777 0.0
C701 C 0.69263 0.42573 0.41941 0.0
C702 C 0.66514 0.44773 0.40307 0.0
C703 C 0.68039 0.45744 0.38975 0.0
C704 C 0.70209 0.45211 0.39254 0.0
C705 C 0.70814 0.4363 0.40712 0.0
C706 C 0.673 0.47313 0.33234 0.0
C707 C 0.6527 0.48271 0.33295 0.0
C708 C 0.68306 0.46677 0.35109 0.0
C709 C 0.67314 0.47003 0.37094 0.0
C710 C 0.65418 0.48221 0.37166 0.0
C711 C 0.64396 0.48844 0.35276 0.0
H712 H 0.86742 0.98959 0.639 0.0
H713 H 0.81062 0.98336 0.67741 0.0
H714 H 0.84818 0.97614 0.60825 0.0
H715 H 0.79067 0.97114 0.64632 0.0
H716 H 0.78307 0.90901 0.60626 0.0
H717 H 0.79162 0.93724 0.63149 0.0
H718 H 0.82332 0.97256 0.58124 0.0
H719 H 0.81584 0.94349 0.55648 0.0
C720 C 0.85042 0.98661 0.64049 0.0
C721 C 0.84053 0.98722 0.66052 0.0
C722 C 0.83928 0.97877 0.62283 0.0
C723 C 0.81794 0.97177 0.6249 0.0
C724 C 0.80727 0.97558 0.6443 0.0
C725 C 0.81856 0.98294 0.66204 0.0
C726 C 0.7915 0.92302 0.60061 0.0
C727 C 0.79928 0.92391 0.57969 0.0
C728 C 0.79628 0.9394 0.615 0.0
C729 C 0.80855 0.95719 0.60857 0.0
C730 C 0.81444 0.95889 0.58698 0.0
C731 C 0.81011 0.94228 0.57277 0.0
H732 H 0.33095 0.02274 0.84172 0.0
H733 H 0.344 0.08922 0.82888 0.0
H734 H 0.3036 0.03339 0.86781 0.0
H735 H 0.31754 0.09972 0.8548 0.0
H736 H 0.26474 0.11935 0.89274 0.0
H737 H 0.28009 0.10127 0.86186 0.0
H738 H 0.3017 0.04992 0.90251 0.0
H739 H 0.2855 0.06733 0.93302 0.0
C740 C 0.3281 0.03955 0.84459 0.0
C741 C 0.33959 0.05514 0.83328 0.0
C742 C 0.31238 0.04566 0.85936 0.0
C743 C 0.308 0.06743 0.86305 0.0
C744 C 0.31983 0.08284 0.85187 0.0
C745 C 0.3353 0.07679 0.83718 0.0
C746 C 0.27202 0.10382 0.89494 0.0
C747 C 0.27453 0.09516 0.91543 0.0
C748 C 0.28102 0.09354 0.87729 0.0
C749 C 0.29288 0.07458 0.87989 0.0
C750 C 0.29291 0.06458 0.89992 0.0
C751 C 0.2837 0.07471 0.91749 0.0
H752 H 0.23425 0.43562 0.91088 0.0
H753 H 0.16743 0.43307 0.92806 0.0
H754 H 0.22658 0.46448 0.88582 0.0
H755 H 0.15962 0.46091 0.90266 0.0
H756 H 0.14252 0.50354 0.85378 0.0
H757 H 0.16048 0.49513 0.88741 0.0
H758 H 0.21049 0.46284 0.85227 0.0
H759 H 0.19318 0.47212 0.81916 0.0
C760 C 0.21798 0.44134 0.90945 0.0
C761 C 0.20135 0.43165 0.92096 0.0
C762 C 0.21357 0.45791 0.89513 0.0
C763 C 0.19241 0.46489 0.89188 0.0
C764 C 0.17615 0.45626 0.90475 0.0
C765 C 0.18058 0.43993 0.91915 0.0
C766 C 0.15789 0.4956 0.85333 0.0
C767 C 0.16615 0.48784 0.83403 0.0
C768 C 0.16808 0.49054 0.87257 0.0
C769 C 0.18647 0.4775 0.87264 0.0
C770 C 0.19631 0.47271 0.85305 0.0
C771 C 0.18626 0.4779 0.83394 0.0
H772 H 0.77155 0.41746 0.09115 0.0
H773 H 0.83803 0.41367 0.07283 0.0
H774 H 0.78078 0.44404 0.11833 0.0
H775 H 0.84726 0.43929 0.10006 0.0
H776 H 0.86359 0.48821 0.14525 0.0
H777 H 0.84622 0.47482 0.11293 0.0
H778 H 0.79843 0.44347 0.1517 0.0
H779 H 0.81508 0.45759 0.18354 0.0
C780 C 0.78809 0.42225 0.09296 0.0
C781 C 0.80407 0.4133 0.08 0.0
C782 C 0.79339 0.43752 0.10844 0.0
C783 C 0.81478 0.44398 0.11133 0.0
C784 C 0.83057 0.43524 0.09801 0.0
C785 C 0.82528 0.42021 0.08254 0.0
C786 C 0.84892 0.47915 0.14673 0.0
C787 C 0.84103 0.47341 0.16687 0.0
C788 C 0.83908 0.47127 0.12827 0.0
C789 C 0.82132 0.45746 0.12975 0.0
C790 C 0.81208 0.45393 0.14985 0.0
C791 C 0.82179 0.46189 0.16819 0.0
H792 H 0.79019 0.06763 0.43234 0.0
H793 H 0.7693 0.12148 0.3946 0.0
H794 H 0.80551 0.05128 0.40098 0.0
H795 H 0.78353 0.10432 0.36266 0.0
H796 H 0.84341 0.08988 0.32375 0.0
H797 H 0.81899 0.10129 0.35137 0.0
H798 H 0.80619 0.03532 0.36734 0.0
H799 H 0.83174 0.02393 0.33999 0.0
C800 C 0.78823 0.0757 0.41717 0.0
C801 C 0.77916 0.09625 0.41609 0.0
C802 C 0.79692 0.06615 0.39905 0.0
C803 C 0.79643 0.07676 0.37933 0.0
C804 C 0.78493 0.09607 0.37778 0.0
C805 C 0.77649 0.10581 0.39603 0.0
C806 C 0.83541 0.07778 0.33317 0.0
C807 C 0.8396 0.05602 0.32985 0.0
C808 C 0.82108 0.08432 0.34884 0.0
C809 C 0.81024 0.06928 0.36146 0.0
C810 C 0.81434 0.04739 0.35804 0.0
C811 C 0.82903 0.04083 0.34247 0.0
H812 H 0.22017 0.05868 0.56417 0.0
H813 H 0.23504 0.10256 0.61502 0.0
H814 H 0.2122 0.03083 0.59018 0.0
H815 H 0.2262 0.07524 0.6412 0.0
H816 H 0.20333 0.03003 0.68697 0.0
H817 H 0.22816 0.04235 0.65963 0.0
H818 H 0.18091 0.02838 0.61121 0.0
H819 H 0.15664 0.01525 0.63859 0.0
C820 C 0.22258 0.06202 0.58098 0.0
C821 C 0.22823 0.08263 0.58773 0.0
C822 C 0.21774 0.04619 0.59589 0.0
C823 C 0.21799 0.05087 0.61782 0.0
C824 C 0.22593 0.0709 0.62448 0.0
C825 C 0.23107 0.08665 0.60951 0.0
C826 C 0.19874 0.02871 0.67033 0.0
C827 C 0.17809 0.02189 0.66477 0.0
C828 C 0.21285 0.03598 0.6547 0.0
C829 C 0.20639 0.03697 0.63325 0.0
C830 C 0.18658 0.02782 0.62753 0.0
C831 C 0.17257 0.02023 0.6432 0.0
H832 H 0.1052 0.25163 0.61023 0.0
H833 H 0.06968 0.22603 0.55704 0.0
H834 H 0.13824 0.23806 0.59459 0.0
H835 H 0.10204 0.21131 0.54218 0.0
H836 H 0.16053 0.1777 0.52161 0.0
H837 H 0.13586 0.20719 0.5283 0.0
H838 H 0.14954 0.20282 0.59588 0.0
H839 H 0.17476 0.17447 0.58895 0.0
C840 C 0.10455 0.24388 0.59479 0.0
C841 C 0.08484 0.23929 0.58518 0.0
C842 C 0.12343 0.2357 0.58598 0.0
C843 C 0.12275 0.22259 0.56766 0.0
C844 C 0.10338 0.22102 0.55641 0.0
C845 C 0.08467 0.22946 0.565 0.0
C846 C 0.15827 0.18321 0.53784 0.0
C847 C 0.16931 0.17356 0.55478 0.0
C848 C 0.14419 0.20017 0.54171 0.0
C849 C 0.14056 0.20755 0.56267 0.0
C850 C 0.15215 0.19812 0.57946 0.0
C851 C 0.16642 0.18151 0.57553 0.0
H852 H 0.04593 0.31554 0.81359 0.0
H853 H 0.02986 0.35758 0.86577 0.0
H854 H 0.05898 0.34578 0.79297 0.0
H855 H 0.04372 0.38784 0.84557 0.0
H856 H 0.06424 0.44106 0.80395 0.0
H857 H 0.04213 0.4116 0.81629 0.0
H858 H 0.09028 0.36693 0.79486 0.0
H859 H 0.11197 0.39652 0.78173 0.0
C860 C 0.04492 0.33137 0.82051 0.0
C861 C 0.03711 0.33426 0.84135 0.0
C862 C 0.05256 0.34866 0.80876 0.0
C863 C 0.05285 0.36921 0.81772 0.0
C864 C 0.04363 0.37228 0.83805 0.0
C865 C 0.03568 0.35496 0.8497 0.0
C866 C 0.06991 0.42489 0.80157 0.0
C867 C 0.08994 0.42102 0.79215 0.0
C868 C 0.05729 0.40802 0.80875 0.0
C869 C 0.06453 0.38688 0.80695 0.0
C870 C 0.08406 0.38298 0.79637 0.0
C871 C 0.09658 0.39991 0.78889 0.0
H872 H 0.86227 0.3461 0.01445 0.0
H873 H 0.81286 0.30075 0.0299 0.0
H874 H 0.88929 0.32075 0.02599 0.0
H875 H 0.83981 0.27466 0.04036 0.0
H876 H 0.88567 0.26364 0.09852 0.0
H877 H 0.85919 0.27416 0.07217 0.0
H878 H 0.90976 0.28967 0.02765 0.0
H879 H 0.93611 0.28022 0.0547 0.0
C880 C 0.85732 0.33021 0.01918 0.0
C881 C 0.83563 0.32535 0.02151 0.0
C882 C 0.87279 0.31556 0.02586 0.0
C883 C 0.86675 0.29573 0.03471 0.0
C884 C 0.84504 0.28998 0.03428 0.0
C885 C 0.8296 0.30479 0.02804 0.0
C886 C 0.89102 0.26847 0.0828 0.0
C887 C 0.91278 0.27141 0.07865 0.0
C888 C 0.87586 0.27453 0.06756 0.0
C889 C 0.8823 0.28335 0.04784 0.0
C890 C 0.9042 0.2836 0.04285 0.0
C891 C 0.9193 0.27797 0.05823 0.0
H892 H 0.95516 0.18704 0.2962 0.0
H893 H 0.97979 0.13575 0.33491 0.0
H894 H 0.9468 0.16184 0.26774 0.0
H895 H 0.97041 0.11028 0.30719 0.0
H896 H 0.94562 0.06427 0.2647 0.0
H897 H 0.96986 0.09324 0.27408 0.0
H898 H 0.91804 0.1383 0.26618 0.0
H899 H 0.89447 0.10941 0.25567 0.0
C900 C 0.95926 0.17036 0.29833 0.0
C901 C 0.96779 0.16316 0.31777 0.0
C902 C 0.95435 0.1559 0.28211 0.0
C903 C 0.9573 0.13389 0.28529 0.0
C904 C 0.96795 0.12706 0.30396 0.0
C905 C 0.9733 0.14164 0.32 0.0
C906 C 0.93988 0.08057 0.26379 0.0
C907 C 0.91824 0.08474 0.25963 0.0
C908 C 0.95364 0.09715 0.2695 0.0
C909 C 0.94579 0.11806 0.27173 0.0
C910 C 0.92481 0.12247 0.26471 0.0
C911 C 0.91117 0.1059 0.25857 0.0
H912 H 0.14423 0.84968 0.48368 0.0
H913 H 0.18333 0.82343 0.4332 0.0
H914 H 0.11441 0.82737 0.47193 0.0
H915 H 0.15363 0.80218 0.42094 0.0
H916 H 0.09844 0.76559 0.39848 0.0
H917 H 0.12743 0.77528 0.42291 0.0
H918 H 0.09201 0.83135 0.44224 0.0
H919 H 0.06316 0.82128 0.41895 0.0
C920 C 0.14654 0.839 0.47027 0.0
C921 C 0.16592 0.83882 0.45899 0.0
C922 C 0.12947 0.82626 0.46347 0.0
C923 C 0.13142 0.81328 0.44516 0.0
C924 C 0.15143 0.81182 0.43512 0.0
C925 C 0.16845 0.82435 0.442 0.0
C926 C 0.09676 0.77971 0.40833 0.0
C927 C 0.07877 0.79294 0.40635 0.0
C928 C 0.11336 0.78532 0.42228 0.0
C929 C 0.11224 0.80429 0.43438 0.0
C930 C 0.09349 0.81653 0.43345 0.0
C931 C 0.07698 0.81089 0.41972 0.0
H932 H 0.47482 0.35408 0.63927 0.0
H933 H 0.46814 0.31169 0.69322 0.0
H934 H 0.46455 0.3841 0.6617 0.0
H935 H 0.45846 0.34177 0.71586 0.0
H936 H 0.40265 0.3905 0.72956 0.0
H937 H 0.42585 0.36166 0.71739 0.0
H938 H 0.46966 0.40801 0.69086 0.0
H939 H 0.44592 0.43665 0.70234 0.0
C940 C 0.47192 0.35131 0.65609 0.0
C941 C 0.47187 0.33054 0.66438 0.0
C942 C 0.46608 0.36853 0.66904 0.0
C943 C 0.46031 0.36528 0.69056 0.0
C944 C 0.46231 0.34475 0.69927 0.0
C945 C 0.46795 0.32755 0.6863 0.0
C946 C 0.41762 0.39445 0.72182 0.0
C947 C 0.42241 0.41563 0.71655 0.0
C948 C 0.43098 0.37797 0.71482 0.0
C949 C 0.44942 0.38253 0.70269 0.0
C950 C 0.45531 0.40394 0.69964 0.0
C951 C 0.44183 0.42032 0.70634 0.0
H952 H 0.93749 0.70866 0.95291 0.0
H953 H 0.88807 0.72442 0.90771 0.0
H954 H 0.91049 0.69871 0.97924 0.0
H955 H 0.86097 0.71392 0.93353 0.0
H956 H 0.86192 0.6412 0.98812 0.0
H957 H 0.88973 0.66656 0.97815 0.0
H958 H 0.84157 0.71466 0.9664 0.0
H959 H 0.81387 0.68888 0.97561 0.0
C960 C 0.92076 0.71089 0.94903 0.0
C961 C 0.91467 0.71738 0.92848 0.0
C962 C 0.90532 0.70497 0.96398 0.0
C963 C 0.88358 0.7051 0.95841 0.0
C964 C 0.87753 0.71378 0.93852 0.0
C965 C 0.89301 0.71987 0.92365 0.0
C966 C 0.85745 0.65749 0.9844 0.0
C967 C 0.83592 0.66314 0.98243 0.0
C968 C 0.87335 0.6721 0.97864 0.0
C969 C 0.86782 0.69256 0.97099 0.0
C970 C 0.84632 0.69892 0.97174 0.0
C971 C 0.83048 0.68424 0.9772 0.0
H972 H 0.5453 0.19064 0.1934 0.0
H973 H 0.52283 0.14402 0.14797 0.0
H974 H 0.55556 0.1622 0.21787 0.0
H975 H 0.53397 0.11541 0.17186 0.0
H976 H 0.5557 0.06541 0.21424 0.0
H977 H 0.53305 0.09521 0.20359 0.0
H978 H 0.58504 0.13878 0.2168 0.0
H979 H 0.60718 0.10893 0.22836 0.0
C980 C 0.54217 0.17422 0.18889 0.0
C981 C 0.53353 0.16939 0.16877 0.0
C982 C 0.54818 0.15794 0.20282 0.0
C983 C 0.54609 0.13648 0.19671 0.0
C984 C 0.53572 0.13173 0.17726 0.0
C985 C 0.52934 0.14809 0.16347 0.0
C986 C 0.5619 0.08151 0.21563 0.0
C987 C 0.58315 0.08501 0.22194 0.0
C988 C 0.54903 0.09854 0.20932 0.0
C989 C 0.55734 0.11937 0.20877 0.0
C990 C 0.57799 0.12301 0.21709 0.0
C991 C 0.59076 0.10593 0.22376 0.0
H992 H 0.0182 0.85895 0.33795 0.0
H993 H 0.04254 0.8129 0.29292 0.0
H994 H 0.03164 0.8878 0.31575 0.0
H995 H 0.05506 0.84168 0.26991 0.0
H996 H 0.11047 0.89205 0.26737 0.0
H997 H 0.08541 0.8632 0.27461 0.0
H998 H 0.03519 0.90946 0.2855 0.0
H999 H 0.06074 0.93816 0.27935 0.0
C1000 C 0.0255 0.8551 0.32274 0.0
C1001 C 0.02968 0.83386 0.31722 0.0
C1002 C 0.03323 0.87162 0.30991 0.0
C1003 C 0.04496 0.86708 0.2912 0.0
C1004 C 0.0467 0.84575 0.28449 0.0
C1005 C 0.03937 0.82927 0.29754 0.0
C1006 C 0.09389 0.89591 0.27055 0.0
C1007 C 0.0875 0.91715 0.2731 0.0
C1008 C 0.07942 0.87941 0.27468 0.0
C1009 C 0.05828 0.88399 0.28113 0.0
C1010 C 0.05143 0.90534 0.28119 0.0
C1011 C 0.06599 0.92177 0.27748 0.0
H1012 H 0.39237 0.25483 0.62029 0.0
H1013 H 0.4288 0.27705 0.56612 0.0
H1014 H 0.35943 0.26557 0.60239 0.0
H1015 H 0.39649 0.289 0.549 0.0
H1016 H 0.33739 0.31565 0.52191 0.0
H1017 H 0.36329 0.2887 0.53313 0.0
H1018 H 0.34568 0.29979 0.59903 0.0
H1019 H 0.31933 0.32551 0.58771 0.0
C1020 C 0.39332 0.26142 0.60434 0.0
C1021 C 0.41319 0.26572 0.59492 0.0
C1022 C 0.37447 0.2679 0.59416 0.0
C1023 C 0.37527 0.27902 0.57459 0.0
C1024 C 0.39503 0.28068 0.56406 0.0
C1025 C 0.41372 0.27394 0.57404 0.0
C1026 C 0.33901 0.31209 0.53875 0.0
C1027 C 0.32659 0.32293 0.55394 0.0
C1028 C 0.35381 0.29663 0.54523 0.0
C1029 C 0.35678 0.29201 0.56706 0.0
C1030 C 0.34369 0.30241 0.58207 0.0
C1031 C 0.32872 0.31751 0.57558 0.0
H1032 H 0.88588 0.6088 0.77576 0.0
H1033 H 0.93949 0.5659 0.78182 0.0
H1034 H 0.90735 0.6376 0.79084 0.0
H1035 H 0.96121 0.59472 0.79634 0.0
H1036 H 0.94853 0.68742 0.81832 0.0
H1037 H 0.93723 0.66184 0.79132 0.0
H1038 H 0.95911 0.61017 0.83147 0.0
H1039 H 0.97092 0.63587 0.85823 0.0
C1040 C 0.90254 0.60582 0.7794 0.0
C1041 C 0.91095 0.58514 0.77796 0.0
C1042 C 0.9149 0.62228 0.7881 0.0
C1043 C 0.93589 0.6183 0.7953 0.0
C1044 C 0.94495 0.59816 0.79151 0.0
C1045 C 0.93257 0.58173 0.78301 0.0
C1046 C 0.95131 0.67058 0.82118 0.0
C1047 C 0.96025 0.66356 0.84056 0.0
C1048 C 0.94478 0.65595 0.80572 0.0
C1049 C 0.9469 0.63395 0.80935 0.0
C1050 C 0.95736 0.62702 0.82804 0.0
C1051 C 0.96408 0.64171 0.84347 0.0
H1052 H 0.14421 0.63756 0.0034 0.0
H1053 H 0.18372 0.68412 0.03543 0.0
H1054 H 0.11228 0.65662 0.01539 0.0
H1055 H 0.15226 0.70237 0.04826 0.0
H1056 H 0.09435 0.73053 0.0761 0.0
H1057 H 0.11993 0.72128 0.048 0.0
H1058 H 0.09797 0.65584 0.04995 0.0
H1059 H 0.07223 0.66518 0.07692 0.0
C1060 C 0.14608 0.65217 0.01246 0.0
C1061 C 0.16638 0.65899 0.01905 0.0
C1062 C 0.12782 0.663 0.01954 0.0
C1063 C 0.12963 0.68064 0.03346 0.0
C1064 C 0.15007 0.68887 0.0377 0.0
C1065 C 0.16821 0.67821 0.03049 0.0
C1066 C 0.09484 0.71428 0.07021 0.0
C1067 C 0.08158 0.69852 0.07907 0.0
C1068 C 0.10947 0.70895 0.05411 0.0
C1069 C 0.11119 0.68775 0.04672 0.0
C1070 C 0.097 0.67239 0.05483 0.0
C1071 C 0.08238 0.67772 0.07068 0.0
H1072 H 0.47694 0.81398 0.18878 0.0
H1073 H 0.48078 0.85642 0.13468 0.0
H1074 H 0.46704 0.84378 0.21172 0.0
H1075 H 0.47013 0.88617 0.15734 0.0
H1076 H 0.44821 0.9377 0.19781 0.0
H1077 H 0.47363 0.91063 0.18606 0.0
H1078 H 0.43366 0.86168 0.21395 0.0
H1079 H 0.40884 0.88896 0.2264 0.0
C1080 C 0.47623 0.82986 0.18194 0.0
C1081 C 0.47933 0.83293 0.15992 0.0
C1082 C 0.47039 0.84689 0.19505 0.0
C1083 C 0.46725 0.86729 0.18634 0.0
C1084 C 0.47248 0.87071 0.16469 0.0
C1085 C 0.4786 0.85367 0.15161 0.0
C1086 C 0.44534 0.92116 0.20204 0.0
C1087 C 0.42653 0.91526 0.21274 0.0
C1088 C 0.45979 0.90566 0.19518 0.0
C1089 C 0.45547 0.88393 0.19855 0.0
C1090 C 0.43763 0.87826 0.21113 0.0
C1091 C 0.42333 0.89386 0.21829 0.0
H1092 H 0.44017 0.18609 0.94607 0.0
H1093 H 0.39445 0.21958 0.90688 0.0
H1094 H 0.41211 0.17718 0.97147 0.0
H1095 H 0.36604 0.20981 0.93165 0.0
H1096 H 0.31659 0.1928 0.97694 0.0
H1097 H 0.34876 0.21122 0.96511 0.0
H1098 H 0.38422 0.15221 0.97068 0.0
H1099 H 0.35229 0.13421 0.98335 0.0
C1100 C 0.42406 0.19166 0.94301 0.0
C1101 C 0.41932 0.2032 0.92438 0.0
C1102 C 0.40798 0.18651 0.95752 0.0
C1103 C 0.3867 0.19242 0.95351 0.0
C1104 C 0.38225 0.20515 0.93547 0.0
C1105 C 0.39847 0.21066 0.92113 0.0
C1106 C 0.33152 0.18404 0.97645 0.0
C1107 C 0.33195 0.16203 0.98081 0.0
C1108 C 0.34988 0.19452 0.96941 0.0
C1109 C 0.36896 0.1831 0.9663 0.0
C1110 C 0.36987 0.16161 0.9729 0.0
C1111 C 0.35154 0.15121 0.98025 0.0
H1112 H 0.56793 0.28527 0.44038 0.0
H1113 H 0.6077 0.24593 0.40008 0.0
H1114 H 0.59871 0.2957 0.46102 0.0
H1115 H 0.63879 0.25543 0.42169 0.0
H1116 H 0.68147 0.31609 0.42564 0.0
H1117 H 0.65618 0.28809 0.41858 0.0
H1118 H 0.62951 0.29599 0.48184 0.0
H1119 H 0.65467 0.32516 0.48854 0.0
C1120 C 0.58323 0.27811 0.43651 0.0
C1121 C 0.58562 0.2655 0.41811 0.0
C1122 C 0.60097 0.28395 0.44856 0.0
C1123 C 0.62151 0.27713 0.44254 0.0
C1124 C 0.62331 0.26165 0.42625 0.0
C1125 C 0.60547 0.25599 0.41397 0.0
C1126 C 0.67039 0.31175 0.43821 0.0
C1127 C 0.66955 0.32338 0.45737 0.0
C1128 C 0.65603 0.29528 0.43429 0.0
C1129 C 0.64042 0.28984 0.44948 0.0
C1130 C 0.64098 0.30007 0.46955 0.0
C1131 C 0.65539 0.31677 0.47344 0.0
H1132 H 0.64897 0.97673 0.8474 0.0
H1133 H 0.67606 0.92348 0.81282 0.0
H1134 H 0.66946 0.96636 0.87895 0.0
H1135 H 0.69567 0.91273 0.84426 0.0
H1136 H 0.67596 0.9187 0.93463 0.0
H1137 H 0.66484 0.93766 0.90314 0.0
H1138 H 0.72258 0.91799 0.87071 0.0
H1139 H 0.73354 0.89801 0.90251 0.0
C1140 C 0.6594 0.96297 0.84647 0.0
C1141 C 0.66048 0.95066 0.82778 0.0
C1142 C 0.67111 0.95697 0.86453 0.0
C1143 C 0.68399 0.9385 0.86425 0.0
C1144 C 0.68609 0.92711 0.84509 0.0
C1145 C 0.67454 0.93314 0.82709 0.0
C1146 C 0.6865 0.91847 0.92091 0.0
C1147 C 0.70552 0.90648 0.92099 0.0
C1148 C 0.68019 0.92968 0.90284 0.0
C1149 C 0.69277 0.92941 0.88432 0.0
C1150 C 0.71238 0.91829 0.88466 0.0
C1151 C 0.71869 0.90688 0.90285 0.0
H1152 H 0.30423 0.57061 0.30762 0.0
H1153 H 0.33331 0.53131 0.35614 0.0
H1154 H 0.27584 0.5805 0.33231 0.0
H1155 H 0.30556 0.54191 0.38127 0.0
H1156 H 0.25795 0.56173 0.42599 0.0
H1157 H 0.27006 0.54329 0.39395 0.0
H1158 H 0.27509 0.604 0.36148 0.0
H1159 H 0.2621 0.62209 0.39318 0.0
C1160 C 0.30442 0.56397 0.32359 0.0
C1161 C 0.32116 0.55054 0.33017 0.0
C1162 C 0.28817 0.56965 0.33774 0.0
C1163 C 0.28849 0.56234 0.35893 0.0
C1164 C 0.30453 0.54772 0.36503 0.0
C1165 C 0.32061 0.54173 0.35071 0.0
C1166 C 0.26058 0.57094 0.41159 0.0
C1167 C 0.25938 0.59334 0.41209 0.0
C1168 C 0.26786 0.56043 0.39333 0.0
C1169 C 0.27436 0.57218 0.37536 0.0
C1170 C 0.27033 0.59433 0.37498 0.0
C1171 C 0.26273 0.6048 0.39318 0.0
H1172 H 0.19514 0.95893 0.31307 0.0
H1173 H 0.14635 0.97674 0.35839 0.0
H1174 H 0.21937 0.95019 0.34217 0.0
H1175 H 0.17022 0.96721 0.38765 0.0
H1176 H 0.21325 0.94968 0.43875 0.0
H1177 H 0.20157 0.9713 0.40859 0.0
H1178 H 0.22008 0.92052 0.36559 0.0
H1179 H 0.23251 0.89943 0.39578 0.0
C1180 C 0.18975 0.9613 0.32934 0.0
C1181 C 0.16879 0.9682 0.33357 0.0
C1182 C 0.2036 0.95619 0.346 0.0
C1183 C 0.19668 0.95757 0.36727 0.0
C1184 C 0.17623 0.9661 0.37148 0.0
C1185 C 0.16244 0.97152 0.35474 0.0
C1186 C 0.21565 0.94361 0.42272 0.0
C1187 C 0.22363 0.92289 0.41949 0.0
C1188 C 0.20871 0.95586 0.40547 0.0
C1189 C 0.2093 0.94746 0.3847 0.0
C1190 C 0.21942 0.92761 0.38134 0.0
C1191 C 0.22665 0.91546 0.39863 0.0
H1192 H 0.86461 0.52193 0.85566 0.0
H1193 H 0.80829 0.53224 0.81736 0.0
H1194 H 0.84522 0.53383 0.88725 0.0
H1195 H 0.78848 0.54327 0.84897 0.0
H1196 H 0.77924 0.59907 0.89739 0.0
H1197 H 0.79024 0.57584 0.86815 0.0
H1198 H 0.81801 0.53178 0.91347 0.0
H1199 H 0.80774 0.5555 0.94251 0.0
C1200 C 0.84779 0.52578 0.85423 0.0
C1201 C 0.83797 0.52643 0.83417 0.0
C1202 C 0.83661 0.53266 0.87231 0.0
C1203 C 0.81537 0.54001 0.87057 0.0
C1204 C 0.80496 0.53832 0.85078 0.0
C1205 C 0.81622 0.53178 0.83273 0.0
C1206 C 0.78728 0.58421 0.90106 0.0
C1207 C 0.793 0.57926 0.92209 0.0
C1208 C 0.79352 0.57077 0.88434 0.0
C1209 C 0.8053 0.55201 0.88843 0.0
C1210 C 0.80944 0.54631 0.9097 0.0
C1211 C 0.80349 0.55987 0.92632 0.0
H1212 H 0.81704 0.80509 0.55733 0.0
H1213 H 0.86756 0.84132 0.5277 0.0
H1214 H 0.8427 0.77821 0.56868 0.0
H1215 H 0.89362 0.81519 0.54007 0.0
H1216 H 0.89583 0.76499 0.61863 0.0
H1217 H 0.86715 0.7781 0.59631 0.0
H1218 H 0.91063 0.78211 0.54275 0.0
H1219 H 0.93975 0.77017 0.56577 0.0
C1220 C 0.83369 0.8071 0.553 0.0
C1221 C 0.84046 0.8254 0.54196 0.0
C1222 C 0.84844 0.79177 0.55963 0.0
C1223 C 0.87041 0.79469 0.55588 0.0
C1224 C 0.87688 0.8122 0.54323 0.0
C1225 C 0.86198 0.82732 0.53617 0.0
C1226 C 0.89912 0.76796 0.60191 0.0
C1227 C 0.92008 0.76687 0.59403 0.0
C1228 C 0.88259 0.7755 0.58897 0.0
C1229 C 0.88657 0.78172 0.5677 0.0
C1230 C 0.90709 0.77817 0.5592 0.0
C1231 C 0.92374 0.77107 0.5723 0.0
H1232 H 0.06893 0.28546 0.94246 0.0
H1233 H 0.10533 0.25503 0.89245 0.0
H1234 H 0.10147 0.29629 0.95995 0.0
H1235 H 0.13843 0.26483 0.91075 0.0
H1236 H 0.1784 0.32671 0.91815 0.0
H1237 H 0.15318 0.2989 0.91013 0.0
H1238 H 0.13459 0.29636 0.97662 0.0
H1239 H 0.15956 0.32537 0.98448 0.0
C1240 C 0.08401 0.2803 0.93567 0.0
C1241 C 0.08468 0.27015 0.91568 0.0
C1242 C 0.10281 0.28636 0.94587 0.0
C1243 C 0.12271 0.2822 0.93637 0.0
C1244 C 0.12333 0.26903 0.91808 0.0
C1245 C 0.10439 0.26316 0.90769 0.0
C1246 C 0.1691 0.32016 0.93118 0.0
C1247 C 0.17051 0.32875 0.95185 0.0
C1248 C 0.1548 0.30379 0.92662 0.0
C1249 C 0.14155 0.29535 0.94265 0.0
C1250 C 0.14421 0.30276 0.96375 0.0
C1251 C 0.15849 0.31939 0.9683 0.0
H1252 H 0.91238 0.15835 0.4039 0.0
H1253 H 0.9095 0.22487 0.42187 0.0
H1254 H 0.88976 0.14907 0.43366 0.0
H1255 H 0.88681 0.21541 0.45246 0.0
H1256 H 0.821 0.18696 0.47787 0.0
H1257 H 0.85119 0.20271 0.45946 0.0
H1258 H 0.88824 0.14579 0.4716 0.0
H1259 H 0.85748 0.12954 0.48912 0.0
C1260 C 0.90696 0.17104 0.41433 0.0
C1261 C 0.91269 0.19237 0.41047 0.0
C1262 C 0.89423 0.16565 0.4317 0.0
C1263 C 0.88688 0.18138 0.44589 0.0
C1264 C 0.89232 0.20287 0.44192 0.0
C1265 C 0.90513 0.20832 0.42432 0.0
C1266 C 0.83587 0.17809 0.47737 0.0
C1267 C 0.83662 0.15669 0.48423 0.0
C1268 C 0.85325 0.18719 0.46678 0.0
C1269 C 0.87181 0.17514 0.4632 0.0
C1270 C 0.87379 0.15516 0.47338 0.0
C1271 C 0.85628 0.14594 0.48376 0.0
H1272 H 0.53153 0.68394 0.69532 0.0
H1273 H 0.50985 0.64283 0.6445 0.0
H1274 H 0.54519 0.65306 0.7147 0.0
H1275 H 0.52353 0.61187 0.66392 0.0
H1276 H 0.59404 0.58906 0.67361 0.0
H1277 H 0.56612 0.61431 0.66506 0.0
H1278 H 0.54318 0.61177 0.72999 0.0
H1279 H 0.57149 0.58565 0.73872 0.0
C1280 C 0.52857 0.66813 0.68893 0.0
C1281 C 0.52001 0.66566 0.66832 0.0
C1282 C 0.53636 0.65047 0.70006 0.0
C1283 C 0.53581 0.63026 0.69053 0.0
C1284 C 0.52422 0.62743 0.67147 0.0
C1285 C 0.51628 0.64509 0.6604 0.0
C1286 C 0.58307 0.59377 0.68615 0.0
C1287 C 0.58481 0.58526 0.70678 0.0
C1288 C 0.5669 0.60803 0.68115 0.0
C1289 C 0.55203 0.61429 0.69666 0.0
C1290 C 0.55424 0.60672 0.71768 0.0
C1291 C 0.57053 0.5921 0.72272 0.0
H1292 H 0.39485 0.77251 0.11722 0.0
H1293 H 0.43054 0.78267 0.05915 0.0
H1294 H 0.36254 0.785 0.09959 0.0
H1295 H 0.39809 0.79422 0.04109 0.0
H1296 H 0.34924 0.84926 0.03277 0.0
H1297 H 0.37902 0.82657 0.04331 0.0
H1298 H 0.33496 0.78316 0.0741 0.0
H1299 H 0.30539 0.80646 0.06436 0.0
C1300 C 0.39556 0.77656 0.10042 0.0
C1301 C 0.41516 0.77696 0.08962 0.0
C1302 C 0.37703 0.78374 0.09024 0.0
C1303 C 0.37779 0.79112 0.06899 0.0
C1304 C 0.39706 0.7893 0.05762 0.0
C1305 C 0.41559 0.78247 0.0679 0.0
C1306 C 0.34596 0.8347 0.04151 0.0
C1307 C 0.32514 0.82981 0.04811 0.0
C1308 C 0.36299 0.82155 0.04745 0.0
C1309 C 0.35944 0.80307 0.05979 0.0
C1310 C 0.33835 0.79749 0.06506 0.0
C1311 C 0.32141 0.81081 0.05944 0.0
H1312 H 0.44086 0.69048 0.44069 0.0
H1313 H 0.39635 0.71802 0.3958 0.0
H1314 H 0.41128 0.67753 0.46231 0.0
H1315 H 0.36657 0.70459 0.41724 0.0
H1316 H 0.31605 0.68442 0.46276 0.0
H1317 H 0.34682 0.70493 0.45084 0.0
H1318 H 0.38631 0.64858 0.45605 0.0
H1319 H 0.35555 0.62808 0.46829 0.0
C1320 C 0.42468 0.69399 0.4356 0.0
C1321 C 0.42082 0.70493 0.41639 0.0
C1322 C 0.40778 0.6865 0.44795 0.0
C1323 C 0.38662 0.68967 0.4413 0.0
C1324 C 0.38272 0.70197 0.42287 0.0
C1325 C 0.39972 0.70964 0.41054 0.0
C1326 C 0.33141 0.67648 0.46178 0.0
C1327 C 0.33334 0.65452 0.46616 0.0
C1328 C 0.34899 0.68825 0.45484 0.0
C1329 C 0.36889 0.67833 0.45216 0.0
C1330 C 0.37119 0.65675 0.45808 0.0
C1331 C 0.35357 0.64496 0.46508 0.0
H1332 H 0.68187 0.80508 0.97025 0.0
H1333 H 0.64359 0.85531 0.99782 0.0
H1334 H 0.65028 0.78931 0.95456 0.0
H1335 H 0.61148 0.83887 0.98299 0.0
H1336 H 0.57867 0.8357 0.9171 0.0
H1337 H 0.60274 0.84191 0.94647 0.0
H1338 H 0.61604 0.77425 0.95011 0.0
H1339 H 0.5921 0.7681 0.91979 0.0
C1340 C 0.66646 0.81213 0.97387 0.0
C1341 C 0.6652 0.8318 0.9846 0.0
C1342 C 0.64825 0.80301 0.96489 0.0
C1343 C 0.62841 0.81333 0.96672 0.0
C1344 C 0.6267 0.831 0.9806 0.0
C1345 C 0.64504 0.84027 0.98941 0.0
C1346 C 0.5866 0.82206 0.92417 0.0
C1347 C 0.58372 0.80143 0.91586 0.0
C1348 C 0.6002 0.82559 0.94138 0.0
C1349 C 0.61125 0.80857 0.95095 0.0
C1350 C 0.60788 0.78776 0.94307 0.0
C1351 C 0.59429 0.78423 0.92563 0.0
H1352 H 0.71991 0.55725 0.56549 0.0
H1353 H 0.72335 0.61128 0.60817 0.0
H1354 H 0.70947 0.53432 0.59508 0.0
H1355 H 0.71243 0.58849 0.63773 0.0
H1356 H 0.69266 0.54627 0.68924 0.0
H1357 H 0.71715 0.55886 0.66173 0.0
H1358 H 0.67555 0.53267 0.61325 0.0
H1359 H 0.65143 0.51958 0.64091 0.0
C1360 C 0.71896 0.56411 0.58135 0.0
C1361 C 0.7221 0.58613 0.58452 0.0
C1362 C 0.71285 0.55098 0.59825 0.0
C1363 C 0.70965 0.55961 0.61867 0.0
C1364 C 0.71483 0.58124 0.62223 0.0
C1365 C 0.72111 0.59438 0.60529 0.0
C1366 C 0.68916 0.54263 0.67269 0.0
C1367 C 0.67006 0.53223 0.66708 0.0
C1368 C 0.70311 0.54996 0.65695 0.0
C1369 C 0.6981 0.54722 0.63529 0.0
C1370 C 0.67999 0.53498 0.6298 0.0
C1371 C 0.66611 0.52744 0.64561 0.0
H1372 H 0.33833 0.9148 0.16614 0.0
H1373 H 0.32484 0.9821 0.15914 0.0
H1374 H 0.30835 0.90617 0.14365 0.0
H1375 H 0.29416 0.97325 0.13613 0.0
H1376 H 0.27401 0.93825 0.06993 0.0
H1377 H 0.29005 0.95692 0.09991 0.0
H1378 H 0.26903 0.90668 0.14216 0.0
H1379 H 0.25349 0.88764 0.11187 0.0
C1380 C 0.32881 0.92783 0.1599 0.0
C1381 C 0.33398 0.94916 0.16445 0.0
C1382 C 0.31134 0.92283 0.14722 0.0
C1383 C 0.29843 0.93898 0.13862 0.0
C1384 C 0.30368 0.96045 0.14282 0.0
C1385 C 0.32132 0.96552 0.15574 0.0
C1386 C 0.27187 0.93173 0.08582 0.0
C1387 C 0.26308 0.91125 0.08859 0.0
C1388 C 0.28106 0.94248 0.10302 0.0
C1389 C 0.2815 0.93285 0.12321 0.0
C1390 C 0.26939 0.91416 0.12658 0.0
C1391 C 0.26025 0.90335 0.10931 0.0
H1392 H 0.33757 0.48723 0.65084 0.0
H1393 H 0.32192 0.42698 0.68056 0.0
H1394 H 0.31082 0.48019 0.62314 0.0
H1395 H 0.29627 0.41965 0.65298 0.0
H1396 H 0.25432 0.40248 0.60318 0.0
H1397 H 0.26464 0.42482 0.63352 0.0
H1398 H 0.31143 0.45664 0.59388 0.0
H1399 H 0.30042 0.4352 0.56377 0.0
C1400 C 0.32833 0.47263 0.65158 0.0
C1401 C 0.3323 0.45743 0.66754 0.0
C1402 C 0.31298 0.46859 0.63576 0.0
C1403 C 0.30144 0.44923 0.63563 0.0
C1404 C 0.30449 0.43485 0.65254 0.0
C1405 C 0.31962 0.43892 0.66826 0.0
C1406 C 0.2661 0.41492 0.60083 0.0
C1407 C 0.27708 0.41669 0.58141 0.0
C1408 C 0.2722 0.4276 0.61822 0.0
C1409 C 0.28948 0.44198 0.6164 0.0
C1410 C 0.29821 0.44571 0.59609 0.0
C1411 C 0.29204 0.43321 0.57878 0.0
H1412 H 0.69025 0.0437 0.18773 0.0
H1413 H 0.64246 0.02522 0.14165 0.0
H1414 H 0.71386 0.05519 0.15904 0.0
H1415 H 0.66568 0.0374 0.11286 0.0
H1416 H 0.70881 0.05909 0.06277 0.0
H1417 H 0.69736 0.03601 0.09189 0.0
H1418 H 0.71244 0.08609 0.13699 0.0
H1419 H 0.72465 0.10876 0.10778 0.0
C1420 C 0.685 0.04172 0.17136 0.0
C1421 C 0.66444 0.03388 0.16683 0.0
C1422 C 0.69847 0.04843 0.15496 0.0
C1423 C 0.69154 0.04769 0.13366 0.0
C1424 C 0.67165 0.03811 0.12906 0.0
C1425 C 0.65826 0.03113 0.14553 0.0
C1426 C 0.71029 0.06484 0.07902 0.0
C1427 C 0.71735 0.08574 0.08312 0.0
C1428 C 0.70358 0.0517 0.09567 0.0
C1429 C 0.70347 0.05933 0.11674 0.0
C1430 C 0.71238 0.07959 0.12098 0.0
C1431 C 0.7194 0.09266 0.10427 0.0
H1432 H 0.60877 0.22814 0.10248 0.0
H1433 H 0.56098 0.2072 0.05751 0.0
H1434 H 0.63682 0.21631 0.07816 0.0
H1435 H 0.58887 0.19619 0.03267 0.0
H1436 H 0.68563 0.19343 0.03482 0.0
H1437 H 0.65655 0.21683 0.04587 0.0
H1438 H 0.61147 0.16588 0.03387 0.0
H1439 H 0.6406 0.14292 0.02198 0.0
C1440 C 0.60434 0.22184 0.08699 0.0
C1441 C 0.58286 0.21826 0.08192 0.0
C1442 C 0.62037 0.21506 0.07297 0.0
C1443 C 0.6151 0.20488 0.05356 0.0
C1444 C 0.5935 0.20343 0.04768 0.0
C1445 C 0.57754 0.20987 0.06182 0.0
C1446 C 0.66935 0.18759 0.03379 0.0
C1447 C 0.66523 0.16639 0.02775 0.0
C1448 C 0.65274 0.20091 0.04032 0.0
C1449 C 0.63172 0.19312 0.0413 0.0
C1450 C 0.62743 0.17252 0.03323 0.0
C1451 C 0.64408 0.15928 0.02638 0.0
H1452 H 0.51973 0.33718 0.32961 0.0
H1453 H 0.5864 0.3192 0.33011 0.0
H1454 H 0.52787 0.3661 0.30476 0.0
H1455 H 0.59466 0.34839 0.30626 0.0
H1456 H 0.60836 0.39911 0.261 0.0
H1457 H 0.59296 0.36513 0.27255 0.0
H1458 H 0.54455 0.39936 0.30805 0.0
H1459 H 0.55914 0.43279 0.29574 0.0
C1460 C 0.5361 0.33942 0.32444 0.0
C1461 C 0.55246 0.32614 0.33209 0.0
C1462 C 0.54078 0.35596 0.31017 0.0
C1463 C 0.56197 0.35971 0.30352 0.0
C1464 C 0.57812 0.34585 0.31063 0.0
C1465 C 0.57341 0.32923 0.32462 0.0
C1466 C 0.59402 0.39926 0.27067 0.0
C1467 C 0.58531 0.41858 0.27793 0.0
C1468 C 0.58529 0.37983 0.27749 0.0
C1469 C 0.56783 0.37947 0.29173 0.0
C1470 C 0.55793 0.39885 0.29711 0.0
C1471 C 0.5665 0.41814 0.2902 0.0
H1472 H 0.48222 0.13673 0.85358 0.0
H1473 H 0.46539 0.18753 0.81035 0.0
H1474 H 0.4732 0.11052 0.82634 0.0
H1475 H 0.45749 0.16153 0.78248 0.0
H1476 H 0.40339 0.11226 0.76622 0.0
H1477 H 0.42729 0.13994 0.77913 0.0
H1478 H 0.47489 0.09206 0.79392 0.0
H1479 H 0.45024 0.06437 0.78199 0.0
C1480 C 0.47757 0.14224 0.83786 0.0
C1481 C 0.47418 0.16397 0.83404 0.0
C1482 C 0.47243 0.12726 0.82211 0.0
C1483 C 0.46411 0.13386 0.80222 0.0
C1484 C 0.46323 0.15582 0.79775 0.0
C1485 C 0.46792 0.17073 0.81362 0.0
C1486 C 0.41934 0.10782 0.77129 0.0
C1487 C 0.42497 0.08632 0.77337 0.0
C1488 C 0.43315 0.12369 0.77878 0.0
C1489 C 0.4529 0.11822 0.78821 0.0
C1490 C 0.45958 0.09681 0.78742 0.0
C1491 C 0.4456 0.08096 0.78033 0.0
H1492 H 0.9395 0.43445 0.20976 0.0
H1493 H 0.88953 0.39846 0.24079 0.0
H1494 H 0.95532 0.40175 0.19664 0.0
H1495 H 0.90604 0.3653 0.22846 0.0
H1496 H 0.91185 0.32507 0.16708 0.0
H1497 H 0.90414 0.35252 0.1929 0.0
H1498 H 0.97146 0.36755 0.19725 0.0
H1499 H 0.97918 0.34007 0.17048 0.0
C1500 C 0.93235 0.41941 0.21446 0.0
C1501 C 0.91289 0.41897 0.22567 0.0
C1502 C 0.94157 0.40058 0.20706 0.0
C1503 C 0.93157 0.3809 0.21088 0.0
C1504 C 0.91374 0.3803 0.22467 0.0
C1505 C 0.90439 0.39925 0.23195 0.0
C1506 C 0.92511 0.33409 0.17357 0.0
C1507 C 0.94612 0.33057 0.16649 0.0
C1508 C 0.92069 0.34968 0.18874 0.0
C1509 C 0.93718 0.36216 0.19743 0.0
C1510 C 0.95836 0.35828 0.1908 0.0
C1511 C 0.96279 0.34265 0.1754 0.0
H1512 H 0.1016 0.09899 0.72906 0.0
H1513 H 0.07927 0.0648 0.67343 0.0
H1514 H 0.07986 0.12972 0.71861 0.0
H1515 H 0.05856 0.09539 0.66262 0.0
H1516 H 0.07199 0.18665 0.67229 0.0
H1517 H 0.08381 0.1555 0.6915 0.0
H1518 H 0.03018 0.11974 0.66668 0.0
H1519 H 0.01873 0.1511 0.64643 0.0
C1520 C 0.09195 0.09796 0.71475 0.0
C1521 C 0.09256 0.07965 0.70184 0.0
C1522 C 0.07954 0.11556 0.70869 0.0
C1523 C 0.06765 0.11519 0.68957 0.0
C1524 C 0.06727 0.09631 0.67751 0.0
C1525 C 0.07948 0.07878 0.68361 0.0
C1526 C 0.06252 0.17224 0.67098 0.0
C1527 C 0.04463 0.17126 0.6574 0.0
C1528 C 0.06919 0.15436 0.68232 0.0
C1529 C 0.05807 0.13499 0.68061 0.0
C1530 C 0.03937 0.13432 0.66806 0.0
C1531 C 0.03277 0.15227 0.65647 0.0
H1532 H 0.6046 0.88843 0.75718 0.0
H1533 H 0.55385 0.93389 0.76707 0.0
H1534 H 0.58125 0.8598 0.76895 0.0
H1535 H 0.52989 0.90519 0.7779 0.0
H1536 H 0.52116 0.86257 0.83902 0.0
H1537 H 0.53037 0.88819 0.8113 0.0
H1538 H 0.55197 0.83657 0.77073 0.0
H1539 H 0.54377 0.81123 0.79913 0.0
C1540 C 0.58803 0.89206 0.76065 0.0
C1541 C 0.58104 0.91326 0.7615 0.0
C1542 C 0.57453 0.87565 0.76749 0.0
C1543 C 0.55377 0.88024 0.77505 0.0
C1544 C 0.54595 0.90116 0.77286 0.0
C1545 C 0.55956 0.91756 0.76638 0.0
C1546 C 0.52714 0.85674 0.82387 0.0
C1547 C 0.5321 0.83513 0.82121 0.0
C1548 C 0.5324 0.87138 0.80785 0.0
C1549 C 0.54242 0.86452 0.78884 0.0
C1550 C 0.54488 0.84249 0.78535 0.0
C1551 C 0.54004 0.82797 0.80152 0.0
H1552 H 0.4062 0.61192 0.27564 0.0
H1553 H 0.44087 0.56017 0.30491 0.0
H1554 H 0.43433 0.63666 0.28606 0.0
H1555 H 0.46979 0.58449 0.31429 0.0
H1556 H 0.48508 0.63892 0.36321 0.0
H1557 H 0.47194 0.60962 0.3415 0.0
H1558 H 0.46839 0.65169 0.28684 0.0
H1559 H 0.48038 0.68121 0.3092 0.0
C1560 C 0.4203 0.60577 0.28356 0.0
C1561 C 0.42129 0.58438 0.28989 0.0
C1562 C 0.43657 0.61988 0.28947 0.0
C1563 C 0.45428 0.6127 0.30146 0.0
C1564 C 0.45617 0.59074 0.30567 0.0
C1565 C 0.43968 0.57678 0.30021 0.0
C1566 C 0.48246 0.64158 0.34632 0.0
C1567 C 0.48355 0.66221 0.33785 0.0
C1568 C 0.47483 0.62478 0.33377 0.0
C1569 C 0.46845 0.62837 0.31245 0.0
C1570 C 0.47246 0.64848 0.30333 0.0
C1571 C 0.47966 0.66533 0.31602 0.0
H1572 H 0.63863 0.62929 0.523 0.0
H1573 H 0.67819 0.68566 0.52585 0.0
H1574 H 0.6087 0.64963 0.53736 0.0
H1575 H 0.64821 0.70617 0.53976 0.0
H1576 H 0.60597 0.71795 0.60051 0.0
H1577 H 0.63273 0.70528 0.57505 0.0
H1578 H 0.58273 0.67781 0.53615 0.0
H1579 H 0.55621 0.68992 0.56185 0.0
C1580 C 0.64063 0.64624 0.52574 0.0
C1581 C 0.66076 0.65581 0.5236 0.0
C1582 C 0.62351 0.65795 0.53409 0.0
C1583 C 0.62624 0.67944 0.54024 0.0
C1584 C 0.64575 0.68953 0.53575 0.0
C1585 C 0.66284 0.67783 0.52755 0.0
C1586 C 0.60074 0.70957 0.58631 0.0
C1587 C 0.57912 0.70454 0.58338 0.0
C1588 C 0.61602 0.70237 0.57163 0.0
C1589 C 0.60987 0.69026 0.55365 0.0
C1590 C 0.58805 0.68666 0.55003 0.0
C1591 C 0.57287 0.69363 0.56476 0.0
H1592 H 0.96639 0.81634 0.68239 0.0
H1593 H 0.98215 0.8588 0.63038 0.0
H1594 H 0.94889 0.84574 0.70112 0.0
H1595 H 0.96491 0.88811 0.6492 0.0
H1596 H 0.90092 0.918 0.66505 0.0
H1597 H 0.92569 0.89073 0.65316 0.0
H1598 H 0.94833 0.88279 0.71782 0.0
H1599 H 0.9229 0.91037 0.72988 0.0
C1600 C 0.96673 0.83209 0.67526 0.0
C1601 C 0.97515 0.83511 0.65462 0.0
C1602 C 0.95674 0.84894 0.68605 0.0
C1603 C 0.95491 0.86902 0.6763 0.0
C1604 C 0.96559 0.87262 0.65685 0.0
C1605 C 0.97565 0.85584 0.64613 0.0
C1606 C 0.91101 0.91029 0.6768 0.0
C1607 C 0.91003 0.91625 0.69836 0.0
C1608 C 0.92543 0.89488 0.66995 0.0
C1609 C 0.93944 0.88507 0.68444 0.0
C1610 C 0.93784 0.89025 0.70627 0.0
C1611 C 0.92319 0.9058 0.71321 0.0
H1612 H 0.01504 0.65565 0.18134 0.0
H1613 H 0.07966 0.6796 0.1853 0.0
H1614 H 0.02277 0.63049 0.21015 0.0
H1615 H 0.08763 0.65423 0.21303 0.0
H1616 H 0.10677 0.60542 0.25443 0.0
H1617 H 0.08577 0.63733 0.24631 0.0
H1618 H 0.04242 0.59884 0.20869 0.0
H1619 H 0.06264 0.56733 0.21769 0.0
C1620 C 0.03078 0.65571 0.18851 0.0
C1621 C 0.04694 0.66909 0.18057 0.0
C1622 C 0.03523 0.64133 0.20503 0.0
C1623 C 0.05596 0.63997 0.21375 0.0
C1624 C 0.07143 0.65477 0.207 0.0
C1625 C 0.06696 0.66916 0.19069 0.0
C1626 C 0.09216 0.60376 0.24531 0.0
C1627 C 0.0867 0.58415 0.23603 0.0
C1628 C 0.08022 0.62203 0.24045 0.0
C1629 C 0.06292 0.62085 0.22604 0.0
C1630 C 0.0557 0.6006 0.21963 0.0
C1631 C 0.06746 0.58244 0.22463 0.0
H1632 H 0.20013 0.50614 0.24243 0.0
H1633 H 0.20612 0.57159 0.26335 0.0
H1634 H 0.23911 0.50367 0.23933 0.0
H1635 H 0.24475 0.56906 0.26036 0.0
H1636 H 0.30778 0.56989 0.22918 0.0
H1637 H 0.26903 0.56659 0.22901 0.0
H1638 H 0.2739 0.50529 0.26006 0.0
H1639 H 0.31283 0.50845 0.26005 0.0
C1640 C 0.20975 0.5198 0.24691 0.0
C1641 C 0.2 0.53911 0.25303 0.0
C1642 C 0.23205 0.51842 0.24496 0.0
C1643 C 0.24494 0.53636 0.24899 0.0
C1644 C 0.23522 0.55515 0.25649 0.0
C1645 C 0.21306 0.55651 0.25849 0.0
C1646 C 0.30068 0.55537 0.23533 0.0
C1647 C 0.31342 0.53957 0.24485 0.0
C1648 C 0.27843 0.55361 0.23549 0.0
C1649 C 0.26841 0.53601 0.24518 0.0
C1650 C 0.28116 0.51913 0.25266 0.0
C1651 C 0.3035 0.52088 0.25248 0.0
H1652 H 0.68492 0.43661 0.52202 0.0
H1653 H 0.73974 0.43485 0.48018 0.0
H1654 H 0.68644 0.47543 0.52237 0.0
H1655 H 0.74085 0.47374 0.47994 0.0
H1656 H 0.74182 0.54654 0.49644 0.0
H1657 H 0.74557 0.50768 0.49783 0.0
H1658 H 0.67684 0.50124 0.49585 0.0
H1659 H 0.67319 0.53988 0.49518 0.0
C1660 C 0.69766 0.44449 0.51336 0.0
C1661 C 0.71209 0.43262 0.50096 0.0
C1662 C 0.69832 0.46678 0.51324 0.0
C1663 C 0.71329 0.47775 0.50054 0.0
C1664 C 0.729 0.46586 0.48977 0.0
C1665 C 0.72846 0.4435 0.49005 0.0
C1666 C 0.72757 0.53675 0.49572 0.0
C1667 C 0.7072 0.54623 0.49576 0.0
C1668 C 0.7297 0.51448 0.4967 0.0
C1669 C 0.71149 0.50132 0.49761 0.0
C1670 C 0.6912 0.51088 0.49598 0.0
C1671 C 0.68909 0.53304 0.49522 0.0
H1672 H 0.80389 0.92426 0.75021 0.0
H1673 H 0.80666 0.99287 0.74532 0.0
H1674 H 0.76505 0.9258 0.75128 0.0
H1675 H 0.7677 0.99451 0.74515 0.0
H1676 H 0.69892 0.92952 0.72575 0.0
H1677 H 0.73773 0.93123 0.72664 0.0
H1678 H 0.73425 0.99058 0.76174 0.0
H1679 H 0.69533 0.98929 0.75979 0.0
C1680 C 0.79615 0.93972 0.74978 0.0
C1681 C 0.80831 0.95842 0.74776 0.0
C1682 C 0.77383 0.94063 0.74996 0.0
C1683 C 0.76306 0.96024 0.74757 0.0
C1684 C 0.77531 0.9791 0.747 0.0
C1685 C 0.7977 0.9782 0.74725 0.0
C1686 C 0.70648 0.9432 0.73316 0.0
C1687 C 0.69407 0.95928 0.74262 0.0
C1688 C 0.72877 0.94402 0.73405 0.0
C1689 C 0.7393 0.96072 0.74486 0.0
C1690 C 0.72684 0.97746 0.75328 0.0
C1691 C 0.70447 0.9768 0.75205 0.0
H1692 H 0.26037 0.04818 0.01149 0.0
H1693 H 0.32769 0.0502 0.99639 0.0
H1694 H 0.26195 0.00915 0.01273 0.0
H1695 H 0.32915 0.01155 0.9969 0.0
H1696 H 0.32859 0.94253 0.01922 0.0
H1697 H 0.32759 0.98115 0.01887 0.0
H1698 H 0.26582 0.97939 0.98808 0.0
H1699 H 0.26643 0.94037 0.98928 0.0
C1700 C 0.27556 0.04032 0.00885 0.0
C1701 C 0.2939 0.05224 0.00385 0.0
C1702 C 0.27641 0.01797 0.00917 0.0
C1703 C 0.29561 0.00717 0.00457 0.0
C1704 C 0.31411 0.01925 0.00063 0.0
C1705 C 0.31327 0.04147 0.00033 0.0
C1706 C 0.31495 0.95029 0.01195 0.0
C1707 C 0.29757 0.93831 0.00427 0.0
C1708 C 0.31436 0.97253 0.0118 0.0
C1709 C 0.29649 0.98344 0.00371 0.0
C1710 C 0.27961 0.97148 0.9949 0.0
C1711 C 0.28013 0.94912 0.99519 0.0
H1712 H 0.19946 0.49312 0.75031 0.0
H1713 H 0.20218 0.42448 0.74567 0.0
H1714 H 0.23836 0.49474 0.75041 0.0
H1715 H 0.24101 0.426 0.74448 0.0
H1716 H 0.30782 0.42974 0.76794 0.0
H1717 H 0.26897 0.43141 0.76828 0.0
H1718 H 0.27134 0.49097 0.73347 0.0
H1719 H 0.31023 0.48977 0.73431 0.0
C1720 C 0.20839 0.47843 0.74844 0.0
C1721 C 0.19779 0.45866 0.74797 0.0
C1722 C 0.23077 0.47932 0.74864 0.0
C1723 C 0.24302 0.46046 0.74804 0.0
C1724 C 0.23224 0.44083 0.74581 0.0
C1725 C 0.20993 0.43994 0.74605 0.0
C1726 C 0.30001 0.4435 0.76096 0.0
C1727 C 0.31208 0.45966 0.75122 0.0
C1728 C 0.27768 0.44428 0.76074 0.0
C1729 C 0.26682 0.46101 0.75031 0.0
C1730 C 0.27899 0.47784 0.74169 0.0
C1731 C 0.30137 0.47724 0.74229 0.0
H1732 H 0.82156 0.44553 0.98486 0.0
H1733 H 0.75853 0.4383 0.01204 0.0
H1734 H 0.81837 0.48411 0.98771 0.0
H1735 H 0.75544 0.47716 0.01508 0.0
H1736 H 0.82106 0.54659 0.02104 0.0
H1737 H 0.81888 0.50785 0.01919 0.0
H1738 H 0.75423 0.5124 0.9956 0.0
H1739 H 0.7563 0.55139 0.99773 0.0
C1740 C 0.80681 0.45218 0.99102 0.0
C1741 C 0.79038 0.43878 0.99835 0.0
C1742 C 0.8051 0.47432 0.99293 0.0
C1743 C 0.78692 0.48368 0.00224 0.0
C1744 C 0.76972 0.47042 0.008 0.0
C1745 C 0.77145 0.44816 0.0061 0.0
C1746 C 0.80616 0.53936 0.01601 0.0
C1747 C 0.78892 0.5521 0.00939 0.0
C1748 C 0.805 0.51715 0.01467 0.0
C1749 C 0.78662 0.50707 0.00659 0.0
C1750 C 0.76867 0.51969 0.00173 0.0
C1751 C 0.76982 0.54203 0.00312 0.0
H1752 H 0.79842 0.06854 0.23406 0.0
H1753 H 0.80475 0.00683 0.26411 0.0
H1754 H 0.75977 0.06587 0.23655 0.0
H1755 H 0.76578 0.0043 0.26694 0.0
H1756 H 0.69599 0.07035 0.26634 0.0
H1757 H 0.73481 0.06819 0.26625 0.0
H1758 H 0.73122 0.00194 0.2475 0.0
H1759 H 0.69217 0.00401 0.24807 0.0
C1760 C 0.79155 0.05422 0.24089 0.0
C1761 C 0.8047 0.03796 0.24898 0.0
C1762 C 0.76936 0.05281 0.24259 0.0
C1763 C 0.75968 0.03515 0.25254 0.0
C1764 C 0.77273 0.01817 0.25932 0.0
C1765 C 0.79505 0.01957 0.25757 0.0
C1766 C 0.70345 0.05515 0.26282 0.0
C1767 C 0.691 0.0374 0.25711 0.0
C1768 C 0.72573 0.05397 0.26246 0.0
C1769 C 0.73613 0.03508 0.25619 0.0
C1770 C 0.72371 0.01677 0.25226 0.0
C1771 C 0.70132 0.01792 0.25276 0.0
H1772 H 0.15804 0.05834 0.5232 0.0
H1773 H 0.22179 0.05926 0.49674 0.0
H1774 H 0.15799 0.01962 0.522 0.0
H1775 H 0.22146 0.02031 0.49483 0.0
H1776 H 0.22439 0.95109 0.5158 0.0
H1777 H 0.22326 0.98997 0.51869 0.0
H1778 H 0.15694 0.98934 0.49949 0.0
H1779 H 0.15793 0.95067 0.49727 0.0
C1780 C 0.17185 0.05031 0.51655 0.0
C1781 C 0.18991 0.06199 0.51003 0.0
C1782 C 0.17184 0.02801 0.51593 0.0
C1783 C 0.18984 0.01673 0.50861 0.0
C1784 C 0.20751 0.02844 0.50105 0.0
C1785 C 0.20755 0.05081 0.50177 0.0
C1786 C 0.20942 0.95922 0.51281 0.0
C1787 C 0.19125 0.94774 0.50632 0.0
C1788 C 0.20886 0.98156 0.51408 0.0
C1789 C 0.19012 0.9929 0.50891 0.0
C1790 C 0.17165 0.98125 0.50365 0.0
C1791 C 0.1722 0.95899 0.50241 0.0
H1792 H 0.26493 0.20162 0.56817 0.0
H1793 H 0.23708 0.19248 0.50573 0.0
H1794 H 0.26299 0.2401 0.56342 0.0
H1795 H 0.23537 0.23134 0.50097 0.0
H1796 H 0.22664 0.30142 0.56403 0.0
H1797 H 0.22777 0.26267 0.56151 0.0
H1798 H 0.25966 0.26717 0.50064 0.0
H1799 H 0.25872 0.30624 0.50314 0.0
C1800 C 0.25892 0.20778 0.55318 0.0
C1801 C 0.25094 0.19393 0.53744 0.0
C1802 C 0.25761 0.22985 0.55056 0.0
C1803 C 0.24848 0.23865 0.53208 0.0
C1804 C 0.24229 0.22493 0.51545 0.0
C1805 C 0.24344 0.2027 0.51814 0.0
C1806 C 0.23335 0.29425 0.54979 0.0
C1807 C 0.24283 0.30696 0.53393 0.0
C1808 C 0.23419 0.27203 0.54846 0.0
C1809 C 0.24435 0.26198 0.53117 0.0
C1810 C 0.25191 0.27456 0.51423 0.0
C1811 C 0.2512 0.29692 0.51561 0.0
H1812 H 0.05171 0.52321 0.81137 0.0
H1813 H 0.05735 0.49213 0.75011 0.0
H1814 H 0.01301 0.5202 0.80942 0.0
H1815 H 0.01846 0.48853 0.74839 0.0
H1816 H 0.94437 0.50254 0.74934 0.0
H1817 H 0.98324 0.50541 0.74638 0.0
H1818 H 0.98925 0.49023 0.81337 0.0
H1819 H 0.95056 0.488 0.81639 0.0
C1820 C 0.04463 0.51617 0.79724 0.0
C1821 C 0.05757 0.50786 0.78094 0.0
C1822 C 0.02245 0.51411 0.79627 0.0
C1823 C 0.01266 0.50345 0.77908 0.0
C1824 C 0.02549 0.49669 0.76192 0.0
C1825 C 0.04777 0.49892 0.76282 0.0
C1826 C 0.95406 0.49913 0.76325 0.0
C1827 C 0.94442 0.49515 0.78314 0.0
C1828 C 0.97634 0.50097 0.7616 0.0
C1829 C 0.98932 0.49874 0.77979 0.0
C1830 C 0.97969 0.49282 0.7992 0.0
C1831 C 0.95752 0.49117 0.80087 0.0
H1832 H 0.75857 0.30818 0.00741 0.0
H1833 H 0.73979 0.30612 0.07362 0.0
H1834 H 0.75811 0.26938 0.00592 0.0
H1835 H 0.73799 0.26733 0.07194 0.0
H1836 H 0.74203 0.19761 0.00754 0.0
H1837 H 0.7409 0.23647 0.00617 0.0
H1838 H 0.7621 0.23919 0.07182 0.0
H1839 H 0.76195 0.20038 0.07338 0.0
C1840 C 0.7534 0.29944 0.02141 0.0
C1841 C 0.74921 0.31022 0.04065 0.0
C1842 C 0.75329 0.27709 0.02062 0.0
C1843 C 0.74861 0.26499 0.03898 0.0
C1844 C 0.74251 0.27596 0.05767 0.0
C1845 C 0.74307 0.29826 0.05856 0.0
C1846 C 0.74699 0.20656 0.02149 0.0
C1847 C 0.75216 0.19595 0.04056 0.0
C1848 C 0.74619 0.22892 0.02077 0.0
C1849 C 0.75088 0.24118 0.03904 0.0
C1850 C 0.75757 0.23042 0.05763 0.0
C1851 C 0.75794 0.20812 0.05845 0.0
H1852 H 0.94454 0.00542 0.26052 0.0
H1853 H 0.94576 0.99634 0.3287 0.0
H1854 H 0.98328 0.00451 0.2595 0.0
H1855 H 0.98456 0.99354 0.32772 0.0
H1856 H 0.05327 0.01265 0.32635 0.0
H1857 H 0.0144 0.01393 0.3254 0.0
H1858 H 0.01548 0.98828 0.26122 0.0
H1859 H 0.05428 0.98885 0.2618 0.0
C1860 C 0.95313 0.00224 0.27519 0.0
C1861 C 0.94213 0.00081 0.29467 0.0
C1862 C 0.97549 0.00181 0.27467 0.0
C1863 C 0.98745 0.99939 0.29359 0.0
C1864 C 0.97618 0.99628 0.31286 0.0
C1865 C 0.95385 0.99737 0.31343 0.0
C1866 C 0.04509 0.00795 0.31184 0.0
C1867 C 0.05678 0.00101 0.29405 0.0
C1868 C 0.02273 0.00819 0.31139 0.0
C1869 C 0.01141 0.00073 0.29339 0.0
C1870 C 0.02331 0.99443 0.27533 0.0
C1871 C 0.04568 0.99483 0.27558 0.0
H1872 H 0.26997 0.80953 0.43903 0.0
H1873 H 0.23807 0.81294 0.50002 0.0
H1874 H 0.26922 0.77074 0.44072 0.0
H1875 H 0.23662 0.77398 0.50144 0.0
H1876 H 0.23876 0.70716 0.43261 0.0
H1877 H 0.24078 0.74577 0.43593 0.0
H1878 H 0.25412 0.7394 0.5033 0.0
H1879 H 0.25133 0.70053 0.5 0.0
C1880 C 0.26325 0.80197 0.45306 0.0
C1881 C 0.25398 0.8143 0.46931 0.0
C1882 C 0.26248 0.77971 0.45389 0.0
C1883 C 0.25216 0.76921 0.47086 0.0
C1884 C 0.24455 0.78151 0.48806 0.0
C1885 C 0.24553 0.80387 0.48732 0.0
C1886 C 0.24161 0.71402 0.44823 0.0
C1887 C 0.2449 0.70084 0.46602 0.0
C1888 C 0.24313 0.73616 0.4501 0.0
C1889 C 0.24832 0.74572 0.46976 0.0
C1890 C 0.25022 0.7326 0.4879 0.0
C1891 C 0.24845 0.71033 0.48605 0.0
H1892 H 0.44363 0.4948 0.73852 0.0
H1893 H 0.44473 0.51309 0.67214 0.0
H1894 H 0.48251 0.49591 0.73954 0.0
H1895 H 0.48355 0.5153 0.67333 0.0
H1896 H 0.55097 0.49157 0.67184 0.0
H1897 H 0.51214 0.49132 0.67365 0.0
H1898 H 0.51505 0.5145 0.73859 0.0
H1899 H 0.55397 0.51372 0.73699 0.0
C1900 C 0.45214 0.49989 0.72435 0.0
C1901 C 0.44107 0.50383 0.70523 0.0
C1902 C 0.47454 0.50041 0.72489 0.0
C1903 C 0.48638 0.50516 0.70637 0.0
C1904 C 0.47511 0.51081 0.68773 0.0
C1905 C 0.45278 0.50995 0.68712 0.0
C1906 C 0.54331 0.49614 0.68666 0.0
C1907 C 0.55558 0.50255 0.70429 0.0
C1908 C 0.52098 0.49638 0.68761 0.0
C1909 C 0.51025 0.50342 0.7061 0.0
C1910 C 0.5226 0.50891 0.72409 0.0
C1911 C 0.54499 0.50836 0.72322 0.0
H1912 H 0.76434 0.69079 0.99434 0.0
H1913 H 0.74237 0.69313 0.92917 0.0
H1914 H 0.76513 0.72957 0.99566 0.0
H1915 H 0.74152 0.73195 0.93077 0.0
H1916 H 0.76155 0.79977 0.9287 0.0
H1917 H 0.76364 0.76099 0.92963 0.0
H1918 H 0.74862 0.76211 0.99706 0.0
H1919 H 0.74818 0.80091 0.99619 0.0
C1920 C 0.7588 0.69965 0.98056 0.0
C1921 C 0.75312 0.68894 0.9617 0.0
C1922 C 0.75936 0.722 0.98124 0.0
C1923 C 0.75381 0.73421 0.96318 0.0
C1924 C 0.7467 0.7233 0.9448 0.0
C1925 C 0.7467 0.70098 0.94396 0.0
C1926 C 0.75943 0.79167 0.94383 0.0
C1927 C 0.75488 0.80336 0.96238 0.0
C1928 C 0.76014 0.76936 0.94434 0.0
C1929 C 0.75563 0.75809 0.9633 0.0
C1930 C 0.75229 0.76997 0.98213 0.0
C1931 C 0.75215 0.79233 0.9817 0.0
H1932 H 0.44031 0.98972 0.23823 0.0
H1933 H 0.4429 0.01452 0.17404 0.0
H1934 H 0.47915 0.98992 0.23996 0.0
H1935 H 0.48172 0.01584 0.17606 0.0
H1936 H 0.55113 0.00621 0.23993 0.0
H1937 H 0.51221 0.00739 0.2413 0.0
H1938 H 0.5096 0.99114 0.17426 0.0
H1939 H 0.54846 0.99111 0.1728 0.0
C1940 C 0.44915 0.99609 0.22479 0.0
C1941 C 0.43849 0.00207 0.20596 0.0
C1942 C 0.47153 0.99606 0.22572 0.0
C1943 C 0.48377 0.0023 0.20793 0.0
C1944 C 0.47295 0.01012 0.18981 0.0
C1945 C 0.45062 0.0098 0.18877 0.0
C1946 C 0.5422 0.00235 0.22563 0.0
C1947 C 0.55286 0.99852 0.20625 0.0
C1948 C 0.51982 0.00317 0.22636 0.0
C1949 C 0.50758 -9e-05 0.20777 0.0
C1950 C 0.51837 0.99455 0.18876 0.0
C1951 C 0.54069 0.99409 0.18797 0.0
H1952 H 0.57325 0.26481 0.19711 0.0
H1953 H 0.50653 0.24795 0.19232 0.0
H1954 H 0.57094 0.26303 0.23584 0.0
H1955 H 0.50431 0.24571 0.23122 0.0
H1956 H 0.5091 0.26004 0.3051 0.0
H1957 H 0.50672 0.26368 0.2663 0.0
H1958 H 0.56797 0.23257 0.25979 0.0
H1959 H 0.57052 0.22933 0.29839 0.0
C1960 C 0.55794 0.26126 0.20435 0.0
C1961 C 0.54012 0.25641 0.19161 0.0
C1962 C 0.55668 0.25989 0.22656 0.0
C1963 C 0.53762 0.25351 0.23661 0.0
C1964 C 0.51927 0.25051 0.22399 0.0
C1965 C 0.52051 0.25198 0.20168 0.0
C1966 C 0.52176 0.25343 0.29534 0.0
C1967 C 0.54008 0.24452 0.30485 0.0
C1968 C 0.52046 0.25567 0.27309 0.0
C1969 C 0.53746 0.24902 0.25998 0.0
C1970 C 0.55492 0.23854 0.26946 0.0
C1971 C 0.55625 0.23638 0.2916 0.0
H1972 H 0.0065 0.75271 0.2971 0.0
H1973 H 0.07425 0.74016 0.29367 0.0
H1974 H 0.00466 0.75342 0.25821 0.0
H1975 H 0.07235 0.7402 0.25488 0.0
H1976 H 0.07059 0.76659 0.18921 0.0
H1977 H 0.06836 0.76704 0.22802 0.0
H1978 H 0.00745 0.73472 0.22492 0.0
H1979 H 0.00938 0.73494 0.18609 0.0
C1980 C 0.02086 0.74931 0.28806 0.0
C1981 C 0.04055 0.74645 0.2985 0.0
C1982 C 0.01984 0.74991 0.26571 0.0
C1983 C 0.03847 0.74751 0.25335 0.0
C1984 C 0.0578 0.74289 0.26386 0.0
C1985 C 0.05885 0.74246 0.28614 0.0
C1986 C 0.0564 0.76022 0.19679 0.0
C1987 C 0.04022 0.75067 0.18452 0.0
C1988 C 0.05528 0.76009 0.21908 0.0
C1989 C 0.03806 0.75025 0.22967 0.0
C1990 C 0.02101 0.74234 0.21736 0.0
C1991 C 0.02204 0.74264 0.19502 0.0
H1992 H 0.50456 0.33305 0.43853 0.0
H1993 H 0.49074 0.2655 0.4392 0.0
H1994 H 0.5012 0.33421 0.4772 0.0
H1995 H 0.48703 0.26673 0.47799 0.0
H1996 H 0.51184 0.27083 0.54669 0.0
H1997 H 0.51252 0.27116 0.50768 0.0
H1998 H 0.47756 0.33061 0.50761 0.0
H1999 H 0.47723 0.3305 0.54644 0.0
C2000 C 0.50016 0.31856 0.44687 0.0
C2001 C 0.498 0.29917 0.43577 0.0
C2002 C 0.49831 0.31921 0.46909 0.0
C2003 C 0.4943 0.30047 0.48075 0.0
C2004 C 0.49064 0.28136 0.46951 0.0
C2005 C 0.49238 0.28072 0.44723 0.0
C2006 C 0.50468 0.28417 0.53834 0.0
C2007 C 0.49454 0.30065 0.54969 0.0
C2008 C 0.50475 0.28419 0.51599 0.0
C2009 C 0.49477 0.30074 0.50451 0.0
C2010 C 0.48542 0.31765 0.51591 0.0
C2011 C 0.48529 0.31759 0.53821 0.0
H2012 H 0.98064 0.7366 0.71188 0.0
H2013 H 0.92941 0.78285 0.71334 0.0
H2014 H 0.98188 0.73698 0.75091 0.0
H2015 H 0.93124 0.78394 0.75189 0.0
H2016 H 0.92238 0.7598 0.82007 0.0
H2017 H 0.92259 0.76306 0.78161 0.0
H2018 H 0.99153 0.75858 0.78141 0.0
H2019 H 0.99121 0.75437 0.82021 0.0
C2020 C 0.96963 0.74677 0.72052 0.0
C2021 C 0.95481 0.75954 0.70954 0.0
C2022 C 0.97053 0.74724 0.74285 0.0
C2023 C 0.95673 0.7606 0.75458 0.0
C2024 C 0.94191 0.77325 0.74347 0.0
C2025 C 0.94087 0.77262 0.72129 0.0
C2026 C 0.93766 0.76003 0.81194 0.0
C2027 C 0.95677 0.75671 0.82322 0.0
C2028 C 0.93779 0.7619 0.78978 0.0
C2029 C 0.95707 0.76078 0.77832 0.0
C2030 C 0.97636 0.75902 0.78973 0.0
C2031 C 0.97622 0.75701 0.81199 0.0
H2032 H 0.96528 0.66222 0.9636 0.0
H2033 H 0.00803 0.71612 0.95899 0.0
H2034 H 0.96532 0.66522 0.00209 0.0
H2035 H 0.00917 0.71841 0.99794 0.0
H2036 H 0.99547 0.72898 0.06759 0.0
H2037 H 0.98988 0.72781 0.02904 0.0
H2038 H 0.9857 0.65897 0.032 0.0
H2039 H 0.99014 0.6603 0.07029 0.0
C2040 C 0.97521 0.67438 0.97085 0.0
C2041 C 0.98693 0.68873 0.95819 0.0
C2042 C 0.9752 0.67614 0.99305 0.0
C2043 C 0.98727 0.69204 0.00335 0.0
C2044 C 0.99935 0.70619 0.99066 0.0
C2045 C 0.99902 0.70468 0.96832 0.0
C2046 C 0.99263 0.71368 0.06006 0.0
C2047 C 0.99333 0.69473 0.07207 0.0
C2048 C 0.98982 0.71296 0.03786 0.0
C2049 C 0.98777 0.69326 0.02718 0.0
C2050 C 0.98706 0.67449 0.03949 0.0
C2051 C 0.98963 0.67523 0.0616 0.0
H2052 H 0.42884 0.75812 0.30506 0.0
H2053 H 0.49539 0.74058 0.30829 0.0
H2054 H 0.43075 0.75847 0.26626 0.0
H2055 H 0.49712 0.73935 0.26953 0.0
H2056 H 0.49615 0.75322 0.19743 0.0
H2057 H 0.4972 0.75491 0.23624 0.0
H2058 H 0.43124 0.7343 0.23864 0.0
H2059 H 0.42999 0.73421 0.19981 0.0
C2060 C 0.444 0.75475 0.29741 0.0
C2061 C 0.46199 0.74951 0.30967 0.0
C2062 C 0.44504 0.75445 0.27512 0.0
C2063 C 0.46392 0.74823 0.26452 0.0
C2064 C 0.48229 0.74428 0.27692 0.0
C2065 C 0.48137 0.74513 0.29923 0.0
C2066 C 0.4821 0.74847 0.20634 0.0
C2067 C 0.46302 0.74348 0.19567 0.0
C2068 C 0.48261 0.74958 0.22867 0.0
C2069 C 0.46414 0.7453 0.24081 0.0
C2070 C 0.44557 0.73858 0.22997 0.0
C2071 C 0.44493 0.73802 0.20769 0.0
H2072 H 0.48742 0.17879 0.05401 0.0
H2073 H 0.50513 0.2453 0.05774 0.0
H2074 H 0.48884 0.18053 0.01525 0.0
H2075 H 0.50704 0.24695 0.01879 0.0
H2076 H 0.51985 0.17948 0.95167 0.0
H2077 H 0.51841 0.1827 0.99035 0.0
H2078 H 0.48852 0.24454 0.98427 0.0
H2079 H 0.49045 0.24152 0.94542 0.0
C2080 C 0.49112 0.19394 0.04653 0.0
C2081 C 0.49623 0.21187 0.05898 0.0
C2082 C 0.4923 0.19486 0.0243 0.0
C2083 C 0.49877 0.2137 0.01391 0.0
C2084 C 0.50216 0.23215 0.02627 0.0
C2085 C 0.50087 0.23124 0.04861 0.0
C2086 C 0.51354 0.19405 0.95856 0.0
C2087 C 0.50516 0.21017 0.94545 0.0
C2088 C 0.51238 0.19575 0.98076 0.0
C2089 C 0.50266 0.21356 0.99043 0.0
C2090 C 0.49595 0.23054 0.97736 0.0
C2091 C 0.49723 0.22888 0.95507 0.0
H2092 H 0.3103 0.01198 0.76634 0.0
H2093 H 0.30558 0.07357 0.73583 0.0
H2094 H 0.27137 0.00964 0.76768 0.0
H2095 H 0.26682 0.07096 0.7364 0.0
H2096 H 0.20028 0.07461 0.75974 0.0
H2097 H 0.23912 0.07383 0.76186 0.0
H2098 H 0.23843 0.00605 0.74895 0.0
H2099 H 0.19948 0.00678 0.74777 0.0
C2100 C 0.30096 0.02473 0.75932 0.0
C2101 C 0.31105 0.04299 0.75101 0.0
C2102 C 0.27859 0.02345 0.7602 0.0
C2103 C 0.26584 0.04035 0.75265 0.0
C2104 C 0.27604 0.05795 0.74307 0.0
C2105 C 0.29832 0.05931 0.74239 0.0
C2106 C 0.20841 0.05943 0.75805 0.0
C2107 C 0.1968 0.04078 0.7536 0.0
C2108 C 0.23073 0.05902 0.75886 0.0
C2109 C 0.24205 0.04 0.75488 0.0
C2110 C 0.23034 0.02101 0.75206 0.0
C2111 C 0.20794 0.02139 0.75154 0.0
H2112 H 0.6779 0.05098 0.98631 0.0
H2113 H 0.74436 0.0559 0.004 0.0
H2114 H 0.68038 0.01223 0.98755 0.0
H2115 H 0.74672 0.01704 0.00605 0.0
H2116 H 0.74459 0.94372 0.99269 0.0
H2117 H 0.74589 0.98257 0.98922 0.0
H2118 H 0.68222 0.98685 0.0156 0.0
H2119 H 0.68072 0.94816 0.01833 0.0
C2120 C 0.69318 0.04375 0.99002 0.0
C2121 C 0.7109 0.05652 0.99507 0.0
C2122 C 0.69453 0.02151 0.99111 0.0
C2123 C 0.71357 0.01143 0.99759 0.0
C2124 C 0.73177 0.02418 0.00108 0.0
C2125 C 0.73047 0.0465 -0.00025 0.0
C2126 C 0.7311 0.95303 0.99825 0.0
C2127 C 0.71251 0.94285 0.00574 0.0
C2128 C 0.73178 0.97533 0.99612 0.0
C2129 C 0.71394 0.9879 0.00156 0.0
C2130 C 0.696 0.9777 0.01051 0.0
C2131 C 0.69524 0.9555 0.01243 0.0
H2132 H 0.8001 0.43484 0.26565 0.0
H2133 H 0.80392 0.50013 0.24418 0.0
H2134 H 0.7613 0.43649 0.2641 0.0
H2135 H 0.76512 0.50155 0.24129 0.0
H2136 H 0.69235 0.50067 0.25369 0.0
H2137 H 0.73118 0.50218 0.25635 0.0
H2138 H 0.73474 0.43556 0.23846 0.0
H2139 H 0.69591 0.43392 0.23722 0.0
C2140 C 0.79257 0.44969 0.26095 0.0
C2141 C 0.80503 0.46737 0.25516 0.0
C2142 C 0.7703 0.45054 0.25961 0.0
C2143 C 0.7599 0.46895 0.2519 0.0
C2144 C 0.7724 0.48709 0.24733 0.0
C2145 C 0.79471 0.48635 0.24911 0.0
C2146 C 0.70152 0.48653 0.24976 0.0
C2147 C 0.69114 0.46718 0.24521 0.0
C2148 C 0.72384 0.48733 0.25142 0.0
C2149 C 0.73627 0.46885 0.24819 0.0
C2150 C 0.7258 0.44995 0.24191 0.0
C2151 C 0.70352 0.44906 0.24074 0.0
H2152 H 0.2681 0.42982 0.48964 0.0
H2153 H 0.33675 0.43042 0.49676 0.0
H2154 H 0.26829 0.46854 0.48515 0.0
H2155 H 0.33689 0.46905 0.49257 0.0
H2156 H 0.32947 0.53785 0.4679 0.0
H2157 H 0.33023 0.499 0.46866 0.0
H2158 H 0.27484 0.49874 0.50979 0.0
H2159 H 0.27387 0.53775 0.50879 0.0
C2160 C 0.28329 0.4381 0.48964 0.0
C2161 C 0.30241 0.42699 0.49362 0.0
C2162 C 0.28336 0.46035 0.48744 0.0
C2163 C 0.30255 0.47194 0.48899 0.0
C2164 C 0.32182 0.46065 0.49133 0.0
C2165 C 0.32174 0.43845 0.49364 0.0
C2166 C 0.31759 0.52954 0.47734 0.0
C2167 C 0.3016 0.54093 0.48831 0.0
C2168 C 0.31803 0.50724 0.47774 0.0
C2169 C 0.30243 0.49573 0.48903 0.0
C2170 C 0.28683 0.50712 0.50057 0.0
C2171 C 0.28646 0.52949 0.50026 0.0
H2172 H 0.20273 0.92445 0.23669 0.0
H2173 H 0.20193 0.99175 0.25139 0.0
H2174 H 0.24158 0.92513 0.23529 0.0
H2175 H 0.24092 0.99235 0.25091 0.0
H2176 H 0.31249 0.98723 0.2321 0.0
H2177 H 0.27359 0.98962 0.23179 0.0
H2178 H 0.26969 0.92691 0.26028 0.0
H2179 H 0.30847 0.92427 0.25977 0.0
C2180 C 0.21088 0.93949 0.23926 0.0
C2181 C 0.19925 0.95803 0.24413 0.0
C2182 C 0.2332 0.93983 0.23883 0.0
C2183 C 0.24454 0.95866 0.24361 0.0
C2184 C 0.23283 0.97754 0.24715 0.0
C2185 C 0.21042 0.97724 0.2473 0.0
C2186 C 0.30332 0.97418 0.23879 0.0
C2187 C 0.3136 0.95554 0.24595 0.0
C2188 C 0.28096 0.97549 0.23849 0.0
C2189 C 0.26836 0.95825 0.24553 0.0
C2190 C 0.27877 0.94024 0.25405 0.0
C2191 C 0.30107 0.93884 0.25412 0.0
H2192 H 0.82635 0.04091 0.50033 0.0
H2193 H 0.75746 0.04352 0.50018 0.0
H2194 H 0.82503 0.00219 0.49855 0.0
H2195 H 0.75597 0.00462 0.49735 0.0
H2196 H 0.76461 0.93249 0.51405 0.0
H2197 H 0.76163 0.97121 0.51378 0.0
H2198 H 0.81788 0.97504 0.47388 0.0
H2199 H 0.82142 0.93635 0.47521 0.0
C2200 C 0.81089 0.03313 0.50011 0.0
C2201 C 0.79203 0.04524 0.50047 0.0
C2202 C 0.81009 0.0109 0.4987 0.0
C2203 C 0.79039 0.00014 0.49716 0.0
C2204 C 0.77145 0.01226 0.49849 0.0
C2205 C 0.77227 0.03457 0.50024 0.0
C2206 C 0.77591 0.94156 0.5046 0.0
C2207 C 0.79334 0.93136 0.49474 0.0
C2208 C 0.77429 0.96386 0.50457 0.0
C2209 C 0.7899 0.97643 0.49439 0.0
C2210 C 0.80602 0.96599 0.48263 0.0
C2211 C 0.80785 0.94375 0.48299 0.0
H2212 H 0.80017 0.50659 0.75379 0.0
H2213 H 0.79454 0.57391 0.74044 0.0
H2214 H 0.76135 0.50379 0.75634 0.0
H2215 H 0.7558 0.57105 0.74188 0.0
H2216 H 0.68849 0.50546 0.7414 0.0
H2217 H 0.72739 0.50464 0.74009 0.0
H2218 H 0.72943 0.56766 0.76818 0.0
H2219 H 0.69055 0.56879 0.7684 0.0
C2220 C 0.79058 0.52063 0.75059 0.0
C2221 C 0.80038 0.54048 0.74689 0.0
C2222 C 0.76828 0.51908 0.75222 0.0
C2223 C 0.75531 0.53731 0.74993 0.0
C2224 C 0.7652 0.5568 0.74458 0.0
C2225 C 0.78743 0.5584 0.74332 0.0
C2226 C 0.69727 0.51884 0.74794 0.0
C2227 C 0.68644 0.53722 0.75497 0.0
C2228 C 0.71965 0.51846 0.74703 0.0
C2229 C 0.73168 0.53636 0.7534 0.0
C2230 C 0.72076 0.55389 0.76233 0.0
C2231 C 0.69844 0.55441 0.76289 0.0
H2232 H 0.24342 0.43604 0.98386 0.0
H2233 H 0.18415 0.44028 0.01895 0.0
H2234 H 0.24532 0.47486 0.98233 0.0
H2235 H 0.18635 0.47907 0.01792 0.0
H2236 H 0.17781 0.54249 0.98613 0.0
H2237 H 0.18057 0.50388 0.98899 0.0
H2238 H 0.24851 0.50942 -0.00015 0.0
H2239 H 0.24578 0.54822 0.99645 0.0
C2240 C 0.23124 0.44522 0.99203 0.0
C2241 C 0.21349 0.43502 0.00135 0.0
C2242 C 0.23226 0.46754 0.99099 0.0
C2243 C 0.21562 0.4801 0.99937 0.0
C2244 C 0.19906 0.46987 0.01062 0.0
C2245 C 0.19797 0.44761 0.01155 0.0
C2246 C 0.19343 0.53546 0.98862 0.0
C2247 C 0.21155 0.54844 0.99109 0.0
C2248 C 0.19497 0.51332 0.99063 0.0
C2249 C 0.21466 0.50355 0.99534 0.0
C2250 C 0.23308 0.51641 0.99635 0.0
C2251 C 0.23154 0.53865 0.99422 0.0
H2252 H 0.26138 0.69516 0.06355 0.0
H2253 H 0.24927 0.69158 0.99582 0.0
H2254 H 0.25848 0.73385 0.0621 0.0
H2255 H 0.24592 0.73051 0.99441 0.0
H2256 H 0.2229 0.79483 0.06168 0.0
H2257 H 0.22692 0.75642 0.05749 0.0
H2258 H 0.26274 0.7663 0.9994 0.0
H2259 H 0.25828 0.80491 0.00339 0.0
C2260 C 0.25866 0.7027 0.04823 0.0
C2261 C 0.25542 0.69031 0.02984 0.0
C2262 C 0.25665 0.72486 0.04744 0.0
C2263 C 0.25119 0.73519 0.02828 0.0
C2264 C 0.24992 0.72301 0.00946 0.0
C2265 C 0.25205 0.70072 0.01023 0.0
C2266 C 0.23106 0.78881 0.04766 0.0
C2267 C 0.24036 0.8029 0.03295 0.0
C2268 C 0.23368 0.7668 0.04543 0.0
C2269 C 0.24581 0.75835 0.02851 0.0
C2270 C 0.25347 0.77232 0.01271 0.0
C2271 C 0.25073 0.79444 0.0149 0.0
H2272 H 0.7663 0.70235 0.52557 0.0
H2273 H 0.71948 0.70577 0.57614 0.0
H2274 H 0.76778 0.74138 0.52454 0.0
H2275 H 0.72009 0.74432 0.5744 0.0
H2276 H 0.7453 0.81213 0.58299 0.0
H2277 H 0.74091 0.77376 0.58304 0.0
H2278 H 0.74816 0.77266 0.51443 0.0
H2279 H 0.75349 0.8113 0.51454 0.0
C2280 C 0.75647 0.7114 0.53655 0.0
C2281 C 0.74299 0.70091 0.5511 0.0
C2282 C 0.75703 0.73378 0.53574 0.0
C2283 C 0.74394 0.74612 0.5493 0.0
C2284 C 0.73066 0.73549 0.56394 0.0
C2285 C 0.73033 0.71326 0.56494 0.0
C2286 C 0.74545 0.80383 0.56782 0.0
C2287 C 0.74985 0.81482 0.54879 0.0
C2288 C 0.74294 0.7817 0.56784 0.0
C2289 C 0.74452 0.76993 0.54877 0.0
C2290 C 0.74737 0.78112 0.52948 0.0
C2291 C 0.75001 0.80334 0.52949 0.0
H2292 H 0.25228 0.31999 0.98157 0.0
H2293 H 0.25848 0.32064 0.91289 0.0
H2294 H 0.25462 0.28113 0.98133 0.0
H2295 H 0.25985 0.28202 0.91254 0.0
H2296 H 0.27628 0.2121 0.91969 0.0
H2297 H 0.27819 0.25068 0.92049 0.0
H2298 H 0.23191 0.25196 0.97172 0.0
H2299 H 0.23081 0.21296 0.97158 0.0
C2300 C 0.25468 0.31192 0.96647 0.0
C2301 C 0.25509 0.32347 0.94724 0.0
C2302 C 0.25559 0.28958 0.96629 0.0
C2303 C 0.25687 0.27832 0.94687 0.0
C2304 C 0.2589 0.29002 0.92783 0.0
C2305 C 0.25817 0.3123 0.92803 0.0
C2306 C 0.26626 0.22056 0.93097 0.0
C2307 C 0.25336 0.2094 0.94558 0.0
C2308 C 0.26738 0.24279 0.93143 0.0
C2309 C 0.25539 0.25456 0.94631 0.0
C2310 C 0.24178 0.24343 0.96038 0.0
C2311 C 0.24084 0.22108 0.96007 0.0
H2312 H 0.75224 0.32073 0.48359 0.0
H2313 H 0.76014 0.31919 0.41511 0.0
H2314 H 0.75751 0.28216 0.48499 0.0
H2315 H 0.76476 0.28075 0.41642 0.0
H2316 H 0.78513 0.21221 0.42687 0.0
H2317 H 0.78554 0.25095 0.42691 0.0
H2318 H 0.73615 0.25146 0.47513 0.0
H2319 H 0.73628 0.21242 0.47561 0.0
C2320 C 0.7557 0.31229 0.4689 0.0
C2321 C 0.75563 0.32307 0.44921 0.0
C2322 C 0.75833 0.2901 0.46966 0.0
C2323 C 0.76103 0.27823 0.45077 0.0
C2324 C 0.76272 0.28929 0.43131 0.0
C2325 C 0.76013 0.31143 0.43056 0.0
C2326 C 0.77418 0.22053 0.43738 0.0
C2327 C 0.76057 0.20917 0.45117 0.0
C2328 C 0.77445 0.24282 0.4374 0.0
C2329 C 0.761 0.25442 0.45112 0.0
C2330 C 0.74705 0.24306 0.46465 0.0
C2331 C 0.74687 0.22068 0.46471 0.0
H2332 H 0.57949 0.73918 0.8047 0.0
H2333 H 0.51481 0.76296 0.80583 0.0
H2334 H 0.57799 0.73677 0.76593 0.0
H2335 H 0.51364 0.76204 0.76712 0.0
H2336 H 0.51309 0.74432 0.69626 0.0
H2337 H 0.51214 0.7446 0.73504 0.0
H2338 H 0.57989 0.75837 0.73636 0.0
H2339 H 0.58089 0.75652 0.69755 0.0
C2340 C 0.5648 0.74351 0.79664 0.0
C2341 C 0.54723 0.75106 0.80835 0.0
C2342 C 0.56404 0.7426 0.77433 0.0
C2343 C 0.54589 0.74978 0.76307 0.0
C2344 C 0.52789 0.75621 0.77497 0.0
C2345 C 0.52849 0.75663 0.79732 0.0
C2346 C 0.52766 0.74795 0.70486 0.0
C2347 C 0.54705 0.75054 0.69385 0.0
C2348 C 0.52717 0.748 0.72722 0.0
C2349 C 0.54602 0.75108 0.73915 0.0
C2350 C 0.56514 0.75515 0.72794 0.0
C2351 C 0.56569 0.75457 0.70561 0.0
H2352 H 0.06331 0.27079 0.70038 0.0
H2353 H 1.00014 0.24383 0.69404 0.0
H2354 H 0.06084 0.26766 0.73898 0.0
H2355 H 0.9978 0.24028 0.73292 0.0
H2356 H 0.06512 0.23432 0.80104 0.0
H2357 H 0.06223 0.23662 0.76239 0.0
H2358 H 0.997 0.25831 0.7684 0.0
H2359 H 0.99978 0.25556 0.80729 0.0
C2360 C 0.04869 0.2646 0.70727 0.0
C2361 C 0.03199 0.25746 0.69414 0.0
C2362 C 0.04738 0.26251 0.7294 0.0
C2363 C 0.0294 0.25306 0.73901 0.0
C2364 C 0.01194 0.24747 0.72602 0.0
C2365 C 0.01321 0.24967 0.70375 0.0
C2366 C 0.04996 0.239 0.79412 0.0
C2367 C 0.03274 0.24488 0.80724 0.0
C2368 C 0.04839 0.24063 0.77197 0.0
C2369 C 0.02961 0.24835 0.76233 0.0
C2370 C 0.01174 0.25248 0.77532 0.0
C2371 C 0.01329 0.25073 0.79761 0.0
H2372 H 0.50187 0.75632 0.04627 0.0
H2373 H 0.50977 0.82471 0.04399 0.0
H2374 H 0.50174 0.75501 0.00725 0.0
H2375 H 0.51049 0.82342 0.0052 0.0
H2376 H 0.51993 0.76205 0.93514 0.0
H2377 H 0.52042 0.75955 0.97402 0.0
H2378 H 0.48453 0.81836 0.97807 0.0
H2379 H 0.48478 0.82119 0.93935 0.0
C2380 C 0.50432 0.77098 0.03743 0.0
C2381 C 0.50574 0.79064 0.04817 0.0
C2382 C 0.5041 0.77026 0.01504 0.0
C2383 C 0.50548 0.78919 0.003 0.0
C2384 C 0.50859 0.8086 0.01389 0.0
C2385 C 0.50855 0.80933 0.03616 0.0
C2386 C 0.51163 0.77412 0.94434 0.0
C2387 C 0.50237 0.79188 0.93416 0.0
C2388 C 0.51203 0.77276 0.96668 0.0
C2389 C 0.50305 0.78906 0.97928 0.0
C2390 C 0.49229 0.80588 0.96895 0.0
C2391 C 0.49209 0.80735 0.9467 0.0
H2392 H 0.9187 0.25829 0.30452 0.0
H2393 H 0.98583 0.24263 0.30633 0.0
H2394 H 0.92039 0.2611 0.2658 0.0
H2395 H 0.98741 0.24459 0.2675 0.0
H2396 H 0.98368 0.2628 0.19571 0.0
H2397 H 0.98533 0.26397 0.23466 0.0
H2398 H 0.9225 0.23552 0.23796 0.0
H2399 H 0.92064 0.23506 0.19919 0.0
C2400 C 0.93395 0.25597 0.29668 0.0
C2401 C 0.95209 0.25019 0.30854 0.0
C2402 C 0.93487 0.25719 0.27441 0.0
C2403 C 0.95388 0.25236 0.26337 0.0
C2404 C 0.97247 0.24834 0.27537 0.0
C2405 C 0.9716 0.24738 0.29772 0.0
C2406 C 0.97043 0.25635 0.20479 0.0
C2407 C 0.952 0.24885 0.19433 0.0
C2408 C 0.97131 0.25716 0.22716 0.0
C2409 C 0.95383 0.25035 0.23957 0.0
C2410 C 0.93599 0.24161 0.22901 0.0
C2411 C 0.93504 0.24099 0.20672 0.0
H2412 H 0.98147 0.22484 0.54645 0.0
H2413 H 0.02224 0.16921 0.54534 0.0
H2414 H 0.97775 0.2227 0.50763 0.0
H2415 H 0.01932 0.16759 0.50687 0.0
H2416 H 0.99488 0.15833 0.43953 0.0
H2417 H 0.99701 0.15981 0.4781 0.0
H2418 H 0.99786 0.22875 0.47556 0.0
H2419 H 0.9948 0.22722 0.43669 0.0
C2420 C 0.98937 0.21198 0.53799 0.0
C2421 C 0.00208 0.19716 0.54906 0.0
C2422 C 0.98754 0.21095 0.51568 0.0
C2423 C 0.99842 0.1951 0.50396 0.0
C2424 C 0.01048 0.17988 0.51522 0.0
C2425 C 0.01218 0.18083 0.53741 0.0
C2426 C 0.99586 0.17384 0.4471 0.0
C2427 C 0.99477 0.19266 0.43492 0.0
C2428 C 0.99707 0.1747 0.46934 0.0
C2429 C 0.99748 0.1944 0.48012 0.0
C2430 C 0.99715 0.21327 0.46789 0.0
C2431 C 0.99575 0.21241 0.44555 0.0
H2432 H 0.49507 0.24926 0.70488 0.0
H2433 H 0.42802 0.23386 0.70907 0.0
H2434 H 0.497 0.25171 0.74373 0.0
H2435 H 0.43004 0.23511 0.74783 0.0
H2436 H 0.43002 0.26162 0.81296 0.0
H2437 H 0.43206 0.26157 0.77416 0.0
H2438 H 0.49588 0.23534 0.77758 0.0
H2439 H 0.49414 0.23654 0.8164 0.0
C2440 C 0.48094 0.24556 0.71417 0.0
C2441 C 0.46139 0.24135 0.704 0.0
C2442 C 0.48199 0.24713 0.73647 0.0
C2443 C 0.46353 0.24423 0.74902 0.0
C2444 C 0.44441 0.2383 0.73875 0.0
C2445 C 0.4433 0.23713 0.71652 0.0
C2446 C 0.44475 0.25659 0.80539 0.0
C2447 C 0.46191 0.24914 0.81772 0.0
C2448 C 0.4458 0.25611 0.78312 0.0
C2449 C 0.46386 0.24772 0.77261 0.0
C2450 C 0.48168 0.24186 0.785 0.0
C2451 C 0.48076 0.24272 0.80733 0.0
H2452 H 0.48001 0.68605 0.55353 0.0
H2453 H 0.50773 0.74892 0.55933 0.0
H2454 H 0.48293 0.6883 0.51488 0.0
H2455 H 0.51083 0.75107 0.52041 0.0
H2456 H 0.51899 0.68326 0.45381 0.0
H2457 H 0.51559 0.68686 0.49231 0.0
H2458 H 0.49179 0.75106 0.48449 0.0
H2459 H 0.49538 0.74753 0.44569 0.0
C2460 C 0.48621 0.70061 0.54653 0.0
C2461 C 0.4938 0.71722 0.55955 0.0
C2462 C 0.48816 0.70178 0.52437 0.0
C2463 C 0.49776 0.71958 0.51463 0.0
C2464 C 0.50354 0.73707 0.52747 0.0
C2465 C 0.50159 0.73589 0.54976 0.0
C2466 C 0.51356 0.69836 0.46026 0.0
C2467 C 0.50732 0.71504 0.44665 0.0
C2468 C 0.51133 0.70033 0.48234 0.0
C2469 C 0.50277 0.719 0.4914 0.0
C2470 C 0.49825 0.73641 0.47796 0.0
C2471 C 0.50049 0.73443 0.45575 0.0
H2472 H 0.43387 0.48542 0.32023 0.0
H2473 H 0.42949 0.51524 0.25829 0.0
H2474 H 0.47263 0.48454 0.31707 0.0
H2475 H 0.46829 0.51524 0.25546 0.0
H2476 H 0.54077 0.49968 0.25345 0.0
H2477 H 0.50179 0.49746 0.25242 0.0
H2478 H 0.49945 0.51095 0.32006 0.0
H2479 H 0.53827 0.51226 0.32112 0.0
C2480 C 0.44117 0.49129 0.30569 0.0
C2481 C 0.42858 0.50043 0.28956 0.0
C2482 C 0.46344 0.49118 0.30402 0.0
C2483 C 0.47371 0.5005 0.28632 0.0
C2484 C 0.46103 0.50799 0.26936 0.0
C2485 C 0.43869 0.50784 0.27092 0.0
C2486 C 0.53185 0.50268 0.26796 0.0
C2487 C 0.54256 0.50614 0.28738 0.0
C2488 C 0.50949 0.50125 0.26742 0.0
C2489 C 0.4974 0.50344 0.28627 0.0
C2490 C 0.50819 0.50838 0.30536 0.0
C2491 C 0.53046 0.50952 0.30593 0.0
H2492 H 0.44289 0.01046 0.75908 0.0
H2493 H 0.44538 0.98825 0.82416 0.0
H2494 H 0.48162 0.0097 0.75715 0.0
H2495 H 0.48415 0.98583 0.82191 0.0
H2496 H 0.55272 0.99255 0.75574 0.0
H2497 H 0.51388 0.99281 0.75538 0.0
H2498 H 0.51359 0.00746 0.8229 0.0
H2499 H 0.55244 0.00552 0.82332 0.0
C2500 C 0.45172 0.00445 0.77268 0.0
C2501 C 0.44108 0.9993 0.79175 0.0
C2502 C 0.47407 0.00414 0.77165 0.0
C2503 C 0.48635 0.99819 0.78954 0.0
C2504 C 0.47547 0.99133 0.80803 0.0
C2505 C 0.45315 0.99221 0.80922 0.0
C2506 C 0.54431 0.9964 0.77036 0.0
C2507 C 0.5556 0.99915 0.78954 0.0
C2508 C 0.52193 0.99642 0.77023 0.0
C2509 C 0.51027 -0.00032 0.78922 0.0
C2510 C 0.52178 0.00405 0.80807 0.0
C2511 C 0.54413 0.00345 0.80829 0.0
H2512 H 0.05949 0.49128 0.17771 0.0
H2513 H 0.06207 0.50653 0.24478 0.0
H2514 H 0.02062 0.49088 0.17923 0.0
H2515 H 0.0233 0.50776 0.24616 0.0
H2516 H 0.95118 0.49545 0.24464 0.0
H2517 H 0.98995 0.49276 0.24559 0.0
H2518 H 0.99283 0.51467 0.18014 0.0
H2519 H 0.95398 0.51576 0.17896 0.0
C2520 C 0.05169 0.49412 0.19289 0.0
C2521 C 0.06381 0.49875 0.21114 0.0
C2522 C 0.02935 0.4944 0.19371 0.0
C2523 C 0.01855 0.49998 0.21268 0.0
C2524 C 0.0308 0.5033 0.23125 0.0
C2525 C 0.05315 0.50247 0.23052 0.0
C2526 C 0.96019 0.5002 0.23065 0.0
C2527 C 0.94958 0.50594 0.21176 0.0
C2528 C 0.98251 0.49854 0.23112 0.0
C2529 C 0.99479 0.50302 0.21279 0.0
C2530 C 0.98407 0.51026 0.19437 0.0
C2531 C 0.96176 0.51138 0.19377 0.0
H2532 H 0.06457 0.00408 0.74068 0.0
H2533 H 0.06084 0.97905 0.67657 0.0
H2534 H 0.02556 0.00466 0.74271 0.0
H2535 H 0.02202 0.97907 0.67878 0.0
H2536 H 0.95753 0.00958 0.67568 0.0
H2537 H 0.99623 0.00753 0.67788 0.0
H2538 H 0.99148 0.98544 0.74301 0.0
H2539 H 0.95248 0.98798 0.74092 0.0
C2540 C 0.05545 0.99799 0.7273 0.0
C2541 C 0.06581 0.99166 0.70839 0.0
C2542 C 0.03306 0.99845 0.72843 0.0
C2543 C 0.02063 0.9925 0.71069 0.0
C2544 C 0.03108 0.98445 0.6925 0.0
C2545 C 0.05337 0.98413 0.69132 0.0
C2546 C 0.96471 0.00466 0.69062 0.0
C2547 C 0.9519 0.99889 0.70809 0.0
C2548 C 0.98693 0.00319 0.6918 0.0
C2549 C 0.997 0.99573 0.71043 0.0
C2550 C 0.98426 0.99115 0.72838 0.0
C2551 C 0.96192 0.99273 0.72723 0.0
H2552 H 0.00469 0.25804 0.95057 0.0
H2553 H 0.99081 0.32538 0.95379 0.0
H2554 H 0.00538 0.25621 0.98936 0.0
H2555 H 0.98994 0.32348 0.99257 0.0
H2556 H 0.01041 0.32255 0.06016 0.0
H2557 H 0.01255 0.32153 0.02136 0.0
H2558 H 0.98868 0.2567 0.02198 0.0
H2559 H 0.98811 0.25743 0.06074 0.0
C2560 C 0.00091 0.27229 0.95962 0.0
C2561 C 0.99758 0.29184 0.94917 0.0
C2562 C 0.00144 0.27131 0.98196 0.0
C2563 C 0.99821 0.2898 0.99439 0.0
C2564 C 0.99334 0.30902 0.98374 0.0
C2565 C 0.99335 0.31008 0.96144 0.0
C2566 C 0.0064 0.30786 0.05196 0.0
C2567 C 0.99928 0.29004 0.0635 0.0
C2568 C 0.00712 0.30737 0.02964 0.0
C2569 C 1.00012 0.28925 0.01824 0.0
C2570 C 0.99429 0.27096 0.02996 0.0
C2571 C 0.9941 0.27129 0.05231 0.0
H2572 H 0.98426 0.83151 0.42897 0.0
H2573 H 0.99474 0.76336 0.43002 0.0
H2574 H 0.98239 0.83194 0.46763 0.0
H2575 H 0.99222 0.76367 0.46896 0.0
H2576 H 0.01514 0.77745 0.53749 0.0
H2577 H 0.01442 0.77618 0.49847 0.0
H2578 H 0.96249 0.82167 0.49812 0.0
H2579 H 0.96368 0.82346 0.53673 0.0
C2580 C 0.98551 0.81649 0.43743 0.0
C2581 C 0.98968 0.79741 0.4264 0.0
C2582 C 0.98447 0.81674 0.45967 0.0
C2583 C 0.98747 0.79788 0.47144 0.0
C2584 C 0.9903 0.77855 0.46036 0.0
C2585 C 0.99134 0.7783 0.43803 0.0
C2586 C 0.00379 0.78736 0.52901 0.0
C2587 C 0.98952 0.80059 0.54019 0.0
C2588 C 0.00316 0.78643 0.50669 0.0
C2589 C 0.98824 0.79867 0.49515 0.0
C2590 C 0.9743 0.81217 0.50642 0.0
C2591 C 0.97499 0.81317 0.52862 0.0
loop_
_geom_bond_atom_site_label_1
_geom_bond_atom_site_label_2
_geom_bond_distance
_geom_bond_site_symmetry_2
_ccdc_geom_bond_type
O0 Cd1 2.223 . S
O0 C8 1.315 . S
Cd1 O0 2.223 . S
Cd1 O4 2.297 . S
Cd1 O5 2.439 . S
Cd1 O11 2.240 . S
Cd2 O3 2.240 . S
Cd2 O10 2.223 . S
Cd2 O12 2.297 . S
Cd2 O13 2.439 . S
O3 Cd2 2.240 . S
O3 C8 1.279 . S
O4 Cd1 2.297 . S
O4 C6 1.247 . S
O5 Cd1 2.439 . S
O5 C6 1.208 . S
C6 O4 1.247 . S
C6 O5 1.208 . S
C7 O12 1.247 . S
C7 O13 1.208 . S
C8 O0 1.315 . S
C8 O3 1.279 . S
C9 O10 1.315 . S
C9 O11 1.279 . S
O10 Cd2 2.223 . S
O10 C9 1.315 . S
O11 Cd1 2.240 . S
O11 C9 1.279 . S
O12 Cd2 2.297 . S
O12 C7 1.247 . S
O13 Cd2 2.439 . S
O13 C7 1.208 . S
O14 Cd15 2.223 . S
O14 C22 1.315 . S
Cd15 O14 2.223 . S
Cd15 O18 2.297 . S
Cd15 O19 2.439 . S
Cd15 O25 2.240 . S
Cd16 O17 2.240 . S
Cd16 O24 2.223 . S
Cd16 O26 2.297 . S
Cd16 O27 2.439 . S
O17 Cd16 2.240 . S
O17 C22 1.279 . S
O18 Cd15 2.297 . S
O18 C20 1.247 . S
O19 Cd15 2.439 . S
O19 C20 1.208 . S
C20 O18 1.247 . S
C20 O19 1.208 . S
C21 O26 1.247 . S
C21 O27 1.208 . S
C22 O14 1.315 . S
C22 O17 1.279 . S
C23 O24 1.315 . S
C23 O25 1.279 . S
O24 Cd16 2.223 . S
O24 C23 1.315 . S
O25 Cd15 2.240 . S
O25 C23 1.279 . S
O26 Cd16 2.297 . S
O26 C21 1.247 . S
O27 Cd16 2.439 . S
O27 C21 1.208 . S
O28 Cd29 2.223 . S
O28 C36 1.315 . S
Cd29 O28 2.223 . S
Cd29 O32 2.297 . S
Cd29 O33 2.439 . S
Cd29 O39 2.240 . S
Cd30 O31 2.240 . S
Cd30 O38 2.223 . S
Cd30 O40 2.297 . S
Cd30 O41 2.439 . S
O31 Cd30 2.240 . S
O31 C36 1.279 . S
O32 Cd29 2.297 . S
O32 C34 1.247 . S
O33 Cd29 2.439 . S
O33 C34 1.208 . S
C34 O32 1.247 . S
C34 O33 1.208 . S
C35 O40 1.247 . S
C35 O41 1.208 . S
C36 O28 1.315 . S
C36 O31 1.279 . S
C37 O38 1.315 . S
C37 O39 1.279 . S
O38 Cd30 2.223 . S
O38 C37 1.315 . S
O39 Cd29 2.240 . S
O39 C37 1.279 . S
O40 Cd30 2.297 . S
O40 C35 1.247 . S
O41 Cd30 2.439 . S
O41 C35 1.208 . S
O42 Cd43 2.223 . S
O42 C50 1.315 . S
Cd43 O42 2.223 . S
Cd43 O46 2.297 . S
Cd43 O47 2.439 . S
Cd43 O53 2.240 . S
Cd44 O45 2.240 . S
Cd44 O52 2.223 . S
Cd44 O54 2.297 . S
Cd44 O55 2.439 . S
O45 Cd44 2.240 . S
O45 C50 1.279 . S
O46 Cd43 2.297 . S
O46 C48 1.247 . S
O47 Cd43 2.439 . S
O47 C48 1.208 . S
C48 O46 1.247 . S
C48 O47 1.208 . S
C49 O54 1.247 . S
C49 O55 1.208 . S
C50 O42 1.315 . S
C50 O45 1.279 . S
C51 O52 1.315 . S
C51 O53 1.279 . S
O52 Cd44 2.223 . S
O52 C51 1.315 . S
O53 Cd43 2.240 . S
O53 C51 1.279 . S
O54 Cd44 2.297 . S
O54 C49 1.247 . S
O55 Cd44 2.439 . S
O55 C49 1.208 . S
O56 Cd57 2.223 . S
O56 C64 1.315 . S
Cd57 O56 2.223 . S
Cd57 O60 2.297 . S
Cd57 O61 2.439 . S
Cd57 O67 2.240 . S
Cd58 O59 2.240 . S
Cd58 O66 2.223 . S
Cd58 O68 2.297 . S
Cd58 O69 2.439 . S
O59 Cd58 2.240 . S
O59 C64 1.279 . S
O60 Cd57 2.297 . S
O60 C62 1.247 . S
O61 Cd57 2.439 . S
O61 C62 1.208 . S
C62 O60 1.247 . S
C62 O61 1.208 . S
C63 O68 1.247 . S
C63 O69 1.208 . S
C64 O56 1.315 . S
C64 O59 1.279 . S
C65 O66 1.315 . S
C65 O67 1.279 . S
O66 Cd58 2.223 . S
O66 C65 1.315 . S
O67 Cd57 2.240 . S
O67 C65 1.279 . S
O68 Cd58 2.297 . S
O68 C63 1.247 . S
O69 Cd58 2.439 . S
O69 C63 1.208 . S
O70 Cd71 2.223 . S
O70 C78 1.315 . S
Cd71 O70 2.223 . S
Cd71 O74 2.297 . S
Cd71 O75 2.439 . S
Cd71 O81 2.240 . S
Cd72 O73 2.240 . S
Cd72 O80 2.223 . S
Cd72 O82 2.297 . S
Cd72 O83 2.439 . S
O73 Cd72 2.240 . S
O73 C78 1.279 . S
O74 Cd71 2.297 . S
O74 C76 1.247 . S
O75 Cd71 2.439 . S
O75 C76 1.208 . S
C76 O74 1.247 . S
C76 O75 1.208 . S
C77 O82 1.247 . S
C77 O83 1.208 . S
C78 O70 1.315 . S
C78 O73 1.279 . S
C79 O80 1.315 . S
C79 O81 1.279 . S
O80 Cd72 2.223 . S
O80 C79 1.315 . S
O81 Cd71 2.240 . S
O81 C79 1.279 . S
O82 Cd72 2.297 . S
O82 C77 1.247 . S
O83 Cd72 2.439 . S
O83 C77 1.208 . S
O84 Cd85 2.223 . S
O84 C92 1.315 . S
Cd85 O84 2.223 . S
Cd85 O88 2.297 . S
Cd85 O89 2.439 . S
Cd85 O95 2.240 . S
Cd86 O87 2.240 . S
Cd86 O94 2.223 . S
Cd86 O96 2.297 . S
Cd86 O97 2.439 . S
O87 Cd86 2.240 . S
O87 C92 1.279 . S
O88 Cd85 2.297 . S
O88 C90 1.247 . S
O89 Cd85 2.439 . S
O89 C90 1.208 . S
C90 O88 1.247 . S
C90 O89 1.208 . S
C91 O96 1.247 . S
C91 O97 1.208 . S
C92 O84 1.315 . S
C92 O87 1.279 . S
C93 O94 1.315 . S
C93 O95 1.279 . S
O94 Cd86 2.223 . S
O94 C93 1.315 . S
O95 Cd85 2.240 . S
O95 C93 1.279 . S
O96 Cd86 2.297 . S
O96 C91 1.247 . S
O97 Cd86 2.439 . S
O97 C91 1.208 . S
O98 Cd99 2.223 . S
O98 C106 1.315 . S
Cd99 O98 2.223 . S
Cd99 O102 2.297 . S
Cd99 O103 2.439 . S
Cd99 O109 2.240 . S
Cd100 O101 2.240 . S
Cd100 O108 2.223 . S
Cd100 O110 2.297 . S
Cd100 O111 2.439 . S
O101 Cd100 2.240 . S
O101 C106 1.279 . S
O102 Cd99 2.297 . S
O102 C104 1.247 . S
O103 Cd99 2.439 . S
O103 C104 1.208 . S
C104 O102 1.247 . S
C104 O103 1.208 . S
C105 O110 1.247 . S
C105 O111 1.208 . S
C106 O98 1.315 . S
C106 O101 1.279 . S
C107 O108 1.315 . S
C107 O109 1.279 . S
O108 Cd100 2.223 . S
O108 C107 1.315 . S
O109 Cd99 2.240 . S
O109 C107 1.279 . S
O110 Cd100 2.297 . S
O110 C105 1.247 . S
O111 Cd100 2.439 . S
O111 C105 1.208 . S
O112 Cd113 2.223 . S
O112 C120 1.315 . S
Cd113 O112 2.223 . S
Cd113 O116 2.297 . S
Cd113 O117 2.439 . S
Cd113 O123 2.240 . S
Cd114 O115 2.240 . S
Cd114 O122 2.223 . S
Cd114 O124 2.297 . S
Cd114 O125 2.439 . S
O115 Cd114 2.240 . S
O115 C120 1.279 . S
O116 Cd113 2.297 . S
O116 C118 1.247 . S
O117 Cd113 2.439 . S
O117 C118 1.208 . S
C118 O116 1.247 . S
C118 O117 1.208 . S
C119 O124 1.247 . S
C119 O125 1.208 . S
C120 O112 1.315 . S
C120 O115 1.279 . S
C121 O122 1.315 . S
C121 O123 1.279 . S
O122 Cd114 2.223 . S
O122 C121 1.315 . S
O123 Cd113 2.240 . S
O123 C121 1.279 . S
O124 Cd114 2.297 . S
O124 C119 1.247 . S
O125 Cd114 2.439 . S
O125 C119 1.208 . S
O126 Cd127 2.223 . S
O126 C134 1.315 . S
Cd127 O126 2.223 . S
Cd127 O130 2.297 . S
Cd127 O131 2.439 . S
Cd127 O137 2.240 . S
Cd128 O129 2.240 . S
Cd128 O136 2.223 . S
Cd128 O138 2.297 . S
Cd128 O139 2.439 . S
O129 Cd128 2.240 . S
O129 C134 1.279 . S
O130 Cd127 2.297 . S
O130 C132 1.247 . S
O131 Cd127 2.439 . S
O131 C132 1.208 . S
C132 O130 1.247 . S
C132 O131 1.208 . S
C133 O138 1.247 . S
C133 O139 1.208 . S
C134 O126 1.315 . S
C134 O129 1.279 . S
C135 O136 1.315 . S
C135 O137 1.279 . S
O136 Cd128 2.223 . S
O136 C135 1.315 . S
O137 Cd127 2.240 . S
O137 C135 1.279 . S
O138 Cd128 2.297 . S
O138 C133 1.247 . S
O139 Cd128 2.439 . S
O139 C133 1.208 . S
O140 Cd141 2.223 . S
O140 C148 1.315 . S
Cd141 O140 2.223 . S
Cd141 O144 2.297 . S
Cd141 O145 2.439 . S
Cd141 O151 2.240 . S
Cd142 O143 2.240 . S
Cd142 O150 2.223 . S
Cd142 O152 2.297 . S
Cd142 O153 2.439 . S
O143 Cd142 2.240 . S
O143 C148 1.279 . S
O144 Cd141 2.297 . S
O144 C146 1.247 . S
O145 Cd141 2.439 . S
O145 C146 1.208 . S
C146 O144 1.247 . S
C146 O145 1.208 . S
C147 O152 1.247 . S
C147 O153 1.208 . S
C148 O140 1.315 . S
C148 O143 1.279 . S
C149 O150 1.315 . S
C149 O151 1.279 . S
O150 Cd142 2.223 . S
O150 C149 1.315 . S
O151 Cd141 2.240 . S
O151 C149 1.279 . S
O152 Cd142 2.297 . S
O152 C147 1.247 . S
O153 Cd142 2.439 . S
O153 C147 1.208 . S
O154 Cd155 2.223 . S
O154 C162 1.315 . S
Cd155 O154 2.223 . S
Cd155 O158 2.297 . S
Cd155 O159 2.439 . S
Cd155 O165 2.240 . S
Cd156 O157 2.240 . S
Cd156 O164 2.223 . S
Cd156 O166 2.297 . S
Cd156 O167 2.439 . S
O157 Cd156 2.240 . S
O157 C162 1.279 . S
O158 Cd155 2.297 . S
O158 C160 1.247 . S
O159 Cd155 2.439 . S
O159 C160 1.208 . S
C160 O158 1.247 . S
C160 O159 1.208 . S
C161 O166 1.247 . S
C161 O167 1.208 . S
C162 O154 1.315 . S
C162 O157 1.279 . S
C163 O164 1.315 . S
C163 O165 1.279 . S
O164 Cd156 2.223 . S
O164 C163 1.315 . S
O165 Cd155 2.240 . S
O165 C163 1.279 . S
O166 Cd156 2.297 . S
O166 C161 1.247 . S
O167 Cd156 2.439 . S
O167 C161 1.208 . S
O168 Cd169 2.223 . S
O168 C176 1.315 . S
Cd169 O168 2.223 . S
Cd169 O172 2.297 . S
Cd169 O173 2.439 . S
Cd169 O179 2.240 . S
Cd170 O171 2.240 . S
Cd170 O178 2.223 . S
Cd170 O180 2.297 . S
Cd170 O181 2.439 . S
O171 Cd170 2.240 . S
O171 C176 1.279 . S
O172 Cd169 2.297 . S
O172 C174 1.247 . S
O173 Cd169 2.439 . S
O173 C174 1.208 . S
C174 O172 1.247 . S
C174 O173 1.208 . S
C175 O180 1.247 . S
C175 O181 1.208 . S
C176 O168 1.315 . S
C176 O171 1.279 . S
C177 O178 1.315 . S
C177 O179 1.279 . S
O178 Cd170 2.223 . S
O178 C177 1.315 . S
O179 Cd169 2.240 . S
O179 C177 1.279 . S
O180 Cd170 2.297 . S
O180 C175 1.247 . S
O181 Cd170 2.439 . S
O181 C175 1.208 . S
O182 Cd183 2.223 . S
O182 C190 1.315 . S
Cd183 O182 2.223 . S
Cd183 O186 2.297 . S
Cd183 O187 2.439 . S
Cd183 O193 2.240 . S
Cd184 O185 2.240 . S
Cd184 O192 2.223 . S
Cd184 O194 2.297 . S
Cd184 O195 2.439 . S
O185 Cd184 2.240 . S
O185 C190 1.279 . S
O186 Cd183 2.297 . S
O186 C188 1.247 . S
O187 Cd183 2.439 . S
O187 C188 1.208 . S
C188 O186 1.247 . S
C188 O187 1.208 . S
C189 O194 1.247 . S
C189 O195 1.208 . S
C190 O182 1.315 . S
C190 O185 1.279 . S
C191 O192 1.315 . S
C191 O193 1.279 . S
O192 Cd184 2.223 . S
O192 C191 1.315 . S
O193 Cd183 2.240 . S
O193 C191 1.279 . S
O194 Cd184 2.297 . S
O194 C189 1.247 . S
O195 Cd184 2.439 . S
O195 C189 1.208 . S
O196 Cd197 2.223 . S
O196 C204 1.315 . S
Cd197 O196 2.223 . S
Cd197 O200 2.297 . S
Cd197 O201 2.439 . S
Cd197 O207 2.240 . S
Cd198 O199 2.240 . S
Cd198 O206 2.223 . S
Cd198 O208 2.297 . S
Cd198 O209 2.439 . S
O199 Cd198 2.240 . S
O199 C204 1.279 . S
O200 Cd197 2.297 . S
O200 C202 1.247 . S
O201 Cd197 2.439 . S
O201 C202 1.208 . S
C202 O200 1.247 . S
C202 O201 1.208 . S
C203 O208 1.247 . S
C203 O209 1.208 . S
C204 O196 1.315 . S
C204 O199 1.279 . S
C205 O206 1.315 . S
C205 O207 1.279 . S
O206 Cd198 2.223 . S
O206 C205 1.315 . S
O207 Cd197 2.240 . S
O207 C205 1.279 . S
O208 Cd198 2.297 . S
O208 C203 1.247 . S
O209 Cd198 2.439 . S
O209 C203 1.208 . S
O210 Cd211 2.223 . S
O210 C218 1.315 . S
Cd211 O210 2.223 . S
Cd211 O214 2.297 . S
Cd211 O215 2.439 . S
Cd211 O221 2.240 . S
Cd212 O213 2.240 . S
Cd212 O220 2.223 . S
Cd212 O222 2.297 . S
Cd212 O223 2.439 . S
O213 Cd212 2.240 . S
O213 C218 1.279 . S
O214 Cd211 2.297 . S
O214 C216 1.247 . S
O215 Cd211 2.439 . S
O215 C216 1.208 . S
C216 O214 1.247 . S
C216 O215 1.208 . S
C217 O222 1.247 . S
C217 O223 1.208 . S
C218 O210 1.315 . S
C218 O213 1.279 . S
C219 O220 1.315 . S
C219 O221 1.279 . S
O220 Cd212 2.223 . S
O220 C219 1.315 . S
O221 Cd211 2.240 . S
O221 C219 1.279 . S
O222 Cd212 2.297 . S
O222 C217 1.247 . S
O223 Cd212 2.439 . S
O223 C217 1.208 . S
O224 Cd225 2.223 . S
O224 C232 1.315 . S
Cd225 O224 2.223 . S
Cd225 O228 2.297 . S
Cd225 O229 2.439 . S
Cd225 O235 2.240 . S
Cd226 O227 2.240 . S
Cd226 O234 2.223 . S
Cd226 O236 2.297 . S
Cd226 O237 2.439 . S
O227 Cd226 2.240 . S
O227 C232 1.279 . S
O228 Cd225 2.297 . S
O228 C230 1.247 . S
O229 Cd225 2.439 . S
O229 C230 1.208 . S
C230 O228 1.247 . S
C230 O229 1.208 . S
C231 O236 1.247 . S
C231 O237 1.208 . S
C232 O224 1.315 . S
C232 O227 1.279 . S
C233 O234 1.315 . S
C233 O235 1.279 . S
O234 Cd226 2.223 . S
O234 C233 1.315 . S
O235 Cd225 2.240 . S
O235 C233 1.279 . S
O236 Cd226 2.297 . S
O236 C231 1.247 . S
O237 Cd226 2.439 . S
O237 C231 1.208 . S
O238 Cd239 2.223 . S
O238 C246 1.315 . S
Cd239 O238 2.223 . S
Cd239 O242 2.297 . S
Cd239 O243 2.439 . S
Cd239 O249 2.240 . S
Cd240 O241 2.240 . S
Cd240 O248 2.223 . S
Cd240 O250 2.297 . S
Cd240 O251 2.439 . S
O241 Cd240 2.240 . S
O241 C246 1.279 . S
O242 Cd239 2.297 . S
O242 C244 1.247 . S
O243 Cd239 2.439 . S
O243 C244 1.208 . S
C244 O242 1.247 . S
C244 O243 1.208 . S
C245 O250 1.247 . S
C245 O251 1.208 . S
C246 O238 1.315 . S
C246 O241 1.279 . S
C247 O248 1.315 . S
C247 O249 1.279 . S
O248 Cd240 2.223 . S
O248 C247 1.315 . S
O249 Cd239 2.240 . S
O249 C247 1.279 . S
O250 Cd240 2.297 . S
O250 C245 1.247 . S
O251 Cd240 2.439 . S
O251 C245 1.208 . S
O252 Cd253 2.223 . S
O252 C260 1.315 . S
Cd253 O252 2.223 . S
Cd253 O256 2.297 . S
Cd253 O257 2.439 . S
Cd253 O263 2.240 . S
Cd254 O255 2.240 . S
Cd254 O262 2.223 . S
Cd254 O264 2.297 . S
Cd254 O265 2.439 . S
O255 Cd254 2.240 . S
O255 C260 1.279 . S
O256 Cd253 2.297 . S
O256 C258 1.247 . S
O257 Cd253 2.439 . S
O257 C258 1.208 . S
C258 O256 1.247 . S
C258 O257 1.208 . S
C259 O264 1.247 . S
C259 O265 1.208 . S
C260 O252 1.315 . S
C260 O255 1.279 . S
C261 O262 1.315 . S
C261 O263 1.279 . S
O262 Cd254 2.223 . S
O262 C261 1.315 . S
O263 Cd253 2.240 . S
O263 C261 1.279 . S
O264 Cd254 2.297 . S
O264 C259 1.247 . S
O265 Cd254 2.439 . S
O265 C259 1.208 . S
O266 Cd267 2.223 . S
O266 C274 1.315 . S
Cd267 O266 2.223 . S
Cd267 O270 2.297 . S
Cd267 O271 2.439 . S
Cd267 O277 2.240 . S
Cd268 O269 2.240 . S
Cd268 O276 2.223 . S
Cd268 O278 2.297 . S
Cd268 O279 2.439 . S
O269 Cd268 2.240 . S
O269 C274 1.279 . S
O270 Cd267 2.297 . S
O270 C272 1.247 . S
O271 Cd267 2.439 . S
O271 C272 1.208 . S
C272 O270 1.247 . S
C272 O271 1.208 . S
C273 O278 1.247 . S
C273 O279 1.208 . S
C274 O266 1.315 . S
C274 O269 1.279 . S
C275 O276 1.315 . S
C275 O277 1.279 . S
O276 Cd268 2.223 . S
O276 C275 1.315 . S
O277 Cd267 2.240 . S
O277 C275 1.279 . S
O278 Cd268 2.297 . S
O278 C273 1.247 . S
O279 Cd268 2.439 . S
O279 C273 1.208 . S
O280 Cd281 2.223 . S
O280 C288 1.315 . S
Cd281 O280 2.223 . S
Cd281 O284 2.297 . S
Cd281 O285 2.439 . S
Cd281 O291 2.240 . S
Cd282 O283 2.240 . S
Cd282 O290 2.223 . S
Cd282 O292 2.297 . S
Cd282 O293 2.439 . S
O283 Cd282 2.240 . S
O283 C288 1.279 . S
O284 Cd281 2.297 . S
O284 C286 1.247 . S
O285 Cd281 2.439 . S
O285 C286 1.208 . S
C286 O284 1.247 . S
C286 O285 1.208 . S
C287 O292 1.247 . S
C287 O293 1.208 . S
C288 O280 1.315 . S
C288 O283 1.279 . S
C289 O290 1.315 . S
C289 O291 1.279 . S
O290 Cd282 2.223 . S
O290 C289 1.315 . S
O291 Cd281 2.240 . S
O291 C289 1.279 . S
O292 Cd282 2.297 . S
O292 C287 1.247 . S
O293 Cd282 2.439 . S
O293 C287 1.208 . S
O294 Cd295 2.223 . S
O294 C302 1.315 . S
Cd295 O294 2.223 . S
Cd295 O298 2.297 . S
Cd295 O299 2.439 . S
Cd295 O305 2.240 . S
Cd296 O297 2.240 . S
Cd296 O304 2.223 . S
Cd296 O306 2.297 . S
Cd296 O307 2.439 . S
O297 Cd296 2.240 . S
O297 C302 1.279 . S
O298 Cd295 2.297 . S
O298 C300 1.247 . S
O299 Cd295 2.439 . S
O299 C300 1.208 . S
C300 O298 1.247 . S
C300 O299 1.208 . S
C301 O306 1.247 . S
C301 O307 1.208 . S
C302 O294 1.315 . S
C302 O297 1.279 . S
C303 O304 1.315 . S
C303 O305 1.279 . S
O304 Cd296 2.223 . S
O304 C303 1.315 . S
O305 Cd295 2.240 . S
O305 C303 1.279 . S
O306 Cd296 2.297 . S
O306 C301 1.247 . S
O307 Cd296 2.439 . S
O307 C301 1.208 . S
O308 Cd309 2.223 . S
O308 C316 1.315 . S
Cd309 O308 2.223 . S
Cd309 O312 2.297 . S
Cd309 O313 2.439 . S
Cd309 O319 2.240 . S
Cd310 O311 2.240 . S
Cd310 O318 2.223 . S
Cd310 O320 2.297 . S
Cd310 O321 2.439 . S
O311 Cd310 2.240 . S
O311 C316 1.279 . S
O312 Cd309 2.297 . S
O312 C314 1.247 . S
O313 Cd309 2.439 . S
O313 C314 1.208 . S
C314 O312 1.247 . S
C314 O313 1.208 . S
C315 O320 1.247 . S
C315 O321 1.208 . S
C316 O308 1.315 . S
C316 O311 1.279 . S
C317 O318 1.315 . S
C317 O319 1.279 . S
O318 Cd310 2.223 . S
O318 C317 1.315 . S
O319 Cd309 2.240 . S
O319 C317 1.279 . S
O320 Cd310 2.297 . S
O320 C315 1.247 . S
O321 Cd310 2.439 . S
O321 C315 1.208 . S
O322 Cd323 2.223 . S
O322 C330 1.315 . S
Cd323 O322 2.223 . S
Cd323 O326 2.297 . S
Cd323 O327 2.439 . S
Cd323 O333 2.240 . S
Cd324 O325 2.240 . S
Cd324 O332 2.223 . S
Cd324 O334 2.297 . S
Cd324 O335 2.439 . S
O325 Cd324 2.240 . S
O325 C330 1.279 . S
O326 Cd323 2.297 . S
O326 C328 1.247 . S
O327 Cd323 2.439 . S
O327 C328 1.208 . S
C328 O326 1.247 . S
C328 O327 1.208 . S
C329 O334 1.247 . S
C329 O335 1.208 . S
C330 O322 1.315 . S
C330 O325 1.279 . S
C331 O332 1.315 . S
C331 O333 1.279 . S
O332 Cd324 2.223 . S
O332 C331 1.315 . S
O333 Cd323 2.240 . S
O333 C331 1.279 . S
O334 Cd324 2.297 . S
O334 C329 1.247 . S
O335 Cd324 2.439 . S
O335 C329 1.208 . S
O336 Cd337 2.223 . S
O336 C344 1.315 . S
Cd337 O336 2.223 . S
Cd337 O340 2.297 . S
Cd337 O341 2.439 . S
Cd337 O347 2.240 . S
Cd338 O339 2.240 . S
Cd338 O346 2.223 . S
Cd338 O348 2.297 . S
Cd338 O349 2.439 . S
O339 Cd338 2.240 . S
O339 C344 1.279 . S
O340 Cd337 2.297 . S
O340 C342 1.247 . S
O341 Cd337 2.439 . S
O341 C342 1.208 . S
C342 O340 1.247 . S
C342 O341 1.208 . S
C343 O348 1.247 . S
C343 O349 1.208 . S
C344 O336 1.315 . S
C344 O339 1.279 . S
C345 O346 1.315 . S
C345 O347 1.279 . S
O346 Cd338 2.223 . S
O346 C345 1.315 . S
O347 Cd337 2.240 . S
O347 C345 1.279 . S
O348 Cd338 2.297 . S
O348 C343 1.247 . S
O349 Cd338 2.439 . S
O349 C343 1.208 . S
O350 Cd351 2.223 . S
O350 C358 1.315 . S
Cd351 O350 2.223 . S
Cd351 O354 2.297 . S
Cd351 O355 2.439 . S
Cd351 O361 2.240 . S
Cd352 O353 2.240 . S
Cd352 O360 2.223 . S
Cd352 O362 2.297 . S
Cd352 O363 2.439 . S
O353 Cd352 2.240 . S
O353 C358 1.279 . S
O354 Cd351 2.297 . S
O354 C356 1.247 . S
O355 Cd351 2.439 . S
O355 C356 1.208 . S
C356 O354 1.247 . S
C356 O355 1.208 . S
C357 O362 1.247 . S
C357 O363 1.208 . S
C358 O350 1.315 . S
C358 O353 1.279 . S
C359 O360 1.315 . S
C359 O361 1.279 . S
O360 Cd352 2.223 . S
O360 C359 1.315 . S
O361 Cd351 2.240 . S
O361 C359 1.279 . S
O362 Cd352 2.297 . S
O362 C357 1.247 . S
O363 Cd352 2.439 . S
O363 C357 1.208 . S
O364 Cd365 2.223 . S
O364 C372 1.315 . S
Cd365 O364 2.223 . S
Cd365 O368 2.297 . S
Cd365 O369 2.439 . S
Cd365 O375 2.240 . S
Cd366 O367 2.240 . S
Cd366 O374 2.223 . S
Cd366 O376 2.297 . S
Cd366 O377 2.439 . S
O367 Cd366 2.240 . S
O367 C372 1.279 . S
O368 Cd365 2.297 . S
O368 C370 1.247 . S
O369 Cd365 2.439 . S
O369 C370 1.208 . S
C370 O368 1.247 . S
C370 O369 1.208 . S
C371 O376 1.247 . S
C371 O377 1.208 . S
C372 O364 1.315 . S
C372 O367 1.279 . S
C373 O374 1.315 . S
C373 O375 1.279 . S
O374 Cd366 2.223 . S
O374 C373 1.315 . S
O375 Cd365 2.240 . S
O375 C373 1.279 . S
O376 Cd366 2.297 . S
O376 C371 1.247 . S
O377 Cd366 2.439 . S
O377 C371 1.208 . S
O378 Cd379 2.223 . S
O378 C386 1.315 . S
Cd379 O378 2.223 . S
Cd379 O382 2.297 . S
Cd379 O383 2.439 . S
Cd379 O389 2.240 . S
Cd380 O381 2.240 . S
Cd380 O388 2.223 . S
Cd380 O390 2.297 . S
Cd380 O391 2.439 . S
O381 Cd380 2.240 . S
O381 C386 1.279 . S
O382 Cd379 2.297 . S
O382 C384 1.247 . S
O383 Cd379 2.439 . S
O383 C384 1.208 . S
C384 O382 1.247 . S
C384 O383 1.208 . S
C385 O390 1.247 . S
C385 O391 1.208 . S
C386 O378 1.315 . S
C386 O381 1.279 . S
C387 O388 1.315 . S
C387 O389 1.279 . S
O388 Cd380 2.223 . S
O388 C387 1.315 . S
O389 Cd379 2.240 . S
O389 C387 1.279 . S
O390 Cd380 2.297 . S
O390 C385 1.247 . S
O391 Cd380 2.439 . S
O391 C385 1.208 . S
O392 Cd393 2.223 . S
O392 C400 1.315 . S
Cd393 O392 2.223 . S
Cd393 O396 2.297 . S
Cd393 O397 2.439 . S
Cd393 O403 2.240 . S
Cd394 O395 2.240 . S
Cd394 O402 2.223 . S
Cd394 O404 2.297 . S
Cd394 O405 2.439 . S
O395 Cd394 2.240 . S
O395 C400 1.279 . S
O396 Cd393 2.297 . S
O396 C398 1.247 . S
O397 Cd393 2.439 . S
O397 C398 1.208 . S
C398 O396 1.247 . S
C398 O397 1.208 . S
C399 O404 1.247 . S
C399 O405 1.208 . S
C400 O392 1.315 . S
C400 O395 1.279 . S
C401 O402 1.315 . S
C401 O403 1.279 . S
O402 Cd394 2.223 . S
O402 C401 1.315 . S
O403 Cd393 2.240 . S
O403 C401 1.279 . S
O404 Cd394 2.297 . S
O404 C399 1.247 . S
O405 Cd394 2.439 . S
O405 C399 1.208 . S
O406 Cd407 2.223 . S
O406 C414 1.315 . S
Cd407 O406 2.223 . S
Cd407 O410 2.297 . S
Cd407 O411 2.439 . S
Cd407 O417 2.240 . S
Cd408 O409 2.240 . S
Cd408 O416 2.223 . S
Cd408 O418 2.297 . S
Cd408 O419 2.439 . S
O409 Cd408 2.240 . S
O409 C414 1.279 . S
O410 Cd407 2.297 . S
O410 C412 1.247 . S
O411 Cd407 2.439 . S
O411 C412 1.208 . S
C412 O410 1.247 . S
C412 O411 1.208 . S
C413 O418 1.247 . S
C413 O419 1.208 . S
C414 O406 1.315 . S
C414 O409 1.279 . S
C415 O416 1.315 . S
C415 O417 1.279 . S
O416 Cd408 2.223 . S
O416 C415 1.315 . S
O417 Cd407 2.240 . S
O417 C415 1.279 . S
O418 Cd408 2.297 . S
O418 C413 1.247 . S
O419 Cd408 2.439 . S
O419 C413 1.208 . S
O420 Cd421 2.223 . S
O420 C428 1.315 . S
Cd421 O420 2.223 . S
Cd421 O424 2.297 . S
Cd421 O425 2.439 . S
Cd421 O431 2.240 . S
Cd422 O423 2.240 . S
Cd422 O430 2.223 . S
Cd422 O432 2.297 . S
Cd422 O433 2.439 . S
O423 Cd422 2.240 . S
O423 C428 1.279 . S
O424 Cd421 2.297 . S
O424 C426 1.247 . S
O425 Cd421 2.439 . S
O425 C426 1.208 . S
C426 O424 1.247 . S
C426 O425 1.208 . S
C427 O432 1.247 . S
C427 O433 1.208 . S
C428 O420 1.315 . S
C428 O423 1.279 . S
C429 O430 1.315 . S
C429 O431 1.279 . S
O430 Cd422 2.223 . S
O430 C429 1.315 . S
O431 Cd421 2.240 . S
O431 C429 1.279 . S
O432 Cd422 2.297 . S
O432 C427 1.247 . S
O433 Cd422 2.439 . S
O433 C427 1.208 . S
O434 Cd435 2.223 . S
O434 C442 1.315 . S
Cd435 O434 2.223 . S
Cd435 O438 2.297 . S
Cd435 O439 2.439 . S
Cd435 O445 2.240 . S
Cd436 O437 2.240 . S
Cd436 O444 2.223 . S
Cd436 O446 2.297 . S
Cd436 O447 2.439 . S
O437 Cd436 2.240 . S
O437 C442 1.279 . S
O438 Cd435 2.297 . S
O438 C440 1.247 . S
O439 Cd435 2.439 . S
O439 C440 1.208 . S
C440 O438 1.247 . S
C440 O439 1.208 . S
C441 O446 1.247 . S
C441 O447 1.208 . S
C442 O434 1.315 . S
C442 O437 1.279 . S
C443 O444 1.315 . S
C443 O445 1.279 . S
O444 Cd436 2.223 . S
O444 C443 1.315 . S
O445 Cd435 2.240 . S
O445 C443 1.279 . S
O446 Cd436 2.297 . S
O446 C441 1.247 . S
O447 Cd436 2.439 . S
O447 C441 1.208 . S
O448 Cd449 2.223 . S
O448 C456 1.315 . S
Cd449 O448 2.223 . S
Cd449 O452 2.297 . S
Cd449 O453 2.439 . S
Cd449 O459 2.240 . S
Cd450 O451 2.240 . S
Cd450 O458 2.223 . S
Cd450 O460 2.297 . S
Cd450 O461 2.439 . S
O451 Cd450 2.240 . S
O451 C456 1.279 . S
O452 Cd449 2.297 . S
O452 C454 1.247 . S
O453 Cd449 2.439 . S
O453 C454 1.208 . S
C454 O452 1.247 . S
C454 O453 1.208 . S
C455 O460 1.247 . S
C455 O461 1.208 . S
C456 O448 1.315 . S
C456 O451 1.279 . S
C457 O458 1.315 . S
C457 O459 1.279 . S
O458 Cd450 2.223 . S
O458 C457 1.315 . S
O459 Cd449 2.240 . S
O459 C457 1.279 . S
O460 Cd450 2.297 . S
O460 C455 1.247 . S
O461 Cd450 2.439 . S
O461 C455 1.208 . S
O462 Cd463 2.223 . S
O462 C470 1.315 . S
Cd463 O462 2.223 . S
Cd463 O466 2.297 . S
Cd463 O467 2.439 . S
Cd463 O473 2.240 . S
Cd464 O465 2.240 . S
Cd464 O472 2.223 . S
Cd464 O474 2.297 . S
Cd464 O475 2.439 . S
O465 Cd464 2.240 . S
O465 C470 1.279 . S
O466 Cd463 2.297 . S
O466 C468 1.247 . S
O467 Cd463 2.439 . S
O467 C468 1.208 . S
C468 O466 1.247 . S
C468 O467 1.208 . S
C469 O474 1.247 . S
C469 O475 1.208 . S
C470 O462 1.315 . S
C470 O465 1.279 . S
C471 O472 1.315 . S
C471 O473 1.279 . S
O472 Cd464 2.223 . S
O472 C471 1.315 . S
O473 Cd463 2.240 . S
O473 C471 1.279 . S
O474 Cd464 2.297 . S
O474 C469 1.247 . S
O475 Cd464 2.439 . S
O475 C469 1.208 . S
O476 Cd477 2.223 . S
O476 C484 1.315 . S
Cd477 O476 2.223 . S
Cd477 O480 2.297 . S
Cd477 O481 2.439 . S
Cd477 O487 2.240 . S
Cd478 O479 2.240 . S
Cd478 O486 2.223 . S
Cd478 O488 2.297 . S
Cd478 O489 2.439 . S
O479 Cd478 2.240 . S
O479 C484 1.279 . S
O480 Cd477 2.297 . S
O480 C482 1.247 . S
O481 Cd477 2.439 . S
O481 C482 1.208 . S
C482 O480 1.247 . S
C482 O481 1.208 . S
C483 O488 1.247 . S
C483 O489 1.208 . S
C484 O476 1.315 . S
C484 O479 1.279 . S
C485 O486 1.315 . S
C485 O487 1.279 . S
O486 Cd478 2.223 . S
O486 C485 1.315 . S
O487 Cd477 2.240 . S
O487 C485 1.279 . S
O488 Cd478 2.297 . S
O488 C483 1.247 . S
O489 Cd478 2.439 . S
O489 C483 1.208 . S
O490 Cd491 2.223 . S
O490 C498 1.315 . S
Cd491 O490 2.223 . S
Cd491 O494 2.297 . S
Cd491 O495 2.439 . S
Cd491 O501 2.240 . S
Cd492 O493 2.240 . S
Cd492 O500 2.223 . S
Cd492 O502 2.297 . S
Cd492 O503 2.439 . S
O493 Cd492 2.240 . S
O493 C498 1.279 . S
O494 Cd491 2.297 . S
O494 C496 1.247 . S
O495 Cd491 2.439 . S
O495 C496 1.208 . S
C496 O494 1.247 . S
C496 O495 1.208 . S
C497 O502 1.247 . S
C497 O503 1.208 . S
C498 O490 1.315 . S
C498 O493 1.279 . S
C499 O500 1.315 . S
C499 O501 1.279 . S
O500 Cd492 2.223 . S
O500 C499 1.315 . S
O501 Cd491 2.240 . S
O501 C499 1.279 . S
O502 Cd492 2.297 . S
O502 C497 1.247 . S
O503 Cd492 2.439 . S
O503 C497 1.208 . S
O504 Cd505 2.223 . S
O504 C512 1.315 . S
Cd505 O504 2.223 . S
Cd505 O508 2.297 . S
Cd505 O509 2.439 . S
Cd505 O515 2.240 . S
Cd506 O507 2.240 . S
Cd506 O514 2.223 . S
Cd506 O516 2.297 . S
Cd506 O517 2.439 . S
O507 Cd506 2.240 . S
O507 C512 1.279 . S
O508 Cd505 2.297 . S
O508 C510 1.247 . S
O509 Cd505 2.439 . S
O509 C510 1.208 . S
C510 O508 1.247 . S
C510 O509 1.208 . S
C511 O516 1.247 . S
C511 O517 1.208 . S
C512 O504 1.315 . S
C512 O507 1.279 . S
C513 O514 1.315 . S
C513 O515 1.279 . S
O514 Cd506 2.223 . S
O514 C513 1.315 . S
O515 Cd505 2.240 . S
O515 C513 1.279 . S
O516 Cd506 2.297 . S
O516 C511 1.247 . S
O517 Cd506 2.439 . S
O517 C511 1.208 . S
O518 Cd519 2.223 . S
O518 C526 1.315 . S
Cd519 O518 2.223 . S
Cd519 O522 2.297 . S
Cd519 O523 2.439 . S
Cd519 O529 2.240 . S
Cd520 O521 2.240 . S
Cd520 O528 2.223 . S
Cd520 O530 2.297 . S
Cd520 O531 2.439 . S
O521 Cd520 2.240 . S
O521 C526 1.279 . S
O522 Cd519 2.297 . S
O522 C524 1.247 . S
O523 Cd519 2.439 . S
O523 C524 1.208 . S
C524 O522 1.247 . S
C524 O523 1.208 . S
C525 O530 1.247 . S
C525 O531 1.208 . S
C526 O518 1.315 . S
C526 O521 1.279 . S
C527 O528 1.315 . S
C527 O529 1.279 . S
O528 Cd520 2.223 . S
O528 C527 1.315 . S
O529 Cd519 2.240 . S
O529 C527 1.279 . S
O530 Cd520 2.297 . S
O530 C525 1.247 . S
O531 Cd520 2.439 . S
O531 C525 1.208 . S
O532 Cd533 2.223 . S
O532 C540 1.315 . S
Cd533 O532 2.223 . S
Cd533 O536 2.297 . S
Cd533 O537 2.439 . S
Cd533 O543 2.240 . S
Cd534 O535 2.240 . S
Cd534 O542 2.223 . S
Cd534 O544 2.297 . S
Cd534 O545 2.439 . S
O535 Cd534 2.240 . S
O535 C540 1.279 . S
O536 Cd533 2.297 . S
O536 C538 1.247 . S
O537 Cd533 2.439 . S
O537 C538 1.208 . S
C538 O536 1.247 . S
C538 O537 1.208 . S
C539 O544 1.247 . S
C539 O545 1.208 . S
C540 O532 1.315 . S
C540 O535 1.279 . S
C541 O542 1.315 . S
C541 O543 1.279 . S
O542 Cd534 2.223 . S
O542 C541 1.315 . S
O543 Cd533 2.240 . S
O543 C541 1.279 . S
O544 Cd534 2.297 . S
O544 C539 1.247 . S
O545 Cd534 2.439 . S
O545 C539 1.208 . S
O546 Cd547 2.223 . S
O546 C554 1.315 . S
Cd547 O546 2.223 . S
Cd547 O550 2.297 . S
Cd547 O551 2.439 . S
Cd547 O557 2.240 . S
Cd548 O549 2.240 . S
Cd548 O556 2.223 . S
Cd548 O558 2.297 . S
Cd548 O559 2.439 . S
O549 Cd548 2.240 . S
O549 C554 1.279 . S
O550 Cd547 2.297 . S
O550 C552 1.247 . S
O551 Cd547 2.439 . S
O551 C552 1.208 . S
C552 O550 1.247 . S
C552 O551 1.208 . S
C553 O558 1.247 . S
C553 O559 1.208 . S
C554 O546 1.315 . S
C554 O549 1.279 . S
C555 O556 1.315 . S
C555 O557 1.279 . S
O556 Cd548 2.223 . S
O556 C555 1.315 . S
O557 Cd547 2.240 . S
O557 C555 1.279 . S
O558 Cd548 2.297 . S
O558 C553 1.247 . S
O559 Cd548 2.439 . S
O559 C553 1.208 . S
O560 Cd561 2.223 . S
O560 C568 1.315 . S
Cd561 O560 2.223 . S
Cd561 O564 2.297 . S
Cd561 O565 2.439 . S
Cd561 O571 2.240 . S
Cd562 O563 2.240 . S
Cd562 O570 2.223 . S
Cd562 O572 2.297 . S
Cd562 O573 2.439 . S
O563 Cd562 2.240 . S
O563 C568 1.279 . S
O564 Cd561 2.297 . S
O564 C566 1.247 . S
O565 Cd561 2.439 . S
O565 C566 1.208 . S
C566 O564 1.247 . S
C566 O565 1.208 . S
C567 O572 1.247 . S
C567 O573 1.208 . S
C568 O560 1.315 . S
C568 O563 1.279 . S
C569 O570 1.315 . S
C569 O571 1.279 . S
O570 Cd562 2.223 . S
O570 C569 1.315 . S
O571 Cd561 2.240 . S
O571 C569 1.279 . S
O572 Cd562 2.297 . S
O572 C567 1.247 . S
O573 Cd562 2.439 . S
O573 C567 1.208 . S
O574 Cd575 2.223 . S
O574 C582 1.315 . S
Cd575 O574 2.223 . S
Cd575 O578 2.297 . S
Cd575 O579 2.439 . S
Cd575 O585 2.240 . S
Cd576 O577 2.240 . S
Cd576 O584 2.223 . S
Cd576 O586 2.297 . S
Cd576 O587 2.439 . S
O577 Cd576 2.240 . S
O577 C582 1.279 . S
O578 Cd575 2.297 . S
O578 C580 1.247 . S
O579 Cd575 2.439 . S
O579 C580 1.208 . S
C580 O578 1.247 . S
C580 O579 1.208 . S
C581 O586 1.247 . S
C581 O587 1.208 . S
C582 O574 1.315 . S
C582 O577 1.279 . S
C583 O584 1.315 . S
C583 O585 1.279 . S
O584 Cd576 2.223 . S
O584 C583 1.315 . S
O585 Cd575 2.240 . S
O585 C583 1.279 . S
O586 Cd576 2.297 . S
O586 C581 1.247 . S
O587 Cd576 2.439 . S
O587 C581 1.208 . S
O588 Cd589 2.223 . S
O588 C596 1.315 . S
Cd589 O588 2.223 . S
Cd589 O592 2.297 . S
Cd589 O593 2.439 . S
Cd589 O599 2.240 . S
Cd590 O591 2.240 . S
Cd590 O598 2.223 . S
Cd590 O600 2.297 . S
Cd590 O601 2.439 . S
O591 Cd590 2.240 . S
O591 C596 1.279 . S
O592 Cd589 2.297 . S
O592 C594 1.247 . S
O593 Cd589 2.439 . S
O593 C594 1.208 . S
C594 O592 1.247 . S
C594 O593 1.208 . S
C595 O600 1.247 . S
C595 O601 1.208 . S
C596 O588 1.315 . S
C596 O591 1.279 . S
C597 O598 1.315 . S
C597 O599 1.279 . S
O598 Cd590 2.223 . S
O598 C597 1.315 . S
O599 Cd589 2.240 . S
O599 C597 1.279 . S
O600 Cd590 2.297 . S
O600 C595 1.247 . S
O601 Cd590 2.439 . S
O601 C595 1.208 . S
O602 Cd603 2.223 . S
O602 C610 1.315 . S
Cd603 O602 2.223 . S
Cd603 O606 2.297 . S
Cd603 O607 2.439 . S
Cd603 O613 2.240 . S
Cd604 O605 2.240 . S
Cd604 O612 2.223 . S
Cd604 O614 2.297 . S
Cd604 O615 2.439 . S
O605 Cd604 2.240 . S
O605 C610 1.279 . S
O606 Cd603 2.297 . S
O606 C608 1.247 . S
O607 Cd603 2.439 . S
O607 C608 1.208 . S
C608 O606 1.247 . S
C608 O607 1.208 . S
C609 O614 1.247 . S
C609 O615 1.208 . S
C610 O602 1.315 . S
C610 O605 1.279 . S
C611 O612 1.315 . S
C611 O613 1.279 . S
O612 Cd604 2.223 . S
O612 C611 1.315 . S
O613 Cd603 2.240 . S
O613 C611 1.279 . S
O614 Cd604 2.297 . S
O614 C609 1.247 . S
O615 Cd604 2.439 . S
O615 C609 1.208 . S
O616 Cd617 2.223 . S
O616 C624 1.315 . S
Cd617 O616 2.223 . S
Cd617 O620 2.297 . S
Cd617 O621 2.439 . S
Cd617 O627 2.240 . S
Cd618 O619 2.240 . S
Cd618 O626 2.223 . S
Cd618 O628 2.297 . S
Cd618 O629 2.439 . S
O619 Cd618 2.240 . S
O619 C624 1.279 . S
O620 Cd617 2.297 . S
O620 C622 1.247 . S
O621 Cd617 2.439 . S
O621 C622 1.208 . S
C622 O620 1.247 . S
C622 O621 1.208 . S
C623 O628 1.247 . S
C623 O629 1.208 . S
C624 O616 1.315 . S
C624 O619 1.279 . S
C625 O626 1.315 . S
C625 O627 1.279 . S
O626 Cd618 2.223 . S
O626 C625 1.315 . S
O627 Cd617 2.240 . S
O627 C625 1.279 . S
O628 Cd618 2.297 . S
O628 C623 1.247 . S
O629 Cd618 2.439 . S
O629 C623 1.208 . S
O630 Cd631 2.223 . S
O630 C638 1.315 . S
Cd631 O630 2.223 . S
Cd631 O634 2.297 . S
Cd631 O635 2.439 . S
Cd631 O641 2.240 . S
Cd632 O633 2.240 . S
Cd632 O640 2.223 . S
Cd632 O642 2.297 . S
Cd632 O643 2.439 . S
O633 Cd632 2.240 . S
O633 C638 1.279 . S
O634 Cd631 2.297 . S
O634 C636 1.247 . S
O635 Cd631 2.439 . S
O635 C636 1.208 . S
C636 O634 1.247 . S
C636 O635 1.208 . S
C637 O642 1.247 . S
C637 O643 1.208 . S
C638 O630 1.315 . S
C638 O633 1.279 . S
C639 O640 1.315 . S
C639 O641 1.279 . S
O640 Cd632 2.223 . S
O640 C639 1.315 . S
O641 Cd631 2.240 . S
O641 C639 1.279 . S
O642 Cd632 2.297 . S
O642 C637 1.247 . S
O643 Cd632 2.439 . S
O643 C637 1.208 . S
O644 Cd645 2.223 . S
O644 C652 1.315 . S
Cd645 O644 2.223 . S
Cd645 O648 2.297 . S
Cd645 O649 2.439 . S
Cd645 O655 2.240 . S
Cd646 O647 2.240 . S
Cd646 O654 2.223 . S
Cd646 O656 2.297 . S
Cd646 O657 2.439 . S
O647 Cd646 2.240 . S
O647 C652 1.279 . S
O648 Cd645 2.297 . S
O648 C650 1.247 . S
O649 Cd645 2.439 . S
O649 C650 1.208 . S
C650 O648 1.247 . S
C650 O649 1.208 . S
C651 O656 1.247 . S
C651 O657 1.208 . S
C652 O644 1.315 . S
C652 O647 1.279 . S
C653 O654 1.315 . S
C653 O655 1.279 . S
O654 Cd646 2.223 . S
O654 C653 1.315 . S
O655 Cd645 2.240 . S
O655 C653 1.279 . S
O656 Cd646 2.297 . S
O656 C651 1.247 . S
O657 Cd646 2.439 . S
O657 C651 1.208 . S
O658 Cd659 2.223 . S
O658 C666 1.315 . S
Cd659 O658 2.223 . S
Cd659 O662 2.297 . S
Cd659 O663 2.439 . S
Cd659 O669 2.240 . S
Cd660 O661 2.240 . S
Cd660 O668 2.223 . S
Cd660 O670 2.297 . S
Cd660 O671 2.439 . S
O661 Cd660 2.240 . S
O661 C666 1.279 . S
O662 Cd659 2.297 . S
O662 C664 1.247 . S
O663 Cd659 2.439 . S
O663 C664 1.208 . S
C664 O662 1.247 . S
C664 O663 1.208 . S
C665 O670 1.247 . S
C665 O671 1.208 . S
C666 O658 1.315 . S
C666 O661 1.279 . S
C667 O668 1.315 . S
C667 O669 1.279 . S
O668 Cd660 2.223 . S
O668 C667 1.315 . S
O669 Cd659 2.240 . S
O669 C667 1.279 . S
O670 Cd660 2.297 . S
O670 C665 1.247 . S
O671 Cd660 2.439 . S
O671 C665 1.208 . S
H672 C680 0.950 . S
H673 C685 0.950 . S
H674 C682 0.950 . S
H675 C684 0.950 . S
H676 C686 0.950 . S
H677 C688 0.950 . S
H678 C690 0.950 . S
H679 C691 0.950 . S
C680 H672 0.950 . S
C680 C681 1.386 . S
C680 C682 1.391 . S
C681 C680 1.386 . S
C681 C685 1.393 . S
C682 H674 0.950 . S
C682 C680 1.391 . S
C682 C683 1.400 . S
C683 C682 1.400 . S
C683 C684 1.398 . S
C683 C689 1.491 . S
C684 H675 0.950 . S
C684 C683 1.398 . S
C684 C685 1.391 . S
C685 H673 0.950 . S
C685 C681 1.393 . S
C685 C684 1.391 . S
C686 H676 0.950 . S
C686 C687 1.386 . S
C686 C688 1.391 . S
C687 C686 1.386 . S
C687 C691 1.393 . S
C688 H677 0.950 . S
C688 C686 1.391 . S
C688 C689 1.400 . S
C689 C683 1.491 . S
C689 C688 1.400 . S
C689 C690 1.398 . S
C690 H678 0.950 . S
C690 C689 1.398 . S
C690 C691 1.391 . S
C691 H679 0.950 . S
C691 C687 1.393 . S
C691 C690 1.391 . S
H692 C700 0.950 . S
H693 C705 0.950 . S
H694 C702 0.950 . S
H695 C704 0.950 . S
H696 C706 0.950 . S
H697 C708 0.950 . S
H698 C710 0.950 . S
H699 C711 0.950 . S
C700 H692 0.950 . S
C700 C701 1.386 . S
C700 C702 1.391 . S
C701 C700 1.386 . S
C701 C705 1.393 . S
C702 H694 0.950 . S
C702 C700 1.391 . S
C702 C703 1.400 . S
C703 C702 1.400 . S
C703 C704 1.398 . S
C703 C709 1.491 . S
C704 H695 0.950 . S
C704 C703 1.398 . S
C704 C705 1.391 . S
C705 H693 0.950 . S
C705 C701 1.393 . S
C705 C704 1.391 . S
C706 H696 0.950 . S
C706 C707 1.386 . S
C706 C708 1.391 . S
C707 C706 1.386 . S
C707 C711 1.393 . S
C708 H697 0.950 . S
C708 C706 1.391 . S
C708 C709 1.400 . S
C709 C703 1.491 . S
C709 C708 1.400 . S
C709 C710 1.398 . S
C710 H698 0.950 . S
C710 C709 1.398 . S
C710 C711 1.391 . S
C711 H699 0.950 . S
C711 C707 1.393 . S
C711 C710 1.391 . S
H712 C720 0.950 . S
H713 C725 0.950 . S
H714 C722 0.950 . S
H715 C724 0.950 . S
H716 C726 0.950 . S
H717 C728 0.950 . S
H718 C730 0.950 . S
H719 C731 0.950 . S
C720 H712 0.950 . S
C720 C721 1.386 . S
C720 C722 1.391 . S
C721 C720 1.386 . S
C721 C725 1.393 . S
C722 H714 0.950 . S
C722 C720 1.391 . S
C722 C723 1.400 . S
C723 C722 1.400 . S
C723 C724 1.398 . S
C723 C729 1.491 . S
C724 H715 0.950 . S
C724 C723 1.398 . S
C724 C725 1.391 . S
C725 H713 0.950 . S
C725 C721 1.393 . S
C725 C724 1.391 . S
C726 H716 0.950 . S
C726 C727 1.386 . S
C726 C728 1.391 . S
C727 C726 1.386 . S
C727 C731 1.393 . S
C728 H717 0.950 . S
C728 C726 1.391 . S
C728 C729 1.400 . S
C729 C723 1.491 . S
C729 C728 1.400 . S
C729 C730 1.398 . S
C730 H718 0.950 . S
C730 C729 1.398 . S
C730 C731 1.391 . S
C731 H719 0.950 . S
C731 C727 1.393 . S
C731 C730 1.391 . S
H732 C740 0.950 . S
H733 C745 0.950 . S
H734 C742 0.950 . S
H735 C744 0.950 . S
H736 C746 0.950 . S
H737 C748 0.950 . S
H738 C750 0.950 . S
H739 C751 0.950 . S
C740 H732 0.950 . S
C740 C741 1.386 . S
C740 C742 1.391 . S
C741 C740 1.386 . S
C741 C745 1.393 . S
C742 H734 0.950 . S
C742 C740 1.391 . S
C742 C743 1.400 . S
C743 C742 1.400 . S
C743 C744 1.398 . S
C743 C749 1.491 . S
C744 H735 0.950 . S
C744 C743 1.398 . S
C744 C745 1.391 . S
C745 H733 0.950 . S
C745 C741 1.393 . S
C745 C744 1.391 . S
C746 H736 0.950 . S
C746 C747 1.386 . S
C746 C748 1.391 . S
C747 C746 1.386 . S
C747 C751 1.393 . S
C748 H737 0.950 . S
C748 C746 1.391 . S
C748 C749 1.400 . S
C749 C743 1.491 . S
C749 C748 1.400 . S
C749 C750 1.398 . S
C750 H738 0.950 . S
C750 C749 1.398 . S
C750 C751 1.391 . S
C751 H739 0.950 . S
C751 C747 1.393 . S
C751 C750 1.391 . S
H752 C760 0.950 . S
H753 C765 0.950 . S
H754 C762 0.950 . S
H755 C764 0.950 . S
H756 C766 0.950 . S
H757 C768 0.950 . S
H758 C770 0.950 . S
H759 C771 0.950 . S
C760 H752 0.950 . S
C760 C761 1.386 . S
C760 C762 1.391 . S
C761 C760 1.386 . S
C761 C765 1.393 . S
C762 H754 0.950 . S
C762 C760 1.391 . S
C762 C763 1.400 . S
C763 C762 1.400 . S
C763 C764 1.398 . S
C763 C769 1.491 . S
C764 H755 0.950 . S
C764 C763 1.398 . S
C764 C765 1.391 . S
C765 H753 0.950 . S
C765 C761 1.393 . S
C765 C764 1.391 . S
C766 H756 0.950 . S
C766 C767 1.386 . S
C766 C768 1.391 . S
C767 C766 1.386 . S
C767 C771 1.393 . S
C768 H757 0.950 . S
C768 C766 1.391 . S
C768 C769 1.400 . S
C769 C763 1.491 . S
C769 C768 1.400 . S
C769 C770 1.398 . S
C770 H758 0.950 . S
C770 C769 1.398 . S
C770 C771 1.391 . S
C771 H759 0.950 . S
C771 C767 1.393 . S
C771 C770 1.391 . S
H772 C780 0.950 . S
H773 C785 0.950 . S
H774 C782 0.950 . S
H775 C784 0.950 . S
H776 C786 0.950 . S
H777 C788 0.950 . S
H778 C790 0.950 . S
H779 C791 0.950 . S
C780 H772 0.950 . S
C780 C781 1.386 . S
C780 C782 1.391 . S
C781 C780 1.386 . S
C781 C785 1.393 . S
C782 H774 0.950 . S
C782 C780 1.391 . S
C782 C783 1.400 . S
C783 C782 1.400 . S
C783 C784 1.398 . S
C783 C789 1.491 . S
C784 H775 0.950 . S
C784 C783 1.398 . S
C784 C785 1.391 . S
C785 H773 0.950 . S
C785 C781 1.393 . S
C785 C784 1.391 . S
C786 H776 0.950 . S
C786 C787 1.386 . S
C786 C788 1.391 . S
C787 C786 1.386 . S
C787 C791 1.393 . S
C788 H777 0.950 . S
C788 C786 1.391 . S
C788 C789 1.400 . S
C789 C783 1.491 . S
C789 C788 1.400 . S
C789 C790 1.398 . S
C790 H778 0.950 . S
C790 C789 1.398 . S
C790 C791 1.391 . S
C791 H779 0.950 . S
C791 C787 1.393 . S
C791 C790 1.391 . S
H792 C800 0.950 . S
H793 C805 0.950 . S
H794 C802 0.950 . S
H795 C804 0.950 . S
H796 C806 0.950 . S
H797 C808 0.950 . S
H798 C810 0.950 . S
H799 C811 0.950 . S
C800 H792 0.950 . S
C800 C801 1.386 . S
C800 C802 1.391 . S
C801 C800 1.386 . S
C801 C805 1.393 . S
C802 H794 0.950 . S
C802 C800 1.391 . S
C802 C803 1.400 . S
C803 C802 1.400 . S
C803 C804 1.398 . S
C803 C809 1.491 . S
C804 H795 0.950 . S
C804 C803 1.398 . S
C804 C805 1.391 . S
C805 H793 0.950 . S
C805 C801 1.393 . S
C805 C804 1.391 . S
C806 H796 0.950 . S
C806 C807 1.386 . S
C806 C808 1.391 . S
C807 C806 1.386 . S
C807 C811 1.393 . S
C808 H797 0.950 . S
C808 C806 1.391 . S
C808 C809 1.400 . S
C809 C803 1.491 . S
C809 C808 1.400 . S
C809 C810 1.398 . S
C810 H798 0.950 . S
C810 C809 1.398 . S
C810 C811 1.391 . S
C811 H799 0.950 . S
C811 C807 1.393 . S
C811 C810 1.391 . S
H812 C820 0.950 . S
H813 C825 0.950 . S
H814 C822 0.950 . S
H815 C824 0.950 . S
H816 C826 0.950 . S
H817 C828 0.950 . S
H818 C830 0.950 . S
H819 C831 0.950 . S
C820 H812 0.950 . S
C820 C821 1.386 . S
C820 C822 1.391 . S
C821 C820 1.386 . S
C821 C825 1.393 . S
C822 H814 0.950 . S
C822 C820 1.391 . S
C822 C823 1.400 . S
C823 C822 1.400 . S
C823 C824 1.398 . S
C823 C829 1.491 . S
C824 H815 0.950 . S
C824 C823 1.398 . S
C824 C825 1.391 . S
C825 H813 0.950 . S
C825 C821 1.393 . S
C825 C824 1.391 . S
C826 H816 0.950 . S
C826 C827 1.386 . S
C826 C828 1.391 . S
C827 C826 1.386 . S
C827 C831 1.393 . S
C828 H817 0.950 . S
C828 C826 1.391 . S
C828 C829 1.400 . S
C829 C823 1.491 . S
C829 C828 1.400 . S
C829 C830 1.398 . S
C830 H818 0.950 . S
C830 C829 1.398 . S
C830 C831 1.391 . S
C831 H819 0.950 . S
C831 C827 1.393 . S
C831 C830 1.391 . S
H832 C840 0.950 . S
H833 C845 0.950 . S
H834 C842 0.950 . S
H835 C844 0.950 . S
H836 C846 0.950 . S
H837 C848 0.950 . S
H838 C850 0.950 . S
H839 C851 0.950 . S
C840 H832 0.950 . S
C840 C841 1.386 . S
C840 C842 1.391 . S
C841 C840 1.386 . S
C841 C845 1.393 . S
C842 H834 0.950 . S
C842 C840 1.391 . S
C842 C843 1.400 . S
C843 C842 1.400 . S
C843 C844 1.398 . S
C843 C849 1.491 . S
C844 H835 0.950 . S
C844 C843 1.398 . S
C844 C845 1.391 . S
C845 H833 0.950 . S
C845 C841 1.393 . S
C845 C844 1.391 . S
C846 H836 0.950 . S
C846 C847 1.386 . S
C846 C848 1.391 . S
C847 C846 1.386 . S
C847 C851 1.393 . S
C848 H837 0.950 . S
C848 C846 1.391 . S
C848 C849 1.400 . S
C849 C843 1.491 . S
C849 C848 1.400 . S
C849 C850 1.398 . S
C850 H838 0.950 . S
C850 C849 1.398 . S
C850 C851 1.391 . S
C851 H839 0.950 . S
C851 C847 1.393 . S
C851 C850 1.391 . S
H852 C860 0.950 . S
H853 C865 0.950 . S
H854 C862 0.950 . S
H855 C864 0.950 . S
H856 C866 0.950 . S
H857 C868 0.950 . S
H858 C870 0.950 . S
H859 C871 0.950 . S
C860 H852 0.950 . S
C860 C861 1.386 . S
C860 C862 1.391 . S
C861 C860 1.386 . S
C861 C865 1.393 . S
C862 H854 0.950 . S
C862 C860 1.391 . S
C862 C863 1.400 . S
C863 C862 1.400 . S
C863 C864 1.398 . S
C863 C869 1.491 . S
C864 H855 0.950 . S
C864 C863 1.398 . S
C864 C865 1.391 . S
C865 H853 0.950 . S
C865 C861 1.393 . S
C865 C864 1.391 . S
C866 H856 0.950 . S
C866 C867 1.386 . S
C866 C868 1.391 . S
C867 C866 1.386 . S
C867 C871 1.393 . S
C868 H857 0.950 . S
C868 C866 1.391 . S
C868 C869 1.400 . S
C869 C863 1.491 . S
C869 C868 1.400 . S
C869 C870 1.398 . S
C870 H858 0.950 . S
C870 C869 1.398 . S
C870 C871 1.391 . S
C871 H859 0.950 . S
C871 C867 1.393 . S
C871 C870 1.391 . S
H872 C880 0.950 . S
H873 C885 0.950 . S
H874 C882 0.950 . S
H875 C884 0.950 . S
H876 C886 0.950 . S
H877 C888 0.950 . S
H878 C890 0.950 . S
H879 C891 0.950 . S
C880 H872 0.950 . S
C880 C881 1.386 . S
C880 C882 1.391 . S
C881 C880 1.386 . S
C881 C885 1.393 . S
C882 H874 0.950 . S
C882 C880 1.391 . S
C882 C883 1.400 . S
C883 C882 1.400 . S
C883 C884 1.398 . S
C883 C889 1.491 . S
C884 H875 0.950 . S
C884 C883 1.398 . S
C884 C885 1.391 . S
C885 H873 0.950 . S
C885 C881 1.393 . S
C885 C884 1.391 . S
C886 H876 0.950 . S
C886 C887 1.386 . S
C886 C888 1.391 . S
C887 C886 1.386 . S
C887 C891 1.393 . S
C888 H877 0.950 . S
C888 C886 1.391 . S
C888 C889 1.400 . S
C889 C883 1.491 . S
C889 C888 1.400 . S
C889 C890 1.398 . S
C890 H878 0.950 . S
C890 C889 1.398 . S
C890 C891 1.391 . S
C891 H879 0.950 . S
C891 C887 1.393 . S
C891 C890 1.391 . S
H892 C900 0.950 . S
H893 C905 0.950 . S
H894 C902 0.950 . S
H895 C904 0.950 . S
H896 C906 0.950 . S
H897 C908 0.950 . S
H898 C910 0.950 . S
H899 C911 0.950 . S
C900 H892 0.950 . S
C900 C901 1.386 . S
C900 C902 1.391 . S
C901 C900 1.386 . S
C901 C905 1.393 . S
C902 H894 0.950 . S
C902 C900 1.391 . S
C902 C903 1.400 . S
C903 C902 1.400 . S
C903 C904 1.398 . S
C903 C909 1.491 . S
C904 H895 0.950 . S
C904 C903 1.398 . S
C904 C905 1.391 . S
C905 H893 0.950 . S
C905 C901 1.393 . S
C905 C904 1.391 . S
C906 H896 0.950 . S
C906 C907 1.386 . S
C906 C908 1.391 . S
C907 C906 1.386 . S
C907 C911 1.393 . S
C908 H897 0.950 . S
C908 C906 1.391 . S
C908 C909 1.400 . S
C909 C903 1.491 . S
C909 C908 1.400 . S
C909 C910 1.398 . S
C910 H898 0.950 . S
C910 C909 1.398 . S
C910 C911 1.391 . S
C911 H899 0.950 . S
C911 C907 1.393 . S
C911 C910 1.391 . S
H912 C920 0.950 . S
H913 C925 0.950 . S
H914 C922 0.950 . S
H915 C924 0.950 . S
H916 C926 0.950 . S
H917 C928 0.950 . S
H918 C930 0.950 . S
H919 C931 0.950 . S
C920 H912 0.950 . S
C920 C921 1.386 . S
C920 C922 1.391 . S
C921 C920 1.386 . S
C921 C925 1.393 . S
C922 H914 0.950 . S
C922 C920 1.391 . S
C922 C923 1.400 . S
C923 C922 1.400 . S
C923 C924 1.398 . S
C923 C929 1.491 . S
C924 H915 0.950 . S
C924 C923 1.398 . S
C924 C925 1.391 . S
C925 H913 0.950 . S
C925 C921 1.393 . S
C925 C924 1.391 . S
C926 H916 0.950 . S
C926 C927 1.386 . S
C926 C928 1.391 . S
C927 C926 1.386 . S
C927 C931 1.393 . S
C928 H917 0.950 . S
C928 C926 1.391 . S
C928 C929 1.400 . S
C929 C923 1.491 . S
C929 C928 1.400 . S
C929 C930 1.398 . S
C930 H918 0.950 . S
C930 C929 1.398 . S
C930 C931 1.391 . S
C931 H919 0.950 . S
C931 C927 1.393 . S
C931 C930 1.391 . S
H932 C940 0.950 . S
H933 C945 0.950 . S
H934 C942 0.950 . S
H935 C944 0.950 . S
H936 C946 0.950 . S
H937 C948 0.950 . S
H938 C950 0.950 . S
H939 C951 0.950 . S
C940 H932 0.950 . S
C940 C941 1.386 . S
C940 C942 1.391 . S
C941 C940 1.386 . S
C941 C945 1.393 . S
C942 H934 0.950 . S
C942 C940 1.391 . S
C942 C943 1.400 . S
C943 C942 1.400 . S
C943 C944 1.398 . S
C943 C949 1.491 . S
C944 H935 0.950 . S
C944 C943 1.398 . S
C944 C945 1.391 . S
C945 H933 0.950 . S
C945 C941 1.393 . S
C945 C944 1.391 . S
C946 H936 0.950 . S
C946 C947 1.386 . S
C946 C948 1.391 . S
C947 C946 1.386 . S
C947 C951 1.393 . S
C948 H937 0.950 . S
C948 C946 1.391 . S
C948 C949 1.400 . S
C949 C943 1.491 . S
C949 C948 1.400 . S
C949 C950 1.398 . S
C950 H938 0.950 . S
C950 C949 1.398 . S
C950 C951 1.391 . S
C951 H939 0.950 . S
C951 C947 1.393 . S
C951 C950 1.391 . S
H952 C960 0.950 . S
H953 C965 0.950 . S
H954 C962 0.950 . S
H955 C964 0.950 . S
H956 C966 0.950 . S
H957 C968 0.950 . S
H958 C970 0.950 . S
H959 C971 0.950 . S
C960 H952 0.950 . S
C960 C961 1.386 . S
C960 C962 1.391 . S
C961 C960 1.386 . S
C961 C965 1.393 . S
C962 H954 0.950 . S
C962 C960 1.391 . S
C962 C963 1.400 . S
C963 C962 1.400 . S
C963 C964 1.398 . S
C963 C969 1.491 . S
C964 H955 0.950 . S
C964 C963 1.398 . S
C964 C965 1.391 . S
C965 H953 0.950 . S
C965 C961 1.393 . S
C965 C964 1.391 . S
C966 H956 0.950 . S
C966 C967 1.386 . S
C966 C968 1.391 . S
C967 C966 1.386 . S
C967 C971 1.393 . S
C968 H957 0.950 . S
C968 C966 1.391 . S
C968 C969 1.400 . S
C969 C963 1.491 . S
C969 C968 1.400 . S
C969 C970 1.398 . S
C970 H958 0.950 . S
C970 C969 1.398 . S
C970 C971 1.391 . S
C971 H959 0.950 . S
C971 C967 1.393 . S
C971 C970 1.391 . S
H972 C980 0.950 . S
H973 C985 0.950 . S
H974 C982 0.950 . S
H975 C984 0.950 . S
H976 C986 0.950 . S
H977 C988 0.950 . S
H978 C990 0.950 . S
H979 C991 0.950 . S
C980 H972 0.950 . S
C980 C981 1.386 . S
C980 C982 1.391 . S
C981 C980 1.386 . S
C981 C985 1.393 . S
C982 H974 0.950 . S
C982 C980 1.391 . S
C982 C983 1.400 . S
C983 C982 1.400 . S
C983 C984 1.398 . S
C983 C989 1.491 . S
C984 H975 0.950 . S
C984 C983 1.398 . S
C984 C985 1.391 . S
C985 H973 0.950 . S
C985 C981 1.393 . S
C985 C984 1.391 . S
C986 H976 0.950 . S
C986 C987 1.386 . S
C986 C988 1.391 . S
C987 C986 1.386 . S
C987 C991 1.393 . S
C988 H977 0.950 . S
C988 C986 1.391 . S
C988 C989 1.400 . S
C989 C983 1.491 . S
C989 C988 1.400 . S
C989 C990 1.398 . S
C990 H978 0.950 . S
C990 C989 1.398 . S
C990 C991 1.391 . S
C991 H979 0.950 . S
C991 C987 1.393 . S
C991 C990 1.391 . S
H992 C1000 0.950 . S
H993 C1005 0.950 . S
H994 C1002 0.950 . S
H995 C1004 0.950 . S
H996 C1006 0.950 . S
H997 C1008 0.950 . S
H998 C1010 0.950 . S
H999 C1011 0.950 . S
C1000 H992 0.950 . S
C1000 C1001 1.386 . S
C1000 C1002 1.391 . S
C1001 C1000 1.386 . S
C1001 C1005 1.393 . S
C1002 H994 0.950 . S
C1002 C1000 1.391 . S
C1002 C1003 1.400 . S
C1003 C1002 1.400 . S
C1003 C1004 1.398 . S
C1003 C1009 1.491 . S
C1004 H995 0.950 . S
C1004 C1003 1.398 . S
C1004 C1005 1.391 . S
C1005 H993 0.950 . S
C1005 C1001 1.393 . S
C1005 C1004 1.391 . S
C1006 H996 0.950 . S
C1006 C1007 1.386 . S
C1006 C1008 1.391 . S
C1007 C1006 1.386 . S
C1007 C1011 1.393 . S
C1008 H997 0.950 . S
C1008 C1006 1.391 . S
C1008 C1009 1.400 . S
C1009 C1003 1.491 . S
C1009 C1008 1.400 . S
C1009 C1010 1.398 . S
C1010 H998 0.950 . S
C1010 C1009 1.398 . S
C1010 C1011 1.391 . S
C1011 H999 0.950 . S
C1011 C1007 1.393 . S
C1011 C1010 1.391 . S
H1012 C1020 0.950 . S
H1013 C1025 0.950 . S
H1014 C1022 0.950 . S
H1015 C1024 0.950 . S
H1016 C1026 0.950 . S
H1017 C1028 0.950 . S
H1018 C1030 0.950 . S
H1019 C1031 0.950 . S
C1020 H1012 0.950 . S
C1020 C1021 1.386 . S
C1020 C1022 1.391 . S
C1021 C1020 1.386 . S
C1021 C1025 1.393 . S
C1022 H1014 0.950 . S
C1022 C1020 1.391 . S
C1022 C1023 1.400 . S
C1023 C1022 1.400 . S
C1023 C1024 1.398 . S
C1023 C1029 1.491 . S
C1024 H1015 0.950 . S
C1024 C1023 1.398 . S
C1024 C1025 1.391 . S
C1025 H1013 0.950 . S
C1025 C1021 1.393 . S
C1025 C1024 1.391 . S
C1026 H1016 0.950 . S
C1026 C1027 1.386 . S
C1026 C1028 1.391 . S
C1027 C1026 1.386 . S
C1027 C1031 1.393 . S
C1028 H1017 0.950 . S
C1028 C1026 1.391 . S
C1028 C1029 1.400 . S
C1029 C1023 1.491 . S
C1029 C1028 1.400 . S
C1029 C1030 1.398 . S
C1030 H1018 0.950 . S
C1030 C1029 1.398 . S
C1030 C1031 1.391 . S
C1031 H1019 0.950 . S
C1031 C1027 1.393 . S
C1031 C1030 1.391 . S
H1032 C1040 0.950 . S
H1033 C1045 0.950 . S
H1034 C1042 0.950 . S
H1035 C1044 0.950 . S
H1036 C1046 0.950 . S
H1037 C1048 0.950 . S
H1038 C1050 0.950 . S
H1039 C1051 0.950 . S
C1040 H1032 0.950 . S
C1040 C1041 1.386 . S
C1040 C1042 1.391 . S
C1041 C1040 1.386 . S
C1041 C1045 1.393 . S
C1042 H1034 0.950 . S
C1042 C1040 1.391 . S
C1042 C1043 1.400 . S
C1043 C1042 1.400 . S
C1043 C1044 1.398 . S
C1043 C1049 1.491 . S
C1044 H1035 0.950 . S
C1044 C1043 1.398 . S
C1044 C1045 1.391 . S
C1045 H1033 0.950 . S
C1045 C1041 1.393 . S
C1045 C1044 1.391 . S
C1046 H1036 0.950 . S
C1046 C1047 1.386 . S
C1046 C1048 1.391 . S
C1047 C1046 1.386 . S
C1047 C1051 1.393 . S
C1048 H1037 0.950 . S
C1048 C1046 1.391 . S
C1048 C1049 1.400 . S
C1049 C1043 1.491 . S
C1049 C1048 1.400 . S
C1049 C1050 1.398 . S
C1050 H1038 0.950 . S
C1050 C1049 1.398 . S
C1050 C1051 1.391 . S
C1051 H1039 0.950 . S
C1051 C1047 1.393 . S
C1051 C1050 1.391 . S
H1052 C1060 0.950 . S
H1053 C1065 0.950 . S
H1054 C1062 0.950 . S
H1055 C1064 0.950 . S
H1056 C1066 0.950 . S
H1057 C1068 0.950 . S
H1058 C1070 0.950 . S
H1059 C1071 0.950 . S
C1060 H1052 0.950 . S
C1060 C1061 1.386 . S
C1060 C1062 1.391 . S
C1061 C1060 1.386 . S
C1061 C1065 1.393 . S
C1062 H1054 0.950 . S
C1062 C1060 1.391 . S
C1062 C1063 1.400 . S
C1063 C1062 1.400 . S
C1063 C1064 1.398 . S
C1063 C1069 1.491 . S
C1064 H1055 0.950 . S
C1064 C1063 1.398 . S
C1064 C1065 1.391 . S
C1065 H1053 0.950 . S
C1065 C1061 1.393 . S
C1065 C1064 1.391 . S
C1066 H1056 0.950 . S
C1066 C1067 1.386 . S
C1066 C1068 1.391 . S
C1067 C1066 1.386 . S
C1067 C1071 1.393 . S
C1068 H1057 0.950 . S
C1068 C1066 1.391 . S
C1068 C1069 1.400 . S
C1069 C1063 1.491 . S
C1069 C1068 1.400 . S
C1069 C1070 1.398 . S
C1070 H1058 0.950 . S
C1070 C1069 1.398 . S
C1070 C1071 1.391 . S
C1071 H1059 0.950 . S
C1071 C1067 1.393 . S
C1071 C1070 1.391 . S
H1072 C1080 0.950 . S
H1073 C1085 0.950 . S
H1074 C1082 0.950 . S
H1075 C1084 0.950 . S
H1076 C1086 0.950 . S
H1077 C1088 0.950 . S
H1078 C1090 0.950 . S
H1079 C1091 0.950 . S
C1080 H1072 0.950 . S
C1080 C1081 1.386 . S
C1080 C1082 1.391 . S
C1081 C1080 1.386 . S
C1081 C1085 1.393 . S
C1082 H1074 0.950 . S
C1082 C1080 1.391 . S
C1082 C1083 1.400 . S
C1083 C1082 1.400 . S
C1083 C1084 1.398 . S
C1083 C1089 1.491 . S
C1084 H1075 0.950 . S
C1084 C1083 1.398 . S
C1084 C1085 1.391 . S
C1085 H1073 0.950 . S
C1085 C1081 1.393 . S
C1085 C1084 1.391 . S
C1086 H1076 0.950 . S
C1086 C1087 1.386 . S
C1086 C1088 1.391 . S
C1087 C1086 1.386 . S
C1087 C1091 1.393 . S
C1088 H1077 0.950 . S
C1088 C1086 1.391 . S
C1088 C1089 1.400 . S
C1089 C1083 1.491 . S
C1089 C1088 1.400 . S
C1089 C1090 1.398 . S
C1090 H1078 0.950 . S
C1090 C1089 1.398 . S
C1090 C1091 1.391 . S
C1091 H1079 0.950 . S
C1091 C1087 1.393 . S
C1091 C1090 1.391 . S
H1092 C1100 0.950 . S
H1093 C1105 0.950 . S
H1094 C1102 0.950 . S
H1095 C1104 0.950 . S
H1096 C1106 0.950 . S
H1097 C1108 0.950 . S
H1098 C1110 0.950 . S
H1099 C1111 0.950 . S
C1100 H1092 0.950 . S
C1100 C1101 1.386 . S
C1100 C1102 1.391 . S
C1101 C1100 1.386 . S
C1101 C1105 1.393 . S
C1102 H1094 0.950 . S
C1102 C1100 1.391 . S
C1102 C1103 1.400 . S
C1103 C1102 1.400 . S
C1103 C1104 1.398 . S
C1103 C1109 1.491 . S
C1104 H1095 0.950 . S
C1104 C1103 1.398 . S
C1104 C1105 1.391 . S
C1105 H1093 0.950 . S
C1105 C1101 1.393 . S
C1105 C1104 1.391 . S
C1106 H1096 0.950 . S
C1106 C1107 1.386 . S
C1106 C1108 1.391 . S
C1107 C1106 1.386 . S
C1107 C1111 1.393 . S
C1108 H1097 0.950 . S
C1108 C1106 1.391 . S
C1108 C1109 1.400 . S
C1109 C1103 1.491 . S
C1109 C1108 1.400 . S
C1109 C1110 1.398 . S
C1110 H1098 0.950 . S
C1110 C1109 1.398 . S
C1110 C1111 1.391 . S
C1111 H1099 0.950 . S
C1111 C1107 1.393 . S
C1111 C1110 1.391 . S
H1112 C1120 0.950 . S
H1113 C1125 0.950 . S
H1114 C1122 0.950 . S
H1115 C1124 0.950 . S
H1116 C1126 0.950 . S
H1117 C1128 0.950 . S
H1118 C1130 0.950 . S
H1119 C1131 0.950 . S
C1120 H1112 0.950 . S
C1120 C1121 1.386 . S
C1120 C1122 1.391 . S
C1121 C1120 1.386 . S
C1121 C1125 1.393 . S
C1122 H1114 0.950 . S
C1122 C1120 1.391 . S
C1122 C1123 1.400 . S
C1123 C1122 1.400 . S
C1123 C1124 1.398 . S
C1123 C1129 1.491 . S
C1124 H1115 0.950 . S
C1124 C1123 1.398 . S
C1124 C1125 1.391 . S
C1125 H1113 0.950 . S
C1125 C1121 1.393 . S
C1125 C1124 1.391 . S
C1126 H1116 0.950 . S
C1126 C1127 1.386 . S
C1126 C1128 1.391 . S
C1127 C1126 1.386 . S
C1127 C1131 1.393 . S
C1128 H1117 0.950 . S
C1128 C1126 1.391 . S
C1128 C1129 1.400 . S
C1129 C1123 1.491 . S
C1129 C1128 1.400 . S
C1129 C1130 1.398 . S
C1130 H1118 0.950 . S
C1130 C1129 1.398 . S
C1130 C1131 1.391 . S
C1131 H1119 0.950 . S
C1131 C1127 1.393 . S
C1131 C1130 1.391 . S
H1132 C1140 0.950 . S
H1133 C1145 0.950 . S
H1134 C1142 0.950 . S
H1135 C1144 0.950 . S
H1136 C1146 0.950 . S
H1137 C1148 0.950 . S
H1138 C1150 0.950 . S
H1139 C1151 0.950 . S
C1140 H1132 0.950 . S
C1140 C1141 1.386 . S
C1140 C1142 1.391 . S
C1141 C1140 1.386 . S
C1141 C1145 1.393 . S
C1142 H1134 0.950 . S
C1142 C1140 1.391 . S
C1142 C1143 1.400 . S
C1143 C1142 1.400 . S
C1143 C1144 1.398 . S
C1143 C1149 1.491 . S
C1144 H1135 0.950 . S
C1144 C1143 1.398 . S
C1144 C1145 1.391 . S
C1145 H1133 0.950 . S
C1145 C1141 1.393 . S
C1145 C1144 1.391 . S
C1146 H1136 0.950 . S
C1146 C1147 1.386 . S
C1146 C1148 1.391 . S
C1147 C1146 1.386 . S
C1147 C1151 1.393 . S
C1148 H1137 0.950 . S
C1148 C1146 1.391 . S
C1148 C1149 1.400 . S
C1149 C1143 1.491 . S
C1149 C1148 1.400 . S
C1149 C1150 1.398 . S
C1150 H1138 0.950 . S
C1150 C1149 1.398 . S
C1150 C1151 1.391 . S
C1151 H1139 0.950 . S
C1151 C1147 1.393 . S
C1151 C1150 1.391 . S
H1152 C1160 0.950 . S
H1153 C1165 0.950 . S
H1154 C1162 0.950 . S
H1155 C1164 0.950 . S
H1156 C1166 0.950 . S
H1157 C1168 0.950 . S
H1158 C1170 0.950 . S
H1159 C1171 0.950 . S
C1160 H1152 0.950 . S
C1160 C1161 1.386 . S
C1160 C1162 1.391 . S
C1161 C1160 1.386 . S
C1161 C1165 1.393 . S
C1162 H1154 0.950 . S
C1162 C1160 1.391 . S
C1162 C1163 1.400 . S
C1163 C1162 1.400 . S
C1163 C1164 1.398 . S
C1163 C1169 1.491 . S
C1164 H1155 0.950 . S
C1164 C1163 1.398 . S
C1164 C1165 1.391 . S
C1165 H1153 0.950 . S
C1165 C1161 1.393 . S
C1165 C1164 1.391 . S
C1166 H1156 0.950 . S
C1166 C1167 1.386 . S
C1166 C1168 1.391 . S
C1167 C1166 1.386 . S
C1167 C1171 1.393 . S
C1168 H1157 0.950 . S
C1168 C1166 1.391 . S
C1168 C1169 1.400 . S
C1169 C1163 1.491 . S
C1169 C1168 1.400 . S
C1169 C1170 1.398 . S
C1170 H1158 0.950 . S
C1170 C1169 1.398 . S
C1170 C1171 1.391 . S
C1171 H1159 0.950 . S
C1171 C1167 1.393 . S
C1171 C1170 1.391 . S
H1172 C1180 0.950 . S
H1173 C1185 0.950 . S
H1174 C1182 0.950 . S
H1175 C1184 0.950 . S
H1176 C1186 0.950 . S
H1177 C1188 0.950 . S
H1178 C1190 0.950 . S
H1179 C1191 0.950 . S
C1180 H1172 0.950 . S
C1180 C1181 1.386 . S
C1180 C1182 1.391 . S
C1181 C1180 1.386 . S
C1181 C1185 1.393 . S
C1182 H1174 0.950 . S
C1182 C1180 1.391 . S
C1182 C1183 1.400 . S
C1183 C1182 1.400 . S
C1183 C1184 1.398 . S
C1183 C1189 1.491 . S
C1184 H1175 0.950 . S
C1184 C1183 1.398 . S
C1184 C1185 1.391 . S
C1185 H1173 0.950 . S
C1185 C1181 1.393 . S
C1185 C1184 1.391 . S
C1186 H1176 0.950 . S
C1186 C1187 1.386 . S
C1186 C1188 1.391 . S
C1187 C1186 1.386 . S
C1187 C1191 1.393 . S
C1188 H1177 0.950 . S
C1188 C1186 1.391 . S
C1188 C1189 1.400 . S
C1189 C1183 1.491 . S
C1189 C1188 1.400 . S
C1189 C1190 1.398 . S
C1190 H1178 0.950 . S
C1190 C1189 1.398 . S
C1190 C1191 1.391 . S
C1191 H1179 0.950 . S
C1191 C1187 1.393 . S
C1191 C1190 1.391 . S
H1192 C1200 0.950 . S
H1193 C1205 0.950 . S
H1194 C1202 0.950 . S
H1195 C1204 0.950 . S
H1196 C1206 0.950 . S
H1197 C1208 0.950 . S
H1198 C1210 0.950 . S
H1199 C1211 0.950 . S
C1200 H1192 0.950 . S
C1200 C1201 1.386 . S
C1200 C1202 1.391 . S
C1201 C1200 1.386 . S
C1201 C1205 1.393 . S
C1202 H1194 0.950 . S
C1202 C1200 1.391 . S
C1202 C1203 1.400 . S
C1203 C1202 1.400 . S
C1203 C1204 1.398 . S
C1203 C1209 1.491 . S
C1204 H1195 0.950 . S
C1204 C1203 1.398 . S
C1204 C1205 1.391 . S
C1205 H1193 0.950 . S
C1205 C1201 1.393 . S
C1205 C1204 1.391 . S
C1206 H1196 0.950 . S
C1206 C1207 1.386 . S
C1206 C1208 1.391 . S
C1207 C1206 1.386 . S
C1207 C1211 1.393 . S
C1208 H1197 0.950 . S
C1208 C1206 1.391 . S
C1208 C1209 1.400 . S
C1209 C1203 1.491 . S
C1209 C1208 1.400 . S
C1209 C1210 1.398 . S
C1210 H1198 0.950 . S
C1210 C1209 1.398 . S
C1210 C1211 1.391 . S
C1211 H1199 0.950 . S
C1211 C1207 1.393 . S
C1211 C1210 1.391 . S
H1212 C1220 0.950 . S
H1213 C1225 0.950 . S
H1214 C1222 0.950 . S
H1215 C1224 0.950 . S
H1216 C1226 0.950 . S
H1217 C1228 0.950 . S
H1218 C1230 0.950 . S
H1219 C1231 0.950 . S
C1220 H1212 0.950 . S
C1220 C1221 1.386 . S
C1220 C1222 1.391 . S
C1221 C1220 1.386 . S
C1221 C1225 1.393 . S
C1222 H1214 0.950 . S
C1222 C1220 1.391 . S
C1222 C1223 1.400 . S
C1223 C1222 1.400 . S
C1223 C1224 1.398 . S
C1223 C1229 1.491 . S
C1224 H1215 0.950 . S
C1224 C1223 1.398 . S
C1224 C1225 1.391 . S
C1225 H1213 0.950 . S
C1225 C1221 1.393 . S
C1225 C1224 1.391 . S
C1226 H1216 0.950 . S
C1226 C1227 1.386 . S
C1226 C1228 1.391 . S
C1227 C1226 1.386 . S
C1227 C1231 1.393 . S
C1228 H1217 0.950 . S
C1228 C1226 1.391 . S
C1228 C1229 1.400 . S
C1229 C1223 1.491 . S
C1229 C1228 1.400 . S
C1229 C1230 1.398 . S
C1230 H1218 0.950 . S
C1230 C1229 1.398 . S
C1230 C1231 1.391 . S
C1231 H1219 0.950 . S
C1231 C1227 1.393 . S
C1231 C1230 1.391 . S
H1232 C1240 0.950 . S
H1233 C1245 0.950 . S
H1234 C1242 0.950 . S
H1235 C1244 0.950 . S
H1236 C1246 0.950 . S
H1237 C1248 0.950 . S
H1238 C1250 0.950 . S
H1239 C1251 0.950 . S
C1240 H1232 0.950 . S
C1240 C1241 1.386 . S
C1240 C1242 1.391 . S
C1241 C1240 1.386 . S
C1241 C1245 1.393 . S
C1242 H1234 0.950 . S
C1242 C1240 1.391 . S
C1242 C1243 1.400 . S
C1243 C1242 1.400 . S
C1243 C1244 1.398 . S
C1243 C1249 1.491 . S
C1244 H1235 0.950 . S
C1244 C1243 1.398 . S
C1244 C1245 1.391 . S
C1245 H1233 0.950 . S
C1245 C1241 1.393 . S
C1245 C1244 1.391 . S
C1246 H1236 0.950 . S
C1246 C1247 1.386 . S
C1246 C1248 1.391 . S
C1247 C1246 1.386 . S
C1247 C1251 1.393 . S
C1248 H1237 0.950 . S
C1248 C1246 1.391 . S
C1248 C1249 1.400 . S
C1249 C1243 1.491 . S
C1249 C1248 1.400 . S
C1249 C1250 1.398 . S
C1250 H1238 0.950 . S
C1250 C1249 1.398 . S
C1250 C1251 1.391 . S
C1251 H1239 0.950 . S
C1251 C1247 1.393 . S
C1251 C1250 1.391 . S
H1252 C1260 0.950 . S
H1253 C1265 0.950 . S
H1254 C1262 0.950 . S
H1255 C1264 0.950 . S
H1256 C1266 0.950 . S
H1257 C1268 0.950 . S
H1258 C1270 0.950 . S
H1259 C1271 0.950 . S
C1260 H1252 0.950 . S
C1260 C1261 1.386 . S
C1260 C1262 1.391 . S
C1261 C1260 1.386 . S
C1261 C1265 1.393 . S
C1262 H1254 0.950 . S
C1262 C1260 1.391 . S
C1262 C1263 1.400 . S
C1263 C1262 1.400 . S
C1263 C1264 1.398 . S
C1263 C1269 1.491 . S
C1264 H1255 0.950 . S
C1264 C1263 1.398 . S
C1264 C1265 1.391 . S
C1265 H1253 0.950 . S
C1265 C1261 1.393 . S
C1265 C1264 1.391 . S
C1266 H1256 0.950 . S
C1266 C1267 1.386 . S
C1266 C1268 1.391 . S
C1267 C1266 1.386 . S
C1267 C1271 1.393 . S
C1268 H1257 0.950 . S
C1268 C1266 1.391 . S
C1268 C1269 1.400 . S
C1269 C1263 1.491 . S
C1269 C1268 1.400 . S
C1269 C1270 1.398 . S
C1270 H1258 0.950 . S
C1270 C1269 1.398 . S
C1270 C1271 1.391 . S
C1271 H1259 0.950 . S
C1271 C1267 1.393 . S
C1271 C1270 1.391 . S
H1272 C1280 0.950 . S
H1273 C1285 0.950 . S
H1274 C1282 0.950 . S
H1275 C1284 0.950 . S
H1276 C1286 0.950 . S
H1277 C1288 0.950 . S
H1278 C1290 0.950 . S
H1279 C1291 0.950 . S
C1280 H1272 0.950 . S
C1280 C1281 1.386 . S
C1280 C1282 1.391 . S
C1281 C1280 1.386 . S
C1281 C1285 1.393 . S
C1282 H1274 0.950 . S
C1282 C1280 1.391 . S
C1282 C1283 1.400 . S
C1283 C1282 1.400 . S
C1283 C1284 1.398 . S
C1283 C1289 1.491 . S
C1284 H1275 0.950 . S
C1284 C1283 1.398 . S
C1284 C1285 1.391 . S
C1285 H1273 0.950 . S
C1285 C1281 1.393 . S
C1285 C1284 1.391 . S
C1286 H1276 0.950 . S
C1286 C1287 1.386 . S
C1286 C1288 1.391 . S
C1287 C1286 1.386 . S
C1287 C1291 1.393 . S
C1288 H1277 0.950 . S
C1288 C1286 1.391 . S
C1288 C1289 1.400 . S
C1289 C1283 1.491 . S
C1289 C1288 1.400 . S
C1289 C1290 1.398 . S
C1290 H1278 0.950 . S
C1290 C1289 1.398 . S
C1290 C1291 1.391 . S
C1291 H1279 0.950 . S
C1291 C1287 1.393 . S
C1291 C1290 1.391 . S
H1292 C1300 0.950 . S
H1293 C1305 0.950 . S
H1294 C1302 0.950 . S
H1295 C1304 0.950 . S
H1296 C1306 0.950 . S
H1297 C1308 0.950 . S
H1298 C1310 0.950 . S
H1299 C1311 0.950 . S
C1300 H1292 0.950 . S
C1300 C1301 1.386 . S
C1300 C1302 1.391 . S
C1301 C1300 1.386 . S
C1301 C1305 1.393 . S
C1302 H1294 0.950 . S
C1302 C1300 1.391 . S
C1302 C1303 1.400 . S
C1303 C1302 1.400 . S
C1303 C1304 1.398 . S
C1303 C1309 1.491 . S
C1304 H1295 0.950 . S
C1304 C1303 1.398 . S
C1304 C1305 1.391 . S
C1305 H1293 0.950 . S
C1305 C1301 1.393 . S
C1305 C1304 1.391 . S
C1306 H1296 0.950 . S
C1306 C1307 1.386 . S
C1306 C1308 1.391 . S
C1307 C1306 1.386 . S
C1307 C1311 1.393 . S
C1308 H1297 0.950 . S
C1308 C1306 1.391 . S
C1308 C1309 1.400 . S
C1309 C1303 1.491 . S
C1309 C1308 1.400 . S
C1309 C1310 1.398 . S
C1310 H1298 0.950 . S
C1310 C1309 1.398 . S
C1310 C1311 1.391 . S
C1311 H1299 0.950 . S
C1311 C1307 1.393 . S
C1311 C1310 1.391 . S
H1312 C1320 0.950 . S
H1313 C1325 0.950 . S
H1314 C1322 0.950 . S
H1315 C1324 0.950 . S
H1316 C1326 0.950 . S
H1317 C1328 0.950 . S
H1318 C1330 0.950 . S
H1319 C1331 0.950 . S
C1320 H1312 0.950 . S
C1320 C1321 1.386 . S
C1320 C1322 1.391 . S
C1321 C1320 1.386 . S
C1321 C1325 1.393 . S
C1322 H1314 0.950 . S
C1322 C1320 1.391 . S
C1322 C1323 1.400 . S
C1323 C1322 1.400 . S
C1323 C1324 1.398 . S
C1323 C1329 1.491 . S
C1324 H1315 0.950 . S
C1324 C1323 1.398 . S
C1324 C1325 1.391 . S
C1325 H1313 0.950 . S
C1325 C1321 1.393 . S
C1325 C1324 1.391 . S
C1326 H1316 0.950 . S
C1326 C1327 1.386 . S
C1326 C1328 1.391 . S
C1327 C1326 1.386 . S
C1327 C1331 1.393 . S
C1328 H1317 0.950 . S
C1328 C1326 1.391 . S
C1328 C1329 1.400 . S
C1329 C1323 1.491 . S
C1329 C1328 1.400 . S
C1329 C1330 1.398 . S
C1330 H1318 0.950 . S
C1330 C1329 1.398 . S
C1330 C1331 1.391 . S
C1331 H1319 0.950 . S
C1331 C1327 1.393 . S
C1331 C1330 1.391 . S
H1332 C1340 0.950 . S
H1333 C1345 0.950 . S
H1334 C1342 0.950 . S
H1335 C1344 0.950 . S
H1336 C1346 0.950 . S
H1337 C1348 0.950 . S
H1338 C1350 0.950 . S
H1339 C1351 0.950 . S
C1340 H1332 0.950 . S
C1340 C1341 1.386 . S
C1340 C1342 1.391 . S
C1341 C1340 1.386 . S
C1341 C1345 1.393 . S
C1342 H1334 0.950 . S
C1342 C1340 1.391 . S
C1342 C1343 1.400 . S
C1343 C1342 1.400 . S
C1343 C1344 1.398 . S
C1343 C1349 1.491 . S
C1344 H1335 0.950 . S
C1344 C1343 1.398 . S
C1344 C1345 1.391 . S
C1345 H1333 0.950 . S
C1345 C1341 1.393 . S
C1345 C1344 1.391 . S
C1346 H1336 0.950 . S
C1346 C1347 1.386 . S
C1346 C1348 1.391 . S
C1347 C1346 1.386 . S
C1347 C1351 1.393 . S
C1348 H1337 0.950 . S
C1348 C1346 1.391 . S
C1348 C1349 1.400 . S
C1349 C1343 1.491 . S
C1349 C1348 1.400 . S
C1349 C1350 1.398 . S
C1350 H1338 0.950 . S
C1350 C1349 1.398 . S
C1350 C1351 1.391 . S
C1351 H1339 0.950 . S
C1351 C1347 1.393 . S
C1351 C1350 1.391 . S
H1352 C1360 0.950 . S
H1353 C1365 0.950 . S
H1354 C1362 0.950 . S
H1355 C1364 0.950 . S
H1356 C1366 0.950 . S
H1357 C1368 0.950 . S
H1358 C1370 0.950 . S
H1359 C1371 0.950 . S
C1360 H1352 0.950 . S
C1360 C1361 1.386 . S
C1360 C1362 1.391 . S
C1361 C1360 1.386 . S
C1361 C1365 1.393 . S
C1362 H1354 0.950 . S
C1362 C1360 1.391 . S
C1362 C1363 1.400 . S
C1363 C1362 1.400 . S
C1363 C1364 1.398 . S
C1363 C1369 1.491 . S
C1364 H1355 0.950 . S
C1364 C1363 1.398 . S
C1364 C1365 1.391 . S
C1365 H1353 0.950 . S
C1365 C1361 1.393 . S
C1365 C1364 1.391 . S
C1366 H1356 0.950 . S
C1366 C1367 1.386 . S
C1366 C1368 1.391 . S
C1367 C1366 1.386 . S
C1367 C1371 1.393 . S
C1368 H1357 0.950 . S
C1368 C1366 1.391 . S
C1368 C1369 1.400 . S
C1369 C1363 1.491 . S
C1369 C1368 1.400 . S
C1369 C1370 1.398 . S
C1370 H1358 0.950 . S
C1370 C1369 1.398 . S
C1370 C1371 1.391 . S
C1371 H1359 0.950 . S
C1371 C1367 1.393 . S
C1371 C1370 1.391 . S
H1372 C1380 0.950 . S
H1373 C1385 0.950 . S
H1374 C1382 0.950 . S
H1375 C1384 0.950 . S
H1376 C1386 0.950 . S
H1377 C1388 0.950 . S
H1378 C1390 0.950 . S
H1379 C1391 0.950 . S
C1380 H1372 0.950 . S
C1380 C1381 1.386 . S
C1380 C1382 1.391 . S
C1381 C1380 1.386 . S
C1381 C1385 1.393 . S
C1382 H1374 0.950 . S
C1382 C1380 1.391 . S
C1382 C1383 1.400 . S
C1383 C1382 1.400 . S
C1383 C1384 1.398 . S
C1383 C1389 1.491 . S
C1384 H1375 0.950 . S
C1384 C1383 1.398 . S
C1384 C1385 1.391 . S
C1385 H1373 0.950 . S
C1385 C1381 1.393 . S
C1385 C1384 1.391 . S
C1386 H1376 0.950 . S
C1386 C1387 1.386 . S
C1386 C1388 1.391 . S
C1387 C1386 1.386 . S
C1387 C1391 1.393 . S
C1388 H1377 0.950 . S
C1388 C1386 1.391 . S
C1388 C1389 1.400 . S
C1389 C1383 1.491 . S
C1389 C1388 1.400 . S
C1389 C1390 1.398 . S
C1390 H1378 0.950 . S
C1390 C1389 1.398 . S
C1390 C1391 1.391 . S
C1391 H1379 0.950 . S
C1391 C1387 1.393 . S
C1391 C1390 1.391 . S
H1392 C1400 0.950 . S
H1393 C1405 0.950 . S
H1394 C1402 0.950 . S
H1395 C1404 0.950 . S
H1396 C1406 0.950 . S
H1397 C1408 0.950 . S
H1398 C1410 0.950 . S
H1399 C1411 0.950 . S
C1400 H1392 0.950 . S
C1400 C1401 1.386 . S
C1400 C1402 1.391 . S
C1401 C1400 1.386 . S
C1401 C1405 1.393 . S
C1402 H1394 0.950 . S
C1402 C1400 1.391 . S
C1402 C1403 1.400 . S
C1403 C1402 1.400 . S
C1403 C1404 1.398 . S
C1403 C1409 1.491 . S
C1404 H1395 0.950 . S
C1404 C1403 1.398 . S
C1404 C1405 1.391 . S
C1405 H1393 0.950 . S
C1405 C1401 1.393 . S
C1405 C1404 1.391 . S
C1406 H1396 0.950 . S
C1406 C1407 1.386 . S
C1406 C1408 1.391 . S
C1407 C1406 1.386 . S
C1407 C1411 1.393 . S
C1408 H1397 0.950 . S
C1408 C1406 1.391 . S
C1408 C1409 1.400 . S
C1409 C1403 1.491 . S
C1409 C1408 1.400 . S
C1409 C1410 1.398 . S
C1410 H1398 0.950 . S
C1410 C1409 1.398 . S
C1410 C1411 1.391 . S
C1411 H1399 0.950 . S
C1411 C1407 1.393 . S
C1411 C1410 1.391 . S
H1412 C1420 0.950 . S
H1413 C1425 0.950 . S
H1414 C1422 0.950 . S
H1415 C1424 0.950 . S
H1416 C1426 0.950 . S
H1417 C1428 0.950 . S
H1418 C1430 0.950 . S
H1419 C1431 0.950 . S
C1420 H1412 0.950 . S
C1420 C1421 1.386 . S
C1420 C1422 1.391 . S
C1421 C1420 1.386 . S
C1421 C1425 1.393 . S
C1422 H1414 0.950 . S
C1422 C1420 1.391 . S
C1422 C1423 1.400 . S
C1423 C1422 1.400 . S
C1423 C1424 1.398 . S
C1423 C1429 1.491 . S
C1424 H1415 0.950 . S
C1424 C1423 1.398 . S
C1424 C1425 1.391 . S
C1425 H1413 0.950 . S
C1425 C1421 1.393 . S
C1425 C1424 1.391 . S
C1426 H1416 0.950 . S
C1426 C1427 1.386 . S
C1426 C1428 1.391 . S
C1427 C1426 1.386 . S
C1427 C1431 1.393 . S
C1428 H1417 0.950 . S
C1428 C1426 1.391 . S
C1428 C1429 1.400 . S
C1429 C1423 1.491 . S
C1429 C1428 1.400 . S
C1429 C1430 1.398 . S
C1430 H1418 0.950 . S
C1430 C1429 1.398 . S
C1430 C1431 1.391 . S
C1431 H1419 0.950 . S
C1431 C1427 1.393 . S
C1431 C1430 1.391 . S
H1432 C1440 0.950 . S
H1433 C1445 0.950 . S
H1434 C1442 0.950 . S
H1435 C1444 0.950 . S
H1436 C1446 0.950 . S
H1437 C1448 0.950 . S
H1438 C1450 0.950 . S
H1439 C1451 0.950 . S
C1440 H1432 0.950 . S
C1440 C1441 1.386 . S
C1440 C1442 1.391 . S
C1441 C1440 1.386 . S
C1441 C1445 1.393 . S
C1442 H1434 0.950 . S
C1442 C1440 1.391 . S
C1442 C1443 1.400 . S
C1443 C1442 1.400 . S
C1443 C1444 1.398 . S
C1443 C1449 1.491 . S
C1444 H1435 0.950 . S
C1444 C1443 1.398 . S
C1444 C1445 1.391 . S
C1445 H1433 0.950 . S
C1445 C1441 1.393 . S
C1445 C1444 1.391 . S
C1446 H1436 0.950 . S
C1446 C1447 1.386 . S
C1446 C1448 1.391 . S
C1447 C1446 1.386 . S
C1447 C1451 1.393 . S
C1448 H1437 0.950 . S
C1448 C1446 1.391 . S
C1448 C1449 1.400 . S
C1449 C1443 1.491 . S
C1449 C1448 1.400 . S
C1449 C1450 1.398 . S
C1450 H1438 0.950 . S
C1450 C1449 1.398 . S
C1450 C1451 1.391 . S
C1451 H1439 0.950 . S
C1451 C1447 1.393 . S
C1451 C1450 1.391 . S
H1452 C1460 0.950 . S
H1453 C1465 0.950 . S
H1454 C1462 0.950 . S
H1455 C1464 0.950 . S
H1456 C1466 0.950 . S
H1457 C1468 0.950 . S
H1458 C1470 0.950 . S
H1459 C1471 0.950 . S
C1460 H1452 0.950 . S
C1460 C1461 1.386 . S
C1460 C1462 1.391 . S
C1461 C1460 1.386 . S
C1461 C1465 1.393 . S
C1462 H1454 0.950 . S
C1462 C1460 1.391 . S
C1462 C1463 1.400 . S
C1463 C1462 1.400 . S
C1463 C1464 1.398 . S
C1463 C1469 1.491 . S
C1464 H1455 0.950 . S
C1464 C1463 1.398 . S
C1464 C1465 1.391 . S
C1465 H1453 0.950 . S
C1465 C1461 1.393 . S
C1465 C1464 1.391 . S
C1466 H1456 0.950 . S
C1466 C1467 1.386 . S
C1466 C1468 1.391 . S
C1467 C1466 1.386 . S
C1467 C1471 1.393 . S
C1468 H1457 0.950 . S
C1468 C1466 1.391 . S
C1468 C1469 1.400 . S
C1469 C1463 1.491 . S
C1469 C1468 1.400 . S
C1469 C1470 1.398 . S
C1470 H1458 0.950 . S
C1470 C1469 1.398 . S
C1470 C1471 1.391 . S
C1471 H1459 0.950 . S
C1471 C1467 1.393 . S
C1471 C1470 1.391 . S
H1472 C1480 0.950 . S
H1473 C1485 0.950 . S
H1474 C1482 0.950 . S
H1475 C1484 0.950 . S
H1476 C1486 0.950 . S
H1477 C1488 0.950 . S
H1478 C1490 0.950 . S
H1479 C1491 0.950 . S
C1480 H1472 0.950 . S
C1480 C1481 1.386 . S
C1480 C1482 1.391 . S
C1481 C1480 1.386 . S
C1481 C1485 1.393 . S
C1482 H1474 0.950 . S
C1482 C1480 1.391 . S
C1482 C1483 1.400 . S
C1483 C1482 1.400 . S
C1483 C1484 1.398 . S
C1483 C1489 1.491 . S
C1484 H1475 0.950 . S
C1484 C1483 1.398 . S
C1484 C1485 1.391 . S
C1485 H1473 0.950 . S
C1485 C1481 1.393 . S
C1485 C1484 1.391 . S
C1486 H1476 0.950 . S
C1486 C1487 1.386 . S
C1486 C1488 1.391 . S
C1487 C1486 1.386 . S
C1487 C1491 1.393 . S
C1488 H1477 0.950 . S
C1488 C1486 1.391 . S
C1488 C1489 1.400 . S
C1489 C1483 1.491 . S
C1489 C1488 1.400 . S
C1489 C1490 1.398 . S
C1490 H1478 0.950 . S
C1490 C1489 1.398 . S
C1490 C1491 1.391 . S
C1491 H1479 0.950 . S
C1491 C1487 1.393 . S
C1491 C1490 1.391 . S
H1492 C1500 0.950 . S
H1493 C1505 0.950 . S
H1494 C1502 0.950 . S
H1495 C1504 0.950 . S
H1496 C1506 0.950 . S
H1497 C1508 0.950 . S
H1498 C1510 0.950 . S
H1499 C1511 0.950 . S
C1500 H1492 0.950 . S
C1500 C1501 1.386 . S
C1500 C1502 1.391 . S
C1501 C1500 1.386 . S
C1501 C1505 1.393 . S
C1502 H1494 0.950 . S
C1502 C1500 1.391 . S
C1502 C1503 1.400 . S
C1503 C1502 1.400 . S
C1503 C1504 1.398 . S
C1503 C1509 1.491 . S
C1504 H1495 0.950 . S
C1504 C1503 1.398 . S
C1504 C1505 1.391 . S
C1505 H1493 0.950 . S
C1505 C1501 1.393 . S
C1505 C1504 1.391 . S
C1506 H1496 0.950 . S
C1506 C1507 1.386 . S
C1506 C1508 1.391 . S
C1507 C1506 1.386 . S
C1507 C1511 1.393 . S
C1508 H1497 0.950 . S
C1508 C1506 1.391 . S
C1508 C1509 1.400 . S
C1509 C1503 1.491 . S
C1509 C1508 1.400 . S
C1509 C1510 1.398 . S
C1510 H1498 0.950 . S
C1510 C1509 1.398 . S
C1510 C1511 1.391 . S
C1511 H1499 0.950 . S
C1511 C1507 1.393 . S
C1511 C1510 1.391 . S
H1512 C1520 0.950 . S
H1513 C1525 0.950 . S
H1514 C1522 0.950 . S
H1515 C1524 0.950 . S
H1516 C1526 0.950 . S
H1517 C1528 0.950 . S
H1518 C1530 0.950 . S
H1519 C1531 0.950 . S
C1520 H1512 0.950 . S
C1520 C1521 1.386 . S
C1520 C1522 1.391 . S
C1521 C1520 1.386 . S
C1521 C1525 1.393 . S
C1522 H1514 0.950 . S
C1522 C1520 1.391 . S
C1522 C1523 1.400 . S
C1523 C1522 1.400 . S
C1523 C1524 1.398 . S
C1523 C1529 1.491 . S
C1524 H1515 0.950 . S
C1524 C1523 1.398 . S
C1524 C1525 1.391 . S
C1525 H1513 0.950 . S
C1525 C1521 1.393 . S
C1525 C1524 1.391 . S
C1526 H1516 0.950 . S
C1526 C1527 1.386 . S
C1526 C1528 1.391 . S
C1527 C1526 1.386 . S
C1527 C1531 1.393 . S
C1528 H1517 0.950 . S
C1528 C1526 1.391 . S
C1528 C1529 1.400 . S
C1529 C1523 1.491 . S
C1529 C1528 1.400 . S
C1529 C1530 1.398 . S
C1530 H1518 0.950 . S
C1530 C1529 1.398 . S
C1530 C1531 1.391 . S
C1531 H1519 0.950 . S
C1531 C1527 1.393 . S
C1531 C1530 1.391 . S
H1532 C1540 0.950 . S
H1533 C1545 0.950 . S
H1534 C1542 0.950 . S
H1535 C1544 0.950 . S
H1536 C1546 0.950 . S
H1537 C1548 0.950 . S
H1538 C1550 0.950 . S
H1539 C1551 0.950 . S
C1540 H1532 0.950 . S
C1540 C1541 1.386 . S
C1540 C1542 1.391 . S
C1541 C1540 1.386 . S
C1541 C1545 1.393 . S
C1542 H1534 0.950 . S
C1542 C1540 1.391 . S
C1542 C1543 1.400 . S
C1543 C1542 1.400 . S
C1543 C1544 1.398 . S
C1543 C1549 1.491 . S
C1544 H1535 0.950 . S
C1544 C1543 1.398 . S
C1544 C1545 1.391 . S
C1545 H1533 0.950 . S
C1545 C1541 1.393 . S
C1545 C1544 1.391 . S
C1546 H1536 0.950 . S
C1546 C1547 1.386 . S
C1546 C1548 1.391 . S
C1547 C1546 1.386 . S
C1547 C1551 1.393 . S
C1548 H1537 0.950 . S
C1548 C1546 1.391 . S
C1548 C1549 1.400 . S
C1549 C1543 1.491 . S
C1549 C1548 1.400 . S
C1549 C1550 1.398 . S
C1550 H1538 0.950 . S
C1550 C1549 1.398 . S
C1550 C1551 1.391 . S
C1551 H1539 0.950 . S
C1551 C1547 1.393 . S
C1551 C1550 1.391 . S
H1552 C1560 0.950 . S
H1553 C1565 0.950 . S
H1554 C1562 0.950 . S
H1555 C1564 0.950 . S
H1556 C1566 0.950 . S
H1557 C1568 0.950 . S
H1558 C1570 0.950 . S
H1559 C1571 0.950 . S
C1560 H1552 0.950 . S
C1560 C1561 1.386 . S
C1560 C1562 1.391 . S
C1561 C1560 1.386 . S
C1561 C1565 1.393 . S
C1562 H1554 0.950 . S
C1562 C1560 1.391 . S
C1562 C1563 1.400 . S
C1563 C1562 1.400 . S
C1563 C1564 1.398 . S
C1563 C1569 1.491 . S
C1564 H1555 0.950 . S
C1564 C1563 1.398 . S
C1564 C1565 1.391 . S
C1565 H1553 0.950 . S
C1565 C1561 1.393 . S
C1565 C1564 1.391 . S
C1566 H1556 0.950 . S
C1566 C1567 1.386 . S
C1566 C1568 1.391 . S
C1567 C1566 1.386 . S
C1567 C1571 1.393 . S
C1568 H1557 0.950 . S
C1568 C1566 1.391 . S
C1568 C1569 1.400 . S
C1569 C1563 1.491 . S
C1569 C1568 1.400 . S
C1569 C1570 1.398 . S
C1570 H1558 0.950 . S
C1570 C1569 1.398 . S
C1570 C1571 1.391 . S
C1571 H1559 0.950 . S
C1571 C1567 1.393 . S
C1571 C1570 1.391 . S
H1572 C1580 0.950 . S
H1573 C1585 0.950 . S
H1574 C1582 0.950 . S
H1575 C1584 0.950 . S
H1576 C1586 0.950 . S
H1577 C1588 0.950 . S
H1578 C1590 0.950 . S
H1579 C1591 0.950 . S
C1580 H1572 0.950 . S
C1580 C1581 1.386 . S
C1580 C1582 1.391 . S
C1581 C1580 1.386 . S
C1581 C1585 1.393 . S
C1582 H1574 0.950 . S
C1582 C1580 1.391 . S
C1582 C1583 1.400 . S
C1583 C1582 1.400 . S
C1583 C1584 1.398 . S
C1583 C1589 1.491 . S
C1584 H1575 0.950 . S
C1584 C1583 1.398 . S
C1584 C1585 1.391 . S
C1585 H1573 0.950 . S
C1585 C1581 1.393 . S
C1585 C1584 1.391 . S
C1586 H1576 0.950 . S
C1586 C1587 1.386 . S
C1586 C1588 1.391 . S
C1587 C1586 1.386 . S
C1587 C1591 1.393 . S
C1588 H1577 0.950 . S
C1588 C1586 1.391 . S
C1588 C1589 1.400 . S
C1589 C1583 1.491 . S
C1589 C1588 1.400 . S
C1589 C1590 1.398 . S
C1590 H1578 0.950 . S
C1590 C1589 1.398 . S
C1590 C1591 1.391 . S
C1591 H1579 0.950 . S
C1591 C1587 1.393 . S
C1591 C1590 1.391 . S
H1592 C1600 0.950 . S
H1593 C1605 0.950 . S
H1594 C1602 0.950 . S
H1595 C1604 0.950 . S
H1596 C1606 0.950 . S
H1597 C1608 0.950 . S
H1598 C1610 0.950 . S
H1599 C1611 0.950 . S
C1600 H1592 0.950 . S
C1600 C1601 1.386 . S
C1600 C1602 1.391 . S
C1601 C1600 1.386 . S
C1601 C1605 1.393 . S
C1602 H1594 0.950 . S
C1602 C1600 1.391 . S
C1602 C1603 1.400 . S
C1603 C1602 1.400 . S
C1603 C1604 1.398 . S
C1603 C1609 1.491 . S
C1604 H1595 0.950 . S
C1604 C1603 1.398 . S
C1604 C1605 1.391 . S
C1605 H1593 0.950 . S
C1605 C1601 1.393 . S
C1605 C1604 1.391 . S
C1606 H1596 0.950 . S
C1606 C1607 1.386 . S
C1606 C1608 1.391 . S
C1607 C1606 1.386 . S
C1607 C1611 1.393 . S
C1608 H1597 0.950 . S
C1608 C1606 1.391 . S
C1608 C1609 1.400 . S
C1609 C1603 1.491 . S
C1609 C1608 1.400 . S
C1609 C1610 1.398 . S
C1610 H1598 0.950 . S
C1610 C1609 1.398 . S
C1610 C1611 1.391 . S
C1611 H1599 0.950 . S
C1611 C1607 1.393 . S
C1611 C1610 1.391 . S
H1612 C1620 0.950 . S
H1613 C1625 0.950 . S
H1614 C1622 0.950 . S
H1615 C1624 0.950 . S
H1616 C1626 0.950 . S
H1617 C1628 0.950 . S
H1618 C1630 0.950 . S
H1619 C1631 0.950 . S
C1620 H1612 0.950 . S
C1620 C1621 1.386 . S
C1620 C1622 1.391 . S
C1621 C1620 1.386 . S
C1621 C1625 1.393 . S
C1622 H1614 0.950 . S
C1622 C1620 1.391 . S
C1622 C1623 1.400 . S
C1623 C1622 1.400 . S
C1623 C1624 1.398 . S
C1623 C1629 1.491 . S
C1624 H1615 0.950 . S
C1624 C1623 1.398 . S
C1624 C1625 1.391 . S
C1625 H1613 0.950 . S
C1625 C1621 1.393 . S
C1625 C1624 1.391 . S
C1626 H1616 0.950 . S
C1626 C1627 1.386 . S
C1626 C1628 1.391 . S
C1627 C1626 1.386 . S
C1627 C1631 1.393 . S
C1628 H1617 0.950 . S
C1628 C1626 1.391 . S
C1628 C1629 1.400 . S
C1629 C1623 1.491 . S
C1629 C1628 1.400 . S
C1629 C1630 1.398 . S
C1630 H1618 0.950 . S
C1630 C1629 1.398 . S
C1630 C1631 1.391 . S
C1631 H1619 0.950 . S
C1631 C1627 1.393 . S
C1631 C1630 1.391 . S
H1632 C1640 0.950 . S
H1633 C1645 0.950 . S
H1634 C1642 0.950 . S
H1635 C1644 0.950 . S
H1636 C1646 0.950 . S
H1637 C1648 0.950 . S
H1638 C1650 0.950 . S
H1639 C1651 0.950 . S
C1640 H1632 0.950 . S
C1640 C1641 1.386 . S
C1640 C1642 1.391 . S
C1641 C1640 1.386 . S
C1641 C1645 1.393 . S
C1642 H1634 0.950 . S
C1642 C1640 1.391 . S
C1642 C1643 1.400 . S
C1643 C1642 1.400 . S
C1643 C1644 1.398 . S
C1643 C1649 1.491 . S
C1644 H1635 0.950 . S
C1644 C1643 1.398 . S
C1644 C1645 1.391 . S
C1645 H1633 0.950 . S
C1645 C1641 1.393 . S
C1645 C1644 1.391 . S
C1646 H1636 0.950 . S
C1646 C1647 1.386 . S
C1646 C1648 1.391 . S
C1647 C1646 1.386 . S
C1647 C1651 1.393 . S
C1648 H1637 0.950 . S
C1648 C1646 1.391 . S
C1648 C1649 1.400 . S
C1649 C1643 1.491 . S
C1649 C1648 1.400 . S
C1649 C1650 1.398 . S
C1650 H1638 0.950 . S
C1650 C1649 1.398 . S
C1650 C1651 1.391 . S
C1651 H1639 0.950 . S
C1651 C1647 1.393 . S
C1651 C1650 1.391 . S
H1652 C1660 0.950 . S
H1653 C1665 0.950 . S
H1654 C1662 0.950 . S
H1655 C1664 0.950 . S
H1656 C1666 0.950 . S
H1657 C1668 0.950 . S
H1658 C1670 0.950 . S
H1659 C1671 0.950 . S
C1660 H1652 0.950 . S
C1660 C1661 1.386 . S
C1660 C1662 1.391 . S
C1661 C1660 1.386 . S
C1661 C1665 1.393 . S
C1662 H1654 0.950 . S
C1662 C1660 1.391 . S
C1662 C1663 1.400 . S
C1663 C1662 1.400 . S
C1663 C1664 1.398 . S
C1663 C1669 1.491 . S
C1664 H1655 0.950 . S
C1664 C1663 1.398 . S
C1664 C1665 1.391 . S
C1665 H1653 0.950 . S
C1665 C1661 1.393 . S
C1665 C1664 1.391 . S
C1666 H1656 0.950 . S
C1666 C1667 1.386 . S
C1666 C1668 1.391 . S
C1667 C1666 1.386 . S
C1667 C1671 1.393 . S
C1668 H1657 0.950 . S
C1668 C1666 1.391 . S
C1668 C1669 1.400 . S
C1669 C1663 1.491 . S
C1669 C1668 1.400 . S
C1669 C1670 1.398 . S
C1670 H1658 0.950 . S
C1670 C1669 1.398 . S
C1670 C1671 1.391 . S
C1671 H1659 0.950 . S
C1671 C1667 1.393 . S
C1671 C1670 1.391 . S
H1672 C1680 0.950 . S
H1673 C1685 0.950 . S
H1674 C1682 0.950 . S
H1675 C1684 0.950 . S
H1676 C1686 0.950 . S
H1677 C1688 0.950 . S
H1678 C1690 0.950 . S
H1679 C1691 0.950 . S
C1680 H1672 0.950 . S
C1680 C1681 1.386 . S
C1680 C1682 1.391 . S
C1681 C1680 1.386 . S
C1681 C1685 1.393 . S
C1682 H1674 0.950 . S
C1682 C1680 1.391 . S
C1682 C1683 1.400 . S
C1683 C1682 1.400 . S
C1683 C1684 1.398 . S
C1683 C1689 1.491 . S
C1684 H1675 0.950 . S
C1684 C1683 1.398 . S
C1684 C1685 1.391 . S
C1685 H1673 0.950 . S
C1685 C1681 1.393 . S
C1685 C1684 1.391 . S
C1686 H1676 0.950 . S
C1686 C1687 1.386 . S
C1686 C1688 1.391 . S
C1687 C1686 1.386 . S
C1687 C1691 1.393 . S
C1688 H1677 0.950 . S
C1688 C1686 1.391 . S
C1688 C1689 1.400 . S
C1689 C1683 1.491 . S
C1689 C1688 1.400 . S
C1689 C1690 1.398 . S
C1690 H1678 0.950 . S
C1690 C1689 1.398 . S
C1690 C1691 1.391 . S
C1691 H1679 0.950 . S
C1691 C1687 1.393 . S
C1691 C1690 1.391 . S
H1692 C1700 0.950 . S
H1693 C1705 0.950 . S
H1694 C1702 0.950 . S
H1695 C1704 0.950 . S
H1696 C1706 0.950 . S
H1697 C1708 0.950 . S
H1698 C1710 0.950 . S
H1699 C1711 0.950 . S
C1700 H1692 0.950 . S
C1700 C1701 1.384 . S
C1700 C1702 1.391 . S
C1701 C1700 1.384 . S
C1701 C1705 1.394 1_556 S
C1702 H1694 0.950 . S
C1702 C1700 1.391 . S
C1702 C1703 1.399 . S
C1703 C1702 1.399 . S
C1703 C1704 1.400 1_556 S
C1703 C1709 1.491 1_546 S
C1704 H1695 0.950 . S
C1704 C1703 1.400 1_554 S
C1704 C1705 1.391 . S
C1705 H1693 0.950 . S
C1705 C1701 1.394 1_554 S
C1705 C1704 1.391 . S
C1706 H1696 0.950 . S
C1706 C1707 1.384 . S
C1706 C1708 1.391 . S
C1707 C1706 1.384 . S
C1707 C1711 1.394 1_554 S
C1708 H1697 0.950 . S
C1708 C1706 1.391 . S
C1708 C1709 1.399 . S
C1709 C1703 1.491 1_564 S
C1709 C1708 1.399 . S
C1709 C1710 1.400 1_554 S
C1710 H1698 0.950 . S
C1710 C1709 1.400 1_556 S
C1710 C1711 1.391 . S
C1711 H1699 0.950 . S
C1711 C1707 1.394 1_556 S
C1711 C1710 1.391 . S
H1712 C1720 0.950 . S
H1713 C1725 0.950 . S
H1714 C1722 0.950 . S
H1715 C1724 0.950 . S
H1716 C1726 0.950 . S
H1717 C1728 0.950 . S
H1718 C1730 0.950 . S
H1719 C1731 0.950 . S
C1720 H1712 0.950 . S
C1720 C1721 1.386 . S
C1720 C1722 1.391 . S
C1721 C1720 1.386 . S
C1721 C1725 1.393 . S
C1722 H1714 0.950 . S
C1722 C1720 1.391 . S
C1722 C1723 1.400 . S
C1723 C1722 1.400 . S
C1723 C1724 1.398 . S
C1723 C1729 1.491 . S
C1724 H1715 0.950 . S
C1724 C1723 1.398 . S
C1724 C1725 1.391 . S
C1725 H1713 0.950 . S
C1725 C1721 1.393 . S
C1725 C1724 1.391 . S
C1726 H1716 0.950 . S
C1726 C1727 1.386 . S
C1726 C1728 1.391 . S
C1727 C1726 1.386 . S
C1727 C1731 1.393 . S
C1728 H1717 0.950 . S
C1728 C1726 1.391 . S
C1728 C1729 1.400 . S
C1729 C1723 1.491 . S
C1729 C1728 1.400 . S
C1729 C1730 1.398 . S
C1730 H1718 0.950 . S
C1730 C1729 1.398 . S
C1730 C1731 1.391 . S
C1731 H1719 0.950 . S
C1731 C1727 1.393 . S
C1731 C1730 1.391 . S
H1732 C1740 0.950 . S
H1733 C1745 0.950 . S
H1734 C1742 0.950 . S
H1735 C1744 0.950 . S
H1736 C1746 0.950 . S
H1737 C1748 0.950 . S
H1738 C1750 0.950 . S
H1739 C1751 0.950 . S
C1740 H1732 0.950 . S
C1740 C1741 1.393 . S
C1740 C1742 1.391 . S
C1741 C1740 1.393 . S
C1741 C1745 1.386 1_556 S
C1742 H1734 0.950 . S
C1742 C1740 1.391 . S
C1742 C1743 1.401 . S
C1743 C1742 1.401 . S
C1743 C1744 1.397 1_556 S
C1743 C1749 1.491 1_556 S
C1744 H1735 0.950 . S
C1744 C1743 1.397 1_554 S
C1744 C1745 1.391 . S
C1745 H1733 0.950 . S
C1745 C1741 1.386 1_554 S
C1745 C1744 1.391 . S
C1746 H1736 0.950 . S
C1746 C1747 1.393 . S
C1746 C1748 1.391 . S
C1747 C1746 1.393 . S
C1747 C1751 1.386 1_554 S
C1748 H1737 0.950 . S
C1748 C1746 1.391 . S
C1748 C1749 1.401 . S
C1749 C1743 1.491 1_554 S
C1749 C1748 1.401 . S
C1749 C1750 1.397 1_554 S
C1750 H1738 0.950 . S
C1750 C1749 1.397 1_556 S
C1750 C1751 1.391 . S
C1751 H1739 0.950 . S
C1751 C1747 1.386 1_556 S
C1751 C1750 1.391 . S
H1752 C1760 0.950 . S
H1753 C1765 0.950 . S
H1754 C1762 0.950 . S
H1755 C1764 0.950 . S
H1756 C1766 0.950 . S
H1757 C1768 0.950 . S
H1758 C1770 0.950 . S
H1759 C1771 0.950 . S
C1760 H1752 0.950 . S
C1760 C1761 1.386 . S
C1760 C1762 1.391 . S
C1761 C1760 1.386 . S
C1761 C1765 1.393 . S
C1762 H1754 0.950 . S
C1762 C1760 1.391 . S
C1762 C1763 1.400 . S
C1763 C1762 1.400 . S
C1763 C1764 1.398 . S
C1763 C1769 1.491 . S
C1764 H1755 0.950 . S
C1764 C1763 1.398 . S
C1764 C1765 1.391 . S
C1765 H1753 0.950 . S
C1765 C1761 1.393 . S
C1765 C1764 1.391 . S
C1766 H1756 0.950 . S
C1766 C1767 1.386 . S
C1766 C1768 1.391 . S
C1767 C1766 1.386 . S
C1767 C1771 1.393 . S
C1768 H1757 0.950 . S
C1768 C1766 1.391 . S
C1768 C1769 1.400 . S
C1769 C1763 1.491 . S
C1769 C1768 1.400 . S
C1769 C1770 1.398 . S
C1770 H1758 0.950 . S
C1770 C1769 1.398 . S
C1770 C1771 1.391 . S
C1771 H1759 0.950 . S
C1771 C1767 1.393 . S
C1771 C1770 1.391 . S
H1772 C1780 0.950 . S
H1773 C1785 0.950 . S
H1774 C1782 0.950 . S
H1775 C1784 0.950 . S
H1776 C1786 0.950 . S
H1777 C1788 0.950 . S
H1778 C1790 0.950 . S
H1779 C1791 0.950 . S
C1780 H1772 0.950 . S
C1780 C1781 1.386 . S
C1780 C1782 1.391 . S
C1781 C1780 1.386 . S
C1781 C1785 1.393 . S
C1782 H1774 0.950 . S
C1782 C1780 1.391 . S
C1782 C1783 1.400 . S
C1783 C1782 1.400 . S
C1783 C1784 1.398 . S
C1783 C1789 1.491 1_545 S
C1784 H1775 0.950 . S
C1784 C1783 1.398 . S
C1784 C1785 1.391 . S
C1785 H1773 0.950 . S
C1785 C1781 1.393 . S
C1785 C1784 1.391 . S
C1786 H1776 0.950 . S
C1786 C1787 1.386 . S
C1786 C1788 1.391 . S
C1787 C1786 1.386 . S
C1787 C1791 1.393 . S
C1788 H1777 0.950 . S
C1788 C1786 1.391 . S
C1788 C1789 1.400 . S
C1789 C1783 1.491 1_565 S
C1789 C1788 1.400 . S
C1789 C1790 1.398 . S
C1790 H1778 0.950 . S
C1790 C1789 1.398 . S
C1790 C1791 1.391 . S
C1791 H1779 0.950 . S
C1791 C1787 1.393 . S
C1791 C1790 1.391 . S
H1792 C1800 0.950 . S
H1793 C1805 0.950 . S
H1794 C1802 0.950 . S
H1795 C1804 0.950 . S
H1796 C1806 0.950 . S
H1797 C1808 0.950 . S
H1798 C1810 0.950 . S
H1799 C1811 0.950 . S
C1800 H1792 0.950 . S
C1800 C1801 1.386 . S
C1800 C1802 1.391 . S
C1801 C1800 1.386 . S
C1801 C1805 1.393 . S
C1802 H1794 0.950 . S
C1802 C1800 1.391 . S
C1802 C1803 1.400 . S
C1803 C1802 1.400 . S
C1803 C1804 1.398 . S
C1803 C1809 1.491 . S
C1804 H1795 0.950 . S
C1804 C1803 1.398 . S
C1804 C1805 1.391 . S
C1805 H1793 0.950 . S
C1805 C1801 1.393 . S
C1805 C1804 1.391 . S
C1806 H1796 0.950 . S
C1806 C1807 1.386 . S
C1806 C1808 1.391 . S
C1807 C1806 1.386 . S
C1807 C1811 1.393 . S
C1808 H1797 0.950 . S
C1808 C1806 1.391 . S
C1808 C1809 1.400 . S
C1809 C1803 1.491 . S
C1809 C1808 1.400 . S
C1809 C1810 1.398 . S
C1810 H1798 0.950 . S
C1810 C1809 1.398 . S
C1810 C1811 1.391 . S
C1811 H1799 0.950 . S
C1811 C1807 1.393 . S
C1811 C1810 1.391 . S
H1812 C1820 0.950 . S
H1813 C1825 0.950 . S
H1814 C1822 0.950 . S
H1815 C1824 0.950 . S
H1816 C1826 0.950 . S
H1817 C1828 0.950 . S
H1818 C1830 0.950 . S
H1819 C1831 0.950 . S
C1820 H1812 0.950 . S
C1820 C1821 1.386 . S
C1820 C1822 1.391 . S
C1821 C1820 1.386 . S
C1821 C1825 1.393 . S
C1822 H1814 0.950 . S
C1822 C1820 1.391 . S
C1822 C1823 1.400 . S
C1823 C1822 1.400 . S
C1823 C1824 1.398 . S
C1823 C1829 1.491 1_455 S
C1824 H1815 0.950 . S
C1824 C1823 1.398 . S
C1824 C1825 1.391 . S
C1825 H1813 0.950 . S
C1825 C1821 1.393 . S
C1825 C1824 1.391 . S
C1826 H1816 0.950 . S
C1826 C1827 1.386 . S
C1826 C1828 1.391 . S
C1827 C1826 1.386 . S
C1827 C1831 1.393 . S
C1828 H1817 0.950 . S
C1828 C1826 1.391 . S
C1828 C1829 1.400 . S
C1829 C1823 1.491 1_655 S
C1829 C1828 1.400 . S
C1829 C1830 1.398 . S
C1830 H1818 0.950 . S
C1830 C1829 1.398 . S
C1830 C1831 1.391 . S
C1831 H1819 0.950 . S
C1831 C1827 1.393 . S
C1831 C1830 1.391 . S
H1832 C1840 0.950 . S
H1833 C1845 0.950 . S
H1834 C1842 0.950 . S
H1835 C1844 0.950 . S
H1836 C1846 0.950 . S
H1837 C1848 0.950 . S
H1838 C1850 0.950 . S
H1839 C1851 0.950 . S
C1840 H1832 0.950 . S
C1840 C1841 1.386 . S
C1840 C1842 1.391 . S
C1841 C1840 1.386 . S
C1841 C1845 1.393 . S
C1842 H1834 0.950 . S
C1842 C1840 1.391 . S
C1842 C1843 1.400 . S
C1843 C1842 1.400 . S
C1843 C1844 1.398 . S
C1843 C1849 1.491 . S
C1844 H1835 0.950 . S
C1844 C1843 1.398 . S
C1844 C1845 1.391 . S
C1845 H1833 0.950 . S
C1845 C1841 1.393 . S
C1845 C1844 1.391 . S
C1846 H1836 0.950 . S
C1846 C1847 1.386 . S
C1846 C1848 1.391 . S
C1847 C1846 1.386 . S
C1847 C1851 1.393 . S
C1848 H1837 0.950 . S
C1848 C1846 1.391 . S
C1848 C1849 1.400 . S
C1849 C1843 1.491 . S
C1849 C1848 1.400 . S
C1849 C1850 1.398 . S
C1850 H1838 0.950 . S
C1850 C1849 1.398 . S
C1850 C1851 1.391 . S
C1851 H1839 0.950 . S
C1851 C1847 1.393 . S
C1851 C1850 1.391 . S
H1852 C1860 0.950 . S
H1853 C1865 0.950 . S
H1854 C1862 0.950 . S
H1855 C1864 0.950 . S
H1856 C1866 0.950 . S
H1857 C1868 0.950 . S
H1858 C1870 0.950 . S
H1859 C1871 0.950 . S
C1860 H1852 0.950 . S
C1860 C1861 1.370 1_565 S
C1860 C1862 1.391 . S
C1861 C1860 1.370 1_545 S
C1861 C1865 1.410 . S
C1862 H1854 0.950 . S
C1862 C1860 1.391 . S
C1862 C1863 1.393 1_565 S
C1863 C1862 1.393 1_545 S
C1863 C1864 1.406 . S
C1863 C1869 1.490 1_645 S
C1864 H1855 0.950 . S
C1864 C1863 1.406 . S
C1864 C1865 1.391 . S
C1865 H1853 0.950 . S
C1865 C1861 1.410 . S
C1865 C1864 1.391 . S
C1866 H1856 0.950 . S
C1866 C1867 1.370 1_545 S
C1866 C1868 1.391 . S
C1867 C1866 1.370 1_565 S
C1867 C1871 1.410 . S
C1868 H1857 0.950 . S
C1868 C1866 1.391 . S
C1868 C1869 1.393 1_545 S
C1869 C1863 1.490 1_465 S
C1869 C1868 1.393 1_565 S
C1869 C1870 1.406 . S
C1870 H1858 0.950 . S
C1870 C1869 1.406 . S
C1870 C1871 1.391 . S
C1871 H1859 0.950 . S
C1871 C1867 1.410 . S
C1871 C1870 1.391 . S
H1872 C1880 0.950 . S
H1873 C1885 0.950 . S
H1874 C1882 0.950 . S
H1875 C1884 0.950 . S
H1876 C1886 0.950 . S
H1877 C1888 0.950 . S
H1878 C1890 0.950 . S
H1879 C1891 0.950 . S
C1880 H1872 0.950 . S
C1880 C1881 1.386 . S
C1880 C1882 1.391 . S
C1881 C1880 1.386 . S
C1881 C1885 1.393 . S
C1882 H1874 0.950 . S
C1882 C1880 1.391 . S
C1882 C1883 1.400 . S
C1883 C1882 1.400 . S
C1883 C1884 1.398 . S
C1883 C1889 1.491 . S
C1884 H1875 0.950 . S
C1884 C1883 1.398 . S
C1884 C1885 1.391 . S
C1885 H1873 0.950 . S
C1885 C1881 1.393 . S
C1885 C1884 1.391 . S
C1886 H1876 0.950 . S
C1886 C1887 1.386 . S
C1886 C1888 1.391 . S
C1887 C1886 1.386 . S
C1887 C1891 1.393 . S
C1888 H1877 0.950 . S
C1888 C1886 1.391 . S
C1888 C1889 1.400 . S
C1889 C1883 1.491 . S
C1889 C1888 1.400 . S
C1889 C1890 1.398 . S
C1890 H1878 0.950 . S
C1890 C1889 1.398 . S
C1890 C1891 1.391 . S
C1891 H1879 0.950 . S
C1891 C1887 1.393 . S
C1891 C1890 1.391 . S
H1892 C1900 0.950 . S
H1893 C1905 0.950 . S
H1894 C1902 0.950 . S
H1895 C1904 0.950 . S
H1896 C1906 0.950 . S
H1897 C1908 0.950 . S
H1898 C1910 0.950 . S
H1899 C1911 0.950 . S
C1900 H1892 0.950 . S
C1900 C1901 1.386 . S
C1900 C1902 1.391 . S
C1901 C1900 1.386 . S
C1901 C1905 1.393 . S
C1902 H1894 0.950 . S
C1902 C1900 1.391 . S
C1902 C1903 1.400 . S
C1903 C1902 1.400 . S
C1903 C1904 1.398 . S
C1903 C1909 1.491 . S
C1904 H1895 0.950 . S
C1904 C1903 1.398 . S
C1904 C1905 1.391 . S
C1905 H1893 0.950 . S
C1905 C1901 1.393 . S
C1905 C1904 1.391 . S
C1906 H1896 0.950 . S
C1906 C1907 1.386 . S
C1906 C1908 1.391 . S
C1907 C1906 1.386 . S
C1907 C1911 1.393 . S
C1908 H1897 0.950 . S
C1908 C1906 1.391 . S
C1908 C1909 1.400 . S
C1909 C1903 1.491 . S
C1909 C1908 1.400 . S
C1909 C1910 1.398 . S
C1910 H1898 0.950 . S
C1910 C1909 1.398 . S
C1910 C1911 1.391 . S
C1911 H1899 0.950 . S
C1911 C1907 1.393 . S
C1911 C1910 1.391 . S
H1912 C1920 0.905 1_554 S
H1913 C1925 0.950 . S
H1914 C1922 0.907 1_554 S
H1915 C1924 0.950 . S
H1916 C1926 0.950 . S
H1917 C1928 0.950 . S
H1918 C1930 0.916 1_554 S
H1919 C1931 0.923 1_554 S
C1920 H1912 0.905 1_556 S
C1920 C1921 1.431 . S
C1920 C1922 1.391 . S
C1921 C1920 1.431 . S
C1921 C1925 1.393 . S
C1922 H1914 0.907 1_556 S
C1922 C1920 1.391 . S
C1922 C1923 1.442 . S
C1923 C1922 1.442 . S
C1923 C1924 1.398 . S
C1923 C1929 1.491 . S
C1924 H1915 0.950 . S
C1924 C1923 1.398 . S
C1924 C1925 1.391 . S
C1925 H1913 0.950 . S
C1925 C1921 1.393 . S
C1925 C1924 1.391 . S
C1926 H1916 0.950 . S
C1926 C1927 1.386 . S
C1926 C1928 1.391 . S
C1927 C1926 1.386 . S
C1927 C1931 1.420 . S
C1928 H1917 0.950 . S
C1928 C1926 1.391 . S
C1928 C1929 1.400 . S
C1929 C1923 1.491 . S
C1929 C1928 1.400 . S
C1929 C1930 1.432 . S
C1930 H1918 0.916 1_556 S
C1930 C1929 1.432 . S
C1930 C1931 1.391 . S
C1931 H1919 0.923 1_556 S
C1931 C1927 1.420 . S
C1931 C1930 1.391 . S
H1932 C1940 0.950 . S
H1933 C1945 0.950 . S
H1934 C1942 0.950 . S
H1935 C1944 0.950 . S
H1936 C1946 0.950 . S
H1937 C1948 0.950 . S
H1938 C1950 0.950 . S
H1939 C1951 0.950 . S
C1940 H1932 0.950 . S
C1940 C1941 1.378 1_565 S
C1940 C1942 1.391 . S
C1941 C1940 1.378 1_545 S
C1941 C1945 1.400 . S
C1942 H1934 0.950 . S
C1942 C1940 1.391 . S
C1942 C1943 1.401 1_565 S
C1943 C1942 1.401 1_545 S
C1943 C1944 1.398 . S
C1943 C1949 1.491 1_545 S
C1944 H1935 0.950 . S
C1944 C1943 1.398 . S
C1944 C1945 1.391 . S
C1945 H1933 0.950 . S
C1945 C1941 1.400 . S
C1945 C1944 1.391 . S
C1946 H1936 0.950 . S
C1946 C1947 1.379 1_545 S
C1946 C1948 1.391 . S
C1947 C1946 1.379 1_565 S
C1947 C1951 1.400 . S
C1948 H1937 0.950 . S
C1948 C1946 1.391 . S
C1948 C1949 1.401 1_545 S
C1949 C1943 1.491 1_565 S
C1949 C1948 1.401 1_565 S
C1949 C1950 1.398 . S
C1950 H1938 0.950 . S
C1950 C1949 1.398 . S
C1950 C1951 1.391 . S
C1951 H1939 0.950 . S
C1951 C1947 1.400 . S
C1951 C1950 1.391 . S
H1952 C1960 0.950 . S
H1953 C1965 0.950 . S
H1954 C1962 0.950 . S
H1955 C1964 0.950 . S
H1956 C1966 0.950 . S
H1957 C1968 0.950 . S
H1958 C1970 0.950 . S
H1959 C1971 0.950 . S
C1960 H1952 0.950 . S
C1960 C1961 1.386 . S
C1960 C1962 1.391 . S
C1961 C1960 1.386 . S
C1961 C1965 1.393 . S
C1962 H1954 0.950 . S
C1962 C1960 1.391 . S
C1962 C1963 1.400 . S
C1963 C1962 1.400 . S
C1963 C1964 1.398 . S
C1963 C1969 1.491 . S
C1964 H1955 0.950 . S
C1964 C1963 1.398 . S
C1964 C1965 1.391 . S
C1965 H1953 0.950 . S
C1965 C1961 1.393 . S
C1965 C1964 1.391 . S
C1966 H1956 0.950 . S
C1966 C1967 1.386 . S
C1966 C1968 1.391 . S
C1967 C1966 1.386 . S
C1967 C1971 1.393 . S
C1968 H1957 0.950 . S
C1968 C1966 1.391 . S
C1968 C1969 1.400 . S
C1969 C1963 1.491 . S
C1969 C1968 1.400 . S
C1969 C1970 1.398 . S
C1970 H1958 0.950 . S
C1970 C1969 1.398 . S
C1970 C1971 1.391 . S
C1971 H1959 0.950 . S
C1971 C1967 1.393 . S
C1971 C1970 1.391 . S
H1972 C1980 0.950 1_655 S
H1973 C1985 0.950 . S
H1974 C1982 0.950 1_655 S
H1975 C1984 0.950 . S
H1976 C1986 0.950 . S
H1977 C1988 0.950 . S
H1978 C1990 0.950 1_655 S
H1979 C1991 0.950 1_655 S
C1980 H1972 0.950 1_455 S
C1980 C1981 1.386 . S
C1980 C1982 1.391 . S
C1981 C1980 1.386 . S
C1981 C1985 1.393 . S
C1982 H1974 0.950 1_455 S
C1982 C1980 1.391 . S
C1982 C1983 1.400 . S
C1983 C1982 1.400 . S
C1983 C1984 1.398 . S
C1983 C1989 1.491 . S
C1984 H1975 0.950 . S
C1984 C1983 1.398 . S
C1984 C1985 1.391 . S
C1985 H1973 0.950 . S
C1985 C1981 1.393 . S
C1985 C1984 1.391 . S
C1986 H1976 0.950 . S
C1986 C1987 1.386 . S
C1986 C1988 1.391 . S
C1987 C1986 1.386 . S
C1987 C1991 1.393 . S
C1988 H1977 0.950 . S
C1988 C1986 1.391 . S
C1988 C1989 1.400 . S
C1989 C1983 1.491 . S
C1989 C1988 1.400 . S
C1989 C1990 1.398 . S
C1990 H1978 0.950 1_455 S
C1990 C1989 1.398 . S
C1990 C1991 1.391 . S
C1991 H1979 0.950 1_455 S
C1991 C1987 1.393 . S
C1991 C1990 1.391 . S
H1992 C2000 0.950 . S
H1993 C2005 0.950 . S
H1994 C2002 0.950 . S
H1995 C2004 0.950 . S
H1996 C2006 0.950 . S
H1997 C2008 0.950 . S
H1998 C2010 0.950 . S
H1999 C2011 0.950 . S
C2000 H1992 0.950 . S
C2000 C2001 1.386 . S
C2000 C2002 1.391 . S
C2001 C2000 1.386 . S
C2001 C2005 1.393 . S
C2002 H1994 0.950 . S
C2002 C2000 1.391 . S
C2002 C2003 1.400 . S
C2003 C2002 1.400 . S
C2003 C2004 1.398 . S
C2003 C2009 1.491 . S
C2004 H1995 0.950 . S
C2004 C2003 1.398 . S
C2004 C2005 1.391 . S
C2005 H1993 0.950 . S
C2005 C2001 1.393 . S
C2005 C2004 1.391 . S
C2006 H1996 0.950 . S
C2006 C2007 1.386 . S
C2006 C2008 1.391 . S
C2007 C2006 1.386 . S
C2007 C2011 1.393 . S
C2008 H1997 0.950 . S
C2008 C2006 1.391 . S
C2008 C2009 1.400 . S
C2009 C2003 1.491 . S
C2009 C2008 1.400 . S
C2009 C2010 1.398 . S
C2010 H1998 0.950 . S
C2010 C2009 1.398 . S
C2010 C2011 1.391 . S
C2011 H1999 0.950 . S
C2011 C2007 1.393 . S
C2011 C2010 1.391 . S
H2012 C2020 0.946 1_455 S
H2013 C2025 0.950 . S
H2014 C2022 0.952 . S
H2015 C2024 0.950 . S
H2016 C2026 0.950 . S
H2017 C2028 0.950 . S
H2018 C2030 0.950 . S
H2019 C2031 0.950 . S
C2020 H2012 0.946 1_655 S
C2020 C2021 1.386 . S
C2020 C2022 1.391 . S
C2021 C2020 1.386 . S
C2021 C2025 1.393 . S
C2022 H2014 0.952 . S
C2022 C2020 1.391 . S
C2022 C2023 1.400 . S
C2023 C2022 1.400 . S
C2023 C2024 1.398 . S
C2023 C2029 1.491 . S
C2024 H2015 0.950 . S
C2024 C2023 1.398 . S
C2024 C2025 1.391 . S
C2025 H2013 0.950 . S
C2025 C2021 1.393 . S
C2025 C2024 1.391 . S
C2026 H2016 0.950 . S
C2026 C2027 1.386 . S
C2026 C2028 1.391 . S
C2027 C2026 1.386 . S
C2027 C2031 1.393 . S
C2028 H2017 0.950 . S
C2028 C2026 1.391 . S
C2028 C2029 1.400 . S
C2029 C2023 1.491 . S
C2029 C2028 1.400 . S
C2029 C2030 1.398 . S
C2030 H2018 0.950 . S
C2030 C2029 1.398 . S
C2030 C2031 1.391 . S
C2031 H2019 0.950 . S
C2031 C2027 1.393 . S
C2031 C2030 1.391 . S
H2032 C2040 0.950 . S
H2033 C2045 0.950 . S
H2034 C2042 0.950 . S
H2035 C2044 0.950 . S
H2036 C2046 0.950 . S
H2037 C2048 0.950 . S
H2038 C2050 0.950 . S
H2039 C2051 0.950 . S
C2040 H2032 0.950 . S
C2040 C2041 1.364 1_655 S
C2040 C2042 1.391 . S
C2041 C2040 1.364 1_455 S
C2041 C2045 1.415 . S
C2042 H2034 0.950 . S
C2042 C2040 1.391 . S
C2042 C2043 1.392 1_655 S
C2043 C2042 1.392 1_455 S
C2043 C2044 1.406 . S
C2043 C2049 1.490 1_456 S
C2044 H2035 0.950 . S
C2044 C2043 1.406 . S
C2044 C2045 1.391 . S
C2045 H2033 0.950 . S
C2045 C2041 1.415 . S
C2045 C2044 1.391 . S
C2046 H2036 0.950 . S
C2046 C2047 1.364 1_455 S
C2046 C2048 1.391 . S
C2047 C2046 1.364 1_655 S
C2047 C2051 1.415 . S
C2048 H2037 0.950 . S
C2048 C2046 1.391 . S
C2048 C2049 1.392 1_455 S
C2049 C2043 1.490 1_654 S
C2049 C2048 1.392 1_655 S
C2049 C2050 1.406 . S
C2050 H2038 0.950 . S
C2050 C2049 1.406 . S
C2050 C2051 1.391 . S
C2051 H2039 0.950 . S
C2051 C2047 1.415 . S
C2051 C2050 1.391 . S
H2052 C2060 0.950 . S
H2053 C2065 0.950 . S
H2054 C2062 0.950 . S
H2055 C2064 0.950 . S
H2056 C2066 0.950 . S
H2057 C2068 0.950 . S
H2058 C2070 0.950 . S
H2059 C2071 0.950 . S
C2060 H2052 0.950 . S
C2060 C2061 1.386 . S
C2060 C2062 1.391 . S
C2061 C2060 1.386 . S
C2061 C2065 1.393 . S
C2062 H2054 0.950 . S
C2062 C2060 1.391 . S
C2062 C2063 1.400 . S
C2063 C2062 1.400 . S
C2063 C2064 1.398 . S
C2063 C2069 1.491 . S
C2064 H2055 0.950 . S
C2064 C2063 1.398 . S
C2064 C2065 1.391 . S
C2065 H2053 0.950 . S
C2065 C2061 1.393 . S
C2065 C2064 1.391 . S
C2066 H2056 0.950 . S
C2066 C2067 1.386 . S
C2066 C2068 1.391 . S
C2067 C2066 1.386 . S
C2067 C2071 1.393 . S
C2068 H2057 0.950 . S
C2068 C2066 1.391 . S
C2068 C2069 1.400 . S
C2069 C2063 1.491 . S
C2069 C2068 1.400 . S
C2069 C2070 1.398 . S
C2070 H2058 0.950 . S
C2070 C2069 1.398 . S
C2070 C2071 1.391 . S
C2071 H2059 0.950 . S
C2071 C2067 1.393 . S
C2071 C2070 1.391 . S
H2072 C2080 0.950 . S
H2073 C2085 0.950 . S
H2074 C2082 0.950 . S
H2075 C2084 0.950 . S
H2076 C2086 0.950 . S
H2077 C2088 0.950 . S
H2078 C2090 0.950 . S
H2079 C2091 0.950 . S
C2080 H2072 0.950 . S
C2080 C2081 1.386 . S
C2080 C2082 1.391 . S
C2081 C2080 1.386 . S
C2081 C2085 1.393 . S
C2082 H2074 0.950 . S
C2082 C2080 1.391 . S
C2082 C2083 1.400 . S
C2083 C2082 1.400 . S
C2083 C2084 1.398 . S
C2083 C2089 1.491 1_554 S
C2084 H2075 0.950 . S
C2084 C2083 1.398 . S
C2084 C2085 1.391 . S
C2085 H2073 0.950 . S
C2085 C2081 1.393 . S
C2085 C2084 1.391 . S
C2086 H2076 0.950 . S
C2086 C2087 1.386 . S
C2086 C2088 1.391 . S
C2087 C2086 1.386 . S
C2087 C2091 1.393 . S
C2088 H2077 0.950 . S
C2088 C2086 1.391 . S
C2088 C2089 1.400 . S
C2089 C2083 1.491 1_556 S
C2089 C2088 1.400 . S
C2089 C2090 1.398 . S
C2090 H2078 0.950 . S
C2090 C2089 1.398 . S
C2090 C2091 1.391 . S
C2091 H2079 0.950 . S
C2091 C2087 1.393 . S
C2091 C2090 1.391 . S
H2092 C2100 0.950 1_565 S
H2093 C2105 0.950 . S
H2094 C2102 0.950 1_565 S
H2095 C2104 0.950 . S
H2096 C2106 0.950 . S
H2097 C2108 0.950 . S
H2098 C2110 0.950 1_565 S
H2099 C2111 0.950 1_565 S
C2100 H2092 0.950 1_545 S
C2100 C2101 1.386 . S
C2100 C2102 1.391 . S
C2101 C2100 1.386 . S
C2101 C2105 1.393 . S
C2102 H2094 0.950 1_545 S
C2102 C2100 1.391 . S
C2102 C2103 1.400 . S
C2103 C2102 1.400 . S
C2103 C2104 1.398 . S
C2103 C2109 1.491 . S
C2104 H2095 0.950 . S
C2104 C2103 1.398 . S
C2104 C2105 1.391 . S
C2105 H2093 0.950 . S
C2105 C2101 1.393 . S
C2105 C2104 1.391 . S
C2106 H2096 0.950 . S
C2106 C2107 1.386 . S
C2106 C2108 1.391 . S
C2107 C2106 1.386 . S
C2107 C2111 1.393 . S
C2108 H2097 0.950 . S
C2108 C2106 1.391 . S
C2108 C2109 1.400 . S
C2109 C2103 1.491 . S
C2109 C2108 1.400 . S
C2109 C2110 1.398 . S
C2110 H2098 0.950 1_545 S
C2110 C2109 1.398 . S
C2110 C2111 1.391 . S
C2111 H2099 0.950 1_545 S
C2111 C2107 1.393 . S
C2111 C2110 1.391 . S
H2112 C2120 0.949 1_554 S
H2113 C2125 0.950 . S
H2114 C2122 0.949 . S
H2115 C2124 0.950 . S
H2116 C2126 0.949 1_556 S
H2117 C2128 0.949 . S
H2118 C2130 0.950 . S
H2119 C2131 0.950 . S
C2120 H2112 0.949 1_556 S
C2120 C2121 1.385 . S
C2120 C2122 1.391 1_556 S
C2121 C2120 1.385 . S
C2121 C2125 1.396 . S
C2122 H2114 0.949 . S
C2122 C2120 1.391 1_554 S
C2122 C2123 1.400 1_554 S
C2123 C2122 1.400 1_556 S
C2123 C2124 1.400 . S
C2123 C2129 1.490 1_546 S
C2124 H2115 0.950 . S
C2124 C2123 1.400 . S
C2124 C2125 1.391 . S
C2125 H2113 0.950 . S
C2125 C2121 1.396 . S
C2125 C2124 1.391 . S
C2126 H2116 0.949 1_554 S
C2126 C2127 1.385 . S
C2126 C2128 1.391 1_554 S
C2127 C2126 1.385 . S
C2127 C2131 1.396 . S
C2128 H2117 0.949 . S
C2128 C2126 1.391 1_556 S
C2128 C2129 1.400 1_556 S
C2129 C2123 1.490 1_564 S
C2129 C2128 1.400 1_554 S
C2129 C2130 1.400 . S
C2130 H2118 0.950 . S
C2130 C2129 1.400 . S
C2130 C2131 1.391 . S
C2131 H2119 0.950 . S
C2131 C2127 1.396 . S
C2131 C2130 1.391 . S
H2132 C2140 0.950 . S
H2133 C2145 0.950 . S
H2134 C2142 0.950 . S
H2135 C2144 0.950 . S
H2136 C2146 0.950 . S
H2137 C2148 0.950 . S
H2138 C2150 0.950 . S
H2139 C2151 0.950 . S
C2140 H2132 0.950 . S
C2140 C2141 1.386 . S
C2140 C2142 1.391 . S
C2141 C2140 1.386 . S
C2141 C2145 1.393 . S
C2142 H2134 0.950 . S
C2142 C2140 1.391 . S
C2142 C2143 1.400 . S
C2143 C2142 1.400 . S
C2143 C2144 1.398 . S
C2143 C2149 1.491 . S
C2144 H2135 0.950 . S
C2144 C2143 1.398 . S
C2144 C2145 1.391 . S
C2145 H2133 0.950 . S
C2145 C2141 1.393 . S
C2145 C2144 1.391 . S
C2146 H2136 0.950 . S
C2146 C2147 1.386 . S
C2146 C2148 1.391 . S
C2147 C2146 1.386 . S
C2147 C2151 1.393 . S
C2148 H2137 0.950 . S
C2148 C2146 1.391 . S
C2148 C2149 1.400 . S
C2149 C2143 1.491 . S
C2149 C2148 1.400 . S
C2149 C2150 1.398 . S
C2150 H2138 0.950 . S
C2150 C2149 1.398 . S
C2150 C2151 1.391 . S
C2151 H2139 0.950 . S
C2151 C2147 1.393 . S
C2151 C2150 1.391 . S
H2152 C2160 0.950 . S
H2153 C2165 0.950 . S
H2154 C2162 0.950 . S
H2155 C2164 0.950 . S
H2156 C2166 0.950 . S
H2157 C2168 0.950 . S
H2158 C2170 0.950 . S
H2159 C2171 0.950 . S
C2160 H2152 0.950 . S
C2160 C2161 1.386 . S
C2160 C2162 1.391 . S
C2161 C2160 1.386 . S
C2161 C2165 1.393 . S
C2162 H2154 0.950 . S
C2162 C2160 1.391 . S
C2162 C2163 1.400 . S
C2163 C2162 1.400 . S
C2163 C2164 1.398 . S
C2163 C2169 1.491 . S
C2164 H2155 0.950 . S
C2164 C2163 1.398 . S
C2164 C2165 1.391 . S
C2165 H2153 0.950 . S
C2165 C2161 1.393 . S
C2165 C2164 1.391 . S
C2166 H2156 0.950 . S
C2166 C2167 1.386 . S
C2166 C2168 1.391 . S
C2167 C2166 1.386 . S
C2167 C2171 1.393 . S
C2168 H2157 0.950 . S
C2168 C2166 1.391 . S
C2168 C2169 1.400 . S
C2169 C2163 1.491 . S
C2169 C2168 1.400 . S
C2169 C2170 1.398 . S
C2170 H2158 0.950 . S
C2170 C2169 1.398 . S
C2170 C2171 1.391 . S
C2171 H2159 0.950 . S
C2171 C2167 1.393 . S
C2171 C2170 1.391 . S
H2172 C2180 0.950 . S
H2173 C2185 0.950 1_545 S
H2174 C2182 0.950 . S
H2175 C2184 0.950 1_545 S
H2176 C2186 0.950 1_545 S
H2177 C2188 0.950 1_545 S
H2178 C2190 0.950 . S
H2179 C2191 0.950 . S
C2180 H2172 0.950 . S
C2180 C2181 1.386 . S
C2180 C2182 1.391 . S
C2181 C2180 1.386 . S
C2181 C2185 1.393 . S
C2182 H2174 0.950 . S
C2182 C2180 1.391 . S
C2182 C2183 1.400 . S
C2183 C2182 1.400 . S
C2183 C2184 1.398 . S
C2183 C2189 1.491 . S
C2184 H2175 0.950 1_565 S
C2184 C2183 1.398 . S
C2184 C2185 1.391 . S
C2185 H2173 0.950 1_565 S
C2185 C2181 1.393 . S
C2185 C2184 1.391 . S
C2186 H2176 0.950 1_565 S
C2186 C2187 1.386 . S
C2186 C2188 1.391 . S
C2187 C2186 1.386 . S
C2187 C2191 1.393 . S
C2188 H2177 0.950 1_565 S
C2188 C2186 1.391 . S
C2188 C2189 1.400 . S
C2189 C2183 1.491 . S
C2189 C2188 1.400 . S
C2189 C2190 1.398 . S
C2190 H2178 0.950 . S
C2190 C2189 1.398 . S
C2190 C2191 1.391 . S
C2191 H2179 0.950 . S
C2191 C2187 1.393 . S
C2191 C2190 1.391 . S
H2192 C2200 0.950 . S
H2193 C2205 0.950 . S
H2194 C2202 0.950 . S
H2195 C2204 0.950 . S
H2196 C2206 0.950 . S
H2197 C2208 0.950 . S
H2198 C2210 0.950 . S
H2199 C2211 0.950 . S
C2200 H2192 0.950 . S
C2200 C2201 1.386 . S
C2200 C2202 1.391 . S
C2201 C2200 1.386 . S
C2201 C2205 1.393 . S
C2202 H2194 0.950 . S
C2202 C2200 1.391 . S
C2202 C2203 1.400 . S
C2203 C2202 1.400 . S
C2203 C2204 1.398 . S
C2203 C2209 1.491 1_545 S
C2204 H2195 0.950 . S
C2204 C2203 1.398 . S
C2204 C2205 1.391 . S
C2205 H2193 0.950 . S
C2205 C2201 1.393 . S
C2205 C2204 1.391 . S
C2206 H2196 0.950 . S
C2206 C2207 1.386 . S
C2206 C2208 1.391 . S
C2207 C2206 1.386 . S
C2207 C2211 1.393 . S
C2208 H2197 0.950 . S
C2208 C2206 1.391 . S
C2208 C2209 1.400 . S
C2209 C2203 1.491 1_565 S
C2209 C2208 1.400 . S
C2209 C2210 1.398 . S
C2210 H2198 0.950 . S
C2210 C2209 1.398 . S
C2210 C2211 1.391 . S
C2211 H2199 0.950 . S
C2211 C2207 1.393 . S
C2211 C2210 1.391 . S
H2212 C2220 0.950 . S
H2213 C2225 0.950 . S
H2214 C2222 0.950 . S
H2215 C2224 0.950 . S
H2216 C2226 0.950 . S
H2217 C2228 0.950 . S
H2218 C2230 0.950 . S
H2219 C2231 0.950 . S
C2220 H2212 0.950 . S
C2220 C2221 1.386 . S
C2220 C2222 1.391 . S
C2221 C2220 1.386 . S
C2221 C2225 1.393 . S
C2222 H2214 0.950 . S
C2222 C2220 1.391 . S
C2222 C2223 1.400 . S
C2223 C2222 1.400 . S
C2223 C2224 1.398 . S
C2223 C2229 1.491 . S
C2224 H2215 0.950 . S
C2224 C2223 1.398 . S
C2224 C2225 1.391 . S
C2225 H2213 0.950 . S
C2225 C2221 1.393 . S
C2225 C2224 1.391 . S
C2226 H2216 0.950 . S
C2226 C2227 1.386 . S
C2226 C2228 1.391 . S
C2227 C2226 1.386 . S
C2227 C2231 1.393 . S
C2228 H2217 0.950 . S
C2228 C2226 1.391 . S
C2228 C2229 1.400 . S
C2229 C2223 1.491 . S
C2229 C2228 1.400 . S
C2229 C2230 1.398 . S
C2230 H2218 0.950 . S
C2230 C2229 1.398 . S
C2230 C2231 1.391 . S
C2231 H2219 0.950 . S
C2231 C2227 1.393 . S
C2231 C2230 1.391 . S
H2232 C2240 0.950 . S
H2233 C2245 0.950 . S
H2234 C2242 0.950 . S
H2235 C2244 0.950 . S
H2236 C2246 0.950 . S
H2237 C2248 0.950 . S
H2238 C2250 0.950 . S
H2239 C2251 0.950 . S
C2240 H2232 0.950 . S
C2240 C2241 1.375 1_554 S
C2240 C2242 1.391 . S
C2241 C2240 1.375 1_556 S
C2241 C2245 1.405 . S
C2242 H2234 0.950 . S
C2242 C2240 1.391 . S
C2242 C2243 1.395 1_554 S
C2243 C2242 1.395 1_556 S
C2243 C2244 1.404 . S
C2243 C2249 1.490 1_556 S
C2244 H2235 0.950 . S
C2244 C2243 1.404 . S
C2244 C2245 1.391 . S
C2245 H2233 0.950 . S
C2245 C2241 1.405 . S
C2245 C2244 1.391 . S
C2246 H2236 0.950 . S
C2246 C2247 1.375 1_556 S
C2246 C2248 1.391 . S
C2247 C2246 1.375 1_554 S
C2247 C2251 1.405 . S
C2248 H2237 0.950 . S
C2248 C2246 1.391 . S
C2248 C2249 1.395 1_556 S
C2249 C2243 1.490 1_554 S
C2249 C2248 1.395 1_554 S
C2249 C2250 1.404 . S
C2250 H2238 0.950 . S
C2250 C2249 1.404 . S
C2250 C2251 1.391 . S
C2251 H2239 0.950 . S
C2251 C2247 1.405 . S
C2251 C2250 1.391 . S
H2252 C2260 0.950 . S
H2253 C2265 0.950 . S
H2254 C2262 0.950 . S
H2255 C2264 0.950 . S
H2256 C2266 0.950 . S
H2257 C2268 0.950 . S
H2258 C2270 0.950 . S
H2259 C2271 0.950 . S
C2260 H2252 0.950 . S
C2260 C2261 1.386 . S
C2260 C2262 1.391 . S
C2261 C2260 1.386 . S
C2261 C2265 1.393 . S
C2262 H2254 0.950 . S
C2262 C2260 1.391 . S
C2262 C2263 1.400 . S
C2263 C2262 1.400 . S
C2263 C2264 1.398 . S
C2263 C2269 1.491 . S
C2264 H2255 0.950 . S
C2264 C2263 1.398 . S
C2264 C2265 1.391 . S
C2265 H2253 0.950 . S
C2265 C2261 1.393 . S
C2265 C2264 1.391 . S
C2266 H2256 0.950 . S
C2266 C2267 1.386 . S
C2266 C2268 1.391 . S
C2267 C2266 1.386 . S
C2267 C2271 1.393 . S
C2268 H2257 0.950 . S
C2268 C2266 1.391 . S
C2268 C2269 1.400 . S
C2269 C2263 1.491 . S
C2269 C2268 1.400 . S
C2269 C2270 1.398 . S
C2270 H2258 0.950 . S
C2270 C2269 1.398 . S
C2270 C2271 1.391 . S
C2271 H2259 0.950 . S
C2271 C2267 1.393 . S
C2271 C2270 1.391 . S
H2272 C2280 0.950 . S
H2273 C2285 0.950 . S
H2274 C2282 0.950 . S
H2275 C2284 0.950 . S
H2276 C2286 0.950 . S
H2277 C2288 0.950 . S
H2278 C2290 0.950 . S
H2279 C2291 0.950 . S
C2280 H2272 0.950 . S
C2280 C2281 1.386 . S
C2280 C2282 1.391 . S
C2281 C2280 1.386 . S
C2281 C2285 1.393 . S
C2282 H2274 0.950 . S
C2282 C2280 1.391 . S
C2282 C2283 1.400 . S
C2283 C2282 1.400 . S
C2283 C2284 1.398 . S
C2283 C2289 1.491 . S
C2284 H2275 0.950 . S
C2284 C2283 1.398 . S
C2284 C2285 1.391 . S
C2285 H2273 0.950 . S
C2285 C2281 1.393 . S
C2285 C2284 1.391 . S
C2286 H2276 0.950 . S
C2286 C2287 1.386 . S
C2286 C2288 1.391 . S
C2287 C2286 1.386 . S
C2287 C2291 1.393 . S
C2288 H2277 0.950 . S
C2288 C2286 1.391 . S
C2288 C2289 1.400 . S
C2289 C2283 1.491 . S
C2289 C2288 1.400 . S
C2289 C2290 1.398 . S
C2290 H2278 0.950 . S
C2290 C2289 1.398 . S
C2290 C2291 1.391 . S
C2291 H2279 0.950 . S
C2291 C2287 1.393 . S
C2291 C2290 1.391 . S
H2292 C2300 0.926 1_554 S
H2293 C2305 0.950 . S
H2294 C2302 0.950 1_554 S
H2295 C2304 0.950 . S
H2296 C2306 0.950 . S
H2297 C2308 0.950 . S
H2298 C2310 0.950 1_554 S
H2299 C2311 0.950 1_554 S
C2300 H2292 0.926 1_556 S
C2300 C2301 1.386 . S
C2300 C2302 1.391 . S
C2301 C2300 1.386 . S
C2301 C2305 1.393 . S
C2302 H2294 0.950 1_556 S
C2302 C2300 1.391 . S
C2302 C2303 1.400 . S
C2303 C2302 1.400 . S
C2303 C2304 1.398 . S
C2303 C2309 1.491 . S
C2304 H2295 0.950 . S
C2304 C2303 1.398 . S
C2304 C2305 1.391 . S
C2305 H2293 0.950 . S
C2305 C2301 1.393 . S
C2305 C2304 1.391 . S
C2306 H2296 0.950 . S
C2306 C2307 1.386 . S
C2306 C2308 1.391 . S
C2307 C2306 1.386 . S
C2307 C2311 1.393 . S
C2308 H2297 0.950 . S
C2308 C2306 1.391 . S
C2308 C2309 1.400 . S
C2309 C2303 1.491 . S
C2309 C2308 1.400 . S
C2309 C2310 1.398 . S
C2310 H2298 0.950 1_556 S
C2310 C2309 1.398 . S
C2310 C2311 1.391 . S
C2311 H2299 0.950 1_556 S
C2311 C2307 1.393 . S
C2311 C2310 1.391 . S
H2312 C2320 0.950 . S
H2313 C2325 0.950 . S
H2314 C2322 0.950 . S
H2315 C2324 0.950 . S
H2316 C2326 0.950 . S
H2317 C2328 0.950 . S
H2318 C2330 0.950 . S
H2319 C2331 0.950 . S
C2320 H2312 0.950 . S
C2320 C2321 1.386 . S
C2320 C2322 1.391 . S
C2321 C2320 1.386 . S
C2321 C2325 1.393 . S
C2322 H2314 0.950 . S
C2322 C2320 1.391 . S
C2322 C2323 1.400 . S
C2323 C2322 1.400 . S
C2323 C2324 1.398 . S
C2323 C2329 1.491 . S
C2324 H2315 0.950 . S
C2324 C2323 1.398 . S
C2324 C2325 1.391 . S
C2325 H2313 0.950 . S
C2325 C2321 1.393 . S
C2325 C2324 1.391 . S
C2326 H2316 0.950 . S
C2326 C2327 1.386 . S
C2326 C2328 1.391 . S
C2327 C2326 1.386 . S
C2327 C2331 1.393 . S
C2328 H2317 0.950 . S
C2328 C2326 1.391 . S
C2328 C2329 1.400 . S
C2329 C2323 1.491 . S
C2329 C2328 1.400 . S
C2329 C2330 1.398 . S
C2330 H2318 0.950 . S
C2330 C2329 1.398 . S
C2330 C2331 1.391 . S
C2331 H2319 0.950 . S
C2331 C2327 1.393 . S
C2331 C2330 1.391 . S
H2332 C2340 0.950 . S
H2333 C2345 0.950 . S
H2334 C2342 0.950 . S
H2335 C2344 0.950 . S
H2336 C2346 0.950 . S
H2337 C2348 0.950 . S
H2338 C2350 0.950 . S
H2339 C2351 0.950 . S
C2340 H2332 0.950 . S
C2340 C2341 1.386 . S
C2340 C2342 1.391 . S
C2341 C2340 1.386 . S
C2341 C2345 1.393 . S
C2342 H2334 0.950 . S
C2342 C2340 1.391 . S
C2342 C2343 1.400 . S
C2343 C2342 1.400 . S
C2343 C2344 1.398 . S
C2343 C2349 1.491 . S
C2344 H2335 0.950 . S
C2344 C2343 1.398 . S
C2344 C2345 1.391 . S
C2345 H2333 0.950 . S
C2345 C2341 1.393 . S
C2345 C2344 1.391 . S
C2346 H2336 0.950 . S
C2346 C2347 1.386 . S
C2346 C2348 1.391 . S
C2347 C2346 1.386 . S
C2347 C2351 1.393 . S
C2348 H2337 0.950 . S
C2348 C2346 1.391 . S
C2348 C2349 1.400 . S
C2349 C2343 1.491 . S
C2349 C2348 1.400 . S
C2349 C2350 1.398 . S
C2350 H2338 0.950 . S
C2350 C2349 1.398 . S
C2350 C2351 1.391 . S
C2351 H2339 0.950 . S
C2351 C2347 1.393 . S
C2351 C2350 1.391 . S
H2352 C2360 0.950 . S
H2353 C2365 0.950 . S
H2354 C2362 0.950 . S
H2355 C2364 0.950 . S
H2356 C2366 0.950 . S
H2357 C2368 0.950 . S
H2358 C2370 0.950 . S
H2359 C2371 0.950 . S
C2360 H2352 0.950 . S
C2360 C2361 1.386 . S
C2360 C2362 1.391 . S
C2361 C2360 1.386 . S
C2361 C2365 1.393 . S
C2362 H2354 0.950 . S
C2362 C2360 1.391 . S
C2362 C2363 1.400 . S
C2363 C2362 1.400 . S
C2363 C2364 1.398 . S
C2363 C2369 1.491 . S
C2364 H2355 0.950 . S
C2364 C2363 1.398 . S
C2364 C2365 1.391 . S
C2365 H2353 0.950 . S
C2365 C2361 1.393 . S
C2365 C2364 1.391 . S
C2366 H2356 0.950 . S
C2366 C2367 1.386 . S
C2366 C2368 1.391 . S
C2367 C2366 1.386 . S
C2367 C2371 1.393 . S
C2368 H2357 0.950 . S
C2368 C2366 1.391 . S
C2368 C2369 1.400 . S
C2369 C2363 1.491 . S
C2369 C2368 1.400 . S
C2369 C2370 1.398 . S
C2370 H2358 0.950 . S
C2370 C2369 1.398 . S
C2370 C2371 1.391 . S
C2371 H2359 0.950 . S
C2371 C2367 1.393 . S
C2371 C2370 1.391 . S
H2372 C2380 0.950 . S
H2373 C2385 0.950 . S
H2374 C2382 0.950 . S
H2375 C2384 0.950 . S
H2376 C2386 0.950 . S
H2377 C2388 0.950 . S
H2378 C2390 0.950 . S
H2379 C2391 0.950 . S
C2380 H2372 0.950 . S
C2380 C2381 1.386 . S
C2380 C2382 1.391 . S
C2381 C2380 1.386 . S
C2381 C2385 1.393 . S
C2382 H2374 0.950 . S
C2382 C2380 1.391 . S
C2382 C2383 1.400 . S
C2383 C2382 1.400 . S
C2383 C2384 1.398 . S
C2383 C2389 1.491 1_554 S
C2384 H2375 0.950 . S
C2384 C2383 1.398 . S
C2384 C2385 1.391 . S
C2385 H2373 0.950 . S
C2385 C2381 1.393 . S
C2385 C2384 1.391 . S
C2386 H2376 0.950 . S
C2386 C2387 1.386 . S
C2386 C2388 1.391 . S
C2387 C2386 1.386 . S
C2387 C2391 1.393 . S
C2388 H2377 0.950 . S
C2388 C2386 1.391 . S
C2388 C2389 1.400 . S
C2389 C2383 1.491 1_556 S
C2389 C2388 1.400 . S
C2389 C2390 1.398 . S
C2390 H2378 0.950 . S
C2390 C2389 1.398 . S
C2390 C2391 1.391 . S
C2391 H2379 0.950 . S
C2391 C2387 1.393 . S
C2391 C2390 1.391 . S
H2392 C2400 0.950 . S
H2393 C2405 0.950 1_455 S
H2394 C2402 0.950 . S
H2395 C2404 0.950 1_455 S
H2396 C2406 0.950 1_455 S
H2397 C2408 0.950 1_455 S
H2398 C2410 0.950 . S
H2399 C2411 0.950 . S
C2400 H2392 0.950 . S
C2400 C2401 1.386 . S
C2400 C2402 1.391 . S
C2401 C2400 1.386 . S
C2401 C2405 1.393 . S
C2402 H2394 0.950 . S
C2402 C2400 1.391 . S
C2402 C2403 1.400 . S
C2403 C2402 1.400 . S
C2403 C2404 1.398 . S
C2403 C2409 1.491 . S
C2404 H2395 0.950 1_655 S
C2404 C2403 1.398 . S
C2404 C2405 1.391 . S
C2405 H2393 0.950 1_655 S
C2405 C2401 1.393 . S
C2405 C2404 1.391 . S
C2406 H2396 0.950 1_655 S
C2406 C2407 1.386 . S
C2406 C2408 1.391 . S
C2407 C2406 1.386 . S
C2407 C2411 1.393 . S
C2408 H2397 0.950 1_655 S
C2408 C2406 1.391 . S
C2408 C2409 1.400 . S
C2409 C2403 1.491 . S
C2409 C2408 1.400 . S
C2409 C2410 1.398 . S
C2410 H2398 0.950 . S
C2410 C2409 1.398 . S
C2410 C2411 1.391 . S
C2411 H2399 0.950 . S
C2411 C2407 1.393 . S
C2411 C2410 1.391 . S
H2412 C2420 0.950 . S
H2413 C2425 0.950 . S
H2414 C2422 0.950 . S
H2415 C2424 0.950 . S
H2416 C2426 0.950 . S
H2417 C2428 0.950 . S
H2418 C2430 0.950 . S
H2419 C2431 0.950 . S
C2420 H2412 0.950 . S
C2420 C2421 1.369 1_655 S
C2420 C2422 1.391 . S
C2421 C2420 1.369 1_455 S
C2421 C2425 1.410 . S
C2422 H2414 0.950 . S
C2422 C2420 1.391 . S
C2422 C2423 1.393 1_655 S
C2423 C2422 1.393 1_455 S
C2423 C2424 1.406 . S
C2423 C2429 1.490 1_455 S
C2424 H2415 0.950 . S
C2424 C2423 1.406 . S
C2424 C2425 1.391 . S
C2425 H2413 0.950 . S
C2425 C2421 1.410 . S
C2425 C2424 1.391 . S
C2426 H2416 0.950 . S
C2426 C2427 1.369 1_455 S
C2426 C2428 1.391 . S
C2427 C2426 1.369 1_655 S
C2427 C2431 1.410 . S
C2428 H2417 0.950 . S
C2428 C2426 1.391 . S
C2428 C2429 1.393 1_455 S
C2429 C2423 1.490 1_655 S
C2429 C2428 1.393 1_655 S
C2429 C2430 1.406 . S
C2430 H2418 0.950 . S
C2430 C2429 1.406 . S
C2430 C2431 1.391 . S
C2431 H2419 0.950 . S
C2431 C2427 1.410 . S
C2431 C2430 1.391 . S
H2432 C2440 0.950 . S
H2433 C2445 0.950 . S
H2434 C2442 0.950 . S
H2435 C2444 0.950 . S
H2436 C2446 0.950 . S
H2437 C2448 0.950 . S
H2438 C2450 0.950 . S
H2439 C2451 0.950 . S
C2440 H2432 0.950 . S
C2440 C2441 1.386 . S
C2440 C2442 1.391 . S
C2441 C2440 1.386 . S
C2441 C2445 1.393 . S
C2442 H2434 0.950 . S
C2442 C2440 1.391 . S
C2442 C2443 1.400 . S
C2443 C2442 1.400 . S
C2443 C2444 1.398 . S
C2443 C2449 1.491 . S
C2444 H2435 0.950 . S
C2444 C2443 1.398 . S
C2444 C2445 1.391 . S
C2445 H2433 0.950 . S
C2445 C2441 1.393 . S
C2445 C2444 1.391 . S
C2446 H2436 0.950 . S
C2446 C2447 1.386 . S
C2446 C2448 1.391 . S
C2447 C2446 1.386 . S
C2447 C2451 1.393 . S
C2448 H2437 0.950 . S
C2448 C2446 1.391 . S
C2448 C2449 1.400 . S
C2449 C2443 1.491 . S
C2449 C2448 1.400 . S
C2449 C2450 1.398 . S
C2450 H2438 0.950 . S
C2450 C2449 1.398 . S
C2450 C2451 1.391 . S
C2451 H2439 0.950 . S
C2451 C2447 1.393 . S
C2451 C2450 1.391 . S
H2452 C2460 0.950 . S
H2453 C2465 0.950 . S
H2454 C2462 0.950 . S
H2455 C2464 0.950 . S
H2456 C2466 0.950 . S
H2457 C2468 0.950 . S
H2458 C2470 0.950 . S
H2459 C2471 0.950 . S
C2460 H2452 0.950 . S
C2460 C2461 1.386 . S
C2460 C2462 1.391 . S
C2461 C2460 1.386 . S
C2461 C2465 1.393 . S
C2462 H2454 0.950 . S
C2462 C2460 1.391 . S
C2462 C2463 1.400 . S
C2463 C2462 1.400 . S
C2463 C2464 1.398 . S
C2463 C2469 1.491 . S
C2464 H2455 0.950 . S
C2464 C2463 1.398 . S
C2464 C2465 1.391 . S
C2465 H2453 0.950 . S
C2465 C2461 1.393 . S
C2465 C2464 1.391 . S
C2466 H2456 0.950 . S
C2466 C2467 1.386 . S
C2466 C2468 1.391 . S
C2467 C2466 1.386 . S
C2467 C2471 1.393 . S
C2468 H2457 0.950 . S
C2468 C2466 1.391 . S
C2468 C2469 1.400 . S
C2469 C2463 1.491 . S
C2469 C2468 1.400 . S
C2469 C2470 1.398 . S
C2470 H2458 0.950 . S
C2470 C2469 1.398 . S
C2470 C2471 1.391 . S
C2471 H2459 0.950 . S
C2471 C2467 1.393 . S
C2471 C2470 1.391 . S
H2472 C2480 0.950 . S
H2473 C2485 0.950 . S
H2474 C2482 0.950 . S
H2475 C2484 0.950 . S
H2476 C2486 0.950 . S
H2477 C2488 0.950 . S
H2478 C2490 0.950 . S
H2479 C2491 0.950 . S
C2480 H2472 0.950 . S
C2480 C2481 1.386 . S
C2480 C2482 1.391 . S
C2481 C2480 1.386 . S
C2481 C2485 1.393 . S
C2482 H2474 0.950 . S
C2482 C2480 1.391 . S
C2482 C2483 1.400 . S
C2483 C2482 1.400 . S
C2483 C2484 1.398 . S
C2483 C2489 1.491 . S
C2484 H2475 0.950 . S
C2484 C2483 1.398 . S
C2484 C2485 1.391 . S
C2485 H2473 0.950 . S
C2485 C2481 1.393 . S
C2485 C2484 1.391 . S
C2486 H2476 0.950 . S
C2486 C2487 1.386 . S
C2486 C2488 1.391 . S
C2487 C2486 1.386 . S
C2487 C2491 1.393 . S
C2488 H2477 0.950 . S
C2488 C2486 1.391 . S
C2488 C2489 1.400 . S
C2489 C2483 1.491 . S
C2489 C2488 1.400 . S
C2489 C2490 1.398 . S
C2490 H2478 0.950 . S
C2490 C2489 1.398 . S
C2490 C2491 1.391 . S
C2491 H2479 0.950 . S
C2491 C2487 1.393 . S
C2491 C2490 1.391 . S
H2492 C2500 0.950 . S
H2493 C2505 0.950 . S
H2494 C2502 0.950 . S
H2495 C2504 0.950 . S
H2496 C2506 0.950 . S
H2497 C2508 0.950 . S
H2498 C2510 0.950 . S
H2499 C2511 0.950 . S
C2500 H2492 0.950 . S
C2500 C2501 1.378 1_545 S
C2500 C2502 1.391 . S
C2501 C2500 1.378 1_565 S
C2501 C2505 1.400 . S
C2502 H2494 0.950 . S
C2502 C2500 1.391 . S
C2502 C2503 1.401 1_545 S
C2503 C2502 1.401 1_565 S
C2503 C2504 1.398 . S
C2503 C2509 1.491 1_565 S
C2504 H2495 0.950 . S
C2504 C2503 1.398 . S
C2504 C2505 1.391 . S
C2505 H2493 0.950 . S
C2505 C2501 1.400 . S
C2505 C2504 1.391 . S
C2506 H2496 0.950 . S
C2506 C2507 1.378 1_565 S
C2506 C2508 1.391 . S
C2507 C2506 1.378 1_545 S
C2507 C2511 1.400 . S
C2508 H2497 0.950 . S
C2508 C2506 1.391 . S
C2508 C2509 1.401 1_565 S
C2509 C2503 1.491 1_545 S
C2509 C2508 1.401 1_545 S
C2509 C2510 1.398 . S
C2510 H2498 0.950 . S
C2510 C2509 1.398 . S
C2510 C2511 1.391 . S
C2511 H2499 0.950 . S
C2511 C2507 1.400 . S
C2511 C2510 1.391 . S
H2512 C2520 0.950 . S
H2513 C2525 0.950 . S
H2514 C2522 0.950 . S
H2515 C2524 0.950 . S
H2516 C2526 0.950 . S
H2517 C2528 0.950 . S
H2518 C2530 0.950 . S
H2519 C2531 0.950 . S
C2520 H2512 0.950 . S
C2520 C2521 1.386 . S
C2520 C2522 1.391 . S
C2521 C2520 1.386 . S
C2521 C2525 1.393 . S
C2522 H2514 0.950 . S
C2522 C2520 1.391 . S
C2522 C2523 1.400 . S
C2523 C2522 1.400 . S
C2523 C2524 1.398 . S
C2523 C2529 1.491 1_455 S
C2524 H2515 0.950 . S
C2524 C2523 1.398 . S
C2524 C2525 1.391 . S
C2525 H2513 0.950 . S
C2525 C2521 1.393 . S
C2525 C2524 1.391 . S
C2526 H2516 0.950 . S
C2526 C2527 1.386 . S
C2526 C2528 1.391 . S
C2527 C2526 1.386 . S
C2527 C2531 1.393 . S
C2528 H2517 0.950 . S
C2528 C2526 1.391 . S
C2528 C2529 1.400 . S
C2529 C2523 1.491 1_655 S
C2529 C2528 1.400 . S
C2529 C2530 1.398 . S
C2530 H2518 0.950 . S
C2530 C2529 1.398 . S
C2530 C2531 1.391 . S
C2531 H2519 0.950 . S
C2531 C2527 1.393 . S
C2531 C2530 1.391 . S
H2532 C2540 0.950 . S
H2533 C2545 0.950 . S
H2534 C2542 0.950 . S
H2535 C2544 0.950 . S
H2536 C2546 0.950 . S
H2537 C2548 0.950 . S
H2538 C2550 0.950 . S
H2539 C2551 0.950 . S
C2540 H2532 0.950 . S
C2540 C2541 1.378 1_565 S
C2540 C2542 1.391 . S
C2541 C2540 1.378 1_545 S
C2541 C2545 1.402 . S
C2542 H2534 0.950 . S
C2542 C2540 1.391 . S
C2542 C2543 1.397 1_565 S
C2543 C2542 1.397 1_545 S
C2543 C2544 1.403 . S
C2543 C2549 1.490 1_445 S
C2544 H2535 0.950 . S
C2544 C2543 1.403 . S
C2544 C2545 1.391 . S
C2545 H2533 0.950 . S
C2545 C2541 1.402 . S
C2545 C2544 1.391 . S
C2546 H2536 0.950 . S
C2546 C2547 1.378 1_545 S
C2546 C2548 1.391 . S
C2547 C2546 1.378 1_565 S
C2547 C2551 1.402 . S
C2548 H2537 0.950 . S
C2548 C2546 1.391 . S
C2548 C2549 1.397 1_545 S
C2549 C2543 1.490 1_665 S
C2549 C2548 1.397 1_565 S
C2549 C2550 1.403 . S
C2550 H2538 0.950 . S
C2550 C2549 1.403 . S
C2550 C2551 1.391 . S
C2551 H2539 0.950 . S
C2551 C2547 1.402 . S
C2551 C2550 1.391 . S
H2552 C2560 0.950 . S
H2553 C2565 0.950 . S
H2554 C2562 0.950 . S
H2555 C2564 0.950 . S
H2556 C2566 0.950 . S
H2557 C2568 0.950 . S
H2558 C2570 0.950 . S
H2559 C2571 0.950 . S
C2560 H2552 0.950 . S
C2560 C2561 1.397 . S
C2560 C2562 1.391 . S
C2561 C2560 1.397 . S
C2561 C2565 1.383 1_455 S
C2562 H2554 0.950 . S
C2562 C2560 1.391 . S
C2562 C2563 1.405 . S
C2563 C2562 1.405 . S
C2563 C2564 1.394 1_455 S
C2563 C2569 1.490 1_456 S
C2564 H2555 0.950 . S
C2564 C2563 1.394 1_655 S
C2564 C2565 1.391 . S
C2565 H2553 0.950 . S
C2565 C2561 1.383 1_655 S
C2565 C2564 1.391 . S
C2566 H2556 0.950 . S
C2566 C2567 1.397 . S
C2566 C2568 1.391 . S
C2567 C2566 1.397 . S
C2567 C2571 1.383 1_655 S
C2568 H2557 0.950 . S
C2568 C2566 1.391 . S
C2568 C2569 1.405 . S
C2569 C2563 1.490 1_654 S
C2569 C2568 1.405 . S
C2569 C2570 1.394 1_655 S
C2570 H2558 0.950 . S
C2570 C2569 1.394 1_455 S
C2570 C2571 1.391 . S
C2571 H2559 0.950 . S
C2571 C2567 1.383 1_455 S
C2571 C2570 1.391 . S
H2572 C2580 0.950 . S
H2573 C2585 0.950 . S
H2574 C2582 0.950 . S
H2575 C2584 0.950 . S
H2576 C2586 0.950 . S
H2577 C2588 0.950 . S
H2578 C2590 0.950 . S
H2579 C2591 0.950 . S
C2580 H2572 0.950 . S
C2580 C2581 1.399 . S
C2580 C2582 1.391 . S
C2581 C2580 1.399 . S
C2581 C2585 1.379 1_655 S
C2582 H2574 0.950 . S
C2582 C2580 1.391 . S
C2582 C2583 1.405 . S
C2583 C2582 1.405 . S
C2583 C2584 1.394 1_655 S
C2583 C2589 1.490 1_655 S
C2584 H2575 0.950 . S
C2584 C2583 1.394 1_455 S
C2584 C2585 1.391 . S
C2585 H2573 0.950 . S
C2585 C2581 1.379 1_455 S
C2585 C2584 1.391 . S
C2586 H2576 0.950 . S
C2586 C2587 1.399 . S
C2586 C2588 1.391 . S
C2587 C2586 1.399 . S
C2587 C2591 1.379 1_455 S
C2588 H2577 0.950 . S
C2588 C2586 1.391 . S
C2588 C2589 1.405 . S
C2589 C2583 1.490 1_455 S
C2589 C2588 1.405 . S
C2589 C2590 1.394 1_455 S
C2590 H2578 0.950 . S
C2590 C2589 1.394 1_655 S
C2590 C2591 1.391 . S
C2591 H2579 0.950 . S
C2591 C2587 1.379 1_655 S
C2591 C2590 1.391 . S
C681 C386 0.851 . S
C687 C8 0.854 . S
C701 C23 0.860 . S
C707 C541 0.852 . S
C721 C36 0.852 . S
C727 C358 0.862 . S
C741 C569 0.884 . S
C747 C51 0.892 . S
C761 C401 0.885 . S
C767 C65 0.892 . S
C781 C78 0.885 . S
C787 C316 0.892 . S
C801 C429 0.892 . S
C807 C93 0.885 . S
C821 C106 0.890 . S
C827 C288 0.880 . S
C841 C498 0.853 . S
C847 C107 0.864 . S
C861 C471 0.892 . S
C867 C64 0.883 . S
C881 C79 0.856 . S
C887 C596 0.868 . S
C901 C484 0.876 . S
C907 C92 0.861 . S
C921 C120 0.851 . S
C927 C190 0.856 . S
C941 C205 0.870 . S
C947 C135 0.884 . S
C961 C219 0.888 . S
C967 C148 0.892 . S
C981 C177 0.872 . S
C987 C163 0.858 . S
C1001 C191 0.858 . S
C1007 C344 0.872 . S
C1021 C204 0.852 . S
C1027 C555 0.861 . S
C1041 C372 0.854 . S
C1047 C218 0.851 . S
C1061 C387 0.851 . S
C1067 C232 0.854 . S
C1081 C247 0.877 . S
C1087 C415 0.863 . S
C1101 C261 0.879 . S
C1107 C50 0.865 . S
C1121 C274 0.892 . S
C1127 C22 0.884 . S
C1141 C625 0.889 . S
C1147 C303 0.892 . S
C1161 C653 0.858 . S
C1167 C331 0.851 . S
C1181 C345 0.882 . S
C1187 C121 0.868 . S
C1201 C373 0.853 . S
C1207 C149 0.864 . S
C1221 C359 0.892 . S
C1227 C610 0.890 . S
C1241 C470 0.892 . S
C1247 C400 0.884 . S
C1261 C485 0.858 . S
C1267 C428 0.851 . S
C1281 C457 0.889 . S
C1287 C443 0.892 . S
C1301 C246 0.851 . S
C1307 C639 0.858 . S
C1321 C513 0.878 . S
C1327 C330 0.864 . S
C1341 C302 0.892 . S
C1347 C526 0.885 . S
C1361 C666 0.874 . S
C1367 C442 0.860 . S
C1381 C414 0.858 . S
C1387 C638 0.851 . S
C1401 C134 0.873 . S
C1407 C554 0.886 . S
C1421 C162 0.877 . S
C1427 C582 0.863 . S
C1441 C176 0.854 . S
C1447 C583 0.851 . S
C1461 C275 0.876 . S
C1467 C540 0.888 . S
C1481 C260 0.859 . S
C1487 C568 0.872 . S
C1501 C317 0.892 . S
C1507 C597 0.888 . S
C1521 C289 0.888 . S
C1527 C499 0.892 . S
C1541 C624 0.860 . S
C1547 C527 0.874 . S
C1561 C652 0.883 . S
C1567 C512 0.891 . S
C1581 C667 0.853 . S
C1587 C456 0.864 . S
C1601 C611 0.892 . S
C1607 C37 0.886 . S
C1621 C233 0.876 . S
C1627 C9 0.888 . S
C1641 C6 1.481 . S
C1647 C651 1.473 . S
C1661 C21 1.506 . S
C1667 C664 1.495 . S
C1681 C34 1.498 . S
C1687 C623 1.471 . S
C1701 C49 1.472 . S
C1707 C636 1.501 . S
C1721 C63 1.484 . S
C1727 C132 1.472 . S
C1741 C76 1.504 1_556 S
C1747 C147 1.476 1_554 S
C1761 C91 1.506 . S
C1767 C160 1.478 . S
C1781 C104 1.488 . S
C1787 C119 1.508 . S
C1801 C105 1.506 . S
C1807 C553 1.478 . S
C1821 C62 1.507 . S
C1827 C370 1.493 . S
C1841 C77 1.478 . S
C1847 C581 1.506 . S
C1861 C90 1.493 . S
C1867 C342 1.479 . S
C1881 C118 1.505 . S
C1887 C328 1.476 . S
C1901 C133 1.482 . S
C1907 C441 1.473 . S
C1921 C146 1.475 . S
C1927 C300 1.479 . S
C1941 C413 1.475 1_545 S
C1947 C161 1.504 1_565 S
C1961 C175 1.501 . S
C1967 C273 1.502 . S
C1981 C189 1.487 . S
C1987 C231 1.471 . S
C2001 C272 1.506 . S
C2007 C202 1.478 . S
C2021 C609 1.491 . S
C2027 C216 1.470 . S
C2041 C217 1.479 1_455 S
C2047 C230 1.500 1_655 S
C2061 C510 1.505 . S
C2067 C245 1.496 . S
C2081 C174 1.505 . S
C2087 C259 1.477 . S
C2101 C567 1.472 . S
C2107 C286 1.484 . S
C2121 C580 1.490 1_556 S
C2127 C301 1.488 1_554 S
C2141 C314 1.494 . S
C2147 C539 1.506 . S
C2161 C552 1.470 . S
C2167 C329 1.491 . S
C2181 C343 1.493 . S
C2187 C412 1.507 . S
C2201 C427 1.495 . S
C2207 C356 1.506 . S
C2221 C371 1.476 . S
C2227 C440 1.505 . S
C2241 C399 1.489 . S
C2247 C384 1.482 . S
C2261 C385 1.507 . S
C2267 C637 1.481 . S
C2281 C665 1.496 . S
C2287 C357 1.470 . S
C2301 C398 1.470 . S
C2307 C48 1.494 . S
C2321 C20 1.470 . S
C2327 C426 1.493 . S
C2341 C525 1.495 . S
C2347 C455 1.506 . S
C2361 C497 1.500 . S
C2367 C469 1.472 . S
C2381 C244 1.475 . S
C2387 C524 1.504 . S
C2401 C482 1.496 . S
C2407 C595 1.505 . S
C2421 C496 1.496 . S
C2427 C483 1.476 . S
C2441 C203 1.473 . S
C2447 C258 1.481 . S
C2461 C454 1.501 . S
C2467 C511 1.473 . S
C2481 C650 1.498 . S
C2487 C538 1.504 . S
C2501 C566 1.475 1_565 S
C2507 C622 1.504 1_545 S
C2521 C7 1.490 . S
C2527 C315 1.507 . S
C2541 C287 1.487 . S
C2547 C35 1.484 . S
C2561 C468 1.479 . S
C2567 C594 1.493 . S
C2581 C188 1.503 1_655 S
C2587 C608 1.476 1_455 S
