# Generated by pormake.
# Topology uml, (4)-cn, num edge types: 1
# Building blocks:
#     Node 0, Type 0, BuildingBlock: QUQFOY_clean_sbu_1, # of connection points: 4
#     Node 1, Type 0, BuildingBlock: QUQFOY_clean_sbu_1, # of connection points: 4
#     Node 2, Type 0, BuildingBlock: QUQFOY_clean_sbu_1, # of connection points: 4
#     Node 3, Type 0, BuildingBlock: QUQFOY_clean_sbu_1, # of connection points: 4
#     Node 4, Type 0, BuildingBlock: QUQFOY_clean_sbu_1, # of connection points: 4
#     Node 5, Type 0, BuildingBlock: QUQFOY_clean_sbu_1, # of connection points: 4
#     Node 6, Type 0, BuildingBlock: QUQFOY_clean_sbu_1, # of connection points: 4
#     Node 7, Type 0, BuildingBlock: QUQFOY_clean_sbu_1, # of connection points: 4
#     Node 8, Type 0, BuildingBlock: QUQFOY_clean_sbu_1, # of connection points: 4
#     Node 9, Type 0, BuildingBlock: QUQFOY_clean_sbu_1, # of connection points: 4
#     Node 10, Type 0, BuildingBlock: QUQFOY_clean_sbu_1, # of connection points: 4
#     Node 11, Type 0, BuildingBlock: QUQFOY_clean_sbu_1, # of connection points: 4
#     Node 12, Type 0, BuildingBlock: QUQFOY_clean_sbu_1, # of connection points: 4
#     Node 13, Type 0, BuildingBlock: QUQFOY_clean_sbu_1, # of connection points: 4
#     Node 14, Type 0, BuildingBlock: QUQFOY_clean_sbu_1, # of connection points: 4
#     Node 15, Type 0, BuildingBlock: QUQFOY_clean_sbu_1, # of connection points: 4
#     Node 16, Type 0, BuildingBlock: QUQFOY_clean_sbu_1, # of connection points: 4
#     Node 17, Type 0, BuildingBlock: QUQFOY_clean_sbu_1, # of connection points: 4
#     Node 18, Type 0, BuildingBlock: QUQFOY_clean_sbu_1, # of connection points: 4
#     Node 19, Type 0, BuildingBlock: QUQFOY_clean_sbu_1, # of connection points: 4
#     Node 20, Type 0, BuildingBlock: QUQFOY_clean_sbu_1, # of connection points: 4
#     Node 21, Type 0, BuildingBlock: QUQFOY_clean_sbu_1, # of connection points: 4
#     Node 22, Type 0, BuildingBlock: QUQFOY_clean_sbu_1, # of connection points: 4
#     Node 23, Type 0, BuildingBlock: QUQFOY_clean_sbu_1, # of connection points: 4
#     Node 24, Type 0, BuildingBlock: QUQFOY_clean_sbu_1, # of connection points: 4
#     Node 25, Type 0, BuildingBlock: QUQFOY_clean_sbu_1, # of connection points: 4
#     Node 26, Type 0, BuildingBlock: QUQFOY_clean_sbu_1, # of connection points: 4
#     Node 27, Type 0, BuildingBlock: QUQFOY_clean_sbu_1, # of connection points: 4
#     Node 28, Type 0, BuildingBlock: QUQFOY_clean_sbu_1, # of connection points: 4
#     Node 29, Type 0, BuildingBlock: QUQFOY_clean_sbu_1, # of connection points: 4
#     Node 30, Type 0, BuildingBlock: QUQFOY_clean_sbu_1, # of connection points: 4
#     Node 31, Type 0, BuildingBlock: QUQFOY_clean_sbu_1, # of connection points: 4
#     Node 32, Type 0, BuildingBlock: QUQFOY_clean_sbu_1, # of connection points: 4
#     Node 33, Type 0, BuildingBlock: QUQFOY_clean_sbu_1, # of connection points: 4
#     Node 34, Type 0, BuildingBlock: QUQFOY_clean_sbu_1, # of connection points: 4
#     Node 35, Type 0, BuildingBlock: QUQFOY_clean_sbu_1, # of connection points: 4
#     Edge 36, Type (0, 0), BuildingBlock: OJICUG_clean_linker_0, # of connection points: 2
#     Edge 37, Type (0, 0), BuildingBlock: OJICUG_clean_linker_0, # of connection points: 2
#     Edge 38, Type (0, 0), BuildingBlock: OJICUG_clean_linker_0, # of connection points: 2
#     Edge 39, Type (0, 0), BuildingBlock: OJICUG_clean_linker_0, # of connection points: 2
#     Edge 40, Type (0, 0), BuildingBlock: OJICUG_clean_linker_0, # of connection points: 2
#     Edge 41, Type (0, 0), BuildingBlock: OJICUG_clean_linker_0, # of connection points: 2
#     Edge 42, Type (0, 0), BuildingBlock: OJICUG_clean_linker_0, # of connection points: 2
#     Edge 43, Type (0, 0), BuildingBlock: OJICUG_clean_linker_0, # of connection points: 2
#     Edge 44, Type (0, 0), BuildingBlock: OJICUG_clean_linker_0, # of connection points: 2
#     Edge 45, Type (0, 0), BuildingBlock: OJICUG_clean_linker_0, # of connection points: 2
#     Edge 46, Type (0, 0), BuildingBlock: OJICUG_clean_linker_0, # of connection points: 2
#     Edge 47, Type (0, 0), BuildingBlock: OJICUG_clean_linker_0, # of connection points: 2
#     Edge 48, Type (0, 0), BuildingBlock: OJICUG_clean_linker_0, # of connection points: 2
#     Edge 49, Type (0, 0), BuildingBlock: OJICUG_clean_linker_0, # of connection points: 2
#     Edge 50, Type (0, 0), BuildingBlock: OJICUG_clean_linker_0, # of connection points: 2
#     Edge 51, Type (0, 0), BuildingBlock: OJICUG_clean_linker_0, # of connection points: 2
#     Edge 52, Type (0, 0), BuildingBlock: OJICUG_clean_linker_0, # of connection points: 2
#     Edge 53, Type (0, 0), BuildingBlock: OJICUG_clean_linker_0, # of connection points: 2
#     Edge 54, Type (0, 0), BuildingBlock: OJICUG_clean_linker_0, # of connection points: 2
#     Edge 55, Type (0, 0), BuildingBlock: OJICUG_clean_linker_0, # of connection points: 2
#     Edge 56, Type (0, 0), BuildingBlock: OJICUG_clean_linker_0, # of connection points: 2
#     Edge 57, Type (0, 0), BuildingBlock: OJICUG_clean_linker_0, # of connection points: 2
#     Edge 58, Type (0, 0), BuildingBlock: OJICUG_clean_linker_0, # of connection points: 2
#     Edge 59, Type (0, 0), BuildingBlock: OJICUG_clean_linker_0, # of connection points: 2
#     Edge 60, Type (0, 0), BuildingBlock: OJICUG_clean_linker_0, # of connection points: 2
#     Edge 61, Type (0, 0), BuildingBlock: OJICUG_clean_linker_0, # of connection points: 2
#     Edge 62, Type (0, 0), BuildingBlock: OJICUG_clean_linker_0, # of connection points: 2
#     Edge 63, Type (0, 0), BuildingBlock: OJICUG_clean_linker_0, # of connection points: 2
#     Edge 64, Type (0, 0), BuildingBlock: OJICUG_clean_linker_0, # of connection points: 2
#     Edge 65, Type (0, 0), BuildingBlock: OJICUG_clean_linker_0, # of connection points: 2
#     Edge 66, Type (0, 0), BuildingBlock: OJICUG_clean_linker_0, # of connection points: 2
#     Edge 67, Type (0, 0), BuildingBlock: OJICUG_clean_linker_0, # of connection points: 2
#     Edge 68, Type (0, 0), BuildingBlock: OJICUG_clean_linker_0, # of connection points: 2
#     Edge 69, Type (0, 0), BuildingBlock: OJICUG_clean_linker_0, # of connection points: 2
#     Edge 70, Type (0, 0), BuildingBlock: OJICUG_clean_linker_0, # of connection points: 2
#     Edge 71, Type (0, 0), BuildingBlock: OJICUG_clean_linker_0, # of connection points: 2
#     Edge 72, Type (0, 0), BuildingBlock: OJICUG_clean_linker_0, # of connection points: 2
#     Edge 73, Type (0, 0), BuildingBlock: OJICUG_clean_linker_0, # of connection points: 2
#     Edge 74, Type (0, 0), BuildingBlock: OJICUG_clean_linker_0, # of connection points: 2
#     Edge 75, Type (0, 0), BuildingBlock: OJICUG_clean_linker_0, # of connection points: 2
#     Edge 76, Type (0, 0), BuildingBlock: OJICUG_clean_linker_0, # of connection points: 2
#     Edge 77, Type (0, 0), BuildingBlock: OJICUG_clean_linker_0, # of connection points: 2
#     Edge 78, Type (0, 0), BuildingBlock: OJICUG_clean_linker_0, # of connection points: 2
#     Edge 79, Type (0, 0), BuildingBlock: OJICUG_clean_linker_0, # of connection points: 2
#     Edge 80, Type (0, 0), BuildingBlock: OJICUG_clean_linker_0, # of connection points: 2
#     Edge 81, Type (0, 0), BuildingBlock: OJICUG_clean_linker_0, # of connection points: 2
#     Edge 82, Type (0, 0), BuildingBlock: OJICUG_clean_linker_0, # of connection points: 2
#     Edge 83, Type (0, 0), BuildingBlock: OJICUG_clean_linker_0, # of connection points: 2
#     Edge 84, Type (0, 0), BuildingBlock: OJICUG_clean_linker_0, # of connection points: 2
#     Edge 85, Type (0, 0), BuildingBlock: OJICUG_clean_linker_0, # of connection points: 2
#     Edge 86, Type (0, 0), BuildingBlock: OJICUG_clean_linker_0, # of connection points: 2
#     Edge 87, Type (0, 0), BuildingBlock: OJICUG_clean_linker_0, # of connection points: 2
#     Edge 88, Type (0, 0), BuildingBlock: OJICUG_clean_linker_0, # of connection points: 2
#     Edge 89, Type (0, 0), BuildingBlock: OJICUG_clean_linker_0, # of connection points: 2
#     Edge 90, Type (0, 0), BuildingBlock: OJICUG_clean_linker_0, # of connection points: 2
#     Edge 91, Type (0, 0), BuildingBlock: OJICUG_clean_linker_0, # of connection points: 2
#     Edge 92, Type (0, 0), BuildingBlock: OJICUG_clean_linker_0, # of connection points: 2
#     Edge 93, Type (0, 0), BuildingBlock: OJICUG_clean_linker_0, # of connection points: 2
#     Edge 94, Type (0, 0), BuildingBlock: OJICUG_clean_linker_0, # of connection points: 2
#     Edge 95, Type (0, 0), BuildingBlock: OJICUG_clean_linker_0, # of connection points: 2
#     Edge 96, Type (0, 0), BuildingBlock: OJICUG_clean_linker_0, # of connection points: 2
#     Edge 97, Type (0, 0), BuildingBlock: OJICUG_clean_linker_0, # of connection points: 2
#     Edge 98, Type (0, 0), BuildingBlock: OJICUG_clean_linker_0, # of connection points: 2
#     Edge 99, Type (0, 0), BuildingBlock: OJICUG_clean_linker_0, # of connection points: 2
#     Edge 100, Type (0, 0), BuildingBlock: OJICUG_clean_linker_0, # of connection points: 2
#     Edge 101, Type (0, 0), BuildingBlock: OJICUG_clean_linker_0, # of connection points: 2
#     Edge 102, Type (0, 0), BuildingBlock: OJICUG_clean_linker_0, # of connection points: 2
#     Edge 103, Type (0, 0), BuildingBlock: OJICUG_clean_linker_0, # of connection points: 2
#     Edge 104, Type (0, 0), BuildingBlock: OJICUG_clean_linker_0, # of connection points: 2
#     Edge 105, Type (0, 0), BuildingBlock: OJICUG_clean_linker_0, # of connection points: 2
#     Edge 106, Type (0, 0), BuildingBlock: OJICUG_clean_linker_0, # of connection points: 2
#     Edge 107, Type (0, 0), BuildingBlock: OJICUG_clean_linker_0, # of connection points: 2
# Relax obj value: 0.056
# Max RMSD: 0.287
# Mean RMSD: 0.183
data_MOF--net-uml--node1-QUQFOY_clean_sbu_1--edge1-OJICUG_clean_linker_0
_symmetry_space_group_name_H-M    P1
_symmetry_Int_Tables_number       1
_symmetry_cell_setting            triclinic
loop_
_symmetry_equiv_pos_as_xyz
'x, y, z'
_cell_length_a     72.02372
_cell_length_b     72.020401
_cell_length_c     21.09957
_cell_angle_alpha  90.022964
_cell_angle_beta   89.97932
_cell_angle_gamma 119.94963
loop_
_atom_site_label
_atom_site_type_symbol
_atom_site_fract_x
_atom_site_fract_y
_atom_site_fract_z
_atom_type_partial_charge
O0 O 0.31622 0.15223 0.18627 0.0
Cd1 Cd 0.32148 0.12659 0.19306 0.0
Cd2 Cd 0.35846 0.15579 0.13893 0.0
O3 O 0.34947 0.17797 0.16863 0.0
O4 O 0.30186 0.10812 0.26228 0.0
O5 O 0.33716 0.12575 0.27113 0.0
C6 C 0.31861 0.114 0.29716 0.0
C7 C 0.39044 0.15523 0.14024 0.0
C8 C 0.32986 0.17206 0.18027 0.0
C9 C 0.32736 0.11865 0.05992 0.0
O10 O 0.34229 0.13799 0.06223 0.0
O11 O 0.31717 0.10913 0.11 0.0
O12 O 0.38824 0.16861 0.10468 0.0
O13 O 0.37583 0.14474 0.18243 0.0
O14 O 0.85774 0.25777 0.18144 0.0
Cd15 Cd 0.88345 0.28855 0.18851 0.0
Cd16 Cd 0.85431 0.29648 0.13473 0.0
O17 O 0.83203 0.26539 0.1642 0.0
O18 O 0.90179 0.28714 0.25773 0.0
O19 O 0.88431 0.30499 0.26686 0.0
C20 C 0.89592 0.298 0.29282 0.0
C21 C 0.85505 0.32908 0.13687 0.0
C22 C 0.83792 0.25166 0.17556 0.0
C23 C 0.89134 0.30226 0.05535 0.0
O24 O 0.87204 0.29802 0.05788 0.0
O25 O 0.90088 0.30156 0.10534 0.0
O26 O 0.84163 0.31364 0.10105 0.0
O27 O 0.8655 0.32481 0.17878 0.0
O28 O 0.75468 0.69367 0.18451 0.0
Cd29 Cd 0.72369 0.68813 0.1918 0.0
Cd30 Cd 0.71639 0.65124 0.13657 0.0
O31 O 0.74762 0.66058 0.16598 0.0
O32 O 0.72484 0.70781 0.26097 0.0
O33 O 0.7074 0.67253 0.27033 0.0
C34 C 0.71413 0.6911 0.29615 0.0
C35 C 0.68443 0.61873 0.13629 0.0
C36 C 0.7611 0.68022 0.17795 0.0
C37 C 0.70983 0.68232 0.05862 0.0
O38 O 0.71441 0.66749 0.06055 0.0
O39 O 0.71042 0.6924 0.10892 0.0
O40 O 0.70028 0.62162 0.10083 0.0
O41 O 0.68799 0.63297 0.17923 0.0
O42 O 0.0882 0.36196 0.34765 0.0
Cd43 Cd 0.06253 0.36711 0.33818 0.0
Cd44 Cd 0.09197 0.40485 0.39792 0.0
O45 O 0.11367 0.3946 0.374 0.0
O46 O 0.04463 0.3475 0.26802 0.0
O47 O 0.06175 0.3828 0.25983 0.0
C48 C 0.05023 0.36427 0.23346 0.0
C49 C 0.09595 0.43904 0.40251 0.0
C50 C 0.10781 0.3752 0.35938 0.0
C51 C 0.0524 0.37261 0.46983 0.0
O52 O 0.07138 0.38828 0.46947 0.0
O53 O 0.04407 0.36191 0.41944 0.0
O54 O 0.1065 0.43359 0.44022 0.0
O55 O 0.08574 0.42631 0.35593 0.0
O56 O 0.64857 0.82206 0.35591 0.0
Cd57 Cd 0.64265 0.79094 0.35112 0.0
Cd58 Cd 0.60589 0.78415 0.40209 0.0
O59 O 0.615 0.81454 0.36527 0.0
O60 O 0.66264 0.79098 0.28434 0.0
O61 O 0.62748 0.77467 0.27245 0.0
C62 C 0.64609 0.78053 0.2483 0.0
C63 C 0.57783 0.7495 0.39115 0.0
C64 C 0.63481 0.82821 0.35674 0.0
C65 C 0.63497 0.77818 0.48622 0.0
O66 O 0.62121 0.78424 0.48288 0.0
O67 O 0.64453 0.77725 0.43643 0.0
O68 O 0.57486 0.76354 0.42083 0.0
O69 O 0.59535 0.75621 0.35901 0.0
O70 O 0.19195 0.91989 0.3466 0.0
Cd71 Cd 0.22287 0.94544 0.33908 0.0
Cd72 Cd 0.23058 0.91567 0.39649 0.0
O73 O 0.19897 0.89407 0.36951 0.0
O74 O 0.22167 0.96385 0.26973 0.0
O75 O 0.23954 0.94639 0.26108 0.0
C76 C 0.23278 0.95819 0.23506 0.0
C77 C 0.26126 0.91256 0.39927 0.0
C78 C 0.18552 0.90013 0.35576 0.0
C79 C 0.23756 0.95442 0.47155 0.0
O80 O 0.2338 0.93527 0.47025 0.0
O81 O 0.23593 0.96331 0.42135 0.0
O82 O 0.24522 0.90117 0.43611 0.0
O83 O 0.25855 0.92319 0.35428 0.0
O84 O 0.64898 0.92277 0.84794 0.0
Cd85 Cd 0.64375 0.9484 0.83855 0.0
Cd86 Cd 0.60606 0.91894 0.89784 0.0
O87 O 0.61631 0.89725 0.8738 0.0
O88 O 0.66332 0.96635 0.76841 0.0
O89 O 0.62802 0.94912 0.76024 0.0
C90 C 0.64654 0.96069 0.73386 0.0
C91 C 0.57193 0.9151 0.90178 0.0
C92 C 0.63574 0.90315 0.85941 0.0
C93 C 0.63817 0.95841 0.97021 0.0
O94 O 0.62254 0.9394 0.96973 0.0
O95 O 0.64885 0.96681 0.91987 0.0
O96 O 0.57723 0.90443 0.93951 0.0
O97 O 0.58479 0.92536 0.85549 0.0
O98 O 0.09105 0.81902 0.84631 0.0
Cd99 Cd 0.06541 0.78816 0.83864 0.0
Cd100 Cd 0.09511 0.78029 0.89662 0.0
O101 O 0.11677 0.81191 0.86989 0.0
O102 O 0.04708 0.78954 0.76927 0.0
O103 O 0.06434 0.77147 0.76053 0.0
C104 C 0.05265 0.77836 0.73455 0.0
C105 C 0.09839 0.74969 0.9001 0.0
C106 C 0.11079 0.82539 0.85587 0.0
C107 C 0.05624 0.77341 0.97108 0.0
O108 O 0.07534 0.77702 0.96994 0.0
O109 O 0.04745 0.77518 0.92082 0.0
O110 O 0.10963 0.76577 0.93699 0.0
O111 O 0.08783 0.75231 0.85475 0.0
O112 O 0.18891 0.36248 0.85586 0.0
Cd113 Cd 0.22004 0.36846 0.85113 0.0
Cd114 Cd 0.22676 0.4052 0.9021 0.0
O115 O 0.19637 0.39603 0.8652 0.0
O116 O 0.22006 0.34849 0.78437 0.0
O117 O 0.23631 0.38364 0.77247 0.0
C118 C 0.23048 0.36504 0.74833 0.0
C119 C 0.2614 0.43326 0.89112 0.0
C120 C 0.18272 0.37621 0.85666 0.0
C121 C 0.23279 0.37617 0.98625 0.0
O122 O 0.22668 0.38989 0.98291 0.0
O123 O 0.23375 0.36662 0.93646 0.0
O124 O 0.24736 0.43624 0.92078 0.0
O125 O 0.25469 0.41574 0.85903 0.0
O126 O 0.85894 0.69517 0.68542 0.0
Cd127 Cd 0.88464 0.69 0.69224 0.0
Cd128 Cd 0.8555 0.65295 0.63817 0.0
O129 O 0.83326 0.66189 0.66767 0.0
O130 O 0.90306 0.70965 0.76146 0.0
O131 O 0.88554 0.67435 0.7703 0.0
C132 C 0.89724 0.6929 0.79634 0.0
C133 C 0.85612 0.621 0.63982 0.0
C134 C 0.83913 0.68149 0.67933 0.0
C135 C 0.89261 0.68412 0.55912 0.0
O136 O 0.87331 0.66911 0.56147 0.0
O137 O 0.9021 0.69437 0.60916 0.0
O138 O 0.84275 0.62315 0.60408 0.0
O139 O 0.86657 0.63564 0.68194 0.0
O140 O 0.31744 0.25629 0.68623 0.0
Cd141 Cd 0.3229 0.28724 0.69354 0.0
Cd142 Cd 0.35982 0.29464 0.63818 0.0
O143 O 0.35054 0.26342 0.66749 0.0
O144 O 0.3032 0.28604 0.76272 0.0
O145 O 0.33848 0.30358 0.77205 0.0
C146 C 0.3199 0.2968 0.79788 0.0
C147 C 0.39234 0.3266 0.63768 0.0
C148 C 0.33092 0.2499 0.67953 0.0
C149 C 0.32864 0.30111 0.56039 0.0
O150 O 0.34353 0.2966 0.56226 0.0
O151 O 0.31855 0.30047 0.61069 0.0
O152 O 0.38941 0.31074 0.60222 0.0
O153 O 0.37813 0.32306 0.68074 0.0
O154 O 0.75303 0.15325 0.68076 0.0
Cd155 Cd 0.72218 0.12764 0.68782 0.0
Cd156 Cd 0.71444 0.15689 0.63408 0.0
O157 O 0.74554 0.17907 0.66374 0.0
O158 O 0.72349 0.10924 0.75705 0.0
O159 O 0.70581 0.12689 0.76618 0.0
C160 C 0.7127 0.1152 0.79215 0.0
C161 C 0.68188 0.15624 0.63612 0.0
C162 C 0.75921 0.17309 0.67503 0.0
C163 C 0.70848 0.11983 0.55464 0.0
O164 O 0.71287 0.13917 0.55718 0.0
O165 O 0.70909 0.11023 0.60465 0.0
O166 O 0.69736 0.16966 0.60041 0.0
O167 O 0.6861 0.14573 0.678 0.0
O168 O 0.9834 0.48624 0.51828 0.0
Cd169 Cd 0.98849 0.46051 0.52519 0.0
Cd170 Cd 0.02552 0.48953 0.47179 0.0
O171 O 0.01676 0.51188 0.50154 0.0
O172 O 0.96882 0.44211 0.59444 0.0
O173 O 1.00413 0.45964 0.6033 0.0
C174 C 0.98557 0.44797 0.62935 0.0
C175 C 0.0571 0.48825 0.47447 0.0
C176 C 0.99714 0.50605 0.5127 0.0
C177 C 0.99444 0.45269 0.39204 0.0
O178 O 0.00942 0.472 0.39463 0.0
O179 O 0.98419 0.44311 0.442 0.0
O180 O 0.05542 0.50192 0.43884 0.0
O181 O 0.04221 0.47786 0.516 0.0
O182 O 0.52681 0.58728 0.50324 0.0
Cd183 Cd 0.55208 0.61823 0.50946 0.0
Cd184 Cd 0.52258 0.62546 0.45838 0.0
O185 O 0.50097 0.59515 0.49511 0.0
O186 O 0.57159 0.61764 0.57684 0.0
O187 O 0.55274 0.63396 0.58896 0.0
C188 C 0.56523 0.62779 0.61327 0.0
C189 C 0.53094 0.66064 0.46911 0.0
C190 C 0.50695 0.5813 0.50274 0.0
C191 C 0.55729 0.63105 0.37439 0.0
O192 O 0.53742 0.62477 0.37761 0.0
O193 O 0.56781 0.63219 0.42433 0.0
O194 O 0.51343 0.64714 0.44042 0.0
O195 O 0.54118 0.65319 0.50083 0.0
O196 O 0.4202 0.02691 0.51632 0.0
Cd197 Cd 0.38928 0.02153 0.52358 0.0
Cd198 Cd 0.38171 0.98462 0.46961 0.0
O199 O 0.41289 0.99369 0.49903 0.0
O200 O 0.39046 0.04119 0.59285 0.0
O201 O 0.37296 0.00589 0.60195 0.0
C202 C 0.37973 0.02445 0.62792 0.0
C203 C 0.34925 0.95266 0.47151 0.0
C204 C 0.42649 0.01333 0.51036 0.0
C205 C 0.37547 0.01558 0.39049 0.0
O206 O 0.38 1.00072 0.39284 0.0
O207 O 0.37605 0.02575 0.44057 0.0
O208 O 0.36477 0.9548 0.43577 0.0
O209 O 0.3534 0.96733 0.51353 0.0
O210 O 0.75825 0.69867 0.68063 0.0
Cd211 Cd 0.7324 0.70358 0.67283 0.0
Cd212 Cd 0.76196 0.74129 0.73196 0.0
O213 O 0.78379 0.73146 0.70518 0.0
O214 O 0.71425 0.68368 0.60354 0.0
O215 O 0.73109 0.71894 0.59441 0.0
C216 C 0.71961 0.70031 0.56858 0.0
C217 C 0.76522 0.77518 0.73698 0.0
C218 C 0.77794 0.71206 0.69066 0.0
C219 C 0.72299 0.70886 0.80541 0.0
O220 O 0.74202 0.72448 0.80458 0.0
O221 O 0.71434 0.69836 0.75498 0.0
O222 O 0.77634 0.77013 0.77366 0.0
O223 O 0.75478 0.76223 0.69104 0.0
O224 O 0.31275 0.15154 0.68116 0.0
Cd225 Cd 0.30729 0.12057 0.67365 0.0
Cd226 Cd 0.26991 0.11305 0.73094 0.0
O227 O 0.27995 0.14467 0.70391 0.0
O228 O 0.32686 0.1217 0.60423 0.0
O229 O 0.29156 0.10395 0.59568 0.0
C230 C 0.31009 0.11066 0.56959 0.0
C231 C 0.23615 0.08239 0.73365 0.0
C232 C 0.29947 0.15805 0.69022 0.0
C233 C 0.30156 0.10595 0.80611 0.0
O234 O 0.28623 0.10981 0.80477 0.0
O235 O 0.31206 0.10749 0.75591 0.0
O236 O 0.24076 0.09844 0.77045 0.0
O237 O 0.2495 0.08508 0.68871 0.0
O238 O 0.85745 0.2535 0.67663 0.0
Cd239 Cd 0.88842 0.279 0.66916 0.0
Cd240 Cd 0.89598 0.24906 0.72731 0.0
O241 O 0.86433 0.22764 0.70053 0.0
O242 O 0.8873 0.29747 0.59982 0.0
O243 O 0.90512 0.27997 0.5912 0.0
C244 C 0.89843 0.29182 0.5652 0.0
C245 C 0.92622 0.24519 0.7311 0.0
C246 C 0.85095 0.23374 0.6863 0.0
C247 C 0.90326 0.28812 0.8016 0.0
O248 O 0.89952 0.26897 0.80052 0.0
O249 O 0.90151 0.29691 0.75135 0.0
O250 O 0.91008 0.23418 0.76797 0.0
O251 O 0.92383 0.25587 0.68561 0.0
O252 O 0.31249 0.25282 0.18225 0.0
Cd253 Cd 0.30749 0.27861 0.17453 0.0
Cd254 Cd 0.26984 0.249 0.23329 0.0
O255 O 0.27969 0.22721 0.20636 0.0
O256 O 0.32736 0.29681 0.10527 0.0
O257 O 0.29209 0.27986 0.09613 0.0
C258 C 0.31072 0.29139 0.07031 0.0
C259 C 0.23599 0.24584 0.23783 0.0
C260 C 0.29912 0.23311 0.19202 0.0
C261 C 0.30212 0.2879 0.30714 0.0
O262 O 0.28657 0.26885 0.30619 0.0
O263 O 0.31261 0.29662 0.25674 0.0
O264 O 0.24092 0.23462 0.27451 0.0
O265 O 0.24904 0.25632 0.19213 0.0
O266 O 0.75729 0.15354 0.17618 0.0
Cd267 Cd 0.7317 0.12263 0.16856 0.0
Cd268 Cd 0.76155 0.11488 0.22699 0.0
O269 O 0.78304 0.14654 0.2005 0.0
O270 O 0.71331 0.12388 0.09917 0.0
O271 O 0.73066 0.1059 0.09055 0.0
C272 C 0.71888 0.11269 0.06455 0.0
C273 C 0.76549 0.08468 0.23117 0.0
C274 C 0.77702 0.15997 0.18613 0.0
C275 C 0.72244 0.10771 0.30092 0.0
O276 O 0.74153 0.11132 0.29993 0.0
O277 O 0.71372 0.10959 0.25066 0.0
O278 O 0.7764 0.10082 0.26811 0.0
O279 O 0.75487 0.08704 0.18544 0.0
O280 O 0.85954 0.69861 0.18019 0.0
Cd281 Cd 0.89054 0.70416 0.17278 0.0
Cd282 Cd 0.89794 0.74148 0.23003 0.0
O283 O 0.86633 0.73139 0.2028 0.0
O284 O 0.8895 0.68463 0.10337 0.0
O285 O 0.90716 0.71993 0.09486 0.0
C286 C 0.90051 0.70141 0.06876 0.0
C287 C 0.92859 0.77525 0.23272 0.0
C288 C 0.85298 0.71186 0.18914 0.0
C289 C 0.90513 0.70992 0.30529 0.0
O290 O 0.90118 0.72519 0.30394 0.0
O291 O 0.90365 0.69945 0.25508 0.0
O292 O 0.91252 0.77065 0.26944 0.0
O293 O 0.92591 0.76188 0.18784 0.0
O294 O 0.52484 0.02788 0.01657 0.0
Cd295 Cd 0.55059 0.02282 0.02349 0.0
Cd296 Cd 0.52159 0.98577 0.97006 0.0
O297 O 0.49923 0.99452 0.99967 0.0
O298 O 0.56897 0.04252 0.09274 0.0
O299 O 0.55149 0.00721 0.10162 0.0
C300 C 0.56314 0.02578 0.12767 0.0
C301 C 0.52285 0.95417 0.97287 0.0
C302 C 0.50503 0.01413 1.01088 0.0
C303 C 0.55844 0.01689 0.89035 0.0
O304 O 0.53915 1.00187 0.89294 0.0
O305 O 0.568 0.02716 0.94031 0.0
O306 O 0.50921 0.95586 0.93712 0.0
O307 O 0.53322 0.96906 1.0144 0.0
O308 O 0.9844 0.59083 0.01884 0.0
Cd309 Cd 0.98971 0.62173 0.02614 0.0
Cd310 Cd 0.02661 0.62935 0.97178 0.0
O311 O 0.01761 0.59818 1.0011 0.0
O312 O 0.97003 0.62048 0.09542 0.0
O313 O 1.00533 0.63809 0.10451 0.0
C314 C 0.98676 0.63126 0.13048 0.0
C315 C 0.05858 0.66181 0.97328 0.0
C316 C 0.99798 0.58456 1.01262 0.0
C317 C 0.99551 0.63551 0.89303 0.0
O318 O 0.01042 0.63104 0.89523 0.0
O319 O 0.98537 0.63491 0.94319 0.0
O320 O 0.05638 0.64627 0.93754 0.0
O321 O 0.04398 0.65769 1.01552 0.0
O322 O 0.42359 0.48422 1.00295 0.0
Cd323 Cd 0.39262 0.45899 1.00924 0.0
Cd324 Cd 0.38545 0.48853 0.95816 0.0
O325 O 0.41578 0.5101 0.99488 0.0
O326 O 0.39318 0.43946 0.07662 0.0
O327 O 0.37693 0.45838 0.0888 0.0
C328 C 0.38307 0.44587 0.11308 0.0
C329 C 0.35028 0.48018 0.96896 0.0
C330 C 0.4296 0.50409 1.00247 0.0
C331 C 0.37977 0.4538 0.87417 0.0
O332 O 0.38611 0.47367 0.87738 0.0
O333 O 0.37861 0.44327 0.92412 0.0
O334 O 0.36378 0.49769 0.94027 0.0
O335 O 0.35773 0.46993 1.00064 0.0
O336 O 0.65313 0.82259 0.86582 0.0
Cd337 Cd 0.65778 0.7966 0.87258 0.0
Cd338 Cd 0.69439 0.82496 0.81446 0.0
O339 O 0.68613 0.84784 0.84272 0.0
O340 O 0.63821 0.77864 0.94234 0.0
O341 O 0.67352 0.79521 0.94989 0.0
C342 C 0.65499 0.78392 0.97649 0.0
C343 C 0.72615 0.82392 0.81288 0.0
C344 C 0.66675 0.84225 0.85668 0.0
C345 C 0.66144 0.78755 0.73927 0.0
O346 O 0.67706 0.80656 0.74013 0.0
O347 O 0.65155 0.77856 0.79018 0.0
O348 O 0.72367 0.83702 0.77685 0.0
O349 O 0.71207 0.81404 0.85689 0.0
O350 O 0.1915 0.92327 0.85137 0.0
Cd351 Cd 0.21714 0.95412 0.85843 0.0
Cd352 Cd 0.18794 0.96194 0.8044 0.0
O353 O 0.16575 0.9308 0.83377 0.0
O354 O 0.23556 0.95284 0.92766 0.0
O355 O 0.21796 0.97058 0.93666 0.0
C356 C 0.22968 0.96371 0.96265 0.0
C357 C 0.1884 0.99441 0.80607 0.0
C358 C 0.17168 0.9171 0.84529 0.0
C359 C 0.2251 0.96793 0.72534 0.0
O360 O 0.20578 0.9636 0.72771 0.0
O361 O 0.23461 0.96721 0.77539 0.0
O362 O 0.17508 0.97889 0.7703 0.0
O363 O 0.19889 0.99028 0.84821 0.0
O364 O 0.08476 0.35893 0.84704 0.0
Cd365 Cd 0.05377 0.35327 0.85575 0.0
Cd366 Cd 0.04626 0.31639 0.80255 0.0
O367 O 0.07746 0.32561 0.83177 0.0
O368 O 0.05492 0.37274 0.9256 0.0
O369 O 0.03786 0.33744 0.93442 0.0
C370 C 0.04449 0.35594 0.96066 0.0
C371 C 0.01391 0.28437 0.80476 0.0
C372 C 0.09108 0.34535 0.84177 0.0
C373 C 0.03944 0.34689 0.72324 0.0
O374 O 0.04433 0.33228 0.72558 0.0
O375 O 0.03995 0.35704 0.77329 0.0
O376 O 0.02945 0.28652 0.76909 0.0
O377 O 0.01801 0.29906 0.84667 0.0
O378 O 0.42401 0.03113 1.01215 0.0
Cd379 Cd 0.39825 0.03621 1.00446 0.0
Cd380 Cd 0.42777 0.07378 0.06271 0.0
O381 O 0.44959 0.06398 0.03589 0.0
O382 O 0.38 0.0165 0.93502 0.0
O383 O 0.3971 0.05179 0.9264 0.0
C384 C 0.38548 0.03322 0.90036 0.0
C385 C 0.43074 0.10752 0.06652 0.0
C386 C 0.44372 0.04454 0.02178 0.0
C387 C 0.38896 0.04168 0.13691 0.0
O388 O 0.40804 0.05719 0.13591 0.0
O389 O 0.38023 0.03116 0.08657 0.0
O390 O 0.44207 0.10278 0.10331 0.0
O391 O 0.42027 0.09435 0.02105 0.0
O392 O 0.98 0.48622 1.01334 0.0
Cd393 Cd 0.97448 0.45523 1.00578 0.0
Cd394 Cd 0.93709 0.44768 0.06306 0.0
O395 O 0.94721 0.47934 0.03635 0.0
O396 O 0.99397 0.45624 0.93627 0.0
O397 O 0.95866 0.43856 0.92795 0.0
C398 C 0.97717 0.44519 0.90178 0.0
C399 C 0.90325 0.41712 0.0655 0.0
C400 C 0.96672 0.49273 0.02262 0.0
C401 C 0.96868 0.44046 0.13814 0.0
O402 O 0.95333 0.44428 0.13684 0.0
O403 O 0.97923 0.4421 0.08797 0.0
O404 O 0.90793 0.43314 0.1025 0.0
O405 O 0.9166 0.4198 0.02057 0.0
O406 O 0.52777 0.58431 0.9986 0.0
Cd407 Cd 0.55859 0.60987 0.98977 0.0
Cd408 Cd 0.56646 0.58074 0.05119 0.0
O409 O 0.53481 0.55879 0.02558 0.0
O410 O 0.55708 0.62773 0.91942 0.0
O411 O 0.5754 0.6107 0.91211 0.0
C412 C 0.56844 0.62222 0.8854 0.0
C413 C 0.59702 0.57748 0.05804 0.0
C414 C 0.52134 0.5647 1.01041 0.0
C415 C 0.57285 0.62017 0.12177 0.0
O416 O 0.56955 0.60117 0.12222 0.0
O417 O 0.57109 0.62853 0.07066 0.0
O418 O 0.58082 0.56661 0.09484 0.0
O419 O 0.59454 0.58756 1.01099 0.0
O420 O 0.98011 0.58706 0.5146 0.0
Cd421 Cd 0.97497 0.61279 0.50698 0.0
Cd422 Cd 0.93743 0.58326 0.56467 0.0
O423 O 0.94723 0.56144 0.53773 0.0
O424 O 0.99468 0.63109 0.43762 0.0
O425 O 0.95939 0.6139 0.4289 0.0
C426 C 0.97796 0.62557 0.40291 0.0
C427 C 0.90378 0.5805 0.56761 0.0
C428 C 0.96669 0.56734 0.52389 0.0
C429 C 0.96938 0.62193 0.63946 0.0
O430 O 0.95392 0.60283 0.63829 0.0
O431 O 0.97991 0.63074 0.58919 0.0
O432 O 0.90832 0.56902 0.60446 0.0
O433 O 0.91712 0.59101 0.52253 0.0
O434 O 0.42663 0.4832 0.49858 0.0
Cd435 Cd 0.40101 0.4524 0.48965 0.0
Cd436 Cd 0.4301 0.44445 0.55146 0.0
O437 O 0.45208 0.4761 0.52596 0.0
O438 O 0.38321 0.45402 0.41928 0.0
O439 O 0.40013 0.43559 0.41193 0.0
C440 C 0.38867 0.44262 0.38522 0.0
C441 C 0.43345 0.41395 0.55882 0.0
C442 C 0.44622 0.48959 0.51061 0.0
C443 C 0.3906 0.43813 0.62162 0.0
O444 O 0.40957 0.44135 0.62219 0.0
O445 O 0.3823 0.43995 0.57046 0.0
O446 O 0.44423 0.43018 0.5956 0.0
O447 O 0.42341 0.41637 0.51153 0.0
O448 O 0.52485 0.03139 0.51159 0.0
Cd449 Cd 0.55585 0.03692 0.50408 0.0
Cd450 Cd 0.56335 0.07429 0.56147 0.0
O451 O 0.5317 0.06416 0.53461 0.0
O452 O 0.55484 0.01742 0.43459 0.0
O453 O 0.57251 0.05273 0.42625 0.0
C454 C 0.5659 0.03422 0.40009 0.0
C455 C 0.5939 0.10813 0.56413 0.0
C456 C 0.51832 0.04465 0.52084 0.0
C457 C 0.57059 0.04269 0.63648 0.0
O458 O 0.56673 0.05803 0.63522 0.0
O459 O 0.56898 0.03217 0.58627 0.0
O460 O 0.57786 0.10343 0.60104 0.0
O461 O 0.59126 0.09481 0.51915 0.0
O462 O 0.18845 0.35795 0.3659 0.0
Cd463 Cd 0.21446 0.35335 0.37263 0.0
Cd464 Cd 0.18615 0.31671 0.31453 0.0
O465 O 0.16323 0.32493 0.34275 0.0
O466 O 0.23241 0.37294 0.4424 0.0
O467 O 0.21589 0.33762 0.44992 0.0
C468 C 0.22715 0.35615 0.47653 0.0
C469 C 0.18724 0.28498 0.31308 0.0
C470 C 0.16879 0.3443 0.35674 0.0
C471 C 0.22352 0.3497 0.23931 0.0
O472 O 0.20453 0.33404 0.24019 0.0
O473 O 0.2325 0.35962 0.29021 0.0
O474 O 0.17414 0.28743 0.27699 0.0
O475 O 0.1971 0.29908 0.35705 0.0
O476 O 0.65191 0.92611 0.34748 0.0
Cd477 Cd 0.6575 0.95708 0.35618 0.0
Cd478 Cd 0.6944 0.96467 0.30295 0.0
O479 O 0.68523 0.93347 0.3321 0.0
O480 O 0.63802 0.95589 0.42604 0.0
O481 O 0.67332 0.97302 0.43481 0.0
C482 C 0.65482 0.96636 0.46106 0.0
C483 C 0.72641 0.99702 0.30509 0.0
C484 C 0.66551 0.91983 0.34214 0.0
C485 C 0.66383 0.97141 0.22369 0.0
O486 O 0.67849 0.96658 0.22602 0.0
O487 O 0.65366 0.97085 0.27374 0.0
O488 O 0.72425 0.98149 0.26941 0.0
O489 O 0.71173 0.99292 0.34704 0.0
O490 O 0.08754 0.8196 0.35077 0.0
Cd491 Cd 0.05665 0.79403 0.35787 0.0
Cd492 Cd 0.04897 0.82332 0.30379 0.0
O493 O 0.08012 0.84544 0.33327 0.0
O494 O 0.05787 0.77558 0.42708 0.0
O495 O 0.04025 0.79329 0.43619 0.0
C496 C 0.04706 0.78153 0.46213 0.0
C497 C 0.01653 0.82293 0.30541 0.0
C498 C 0.09376 0.83944 0.34474 0.0
C499 C 0.04284 0.78612 0.22475 0.0
O500 O 0.04727 0.80548 0.22709 0.0
O501 O 0.04348 0.77657 0.27483 0.0
O502 O 0.03207 0.83624 0.26969 0.0
O503 O 0.02063 0.81241 0.34755 0.0
C504 C 0.29399 0.09813 0.46131 0.0
C505 C 0.3122 0.10796 0.50046 0.0
H506 H 0.28171 0.09205 0.36651 0.0
C507 C 0.33257 0.11736 0.47187 0.0
H508 H 0.27806 0.09068 0.48162 0.0
C509 C 0.33468 0.11817 0.40572 0.0
C510 C 0.31647 0.10958 0.36651 0.0
H511 H 0.34697 0.12503 0.50048 0.0
H512 H 0.35062 0.12645 0.38539 0.0
C513 C 0.2961 0.09891 0.39516 0.0
C514 C 0.9112 0.28851 0.45695 0.0
C515 C 0.90131 0.29683 0.4962 0.0
H516 H 0.91754 0.28261 0.36206 0.0
C517 C 0.89207 0.30799 0.46778 0.0
H518 H 0.91852 0.27988 0.47712 0.0
C519 C 0.89149 0.30955 0.40166 0.0
C520 C 0.90014 0.30001 0.36229 0.0
H521 H 0.88437 0.31468 0.49647 0.0
H522 H 0.88333 0.31736 0.38144 0.0
C523 C 0.91063 0.29009 0.39082 0.0
C524 C 0.72284 0.71606 0.45991 0.0
C525 C 0.71476 0.69796 0.49945 0.0
H526 H 0.72872 0.72812 0.36483 0.0
C527 C 0.70405 0.67751 0.47127 0.0
H528 H 0.73113 0.73205 0.47987 0.0
C529 C 0.70267 0.67524 0.40515 0.0
C530 C 0.71196 0.69336 0.36554 0.0
H531 H 0.69756 0.66319 0.50018 0.0
H532 H 0.6952 0.65926 0.38516 0.0
C533 C 0.72144 0.71379 0.39379 0.0
C534 C 0.03324 0.33976 0.06936 0.0
C535 C 0.04251 0.358 0.03025 0.0
H536 H 0.02817 0.3274 0.16401 0.0
C537 C 0.05211 0.37834 0.05909 0.0
H538 H 0.02569 0.32384 0.04891 0.0
C539 C 0.05358 0.3804 0.12527 0.0
C540 C 0.04547 0.36217 0.16427 0.0
H541 H 0.05939 0.39276 0.03053 0.0
H542 H 0.06193 0.39632 0.14568 0.0
C543 C 0.03469 0.34181 0.13553 0.0
C544 C 0.66893 0.78733 0.15124 0.0
C545 C 0.64851 0.7777 0.17951 0.0
H546 H 0.68706 0.79668 0.06487 0.0
C547 C 0.63036 0.76761 0.14017 0.0
H548 H 0.68326 0.79521 0.18006 0.0
C549 C 0.63255 0.76844 0.07412 0.0
C550 C 0.65293 0.77939 0.04572 0.0
H551 H 0.61439 0.75996 0.16023 0.0
H552 H 0.61817 0.76138 0.04535 0.0
C553 C 0.67112 0.78817 0.08507 0.0
C554 C 0.24539 0.95472 0.12674 0.0
C555 C 0.23551 0.96306 0.16597 0.0
H556 H 0.25156 0.94863 0.03188 0.0
C557 C 0.22613 0.97407 0.13749 0.0
H558 H 0.25282 0.9462 0.14696 0.0
C559 C 0.22538 0.97546 0.07135 0.0
C560 C 0.23403 0.96589 0.03204 0.0
H561 H 0.21843 0.98077 0.16616 0.0
H562 H 0.21712 0.98315 0.0511 0.0
C563 C 0.24466 0.95613 0.0606 0.0
C564 C 0.66896 0.97626 0.6359 0.0
C565 C 0.64862 0.96544 0.66467 0.0
H566 H 0.68692 0.98528 0.54927 0.0
C567 C 0.63037 0.95727 0.62569 0.0
H568 H 0.68338 0.98282 0.66437 0.0
C569 C 0.63242 0.95873 0.55951 0.0
C570 C 0.65276 0.96836 0.53065 0.0
H571 H 0.61446 0.9489 0.64612 0.0
H572 H 0.618 0.95141 0.53097 0.0
C573 C 0.67101 0.97769 0.56974 0.0
C574 C 0.05458 0.76646 0.56002 0.0
C575 C 0.0449 0.77718 0.53154 0.0
H576 H 0.06446 0.7582 0.64632 0.0
C577 C 0.03544 0.78591 0.57092 0.0
H578 H 0.062 0.75949 0.53124 0.0
C579 C 0.03684 0.78515 0.63705 0.0
C580 C 0.04776 0.77566 0.66546 0.0
H581 H 0.02781 0.79425 0.55072 0.0
H582 H 0.03022 0.79291 0.66578 0.0
C583 C 0.056 0.76571 0.62616 0.0
C584 C 0.2426 0.3786 0.57417 0.0
C585 C 0.23168 0.35822 0.54576 0.0
H586 H 0.25104 0.39676 0.66029 0.0
C587 C 0.22292 0.34003 0.5851 0.0
H588 H 0.24965 0.39298 0.54542 0.0
C589 C 0.22375 0.34221 0.65127 0.0
C590 C 0.23334 0.36263 0.67955 0.0
H591 H 0.21444 0.32409 0.56489 0.0
H592 H 0.21588 0.32788 0.68008 0.0
C593 C 0.24341 0.38078 0.64022 0.0
C594 C 0.89311 0.67685 0.90488 0.0
C595 C 0.90166 0.69506 0.86569 0.0
H596 H 0.88628 0.66455 0.99963 0.0
C597 C 0.91225 0.71543 0.89435 0.0
H598 H 0.88489 0.66091 0.88455 0.0
C599 C 0.91303 0.71754 0.9605 0.0
C600 C 0.90324 0.69932 0.99964 0.0
H601 H 0.91908 0.72983 0.86571 0.0
H602 H 0.92042 0.73346 0.98082 0.0
C603 C 0.89391 0.67895 0.97103 0.0
C604 C 0.29494 0.28809 0.96163 0.0
C605 C 0.31305 0.29623 1.00117 0.0
H606 H 0.28288 0.28214 0.86657 0.0
C607 C 0.3335 0.30698 0.97298 0.0
H608 H 0.27896 0.27977 0.9816 0.0
C609 C 0.33577 0.30834 0.90686 0.0
C610 C 0.31765 0.29898 0.86726 0.0
H611 H 0.34782 0.31352 1.00189 0.0
H612 H 0.35174 0.31584 0.88686 0.0
C613 C 0.29721 0.28946 0.89551 0.0
C614 C 0.70124 0.11975 0.90099 0.0
C615 C 0.71069 0.11099 0.86163 0.0
H616 H 0.69618 0.12693 0.9958 0.0
C617 C 0.72052 0.10042 0.89016 0.0
H618 H 0.6935 0.12797 0.88077 0.0
C619 C 0.7221 0.09985 0.95629 0.0
C620 C 0.71387 0.10983 0.99554 0.0
H621 H 0.72793 0.09344 0.8614 0.0
H622 H 0.73066 0.09246 0.97647 0.0
C623 C 0.70281 0.11916 0.96711 0.0
C624 C 0.99957 0.45158 0.80406 0.0
C625 C 0.97922 0.44234 0.83271 0.0
H626 H 0.01758 0.46039 0.71753 0.0
C627 C 0.96098 0.43252 0.79365 0.0
H628 H 0.01398 0.45922 0.83261 0.0
C629 C 0.96306 0.43316 0.72749 0.0
C630 C 0.98343 0.44366 0.69876 0.0
H631 H 0.94507 0.4252 0.814 0.0
H632 H 0.94866 0.42632 0.69888 0.0
C633 C 1.00165 0.45224 0.73792 0.0
C634 C 0.58007 0.61974 0.71084 0.0
C635 C 0.56981 0.62992 0.68248 0.0
H636 H 0.58787 0.60946 0.79722 0.0
C637 C 0.5616 0.63987 0.7219 0.0
H638 H 0.58659 0.61193 0.68198 0.0
C639 C 0.56234 0.63845 0.78795 0.0
C640 C 0.57129 0.62703 0.81632 0.0
H641 H 0.55367 0.64792 0.70179 0.0
H642 H 0.55497 0.64549 0.81666 0.0
C643 C 0.58079 0.61831 0.77703 0.0
C644 C 0.36968 0.01062 0.80285 0.0
C645 C 0.38056 0.03102 0.83129 0.0
H646 H 0.36063 0.9925 0.7165 0.0
C647 C 0.38873 0.0492 0.79202 0.0
H648 H 0.3631 0.99625 0.83155 0.0
C649 C 0.38727 0.04703 0.72588 0.0
C650 C 0.37762 0.02663 0.69736 0.0
H651 H 0.39716 0.06515 0.8122 0.0
H652 H 0.39463 0.0614 0.69712 0.0
C653 C 0.36823 0.00846 0.73672 0.0
C654 C 0.55953 0.01181 0.3024 0.0
C655 C 0.56875 0.03216 0.33103 0.0
H656 H 0.55073 0.99379 0.21589 0.0
C657 C 0.57856 0.05039 0.29194 0.0
H658 H 0.55189 0.9974 0.33097 0.0
C659 C 0.57792 0.04831 0.22579 0.0
C660 C 0.56744 0.02794 0.19708 0.0
H661 H 0.58586 0.06632 0.31228 0.0
H662 H 0.58475 0.0627 0.19716 0.0
C663 C 0.55887 0.00972 0.23626 0.0
C664 C 0.96199 0.62226 0.29454 0.0
C665 C 0.98016 0.63047 0.33383 0.0
H666 H 0.9498 0.61631 0.19962 0.0
C667 C 1.00056 0.64139 0.30542 0.0
H668 H 0.94604 0.61381 0.3147 0.0
C669 C 1.00273 0.64283 0.23929 0.0
C670 C 0.98456 0.63339 0.19991 0.0
H671 H 0.01493 0.648 0.33415 0.0
H672 H 0.01869 0.65045 0.2191 0.0
C673 C 0.96416 0.62371 0.2284 0.0
C674 C 0.39109 0.43098 0.21064 0.0
C675 C 0.38096 0.44129 0.1823 0.0
H676 H 0.40134 0.42313 0.29698 0.0
C677 C 0.37106 0.44955 0.22176 0.0
H678 H 0.39886 0.42442 0.18174 0.0
C679 C 0.37248 0.4488 0.2878 0.0
C680 C 0.38386 0.4398 0.31614 0.0
H681 H 0.36305 0.45752 0.20168 0.0
H682 H 0.36548 0.4562 0.31654 0.0
C683 C 0.39253 0.43026 0.27682 0.0
C684 C 0.293 0.19547 0.20051 0.0
C685 C 0.30683 0.21735 0.18856 0.0
H686 H 0.28937 0.1642 0.20773 0.0
C687 C 0.32851 0.22429 0.17479 0.0
H688 H 0.27627 0.18953 0.21152 0.0
C689 C 0.33612 0.20977 0.17288 0.0
C690 C 0.32226 0.18788 0.18459 0.0
H691 H 0.33973 0.24104 0.16551 0.0
H692 H 0.35284 0.2157 0.16178 0.0
C693 C 0.30059 0.18095 0.1985 0.0
C694 C 0.81455 0.19144 0.1951 0.0
C695 C 0.79269 0.18342 0.18295 0.0
H696 H 0.84578 0.21904 0.20279 0.0
C697 C 0.78572 0.19815 0.16932 0.0
H698 H 0.82052 0.18067 0.20603 0.0
C699 C 0.80022 0.22027 0.16772 0.0
C700 C 0.8221 0.22827 0.17962 0.0
H701 H 0.76897 0.19262 0.15991 0.0
H702 H 0.79428 0.23106 0.1567 0.0
C703 C 0.82904 0.21354 0.19342 0.0
C704 C 0.82124 0.7176 0.19746 0.0
C705 C 0.8295 0.70392 0.18565 0.0
H706 H 0.7934 0.72089 0.20478 0.0
C707 C 0.81495 0.68218 0.17211 0.0
H708 H 0.83186 0.73436 0.2083 0.0
C709 C 0.7928 0.67436 0.17033 0.0
C710 C 0.78455 0.68806 0.18198 0.0
H711 H 0.82066 0.67108 0.16293 0.0
H712 H 0.78217 0.6576 0.15943 0.0
C713 C 0.7991 0.70979 0.19563 0.0
C714 C 0.11676 0.34584 0.34311 0.0
C715 C 0.12349 0.36738 0.35828 0.0
H716 H 0.1255 0.32157 0.33113 0.0
C717 C 0.14509 0.38098 0.37423 0.0
H718 H 0.10022 0.3348 0.3308 0.0
C719 C 0.15955 0.37331 0.37471 0.0
C720 C 0.15286 0.3518 0.35925 0.0
H721 H 0.15087 0.39758 0.38651 0.0
H722 H 0.17609 0.38438 0.38693 0.0
C723 C 0.13124 0.33815 0.34359 0.0
C724 C 0.66437 0.86635 0.34124 0.0
C725 C 0.64243 0.85158 0.35093 0.0
H726 H 0.6889 0.89927 0.33115 0.0
C727 C 0.62827 0.85952 0.3576 0.0
H728 H 0.67583 0.86088 0.33598 0.0
C729 C 0.63584 0.88162 0.3551 0.0
C730 C 0.6578 0.8964 0.34579 0.0
H731 H 0.61133 0.8487 0.36536 0.0
H732 H 0.62439 0.88708 0.36056 0.0
C733 C 0.67195 0.88845 0.33867 0.0
C734 C 0.15397 0.86258 0.36407 0.0
C735 C 0.16206 0.88449 0.35239 0.0
H736 H 0.12631 0.83137 0.37131 0.0
C737 C 0.14738 0.89154 0.33906 0.0
H738 H 0.16471 0.85654 0.37475 0.0
C739 C 0.12525 0.8771 0.33733 0.0
C740 C 0.11718 0.85518 0.34882 0.0
H741 H 0.15295 0.90831 0.33 0.0
H742 H 0.11451 0.88311 0.32658 0.0
C743 C 0.13186 0.84814 0.36228 0.0
C744 C 0.66515 0.89426 0.84325 0.0
C745 C 0.64359 0.88748 0.85827 0.0
H746 H 0.68945 0.88556 0.83137 0.0
C747 C 0.62999 0.86587 0.87402 0.0
H748 H 0.67618 0.91081 0.83108 0.0
C749 C 0.63769 0.85143 0.87448 0.0
C750 C 0.65922 0.85816 0.85919 0.0
H751 H 0.61338 0.86006 0.88618 0.0
H752 H 0.62662 0.83487 0.88656 0.0
C753 C 0.67286 0.8798 0.8437 0.0
C754 C 0.134 0.88569 0.83752 0.0
C755 C 0.15589 0.8937 0.8493 0.0
H756 H 0.10276 0.85805 0.82983 0.0
C757 C 0.16285 0.87897 0.86295 0.0
H758 H 0.12804 0.89648 0.82661 0.0
C759 C 0.14836 0.85687 0.86464 0.0
C760 C 0.12648 0.84884 0.85265 0.0
H761 H 0.17959 0.88448 0.87221 0.0
H762 H 0.15433 0.84609 0.87547 0.0
C763 C 0.1195 0.86357 0.83913 0.0
C764 C 0.1225 0.33899 0.83845 0.0
C765 C 0.11451 0.3531 0.84548 0.0
H766 H 0.15011 0.33517 0.83589 0.0
C767 C 0.12926 0.37507 0.85479 0.0
H768 H 0.1117 0.32203 0.83094 0.0
C769 C 0.15136 0.38269 0.85736 0.0
C770 C 0.15935 0.36855 0.85077 0.0
H771 H 0.12376 0.3865 0.86019 0.0
H772 H 0.16215 0.39963 0.86511 0.0
C773 C 0.14461 0.3466 0.84109 0.0
C774 C 0.78685 0.68273 0.67341 0.0
C775 C 0.79373 0.70439 0.68731 0.0
H776 H 0.79551 0.65846 0.66042 0.0
C777 C 0.81559 0.71825 0.69949 0.0
H778 H 0.77012 0.67149 0.66396 0.0
C779 C 0.83014 0.71069 0.69759 0.0
C780 C 0.82327 0.68904 0.68356 0.0
H781 H 0.82149 0.73496 0.7106 0.0
H782 H 0.84687 0.72193 0.707 0.0
C783 C 0.8014 0.67516 0.67162 0.0
C784 C 0.30142 0.21188 0.69716 0.0
C785 C 0.32313 0.22646 0.68347 0.0
H786 H 0.27689 0.17908 0.70975 0.0
C787 C 0.33686 0.21826 0.67163 0.0
H788 H 0.29029 0.21754 0.70645 0.0
C789 C 0.32908 0.19611 0.67328 0.0
C790 C 0.30736 0.18153 0.68687 0.0
H791 H 0.35361 0.22892 0.66069 0.0
H792 H 0.3402 0.19044 0.66396 0.0
C793 C 0.29365 0.18974 0.69886 0.0
C794 C 0.79728 0.18181 0.6929 0.0
C795 C 0.78261 0.18885 0.67923 0.0
H796 H 0.83011 0.1902 0.70559 0.0
C797 C 0.7907 0.21076 0.66764 0.0
H798 H 0.79172 0.16504 0.70204 0.0
C799 C 0.81283 0.2252 0.66942 0.0
C800 C 0.82749 0.21814 0.68293 0.0
H801 H 0.77996 0.21677 0.65673 0.0
H802 H 0.81841 0.24197 0.66025 0.0
C803 C 0.81939 0.19624 0.69477 0.0
C804 C 0.96795 0.51508 0.53027 0.0
C805 C 0.98964 0.52195 0.51689 0.0
H806 H 0.94368 0.52375 0.5427 0.0
C807 C 1.0036 0.54385 0.50556 0.0
H808 H 0.95665 0.49833 0.53919 0.0
C809 C 0.99606 0.55844 0.50733 0.0
C810 C 0.97436 0.55155 0.52055 0.0
H811 H 0.02033 0.54974 0.49488 0.0
H812 H 0.00735 0.57519 0.49837 0.0
C813 C 0.96043 0.52966 0.53211 0.0
C814 C 0.48374 0.52107 0.52063 0.0
C815 C 0.46185 0.51306 0.50893 0.0
H816 H 0.51496 0.54869 0.52842 0.0
C817 C 0.45479 0.52783 0.49712 0.0
H818 H 0.48977 0.51026 0.53026 0.0
C819 C 0.46922 0.54996 0.49653 0.0
C820 C 0.49115 0.55794 0.50746 0.0
H821 H 0.43801 0.52232 0.48826 0.0
H822 H 0.46323 0.56077 0.4866 0.0
C823 C 0.49818 0.54318 0.51978 0.0
C824 C 0.48668 0.05052 0.52935 0.0
C825 C 0.49485 0.03676 0.5176 0.0
H826 H 0.45893 0.05396 0.53678 0.0
C827 C 0.48023 0.01502 0.50433 0.0
H828 H 0.49736 0.06729 0.53998 0.0
C829 C 0.45808 0.00728 0.50275 0.0
C830 C 0.44992 0.02106 0.5143 0.0
H831 H 0.48586 1.00387 0.49522 0.0
H832 H 0.44738 0.99052 0.49204 0.0
C833 C 0.46455 0.04279 0.52769 0.0
C834 C 0.45265 0.0152 1.0051 0.0
C835 C 0.45951 0.03688 0.01852 0.0
H836 H 0.46137 0.99095 0.99258 0.0
C837 C 0.48138 0.05081 0.03035 0.0
H838 H 0.43591 1.00391 0.99592 0.0
C839 C 0.49597 0.04329 0.02858 0.0
C840 C 0.48912 0.02162 1.01501 0.0
H841 H 0.48728 0.06754 0.0411 0.0
H842 H 0.5127 0.05459 0.03771 0.0
C843 C 0.46724 0.00767 1.00342 0.0
C844 C 0.96856 0.5465 0.02998 0.0
C845 C 0.99027 0.56113 0.01646 0.0
H846 H 0.94408 0.51368 0.04224 0.0
C847 C 1.00406 0.55299 1.00464 0.0
H848 H 0.95739 0.5521 0.03927 0.0
C849 C 0.99632 0.53085 1.00609 0.0
C850 C 0.97459 0.51621 0.01948 0.0
H851 H 0.0208 0.5637 0.99382 0.0
H852 H 0.00748 0.52522 0.99678 0.0
C853 C 0.96084 0.52437 0.0315 0.0
C854 C 0.46099 0.5418 0.99637 0.0
C855 C 0.45297 0.51986 1.00717 0.0
H856 H 0.48866 0.57299 0.98824 0.0
C857 C 0.4677 0.51278 0.01936 0.0
H858 H 0.4502 0.54783 0.98654 0.0
C859 C 0.48982 0.52719 0.02023 0.0
C860 C 0.49787 0.5491 1.00868 0.0
H861 H 0.46217 0.49599 0.0279 0.0
H862 H 0.50061 0.52113 0.02976 0.0
C863 C 0.48312 0.5562 0.99698 0.0
C864 C 0.42367 0.12796 0.14959 0.0
C865 C 0.42584 0.12453 0.0849 0.0
H866 H 0.41045 0.1402 0.21827 0.0
C867 C 0.4194 0.13441 0.03951 0.0
H868 H 0.42818 0.12028 0.18579 0.0
C869 C 0.40994 0.14648 0.05835 0.0
C870 C 0.40598 0.14822 0.12289 0.0
H871 H 0.42066 0.13189 0.98943 0.0
H872 H 0.40404 0.15285 0.02203 0.0
C873 C 0.41347 0.13933 0.16837 0.0
C874 C 0.86407 0.35754 0.05567 0.0
C875 C 0.86215 0.35167 0.12006 0.0
H876 H 0.87893 0.38299 0.98742 0.0
C877 C 0.87098 0.36792 0.16598 0.0
H878 H 0.85774 0.34537 0.01904 0.0
C879 C 0.88248 0.38951 0.14776 0.0
C880 C 0.88609 0.39526 0.08321 0.0
H881 H 0.86998 0.36388 0.21579 0.0
H882 H 0.89011 0.40158 0.18429 0.0
C883 C 0.87626 0.37909 0.03738 0.0
C884 C 0.65681 0.59865 0.05335 0.0
C885 C 0.66211 0.60282 0.11808 0.0
H886 H 0.63193 0.58755 0.98309 0.0
C887 C 0.64545 0.59517 0.16271 0.0
H888 H 0.66928 0.60463 0.01764 0.0
C889 C 0.62401 0.58473 0.14284 0.0
C890 C 0.61881 0.58244 0.07785 0.0
H891 H 0.64902 0.59831 0.21274 0.0
H892 H 0.61161 0.58017 0.17836 0.0
C893 C 0.6354 0.58892 0.03338 0.0
C894 C 0.07661 0.47916 0.39348 0.0
C895 C 0.07238 0.48084 0.45782 0.0
H896 H 0.08716 0.46429 0.32503 0.0
C897 C 0.07929 0.4715 0.50362 0.0
H898 H 0.07116 0.48589 0.35691 0.0
C899 C 0.08913 0.45974 0.4853 0.0
C900 C 0.09152 0.45639 0.4207 0.0
H901 H 0.07605 0.47231 0.55338 0.0
H902 H 0.09315 0.45174 0.5217 0.0
C903 C 0.08571 0.46673 0.37505 0.0
C904 C 0.54274 0.71681 0.423 0.0
C905 C 0.56455 0.72637 0.40627 0.0
H906 H 0.51455 0.68808 0.45504 0.0
C907 C 0.57485 0.71427 0.41224 0.0
H908 H 0.53448 0.72587 0.41973 0.0
C909 C 0.56391 0.69337 0.43548 0.0
C910 C 0.54212 0.68363 0.45166 0.0
H911 H 0.59171 0.72121 0.40107 0.0
H912 H 0.57247 0.6846 0.43933 0.0
C913 C 0.53144 0.69536 0.44397 0.0
C914 C 0.28883 0.91947 0.48179 0.0
C915 C 0.28315 0.91735 0.41719 0.0
H916 H 0.31438 0.93264 0.55008 0.0
C917 C 0.29938 0.92378 0.37152 0.0
H918 H 0.27671 0.91497 0.51819 0.0
C919 C 0.32091 0.93319 0.39001 0.0
C920 C 0.32671 0.93712 0.45447 0.0
H921 H 0.29553 0.92255 0.32151 0.0
H922 H 0.33312 0.93909 0.3535 0.0
C923 C 0.31041 0.92963 0.50022 0.0
C924 C 0.53198 0.93464 0.89208 0.0
C925 C 0.53023 0.93885 0.95637 0.0
H926 H 0.54689 0.92404 0.82388 0.0
C927 C 0.53946 0.93188 1.00234 0.0
H928 H 0.52535 0.94014 0.85539 0.0
C929 C 0.55118 0.92198 0.98423 0.0
C930 C 0.55461 0.9196 0.91969 0.0
H931 H 0.53859 0.93511 0.05207 0.0
H932 H 0.5591 0.91791 0.02076 0.0
C933 C 0.54438 0.92548 0.87386 0.0
C934 C 0.09165 0.72226 0.98293 0.0
C935 C 0.0937 0.72785 0.91827 0.0
H936 H 0.07859 0.69679 0.05149 0.0
C937 C 0.08731 0.71157 0.87277 0.0
H938 H 0.09613 0.73441 0.01921 0.0
C939 C 0.07797 0.69006 0.89149 0.0
C940 C 0.07408 0.68434 0.95601 0.0
H941 H 0.08849 0.71536 0.82273 0.0
H942 H 0.07207 0.67781 0.8551 0.0
C943 C 0.08156 0.7007 1.00159 0.0
C944 C 0.31555 0.47967 0.94392 0.0
C945 C 0.32728 0.46899 0.95151 0.0
H946 H 0.28502 0.47662 0.9198 0.0
C947 C 0.31755 0.44722 0.93528 0.0
H948 H 0.32282 0.49656 0.95505 0.0
C949 C 0.29665 0.43627 0.91208 0.0
C950 C 0.28454 0.44656 0.9062 0.0
H951 H 0.32633 0.43866 0.93906 0.0
H952 H 0.28971 0.41941 0.90086 0.0
C953 C 0.29409 0.46836 0.92299 0.0
C954 C 0.86501 0.60149 0.55832 0.0
C955 C 0.86314 0.60545 0.62277 0.0
H956 H 0.87968 0.59072 0.48985 0.0
C957 C 0.8719 0.59791 0.66854 0.0
H958 H 0.85874 0.60743 0.5218 0.0
C959 C 0.88326 0.58765 0.65013 0.0
C960 C 0.8868 0.58548 0.58553 0.0
H961 H 0.87094 0.60093 0.71839 0.0
H962 H 0.89083 0.58311 0.68655 0.0
C963 C 0.87706 0.59198 0.53985 0.0
C964 C 0.42209 0.37556 0.53447 0.0
C965 C 0.42853 0.39219 0.57882 0.0
H966 H 0.40645 0.34168 0.51895 0.0
C967 C 0.42625 0.38704 0.64385 0.0
H968 H 0.42347 0.379 0.48416 0.0
C969 C 0.41584 0.36561 0.66386 0.0
C970 C 0.40822 0.34891 0.61934 0.0
H971 H 0.43078 0.39946 0.67928 0.0
H972 H 0.4127 0.36207 0.7139 0.0
C973 C 0.4124 0.35417 0.55459 0.0
C974 C 0.63196 0.13512 0.53629 0.0
C975 C 0.61576 0.12528 0.58201 0.0
H976 H 0.66569 0.15363 0.51817 0.0
C977 C 0.62145 0.12886 0.64659 0.0
H978 H 0.62809 0.13248 0.4863 0.0
C979 C 0.64304 0.14034 0.66496 0.0
C980 C 0.65932 0.14918 0.61915 0.0
H981 H 0.60936 0.12122 0.68303 0.0
H982 H 0.64703 0.14131 0.7148 0.0
C983 C 0.65349 0.1473 0.55472 0.0
C984 C 0.74491 0.81457 0.72997 0.0
C985 C 0.74134 0.81655 0.79469 0.0
H986 H 0.75504 0.79962 0.66051 0.0
C987 C 0.74893 0.80761 0.83977 0.0
H988 H 0.73895 0.82098 0.69394 0.0
C989 C 0.75881 0.79598 0.82049 0.0
C990 C 0.76058 0.79235 0.75569 0.0
H991 H 0.74623 0.80866 0.88983 0.0
H992 H 0.7634 0.78831 0.85647 0.0
C993 C 0.75407 0.80227 0.71065 0.0
C994 C 0.20413 0.03326 0.83469 0.0
C995 C 0.19537 0.01695 0.78897 0.0
H996 H 0.22311 0.06696 0.85261 0.0
C997 C 0.19723 0.02273 0.7245 0.0
H998 H 0.20317 0.02931 0.88456 0.0
C999 C 0.20932 0.04426 0.70596 0.0
C1000 C 0.21908 0.06051 0.75161 0.0
H1001 H 0.19096 0.01051 0.68801 0.0
H1002 H 0.21195 0.0481 0.65595 0.0
C1003 C 0.21552 0.05484 0.81622 0.0
C1004 C 0.97501 0.26155 0.83296 0.0
C1005 C 0.99139 0.26888 0.78748 0.0
H1006 H 0.94133 0.2473 0.85036 0.0
C1007 C 0.9857 0.26495 0.72295 0.0
H1008 H 0.9789 0.26456 0.88286 0.0
C1009 C 0.96422 0.25576 0.70408 0.0
C1010 C 0.94794 0.24958 0.74947 0.0
H1011 H 0.99797 0.27072 0.68663 0.0
H1012 H 0.96047 0.25458 0.65401 0.0
C1013 C 0.95348 0.25162 0.81417 0.0
C1014 C 0.21513 0.25227 0.32109 0.0
C1015 C 0.21882 0.25051 0.25634 0.0
H1016 H 0.20241 0.26486 0.39025 0.0
C1017 C 0.20897 0.25706 0.21117 0.0
H1018 H 0.22276 0.24766 0.35716 0.0
C1019 C 0.19667 0.26623 0.23033 0.0
C1020 C 0.19463 0.26978 0.29501 0.0
H1021 H 0.21167 0.25609 0.16106 0.0
H1022 H 0.19031 0.27221 0.1942 0.0
C1023 C 0.2035 0.26217 0.34022 0.0
C1024 C 0.74584 0.02522 0.22325 0.0
C1025 C 0.74189 0.01955 0.28779 0.0
H1026 H 0.7562 0.05041 0.15422 0.0
C1027 C 0.74918 0.03594 0.33322 0.0
H1028 H 0.7401 0.01294 0.18697 0.0
C1029 C 0.75908 0.05747 0.31436 0.0
C1030 C 0.76114 0.06298 0.24964 0.0
H1031 H 0.74615 0.03206 0.38313 0.0
H1032 H 0.76336 0.06963 0.35052 0.0
C1033 C 0.755 0.04669 0.20432 0.0
C1034 C 0.97768 0.80724 0.33391 0.0
C1035 C 0.99401 0.81599 0.28824 0.0
H1036 H 0.94397 0.78829 0.35172 0.0
C1037 C 0.98825 0.81414 0.22375 0.0
H1038 H 0.98161 0.8082 0.38379 0.0
C1039 C 0.96672 0.80207 0.20514 0.0
C1040 C 0.95046 0.79231 0.25074 0.0
H1041 H 1.00048 0.82041 0.1873 0.0
H1042 H 0.9629 0.79944 0.15512 0.0
C1043 C 0.9561 0.79587 0.31536 0.0
C1044 C 0.29916 0.0963 0.98114 0.0
C1045 C 0.32089 0.10876 0.99668 0.0
H1046 H 0.27593 0.08538 0.9066 0.0
C1047 C 0.33632 0.11563 0.94798 0.0
H1048 H 0.28699 0.09082 0.01768 0.0
C1049 C 0.33005 0.11235 0.8844 0.0
C1050 C 0.30826 0.10244 0.86888 0.0
H1051 H 0.35324 0.12511 0.95898 0.0
H1052 H 0.3422 0.11954 0.84791 0.0
C1053 C 0.29288 0.09329 0.91755 0.0
C1054 C 0.89417 0.31388 0.9431 0.0
C1055 C 0.90107 0.3054 0.99195 0.0
H1056 H 0.89001 0.31552 0.84305 0.0
C1057 C 0.91334 0.29589 0.97646 0.0
H1058 H 0.88483 0.3215 0.95403 0.0
C1059 C 0.91612 0.29233 0.91292 0.0
C1060 C 0.90693 0.29849 0.8642 0.0
H1061 H 0.91884 0.28924 1.0131 0.0
H1062 H 0.92389 0.28313 0.90211 0.0
C1063 C 0.89722 0.31059 0.87956 0.0
C1064 C 0.71529 0.7106 0.98051 0.0
C1065 C 0.70635 0.68886 0.99552 0.0
H1066 H 0.72738 0.73406 0.90657 0.0
C1067 C 0.6981 0.67356 0.94641 0.0
H1068 H 0.72175 0.72268 0.01735 0.0
C1069 C 0.70111 0.68001 0.88298 0.0
C1070 C 0.71268 0.70185 0.868 0.0
H1071 H 0.6909 0.65662 0.95697 0.0
H1072 H 0.6964 0.66799 0.8462 0.0
C1073 C 0.71857 0.71706 0.91707 0.0
C1074 C 0.04429 0.37475 0.64434 0.0
C1075 C 0.0357 0.3531 0.65997 0.0
H1076 H 0.05607 0.39798 0.56977 0.0
C1077 C 0.02761 0.33764 0.61129 0.0
H1078 H 0.0506 0.38695 0.68086 0.0
C1079 C 0.03054 0.34388 0.54768 0.0
C1080 C 0.04185 0.36569 0.53212 0.0
H1081 H 0.02067 0.32076 0.62232 0.0
H1082 H 0.02604 0.33177 0.51127 0.0
C1083 C 0.04746 0.38101 0.58073 0.0
C1084 C 0.66849 0.78249 0.62743 0.0
C1085 C 0.6536 0.7778 0.67668 0.0
H1086 H 0.6741 0.78582 0.5272 0.0
C1087 C 0.63183 0.76877 0.66193 0.0
H1088 H 0.68541 0.78946 0.63791 0.0
C1089 C 0.62546 0.76711 0.59868 0.0
C1090 C 0.64073 0.77408 0.54958 0.0
H1091 H 0.6201 0.76517 0.69902 0.0
H1092 H 0.60882 0.76185 0.5884 0.0
C1093 C 0.66206 0.78045 0.56414 0.0
C1094 C 0.22806 0.97976 0.6133 0.0
C1095 C 0.23495 0.97124 0.66206 0.0
H1096 H 0.22407 0.9816 0.51323 0.0
C1097 C 0.24734 0.96187 0.64654 0.0
H1098 H 0.21863 0.98728 0.62426 0.0
C1099 C 0.25027 0.95848 0.58298 0.0
C1100 C 0.2411 0.96468 0.53428 0.0
H1101 H 0.25283 0.95519 0.68313 0.0
H1102 H 0.25814 0.94938 0.57209 0.0
C1103 C 0.23126 0.97664 0.54973 0.0
C1104 C 0.67306 0.98328 0.11178 0.0
C1105 C 0.65759 0.97511 0.16044 0.0
H1106 H 0.67896 0.9849 1.01178 0.0
C1107 C 0.63594 0.96642 0.14477 0.0
H1108 H 0.68995 0.9903 0.12286 0.0
C1109 C 0.62969 0.96323 0.08115 0.0
C1110 C 0.64503 0.96894 0.03256 0.0
H1111 H 0.62372 0.96005 0.18126 0.0
H1112 H 0.61272 0.95456 0.07014 0.0
C1113 C 0.66683 0.98034 0.04817 0.0
C1114 C 0.04867 0.76369 0.14606 0.0
C1115 C 0.03948 0.77625 0.16148 0.0
H1116 H 0.061 0.75268 0.07172 0.0
C1117 C 0.03107 0.78323 0.11264 0.0
H1118 H 0.05525 0.75811 0.18271 0.0
C1119 C 0.03415 0.77996 0.0491 0.0
C1120 C 0.04595 0.76994 0.03375 0.0
H1121 H 0.02369 0.79279 0.12351 0.0
H1122 H 0.0293 0.78723 1.01254 0.0
C1123 C 0.05202 0.76068 0.08252 0.0
C1124 C 0.24221 0.37932 0.16197 0.0
C1125 C 0.23326 0.35756 0.17671 0.0
H1126 H 0.24905 0.40233 0.08846 0.0
C1127 C 0.2286 0.34268 0.12744 0.0
H1128 H 0.24579 0.39104 0.19907 0.0
C1129 C 0.23061 0.34911 0.06416 0.0
C1130 C 0.23691 0.37042 0.04961 0.0
H1131 H 0.22168 0.32577 0.13792 0.0
H1132 H 0.22527 0.33708 0.02721 0.0
C1133 C 0.24385 0.38569 0.09872 0.0
C1134 C 0.89566 0.6752 0.44716 0.0
C1135 C 0.90247 0.69063 0.49586 0.0
H1136 H 0.89173 0.66932 0.3471 0.0
C1137 C 0.91483 0.71237 0.4803 0.0
H1138 H 0.88625 0.65827 0.45816 0.0
C1139 C 0.91778 0.71864 0.41672 0.0
C1140 C 0.90868 0.70325 0.36806 0.0
H1141 H 0.92027 0.72454 0.51685 0.0
H1142 H 0.92562 0.7356 0.40576 0.0
C1143 C 0.89888 0.68148 0.38357 0.0
C1144 C 0.30032 0.2955 0.48228 0.0
C1145 C 0.32207 0.30456 0.49731 0.0
H1146 H 0.27687 0.28332 0.40831 0.0
C1147 C 0.33737 0.3129 0.44822 0.0
H1148 H 0.28824 0.28897 0.51911 0.0
C1149 C 0.33092 0.30987 0.38478 0.0
C1150 C 0.30908 0.29819 0.36977 0.0
H1151 H 0.35431 0.32018 0.45879 0.0
H1152 H 0.34296 0.31465 0.34801 0.0
C1153 C 0.29386 0.2922 0.41884 0.0
C1154 C 0.69688 0.11708 0.4424 0.0
C1155 C 0.70526 0.11007 0.49124 0.0
H1156 H 0.69527 0.12126 0.34235 0.0
C1157 C 0.71459 0.09764 0.47575 0.0
H1158 H 0.6894 0.12654 0.45333 0.0
C1159 C 0.7181 0.0948 0.41221 0.0
C1160 C 0.71205 0.10409 0.36349 0.0
H1161 H 0.72116 0.09205 0.51238 0.0
H1162 H 0.72717 0.0869 0.40139 0.0
C1163 C 0.70011 0.11397 0.37885 0.0
C1164 C 0.99712 0.44667 0.21639 0.0
C1165 C 0.97534 0.43686 0.20085 0.0
H1166 H 0.02031 0.45924 0.29101 0.0
C1167 C 0.95995 0.42767 0.24946 0.0
H1168 H 0.00928 0.45388 0.17993 0.0
C1169 C 0.96622 0.43055 0.31306 0.0
C1170 C 0.98795 0.44292 0.32867 0.0
H1171 H 0.943 0.41982 0.23849 0.0
H1172 H 0.95404 0.42504 0.34959 0.0
C1173 C 1.00338 0.44982 0.27998 0.0
C1174 C 0.56309 0.63999 0.19863 0.0
C1175 C 0.57548 0.63056 0.18373 0.0
H1176 H 0.54758 0.64755 0.27247 0.0
C1177 C 0.58587 0.62602 0.2328 0.0
H1178 H 0.55485 0.64352 0.16175 0.0
C1179 C 0.58185 0.62845 0.29617 0.0
C1180 C 0.56711 0.6351 0.31099 0.0
H1181 H 0.59557 0.61877 0.22223 0.0
H1182 H 0.58854 0.62308 0.33305 0.0
C1183 C 0.55878 0.64207 0.26198 0.0
C1184 C 0.36378 0.00668 0.27833 0.0
C1185 C 0.3721 0.02206 0.3272 0.0
H1186 H 0.36212 1.00092 0.17823 0.0
C1187 C 0.38122 0.0438 0.31182 0.0
H1188 H 0.35646 0.98976 0.28918 0.0
C1189 C 0.3846 0.05015 0.2483 0.0
C1190 C 0.37863 0.03484 0.1995 0.0
H1191 H 0.38773 0.05594 0.34849 0.0
H1192 H 0.39353 0.06712 0.23752 0.0
C1193 C 0.36689 0.01303 0.2148 0.0
C1194 C 0.56132 0.00798 0.77825 0.0
C1195 C 0.5682 0.0234 0.82697 0.0
H1196 H 0.55725 1.00209 0.67821 0.0
C1197 C 0.58052 0.04514 0.81138 0.0
H1198 H 0.55194 0.99105 0.78927 0.0
C1199 C 0.58338 0.05142 0.7478 0.0
C1200 C 0.57421 0.03603 0.69917 0.0
H1201 H 0.58601 0.05732 0.84794 0.0
H1202 H 0.59119 0.06837 0.73686 0.0
C1203 C 0.56444 0.01425 0.71467 0.0
C1204 C 0.96085 0.62612 0.75095 0.0
C1205 C 0.97617 0.63222 0.70213 0.0
H1206 H 0.95508 0.62292 0.85114 0.0
C1207 C 0.99797 0.64412 0.7174 0.0
H1208 H 0.94388 0.61707 0.74019 0.0
C1209 C 1.00432 0.64727 0.78092 0.0
C1210 C 0.98896 0.63883 0.82981 0.0
H1211 H 0.01008 0.64901 0.6808 0.0
H1212 H 0.02126 0.65473 0.79174 0.0
C1213 C 0.96721 0.62954 0.81446 0.0
C1214 C 0.38465 0.42509 0.73263 0.0
C1215 C 0.38018 0.43553 0.68353 0.0
H1216 H 0.38756 0.42241 0.83289 0.0
C1217 C 0.37085 0.448 0.69839 0.0
H1218 H 0.39183 0.41533 0.72209 0.0
C1219 C 0.36879 0.45234 0.76174 0.0
C1220 C 0.3757 0.44396 0.81078 0.0
H1221 H 0.36739 0.45629 0.66149 0.0
H1222 H 0.36338 0.46361 0.7722 0.0
C1223 C 0.38224 0.42914 0.79599 0.0
loop_
_geom_bond_atom_site_label_1
_geom_bond_atom_site_label_2
_geom_bond_distance
_geom_bond_site_symmetry_2
_ccdc_geom_bond_type
O0 Cd1 2.223 . S
O0 C8 1.315 . S
Cd1 O0 2.223 . S
Cd1 O4 2.297 . S
Cd1 O5 2.439 . S
Cd1 O11 2.240 . S
Cd2 O3 2.240 . S
Cd2 O10 2.223 . S
Cd2 O12 2.297 . S
Cd2 O13 2.439 . S
O3 Cd2 2.240 . S
O3 C8 1.279 . S
O4 Cd1 2.297 . S
O4 C6 1.247 . S
O5 Cd1 2.439 . S
O5 C6 1.208 . S
C6 O4 1.247 . S
C6 O5 1.208 . S
C7 O12 1.247 . S
C7 O13 1.208 . S
C8 O0 1.315 . S
C8 O3 1.279 . S
C9 O10 1.315 . S
C9 O11 1.279 . S
O10 Cd2 2.223 . S
O10 C9 1.315 . S
O11 Cd1 2.240 . S
O11 C9 1.279 . S
O12 Cd2 2.297 . S
O12 C7 1.247 . S
O13 Cd2 2.439 . S
O13 C7 1.208 . S
O14 Cd15 2.223 . S
O14 C22 1.315 . S
Cd15 O14 2.223 . S
Cd15 O18 2.297 . S
Cd15 O19 2.439 . S
Cd15 O25 2.240 . S
Cd16 O17 2.240 . S
Cd16 O24 2.223 . S
Cd16 O26 2.297 . S
Cd16 O27 2.439 . S
O17 Cd16 2.240 . S
O17 C22 1.279 . S
O18 Cd15 2.297 . S
O18 C20 1.247 . S
O19 Cd15 2.439 . S
O19 C20 1.208 . S
C20 O18 1.247 . S
C20 O19 1.208 . S
C21 O26 1.247 . S
C21 O27 1.208 . S
C22 O14 1.315 . S
C22 O17 1.279 . S
C23 O24 1.315 . S
C23 O25 1.279 . S
O24 Cd16 2.223 . S
O24 C23 1.315 . S
O25 Cd15 2.240 . S
O25 C23 1.279 . S
O26 Cd16 2.297 . S
O26 C21 1.247 . S
O27 Cd16 2.439 . S
O27 C21 1.208 . S
O28 Cd29 2.223 . S
O28 C36 1.315 . S
Cd29 O28 2.223 . S
Cd29 O32 2.297 . S
Cd29 O33 2.439 . S
Cd29 O39 2.240 . S
Cd30 O31 2.240 . S
Cd30 O38 2.223 . S
Cd30 O40 2.297 . S
Cd30 O41 2.439 . S
O31 Cd30 2.240 . S
O31 C36 1.279 . S
O32 Cd29 2.297 . S
O32 C34 1.247 . S
O33 Cd29 2.439 . S
O33 C34 1.208 . S
C34 O32 1.247 . S
C34 O33 1.208 . S
C35 O40 1.247 . S
C35 O41 1.208 . S
C36 O28 1.315 . S
C36 O31 1.279 . S
C37 O38 1.315 . S
C37 O39 1.279 . S
O38 Cd30 2.223 . S
O38 C37 1.315 . S
O39 Cd29 2.240 . S
O39 C37 1.279 . S
O40 Cd30 2.297 . S
O40 C35 1.247 . S
O41 Cd30 2.439 . S
O41 C35 1.208 . S
O42 Cd43 2.223 . S
O42 C50 1.315 . S
Cd43 O42 2.223 . S
Cd43 O46 2.297 . S
Cd43 O47 2.439 . S
Cd43 O53 2.240 . S
Cd44 O45 2.240 . S
Cd44 O52 2.223 . S
Cd44 O54 2.297 . S
Cd44 O55 2.439 . S
O45 Cd44 2.240 . S
O45 C50 1.279 . S
O46 Cd43 2.297 . S
O46 C48 1.247 . S
O47 Cd43 2.439 . S
O47 C48 1.208 . S
C48 O46 1.247 . S
C48 O47 1.208 . S
C49 O54 1.247 . S
C49 O55 1.208 . S
C50 O42 1.315 . S
C50 O45 1.279 . S
C51 O52 1.315 . S
C51 O53 1.279 . S
O52 Cd44 2.223 . S
O52 C51 1.315 . S
O53 Cd43 2.240 . S
O53 C51 1.279 . S
O54 Cd44 2.297 . S
O54 C49 1.247 . S
O55 Cd44 2.439 . S
O55 C49 1.208 . S
O56 Cd57 2.223 . S
O56 C64 1.315 . S
Cd57 O56 2.223 . S
Cd57 O60 2.297 . S
Cd57 O61 2.439 . S
Cd57 O67 2.240 . S
Cd58 O59 2.240 . S
Cd58 O66 2.223 . S
Cd58 O68 2.297 . S
Cd58 O69 2.439 . S
O59 Cd58 2.240 . S
O59 C64 1.279 . S
O60 Cd57 2.297 . S
O60 C62 1.247 . S
O61 Cd57 2.439 . S
O61 C62 1.208 . S
C62 O60 1.247 . S
C62 O61 1.208 . S
C63 O68 1.247 . S
C63 O69 1.208 . S
C64 O56 1.315 . S
C64 O59 1.279 . S
C65 O66 1.315 . S
C65 O67 1.279 . S
O66 Cd58 2.223 . S
O66 C65 1.315 . S
O67 Cd57 2.240 . S
O67 C65 1.279 . S
O68 Cd58 2.297 . S
O68 C63 1.247 . S
O69 Cd58 2.439 . S
O69 C63 1.208 . S
O70 Cd71 2.223 . S
O70 C78 1.315 . S
Cd71 O70 2.223 . S
Cd71 O74 2.297 . S
Cd71 O75 2.439 . S
Cd71 O81 2.240 . S
Cd72 O73 2.240 . S
Cd72 O80 2.223 . S
Cd72 O82 2.297 . S
Cd72 O83 2.439 . S
O73 Cd72 2.240 . S
O73 C78 1.279 . S
O74 Cd71 2.297 . S
O74 C76 1.247 . S
O75 Cd71 2.439 . S
O75 C76 1.208 . S
C76 O74 1.247 . S
C76 O75 1.208 . S
C77 O82 1.247 . S
C77 O83 1.208 . S
C78 O70 1.315 . S
C78 O73 1.279 . S
C79 O80 1.315 . S
C79 O81 1.279 . S
O80 Cd72 2.223 . S
O80 C79 1.315 . S
O81 Cd71 2.240 . S
O81 C79 1.279 . S
O82 Cd72 2.297 . S
O82 C77 1.247 . S
O83 Cd72 2.439 . S
O83 C77 1.208 . S
O84 Cd85 2.223 . S
O84 C92 1.315 . S
Cd85 O84 2.223 . S
Cd85 O88 2.297 . S
Cd85 O89 2.439 . S
Cd85 O95 2.240 . S
Cd86 O87 2.240 . S
Cd86 O94 2.223 . S
Cd86 O96 2.297 . S
Cd86 O97 2.439 . S
O87 Cd86 2.240 . S
O87 C92 1.279 . S
O88 Cd85 2.297 . S
O88 C90 1.247 . S
O89 Cd85 2.439 . S
O89 C90 1.208 . S
C90 O88 1.247 . S
C90 O89 1.208 . S
C91 O96 1.247 . S
C91 O97 1.208 . S
C92 O84 1.315 . S
C92 O87 1.279 . S
C93 O94 1.315 . S
C93 O95 1.279 . S
O94 Cd86 2.223 . S
O94 C93 1.315 . S
O95 Cd85 2.240 . S
O95 C93 1.279 . S
O96 Cd86 2.297 . S
O96 C91 1.247 . S
O97 Cd86 2.439 . S
O97 C91 1.208 . S
O98 Cd99 2.223 . S
O98 C106 1.315 . S
Cd99 O98 2.223 . S
Cd99 O102 2.297 . S
Cd99 O103 2.439 . S
Cd99 O109 2.240 . S
Cd100 O101 2.240 . S
Cd100 O108 2.223 . S
Cd100 O110 2.297 . S
Cd100 O111 2.439 . S
O101 Cd100 2.240 . S
O101 C106 1.279 . S
O102 Cd99 2.297 . S
O102 C104 1.247 . S
O103 Cd99 2.439 . S
O103 C104 1.208 . S
C104 O102 1.247 . S
C104 O103 1.208 . S
C105 O110 1.247 . S
C105 O111 1.208 . S
C106 O98 1.315 . S
C106 O101 1.279 . S
C107 O108 1.315 . S
C107 O109 1.279 . S
O108 Cd100 2.223 . S
O108 C107 1.315 . S
O109 Cd99 2.240 . S
O109 C107 1.279 . S
O110 Cd100 2.297 . S
O110 C105 1.247 . S
O111 Cd100 2.439 . S
O111 C105 1.208 . S
O112 Cd113 2.223 . S
O112 C120 1.315 . S
Cd113 O112 2.223 . S
Cd113 O116 2.297 . S
Cd113 O117 2.439 . S
Cd113 O123 2.240 . S
Cd114 O115 2.240 . S
Cd114 O122 2.223 . S
Cd114 O124 2.297 . S
Cd114 O125 2.439 . S
O115 Cd114 2.240 . S
O115 C120 1.279 . S
O116 Cd113 2.297 . S
O116 C118 1.247 . S
O117 Cd113 2.439 . S
O117 C118 1.208 . S
C118 O116 1.247 . S
C118 O117 1.208 . S
C119 O124 1.247 . S
C119 O125 1.208 . S
C120 O112 1.315 . S
C120 O115 1.279 . S
C121 O122 1.315 . S
C121 O123 1.279 . S
O122 Cd114 2.223 . S
O122 C121 1.315 . S
O123 Cd113 2.240 . S
O123 C121 1.279 . S
O124 Cd114 2.297 . S
O124 C119 1.247 . S
O125 Cd114 2.439 . S
O125 C119 1.208 . S
O126 Cd127 2.223 . S
O126 C134 1.315 . S
Cd127 O126 2.223 . S
Cd127 O130 2.297 . S
Cd127 O131 2.439 . S
Cd127 O137 2.240 . S
Cd128 O129 2.240 . S
Cd128 O136 2.223 . S
Cd128 O138 2.297 . S
Cd128 O139 2.439 . S
O129 Cd128 2.240 . S
O129 C134 1.279 . S
O130 Cd127 2.297 . S
O130 C132 1.247 . S
O131 Cd127 2.439 . S
O131 C132 1.208 . S
C132 O130 1.247 . S
C132 O131 1.208 . S
C133 O138 1.247 . S
C133 O139 1.208 . S
C134 O126 1.315 . S
C134 O129 1.279 . S
C135 O136 1.315 . S
C135 O137 1.279 . S
O136 Cd128 2.223 . S
O136 C135 1.315 . S
O137 Cd127 2.240 . S
O137 C135 1.279 . S
O138 Cd128 2.297 . S
O138 C133 1.247 . S
O139 Cd128 2.439 . S
O139 C133 1.208 . S
O140 Cd141 2.223 . S
O140 C148 1.315 . S
Cd141 O140 2.223 . S
Cd141 O144 2.297 . S
Cd141 O145 2.439 . S
Cd141 O151 2.240 . S
Cd142 O143 2.240 . S
Cd142 O150 2.223 . S
Cd142 O152 2.297 . S
Cd142 O153 2.439 . S
O143 Cd142 2.240 . S
O143 C148 1.279 . S
O144 Cd141 2.297 . S
O144 C146 1.247 . S
O145 Cd141 2.439 . S
O145 C146 1.208 . S
C146 O144 1.247 . S
C146 O145 1.208 . S
C147 O152 1.247 . S
C147 O153 1.208 . S
C148 O140 1.315 . S
C148 O143 1.279 . S
C149 O150 1.315 . S
C149 O151 1.279 . S
O150 Cd142 2.223 . S
O150 C149 1.315 . S
O151 Cd141 2.240 . S
O151 C149 1.279 . S
O152 Cd142 2.297 . S
O152 C147 1.247 . S
O153 Cd142 2.439 . S
O153 C147 1.208 . S
O154 Cd155 2.223 . S
O154 C162 1.315 . S
Cd155 O154 2.223 . S
Cd155 O158 2.297 . S
Cd155 O159 2.439 . S
Cd155 O165 2.240 . S
Cd156 O157 2.240 . S
Cd156 O164 2.223 . S
Cd156 O166 2.297 . S
Cd156 O167 2.439 . S
O157 Cd156 2.240 . S
O157 C162 1.279 . S
O158 Cd155 2.297 . S
O158 C160 1.247 . S
O159 Cd155 2.439 . S
O159 C160 1.208 . S
C160 O158 1.247 . S
C160 O159 1.208 . S
C161 O166 1.247 . S
C161 O167 1.208 . S
C162 O154 1.315 . S
C162 O157 1.279 . S
C163 O164 1.315 . S
C163 O165 1.279 . S
O164 Cd156 2.223 . S
O164 C163 1.315 . S
O165 Cd155 2.240 . S
O165 C163 1.279 . S
O166 Cd156 2.297 . S
O166 C161 1.247 . S
O167 Cd156 2.439 . S
O167 C161 1.208 . S
O168 Cd169 2.223 . S
O168 C176 1.315 . S
Cd169 O168 2.223 . S
Cd169 O172 2.297 . S
Cd169 O173 2.439 . S
Cd169 O179 2.240 . S
Cd170 O171 2.240 . S
Cd170 O178 2.223 . S
Cd170 O180 2.297 . S
Cd170 O181 2.439 . S
O171 Cd170 2.240 . S
O171 C176 1.279 . S
O172 Cd169 2.297 . S
O172 C174 1.247 . S
O173 Cd169 2.439 . S
O173 C174 1.208 . S
C174 O172 1.247 . S
C174 O173 1.208 . S
C175 O180 1.247 . S
C175 O181 1.208 . S
C176 O168 1.315 . S
C176 O171 1.279 . S
C177 O178 1.315 . S
C177 O179 1.279 . S
O178 Cd170 2.223 . S
O178 C177 1.315 . S
O179 Cd169 2.240 . S
O179 C177 1.279 . S
O180 Cd170 2.297 . S
O180 C175 1.247 . S
O181 Cd170 2.439 . S
O181 C175 1.208 . S
O182 Cd183 2.223 . S
O182 C190 1.315 . S
Cd183 O182 2.223 . S
Cd183 O186 2.297 . S
Cd183 O187 2.439 . S
Cd183 O193 2.240 . S
Cd184 O185 2.240 . S
Cd184 O192 2.223 . S
Cd184 O194 2.297 . S
Cd184 O195 2.439 . S
O185 Cd184 2.240 . S
O185 C190 1.279 . S
O186 Cd183 2.297 . S
O186 C188 1.247 . S
O187 Cd183 2.439 . S
O187 C188 1.208 . S
C188 O186 1.247 . S
C188 O187 1.208 . S
C189 O194 1.247 . S
C189 O195 1.208 . S
C190 O182 1.315 . S
C190 O185 1.279 . S
C191 O192 1.315 . S
C191 O193 1.279 . S
O192 Cd184 2.223 . S
O192 C191 1.315 . S
O193 Cd183 2.240 . S
O193 C191 1.279 . S
O194 Cd184 2.297 . S
O194 C189 1.247 . S
O195 Cd184 2.439 . S
O195 C189 1.208 . S
O196 Cd197 2.223 . S
O196 C204 1.315 . S
Cd197 O196 2.223 . S
Cd197 O200 2.297 . S
Cd197 O201 2.439 . S
Cd197 O207 2.240 . S
Cd198 O199 2.240 . S
Cd198 O206 2.223 . S
Cd198 O208 2.297 . S
Cd198 O209 2.439 . S
O199 Cd198 2.240 . S
O199 C204 1.279 . S
O200 Cd197 2.297 . S
O200 C202 1.247 . S
O201 Cd197 2.439 . S
O201 C202 1.208 . S
C202 O200 1.247 . S
C202 O201 1.208 . S
C203 O208 1.247 . S
C203 O209 1.208 . S
C204 O196 1.315 . S
C204 O199 1.279 . S
C205 O206 1.315 . S
C205 O207 1.279 . S
O206 Cd198 2.223 . S
O206 C205 1.315 . S
O207 Cd197 2.240 . S
O207 C205 1.279 . S
O208 Cd198 2.297 . S
O208 C203 1.247 . S
O209 Cd198 2.439 . S
O209 C203 1.208 . S
O210 Cd211 2.223 . S
O210 C218 1.315 . S
Cd211 O210 2.223 . S
Cd211 O214 2.297 . S
Cd211 O215 2.439 . S
Cd211 O221 2.240 . S
Cd212 O213 2.240 . S
Cd212 O220 2.223 . S
Cd212 O222 2.297 . S
Cd212 O223 2.439 . S
O213 Cd212 2.240 . S
O213 C218 1.279 . S
O214 Cd211 2.297 . S
O214 C216 1.247 . S
O215 Cd211 2.439 . S
O215 C216 1.208 . S
C216 O214 1.247 . S
C216 O215 1.208 . S
C217 O222 1.247 . S
C217 O223 1.208 . S
C218 O210 1.315 . S
C218 O213 1.279 . S
C219 O220 1.315 . S
C219 O221 1.279 . S
O220 Cd212 2.223 . S
O220 C219 1.315 . S
O221 Cd211 2.240 . S
O221 C219 1.279 . S
O222 Cd212 2.297 . S
O222 C217 1.247 . S
O223 Cd212 2.439 . S
O223 C217 1.208 . S
O224 Cd225 2.223 . S
O224 C232 1.315 . S
Cd225 O224 2.223 . S
Cd225 O228 2.297 . S
Cd225 O229 2.439 . S
Cd225 O235 2.240 . S
Cd226 O227 2.240 . S
Cd226 O234 2.223 . S
Cd226 O236 2.297 . S
Cd226 O237 2.439 . S
O227 Cd226 2.240 . S
O227 C232 1.279 . S
O228 Cd225 2.297 . S
O228 C230 1.247 . S
O229 Cd225 2.439 . S
O229 C230 1.208 . S
C230 O228 1.247 . S
C230 O229 1.208 . S
C231 O236 1.247 . S
C231 O237 1.208 . S
C232 O224 1.315 . S
C232 O227 1.279 . S
C233 O234 1.315 . S
C233 O235 1.279 . S
O234 Cd226 2.223 . S
O234 C233 1.315 . S
O235 Cd225 2.240 . S
O235 C233 1.279 . S
O236 Cd226 2.297 . S
O236 C231 1.247 . S
O237 Cd226 2.439 . S
O237 C231 1.208 . S
O238 Cd239 2.223 . S
O238 C246 1.315 . S
Cd239 O238 2.223 . S
Cd239 O242 2.297 . S
Cd239 O243 2.439 . S
Cd239 O249 2.240 . S
Cd240 O241 2.240 . S
Cd240 O248 2.223 . S
Cd240 O250 2.297 . S
Cd240 O251 2.439 . S
O241 Cd240 2.240 . S
O241 C246 1.279 . S
O242 Cd239 2.297 . S
O242 C244 1.247 . S
O243 Cd239 2.439 . S
O243 C244 1.208 . S
C244 O242 1.247 . S
C244 O243 1.208 . S
C245 O250 1.247 . S
C245 O251 1.208 . S
C246 O238 1.315 . S
C246 O241 1.279 . S
C247 O248 1.315 . S
C247 O249 1.279 . S
O248 Cd240 2.223 . S
O248 C247 1.315 . S
O249 Cd239 2.240 . S
O249 C247 1.279 . S
O250 Cd240 2.297 . S
O250 C245 1.247 . S
O251 Cd240 2.439 . S
O251 C245 1.208 . S
O252 Cd253 2.223 . S
O252 C260 1.315 . S
Cd253 O252 2.223 . S
Cd253 O256 2.297 . S
Cd253 O257 2.439 . S
Cd253 O263 2.240 . S
Cd254 O255 2.240 . S
Cd254 O262 2.223 . S
Cd254 O264 2.297 . S
Cd254 O265 2.439 . S
O255 Cd254 2.240 . S
O255 C260 1.279 . S
O256 Cd253 2.297 . S
O256 C258 1.247 . S
O257 Cd253 2.439 . S
O257 C258 1.208 . S
C258 O256 1.247 . S
C258 O257 1.208 . S
C259 O264 1.247 . S
C259 O265 1.208 . S
C260 O252 1.315 . S
C260 O255 1.279 . S
C261 O262 1.315 . S
C261 O263 1.279 . S
O262 Cd254 2.223 . S
O262 C261 1.315 . S
O263 Cd253 2.240 . S
O263 C261 1.279 . S
O264 Cd254 2.297 . S
O264 C259 1.247 . S
O265 Cd254 2.439 . S
O265 C259 1.208 . S
O266 Cd267 2.223 . S
O266 C274 1.315 . S
Cd267 O266 2.223 . S
Cd267 O270 2.297 . S
Cd267 O271 2.439 . S
Cd267 O277 2.240 . S
Cd268 O269 2.240 . S
Cd268 O276 2.223 . S
Cd268 O278 2.297 . S
Cd268 O279 2.439 . S
O269 Cd268 2.240 . S
O269 C274 1.279 . S
O270 Cd267 2.297 . S
O270 C272 1.247 . S
O271 Cd267 2.439 . S
O271 C272 1.208 . S
C272 O270 1.247 . S
C272 O271 1.208 . S
C273 O278 1.247 . S
C273 O279 1.208 . S
C274 O266 1.315 . S
C274 O269 1.279 . S
C275 O276 1.315 . S
C275 O277 1.279 . S
O276 Cd268 2.223 . S
O276 C275 1.315 . S
O277 Cd267 2.240 . S
O277 C275 1.279 . S
O278 Cd268 2.297 . S
O278 C273 1.247 . S
O279 Cd268 2.439 . S
O279 C273 1.208 . S
O280 Cd281 2.223 . S
O280 C288 1.315 . S
Cd281 O280 2.223 . S
Cd281 O284 2.297 . S
Cd281 O285 2.439 . S
Cd281 O291 2.240 . S
Cd282 O283 2.240 . S
Cd282 O290 2.223 . S
Cd282 O292 2.297 . S
Cd282 O293 2.439 . S
O283 Cd282 2.240 . S
O283 C288 1.279 . S
O284 Cd281 2.297 . S
O284 C286 1.247 . S
O285 Cd281 2.439 . S
O285 C286 1.208 . S
C286 O284 1.247 . S
C286 O285 1.208 . S
C287 O292 1.247 . S
C287 O293 1.208 . S
C288 O280 1.315 . S
C288 O283 1.279 . S
C289 O290 1.315 . S
C289 O291 1.279 . S
O290 Cd282 2.223 . S
O290 C289 1.315 . S
O291 Cd281 2.240 . S
O291 C289 1.279 . S
O292 Cd282 2.297 . S
O292 C287 1.247 . S
O293 Cd282 2.439 . S
O293 C287 1.208 . S
O294 Cd295 2.225 . S
O294 C302 1.315 . S
Cd295 O294 2.225 . S
Cd295 O298 2.297 . S
Cd295 O299 2.439 . S
Cd295 O305 2.240 1_554 S
Cd296 O297 2.240 1_556 S
Cd296 O304 2.223 . S
Cd296 O306 2.297 . S
Cd296 O307 2.439 1_556 S
O297 Cd296 2.240 1_554 S
O297 C302 1.284 . S
O298 Cd295 2.297 . S
O298 C300 1.247 . S
O299 Cd295 2.439 . S
O299 C300 1.208 . S
C300 O298 1.247 . S
C300 O299 1.208 . S
C301 O306 1.247 . S
C301 O307 1.208 1_556 S
C302 O294 1.315 . S
C302 O297 1.284 . S
C303 O304 1.315 . S
C303 O305 1.279 . S
O304 Cd296 2.223 . S
O304 C303 1.315 . S
O305 Cd295 2.240 1_556 S
O305 C303 1.279 . S
O306 Cd296 2.297 . S
O306 C301 1.247 . S
O307 Cd296 2.439 1_554 S
O307 C301 1.208 1_554 S
O308 Cd309 2.225 . S
O308 C316 1.315 . S
Cd309 O308 2.225 . S
Cd309 O312 2.297 . S
Cd309 O313 2.439 . S
Cd309 O319 2.240 1_554 S
Cd310 O311 2.240 1_556 S
Cd310 O318 2.223 . S
Cd310 O320 2.297 . S
Cd310 O321 2.439 1_556 S
O311 Cd310 2.240 1_554 S
O311 C316 1.284 . S
O312 Cd309 2.297 . S
O312 C314 1.247 . S
O313 Cd309 2.439 . S
O313 C314 1.208 . S
C314 O312 1.247 . S
C314 O313 1.208 . S
C315 O320 1.247 . S
C315 O321 1.209 1_556 S
C316 O308 1.315 . S
C316 O311 1.284 . S
C317 O318 1.315 . S
C317 O319 1.279 . S
O318 Cd310 2.223 . S
O318 C317 1.315 . S
O319 Cd309 2.240 1_556 S
O319 C317 1.279 . S
O320 Cd310 2.297 . S
O320 C315 1.247 . S
O321 Cd310 2.439 1_554 S
O321 C315 1.209 1_554 S
O322 Cd323 2.225 . S
O322 C330 1.315 . S
Cd323 O322 2.225 . S
Cd323 O326 2.297 . S
Cd323 O327 2.439 . S
Cd323 O333 2.240 1_554 S
Cd324 O325 2.240 1_556 S
Cd324 O332 2.223 . S
Cd324 O334 2.297 . S
Cd324 O335 2.439 1_556 S
O325 Cd324 2.240 1_554 S
O325 C330 1.284 . S
O326 Cd323 2.297 . S
O326 C328 1.247 . S
O327 Cd323 2.439 . S
O327 C328 1.208 . S
C328 O326 1.247 . S
C328 O327 1.208 . S
C329 O334 1.247 . S
C329 O335 1.209 1_556 S
C330 O322 1.315 . S
C330 O325 1.284 . S
C331 O332 1.315 . S
C331 O333 1.279 . S
O332 Cd324 2.223 . S
O332 C331 1.315 . S
O333 Cd323 2.240 1_556 S
O333 C331 1.279 . S
O334 Cd324 2.297 . S
O334 C329 1.247 . S
O335 Cd324 2.439 1_554 S
O335 C329 1.209 1_554 S
O336 Cd337 2.223 . S
O336 C344 1.315 . S
Cd337 O336 2.223 . S
Cd337 O340 2.297 . S
Cd337 O341 2.439 . S
Cd337 O347 2.240 . S
Cd338 O339 2.240 . S
Cd338 O346 2.223 . S
Cd338 O348 2.297 . S
Cd338 O349 2.439 . S
O339 Cd338 2.240 . S
O339 C344 1.279 . S
O340 Cd337 2.297 . S
O340 C342 1.247 . S
O341 Cd337 2.439 . S
O341 C342 1.208 . S
C342 O340 1.247 . S
C342 O341 1.208 . S
C343 O348 1.247 . S
C343 O349 1.208 . S
C344 O336 1.315 . S
C344 O339 1.279 . S
C345 O346 1.315 . S
C345 O347 1.279 . S
O346 Cd338 2.223 . S
O346 C345 1.315 . S
O347 Cd337 2.240 . S
O347 C345 1.279 . S
O348 Cd338 2.297 . S
O348 C343 1.247 . S
O349 Cd338 2.439 . S
O349 C343 1.208 . S
O350 Cd351 2.223 . S
O350 C358 1.315 . S
Cd351 O350 2.223 . S
Cd351 O354 2.297 . S
Cd351 O355 2.439 . S
Cd351 O361 2.240 . S
Cd352 O353 2.240 . S
Cd352 O360 2.223 . S
Cd352 O362 2.297 1_565 S
Cd352 O363 2.439 1_565 S
O353 Cd352 2.240 . S
O353 C358 1.279 . S
O354 Cd351 2.297 . S
O354 C356 1.247 . S
O355 Cd351 2.439 . S
O355 C356 1.208 . S
C356 O354 1.247 . S
C356 O355 1.208 . S
C357 O362 1.247 . S
C357 O363 1.208 . S
C358 O350 1.315 . S
C358 O353 1.279 . S
C359 O360 1.315 . S
C359 O361 1.279 . S
O360 Cd352 2.223 . S
O360 C359 1.315 . S
O361 Cd351 2.240 . S
O361 C359 1.279 . S
O362 Cd352 2.297 1_545 S
O362 C357 1.247 . S
O363 Cd352 2.439 1_545 S
O363 C357 1.208 . S
O364 Cd365 2.223 . S
O364 C372 1.315 . S
Cd365 O364 2.223 . S
Cd365 O368 2.297 . S
Cd365 O369 2.439 . S
Cd365 O375 2.240 . S
Cd366 O367 2.240 . S
Cd366 O374 2.223 . S
Cd366 O376 2.297 1_455 S
Cd366 O377 2.439 1_455 S
O367 Cd366 2.240 . S
O367 C372 1.279 . S
O368 Cd365 2.297 . S
O368 C370 1.247 . S
O369 Cd365 2.439 . S
O369 C370 1.208 . S
C370 O368 1.247 . S
C370 O369 1.208 . S
C371 O376 1.247 . S
C371 O377 1.208 . S
C372 O364 1.315 . S
C372 O367 1.279 . S
C373 O374 1.315 . S
C373 O375 1.279 . S
O374 Cd366 2.223 . S
O374 C373 1.315 . S
O375 Cd365 2.240 . S
O375 C373 1.279 . S
O376 Cd366 2.297 1_655 S
O376 C371 1.247 . S
O377 Cd366 2.439 1_655 S
O377 C371 1.208 . S
O378 Cd379 2.226 . S
O378 C386 1.315 . S
Cd379 O378 2.226 . S
Cd379 O382 2.297 . S
Cd379 O383 2.439 . S
Cd379 O389 2.240 1_556 S
Cd380 O381 2.240 1_554 S
Cd380 O388 2.223 . S
Cd380 O390 2.297 . S
Cd380 O391 2.439 1_554 S
O381 Cd380 2.240 1_556 S
O381 C386 1.279 1_545 S
O382 Cd379 2.297 . S
O382 C384 1.247 . S
O383 Cd379 2.439 . S
O383 C384 1.208 . S
C384 O382 1.247 . S
C384 O383 1.208 . S
C385 O390 1.247 . S
C385 O391 1.209 1_554 S
C386 O378 1.315 . S
C386 O381 1.279 1_565 S
C387 O388 1.315 1_565 S
C387 O389 1.279 . S
O388 Cd380 2.223 . S
O388 C387 1.315 1_545 S
O389 Cd379 2.240 1_554 S
O389 C387 1.279 . S
O390 Cd380 2.297 . S
O390 C385 1.247 . S
O391 Cd380 2.439 1_556 S
O391 C385 1.209 1_556 S
O392 Cd393 2.226 . S
O392 C400 1.315 . S
Cd393 O392 2.226 . S
Cd393 O396 2.297 . S
Cd393 O397 2.439 . S
Cd393 O403 2.240 1_556 S
Cd394 O395 2.240 1_554 S
Cd394 O402 2.223 . S
Cd394 O404 2.297 . S
Cd394 O405 2.439 1_554 S
O395 Cd394 2.240 1_556 S
O395 C400 1.279 1_655 S
O396 Cd393 2.297 . S
O396 C398 1.247 . S
O397 Cd393 2.439 . S
O397 C398 1.208 . S
C398 O396 1.247 . S
C398 O397 1.208 . S
C399 O404 1.247 . S
C399 O405 1.209 1_554 S
C400 O392 1.315 . S
C400 O395 1.279 1_455 S
C401 O402 1.315 1_455 S
C401 O403 1.279 . S
O402 Cd394 2.223 . S
O402 C401 1.315 1_655 S
O403 Cd393 2.240 1_554 S
O403 C401 1.279 . S
O404 Cd394 2.297 . S
O404 C399 1.247 . S
O405 Cd394 2.439 1_556 S
O405 C399 1.209 1_556 S
O406 Cd407 2.226 . S
O406 C414 1.315 . S
Cd407 O406 2.226 . S
Cd407 O410 2.297 . S
Cd407 O411 2.439 . S
Cd407 O417 2.240 1_556 S
Cd408 O409 2.240 1_554 S
Cd408 O416 2.223 . S
Cd408 O418 2.297 . S
Cd408 O419 2.439 1_554 S
O409 Cd408 2.240 1_556 S
O409 C414 1.279 . S
O410 Cd407 2.297 . S
O410 C412 1.247 . S
O411 Cd407 2.439 . S
O411 C412 1.208 . S
C412 O410 1.247 . S
C412 O411 1.208 . S
C413 O418 1.247 . S
C413 O419 1.209 1_554 S
C414 O406 1.315 . S
C414 O409 1.279 . S
C415 O416 1.315 . S
C415 O417 1.279 . S
O416 Cd408 2.223 . S
O416 C415 1.315 . S
O417 Cd407 2.240 1_554 S
O417 C415 1.279 . S
O418 Cd408 2.297 . S
O418 C413 1.247 . S
O419 Cd408 2.439 1_556 S
O419 C413 1.209 1_556 S
O420 Cd421 2.223 . S
O420 C428 1.315 . S
Cd421 O420 2.223 . S
Cd421 O424 2.297 . S
Cd421 O425 2.439 . S
Cd421 O431 2.240 . S
Cd422 O423 2.240 . S
Cd422 O430 2.223 . S
Cd422 O432 2.297 . S
Cd422 O433 2.439 . S
O423 Cd422 2.240 . S
O423 C428 1.279 1_655 S
O424 Cd421 2.297 . S
O424 C426 1.247 . S
O425 Cd421 2.439 . S
O425 C426 1.208 . S
C426 O424 1.247 . S
C426 O425 1.208 . S
C427 O432 1.247 . S
C427 O433 1.208 . S
C428 O420 1.315 . S
C428 O423 1.279 1_455 S
C429 O430 1.315 1_455 S
C429 O431 1.279 . S
O430 Cd422 2.223 . S
O430 C429 1.315 1_655 S
O431 Cd421 2.240 . S
O431 C429 1.279 . S
O432 Cd422 2.297 . S
O432 C427 1.247 . S
O433 Cd422 2.439 . S
O433 C427 1.208 . S
O434 Cd435 2.223 . S
O434 C442 1.315 . S
Cd435 O434 2.223 . S
Cd435 O438 2.297 . S
Cd435 O439 2.439 . S
Cd435 O445 2.240 . S
Cd436 O437 2.240 . S
Cd436 O444 2.223 . S
Cd436 O446 2.297 . S
Cd436 O447 2.439 . S
O437 Cd436 2.240 . S
O437 C442 1.279 . S
O438 Cd435 2.297 . S
O438 C440 1.247 . S
O439 Cd435 2.439 . S
O439 C440 1.208 . S
C440 O438 1.247 . S
C440 O439 1.208 . S
C441 O446 1.247 . S
C441 O447 1.208 . S
C442 O434 1.315 . S
C442 O437 1.279 . S
C443 O444 1.315 . S
C443 O445 1.279 . S
O444 Cd436 2.223 . S
O444 C443 1.315 . S
O445 Cd435 2.240 . S
O445 C443 1.279 . S
O446 Cd436 2.297 . S
O446 C441 1.247 . S
O447 Cd436 2.439 . S
O447 C441 1.208 . S
O448 Cd449 2.223 . S
O448 C456 1.315 . S
Cd449 O448 2.223 . S
Cd449 O452 2.297 . S
Cd449 O453 2.439 . S
Cd449 O459 2.240 . S
Cd450 O451 2.240 . S
Cd450 O458 2.223 . S
Cd450 O460 2.297 . S
Cd450 O461 2.439 . S
O451 Cd450 2.240 . S
O451 C456 1.279 1_545 S
O452 Cd449 2.297 . S
O452 C454 1.247 . S
O453 Cd449 2.439 . S
O453 C454 1.208 . S
C454 O452 1.247 . S
C454 O453 1.208 . S
C455 O460 1.247 . S
C455 O461 1.208 . S
C456 O448 1.315 . S
C456 O451 1.279 1_565 S
C457 O458 1.315 1_565 S
C457 O459 1.279 . S
O458 Cd450 2.223 . S
O458 C457 1.315 1_545 S
O459 Cd449 2.240 . S
O459 C457 1.279 . S
O460 Cd450 2.297 . S
O460 C455 1.247 . S
O461 Cd450 2.439 . S
O461 C455 1.208 . S
O462 Cd463 2.223 . S
O462 C470 1.315 . S
Cd463 O462 2.223 . S
Cd463 O466 2.297 . S
Cd463 O467 2.439 . S
Cd463 O473 2.240 . S
Cd464 O465 2.240 . S
Cd464 O472 2.223 . S
Cd464 O474 2.297 . S
Cd464 O475 2.439 . S
O465 Cd464 2.240 . S
O465 C470 1.279 . S
O466 Cd463 2.297 . S
O466 C468 1.247 . S
O467 Cd463 2.439 . S
O467 C468 1.208 . S
C468 O466 1.247 . S
C468 O467 1.208 . S
C469 O474 1.247 . S
C469 O475 1.208 . S
C470 O462 1.315 . S
C470 O465 1.279 . S
C471 O472 1.315 . S
C471 O473 1.279 . S
O472 Cd464 2.223 . S
O472 C471 1.315 . S
O473 Cd463 2.240 . S
O473 C471 1.279 . S
O474 Cd464 2.297 . S
O474 C469 1.247 . S
O475 Cd464 2.439 . S
O475 C469 1.208 . S
O476 Cd477 2.223 . S
O476 C484 1.315 . S
Cd477 O476 2.223 . S
Cd477 O480 2.297 . S
Cd477 O481 2.439 . S
Cd477 O487 2.240 . S
Cd478 O479 2.240 . S
Cd478 O486 2.223 . S
Cd478 O488 2.297 1_565 S
Cd478 O489 2.439 1_565 S
O479 Cd478 2.240 . S
O479 C484 1.279 . S
O480 Cd477 2.297 . S
O480 C482 1.247 . S
O481 Cd477 2.439 . S
O481 C482 1.208 . S
C482 O480 1.247 . S
C482 O481 1.208 . S
C483 O488 1.247 . S
C483 O489 1.208 . S
C484 O476 1.315 . S
C484 O479 1.279 . S
C485 O486 1.315 . S
C485 O487 1.279 . S
O486 Cd478 2.223 . S
O486 C485 1.315 . S
O487 Cd477 2.240 . S
O487 C485 1.279 . S
O488 Cd478 2.297 1_545 S
O488 C483 1.247 . S
O489 Cd478 2.439 1_545 S
O489 C483 1.208 . S
O490 Cd491 2.223 . S
O490 C498 1.315 . S
Cd491 O490 2.223 . S
Cd491 O494 2.297 . S
Cd491 O495 2.439 . S
Cd491 O501 2.240 . S
Cd492 O493 2.240 . S
Cd492 O500 2.223 . S
Cd492 O502 2.297 1_455 S
Cd492 O503 2.439 1_455 S
O493 Cd492 2.240 . S
O493 C498 1.279 . S
O494 Cd491 2.297 . S
O494 C496 1.247 . S
O495 Cd491 2.439 . S
O495 C496 1.208 . S
C496 O494 1.247 . S
C496 O495 1.208 . S
C497 O502 1.247 . S
C497 O503 1.208 . S
C498 O490 1.315 . S
C498 O493 1.279 . S
C499 O500 1.315 . S
C499 O501 1.279 . S
O500 Cd492 2.223 . S
O500 C499 1.315 . S
O501 Cd491 2.240 . S
O501 C499 1.279 . S
O502 Cd492 2.297 1_655 S
O502 C497 1.247 . S
O503 Cd492 2.439 1_655 S
O503 C497 1.208 . S
C504 C505 1.387 . S
C504 H508 0.950 . S
C504 C513 1.390 . S
C505 C504 1.387 . S
C505 C507 1.387 . S
H506 C513 0.950 . S
C507 C505 1.387 . S
C507 C509 1.390 . S
C507 H511 0.950 . S
H508 C504 0.950 . S
C509 C507 1.390 . S
C509 C510 1.387 . S
C509 H512 0.950 . S
C510 C509 1.387 . S
C510 C513 1.387 . S
H511 C507 0.950 . S
H512 C509 0.950 . S
C513 C504 1.390 . S
C513 H506 0.950 . S
C513 C510 1.387 . S
C514 C515 1.387 . S
C514 H518 0.950 . S
C514 C523 1.390 . S
C515 C514 1.387 . S
C515 C517 1.387 . S
H516 C523 0.950 . S
C517 C515 1.387 . S
C517 C519 1.390 . S
C517 H521 0.950 . S
H518 C514 0.950 . S
C519 C517 1.390 . S
C519 C520 1.387 . S
C519 H522 0.950 . S
C520 C519 1.387 . S
C520 C523 1.387 . S
H521 C517 0.950 . S
H522 C519 0.950 . S
C523 C514 1.390 . S
C523 H516 0.950 . S
C523 C520 1.387 . S
C524 C525 1.387 . S
C524 H528 0.950 . S
C524 C533 1.390 . S
C525 C524 1.387 . S
C525 C527 1.387 . S
H526 C533 0.950 . S
C527 C525 1.387 . S
C527 C529 1.390 . S
C527 H531 0.950 . S
H528 C524 0.950 . S
C529 C527 1.390 . S
C529 C530 1.387 . S
C529 H532 0.950 . S
C530 C529 1.387 . S
C530 C533 1.387 . S
H531 C527 0.950 . S
H532 C529 0.950 . S
C533 C524 1.390 . S
C533 H526 0.950 . S
C533 C530 1.387 . S
C534 C535 1.387 . S
C534 H538 0.950 . S
C534 C543 1.390 . S
C535 C534 1.387 . S
C535 C537 1.387 . S
H536 C543 0.950 . S
C537 C535 1.387 . S
C537 C539 1.390 . S
C537 H541 0.950 . S
H538 C534 0.950 . S
C539 C537 1.390 . S
C539 C540 1.387 . S
C539 H542 0.950 . S
C540 C539 1.387 . S
C540 C543 1.387 . S
H541 C537 0.950 . S
H542 C539 0.950 . S
C543 C534 1.390 . S
C543 H536 0.950 . S
C543 C540 1.387 . S
C544 C545 1.387 . S
C544 H548 0.950 . S
C544 C553 1.390 . S
C545 C544 1.387 . S
C545 C547 1.387 . S
H546 C553 0.950 . S
C547 C545 1.387 . S
C547 C549 1.390 . S
C547 H551 0.950 . S
H548 C544 0.950 . S
C549 C547 1.390 . S
C549 C550 1.387 . S
C549 H552 0.950 . S
C550 C549 1.387 . S
C550 C553 1.387 . S
H551 C547 0.950 . S
H552 C549 0.950 . S
C553 C544 1.390 . S
C553 H546 0.950 . S
C553 C550 1.387 . S
C554 C555 1.387 . S
C554 H558 0.950 . S
C554 C563 1.390 . S
C555 C554 1.387 . S
C555 C557 1.387 . S
H556 C563 0.950 . S
C557 C555 1.387 . S
C557 C559 1.390 . S
C557 H561 0.950 . S
H558 C554 0.950 . S
C559 C557 1.390 . S
C559 C560 1.387 . S
C559 H562 0.950 . S
C560 C559 1.387 . S
C560 C563 1.387 . S
H561 C557 0.950 . S
H562 C559 0.950 . S
C563 C554 1.390 . S
C563 H556 0.950 . S
C563 C560 1.387 . S
C564 C565 1.387 . S
C564 H568 0.950 . S
C564 C573 1.390 . S
C565 C564 1.387 . S
C565 C567 1.387 . S
H566 C573 0.950 . S
C567 C565 1.387 . S
C567 C569 1.390 . S
C567 H571 0.950 . S
H568 C564 0.950 . S
C569 C567 1.390 . S
C569 C570 1.387 . S
C569 H572 0.950 . S
C570 C569 1.387 . S
C570 C573 1.387 . S
H571 C567 0.950 . S
H572 C569 0.950 . S
C573 C564 1.390 . S
C573 H566 0.950 . S
C573 C570 1.387 . S
C574 C575 1.387 . S
C574 H578 0.950 . S
C574 C583 1.390 . S
C575 C574 1.387 . S
C575 C577 1.387 . S
H576 C583 0.950 . S
C577 C575 1.387 . S
C577 C579 1.390 . S
C577 H581 0.950 . S
H578 C574 0.950 . S
C579 C577 1.390 . S
C579 C580 1.387 . S
C579 H582 0.950 . S
C580 C579 1.387 . S
C580 C583 1.387 . S
H581 C577 0.950 . S
H582 C579 0.950 . S
C583 C574 1.390 . S
C583 H576 0.950 . S
C583 C580 1.387 . S
C584 C585 1.387 . S
C584 H588 0.950 . S
C584 C593 1.390 . S
C585 C584 1.387 . S
C585 C587 1.387 . S
H586 C593 0.950 . S
C587 C585 1.387 . S
C587 C589 1.390 . S
C587 H591 0.950 . S
H588 C584 0.950 . S
C589 C587 1.390 . S
C589 C590 1.387 . S
C589 H592 0.950 . S
C590 C589 1.387 . S
C590 C593 1.387 . S
H591 C587 0.950 . S
H592 C589 0.950 . S
C593 C584 1.390 . S
C593 H586 0.950 . S
C593 C590 1.387 . S
C594 C595 1.387 . S
C594 H598 0.950 . S
C594 C603 1.390 . S
C595 C594 1.387 . S
C595 C597 1.387 . S
H596 C603 0.950 . S
C597 C595 1.387 . S
C597 C599 1.390 . S
C597 H601 0.950 . S
H598 C594 0.950 . S
C599 C597 1.390 . S
C599 C600 1.387 . S
C599 H602 0.950 . S
C600 C599 1.387 . S
C600 C603 1.387 . S
H601 C597 0.950 . S
H602 C599 0.950 . S
C603 C594 1.390 . S
C603 H596 0.950 . S
C603 C600 1.387 . S
C604 C605 1.387 . S
C604 H608 0.950 . S
C604 C613 1.390 . S
C605 C604 1.387 . S
C605 C607 1.387 . S
H606 C613 0.950 . S
C607 C605 1.387 . S
C607 C609 1.390 . S
C607 H611 0.950 . S
H608 C604 0.950 . S
C609 C607 1.390 . S
C609 C610 1.387 . S
C609 H612 0.950 . S
C610 C609 1.387 . S
C610 C613 1.387 . S
H611 C607 0.950 . S
H612 C609 0.950 . S
C613 C604 1.390 . S
C613 H606 0.950 . S
C613 C610 1.387 . S
C614 C615 1.387 . S
C614 H618 0.950 . S
C614 C623 1.390 . S
C615 C614 1.387 . S
C615 C617 1.387 . S
H616 C623 0.950 . S
C617 C615 1.387 . S
C617 C619 1.390 . S
C617 H621 0.950 . S
H618 C614 0.950 . S
C619 C617 1.390 . S
C619 C620 1.387 . S
C619 H622 0.950 . S
C620 C619 1.387 . S
C620 C623 1.387 . S
H621 C617 0.950 . S
H622 C619 0.950 . S
C623 C614 1.390 . S
C623 H616 0.950 . S
C623 C620 1.387 . S
C624 C625 1.387 . S
C624 H628 0.950 . S
C624 C633 1.390 . S
C625 C624 1.387 . S
C625 C627 1.387 . S
H626 C633 0.950 . S
C627 C625 1.387 . S
C627 C629 1.390 . S
C627 H631 0.957 . S
H628 C624 0.950 . S
C629 C627 1.390 . S
C629 C630 1.387 . S
C629 H632 0.950 . S
C630 C629 1.387 . S
C630 C633 1.387 . S
H631 C627 0.957 . S
H632 C629 0.950 . S
C633 C624 1.390 . S
C633 H626 0.950 . S
C633 C630 1.387 . S
C634 C635 1.387 . S
C634 H638 0.950 . S
C634 C643 1.390 . S
C635 C634 1.387 . S
C635 C637 1.387 . S
H636 C643 0.950 . S
C637 C635 1.387 . S
C637 C639 1.390 . S
C637 H641 0.950 . S
H638 C634 0.950 . S
C639 C637 1.390 . S
C639 C640 1.387 . S
C639 H642 0.950 . S
C640 C639 1.387 . S
C640 C643 1.387 . S
H641 C637 0.950 . S
H642 C639 0.950 . S
C643 C634 1.390 . S
C643 H636 0.950 . S
C643 C640 1.387 . S
C644 C645 1.387 . S
C644 H648 0.950 . S
C644 C653 1.390 . S
C645 C644 1.387 . S
C645 C647 1.387 . S
H646 C653 0.950 . S
C647 C645 1.387 . S
C647 C649 1.390 . S
C647 H651 0.950 1_565 S
H648 C644 0.950 . S
C649 C647 1.390 . S
C649 C650 1.387 . S
C649 H652 0.950 . S
C650 C649 1.387 . S
C650 C653 1.387 . S
H651 C647 0.950 1_545 S
H652 C649 0.950 . S
C653 C644 1.390 . S
C653 H646 0.950 . S
C653 C650 1.387 . S
C654 C655 1.387 . S
C654 H658 0.950 . S
C654 C663 1.390 . S
C655 C654 1.387 . S
C655 C657 1.387 . S
H656 C663 0.950 . S
C657 C655 1.387 . S
C657 C659 1.390 . S
C657 H661 0.950 1_565 S
H658 C654 0.950 . S
C659 C657 1.390 . S
C659 C660 1.387 . S
C659 H662 0.950 . S
C660 C659 1.387 . S
C660 C663 1.387 . S
H661 C657 0.950 1_545 S
H662 C659 0.950 . S
C663 C654 1.390 . S
C663 H656 0.950 . S
C663 C660 1.387 . S
C664 C665 1.387 . S
C664 H668 0.950 1_455 S
C664 C673 1.390 . S
C665 C664 1.387 . S
C665 C667 1.387 . S
H666 C673 0.950 . S
C667 C665 1.387 . S
C667 C669 1.390 . S
C667 H671 0.950 . S
H668 C664 0.950 1_655 S
C669 C667 1.390 . S
C669 C670 1.387 . S
C669 H672 0.950 . S
C670 C669 1.387 . S
C670 C673 1.387 . S
H671 C667 0.950 . S
H672 C669 0.950 . S
C673 C664 1.390 . S
C673 H666 0.950 . S
C673 C670 1.387 . S
C674 C675 1.387 . S
C674 H678 0.950 . S
C674 C683 1.390 . S
C675 C674 1.387 . S
C675 C677 1.387 . S
H676 C683 0.950 . S
C677 C675 1.387 . S
C677 C679 1.390 . S
C677 H681 0.950 . S
H678 C674 0.950 . S
C679 C677 1.390 . S
C679 C680 1.387 . S
C679 H682 0.950 . S
C680 C679 1.387 . S
C680 C683 1.387 . S
H681 C677 0.950 . S
H682 C679 0.950 . S
C683 C674 1.390 . S
C683 H676 0.950 . S
C683 C680 1.387 . S
C684 C685 1.387 . S
C684 H688 0.950 . S
C684 C693 1.390 . S
C685 C684 1.387 . S
C685 C687 1.387 . S
H686 C693 0.950 . S
C687 C685 1.387 . S
C687 C689 1.390 . S
C687 H691 0.950 . S
H688 C684 0.950 . S
C689 C687 1.390 . S
C689 C690 1.387 . S
C689 H692 0.950 . S
C690 C689 1.387 . S
C690 C693 1.387 . S
H691 C687 0.950 . S
H692 C689 0.950 . S
C693 C684 1.390 . S
C693 H686 0.950 . S
C693 C690 1.387 . S
C694 C695 1.387 . S
C694 H698 0.950 . S
C694 C703 1.390 . S
C695 C694 1.387 . S
C695 C697 1.387 . S
H696 C703 0.950 . S
C697 C695 1.387 . S
C697 C699 1.390 . S
C697 H701 0.950 . S
H698 C694 0.950 . S
C699 C697 1.390 . S
C699 C700 1.387 . S
C699 H702 0.950 . S
C700 C699 1.387 . S
C700 C703 1.387 . S
H701 C697 0.950 . S
H702 C699 0.950 . S
C703 C694 1.390 . S
C703 H696 0.950 . S
C703 C700 1.387 . S
C704 C705 1.387 . S
C704 H708 0.950 . S
C704 C713 1.390 . S
C705 C704 1.387 . S
C705 C707 1.387 . S
H706 C713 0.950 . S
C707 C705 1.387 . S
C707 C709 1.390 . S
C707 H711 0.950 . S
H708 C704 0.950 . S
C709 C707 1.390 . S
C709 C710 1.387 . S
C709 H712 0.950 . S
C710 C709 1.387 . S
C710 C713 1.387 . S
H711 C707 0.950 . S
H712 C709 0.950 . S
C713 C704 1.390 . S
C713 H706 0.950 . S
C713 C710 1.387 . S
C714 C715 1.387 . S
C714 H718 0.950 . S
C714 C723 1.390 . S
C715 C714 1.387 . S
C715 C717 1.387 . S
H716 C723 0.950 . S
C717 C715 1.387 . S
C717 C719 1.390 . S
C717 H721 0.950 . S
H718 C714 0.950 . S
C719 C717 1.390 . S
C719 C720 1.387 . S
C719 H722 0.950 . S
C720 C719 1.387 . S
C720 C723 1.387 . S
H721 C717 0.950 . S
H722 C719 0.950 . S
C723 C714 1.390 . S
C723 H716 0.950 . S
C723 C720 1.387 . S
C724 C725 1.387 . S
C724 H728 0.950 . S
C724 C733 1.390 . S
C725 C724 1.387 . S
C725 C727 1.387 . S
H726 C733 0.950 . S
C727 C725 1.387 . S
C727 C729 1.390 . S
C727 H731 0.950 . S
H728 C724 0.950 . S
C729 C727 1.390 . S
C729 C730 1.387 . S
C729 H732 0.950 . S
C730 C729 1.387 . S
C730 C733 1.387 . S
H731 C727 0.950 . S
H732 C729 0.950 . S
C733 C724 1.390 . S
C733 H726 0.950 . S
C733 C730 1.387 . S
C734 C735 1.387 . S
C734 H738 0.950 . S
C734 C743 1.390 . S
C735 C734 1.387 . S
C735 C737 1.387 . S
H736 C743 0.950 . S
C737 C735 1.387 . S
C737 C739 1.390 . S
C737 H741 0.950 . S
H738 C734 0.950 . S
C739 C737 1.390 . S
C739 C740 1.387 . S
C739 H742 0.950 . S
C740 C739 1.387 . S
C740 C743 1.387 . S
H741 C737 0.950 . S
H742 C739 0.950 . S
C743 C734 1.390 . S
C743 H736 0.950 . S
C743 C740 1.387 . S
C744 C745 1.387 . S
C744 H748 0.950 . S
C744 C753 1.390 . S
C745 C744 1.387 . S
C745 C747 1.387 . S
H746 C753 0.950 . S
C747 C745 1.387 . S
C747 C749 1.390 . S
C747 H751 0.950 . S
H748 C744 0.950 . S
C749 C747 1.390 . S
C749 C750 1.387 . S
C749 H752 0.950 . S
C750 C749 1.387 . S
C750 C753 1.387 . S
H751 C747 0.950 . S
H752 C749 0.950 . S
C753 C744 1.390 . S
C753 H746 0.950 . S
C753 C750 1.387 . S
C754 C755 1.387 . S
C754 H758 0.950 . S
C754 C763 1.390 . S
C755 C754 1.387 . S
C755 C757 1.387 . S
H756 C763 0.950 . S
C757 C755 1.387 . S
C757 C759 1.390 . S
C757 H761 0.950 . S
H758 C754 0.950 . S
C759 C757 1.390 . S
C759 C760 1.387 . S
C759 H762 0.950 . S
C760 C759 1.387 . S
C760 C763 1.387 . S
H761 C757 0.950 . S
H762 C759 0.950 . S
C763 C754 1.390 . S
C763 H756 0.950 . S
C763 C760 1.387 . S
C764 C765 1.387 . S
C764 H768 0.950 . S
C764 C773 1.390 . S
C765 C764 1.387 . S
C765 C767 1.387 . S
H766 C773 0.950 . S
C767 C765 1.387 . S
C767 C769 1.390 . S
C767 H771 0.950 . S
H768 C764 0.950 . S
C769 C767 1.390 . S
C769 C770 1.387 . S
C769 H772 0.950 . S
C770 C769 1.387 . S
C770 C773 1.387 . S
H771 C767 0.950 . S
H772 C769 0.950 . S
C773 C764 1.390 . S
C773 H766 0.950 . S
C773 C770 1.387 . S
C774 C775 1.387 . S
C774 H778 0.950 . S
C774 C783 1.390 . S
C775 C774 1.387 . S
C775 C777 1.387 . S
H776 C783 0.950 . S
C777 C775 1.387 . S
C777 C779 1.390 . S
C777 H781 0.950 . S
H778 C774 0.950 . S
C779 C777 1.390 . S
C779 C780 1.387 . S
C779 H782 0.950 . S
C780 C779 1.387 . S
C780 C783 1.387 . S
H781 C777 0.950 . S
H782 C779 0.950 . S
C783 C774 1.390 . S
C783 H776 0.950 . S
C783 C780 1.387 . S
C784 C785 1.387 . S
C784 H788 0.950 . S
C784 C793 1.390 . S
C785 C784 1.387 . S
C785 C787 1.387 . S
H786 C793 0.950 . S
C787 C785 1.387 . S
C787 C789 1.390 . S
C787 H791 0.950 . S
H788 C784 0.950 . S
C789 C787 1.390 . S
C789 C790 1.387 . S
C789 H792 0.950 . S
C790 C789 1.387 . S
C790 C793 1.387 . S
H791 C787 0.950 . S
H792 C789 0.950 . S
C793 C784 1.390 . S
C793 H786 0.950 . S
C793 C790 1.387 . S
C794 C795 1.387 . S
C794 H798 0.950 . S
C794 C803 1.390 . S
C795 C794 1.387 . S
C795 C797 1.387 . S
H796 C803 0.950 . S
C797 C795 1.387 . S
C797 C799 1.390 . S
C797 H801 0.950 . S
H798 C794 0.950 . S
C799 C797 1.390 . S
C799 C800 1.387 . S
C799 H802 0.950 . S
C800 C799 1.387 . S
C800 C803 1.387 . S
H801 C797 0.950 . S
H802 C799 0.950 . S
C803 C794 1.390 . S
C803 H796 0.950 . S
C803 C800 1.387 . S
C804 C805 1.387 . S
C804 H808 0.950 . S
C804 C813 1.390 . S
C805 C804 1.387 . S
C805 C807 1.387 . S
H806 C813 0.950 . S
C807 C805 1.387 . S
C807 C809 1.390 . S
C807 H811 0.950 . S
H808 C804 0.950 . S
C809 C807 1.390 . S
C809 C810 1.387 . S
C809 H812 0.950 . S
C810 C809 1.387 . S
C810 C813 1.387 . S
H811 C807 0.950 . S
H812 C809 0.950 . S
C813 C804 1.390 . S
C813 H806 0.950 . S
C813 C810 1.387 . S
C814 C815 1.387 . S
C814 H818 0.950 . S
C814 C823 1.390 . S
C815 C814 1.387 . S
C815 C817 1.387 . S
H816 C823 0.950 . S
C817 C815 1.387 . S
C817 C819 1.390 . S
C817 H821 0.950 . S
H818 C814 0.950 . S
C819 C817 1.390 . S
C819 C820 1.387 . S
C819 H822 0.950 . S
C820 C819 1.387 . S
C820 C823 1.387 . S
H821 C817 0.950 . S
H822 C819 0.950 . S
C823 C814 1.390 . S
C823 H816 0.950 . S
C823 C820 1.387 . S
C824 C825 1.387 . S
C824 H828 0.950 . S
C824 C833 1.390 . S
C825 C824 1.387 . S
C825 C827 1.387 . S
H826 C833 0.950 . S
C827 C825 1.387 . S
C827 C829 1.390 . S
C827 H831 0.950 . S
H828 C824 0.950 . S
C829 C827 1.390 . S
C829 C830 1.387 . S
C829 H832 0.950 . S
C830 C829 1.387 . S
C830 C833 1.387 . S
H831 C827 0.950 . S
H832 C829 0.950 . S
C833 C824 1.390 . S
C833 H826 0.950 . S
C833 C830 1.387 . S
C834 C835 1.387 1_556 S
C834 H838 0.950 . S
C834 C843 1.390 . S
C835 C834 1.387 1_554 S
C835 C837 1.387 . S
H836 C843 0.950 . S
C837 C835 1.387 . S
C837 C839 1.390 . S
C837 H841 0.950 . S
H838 C834 0.950 . S
C839 C837 1.390 . S
C839 C840 1.387 1_554 S
C839 H842 0.950 . S
C840 C839 1.387 1_556 S
C840 C843 1.387 . S
H841 C837 0.950 . S
H842 C839 0.950 . S
C843 C834 1.390 . S
C843 H836 0.950 . S
C843 C840 1.387 . S
C844 C845 1.387 1_554 S
C844 H848 0.950 . S
C844 C853 1.390 . S
C845 C844 1.387 1_556 S
C845 C847 1.387 . S
H846 C853 0.950 . S
C847 C845 1.387 . S
C847 C849 1.390 . S
C847 H851 0.950 . S
H848 C844 0.950 . S
C849 C847 1.390 . S
C849 C850 1.387 1_556 S
C849 H852 0.950 . S
C850 C849 1.387 1_554 S
C850 C853 1.387 . S
H851 C847 0.950 . S
H852 C849 0.950 . S
C853 C844 1.390 . S
C853 H846 0.950 . S
C853 C850 1.387 . S
C854 C855 1.387 . S
C854 H858 0.950 . S
C854 C863 1.390 . S
C855 C854 1.387 . S
C855 C857 1.387 1_556 S
H856 C863 0.950 . S
C857 C855 1.387 1_554 S
C857 C859 1.390 . S
C857 H861 0.950 . S
H858 C854 0.950 . S
C859 C857 1.390 . S
C859 C860 1.387 . S
C859 H862 0.950 . S
C860 C859 1.387 . S
C860 C863 1.387 1_554 S
H861 C857 0.950 . S
H862 C859 0.950 . S
C863 C854 1.390 . S
C863 H856 0.950 . S
C863 C860 1.387 1_556 S
C864 C865 1.387 . S
C864 H868 0.950 . S
C864 C873 1.390 . S
C865 C864 1.387 . S
C865 C867 1.387 . S
H866 C873 0.950 . S
C867 C865 1.387 . S
C867 C869 1.390 . S
C867 H871 0.950 1_554 S
H868 C864 0.950 . S
C869 C867 1.390 . S
C869 C870 1.387 . S
C869 H872 0.950 1_554 S
C870 C869 1.387 . S
C870 C873 1.387 . S
H871 C867 0.950 1_556 S
H872 C869 0.950 1_556 S
C873 C864 1.390 . S
C873 H866 0.950 . S
C873 C870 1.387 . S
C874 C875 1.387 . S
C874 H878 0.955 . S
C874 C883 1.390 . S
C875 C874 1.387 . S
C875 C877 1.387 . S
H876 C883 0.950 1_556 S
C877 C875 1.387 . S
C877 C879 1.390 . S
C877 H881 0.950 . S
H878 C874 0.955 . S
C879 C877 1.390 . S
C879 C880 1.387 . S
C879 H882 0.950 . S
C880 C879 1.387 . S
C880 C883 1.387 . S
H881 C877 0.950 . S
H882 C879 0.950 . S
C883 C874 1.390 . S
C883 H876 0.950 1_554 S
C883 C880 1.387 . S
C884 C885 1.387 . S
C884 H888 0.950 . S
C884 C893 1.390 . S
C885 C884 1.387 . S
C885 C887 1.387 . S
H886 C893 0.950 1_556 S
C887 C885 1.387 . S
C887 C889 1.390 . S
C887 H891 0.950 . S
H888 C884 0.950 . S
C889 C887 1.390 . S
C889 C890 1.387 . S
C889 H892 0.950 . S
C890 C889 1.387 . S
C890 C893 1.387 . S
H891 C887 0.950 . S
H892 C889 0.950 . S
C893 C884 1.390 . S
C893 H886 0.950 1_554 S
C893 C890 1.387 . S
C894 C895 1.387 . S
C894 H898 0.950 . S
C894 C903 1.390 . S
C895 C894 1.387 . S
C895 C897 1.387 . S
H896 C903 0.950 . S
C897 C895 1.387 . S
C897 C899 1.390 . S
C897 H901 0.950 . S
H898 C894 0.950 . S
C899 C897 1.390 . S
C899 C900 1.387 . S
C899 H902 0.950 . S
C900 C899 1.387 . S
C900 C903 1.387 . S
H901 C897 0.950 . S
H902 C899 0.950 . S
C903 C894 1.390 . S
C903 H896 0.950 . S
C903 C900 1.387 . S
C904 C905 1.387 . S
C904 H908 0.950 . S
C904 C913 1.390 . S
C905 C904 1.387 . S
C905 C907 1.387 . S
H906 C913 0.950 . S
C907 C905 1.387 . S
C907 C909 1.390 . S
C907 H911 0.950 . S
H908 C904 0.950 . S
C909 C907 1.390 . S
C909 C910 1.387 . S
C909 H912 0.950 . S
C910 C909 1.387 . S
C910 C913 1.387 . S
H911 C907 0.950 . S
H912 C909 0.950 . S
C913 C904 1.390 . S
C913 H906 0.950 . S
C913 C910 1.387 . S
C914 C915 1.387 . S
C914 H918 0.950 . S
C914 C923 1.390 . S
C915 C914 1.387 . S
C915 C917 1.387 . S
H916 C923 0.950 . S
C917 C915 1.387 . S
C917 C919 1.390 . S
C917 H921 0.950 . S
H918 C914 0.950 . S
C919 C917 1.390 . S
C919 C920 1.387 . S
C919 H922 0.950 . S
C920 C919 1.387 . S
C920 C923 1.387 . S
H921 C917 0.950 . S
H922 C919 0.950 . S
C923 C914 1.390 . S
C923 H916 0.950 . S
C923 C920 1.387 . S
C924 C925 1.387 . S
C924 H928 0.950 . S
C924 C933 1.390 . S
C925 C924 1.387 . S
C925 C927 1.387 . S
H926 C933 0.950 . S
C927 C925 1.387 . S
C927 C929 1.390 . S
C927 H931 0.950 1_556 S
H928 C924 0.950 . S
C929 C927 1.390 . S
C929 C930 1.387 . S
C929 H932 0.950 . S
C930 C929 1.387 . S
C930 C933 1.387 . S
H931 C927 0.950 1_554 S
H932 C929 0.950 . S
C933 C924 1.390 . S
C933 H926 0.950 . S
C933 C930 1.387 . S
C934 C935 1.387 . S
C934 H938 0.950 1_556 S
C934 C943 1.390 . S
C935 C934 1.387 . S
C935 C937 1.387 . S
H936 C943 0.950 1_554 S
C937 C935 1.387 . S
C937 C939 1.390 . S
C937 H941 0.950 . S
H938 C934 0.950 1_554 S
C939 C937 1.390 . S
C939 C940 1.387 . S
C939 H942 0.950 . S
C940 C939 1.387 . S
C940 C943 1.387 . S
H941 C937 0.950 . S
H942 C939 0.950 . S
C943 C934 1.390 . S
C943 H936 0.950 1_556 S
C943 C940 1.387 . S
C944 C945 1.387 . S
C944 H948 0.950 . S
C944 C953 1.390 . S
C945 C944 1.387 . S
C945 C947 1.387 . S
H946 C953 0.950 . S
C947 C945 1.387 . S
C947 C949 1.390 . S
C947 H951 0.950 . S
H948 C944 0.950 . S
C949 C947 1.390 . S
C949 C950 1.387 . S
C949 H952 0.950 . S
C950 C949 1.387 . S
C950 C953 1.387 . S
H951 C947 0.950 . S
H952 C949 0.950 . S
C953 C944 1.390 . S
C953 H946 0.950 . S
C953 C950 1.387 . S
C954 C955 1.387 . S
C954 H958 0.950 . S
C954 C963 1.390 . S
C955 C954 1.387 . S
C955 C957 1.387 . S
H956 C963 0.950 . S
C957 C955 1.387 . S
C957 C959 1.390 . S
C957 H961 0.950 . S
H958 C954 0.950 . S
C959 C957 1.390 . S
C959 C960 1.387 . S
C959 H962 0.950 . S
C960 C959 1.387 . S
C960 C963 1.387 . S
H961 C957 0.950 . S
H962 C959 0.950 . S
C963 C954 1.390 . S
C963 H956 0.950 . S
C963 C960 1.387 . S
C964 C965 1.387 . S
C964 H968 0.950 . S
C964 C973 1.390 . S
C965 C964 1.387 . S
C965 C967 1.387 . S
H966 C973 0.950 . S
C967 C965 1.387 . S
C967 C969 1.390 . S
C967 H971 0.950 . S
H968 C964 0.950 . S
C969 C967 1.390 . S
C969 C970 1.387 . S
C969 H972 0.950 . S
C970 C969 1.387 . S
C970 C973 1.387 . S
H971 C967 0.950 . S
H972 C969 0.950 . S
C973 C964 1.390 . S
C973 H966 0.950 . S
C973 C970 1.387 . S
C974 C975 1.387 . S
C974 H978 0.950 . S
C974 C983 1.390 . S
C975 C974 1.387 . S
C975 C977 1.387 . S
H976 C983 0.950 . S
C977 C975 1.387 . S
C977 C979 1.390 . S
C977 H981 0.950 . S
H978 C974 0.950 . S
C979 C977 1.390 . S
C979 C980 1.387 . S
C979 H982 0.950 . S
C980 C979 1.387 . S
C980 C983 1.387 . S
H981 C977 0.950 . S
H982 C979 0.950 . S
C983 C974 1.390 . S
C983 H976 0.950 . S
C983 C980 1.387 . S
C984 C985 1.387 . S
C984 H988 0.950 . S
C984 C993 1.390 . S
C985 C984 1.387 . S
C985 C987 1.387 . S
H986 C993 0.950 . S
C987 C985 1.387 . S
C987 C989 1.390 . S
C987 H991 0.950 . S
H988 C984 0.950 . S
C989 C987 1.390 . S
C989 C990 1.387 . S
C989 H992 0.950 . S
C990 C989 1.387 . S
C990 C993 1.387 . S
H991 C987 0.950 . S
H992 C989 0.950 . S
C993 C984 1.390 . S
C993 H986 0.950 . S
C993 C990 1.387 . S
C994 C995 1.387 . S
C994 H998 0.950 . S
C994 C1003 1.390 . S
C995 C994 1.387 . S
C995 C997 1.387 . S
H996 C1003 0.950 . S
C997 C995 1.387 . S
C997 C999 1.390 . S
C997 H1001 0.950 . S
H998 C994 0.950 . S
C999 C997 1.390 . S
C999 C1000 1.387 . S
C999 H1002 0.950 . S
C1000 C999 1.387 . S
C1000 C1003 1.387 . S
H1001 C997 0.950 . S
H1002 C999 0.950 . S
C1003 C994 1.390 . S
C1003 H996 0.950 . S
C1003 C1000 1.387 . S
C1004 C1005 1.387 . S
C1004 H1008 0.950 . S
C1004 C1013 1.390 . S
C1005 C1004 1.387 . S
C1005 C1007 1.387 . S
H1006 C1013 0.950 . S
C1007 C1005 1.387 . S
C1007 C1009 1.390 . S
C1007 H1011 0.950 . S
H1008 C1004 0.950 . S
C1009 C1007 1.390 . S
C1009 C1010 1.387 . S
C1009 H1012 0.950 . S
C1010 C1009 1.387 . S
C1010 C1013 1.387 . S
H1011 C1007 0.950 . S
H1012 C1009 0.950 . S
C1013 C1004 1.390 . S
C1013 H1006 0.950 . S
C1013 C1010 1.387 . S
C1014 C1015 1.387 . S
C1014 H1018 0.950 . S
C1014 C1023 1.390 . S
C1015 C1014 1.387 . S
C1015 C1017 1.387 . S
H1016 C1023 0.950 . S
C1017 C1015 1.387 . S
C1017 C1019 1.390 . S
C1017 H1021 0.950 . S
H1018 C1014 0.950 . S
C1019 C1017 1.390 . S
C1019 C1020 1.387 . S
C1019 H1022 0.950 . S
C1020 C1019 1.387 . S
C1020 C1023 1.387 . S
H1021 C1017 0.950 . S
H1022 C1019 0.950 . S
C1023 C1014 1.390 . S
C1023 H1016 0.950 . S
C1023 C1020 1.387 . S
C1024 C1025 1.387 . S
C1024 H1028 0.950 . S
C1024 C1033 1.390 . S
C1025 C1024 1.387 . S
C1025 C1027 1.387 . S
H1026 C1033 0.950 . S
C1027 C1025 1.387 . S
C1027 C1029 1.390 . S
C1027 H1031 0.950 . S
H1028 C1024 0.950 . S
C1029 C1027 1.390 . S
C1029 C1030 1.387 . S
C1029 H1032 0.950 . S
C1030 C1029 1.387 . S
C1030 C1033 1.387 . S
H1031 C1027 0.950 . S
H1032 C1029 0.950 . S
C1033 C1024 1.390 . S
C1033 H1026 0.950 . S
C1033 C1030 1.387 . S
C1034 C1035 1.387 . S
C1034 H1038 0.950 . S
C1034 C1043 1.390 . S
C1035 C1034 1.387 . S
C1035 C1037 1.387 . S
H1036 C1043 0.950 . S
C1037 C1035 1.387 . S
C1037 C1039 1.390 . S
C1037 H1041 0.950 . S
H1038 C1034 0.950 . S
C1039 C1037 1.390 . S
C1039 C1040 1.387 . S
C1039 H1042 0.950 . S
C1040 C1039 1.387 . S
C1040 C1043 1.387 . S
H1041 C1037 0.950 . S
H1042 C1039 0.950 . S
C1043 C1034 1.390 . S
C1043 H1036 0.950 . S
C1043 C1040 1.387 . S
C1044 C1045 1.387 . S
C1044 H1048 0.950 . S
C1044 C1053 1.390 . S
C1045 C1044 1.387 . S
C1045 C1047 1.387 . S
H1046 C1053 0.950 . S
C1047 C1045 1.387 . S
C1047 C1049 1.390 . S
C1047 H1051 0.950 . S
H1048 C1044 0.950 . S
C1049 C1047 1.390 . S
C1049 C1050 1.387 . S
C1049 H1052 0.950 . S
C1050 C1049 1.387 . S
C1050 C1053 1.387 . S
H1051 C1047 0.950 . S
H1052 C1049 0.950 . S
C1053 C1044 1.390 . S
C1053 H1046 0.950 . S
C1053 C1050 1.387 . S
C1054 C1055 1.387 . S
C1054 H1058 0.950 . S
C1054 C1063 1.390 . S
C1055 C1054 1.387 . S
C1055 C1057 1.387 . S
H1056 C1063 0.950 . S
C1057 C1055 1.387 . S
C1057 C1059 1.390 . S
C1057 H1061 0.950 . S
H1058 C1054 0.950 . S
C1059 C1057 1.390 . S
C1059 C1060 1.387 . S
C1059 H1062 0.950 . S
C1060 C1059 1.387 . S
C1060 C1063 1.387 . S
H1061 C1057 0.950 . S
H1062 C1059 0.950 . S
C1063 C1054 1.390 . S
C1063 H1056 0.950 . S
C1063 C1060 1.387 . S
C1064 C1065 1.387 . S
C1064 H1068 0.950 . S
C1064 C1073 1.390 . S
C1065 C1064 1.387 . S
C1065 C1067 1.387 . S
H1066 C1073 0.950 . S
C1067 C1065 1.387 . S
C1067 C1069 1.390 . S
C1067 H1071 0.950 . S
H1068 C1064 0.950 . S
C1069 C1067 1.390 . S
C1069 C1070 1.387 . S
C1069 H1072 0.950 . S
C1070 C1069 1.387 . S
C1070 C1073 1.387 . S
H1071 C1067 0.950 . S
H1072 C1069 0.950 . S
C1073 C1064 1.390 . S
C1073 H1066 0.950 . S
C1073 C1070 1.387 . S
C1074 C1075 1.387 . S
C1074 H1078 0.950 . S
C1074 C1083 1.390 . S
C1075 C1074 1.387 . S
C1075 C1077 1.387 . S
H1076 C1083 0.950 . S
C1077 C1075 1.387 . S
C1077 C1079 1.390 . S
C1077 H1081 0.950 . S
H1078 C1074 0.950 . S
C1079 C1077 1.390 . S
C1079 C1080 1.387 . S
C1079 H1082 0.950 . S
C1080 C1079 1.387 . S
C1080 C1083 1.387 . S
H1081 C1077 0.950 . S
H1082 C1079 0.950 . S
C1083 C1074 1.390 . S
C1083 H1076 0.950 . S
C1083 C1080 1.387 . S
C1084 C1085 1.387 . S
C1084 H1088 0.950 . S
C1084 C1093 1.390 . S
C1085 C1084 1.387 . S
C1085 C1087 1.387 . S
H1086 C1093 0.950 . S
C1087 C1085 1.387 . S
C1087 C1089 1.390 . S
C1087 H1091 0.950 . S
H1088 C1084 0.950 . S
C1089 C1087 1.390 . S
C1089 C1090 1.387 . S
C1089 H1092 0.950 . S
C1090 C1089 1.387 . S
C1090 C1093 1.387 . S
H1091 C1087 0.950 . S
H1092 C1089 0.950 . S
C1093 C1084 1.390 . S
C1093 H1086 0.950 . S
C1093 C1090 1.387 . S
C1094 C1095 1.387 . S
C1094 H1098 0.950 . S
C1094 C1103 1.390 . S
C1095 C1094 1.387 . S
C1095 C1097 1.387 . S
H1096 C1103 0.950 . S
C1097 C1095 1.387 . S
C1097 C1099 1.390 . S
C1097 H1101 0.950 . S
H1098 C1094 0.950 . S
C1099 C1097 1.390 . S
C1099 C1100 1.387 . S
C1099 H1102 0.950 . S
C1100 C1099 1.387 . S
C1100 C1103 1.387 . S
H1101 C1097 0.950 . S
H1102 C1099 0.950 . S
C1103 C1094 1.390 . S
C1103 H1096 0.950 . S
C1103 C1100 1.387 . S
C1104 C1105 1.387 . S
C1104 H1108 0.950 . S
C1104 C1113 1.390 . S
C1105 C1104 1.387 . S
C1105 C1107 1.387 . S
H1106 C1113 0.950 . S
C1107 C1105 1.387 . S
C1107 C1109 1.390 . S
C1107 H1111 0.950 . S
H1108 C1104 0.950 . S
C1109 C1107 1.390 . S
C1109 C1110 1.387 . S
C1109 H1112 0.950 . S
C1110 C1109 1.387 . S
C1110 C1113 1.387 . S
H1111 C1107 0.950 . S
H1112 C1109 0.950 . S
C1113 C1104 1.390 . S
C1113 H1106 0.950 . S
C1113 C1110 1.387 . S
C1114 C1115 1.387 . S
C1114 H1118 0.950 . S
C1114 C1123 1.390 . S
C1115 C1114 1.387 . S
C1115 C1117 1.387 . S
H1116 C1123 0.950 . S
C1117 C1115 1.387 . S
C1117 C1119 1.390 . S
C1117 H1121 0.950 . S
H1118 C1114 0.950 . S
C1119 C1117 1.390 . S
C1119 C1120 1.387 . S
C1119 H1122 0.950 . S
C1120 C1119 1.387 . S
C1120 C1123 1.387 . S
H1121 C1117 0.950 . S
H1122 C1119 0.950 . S
C1123 C1114 1.390 . S
C1123 H1116 0.950 . S
C1123 C1120 1.387 . S
C1124 C1125 1.387 . S
C1124 H1128 0.950 . S
C1124 C1133 1.390 . S
C1125 C1124 1.387 . S
C1125 C1127 1.387 . S
H1126 C1133 0.950 . S
C1127 C1125 1.387 . S
C1127 C1129 1.390 . S
C1127 H1131 0.950 . S
H1128 C1124 0.950 . S
C1129 C1127 1.390 . S
C1129 C1130 1.387 . S
C1129 H1132 0.950 . S
C1130 C1129 1.387 . S
C1130 C1133 1.387 . S
H1131 C1127 0.950 . S
H1132 C1129 0.950 . S
C1133 C1124 1.390 . S
C1133 H1126 0.950 . S
C1133 C1130 1.387 . S
C1134 C1135 1.387 . S
C1134 H1138 0.950 . S
C1134 C1143 1.390 . S
C1135 C1134 1.387 . S
C1135 C1137 1.387 . S
H1136 C1143 0.950 . S
C1137 C1135 1.387 . S
C1137 C1139 1.390 . S
C1137 H1141 0.950 . S
H1138 C1134 0.950 . S
C1139 C1137 1.390 . S
C1139 C1140 1.387 . S
C1139 H1142 0.950 . S
C1140 C1139 1.387 . S
C1140 C1143 1.387 . S
H1141 C1137 0.950 . S
H1142 C1139 0.950 . S
C1143 C1134 1.390 . S
C1143 H1136 0.950 . S
C1143 C1140 1.387 . S
C1144 C1145 1.387 . S
C1144 H1148 0.950 . S
C1144 C1153 1.390 . S
C1145 C1144 1.387 . S
C1145 C1147 1.387 . S
H1146 C1153 0.950 . S
C1147 C1145 1.387 . S
C1147 C1149 1.390 . S
C1147 H1151 0.950 . S
H1148 C1144 0.950 . S
C1149 C1147 1.390 . S
C1149 C1150 1.387 . S
C1149 H1152 0.950 . S
C1150 C1149 1.387 . S
C1150 C1153 1.387 . S
H1151 C1147 0.950 . S
H1152 C1149 0.950 . S
C1153 C1144 1.390 . S
C1153 H1146 0.950 . S
C1153 C1150 1.387 . S
C1154 C1155 1.387 . S
C1154 H1158 0.950 . S
C1154 C1163 1.390 . S
C1155 C1154 1.387 . S
C1155 C1157 1.387 . S
H1156 C1163 0.950 . S
C1157 C1155 1.387 . S
C1157 C1159 1.390 . S
C1157 H1161 0.950 . S
H1158 C1154 0.950 . S
C1159 C1157 1.390 . S
C1159 C1160 1.387 . S
C1159 H1162 0.950 . S
C1160 C1159 1.387 . S
C1160 C1163 1.387 . S
H1161 C1157 0.950 . S
H1162 C1159 0.950 . S
C1163 C1154 1.390 . S
C1163 H1156 0.950 . S
C1163 C1160 1.387 . S
C1164 C1165 1.387 . S
C1164 H1168 0.950 . S
C1164 C1173 1.390 . S
C1165 C1164 1.387 . S
C1165 C1167 1.387 . S
H1166 C1173 0.950 . S
C1167 C1165 1.387 . S
C1167 C1169 1.390 . S
C1167 H1171 0.950 1_455 S
H1168 C1164 0.950 . S
C1169 C1167 1.390 . S
C1169 C1170 1.387 . S
C1169 H1172 0.950 . S
C1170 C1169 1.387 . S
C1170 C1173 1.387 . S
H1171 C1167 0.950 1_655 S
H1172 C1169 0.950 . S
C1173 C1164 1.390 . S
C1173 H1166 0.950 . S
C1173 C1170 1.387 . S
C1174 C1175 1.387 . S
C1174 H1178 0.950 . S
C1174 C1183 1.390 . S
C1175 C1174 1.387 . S
C1175 C1177 1.387 . S
H1176 C1183 0.950 . S
C1177 C1175 1.387 . S
C1177 C1179 1.390 . S
C1177 H1181 0.950 . S
H1178 C1174 0.950 . S
C1179 C1177 1.390 . S
C1179 C1180 1.387 . S
C1179 H1182 0.950 . S
C1180 C1179 1.387 . S
C1180 C1183 1.387 . S
H1181 C1177 0.950 . S
H1182 C1179 0.950 . S
C1183 C1174 1.390 . S
C1183 H1176 0.950 . S
C1183 C1180 1.387 . S
C1184 C1185 1.387 . S
C1184 H1188 0.950 . S
C1184 C1193 1.390 . S
C1185 C1184 1.387 . S
C1185 C1187 1.387 . S
H1186 C1193 0.950 . S
C1187 C1185 1.387 . S
C1187 C1189 1.390 . S
C1187 H1191 0.950 . S
H1188 C1184 0.950 . S
C1189 C1187 1.390 . S
C1189 C1190 1.387 . S
C1189 H1192 0.950 . S
C1190 C1189 1.387 . S
C1190 C1193 1.387 . S
H1191 C1187 0.950 . S
H1192 C1189 0.950 . S
C1193 C1184 1.390 . S
C1193 H1186 0.950 . S
C1193 C1190 1.387 . S
C1194 C1195 1.387 . S
C1194 H1198 0.950 . S
C1194 C1203 1.390 . S
C1195 C1194 1.387 . S
C1195 C1197 1.387 . S
H1196 C1203 0.950 . S
C1197 C1195 1.387 . S
C1197 C1199 1.390 . S
C1197 H1201 0.934 1_565 S
H1198 C1194 0.950 . S
C1199 C1197 1.390 . S
C1199 C1200 1.387 . S
C1199 H1202 0.950 1_565 S
C1200 C1199 1.387 . S
C1200 C1203 1.387 . S
H1201 C1197 0.934 1_545 S
H1202 C1199 0.950 1_545 S
C1203 C1194 1.390 . S
C1203 H1196 0.950 . S
C1203 C1200 1.387 . S
C1204 C1205 1.387 . S
C1204 H1208 0.950 . S
C1204 C1213 1.390 . S
C1205 C1204 1.387 . S
C1205 C1207 1.387 . S
H1206 C1213 0.950 . S
C1207 C1205 1.387 . S
C1207 C1209 1.390 . S
C1207 H1211 0.950 . S
H1208 C1204 0.950 . S
C1209 C1207 1.390 . S
C1209 C1210 1.387 . S
C1209 H1212 0.950 . S
C1210 C1209 1.387 . S
C1210 C1213 1.387 . S
H1211 C1207 0.950 . S
H1212 C1209 0.950 . S
C1213 C1204 1.390 . S
C1213 H1206 0.950 . S
C1213 C1210 1.387 . S
C1214 C1215 1.387 . S
C1214 H1218 0.950 . S
C1214 C1223 1.390 . S
C1215 C1214 1.387 . S
C1215 C1217 1.387 . S
H1216 C1223 0.950 . S
C1217 C1215 1.387 . S
C1217 C1219 1.390 . S
C1217 H1221 0.950 . S
H1218 C1214 0.950 . S
C1219 C1217 1.390 . S
C1219 C1220 1.387 . S
C1219 H1222 0.950 . S
C1220 C1219 1.387 . S
C1220 C1223 1.387 . S
H1221 C1217 0.950 . S
H1222 C1219 0.950 . S
C1223 C1214 1.390 . S
C1223 H1216 0.950 . S
C1223 C1220 1.387 . S
C505 C230 1.314 . S
C510 C6 1.307 . S
C515 C244 1.316 . S
C520 C20 1.309 . S
C525 C216 1.315 . S
C530 C34 1.307 . S
C535 C370 1.283 1_554 S
C540 C48 1.289 . S
C545 C62 1.290 . S
C550 C342 1.283 1_554 S
C555 C76 1.290 . S
C560 C356 1.282 1_554 S
C565 C90 1.311 . S
C570 C482 1.306 . S
C575 C496 1.308 . S
C580 C104 1.311 . S
C585 C468 1.307 . S
C590 C118 1.310 . S
C595 C132 1.280 . S
C600 C286 1.284 1_556 S
C605 C258 1.283 1_556 S
C610 C146 1.280 . S
C615 C160 1.280 . S
C620 C272 1.283 1_556 S
C625 C398 1.227 . S
C630 C174 1.218 . S
C635 C188 1.218 . S
C640 C412 1.224 . S
C645 C384 1.225 . S
C650 C202 1.217 . S
C655 C454 1.231 . S
C660 C300 1.226 . S
C665 C426 1.231 . S
C670 C314 1.227 . S
C675 C328 1.230 . S
C680 C440 1.230 . S
C685 C260 1.569 . S
C690 C8 1.365 . S
C695 C274 1.570 . S
C700 C22 1.365 . S
C705 C288 1.570 . S
C710 C36 1.365 . S
C715 C50 1.575 . S
C720 C470 1.367 . S
C725 C64 1.576 . S
C730 C484 1.367 . S
C735 C78 1.580 . S
C740 C498 1.373 . S
C745 C92 1.588 . S
C750 C344 1.377 . S
C755 C358 1.375 . S
C760 C106 1.587 . S
C765 C372 1.378 . S
C770 C120 1.590 . S
C775 C218 1.588 . S
C780 C134 1.373 . S
C785 C148 1.380 . S
C790 C232 1.593 . S
C795 C162 1.378 . S
C800 C246 1.591 . S
C805 C176 1.373 . S
C810 C428 1.583 . S
C815 C442 1.583 . S
C820 C190 1.373 . S
C825 C456 1.587 . S
C830 C204 1.379 . S
C835 C386 1.599 1_554 S
C840 C302 1.384 1_556 S
C845 C316 1.391 1_556 S
C850 C400 1.604 1_554 S
C855 C330 1.385 1_556 S
C860 C414 1.601 1_554 S
C865 C385 1.662 . S
C870 C7 1.693 . S
C875 C21 1.690 . S
C880 C399 1.659 . S
C885 C35 1.690 . S
C890 C413 1.660 . S
C895 C175 1.695 . S
C900 C49 1.661 . S
C905 C63 1.662 . S
C910 C189 1.696 . S
C915 C77 1.665 . S
C920 C203 1.698 . S
C925 C301 1.720 . S
C930 C91 1.694 . S
C935 C105 1.691 . S
C940 C315 1.719 . S
C945 C329 1.722 . S
C950 C119 1.695 . S
C955 C133 1.717 . S
C960 C427 1.684 . S
C965 C441 1.685 . S
C970 C147 1.718 . S
C975 C455 1.685 . S
C980 C161 1.717 . S
C985 C343 1.704 . S
C990 C217 1.673 . S
C995 C357 1.707 . S
C1000 C231 1.675 . S
C1005 C371 1.708 . S
C1010 C245 1.677 . S
C1015 C259 1.671 . S
C1020 C469 1.702 . S
C1025 C483 1.705 . S
C1030 C273 1.674 . S
C1035 C497 1.703 . S
C1040 C287 1.672 . S
C1045 C9 1.478 1_556 S
C1050 C233 1.480 . S
C1055 C23 1.479 1_556 S
C1060 C247 1.480 . S
C1065 C37 1.478 1_556 S
C1070 C219 1.480 . S
C1075 C373 1.510 . S
C1080 C51 1.511 . S
C1085 C345 1.511 . S
C1090 C65 1.513 . S
C1095 C359 1.509 . S
C1100 C79 1.511 . S
C1105 C485 1.482 . S
C1110 C93 1.482 1_554 S
C1115 C499 1.484 . S
C1120 C107 1.484 1_554 S
C1125 C471 1.482 . S
C1130 C121 1.482 1_554 S
C1135 C135 1.513 . S
C1140 C289 1.513 . S
C1145 C149 1.511 . S
C1150 C261 1.511 . S
C1155 C163 1.510 . S
C1160 C275 1.510 . S
C1165 C401 1.584 . S
C1170 C177 1.588 . S
C1175 C415 1.584 . S
C1180 C191 1.588 . S
C1185 C205 1.586 . S
C1190 C387 1.586 . S
C1195 C303 1.563 . S
C1200 C457 1.568 . S
C1205 C429 1.565 . S
C1210 C317 1.564 . S
C1215 C443 1.567 . S
C1220 C331 1.566 . S
