# Generated by pormake.
# Topology umw, (4)-cn, num edge types: 1
# Building blocks:
#     Node 0, Type 0, BuildingBlock: QUQFOY_clean_sbu_1, # of connection points: 4
#     Node 1, Type 0, BuildingBlock: QUQFOY_clean_sbu_1, # of connection points: 4
#     Node 2, Type 0, BuildingBlock: QUQFOY_clean_sbu_1, # of connection points: 4
#     Node 3, Type 0, BuildingBlock: QUQFOY_clean_sbu_1, # of connection points: 4
#     Node 4, Type 0, BuildingBlock: QUQFOY_clean_sbu_1, # of connection points: 4
#     Node 5, Type 0, BuildingBlock: QUQFOY_clean_sbu_1, # of connection points: 4
#     Node 6, Type 0, BuildingBlock: QUQFOY_clean_sbu_1, # of connection points: 4
#     Node 7, Type 0, BuildingBlock: QUQFOY_clean_sbu_1, # of connection points: 4
#     Edge 8, Type (0, 0), BuildingBlock: XIVTED_clean_linker_0, # of connection points: 2
#     Edge 9, Type (0, 0), BuildingBlock: XIVTED_clean_linker_0, # of connection points: 2
#     Edge 10, Type (0, 0), BuildingBlock: XIVTED_clean_linker_0, # of connection points: 2
#     Edge 11, Type (0, 0), BuildingBlock: XIVTED_clean_linker_0, # of connection points: 2
#     Edge 12, Type (0, 0), BuildingBlock: XIVTED_clean_linker_0, # of connection points: 2
#     Edge 13, Type (0, 0), BuildingBlock: XIVTED_clean_linker_0, # of connection points: 2
#     Edge 14, Type (0, 0), BuildingBlock: XIVTED_clean_linker_0, # of connection points: 2
#     Edge 15, Type (0, 0), BuildingBlock: XIVTED_clean_linker_0, # of connection points: 2
#     Edge 16, Type (0, 0), BuildingBlock: XIVTED_clean_linker_0, # of connection points: 2
#     Edge 17, Type (0, 0), BuildingBlock: XIVTED_clean_linker_0, # of connection points: 2
#     Edge 18, Type (0, 0), BuildingBlock: XIVTED_clean_linker_0, # of connection points: 2
#     Edge 19, Type (0, 0), BuildingBlock: XIVTED_clean_linker_0, # of connection points: 2
#     Edge 20, Type (0, 0), BuildingBlock: XIVTED_clean_linker_0, # of connection points: 2
#     Edge 21, Type (0, 0), BuildingBlock: XIVTED_clean_linker_0, # of connection points: 2
#     Edge 22, Type (0, 0), BuildingBlock: XIVTED_clean_linker_0, # of connection points: 2
#     Edge 23, Type (0, 0), BuildingBlock: XIVTED_clean_linker_0, # of connection points: 2
# Relax obj value: 0.048
# Max RMSD: 0.094
# Mean RMSD: 0.094
data_MOF--net-umw--node1-QUQFOY_clean_sbu_1--edge1-XIVTED_clean_linker_0
_symmetry_space_group_name_H-M    P1
_symmetry_Int_Tables_number       1
_symmetry_cell_setting            triclinic
loop_
_symmetry_equiv_pos_as_xyz
'x, y, z'
_cell_length_a     43.142675
_cell_length_b     43.157194
_cell_length_c     28.273795
_cell_angle_alpha  90.002771
_cell_angle_beta   90.02144
_cell_angle_gamma 90.082902
loop_
_atom_site_label
_atom_site_type_symbol
_atom_site_fract_x
_atom_site_fract_y
_atom_site_fract_z
_atom_type_partial_charge
O0 O 0.41998 0.17938 0.39926 0.0
Cd1 Cd 0.39062 0.17026 0.34397 0.0
Cd2 Cd 0.44736 0.17224 0.29845 0.0
O3 O 0.46204 0.19307 0.36024 0.0
O4 O 0.34994 0.17346 0.37664 0.0
O5 O 0.36554 0.20697 0.32247 0.0
C6 C 0.34547 0.19894 0.35408 0.0
C7 C 0.4616 0.1919 0.22455 0.0
C8 C 0.44712 0.19075 0.39882 0.0
C9 C 0.41411 0.11086 0.30624 0.0
O10 O 0.43974 0.12497 0.30059 0.0
O11 O 0.38989 0.12575 0.31783 0.0
O12 O 0.48128 0.17786 0.25132 0.0
O13 O 0.43383 0.19587 0.24059 0.0
O14 O 0.8131 0.41999 0.6492 0.0
Cd15 Cd 0.82201 0.39163 0.59272 0.0
Cd16 Cd 0.8189 0.44887 0.54894 0.0
O17 O 0.79845 0.46228 0.6117 0.0
O18 O 0.81963 0.35035 0.62386 0.0
O19 O 0.78527 0.36643 0.57129 0.0
C20 C 0.79389 0.34595 0.60188 0.0
C21 C 0.7985 0.46374 0.47579 0.0
C22 C 0.80137 0.44692 0.64979 0.0
C23 C 0.88078 0.41669 0.55442 0.0
O24 O 0.8663 0.44216 0.54986 0.0
O25 O 0.86628 0.3921 0.56559 0.0
O26 O 0.81209 0.48339 0.50321 0.0
O27 O 0.79533 0.43561 0.49079 0.0
O28 O 0.57417 0.81345 0.89701 0.0
Cd29 Cd 0.60305 0.82165 0.84088 0.0
Cd30 Cd 0.54584 0.81938 0.7964 0.0
O31 O 0.53176 0.79933 0.85918 0.0
O32 O 0.64401 0.81858 0.87286 0.0
O33 O 0.62769 0.78444 0.82011 0.0
C34 C 0.64807 0.79273 0.85112 0.0
C35 C 0.53054 0.79912 0.72328 0.0
C36 C 0.54701 0.80216 0.89742 0.0
C37 C 0.57941 0.88071 0.80203 0.0
O38 O 0.55367 0.86664 0.79728 0.0
O39 O 0.6037 0.86584 0.81344 0.0
O40 O 0.51121 0.81322 0.75054 0.0
O41 O 0.55858 0.79542 0.73837 0.0
O42 O 0.18135 0.57183 0.14712 0.0
Cd43 Cd 0.17146 0.60086 0.09184 0.0
Cd44 Cd 0.1737 0.54342 0.04651 0.0
O45 O 0.19464 0.52947 0.1086 0.0
O46 O 0.17378 0.64162 0.12459 0.0
O47 O 0.20767 0.62687 0.0705 0.0
C48 C 0.1992 0.6467 0.10215 0.0
C49 C 0.19317 0.52778 0.97312 0.0
C50 C 0.19265 0.54471 0.14693 0.0
C51 C 0.11209 0.57618 0.05447 0.0
O52 O 0.1264 0.55073 0.04861 0.0
O53 O 0.12678 0.60056 0.06611 0.0
O54 O 0.17942 0.50856 1.00103 0.0
O55 O 0.19691 0.55594 0.98762 0.0
O56 O 0.42135 0.81085 0.21358 0.0
Cd57 Cd 0.39226 0.81949 0.26928 0.0
Cd58 Cd 0.44965 0.81724 0.31438 0.0
O59 O 0.46389 0.7974 0.25157 0.0
O60 O 0.35142 0.81684 0.23676 0.0
O61 O 0.36689 0.78269 0.29 0.0
C62 C 0.34678 0.79116 0.25873 0.0
C63 C 0.46517 0.79726 0.38756 0.0
C64 C 0.44863 0.79991 0.2133 0.0
C65 C 0.41624 0.87858 0.30834 0.0
O66 O 0.44185 0.86445 0.31366 0.0
O67 O 0.39198 0.8638 0.29634 0.0
O68 O 0.4844 0.81138 0.36011 0.0
O69 O 0.43713 0.79329 0.37259 0.0
O70 O 0.18183 0.42016 0.46272 0.0
Cd71 Cd 0.17252 0.39163 0.5189 0.0
Cd72 Cd 0.1746 0.4493 0.56261 0.0
O73 O 0.19559 0.46275 0.50032 0.0
O74 O 0.17458 0.35059 0.48703 0.0
O75 O 0.20893 0.36595 0.54013 0.0
C76 C 0.20016 0.34577 0.50915 0.0
C77 C 0.19408 0.46506 0.63593 0.0
C78 C 0.19326 0.44725 0.46227 0.0
C79 C 0.11319 0.41618 0.55597 0.0
O80 O 0.12729 0.4419 0.56054 0.0
O81 O 0.12808 0.39176 0.54541 0.0
O82 O 0.18049 0.48427 0.60785 0.0
O83 O 0.1977 0.43686 0.62158 0.0
O84 O 0.5715 0.18205 0.71391 0.0
Cd85 Cd 0.6012 0.17253 0.76852 0.0
Cd86 Cd 0.54366 0.1742 0.81528 0.0
O87 O 0.52929 0.19485 0.75319 0.0
O88 O 0.64159 0.17528 0.7348 0.0
O89 O 0.62717 0.20887 0.78951 0.0
C90 C 0.64677 0.20064 0.75737 0.0
C91 C 0.52582 0.19273 0.8882 0.0
C92 C 0.54423 0.19297 0.71459 0.0
C93 C 0.57751 0.11299 0.8065 0.0
O94 O 0.55199 0.12707 0.81309 0.0
O95 O 0.60162 0.12788 0.79414 0.0
O96 O 0.50776 0.17836 0.85926 0.0
O97 O 0.55411 0.19758 0.87511 0.0
O98 O 0.81107 0.57166 0.96592 0.0
Cd99 Cd 0.82028 0.6009 0.0213 0.0
Cd100 Cd 0.81845 0.54336 0.06644 0.0
O101 O 0.79811 0.52902 0.00407 0.0
O102 O 0.81833 0.64149 0.98804 0.0
O103 O 0.78384 0.62697 0.04142 0.0
C104 C 0.79271 0.64669 0.00983 0.0
C105 C 0.79858 0.5281 0.13979 0.0
C106 C 0.80019 0.54434 0.96582 0.0
C107 C 0.87969 0.57697 0.05952 0.0
O108 O 0.86568 0.55127 0.06493 0.0
O109 O 0.86473 0.60116 0.04792 0.0
O110 O 0.81266 0.5088 0.11246 0.0
O111 O 0.79471 0.5561 0.12467 0.0
H112 H 0.50806 0.20525 0.41664 0.0
H113 H 0.4828 0.20497 0.6968 0.0
H114 H 0.41878 0.19676 0.48451 0.0
H115 H 0.5724 0.20071 0.62908 0.0
H116 H 0.4588 0.21244 0.61921 0.0
H117 H 0.53173 0.21397 0.49419 0.0
C118 C 0.4934 0.20558 0.44773 0.0
C119 C 0.4615 0.19972 0.4442 0.0
C120 C 0.48375 0.21021 0.62146 0.0
C121 C 0.48836 0.20961 0.53283 0.0
C122 C 0.49745 0.20602 0.66574 0.0
C123 C 0.52957 0.20165 0.66931 0.0
C124 C 0.50234 0.21006 0.58062 0.0
C125 C 0.54747 0.20342 0.6279 0.0
C126 C 0.50691 0.21051 0.49198 0.0
C127 C 0.44357 0.20064 0.48563 0.0
N128 N 0.53358 0.20718 0.58525 0.0
N129 N 0.45728 0.20517 0.52824 0.0
H130 H 0.79485 0.41714 0.73426 0.0
H131 H 0.79111 0.57368 0.88159 0.0
H132 H 0.78829 0.50774 0.67028 0.0
H133 H 0.79001 0.48288 0.94569 0.0
H134 H 0.78376 0.54987 0.80432 0.0
H135 H 0.78685 0.44049 0.81168 0.0
C136 C 0.79147 0.44197 0.73644 0.0
C137 C 0.79274 0.46061 0.69579 0.0
C138 C 0.78477 0.53513 0.83527 0.0
C139 C 0.78371 0.48752 0.78455 0.0
C140 C 0.78904 0.5487 0.87946 0.0
C141 C 0.79168 0.53017 0.92009 0.0
C142 C 0.78344 0.50275 0.8315 0.0
C143 C 0.78835 0.49801 0.91526 0.0
C144 C 0.78681 0.45527 0.78073 0.0
C145 C 0.78773 0.49254 0.70073 0.0
N146 N 0.78483 0.48527 0.87161 0.0
N147 N 0.78385 0.50505 0.74444 0.0
H148 H 0.41939 0.79212 0.12863 0.0
H149 H 0.5764 0.79546 0.98217 0.0
H150 H 0.51005 0.78958 0.19321 0.0
H151 H 0.48589 0.7899 0.91749 0.0
H152 H 0.55272 0.78757 0.05938 0.0
H153 H 0.4433 0.78546 0.05131 0.0
C154 C 0.44436 0.78989 0.1266 0.0
C155 C 0.46282 0.79189 0.16741 0.0
C156 C 0.53802 0.78774 0.02833 0.0
C157 C 0.49037 0.78443 0.07875 0.0
C158 C 0.55152 0.79233 0.98416 0.0
C159 C 0.53301 0.79381 0.94335 0.0
C160 C 0.50572 0.7849 0.0319 0.0
C161 C 0.50099 0.78916 0.94805 0.0
C162 C 0.45799 0.78601 0.08237 0.0
C163 C 0.49497 0.78839 0.16266 0.0
N164 N 0.4883 0.7853 0.99165 0.0
N165 N 0.50778 0.78524 0.119 0.0
H166 H 0.20068 0.4175 0.37794 0.0
H167 H 0.20228 0.57415 0.23094 0.0
H168 H 0.20591 0.5082 0.44193 0.0
H169 H 0.20366 0.48339 0.16671 0.0
H170 H 0.21052 0.5504 0.30803 0.0
H171 H 0.20863 0.44097 0.30057 0.0
C172 C 0.20378 0.44237 0.37578 0.0
C173 C 0.20209 0.46101 0.41641 0.0
C174 C 0.20938 0.53566 0.27708 0.0
C175 C 0.21105 0.48804 0.32771 0.0
C176 C 0.2046 0.54919 0.233 0.0
C177 C 0.20175 0.53065 0.19242 0.0
C178 C 0.211 0.50329 0.28079 0.0
C179 C 0.20545 0.49853 0.19713 0.0
C180 C 0.2084 0.45574 0.33152 0.0
C181 C 0.20676 0.493 0.41151 0.0
N182 N 0.20945 0.48581 0.24068 0.0
N183 N 0.2106 0.50557 0.36782 0.0
H184 H 0.34595 0.26204 0.35173 0.0
H185 H 0.18356 0.28952 0.47305 0.0
H186 H 0.29006 0.18401 0.39477 0.0
H187 H 0.2632 0.34597 0.50638 0.0
H188 H 0.21775 0.25269 0.43231 0.0
H189 H 0.31006 0.29669 0.39324 0.0
C190 C 0.32569 0.2523 0.36884 0.0
C191 C 0.32083 0.22018 0.36979 0.0
C192 C 0.22767 0.27296 0.44911 0.0
C193 C 0.28012 0.25947 0.4174 0.0
C194 C 0.20831 0.29381 0.47254 0.0
C195 C 0.2207 0.32059 0.49342 0.0
C196 C 0.2594 0.27958 0.44529 0.0
C197 C 0.25283 0.32535 0.49131 0.0
C198 C 0.30556 0.27199 0.39305 0.0
C199 C 0.29454 0.20868 0.39322 0.0
N200 N 0.27106 0.30529 0.46689 0.0
N201 N 0.27504 0.22835 0.41607 0.0
H202 H 0.80971 0.28928 0.6372 0.0
H203 H 0.64764 0.26372 0.76039 0.0
H204 H 0.73088 0.34695 0.60513 0.0
H205 H 0.70144 0.18492 0.71516 0.0
H206 H 0.68392 0.29795 0.71865 0.0
H207 H 0.77504 0.25271 0.67781 0.0
C208 C 0.78503 0.29389 0.63795 0.0
C209 C 0.77301 0.32094 0.61747 0.0
C210 C 0.68788 0.27316 0.7184 0.0
C211 C 0.7338 0.28023 0.66547 0.0
C212 C 0.66752 0.25371 0.74273 0.0
C213 C 0.67167 0.22151 0.74126 0.0
C214 C 0.71285 0.26033 0.69341 0.0
C215 C 0.69751 0.20966 0.71712 0.0
C216 C 0.7654 0.2732 0.6613 0.0
C217 C 0.74097 0.32612 0.61989 0.0
N218 N 0.71725 0.2291 0.69419 0.0
N219 N 0.72249 0.3062 0.64425 0.0
H220 H 0.80958 0.70234 0.97191 0.0
H221 H 0.64694 0.72961 0.85074 0.0
H222 H 0.72965 0.64679 0.007 0.0
H223 H 0.70384 0.80761 0.89081 0.0
H224 H 0.68266 0.69514 0.89298 0.0
H225 H 0.77557 0.73886 0.93018 0.0
C226 C 0.78481 0.69819 0.97155 0.0
C227 C 0.77228 0.67175 0.99324 0.0
C228 C 0.68742 0.71979 0.89198 0.0
C229 C 0.73376 0.71241 0.94402 0.0
C230 C 0.66738 0.73937 0.86735 0.0
C231 C 0.67257 0.77144 0.86725 0.0
C232 C 0.71311 0.73236 0.91569 0.0
C233 C 0.6991 0.78297 0.89007 0.0
C234 C 0.76554 0.71886 0.94757 0.0
C235 C 0.74012 0.66715 0.9913 0.0
N236 N 0.7185 0.76341 0.91334 0.0
N237 N 0.72197 0.68703 0.96636 0.0
H238 H 0.18318 0.70249 0.14044 0.0
H239 H 0.34666 0.72805 0.25947 0.0
H240 H 0.26226 0.64646 0.10349 0.0
H241 H 0.29129 0.80688 0.21903 0.0
H242 H 0.31017 0.69406 0.21764 0.0
H243 H 0.21793 0.73875 0.18153 0.0
C244 C 0.20791 0.69818 0.14023 0.0
C245 C 0.21999 0.67168 0.11822 0.0
C246 C 0.30592 0.71879 0.21847 0.0
C247 C 0.25934 0.71201 0.16674 0.0
C248 C 0.3264 0.7381 0.24286 0.0
C249 C 0.32186 0.77025 0.24273 0.0
C250 C 0.28044 0.73172 0.1948 0.0
C251 C 0.29553 0.78217 0.21993 0.0
C252 C 0.2276 0.7187 0.16386 0.0
C253 C 0.25212 0.66688 0.11945 0.0
N254 N 0.27568 0.76286 0.19691 0.0
N255 N 0.27068 0.68659 0.14408 0.0
H256 H 0.46498 0.91818 0.32201 0.0
H257 H 0.36325 0.07259 0.31029 0.0
H258 H 0.36571 0.91706 0.30206 0.0
H259 H 0.46296 0.07101 0.29701 0.0
H260 H 0.36309 0.01589 0.31266 0.0
H261 H 0.46399 0.97463 0.32044 0.0
C262 C 0.4429 0.92977 0.31771 0.0
C263 C 0.41538 0.91278 0.312 0.0
C264 C 0.38495 0.02801 0.30898 0.0
C265 C 0.41416 0.97757 0.30982 0.0
C266 C 0.38507 0.06036 0.30752 0.0
C267 C 0.41317 0.07663 0.30346 0.0
C268 C 0.41314 0.01183 0.30685 0.0
C269 C 0.44073 0.05952 0.30007 0.0
C270 C 0.4424 0.96205 0.3165 0.0
C271 C 0.38751 0.92918 0.30648 0.0
N272 N 0.44003 0.0281 0.30214 0.0
N273 N 0.38761 0.96068 0.30547 0.0
H274 H 0.91988 0.466 0.54199 0.0
H275 H 0.07507 0.36522 0.55333 0.0
H276 H 0.91979 0.36659 0.55964 0.0
H277 H 0.07317 0.46503 0.56408 0.0
H278 H 0.0184 0.36482 0.55116 0.0
H279 H 0.97639 0.46557 0.54351 0.0
C280 C 0.93171 0.44402 0.54578 0.0
C281 C 0.915 0.41629 0.55083 0.0
C282 C 0.03042 0.38677 0.55424 0.0
C283 C 0.97983 0.41569 0.55296 0.0
C284 C 0.06277 0.38703 0.55559 0.0
C285 C 0.07895 0.41521 0.55887 0.0
C286 C 0.01413 0.4149 0.55576 0.0
C287 C 0.06174 0.44274 0.56163 0.0
C288 C 0.96402 0.44383 0.54695 0.0
C289 C 0.93169 0.38854 0.55573 0.0
N290 N 0.0303 0.44189 0.55973 0.0
N291 N 0.96319 0.38896 0.55674 0.0
H292 H 0.63038 0.91891 0.80494 0.0
H293 H 0.52884 0.07327 0.81981 0.0
H294 H 0.5306 0.9206 0.79273 0.0
H295 H 0.62794 0.07455 0.79823 0.0
H296 H 0.52979 0.01685 0.8169 0.0
H297 H 0.63061 0.97561 0.80722 0.0
C298 C 0.60855 0.93117 0.80235 0.0
C299 C 0.58041 0.91492 0.79872 0.0
C300 C 0.55135 0.02945 0.81288 0.0
C301 C 0.58053 0.97972 0.80203 0.0
C302 C 0.55088 0.06171 0.81486 0.0
C303 C 0.57836 0.07875 0.80915 0.0
C304 C 0.57953 0.01398 0.80544 0.0
C305 C 0.60618 0.06239 0.80272 0.0
C306 C 0.60871 0.96352 0.80376 0.0
C307 C 0.55286 0.93207 0.79551 0.0
N308 N 0.60605 0.0309 0.80101 0.0
N309 N 0.55361 0.96349 0.79758 0.0
H310 H 0.91774 0.62798 0.05552 0.0
H311 H 0.07268 0.52708 0.04251 0.0
H312 H 0.91979 0.52832 0.069 0.0
H313 H 0.07328 0.6264 0.06125 0.0
H314 H 0.01621 0.52769 0.04532 0.0
H315 H 0.97443 0.6284 0.05289 0.0
C316 C 0.93007 0.60622 0.0583 0.0
C317 C 0.91393 0.57806 0.06244 0.0
C318 C 0.02868 0.54936 0.04873 0.0
C319 C 0.97875 0.57838 0.05876 0.0
C320 C 0.06096 0.54908 0.04682 0.0
C321 C 0.07782 0.57673 0.05177 0.0
C322 C 0.01302 0.57752 0.05536 0.0
C323 C 0.06127 0.60451 0.05738 0.0
C324 C 0.96243 0.60648 0.05669 0.0
C325 C 0.93118 0.55059 0.06586 0.0
N326 N 0.02977 0.60419 0.05906 0.0
N327 N 0.96261 0.55143 0.06363 0.0
H328 H 0.46615 0.19351 0.92019 0.0
H329 H 0.42409 0.21505 0.15444 0.0
H330 H 0.56019 0.21013 0.96562 0.0
H331 H 0.51877 0.1889 0.18306 0.0
H332 H 0.43776 0.2231 0.07143 0.0
H333 H 0.44861 0.20009 1.00131 0.0
C334 C 0.48307 0.19917 0.94716 0.0
C335 C 0.51472 0.20115 0.93607 0.0
C336 C 0.45553 0.2154 0.09573 0.0
C337 C 0.49471 0.20915 0.02955 0.0
C338 C 0.44779 0.21115 0.14332 0.0
C339 C 0.47018 0.20076 0.17563 0.0
C340 C 0.48587 0.20903 0.0803 0.0
C341 C 0.50062 0.19648 0.1593 0.0
C342 C 0.47297 0.20323 0.99363 0.0
C343 C 0.53557 0.20844 0.97255 0.0
N344 N 0.5075 0.20042 0.11277 0.0
N345 N 0.52525 0.21168 0.01778 0.0
H346 H 0.78155 0.56539 0.21397 0.0
H347 H 0.78267 0.42604 0.40141 0.0
H348 H 0.79557 0.46953 0.17633 0.0
H349 H 0.79409 0.52224 0.43933 0.0
H350 H 0.7753 0.44159 0.3188 0.0
H351 H 0.77408 0.54967 0.29649 0.0
C352 C 0.78255 0.54101 0.2229 0.0
C353 C 0.78954 0.51878 0.18829 0.0
C354 C 0.77905 0.4593 0.34534 0.0
C355 C 0.78108 0.50066 0.28255 0.0
C356 C 0.78311 0.45045 0.39252 0.0
C357 C 0.78936 0.47285 0.42724 0.0
C358 C 0.78103 0.49077 0.33287 0.0
C359 C 0.78967 0.50416 0.41365 0.0
C360 C 0.77843 0.53207 0.27002 0.0
C361 C 0.79057 0.48749 0.20192 0.0
N362 N 0.78581 0.51217 0.36753 0.0
N363 N 0.78661 0.47939 0.24799 0.0
H364 H 0.56784 0.78236 0.64897 0.0
H365 H 0.42798 0.78081 0.46221 0.0
H366 H 0.47189 0.79537 0.68704 0.0
H367 H 0.52386 0.79418 0.42377 0.0
H368 H 0.44388 0.77396 0.54479 0.0
H369 H 0.552 0.77454 0.56656 0.0
C370 C 0.54342 0.78307 0.64017 0.0
C371 C 0.52119 0.78987 0.67486 0.0
C372 C 0.46144 0.77802 0.51814 0.0
C373 C 0.50293 0.78099 0.58072 0.0
C374 C 0.4524 0.78178 0.47097 0.0
C375 C 0.47459 0.78841 0.43612 0.0
C376 C 0.49291 0.78067 0.53045 0.0
C377 C 0.50593 0.78943 0.44956 0.0
C378 C 0.53441 0.77875 0.5931 0.0
C379 C 0.48985 0.79052 0.66138 0.0
N380 N 0.51413 0.78582 0.49566 0.0
N381 N 0.48168 0.78635 0.61537 0.0
H382 H 0.19726 0.46888 0.93823 0.0
H383 H 0.19832 0.52399 0.67077 0.0
H384 H 0.20857 0.56458 0.8975 0.0
H385 H 0.20895 0.42829 0.71178 0.0
H386 H 0.20531 0.53941 0.7532 0.0
H387 H 0.20474 0.45348 0.85592 0.0
C388 C 0.2017 0.48665 0.91203 0.0
C389 C 0.20201 0.5181 0.92472 0.0
C390 C 0.20655 0.51507 0.74415 0.0
C391 C 0.2102 0.50062 0.83014 0.0
C392 C 0.20252 0.50622 0.69705 0.0
C393 C 0.20276 0.47476 0.68441 0.0
C394 C 0.21038 0.49227 0.77911 0.0
C395 C 0.20849 0.45279 0.71994 0.0
C396 C 0.20601 0.47782 0.865 0.0
C397 C 0.20805 0.54008 0.8893 0.0
N398 N 0.21162 0.46193 0.76577 0.0
N399 N 0.21146 0.53096 0.84351 0.0
loop_
_geom_bond_atom_site_label_1
_geom_bond_atom_site_label_2
_geom_bond_distance
_geom_bond_site_symmetry_2
_ccdc_geom_bond_type
O0 Cd1 2.223 . S
O0 C8 1.315 . S
Cd1 O0 2.223 . S
Cd1 O4 2.297 . S
Cd1 O5 2.439 . S
Cd1 O11 2.240 . S
Cd2 O3 2.240 . S
Cd2 O10 2.223 . S
Cd2 O12 2.297 . S
Cd2 O13 2.439 . S
O3 Cd2 2.240 . S
O3 C8 1.279 . S
O4 Cd1 2.297 . S
O4 C6 1.247 . S
O5 Cd1 2.439 . S
O5 C6 1.208 . S
C6 O4 1.247 . S
C6 O5 1.208 . S
C7 O12 1.247 . S
C7 O13 1.208 . S
C8 O0 1.315 . S
C8 O3 1.279 . S
C9 O10 1.315 . S
C9 O11 1.279 . S
O10 Cd2 2.223 . S
O10 C9 1.315 . S
O11 Cd1 2.240 . S
O11 C9 1.279 . S
O12 Cd2 2.297 . S
O12 C7 1.247 . S
O13 Cd2 2.439 . S
O13 C7 1.208 . S
O14 Cd15 2.223 . S
O14 C22 1.315 . S
Cd15 O14 2.223 . S
Cd15 O18 2.297 . S
Cd15 O19 2.439 . S
Cd15 O25 2.240 . S
Cd16 O17 2.240 . S
Cd16 O24 2.223 . S
Cd16 O26 2.297 . S
Cd16 O27 2.439 . S
O17 Cd16 2.240 . S
O17 C22 1.279 . S
O18 Cd15 2.297 . S
O18 C20 1.247 . S
O19 Cd15 2.439 . S
O19 C20 1.208 . S
C20 O18 1.247 . S
C20 O19 1.208 . S
C21 O26 1.247 . S
C21 O27 1.208 . S
C22 O14 1.315 . S
C22 O17 1.279 . S
C23 O24 1.315 . S
C23 O25 1.279 . S
O24 Cd16 2.223 . S
O24 C23 1.315 . S
O25 Cd15 2.240 . S
O25 C23 1.279 . S
O26 Cd16 2.297 . S
O26 C21 1.247 . S
O27 Cd16 2.439 . S
O27 C21 1.208 . S
O28 Cd29 2.223 . S
O28 C36 1.315 . S
Cd29 O28 2.223 . S
Cd29 O32 2.297 . S
Cd29 O33 2.439 . S
Cd29 O39 2.240 . S
Cd30 O31 2.240 . S
Cd30 O38 2.223 . S
Cd30 O40 2.297 . S
Cd30 O41 2.439 . S
O31 Cd30 2.240 . S
O31 C36 1.279 . S
O32 Cd29 2.297 . S
O32 C34 1.247 . S
O33 Cd29 2.439 . S
O33 C34 1.208 . S
C34 O32 1.247 . S
C34 O33 1.208 . S
C35 O40 1.247 . S
C35 O41 1.208 . S
C36 O28 1.315 . S
C36 O31 1.279 . S
C37 O38 1.315 . S
C37 O39 1.279 . S
O38 Cd30 2.223 . S
O38 C37 1.315 . S
O39 Cd29 2.240 . S
O39 C37 1.279 . S
O40 Cd30 2.297 . S
O40 C35 1.247 . S
O41 Cd30 2.439 . S
O41 C35 1.208 . S
O42 Cd43 2.223 . S
O42 C50 1.315 . S
Cd43 O42 2.223 . S
Cd43 O46 2.297 . S
Cd43 O47 2.439 . S
Cd43 O53 2.240 . S
Cd44 O45 2.240 . S
Cd44 O52 2.223 . S
Cd44 O54 2.297 1_554 S
Cd44 O55 2.439 1_554 S
O45 Cd44 2.240 . S
O45 C50 1.279 . S
O46 Cd43 2.297 . S
O46 C48 1.247 . S
O47 Cd43 2.439 . S
O47 C48 1.208 . S
C48 O46 1.247 . S
C48 O47 1.208 . S
C49 O54 1.247 . S
C49 O55 1.208 . S
C50 O42 1.315 . S
C50 O45 1.279 . S
C51 O52 1.315 . S
C51 O53 1.279 . S
O52 Cd44 2.223 . S
O52 C51 1.315 . S
O53 Cd43 2.240 . S
O53 C51 1.279 . S
O54 Cd44 2.297 1_556 S
O54 C49 1.247 . S
O55 Cd44 2.439 1_556 S
O55 C49 1.208 . S
O56 Cd57 2.223 . S
O56 C64 1.315 . S
Cd57 O56 2.223 . S
Cd57 O60 2.297 . S
Cd57 O61 2.439 . S
Cd57 O67 2.240 . S
Cd58 O59 2.240 . S
Cd58 O66 2.223 . S
Cd58 O68 2.297 . S
Cd58 O69 2.439 . S
O59 Cd58 2.240 . S
O59 C64 1.279 . S
O60 Cd57 2.297 . S
O60 C62 1.247 . S
O61 Cd57 2.439 . S
O61 C62 1.208 . S
C62 O60 1.247 . S
C62 O61 1.208 . S
C63 O68 1.247 . S
C63 O69 1.208 . S
C64 O56 1.315 . S
C64 O59 1.279 . S
C65 O66 1.315 . S
C65 O67 1.279 . S
O66 Cd58 2.223 . S
O66 C65 1.315 . S
O67 Cd57 2.240 . S
O67 C65 1.279 . S
O68 Cd58 2.297 . S
O68 C63 1.247 . S
O69 Cd58 2.439 . S
O69 C63 1.208 . S
O70 Cd71 2.223 . S
O70 C78 1.315 . S
Cd71 O70 2.223 . S
Cd71 O74 2.297 . S
Cd71 O75 2.439 . S
Cd71 O81 2.240 . S
Cd72 O73 2.240 . S
Cd72 O80 2.223 . S
Cd72 O82 2.297 . S
Cd72 O83 2.439 . S
O73 Cd72 2.240 . S
O73 C78 1.279 . S
O74 Cd71 2.297 . S
O74 C76 1.247 . S
O75 Cd71 2.439 . S
O75 C76 1.208 . S
C76 O74 1.247 . S
C76 O75 1.208 . S
C77 O82 1.247 . S
C77 O83 1.208 . S
C78 O70 1.315 . S
C78 O73 1.279 . S
C79 O80 1.315 . S
C79 O81 1.279 . S
O80 Cd72 2.223 . S
O80 C79 1.315 . S
O81 Cd71 2.240 . S
O81 C79 1.279 . S
O82 Cd72 2.297 . S
O82 C77 1.247 . S
O83 Cd72 2.439 . S
O83 C77 1.208 . S
O84 Cd85 2.223 . S
O84 C92 1.315 . S
Cd85 O84 2.223 . S
Cd85 O88 2.297 . S
Cd85 O89 2.439 . S
Cd85 O95 2.240 . S
Cd86 O87 2.240 . S
Cd86 O94 2.223 . S
Cd86 O96 2.297 . S
Cd86 O97 2.439 . S
O87 Cd86 2.240 . S
O87 C92 1.279 . S
O88 Cd85 2.297 . S
O88 C90 1.247 . S
O89 Cd85 2.439 . S
O89 C90 1.208 . S
C90 O88 1.247 . S
C90 O89 1.208 . S
C91 O96 1.247 . S
C91 O97 1.208 . S
C92 O84 1.315 . S
C92 O87 1.279 . S
C93 O94 1.315 . S
C93 O95 1.279 . S
O94 Cd86 2.223 . S
O94 C93 1.315 . S
O95 Cd85 2.240 . S
O95 C93 1.279 . S
O96 Cd86 2.297 . S
O96 C91 1.247 . S
O97 Cd86 2.439 . S
O97 C91 1.208 . S
O98 Cd99 2.223 . S
O98 C106 1.315 . S
Cd99 O98 2.223 . S
Cd99 O102 2.297 . S
Cd99 O103 2.439 1_556 S
Cd99 O109 2.240 1_556 S
Cd100 O101 2.240 1_554 S
Cd100 O108 2.223 . S
Cd100 O110 2.297 . S
Cd100 O111 2.439 . S
O101 Cd100 2.240 1_556 S
O101 C106 1.279 . S
O102 Cd99 2.297 . S
O102 C104 1.247 . S
O103 Cd99 2.439 1_554 S
O103 C104 1.208 1_554 S
C104 O102 1.247 . S
C104 O103 1.208 1_556 S
C105 O110 1.247 . S
C105 O111 1.208 . S
C106 O98 1.315 . S
C106 O101 1.279 . S
C107 O108 1.315 . S
C107 O109 1.279 . S
O108 Cd100 2.223 . S
O108 C107 1.315 . S
O109 Cd99 2.240 1_554 S
O109 C107 1.279 . S
O110 Cd100 2.297 . S
O110 C105 1.247 . S
O111 Cd100 2.439 . S
O111 C105 1.208 . S
H112 C118 0.930 . S
H113 C122 0.930 . S
H114 C127 0.929 . S
H115 C125 0.929 . S
H116 C120 0.929 . S
H117 C126 0.929 . S
C118 H112 0.930 . S
C118 C119 1.367 . S
C118 C126 1.378 . S
C119 C118 1.367 . S
C119 C127 1.433 . S
C120 H116 0.929 . S
C120 C122 1.378 . S
C120 C124 1.350 . S
C121 C124 1.463 . S
C121 C126 1.350 . S
C121 N129 1.427 . S
C122 H113 0.930 . S
C122 C120 1.378 . S
C122 C123 1.367 . S
C123 C122 1.367 . S
C123 C125 1.433 . S
C124 C120 1.350 . S
C124 C121 1.463 . S
C124 N128 1.427 . S
C125 H115 0.929 . S
C125 C123 1.433 . S
C125 N128 1.384 . S
C126 H117 0.929 . S
C126 C118 1.378 . S
C126 C121 1.350 . S
C127 H114 0.929 . S
C127 C119 1.433 . S
C127 N129 1.384 . S
N128 C124 1.427 . S
N128 C125 1.384 . S
N129 C121 1.427 . S
N129 C127 1.384 . S
H130 C136 0.930 . S
H131 C140 0.930 . S
H132 C145 0.929 . S
H133 C143 0.929 . S
H134 C138 0.929 . S
H135 C144 0.929 . S
C136 H130 0.930 . S
C136 C137 1.367 . S
C136 C144 1.378 . S
C137 C136 1.367 . S
C137 C145 1.433 . S
C138 H134 0.929 . S
C138 C140 1.378 . S
C138 C142 1.350 . S
C139 C142 1.463 . S
C139 C144 1.350 . S
C139 N147 1.427 . S
C140 H131 0.930 . S
C140 C138 1.378 . S
C140 C141 1.367 . S
C141 C140 1.367 . S
C141 C143 1.433 . S
C142 C138 1.350 . S
C142 C139 1.463 . S
C142 N146 1.427 . S
C143 H133 0.929 . S
C143 C141 1.433 . S
C143 N146 1.384 . S
C144 H135 0.929 . S
C144 C136 1.378 . S
C144 C139 1.350 . S
C145 H132 0.929 . S
C145 C137 1.433 . S
C145 N147 1.384 . S
N146 C142 1.427 . S
N146 C143 1.384 . S
N147 C139 1.427 . S
N147 C145 1.384 . S
H148 C154 0.930 . S
H149 C158 0.930 . S
H150 C163 0.929 . S
H151 C161 0.929 . S
H152 C156 0.929 . S
H153 C162 0.929 . S
C154 H148 0.930 . S
C154 C155 1.367 . S
C154 C162 1.378 . S
C155 C154 1.367 . S
C155 C163 1.433 . S
C156 H152 0.929 . S
C156 C158 1.378 1_554 S
C156 C160 1.350 . S
C157 C160 1.463 . S
C157 C162 1.350 . S
C157 N165 1.427 . S
C158 H149 0.930 . S
C158 C156 1.378 1_556 S
C158 C159 1.367 . S
C159 C158 1.367 . S
C159 C161 1.433 . S
C160 C156 1.350 . S
C160 C157 1.463 . S
C160 N164 1.427 1_554 S
C161 H151 0.929 . S
C161 C159 1.433 . S
C161 N164 1.384 . S
C162 H153 0.929 . S
C162 C154 1.378 . S
C162 C157 1.350 . S
C163 H150 0.929 . S
C163 C155 1.433 . S
C163 N165 1.384 . S
N164 C160 1.427 1_556 S
N164 C161 1.384 . S
N165 C157 1.427 . S
N165 C163 1.384 . S
H166 C172 0.930 . S
H167 C176 0.930 . S
H168 C181 0.929 . S
H169 C179 0.929 . S
H170 C174 0.929 . S
H171 C180 0.929 . S
C172 H166 0.930 . S
C172 C173 1.367 . S
C172 C180 1.378 . S
C173 C172 1.367 . S
C173 C181 1.433 . S
C174 H170 0.929 . S
C174 C176 1.378 . S
C174 C178 1.350 . S
C175 C178 1.463 . S
C175 C180 1.350 . S
C175 N183 1.427 . S
C176 H167 0.930 . S
C176 C174 1.378 . S
C176 C177 1.367 . S
C177 C176 1.367 . S
C177 C179 1.433 . S
C178 C174 1.350 . S
C178 C175 1.463 . S
C178 N182 1.427 . S
C179 H169 0.929 . S
C179 C177 1.433 . S
C179 N182 1.384 . S
C180 H171 0.929 . S
C180 C172 1.378 . S
C180 C175 1.350 . S
C181 H168 0.929 . S
C181 C173 1.433 . S
C181 N183 1.384 . S
N182 C178 1.427 . S
N182 C179 1.384 . S
N183 C175 1.427 . S
N183 C181 1.384 . S
H184 C190 0.930 . S
H185 C194 0.930 . S
H186 C199 0.929 . S
H187 C197 0.929 . S
H188 C192 0.929 . S
H189 C198 0.929 . S
C190 H184 0.930 . S
C190 C191 1.367 . S
C190 C198 1.378 . S
C191 C190 1.367 . S
C191 C199 1.433 . S
C192 H188 0.929 . S
C192 C194 1.378 . S
C192 C196 1.350 . S
C193 C196 1.463 . S
C193 C198 1.350 . S
C193 N201 1.427 . S
C194 H185 0.930 . S
C194 C192 1.378 . S
C194 C195 1.367 . S
C195 C194 1.367 . S
C195 C197 1.433 . S
C196 C192 1.350 . S
C196 C193 1.463 . S
C196 N200 1.427 . S
C197 H187 0.929 . S
C197 C195 1.433 . S
C197 N200 1.384 . S
C198 H189 0.929 . S
C198 C190 1.378 . S
C198 C193 1.350 . S
C199 H186 0.929 . S
C199 C191 1.433 . S
C199 N201 1.384 . S
N200 C196 1.427 . S
N200 C197 1.384 . S
N201 C193 1.427 . S
N201 C199 1.384 . S
H202 C208 0.930 . S
H203 C212 0.930 . S
H204 C217 0.929 . S
H205 C215 0.929 . S
H206 C210 0.929 . S
H207 C216 0.929 . S
C208 H202 0.930 . S
C208 C209 1.367 . S
C208 C216 1.378 . S
C209 C208 1.367 . S
C209 C217 1.433 . S
C210 H206 0.929 . S
C210 C212 1.378 . S
C210 C214 1.350 . S
C211 C214 1.463 . S
C211 C216 1.350 . S
C211 N219 1.427 . S
C212 H203 0.930 . S
C212 C210 1.378 . S
C212 C213 1.367 . S
C213 C212 1.367 . S
C213 C215 1.433 . S
C214 C210 1.350 . S
C214 C211 1.463 . S
C214 N218 1.427 . S
C215 H205 0.929 . S
C215 C213 1.433 . S
C215 N218 1.384 . S
C216 H207 0.929 . S
C216 C208 1.378 . S
C216 C211 1.350 . S
C217 H204 0.929 . S
C217 C209 1.433 . S
C217 N219 1.384 . S
N218 C214 1.427 . S
N218 C215 1.384 . S
N219 C211 1.427 . S
N219 C217 1.384 . S
H220 C226 0.930 . S
H221 C230 0.930 . S
H222 C235 0.929 . S
H223 C233 0.929 . S
H224 C228 0.929 . S
H225 C234 0.929 . S
C226 H220 0.930 . S
C226 C227 1.367 . S
C226 C234 1.378 . S
C227 C226 1.367 . S
C227 C235 1.433 . S
C228 H224 0.929 . S
C228 C230 1.378 . S
C228 C232 1.350 . S
C229 C232 1.463 . S
C229 C234 1.350 . S
C229 N237 1.427 . S
C230 H221 0.930 . S
C230 C228 1.378 . S
C230 C231 1.367 . S
C231 C230 1.367 . S
C231 C233 1.433 . S
C232 C228 1.350 . S
C232 C229 1.463 . S
C232 N236 1.427 . S
C233 H223 0.929 . S
C233 C231 1.433 . S
C233 N236 1.384 . S
C234 H225 0.929 . S
C234 C226 1.378 . S
C234 C229 1.350 . S
C235 H222 0.929 . S
C235 C227 1.433 . S
C235 N237 1.384 . S
N236 C232 1.427 . S
N236 C233 1.384 . S
N237 C229 1.427 . S
N237 C235 1.384 . S
H238 C244 0.930 . S
H239 C248 0.930 . S
H240 C253 0.929 . S
H241 C251 0.929 . S
H242 C246 0.929 . S
H243 C252 0.929 . S
C244 H238 0.930 . S
C244 C245 1.367 . S
C244 C252 1.378 . S
C245 C244 1.367 . S
C245 C253 1.433 . S
C246 H242 0.929 . S
C246 C248 1.378 . S
C246 C250 1.350 . S
C247 C250 1.463 . S
C247 C252 1.350 . S
C247 N255 1.427 . S
C248 H239 0.930 . S
C248 C246 1.378 . S
C248 C249 1.367 . S
C249 C248 1.367 . S
C249 C251 1.433 . S
C250 C246 1.350 . S
C250 C247 1.463 . S
C250 N254 1.427 . S
C251 H241 0.929 . S
C251 C249 1.433 . S
C251 N254 1.384 . S
C252 H243 0.929 . S
C252 C244 1.378 . S
C252 C247 1.350 . S
C253 H240 0.929 . S
C253 C245 1.433 . S
C253 N255 1.384 . S
N254 C250 1.427 . S
N254 C251 1.384 . S
N255 C247 1.427 . S
N255 C253 1.384 . S
H256 C262 0.930 . S
H257 C266 0.930 . S
H258 C271 0.929 . S
H259 C269 0.929 . S
H260 C264 0.929 . S
H261 C270 0.929 . S
C262 H256 0.930 . S
C262 C263 1.367 . S
C262 C270 1.378 . S
C263 C262 1.367 . S
C263 C271 1.433 . S
C264 H260 0.929 . S
C264 C266 1.378 . S
C264 C268 1.350 . S
C265 C268 1.463 1_565 S
C265 C270 1.350 . S
C265 N273 1.427 . S
C266 H257 0.930 . S
C266 C264 1.378 . S
C266 C267 1.367 . S
C267 C266 1.367 . S
C267 C269 1.433 . S
C268 C264 1.350 . S
C268 C265 1.463 1_545 S
C268 N272 1.427 . S
C269 H259 0.929 . S
C269 C267 1.433 . S
C269 N272 1.384 . S
C270 H261 0.929 . S
C270 C262 1.378 . S
C270 C265 1.350 . S
C271 H258 0.929 . S
C271 C263 1.433 . S
C271 N273 1.384 . S
N272 C268 1.427 . S
N272 C269 1.384 . S
N273 C265 1.427 . S
N273 C271 1.384 . S
H274 C280 0.930 . S
H275 C284 0.930 . S
H276 C289 0.929 . S
H277 C287 0.929 . S
H278 C282 0.929 . S
H279 C288 0.929 . S
C280 H274 0.930 . S
C280 C281 1.367 . S
C280 C288 1.378 . S
C281 C280 1.367 . S
C281 C289 1.433 . S
C282 H278 0.929 . S
C282 C284 1.378 . S
C282 C286 1.350 . S
C283 C286 1.463 1_655 S
C283 C288 1.350 . S
C283 N291 1.427 . S
C284 H275 0.930 . S
C284 C282 1.378 . S
C284 C285 1.367 . S
C285 C284 1.367 . S
C285 C287 1.433 . S
C286 C282 1.350 . S
C286 C283 1.463 1_455 S
C286 N290 1.427 . S
C287 H277 0.929 . S
C287 C285 1.433 . S
C287 N290 1.384 . S
C288 H279 0.929 . S
C288 C280 1.378 . S
C288 C283 1.350 . S
C289 H276 0.929 . S
C289 C281 1.433 . S
C289 N291 1.384 . S
N290 C286 1.427 . S
N290 C287 1.384 . S
N291 C283 1.427 . S
N291 C289 1.384 . S
H292 C298 0.930 . S
H293 C302 0.930 . S
H294 C307 0.929 . S
H295 C305 0.929 . S
H296 C300 0.929 . S
H297 C306 0.929 . S
C298 H292 0.930 . S
C298 C299 1.367 . S
C298 C306 1.378 . S
C299 C298 1.367 . S
C299 C307 1.433 . S
C300 H296 0.929 . S
C300 C302 1.378 . S
C300 C304 1.350 . S
C301 C304 1.463 1_565 S
C301 C306 1.350 . S
C301 N309 1.427 . S
C302 H293 0.930 . S
C302 C300 1.378 . S
C302 C303 1.367 . S
C303 C302 1.367 . S
C303 C305 1.433 . S
C304 C300 1.350 . S
C304 C301 1.463 1_545 S
C304 N308 1.427 . S
C305 H295 0.929 . S
C305 C303 1.433 . S
C305 N308 1.384 . S
C306 H297 0.929 . S
C306 C298 1.378 . S
C306 C301 1.350 . S
C307 H294 0.929 . S
C307 C299 1.433 . S
C307 N309 1.384 . S
N308 C304 1.427 . S
N308 C305 1.384 . S
N309 C301 1.427 . S
N309 C307 1.384 . S
H310 C316 0.930 . S
H311 C320 0.930 . S
H312 C325 0.929 . S
H313 C323 0.929 . S
H314 C318 0.929 . S
H315 C324 0.929 . S
C316 H310 0.930 . S
C316 C317 1.367 . S
C316 C324 1.378 . S
C317 C316 1.367 . S
C317 C325 1.433 . S
C318 H314 0.929 . S
C318 C320 1.378 . S
C318 C322 1.350 . S
C319 C322 1.463 1_655 S
C319 C324 1.350 . S
C319 N327 1.427 . S
C320 H311 0.930 . S
C320 C318 1.378 . S
C320 C321 1.367 . S
C321 C320 1.367 . S
C321 C323 1.433 . S
C322 C318 1.350 . S
C322 C319 1.463 1_455 S
C322 N326 1.427 . S
C323 H313 0.929 . S
C323 C321 1.433 . S
C323 N326 1.384 . S
C324 H315 0.929 . S
C324 C316 1.378 . S
C324 C319 1.350 . S
C325 H312 0.929 . S
C325 C317 1.433 . S
C325 N327 1.384 . S
N326 C322 1.427 . S
N326 C323 1.384 . S
N327 C319 1.427 . S
N327 C325 1.384 . S
H328 C334 0.930 . S
H329 C338 0.930 . S
H330 C343 0.929 . S
H331 C341 0.929 . S
H332 C336 0.929 . S
H333 C342 0.929 . S
C334 H328 0.930 . S
C334 C335 1.367 . S
C334 C342 1.378 1_556 S
C335 C334 1.367 . S
C335 C343 1.433 . S
C336 H332 0.929 . S
C336 C338 1.378 . S
C336 C340 1.350 . S
C337 C340 1.463 . S
C337 C342 1.350 . S
C337 N345 1.427 . S
C338 H329 0.930 . S
C338 C336 1.378 . S
C338 C339 1.367 . S
C339 C338 1.367 . S
C339 C341 1.433 . S
C340 C336 1.350 . S
C340 C337 1.463 . S
C340 N344 1.427 . S
C341 H331 0.929 . S
C341 C339 1.433 . S
C341 N344 1.384 . S
C342 H333 0.929 . S
C342 C334 1.378 1_554 S
C342 C337 1.350 . S
C343 H330 0.929 . S
C343 C335 1.433 . S
C343 N345 1.384 1_556 S
N344 C340 1.427 . S
N344 C341 1.384 . S
N345 C337 1.427 . S
N345 C343 1.384 1_554 S
H346 C352 0.930 . S
H347 C356 0.930 . S
H348 C361 0.929 . S
H349 C359 0.929 . S
H350 C354 0.929 . S
H351 C360 0.929 . S
C352 H346 0.930 . S
C352 C353 1.367 . S
C352 C360 1.378 . S
C353 C352 1.367 . S
C353 C361 1.433 . S
C354 H350 0.929 . S
C354 C356 1.378 . S
C354 C358 1.350 . S
C355 C358 1.463 . S
C355 C360 1.350 . S
C355 N363 1.427 . S
C356 H347 0.930 . S
C356 C354 1.378 . S
C356 C357 1.367 . S
C357 C356 1.367 . S
C357 C359 1.433 . S
C358 C354 1.350 . S
C358 C355 1.463 . S
C358 N362 1.427 . S
C359 H349 0.929 . S
C359 C357 1.433 . S
C359 N362 1.384 . S
C360 H351 0.929 . S
C360 C352 1.378 . S
C360 C355 1.350 . S
C361 H348 0.929 . S
C361 C353 1.433 . S
C361 N363 1.384 . S
N362 C358 1.427 . S
N362 C359 1.384 . S
N363 C355 1.427 . S
N363 C361 1.384 . S
H364 C370 0.930 . S
H365 C374 0.930 . S
H366 C379 0.929 . S
H367 C377 0.929 . S
H368 C372 0.929 . S
H369 C378 0.929 . S
C370 H364 0.930 . S
C370 C371 1.367 . S
C370 C378 1.378 . S
C371 C370 1.367 . S
C371 C379 1.433 . S
C372 H368 0.929 . S
C372 C374 1.378 . S
C372 C376 1.350 . S
C373 C376 1.463 . S
C373 C378 1.350 . S
C373 N381 1.427 . S
C374 H365 0.930 . S
C374 C372 1.378 . S
C374 C375 1.367 . S
C375 C374 1.367 . S
C375 C377 1.433 . S
C376 C372 1.350 . S
C376 C373 1.463 . S
C376 N380 1.427 . S
C377 H367 0.929 . S
C377 C375 1.433 . S
C377 N380 1.384 . S
C378 H369 0.929 . S
C378 C370 1.378 . S
C378 C373 1.350 . S
C379 H366 0.929 . S
C379 C371 1.433 . S
C379 N381 1.384 . S
N380 C376 1.427 . S
N380 C377 1.384 . S
N381 C373 1.427 . S
N381 C379 1.384 . S
H382 C388 0.930 . S
H383 C392 0.930 . S
H384 C397 0.929 . S
H385 C395 0.929 . S
H386 C390 0.929 . S
H387 C396 0.929 . S
C388 H382 0.930 . S
C388 C389 1.367 . S
C388 C396 1.378 . S
C389 C388 1.367 . S
C389 C397 1.433 . S
C390 H386 0.929 . S
C390 C392 1.378 . S
C390 C394 1.350 . S
C391 C394 1.463 . S
C391 C396 1.350 . S
C391 N399 1.427 . S
C392 H383 0.930 . S
C392 C390 1.378 . S
C392 C393 1.367 . S
C393 C392 1.367 . S
C393 C395 1.433 . S
C394 C390 1.350 . S
C394 C391 1.463 . S
C394 N398 1.427 . S
C395 H385 0.929 . S
C395 C393 1.433 . S
C395 N398 1.384 . S
C396 H387 0.929 . S
C396 C388 1.378 . S
C396 C391 1.350 . S
C397 H384 0.929 . S
C397 C389 1.433 . S
C397 N399 1.384 . S
N398 C394 1.427 . S
N398 C395 1.384 . S
N399 C391 1.427 . S
N399 C397 1.384 . S
C119 C8 1.196 . S
C123 C92 1.198 . S
C137 C22 1.189 . S
C141 C106 1.188 . S
C155 C64 1.188 . S
C159 C36 1.189 . S
C173 C78 1.187 . S
C177 C50 1.187 . S
C191 C6 1.502 . S
C195 C76 1.494 . S
C209 C20 1.494 . S
C213 C90 1.503 . S
C227 C104 1.497 . S
C231 C34 1.506 . S
C245 C48 1.493 . S
C249 C62 1.500 . S
C263 C65 1.533 . S
C267 C9 1.539 . S
C281 C23 1.534 . S
C285 C79 1.536 . S
C299 C37 1.544 . S
C303 C93 1.540 . S
C317 C107 1.543 . S
C321 C51 1.535 . S
C335 C91 1.322 . S
C339 C7 1.328 . S
C353 C105 1.333 . S
C357 C21 1.328 . S
C371 C35 1.329 . S
C375 C63 1.333 . S
C389 C49 1.319 . S
C393 C77 1.323 . S
