# Generated by pormake.
# Topology whc, (6)-cn, num edge types: 1
# Building blocks:
#     Node 0, Type 0, BuildingBlock: IZENUY_clean_sbu_0, # of connection points: 6
#     Node 1, Type 0, BuildingBlock: IZENUY_clean_sbu_0, # of connection points: 6
#     Node 2, Type 0, BuildingBlock: IZENUY_clean_sbu_0, # of connection points: 6
#     Node 3, Type 0, BuildingBlock: IZENUY_clean_sbu_0, # of connection points: 6
#     Node 4, Type 0, BuildingBlock: IZENUY_clean_sbu_0, # of connection points: 6
#     Node 5, Type 0, BuildingBlock: IZENUY_clean_sbu_0, # of connection points: 6
#     Node 6, Type 0, BuildingBlock: IZENUY_clean_sbu_0, # of connection points: 6
#     Node 7, Type 0, BuildingBlock: IZENUY_clean_sbu_0, # of connection points: 6
#     Edge 8, Type (0, 0), BuildingBlock: XIVTED_clean_linker_0, # of connection points: 2
#     Edge 9, Type (0, 0), BuildingBlock: XIVTED_clean_linker_0, # of connection points: 2
#     Edge 10, Type (0, 0), BuildingBlock: XIVTED_clean_linker_0, # of connection points: 2
#     Edge 11, Type (0, 0), BuildingBlock: XIVTED_clean_linker_0, # of connection points: 2
#     Edge 12, Type (0, 0), BuildingBlock: XIVTED_clean_linker_0, # of connection points: 2
#     Edge 13, Type (0, 0), BuildingBlock: XIVTED_clean_linker_0, # of connection points: 2
#     Edge 14, Type (0, 0), BuildingBlock: XIVTED_clean_linker_0, # of connection points: 2
#     Edge 15, Type (0, 0), BuildingBlock: XIVTED_clean_linker_0, # of connection points: 2
#     Edge 16, Type (0, 0), BuildingBlock: XIVTED_clean_linker_0, # of connection points: 2
#     Edge 17, Type (0, 0), BuildingBlock: XIVTED_clean_linker_0, # of connection points: 2
#     Edge 18, Type (0, 0), BuildingBlock: XIVTED_clean_linker_0, # of connection points: 2
#     Edge 19, Type (0, 0), BuildingBlock: XIVTED_clean_linker_0, # of connection points: 2
#     Edge 20, Type (0, 0), BuildingBlock: XIVTED_clean_linker_0, # of connection points: 2
#     Edge 21, Type (0, 0), BuildingBlock: XIVTED_clean_linker_0, # of connection points: 2
#     Edge 22, Type (0, 0), BuildingBlock: XIVTED_clean_linker_0, # of connection points: 2
#     Edge 23, Type (0, 0), BuildingBlock: XIVTED_clean_linker_0, # of connection points: 2
#     Edge 24, Type (0, 0), BuildingBlock: XIVTED_clean_linker_0, # of connection points: 2
#     Edge 25, Type (0, 0), BuildingBlock: XIVTED_clean_linker_0, # of connection points: 2
#     Edge 26, Type (0, 0), BuildingBlock: XIVTED_clean_linker_0, # of connection points: 2
#     Edge 27, Type (0, 0), BuildingBlock: XIVTED_clean_linker_0, # of connection points: 2
#     Edge 28, Type (0, 0), BuildingBlock: XIVTED_clean_linker_0, # of connection points: 2
#     Edge 29, Type (0, 0), BuildingBlock: XIVTED_clean_linker_0, # of connection points: 2
#     Edge 30, Type (0, 0), BuildingBlock: XIVTED_clean_linker_0, # of connection points: 2
#     Edge 31, Type (0, 0), BuildingBlock: XIVTED_clean_linker_0, # of connection points: 2
# Relax obj value: 0.363
# Max RMSD: 0.283
# Mean RMSD: 0.283
data_MOF--net-whc--node1-IZENUY_clean_sbu_0--edge1-XIVTED_clean_linker_0
_symmetry_space_group_name_H-M    P1
_symmetry_Int_Tables_number       1
_symmetry_cell_setting            triclinic
loop_
_symmetry_equiv_pos_as_xyz
'x, y, z'
_cell_length_a     35.192079
_cell_length_b     35.271196
_cell_length_c     29.710628
_cell_angle_alpha  89.742723
_cell_angle_beta   89.856269
_cell_angle_gamma 89.733601
loop_
_atom_site_label
_atom_site_type_symbol
_atom_site_fract_x
_atom_site_fract_y
_atom_site_fract_z
_atom_type_partial_charge
Fe0 Fe 0.499 0.19072 0.1117 0.0
Fe1 Fe 0.41388 0.19392 0.0892 0.0
O2 O 0.4552 0.21526 0.11205 0.0
Fe3 Fe 0.45209 0.26106 0.13574 0.0
O4 O 0.50109 0.27559 0.12169 0.0
O5 O 0.52279 0.22808 0.08186 0.0
O6 O 0.491 0.16963 0.05525 0.0
C7 C 0.46686 0.17811 0.02482 0.0
C8 C 0.49366 0.22211 0.19884 0.0
O9 O 0.4351 0.19251 0.03443 0.0
C10 C 0.38407 0.22541 0.16436 0.0
O11 O 0.47896 0.15146 0.14213 0.0
O12 O 0.42889 0.14427 0.10018 0.0
O13 O 0.46571 0.2432 0.19002 0.0
O14 O 0.5139 0.20806 0.16753 0.0
C15 C 0.40751 0.2709 0.06249 0.0
O16 O 0.38973 0.19481 0.14335 0.0
O17 O 0.40281 0.25502 0.15484 0.0
C18 C 0.45345 0.13065 0.12691 0.0
O19 O 0.39201 0.23938 0.072 0.0
O20 O 0.43744 0.28101 0.08232 0.0
C21 C 0.52475 0.26204 0.09384 0.0
Fe22 Fe 0.1922 0.58863 0.91594 0.0
Fe23 Fe 0.19127 0.50503 0.88672 0.0
O24 O 0.21539 0.54848 0.89253 0.0
Fe25 Fe 0.26313 0.55227 0.87475 0.0
O26 O 0.27798 0.56245 0.93136 0.0
O27 O 0.23619 0.60823 0.9409 0.0
O28 O 0.18516 0.56419 0.96828 0.0
C29 C 0.16969 0.5323 0.9731 0.0
C30 C 0.23117 0.6226 0.84839 0.0
O31 O 0.16467 0.51004 0.94013 0.0
C32 C 0.2314 0.51438 0.80477 0.0
O33 O 0.14385 0.57524 0.89742 0.0
O34 O 0.15448 0.52695 0.85333 0.0
O35 O 0.25947 0.60268 0.8602 0.0
O36 O 0.19844 0.61592 0.86408 0.0
C37 C 0.26105 0.47822 0.91104 0.0
O38 O 0.21425 0.49309 0.83273 0.0
O39 O 0.25021 0.54256 0.81766 0.0
C40 C 0.13238 0.55192 0.86814 0.0
O41 O 0.22613 0.47957 0.91949 0.0
O42 O 0.27616 0.50257 0.88545 0.0
C43 C 0.2668 0.5914 0.95235 0.0
Fe44 Fe 0.58899 0.8073 0.06977 0.0
Fe45 Fe 0.54628 0.74703 0.12596 0.0
O46 O 0.54662 0.78958 0.09441 0.0
Fe47 Fe 0.50369 0.81512 0.08729 0.0
O48 O 0.50537 0.80651 0.02761 0.0
O49 O 0.56438 0.82673 0.02001 0.0
O50 O 0.59615 0.76438 0.03739 0.0
C51 C 0.59544 0.73077 0.05224 0.0
C52 C 0.55611 0.8734 0.09687 0.0
O53 O 0.5817 0.72296 0.09065 0.0
C54 C 0.50161 0.7985 0.17623 0.0
O55 O 0.62073 0.78956 0.11422 0.0
O56 O 0.58213 0.76433 0.16425 0.0
O57 O 0.52589 0.86101 0.08015 0.0
O58 O 0.5849 0.85212 0.10074 0.0
C59 C 0.47785 0.74009 0.08441 0.0
O60 O 0.51081 0.76462 0.16657 0.0
O61 O 0.50131 0.82444 0.14687 0.0
C62 C 0.61446 0.77652 0.15327 0.0
O63 O 0.51036 0.72589 0.09009 0.0
O64 O 0.47205 0.77456 0.0929 0.0
C65 C 0.53292 0.81659 0.00303 0.0
Fe66 Fe 0.81061 0.49547 0.88305 0.0
Fe67 Fe 0.7398 0.44865 0.86222 0.0
O68 O 0.78599 0.45194 0.88515 0.0
Fe69 Fe 0.80748 0.41114 0.90957 0.0
O70 O 0.81027 0.43394 0.96306 0.0
O71 O 0.83296 0.4888 0.93902 0.0
O72 O 0.77348 0.52028 0.91263 0.0
C73 C 0.73924 0.52189 0.90108 0.0
C74 C 0.87047 0.44864 0.86841 0.0
O75 O 0.72569 0.49808 0.87382 0.0
C76 C 0.77436 0.37926 0.83701 0.0
O77 O 0.79207 0.50903 0.82718 0.0
O78 O 0.75746 0.4602 0.80694 0.0
O79 O 0.85711 0.42491 0.89637 0.0
O80 O 0.84972 0.47443 0.85288 0.0
C81 C 0.73046 0.40707 0.93827 0.0
O82 O 0.74503 0.39872 0.8461 0.0
O83 O 0.80547 0.38538 0.8567 0.0
C84 C 0.77818 0.488 0.79683 0.0
O85 O 0.72024 0.43623 0.91664 0.0
O86 O 0.76191 0.39077 0.92929 0.0
C87 C 0.82541 0.4655 0.97064 0.0
Fe88 Fe 0.54851 0.26058 0.63285 0.0
Fe89 Fe 0.58482 0.19148 0.58753 0.0
O90 O 0.54427 0.21437 0.61059 0.0
Fe91 Fe 0.49987 0.19141 0.61159 0.0
O92 O 0.4776 0.2291 0.5802 0.0
O93 O 0.49935 0.27594 0.62039 0.0
O94 O 0.56209 0.27904 0.57831 0.0
C95 C 0.59122 0.26764 0.55739 0.0
C96 C 0.5074 0.22399 0.69783 0.0
O97 O 0.60682 0.23614 0.56766 0.0
C98 C 0.54424 0.13023 0.6284 0.0
O99 O 0.59822 0.25411 0.64997 0.0
O100 O 0.60973 0.19325 0.64107 0.0
O101 O 0.48604 0.21083 0.66716 0.0
O102 O 0.53589 0.24382 0.68795 0.0
C103 C 0.5308 0.17526 0.52491 0.0
O104 O 0.5691 0.1426 0.60112 0.0
O105 O 0.51882 0.1519 0.64294 0.0
C106 C 0.61656 0.22434 0.66027 0.0
O107 O 0.56291 0.18898 0.53337 0.0
O108 O 0.50677 0.16844 0.55602 0.0
C109 C 0.47691 0.26342 0.59086 0.0
Fe110 Fe 0.20045 0.42288 0.41289 0.0
Fe111 Fe 0.26028 0.45483 0.3476 0.0
O112 O 0.21984 0.46113 0.38191 0.0
Fe113 Fe 0.19855 0.50661 0.38558 0.0
O114 O 0.21038 0.50892 0.44497 0.0
O115 O 0.18566 0.4529 0.46006 0.0
O116 O 0.24475 0.41528 0.44318 0.0
C117 C 0.27702 0.41071 0.42526 0.0
C118 C 0.13546 0.45878 0.38686 0.0
O119 O 0.28292 0.41966 0.38451 0.0
C120 C 0.20956 0.49804 0.29556 0.0
O121 O 0.21324 0.38627 0.37154 0.0
O122 O 0.23729 0.41841 0.31481 0.0
O123 O 0.15122 0.4892 0.39834 0.0
O124 O 0.15431 0.42821 0.3848 0.0
C125 C 0.27553 0.5247 0.38215 0.0
O126 O 0.24355 0.48851 0.30461 0.0
O127 O 0.18595 0.505 0.32658 0.0
C128 C 0.22371 0.38822 0.33079 0.0
O129 O 0.28651 0.49081 0.37853 0.0
O130 O 0.24163 0.53343 0.37328 0.0
C131 C 0.19964 0.48407 0.4731 0.0
Fe132 Fe 0.41046 0.80846 0.57074 0.0
Fe133 Fe 0.4966 0.81268 0.58622 0.0
O134 O 0.45296 0.78832 0.59236 0.0
Fe135 Fe 0.45242 0.74393 0.62008 0.0
O136 O 0.41465 0.72398 0.58558 0.0
O137 O 0.40257 0.76771 0.53458 0.0
O138 O 0.43411 0.83058 0.52237 0.0
C139 C 0.46526 0.82196 0.50339 0.0
C140 C 0.3866 0.77458 0.65319 0.0
O141 O 0.4934 0.80989 0.52564 0.0
C142 C 0.50031 0.78869 0.67311 0.0
O143 O 0.41577 0.85124 0.60512 0.0
O144 O 0.47549 0.85967 0.58614 0.0
O145 O 0.41894 0.76091 0.66183 0.0
O146 O 0.37936 0.78876 0.61488 0.0
C147 C 0.51866 0.73672 0.57346 0.0
O148 O 0.50124 0.81675 0.64667 0.0
O149 O 0.49011 0.75636 0.65948 0.0
C150 C 0.44519 0.87171 0.60367 0.0
O151 O 0.52647 0.77019 0.58492 0.0
O152 O 0.4859 0.72361 0.58015 0.0
C153 C 0.40268 0.73343 0.54705 0.0
Fe154 Fe 0.80319 0.58077 0.40608 0.0
Fe155 Fe 0.73798 0.54116 0.35745 0.0
O156 O 0.78362 0.53924 0.38217 0.0
Fe157 Fe 0.8095 0.49625 0.38231 0.0
O158 O 0.83013 0.50397 0.43891 0.0
O159 O 0.80555 0.55875 0.46041 0.0
O160 O 0.75658 0.59997 0.4238 0.0
C161 C 0.72538 0.58311 0.43189 0.0
C162 C 0.86819 0.54419 0.36801 0.0
O163 O 0.71664 0.55345 0.41078 0.0
C164 C 0.77955 0.50252 0.29474 0.0
O165 O 0.80142 0.60595 0.35243 0.0
O166 O 0.74172 0.59109 0.34059 0.0
O167 O 0.84869 0.51756 0.35297 0.0
O168 O 0.85346 0.56814 0.39462 0.0
C169 C 0.73871 0.46837 0.39801 0.0
O170 O 0.75759 0.52981 0.30334 0.0
O171 O 0.79287 0.48178 0.32607 0.0
C172 C 0.77043 0.61139 0.33199 0.0
O173 O 0.72532 0.49139 0.36932 0.0
O174 O 0.77233 0.47133 0.4113 0.0
C175 C 0.82094 0.52741 0.46958 0.0
H176 H 0.22235 0.37874 0.23964 0.0
H177 H 0.31219 0.23164 0.13284 0.0
H178 H 0.24266 0.31852 0.364 0.0
H179 H 0.37817 0.23485 0.25461 0.0
H180 H 0.25891 0.26168 0.17295 0.0
H181 H 0.2504 0.32573 0.1983 0.0
C182 C 0.23152 0.35375 0.25807 0.0
C183 C 0.23027 0.35299 0.30523 0.0
C184 C 0.28469 0.25488 0.19114 0.0
C185 C 0.26297 0.29258 0.25838 0.0
C186 C 0.31478 0.23727 0.16853 0.0
C187 C 0.34926 0.23069 0.19079 0.0
C188 C 0.28946 0.26594 0.23614 0.0
C189 C 0.35182 0.23932 0.23659 0.0
C190 C 0.24738 0.32339 0.23448 0.0
C191 C 0.2429 0.32012 0.3276 0.0
N192 N 0.32236 0.25684 0.25777 0.0
N193 N 0.25981 0.29169 0.30405 0.0
H194 H 0.27288 0.68021 0.88007 0.0
H195 H 0.31136 0.76328 0.63407 0.0
H196 H 0.21106 0.64418 0.763 0.0
H197 H 0.39085 0.76598 0.74431 0.0
H198 H 0.26327 0.73677 0.68511 0.0
H199 H 0.30349 0.72954 0.83499 0.0
C200 C 0.26482 0.68368 0.84508 0.0
C201 C 0.23943 0.6584 0.82505 0.0
C202 C 0.29099 0.74395 0.69823 0.0
C203 C 0.27523 0.71376 0.77295 0.0
C204 C 0.31837 0.75929 0.66926 0.0
C205 C 0.35527 0.76644 0.68496 0.0
C206 C 0.30052 0.7363 0.74323 0.0
C207 C 0.36289 0.76048 0.73074 0.0
C208 C 0.28252 0.71155 0.8193 0.0
C209 C 0.23025 0.66351 0.77958 0.0
N210 N 0.33587 0.74549 0.75815 0.0
N211 N 0.24868 0.69032 0.75471 0.0
H212 H 0.78623 0.6302 0.24467 0.0
H213 H 0.61423 0.77102 0.24489 0.0
H214 H 0.73516 0.67249 0.36646 0.0
H215 H 0.68752 0.75916 0.12918 0.0
H216 H 0.66309 0.74127 0.29153 0.0
H217 H 0.75656 0.68267 0.20261 0.0
C218 C 0.76997 0.65145 0.26268 0.0
C219 C 0.76325 0.64752 0.3089 0.0
C220 C 0.66894 0.7459 0.25614 0.0
C221 C 0.72819 0.70638 0.26131 0.0
C222 C 0.64101 0.76292 0.22954 0.0
C223 C 0.64673 0.76725 0.18311 0.0
C224 C 0.70243 0.73214 0.23595 0.0
C225 C 0.68198 0.75634 0.1649 0.0
C226 C 0.75282 0.68121 0.23876 0.0
C227 C 0.74116 0.67498 0.33079 0.0
N228 N 0.70819 0.73844 0.19117 0.0
N229 N 0.72389 0.7029 0.3067 0.0
H230 H 0.7474 0.31376 0.87118 0.0
H231 H 0.6838 0.24814 0.62725 0.0
H232 H 0.78465 0.3661 0.74764 0.0
H233 H 0.62771 0.21535 0.75025 0.0
H234 H 0.73573 0.27525 0.67128 0.0
H235 H 0.71912 0.26216 0.82783 0.0
C236 C 0.75084 0.31346 0.83492 0.0
C237 C 0.76854 0.34374 0.81271 0.0
C238 C 0.71267 0.26115 0.68869 0.0
C239 C 0.73534 0.28584 0.76296 0.0
C240 C 0.6833 0.2454 0.6636 0.0
C241 C 0.6519 0.22931 0.68541 0.0
C242 C 0.71022 0.26121 0.73588 0.0
C243 C 0.65181 0.22718 0.73243 0.0
C244 C 0.73443 0.28429 0.81019 0.0
C245 C 0.77156 0.34286 0.76578 0.0
N246 N 0.68033 0.24347 0.75622 0.0
N247 N 0.75461 0.31458 0.74232 0.0
H248 H 0.55391 0.23983 0.76834 0.0
H249 H 0.41746 0.15988 0.95834 0.0
H250 H 0.44754 0.18536 0.73717 0.0
H251 H 0.53514 0.18692 0.98158 0.0
H252 H 0.42788 0.16674 0.87741 0.0
H253 H 0.54675 0.22077 0.84646 0.0
C254 C 0.52876 0.22412 0.77791 0.0
C255 C 0.501 0.21459 0.74595 0.0
C256 C 0.45162 0.17049 0.90005 0.0
C257 C 0.49296 0.1922 0.83607 0.0
C258 C 0.44576 0.16643 0.94624 0.0
C259 C 0.47552 0.17296 0.97663 0.0
C260 C 0.48734 0.18188 0.88413 0.0
C261 C 0.51154 0.18139 0.95926 0.0
C262 C 0.52496 0.21288 0.82264 0.0
C263 C 0.46943 0.19368 0.76062 0.0
N264 N 0.51631 0.18626 0.91412 0.0
N265 N 0.46614 0.18339 0.80473 0.0
H266 H 0.13636 0.57489 0.03799 0.0
H267 H 0.24106 0.46092 0.22478 0.0
H268 H 0.18358 0.464 0.01271 0.0
H269 H 0.14974 0.53774 0.25908 0.0
H270 H 0.22031 0.46227 0.14655 0.0
H271 H 0.13812 0.56175 0.11886 0.0
C272 C 0.14599 0.54731 0.04959 0.0
C273 C 0.16 0.52047 0.01903 0.0
C274 C 0.20461 0.4786 0.17123 0.0
C275 C 0.16341 0.50588 0.11098 0.0
C276 C 0.21677 0.47831 0.21574 0.0
C277 C 0.19751 0.49988 0.2482 0.0
C278 C 0.17343 0.5012 0.15888 0.0
C279 C 0.16564 0.52112 0.23489 0.0
C280 C 0.14709 0.53988 0.09563 0.0
C281 C 0.17238 0.48527 0.0354 0.0
N282 N 0.1549 0.52174 0.19096 0.0
N283 N 0.17471 0.47929 0.08052 0.0
H284 H 0.5753 0.85467 0.93999 0.0
H285 H 0.49027 0.73687 0.73968 0.0
H286 H 0.4805 0.7782 0.95484 0.0
H287 H 0.53127 0.85054 0.71545 0.0
H288 H 0.49912 0.74603 0.81982 0.0
H289 H 0.56979 0.84927 0.85782 0.0
C290 C 0.55323 0.83701 0.92596 0.0
C291 C 0.52831 0.81677 0.95402 0.0
C292 C 0.50632 0.7689 0.79691 0.0
C293 C 0.52256 0.81005 0.8612 0.0
C294 C 0.50161 0.76365 0.75112 0.0
C295 C 0.50993 0.7931 0.72086 0.0
C296 C 0.51982 0.80364 0.81264 0.0
C297 C 0.52442 0.8272 0.73777 0.0
C298 C 0.55013 0.83405 0.87932 0.0
C299 C 0.50017 0.79438 0.93438 0.0
N300 N 0.52897 0.83161 0.78286 0.0
N301 N 0.49833 0.79128 0.88909 0.0
H302 H 0.82066 0.44333 0.25845 0.0
H303 H 0.8194 0.5348 0.01106 0.0
H304 H 0.76683 0.54981 0.22371 0.0
H305 H 0.84571 0.41729 0.0378 0.0
H306 H 0.8147 0.5457 0.09239 0.0
H307 H 0.84217 0.43739 0.18015 0.0
C308 C 0.8132 0.46528 0.23441 0.0
C309 C 0.79132 0.49671 0.2475 0.0
C310 C 0.82219 0.51769 0.0804 0.0
C311 C 0.81659 0.49065 0.15854 0.0
C312 C 0.82533 0.51164 0.0341 0.0
C313 C 0.83251 0.47507 0.01796 0.0
C314 C 0.82649 0.48695 0.11038 0.0
C315 C 0.83962 0.44584 0.0491 0.0
C316 C 0.82568 0.46204 0.18989 0.0
C317 C 0.78302 0.52469 0.21507 0.0
N318 N 0.836 0.45229 0.09385 0.0
N319 N 0.79562 0.52096 0.17217 0.0
H320 H 0.55175 0.17894 0.23525 0.0
H321 H 0.46193 0.1846 0.48358 0.0
H322 H 0.44989 0.24069 0.27125 0.0
H323 H 0.57898 0.15512 0.4575 0.0
H324 H 0.45179 0.19149 0.40226 0.0
H325 H 0.55811 0.15886 0.31419 0.0
C326 C 0.53094 0.18849 0.25966 0.0
C327 C 0.50051 0.21189 0.24657 0.0
C328 C 0.47953 0.18288 0.41437 0.0
C329 C 0.50696 0.18817 0.33632 0.0
C330 C 0.48513 0.17848 0.46068 0.0
C331 C 0.52137 0.16962 0.47712 0.0
C332 C 0.51032 0.17801 0.38457 0.0
C333 C 0.55066 0.16237 0.44605 0.0
C334 C 0.53441 0.17681 0.30457 0.0
C335 C 0.47405 0.22295 0.27965 0.0
N336 N 0.54461 0.16706 0.40127 0.0
N337 N 0.47785 0.21093 0.32281 0.0
H338 H 0.23749 0.54114 0.51617 0.0
H339 H 0.19049 0.45936 0.7618 0.0
H340 H 0.16876 0.44197 0.54085 0.0
H341 H 0.26536 0.55396 0.73676 0.0
H342 H 0.18171 0.45276 0.68068 0.0
H343 H 0.24625 0.54778 0.59739 0.0
C344 C 0.22392 0.52105 0.53866 0.0
C345 C 0.20239 0.49099 0.52178 0.0
C346 C 0.20022 0.47483 0.693 0.0
C347 C 0.21265 0.49805 0.61437 0.0
C348 C 0.20539 0.47845 0.73928 0.0
C349 C 0.22868 0.50721 0.75609 0.0
C350 C 0.21838 0.50022 0.66347 0.0
C351 C 0.24712 0.53134 0.72535 0.0
C352 C 0.22913 0.52466 0.58495 0.0
C353 C 0.1857 0.46554 0.55237 0.0
N354 N 0.24144 0.52738 0.68055 0.0
N355 N 0.19126 0.46961 0.59717 0.0
H356 H 0.45696 0.75649 0.2317 0.0
H357 H 0.52771 0.84113 0.45359 0.0
H358 H 0.52172 0.85991 0.22494 0.0
H359 H 0.40941 0.81077 0.44262 0.0
H360 H 0.53227 0.8418 0.37098 0.0
H361 H 0.44407 0.76875 0.31157 0.0
C362 C 0.46807 0.78193 0.24708 0.0
C363 C 0.49029 0.80735 0.22227 0.0
C364 C 0.50528 0.8356 0.38693 0.0
C365 C 0.47671 0.8208 0.31269 0.0
C366 C 0.50273 0.83498 0.43372 0.0
C367 C 0.46817 0.82588 0.45449 0.0
C368 C 0.4734 0.82583 0.36135 0.0
C369 C 0.43649 0.81813 0.42761 0.0
C370 C 0.46064 0.78894 0.29227 0.0
C371 C 0.50422 0.83991 0.24328 0.0
N372 N 0.44002 0.81754 0.3822 0.0
N373 N 0.49785 0.84542 0.28784 0.0
H374 H 0.81541 0.54861 0.75846 0.0
H375 H 0.81511 0.4582 0.5112 0.0
H376 H 0.76424 0.44109 0.72605 0.0
H377 H 0.83691 0.57633 0.53712 0.0
H378 H 0.80908 0.44731 0.59261 0.0
H379 H 0.834 0.55584 0.67932 0.0
C380 C 0.80788 0.52668 0.73475 0.0
C381 C 0.78775 0.49449 0.74886 0.0
C382 C 0.81579 0.47548 0.58043 0.0
C383 C 0.80969 0.50213 0.65866 0.0
C384 C 0.8197 0.48155 0.53409 0.0
C385 C 0.82629 0.51821 0.51759 0.0
C386 C 0.81882 0.50626 0.61018 0.0
C387 C 0.83149 0.54766 0.54858 0.0
C388 C 0.81868 0.5307 0.68967 0.0
C389 C 0.77922 0.46669 0.71668 0.0
N390 N 0.82736 0.54113 0.59336 0.0
N391 N 0.79025 0.47114 0.67318 0.0
H392 H 0.33862 0.47043 0.91161 0.0
H393 H 0.33394 0.26774 0.03324 0.0
H394 H 0.23544 0.41357 0.95177 0.0
H395 H 0.43426 0.33772 0.02775 0.0
H396 H 0.29898 0.31679 0.99225 0.0
H397 H 0.37555 0.41795 0.94386 0.0
C398 C 0.32374 0.44685 0.92695 0.0
C399 C 0.2839 0.44642 0.9291 0.0
C400 C 0.3287 0.32131 -0.00016 0.0
C401 C 0.32588 0.38641 0.96574 0.0
C402 C 0.34874 0.29325 0.02305 0.0
C403 C 0.387 0.2988 0.03429 0.0
C404 C 0.3471 0.35502 0.98744 0.0
C405 C 0.40468 0.33244 0.02016 0.0
C406 C 0.34482 0.417 0.94542 0.0
C407 C 0.2661 0.4152 0.9495 0.0
N408 N 0.38454 0.35937 -0.00244 0.0
N409 N 0.28722 0.38645 0.96699 0.0
H410 H 0.33283 0.56198 0.98617 0.0
H411 H 0.40397 0.76226 0.07565 0.0
H412 H 0.26388 0.6636 0.98635 0.0
H413 H 0.47697 0.66398 0.06383 0.0
H414 H 0.3503 0.7242 0.05209 0.0
H415 H 0.38303 0.59634 0.02473 0.0
C416 C 0.32802 0.59143 -0.00518 0.0
C417 C 0.29426 0.61013 0.98239 0.0
C418 C 0.37797 0.71084 0.05483 0.0
C419 C 0.35183 0.64962 0.02631 0.0
C420 C 0.40876 0.73258 0.06824 0.0
C421 C 0.4452 0.71635 0.07145 0.0
C422 C 0.38346 0.6725 0.04435 0.0
C423 C 0.44945 0.6777 0.06162 0.0
C424 C 0.35679 0.61102 0.01674 0.0
C425 C 0.28949 0.64811 -0.00501 0.0
N426 N 0.41893 0.6571 0.04826 0.0
N427 N 0.31816 0.66673 0.01583 0.0
H428 H 0.58014 0.65483 0.05519 0.0
H429 H 0.76278 0.59327 0.9202 0.0
H430 H 0.6519 0.73703 0.98915 0.0
H431 H 0.66295 0.52277 0.92064 0.0
H432 H 0.72532 0.64488 0.9528 0.0
H433 H 0.61258 0.60419 0.01344 0.0
C434 C 0.60266 0.66221 0.03186 0.0
C435 C 0.6135 0.70016 0.02576 0.0
C436 C 0.71153 0.61825 0.94538 0.0
C437 C 0.65081 0.64249 0.97852 0.0
C438 C 0.73287 0.58876 0.92698 0.0
C439 C 0.71585 0.55377 0.91771 0.0
C440 C 0.67309 0.61245 0.95573 0.0
C441 C 0.677 0.54945 0.92704 0.0
C442 C 0.62092 0.63337 0.00791 0.0
C443 C 0.64262 0.70818 -0.00516 0.0
N444 N 0.65696 0.57834 0.94621 0.0
N445 N 0.66063 0.67953 0.97282 0.0
H446 H 0.66378 0.43626 0.97166 0.0
H447 H 0.59089 0.23585 0.05786 0.0
H448 H 0.73323 0.33503 0.97298 0.0
H449 H 0.53224 0.3399 0.09079 0.0
H450 H 0.64276 0.27246 0.02598 0.0
H451 H 0.61516 0.40258 0.01505 0.0
C452 C 0.66896 0.40705 0.98135 0.0
C453 C 0.70254 0.38833 0.96827 0.0
C454 C 0.61875 0.28742 0.04044 0.0
C455 C 0.64688 0.34966 0.01765 0.0
C456 C 0.58894 0.26651 0.05852 0.0
C457 C 0.557 0.28485 0.07686 0.0
C458 C 0.61663 0.32713 0.03994 0.0
C459 C 0.55634 0.32465 0.07703 0.0
C460 C 0.64121 0.38791 0.00622 0.0
C461 C 0.7078 0.3506 0.98212 0.0
N462 N 0.58559 0.34452 0.05837 0.0
N463 N 0.68011 0.33243 0.00561 0.0
H464 H 0.56268 0.33268 0.51952 0.0
H465 H 0.76493 0.40334 0.4368 0.0
H466 H 0.66407 0.26342 0.52509 0.0
H467 H 0.66098 0.45989 0.39776 0.0
H468 H 0.72788 0.35196 0.4692 0.0
H469 H 0.59725 0.37946 0.47449 0.0
C470 C 0.59214 0.32717 0.51101 0.0
C471 C 0.61065 0.29426 0.52651 0.0
C472 C 0.71307 0.37537 0.45322 0.0
C473 C 0.65032 0.34776 0.47523 0.0
C474 C 0.73422 0.40487 0.43484 0.0
C475 C 0.71598 0.43609 0.41473 0.0
C476 C 0.67327 0.3772 0.45221 0.0
C477 C 0.67614 0.43633 0.41291 0.0
C478 C 0.61178 0.35384 0.48518 0.0
C479 C 0.64869 0.28843 0.51406 0.0
N480 N 0.65604 0.40748 0.43192 0.0
N481 N 0.66737 0.31513 0.4896 0.0
H482 H 0.44059 0.32717 0.62386 0.0
H483 H 0.33817 0.37306 0.39097 0.0
H484 H 0.44985 0.25632 0.5063 0.0
H485 H 0.28594 0.40456 0.5171 0.0
H486 H 0.3882 0.34007 0.43236 0.0
H487 H 0.39196 0.36558 0.58456 0.0
C488 C 0.43258 0.3199 0.5898 0.0
C489 C 0.44897 0.28843 0.56834 0.0
C490 C 0.36584 0.35427 0.451 0.0
C491 C 0.39435 0.33216 0.52343 0.0
C492 C 0.33733 0.37323 0.42743 0.0
C493 C 0.30769 0.3914 0.45063 0.0
C494 C 0.36521 0.35388 0.49821 0.0
C495 C 0.3081 0.39057 0.49794 0.0
C496 C 0.40481 0.3416 0.5676 0.0
C497 C 0.43762 0.28009 0.52426 0.0
N498 N 0.33655 0.37217 0.52029 0.0
N499 N 0.41123 0.3019 0.50324 0.0
H500 H 0.36103 0.74157 0.46917 0.0
H501 H 0.34041 0.51736 0.4326 0.0
H502 H 0.41066 0.65693 0.55683 0.0
H503 H 0.26839 0.60078 0.36838 0.0
H504 H 0.37591 0.56887 0.46815 0.0
H505 H 0.33542 0.69064 0.42238 0.0
C506 C 0.3666 0.71235 0.47853 0.0
C507 C 0.38749 0.70352 0.51738 0.0
C508 C 0.3526 0.57584 0.44582 0.0
C509 C 0.35881 0.64526 0.46378 0.0
C510 C 0.33257 0.54648 0.42529 0.0
C511 C 0.30126 0.55483 0.39785 0.0
C512 C 0.34136 0.6137 0.43849 0.0
C513 C 0.29212 0.59307 0.38972 0.0
C514 C 0.35204 0.68332 0.45182 0.0
C515 C 0.39418 0.66512 0.52762 0.0
N516 N 0.31191 0.62106 0.41015 0.0
N517 N 0.37982 0.63746 0.50108 0.0
H518 H 0.65323 0.55857 0.45105 0.0
H519 H 0.5935 0.75461 0.56477 0.0
H520 H 0.73029 0.65129 0.47487 0.0
H521 H 0.51451 0.66306 0.54344 0.0
H522 H 0.64448 0.71506 0.53583 0.0
H523 H 0.603 0.59398 0.48945 0.0
C524 C 0.65972 0.58622 0.46468 0.0
C525 C 0.69597 0.60218 0.45928 0.0
C526 C 0.61607 0.70346 0.53758 0.0
C527 C 0.63855 0.64281 0.50304 0.0
C528 C 0.58682 0.7261 0.55405 0.0
C529 C 0.54956 0.71218 0.55642 0.0
C530 C 0.60818 0.66656 0.52304 0.0
C531 C 0.5428 0.67494 0.54215 0.0
C532 C 0.63098 0.60642 0.48653 0.0
C533 C 0.70276 0.63796 0.47791 0.0
N534 N 0.57187 0.65342 0.52584 0.0
N535 N 0.67424 0.65715 0.49865 0.0
H536 H 0.44259 0.07877 0.06042 0.0
H537 H 0.55622 0.91003 0.17741 0.0
H538 H 0.48606 0.09034 0.19526 0.0
H539 H 0.55219 0.92817 0.0341 0.0
H540 H 0.52777 0.97318 0.18858 0.0
H541 H 0.4747 0.01731 0.05474 0.0
C542 C 0.45776 0.06777 0.0894 0.0
C543 C 0.46158 0.08958 0.12841 0.0
C544 C 0.53413 0.9637 0.15475 0.0
C545 C 0.49942 0.01998 0.12164 0.0
C546 C 0.55111 0.9281 0.14846 0.0
C547 C 0.55711 0.91435 0.10483 0.0
C548 C 0.52246 0.98494 0.11703 0.0
C549 C 0.5486 0.93817 0.06829 0.0
C550 C 0.47678 0.03309 0.08581 0.0
C551 C 0.48236 0.07426 0.16462 0.0
N552 N 0.53104 0.97197 0.07514 0.0
N553 N 0.50072 0.04045 0.16032 0.0
H554 H 0.92353 0.44395 0.93492 0.0
H555 H 0.09526 0.52816 0.79289 0.0
H556 H 0.91017 0.47128 0.79424 0.0
H557 H 0.07766 0.55433 0.93303 0.0
H558 H 0.03202 0.49901 0.79072 0.0
H559 H 0.98697 0.47255 0.93303 0.0
C560 C 0.93452 0.4547 0.90327 0.0
C561 C 0.91181 0.45491 0.86454 0.0
C562 C 0.04181 0.51172 0.82169 0.0
C563 C 0.98371 0.4884 0.86244 0.0
C564 C 0.0776 0.52873 0.82281 0.0
C565 C 0.0914 0.54425 0.86298 0.0
C566 C 0.02025 0.50916 0.86138 0.0
C567 C 0.06779 0.54343 0.90114 0.0
C568 C 0.97034 0.47168 0.90243 0.0
C569 C 0.927 0.47027 0.8247 0.0
N570 N 0.03363 0.52557 0.8996 0.0
N571 N 0.96202 0.48644 0.82464 0.0
H572 H 0.43774 0.92825 0.5435 0.0
H573 H 0.51644 0.09116 0.70074 0.0
H574 H 0.45693 0.90606 0.68424 0.0
H575 H 0.54935 0.0777 0.56182 0.0
H576 H 0.48541 0.02887 0.69842 0.0
H577 H 0.46475 0.99158 0.5526 0.0
C578 C 0.44587 0.93754 0.57683 0.0
C579 C 0.44427 0.91241 0.61343 0.0
C580 C 0.50002 0.03935 0.66877 0.0
C581 C 0.47685 0.9839 0.62368 0.0
C582 C 0.5181 0.07455 0.67019 0.0
C583 C 0.53596 0.08931 0.63158 0.0
C584 C 0.49881 0.01944 0.62806 0.0
C585 C 0.53658 0.06709 0.59257 0.0
C586 C 0.46214 0.97324 0.58177 0.0
C587 C 0.45672 0.92512 0.65555 0.0
N588 N 0.51766 0.03358 0.59157 0.0
N589 N 0.47279 0.96002 0.65957 0.0
H590 H 0.92191 0.56453 0.42963 0.0
H591 H 0.09065 0.44758 0.31311 0.0
H592 H 0.90853 0.50979 0.30109 0.0
H593 H 0.0874 0.47739 0.45349 0.0
H594 H 0.02539 0.47212 0.30486 0.0
H595 H 0.9866 0.53923 0.43401 0.0
C596 C 0.93298 0.5482 0.40169 0.0
C597 C 0.90981 0.5392 0.36501 0.0
C598 C 0.03871 0.4725 0.33767 0.0
C599 C 0.98332 0.50909 0.3704 0.0
C600 C 0.07555 0.45781 0.3425 0.0
C601 C 0.09387 0.45984 0.38421 0.0
C602 C 0.02071 0.48982 0.37469 0.0
C603 C 0.07383 0.4748 0.42096 0.0
C604 C 0.96967 0.53312 0.40456 0.0
C605 C 0.9255 0.5173 0.33006 0.0
N606 N 0.03854 0.4896 0.41526 0.0
N607 N 0.96117 0.50271 0.33376 0.0
loop_
_geom_bond_atom_site_label_1
_geom_bond_atom_site_label_2
_geom_bond_distance
_geom_bond_site_symmetry_2
_ccdc_geom_bond_type
Fe0 O2 1.918 . S
Fe0 O5 1.997 . S
Fe0 O6 2.002 . S
Fe0 O11 1.976 . S
Fe0 O14 1.996 . S
Fe1 O2 1.918 . S
Fe1 O9 1.997 1_554 S
Fe1 O12 1.996 . S
Fe1 O16 1.976 . S
Fe1 O19 2.002 . S
O2 Fe0 1.918 . S
O2 Fe1 1.918 . S
O2 Fe3 1.918 . S
Fe3 O2 1.918 . S
Fe3 O4 2.002 . S
Fe3 O13 1.976 . S
Fe3 O17 1.996 . S
Fe3 O20 1.997 . S
O4 Fe3 2.002 . S
O4 C21 1.295 . S
O5 Fe0 1.997 . S
O5 C21 1.235 . S
O6 Fe0 2.002 . S
O6 C7 1.295 1_554 S
C7 O6 1.295 1_556 S
C7 O9 1.235 . S
C8 O13 1.287 . S
C8 O14 1.255 . S
O9 Fe1 1.997 1_556 S
O9 C7 1.235 . S
C10 O16 1.287 . S
C10 O17 1.255 . S
O11 Fe0 1.976 . S
O11 C18 1.287 . S
O12 Fe1 1.996 . S
O12 C18 1.255 . S
O13 Fe3 1.976 . S
O13 C8 1.287 . S
O14 Fe0 1.996 . S
O14 C8 1.255 . S
C15 O19 1.295 . S
C15 O20 1.235 . S
O16 Fe1 1.976 . S
O16 C10 1.287 . S
O17 Fe3 1.996 . S
O17 C10 1.255 . S
C18 O11 1.287 . S
C18 O12 1.255 . S
O19 Fe1 2.002 . S
O19 C15 1.295 . S
O20 Fe3 1.997 . S
O20 C15 1.235 . S
C21 O4 1.295 . S
C21 O5 1.235 . S
Fe22 O24 1.918 . S
Fe22 O27 1.997 . S
Fe22 O28 2.002 1_556 S
Fe22 O33 1.976 . S
Fe22 O36 1.996 . S
Fe23 O24 1.918 . S
Fe23 O31 1.997 . S
Fe23 O34 1.996 . S
Fe23 O38 1.976 . S
Fe23 O41 2.002 . S
O24 Fe22 1.918 . S
O24 Fe23 1.918 . S
O24 Fe25 1.918 . S
Fe25 O24 1.918 . S
Fe25 O26 2.002 . S
Fe25 O35 1.976 . S
Fe25 O39 1.996 . S
Fe25 O42 1.997 . S
O26 Fe25 2.002 . S
O26 C43 1.295 . S
O27 Fe22 1.997 . S
O27 C43 1.235 . S
O28 Fe22 2.002 1_554 S
O28 C29 1.295 . S
C29 O28 1.295 . S
C29 O31 1.235 1_554 S
C30 O35 1.287 . S
C30 O36 1.255 . S
O31 Fe23 1.997 . S
O31 C29 1.235 1_556 S
C32 O38 1.287 . S
C32 O39 1.255 . S
O33 Fe22 1.976 . S
O33 C40 1.287 . S
O34 Fe23 1.996 . S
O34 C40 1.255 . S
O35 Fe25 1.976 . S
O35 C30 1.287 . S
O36 Fe22 1.996 . S
O36 C30 1.255 . S
C37 O41 1.295 . S
C37 O42 1.235 . S
O38 Fe23 1.976 . S
O38 C32 1.287 . S
O39 Fe25 1.996 . S
O39 C32 1.255 . S
C40 O33 1.287 . S
C40 O34 1.255 . S
O41 Fe23 2.002 . S
O41 C37 1.295 . S
O42 Fe25 1.997 . S
O42 C37 1.235 . S
C43 O26 1.295 . S
C43 O27 1.235 . S
Fe44 O46 1.918 . S
Fe44 O49 1.997 1_554 S
Fe44 O50 2.002 . S
Fe44 O55 1.976 . S
Fe44 O58 1.996 . S
Fe45 O46 1.918 . S
Fe45 O53 1.997 . S
Fe45 O56 1.996 . S
Fe45 O60 1.976 . S
Fe45 O63 2.002 . S
O46 Fe44 1.918 . S
O46 Fe45 1.918 . S
O46 Fe47 1.918 . S
Fe47 O46 1.918 . S
Fe47 O48 2.002 . S
Fe47 O57 1.976 . S
Fe47 O61 1.996 . S
Fe47 O64 1.997 . S
O48 Fe47 2.002 . S
O48 C65 1.295 1_554 S
O49 Fe44 1.997 1_556 S
O49 C65 1.235 . S
O50 Fe44 2.002 . S
O50 C51 1.295 . S
C51 O50 1.295 . S
C51 O53 1.235 . S
C52 O57 1.287 . S
C52 O58 1.255 . S
O53 Fe45 1.997 . S
O53 C51 1.235 . S
C54 O60 1.287 . S
C54 O61 1.255 . S
O55 Fe44 1.976 . S
O55 C62 1.287 . S
O56 Fe45 1.996 . S
O56 C62 1.255 . S
O57 Fe47 1.976 . S
O57 C52 1.287 . S
O58 Fe44 1.996 . S
O58 C52 1.255 . S
C59 O63 1.295 . S
C59 O64 1.235 . S
O60 Fe45 1.976 . S
O60 C54 1.287 . S
O61 Fe47 1.996 . S
O61 C54 1.255 . S
C62 O55 1.287 . S
C62 O56 1.255 . S
O63 Fe45 2.002 . S
O63 C59 1.295 . S
O64 Fe47 1.997 . S
O64 C59 1.235 . S
C65 O48 1.295 1_556 S
C65 O49 1.235 . S
Fe66 O68 1.918 . S
Fe66 O71 1.997 . S
Fe66 O72 2.002 . S
Fe66 O77 1.976 . S
Fe66 O80 1.996 . S
Fe67 O68 1.918 . S
Fe67 O75 1.997 . S
Fe67 O78 1.996 . S
Fe67 O82 1.976 . S
Fe67 O85 2.002 . S
O68 Fe66 1.918 . S
O68 Fe67 1.918 . S
O68 Fe69 1.918 . S
Fe69 O68 1.918 . S
Fe69 O70 2.002 1_556 S
Fe69 O79 1.976 . S
Fe69 O83 1.996 . S
Fe69 O86 1.997 . S
O70 Fe69 2.002 1_554 S
O70 C87 1.295 . S
O71 Fe66 1.997 . S
O71 C87 1.235 1_556 S
O72 Fe66 2.002 . S
O72 C73 1.295 . S
C73 O72 1.295 . S
C73 O75 1.235 . S
C74 O79 1.287 . S
C74 O80 1.255 . S
O75 Fe67 1.997 . S
O75 C73 1.235 . S
C76 O82 1.287 . S
C76 O83 1.255 . S
O77 Fe66 1.976 . S
O77 C84 1.287 . S
O78 Fe67 1.996 . S
O78 C84 1.255 . S
O79 Fe69 1.976 . S
O79 C74 1.287 . S
O80 Fe66 1.996 . S
O80 C74 1.255 . S
C81 O85 1.295 . S
C81 O86 1.235 . S
O82 Fe67 1.976 . S
O82 C76 1.287 . S
O83 Fe69 1.996 . S
O83 C76 1.255 . S
C84 O77 1.287 . S
C84 O78 1.255 . S
O85 Fe67 2.002 . S
O85 C81 1.295 . S
O86 Fe69 1.997 . S
O86 C81 1.235 . S
C87 O70 1.295 . S
C87 O71 1.235 1_554 S
Fe88 O90 1.918 . S
Fe88 O93 1.997 . S
Fe88 O94 2.002 . S
Fe88 O99 1.976 . S
Fe88 O102 1.996 . S
Fe89 O90 1.918 . S
Fe89 O97 1.997 . S
Fe89 O100 1.996 . S
Fe89 O104 1.976 . S
Fe89 O107 2.002 . S
O90 Fe88 1.918 . S
O90 Fe89 1.918 . S
O90 Fe91 1.918 . S
Fe91 O90 1.918 . S
Fe91 O92 2.002 . S
Fe91 O101 1.976 . S
Fe91 O105 1.996 . S
Fe91 O108 1.997 . S
O92 Fe91 2.002 . S
O92 C109 1.295 . S
O93 Fe88 1.997 . S
O93 C109 1.235 . S
O94 Fe88 2.002 . S
O94 C95 1.295 . S
C95 O94 1.295 . S
C95 O97 1.235 . S
C96 O101 1.287 . S
C96 O102 1.255 . S
O97 Fe89 1.997 . S
O97 C95 1.235 . S
C98 O104 1.287 . S
C98 O105 1.255 . S
O99 Fe88 1.976 . S
O99 C106 1.287 . S
O100 Fe89 1.996 . S
O100 C106 1.255 . S
O101 Fe91 1.976 . S
O101 C96 1.287 . S
O102 Fe88 1.996 . S
O102 C96 1.255 . S
C103 O107 1.295 . S
C103 O108 1.235 . S
O104 Fe89 1.976 . S
O104 C98 1.287 . S
O105 Fe91 1.996 . S
O105 C98 1.255 . S
C106 O99 1.287 . S
C106 O100 1.255 . S
O107 Fe89 2.002 . S
O107 C103 1.295 . S
O108 Fe91 1.997 . S
O108 C103 1.235 . S
C109 O92 1.295 . S
C109 O93 1.235 . S
Fe110 O112 1.918 . S
Fe110 O115 1.997 . S
Fe110 O116 2.002 . S
Fe110 O121 1.976 . S
Fe110 O124 1.996 . S
Fe111 O112 1.918 . S
Fe111 O119 1.997 . S
Fe111 O122 1.996 . S
Fe111 O126 1.976 . S
Fe111 O129 2.002 . S
O112 Fe110 1.918 . S
O112 Fe111 1.918 . S
O112 Fe113 1.918 . S
Fe113 O112 1.918 . S
Fe113 O114 2.002 . S
Fe113 O123 1.976 . S
Fe113 O127 1.996 . S
Fe113 O130 1.997 . S
O114 Fe113 2.002 . S
O114 C131 1.295 . S
O115 Fe110 1.997 . S
O115 C131 1.235 . S
O116 Fe110 2.002 . S
O116 C117 1.295 . S
C117 O116 1.295 . S
C117 O119 1.235 . S
C118 O123 1.287 . S
C118 O124 1.255 . S
O119 Fe111 1.997 . S
O119 C117 1.235 . S
C120 O126 1.287 . S
C120 O127 1.255 . S
O121 Fe110 1.976 . S
O121 C128 1.287 . S
O122 Fe111 1.996 . S
O122 C128 1.255 . S
O123 Fe113 1.976 . S
O123 C118 1.287 . S
O124 Fe110 1.996 . S
O124 C118 1.255 . S
C125 O129 1.295 . S
C125 O130 1.235 . S
O126 Fe111 1.976 . S
O126 C120 1.287 . S
O127 Fe113 1.996 . S
O127 C120 1.255 . S
C128 O121 1.287 . S
C128 O122 1.255 . S
O129 Fe111 2.002 . S
O129 C125 1.295 . S
O130 Fe113 1.997 . S
O130 C125 1.235 . S
C131 O114 1.295 . S
C131 O115 1.235 . S
Fe132 O134 1.918 . S
Fe132 O137 1.997 . S
Fe132 O138 2.002 . S
Fe132 O143 1.976 . S
Fe132 O146 1.996 . S
Fe133 O134 1.918 . S
Fe133 O141 1.997 . S
Fe133 O144 1.996 . S
Fe133 O148 1.976 . S
Fe133 O151 2.002 . S
O134 Fe132 1.918 . S
O134 Fe133 1.918 . S
O134 Fe135 1.918 . S
Fe135 O134 1.918 . S
Fe135 O136 2.002 . S
Fe135 O145 1.976 . S
Fe135 O149 1.996 . S
Fe135 O152 1.997 . S
O136 Fe135 2.002 . S
O136 C153 1.295 . S
O137 Fe132 1.997 . S
O137 C153 1.235 . S
O138 Fe132 2.002 . S
O138 C139 1.295 . S
C139 O138 1.295 . S
C139 O141 1.235 . S
C140 O145 1.287 . S
C140 O146 1.255 . S
O141 Fe133 1.997 . S
O141 C139 1.235 . S
C142 O148 1.287 . S
C142 O149 1.255 . S
O143 Fe132 1.976 . S
O143 C150 1.287 . S
O144 Fe133 1.996 . S
O144 C150 1.255 . S
O145 Fe135 1.976 . S
O145 C140 1.287 . S
O146 Fe132 1.996 . S
O146 C140 1.255 . S
C147 O151 1.295 . S
C147 O152 1.235 . S
O148 Fe133 1.976 . S
O148 C142 1.287 . S
O149 Fe135 1.996 . S
O149 C142 1.255 . S
C150 O143 1.287 . S
C150 O144 1.255 . S
O151 Fe133 2.002 . S
O151 C147 1.295 . S
O152 Fe135 1.997 . S
O152 C147 1.235 . S
C153 O136 1.295 . S
C153 O137 1.235 . S
Fe154 O156 1.918 . S
Fe154 O159 1.997 . S
Fe154 O160 2.002 . S
Fe154 O165 1.976 . S
Fe154 O168 1.996 . S
Fe155 O156 1.918 . S
Fe155 O163 1.997 . S
Fe155 O166 1.996 . S
Fe155 O170 1.976 . S
Fe155 O173 2.002 . S
O156 Fe154 1.918 . S
O156 Fe155 1.918 . S
O156 Fe157 1.918 . S
Fe157 O156 1.918 . S
Fe157 O158 2.002 . S
Fe157 O167 1.976 . S
Fe157 O171 1.996 . S
Fe157 O174 1.997 . S
O158 Fe157 2.002 . S
O158 C175 1.295 . S
O159 Fe154 1.997 . S
O159 C175 1.235 . S
O160 Fe154 2.002 . S
O160 C161 1.295 . S
C161 O160 1.295 . S
C161 O163 1.235 . S
C162 O167 1.287 . S
C162 O168 1.255 . S
O163 Fe155 1.997 . S
O163 C161 1.235 . S
C164 O170 1.287 . S
C164 O171 1.255 . S
O165 Fe154 1.976 . S
O165 C172 1.287 . S
O166 Fe155 1.996 . S
O166 C172 1.255 . S
O167 Fe157 1.976 . S
O167 C162 1.287 . S
O168 Fe154 1.996 . S
O168 C162 1.255 . S
C169 O173 1.295 . S
C169 O174 1.235 . S
O170 Fe155 1.976 . S
O170 C164 1.287 . S
O171 Fe157 1.996 . S
O171 C164 1.255 . S
C172 O165 1.287 . S
C172 O166 1.255 . S
O173 Fe155 2.002 . S
O173 C169 1.295 . S
O174 Fe157 1.997 . S
O174 C169 1.235 . S
C175 O158 1.295 . S
C175 O159 1.235 . S
H176 C182 0.930 . S
H177 C186 0.930 . S
H178 C191 0.929 . S
H179 C189 0.929 . S
H180 C184 0.929 . S
H181 C190 0.929 . S
C182 H176 0.930 . S
C182 C183 1.367 . S
C182 C190 1.378 . S
C183 C182 1.367 . S
C183 C191 1.433 . S
C184 H180 0.929 . S
C184 C186 1.378 . S
C184 C188 1.350 . S
C185 C188 1.463 . S
C185 C190 1.350 . S
C185 N193 1.427 . S
C186 H177 0.930 . S
C186 C184 1.378 . S
C186 C187 1.367 . S
C187 C186 1.367 . S
C187 C189 1.433 . S
C188 C184 1.350 . S
C188 C185 1.463 . S
C188 N192 1.427 . S
C189 H179 0.929 . S
C189 C187 1.433 . S
C189 N192 1.384 . S
C190 H181 0.929 . S
C190 C182 1.378 . S
C190 C185 1.350 . S
C191 H178 0.929 . S
C191 C183 1.433 . S
C191 N193 1.384 . S
N192 C188 1.427 . S
N192 C189 1.384 . S
N193 C185 1.427 . S
N193 C191 1.384 . S
H194 C200 0.930 . S
H195 C204 0.930 . S
H196 C209 0.929 . S
H197 C207 0.929 . S
H198 C202 0.929 . S
H199 C208 0.929 . S
C200 H194 0.930 . S
C200 C201 1.367 . S
C200 C208 1.378 . S
C201 C200 1.367 . S
C201 C209 1.433 . S
C202 H198 0.929 . S
C202 C204 1.378 . S
C202 C206 1.350 . S
C203 C206 1.463 . S
C203 C208 1.350 . S
C203 N211 1.427 . S
C204 H195 0.930 . S
C204 C202 1.378 . S
C204 C205 1.367 . S
C205 C204 1.367 . S
C205 C207 1.433 . S
C206 C202 1.350 . S
C206 C203 1.463 . S
C206 N210 1.427 . S
C207 H197 0.929 . S
C207 C205 1.433 . S
C207 N210 1.384 . S
C208 H199 0.929 . S
C208 C200 1.378 . S
C208 C203 1.350 . S
C209 H196 0.929 . S
C209 C201 1.433 . S
C209 N211 1.384 . S
N210 C206 1.427 . S
N210 C207 1.384 . S
N211 C203 1.427 . S
N211 C209 1.384 . S
H212 C218 0.930 . S
H213 C222 0.930 . S
H214 C227 0.929 . S
H215 C225 0.929 . S
H216 C220 0.929 . S
H217 C226 0.929 . S
C218 H212 0.930 . S
C218 C219 1.367 . S
C218 C226 1.378 . S
C219 C218 1.367 . S
C219 C227 1.433 . S
C220 H216 0.929 . S
C220 C222 1.378 . S
C220 C224 1.350 . S
C221 C224 1.463 . S
C221 C226 1.350 . S
C221 N229 1.427 . S
C222 H213 0.930 . S
C222 C220 1.378 . S
C222 C223 1.367 . S
C223 C222 1.367 . S
C223 C225 1.433 . S
C224 C220 1.350 . S
C224 C221 1.463 . S
C224 N228 1.427 . S
C225 H215 0.929 . S
C225 C223 1.433 . S
C225 N228 1.384 . S
C226 H217 0.929 . S
C226 C218 1.378 . S
C226 C221 1.350 . S
C227 H214 0.929 . S
C227 C219 1.433 . S
C227 N229 1.384 . S
N228 C224 1.427 . S
N228 C225 1.384 . S
N229 C221 1.427 . S
N229 C227 1.384 . S
H230 C236 0.930 . S
H231 C240 0.930 . S
H232 C245 0.929 . S
H233 C243 0.929 . S
H234 C238 0.929 . S
H235 C244 0.929 . S
C236 H230 0.930 . S
C236 C237 1.367 . S
C236 C244 1.378 . S
C237 C236 1.367 . S
C237 C245 1.433 . S
C238 H234 0.929 . S
C238 C240 1.378 . S
C238 C242 1.350 . S
C239 C242 1.463 . S
C239 C244 1.350 . S
C239 N247 1.427 . S
C240 H231 0.930 . S
C240 C238 1.378 . S
C240 C241 1.367 . S
C241 C240 1.367 . S
C241 C243 1.433 . S
C242 C238 1.350 . S
C242 C239 1.463 . S
C242 N246 1.427 . S
C243 H233 0.929 . S
C243 C241 1.433 . S
C243 N246 1.384 . S
C244 H235 0.929 . S
C244 C236 1.378 . S
C244 C239 1.350 . S
C245 H232 0.929 . S
C245 C237 1.433 . S
C245 N247 1.384 . S
N246 C242 1.427 . S
N246 C243 1.384 . S
N247 C239 1.427 . S
N247 C245 1.384 . S
H248 C254 0.930 . S
H249 C258 0.930 . S
H250 C263 0.929 . S
H251 C261 0.929 . S
H252 C256 0.929 . S
H253 C262 0.929 . S
C254 H248 0.930 . S
C254 C255 1.367 . S
C254 C262 1.378 . S
C255 C254 1.367 . S
C255 C263 1.433 . S
C256 H252 0.929 . S
C256 C258 1.378 . S
C256 C260 1.350 . S
C257 C260 1.463 . S
C257 C262 1.350 . S
C257 N265 1.427 . S
C258 H249 0.930 . S
C258 C256 1.378 . S
C258 C259 1.367 . S
C259 C258 1.367 . S
C259 C261 1.433 . S
C260 C256 1.350 . S
C260 C257 1.463 . S
C260 N264 1.427 . S
C261 H251 0.929 . S
C261 C259 1.433 . S
C261 N264 1.384 . S
C262 H253 0.929 . S
C262 C254 1.378 . S
C262 C257 1.350 . S
C263 H250 0.929 . S
C263 C255 1.433 . S
C263 N265 1.384 . S
N264 C260 1.427 . S
N264 C261 1.384 . S
N265 C257 1.427 . S
N265 C263 1.384 . S
H266 C272 0.930 . S
H267 C276 0.930 . S
H268 C281 0.929 . S
H269 C279 0.929 . S
H270 C274 0.929 . S
H271 C280 0.929 . S
C272 H266 0.930 . S
C272 C273 1.367 . S
C272 C280 1.378 . S
C273 C272 1.367 . S
C273 C281 1.433 . S
C274 H270 0.929 . S
C274 C276 1.378 . S
C274 C278 1.350 . S
C275 C278 1.463 . S
C275 C280 1.350 . S
C275 N283 1.427 . S
C276 H267 0.930 . S
C276 C274 1.378 . S
C276 C277 1.367 . S
C277 C276 1.367 . S
C277 C279 1.433 . S
C278 C274 1.350 . S
C278 C275 1.463 . S
C278 N282 1.427 . S
C279 H269 0.929 . S
C279 C277 1.433 . S
C279 N282 1.384 . S
C280 H271 0.929 . S
C280 C272 1.378 . S
C280 C275 1.350 . S
C281 H268 0.929 . S
C281 C273 1.433 . S
C281 N283 1.384 . S
N282 C278 1.427 . S
N282 C279 1.384 . S
N283 C275 1.427 . S
N283 C281 1.384 . S
H284 C290 0.930 . S
H285 C294 0.930 . S
H286 C299 0.929 . S
H287 C297 0.929 . S
H288 C292 0.929 . S
H289 C298 0.929 . S
C290 H284 0.930 . S
C290 C291 1.367 . S
C290 C298 1.378 . S
C291 C290 1.367 . S
C291 C299 1.433 . S
C292 H288 0.929 . S
C292 C294 1.378 . S
C292 C296 1.350 . S
C293 C296 1.463 . S
C293 C298 1.350 . S
C293 N301 1.427 . S
C294 H285 0.930 . S
C294 C292 1.378 . S
C294 C295 1.367 . S
C295 C294 1.367 . S
C295 C297 1.433 . S
C296 C292 1.350 . S
C296 C293 1.463 . S
C296 N300 1.427 . S
C297 H287 0.929 . S
C297 C295 1.433 . S
C297 N300 1.384 . S
C298 H289 0.929 . S
C298 C290 1.378 . S
C298 C293 1.350 . S
C299 H286 0.929 . S
C299 C291 1.433 . S
C299 N301 1.384 . S
N300 C296 1.427 . S
N300 C297 1.384 . S
N301 C293 1.427 . S
N301 C299 1.384 . S
H302 C308 0.930 . S
H303 C312 0.930 . S
H304 C317 0.929 . S
H305 C315 0.929 . S
H306 C310 0.929 . S
H307 C316 0.929 . S
C308 H302 0.930 . S
C308 C309 1.367 . S
C308 C316 1.378 . S
C309 C308 1.367 . S
C309 C317 1.433 . S
C310 H306 0.929 . S
C310 C312 1.378 . S
C310 C314 1.350 . S
C311 C314 1.463 . S
C311 C316 1.350 . S
C311 N319 1.427 . S
C312 H303 0.930 . S
C312 C310 1.378 . S
C312 C313 1.367 . S
C313 C312 1.367 . S
C313 C315 1.433 . S
C314 C310 1.350 . S
C314 C311 1.463 . S
C314 N318 1.427 . S
C315 H305 0.929 . S
C315 C313 1.433 . S
C315 N318 1.384 . S
C316 H307 0.929 . S
C316 C308 1.378 . S
C316 C311 1.350 . S
C317 H304 0.929 . S
C317 C309 1.433 . S
C317 N319 1.384 . S
N318 C314 1.427 . S
N318 C315 1.384 . S
N319 C311 1.427 . S
N319 C317 1.384 . S
H320 C326 0.930 . S
H321 C330 0.930 . S
H322 C335 0.929 . S
H323 C333 0.929 . S
H324 C328 0.929 . S
H325 C334 0.929 . S
C326 H320 0.930 . S
C326 C327 1.367 . S
C326 C334 1.378 . S
C327 C326 1.367 . S
C327 C335 1.433 . S
C328 H324 0.929 . S
C328 C330 1.378 . S
C328 C332 1.350 . S
C329 C332 1.463 . S
C329 C334 1.350 . S
C329 N337 1.427 . S
C330 H321 0.930 . S
C330 C328 1.378 . S
C330 C331 1.367 . S
C331 C330 1.367 . S
C331 C333 1.433 . S
C332 C328 1.350 . S
C332 C329 1.463 . S
C332 N336 1.427 . S
C333 H323 0.929 . S
C333 C331 1.433 . S
C333 N336 1.384 . S
C334 H325 0.929 . S
C334 C326 1.378 . S
C334 C329 1.350 . S
C335 H322 0.929 . S
C335 C327 1.433 . S
C335 N337 1.384 . S
N336 C332 1.427 . S
N336 C333 1.384 . S
N337 C329 1.427 . S
N337 C335 1.384 . S
H338 C344 0.930 . S
H339 C348 0.930 . S
H340 C353 0.929 . S
H341 C351 0.929 . S
H342 C346 0.929 . S
H343 C352 0.929 . S
C344 H338 0.930 . S
C344 C345 1.367 . S
C344 C352 1.378 . S
C345 C344 1.367 . S
C345 C353 1.433 . S
C346 H342 0.929 . S
C346 C348 1.378 . S
C346 C350 1.350 . S
C347 C350 1.463 . S
C347 C352 1.350 . S
C347 N355 1.427 . S
C348 H339 0.930 . S
C348 C346 1.378 . S
C348 C349 1.367 . S
C349 C348 1.367 . S
C349 C351 1.433 . S
C350 C346 1.350 . S
C350 C347 1.463 . S
C350 N354 1.427 . S
C351 H341 0.929 . S
C351 C349 1.433 . S
C351 N354 1.384 . S
C352 H343 0.929 . S
C352 C344 1.378 . S
C352 C347 1.350 . S
C353 H340 0.929 . S
C353 C345 1.433 . S
C353 N355 1.384 . S
N354 C350 1.427 . S
N354 C351 1.384 . S
N355 C347 1.427 . S
N355 C353 1.384 . S
H356 C362 0.930 . S
H357 C366 0.930 . S
H358 C371 0.929 . S
H359 C369 0.929 . S
H360 C364 0.929 . S
H361 C370 0.929 . S
C362 H356 0.930 . S
C362 C363 1.367 . S
C362 C370 1.378 . S
C363 C362 1.367 . S
C363 C371 1.433 . S
C364 H360 0.929 . S
C364 C366 1.378 . S
C364 C368 1.350 . S
C365 C368 1.463 . S
C365 C370 1.350 . S
C365 N373 1.427 . S
C366 H357 0.930 . S
C366 C364 1.378 . S
C366 C367 1.367 . S
C367 C366 1.367 . S
C367 C369 1.433 . S
C368 C364 1.350 . S
C368 C365 1.463 . S
C368 N372 1.427 . S
C369 H359 0.929 . S
C369 C367 1.433 . S
C369 N372 1.384 . S
C370 H361 0.929 . S
C370 C362 1.378 . S
C370 C365 1.350 . S
C371 H358 0.929 . S
C371 C363 1.433 . S
C371 N373 1.384 . S
N372 C368 1.427 . S
N372 C369 1.384 . S
N373 C365 1.427 . S
N373 C371 1.384 . S
H374 C380 0.930 . S
H375 C384 0.930 . S
H376 C389 0.929 . S
H377 C387 0.929 . S
H378 C382 0.929 . S
H379 C388 0.929 . S
C380 H374 0.930 . S
C380 C381 1.367 . S
C380 C388 1.378 . S
C381 C380 1.367 . S
C381 C389 1.433 . S
C382 H378 0.929 . S
C382 C384 1.378 . S
C382 C386 1.350 . S
C383 C386 1.463 . S
C383 C388 1.350 . S
C383 N391 1.427 . S
C384 H375 0.930 . S
C384 C382 1.378 . S
C384 C385 1.367 . S
C385 C384 1.367 . S
C385 C387 1.433 . S
C386 C382 1.350 . S
C386 C383 1.463 . S
C386 N390 1.427 . S
C387 H377 0.929 . S
C387 C385 1.433 . S
C387 N390 1.384 . S
C388 H379 0.929 . S
C388 C380 1.378 . S
C388 C383 1.350 . S
C389 H376 0.929 . S
C389 C381 1.433 . S
C389 N391 1.384 . S
N390 C386 1.427 . S
N390 C387 1.384 . S
N391 C383 1.427 . S
N391 C389 1.384 . S
H392 C398 0.930 . S
H393 C402 0.930 . S
H394 C407 0.929 1_554 S
H395 C405 0.929 . S
H396 C400 0.929 . S
H397 C406 0.929 . S
C398 H392 0.930 . S
C398 C399 1.367 . S
C398 C406 1.378 . S
C399 C398 1.367 . S
C399 C407 1.433 . S
C400 H396 0.929 . S
C400 C402 1.378 . S
C400 C404 1.350 1_554 S
C401 C404 1.463 . S
C401 C406 1.350 . S
C401 N409 1.427 1_556 S
C402 H393 0.930 . S
C402 C400 1.378 . S
C402 C403 1.367 . S
C403 C402 1.367 . S
C403 C405 1.433 1_554 S
C404 C400 1.350 1_556 S
C404 C401 1.463 . S
C404 N408 1.427 . S
C405 H395 0.929 . S
C405 C403 1.433 1_556 S
C405 N408 1.384 . S
C406 H397 0.929 . S
C406 C398 1.378 . S
C406 C401 1.350 . S
C407 H394 0.929 1_556 S
C407 C399 1.433 . S
C407 N409 1.384 1_556 S
N408 C404 1.427 . S
N408 C405 1.384 . S
N409 C401 1.427 1_554 S
N409 C407 1.384 1_554 S
H410 C416 0.930 . S
H411 C420 0.930 . S
H412 C425 0.929 . S
H413 C423 0.929 . S
H414 C418 0.929 . S
H415 C424 0.927 1_554 S
C416 H410 0.930 . S
C416 C417 1.367 . S
C416 C424 1.382 . S
C417 C416 1.367 . S
C417 C425 1.433 . S
C418 H414 0.929 . S
C418 C420 1.378 . S
C418 C422 1.350 . S
C419 C422 1.463 . S
C419 C424 1.347 1_554 S
C419 N427 1.427 . S
C420 H411 0.930 . S
C420 C418 1.378 . S
C420 C421 1.367 . S
C421 C420 1.367 . S
C421 C423 1.433 . S
C422 C418 1.350 . S
C422 C419 1.463 . S
C422 N426 1.427 . S
C423 H413 0.929 . S
C423 C421 1.433 . S
C423 N426 1.384 . S
C424 H415 0.927 1_556 S
C424 C416 1.382 . S
C424 C419 1.347 1_556 S
C425 H412 0.929 . S
C425 C417 1.433 . S
C425 N427 1.384 1_556 S
N426 C422 1.427 . S
N426 C423 1.384 . S
N427 C419 1.427 . S
N427 C425 1.384 1_554 S
H428 C434 0.930 . S
H429 C438 0.930 . S
H430 C443 0.929 . S
H431 C441 0.929 . S
H432 C436 0.929 . S
H433 C442 0.929 . S
C434 H428 0.930 . S
C434 C435 1.367 . S
C434 C442 1.378 . S
C435 C434 1.367 . S
C435 C443 1.433 1_554 S
C436 H432 0.929 . S
C436 C438 1.378 . S
C436 C440 1.350 . S
C437 C440 1.463 . S
C437 C442 1.350 1_556 S
C437 N445 1.427 . S
C438 H429 0.930 . S
C438 C436 1.378 . S
C438 C439 1.367 . S
C439 C438 1.367 . S
C439 C441 1.433 . S
C440 C436 1.350 . S
C440 C437 1.463 . S
C440 N444 1.427 . S
C441 H431 0.929 . S
C441 C439 1.433 . S
C441 N444 1.384 . S
C442 H433 0.929 . S
C442 C434 1.378 . S
C442 C437 1.350 1_554 S
C443 H430 0.929 . S
C443 C435 1.433 1_556 S
C443 N445 1.384 . S
N444 C440 1.427 . S
N444 C441 1.384 . S
N445 C437 1.427 . S
N445 C443 1.384 . S
H446 C452 0.930 1_554 S
H447 C456 0.930 . S
H448 C461 0.929 . S
H449 C459 0.929 . S
H450 C454 0.929 . S
H451 C460 0.929 . S
C452 H446 0.930 1_556 S
C452 C453 1.367 . S
C452 C460 1.378 1_556 S
C453 C452 1.367 . S
C453 C461 1.433 . S
C454 H450 0.929 . S
C454 C456 1.378 . S
C454 C458 1.350 . S
C455 C458 1.463 . S
C455 C460 1.350 . S
C455 N463 1.427 1_554 S
C456 H447 0.930 . S
C456 C454 1.378 . S
C456 C457 1.367 . S
C457 C456 1.367 . S
C457 C459 1.433 . S
C458 C454 1.350 . S
C458 C455 1.463 . S
C458 N462 1.427 . S
C459 H449 0.929 . S
C459 C457 1.433 . S
C459 N462 1.384 . S
C460 H451 0.929 . S
C460 C452 1.378 1_554 S
C460 C455 1.350 . S
C461 H448 0.929 . S
C461 C453 1.433 . S
C461 N463 1.384 . S
N462 C458 1.427 . S
N462 C459 1.384 . S
N463 C455 1.427 1_556 S
N463 C461 1.384 . S
H464 C470 0.930 . S
H465 C474 0.930 . S
H466 C479 0.929 . S
H467 C477 0.929 . S
H468 C472 0.929 . S
H469 C478 0.929 . S
C470 H464 0.930 . S
C470 C471 1.367 . S
C470 C478 1.378 . S
C471 C470 1.367 . S
C471 C479 1.433 . S
C472 H468 0.929 . S
C472 C474 1.378 . S
C472 C476 1.350 . S
C473 C476 1.463 . S
C473 C478 1.350 . S
C473 N481 1.427 . S
C474 H465 0.930 . S
C474 C472 1.378 . S
C474 C475 1.367 . S
C475 C474 1.367 . S
C475 C477 1.433 . S
C476 C472 1.350 . S
C476 C473 1.463 . S
C476 N480 1.427 . S
C477 H467 0.929 . S
C477 C475 1.433 . S
C477 N480 1.384 . S
C478 H469 0.929 . S
C478 C470 1.378 . S
C478 C473 1.350 . S
C479 H466 0.929 . S
C479 C471 1.433 . S
C479 N481 1.384 . S
N480 C476 1.427 . S
N480 C477 1.384 . S
N481 C473 1.427 . S
N481 C479 1.384 . S
H482 C488 0.930 . S
H483 C492 0.930 . S
H484 C497 0.929 . S
H485 C495 0.929 . S
H486 C490 0.929 . S
H487 C496 0.929 . S
C488 H482 0.930 . S
C488 C489 1.367 . S
C488 C496 1.378 . S
C489 C488 1.367 . S
C489 C497 1.433 . S
C490 H486 0.929 . S
C490 C492 1.378 . S
C490 C494 1.350 . S
C491 C494 1.463 . S
C491 C496 1.350 . S
C491 N499 1.427 . S
C492 H483 0.930 . S
C492 C490 1.378 . S
C492 C493 1.367 . S
C493 C492 1.367 . S
C493 C495 1.433 . S
C494 C490 1.350 . S
C494 C491 1.463 . S
C494 N498 1.427 . S
C495 H485 0.929 . S
C495 C493 1.433 . S
C495 N498 1.384 . S
C496 H487 0.929 . S
C496 C488 1.378 . S
C496 C491 1.350 . S
C497 H484 0.929 . S
C497 C489 1.433 . S
C497 N499 1.384 . S
N498 C494 1.427 . S
N498 C495 1.384 . S
N499 C491 1.427 . S
N499 C497 1.384 . S
H500 C506 0.930 . S
H501 C510 0.930 . S
H502 C515 0.929 . S
H503 C513 0.929 . S
H504 C508 0.929 . S
H505 C514 0.929 . S
C506 H500 0.930 . S
C506 C507 1.367 . S
C506 C514 1.378 . S
C507 C506 1.367 . S
C507 C515 1.433 . S
C508 H504 0.929 . S
C508 C510 1.378 . S
C508 C512 1.350 . S
C509 C512 1.463 . S
C509 C514 1.350 . S
C509 N517 1.427 . S
C510 H501 0.930 . S
C510 C508 1.378 . S
C510 C511 1.367 . S
C511 C510 1.367 . S
C511 C513 1.433 . S
C512 C508 1.350 . S
C512 C509 1.463 . S
C512 N516 1.427 . S
C513 H503 0.929 . S
C513 C511 1.433 . S
C513 N516 1.384 . S
C514 H505 0.929 . S
C514 C506 1.378 . S
C514 C509 1.350 . S
C515 H502 0.929 . S
C515 C507 1.433 . S
C515 N517 1.384 . S
N516 C512 1.427 . S
N516 C513 1.384 . S
N517 C509 1.427 . S
N517 C515 1.384 . S
H518 C524 0.930 . S
H519 C528 0.930 . S
H520 C533 0.929 . S
H521 C531 0.929 . S
H522 C526 0.929 . S
H523 C532 0.929 . S
C524 H518 0.930 . S
C524 C525 1.367 . S
C524 C532 1.378 . S
C525 C524 1.367 . S
C525 C533 1.433 . S
C526 H522 0.929 . S
C526 C528 1.378 . S
C526 C530 1.350 . S
C527 C530 1.463 . S
C527 C532 1.350 . S
C527 N535 1.427 . S
C528 H519 0.930 . S
C528 C526 1.378 . S
C528 C529 1.367 . S
C529 C528 1.367 . S
C529 C531 1.433 . S
C530 C526 1.350 . S
C530 C527 1.463 . S
C530 N534 1.427 . S
C531 H521 0.929 . S
C531 C529 1.433 . S
C531 N534 1.384 . S
C532 H523 0.929 . S
C532 C524 1.378 . S
C532 C527 1.350 . S
C533 H520 0.929 . S
C533 C525 1.433 . S
C533 N535 1.384 . S
N534 C530 1.427 . S
N534 C531 1.384 . S
N535 C527 1.427 . S
N535 C533 1.384 . S
H536 C542 0.930 . S
H537 C546 0.930 . S
H538 C551 0.929 . S
H539 C549 0.929 . S
H540 C544 0.929 . S
H541 C550 0.929 . S
C542 H536 0.930 . S
C542 C543 1.367 . S
C542 C550 1.378 . S
C543 C542 1.367 . S
C543 C551 1.433 . S
C544 H540 0.929 . S
C544 C546 1.378 . S
C544 C548 1.350 . S
C545 C548 1.463 1_545 S
C545 C550 1.350 . S
C545 N553 1.427 . S
C546 H537 0.930 . S
C546 C544 1.378 . S
C546 C547 1.367 . S
C547 C546 1.367 . S
C547 C549 1.433 . S
C548 C544 1.350 . S
C548 C545 1.463 1_565 S
C548 N552 1.427 . S
C549 H539 0.929 . S
C549 C547 1.433 . S
C549 N552 1.384 . S
C550 H541 0.929 . S
C550 C542 1.378 . S
C550 C545 1.350 . S
C551 H538 0.929 . S
C551 C543 1.433 . S
C551 N553 1.384 . S
N552 C548 1.427 . S
N552 C549 1.384 . S
N553 C545 1.427 . S
N553 C551 1.384 . S
H554 C560 0.930 . S
H555 C564 0.930 . S
H556 C569 0.929 . S
H557 C567 0.929 . S
H558 C562 0.929 . S
H559 C568 0.929 . S
C560 H554 0.930 . S
C560 C561 1.367 . S
C560 C568 1.378 . S
C561 C560 1.367 . S
C561 C569 1.433 . S
C562 H558 0.929 . S
C562 C564 1.378 . S
C562 C566 1.350 . S
C563 C566 1.463 1_655 S
C563 C568 1.350 . S
C563 N571 1.427 . S
C564 H555 0.930 . S
C564 C562 1.378 . S
C564 C565 1.367 . S
C565 C564 1.367 . S
C565 C567 1.433 . S
C566 C562 1.350 . S
C566 C563 1.463 1_455 S
C566 N570 1.427 . S
C567 H557 0.929 . S
C567 C565 1.433 . S
C567 N570 1.384 . S
C568 H559 0.929 . S
C568 C560 1.378 . S
C568 C563 1.350 . S
C569 H556 0.929 . S
C569 C561 1.433 . S
C569 N571 1.384 . S
N570 C566 1.427 . S
N570 C567 1.384 . S
N571 C563 1.427 . S
N571 C569 1.384 . S
H572 C578 0.930 . S
H573 C582 0.930 . S
H574 C587 0.929 . S
H575 C585 0.929 . S
H576 C580 0.929 1_565 S
H577 C586 0.929 1_545 S
C578 H572 0.930 . S
C578 C579 1.367 . S
C578 C586 1.378 . S
C579 C578 1.367 . S
C579 C587 1.433 . S
C580 H576 0.929 1_545 S
C580 C582 1.378 . S
C580 C584 1.350 . S
C581 C584 1.463 1_565 S
C581 C586 1.350 . S
C581 N589 1.427 . S
C582 H573 0.930 . S
C582 C580 1.378 . S
C582 C583 1.367 . S
C583 C582 1.367 . S
C583 C585 1.433 . S
C584 C580 1.350 . S
C584 C581 1.463 1_545 S
C584 N588 1.427 . S
C585 H575 0.929 . S
C585 C583 1.433 . S
C585 N588 1.384 . S
C586 H577 0.929 1_565 S
C586 C578 1.378 . S
C586 C581 1.350 . S
C587 H574 0.929 . S
C587 C579 1.433 . S
C587 N589 1.384 . S
N588 C584 1.427 . S
N588 C585 1.384 . S
N589 C581 1.427 . S
N589 C587 1.384 . S
H590 C596 0.930 . S
H591 C600 0.930 . S
H592 C605 0.929 . S
H593 C603 0.929 . S
H594 C598 0.929 . S
H595 C604 0.929 . S
C596 H590 0.930 . S
C596 C597 1.367 . S
C596 C604 1.378 . S
C597 C596 1.367 . S
C597 C605 1.433 . S
C598 H594 0.929 . S
C598 C600 1.378 . S
C598 C602 1.350 . S
C599 C602 1.463 1_655 S
C599 C604 1.350 . S
C599 N607 1.427 . S
C600 H591 0.930 . S
C600 C598 1.378 . S
C600 C601 1.367 . S
C601 C600 1.367 . S
C601 C603 1.433 . S
C602 C598 1.350 . S
C602 C599 1.463 1_455 S
C602 N606 1.427 . S
C603 H593 0.929 . S
C603 C601 1.433 . S
C603 N606 1.384 . S
C604 H595 0.929 . S
C604 C596 1.378 . S
C604 C599 1.350 . S
C605 H592 0.929 . S
C605 C597 1.433 . S
C605 N607 1.384 . S
N606 C602 1.427 . S
N606 C603 1.384 . S
N607 C599 1.427 . S
N607 C605 1.384 . S
C183 C128 1.308 . S
C187 C10 1.325 . S
C201 C30 1.346 . S
C205 C140 1.352 . S
C219 C172 1.310 . S
C223 C62 1.326 . S
C237 C76 1.344 . S
C241 C106 1.356 . S
C255 C96 1.227 . S
C259 C7 1.238 . S
C273 C29 1.247 . S
C277 C120 1.237 . S
C291 C65 1.242 . S
C295 C142 1.230 . S
C309 C164 1.246 . S
C313 C87 1.246 . S
C327 C8 1.243 . S
C331 C103 1.242 . S
C345 C131 1.241 . S
C349 C32 1.233 . S
C363 C54 1.244 . S
C367 C139 1.248 . S
C381 C84 1.236 . S
C385 C175 1.236 . S
C399 C37 1.166 . S
C403 C15 1.159 . S
C417 C43 1.158 . S
C421 C59 1.162 . S
C435 C51 1.162 . S
C439 C73 1.164 . S
C453 C81 1.160 . S
C457 C21 1.163 . S
C471 C95 1.161 . S
C475 C169 1.163 . S
C489 C109 1.168 . S
C493 C117 1.158 . S
C507 C153 1.157 . S
C511 C125 1.168 . S
C525 C161 1.168 . S
C529 C147 1.166 . S
C543 C18 1.562 . S
C547 C52 1.566 . S
C561 C74 1.559 . S
C565 C40 1.563 . S
C579 C150 1.570 . S
C583 C98 1.571 . S
C597 C162 1.561 . S
C601 C118 1.564 . S
