# Generated by pormake.
# Topology soe, (5)-cn, num edge types: 1
# Building blocks:
#     Node 0, Type 0, BuildingBlock: XOMCOT_clean_sbu_1, # of connection points: 5
#     Node 1, Type 0, BuildingBlock: XOMCOT_clean_sbu_1, # of connection points: 5
#     Node 2, Type 0, BuildingBlock: XOMCOT_clean_sbu_1, # of connection points: 5
#     Node 3, Type 0, BuildingBlock: XOMCOT_clean_sbu_1, # of connection points: 5
#     Node 4, Type 0, BuildingBlock: XOMCOT_clean_sbu_1, # of connection points: 5
#     Node 5, Type 0, BuildingBlock: XOMCOT_clean_sbu_1, # of connection points: 5
#     Node 6, Type 0, BuildingBlock: XOMCOT_clean_sbu_1, # of connection points: 5
#     Node 7, Type 0, BuildingBlock: XOMCOT_clean_sbu_1, # of connection points: 5
#     Edge 8, Type (0, 0), BuildingBlock: EZIPEK_clean_linker_0, # of connection points: 2
#     Edge 9, Type (0, 0), BuildingBlock: EZIPEK_clean_linker_0, # of connection points: 2
#     Edge 10, Type (0, 0), BuildingBlock: EZIPEK_clean_linker_0, # of connection points: 2
#     Edge 11, Type (0, 0), BuildingBlock: EZIPEK_clean_linker_0, # of connection points: 2
#     Edge 12, Type (0, 0), BuildingBlock: EZIPEK_clean_linker_0, # of connection points: 2
#     Edge 13, Type (0, 0), BuildingBlock: EZIPEK_clean_linker_0, # of connection points: 2
#     Edge 14, Type (0, 0), BuildingBlock: EZIPEK_clean_linker_0, # of connection points: 2
#     Edge 15, Type (0, 0), BuildingBlock: EZIPEK_clean_linker_0, # of connection points: 2
#     Edge 16, Type (0, 0), BuildingBlock: EZIPEK_clean_linker_0, # of connection points: 2
#     Edge 17, Type (0, 0), BuildingBlock: EZIPEK_clean_linker_0, # of connection points: 2
#     Edge 18, Type (0, 0), BuildingBlock: EZIPEK_clean_linker_0, # of connection points: 2
#     Edge 19, Type (0, 0), BuildingBlock: EZIPEK_clean_linker_0, # of connection points: 2
#     Edge 20, Type (0, 0), BuildingBlock: EZIPEK_clean_linker_0, # of connection points: 2
#     Edge 21, Type (0, 0), BuildingBlock: EZIPEK_clean_linker_0, # of connection points: 2
#     Edge 22, Type (0, 0), BuildingBlock: EZIPEK_clean_linker_0, # of connection points: 2
#     Edge 23, Type (0, 0), BuildingBlock: EZIPEK_clean_linker_0, # of connection points: 2
#     Edge 24, Type (0, 0), BuildingBlock: EZIPEK_clean_linker_0, # of connection points: 2
#     Edge 25, Type (0, 0), BuildingBlock: EZIPEK_clean_linker_0, # of connection points: 2
#     Edge 26, Type (0, 0), BuildingBlock: EZIPEK_clean_linker_0, # of connection points: 2
#     Edge 27, Type (0, 0), BuildingBlock: EZIPEK_clean_linker_0, # of connection points: 2
# Relax obj value: 0.055
# Max RMSD: 0.084
# Mean RMSD: 0.084
data_MOF--net-soe--node1-XOMCOT_clean_sbu_1--edge1-EZIPEK_clean_linker_0
_symmetry_space_group_name_H-M    P1
_symmetry_Int_Tables_number       1
_symmetry_cell_setting            triclinic
loop_
_symmetry_equiv_pos_as_xyz
'x, y, z'
_cell_length_a     42.250691
_cell_length_b     34.664085
_cell_length_c     13.426343
_cell_angle_alpha  89.960002
_cell_angle_beta   90.109467
_cell_angle_gamma 90.144783
loop_
_atom_site_label
_atom_site_type_symbol
_atom_site_fract_x
_atom_site_fract_y
_atom_site_fract_z
_atom_type_partial_charge
C0 C 0.14283 0.15587 1.00844 0.0
C1 C 0.14445 0.15977 0.90629 0.0
N2 N 0.11888 0.14236 0.86659 0.0
N3 N 0.1164 0.13602 0.03262 0.0
C4 C 0.10208 0.12871 0.94425 0.0
H5 H 0.16052 0.16529 0.06146 0.0
Co6 Co 0.10567 0.11908 0.16135 0.0
C7 C 0.0685 0.04871 0.09035 0.0
O8 O 0.08859 0.0239 0.12868 0.0
N9 N 0.09463 0.10354 0.29304 0.0
C10 C 0.07649 0.07451 0.43034 0.0
C11 C 0.07735 0.07347 0.32786 0.0
C12 C 0.10342 0.12275 0.37672 0.0
N13 N 0.09292 0.10553 0.46046 0.0
O14 O 0.07579 0.16067 0.17101 0.0
H15 H 0.06591 0.05174 0.28354 0.0
H16 H 0.11825 0.14821 0.37688 0.0
O17 O 0.07281 0.08502 0.10249 0.0
C18 C 0.09085 0.19044 0.20098 0.0
O19 O 0.12139 0.18755 0.21766 0.0
N20 N 0.13829 0.0813 0.1542 0.0
C21 C 0.19723 0.04536 0.13443 0.0
C22 C 0.17492 0.04359 0.05722 0.0
C23 C 0.14554 0.06172 0.06868 0.0
C24 C 0.15983 0.08255 0.23019 0.0
C25 C 0.18902 0.06414 0.22271 0.0
H26 H 0.12956 0.06217 1.00609 0.0
H27 H 0.15577 0.10031 0.29454 0.0
H28 H 0.08064 0.11193 0.93568 0.0
H29 H 0.1636 0.17258 0.86416 0.0
H30 H 0.06507 0.05387 0.47911 0.0
H31 H 0.1807 0.02982 0.9872 0.0
H32 H 0.20593 0.06667 0.28316 0.0
C33 C 0.38332 0.89114 0.02071 0.0
C34 C 0.38442 0.88882 0.9187 0.0
N35 N 0.41395 0.89795 0.88884 0.0
N36 N 0.4118 0.90272 0.0549 0.0
C37 C 0.43035 0.90506 0.9733 0.0
H38 H 0.36243 0.88776 0.06638 0.0
Co39 Co 0.41941 0.92063 0.18322 0.0
C40 C 0.45698 0.9932 0.12812 0.0
O41 O 0.43685 1.01737 0.16798 0.0
N42 N 0.42678 0.93851 0.31492 0.0
C43 C 0.42097 0.97194 0.45537 0.0
C44 C 0.419 0.97328 0.35364 0.0
C45 C 0.43429 0.917 0.3958 0.0
N46 N 0.43033 0.93641 0.48189 0.0
O47 O 0.45111 0.88076 0.19937 0.0
H48 H 0.40898 0.99706 0.31282 0.0
H49 H 0.4399 0.88676 0.39336 0.0
O50 O 0.4519 0.95673 0.13121 0.0
C51 C 0.43632 0.84992 0.22315 0.0
O52 O 0.40557 0.85193 0.23667 0.0
N53 N 0.38539 0.95542 0.16778 0.0
C54 C 0.32608 0.98914 0.13976 0.0
C55 C 0.35083 0.99647 0.07267 0.0
C56 C 0.38042 0.97914 0.08789 0.0
C57 C 0.36126 0.94765 0.23227 0.0
C58 C 0.33173 0.96487 0.22104 0.0
H59 H 0.39858 0.98272 0.0323 0.0
H60 H 0.36464 0.92673 0.29114 0.0
H61 H 0.45475 0.91461 0.97482 0.0
H62 H 0.36461 0.883 0.86965 0.0
H63 H 0.41407 0.99456 0.50645 0.0
H64 H 0.34697 1.01434 1.0076 0.0
H65 H 0.31299 0.958 0.27313 0.0
C66 C 0.13023 0.36413 0.50986 0.0
C67 C 0.1293 0.36111 0.61228 0.0
N68 N 0.11229 0.39081 0.64773 0.0
N69 N 0.11368 0.39547 0.48068 0.0
C70 C 0.10289 0.41086 0.56699 0.0
H71 H 0.14361 0.34568 0.46085 0.0
Co72 Co 0.1107 0.41632 0.35087 0.0
C73 C 0.06766 0.48374 0.40083 0.0
O74 O 0.08895 0.50957 0.37546 0.0
N75 N 0.1072 0.43801 0.21932 0.0
C76 C 0.11476 0.47556 0.08579 0.0
C77 C 0.1166 0.47342 0.18797 0.0
C78 C 0.09837 0.42009 0.13386 0.0
N79 N 0.10373 0.44166 0.05194 0.0
O80 O 0.08242 0.37473 0.31353 0.0
H81 H 0.12651 0.49567 0.23494 0.0
H82 H 0.08858 0.39154 0.13027 0.0
O83 O 0.07462 0.44803 0.39374 0.0
C84 C 0.0988 0.346 0.28298 0.0
O85 O 0.12972 0.34984 0.27934 0.0
N86 N 0.14271 0.45213 0.38485 0.0
C87 C 0.20112 0.48674 0.4268 0.0
C88 C 0.17462 0.49411 0.48698 0.0
C89 C 0.1454 0.47663 0.46432 0.0
C90 C 0.16865 0.44388 0.32849 0.0
C91 C 0.19765 0.46163 0.3461 0.0
H92 H 0.12556 0.48186 0.51272 0.0
H93 H 0.16691 0.42261 0.2698 0.0
H94 H 0.08992 0.43758 0.57204 0.0
H95 H 0.14175 0.3402 0.65757 0.0
H96 H 0.12316 0.49902 0.03949 0.0
H97 H 0.17663 0.51275 0.55141 0.0
H98 H 0.21762 0.4547 0.29891 0.0
C99 C 0.38043 0.64791 0.51509 0.0
C100 C 0.38156 0.64864 0.61715 0.0
N101 N 0.41171 0.64274 0.6464 0.0
N102 N 0.40957 0.64031 0.47958 0.0
C103 C 0.42841 0.6393 0.5611 0.0
H104 H 0.35916 0.64874 0.47015 0.0
Co105 Co 0.41687 0.62138 0.35098 0.0
C106 C 0.46032 0.5545 0.40189 0.0
O107 O 0.4395 0.52945 0.36899 0.0
N108 N 0.42407 0.602 0.21959 0.0
C109 C 0.41963 0.56661 0.08121 0.0
C110 C 0.41667 0.56666 0.18289 0.0
C111 C 0.43268 0.62231 0.13763 0.0
N112 N 0.42935 0.60177 0.05274 0.0
O113 O 0.44473 0.66483 0.32432 0.0
H114 H 0.40681 0.54305 0.22504 0.0
H115 H 0.43966 0.65221 0.13859 0.0
O116 O 0.45288 0.59029 0.40158 0.0
C117 C 0.42871 0.69586 0.31272 0.0
O118 O 0.39791 0.69439 0.32537 0.0
N119 N 0.38586 0.58297 0.37501 0.0
C120 C 0.32828 0.54673 0.41821 0.0
C121 C 0.35444 0.54237 0.48198 0.0
C122 C 0.38322 0.5606 0.45862 0.0
C123 C 0.36042 0.58764 0.31343 0.0
C124 C 0.33186 0.56891 0.33187 0.0
H125 H 0.4025 0.55912 0.51127 0.0
H126 H 0.36186 0.60758 0.25157 0.0
H127 H 0.45337 0.63291 0.55877 0.0
H128 H 0.36139 0.65083 0.66646 0.0
H129 H 0.41296 0.54344 0.0313 0.0
H130 H 0.35228 0.52622 0.55071 0.0
H131 H 0.31208 0.5735 0.28181 0.0
C132 C 0.89298 0.88151 0.05522 0.0
C133 C 0.8981 0.88138 0.15645 0.0
N134 N 0.92723 0.89565 0.17401 0.0
N135 N 0.91866 0.89616 1.00895 0.0
C136 C 0.9395 0.90361 0.08344 0.0
H137 H 0.87116 0.87364 1.01816 0.0
Co138 Co 0.91985 0.91127 0.87463 0.0
C139 C 0.96077 0.98208 0.88052 0.0
O140 O 0.94367 1.00001 0.81324 0.0
N141 N 0.92145 0.9268 0.7366 0.0
C142 C 0.90832 0.94768 0.58508 0.0
C143 C 0.90038 0.94791 0.68371 0.0
C144 C 0.94312 0.91607 0.66692 0.0
N145 N 0.93507 0.9273 0.57331 0.0
O146 O 0.94936 0.87066 0.84641 0.0
H147 H 0.88025 0.96313 0.71275 0.0
H148 H 0.9646 0.90096 0.68549 0.0
O149 O 0.95369 0.94775 0.90722 0.0
C150 C 0.93242 0.84059 0.83141 0.0
O151 O 0.90172 0.843 0.84539 0.0
N152 N 0.88722 0.94614 0.90219 0.0
C153 C 0.83011 0.98297 0.94415 0.0
C154 C 0.85852 0.99568 0.9884 0.0
C155 C 0.88705 0.97668 0.96632 0.0
C156 C 0.85943 0.9316 0.86646 0.0
C157 C 0.83092 0.95038 0.88293 0.0
H158 H 0.90848 0.98526 1.00398 0.0
H159 H 0.85963 0.90553 0.82225 0.0
H160 H 0.96243 0.91692 0.0727 0.0
H161 H 0.88129 0.87298 0.21327 0.0
H162 H 0.89504 0.96123 0.52554 0.0
H163 H 0.85857 0.01979 0.03962 0.0
H164 H 0.80949 0.93904 0.8494 0.0
C165 C 0.64597 0.15996 0.03505 0.0
C166 C 0.64607 0.1634 0.13732 0.0
N167 N 0.6208 0.14424 0.17321 0.0
N168 N 0.62051 0.13915 1.00609 0.0
C169 C 0.60538 0.13054 0.09247 0.0
H170 H 0.66468 0.16941 0.98589 0.0
Co171 Co 0.61341 0.11933 0.87624 0.0
C172 C 0.57281 0.05195 0.94845 0.0
O173 O 0.59482 0.02608 0.93264 0.0
N174 N 0.6056 0.09947 0.74559 0.0
C175 C 0.60208 0.06121 0.61201 0.0
C176 C 0.60419 0.06237 0.71435 0.0
C177 C 0.60367 0.12006 0.66007 0.0
N178 N 0.60209 0.09767 0.57813 0.0
O179 O 0.58535 0.16243 0.84753 0.0
H180 H 0.60711 0.03743 0.76113 0.0
H181 H 0.60423 0.15083 0.65682 0.0
O182 O 0.57777 0.08763 0.92801 0.0
C183 C 0.6016 0.19272 0.82673 0.0
O184 O 0.63255 0.19068 0.83352 0.0
N185 N 0.64516 0.0814 0.89969 0.0
C186 C 0.70376 0.04615 0.93553 0.0
C187 C 0.68024 0.04645 1.00906 0.0
C188 C 0.651 0.06393 0.98933 0.0
C189 C 0.66807 0.08127 0.82793 0.0
C190 C 0.69695 0.06282 0.84304 0.0
H191 H 0.6339 0.0653 0.04843 0.0
H192 H 0.66492 0.09763 0.76014 0.0
H193 H 0.585 0.11175 0.09773 0.0
H194 H 0.66469 0.176 0.18235 0.0
H195 H 0.6028 0.03568 0.56568 0.0
H196 H 0.68482 0.03441 0.08213 0.0
H197 H 0.71469 0.06373 0.78488 0.0
C198 C 0.88351 0.65848 0.51582 0.0
C199 C 0.88212 0.6626 0.41376 0.0
N200 N 0.90499 0.64059 0.37405 0.0
N201 N 0.90728 0.63421 0.54 0.0
C202 C 0.91986 0.62382 0.45142 0.0
H203 H 0.8674 0.67125 0.56876 0.0
Co204 Co 0.91662 0.61708 0.66957 0.0
C205 C 0.95666 0.54839 0.59677 0.0
O206 O 0.93433 0.52258 0.61124 0.0
N207 N 0.9259 0.60099 0.8012 0.0
C208 C 0.93552 0.56598 0.93738 0.0
C209 C 0.93457 0.5658 0.83492 0.0
C210 C 0.9216 0.62199 0.88517 0.0
N211 N 0.9273 0.60136 0.96836 0.0
O212 O 0.94653 0.65883 0.68373 0.0
H213 H 0.93808 0.54074 0.78938 0.0
H214 H 0.91267 0.65115 0.88626 0.0
O215 O 0.95127 0.58379 0.61791 0.0
C216 C 0.93191 0.68905 0.71196 0.0
O217 O 0.9012 0.68701 0.72596 0.0
N218 N 0.8839 0.57938 0.65832 0.0
C219 C 0.82425 0.5447 0.63828 0.0
C220 C 0.84671 0.54182 0.56191 0.0
C221 C 0.87644 0.55942 0.57334 0.0
C222 C 0.86208 0.58197 0.73303 0.0
C223 C 0.83256 0.56421 0.72551 0.0
H224 H 0.89264 0.55871 0.51137 0.0
H225 H 0.86638 0.60029 0.79652 0.0
H226 H 0.93799 0.60232 0.44232 0.0
H227 H 0.86488 0.67899 0.37175 0.0
H228 H 0.94022 0.5416 0.98557 0.0
H229 H 0.84083 0.52748 0.49262 0.0
H230 H 0.81556 0.56768 0.78517 0.0
C231 C 0.64047 0.3919 0.53928 0.0
C232 C 0.63998 0.39029 0.43709 0.0
N233 N 0.61027 0.3976 0.40574 0.0
N234 N 0.61139 0.4014 0.57217 0.0
C235 C 0.5932 0.40284 0.48949 0.0
H236 H 0.66128 0.38986 0.58602 0.0
Co237 Co 0.60282 0.41934 0.70005 0.0
C238 C 0.56225 0.48903 0.64133 0.0
O239 O 0.58381 0.51401 0.66964 0.0
N240 N 0.59458 0.4372 0.83098 0.0
C241 C 0.59822 0.47223 0.96963 0.0
C242 C 0.59967 0.47305 0.86772 0.0
C243 C 0.58913 0.41547 0.91306 0.0
N244 N 0.5918 0.43591 0.99815 0.0
O245 O 0.5728 0.37746 0.71669 0.0
H246 H 0.60748 0.49764 0.82528 0.0
H247 H 0.58602 0.38465 0.91212 0.0
O248 O 0.5686 0.45298 0.6472 0.0
C249 C 0.58867 0.34768 0.74182 0.0
O250 O 0.6193 0.3516 0.75598 0.0
N251 N 0.63557 0.45636 0.68438 0.0
C252 C 0.69471 0.49053 0.65267 0.0
C253 C 0.66989 0.49622 0.58464 0.0
C254 C 0.64041 0.47875 0.60178 0.0
C255 C 0.65965 0.45071 0.75076 0.0
C256 C 0.68908 0.46817 0.73754 0.0
H257 H 0.62231 0.48088 0.54524 0.0
H258 H 0.65656 0.43077 0.81199 0.0
H259 H 0.56849 0.41049 0.48971 0.0
H260 H 0.66028 0.38631 0.3891 0.0
H261 H 0.60348 0.49597 1.01943 0.0
H262 H 0.67371 0.51265 0.51706 0.0
H263 H 0.70788 0.46259 0.7906 0.0
C264 C 0.2872 0.0444 0.13374 0.0
C265 C 0.29352 1.00444 0.12308 0.0
C266 C 0.23647 0.99094 0.11424 0.0
C267 C 0.23022 0.03104 0.12101 0.0
N268 N 0.24975 0.09633 0.10849 0.0
N269 N 0.27482 0.94125 0.07583 0.0
C270 C 0.25568 0.05791 0.12157 0.0
C271 C 0.2683 0.9782 0.10451 0.0
N272 N 0.31091 0.06924 0.16041 0.0
N273 N 0.21226 0.9649 0.1219 0.0
H274 H 0.29787 0.93122 0.0659 0.0
H275 H 0.2575 0.92186 0.05219 0.0
H276 H 0.18865 0.97302 0.12974 0.0
H277 H 0.21584 0.9353 0.12868 0.0
H278 H 0.30689 0.09786 0.18024 0.0
H279 H 0.33428 0.06056 0.17089 0.0
H280 H 0.26755 0.11682 0.09873 0.0
H281 H 0.22701 0.10717 0.09702 0.0
C282 C 0.23899 0.54343 0.44144 0.0
C283 C 0.23318 0.50317 0.44835 0.0
C284 C 0.29042 0.49093 0.4482 0.0
C285 C 0.29622 0.53123 0.4434 0.0
N286 N 0.27625 0.59549 0.47041 0.0
N287 N 0.25326 0.44034 0.49205 0.0
C288 C 0.2705 0.55736 0.45189 0.0
C289 C 0.25895 0.47752 0.46324 0.0
N290 N 0.215 0.56826 0.41853 0.0
N291 N 0.31442 0.46534 0.43231 0.0
H292 H 0.23047 0.43002 0.5061 0.0
H293 H 0.27119 0.42127 0.51221 0.0
H294 H 0.33769 0.47379 0.41866 0.0
H295 H 0.31068 0.43578 0.42423 0.0
H296 H 0.21879 0.59727 0.40189 0.0
H297 H 0.19168 0.55939 0.40753 0.0
H298 H 0.25836 0.61523 0.48581 0.0
H299 H 0.29907 0.60637 0.48112 0.0
C300 C 0.76268 0.05659 0.94275 0.0
C301 C 0.73639 0.03147 0.95605 0.0
C302 C 0.77322 0.97942 0.99778 0.0
C303 C 0.79893 1.00206 0.96232 0.0
N304 N 0.81692 0.06182 0.88787 0.0
N305 N 0.71707 0.96672 0.98519 0.0
C306 C 0.79349 0.04077 0.93229 0.0
C307 C 0.7417 0.9923 0.98182 0.0
N308 N 0.75829 0.09562 0.94131 0.0
N309 N 0.77898 0.94566 0.04702 0.0
H310 H 0.69372 0.97445 0.97023 0.0
H311 H 0.72026 0.9371 0.99354 0.0
H312 H 0.80187 0.93607 0.06242 0.0
H313 H 0.76124 0.92962 0.08166 0.0
H314 H 0.777 0.11526 0.94036 0.0
H315 H 0.73618 0.10826 0.95243 0.0
H316 H 0.81292 0.08868 0.85532 0.0
H317 H 0.83957 0.05118 0.87499 0.0
C318 C 0.76598 0.55785 0.62308 0.0
C319 C 0.79107 0.53063 0.62541 0.0
C320 C 0.75218 0.4781 0.61692 0.0
C321 C 0.7274 0.50504 0.63285 0.0
N322 N 0.71098 0.57077 0.66085 0.0
N323 N 0.80814 0.46434 0.63379 0.0
C324 C 0.7343 0.54507 0.63758 0.0
C325 C 0.78423 0.49055 0.6238 0.0
N326 N 0.77245 0.59589 0.60532 0.0
N327 N 0.74502 0.44072 0.59348 0.0
H328 H 0.8319 0.47224 0.63926 0.0
H329 H 0.80421 0.43495 0.64457 0.0
H330 H 0.72179 0.43084 0.58579 0.0
H331 H 0.76195 0.42062 0.57183 0.0
H332 H 0.75495 0.6165 0.59337 0.0
H333 H 0.79533 0.60611 0.59236 0.0
H334 H 0.71539 0.59971 0.6765 0.0
H335 H 0.68751 0.56262 0.67254 0.0
C336 C 0.98375 0.03262 0.99538 0.0
C337 C 0.98845 1.00177 0.92737 0.0
C338 C 0.04588 1.00712 0.95314 0.0
C339 C 0.04086 0.03401 0.03162 0.0
N340 N 1.00401 0.06763 0.13796 0.0
N341 N 0.02389 0.9574 0.8463 0.0
C342 C 1.00953 0.04575 0.05517 0.0
C343 C 0.0195 0.98827 0.90804 0.0
N344 N 0.95474 0.04971 1.00276 0.0
N345 N 0.07577 1.001 0.91789 0.0
H346 H 1.00555 0.94451 0.80612 0.0
H347 H 0.04544 0.94311 0.83946 0.0
H348 H 0.09563 1.01509 0.94608 0.0
H349 H 0.08058 0.98503 0.85403 0.0
H350 H 0.95079 0.07482 0.0434 0.0
H351 H 0.93526 0.0412 0.96054 0.0
H352 H 0.98141 0.07302 0.16549 0.0
H353 H 0.0219 0.07745 0.18502 0.0
C354 C 0.48478 0.03288 0.99647 0.0
C355 C 0.48648 1.00876 0.08218 0.0
C356 C 0.54396 0.01942 0.0894 0.0
C357 C 0.54273 0.0393 0.99679 0.0
N358 N 0.51235 0.05991 0.85422 0.0
N359 N 0.51811 0.97665 0.20699 0.0
C360 C 0.51321 0.04495 0.94845 0.0
C361 C 0.51624 1.0011 0.1272 0.0
N362 N 0.45603 0.04458 0.96092 0.0
N363 N 0.57126 0.01986 0.14425 0.0
H364 H 0.49833 0.96498 0.24229 0.0
H365 H 0.53943 0.96604 0.23466 0.0
H366 H 0.59167 0.03413 0.12116 0.0
H367 H 0.5728 1.00964 0.21703 0.0
H368 H 0.45347 0.06588 0.90677 0.0
H369 H 0.43457 0.03481 0.9895 0.0
H370 H 0.49196 0.0604 0.81051 0.0
H371 H 0.53256 0.06877 0.81597 0.0
C372 C 0.0251 0.53418 0.41482 0.0
C373 C 0.03671 0.49743 0.44448 0.0
C374 C 0.99927 0.49802 0.58491 0.0
C375 C 0.98791 0.53487 0.55547 0.0
N376 N 0.99988 0.59346 0.46428 0.0
N377 N 0.02491 0.43886 0.53723 0.0
C378 C 1.00355 0.55463 0.47672 0.0
C379 C 0.02116 0.47767 0.52384 0.0
N380 N 0.03274 0.54836 0.32289 0.0
N381 N 0.9908 0.48351 0.67575 0.0
H382 H 0.03713 0.42108 0.48868 0.0
H383 H 1.01169 0.4229 0.58814 0.0
H384 H 0.97669 0.4988 0.7255 0.0
H385 H 1.00111 0.45909 0.70724 0.0
H386 H 0.02242 0.57299 0.29254 0.0
H387 H 0.04591 0.53259 0.27144 0.0
H388 H 1.01292 0.6095 0.41301 0.0
H389 H 0.98772 0.61084 0.51411 0.0
C390 C 0.50676 0.56225 0.52383 0.0
C391 C 0.48976 0.53961 0.45354 0.0
C392 C 0.51576 0.48136 0.51959 0.0
C393 C 0.53282 0.50398 0.58977 0.0
N394 N 0.53231 0.56301 0.68477 0.0
N395 N 0.49086 0.48071 0.35784 0.0
C396 C 0.52484 0.54366 0.59931 0.0
C397 C 0.49791 0.49999 0.44375 0.0
N398 N 0.5085 0.60136 0.51357 0.0
N399 N 0.51376 0.44229 0.53007 0.0
H400 H 0.48154 0.49462 0.29545 0.0
H401 H 0.49879 0.4528 0.34344 0.0
H402 H 0.52157 0.42789 0.5935 0.0
H403 H 0.49968 0.42508 0.48417 0.0
H404 H 0.52253 0.61868 0.5593 0.0
H405 H 0.50043 0.61574 0.45039 0.0
H406 H 0.52443 0.59091 0.69952 0.0
H407 H 0.5421 0.5492 0.74661 0.0
C408 C 0.13157 0.10599 0.71333 0.0
C409 C 0.11311 0.13417 0.76285 0.0
C410 C 0.0802 0.14188 0.61347 0.0
C411 C 0.10013 0.11595 0.56188 0.0
N412 N 0.14681 0.07671 0.55625 0.0
N413 N 0.07262 0.18254 0.75896 0.0
C414 C 0.12651 0.09907 0.61005 0.0
C415 C 0.08815 0.15317 0.7124 0.0
N416 N 0.15286 0.08464 0.76646 0.0
N417 N 0.0532 0.15462 0.56842 0.0
H418 H 0.07814 0.19114 0.83139 0.0
H419 H 0.05606 0.20012 0.72386 0.0
H420 H 0.04695 0.1464 0.49628 0.0
H421 H 0.03598 0.17087 0.60438 0.0
H422 H 0.16485 0.06099 0.73748 0.0
H423 H 0.15669 0.08864 0.84246 0.0
H424 H 0.1683 0.06661 0.58381 0.0
H425 H 0.14314 0.07051 0.48108 0.0
C426 C 0.41403 0.8887 0.61192 0.0
C427 C 0.4314 0.922 0.5827 0.0
C428 C 0.43854 0.93934 0.75725 0.0
C429 C 0.42357 0.90437 0.78689 0.0
N430 N 0.40713 0.84034 0.74018 0.0
N431 N 0.46916 0.97088 0.62874 0.0
C432 C 0.41485 0.87711 0.71321 0.0
C433 C 0.44692 0.94434 0.65608 0.0
N434 N 0.39461 0.86999 0.54642 0.0
N435 N 0.44211 0.96934 0.82196 0.0
H436 H 0.47627 0.97425 0.55482 0.0
H437 H 0.48279 0.98606 0.68046 0.0
H438 H 0.43288 0.96933 0.89359 0.0
H439 H 0.45053 0.99625 0.7995 0.0
H440 H 0.3797 0.84749 0.56796 0.0
H441 H 0.39033 0.8797 0.47433 0.0
H442 H 0.40274 0.81861 0.68824 0.0
H443 H 0.40877 0.83082 0.81379 0.0
C444 C 0.13745 0.41516 0.80193 0.0
C445 C 0.10989 0.40318 0.75016 0.0
C446 C 0.07763 0.41921 0.89655 0.0
C447 C 0.10559 0.42779 0.95067 0.0
N448 N 0.16241 0.42504 0.96225 0.0
N449 N 0.05423 0.38904 0.75021 0.0
C450 C 0.13562 0.42318 0.9054 0.0
C451 C 0.08002 0.40392 0.79814 0.0
N452 N 0.16507 0.42063 0.75113 0.0
N453 N 0.04892 0.42669 0.93864 0.0
H454 H 0.05561 0.3774 0.6787 0.0
H455 H 0.03219 0.38557 0.78359 0.0
H456 H 0.04678 0.43773 1.0106 0.0
H457 H 0.02755 0.42465 0.90026 0.0
H458 H 0.18517 0.43295 0.78316 0.0
H459 H 0.16689 0.41667 0.67437 0.0
H460 H 0.1848 0.41831 0.93503 0.0
H461 H 0.16187 0.42931 0.03909 0.0
C462 C 0.44709 0.59673 0.87811 0.0
C463 C 0.42908 0.61585 0.9516 0.0
C464 C 0.4093 0.65979 0.82419 0.0
C465 C 0.42168 0.63589 0.74824 0.0
N466 N 0.44743 0.57515 0.70772 0.0
N467 N 0.38522 0.65823 0.98617 0.0
C468 C 0.43975 0.60277 0.77585 0.0
C469 C 0.40822 0.64576 0.92295 0.0
N470 N 0.47068 0.57222 0.90622 0.0
N471 N 0.39816 0.69565 0.80181 0.0
H472 H 0.38117 0.64551 0.05535 0.0
H473 H 0.36791 0.67795 0.96455 0.0
H474 H 0.40001 0.70735 0.73039 0.0
H475 H 0.39062 0.7149 0.85649 0.0
H476 H 0.48627 0.55976 0.85554 0.0
H477 H 0.47648 0.56766 0.98091 0.0
H478 H 0.45825 0.54924 0.7273 0.0
H479 H 0.43973 0.5755 0.63434 0.0
C480 C 0.946 0.87293 0.33787 0.0
C481 C 0.94036 0.9039 0.27124 0.0
C482 C 0.95011 0.94977 0.40691 0.0
C483 C 0.94877 0.9191 0.47623 0.0
N484 N 0.96128 0.85217 0.50356 0.0
N485 N 0.93775 0.97245 0.24065 0.0
C486 C 0.95159 0.88068 0.44077 0.0
C487 C 0.94368 0.94262 0.30447 0.0
N488 N 0.94467 0.83603 0.30246 0.0
N489 N 0.9568 0.98589 0.44141 0.0
H490 H 0.932 0.96847 0.16603 0.0
H491 H 0.93652 1.00118 0.26269 0.0
H492 H 0.96156 0.9908 0.51677 0.0
H493 H 0.96064 1.00967 0.39559 0.0
H494 H 0.94428 0.81161 0.34752 0.0
H495 H 0.94286 0.82999 0.22649 0.0
H496 H 0.96599 0.82404 0.48124 0.0
H497 H 0.96836 0.85753 0.57617 0.0
C498 C 0.63529 0.10082 0.42683 0.0
C499 C 0.60671 0.11001 0.47631 0.0
C500 C 0.58853 0.145 0.32757 0.0
C501 C 0.61578 0.1325 0.2754 0.0
N502 N 0.66158 0.09129 0.269 0.0
N503 N 0.55445 0.13695 0.4721 0.0
C504 C 0.6382 0.10836 0.32331 0.0
C505 C 0.58282 0.13114 0.42614 0.0
N506 N 0.6602 0.08638 0.47987 0.0
N507 N 0.56868 0.17094 0.28352 0.0
H508 H 0.54985 0.12699 0.54399 0.0
H509 H 0.53486 0.149 0.43682 0.0
H510 H 0.57253 0.18149 0.21173 0.0
H511 H 0.54993 0.18412 0.32031 0.0
H512 H 0.68269 0.08264 0.44973 0.0
H513 H 0.65932 0.08197 0.55664 0.0
H514 H 0.67662 0.07029 0.29792 0.0
H515 H 0.66391 0.09517 0.19246 0.0
C516 C 0.93687 0.64714 0.22117 0.0
C517 C 0.90992 0.63208 0.27033 0.0
C518 C 0.8928 0.60037 0.11632 0.0
C519 C 0.92104 0.61279 0.06945 0.0
N520 N 0.97161 0.64422 0.07713 0.0
N521 N 0.8648 0.58969 0.27157 0.0
C522 C 0.94354 0.63532 0.12187 0.0
C523 C 0.88846 0.60749 0.21961 0.0
N524 N 0.95561 0.6733 0.26948 0.0
N525 N 0.86992 0.58247 0.06104 0.0
H526 H 0.86135 0.59397 0.34762 0.0
H527 H 0.85025 0.56837 0.2415 0.0
H528 H 0.87259 0.57689 0.98521 0.0
H529 H 0.84744 0.57599 0.08806 0.0
H530 H 0.97415 0.68816 0.2357 0.0
H531 H 0.9511 0.68217 0.34231 0.0
H532 H 0.99044 0.6576 0.11354 0.0
H533 H 0.97681 0.63581 1.00442 0.0
C534 C 0.58385 0.43778 0.27469 0.0
C535 C 0.60078 0.40407 0.30352 0.0
C536 C 0.61171 0.3905 0.12838 0.0
C537 C 0.59227 0.42199 0.09954 0.0
N538 N 0.55171 0.46707 0.14609 0.0
N539 N 0.62098 0.34202 0.25454 0.0
C540 C 0.57545 0.4426 0.17324 0.0
C541 C 0.6113 0.37821 0.22904 0.0
N542 N 0.57811 0.46683 0.34075 0.0
N543 N 0.63253 0.37432 0.06313 0.0
H544 H 0.61952 0.33173 0.32748 0.0
H545 H 0.6268 0.32118 0.20169 0.0
H546 H 0.63654 0.38512 0.99194 0.0
H547 H 0.64875 0.35324 0.0845 0.0
H548 H 0.56793 0.49297 0.31971 0.0
H549 H 0.58702 0.46724 0.41286 0.0
H550 H 0.53727 0.48088 0.19777 0.0
H551 H 0.54434 0.46995 0.07222 0.0
C552 C 0.08512 0.25499 0.12922 0.0
C553 C 0.07677 0.22944 0.20609 0.0
C554 C 0.06859 0.28448 0.31825 0.0
C555 C 0.08474 0.30866 0.24899 0.0
N556 N 0.11054 0.31505 0.08787 0.0
N557 N 0.05747 0.21851 0.37104 0.0
C558 C 0.09297 0.29369 0.15325 0.0
C559 C 0.06675 0.24397 0.29918 0.0
N560 N 0.08713 0.2414 0.03404 0.0
N561 N 0.05641 0.29972 0.40373 0.0
H562 H 0.05462 0.18918 0.35567 0.0
H563 H 0.05357 0.22601 0.44504 0.0
H564 H 0.05827 0.32882 0.42204 0.0
H565 H 0.04234 0.28415 0.45309 0.0
H566 H 0.09068 0.25912 0.97231 0.0
H567 H 0.08174 0.21275 1.01674 0.0
H568 H 0.11996 0.30384 0.02239 0.0
H569 H 0.11838 0.34289 0.10218 0.0
C570 C 0.46476 0.79638 0.31187 0.0
C571 C 0.45083 0.81094 0.22361 0.0
C572 C 0.43127 0.74707 0.18025 0.0
C573 C 0.44252 0.73243 0.27301 0.0
N574 N 0.47635 0.74047 0.41618 0.0
N575 N 0.43384 0.79827 0.05709 0.0
C576 C 0.46191 0.75612 0.33461 0.0
C577 C 0.43905 0.78523 0.15162 0.0
N578 N 0.47939 0.82154 0.37506 0.0
N579 N 0.41092 0.72586 0.12314 0.0
H580 H 0.43954 0.82648 0.03649 0.0
H581 H 0.42739 0.78036 0.9981 0.0
H582 H 0.40338 0.69838 0.14291 0.0
H583 H 0.39931 0.73682 0.06078 0.0
H584 H 0.48715 0.81445 0.44632 0.0
H585 H 0.48373 0.85008 0.35423 0.0
H586 H 0.49215 0.75542 0.46152 0.0
H587 H 0.47403 0.7114 0.43497 0.0
C588 C 0.96229 0.77801 0.84058 0.0
C589 C 0.94463 0.80498 0.78364 0.0
C590 C 0.93661 0.75593 0.65453 0.0
C591 C 0.9471 0.72742 0.72153 0.0
N592 N 0.97301 0.71014 0.87412 0.0
N593 N 0.91354 0.81911 0.63661 0.0
C594 C 0.9617 0.73822 0.81245 0.0
C595 C 0.93201 0.79404 0.68943 0.0
N596 N 0.97828 0.7902 0.92323 0.0
N597 N 0.92999 0.74588 0.55842 0.0
H598 H 0.91027 0.84776 0.65745 0.0
H599 H 0.9004 0.81104 0.57425 0.0
H600 H 0.93361 0.71784 0.53251 0.0
H601 H 0.92431 0.76582 0.50316 0.0
H602 H 0.99325 0.77261 0.9648 0.0
H603 H 0.97842 0.81901 0.9457 0.0
H604 H 0.98068 0.7151 0.94669 0.0
H605 H 0.9739 0.68128 0.85218 0.0
C606 C 0.56731 0.25195 0.85229 0.0
C607 C 0.5875 0.22966 0.78975 0.0
C608 C 0.58799 0.28317 0.66955 0.0
C609 C 0.57562 0.30786 0.74238 0.0
N610 N 0.5485 0.31626 0.8968 0.0
N611 N 0.62044 0.22769 0.64065 0.0
C612 C 0.56307 0.29215 0.83118 0.0
C613 C 0.59827 0.24589 0.69771 0.0
N614 N 0.55346 0.23533 0.93358 0.0
N615 N 0.59164 0.29657 0.57467 0.0
H616 H 0.63122 0.2019 0.65987 0.0
H617 H 0.63098 0.24047 0.57874 0.0
H618 H 0.58427 0.32423 0.55455 0.0
H619 H 0.59836 0.27908 0.51527 0.0
H620 H 0.53676 0.24916 0.97772 0.0
H621 H 0.55709 0.20665 0.95361 0.0
H622 H 0.54211 0.3085 0.9689 0.0
H623 H 0.54314 0.3447 0.87761 0.0
loop_
_geom_bond_atom_site_label_1
_geom_bond_atom_site_label_2
_geom_bond_distance
_geom_bond_site_symmetry_2
_ccdc_geom_bond_type
C0 C1 1.351 . S
C0 N3 1.368 . S
C0 H5 0.931 . S
C1 C0 1.351 . S
C1 N2 1.373 . S
C1 H29 0.930 . S
N2 C1 1.373 . S
N2 C4 1.340 . S
N3 C0 1.368 . S
N3 C4 1.321 . S
N3 Co6 2.135 1_556 S
C4 N2 1.340 . S
C4 N3 1.321 . S
C4 H28 0.930 . S
H5 C0 0.931 . S
Co6 N3 2.135 1_554 S
Co6 N9 2.121 . S
Co6 O14 2.055 . S
Co6 O17 2.039 . S
Co6 N20 2.140 . S
C7 O8 1.227 . S
C7 O17 1.265 . S
O8 C7 1.227 . S
N9 Co6 2.121 . S
N9 C11 1.375 . S
N9 C12 1.313 . S
C10 C11 1.338 . S
C10 N13 1.377 . S
C10 H30 0.930 . S
C11 N9 1.375 . S
C11 C10 1.338 . S
C11 H15 0.931 . S
C12 N9 1.313 . S
C12 N13 1.344 . S
C12 H16 0.930 . S
N13 C10 1.377 . S
N13 C12 1.344 . S
O14 Co6 2.055 . S
O14 C18 1.253 . S
H15 C11 0.931 . S
H16 C12 0.930 . S
O17 Co6 2.039 . S
O17 C7 1.265 . S
C18 O14 1.253 . S
C18 O19 1.227 . S
O19 C18 1.227 . S
N20 Co6 2.140 . S
N20 C23 1.346 . S
N20 C24 1.345 . S
C21 C22 1.387 . S
C21 C25 1.391 . S
C22 C21 1.387 . S
C22 C23 1.369 . S
C22 H31 0.929 1_554 S
C23 N20 1.346 . S
C23 C22 1.369 . S
C23 H26 0.928 1_554 S
C24 N20 1.345 . S
C24 C25 1.371 . S
C24 H27 0.931 . S
C25 C21 1.391 . S
C25 C24 1.371 . S
C25 H32 0.930 . S
H26 C23 0.928 1_556 S
H27 C24 0.931 . S
H28 C4 0.930 . S
H29 C1 0.930 . S
H30 C10 0.930 . S
H31 C22 0.929 1_556 S
H32 C25 0.930 . S
C33 C34 1.351 . S
C33 N36 1.368 . S
C33 H38 0.931 . S
C34 C33 1.351 . S
C34 N35 1.373 . S
C34 H62 0.930 . S
N35 C34 1.373 . S
N35 C37 1.340 . S
N36 C33 1.368 . S
N36 C37 1.321 . S
N36 Co39 2.135 1_556 S
C37 N35 1.340 . S
C37 N36 1.321 . S
C37 H61 0.930 . S
H38 C33 0.931 . S
Co39 N36 2.135 1_554 S
Co39 N42 2.121 . S
Co39 O47 2.055 . S
Co39 O50 2.039 . S
Co39 N53 2.140 . S
C40 O41 1.227 . S
C40 O50 1.265 . S
O41 C40 1.227 . S
N42 Co39 2.121 . S
N42 C44 1.375 . S
N42 C45 1.313 . S
C43 C44 1.338 . S
C43 N46 1.377 . S
C43 H63 0.930 . S
C44 N42 1.375 . S
C44 C43 1.338 . S
C44 H48 0.931 . S
C45 N42 1.313 . S
C45 N46 1.344 . S
C45 H49 0.930 . S
N46 C43 1.377 . S
N46 C45 1.344 . S
O47 Co39 2.055 . S
O47 C51 1.253 . S
H48 C44 0.931 . S
H49 C45 0.930 . S
O50 Co39 2.039 . S
O50 C40 1.265 . S
C51 O47 1.253 . S
C51 O52 1.227 . S
O52 C51 1.227 . S
N53 Co39 2.140 . S
N53 C56 1.346 . S
N53 C57 1.345 . S
C54 C55 1.387 . S
C54 C58 1.391 . S
C55 C54 1.387 . S
C55 C56 1.369 . S
C55 H64 0.929 1_554 S
C56 N53 1.346 . S
C56 C55 1.369 . S
C56 H59 0.928 1_554 S
C57 N53 1.345 . S
C57 C58 1.371 . S
C57 H60 0.931 . S
C58 C54 1.391 . S
C58 C57 1.371 . S
C58 H65 0.930 . S
H59 C56 0.928 1_556 S
H60 C57 0.931 . S
H61 C37 0.930 . S
H62 C34 0.930 . S
H63 C43 0.930 . S
H64 C55 0.929 1_556 S
H65 C58 0.930 . S
C66 C67 1.351 . S
C66 N69 1.368 . S
C66 H71 0.931 . S
C67 C66 1.351 . S
C67 N68 1.373 . S
C67 H95 0.930 . S
N68 C67 1.373 . S
N68 C70 1.340 . S
N69 C66 1.368 . S
N69 C70 1.321 . S
N69 Co72 2.135 . S
C70 N68 1.340 . S
C70 N69 1.321 . S
C70 H94 0.930 . S
H71 C66 0.931 . S
Co72 N69 2.135 . S
Co72 N75 2.121 . S
Co72 O80 2.055 . S
Co72 O83 2.039 . S
Co72 N86 2.140 . S
C73 O74 1.227 . S
C73 O83 1.265 . S
O74 C73 1.227 . S
N75 Co72 2.121 . S
N75 C77 1.375 . S
N75 C78 1.313 . S
C76 C77 1.338 . S
C76 N79 1.377 . S
C76 H96 0.930 . S
C77 N75 1.375 . S
C77 C76 1.338 . S
C77 H81 0.931 . S
C78 N75 1.313 . S
C78 N79 1.344 . S
C78 H82 0.930 . S
N79 C76 1.377 . S
N79 C78 1.344 . S
O80 Co72 2.055 . S
O80 C84 1.253 . S
H81 C77 0.931 . S
H82 C78 0.930 . S
O83 Co72 2.039 . S
O83 C73 1.265 . S
C84 O80 1.253 . S
C84 O85 1.227 . S
O85 C84 1.227 . S
N86 Co72 2.140 . S
N86 C89 1.346 . S
N86 C90 1.345 . S
C87 C88 1.387 . S
C87 C91 1.391 . S
C88 C87 1.387 . S
C88 C89 1.369 . S
C88 H97 0.929 . S
C89 N86 1.346 . S
C89 C88 1.369 . S
C89 H92 0.928 . S
C90 N86 1.345 . S
C90 C91 1.371 . S
C90 H93 0.931 . S
C91 C87 1.391 . S
C91 C90 1.371 . S
C91 H98 0.930 . S
H92 C89 0.928 . S
H93 C90 0.931 . S
H94 C70 0.930 . S
H95 C67 0.930 . S
H96 C76 0.930 . S
H97 C88 0.929 . S
H98 C91 0.930 . S
C99 C100 1.351 . S
C99 N102 1.368 . S
C99 H104 0.931 . S
C100 C99 1.351 . S
C100 N101 1.373 . S
C100 H128 0.930 . S
N101 C100 1.373 . S
N101 C103 1.340 . S
N102 C99 1.368 . S
N102 C103 1.321 . S
N102 Co105 2.135 . S
C103 N101 1.340 . S
C103 N102 1.321 . S
C103 H127 0.930 . S
H104 C99 0.931 . S
Co105 N102 2.135 . S
Co105 N108 2.121 . S
Co105 O113 2.055 . S
Co105 O116 2.039 . S
Co105 N119 2.140 . S
C106 O107 1.227 . S
C106 O116 1.265 . S
O107 C106 1.227 . S
N108 Co105 2.121 . S
N108 C110 1.375 . S
N108 C111 1.313 . S
C109 C110 1.338 . S
C109 N112 1.377 . S
C109 H129 0.930 . S
C110 N108 1.375 . S
C110 C109 1.338 . S
C110 H114 0.931 . S
C111 N108 1.313 . S
C111 N112 1.344 . S
C111 H115 0.930 . S
N112 C109 1.377 . S
N112 C111 1.344 . S
O113 Co105 2.055 . S
O113 C117 1.253 . S
H114 C110 0.931 . S
H115 C111 0.930 . S
O116 Co105 2.039 . S
O116 C106 1.265 . S
C117 O113 1.253 . S
C117 O118 1.227 . S
O118 C117 1.227 . S
N119 Co105 2.140 . S
N119 C122 1.346 . S
N119 C123 1.345 . S
C120 C121 1.387 . S
C120 C124 1.391 . S
C121 C120 1.387 . S
C121 C122 1.369 . S
C121 H130 0.929 . S
C122 N119 1.346 . S
C122 C121 1.369 . S
C122 H125 0.928 . S
C123 N119 1.345 . S
C123 C124 1.371 . S
C123 H126 0.931 . S
C124 C120 1.391 . S
C124 C123 1.371 . S
C124 H131 0.930 . S
H125 C122 0.928 . S
H126 C123 0.931 . S
H127 C103 0.930 . S
H128 C100 0.930 . S
H129 C109 0.930 . S
H130 C121 0.929 . S
H131 C124 0.930 . S
C132 C133 1.351 . S
C132 N135 1.368 . S
C132 H137 0.931 . S
C133 C132 1.351 . S
C133 N134 1.373 . S
C133 H161 0.930 . S
N134 C133 1.373 . S
N134 C136 1.340 . S
N135 C132 1.368 . S
N135 C136 1.321 . S
N135 Co138 2.135 1_554 S
C136 N134 1.340 . S
C136 N135 1.321 . S
C136 H160 0.930 . S
H137 C132 0.931 . S
Co138 N135 2.135 1_556 S
Co138 N141 2.121 . S
Co138 O146 2.055 . S
Co138 O149 2.039 . S
Co138 N152 2.140 . S
C139 O140 1.227 . S
C139 O149 1.265 . S
O140 C139 1.227 . S
N141 Co138 2.121 . S
N141 C143 1.375 . S
N141 C144 1.313 . S
C142 C143 1.338 . S
C142 N145 1.377 . S
C142 H162 0.930 . S
C143 N141 1.375 . S
C143 C142 1.338 . S
C143 H147 0.931 . S
C144 N141 1.313 . S
C144 N145 1.344 . S
C144 H148 0.930 . S
N145 C142 1.377 . S
N145 C144 1.344 . S
O146 Co138 2.055 . S
O146 C150 1.253 . S
H147 C143 0.931 . S
H148 C144 0.930 . S
O149 Co138 2.039 . S
O149 C139 1.265 . S
C150 O146 1.253 . S
C150 O151 1.227 . S
O151 C150 1.227 . S
N152 Co138 2.140 . S
N152 C155 1.346 . S
N152 C156 1.345 . S
C153 C154 1.387 . S
C153 C157 1.391 . S
C154 C153 1.387 . S
C154 C155 1.369 . S
C154 H163 0.929 1_556 S
C155 N152 1.346 . S
C155 C154 1.369 . S
C155 H158 0.928 1_556 S
C156 N152 1.345 . S
C156 C157 1.371 . S
C156 H159 0.931 . S
C157 C153 1.391 . S
C157 C156 1.371 . S
C157 H164 0.930 . S
H158 C155 0.928 1_554 S
H159 C156 0.931 . S
H160 C136 0.930 . S
H161 C133 0.930 . S
H162 C142 0.930 . S
H163 C154 0.929 1_554 S
H164 C157 0.930 . S
C165 C166 1.351 . S
C165 N168 1.368 . S
C165 H170 0.931 . S
C166 C165 1.351 . S
C166 N167 1.373 . S
C166 H194 0.930 . S
N167 C166 1.373 . S
N167 C169 1.340 . S
N168 C165 1.368 . S
N168 C169 1.321 . S
N168 Co171 2.135 1_554 S
C169 N167 1.340 . S
C169 N168 1.321 . S
C169 H193 0.930 . S
H170 C165 0.931 . S
Co171 N168 2.135 1_556 S
Co171 N174 2.121 . S
Co171 O179 2.055 . S
Co171 O182 2.039 . S
Co171 N185 2.140 . S
C172 O173 1.227 . S
C172 O182 1.265 . S
O173 C172 1.227 . S
N174 Co171 2.121 . S
N174 C176 1.375 . S
N174 C177 1.313 . S
C175 C176 1.338 . S
C175 N178 1.377 . S
C175 H195 0.930 . S
C176 N174 1.375 . S
C176 C175 1.338 . S
C176 H180 0.931 . S
C177 N174 1.313 . S
C177 N178 1.344 . S
C177 H181 0.930 . S
N178 C175 1.377 . S
N178 C177 1.344 . S
O179 Co171 2.055 . S
O179 C183 1.253 . S
H180 C176 0.931 . S
H181 C177 0.930 . S
O182 Co171 2.039 . S
O182 C172 1.265 . S
C183 O179 1.253 . S
C183 O184 1.227 . S
O184 C183 1.227 . S
N185 Co171 2.140 . S
N185 C188 1.346 . S
N185 C189 1.345 . S
C186 C187 1.387 . S
C186 C190 1.391 . S
C187 C186 1.387 . S
C187 C188 1.369 . S
C187 H196 0.929 1_556 S
C188 N185 1.346 . S
C188 C187 1.369 . S
C188 H191 0.928 1_556 S
C189 N185 1.345 . S
C189 C190 1.371 . S
C189 H192 0.931 . S
C190 C186 1.391 . S
C190 C189 1.371 . S
C190 H197 0.930 . S
H191 C188 0.928 1_554 S
H192 C189 0.931 . S
H193 C169 0.930 . S
H194 C166 0.930 . S
H195 C175 0.930 . S
H196 C187 0.929 1_554 S
H197 C190 0.930 . S
C198 C199 1.351 . S
C198 N201 1.368 . S
C198 H203 0.931 . S
C199 C198 1.351 . S
C199 N200 1.373 . S
C199 H227 0.930 . S
N200 C199 1.373 . S
N200 C202 1.340 . S
N201 C198 1.368 . S
N201 C202 1.321 . S
N201 Co204 2.135 . S
C202 N200 1.340 . S
C202 N201 1.321 . S
C202 H226 0.930 . S
H203 C198 0.931 . S
Co204 N201 2.135 . S
Co204 N207 2.121 . S
Co204 O212 2.055 . S
Co204 O215 2.039 . S
Co204 N218 2.140 . S
C205 O206 1.227 . S
C205 O215 1.265 . S
O206 C205 1.227 . S
N207 Co204 2.121 . S
N207 C209 1.375 . S
N207 C210 1.313 . S
C208 C209 1.338 . S
C208 N211 1.377 . S
C208 H228 0.930 . S
C209 N207 1.375 . S
C209 C208 1.338 . S
C209 H213 0.931 . S
C210 N207 1.313 . S
C210 N211 1.344 . S
C210 H214 0.930 . S
N211 C208 1.377 . S
N211 C210 1.344 . S
O212 Co204 2.055 . S
O212 C216 1.253 . S
H213 C209 0.931 . S
H214 C210 0.930 . S
O215 Co204 2.039 . S
O215 C205 1.265 . S
C216 O212 1.253 . S
C216 O217 1.227 . S
O217 C216 1.227 . S
N218 Co204 2.140 . S
N218 C221 1.346 . S
N218 C222 1.345 . S
C219 C220 1.387 . S
C219 C223 1.391 . S
C220 C219 1.387 . S
C220 C221 1.369 . S
C220 H229 0.929 . S
C221 N218 1.346 . S
C221 C220 1.369 . S
C221 H224 0.928 . S
C222 N218 1.345 . S
C222 C223 1.371 . S
C222 H225 0.931 . S
C223 C219 1.391 . S
C223 C222 1.371 . S
C223 H230 0.930 . S
H224 C221 0.928 . S
H225 C222 0.931 . S
H226 C202 0.930 . S
H227 C199 0.930 . S
H228 C208 0.930 . S
H229 C220 0.929 . S
H230 C223 0.930 . S
C231 C232 1.351 . S
C231 N234 1.368 . S
C231 H236 0.931 . S
C232 C231 1.351 . S
C232 N233 1.373 . S
C232 H260 0.930 . S
N233 C232 1.373 . S
N233 C235 1.340 . S
N234 C231 1.368 . S
N234 C235 1.321 . S
N234 Co237 2.135 . S
C235 N233 1.340 . S
C235 N234 1.321 . S
C235 H259 0.930 . S
H236 C231 0.931 . S
Co237 N234 2.135 . S
Co237 N240 2.121 . S
Co237 O245 2.055 . S
Co237 O248 2.039 . S
Co237 N251 2.140 . S
C238 O239 1.227 . S
C238 O248 1.265 . S
O239 C238 1.227 . S
N240 Co237 2.121 . S
N240 C242 1.375 . S
N240 C243 1.313 . S
C241 C242 1.338 . S
C241 N244 1.377 . S
C241 H261 0.930 . S
C242 N240 1.375 . S
C242 C241 1.338 . S
C242 H246 0.931 . S
C243 N240 1.313 . S
C243 N244 1.344 . S
C243 H247 0.930 . S
N244 C241 1.377 . S
N244 C243 1.344 . S
O245 Co237 2.055 . S
O245 C249 1.253 . S
H246 C242 0.931 . S
H247 C243 0.930 . S
O248 Co237 2.039 . S
O248 C238 1.265 . S
C249 O245 1.253 . S
C249 O250 1.227 . S
O250 C249 1.227 . S
N251 Co237 2.140 . S
N251 C254 1.346 . S
N251 C255 1.345 . S
C252 C253 1.387 . S
C252 C256 1.391 . S
C253 C252 1.387 . S
C253 C254 1.369 . S
C253 H262 0.929 . S
C254 N251 1.346 . S
C254 C253 1.369 . S
C254 H257 0.928 . S
C255 N251 1.345 . S
C255 C256 1.371 . S
C255 H258 0.931 . S
C256 C252 1.391 . S
C256 C255 1.371 . S
C256 H263 0.930 . S
H257 C254 0.928 . S
H258 C255 0.931 . S
H259 C235 0.930 . S
H260 C232 0.930 . S
H261 C241 0.930 . S
H262 C253 0.929 . S
H263 C256 0.930 . S
C264 C265 1.363 1_545 S
C264 C270 1.379 . S
C264 N272 1.356 1_554 S
C265 C264 1.363 1_565 S
C265 C271 1.363 . S
C266 C267 1.363 1_565 S
C266 C271 1.379 . S
C266 N273 1.356 . S
C267 C266 1.363 1_545 S
C267 C270 1.363 . S
N268 C270 1.356 1_556 S
N268 H280 0.984 . S
N268 H281 0.985 1_556 S
N269 C271 1.356 . S
N269 H274 0.984 . S
N269 H275 0.985 . S
C270 C264 1.379 . S
C270 C267 1.363 . S
C270 N268 1.356 1_554 S
C271 C265 1.363 . S
C271 C266 1.379 . S
C271 N269 1.356 . S
N272 C264 1.356 1_556 S
N272 H278 0.984 . S
N272 H279 0.984 1_546 S
N273 C266 1.356 . S
N273 H276 0.984 1_565 S
N273 H277 0.985 . S
H274 N269 0.984 . S
H275 N269 0.985 . S
H276 N273 0.984 1_545 S
H277 N273 0.985 . S
H278 N272 0.984 . S
H279 N272 0.984 1_564 S
H280 N268 0.984 . S
H281 N268 0.985 1_554 S
C282 C283 1.363 . S
C282 C288 1.379 . S
C282 N290 1.356 . S
C283 C282 1.363 . S
C283 C289 1.363 . S
C284 C285 1.363 . S
C284 C289 1.379 . S
C284 N291 1.356 . S
C285 C284 1.363 . S
C285 C288 1.363 . S
N286 C288 1.356 . S
N286 H298 0.984 . S
N286 H299 0.985 . S
N287 C289 1.356 . S
N287 H292 0.984 . S
N287 H293 0.985 . S
C288 C282 1.379 . S
C288 C285 1.363 . S
C288 N286 1.356 . S
C289 C283 1.363 . S
C289 C284 1.379 . S
C289 N287 1.356 . S
N290 C282 1.356 . S
N290 H296 0.984 . S
N290 H297 0.984 . S
N291 C284 1.356 . S
N291 H294 0.984 . S
N291 H295 0.985 . S
H292 N287 0.984 . S
H293 N287 0.985 . S
H294 N291 0.984 . S
H295 N291 0.985 . S
H296 N290 0.984 . S
H297 N290 0.984 . S
H298 N286 0.984 . S
H299 N286 0.985 . S
C300 C301 1.363 . S
C300 C306 1.379 . S
C300 N308 1.356 1_556 S
C301 C300 1.363 . S
C301 C307 1.363 1_545 S
C302 C303 1.363 . S
C302 C307 1.379 . S
C302 N309 1.356 . S
C303 C302 1.363 . S
C303 C306 1.363 1_565 S
N304 C306 1.356 1_554 S
N304 H316 0.984 . S
N304 H317 0.985 1_544 S
N305 C307 1.356 . S
N305 H310 0.984 1_565 S
N305 H311 0.985 . S
C306 C300 1.379 . S
C306 C303 1.363 1_545 S
C306 N304 1.356 1_556 S
C307 C301 1.363 1_565 S
C307 C302 1.379 . S
C307 N305 1.356 . S
N308 C300 1.356 1_554 S
N308 H314 0.984 . S
N308 H315 0.984 1_554 S
N309 C302 1.356 . S
N309 H312 0.984 . S
N309 H313 0.985 . S
H310 N305 0.984 1_545 S
H311 N305 0.985 . S
H312 N309 0.984 . S
H313 N309 0.985 . S
H314 N308 0.984 . S
H315 N308 0.984 1_556 S
H316 N304 0.984 . S
H317 N304 0.985 1_566 S
C318 C319 1.363 . S
C318 C324 1.379 . S
C318 N326 1.356 . S
C319 C318 1.363 . S
C319 C325 1.363 . S
C320 C321 1.363 . S
C320 C325 1.379 . S
C320 N327 1.356 . S
C321 C320 1.363 . S
C321 C324 1.363 . S
N322 C324 1.356 . S
N322 H334 0.984 . S
N322 H335 0.985 . S
N323 C325 1.356 . S
N323 H328 0.984 . S
N323 H329 0.985 . S
C324 C318 1.379 . S
C324 C321 1.363 . S
C324 N322 1.356 . S
C325 C319 1.363 . S
C325 C320 1.379 . S
C325 N323 1.356 . S
N326 C318 1.356 . S
N326 H332 0.984 . S
N326 H333 0.984 . S
N327 C320 1.356 . S
N327 H330 0.984 . S
N327 H331 0.985 . S
H328 N323 0.984 . S
H329 N323 0.985 . S
H330 N327 0.984 . S
H331 N327 0.985 . S
H332 N326 0.984 . S
H333 N326 0.984 . S
H334 N322 0.984 . S
H335 N322 0.985 . S
C336 C337 1.363 1_544 S
C336 C342 1.379 . S
C336 N344 1.356 1_545 S
C337 C336 1.363 1_566 S
C337 C343 1.363 1_655 S
C338 C339 1.363 1_566 S
C338 C343 1.379 . S
C338 N345 1.356 1_565 S
C339 C338 1.363 1_544 S
C339 C342 1.363 1_455 S
N340 C342 1.356 . S
N340 H352 0.984 . S
N340 H353 0.985 1_655 S
N341 C343 1.356 . S
N341 H346 0.984 1_455 S
N341 H347 0.985 . S
C342 C336 1.379 . S
C342 C339 1.363 1_655 S
C342 N340 1.356 . S
C343 C337 1.363 1_455 S
C343 C338 1.379 . S
C343 N341 1.356 . S
N344 C336 1.356 1_565 S
N344 H350 0.984 1_565 S
N344 H351 0.984 . S
N345 C338 1.356 1_545 S
N345 H348 0.984 . S
N345 H349 0.985 1_545 S
H346 N341 0.984 1_655 S
H347 N341 0.985 . S
H348 N345 0.984 . S
H349 N345 0.985 1_565 S
H350 N344 0.984 1_545 S
H351 N344 0.984 . S
H352 N340 0.984 . S
H353 N340 0.985 1_455 S
C354 C355 1.359 1_546 S
C354 C360 1.382 . S
C354 N362 1.355 1_545 S
C355 C354 1.359 1_564 S
C355 C361 1.363 . S
C356 C357 1.359 1_564 S
C356 C361 1.382 . S
C356 N363 1.355 1_565 S
C357 C356 1.359 1_546 S
C357 C360 1.363 . S
N358 C360 1.356 . S
N358 H370 0.984 . S
N358 H371 0.985 . S
N359 C361 1.356 . S
N359 H364 0.984 . S
N359 H365 0.985 . S
C360 C354 1.382 . S
C360 C357 1.363 . S
C360 N358 1.356 . S
C361 C355 1.363 . S
C361 C356 1.382 . S
C361 N359 1.356 . S
N362 C354 1.355 1_565 S
N362 H368 0.984 1_565 S
N362 H369 0.984 . S
N363 C356 1.355 1_545 S
N363 H366 0.984 . S
N363 H367 0.985 1_545 S
H364 N359 0.984 . S
H365 N359 0.985 . S
H366 N363 0.984 . S
H367 N363 0.985 1_565 S
H368 N362 0.984 1_545 S
H369 N362 0.984 . S
H370 N358 0.984 . S
H371 N358 0.985 . S
C372 C373 1.363 . S
C372 C378 1.379 1_455 S
C372 N380 1.356 . S
C373 C372 1.363 . S
C373 C379 1.363 . S
C374 C375 1.363 . S
C374 C379 1.379 1_655 S
C374 N381 1.356 . S
C375 C374 1.363 . S
C375 C378 1.363 . S
N376 C378 1.356 . S
N376 H388 0.984 . S
N376 H389 0.985 . S
N377 C379 1.356 . S
N377 H382 0.984 . S
N377 H383 0.985 . S
C378 C372 1.379 1_655 S
C378 C375 1.363 . S
C378 N376 1.356 . S
C379 C373 1.363 . S
C379 C374 1.379 1_455 S
C379 N377 1.356 . S
N380 C372 1.356 . S
N380 H386 0.984 . S
N380 H387 0.984 . S
N381 C374 1.356 . S
N381 H384 0.984 . S
N381 H385 0.985 . S
H382 N377 0.984 . S
H383 N377 0.985 . S
H384 N381 0.984 . S
H385 N381 0.985 . S
H386 N380 0.984 . S
H387 N380 0.984 . S
H388 N376 0.984 . S
H389 N376 0.985 . S
C390 C391 1.363 . S
C390 C396 1.379 . S
C390 N398 1.356 . S
C391 C390 1.363 . S
C391 C397 1.363 . S
C392 C393 1.363 . S
C392 C397 1.379 . S
C392 N399 1.356 . S
C393 C392 1.363 . S
C393 C396 1.363 . S
N394 C396 1.356 . S
N394 H406 0.984 . S
N394 H407 0.985 . S
N395 C397 1.356 . S
N395 H400 0.984 . S
N395 H401 0.985 . S
C396 C390 1.379 . S
C396 C393 1.363 . S
C396 N394 1.356 . S
C397 C391 1.363 . S
C397 C392 1.379 . S
C397 N395 1.356 . S
N398 C390 1.356 . S
N398 H404 0.984 . S
N398 H405 0.984 . S
N399 C392 1.356 . S
N399 H402 0.984 . S
N399 H403 0.985 . S
H400 N395 0.984 . S
H401 N395 0.985 . S
H402 N399 0.984 . S
H403 N399 0.985 . S
H404 N398 0.984 . S
H405 N398 0.984 . S
H406 N394 0.984 . S
H407 N394 0.985 . S
C408 C409 1.363 . S
C408 C414 1.379 . S
C408 N416 1.356 . S
C409 C408 1.363 . S
C409 C415 1.363 . S
C410 C411 1.363 . S
C410 C415 1.379 . S
C410 N417 1.356 . S
C411 C410 1.363 . S
C411 C414 1.363 . S
N412 C414 1.356 . S
N412 H424 0.984 . S
N412 H425 0.985 . S
N413 C415 1.356 . S
N413 H418 0.984 . S
N413 H419 0.985 . S
C414 C408 1.379 . S
C414 C411 1.363 . S
C414 N412 1.356 . S
C415 C409 1.363 . S
C415 C410 1.379 . S
C415 N413 1.356 . S
N416 C408 1.356 . S
N416 H422 0.984 . S
N416 H423 0.984 . S
N417 C410 1.356 . S
N417 H420 0.984 . S
N417 H421 0.985 . S
H418 N413 0.984 . S
H419 N413 0.985 . S
H420 N417 0.984 . S
H421 N417 0.985 . S
H422 N416 0.984 . S
H423 N416 0.984 . S
H424 N412 0.984 . S
H425 N412 0.985 . S
C426 C427 1.363 . S
C426 C432 1.379 . S
C426 N434 1.356 . S
C427 C426 1.363 . S
C427 C433 1.363 . S
C428 C429 1.363 . S
C428 C433 1.379 . S
C428 N435 1.356 . S
C429 C428 1.363 . S
C429 C432 1.363 . S
N430 C432 1.356 . S
N430 H442 0.984 . S
N430 H443 0.985 . S
N431 C433 1.356 . S
N431 H436 0.984 . S
N431 H437 0.985 . S
C432 C426 1.379 . S
C432 C429 1.363 . S
C432 N430 1.356 . S
C433 C427 1.363 . S
C433 C428 1.379 . S
C433 N431 1.356 . S
N434 C426 1.356 . S
N434 H440 0.984 . S
N434 H441 0.984 . S
N435 C428 1.356 . S
N435 H438 0.984 . S
N435 H439 0.985 . S
H436 N431 0.984 . S
H437 N431 0.985 . S
H438 N435 0.984 . S
H439 N435 0.985 . S
H440 N434 0.984 . S
H441 N434 0.984 . S
H442 N430 0.984 . S
H443 N430 0.985 . S
C444 C445 1.363 . S
C444 C450 1.379 . S
C444 N452 1.356 . S
C445 C444 1.363 . S
C445 C451 1.363 . S
C446 C447 1.363 . S
C446 C451 1.379 . S
C446 N453 1.356 1_556 S
C447 C446 1.363 . S
C447 C450 1.363 . S
N448 C450 1.356 . S
N448 H460 0.984 . S
N448 H461 0.985 1_556 S
N449 C451 1.356 . S
N449 H454 0.984 . S
N449 H455 0.985 . S
C450 C444 1.379 . S
C450 C447 1.363 . S
C450 N448 1.356 . S
C451 C445 1.363 . S
C451 C446 1.379 . S
C451 N449 1.356 . S
N452 C444 1.356 . S
N452 H458 0.984 . S
N452 H459 0.984 . S
N453 C446 1.356 1_554 S
N453 H456 0.984 . S
N453 H457 0.985 1_554 S
H454 N449 0.984 . S
H455 N449 0.985 . S
H456 N453 0.984 . S
H457 N453 0.985 1_556 S
H458 N452 0.984 . S
H459 N452 0.984 . S
H460 N448 0.984 . S
H461 N448 0.985 1_554 S
C462 C463 1.363 . S
C462 C468 1.379 . S
C462 N470 1.356 . S
C463 C462 1.363 . S
C463 C469 1.363 . S
C464 C465 1.363 . S
C464 C469 1.379 . S
C464 N471 1.356 . S
C465 C464 1.363 . S
C465 C468 1.363 . S
N466 C468 1.356 . S
N466 H478 0.984 . S
N466 H479 0.985 . S
N467 C469 1.356 1_554 S
N467 H472 0.984 . S
N467 H473 0.985 . S
C468 C462 1.379 . S
C468 C465 1.363 . S
C468 N466 1.356 . S
C469 C463 1.363 . S
C469 C464 1.379 . S
C469 N467 1.356 1_556 S
N470 C462 1.356 . S
N470 H476 0.984 . S
N470 H477 0.984 1_556 S
N471 C464 1.356 . S
N471 H474 0.984 . S
N471 H475 0.985 . S
H472 N467 0.984 . S
H473 N467 0.985 . S
H474 N471 0.984 . S
H475 N471 0.985 . S
H476 N470 0.984 . S
H477 N470 0.984 1_554 S
H478 N466 0.984 . S
H479 N466 0.985 . S
C480 C481 1.363 . S
C480 C486 1.379 . S
C480 N488 1.356 . S
C481 C480 1.363 . S
C481 C487 1.363 . S
C482 C483 1.363 . S
C482 C487 1.379 . S
C482 N489 1.356 . S
C483 C482 1.363 . S
C483 C486 1.363 . S
N484 C486 1.356 . S
N484 H496 0.984 . S
N484 H497 0.985 . S
N485 C487 1.356 . S
N485 H490 0.984 . S
N485 H491 0.985 . S
C486 C480 1.379 . S
C486 C483 1.363 . S
C486 N484 1.356 . S
C487 C481 1.363 . S
C487 C482 1.379 . S
C487 N485 1.356 . S
N488 C480 1.356 . S
N488 H494 0.984 . S
N488 H495 0.984 . S
N489 C482 1.356 . S
N489 H492 0.984 . S
N489 H493 0.985 . S
H490 N485 0.984 . S
H491 N485 0.985 . S
H492 N489 0.984 . S
H493 N489 0.985 . S
H494 N488 0.984 . S
H495 N488 0.984 . S
H496 N484 0.984 . S
H497 N484 0.985 . S
C498 C499 1.363 . S
C498 C504 1.379 . S
C498 N506 1.356 . S
C499 C498 1.363 . S
C499 C505 1.363 . S
C500 C501 1.363 . S
C500 C505 1.379 . S
C500 N507 1.356 . S
C501 C500 1.363 . S
C501 C504 1.363 . S
N502 C504 1.356 . S
N502 H514 0.984 . S
N502 H515 0.985 . S
N503 C505 1.356 . S
N503 H508 0.984 . S
N503 H509 0.985 . S
C504 C498 1.379 . S
C504 C501 1.363 . S
C504 N502 1.356 . S
C505 C499 1.363 . S
C505 C500 1.379 . S
C505 N503 1.356 . S
N506 C498 1.356 . S
N506 H512 0.984 . S
N506 H513 0.984 . S
N507 C500 1.356 . S
N507 H510 0.984 . S
N507 H511 0.985 . S
H508 N503 0.984 . S
H509 N503 0.985 . S
H510 N507 0.984 . S
H511 N507 0.985 . S
H512 N506 0.984 . S
H513 N506 0.984 . S
H514 N502 0.984 . S
H515 N502 0.985 . S
C516 C517 1.363 . S
C516 C522 1.379 . S
C516 N524 1.356 . S
C517 C516 1.363 . S
C517 C523 1.363 . S
C518 C519 1.363 . S
C518 C523 1.379 . S
C518 N525 1.356 . S
C519 C518 1.363 . S
C519 C522 1.363 . S
N520 C522 1.356 1_556 S
N520 H532 0.984 . S
N520 H533 0.985 . S
N521 C523 1.356 . S
N521 H526 0.984 . S
N521 H527 0.985 . S
C522 C516 1.379 . S
C522 C519 1.363 . S
C522 N520 1.356 1_554 S
C523 C517 1.363 . S
C523 C518 1.379 . S
C523 N521 1.356 . S
N524 C516 1.356 . S
N524 H530 0.984 . S
N524 H531 0.984 . S
N525 C518 1.356 . S
N525 H528 0.984 1_554 S
N525 H529 0.985 . S
H526 N521 0.984 . S
H527 N521 0.985 . S
H528 N525 0.984 1_556 S
H529 N525 0.985 . S
H530 N524 0.984 . S
H531 N524 0.984 . S
H532 N520 0.984 . S
H533 N520 0.985 . S
C534 C535 1.363 . S
C534 C540 1.379 . S
C534 N542 1.356 . S
C535 C534 1.363 . S
C535 C541 1.363 . S
C536 C537 1.363 . S
C536 C541 1.379 . S
C536 N543 1.356 1_554 S
C537 C536 1.363 . S
C537 C540 1.363 . S
N538 C540 1.356 . S
N538 H550 0.984 . S
N538 H551 0.985 1_554 S
N539 C541 1.356 . S
N539 H544 0.984 . S
N539 H545 0.985 . S
C540 C534 1.379 . S
C540 C537 1.363 . S
C540 N538 1.356 . S
C541 C535 1.363 . S
C541 C536 1.379 . S
C541 N539 1.356 . S
N542 C534 1.356 . S
N542 H548 0.984 . S
N542 H549 0.984 . S
N543 C536 1.356 1_556 S
N543 H546 0.984 . S
N543 H547 0.985 . S
H544 N539 0.984 . S
H545 N539 0.985 . S
H546 N543 0.984 . S
H547 N543 0.985 . S
H548 N542 0.984 . S
H549 N542 0.984 . S
H550 N538 0.984 . S
H551 N538 0.985 1_556 S
C552 C553 1.363 . S
C552 C558 1.379 . S
C552 N560 1.356 . S
C553 C552 1.363 . S
C553 C559 1.363 . S
C554 C555 1.363 . S
C554 C559 1.379 . S
C554 N561 1.356 . S
C555 C554 1.363 . S
C555 C558 1.363 . S
N556 C558 1.356 . S
N556 H568 0.984 . S
N556 H569 0.985 . S
N557 C559 1.356 . S
N557 H562 0.984 . S
N557 H563 0.985 . S
C558 C552 1.379 . S
C558 C555 1.363 . S
C558 N556 1.356 . S
C559 C553 1.363 . S
C559 C554 1.379 . S
C559 N557 1.356 . S
N560 C552 1.356 . S
N560 H566 0.984 . S
N560 H567 0.984 . S
N561 C554 1.356 . S
N561 H564 0.984 . S
N561 H565 0.985 . S
H562 N557 0.984 . S
H563 N557 0.985 . S
H564 N561 0.984 . S
H565 N561 0.985 . S
H566 N560 0.984 . S
H567 N560 0.984 . S
H568 N556 0.984 . S
H569 N556 0.985 . S
C570 C571 1.363 . S
C570 C576 1.379 . S
C570 N578 1.356 . S
C571 C570 1.363 . S
C571 C577 1.363 . S
C572 C573 1.363 . S
C572 C577 1.379 . S
C572 N579 1.356 . S
C573 C572 1.363 . S
C573 C576 1.363 . S
N574 C576 1.356 . S
N574 H586 0.984 . S
N574 H587 0.985 . S
N575 C577 1.356 . S
N575 H580 0.984 . S
N575 H581 0.985 . S
C576 C570 1.379 . S
C576 C573 1.363 . S
C576 N574 1.356 . S
C577 C571 1.363 . S
C577 C572 1.379 . S
C577 N575 1.356 . S
N578 C570 1.356 . S
N578 H584 0.984 . S
N578 H585 0.984 . S
N579 C572 1.356 . S
N579 H582 0.984 . S
N579 H583 0.985 . S
H580 N575 0.984 . S
H581 N575 0.985 . S
H582 N579 0.984 . S
H583 N579 0.985 . S
H584 N578 0.984 . S
H585 N578 0.984 . S
H586 N574 0.984 . S
H587 N574 0.985 . S
C588 C589 1.363 . S
C588 C594 1.379 . S
C588 N596 1.356 . S
C589 C588 1.363 . S
C589 C595 1.363 . S
C590 C591 1.363 . S
C590 C595 1.379 . S
C590 N597 1.356 . S
C591 C590 1.363 . S
C591 C594 1.363 . S
N592 C594 1.356 . S
N592 H604 0.984 . S
N592 H605 0.985 . S
N593 C595 1.356 . S
N593 H598 0.984 . S
N593 H599 0.985 . S
C594 C588 1.379 . S
C594 C591 1.363 . S
C594 N592 1.356 . S
C595 C589 1.363 . S
C595 C590 1.379 . S
C595 N593 1.356 . S
N596 C588 1.356 . S
N596 H602 0.984 . S
N596 H603 0.984 . S
N597 C590 1.356 . S
N597 H600 0.984 . S
N597 H601 0.985 . S
H598 N593 0.984 . S
H599 N593 0.985 . S
H600 N597 0.984 . S
H601 N597 0.985 . S
H602 N596 0.984 . S
H603 N596 0.984 . S
H604 N592 0.984 . S
H605 N592 0.985 . S
C606 C607 1.363 . S
C606 C612 1.379 . S
C606 N614 1.356 . S
C607 C606 1.363 . S
C607 C613 1.363 . S
C608 C609 1.363 . S
C608 C613 1.379 . S
C608 N615 1.356 . S
C609 C608 1.363 . S
C609 C612 1.363 . S
N610 C612 1.356 . S
N610 H622 0.984 . S
N610 H623 0.985 . S
N611 C613 1.356 . S
N611 H616 0.984 . S
N611 H617 0.985 . S
C612 C606 1.379 . S
C612 C609 1.363 . S
C612 N610 1.356 . S
C613 C607 1.363 . S
C613 C608 1.379 . S
C613 N611 1.356 . S
N614 C606 1.356 . S
N614 H620 0.984 . S
N614 H621 0.984 . S
N615 C608 1.356 . S
N615 H618 0.984 . S
N615 H619 0.985 . S
H616 N611 0.984 . S
H617 N611 0.985 . S
H618 N615 0.984 . S
H619 N615 0.985 . S
H620 N614 0.984 . S
H621 N614 0.984 . S
H622 N610 0.984 . S
H623 N610 0.985 . S
C265 C54 1.511 . S
C267 C21 1.511 . S
C283 C87 1.511 . S
C285 C120 1.511 . S
C301 C186 1.511 . S
C303 C153 1.511 . S
C319 C219 1.511 . S
C321 C252 1.511 . S
C337 C139 1.517 . S
C339 C7 1.517 . S
C355 C40 1.517 . S
C357 C172 1.517 . S
C373 C73 1.517 . S
C375 C205 1.517 . S
C391 C106 1.517 . S
C393 C238 1.517 . S
C409 N2 1.394 . S
C411 N13 1.395 . S
C427 N46 1.395 . S
C429 N35 1.394 . S
C445 N68 1.394 . S
C447 N79 1.395 1_556 S
C463 N112 1.395 1_556 S
C465 N101 1.394 . S
C481 N134 1.394 . S
C483 N145 1.395 . S
C499 N178 1.395 . S
C501 N167 1.394 . S
C517 N200 1.394 . S
C519 N211 1.395 1_554 S
C535 N233 1.394 . S
C537 N244 1.395 1_554 S
C553 C18 1.542 . S
C555 C84 1.542 . S
C571 C51 1.542 . S
C573 C117 1.542 . S
C589 C150 1.542 . S
C591 C216 1.542 . S
C607 C183 1.542 . S
C609 C249 1.542 . S
