# Generated by pormake.
# Topology unj, (4)-cn, num edge types: 1
# Building blocks:
#     Node 0, Type 0, BuildingBlock: NAHDIM_clean_sbu_0, # of connection points: 4
#     Node 1, Type 0, BuildingBlock: NAHDIM_clean_sbu_0, # of connection points: 4
#     Node 2, Type 0, BuildingBlock: NAHDIM_clean_sbu_0, # of connection points: 4
#     Node 3, Type 0, BuildingBlock: NAHDIM_clean_sbu_0, # of connection points: 4
#     Node 4, Type 0, BuildingBlock: NAHDIM_clean_sbu_0, # of connection points: 4
#     Node 5, Type 0, BuildingBlock: NAHDIM_clean_sbu_0, # of connection points: 4
#     Edge 6, Type (0, 0), BuildingBlock: UVAHIK_clean_linker_0, # of connection points: 2
#     Edge 7, Type (0, 0), BuildingBlock: UVAHIK_clean_linker_0, # of connection points: 2
#     Edge 8, Type (0, 0), BuildingBlock: UVAHIK_clean_linker_0, # of connection points: 2
#     Edge 9, Type (0, 0), BuildingBlock: UVAHIK_clean_linker_0, # of connection points: 2
#     Edge 10, Type (0, 0), BuildingBlock: UVAHIK_clean_linker_0, # of connection points: 2
#     Edge 11, Type (0, 0), BuildingBlock: UVAHIK_clean_linker_0, # of connection points: 2
#     Edge 12, Type (0, 0), BuildingBlock: UVAHIK_clean_linker_0, # of connection points: 2
#     Edge 13, Type (0, 0), BuildingBlock: UVAHIK_clean_linker_0, # of connection points: 2
#     Edge 14, Type (0, 0), BuildingBlock: UVAHIK_clean_linker_0, # of connection points: 2
#     Edge 15, Type (0, 0), BuildingBlock: UVAHIK_clean_linker_0, # of connection points: 2
#     Edge 16, Type (0, 0), BuildingBlock: UVAHIK_clean_linker_0, # of connection points: 2
#     Edge 17, Type (0, 0), BuildingBlock: UVAHIK_clean_linker_0, # of connection points: 2
# Relax obj value: 0.006
# Max RMSD: 0.036
# Mean RMSD: 0.036
data_MOF--net-unj--node1-NAHDIM_clean_sbu_0--edge1-UVAHIK_clean_linker_0
_symmetry_space_group_name_H-M    P1
_symmetry_Int_Tables_number       1
_symmetry_cell_setting            triclinic
loop_
_symmetry_equiv_pos_as_xyz
'x, y, z'
_cell_length_a     44.699754
_cell_length_b     44.779558
_cell_length_c     44.488754
_cell_angle_alpha  89.958704
_cell_angle_beta   90.086915
_cell_angle_gamma 120.0708
loop_
_atom_site_label
_atom_site_type_symbol
_atom_site_fract_x
_atom_site_fract_y
_atom_site_fract_z
_atom_type_partial_charge
C0 C 0.44454 0.28267 0.63114 0.0
O1 O 0.47645 0.29828 0.6413 0.0
O2 O 0.49949 0.28259 0.5636 0.0
Zn3 Zn 0.47071 0.24777 0.5953 0.0
O4 O 0.50136 0.24942 0.62925 0.0
C5 C 0.44937 0.19414 0.55 0.0
O6 O 0.46925 0.22024 0.53246 0.0
O7 O 0.4357 0.25954 0.61109 0.0
C8 C 0.49089 0.22511 0.64832 0.0
O9 O 0.45951 0.19848 0.64572 0.0
C10 C 0.53112 0.29183 0.55963 0.0
O11 O 0.54564 0.27898 0.57706 0.0
O12 O 0.44605 0.19978 0.57746 0.0
C13 C 0.14367 0.43967 0.78174 0.0
O14 O 0.15548 0.47274 0.77736 0.0
O15 O 0.20884 0.48665 0.72604 0.0
Zn16 Zn 0.2114 0.46038 0.76169 0.0
O17 O 0.2383 0.49361 0.79492 0.0
C18 C 0.22417 0.4116 0.72962 0.0
O19 O 0.1947 0.40331 0.71639 0.0
O20 O 0.16337 0.42746 0.77635 0.0
C21 C 0.25201 0.48451 0.81533 0.0
O22 O 0.24789 0.45333 0.81444 0.0
C23 C 0.2352 0.51492 0.71831 0.0
O24 O 0.26394 0.52648 0.73383 0.0
O25 O 0.23589 0.43492 0.74968 0.0
C26 C 0.71717 0.14397 0.93343 0.0
O27 O 0.72138 0.14994 0.9044 0.0
O28 O 0.70874 0.2159 0.90395 0.0
Zn29 Zn 0.74088 0.21705 0.93636 0.0
O30 O 0.74063 0.24563 0.97123 0.0
C31 C 0.79629 0.23446 0.89328 0.0
O32 O 0.77077 0.21615 0.8746 0.0
O33 O 0.72413 0.1688 0.95125 0.0
C34 C 0.76249 0.27766 0.97332 0.0
O35 O 0.78556 0.2927 0.95196 0.0
C36 C 0.71646 0.2423 0.88793 0.0
O37 O 0.74589 0.27087 0.89276 0.0
O38 O 0.78951 0.23773 0.92041 0.0
C39 C 0.54237 0.6968 0.10502 0.0
O40 O 0.51289 0.67533 0.092 0.0
O41 O 0.48789 0.71328 0.06058 0.0
Zn42 Zn 0.51853 0.74454 0.09346 0.0
O43 O 0.48833 0.74284 0.12762 0.0
C44 C 0.55924 0.79864 0.05146 0.0
O45 O 0.55499 0.77239 0.03507 0.0
O46 O 0.55061 0.72822 0.10816 0.0
C47 C 0.49804 0.76761 0.14612 0.0
O48 O 0.5287 0.79516 0.14291 0.0
C49 C 0.46896 0.72105 0.04494 0.0
O50 O 0.46971 0.7503 0.05018 0.0
O51 O 0.54612 0.79304 0.07762 0.0
C52 C 0.85128 0.58628 0.26323 0.0
O53 O 0.84539 0.58635 0.23429 0.0
O54 O 0.78225 0.50353 0.23293 0.0
Zn55 Zn 0.77889 0.53394 0.26469 0.0
O56 O 0.74978 0.50544 0.29971 0.0
C57 C 0.73632 0.54731 0.22509 0.0
O58 O 0.72719 0.51591 0.21622 0.0
O59 O 0.82659 0.56633 0.28041 0.0
C60 C 0.71824 0.49681 0.30331 0.0
O61 O 0.70305 0.50635 0.2833 0.0
C62 C 0.762 0.47106 0.23184 0.0
O63 O 0.73819 0.45604 0.25263 0.0
O64 O 0.75853 0.56101 0.24603 0.0
C65 C 0.28166 0.84885 0.43019 0.0
O66 O 0.28636 0.84377 0.40193 0.0
O67 O 0.27848 0.77505 0.39979 0.0
Zn68 Zn 0.24645 0.77461 0.43171 0.0
O69 O 0.24529 0.74446 0.46584 0.0
C70 C 0.19452 0.76397 0.38769 0.0
O71 O 0.22179 0.78426 0.37144 0.0
O72 O 0.26483 0.82293 0.44726 0.0
C73 C 0.22073 0.71369 0.46959 0.0
O74 O 0.19461 0.70067 0.45069 0.0
C75 C 0.27063 0.7485 0.38398 0.0
O76 O 0.24104 0.7201 0.38876 0.0
O77 O 0.19874 0.75655 0.41436 0.0
C78 C 0.40968 0.13041 0.55632 0.0
C79 C 0.43125 0.15857 0.53787 0.0
C80 C 0.3928 0.09685 0.54477 0.0
C81 C 0.3971 0.04449 0.48265 0.0
H82 H 0.30177 0.98054 0.50403 0.0
C83 C 0.31755 0.91291 0.42388 0.0
C84 C 0.29703 0.88432 0.44228 0.0
C85 C 0.33317 0.94636 0.43553 0.0
C86 C 0.3285 -0.002 0.49809 0.0
H87 H 0.45183 0.17356 0.49275 0.0
H88 H 0.42219 0.11516 0.47261 0.0
H89 H 0.33068 0.03895 0.52458 0.0
H90 H 0.27639 0.86847 0.48728 0.0
H91 H 0.30381 0.92687 0.50763 0.0
H92 H 0.39496 0.00361 0.45617 0.0
C93 C 0.41865 0.11893 0.4961 0.0
C94 C 0.34507 0.03144 0.50987 0.0
C95 C 0.43549 0.15245 0.50762 0.0
C96 C 0.29204 0.88994 0.47249 0.0
C97 C 0.3076 0.92342 0.48412 0.0
C98 C 0.38054 0.0111 0.47086 0.0
C99 C 0.39716 0.09073 0.51454 0.0
C100 C 0.37955 0.05509 0.50224 0.0
C101 C 0.32856 0.95198 0.46583 0.0
C102 C 0.34604 0.98749 0.47839 0.0
H103 H 0.40592 0.13423 0.57975 0.0
H104 H 0.37673 0.07564 0.55965 0.0
H105 H 0.42385 0.06187 0.47674 0.0
H106 H 0.32184 0.9095 0.40049 0.0
H107 H 0.34877 0.96786 0.42075 0.0
C108 C 0.38617 0.27789 0.62998 0.0
C109 C 0.41953 0.2925 0.64242 0.0
C110 C 0.36295 0.28794 0.64016 0.0
C111 C 0.34516 0.3293 0.7041 0.0
H112 H 0.29374 0.34966 0.64528 0.0
C113 C 0.27625 0.40478 0.73422 0.0
C114 C 0.24413 0.3948 0.72074 0.0
C115 C 0.29569 0.38977 0.72533 0.0
C116 C 0.30748 0.34358 0.66204 0.0
H117 H 0.45447 0.32881 0.67556 0.0
H118 H 0.41403 0.3464 0.69318 0.0
H119 H 0.33117 0.32785 0.62861 0.0
H120 H 0.20698 0.36079 0.68765 0.0
H121 H 0.24079 0.33429 0.67235 0.0
H122 H 0.32168 0.34522 0.73753 0.0
C123 C 0.40572 0.32697 0.67574 0.0
C124 C 0.32896 0.33111 0.65247 0.0
C125 C 0.42898 0.31704 0.66549 0.0
C126 C 0.23168 0.36915 0.69841 0.0
C127 C 0.25114 0.35409 0.68952 0.0
C128 C 0.32362 0.34168 0.71368 0.0
C129 C 0.37252 0.31268 0.66308 0.0
C130 C 0.34832 0.32419 0.67337 0.0
C131 C 0.28346 0.36436 0.70279 0.0
C132 C 0.30482 0.34933 0.69274 0.0
H133 H 0.37804 0.25885 0.61222 0.0
H134 H 0.33742 0.2762 0.63018 0.0
H135 H 0.3593 0.32366 0.72079 0.0
H136 H 0.28667 0.42453 0.75145 0.0
H137 H 0.32068 0.39866 0.7357 0.0
C138 C 0.84005 0.25132 0.85208 0.0
C139 C 0.83248 0.25274 0.88252 0.0
C140 C 0.87409 0.26998 0.84168 0.0
C141 C 0.95849 0.34548 0.86073 0.0
H142 H 0.99326 0.30818 0.80037 0.0
C143 C 0.08629 0.43082 0.79822 0.0
C144 C 0.10814 0.41721 0.79312 0.0
C145 C 0.05289 0.40989 0.80931 0.0
C146 C 0.98404 0.31887 0.81741 0.0
H147 H 0.85487 0.27419 0.92607 0.0
H148 H 0.9142 0.30633 0.90799 0.0
H149 H 0.93491 0.27242 0.8201 0.0
H150 H 0.11198 0.37085 0.79555 0.0
H151 H 0.05373 0.33438 0.81524 0.0
H152 H 0.0077 0.39171 0.85843 0.0
C153 C 0.89378 0.29127 0.89205 0.0
C154 C 0.95047 0.29851 0.82848 0.0
C155 C 0.85977 0.27266 0.90244 0.0
C156 C 0.09577 0.38212 0.79919 0.0
C157 C 0.06232 0.36117 0.81032 0.0
C158 C 0.992 0.36581 0.84968 0.0
C159 C 0.90131 0.29044 0.86149 0.0
C160 C 0.93727 0.31163 0.8502 0.0
C161 C 0.04055 0.37486 0.81561 0.0
C162 C 0.00513 0.35283 0.82778 0.0
H163 H 0.81964 0.23627 0.83613 0.0
H164 H 0.87894 0.26906 0.81795 0.0
H165 H 0.94901 0.35655 0.87719 0.0
H166 H 0.09493 0.45769 0.79365 0.0
H167 H 0.03661 0.42113 0.81266 0.0
C168 C 0.58905 0.84002 0.00917 0.0
C169 C 0.57808 0.83415 0.03927 0.0
C170 C 0.60593 0.87346 0.9974 0.0
C171 C 0.65524 0.96511 0.01928 0.0
H172 H 0.62626 0.98097 0.94157 0.0
C173 C 0.69622 0.10172 0.97604 0.0
C174 C 0.70357 0.10859 0.94528 0.0
C175 C 0.68252 0.0682 0.98716 0.0
C176 C 0.63505 0.97695 0.96309 0.0
H177 H 0.57662 0.85886 0.08075 0.0
H178 H 0.60609 0.91719 0.06019 0.0
H179 H 0.59969 0.92252 0.96161 0.0
H180 H 0.70282 0.0857 0.90212 0.0
H181 H 0.67943 0.0273 0.9216 0.0
H182 H 0.69063 0.01949 0.0208 0.0
C183 C 0.60181 0.89594 0.04575 0.0
C184 C 0.61977 0.94344 0.97458 0.0
C185 C 0.58475 0.86249 0.05747 0.0
C186 C 0.69729 0.08126 0.92593 0.0
C187 C 0.6837 0.04773 0.93707 0.0
C188 C 0.67065 -0.0014 0.00773 0.0
C189 C 0.61239 0.90176 0.01554 0.0
C190 C 0.62952 0.9372 0.0029 0.0
C191 C 0.67598 0.04077 0.9678 0.0
C192 C 0.66055 0.00497 0.97959 0.0
H193 H 0.58435 0.81875 0.99455 0.0
H194 H 0.61409 0.87719 0.97413 0.0
H195 H 0.66365 0.96103 0.04097 0.0
H196 H 0.70063 0.12216 0.99156 0.0
H197 H 0.67642 0.06371 0.01086 0.0
C198 C 0.69324 0.54903 0.19033 0.0
C199 C 0.71981 0.56571 0.21161 0.0
C200 C 0.67694 0.56583 0.17795 0.0
C201 C 0.66034 0.63751 0.19183 0.0
H202 H 0.63207 0.62247 0.10816 0.0
C203 C 0.59476 0.70579 0.13353 0.0
C204 C 0.56539 0.68433 0.11616 0.0
C205 C 0.616 0.69357 0.14449 0.0
C206 C 0.63966 0.62677 0.1316 0.0
H207 H 0.75043 0.61334 0.23633 0.0
H208 H 0.72225 0.64292 0.21433 0.0
H209 H 0.66538 0.5975 0.12839 0.0
H210 H 0.5355 0.63336 0.09644 0.0
H211 H 0.57254 0.61215 0.11548 0.0
H212 H 0.63446 0.66675 0.19493 0.0
C213 C 0.71368 0.61662 0.20757 0.0
C214 C 0.65868 0.61242 0.14322 0.0
C215 C 0.72995 0.59973 0.22005 0.0
C216 C 0.55792 0.65056 0.10974 0.0
C217 C 0.57926 0.63846 0.12049 0.0
C218 C 0.64145 0.65203 0.18013 0.0
C219 C 0.68691 0.59981 0.18642 0.0
C220 C 0.6688 0.61716 0.1736 0.0
C221 C 0.60845 0.65977 0.13806 0.0
C222 C 0.63048 0.64637 0.15001 0.0
H223 H 0.68466 0.52277 0.18341 0.0
H224 H 0.65602 0.55186 0.16214 0.0
H225 H 0.66735 0.64133 0.2154 0.0
H226 H 0.60123 0.73195 0.13887 0.0
H227 H 0.63847 0.71065 0.1578 0.0
C228 C 0.13011 0.72781 0.39226 0.0
C229 C 0.15937 0.74896 0.37475 0.0
C230 C 0.09698 0.71289 0.3798 0.0
C231 C 0.05121 0.68678 0.30738 0.0
H232 H 0.97501 0.68207 0.35283 0.0
C233 C 0.91416 0.62991 0.25683 0.0
C234 C 0.88649 0.60806 0.27563 0.0
C235 C 0.9476 0.64947 0.26848 0.0
C236 C -0.00405 0.68291 0.33994 0.0
H237 H 0.17674 0.77131 0.33046 0.0
H238 H 0.11889 0.74531 0.30877 0.0
H239 H 0.03315 0.71176 0.37408 0.0
H240 H 0.87221 0.58995 0.32149 0.0
H241 H 0.93045 0.62363 0.34165 0.0
H242 H 0.01399 0.65748 0.27343 0.0
C243 C 0.12162 0.74006 0.33208 0.0
C244 C 0.02926 0.69994 0.35212 0.0
C245 C 0.15475 0.7551 0.34457 0.0
C246 C 0.89291 0.60657 0.30638 0.0
C247 C 0.92631 0.62607 0.31799 0.0
C248 C 0.01788 0.66966 0.29522 0.0
C249 C 0.09238 0.71868 0.34952 0.0
C250 C 0.05722 0.70184 0.33608 0.0
C251 C 0.9541 0.6476 0.29917 0.0
C252 C 0.9898 0.66728 0.31146 0.0
H253 H 0.13275 0.72251 0.41557 0.0
H254 H 0.07501 0.69621 0.39374 0.0
H255 H 0.07213 0.68739 0.29462 0.0
H256 H 0.91008 0.63176 0.23306 0.0
H257 H 0.96836 0.66614 0.25344 0.0
C258 C 0.53428 0.32613 0.51398 0.0
C259 C 0.55074 0.31519 0.53455 0.0
C260 C 0.55242 0.34692 0.48953 0.0
C261 C 0.64056 0.40587 0.46139 0.0
H262 H 0.596 0.38339 0.38325 0.0
C263 C 0.71526 0.46669 0.35167 0.0
C264 C 0.69893 0.47642 0.32991 0.0
C265 C 0.69711 0.44768 0.3769 0.0
C266 C 0.60866 0.39028 0.40497 0.0
H267 H 0.59934 0.31802 0.54582 0.0
H268 H 0.63092 0.35418 0.50308 0.0
H269 H 0.56455 0.34961 0.42709 0.0
H270 H 0.65066 0.47375 0.3176 0.0
H271 H 0.61908 0.4408 0.36173 0.0
H272 H 0.68471 0.4465 0.43924 0.0
C273 C 0.60405 0.34688 0.50599 0.0
C274 C 0.59064 0.37093 0.4301 0.0
C275 C 0.58589 0.32599 0.5304 0.0
C276 C 0.66401 0.46663 0.3339 0.0
C277 C 0.64584 0.44758 0.35913 0.0
C278 C 0.65858 0.42526 0.43626 0.0
C279 C 0.58745 0.35733 0.48514 0.0
C280 C 0.60641 0.37843 0.45858 0.0
C281 C 0.66219 0.43792 0.38094 0.0
C282 C 0.64288 0.41762 0.40774 0.0
H283 H 0.50725 0.31834 0.51655 0.0
H284 H 0.53902 0.35492 0.47408 0.0
H285 H 0.65326 0.41261 0.4831 0.0
H286 H 0.74212 0.47373 0.34925 0.0
H287 H 0.71033 0.44025 0.39307 0.0
C288 C 0.19379 0.65949 0.50039 0.0
C289 C 0.22177 0.69275 0.4949 0.0
C290 C 0.19489 0.63974 0.52427 0.0
C291 C 0.25567 0.63059 0.57418 0.0
H292 H 0.17558 0.58045 0.62552 0.0
C293 C 0.26188 0.56703 0.68503 0.0
C294 C 0.23347 0.53468 0.69234 0.0
C295 C 0.26021 0.58584 0.66065 0.0
C296 C 0.19802 0.59393 0.61117 0.0
H297 H 0.27287 0.73136 0.51024 0.0
H298 H 0.27471 0.69694 0.55188 0.0
H299 H 0.17299 0.61398 0.58339 0.0
H300 H 0.18107 0.49658 0.67965 0.0
H301 H 0.17836 0.52916 0.63686 0.0
H302 H 0.28069 0.61048 0.6018 0.0
C303 C 0.25204 0.68602 0.53756 0.0
C304 C 0.19654 0.61317 0.58705 0.0
C305 C 0.25088 0.70581 0.5138 0.0
C306 C 0.20338 0.5215 0.67469 0.0
C307 C 0.20175 0.54027 0.65025 0.0
C308 C 0.25712 0.61126 0.59822 0.0
C309 C 0.22407 0.65277 0.54307 0.0
C310 C 0.2254 0.63182 0.56837 0.0
C311 C 0.23013 0.5727 0.64296 0.0
C312 C 0.22837 0.59281 0.61709 0.0
H313 H 0.17099 0.64864 0.48624 0.0
H314 H 0.17307 0.61408 0.52777 0.0
H315 H 0.27816 0.64426 0.55991 0.0
H316 H 0.2854 0.57801 0.69824 0.0
H317 H 0.28236 0.61095 0.65595 0.0
C318 C 0.66069 0.21067 0.8594 0.0
C319 C 0.69296 0.24063 0.86368 0.0
C320 C 0.63866 0.20901 0.83632 0.0
C321 C 0.63855 0.24805 0.76346 0.0
H322 H 0.54043 0.20825 0.77855 0.0
C323 C 0.54676 0.25608 0.67673 0.0
C324 C 0.51384 0.22681 0.6731 0.0
C325 C 0.56846 0.25771 0.70009 0.0
C326 C 0.56769 0.21905 0.77385 0.0
H327 H 0.72734 0.29237 0.84708 0.0
H328 H 0.68883 0.28946 0.80686 0.0
H329 H 0.57856 0.21114 0.81912 0.0
H330 H 0.47796 0.17624 0.69113 0.0
H331 H 0.51602 0.17888 0.73161 0.0
H332 H 0.62775 0.25577 0.71817 0.0
C333 C 0.68071 0.26716 0.82122 0.0
C334 C 0.58954 0.22075 0.79712 0.0
C335 C 0.70268 0.26889 0.84439 0.0
C336 C 0.50311 0.19921 0.69335 0.0
C337 C 0.52486 0.20081 0.71668 0.0
C338 C 0.6167 0.24626 0.74017 0.0
C339 C 0.64847 0.2372 0.81692 0.0
C340 C 0.62522 0.23532 0.79219 0.0
C341 C 0.55781 0.23008 0.72032 0.0
C342 C 0.58101 0.23179 0.74509 0.0
H343 H 0.65243 0.18841 0.87383 0.0
H344 H 0.61414 0.18543 0.83337 0.0
H345 H 0.66585 0.25894 0.75884 0.0
H346 H 0.55578 0.27787 0.6616 0.0
H347 H 0.59346 0.28085 0.70249 0.0
C348 C 0.27597 0.5416 0.84145 0.0
C349 C 0.27296 0.50888 0.83941 0.0
C350 C 0.29619 0.56473 0.86398 0.0
C351 C 0.33647 0.56876 0.93788 0.0
H352 H 0.3943 0.66574 0.91846 0.0
C353 C 0.4433 0.66474 0.01746 0.0
C354 C 0.44614 0.69722 0.02134 0.0
C355 C 0.42147 0.64201 0.99546 0.0
C356 C 0.37801 0.6388 0.9243 0.0
H357 H 0.28887 0.47481 0.85941 0.0
H358 H 0.32451 0.51528 0.89832 0.0
H359 H 0.35735 0.62551 0.87976 0.0
H360 H 0.4284 0.73137 0.00499 0.0
H361 H 0.39026 0.6916 0.96651 0.0
H362 H 0.3575 0.58203 0.98231 0.0
C363 C 0.31079 0.52291 0.88287 0.0
C364 C 0.35678 0.61574 0.90215 0.0
C365 C 0.2905 0.49975 0.86043 0.0
C366 C 0.42681 0.70655 0.00258 0.0
C367 C 0.40509 0.68385 0.98044 0.0
C368 C 0.35779 0.59178 0.95997 0.0
C369 C 0.31392 0.55569 0.88492 0.0
C370 C 0.33587 0.58041 0.90864 0.0
C371 C 0.4021 0.65129 0.97672 0.0
C372 C 0.37891 0.62702 0.95339 0.0
H373 H 0.26268 0.54938 0.82567 0.0
H374 H 0.29765 0.58958 0.86516 0.0
H375 H 0.32022 0.54184 0.94381 0.0
H376 H 0.45788 0.65677 0.0315 0.0
H377 H 0.42005 0.61728 0.99288 0.0
C378 C 0.73875 0.28131 0.02334 0.0
C379 C 0.76249 0.29759 -0.00014 0.0
C380 C 0.73921 0.30002 0.04864 0.0
C381 C 0.76868 0.38864 0.07499 0.0
H382 H 0.75747 0.3482 0.15423 0.0
C383 C 0.78805 0.46716 0.1832 0.0
C384 C 0.76379 0.45082 0.20632 0.0
C385 C 0.78867 0.44836 0.1584 0.0
C386 C 0.7603 0.35972 0.13224 0.0
H387 H 0.80525 0.34637 0.9845 0.0
H388 H 0.80614 0.37892 0.02871 0.0
H389 H 0.75664 0.31564 0.10998 0.0
H390 H 0.72148 0.40177 0.2217 0.0
H391 H 0.72242 0.36905 0.17831 0.0
H392 H 0.77222 0.43266 0.09721 0.0
C393 C 0.78696 0.35175 0.02743 0.0
C394 C 0.7598 0.34106 0.10689 0.0
C395 C 0.78655 0.33304 0.00215 0.0
C396 C 0.74054 0.41515 0.20431 0.0
C397 C 0.74118 0.39634 0.1795 0.0
C398 C 0.76916 0.40729 0.10033 0.0
C399 C 0.76335 0.33544 0.051 0.0
C400 C 0.76395 0.3553 0.07797 0.0
C401 C 0.76507 0.41279 0.15614 0.0
C402 C 0.76496 0.39305 0.12925 0.0
H403 H 0.71982 0.25405 0.02227 0.0
H404 H 0.72038 0.28679 0.06623 0.0
H405 H 0.77143 0.40014 0.05301 0.0
H406 H 0.80641 0.49459 0.18409 0.0
H407 H 0.80773 0.4617 0.141 0.0
C408 C 0.28513 0.72114 0.34157 0.0
C409 C 0.29429 0.74988 0.36008 0.0
C410 C 0.3073 0.72269 0.31873 0.0
C411 C 0.3984 0.77067 0.29437 0.0
H412 H 0.36032 0.73264 0.21601 0.0
C413 C 0.48473 0.79335 0.19056 0.0
C414 C 0.47497 0.76539 0.17091 0.0
C415 C 0.46279 0.79125 0.21385 0.0
C416 C 0.37134 0.74301 0.23786 0.0
H417 H 0.33401 0.80277 0.36919 0.0
H418 H 0.37256 0.80547 0.32928 0.0
H419 H 0.32186 0.72902 0.25641 0.0
H420 H 0.43459 0.71317 0.16048 0.0
H421 H 0.39662 0.70937 0.2013 0.0
H422 H 0.44788 0.78459 0.27587 0.0
C423 C 0.34838 0.78163 0.33261 0.0
C424 C 0.34928 0.74094 0.261 0.0
C425 C 0.32619 0.78013 0.35537 0.0
C426 C 0.44285 0.73525 0.17513 0.0
C427 C 0.42097 0.73313 0.19844 0.0
C428 C 0.42046 0.77267 0.27125 0.0
C429 C 0.33916 0.75297 0.31397 0.0
C430 C 0.36257 0.7548 0.2895 0.0
C431 C 0.43064 0.76112 0.21805 0.0
C432 C 0.40719 0.75891 0.2427 0.0
H433 H 0.26077 0.69742 0.34464 0.0
H434 H 0.29964 0.70004 0.30496 0.0
H435 H 0.40938 0.78116 0.3162 0.0
H436 H 0.50924 0.81699 0.18787 0.0
H437 H 0.47083 0.81345 0.22831 0.0
loop_
_geom_bond_atom_site_label_1
_geom_bond_atom_site_label_2
_geom_bond_distance
_geom_bond_site_symmetry_2
_ccdc_geom_bond_type
C0 O1 1.160 . S
C0 O7 1.185 . S
O1 C0 1.160 . S
O2 Zn3 1.899 . S
O2 C10 1.284 . S
Zn3 O2 1.899 . S
Zn3 O4 2.032 . S
Zn3 O7 2.086 . S
Zn3 O12 1.977 . S
O4 Zn3 2.032 . S
O4 C8 1.278 . S
C5 O6 1.203 . S
C5 O12 1.267 . S
O6 C5 1.203 . S
O7 C0 1.185 . S
O7 Zn3 2.086 . S
C8 O4 1.278 . S
C8 O9 1.211 . S
O9 C8 1.211 . S
C10 O2 1.284 . S
C10 O11 1.273 . S
O11 C10 1.273 . S
O12 Zn3 1.977 . S
O12 C5 1.267 . S
C13 O14 1.160 . S
C13 O20 1.185 . S
O14 C13 1.160 . S
O15 Zn16 1.899 . S
O15 C23 1.284 . S
Zn16 O15 1.899 . S
Zn16 O17 2.032 . S
Zn16 O20 2.086 . S
Zn16 O25 1.977 . S
O17 Zn16 2.032 . S
O17 C21 1.278 . S
C18 O19 1.203 . S
C18 O25 1.267 . S
O19 C18 1.203 . S
O20 C13 1.185 . S
O20 Zn16 2.086 . S
C21 O17 1.278 . S
C21 O22 1.211 . S
O22 C21 1.211 . S
C23 O15 1.284 . S
C23 O24 1.273 . S
O24 C23 1.273 . S
O25 Zn16 1.977 . S
O25 C18 1.267 . S
C26 O27 1.160 . S
C26 O33 1.185 . S
O27 C26 1.160 . S
O28 Zn29 1.899 . S
O28 C36 1.284 . S
Zn29 O28 1.899 . S
Zn29 O30 2.032 . S
Zn29 O33 2.086 . S
Zn29 O38 1.977 . S
O30 Zn29 2.032 . S
O30 C34 1.278 . S
C31 O32 1.203 . S
C31 O38 1.267 . S
O32 C31 1.203 . S
O33 C26 1.185 . S
O33 Zn29 2.086 . S
C34 O30 1.278 . S
C34 O35 1.211 . S
O35 C34 1.211 . S
C36 O28 1.284 . S
C36 O37 1.273 . S
O37 C36 1.273 . S
O38 Zn29 1.977 . S
O38 C31 1.267 . S
C39 O40 1.160 . S
C39 O46 1.185 . S
O40 C39 1.160 . S
O41 Zn42 1.899 . S
O41 C49 1.284 . S
Zn42 O41 1.899 . S
Zn42 O43 2.032 . S
Zn42 O46 2.086 . S
Zn42 O51 1.977 . S
O43 Zn42 2.032 . S
O43 C47 1.278 . S
C44 O45 1.203 . S
C44 O51 1.267 . S
O45 C44 1.203 . S
O46 C39 1.185 . S
O46 Zn42 2.086 . S
C47 O43 1.278 . S
C47 O48 1.211 . S
O48 C47 1.211 . S
C49 O41 1.284 . S
C49 O50 1.273 . S
O50 C49 1.273 . S
O51 Zn42 1.977 . S
O51 C44 1.267 . S
C52 O53 1.160 . S
C52 O59 1.185 . S
O53 C52 1.160 . S
O54 Zn55 1.899 . S
O54 C62 1.284 . S
Zn55 O54 1.899 . S
Zn55 O56 2.032 . S
Zn55 O59 2.086 . S
Zn55 O64 1.977 . S
O56 Zn55 2.032 . S
O56 C60 1.278 . S
C57 O58 1.203 . S
C57 O64 1.267 . S
O58 C57 1.203 . S
O59 C52 1.185 . S
O59 Zn55 2.086 . S
C60 O56 1.278 . S
C60 O61 1.211 . S
O61 C60 1.211 . S
C62 O54 1.284 . S
C62 O63 1.273 . S
O63 C62 1.273 . S
O64 Zn55 1.977 . S
O64 C57 1.267 . S
C65 O66 1.160 . S
C65 O72 1.185 . S
O66 C65 1.160 . S
O67 Zn68 1.899 . S
O67 C75 1.284 . S
Zn68 O67 1.899 . S
Zn68 O69 2.032 . S
Zn68 O72 2.086 . S
Zn68 O77 1.977 . S
O69 Zn68 2.032 . S
O69 C73 1.278 . S
C70 O71 1.203 . S
C70 O77 1.267 . S
O71 C70 1.203 . S
O72 C65 1.185 . S
O72 Zn68 2.086 . S
C73 O69 1.278 . S
C73 O74 1.211 . S
O74 C73 1.211 . S
C75 O67 1.284 . S
C75 O76 1.273 . S
O76 C75 1.273 . S
O77 Zn68 1.977 . S
O77 C70 1.267 . S
C78 C79 1.349 . S
C78 C80 1.327 . S
C78 H103 0.950 . S
C79 C78 1.349 . S
C79 C95 1.349 . S
C80 C78 1.327 . S
C80 C99 1.429 . S
C80 H104 0.950 . S
C81 C98 1.574 . S
C81 C100 1.368 . S
C81 H105 0.949 . S
H82 C86 0.949 . S
C83 C84 1.349 . S
C83 C85 1.327 . S
C83 H106 0.950 . S
C84 C83 1.349 . S
C84 C96 1.349 . S
C85 C83 1.327 . S
C85 C101 1.429 . S
C85 H107 0.950 . S
C86 H82 0.949 . S
C86 C94 1.574 1_565 S
C86 C102 1.368 . S
H87 C95 0.950 . S
H88 C93 0.950 . S
H89 C94 0.949 . S
H90 C96 0.950 . S
H91 C97 0.950 . S
H92 C98 0.949 1_565 S
C93 H88 0.950 . S
C93 C95 1.327 . S
C93 C99 1.429 . S
C94 C86 1.574 1_545 S
C94 H89 0.949 . S
C94 C100 1.368 . S
C95 C79 1.349 . S
C95 H87 0.950 . S
C95 C93 1.327 . S
C96 C84 1.349 . S
C96 H90 0.950 . S
C96 C97 1.327 . S
C97 H91 0.950 . S
C97 C96 1.327 . S
C97 C101 1.429 . S
C98 C81 1.574 . S
C98 H92 0.949 1_545 S
C98 C102 1.368 1_545 S
C99 C80 1.429 . S
C99 C93 1.429 . S
C99 C100 1.523 . S
C100 C81 1.368 . S
C100 C94 1.368 . S
C100 C99 1.523 . S
C101 C85 1.429 . S
C101 C97 1.429 . S
C101 C102 1.523 . S
C102 C86 1.368 . S
C102 C98 1.368 1_565 S
C102 C101 1.523 . S
H103 C78 0.950 . S
H104 C80 0.950 . S
H105 C81 0.949 . S
H106 C83 0.950 . S
H107 C85 0.950 . S
C108 C109 1.349 . S
C108 C110 1.327 . S
C108 H133 0.950 . S
C109 C108 1.349 . S
C109 C125 1.349 . S
C110 C108 1.327 . S
C110 C129 1.429 . S
C110 H134 0.950 . S
C111 C128 1.574 . S
C111 C130 1.368 . S
C111 H135 0.949 . S
H112 C116 0.949 . S
C113 C114 1.349 . S
C113 C115 1.327 . S
C113 H136 0.950 . S
C114 C113 1.349 . S
C114 C126 1.349 . S
C115 C113 1.327 . S
C115 C131 1.429 . S
C115 H137 0.950 . S
C116 H112 0.949 . S
C116 C124 1.574 . S
C116 C132 1.368 . S
H117 C125 0.950 . S
H118 C123 0.950 . S
H119 C124 0.949 . S
H120 C126 0.950 . S
H121 C127 0.950 . S
H122 C128 0.949 . S
C123 H118 0.950 . S
C123 C125 1.327 . S
C123 C129 1.429 . S
C124 C116 1.574 . S
C124 H119 0.949 . S
C124 C130 1.368 . S
C125 C109 1.349 . S
C125 H117 0.950 . S
C125 C123 1.327 . S
C126 C114 1.349 . S
C126 H120 0.950 . S
C126 C127 1.327 . S
C127 H121 0.950 . S
C127 C126 1.327 . S
C127 C131 1.429 . S
C128 C111 1.574 . S
C128 H122 0.949 . S
C128 C132 1.368 . S
C129 C110 1.429 . S
C129 C123 1.429 . S
C129 C130 1.523 . S
C130 C111 1.368 . S
C130 C124 1.368 . S
C130 C129 1.523 . S
C131 C115 1.429 . S
C131 C127 1.429 . S
C131 C132 1.523 . S
C132 C116 1.368 . S
C132 C128 1.368 . S
C132 C131 1.523 . S
H133 C108 0.950 . S
H134 C110 0.950 . S
H135 C111 0.949 . S
H136 C113 0.950 . S
H137 C115 0.950 . S
C138 C139 1.349 . S
C138 C140 1.327 . S
C138 H163 0.950 . S
C139 C138 1.349 . S
C139 C155 1.349 . S
C140 C138 1.327 . S
C140 C159 1.429 . S
C140 H164 0.950 . S
C141 C158 1.574 1_655 S
C141 C160 1.368 . S
C141 H165 0.949 . S
H142 C146 0.949 . S
C143 C144 1.349 . S
C143 C145 1.327 . S
C143 H166 0.950 . S
C144 C143 1.349 . S
C144 C156 1.349 . S
C145 C143 1.327 . S
C145 C161 1.429 . S
C145 H167 0.950 . S
C146 H142 0.949 . S
C146 C154 1.574 1_455 S
C146 C162 1.368 . S
H147 C155 0.950 . S
H148 C153 0.950 . S
H149 C154 0.949 . S
H150 C156 0.950 . S
H151 C157 0.950 . S
H152 C158 0.949 . S
C153 H148 0.950 . S
C153 C155 1.327 . S
C153 C159 1.429 . S
C154 C146 1.574 1_655 S
C154 H149 0.949 . S
C154 C160 1.368 . S
C155 C139 1.349 . S
C155 H147 0.950 . S
C155 C153 1.327 . S
C156 C144 1.349 . S
C156 H150 0.950 . S
C156 C157 1.327 . S
C157 H151 0.950 . S
C157 C156 1.327 . S
C157 C161 1.429 . S
C158 C141 1.574 1_455 S
C158 H152 0.949 . S
C158 C162 1.368 . S
C159 C140 1.429 . S
C159 C153 1.429 . S
C159 C160 1.523 . S
C160 C141 1.368 . S
C160 C154 1.368 . S
C160 C159 1.523 . S
C161 C145 1.429 . S
C161 C157 1.429 . S
C161 C162 1.523 . S
C162 C146 1.368 . S
C162 C158 1.368 . S
C162 C161 1.523 . S
H163 C138 0.950 . S
H164 C140 0.950 . S
H165 C141 0.949 . S
H166 C143 0.950 . S
H167 C145 0.950 . S
C168 C169 1.349 . S
C168 C170 1.327 . S
C168 H193 0.950 . S
C169 C168 1.349 . S
C169 C185 1.349 . S
C170 C168 1.327 . S
C170 C189 1.429 . S
C170 H194 0.950 . S
C171 C188 1.574 1_565 S
C171 C190 1.368 . S
C171 H195 0.949 . S
H172 C176 0.949 . S
C173 C174 1.349 . S
C173 C175 1.319 1_556 S
C173 H196 0.950 . S
C174 C173 1.349 . S
C174 C186 1.349 . S
C175 C173 1.319 1_554 S
C175 C191 1.419 1_554 S
C175 H197 0.968 . S
C176 H172 0.949 . S
C176 C184 1.574 1_545 S
C176 C192 1.379 . S
H177 C185 0.950 . S
H178 C183 0.950 . S
H179 C184 0.949 . S
H180 C186 0.950 . S
H181 C187 0.950 . S
H182 C188 0.949 . S
C183 H178 0.950 . S
C183 C185 1.327 . S
C183 C189 1.429 . S
C184 C176 1.574 1_565 S
C184 H179 0.949 . S
C184 C190 1.368 1_556 S
C185 C169 1.349 . S
C185 H177 0.950 . S
C185 C183 1.327 . S
C186 C174 1.349 . S
C186 H180 0.950 . S
C186 C187 1.327 . S
C187 H181 0.950 . S
C187 C186 1.327 . S
C187 C191 1.429 . S
C188 C171 1.574 1_545 S
C188 H182 0.949 . S
C188 C192 1.352 1_554 S
C189 C170 1.429 . S
C189 C183 1.429 . S
C189 C190 1.523 . S
C190 C171 1.368 . S
C190 C184 1.368 1_554 S
C190 C189 1.523 . S
C191 C175 1.419 1_556 S
C191 C187 1.429 . S
C191 C192 1.530 . S
C192 C176 1.379 . S
C192 C188 1.352 1_556 S
C192 C191 1.530 . S
H193 C168 0.950 . S
H194 C170 0.950 . S
H195 C171 0.949 . S
H196 C173 0.950 . S
H197 C175 0.968 . S
C198 C199 1.349 . S
C198 C200 1.327 . S
C198 H223 0.950 . S
C199 C198 1.349 . S
C199 C215 1.349 . S
C200 C198 1.327 . S
C200 C219 1.429 . S
C200 H224 0.950 . S
C201 C218 1.574 . S
C201 C220 1.368 . S
C201 H225 0.949 . S
H202 C206 0.949 . S
C203 C204 1.349 . S
C203 C205 1.327 . S
C203 H226 0.950 . S
C204 C203 1.349 . S
C204 C216 1.349 . S
C205 C203 1.327 . S
C205 C221 1.429 . S
C205 H227 0.950 . S
C206 H202 0.949 . S
C206 C214 1.574 . S
C206 C222 1.368 . S
H207 C215 0.950 . S
H208 C213 0.950 . S
H209 C214 0.949 . S
H210 C216 0.950 . S
H211 C217 0.950 . S
H212 C218 0.949 . S
C213 H208 0.950 . S
C213 C215 1.327 . S
C213 C219 1.429 . S
C214 C206 1.574 . S
C214 H209 0.949 . S
C214 C220 1.368 . S
C215 C199 1.349 . S
C215 H207 0.950 . S
C215 C213 1.327 . S
C216 C204 1.349 . S
C216 H210 0.950 . S
C216 C217 1.327 . S
C217 H211 0.950 . S
C217 C216 1.327 . S
C217 C221 1.429 . S
C218 C201 1.574 . S
C218 H212 0.949 . S
C218 C222 1.368 . S
C219 C200 1.429 . S
C219 C213 1.429 . S
C219 C220 1.523 . S
C220 C201 1.368 . S
C220 C214 1.368 . S
C220 C219 1.523 . S
C221 C205 1.429 . S
C221 C217 1.429 . S
C221 C222 1.523 . S
C222 C206 1.368 . S
C222 C218 1.368 . S
C222 C221 1.523 . S
H223 C198 0.950 . S
H224 C200 0.950 . S
H225 C201 0.949 . S
H226 C203 0.950 . S
H227 C205 0.950 . S
C228 C229 1.349 . S
C228 C230 1.327 . S
C228 H253 0.950 . S
C229 C228 1.349 . S
C229 C245 1.349 . S
C230 C228 1.327 . S
C230 C249 1.429 . S
C230 H254 0.950 . S
C231 C248 1.574 1_455 S
C231 C250 1.368 . S
C231 H255 0.949 . S
H232 C236 0.949 . S
C233 C234 1.349 . S
C233 C235 1.327 . S
C233 H256 0.950 . S
C234 C233 1.349 . S
C234 C246 1.349 . S
C235 C233 1.327 . S
C235 C251 1.429 . S
C235 H257 0.950 . S
C236 H232 0.949 . S
C236 C244 1.574 1_655 S
C236 C252 1.368 . S
H237 C245 0.950 . S
H238 C243 0.950 . S
H239 C244 0.949 . S
H240 C246 0.950 . S
H241 C247 0.950 . S
H242 C248 0.949 . S
C243 H238 0.950 . S
C243 C245 1.327 . S
C243 C249 1.429 . S
C244 C236 1.574 1_455 S
C244 H239 0.949 . S
C244 C250 1.368 . S
C245 C229 1.349 . S
C245 H237 0.950 . S
C245 C243 1.327 . S
C246 C234 1.349 . S
C246 H240 0.950 . S
C246 C247 1.327 . S
C247 H241 0.950 . S
C247 C246 1.327 . S
C247 C251 1.429 . S
C248 C231 1.574 1_655 S
C248 H242 0.949 . S
C248 C252 1.368 . S
C249 C230 1.429 . S
C249 C243 1.429 . S
C249 C250 1.523 . S
C250 C231 1.368 . S
C250 C244 1.368 . S
C250 C249 1.523 . S
C251 C235 1.429 . S
C251 C247 1.429 . S
C251 C252 1.523 . S
C252 C236 1.368 . S
C252 C248 1.368 . S
C252 C251 1.523 . S
H253 C228 0.950 . S
H254 C230 0.950 . S
H255 C231 0.949 . S
H256 C233 0.950 . S
H257 C235 0.950 . S
C258 C259 1.349 . S
C258 C260 1.327 . S
C258 H283 0.950 . S
C259 C258 1.349 . S
C259 C275 1.349 . S
C260 C258 1.327 . S
C260 C279 1.429 . S
C260 H284 0.950 . S
C261 C278 1.574 . S
C261 C280 1.368 . S
C261 H285 0.949 . S
H262 C266 0.949 . S
C263 C264 1.349 . S
C263 C265 1.327 . S
C263 H286 0.950 . S
C264 C263 1.349 . S
C264 C276 1.349 . S
C265 C263 1.327 . S
C265 C281 1.429 . S
C265 H287 0.950 . S
C266 H262 0.949 . S
C266 C274 1.574 . S
C266 C282 1.368 . S
H267 C275 0.950 . S
H268 C273 0.950 . S
H269 C274 0.949 . S
H270 C276 0.950 . S
H271 C277 0.950 . S
H272 C278 0.949 . S
C273 H268 0.950 . S
C273 C275 1.327 . S
C273 C279 1.429 . S
C274 C266 1.574 . S
C274 H269 0.949 . S
C274 C280 1.368 . S
C275 C259 1.349 . S
C275 H267 0.950 . S
C275 C273 1.327 . S
C276 C264 1.349 . S
C276 H270 0.950 . S
C276 C277 1.327 . S
C277 H271 0.950 . S
C277 C276 1.327 . S
C277 C281 1.429 . S
C278 C261 1.574 . S
C278 H272 0.949 . S
C278 C282 1.368 . S
C279 C260 1.429 . S
C279 C273 1.429 . S
C279 C280 1.523 . S
C280 C261 1.368 . S
C280 C274 1.368 . S
C280 C279 1.523 . S
C281 C265 1.429 . S
C281 C277 1.429 . S
C281 C282 1.523 . S
C282 C266 1.368 . S
C282 C278 1.368 . S
C282 C281 1.523 . S
H283 C258 0.950 . S
H284 C260 0.950 . S
H285 C261 0.949 . S
H286 C263 0.950 . S
H287 C265 0.950 . S
C288 C289 1.349 . S
C288 C290 1.327 . S
C288 H313 0.950 . S
C289 C288 1.349 . S
C289 C305 1.349 . S
C290 C288 1.327 . S
C290 C309 1.429 . S
C290 H314 0.950 . S
C291 C308 1.574 . S
C291 C310 1.368 . S
C291 H315 0.949 . S
H292 C296 0.949 . S
C293 C294 1.349 . S
C293 C295 1.327 . S
C293 H316 0.950 . S
C294 C293 1.349 . S
C294 C306 1.349 . S
C295 C293 1.327 . S
C295 C311 1.429 . S
C295 H317 0.950 . S
C296 H292 0.949 . S
C296 C304 1.574 . S
C296 C312 1.368 . S
H297 C305 0.950 . S
H298 C303 0.950 . S
H299 C304 0.949 . S
H300 C306 0.950 . S
H301 C307 0.950 . S
H302 C308 0.949 . S
C303 H298 0.950 . S
C303 C305 1.327 . S
C303 C309 1.429 . S
C304 C296 1.574 . S
C304 H299 0.949 . S
C304 C310 1.368 . S
C305 C289 1.349 . S
C305 H297 0.950 . S
C305 C303 1.327 . S
C306 C294 1.349 . S
C306 H300 0.950 . S
C306 C307 1.327 . S
C307 H301 0.950 . S
C307 C306 1.327 . S
C307 C311 1.429 . S
C308 C291 1.574 . S
C308 H302 0.949 . S
C308 C312 1.368 . S
C309 C290 1.429 . S
C309 C303 1.429 . S
C309 C310 1.523 . S
C310 C291 1.368 . S
C310 C304 1.368 . S
C310 C309 1.523 . S
C311 C295 1.429 . S
C311 C307 1.429 . S
C311 C312 1.523 . S
C312 C296 1.368 . S
C312 C308 1.368 . S
C312 C311 1.523 . S
H313 C288 0.950 . S
H314 C290 0.950 . S
H315 C291 0.949 . S
H316 C293 0.950 . S
H317 C295 0.950 . S
C318 C319 1.349 . S
C318 C320 1.327 . S
C318 H343 0.950 . S
C319 C318 1.349 . S
C319 C335 1.349 . S
C320 C318 1.327 . S
C320 C339 1.429 . S
C320 H344 0.950 . S
C321 C338 1.574 . S
C321 C340 1.368 . S
C321 H345 0.949 . S
H322 C326 0.949 . S
C323 C324 1.349 . S
C323 C325 1.327 . S
C323 H346 0.950 . S
C324 C323 1.349 . S
C324 C336 1.349 . S
C325 C323 1.327 . S
C325 C341 1.429 . S
C325 H347 0.950 . S
C326 H322 0.949 . S
C326 C334 1.574 . S
C326 C342 1.368 . S
H327 C335 0.950 . S
H328 C333 0.950 . S
H329 C334 0.949 . S
H330 C336 0.950 . S
H331 C337 0.950 . S
H332 C338 0.949 . S
C333 H328 0.950 . S
C333 C335 1.327 . S
C333 C339 1.429 . S
C334 C326 1.574 . S
C334 H329 0.949 . S
C334 C340 1.368 . S
C335 C319 1.349 . S
C335 H327 0.950 . S
C335 C333 1.327 . S
C336 C324 1.349 . S
C336 H330 0.950 . S
C336 C337 1.327 . S
C337 H331 0.950 . S
C337 C336 1.327 . S
C337 C341 1.429 . S
C338 C321 1.574 . S
C338 H332 0.949 . S
C338 C342 1.368 . S
C339 C320 1.429 . S
C339 C333 1.429 . S
C339 C340 1.523 . S
C340 C321 1.368 . S
C340 C334 1.368 . S
C340 C339 1.523 . S
C341 C325 1.429 . S
C341 C337 1.429 . S
C341 C342 1.523 . S
C342 C326 1.368 . S
C342 C338 1.368 . S
C342 C341 1.523 . S
H343 C318 0.950 . S
H344 C320 0.950 . S
H345 C321 0.949 . S
H346 C323 0.950 . S
H347 C325 0.950 . S
C348 C349 1.349 . S
C348 C350 1.327 . S
C348 H373 0.950 . S
C349 C348 1.349 . S
C349 C365 1.349 . S
C350 C348 1.327 . S
C350 C369 1.429 . S
C350 H374 0.950 . S
C351 C368 1.574 . S
C351 C370 1.368 . S
C351 H375 0.949 . S
H352 C356 0.949 . S
C353 C354 1.349 . S
C353 C355 1.327 1_554 S
C353 H376 0.950 . S
C354 C353 1.349 . S
C354 C366 1.349 . S
C355 C353 1.327 1_556 S
C355 C371 1.429 . S
C355 H377 0.950 . S
C356 H352 0.949 . S
C356 C364 1.574 . S
C356 C372 1.368 . S
H357 C365 0.950 . S
H358 C363 0.950 . S
H359 C364 0.949 . S
H360 C366 0.950 . S
H361 C367 0.950 . S
H362 C368 0.949 . S
C363 H358 0.950 . S
C363 C365 1.327 . S
C363 C369 1.429 . S
C364 C356 1.574 . S
C364 H359 0.949 . S
C364 C370 1.368 . S
C365 C349 1.349 . S
C365 H357 0.950 . S
C365 C363 1.327 . S
C366 C354 1.349 . S
C366 H360 0.950 . S
C366 C367 1.327 1_554 S
C367 H361 0.950 . S
C367 C366 1.327 1_556 S
C367 C371 1.429 . S
C368 C351 1.574 . S
C368 H362 0.949 . S
C368 C372 1.368 . S
C369 C350 1.429 . S
C369 C363 1.429 . S
C369 C370 1.523 . S
C370 C351 1.368 . S
C370 C364 1.368 . S
C370 C369 1.523 . S
C371 C355 1.429 . S
C371 C367 1.429 . S
C371 C372 1.523 . S
C372 C356 1.368 . S
C372 C368 1.368 . S
C372 C371 1.523 . S
H373 C348 0.950 . S
H374 C350 0.950 . S
H375 C351 0.949 . S
H376 C353 0.950 . S
H377 C355 0.950 . S
C378 C379 1.349 1_554 S
C378 C380 1.327 . S
C378 H403 0.950 . S
C379 C378 1.349 1_556 S
C379 C395 1.349 . S
C380 C378 1.327 . S
C380 C399 1.429 . S
C380 H404 0.950 . S
C381 C398 1.574 . S
C381 C400 1.368 . S
C381 H405 0.949 . S
H382 C386 0.949 . S
C383 C384 1.349 . S
C383 C385 1.327 . S
C383 H406 0.950 . S
C384 C383 1.349 . S
C384 C396 1.349 . S
C385 C383 1.327 . S
C385 C401 1.429 . S
C385 H407 0.950 . S
C386 H382 0.949 . S
C386 C394 1.574 . S
C386 C402 1.368 . S
H387 C395 0.950 . S
H388 C393 0.950 . S
H389 C394 0.949 . S
H390 C396 0.950 . S
H391 C397 0.950 . S
H392 C398 0.949 . S
C393 H388 0.950 . S
C393 C395 1.327 1_554 S
C393 C399 1.429 . S
C394 C386 1.574 . S
C394 H389 0.949 . S
C394 C400 1.368 . S
C395 C379 1.349 . S
C395 H387 0.950 . S
C395 C393 1.327 1_556 S
C396 C384 1.349 . S
C396 H390 0.950 . S
C396 C397 1.327 . S
C397 H391 0.950 . S
C397 C396 1.327 . S
C397 C401 1.429 . S
C398 C381 1.574 . S
C398 H392 0.949 . S
C398 C402 1.368 . S
C399 C380 1.429 . S
C399 C393 1.429 . S
C399 C400 1.523 . S
C400 C381 1.368 . S
C400 C394 1.368 . S
C400 C399 1.523 . S
C401 C385 1.429 . S
C401 C397 1.429 . S
C401 C402 1.523 . S
C402 C386 1.368 . S
C402 C398 1.368 . S
C402 C401 1.523 . S
H403 C378 0.950 . S
H404 C380 0.950 . S
H405 C381 0.949 . S
H406 C383 0.950 . S
H407 C385 0.950 . S
C408 C409 1.349 . S
C408 C410 1.327 . S
C408 H433 0.950 . S
C409 C408 1.349 . S
C409 C425 1.349 . S
C410 C408 1.327 . S
C410 C429 1.429 . S
C410 H434 0.950 . S
C411 C428 1.574 . S
C411 C430 1.368 . S
C411 H435 0.949 . S
H412 C416 0.949 . S
C413 C414 1.349 . S
C413 C415 1.327 . S
C413 H436 0.950 . S
C414 C413 1.349 . S
C414 C426 1.349 . S
C415 C413 1.327 . S
C415 C431 1.429 . S
C415 H437 0.950 . S
C416 H412 0.949 . S
C416 C424 1.574 . S
C416 C432 1.368 . S
H417 C425 0.950 . S
H418 C423 0.950 . S
H419 C424 0.949 . S
H420 C426 0.950 . S
H421 C427 0.950 . S
H422 C428 0.949 . S
C423 H418 0.950 . S
C423 C425 1.327 . S
C423 C429 1.429 . S
C424 C416 1.574 . S
C424 H419 0.949 . S
C424 C430 1.368 . S
C425 C409 1.349 . S
C425 H417 0.950 . S
C425 C423 1.327 . S
C426 C414 1.349 . S
C426 H420 0.950 . S
C426 C427 1.327 . S
C427 H421 0.950 . S
C427 C426 1.327 . S
C427 C431 1.429 . S
C428 C411 1.574 . S
C428 H422 0.949 . S
C428 C432 1.368 . S
C429 C410 1.429 . S
C429 C423 1.429 . S
C429 C430 1.523 . S
C430 C411 1.368 . S
C430 C424 1.368 . S
C430 C429 1.523 . S
C431 C415 1.429 . S
C431 C427 1.429 . S
C431 C432 1.523 . S
C432 C416 1.368 . S
C432 C428 1.368 . S
C432 C431 1.523 . S
H433 C408 0.950 . S
H434 C410 0.950 . S
H435 C411 0.949 . S
H436 C413 0.950 . S
H437 C415 0.950 . S
C79 C5 1.389 . S
C84 C65 1.387 . S
C109 C0 1.387 . S
C114 C18 1.389 . S
C139 C31 1.389 . S
C144 C13 1.387 . S
C169 C44 1.389 . S
C174 C26 1.387 . S
C199 C57 1.389 . S
C204 C39 1.387 . S
C229 C70 1.389 . S
C234 C52 1.387 . S
C259 C10 1.530 . S
C264 C60 1.512 . S
C289 C73 1.512 . S
C294 C23 1.530 . S
C319 C36 1.530 . S
C324 C8 1.512 . S
C349 C21 1.512 . S
C354 C49 1.530 . S
C379 C34 1.512 . S
C384 C62 1.530 . S
C409 C75 1.530 . S
C414 C47 1.512 . S
