# Generated by pormake.
# Topology lta, (4)-cn, num edge types: 1
# Building blocks:
#     Node 0, Type 0, BuildingBlock: CEKHIL_clean_sbu_0, # of connection points: 4
#     Node 1, Type 0, BuildingBlock: CEKHIL_clean_sbu_0, # of connection points: 4
#     Node 2, Type 0, BuildingBlock: CEKHIL_clean_sbu_0, # of connection points: 4
#     Node 3, Type 0, BuildingBlock: CEKHIL_clean_sbu_0, # of connection points: 4
#     Node 4, Type 0, BuildingBlock: CEKHIL_clean_sbu_0, # of connection points: 4
#     Node 5, Type 0, BuildingBlock: CEKHIL_clean_sbu_0, # of connection points: 4
#     Node 6, Type 0, BuildingBlock: CEKHIL_clean_sbu_0, # of connection points: 4
#     Node 7, Type 0, BuildingBlock: CEKHIL_clean_sbu_0, # of connection points: 4
#     Node 8, Type 0, BuildingBlock: CEKHIL_clean_sbu_0, # of connection points: 4
#     Node 9, Type 0, BuildingBlock: CEKHIL_clean_sbu_0, # of connection points: 4
#     Node 10, Type 0, BuildingBlock: CEKHIL_clean_sbu_0, # of connection points: 4
#     Node 11, Type 0, BuildingBlock: CEKHIL_clean_sbu_0, # of connection points: 4
#     Node 12, Type 0, BuildingBlock: CEKHIL_clean_sbu_0, # of connection points: 4
#     Node 13, Type 0, BuildingBlock: CEKHIL_clean_sbu_0, # of connection points: 4
#     Node 14, Type 0, BuildingBlock: CEKHIL_clean_sbu_0, # of connection points: 4
#     Node 15, Type 0, BuildingBlock: CEKHIL_clean_sbu_0, # of connection points: 4
#     Node 16, Type 0, BuildingBlock: CEKHIL_clean_sbu_0, # of connection points: 4
#     Node 17, Type 0, BuildingBlock: CEKHIL_clean_sbu_0, # of connection points: 4
#     Node 18, Type 0, BuildingBlock: CEKHIL_clean_sbu_0, # of connection points: 4
#     Node 19, Type 0, BuildingBlock: CEKHIL_clean_sbu_0, # of connection points: 4
#     Node 20, Type 0, BuildingBlock: CEKHIL_clean_sbu_0, # of connection points: 4
#     Node 21, Type 0, BuildingBlock: CEKHIL_clean_sbu_0, # of connection points: 4
#     Node 22, Type 0, BuildingBlock: CEKHIL_clean_sbu_0, # of connection points: 4
#     Node 23, Type 0, BuildingBlock: CEKHIL_clean_sbu_0, # of connection points: 4
#     Edge 24, Type (0, 0), BuildingBlock: EZIPEK_clean_linker_0, # of connection points: 2
#     Edge 25, Type (0, 0), BuildingBlock: EZIPEK_clean_linker_0, # of connection points: 2
#     Edge 26, Type (0, 0), BuildingBlock: EZIPEK_clean_linker_0, # of connection points: 2
#     Edge 27, Type (0, 0), BuildingBlock: EZIPEK_clean_linker_0, # of connection points: 2
#     Edge 28, Type (0, 0), BuildingBlock: EZIPEK_clean_linker_0, # of connection points: 2
#     Edge 29, Type (0, 0), BuildingBlock: EZIPEK_clean_linker_0, # of connection points: 2
#     Edge 30, Type (0, 0), BuildingBlock: EZIPEK_clean_linker_0, # of connection points: 2
#     Edge 31, Type (0, 0), BuildingBlock: EZIPEK_clean_linker_0, # of connection points: 2
#     Edge 32, Type (0, 0), BuildingBlock: EZIPEK_clean_linker_0, # of connection points: 2
#     Edge 33, Type (0, 0), BuildingBlock: EZIPEK_clean_linker_0, # of connection points: 2
#     Edge 34, Type (0, 0), BuildingBlock: EZIPEK_clean_linker_0, # of connection points: 2
#     Edge 35, Type (0, 0), BuildingBlock: EZIPEK_clean_linker_0, # of connection points: 2
#     Edge 36, Type (0, 0), BuildingBlock: EZIPEK_clean_linker_0, # of connection points: 2
#     Edge 37, Type (0, 0), BuildingBlock: EZIPEK_clean_linker_0, # of connection points: 2
#     Edge 38, Type (0, 0), BuildingBlock: EZIPEK_clean_linker_0, # of connection points: 2
#     Edge 39, Type (0, 0), BuildingBlock: EZIPEK_clean_linker_0, # of connection points: 2
#     Edge 40, Type (0, 0), BuildingBlock: EZIPEK_clean_linker_0, # of connection points: 2
#     Edge 41, Type (0, 0), BuildingBlock: EZIPEK_clean_linker_0, # of connection points: 2
#     Edge 42, Type (0, 0), BuildingBlock: EZIPEK_clean_linker_0, # of connection points: 2
#     Edge 43, Type (0, 0), BuildingBlock: EZIPEK_clean_linker_0, # of connection points: 2
#     Edge 44, Type (0, 0), BuildingBlock: EZIPEK_clean_linker_0, # of connection points: 2
#     Edge 45, Type (0, 0), BuildingBlock: EZIPEK_clean_linker_0, # of connection points: 2
#     Edge 46, Type (0, 0), BuildingBlock: EZIPEK_clean_linker_0, # of connection points: 2
#     Edge 47, Type (0, 0), BuildingBlock: EZIPEK_clean_linker_0, # of connection points: 2
#     Edge 48, Type (0, 0), BuildingBlock: EZIPEK_clean_linker_0, # of connection points: 2
#     Edge 49, Type (0, 0), BuildingBlock: EZIPEK_clean_linker_0, # of connection points: 2
#     Edge 50, Type (0, 0), BuildingBlock: EZIPEK_clean_linker_0, # of connection points: 2
#     Edge 51, Type (0, 0), BuildingBlock: EZIPEK_clean_linker_0, # of connection points: 2
#     Edge 52, Type (0, 0), BuildingBlock: EZIPEK_clean_linker_0, # of connection points: 2
#     Edge 53, Type (0, 0), BuildingBlock: EZIPEK_clean_linker_0, # of connection points: 2
#     Edge 54, Type (0, 0), BuildingBlock: EZIPEK_clean_linker_0, # of connection points: 2
#     Edge 55, Type (0, 0), BuildingBlock: EZIPEK_clean_linker_0, # of connection points: 2
#     Edge 56, Type (0, 0), BuildingBlock: EZIPEK_clean_linker_0, # of connection points: 2
#     Edge 57, Type (0, 0), BuildingBlock: EZIPEK_clean_linker_0, # of connection points: 2
#     Edge 58, Type (0, 0), BuildingBlock: EZIPEK_clean_linker_0, # of connection points: 2
#     Edge 59, Type (0, 0), BuildingBlock: EZIPEK_clean_linker_0, # of connection points: 2
#     Edge 60, Type (0, 0), BuildingBlock: EZIPEK_clean_linker_0, # of connection points: 2
#     Edge 61, Type (0, 0), BuildingBlock: EZIPEK_clean_linker_0, # of connection points: 2
#     Edge 62, Type (0, 0), BuildingBlock: EZIPEK_clean_linker_0, # of connection points: 2
#     Edge 63, Type (0, 0), BuildingBlock: EZIPEK_clean_linker_0, # of connection points: 2
#     Edge 64, Type (0, 0), BuildingBlock: EZIPEK_clean_linker_0, # of connection points: 2
#     Edge 65, Type (0, 0), BuildingBlock: EZIPEK_clean_linker_0, # of connection points: 2
#     Edge 66, Type (0, 0), BuildingBlock: EZIPEK_clean_linker_0, # of connection points: 2
#     Edge 67, Type (0, 0), BuildingBlock: EZIPEK_clean_linker_0, # of connection points: 2
#     Edge 68, Type (0, 0), BuildingBlock: EZIPEK_clean_linker_0, # of connection points: 2
#     Edge 69, Type (0, 0), BuildingBlock: EZIPEK_clean_linker_0, # of connection points: 2
#     Edge 70, Type (0, 0), BuildingBlock: EZIPEK_clean_linker_0, # of connection points: 2
#     Edge 71, Type (0, 0), BuildingBlock: EZIPEK_clean_linker_0, # of connection points: 2
# Relax obj value: 0.287
# Max RMSD: 0.168
# Mean RMSD: 0.168
data_MOF--net-lta--node1-CEKHIL_clean_sbu_0--edge1-EZIPEK_clean_linker_0
_symmetry_space_group_name_H-M    P1
_symmetry_Int_Tables_number       1
_symmetry_cell_setting            triclinic
loop_
_symmetry_equiv_pos_as_xyz
'x, y, z'
_cell_length_a     40.989907
_cell_length_b     41.035502
_cell_length_c     41.044479
_cell_angle_alpha  90.008892
_cell_angle_beta   90.035163
_cell_angle_gamma 90.091479
loop_
_atom_site_label
_atom_site_type_symbol
_atom_site_fract_x
_atom_site_fract_y
_atom_site_fract_z
_atom_type_partial_charge
Co0 Co 0.14557 0.32369 0.4898 0.0
O1 O 0.19116 0.31232 0.4875 0.0
O2 O 0.15171 0.27887 0.50333 0.0
C3 C 0.14491 0.34808 0.44035 0.0
O4 O 0.09587 0.32602 0.4949 0.0
Co5 Co 0.12187 0.39559 0.48651 0.0
O6 O 0.07749 0.37664 0.48462 0.0
C7 C 0.1485 0.36876 0.54825 0.0
C8 C 0.18249 0.28354 0.49722 0.0
C9 C 0.07256 0.34678 0.49148 0.0
O10 O 0.15103 0.33991 0.53608 0.0
O11 O 0.13991 0.39386 0.53186 0.0
O12 O 0.14143 0.31669 0.44254 0.0
O13 O 0.15002 0.36327 0.46732 0.0
Co14 Co 0.68669 0.14204 0.48967 0.0
O15 O 0.69908 0.18747 0.49063 0.0
O16 O 0.73194 0.14649 0.50295 0.0
C17 C 0.6617 0.14537 0.44046 0.0
O18 O 0.68358 0.09205 0.49035 0.0
Co19 Co 0.61399 0.12047 0.48603 0.0
O20 O 0.63157 0.07568 0.48383 0.0
C21 C 0.64146 0.14419 0.54828 0.0
C22 C 0.72797 0.17767 0.49888 0.0
C23 C 0.6617 0.06949 0.48812 0.0
O24 O 0.6707 0.14451 0.53654 0.0
O25 O 0.61596 0.1383 0.5313 0.0
O26 O 0.69311 0.14155 0.44212 0.0
O27 O 0.64699 0.14875 0.46796 0.0
Co28 Co 0.86184 0.68409 0.49217 0.0
O29 O 0.8166 0.69715 0.49178 0.0
O30 O 0.85802 0.72987 0.50348 0.0
C31 C 0.85846 0.65693 0.4442 0.0
O32 O 0.91171 0.68005 0.49462 0.0
Co33 Co 0.88306 0.6113 0.49115 0.0
O34 O 0.92777 0.6285 0.48513 0.0
C35 C 0.85991 0.64192 0.55262 0.0
C36 C 0.82679 0.72611 0.4993 0.0
C37 C 0.9341 0.65839 0.49052 0.0
O38 O 0.8584 0.67043 0.5395 0.0
O39 O 0.86664 0.61584 0.53689 0.0
O40 O 0.86326 0.68824 0.44438 0.0
O41 O 0.85466 0.64356 0.47228 0.0
Co42 Co 0.32021 0.86262 0.49004 0.0
O43 O 0.31124 0.81635 0.49185 0.0
O44 O 0.27572 0.85504 0.50394 0.0
C45 C 0.34461 0.8599 0.44049 0.0
O46 O 0.31864 0.9124 0.49057 0.0
Co47 Co 0.3898 0.8918 0.48348 0.0
O48 O 0.36792 0.93476 0.48174 0.0
C49 C 0.3667 0.86708 0.54736 0.0
C50 C 0.28166 0.82421 0.49992 0.0
C51 C 0.33752 0.93727 0.48744 0.0
O52 O 0.33738 0.86275 0.53653 0.0
O53 O 0.39081 0.87545 0.52939 0.0
O54 O 0.31305 0.8617 0.44257 0.0
O55 O 0.36008 0.85885 0.46775 0.0
Co56 Co 0.14421 0.68451 0.51436 0.0
O57 O 0.18978 0.69634 0.51464 0.0
O58 O 0.14944 0.72978 0.50164 0.0
C59 C 0.14637 0.65914 0.56345 0.0
O60 O 0.09412 0.68167 0.51229 0.0
Co61 Co 0.12214 0.61215 0.5166 0.0
O62 O 0.07741 0.62984 0.51924 0.0
C63 C 0.14726 0.64024 0.45511 0.0
C64 C 0.18052 0.72532 0.50628 0.0
C65 C 0.07144 0.65991 0.5146 0.0
O66 O 0.14784 0.66918 0.46741 0.0
O67 O 0.14058 0.61461 0.47155 0.0
O68 O 0.14262 0.69052 0.56191 0.0
O69 O 0.15027 0.64462 0.53589 0.0
Co70 Co 0.32083 0.14546 0.51391 0.0
O71 O 0.31234 0.19179 0.51334 0.0
O72 O 0.27639 0.1536 0.50037 0.0
C73 C 0.34564 0.14647 0.56333 0.0
O74 O 0.31878 0.09562 0.51232 0.0
Co75 Co 0.39011 0.11571 0.5186 0.0
O76 O 0.36782 0.07295 0.52111 0.0
C77 C 0.36675 0.14325 0.45608 0.0
C78 C 0.28272 0.1843 0.50493 0.0
C79 C 0.33738 0.07059 0.51547 0.0
O80 O 0.33756 0.14695 0.46732 0.0
O81 O 0.39097 0.13385 0.47333 0.0
O82 O 0.31403 0.1451 0.5614 0.0
O83 O 0.36093 0.14829 0.536 0.0
Co84 Co 0.86324 0.31986 0.51332 0.0
O85 O 0.81762 0.30804 0.5113 0.0
O86 O 0.85845 0.2741 0.50216 0.0
C87 C 0.85838 0.34703 0.56125 0.0
O88 O 0.91329 0.3222 0.51424 0.0
Co89 Co 0.88598 0.39221 0.51493 0.0
O90 O 0.93042 0.37408 0.51903 0.0
C91 C 0.86514 0.36229 0.45266 0.0
C92 C 0.82718 0.27859 0.50506 0.0
C93 C 0.93618 0.34373 0.51611 0.0
O94 O 0.86285 0.33372 0.4657 0.0
O95 O 0.87129 0.3883 0.46869 0.0
O96 O 0.86198 0.3156 0.56109 0.0
O97 O 0.85626 0.36056 0.53303 0.0
Co98 Co 0.68382 0.86009 0.51166 0.0
O99 O 0.69673 0.81486 0.51302 0.0
O100 O 0.72936 0.85563 0.49942 0.0
C101 C 0.6581 0.85819 0.56052 0.0
O102 O 0.68011 0.90982 0.508 0.0
Co103 Co 0.61127 0.88198 0.51434 0.0
O104 O 0.62901 0.92663 0.51872 0.0
C105 C 0.63982 0.85747 0.45239 0.0
C106 C 0.7257 0.8246 0.50481 0.0
C107 C 0.6588 0.93251 0.51223 0.0
O108 O 0.66869 0.85552 0.4648 0.0
O109 O 0.61431 0.86501 0.46868 0.0
O110 O 0.68942 0.86289 0.55924 0.0
O111 O 0.64378 0.8537 0.53298 0.0
Co112 Co 0.49314 0.14166 0.3204 0.0
O113 O 0.49409 0.18714 0.30848 0.0
O114 O 0.50487 0.14639 0.27485 0.0
C115 C 0.44469 0.14536 0.34677 0.0
O116 O 0.49344 0.09164 0.32296 0.0
Co117 Co 0.49137 0.11934 0.39274 0.0
O118 O 0.48786 0.07476 0.3748 0.0
C119 C 0.55314 0.14281 0.36373 0.0
C120 C 0.50109 0.17756 0.2792 0.0
C121 C 0.49138 0.06887 0.34454 0.0
O122 O 0.54053 0.14366 0.33491 0.0
O123 O 0.53688 0.13664 0.38958 0.0
O124 O 0.44542 0.14156 0.31538 0.0
O125 O 0.47268 0.14831 0.36076 0.0
Co126 Co 0.86073 0.48936 0.32137 0.0
O127 O 0.81506 0.48674 0.31018 0.0
O128 O 0.85407 0.5034 0.27672 0.0
C129 C 0.86186 0.43951 0.34497 0.0
O130 O 0.91047 0.49486 0.32366 0.0
Co131 Co 0.88479 0.4851 0.39316 0.0
O132 O 0.92904 0.48348 0.37401 0.0
C133 C 0.85793 0.5472 0.36735 0.0
C134 C 0.82338 0.49682 0.28144 0.0
C135 C 0.93388 0.49106 0.34432 0.0
O136 O 0.85513 0.53542 0.33835 0.0
O137 O 0.8668 0.53048 0.39214 0.0
O138 O 0.86515 0.44222 0.31362 0.0
O139 O 0.85667 0.46619 0.36059 0.0
Co140 Co 0.51212 0.85958 0.3198 0.0
O141 O 0.51269 0.81443 0.30665 0.0
O142 O 0.49908 0.85564 0.27453 0.0
C143 C 0.56128 0.85723 0.34499 0.0
O144 O 0.50914 0.90928 0.32391 0.0
Co145 Co 0.51544 0.88076 0.39246 0.0
O146 O 0.52004 0.92553 0.37514 0.0
C147 C 0.45296 0.85724 0.36407 0.0
C148 C 0.50392 0.82453 0.27804 0.0
C149 C 0.51362 0.93172 0.34544 0.0
O150 O 0.4653 0.85544 0.33522 0.0
O151 O 0.46947 0.86429 0.38961 0.0
O152 O 0.55972 0.86191 0.31372 0.0
O153 O 0.5338 0.8528 0.35951 0.0
Co154 Co 0.14315 0.51592 0.31922 0.0
O155 O 0.18885 0.51393 0.30777 0.0
O156 O 0.14813 0.50381 0.27376 0.0
C157 C 0.14761 0.56427 0.34575 0.0
O158 O 0.09306 0.51646 0.32112 0.0
Co159 Co 0.11993 0.51839 0.39134 0.0
O160 O 0.07552 0.5214 0.3728 0.0
C161 C 0.14165 0.45596 0.36263 0.0
C162 C 0.17937 0.50675 0.27849 0.0
C163 C 0.06999 0.51814 0.34243 0.0
O164 O 0.14372 0.46855 0.33386 0.0
O165 O 0.13537 0.47235 0.38836 0.0
O166 O 0.1443 0.56369 0.31428 0.0
O167 O 0.14974 0.53625 0.35966 0.0
Co168 Co 0.49143 0.86098 0.68369 0.0
O169 O 0.48935 0.81562 0.69605 0.0
O170 O 0.50462 0.85574 0.72883 0.0
C171 C 0.44207 0.86063 0.65891 0.0
O172 O 0.49611 0.91072 0.68025 0.0
Co173 Co 0.48799 0.88327 0.61115 0.0
O174 O 0.48478 0.92781 0.62937 0.0
C175 C 0.55015 0.85806 0.6388 0.0
C176 C 0.49857 0.82487 0.72481 0.0
C177 C 0.49195 0.93353 0.65902 0.0
O178 O 0.53799 0.8558 0.66772 0.0
O179 O 0.53365 0.86605 0.61355 0.0
O180 O 0.44397 0.86473 0.69024 0.0
O181 O 0.46924 0.85561 0.6441 0.0
Co182 Co 0.1428 0.49233 0.68464 0.0
O183 O 0.18833 0.49271 0.69665 0.0
O184 O 0.14767 0.50382 0.73027 0.0
C185 C 0.14625 0.44408 0.65792 0.0
O186 O 0.09272 0.49337 0.68194 0.0
Co187 Co 0.12018 0.49088 0.6124 0.0
O188 O 0.07562 0.48677 0.63024 0.0
C189 C 0.14493 0.55221 0.64154 0.0
C190 C 0.17885 0.49982 0.72592 0.0
C191 C 0.06986 0.49085 0.66043 0.0
O192 O 0.14561 0.53965 0.67037 0.0
O193 O 0.13836 0.53599 0.61573 0.0
O194 O 0.1422 0.44458 0.68929 0.0
O195 O 0.14933 0.47211 0.64417 0.0
Co196 Co 0.51475 0.14344 0.68306 0.0
O197 O 0.51392 0.18908 0.69468 0.0
O198 O 0.50282 0.14867 0.72856 0.0
C199 C 0.5634 0.1466 0.65679 0.0
O200 O 0.51425 0.09338 0.68086 0.0
Co201 Co 0.51646 0.12078 0.6108 0.0
O202 O 0.51933 0.07628 0.62903 0.0
C203 C 0.45467 0.14412 0.63956 0.0
C204 C 0.50668 0.17982 0.72401 0.0
C205 C 0.51597 0.07051 0.65933 0.0
O206 O 0.46734 0.1453 0.66836 0.0
O207 O 0.4709 0.13778 0.61374 0.0
O208 O 0.5625 0.14328 0.68824 0.0
O209 O 0.53548 0.14966 0.64272 0.0
Co210 Co 0.86013 0.51457 0.68325 0.0
O211 O 0.8146 0.51618 0.69496 0.0
O212 O 0.85437 0.50103 0.72816 0.0
C213 C 0.85963 0.56416 0.6591 0.0
O214 O 0.90993 0.51042 0.68056 0.0
Co215 Co 0.88339 0.51865 0.61135 0.0
O216 O 0.92779 0.5217 0.62995 0.0
C217 C 0.85709 0.45651 0.63772 0.0
C218 C 0.82348 0.50693 0.72382 0.0
C219 C 0.93305 0.51476 0.65971 0.0
O220 O 0.85506 0.46826 0.66679 0.0
O221 O 0.86527 0.4733 0.61273 0.0
O222 O 0.86356 0.56187 0.69041 0.0
O223 O 0.85496 0.53714 0.64384 0.0
Co224 Co 0.32131 0.4882 0.14359 0.0
O225 O 0.31008 0.49085 0.18926 0.0
O226 O 0.27607 0.50127 0.14876 0.0
C227 C 0.34643 0.43914 0.1483 0.0
O228 O 0.32301 0.48708 0.09362 0.0
Co229 Co 0.3934 0.48345 0.12032 0.0
O230 O 0.37457 0.48065 0.07604 0.0
C231 C 0.36637 0.54713 0.1406 0.0
C232 C 0.28075 0.4982 0.17996 0.0
C233 C 0.34425 0.48466 0.07058 0.0
O234 O 0.33728 0.53522 0.1434 0.0
O235 O 0.39165 0.53 0.1344 0.0
O236 O 0.31496 0.44061 0.14506 0.0
O237 O 0.36122 0.46677 0.15024 0.0
Co238 Co 0.31979 0.51266 0.86192 0.0
O239 O 0.30702 0.51531 0.81671 0.0
O240 O 0.27469 0.49926 0.85691 0.0
C241 C 0.34448 0.56208 0.8623 0.0
O242 O 0.32337 0.50724 0.91146 0.0
Co243 Co 0.39235 0.51581 0.88414 0.0
O244 O 0.37446 0.51739 0.92887 0.0
C245 C 0.36489 0.45431 0.85733 0.0
C246 C 0.2784 0.50566 0.82611 0.0
C247 C 0.34466 0.51055 0.93435 0.0
O248 O 0.33588 0.46636 0.85571 0.0
O249 O 0.39018 0.47074 0.86548 0.0
O250 O 0.31313 0.55997 0.86649 0.0
O251 O 0.35939 0.53509 0.85674 0.0
Co252 Co 0.49084 0.32029 0.86042 0.0
O253 O 0.49166 0.30818 0.8149 0.0
O254 O 0.50355 0.27497 0.8557 0.0
C255 C 0.4419 0.34592 0.85685 0.0
O256 O 0.49171 0.32291 0.91048 0.0
Co257 Co 0.48766 0.3923 0.88344 0.0
O258 O 0.48313 0.37421 0.92783 0.0
C259 C 0.54996 0.36488 0.8591 0.0
C260 C 0.49964 0.27918 0.82454 0.0
C261 C 0.48817 0.34413 0.93343 0.0
O262 O 0.53794 0.33579 0.85792 0.0
O263 O 0.53313 0.39023 0.86587 0.0
O264 O 0.4431 0.31452 0.86072 0.0
O265 O 0.46968 0.36031 0.85395 0.0
Co266 Co 0.68502 0.49158 0.8619 0.0
O267 O 0.69504 0.49182 0.81589 0.0
O268 O 0.73016 0.50364 0.85526 0.0
C269 C 0.65831 0.44308 0.85998 0.0
O270 O 0.68539 0.49312 0.91181 0.0
Co271 Co 0.61482 0.48974 0.88947 0.0
O272 O 0.63537 0.48587 0.93293 0.0
C273 C 0.64128 0.55101 0.86176 0.0
C274 C 0.72454 0.49959 0.82438 0.0
C275 C 0.6659 0.49036 0.93625 0.0
O276 O 0.67019 0.53877 0.85957 0.0
O277 O 0.61613 0.53464 0.87036 0.0
O278 O 0.68992 0.44386 0.86242 0.0
O279 O 0.64419 0.47101 0.85773 0.0
Co280 Co 0.51351 0.68337 0.86015 0.0
O281 O 0.51088 0.69434 0.81443 0.0
O282 O 0.50063 0.72857 0.85475 0.0
C283 C 0.56256 0.65821 0.85566 0.0
O284 O 0.51473 0.6819 0.91011 0.0
Co285 Co 0.51826 0.61135 0.88375 0.0
O286 O 0.52177 0.6305 0.92784 0.0
C287 C 0.45445 0.63852 0.86365 0.0
C288 C 0.50382 0.72374 0.82358 0.0
C289 C 0.51758 0.66078 0.9332 0.0
O290 O 0.46642 0.66752 0.86053 0.0
O291 O 0.47156 0.61327 0.86998 0.0
O292 O 0.56109 0.68966 0.85862 0.0
O293 O 0.5349 0.64344 0.85377 0.0
Co294 Co 0.68303 0.51354 0.14499 0.0
O295 O 0.69209 0.51177 0.19123 0.0
O296 O 0.72747 0.49945 0.15247 0.0
C297 C 0.6589 0.56322 0.14762 0.0
O298 O 0.68434 0.51298 0.09517 0.0
Co299 Co 0.61318 0.52021 0.1164 0.0
O300 O 0.63486 0.52193 0.07333 0.0
C301 C 0.63629 0.4563 0.14086 0.0
C302 C 0.72161 0.50354 0.18331 0.0
C303 C 0.66522 0.51616 0.07051 0.0
O304 O 0.66565 0.46711 0.14502 0.0
O305 O 0.61216 0.47426 0.13264 0.0
O306 O 0.69045 0.56101 0.14578 0.0
O307 O 0.64332 0.53601 0.14889 0.0
Co308 Co 0.49156 0.6834 0.14221 0.0
O309 O 0.48883 0.69561 0.18755 0.0
O310 O 0.50375 0.72874 0.14769 0.0
C311 C 0.44265 0.65758 0.14185 0.0
O312 O 0.49674 0.68046 0.0926 0.0
Co313 Co 0.49002 0.61113 0.11933 0.0
O314 O 0.48736 0.62943 0.07481 0.0
C315 C 0.55103 0.63974 0.14624 0.0
C316 C 0.49757 0.72462 0.17849 0.0
C317 C 0.49355 0.65937 0.06954 0.0
O318 O 0.53834 0.66843 0.14808 0.0
O319 O 0.53514 0.61419 0.13791 0.0
O320 O 0.44404 0.68896 0.13792 0.0
O321 O 0.47004 0.64325 0.14715 0.0
Co322 Co 0.5131 0.31783 0.14286 0.0
O323 O 0.51512 0.3052 0.18811 0.0
O324 O 0.50066 0.27248 0.1476 0.0
C325 C 0.56193 0.34366 0.14382 0.0
O326 O 0.50873 0.3213 0.09311 0.0
Co327 Co 0.51509 0.39036 0.12074 0.0
O328 O 0.51803 0.3726 0.07603 0.0
C329 C 0.45395 0.36174 0.14725 0.0
C330 C 0.50634 0.27638 0.17853 0.0
C331 C 0.51213 0.34268 0.07033 0.0
O332 O 0.46631 0.33288 0.14827 0.0
O333 O 0.47013 0.38733 0.13961 0.0
O334 O 0.56071 0.31232 0.1394 0.0
O335 O 0.5344 0.35787 0.14862 0.0
C336 C 0.11644 0.40179 0.37147 0.0
C337 C 0.14528 0.42045 0.36768 0.0
C338 C 0.17577 0.38014 0.39924 0.0
C339 C 0.14575 0.3661 0.40912 0.0
N340 N 0.08789 0.35978 0.40212 0.0
N341 N 0.20323 0.42595 0.37327 0.0
C342 C 0.11622 0.3752 0.39375 0.0
C343 C 0.17544 0.4086 0.37943 0.0
N344 N 0.08923 0.41049 0.35443 0.0
N345 N 0.20434 0.36641 0.40948 0.0
H346 H 0.2033 0.44609 0.35771 0.0
H347 H 0.22577 0.42102 0.38382 0.0
H348 H 0.20476 0.34534 0.42375 0.0
H349 H 0.22731 0.37406 0.40189 0.0
H350 H 0.06754 0.3973 0.35438 0.0
H351 H 0.08962 0.42988 0.33804 0.0
H352 H 0.06483 0.3673 0.39471 0.0
H353 H 0.08758 0.33947 0.41738 0.0
C354 C 0.63864 0.12267 0.38846 0.0
C355 C 0.64332 0.14953 0.40957 0.0
C356 C 0.59786 0.17819 0.3834 0.0
C357 C 0.58846 0.14849 0.36874 0.0
N358 N 0.60114 0.09371 0.35279 0.0
N359 N 0.63267 0.20557 0.42291 0.0
C360 C 0.60982 0.12136 0.36911 0.0
C361 C 0.62487 0.17845 0.40518 0.0
N362 N 0.66132 0.09838 0.38749 0.0
N363 N 0.58006 0.20557 0.37705 0.0
H364 H 0.65361 0.20674 0.43736 0.0
H365 H 0.61867 0.22667 0.42359 0.0
H366 H 0.56039 0.20524 0.36085 0.0
H367 H 0.58588 0.2287 0.38565 0.0
H368 H 0.66059 0.07913 0.371 0.0
H369 H 0.68249 0.09899 0.40155 0.0
H370 H 0.6132 0.07152 0.35501 0.0
H371 H 0.58094 0.09314 0.33739 0.0
C372 C 0.88043 0.63078 0.39308 0.0
C373 C 0.85389 0.63722 0.41423 0.0
C374 C 0.82375 0.59069 0.39192 0.0
C375 C 0.85168 0.58214 0.37368 0.0
N376 N 0.90099 0.59923 0.34727 0.0
N377 N 0.79673 0.63094 0.42589 0.0
C378 C 0.87806 0.60425 0.37081 0.0
C379 C 0.8242 0.61974 0.41078 0.0
N380 N 0.90858 0.64839 0.39591 0.0
N381 N 0.79765 0.56996 0.39249 0.0
H382 H 0.79662 0.65254 0.43935 0.0
H383 H 0.7737 0.6207 0.42276 0.0
H384 H 0.79641 0.54945 0.37745 0.0
H385 H 0.77791 0.57246 0.40822 0.0
H386 H 0.93019 0.64238 0.38406 0.0
H387 H 0.91062 0.66845 0.41135 0.0
H388 H 0.91981 0.61553 0.34224 0.0
H389 H 0.89924 0.5799 0.33082 0.0
C390 C 0.37946 0.82437 0.4062 0.0
C391 C 0.36254 0.85424 0.40965 0.0
C392 C 0.39613 0.87832 0.3666 0.0
C393 C 0.41771 0.85155 0.36943 0.0
N394 N 0.42821 0.79677 0.38672 0.0
N395 N 0.35017 0.90782 0.38983 0.0
C396 C 0.40831 0.82344 0.38702 0.0
C397 C 0.36894 0.88044 0.38814 0.0
N398 N 0.36799 0.7973 0.42184 0.0
N399 N 0.40241 0.90184 0.34394 0.0
H400 H 0.32922 0.90881 0.40419 0.0
H401 H 0.35537 0.9294 0.37757 0.0
H402 H 0.42216 0.90015 0.328 0.0
H403 H 0.38706 0.92144 0.33922 0.0
H404 H 0.37789 0.77413 0.41919 0.0
H405 H 0.34654 0.79775 0.43553 0.0
H406 H 0.42507 0.77652 0.40164 0.0
H407 H 0.44857 0.79541 0.3715 0.0
C408 C 0.18066 0.59461 0.6178 0.0
C409 C 0.15251 0.58709 0.63621 0.0
C410 C 0.1258 0.63695 0.6171 0.0
C411 C 0.15147 0.64095 0.59431 0.0
N412 N 0.20795 0.63246 0.58125 0.0
N413 N 0.10381 0.60543 0.66255 0.0
C414 C 0.18062 0.62272 0.59764 0.0
C415 C 0.12702 0.61011 0.6392 0.0
N416 N 0.2064 0.5735 0.61825 0.0
N417 N 0.09991 0.65781 0.6165 0.0
H418 H 0.10565 0.58647 0.67935 0.0
H419 H 0.08453 0.62125 0.66704 0.0
H420 H 0.09939 0.67829 0.60149 0.0
H421 H 0.07899 0.65505 0.63054 0.0
H422 H 0.22643 0.57512 0.60278 0.0
H423 H 0.20713 0.55365 0.63417 0.0
H424 H 0.2307 0.62155 0.58381 0.0
H425 H 0.20834 0.65356 0.56704 0.0
C426 C 0.38191 0.17944 0.59942 0.0
C427 C 0.36391 0.15032 0.59433 0.0
C428 C 0.39847 0.12147 0.63329 0.0
C429 C 0.41924 0.14912 0.63458 0.0
N430 N 0.42638 0.20666 0.62814 0.0
N431 N 0.34713 0.09811 0.61456 0.0
C432 C 0.40911 0.17907 0.621 0.0
C433 C 0.36939 0.12286 0.61433 0.0
N434 N 0.37361 0.20684 0.58244 0.0
N435 N 0.4079 0.09338 0.64835 0.0
H436 H 0.32555 0.09935 0.60114 0.0
H437 H 0.34849 0.07805 0.63 0.0
H438 H 0.42845 0.09254 0.66329 0.0
H439 H 0.39614 0.07107 0.64548 0.0
H440 H 0.3873 0.22819 0.58224 0.0
H441 H 0.35262 0.20794 0.56805 0.0
H442 H 0.4199 0.22991 0.62044 0.0
H443 H 0.44622 0.20628 0.64413 0.0
C444 C 0.82282 0.41413 0.61144 0.0
C445 C 0.84996 0.42171 0.63134 0.0
C446 C 0.87727 0.37133 0.61461 0.0
C447 C 0.85236 0.36654 0.59109 0.0
N448 N 0.79656 0.37512 0.57534 0.0
N449 N 0.89699 0.4032 0.66078 0.0
C450 C 0.82334 0.38521 0.59245 0.0
C451 C 0.87506 0.39852 0.63617 0.0
N452 N 0.79754 0.4357 0.60949 0.0
N453 N 0.9037 0.35114 0.61495 0.0
H454 H 0.89527 0.42292 0.67673 0.0
H455 H 0.91506 0.38658 0.66708 0.0
H456 H 0.9052 0.3305 0.60024 0.0
H457 H 0.9244 0.35507 0.62908 0.0
H458 H 0.77862 0.43393 0.59267 0.0
H459 H 0.79615 0.45614 0.6246 0.0
H460 H 0.77384 0.38629 0.57672 0.0
H461 H 0.79647 0.3535 0.56191 0.0
C462 C 0.60645 0.87971 0.63398 0.0
C463 C 0.58532 0.85243 0.63305 0.0
C464 C 0.62328 0.82435 0.59677 0.0
C465 C 0.63945 0.85442 0.59124 0.0
N466 N 0.64905 0.9103 0.60639 0.0
N467 N 0.57505 0.79696 0.61788 0.0
C468 C 0.63247 0.8818 0.61108 0.0
C469 C 0.5947 0.82382 0.61636 0.0
N470 N 0.60089 0.90374 0.65625 0.0
N471 N 0.63523 0.79659 0.58282 0.0
H472 H 0.5549 0.79591 0.63342 0.0
H473 H 0.5781 0.77634 0.60343 0.0
H474 H 0.65649 0.79662 0.56881 0.0
H475 H 0.62599 0.77341 0.58738 0.0
H476 H 0.61645 0.92348 0.65986 0.0
H477 H 0.58189 0.90213 0.67312 0.0
H478 H 0.64258 0.93228 0.61726 0.0
H479 H 0.66873 0.91213 0.59042 0.0
C480 C 0.38852 0.17812 0.41167 0.0
C481 C 0.37383 0.14841 0.42107 0.0
C482 C 0.39321 0.12272 0.37072 0.0
C483 C 0.41429 0.14955 0.3659 0.0
N484 N 0.42836 0.20534 0.37714 0.0
N485 N 0.35994 0.09274 0.40922 0.0
C486 C 0.41033 0.17834 0.38467 0.0
C487 C 0.37474 0.12104 0.39996 0.0
N488 N 0.38208 0.20564 0.42925 0.0
N489 N 0.39134 0.09874 0.34775 0.0
H490 H 0.34576 0.09145 0.43017 0.0
H491 H 0.36293 0.07059 0.39722 0.0
H492 H 0.40474 0.09952 0.3262 0.0
H493 H 0.37447 0.07977 0.34864 0.0
H494 H 0.39046 0.22876 0.42307 0.0
H495 H 0.36596 0.20548 0.44894 0.0
H496 H 0.4295 0.22618 0.39152 0.0
H497 H 0.44272 0.2066 0.35617 0.0
C498 C 0.83193 0.3771 0.40417 0.0
C499 C 0.8622 0.36676 0.41699 0.0
C500 C 0.89139 0.39373 0.37238 0.0
C501 C 0.86158 0.408 0.36253 0.0
N502 N 0.80307 0.40612 0.36118 0.0
N503 N 0.91901 0.35595 0.40886 0.0
C504 C 0.8316 0.39692 0.3757 0.0
C505 C 0.89136 0.37167 0.39915 0.0
N506 N 0.80394 0.36963 0.42061 0.0
N507 N 0.9197 0.40292 0.35742 0.0
H508 H 0.91873 0.33974 0.4284 0.0
H509 H 0.94111 0.35685 0.39646 0.0
H510 H 0.91981 0.41793 0.33693 0.0
H511 H 0.94286 0.3963 0.36534 0.0
H512 H 0.78108 0.379 0.41488 0.0
H513 H 0.80399 0.35406 0.44074 0.0
H514 H 0.78017 0.39775 0.36821 0.0
H515 H 0.80272 0.42042 0.34013 0.0
C516 C 0.59772 0.82342 0.37956 0.0
C517 C 0.5922 0.85344 0.36336 0.0
C518 C 0.63527 0.8788 0.39607 0.0
C519 C 0.63432 0.85162 0.41725 0.0
N520 N 0.61907 0.7962 0.42768 0.0
N521 N 0.60769 0.90915 0.35337 0.0
C522 C 0.61752 0.82298 0.40799 0.0
C523 C 0.61226 0.88079 0.37011 0.0
N524 N 0.58353 0.79566 0.3678 0.0
N525 N 0.65762 0.90284 0.40156 0.0
H526 H 0.59169 0.91086 0.3337 0.0
H527 H 0.61874 0.93114 0.35962 0.0
H528 H 0.67455 0.90127 0.42052 0.0
H529 H 0.66124 0.92254 0.386 0.0
H530 H 0.58805 0.7725 0.37707 0.0
H531 H 0.56931 0.79564 0.34668 0.0
H532 H 0.60455 0.77558 0.42475 0.0
H533 H 0.63472 0.79524 0.44775 0.0
C534 C 0.18238 0.61565 0.41255 0.0
C535 C 0.15473 0.63473 0.4202 0.0
C536 C 0.12775 0.61731 0.3698 0.0
C537 C 0.15315 0.59439 0.36504 0.0
N538 N 0.20922 0.57982 0.37377 0.0
N539 N 0.10735 0.66324 0.40147 0.0
C540 C 0.18217 0.59648 0.38372 0.0
C541 C 0.12957 0.63897 0.39695 0.0
N542 N 0.20785 0.61466 0.434 0.0
N543 N 0.10133 0.61706 0.34955 0.0
H544 H 0.10958 0.67978 0.42062 0.0
H545 H 0.08893 0.66898 0.385 0.0
H546 H 0.10013 0.60225 0.32895 0.0
H547 H 0.08039 0.63081 0.35337 0.0
H548 H 0.22735 0.59856 0.43219 0.0
H549 H 0.20888 0.62995 0.45432 0.0
H550 H 0.23193 0.58161 0.38498 0.0
H551 H 0.2095 0.56622 0.35226 0.0
C552 C 0.37812 0.83514 0.5981 0.0
C553 C 0.37383 0.86575 0.58277 0.0
C554 C 0.40041 0.89275 0.62915 0.0
C555 C 0.41131 0.86209 0.64007 0.0
N556 N 0.4084 0.80367 0.63825 0.0
N557 N 0.38038 0.92424 0.58357 0.0
C558 C 0.39886 0.83308 0.62593 0.0
C559 C 0.38408 0.89484 0.59872 0.0
N560 N 0.36334 0.80816 0.58533 0.0
N561 N 0.40664 0.91981 0.64748 0.0
H562 H 0.36882 0.92661 0.56111 0.0
H563 H 0.39055 0.9459 0.59208 0.0
H564 H 0.41842 0.91833 0.66995 0.0
H565 H 0.39737 0.94282 0.6422 0.0
H566 H 0.36362 0.78536 0.59641 0.0
H567 H 0.34844 0.80927 0.56475 0.0
H568 H 0.40345 0.78139 0.62718 0.0
H569 H 0.42225 0.80182 0.65954 0.0
C570 C 0.12725 0.39091 0.63342 0.0
C571 C 0.1524 0.41401 0.63882 0.0
C572 C 0.18254 0.39365 0.5916 0.0
C573 C 0.15509 0.37453 0.58321 0.0
N574 N 0.10689 0.34597 0.60017 0.0
N575 N 0.20863 0.42889 0.63152 0.0
C576 C 0.12941 0.36986 0.60583 0.0
C577 C 0.18178 0.41232 0.62072 0.0
N578 N 0.10075 0.39045 0.65353 0.0
N579 N 0.20835 0.39521 0.57062 0.0
H580 H 0.20847 0.44202 0.65331 0.0
H581 H 0.23154 0.42735 0.62075 0.0
H582 H 0.20979 0.38031 0.55003 0.0
H583 H 0.22772 0.41144 0.57305 0.0
H584 H 0.07989 0.3766 0.64936 0.0
H585 H 0.09954 0.40459 0.67459 0.0
H586 H 0.08816 0.33992 0.61615 0.0
H587 H 0.10856 0.33043 0.58011 0.0
C588 C 0.61541 0.12401 0.63346 0.0
C589 C 0.59397 0.15067 0.63777 0.0
C590 C 0.62032 0.17937 0.5924 0.0
C591 C 0.63552 0.14985 0.58342 0.0
N592 N 0.65171 0.09524 0.59657 0.0
N593 N 0.58002 0.20645 0.62641 0.0
C594 C 0.63509 0.12279 0.60489 0.0
C595 C 0.59815 0.1795 0.61908 0.0
N596 N 0.61645 0.09983 0.65625 0.0
N597 N 0.62669 0.20678 0.57461 0.0
H598 H 0.56538 0.20768 0.64718 0.0
H599 H 0.57916 0.22736 0.61213 0.0
H600 H 0.64322 0.2066 0.55525 0.0
H601 H 0.6178 0.22983 0.58022 0.0
H602 H 0.63325 0.08085 0.65585 0.0
H603 H 0.60211 0.10023 0.6772 0.0
H604 H 0.64943 0.07306 0.60866 0.0
H605 H 0.66738 0.09468 0.57661 0.0
C606 C 0.82575 0.60174 0.62601 0.0
C607 C 0.85597 0.59548 0.64158 0.0
C608 C 0.88166 0.63808 0.60875 0.0
C609 C 0.85422 0.63753 0.58789 0.0
N610 N 0.79812 0.62406 0.57852 0.0
N611 N 0.91203 0.61004 0.65116 0.0
C612 C 0.82526 0.62163 0.59768 0.0
C613 C 0.88358 0.61507 0.63464 0.0
N614 N 0.7979 0.58807 0.63817 0.0
N615 N 0.90596 0.66007 0.60303 0.0
H616 H 0.91356 0.59406 0.67083 0.0
H617 H 0.93415 0.62079 0.64478 0.0
H618 H 0.9043 0.67705 0.58415 0.0
H619 H 0.92597 0.66334 0.61833 0.0
H620 H 0.77465 0.593 0.62928 0.0
H621 H 0.79801 0.57382 0.65925 0.0
H622 H 0.77703 0.61032 0.58189 0.0
H623 H 0.79729 0.63977 0.55851 0.0
C624 C 0.36888 0.38542 0.12848 0.0
C625 C 0.36477 0.40849 0.15386 0.0
C626 C 0.4119 0.38628 0.18287 0.0
C627 C 0.41915 0.36724 0.15511 0.0
N628 N 0.39993 0.33924 0.10758 0.0
N629 N 0.37387 0.42282 0.20988 0.0
C630 C 0.39572 0.36337 0.13006 0.0
C631 C 0.38344 0.40598 0.18281 0.0
N632 N 0.34841 0.38598 0.10225 0.0
N633 N 0.43348 0.38683 0.20824 0.0
H634 H 0.35261 0.4368 0.2102 0.0
H635 H 0.38512 0.42083 0.23252 0.0
H636 H 0.45358 0.37122 0.20907 0.0
H637 H 0.43198 0.40282 0.22786 0.0
H638 H 0.35175 0.37207 0.08134 0.0
H639 H 0.32806 0.40115 0.10123 0.0
H640 H 0.3832 0.3337 0.08933 0.0
H641 H 0.41939 0.32294 0.109 0.0
C642 C 0.40349 0.62608 0.83297 0.0
C643 C 0.41874 0.63293 0.8631 0.0
C644 C 0.37377 0.60616 0.89222 0.0
C645 C 0.36292 0.59316 0.86224 0.0
N646 N 0.36324 0.59361 0.80371 0.0
N647 N 0.41764 0.633 0.92167 0.0
C648 C 0.37609 0.60465 0.8324 0.0
C649 C 0.40306 0.62479 0.89287 0.0
N650 N 0.41606 0.63928 0.80512 0.0
N651 N 0.35652 0.59974 0.91994 0.0
H652 H 0.43866 0.6473 0.92254 0.0
H653 H 0.40982 0.62494 0.94439 0.0
H654 H 0.33498 0.5862 0.91953 0.0
H655 H 0.36175 0.60992 0.94256 0.0
H656 H 0.40544 0.63686 0.78223 0.0
H657 H 0.43614 0.65496 0.80554 0.0
H658 H 0.37339 0.5981 0.78093 0.0
H659 H 0.34223 0.57921 0.80293 0.0
C660 C 0.40905 0.38322 0.82231 0.0
C661 C 0.41134 0.36454 0.85126 0.0
C662 C 0.36684 0.39632 0.87525 0.0
C663 C 0.3708 0.41949 0.84997 0.0
N664 N 0.39042 0.43333 0.79674 0.0
N665 N 0.38822 0.34811 0.9025 0.0
C666 C 0.3897 0.41191 0.8222 0.0
C667 C 0.38829 0.36897 0.87662 0.0
N668 N 0.42569 0.37336 0.79522 0.0
N669 N 0.34326 0.40129 0.89819 0.0
H670 H 0.40267 0.32724 0.90309 0.0
H671 H 0.37427 0.35134 0.9234 0.0
H672 H 0.3274 0.42113 0.89704 0.0
H673 H 0.33781 0.38504 0.91685 0.0
H674 H 0.42383 0.38457 0.77257 0.0
H675 H 0.43935 0.3519 0.7949 0.0
H676 H 0.40637 0.43157 0.77711 0.0
H677 H 0.37504 0.45358 0.79582 0.0
C678 C 0.63471 0.38952 0.87928 0.0
C679 C 0.6392 0.41282 0.85419 0.0
C680 C 0.5922 0.39086 0.82452 0.0
C681 C 0.58485 0.37113 0.85181 0.0
N682 N 0.60424 0.34228 0.89866 0.0
N683 N 0.63043 0.4278 0.79825 0.0
C684 C 0.60811 0.36715 0.87698 0.0
C685 C 0.62067 0.41066 0.82508 0.0
N686 N 0.6547 0.39001 0.90587 0.0
N687 N 0.57074 0.39187 0.79906 0.0
H688 H 0.6517 0.44181 0.79817 0.0
H689 H 0.61937 0.42594 0.7755 0.0
H690 H 0.55072 0.37615 0.79771 0.0
H691 H 0.57221 0.40845 0.77993 0.0
H692 H 0.65072 0.37625 0.92679 0.0
H693 H 0.67524 0.40497 0.9071 0.0
H694 H 0.62088 0.33668 0.91696 0.0
H695 H 0.58561 0.32516 0.89593 0.0
C696 C 0.61909 0.59302 0.82462 0.0
C697 C 0.63526 0.58579 0.85412 0.0
C698 C 0.61553 0.63691 0.87798 0.0
C699 C 0.59336 0.63968 0.85168 0.0
N700 N 0.57853 0.62607 0.79663 0.0
N701 N 0.65461 0.60269 0.9065 0.0
C702 C 0.59703 0.61977 0.82362 0.0
C703 C 0.63589 0.60887 0.87977 0.0
N704 N 0.62443 0.57353 0.79818 0.0
N705 N 0.61661 0.66063 0.90128 0.0
H706 H 0.6713 0.58362 0.90656 0.0
H707 H 0.65365 0.6159 0.92812 0.0
H708 H 0.60186 0.68126 0.90041 0.0
H709 H 0.63357 0.66124 0.92013 0.0
H710 H 0.61448 0.57746 0.77521 0.0
H711 H 0.641 0.55423 0.79899 0.0
H712 H 0.5776 0.61125 0.77611 0.0
H713 H 0.56387 0.64678 0.79485 0.0
C714 C 0.63606 0.61616 0.12674 0.0
C715 C 0.64106 0.5942 0.15286 0.0
C716 C 0.59405 0.61663 0.18186 0.0
C717 C 0.58599 0.63456 0.15357 0.0
N718 N 0.60366 0.66068 0.1044 0.0
N719 N 0.63311 0.58154 0.20939 0.0
C720 C 0.60882 0.63771 0.12788 0.0
C721 C 0.62286 0.59742 0.182 0.0
N722 N 0.65621 0.61494 0.10033 0.0
N723 N 0.57292 0.6166 0.20758 0.0
H724 H 0.65456 0.56784 0.20973 0.0
H725 H 0.62223 0.58404 0.23214 0.0
H726 H 0.55251 0.6318 0.20818 0.0
H727 H 0.57509 0.60139 0.22775 0.0
H728 H 0.65222 0.62767 0.07878 0.0
H729 H 0.67717 0.60057 0.10011 0.0
H730 H 0.61984 0.66561 0.08552 0.0
H731 H 0.58386 0.67662 0.10544 0.0
C732 C 0.37961 0.59759 0.17164 0.0
C733 C 0.37207 0.58279 0.14147 0.0
C734 C 0.39827 0.62809 0.11238 0.0
C735 C 0.41188 0.63857 0.14223 0.0
N736 N 0.4126 0.63751 0.20076 0.0
N737 N 0.37076 0.58465 0.08294 0.0
C738 C 0.40104 0.62499 0.17214 0.0
C739 C 0.3796 0.59883 0.11174 0.0
N740 N 0.36703 0.58462 0.19959 0.0
N741 N 0.40411 0.64566 0.08474 0.0
H742 H 0.35641 0.56368 0.0821 0.0
H743 H 0.37835 0.59274 0.06015 0.0
H744 H 0.4177 0.66715 0.08508 0.0
H745 H 0.39342 0.64073 0.06227 0.0
H746 H 0.36999 0.59484 0.22259 0.0
H747 H 0.35132 0.56456 0.19922 0.0
H748 H 0.40857 0.62709 0.2235 0.0
H749 H 0.42693 0.65855 0.20155 0.0
C750 C 0.62062 0.40478 0.11244 0.0
C751 C 0.62926 0.42088 0.14193 0.0
C752 C 0.60299 0.37756 0.17344 0.0
C753 C 0.59241 0.36305 0.14389 0.0
N754 N 0.60044 0.35547 0.08658 0.0
N755 N 0.63662 0.41878 0.19997 0.0
C756 C 0.60479 0.37404 0.11381 0.0
C757 C 0.62348 0.40566 0.17233 0.0
N758 N 0.62527 0.42005 0.08323 0.0
N759 N 0.59198 0.3653 0.20236 0.0
H760 H 0.65134 0.43954 0.19948 0.0
H761 H 0.6352 0.40783 0.22279 0.0
H762 H 0.57834 0.34382 0.20362 0.0
H763 H 0.59548 0.37663 0.22478 0.0
H764 H 0.61627 0.41129 0.06118 0.0
H765 H 0.63626 0.44286 0.0814 0.0
H766 H 0.61086 0.36088 0.06409 0.0
H767 H 0.58921 0.3327 0.08765 0.0
C768 C 0.01877 0.3187 0.48095 0.0
C769 C 0.03895 0.33768 0.5016 0.0
C770 C 0.99267 0.34678 0.53837 0.0
C771 C 0.97128 0.33402 0.51441 0.0
N772 N 0.96382 0.30511 0.46361 0.0
N773 N 0.04618 0.36841 0.55123 0.0
C774 C 0.98431 0.31846 0.48622 0.0
C775 C 0.02626 0.35091 0.53096 0.0
N776 N 0.03258 0.30115 0.45627 0.0
N777 N 0.98061 0.35463 0.56838 0.0
H778 H 0.07126 0.37051 0.54757 0.0
H779 H 0.03777 0.3821 0.57085 0.0
H780 H 0.95615 0.3511 0.57435 0.0
H781 H 0.99505 0.36142 0.58812 0.0
H782 H 0.01985 0.28444 0.44203 0.0
H783 H 0.05763 0.3012 0.45186 0.0
H784 H 0.97126 0.29768 0.44054 0.0
H785 H 0.93889 0.30232 0.46734 0.0
C786 C 0.68499 0.02133 0.51954 0.0
C787 C 0.67082 0.03431 0.49061 0.0
C788 C 0.65469 0.97935 0.47341 0.0
C789 C 0.66714 0.96656 0.50307 0.0
N790 N 0.7014 0.97318 0.55015 0.0
N791 N 0.65253 0.02486 0.4358 0.0
C792 C 0.68488 0.98687 0.52469 0.0
C793 C 0.65908 0.01291 0.46616 0.0
N794 N 0.69691 0.04185 0.54289 0.0
N795 N 0.63759 0.95961 0.45265 0.0
H796 H 0.6562 0.0493 0.4299 0.0
H797 H 0.6468 0.01031 0.41581 0.0
H798 H 0.63502 0.9346 0.45629 0.0
H799 H 0.62443 0.96819 0.43272 0.0
H800 H 0.70318 0.03441 0.56631 0.0
H801 H 0.69959 0.06679 0.5393 0.0
H802 H 0.7173 0.98604 0.5652 0.0
H803 H 0.7013 0.94815 0.55456 0.0
C804 C 0.98926 0.68156 0.47602 0.0
C805 C 0.96842 0.66648 0.49905 0.0
C806 C 0.01468 0.65987 0.53645 0.0
C807 C 0.03636 0.66909 0.51121 0.0
N808 N 0.04463 0.68903 0.45651 0.0
N809 N 0.96091 0.64056 0.55131 0.0
C810 C 0.02374 0.68072 0.48104 0.0
C811 C 0.98098 0.65583 0.5295 0.0
N812 N 0.97605 0.69639 0.44931 0.0
N813 N 0.02651 0.65527 0.56721 0.0
H814 H 0.93586 0.63804 0.54768 0.0
H815 H 0.96927 0.62865 0.57209 0.0
H816 H 0.0511 0.65854 0.57281 0.0
H817 H 0.0118 0.65156 0.58755 0.0
H818 H 0.9895 0.71037 0.43295 0.0
H819 H 0.95096 0.69704 0.44512 0.0
H820 H 0.03722 0.69353 0.43267 0.0
H821 H 0.0698 0.68994 0.45961 0.0
C822 C 0.32495 0.01393 0.53524 0.0
C823 C 0.3241 0.03728 0.50986 0.0
C824 C 0.32159 0.99363 0.46931 0.0
C825 C 0.32474 0.97036 0.49455 0.0
N826 N 0.31523 0.95788 0.55114 0.0
N827 N 0.30667 0.0489 0.45502 0.0
C828 C 0.32157 0.98034 0.52747 0.0
C829 C 0.3174 0.027 0.47756 0.0
N830 N 0.33003 0.0238 0.56657 0.0
N831 N 0.32354 0.98398 0.43757 0.0
H832 H 0.30171 0.07307 0.46096 0.0
H833 H 0.29922 0.04229 0.43166 0.0
H834 H 0.32482 0.95949 0.43097 0.0
H835 H 0.32534 1.00027 0.41817 0.0
H836 H 0.33491 0.00777 0.58563 0.0
H837 H 0.33067 0.04836 0.573 0.0
H838 H 0.31016 0.96411 0.57521 0.0
H839 H 0.31196 0.93321 0.546 0.0
C840 C 0.47524 0.97883 0.35005 0.0
C841 C 0.50479 0.96591 0.33745 0.0
C842 C 0.52193 0.02067 0.32037 0.0
C843 C 0.49325 0.0338 0.33491 0.0
N844 N 0.43838 0.02488 0.35339 0.0
N845 N 0.55187 0.97238 0.3032 0.0
C846 C 0.46852 0.01257 0.34639 0.0
C847 C 0.52664 0.98617 0.31998 0.0
N848 N 0.45409 0.95898 0.36654 0.0
N849 N 0.54545 0.04109 0.30857 0.0
H850 H 0.55587 0.94729 0.30284 0.0
H851 H 0.5671 0.98525 0.28751 0.0
H852 H 0.54211 0.06609 0.30623 0.0
H853 H 0.56875 0.03349 0.302 0.0
H854 H 0.43421 0.9675 0.3798 0.0
H855 H 0.4573 0.93385 0.36839 0.0
H856 H 0.41815 0.01058 0.35901 0.0
H857 H 0.4329 0.04947 0.35028 0.0
C858 C 0.988 0.4816 0.31661 0.0
C859 C 0.96742 0.50177 0.33558 0.0
C860 C 0.01312 0.53927 0.34511 0.0
C861 C 0.03497 0.51576 0.33245 0.0
N862 N 0.04329 0.46496 0.30379 0.0
N863 N 0.95969 0.55064 0.36739 0.0
C864 C 0.02242 0.48735 0.3168 0.0
C865 C 0.97971 0.53113 0.34928 0.0
N866 N 0.97464 0.4569 0.29869 0.0
N867 N 0.02456 0.56958 0.35289 0.0
H868 H 0.93476 0.5463 0.36992 0.0
H869 H 0.96799 0.57016 0.38134 0.0
H870 H 0.04889 0.5761 0.34936 0.0
H871 H 0.00963 0.58899 0.35947 0.0
H872 H 0.98771 0.443 0.28199 0.0
H873 H 0.94964 0.45219 0.2984 0.0
H874 H 0.03613 0.44178 0.29632 0.0
H875 H 0.06822 0.46896 0.30142 0.0
C876 C 0.48119 0.98791 0.68579 0.0
C877 C 0.5018 0.96752 0.66707 0.0
C878 C 0.53804 0.01399 0.65651 0.0
C879 C 0.51406 0.03543 0.66905 0.0
N880 N 0.46284 0.04289 0.69726 0.0
N881 N 0.55063 0.96058 0.63496 0.0
C882 C 0.48594 0.02242 0.68484 0.0
C883 C 0.53071 0.98035 0.6529 0.0
N884 N 0.45708 0.97428 0.70428 0.0
N885 N 0.56806 0.026 0.64837 0.0
H886 H 0.54702 0.93551 0.63295 0.0
H887 H 0.56976 0.96917 0.62064 0.0
H888 H 0.57406 0.05051 0.65139 0.0
H889 H 0.58781 0.01144 0.64193 0.0
H890 H 0.44297 0.98735 0.7208 0.0
H891 H 0.45324 0.94918 0.70533 0.0
H892 H 0.43984 0.03519 0.70479 0.0
H893 H 0.46603 0.06798 0.6989 0.0
C894 C 0.98782 0.52827 0.68397 0.0
C895 C 0.96695 0.50555 0.66847 0.0
C896 C 0.01319 0.46847 0.66063 0.0
C897 C 0.03487 0.49371 0.67007 0.0
N898 N 0.04311 0.54804 0.69124 0.0
N899 N 0.95895 0.45343 0.64246 0.0
C900 C 0.02228 0.52351 0.68262 0.0
C901 C 0.97936 0.47523 0.65736 0.0
N902 N 0.97462 0.55442 0.69974 0.0
N903 N 0.02517 0.43793 0.65504 0.0
H904 H 0.93382 0.45696 0.6408 0.0
H905 H 0.96698 0.4327 0.63026 0.0
H906 H 0.04983 0.43248 0.65782 0.0
H907 H 0.01059 0.41756 0.65087 0.0
H908 H 0.98813 0.57051 0.714 0.0
H909 H 0.94949 0.5582 0.70102 0.0
H910 H 0.03558 0.5717 0.69639 0.0
H911 H 0.06831 0.54523 0.69175 0.0
C912 C 0.34909 0.47062 0.98021 0.0
C913 C 0.33622 0.50035 0.96806 0.0
C914 C 0.31925 0.516 0.02323 0.0
C915 C 0.33417 0.48719 0.03566 0.0
N916 N 0.3529 0.4327 0.0254 0.0
N917 N 0.30086 0.54636 0.97567 0.0
C918 C 0.34564 0.46305 0.01381 0.0
C919 C 0.31839 0.52133 0.98884 0.0
N920 N 0.36558 0.45011 0.95978 0.0
N921 N 0.30767 0.53917 0.04412 0.0
H922 H 0.29996 0.55066 0.95065 0.0
H923 H 0.28489 0.56088 0.98897 0.0
H924 H 0.30621 0.53587 0.06919 0.0
H925 H 0.30083 0.56247 0.03682 0.0
H926 H 0.37902 0.43013 0.96773 0.0
H927 H 0.36714 0.45395 0.93472 0.0
H928 H 0.35866 0.41292 0.01062 0.0
H929 H 0.34987 0.42657 0.04985 0.0
C930 C 0.46581 0.34147 0.99009 0.0
C931 C 0.49164 0.33434 0.96829 0.0
C932 C 0.52675 0.32069 0.01502 0.0
C933 C 0.50318 0.33412 0.03627 0.0
N934 N 0.44965 0.35681 0.0448 0.0
N935 N 0.54753 0.31772 0.95987 0.0
C936 C 0.47231 0.34393 0.02405 0.0
C937 C 0.5222 0.32342 0.98068 0.0
N938 N 0.435 0.34563 0.97814 0.0
N939 N 0.55341 0.30539 0.02773 0.0
H940 H 0.54507 0.31872 0.93467 0.0
H941 H 0.57143 0.3139 0.96756 0.0
H942 H 0.55654 0.30239 0.05276 0.0
H943 H 0.57036 0.29277 0.0137 0.0
H944 H 0.41437 0.348 0.99274 0.0
H945 H 0.42977 0.34348 0.9534 0.0
H946 H 0.42822 0.368 0.03708 0.0
H947 H 0.45311 0.3578 0.06995 0.0
C948 C 0.67807 0.46994 0.99282 0.0
C949 C 0.67827 0.49574 0.96993 0.0
C950 C 0.6799 0.53559 0.01429 0.0
C951 C 0.67778 0.50986 0.03715 0.0
N952 N 0.68878 0.4533 0.04846 0.0
N953 N 0.69345 0.55134 0.95906 0.0
C954 C 0.68161 0.4772 0.02651 0.0
C955 C 0.68391 0.52807 0.98074 0.0
N956 N 0.67347 0.43868 0.98245 0.0
N957 N 0.67722 0.5671 0.02455 0.0
H958 H 0.69873 0.5457 0.9349 0.0
H959 H 0.70004 0.57491 0.96585 0.0
H960 H 0.67611 0.57321 0.04916 0.0
H961 H 0.67467 0.58675 0.00869 0.0
H962 H 0.66916 0.41925 0.99822 0.0
H963 H 0.67252 0.43265 0.9578 0.0
H964 H 0.6943 0.42946 0.04173 0.0
H965 H 0.69233 0.45812 0.07315 0.0
C966 C 0.54015 0.66003 0.98957 0.0
C967 C 0.51541 0.67093 0.96808 0.0
C968 C 0.48149 0.68571 0.01536 0.0
C969 C 0.50318 0.66832 0.0358 0.0
N970 N 0.55423 0.64009 0.04331 0.0
N971 N 0.46275 0.69632 0.96032 0.0
C972 C 0.53309 0.65624 0.02323 0.0
C973 C 0.48641 0.68515 0.98091 0.0
N974 N 0.57054 0.65359 0.97754 0.0
N975 N 0.45618 0.70253 0.02892 0.0
H976 H 0.4658 0.69799 0.93522 0.0
H977 H 0.43937 0.70266 0.96789 0.0
H978 H 0.4522 0.70322 0.054 0.0
H979 H 0.44103 0.71813 0.01586 0.0
H980 H 0.59068 0.64831 0.99206 0.0
H981 H 0.57625 0.65683 0.95301 0.0
H982 H 0.57446 0.62723 0.03503 0.0
H983 H 0.55066 0.63816 0.06838 0.0
C984 C 0.2106 0.23448 0.47412 0.0
C985 C 0.20686 0.25706 0.50004 0.0
C986 C 0.25061 0.22994 0.53037 0.0
C987 C 0.25667 0.20944 0.50307 0.0
N988 N 0.24593 0.19568 0.44694 0.0
N989 N 0.22576 0.27944 0.55095 0.0
C990 C 0.23746 0.21249 0.47442 0.0
C991 C 0.22768 0.25578 0.52757 0.0
N992 N 0.18844 0.23403 0.44921 0.0
N993 N 0.26542 0.22367 0.55958 0.0
H994 H 0.20827 0.29788 0.55056 0.0
H995 H 0.2429 0.28213 0.56951 0.0
H996 H 0.2815 0.20437 0.56318 0.0
H997 H 0.25936 0.23558 0.58114 0.0
H998 H 0.18771 0.21588 0.43149 0.0
H999 H 0.16909 0.25042 0.44762 0.0
H1000 H 0.23507 0.19943 0.42432 0.0
H1001 H 0.26594 0.18004 0.44591 0.0
C1002 C 0.77898 0.20365 0.47674 0.0
C1003 C 0.75532 0.20129 0.50194 0.0
C1004 C 0.78208 0.24616 0.53116 0.0
C1005 C 0.80338 0.25107 0.50422 0.0
N1006 N 0.81938 0.23726 0.44942 0.0
N1007 N 0.73195 0.2222 0.55156 0.0
C1008 C 0.80135 0.23034 0.47659 0.0
C1009 C 0.75615 0.22317 0.52866 0.0
N1010 N 0.77991 0.18053 0.45278 0.0
N1011 N 0.78758 0.26231 0.5598 0.0
H1012 H 0.71364 0.20451 0.5517 0.0
H1013 H 0.72881 0.24012 0.56925 0.0
H1014 H 0.80694 0.27844 0.56316 0.0
H1015 H 0.77504 0.25732 0.58128 0.0
H1016 H 0.79872 0.17876 0.43584 0.0
H1017 H 0.76312 0.16148 0.45122 0.0
H1018 H 0.81637 0.22537 0.42722 0.0
H1019 H 0.83551 0.25688 0.4481 0.0
C1020 C 0.79975 0.77573 0.47576 0.0
C1021 C 0.80343 0.75358 0.50209 0.0
C1022 C 0.76008 0.78182 0.532 0.0
C1023 C 0.7536 0.80136 0.50411 0.0
N1024 N 0.76453 0.81414 0.4478 0.0
N1025 N 0.78523 0.73308 0.55401 0.0
C1026 C 0.77294 0.79785 0.47562 0.0
C1027 C 0.78301 0.75591 0.52984 0.0
N1028 N 0.82179 0.77547 0.45078 0.0
N1029 N 0.74541 0.78897 0.56106 0.0
H1030 H 0.80286 0.71478 0.55418 0.0
H1031 H 0.76831 0.731 0.57282 0.0
H1032 H 0.7294 0.80845 0.56406 0.0
H1033 H 0.75157 0.77776 0.58296 0.0
H1034 H 0.82259 0.79323 0.43268 0.0
H1035 H 0.84102 0.75891 0.44949 0.0
H1036 H 0.77536 0.80988 0.42527 0.0
H1037 H 0.74474 0.83001 0.44647 0.0
C1038 C 0.226 0.75324 0.47638 0.0
C1039 C 0.20467 0.75215 0.50351 0.0
C1040 C 0.23526 0.79669 0.52954 0.0
C1041 C 0.25514 0.79939 0.50134 0.0
N1042 N 0.26459 0.78499 0.445 0.0
N1043 N 0.1856 0.77552 0.55391 0.0
C1044 C 0.24928 0.77889 0.47397 0.0
C1045 C 0.20815 0.77486 0.52939 0.0
N1046 N 0.22422 0.72959 0.45296 0.0
N1047 N 0.24333 0.81364 0.55708 0.0
H1048 H 0.16613 0.75918 0.55526 0.0
H1049 H 0.18469 0.79375 0.57153 0.0
H1050 H 0.26346 0.82916 0.55842 0.0
H1051 H 0.23197 0.81015 0.57949 0.0
H1052 H 0.24173 0.72666 0.43482 0.0
H1053 H 0.20635 0.71145 0.45287 0.0
H1054 H 0.25874 0.7731 0.42335 0.0
H1055 H 0.28089 0.80419 0.44162 0.0
C1056 C 0.52984 0.20402 0.23159 0.0
C1057 C 0.50178 0.20117 0.25168 0.0
C1058 C 0.47653 0.24754 0.22337 0.0
C1059 C 0.50372 0.24917 0.20215 0.0
N1060 N 0.55396 0.22611 0.18226 0.0
N1061 N 0.44542 0.21515 0.26166 0.0
C1062 C 0.52958 0.22635 0.20497 0.0
C1063 C 0.47428 0.22156 0.2462 0.0
N1064 N 0.55738 0.18681 0.23906 0.0
N1065 N 0.45298 0.27108 0.22201 0.0
H1066 H 0.44229 0.19569 0.27766 0.0
H1067 H 0.42366 0.22701 0.25619 0.0
H1068 H 0.45284 0.28953 0.20453 0.0
H1069 H 0.43476 0.2736 0.2395 0.0
H1070 H 0.57975 0.19047 0.22763 0.0
H1071 H 0.55874 0.17069 0.25865 0.0
H1072 H 0.57157 0.20791 0.18086 0.0
H1073 H 0.55518 0.24279 0.16313 0.0
C1074 C 0.79487 0.4735 0.23255 0.0
C1075 C 0.79873 0.49945 0.25511 0.0
C1076 C 0.75427 0.52929 0.22854 0.0
C1077 C 0.74812 0.50192 0.2081 0.0
N1078 N 0.75928 0.44599 0.19404 0.0
N1079 N 0.77963 0.55011 0.27776 0.0
C1080 C 0.76768 0.47352 0.21085 0.0
C1081 C 0.77762 0.52673 0.25409 0.0
N1082 N 0.81724 0.44884 0.23182 0.0
N1083 N 0.73915 0.55835 0.2225 0.0
H1084 H 0.7974 0.54992 0.29597 0.0
H1085 H 0.76233 0.56844 0.2807 0.0
H1086 H 0.72276 0.56181 0.20342 0.0
H1087 H 0.74523 0.57998 0.23433 0.0
H1088 H 0.81786 0.4311 0.21369 0.0
H1089 H 0.83686 0.4475 0.24795 0.0
H1090 H 0.77041 0.42348 0.19759 0.0
H1091 H 0.7391 0.4448 0.17858 0.0
C1092 C 0.4706 0.75855 0.22175 0.0
C1093 C 0.49852 0.75205 0.20224 0.0
C1094 C 0.52734 0.79761 0.22843 0.0
C1095 C 0.50095 0.80133 0.2505 0.0
N1096 N 0.44881 0.78333 0.27078 0.0
N1097 N 0.5552 0.76234 0.19009 0.0
C1098 C 0.47297 0.78118 0.24792 0.0
C1099 C 0.5273 0.77097 0.20614 0.0
N1100 N 0.44136 0.74425 0.21433 0.0
N1101 N 0.55252 0.81949 0.22887 0.0
H1102 H 0.55648 0.74255 0.17422 0.0
H1103 H 0.57786 0.7729 0.19465 0.0
H1104 H 0.55388 0.83867 0.24549 0.0
H1105 H 0.57069 0.82024 0.21116 0.0
H1106 H 0.41948 0.75047 0.22558 0.0
H1107 H 0.43822 0.7285 0.19464 0.0
H1108 H 0.42977 0.76659 0.27259 0.0
H1109 H 0.44892 0.80066 0.28938 0.0
C1110 C 0.20703 0.52892 0.22841 0.0
C1111 C 0.20345 0.50344 0.2516 0.0
C1112 C 0.2474 0.47293 0.22487 0.0
C1113 C 0.25342 0.49991 0.2039 0.0
N1114 N 0.24193 0.55541 0.18857 0.0
N1115 N 0.22224 0.45273 0.27441 0.0
C1116 C 0.23382 0.52832 0.20621 0.0
C1117 C 0.22431 0.47594 0.2506 0.0
N1118 N 0.18494 0.55383 0.22772 0.0
N1119 N 0.26251 0.44379 0.21918 0.0
H1120 H 0.20437 0.45296 0.2925 0.0
H1121 H 0.23947 0.43436 0.2775 0.0
H1122 H 0.2787 0.44007 0.19999 0.0
H1123 H 0.25661 0.42234 0.23139 0.0
H1124 H 0.18397 0.57113 0.20919 0.0
H1125 H 0.16592 0.55595 0.24444 0.0
H1126 H 0.23095 0.57804 0.19178 0.0
H1127 H 0.26166 0.55614 0.17256 0.0
C1128 C 0.47516 0.7715 0.79718 0.0
C1129 C 0.50296 0.75103 0.79959 0.0
C1130 C 0.52796 0.77925 0.75292 0.0
C1131 C 0.50114 0.80096 0.75184 0.0
N1132 N 0.45145 0.82129 0.77568 0.0
N1133 N 0.559 0.74046 0.78465 0.0
C1134 C 0.47552 0.79828 0.77499 0.0
C1135 C 0.53024 0.75625 0.77876 0.0
N1136 N 0.44774 0.76429 0.81472 0.0
N1137 N 0.55116 0.78035 0.72901 0.0
H1138 H 0.56227 0.72433 0.80396 0.0
H1139 H 0.58066 0.74578 0.7725 0.0
H1140 H 0.55134 0.79795 0.71066 0.0
H1141 H 0.569 0.76254 0.72608 0.0
H1142 H 0.42549 0.77604 0.81144 0.0
H1143 H 0.44631 0.74459 0.8307 0.0
H1144 H 0.43406 0.82278 0.7941 0.0
H1145 H 0.45029 0.84054 0.75913 0.0
C1146 C 0.24942 0.47572 0.78136 0.0
C1147 C 0.25112 0.50295 0.80251 0.0
C1148 C 0.20556 0.52876 0.77335 0.0
C1149 C 0.20261 0.50064 0.75338 0.0
N1150 N 0.21676 0.44438 0.74342 0.0
N1151 N 0.22793 0.55305 0.8225 0.0
C1152 C 0.2232 0.47328 0.75876 0.0
C1153 C 0.22813 0.52866 0.79981 0.0
N1154 N 0.27313 0.45234 0.78254 0.0
N1155 N 0.18822 0.55621 0.76592 0.0
H1156 H 0.24475 0.55435 0.84154 0.0
H1157 H 0.20964 0.57056 0.82399 0.0
H1158 H 0.17195 0.55748 0.74644 0.0
H1159 H 0.19195 0.57861 0.77726 0.0
H1160 H 0.27555 0.43408 0.7651 0.0
H1161 H 0.29184 0.45243 0.79979 0.0
H1162 H 0.2288 0.42272 0.74882 0.0
H1163 H 0.19711 0.44111 0.72762 0.0
C1164 C 0.53268 0.22464 0.75692 0.0
C1165 C 0.50549 0.20376 0.75134 0.0
C1166 C 0.47708 0.22878 0.7978 0.0
C1167 C 0.50267 0.25199 0.80081 0.0
N1168 N 0.55329 0.27453 0.78116 0.0
N1169 N 0.4499 0.18884 0.76354 0.0
C1170 C 0.52999 0.25068 0.77969 0.0
C1171 C 0.47726 0.20636 0.77121 0.0
N1172 N 0.5617 0.21863 0.74163 0.0
N1173 N 0.45246 0.22827 0.82025 0.0
H1174 H 0.44881 0.17272 0.74393 0.0
H1175 H 0.4274 0.19229 0.77475 0.0
H1176 H 0.45072 0.24509 0.83921 0.0
H1177 H 0.43512 0.20976 0.82159 0.0
H1178 H 0.58328 0.23086 0.74717 0.0
H1179 H 0.56518 0.19916 0.72571 0.0
H1180 H 0.57156 0.27729 0.76376 0.0
H1181 H 0.55316 0.29297 0.79867 0.0
C1182 C 0.77275 0.47558 0.79544 0.0
C1183 C 0.75095 0.50207 0.79988 0.0
C1184 C 0.7799 0.53314 0.75787 0.0
C1185 C 0.79944 0.50537 0.75091 0.0
N1186 N 0.81119 0.44846 0.75966 0.0
N1187 N 0.7308 0.55453 0.78294 0.0
C1188 C 0.7952 0.47616 0.76896 0.0
C1189 C 0.7536 0.53038 0.78031 0.0
N1190 N 0.772 0.44982 0.81655 0.0
N1191 N 0.78747 0.56263 0.74428 0.0
H1192 H 0.71203 0.55404 0.80009 0.0
H1193 H 0.72911 0.57392 0.76666 0.0
H1194 H 0.80727 0.56608 0.72873 0.0
H1195 H 0.77624 0.58438 0.75093 0.0
H1196 H 0.78962 0.43156 0.81689 0.0
H1197 H 0.75511 0.44788 0.83544 0.0
H1198 H 0.8064 0.42557 0.76951 0.0
H1199 H 0.82728 0.44767 0.74002 0.0
loop_
_geom_bond_atom_site_label_1
_geom_bond_atom_site_label_2
_geom_bond_distance
_geom_bond_site_symmetry_2
_ccdc_geom_bond_type
Co0 O1 2.216 . S
Co0 O2 2.091 . S
Co0 O4 2.004 . S
Co0 O10 2.021 . S
Co0 O12 2.137 . S
Co0 O13 2.244 . S
O1 Co0 2.216 . S
O1 C8 1.247 . S
O2 Co0 2.091 . S
O2 C8 1.261 . S
C3 O12 1.247 . S
C3 O13 1.272 . S
O4 Co0 2.004 . S
O4 C9 1.259 . S
Co5 O6 2.061 . S
Co5 O11 2.052 . S
Co5 O13 2.135 . S
O6 Co5 2.061 . S
O6 C9 1.235 . S
C7 O10 1.238 . S
C7 O11 1.241 . S
C8 O1 1.247 . S
C8 O2 1.261 . S
C9 O4 1.259 . S
C9 O6 1.235 . S
O10 Co0 2.021 . S
O10 C7 1.238 . S
O11 Co5 2.052 . S
O11 C7 1.241 . S
O12 Co0 2.137 . S
O12 C3 1.247 . S
O13 Co0 2.244 . S
O13 C3 1.272 . S
O13 Co5 2.135 . S
Co14 O15 2.216 . S
Co14 O16 2.091 . S
Co14 O18 2.004 . S
Co14 O24 2.021 . S
Co14 O26 2.137 . S
Co14 O27 2.244 . S
O15 Co14 2.216 . S
O15 C22 1.247 . S
O16 Co14 2.091 . S
O16 C22 1.261 . S
C17 O26 1.247 . S
C17 O27 1.272 . S
O18 Co14 2.004 . S
O18 C23 1.259 . S
Co19 O20 2.061 . S
Co19 O25 2.052 . S
Co19 O27 2.135 . S
O20 Co19 2.061 . S
O20 C23 1.235 . S
C21 O24 1.238 . S
C21 O25 1.241 . S
C22 O15 1.247 . S
C22 O16 1.261 . S
C23 O18 1.259 . S
C23 O20 1.235 . S
O24 Co14 2.021 . S
O24 C21 1.238 . S
O25 Co19 2.052 . S
O25 C21 1.241 . S
O26 Co14 2.137 . S
O26 C17 1.247 . S
O27 Co14 2.244 . S
O27 C17 1.272 . S
O27 Co19 2.135 . S
Co28 O29 2.216 . S
Co28 O30 2.091 . S
Co28 O32 2.004 . S
Co28 O38 2.021 . S
Co28 O40 2.137 . S
Co28 O41 2.244 . S
O29 Co28 2.216 . S
O29 C36 1.247 . S
O30 Co28 2.091 . S
O30 C36 1.261 . S
C31 O40 1.247 . S
C31 O41 1.272 . S
O32 Co28 2.004 . S
O32 C37 1.259 . S
Co33 O34 2.061 . S
Co33 O39 2.052 . S
Co33 O41 2.135 . S
O34 Co33 2.061 . S
O34 C37 1.235 . S
C35 O38 1.238 . S
C35 O39 1.241 . S
C36 O29 1.247 . S
C36 O30 1.261 . S
C37 O32 1.259 . S
C37 O34 1.235 . S
O38 Co28 2.021 . S
O38 C35 1.238 . S
O39 Co33 2.052 . S
O39 C35 1.241 . S
O40 Co28 2.137 . S
O40 C31 1.247 . S
O41 Co28 2.244 . S
O41 C31 1.272 . S
O41 Co33 2.135 . S
Co42 O43 2.216 . S
Co42 O44 2.091 . S
Co42 O46 2.004 . S
Co42 O52 2.021 . S
Co42 O54 2.137 . S
Co42 O55 2.244 . S
O43 Co42 2.216 . S
O43 C50 1.247 . S
O44 Co42 2.091 . S
O44 C50 1.261 . S
C45 O54 1.247 . S
C45 O55 1.272 . S
O46 Co42 2.004 . S
O46 C51 1.259 . S
Co47 O48 2.061 . S
Co47 O53 2.052 . S
Co47 O55 2.135 . S
O48 Co47 2.061 . S
O48 C51 1.235 . S
C49 O52 1.238 . S
C49 O53 1.241 . S
C50 O43 1.247 . S
C50 O44 1.261 . S
C51 O46 1.259 . S
C51 O48 1.235 . S
O52 Co42 2.021 . S
O52 C49 1.238 . S
O53 Co47 2.052 . S
O53 C49 1.241 . S
O54 Co42 2.137 . S
O54 C45 1.247 . S
O55 Co42 2.244 . S
O55 C45 1.272 . S
O55 Co47 2.135 . S
Co56 O57 2.216 . S
Co56 O58 2.091 . S
Co56 O60 2.004 . S
Co56 O66 2.021 . S
Co56 O68 2.137 . S
Co56 O69 2.244 . S
O57 Co56 2.216 . S
O57 C64 1.247 . S
O58 Co56 2.091 . S
O58 C64 1.261 . S
C59 O68 1.247 . S
C59 O69 1.272 . S
O60 Co56 2.004 . S
O60 C65 1.259 . S
Co61 O62 2.061 . S
Co61 O67 2.052 . S
Co61 O69 2.135 . S
O62 Co61 2.061 . S
O62 C65 1.235 . S
C63 O66 1.238 . S
C63 O67 1.241 . S
C64 O57 1.247 . S
C64 O58 1.261 . S
C65 O60 1.259 . S
C65 O62 1.235 . S
O66 Co56 2.021 . S
O66 C63 1.238 . S
O67 Co61 2.052 . S
O67 C63 1.241 . S
O68 Co56 2.137 . S
O68 C59 1.247 . S
O69 Co56 2.244 . S
O69 C59 1.272 . S
O69 Co61 2.135 . S
Co70 O71 2.216 . S
Co70 O72 2.091 . S
Co70 O74 2.004 . S
Co70 O80 2.021 . S
Co70 O82 2.137 . S
Co70 O83 2.244 . S
O71 Co70 2.216 . S
O71 C78 1.247 . S
O72 Co70 2.091 . S
O72 C78 1.261 . S
C73 O82 1.247 . S
C73 O83 1.272 . S
O74 Co70 2.004 . S
O74 C79 1.259 . S
Co75 O76 2.061 . S
Co75 O81 2.052 . S
Co75 O83 2.135 . S
O76 Co75 2.061 . S
O76 C79 1.235 . S
C77 O80 1.238 . S
C77 O81 1.241 . S
C78 O71 1.247 . S
C78 O72 1.261 . S
C79 O74 1.259 . S
C79 O76 1.235 . S
O80 Co70 2.021 . S
O80 C77 1.238 . S
O81 Co75 2.052 . S
O81 C77 1.241 . S
O82 Co70 2.137 . S
O82 C73 1.247 . S
O83 Co70 2.244 . S
O83 C73 1.272 . S
O83 Co75 2.135 . S
Co84 O85 2.216 . S
Co84 O86 2.091 . S
Co84 O88 2.004 . S
Co84 O94 2.021 . S
Co84 O96 2.137 . S
Co84 O97 2.244 . S
O85 Co84 2.216 . S
O85 C92 1.247 . S
O86 Co84 2.091 . S
O86 C92 1.261 . S
C87 O96 1.247 . S
C87 O97 1.272 . S
O88 Co84 2.004 . S
O88 C93 1.259 . S
Co89 O90 2.061 . S
Co89 O95 2.052 . S
Co89 O97 2.135 . S
O90 Co89 2.061 . S
O90 C93 1.235 . S
C91 O94 1.238 . S
C91 O95 1.241 . S
C92 O85 1.247 . S
C92 O86 1.261 . S
C93 O88 1.259 . S
C93 O90 1.235 . S
O94 Co84 2.021 . S
O94 C91 1.238 . S
O95 Co89 2.052 . S
O95 C91 1.241 . S
O96 Co84 2.137 . S
O96 C87 1.247 . S
O97 Co84 2.244 . S
O97 C87 1.272 . S
O97 Co89 2.135 . S
Co98 O99 2.216 . S
Co98 O100 2.091 . S
Co98 O102 2.004 . S
Co98 O108 2.021 . S
Co98 O110 2.137 . S
Co98 O111 2.244 . S
O99 Co98 2.216 . S
O99 C106 1.247 . S
O100 Co98 2.091 . S
O100 C106 1.261 . S
C101 O110 1.247 . S
C101 O111 1.272 . S
O102 Co98 2.004 . S
O102 C107 1.259 . S
Co103 O104 2.061 . S
Co103 O109 2.052 . S
Co103 O111 2.135 . S
O104 Co103 2.061 . S
O104 C107 1.235 . S
C105 O108 1.238 . S
C105 O109 1.241 . S
C106 O99 1.247 . S
C106 O100 1.261 . S
C107 O102 1.259 . S
C107 O104 1.235 . S
O108 Co98 2.021 . S
O108 C105 1.238 . S
O109 Co103 2.052 . S
O109 C105 1.241 . S
O110 Co98 2.137 . S
O110 C101 1.247 . S
O111 Co98 2.244 . S
O111 C101 1.272 . S
O111 Co103 2.135 . S
Co112 O113 2.216 . S
Co112 O114 2.091 . S
Co112 O116 2.004 . S
Co112 O122 2.021 . S
Co112 O124 2.137 . S
Co112 O125 2.244 . S
O113 Co112 2.216 . S
O113 C120 1.247 . S
O114 Co112 2.091 . S
O114 C120 1.261 . S
C115 O124 1.247 . S
C115 O125 1.272 . S
O116 Co112 2.004 . S
O116 C121 1.259 . S
Co117 O118 2.061 . S
Co117 O123 2.052 . S
Co117 O125 2.135 . S
O118 Co117 2.061 . S
O118 C121 1.235 . S
C119 O122 1.238 . S
C119 O123 1.241 . S
C120 O113 1.247 . S
C120 O114 1.261 . S
C121 O116 1.259 . S
C121 O118 1.235 . S
O122 Co112 2.021 . S
O122 C119 1.238 . S
O123 Co117 2.052 . S
O123 C119 1.241 . S
O124 Co112 2.137 . S
O124 C115 1.247 . S
O125 Co112 2.244 . S
O125 C115 1.272 . S
O125 Co117 2.135 . S
Co126 O127 2.216 . S
Co126 O128 2.091 . S
Co126 O130 2.004 . S
Co126 O136 2.021 . S
Co126 O138 2.137 . S
Co126 O139 2.244 . S
O127 Co126 2.216 . S
O127 C134 1.247 . S
O128 Co126 2.091 . S
O128 C134 1.261 . S
C129 O138 1.247 . S
C129 O139 1.272 . S
O130 Co126 2.004 . S
O130 C135 1.259 . S
Co131 O132 2.061 . S
Co131 O137 2.052 . S
Co131 O139 2.135 . S
O132 Co131 2.061 . S
O132 C135 1.235 . S
C133 O136 1.238 . S
C133 O137 1.241 . S
C134 O127 1.247 . S
C134 O128 1.261 . S
C135 O130 1.259 . S
C135 O132 1.235 . S
O136 Co126 2.021 . S
O136 C133 1.238 . S
O137 Co131 2.052 . S
O137 C133 1.241 . S
O138 Co126 2.137 . S
O138 C129 1.247 . S
O139 Co126 2.244 . S
O139 C129 1.272 . S
O139 Co131 2.135 . S
Co140 O141 2.216 . S
Co140 O142 2.091 . S
Co140 O144 2.004 . S
Co140 O150 2.021 . S
Co140 O152 2.137 . S
Co140 O153 2.244 . S
O141 Co140 2.216 . S
O141 C148 1.247 . S
O142 Co140 2.091 . S
O142 C148 1.261 . S
C143 O152 1.247 . S
C143 O153 1.272 . S
O144 Co140 2.004 . S
O144 C149 1.259 . S
Co145 O146 2.061 . S
Co145 O151 2.052 . S
Co145 O153 2.135 . S
O146 Co145 2.061 . S
O146 C149 1.235 . S
C147 O150 1.238 . S
C147 O151 1.241 . S
C148 O141 1.247 . S
C148 O142 1.261 . S
C149 O144 1.259 . S
C149 O146 1.235 . S
O150 Co140 2.021 . S
O150 C147 1.238 . S
O151 Co145 2.052 . S
O151 C147 1.241 . S
O152 Co140 2.137 . S
O152 C143 1.247 . S
O153 Co140 2.244 . S
O153 C143 1.272 . S
O153 Co145 2.135 . S
Co154 O155 2.216 . S
Co154 O156 2.091 . S
Co154 O158 2.004 . S
Co154 O164 2.021 . S
Co154 O166 2.137 . S
Co154 O167 2.244 . S
O155 Co154 2.216 . S
O155 C162 1.247 . S
O156 Co154 2.091 . S
O156 C162 1.261 . S
C157 O166 1.247 . S
C157 O167 1.272 . S
O158 Co154 2.004 . S
O158 C163 1.259 . S
Co159 O160 2.061 . S
Co159 O165 2.052 . S
Co159 O167 2.135 . S
O160 Co159 2.061 . S
O160 C163 1.235 . S
C161 O164 1.238 . S
C161 O165 1.241 . S
C162 O155 1.247 . S
C162 O156 1.261 . S
C163 O158 1.259 . S
C163 O160 1.235 . S
O164 Co154 2.021 . S
O164 C161 1.238 . S
O165 Co159 2.052 . S
O165 C161 1.241 . S
O166 Co154 2.137 . S
O166 C157 1.247 . S
O167 Co154 2.244 . S
O167 C157 1.272 . S
O167 Co159 2.135 . S
Co168 O169 2.216 . S
Co168 O170 2.091 . S
Co168 O172 2.004 . S
Co168 O178 2.021 . S
Co168 O180 2.137 . S
Co168 O181 2.244 . S
O169 Co168 2.216 . S
O169 C176 1.247 . S
O170 Co168 2.091 . S
O170 C176 1.261 . S
C171 O180 1.247 . S
C171 O181 1.272 . S
O172 Co168 2.004 . S
O172 C177 1.259 . S
Co173 O174 2.061 . S
Co173 O179 2.052 . S
Co173 O181 2.135 . S
O174 Co173 2.061 . S
O174 C177 1.235 . S
C175 O178 1.238 . S
C175 O179 1.241 . S
C176 O169 1.247 . S
C176 O170 1.261 . S
C177 O172 1.259 . S
C177 O174 1.235 . S
O178 Co168 2.021 . S
O178 C175 1.238 . S
O179 Co173 2.052 . S
O179 C175 1.241 . S
O180 Co168 2.137 . S
O180 C171 1.247 . S
O181 Co168 2.244 . S
O181 C171 1.272 . S
O181 Co173 2.135 . S
Co182 O183 2.216 . S
Co182 O184 2.091 . S
Co182 O186 2.004 . S
Co182 O192 2.021 . S
Co182 O194 2.137 . S
Co182 O195 2.244 . S
O183 Co182 2.216 . S
O183 C190 1.247 . S
O184 Co182 2.091 . S
O184 C190 1.261 . S
C185 O194 1.247 . S
C185 O195 1.272 . S
O186 Co182 2.004 . S
O186 C191 1.259 . S
Co187 O188 2.061 . S
Co187 O193 2.052 . S
Co187 O195 2.135 . S
O188 Co187 2.061 . S
O188 C191 1.235 . S
C189 O192 1.238 . S
C189 O193 1.241 . S
C190 O183 1.247 . S
C190 O184 1.261 . S
C191 O186 1.259 . S
C191 O188 1.235 . S
O192 Co182 2.021 . S
O192 C189 1.238 . S
O193 Co187 2.052 . S
O193 C189 1.241 . S
O194 Co182 2.137 . S
O194 C185 1.247 . S
O195 Co182 2.244 . S
O195 C185 1.272 . S
O195 Co187 2.135 . S
Co196 O197 2.216 . S
Co196 O198 2.091 . S
Co196 O200 2.004 . S
Co196 O206 2.021 . S
Co196 O208 2.137 . S
Co196 O209 2.244 . S
O197 Co196 2.216 . S
O197 C204 1.247 . S
O198 Co196 2.091 . S
O198 C204 1.261 . S
C199 O208 1.247 . S
C199 O209 1.272 . S
O200 Co196 2.004 . S
O200 C205 1.259 . S
Co201 O202 2.061 . S
Co201 O207 2.052 . S
Co201 O209 2.135 . S
O202 Co201 2.061 . S
O202 C205 1.235 . S
C203 O206 1.238 . S
C203 O207 1.241 . S
C204 O197 1.247 . S
C204 O198 1.261 . S
C205 O200 1.259 . S
C205 O202 1.235 . S
O206 Co196 2.021 . S
O206 C203 1.238 . S
O207 Co201 2.052 . S
O207 C203 1.241 . S
O208 Co196 2.137 . S
O208 C199 1.247 . S
O209 Co196 2.244 . S
O209 C199 1.272 . S
O209 Co201 2.135 . S
Co210 O211 2.216 . S
Co210 O212 2.091 . S
Co210 O214 2.004 . S
Co210 O220 2.021 . S
Co210 O222 2.137 . S
Co210 O223 2.244 . S
O211 Co210 2.216 . S
O211 C218 1.247 . S
O212 Co210 2.091 . S
O212 C218 1.261 . S
C213 O222 1.247 . S
C213 O223 1.272 . S
O214 Co210 2.004 . S
O214 C219 1.259 . S
Co215 O216 2.061 . S
Co215 O221 2.052 . S
Co215 O223 2.135 . S
O216 Co215 2.061 . S
O216 C219 1.235 . S
C217 O220 1.238 . S
C217 O221 1.241 . S
C218 O211 1.247 . S
C218 O212 1.261 . S
C219 O214 1.259 . S
C219 O216 1.235 . S
O220 Co210 2.021 . S
O220 C217 1.238 . S
O221 Co215 2.052 . S
O221 C217 1.241 . S
O222 Co210 2.137 . S
O222 C213 1.247 . S
O223 Co210 2.244 . S
O223 C213 1.272 . S
O223 Co215 2.135 . S
Co224 O225 2.216 . S
Co224 O226 2.091 . S
Co224 O228 2.004 . S
Co224 O234 2.021 . S
Co224 O236 2.137 . S
Co224 O237 2.244 . S
O225 Co224 2.216 . S
O225 C232 1.247 . S
O226 Co224 2.091 . S
O226 C232 1.261 . S
C227 O236 1.247 . S
C227 O237 1.272 . S
O228 Co224 2.004 . S
O228 C233 1.259 . S
Co229 O230 2.061 . S
Co229 O235 2.052 . S
Co229 O237 2.135 . S
O230 Co229 2.061 . S
O230 C233 1.235 . S
C231 O234 1.238 . S
C231 O235 1.241 . S
C232 O225 1.247 . S
C232 O226 1.261 . S
C233 O228 1.259 . S
C233 O230 1.235 . S
O234 Co224 2.021 . S
O234 C231 1.238 . S
O235 Co229 2.052 . S
O235 C231 1.241 . S
O236 Co224 2.137 . S
O236 C227 1.247 . S
O237 Co224 2.244 . S
O237 C227 1.272 . S
O237 Co229 2.135 . S
Co238 O239 2.216 . S
Co238 O240 2.091 . S
Co238 O242 2.004 . S
Co238 O248 2.021 . S
Co238 O250 2.137 . S
Co238 O251 2.244 . S
O239 Co238 2.216 . S
O239 C246 1.247 . S
O240 Co238 2.091 . S
O240 C246 1.261 . S
C241 O250 1.247 . S
C241 O251 1.272 . S
O242 Co238 2.004 . S
O242 C247 1.259 . S
Co243 O244 2.061 . S
Co243 O249 2.052 . S
Co243 O251 2.135 . S
O244 Co243 2.061 . S
O244 C247 1.235 . S
C245 O248 1.238 . S
C245 O249 1.241 . S
C246 O239 1.247 . S
C246 O240 1.261 . S
C247 O242 1.259 . S
C247 O244 1.235 . S
O248 Co238 2.021 . S
O248 C245 1.238 . S
O249 Co243 2.052 . S
O249 C245 1.241 . S
O250 Co238 2.137 . S
O250 C241 1.247 . S
O251 Co238 2.244 . S
O251 C241 1.272 . S
O251 Co243 2.135 . S
Co252 O253 2.216 . S
Co252 O254 2.091 . S
Co252 O256 2.004 . S
Co252 O262 2.021 . S
Co252 O264 2.137 . S
Co252 O265 2.244 . S
O253 Co252 2.216 . S
O253 C260 1.247 . S
O254 Co252 2.091 . S
O254 C260 1.261 . S
C255 O264 1.247 . S
C255 O265 1.272 . S
O256 Co252 2.004 . S
O256 C261 1.259 . S
Co257 O258 2.061 . S
Co257 O263 2.052 . S
Co257 O265 2.135 . S
O258 Co257 2.061 . S
O258 C261 1.235 . S
C259 O262 1.238 . S
C259 O263 1.241 . S
C260 O253 1.247 . S
C260 O254 1.261 . S
C261 O256 1.259 . S
C261 O258 1.235 . S
O262 Co252 2.021 . S
O262 C259 1.238 . S
O263 Co257 2.052 . S
O263 C259 1.241 . S
O264 Co252 2.137 . S
O264 C255 1.247 . S
O265 Co252 2.244 . S
O265 C255 1.272 . S
O265 Co257 2.135 . S
Co266 O267 2.216 . S
Co266 O268 2.091 . S
Co266 O270 2.004 . S
Co266 O276 2.021 . S
Co266 O278 2.137 . S
Co266 O279 2.244 . S
O267 Co266 2.216 . S
O267 C274 1.247 . S
O268 Co266 2.091 . S
O268 C274 1.261 . S
C269 O278 1.247 . S
C269 O279 1.272 . S
O270 Co266 2.004 . S
O270 C275 1.259 . S
Co271 O272 2.061 . S
Co271 O277 2.052 . S
Co271 O279 2.135 . S
O272 Co271 2.061 . S
O272 C275 1.235 . S
C273 O276 1.238 . S
C273 O277 1.241 . S
C274 O267 1.247 . S
C274 O268 1.261 . S
C275 O270 1.259 . S
C275 O272 1.235 . S
O276 Co266 2.021 . S
O276 C273 1.238 . S
O277 Co271 2.052 . S
O277 C273 1.241 . S
O278 Co266 2.137 . S
O278 C269 1.247 . S
O279 Co266 2.244 . S
O279 C269 1.272 . S
O279 Co271 2.135 . S
Co280 O281 2.216 . S
Co280 O282 2.091 . S
Co280 O284 2.004 . S
Co280 O290 2.021 . S
Co280 O292 2.137 . S
Co280 O293 2.244 . S
O281 Co280 2.216 . S
O281 C288 1.247 . S
O282 Co280 2.091 . S
O282 C288 1.261 . S
C283 O292 1.247 . S
C283 O293 1.272 . S
O284 Co280 2.004 . S
O284 C289 1.259 . S
Co285 O286 2.061 . S
Co285 O291 2.052 . S
Co285 O293 2.135 . S
O286 Co285 2.061 . S
O286 C289 1.235 . S
C287 O290 1.238 . S
C287 O291 1.241 . S
C288 O281 1.247 . S
C288 O282 1.261 . S
C289 O284 1.259 . S
C289 O286 1.235 . S
O290 Co280 2.021 . S
O290 C287 1.238 . S
O291 Co285 2.052 . S
O291 C287 1.241 . S
O292 Co280 2.137 . S
O292 C283 1.247 . S
O293 Co280 2.244 . S
O293 C283 1.272 . S
O293 Co285 2.135 . S
Co294 O295 2.216 . S
Co294 O296 2.091 . S
Co294 O298 2.004 . S
Co294 O304 2.021 . S
Co294 O306 2.137 . S
Co294 O307 2.244 . S
O295 Co294 2.216 . S
O295 C302 1.247 . S
O296 Co294 2.091 . S
O296 C302 1.261 . S
C297 O306 1.247 . S
C297 O307 1.272 . S
O298 Co294 2.004 . S
O298 C303 1.259 . S
Co299 O300 2.061 . S
Co299 O305 2.052 . S
Co299 O307 2.135 . S
O300 Co299 2.061 . S
O300 C303 1.235 . S
C301 O304 1.238 . S
C301 O305 1.241 . S
C302 O295 1.247 . S
C302 O296 1.261 . S
C303 O298 1.259 . S
C303 O300 1.235 . S
O304 Co294 2.021 . S
O304 C301 1.238 . S
O305 Co299 2.052 . S
O305 C301 1.241 . S
O306 Co294 2.137 . S
O306 C297 1.247 . S
O307 Co294 2.244 . S
O307 C297 1.272 . S
O307 Co299 2.135 . S
Co308 O309 2.216 . S
Co308 O310 2.091 . S
Co308 O312 2.004 . S
Co308 O318 2.021 . S
Co308 O320 2.137 . S
Co308 O321 2.244 . S
O309 Co308 2.216 . S
O309 C316 1.247 . S
O310 Co308 2.091 . S
O310 C316 1.261 . S
C311 O320 1.247 . S
C311 O321 1.272 . S
O312 Co308 2.004 . S
O312 C317 1.259 . S
Co313 O314 2.061 . S
Co313 O319 2.052 . S
Co313 O321 2.135 . S
O314 Co313 2.061 . S
O314 C317 1.235 . S
C315 O318 1.238 . S
C315 O319 1.241 . S
C316 O309 1.247 . S
C316 O310 1.261 . S
C317 O312 1.259 . S
C317 O314 1.235 . S
O318 Co308 2.021 . S
O318 C315 1.238 . S
O319 Co313 2.052 . S
O319 C315 1.241 . S
O320 Co308 2.137 . S
O320 C311 1.247 . S
O321 Co308 2.244 . S
O321 C311 1.272 . S
O321 Co313 2.135 . S
Co322 O323 2.216 . S
Co322 O324 2.091 . S
Co322 O326 2.004 . S
Co322 O332 2.021 . S
Co322 O334 2.137 . S
Co322 O335 2.244 . S
O323 Co322 2.216 . S
O323 C330 1.247 . S
O324 Co322 2.091 . S
O324 C330 1.261 . S
C325 O334 1.247 . S
C325 O335 1.272 . S
O326 Co322 2.004 . S
O326 C331 1.259 . S
Co327 O328 2.061 . S
Co327 O333 2.052 . S
Co327 O335 2.135 . S
O328 Co327 2.061 . S
O328 C331 1.235 . S
C329 O332 1.238 . S
C329 O333 1.241 . S
C330 O323 1.247 . S
C330 O324 1.261 . S
C331 O326 1.259 . S
C331 O328 1.235 . S
O332 Co322 2.021 . S
O332 C329 1.238 . S
O333 Co327 2.052 . S
O333 C329 1.241 . S
O334 Co322 2.137 . S
O334 C325 1.247 . S
O335 Co322 2.244 . S
O335 C325 1.272 . S
O335 Co327 2.135 . S
C336 C337 1.363 . S
C336 C342 1.379 . S
C336 N344 1.356 . S
C337 C336 1.363 . S
C337 C343 1.363 . S
C338 C339 1.363 . S
C338 C343 1.379 . S
C338 N345 1.356 . S
C339 C338 1.363 . S
C339 C342 1.363 . S
N340 C342 1.356 . S
N340 H352 0.984 . S
N340 H353 0.985 . S
N341 C343 1.356 . S
N341 H346 0.984 . S
N341 H347 0.985 . S
C342 C336 1.379 . S
C342 C339 1.363 . S
C342 N340 1.356 . S
C343 C337 1.363 . S
C343 C338 1.379 . S
C343 N341 1.356 . S
N344 C336 1.356 . S
N344 H350 0.984 . S
N344 H351 0.984 . S
N345 C338 1.356 . S
N345 H348 0.984 . S
N345 H349 0.985 . S
H346 N341 0.984 . S
H347 N341 0.985 . S
H348 N345 0.984 . S
H349 N345 0.985 . S
H350 N344 0.984 . S
H351 N344 0.984 . S
H352 N340 0.984 . S
H353 N340 0.985 . S
C354 C355 1.363 . S
C354 C360 1.379 . S
C354 N362 1.356 . S
C355 C354 1.363 . S
C355 C361 1.363 . S
C356 C357 1.363 . S
C356 C361 1.379 . S
C356 N363 1.356 . S
C357 C356 1.363 . S
C357 C360 1.363 . S
N358 C360 1.356 . S
N358 H370 0.984 . S
N358 H371 0.985 . S
N359 C361 1.356 . S
N359 H364 0.984 . S
N359 H365 0.985 . S
C360 C354 1.379 . S
C360 C357 1.363 . S
C360 N358 1.356 . S
C361 C355 1.363 . S
C361 C356 1.379 . S
C361 N359 1.356 . S
N362 C354 1.356 . S
N362 H368 0.984 . S
N362 H369 0.984 . S
N363 C356 1.356 . S
N363 H366 0.984 . S
N363 H367 0.985 . S
H364 N359 0.984 . S
H365 N359 0.985 . S
H366 N363 0.984 . S
H367 N363 0.985 . S
H368 N362 0.984 . S
H369 N362 0.984 . S
H370 N358 0.984 . S
H371 N358 0.985 . S
C372 C373 1.363 . S
C372 C378 1.379 . S
C372 N380 1.356 . S
C373 C372 1.363 . S
C373 C379 1.363 . S
C374 C375 1.363 . S
C374 C379 1.379 . S
C374 N381 1.356 . S
C375 C374 1.363 . S
C375 C378 1.363 . S
N376 C378 1.356 . S
N376 H388 0.984 . S
N376 H389 0.985 . S
N377 C379 1.356 . S
N377 H382 0.984 . S
N377 H383 0.985 . S
C378 C372 1.379 . S
C378 C375 1.363 . S
C378 N376 1.356 . S
C379 C373 1.363 . S
C379 C374 1.379 . S
C379 N377 1.356 . S
N380 C372 1.356 . S
N380 H386 0.984 . S
N380 H387 0.984 . S
N381 C374 1.356 . S
N381 H384 0.984 . S
N381 H385 0.985 . S
H382 N377 0.984 . S
H383 N377 0.985 . S
H384 N381 0.984 . S
H385 N381 0.985 . S
H386 N380 0.984 . S
H387 N380 0.984 . S
H388 N376 0.984 . S
H389 N376 0.985 . S
C390 C391 1.363 . S
C390 C396 1.379 . S
C390 N398 1.356 . S
C391 C390 1.363 . S
C391 C397 1.363 . S
C392 C393 1.363 . S
C392 C397 1.379 . S
C392 N399 1.356 . S
C393 C392 1.363 . S
C393 C396 1.363 . S
N394 C396 1.356 . S
N394 H406 0.984 . S
N394 H407 0.985 . S
N395 C397 1.356 . S
N395 H400 0.984 . S
N395 H401 0.985 . S
C396 C390 1.379 . S
C396 C393 1.363 . S
C396 N394 1.356 . S
C397 C391 1.363 . S
C397 C392 1.379 . S
C397 N395 1.356 . S
N398 C390 1.356 . S
N398 H404 0.984 . S
N398 H405 0.984 . S
N399 C392 1.356 . S
N399 H402 0.984 . S
N399 H403 0.985 . S
H400 N395 0.984 . S
H401 N395 0.985 . S
H402 N399 0.984 . S
H403 N399 0.985 . S
H404 N398 0.984 . S
H405 N398 0.984 . S
H406 N394 0.984 . S
H407 N394 0.985 . S
C408 C409 1.363 . S
C408 C414 1.379 . S
C408 N416 1.356 . S
C409 C408 1.363 . S
C409 C415 1.363 . S
C410 C411 1.363 . S
C410 C415 1.379 . S
C410 N417 1.356 . S
C411 C410 1.363 . S
C411 C414 1.363 . S
N412 C414 1.356 . S
N412 H424 0.984 . S
N412 H425 0.985 . S
N413 C415 1.356 . S
N413 H418 0.984 . S
N413 H419 0.985 . S
C414 C408 1.379 . S
C414 C411 1.363 . S
C414 N412 1.356 . S
C415 C409 1.363 . S
C415 C410 1.379 . S
C415 N413 1.356 . S
N416 C408 1.356 . S
N416 H422 0.984 . S
N416 H423 0.984 . S
N417 C410 1.356 . S
N417 H420 0.984 . S
N417 H421 0.985 . S
H418 N413 0.984 . S
H419 N413 0.985 . S
H420 N417 0.984 . S
H421 N417 0.985 . S
H422 N416 0.984 . S
H423 N416 0.984 . S
H424 N412 0.984 . S
H425 N412 0.985 . S
C426 C427 1.363 . S
C426 C432 1.379 . S
C426 N434 1.356 . S
C427 C426 1.363 . S
C427 C433 1.363 . S
C428 C429 1.363 . S
C428 C433 1.379 . S
C428 N435 1.356 . S
C429 C428 1.363 . S
C429 C432 1.363 . S
N430 C432 1.356 . S
N430 H442 0.984 . S
N430 H443 0.985 . S
N431 C433 1.356 . S
N431 H436 0.984 . S
N431 H437 0.985 . S
C432 C426 1.379 . S
C432 C429 1.363 . S
C432 N430 1.356 . S
C433 C427 1.363 . S
C433 C428 1.379 . S
C433 N431 1.356 . S
N434 C426 1.356 . S
N434 H440 0.984 . S
N434 H441 0.984 . S
N435 C428 1.356 . S
N435 H438 0.984 . S
N435 H439 0.985 . S
H436 N431 0.984 . S
H437 N431 0.985 . S
H438 N435 0.984 . S
H439 N435 0.985 . S
H440 N434 0.984 . S
H441 N434 0.984 . S
H442 N430 0.984 . S
H443 N430 0.985 . S
C444 C445 1.363 . S
C444 C450 1.379 . S
C444 N452 1.356 . S
C445 C444 1.363 . S
C445 C451 1.363 . S
C446 C447 1.363 . S
C446 C451 1.379 . S
C446 N453 1.356 . S
C447 C446 1.363 . S
C447 C450 1.363 . S
N448 C450 1.356 . S
N448 H460 0.984 . S
N448 H461 0.985 . S
N449 C451 1.356 . S
N449 H454 0.984 . S
N449 H455 0.985 . S
C450 C444 1.379 . S
C450 C447 1.363 . S
C450 N448 1.356 . S
C451 C445 1.363 . S
C451 C446 1.379 . S
C451 N449 1.356 . S
N452 C444 1.356 . S
N452 H458 0.984 . S
N452 H459 0.984 . S
N453 C446 1.356 . S
N453 H456 0.984 . S
N453 H457 0.985 . S
H454 N449 0.984 . S
H455 N449 0.985 . S
H456 N453 0.984 . S
H457 N453 0.985 . S
H458 N452 0.984 . S
H459 N452 0.984 . S
H460 N448 0.984 . S
H461 N448 0.985 . S
C462 C463 1.363 . S
C462 C468 1.379 . S
C462 N470 1.356 . S
C463 C462 1.363 . S
C463 C469 1.363 . S
C464 C465 1.363 . S
C464 C469 1.379 . S
C464 N471 1.356 . S
C465 C464 1.363 . S
C465 C468 1.363 . S
N466 C468 1.356 . S
N466 H478 0.984 . S
N466 H479 0.985 . S
N467 C469 1.356 . S
N467 H472 0.984 . S
N467 H473 0.985 . S
C468 C462 1.379 . S
C468 C465 1.363 . S
C468 N466 1.356 . S
C469 C463 1.363 . S
C469 C464 1.379 . S
C469 N467 1.356 . S
N470 C462 1.356 . S
N470 H476 0.984 . S
N470 H477 0.984 . S
N471 C464 1.356 . S
N471 H474 0.984 . S
N471 H475 0.985 . S
H472 N467 0.984 . S
H473 N467 0.985 . S
H474 N471 0.984 . S
H475 N471 0.985 . S
H476 N470 0.984 . S
H477 N470 0.984 . S
H478 N466 0.984 . S
H479 N466 0.985 . S
C480 C481 1.363 . S
C480 C486 1.379 . S
C480 N488 1.356 . S
C481 C480 1.363 . S
C481 C487 1.363 . S
C482 C483 1.363 . S
C482 C487 1.379 . S
C482 N489 1.356 . S
C483 C482 1.363 . S
C483 C486 1.363 . S
N484 C486 1.356 . S
N484 H496 0.984 . S
N484 H497 0.985 . S
N485 C487 1.356 . S
N485 H490 0.984 . S
N485 H491 0.985 . S
C486 C480 1.379 . S
C486 C483 1.363 . S
C486 N484 1.356 . S
C487 C481 1.363 . S
C487 C482 1.379 . S
C487 N485 1.356 . S
N488 C480 1.356 . S
N488 H494 0.984 . S
N488 H495 0.984 . S
N489 C482 1.356 . S
N489 H492 0.984 . S
N489 H493 0.985 . S
H490 N485 0.984 . S
H491 N485 0.985 . S
H492 N489 0.984 . S
H493 N489 0.985 . S
H494 N488 0.984 . S
H495 N488 0.984 . S
H496 N484 0.984 . S
H497 N484 0.985 . S
C498 C499 1.363 . S
C498 C504 1.379 . S
C498 N506 1.356 . S
C499 C498 1.363 . S
C499 C505 1.363 . S
C500 C501 1.363 . S
C500 C505 1.379 . S
C500 N507 1.356 . S
C501 C500 1.363 . S
C501 C504 1.363 . S
N502 C504 1.356 . S
N502 H514 0.984 . S
N502 H515 0.985 . S
N503 C505 1.356 . S
N503 H508 0.984 . S
N503 H509 0.985 . S
C504 C498 1.379 . S
C504 C501 1.363 . S
C504 N502 1.356 . S
C505 C499 1.363 . S
C505 C500 1.379 . S
C505 N503 1.356 . S
N506 C498 1.356 . S
N506 H512 0.984 . S
N506 H513 0.984 . S
N507 C500 1.356 . S
N507 H510 0.984 . S
N507 H511 0.985 . S
H508 N503 0.984 . S
H509 N503 0.985 . S
H510 N507 0.984 . S
H511 N507 0.985 . S
H512 N506 0.984 . S
H513 N506 0.984 . S
H514 N502 0.984 . S
H515 N502 0.985 . S
C516 C517 1.363 . S
C516 C522 1.379 . S
C516 N524 1.356 . S
C517 C516 1.363 . S
C517 C523 1.363 . S
C518 C519 1.363 . S
C518 C523 1.379 . S
C518 N525 1.356 . S
C519 C518 1.363 . S
C519 C522 1.363 . S
N520 C522 1.356 . S
N520 H532 0.984 . S
N520 H533 0.985 . S
N521 C523 1.356 . S
N521 H526 0.984 . S
N521 H527 0.985 . S
C522 C516 1.379 . S
C522 C519 1.363 . S
C522 N520 1.356 . S
C523 C517 1.363 . S
C523 C518 1.379 . S
C523 N521 1.356 . S
N524 C516 1.356 . S
N524 H530 0.984 . S
N524 H531 0.984 . S
N525 C518 1.356 . S
N525 H528 0.984 . S
N525 H529 0.985 . S
H526 N521 0.984 . S
H527 N521 0.985 . S
H528 N525 0.984 . S
H529 N525 0.985 . S
H530 N524 0.984 . S
H531 N524 0.984 . S
H532 N520 0.984 . S
H533 N520 0.985 . S
C534 C535 1.363 . S
C534 C540 1.379 . S
C534 N542 1.356 . S
C535 C534 1.363 . S
C535 C541 1.363 . S
C536 C537 1.363 . S
C536 C541 1.379 . S
C536 N543 1.356 . S
C537 C536 1.363 . S
C537 C540 1.363 . S
N538 C540 1.356 . S
N538 H550 0.984 . S
N538 H551 0.985 . S
N539 C541 1.356 . S
N539 H544 0.984 . S
N539 H545 0.985 . S
C540 C534 1.379 . S
C540 C537 1.363 . S
C540 N538 1.356 . S
C541 C535 1.363 . S
C541 C536 1.379 . S
C541 N539 1.356 . S
N542 C534 1.356 . S
N542 H548 0.984 . S
N542 H549 0.984 . S
N543 C536 1.356 . S
N543 H546 0.984 . S
N543 H547 0.985 . S
H544 N539 0.984 . S
H545 N539 0.985 . S
H546 N543 0.984 . S
H547 N543 0.985 . S
H548 N542 0.984 . S
H549 N542 0.984 . S
H550 N538 0.984 . S
H551 N538 0.985 . S
C552 C553 1.363 . S
C552 C558 1.379 . S
C552 N560 1.356 . S
C553 C552 1.363 . S
C553 C559 1.363 . S
C554 C555 1.363 . S
C554 C559 1.379 . S
C554 N561 1.356 . S
C555 C554 1.363 . S
C555 C558 1.363 . S
N556 C558 1.356 . S
N556 H568 0.984 . S
N556 H569 0.985 . S
N557 C559 1.356 . S
N557 H562 0.984 . S
N557 H563 0.985 . S
C558 C552 1.379 . S
C558 C555 1.363 . S
C558 N556 1.356 . S
C559 C553 1.363 . S
C559 C554 1.379 . S
C559 N557 1.356 . S
N560 C552 1.356 . S
N560 H566 0.984 . S
N560 H567 0.984 . S
N561 C554 1.356 . S
N561 H564 0.984 . S
N561 H565 0.985 . S
H562 N557 0.984 . S
H563 N557 0.985 . S
H564 N561 0.984 . S
H565 N561 0.985 . S
H566 N560 0.984 . S
H567 N560 0.984 . S
H568 N556 0.984 . S
H569 N556 0.985 . S
C570 C571 1.363 . S
C570 C576 1.379 . S
C570 N578 1.356 . S
C571 C570 1.363 . S
C571 C577 1.363 . S
C572 C573 1.363 . S
C572 C577 1.379 . S
C572 N579 1.356 . S
C573 C572 1.363 . S
C573 C576 1.363 . S
N574 C576 1.356 . S
N574 H586 0.984 . S
N574 H587 0.985 . S
N575 C577 1.356 . S
N575 H580 0.984 . S
N575 H581 0.985 . S
C576 C570 1.379 . S
C576 C573 1.363 . S
C576 N574 1.356 . S
C577 C571 1.363 . S
C577 C572 1.379 . S
C577 N575 1.356 . S
N578 C570 1.356 . S
N578 H584 0.984 . S
N578 H585 0.984 . S
N579 C572 1.356 . S
N579 H582 0.984 . S
N579 H583 0.985 . S
H580 N575 0.984 . S
H581 N575 0.985 . S
H582 N579 0.984 . S
H583 N579 0.985 . S
H584 N578 0.984 . S
H585 N578 0.984 . S
H586 N574 0.984 . S
H587 N574 0.985 . S
C588 C589 1.363 . S
C588 C594 1.379 . S
C588 N596 1.356 . S
C589 C588 1.363 . S
C589 C595 1.363 . S
C590 C591 1.363 . S
C590 C595 1.379 . S
C590 N597 1.356 . S
C591 C590 1.363 . S
C591 C594 1.363 . S
N592 C594 1.356 . S
N592 H604 0.984 . S
N592 H605 0.985 . S
N593 C595 1.356 . S
N593 H598 0.984 . S
N593 H599 0.985 . S
C594 C588 1.379 . S
C594 C591 1.363 . S
C594 N592 1.356 . S
C595 C589 1.363 . S
C595 C590 1.379 . S
C595 N593 1.356 . S
N596 C588 1.356 . S
N596 H602 0.984 . S
N596 H603 0.984 . S
N597 C590 1.356 . S
N597 H600 0.984 . S
N597 H601 0.985 . S
H598 N593 0.984 . S
H599 N593 0.985 . S
H600 N597 0.984 . S
H601 N597 0.985 . S
H602 N596 0.984 . S
H603 N596 0.984 . S
H604 N592 0.984 . S
H605 N592 0.985 . S
C606 C607 1.363 . S
C606 C612 1.379 . S
C606 N614 1.356 . S
C607 C606 1.363 . S
C607 C613 1.363 . S
C608 C609 1.363 . S
C608 C613 1.379 . S
C608 N615 1.356 . S
C609 C608 1.363 . S
C609 C612 1.363 . S
N610 C612 1.356 . S
N610 H622 0.984 . S
N610 H623 0.985 . S
N611 C613 1.356 . S
N611 H616 0.984 . S
N611 H617 0.985 . S
C612 C606 1.379 . S
C612 C609 1.363 . S
C612 N610 1.356 . S
C613 C607 1.363 . S
C613 C608 1.379 . S
C613 N611 1.356 . S
N614 C606 1.356 . S
N614 H620 0.984 . S
N614 H621 0.984 . S
N615 C608 1.356 . S
N615 H618 0.984 . S
N615 H619 0.985 . S
H616 N611 0.984 . S
H617 N611 0.985 . S
H618 N615 0.984 . S
H619 N615 0.985 . S
H620 N614 0.984 . S
H621 N614 0.984 . S
H622 N610 0.984 . S
H623 N610 0.985 . S
C624 C625 1.363 . S
C624 C630 1.379 . S
C624 N632 1.356 . S
C625 C624 1.363 . S
C625 C631 1.363 . S
C626 C627 1.363 . S
C626 C631 1.379 . S
C626 N633 1.356 . S
C627 C626 1.363 . S
C627 C630 1.363 . S
N628 C630 1.356 . S
N628 H640 0.984 . S
N628 H641 0.985 . S
N629 C631 1.356 . S
N629 H634 0.984 . S
N629 H635 0.985 . S
C630 C624 1.379 . S
C630 C627 1.363 . S
C630 N628 1.356 . S
C631 C625 1.363 . S
C631 C626 1.379 . S
C631 N629 1.356 . S
N632 C624 1.356 . S
N632 H638 0.984 . S
N632 H639 0.984 . S
N633 C626 1.356 . S
N633 H636 0.984 . S
N633 H637 0.985 . S
H634 N629 0.984 . S
H635 N629 0.985 . S
H636 N633 0.984 . S
H637 N633 0.985 . S
H638 N632 0.984 . S
H639 N632 0.984 . S
H640 N628 0.984 . S
H641 N628 0.985 . S
C642 C643 1.363 . S
C642 C648 1.379 . S
C642 N650 1.356 . S
C643 C642 1.363 . S
C643 C649 1.363 . S
C644 C645 1.363 . S
C644 C649 1.379 . S
C644 N651 1.356 . S
C645 C644 1.363 . S
C645 C648 1.363 . S
N646 C648 1.356 . S
N646 H658 0.984 . S
N646 H659 0.985 . S
N647 C649 1.356 . S
N647 H652 0.984 . S
N647 H653 0.985 . S
C648 C642 1.379 . S
C648 C645 1.363 . S
C648 N646 1.356 . S
C649 C643 1.363 . S
C649 C644 1.379 . S
C649 N647 1.356 . S
N650 C642 1.356 . S
N650 H656 0.984 . S
N650 H657 0.984 . S
N651 C644 1.356 . S
N651 H654 0.984 . S
N651 H655 0.985 . S
H652 N647 0.984 . S
H653 N647 0.985 . S
H654 N651 0.984 . S
H655 N651 0.985 . S
H656 N650 0.984 . S
H657 N650 0.984 . S
H658 N646 0.984 . S
H659 N646 0.985 . S
C660 C661 1.363 . S
C660 C666 1.379 . S
C660 N668 1.356 . S
C661 C660 1.363 . S
C661 C667 1.363 . S
C662 C663 1.363 . S
C662 C667 1.379 . S
C662 N669 1.356 . S
C663 C662 1.363 . S
C663 C666 1.363 . S
N664 C666 1.356 . S
N664 H676 0.984 . S
N664 H677 0.985 . S
N665 C667 1.356 . S
N665 H670 0.984 . S
N665 H671 0.985 . S
C666 C660 1.379 . S
C666 C663 1.363 . S
C666 N664 1.356 . S
C667 C661 1.363 . S
C667 C662 1.379 . S
C667 N665 1.356 . S
N668 C660 1.356 . S
N668 H674 0.984 . S
N668 H675 0.984 . S
N669 C662 1.356 . S
N669 H672 0.984 . S
N669 H673 0.985 . S
H670 N665 0.984 . S
H671 N665 0.985 . S
H672 N669 0.984 . S
H673 N669 0.985 . S
H674 N668 0.984 . S
H675 N668 0.984 . S
H676 N664 0.984 . S
H677 N664 0.985 . S
C678 C679 1.363 . S
C678 C684 1.379 . S
C678 N686 1.356 . S
C679 C678 1.363 . S
C679 C685 1.363 . S
C680 C681 1.363 . S
C680 C685 1.379 . S
C680 N687 1.356 . S
C681 C680 1.363 . S
C681 C684 1.363 . S
N682 C684 1.356 . S
N682 H694 0.984 . S
N682 H695 0.985 . S
N683 C685 1.356 . S
N683 H688 0.984 . S
N683 H689 0.985 . S
C684 C678 1.379 . S
C684 C681 1.363 . S
C684 N682 1.356 . S
C685 C679 1.363 . S
C685 C680 1.379 . S
C685 N683 1.356 . S
N686 C678 1.356 . S
N686 H692 0.984 . S
N686 H693 0.984 . S
N687 C680 1.356 . S
N687 H690 0.984 . S
N687 H691 0.985 . S
H688 N683 0.984 . S
H689 N683 0.985 . S
H690 N687 0.984 . S
H691 N687 0.985 . S
H692 N686 0.984 . S
H693 N686 0.984 . S
H694 N682 0.984 . S
H695 N682 0.985 . S
C696 C697 1.363 . S
C696 C702 1.379 . S
C696 N704 1.356 . S
C697 C696 1.363 . S
C697 C703 1.363 . S
C698 C699 1.363 . S
C698 C703 1.379 . S
C698 N705 1.356 . S
C699 C698 1.363 . S
C699 C702 1.363 . S
N700 C702 1.356 . S
N700 H712 0.984 . S
N700 H713 0.985 . S
N701 C703 1.356 . S
N701 H706 0.984 . S
N701 H707 0.985 . S
C702 C696 1.379 . S
C702 C699 1.363 . S
C702 N700 1.356 . S
C703 C697 1.363 . S
C703 C698 1.379 . S
C703 N701 1.356 . S
N704 C696 1.356 . S
N704 H710 0.984 . S
N704 H711 0.984 . S
N705 C698 1.356 . S
N705 H708 0.984 . S
N705 H709 0.985 . S
H706 N701 0.984 . S
H707 N701 0.985 . S
H708 N705 0.984 . S
H709 N705 0.985 . S
H710 N704 0.984 . S
H711 N704 0.984 . S
H712 N700 0.984 . S
H713 N700 0.985 . S
C714 C715 1.363 . S
C714 C720 1.379 . S
C714 N722 1.356 . S
C715 C714 1.363 . S
C715 C721 1.363 . S
C716 C717 1.363 . S
C716 C721 1.379 . S
C716 N723 1.356 . S
C717 C716 1.363 . S
C717 C720 1.363 . S
N718 C720 1.356 . S
N718 H730 0.984 . S
N718 H731 0.985 . S
N719 C721 1.356 . S
N719 H724 0.984 . S
N719 H725 0.985 . S
C720 C714 1.379 . S
C720 C717 1.363 . S
C720 N718 1.356 . S
C721 C715 1.363 . S
C721 C716 1.379 . S
C721 N719 1.356 . S
N722 C714 1.356 . S
N722 H728 0.984 . S
N722 H729 0.984 . S
N723 C716 1.356 . S
N723 H726 0.984 . S
N723 H727 0.985 . S
H724 N719 0.984 . S
H725 N719 0.985 . S
H726 N723 0.984 . S
H727 N723 0.985 . S
H728 N722 0.984 . S
H729 N722 0.984 . S
H730 N718 0.984 . S
H731 N718 0.985 . S
C732 C733 1.363 . S
C732 C738 1.379 . S
C732 N740 1.356 . S
C733 C732 1.363 . S
C733 C739 1.363 . S
C734 C735 1.363 . S
C734 C739 1.379 . S
C734 N741 1.356 . S
C735 C734 1.363 . S
C735 C738 1.363 . S
N736 C738 1.356 . S
N736 H748 0.984 . S
N736 H749 0.985 . S
N737 C739 1.356 . S
N737 H742 0.984 . S
N737 H743 0.985 . S
C738 C732 1.379 . S
C738 C735 1.363 . S
C738 N736 1.356 . S
C739 C733 1.363 . S
C739 C734 1.379 . S
C739 N737 1.356 . S
N740 C732 1.356 . S
N740 H746 0.984 . S
N740 H747 0.984 . S
N741 C734 1.356 . S
N741 H744 0.984 . S
N741 H745 0.985 . S
H742 N737 0.984 . S
H743 N737 0.985 . S
H744 N741 0.984 . S
H745 N741 0.985 . S
H746 N740 0.984 . S
H747 N740 0.984 . S
H748 N736 0.984 . S
H749 N736 0.985 . S
C750 C751 1.363 . S
C750 C756 1.379 . S
C750 N758 1.356 . S
C751 C750 1.363 . S
C751 C757 1.363 . S
C752 C753 1.363 . S
C752 C757 1.379 . S
C752 N759 1.356 . S
C753 C752 1.363 . S
C753 C756 1.363 . S
N754 C756 1.356 . S
N754 H766 0.984 . S
N754 H767 0.985 . S
N755 C757 1.356 . S
N755 H760 0.984 . S
N755 H761 0.985 . S
C756 C750 1.379 . S
C756 C753 1.363 . S
C756 N754 1.356 . S
C757 C751 1.363 . S
C757 C752 1.379 . S
C757 N755 1.356 . S
N758 C750 1.356 . S
N758 H764 0.984 . S
N758 H765 0.984 . S
N759 C752 1.356 . S
N759 H762 0.984 . S
N759 H763 0.985 . S
H760 N755 0.984 . S
H761 N755 0.985 . S
H762 N759 0.984 . S
H763 N759 0.985 . S
H764 N758 0.984 . S
H765 N758 0.984 . S
H766 N754 0.984 . S
H767 N754 0.985 . S
C768 C769 1.363 . S
C768 C774 1.379 1_455 S
C768 N776 1.356 . S
C769 C768 1.363 . S
C769 C775 1.363 . S
C770 C771 1.363 . S
C770 C775 1.379 1_655 S
C770 N777 1.356 . S
C771 C770 1.363 . S
C771 C774 1.363 . S
N772 C774 1.356 . S
N772 H784 0.984 . S
N772 H785 0.985 . S
N773 C775 1.356 . S
N773 H778 0.984 . S
N773 H779 0.985 . S
C774 C768 1.379 1_655 S
C774 C771 1.363 . S
C774 N772 1.356 . S
C775 C769 1.363 . S
C775 C770 1.379 1_455 S
C775 N773 1.356 . S
N776 C768 1.356 . S
N776 H782 0.984 . S
N776 H783 0.984 . S
N777 C770 1.356 . S
N777 H780 0.984 . S
N777 H781 0.985 . S
H778 N773 0.984 . S
H779 N773 0.985 . S
H780 N777 0.984 . S
H781 N777 0.985 . S
H782 N776 0.984 . S
H783 N776 0.984 . S
H784 N772 0.984 . S
H785 N772 0.985 . S
C786 C787 1.363 . S
C786 C792 1.379 1_545 S
C786 N794 1.356 . S
C787 C786 1.363 . S
C787 C793 1.363 . S
C788 C789 1.363 . S
C788 C793 1.379 1_565 S
C788 N795 1.356 . S
C789 C788 1.363 . S
C789 C792 1.363 . S
N790 C792 1.356 . S
N790 H802 0.984 . S
N790 H803 0.985 . S
N791 C793 1.356 . S
N791 H796 0.984 . S
N791 H797 0.985 . S
C792 C786 1.379 1_565 S
C792 C789 1.363 . S
C792 N790 1.356 . S
C793 C787 1.363 . S
C793 C788 1.379 1_545 S
C793 N791 1.356 . S
N794 C786 1.356 . S
N794 H800 0.984 . S
N794 H801 0.984 . S
N795 C788 1.356 . S
N795 H798 0.984 . S
N795 H799 0.985 . S
H796 N791 0.984 . S
H797 N791 0.985 . S
H798 N795 0.984 . S
H799 N795 0.985 . S
H800 N794 0.984 . S
H801 N794 0.984 . S
H802 N790 0.984 . S
H803 N790 0.985 . S
C804 C805 1.363 . S
C804 C810 1.379 1_655 S
C804 N812 1.356 . S
C805 C804 1.363 . S
C805 C811 1.363 . S
C806 C807 1.363 . S
C806 C811 1.379 1_455 S
C806 N813 1.356 . S
C807 C806 1.363 . S
C807 C810 1.363 . S
N808 C810 1.356 . S
N808 H820 0.984 . S
N808 H821 0.985 . S
N809 C811 1.356 . S
N809 H814 0.984 . S
N809 H815 0.985 . S
C810 C804 1.379 1_455 S
C810 C807 1.363 . S
C810 N808 1.356 . S
C811 C805 1.363 . S
C811 C806 1.379 1_655 S
C811 N809 1.356 . S
N812 C804 1.356 . S
N812 H818 0.984 . S
N812 H819 0.984 . S
N813 C806 1.356 . S
N813 H816 0.984 . S
N813 H817 0.985 . S
H814 N809 0.984 . S
H815 N809 0.985 . S
H816 N813 0.984 . S
H817 N813 0.985 . S
H818 N812 0.984 . S
H819 N812 0.984 . S
H820 N808 0.984 . S
H821 N808 0.985 . S
C822 C823 1.363 . S
C822 C828 1.379 1_545 S
C822 N830 1.356 . S
C823 C822 1.363 . S
C823 C829 1.363 . S
C824 C825 1.363 . S
C824 C829 1.379 1_565 S
C824 N831 1.356 . S
C825 C824 1.363 . S
C825 C828 1.363 . S
N826 C828 1.356 . S
N826 H838 0.984 . S
N826 H839 0.985 . S
N827 C829 1.356 . S
N827 H832 0.984 . S
N827 H833 0.985 . S
C828 C822 1.379 1_565 S
C828 C825 1.363 . S
C828 N826 1.356 . S
C829 C823 1.363 . S
C829 C824 1.379 1_545 S
C829 N827 1.356 . S
N830 C822 1.356 . S
N830 H836 0.984 . S
N830 H837 0.984 . S
N831 C824 1.356 . S
N831 H834 0.984 . S
N831 H835 0.985 . S
H832 N827 0.984 . S
H833 N827 0.985 . S
H834 N831 0.984 . S
H835 N831 0.985 . S
H836 N830 0.984 . S
H837 N830 0.984 . S
H838 N826 0.984 . S
H839 N826 0.985 . S
C840 C841 1.363 . S
C840 C846 1.379 1_565 S
C840 N848 1.356 . S
C841 C840 1.363 . S
C841 C847 1.363 . S
C842 C843 1.363 . S
C842 C847 1.379 1_545 S
C842 N849 1.356 . S
C843 C842 1.363 . S
C843 C846 1.363 . S
N844 C846 1.356 . S
N844 H856 0.984 . S
N844 H857 0.985 . S
N845 C847 1.356 . S
N845 H850 0.984 . S
N845 H851 0.985 . S
C846 C840 1.379 1_545 S
C846 C843 1.363 . S
C846 N844 1.356 . S
C847 C841 1.363 . S
C847 C842 1.379 1_565 S
C847 N845 1.356 . S
N848 C840 1.356 . S
N848 H854 0.984 . S
N848 H855 0.984 . S
N849 C842 1.356 . S
N849 H852 0.984 . S
N849 H853 0.985 . S
H850 N845 0.984 . S
H851 N845 0.985 . S
H852 N849 0.984 . S
H853 N849 0.985 . S
H854 N848 0.984 . S
H855 N848 0.984 . S
H856 N844 0.984 . S
H857 N844 0.985 . S
C858 C859 1.363 . S
C858 C864 1.379 1_655 S
C858 N866 1.356 . S
C859 C858 1.363 . S
C859 C865 1.363 . S
C860 C861 1.363 . S
C860 C865 1.379 1_455 S
C860 N867 1.356 . S
C861 C860 1.363 . S
C861 C864 1.363 . S
N862 C864 1.356 . S
N862 H874 0.984 . S
N862 H875 0.985 . S
N863 C865 1.356 . S
N863 H868 0.984 . S
N863 H869 0.985 . S
C864 C858 1.379 1_455 S
C864 C861 1.363 . S
C864 N862 1.356 . S
C865 C859 1.363 . S
C865 C860 1.379 1_655 S
C865 N863 1.356 . S
N866 C858 1.356 . S
N866 H872 0.984 . S
N866 H873 0.984 . S
N867 C860 1.356 . S
N867 H870 0.984 . S
N867 H871 0.985 . S
H868 N863 0.984 . S
H869 N863 0.985 . S
H870 N867 0.984 . S
H871 N867 0.985 . S
H872 N866 0.984 . S
H873 N866 0.984 . S
H874 N862 0.984 . S
H875 N862 0.985 . S
C876 C877 1.363 . S
C876 C882 1.379 1_565 S
C876 N884 1.356 . S
C877 C876 1.363 . S
C877 C883 1.363 . S
C878 C879 1.363 . S
C878 C883 1.379 1_545 S
C878 N885 1.356 . S
C879 C878 1.363 . S
C879 C882 1.363 . S
N880 C882 1.356 . S
N880 H892 0.984 . S
N880 H893 0.985 . S
N881 C883 1.356 . S
N881 H886 0.984 . S
N881 H887 0.985 . S
C882 C876 1.379 1_545 S
C882 C879 1.363 . S
C882 N880 1.356 . S
C883 C877 1.363 . S
C883 C878 1.379 1_565 S
C883 N881 1.356 . S
N884 C876 1.356 . S
N884 H890 0.984 . S
N884 H891 0.984 . S
N885 C878 1.356 . S
N885 H888 0.984 . S
N885 H889 0.985 . S
H886 N881 0.984 . S
H887 N881 0.985 . S
H888 N885 0.984 . S
H889 N885 0.985 . S
H890 N884 0.984 . S
H891 N884 0.984 . S
H892 N880 0.984 . S
H893 N880 0.985 . S
C894 C895 1.363 . S
C894 C900 1.379 1_655 S
C894 N902 1.356 . S
C895 C894 1.363 . S
C895 C901 1.363 . S
C896 C897 1.363 . S
C896 C901 1.379 1_455 S
C896 N903 1.356 . S
C897 C896 1.363 . S
C897 C900 1.363 . S
N898 C900 1.356 . S
N898 H910 0.984 . S
N898 H911 0.985 . S
N899 C901 1.356 . S
N899 H904 0.984 . S
N899 H905 0.985 . S
C900 C894 1.379 1_455 S
C900 C897 1.363 . S
C900 N898 1.356 . S
C901 C895 1.363 . S
C901 C896 1.379 1_655 S
C901 N899 1.356 . S
N902 C894 1.356 . S
N902 H908 0.984 . S
N902 H909 0.984 . S
N903 C896 1.356 . S
N903 H906 0.984 . S
N903 H907 0.985 . S
H904 N899 0.984 . S
H905 N899 0.985 . S
H906 N903 0.984 . S
H907 N903 0.985 . S
H908 N902 0.984 . S
H909 N902 0.984 . S
H910 N898 0.984 . S
H911 N898 0.985 . S
C912 C913 1.363 . S
C912 C918 1.379 1_556 S
C912 N920 1.356 . S
C913 C912 1.363 . S
C913 C919 1.363 . S
C914 C915 1.363 . S
C914 C919 1.379 1_554 S
C914 N921 1.356 . S
C915 C914 1.363 . S
C915 C918 1.363 . S
N916 C918 1.356 . S
N916 H928 0.984 . S
N916 H929 0.985 . S
N917 C919 1.356 . S
N917 H922 0.984 . S
N917 H923 0.985 . S
C918 C912 1.379 1_554 S
C918 C915 1.363 . S
C918 N916 1.356 . S
C919 C913 1.363 . S
C919 C914 1.379 1_556 S
C919 N917 1.356 . S
N920 C912 1.356 . S
N920 H926 0.984 . S
N920 H927 0.984 . S
N921 C914 1.356 . S
N921 H924 0.984 . S
N921 H925 0.985 . S
H922 N917 0.984 . S
H923 N917 0.985 . S
H924 N921 0.984 . S
H925 N921 0.985 . S
H926 N920 0.984 . S
H927 N920 0.984 . S
H928 N916 0.984 . S
H929 N916 0.985 . S
C930 C931 1.363 . S
C930 C936 1.379 1_556 S
C930 N938 1.356 . S
C931 C930 1.363 . S
C931 C937 1.363 . S
C932 C933 1.363 . S
C932 C937 1.379 1_554 S
C932 N939 1.356 . S
C933 C932 1.363 . S
C933 C936 1.363 . S
N934 C936 1.356 . S
N934 H946 0.984 . S
N934 H947 0.985 . S
N935 C937 1.356 . S
N935 H940 0.984 . S
N935 H941 0.985 . S
C936 C930 1.379 1_554 S
C936 C933 1.363 . S
C936 N934 1.356 . S
C937 C931 1.363 . S
C937 C932 1.379 1_556 S
C937 N935 1.356 . S
N938 C930 1.356 . S
N938 H944 0.984 . S
N938 H945 0.984 . S
N939 C932 1.356 . S
N939 H942 0.984 . S
N939 H943 0.985 . S
H940 N935 0.984 . S
H941 N935 0.985 . S
H942 N939 0.984 . S
H943 N939 0.985 . S
H944 N938 0.984 . S
H945 N938 0.984 . S
H946 N934 0.984 . S
H947 N934 0.985 . S
C948 C949 1.363 . S
C948 C954 1.379 1_556 S
C948 N956 1.356 . S
C949 C948 1.363 . S
C949 C955 1.363 . S
C950 C951 1.363 . S
C950 C955 1.379 1_554 S
C950 N957 1.356 . S
C951 C950 1.363 . S
C951 C954 1.363 . S
N952 C954 1.356 . S
N952 H964 0.984 . S
N952 H965 0.985 . S
N953 C955 1.356 . S
N953 H958 0.984 . S
N953 H959 0.985 . S
C954 C948 1.379 1_554 S
C954 C951 1.363 . S
C954 N952 1.356 . S
C955 C949 1.363 . S
C955 C950 1.379 1_556 S
C955 N953 1.356 . S
N956 C948 1.356 . S
N956 H962 0.984 . S
N956 H963 0.984 . S
N957 C950 1.356 . S
N957 H960 0.984 . S
N957 H961 0.985 . S
H958 N953 0.984 . S
H959 N953 0.985 . S
H960 N957 0.984 . S
H961 N957 0.985 . S
H962 N956 0.984 . S
H963 N956 0.984 . S
H964 N952 0.984 . S
H965 N952 0.985 . S
C966 C967 1.363 . S
C966 C972 1.379 1_556 S
C966 N974 1.356 . S
C967 C966 1.363 . S
C967 C973 1.363 . S
C968 C969 1.363 . S
C968 C973 1.379 1_554 S
C968 N975 1.356 . S
C969 C968 1.363 . S
C969 C972 1.363 . S
N970 C972 1.356 . S
N970 H982 0.984 . S
N970 H983 0.985 . S
N971 C973 1.356 . S
N971 H976 0.984 . S
N971 H977 0.985 . S
C972 C966 1.379 1_554 S
C972 C969 1.363 . S
C972 N970 1.356 . S
C973 C967 1.363 . S
C973 C968 1.379 1_556 S
C973 N971 1.356 . S
N974 C966 1.356 . S
N974 H980 0.984 . S
N974 H981 0.984 . S
N975 C968 1.356 . S
N975 H978 0.984 . S
N975 H979 0.985 . S
H976 N971 0.984 . S
H977 N971 0.985 . S
H978 N975 0.984 . S
H979 N975 0.985 . S
H980 N974 0.984 . S
H981 N974 0.984 . S
H982 N970 0.984 . S
H983 N970 0.985 . S
C984 C985 1.363 . S
C984 C990 1.379 . S
C984 N992 1.356 . S
C985 C984 1.363 . S
C985 C991 1.363 . S
C986 C987 1.363 . S
C986 C991 1.379 . S
C986 N993 1.356 . S
C987 C986 1.363 . S
C987 C990 1.363 . S
N988 C990 1.356 . S
N988 H1000 0.984 . S
N988 H1001 0.985 . S
N989 C991 1.356 . S
N989 H994 0.984 . S
N989 H995 0.985 . S
C990 C984 1.379 . S
C990 C987 1.363 . S
C990 N988 1.356 . S
C991 C985 1.363 . S
C991 C986 1.379 . S
C991 N989 1.356 . S
N992 C984 1.356 . S
N992 H998 0.984 . S
N992 H999 0.984 . S
N993 C986 1.356 . S
N993 H996 0.984 . S
N993 H997 0.985 . S
H994 N989 0.984 . S
H995 N989 0.985 . S
H996 N993 0.984 . S
H997 N993 0.985 . S
H998 N992 0.984 . S
H999 N992 0.984 . S
H1000 N988 0.984 . S
H1001 N988 0.985 . S
C1002 C1003 1.363 . S
C1002 C1008 1.379 . S
C1002 N1010 1.356 . S
C1003 C1002 1.363 . S
C1003 C1009 1.363 . S
C1004 C1005 1.363 . S
C1004 C1009 1.379 . S
C1004 N1011 1.356 . S
C1005 C1004 1.363 . S
C1005 C1008 1.363 . S
N1006 C1008 1.356 . S
N1006 H1018 0.984 . S
N1006 H1019 0.985 . S
N1007 C1009 1.356 . S
N1007 H1012 0.984 . S
N1007 H1013 0.985 . S
C1008 C1002 1.379 . S
C1008 C1005 1.363 . S
C1008 N1006 1.356 . S
C1009 C1003 1.363 . S
C1009 C1004 1.379 . S
C1009 N1007 1.356 . S
N1010 C1002 1.356 . S
N1010 H1016 0.984 . S
N1010 H1017 0.984 . S
N1011 C1004 1.356 . S
N1011 H1014 0.984 . S
N1011 H1015 0.985 . S
H1012 N1007 0.984 . S
H1013 N1007 0.985 . S
H1014 N1011 0.984 . S
H1015 N1011 0.985 . S
H1016 N1010 0.984 . S
H1017 N1010 0.984 . S
H1018 N1006 0.984 . S
H1019 N1006 0.985 . S
C1020 C1021 1.363 . S
C1020 C1026 1.379 . S
C1020 N1028 1.356 . S
C1021 C1020 1.363 . S
C1021 C1027 1.363 . S
C1022 C1023 1.363 . S
C1022 C1027 1.379 . S
C1022 N1029 1.356 . S
C1023 C1022 1.363 . S
C1023 C1026 1.363 . S
N1024 C1026 1.356 . S
N1024 H1036 0.984 . S
N1024 H1037 0.985 . S
N1025 C1027 1.356 . S
N1025 H1030 0.984 . S
N1025 H1031 0.985 . S
C1026 C1020 1.379 . S
C1026 C1023 1.363 . S
C1026 N1024 1.356 . S
C1027 C1021 1.363 . S
C1027 C1022 1.379 . S
C1027 N1025 1.356 . S
N1028 C1020 1.356 . S
N1028 H1034 0.984 . S
N1028 H1035 0.984 . S
N1029 C1022 1.356 . S
N1029 H1032 0.984 . S
N1029 H1033 0.985 . S
H1030 N1025 0.984 . S
H1031 N1025 0.985 . S
H1032 N1029 0.984 . S
H1033 N1029 0.985 . S
H1034 N1028 0.984 . S
H1035 N1028 0.984 . S
H1036 N1024 0.984 . S
H1037 N1024 0.985 . S
C1038 C1039 1.363 . S
C1038 C1044 1.379 . S
C1038 N1046 1.356 . S
C1039 C1038 1.363 . S
C1039 C1045 1.363 . S
C1040 C1041 1.363 . S
C1040 C1045 1.379 . S
C1040 N1047 1.356 . S
C1041 C1040 1.363 . S
C1041 C1044 1.363 . S
N1042 C1044 1.356 . S
N1042 H1054 0.984 . S
N1042 H1055 0.985 . S
N1043 C1045 1.356 . S
N1043 H1048 0.984 . S
N1043 H1049 0.985 . S
C1044 C1038 1.379 . S
C1044 C1041 1.363 . S
C1044 N1042 1.356 . S
C1045 C1039 1.363 . S
C1045 C1040 1.379 . S
C1045 N1043 1.356 . S
N1046 C1038 1.356 . S
N1046 H1052 0.984 . S
N1046 H1053 0.984 . S
N1047 C1040 1.356 . S
N1047 H1050 0.984 . S
N1047 H1051 0.985 . S
H1048 N1043 0.984 . S
H1049 N1043 0.985 . S
H1050 N1047 0.984 . S
H1051 N1047 0.985 . S
H1052 N1046 0.984 . S
H1053 N1046 0.984 . S
H1054 N1042 0.984 . S
H1055 N1042 0.985 . S
C1056 C1057 1.363 . S
C1056 C1062 1.379 . S
C1056 N1064 1.356 . S
C1057 C1056 1.363 . S
C1057 C1063 1.363 . S
C1058 C1059 1.363 . S
C1058 C1063 1.379 . S
C1058 N1065 1.356 . S
C1059 C1058 1.363 . S
C1059 C1062 1.363 . S
N1060 C1062 1.356 . S
N1060 H1072 0.984 . S
N1060 H1073 0.985 . S
N1061 C1063 1.356 . S
N1061 H1066 0.984 . S
N1061 H1067 0.985 . S
C1062 C1056 1.379 . S
C1062 C1059 1.363 . S
C1062 N1060 1.356 . S
C1063 C1057 1.363 . S
C1063 C1058 1.379 . S
C1063 N1061 1.356 . S
N1064 C1056 1.356 . S
N1064 H1070 0.984 . S
N1064 H1071 0.984 . S
N1065 C1058 1.356 . S
N1065 H1068 0.984 . S
N1065 H1069 0.985 . S
H1066 N1061 0.984 . S
H1067 N1061 0.985 . S
H1068 N1065 0.984 . S
H1069 N1065 0.985 . S
H1070 N1064 0.984 . S
H1071 N1064 0.984 . S
H1072 N1060 0.984 . S
H1073 N1060 0.985 . S
C1074 C1075 1.363 . S
C1074 C1080 1.379 . S
C1074 N1082 1.356 . S
C1075 C1074 1.363 . S
C1075 C1081 1.363 . S
C1076 C1077 1.363 . S
C1076 C1081 1.379 . S
C1076 N1083 1.356 . S
C1077 C1076 1.363 . S
C1077 C1080 1.363 . S
N1078 C1080 1.356 . S
N1078 H1090 0.984 . S
N1078 H1091 0.985 . S
N1079 C1081 1.356 . S
N1079 H1084 0.984 . S
N1079 H1085 0.985 . S
C1080 C1074 1.379 . S
C1080 C1077 1.363 . S
C1080 N1078 1.356 . S
C1081 C1075 1.363 . S
C1081 C1076 1.379 . S
C1081 N1079 1.356 . S
N1082 C1074 1.356 . S
N1082 H1088 0.984 . S
N1082 H1089 0.984 . S
N1083 C1076 1.356 . S
N1083 H1086 0.984 . S
N1083 H1087 0.985 . S
H1084 N1079 0.984 . S
H1085 N1079 0.985 . S
H1086 N1083 0.984 . S
H1087 N1083 0.985 . S
H1088 N1082 0.984 . S
H1089 N1082 0.984 . S
H1090 N1078 0.984 . S
H1091 N1078 0.985 . S
C1092 C1093 1.363 . S
C1092 C1098 1.379 . S
C1092 N1100 1.356 . S
C1093 C1092 1.363 . S
C1093 C1099 1.363 . S
C1094 C1095 1.363 . S
C1094 C1099 1.379 . S
C1094 N1101 1.356 . S
C1095 C1094 1.363 . S
C1095 C1098 1.363 . S
N1096 C1098 1.356 . S
N1096 H1108 0.984 . S
N1096 H1109 0.985 . S
N1097 C1099 1.356 . S
N1097 H1102 0.984 . S
N1097 H1103 0.985 . S
C1098 C1092 1.379 . S
C1098 C1095 1.363 . S
C1098 N1096 1.356 . S
C1099 C1093 1.363 . S
C1099 C1094 1.379 . S
C1099 N1097 1.356 . S
N1100 C1092 1.356 . S
N1100 H1106 0.984 . S
N1100 H1107 0.984 . S
N1101 C1094 1.356 . S
N1101 H1104 0.984 . S
N1101 H1105 0.985 . S
H1102 N1097 0.984 . S
H1103 N1097 0.985 . S
H1104 N1101 0.984 . S
H1105 N1101 0.985 . S
H1106 N1100 0.984 . S
H1107 N1100 0.984 . S
H1108 N1096 0.984 . S
H1109 N1096 0.985 . S
C1110 C1111 1.363 . S
C1110 C1116 1.379 . S
C1110 N1118 1.356 . S
C1111 C1110 1.363 . S
C1111 C1117 1.363 . S
C1112 C1113 1.363 . S
C1112 C1117 1.379 . S
C1112 N1119 1.356 . S
C1113 C1112 1.363 . S
C1113 C1116 1.363 . S
N1114 C1116 1.356 . S
N1114 H1126 0.984 . S
N1114 H1127 0.985 . S
N1115 C1117 1.356 . S
N1115 H1120 0.984 . S
N1115 H1121 0.985 . S
C1116 C1110 1.379 . S
C1116 C1113 1.363 . S
C1116 N1114 1.356 . S
C1117 C1111 1.363 . S
C1117 C1112 1.379 . S
C1117 N1115 1.356 . S
N1118 C1110 1.356 . S
N1118 H1124 0.984 . S
N1118 H1125 0.984 . S
N1119 C1112 1.356 . S
N1119 H1122 0.984 . S
N1119 H1123 0.985 . S
H1120 N1115 0.984 . S
H1121 N1115 0.985 . S
H1122 N1119 0.984 . S
H1123 N1119 0.985 . S
H1124 N1118 0.984 . S
H1125 N1118 0.984 . S
H1126 N1114 0.984 . S
H1127 N1114 0.985 . S
C1128 C1129 1.363 . S
C1128 C1134 1.379 . S
C1128 N1136 1.356 . S
C1129 C1128 1.363 . S
C1129 C1135 1.363 . S
C1130 C1131 1.363 . S
C1130 C1135 1.379 . S
C1130 N1137 1.356 . S
C1131 C1130 1.363 . S
C1131 C1134 1.363 . S
N1132 C1134 1.356 . S
N1132 H1144 0.984 . S
N1132 H1145 0.985 . S
N1133 C1135 1.356 . S
N1133 H1138 0.984 . S
N1133 H1139 0.985 . S
C1134 C1128 1.379 . S
C1134 C1131 1.363 . S
C1134 N1132 1.356 . S
C1135 C1129 1.363 . S
C1135 C1130 1.379 . S
C1135 N1133 1.356 . S
N1136 C1128 1.356 . S
N1136 H1142 0.984 . S
N1136 H1143 0.984 . S
N1137 C1130 1.356 . S
N1137 H1140 0.984 . S
N1137 H1141 0.985 . S
H1138 N1133 0.984 . S
H1139 N1133 0.985 . S
H1140 N1137 0.984 . S
H1141 N1137 0.985 . S
H1142 N1136 0.984 . S
H1143 N1136 0.984 . S
H1144 N1132 0.984 . S
H1145 N1132 0.985 . S
C1146 C1147 1.363 . S
C1146 C1152 1.379 . S
C1146 N1154 1.356 . S
C1147 C1146 1.363 . S
C1147 C1153 1.363 . S
C1148 C1149 1.363 . S
C1148 C1153 1.379 . S
C1148 N1155 1.356 . S
C1149 C1148 1.363 . S
C1149 C1152 1.363 . S
N1150 C1152 1.356 . S
N1150 H1162 0.984 . S
N1150 H1163 0.985 . S
N1151 C1153 1.356 . S
N1151 H1156 0.984 . S
N1151 H1157 0.985 . S
C1152 C1146 1.379 . S
C1152 C1149 1.363 . S
C1152 N1150 1.356 . S
C1153 C1147 1.363 . S
C1153 C1148 1.379 . S
C1153 N1151 1.356 . S
N1154 C1146 1.356 . S
N1154 H1160 0.984 . S
N1154 H1161 0.984 . S
N1155 C1148 1.356 . S
N1155 H1158 0.984 . S
N1155 H1159 0.985 . S
H1156 N1151 0.984 . S
H1157 N1151 0.985 . S
H1158 N1155 0.984 . S
H1159 N1155 0.985 . S
H1160 N1154 0.984 . S
H1161 N1154 0.984 . S
H1162 N1150 0.984 . S
H1163 N1150 0.985 . S
C1164 C1165 1.363 . S
C1164 C1170 1.379 . S
C1164 N1172 1.356 . S
C1165 C1164 1.363 . S
C1165 C1171 1.363 . S
C1166 C1167 1.363 . S
C1166 C1171 1.379 . S
C1166 N1173 1.356 . S
C1167 C1166 1.363 . S
C1167 C1170 1.363 . S
N1168 C1170 1.356 . S
N1168 H1180 0.984 . S
N1168 H1181 0.985 . S
N1169 C1171 1.356 . S
N1169 H1174 0.984 . S
N1169 H1175 0.985 . S
C1170 C1164 1.379 . S
C1170 C1167 1.363 . S
C1170 N1168 1.356 . S
C1171 C1165 1.363 . S
C1171 C1166 1.379 . S
C1171 N1169 1.356 . S
N1172 C1164 1.356 . S
N1172 H1178 0.984 . S
N1172 H1179 0.984 . S
N1173 C1166 1.356 . S
N1173 H1176 0.984 . S
N1173 H1177 0.985 . S
H1174 N1169 0.984 . S
H1175 N1169 0.985 . S
H1176 N1173 0.984 . S
H1177 N1173 0.985 . S
H1178 N1172 0.984 . S
H1179 N1172 0.984 . S
H1180 N1168 0.984 . S
H1181 N1168 0.985 . S
C1182 C1183 1.363 . S
C1182 C1188 1.379 . S
C1182 N1190 1.356 . S
C1183 C1182 1.363 . S
C1183 C1189 1.363 . S
C1184 C1185 1.363 . S
C1184 C1189 1.379 . S
C1184 N1191 1.356 . S
C1185 C1184 1.363 . S
C1185 C1188 1.363 . S
N1186 C1188 1.356 . S
N1186 H1198 0.984 . S
N1186 H1199 0.985 . S
N1187 C1189 1.356 . S
N1187 H1192 0.984 . S
N1187 H1193 0.985 . S
C1188 C1182 1.379 . S
C1188 C1185 1.363 . S
C1188 N1186 1.356 . S
C1189 C1183 1.363 . S
C1189 C1184 1.379 . S
C1189 N1187 1.356 . S
N1190 C1182 1.356 . S
N1190 H1196 0.984 . S
N1190 H1197 0.984 . S
N1191 C1184 1.356 . S
N1191 H1194 0.984 . S
N1191 H1195 0.985 . S
H1192 N1187 0.984 . S
H1193 N1187 0.985 . S
H1194 N1191 0.984 . S
H1195 N1191 0.985 . S
H1196 N1190 0.984 . S
H1197 N1190 0.984 . S
H1198 N1186 0.984 . S
H1199 N1186 0.985 . S
C337 C161 1.411 . S
C339 C3 1.505 . S
C355 C17 1.505 . S
C357 C119 1.411 . S
C373 C31 1.505 . S
C375 C133 1.411 . S
C391 C45 1.505 . S
C393 C147 1.411 . S
C409 C189 1.411 . S
C411 C59 1.505 . S
C427 C73 1.505 . S
C429 C203 1.411 . S
C445 C217 1.411 . S
C447 C87 1.505 . S
C463 C175 1.411 . S
C465 C101 1.505 . S
C481 C77 1.411 . S
C483 C115 1.505 . S
C499 C91 1.411 . S
C501 C129 1.505 . S
C517 C143 1.505 . S
C519 C105 1.411 . S
C535 C63 1.411 . S
C537 C157 1.505 . S
C553 C49 1.411 . S
C555 C171 1.505 . S
C571 C185 1.505 . S
C573 C7 1.411 . S
C589 C199 1.505 . S
C591 C21 1.411 . S
C607 C213 1.505 . S
C609 C35 1.411 . S
C625 C227 1.505 . S
C627 C329 1.411 . S
C643 C287 1.411 . S
C645 C241 1.505 . S
C661 C255 1.505 . S
C663 C245 1.411 . S
C679 C269 1.505 . S
C681 C259 1.411 . S
C697 C273 1.411 . S
C699 C283 1.505 . S
C715 C297 1.505 . S
C717 C315 1.411 . S
C733 C231 1.411 . S
C735 C311 1.505 . S
C751 C301 1.411 . S
C753 C325 1.505 . S
C769 C9 1.510 . S
C771 C93 1.510 . S
C787 C23 1.510 . S
C789 C107 1.510 . S
C805 C37 1.510 . S
C807 C65 1.510 . S
C823 C79 1.510 . S
C825 C51 1.510 . S
C841 C149 1.510 . S
C843 C121 1.510 . S
C859 C135 1.510 . S
C861 C163 1.510 . S
C877 C177 1.510 . S
C879 C205 1.510 . S
C895 C219 1.510 . S
C897 C191 1.510 . S
C913 C247 1.510 . S
C915 C233 1.510 . S
C931 C261 1.510 . S
C933 C331 1.510 . S
C949 C275 1.510 . S
C951 C303 1.510 . S
C967 C289 1.510 . S
C969 C317 1.510 . S
C985 C8 1.169 . S
C987 C78 1.169 . S
C1003 C22 1.169 . S
C1005 C92 1.169 . S
C1021 C36 1.169 . S
C1023 C106 1.169 . S
C1039 C64 1.169 . S
C1041 C50 1.169 . S
C1057 C120 1.169 . S
C1059 C330 1.169 . S
C1075 C134 1.169 . S
C1077 C302 1.169 . S
C1093 C316 1.169 . S
C1095 C148 1.169 . S
C1111 C162 1.169 . S
C1113 C232 1.169 . S
C1129 C288 1.169 . S
C1131 C176 1.169 . S
C1147 C246 1.169 . S
C1149 C190 1.169 . S
C1165 C204 1.169 . S
C1167 C260 1.169 . S
C1183 C274 1.169 . S
C1185 C218 1.169 . S
