# Generated by pormake.
# Topology whw, (6)-cn, num edge types: 1
# Building blocks:
#     Node 0, Type 0, BuildingBlock: MIFKUJ_clean_sbu_0, # of connection points: 6
#     Node 1, Type 0, BuildingBlock: MIFKUJ_clean_sbu_0, # of connection points: 6
#     Node 2, Type 0, BuildingBlock: MIFKUJ_clean_sbu_0, # of connection points: 6
#     Node 3, Type 0, BuildingBlock: MIFKUJ_clean_sbu_0, # of connection points: 6
#     Node 4, Type 0, BuildingBlock: MIFKUJ_clean_sbu_0, # of connection points: 6
#     Node 5, Type 0, BuildingBlock: MIFKUJ_clean_sbu_0, # of connection points: 6
#     Node 6, Type 0, BuildingBlock: MIFKUJ_clean_sbu_0, # of connection points: 6
#     Node 7, Type 0, BuildingBlock: MIFKUJ_clean_sbu_0, # of connection points: 6
#     Node 8, Type 0, BuildingBlock: MIFKUJ_clean_sbu_0, # of connection points: 6
#     Node 9, Type 0, BuildingBlock: MIFKUJ_clean_sbu_0, # of connection points: 6
#     Node 10, Type 0, BuildingBlock: MIFKUJ_clean_sbu_0, # of connection points: 6
#     Node 11, Type 0, BuildingBlock: MIFKUJ_clean_sbu_0, # of connection points: 6
#     Node 12, Type 0, BuildingBlock: MIFKUJ_clean_sbu_0, # of connection points: 6
#     Node 13, Type 0, BuildingBlock: MIFKUJ_clean_sbu_0, # of connection points: 6
#     Node 14, Type 0, BuildingBlock: MIFKUJ_clean_sbu_0, # of connection points: 6
#     Node 15, Type 0, BuildingBlock: MIFKUJ_clean_sbu_0, # of connection points: 6
#     Edge 16, Type (0, 0), BuildingBlock: KIFKEQ_clean_linker_1, # of connection points: 2
#     Edge 17, Type (0, 0), BuildingBlock: KIFKEQ_clean_linker_1, # of connection points: 2
#     Edge 18, Type (0, 0), BuildingBlock: KIFKEQ_clean_linker_1, # of connection points: 2
#     Edge 19, Type (0, 0), BuildingBlock: KIFKEQ_clean_linker_1, # of connection points: 2
#     Edge 20, Type (0, 0), BuildingBlock: KIFKEQ_clean_linker_1, # of connection points: 2
#     Edge 21, Type (0, 0), BuildingBlock: KIFKEQ_clean_linker_1, # of connection points: 2
#     Edge 22, Type (0, 0), BuildingBlock: KIFKEQ_clean_linker_1, # of connection points: 2
#     Edge 23, Type (0, 0), BuildingBlock: KIFKEQ_clean_linker_1, # of connection points: 2
#     Edge 24, Type (0, 0), BuildingBlock: KIFKEQ_clean_linker_1, # of connection points: 2
#     Edge 25, Type (0, 0), BuildingBlock: KIFKEQ_clean_linker_1, # of connection points: 2
#     Edge 26, Type (0, 0), BuildingBlock: KIFKEQ_clean_linker_1, # of connection points: 2
#     Edge 27, Type (0, 0), BuildingBlock: KIFKEQ_clean_linker_1, # of connection points: 2
#     Edge 28, Type (0, 0), BuildingBlock: KIFKEQ_clean_linker_1, # of connection points: 2
#     Edge 29, Type (0, 0), BuildingBlock: KIFKEQ_clean_linker_1, # of connection points: 2
#     Edge 30, Type (0, 0), BuildingBlock: KIFKEQ_clean_linker_1, # of connection points: 2
#     Edge 31, Type (0, 0), BuildingBlock: KIFKEQ_clean_linker_1, # of connection points: 2
#     Edge 32, Type (0, 0), BuildingBlock: KIFKEQ_clean_linker_1, # of connection points: 2
#     Edge 33, Type (0, 0), BuildingBlock: KIFKEQ_clean_linker_1, # of connection points: 2
#     Edge 34, Type (0, 0), BuildingBlock: KIFKEQ_clean_linker_1, # of connection points: 2
#     Edge 35, Type (0, 0), BuildingBlock: KIFKEQ_clean_linker_1, # of connection points: 2
#     Edge 36, Type (0, 0), BuildingBlock: KIFKEQ_clean_linker_1, # of connection points: 2
#     Edge 37, Type (0, 0), BuildingBlock: KIFKEQ_clean_linker_1, # of connection points: 2
#     Edge 38, Type (0, 0), BuildingBlock: KIFKEQ_clean_linker_1, # of connection points: 2
#     Edge 39, Type (0, 0), BuildingBlock: KIFKEQ_clean_linker_1, # of connection points: 2
#     Edge 40, Type (0, 0), BuildingBlock: KIFKEQ_clean_linker_1, # of connection points: 2
#     Edge 41, Type (0, 0), BuildingBlock: KIFKEQ_clean_linker_1, # of connection points: 2
#     Edge 42, Type (0, 0), BuildingBlock: KIFKEQ_clean_linker_1, # of connection points: 2
#     Edge 43, Type (0, 0), BuildingBlock: KIFKEQ_clean_linker_1, # of connection points: 2
#     Edge 44, Type (0, 0), BuildingBlock: KIFKEQ_clean_linker_1, # of connection points: 2
#     Edge 45, Type (0, 0), BuildingBlock: KIFKEQ_clean_linker_1, # of connection points: 2
#     Edge 46, Type (0, 0), BuildingBlock: KIFKEQ_clean_linker_1, # of connection points: 2
#     Edge 47, Type (0, 0), BuildingBlock: KIFKEQ_clean_linker_1, # of connection points: 2
#     Edge 48, Type (0, 0), BuildingBlock: KIFKEQ_clean_linker_1, # of connection points: 2
#     Edge 49, Type (0, 0), BuildingBlock: KIFKEQ_clean_linker_1, # of connection points: 2
#     Edge 50, Type (0, 0), BuildingBlock: KIFKEQ_clean_linker_1, # of connection points: 2
#     Edge 51, Type (0, 0), BuildingBlock: KIFKEQ_clean_linker_1, # of connection points: 2
#     Edge 52, Type (0, 0), BuildingBlock: KIFKEQ_clean_linker_1, # of connection points: 2
#     Edge 53, Type (0, 0), BuildingBlock: KIFKEQ_clean_linker_1, # of connection points: 2
#     Edge 54, Type (0, 0), BuildingBlock: KIFKEQ_clean_linker_1, # of connection points: 2
#     Edge 55, Type (0, 0), BuildingBlock: KIFKEQ_clean_linker_1, # of connection points: 2
#     Edge 56, Type (0, 0), BuildingBlock: KIFKEQ_clean_linker_1, # of connection points: 2
#     Edge 57, Type (0, 0), BuildingBlock: KIFKEQ_clean_linker_1, # of connection points: 2
#     Edge 58, Type (0, 0), BuildingBlock: KIFKEQ_clean_linker_1, # of connection points: 2
#     Edge 59, Type (0, 0), BuildingBlock: KIFKEQ_clean_linker_1, # of connection points: 2
#     Edge 60, Type (0, 0), BuildingBlock: KIFKEQ_clean_linker_1, # of connection points: 2
#     Edge 61, Type (0, 0), BuildingBlock: KIFKEQ_clean_linker_1, # of connection points: 2
#     Edge 62, Type (0, 0), BuildingBlock: KIFKEQ_clean_linker_1, # of connection points: 2
#     Edge 63, Type (0, 0), BuildingBlock: KIFKEQ_clean_linker_1, # of connection points: 2
# Relax obj value: 0.360
# Max RMSD: 0.222
# Mean RMSD: 0.222
data_MOF--net-whw--node1-MIFKUJ_clean_sbu_0--edge1-KIFKEQ_clean_linker_1
_symmetry_space_group_name_H-M    P1
_symmetry_Int_Tables_number       1
_symmetry_cell_setting            triclinic
loop_
_symmetry_equiv_pos_as_xyz
'x, y, z'
_cell_length_a     44.765287
_cell_length_b     44.729386
_cell_length_c     30.158741
_cell_angle_alpha  89.994865
_cell_angle_beta   90.087686
_cell_angle_gamma 89.945138
loop_
_atom_site_label
_atom_site_type_symbol
_atom_site_fract_x
_atom_site_fract_y
_atom_site_fract_z
_atom_type_partial_charge
Zn0 Zn 0.01651 0.09569 0.20247 0.0
Zn1 Zn 0.00417 0.11899 0.06395 0.0
C2 C 0.06035 0.07794 0.26762 0.0
O3 O 0.0408 0.05662 0.27499 0.0
C4 C 0.963 0.1165 0.99033 0.0
O5 O 0.98309 0.09792 0.97454 0.0
O6 O 0.98338 0.10336 0.2466 0.0
O7 O 0.01645 0.13073 0.1595 0.0
O8 O 0.01242 0.15682 0.09815 0.0
C9 C 0.98456 0.13 0.26125 0.0
O10 O 0.00616 0.14755 0.24765 0.0
O11 O 0.05538 0.09648 0.23652 0.0
C12 C 0.05849 0.0967 0.01244 0.0
O13 O 0.06102 0.07307 0.03792 0.0
O14 O 0.03792 0.11575 0.01939 0.0
O15 O 0.00372 0.08793 0.11242 0.0
O16 O 0.01142 0.05681 0.16626 0.0
O17 O 0.96582 0.12598 0.02991 0.0
C18 C 0.01793 0.15564 0.13954 0.0
C19 C 0.00703 0.06117 0.12499 0.0
Zn20 Zn 0.20696 0.70802 0.45266 0.0
Zn21 Zn 0.19274 0.69846 0.31313 0.0
C22 C 0.21239 0.76865 0.49686 0.0
O23 O 0.23216 0.77718 0.46733 0.0
C24 C 0.16862 0.64604 0.2677 0.0
O25 O 0.15043 0.64454 0.30177 0.0
O26 O 0.20318 0.6722 0.49339 0.0
O27 O 0.17284 0.7079 0.40776 0.0
O28 O 0.15238 0.70414 0.34149 0.0
C29 C 0.18248 0.65301 0.48844 0.0
O30 O 0.16659 0.65337 0.45181 0.0
O31 O 0.20087 0.74275 0.49426 0.0
C32 C 0.21295 0.7352 0.24006 0.0
O33 O 0.22169 0.7091 0.22494 0.0
O34 O 0.20108 0.7367 0.27836 0.0
O35 O 0.21904 0.69221 0.36661 0.0
O36 O 0.24668 0.7107 0.41888 0.0
O37 O 0.18995 0.66479 0.2685 0.0
C38 C 0.14979 0.70837 0.38313 0.0
C39 C 0.24351 0.7041 0.3781 0.0
Zn40 Zn 0.59035 0.90739 0.69517 0.0
Zn41 Zn 0.60495 0.88844 0.55747 0.0
C42 C 0.54485 0.91726 0.76199 0.0
O43 O 0.56509 0.9351 0.77919 0.0
C44 C 0.65733 0.86041 0.52012 0.0
O45 O 0.65631 0.84516 0.55732 0.0
O46 O 0.62175 0.90122 0.74274 0.0
O47 O 0.5919 0.87304 0.65144 0.0
O48 O 0.59709 0.8491 0.58842 0.0
C49 C 0.64305 0.88274 0.73735 0.0
O50 O 0.64679 0.8704 0.69823 0.0
O51 O 0.5503 0.90445 0.72526 0.0
C52 C 0.56947 0.90769 0.48217 0.0
O53 O 0.59594 0.91423 0.46621 0.0
O54 O 0.56743 0.89741 0.52141 0.0
O55 O 0.61191 0.91632 0.60935 0.0
O56 O 0.59399 0.94625 0.65932 0.0
O57 O 0.63941 0.8822 0.51486 0.0
C58 C 0.59175 0.84869 0.6299 0.0
C59 C 0.60146 0.94182 0.6191 0.0
Zn60 Zn 0.40062 0.29002 0.95274 0.0
Zn61 Zn 0.42075 0.28268 0.81753 0.0
C62 C 0.38441 0.23848 0.00424 0.0
O63 O 0.35989 0.25416 0.01006 0.0
C64 C 0.44443 0.31243 0.74332 0.0
O65 O 0.45001 0.28447 0.73305 0.0
O66 O 0.40708 0.31898 0.00351 0.0
O67 O 0.43432 0.29657 0.9086 0.0
O68 O 0.45579 0.27097 0.85552 0.0
C69 C 0.42824 0.31019 0.02859 0.0
O70 O 0.44231 0.28531 0.01869 0.0
O71 O 0.40435 0.24843 0.97822 0.0
C72 C 0.39294 0.2506 0.74525 0.0
O73 O 0.38045 0.27673 0.73817 0.0
O74 O 0.41006 0.2475 0.7786 0.0
O75 O 0.38966 0.29026 0.8634 0.0
O76 O 0.35988 0.29336 0.91952 0.0
O77 O 0.43172 0.31851 0.77991 0.0
C78 C 0.45393 0.27778 0.89643 0.0
C79 C 0.36329 0.29181 0.87766 0.0
Zn80 Zn 0.10793 0.89167 0.94416 0.0
Zn81 Zn 0.09274 0.90832 0.80621 0.0
C82 C 0.159 0.86202 0.98354 0.0
O83 O 0.15743 0.8461 0.94701 0.0
C84 C 0.0416 0.91868 0.74621 0.0
O85 O 0.05371 0.94476 0.73752 0.0
O86 O 0.0709 0.90122 0.9804 0.0
O87 O 0.11523 0.92069 0.89263 0.0
O88 O 0.09273 0.94713 0.84146 0.0
C89 C 0.0737 0.9124 0.01897 0.0
O90 O 0.10037 0.92074 0.03233 0.0
O91 O 0.14215 0.88479 0.9875 0.0
C92 C 0.14462 0.8815 0.76583 0.0
O93 O 0.14526 0.86689 0.80359 0.0
O94 O 0.12573 0.90252 0.76089 0.0
O95 O 0.09468 0.87692 0.85323 0.0
O96 O 0.09919 0.85168 0.91451 0.0
O97 O 0.05387 0.90158 0.77453 0.0
C98 C 0.10035 0.94385 0.88198 0.0
C99 C 0.09358 0.85214 0.87319 0.0
Zn100 Zn 0.41277 0.80359 0.18808 0.0
Zn101 Zn 0.39324 0.78447 0.05207 0.0
C102 C 0.44119 0.8552 0.2276 0.0
O103 O 0.45664 0.85432 0.19062 0.0
C104 C 0.377 0.73832 0.99029 0.0
O105 O 0.35503 0.75713 0.98261 0.0
O106 O 0.40465 0.76601 0.22348 0.0
O107 O 0.38372 0.81036 0.13725 0.0
O108 O 0.35529 0.78759 0.08924 0.0
C109 C 0.39147 0.76746 0.26073 0.0
O110 O 0.3804 0.79323 0.27365 0.0
O111 O 0.41911 0.83755 0.232 0.0
C112 C 0.42115 0.80898 0.97983 0.0
O113 O 0.43544 0.78387 0.98765 0.0
O114 O 0.39958 0.81628 0.00511 0.0
O115 O 0.42707 0.78804 0.09559 0.0
O116 O 0.45201 0.79572 0.15698 0.0
O117 O 0.39543 0.74423 0.02119 0.0
C118 C 0.35957 0.79666 0.1288 0.0
C119 C 0.45177 0.78876 0.11606 0.0
Zn120 Zn 0.50745 0.10716 0.44091 0.0
Zn121 Zn 0.51306 0.10192 0.30294 0.0
C122 C 0.46041 0.14453 0.4779 0.0
O123 O 0.46773 0.1628 0.44559 0.0
C124 C 0.56204 0.08997 0.24745 0.0
O125 O 0.54775 0.06434 0.24571 0.0
O126 O 0.54007 0.08969 0.47961 0.0
O127 O 0.49482 0.08337 0.38777 0.0
O128 O 0.51668 0.06104 0.33287 0.0
C129 C 0.53389 0.07883 0.51746 0.0
O130 O 0.50574 0.07428 0.5277 0.0
O131 O 0.47323 0.11924 0.48051 0.0
C132 C 0.45849 0.11953 0.25836 0.0
O133 O 0.45249 0.13202 0.29675 0.0
O134 O 0.48192 0.10366 0.25462 0.0
O135 O 0.50438 0.13368 0.34988 0.0
O136 O 0.52645 0.14337 0.41318 0.0
O137 O 0.55192 0.11055 0.27233 0.0
C138 C 0.50883 0.06086 0.3733 0.0
C139 C 0.52376 0.14833 0.37178 0.0
Zn140 Zn 0.19149 0.20403 0.69039 0.0
Zn141 Zn 0.20918 0.21054 0.55133 0.0
C142 C 0.16331 0.15273 0.73393 0.0
O143 O 0.14515 0.15291 0.69967 0.0
C144 C 0.20852 0.2717 0.51048 0.0
O145 O 0.21189 0.28327 0.55022 0.0
O146 O 0.20128 0.24103 0.72647 0.0
O147 O 0.2186 0.19564 0.63895 0.0
O148 O 0.24775 0.21336 0.588 0.0
C149 C 0.21488 0.23807 0.76327 0.0
O150 O 0.22554 0.21167 0.77406 0.0
O151 O 0.18556 0.17039 0.7343 0.0
C152 C 0.17951 0.15809 0.51721 0.0
O153 O 0.16085 0.16458 0.54932 0.0
O154 O 0.20376 0.17283 0.51412 0.0
O155 O 0.17409 0.21439 0.59401 0.0
O156 O 0.15264 0.21291 0.65984 0.0
O157 O 0.20731 0.24349 0.50592 0.0
C158 C 0.24324 0.20759 0.62873 0.0
C159 C 0.15101 0.2172 0.61812 0.0
Zn160 Zn 0.9109 0.29931 0.69725 0.0
Zn161 Zn 0.8934 0.28737 0.55885 0.0
C162 C 0.94109 0.35001 0.73392 0.0
O163 O 0.95428 0.34893 0.69507 0.0
C164 C 0.87862 0.24544 0.49104 0.0
O165 O 0.86129 0.26773 0.47893 0.0
O166 O 0.90007 0.26147 0.73061 0.0
O167 O 0.8841 0.30895 0.64487 0.0
O168 O 0.8544 0.29328 0.59281 0.0
C169 C 0.89081 0.26205 0.77046 0.0
O170 O 0.88531 0.28795 0.78927 0.0
O171 O 0.91917 0.33265 0.74123 0.0
C172 C 0.92769 0.31143 0.49379 0.0
O173 O 0.94128 0.28684 0.50652 0.0
O174 O 0.9036 0.31886 0.51325 0.0
O175 O 0.92672 0.28645 0.60394 0.0
O176 O 0.95021 0.28964 0.66751 0.0
O177 O 0.89339 0.24777 0.52687 0.0
C178 C 0.85855 0.29935 0.63361 0.0
C179 C 0.95077 0.28476 0.62595 0.0
Zn180 Zn 0.68726 0.69762 0.18965 0.0
Zn181 Zn 0.70564 0.71356 0.05146 0.0
C182 C 0.65698 0.64667 0.22795 0.0
O183 O 0.64092 0.64919 0.19164 0.0
C184 C 0.72044 0.76006 0.98883 0.0
O185 O 0.74382 0.74291 0.98192 0.0
O186 O 0.69638 0.73461 0.22652 0.0
O187 O 0.71543 0.69159 0.13755 0.0
O188 O 0.74434 0.71084 0.08719 0.0
C189 C 0.70708 0.73202 0.26545 0.0
O190 O 0.71381 0.70531 0.28056 0.0
O191 O 0.68022 0.66282 0.23214 0.0
C192 C 0.68433 0.65911 0.00882 0.0
O193 O 0.6721 0.65355 0.04752 0.0
O194 O 0.70101 0.6819 0.00458 0.0
O195 O 0.6717 0.71159 0.09536 0.0
O196 O 0.64807 0.7061 0.15851 0.0
O197 O 0.70197 0.75282 0.01893 0.0
C198 C 0.74045 0.70306 0.12742 0.0
C199 C 0.64747 0.71157 0.11706 0.0
Zn200 Zn 0.7086 0.21134 0.95306 0.0
Zn201 Zn 0.68829 0.19521 0.81647 0.0
C202 C 0.7275 0.25627 0.01444 0.0
O203 O 0.74898 0.23681 0.02153 0.0
C204 C 0.65384 0.16538 0.7559 0.0
O205 O 0.64069 0.19132 0.76198 0.0
O206 O 0.70446 0.17953 0.99968 0.0
O207 O 0.67219 0.21061 0.91325 0.0
O208 O 0.65022 0.20516 0.8485 0.0
C209 C 0.68619 0.15808 0.9946 0.0
O210 O 0.67319 0.15444 0.95589 0.0
O211 O 0.70799 0.25063 0.98501 0.0
C212 C 0.71094 0.22666 0.74057 0.0
O213 O 0.72009 0.19968 0.72995 0.0
O214 O 0.69834 0.23068 0.77784 0.0
O215 O 0.71646 0.18812 0.86734 0.0
O216 O 0.74601 0.20871 0.9156 0.0
O217 O 0.67805 0.15993 0.77666 0.0
C218 C 0.64857 0.21041 0.88988 0.0
C219 C 0.74105 0.20094 0.87579 0.0
Zn220 Zn 0.8933 0.78383 0.45026 0.0
Zn221 Zn 0.91059 0.79965 0.31248 0.0
C222 C 0.87683 0.73791 0.51307 0.0
O223 O 0.85404 0.75578 0.52031 0.0
C224 C 0.94361 0.82715 0.24815 0.0
O225 O 0.95637 0.80107 0.25476 0.0
O226 O 0.90215 0.81619 0.49503 0.0
O227 O 0.9264 0.78434 0.4056 0.0
O228 O 0.94978 0.78965 0.34255 0.0
C229 C 0.92719 0.81028 0.51307 0.0
O230 O 0.94176 0.7864 0.49981 0.0
O231 O 0.89538 0.74457 0.48282 0.0
C232 C 0.88822 0.76286 0.23951 0.0
O233 O 0.87886 0.78847 0.22328 0.0
O234 O 0.9002 0.76237 0.27776 0.0
O235 O 0.88322 0.80821 0.36471 0.0
O236 O 0.85482 0.78756 0.41478 0.0
O237 O 0.92004 0.83358 0.26978 0.0
C238 C 0.95039 0.78317 0.38354 0.0
C239 C 0.85878 0.79553 0.37466 0.0
Zn240 Zn 0.50844 0.59101 0.70434 0.0
Zn241 Zn 0.50244 0.61212 0.56525 0.0
C242 C 0.56988 0.59462 0.74161 0.0
O243 O 0.57948 0.59852 0.70087 0.0
C244 C 0.47148 0.64697 0.50477 0.0
O245 O 0.49471 0.66342 0.51528 0.0
O246 O 0.47167 0.59581 0.74297 0.0
O247 O 0.51323 0.62779 0.66515 0.0
O248 O 0.51236 0.64951 0.59919 0.0
C249 C 0.45385 0.61774 0.73787 0.0
O250 O 0.45624 0.63435 0.70214 0.0
O251 O 0.54218 0.59053 0.74851 0.0
C252 C 0.53556 0.58894 0.4908 0.0
O253 O 0.50917 0.57814 0.48047 0.0
O254 O 0.53877 0.60244 0.52762 0.0
O255 O 0.49345 0.58422 0.61544 0.0
O256 O 0.51004 0.55364 0.66553 0.0
O257 O 0.46821 0.62159 0.52319 0.0
C258 C 0.51629 0.6509 0.64101 0.0
C259 C 0.50489 0.55916 0.62491 0.0
Zn260 Zn 0.09238 0.40605 0.19666 0.0
Zn261 Zn 0.10905 0.39034 0.05899 0.0
C262 C 0.042 0.41551 0.25646 0.0
O263 O 0.05507 0.44106 0.26561 0.0
C264 C 0.16239 0.36469 0.02236 0.0
O265 O 0.16201 0.35021 0.06026 0.0
O266 O 0.12445 0.40236 0.24355 0.0
O267 O 0.09666 0.37387 0.15081 0.0
O268 O 0.10314 0.34992 0.08861 0.0
C269 C 0.14619 0.38425 0.23942 0.0
O270 O 0.15032 0.37085 0.20116 0.0
O271 O 0.05336 0.39849 0.22727 0.0
C272 C 0.07378 0.41 0.98445 0.0
O273 O 0.0997 0.42095 0.9722 0.0
O274 O 0.07169 0.39748 0.02219 0.0
O275 O 0.11421 0.41908 0.11092 0.0
O276 O 0.09121 0.44499 0.1618 0.0
O277 O 0.14383 0.38585 0.01642 0.0
C278 C 0.09779 0.34935 0.13003 0.0
C279 C 0.09918 0.4421 0.12147 0.0
Zn280 Zn 0.60395 0.39156 0.45006 0.0
Zn281 Zn 0.6037 0.40245 0.31335 0.0
C282 C 0.64999 0.35405 0.48653 0.0
O283 O 0.64613 0.34 0.44871 0.0
C284 C 0.5564 0.40962 0.25024 0.0
O285 O 0.57413 0.43098 0.2361 0.0
O286 O 0.56774 0.40627 0.48283 0.0
O287 O 0.61901 0.41685 0.40012 0.0
O288 O 0.60166 0.44295 0.3454 0.0
C289 C 0.56821 0.41396 0.52337 0.0
O290 O 0.59402 0.4184 0.54304 0.0
O291 O 0.63554 0.37805 0.49362 0.0
C292 C 0.63619 0.37259 0.25214 0.0
O293 O 0.61704 0.35322 0.26817 0.0
O294 O 0.63532 0.39942 0.26594 0.0
O295 O 0.61212 0.3687 0.35782 0.0
O296 O 0.58768 0.35579 0.41767 0.0
O297 O 0.56406 0.39455 0.28414 0.0
C298 C 0.60741 0.44094 0.38658 0.0
C299 C 0.59247 0.35248 0.3764 0.0
Zn300 Zn 0.00296 0.62273 0.94148 0.0
Zn301 Zn 0.01366 0.59928 0.80295 0.0
C302 C 0.9633 0.61932 0.01706 0.0
O303 O 0.9843 0.60174 0.03287 0.0
C304 C 0.0602 0.58153 0.74162 0.0
O305 O 0.04362 0.55745 0.73775 0.0
O306 O 0.03789 0.62037 0.98457 0.0
O307 O 0.00279 0.59186 0.89311 0.0
O308 O 0.01098 0.56061 0.83977 0.0
C309 C 0.05927 0.60178 0.9885 0.0
O310 O 0.06181 0.57948 0.96055 0.0
O311 O 0.96511 0.62825 0.97708 0.0
C312 C 0.9582 0.61975 0.76406 0.0
O313 O 0.95442 0.63185 0.80334 0.0
O314 O 0.98086 0.6032 0.75745 0.0
O315 O 0.01211 0.63522 0.84425 0.0
O316 O 0.00803 0.66068 0.90633 0.0
O317 O 0.05245 0.60166 0.76906 0.0
C318 C 0.00709 0.56516 0.88103 0.0
C319 C 0.01202 0.66009 0.8645 0.0
H320 H 0.07804 0.14958 0.97986 0.0
H321 H 0.08428 0.05424 0.95933 0.0
H322 H 0.10852 0.15813 0.91406 0.0
H323 H 0.11429 0.06294 0.89222 0.0
H324 H 0.18519 0.16216 0.81737 0.0
H325 H 0.16381 0.14483 0.88712 0.0
H326 H 0.09953 0.09185 0.81515 0.0
H327 H 0.12048 0.1096 0.74491 0.0
C328 C 0.08615 0.13045 0.96138 0.0
C329 C 0.07888 0.10127 0.97463 0.0
C330 C 0.10369 0.13534 0.9239 0.0
C331 C 0.11379 0.11118 0.89825 0.0
C332 C 0.1068 0.0819 0.9116 0.0
C333 C 0.0898 0.07695 0.94995 0.0
C334 C 0.16695 0.14628 0.81622 0.0
C335 C 0.15435 0.13747 0.77549 0.0
C336 C 0.15469 0.13646 0.85623 0.0
C337 C 0.12998 0.11717 0.85639 0.0
C338 C 0.11871 0.1066 0.81583 0.0
C339 C 0.13064 0.11684 0.7757 0.0
H340 H 0.17349 0.78182 0.23841 0.0
H341 H 0.25136 0.74658 0.17236 0.0
H342 H 0.16629 0.81754 0.1783 0.0
H343 H 0.24513 0.78317 0.11309 0.0
H344 H 0.19326 0.81164 0.98762 0.0
H345 H 0.2116 0.78644 0.05332 0.0
H346 H 0.18 0.85946 0.13466 0.0
H347 H 0.16058 0.88431 0.06851 0.0
C348 C 0.18965 0.78241 0.21172 0.0
C349 C 0.21267 0.76112 0.20963 0.0
C350 C 0.1856 0.80298 0.17719 0.0
C351 C 0.20477 0.80295 0.14015 0.0
C352 C 0.22937 0.7833 0.14029 0.0
C353 C 0.2331 0.76245 0.17441 0.0
C354 C 0.19066 0.82266 0.01937 0.0
C355 C 0.17516 0.8499 0.0227 0.0
C356 C 0.20141 0.80823 0.05726 0.0
C357 C 0.19719 0.82072 0.09965 0.0
C358 C 0.18324 0.84888 0.10273 0.0
C359 C 0.17233 0.86329 0.06471 0.0
H360 H 0.41912 0.85697 0.3127 0.0
H361 H 0.49111 0.88997 0.23108 0.0
H362 H 0.44408 0.87668 0.37853 0.0
H363 H 0.51652 0.90841 0.29639 0.0
H364 H 0.55865 0.94626 0.41431 0.0
H365 H 0.52126 0.94111 0.3559 0.0
H366 H 0.48548 0.86328 0.4223 0.0
H367 H 0.52182 0.86969 0.48172 0.0
C368 C 0.44003 0.86883 0.30867 0.0
C369 C 0.45323 0.87162 0.26656 0.0
C370 C 0.45451 0.87991 0.34652 0.0
C371 C 0.48261 0.89391 0.34318 0.0
C372 C 0.4948 0.89819 0.30063 0.0
C373 C 0.48026 0.88734 0.26292 0.0
C374 C 0.54228 0.9285 0.41679 0.0
C375 C 0.54335 0.90812 0.45213 0.0
C376 C 0.52097 0.92536 0.38315 0.0
C377 C 0.50071 0.90127 0.38349 0.0
C378 C 0.50049 0.88221 0.42073 0.0
C379 C 0.52144 0.88577 0.45487 0.0
H380 H 0.35929 0.24981 0.66955 0.0
H381 H 0.4276 0.20039 0.73969 0.0
H382 H 0.36788 0.21917 0.60381 0.0
H383 H 0.43657 0.17033 0.674 0.0
H384 H 0.44488 0.11422 0.55336 0.0
H385 H 0.42038 0.13446 0.61903 0.0
H386 H 0.40945 0.21929 0.55237 0.0
H387 H 0.43328 0.19895 0.48658 0.0
C388 C 0.37576 0.23208 0.67121 0.0
C389 C 0.39321 0.22795 0.7095 0.0
C390 C 0.38077 0.21462 0.63348 0.0
C391 C 0.40331 0.19269 0.63333 0.0
C392 C 0.41894 0.18691 0.67292 0.0
C393 C 0.41387 0.20429 0.71064 0.0
C394 C 0.43668 0.13701 0.55239 0.0
C395 C 0.44135 0.15509 0.51486 0.0
C396 C 0.42276 0.14863 0.59014 0.0
C397 C 0.41317 0.17856 0.59116 0.0
C398 C 0.41623 0.19604 0.55264 0.0
C399 C 0.43012 0.18443 0.51493 0.0
H400 H 0.00243 0.83772 0.24359 0.0
H401 H 0.91844 0.86386 0.18487 0.0
H402 H 0.02925 0.86681 0.18866 0.0
H403 H 0.94562 0.89312 0.1285 0.0
H404 H 0.01712 0.88986 0.00664 0.0
H405 H 0.98111 0.8772 0.06464 0.0
H406 H 0.03793 0.91896 0.16233 0.0
H407 H 0.07413 0.93089 0.10504 0.0
C408 C 0.9897 0.85021 0.21921 0.0
C409 C 0.95843 0.84862 0.21839 0.0
C410 C 0.00505 0.86705 0.18787 0.0
C411 C 0.98956 0.8824 0.15433 0.0
C412 C 0.9581 0.88155 0.15407 0.0
C413 C 0.94258 0.86503 0.18633 0.0
C414 C 0.02158 0.89698 0.04033 0.0
C415 C 0.04881 0.91087 0.05131 0.0
C416 C 0.00082 0.88991 0.07349 0.0
C417 C 0.00696 0.89666 0.11812 0.0
C418 C 0.03283 0.91305 0.12832 0.0
C419 C 0.05356 0.91994 0.09537 0.0
H420 H 0.85996 0.25078 0.84665 0.0
H421 H 0.92395 0.21175 0.75674 0.0
H422 H 0.86857 0.21005 0.89902 0.0
H423 H 0.93382 0.17203 0.80957 0.0
H424 H 0.9314 0.16797 0.0042 0.0
H425 H 0.90675 0.19846 0.9487 0.0
H426 H 0.92181 0.12959 0.85057 0.0
H427 H 0.94787 0.09966 0.90603 0.0
C428 C 0.87563 0.23328 0.83792 0.0
C429 C 0.8916 0.23466 0.79794 0.0
C430 C 0.88076 0.21002 0.86805 0.0
C431 C 0.90241 0.18792 0.85921 0.0
C432 C 0.91679 0.18832 0.81768 0.0
C433 C 0.91125 0.21127 0.78727 0.0
C434 C 0.9289 0.159 0.97104 0.0
C435 C 0.94204 0.13156 0.95942 0.0
C436 C 0.91454 0.1765 0.93903 0.0
C437 C 0.91258 0.16684 0.89466 0.0
C438 C 0.92355 0.1382 0.88402 0.0
C439 C 0.93829 0.12088 0.91594 0.0
H440 H 0.68063 0.12411 0.70084 0.0
H441 H 0.5949 0.15817 0.74251 0.0
H442 H 0.65556 0.09331 0.64409 0.0
H443 H 0.57017 0.12762 0.68711 0.0
H444 H 0.59284 0.09531 0.51155 0.0
H445 H 0.62576 0.10791 0.57345 0.0
H446 H 0.56008 0.07435 0.66542 0.0
H447 H 0.52701 0.06215 0.6039 0.0
C448 C 0.65648 0.12446 0.69853 0.0
C449 C 0.63966 0.14352 0.72587 0.0
C450 C 0.64219 0.107 0.66606 0.0
C451 C 0.61089 0.10788 0.66141 0.0
C452 C 0.59423 0.126 0.69028 0.0
C453 C 0.60844 0.14372 0.72183 0.0
C454 C 0.58576 0.08981 0.54489 0.0
C455 C 0.55693 0.07848 0.55285 0.0
C456 C 0.60474 0.09688 0.58035 0.0
C457 C 0.59521 0.09268 0.62428 0.0
C458 C 0.56777 0.07833 0.63189 0.0
C459 C 0.54884 0.07131 0.59657 0.0
H460 H 0.66059 0.88302 0.43552 0.0
H461 H 0.69106 0.80966 0.51709 0.0
H462 H 0.68002 0.85782 0.36984 0.0
H463 H 0.70923 0.78402 0.45183 0.0
H464 H 0.74594 0.74128 0.3335 0.0
H465 H 0.7419 0.77854 0.39224 0.0
H466 H 0.665 0.81689 0.32627 0.0
H467 H 0.67027 0.78062 0.2666 0.0
C468 C 0.67185 0.86175 0.43957 0.0
C469 C 0.67396 0.84822 0.48158 0.0
C470 C 0.68277 0.84714 0.40181 0.0
C471 C 0.69589 0.81859 0.40515 0.0
C472 C 0.69965 0.80607 0.44764 0.0
C473 C 0.68898 0.82075 0.48531 0.0
C474 C 0.72862 0.75815 0.33121 0.0
C475 C 0.70814 0.75784 0.29593 0.0
C476 C 0.72613 0.77941 0.365 0.0
C477 C 0.70265 0.8004 0.36481 0.0
C478 C 0.68351 0.80132 0.32768 0.0
C479 C 0.6864 0.78041 0.29342 0.0
H480 H 0.68127 0.64007 0.31138 0.0
H481 H 0.60402 0.6169 0.23265 0.0
H482 H 0.65684 0.61979 0.37721 0.0
H483 H 0.57918 0.59816 0.29804 0.0
H484 H 0.53911 0.55644 0.41458 0.0
H485 H 0.57368 0.56305 0.35337 0.0
H486 H 0.61868 0.63293 0.42662 0.0
H487 H 0.5854 0.62449 0.48911 0.0
C488 C 0.65926 0.63031 0.30797 0.0
C489 C 0.6446 0.63026 0.26666 0.0
C490 C 0.64507 0.61894 0.34586 0.0
C491 C 0.6158 0.60746 0.34342 0.0
C492 C 0.60184 0.60625 0.30157 0.0
C493 C 0.61609 0.61728 0.2638 0.0
C494 C 0.55697 0.57253 0.41815 0.0
C495 C 0.55942 0.58991 0.45673 0.0
C496 C 0.57661 0.5767 0.38269 0.0
C497 C 0.59873 0.59907 0.38426 0.0
C498 C 0.6022 0.61532 0.42398 0.0
C499 C 0.58294 0.61061 0.4599 0.0
H500 H 0.73907 0.22687 0.66044 0.0
H501 H 0.68116 0.28009 0.7433 0.0
H502 H 0.7324 0.26222 0.60007 0.0
H503 H 0.67252 0.31425 0.68196 0.0
H504 H 0.66463 0.37728 0.56796 0.0
H505 H 0.68687 0.35082 0.63065 0.0
H506 H 0.69392 0.27104 0.55027 0.0
H507 H 0.67323 0.29778 0.48764 0.0
C508 C 0.72527 0.24639 0.66601 0.0
C509 C 0.71058 0.25057 0.70663 0.0
C510 C 0.72107 0.2665 0.63111 0.0
C511 C 0.70133 0.29084 0.63553 0.0
C512 C 0.68806 0.29598 0.67715 0.0
C513 C 0.69285 0.27621 0.71241 0.0
C514 C 0.67153 0.35425 0.56356 0.0
C515 C 0.66699 0.33959 0.52287 0.0
C516 C 0.68408 0.33898 0.59962 0.0
C517 C 0.69207 0.30862 0.59591 0.0
C518 C 0.68864 0.29449 0.55451 0.0
C519 C 0.67648 0.30982 0.51844 0.0
H520 H 0.02271 0.3762 0.98899 0.0
H521 H 0.06936 0.4389 0.90534 0.0
H522 H 0.98704 0.36687 0.9296 0.0
H523 H 0.03215 0.43222 0.84787 0.0
H524 H 0.99494 0.37808 0.73313 0.0
H525 H 0.02291 0.39691 0.79549 0.0
H526 H 0.948 0.37883 0.88194 0.0
H527 H 0.92051 0.35809 0.81906 0.0
C528 C 0.02475 0.3888 0.95848 0.0
C529 C 0.04895 0.40831 0.95194 0.0
C530 C 0.00409 0.38363 0.92435 0.0
C531 C 0.00678 0.39837 0.88322 0.0
C532 C 0.02972 0.41963 0.8783 0.0
C533 C 0.05084 0.42401 0.91176 0.0
C534 C 0.98416 0.37849 0.76525 0.0
C535 C 0.95552 0.36635 0.77103 0.0
C536 C 0.00022 0.3896 0.80132 0.0
C537 C 0.98794 0.3895 0.84431 0.0
C538 C 0.95855 0.37881 0.84967 0.0
C539 C 0.9426 0.36719 0.8135 0.0
H540 H 0.92142 0.71239 0.25261 0.0
H541 H 0.86008 0.75331 0.16017 0.0
H542 H 0.93249 0.67362 0.19903 0.0
H543 H 0.86935 0.7132 0.10742 0.0
H544 H 0.93169 0.67073 0.00339 0.0
H545 H 0.90704 0.70108 0.05879 0.0
H546 H 0.92202 0.63195 0.15671 0.0
H547 H 0.9484 0.60232 0.10135 0.0
C548 C 0.90951 0.71257 0.22132 0.0
C549 C 0.89009 0.73618 0.2105 0.0
C550 C 0.91571 0.69008 0.19047 0.0
C551 C 0.90219 0.69026 0.14824 0.0
C552 C 0.88091 0.71265 0.13895 0.0
C553 C 0.87524 0.73552 0.16947 0.0
C554 C 0.92921 0.66169 0.0365 0.0
C555 C 0.9424 0.63426 0.04807 0.0
C556 C 0.91483 0.67912 0.06849 0.0
C557 C 0.91277 0.66935 0.11281 0.0
C558 C 0.92385 0.64072 0.12338 0.0
C559 C 0.93874 0.62352 0.0915 0.0
H560 H 0.52681 0.371 0.51026 0.0
H561 H 0.55045 0.44284 0.59897 0.0
H562 H 0.49109 0.35254 0.56307 0.0
H563 H 0.51238 0.42595 0.65134 0.0
H564 H 0.48283 0.35821 0.75888 0.0
H565 H 0.50676 0.38944 0.70318 0.0
H566 H 0.44884 0.35155 0.60258 0.0
H567 H 0.42736 0.3185 0.65808 0.0
C568 C 0.52336 0.38365 0.54047 0.0
C569 C 0.54157 0.40819 0.55074 0.0
C570 C 0.50257 0.37312 0.57103 0.0
C571 C 0.49873 0.38739 0.6123 0.0
C572 C 0.51521 0.41368 0.62071 0.0
C573 C 0.5368 0.42367 0.59054 0.0
C574 C 0.47501 0.35714 0.72489 0.0
C575 C 0.45358 0.33598 0.71239 0.0
C576 C 0.48856 0.37517 0.69277 0.0
C577 C 0.48037 0.37281 0.64767 0.0
C578 C 0.45676 0.35337 0.63639 0.0
C579 C 0.44405 0.33468 0.66823 0.0
H580 H 0.44759 0.70199 0.50237 0.0
H581 H 0.4495 0.61841 0.43121 0.0
H582 H 0.42048 0.72527 0.44162 0.0
H583 H 0.42236 0.64192 0.36921 0.0
H584 H 0.42531 0.71645 0.25421 0.0
H585 H 0.43714 0.68155 0.31397 0.0
H586 H 0.37378 0.7264 0.39892 0.0
H587 H 0.36271 0.76183 0.33985 0.0
C588 C 0.44146 0.68844 0.47399 0.0
C589 C 0.45033 0.65846 0.47146 0.0
C590 C 0.42581 0.7017 0.4392 0.0
C591 C 0.41912 0.68543 0.40057 0.0
C592 C 0.42714 0.65499 0.39859 0.0
C593 C 0.4424 0.64149 0.43408 0.0
C594 C 0.41334 0.71841 0.28527 0.0
C595 C 0.39345 0.74229 0.29257 0.0
C596 C 0.42001 0.69826 0.31946 0.0
C597 C 0.40677 0.70154 0.36144 0.0
C598 C 0.38479 0.72366 0.36722 0.0
C599 C 0.37833 0.7439 0.33326 0.0
H600 H 0.1277 0.6015 0.25345 0.0
H601 H 0.1889 0.66009 0.18486 0.0
H602 H 0.10577 0.58685 0.18224 0.0
H603 H 0.16649 0.64588 0.11421 0.0
H604 H 0.07763 0.65329 0.02733 0.0
H605 H 0.10972 0.65896 0.09234 0.0
H606 H 0.1195 0.56313 0.10075 0.0
H607 H 0.08792 0.5574 0.03446 0.0
C608 C 0.13695 0.6107 0.22322 0.0
C609 C 0.15986 0.63218 0.22494 0.0
C610 C 0.12444 0.60225 0.18251 0.0
C611 C 0.13431 0.61548 0.14293 0.0
C612 C 0.15842 0.63549 0.14435 0.0
C613 C 0.17129 0.64351 0.18487 0.0
C614 C 0.08694 0.63345 0.04268 0.0
C615 C 0.08037 0.60494 0.02589 0.0
C616 C 0.1054 0.6367 0.07969 0.0
C617 C 0.11713 0.61148 0.10134 0.0
C618 C 0.11078 0.5829 0.08447 0.0
C619 C 0.09286 0.57966 0.04659 0.0
H620 H 0.18169 0.2897 0.76302 0.0
H621 H 0.24672 0.24086 0.83994 0.0
H622 H 0.17484 0.32436 0.82435 0.0
H623 H 0.24273 0.27719 0.89908 0.0
H624 H 0.19231 0.3118 0.01926 0.0
H625 H 0.20982 0.2856 0.95455 0.0
H626 H 0.18794 0.36216 0.87292 0.0
H627 H 0.16845 0.3878 0.93825 0.0
C628 C 0.19538 0.28701 0.7924 0.0
C629 C 0.21481 0.26246 0.79655 0.0
C630 C 0.19165 0.30709 0.82764 0.0
C631 C 0.20781 0.3035 0.86748 0.0
C632 C 0.22905 0.28031 0.86981 0.0
C633 C 0.23193 0.25971 0.83533 0.0
C634 C 0.19166 0.32335 0.98771 0.0
C635 C 0.17868 0.35182 0.98401 0.0
C636 C 0.20201 0.3083 0.95023 0.0
C637 C 0.20031 0.3215 0.90786 0.0
C638 C 0.18908 0.35088 0.90463 0.0
C639 C 0.17819 0.36578 0.94222 0.0
H640 H 0.05928 0.34005 0.1984 0.0
H641 H 0.12098 0.29491 0.11115 0.0
H642 H 0.04009 0.29159 0.22342 0.0
H643 H 0.10265 0.2467 0.13728 0.0
H644 H 0.06725 0.16281 0.19067 0.0
H645 H 0.09034 0.21093 0.2097 0.0
H646 H 0.01268 0.25708 0.15917 0.0
H647 H 0.99037 0.20929 0.13849 0.0
C648 C 0.06949 0.31978 0.18593 0.0
C649 C 0.09114 0.32098 0.15231 0.0
C650 C 0.05863 0.29218 0.20039 0.0
C651 C 0.07004 0.26561 0.18233 0.0
C652 C 0.09381 0.26693 0.1521 0.0
C653 C 0.10404 0.29443 0.13676 0.0
C654 C 0.05477 0.18328 0.18528 0.0
C655 C 0.02737 0.18275 0.16268 0.0
C656 C 0.06788 0.21064 0.19627 0.0
C657 C 0.0532 0.2375 0.18583 0.0
C658 C 0.02424 0.23662 0.16797 0.0
C659 C 0.01159 0.2094 0.15583 0.0
H660 H 0.00373 0.81061 0.37587 0.0
H661 H 0.96018 0.7347 0.43586 0.0
H662 H 0.05242 0.78998 0.39616 0.0
H663 H 0.00923 0.71325 0.4544 0.0
H664 H 0.09706 0.68387 0.35853 0.0
H665 H 0.04722 0.7011 0.37938 0.0
H666 H 0.08622 0.76545 0.46891 0.0
H667 H 0.13632 0.74727 0.44947 0.0
C668 C 0.00468 0.78992 0.39454 0.0
C669 C 0.97854 0.77403 0.40417 0.0
C670 C 0.03241 0.77827 0.40643 0.0
C671 C 0.03433 0.75018 0.4269 0.0
C672 C 0.00809 0.73513 0.43909 0.0
C673 C 0.98022 0.74729 0.42838 0.0
C674 C 0.0949 0.70099 0.38376 0.0
C675 C 0.12028 0.7146 0.40204 0.0
C676 C 0.06649 0.71059 0.396 0.0
C677 C 0.06314 0.73444 0.42578 0.0
C678 C 0.08844 0.74678 0.44627 0.0
C679 C 0.11694 0.73651 0.435 0.0
H680 H 0.56209 0.66212 0.6978 0.0
H681 H 0.48928 0.70396 0.62726 0.0
H682 H 0.5828 0.71167 0.71503 0.0
H683 H 0.50906 0.75321 0.64616 0.0
H684 H 0.54962 0.83892 0.69318 0.0
H685 H 0.53027 0.78998 0.71635 0.0
H686 H 0.59899 0.74633 0.63972 0.0
H687 H 0.6174 0.79493 0.61506 0.0
C688 C 0.54992 0.68194 0.68772 0.0
C689 C 0.52443 0.67959 0.66084 0.0
C690 C 0.56165 0.71012 0.69769 0.0
C691 C 0.54732 0.73601 0.68208 0.0
C692 C 0.52019 0.73351 0.65906 0.0
C693 C 0.50905 0.70545 0.64793 0.0
C694 C 0.56104 0.81882 0.68246 0.0
C695 C 0.58458 0.82038 0.65183 0.0
C696 C 0.5501 0.79099 0.69587 0.0
C697 C 0.56334 0.76464 0.67993 0.0
C698 C 0.58873 0.76642 0.65287 0.0
C699 C 0.59904 0.79411 0.63841 0.0
H700 H 0.59583 0.18956 0.8598 0.0
H701 H 0.63485 0.2415 0.96577 0.0
H702 H 0.54639 0.20151 0.88639 0.0
H703 H 0.58453 0.2539 0.99281 0.0
H704 H 0.49795 0.30847 0.93716 0.0
H705 H 0.54606 0.28671 0.9572 0.0
H706 H 0.50839 0.19823 0.94418 0.0
H707 H 0.46076 0.22026 0.92187 0.0
C708 C 0.59376 0.20321 0.88933 0.0
C709 C 0.61907 0.21508 0.91024 0.0
C710 C 0.56536 0.2097 0.90512 0.0
C711 C 0.56146 0.22855 0.94198 0.0
C712 C 0.58688 0.23925 0.96443 0.0
C713 C 0.61556 0.23226 0.94892 0.0
C714 C 0.49965 0.28443 0.94088 0.0
C715 C 0.47618 0.26588 0.92722 0.0
C716 C 0.52719 0.27191 0.95249 0.0
C717 C 0.53122 0.24074 0.95068 0.0
C718 C 0.50607 0.22234 0.94463 0.0
C719 C 0.4788 0.23487 0.93207 0.0
H720 H 0.04881 0.84634 0.81323 0.0
H721 H 0.11721 0.79686 0.8825 0.0
H722 H 0.02653 0.79929 0.78759 0.0
H723 H 0.09576 0.75005 0.85567 0.0
H724 H 0.05495 0.66919 0.80247 0.0
H725 H 0.07603 0.71794 0.78232 0.0
H726 H 0.00515 0.76202 0.85396 0.0
H727 H 0.98495 0.71355 0.87557 0.0
C728 C 0.05973 0.82544 0.82129 0.0
C729 C 0.08438 0.8249 0.85009 0.0
C730 C 0.0471 0.79867 0.80654 0.0
C731 C 0.05965 0.77125 0.81945 0.0
C732 C 0.08601 0.77098 0.84473 0.0
C733 C 0.09806 0.79763 0.86049 0.0
C734 C 0.0433 0.68936 0.81231 0.0
C735 C 0.01878 0.68795 0.84115 0.0
C736 C 0.05527 0.71712 0.80068 0.0
C737 C 0.04217 0.7435 0.81675 0.0
C738 C 0.01543 0.74194 0.84085 0.0
C739 C 0.00403 0.71429 0.85353 0.0
H740 H 0.59368 0.68636 0.13229 0.0
H741 H 0.63772 0.75415 0.05428 0.0
H742 H 0.54517 0.70559 0.10878 0.0
H743 H 0.58885 0.77433 0.03223 0.0
H744 H 0.50532 0.81583 0.12551 0.0
H745 H 0.55369 0.79592 0.10264 0.0
H746 H 0.50955 0.72271 0.03631 0.0
H747 H 0.46086 0.74343 0.0577 0.0
C748 C 0.59287 0.70488 0.10915 0.0
C749 C 0.61914 0.71913 0.0955 0.0
C750 C 0.56521 0.71566 0.09532 0.0
C751 C 0.56349 0.74132 0.06869 0.0
C752 C 0.58981 0.7543 0.05239 0.0
C753 C 0.6176 0.7429 0.06516 0.0
C754 C 0.50599 0.79615 0.10457 0.0
C755 C 0.47969 0.78083 0.09377 0.0
C756 C 0.53354 0.78496 0.0911 0.0
C757 C 0.53512 0.75787 0.06778 0.0
C758 C 0.5087 0.74381 0.0539 0.0
C759 C 0.481 0.75554 0.06629 0.0
H760 H 0.57775 0.17144 0.3925 0.0
H761 H 0.5 0.18691 0.31078 0.0
H762 H 0.59577 0.22159 0.37584 0.0
H763 H 0.51777 0.23767 0.29486 0.0
H764 H 0.53627 0.33056 0.37442 0.0
H765 H 0.52134 0.27959 0.35541 0.0
H766 H 0.61182 0.25973 0.31563 0.0
H767 H 0.62663 0.31095 0.33428 0.0
C768 C 0.56496 0.18536 0.36999 0.0
C769 C 0.5374 0.17554 0.3533 0.0
C770 C 0.57534 0.21398 0.36022 0.0
C771 C 0.55806 0.23352 0.33426 0.0
C772 C 0.53146 0.22298 0.315 0.0
C773 C 0.52137 0.19399 0.324 0.0
C774 C 0.55265 0.31555 0.36013 0.0
C775 C 0.58248 0.32453 0.35557 0.0
C776 C 0.54412 0.28649 0.349 0.0
C777 C 0.56547 0.26576 0.33409 0.0
C778 C 0.59496 0.27534 0.32692 0.0
C779 C 0.60338 0.30461 0.33738 0.0
H780 H 0.09932 0.18804 0.63241 0.0
H781 H 0.13787 0.26159 0.55978 0.0
H782 H 0.04934 0.20497 0.61198 0.0
H783 H 0.08747 0.27947 0.54083 0.0
H784 H 0.00314 0.31363 0.63639 0.0
H785 H 0.05226 0.29663 0.61189 0.0
H786 H 0.01135 0.22203 0.54435 0.0
H787 H 0.96183 0.2398 0.56765 0.0
C788 C 0.09696 0.2074 0.61107 0.0
C789 C 0.12204 0.22388 0.59808 0.0
C790 C 0.06849 0.21689 0.59898 0.0
C791 C 0.06475 0.24346 0.57487 0.0
C792 C 0.08998 0.25877 0.5591 0.0
C793 C 0.11862 0.24869 0.57009 0.0
C794 C 0.00466 0.2942 0.61504 0.0
C795 C 0.97908 0.27774 0.60417 0.0
C796 C 0.03261 0.2847 0.60059 0.0
C797 C 0.03538 0.25814 0.57618 0.0
C798 C 0.00957 0.24275 0.56275 0.0
C799 C 0.98144 0.25277 0.57624 0.0
H800 H 0.0427 0.01226 0.13478 0.0
H801 H 0.98576 0.05778 0.04096 0.0
H802 H 0.06306 0.98183 0.07514 0.0
H803 H 0.00644 0.02777 0.9809 0.0
H804 H 0.0412 0.95745 0.88429 0.0
H805 H 0.01389 0.98104 0.94506 0.0
H806 H 0.09688 0.99228 0.01683 0.0
H807 H 0.12362 0.96698 0.95718 0.0
C808 C 0.03392 0.01513 0.10155 0.0
C809 C 0.01312 0.0377 0.09211 0.0
C810 C 0.04581 -0.00207 0.06727 0.0
C811 C 0.03688 0.00278 0.02311 0.0
C812 C 0.01388 0.02341 0.01447 0.0
C813 C 0.00209 0.04071 0.04876 0.0
C814 C 0.05347 0.96517 0.91308 0.0
C815 C 0.0844 0.96054 0.91641 0.0
C816 C 0.03789 0.97863 0.94785 0.0
C817 C 0.05311 0.98818 0.98612 0.0
C818 C 0.0843 0.98442 0.98844 0.0
C819 C 0.09972 0.97032 0.95416 0.0
H820 H 0.25384 0.68087 0.29692 0.0
H821 H 0.27972 0.75326 0.38329 0.0
H822 H 0.28293 0.70255 0.23714 0.0
H823 H 0.30949 0.77496 0.32372 0.0
H824 H 0.33023 0.82439 0.19571 0.0
H825 H 0.30373 0.8009 0.25732 0.0
H826 H 0.3284 0.71375 0.20666 0.0
H827 H 0.35252 0.73751 0.14351 0.0
C828 C 0.26613 0.70131 0.30314 0.0
C829 C 0.26416 0.71569 0.34429 0.0
C830 C 0.28306 0.71368 0.269 0.0
C831 C 0.29829 0.74085 0.27516 0.0
C832 C 0.29746 0.75443 0.31729 0.0
C833 C 0.28067 0.74187 0.35162 0.0
C834 C 0.32947 0.80022 0.19776 0.0
C835 C 0.34293 0.78263 0.16501 0.0
C836 C 0.31468 0.7867 0.23326 0.0
C837 C 0.31399 0.75532 0.23735 0.0
C838 C 0.32784 0.73788 0.20436 0.0
C839 C 0.34178 0.75142 0.16823 0.0
H840 H 0.48223 0.02959 0.43846 0.0
H841 H 0.56807 0.04799 0.3799 0.0
H842 H 0.50637 0.0009 0.49718 0.0
H843 H 0.59273 0.02128 0.44041 0.0
H844 H 0.62403 0.94748 0.53617 0.0
H845 H 0.60273 0.97547 0.47439 0.0
H846 H 0.53428 0.01017 0.56138 0.0
H847 H 0.55545 0.98187 0.62276 0.0
C848 C 0.50633 0.02725 0.43823 0.0
C849 C 0.52339 0.04071 0.40493 0.0
C850 C 0.52023 0.01122 0.47211 0.0
C851 C 0.55159 0.00931 0.4742 0.0
C852 C 0.56856 0.02208 0.4398 0.0
C853 C 0.55452 0.03738 0.40514 0.0
C854 C 0.60456 0.96133 0.54198 0.0
C855 C 0.59099 0.96204 0.58384 0.0
C856 C 0.59242 0.97751 0.50669 0.0
C857 C 0.56631 0.99449 0.51254 0.0
C858 C 0.55386 0.99657 0.55528 0.0
C859 C 0.56616 0.98062 0.59063 0.0
H860 H 0.32515 0.2451 0.882 0.0
H861 H 0.34868 0.3218 0.8031 0.0
H862 H 0.2957 0.22536 0.82069 0.0
H863 H 0.31885 0.30274 0.74176 0.0
H864 H 0.2498 0.26689 0.6444 0.0
H865 H 0.27429 0.29013 0.70809 0.0
H866 H 0.30298 0.20274 0.75305 0.0
H867 H 0.2763 0.17982 0.69127 0.0
C868 C 0.32292 0.25829 0.85203 0.0
C869 C 0.33872 0.28506 0.84718 0.0
C870 C 0.30651 0.2468 0.8165 0.0
C871 C 0.30504 0.26221 0.77577 0.0
C872 C 0.31905 0.29028 0.77253 0.0
C873 C 0.33607 0.30137 0.80771 0.0
C874 C 0.26165 0.25288 0.6679 0.0
C875 C 0.26142 0.22172 0.66327 0.0
C876 C 0.27574 0.26611 0.70437 0.0
C877 C 0.29042 0.24838 0.73633 0.0
C878 C 0.29115 0.21715 0.73015 0.0
C879 C 0.27632 0.20396 0.69442 0.0
H880 H 0.76845 0.17488 0.80559 0.0
H881 H 0.75032 0.26016 0.86651 0.0
H882 H 0.79601 0.19992 0.74631 0.0
H883 H 0.77582 0.28559 0.80601 0.0
H884 H 0.85206 0.31842 0.71834 0.0
H885 H 0.82296 0.29501 0.77693 0.0
H886 H 0.79007 0.22971 0.68311 0.0
H887 H 0.81926 0.25316 0.62477 0.0
C888 C 0.77029 0.19903 0.80591 0.0
C889 C 0.75765 0.21572 0.84032 0.0
C890 C 0.78575 0.21344 0.77188 0.0
C891 C 0.78805 0.24486 0.77118 0.0
C892 C 0.77503 0.2614 0.80579 0.0
C893 C 0.76031 0.24692 0.84032 0.0
C894 C 0.83825 0.29928 0.71029 0.0
C895 C 0.83807 0.28743 0.6673 0.0
C896 C 0.82143 0.28593 0.74374 0.0
C897 C 0.80425 0.26029 0.73489 0.0
C898 C 0.80329 0.24917 0.69131 0.0
C899 C 0.81984 0.26274 0.65775 0.0
H900 H 0.84642 0.73667 0.36579 0.0
H901 H 0.83229 0.8227 0.30483 0.0
H902 H 0.82094 0.71237 0.30418 0.0
H903 H 0.80441 0.79901 0.24482 0.0
H904 H 0.78013 0.74919 0.12186 0.0
H905 H 0.80973 0.77049 0.1816 0.0
H906 H 0.77569 0.70317 0.27126 0.0
H907 H 0.74689 0.68145 0.21088 0.0
C908 C 0.83713 0.75035 0.3395 0.0
C909 C 0.84103 0.78142 0.33973 0.0
C910 C 0.82242 0.73652 0.30426 0.0
C911 C 0.81058 0.75363 0.2692 0.0
C912 C 0.81384 0.78496 0.27049 0.0
C913 C 0.82942 0.79865 0.30505 0.0
C914 C 0.77931 0.73877 0.15426 0.0
C915 C 0.76076 0.71406 0.16215 0.0
C916 C 0.79603 0.75116 0.1887 0.0
C917 C 0.79471 0.739 0.2317 0.0
C918 C 0.77741 0.7132 0.23872 0.0
C919 C 0.76065 0.70086 0.20425 0.0
H920 H 0.47971 0.52679 0.55893 0.0
H921 H 0.56443 0.55409 0.61339 0.0
H922 H 0.50543 0.49956 0.49996 0.0
H923 H 0.59043 0.52896 0.55291 0.0
H924 H 0.62779 0.45309 0.46882 0.0
H925 H 0.6035 0.48234 0.5262 0.0
H926 H 0.53258 0.50486 0.43443 0.0
H927 H 0.5571 0.47528 0.37707 0.0
C928 C 0.5039 0.52692 0.55796 0.0
C929 C 0.52027 0.542 0.59056 0.0
C930 C 0.51868 0.51172 0.52398 0.0
C931 C 0.5501 0.51211 0.52137 0.0
C932 C 0.56631 0.52758 0.5542 0.0
C933 C 0.55152 0.54207 0.58876 0.0
C934 C 0.60722 0.46471 0.46083 0.0
C935 C 0.59418 0.4618 0.41876 0.0
C936 C 0.59333 0.48168 0.49363 0.0
C937 C 0.56592 0.49598 0.4852 0.0
C938 C 0.55345 0.49388 0.44239 0.0
C939 C 0.56759 0.47715 0.40934 0.0
H940 H 0.04471 0.51796 0.87078 0.0
H941 H 0.98723 0.56139 0.96578 0.0
H942 H 0.06589 0.48743 0.92953 0.0
H943 H 0.00851 0.53094 0.02501 0.0
H944 H 0.04057 0.45757 0.11813 0.0
H945 H 0.01476 0.48378 0.0583 0.0
H946 H 0.09874 0.49352 0.98891 0.0
H947 H 0.12388 0.46547 0.04747 0.0
C948 C 0.036 0.52032 0.9041 0.0
C949 C 0.01458 0.54217 0.91402 0.0
C950 C 0.04833 0.50299 0.93791 0.0
C951 C 0.03912 0.50677 0.98212 0.0
C952 C 0.01605 0.5272 0.99137 0.0
C953 C 0.00388 0.54473 0.95755 0.0
C954 C 0.05337 0.46545 0.09 0.0
C955 C 0.08409 0.45962 0.08704 0.0
C956 C 0.03866 0.4805 0.0558 0.0
C957 C 0.05457 0.49057 0.01852 0.0
C958 C 0.08558 0.48539 0.01647 0.0
C959 C 0.1001 0.46967 0.05014 0.0
H960 H 0.07538 0.04453 0.34027 0.0
H961 H 0.10131 0.12344 0.26722 0.0
H962 H 0.11053 0.05761 0.39891 0.0
H963 H 0.13602 0.13679 0.32625 0.0
H964 H 0.2038 0.15118 0.43404 0.0
H965 H 0.18085 0.12605 0.37044 0.0
H966 H 0.10825 0.09681 0.45405 0.0
H967 H 0.13124 0.12125 0.5172 0.0
C968 C 0.08888 0.06443 0.33636 0.0
C969 C 0.08515 0.08318 0.29936 0.0
C970 C 0.10897 0.07199 0.37009 0.0
C971 C 0.12579 0.09848 0.36765 0.0
C972 C 0.12358 0.11613 0.32916 0.0
C973 C 0.10349 0.10856 0.29539 0.0
C974 C 0.18335 0.13871 0.43901 0.0
C975 C 0.16927 0.13838 0.48067 0.0
C976 C 0.17008 0.12452 0.40249 0.0
C977 C 0.14259 0.10956 0.40702 0.0
C978 C 0.12957 0.10777 0.44932 0.0
C979 C 0.14272 0.12199 0.48562 0.0
H980 H 0.17683 0.75433 0.56675 0.0
H981 H 0.22979 0.82674 0.51366 0.0
H982 H 0.16487 0.78448 0.63121 0.0
H983 H 0.21733 0.85723 0.5789 0.0
H984 H 0.14824 0.90488 0.68162 0.0
H985 H 0.16771 0.87981 0.61536 0.0
H986 H 0.19647 0.80543 0.69594 0.0
H987 H 0.17747 0.83026 0.7619 0.0
C988 C 0.18592 0.77672 0.5687 0.0
C989 C 0.20444 0.78803 0.53502 0.0
C990 C 0.17916 0.79393 0.60586 0.0
C991 C 0.19047 0.82303 0.61026 0.0
C992 C 0.20839 0.83481 0.57626 0.0
C993 C 0.21552 0.81735 0.53904 0.0
C994 C 0.15931 0.88347 0.6853 0.0
C995 C 0.161 0.86944 0.72702 0.0
C996 C 0.17049 0.8692 0.64739 0.0
C997 C 0.18319 0.84055 0.65056 0.0
C998 C 0.18643 0.82737 0.69255 0.0
C999 C 0.17564 0.84171 0.73036 0.0
H1000 H 0.41533 0.86995 0.97002 0.0
H1001 H 0.45011 0.79083 0.90625 0.0
H1002 H 0.43859 0.90106 0.91237 0.0
H1003 H 0.47307 0.82144 0.84943 0.0
H1004 H 0.501 0.87774 0.73859 0.0
H1005 H 0.46364 0.8554 0.78694 0.0
H1006 H 0.49226 0.91258 0.8942 0.0
H1007 H 0.5294 0.93535 0.84569 0.0
C1008 C 0.42741 0.85923 0.94328 0.0
C1009 C 0.43116 0.82804 0.94274 0.0
C1010 C 0.44082 0.87698 0.91049 0.0
C1011 C 0.45764 0.8637 0.87632 0.0
C1012 C 0.45996 0.8324 0.87484 0.0
C1013 C 0.447 0.81484 0.9077 0.0
C1014 C 0.49892 0.88607 0.77217 0.0
C1015 C 0.51859 0.90796 0.7885 0.0
C1016 C 0.47754 0.87319 0.7999 0.0
C1017 C 0.47532 0.8819 0.84457 0.0
C1018 C 0.49332 0.90547 0.85991 0.0
C1019 C 0.51476 0.91837 0.83214 0.0
H1020 H 0.41044 0.15704 0.25341 0.0
H1021 H 0.46913 0.10339 0.17213 0.0
H1022 H 0.38928 0.1796 0.18719 0.0
H1023 H 0.44735 0.1255 0.10559 0.0
H1024 H 0.43762 0.2091 0.01381 0.0
H1025 H 0.45138 0.17413 0.07204 0.0
H1026 H 0.36055 0.17493 0.12036 0.0
H1027 H 0.34694 0.2107 0.06271 0.0
C1028 C 0.41833 0.1495 0.22137 0.0
C1029 C 0.44176 0.1287 0.21815 0.0
C1030 C 0.40604 0.16233 0.18325 0.0
C1031 C 0.41681 0.1546 0.14096 0.0
C1032 C 0.4389 0.13235 0.13766 0.0
C1033 C 0.45124 0.11952 0.17583 0.0
C1034 C 0.42041 0.20138 0.03627 0.0
C1035 C 0.39126 0.21302 0.03398 0.0
C1036 C 0.42828 0.18115 0.06962 0.0
C1037 C 0.40715 0.17194 0.10129 0.0
C1038 C 0.37751 0.18202 0.09707 0.0
C1039 C 0.36967 0.20239 0.06385 0.0
H1040 H 0.97717 0.79848 0.56046 0.0
H1041 H 0.90636 0.86373 0.54713 0.0
H1042 H -0.00112 0.82727 0.62026 0.0
H1043 H 0.92871 0.89301 0.60787 0.0
H1044 H 0.01374 0.94551 0.67524 0.0
H1045 H 0.98091 0.92127 0.62097 0.0
H1046 H 0.98193 0.84055 0.69931 0.0
H1047 H 0.01437 0.86442 0.75331 0.0
C1048 C 0.96613 0.81899 0.57033 0.0
C1049 C 0.93991 0.82873 0.54912 0.0
C1050 C 0.97854 0.83539 0.60486 0.0
C1051 C 0.96524 0.86212 0.61903 0.0
C1052 C 0.93929 0.87237 0.59754 0.0
C1053 C 0.92654 0.85564 0.56297 0.0
C1054 C 0.00639 0.92283 0.68137 0.0
C1055 C 0.01721 0.9067 0.71812 0.0
C1056 C 0.98751 0.90905 0.65041 0.0
C1057 C 0.97936 0.87895 0.65572 0.0
C1058 C 0.98826 0.86368 0.69419 0.0
C1059 C 0.00687 0.87741 0.72511 0.0
H1060 H 0.9158 0.19735 0.50331 0.0
H1061 H 0.85802 0.23909 0.40635 0.0
H1062 H 0.93526 0.16403 0.44596 0.0
H1063 H 0.87769 0.2059 0.3493 0.0
H1064 H 0.96467 0.18675 0.26552 0.0
H1065 H 0.93223 0.20898 0.32115 0.0
H1066 H 0.92251 0.12303 0.38466 0.0
H1067 H 0.95483 0.10039 0.32773 0.0
C1068 C 0.90668 0.19892 0.4701 0.0
C1069 C 0.8857 0.22122 0.45925 0.0
C1070 C 0.91773 0.17971 0.43735 0.0
C1071 C 0.90815 0.18264 0.3932 0.0
C1072 C 0.88558 0.20338 0.38307 0.0
C1073 C 0.87434 0.22236 0.4158 0.0
C1074 C 0.95523 0.17246 0.29091 0.0
C1075 C 0.96225 0.14191 0.29249 0.0
C1076 C 0.9365 0.18515 0.32256 0.0
C1077 C 0.92478 0.16768 0.35705 0.0
C1078 C 0.93124 0.13691 0.35826 0.0
C1079 C 0.94956 0.12399 0.32575 0.0
H1080 H 0.70338 0.16481 0.08119 0.0
H1081 H 0.64314 0.1149 0.99704 0.0
H1082 H 0.6787 0.14448 0.14663 0.0
H1083 H 0.61828 0.09504 0.06231 0.0
H1084 H 0.58613 0.05184 0.1865 0.0
H1085 H 0.62197 0.06373 0.12841 0.0
H1086 H 0.62935 0.15375 0.17914 0.0
H1087 H 0.59387 0.14177 0.23767 0.0
C1088 C 0.68524 0.14909 0.07661 0.0
C1089 C 0.67505 0.14169 0.03386 0.0
C1090 C 0.67099 0.13762 0.11413 0.0
C1091 C 0.64635 0.1184 0.10968 0.0
C1092 C 0.63737 0.10958 0.06694 0.0
C1093 C 0.65157 0.12108 0.02945 0.0
C1094 C 0.59576 0.07404 0.18574 0.0
C1095 C 0.58686 0.09598 0.21638 0.0
C1096 C 0.61621 0.08086 0.15231 0.0
C1097 C 0.62827 0.10975 0.14887 0.0
C1098 C 0.62067 0.1312 0.18106 0.0
C1099 C 0.60017 0.12439 0.21447 0.0
H1100 H 0.63713 0.89892 0.82469 0.0
H1101 H 0.68665 0.84004 0.73813 0.0
H1102 H 0.65964 0.87467 0.8891 0.0
H1103 H 0.70842 0.81537 0.80221 0.0
H1104 H 0.75551 0.78266 0.92265 0.0
H1105 H 0.74102 0.8179 0.86479 0.0
H1106 H 0.65401 0.82717 0.92516 0.0
H1107 H 0.6688 0.79271 0.98362 0.0
C1108 C 0.65312 0.88109 0.81935 0.0
C1109 C 0.65991 0.87129 0.7762 0.0
C1110 C 0.66586 0.86703 0.85631 0.0
C1111 C 0.68567 0.84285 0.85098 0.0
C1112 C 0.69355 0.83411 0.80773 0.0
C1113 C 0.68089 0.84819 0.77084 0.0
C1114 C 0.73347 0.79262 0.92399 0.0
C1115 C 0.71323 0.78461 0.95752 0.0
C1116 C 0.72509 0.8127 0.89064 0.0
C1117 C 0.6962 0.82513 0.88988 0.0
C1118 C 0.67653 0.81831 0.9248 0.0
C1119 C 0.68498 0.79837 0.95829 0.0
H1120 H 0.55545 0.59254 0.82928 0.0
H1121 H 0.63054 0.60425 0.74111 0.0
H1122 H 0.58723 0.60293 0.89239 0.0
H1123 H 0.6629 0.61368 0.80494 0.0
H1124 H 0.69498 0.67339 0.92217 0.0
H1125 H 0.67058 0.65285 0.85703 0.0
H1126 H 0.62659 0.58703 0.93904 0.0
H1127 H 0.65015 0.60847 0.00464 0.0
C1128 C 0.57892 0.5968 0.82336 0.0
C1129 C 0.59036 0.5978 0.78 0.0
C1130 C 0.5973 0.60252 0.85977 0.0
C1131 C 0.62773 0.60916 0.85395 0.0
C1132 C 0.63948 0.60904 0.81065 0.0
C1133 C 0.62098 0.60348 0.77405 0.0
C1134 C 0.68051 0.65419 0.9263 0.0
C1135 C 0.67415 0.64286 0.96875 0.0
C1136 C 0.6666 0.64227 0.88876 0.0
C1137 C 0.64621 0.61851 0.89271 0.0
C1138 C 0.64158 0.6058 0.93486 0.0
C1139 C 0.65527 0.61794 0.97248 0.0
H1140 H 0.6637 0.31922 0.25096 0.0
H1141 H 0.6572 0.4024 0.17901 0.0
H1142 H 0.69371 0.29791 0.19176 0.0
H1143 H 0.6871 0.38065 0.11854 0.0
H1144 H 0.68676 0.30167 0.00758 0.0
H1145 H 0.67231 0.33674 0.06569 0.0
H1146 H 0.7429 0.30292 0.14948 0.0
H1147 H 0.7575 0.26782 0.09149 0.0
C1148 C 0.66925 0.33311 0.2227 0.0
C1149 C 0.65813 0.36234 0.21927 0.0
C1150 C 0.68661 0.321 0.18896 0.0
C1151 C 0.69278 0.33767 0.15064 0.0
C1152 C 0.68268 0.36741 0.14787 0.0
C1153 C 0.66574 0.37984 0.18236 0.0
C1154 C 0.69971 0.30223 0.03794 0.0
C1155 C 0.7229 0.28156 0.0453 0.0
C1156 C 0.69157 0.32251 0.07105 0.0
C1157 C 0.70634 0.32231 0.11215 0.0
C1158 C 0.73105 0.30334 0.11814 0.0
C1159 C 0.73936 0.28325 0.08492 0.0
H1160 H 0.01573 0.44274 0.32813 0.0
H1161 H 0.01339 0.36189 0.24959 0.0
H1162 H 0.98297 0.41928 0.38292 0.0
H1163 H 0.98075 0.3388 0.30404 0.0
H1164 H 0.97459 0.29597 0.44213 0.0
H1165 H 0.99626 0.32344 0.38102 0.0
H1166 H 0.93161 0.39407 0.3991 0.0
H1167 H 0.90944 0.36621 0.46124 0.0
C1168 C 0.00773 0.42027 0.32203 0.0
C1169 C 0.01768 0.40398 0.28496 0.0
C1170 C 0.98886 0.40693 0.3533 0.0
C1171 C 0.97978 0.37709 0.34803 0.0
C1172 C 0.98784 0.36169 0.30926 0.0
C1173 C 0.00651 0.37498 0.27803 0.0
C1174 C 0.96476 0.31728 0.4332 0.0
C1175 C 0.94022 0.32888 0.45657 0.0
C1176 C 0.97709 0.33292 0.39785 0.0
C1177 C 0.96537 0.36069 0.38494 0.0
C1178 C 0.94098 0.37263 0.40839 0.0
C1179 C 0.92833 0.35671 0.4438 0.0
H1180 H 0.91364 0.66149 0.76409 0.0
H1181 H 0.96136 0.60101 0.67771 0.0
H1182 H 0.88994 0.68444 0.70009 0.0
H1183 H 0.93689 0.62344 0.61354 0.0
H1184 H 0.92768 0.70422 0.51738 0.0
H1185 H 0.94255 0.67016 0.57609 0.0
H1186 H 0.85643 0.68146 0.63855 0.0
H1187 H 0.84187 0.71644 0.5803 0.0
C1188 C 0.91853 0.65257 0.73151 0.0
C1189 C 0.93972 0.62969 0.72602 0.0
C1190 C 0.90476 0.66565 0.69469 0.0
C1191 C 0.91172 0.65603 0.6515 0.0
C1192 C 0.93145 0.63179 0.64625 0.0
C1193 C 0.94533 0.6188 0.68309 0.0
C1194 C 0.91168 0.69907 0.54318 0.0
C1195 C 0.88371 0.71337 0.54445 0.0
C1196 C 0.92016 0.67933 0.57682 0.0
C1197 C 0.9008 0.67323 0.61239 0.0
C1198 C 0.87211 0.6861 0.61212 0.0
C1199 C 0.86369 0.70602 0.57859 0.0
H1200 H 0.53939 0.43025 0.16864 0.0
H1201 H 0.51377 0.36847 0.27198 0.0
H1202 H 0.50112 0.40941 0.12019 0.0
H1203 H 0.47495 0.34821 0.22391 0.0
H1204 H 0.45637 0.28869 0.10094 0.0
H1205 H 0.48069 0.31668 0.15945 0.0
H1206 H 0.44813 0.39926 0.10266 0.0
H1207 H 0.42373 0.37079 0.0431 0.0
C1208 C 0.52513 0.41271 0.18141 0.0
C1209 C 0.53001 0.40061 0.22384 0.0
C1210 C 0.503 0.40092 0.15372 0.0
C1211 C 0.48523 0.37689 0.16799 0.0
C1212 C 0.48866 0.36636 0.21165 0.0
C1213 C 0.51087 0.37801 0.23923 0.0
C1214 C 0.45396 0.3128 0.10126 0.0
C1215 C 0.43844 0.3276 0.06727 0.0
C1216 C 0.46768 0.32887 0.13511 0.0
C1217 C 0.46642 0.36024 0.13575 0.0
C1218 C 0.44965 0.3751 0.10286 0.0
C1219 C 0.43555 0.35885 0.069 0.0
H1220 H 0.34199 0.71942 0.92147 0.0
H1221 H 0.42627 0.70198 0.98657 0.0
H1222 H 0.35543 0.68462 0.86256 0.0
H1223 H 0.43993 0.66765 0.92724 0.0
H1224 H 0.45363 0.59706 0.82361 0.0
H1225 H 0.43066 0.62088 0.88797 0.0
H1226 H 0.39093 0.6874 0.80233 0.0
H1227 H 0.4134 0.66343 0.73818 0.0
C1228 C 0.36322 0.70787 0.92356 0.0
C1229 C 0.38317 0.71374 0.95854 0.0
C1230 C 0.37099 0.68802 0.88963 0.0
C1231 C 0.39891 0.67358 0.88981 0.0
C1232 C 0.41814 0.67815 0.92616 0.0
C1233 C 0.41034 0.69797 0.96015 0.0
C1234 C 0.43941 0.61636 0.8184 0.0
C1235 C 0.43555 0.62847 0.77569 0.0
C1236 C 0.42646 0.63016 0.85538 0.0
C1237 C 0.40918 0.65624 0.85045 0.0
C1238 C 0.40386 0.66721 0.80743 0.0
C1239 C 0.41689 0.65351 0.77055 0.0
H1240 H 0.13866 0.61062 0.48985 0.0
H1241 H 0.20172 0.65619 0.57475 0.0
H1242 H 0.1144 0.58939 0.55466 0.0
H1243 H 0.17764 0.63449 0.63977 0.0
H1244 H 0.08138 0.5443 0.67683 0.0
H1245 H 0.11696 0.55637 0.61832 0.0
H1246 H 0.12979 0.64399 0.67547 0.0
H1247 H 0.09475 0.63177 0.73434 0.0
C1248 C 0.14783 0.61554 0.52229 0.0
C1249 C 0.17195 0.63537 0.52704 0.0
C1250 C 0.13397 0.60323 0.55955 0.0
C1251 C 0.14387 0.61047 0.60252 0.0
C1252 C 0.16918 0.62882 0.60717 0.0
C1253 C 0.18313 0.64107 0.56984 0.0
C1254 C 0.09217 0.56596 0.67734 0.0
C1255 C 0.08492 0.58719 0.70999 0.0
C1256 C 0.11248 0.57292 0.64367 0.0
C1257 C 0.12601 0.60126 0.64187 0.0
C1258 C 0.12002 0.62185 0.67598 0.0
C1259 C 0.09974 0.61489 0.70966 0.0
H1260 H 0.19218 0.34406 0.24331 0.0
H1261 H 0.13655 0.39992 0.32603 0.0
H1262 H 0.21245 0.31991 0.30922 0.0
H1263 H 0.15626 0.37523 0.39182 0.0
H1264 H 0.20729 0.33316 0.50626 0.0
H1265 H 0.1981 0.36422 0.4408 0.0
H1266 H 0.19108 0.28463 0.36029 0.0
H1267 H 0.20082 0.2539 0.42486 0.0
C1268 C 0.1846 0.35153 0.27556 0.0
C1269 C 0.16246 0.37368 0.27932 0.0
C1270 C 0.19607 0.33752 0.31336 0.0
C1271 C 0.18561 0.34525 0.35581 0.0
C1272 C 0.16495 0.3688 0.35971 0.0
C1273 C 0.15354 0.3829 0.32189 0.0
C1274 C 0.20407 0.32237 0.47447 0.0
C1275 C 0.20467 0.29103 0.47091 0.0
C1276 C 0.19871 0.34016 0.437 0.0
C1277 C 0.19391 0.32695 0.39522 0.0
C1278 C 0.19521 0.29565 0.39168 0.0
C1279 C 0.20054 0.27796 0.42894 0.0
loop_
_geom_bond_atom_site_label_1
_geom_bond_atom_site_label_2
_geom_bond_distance
_geom_bond_site_symmetry_2
_ccdc_geom_bond_type
Zn0 O6 1.969 1_455 S
Zn0 O7 1.965 . S
Zn0 O11 2.024 . S
Zn0 O16 1.969 . S
Zn1 O8 1.969 . S
Zn1 O14 1.969 . S
Zn1 O15 1.965 . S
Zn1 O17 2.024 1_455 S
C2 O3 1.229 . S
C2 O11 1.058 . S
O3 C2 1.229 . S
C4 O5 1.229 1_655 S
C4 O17 1.058 1_556 S
O5 C4 1.229 1_455 S
O6 Zn0 1.969 1_655 S
O6 C9 1.267 . S
O7 Zn0 1.965 . S
O7 C18 1.260 . S
O8 Zn1 1.969 . S
O8 C18 1.258 . S
C9 O6 1.267 . S
C9 O10 1.228 . S
O10 C9 1.228 . S
O11 Zn0 2.024 . S
O11 C2 1.058 . S
C12 O13 1.228 . S
C12 O14 1.267 1_556 S
O13 C12 1.228 . S
O14 Zn1 1.969 . S
O14 C12 1.267 1_554 S
O15 Zn1 1.965 . S
O15 C19 1.260 . S
O16 Zn0 1.969 . S
O16 C19 1.258 . S
O17 Zn1 2.024 1_655 S
O17 C4 1.058 1_554 S
C18 O7 1.260 . S
C18 O8 1.258 . S
C19 O15 1.260 . S
C19 O16 1.258 . S
Zn20 O26 1.969 . S
Zn20 O27 1.965 . S
Zn20 O31 2.024 . S
Zn20 O36 1.969 . S
Zn21 O28 1.969 . S
Zn21 O34 1.969 . S
Zn21 O35 1.965 . S
Zn21 O37 2.024 . S
C22 O23 1.229 . S
C22 O31 1.058 . S
O23 C22 1.229 . S
C24 O25 1.229 . S
C24 O37 1.058 . S
O25 C24 1.229 . S
O26 Zn20 1.969 . S
O26 C29 1.267 . S
O27 Zn20 1.965 . S
O27 C38 1.260 . S
O28 Zn21 1.969 . S
O28 C38 1.258 . S
C29 O26 1.267 . S
C29 O30 1.228 . S
O30 C29 1.228 . S
O31 Zn20 2.024 . S
O31 C22 1.058 . S
C32 O33 1.228 . S
C32 O34 1.267 . S
O33 C32 1.228 . S
O34 Zn21 1.969 . S
O34 C32 1.267 . S
O35 Zn21 1.965 . S
O35 C39 1.260 . S
O36 Zn20 1.969 . S
O36 C39 1.258 . S
O37 Zn21 2.024 . S
O37 C24 1.058 . S
C38 O27 1.260 . S
C38 O28 1.258 . S
C39 O35 1.260 . S
C39 O36 1.258 . S
Zn40 O46 1.969 . S
Zn40 O47 1.965 . S
Zn40 O51 2.024 . S
Zn40 O56 1.969 . S
Zn41 O48 1.969 . S
Zn41 O54 1.969 . S
Zn41 O55 1.965 . S
Zn41 O57 2.024 . S
C42 O43 1.229 . S
C42 O51 1.058 . S
O43 C42 1.229 . S
C44 O45 1.229 . S
C44 O57 1.058 . S
O45 C44 1.229 . S
O46 Zn40 1.969 . S
O46 C49 1.267 . S
O47 Zn40 1.965 . S
O47 C58 1.260 . S
O48 Zn41 1.969 . S
O48 C58 1.258 . S
C49 O46 1.267 . S
C49 O50 1.228 . S
O50 C49 1.228 . S
O51 Zn40 2.024 . S
O51 C42 1.058 . S
C52 O53 1.228 . S
C52 O54 1.267 . S
O53 C52 1.228 . S
O54 Zn41 1.969 . S
O54 C52 1.267 . S
O55 Zn41 1.965 . S
O55 C59 1.260 . S
O56 Zn40 1.969 . S
O56 C59 1.258 . S
O57 Zn41 2.024 . S
O57 C44 1.058 . S
C58 O47 1.260 . S
C58 O48 1.258 . S
C59 O55 1.260 . S
C59 O56 1.258 . S
Zn60 O66 1.969 . S
Zn60 O67 1.965 . S
Zn60 O71 2.024 . S
Zn60 O76 1.969 . S
Zn61 O68 1.969 . S
Zn61 O74 1.969 . S
Zn61 O75 1.965 . S
Zn61 O77 2.024 . S
C62 O63 1.236 . S
C62 O71 1.058 . S
O63 C62 1.236 . S
C64 O65 1.229 . S
C64 O77 1.058 . S
O65 C64 1.229 . S
O66 Zn60 1.969 . S
O66 C69 1.267 . S
O67 Zn60 1.965 . S
O67 C78 1.260 . S
O68 Zn61 1.969 . S
O68 C78 1.258 . S
C69 O66 1.267 . S
C69 O70 1.228 1_556 S
O70 C69 1.228 1_554 S
O71 Zn60 2.024 . S
O71 C62 1.058 . S
C72 O73 1.228 . S
C72 O74 1.267 . S
O73 C72 1.228 . S
O74 Zn61 1.969 . S
O74 C72 1.267 . S
O75 Zn61 1.965 . S
O75 C79 1.260 . S
O76 Zn60 1.969 . S
O76 C79 1.258 . S
O77 Zn61 2.024 . S
O77 C64 1.058 . S
C78 O67 1.260 . S
C78 O68 1.258 . S
C79 O75 1.260 . S
C79 O76 1.258 . S
Zn80 O86 1.969 . S
Zn80 O87 1.965 . S
Zn80 O91 2.024 . S
Zn80 O96 1.969 . S
Zn81 O88 1.969 . S
Zn81 O94 1.969 . S
Zn81 O95 1.965 . S
Zn81 O97 2.024 . S
C82 O83 1.229 . S
C82 O91 1.058 1_554 S
O83 C82 1.229 . S
C84 O85 1.229 . S
C84 O97 1.058 . S
O85 C84 1.229 . S
O86 Zn80 1.969 . S
O86 C89 1.267 1_556 S
O87 Zn80 1.965 . S
O87 C98 1.260 . S
O88 Zn81 1.969 . S
O88 C98 1.258 . S
C89 O86 1.267 1_554 S
C89 O90 1.228 . S
O90 C89 1.228 . S
O91 Zn80 2.024 . S
O91 C82 1.058 1_556 S
C92 O93 1.228 . S
C92 O94 1.267 . S
O93 C92 1.228 . S
O94 Zn81 1.969 . S
O94 C92 1.267 . S
O95 Zn81 1.965 . S
O95 C99 1.260 . S
O96 Zn80 1.969 . S
O96 C99 1.258 . S
O97 Zn81 2.024 . S
O97 C84 1.058 . S
C98 O87 1.260 . S
C98 O88 1.258 . S
C99 O95 1.260 . S
C99 O96 1.258 . S
Zn100 O106 1.969 . S
Zn100 O107 1.965 . S
Zn100 O111 2.024 . S
Zn100 O116 1.969 . S
Zn101 O108 1.969 . S
Zn101 O114 1.969 . S
Zn101 O115 1.965 . S
Zn101 O117 2.024 . S
C102 O103 1.229 . S
C102 O111 1.058 . S
O103 C102 1.229 . S
C104 O105 1.236 . S
C104 O117 1.058 . S
O105 C104 1.236 . S
O106 Zn100 1.969 . S
O106 C109 1.267 . S
O107 Zn100 1.965 . S
O107 C118 1.260 . S
O108 Zn101 1.969 . S
O108 C118 1.258 . S
C109 O106 1.267 . S
C109 O110 1.228 . S
O110 C109 1.228 . S
O111 Zn100 2.024 . S
O111 C102 1.058 . S
C112 O113 1.228 1_554 S
C112 O114 1.267 . S
O113 C112 1.228 1_556 S
O114 Zn101 1.969 . S
O114 C112 1.267 . S
O115 Zn101 1.965 . S
O115 C119 1.260 . S
O116 Zn100 1.969 . S
O116 C119 1.258 . S
O117 Zn101 2.024 . S
O117 C104 1.058 . S
C118 O107 1.260 . S
C118 O108 1.258 . S
C119 O115 1.260 . S
C119 O116 1.258 . S
Zn120 O126 1.969 . S
Zn120 O127 1.965 . S
Zn120 O131 2.024 . S
Zn120 O136 1.969 . S
Zn121 O128 1.969 . S
Zn121 O134 1.969 . S
Zn121 O135 1.965 . S
Zn121 O137 2.024 . S
C122 O123 1.229 . S
C122 O131 1.058 . S
O123 C122 1.229 . S
C124 O125 1.229 . S
C124 O137 1.058 . S
O125 C124 1.229 . S
O126 Zn120 1.969 . S
O126 C129 1.267 . S
O127 Zn120 1.965 . S
O127 C138 1.260 . S
O128 Zn121 1.969 . S
O128 C138 1.258 . S
C129 O126 1.267 . S
C129 O130 1.228 . S
O130 C129 1.228 . S
O131 Zn120 2.024 . S
O131 C122 1.058 . S
C132 O133 1.228 . S
C132 O134 1.267 . S
O133 C132 1.228 . S
O134 Zn121 1.969 . S
O134 C132 1.267 . S
O135 Zn121 1.965 . S
O135 C139 1.260 . S
O136 Zn120 1.969 . S
O136 C139 1.258 . S
O137 Zn121 2.024 . S
O137 C124 1.058 . S
C138 O127 1.260 . S
C138 O128 1.258 . S
C139 O135 1.260 . S
C139 O136 1.258 . S
Zn140 O146 1.969 . S
Zn140 O147 1.965 . S
Zn140 O151 2.024 . S
Zn140 O156 1.969 . S
Zn141 O148 1.969 . S
Zn141 O154 1.969 . S
Zn141 O155 1.965 . S
Zn141 O157 2.024 . S
C142 O143 1.229 . S
C142 O151 1.058 . S
O143 C142 1.229 . S
C144 O145 1.229 . S
C144 O157 1.058 . S
O145 C144 1.229 . S
O146 Zn140 1.969 . S
O146 C149 1.267 . S
O147 Zn140 1.965 . S
O147 C158 1.260 . S
O148 Zn141 1.969 . S
O148 C158 1.258 . S
C149 O146 1.267 . S
C149 O150 1.228 . S
O150 C149 1.228 . S
O151 Zn140 2.024 . S
O151 C142 1.058 . S
C152 O153 1.228 . S
C152 O154 1.267 . S
O153 C152 1.228 . S
O154 Zn141 1.969 . S
O154 C152 1.267 . S
O155 Zn141 1.965 . S
O155 C159 1.260 . S
O156 Zn140 1.969 . S
O156 C159 1.258 . S
O157 Zn141 2.024 . S
O157 C144 1.058 . S
C158 O147 1.260 . S
C158 O148 1.258 . S
C159 O155 1.260 . S
C159 O156 1.258 . S
Zn160 O166 1.969 . S
Zn160 O167 1.965 . S
Zn160 O171 2.024 . S
Zn160 O176 1.969 . S
Zn161 O168 1.969 . S
Zn161 O174 1.969 . S
Zn161 O175 1.965 . S
Zn161 O177 2.024 . S
C162 O163 1.229 . S
C162 O171 1.058 . S
O163 C162 1.229 . S
C164 O165 1.229 . S
C164 O177 1.058 . S
O165 C164 1.229 . S
O166 Zn160 1.969 . S
O166 C169 1.267 . S
O167 Zn160 1.965 . S
O167 C178 1.260 . S
O168 Zn161 1.969 . S
O168 C178 1.258 . S
C169 O166 1.267 . S
C169 O170 1.228 . S
O170 C169 1.228 . S
O171 Zn160 2.024 . S
O171 C162 1.058 . S
C172 O173 1.228 . S
C172 O174 1.267 . S
O173 C172 1.228 . S
O174 Zn161 1.969 . S
O174 C172 1.267 . S
O175 Zn161 1.965 . S
O175 C179 1.260 . S
O176 Zn160 1.969 . S
O176 C179 1.258 . S
O177 Zn161 2.024 . S
O177 C164 1.058 . S
C178 O167 1.260 . S
C178 O168 1.258 . S
C179 O175 1.260 . S
C179 O176 1.258 . S
Zn180 O186 1.969 . S
Zn180 O187 1.965 . S
Zn180 O191 2.024 . S
Zn180 O196 1.969 . S
Zn181 O188 1.969 . S
Zn181 O194 1.969 . S
Zn181 O195 1.965 . S
Zn181 O197 2.024 . S
C182 O183 1.229 . S
C182 O191 1.058 . S
O183 C182 1.229 . S
C184 O185 1.236 . S
C184 O197 1.058 . S
O185 C184 1.236 . S
O186 Zn180 1.969 . S
O186 C189 1.267 . S
O187 Zn180 1.965 . S
O187 C198 1.260 . S
O188 Zn181 1.969 . S
O188 C198 1.258 . S
C189 O186 1.267 . S
C189 O190 1.228 . S
O190 C189 1.228 . S
O191 Zn180 2.024 . S
O191 C182 1.058 . S
C192 O193 1.228 1_554 S
C192 O194 1.267 . S
O193 C192 1.228 1_556 S
O194 Zn181 1.969 . S
O194 C192 1.267 . S
O195 Zn181 1.965 . S
O195 C199 1.260 . S
O196 Zn180 1.969 . S
O196 C199 1.258 . S
O197 Zn181 2.024 . S
O197 C184 1.058 . S
C198 O187 1.260 . S
C198 O188 1.258 . S
C199 O195 1.260 . S
C199 O196 1.258 . S
Zn200 O206 1.969 . S
Zn200 O207 1.965 . S
Zn200 O211 2.024 . S
Zn200 O216 1.969 . S
Zn201 O208 1.969 . S
Zn201 O214 1.969 . S
Zn201 O215 1.965 . S
Zn201 O217 2.024 . S
C202 O203 1.236 . S
C202 O211 1.058 . S
O203 C202 1.236 . S
C204 O205 1.229 . S
C204 O217 1.058 . S
O205 C204 1.229 . S
O206 Zn200 1.969 . S
O206 C209 1.267 . S
O207 Zn200 1.965 . S
O207 C218 1.260 . S
O208 Zn201 1.969 . S
O208 C218 1.258 . S
C209 O206 1.267 . S
C209 O210 1.228 1_556 S
O210 C209 1.228 1_554 S
O211 Zn200 2.024 . S
O211 C202 1.058 . S
C212 O213 1.228 . S
C212 O214 1.267 . S
O213 C212 1.228 . S
O214 Zn201 1.969 . S
O214 C212 1.267 . S
O215 Zn201 1.965 . S
O215 C219 1.260 . S
O216 Zn200 1.969 . S
O216 C219 1.258 . S
O217 Zn201 2.024 . S
O217 C204 1.058 . S
C218 O207 1.260 . S
C218 O208 1.258 . S
C219 O215 1.260 . S
C219 O216 1.258 . S
Zn220 O226 1.969 . S
Zn220 O227 1.965 . S
Zn220 O231 2.024 . S
Zn220 O236 1.969 . S
Zn221 O228 1.969 . S
Zn221 O234 1.969 . S
Zn221 O235 1.965 . S
Zn221 O237 2.024 . S
C222 O223 1.229 . S
C222 O231 1.058 . S
O223 C222 1.229 . S
C224 O225 1.229 . S
C224 O237 1.058 . S
O225 C224 1.229 . S
O226 Zn220 1.969 . S
O226 C229 1.267 . S
O227 Zn220 1.965 . S
O227 C238 1.260 . S
O228 Zn221 1.969 . S
O228 C238 1.258 . S
C229 O226 1.267 . S
C229 O230 1.228 . S
O230 C229 1.228 . S
O231 Zn220 2.024 . S
O231 C222 1.058 . S
C232 O233 1.228 . S
C232 O234 1.267 . S
O233 C232 1.228 . S
O234 Zn221 1.969 . S
O234 C232 1.267 . S
O235 Zn221 1.965 . S
O235 C239 1.260 . S
O236 Zn220 1.969 . S
O236 C239 1.258 . S
O237 Zn221 2.024 . S
O237 C224 1.058 . S
C238 O227 1.260 . S
C238 O228 1.258 . S
C239 O235 1.260 . S
C239 O236 1.258 . S
Zn240 O246 1.969 . S
Zn240 O247 1.965 . S
Zn240 O251 2.024 . S
Zn240 O256 1.969 . S
Zn241 O248 1.969 . S
Zn241 O254 1.969 . S
Zn241 O255 1.965 . S
Zn241 O257 2.024 . S
C242 O243 1.229 . S
C242 O251 1.058 . S
O243 C242 1.229 . S
C244 O245 1.229 . S
C244 O257 1.058 . S
O245 C244 1.229 . S
O246 Zn240 1.969 . S
O246 C249 1.267 . S
O247 Zn240 1.965 . S
O247 C258 1.260 . S
O248 Zn241 1.969 . S
O248 C258 1.258 . S
C249 O246 1.267 . S
C249 O250 1.228 . S
O250 C249 1.228 . S
O251 Zn240 2.024 . S
O251 C242 1.058 . S
C252 O253 1.228 . S
C252 O254 1.267 . S
O253 C252 1.228 . S
O254 Zn241 1.969 . S
O254 C252 1.267 . S
O255 Zn241 1.965 . S
O255 C259 1.260 . S
O256 Zn240 1.969 . S
O256 C259 1.258 . S
O257 Zn241 2.024 . S
O257 C244 1.058 . S
C258 O247 1.260 . S
C258 O248 1.258 . S
C259 O255 1.260 . S
C259 O256 1.258 . S
Zn260 O266 1.969 . S
Zn260 O267 1.965 . S
Zn260 O271 2.024 . S
Zn260 O276 1.969 . S
Zn261 O268 1.969 . S
Zn261 O274 1.969 . S
Zn261 O275 1.965 . S
Zn261 O277 2.024 . S
C262 O263 1.229 . S
C262 O271 1.058 . S
O263 C262 1.229 . S
C264 O265 1.229 . S
C264 O277 1.058 1_556 S
O265 C264 1.229 . S
O266 Zn260 1.969 . S
O266 C269 1.267 . S
O267 Zn260 1.965 . S
O267 C278 1.260 . S
O268 Zn261 1.969 . S
O268 C278 1.258 . S
C269 O266 1.267 . S
C269 O270 1.228 . S
O270 C269 1.228 . S
O271 Zn260 2.024 . S
O271 C262 1.058 . S
C272 O273 1.228 . S
C272 O274 1.267 1_556 S
O273 C272 1.228 . S
O274 Zn261 1.969 . S
O274 C272 1.267 1_554 S
O275 Zn261 1.965 . S
O275 C279 1.260 . S
O276 Zn260 1.969 . S
O276 C279 1.258 . S
O277 Zn261 2.024 . S
O277 C264 1.058 1_554 S
C278 O267 1.260 . S
C278 O268 1.258 . S
C279 O275 1.260 . S
C279 O276 1.258 . S
Zn280 O286 1.969 . S
Zn280 O287 1.965 . S
Zn280 O291 2.024 . S
Zn280 O296 1.969 . S
Zn281 O288 1.969 . S
Zn281 O294 1.969 . S
Zn281 O295 1.965 . S
Zn281 O297 2.024 . S
C282 O283 1.229 . S
C282 O291 1.058 . S
O283 C282 1.229 . S
C284 O285 1.229 . S
C284 O297 1.058 . S
O285 C284 1.229 . S
O286 Zn280 1.969 . S
O286 C289 1.267 . S
O287 Zn280 1.965 . S
O287 C298 1.260 . S
O288 Zn281 1.969 . S
O288 C298 1.258 . S
C289 O286 1.267 . S
C289 O290 1.228 . S
O290 C289 1.228 . S
O291 Zn280 2.024 . S
O291 C282 1.058 . S
C292 O293 1.228 . S
C292 O294 1.267 . S
O293 C292 1.228 . S
O294 Zn281 1.969 . S
O294 C292 1.267 . S
O295 Zn281 1.965 . S
O295 C299 1.260 . S
O296 Zn280 1.969 . S
O296 C299 1.258 . S
O297 Zn281 2.024 . S
O297 C284 1.058 . S
C298 O287 1.260 . S
C298 O288 1.258 . S
C299 O295 1.260 . S
C299 O296 1.258 . S
Zn300 O306 1.969 . S
Zn300 O307 1.965 . S
Zn300 O311 2.024 1_455 S
Zn300 O316 1.969 . S
Zn301 O308 1.969 . S
Zn301 O314 1.969 1_455 S
Zn301 O315 1.965 . S
Zn301 O317 2.024 . S
C302 O303 1.229 1_655 S
C302 O311 1.058 1_554 S
O303 C302 1.229 1_455 S
C304 O305 1.229 . S
C304 O317 1.058 . S
O305 C304 1.229 . S
O306 Zn300 1.969 . S
O306 C309 1.267 1_556 S
O307 Zn300 1.965 . S
O307 C318 1.260 . S
O308 Zn301 1.969 . S
O308 C318 1.258 . S
C309 O306 1.267 1_554 S
C309 O310 1.228 . S
O310 C309 1.228 . S
O311 Zn300 2.024 1_655 S
O311 C302 1.058 1_556 S
C312 O313 1.228 . S
C312 O314 1.267 . S
O313 C312 1.228 . S
O314 Zn301 1.969 1_655 S
O314 C312 1.267 . S
O315 Zn301 1.965 . S
O315 C319 1.260 . S
O316 Zn300 1.969 . S
O316 C319 1.258 . S
O317 Zn301 2.024 . S
O317 C304 1.058 . S
C318 O307 1.260 . S
C318 O308 1.258 . S
C319 O315 1.260 . S
C319 O316 1.258 . S
H320 C328 0.950 . S
H321 C333 0.950 . S
H322 C330 0.950 . S
H323 C332 0.950 . S
H324 C334 0.950 . S
H325 C336 0.950 . S
H326 C338 0.950 . S
H327 C339 0.950 . S
C328 H320 0.950 . S
C328 C329 1.386 . S
C328 C330 1.391 . S
C329 C328 1.386 . S
C329 C333 1.393 . S
C330 H322 0.950 . S
C330 C328 1.391 . S
C330 C331 1.400 . S
C331 C330 1.400 . S
C331 C332 1.398 . S
C331 C337 1.491 . S
C332 H323 0.950 . S
C332 C331 1.398 . S
C332 C333 1.391 . S
C333 H321 0.950 . S
C333 C329 1.393 . S
C333 C332 1.391 . S
C334 H324 0.950 . S
C334 C335 1.386 . S
C334 C336 1.391 . S
C335 C334 1.386 . S
C335 C339 1.393 . S
C336 H325 0.950 . S
C336 C334 1.391 . S
C336 C337 1.400 . S
C337 C331 1.491 . S
C337 C336 1.400 . S
C337 C338 1.398 . S
C338 H326 0.950 . S
C338 C337 1.398 . S
C338 C339 1.391 . S
C339 H327 0.950 . S
C339 C335 1.393 . S
C339 C338 1.391 . S
H340 C348 0.950 . S
H341 C353 0.950 . S
H342 C350 0.950 . S
H343 C352 0.950 . S
H344 C354 0.950 1_556 S
H345 C356 0.950 . S
H346 C358 0.950 . S
H347 C359 0.950 . S
C348 H340 0.950 . S
C348 C349 1.386 . S
C348 C350 1.391 . S
C349 C348 1.386 . S
C349 C353 1.393 . S
C350 H342 0.950 . S
C350 C348 1.391 . S
C350 C351 1.400 . S
C351 C350 1.400 . S
C351 C352 1.398 . S
C351 C357 1.491 . S
C352 H343 0.950 . S
C352 C351 1.398 . S
C352 C353 1.391 . S
C353 H341 0.950 . S
C353 C349 1.393 . S
C353 C352 1.391 . S
C354 H344 0.950 1_554 S
C354 C355 1.386 . S
C354 C356 1.391 . S
C355 C354 1.386 . S
C355 C359 1.393 . S
C356 H345 0.950 . S
C356 C354 1.391 . S
C356 C357 1.400 . S
C357 C351 1.491 . S
C357 C356 1.400 . S
C357 C358 1.398 . S
C358 H346 0.950 . S
C358 C357 1.398 . S
C358 C359 1.391 . S
C359 H347 0.950 . S
C359 C355 1.393 . S
C359 C358 1.391 . S
H360 C368 0.950 . S
H361 C373 0.950 . S
H362 C370 0.950 . S
H363 C372 0.950 . S
H364 C374 0.950 . S
H365 C376 0.950 . S
H366 C378 0.950 . S
H367 C379 0.950 . S
C368 H360 0.950 . S
C368 C369 1.386 . S
C368 C370 1.391 . S
C369 C368 1.386 . S
C369 C373 1.393 . S
C370 H362 0.950 . S
C370 C368 1.391 . S
C370 C371 1.400 . S
C371 C370 1.400 . S
C371 C372 1.398 . S
C371 C377 1.491 . S
C372 H363 0.950 . S
C372 C371 1.398 . S
C372 C373 1.391 . S
C373 H361 0.950 . S
C373 C369 1.393 . S
C373 C372 1.391 . S
C374 H364 0.950 . S
C374 C375 1.386 . S
C374 C376 1.391 . S
C375 C374 1.386 . S
C375 C379 1.393 . S
C376 H365 0.950 . S
C376 C374 1.391 . S
C376 C377 1.400 . S
C377 C371 1.491 . S
C377 C376 1.400 . S
C377 C378 1.398 . S
C378 H366 0.950 . S
C378 C377 1.398 . S
C378 C379 1.391 . S
C379 H367 0.950 . S
C379 C375 1.393 . S
C379 C378 1.391 . S
H380 C388 0.950 . S
H381 C393 0.950 . S
H382 C390 0.950 . S
H383 C392 0.950 . S
H384 C394 0.950 . S
H385 C396 0.950 . S
H386 C398 0.950 . S
H387 C399 0.950 . S
C388 H380 0.950 . S
C388 C389 1.386 . S
C388 C390 1.391 . S
C389 C388 1.386 . S
C389 C393 1.393 . S
C390 H382 0.950 . S
C390 C388 1.391 . S
C390 C391 1.400 . S
C391 C390 1.400 . S
C391 C392 1.398 . S
C391 C397 1.491 . S
C392 H383 0.950 . S
C392 C391 1.398 . S
C392 C393 1.391 . S
C393 H381 0.950 . S
C393 C389 1.393 . S
C393 C392 1.391 . S
C394 H384 0.950 . S
C394 C395 1.386 . S
C394 C396 1.391 . S
C395 C394 1.386 . S
C395 C399 1.393 . S
C396 H385 0.950 . S
C396 C394 1.391 . S
C396 C397 1.400 . S
C397 C391 1.491 . S
C397 C396 1.400 . S
C397 C398 1.398 . S
C398 H386 0.950 . S
C398 C397 1.398 . S
C398 C399 1.391 . S
C399 H387 0.950 . S
C399 C395 1.393 . S
C399 C398 1.391 . S
H400 C408 0.950 . S
H401 C413 0.950 . S
H402 C410 0.950 1_455 S
H403 C412 0.950 . S
H404 C414 0.950 . S
H405 C416 0.950 . S
H406 C418 0.950 . S
H407 C419 0.950 . S
C408 H400 0.950 . S
C408 C409 1.386 . S
C408 C410 1.391 . S
C409 C408 1.386 . S
C409 C413 1.393 . S
C410 H402 0.950 1_655 S
C410 C408 1.391 . S
C410 C411 1.400 . S
C411 C410 1.400 . S
C411 C412 1.398 . S
C411 C417 1.491 . S
C412 H403 0.950 . S
C412 C411 1.398 . S
C412 C413 1.391 . S
C413 H401 0.950 . S
C413 C409 1.393 . S
C413 C412 1.391 . S
C414 H404 0.950 . S
C414 C415 1.386 1_655 S
C414 C416 1.391 . S
C415 C414 1.386 1_455 S
C415 C419 1.393 . S
C416 H405 0.950 . S
C416 C414 1.391 . S
C416 C417 1.400 . S
C417 C411 1.491 . S
C417 C416 1.400 . S
C417 C418 1.398 1_655 S
C418 H406 0.950 . S
C418 C417 1.398 1_455 S
C418 C419 1.391 . S
C419 H407 0.950 . S
C419 C415 1.393 . S
C419 C418 1.391 . S
H420 C428 0.950 . S
H421 C433 0.950 . S
H422 C430 0.950 . S
H423 C432 0.950 . S
H424 C434 0.950 . S
H425 C436 0.950 . S
H426 C438 0.950 . S
H427 C439 0.950 . S
C428 H420 0.950 . S
C428 C429 1.386 . S
C428 C430 1.391 . S
C429 C428 1.386 . S
C429 C433 1.393 . S
C430 H422 0.950 . S
C430 C428 1.391 . S
C430 C431 1.400 . S
C431 C430 1.400 . S
C431 C432 1.398 . S
C431 C437 1.491 . S
C432 H423 0.950 . S
C432 C431 1.398 . S
C432 C433 1.391 . S
C433 H421 0.950 . S
C433 C429 1.393 . S
C433 C432 1.391 . S
C434 H424 0.950 . S
C434 C435 1.386 . S
C434 C436 1.391 . S
C435 C434 1.386 . S
C435 C439 1.393 . S
C436 H425 0.950 . S
C436 C434 1.391 . S
C436 C437 1.400 . S
C437 C431 1.491 . S
C437 C436 1.400 . S
C437 C438 1.398 . S
C438 H426 0.950 . S
C438 C437 1.398 . S
C438 C439 1.391 . S
C439 H427 0.950 . S
C439 C435 1.393 . S
C439 C438 1.391 . S
H440 C448 0.950 . S
H441 C453 0.950 . S
H442 C450 0.950 . S
H443 C452 0.950 . S
H444 C454 0.950 . S
H445 C456 0.950 . S
H446 C458 0.950 . S
H447 C459 0.950 . S
C448 H440 0.950 . S
C448 C449 1.386 . S
C448 C450 1.391 . S
C449 C448 1.386 . S
C449 C453 1.393 . S
C450 H442 0.950 . S
C450 C448 1.391 . S
C450 C451 1.400 . S
C451 C450 1.400 . S
C451 C452 1.398 . S
C451 C457 1.491 . S
C452 H443 0.950 . S
C452 C451 1.398 . S
C452 C453 1.391 . S
C453 H441 0.950 . S
C453 C449 1.393 . S
C453 C452 1.391 . S
C454 H444 0.950 . S
C454 C455 1.386 . S
C454 C456 1.391 . S
C455 C454 1.386 . S
C455 C459 1.393 . S
C456 H445 0.950 . S
C456 C454 1.391 . S
C456 C457 1.400 . S
C457 C451 1.491 . S
C457 C456 1.400 . S
C457 C458 1.398 . S
C458 H446 0.950 . S
C458 C457 1.398 . S
C458 C459 1.391 . S
C459 H447 0.950 . S
C459 C455 1.393 . S
C459 C458 1.391 . S
H460 C468 0.950 . S
H461 C473 0.950 . S
H462 C470 0.950 . S
H463 C472 0.950 . S
H464 C474 0.950 . S
H465 C476 0.950 . S
H466 C478 0.950 . S
H467 C479 0.950 . S
C468 H460 0.950 . S
C468 C469 1.386 . S
C468 C470 1.391 . S
C469 C468 1.386 . S
C469 C473 1.393 . S
C470 H462 0.950 . S
C470 C468 1.391 . S
C470 C471 1.400 . S
C471 C470 1.400 . S
C471 C472 1.398 . S
C471 C477 1.491 . S
C472 H463 0.950 . S
C472 C471 1.398 . S
C472 C473 1.391 . S
C473 H461 0.950 . S
C473 C469 1.393 . S
C473 C472 1.391 . S
C474 H464 0.950 . S
C474 C475 1.386 . S
C474 C476 1.391 . S
C475 C474 1.386 . S
C475 C479 1.393 . S
C476 H465 0.950 . S
C476 C474 1.391 . S
C476 C477 1.400 . S
C477 C471 1.491 . S
C477 C476 1.400 . S
C477 C478 1.398 . S
C478 H466 0.950 . S
C478 C477 1.398 . S
C478 C479 1.391 . S
C479 H467 0.950 . S
C479 C475 1.393 . S
C479 C478 1.391 . S
H480 C488 0.950 . S
H481 C493 0.950 . S
H482 C490 0.950 . S
H483 C492 0.950 . S
H484 C494 0.950 . S
H485 C496 0.950 . S
H486 C498 0.950 . S
H487 C499 0.950 . S
C488 H480 0.950 . S
C488 C489 1.386 . S
C488 C490 1.391 . S
C489 C488 1.386 . S
C489 C493 1.393 . S
C490 H482 0.950 . S
C490 C488 1.391 . S
C490 C491 1.400 . S
C491 C490 1.400 . S
C491 C492 1.398 . S
C491 C497 1.491 . S
C492 H483 0.950 . S
C492 C491 1.398 . S
C492 C493 1.391 . S
C493 H481 0.950 . S
C493 C489 1.393 . S
C493 C492 1.391 . S
C494 H484 0.950 . S
C494 C495 1.386 . S
C494 C496 1.391 . S
C495 C494 1.386 . S
C495 C499 1.393 . S
C496 H485 0.950 . S
C496 C494 1.391 . S
C496 C497 1.400 . S
C497 C491 1.491 . S
C497 C496 1.400 . S
C497 C498 1.398 . S
C498 H486 0.950 . S
C498 C497 1.398 . S
C498 C499 1.391 . S
C499 H487 0.950 . S
C499 C495 1.393 . S
C499 C498 1.391 . S
H500 C508 0.950 . S
H501 C513 0.950 . S
H502 C510 0.950 . S
H503 C512 0.950 . S
H504 C514 0.950 . S
H505 C516 0.950 . S
H506 C518 0.950 . S
H507 C519 0.950 . S
C508 H500 0.950 . S
C508 C509 1.386 . S
C508 C510 1.391 . S
C509 C508 1.386 . S
C509 C513 1.393 . S
C510 H502 0.950 . S
C510 C508 1.391 . S
C510 C511 1.400 . S
C511 C510 1.400 . S
C511 C512 1.398 . S
C511 C517 1.491 . S
C512 H503 0.950 . S
C512 C511 1.398 . S
C512 C513 1.391 . S
C513 H501 0.950 . S
C513 C509 1.393 . S
C513 C512 1.391 . S
C514 H504 0.950 . S
C514 C515 1.386 . S
C514 C516 1.391 . S
C515 C514 1.386 . S
C515 C519 1.393 . S
C516 H505 0.950 . S
C516 C514 1.391 . S
C516 C517 1.400 . S
C517 C511 1.491 . S
C517 C516 1.400 . S
C517 C518 1.398 . S
C518 H506 0.950 . S
C518 C517 1.398 . S
C518 C519 1.391 . S
C519 H507 0.950 . S
C519 C515 1.393 . S
C519 C518 1.391 . S
H520 C528 0.950 . S
H521 C533 0.950 . S
H522 C530 0.950 . S
H523 C532 0.950 . S
H524 C534 0.950 . S
H525 C536 0.975 . S
H526 C538 0.950 . S
H527 C539 0.950 . S
C528 H520 0.950 . S
C528 C529 1.386 . S
C528 C530 1.391 1_455 S
C529 C528 1.386 . S
C529 C533 1.393 . S
C530 H522 0.950 . S
C530 C528 1.391 1_655 S
C530 C531 1.400 . S
C531 C530 1.400 . S
C531 C532 1.398 1_655 S
C531 C537 1.491 . S
C532 H523 0.950 . S
C532 C531 1.398 1_455 S
C532 C533 1.391 . S
C533 H521 0.950 . S
C533 C529 1.393 . S
C533 C532 1.391 . S
C534 H524 0.950 . S
C534 C535 1.386 . S
C534 C536 1.391 . S
C535 C534 1.386 . S
C535 C539 1.393 . S
C536 H525 0.975 . S
C536 C534 1.391 . S
C536 C537 1.400 . S
C537 C531 1.491 . S
C537 C536 1.400 . S
C537 C538 1.398 . S
C538 H526 0.950 . S
C538 C537 1.398 . S
C538 C539 1.391 . S
C539 H527 0.950 . S
C539 C535 1.393 . S
C539 C538 1.391 . S
H540 C548 0.950 . S
H541 C553 0.950 . S
H542 C550 0.950 . S
H543 C552 0.950 . S
H544 C554 0.950 1_556 S
H545 C556 0.950 . S
H546 C558 0.950 . S
H547 C559 0.950 1_455 S
C548 H540 0.950 . S
C548 C549 1.386 . S
C548 C550 1.391 . S
C549 C548 1.386 . S
C549 C553 1.393 . S
C550 H542 0.950 . S
C550 C548 1.391 . S
C550 C551 1.400 . S
C551 C550 1.400 . S
C551 C552 1.398 . S
C551 C557 1.491 . S
C552 H543 0.950 . S
C552 C551 1.398 . S
C552 C553 1.391 . S
C553 H541 0.950 . S
C553 C549 1.393 . S
C553 C552 1.391 . S
C554 H544 0.950 1_554 S
C554 C555 1.386 . S
C554 C556 1.391 . S
C555 C554 1.386 . S
C555 C559 1.393 . S
C556 H545 0.950 . S
C556 C554 1.391 . S
C556 C557 1.400 . S
C557 C551 1.491 . S
C557 C556 1.400 . S
C557 C558 1.398 . S
C558 H546 0.950 . S
C558 C557 1.398 . S
C558 C559 1.391 . S
C559 H547 0.950 1_655 S
C559 C555 1.393 . S
C559 C558 1.391 . S
H560 C568 0.950 . S
H561 C573 0.950 . S
H562 C570 0.950 . S
H563 C572 0.950 . S
H564 C574 0.950 . S
H565 C576 0.950 . S
H566 C578 0.950 . S
H567 C579 0.950 . S
C568 H560 0.950 . S
C568 C569 1.386 . S
C568 C570 1.391 . S
C569 C568 1.386 . S
C569 C573 1.393 . S
C570 H562 0.950 . S
C570 C568 1.391 . S
C570 C571 1.400 . S
C571 C570 1.400 . S
C571 C572 1.398 . S
C571 C577 1.491 . S
C572 H563 0.950 . S
C572 C571 1.398 . S
C572 C573 1.391 . S
C573 H561 0.950 . S
C573 C569 1.393 . S
C573 C572 1.391 . S
C574 H564 0.950 . S
C574 C575 1.386 . S
C574 C576 1.391 . S
C575 C574 1.386 . S
C575 C579 1.393 . S
C576 H565 0.950 . S
C576 C574 1.391 . S
C576 C577 1.400 . S
C577 C571 1.491 . S
C577 C576 1.400 . S
C577 C578 1.398 . S
C578 H566 0.950 . S
C578 C577 1.398 . S
C578 C579 1.391 . S
C579 H567 0.950 . S
C579 C575 1.393 . S
C579 C578 1.391 . S
H580 C588 0.950 . S
H581 C593 0.950 . S
H582 C590 0.950 . S
H583 C592 0.950 . S
H584 C594 0.950 . S
H585 C596 0.950 . S
H586 C598 0.950 . S
H587 C599 0.950 . S
C588 H580 0.950 . S
C588 C589 1.386 . S
C588 C590 1.391 . S
C589 C588 1.386 . S
C589 C593 1.393 . S
C590 H582 0.950 . S
C590 C588 1.391 . S
C590 C591 1.400 . S
C591 C590 1.400 . S
C591 C592 1.398 . S
C591 C597 1.491 . S
C592 H583 0.950 . S
C592 C591 1.398 . S
C592 C593 1.391 . S
C593 H581 0.950 . S
C593 C589 1.393 . S
C593 C592 1.391 . S
C594 H584 0.950 . S
C594 C595 1.386 . S
C594 C596 1.391 . S
C595 C594 1.386 . S
C595 C599 1.393 . S
C596 H585 0.950 . S
C596 C594 1.391 . S
C596 C597 1.400 . S
C597 C591 1.491 . S
C597 C596 1.400 . S
C597 C598 1.398 . S
C598 H586 0.950 . S
C598 C597 1.398 . S
C598 C599 1.391 . S
C599 H587 0.950 . S
C599 C595 1.393 . S
C599 C598 1.391 . S
H600 C608 0.950 . S
H601 C613 0.950 . S
H602 C610 0.950 . S
H603 C612 0.950 . S
H604 C614 0.950 . S
H605 C616 0.950 . S
H606 C618 0.950 . S
H607 C619 0.950 . S
C608 H600 0.950 . S
C608 C609 1.386 . S
C608 C610 1.391 . S
C609 C608 1.386 . S
C609 C613 1.393 . S
C610 H602 0.950 . S
C610 C608 1.391 . S
C610 C611 1.400 . S
C611 C610 1.400 . S
C611 C612 1.398 . S
C611 C617 1.491 . S
C612 H603 0.950 . S
C612 C611 1.398 . S
C612 C613 1.391 . S
C613 H601 0.950 . S
C613 C609 1.393 . S
C613 C612 1.391 . S
C614 H604 0.950 . S
C614 C615 1.386 . S
C614 C616 1.391 . S
C615 C614 1.386 . S
C615 C619 1.393 . S
C616 H605 0.950 . S
C616 C614 1.391 . S
C616 C617 1.400 . S
C617 C611 1.491 . S
C617 C616 1.400 . S
C617 C618 1.398 . S
C618 H606 0.950 . S
C618 C617 1.398 . S
C618 C619 1.391 . S
C619 H607 0.950 . S
C619 C615 1.393 . S
C619 C618 1.391 . S
H620 C628 0.950 . S
H621 C633 0.950 . S
H622 C630 0.950 . S
H623 C632 0.950 . S
H624 C634 0.950 . S
H625 C636 0.950 . S
H626 C638 0.950 . S
H627 C639 0.950 . S
C628 H620 0.950 . S
C628 C629 1.386 . S
C628 C630 1.391 . S
C629 C628 1.386 . S
C629 C633 1.393 . S
C630 H622 0.950 . S
C630 C628 1.391 . S
C630 C631 1.400 . S
C631 C630 1.400 . S
C631 C632 1.398 . S
C631 C637 1.491 . S
C632 H623 0.950 . S
C632 C631 1.398 . S
C632 C633 1.391 . S
C633 H621 0.950 . S
C633 C629 1.393 . S
C633 C632 1.391 . S
C634 H624 0.950 . S
C634 C635 1.386 . S
C634 C636 1.391 . S
C635 C634 1.386 . S
C635 C639 1.393 . S
C636 H625 0.950 . S
C636 C634 1.391 . S
C636 C637 1.400 . S
C637 C631 1.491 . S
C637 C636 1.400 . S
C637 C638 1.398 . S
C638 H626 0.950 . S
C638 C637 1.398 . S
C638 C639 1.391 . S
C639 H627 0.950 . S
C639 C635 1.393 . S
C639 C638 1.391 . S
H640 C648 0.950 . S
H641 C653 0.950 . S
H642 C650 0.950 . S
H643 C652 0.950 . S
H644 C654 0.950 . S
H645 C656 0.950 . S
H646 C658 0.950 . S
H647 C659 0.950 1_655 S
C648 H640 0.950 . S
C648 C649 1.386 . S
C648 C650 1.391 . S
C649 C648 1.386 . S
C649 C653 1.393 . S
C650 H642 0.950 . S
C650 C648 1.391 . S
C650 C651 1.400 . S
C651 C650 1.400 . S
C651 C652 1.398 . S
C651 C657 1.491 . S
C652 H643 0.950 . S
C652 C651 1.398 . S
C652 C653 1.391 . S
C653 H641 0.950 . S
C653 C649 1.393 . S
C653 C652 1.391 . S
C654 H644 0.950 . S
C654 C655 1.386 . S
C654 C656 1.391 . S
C655 C654 1.386 . S
C655 C659 1.393 . S
C656 H645 0.950 . S
C656 C654 1.391 . S
C656 C657 1.400 . S
C657 C651 1.491 . S
C657 C656 1.400 . S
C657 C658 1.398 . S
C658 H646 0.950 . S
C658 C657 1.398 . S
C658 C659 1.391 . S
C659 H647 0.950 1_455 S
C659 C655 1.393 . S
C659 C658 1.391 . S
H660 C668 0.950 . S
H661 C673 0.950 . S
H662 C670 0.950 . S
H663 C672 0.950 . S
H664 C674 0.950 . S
H665 C676 0.950 . S
H666 C678 0.950 . S
H667 C679 0.950 . S
C668 H660 0.950 . S
C668 C669 1.386 1_455 S
C668 C670 1.391 . S
C669 C668 1.386 1_655 S
C669 C673 1.393 . S
C670 H662 0.950 . S
C670 C668 1.391 . S
C670 C671 1.400 . S
C671 C670 1.400 . S
C671 C672 1.398 . S
C671 C677 1.491 . S
C672 H663 0.950 . S
C672 C671 1.398 . S
C672 C673 1.391 1_455 S
C673 H661 0.950 . S
C673 C669 1.393 . S
C673 C672 1.391 1_655 S
C674 H664 0.950 . S
C674 C675 1.386 . S
C674 C676 1.391 . S
C675 C674 1.386 . S
C675 C679 1.393 . S
C676 H665 0.950 . S
C676 C674 1.391 . S
C676 C677 1.400 . S
C677 C671 1.491 . S
C677 C676 1.400 . S
C677 C678 1.398 . S
C678 H666 0.950 . S
C678 C677 1.398 . S
C678 C679 1.391 . S
C679 H667 0.950 . S
C679 C675 1.393 . S
C679 C678 1.391 . S
H680 C688 0.950 . S
H681 C693 0.950 . S
H682 C690 0.950 . S
H683 C692 0.950 . S
H684 C694 0.950 . S
H685 C696 0.950 . S
H686 C698 0.950 . S
H687 C699 0.950 . S
C688 H680 0.950 . S
C688 C689 1.386 . S
C688 C690 1.391 . S
C689 C688 1.386 . S
C689 C693 1.393 . S
C690 H682 0.950 . S
C690 C688 1.391 . S
C690 C691 1.400 . S
C691 C690 1.400 . S
C691 C692 1.398 . S
C691 C697 1.491 . S
C692 H683 0.950 . S
C692 C691 1.398 . S
C692 C693 1.391 . S
C693 H681 0.950 . S
C693 C689 1.393 . S
C693 C692 1.391 . S
C694 H684 0.950 . S
C694 C695 1.386 . S
C694 C696 1.391 . S
C695 C694 1.386 . S
C695 C699 1.393 . S
C696 H685 0.950 . S
C696 C694 1.391 . S
C696 C697 1.400 . S
C697 C691 1.491 . S
C697 C696 1.400 . S
C697 C698 1.398 . S
C698 H686 0.950 . S
C698 C697 1.398 . S
C698 C699 1.391 . S
C699 H687 0.950 . S
C699 C695 1.393 . S
C699 C698 1.391 . S
H700 C708 0.950 . S
H701 C713 0.950 . S
H702 C710 0.950 . S
H703 C712 0.950 . S
H704 C714 0.950 . S
H705 C716 0.950 . S
H706 C718 0.950 . S
H707 C719 0.950 . S
C708 H700 0.950 . S
C708 C709 1.386 . S
C708 C710 1.391 . S
C709 C708 1.386 . S
C709 C713 1.393 . S
C710 H702 0.950 . S
C710 C708 1.391 . S
C710 C711 1.400 . S
C711 C710 1.400 . S
C711 C712 1.398 . S
C711 C717 1.491 . S
C712 H703 0.950 . S
C712 C711 1.398 . S
C712 C713 1.391 . S
C713 H701 0.950 . S
C713 C709 1.393 . S
C713 C712 1.391 . S
C714 H704 0.950 . S
C714 C715 1.386 . S
C714 C716 1.391 . S
C715 C714 1.386 . S
C715 C719 1.393 . S
C716 H705 0.950 . S
C716 C714 1.391 . S
C716 C717 1.400 . S
C717 C711 1.491 . S
C717 C716 1.400 . S
C717 C718 1.398 . S
C718 H706 0.950 . S
C718 C717 1.398 . S
C718 C719 1.391 . S
C719 H707 0.950 . S
C719 C715 1.393 . S
C719 C718 1.391 . S
H720 C728 0.950 . S
H721 C733 0.950 . S
H722 C730 0.950 . S
H723 C732 0.950 . S
H724 C734 0.950 . S
H725 C736 0.950 . S
H726 C738 0.950 . S
H727 C739 0.950 1_655 S
C728 H720 0.950 . S
C728 C729 1.386 . S
C728 C730 1.391 . S
C729 C728 1.386 . S
C729 C733 1.393 . S
C730 H722 0.950 . S
C730 C728 1.391 . S
C730 C731 1.400 . S
C731 C730 1.400 . S
C731 C732 1.398 . S
C731 C737 1.491 . S
C732 H723 0.950 . S
C732 C731 1.398 . S
C732 C733 1.391 . S
C733 H721 0.950 . S
C733 C729 1.393 . S
C733 C732 1.391 . S
C734 H724 0.950 . S
C734 C735 1.386 . S
C734 C736 1.391 . S
C735 C734 1.386 . S
C735 C739 1.393 . S
C736 H725 0.950 . S
C736 C734 1.391 . S
C736 C737 1.400 . S
C737 C731 1.491 . S
C737 C736 1.400 . S
C737 C738 1.398 . S
C738 H726 0.950 . S
C738 C737 1.398 . S
C738 C739 1.391 . S
C739 H727 0.950 1_455 S
C739 C735 1.393 . S
C739 C738 1.391 . S
H740 C748 0.950 . S
H741 C753 0.950 . S
H742 C750 0.950 . S
H743 C752 0.950 . S
H744 C754 0.950 . S
H745 C756 0.950 . S
H746 C758 0.950 . S
H747 C759 0.950 . S
C748 H740 0.950 . S
C748 C749 1.386 . S
C748 C750 1.391 . S
C749 C748 1.386 . S
C749 C753 1.393 . S
C750 H742 0.950 . S
C750 C748 1.391 . S
C750 C751 1.400 . S
C751 C750 1.400 . S
C751 C752 1.398 . S
C751 C757 1.491 . S
C752 H743 0.950 . S
C752 C751 1.398 . S
C752 C753 1.391 . S
C753 H741 0.950 . S
C753 C749 1.393 . S
C753 C752 1.391 . S
C754 H744 0.950 . S
C754 C755 1.386 . S
C754 C756 1.391 . S
C755 C754 1.386 . S
C755 C759 1.393 . S
C756 H745 0.950 . S
C756 C754 1.391 . S
C756 C757 1.400 . S
C757 C751 1.491 . S
C757 C756 1.400 . S
C757 C758 1.398 . S
C758 H746 0.950 . S
C758 C757 1.398 . S
C758 C759 1.391 . S
C759 H747 0.950 . S
C759 C755 1.393 . S
C759 C758 1.391 . S
H760 C768 0.950 . S
H761 C773 0.950 . S
H762 C770 0.950 . S
H763 C772 0.950 . S
H764 C774 0.950 . S
H765 C776 0.950 . S
H766 C778 0.950 . S
H767 C779 0.950 . S
C768 H760 0.950 . S
C768 C769 1.386 . S
C768 C770 1.391 . S
C769 C768 1.386 . S
C769 C773 1.393 . S
C770 H762 0.950 . S
C770 C768 1.391 . S
C770 C771 1.400 . S
C771 C770 1.400 . S
C771 C772 1.398 . S
C771 C777 1.491 . S
C772 H763 0.950 . S
C772 C771 1.398 . S
C772 C773 1.391 . S
C773 H761 0.950 . S
C773 C769 1.393 . S
C773 C772 1.391 . S
C774 H764 0.950 . S
C774 C775 1.386 . S
C774 C776 1.391 . S
C775 C774 1.386 . S
C775 C779 1.393 . S
C776 H765 0.950 . S
C776 C774 1.391 . S
C776 C777 1.400 . S
C777 C771 1.491 . S
C777 C776 1.400 . S
C777 C778 1.398 . S
C778 H766 0.950 . S
C778 C777 1.398 . S
C778 C779 1.391 . S
C779 H767 0.950 . S
C779 C775 1.393 . S
C779 C778 1.391 . S
H780 C788 0.950 . S
H781 C793 0.950 . S
H782 C790 0.950 . S
H783 C792 0.950 . S
H784 C794 0.950 . S
H785 C796 0.950 . S
H786 C798 0.950 . S
H787 C799 0.950 . S
C788 H780 0.950 . S
C788 C789 1.386 . S
C788 C790 1.391 . S
C789 C788 1.386 . S
C789 C793 1.393 . S
C790 H782 0.950 . S
C790 C788 1.391 . S
C790 C791 1.400 . S
C791 C790 1.400 . S
C791 C792 1.398 . S
C791 C797 1.491 . S
C792 H783 0.950 . S
C792 C791 1.398 . S
C792 C793 1.391 . S
C793 H781 0.950 . S
C793 C789 1.393 . S
C793 C792 1.391 . S
C794 H784 0.950 . S
C794 C795 1.386 1_455 S
C794 C796 1.391 . S
C795 C794 1.386 1_655 S
C795 C799 1.393 . S
C796 H785 0.950 . S
C796 C794 1.391 . S
C796 C797 1.400 . S
C797 C791 1.491 . S
C797 C796 1.400 . S
C797 C798 1.398 . S
C798 H786 0.950 . S
C798 C797 1.398 . S
C798 C799 1.391 1_455 S
C799 H787 0.950 . S
C799 C795 1.393 . S
C799 C798 1.391 1_655 S
H800 C808 0.950 . S
H801 C813 0.950 1_655 S
H802 C810 0.950 . S
H803 C812 0.950 1_565 S
H804 C814 0.950 . S
H805 C816 0.950 . S
H806 C818 0.950 1_545 S
H807 C819 0.950 . S
C808 H800 0.950 . S
C808 C809 1.386 . S
C808 C810 1.391 . S
C809 C808 1.386 . S
C809 C813 1.393 . S
C810 H802 0.950 . S
C810 C808 1.391 . S
C810 C811 1.400 . S
C811 C810 1.400 . S
C811 C812 1.398 . S
C811 C817 1.491 1_544 S
C812 H803 0.950 1_545 S
C812 C811 1.398 . S
C812 C813 1.391 . S
C813 H801 0.950 1_455 S
C813 C809 1.393 . S
C813 C812 1.391 . S
C814 H804 0.950 . S
C814 C815 1.386 . S
C814 C816 1.391 . S
C815 C814 1.386 . S
C815 C819 1.393 . S
C816 H805 0.950 . S
C816 C814 1.391 . S
C816 C817 1.400 . S
C817 C811 1.491 1_566 S
C817 C816 1.400 . S
C817 C818 1.398 . S
C818 H806 0.950 1_565 S
C818 C817 1.398 . S
C818 C819 1.391 . S
C819 H807 0.950 . S
C819 C815 1.393 . S
C819 C818 1.391 . S
H820 C828 0.950 . S
H821 C833 0.950 . S
H822 C830 0.950 . S
H823 C832 0.950 . S
H824 C834 0.950 . S
H825 C836 0.950 . S
H826 C838 0.950 . S
H827 C839 0.950 . S
C828 H820 0.950 . S
C828 C829 1.386 . S
C828 C830 1.391 . S
C829 C828 1.386 . S
C829 C833 1.393 . S
C830 H822 0.950 . S
C830 C828 1.391 . S
C830 C831 1.400 . S
C831 C830 1.400 . S
C831 C832 1.398 . S
C831 C837 1.491 . S
C832 H823 0.950 . S
C832 C831 1.398 . S
C832 C833 1.391 . S
C833 H821 0.950 . S
C833 C829 1.393 . S
C833 C832 1.391 . S
C834 H824 0.950 . S
C834 C835 1.386 . S
C834 C836 1.391 . S
C835 C834 1.386 . S
C835 C839 1.393 . S
C836 H825 0.950 . S
C836 C834 1.391 . S
C836 C837 1.400 . S
C837 C831 1.491 . S
C837 C836 1.400 . S
C837 C838 1.398 . S
C838 H826 0.950 . S
C838 C837 1.398 . S
C838 C839 1.391 . S
C839 H827 0.950 . S
C839 C835 1.393 . S
C839 C838 1.391 . S
H840 C848 0.950 . S
H841 C853 0.950 . S
H842 C850 0.950 . S
H843 C852 0.950 1_565 S
H844 C854 0.950 . S
H845 C856 0.950 . S
H846 C858 0.950 1_545 S
H847 C859 0.950 . S
C848 H840 0.950 . S
C848 C849 1.386 . S
C848 C850 1.391 . S
C849 C848 1.386 . S
C849 C853 1.393 . S
C850 H842 0.950 . S
C850 C848 1.391 . S
C850 C851 1.400 . S
C851 C850 1.400 . S
C851 C852 1.398 . S
C851 C857 1.491 1_545 S
C852 H843 0.950 1_545 S
C852 C851 1.398 . S
C852 C853 1.391 . S
C853 H841 0.950 . S
C853 C849 1.393 . S
C853 C852 1.391 . S
C854 H844 0.950 . S
C854 C855 1.386 . S
C854 C856 1.391 . S
C855 C854 1.386 . S
C855 C859 1.393 . S
C856 H845 0.950 . S
C856 C854 1.391 . S
C856 C857 1.400 . S
C857 C851 1.491 1_565 S
C857 C856 1.400 . S
C857 C858 1.398 . S
C858 H846 0.950 1_565 S
C858 C857 1.398 . S
C858 C859 1.391 . S
C859 H847 0.950 . S
C859 C855 1.393 . S
C859 C858 1.391 . S
H860 C868 0.950 . S
H861 C873 0.950 . S
H862 C870 0.950 . S
H863 C872 0.950 . S
H864 C874 0.950 . S
H865 C876 0.950 . S
H866 C878 0.950 . S
H867 C879 0.950 . S
C868 H860 0.950 . S
C868 C869 1.386 . S
C868 C870 1.391 . S
C869 C868 1.386 . S
C869 C873 1.393 . S
C870 H862 0.950 . S
C870 C868 1.391 . S
C870 C871 1.400 . S
C871 C870 1.400 . S
C871 C872 1.398 . S
C871 C877 1.491 . S
C872 H863 0.950 . S
C872 C871 1.398 . S
C872 C873 1.391 . S
C873 H861 0.950 . S
C873 C869 1.393 . S
C873 C872 1.391 . S
C874 H864 0.950 . S
C874 C875 1.386 . S
C874 C876 1.391 . S
C875 C874 1.386 . S
C875 C879 1.393 . S
C876 H865 0.950 . S
C876 C874 1.391 . S
C876 C877 1.400 . S
C877 C871 1.491 . S
C877 C876 1.400 . S
C877 C878 1.398 . S
C878 H866 0.950 . S
C878 C877 1.398 . S
C878 C879 1.391 . S
C879 H867 0.950 . S
C879 C875 1.393 . S
C879 C878 1.391 . S
H880 C888 0.950 . S
H881 C893 0.950 . S
H882 C890 0.950 . S
H883 C892 0.950 . S
H884 C894 0.950 . S
H885 C896 0.950 . S
H886 C898 0.950 . S
H887 C899 0.950 . S
C888 H880 0.950 . S
C888 C889 1.386 . S
C888 C890 1.391 . S
C889 C888 1.386 . S
C889 C893 1.393 . S
C890 H882 0.950 . S
C890 C888 1.391 . S
C890 C891 1.400 . S
C891 C890 1.400 . S
C891 C892 1.398 . S
C891 C897 1.491 . S
C892 H883 0.950 . S
C892 C891 1.398 . S
C892 C893 1.391 . S
C893 H881 0.950 . S
C893 C889 1.393 . S
C893 C892 1.391 . S
C894 H884 0.950 . S
C894 C895 1.386 . S
C894 C896 1.391 . S
C895 C894 1.386 . S
C895 C899 1.393 . S
C896 H885 0.950 . S
C896 C894 1.391 . S
C896 C897 1.400 . S
C897 C891 1.491 . S
C897 C896 1.400 . S
C897 C898 1.398 . S
C898 H886 0.950 . S
C898 C897 1.398 . S
C898 C899 1.391 . S
C899 H887 0.950 . S
C899 C895 1.393 . S
C899 C898 1.391 . S
H900 C908 0.950 . S
H901 C913 0.950 . S
H902 C910 0.950 . S
H903 C912 0.950 . S
H904 C914 0.950 . S
H905 C916 0.950 . S
H906 C918 0.950 . S
H907 C919 0.950 . S
C908 H900 0.950 . S
C908 C909 1.386 . S
C908 C910 1.391 . S
C909 C908 1.386 . S
C909 C913 1.393 . S
C910 H902 0.950 . S
C910 C908 1.391 . S
C910 C911 1.400 . S
C911 C910 1.400 . S
C911 C912 1.398 . S
C911 C917 1.491 . S
C912 H903 0.950 . S
C912 C911 1.398 . S
C912 C913 1.391 . S
C913 H901 0.950 . S
C913 C909 1.393 . S
C913 C912 1.391 . S
C914 H904 0.950 . S
C914 C915 1.386 . S
C914 C916 1.391 . S
C915 C914 1.386 . S
C915 C919 1.393 . S
C916 H905 0.950 . S
C916 C914 1.391 . S
C916 C917 1.400 . S
C917 C911 1.491 . S
C917 C916 1.400 . S
C917 C918 1.398 . S
C918 H906 0.950 . S
C918 C917 1.398 . S
C918 C919 1.391 . S
C919 H907 0.950 . S
C919 C915 1.393 . S
C919 C918 1.391 . S
H920 C928 0.950 . S
H921 C933 0.950 . S
H922 C930 0.950 . S
H923 C932 0.950 . S
H924 C934 0.950 . S
H925 C936 0.950 . S
H926 C938 0.950 . S
H927 C939 0.950 . S
C928 H920 0.950 . S
C928 C929 1.386 . S
C928 C930 1.391 . S
C929 C928 1.386 . S
C929 C933 1.393 . S
C930 H922 0.950 . S
C930 C928 1.391 . S
C930 C931 1.400 . S
C931 C930 1.400 . S
C931 C932 1.398 . S
C931 C937 1.491 . S
C932 H923 0.950 . S
C932 C931 1.398 . S
C932 C933 1.391 . S
C933 H921 0.950 . S
C933 C929 1.393 . S
C933 C932 1.391 . S
C934 H924 0.950 . S
C934 C935 1.386 . S
C934 C936 1.391 . S
C935 C934 1.386 . S
C935 C939 1.393 . S
C936 H925 0.950 . S
C936 C934 1.391 . S
C936 C937 1.400 . S
C937 C931 1.491 . S
C937 C936 1.400 . S
C937 C938 1.398 . S
C938 H926 0.950 . S
C938 C937 1.398 . S
C938 C939 1.391 . S
C939 H927 0.950 . S
C939 C935 1.393 . S
C939 C938 1.391 . S
H940 C948 0.950 . S
H941 C953 0.950 1_655 S
H942 C950 0.950 . S
H943 C952 0.950 . S
H944 C954 0.950 . S
H945 C956 0.950 . S
H946 C958 0.950 . S
H947 C959 0.950 . S
C948 H940 0.950 . S
C948 C949 1.386 . S
C948 C950 1.391 . S
C949 C948 1.386 . S
C949 C953 1.393 . S
C950 H942 0.950 . S
C950 C948 1.391 . S
C950 C951 1.400 . S
C951 C950 1.400 . S
C951 C952 1.398 . S
C951 C957 1.491 1_556 S
C952 H943 0.950 . S
C952 C951 1.398 . S
C952 C953 1.391 . S
C953 H941 0.950 1_455 S
C953 C949 1.393 . S
C953 C952 1.391 . S
C954 H944 0.950 . S
C954 C955 1.386 . S
C954 C956 1.391 . S
C955 C954 1.386 . S
C955 C959 1.393 . S
C956 H945 0.950 . S
C956 C954 1.391 . S
C956 C957 1.400 . S
C957 C951 1.491 1_554 S
C957 C956 1.400 . S
C957 C958 1.398 . S
C958 H946 0.950 . S
C958 C957 1.398 . S
C958 C959 1.391 . S
C959 H947 0.950 . S
C959 C955 1.393 . S
C959 C958 1.391 . S
H960 C968 0.950 . S
H961 C973 0.950 . S
H962 C970 0.950 . S
H963 C972 0.950 . S
H964 C974 0.950 . S
H965 C976 0.950 . S
H966 C978 0.950 . S
H967 C979 0.950 . S
C968 H960 0.950 . S
C968 C969 1.386 . S
C968 C970 1.391 . S
C969 C968 1.386 . S
C969 C973 1.393 . S
C970 H962 0.950 . S
C970 C968 1.391 . S
C970 C971 1.400 . S
C971 C970 1.400 . S
C971 C972 1.398 . S
C971 C977 1.491 . S
C972 H963 0.950 . S
C972 C971 1.398 . S
C972 C973 1.391 . S
C973 H961 0.950 . S
C973 C969 1.393 . S
C973 C972 1.391 . S
C974 H964 0.950 . S
C974 C975 1.386 . S
C974 C976 1.391 . S
C975 C974 1.386 . S
C975 C979 1.393 . S
C976 H965 0.950 . S
C976 C974 1.391 . S
C976 C977 1.400 . S
C977 C971 1.491 . S
C977 C976 1.400 . S
C977 C978 1.398 . S
C978 H966 0.950 . S
C978 C977 1.398 . S
C978 C979 1.391 . S
C979 H967 0.950 . S
C979 C975 1.393 . S
C979 C978 1.391 . S
H980 C988 0.950 . S
H981 C993 0.950 . S
H982 C990 0.950 . S
H983 C992 0.950 . S
H984 C994 0.950 . S
H985 C996 0.950 . S
H986 C998 0.950 . S
H987 C999 0.950 . S
C988 H980 0.950 . S
C988 C989 1.386 . S
C988 C990 1.391 . S
C989 C988 1.386 . S
C989 C993 1.393 . S
C990 H982 0.950 . S
C990 C988 1.391 . S
C990 C991 1.400 . S
C991 C990 1.400 . S
C991 C992 1.398 . S
C991 C997 1.491 . S
C992 H983 0.950 . S
C992 C991 1.398 . S
C992 C993 1.391 . S
C993 H981 0.950 . S
C993 C989 1.393 . S
C993 C992 1.391 . S
C994 H984 0.950 . S
C994 C995 1.386 . S
C994 C996 1.391 . S
C995 C994 1.386 . S
C995 C999 1.393 . S
C996 H985 0.950 . S
C996 C994 1.391 . S
C996 C997 1.400 . S
C997 C991 1.491 . S
C997 C996 1.400 . S
C997 C998 1.398 . S
C998 H986 0.950 . S
C998 C997 1.398 . S
C998 C999 1.391 . S
C999 H987 0.950 . S
C999 C995 1.393 . S
C999 C998 1.391 . S
H1000 C1008 0.950 . S
H1001 C1013 0.950 . S
H1002 C1010 0.950 . S
H1003 C1012 0.950 . S
H1004 C1014 0.950 . S
H1005 C1016 0.950 . S
H1006 C1018 0.950 . S
H1007 C1019 0.950 . S
C1008 H1000 0.950 . S
C1008 C1009 1.386 . S
C1008 C1010 1.391 . S
C1009 C1008 1.386 . S
C1009 C1013 1.393 . S
C1010 H1002 0.950 . S
C1010 C1008 1.391 . S
C1010 C1011 1.400 . S
C1011 C1010 1.400 . S
C1011 C1012 1.398 . S
C1011 C1017 1.491 . S
C1012 H1003 0.950 . S
C1012 C1011 1.398 . S
C1012 C1013 1.391 . S
C1013 H1001 0.950 . S
C1013 C1009 1.393 . S
C1013 C1012 1.391 . S
C1014 H1004 0.950 . S
C1014 C1015 1.386 . S
C1014 C1016 1.391 . S
C1015 C1014 1.386 . S
C1015 C1019 1.393 . S
C1016 H1005 0.950 . S
C1016 C1014 1.391 . S
C1016 C1017 1.400 . S
C1017 C1011 1.491 . S
C1017 C1016 1.400 . S
C1017 C1018 1.398 . S
C1018 H1006 0.950 . S
C1018 C1017 1.398 . S
C1018 C1019 1.391 . S
C1019 H1007 0.950 . S
C1019 C1015 1.393 . S
C1019 C1018 1.391 . S
H1020 C1028 0.950 . S
H1021 C1033 0.950 . S
H1022 C1030 0.950 . S
H1023 C1032 0.950 . S
H1024 C1034 0.950 . S
H1025 C1036 0.950 . S
H1026 C1038 0.950 . S
H1027 C1039 0.950 . S
C1028 H1020 0.950 . S
C1028 C1029 1.386 . S
C1028 C1030 1.391 . S
C1029 C1028 1.386 . S
C1029 C1033 1.393 . S
C1030 H1022 0.950 . S
C1030 C1028 1.391 . S
C1030 C1031 1.400 . S
C1031 C1030 1.400 . S
C1031 C1032 1.398 . S
C1031 C1037 1.491 . S
C1032 H1023 0.950 . S
C1032 C1031 1.398 . S
C1032 C1033 1.391 . S
C1033 H1021 0.950 . S
C1033 C1029 1.393 . S
C1033 C1032 1.391 . S
C1034 H1024 0.950 . S
C1034 C1035 1.386 . S
C1034 C1036 1.391 . S
C1035 C1034 1.386 . S
C1035 C1039 1.393 . S
C1036 H1025 0.950 . S
C1036 C1034 1.391 . S
C1036 C1037 1.400 . S
C1037 C1031 1.491 . S
C1037 C1036 1.400 . S
C1037 C1038 1.398 . S
C1038 H1026 0.950 . S
C1038 C1037 1.398 . S
C1038 C1039 1.391 . S
C1039 H1027 0.950 . S
C1039 C1035 1.393 . S
C1039 C1038 1.391 . S
H1040 C1048 0.950 . S
H1041 C1053 0.950 . S
H1042 C1050 0.950 1_455 S
H1043 C1052 0.950 . S
H1044 C1054 0.950 1_655 S
H1045 C1056 0.950 . S
H1046 C1058 0.950 . S
H1047 C1059 0.950 . S
C1048 H1040 0.950 . S
C1048 C1049 1.386 . S
C1048 C1050 1.391 . S
C1049 C1048 1.386 . S
C1049 C1053 1.393 . S
C1050 H1042 0.950 1_655 S
C1050 C1048 1.391 . S
C1050 C1051 1.400 . S
C1051 C1050 1.400 . S
C1051 C1052 1.398 . S
C1051 C1057 1.491 . S
C1052 H1043 0.950 . S
C1052 C1051 1.398 . S
C1052 C1053 1.391 . S
C1053 H1041 0.950 . S
C1053 C1049 1.393 . S
C1053 C1052 1.391 . S
C1054 H1044 0.950 1_455 S
C1054 C1055 1.386 . S
C1054 C1056 1.391 1_455 S
C1055 C1054 1.386 . S
C1055 C1059 1.393 . S
C1056 H1045 0.950 . S
C1056 C1054 1.391 1_655 S
C1056 C1057 1.400 . S
C1057 C1051 1.491 . S
C1057 C1056 1.400 . S
C1057 C1058 1.398 1_655 S
C1058 H1046 0.950 . S
C1058 C1057 1.398 1_455 S
C1058 C1059 1.391 . S
C1059 H1047 0.950 . S
C1059 C1055 1.393 . S
C1059 C1058 1.391 . S
H1060 C1068 0.950 . S
H1061 C1073 0.950 . S
H1062 C1070 0.950 . S
H1063 C1072 0.950 . S
H1064 C1074 0.950 . S
H1065 C1076 0.950 . S
H1066 C1078 0.950 . S
H1067 C1079 0.950 . S
C1068 H1060 0.950 . S
C1068 C1069 1.386 . S
C1068 C1070 1.391 . S
C1069 C1068 1.386 . S
C1069 C1073 1.393 . S
C1070 H1062 0.950 . S
C1070 C1068 1.391 . S
C1070 C1071 1.400 . S
C1071 C1070 1.400 . S
C1071 C1072 1.398 . S
C1071 C1077 1.491 . S
C1072 H1063 0.950 . S
C1072 C1071 1.398 . S
C1072 C1073 1.391 . S
C1073 H1061 0.950 . S
C1073 C1069 1.393 . S
C1073 C1072 1.391 . S
C1074 H1064 0.950 . S
C1074 C1075 1.386 . S
C1074 C1076 1.391 . S
C1075 C1074 1.386 . S
C1075 C1079 1.393 . S
C1076 H1065 0.950 . S
C1076 C1074 1.391 . S
C1076 C1077 1.400 . S
C1077 C1071 1.491 . S
C1077 C1076 1.400 . S
C1077 C1078 1.398 . S
C1078 H1066 0.950 . S
C1078 C1077 1.398 . S
C1078 C1079 1.391 . S
C1079 H1067 0.950 . S
C1079 C1075 1.393 . S
C1079 C1078 1.391 . S
H1080 C1088 0.950 . S
H1081 C1093 0.950 . S
H1082 C1090 0.950 . S
H1083 C1092 0.950 . S
H1084 C1094 0.950 . S
H1085 C1096 0.950 . S
H1086 C1098 0.950 . S
H1087 C1099 0.950 . S
C1088 H1080 0.950 . S
C1088 C1089 1.386 . S
C1088 C1090 1.391 . S
C1089 C1088 1.386 . S
C1089 C1093 1.393 . S
C1090 H1082 0.950 . S
C1090 C1088 1.391 . S
C1090 C1091 1.400 . S
C1091 C1090 1.400 . S
C1091 C1092 1.398 . S
C1091 C1097 1.491 . S
C1092 H1083 0.950 . S
C1092 C1091 1.398 . S
C1092 C1093 1.391 . S
C1093 H1081 0.950 . S
C1093 C1089 1.393 . S
C1093 C1092 1.391 . S
C1094 H1084 0.950 . S
C1094 C1095 1.386 . S
C1094 C1096 1.391 . S
C1095 C1094 1.386 . S
C1095 C1099 1.393 . S
C1096 H1085 0.950 . S
C1096 C1094 1.391 . S
C1096 C1097 1.400 . S
C1097 C1091 1.491 . S
C1097 C1096 1.400 . S
C1097 C1098 1.398 . S
C1098 H1086 0.950 . S
C1098 C1097 1.398 . S
C1098 C1099 1.391 . S
C1099 H1087 0.950 . S
C1099 C1095 1.393 . S
C1099 C1098 1.391 . S
H1100 C1108 0.950 . S
H1101 C1113 0.950 . S
H1102 C1110 0.950 . S
H1103 C1112 0.950 . S
H1104 C1114 0.950 . S
H1105 C1116 0.950 . S
H1106 C1118 0.950 . S
H1107 C1119 0.950 1_554 S
C1108 H1100 0.950 . S
C1108 C1109 1.386 . S
C1108 C1110 1.391 . S
C1109 C1108 1.386 . S
C1109 C1113 1.393 . S
C1110 H1102 0.950 . S
C1110 C1108 1.391 . S
C1110 C1111 1.400 . S
C1111 C1110 1.400 . S
C1111 C1112 1.398 . S
C1111 C1117 1.491 . S
C1112 H1103 0.950 . S
C1112 C1111 1.398 . S
C1112 C1113 1.391 . S
C1113 H1101 0.950 . S
C1113 C1109 1.393 . S
C1113 C1112 1.391 . S
C1114 H1104 0.950 . S
C1114 C1115 1.386 . S
C1114 C1116 1.391 . S
C1115 C1114 1.386 . S
C1115 C1119 1.393 . S
C1116 H1105 0.950 . S
C1116 C1114 1.391 . S
C1116 C1117 1.400 . S
C1117 C1111 1.491 . S
C1117 C1116 1.400 . S
C1117 C1118 1.398 . S
C1118 H1106 0.950 . S
C1118 C1117 1.398 . S
C1118 C1119 1.391 . S
C1119 H1107 0.950 1_556 S
C1119 C1115 1.393 . S
C1119 C1118 1.391 . S
H1120 C1128 0.950 . S
H1121 C1133 0.950 . S
H1122 C1130 0.950 . S
H1123 C1132 0.950 . S
H1124 C1134 0.950 . S
H1125 C1136 0.950 . S
H1126 C1138 0.950 . S
H1127 C1139 0.950 . S
C1128 H1120 0.950 . S
C1128 C1129 1.386 . S
C1128 C1130 1.391 . S
C1129 C1128 1.386 . S
C1129 C1133 1.393 . S
C1130 H1122 0.950 . S
C1130 C1128 1.391 . S
C1130 C1131 1.400 . S
C1131 C1130 1.400 . S
C1131 C1132 1.398 . S
C1131 C1137 1.491 . S
C1132 H1123 0.950 . S
C1132 C1131 1.398 . S
C1132 C1133 1.391 . S
C1133 H1121 0.950 . S
C1133 C1129 1.393 . S
C1133 C1132 1.391 . S
C1134 H1124 0.950 . S
C1134 C1135 1.386 . S
C1134 C1136 1.391 . S
C1135 C1134 1.386 . S
C1135 C1139 1.393 . S
C1136 H1125 0.950 . S
C1136 C1134 1.391 . S
C1136 C1137 1.400 . S
C1137 C1131 1.491 . S
C1137 C1136 1.400 . S
C1137 C1138 1.398 . S
C1138 H1126 0.950 . S
C1138 C1137 1.398 . S
C1138 C1139 1.391 . S
C1139 H1127 0.950 . S
C1139 C1135 1.393 . S
C1139 C1138 1.391 . S
H1140 C1148 0.950 . S
H1141 C1153 0.950 . S
H1142 C1150 0.950 . S
H1143 C1152 0.950 . S
H1144 C1154 0.950 1_556 S
H1145 C1156 0.950 . S
H1146 C1158 0.950 . S
H1147 C1159 0.950 . S
C1148 H1140 0.950 . S
C1148 C1149 1.386 . S
C1148 C1150 1.391 . S
C1149 C1148 1.386 . S
C1149 C1153 1.393 . S
C1150 H1142 0.950 . S
C1150 C1148 1.391 . S
C1150 C1151 1.400 . S
C1151 C1150 1.400 . S
C1151 C1152 1.398 . S
C1151 C1157 1.491 . S
C1152 H1143 0.950 . S
C1152 C1151 1.398 . S
C1152 C1153 1.391 . S
C1153 H1141 0.950 . S
C1153 C1149 1.393 . S
C1153 C1152 1.391 . S
C1154 H1144 0.950 1_554 S
C1154 C1155 1.386 . S
C1154 C1156 1.391 . S
C1155 C1154 1.386 . S
C1155 C1159 1.393 . S
C1156 H1145 0.950 . S
C1156 C1154 1.391 . S
C1156 C1157 1.400 . S
C1157 C1151 1.491 . S
C1157 C1156 1.400 . S
C1157 C1158 1.398 . S
C1158 H1146 0.950 . S
C1158 C1157 1.398 . S
C1158 C1159 1.391 . S
C1159 H1147 0.950 . S
C1159 C1155 1.393 . S
C1159 C1158 1.391 . S
H1160 C1168 0.950 . S
H1161 C1173 0.950 . S
H1162 C1170 0.950 . S
H1163 C1172 0.950 . S
H1164 C1174 0.950 . S
H1165 C1176 0.950 1_455 S
H1166 C1178 0.950 . S
H1167 C1179 0.950 . S
C1168 H1160 0.950 . S
C1168 C1169 1.386 1_655 S
C1168 C1170 1.391 . S
C1169 C1168 1.386 1_455 S
C1169 C1173 1.393 . S
C1170 H1162 0.950 . S
C1170 C1168 1.391 . S
C1170 C1171 1.400 . S
C1171 C1170 1.400 . S
C1171 C1172 1.398 1_655 S
C1171 C1177 1.491 . S
C1172 H1163 0.950 . S
C1172 C1171 1.398 1_455 S
C1172 C1173 1.391 . S
C1173 H1161 0.950 . S
C1173 C1169 1.393 . S
C1173 C1172 1.391 . S
C1174 H1164 0.950 . S
C1174 C1175 1.386 . S
C1174 C1176 1.391 . S
C1175 C1174 1.386 . S
C1175 C1179 1.393 . S
C1176 H1165 0.950 1_655 S
C1176 C1174 1.391 . S
C1176 C1177 1.400 . S
C1177 C1171 1.491 . S
C1177 C1176 1.400 . S
C1177 C1178 1.398 . S
C1178 H1166 0.950 . S
C1178 C1177 1.398 . S
C1178 C1179 1.391 . S
C1179 H1167 0.950 . S
C1179 C1175 1.393 . S
C1179 C1178 1.391 . S
H1180 C1188 0.950 . S
H1181 C1193 0.950 . S
H1182 C1190 0.950 . S
H1183 C1192 0.950 . S
H1184 C1194 0.950 . S
H1185 C1196 0.950 . S
H1186 C1198 0.950 . S
H1187 C1199 0.950 . S
C1188 H1180 0.950 . S
C1188 C1189 1.386 . S
C1188 C1190 1.391 . S
C1189 C1188 1.386 . S
C1189 C1193 1.393 . S
C1190 H1182 0.950 . S
C1190 C1188 1.391 . S
C1190 C1191 1.400 . S
C1191 C1190 1.400 . S
C1191 C1192 1.398 . S
C1191 C1197 1.491 . S
C1192 H1183 0.950 . S
C1192 C1191 1.398 . S
C1192 C1193 1.391 . S
C1193 H1181 0.950 . S
C1193 C1189 1.393 . S
C1193 C1192 1.391 . S
C1194 H1184 0.950 . S
C1194 C1195 1.386 . S
C1194 C1196 1.391 . S
C1195 C1194 1.386 . S
C1195 C1199 1.393 . S
C1196 H1185 0.950 . S
C1196 C1194 1.391 . S
C1196 C1197 1.400 . S
C1197 C1191 1.491 . S
C1197 C1196 1.400 . S
C1197 C1198 1.398 . S
C1198 H1186 0.950 . S
C1198 C1197 1.398 . S
C1198 C1199 1.391 . S
C1199 H1187 0.950 . S
C1199 C1195 1.393 . S
C1199 C1198 1.391 . S
H1200 C1208 0.950 . S
H1201 C1213 0.950 . S
H1202 C1210 0.950 . S
H1203 C1212 0.950 . S
H1204 C1214 0.950 . S
H1205 C1216 0.950 . S
H1206 C1218 0.950 . S
H1207 C1219 0.950 . S
C1208 H1200 0.950 . S
C1208 C1209 1.386 . S
C1208 C1210 1.391 . S
C1209 C1208 1.386 . S
C1209 C1213 1.393 . S
C1210 H1202 0.950 . S
C1210 C1208 1.391 . S
C1210 C1211 1.400 . S
C1211 C1210 1.400 . S
C1211 C1212 1.398 . S
C1211 C1217 1.491 . S
C1212 H1203 0.950 . S
C1212 C1211 1.398 . S
C1212 C1213 1.391 . S
C1213 H1201 0.950 . S
C1213 C1209 1.393 . S
C1213 C1212 1.391 . S
C1214 H1204 0.950 . S
C1214 C1215 1.386 . S
C1214 C1216 1.391 . S
C1215 C1214 1.386 . S
C1215 C1219 1.393 . S
C1216 H1205 0.950 . S
C1216 C1214 1.391 . S
C1216 C1217 1.400 . S
C1217 C1211 1.491 . S
C1217 C1216 1.400 . S
C1217 C1218 1.398 . S
C1218 H1206 0.950 . S
C1218 C1217 1.398 . S
C1218 C1219 1.391 . S
C1219 H1207 0.950 . S
C1219 C1215 1.393 . S
C1219 C1218 1.391 . S
H1220 C1228 0.950 . S
H1221 C1233 0.950 . S
H1222 C1230 0.950 . S
H1223 C1232 0.950 . S
H1224 C1234 0.950 . S
H1225 C1236 0.950 . S
H1226 C1238 0.950 . S
H1227 C1239 0.950 . S
C1228 H1220 0.950 . S
C1228 C1229 1.386 . S
C1228 C1230 1.391 . S
C1229 C1228 1.386 . S
C1229 C1233 1.393 . S
C1230 H1222 0.950 . S
C1230 C1228 1.391 . S
C1230 C1231 1.400 . S
C1231 C1230 1.400 . S
C1231 C1232 1.398 . S
C1231 C1237 1.491 . S
C1232 H1223 0.950 . S
C1232 C1231 1.398 . S
C1232 C1233 1.391 . S
C1233 H1221 0.950 . S
C1233 C1229 1.393 . S
C1233 C1232 1.391 . S
C1234 H1224 0.950 . S
C1234 C1235 1.386 . S
C1234 C1236 1.391 . S
C1235 C1234 1.386 . S
C1235 C1239 1.393 . S
C1236 H1225 0.950 . S
C1236 C1234 1.391 . S
C1236 C1237 1.400 . S
C1237 C1231 1.491 . S
C1237 C1236 1.400 . S
C1237 C1238 1.398 . S
C1238 H1226 0.950 . S
C1238 C1237 1.398 . S
C1238 C1239 1.391 . S
C1239 H1227 0.950 . S
C1239 C1235 1.393 . S
C1239 C1238 1.391 . S
H1240 C1248 0.950 . S
H1241 C1253 0.950 . S
H1242 C1250 0.950 . S
H1243 C1252 0.950 . S
H1244 C1254 0.950 . S
H1245 C1256 0.950 . S
H1246 C1258 0.950 . S
H1247 C1259 0.950 . S
C1248 H1240 0.950 . S
C1248 C1249 1.386 . S
C1248 C1250 1.391 . S
C1249 C1248 1.386 . S
C1249 C1253 1.393 . S
C1250 H1242 0.950 . S
C1250 C1248 1.391 . S
C1250 C1251 1.400 . S
C1251 C1250 1.400 . S
C1251 C1252 1.398 . S
C1251 C1257 1.491 . S
C1252 H1243 0.950 . S
C1252 C1251 1.398 . S
C1252 C1253 1.391 . S
C1253 H1241 0.950 . S
C1253 C1249 1.393 . S
C1253 C1252 1.391 . S
C1254 H1244 0.950 . S
C1254 C1255 1.386 . S
C1254 C1256 1.391 . S
C1255 C1254 1.386 . S
C1255 C1259 1.393 . S
C1256 H1245 0.950 . S
C1256 C1254 1.391 . S
C1256 C1257 1.400 . S
C1257 C1251 1.491 . S
C1257 C1256 1.400 . S
C1257 C1258 1.398 . S
C1258 H1246 0.950 . S
C1258 C1257 1.398 . S
C1258 C1259 1.391 . S
C1259 H1247 0.950 . S
C1259 C1255 1.393 . S
C1259 C1258 1.391 . S
H1260 C1268 0.950 . S
H1261 C1273 0.950 . S
H1262 C1270 0.950 . S
H1263 C1272 0.950 . S
H1264 C1274 0.950 . S
H1265 C1276 0.950 . S
H1266 C1278 0.950 . S
H1267 C1279 0.950 . S
C1268 H1260 0.950 . S
C1268 C1269 1.386 . S
C1268 C1270 1.391 . S
C1269 C1268 1.386 . S
C1269 C1273 1.393 . S
C1270 H1262 0.950 . S
C1270 C1268 1.391 . S
C1270 C1271 1.400 . S
C1271 C1270 1.400 . S
C1271 C1272 1.398 . S
C1271 C1277 1.491 . S
C1272 H1263 0.950 . S
C1272 C1271 1.398 . S
C1272 C1273 1.391 . S
C1273 H1261 0.950 . S
C1273 C1269 1.393 . S
C1273 C1272 1.391 . S
C1274 H1264 0.950 . S
C1274 C1275 1.386 . S
C1274 C1276 1.391 . S
C1275 C1274 1.386 . S
C1275 C1279 1.393 . S
C1276 H1265 0.950 . S
C1276 C1274 1.391 . S
C1276 C1277 1.400 . S
C1277 C1271 1.491 . S
C1277 C1276 1.400 . S
C1277 C1278 1.398 . S
C1278 H1266 0.950 . S
C1278 C1277 1.398 . S
C1278 C1279 1.391 . S
C1279 H1267 0.950 . S
C1279 C1275 1.393 . S
C1279 C1278 1.391 . S
C329 C12 1.009 . S
C335 C142 0.942 . S
C349 C32 1.012 . S
C355 C82 0.901 . S
C369 C102 0.906 . S
C375 C52 1.014 . S
C389 C72 0.980 . S
C395 C122 0.962 . S
C409 C224 0.899 . S
C415 C89 1.007 . S
C429 C169 1.003 . S
C435 C4 0.952 . S
C449 C204 0.940 . S
C455 C129 1.010 . S
C469 C44 0.959 . S
C475 C189 0.979 . S
C489 C182 0.914 . S
C495 C252 1.015 . S
C509 C212 0.980 . S
C515 C282 0.932 . S
C529 C272 1.014 . S
C535 C162 0.904 . S
C549 C232 1.015 . S
C555 C302 0.910 . S
C569 C289 0.985 . S
C575 C64 0.920 . S
C589 C244 0.930 . S
C595 C109 1.013 . S
C609 C24 0.927 . S
C615 C309 1.014 . S
C629 C149 0.981 . S
C635 C264 0.929 . S
C649 C278 0.457 . S
C655 C18 0.518 . S
C669 C238 0.515 . S
C675 C38 0.457 . S
C689 C258 0.476 . S
C695 C58 0.523 . S
C709 C218 0.491 . S
C715 C78 0.469 . S
C729 C99 0.525 . S
C735 C319 0.469 . S
C749 C199 0.469 . S
C755 C119 0.491 . S
C769 C139 0.487 . S
C775 C299 0.473 . S
C789 C159 0.458 . S
C795 C179 0.521 . S
C809 C19 1.523 . S
C815 C98 1.523 . S
C829 C39 1.521 . S
C835 C118 1.521 . S
C849 C138 1.532 . S
C855 C59 1.532 . S
C869 C79 1.527 . S
C875 C158 1.527 . S
C889 C219 1.501 . S
C895 C178 1.501 . S
C909 C239 1.531 . S
C915 C198 1.531 . S
C929 C259 1.518 . S
C935 C298 1.518 . S
C949 C318 1.510 . S
C955 C279 1.510 . S
C969 C2 1.579 . S
C975 C152 1.499 . S
C989 C22 1.568 . S
C995 C92 1.502 . S
C1009 C112 1.513 1_556 S
C1015 C42 1.580 . S
C1029 C132 1.507 . S
C1035 C62 1.582 1_554 S
C1049 C229 1.524 . S
C1055 C84 1.573 . S
C1069 C164 1.576 . S
C1075 C9 1.498 . S
C1089 C209 1.499 1_554 S
C1095 C124 1.579 . S
C1109 C49 1.501 . S
C1115 C184 1.581 1_556 S
C1129 C242 1.575 . S
C1135 C192 1.499 1_556 S
C1149 C292 1.499 . S
C1155 C202 1.575 1_554 S
C1169 C262 1.569 . S
C1175 C172 1.528 . S
C1189 C312 1.502 . S
C1195 C222 1.581 . S
C1209 C284 1.557 . S
C1215 C69 1.536 1_554 S
C1229 C104 1.550 1_556 S
C1235 C249 1.529 . S
C1249 C29 1.530 . S
C1255 C304 1.567 . S
C1269 C269 1.536 . S
C1275 C144 1.557 . S
