# Generated by pormake.
# Topology afw, (4)-cn, num edge types: 1
# Building blocks:
#     Node 0, Type 0, BuildingBlock: TATPOV_clean_sbu_0, # of connection points: 4
#     Node 1, Type 0, BuildingBlock: TATPOV_clean_sbu_0, # of connection points: 4
#     Node 2, Type 0, BuildingBlock: TATPOV_clean_sbu_0, # of connection points: 4
#     Node 3, Type 0, BuildingBlock: TATPOV_clean_sbu_0, # of connection points: 4
#     Node 4, Type 0, BuildingBlock: TATPOV_clean_sbu_0, # of connection points: 4
#     Node 5, Type 0, BuildingBlock: TATPOV_clean_sbu_0, # of connection points: 4
#     Node 6, Type 0, BuildingBlock: TATPOV_clean_sbu_0, # of connection points: 4
#     Node 7, Type 0, BuildingBlock: TATPOV_clean_sbu_0, # of connection points: 4
#     Node 8, Type 0, BuildingBlock: TATPOV_clean_sbu_0, # of connection points: 4
#     Edge 9, Type (0, 0), BuildingBlock: CIFDUS_clean_linker_0, # of connection points: 2
#     Edge 10, Type (0, 0), BuildingBlock: CIFDUS_clean_linker_0, # of connection points: 2
#     Edge 11, Type (0, 0), BuildingBlock: CIFDUS_clean_linker_0, # of connection points: 2
#     Edge 12, Type (0, 0), BuildingBlock: CIFDUS_clean_linker_0, # of connection points: 2
#     Edge 13, Type (0, 0), BuildingBlock: CIFDUS_clean_linker_0, # of connection points: 2
#     Edge 14, Type (0, 0), BuildingBlock: CIFDUS_clean_linker_0, # of connection points: 2
#     Edge 15, Type (0, 0), BuildingBlock: CIFDUS_clean_linker_0, # of connection points: 2
#     Edge 16, Type (0, 0), BuildingBlock: CIFDUS_clean_linker_0, # of connection points: 2
#     Edge 17, Type (0, 0), BuildingBlock: CIFDUS_clean_linker_0, # of connection points: 2
#     Edge 18, Type (0, 0), BuildingBlock: CIFDUS_clean_linker_0, # of connection points: 2
#     Edge 19, Type (0, 0), BuildingBlock: CIFDUS_clean_linker_0, # of connection points: 2
#     Edge 20, Type (0, 0), BuildingBlock: CIFDUS_clean_linker_0, # of connection points: 2
#     Edge 21, Type (0, 0), BuildingBlock: CIFDUS_clean_linker_0, # of connection points: 2
#     Edge 22, Type (0, 0), BuildingBlock: CIFDUS_clean_linker_0, # of connection points: 2
#     Edge 23, Type (0, 0), BuildingBlock: CIFDUS_clean_linker_0, # of connection points: 2
#     Edge 24, Type (0, 0), BuildingBlock: CIFDUS_clean_linker_0, # of connection points: 2
#     Edge 25, Type (0, 0), BuildingBlock: CIFDUS_clean_linker_0, # of connection points: 2
#     Edge 26, Type (0, 0), BuildingBlock: CIFDUS_clean_linker_0, # of connection points: 2
# Relax obj value: 0.189
# Max RMSD: 0.223
# Mean RMSD: 0.216
data_MOF--net-afw--node1-TATPOV_clean_sbu_0--edge1-CIFDUS_clean_linker_0
_symmetry_space_group_name_H-M    P1
_symmetry_Int_Tables_number       1
_symmetry_cell_setting            triclinic
loop_
_symmetry_equiv_pos_as_xyz
'x, y, z'
_cell_length_a     36.158672
_cell_length_b     35.38167
_cell_length_c     31.861018
_cell_angle_alpha  90.833943
_cell_angle_beta   89.473261
_cell_angle_gamma 120.55403
loop_
_atom_site_label
_atom_site_type_symbol
_atom_site_fract_x
_atom_site_fract_y
_atom_site_fract_z
_atom_type_partial_charge
Zn0 Zn 0.02999 0.21116 0.05913 0.0
Zn1 Zn 0.04489 0.25119 0.98841 0.0
O2 O 0.09625 0.23975 -0.00729 0.0
O3 O 0.083 0.20813 0.05444 0.0
O4 O 0.05588 0.28486 0.93354 0.0
O5 O 0.03203 0.25832 0.09389 0.0
O6 O 0.04084 0.29286 0.03442 0.0
C7 C 0.10623 0.22229 0.02199 0.0
C8 C 0.96425 0.15975 0.00065 0.0
O9 O -0.01158 0.19209 0.97708 0.0
O10 O 0.974 0.16058 0.03882 0.0
C11 C 0.09065 0.32133 0.92889 0.0
O12 O 0.1185 0.33633 0.95984 0.0
C13 C 0.03679 0.29132 0.07446 0.0
Zn14 Zn 0.84302 0.84744 0.90776 0.0
Zn15 Zn 0.79015 0.81165 0.97433 0.0
O16 O 0.84357 0.80845 0.98919 0.0
O17 O 0.88623 0.83551 0.9344 0.0
O18 O 0.75043 0.78121 0.0241 0.0
O19 O 0.79954 0.80387 0.86817 0.0
O20 O 0.75593 0.77484 0.92216 0.0
C21 C 0.87884 0.81897 0.97065 0.0
C22 C 0.82622 0.90868 0.95296 0.0
O23 O 0.80382 0.87596 0.97674 0.0
O24 O 0.84492 0.90438 0.92098 0.0
C25 C 0.76413 0.79243 0.06156 0.0
O26 O 0.80342 0.82537 0.06743 0.0
C27 C 0.7636 0.77528 0.88287 0.0
Zn28 Zn 0.14943 0.99225 0.12938 0.0
Zn29 Zn 0.20134 -0.00474 0.06798 0.0
O30 O 0.14213 0.94344 0.05126 0.0
O31 O 0.09927 0.93995 0.10241 0.0
O32 O 0.2402 0.9923 0.02349 0.0
O33 O 0.1821 0.98378 0.17432 0.0
O34 O 0.2274 0.99011 0.12445 0.0
C35 C 0.10493 0.92537 0.06794 0.0
C36 C 0.18951 0.0734 0.08163 0.0
O37 O 0.20524 0.05487 0.05917 0.0
O38 O 0.16616 0.05402 0.11313 0.0
C39 C 0.23566 -0.00439 0.98435 0.0
O40 O 0.20542 0.003 0.97178 0.0
C41 C 0.21646 0.98533 0.16319 0.0
Zn42 Zn 0.61388 0.52097 0.22912 0.0
Zn43 Zn 0.62579 0.55644 0.3 0.0
O44 O 0.57509 0.49092 0.30612 0.0
O45 O 0.56423 0.46241 0.24264 0.0
O46 O 0.62054 0.58311 0.35515 0.0
O47 O 0.60512 0.56221 0.19544 0.0
O48 O 0.63058 0.60129 0.2533 0.0
C49 C 0.55466 0.45821 0.28116 0.0
C50 C 0.69726 0.54692 0.26835 0.0
O51 O 0.6827 0.55682 0.30061 0.0
O52 O 0.67485 0.53278 0.23521 0.0
C53 C 0.62524 0.56895 0.39002 0.0
O54 O 0.63669 0.53914 0.38972 0.0
C55 C 0.62034 0.59859 0.2145 0.0
Zn56 Zn 0.49568 0.15989 0.29127 0.0
Zn57 Zn 0.47841 0.13546 0.36622 0.0
O58 O 0.5411 0.14736 0.35811 0.0
O59 O 0.55444 0.17081 0.29308 0.0
O60 O 0.4637 0.11022 0.42567 0.0
O61 O 0.45355 0.10572 0.26341 0.0
O62 O 0.4297 0.08598 0.32778 0.0
C63 C 0.56641 0.16163 0.32656 0.0
C64 C 0.48021 0.21907 0.33845 0.0
O65 O 0.47905 0.19516 0.36875 0.0
O66 O 0.48416 0.20893 0.30112 0.0
C67 C 0.42837 0.07642 0.43633 0.0
O68 O 0.39765 0.05682 0.40839 0.0
C69 C 0.42603 0.07817 0.28821 0.0
Zn70 Zn 0.84201 0.38721 0.2074 0.0
Zn71 Zn 0.8808 0.39078 0.27776 0.0
O72 O 0.86678 0.44042 0.28679 0.0
O73 O 0.83546 0.43747 0.2269 0.0
O74 O 0.91162 0.39181 0.33057 0.0
O75 O 0.89109 0.39843 0.17089 0.0
O76 O 0.92244 0.39587 0.22876 0.0
C77 C 0.84835 0.45446 0.26292 0.0
C78 C 0.79643 0.30847 0.25589 0.0
O79 O 0.82637 0.33059 0.28206 0.0
O80 O 0.79638 0.32462 0.22068 0.0
C81 C 0.89645 0.39247 0.36662 0.0
O82 O 0.8613 0.39464 0.36934 0.0
C83 C 0.92247 0.39915 0.18878 0.0
Zn84 Zn 0.32787 0.83312 0.78327 0.0
Zn85 Zn 0.33043 0.86995 0.71262 0.0
O86 O 0.38633 0.86615 0.7122 0.0
O87 O 0.38575 0.84055 0.77487 0.0
O88 O 0.33522 0.90206 0.6582 0.0
O89 O 0.32171 0.87573 0.81867 0.0
O90 O 0.32051 0.9068 0.75975 0.0
C91 C 0.40364 0.85406 0.73961 0.0
C92 C 0.26128 0.77394 0.7271 0.0
O93 O 0.27854 0.80729 0.70317 0.0
O94 O 0.27579 0.77686 0.76378 0.0
C95 C 0.36865 0.93847 0.64916 0.0
O96 O 0.40056 0.95622 0.67607 0.0
C97 C 0.31837 0.90502 0.79989 0.0
Zn98 Zn 0.15367 0.48758 0.5441 0.0
Zn99 Zn 0.11568 0.44994 0.61585 0.0
O100 O 0.1701 0.44464 0.60959 0.0
O101 O 0.20119 0.47518 0.54995 0.0
O102 O 0.09112 0.4177 0.67123 0.0
O103 O 0.10207 0.44614 0.51173 0.0
O104 O 0.0668 0.41864 0.5709 0.0
C105 C 0.20058 0.45579 0.58316 0.0
C106 C 0.1498 0.54791 0.60392 0.0
O107 O 0.13221 0.51434 0.62756 0.0
O108 O 0.16069 0.54449 0.56678 0.0
C109 C 0.11631 0.4298 0.70271 0.0
O110 O 0.15543 0.46351 0.69848 0.0
C111 C 0.06774 0.42031 0.53081 0.0
Zn112 Zn 0.46971 0.6218 0.74685 0.0
Zn113 Zn 0.50698 0.62713 0.67448 0.0
O114 O 0.44758 0.56968 0.67108 0.0
O115 O 0.41641 0.56617 0.73165 0.0
O116 O 0.53601 0.62477 0.62014 0.0
O117 O 0.51393 0.61937 0.7806 0.0
O118 O 0.5501 0.63374 0.72132 0.0
C119 C 0.41534 0.55013 0.69567 0.0
C120 C 0.48909 0.69929 0.69905 0.0
O121 O 0.5008 0.68199 0.67042 0.0
O122 O 0.47629 0.68086 0.7343 0.0
C123 C 0.52712 0.63475 0.58492 0.0
O124 O 0.49931 0.6482 0.58379 0.0
C125 C 0.548 0.62858 0.7611 0.0
H126 H 0.17916 0.09983 0.00498 0.0
H127 H 0.21048 0.14171 0.134 0.0
H128 H 0.19876 0.20275 0.12218 0.0
H129 H 0.16277 0.23183 0.08071 0.0
H130 H 0.12366 0.18588 0.95398 0.0
H131 H 0.15646 0.14009 0.95845 0.0
C132 C 0.18499 0.12343 0.02989 0.0
C133 C 0.19523 0.11628 0.07039 0.0
C134 C 0.17618 0.15739 0.0233 0.0
C135 C 0.20229 0.14658 0.1027 0.0
C136 C 0.19541 0.18134 0.09599 0.0
C137 C 0.16316 0.21322 0.05348 0.0
C138 C 0.14055 0.21169 0.01731 0.0
C139 C 0.17989 0.18538 0.05721 0.0
C140 C 0.14113 0.18767 0.9821 0.0
C141 C 0.15924 0.1609 0.98496 0.0
H142 H 0.86076 0.98141 0.90445 0.0
H143 H 0.81527 0.9368 0.03005 0.0
H144 H 0.84859 0.01279 0.0548 0.0
H145 H 0.90108 0.09063 0.04305 0.0
H146 H 0.94873 0.13497 0.91791 0.0
H147 H 0.90339 0.06043 0.89059 0.0
C148 C 0.85732 0.98828 0.93708 0.0
C149 C 0.83633 0.95344 0.96554 0.0
C150 C 0.87736 0.03203 0.95127 0.0
C151 C 0.83149 0.96292 0.00752 0.0
C152 C 0.85082 0.00642 0.02177 0.0
C153 C 0.90086 0.08422 0.00963 0.0
C154 C 0.92899 0.11819 0.9827 0.0
C155 C 0.87547 0.0411 -0.0057 0.0
C156 C 0.92769 0.10945 0.93941 0.0
C157 C 0.90198 0.06671 0.92379 0.0
H158 H 0.95581 0.83529 0.93979 0.0
H159 H 0.88187 0.805 0.0544 0.0
H160 H 0.94662 0.82804 0.09546 0.0
H161 H 0.02519 0.87109 0.0988 0.0
H162 H 0.09947 0.90496 0.98429 0.0
H163 H 0.03357 0.86544 0.94326 0.0
C164 C 0.95365 0.83268 0.97372 0.0
C165 C 0.91432 0.81972 -0.00595 0.0
C166 C -0.00881 0.84726 -0.00281 0.0
C167 C 0.91185 0.8155 0.03795 0.0
C168 C 0.94895 0.82897 0.06151 0.0
C169 C 0.027 0.86896 0.06491 0.0
C170 C 0.06701 0.89193 0.04452 0.0
C171 C -0.01098 0.84722 0.0415 0.0
C172 C 0.069 0.88802 0.00072 0.0
C173 C 0.03131 0.86566 0.9772 0.0
H174 H 0.84558 0.51654 0.21811 0.0
H175 H 0.82033 0.46035 0.34145 0.0
H176 H 0.776 0.49286 0.35809 0.0
H177 H 0.73204 0.523 0.33106 0.0
H178 H 0.75498 0.57413 0.20547 0.0
H179 H 0.81308 0.55883 0.19639 0.0
C180 C 0.83154 0.51272 0.24914 0.0
C181 C 0.83552 0.48567 0.27827 0.0
C182 C 0.80503 0.53007 0.25776 0.0
C183 C 0.81765 0.48115 0.31852 0.0
C184 C 0.79186 0.49927 0.32782 0.0
C185 C 0.75086 0.53213 0.30238 0.0
C186 C 0.739 0.549 0.2687 0.0
C187 C 0.78339 0.52169 0.29678 0.0
C188 C 0.76332 0.56057 0.23154 0.0
C189 C 0.79643 0.55171 0.22628 0.0
H190 H 0.44649 0.25552 0.29004 0.0
H191 H 0.52276 0.27962 0.40107 0.0
H192 H 0.54709 0.35812 0.3979 0.0
H193 H 0.55803 0.42091 0.35455 0.0
H194 H 0.48416 0.39498 0.24122 0.0
H195 H 0.4469 0.31645 0.25466 0.0
C196 C 0.46734 0.27779 0.31434 0.0
C197 C 0.48322 0.262 0.34543 0.0
C198 C 0.48212 0.3228 0.31147 0.0
C199 C 0.50997 0.29101 0.3769 0.0
C200 C 0.5243 0.336 0.37475 0.0
C201 C 0.53264 0.39811 0.33372 0.0
C202 C 0.52415 0.41364 0.29667 0.0
C203 C 0.5123 0.35255 0.3409 0.0
C204 C 0.49148 0.38375 0.26972 0.0
C205 C 0.47031 0.3388 0.27727 0.0
H206 H 0.61128 0.15081 0.26544 0.0
H207 H 0.6228 0.20069 0.39169 0.0
H208 H 0.70091 0.24579 0.38318 0.0
H209 H 0.76166 0.28401 0.3337 0.0
H210 H 0.74632 0.23937 0.20486 0.0
H211 H 0.67426 0.17894 0.22036 0.0
C212 C 0.63119 0.17035 0.2916 0.0
C213 C 0.61161 0.17323 0.3288 0.0
C214 C 0.67531 0.19796 0.28548 0.0
C215 C 0.63735 0.19808 0.36275 0.0
C216 C 0.6819 0.22437 0.35759 0.0
C217 C 0.74299 0.26013 0.30946 0.0
C218 C 0.75875 0.26639 0.26804 0.0
C219 C 0.70073 0.22667 0.31817 0.0
C220 C 0.73442 0.23545 0.23679 0.0
C221 C 0.69325 0.20098 0.24562 0.0
H222 H 0.41575 0.82118 0.66649 0.0
H223 H 0.46901 0.86715 0.78992 0.0
H224 H 0.50841 0.82822 0.78424 0.0
H225 H 0.51316 0.76775 0.75172 0.0
H226 H 0.45786 0.71838 0.62976 0.0
H227 H 0.43421 0.77216 0.62686 0.0
C228 C 0.43757 0.82428 0.69123 0.0
C229 C 0.43918 0.84654 0.72879 0.0
C230 C 0.45875 0.80013 0.68845 0.0
C231 C 0.46717 0.84999 0.76084 0.0
C232 C 0.48933 0.82733 0.75779 0.0
C233 C 0.49713 0.7698 0.72395 0.0
C234 C 0.48658 0.73892 0.69132 0.0
C235 C 0.48311 0.80014 0.72295 0.0
C236 C 0.46623 0.74192 0.65527 0.0
C237 C 0.45242 0.77242 0.6538 0.0
H238 H 0.2378 0.74928 0.64569 0.0
H239 H 0.21186 0.69954 0.77199 0.0
H240 H 0.16997 0.62461 0.74492 0.0
H241 H 0.14935 0.57279 0.68542 0.0
H242 H 0.17774 0.62278 0.55921 0.0
H243 H 0.20939 0.6976 0.5862 0.0
C244 C 0.22217 0.72216 0.66733 0.0
C245 C 0.22854 0.73009 0.71077 0.0
C246 C 0.19894 0.67893 0.65155 0.0
C247 C 0.20794 0.69443 0.73834 0.0
C248 C 0.18405 0.65145 0.7229 0.0
C249 C 0.16168 0.59997 0.66379 0.0
C250 C 0.16174 0.5921 0.6204 0.0
C251 C 0.18068 0.6432 0.67955 0.0
C252 C 0.17776 0.62781 0.59283 0.0
C253 C 0.19596 0.67073 0.60821 0.0
H254 H 0.22113 0.43896 0.65979 0.0
H255 H 0.26834 0.47152 0.53275 0.0
H256 H 0.34089 0.49522 0.55643 0.0
H257 H 0.39216 0.52328 0.61478 0.0
H258 H 0.34503 0.49506 0.74215 0.0
H259 H 0.27147 0.45235 0.71672 0.0
C260 C 0.24699 0.44984 0.63705 0.0
C261 C 0.2396 0.45485 0.59483 0.0
C262 C 0.28897 0.46507 0.65109 0.0
C263 C 0.27336 0.46831 0.56567 0.0
C264 C 0.31497 0.48212 0.5792 0.0
C265 C 0.36593 0.50657 0.63693 0.0
C266 C 0.37392 0.51349 0.68026 0.0
C267 C 0.3235 0.48333 0.62215 0.0
C268 C 0.33963 0.49111 0.70858 0.0
C269 C 0.29748 0.46677 0.69409 0.0
H270 H 0.03984 0.30256 0.85887 0.0
H271 H 0.16384 0.39742 0.90956 0.0
H272 H 0.18182 0.43928 0.8451 0.0
H273 H 0.16349 0.44884 0.77398 0.0
H274 H 0.03998 0.35503 0.72195 0.0
H275 H 0.02074 0.31326 0.78717 0.0
C276 C 0.07076 0.33241 0.85583 0.0
C277 C 0.10042 0.34659 0.88924 0.0
C278 C 0.08106 0.35668 0.81837 0.0
C279 C 0.1403 0.38551 0.8846 0.0
C280 C 0.1507 0.40959 0.84763 0.0
C281 C 0.13223 0.41936 0.7768 0.0
C282 C 0.10329 0.40519 0.74289 0.0
C283 C 0.12146 0.39546 0.81428 0.0
C284 C 0.06294 0.36684 0.74743 0.0
C285 C 0.05194 0.34284 0.78476 0.0
H286 H 0.68628 0.70359 0.90209 0.0
H287 H 0.76574 0.77729 0.79735 0.0
H288 H 0.70764 0.73241 0.74884 0.0
H289 H 0.63136 0.67928 0.73714 0.0
H290 H 0.55139 0.6067 0.84192 0.0
H291 H 0.61281 0.64314 0.88901 0.0
C292 C 0.69104 0.70949 0.86862 0.0
C293 C 0.72997 0.74431 0.85356 0.0
C294 C 0.65737 0.68369 0.84075 0.0
C295 C 0.73589 0.75102 0.80998 0.0
C296 C 0.70267 0.72536 0.78208 0.0
C297 C 0.62765 0.67049 0.77002 0.0
C298 C 0.58679 0.64093 0.7861 0.0
C299 C 0.66284 0.69251 0.79723 0.0
C300 C 0.58249 0.62983 0.82883 0.0
C301 C 0.61752 0.65086 0.85589 0.0
H302 H 0.34048 0.92914 0.88041 0.0
H303 H 0.27275 0.94453 0.77758 0.0
H304 H 0.24366 0.97801 0.82557 0.0
H305 H 0.23074 -0.00581 0.89845 0.0
H306 H 0.29821 0.97652 0.0005 0.0
H307 H 0.33414 0.95268 0.95103 0.0
C308 C 0.31989 0.94048 0.8683 0.0
C309 C 0.30836 0.93391 0.82562 0.0
C310 C 0.30276 0.9587 0.89609 0.0
C311 C 0.28217 0.94931 0.81029 0.0
C312 C 0.26522 0.96803 0.83783 0.0
C313 C 0.2537 0.98565 0.90982 0.0
C314 C 0.26118 0.98653 0.95333 0.0
C315 C 0.27418 0.97153 0.88107 0.0
C316 C 0.29139 0.97574 0.96736 0.0
C317 C 0.31201 0.96207 0.93906 0.0
H318 H 0.34339 0.04412 0.31385 0.0
H319 H 0.42213 0.03199 0.21844 0.0
H320 H 0.36038 -0.00567 0.17188 0.0
H321 H 0.28896 0.98065 0.15297 0.0
H322 H 0.21057 -0.00523 0.24772 0.0
H323 H 0.26672 0.01518 0.29967 0.0
C324 C 0.34649 0.03145 0.28362 0.0
C325 C 0.38719 0.04141 0.2692 0.0
C326 C 0.31113 0.01133 0.25628 0.0
C327 C 0.39099 0.02502 0.22992 0.0
C328 C 0.35582 0.0039 0.20309 0.0
C329 C 0.2838 0.98723 0.18519 0.0
C330 C 0.2462 0.98747 0.19602 0.0
C331 C 0.31645 -0.00053 0.21497 0.0
C332 C 0.23957 -0.00489 0.23819 0.0
C333 C 0.27173 0.00689 0.26806 0.0
H334 H 0.00836 0.34532 0.04814 0.0
H335 H 0.05563 0.31168 0.15673 0.0
H336 H 0.03085 0.35007 0.20244 0.0
H337 H -0.01654 0.38014 0.21261 0.0
H338 H 0.93407 0.41192 0.10431 0.0
H339 H 0.97256 0.38839 0.05784 0.0
C340 C 0.01444 0.34766 0.08162 0.0
C341 C 0.03289 0.32489 0.09907 0.0
C342 C -0.00099 0.36887 0.10806 0.0
C343 C 0.04071 0.32829 0.14257 0.0
C344 C 0.02643 0.35013 0.16884 0.0
C345 C 0.98208 0.3831 0.1789 0.0
C346 C 0.95499 0.39665 0.16208 0.0
C347 C 0.00355 0.36853 0.15215 0.0
C348 C 0.954 0.40073 0.11822 0.0
C349 C 0.97593 0.38714 0.09148 0.0
H350 H 0.69058 0.68011 0.22564 0.0
H351 H 0.58266 0.60459 0.14357 0.0
H352 H 0.61607 0.66058 0.08971 0.0
H353 H 0.6806 0.72516 0.06199 0.0
H354 H 0.78971 0.79968 0.14319 0.0
H355 H 0.75132 0.75031 0.20097 0.0
C356 C 0.67371 0.67671 0.19658 0.0
C357 C 0.63421 0.63814 0.18864 0.0
C358 C 0.69388 0.70842 0.16501 0.0
C359 C 0.6131 0.63395 0.15048 0.0
C360 C 0.63239 0.66578 0.11945 0.0
C361 C 0.69579 0.73099 0.09247 0.0
C362 C 0.7383 0.76576 0.09787 0.0
C363 C 0.6736 0.70219 0.12566 0.0
C364 C 0.75719 0.77301 0.13784 0.0
C365 C 0.73524 0.74471 0.17103 0.0
H366 H -0.00537 0.42343 0.53754 0.0
H367 H 0.05645 0.3678 0.46433 0.0
H368 H 0.00551 0.35052 0.40722 0.0
H369 H 0.95155 0.36238 0.37399 0.0
H370 H 0.89065 0.42021 0.44562 0.0
H371 H 0.93295 0.42565 0.50734 0.0
C372 C -0.00439 0.40583 0.50978 0.0
C373 C 0.02882 0.39649 0.50508 0.0
C374 C 0.96731 0.39775 0.47628 0.0
C375 C 0.03071 0.37476 0.46862 0.0
C376 C 0.00201 0.36547 0.43577 0.0
C377 C 0.94727 0.37582 0.40322 0.0
C378 C 0.91875 0.39174 0.40501 0.0
C379 C 0.97158 0.37876 0.43849 0.0
C380 C 0.91279 0.40816 0.44333 0.0
C381 C 0.93694 0.41125 0.47866 0.0
H382 H 0.5845 0.61557 0.40139 0.0
H383 H 0.63993 0.55183 0.46948 0.0
H384 H 0.61641 0.56831 0.53575 0.0
H385 H 0.57695 0.59757 0.57438 0.0
H386 H 0.51956 0.65925 0.50604 0.0
H387 H 0.54704 0.64693 0.44021 0.0
C388 C 0.59184 0.60566 0.43073 0.0
C389 C 0.61394 0.5824 0.4303 0.0
C390 C 0.5776 0.61464 0.46884 0.0
C391 C 0.62289 0.56965 0.46873 0.0
C392 C 0.60939 0.57902 0.50674 0.0
C393 C 0.57068 0.60861 0.54514 0.0
C394 C 0.54604 0.6292 0.54532 0.0
C395 C 0.5862 0.60097 0.50717 0.0
C396 C 0.53824 0.64316 0.50699 0.0
C397 C 0.55397 0.63613 0.46922 0.0
H398 H 0.43603 0.01518 0.62029 0.0
H399 H 0.30952 0.91019 0.58569 0.0
H400 H 0.31632 0.94424 0.51772 0.0
H401 H 0.35881 0.00276 0.46725 0.0
H402 H 0.48558 0.10742 0.5016 0.0
H403 H 0.47787 0.07461 0.57042 0.0
C404 C 0.40983 -0.00026 0.59799 0.0
C405 C 0.37232 0.96001 0.60826 0.0
C406 C 0.414 0.01945 0.55878 0.0
C407 C 0.33878 0.94067 0.57879 0.0
C408 C 0.34265 0.96014 0.53982 0.0
C409 C 0.38473 0.0186 0.48981 0.0
C410 C 0.42278 0.05759 0.47903 0.0
C411 C 0.3802 -0.00061 0.52936 0.0
C412 C 0.45594 0.07746 0.50885 0.0
C413 C 0.45158 0.05865 0.54828 0.0
loop_
_geom_bond_atom_site_label_1
_geom_bond_atom_site_label_2
_geom_bond_distance
_geom_bond_site_symmetry_2
_ccdc_geom_bond_type
Zn0 O3 2.031 . S
Zn0 O5 2.049 1_455 S
Zn0 O10 2.067 1_455 S
Zn1 O2 1.962 . S
Zn1 O4 1.986 1_554 S
Zn1 O6 1.996 . S
Zn1 O9 1.943 1_454 S
O2 Zn1 1.962 . S
O2 C7 1.254 . S
O3 Zn0 2.031 . S
O3 C7 1.269 . S
O4 Zn1 1.986 1_556 S
O4 C11 1.262 . S
O5 Zn0 2.049 1_655 S
O5 C13 1.260 . S
O6 Zn1 1.996 . S
O6 C13 1.257 1_455 S
C7 O2 1.254 . S
C7 O3 1.269 . S
C8 O9 1.249 1_554 S
C8 O10 1.270 . S
O9 Zn1 1.943 1_656 S
O9 C8 1.249 1_556 S
O10 Zn0 2.067 1_655 S
O10 C8 1.270 . S
C11 O4 1.262 . S
C11 O12 1.232 . S
O12 C11 1.232 . S
C13 O5 1.260 . S
C13 O6 1.257 1_655 S
Zn14 O17 2.031 . S
Zn14 O19 2.049 . S
Zn14 O24 2.067 . S
Zn15 O16 1.962 . S
Zn15 O18 1.986 . S
Zn15 O20 1.996 1_554 S
Zn15 O23 1.943 . S
O16 Zn15 1.962 . S
O16 C21 1.254 1_554 S
O17 Zn14 2.031 . S
O17 C21 1.269 . S
O18 Zn15 1.986 . S
O18 C25 1.262 . S
O19 Zn14 2.049 . S
O19 C27 1.260 . S
O20 Zn15 1.996 1_556 S
O20 C27 1.257 . S
C21 O16 1.254 1_556 S
C21 O17 1.269 . S
C22 O23 1.249 . S
C22 O24 1.270 1_554 S
O23 Zn15 1.943 . S
O23 C22 1.249 . S
O24 Zn14 2.067 . S
O24 C22 1.270 1_556 S
C25 O18 1.262 . S
C25 O26 1.232 . S
O26 C25 1.232 . S
C27 O19 1.260 . S
C27 O20 1.257 . S
Zn28 O31 2.031 1_545 S
Zn28 O33 2.049 . S
Zn28 O38 2.067 . S
Zn29 O30 1.962 1_546 S
Zn29 O32 1.991 . S
Zn29 O34 1.996 1_556 S
Zn29 O37 1.943 . S
O30 Zn29 1.962 1_564 S
O30 C35 1.254 . S
O31 Zn28 2.031 1_565 S
O31 C35 1.269 . S
O32 Zn29 1.991 . S
O32 C39 1.262 1_545 S
O33 Zn28 2.049 . S
O33 C41 1.260 . S
O34 Zn29 1.996 1_554 S
O34 C41 1.257 . S
C35 O30 1.254 . S
C35 O31 1.269 . S
C36 O37 1.249 1_554 S
C36 O38 1.270 . S
O37 Zn29 1.943 . S
O37 C36 1.249 1_556 S
O38 Zn28 2.067 . S
O38 C36 1.270 . S
C39 O32 1.262 1_565 S
C39 O40 1.232 . S
O40 C39 1.232 . S
C41 O33 1.260 . S
C41 O34 1.257 . S
Zn42 O45 2.031 . S
Zn42 O47 2.049 . S
Zn42 O52 2.067 . S
Zn43 O44 1.962 . S
Zn43 O46 1.986 . S
Zn43 O48 1.996 . S
Zn43 O51 1.943 . S
O44 Zn43 1.962 . S
O44 C49 1.254 . S
O45 Zn42 2.031 . S
O45 C49 1.269 . S
O46 Zn43 1.986 . S
O46 C53 1.262 . S
O47 Zn42 2.049 . S
O47 C55 1.260 . S
O48 Zn43 1.996 . S
O48 C55 1.257 . S
C49 O44 1.254 . S
C49 O45 1.269 . S
C50 O51 1.249 . S
C50 O52 1.270 . S
O51 Zn43 1.943 . S
O51 C50 1.249 . S
O52 Zn42 2.067 . S
O52 C50 1.270 . S
C53 O46 1.262 . S
C53 O54 1.232 . S
O54 C53 1.232 . S
C55 O47 1.260 . S
C55 O48 1.257 . S
Zn56 O59 2.031 . S
Zn56 O61 2.049 . S
Zn56 O66 2.067 . S
Zn57 O58 1.962 . S
Zn57 O60 1.986 . S
Zn57 O62 1.996 . S
Zn57 O65 1.943 . S
O58 Zn57 1.962 . S
O58 C63 1.254 . S
O59 Zn56 2.031 . S
O59 C63 1.269 . S
O60 Zn57 1.986 . S
O60 C67 1.262 . S
O61 Zn56 2.049 . S
O61 C69 1.260 . S
O62 Zn57 1.996 . S
O62 C69 1.257 . S
C63 O58 1.254 . S
C63 O59 1.269 . S
C64 O65 1.249 . S
C64 O66 1.270 . S
O65 Zn57 1.943 . S
O65 C64 1.249 . S
O66 Zn56 2.067 . S
O66 C64 1.270 . S
C67 O60 1.262 . S
C67 O68 1.232 . S
O68 C67 1.232 . S
C69 O61 1.260 . S
C69 O62 1.257 . S
Zn70 O73 2.031 . S
Zn70 O75 2.049 . S
Zn70 O80 2.067 . S
Zn71 O72 1.962 . S
Zn71 O74 1.986 . S
Zn71 O76 1.996 . S
Zn71 O79 1.943 . S
O72 Zn71 1.962 . S
O72 C77 1.254 . S
O73 Zn70 2.031 . S
O73 C77 1.269 . S
O74 Zn71 1.986 . S
O74 C81 1.262 . S
O75 Zn70 2.049 . S
O75 C83 1.260 . S
O76 Zn71 1.996 . S
O76 C83 1.257 . S
C77 O72 1.254 . S
C77 O73 1.269 . S
C78 O79 1.249 . S
C78 O80 1.270 . S
O79 Zn71 1.943 . S
O79 C78 1.249 . S
O80 Zn70 2.067 . S
O80 C78 1.270 . S
C81 O74 1.262 . S
C81 O82 1.232 . S
O82 C81 1.232 . S
C83 O75 1.260 . S
C83 O76 1.257 . S
Zn84 O87 2.031 . S
Zn84 O89 2.049 . S
Zn84 O94 2.067 . S
Zn85 O86 1.962 . S
Zn85 O88 1.986 . S
Zn85 O90 1.996 . S
Zn85 O93 1.943 . S
O86 Zn85 1.962 . S
O86 C91 1.254 . S
O87 Zn84 2.031 . S
O87 C91 1.269 . S
O88 Zn85 1.986 . S
O88 C95 1.262 . S
O89 Zn84 2.049 . S
O89 C97 1.260 . S
O90 Zn85 1.996 . S
O90 C97 1.257 . S
C91 O86 1.254 . S
C91 O87 1.269 . S
C92 O93 1.249 . S
C92 O94 1.270 . S
O93 Zn85 1.943 . S
O93 C92 1.249 . S
O94 Zn84 2.067 . S
O94 C92 1.270 . S
C95 O88 1.262 . S
C95 O96 1.232 . S
O96 C95 1.232 . S
C97 O89 1.260 . S
C97 O90 1.257 . S
Zn98 O101 2.031 . S
Zn98 O103 2.049 . S
Zn98 O108 2.067 . S
Zn99 O100 1.962 . S
Zn99 O102 1.986 . S
Zn99 O104 1.996 . S
Zn99 O107 1.943 . S
O100 Zn99 1.962 . S
O100 C105 1.254 . S
O101 Zn98 2.031 . S
O101 C105 1.269 . S
O102 Zn99 1.986 . S
O102 C109 1.262 . S
O103 Zn98 2.049 . S
O103 C111 1.260 . S
O104 Zn99 1.996 . S
O104 C111 1.257 . S
C105 O100 1.254 . S
C105 O101 1.269 . S
C106 O107 1.249 . S
C106 O108 1.270 . S
O107 Zn99 1.943 . S
O107 C106 1.249 . S
O108 Zn98 2.067 . S
O108 C106 1.270 . S
C109 O102 1.262 . S
C109 O110 1.232 . S
O110 C109 1.232 . S
C111 O103 1.260 . S
C111 O104 1.257 . S
Zn112 O115 2.031 . S
Zn112 O117 2.049 . S
Zn112 O122 2.067 . S
Zn113 O114 1.962 . S
Zn113 O116 1.986 . S
Zn113 O118 1.996 . S
Zn113 O121 1.943 . S
O114 Zn113 1.962 . S
O114 C119 1.254 . S
O115 Zn112 2.031 . S
O115 C119 1.269 . S
O116 Zn113 1.986 . S
O116 C123 1.262 . S
O117 Zn112 2.049 . S
O117 C125 1.260 . S
O118 Zn113 1.996 . S
O118 C125 1.257 . S
C119 O114 1.254 . S
C119 O115 1.269 . S
C120 O121 1.249 . S
C120 O122 1.270 . S
O121 Zn113 1.943 . S
O121 C120 1.249 . S
O122 Zn112 2.067 . S
O122 C120 1.270 . S
C123 O116 1.262 . S
C123 O124 1.232 . S
O124 C123 1.232 . S
C125 O117 1.260 . S
C125 O118 1.257 . S
H126 C132 0.930 . S
H127 C135 0.930 . S
H128 C136 0.930 . S
H129 C137 0.930 . S
H130 C140 0.930 . S
H131 C141 0.930 . S
C132 H126 0.930 . S
C132 C133 1.355 1_554 S
C132 C134 1.415 . S
C133 C132 1.355 1_556 S
C133 C135 1.419 . S
C134 C132 1.415 . S
C134 C139 1.425 . S
C134 C141 1.409 . S
C135 H127 0.930 . S
C135 C133 1.419 . S
C135 C136 1.362 . S
C136 H128 0.930 . S
C136 C135 1.362 . S
C136 C139 1.409 1_556 S
C137 H129 0.930 . S
C137 C138 1.355 . S
C137 C139 1.415 . S
C138 C137 1.355 . S
C138 C140 1.419 . S
C139 C134 1.425 . S
C139 C136 1.409 1_554 S
C139 C137 1.415 . S
C140 H130 0.930 . S
C140 C138 1.419 . S
C140 C141 1.362 . S
C141 H131 0.930 . S
C141 C134 1.409 . S
C141 C140 1.362 . S
H142 C148 0.930 . S
H143 C151 0.930 . S
H144 C152 0.930 1_545 S
H145 C153 0.930 . S
H146 C156 0.930 . S
H147 C157 0.930 . S
C148 H142 0.930 . S
C148 C149 1.355 1_556 S
C148 C150 1.415 1_565 S
C149 C148 1.355 1_554 S
C149 C151 1.419 . S
C150 C148 1.415 1_545 S
C150 C155 1.425 1_556 S
C150 C157 1.409 . S
C151 H143 0.930 . S
C151 C149 1.419 . S
C151 C152 1.362 . S
C152 H144 0.930 1_565 S
C152 C151 1.362 . S
C152 C155 1.409 1_565 S
C153 H145 0.930 . S
C153 C154 1.355 1_554 S
C153 C155 1.415 . S
C154 C153 1.355 1_556 S
C154 C156 1.419 . S
C155 C150 1.425 1_554 S
C155 C152 1.409 1_545 S
C155 C153 1.415 . S
C156 H146 0.930 . S
C156 C154 1.419 . S
C156 C157 1.362 . S
C157 H147 0.930 . S
C157 C150 1.409 . S
C157 C156 1.362 . S
H158 C164 0.930 . S
H159 C167 0.930 . S
H160 C168 0.930 1_455 S
H161 C169 0.930 . S
H162 C172 0.930 . S
H163 C173 0.928 1_556 S
C164 H158 0.930 . S
C164 C165 1.355 . S
C164 C166 1.415 1_656 S
C165 C164 1.355 . S
C165 C167 1.417 1_556 S
C166 C164 1.415 1_454 S
C166 C171 1.425 . S
C166 C173 1.410 . S
C167 H159 0.930 . S
C167 C165 1.417 1_554 S
C167 C168 1.362 . S
C168 H160 0.930 1_655 S
C168 C167 1.362 . S
C168 C171 1.409 1_655 S
C169 H161 0.930 . S
C169 C170 1.355 . S
C169 C171 1.415 . S
C170 C169 1.355 . S
C170 C172 1.419 . S
C171 C166 1.425 . S
C171 C168 1.409 1_455 S
C171 C169 1.415 . S
C172 H162 0.930 . S
C172 C170 1.419 . S
C172 C173 1.364 . S
C173 H163 0.928 1_554 S
C173 C166 1.410 . S
C173 C172 1.364 . S
H174 C180 0.930 . S
H175 C183 0.930 . S
H176 C184 0.930 . S
H177 C185 0.930 . S
H178 C188 0.930 . S
H179 C189 0.930 . S
C180 H174 0.930 . S
C180 C181 1.355 . S
C180 C182 1.415 . S
C181 C180 1.355 . S
C181 C183 1.419 . S
C182 C180 1.415 . S
C182 C187 1.425 . S
C182 C189 1.409 . S
C183 H175 0.930 . S
C183 C181 1.419 . S
C183 C184 1.362 . S
C184 H176 0.930 . S
C184 C183 1.362 . S
C184 C187 1.409 . S
C185 H177 0.930 . S
C185 C186 1.355 . S
C185 C187 1.415 . S
C186 C185 1.355 . S
C186 C188 1.419 . S
C187 C182 1.425 . S
C187 C184 1.409 . S
C187 C185 1.415 . S
C188 H178 0.930 . S
C188 C186 1.419 . S
C188 C189 1.362 . S
C189 H179 0.930 . S
C189 C182 1.409 . S
C189 C188 1.362 . S
H190 C196 0.930 . S
H191 C199 0.930 . S
H192 C200 0.930 . S
H193 C201 0.930 . S
H194 C204 0.930 . S
H195 C205 0.930 . S
C196 H190 0.930 . S
C196 C197 1.355 . S
C196 C198 1.415 . S
C197 C196 1.355 . S
C197 C199 1.419 . S
C198 C196 1.415 . S
C198 C203 1.425 . S
C198 C205 1.409 . S
C199 H191 0.930 . S
C199 C197 1.419 . S
C199 C200 1.362 . S
C200 H192 0.930 . S
C200 C199 1.362 . S
C200 C203 1.409 . S
C201 H193 0.930 . S
C201 C202 1.355 . S
C201 C203 1.415 . S
C202 C201 1.355 . S
C202 C204 1.419 . S
C203 C198 1.425 . S
C203 C200 1.409 . S
C203 C201 1.415 . S
C204 H194 0.930 . S
C204 C202 1.419 . S
C204 C205 1.362 . S
C205 H195 0.930 . S
C205 C198 1.409 . S
C205 C204 1.362 . S
H206 C212 0.930 . S
H207 C215 0.930 . S
H208 C216 0.930 . S
H209 C217 0.930 . S
H210 C220 0.930 . S
H211 C221 0.930 . S
C212 H206 0.930 . S
C212 C213 1.355 . S
C212 C214 1.415 . S
C213 C212 1.355 . S
C213 C215 1.419 . S
C214 C212 1.415 . S
C214 C219 1.425 . S
C214 C221 1.409 . S
C215 H207 0.930 . S
C215 C213 1.419 . S
C215 C216 1.362 . S
C216 H208 0.930 . S
C216 C215 1.362 . S
C216 C219 1.409 . S
C217 H209 0.930 . S
C217 C218 1.355 . S
C217 C219 1.415 . S
C218 C217 1.355 . S
C218 C220 1.419 . S
C219 C214 1.425 . S
C219 C216 1.409 . S
C219 C217 1.415 . S
C220 H210 0.930 . S
C220 C218 1.419 . S
C220 C221 1.362 . S
C221 H211 0.930 . S
C221 C214 1.409 . S
C221 C220 1.362 . S
H222 C228 0.930 . S
H223 C231 0.930 . S
H224 C232 0.930 . S
H225 C233 0.930 . S
H226 C236 0.930 . S
H227 C237 0.930 . S
C228 H222 0.930 . S
C228 C229 1.355 . S
C228 C230 1.415 . S
C229 C228 1.355 . S
C229 C231 1.419 . S
C230 C228 1.415 . S
C230 C235 1.425 . S
C230 C237 1.409 . S
C231 H223 0.930 . S
C231 C229 1.419 . S
C231 C232 1.362 . S
C232 H224 0.930 . S
C232 C231 1.362 . S
C232 C235 1.409 . S
C233 H225 0.930 . S
C233 C234 1.355 . S
C233 C235 1.415 . S
C234 C233 1.355 . S
C234 C236 1.419 . S
C235 C230 1.425 . S
C235 C232 1.409 . S
C235 C233 1.415 . S
C236 H226 0.930 . S
C236 C234 1.419 . S
C236 C237 1.362 . S
C237 H227 0.930 . S
C237 C230 1.409 . S
C237 C236 1.362 . S
H238 C244 0.930 . S
H239 C247 0.930 . S
H240 C248 0.930 . S
H241 C249 0.930 . S
H242 C252 0.930 . S
H243 C253 0.930 . S
C244 H238 0.930 . S
C244 C245 1.355 . S
C244 C246 1.415 . S
C245 C244 1.355 . S
C245 C247 1.419 . S
C246 C244 1.415 . S
C246 C251 1.425 . S
C246 C253 1.409 . S
C247 H239 0.930 . S
C247 C245 1.419 . S
C247 C248 1.362 . S
C248 H240 0.930 . S
C248 C247 1.362 . S
C248 C251 1.409 . S
C249 H241 0.930 . S
C249 C250 1.355 . S
C249 C251 1.415 . S
C250 C249 1.355 . S
C250 C252 1.419 . S
C251 C246 1.425 . S
C251 C248 1.409 . S
C251 C249 1.415 . S
C252 H242 0.930 . S
C252 C250 1.419 . S
C252 C253 1.362 . S
C253 H243 0.930 . S
C253 C246 1.409 . S
C253 C252 1.362 . S
H254 C260 0.930 . S
H255 C263 0.930 . S
H256 C264 0.930 . S
H257 C265 0.930 . S
H258 C268 0.930 . S
H259 C269 0.930 . S
C260 H254 0.930 . S
C260 C261 1.355 . S
C260 C262 1.415 . S
C261 C260 1.355 . S
C261 C263 1.419 . S
C262 C260 1.415 . S
C262 C267 1.425 . S
C262 C269 1.409 . S
C263 H255 0.930 . S
C263 C261 1.419 . S
C263 C264 1.362 . S
C264 H256 0.930 . S
C264 C263 1.362 . S
C264 C267 1.409 . S
C265 H257 0.930 . S
C265 C266 1.355 . S
C265 C267 1.415 . S
C266 C265 1.355 . S
C266 C268 1.419 . S
C267 C262 1.425 . S
C267 C264 1.409 . S
C267 C265 1.415 . S
C268 H258 0.930 . S
C268 C266 1.419 . S
C268 C269 1.362 . S
C269 H259 0.930 . S
C269 C262 1.409 . S
C269 C268 1.362 . S
H270 C276 0.930 1_655 S
H271 C279 0.930 . S
H272 C280 0.930 . S
H273 C281 0.930 . S
H274 C284 0.930 . S
H275 C285 0.930 1_655 S
C276 H270 0.930 1_455 S
C276 C277 1.355 . S
C276 C278 1.415 . S
C277 C276 1.355 . S
C277 C279 1.419 . S
C278 C276 1.415 . S
C278 C283 1.425 . S
C278 C285 1.409 . S
C279 H271 0.930 . S
C279 C277 1.419 . S
C279 C280 1.362 . S
C280 H272 0.930 . S
C280 C279 1.362 . S
C280 C283 1.409 . S
C281 H273 0.930 . S
C281 C282 1.355 . S
C281 C283 1.415 . S
C282 C281 1.355 . S
C282 C284 1.419 . S
C283 C278 1.425 . S
C283 C280 1.409 . S
C283 C281 1.415 . S
C284 H274 0.930 . S
C284 C282 1.419 . S
C284 C285 1.362 . S
C285 H275 0.930 1_455 S
C285 C278 1.409 . S
C285 C284 1.362 . S
H286 C292 0.930 . S
H287 C295 0.930 . S
H288 C296 0.930 . S
H289 C297 0.930 . S
H290 C300 0.930 . S
H291 C301 0.930 . S
C292 H286 0.930 . S
C292 C293 1.355 . S
C292 C294 1.415 . S
C293 C292 1.355 . S
C293 C295 1.419 . S
C294 C292 1.415 . S
C294 C299 1.425 . S
C294 C301 1.409 . S
C295 H287 0.930 . S
C295 C293 1.419 . S
C295 C296 1.362 . S
C296 H288 0.930 . S
C296 C295 1.362 . S
C296 C299 1.409 . S
C297 H289 0.930 . S
C297 C298 1.355 . S
C297 C299 1.415 . S
C298 C297 1.355 . S
C298 C300 1.419 . S
C299 C294 1.425 . S
C299 C296 1.409 . S
C299 C297 1.415 . S
C300 H290 0.930 . S
C300 C298 1.419 . S
C300 C301 1.362 . S
C301 H291 0.930 . S
C301 C294 1.409 . S
C301 C300 1.362 . S
H302 C308 0.930 . S
H303 C311 0.930 . S
H304 C312 0.930 . S
H305 C313 0.930 . S
H306 C316 0.930 . S
H307 C317 0.930 . S
C308 H302 0.930 . S
C308 C309 1.355 . S
C308 C310 1.415 . S
C309 C308 1.355 . S
C309 C311 1.419 . S
C310 C308 1.415 . S
C310 C315 1.425 . S
C310 C317 1.409 1_565 S
C311 H303 0.930 . S
C311 C309 1.419 . S
C311 C312 1.362 . S
C312 H304 0.930 . S
C312 C311 1.362 . S
C312 C315 1.409 . S
C313 H305 0.930 . S
C313 C314 1.355 . S
C313 C315 1.415 . S
C314 C313 1.355 . S
C314 C316 1.419 1_565 S
C315 C310 1.425 . S
C315 C312 1.409 . S
C315 C313 1.415 . S
C316 H306 0.930 . S
C316 C314 1.419 1_545 S
C316 C317 1.362 . S
C317 H307 0.930 . S
C317 C310 1.409 1_545 S
C317 C316 1.362 . S
H318 C324 0.930 . S
H319 C327 0.930 . S
H320 C328 0.930 . S
H321 C329 0.930 . S
H322 C332 0.930 . S
H323 C333 0.930 . S
C324 H318 0.930 . S
C324 C325 1.355 . S
C324 C326 1.415 . S
C325 C324 1.355 . S
C325 C327 1.419 . S
C326 C324 1.415 . S
C326 C331 1.425 . S
C326 C333 1.409 . S
C327 H319 0.930 . S
C327 C325 1.419 . S
C327 C328 1.362 . S
C328 H320 0.930 . S
C328 C327 1.362 . S
C328 C331 1.409 . S
C329 H321 0.930 . S
C329 C330 1.355 . S
C329 C331 1.415 . S
C330 C329 1.355 . S
C330 C332 1.419 . S
C331 C326 1.425 . S
C331 C328 1.409 . S
C331 C329 1.415 . S
C332 H322 0.930 . S
C332 C330 1.419 . S
C332 C333 1.362 . S
C333 H323 0.930 . S
C333 C326 1.409 . S
C333 C332 1.362 . S
H334 C340 0.930 1_455 S
H335 C343 0.930 . S
H336 C344 0.930 . S
H337 C345 0.930 . S
H338 C348 0.930 . S
H339 C349 0.930 1_455 S
C340 H334 0.930 1_655 S
C340 C341 1.355 . S
C340 C342 1.415 . S
C341 C340 1.355 . S
C341 C343 1.419 . S
C342 C340 1.415 . S
C342 C347 1.425 . S
C342 C349 1.409 . S
C343 H335 0.930 . S
C343 C341 1.419 . S
C343 C344 1.362 . S
C344 H336 0.930 . S
C344 C343 1.362 . S
C344 C347 1.409 . S
C345 H337 0.930 . S
C345 C346 1.355 . S
C345 C347 1.415 . S
C346 C345 1.355 . S
C346 C348 1.419 . S
C347 C342 1.425 . S
C347 C344 1.409 . S
C347 C345 1.415 . S
C348 H338 0.930 . S
C348 C346 1.419 . S
C348 C349 1.362 . S
C349 H339 0.930 1_655 S
C349 C342 1.409 . S
C349 C348 1.362 . S
H350 C356 0.930 . S
H351 C359 0.930 . S
H352 C360 0.930 . S
H353 C361 0.930 . S
H354 C364 0.930 . S
H355 C365 0.930 . S
C356 H350 0.930 . S
C356 C357 1.355 . S
C356 C358 1.415 . S
C357 C356 1.355 . S
C357 C359 1.419 . S
C358 C356 1.415 . S
C358 C363 1.425 . S
C358 C365 1.409 . S
C359 H351 0.930 . S
C359 C357 1.419 . S
C359 C360 1.362 . S
C360 H352 0.930 . S
C360 C359 1.362 . S
C360 C363 1.409 . S
C361 H353 0.930 . S
C361 C362 1.355 . S
C361 C363 1.415 . S
C362 C361 1.355 . S
C362 C364 1.419 . S
C363 C358 1.425 . S
C363 C360 1.409 . S
C363 C361 1.415 . S
C364 H354 0.930 . S
C364 C362 1.419 . S
C364 C365 1.362 . S
C365 H355 0.930 . S
C365 C358 1.409 . S
C365 C364 1.362 . S
H366 C372 0.930 . S
H367 C375 0.930 . S
H368 C376 0.930 . S
H369 C377 0.930 . S
H370 C380 0.930 . S
H371 C381 0.930 . S
C372 H366 0.930 . S
C372 C373 1.355 . S
C372 C374 1.415 . S
C373 C372 1.355 . S
C373 C375 1.419 . S
C374 C372 1.415 . S
C374 C379 1.425 . S
C374 C381 1.409 1_455 S
C375 H367 0.930 . S
C375 C373 1.419 . S
C375 C376 1.362 . S
C376 H368 0.930 . S
C376 C375 1.362 . S
C376 C379 1.409 . S
C377 H369 0.930 . S
C377 C378 1.355 1_455 S
C377 C379 1.415 . S
C378 C377 1.355 1_655 S
C378 C380 1.419 . S
C379 C374 1.425 . S
C379 C376 1.409 . S
C379 C377 1.415 . S
C380 H370 0.930 . S
C380 C378 1.419 . S
C380 C381 1.362 . S
C381 H371 0.930 . S
C381 C374 1.409 1_655 S
C381 C380 1.362 . S
H382 C388 0.930 . S
H383 C391 0.930 . S
H384 C392 0.930 . S
H385 C393 0.930 . S
H386 C396 0.930 . S
H387 C397 0.930 . S
C388 H382 0.930 . S
C388 C389 1.355 . S
C388 C390 1.415 . S
C389 C388 1.355 . S
C389 C391 1.419 . S
C390 C388 1.415 . S
C390 C395 1.425 . S
C390 C397 1.409 . S
C391 H383 0.930 . S
C391 C389 1.419 . S
C391 C392 1.362 . S
C392 H384 0.930 . S
C392 C391 1.362 . S
C392 C395 1.409 . S
C393 H385 0.930 . S
C393 C394 1.355 . S
C393 C395 1.415 . S
C394 C393 1.355 . S
C394 C396 1.419 . S
C395 C390 1.425 . S
C395 C392 1.409 . S
C395 C393 1.415 . S
C396 H386 0.930 . S
C396 C394 1.419 . S
C396 C397 1.362 . S
C397 H387 0.930 . S
C397 C390 1.409 . S
C397 C396 1.362 . S
H398 C404 0.930 . S
H399 C407 0.930 . S
H400 C408 0.930 . S
H401 C409 0.930 . S
H402 C412 0.930 . S
H403 C413 0.930 . S
C404 H398 0.930 . S
C404 C405 1.355 . S
C404 C406 1.415 . S
C405 C404 1.355 . S
C405 C407 1.419 1_565 S
C406 C404 1.415 . S
C406 C411 1.425 1_565 S
C406 C413 1.409 . S
C407 H399 0.930 . S
C407 C405 1.419 1_545 S
C407 C408 1.362 . S
C408 H400 0.930 . S
C408 C407 1.362 . S
C408 C411 1.409 . S
C409 H401 0.930 . S
C409 C410 1.355 . S
C409 C411 1.415 . S
C410 C409 1.355 . S
C410 C412 1.419 . S
C411 C406 1.425 1_545 S
C411 C408 1.409 . S
C411 C409 1.415 . S
C412 H402 0.930 . S
C412 C410 1.419 . S
C412 C413 1.362 1_545 S
C413 H403 0.930 . S
C413 C406 1.409 . S
C413 C412 1.362 1_565 S
C133 C36 1.159 1_556 S
C138 C7 1.149 . S
C149 C22 1.131 . S
C154 C8 1.163 1_556 S
C165 C21 1.040 . S
C170 C35 1.092 . S
C181 C77 1.126 . S
C186 C50 1.018 . S
C197 C64 1.108 . S
C202 C49 1.086 . S
C213 C63 1.118 . S
C218 C78 1.074 . S
C229 C91 1.061 . S
C234 C120 1.089 . S
C245 C92 1.077 . S
C250 C106 1.052 . S
C261 C105 1.086 . S
C266 C119 1.031 . S
C277 C11 1.346 . S
C282 C109 1.389 . S
C293 C27 1.233 . S
C298 C125 1.216 . S
C309 C97 1.257 . S
C314 C39 1.379 . S
C325 C69 1.273 . S
C330 C41 1.237 . S
C341 C13 1.304 . S
C346 C83 1.342 . S
C357 C55 1.264 . S
C362 C25 1.357 . S
C373 C111 1.276 . S
C378 C81 1.338 . S
C389 C53 1.320 . S
C394 C123 1.318 . S
C405 C95 1.378 . S
C410 C67 1.380 . S
