# Generated by pormake.
# Topology wme, (6)-cn, num edge types: 1
# Building blocks:
#     Node 0, Type 0, BuildingBlock: HISSIN_clean_sbu_0, # of connection points: 6
#     Node 1, Type 0, BuildingBlock: HISSIN_clean_sbu_0, # of connection points: 6
#     Node 2, Type 0, BuildingBlock: HISSIN_clean_sbu_0, # of connection points: 6
#     Node 3, Type 0, BuildingBlock: HISSIN_clean_sbu_0, # of connection points: 6
#     Node 4, Type 0, BuildingBlock: HISSIN_clean_sbu_0, # of connection points: 6
#     Node 5, Type 0, BuildingBlock: HISSIN_clean_sbu_0, # of connection points: 6
#     Node 6, Type 0, BuildingBlock: HISSIN_clean_sbu_0, # of connection points: 6
#     Node 7, Type 0, BuildingBlock: HISSIN_clean_sbu_0, # of connection points: 6
#     Node 8, Type 0, BuildingBlock: HISSIN_clean_sbu_0, # of connection points: 6
#     Node 9, Type 0, BuildingBlock: HISSIN_clean_sbu_0, # of connection points: 6
#     Node 10, Type 0, BuildingBlock: HISSIN_clean_sbu_0, # of connection points: 6
#     Node 11, Type 0, BuildingBlock: HISSIN_clean_sbu_0, # of connection points: 6
#     Edge 12, Type (0, 0), None
#     Edge 13, Type (0, 0), None
#     Edge 14, Type (0, 0), None
#     Edge 15, Type (0, 0), None
#     Edge 16, Type (0, 0), None
#     Edge 17, Type (0, 0), None
#     Edge 18, Type (0, 0), None
#     Edge 19, Type (0, 0), None
#     Edge 20, Type (0, 0), None
#     Edge 21, Type (0, 0), None
#     Edge 22, Type (0, 0), None
#     Edge 23, Type (0, 0), None
#     Edge 24, Type (0, 0), None
#     Edge 25, Type (0, 0), None
#     Edge 26, Type (0, 0), None
#     Edge 27, Type (0, 0), None
#     Edge 28, Type (0, 0), None
#     Edge 29, Type (0, 0), None
#     Edge 30, Type (0, 0), None
#     Edge 31, Type (0, 0), None
#     Edge 32, Type (0, 0), None
#     Edge 33, Type (0, 0), None
#     Edge 34, Type (0, 0), None
#     Edge 35, Type (0, 0), None
#     Edge 36, Type (0, 0), None
#     Edge 37, Type (0, 0), None
#     Edge 38, Type (0, 0), None
#     Edge 39, Type (0, 0), None
#     Edge 40, Type (0, 0), None
#     Edge 41, Type (0, 0), None
#     Edge 42, Type (0, 0), None
#     Edge 43, Type (0, 0), None
#     Edge 44, Type (0, 0), None
#     Edge 45, Type (0, 0), None
#     Edge 46, Type (0, 0), None
#     Edge 47, Type (0, 0), None
# Relax obj value: 0.114
# Max RMSD: 0.260
# Mean RMSD: 0.260
data_MOF--net-wme--node1-HISSIN_clean_sbu_0--edge1-none
_symmetry_space_group_name_H-M    P1
_symmetry_Int_Tables_number       1
_symmetry_cell_setting            triclinic
loop_
_symmetry_equiv_pos_as_xyz
'x, y, z'
_cell_length_a     22.620525
_cell_length_b     22.62111
_cell_length_c     23.492198
_cell_angle_alpha  89.999161
_cell_angle_beta   90.001069
_cell_angle_gamma 119.99853
loop_
_atom_site_label
_atom_site_type_symbol
_atom_site_fract_x
_atom_site_fract_y
_atom_site_fract_z
_atom_type_partial_charge
Eu0 Eu 0.2734 0.42517 0.03334 0.0
Eu1 Eu 0.34087 0.35373 0.09109 0.0
C2 C 0.28674 0.42734 0.17156 0.0
C3 C 0.21823 0.54912 -0.00024 0.0
C4 C 0.24833 0.57994 0.05202 0.0
C5 C 0.17053 0.6241 -0.00711 0.0
C6 C 0.23997 0.63279 0.07424 0.0
C7 C 0.17915 0.57149 -0.02961 0.0
C8 C 0.19997 0.65446 0.04526 0.0
C9 C 0.2221 0.48935 -0.02032 0.0
O10 O 0.22533 0.28999 0.10463 0.0
O11 O 0.1919 0.31697 0.02271 0.0
C12 C 0.17774 0.27704 0.06653 0.0
O13 O 0.32262 0.36367 -0.00063 0.0
O14 O 0.34895 0.28374 0.14982 0.0
O15 O 0.39339 0.29892 0.06607 0.0
O16 O 0.3213 0.36503 -0.00218 0.0
C17 C 0.33866 0.34649 -0.04953 0.0
O18 O 0.37643 0.51382 0.05483 0.0
O19 O 0.43475 0.4568 0.0745 0.0
O20 O 0.33607 0.41289 0.16592 0.0
O21 O 0.28306 0.49879 -0.03179 0.0
O22 O 0.18558 0.43457 0.01008 0.0
O23 O 0.25071 0.42758 0.1274 0.0
C24 C 0.33239 0.18664 0.10061 0.0
C25 C 0.27559 0.16028 0.06394 0.0
C26 C 0.30861 0.07162 0.11971 0.0
C27 C 0.23643 0.08991 0.05429 0.0
C28 C 0.34866 0.14199 0.12828 0.0
C29 C 0.25246 1.04522 0.08258 0.0
C30 C 0.37319 0.26036 0.11115 0.0
C31 C 0.43361 0.51322 0.06226 0.0
H32 H 0.2782 0.56293 0.0757 0.0
H33 H 0.14351 0.64345 -0.03174 0.0
H34 H 0.26528 0.65723 0.11364 0.0
H35 H 0.15561 0.54852 0.93009 0.0
H36 H 0.26227 0.19424 0.04214 0.0
H37 H 0.32309 1.0379 0.14033 0.0
H38 H 0.19452 0.07055 0.02422 0.0
H39 H 0.39286 0.16176 0.15586 0.0
Eu40 Eu 0.90859 0.2432 0.53335 0.0
Eu41 Eu 1.04749 0.31069 0.59111 0.0
C42 C 0.91974 0.25653 0.67157 0.0
C43 C 0.72947 0.188 0.49977 0.0
C44 C 0.72862 0.21762 0.55225 0.0
C45 C 0.6069 0.14082 0.49257 0.0
C46 C 0.66738 0.20924 0.57444 0.0
C47 C 0.66814 0.14943 0.47013 0.0
C48 C 0.60583 0.16973 0.54518 0.0
C49 C 0.79312 0.1919 0.47968 0.0
O50 O 0.99571 0.19516 0.60465 0.0
O51 O 0.93533 0.16173 0.52271 0.0
C52 C 0.96109 0.14757 0.56654 0.0
O53 O 1.01932 0.29245 0.49939 0.0
O54 O 0.12556 0.31877 0.64984 0.0
O55 O 0.15483 0.36324 0.5661 0.0
O56 O 1.01664 0.29114 0.49783 0.0
C57 C 1.05255 0.3085 0.45049 0.0
O58 O 0.92295 0.34623 0.55483 0.0
O59 O 1.03827 0.40456 0.57454 0.0
O60 O 0.98352 0.30587 0.66594 0.0
O61 O 0.84462 0.25288 0.46823 0.0
O62 O 0.81141 0.15539 0.51004 0.0
O63 O 0.88349 0.22051 0.6274 0.0
C64 C 0.20611 0.30223 0.60063 0.0
C65 C 0.17566 0.24543 0.56396 0.0
C66 C 0.29736 0.27846 0.6197 0.0
C67 C 0.20687 0.20627 0.55431 0.0
C68 C 0.26705 0.31852 0.62827 0.0
C69 C 0.26761 0.22231 0.58258 0.0
C70 C 0.17318 0.34302 0.61118 0.0
C71 C 0.9807 0.4034 0.56228 0.0
H72 H 0.77541 0.24714 0.57612 0.0
H73 H 0.56064 0.11421 0.46775 0.0
H74 H 0.66815 0.23418 0.61403 0.0
H75 H 0.66767 0.12627 0.42964 0.0
H76 H 0.12838 0.23211 0.54217 0.0
H77 H 0.34558 0.29295 0.64031 0.0
H78 H 0.18432 0.16436 0.52425 0.0
H79 H 0.29149 0.36272 0.65585 0.0
Eu80 Eu 0.72574 0.87836 0.03333 0.0
Eu81 Eu 0.7971 1.01726 0.0911 0.0
C82 C 0.72348 0.88952 0.17157 0.0
C83 C 0.60188 0.69922 -0.00025 0.0
C84 C 0.57094 0.69853 0.05194 0.0
C85 C 0.52698 0.57653 -0.00708 0.0
C86 C 0.51806 0.63732 0.07414 0.0
C87 C 0.57961 0.63775 -0.02956 0.0
C88 C 0.49649 0.57565 0.04522 0.0
C89 C 0.66166 0.76286 -0.02031 0.0
O90 O 0.86084 0.96546 0.10467 0.0
O91 O 0.83398 0.90518 0.02269 0.0
C92 C 0.87386 0.9309 0.06654 0.0
O93 O 0.7872 0.98909 -0.00062 0.0
O94 O 0.86713 0.09533 0.14982 0.0
O95 O 0.85185 0.1246 0.0661 0.0
O96 O 0.78584 0.98642 -0.00217 0.0
C97 C 0.80437 1.02233 -0.04951 0.0
O98 O 0.63705 0.89276 0.05457 0.0
O99 O 0.69399 1.00802 0.0746 0.0
O100 O 0.73794 0.95331 0.16594 0.0
O101 O 0.65221 0.81436 -0.03184 0.0
O102 O 0.71641 0.78115 0.01015 0.0
O103 O 0.72325 0.85327 0.1274 0.0
C104 C 0.96417 0.17592 0.10059 0.0
C105 C 0.99053 0.14554 0.06385 0.0
C106 C 1.07918 0.26713 0.11974 0.0
C107 C 1.06091 0.17677 0.0542 0.0
C108 C 1.00882 0.2368 0.1283 0.0
C109 C 0.10559 0.23745 0.08255 0.0
C110 C 0.89045 0.14296 0.11116 0.0
C111 C 0.63761 0.95048 0.06219 0.0
H112 H 0.58787 0.74543 0.07557 0.0
H113 H 0.50771 0.53014 -0.03166 0.0
H114 H 0.49352 0.63821 0.11348 0.0
H115 H 0.60267 0.63716 0.9302 0.0
H116 H 0.95658 0.09829 0.04201 0.0
H117 H 0.11291 0.31531 0.1404 0.0
H118 H 1.08028 0.15427 0.02409 0.0
H119 H 0.98904 0.26119 0.15594 0.0
Eu120 Eu 0.9077 0.69555 0.53333 0.0
Eu121 Eu 0.84019 0.76693 0.59109 0.0
C122 C 0.8943 0.69331 0.67156 0.0
C123 C 0.96295 0.57165 0.49976 0.0
C124 C 0.93288 0.54085 0.55203 0.0
C125 C 1.01057 0.49662 0.49284 0.0
C126 C 0.94122 0.48798 0.57424 0.0
C127 C 1.00197 0.54924 0.47036 0.0
C128 C 0.98116 0.46627 0.54522 0.0
C129 C 0.95908 0.63142 0.47969 0.0
O130 O 0.95572 0.83067 0.60465 0.0
O131 O 0.98915 0.80377 0.52269 0.0
C132 C 1.00331 0.84366 0.56653 0.0
O133 O 0.85845 0.75702 0.49937 0.0
O134 O 0.83213 0.83694 0.64981 0.0
O135 O 0.78761 0.8217 0.56608 0.0
O136 O 0.85976 0.75566 0.49781 0.0
C137 C 0.8424 0.77421 0.45048 0.0
O138 O 0.80463 0.60687 0.55464 0.0
O139 O 0.74631 0.66385 0.57455 0.0
O140 O 0.84497 0.70777 0.66592 0.0
O141 O 0.89812 0.62197 0.46818 0.0
O142 O 0.99555 0.68619 0.51011 0.0
O143 O 0.93033 0.69308 0.62739 0.0
C144 C 0.84862 0.93401 0.60059 0.0
C145 C 0.90538 0.96036 0.56388 0.0
C146 C 0.87242 1.04902 0.61973 0.0
C147 C 0.94453 1.03073 0.55423 0.0
C148 C 0.83237 0.97865 0.62829 0.0
C149 C 0.92852 0.07542 0.58256 0.0
C150 C 0.80785 0.86029 0.61115 0.0
C151 C 0.74746 0.60745 0.56219 0.0
H152 H 0.90304 0.55788 0.57573 0.0
H153 H 1.03754 0.47723 0.46819 0.0
H154 H 0.91593 0.46355 0.61365 0.0
H155 H 1.02549 0.57219 0.43005 0.0
H156 H 0.91868 0.92641 0.54205 0.0
H157 H 0.85796 0.08274 0.64038 0.0
H158 H 0.98641 1.05011 0.52413 0.0
H159 H 0.7882 0.95888 0.65591 0.0
Eu160 Eu 0.27245 0.87749 0.03334 0.0
Eu161 Eu 0.13355 0.80997 0.09111 0.0
C162 C 0.26131 0.86416 0.17156 0.0
C163 C 0.45157 0.93271 -0.00025 0.0
C164 C 0.4525 0.9033 0.05233 0.0
C165 C 0.5741 0.97969 -0.00761 0.0
C166 C 0.51375 0.91169 0.07449 0.0
C167 C 0.51284 0.97108 -0.03002 0.0
C168 C 0.57523 0.95099 0.0451 0.0
C169 C 0.38792 0.92879 -0.02034 0.0
O170 O 0.18527 0.9255 0.10465 0.0
O171 O 0.24572 0.95897 0.02272 0.0
C172 C 0.2199 0.97308 0.06653 0.0
O173 O 0.16172 0.82822 -0.00061 0.0
O174 O 1.05546 0.80185 0.14984 0.0
O175 O 1.02621 0.75738 0.06609 0.0
O176 O 0.1644 0.82954 -0.00217 0.0
C177 C 0.1285 0.81218 -0.04951 0.0
O178 O 0.25815 0.7745 0.05488 0.0
O179 O 0.14281 0.71613 0.07455 0.0
O180 O 0.19753 0.81482 0.16594 0.0
O181 O 0.33642 0.8678 -0.03177 0.0
O182 O 0.36963 0.96531 0.01002 0.0
O183 O 0.29755 0.9002 0.1274 0.0
C184 C 0.9749 0.81837 0.10061 0.0
C185 C 1.00532 0.87514 0.06391 0.0
C186 C 0.88369 0.84219 0.11973 0.0
C187 C 0.97412 0.91431 0.05425 0.0
C188 C 0.914 0.80213 0.1283 0.0
C189 C 0.91342 0.89831 0.08258 0.0
C190 C 1.00784 0.77759 0.11117 0.0
C191 C 0.2004 0.71731 0.06234 0.0
H192 H 0.40574 0.87393 0.07629 0.0
H193 H 0.62031 1.00612 -0.03251 0.0
H194 H 0.51303 0.8869 0.11416 0.0
H195 H 0.51326 0.99407 0.92943 0.0
H196 H 1.05258 0.88843 0.04208 0.0
H197 H 0.83551 0.82774 0.14038 0.0
H198 H 0.99664 0.95619 0.02417 0.0
H199 H 0.88959 0.75795 0.15591 0.0
Eu200 Eu 0.45531 0.2423 0.53334 0.0
Eu201 Eu 0.38394 0.10339 0.59111 0.0
C202 C 0.45753 0.23114 0.67157 0.0
C203 C 0.57918 0.42143 0.49975 0.0
C204 C 0.60974 0.42227 0.55218 0.0
C205 C 0.6545 0.54401 0.49257 0.0
C206 C 0.66261 0.48351 0.57436 0.0
C207 C 0.60185 0.48277 0.47014 0.0
C208 C 0.68458 0.54506 0.54513 0.0
C209 C 0.51943 0.35778 0.47968 0.0
O210 O 0.32016 0.15514 0.60466 0.0
O211 O 0.34708 0.21553 0.52271 0.0
C212 C 0.30717 0.18973 0.56653 0.0
O213 O 0.39386 0.13157 0.49939 0.0
O214 O 0.31394 1.0253 0.64982 0.0
O215 O 0.3292 0.99605 0.56609 0.0
O216 O 0.39521 0.13424 0.49784 0.0
C217 C 0.37668 0.09834 0.4505 0.0
O218 O 0.544 0.22794 0.5547 0.0
O219 O 0.48705 0.11265 0.57459 0.0
O220 O 0.44308 0.16735 0.66594 0.0
O221 O 0.5289 0.30629 0.4682 0.0
O222 O 0.46464 0.33948 0.51008 0.0
O223 O 0.45776 0.26739 0.6274 0.0
C224 C 0.21688 0.94473 0.60059 0.0
C225 C 0.19053 0.97512 0.56385 0.0
C226 C 0.10186 0.85355 0.61975 0.0
C227 C 0.12016 0.94391 0.5542 0.0
C228 C 0.17223 0.88386 0.62831 0.0
C229 C 1.07546 0.88324 0.58256 0.0
C230 C 0.2906 0.97768 0.61116 0.0
C231 C 0.54344 0.17021 0.56228 0.0
H232 H 0.59252 0.37547 0.57603 0.0
H233 H 0.67409 0.59029 0.46778 0.0
H234 H 0.68686 0.48273 0.61391 0.0
H235 H 0.57909 0.48326 0.4297 0.0
H236 H 0.22449 1.02236 0.54201 0.0
H237 H 1.06813 0.80538 0.64041 0.0
H238 H 0.10079 0.96641 0.52409 0.0
H239 H 0.19199 0.85947 0.65595 0.0
Eu240 Eu 0.72573 0.87751 0.36756 0.0
Eu241 Eu 0.79713 0.81002 0.30979 0.0
C242 C 0.72346 0.8641 0.22934 0.0
C243 C 0.60182 0.93273 0.40114 0.0
C244 C 0.57099 0.90261 0.34889 0.0
C245 C 0.52683 0.98041 0.40801 0.0
C246 C 0.51812 0.91095 0.32667 0.0
C247 C 0.57945 0.9718 0.4305 0.0
C248 C 0.49645 0.95095 0.35564 0.0
C249 C 0.6616 0.92887 0.42121 0.0
O250 O 0.86086 0.92555 0.29623 0.0
O251 O 0.83395 0.95897 0.3782 0.0
C252 C 0.87385 0.97313 0.33436 0.0
O253 O 0.78723 0.82827 0.40151 0.0
O254 O 0.86715 0.80197 0.25106 0.0
O255 O 0.85192 0.75746 0.33479 0.0
O256 O 0.78586 0.82958 0.40307 0.0
C257 C 0.80442 0.81223 0.4504 0.0
O258 O 0.63706 0.77444 0.34622 0.0
O259 O 0.69405 0.71614 0.32634 0.0
O260 O 0.73795 0.81479 0.23496 0.0
O261 O 0.65215 0.86792 0.43271 0.0
O262 O 0.71636 0.96535 0.3908 0.0
O263 O 0.72326 0.90015 0.2735 0.0
C264 C 0.96422 0.81847 0.30028 0.0
C265 C 0.99058 0.87527 0.33694 0.0
C266 C 1.07923 0.84222 0.2812 0.0
C267 C 1.06095 0.91442 0.3466 0.0
C268 C 1.00886 0.80218 0.27262 0.0
C269 C 0.10564 0.89837 0.31833 0.0
C270 C 0.8905 0.77769 0.28971 0.0
C271 C 0.63765 0.71728 0.33869 0.0
H272 H 0.588 0.87273 0.32522 0.0
H273 H 0.50748 1.00743 0.43263 0.0
H274 H 0.49367 0.88562 0.28727 0.0
H275 H 0.60242 0.99536 0.4708 0.0
H276 H 0.95662 0.88859 0.35874 0.0
H277 H 0.11295 0.82773 0.26059 0.0
H278 H 1.08032 0.95632 0.37667 0.0
H279 H 0.98909 0.75798 0.24504 0.0
Eu280 Eu 0.90854 0.69555 0.86755 0.0
Eu281 Eu 1.04744 0.76692 0.8098 0.0
C282 C 0.9197 0.69329 0.72933 0.0
C283 C 0.7294 0.57168 0.90111 0.0
C284 C 0.72846 0.54141 0.8485 0.0
C285 C 0.60689 0.49604 0.90852 0.0
C286 C 0.66721 0.48854 0.82634 0.0
C287 C 0.66814 0.5487 0.93092 0.0
C288 C 0.60574 0.46627 0.85577 0.0
C289 C 0.79304 0.63142 0.9212 0.0
O290 O 0.99565 0.83066 0.79623 0.0
O291 O 0.93532 0.80377 0.87819 0.0
C292 C 0.96106 0.84366 0.83435 0.0
O293 O 1.01926 0.75701 0.90152 0.0
O294 O 0.12552 0.83693 0.75108 0.0
O295 O 0.15478 0.82169 0.83481 0.0
O296 O 1.01659 0.75564 0.90307 0.0
C297 C 1.05249 0.7742 0.95041 0.0
O298 O 0.92291 0.60686 0.84619 0.0
O299 O 1.03821 0.66383 0.82633 0.0
O300 O 0.98349 0.70776 0.73496 0.0
O301 O 0.84453 0.62192 0.93267 0.0
O302 O 0.81136 0.68622 0.89083 0.0
O303 O 0.88345 0.6931 0.77349 0.0
C304 C 0.20608 0.934 0.80031 0.0
C305 C 0.17568 0.96035 0.83702 0.0
C306 C 0.29729 1.04901 0.78118 0.0
C307 C 0.20689 1.03072 0.84667 0.0
C308 C 0.26698 0.97865 0.77261 0.0
C309 C 0.26758 0.07542 0.81834 0.0
C310 C 0.17314 0.86028 0.78974 0.0
C311 C 0.98065 0.60743 0.83866 0.0
H312 H 0.7752 0.55885 0.82451 0.0
H313 H 0.5607 0.47619 0.93346 0.0
H314 H 0.66793 0.46452 0.78664 0.0
H315 H 0.66773 0.57122 -0.02849 0.0
H316 H 0.12842 0.92639 0.85885 0.0
H317 H 0.34548 0.08274 0.76053 0.0
H318 H 0.18438 1.05008 0.87677 0.0
H319 H 0.29138 0.95888 0.74499 0.0
Eu320 Eu 0.2734 0.8784 0.36755 0.0
Eu321 Eu 0.34089 1.01732 0.3098 0.0
C322 C 0.28674 0.88957 0.22934 0.0
C323 C 0.21822 0.69928 0.40113 0.0
C324 C 0.24788 0.69844 0.34867 0.0
C325 C 0.17099 0.57671 0.40831 0.0
C326 C 0.2395 0.6372 0.32648 0.0
C327 C 0.17961 0.63795 0.43076 0.0
C328 C 0.19995 0.57565 0.35572 0.0
C329 C 0.22212 0.76293 0.42122 0.0
O330 O 0.22536 0.96557 0.29626 0.0
O331 O 0.1919 0.9051 0.37817 0.0
C332 C 0.17778 0.93093 0.33438 0.0
O333 O 0.32264 0.98912 0.40151 0.0
O334 O 0.349 0.0954 0.25107 0.0
O335 O 0.39345 0.12465 0.33482 0.0
O336 O 0.32133 0.98644 0.40307 0.0
C337 C 0.33867 1.02234 0.45041 0.0
O338 O 0.37641 0.89275 0.34602 0.0
O339 O 0.43475 1.00809 0.32636 0.0
O340 O 0.33606 0.95336 0.23496 0.0
O341 O 0.28309 0.81443 0.43266 0.0
O342 O 0.18559 0.78121 0.39086 0.0
O343 O 0.2507 0.85331 0.2735 0.0
C344 C 0.33245 0.17594 0.30029 0.0
C345 C 0.27567 0.14551 0.33697 0.0
C346 C 0.30863 0.26715 0.28117 0.0
C347 C 0.2365 0.17671 0.34663 0.0
C348 C 0.3487 0.23685 0.2726 0.0
C349 C 0.25251 0.23742 0.31832 0.0
C350 C 0.37325 0.14302 0.28974 0.0
C351 C 0.43359 0.9505 0.33857 0.0
H352 H 0.27743 0.74524 0.32481 0.0
H353 H 0.14435 0.53044 0.43312 0.0
H354 H 0.26447 0.63798 0.2869 0.0
H355 H 0.15642 0.63747 0.47122 0.0
H356 H 0.26237 0.09825 0.35879 0.0
H357 H 0.3231 0.31535 0.26054 0.0
H358 H 0.19461 0.15418 0.37671 0.0
H359 H 0.39288 0.26127 0.245 0.0
Eu360 Eu 0.45528 0.24314 0.86757 0.0
Eu361 Eu 0.38389 0.31066 0.80978 0.0
C362 C 0.45755 0.25657 0.72934 0.0
C363 C 0.57919 0.18792 0.90115 0.0
C364 C 0.61013 0.21819 0.84897 0.0
C365 C 0.65409 0.14012 0.90794 0.0
C366 C 0.66301 0.20987 0.82675 0.0
C367 C 0.60146 0.14871 0.93043 0.0
C368 C 0.68458 0.16974 0.85565 0.0
C369 C 0.5194 0.19176 0.92121 0.0
O370 O 0.32014 0.19513 0.79624 0.0
O371 O 0.34706 0.16169 0.87821 0.0
C372 C 0.30715 0.14756 0.83438 0.0
O373 O 0.3938 0.2924 0.9015 0.0
O374 O 0.31387 0.31871 0.75105 0.0
O375 O 0.32912 0.36323 0.83478 0.0
O376 O 0.39517 0.29109 0.90305 0.0
C377 C 0.37662 0.30845 0.95039 0.0
O378 O 0.54396 0.34624 0.84633 0.0
O379 O 0.48699 0.40453 0.82627 0.0
O380 O 0.44305 0.30587 0.73495 0.0
O381 O 0.52883 0.2527 0.93274 0.0
O382 O 0.46465 0.15529 0.89077 0.0
O383 O 0.45777 0.22053 0.7735 0.0
C384 C 0.21681 0.30222 0.80028 0.0
C385 C 0.19046 0.24542 0.83694 0.0
C386 C 0.10179 0.27846 0.7812 0.0
C387 C 0.12009 0.20627 0.8466 0.0
C388 C 0.17216 0.31851 0.77263 0.0
C389 C 1.07539 0.22231 0.81833 0.0
C390 C 0.29053 0.34299 0.78971 0.0
C391 C 0.54338 0.40338 0.83867 0.0
H392 H 0.5932 0.24817 0.82536 0.0
H393 H 0.67335 0.11298 0.9325 0.0
H394 H 0.68755 0.23532 0.78742 0.0
H395 H 0.5784 0.12503 -0.02933 0.0
H396 H 0.22441 0.2321 0.85874 0.0
H397 H 1.06807 0.29295 0.76059 0.0
H398 H 0.10072 0.16436 0.87667 0.0
H399 H 0.19193 0.36271 0.74504 0.0
Eu400 Eu 0.27251 0.42512 0.36756 0.0
Eu401 Eu 0.13359 0.35375 0.3098 0.0
C402 C 0.26134 0.42736 0.22934 0.0
C403 C 0.45164 0.54899 0.40115 0.0
C404 C 0.45244 0.57965 0.34878 0.0
C405 C 0.57425 0.62422 0.40824 0.0
C406 C 0.51367 0.63252 0.32659 0.0
C407 C 0.51302 0.57157 0.43068 0.0
C408 C 0.57525 0.65439 0.35575 0.0
C409 C 0.388 0.48924 0.42122 0.0
O410 O 0.18534 0.28997 0.29624 0.0
O411 O 0.24573 0.3169 0.37819 0.0
C412 C 0.21993 0.27699 0.33437 0.0
O413 O 0.16178 0.36366 0.40152 0.0
O414 O 1.0555 0.28375 0.25108 0.0
O415 O 1.02625 0.29901 0.33482 0.0
O416 O 0.16445 0.36503 0.40307 0.0
C417 C 0.12855 0.34647 0.45041 0.0
O418 O 0.25815 0.51381 0.3462 0.0
O419 O 0.14285 0.45686 0.32632 0.0
O420 O 0.19754 0.41289 0.23496 0.0
O421 O 0.3365 0.4987 0.43271 0.0
O422 O 0.3697 0.43446 0.3908 0.0
O423 O 0.29759 0.42756 0.2735 0.0
C424 C 0.97493 0.1867 0.30031 0.0
C425 C 1.00531 0.16035 0.33705 0.0
C426 C 0.88374 0.07168 0.28114 0.0
C427 C 0.9741 0.08998 0.3467 0.0
C428 C 0.91405 0.14205 0.27258 0.0
C429 C 0.91343 1.04528 0.31834 0.0
C430 C 1.00788 0.26042 0.28974 0.0
C431 C 0.20042 0.51325 0.33863 0.0
H432 H 0.40561 0.56249 0.32498 0.0
H433 H 0.62056 0.64373 0.43299 0.0
H434 H 0.51286 0.65684 0.2871 0.0
H435 H 0.51353 0.54874 0.47108 0.0
H436 H 1.05255 0.1943 0.3589 0.0
H437 H 0.83557 1.03795 0.26047 0.0
H438 H 0.99659 0.07061 0.37681 0.0
H439 H 0.88967 0.16182 0.24494 0.0
Eu440 Eu 0.90764 0.24228 0.86756 0.0
Eu441 Eu 0.84014 0.10337 0.8098 0.0
C442 C 0.8943 0.23112 0.72934 0.0
C443 C 0.96285 0.4214 0.90114 0.0
C444 C 0.93318 0.42225 0.84868 0.0
C445 C 1.0101 0.54398 0.90832 0.0
C446 C 0.94156 0.48349 0.82649 0.0
C447 C 1.00148 0.48273 0.93076 0.0
C448 C 0.98112 0.54503 0.85574 0.0
C449 C 0.95894 0.35775 0.92123 0.0
O450 O 0.95567 0.15511 0.79627 0.0
O451 O 0.98914 0.21557 0.87818 0.0
C452 C 1.00325 0.18974 0.83438 0.0
O453 O 0.8584 0.13156 0.90152 0.0
O454 O 0.83203 1.02528 0.75107 0.0
O455 O 0.78756 0.99603 0.83482 0.0
O456 O 0.85971 0.13423 0.90307 0.0
C457 C 0.84238 0.09833 0.95041 0.0
O458 O 0.80463 0.22794 0.84603 0.0
O459 O 0.74628 0.1126 0.82638 0.0
O460 O 0.84497 0.16734 0.73496 0.0
O461 O 0.89796 0.30625 0.93267 0.0
O462 O 0.99546 0.33947 0.89086 0.0
O463 O 0.93035 0.26737 0.7735 0.0
C464 C 0.84855 0.94473 0.80029 0.0
C465 C 0.90531 0.97513 0.83701 0.0
C466 C 0.87239 0.85354 0.78114 0.0
C467 C 0.94447 0.94392 0.84666 0.0
C468 C 0.83233 0.88385 0.77258 0.0
C469 C 0.92849 0.88324 0.81832 0.0
C470 C 0.80777 0.97767 0.78974 0.0
C471 C 0.74745 0.17019 0.83858 0.0
H472 H 0.90362 0.37545 0.82483 0.0
H473 H 1.03675 0.59025 0.93313 0.0
H474 H 0.91658 0.48272 0.78693 0.0
H475 H 1.02468 0.48321 -0.02877 0.0
H476 H 0.91859 1.02237 0.85885 0.0
H477 H 0.85794 0.80536 0.76048 0.0
H478 H 0.98634 0.96642 0.87677 0.0
H479 H 0.78816 0.85945 0.74495 0.0
loop_
_geom_bond_atom_site_label_1
_geom_bond_atom_site_label_2
_geom_bond_distance
_geom_bond_site_symmetry_2
_ccdc_geom_bond_type
Eu0 C9 2.828 . S
Eu0 O11 2.392 . S
Eu0 O13 2.418 1_554 S
Eu0 O18 2.373 . S
Eu0 O21 2.488 1_554 S
Eu0 O22 2.471 . S
Eu0 O23 2.349 . S
Eu1 O10 2.373 . S
Eu1 O14 2.488 . S
Eu1 O15 2.471 . S
Eu1 O16 2.349 . S
Eu1 O19 2.392 . S
Eu1 O20 2.418 . S
Eu1 C30 2.828 . S
C2 O20 1.244 . S
C2 O23 1.265 . S
C3 C4 1.379 . S
C3 C7 1.373 1_554 S
C3 C9 1.505 . S
C4 C3 1.379 . S
C4 C6 1.369 . S
C4 H32 0.930 . S
C5 C7 1.383 . S
C5 C8 1.382 1_556 S
C5 H33 0.930 . S
C6 C4 1.369 . S
C6 C8 1.392 . S
C6 H34 0.930 . S
C7 C3 1.373 1_556 S
C7 C5 1.383 . S
C7 H35 0.931 . S
C8 C5 1.382 1_554 S
C8 C6 1.392 . S
C9 Eu0 2.828 . S
C9 C3 1.505 . S
C9 O21 1.249 1_554 S
C9 O22 1.244 . S
O10 Eu1 2.373 . S
O10 C12 1.258 . S
O11 Eu0 2.392 . S
O11 C12 1.242 . S
C12 O10 1.258 . S
C12 O11 1.242 . S
O13 Eu0 2.418 1_556 S
O13 C17 1.244 . S
O14 Eu1 2.488 . S
O14 C30 1.249 . S
O15 Eu1 2.471 . S
O15 C30 1.244 . S
O16 Eu1 2.349 . S
O16 C17 1.265 1_554 S
C17 O13 1.244 . S
C17 O16 1.265 1_556 S
O18 Eu0 2.373 . S
O18 C31 1.258 . S
O19 Eu1 2.392 . S
O19 C31 1.242 . S
O20 Eu1 2.418 . S
O20 C2 1.244 . S
O21 Eu0 2.488 1_556 S
O21 C9 1.249 1_556 S
O22 Eu0 2.471 . S
O22 C9 1.244 . S
O23 Eu0 2.349 . S
O23 C2 1.265 . S
C24 C25 1.379 . S
C24 C28 1.373 . S
C24 C30 1.505 . S
C25 C24 1.379 . S
C25 C27 1.369 . S
C25 H36 0.930 . S
C26 C28 1.383 . S
C26 C29 1.382 1_545 S
C26 H37 0.929 . S
C27 C25 1.369 . S
C27 C29 1.392 1_545 S
C27 H38 0.930 1_545 S
C28 C24 1.373 . S
C28 C26 1.383 . S
C28 H39 0.931 . S
C29 C26 1.382 1_565 S
C29 C27 1.392 1_565 S
C30 Eu1 2.828 . S
C30 O14 1.249 . S
C30 O15 1.244 . S
C30 C24 1.505 . S
C31 O18 1.258 . S
C31 O19 1.242 . S
H32 C4 0.930 . S
H33 C5 0.930 . S
H34 C6 0.930 . S
H35 C7 0.931 . S
H36 C25 0.930 . S
H37 C26 0.929 . S
H38 C27 0.930 1_565 S
H39 C28 0.931 . S
Eu40 C49 2.828 . S
Eu40 O51 2.392 . S
Eu40 O53 2.418 . S
Eu40 O58 2.373 . S
Eu40 O61 2.488 . S
Eu40 O62 2.471 . S
Eu40 O63 2.349 . S
Eu41 O50 2.373 . S
Eu41 O54 2.488 1_655 S
Eu41 O55 2.471 1_655 S
Eu41 O56 2.349 . S
Eu41 O59 2.392 . S
Eu41 O60 2.418 . S
Eu41 C70 2.828 1_655 S
C42 O60 1.244 . S
C42 O63 1.265 . S
C43 C44 1.379 . S
C43 C47 1.373 . S
C43 C49 1.505 . S
C44 C43 1.379 . S
C44 C46 1.369 . S
C44 H72 0.930 . S
C45 C47 1.383 . S
C45 C48 1.382 . S
C45 H73 0.930 . S
C46 C44 1.369 . S
C46 C48 1.392 . S
C46 H74 0.930 . S
C47 C43 1.373 . S
C47 C45 1.383 . S
C47 H75 0.931 . S
C48 C45 1.382 . S
C48 C46 1.392 . S
C49 Eu40 2.828 . S
C49 C43 1.505 . S
C49 O61 1.249 . S
C49 O62 1.244 . S
O50 Eu41 2.373 . S
O50 C52 1.258 . S
O51 Eu40 2.392 . S
O51 C52 1.242 . S
C52 O50 1.258 . S
C52 O51 1.242 . S
O53 Eu40 2.418 . S
O53 C57 1.244 . S
O54 Eu41 2.488 1_455 S
O54 C70 1.249 . S
O55 Eu41 2.471 1_455 S
O55 C70 1.244 . S
O56 Eu41 2.349 . S
O56 C57 1.265 . S
C57 O53 1.244 . S
C57 O56 1.265 . S
O58 Eu40 2.373 . S
O58 C71 1.258 . S
O59 Eu41 2.392 . S
O59 C71 1.242 . S
O60 Eu41 2.418 . S
O60 C42 1.244 . S
O61 Eu40 2.488 . S
O61 C49 1.249 . S
O62 Eu40 2.471 . S
O62 C49 1.244 . S
O63 Eu40 2.349 . S
O63 C42 1.265 . S
C64 C65 1.379 . S
C64 C68 1.373 . S
C64 C70 1.505 . S
C65 C64 1.379 . S
C65 C67 1.369 . S
C65 H76 0.930 . S
C66 C68 1.383 . S
C66 C69 1.382 . S
C66 H77 0.930 . S
C67 C65 1.369 . S
C67 C69 1.392 . S
C67 H78 0.930 . S
C68 C64 1.373 . S
C68 C66 1.383 . S
C68 H79 0.931 . S
C69 C66 1.382 . S
C69 C67 1.392 . S
C70 Eu41 2.828 1_455 S
C70 O54 1.249 . S
C70 O55 1.244 . S
C70 C64 1.505 . S
C71 O58 1.258 . S
C71 O59 1.242 . S
H72 C44 0.930 . S
H73 C45 0.930 . S
H74 C46 0.930 . S
H75 C47 0.931 . S
H76 C65 0.930 . S
H77 C66 0.930 . S
H78 C67 0.930 . S
H79 C68 0.931 . S
Eu80 C89 2.828 . S
Eu80 O91 2.392 . S
Eu80 O93 2.418 1_554 S
Eu80 O98 2.373 . S
Eu80 O101 2.488 1_554 S
Eu80 O102 2.471 . S
Eu80 O103 2.349 . S
Eu81 O90 2.373 . S
Eu81 O94 2.488 1_565 S
Eu81 O95 2.471 1_565 S
Eu81 O96 2.349 . S
Eu81 O99 2.392 . S
Eu81 O100 2.418 . S
Eu81 C110 2.828 1_565 S
C82 O100 1.244 . S
C82 O103 1.265 . S
C83 C84 1.379 . S
C83 C87 1.373 1_554 S
C83 C89 1.505 . S
C84 C83 1.379 . S
C84 C86 1.369 . S
C84 H112 0.930 . S
C85 C87 1.383 . S
C85 C88 1.382 1_556 S
C85 H113 0.930 . S
C86 C84 1.369 . S
C86 C88 1.392 . S
C86 H114 0.930 . S
C87 C83 1.373 1_556 S
C87 C85 1.383 . S
C87 H115 0.931 . S
C88 C85 1.382 1_554 S
C88 C86 1.392 . S
C89 Eu80 2.828 . S
C89 C83 1.505 . S
C89 O101 1.249 1_554 S
C89 O102 1.244 . S
O90 Eu81 2.373 . S
O90 C92 1.258 . S
O91 Eu80 2.392 . S
O91 C92 1.242 . S
C92 O90 1.258 . S
C92 O91 1.242 . S
O93 Eu80 2.418 1_556 S
O93 C97 1.244 . S
O94 Eu81 2.488 1_545 S
O94 C110 1.249 . S
O95 Eu81 2.471 1_545 S
O95 C110 1.244 . S
O96 Eu81 2.349 . S
O96 C97 1.265 1_554 S
C97 O93 1.244 . S
C97 O96 1.265 1_556 S
O98 Eu80 2.373 . S
O98 C111 1.258 . S
O99 Eu81 2.392 . S
O99 C111 1.242 . S
O100 Eu81 2.418 . S
O100 C82 1.244 . S
O101 Eu80 2.488 1_556 S
O101 C89 1.249 1_556 S
O102 Eu80 2.471 . S
O102 C89 1.244 . S
O103 Eu80 2.349 . S
O103 C82 1.265 . S
C104 C105 1.379 . S
C104 C108 1.373 . S
C104 C110 1.505 . S
C105 C104 1.379 . S
C105 C107 1.369 . S
C105 H116 0.930 . S
C106 C108 1.383 . S
C106 C109 1.382 1_655 S
C106 H117 0.931 1_655 S
C107 C105 1.369 . S
C107 C109 1.392 1_655 S
C107 H118 0.930 1_655 S
C108 C104 1.373 . S
C108 C106 1.383 . S
C108 H119 0.931 . S
C109 C106 1.382 1_455 S
C109 C107 1.392 1_455 S
C110 Eu81 2.828 1_545 S
C110 O94 1.249 . S
C110 O95 1.244 . S
C110 C104 1.505 . S
C111 O98 1.258 . S
C111 O99 1.242 . S
H112 C84 0.930 . S
H113 C85 0.930 . S
H114 C86 0.930 . S
H115 C87 0.931 . S
H116 C105 0.930 . S
H117 C106 0.931 1_455 S
H118 C107 0.930 1_455 S
H119 C108 0.931 . S
Eu120 C129 2.828 . S
Eu120 O131 2.392 . S
Eu120 O133 2.418 . S
Eu120 O138 2.373 . S
Eu120 O141 2.488 . S
Eu120 O142 2.471 . S
Eu120 O143 2.349 . S
Eu121 O130 2.373 . S
Eu121 O134 2.488 . S
Eu121 O135 2.471 . S
Eu121 O136 2.349 . S
Eu121 O139 2.392 . S
Eu121 O140 2.418 . S
Eu121 C150 2.828 . S
C122 O140 1.244 . S
C122 O143 1.265 . S
C123 C124 1.379 . S
C123 C127 1.373 . S
C123 C129 1.505 . S
C124 C123 1.379 . S
C124 C126 1.369 . S
C124 H152 0.930 . S
C125 C127 1.383 . S
C125 C128 1.382 . S
C125 H153 0.930 . S
C126 C124 1.369 . S
C126 C128 1.392 . S
C126 H154 0.930 . S
C127 C123 1.373 . S
C127 C125 1.383 . S
C127 H155 0.931 . S
C128 C125 1.382 . S
C128 C126 1.392 . S
C129 Eu120 2.828 . S
C129 C123 1.505 . S
C129 O141 1.249 . S
C129 O142 1.244 . S
O130 Eu121 2.373 . S
O130 C132 1.258 . S
O131 Eu120 2.392 . S
O131 C132 1.242 . S
C132 O130 1.258 . S
C132 O131 1.242 . S
O133 Eu120 2.418 . S
O133 C137 1.244 . S
O134 Eu121 2.488 . S
O134 C150 1.249 . S
O135 Eu121 2.471 . S
O135 C150 1.244 . S
O136 Eu121 2.349 . S
O136 C137 1.265 . S
C137 O133 1.244 . S
C137 O136 1.265 . S
O138 Eu120 2.373 . S
O138 C151 1.258 . S
O139 Eu121 2.392 . S
O139 C151 1.242 . S
O140 Eu121 2.418 . S
O140 C122 1.244 . S
O141 Eu120 2.488 . S
O141 C129 1.249 . S
O142 Eu120 2.471 . S
O142 C129 1.244 . S
O143 Eu120 2.349 . S
O143 C122 1.265 . S
C144 C145 1.379 . S
C144 C148 1.373 . S
C144 C150 1.505 . S
C145 C144 1.379 . S
C145 C147 1.369 . S
C145 H156 0.930 . S
C146 C148 1.383 . S
C146 C149 1.382 1_565 S
C146 H157 0.929 . S
C147 C145 1.369 . S
C147 C149 1.392 1_565 S
C147 H158 0.930 1_565 S
C148 C144 1.373 . S
C148 C146 1.383 . S
C148 H159 0.931 . S
C149 C146 1.382 1_545 S
C149 C147 1.392 1_545 S
C150 Eu121 2.828 . S
C150 O134 1.249 . S
C150 O135 1.244 . S
C150 C144 1.505 . S
C151 O138 1.258 . S
C151 O139 1.242 . S
H152 C124 0.930 . S
H153 C125 0.930 . S
H154 C126 0.930 . S
H155 C127 0.931 . S
H156 C145 0.930 . S
H157 C146 0.929 . S
H158 C147 0.930 1_545 S
H159 C148 0.931 . S
Eu160 C169 2.828 . S
Eu160 O171 2.392 . S
Eu160 O173 2.418 1_554 S
Eu160 O178 2.373 . S
Eu160 O181 2.488 1_554 S
Eu160 O182 2.471 . S
Eu160 O183 2.349 . S
Eu161 O170 2.373 . S
Eu161 O174 2.488 1_455 S
Eu161 O175 2.471 1_455 S
Eu161 O176 2.349 . S
Eu161 O179 2.392 . S
Eu161 O180 2.418 . S
Eu161 C190 2.828 1_455 S
C162 O180 1.244 . S
C162 O183 1.265 . S
C163 C164 1.379 . S
C163 C167 1.373 1_554 S
C163 C169 1.505 . S
C164 C163 1.379 . S
C164 C166 1.369 . S
C164 H192 0.930 . S
C165 C167 1.383 . S
C165 C168 1.382 1_556 S
C165 H193 0.930 . S
C166 C164 1.369 . S
C166 C168 1.392 . S
C166 H194 0.930 . S
C167 C163 1.373 1_556 S
C167 C165 1.383 . S
C167 H195 0.931 . S
C168 C165 1.382 1_554 S
C168 C166 1.392 . S
C169 Eu160 2.828 . S
C169 C163 1.505 . S
C169 O181 1.249 1_554 S
C169 O182 1.244 . S
O170 Eu161 2.373 . S
O170 C172 1.258 . S
O171 Eu160 2.392 . S
O171 C172 1.242 . S
C172 O170 1.258 . S
C172 O171 1.242 . S
O173 Eu160 2.418 1_556 S
O173 C177 1.244 . S
O174 Eu161 2.488 1_655 S
O174 C190 1.249 . S
O175 Eu161 2.471 1_655 S
O175 C190 1.244 . S
O176 Eu161 2.349 . S
O176 C177 1.265 1_554 S
C177 O173 1.244 . S
C177 O176 1.265 1_556 S
O178 Eu160 2.373 . S
O178 C191 1.258 . S
O179 Eu161 2.392 . S
O179 C191 1.242 . S
O180 Eu161 2.418 . S
O180 C162 1.244 . S
O181 Eu160 2.488 1_556 S
O181 C169 1.249 1_556 S
O182 Eu160 2.471 . S
O182 C169 1.244 . S
O183 Eu160 2.349 . S
O183 C162 1.265 . S
C184 C185 1.379 . S
C184 C188 1.373 . S
C184 C190 1.505 . S
C185 C184 1.379 . S
C185 C187 1.369 . S
C185 H196 0.930 . S
C186 C188 1.383 . S
C186 C189 1.382 . S
C186 H197 0.930 . S
C187 C185 1.369 . S
C187 C189 1.392 . S
C187 H198 0.930 . S
C188 C184 1.373 . S
C188 C186 1.383 . S
C188 H199 0.931 . S
C189 C186 1.382 . S
C189 C187 1.392 . S
C190 Eu161 2.828 1_655 S
C190 O174 1.249 . S
C190 O175 1.244 . S
C190 C184 1.505 . S
C191 O178 1.258 . S
C191 O179 1.242 . S
H192 C164 0.930 . S
H193 C165 0.930 . S
H194 C166 0.930 . S
H195 C167 0.931 . S
H196 C185 0.930 . S
H197 C186 0.930 . S
H198 C187 0.930 . S
H199 C188 0.931 . S
Eu200 C209 2.828 . S
Eu200 O211 2.392 . S
Eu200 O213 2.418 . S
Eu200 O218 2.373 . S
Eu200 O221 2.488 . S
Eu200 O222 2.471 . S
Eu200 O223 2.349 . S
Eu201 O210 2.373 . S
Eu201 O214 2.488 1_545 S
Eu201 O215 2.471 1_545 S
Eu201 O216 2.349 . S
Eu201 O219 2.392 . S
Eu201 O220 2.418 . S
Eu201 C230 2.828 1_545 S
C202 O220 1.244 . S
C202 O223 1.265 . S
C203 C204 1.379 . S
C203 C207 1.373 . S
C203 C209 1.505 . S
C204 C203 1.379 . S
C204 C206 1.369 . S
C204 H232 0.930 . S
C205 C207 1.383 . S
C205 C208 1.382 . S
C205 H233 0.930 . S
C206 C204 1.369 . S
C206 C208 1.392 . S
C206 H234 0.930 . S
C207 C203 1.373 . S
C207 C205 1.383 . S
C207 H235 0.931 . S
C208 C205 1.382 . S
C208 C206 1.392 . S
C209 Eu200 2.828 . S
C209 C203 1.505 . S
C209 O221 1.249 . S
C209 O222 1.244 . S
O210 Eu201 2.373 . S
O210 C212 1.258 . S
O211 Eu200 2.392 . S
O211 C212 1.242 . S
C212 O210 1.258 . S
C212 O211 1.242 . S
O213 Eu200 2.418 . S
O213 C217 1.244 . S
O214 Eu201 2.488 1_565 S
O214 C230 1.249 . S
O215 Eu201 2.471 1_565 S
O215 C230 1.244 . S
O216 Eu201 2.349 . S
O216 C217 1.265 . S
C217 O213 1.244 . S
C217 O216 1.265 . S
O218 Eu200 2.373 . S
O218 C231 1.258 . S
O219 Eu201 2.392 . S
O219 C231 1.242 . S
O220 Eu201 2.418 . S
O220 C202 1.244 . S
O221 Eu200 2.488 . S
O221 C209 1.249 . S
O222 Eu200 2.471 . S
O222 C209 1.244 . S
O223 Eu200 2.349 . S
O223 C202 1.265 . S
C224 C225 1.379 . S
C224 C228 1.373 . S
C224 C230 1.505 . S
C225 C224 1.379 . S
C225 C227 1.369 . S
C225 H236 0.930 . S
C226 C228 1.383 . S
C226 C229 1.382 1_455 S
C226 H237 0.931 1_455 S
C227 C225 1.369 . S
C227 C229 1.392 1_455 S
C227 H238 0.930 1_455 S
C228 C224 1.373 . S
C228 C226 1.383 . S
C228 H239 0.931 . S
C229 C226 1.382 1_655 S
C229 C227 1.392 1_655 S
C230 Eu201 2.828 1_565 S
C230 O214 1.249 . S
C230 O215 1.244 . S
C230 C224 1.505 . S
C231 O218 1.258 . S
C231 O219 1.242 . S
H232 C204 0.930 . S
H233 C205 0.930 . S
H234 C206 0.930 . S
H235 C207 0.931 . S
H236 C225 0.930 . S
H237 C226 0.931 1_655 S
H238 C227 0.930 1_655 S
H239 C228 0.931 . S
Eu240 C249 2.828 . S
Eu240 O251 2.392 . S
Eu240 O253 2.418 . S
Eu240 O258 2.373 . S
Eu240 O261 2.488 . S
Eu240 O262 2.471 . S
Eu240 O263 2.349 . S
Eu241 O250 2.373 . S
Eu241 O254 2.488 . S
Eu241 O255 2.471 . S
Eu241 O256 2.349 . S
Eu241 O259 2.392 . S
Eu241 O260 2.418 . S
Eu241 C270 2.828 . S
C242 O260 1.244 . S
C242 O263 1.265 . S
C243 C244 1.379 . S
C243 C247 1.373 . S
C243 C249 1.505 . S
C244 C243 1.379 . S
C244 C246 1.369 . S
C244 H272 0.930 . S
C245 C247 1.383 . S
C245 C248 1.382 . S
C245 H273 0.930 . S
C246 C244 1.369 . S
C246 C248 1.392 . S
C246 H274 0.930 . S
C247 C243 1.373 . S
C247 C245 1.383 . S
C247 H275 0.931 . S
C248 C245 1.382 . S
C248 C246 1.392 . S
C249 Eu240 2.828 . S
C249 C243 1.505 . S
C249 O261 1.249 . S
C249 O262 1.244 . S
O250 Eu241 2.373 . S
O250 C252 1.258 . S
O251 Eu240 2.392 . S
O251 C252 1.242 . S
C252 O250 1.258 . S
C252 O251 1.242 . S
O253 Eu240 2.418 . S
O253 C257 1.244 . S
O254 Eu241 2.488 . S
O254 C270 1.249 . S
O255 Eu241 2.471 . S
O255 C270 1.244 . S
O256 Eu241 2.349 . S
O256 C257 1.265 . S
C257 O253 1.244 . S
C257 O256 1.265 . S
O258 Eu240 2.373 . S
O258 C271 1.258 . S
O259 Eu241 2.392 . S
O259 C271 1.242 . S
O260 Eu241 2.418 . S
O260 C242 1.244 . S
O261 Eu240 2.488 . S
O261 C249 1.249 . S
O262 Eu240 2.471 . S
O262 C249 1.244 . S
O263 Eu240 2.349 . S
O263 C242 1.265 . S
C264 C265 1.379 . S
C264 C268 1.373 . S
C264 C270 1.505 . S
C265 C264 1.379 . S
C265 C267 1.369 . S
C265 H276 0.930 . S
C266 C268 1.383 . S
C266 C269 1.382 1_655 S
C266 H277 0.929 . S
C267 C265 1.369 . S
C267 C269 1.392 1_655 S
C267 H278 0.930 1_655 S
C268 C264 1.373 . S
C268 C266 1.383 . S
C268 H279 0.931 . S
C269 C266 1.382 1_455 S
C269 C267 1.392 1_455 S
C270 Eu241 2.828 . S
C270 O254 1.249 . S
C270 O255 1.244 . S
C270 C264 1.505 . S
C271 O258 1.258 . S
C271 O259 1.242 . S
H272 C244 0.930 . S
H273 C245 0.930 . S
H274 C246 0.930 . S
H275 C247 0.931 . S
H276 C265 0.930 . S
H277 C266 0.929 . S
H278 C267 0.930 1_455 S
H279 C268 0.931 . S
Eu280 C289 2.828 . S
Eu280 O291 2.392 . S
Eu280 O293 2.418 1_556 S
Eu280 O298 2.373 . S
Eu280 O301 2.488 1_556 S
Eu280 O302 2.471 . S
Eu280 O303 2.349 . S
Eu281 O290 2.373 . S
Eu281 O294 2.488 1_655 S
Eu281 O295 2.471 1_655 S
Eu281 O296 2.349 . S
Eu281 O299 2.392 . S
Eu281 O300 2.418 . S
Eu281 C310 2.828 1_655 S
C282 O300 1.244 . S
C282 O303 1.265 . S
C283 C284 1.379 . S
C283 C287 1.373 1_556 S
C283 C289 1.505 . S
C284 C283 1.379 . S
C284 C286 1.369 . S
C284 H312 0.930 . S
C285 C287 1.383 . S
C285 C288 1.382 1_554 S
C285 H313 0.930 . S
C286 C284 1.369 . S
C286 C288 1.392 . S
C286 H314 0.930 . S
C287 C283 1.373 1_554 S
C287 C285 1.383 . S
C287 H315 0.931 . S
C288 C285 1.382 1_556 S
C288 C286 1.392 . S
C289 Eu280 2.828 . S
C289 C283 1.505 . S
C289 O301 1.249 1_556 S
C289 O302 1.244 . S
O290 Eu281 2.373 . S
O290 C292 1.258 . S
O291 Eu280 2.392 . S
O291 C292 1.242 . S
C292 O290 1.258 . S
C292 O291 1.242 . S
O293 Eu280 2.418 1_554 S
O293 C297 1.244 . S
O294 Eu281 2.488 1_455 S
O294 C310 1.249 . S
O295 Eu281 2.471 1_455 S
O295 C310 1.244 . S
O296 Eu281 2.349 . S
O296 C297 1.265 1_556 S
C297 O293 1.244 . S
C297 O296 1.265 1_554 S
O298 Eu280 2.373 . S
O298 C311 1.258 . S
O299 Eu281 2.392 . S
O299 C311 1.242 . S
O300 Eu281 2.418 . S
O300 C282 1.244 . S
O301 Eu280 2.488 1_554 S
O301 C289 1.249 1_554 S
O302 Eu280 2.471 . S
O302 C289 1.244 . S
O303 Eu280 2.349 . S
O303 C282 1.265 . S
C304 C305 1.379 . S
C304 C308 1.373 . S
C304 C310 1.505 . S
C305 C304 1.379 . S
C305 C307 1.369 . S
C305 H316 0.930 . S
C306 C308 1.383 . S
C306 C309 1.382 1_565 S
C306 H317 0.931 1_565 S
C307 C305 1.369 . S
C307 C309 1.392 1_565 S
C307 H318 0.930 1_565 S
C308 C304 1.373 . S
C308 C306 1.383 . S
C308 H319 0.931 . S
C309 C306 1.382 1_545 S
C309 C307 1.392 1_545 S
C310 Eu281 2.828 1_455 S
C310 O294 1.249 . S
C310 O295 1.244 . S
C310 C304 1.505 . S
C311 O298 1.258 . S
C311 O299 1.242 . S
H312 C284 0.930 . S
H313 C285 0.930 . S
H314 C286 0.930 . S
H315 C287 0.931 . S
H316 C305 0.930 . S
H317 C306 0.931 1_545 S
H318 C307 0.930 1_545 S
H319 C308 0.931 . S
Eu320 C329 2.828 . S
Eu320 O331 2.392 . S
Eu320 O333 2.418 . S
Eu320 O338 2.373 . S
Eu320 O341 2.488 . S
Eu320 O342 2.471 . S
Eu320 O343 2.349 . S
Eu321 O330 2.373 . S
Eu321 O334 2.488 1_565 S
Eu321 O335 2.471 1_565 S
Eu321 O336 2.349 . S
Eu321 O339 2.392 . S
Eu321 O340 2.418 . S
Eu321 C350 2.828 1_565 S
C322 O340 1.244 . S
C322 O343 1.265 . S
C323 C324 1.379 . S
C323 C327 1.373 . S
C323 C329 1.505 . S
C324 C323 1.379 . S
C324 C326 1.369 . S
C324 H352 0.930 . S
C325 C327 1.383 . S
C325 C328 1.382 . S
C325 H353 0.930 . S
C326 C324 1.369 . S
C326 C328 1.392 . S
C326 H354 0.930 . S
C327 C323 1.373 . S
C327 C325 1.383 . S
C327 H355 0.931 . S
C328 C325 1.382 . S
C328 C326 1.392 . S
C329 Eu320 2.828 . S
C329 C323 1.505 . S
C329 O341 1.249 . S
C329 O342 1.244 . S
O330 Eu321 2.373 . S
O330 C332 1.258 . S
O331 Eu320 2.392 . S
O331 C332 1.242 . S
C332 O330 1.258 . S
C332 O331 1.242 . S
O333 Eu320 2.418 . S
O333 C337 1.244 . S
O334 Eu321 2.488 1_545 S
O334 C350 1.249 . S
O335 Eu321 2.471 1_545 S
O335 C350 1.244 . S
O336 Eu321 2.349 . S
O336 C337 1.265 . S
C337 O333 1.244 . S
C337 O336 1.265 . S
O338 Eu320 2.373 . S
O338 C351 1.258 . S
O339 Eu321 2.392 . S
O339 C351 1.242 . S
O340 Eu321 2.418 . S
O340 C322 1.244 . S
O341 Eu320 2.488 . S
O341 C329 1.249 . S
O342 Eu320 2.471 . S
O342 C329 1.244 . S
O343 Eu320 2.349 . S
O343 C322 1.265 . S
C344 C345 1.379 . S
C344 C348 1.373 . S
C344 C350 1.505 . S
C345 C344 1.379 . S
C345 C347 1.369 . S
C345 H356 0.930 . S
C346 C348 1.383 . S
C346 C349 1.382 . S
C346 H357 0.930 . S
C347 C345 1.369 . S
C347 C349 1.392 . S
C347 H358 0.930 . S
C348 C344 1.373 . S
C348 C346 1.383 . S
C348 H359 0.931 . S
C349 C346 1.382 . S
C349 C347 1.392 . S
C350 Eu321 2.828 1_545 S
C350 O334 1.249 . S
C350 O335 1.244 . S
C350 C344 1.505 . S
C351 O338 1.258 . S
C351 O339 1.242 . S
H352 C324 0.930 . S
H353 C325 0.930 . S
H354 C326 0.930 . S
H355 C327 0.931 . S
H356 C345 0.930 . S
H357 C346 0.930 . S
H358 C347 0.930 . S
H359 C348 0.931 . S
Eu360 C369 2.828 . S
Eu360 O371 2.392 . S
Eu360 O373 2.418 1_556 S
Eu360 O378 2.373 . S
Eu360 O381 2.488 1_556 S
Eu360 O382 2.471 . S
Eu360 O383 2.349 . S
Eu361 O370 2.373 . S
Eu361 O374 2.488 . S
Eu361 O375 2.471 . S
Eu361 O376 2.349 . S
Eu361 O379 2.392 . S
Eu361 O380 2.418 . S
Eu361 C390 2.828 . S
C362 O380 1.244 . S
C362 O383 1.265 . S
C363 C364 1.379 . S
C363 C367 1.373 1_556 S
C363 C369 1.505 . S
C364 C363 1.379 . S
C364 C366 1.369 . S
C364 H392 0.930 . S
C365 C367 1.383 . S
C365 C368 1.382 1_554 S
C365 H393 0.930 . S
C366 C364 1.369 . S
C366 C368 1.392 . S
C366 H394 0.930 . S
C367 C363 1.373 1_554 S
C367 C365 1.383 . S
C367 H395 0.931 . S
C368 C365 1.382 1_556 S
C368 C366 1.392 . S
C369 Eu360 2.828 . S
C369 C363 1.505 . S
C369 O381 1.249 1_556 S
C369 O382 1.244 . S
O370 Eu361 2.373 . S
O370 C372 1.258 . S
O371 Eu360 2.392 . S
O371 C372 1.242 . S
C372 O370 1.258 . S
C372 O371 1.242 . S
O373 Eu360 2.418 1_554 S
O373 C377 1.244 . S
O374 Eu361 2.488 . S
O374 C390 1.249 . S
O375 Eu361 2.471 . S
O375 C390 1.244 . S
O376 Eu361 2.349 . S
O376 C377 1.265 1_556 S
C377 O373 1.244 . S
C377 O376 1.265 1_554 S
O378 Eu360 2.373 . S
O378 C391 1.258 . S
O379 Eu361 2.392 . S
O379 C391 1.242 . S
O380 Eu361 2.418 . S
O380 C362 1.244 . S
O381 Eu360 2.488 1_554 S
O381 C369 1.249 1_554 S
O382 Eu360 2.471 . S
O382 C369 1.244 . S
O383 Eu360 2.349 . S
O383 C362 1.265 . S
C384 C385 1.379 . S
C384 C388 1.373 . S
C384 C390 1.505 . S
C385 C384 1.379 . S
C385 C387 1.369 . S
C385 H396 0.930 . S
C386 C388 1.383 . S
C386 C389 1.382 1_455 S
C386 H397 0.929 . S
C387 C385 1.369 . S
C387 C389 1.392 1_455 S
C387 H398 0.930 1_455 S
C388 C384 1.373 . S
C388 C386 1.383 . S
C388 H399 0.931 . S
C389 C386 1.382 1_655 S
C389 C387 1.392 1_655 S
C390 Eu361 2.828 . S
C390 O374 1.249 . S
C390 O375 1.244 . S
C390 C384 1.505 . S
C391 O378 1.258 . S
C391 O379 1.242 . S
H392 C364 0.930 . S
H393 C365 0.930 . S
H394 C366 0.930 . S
H395 C367 0.931 . S
H396 C385 0.930 . S
H397 C386 0.929 . S
H398 C387 0.930 1_655 S
H399 C388 0.931 . S
Eu400 C409 2.828 . S
Eu400 O411 2.392 . S
Eu400 O413 2.418 . S
Eu400 O418 2.373 . S
Eu400 O421 2.488 . S
Eu400 O422 2.471 . S
Eu400 O423 2.349 . S
Eu401 O410 2.373 . S
Eu401 O414 2.488 1_455 S
Eu401 O415 2.471 1_455 S
Eu401 O416 2.349 . S
Eu401 O419 2.392 . S
Eu401 O420 2.418 . S
Eu401 C430 2.828 1_455 S
C402 O420 1.244 . S
C402 O423 1.265 . S
C403 C404 1.379 . S
C403 C407 1.373 . S
C403 C409 1.505 . S
C404 C403 1.379 . S
C404 C406 1.369 . S
C404 H432 0.930 . S
C405 C407 1.383 . S
C405 C408 1.382 . S
C405 H433 0.930 . S
C406 C404 1.369 . S
C406 C408 1.392 . S
C406 H434 0.930 . S
C407 C403 1.373 . S
C407 C405 1.383 . S
C407 H435 0.931 . S
C408 C405 1.382 . S
C408 C406 1.392 . S
C409 Eu400 2.828 . S
C409 C403 1.505 . S
C409 O421 1.249 . S
C409 O422 1.244 . S
O410 Eu401 2.373 . S
O410 C412 1.258 . S
O411 Eu400 2.392 . S
O411 C412 1.242 . S
C412 O410 1.258 . S
C412 O411 1.242 . S
O413 Eu400 2.418 . S
O413 C417 1.244 . S
O414 Eu401 2.488 1_655 S
O414 C430 1.249 . S
O415 Eu401 2.471 1_655 S
O415 C430 1.244 . S
O416 Eu401 2.349 . S
O416 C417 1.265 . S
C417 O413 1.244 . S
C417 O416 1.265 . S
O418 Eu400 2.373 . S
O418 C431 1.258 . S
O419 Eu401 2.392 . S
O419 C431 1.242 . S
O420 Eu401 2.418 . S
O420 C402 1.244 . S
O421 Eu400 2.488 . S
O421 C409 1.249 . S
O422 Eu400 2.471 . S
O422 C409 1.244 . S
O423 Eu400 2.349 . S
O423 C402 1.265 . S
C424 C425 1.379 . S
C424 C428 1.373 . S
C424 C430 1.505 . S
C425 C424 1.379 . S
C425 C427 1.369 . S
C425 H436 0.930 . S
C426 C428 1.383 . S
C426 C429 1.382 1_545 S
C426 H437 0.931 1_545 S
C427 C425 1.369 . S
C427 C429 1.392 1_545 S
C427 H438 0.930 1_545 S
C428 C424 1.373 . S
C428 C426 1.383 . S
C428 H439 0.931 . S
C429 C426 1.382 1_565 S
C429 C427 1.392 1_565 S
C430 Eu401 2.828 1_655 S
C430 O414 1.249 . S
C430 O415 1.244 . S
C430 C424 1.505 . S
C431 O418 1.258 . S
C431 O419 1.242 . S
H432 C404 0.930 . S
H433 C405 0.930 . S
H434 C406 0.930 . S
H435 C407 0.931 . S
H436 C425 0.930 . S
H437 C426 0.931 1_565 S
H438 C427 0.930 1_565 S
H439 C428 0.931 . S
Eu440 C449 2.828 . S
Eu440 O451 2.392 . S
Eu440 O453 2.418 1_556 S
Eu440 O458 2.373 . S
Eu440 O461 2.488 1_556 S
Eu440 O462 2.471 . S
Eu440 O463 2.349 . S
Eu441 O450 2.373 . S
Eu441 O454 2.488 1_545 S
Eu441 O455 2.471 1_545 S
Eu441 O456 2.349 . S
Eu441 O459 2.392 . S
Eu441 O460 2.418 . S
Eu441 C470 2.828 1_545 S
C442 O460 1.244 . S
C442 O463 1.265 . S
C443 C444 1.379 . S
C443 C447 1.373 1_556 S
C443 C449 1.505 . S
C444 C443 1.379 . S
C444 C446 1.369 . S
C444 H472 0.930 . S
C445 C447 1.383 . S
C445 C448 1.382 1_554 S
C445 H473 0.930 . S
C446 C444 1.369 . S
C446 C448 1.392 . S
C446 H474 0.930 . S
C447 C443 1.373 1_554 S
C447 C445 1.383 . S
C447 H475 0.931 . S
C448 C445 1.382 1_556 S
C448 C446 1.392 . S
C449 Eu440 2.828 . S
C449 C443 1.505 . S
C449 O461 1.249 1_556 S
C449 O462 1.244 . S
O450 Eu441 2.373 . S
O450 C452 1.258 . S
O451 Eu440 2.392 . S
O451 C452 1.242 . S
C452 O450 1.258 . S
C452 O451 1.242 . S
O453 Eu440 2.418 1_554 S
O453 C457 1.244 . S
O454 Eu441 2.488 1_565 S
O454 C470 1.249 . S
O455 Eu441 2.471 1_565 S
O455 C470 1.244 . S
O456 Eu441 2.349 . S
O456 C457 1.265 1_556 S
C457 O453 1.244 . S
C457 O456 1.265 1_554 S
O458 Eu440 2.373 . S
O458 C471 1.258 . S
O459 Eu441 2.392 . S
O459 C471 1.242 . S
O460 Eu441 2.418 . S
O460 C442 1.244 . S
O461 Eu440 2.488 1_554 S
O461 C449 1.249 1_554 S
O462 Eu440 2.471 . S
O462 C449 1.244 . S
O463 Eu440 2.349 . S
O463 C442 1.265 . S
C464 C465 1.379 . S
C464 C468 1.373 . S
C464 C470 1.505 . S
C465 C464 1.379 . S
C465 C467 1.369 . S
C465 H476 0.930 . S
C466 C468 1.383 . S
C466 C469 1.382 . S
C466 H477 0.930 . S
C467 C465 1.369 . S
C467 C469 1.392 . S
C467 H478 0.930 . S
C468 C464 1.373 . S
C468 C466 1.383 . S
C468 H479 0.931 . S
C469 C466 1.382 . S
C469 C467 1.392 . S
C470 Eu441 2.828 1_565 S
C470 O454 1.249 . S
C470 O455 1.244 . S
C470 C464 1.505 . S
C471 O458 1.258 . S
C471 O459 1.242 . S
H472 C444 0.930 . S
H473 C445 0.930 . S
H474 C446 0.930 . S
H475 C447 0.931 . S
H476 C465 0.930 . S
H477 C466 0.930 . S
H478 C467 0.930 . S
H479 C468 0.931 . S
C172 C29 2.163 . S
C212 C69 2.162 . S
C109 C12 2.162 . S
C149 C52 2.163 . S
C189 C92 2.162 . S
C132 C229 2.162 . S
C332 C269 2.163 . S
C309 C372 2.162 . S
C412 C349 2.162 . S
C389 C452 2.163 . S
C429 C252 2.162 . S
C292 C469 2.162 . S
C191 C8 2.827 . S
C48 C231 2.828 . S
C88 C31 2.829 . S
C128 C71 2.827 . S
C111 C168 2.828 . S
C151 C208 2.829 . S
C351 C248 2.827 . S
C288 C391 2.829 . S
C328 C431 2.828 . S
C471 C368 2.827 . S
C408 C271 2.829 . S
C311 C448 2.828 . S
C402 C2 1.672 . S
C42 C442 1.672 . S
C82 C242 1.672 . S
C122 C282 1.672 . S
C162 C322 1.672 . S
C362 C202 1.672 . S
C377 C17 4.558 1_554 S
C417 C57 4.559 1_455 S
C97 C457 4.559 1_566 S
C137 C257 4.558 . S
C297 C177 4.559 1_654 S
C337 C217 4.559 1_565 S
