# Generated by pormake.
# Topology bcg, (8)-cn, num edge types: 1
# Building blocks:
#     Node 0, Type 0, BuildingBlock: TAGTUT_clean_sbu_1, # of connection points: 8
#     Node 1, Type 0, BuildingBlock: TAGTUT_clean_sbu_1, # of connection points: 8
#     Node 2, Type 0, BuildingBlock: TAGTUT_clean_sbu_1, # of connection points: 8
#     Node 3, Type 0, BuildingBlock: TAGTUT_clean_sbu_1, # of connection points: 8
#     Edge 4, Type (0, 0), BuildingBlock: TEMPAE_clean_linker_10, # of connection points: 2
#     Edge 5, Type (0, 0), BuildingBlock: TEMPAE_clean_linker_10, # of connection points: 2
#     Edge 6, Type (0, 0), BuildingBlock: TEMPAE_clean_linker_10, # of connection points: 2
#     Edge 7, Type (0, 0), BuildingBlock: TEMPAE_clean_linker_10, # of connection points: 2
#     Edge 8, Type (0, 0), BuildingBlock: TEMPAE_clean_linker_10, # of connection points: 2
#     Edge 9, Type (0, 0), BuildingBlock: TEMPAE_clean_linker_10, # of connection points: 2
#     Edge 10, Type (0, 0), BuildingBlock: TEMPAE_clean_linker_10, # of connection points: 2
#     Edge 11, Type (0, 0), BuildingBlock: TEMPAE_clean_linker_10, # of connection points: 2
#     Edge 12, Type (0, 0), BuildingBlock: TEMPAE_clean_linker_10, # of connection points: 2
#     Edge 13, Type (0, 0), BuildingBlock: TEMPAE_clean_linker_10, # of connection points: 2
#     Edge 14, Type (0, 0), BuildingBlock: TEMPAE_clean_linker_10, # of connection points: 2
#     Edge 15, Type (0, 0), BuildingBlock: TEMPAE_clean_linker_10, # of connection points: 2
#     Edge 16, Type (0, 0), BuildingBlock: TEMPAE_clean_linker_10, # of connection points: 2
#     Edge 17, Type (0, 0), BuildingBlock: TEMPAE_clean_linker_10, # of connection points: 2
#     Edge 18, Type (0, 0), BuildingBlock: TEMPAE_clean_linker_10, # of connection points: 2
#     Edge 19, Type (0, 0), BuildingBlock: TEMPAE_clean_linker_10, # of connection points: 2
# Relax obj value: 0.095
# Max RMSD: 0.205
# Mean RMSD: 0.205
data_MOF--net-bcg--node1-TAGTUT_clean_sbu_1--edge1-TEMPAE_clean_linker_10
_symmetry_space_group_name_H-M    P1
_symmetry_Int_Tables_number       1
_symmetry_cell_setting            triclinic
loop_
_symmetry_equiv_pos_as_xyz
'x, y, z'
_cell_length_a     15.534769
_cell_length_b     26.965296
_cell_length_c     33.765061
_cell_angle_alpha  83.704487
_cell_angle_beta   89.986029
_cell_angle_gamma 89.988127
loop_
_atom_site_label
_atom_site_type_symbol
_atom_site_fract_x
_atom_site_fract_y
_atom_site_fract_z
_atom_type_partial_charge
C0 C 0.21846 0.25557 0.149 0.0
C1 C 0.43928 0.28651 0.08168 0.0
C2 C 0.26516 0.39338 0.97105 0.0
Mg3 Mg 0.29788 0.21009 0.07645 0.0
O4 O 0.22747 0.259 0.04925 0.0
Mg5 Mg 0.23627 0.32931 0.06192 0.0
Mg6 Mg 0.24678 0.27177 0.99077 0.0
O7 O 0.26641 0.28377 0.93217 0.0
Mg8 Mg 0.1919 0.32958 0.90446 0.0
Mg9 Mg 0.26322 0.21271 0.92047 0.0
C10 C 0.22508 0.14917 0.00933 0.0
C11 C 0.43691 0.23615 0.96982 0.0
O12 O 0.20493 0.2973 0.12747 0.0
O13 O 0.25216 0.21759 0.13531 0.0
O14 O 0.38004 0.31987 0.07915 0.0
O15 O 0.42409 0.2415 0.07523 0.0
O16 O 0.25432 0.1475 0.04504 0.0
O17 O 0.22434 0.19018 0.9862 0.0
C18 C 0.0603 0.31163 0.0123 0.0
O19 O 0.10584 0.28955 0.98807 0.0
O20 O 0.09285 0.32987 0.04259 0.0
O21 O 0.29423 0.24399 0.85509 0.0
O22 O 0.23933 0.32198 0.84561 0.0
O23 O 0.11922 0.21743 0.90363 0.0
C24 C 0.27753 0.28473 0.83285 0.0
O25 O 0.06811 0.29434 0.90708 0.0
O26 O 0.23225 0.39263 0.9361 0.0
C27 C 0.05666 0.24859 0.90175 0.0
O28 O 0.27111 0.35332 -0.00465 0.0
O29 O 0.38651 0.25575 -0.00647 0.0
O30 O 0.40802 0.21541 0.93994 0.0
C31 C 0.71409 0.74977 0.15041 0.0
C32 C 0.9361 0.78233 0.08406 0.0
C33 C 0.76273 0.89567 0.97609 0.0
Mg34 Mg 0.79364 0.70715 0.07658 0.0
O35 O 0.72496 0.75775 0.05022 0.0
Mg36 Mg 0.73351 0.827 0.06507 0.0
Mg37 Mg 0.74466 0.77355 -0.00807 0.0
O38 O 0.76427 0.7885 0.93341 0.0
Mg39 Mg 0.6913 0.83592 0.9064 0.0
Mg40 Mg 0.76033 0.71828 0.91974 0.0
C41 C 0.72153 0.65078 0.00689 0.0
C42 C 0.93462 0.7398 0.96934 0.0
O43 O 0.70159 0.79227 0.12984 0.0
O44 O 0.74725 0.71227 0.1358 0.0
O45 O 0.87715 0.81585 0.08217 0.0
O46 O 0.92056 0.73771 0.07661 0.0
O47 O 0.74954 0.64659 0.04292 0.0
O48 O 0.72315 0.6928 0.98509 0.0
C49 C 0.55797 0.81206 0.01445 0.0
O50 O 0.60375 0.79101 0.9897 0.0
O51 O 0.59014 0.82888 0.04544 0.0
O52 O 0.79095 0.75182 0.85501 0.0
O53 O 0.73912 0.83053 0.84701 0.0
O54 O 0.61596 0.72411 0.90378 0.0
C55 C 0.77606 0.79334 0.83352 0.0
O56 O 0.56686 0.80128 0.90825 0.0
O57 O 0.73157 0.89691 0.94062 0.0
C58 C 0.55413 0.75572 0.90262 0.0
O59 O 0.76796 0.85435 -0.00103 0.0
O60 O 0.88463 0.75789 -0.00593 0.0
O61 O 0.9052 0.72046 0.93887 0.0
C62 C 0.21714 0.76314 0.33809 0.0
C63 C 0.43838 0.73236 0.40513 0.0
C64 C 0.26445 0.62565 0.51625 0.0
Mg65 Mg 0.29707 0.80923 0.41031 0.0
O66 O 0.22781 0.76004 0.43795 0.0
Mg67 Mg 0.23535 0.68971 0.42535 0.0
Mg68 Mg 0.24685 0.7472 0.49647 0.0
O69 O 0.26534 0.73515 0.55521 0.0
Mg70 Mg 0.1905 0.68939 0.58288 0.0
Mg71 Mg 0.26152 0.80628 0.56668 0.0
C72 C 0.22427 0.8696 0.47766 0.0
C73 C 0.43651 0.78224 0.51833 0.0
O74 O 0.20389 0.7215 0.35978 0.0
O75 O 0.2507 0.80127 0.35159 0.0
O76 O 0.37908 0.69903 0.408 0.0
O77 O 0.42338 0.77754 0.41128 0.0
O78 O 0.25276 0.87191 0.44176 0.0
O79 O 0.22553 0.82855 0.50072 0.0
C80 C 0.05993 0.7081 0.47509 0.0
O81 O 0.10598 0.73023 0.49904 0.0
O82 O 0.09186 0.68948 0.44483 0.0
O83 O 0.29087 0.77546 0.63221 0.0
O84 O 0.23702 0.69727 0.64193 0.0
O85 O 0.11693 0.80175 0.58273 0.0
C86 C 0.27446 0.73482 0.6546 0.0
O87 O 0.06643 0.72459 0.57986 0.0
O88 O 0.23182 0.62636 0.55128 0.0
C89 C 0.05454 0.77048 0.58469 0.0
O90 O 0.2701 0.6657 0.49194 0.0
O91 O 0.38691 0.76273 0.49421 0.0
O92 O 0.40662 0.80306 0.548 0.0
C93 C 0.71513 0.26884 0.33654 0.0
C94 C 0.93733 0.23635 0.4028 0.0
C95 C 0.76425 0.12557 0.51208 0.0
Mg96 Mg 0.79547 0.31239 0.4097 0.0
O97 O 0.72691 0.26213 0.43645 0.0
Mg98 Mg 0.7348 0.19251 0.42231 0.0
Mg99 Mg 0.74652 0.24734 0.49474 0.0
O100 O 0.76542 0.2334 0.55332 0.0
Mg101 Mg 0.69048 0.18697 0.58014 0.0
Mg102 Mg 0.7613 0.30393 0.56627 0.0
C103 C 0.72284 0.36999 0.47859 0.0
C104 C 0.93616 0.28171 0.51719 0.0
O105 O 0.70248 0.22653 0.35738 0.0
O106 O 0.74868 0.30644 0.35079 0.0
O107 O 0.87829 0.20287 0.40501 0.0
O108 O 0.922 0.28118 0.40982 0.0
O109 O 0.75092 0.37369 0.44259 0.0
O110 O 0.7248 0.32827 0.50076 0.0
C111 C 0.55961 0.20867 0.47276 0.0
O112 O 0.60568 0.23008 0.49714 0.0
O113 O 0.59149 0.19115 0.44201 0.0
O114 O 0.79122 0.27104 0.63116 0.0
O115 O 0.73754 0.19275 0.63946 0.0
O116 O 0.61677 0.29879 0.58223 0.0
C117 C 0.77527 0.22978 0.6528 0.0
O118 O 0.56654 0.22196 0.57763 0.0
O119 O 0.73091 0.12525 0.54705 0.0
C120 C 0.55445 0.26752 0.58335 0.0
O121 O 0.77049 0.16623 0.4885 0.0
O122 O 0.8865 0.26312 0.4926 0.0
O123 O 0.90634 0.30144 0.5474 0.0
C124 C 0.59423 0.21724 0.95884 0.0
C125 C 0.52999 0.24546 0.97497 0.0
C126 C 0.6819 0.22821 0.96437 0.0
C127 C 0.70481 0.26819 0.98639 0.0
C128 C 0.6401 0.29704 0.00207 0.0
C129 C 0.55405 0.28579 -0.00433 0.0
C130 C 0.7499 0.19752 0.94641 0.0
C131 C 0.66149 0.33989 0.02577 0.0
C132 C 0.92321 0.27327 0.03563 0.0
C133 C 0.96697 0.30712 0.00844 0.0
C134 C 0.83835 0.25929 0.02827 0.0
C135 C 0.79623 0.28052 -0.00671 0.0
C136 C 0.83935 0.31624 0.96649 0.0
C137 C 0.92525 0.32834 0.97396 0.0
C138 C 0.79383 0.22171 0.05776 0.0
C139 C 0.79434 0.34186 0.93024 0.0
H140 H 0.57613 0.18675 0.94215 0.0
H141 H 0.50519 0.30957 0.0065 0.0
H142 H 0.78376 0.2211 0.9223 0.0
H143 H 0.79876 0.18438 0.96913 0.0
H144 H 0.72221 0.16472 0.93373 0.0
H145 H 0.60318 0.36037 0.03388 0.0
H146 H 0.69543 0.32562 0.05361 0.0
H147 H 0.70542 0.3666 0.00863 0.0
H148 H 0.95683 0.25594 0.06172 0.0
H149 H 0.96019 0.3539 0.95272 0.0
H150 H 0.76952 0.1901 0.04249 0.0
H151 H 0.73737 0.2394 0.07046 0.0
H152 H 0.83685 0.20689 0.08256 0.0
H153 H 0.76856 0.31365 0.91181 0.0
H154 H 0.83756 0.36774 0.91171 0.0
H155 H 0.73862 0.36355 0.93955 0.0
C156 C 0.05238 0.78757 -0.00311 0.0
C157 C 0.02774 0.74931 0.9741 0.0
C158 C 0.13863 0.79887 0.00279 0.0
C159 C 0.20288 0.77219 0.98456 0.0
C160 C 0.1791 0.73489 0.95996 0.0
C161 C 0.09139 0.72364 0.95521 0.0
C162 C 0.16075 0.83905 0.02908 0.0
C163 C 0.24494 0.70584 0.93908 0.0
C164 C 0.42333 0.83295 0.97686 0.0
C165 C 0.46476 0.80799 0.01003 0.0
C166 C 0.33769 0.82167 0.96813 0.0
C167 C 0.29438 0.78334 -0.00763 0.0
C168 C 0.33656 0.7579 0.02575 0.0
C169 C 0.42121 0.77093 0.03443 0.0
C170 C 0.29348 0.85037 0.93298 0.0
C171 C 0.29288 0.71619 0.05167 0.0
H172 H 0.00386 0.80963 0.00989 0.0
H173 H 0.07296 0.69476 0.93692 0.0
H174 H 0.19549 0.8222 0.05597 0.0
H175 H 0.2041 0.86723 0.01319 0.0
H176 H 0.10275 0.85855 0.03883 0.0
H177 H 0.22334 0.70141 0.90829 0.0
H178 H 0.30951 0.72342 0.93751 0.0
H179 H 0.25058 0.66788 0.95526 0.0
H180 H 0.45843 0.86063 0.95747 0.0
H181 H 0.45493 0.75048 0.0592 0.0
H182 H 0.23879 0.87193 0.94347 0.0
H183 H 0.26644 0.82407 0.91316 0.0
H184 H 0.33767 0.87677 0.91552 0.0
H185 H 0.23125 0.72957 0.0632 0.0
H186 H 0.33349 0.7012 0.07732 0.0
H187 H 0.27749 0.68537 0.03357 0.0
C188 C 0.59297 0.7998 0.53216 0.0
C189 C 0.52985 0.77309 0.51384 0.0
C190 C 0.68092 0.78885 0.52769 0.0
C191 C 0.70546 0.75082 0.50393 0.0
C192 C 0.64179 0.72329 0.48615 0.0
C193 C 0.55532 0.73423 0.49185 0.0
C194 C 0.74618 0.81891 0.548 0.0
C195 C 0.66482 0.68247 0.46063 0.0
C196 C 0.92401 0.74976 0.45445 0.0
C197 C 0.96681 0.71292 0.4794 0.0
C198 C 0.83967 0.76368 0.46291 0.0
C199 C 0.79712 0.73944 0.49668 0.0
C200 C 0.83979 0.70148 0.52157 0.0
C201 C 0.92507 0.68923 0.51299 0.0
C202 C 0.79655 0.8049 0.43622 0.0
C203 C 0.79514 0.67401 0.55715 0.0
H204 H 0.57393 0.82921 0.54981 0.0
H205 H 0.50731 0.7114 0.47934 0.0
H206 H 0.811 0.80163 0.54993 0.0
H207 H 0.75136 0.85649 0.53114 0.0
H208 H 0.72431 0.82416 0.57859 0.0
H209 H 0.60723 0.66244 0.45113 0.0
H210 H 0.69965 0.69879 0.4336 0.0
H211 H 0.70844 0.65488 0.47701 0.0
H212 H 0.95805 0.7693 0.42936 0.0
H213 H 0.95967 0.66178 0.5328 0.0
H214 H 0.78072 0.83621 0.45374 0.0
H215 H 0.73516 0.79124 0.42466 0.0
H216 H 0.8377 0.81927 0.41059 0.0
H217 H 0.76781 0.70109 0.57623 0.0
H218 H 0.83911 0.64814 0.57527 0.0
H219 H 0.74062 0.65201 0.54704 0.0
C220 C 0.09265 0.29832 0.53164 0.0
C221 C 0.02946 0.27257 0.51254 0.0
C222 C 0.18055 0.28733 0.52706 0.0
C223 C 0.20499 0.25024 0.50238 0.0
C224 C 0.14123 0.22362 0.48382 0.0
C225 C 0.05481 0.23457 0.48963 0.0
C226 C 0.24578 0.31631 0.54832 0.0
C227 C 0.16413 0.18384 0.45729 0.0
C228 C 0.42382 0.25104 0.45301 0.0
C229 C 0.46648 0.21334 0.47715 0.0
C230 C 0.33941 0.26456 0.46172 0.0
C231 C 0.29663 0.23905 0.4949 0.0
C232 C 0.33913 0.20021 0.51893 0.0
C233 C 0.4245 0.18836 0.51015 0.0
C234 C 0.29649 0.30671 0.43596 0.0
C235 C 0.2942 0.17139 0.55382 0.0
H236 H 0.07372 0.327 0.55004 0.0
H237 H 0.00672 0.2124 0.47649 0.0
H238 H 0.22456 0.31926 0.57941 0.0
H239 H 0.311 0.29957 0.54916 0.0
H240 H 0.24969 0.35482 0.53302 0.0
H241 H 0.10651 0.16408 0.44749 0.0
H242 H 0.19852 0.20112 0.43044 0.0
H243 H 0.2081 0.15586 0.47296 0.0
H244 H 0.45802 0.27152 0.4284 0.0
H245 H 0.45897 0.16021 0.52937 0.0
H246 H 0.28095 0.33729 0.45428 0.0
H247 H 0.23496 0.29367 0.42406 0.0
H248 H 0.33766 0.3219 0.41057 0.0
H249 H 0.26624 0.19758 0.5735 0.0
H250 H 0.33817 0.14509 0.57153 0.0
H251 H 0.24012 0.14967 0.54298 0.0
C252 C 0.67568 0.56213 0.00278 0.0
C253 C 0.65832 0.61332 -0.00331 0.0
C254 C 0.61008 0.52693 -0.00126 0.0
C255 C 0.52424 0.54343 0.991 0.0
C256 C 0.50658 0.59526 0.98554 0.0
C257 C 0.57409 0.62942 0.98741 0.0
C258 C 0.63273 0.47221 0.00343 0.0
C259 C 0.41603 0.61483 0.9788 0.0
C260 C 0.36302 0.46179 0.94394 0.0
C261 C 0.32173 0.43632 0.97724 0.0
C262 C 0.42951 0.49593 0.94818 0.0
C263 C 0.4534 0.5069 0.98667 0.0
C264 C 0.40958 0.48304 0.02047 0.0
C265 C 0.3457 0.44706 0.01541 0.0
C266 C 0.47769 0.51794 0.9115 0.0
C267 C 0.43111 0.49465 0.06203 0.0
H268 H 0.74036 0.54969 0.01079 0.0
H269 H 0.5599 0.66906 0.98392 0.0
H270 H 0.61172 0.45517 0.03323 0.0
H271 H 0.59941 0.45237 0.98073 0.0
H272 H 0.70317 0.46617 0.00089 0.0
H273 H 0.41198 0.65571 0.98042 0.0
H274 H 0.39292 0.60707 0.94903 0.0
H275 H 0.3717 0.59573 0.00134 0.0
H276 H 0.34714 0.4528 0.91429 0.0
H277 H 0.31518 0.42703 0.04126 0.0
H278 H 0.54549 0.50485 0.91332 0.0
H279 H 0.47912 0.55919 0.90983 0.0
H280 H 0.44891 0.50725 0.88354 0.0
H281 H 0.49259 0.47625 0.07169 0.0
H282 H 0.38049 0.48105 0.08381 0.0
H283 H 0.43938 0.53543 0.06278 0.0
C284 C 0.57529 0.391 0.49814 0.0
C285 C 0.6592 0.4074 0.48854 0.0
C286 C 0.5075 0.42489 0.50035 0.0
C287 C 0.52456 0.47677 0.49483 0.0
C288 C 0.61004 0.49361 0.48661 0.0
C289 C 0.67596 0.45865 0.48231 0.0
C290 C 0.4173 0.40498 0.50759 0.0
C291 C 0.63192 0.54845 0.48194 0.0
C292 C 0.34405 0.57209 0.47153 0.0
C293 C 0.32111 0.58285 0.50983 0.0
C294 C 0.40826 0.53645 0.46609 0.0
C295 C 0.45349 0.513 0.49961 0.0
C296 C 0.43055 0.52392 0.53824 0.0
C297 C 0.36369 0.55771 0.54289 0.0
C298 C 0.42856 0.5247 0.42443 0.0
C299 C 0.47989 0.5021 0.57462 0.0
H300 H 0.56155 0.3513 0.50174 0.0
H301 H 0.74042 0.4713 0.47409 0.0
H302 H 0.39461 0.41292 0.53739 0.0
H303 H 0.37237 0.42372 0.48516 0.0
H304 H 0.41368 0.36405 0.50622 0.0
H305 H 0.70252 0.55488 0.48253 0.0
H306 H 0.60667 0.56608 0.45307 0.0
H307 H 0.60155 0.56749 0.50592 0.0
H308 H 0.31245 0.59187 0.44586 0.0
H309 H 0.3485 0.56672 0.57261 0.0
H310 H 0.43632 0.48388 0.42371 0.0
H311 H 0.49002 0.54282 0.41439 0.0
H312 H 0.37753 0.5384 0.4029 0.0
H313 H 0.48052 0.46081 0.57658 0.0
H314 H 0.45251 0.51328 0.60271 0.0
H315 H 0.54787 0.51476 0.57213 0.0
C316 C 0.17265 0.06641 0.99047 0.0
C317 C 0.15641 0.11318 0.00312 0.0
C318 C 0.10472 0.03228 0.98737 0.0
C319 C 0.01969 0.04513 -0.00192 0.0
C320 C 0.00401 0.09226 0.01132 0.0
C321 C 0.07232 0.1258 0.01323 0.0
C322 C 0.12368 0.98254 0.97272 0.0
C323 C 0.91562 0.10676 0.0247 0.0
C324 C 0.83059 0.97873 0.95565 0.0
C325 C 0.81472 0.93929 0.98561 0.0
C326 C 0.89639 0.01355 0.95955 0.0
C327 C 0.94658 1.00987 -0.00528 0.0
C328 C 0.9266 0.97265 0.02639 0.0
C329 C 0.86159 0.93753 0.02129 0.0
C330 C 0.9149 0.05283 0.92514 0.0
C331 C 0.97617 0.9681 0.06506 0.0
H332 H 0.23794 0.05664 0.98308 0.0
H333 H 0.0604 0.16186 0.02365 0.0
H334 H 0.10621 0.95194 -0.00399 0.0
H335 H 0.08381 0.97795 0.94609 0.0
H336 H 0.1926 0.9785 0.96488 0.0
H337 H 0.91393 0.14556 0.03277 0.0
H338 H 0.86748 0.10324 0.00094 0.0
H339 H 0.89573 0.08103 0.05103 0.0
H340 H 0.79502 0.98083 0.92791 0.0
H341 H 0.85002 0.90754 0.04473 0.0
H342 H 0.98152 0.04816 0.91424 0.0
H343 H 0.91064 0.09066 0.935 0.0
H344 H 0.8696 0.05086 0.89991 0.0
H345 H 0.03511 0.94566 0.06177 0.0
H346 H 0.93744 0.94897 0.08984 0.0
H347 H -0.00392 1.0051 0.07334 0.0
C348 C 0.86513 0.05858 0.53871 0.0
C349 C 0.82226 0.08341 0.5056 0.0
C350 C 0.93244 0.0251 0.53418 0.0
C351 C 0.9556 0.01408 0.49561 0.0
C352 C 0.91045 0.03739 0.462 0.0
C353 C 0.84576 0.07282 0.46733 0.0
C354 C 0.98171 1.00345 0.57065 0.0
C355 C 0.93111 0.02556 0.42041 0.0
C356 C 0.17791 0.95868 0.47974 0.0
C357 C 0.16054 0.90753 0.48643 0.0
C358 C 0.11216 0.994 0.48323 0.0
C359 C 0.02633 0.97757 0.4911 0.0
C360 C 0.00865 0.92577 0.49698 0.0
C361 C 0.0762 0.89156 0.49557 0.0
C362 C 0.13462 0.04877 0.4783 0.0
C363 C 0.91812 0.90626 0.50395 0.0
H364 H 0.84959 0.06752 0.56841 0.0
H365 H 0.81404 0.09243 0.44162 0.0
H366 H 0.98105 0.96214 0.57308 0.0
H367 H 0.05003 0.0154 0.56789 0.0
H368 H 0.95507 0.01541 0.59863 0.0
H369 H 0.88036 0.03931 0.39875 0.0
H370 H 0.99276 0.04356 0.41051 0.0
H371 H 0.93872 0.98472 0.41975 0.0
H372 H 0.24275 0.97098 0.47189 0.0
H373 H 0.06206 0.85191 0.49955 0.0
H374 H 0.10472 0.06802 0.50228 0.0
H375 H 0.10917 0.06637 0.44946 0.0
H376 H 0.20529 0.055 0.47872 0.0
H377 H 0.8949 0.91469 0.53354 0.0
H378 H 0.91413 0.86527 0.50292 0.0
H379 H 0.87383 0.92489 0.48118 0.0
C380 C 0.75095 0.29891 0.26627 0.0
C381 C 0.69362 0.27437 0.29394 0.0
C382 C 0.7309 0.30579 0.22554 0.0
C383 C 0.65086 0.28859 0.21258 0.0
C384 C 0.59282 0.26375 0.24059 0.0
C385 C 0.61568 0.25619 0.28093 0.0
C386 C 0.79623 0.33043 0.19666 0.0
C387 C 0.50576 0.24585 0.2281 0.0
C388 C 0.52512 0.33959 0.12264 0.0
C389 C 0.51957 0.29653 0.10291 0.0
C390 C 0.57664 0.34006 0.15662 0.0
C391 C 0.62499 0.29705 0.17011 0.0
C392 C 0.63211 0.25767 0.14592 0.0
C393 C 0.57889 0.25778 0.11241 0.0
C394 C 0.56987 0.38367 0.18091 0.0
C395 C 0.68817 0.21289 0.15811 0.0
H396 H 0.8121 0.31219 0.27647 0.0
H397 H 0.57154 0.23741 0.30251 0.0
H398 H 0.8344 0.30104 0.18414 0.0
H399 H 0.76528 0.35354 0.17141 0.0
H400 H 0.84137 0.35428 0.21167 0.0
H401 H 0.46869 0.27745 0.21267 0.0
H402 H 0.51388 0.2176 0.20685 0.0
H403 H 0.46737 0.22896 0.25385 0.0
H404 H 0.4818 0.3706 0.11461 0.0
H405 H 0.57765 0.22521 0.09622 0.0
H406 H 0.634 0.39369 0.19205 0.0
H407 H 0.52817 0.37312 0.2072 0.0
H408 H 0.54157 0.41704 0.16342 0.0
H409 H 0.75399 0.22523 0.16523 0.0
H410 H 0.69233 0.18739 0.13448 0.0
H411 H 0.6617 0.19162 0.1854 0.0
C412 C 0.61609 0.76322 0.20642 0.0
C413 C 0.69294 0.74398 0.19308 0.0
C414 C 0.59366 0.75583 0.24683 0.0
C415 C 0.65107 0.72999 0.27462 0.0
C416 C 0.73013 0.71177 0.26135 0.0
C417 C 0.74973 0.71856 0.22054 0.0
C418 C 0.50759 0.77484 0.2596 0.0
C419 C 0.79487 0.68607 0.28998 0.0
C420 C 0.57947 0.75999 0.3751 0.0
C421 C 0.51863 0.7219 0.38398 0.0
C422 C 0.63337 0.75984 0.3418 0.0
C423 C 0.62502 0.72107 0.31708 0.0
C424 C 0.57497 0.67854 0.32999 0.0
C425 C 0.52308 0.67912 0.36384 0.0
C426 C 0.69146 0.80392 0.33037 0.0
C427 C 0.56679 0.6355 0.30518 0.0
H428 H 0.57237 0.78275 0.18504 0.0
H429 H 0.81015 0.70453 0.21012 0.0
H430 H 0.46907 0.74355 0.27458 0.0
H431 H 0.51715 0.80237 0.28133 0.0
H432 H 0.46991 0.79293 0.23407 0.0
H433 H 0.83965 0.66229 0.27468 0.0
H434 H 0.83349 0.71484 0.30304 0.0
H435 H 0.76328 0.66267 0.31489 0.0
H436 H 0.57907 0.79227 0.39162 0.0
H437 H 0.47862 0.64855 0.37141 0.0
H438 H 0.66499 0.82671 0.30379 0.0
H439 H 0.75627 0.79086 0.32237 0.0
H440 H 0.69793 0.82817 0.35475 0.0
H441 H 0.52561 0.64699 0.27889 0.0
H442 H 0.53722 0.60225 0.32227 0.0
H443 H 0.63061 0.62488 0.29403 0.0
C444 C 0.23712 0.71338 0.72611 0.0
C445 C 0.29687 0.7318 0.69701 0.0
C446 C 0.25661 0.71208 0.76682 0.0
C447 C 0.33853 0.72839 0.77828 0.0
C448 C 0.3996 0.74609 0.74873 0.0
C449 C 0.37728 0.74838 0.70843 0.0
C450 C 0.18859 0.69501 0.79724 0.0
C451 C 0.48856 0.76299 0.75958 0.0
C452 C 0.41505 0.78041 0.86964 0.0
C453 C 0.472 0.74241 0.88434 0.0
C454 C 0.35916 0.77364 0.83815 0.0
C455 C 0.36213 0.72827 0.82084 0.0
C456 C 0.4079 0.68717 0.84016 0.0
C457 C 0.46172 0.69458 0.87229 0.0
C458 C 0.30678 0.81733 0.81972 0.0
C459 C 0.4107 0.63766 0.82328 0.0
H460 H 0.17421 0.70136 0.71701 0.0
H461 H 0.42321 0.76247 0.68573 0.0
H462 H 0.21659 0.67159 0.82312 0.0
H463 H 0.15924 0.72816 0.80865 0.0
H464 H 0.13657 0.6737 0.78416 0.0
H465 H 0.52993 0.77241 0.73297 0.0
H466 H 0.48359 0.79647 0.77583 0.0
H467 H 0.52097 0.73331 0.77959 0.0
H468 H 0.42105 0.81722 0.87931 0.0
H469 H 0.50323 0.66438 0.88455 0.0
H470 H 0.24173 0.80487 0.81155 0.0
H471 H 0.33874 0.83405 0.79203 0.0
H472 H 0.30009 0.84675 0.8401 0.0
H473 H 0.34651 0.62758 0.81225 0.0
H474 H 0.43326 0.60727 0.84572 0.0
H475 H 0.45591 0.64038 0.79766 0.0
C476 C 0.38007 0.27158 0.7787 0.0
C477 C 0.29991 0.28823 0.7904 0.0
C478 C 0.40231 0.2747 0.73833 0.0
C479 C 0.3414 0.29335 0.70902 0.0
C480 C 0.25974 0.30972 0.72076 0.0
C481 C 0.24032 0.30753 0.76152 0.0
C482 C 0.49098 0.25768 0.72715 0.0
C483 C 0.19189 0.32782 0.69056 0.0
C484 C 0.46376 0.32846 0.61486 0.0
C485 C 0.47282 0.28095 0.60203 0.0
C486 C 0.41082 0.3354 0.64742 0.0
C487 C 0.36469 0.29421 0.66636 0.0
C488 C 0.36051 0.24935 0.64839 0.0
C489 C 0.41547 0.24303 0.61646 0.0
C490 C 0.41489 0.3844 0.66503 0.0
C491 C 0.30778 0.20562 0.66649 0.0
H492 H 0.42589 0.25683 0.80121 0.0
H493 H 0.1776 0.31963 0.77081 0.0
H494 H 0.48548 0.2247 0.71035 0.0
H495 H 0.52373 0.28761 0.70754 0.0
H496 H 0.5323 0.24742 0.75364 0.0
H497 H 0.14017 0.34898 0.70402 0.0
H498 H 0.22017 0.35171 0.66501 0.0
H499 H 0.16209 0.29517 0.6786 0.0
H500 H 0.50561 0.35861 0.60285 0.0
H501 H 0.42059 0.2065 0.60622 0.0
H502 H 0.46025 0.38076 0.69059 0.0
H503 H 0.35103 0.39466 0.67633 0.0
H504 H 0.43792 0.41508 0.64296 0.0
H505 H 0.33939 0.1886 0.69418 0.0
H506 H 0.30108 0.1764 0.64594 0.0
H507 H 0.24275 0.21815 0.67462 0.0
C508 C 0.25215 0.79255 0.26755 0.0
C509 C 0.19602 0.76731 0.29543 0.0
C510 C 0.23177 0.7988 0.22684 0.0
C511 C 0.15262 0.78017 0.21408 0.0
C512 C 0.09627 0.75407 0.24222 0.0
C513 C 0.11943 0.74728 0.28256 0.0
C514 C 0.29543 0.82474 0.19776 0.0
C515 C 0.01013 0.73461 0.22997 0.0
C516 C 0.02158 0.83341 0.12662 0.0
C517 C 0.0166 0.79158 0.10542 0.0
C518 C 0.07434 0.83284 0.16023 0.0
C519 C 0.12458 0.79001 0.17197 0.0
C520 C 0.13192 0.75209 0.14638 0.0
C521 C 0.07724 0.75316 0.11325 0.0
C522 C 0.06707 0.875 0.18601 0.0
C523 C 0.19017 0.70777 0.15657 0.0
H524 H 0.31241 0.80715 0.27761 0.0
H525 H 0.07624 0.72788 0.30425 0.0
H526 H 0.33317 0.79611 0.18406 0.0
H527 H 0.26287 0.84846 0.17333 0.0
H528 H 0.34109 0.84826 0.2128 0.0
H529 H 0.97023 0.76591 0.21597 0.0
H530 H 0.01929 0.70792 0.20756 0.0
H531 H 0.97403 0.71548 0.25561 0.0
H532 H 0.97692 0.86406 0.12005 0.0
H533 H 0.07625 0.72155 0.09599 0.0
H534 H 0.13139 0.88562 0.19655 0.0
H535 H 0.02758 0.86256 0.21267 0.0
H536 H 0.03619 0.90851 0.1699 0.0
H537 H 0.25548 0.72057 0.16405 0.0
H538 H 0.1952 0.68411 0.13174 0.0
H539 H 0.16494 0.68449 0.18319 0.0
C540 C 0.07875 0.2649 0.37367 0.0
C541 C 0.01785 0.22665 0.38162 0.0
C542 C 0.13344 0.26564 0.34058 0.0
C543 C 0.12575 0.22763 0.31511 0.0
C544 C 0.0753 0.18492 0.327 0.0
C545 C 0.02273 0.18457 0.36069 0.0
C546 C 0.19189 0.30983 0.33023 0.0
C547 C 0.06752 0.14273 0.30129 0.0
C548 C 0.12056 0.2709 0.20461 0.0
C549 C 0.19722 0.25101 0.19165 0.0
C550 C 0.09725 0.26372 0.24492 0.0
C551 C 0.15354 0.23739 0.27296 0.0
C552 C 0.23267 0.21881 0.26012 0.0
C553 C 0.2532 0.22544 0.21942 0.0
C554 C 0.01112 0.28312 0.25727 0.0
C555 C 0.29615 0.19257 0.28912 0.0
H556 H 0.07796 0.29662 0.39081 0.0
H557 H 0.97816 0.15388 0.36753 0.0
H558 H 0.25711 0.29689 0.32273 0.0
H559 H 0.16668 0.33307 0.30359 0.0
H560 H 0.19713 0.33361 0.35497 0.0
H561 H 0.03691 0.10923 0.31755 0.0
H562 H 0.0275 0.15514 0.2748 0.0
H563 H 0.13159 0.13209 0.29046 0.0
H564 H 0.07745 0.29051 0.183 0.0
H565 H 0.31346 0.21089 0.2093 0.0
H566 H 0.02034 0.30984 0.27965 0.0
H567 H 0.97133 0.25181 0.27132 0.0
H568 H 0.9749 0.30223 0.23166 0.0
H569 H 0.33296 0.22097 0.3035 0.0
H570 H 0.34263 0.16969 0.27392 0.0
H571 H 0.26339 0.16815 0.31307 0.0
C572 C 0.91794 0.27211 0.86797 0.0
C573 C 0.97581 0.23461 0.88267 0.0
C574 C 0.86275 0.26506 0.83629 0.0
C575 C 0.86758 0.22 0.81862 0.0
C576 C 0.91517 0.17938 0.83752 0.0
C577 C 0.96796 0.18696 0.86997 0.0
C578 C 0.80877 0.30824 0.81817 0.0
C579 C 0.92016 0.13032 0.82001 0.0
C580 C 0.74086 0.20543 0.7243 0.0
C581 C 0.79917 0.22534 0.69507 0.0
C582 C 0.76158 0.20322 0.76494 0.0
C583 C 0.84323 0.22023 0.77614 0.0
C584 C 0.903 0.23921 0.74644 0.0
C585 C 0.87949 0.24231 0.70626 0.0
C586 C 0.69481 0.18475 0.79554 0.0
C587 C 0.99169 0.25683 0.757 0.0
H588 H 0.92245 0.30881 0.87793 0.0
H589 H 0.01049 0.1572 0.88207 0.0
H590 H 0.83984 0.32543 0.79039 0.0
H591 H 0.74405 0.29508 0.81018 0.0
H592 H 0.80132 0.33748 0.83865 0.0
H593 H 0.95209 0.1009 0.84049 0.0
H594 H 0.85487 0.11734 0.81278 0.0
H595 H 0.95749 0.13542 0.79181 0.0
H596 H 0.67801 0.19308 0.71541 0.0
H597 H 0.92434 0.25751 0.68346 0.0
H598 H 0.66305 0.2173 0.80679 0.0
H599 H 0.72428 0.16215 0.82146 0.0
H600 H 0.64438 0.16216 0.7826 0.0
H601 H 0.98608 0.29008 0.7735 0.0
H602 H 0.03228 0.26691 0.73024 0.0
H603 H 0.0253 0.22732 0.77669 0.0
C604 C 0.91599 0.74718 0.61882 0.0
C605 C 0.97324 0.78464 0.60338 0.0
C606 C 0.86112 0.75478 0.65051 0.0
C607 C 0.8653 0.80047 0.66733 0.0
C608 C 0.91155 0.841 0.64742 0.0
C609 C 0.9644 0.83275 0.61511 0.0
C610 C 0.80834 0.71164 0.66959 0.0
C611 C 0.91557 0.89082 0.66374 0.0
C612 C 0.74018 0.81639 0.76197 0.0
C613 C 0.79951 0.79763 0.79115 0.0
C614 C 0.76006 0.81782 0.72127 0.0
C615 C 0.84193 0.80126 0.70988 0.0
C616 C 0.90278 0.78357 0.73952 0.0
C617 C 0.88009 0.78117 0.7798 0.0
C618 C 0.69222 0.83498 0.6908 0.0
C619 C 0.99167 0.76644 0.72877 0.0
H620 H 0.92097 0.71015 0.60949 0.0
H621 H 0.00622 0.86252 0.60237 0.0
H622 H 0.84049 0.69525 0.69734 0.0
H623 H 0.74363 0.72461 0.6778 0.0
H624 H 0.80082 0.68183 0.64962 0.0
H625 H 0.93913 0.92068 0.64109 0.0
H626 H 0.85152 0.90166 0.67448 0.0
H627 H 0.96041 0.8881 0.68949 0.0
H628 H 0.67713 0.82831 0.771 0.0
H629 H 0.92569 0.76678 0.80254 0.0
H630 H 0.66134 0.80183 0.68011 0.0
H631 H 0.72059 0.85743 0.66452 0.0
H632 H 0.64128 0.85731 0.70367 0.0
H633 H 0.98656 0.73258 0.71298 0.0
H634 H 0.03312 0.7575 0.7554 0.0
H635 H 0.02403 0.79575 0.7084 0.0
loop_
_geom_bond_atom_site_label_1
_geom_bond_atom_site_label_2
_geom_bond_distance
_geom_bond_site_symmetry_2
_ccdc_geom_bond_type
C0 O12 1.241 . S
C0 O13 1.280 . S
C1 O14 1.277 . S
C1 O15 1.245 . S
C2 O26 1.247 . S
C2 O28 1.289 1_556 S
Mg3 O4 1.926 . S
Mg3 O13 1.984 . S
Mg3 O15 1.988 . S
Mg3 O16 2.061 . S
O4 Mg3 1.926 . S
O4 Mg5 1.986 . S
O4 Mg6 1.938 . S
Mg5 O4 1.986 . S
Mg5 O12 2.042 . S
Mg5 O14 2.041 . S
Mg5 O20 2.038 . S
Mg5 O28 2.238 . S
Mg6 O4 1.938 . S
Mg6 O7 1.895 1_554 S
Mg6 O17 2.099 1_554 S
Mg6 O19 2.075 1_554 S
Mg6 O28 2.114 . S
Mg6 O29 2.083 . S
O7 Mg6 1.895 1_556 S
O7 Mg8 1.926 . S
O7 Mg9 1.986 . S
Mg8 O7 1.926 . S
Mg8 O22 1.984 . S
Mg8 O25 1.988 . S
Mg8 O26 2.061 . S
Mg9 O7 1.986 . S
Mg9 O17 2.238 . S
Mg9 O21 2.042 . S
Mg9 O23 2.041 . S
Mg9 O30 2.038 . S
C10 O16 1.247 . S
C10 O17 1.289 1_554 S
C11 O29 1.245 1_556 S
C11 O30 1.274 . S
O12 C0 1.241 . S
O12 Mg5 2.042 . S
O13 C0 1.280 . S
O13 Mg3 1.984 . S
O14 C1 1.277 . S
O14 Mg5 2.041 . S
O15 C1 1.245 . S
O15 Mg3 1.988 . S
O16 Mg3 2.061 . S
O16 C10 1.247 . S
O17 Mg6 2.099 1_556 S
O17 Mg9 2.238 . S
O17 C10 1.289 1_556 S
C18 O19 1.245 1_554 S
C18 O20 1.274 . S
O19 Mg6 2.075 1_556 S
O19 C18 1.245 1_556 S
O20 Mg5 2.038 . S
O20 C18 1.274 . S
O21 Mg9 2.042 . S
O21 C24 1.241 . S
O22 Mg8 1.984 . S
O22 C24 1.280 . S
O23 Mg9 2.041 . S
O23 C27 1.277 . S
C24 O21 1.241 . S
C24 O22 1.280 . S
O25 Mg8 1.988 . S
O25 C27 1.245 . S
O26 C2 1.247 . S
O26 Mg8 2.061 . S
C27 O23 1.277 . S
C27 O25 1.245 . S
O28 C2 1.289 1_554 S
O28 Mg5 2.238 . S
O28 Mg6 2.114 . S
O29 Mg6 2.083 . S
O29 C11 1.245 1_554 S
O30 Mg9 2.038 . S
O30 C11 1.274 . S
C31 O43 1.241 . S
C31 O44 1.280 . S
C32 O45 1.277 . S
C32 O46 1.245 . S
C33 O57 1.247 . S
C33 O59 1.289 1_556 S
Mg34 O35 1.926 . S
Mg34 O44 1.984 . S
Mg34 O46 1.988 . S
Mg34 O47 2.061 . S
O35 Mg34 1.926 . S
O35 Mg36 1.986 . S
O35 Mg37 1.938 . S
Mg36 O35 1.986 . S
Mg36 O43 2.042 . S
Mg36 O45 2.041 . S
Mg36 O51 2.038 . S
Mg36 O59 2.238 . S
Mg37 O35 1.938 . S
Mg37 O38 1.895 1_554 S
Mg37 O48 2.099 1_554 S
Mg37 O50 2.075 1_554 S
Mg37 O59 2.114 . S
Mg37 O60 2.083 . S
O38 Mg37 1.895 1_556 S
O38 Mg39 1.926 . S
O38 Mg40 1.986 . S
Mg39 O38 1.926 . S
Mg39 O53 1.984 . S
Mg39 O56 1.988 . S
Mg39 O57 2.061 . S
Mg40 O38 1.986 . S
Mg40 O48 2.238 . S
Mg40 O52 2.042 . S
Mg40 O54 2.041 . S
Mg40 O61 2.038 . S
C41 O47 1.247 . S
C41 O48 1.289 1_554 S
C42 O60 1.245 1_556 S
C42 O61 1.274 . S
O43 C31 1.241 . S
O43 Mg36 2.042 . S
O44 C31 1.280 . S
O44 Mg34 1.984 . S
O45 C32 1.277 . S
O45 Mg36 2.041 . S
O46 C32 1.245 . S
O46 Mg34 1.988 . S
O47 Mg34 2.061 . S
O47 C41 1.247 . S
O48 Mg37 2.099 1_556 S
O48 Mg40 2.238 . S
O48 C41 1.289 1_556 S
C49 O50 1.245 1_554 S
C49 O51 1.274 . S
O50 Mg37 2.075 1_556 S
O50 C49 1.245 1_556 S
O51 Mg36 2.038 . S
O51 C49 1.274 . S
O52 Mg40 2.042 . S
O52 C55 1.241 . S
O53 Mg39 1.984 . S
O53 C55 1.280 . S
O54 Mg40 2.041 . S
O54 C58 1.277 . S
C55 O52 1.241 . S
C55 O53 1.280 . S
O56 Mg39 1.988 . S
O56 C58 1.245 . S
O57 C33 1.247 . S
O57 Mg39 2.061 . S
C58 O54 1.277 . S
C58 O56 1.245 . S
O59 C33 1.289 1_554 S
O59 Mg36 2.238 . S
O59 Mg37 2.114 . S
O60 Mg37 2.083 . S
O60 C42 1.245 1_554 S
O61 Mg40 2.038 . S
O61 C42 1.274 . S
C62 O74 1.241 . S
C62 O75 1.280 . S
C63 O76 1.277 . S
C63 O77 1.245 . S
C64 O88 1.247 . S
C64 O90 1.289 . S
Mg65 O66 1.926 . S
Mg65 O75 1.984 . S
Mg65 O77 1.988 . S
Mg65 O78 2.061 . S
O66 Mg65 1.926 . S
O66 Mg67 1.986 . S
O66 Mg68 1.917 . S
Mg67 O66 1.986 . S
Mg67 O74 2.042 . S
Mg67 O76 2.041 . S
Mg67 O82 2.038 . S
Mg67 O90 2.238 . S
Mg68 O66 1.917 . S
Mg68 O69 1.917 . S
Mg68 O79 2.106 . S
Mg68 O81 2.079 . S
Mg68 O90 2.106 . S
Mg68 O91 2.079 . S
O69 Mg68 1.917 . S
O69 Mg70 1.926 . S
O69 Mg71 1.986 . S
Mg70 O69 1.926 . S
Mg70 O84 1.984 . S
Mg70 O87 1.988 . S
Mg70 O88 2.061 . S
Mg71 O69 1.986 . S
Mg71 O79 2.238 . S
Mg71 O83 2.042 . S
Mg71 O85 2.041 . S
Mg71 O92 2.038 . S
C72 O78 1.247 . S
C72 O79 1.289 . S
C73 O91 1.245 . S
C73 O92 1.274 . S
O74 C62 1.241 . S
O74 Mg67 2.042 . S
O75 C62 1.280 . S
O75 Mg65 1.984 . S
O76 C63 1.277 . S
O76 Mg67 2.041 . S
O77 C63 1.245 . S
O77 Mg65 1.988 . S
O78 Mg65 2.061 . S
O78 C72 1.247 . S
O79 Mg68 2.106 . S
O79 Mg71 2.238 . S
O79 C72 1.289 . S
C80 O81 1.245 . S
C80 O82 1.274 . S
O81 Mg68 2.079 . S
O81 C80 1.245 . S
O82 Mg67 2.038 . S
O82 C80 1.274 . S
O83 Mg71 2.042 . S
O83 C86 1.241 . S
O84 Mg70 1.984 . S
O84 C86 1.280 . S
O85 Mg71 2.041 . S
O85 C89 1.277 . S
C86 O83 1.241 . S
C86 O84 1.280 . S
O87 Mg70 1.988 . S
O87 C89 1.245 . S
O88 C64 1.247 . S
O88 Mg70 2.061 . S
C89 O85 1.277 . S
C89 O87 1.245 . S
O90 C64 1.289 . S
O90 Mg67 2.238 . S
O90 Mg68 2.106 . S
O91 Mg68 2.079 . S
O91 C73 1.245 . S
O92 Mg71 2.038 . S
O92 C73 1.274 . S
C93 O105 1.241 . S
C93 O106 1.280 . S
C94 O107 1.277 . S
C94 O108 1.245 . S
C95 O119 1.247 . S
C95 O121 1.289 . S
Mg96 O97 1.926 . S
Mg96 O106 1.984 . S
Mg96 O108 1.988 . S
Mg96 O109 2.061 . S
O97 Mg96 1.926 . S
O97 Mg98 1.986 . S
O97 Mg99 1.917 . S
Mg98 O97 1.986 . S
Mg98 O105 2.042 . S
Mg98 O107 2.041 . S
Mg98 O113 2.038 . S
Mg98 O121 2.238 . S
Mg99 O97 1.917 . S
Mg99 O100 1.917 . S
Mg99 O110 2.106 . S
Mg99 O112 2.079 . S
Mg99 O121 2.106 . S
Mg99 O122 2.079 . S
O100 Mg99 1.917 . S
O100 Mg101 1.926 . S
O100 Mg102 1.986 . S
Mg101 O100 1.926 . S
Mg101 O115 1.984 . S
Mg101 O118 1.988 . S
Mg101 O119 2.061 . S
Mg102 O100 1.986 . S
Mg102 O110 2.238 . S
Mg102 O114 2.042 . S
Mg102 O116 2.041 . S
Mg102 O123 2.038 . S
C103 O109 1.247 . S
C103 O110 1.289 . S
C104 O122 1.245 . S
C104 O123 1.274 . S
O105 C93 1.241 . S
O105 Mg98 2.042 . S
O106 C93 1.280 . S
O106 Mg96 1.984 . S
O107 C94 1.277 . S
O107 Mg98 2.041 . S
O108 C94 1.245 . S
O108 Mg96 1.988 . S
O109 Mg96 2.061 . S
O109 C103 1.247 . S
O110 Mg99 2.106 . S
O110 Mg102 2.238 . S
O110 C103 1.289 . S
C111 O112 1.245 . S
C111 O113 1.274 . S
O112 Mg99 2.079 . S
O112 C111 1.245 . S
O113 Mg98 2.038 . S
O113 C111 1.274 . S
O114 Mg102 2.042 . S
O114 C117 1.241 . S
O115 Mg101 1.984 . S
O115 C117 1.280 . S
O116 Mg102 2.041 . S
O116 C120 1.277 . S
C117 O114 1.241 . S
C117 O115 1.280 . S
O118 Mg101 1.988 . S
O118 C120 1.245 . S
O119 C95 1.247 . S
O119 Mg101 2.061 . S
C120 O116 1.277 . S
C120 O118 1.245 . S
O121 C95 1.289 . S
O121 Mg98 2.238 . S
O121 Mg99 2.106 . S
O122 Mg99 2.079 . S
O122 C104 1.245 . S
O123 Mg102 2.038 . S
O123 C104 1.274 . S
C124 C125 1.391 . S
C124 C126 1.394 . S
C124 H140 0.931 . S
C125 C124 1.391 . S
C125 C129 1.376 1_556 S
C126 C124 1.394 . S
C126 C127 1.369 . S
C126 C130 1.531 . S
C127 C126 1.369 . S
C127 C128 1.410 1_556 S
C127 C135 1.503 . S
C128 C127 1.410 1_554 S
C128 C129 1.392 . S
C128 C131 1.511 . S
C129 C125 1.376 1_554 S
C129 C128 1.392 . S
C129 H141 0.929 . S
C130 C126 1.531 . S
C130 H142 0.960 . S
C130 H143 0.962 . S
C130 H144 0.960 . S
C131 C128 1.511 . S
C131 H145 0.961 . S
C131 H146 0.961 . S
C131 H147 0.961 1_554 S
C132 C133 1.370 . S
C132 C134 1.363 . S
C132 H148 0.931 . S
C133 C132 1.370 . S
C133 C137 1.408 1_554 S
C134 C132 1.363 . S
C134 C135 1.370 1_554 S
C134 C138 1.524 . S
C135 C127 1.503 . S
C135 C134 1.370 1_556 S
C135 C136 1.403 . S
C136 C135 1.403 . S
C136 C137 1.404 . S
C136 C139 1.539 . S
C137 C133 1.408 1_556 S
C137 C136 1.404 . S
C137 H149 0.930 . S
C138 C134 1.524 . S
C138 H150 0.956 . S
C138 H151 0.961 . S
C138 H152 0.961 . S
C139 C136 1.539 . S
C139 H153 0.958 . S
C139 H154 0.961 . S
C139 H155 0.960 . S
H140 C124 0.931 . S
H141 C129 0.929 . S
H142 C130 0.960 . S
H143 C130 0.962 . S
H144 C130 0.960 . S
H145 C131 0.961 . S
H146 C131 0.961 . S
H147 C131 0.961 1_556 S
H148 C132 0.931 . S
H149 C137 0.930 . S
H150 C138 0.956 . S
H151 C138 0.961 . S
H152 C138 0.961 . S
H153 C139 0.958 . S
H154 C139 0.961 . S
H155 C139 0.960 . S
C156 C157 1.391 . S
C156 C158 1.394 . S
C156 H172 0.931 . S
C157 C156 1.391 . S
C157 C161 1.376 1_554 S
C158 C156 1.394 . S
C158 C159 1.369 . S
C158 C162 1.531 . S
C159 C158 1.369 . S
C159 C160 1.410 1_554 S
C159 C167 1.503 . S
C160 C159 1.410 1_556 S
C160 C161 1.392 . S
C160 C163 1.511 . S
C161 C157 1.376 1_556 S
C161 C160 1.392 . S
C161 H173 0.929 . S
C162 C158 1.531 . S
C162 H174 0.960 . S
C162 H175 0.962 . S
C162 H176 0.960 . S
C163 C160 1.511 . S
C163 H177 0.961 . S
C163 H178 0.961 . S
C163 H179 0.979 . S
C164 C165 1.370 1_556 S
C164 C166 1.363 . S
C164 H180 0.931 . S
C165 C164 1.370 1_554 S
C165 C169 1.408 . S
C166 C164 1.363 . S
C166 C167 1.370 1_556 S
C166 C170 1.524 . S
C167 C159 1.503 . S
C167 C166 1.370 1_554 S
C167 C168 1.403 . S
C168 C167 1.403 . S
C168 C169 1.404 . S
C168 C171 1.539 . S
C169 C165 1.408 . S
C169 C168 1.404 . S
C169 H181 0.930 . S
C170 C166 1.524 . S
C170 H182 0.956 . S
C170 H183 0.961 . S
C170 H184 0.961 . S
C171 C168 1.539 . S
C171 H185 0.958 . S
C171 H186 0.961 . S
C171 H187 0.960 . S
H172 C156 0.931 . S
H173 C161 0.929 . S
H174 C162 0.960 . S
H175 C162 0.962 . S
H176 C162 0.960 . S
H177 C163 0.961 . S
H178 C163 0.961 . S
H179 C163 0.979 . S
H180 C164 0.931 . S
H181 C169 0.930 . S
H182 C170 0.956 . S
H183 C170 0.961 . S
H184 C170 0.961 . S
H185 C171 0.958 . S
H186 C171 0.961 . S
H187 C171 0.960 . S
C188 C189 1.391 . S
C188 C190 1.394 . S
C188 H204 0.931 . S
C189 C188 1.391 . S
C189 C193 1.376 . S
C190 C188 1.394 . S
C190 C191 1.369 . S
C190 C194 1.531 . S
C191 C190 1.369 . S
C191 C192 1.410 . S
C191 C199 1.503 . S
C192 C191 1.410 . S
C192 C193 1.392 . S
C192 C195 1.511 . S
C193 C189 1.376 . S
C193 C192 1.392 . S
C193 H205 0.929 . S
C194 C190 1.531 . S
C194 H206 0.960 . S
C194 H207 0.962 . S
C194 H208 0.960 . S
C195 C192 1.511 . S
C195 H209 0.961 . S
C195 H210 0.961 . S
C195 H211 0.961 . S
C196 C197 1.370 . S
C196 C198 1.363 . S
C196 H212 0.931 . S
C197 C196 1.370 . S
C197 C201 1.408 . S
C198 C196 1.363 . S
C198 C199 1.370 . S
C198 C202 1.524 . S
C199 C191 1.503 . S
C199 C198 1.370 . S
C199 C200 1.403 . S
C200 C199 1.403 . S
C200 C201 1.404 . S
C200 C203 1.539 . S
C201 C197 1.408 . S
C201 C200 1.404 . S
C201 H213 0.930 . S
C202 C198 1.524 . S
C202 H214 0.956 . S
C202 H215 0.961 . S
C202 H216 0.961 . S
C203 C200 1.539 . S
C203 H217 0.958 . S
C203 H218 0.961 . S
C203 H219 0.960 . S
H204 C188 0.931 . S
H205 C193 0.929 . S
H206 C194 0.960 . S
H207 C194 0.962 . S
H208 C194 0.960 . S
H209 C195 0.961 . S
H210 C195 0.961 . S
H211 C195 0.961 . S
H212 C196 0.931 . S
H213 C201 0.930 . S
H214 C202 0.956 . S
H215 C202 0.961 . S
H216 C202 0.961 . S
H217 C203 0.958 . S
H218 C203 0.961 . S
H219 C203 0.960 . S
C220 C221 1.391 . S
C220 C222 1.394 . S
C220 H236 0.931 . S
C221 C220 1.391 . S
C221 C225 1.376 . S
C222 C220 1.394 . S
C222 C223 1.369 . S
C222 C226 1.531 . S
C223 C222 1.369 . S
C223 C224 1.410 . S
C223 C231 1.503 . S
C224 C223 1.410 . S
C224 C225 1.392 . S
C224 C227 1.511 . S
C225 C221 1.376 . S
C225 C224 1.392 . S
C225 H237 0.929 . S
C226 C222 1.531 . S
C226 H238 0.960 . S
C226 H239 0.962 . S
C226 H240 0.960 . S
C227 C224 1.511 . S
C227 H241 0.961 . S
C227 H242 0.961 . S
C227 H243 0.961 . S
C228 C229 1.370 . S
C228 C230 1.363 . S
C228 H244 0.931 . S
C229 C228 1.370 . S
C229 C233 1.408 . S
C230 C228 1.363 . S
C230 C231 1.370 . S
C230 C234 1.524 . S
C231 C223 1.503 . S
C231 C230 1.370 . S
C231 C232 1.403 . S
C232 C231 1.403 . S
C232 C233 1.404 . S
C232 C235 1.539 . S
C233 C229 1.408 . S
C233 C232 1.404 . S
C233 H245 0.930 . S
C234 C230 1.524 . S
C234 H246 0.956 . S
C234 H247 0.961 . S
C234 H248 0.961 . S
C235 C232 1.539 . S
C235 H249 0.958 . S
C235 H250 0.961 . S
C235 H251 0.960 . S
H236 C220 0.931 . S
H237 C225 0.929 . S
H238 C226 0.960 . S
H239 C226 0.962 . S
H240 C226 0.960 . S
H241 C227 0.961 . S
H242 C227 0.961 . S
H243 C227 0.961 . S
H244 C228 0.931 . S
H245 C233 0.930 . S
H246 C234 0.956 . S
H247 C234 0.961 . S
H248 C234 0.961 . S
H249 C235 0.958 . S
H250 C235 0.961 . S
H251 C235 0.960 . S
C252 C253 1.391 . S
C252 C254 1.394 . S
C252 H268 0.931 . S
C253 C252 1.391 . S
C253 C257 1.376 1_554 S
C254 C252 1.394 . S
C254 C255 1.369 . S
C254 C258 1.531 . S
C255 C254 1.369 . S
C255 C256 1.410 1_554 S
C255 C263 1.503 . S
C256 C255 1.410 1_556 S
C256 C257 1.392 . S
C256 C259 1.511 . S
C257 C253 1.376 1_556 S
C257 C256 1.392 . S
C257 H269 0.929 . S
C258 C254 1.531 . S
C258 H270 0.960 . S
C258 H271 0.962 . S
C258 H272 0.960 . S
C259 C256 1.511 . S
C259 H273 0.961 . S
C259 H274 0.961 . S
C259 H275 0.961 . S
C260 C261 1.370 1_556 S
C260 C262 1.363 . S
C260 H276 0.931 . S
C261 C260 1.370 1_554 S
C261 C265 1.408 . S
C262 C260 1.363 . S
C262 C263 1.370 1_556 S
C262 C266 1.524 . S
C263 C255 1.503 . S
C263 C262 1.370 1_554 S
C263 C264 1.403 . S
C264 C263 1.403 . S
C264 C265 1.404 . S
C264 C267 1.539 . S
C265 C261 1.408 . S
C265 C264 1.404 . S
C265 H277 0.930 . S
C266 C262 1.524 . S
C266 H278 0.956 . S
C266 H279 0.961 . S
C266 H280 0.961 . S
C267 C264 1.539 . S
C267 H281 0.958 . S
C267 H282 0.961 . S
C267 H283 0.960 . S
H268 C252 0.931 . S
H269 C257 0.929 . S
H270 C258 0.960 . S
H271 C258 0.962 . S
H272 C258 0.960 . S
H273 C259 0.961 . S
H274 C259 0.961 . S
H275 C259 0.961 . S
H276 C260 0.931 . S
H277 C265 0.930 . S
H278 C266 0.956 . S
H279 C266 0.961 . S
H280 C266 0.961 . S
H281 C267 0.958 . S
H282 C267 0.961 . S
H283 C267 0.960 . S
C284 C285 1.391 . S
C284 C286 1.394 . S
C284 H300 0.931 . S
C285 C284 1.391 . S
C285 C289 1.376 . S
C286 C284 1.394 . S
C286 C287 1.369 . S
C286 C290 1.531 . S
C287 C286 1.369 . S
C287 C288 1.410 . S
C287 C295 1.503 . S
C288 C287 1.410 . S
C288 C289 1.392 . S
C288 C291 1.511 . S
C289 C285 1.376 . S
C289 C288 1.392 . S
C289 H301 0.929 . S
C290 C286 1.531 . S
C290 H302 0.960 . S
C290 H303 0.962 . S
C290 H304 0.960 . S
C291 C288 1.511 . S
C291 H305 0.961 . S
C291 H306 0.961 . S
C291 H307 0.961 . S
C292 C293 1.370 . S
C292 C294 1.363 . S
C292 H308 0.931 . S
C293 C292 1.370 . S
C293 C297 1.408 . S
C294 C292 1.363 . S
C294 C295 1.370 . S
C294 C298 1.524 . S
C295 C287 1.503 . S
C295 C294 1.370 . S
C295 C296 1.403 . S
C296 C295 1.403 . S
C296 C297 1.404 . S
C296 C299 1.539 . S
C297 C293 1.408 . S
C297 C296 1.404 . S
C297 H309 0.930 . S
C298 C294 1.524 . S
C298 H310 0.956 . S
C298 H311 0.961 . S
C298 H312 0.961 . S
C299 C296 1.539 . S
C299 H313 0.958 . S
C299 H314 0.961 . S
C299 H315 0.960 . S
H300 C284 0.931 . S
H301 C289 0.929 . S
H302 C290 0.960 . S
H303 C290 0.962 . S
H304 C290 0.960 . S
H305 C291 0.961 . S
H306 C291 0.961 . S
H307 C291 0.961 . S
H308 C292 0.931 . S
H309 C297 0.930 . S
H310 C298 0.956 . S
H311 C298 0.961 . S
H312 C298 0.961 . S
H313 C299 0.958 . S
H314 C299 0.961 . S
H315 C299 0.960 . S
C316 C317 1.391 1_556 S
C316 C318 1.394 . S
C316 H332 0.931 . S
C317 C316 1.391 1_554 S
C317 C321 1.376 . S
C318 C316 1.394 . S
C318 C319 1.369 1_556 S
C318 C322 1.531 1_545 S
C319 C318 1.369 1_554 S
C319 C320 1.410 . S
C319 C327 1.503 1_445 S
C320 C319 1.410 . S
C320 C321 1.392 . S
C320 C323 1.511 1_455 S
C321 C317 1.376 . S
C321 C320 1.392 . S
C321 H333 0.929 . S
C322 C318 1.531 1_565 S
C322 H334 0.960 . S
C322 H335 0.968 . S
C322 H336 0.960 . S
C323 C320 1.511 1_655 S
C323 H337 0.961 . S
C323 H338 0.961 . S
C323 H339 0.961 1_655 S
C324 C325 1.370 1_556 S
C324 C326 1.363 . S
C324 H340 0.931 . S
C325 C324 1.370 1_554 S
C325 C329 1.408 . S
C326 C324 1.363 . S
C326 C327 1.370 1_556 S
C326 C330 1.524 1_565 S
C327 C319 1.503 1_665 S
C327 C326 1.370 1_554 S
C327 C328 1.403 1_655 S
C328 C327 1.403 1_455 S
C328 C329 1.404 1_455 S
C328 C331 1.539 . S
C329 C325 1.408 . S
C329 C328 1.404 1_655 S
C329 H341 0.930 . S
C330 C326 1.524 1_545 S
C330 H342 0.956 . S
C330 H343 0.961 . S
C330 H344 0.961 . S
C331 C328 1.539 . S
C331 H345 0.958 . S
C331 H346 0.961 . S
C331 H347 0.960 . S
H332 C316 0.931 . S
H333 C321 0.929 . S
H334 C322 0.960 . S
H335 C322 0.968 . S
H336 C322 0.960 . S
H337 C323 0.961 . S
H338 C323 0.961 . S
H339 C323 0.961 1_455 S
H340 C324 0.931 . S
H341 C329 0.930 . S
H342 C330 0.956 . S
H343 C330 0.961 . S
H344 C330 0.961 . S
H345 C331 0.958 . S
H346 C331 0.961 . S
H347 C331 0.960 . S
C348 C349 1.391 . S
C348 C350 1.394 . S
C348 H364 0.931 . S
C349 C348 1.391 . S
C349 C353 1.376 . S
C350 C348 1.394 . S
C350 C351 1.369 . S
C350 C354 1.531 1_655 S
C351 C350 1.369 . S
C351 C352 1.410 . S
C351 C359 1.503 1_645 S
C352 C351 1.410 . S
C352 C353 1.392 . S
C352 C355 1.511 1_545 S
C353 C349 1.376 . S
C353 C352 1.392 . S
C353 H365 0.929 . S
C354 C350 1.531 1_455 S
C354 H366 0.960 1_545 S
C354 H367 0.962 . S
C354 H368 0.960 1_455 S
C355 C352 1.511 1_565 S
C355 H369 0.961 1_565 S
C355 H370 0.961 . S
C355 H371 0.961 . S
C356 C357 1.370 . S
C356 C358 1.363 . S
C356 H372 0.931 . S
C357 C356 1.370 . S
C357 C361 1.408 . S
C358 C356 1.363 . S
C358 C359 1.370 . S
C358 C362 1.524 1_565 S
C359 C351 1.503 1_465 S
C359 C358 1.370 . S
C359 C360 1.403 1_455 S
C360 C359 1.403 1_655 S
C360 C361 1.404 1_655 S
C360 C363 1.539 . S
C361 C357 1.408 . S
C361 C360 1.404 1_455 S
C361 H373 0.930 . S
C362 C358 1.524 1_545 S
C362 H374 0.956 . S
C362 H375 0.961 . S
C362 H376 0.961 . S
C363 C360 1.539 . S
C363 H377 0.958 . S
C363 H378 0.961 . S
C363 H379 0.960 . S
H364 C348 0.931 . S
H365 C353 0.929 . S
H366 C354 0.960 1_565 S
H367 C354 0.962 . S
H368 C354 0.960 1_655 S
H369 C355 0.961 1_545 S
H370 C355 0.961 . S
H371 C355 0.961 . S
H372 C356 0.931 . S
H373 C361 0.930 . S
H374 C362 0.956 . S
H375 C362 0.961 . S
H376 C362 0.961 . S
H377 C363 0.958 . S
H378 C363 0.961 . S
H379 C363 0.960 . S
C380 C381 1.391 . S
C380 C382 1.394 . S
C380 H396 0.931 . S
C381 C380 1.391 . S
C381 C385 1.376 . S
C382 C380 1.394 . S
C382 C383 1.369 . S
C382 C386 1.531 . S
C383 C382 1.369 . S
C383 C384 1.410 . S
C383 C391 1.503 . S
C384 C383 1.410 . S
C384 C385 1.392 . S
C384 C387 1.511 . S
C385 C381 1.376 . S
C385 C384 1.392 . S
C385 H397 0.929 . S
C386 C382 1.531 . S
C386 H398 0.960 . S
C386 H399 0.962 . S
C386 H400 0.960 . S
C387 C384 1.511 . S
C387 H401 0.961 . S
C387 H402 0.961 . S
C387 H403 0.961 . S
C388 C389 1.370 . S
C388 C390 1.363 . S
C388 H404 0.931 . S
C389 C388 1.370 . S
C389 C393 1.408 . S
C390 C388 1.363 . S
C390 C391 1.370 . S
C390 C394 1.524 . S
C391 C383 1.503 . S
C391 C390 1.370 . S
C391 C392 1.403 . S
C392 C391 1.403 . S
C392 C393 1.404 . S
C392 C395 1.539 . S
C393 C389 1.408 . S
C393 C392 1.404 . S
C393 H405 0.930 . S
C394 C390 1.524 . S
C394 H406 0.956 . S
C394 H407 0.961 . S
C394 H408 0.961 . S
C395 C392 1.539 . S
C395 H409 0.958 . S
C395 H410 0.961 . S
C395 H411 0.960 . S
H396 C380 0.931 . S
H397 C385 0.929 . S
H398 C386 0.960 . S
H399 C386 0.962 . S
H400 C386 0.960 . S
H401 C387 0.961 . S
H402 C387 0.961 . S
H403 C387 0.961 . S
H404 C388 0.931 . S
H405 C393 0.930 . S
H406 C394 0.956 . S
H407 C394 0.961 . S
H408 C394 0.961 . S
H409 C395 0.958 . S
H410 C395 0.961 . S
H411 C395 0.960 . S
C412 C413 1.391 . S
C412 C414 1.394 . S
C412 H428 0.931 . S
C413 C412 1.391 . S
C413 C417 1.376 . S
C414 C412 1.394 . S
C414 C415 1.369 . S
C414 C418 1.531 . S
C415 C414 1.369 . S
C415 C416 1.410 . S
C415 C423 1.503 . S
C416 C415 1.410 . S
C416 C417 1.392 . S
C416 C419 1.511 . S
C417 C413 1.376 . S
C417 C416 1.392 . S
C417 H429 0.929 . S
C418 C414 1.531 . S
C418 H430 0.960 . S
C418 H431 0.962 . S
C418 H432 0.960 . S
C419 C416 1.511 . S
C419 H433 0.961 . S
C419 H434 0.961 . S
C419 H435 0.961 . S
C420 C421 1.370 . S
C420 C422 1.363 . S
C420 H436 0.931 . S
C421 C420 1.370 . S
C421 C425 1.408 . S
C422 C420 1.363 . S
C422 C423 1.370 . S
C422 C426 1.524 . S
C423 C415 1.503 . S
C423 C422 1.370 . S
C423 C424 1.403 . S
C424 C423 1.403 . S
C424 C425 1.404 . S
C424 C427 1.539 . S
C425 C421 1.408 . S
C425 C424 1.404 . S
C425 H437 0.930 . S
C426 C422 1.524 . S
C426 H438 0.956 . S
C426 H439 0.961 . S
C426 H440 0.961 . S
C427 C424 1.539 . S
C427 H441 0.958 . S
C427 H442 0.961 . S
C427 H443 0.960 . S
H428 C412 0.931 . S
H429 C417 0.929 . S
H430 C418 0.960 . S
H431 C418 0.962 . S
H432 C418 0.960 . S
H433 C419 0.961 . S
H434 C419 0.961 . S
H435 C419 0.961 . S
H436 C420 0.931 . S
H437 C425 0.930 . S
H438 C426 0.956 . S
H439 C426 0.961 . S
H440 C426 0.961 . S
H441 C427 0.958 . S
H442 C427 0.961 . S
H443 C427 0.960 . S
C444 C445 1.391 . S
C444 C446 1.394 . S
C444 H460 0.931 . S
C445 C444 1.391 . S
C445 C449 1.376 . S
C446 C444 1.394 . S
C446 C447 1.369 . S
C446 C450 1.531 . S
C447 C446 1.369 . S
C447 C448 1.410 . S
C447 C455 1.503 . S
C448 C447 1.410 . S
C448 C449 1.392 . S
C448 C451 1.511 . S
C449 C445 1.376 . S
C449 C448 1.392 . S
C449 H461 0.929 . S
C450 C446 1.531 . S
C450 H462 0.960 . S
C450 H463 0.962 . S
C450 H464 0.960 . S
C451 C448 1.511 . S
C451 H465 0.961 . S
C451 H466 0.961 . S
C451 H467 0.961 . S
C452 C453 1.370 . S
C452 C454 1.363 . S
C452 H468 0.931 . S
C453 C452 1.370 . S
C453 C457 1.408 . S
C454 C452 1.363 . S
C454 C455 1.370 . S
C454 C458 1.524 . S
C455 C447 1.503 . S
C455 C454 1.370 . S
C455 C456 1.403 . S
C456 C455 1.403 . S
C456 C457 1.404 . S
C456 C459 1.539 . S
C457 C453 1.408 . S
C457 C456 1.404 . S
C457 H469 0.930 . S
C458 C454 1.524 . S
C458 H470 0.956 . S
C458 H471 0.961 . S
C458 H472 0.961 . S
C459 C456 1.539 . S
C459 H473 0.958 . S
C459 H474 0.961 . S
C459 H475 0.960 . S
H460 C444 0.931 . S
H461 C449 0.929 . S
H462 C450 0.960 . S
H463 C450 0.962 . S
H464 C450 0.960 . S
H465 C451 0.961 . S
H466 C451 0.961 . S
H467 C451 0.961 . S
H468 C452 0.931 . S
H469 C457 0.930 . S
H470 C458 0.956 . S
H471 C458 0.961 . S
H472 C458 0.961 . S
H473 C459 0.958 . S
H474 C459 0.961 . S
H475 C459 0.960 . S
C476 C477 1.391 . S
C476 C478 1.394 . S
C476 H492 0.931 . S
C477 C476 1.391 . S
C477 C481 1.376 . S
C478 C476 1.394 . S
C478 C479 1.369 . S
C478 C482 1.531 . S
C479 C478 1.369 . S
C479 C480 1.410 . S
C479 C487 1.503 . S
C480 C479 1.410 . S
C480 C481 1.392 . S
C480 C483 1.511 . S
C481 C477 1.376 . S
C481 C480 1.392 . S
C481 H493 0.929 . S
C482 C478 1.531 . S
C482 H494 0.960 . S
C482 H495 0.962 . S
C482 H496 0.960 . S
C483 C480 1.511 . S
C483 H497 0.961 . S
C483 H498 0.961 . S
C483 H499 0.961 . S
C484 C485 1.370 . S
C484 C486 1.363 . S
C484 H500 0.931 . S
C485 C484 1.370 . S
C485 C489 1.408 . S
C486 C484 1.363 . S
C486 C487 1.370 . S
C486 C490 1.524 . S
C487 C479 1.503 . S
C487 C486 1.370 . S
C487 C488 1.403 . S
C488 C487 1.403 . S
C488 C489 1.404 . S
C488 C491 1.539 . S
C489 C485 1.408 . S
C489 C488 1.404 . S
C489 H501 0.930 . S
C490 C486 1.524 . S
C490 H502 0.956 . S
C490 H503 0.961 . S
C490 H504 0.961 . S
C491 C488 1.539 . S
C491 H505 0.958 . S
C491 H506 0.961 . S
C491 H507 0.960 . S
H492 C476 0.931 . S
H493 C481 0.929 . S
H494 C482 0.960 . S
H495 C482 0.962 . S
H496 C482 0.960 . S
H497 C483 0.961 . S
H498 C483 0.961 . S
H499 C483 0.961 . S
H500 C484 0.931 . S
H501 C489 0.930 . S
H502 C490 0.956 . S
H503 C490 0.961 . S
H504 C490 0.961 . S
H505 C491 0.958 . S
H506 C491 0.961 . S
H507 C491 0.960 . S
C508 C509 1.391 . S
C508 C510 1.394 . S
C508 H524 0.931 . S
C509 C508 1.391 . S
C509 C513 1.376 1_455 S
C510 C508 1.394 . S
C510 C511 1.369 1_455 S
C510 C514 1.531 . S
C511 C510 1.369 1_655 S
C511 C512 1.410 . S
C511 C519 1.503 . S
C512 C511 1.410 . S
C512 C513 1.392 . S
C512 C515 1.511 . S
C513 C509 1.376 1_655 S
C513 C512 1.392 . S
C513 H525 0.929 . S
C514 C510 1.531 . S
C514 H526 0.960 . S
C514 H527 0.962 . S
C514 H528 0.960 . S
C515 C512 1.511 . S
C515 H529 0.961 . S
C515 H530 0.961 . S
C515 H531 0.961 . S
C516 C517 1.370 . S
C516 C518 1.363 . S
C516 H532 0.931 . S
C517 C516 1.370 . S
C517 C521 1.408 . S
C518 C516 1.363 . S
C518 C519 1.370 . S
C518 C522 1.524 1_655 S
C519 C511 1.503 . S
C519 C518 1.370 . S
C519 C520 1.403 . S
C520 C519 1.403 . S
C520 C521 1.404 . S
C520 C523 1.539 . S
C521 C517 1.408 . S
C521 C520 1.404 . S
C521 H533 0.930 . S
C522 C518 1.524 1_455 S
C522 H534 0.956 . S
C522 H535 0.961 . S
C522 H536 0.961 . S
C523 C520 1.539 . S
C523 H537 0.958 . S
C523 H538 0.961 . S
C523 H539 0.960 . S
H524 C508 0.931 . S
H525 C513 0.929 . S
H526 C514 0.960 . S
H527 C514 0.962 . S
H528 C514 0.960 . S
H529 C515 0.961 . S
H530 C515 0.961 . S
H531 C515 0.961 . S
H532 C516 0.931 . S
H533 C521 0.930 . S
H534 C522 0.956 . S
H535 C522 0.961 . S
H536 C522 0.961 . S
H537 C523 0.958 . S
H538 C523 0.961 . S
H539 C523 0.960 . S
C540 C541 1.391 . S
C540 C542 1.394 . S
C540 H556 0.931 . S
C541 C540 1.391 . S
C541 C545 1.376 . S
C542 C540 1.394 . S
C542 C543 1.369 . S
C542 C546 1.531 . S
C543 C542 1.369 . S
C543 C544 1.410 1_655 S
C543 C551 1.503 1_655 S
C544 C543 1.410 1_455 S
C544 C545 1.392 1_455 S
C544 C547 1.511 . S
C545 C541 1.376 . S
C545 C544 1.392 1_655 S
C545 H557 0.929 . S
C546 C542 1.531 . S
C546 H558 0.960 . S
C546 H559 0.962 . S
C546 H560 0.960 . S
C547 C544 1.511 . S
C547 H561 0.961 . S
C547 H562 0.961 . S
C547 H563 0.961 . S
C548 C549 1.370 1_655 S
C548 C550 1.363 . S
C548 H564 0.931 . S
C549 C548 1.370 1_455 S
C549 C553 1.408 . S
C550 C548 1.363 . S
C550 C551 1.370 1_655 S
C550 C554 1.524 . S
C551 C543 1.503 1_455 S
C551 C550 1.370 1_455 S
C551 C552 1.403 . S
C552 C551 1.403 . S
C552 C553 1.404 . S
C552 C555 1.539 . S
C553 C549 1.408 . S
C553 C552 1.404 . S
C553 H565 0.930 . S
C554 C550 1.524 . S
C554 H566 0.956 . S
C554 H567 0.961 . S
C554 H568 0.961 . S
C555 C552 1.539 . S
C555 H569 0.958 . S
C555 H570 0.961 . S
C555 H571 0.960 . S
H556 C540 0.931 . S
H557 C545 0.929 . S
H558 C546 0.960 . S
H559 C546 0.962 . S
H560 C546 0.960 . S
H561 C547 0.961 . S
H562 C547 0.961 . S
H563 C547 0.961 . S
H564 C548 0.931 . S
H565 C553 0.930 . S
H566 C554 0.956 . S
H567 C554 0.961 . S
H568 C554 0.961 . S
H569 C555 0.958 . S
H570 C555 0.961 . S
H571 C555 0.960 . S
C572 C573 1.391 . S
C572 C574 1.394 1_455 S
C572 H588 0.931 1_455 S
C573 C572 1.391 . S
C573 C577 1.376 . S
C574 C572 1.394 1_655 S
C574 C575 1.369 1_655 S
C574 C578 1.531 . S
C575 C574 1.369 1_455 S
C575 C576 1.410 . S
C575 C583 1.503 . S
C576 C575 1.410 . S
C576 C577 1.392 . S
C576 C579 1.511 . S
C577 C573 1.376 . S
C577 C576 1.392 . S
C577 H589 0.929 . S
C578 C574 1.531 . S
C578 H590 0.960 . S
C578 H591 0.962 . S
C578 H592 0.960 . S
C579 C576 1.511 . S
C579 H593 0.961 . S
C579 H594 0.961 . S
C579 H595 0.961 . S
C580 C581 1.370 . S
C580 C582 1.363 . S
C580 H596 0.931 . S
C581 C580 1.370 . S
C581 C585 1.408 . S
C582 C580 1.363 . S
C582 C583 1.370 1_655 S
C582 C586 1.524 . S
C583 C575 1.503 . S
C583 C582 1.370 1_455 S
C583 C584 1.403 . S
C584 C583 1.403 . S
C584 C585 1.404 1_455 S
C584 C587 1.539 . S
C585 C581 1.408 . S
C585 C584 1.404 1_655 S
C585 H597 0.930 1_655 S
C586 C582 1.524 . S
C586 H598 0.956 . S
C586 H599 0.961 . S
C586 H600 0.961 . S
C587 C584 1.539 . S
C587 H601 0.958 . S
C587 H602 0.961 . S
C587 H603 0.960 . S
H588 C572 0.931 1_655 S
H589 C577 0.929 . S
H590 C578 0.960 . S
H591 C578 0.962 . S
H592 C578 0.960 . S
H593 C579 0.961 . S
H594 C579 0.961 . S
H595 C579 0.961 . S
H596 C580 0.931 . S
H597 C585 0.930 1_455 S
H598 C586 0.956 . S
H599 C586 0.961 . S
H600 C586 0.961 . S
H601 C587 0.958 . S
H602 C587 0.961 . S
H603 C587 0.960 . S
C604 C605 1.391 . S
C604 C606 1.394 . S
C604 H620 0.931 . S
C605 C604 1.391 . S
C605 C609 1.376 . S
C606 C604 1.394 . S
C606 C607 1.369 . S
C606 C610 1.531 1_455 S
C607 C606 1.369 . S
C607 C608 1.410 . S
C607 C615 1.503 . S
C608 C607 1.410 . S
C608 C609 1.392 . S
C608 C611 1.511 . S
C609 C605 1.376 . S
C609 C608 1.392 . S
C609 H621 0.929 . S
C610 C606 1.531 1_655 S
C610 H622 0.960 1_655 S
C610 H623 0.962 . S
C610 H624 0.960 1_655 S
C611 C608 1.511 . S
C611 H625 0.961 . S
C611 H626 0.961 . S
C611 H627 0.961 . S
C612 C613 1.370 . S
C612 C614 1.363 . S
C612 H628 0.931 . S
C613 C612 1.370 . S
C613 C617 1.408 1_655 S
C614 C612 1.363 . S
C614 C615 1.370 1_655 S
C614 C618 1.524 . S
C615 C607 1.503 . S
C615 C614 1.370 1_455 S
C615 C616 1.403 . S
C616 C615 1.403 . S
C616 C617 1.404 . S
C616 C619 1.539 . S
C617 C613 1.408 1_455 S
C617 C616 1.404 . S
C617 H629 0.930 . S
C618 C614 1.524 . S
C618 H630 0.956 . S
C618 H631 0.961 . S
C618 H632 0.961 . S
C619 C616 1.539 . S
C619 H633 0.958 . S
C619 H634 0.961 . S
C619 H635 0.960 . S
H620 C604 0.931 . S
H621 C609 0.929 . S
H622 C610 0.960 1_455 S
H623 C610 0.962 . S
H624 C610 0.960 1_455 S
H625 C611 0.961 . S
H626 C611 0.961 . S
H627 C611 0.961 . S
H628 C612 0.931 . S
H629 C617 0.930 . S
H630 C618 0.956 . S
H631 C618 0.961 . S
H632 C618 0.961 . S
H633 C619 0.958 . S
H634 C619 0.961 . S
H635 C619 0.960 . S
C125 C11 1.514 . S
C133 C18 1.545 1_655 S
C157 C42 1.553 1_454 S
C165 C49 1.529 . S
C189 C73 1.515 . S
C197 C80 1.545 1_655 S
C221 C104 1.513 1_455 S
C229 C111 1.545 . S
C253 C41 1.578 . S
C261 C2 1.599 1_554 S
C285 C103 1.605 . S
C293 C64 1.590 . S
C317 C10 1.581 . S
C325 C33 1.600 1_554 S
C349 C95 1.584 . S
C357 C72 1.596 . S
C381 C93 1.127 . S
C389 C1 1.114 . S
C413 C31 1.101 . S
C421 C63 1.153 . S
C445 C86 1.139 . S
C453 C58 1.137 . S
C477 C24 1.081 . S
C485 C120 1.138 . S
C509 C62 1.135 . S
C517 C32 1.112 . S
C541 C94 1.164 . S
C549 C0 1.099 . S
C573 C27 1.084 . S
C581 C117 1.134 . S
C605 C89 1.076 . S
C613 C55 1.144 . S
