# Generated by pormake.
# Topology vbm, (6)-cn, num edge types: 1
# Building blocks:
#     Node 0, Type 0, BuildingBlock: KUMBUR_clean_sbu_1, # of connection points: 6
#     Node 1, Type 0, BuildingBlock: KUMBUR_clean_sbu_1, # of connection points: 6
#     Node 2, Type 0, BuildingBlock: KUMBUR_clean_sbu_1, # of connection points: 6
#     Node 3, Type 0, BuildingBlock: KUMBUR_clean_sbu_1, # of connection points: 6
#     Node 4, Type 0, BuildingBlock: KUMBUR_clean_sbu_1, # of connection points: 6
#     Node 5, Type 0, BuildingBlock: KUMBUR_clean_sbu_1, # of connection points: 6
#     Node 6, Type 0, BuildingBlock: KUMBUR_clean_sbu_1, # of connection points: 6
#     Node 7, Type 0, BuildingBlock: KUMBUR_clean_sbu_1, # of connection points: 6
#     Node 8, Type 0, BuildingBlock: KUMBUR_clean_sbu_1, # of connection points: 6
#     Node 9, Type 0, BuildingBlock: KUMBUR_clean_sbu_1, # of connection points: 6
#     Node 10, Type 0, BuildingBlock: KUMBUR_clean_sbu_1, # of connection points: 6
#     Node 11, Type 0, BuildingBlock: KUMBUR_clean_sbu_1, # of connection points: 6
#     Node 12, Type 0, BuildingBlock: KUMBUR_clean_sbu_1, # of connection points: 6
#     Node 13, Type 0, BuildingBlock: KUMBUR_clean_sbu_1, # of connection points: 6
#     Node 14, Type 0, BuildingBlock: KUMBUR_clean_sbu_1, # of connection points: 6
#     Node 15, Type 0, BuildingBlock: KUMBUR_clean_sbu_1, # of connection points: 6
#     Edge 16, Type (0, 0), BuildingBlock: OJICUG_clean_linker_0, # of connection points: 2
#     Edge 17, Type (0, 0), BuildingBlock: OJICUG_clean_linker_0, # of connection points: 2
#     Edge 18, Type (0, 0), BuildingBlock: OJICUG_clean_linker_0, # of connection points: 2
#     Edge 19, Type (0, 0), BuildingBlock: OJICUG_clean_linker_0, # of connection points: 2
#     Edge 20, Type (0, 0), BuildingBlock: OJICUG_clean_linker_0, # of connection points: 2
#     Edge 21, Type (0, 0), BuildingBlock: OJICUG_clean_linker_0, # of connection points: 2
#     Edge 22, Type (0, 0), BuildingBlock: OJICUG_clean_linker_0, # of connection points: 2
#     Edge 23, Type (0, 0), BuildingBlock: OJICUG_clean_linker_0, # of connection points: 2
#     Edge 24, Type (0, 0), BuildingBlock: OJICUG_clean_linker_0, # of connection points: 2
#     Edge 25, Type (0, 0), BuildingBlock: OJICUG_clean_linker_0, # of connection points: 2
#     Edge 26, Type (0, 0), BuildingBlock: OJICUG_clean_linker_0, # of connection points: 2
#     Edge 27, Type (0, 0), BuildingBlock: OJICUG_clean_linker_0, # of connection points: 2
#     Edge 28, Type (0, 0), BuildingBlock: OJICUG_clean_linker_0, # of connection points: 2
#     Edge 29, Type (0, 0), BuildingBlock: OJICUG_clean_linker_0, # of connection points: 2
#     Edge 30, Type (0, 0), BuildingBlock: OJICUG_clean_linker_0, # of connection points: 2
#     Edge 31, Type (0, 0), BuildingBlock: OJICUG_clean_linker_0, # of connection points: 2
#     Edge 32, Type (0, 0), BuildingBlock: OJICUG_clean_linker_0, # of connection points: 2
#     Edge 33, Type (0, 0), BuildingBlock: OJICUG_clean_linker_0, # of connection points: 2
#     Edge 34, Type (0, 0), BuildingBlock: OJICUG_clean_linker_0, # of connection points: 2
#     Edge 35, Type (0, 0), BuildingBlock: OJICUG_clean_linker_0, # of connection points: 2
#     Edge 36, Type (0, 0), BuildingBlock: OJICUG_clean_linker_0, # of connection points: 2
#     Edge 37, Type (0, 0), BuildingBlock: OJICUG_clean_linker_0, # of connection points: 2
#     Edge 38, Type (0, 0), BuildingBlock: OJICUG_clean_linker_0, # of connection points: 2
#     Edge 39, Type (0, 0), BuildingBlock: OJICUG_clean_linker_0, # of connection points: 2
#     Edge 40, Type (0, 0), BuildingBlock: OJICUG_clean_linker_0, # of connection points: 2
#     Edge 41, Type (0, 0), BuildingBlock: OJICUG_clean_linker_0, # of connection points: 2
#     Edge 42, Type (0, 0), BuildingBlock: OJICUG_clean_linker_0, # of connection points: 2
#     Edge 43, Type (0, 0), BuildingBlock: OJICUG_clean_linker_0, # of connection points: 2
#     Edge 44, Type (0, 0), BuildingBlock: OJICUG_clean_linker_0, # of connection points: 2
#     Edge 45, Type (0, 0), BuildingBlock: OJICUG_clean_linker_0, # of connection points: 2
#     Edge 46, Type (0, 0), BuildingBlock: OJICUG_clean_linker_0, # of connection points: 2
#     Edge 47, Type (0, 0), BuildingBlock: OJICUG_clean_linker_0, # of connection points: 2
#     Edge 48, Type (0, 0), BuildingBlock: OJICUG_clean_linker_0, # of connection points: 2
#     Edge 49, Type (0, 0), BuildingBlock: OJICUG_clean_linker_0, # of connection points: 2
#     Edge 50, Type (0, 0), BuildingBlock: OJICUG_clean_linker_0, # of connection points: 2
#     Edge 51, Type (0, 0), BuildingBlock: OJICUG_clean_linker_0, # of connection points: 2
#     Edge 52, Type (0, 0), BuildingBlock: OJICUG_clean_linker_0, # of connection points: 2
#     Edge 53, Type (0, 0), BuildingBlock: OJICUG_clean_linker_0, # of connection points: 2
#     Edge 54, Type (0, 0), BuildingBlock: OJICUG_clean_linker_0, # of connection points: 2
#     Edge 55, Type (0, 0), BuildingBlock: OJICUG_clean_linker_0, # of connection points: 2
#     Edge 56, Type (0, 0), BuildingBlock: OJICUG_clean_linker_0, # of connection points: 2
#     Edge 57, Type (0, 0), BuildingBlock: OJICUG_clean_linker_0, # of connection points: 2
#     Edge 58, Type (0, 0), BuildingBlock: OJICUG_clean_linker_0, # of connection points: 2
#     Edge 59, Type (0, 0), BuildingBlock: OJICUG_clean_linker_0, # of connection points: 2
#     Edge 60, Type (0, 0), BuildingBlock: OJICUG_clean_linker_0, # of connection points: 2
#     Edge 61, Type (0, 0), BuildingBlock: OJICUG_clean_linker_0, # of connection points: 2
#     Edge 62, Type (0, 0), BuildingBlock: OJICUG_clean_linker_0, # of connection points: 2
#     Edge 63, Type (0, 0), BuildingBlock: OJICUG_clean_linker_0, # of connection points: 2
# Relax obj value: 0.077
# Max RMSD: 0.148
# Mean RMSD: 0.148
data_MOF--net-vbm--node1-KUMBUR_clean_sbu_1--edge1-OJICUG_clean_linker_0
_symmetry_space_group_name_H-M    P1
_symmetry_Int_Tables_number       1
_symmetry_cell_setting            triclinic
loop_
_symmetry_equiv_pos_as_xyz
'x, y, z'
_cell_length_a     38.285862
_cell_length_b     20.465475
_cell_length_c     41.644855
_cell_angle_alpha  90.074672
_cell_angle_beta   89.998398
_cell_angle_gamma 90.103311
loop_
_atom_site_label
_atom_site_type_symbol
_atom_site_fract_x
_atom_site_fract_y
_atom_site_fract_z
_atom_type_partial_charge
Tb0 Tb 0.11933 0.21274 0.14923 0.0
C1 C 0.23983 0.07211 0.09719 0.0
N2 N 0.20726 0.07581 0.08443 0.0
C3 C 0.23103 0.12323 0.03651 0.0
C4 C 0.26899 0.09822 0.08114 0.0
C5 C 0.20289 0.09686 0.05363 0.0
C6 C 0.26423 0.12444 0.05043 0.0
C7 C 0.27541 0.04498 0.14301 0.0
C8 C 0.24287 0.04656 0.12759 0.0
C9 C 0.30445 0.07323 0.12781 0.0
C10 C 0.30143 0.09918 0.09678 0.0
Tb11 Tb 0.16176 0.04657 0.11754 0.0
N12 N 0.21384 0.02193 0.14178 0.0
C13 C 0.27756 1.01427 0.17294 0.0
C14 C 0.21738 0.98138 0.1675 0.0
C15 C 0.24891 0.97907 0.1844 0.0
H16 H 0.17783 0.0929 0.04227 0.0
H17 H 0.25104 0.95047 0.20615 0.0
H18 H 0.12998 0.23073 0.22799 0.0
H19 H 0.00964 0.26659 0.07232 0.0
H20 H 0.19572 0.9514 0.17514 0.0
H21 H 0.30139 1.0148 0.18666 0.0
H22 H 0.07149 0.24356 0.08476 0.0
H23 H 0.22715 0.1417 0.01243 0.0
H24 H 0.32934 0.07445 0.13956 0.0
H25 H 0.32421 0.12013 0.08525 0.0
H26 H 0.09333 0.25735 0.27496 0.0
H27 H 0.28596 0.1451 0.03721 0.0
H28 H 0.96668 0.27575 0.11658 0.0
N29 N 0.0875 0.232 0.19487 0.0
C30 C 0.05303 0.2442 0.19062 0.0
C31 C 0.08159 0.2531 0.25141 0.0
C32 C 0.03114 0.25968 0.21673 0.0
C33 C 0.10217 0.23751 0.22477 0.0
C34 C 0.04593 0.26442 0.24735 0.0
N35 N 0.06315 0.23731 0.13524 0.0
C36 C 0.05292 0.24756 0.10413 0.0
C37 C 1.00505 0.2615 0.15381 0.0
C38 C 0.04035 0.24653 0.15969 0.0
C39 C 0.99378 0.26653 0.12198 0.0
C40 C 0.01795 0.26097 0.097 0.0
H41 H 0.03023 0.27835 0.26786 0.0
H42 H 0.97824 0.28382 0.23103 0.0
H43 H 0.95518 0.28411 0.17578 0.0
O44 O 0.12327 0.3026 0.12423 0.0
O45 O 0.08132 0.14015 0.1323 0.0
O46 O 0.10782 0.03869 0.1378 0.0
O47 O 0.14062 0.29423 0.17287 0.0
O48 O 0.13378 0.2033 0.09714 0.0
O49 O 0.12385 0.09488 0.08697 0.0
O50 O 0.16576 0.9436 0.12128 0.0
O51 O 0.18829 0.14429 0.11419 0.0
O52 O 0.17308 0.18684 0.16146 0.0
O53 O 0.15158 0.98945 0.07621 0.0
O54 O 0.15422 0.04461 0.17003 0.0
O55 O 0.12556 0.13861 0.18843 0.0
C56 C 0.07959 0.07633 0.13608 0.0
C57 C 0.11682 0.39623 0.15769 0.0
C58 C 0.11175 0.51404 0.14938 0.0
C59 C 0.09252 0.51913 0.17792 0.0
C60 C 0.09708 0.40252 0.18598 0.0
C61 C 0.08467 0.46341 0.19575 0.0
C62 C 0.12276 0.45196 0.13877 0.0
C63 C 0.12599 0.15531 0.07695 0.0
C64 C 0.13428 0.33397 0.14938 0.0
C65 C 0.9956 0.2726 0.21123 0.0
C66 C 0.98248 0.27285 0.1798 0.0
C67 C 0.19615 0.1821 0.13866 0.0
C68 C 0.15438 0.87023 0.0763 0.0
C69 C 0.14624 0.75133 0.07957 0.0
C70 C 0.15232 0.74767 0.04622 0.0
C71 C 0.15805 0.8649 0.04295 0.0
C72 C 0.14802 0.81339 0.09459 0.0
C73 C 0.15772 0.80398 0.02815 0.0
C74 C 0.13975 0.07999 0.1931 0.0
C75 C 0.1571 0.93527 0.09153 0.0
H76 H 0.0835 0.56627 0.18636 0.0
H77 H 0.09196 0.36107 0.20114 0.0
H78 H 0.06971 0.46764 0.2177 0.0
H79 H 0.13745 0.44745 0.11672 0.0
H80 H 0.15292 0.70121 0.03382 0.0
H81 H 0.16147 0.90777 0.02824 0.0
H82 H 0.14355 0.81805 0.12017 0.0
H83 H 0.16167 0.80035 1.00248 0.0
Tb84 Tb 0.89603 0.82368 0.14999 0.0
C85 C 0.7777 0.96613 0.0953 0.0
N86 N 0.81053 0.96123 0.08303 0.0
C87 C 0.78738 0.92469 0.03261 0.0
C88 C 0.74838 0.94881 0.07666 0.0
C89 C 0.81565 0.94294 0.05186 0.0
C90 C 0.75355 0.92816 0.04495 0.0
C91 C 0.7407 0.98134 0.14184 0.0
C92 C 0.77409 0.98166 0.12771 0.0
C93 C 0.71134 0.96583 0.12311 0.0
C94 C 0.7151 0.94978 0.09064 0.0
Tb95 Tb 0.85473 0.988 0.11729 0.0
N96 N 0.80334 0.9934 0.14566 0.0
C97 C 0.73785 0.99542 0.17453 0.0
C98 C 0.80006 1.01142 0.17716 0.0
C99 C 0.76748 1.01161 0.19213 0.0
H100 H 0.84143 0.94365 0.04168 0.0
H101 H 0.76523 0.02471 0.21723 0.0
H102 H 0.87887 0.80297 0.22714 0.0
H103 H 0.01164 0.77776 0.0792 0.0
H104 H 0.82185 0.02717 0.19118 0.0
H105 H 0.71294 0.99457 0.1864 0.0
H106 H 0.94994 0.80719 0.08811 0.0
H107 H 0.79167 0.90935 0.00803 0.0
H108 H 0.68564 0.96504 0.13359 0.0
H109 H 0.69219 0.93665 0.07677 0.0
H110 H 0.91089 0.76971 0.27598 0.0
H111 H 0.73168 0.91424 0.02991 0.0
H112 H 0.04927 0.74889 0.12538 0.0
N113 N 0.92343 0.79644 0.19676 0.0
C114 C 0.95755 0.77972 0.19436 0.0
C115 C 0.92442 0.77276 0.25321 0.0
C116 C 0.97679 0.75983 0.22146 0.0
C117 C 0.90649 0.79225 0.22558 0.0
C118 C 0.95972 0.75633 0.25113 0.0
N119 N 0.95288 0.79806 0.13893 0.0
C120 C 0.96614 0.7955 0.10845 0.0
C121 C 1.00807 0.76225 0.16043 0.0
C122 C 0.97282 0.78033 0.16437 0.0
C123 C 0.02224 0.76224 0.12944 0.0
C124 C 1.00109 0.77855 0.10331 0.0
H125 H 0.97346 0.74055 0.27249 0.0
H126 H 0.02749 0.72808 0.23851 0.0
H127 H 0.05499 0.73063 0.18501 0.0
O128 O 0.89756 0.73125 0.12691 0.0
O129 O 0.93695 0.89686 0.14295 0.0
O130 O 0.91235 0.99455 0.12443 0.0
O131 O 0.86671 0.74654 0.16922 0.0
O132 O 0.8845 0.83448 0.09725 0.0
O133 O 0.89251 0.94327 0.0854 0.0
O134 O 0.84864 0.08945 0.12663 0.0
O135 O 0.8284 0.89049 0.11398 0.0
O136 O 0.84292 0.85263 0.16204 0.0
O137 O 0.8521 0.0526 0.07878 0.0
O138 O 0.87366 0.99868 0.16638 0.0
O139 O 0.88777 0.89736 0.18891 0.0
C140 C 0.93932 0.95851 0.13414 0.0
C141 C 0.8901 0.64033 0.16223 0.0
C142 C 0.89528 0.52226 0.15568 0.0
C143 C 0.89928 0.5154 0.18893 0.0
C144 C 0.89411 0.63202 0.19557 0.0
C145 C 0.89936 0.57024 0.20868 0.0
C146 C 0.89222 0.58501 0.14215 0.0
C147 C 0.89279 0.88169 0.07678 0.0
C148 C 0.87847 0.70377 0.14889 0.0
C149 C 0.01215 0.74293 0.21792 0.0
C150 C 0.0278 0.74434 0.18746 0.0
C151 C 0.8203 0.85446 0.13886 0.0
C152 C 0.87623 0.15725 0.08738 0.0
C153 C 0.89456 0.27246 0.09013 0.0
C154 C 0.91685 0.26076 0.06376 0.0
C155 C 0.90023 0.14705 0.06234 0.0
C156 C 0.87414 0.21959 0.10174 0.0
C157 C 0.9202 0.19853 0.05064 0.0
C158 C 0.88275 0.96167 0.19085 0.0
C159 C 0.85146 0.10462 0.09646 0.0
H160 H 0.90201 0.46742 0.19961 0.0
H161 H 0.89168 0.67248 0.21187 0.0
H162 H 0.90215 0.56464 0.2344 0.0
H163 H 0.88906 0.59017 0.11642 0.0
H164 H 0.93182 0.29953 0.05276 0.0
H165 H 0.90296 0.09965 0.05102 0.0
H166 H 0.85651 0.22625 0.12178 0.0
H167 H 0.93791 0.19045 0.03077 0.0
Tb168 Tb 0.11203 0.83081 0.36354 0.0
C169 C 0.23883 0.96608 0.40391 0.0
N170 N 0.20795 0.96512 0.41999 0.0
C171 C 0.23677 0.92786 0.46761 0.0
C172 C 0.26985 0.94575 0.41902 0.0
C173 C 0.20657 0.94801 0.45162 0.0
C174 C 0.26863 0.92721 0.45134 0.0
C175 C 0.26904 0.97598 0.35312 0.0
C176 C 0.23824 0.97985 0.37114 0.0
C177 C 0.29951 0.95416 0.36795 0.0
C178 C 0.30036 0.93994 0.40077 0.0
Tb179 Tb 0.16021 0.99041 0.39008 0.0
N180 N 0.20736 0.9948 0.35678 0.0
C181 C 0.26826 0.99356 0.32066 0.0
C182 C 0.20724 1.01975 0.32636 0.0
C183 C 0.23739 1.01763 0.30749 0.0
H184 H 0.18218 0.94943 0.46445 0.0
H185 H 0.23689 0.0353 0.283 0.0
H186 H 0.09451 0.84988 0.28566 0.0
H187 H 0.0271 0.78662 0.46571 0.0
H188 H 0.18448 0.04338 0.31672 0.0
H189 H 0.29156 0.99129 0.30597 0.0
H190 H 0.08261 0.78411 0.4368 0.0
H191 H 0.23541 0.91237 0.49241 0.0
H192 H 0.32211 0.94674 0.35379 0.0
H193 H 0.32439 0.92257 0.4115 0.0
H194 H 0.04257 0.87206 0.25248 0.0
H195 H 0.2919 0.91064 0.46367 0.0
H196 H 0.97295 0.81619 0.43723 0.0
N197 N 0.06577 0.84248 0.32933 0.0
C198 C 0.03358 0.84067 0.34321 0.0
C199 C 0.03974 0.86369 0.27801 0.0
C200 C 1.00321 0.85253 0.32507 0.0
C201 C 0.06917 0.85182 0.29697 0.0
C202 C 1.0067 0.86515 0.2922 0.0
N203 N 0.06165 0.82301 0.39324 0.0
C204 C 0.05993 0.80209 0.42439 0.0
C205 C 0.99873 0.83036 0.39156 0.0
C206 C 0.03152 0.83114 0.37622 0.0
C207 C 0.99746 0.81693 0.42444 0.0
C208 C 0.02808 0.80098 0.44072 0.0
H209 H 0.98406 0.876 0.27757 0.0
H210 H 0.94691 0.86282 0.32695 0.0
H211 H 0.94304 0.84311 0.38508 0.0
O212 O 0.12317 0.7353 0.38043 0.0
O213 O 0.08292 0.92294 0.36151 0.0
O214 O 0.10325 0.99268 0.40044 0.0
O215 O 0.09725 0.75075 0.33543 0.0
O216 O 0.13042 0.83937 0.41482 0.0
O217 O 0.12811 0.94918 0.42771 0.0
O218 O 0.16108 0.08891 0.37508 0.0
O219 O 0.18597 0.89088 0.39208 0.0
O220 O 0.16719 0.83318 0.34882 0.0
O221 O 0.17211 0.06338 0.42387 0.0
O222 O 0.13502 0.99302 0.34272 0.0
O223 O 0.13857 0.88655 0.3244 0.0
C224 C 0.07747 0.96815 0.38313 0.0
C225 C 0.12536 0.64944 0.34155 0.0
C226 C 0.13304 0.53077 0.34204 0.0
C227 C 0.14881 0.5349 0.31162 0.0
C228 C 0.14261 0.65261 0.31187 0.0
C229 C 0.15391 0.59545 0.29689 0.0
C230 C 0.12053 0.58845 0.35656 0.0
C231 C 0.1269 0.88745 0.43609 0.0
C232 C 0.10885 0.70771 0.35551 0.0
C233 C 0.97057 0.85338 0.34044 0.0
C234 C 0.96836 0.84231 0.37359 0.0
C235 C 0.19234 0.84805 0.36895 0.0
C236 C 0.14582 0.16668 0.41476 0.0
C237 C 0.12806 0.28118 0.40863 0.0
C238 C 0.10961 0.27634 0.43777 0.0
C239 C 0.12658 0.16305 0.4434 0.0
C240 C 0.14621 0.22566 0.39731 0.0
C241 C 0.10888 0.21775 0.45487 0.0
C242 C 0.13498 0.9503 0.3191 0.0
C243 C 0.16723 0.11091 0.40377 0.0
H244 H 0.15798 0.4913 0.29953 0.0
H245 H 0.14654 0.69903 0.29991 0.0
H246 H 0.16673 0.59801 0.27376 0.0
H247 H 0.10775 0.58619 0.37977 0.0
H248 H 0.09606 0.3181 0.4477 0.0
H249 H 0.12559 0.1183 0.45724 0.0
H250 H 0.1607 0.22808 0.37499 0.0
H251 H 0.09455 0.21479 0.47722 0.0
Tb252 Tb 0.90359 0.20769 0.36339 0.0
C253 C 0.77339 0.07532 0.39828 0.0
N254 N 0.8034 0.07417 0.41575 0.0
C255 C 0.77254 0.11067 0.46246 0.0
C256 C 0.74183 0.09596 0.41221 0.0
C257 C 0.80333 0.08975 0.44764 0.0
C258 C 0.74162 0.11344 0.44474 0.0
C259 C 0.74508 0.06487 0.34647 0.0
C260 C 0.77535 0.06194 0.36557 0.0
C261 C 0.7136 0.08557 0.3602 0.0
C262 C 0.712 0.10147 0.39294 0.0
Tb263 Tb 0.85261 0.04806 0.38798 0.0
N264 N 0.80682 0.04594 0.35257 0.0
C265 C 0.74725 0.04625 0.31421 0.0
C266 C 0.80805 1.02038 0.32223 0.0
C267 C 0.77873 0.02217 0.30228 0.0
H268 H 0.82716 0.08754 0.46138 0.0
H269 H 0.78025 1.00361 0.27797 0.0
H270 H 0.92673 0.185 0.28699 0.0
H271 H 0.98198 0.25801 0.46942 0.0
H272 H 0.83097 0.99596 0.3135 0.0
H273 H 0.72449 0.04759 0.29876 0.0
H274 H 0.92866 0.26104 0.4371 0.0
H275 H 0.7727 0.12498 0.48748 0.0
H276 H 0.69055 0.08935 0.34545 0.0
H277 H 0.68783 0.11882 0.40321 0.0
H278 H 0.98025 0.15481 0.25767 0.0
H279 H 0.71788 0.13014 0.45625 0.0
H280 H 0.03736 0.22132 0.44519 0.0
N281 N 0.95216 0.19212 0.33232 0.0
C282 C 0.98325 0.1925 0.34818 0.0
C283 C 0.98139 0.16488 0.28317 0.0
C284 C 0.01456 0.17661 0.33224 0.0
C285 C 0.95102 0.18122 0.29994 0.0
C286 C 0.01319 0.16134 0.29951 0.0
N287 N 0.95195 0.21621 0.39589 0.0
C288 C 0.9519 0.24056 0.42652 0.0
C289 C 0.01463 0.20425 0.39836 0.0
C290 C 0.98304 0.20435 0.38103 0.0
C291 C 0.01383 0.22105 0.4309 0.0
C292 C 0.9825 0.24112 0.44478 0.0
H293 H 0.03658 0.14743 0.28657 0.0
H294 H 0.07023 0.16163 0.33793 0.0
H295 H 0.07024 0.18624 0.39566 0.0
O296 O 0.89241 0.30441 0.37869 0.0
O297 O 0.93089 0.11374 0.36093 0.0
O298 O 0.9094 0.04417 0.39926 0.0
O299 O 0.91981 0.28601 0.33475 0.0
O300 O 0.88443 0.19777 0.41443 0.0
O301 O 0.88404 0.08731 0.42677 0.0
O302 O 0.85196 0.94986 0.3724 0.0
O303 O 0.82875 0.14806 0.39208 0.0
O304 O 0.84832 0.20592 0.34922 0.0
O305 O 0.8396 0.97442 0.42105 0.0
O306 O 0.87851 0.04785 0.34116 0.0
O307 O 0.87833 0.15444 0.32257 0.0
C308 C 0.93577 0.06906 0.38285 0.0
C309 C 0.89186 0.38842 0.33877 0.0
C310 C 0.88405 0.50726 0.33851 0.0
C311 C 0.87073 0.50269 0.30712 0.0
C312 C 0.87696 0.38492 0.30803 0.0
C313 C 0.8668 0.44191 0.29223 0.0
C314 C 0.89544 0.44968 0.35388 0.0
C315 C 0.88671 0.14887 0.4354 0.0
C316 C 0.90762 0.33039 0.35385 0.0
C317 C 0.0459 0.17431 0.34966 0.0
C318 C 0.04591 0.18818 0.38261 0.0
C319 C 0.82337 0.19269 0.36978 0.0
C320 C 0.86683 0.87175 0.41194 0.0
C321 C 0.88547 0.75751 0.40572 0.0
C322 C 0.903 0.76253 0.43535 0.0
C323 C 0.88551 0.87557 0.44088 0.0
C324 C 0.86731 0.81294 0.39423 0.0
C325 C 0.90318 0.82112 0.45254 0.0
C326 C 0.87977 0.09023 0.31741 0.0
C327 C 0.84525 0.92726 0.40083 0.0
H328 H 0.86252 0.54609 0.29433 0.0
H329 H 0.87409 0.33839 0.29588 0.0
H330 H 0.85591 0.43904 0.26829 0.0
H331 H 0.90648 0.45226 0.37783 0.0
H332 H 0.91638 0.721 0.44564 0.0
H333 H 0.88601 0.92025 0.45484 0.0
H334 H 0.85352 0.81075 0.37154 0.0
H335 H 0.91701 0.8242 0.47516 0.0
Tb336 Tb 0.86275 1.00205 0.89689 0.0
C337 C 0.979 0.83831 0.84531 0.0
N338 N 0.94749 0.84643 0.83089 0.0
C339 C 0.97585 0.87762 0.78192 0.0
C340 C 0.01026 0.85267 0.82899 0.0
C341 C 0.94552 0.86275 0.79912 0.0
C342 C 1.00827 0.87431 0.79721 0.0
C343 C 0.01138 0.81395 0.89364 0.0
C344 C 0.97937 0.82134 0.87742 0.0
C345 C 0.04267 0.82866 0.87761 0.0
C346 C 0.04218 0.84805 0.84537 0.0
Tb347 Tb 0.8994 0.8387 0.86322 0.0
N348 N 0.94835 0.8119 0.89264 0.0
C349 C 0.01088 0.79165 0.92536 0.0
C350 C 0.94808 0.78284 0.92225 0.0
C351 C 0.97914 0.77413 0.93937 0.0
H352 H 0.92053 0.86657 0.78733 0.0
H353 H 0.97857 0.75347 0.96328 0.0
H354 H 0.87701 0.03007 0.97404 0.0
H355 H 0.7452 0.9884 0.82549 0.0
H356 H 0.92417 0.76548 0.93298 0.0
H357 H 0.03479 0.78537 0.93879 0.0
H358 H 0.80889 0.98742 0.8345 0.0
H359 H 0.97416 0.89273 0.75707 0.0
H360 H 0.06734 0.82563 0.88992 0.0
H361 H 0.06655 0.85973 0.83343 0.0
H362 H 0.84204 0.06664 0.02018 0.0
H363 H 0.0316 0.88853 0.78429 0.0
H364 H 0.70504 1.00574 0.87123 0.0
N365 N 0.83305 1.02012 0.94316 0.0
C366 C 0.79783 0.02401 0.94014 0.0
C367 C 0.82917 0.05326 0.99811 0.0
C368 C 0.77665 0.04033 0.96656 0.0
C369 C 0.8489 0.03231 0.97191 0.0
C370 C 0.79284 0.05687 0.99558 0.0
N371 N 0.80471 1.0019 0.88491 0.0
C372 C 0.79166 0.99476 0.8546 0.0
C373 C 0.74666 1.01547 0.90612 0.0
C374 C 0.78311 1.0142 0.91009 0.0
C375 C 0.73294 1.00522 0.87535 0.0
C376 C 0.75556 0.9954 0.84944 0.0
H377 H 0.77758 0.07184 0.01622 0.0
H378 H 0.72339 0.05162 0.98317 0.0
H379 H 0.69724 0.02534 0.93088 0.0
O380 O 0.85944 0.08957 0.87009 0.0
O381 O 0.82764 0.9127 0.90215 0.0
O382 O 0.84397 0.85929 0.85725 0.0
O383 O 0.87663 0.08971 0.9193 0.0
O384 O 0.87718 1.00289 0.84596 0.0
O385 O 0.87316 0.89821 0.82573 0.0
O386 O 0.88882 0.74027 0.87508 0.0
O387 O 0.93203 0.92783 0.85812 0.0
O388 O 0.91971 0.98718 0.90298 0.0
O389 O 0.89396 0.77056 0.82604 0.0
O390 O 0.88377 0.84329 0.91565 0.0
O391 O 0.89634 0.94908 0.92939 0.0
C392 C 0.82252 0.86429 0.88141 0.0
C393 C 0.85164 0.18684 0.90056 0.0
C394 C 0.85165 0.30509 0.89479 0.0
C395 C 0.82594 0.30938 0.91878 0.0
C396 C 0.82568 0.19187 0.92419 0.0
C397 C 0.81302 0.2529 0.9333 0.0
C398 C 0.86423 0.24344 0.88563 0.0
C399 C 0.87483 0.96232 0.82161 0.0
C400 C 0.86962 0.12505 0.89435 0.0
C401 C 0.74023 0.04081 0.96294 0.0
C402 C 0.7253 0.02685 0.93297 0.0
C403 C 0.94198 0.96822 0.88082 0.0
C404 C 0.90762 0.66061 0.83747 0.0
C405 C 0.90843 0.54175 0.84054 0.0
C406 C 0.93496 0.54037 0.81726 0.0
C407 C 0.93466 0.65859 0.81468 0.0
C408 C 0.89495 0.60218 0.85058 0.0
C409 C 0.94817 0.59859 0.80465 0.0
C410 C 0.89163 0.88812 0.93764 0.0
C411 C 0.88938 0.72167 0.84526 0.0
H412 H 0.8157 0.35635 0.92618 0.0
H413 H 0.81601 0.14923 0.9364 0.0
H414 H 0.79324 0.2565 0.95179 0.0
H415 H 0.8851 0.23972 0.86809 0.0
H416 H 0.94575 0.49434 0.80913 0.0
H417 H 0.9448 0.70305 0.80408 0.0
H418 H 0.87371 0.60371 0.86782 0.0
H419 H 0.96869 0.59718 0.78678 0.0
Tb420 Tb 0.16783 0.03699 0.89389 0.0
C421 C 0.04175 0.19686 0.8542 0.0
N422 N 0.07193 0.19466 0.83719 0.0
C423 C 0.0395 0.17551 0.78879 0.0
C424 C 0.00914 0.18667 0.83933 0.0
C425 C 0.07112 0.18673 0.80464 0.0
C426 C 1.00836 0.17466 0.80628 0.0
C427 C 0.01326 0.214 0.90524 0.0
C428 C 0.04394 0.2088 0.88666 0.0
C429 C 0.98062 0.20203 0.8909 0.0
C430 C 0.97857 0.1882 0.85797 0.0
Tb431 Tb 0.12298 0.20005 0.86576 0.0
N432 N 0.07606 0.2193 0.89954 0.0
C433 C 0.01627 0.23355 0.93729 0.0
C434 C 0.07841 0.24683 0.92946 0.0
C435 C 0.04892 0.25187 0.94917 0.0
H436 H 0.09484 0.18858 0.79081 0.0
H437 H 0.05135 0.27102 0.97331 0.0
H438 H 0.15971 1.0085 0.97221 0.0
H439 H 0.28005 0.06435 0.81562 0.0
H440 H 0.10285 0.26575 0.93844 0.0
H441 H 0.9934 0.23806 0.95246 0.0
H442 H 0.21754 0.05771 0.82749 0.0
H443 H 0.03921 0.16751 0.7631 0.0
H444 H 0.95679 0.20487 0.90486 0.0
H445 H 0.95325 0.17983 0.84708 0.0
H446 H 0.20004 0.98647 0.01725 0.0
H447 H 0.98389 0.16548 0.79402 0.0
H448 H 0.32325 0.05467 0.85927 0.0
N449 N 0.20074 0.02534 0.93871 0.0
C450 C 0.23586 0.0279 0.93352 0.0
C451 C 0.21022 0.99885 0.99391 0.0
C452 C 0.2595 1.01818 0.95893 0.0
C453 C 0.18756 1.0121 0.96848 0.0
C454 C 0.24628 1.00257 0.98926 0.0
N455 N 0.22463 0.0455 0.87797 0.0
C456 C 0.23571 0.05342 0.84702 0.0
C457 C 0.28427 0.04216 0.89643 0.0
C458 C 0.24816 0.03793 0.90231 0.0
C459 C 0.29572 0.052 0.86489 0.0
C460 C 0.27136 0.05731 0.84011 0.0
H461 H 0.26364 0.99339 0.00929 0.0
H462 H 0.31408 1.01763 0.97258 0.0
H463 H 0.33539 0.0426 0.91837 0.0
O464 O 0.15121 0.95101 0.86976 0.0
O465 O 0.19909 0.13051 0.89799 0.0
O466 O 0.17842 0.18701 0.85553 0.0
O467 O 0.18319 0.94575 0.91159 0.0
O468 O 0.15778 0.04021 0.84257 0.0
O469 O 0.14181 0.14292 0.82361 0.0
O470 O 0.13004 0.29862 0.87996 0.0
O471 O 0.09414 0.10746 0.85939 0.0
O472 O 0.11041 0.04394 0.90222 0.0
O473 O 0.12783 0.27238 0.83039 0.0
O474 O 0.14245 0.18931 0.91673 0.0
O475 O 0.134 0.08117 0.92944 0.0
C476 C 0.20196 0.18012 0.87785 0.0
C477 C 0.14309 0.86159 0.90529 0.0
C478 C 0.12322 0.74832 0.90696 0.0
C479 C 0.10781 0.76072 0.93704 0.0
C480 C 0.12585 0.87359 0.93448 0.0
C481 C 0.10876 0.82311 0.95043 0.0
C482 C 0.14158 0.79896 0.89142 0.0
C483 C 0.14967 0.08029 0.81914 0.0
C484 C 0.16518 0.91268 0.89107 0.0
C485 C 0.29549 0.02348 0.95319 0.0
C486 C 0.30772 0.03665 0.92217 0.0
C487 C 0.08664 0.06332 0.88119 0.0
C488 C 0.10799 0.37805 0.84389 0.0
C489 C 0.09789 0.49545 0.84901 0.0
C490 C 0.06901 0.48949 0.82837 0.0
C491 C 0.07867 0.37327 0.82372 0.0
C492 C 0.11766 0.43949 0.85641 0.0
C493 C 0.05954 0.42883 0.81586 0.0
C494 C 0.13555 0.14275 0.93807 0.0
C495 C 0.12964 0.3202 0.8507 0.0
H496 H 0.09423 0.72236 0.94991 0.0
H497 H 0.12637 0.92165 0.94535 0.0
H498 H 0.09615 0.83234 0.97325 0.0
H499 H 0.15415 0.79009 0.8685 0.0
H500 H 0.05362 0.53194 0.82204 0.0
H501 H 0.07071 0.32683 0.81367 0.0
H502 H 0.14008 0.44351 0.87223 0.0
H503 H 0.03719 0.42484 0.80005 0.0
Tb504 Tb 0.85362 0.04458 0.61943 0.0
C505 C 0.96789 0.23497 0.68091 0.0
N506 N 0.93368 0.22633 0.68836 0.0
C507 C 0.94629 0.24897 0.74385 0.0
C508 C 0.99294 0.24844 0.70484 0.0
C509 C 0.92249 0.2358 0.71926 0.0
C510 C 0.9817 0.25503 0.73661 0.0
C511 C 0.01156 0.25301 0.63976 0.0
C512 C 0.97692 0.23891 0.64893 0.0
C513 C 0.03725 0.26115 0.66351 0.0
C514 C 0.02789 0.25939 0.69604 0.0
Tb515 Tb 0.89634 0.21032 0.64596 0.0
N516 N 0.95109 0.23336 0.62681 0.0
C517 C 0.01898 0.26133 0.60711 0.0
C518 C 0.95776 0.24598 0.59511 0.0
C519 C 0.99184 0.25868 0.58473 0.0
H520 H 0.8949 0.23501 0.72478 0.0
H521 H 0.99709 0.26695 0.55952 0.0
H522 H 0.87311 1.00799 0.54353 0.0
H523 H 0.73127 0.07809 0.68146 0.0
H524 H 0.93695 0.2454 0.57769 0.0
H525 H 0.04529 0.27202 0.59907 0.0
H526 H 0.79462 0.06622 0.678 0.0
H527 H 0.93718 0.25621 0.7682 0.0
H528 H 0.06409 0.27161 0.65699 0.0
H529 H 0.04759 0.26893 0.71413 0.0
H530 H 0.84068 0.983 0.49409 0.0
H531 H 0.99986 0.26835 0.75542 0.0
H532 H 0.69474 0.06738 0.63244 0.0
N533 N 0.82759 0.03089 0.57076 0.0
C534 C 0.79209 0.03241 0.57124 0.0
C535 C 0.82673 0.99799 0.51546 0.0
C536 C 0.77252 1.01921 0.54332 0.0
C537 C 0.84506 1.01327 0.54347 0.0
C538 C 0.79031 1.00078 0.51541 0.0
N539 N 0.79483 0.05056 0.6273 0.0
C540 C 0.77932 0.06062 0.65645 0.0
C541 C 0.73855 0.04707 0.60152 0.0
C542 C 0.77519 0.0429 0.60031 0.0
C543 C 0.72271 0.06132 0.63093 0.0
C544 C 0.74316 0.06754 0.65854 0.0
H545 H 0.77614 0.98763 0.49383 0.0
H546 H 0.72043 1.01293 0.52317 0.0
H547 H 0.69071 0.03988 0.57393 0.0
O548 O 0.83541 0.95448 0.63685 0.0
O549 O 0.82287 0.13733 0.61272 0.0
O550 O 0.84214 0.1868 0.65734 0.0
O551 O 0.87491 0.95893 0.59987 0.0
O552 O 0.85558 0.05102 0.67147 0.0
O553 O 0.88961 0.14011 0.68707 0.0
O554 O 0.88926 0.29968 0.62153 0.0
O555 O 0.93313 0.13865 0.62671 0.0
O556 O 0.90729 0.04156 0.64051 0.0
O557 O 0.87955 0.29207 0.67203 0.0
O558 O 0.87878 0.19887 0.59483 0.0
O559 O 0.88864 0.09027 0.58513 0.0
C560 C 0.8191 0.18392 0.63435 0.0
C561 C 0.84181 0.86215 0.60332 0.0
C562 C 0.84483 0.74412 0.60019 0.0
C563 C 0.8181 0.7442 0.57708 0.0
C564 C 0.81469 0.86208 0.58075 0.0
C565 C 0.80311 0.8032 0.56744 0.0
C566 C 0.8568 0.80341 0.61281 0.0
C567 C 0.8726 0.08468 0.69333 0.0
C568 C 0.85575 0.92148 0.61786 0.0
C569 C 0.7359 0.02228 0.54448 0.0
C570 C 0.71897 0.03723 0.57341 0.0
C571 C 0.93544 0.07662 0.63401 0.0
C572 C 0.90284 0.39126 0.65363 0.0
C573 C 0.90765 0.50835 0.64651 0.0
C574 C 0.93494 0.51038 0.66898 0.0
C575 C 0.93011 0.39392 0.6762 0.0
C576 C 0.89255 0.44832 0.63807 0.0
C577 C 0.94646 0.453 0.68339 0.0
C578 C 0.88568 0.15033 0.57473 0.0
C579 C 0.8828 0.33126 0.64788 0.0
H580 H 0.80841 0.69881 0.56704 0.0
H581 H 0.80238 0.9067 0.57347 0.0
H582 H 0.78227 0.80327 0.54989 0.0
H583 H 0.87803 0.80392 0.6301 0.0
H584 H 0.94694 0.5564 0.67567 0.0
H585 H 0.93826 0.35129 0.68904 0.0
H586 H 0.87153 0.44633 0.62065 0.0
H587 H 0.96731 0.45458 0.70092 0.0
Tb588 Tb 0.15776 0.99625 0.61813 0.0
C589 C 0.04965 0.80188 0.68252 0.0
N590 N 0.08322 0.81602 0.69054 0.0
C591 C 0.06997 0.79813 0.74617 0.0
C592 C 0.02467 0.7865 0.70621 0.0
C593 C 0.09357 0.8148 0.72195 0.0
C594 C 0.03543 0.78342 0.73822 0.0
C595 C 1.00619 0.78488 0.64104 0.0
C596 C 0.04079 0.79957 0.65033 0.0
C597 C 0.98085 0.77223 0.66462 0.0
C598 C 0.99015 0.77242 0.69713 0.0
Tb599 Tb 0.12106 0.83092 0.64879 0.0
N600 N 0.06618 0.81134 0.62819 0.0
C601 C 0.99821 0.78219 0.60834 0.0
C602 C 0.05879 0.80388 0.59625 0.0
C603 C 0.02474 0.79104 0.58587 0.0
H604 H 0.12054 0.82251 0.7283 0.0
H605 H 0.01919 0.7863 0.56048 0.0
H606 H 0.15245 1.01655 0.53939 0.0
H607 H 0.26722 0.985 0.70043 0.0
H608 H 0.07878 0.80487 0.57835 0.0
H609 H 0.97194 0.77131 0.60022 0.0
H610 H 0.20514 0.98547 0.68601 0.0
H611 H 0.07859 0.79536 0.77089 0.0
H612 H 0.95416 0.7609 0.65792 0.0
H613 H 0.97056 0.76101 0.71505 0.0
H614 H 0.19303 0.04642 0.49593 0.0
H615 H 0.01742 0.76848 0.75687 0.0
H616 H 0.31216 0.99748 0.65826 0.0
N617 N 0.19256 1.00695 0.5744 0.0
C618 C 0.22734 1.01034 0.58078 0.0
C619 C 0.20313 0.03395 0.51937 0.0
C620 C 0.25162 0.02254 0.5561 0.0
C621 C 0.1802 1.01705 0.54406 0.0
C622 C 0.23905 0.0357 0.52524 0.0
N623 N 0.2142 0.99478 0.63585 0.0
C624 C 0.22411 0.98971 0.66723 0.0
C625 C 0.27445 1.00452 0.61966 0.0
C626 C 0.23856 1.0038 0.61241 0.0
C627 C 0.2848 0.99697 0.65167 0.0
C628 C 0.25949 0.9899 0.67555 0.0
H629 H 0.25679 0.04784 0.50587 0.0
H630 H 0.30658 0.0312 0.54447 0.0
H631 H 0.32636 1.01109 0.59967 0.0
O632 O 0.16334 0.0869 0.64167 0.0
O633 O 0.19124 0.90619 0.61109 0.0
O634 O 0.17565 0.85577 0.65655 0.0
O635 O 0.14615 0.08097 0.59238 0.0
O636 O 0.13871 0.99721 0.66741 0.0
O637 O 0.14509 0.89295 0.68688 0.0
O638 O 0.12786 0.73875 0.62683 0.0
O639 O 0.08254 0.91069 0.65264 0.0
O640 O 0.10013 0.98616 0.61466 0.0
O641 O 0.1362 0.75188 0.67739 0.0
O642 O 0.13479 0.84012 0.59617 0.0
O643 O 0.1236 0.94756 0.58481 0.0
C644 C 0.19703 0.85959 0.63233 0.0
C645 C 0.17376 0.17794 0.60811 0.0
C646 C 0.17626 0.29604 0.61044 0.0
C647 C 0.20325 0.29584 0.58759 0.0
C648 C 0.20071 0.17796 0.58538 0.0
C649 C 0.2153 0.23668 0.57512 0.0
C650 C 0.16184 0.23682 0.62072 0.0
C651 C 0.14122 0.95659 0.69149 0.0
C652 C 0.15416 0.11915 0.6161 0.0
C653 C 0.28743 0.02302 0.5632 0.0
C654 C 0.29876 1.01263 0.59476 0.0
C655 C 0.07626 0.96173 0.63432 0.0
C656 C 0.11529 0.64944 0.66091 0.0
C657 C 0.1124 0.53164 0.65569 0.0
C658 C 0.08417 0.52993 0.67716 0.0
C659 C 0.08749 0.64697 0.6829 0.0
C660 C 0.12742 0.59163 0.64715 0.0
C661 C 0.07162 0.58767 0.69051 0.0
C662 C 0.12805 0.88747 0.57526 0.0
C663 C 0.13418 0.71021 0.65409 0.0
H664 H 0.21459 0.34122 0.57915 0.0
H665 H 0.2096 0.13343 0.57455 0.0
H666 H 0.23513 0.23593 0.5567 0.0
H667 H 0.13997 0.23666 0.63733 0.0
H668 H 0.0722 0.48393 0.68387 0.0
H669 H 0.07865 0.68994 0.69511 0.0
H670 H 0.14963 0.5931 0.63099 0.0
H671 H 0.05019 0.58633 0.70746 0.0
Tb672 Tb 0.61277 0.70705 0.14978 0.0
C673 C 0.74204 0.56768 0.11386 0.0
N674 N 0.71172 0.56942 0.09686 0.0
C675 C 0.74285 0.60151 0.04953 0.0
C676 C 0.774 0.58407 0.0993 0.0
C677 C 0.71171 0.5846 0.06495 0.0
C678 C 0.77418 0.60086 0.0667 0.0
C679 C 0.77104 0.55404 0.16513 0.0
C680 C 0.74029 0.55462 0.14661 0.0
C681 C 0.80294 0.57031 0.15075 0.0
C682 C 0.80445 0.58546 0.11794 0.0
Tb683 Tb 0.66245 0.54609 0.12517 0.0
N684 N 0.70864 0.54172 0.16014 0.0
C685 C 0.76896 0.53599 0.19745 0.0
C686 C 0.70725 0.51678 0.19058 0.0
C687 C 0.737 0.51571 0.21001 0.0
H688 H 0.68763 0.58451 0.05155 0.0
H689 H 0.73541 0.4976 0.23438 0.0
H690 H 0.58738 0.67808 0.22495 0.0
H691 H 0.53798 0.76312 0.04236 0.0
H692 H 0.68385 0.49467 0.19976 0.0
H693 H 0.79208 0.53475 0.21245 0.0
H694 H 0.5904 0.76298 0.07594 0.0
H695 H 0.74267 0.61513 0.02443 0.0
H696 H 0.82642 0.57102 0.16503 0.0
H697 H 0.82911 0.59875 0.10714 0.0
H698 H 0.53288 0.6463 0.25228 0.0
H699 H 0.79825 0.61421 0.05469 0.0
H700 H 0.48144 0.72777 0.06494 0.0
N701 N 0.56319 0.69033 0.17933 0.0
C702 C 0.53255 0.69297 0.16281 0.0
C703 C 0.53242 0.6596 0.22715 0.0
C704 C 0.50062 0.67744 0.17781 0.0
C705 C 0.56338 0.67663 0.21145 0.0
C706 C 0.50094 0.65955 0.21023 0.0
N707 N 0.56546 0.71743 0.11613 0.0
C708 C 0.56663 0.74292 0.08576 0.0
C709 C 0.50274 0.70794 0.11206 0.0
C710 C 0.53384 0.70616 0.13012 0.0
C711 C 0.50461 0.72598 0.07974 0.0
C712 C 0.53656 0.74531 0.06679 0.0
H713 H 0.47705 0.64567 0.22241 0.0
H714 H 0.44496 0.66483 0.17064 0.0
H715 H 0.44694 0.6917 0.11324 0.0
O716 O 0.62212 0.80438 0.13472 0.0
O717 O 0.58501 0.61334 0.15234 0.0
O718 O 0.60568 0.54387 0.11362 0.0
O719 O 0.59817 0.78389 0.18016 0.0
O720 O 0.63339 0.6977 0.09944 0.0
O721 O 0.63153 0.5876 0.08667 0.0
O722 O 0.66197 0.44803 0.14078 0.0
O723 O 0.68826 0.64431 0.1214 0.0
O724 O 0.66818 0.70464 0.16348 0.0
O725 O 0.67439 0.47193 0.09205 0.0
O726 O 0.63695 0.54747 0.17222 0.0
O727 O 0.63824 0.65445 0.19039 0.0
C728 C 0.57958 0.56902 0.13026 0.0
C729 C 0.6253 0.88714 0.17499 0.0
C730 C 0.63354 1.00576 0.17452 0.0
C731 C 0.64834 1.00175 0.20535 0.0
C732 C 0.64162 0.88405 0.20511 0.0
C733 C 0.65277 0.94124 0.22027 0.0
C734 C 0.62137 0.94803 0.15975 0.0
C735 C 0.6304 0.6494 0.07826 0.0
C736 C 0.60866 0.82913 0.16067 0.0
C737 C 0.46975 0.67728 0.15966 0.0
C738 C 0.47086 0.69244 0.1269 0.0
C739 C 0.69325 0.69013 0.14323 0.0
C740 C 0.64689 0.36964 0.10137 0.0
C741 C 0.62877 0.25522 0.10755 0.0
C742 C 0.61046 0.26007 0.07832 0.0
C743 C 0.62775 0.37333 0.07268 0.0
C744 C 0.64695 0.3108 0.11889 0.0
C745 C 0.60992 0.31868 0.06121 0.0
C746 C 0.63644 0.59046 0.19579 0.0
C747 C 0.66858 0.42511 0.11236 0.0
H748 H 0.65728 0.04536 0.21763 0.0
H749 H 0.64488 0.83772 0.2173 0.0
H750 H 0.66483 0.93874 0.24375 0.0
H751 H 0.60927 0.95024 0.13624 0.0
H752 H 0.59691 0.21834 0.06829 0.0
H753 H 0.627 0.41805 0.05882 0.0
H754 H 0.66128 0.30857 0.1413 0.0
H755 H 0.5957 0.32163 0.0388 0.0
Tb756 Tb 0.40184 0.33631 0.14786 0.0
C757 C 0.2754 0.48128 0.10383 0.0
N758 N 0.30696 0.47274 0.08945 0.0
C759 C 0.27874 0.43743 0.04106 0.0
C760 C 0.24417 0.46842 0.08715 0.0
C761 C 0.309 0.45341 0.05812 0.0
C762 C 0.24614 0.44559 0.0555 0.0
C763 C 0.24251 0.51213 0.15114 0.0
C764 C 0.27473 0.50092 0.13578 0.0
C765 C 0.21133 0.50025 0.1345 0.0
C766 C 0.21211 0.4783 0.1026 0.0
Tb767 Tb 0.35426 0.49703 0.12048 0.0
N768 N 0.30552 0.51193 0.15125 0.0
C769 C 0.24255 0.53755 0.18233 0.0
C770 C 0.30546 0.54345 0.18018 0.0
C771 C 0.27419 0.55467 0.19662 0.0
H772 H 0.3338 0.45096 0.04612 0.0
H773 H 0.2745 0.57816 0.21993 0.0
H774 H 0.42233 0.35906 0.22479 0.0
H775 H 0.48313 0.28556 0.04387 0.0
H776 H 0.32923 0.56277 0.19025 0.0
H777 H 0.2183 0.54709 0.1949 0.0
H778 H 0.42876 0.2841 0.07469 0.0
H779 H 0.28054 0.42019 0.01654 0.0
H780 H 0.1866 0.50902 0.1461 0.0
H781 H 0.18792 0.46988 0.08985 0.0
H782 H 0.47537 0.38381 0.25604 0.0
H783 H 0.2227 0.43443 0.04198 0.0
H784 H 0.53825 0.31826 0.07004 0.0
N785 N 0.44944 0.34995 0.18034 0.0
C786 C 0.48107 0.34784 0.16548 0.0
C787 C 0.47733 0.37375 0.23059 0.0
C788 C 0.51212 0.36033 0.1826 0.0
C789 C 0.44725 0.3605 0.2127 0.0
C790 C 0.50985 0.37445 0.21542 0.0
N791 N 0.45115 0.32767 0.11664 0.0
C792 C 0.45183 0.30379 0.08593 0.0
C793 C 0.5141 0.33552 0.11623 0.0
C794 C 0.48187 0.33717 0.13254 0.0
C795 C 0.5142 0.3198 0.08356 0.0
C796 C 0.48304 0.30202 0.06858 0.0
H797 H 0.53301 0.38612 0.22922 0.0
H798 H 0.56831 0.37078 0.17888 0.0
H799 H 0.57 0.34867 0.12091 0.0
O800 O 0.39195 0.23952 0.1317 0.0
O801 O 0.42965 0.42987 0.15197 0.0
O802 O 0.4115 0.49683 0.11136 0.0
O803 O 0.41567 0.25791 0.17742 0.0
O804 O 0.38276 0.34475 0.09682 0.0
O805 O 0.38715 0.45396 0.0839 0.0
O806 O 0.35657 0.59593 0.13447 0.0
O807 O 0.32614 0.40003 0.11868 0.0
O808 O 0.34633 0.33979 0.1609 0.0
O809 O 0.34488 0.56957 0.08581 0.0
O810 O 0.37577 0.49737 0.16952 0.0
O811 O 0.3753 0.39007 0.18779 0.0
C812 C 0.43644 0.47337 0.12987 0.0
C813 C 0.38992 0.1539 0.17082 0.0
C814 C 0.38512 0.03439 0.17022 0.0
C815 C 0.36903 0.03742 0.20058 0.0
C816 C 0.37233 0.15556 0.20036 0.0
C817 C 0.36226 0.09749 0.21522 0.0
C818 C 0.39625 0.09329 0.1558 0.0
C819 C 0.38758 0.39222 0.07551 0.0
C820 C 0.40559 0.21355 0.15726 0.0
C821 C 0.54416 0.3607 0.16622 0.0
C822 C 0.54512 0.34836 0.13314 0.0
C823 C 0.32133 0.35383 0.14047 0.0
C824 C 0.37279 0.67219 0.09455 0.0
C825 C 0.39139 0.78639 0.10111 0.0
C826 C 0.40887 0.78207 0.07143 0.0
C827 C 0.391 0.66903 0.06535 0.0
C828 C 0.37358 0.73049 0.11252 0.0
C829 C 0.40883 0.72376 0.05393 0.0
C830 C 0.37575 0.45435 0.19304 0.0
C831 C 0.35075 0.61735 0.10566 0.0
H832 H 0.36094 0.99324 0.2128 0.0
H833 H 0.36731 0.20158 0.21237 0.0
H834 H 0.34928 0.09897 0.2383 0.0
H835 H 0.40913 0.0923 0.13262 0.0
H836 H 0.42217 0.82393 0.06131 0.0
H837 H 0.39104 0.62472 0.0511 0.0
H838 H 0.36005 0.73196 0.13536 0.0
H839 H 0.42246 0.72119 0.0312 0.0
Tb840 Tb 0.62024 0.32965 0.3657 0.0
C841 C 0.7411 0.47053 0.41906 0.0
N842 N 0.70809 0.46776 0.43097 0.0
C843 C 0.72999 0.43053 0.48169 0.0
C844 C 0.76985 0.45106 0.43789 0.0
C845 C 0.70241 0.45126 0.46228 0.0
C846 C 0.76393 0.43078 0.46952 0.0
C847 C 0.77878 0.48354 0.37291 0.0
C848 C 0.74533 0.48621 0.38682 0.0
C849 C 0.8076 0.4656 0.39177 0.0
C850 C 0.80322 0.4496 0.42416 0.0
Tb851 Tb 0.66436 0.49487 0.39618 0.0
N852 N 0.71652 0.5004 0.3688 0.0
C853 C 0.78219 0.49757 0.34029 0.0
C854 C 0.72048 0.51896 0.33743 0.0
C855 C 0.75315 0.51674 0.32264 0.0
H856 H 0.67676 0.45521 0.47251 0.0
H857 H 0.75589 0.52989 0.2976 0.0
H858 H 0.64142 0.30506 0.2898 0.0
H859 H 0.50079 0.28075 0.43046 0.0
H860 H 0.69913 0.53645 0.32328 0.0
H861 H 0.80709 0.49429 0.32852 0.0
H862 H 0.56428 0.30117 0.42476 0.0
H863 H 0.72513 0.41598 0.50627 0.0
H864 H 0.83333 0.46299 0.38148 0.0
H865 H 0.82569 0.43469 0.43815 0.0
H866 H 0.61124 0.27668 0.23905 0.0
H867 H 0.78531 0.4151 0.48469 0.0
H868 H 0.46372 0.27204 0.38182 0.0
N869 N 0.59469 0.30684 0.31739 0.0
C870 C 0.55979 0.29609 0.31777 0.0
C871 C 0.59639 0.28251 0.26098 0.0
C872 C 0.54145 0.27992 0.28953 0.0
C873 C 0.61334 0.29888 0.28966 0.0
C874 C 0.56025 0.27332 0.26089 0.0
N875 N 0.56252 0.30564 0.3737 0.0
C876 C 0.54818 0.29656 0.40354 0.0
C877 C 0.50698 0.28311 0.34901 0.0
C878 C 0.54299 0.2964 0.347 0.0
C879 C 0.4915 0.28002 0.37939 0.0
C880 C 0.51233 0.28511 0.40683 0.0
H881 H 0.54725 0.25981 0.23875 0.0
H882 H 0.49064 0.25607 0.26969 0.0
H883 H 0.46021 0.26072 0.32178 0.0
O884 O 0.61409 0.23686 0.38749 0.0
O885 O 0.58284 0.40152 0.3844 0.0
O886 O 0.60823 0.50459 0.38145 0.0
O887 O 0.65196 0.25154 0.35061 0.0
O888 O 0.63392 0.34149 0.41778 0.0
O889 O 0.62698 0.45104 0.4287 0.0
O890 O 0.67234 0.59635 0.38823 0.0
O891 O 0.68993 0.39687 0.39951 0.0
O892 O 0.6736 0.35637 0.35227 0.0
O893 O 0.66373 0.55856 0.43532 0.0
O894 O 0.64808 0.50164 0.34618 0.0
O895 O 0.62446 0.40387 0.32636 0.0
C896 C 0.58047 0.46528 0.38118 0.0
C897 C 0.62652 0.14601 0.35396 0.0
C898 C 0.62058 0.02767 0.35806 0.0
C899 C 0.61543 0.02372 0.32482 0.0
C900 C 0.62202 0.14054 0.32056 0.0
C901 C 0.61587 0.0801 0.30622 0.0
C902 C 0.6249 0.08901 0.37281 0.0
C903 C 0.62647 0.38981 0.43788 0.0
C904 C 0.63664 0.20894 0.36886 0.0
C905 C 0.50529 0.2684 0.29112 0.0
C906 C 0.48797 0.27087 0.32078 0.0
C907 C 0.69715 0.35975 0.37473 0.0
C908 C 0.64039 0.66278 0.42514 0.0
C909 C 0.62019 0.776 0.42036 0.0
C910 C 0.59472 0.76297 0.44385 0.0
C911 C 0.61347 0.65085 0.44743 0.0
C912 C 0.64343 0.72552 0.41136 0.0
C913 C 0.59111 0.70076 0.45683 0.0
C914 C 0.63477 0.46574 0.32287 0.0
C915 C 0.6663 0.61095 0.41808 0.0
H916 H 0.61155 0.97682 0.31325 0.0
H917 H 0.62446 0.18221 0.30522 0.0
H918 H 0.61243 0.07677 0.28047 0.0
H919 H 0.62839 0.09192 0.3986 0.0
H920 H 0.57718 0.8009 0.45209 0.0
H921 H 0.61 0.60319 0.45825 0.0
H922 H 0.66356 0.73467 0.39362 0.0
H923 H 0.57094 0.69128 0.47444 0.0
Tb924 Tb 0.40258 0.71788 0.36186 0.0
C925 C 0.27792 0.58746 0.4077 0.0
N926 N 0.30992 0.59021 0.42168 0.0
C927 C 0.28442 0.63333 0.46984 0.0
C928 C 0.24811 0.6113 0.42362 0.0
C929 C 0.31331 0.60986 0.45285 0.0
C930 C 0.25167 0.63453 0.45509 0.0
C931 C 0.24353 0.56284 0.36058 0.0
C932 C 0.27578 0.56395 0.37659 0.0
C933 C 0.2141 0.58962 0.37567 0.0
C934 C 0.21615 0.61303 0.40723 0.0
Tb935 Tb 0.3556 0.55544 0.39079 0.0
N936 N 0.30524 0.54121 0.36224 0.0
C937 C 0.24185 0.53381 0.3302 0.0
C938 C 0.30273 0.50556 0.33462 0.0
C939 C 0.27123 0.50273 0.31773 0.0
H940 H 0.33814 0.60681 0.46472 0.0
H941 H 0.26967 0.47666 0.29514 0.0
H942 H 0.38459 0.7511 0.28516 0.0
H943 H 0.52191 0.73667 0.43013 0.0
H944 H 0.3249 0.47884 0.32551 0.0
H945 H 0.21783 0.53236 0.31678 0.0
H946 H 0.458 0.73165 0.42305 0.0
H947 H 0.28741 0.65004 0.49436 0.0
H948 H 0.18968 0.59213 0.36321 0.0
H949 H 0.19298 0.6327 0.41862 0.0
H950 H 0.41811 0.77742 0.23618 0.0
H951 H 0.22937 0.65325 0.46818 0.0
H952 H 0.5606 0.74058 0.38227 0.0
N953 N 0.42985 0.73685 0.31404 0.0
C954 C 0.46533 0.74014 0.31568 0.0
C955 C 0.43168 0.76653 0.25833 0.0
C956 C 0.48542 0.75573 0.2884 0.0
C957 C 0.41282 0.75142 0.28608 0.0
C958 C 0.46811 0.76876 0.2595 0.0
N959 N 0.46086 0.72688 0.37201 0.0
C960 C 0.47477 0.7329 0.40219 0.0
C961 C 0.51778 0.74143 0.34856 0.0
C962 C 0.48133 0.73478 0.34558 0.0
C963 C 0.53258 0.73848 0.37924 0.0
C964 C 0.51092 0.73593 0.40623 0.0
H965 H 0.48257 0.78223 0.23815 0.0
H966 H 0.5378 0.77281 0.27046 0.0
H967 H 0.56621 0.7577 0.32288 0.0
O968 O 0.37231 0.79877 0.37804 0.0
O969 O 0.43746 0.63891 0.37811 0.0
O970 O 0.41035 0.53773 0.3755 0.0
O971 O 0.42259 0.81246 0.35721 0.0
O972 O 0.39109 0.70741 0.41428 0.0
O973 O 0.39295 0.59673 0.42471 0.0
O974 O 0.34463 0.45454 0.38575 0.0
O975 O 0.33315 0.6569 0.39212 0.0
O976 O 0.34822 0.70531 0.34576 0.0
O977 O 0.3571 0.49545 0.43152 0.0
O978 O 0.37232 0.54957 0.34046 0.0
O979 O 0.38667 0.6536 0.32089 0.0
C980 C 0.43866 0.57494 0.37505 0.0
C981 C 0.38521 0.90019 0.35194 0.0
C982 C 0.3809 1.01919 0.35033 0.0
C983 C 0.36979 1.01535 0.31823 0.0
C984 C 0.37398 0.89719 0.31989 0.0
C985 C 0.36667 0.95462 0.30305 0.0
C986 C 0.38935 0.96136 0.36687 0.0
C987 C 0.39467 0.65776 0.43436 0.0
C988 C 0.39582 0.84117 0.3693 0.0
C989 C 0.5219 0.76094 0.29117 0.0
C990 C 0.5381 0.75265 0.32107 0.0
C991 C 0.32392 0.69236 0.36703 0.0
C992 C 0.3758 0.3866 0.42201 0.0
C993 C 0.39275 0.27163 0.4141 0.0
C994 C 0.4171 0.27909 0.43927 0.0
C995 C 0.40135 0.39241 0.44604 0.0
C996 C 0.37203 0.32638 0.40568 0.0
C997 C 0.42176 0.33906 0.45451 0.0
C998 C 0.38013 0.59022 0.31693 0.0
C999 C 0.3518 0.4419 0.41549 0.0
H1000 H 0.36345 0.05925 0.30497 0.0
H1001 H 0.37047 0.85071 0.3081 0.0
H1002 H 0.35793 0.95202 0.27836 0.0
H1003 H 0.39827 0.96383 0.39156 0.0
H1004 H 0.43256 0.23853 0.44779 0.0
H1005 H 0.40522 0.43791 0.45889 0.0
H1006 H 0.35297 0.3227 0.38657 0.0
H1007 H 0.44092 0.34386 0.47348 0.0
Tb1008 Tb 0.36015 0.50139 0.89277 0.0
C1009 C 0.47389 0.32353 0.83072 0.0
N1010 N 0.43981 0.32763 0.82196 0.0
C1011 C 0.45579 0.3127 0.76669 0.0
C1012 C 0.50043 0.31507 0.80765 0.0
C1013 C 0.43046 0.3218 0.79042 0.0
C1014 C 0.49092 0.3091 0.77536 0.0
C1015 C 0.51689 0.31886 0.87329 0.0
C1016 C 0.48188 0.32433 0.8631 0.0
C1017 C 0.54361 0.31316 0.85035 0.0
C1018 C 0.53538 0.3108 0.8176 0.0
Tb1019 Tb 0.40008 0.33841 0.86259 0.0
N1020 N 0.45516 0.32913 0.88454 0.0
C1021 C 0.52391 0.31762 0.9062 0.0
C1022 C 0.46191 0.32239 0.91662 0.0
C1023 C 0.49622 0.31841 0.92794 0.0
H1024 H 0.4033 0.32078 0.78366 0.0
H1025 H 0.50123 0.31436 0.95344 0.0
H1026 H 0.36395 0.52415 0.97152 0.0
H1027 H 0.25184 0.47807 0.80983 0.0
H1028 H 0.44134 0.3174 0.93383 0.0
H1029 H 0.55044 0.31364 0.91503 0.0
H1030 H 0.31355 0.48254 0.82488 0.0
H1031 H 0.44812 0.30712 0.74182 0.0
H1032 H 0.57063 0.30899 0.85772 0.0
H1033 H 0.55618 0.30477 0.8002 0.0
H1034 H 0.32271 0.55508 0.01435 0.0
H1035 H 0.5104 0.29994 0.75708 0.0
H1036 H 0.20631 0.49329 0.85106 0.0
N1037 N 0.32446 0.51524 0.93583 0.0
C1038 C 0.28979 0.51809 0.92901 0.0
C1039 C 0.31302 0.54325 0.99065 0.0
C1040 C 0.26515 0.53224 0.95312 0.0
C1041 C 0.3363 0.52556 0.96636 0.0
C1042 C 0.27725 0.54621 0.98409 0.0
N1043 N 0.30381 0.49751 0.87464 0.0
C1044 C 0.29438 0.48888 0.8433 0.0
C1045 C 0.24327 0.50856 0.8897 0.0
C1046 C 0.27907 0.50861 0.89747 0.0
C1047 C 0.2335 0.49599 0.85791 0.0
C1048 C 0.25916 0.48676 0.83458 0.0
H1049 H 0.25924 0.55927 1.0031 0.0
H1050 H 0.21007 0.54399 0.96364 0.0
H1051 H 0.19084 0.52121 0.90831 0.0
O1052 O 0.35862 0.58948 0.86681 0.0
O1053 O 0.32694 0.4106 0.89849 0.0
O1054 O 0.3448 0.3571 0.85412 0.0
O1055 O 0.36878 0.58878 0.91774 0.0
O1056 O 0.37832 0.50197 0.84295 0.0
O1057 O 0.37617 0.39682 0.82307 0.0
O1058 O 0.39663 0.2464 0.88512 0.0
O1059 O 0.43434 0.42452 0.8579 0.0
O1060 O 0.41737 0.48989 0.89985 0.0
O1061 O 0.38859 0.25623 0.83436 0.0
O1062 O 0.38413 0.34548 0.91485 0.0
O1063 O 0.39325 0.45325 0.92717 0.0
C1064 C 0.32264 0.3622 0.87777 0.0
C1065 C 0.34536 0.68501 0.89626 0.0
C1066 C 0.34631 0.80306 0.89292 0.0
C1067 C 0.31383 0.80568 0.90854 0.0
C1068 C 0.31271 0.6876 0.91146 0.0
C1069 C 0.29698 0.74791 0.91749 0.0
C1070 C 0.3618 0.74258 0.88672 0.0
C1071 C 0.37758 0.46105 0.81869 0.0
C1072 C 0.36479 0.62441 0.89233 0.0
C1073 C 0.22944 0.53346 0.94538 0.0
C1074 C 0.21849 0.52079 0.91384 0.0
C1075 C 0.4411 0.4707 0.87888 0.0
C1076 C 0.41242 0.15705 0.85231 0.0
C1077 C 0.41666 0.03904 0.85637 0.0
C1078 C 0.44703 0.04024 0.83751 0.0
C1079 C 0.44277 0.1577 0.8334 0.0
C1080 C 0.3999 0.0978 0.86419 0.0
C1081 C 0.4602 0.0996 0.82638 0.0
C1082 C 0.38888 0.39281 0.93631 0.0
C1083 C 0.39164 0.21596 0.8581 0.0
H1084 H 0.30151 0.85221 0.91357 0.0
H1085 H 0.29971 0.64368 0.91914 0.0
H1086 H 0.2719 0.74989 0.92945 0.0
H1087 H 0.38736 0.74045 0.87545 0.0
H1088 H 0.46041 0.99537 0.83131 0.0
H1089 H 0.45267 0.20232 0.82338 0.0
H1090 H 0.37624 0.09734 0.87847 0.0
H1091 H 0.48354 0.10046 0.81172 0.0
Tb1092 Tb 0.66414 0.53844 0.89807 0.0
C1093 C 0.54442 0.69865 0.85135 0.0
N1094 N 0.57539 0.69092 0.83588 0.0
C1095 C 0.54523 0.66235 0.7874 0.0
C1096 C 0.5125 0.68684 0.83559 0.0
C1097 C 0.5762 0.67561 0.80391 0.0
C1098 C 0.51327 0.66712 0.80342 0.0
C1099 C 0.5136 0.72523 0.90033 0.0
C1100 C 0.54514 0.71555 0.88349 0.0
C1101 C 0.48158 0.71327 0.88486 0.0
C1102 C 0.48104 0.69369 0.8526 0.0
Tb1103 Tb 0.62474 0.7011 0.86642 0.0
N1104 N 0.5767 0.7249 0.89784 0.0
C1105 C 0.51517 0.74832 0.9319 0.0
C1106 C 0.57797 0.75497 0.92724 0.0
C1107 C 0.54749 0.76481 0.94511 0.0
H1108 H 0.60076 0.67179 0.79137 0.0
H1109 H 0.54892 0.78624 0.96885 0.0
H1110 H 0.65258 0.51358 0.97598 0.0
H1111 H 0.77921 0.54897 0.82309 0.0
H1112 H 0.60224 0.77263 0.93716 0.0
H1113 H 0.49158 0.75639 0.9457 0.0
H1114 H 0.71615 0.55333 0.83407 0.0
H1115 H 0.54605 0.64803 0.76238 0.0
H1116 H 0.45709 0.71973 0.89752 0.0
H1117 H 0.45619 0.68457 0.84095 0.0
H1118 H 0.68934 0.48123 0.02193 0.0
H1119 H 0.48938 0.65536 0.79079 0.0
H1120 H 0.82076 0.5289 0.86742 0.0
N1121 N 0.69533 0.52037 0.94353 0.0
C1122 C 0.7304 0.5157 0.93937 0.0
C1123 C 0.7013 0.49216 0.99902 0.0
C1124 C 0.75251 0.49998 0.96521 0.0
C1125 C 0.68058 0.51083 0.97303 0.0
C1126 C 0.73745 0.48692 0.99516 0.0
N1127 N 0.72174 0.53853 0.88436 0.0
C1128 C 0.73383 0.54528 0.85369 0.0
C1129 C 0.78038 0.522 0.90366 0.0
C1130 C 0.74411 0.52546 0.90887 0.0
C1131 C 0.79307 0.53129 0.87246 0.0
C1132 C 0.76967 0.54262 0.84736 0.0
H1133 H 0.75349 0.47299 0.01546 0.0
H1134 H 0.80626 0.48589 0.97991 0.0
H1135 H 0.83061 0.50792 0.92641 0.0
O1136 O 0.65906 0.45555 0.86868 0.0
O1137 O 0.69878 0.62848 0.90203 0.0
O1138 O 0.68038 0.68464 0.85835 0.0
O1139 O 0.65826 0.44706 0.92023 0.0
O1140 O 0.6509 0.539 0.84713 0.0
O1141 O 0.65068 0.64462 0.82751 0.0
O1142 O 0.63751 0.79796 0.87902 0.0
O1143 O 0.59402 0.61023 0.86046 0.0
O1144 O 0.60708 0.5511 0.9051 0.0
O1145 O 0.62354 0.77334 0.83068 0.0
O1146 O 0.64179 0.6947 0.91825 0.0
O1147 O 0.62981 0.58842 0.93083 0.0
C1148 C 0.70295 0.67771 0.88161 0.0
C1149 C 0.67613 0.35513 0.89095 0.0
C1150 C 0.67473 0.23761 0.88343 0.0
C1151 C 0.71076 0.23504 0.88961 0.0
C1152 C 0.71214 0.35247 0.89658 0.0
C1153 C 0.72934 0.29249 0.89568 0.0
C1154 C 0.6576 0.29793 0.88399 0.0
C1155 C 0.65094 0.58037 0.82313 0.0
C1156 C 0.65674 0.41611 0.89308 0.0
C1157 C 0.78875 0.4971 0.96025 0.0
C1158 C 0.80264 0.50902 0.92966 0.0
C1159 C 0.58471 0.56866 0.88273 0.0
C1160 C 0.60854 0.87862 0.84903 0.0
C1161 C 0.60367 0.99667 0.85462 0.0
C1162 C 0.56887 0.99321 0.84408 0.0
C1163 C 0.57356 0.87562 0.83897 0.0
C1164 C 0.62332 0.93902 0.85706 0.0
C1165 C 0.55388 0.93282 0.83652 0.0
C1166 C 0.63427 0.64898 0.93972 0.0
C1167 C 0.63062 0.8202 0.85056 0.0
H1168 H 0.72456 0.18885 0.88921 0.0
H1169 H 0.72685 0.39626 0.90174 0.0
H1170 H 0.75709 0.29064 0.89952 0.0
H1171 H 0.62968 0.30016 0.87976 0.0
H1172 H 0.55318 0.03701 0.84209 0.0
H1173 H 0.56158 0.82946 0.83267 0.0
H1174 H 0.6504 0.94118 0.86461 0.0
H1175 H 0.52698 0.93038 0.82862 0.0
Tb1176 Tb 0.36012 0.54661 0.61608 0.0
C1177 C 0.47042 0.7332 0.67549 0.0
N1178 N 0.43739 0.72218 0.68597 0.0
C1179 C 0.4566 0.73212 0.74059 0.0
C1180 C 0.49819 0.74196 0.69727 0.0
C1181 C 0.43012 0.722 0.71808 0.0
C1182 C 0.49085 0.74186 0.73014 0.0
C1183 C 0.50959 0.75244 0.63096 0.0
C1184 C 0.4759 0.73872 0.64281 0.0
C1185 C 0.53774 0.75764 0.65243 0.0
C1186 C 0.53204 0.75287 0.68554 0.0
Tb1187 Tb 0.3953 0.71175 0.64749 0.0
N1188 N 0.44783 0.7344 0.62287 0.0
C1189 C 0.51364 0.76346 0.59808 0.0
C1190 C 0.45147 0.75188 0.59132 0.0
C1191 C 0.48439 0.76424 0.57827 0.0
H1192 H 0.4036 0.71792 0.72636 0.0
H1193 H 0.48701 0.77674 0.55314 0.0
H1194 H 0.36693 0.52701 0.5373 0.0
H1195 H 0.24908 0.55307 0.69652 0.0
H1196 H 0.42933 0.76011 0.57608 0.0
H1197 H 0.53874 0.77535 0.58799 0.0
H1198 H 0.31149 0.55386 0.68301 0.0
H1199 H 0.45039 0.7339 0.76593 0.0
H1200 H 0.5638 0.76739 0.64381 0.0
H1201 H 0.55383 0.75904 0.70188 0.0
H1202 H 0.32716 0.50217 0.49244 0.0
H1203 H 0.51121 0.75152 0.74751 0.0
H1204 H 0.20491 0.54184 0.65353 0.0
N1205 N 0.32612 0.53522 0.57171 0.0
C1206 C 0.2912 0.5319 0.57735 0.0
C1207 C 0.31663 0.51245 0.51598 0.0
C1208 C 0.26742 0.52149 0.55206 0.0
C1209 C 0.33909 0.52667 0.54146 0.0
C1210 C 0.28059 0.51088 0.52115 0.0
N1211 N 0.30324 0.54581 0.63265 0.0
C1212 C 0.2928 0.54978 0.66393 0.0
C1213 C 0.24332 0.53621 0.61546 0.0
C1214 C 0.27934 0.5372 0.6088 0.0
C1215 C 0.23239 0.54257 0.64738 0.0
C1216 C 0.25726 0.54897 0.67172 0.0
H1217 H 0.26322 0.50089 0.50119 0.0
H1218 H 0.21268 0.51394 0.53936 0.0
H1219 H 0.19177 0.53067 0.59453 0.0
O1220 O 0.35791 0.45682 0.64063 0.0
O1221 O 0.32562 0.63582 0.61 0.0
O1222 O 0.3409 0.68665 0.65556 0.0
O1223 O 0.37115 0.46136 0.59036 0.0
O1224 O 0.37701 0.54526 0.66618 0.0
O1225 O 0.37283 0.64981 0.68648 0.0
O1226 O 0.38631 0.80553 0.62815 0.0
O1227 O 0.43205 0.62988 0.65306 0.0
O1228 O 0.41756 0.56087 0.61156 0.0
O1229 O 0.38225 0.78816 0.67876 0.0
O1230 O 0.38122 0.70185 0.59475 0.0
O1231 O 0.39451 0.5956 0.58317 0.0
C1232 C 0.31942 0.68193 0.6315 0.0
C1233 C 0.34568 0.36442 0.60868 0.0
C1234 C 0.343 0.24653 0.61293 0.0
C1235 C 0.31446 0.24568 0.59173 0.0
C1236 C 0.31714 0.36335 0.58766 0.0
C1237 C 0.30169 0.3042 0.57921 0.0
C1238 C 0.35831 0.30619 0.62148 0.0
C1239 C 0.37541 0.58568 0.69058 0.0
C1240 C 0.36553 0.42381 0.61484 0.0
C1241 C 0.23145 0.52079 0.55855 0.0
C1242 C 0.21949 0.52933 0.59007 0.0
C1243 C 0.44051 0.58426 0.63233 0.0
C1244 C 0.40202 0.89183 0.66294 0.0
C1245 C 0.40568 1.00977 0.65835 0.0
C1246 C 0.43476 1.01009 0.67885 0.0
C1247 C 0.43122 0.89266 0.68338 0.0
C1248 C 0.38969 0.9504 0.65016 0.0
C1249 C 0.44764 0.95151 0.69106 0.0
C1250 C 0.39007 0.65569 0.57374 0.0
C1251 C 0.38238 0.83177 0.65633 0.0
H1252 H 0.30239 0.19995 0.58464 0.0
H1253 H 0.30756 0.40745 0.57682 0.0
H1254 H 0.28055 0.30411 0.56211 0.0
H1255 H 0.38119 0.3071 0.63689 0.0
H1256 H 0.44742 0.05556 0.6854 0.0
H1257 H 0.44096 0.84856 0.6941 0.0
H1258 H 0.36682 0.94991 0.6348 0.0
H1259 H 0.47 0.95179 0.70695 0.0
Tb1260 Tb 0.66496 0.50878 0.61972 0.0
C1261 C 0.53534 0.37252 0.65822 0.0
N1262 N 0.56538 0.37424 0.67555 0.0
C1263 C 0.53336 0.4068 0.72243 0.0
C1264 C 0.50302 0.38894 0.67228 0.0
C1265 C 0.56466 0.38895 0.7076 0.0
C1266 C 0.50238 0.40685 0.70472 0.0
C1267 C 0.50663 0.35237 0.60736 0.0
C1268 C 0.53734 0.35599 0.62603 0.0
C1269 C 0.47439 0.36963 0.62107 0.0
C1270 C 0.47261 0.38804 0.65344 0.0
Tb1271 Tb 0.61573 0.35168 0.64809 0.0
N1272 N 0.5691 0.3407 0.61345 0.0
C1273 C 0.5091 0.32951 0.5758 0.0
C1274 C 0.57056 0.30999 0.58423 0.0
C1275 C 0.54108 0.30656 0.56449 0.0
H1276 H 0.58825 0.38785 0.72168 0.0
H1277 H 0.54291 0.28478 0.54085 0.0
H1278 H 0.64828 0.55222 0.5446 0.0
H1279 H 0.78427 0.48198 0.68715 0.0
H1280 H 0.5942 0.28685 0.57595 0.0
H1281 H 0.48619 0.32617 0.56061 0.0
H1282 H 0.72041 0.48631 0.68036 0.0
H1283 H 0.53312 0.42005 0.7476 0.0
H1284 H 0.45061 0.36795 0.60697 0.0
H1285 H 0.44756 0.40107 0.66372 0.0
H1286 H 0.68303 0.58224 0.49689 0.0
H1287 H 0.47814 0.42052 0.71633 0.0
H1288 H 0.82279 0.49617 0.64026 0.0
N1289 N 0.6928 0.5276 0.57266 0.0
C1290 C 0.72821 0.52355 0.5742 0.0
C1291 C 0.69599 0.56506 0.51834 0.0
C1292 C 0.74896 0.53899 0.54738 0.0
C1293 C 0.67637 0.54735 0.54524 0.0
C1294 C 0.73243 0.56085 0.51938 0.0
N1295 N 0.72294 0.49911 0.62965 0.0
C1296 C 0.73695 0.49142 0.65958 0.0
C1297 C 0.78031 0.50696 0.60642 0.0
C1298 C 0.74376 0.50908 0.6036 0.0
C1299 C 0.79487 0.49641 0.63683 0.0
C1300 C 0.77314 0.48893 0.66351 0.0
H1301 H 0.74752 0.57443 0.49841 0.0
H1302 H 0.80189 0.54418 0.52912 0.0
H1303 H 0.82907 0.5132 0.58037 0.0
O1304 O 0.64845 0.58875 0.64804 0.0
O1305 O 0.69539 0.41438 0.61851 0.0
O1306 O 0.67202 0.34901 0.65797 0.0
O1307 O 0.68102 0.60296 0.60673 0.0
O1308 O 0.65715 0.50174 0.67127 0.0
O1309 O 0.64211 0.39831 0.6898 0.0
O1310 O 0.62049 0.25269 0.63449 0.0
O1311 O 0.59316 0.45055 0.65377 0.0
O1312 O 0.60832 0.507 0.60904 0.0
O1313 O 0.60267 0.27875 0.68145 0.0
O1314 O 0.63705 0.35697 0.59779 0.0
O1315 O 0.63124 0.46488 0.5841 0.0
C1316 C 0.69723 0.36258 0.63763 0.0
C1317 C 0.64172 0.68617 0.61809 0.0
C1318 C 0.62862 0.80269 0.62031 0.0
C1319 C 0.60937 0.79617 0.59169 0.0
C1320 C 0.6212 0.68018 0.59036 0.0
C1321 C 0.60545 0.73515 0.57707 0.0
C1322 C 0.64494 0.74705 0.63329 0.0
C1323 C 0.65078 0.4605 0.69466 0.0
C1324 C 0.66309 0.63128 0.62907 0.0
C1325 C 0.78545 0.53407 0.54971 0.0
C1326 C 0.801 0.51718 0.57903 0.0
C1327 C 0.58466 0.49041 0.63047 0.0
C1328 C 0.63122 0.17711 0.6761 0.0
C1329 C 0.64288 0.05969 0.67823 0.0
C1330 C 0.66447 0.07054 0.70508 0.0
C1331 C 0.65387 0.18702 0.70213 0.0
C1332 C 0.62628 0.11373 0.66392 0.0
C1333 C 0.67027 0.1338 0.71657 0.0
C1334 C 0.63254 0.40321 0.57591 0.0
C1335 C 0.61084 0.23113 0.66239 0.0
H1336 H 0.59724 0.83823 0.5806 0.0
H1337 H 0.61832 0.63345 0.57843 0.0
H1338 H 0.59033 0.73058 0.55521 0.0
H1339 H 0.66044 0.75096 0.655 0.0
H1340 H 0.67717 0.03021 0.71712 0.0
H1341 H 0.65838 0.23561 0.71163 0.0
H1342 H 0.6096 0.10688 0.64315 0.0
H1343 H 0.68738 0.14151 0.73691 0.0
C1344 C 0.24153 0.25428 0.11016 0.0
C1345 C 0.22815 0.22623 0.13862 0.0
H1346 H 0.28021 0.31714 0.08833 0.0
C1347 C 0.24565 0.24145 0.1675 0.0
H1348 H 0.2289 0.24426 0.08741 0.0
C1349 C 0.27567 0.28198 0.16793 0.0
C1350 C 0.2888 0.31095 0.13965 0.0
H1351 H 0.23643 0.22096 0.18992 0.0
H1352 H 0.28845 0.29129 0.19069 0.0
C1353 C 0.27097 0.29664 0.11073 0.0
C1354 C 0.77236 0.78767 0.11138 0.0
C1355 C 0.78769 0.81251 0.1397 0.0
H1356 H 0.73151 0.72901 0.09024 0.0
C1357 C 0.77143 0.79671 0.16909 0.0
H1358 H 0.78395 0.79855 0.08827 0.0
C1359 C 0.74074 0.75821 0.17016 0.0
C1360 C 0.72577 0.73227 0.14196 0.0
H1361 H 0.78219 0.81506 0.1914 0.0
H1362 H 0.72898 0.74781 0.19325 0.0
C1363 C 0.74226 0.74743 0.11254 0.0
C1364 C 0.27583 0.7563 0.39659 0.0
C1365 C 0.29043 0.73299 0.36757 0.0
H1366 H 0.23435 0.80962 0.41998 0.0
C1367 C 0.27236 0.74878 0.33905 0.0
H1368 H 0.2888 0.74617 0.41914 0.0
C1369 C 0.24073 0.78503 0.33957 0.0
C1370 C 0.22622 0.80862 0.36856 0.0
H1371 H 0.28242 0.73207 0.31618 0.0
H1372 H 0.22777 0.79531 0.31703 0.0
C1373 C 0.24453 0.79347 0.39706 0.0
C1374 C 0.77508 0.25896 0.34293 0.0
C1375 C 0.79112 0.23566 0.37116 0.0
H1376 H 0.73302 0.31419 0.32182 0.0
C1377 C 0.77585 0.25398 0.40071 0.0
H1378 H 0.78582 0.24604 0.31973 0.0
C1379 C 0.74593 0.2946 0.40196 0.0
C1380 C 0.72953 0.31699 0.37367 0.0
H1381 H 0.78738 0.23762 0.42303 0.0
H1382 H 0.73531 0.30774 0.42518 0.0
C1383 C 0.74459 0.29799 0.34415 0.0
C1384 C 0.74811 0.74968 0.85395 0.0
C1385 C 0.73444 0.7236 0.8827 0.0
H1386 H 0.78577 0.8123 0.83105 0.0
C1387 C 0.74964 0.74615 0.91167 0.0
H1388 H 0.73735 0.73439 0.83108 0.0
C1389 C 0.77707 0.79351 0.9117 0.0
C1390 C 0.79098 0.81859 0.88272 0.0
H1391 H 0.73981 0.72826 0.93441 0.0
H1392 H 0.78794 0.80936 0.93442 0.0
C1393 C 0.77601 0.79505 0.85394 0.0
C1394 C 0.27852 0.28919 0.90743 0.0
C1395 C 0.29094 0.31753 0.87867 0.0
H1396 H 0.24207 0.22228 0.92982 0.0
C1397 C 0.27398 0.2992 0.84997 0.0
H1398 H 0.29102 0.30125 0.93001 0.0
C1399 C 0.2454 0.25537 0.84995 0.0
C1400 C 0.23328 0.22592 0.87849 0.0
H1401 H 0.28265 0.31944 0.8273 0.0
H1402 H 0.23301 0.24374 0.82726 0.0
C1403 C 0.25057 0.2433 0.90728 0.0
C1404 C 0.73974 0.28295 0.66402 0.0
C1405 C 0.729 0.31797 0.63655 0.0
H1406 H 0.77637 0.21546 0.68507 0.0
C1407 C 0.7482 0.30749 0.608 0.0
H1408 H 0.72584 0.28907 0.68647 0.0
C1409 C 0.77655 0.26281 0.60691 0.0
C1410 C 0.78759 0.22889 0.63462 0.0
H1411 H 0.74086 0.33291 0.58623 0.0
H1412 H 0.79036 0.25586 0.58447 0.0
C1413 C 0.76884 0.24041 0.66322 0.0
C1414 C 0.24344 0.79085 0.65975 0.0
C1415 C 0.22884 0.8152 0.63106 0.0
H1416 H 0.28278 0.73176 0.68232 0.0
C1417 C 0.24405 0.79375 0.60195 0.0
H1418 H 0.23274 0.80568 0.6827 0.0
C1419 C 0.27245 0.74885 0.6017 0.0
C1420 C 0.2873 0.72555 0.63059 0.0
H1421 H 0.23357 0.81071 0.5793 0.0
H1422 H 0.28329 0.73354 0.57889 0.0
C1423 C 0.2723 0.74797 0.65952 0.0
C1424 C 0.10911 0.02794 0.2779 0.0
C1425 C 0.1333 0.97822 0.2858 0.0
H1426 H 0.09125 0.09777 0.24265 0.0
C1427 C 0.15975 0.96467 0.26369 0.0
H1428 H 0.0888 0.04105 0.29484 0.0
C1429 C 0.16255 1.00054 0.23509 0.0
C1430 C 0.13783 0.0482 0.22602 0.0
H1431 H 0.17989 0.92949 0.26955 0.0
H1432 H 0.18532 0.9926 0.22096 0.0
C1433 C 0.11091 0.06154 0.24819 0.0
C1434 C 0.87764 0.09588 0.25597 0.0
C1435 C 0.88428 0.06102 0.28433 0.0
H1436 H 0.87298 0.09316 0.20469 0.0
C1437 C 0.89345 0.99428 0.28122 0.0
H1438 H 0.87077 0.14713 0.25708 0.0
C1439 C 0.89371 0.96256 0.25128 0.0
C1440 C 0.8855 0.9963 0.22297 0.0
H1441 H 0.89951 0.96536 0.30226 0.0
H1442 H 0.89985 0.91125 0.25061 0.0
C1443 C 0.87867 0.06427 0.2258 0.0
C1444 C 0.86531 0.98687 0.73041 0.0
C1445 C 0.87379 0.05385 0.72637 0.0
H1446 H 0.85913 0.90545 0.76272 0.0
C1447 C 0.88318 0.08906 0.75404 0.0
H1448 H 0.85825 0.95713 0.70988 0.0
C1449 C 0.8836 0.0591 0.78447 0.0
C1450 C 0.87482 0.99243 0.78853 0.0
H1451 H 0.88967 0.14012 0.75256 0.0
H1452 H 0.8909 0.08876 0.80496 0.0
C1453 C 0.86594 0.95668 0.76086 0.0
C1454 C 0.1403 0.08598 0.75846 0.0
C1455 C 0.1486 0.04988 0.78607 0.0
H1456 H 0.13072 0.08537 0.70784 0.0
C1457 C 0.15465 0.98199 0.78211 0.0
H1458 H 0.1361 0.1381 0.75996 0.0
C1459 C 0.15225 0.95145 0.75187 0.0
C1460 C 0.14326 0.98734 0.7244 0.0
H1461 H 0.16131 0.95173 0.80249 0.0
H1462 H 0.15791 0.89984 0.75009 0.0
C1463 C 0.13742 0.05526 0.72828 0.0
C1464 C 0.64059 0.56662 0.28722 0.0
C1465 C 0.63155 0.49968 0.2907 0.0
H1466 H 0.64961 0.64777 0.25523 0.0
C1467 C 0.62063 0.46642 0.26297 0.0
H1468 H 0.64809 0.59544 0.30792 0.0
C1469 C 0.62081 0.49716 0.23282 0.0
C1470 C 0.63214 0.56256 0.22906 0.0
H1471 H 0.6124 0.41625 0.26424 0.0
H1472 H 0.61284 0.4686 0.21216 0.0
C1473 C 0.64116 0.59737 0.25691 0.0
C1474 C 0.41086 0.54508 0.26724 0.0
C1475 C 0.37984 0.56068 0.28377 0.0
H1476 H 0.43391 0.50039 0.22529 0.0
C1477 C 0.34825 0.53841 0.27044 0.0
H1478 H 0.43582 0.56124 0.27661 0.0
C1479 C 0.34752 0.49701 0.24347 0.0
C1480 C 0.37813 0.48239 0.22641 0.0
H1481 H 0.3238 0.55356 0.28077 0.0
H1482 H 0.32258 0.47911 0.23499 0.0
C1483 C 0.40986 0.50834 0.23835 0.0
C1484 C 0.37448 0.56076 0.78234 0.0
C1485 C 0.37638 0.49189 0.7856 0.0
H1486 H 0.37075 0.64375 0.75112 0.0
C1487 C 0.37696 0.455 0.75713 0.0
H1488 H 0.3735 0.59185 0.80335 0.0
C1489 C 0.37695 0.48565 0.7268 0.0
C1490 C 0.37527 0.55453 0.72358 0.0
H1491 H 0.3773 0.40238 0.758 0.0
H1492 H 0.37804 0.45464 0.70575 0.0
C1493 C 0.37337 0.5913 0.75203 0.0
C1494 C 0.65728 0.58751 0.76243 0.0
C1495 C 0.65133 0.55028 0.79011 0.0
H1496 H 0.66234 0.58903 0.71144 0.0
C1497 C 0.64578 0.48219 0.78615 0.0
H1498 H 0.66166 0.63968 0.76424 0.0
C1499 C 0.64624 0.45244 0.75565 0.0
C1500 C 0.65216 0.48968 0.72792 0.0
H1501 H 0.6407 0.45131 0.80669 0.0
H1502 H 0.64174 0.40031 0.75387 0.0
C1503 C 0.65778 0.55779 0.73195 0.0
C1504 C 0.14646 0.20661 0.99026 0.0
C1505 C 0.12915 0.15677 0.973 0.0
H1506 H 0.15888 0.24651 0.03704 0.0
C1507 C 0.10703 0.11442 0.99015 0.0
H1508 H 0.16384 0.23988 0.97785 0.0
C1509 C 0.10392 0.11858 0.02352 0.0
C1510 C 0.12293 0.1651 0.0413 0.0
H1511 H 0.09289 0.07595 0.97781 0.0
H1512 H 0.08785 0.08263 0.03565 0.0
C1513 C 0.14337 0.21078 0.02416 0.0
C1514 C 0.87578 0.8275 0.98969 0.0
C1515 C 0.89628 0.87328 0.97275 0.0
H1516 H 0.85876 0.79295 0.03626 0.0
C1517 C 0.91906 0.91337 0.99064 0.0
H1518 H 0.85764 0.79641 0.97682 0.0
C1519 C 0.91959 0.91165 0.02421 0.0
C1520 C 0.89766 0.86927 0.04147 0.0
H1521 H 0.9355 0.94894 0.97866 0.0
H1522 H 0.93612 0.94628 0.0368 0.0
C1523 C 0.87655 0.82536 0.02379 0.0
C1524 C 0.10144 0.91767 0.489 0.0
C1525 C 0.12282 0.87506 0.47133 0.0
H1526 H 0.08572 0.95324 0.53492 0.0
C1527 C 0.14334 0.82959 0.4884 0.0
H1528 H 0.08531 0.95329 0.47677 0.0
C1529 C 0.14388 0.82994 0.52247 0.0
C1530 C 0.12382 0.87561 0.53989 0.0
H1531 H 0.16056 0.79685 0.47551 0.0
H1532 H 0.16141 0.79728 0.53502 0.0
C1533 C 0.10179 0.9177 0.52252 0.0
C1534 C 0.8705 0.20716 0.52181 0.0
C1535 C 0.88991 0.16067 0.53928 0.0
H1536 H 0.85429 0.24082 0.47487 0.0
C1537 C 0.9113 0.11731 0.52196 0.0
H1538 H 0.85357 0.24101 0.53433 0.0
C1539 C 0.91144 0.11681 0.4884 0.0
C1540 C 0.89072 0.16046 0.47072 0.0
H1541 H 0.92697 0.08135 0.53445 0.0
H1542 H 0.92702 0.08028 0.47617 0.0
C1543 C 0.87095 0.20714 0.48776 0.0
C1544 C 0.60492 0.62154 0.02515 0.0
C1545 C 0.62717 0.66206 0.04309 0.0
H1546 H 0.58894 0.58796 0.97895 0.0
C1547 C 0.649 0.70616 0.02646 0.0
H1548 H 0.58778 0.58713 0.03712 0.0
C1549 C 0.65006 0.70616 0.99244 0.0
C1550 C 0.62912 0.66235 0.97473 0.0
H1551 H 0.66682 0.73733 0.03967 0.0
H1552 H 0.66867 0.73726 0.98019 0.0
C1553 C 0.60567 0.62206 0.99166 0.0
C1554 C 0.37197 0.33477 0.9887 0.0
C1555 C 0.39258 0.38028 0.97168 0.0
H1556 H 0.35423 0.30178 0.03535 0.0
C1557 C 0.41458 0.4219 0.98949 0.0
H1558 H 0.35445 0.30248 0.97581 0.0
C1559 C 0.41438 0.42163 0.02302 0.0
C1560 C 0.39237 0.3794 0.0403 0.0
H1561 H 0.43108 0.45725 0.97741 0.0
H1562 H 0.43055 0.45694 0.03554 0.0
C1563 C 0.37191 0.33426 0.0228 0.0
C1564 C 0.64233 0.33429 0.49065 0.0
C1565 C 0.62198 0.37929 0.47313 0.0
H1566 H 0.66197 0.30626 0.53734 0.0
C1567 C 0.60211 0.4252 0.49034 0.0
H1568 H 0.65849 0.29917 0.4781 0.0
C1569 C 0.60446 0.42974 0.52368 0.0
C1570 C 0.62658 0.38827 0.54121 0.0
H1571 H 0.58618 0.46064 0.47776 0.0
H1572 H 0.58985 0.46793 0.5357 0.0
C1573 C 0.64458 0.33873 0.52452 0.0
C1574 C 0.37751 0.71558 0.52075 0.0
C1575 C 0.39553 0.6676 0.53843 0.0
H1576 H 0.36345 0.75124 0.47362 0.0
C1577 C 0.41683 0.6235 0.52128 0.0
H1578 H 0.3607 0.75002 0.53301 0.0
C1579 C 0.418 0.62354 0.48773 0.0
C1580 C 0.3986 0.66872 0.4698 0.0
H1581 H 0.43154 0.58622 0.53382 0.0
H1582 H 0.43319 0.58616 0.47571 0.0
C1583 C 0.3792 0.71637 0.48671 0.0
C1584 C 0.98056 0.05443 0.12615 0.0
C1585 C 0.97526 0.98865 0.13452 0.0
H1586 H 0.01683 0.13248 0.11974 0.0
C1587 C 1.00493 0.95186 0.14349 0.0
H1588 H 0.95874 0.08484 0.1191 0.0
C1589 C 0.03863 0.97958 0.14386 0.0
C1590 C 0.04384 0.04546 0.13563 0.0
H1591 H 1.00231 0.90138 0.15043 0.0
H1592 H 0.06053 0.94938 0.15088 0.0
C1593 C 0.01419 0.08214 0.12672 0.0
C1594 C 0.98937 0.03131 0.41325 0.0
C1595 C 0.97106 0.03892 0.38418 0.0
H1596 H 0.03811 1.00483 0.43586 0.0
C1597 C 0.98851 0.02533 0.35528 0.0
H1598 H 0.97679 0.0428 0.43585 0.0
C1599 C 0.02324 1.00447 0.35526 0.0
C1600 C 0.04182 0.99708 0.38414 0.0
H1601 H 0.97529 0.03144 0.33247 0.0
H1602 H 0.03565 0.99407 0.33244 0.0
C1603 C 0.0246 1.01098 0.41322 0.0
C1604 C 0.03288 1.02048 0.91047 0.0
C1605 C 0.0502 0.03578 0.88159 0.0
H1606 H 0.98501 0.98879 0.93301 0.0
C1607 C 0.03144 0.02859 0.85267 0.0
H1608 H 0.04631 0.02603 0.9332 0.0
C1609 C 0.99656 1.00687 0.85254 0.0
C1610 C 0.97902 0.99247 0.88135 0.0
H1611 H 0.0438 0.03994 0.82994 0.0
H1612 H 0.9831 1.00208 0.82978 0.0
C1613 C 0.99761 0.99986 0.91037 0.0
C1614 C 0.97853 0.98937 0.65183 0.0
C1615 C 0.97109 0.04583 0.63389 0.0
H1616 H 0.01718 0.92106 0.66751 0.0
C1617 C 0.99863 0.07426 0.61621 0.0
H1618 H 0.95825 0.96637 0.66603 0.0
C1619 C 0.03237 0.04705 0.61625 0.0
C1620 C 0.04001 0.99074 0.63433 0.0
H1621 H 0.99406 0.11743 0.60188 0.0
H1622 H 0.05254 0.07061 0.60215 0.0
C1623 C 0.01253 0.96297 0.65246 0.0
C1624 C 0.49104 0.5087 0.15777 0.0
C1625 C 0.47258 0.50063 0.12887 0.0
H1626 H 0.53923 0.53427 0.18063 0.0
C1627 C 0.49024 0.51261 0.09978 0.0
H1628 H 0.47833 0.49989 0.18058 0.0
C1629 C 0.52572 0.5317 0.09979 0.0
C1630 C 0.54393 0.53988 0.1289 0.0
H1631 H 0.47685 0.50597 0.07711 0.0
H1632 H 0.5386 0.5418 0.07719 0.0
C1633 C 0.52608 0.52796 0.15779 0.0
C1634 C 0.48183 0.48888 0.3946 0.0
C1635 C 0.47439 0.54395 0.37561 0.0
H1636 H 0.52095 0.42274 0.41216 0.0
C1637 C 0.50231 0.57225 0.35842 0.0
H1638 H 0.46125 0.46566 0.40834 0.0
C1639 C 0.53673 0.54856 0.36105 0.0
C1640 C 0.54428 0.49396 0.3802 0.0
H1641 H 0.49737 0.61181 0.34208 0.0
H1642 H 0.55726 0.57183 0.34725 0.0
C1643 C 0.51621 0.46429 0.3968 0.0
C1644 C 0.49788 0.5013 0.85215 0.0
C1645 C 0.47765 0.49697 0.88032 0.0
H1646 H 0.54698 0.52813 0.83084 0.0
C1647 C 0.49331 0.51534 0.90961 0.0
H1648 H 0.4868 0.48744 0.82919 0.0
C1649 C 0.52837 0.53671 0.91066 0.0
C1650 C 0.54828 0.542 0.88235 0.0
H1651 H 0.47866 0.512 0.9318 0.0
H1652 H 0.53967 0.55052 0.93353 0.0
C1653 C 0.53245 0.52443 0.85309 0.0
C1654 C 0.49868 0.56402 0.65906 0.0
C1655 C 0.47775 0.56164 0.63126 0.0
H1656 H 0.54842 0.54287 0.68059 0.0
C1657 C 0.49309 0.53867 0.60261 0.0
H1658 H 0.48787 0.58127 0.68156 0.0
C1659 C 0.52834 0.51865 0.60186 0.0
C1660 C 0.54879 0.51928 0.62993 0.0
H1661 H 0.47789 0.53646 0.5807 0.0
H1662 H 0.53919 0.50021 0.57961 0.0
C1663 C 0.53348 0.54229 0.65849 0.0
C1664 C 0.147 0.68305 0.13041 0.0
C1665 C 0.13752 0.69048 0.09792 0.0
H1666 H 0.14623 0.62125 0.17204 0.0
C1667 C 0.11964 0.63851 0.08275 0.0
H1668 H 0.16122 0.721 0.14297 0.0
C1669 C 0.11221 0.58067 0.09916 0.0
C1670 C 0.12127 0.57401 0.13152 0.0
H1671 H 0.11077 0.64248 0.05817 0.0
H1672 H 0.09849 0.54174 0.08679 0.0
C1673 C 0.13866 0.62568 0.14707 0.0
C1674 C 0.92202 0.38248 0.10269 0.0
C1675 C 0.89326 0.33924 0.10524 0.0
H1676 H 0.94464 0.47457 0.11596 0.0
C1677 C 0.86379 0.36064 0.12268 0.0
H1678 H 0.94561 0.36912 0.09012 0.0
C1679 C 0.86388 0.42152 0.13808 0.0
C1680 C 0.89302 0.46291 0.1358 0.0
H1681 H 0.84061 0.33069 0.12473 0.0
H1682 H 0.84141 0.43587 0.15225 0.0
C1683 C 0.92174 0.44356 0.11756 0.0
C1684 C 0.09962 0.38595 0.39028 0.0
C1685 C 0.129 0.34452 0.39082 0.0
H1686 H 0.07789 0.4772 0.37477 0.0
C1687 C 0.15961 0.36525 0.37513 0.0
H1688 H 0.07537 0.37134 0.40159 0.0
C1689 C 0.16079 0.42554 0.3594 0.0
C1690 C 0.13149 0.46692 0.35903 0.0
H1691 H 0.18299 0.33559 0.37552 0.0
H1692 H 0.18493 0.44023 0.34793 0.0
C1693 C 0.10096 0.44664 0.37483 0.0
C1694 C 0.91394 0.59089 0.37356 0.0
C1695 C 0.88482 0.57162 0.35536 0.0
H1696 H 0.93789 0.66528 0.40212 0.0
C1697 C 0.85619 0.61445 0.3533 0.0
H1698 H 0.93661 0.55951 0.37532 0.0
C1699 C 0.85644 0.67454 0.36936 0.0
C1700 C 0.88559 0.69418 0.38758 0.0
H1701 H 0.83319 0.60117 0.33969 0.0
H1702 H 0.83335 0.70482 0.36794 0.0
C1703 C 0.91452 0.65164 0.3891 0.0
C1704 C 0.87648 0.41715 0.90062 0.0
C1705 C 0.86666 0.36504 0.88064 0.0
H1706 H 0.89737 0.51398 0.90353 0.0
C1707 C 0.8715 0.37052 0.84732 0.0
H1708 H 0.87372 0.41352 0.92645 0.0
C1709 C 0.88529 0.42784 0.8342 0.0
C1710 C 0.89451 0.48041 0.85423 0.0
H1711 H 0.86411 0.33095 0.83139 0.0
H1712 H 0.88819 0.43151 0.80839 0.0
C1713 C 0.89011 0.47442 0.88755 0.0
C1714 C 0.0783 0.5941 0.87883 0.0
C1715 C 0.1055 0.55965 0.86398 0.0
H1716 H 0.06246 0.68086 0.90312 0.0
C1717 C 0.13893 0.5881 0.86266 0.0
H1718 H 0.05227 0.57342 0.88015 0.0
C1719 C 0.14498 0.64993 0.8762 0.0
C1720 C 0.11765 0.68388 0.89139 0.0
H1721 H 0.16005 0.56321 0.85061 0.0
H1722 H 0.17099 0.67075 0.87513 0.0
C1723 C 0.08424 0.65544 0.89221 0.0
C1724 C 0.87047 0.63401 0.5901 0.0
C1725 C 0.86032 0.68287 0.61178 0.0
H1726 H 0.89436 0.54014 0.58427 0.0
C1727 C 0.86629 0.67429 0.64479 0.0
H1728 H 0.86638 0.63992 0.56453 0.0
C1729 C 0.8823 0.61788 0.65593 0.0
C1730 C 0.89257 0.56917 0.63425 0.0
H1731 H 0.85833 0.71104 0.66205 0.0
H1732 H 0.88608 0.61176 0.68154 0.0
C1733 C 0.88663 0.57748 0.6013 0.0
C1734 C 0.15353 0.36526 0.65486 0.0
C1735 C 0.16106 0.35745 0.62209 0.0
H1736 H 0.13217 0.42738 0.69118 0.0
C1737 C 0.15169 0.40651 0.60028 0.0
H1738 H 0.16046 0.32783 0.67209 0.0
C1739 C 0.13498 0.4627 0.61113 0.0
C1740 C 0.1279 0.47077 0.6439 0.0
H1741 H 0.15665 0.40088 0.57481 0.0
H1742 H 0.12778 0.50007 0.59396 0.0
C1743 C 0.13714 0.42166 0.66571 0.0
C1744 C 0.66092 0.11223 0.15801 0.0
C1745 C 0.63201 0.06972 0.15755 0.0
H1746 H 0.68303 0.20254 0.14224 0.0
C1747 C 0.60188 0.08888 0.14083 0.0
H1748 H 0.68472 0.0987 0.1703 0.0
C1749 C 0.60056 0.14944 0.12526 0.0
C1750 C 0.62962 0.19186 0.12542 0.0
H1751 H 0.57906 0.05756 0.14026 0.0
H1752 H 0.57655 0.16312 0.11332 0.0
C1753 C 0.65983 0.17224 0.14204 0.0
C1754 C 0.36117 0.86641 0.13773 0.0
C1755 C 0.3906 0.84949 0.11937 0.0
H1756 H 0.33677 0.93571 0.16821 0.0
C1757 C 0.4187 0.89417 0.11812 0.0
H1758 H 0.33853 0.83477 0.13885 0.0
C1759 C 0.41704 0.95425 0.13434 0.0
C1760 C 0.38763 0.97055 0.15288 0.0
H1761 H 0.4422 0.88272 0.10483 0.0
H1762 H 0.43907 0.98736 0.13281 0.0
C1763 C 0.35993 0.92542 0.15445 0.0
C1764 C 0.65293 0.93551 0.38375 0.0
C1765 C 0.62123 0.96684 0.37673 0.0
H1766 H 0.67764 0.84994 0.40299 0.0
C1767 C 0.58969 0.9359 0.384 0.0
H1768 H 0.67757 0.95853 0.37774 0.0
C1769 C 0.58962 0.87431 0.39812 0.0
C1770 C 0.62115 0.84175 0.40503 0.0
H1771 H 0.56504 0.95896 0.37817 0.0
H1772 H 0.56463 0.85199 0.40317 0.0
C1773 C 0.65291 0.87318 0.39773 0.0
C1774 C 0.35493 0.12639 0.36727 0.0
C1775 C 0.38345 0.08335 0.36661 0.0
H1776 H 0.33477 0.21799 0.38342 0.0
C1777 C 0.41471 0.10201 0.38137 0.0
H1778 H 0.33031 0.11248 0.35634 0.0
C1779 C 0.41775 0.16298 0.39611 0.0
C1780 C 0.38929 0.20684 0.39724 0.0
H1781 H 0.43714 0.0698 0.38098 0.0
H1782 H 0.44285 0.17531 0.4063 0.0
C1783 C 0.35769 0.18721 0.38263 0.0
C1784 C 0.37093 0.91209 0.90655 0.0
C1785 C 0.36484 0.86302 0.88374 0.0
H1786 H 0.394 1.00551 0.91593 0.0
C1787 C 0.37772 0.87021 0.85238 0.0
H1788 H 0.36181 0.9067 0.93104 0.0
C1789 C 0.39543 0.92693 0.84364 0.0
C1790 C 0.40093 0.97668 0.8663 0.0
H1791 H 0.37346 0.83249 0.83451 0.0
H1792 H 0.40402 0.93263 0.81901 0.0
C1793 C 0.38926 0.96823 0.89795 0.0
C1794 C 0.6571 0.12453 0.89789 0.0
C1795 C 0.65494 0.17742 0.87673 0.0
H1796 H 0.64153 0.02599 0.90774 0.0
C1797 C 0.63398 0.17238 0.84916 0.0
H1798 H 0.67221 0.12861 0.91978 0.0
C1799 C 0.61666 0.11394 0.84218 0.0
C1800 C 0.61986 0.06008 0.86283 0.0
H1801 H 0.63177 0.21302 0.83264 0.0
H1802 H 0.60157 0.1103 0.82025 0.0
C1803 C 0.63961 0.06635 0.89106 0.0
C1804 C 0.38285 0.12166 0.66821 0.0
C1805 C 0.39086 0.07135 0.64657 0.0
H1806 H 0.36085 0.21687 0.67438 0.0
C1807 C 0.3833 0.07899 0.61386 0.0
H1808 H 0.38832 0.11645 0.69361 0.0
C1809 C 0.36694 0.13549 0.60299 0.0
C1810 C 0.35856 0.18552 0.62466 0.0
H1811 H 0.38971 0.04088 0.59676 0.0
H1812 H 0.36132 0.14049 0.57761 0.0
C1813 C 0.36694 0.17857 0.6573 0.0
C1814 C 0.66368 0.88731 0.64993 0.0
C1815 C 0.63186 0.86749 0.63623 0.0
H1816 H 0.69215 0.9627 0.67376 0.0
C1817 C 0.60327 0.91049 0.63738 0.0
H1818 H 0.68638 0.85586 0.64911 0.0
C1819 C 0.60666 0.97239 0.65127 0.0
C1820 C 0.63867 0.99271 0.66457 0.0
H1821 H 0.57813 0.89621 0.62768 0.0
H1822 H 0.58403 1.00403 0.65183 0.0
C1823 C 0.66699 0.94892 0.66404 0.0
loop_
_geom_bond_atom_site_label_1
_geom_bond_atom_site_label_2
_geom_bond_distance
_geom_bond_site_symmetry_2
_ccdc_geom_bond_type
Tb0 N29 2.617 . S
Tb0 N35 2.572 . S
Tb0 O44 2.465 . S
Tb0 O45 2.387 . S
Tb0 O47 2.428 . S
Tb0 O48 2.308 . S
Tb0 O52 2.349 . S
Tb0 O55 2.393 . S
Tb0 C64 2.802 . S
C1 N2 1.379 . S
C1 C4 1.416 . S
C1 C8 1.426 . S
N2 C1 1.379 . S
N2 C5 1.334 . S
N2 Tb11 2.617 . S
C3 C5 1.390 . S
C3 C6 1.339 . S
C3 H23 0.930 1_554 S
C4 C1 1.416 . S
C4 C6 1.416 . S
C4 C10 1.449 . S
C5 N2 1.334 . S
C5 C3 1.390 . S
C5 H16 0.930 . S
C6 C3 1.339 . S
C6 C4 1.416 . S
C6 H27 0.930 . S
C7 C8 1.410 1_565 S
C7 C9 1.427 . S
C7 C13 1.416 . S
C8 C1 1.426 . S
C8 C7 1.410 1_545 S
C8 N12 1.361 . S
C9 C7 1.427 . S
C9 C10 1.328 1_565 S
C9 H24 0.929 . S
C10 C4 1.449 . S
C10 C9 1.328 1_545 S
C10 H25 0.930 . S
Tb11 N2 2.617 . S
Tb11 N12 2.576 . S
Tb11 O46 2.349 . S
Tb11 O49 2.393 . S
Tb11 O50 2.465 1_545 S
Tb11 O51 2.387 . S
Tb11 O53 2.428 1_545 S
Tb11 O54 2.308 . S
Tb11 C75 2.802 1_545 S
N12 C8 1.361 . S
N12 Tb11 2.576 . S
N12 C14 1.338 1_545 S
C13 C7 1.416 . S
C13 C15 1.332 . S
C13 H21 0.931 . S
C14 N12 1.338 1_565 S
C14 C15 1.407 . S
C14 H20 0.930 . S
C15 C13 1.332 . S
C15 C14 1.407 . S
C15 H17 0.929 . S
H16 C5 0.930 . S
H17 C15 0.929 . S
H18 C33 0.930 . S
H19 C40 0.929 1_655 S
H20 C14 0.930 . S
H21 C13 0.931 . S
H22 C36 0.930 . S
H23 C3 0.930 1_556 S
H24 C9 0.929 . S
H25 C10 0.930 . S
H26 C31 0.930 . S
H27 C6 0.930 . S
H28 C39 0.931 . S
N29 Tb0 2.617 . S
N29 C30 1.379 . S
N29 C33 1.334 . S
C30 N29 1.379 . S
C30 C32 1.416 1_455 S
C30 C38 1.424 . S
C31 H26 0.930 . S
C31 C33 1.390 . S
C31 C34 1.339 . S
C32 C30 1.416 1_655 S
C32 C34 1.416 1_655 S
C32 C65 1.448 . S
C33 H18 0.930 . S
C33 N29 1.334 . S
C33 C31 1.390 . S
C34 C31 1.339 . S
C34 C32 1.416 1_455 S
C34 H41 0.930 1_455 S
N35 Tb0 2.572 . S
N35 C36 1.340 . S
N35 C38 1.361 . S
C36 H22 0.930 . S
C36 N35 1.340 . S
C36 C40 1.407 . S
C37 C38 1.413 1_655 S
C37 C39 1.416 . S
C37 C66 1.427 . S
C38 C30 1.424 . S
C38 N35 1.361 . S
C38 C37 1.413 1_455 S
C39 H28 0.931 . S
C39 C37 1.416 . S
C39 C40 1.332 1_655 S
C40 H19 0.929 1_455 S
C40 C36 1.407 . S
C40 C39 1.332 1_455 S
H41 C34 0.930 1_655 S
H42 C65 0.930 . S
H43 C66 0.929 . S
O44 Tb0 2.465 . S
O44 C64 1.264 . S
O45 Tb0 2.387 . S
O45 C56 1.264 . S
O46 Tb11 2.349 . S
O46 C56 1.243 . S
O47 Tb0 2.428 . S
O47 C64 1.256 . S
O48 Tb0 2.308 . S
O48 C63 1.266 . S
O49 Tb11 2.393 . S
O49 C63 1.248 . S
O50 Tb11 2.465 1_565 S
O50 C75 1.264 . S
O51 Tb11 2.387 . S
O51 C67 1.264 . S
O52 Tb0 2.349 . S
O52 C67 1.243 . S
O53 Tb11 2.428 1_565 S
O53 C75 1.256 . S
O54 Tb11 2.308 . S
O54 C74 1.266 . S
O55 Tb0 2.393 . S
O55 C74 1.248 . S
C56 O45 1.264 . S
C56 O46 1.243 . S
C57 C60 1.399 . S
C57 C62 1.383 . S
C57 C64 1.496 . S
C58 C59 1.399 . S
C58 C62 1.389 . S
C59 C58 1.399 . S
C59 C61 1.380 . S
C59 H76 0.929 . S
C60 C57 1.399 . S
C60 C61 1.392 . S
C60 H77 0.929 . S
C61 C59 1.380 . S
C61 C60 1.392 . S
C61 H78 0.929 . S
C62 C57 1.383 . S
C62 C58 1.389 . S
C62 H79 0.931 . S
C63 O48 1.266 . S
C63 O49 1.248 . S
C64 Tb0 2.802 . S
C64 O44 1.264 . S
C64 O47 1.256 . S
C64 C57 1.496 . S
C65 C32 1.448 . S
C65 H42 0.930 . S
C65 C66 1.328 . S
C66 C37 1.427 . S
C66 H43 0.929 . S
C66 C65 1.328 . S
C67 O51 1.264 . S
C67 O52 1.243 . S
C68 C71 1.399 . S
C68 C72 1.383 . S
C68 C75 1.496 . S
C69 C70 1.399 . S
C69 C72 1.389 . S
C70 C69 1.399 . S
C70 C73 1.380 . S
C70 H80 0.929 . S
C71 C68 1.399 . S
C71 C73 1.392 . S
C71 H81 0.929 . S
C72 C68 1.383 . S
C72 C69 1.389 . S
C72 H82 0.931 . S
C73 C70 1.380 . S
C73 C71 1.392 . S
C73 H83 0.929 . S
C74 O54 1.266 . S
C74 O55 1.248 . S
C75 Tb11 2.802 1_565 S
C75 O50 1.264 . S
C75 O53 1.256 . S
C75 C68 1.496 . S
H76 C59 0.929 . S
H77 C60 0.929 . S
H78 C61 0.929 . S
H79 C62 0.931 . S
H80 C70 0.929 . S
H81 C71 0.929 . S
H82 C72 0.931 . S
H83 C73 0.929 . S
Tb84 N113 2.617 . S
Tb84 N119 2.572 . S
Tb84 O128 2.465 . S
Tb84 O129 2.387 . S
Tb84 O131 2.428 . S
Tb84 O132 2.308 . S
Tb84 O136 2.349 . S
Tb84 O139 2.393 . S
Tb84 C148 2.802 . S
C85 N86 1.379 . S
C85 C88 1.416 . S
C85 C92 1.426 . S
N86 C85 1.379 . S
N86 C89 1.334 . S
N86 Tb95 2.617 . S
C87 C89 1.390 . S
C87 C90 1.339 . S
C87 H107 0.930 1_554 S
C88 C85 1.416 . S
C88 C90 1.416 . S
C88 C94 1.449 . S
C89 N86 1.334 . S
C89 C87 1.390 . S
C89 H100 0.930 . S
C90 C87 1.339 . S
C90 C88 1.416 . S
C90 H111 0.930 . S
C91 C92 1.410 1_545 S
C91 C93 1.427 . S
C91 C97 1.416 . S
C92 C85 1.426 . S
C92 C91 1.410 1_565 S
C92 N96 1.361 . S
C93 C91 1.427 . S
C93 C94 1.328 1_545 S
C93 H108 0.929 . S
C94 C88 1.449 . S
C94 C93 1.328 1_565 S
C94 H109 0.930 . S
Tb95 N86 2.617 . S
Tb95 N96 2.576 . S
Tb95 O130 2.349 . S
Tb95 O133 2.393 . S
Tb95 O134 2.465 1_565 S
Tb95 O135 2.387 . S
Tb95 O137 2.428 1_565 S
Tb95 O138 2.308 . S
Tb95 C159 2.802 1_565 S
N96 C92 1.361 . S
N96 Tb95 2.576 . S
N96 C98 1.338 1_565 S
C97 C91 1.416 . S
C97 C99 1.332 . S
C97 H105 0.931 . S
C98 N96 1.338 1_545 S
C98 C99 1.407 . S
C98 H104 0.930 . S
C99 C97 1.332 . S
C99 C98 1.407 . S
C99 H101 0.929 . S
H100 C89 0.930 . S
H101 C99 0.929 . S
H102 C117 0.930 . S
H103 C124 0.929 1_455 S
H104 C98 0.930 . S
H105 C97 0.931 . S
H106 C120 0.930 . S
H107 C87 0.930 1_556 S
H108 C93 0.929 . S
H109 C94 0.930 . S
H110 C115 0.930 . S
H111 C90 0.930 . S
H112 C123 0.931 . S
N113 Tb84 2.617 . S
N113 C114 1.379 . S
N113 C117 1.334 . S
C114 N113 1.379 . S
C114 C116 1.416 1_655 S
C114 C122 1.424 . S
C115 H110 0.930 . S
C115 C117 1.390 . S
C115 C118 1.339 . S
C116 C114 1.416 1_455 S
C116 C118 1.416 1_455 S
C116 C149 1.448 . S
C117 H102 0.930 . S
C117 N113 1.334 . S
C117 C115 1.390 . S
C118 C115 1.339 . S
C118 C116 1.416 1_655 S
C118 H125 0.930 1_655 S
N119 Tb84 2.572 . S
N119 C120 1.340 . S
N119 C122 1.361 . S
C120 H106 0.930 . S
C120 N119 1.340 . S
C120 C124 1.407 . S
C121 C122 1.413 1_455 S
C121 C123 1.416 . S
C121 C150 1.427 . S
C122 C114 1.424 . S
C122 N119 1.361 . S
C122 C121 1.413 1_655 S
C123 H112 0.931 . S
C123 C121 1.416 . S
C123 C124 1.332 1_455 S
C124 H103 0.929 1_655 S
C124 C120 1.407 . S
C124 C123 1.332 1_655 S
H125 C118 0.930 1_455 S
H126 C149 0.930 . S
H127 C150 0.929 . S
O128 Tb84 2.465 . S
O128 C148 1.264 . S
O129 Tb84 2.387 . S
O129 C140 1.264 . S
O130 Tb95 2.349 . S
O130 C140 1.243 . S
O131 Tb84 2.428 . S
O131 C148 1.256 . S
O132 Tb84 2.308 . S
O132 C147 1.266 . S
O133 Tb95 2.393 . S
O133 C147 1.248 . S
O134 Tb95 2.465 1_545 S
O134 C159 1.264 . S
O135 Tb95 2.387 . S
O135 C151 1.264 . S
O136 Tb84 2.349 . S
O136 C151 1.243 . S
O137 Tb95 2.428 1_545 S
O137 C159 1.256 . S
O138 Tb95 2.308 . S
O138 C158 1.266 . S
O139 Tb84 2.393 . S
O139 C158 1.248 . S
C140 O129 1.264 . S
C140 O130 1.243 . S
C141 C144 1.399 . S
C141 C146 1.383 . S
C141 C148 1.496 . S
C142 C143 1.399 . S
C142 C146 1.389 . S
C143 C142 1.399 . S
C143 C145 1.380 . S
C143 H160 0.929 . S
C144 C141 1.399 . S
C144 C145 1.392 . S
C144 H161 0.929 . S
C145 C143 1.380 . S
C145 C144 1.392 . S
C145 H162 0.929 . S
C146 C141 1.383 . S
C146 C142 1.389 . S
C146 H163 0.931 . S
C147 O132 1.266 . S
C147 O133 1.248 . S
C148 Tb84 2.802 . S
C148 O128 1.264 . S
C148 O131 1.256 . S
C148 C141 1.496 . S
C149 C116 1.448 . S
C149 H126 0.930 . S
C149 C150 1.328 . S
C150 C121 1.427 . S
C150 H127 0.929 . S
C150 C149 1.328 . S
C151 O135 1.264 . S
C151 O136 1.243 . S
C152 C155 1.399 . S
C152 C156 1.383 . S
C152 C159 1.496 . S
C153 C154 1.399 . S
C153 C156 1.389 . S
C154 C153 1.399 . S
C154 C157 1.380 . S
C154 H164 0.929 . S
C155 C152 1.399 . S
C155 C157 1.392 . S
C155 H165 0.929 . S
C156 C152 1.383 . S
C156 C153 1.389 . S
C156 H166 0.931 . S
C157 C154 1.380 . S
C157 C155 1.392 . S
C157 H167 0.929 . S
C158 O138 1.266 . S
C158 O139 1.248 . S
C159 Tb95 2.802 1_545 S
C159 O134 1.264 . S
C159 O137 1.256 . S
C159 C152 1.496 . S
H160 C143 0.929 . S
H161 C144 0.929 . S
H162 C145 0.929 . S
H163 C146 0.931 . S
H164 C154 0.929 . S
H165 C155 0.929 . S
H166 C156 0.931 . S
H167 C157 0.929 . S
Tb168 N197 2.617 . S
Tb168 N203 2.572 . S
Tb168 O212 2.465 . S
Tb168 O213 2.387 . S
Tb168 O215 2.428 . S
Tb168 O216 2.308 . S
Tb168 O220 2.349 . S
Tb168 O223 2.393 . S
Tb168 C232 2.802 . S
C169 N170 1.379 . S
C169 C172 1.416 . S
C169 C176 1.426 . S
N170 C169 1.379 . S
N170 C173 1.334 . S
N170 Tb179 2.617 . S
C171 C173 1.390 . S
C171 C174 1.339 . S
C171 H191 0.930 . S
C172 C169 1.416 . S
C172 C174 1.416 . S
C172 C178 1.449 . S
C173 N170 1.334 . S
C173 C171 1.390 . S
C173 H184 0.930 . S
C174 C171 1.339 . S
C174 C172 1.416 . S
C174 H195 0.930 . S
C175 C176 1.410 1_545 S
C175 C177 1.427 . S
C175 C181 1.416 . S
C176 C169 1.426 . S
C176 C175 1.410 1_565 S
C176 N180 1.361 . S
C177 C175 1.427 . S
C177 C178 1.328 1_545 S
C177 H192 0.929 . S
C178 C172 1.449 . S
C178 C177 1.328 1_565 S
C178 H193 0.930 . S
Tb179 N170 2.617 . S
Tb179 N180 2.576 . S
Tb179 O214 2.349 . S
Tb179 O217 2.393 . S
Tb179 O218 2.465 1_565 S
Tb179 O219 2.387 . S
Tb179 O221 2.428 1_565 S
Tb179 O222 2.308 . S
Tb179 C243 2.802 1_565 S
N180 C176 1.361 . S
N180 Tb179 2.576 . S
N180 C182 1.338 1_565 S
C181 C175 1.416 . S
C181 C183 1.332 . S
C181 H189 0.931 . S
C182 N180 1.338 1_545 S
C182 C183 1.407 . S
C182 H188 0.930 . S
C183 C181 1.332 . S
C183 C182 1.407 . S
C183 H185 0.929 . S
H184 C173 0.930 . S
H185 C183 0.929 . S
H186 C201 0.930 . S
H187 C208 0.929 1_655 S
H188 C182 0.930 . S
H189 C181 0.931 . S
H190 C204 0.930 . S
H191 C171 0.930 . S
H192 C177 0.929 . S
H193 C178 0.930 . S
H194 C199 0.930 . S
H195 C174 0.930 . S
H196 C207 0.931 . S
N197 Tb168 2.617 . S
N197 C198 1.379 . S
N197 C201 1.334 . S
C198 N197 1.379 . S
C198 C200 1.416 1_455 S
C198 C206 1.424 . S
C199 H194 0.930 . S
C199 C201 1.390 . S
C199 C202 1.339 . S
C200 C198 1.416 1_655 S
C200 C202 1.416 1_655 S
C200 C233 1.448 . S
C201 H186 0.930 . S
C201 N197 1.334 . S
C201 C199 1.390 . S
C202 C199 1.339 . S
C202 C200 1.416 1_455 S
C202 H209 0.930 1_455 S
N203 Tb168 2.572 . S
N203 C204 1.340 . S
N203 C206 1.361 . S
C204 H190 0.930 . S
C204 N203 1.340 . S
C204 C208 1.407 . S
C205 C206 1.413 1_655 S
C205 C207 1.416 . S
C205 C234 1.427 . S
C206 C198 1.424 . S
C206 N203 1.361 . S
C206 C205 1.413 1_455 S
C207 H196 0.931 . S
C207 C205 1.416 . S
C207 C208 1.332 1_655 S
C208 H187 0.929 1_455 S
C208 C204 1.407 . S
C208 C207 1.332 1_455 S
H209 C202 0.930 1_655 S
H210 C233 0.930 . S
H211 C234 0.929 . S
O212 Tb168 2.465 . S
O212 C232 1.264 . S
O213 Tb168 2.387 . S
O213 C224 1.264 . S
O214 Tb179 2.349 . S
O214 C224 1.243 . S
O215 Tb168 2.428 . S
O215 C232 1.256 . S
O216 Tb168 2.308 . S
O216 C231 1.266 . S
O217 Tb179 2.393 . S
O217 C231 1.248 . S
O218 Tb179 2.465 1_545 S
O218 C243 1.264 . S
O219 Tb179 2.387 . S
O219 C235 1.264 . S
O220 Tb168 2.349 . S
O220 C235 1.243 . S
O221 Tb179 2.428 1_545 S
O221 C243 1.256 . S
O222 Tb179 2.308 . S
O222 C242 1.266 . S
O223 Tb168 2.393 . S
O223 C242 1.248 . S
C224 O213 1.264 . S
C224 O214 1.243 . S
C225 C228 1.399 . S
C225 C230 1.383 . S
C225 C232 1.496 . S
C226 C227 1.399 . S
C226 C230 1.389 . S
C227 C226 1.399 . S
C227 C229 1.380 . S
C227 H244 0.929 . S
C228 C225 1.399 . S
C228 C229 1.392 . S
C228 H245 0.929 . S
C229 C227 1.380 . S
C229 C228 1.392 . S
C229 H246 0.929 . S
C230 C225 1.383 . S
C230 C226 1.389 . S
C230 H247 0.931 . S
C231 O216 1.266 . S
C231 O217 1.248 . S
C232 Tb168 2.802 . S
C232 O212 1.264 . S
C232 O215 1.256 . S
C232 C225 1.496 . S
C233 C200 1.448 . S
C233 H210 0.930 . S
C233 C234 1.328 . S
C234 C205 1.427 . S
C234 H211 0.929 . S
C234 C233 1.328 . S
C235 O219 1.264 . S
C235 O220 1.243 . S
C236 C239 1.399 . S
C236 C240 1.383 . S
C236 C243 1.496 . S
C237 C238 1.399 . S
C237 C240 1.389 . S
C238 C237 1.399 . S
C238 C241 1.380 . S
C238 H248 0.929 . S
C239 C236 1.399 . S
C239 C241 1.392 . S
C239 H249 0.929 . S
C240 C236 1.383 . S
C240 C237 1.389 . S
C240 H250 0.931 . S
C241 C238 1.380 . S
C241 C239 1.392 . S
C241 H251 0.929 . S
C242 O222 1.266 . S
C242 O223 1.248 . S
C243 Tb179 2.802 1_545 S
C243 O218 1.264 . S
C243 O221 1.256 . S
C243 C236 1.496 . S
H244 C227 0.929 . S
H245 C228 0.929 . S
H246 C229 0.929 . S
H247 C230 0.931 . S
H248 C238 0.929 . S
H249 C239 0.929 . S
H250 C240 0.931 . S
H251 C241 0.929 . S
Tb252 N281 2.617 . S
Tb252 N287 2.572 . S
Tb252 O296 2.465 . S
Tb252 O297 2.387 . S
Tb252 O299 2.428 . S
Tb252 O300 2.308 . S
Tb252 O304 2.349 . S
Tb252 O307 2.393 . S
Tb252 C316 2.802 . S
C253 N254 1.379 . S
C253 C256 1.416 . S
C253 C260 1.426 . S
N254 C253 1.379 . S
N254 C257 1.334 . S
N254 Tb263 2.617 . S
C255 C257 1.390 . S
C255 C258 1.339 . S
C255 H275 0.930 . S
C256 C253 1.416 . S
C256 C258 1.416 . S
C256 C262 1.449 . S
C257 N254 1.334 . S
C257 C255 1.390 . S
C257 H268 0.930 . S
C258 C255 1.339 . S
C258 C256 1.416 . S
C258 H279 0.930 . S
C259 C260 1.410 1_565 S
C259 C261 1.427 . S
C259 C265 1.416 . S
C260 C253 1.426 . S
C260 C259 1.410 1_545 S
C260 N264 1.361 . S
C261 C259 1.427 . S
C261 C262 1.328 1_565 S
C261 H276 0.929 . S
C262 C256 1.449 . S
C262 C261 1.328 1_545 S
C262 H277 0.930 . S
Tb263 N254 2.617 . S
Tb263 N264 2.576 . S
Tb263 O298 2.349 . S
Tb263 O301 2.393 . S
Tb263 O302 2.465 1_545 S
Tb263 O303 2.387 . S
Tb263 O305 2.428 1_545 S
Tb263 O306 2.308 . S
Tb263 C327 2.802 1_545 S
N264 C260 1.361 . S
N264 Tb263 2.576 . S
N264 C266 1.338 1_545 S
C265 C259 1.416 . S
C265 C267 1.332 . S
C265 H273 0.931 . S
C266 N264 1.338 1_565 S
C266 C267 1.407 . S
C266 H272 0.930 . S
C267 C265 1.332 . S
C267 C266 1.407 . S
C267 H269 0.929 . S
H268 C257 0.930 . S
H269 C267 0.929 . S
H270 C285 0.930 . S
H271 C292 0.929 1_455 S
H272 C266 0.930 . S
H273 C265 0.931 . S
H274 C288 0.930 . S
H275 C255 0.930 . S
H276 C261 0.929 . S
H277 C262 0.930 . S
H278 C283 0.930 . S
H279 C258 0.930 . S
H280 C291 0.931 . S
N281 Tb252 2.617 . S
N281 C282 1.379 . S
N281 C285 1.334 . S
C282 N281 1.379 . S
C282 C284 1.416 1_655 S
C282 C290 1.424 . S
C283 H278 0.930 . S
C283 C285 1.390 . S
C283 C286 1.339 . S
C284 C282 1.416 1_455 S
C284 C286 1.416 1_455 S
C284 C317 1.448 . S
C285 H270 0.930 . S
C285 N281 1.334 . S
C285 C283 1.390 . S
C286 C283 1.339 . S
C286 C284 1.416 1_655 S
C286 H293 0.930 1_655 S
N287 Tb252 2.572 . S
N287 C288 1.340 . S
N287 C290 1.361 . S
C288 H274 0.930 . S
C288 N287 1.340 . S
C288 C292 1.407 . S
C289 C290 1.413 1_455 S
C289 C291 1.416 . S
C289 C318 1.427 . S
C290 C282 1.424 . S
C290 N287 1.361 . S
C290 C289 1.413 1_655 S
C291 H280 0.931 . S
C291 C289 1.416 . S
C291 C292 1.332 1_455 S
C292 H271 0.929 1_655 S
C292 C288 1.407 . S
C292 C291 1.332 1_655 S
H293 C286 0.930 1_455 S
H294 C317 0.930 . S
H295 C318 0.929 . S
O296 Tb252 2.465 . S
O296 C316 1.264 . S
O297 Tb252 2.387 . S
O297 C308 1.264 . S
O298 Tb263 2.349 . S
O298 C308 1.243 . S
O299 Tb252 2.428 . S
O299 C316 1.256 . S
O300 Tb252 2.308 . S
O300 C315 1.266 . S
O301 Tb263 2.393 . S
O301 C315 1.248 . S
O302 Tb263 2.465 1_565 S
O302 C327 1.264 . S
O303 Tb263 2.387 . S
O303 C319 1.264 . S
O304 Tb252 2.349 . S
O304 C319 1.243 . S
O305 Tb263 2.428 1_565 S
O305 C327 1.256 . S
O306 Tb263 2.308 . S
O306 C326 1.266 . S
O307 Tb252 2.393 . S
O307 C326 1.248 . S
C308 O297 1.264 . S
C308 O298 1.243 . S
C309 C312 1.399 . S
C309 C314 1.383 . S
C309 C316 1.496 . S
C310 C311 1.399 . S
C310 C314 1.389 . S
C311 C310 1.399 . S
C311 C313 1.380 . S
C311 H328 0.929 . S
C312 C309 1.399 . S
C312 C313 1.392 . S
C312 H329 0.929 . S
C313 C311 1.380 . S
C313 C312 1.392 . S
C313 H330 0.929 . S
C314 C309 1.383 . S
C314 C310 1.389 . S
C314 H331 0.931 . S
C315 O300 1.266 . S
C315 O301 1.248 . S
C316 Tb252 2.802 . S
C316 O296 1.264 . S
C316 O299 1.256 . S
C316 C309 1.496 . S
C317 C284 1.448 . S
C317 H294 0.930 . S
C317 C318 1.328 . S
C318 C289 1.427 . S
C318 H295 0.929 . S
C318 C317 1.328 . S
C319 O303 1.264 . S
C319 O304 1.243 . S
C320 C323 1.399 . S
C320 C324 1.383 . S
C320 C327 1.496 . S
C321 C322 1.399 . S
C321 C324 1.389 . S
C322 C321 1.399 . S
C322 C325 1.380 . S
C322 H332 0.929 . S
C323 C320 1.399 . S
C323 C325 1.392 . S
C323 H333 0.929 . S
C324 C320 1.383 . S
C324 C321 1.389 . S
C324 H334 0.931 . S
C325 C322 1.380 . S
C325 C323 1.392 . S
C325 H335 0.929 . S
C326 O306 1.266 . S
C326 O307 1.248 . S
C327 Tb263 2.802 1_565 S
C327 O302 1.264 . S
C327 O305 1.256 . S
C327 C320 1.496 . S
H328 C311 0.929 . S
H329 C312 0.929 . S
H330 C313 0.929 . S
H331 C314 0.931 . S
H332 C322 0.929 . S
H333 C323 0.929 . S
H334 C324 0.931 . S
H335 C325 0.929 . S
Tb336 N365 2.617 . S
Tb336 N371 2.576 . S
Tb336 O380 2.465 1_565 S
Tb336 O381 2.387 . S
Tb336 O383 2.428 1_565 S
Tb336 O384 2.308 . S
Tb336 O388 2.349 . S
Tb336 O391 2.393 . S
Tb336 C400 2.802 1_565 S
C337 N338 1.379 . S
C337 C340 1.416 1_655 S
C337 C344 1.424 . S
N338 C337 1.379 . S
N338 C341 1.334 . S
N338 Tb347 2.617 . S
C339 C341 1.390 . S
C339 C342 1.339 . S
C339 H359 0.930 . S
C340 C337 1.416 1_455 S
C340 C342 1.416 1_455 S
C340 C346 1.448 . S
C341 N338 1.334 . S
C341 C339 1.390 . S
C341 H352 0.930 . S
C342 C339 1.339 . S
C342 C340 1.416 1_655 S
C342 H363 0.930 1_655 S
C343 C344 1.413 1_455 S
C343 C345 1.427 . S
C343 C349 1.416 . S
C344 C337 1.424 . S
C344 C343 1.413 1_655 S
C344 N348 1.361 . S
C345 C343 1.427 . S
C345 C346 1.328 . S
C345 H360 0.929 . S
C346 C340 1.448 . S
C346 C345 1.328 . S
C346 H361 0.930 . S
Tb347 N338 2.617 . S
Tb347 N348 2.572 . S
Tb347 O382 2.349 . S
Tb347 O385 2.393 . S
Tb347 O386 2.465 . S
Tb347 O387 2.387 . S
Tb347 O389 2.428 . S
Tb347 O390 2.308 . S
Tb347 C411 2.802 . S
N348 C344 1.361 . S
N348 Tb347 2.572 . S
N348 C350 1.340 . S
C349 C343 1.416 . S
C349 C351 1.332 1_455 S
C349 H357 0.931 . S
C350 N348 1.340 . S
C350 C351 1.407 . S
C350 H356 0.930 . S
C351 C349 1.332 1_655 S
C351 C350 1.407 . S
C351 H353 0.929 1_655 S
H352 C341 0.930 . S
H353 C351 0.929 1_455 S
H354 C369 0.930 . S
H355 C376 0.929 . S
H356 C350 0.930 . S
H357 C349 0.931 . S
H358 C372 0.930 . S
H359 C339 0.930 . S
H360 C345 0.929 . S
H361 C346 0.930 . S
H362 C367 0.930 1_554 S
H363 C342 0.930 1_455 S
H364 C375 0.931 . S
N365 Tb336 2.617 . S
N365 C366 1.379 . S
N365 C369 1.334 . S
C366 N365 1.379 . S
C366 C368 1.416 . S
C366 C374 1.426 . S
C367 H362 0.930 1_556 S
C367 C369 1.390 . S
C367 C370 1.339 . S
C368 C366 1.416 . S
C368 C370 1.416 . S
C368 C401 1.449 . S
C369 H354 0.930 . S
C369 N365 1.334 . S
C369 C367 1.390 . S
C370 C367 1.339 . S
C370 C368 1.416 . S
C370 H377 0.930 . S
N371 Tb336 2.576 . S
N371 C372 1.338 1_565 S
N371 C374 1.361 . S
C372 H358 0.930 . S
C372 N371 1.338 1_545 S
C372 C376 1.407 . S
C373 C374 1.410 1_545 S
C373 C375 1.416 . S
C373 C402 1.427 . S
C374 C366 1.426 . S
C374 N371 1.361 . S
C374 C373 1.410 1_565 S
C375 H364 0.931 . S
C375 C373 1.416 . S
C375 C376 1.332 . S
C376 H355 0.929 . S
C376 C372 1.407 . S
C376 C375 1.332 . S
H377 C370 0.930 . S
H378 C401 0.930 . S
H379 C402 0.929 . S
O380 Tb336 2.465 1_545 S
O380 C400 1.264 . S
O381 Tb336 2.387 . S
O381 C392 1.264 . S
O382 Tb347 2.349 . S
O382 C392 1.243 . S
O383 Tb336 2.428 1_545 S
O383 C400 1.256 . S
O384 Tb336 2.308 . S
O384 C399 1.266 . S
O385 Tb347 2.393 . S
O385 C399 1.248 . S
O386 Tb347 2.465 . S
O386 C411 1.264 . S
O387 Tb347 2.387 . S
O387 C403 1.264 . S
O388 Tb336 2.349 . S
O388 C403 1.243 . S
O389 Tb347 2.428 . S
O389 C411 1.256 . S
O390 Tb347 2.308 . S
O390 C410 1.266 . S
O391 Tb336 2.393 . S
O391 C410 1.248 . S
C392 O381 1.264 . S
C392 O382 1.243 . S
C393 C396 1.399 . S
C393 C398 1.383 . S
C393 C400 1.496 . S
C394 C395 1.399 . S
C394 C398 1.389 . S
C395 C394 1.399 . S
C395 C397 1.380 . S
C395 H412 0.929 . S
C396 C393 1.399 . S
C396 C397 1.392 . S
C396 H413 0.929 . S
C397 C395 1.380 . S
C397 C396 1.392 . S
C397 H414 0.929 . S
C398 C393 1.383 . S
C398 C394 1.389 . S
C398 H415 0.931 . S
C399 O384 1.266 . S
C399 O385 1.248 . S
C400 Tb336 2.802 1_545 S
C400 O380 1.264 . S
C400 O383 1.256 . S
C400 C393 1.496 . S
C401 C368 1.449 . S
C401 H378 0.930 . S
C401 C402 1.328 1_565 S
C402 C373 1.427 . S
C402 H379 0.929 . S
C402 C401 1.328 1_545 S
C403 O387 1.264 . S
C403 O388 1.243 . S
C404 C407 1.399 . S
C404 C408 1.383 . S
C404 C411 1.496 . S
C405 C406 1.399 . S
C405 C408 1.389 . S
C406 C405 1.399 . S
C406 C409 1.380 . S
C406 H416 0.929 . S
C407 C404 1.399 . S
C407 C409 1.392 . S
C407 H417 0.929 . S
C408 C404 1.383 . S
C408 C405 1.389 . S
C408 H418 0.931 . S
C409 C406 1.380 . S
C409 C407 1.392 . S
C409 H419 0.929 . S
C410 O390 1.266 . S
C410 O391 1.248 . S
C411 Tb347 2.802 . S
C411 O386 1.264 . S
C411 O389 1.256 . S
C411 C404 1.496 . S
H412 C395 0.929 . S
H413 C396 0.929 . S
H414 C397 0.929 . S
H415 C398 0.931 . S
H416 C406 0.929 . S
H417 C407 0.929 . S
H418 C408 0.931 . S
H419 C409 0.929 . S
Tb420 N449 2.617 . S
Tb420 N455 2.576 . S
Tb420 O464 2.465 1_545 S
Tb420 O465 2.387 . S
Tb420 O467 2.428 1_545 S
Tb420 O468 2.308 . S
Tb420 O472 2.349 . S
Tb420 O475 2.393 . S
Tb420 C484 2.802 1_545 S
C421 N422 1.379 . S
C421 C424 1.416 1_455 S
C421 C428 1.424 . S
N422 C421 1.379 . S
N422 C425 1.334 . S
N422 Tb431 2.617 . S
C423 C425 1.390 . S
C423 C426 1.339 . S
C423 H443 0.930 . S
C424 C421 1.416 1_655 S
C424 C426 1.416 1_655 S
C424 C430 1.448 . S
C425 N422 1.334 . S
C425 C423 1.390 . S
C425 H436 0.930 . S
C426 C423 1.339 . S
C426 C424 1.416 1_455 S
C426 H447 0.930 1_455 S
C427 C428 1.413 1_655 S
C427 C429 1.427 . S
C427 C433 1.416 . S
C428 C421 1.424 . S
C428 C427 1.413 1_455 S
C428 N432 1.361 . S
C429 C427 1.427 . S
C429 C430 1.328 . S
C429 H444 0.929 . S
C430 C424 1.448 . S
C430 C429 1.328 . S
C430 H445 0.930 . S
Tb431 N422 2.617 . S
Tb431 N432 2.572 . S
Tb431 O466 2.349 . S
Tb431 O469 2.393 . S
Tb431 O470 2.465 . S
Tb431 O471 2.387 . S
Tb431 O473 2.428 . S
Tb431 O474 2.308 . S
Tb431 C495 2.802 . S
N432 C428 1.361 . S
N432 Tb431 2.572 . S
N432 C434 1.340 . S
C433 C427 1.416 . S
C433 C435 1.332 1_655 S
C433 H441 0.931 . S
C434 N432 1.340 . S
C434 C435 1.407 . S
C434 H440 0.930 . S
C435 C433 1.332 1_455 S
C435 C434 1.407 . S
C435 H437 0.929 1_455 S
H436 C425 0.930 . S
H437 C435 0.929 1_655 S
H438 C453 0.930 . S
H439 C460 0.929 . S
H440 C434 0.930 . S
H441 C433 0.931 . S
H442 C456 0.930 . S
H443 C423 0.930 . S
H444 C429 0.929 . S
H445 C430 0.930 . S
H446 C451 0.930 1_554 S
H447 C426 0.930 1_655 S
H448 C459 0.931 . S
N449 Tb420 2.617 . S
N449 C450 1.379 . S
N449 C453 1.334 . S
C450 N449 1.379 . S
C450 C452 1.416 . S
C450 C458 1.426 . S
C451 H446 0.930 1_556 S
C451 C453 1.390 . S
C451 C454 1.339 . S
C452 C450 1.416 . S
C452 C454 1.416 . S
C452 C485 1.449 . S
C453 H438 0.930 . S
C453 N449 1.334 . S
C453 C451 1.390 . S
C454 C451 1.339 . S
C454 C452 1.416 . S
C454 H461 0.930 . S
N455 Tb420 2.576 . S
N455 C456 1.338 1_545 S
N455 C458 1.361 . S
C456 H442 0.930 . S
C456 N455 1.338 1_565 S
C456 C460 1.407 . S
C457 C458 1.410 1_565 S
C457 C459 1.416 . S
C457 C486 1.427 . S
C458 C450 1.426 . S
C458 N455 1.361 . S
C458 C457 1.410 1_545 S
C459 H448 0.931 . S
C459 C457 1.416 . S
C459 C460 1.332 . S
C460 H439 0.929 . S
C460 C456 1.407 . S
C460 C459 1.332 . S
H461 C454 0.930 . S
H462 C485 0.930 . S
H463 C486 0.929 . S
O464 Tb420 2.465 1_565 S
O464 C484 1.264 . S
O465 Tb420 2.387 . S
O465 C476 1.264 . S
O466 Tb431 2.349 . S
O466 C476 1.243 . S
O467 Tb420 2.428 1_565 S
O467 C484 1.256 . S
O468 Tb420 2.308 . S
O468 C483 1.266 . S
O469 Tb431 2.393 . S
O469 C483 1.248 . S
O470 Tb431 2.465 . S
O470 C495 1.264 . S
O471 Tb431 2.387 . S
O471 C487 1.264 . S
O472 Tb420 2.349 . S
O472 C487 1.243 . S
O473 Tb431 2.428 . S
O473 C495 1.256 . S
O474 Tb431 2.308 . S
O474 C494 1.266 . S
O475 Tb420 2.393 . S
O475 C494 1.248 . S
C476 O465 1.264 . S
C476 O466 1.243 . S
C477 C480 1.399 . S
C477 C482 1.383 . S
C477 C484 1.496 . S
C478 C479 1.399 . S
C478 C482 1.389 . S
C479 C478 1.399 . S
C479 C481 1.380 . S
C479 H496 0.929 . S
C480 C477 1.399 . S
C480 C481 1.392 . S
C480 H497 0.929 . S
C481 C479 1.380 . S
C481 C480 1.392 . S
C481 H498 0.929 . S
C482 C477 1.383 . S
C482 C478 1.389 . S
C482 H499 0.931 . S
C483 O468 1.266 . S
C483 O469 1.248 . S
C484 Tb420 2.802 1_565 S
C484 O464 1.264 . S
C484 O467 1.256 . S
C484 C477 1.496 . S
C485 C452 1.449 . S
C485 H462 0.930 . S
C485 C486 1.328 1_545 S
C486 C457 1.427 . S
C486 H463 0.929 . S
C486 C485 1.328 1_565 S
C487 O471 1.264 . S
C487 O472 1.243 . S
C488 C491 1.399 . S
C488 C492 1.383 . S
C488 C495 1.496 . S
C489 C490 1.399 . S
C489 C492 1.389 . S
C490 C489 1.399 . S
C490 C493 1.380 . S
C490 H500 0.929 . S
C491 C488 1.399 . S
C491 C493 1.392 . S
C491 H501 0.929 . S
C492 C488 1.383 . S
C492 C489 1.389 . S
C492 H502 0.931 . S
C493 C490 1.380 . S
C493 C491 1.392 . S
C493 H503 0.929 . S
C494 O474 1.266 . S
C494 O475 1.248 . S
C495 Tb431 2.802 . S
C495 O470 1.264 . S
C495 O473 1.256 . S
C495 C488 1.496 . S
H496 C479 0.929 . S
H497 C480 0.929 . S
H498 C481 0.929 . S
H499 C482 0.931 . S
H500 C490 0.929 . S
H501 C491 0.929 . S
H502 C492 0.931 . S
H503 C493 0.929 . S
Tb504 N533 2.617 . S
Tb504 N539 2.576 . S
Tb504 O548 2.465 1_545 S
Tb504 O549 2.387 . S
Tb504 O551 2.428 1_545 S
Tb504 O552 2.308 . S
Tb504 O556 2.349 . S
Tb504 O559 2.393 . S
Tb504 C568 2.802 1_545 S
C505 N506 1.379 . S
C505 C508 1.416 1_655 S
C505 C512 1.424 . S
N506 C505 1.379 . S
N506 C509 1.334 . S
N506 Tb515 2.617 . S
C507 C509 1.390 . S
C507 C510 1.339 . S
C507 H527 0.930 . S
C508 C505 1.416 1_455 S
C508 C510 1.416 1_455 S
C508 C514 1.448 . S
C509 N506 1.334 . S
C509 C507 1.390 . S
C509 H520 0.930 . S
C510 C507 1.339 . S
C510 C508 1.416 1_655 S
C510 H531 0.930 1_655 S
C511 C512 1.413 1_455 S
C511 C513 1.427 . S
C511 C517 1.416 . S
C512 C505 1.424 . S
C512 C511 1.413 1_655 S
C512 N516 1.361 . S
C513 C511 1.427 . S
C513 C514 1.328 . S
C513 H528 0.929 . S
C514 C508 1.448 . S
C514 C513 1.328 . S
C514 H529 0.930 . S
Tb515 N506 2.617 . S
Tb515 N516 2.572 . S
Tb515 O550 2.349 . S
Tb515 O553 2.393 . S
Tb515 O554 2.465 . S
Tb515 O555 2.387 . S
Tb515 O557 2.428 . S
Tb515 O558 2.308 . S
Tb515 C579 2.802 . S
N516 C512 1.361 . S
N516 Tb515 2.572 . S
N516 C518 1.340 . S
C517 C511 1.416 . S
C517 C519 1.332 1_455 S
C517 H525 0.931 . S
C518 N516 1.340 . S
C518 C519 1.407 . S
C518 H524 0.930 . S
C519 C517 1.332 1_655 S
C519 C518 1.407 . S
C519 H521 0.929 1_655 S
H520 C509 0.930 . S
H521 C519 0.929 1_455 S
H522 C537 0.930 . S
H523 C544 0.929 . S
H524 C518 0.930 . S
H525 C517 0.931 . S
H526 C540 0.930 . S
H527 C507 0.930 . S
H528 C513 0.929 . S
H529 C514 0.930 . S
H530 C535 0.930 . S
H531 C510 0.930 1_455 S
H532 C543 0.931 . S
N533 Tb504 2.617 . S
N533 C534 1.379 . S
N533 C537 1.334 . S
C534 N533 1.379 . S
C534 C536 1.416 . S
C534 C542 1.426 . S
C535 H530 0.930 . S
C535 C537 1.390 . S
C535 C538 1.339 . S
C536 C534 1.416 . S
C536 C538 1.416 . S
C536 C569 1.449 . S
C537 H522 0.930 . S
C537 N533 1.334 . S
C537 C535 1.390 . S
C538 C535 1.339 . S
C538 C536 1.416 . S
C538 H545 0.930 . S
N539 Tb504 2.576 . S
N539 C540 1.338 1_545 S
N539 C542 1.361 . S
C540 H526 0.930 . S
C540 N539 1.338 1_565 S
C540 C544 1.407 . S
C541 C542 1.410 1_565 S
C541 C543 1.416 . S
C541 C570 1.427 . S
C542 C534 1.426 . S
C542 N539 1.361 . S
C542 C541 1.410 1_545 S
C543 H532 0.931 . S
C543 C541 1.416 . S
C543 C544 1.332 . S
C544 H523 0.929 . S
C544 C540 1.407 . S
C544 C543 1.332 . S
H545 C538 0.930 . S
H546 C569 0.930 . S
H547 C570 0.929 . S
O548 Tb504 2.465 1_565 S
O548 C568 1.264 . S
O549 Tb504 2.387 . S
O549 C560 1.264 . S
O550 Tb515 2.349 . S
O550 C560 1.243 . S
O551 Tb504 2.428 1_565 S
O551 C568 1.256 . S
O552 Tb504 2.308 . S
O552 C567 1.266 . S
O553 Tb515 2.393 . S
O553 C567 1.248 . S
O554 Tb515 2.465 . S
O554 C579 1.264 . S
O555 Tb515 2.387 . S
O555 C571 1.264 . S
O556 Tb504 2.349 . S
O556 C571 1.243 . S
O557 Tb515 2.428 . S
O557 C579 1.256 . S
O558 Tb515 2.308 . S
O558 C578 1.266 . S
O559 Tb504 2.393 . S
O559 C578 1.248 . S
C560 O549 1.264 . S
C560 O550 1.243 . S
C561 C564 1.399 . S
C561 C566 1.383 . S
C561 C568 1.496 . S
C562 C563 1.399 . S
C562 C566 1.389 . S
C563 C562 1.399 . S
C563 C565 1.380 . S
C563 H580 0.929 . S
C564 C561 1.399 . S
C564 C565 1.392 . S
C564 H581 0.929 . S
C565 C563 1.380 . S
C565 C564 1.392 . S
C565 H582 0.929 . S
C566 C561 1.383 . S
C566 C562 1.389 . S
C566 H583 0.931 . S
C567 O552 1.266 . S
C567 O553 1.248 . S
C568 Tb504 2.802 1_565 S
C568 O548 1.264 . S
C568 O551 1.256 . S
C568 C561 1.496 . S
C569 C536 1.449 . S
C569 H546 0.930 . S
C569 C570 1.328 1_545 S
C570 C541 1.427 . S
C570 H547 0.929 . S
C570 C569 1.328 1_565 S
C571 O555 1.264 . S
C571 O556 1.243 . S
C572 C575 1.399 . S
C572 C576 1.383 . S
C572 C579 1.496 . S
C573 C574 1.399 . S
C573 C576 1.389 . S
C574 C573 1.399 . S
C574 C577 1.380 . S
C574 H584 0.929 . S
C575 C572 1.399 . S
C575 C577 1.392 . S
C575 H585 0.929 . S
C576 C572 1.383 . S
C576 C573 1.389 . S
C576 H586 0.931 . S
C577 C574 1.380 . S
C577 C575 1.392 . S
C577 H587 0.929 . S
C578 O558 1.266 . S
C578 O559 1.248 . S
C579 Tb515 2.802 . S
C579 O554 1.264 . S
C579 O557 1.256 . S
C579 C572 1.496 . S
H580 C563 0.929 . S
H581 C564 0.929 . S
H582 C565 0.929 . S
H583 C566 0.931 . S
H584 C574 0.929 . S
H585 C575 0.929 . S
H586 C576 0.931 . S
H587 C577 0.929 . S
Tb588 N617 2.617 . S
Tb588 N623 2.576 . S
Tb588 O632 2.465 1_565 S
Tb588 O633 2.387 . S
Tb588 O635 2.428 1_565 S
Tb588 O636 2.308 . S
Tb588 O640 2.349 . S
Tb588 O643 2.393 . S
Tb588 C652 2.802 1_565 S
C589 N590 1.379 . S
C589 C592 1.416 1_455 S
C589 C596 1.424 . S
N590 C589 1.379 . S
N590 C593 1.334 . S
N590 Tb599 2.617 . S
C591 C593 1.390 . S
C591 C594 1.339 . S
C591 H611 0.930 . S
C592 C589 1.416 1_655 S
C592 C594 1.416 1_655 S
C592 C598 1.448 . S
C593 N590 1.334 . S
C593 C591 1.390 . S
C593 H604 0.930 . S
C594 C591 1.339 . S
C594 C592 1.416 1_455 S
C594 H615 0.930 1_455 S
C595 C596 1.413 1_655 S
C595 C597 1.427 . S
C595 C601 1.416 . S
C596 C589 1.424 . S
C596 C595 1.413 1_455 S
C596 N600 1.361 . S
C597 C595 1.427 . S
C597 C598 1.328 . S
C597 H612 0.929 . S
C598 C592 1.448 . S
C598 C597 1.328 . S
C598 H613 0.930 . S
Tb599 N590 2.617 . S
Tb599 N600 2.572 . S
Tb599 O634 2.349 . S
Tb599 O637 2.393 . S
Tb599 O638 2.465 . S
Tb599 O639 2.387 . S
Tb599 O641 2.428 . S
Tb599 O642 2.308 . S
Tb599 C663 2.802 . S
N600 C596 1.361 . S
N600 Tb599 2.572 . S
N600 C602 1.340 . S
C601 C595 1.416 . S
C601 C603 1.332 1_655 S
C601 H609 0.931 . S
C602 N600 1.340 . S
C602 C603 1.407 . S
C602 H608 0.930 . S
C603 C601 1.332 1_455 S
C603 C602 1.407 . S
C603 H605 0.929 1_455 S
H604 C593 0.930 . S
H605 C603 0.929 1_655 S
H606 C621 0.930 . S
H607 C628 0.929 . S
H608 C602 0.930 . S
H609 C601 0.931 . S
H610 C624 0.930 . S
H611 C591 0.930 . S
H612 C597 0.929 . S
H613 C598 0.930 . S
H614 C619 0.930 . S
H615 C594 0.930 1_655 S
H616 C627 0.931 . S
N617 Tb588 2.617 . S
N617 C618 1.379 . S
N617 C621 1.334 . S
C618 N617 1.379 . S
C618 C620 1.416 . S
C618 C626 1.426 . S
C619 H614 0.930 . S
C619 C621 1.390 . S
C619 C622 1.339 . S
C620 C618 1.416 . S
C620 C622 1.416 . S
C620 C653 1.449 . S
C621 H606 0.930 . S
C621 N617 1.334 . S
C621 C619 1.390 . S
C622 C619 1.339 . S
C622 C620 1.416 . S
C622 H629 0.930 . S
N623 Tb588 2.576 . S
N623 C624 1.338 1_565 S
N623 C626 1.361 . S
C624 H610 0.930 . S
C624 N623 1.338 1_545 S
C624 C628 1.407 . S
C625 C626 1.410 1_545 S
C625 C627 1.416 . S
C625 C654 1.427 . S
C626 C618 1.426 . S
C626 N623 1.361 . S
C626 C625 1.410 1_565 S
C627 H616 0.931 . S
C627 C625 1.416 . S
C627 C628 1.332 . S
C628 H607 0.929 . S
C628 C624 1.407 . S
C628 C627 1.332 . S
H629 C622 0.930 . S
H630 C653 0.930 . S
H631 C654 0.929 . S
O632 Tb588 2.465 1_545 S
O632 C652 1.264 . S
O633 Tb588 2.387 . S
O633 C644 1.264 . S
O634 Tb599 2.349 . S
O634 C644 1.243 . S
O635 Tb588 2.428 1_545 S
O635 C652 1.256 . S
O636 Tb588 2.308 . S
O636 C651 1.266 . S
O637 Tb599 2.393 . S
O637 C651 1.248 . S
O638 Tb599 2.465 . S
O638 C663 1.264 . S
O639 Tb599 2.387 . S
O639 C655 1.264 . S
O640 Tb588 2.349 . S
O640 C655 1.243 . S
O641 Tb599 2.428 . S
O641 C663 1.256 . S
O642 Tb599 2.308 . S
O642 C662 1.266 . S
O643 Tb588 2.393 . S
O643 C662 1.248 . S
C644 O633 1.264 . S
C644 O634 1.243 . S
C645 C648 1.399 . S
C645 C650 1.383 . S
C645 C652 1.496 . S
C646 C647 1.399 . S
C646 C650 1.389 . S
C647 C646 1.399 . S
C647 C649 1.380 . S
C647 H664 0.929 . S
C648 C645 1.399 . S
C648 C649 1.392 . S
C648 H665 0.929 . S
C649 C647 1.380 . S
C649 C648 1.392 . S
C649 H666 0.929 . S
C650 C645 1.383 . S
C650 C646 1.389 . S
C650 H667 0.931 . S
C651 O636 1.266 . S
C651 O637 1.248 . S
C652 Tb588 2.802 1_545 S
C652 O632 1.264 . S
C652 O635 1.256 . S
C652 C645 1.496 . S
C653 C620 1.449 . S
C653 H630 0.930 . S
C653 C654 1.328 1_565 S
C654 C625 1.427 . S
C654 H631 0.929 . S
C654 C653 1.328 1_545 S
C655 O639 1.264 . S
C655 O640 1.243 . S
C656 C659 1.399 . S
C656 C660 1.383 . S
C656 C663 1.496 . S
C657 C658 1.399 . S
C657 C660 1.389 . S
C658 C657 1.399 . S
C658 C661 1.380 . S
C658 H668 0.929 . S
C659 C656 1.399 . S
C659 C661 1.392 . S
C659 H669 0.929 . S
C660 C656 1.383 . S
C660 C657 1.389 . S
C660 H670 0.931 . S
C661 C658 1.380 . S
C661 C659 1.392 . S
C661 H671 0.929 . S
C662 O642 1.266 . S
C662 O643 1.248 . S
C663 Tb599 2.802 . S
C663 O638 1.264 . S
C663 O641 1.256 . S
C663 C656 1.496 . S
H664 C647 0.929 . S
H665 C648 0.929 . S
H666 C649 0.929 . S
H667 C650 0.931 . S
H668 C658 0.929 . S
H669 C659 0.929 . S
H670 C660 0.931 . S
H671 C661 0.929 . S
Tb672 N701 2.617 . S
Tb672 N707 2.572 . S
Tb672 O716 2.465 . S
Tb672 O717 2.387 . S
Tb672 O719 2.428 . S
Tb672 O720 2.308 . S
Tb672 O724 2.349 . S
Tb672 O727 2.393 . S
Tb672 C736 2.802 . S
C673 N674 1.379 . S
C673 C676 1.416 . S
C673 C680 1.424 . S
N674 C673 1.379 . S
N674 C677 1.334 . S
N674 Tb683 2.617 . S
C675 C677 1.390 . S
C675 C678 1.339 . S
C675 H695 0.930 1_554 S
C676 C673 1.416 . S
C676 C678 1.416 . S
C676 C682 1.448 . S
C677 N674 1.334 . S
C677 C675 1.390 . S
C677 H688 0.930 . S
C678 C675 1.339 . S
C678 C676 1.416 . S
C678 H699 0.930 . S
C679 C680 1.413 . S
C679 C681 1.427 . S
C679 C685 1.416 . S
C680 C673 1.424 . S
C680 C679 1.413 . S
C680 N684 1.361 . S
C681 C679 1.427 . S
C681 C682 1.328 . S
C681 H696 0.929 . S
C682 C676 1.448 . S
C682 C681 1.328 . S
C682 H697 0.930 . S
Tb683 N674 2.617 . S
Tb683 N684 2.572 . S
Tb683 O718 2.349 . S
Tb683 O721 2.393 . S
Tb683 O722 2.465 . S
Tb683 O723 2.387 . S
Tb683 O725 2.428 . S
Tb683 O726 2.308 . S
Tb683 C747 2.802 . S
N684 C680 1.361 . S
N684 Tb683 2.572 . S
N684 C686 1.340 . S
C685 C679 1.416 . S
C685 C687 1.332 . S
C685 H693 0.931 . S
C686 N684 1.340 . S
C686 C687 1.407 . S
C686 H692 0.930 . S
C687 C685 1.332 . S
C687 C686 1.407 . S
C687 H689 0.929 . S
H688 C677 0.930 . S
H689 C687 0.929 . S
H690 C705 0.930 . S
H691 C712 0.929 . S
H692 C686 0.930 . S
H693 C685 0.931 . S
H694 C708 0.930 . S
H695 C675 0.930 1_556 S
H696 C681 0.929 . S
H697 C682 0.930 . S
H698 C703 0.930 . S
H699 C678 0.930 . S
H700 C711 0.931 . S
N701 Tb672 2.617 . S
N701 C702 1.379 . S
N701 C705 1.334 . S
C702 N701 1.379 . S
C702 C704 1.416 . S
C702 C710 1.424 . S
C703 H698 0.930 . S
C703 C705 1.390 . S
C703 C706 1.339 . S
C704 C702 1.416 . S
C704 C706 1.416 . S
C704 C737 1.448 . S
C705 H690 0.930 . S
C705 N701 1.334 . S
C705 C703 1.390 . S
C706 C703 1.339 . S
C706 C704 1.416 . S
C706 H713 0.930 . S
N707 Tb672 2.572 . S
N707 C708 1.340 . S
N707 C710 1.361 . S
C708 H694 0.930 . S
C708 N707 1.340 . S
C708 C712 1.407 . S
C709 C710 1.413 . S
C709 C711 1.416 . S
C709 C738 1.427 . S
C710 C702 1.424 . S
C710 N707 1.361 . S
C710 C709 1.413 . S
C711 H700 0.931 . S
C711 C709 1.416 . S
C711 C712 1.332 . S
C712 H691 0.929 . S
C712 C708 1.407 . S
C712 C711 1.332 . S
H713 C706 0.930 . S
H714 C737 0.930 . S
H715 C738 0.929 . S
O716 Tb672 2.465 . S
O716 C736 1.264 . S
O717 Tb672 2.387 . S
O717 C728 1.264 . S
O718 Tb683 2.349 . S
O718 C728 1.243 . S
O719 Tb672 2.428 . S
O719 C736 1.256 . S
O720 Tb672 2.308 . S
O720 C735 1.266 . S
O721 Tb683 2.393 . S
O721 C735 1.248 . S
O722 Tb683 2.465 . S
O722 C747 1.264 . S
O723 Tb683 2.387 . S
O723 C739 1.264 . S
O724 Tb672 2.349 . S
O724 C739 1.243 . S
O725 Tb683 2.428 . S
O725 C747 1.256 . S
O726 Tb683 2.308 . S
O726 C746 1.266 . S
O727 Tb672 2.393 . S
O727 C746 1.248 . S
C728 O717 1.264 . S
C728 O718 1.243 . S
C729 C732 1.399 . S
C729 C734 1.383 . S
C729 C736 1.496 . S
C730 C731 1.399 1_565 S
C730 C734 1.389 . S
C731 C730 1.399 1_545 S
C731 C733 1.380 1_545 S
C731 H748 0.929 . S
C732 C729 1.399 . S
C732 C733 1.392 . S
C732 H749 0.929 . S
C733 C731 1.380 1_565 S
C733 C732 1.392 . S
C733 H750 0.929 1_565 S
C734 C729 1.383 . S
C734 C730 1.389 . S
C734 H751 0.931 . S
C735 O720 1.266 . S
C735 O721 1.248 . S
C736 Tb672 2.802 . S
C736 O716 1.264 . S
C736 O719 1.256 . S
C736 C729 1.496 . S
C737 C704 1.448 . S
C737 H714 0.930 . S
C737 C738 1.328 . S
C738 C709 1.427 . S
C738 H715 0.929 . S
C738 C737 1.328 . S
C739 O723 1.264 . S
C739 O724 1.243 . S
C740 C743 1.399 . S
C740 C744 1.383 . S
C740 C747 1.496 . S
C741 C742 1.399 . S
C741 C744 1.389 . S
C742 C741 1.399 . S
C742 C745 1.380 . S
C742 H752 0.929 . S
C743 C740 1.399 . S
C743 C745 1.392 . S
C743 H753 0.929 . S
C744 C740 1.383 . S
C744 C741 1.389 . S
C744 H754 0.931 . S
C745 C742 1.380 . S
C745 C743 1.392 . S
C745 H755 0.929 . S
C746 O726 1.266 . S
C746 O727 1.248 . S
C747 Tb683 2.802 . S
C747 O722 1.264 . S
C747 O725 1.256 . S
C747 C740 1.496 . S
H748 C731 0.929 . S
H749 C732 0.929 . S
H750 C733 0.929 1_545 S
H751 C734 0.931 . S
H752 C742 0.929 . S
H753 C743 0.929 . S
H754 C744 0.931 . S
H755 C745 0.929 . S
Tb756 N785 2.617 . S
Tb756 N791 2.572 . S
Tb756 O800 2.465 . S
Tb756 O801 2.387 . S
Tb756 O803 2.428 . S
Tb756 O804 2.308 . S
Tb756 O808 2.349 . S
Tb756 O811 2.393 . S
Tb756 C820 2.802 . S
C757 N758 1.379 . S
C757 C760 1.416 . S
C757 C764 1.424 . S
N758 C757 1.379 . S
N758 C761 1.334 . S
N758 Tb767 2.617 . S
C759 C761 1.390 . S
C759 C762 1.339 . S
C759 H779 0.930 1_554 S
C760 C757 1.416 . S
C760 C762 1.416 . S
C760 C766 1.448 . S
C761 N758 1.334 . S
C761 C759 1.390 . S
C761 H772 0.930 . S
C762 C759 1.339 . S
C762 C760 1.416 . S
C762 H783 0.930 . S
C763 C764 1.413 . S
C763 C765 1.427 . S
C763 C769 1.416 . S
C764 C757 1.424 . S
C764 C763 1.413 . S
C764 N768 1.361 . S
C765 C763 1.427 . S
C765 C766 1.328 . S
C765 H780 0.929 . S
C766 C760 1.448 . S
C766 C765 1.328 . S
C766 H781 0.930 . S
Tb767 N758 2.617 . S
Tb767 N768 2.572 . S
Tb767 O802 2.349 . S
Tb767 O805 2.393 . S
Tb767 O806 2.465 . S
Tb767 O807 2.387 . S
Tb767 O809 2.428 . S
Tb767 O810 2.308 . S
Tb767 C831 2.802 . S
N768 C764 1.361 . S
N768 Tb767 2.572 . S
N768 C770 1.340 . S
C769 C763 1.416 . S
C769 C771 1.332 . S
C769 H777 0.931 . S
C770 N768 1.340 . S
C770 C771 1.407 . S
C770 H776 0.930 . S
C771 C769 1.332 . S
C771 C770 1.407 . S
C771 H773 0.929 . S
H772 C761 0.930 . S
H773 C771 0.929 . S
H774 C789 0.930 . S
H775 C796 0.929 . S
H776 C770 0.930 . S
H777 C769 0.931 . S
H778 C792 0.930 . S
H779 C759 0.930 1_556 S
H780 C765 0.929 . S
H781 C766 0.930 . S
H782 C787 0.930 . S
H783 C762 0.930 . S
H784 C795 0.931 . S
N785 Tb756 2.617 . S
N785 C786 1.379 . S
N785 C789 1.334 . S
C786 N785 1.379 . S
C786 C788 1.416 . S
C786 C794 1.424 . S
C787 H782 0.930 . S
C787 C789 1.390 . S
C787 C790 1.339 . S
C788 C786 1.416 . S
C788 C790 1.416 . S
C788 C821 1.448 . S
C789 H774 0.930 . S
C789 N785 1.334 . S
C789 C787 1.390 . S
C790 C787 1.339 . S
C790 C788 1.416 . S
C790 H797 0.930 . S
N791 Tb756 2.572 . S
N791 C792 1.340 . S
N791 C794 1.361 . S
C792 H778 0.930 . S
C792 N791 1.340 . S
C792 C796 1.407 . S
C793 C794 1.413 . S
C793 C795 1.416 . S
C793 C822 1.427 . S
C794 C786 1.424 . S
C794 N791 1.361 . S
C794 C793 1.413 . S
C795 H784 0.931 . S
C795 C793 1.416 . S
C795 C796 1.332 . S
C796 H775 0.929 . S
C796 C792 1.407 . S
C796 C795 1.332 . S
H797 C790 0.930 . S
H798 C821 0.930 . S
H799 C822 0.929 . S
O800 Tb756 2.465 . S
O800 C820 1.264 . S
O801 Tb756 2.387 . S
O801 C812 1.264 . S
O802 Tb767 2.349 . S
O802 C812 1.243 . S
O803 Tb756 2.428 . S
O803 C820 1.256 . S
O804 Tb756 2.308 . S
O804 C819 1.266 . S
O805 Tb767 2.393 . S
O805 C819 1.248 . S
O806 Tb767 2.465 . S
O806 C831 1.264 . S
O807 Tb767 2.387 . S
O807 C823 1.264 . S
O808 Tb756 2.349 . S
O808 C823 1.243 . S
O809 Tb767 2.428 . S
O809 C831 1.256 . S
O810 Tb767 2.308 . S
O810 C830 1.266 . S
O811 Tb756 2.393 . S
O811 C830 1.248 . S
C812 O801 1.264 . S
C812 O802 1.243 . S
C813 C816 1.399 . S
C813 C818 1.383 . S
C813 C820 1.496 . S
C814 C815 1.399 1_545 S
C814 C818 1.389 . S
C815 C814 1.399 1_565 S
C815 C817 1.380 1_565 S
C815 H832 0.929 . S
C816 C813 1.399 . S
C816 C817 1.392 . S
C816 H833 0.929 . S
C817 C815 1.380 1_545 S
C817 C816 1.392 . S
C817 H834 0.929 1_545 S
C818 C813 1.383 . S
C818 C814 1.389 . S
C818 H835 0.931 . S
C819 O804 1.266 . S
C819 O805 1.248 . S
C820 Tb756 2.802 . S
C820 O800 1.264 . S
C820 O803 1.256 . S
C820 C813 1.496 . S
C821 C788 1.448 . S
C821 H798 0.930 . S
C821 C822 1.328 . S
C822 C793 1.427 . S
C822 H799 0.929 . S
C822 C821 1.328 . S
C823 O807 1.264 . S
C823 O808 1.243 . S
C824 C827 1.399 . S
C824 C828 1.383 . S
C824 C831 1.496 . S
C825 C826 1.399 . S
C825 C828 1.389 . S
C826 C825 1.399 . S
C826 C829 1.380 . S
C826 H836 0.929 . S
C827 C824 1.399 . S
C827 C829 1.392 . S
C827 H837 0.929 . S
C828 C824 1.383 . S
C828 C825 1.389 . S
C828 H838 0.931 . S
C829 C826 1.380 . S
C829 C827 1.392 . S
C829 H839 0.929 . S
C830 O810 1.266 . S
C830 O811 1.248 . S
C831 Tb767 2.802 . S
C831 O806 1.264 . S
C831 O809 1.256 . S
C831 C824 1.496 . S
H832 C815 0.929 . S
H833 C816 0.929 . S
H834 C817 0.929 1_565 S
H835 C818 0.931 . S
H836 C826 0.929 . S
H837 C827 0.929 . S
H838 C828 0.931 . S
H839 C829 0.929 . S
Tb840 N869 2.617 . S
Tb840 N875 2.572 . S
Tb840 O884 2.465 . S
Tb840 O885 2.387 . S
Tb840 O887 2.428 . S
Tb840 O888 2.308 . S
Tb840 O892 2.349 . S
Tb840 O895 2.393 . S
Tb840 C904 2.802 . S
C841 N842 1.379 . S
C841 C844 1.416 . S
C841 C848 1.424 . S
N842 C841 1.379 . S
N842 C845 1.334 . S
N842 Tb851 2.617 . S
C843 C845 1.390 . S
C843 C846 1.339 . S
C843 H863 0.930 . S
C844 C841 1.416 . S
C844 C846 1.416 . S
C844 C850 1.448 . S
C845 N842 1.334 . S
C845 C843 1.390 . S
C845 H856 0.930 . S
C846 C843 1.339 . S
C846 C844 1.416 . S
C846 H867 0.930 . S
C847 C848 1.413 . S
C847 C849 1.427 . S
C847 C853 1.416 . S
C848 C841 1.424 . S
C848 C847 1.413 . S
C848 N852 1.361 . S
C849 C847 1.427 . S
C849 C850 1.328 . S
C849 H864 0.929 . S
C850 C844 1.448 . S
C850 C849 1.328 . S
C850 H865 0.930 . S
Tb851 N842 2.617 . S
Tb851 N852 2.572 . S
Tb851 O886 2.349 . S
Tb851 O889 2.393 . S
Tb851 O890 2.465 . S
Tb851 O891 2.387 . S
Tb851 O893 2.428 . S
Tb851 O894 2.308 . S
Tb851 C915 2.802 . S
N852 C848 1.361 . S
N852 Tb851 2.572 . S
N852 C854 1.340 . S
C853 C847 1.416 . S
C853 C855 1.332 . S
C853 H861 0.931 . S
C854 N852 1.340 . S
C854 C855 1.407 . S
C854 H860 0.930 . S
C855 C853 1.332 . S
C855 C854 1.407 . S
C855 H857 0.929 . S
H856 C845 0.930 . S
H857 C855 0.929 . S
H858 C873 0.930 . S
H859 C880 0.929 . S
H860 C854 0.930 . S
H861 C853 0.931 . S
H862 C876 0.930 . S
H863 C843 0.930 . S
H864 C849 0.929 . S
H865 C850 0.930 . S
H866 C871 0.930 . S
H867 C846 0.930 . S
H868 C879 0.931 . S
N869 Tb840 2.617 . S
N869 C870 1.379 . S
N869 C873 1.334 . S
C870 N869 1.379 . S
C870 C872 1.416 . S
C870 C878 1.424 . S
C871 H866 0.930 . S
C871 C873 1.390 . S
C871 C874 1.339 . S
C872 C870 1.416 . S
C872 C874 1.416 . S
C872 C905 1.448 . S
C873 H858 0.930 . S
C873 N869 1.334 . S
C873 C871 1.390 . S
C874 C871 1.339 . S
C874 C872 1.416 . S
C874 H881 0.930 . S
N875 Tb840 2.572 . S
N875 C876 1.340 . S
N875 C878 1.361 . S
C876 H862 0.930 . S
C876 N875 1.340 . S
C876 C880 1.407 . S
C877 C878 1.413 . S
C877 C879 1.416 . S
C877 C906 1.427 . S
C878 C870 1.424 . S
C878 N875 1.361 . S
C878 C877 1.413 . S
C879 H868 0.931 . S
C879 C877 1.416 . S
C879 C880 1.332 . S
C880 H859 0.929 . S
C880 C876 1.407 . S
C880 C879 1.332 . S
H881 C874 0.930 . S
H882 C905 0.930 . S
H883 C906 0.929 . S
O884 Tb840 2.465 . S
O884 C904 1.264 . S
O885 Tb840 2.387 . S
O885 C896 1.264 . S
O886 Tb851 2.349 . S
O886 C896 1.243 . S
O887 Tb840 2.428 . S
O887 C904 1.256 . S
O888 Tb840 2.308 . S
O888 C903 1.266 . S
O889 Tb851 2.393 . S
O889 C903 1.248 . S
O890 Tb851 2.465 . S
O890 C915 1.264 . S
O891 Tb851 2.387 . S
O891 C907 1.264 . S
O892 Tb840 2.349 . S
O892 C907 1.243 . S
O893 Tb851 2.428 . S
O893 C915 1.256 . S
O894 Tb851 2.308 . S
O894 C914 1.266 . S
O895 Tb840 2.393 . S
O895 C914 1.248 . S
C896 O885 1.264 . S
C896 O886 1.243 . S
C897 C900 1.399 . S
C897 C902 1.383 . S
C897 C904 1.496 . S
C898 C899 1.399 1_545 S
C898 C902 1.389 . S
C899 C898 1.399 1_565 S
C899 C901 1.380 1_565 S
C899 H916 0.929 . S
C900 C897 1.399 . S
C900 C901 1.392 . S
C900 H917 0.929 . S
C901 C899 1.380 1_545 S
C901 C900 1.392 . S
C901 H918 0.929 1_545 S
C902 C897 1.383 . S
C902 C898 1.389 . S
C902 H919 0.931 . S
C903 O888 1.266 . S
C903 O889 1.248 . S
C904 Tb840 2.802 . S
C904 O884 1.264 . S
C904 O887 1.256 . S
C904 C897 1.496 . S
C905 C872 1.448 . S
C905 H882 0.930 . S
C905 C906 1.328 . S
C906 C877 1.427 . S
C906 H883 0.929 . S
C906 C905 1.328 . S
C907 O891 1.264 . S
C907 O892 1.243 . S
C908 C911 1.399 . S
C908 C912 1.383 . S
C908 C915 1.496 . S
C909 C910 1.399 . S
C909 C912 1.389 . S
C910 C909 1.399 . S
C910 C913 1.380 . S
C910 H920 0.929 . S
C911 C908 1.399 . S
C911 C913 1.392 . S
C911 H921 0.929 . S
C912 C908 1.383 . S
C912 C909 1.389 . S
C912 H922 0.931 . S
C913 C910 1.380 . S
C913 C911 1.392 . S
C913 H923 0.929 . S
C914 O894 1.266 . S
C914 O895 1.248 . S
C915 Tb851 2.802 . S
C915 O890 1.264 . S
C915 O893 1.256 . S
C915 C908 1.496 . S
H916 C899 0.929 . S
H917 C900 0.929 . S
H918 C901 0.929 1_565 S
H919 C902 0.931 . S
H920 C910 0.929 . S
H921 C911 0.929 . S
H922 C912 0.931 . S
H923 C913 0.929 . S
Tb924 N953 2.617 . S
Tb924 N959 2.572 . S
Tb924 O968 2.465 . S
Tb924 O969 2.387 . S
Tb924 O971 2.428 . S
Tb924 O972 2.308 . S
Tb924 O976 2.349 . S
Tb924 O979 2.393 . S
Tb924 C988 2.802 . S
C925 N926 1.379 . S
C925 C928 1.416 . S
C925 C932 1.424 . S
N926 C925 1.379 . S
N926 C929 1.334 . S
N926 Tb935 2.617 . S
C927 C929 1.390 . S
C927 C930 1.339 . S
C927 H947 0.930 . S
C928 C925 1.416 . S
C928 C930 1.416 . S
C928 C934 1.448 . S
C929 N926 1.334 . S
C929 C927 1.390 . S
C929 H940 0.930 . S
C930 C927 1.339 . S
C930 C928 1.416 . S
C930 H951 0.930 . S
C931 C932 1.413 . S
C931 C933 1.427 . S
C931 C937 1.416 . S
C932 C925 1.424 . S
C932 C931 1.413 . S
C932 N936 1.361 . S
C933 C931 1.427 . S
C933 C934 1.328 . S
C933 H948 0.929 . S
C934 C928 1.448 . S
C934 C933 1.328 . S
C934 H949 0.930 . S
Tb935 N926 2.617 . S
Tb935 N936 2.572 . S
Tb935 O970 2.349 . S
Tb935 O973 2.393 . S
Tb935 O974 2.465 . S
Tb935 O975 2.387 . S
Tb935 O977 2.428 . S
Tb935 O978 2.308 . S
Tb935 C999 2.802 . S
N936 C932 1.361 . S
N936 Tb935 2.572 . S
N936 C938 1.340 . S
C937 C931 1.416 . S
C937 C939 1.332 . S
C937 H945 0.931 . S
C938 N936 1.340 . S
C938 C939 1.407 . S
C938 H944 0.930 . S
C939 C937 1.332 . S
C939 C938 1.407 . S
C939 H941 0.929 . S
H940 C929 0.930 . S
H941 C939 0.929 . S
H942 C957 0.930 . S
H943 C964 0.929 . S
H944 C938 0.930 . S
H945 C937 0.931 . S
H946 C960 0.930 . S
H947 C927 0.930 . S
H948 C933 0.929 . S
H949 C934 0.930 . S
H950 C955 0.930 . S
H951 C930 0.930 . S
H952 C963 0.931 . S
N953 Tb924 2.617 . S
N953 C954 1.379 . S
N953 C957 1.334 . S
C954 N953 1.379 . S
C954 C956 1.416 . S
C954 C962 1.424 . S
C955 H950 0.930 . S
C955 C957 1.390 . S
C955 C958 1.339 . S
C956 C954 1.416 . S
C956 C958 1.416 . S
C956 C989 1.448 . S
C957 H942 0.930 . S
C957 N953 1.334 . S
C957 C955 1.390 . S
C958 C955 1.339 . S
C958 C956 1.416 . S
C958 H965 0.930 . S
N959 Tb924 2.572 . S
N959 C960 1.340 . S
N959 C962 1.361 . S
C960 H946 0.930 . S
C960 N959 1.340 . S
C960 C964 1.407 . S
C961 C962 1.413 . S
C961 C963 1.416 . S
C961 C990 1.427 . S
C962 C954 1.424 . S
C962 N959 1.361 . S
C962 C961 1.413 . S
C963 H952 0.931 . S
C963 C961 1.416 . S
C963 C964 1.332 . S
C964 H943 0.929 . S
C964 C960 1.407 . S
C964 C963 1.332 . S
H965 C958 0.930 . S
H966 C989 0.930 . S
H967 C990 0.929 . S
O968 Tb924 2.465 . S
O968 C988 1.264 . S
O969 Tb924 2.387 . S
O969 C980 1.264 . S
O970 Tb935 2.349 . S
O970 C980 1.243 . S
O971 Tb924 2.428 . S
O971 C988 1.256 . S
O972 Tb924 2.308 . S
O972 C987 1.266 . S
O973 Tb935 2.393 . S
O973 C987 1.248 . S
O974 Tb935 2.465 . S
O974 C999 1.264 . S
O975 Tb935 2.387 . S
O975 C991 1.264 . S
O976 Tb924 2.349 . S
O976 C991 1.243 . S
O977 Tb935 2.428 . S
O977 C999 1.256 . S
O978 Tb935 2.308 . S
O978 C998 1.266 . S
O979 Tb924 2.393 . S
O979 C998 1.248 . S
C980 O969 1.264 . S
C980 O970 1.243 . S
C981 C984 1.399 . S
C981 C986 1.383 . S
C981 C988 1.496 . S
C982 C983 1.399 1_565 S
C982 C986 1.389 . S
C983 C982 1.399 1_545 S
C983 C985 1.380 1_545 S
C983 H1000 0.929 . S
C984 C981 1.399 . S
C984 C985 1.392 . S
C984 H1001 0.929 . S
C985 C983 1.380 1_565 S
C985 C984 1.392 . S
C985 H1002 0.929 1_565 S
C986 C981 1.383 . S
C986 C982 1.389 . S
C986 H1003 0.931 . S
C987 O972 1.266 . S
C987 O973 1.248 . S
C988 Tb924 2.802 . S
C988 O968 1.264 . S
C988 O971 1.256 . S
C988 C981 1.496 . S
C989 C956 1.448 . S
C989 H966 0.930 . S
C989 C990 1.328 . S
C990 C961 1.427 . S
C990 H967 0.929 . S
C990 C989 1.328 . S
C991 O975 1.264 . S
C991 O976 1.243 . S
C992 C995 1.399 . S
C992 C996 1.383 . S
C992 C999 1.496 . S
C993 C994 1.399 . S
C993 C996 1.389 . S
C994 C993 1.399 . S
C994 C997 1.380 . S
C994 H1004 0.929 . S
C995 C992 1.399 . S
C995 C997 1.392 . S
C995 H1005 0.929 . S
C996 C992 1.383 . S
C996 C993 1.389 . S
C996 H1006 0.931 . S
C997 C994 1.380 . S
C997 C995 1.392 . S
C997 H1007 0.929 . S
C998 O978 1.266 . S
C998 O979 1.248 . S
C999 Tb935 2.802 . S
C999 O974 1.264 . S
C999 O977 1.256 . S
C999 C992 1.496 . S
H1000 C983 0.929 . S
H1001 C984 0.929 . S
H1002 C985 0.929 1_545 S
H1003 C986 0.931 . S
H1004 C994 0.929 . S
H1005 C995 0.929 . S
H1006 C996 0.931 . S
H1007 C997 0.929 . S
Tb1008 N1037 2.617 . S
Tb1008 N1043 2.572 . S
Tb1008 O1052 2.465 . S
Tb1008 O1053 2.387 . S
Tb1008 O1055 2.428 . S
Tb1008 O1056 2.308 . S
Tb1008 O1060 2.349 . S
Tb1008 O1063 2.393 . S
Tb1008 C1072 2.802 . S
C1009 N1010 1.379 . S
C1009 C1012 1.416 . S
C1009 C1016 1.424 . S
N1010 C1009 1.379 . S
N1010 C1013 1.334 . S
N1010 Tb1019 2.617 . S
C1011 C1013 1.390 . S
C1011 C1014 1.339 . S
C1011 H1031 0.930 . S
C1012 C1009 1.416 . S
C1012 C1014 1.416 . S
C1012 C1018 1.448 . S
C1013 N1010 1.334 . S
C1013 C1011 1.390 . S
C1013 H1024 0.930 . S
C1014 C1011 1.339 . S
C1014 C1012 1.416 . S
C1014 H1035 0.930 . S
C1015 C1016 1.413 . S
C1015 C1017 1.427 . S
C1015 C1021 1.416 . S
C1016 C1009 1.424 . S
C1016 C1015 1.413 . S
C1016 N1020 1.361 . S
C1017 C1015 1.427 . S
C1017 C1018 1.328 . S
C1017 H1032 0.929 . S
C1018 C1012 1.448 . S
C1018 C1017 1.328 . S
C1018 H1033 0.930 . S
Tb1019 N1010 2.617 . S
Tb1019 N1020 2.572 . S
Tb1019 O1054 2.349 . S
Tb1019 O1057 2.393 . S
Tb1019 O1058 2.465 . S
Tb1019 O1059 2.387 . S
Tb1019 O1061 2.428 . S
Tb1019 O1062 2.308 . S
Tb1019 C1083 2.802 . S
N1020 C1016 1.361 . S
N1020 Tb1019 2.572 . S
N1020 C1022 1.340 . S
C1021 C1015 1.416 . S
C1021 C1023 1.332 . S
C1021 H1029 0.931 . S
C1022 N1020 1.340 . S
C1022 C1023 1.407 . S
C1022 H1028 0.930 . S
C1023 C1021 1.332 . S
C1023 C1022 1.407 . S
C1023 H1025 0.929 . S
H1024 C1013 0.930 . S
H1025 C1023 0.929 . S
H1026 C1041 0.930 . S
H1027 C1048 0.929 . S
H1028 C1022 0.930 . S
H1029 C1021 0.931 . S
H1030 C1044 0.930 . S
H1031 C1011 0.930 . S
H1032 C1017 0.929 . S
H1033 C1018 0.930 . S
H1034 C1039 0.930 1_554 S
H1035 C1014 0.930 . S
H1036 C1047 0.931 . S
N1037 Tb1008 2.617 . S
N1037 C1038 1.379 . S
N1037 C1041 1.334 . S
C1038 N1037 1.379 . S
C1038 C1040 1.416 . S
C1038 C1046 1.424 . S
C1039 H1034 0.930 1_556 S
C1039 C1041 1.390 . S
C1039 C1042 1.339 . S
C1040 C1038 1.416 . S
C1040 C1042 1.416 . S
C1040 C1073 1.448 . S
C1041 H1026 0.930 . S
C1041 N1037 1.334 . S
C1041 C1039 1.390 . S
C1042 C1039 1.339 . S
C1042 C1040 1.416 . S
C1042 H1049 0.930 . S
N1043 Tb1008 2.572 . S
N1043 C1044 1.340 . S
N1043 C1046 1.361 . S
C1044 H1030 0.930 . S
C1044 N1043 1.340 . S
C1044 C1048 1.407 . S
C1045 C1046 1.413 . S
C1045 C1047 1.416 . S
C1045 C1074 1.427 . S
C1046 C1038 1.424 . S
C1046 N1043 1.361 . S
C1046 C1045 1.413 . S
C1047 H1036 0.931 . S
C1047 C1045 1.416 . S
C1047 C1048 1.332 . S
C1048 H1027 0.929 . S
C1048 C1044 1.407 . S
C1048 C1047 1.332 . S
H1049 C1042 0.930 . S
H1050 C1073 0.930 . S
H1051 C1074 0.929 . S
O1052 Tb1008 2.465 . S
O1052 C1072 1.264 . S
O1053 Tb1008 2.387 . S
O1053 C1064 1.264 . S
O1054 Tb1019 2.349 . S
O1054 C1064 1.243 . S
O1055 Tb1008 2.428 . S
O1055 C1072 1.256 . S
O1056 Tb1008 2.308 . S
O1056 C1071 1.266 . S
O1057 Tb1019 2.393 . S
O1057 C1071 1.248 . S
O1058 Tb1019 2.465 . S
O1058 C1083 1.264 . S
O1059 Tb1019 2.387 . S
O1059 C1075 1.264 . S
O1060 Tb1008 2.349 . S
O1060 C1075 1.243 . S
O1061 Tb1019 2.428 . S
O1061 C1083 1.256 . S
O1062 Tb1019 2.308 . S
O1062 C1082 1.266 . S
O1063 Tb1008 2.393 . S
O1063 C1082 1.248 . S
C1064 O1053 1.264 . S
C1064 O1054 1.243 . S
C1065 C1068 1.399 . S
C1065 C1070 1.383 . S
C1065 C1072 1.496 . S
C1066 C1067 1.399 . S
C1066 C1070 1.389 . S
C1067 C1066 1.399 . S
C1067 C1069 1.380 . S
C1067 H1084 0.929 . S
C1068 C1065 1.399 . S
C1068 C1069 1.392 . S
C1068 H1085 0.929 . S
C1069 C1067 1.380 . S
C1069 C1068 1.392 . S
C1069 H1086 0.929 . S
C1070 C1065 1.383 . S
C1070 C1066 1.389 . S
C1070 H1087 0.931 . S
C1071 O1056 1.266 . S
C1071 O1057 1.248 . S
C1072 Tb1008 2.802 . S
C1072 O1052 1.264 . S
C1072 O1055 1.256 . S
C1072 C1065 1.496 . S
C1073 C1040 1.448 . S
C1073 H1050 0.930 . S
C1073 C1074 1.328 . S
C1074 C1045 1.427 . S
C1074 H1051 0.929 . S
C1074 C1073 1.328 . S
C1075 O1059 1.264 . S
C1075 O1060 1.243 . S
C1076 C1079 1.399 . S
C1076 C1080 1.383 . S
C1076 C1083 1.496 . S
C1077 C1078 1.399 1_545 S
C1077 C1080 1.389 . S
C1078 C1077 1.399 1_565 S
C1078 C1081 1.380 1_565 S
C1078 H1088 0.929 . S
C1079 C1076 1.399 . S
C1079 C1081 1.392 . S
C1079 H1089 0.929 . S
C1080 C1076 1.383 . S
C1080 C1077 1.389 . S
C1080 H1090 0.931 . S
C1081 C1078 1.380 1_545 S
C1081 C1079 1.392 . S
C1081 H1091 0.929 1_545 S
C1082 O1062 1.266 . S
C1082 O1063 1.248 . S
C1083 Tb1019 2.802 . S
C1083 O1058 1.264 . S
C1083 O1061 1.256 . S
C1083 C1076 1.496 . S
H1084 C1067 0.929 . S
H1085 C1068 0.929 . S
H1086 C1069 0.929 . S
H1087 C1070 0.931 . S
H1088 C1078 0.929 . S
H1089 C1079 0.929 . S
H1090 C1080 0.931 . S
H1091 C1081 0.929 1_565 S
Tb1092 N1121 2.617 . S
Tb1092 N1127 2.572 . S
Tb1092 O1136 2.465 . S
Tb1092 O1137 2.387 . S
Tb1092 O1139 2.428 . S
Tb1092 O1140 2.308 . S
Tb1092 O1144 2.349 . S
Tb1092 O1147 2.393 . S
Tb1092 C1156 2.802 . S
C1093 N1094 1.379 . S
C1093 C1096 1.416 . S
C1093 C1100 1.424 . S
N1094 C1093 1.379 . S
N1094 C1097 1.334 . S
N1094 Tb1103 2.617 . S
C1095 C1097 1.390 . S
C1095 C1098 1.339 . S
C1095 H1115 0.930 . S
C1096 C1093 1.416 . S
C1096 C1098 1.416 . S
C1096 C1102 1.448 . S
C1097 N1094 1.334 . S
C1097 C1095 1.390 . S
C1097 H1108 0.930 . S
C1098 C1095 1.339 . S
C1098 C1096 1.416 . S
C1098 H1119 0.930 . S
C1099 C1100 1.413 . S
C1099 C1101 1.427 . S
C1099 C1105 1.416 . S
C1100 C1093 1.424 . S
C1100 C1099 1.413 . S
C1100 N1104 1.361 . S
C1101 C1099 1.427 . S
C1101 C1102 1.328 . S
C1101 H1116 0.929 . S
C1102 C1096 1.448 . S
C1102 C1101 1.328 . S
C1102 H1117 0.930 . S
Tb1103 N1094 2.617 . S
Tb1103 N1104 2.572 . S
Tb1103 O1138 2.349 . S
Tb1103 O1141 2.393 . S
Tb1103 O1142 2.465 . S
Tb1103 O1143 2.387 . S
Tb1103 O1145 2.428 . S
Tb1103 O1146 2.308 . S
Tb1103 C1167 2.802 . S
N1104 C1100 1.361 . S
N1104 Tb1103 2.572 . S
N1104 C1106 1.340 . S
C1105 C1099 1.416 . S
C1105 C1107 1.332 . S
C1105 H1113 0.931 . S
C1106 N1104 1.340 . S
C1106 C1107 1.407 . S
C1106 H1112 0.930 . S
C1107 C1105 1.332 . S
C1107 C1106 1.407 . S
C1107 H1109 0.929 . S
H1108 C1097 0.930 . S
H1109 C1107 0.929 . S
H1110 C1125 0.930 . S
H1111 C1132 0.929 . S
H1112 C1106 0.930 . S
H1113 C1105 0.931 . S
H1114 C1128 0.930 . S
H1115 C1095 0.930 . S
H1116 C1101 0.929 . S
H1117 C1102 0.930 . S
H1118 C1123 0.930 1_554 S
H1119 C1098 0.930 . S
H1120 C1131 0.931 . S
N1121 Tb1092 2.617 . S
N1121 C1122 1.379 . S
N1121 C1125 1.334 . S
C1122 N1121 1.379 . S
C1122 C1124 1.416 . S
C1122 C1130 1.424 . S
C1123 H1118 0.930 1_556 S
C1123 C1125 1.390 . S
C1123 C1126 1.339 . S
C1124 C1122 1.416 . S
C1124 C1126 1.416 . S
C1124 C1157 1.448 . S
C1125 H1110 0.930 . S
C1125 N1121 1.334 . S
C1125 C1123 1.390 . S
C1126 C1123 1.339 . S
C1126 C1124 1.416 . S
C1126 H1133 0.930 . S
N1127 Tb1092 2.572 . S
N1127 C1128 1.340 . S
N1127 C1130 1.361 . S
C1128 H1114 0.930 . S
C1128 N1127 1.340 . S
C1128 C1132 1.407 . S
C1129 C1130 1.413 . S
C1129 C1131 1.416 . S
C1129 C1158 1.427 . S
C1130 C1122 1.424 . S
C1130 N1127 1.361 . S
C1130 C1129 1.413 . S
C1131 H1120 0.931 . S
C1131 C1129 1.416 . S
C1131 C1132 1.332 . S
C1132 H1111 0.929 . S
C1132 C1128 1.407 . S
C1132 C1131 1.332 . S
H1133 C1126 0.930 . S
H1134 C1157 0.930 . S
H1135 C1158 0.929 . S
O1136 Tb1092 2.465 . S
O1136 C1156 1.264 . S
O1137 Tb1092 2.387 . S
O1137 C1148 1.264 . S
O1138 Tb1103 2.349 . S
O1138 C1148 1.243 . S
O1139 Tb1092 2.428 . S
O1139 C1156 1.256 . S
O1140 Tb1092 2.308 . S
O1140 C1155 1.266 . S
O1141 Tb1103 2.393 . S
O1141 C1155 1.248 . S
O1142 Tb1103 2.465 . S
O1142 C1167 1.264 . S
O1143 Tb1103 2.387 . S
O1143 C1159 1.264 . S
O1144 Tb1092 2.349 . S
O1144 C1159 1.243 . S
O1145 Tb1103 2.428 . S
O1145 C1167 1.256 . S
O1146 Tb1103 2.308 . S
O1146 C1166 1.266 . S
O1147 Tb1092 2.393 . S
O1147 C1166 1.248 . S
C1148 O1137 1.264 . S
C1148 O1138 1.243 . S
C1149 C1152 1.399 . S
C1149 C1154 1.383 . S
C1149 C1156 1.496 . S
C1150 C1151 1.399 . S
C1150 C1154 1.389 . S
C1151 C1150 1.399 . S
C1151 C1153 1.380 . S
C1151 H1168 0.929 . S
C1152 C1149 1.399 . S
C1152 C1153 1.392 . S
C1152 H1169 0.929 . S
C1153 C1151 1.380 . S
C1153 C1152 1.392 . S
C1153 H1170 0.929 . S
C1154 C1149 1.383 . S
C1154 C1150 1.389 . S
C1154 H1171 0.931 . S
C1155 O1140 1.266 . S
C1155 O1141 1.248 . S
C1156 Tb1092 2.802 . S
C1156 O1136 1.264 . S
C1156 O1139 1.256 . S
C1156 C1149 1.496 . S
C1157 C1124 1.448 . S
C1157 H1134 0.930 . S
C1157 C1158 1.328 . S
C1158 C1129 1.427 . S
C1158 H1135 0.929 . S
C1158 C1157 1.328 . S
C1159 O1143 1.264 . S
C1159 O1144 1.243 . S
C1160 C1163 1.399 . S
C1160 C1164 1.383 . S
C1160 C1167 1.496 . S
C1161 C1162 1.399 1_565 S
C1161 C1164 1.389 . S
C1162 C1161 1.399 1_545 S
C1162 C1165 1.380 1_545 S
C1162 H1172 0.929 . S
C1163 C1160 1.399 . S
C1163 C1165 1.392 . S
C1163 H1173 0.929 . S
C1164 C1160 1.383 . S
C1164 C1161 1.389 . S
C1164 H1174 0.931 . S
C1165 C1162 1.380 1_565 S
C1165 C1163 1.392 . S
C1165 H1175 0.929 1_565 S
C1166 O1146 1.266 . S
C1166 O1147 1.248 . S
C1167 Tb1103 2.802 . S
C1167 O1142 1.264 . S
C1167 O1145 1.256 . S
C1167 C1160 1.496 . S
H1168 C1151 0.929 . S
H1169 C1152 0.929 . S
H1170 C1153 0.929 . S
H1171 C1154 0.931 . S
H1172 C1162 0.929 . S
H1173 C1163 0.929 . S
H1174 C1164 0.931 . S
H1175 C1165 0.929 1_545 S
Tb1176 N1205 2.617 . S
Tb1176 N1211 2.572 . S
Tb1176 O1220 2.465 . S
Tb1176 O1221 2.387 . S
Tb1176 O1223 2.428 . S
Tb1176 O1224 2.308 . S
Tb1176 O1228 2.349 . S
Tb1176 O1231 2.393 . S
Tb1176 C1240 2.802 . S
C1177 N1178 1.379 . S
C1177 C1180 1.416 . S
C1177 C1184 1.424 . S
N1178 C1177 1.379 . S
N1178 C1181 1.334 . S
N1178 Tb1187 2.617 . S
C1179 C1181 1.390 . S
C1179 C1182 1.339 . S
C1179 H1199 0.930 . S
C1180 C1177 1.416 . S
C1180 C1182 1.416 . S
C1180 C1186 1.448 . S
C1181 N1178 1.334 . S
C1181 C1179 1.390 . S
C1181 H1192 0.930 . S
C1182 C1179 1.339 . S
C1182 C1180 1.416 . S
C1182 H1203 0.930 . S
C1183 C1184 1.413 . S
C1183 C1185 1.427 . S
C1183 C1189 1.416 . S
C1184 C1177 1.424 . S
C1184 C1183 1.413 . S
C1184 N1188 1.361 . S
C1185 C1183 1.427 . S
C1185 C1186 1.328 . S
C1185 H1200 0.929 . S
C1186 C1180 1.448 . S
C1186 C1185 1.328 . S
C1186 H1201 0.930 . S
Tb1187 N1178 2.617 . S
Tb1187 N1188 2.572 . S
Tb1187 O1222 2.349 . S
Tb1187 O1225 2.393 . S
Tb1187 O1226 2.465 . S
Tb1187 O1227 2.387 . S
Tb1187 O1229 2.428 . S
Tb1187 O1230 2.308 . S
Tb1187 C1251 2.802 . S
N1188 C1184 1.361 . S
N1188 Tb1187 2.572 . S
N1188 C1190 1.340 . S
C1189 C1183 1.416 . S
C1189 C1191 1.332 . S
C1189 H1197 0.931 . S
C1190 N1188 1.340 . S
C1190 C1191 1.407 . S
C1190 H1196 0.930 . S
C1191 C1189 1.332 . S
C1191 C1190 1.407 . S
C1191 H1193 0.929 . S
H1192 C1181 0.930 . S
H1193 C1191 0.929 . S
H1194 C1209 0.930 . S
H1195 C1216 0.929 . S
H1196 C1190 0.930 . S
H1197 C1189 0.931 . S
H1198 C1212 0.930 . S
H1199 C1179 0.930 . S
H1200 C1185 0.929 . S
H1201 C1186 0.930 . S
H1202 C1207 0.930 . S
H1203 C1182 0.930 . S
H1204 C1215 0.931 . S
N1205 Tb1176 2.617 . S
N1205 C1206 1.379 . S
N1205 C1209 1.334 . S
C1206 N1205 1.379 . S
C1206 C1208 1.416 . S
C1206 C1214 1.424 . S
C1207 H1202 0.930 . S
C1207 C1209 1.390 . S
C1207 C1210 1.339 . S
C1208 C1206 1.416 . S
C1208 C1210 1.416 . S
C1208 C1241 1.448 . S
C1209 H1194 0.930 . S
C1209 N1205 1.334 . S
C1209 C1207 1.390 . S
C1210 C1207 1.339 . S
C1210 C1208 1.416 . S
C1210 H1217 0.930 . S
N1211 Tb1176 2.572 . S
N1211 C1212 1.340 . S
N1211 C1214 1.361 . S
C1212 H1198 0.930 . S
C1212 N1211 1.340 . S
C1212 C1216 1.407 . S
C1213 C1214 1.413 . S
C1213 C1215 1.416 . S
C1213 C1242 1.427 . S
C1214 C1206 1.424 . S
C1214 N1211 1.361 . S
C1214 C1213 1.413 . S
C1215 H1204 0.931 . S
C1215 C1213 1.416 . S
C1215 C1216 1.332 . S
C1216 H1195 0.929 . S
C1216 C1212 1.407 . S
C1216 C1215 1.332 . S
H1217 C1210 0.930 . S
H1218 C1241 0.930 . S
H1219 C1242 0.929 . S
O1220 Tb1176 2.465 . S
O1220 C1240 1.264 . S
O1221 Tb1176 2.387 . S
O1221 C1232 1.264 . S
O1222 Tb1187 2.349 . S
O1222 C1232 1.243 . S
O1223 Tb1176 2.428 . S
O1223 C1240 1.256 . S
O1224 Tb1176 2.308 . S
O1224 C1239 1.266 . S
O1225 Tb1187 2.393 . S
O1225 C1239 1.248 . S
O1226 Tb1187 2.465 . S
O1226 C1251 1.264 . S
O1227 Tb1187 2.387 . S
O1227 C1243 1.264 . S
O1228 Tb1176 2.349 . S
O1228 C1243 1.243 . S
O1229 Tb1187 2.428 . S
O1229 C1251 1.256 . S
O1230 Tb1187 2.308 . S
O1230 C1250 1.266 . S
O1231 Tb1176 2.393 . S
O1231 C1250 1.248 . S
C1232 O1221 1.264 . S
C1232 O1222 1.243 . S
C1233 C1236 1.399 . S
C1233 C1238 1.383 . S
C1233 C1240 1.496 . S
C1234 C1235 1.399 . S
C1234 C1238 1.389 . S
C1235 C1234 1.399 . S
C1235 C1237 1.380 . S
C1235 H1252 0.929 . S
C1236 C1233 1.399 . S
C1236 C1237 1.392 . S
C1236 H1253 0.929 . S
C1237 C1235 1.380 . S
C1237 C1236 1.392 . S
C1237 H1254 0.929 . S
C1238 C1233 1.383 . S
C1238 C1234 1.389 . S
C1238 H1255 0.931 . S
C1239 O1224 1.266 . S
C1239 O1225 1.248 . S
C1240 Tb1176 2.802 . S
C1240 O1220 1.264 . S
C1240 O1223 1.256 . S
C1240 C1233 1.496 . S
C1241 C1208 1.448 . S
C1241 H1218 0.930 . S
C1241 C1242 1.328 . S
C1242 C1213 1.427 . S
C1242 H1219 0.929 . S
C1242 C1241 1.328 . S
C1243 O1227 1.264 . S
C1243 O1228 1.243 . S
C1244 C1247 1.399 . S
C1244 C1248 1.383 . S
C1244 C1251 1.496 . S
C1245 C1246 1.399 1_565 S
C1245 C1248 1.389 . S
C1246 C1245 1.399 1_545 S
C1246 C1249 1.380 1_545 S
C1246 H1256 0.929 . S
C1247 C1244 1.399 . S
C1247 C1249 1.392 . S
C1247 H1257 0.929 . S
C1248 C1244 1.383 . S
C1248 C1245 1.389 . S
C1248 H1258 0.931 . S
C1249 C1246 1.380 1_565 S
C1249 C1247 1.392 . S
C1249 H1259 0.929 1_565 S
C1250 O1230 1.266 . S
C1250 O1231 1.248 . S
C1251 Tb1187 2.802 . S
C1251 O1226 1.264 . S
C1251 O1229 1.256 . S
C1251 C1244 1.496 . S
H1252 C1235 0.929 . S
H1253 C1236 0.929 . S
H1254 C1237 0.929 . S
H1255 C1238 0.931 . S
H1256 C1246 0.929 . S
H1257 C1247 0.929 . S
H1258 C1248 0.931 . S
H1259 C1249 0.929 1_545 S
Tb1260 N1289 2.617 . S
Tb1260 N1295 2.572 . S
Tb1260 O1304 2.465 . S
Tb1260 O1305 2.387 . S
Tb1260 O1307 2.428 . S
Tb1260 O1308 2.308 . S
Tb1260 O1312 2.349 . S
Tb1260 O1315 2.393 . S
Tb1260 C1324 2.802 . S
C1261 N1262 1.379 . S
C1261 C1264 1.416 . S
C1261 C1268 1.424 . S
N1262 C1261 1.379 . S
N1262 C1265 1.334 . S
N1262 Tb1271 2.617 . S
C1263 C1265 1.390 . S
C1263 C1266 1.339 . S
C1263 H1283 0.930 . S
C1264 C1261 1.416 . S
C1264 C1266 1.416 . S
C1264 C1270 1.448 . S
C1265 N1262 1.334 . S
C1265 C1263 1.390 . S
C1265 H1276 0.930 . S
C1266 C1263 1.339 . S
C1266 C1264 1.416 . S
C1266 H1287 0.930 . S
C1267 C1268 1.413 . S
C1267 C1269 1.427 . S
C1267 C1273 1.416 . S
C1268 C1261 1.424 . S
C1268 C1267 1.413 . S
C1268 N1272 1.361 . S
C1269 C1267 1.427 . S
C1269 C1270 1.328 . S
C1269 H1284 0.929 . S
C1270 C1264 1.448 . S
C1270 C1269 1.328 . S
C1270 H1285 0.930 . S
Tb1271 N1262 2.617 . S
Tb1271 N1272 2.572 . S
Tb1271 O1306 2.349 . S
Tb1271 O1309 2.393 . S
Tb1271 O1310 2.465 . S
Tb1271 O1311 2.387 . S
Tb1271 O1313 2.428 . S
Tb1271 O1314 2.308 . S
Tb1271 C1335 2.802 . S
N1272 C1268 1.361 . S
N1272 Tb1271 2.572 . S
N1272 C1274 1.340 . S
C1273 C1267 1.416 . S
C1273 C1275 1.332 . S
C1273 H1281 0.931 . S
C1274 N1272 1.340 . S
C1274 C1275 1.407 . S
C1274 H1280 0.930 . S
C1275 C1273 1.332 . S
C1275 C1274 1.407 . S
C1275 H1277 0.929 . S
H1276 C1265 0.930 . S
H1277 C1275 0.929 . S
H1278 C1293 0.930 . S
H1279 C1300 0.929 . S
H1280 C1274 0.930 . S
H1281 C1273 0.931 . S
H1282 C1296 0.930 . S
H1283 C1263 0.930 . S
H1284 C1269 0.929 . S
H1285 C1270 0.930 . S
H1286 C1291 0.930 . S
H1287 C1266 0.930 . S
H1288 C1299 0.931 . S
N1289 Tb1260 2.617 . S
N1289 C1290 1.379 . S
N1289 C1293 1.334 . S
C1290 N1289 1.379 . S
C1290 C1292 1.416 . S
C1290 C1298 1.424 . S
C1291 H1286 0.930 . S
C1291 C1293 1.390 . S
C1291 C1294 1.339 . S
C1292 C1290 1.416 . S
C1292 C1294 1.416 . S
C1292 C1325 1.448 . S
C1293 H1278 0.930 . S
C1293 N1289 1.334 . S
C1293 C1291 1.390 . S
C1294 C1291 1.339 . S
C1294 C1292 1.416 . S
C1294 H1301 0.930 . S
N1295 Tb1260 2.572 . S
N1295 C1296 1.340 . S
N1295 C1298 1.361 . S
C1296 H1282 0.930 . S
C1296 N1295 1.340 . S
C1296 C1300 1.407 . S
C1297 C1298 1.413 . S
C1297 C1299 1.416 . S
C1297 C1326 1.427 . S
C1298 C1290 1.424 . S
C1298 N1295 1.361 . S
C1298 C1297 1.413 . S
C1299 H1288 0.931 . S
C1299 C1297 1.416 . S
C1299 C1300 1.332 . S
C1300 H1279 0.929 . S
C1300 C1296 1.407 . S
C1300 C1299 1.332 . S
H1301 C1294 0.930 . S
H1302 C1325 0.930 . S
H1303 C1326 0.929 . S
O1304 Tb1260 2.465 . S
O1304 C1324 1.264 . S
O1305 Tb1260 2.387 . S
O1305 C1316 1.264 . S
O1306 Tb1271 2.349 . S
O1306 C1316 1.243 . S
O1307 Tb1260 2.428 . S
O1307 C1324 1.256 . S
O1308 Tb1260 2.308 . S
O1308 C1323 1.266 . S
O1309 Tb1271 2.393 . S
O1309 C1323 1.248 . S
O1310 Tb1271 2.465 . S
O1310 C1335 1.264 . S
O1311 Tb1271 2.387 . S
O1311 C1327 1.264 . S
O1312 Tb1260 2.349 . S
O1312 C1327 1.243 . S
O1313 Tb1271 2.428 . S
O1313 C1335 1.256 . S
O1314 Tb1271 2.308 . S
O1314 C1334 1.266 . S
O1315 Tb1260 2.393 . S
O1315 C1334 1.248 . S
C1316 O1305 1.264 . S
C1316 O1306 1.243 . S
C1317 C1320 1.399 . S
C1317 C1322 1.383 . S
C1317 C1324 1.496 . S
C1318 C1319 1.399 . S
C1318 C1322 1.389 . S
C1319 C1318 1.399 . S
C1319 C1321 1.380 . S
C1319 H1336 0.929 . S
C1320 C1317 1.399 . S
C1320 C1321 1.392 . S
C1320 H1337 0.929 . S
C1321 C1319 1.380 . S
C1321 C1320 1.392 . S
C1321 H1338 0.929 . S
C1322 C1317 1.383 . S
C1322 C1318 1.389 . S
C1322 H1339 0.931 . S
C1323 O1308 1.266 . S
C1323 O1309 1.248 . S
C1324 Tb1260 2.802 . S
C1324 O1304 1.264 . S
C1324 O1307 1.256 . S
C1324 C1317 1.496 . S
C1325 C1292 1.448 . S
C1325 H1302 0.930 . S
C1325 C1326 1.328 . S
C1326 C1297 1.427 . S
C1326 H1303 0.929 . S
C1326 C1325 1.328 . S
C1327 O1311 1.264 . S
C1327 O1312 1.243 . S
C1328 C1331 1.399 . S
C1328 C1332 1.383 . S
C1328 C1335 1.496 . S
C1329 C1330 1.399 1_545 S
C1329 C1332 1.389 . S
C1330 C1329 1.399 1_565 S
C1330 C1333 1.380 1_565 S
C1330 H1340 0.929 . S
C1331 C1328 1.399 . S
C1331 C1333 1.392 . S
C1331 H1341 0.929 . S
C1332 C1328 1.383 . S
C1332 C1329 1.389 . S
C1332 H1342 0.931 . S
C1333 C1330 1.380 1_545 S
C1333 C1331 1.392 . S
C1333 H1343 0.929 1_545 S
C1334 O1314 1.266 . S
C1334 O1315 1.248 . S
C1335 Tb1271 2.802 . S
C1335 O1310 1.264 . S
C1335 O1313 1.256 . S
C1335 C1328 1.496 . S
H1336 C1319 0.929 . S
H1337 C1320 0.929 . S
H1338 C1321 0.929 . S
H1339 C1322 0.931 . S
H1340 C1330 0.929 . S
H1341 C1331 0.929 . S
H1342 C1332 0.931 . S
H1343 C1333 0.929 1_565 S
C1344 C1345 1.387 . S
C1344 H1348 0.950 . S
C1344 C1353 1.390 . S
C1345 C1344 1.387 . S
C1345 C1347 1.387 . S
H1346 C1353 0.950 . S
C1347 C1345 1.387 . S
C1347 C1349 1.390 . S
C1347 H1351 0.950 . S
H1348 C1344 0.950 . S
C1349 C1347 1.390 . S
C1349 C1350 1.387 . S
C1349 H1352 0.950 . S
C1350 C1349 1.387 . S
C1350 C1353 1.387 . S
H1351 C1347 0.950 . S
H1352 C1349 0.950 . S
C1353 C1344 1.390 . S
C1353 H1346 0.950 . S
C1353 C1350 1.387 . S
C1354 C1355 1.387 . S
C1354 H1358 0.950 . S
C1354 C1363 1.390 . S
C1355 C1354 1.387 . S
C1355 C1357 1.387 . S
H1356 C1363 0.950 . S
C1357 C1355 1.387 . S
C1357 C1359 1.390 . S
C1357 H1361 0.950 . S
H1358 C1354 0.950 . S
C1359 C1357 1.390 . S
C1359 C1360 1.387 . S
C1359 H1362 0.950 . S
C1360 C1359 1.387 . S
C1360 C1363 1.387 . S
H1361 C1357 0.950 . S
H1362 C1359 0.950 . S
C1363 C1354 1.390 . S
C1363 H1356 0.950 . S
C1363 C1360 1.387 . S
C1364 C1365 1.387 . S
C1364 H1368 0.950 . S
C1364 C1373 1.390 . S
C1365 C1364 1.387 . S
C1365 C1367 1.387 . S
H1366 C1373 0.950 . S
C1367 C1365 1.387 . S
C1367 C1369 1.390 . S
C1367 H1371 0.950 . S
H1368 C1364 0.950 . S
C1369 C1367 1.390 . S
C1369 C1370 1.387 . S
C1369 H1372 0.950 . S
C1370 C1369 1.387 . S
C1370 C1373 1.387 . S
H1371 C1367 0.950 . S
H1372 C1369 0.950 . S
C1373 C1364 1.390 . S
C1373 H1366 0.950 . S
C1373 C1370 1.387 . S
C1374 C1375 1.387 . S
C1374 H1378 0.950 . S
C1374 C1383 1.390 . S
C1375 C1374 1.387 . S
C1375 C1377 1.387 . S
H1376 C1383 0.950 . S
C1377 C1375 1.387 . S
C1377 C1379 1.390 . S
C1377 H1381 0.950 . S
H1378 C1374 0.950 . S
C1379 C1377 1.390 . S
C1379 C1380 1.387 . S
C1379 H1382 0.950 . S
C1380 C1379 1.387 . S
C1380 C1383 1.387 . S
H1381 C1377 0.950 . S
H1382 C1379 0.950 . S
C1383 C1374 1.390 . S
C1383 H1376 0.950 . S
C1383 C1380 1.387 . S
C1384 C1385 1.387 . S
C1384 H1388 0.950 . S
C1384 C1393 1.390 . S
C1385 C1384 1.387 . S
C1385 C1387 1.387 . S
H1386 C1393 0.950 . S
C1387 C1385 1.387 . S
C1387 C1389 1.390 . S
C1387 H1391 0.950 . S
H1388 C1384 0.950 . S
C1389 C1387 1.390 . S
C1389 C1390 1.387 . S
C1389 H1392 0.950 . S
C1390 C1389 1.387 . S
C1390 C1393 1.387 . S
H1391 C1387 0.950 . S
H1392 C1389 0.950 . S
C1393 C1384 1.390 . S
C1393 H1386 0.950 . S
C1393 C1390 1.387 . S
C1394 C1395 1.387 . S
C1394 H1398 0.950 . S
C1394 C1403 1.390 . S
C1395 C1394 1.387 . S
C1395 C1397 1.387 . S
H1396 C1403 0.950 . S
C1397 C1395 1.387 . S
C1397 C1399 1.390 . S
C1397 H1401 0.950 . S
H1398 C1394 0.950 . S
C1399 C1397 1.390 . S
C1399 C1400 1.387 . S
C1399 H1402 0.950 . S
C1400 C1399 1.387 . S
C1400 C1403 1.387 . S
H1401 C1397 0.950 . S
H1402 C1399 0.950 . S
C1403 C1394 1.390 . S
C1403 H1396 0.950 . S
C1403 C1400 1.387 . S
C1404 C1405 1.387 . S
C1404 H1408 0.950 . S
C1404 C1413 1.390 . S
C1405 C1404 1.387 . S
C1405 C1407 1.387 . S
H1406 C1413 0.950 . S
C1407 C1405 1.387 . S
C1407 C1409 1.390 . S
C1407 H1411 0.950 . S
H1408 C1404 0.950 . S
C1409 C1407 1.390 . S
C1409 C1410 1.387 . S
C1409 H1412 0.950 . S
C1410 C1409 1.387 . S
C1410 C1413 1.387 . S
H1411 C1407 0.950 . S
H1412 C1409 0.950 . S
C1413 C1404 1.390 . S
C1413 H1406 0.950 . S
C1413 C1410 1.387 . S
C1414 C1415 1.387 . S
C1414 H1418 0.950 . S
C1414 C1423 1.390 . S
C1415 C1414 1.387 . S
C1415 C1417 1.387 . S
H1416 C1423 0.950 . S
C1417 C1415 1.387 . S
C1417 C1419 1.390 . S
C1417 H1421 0.950 . S
H1418 C1414 0.950 . S
C1419 C1417 1.390 . S
C1419 C1420 1.387 . S
C1419 H1422 0.950 . S
C1420 C1419 1.387 . S
C1420 C1423 1.387 . S
H1421 C1417 0.950 . S
H1422 C1419 0.950 . S
C1423 C1414 1.390 . S
C1423 H1416 0.950 . S
C1423 C1420 1.387 . S
C1424 C1425 1.387 . S
C1424 H1428 0.950 . S
C1424 C1433 1.390 1_565 S
C1425 C1424 1.387 . S
C1425 C1427 1.387 . S
H1426 C1433 0.950 . S
C1427 C1425 1.387 . S
C1427 C1429 1.390 1_565 S
C1427 H1431 0.950 . S
H1428 C1424 0.950 . S
C1429 C1427 1.390 1_545 S
C1429 C1430 1.387 . S
C1429 H1432 0.950 . S
C1430 C1429 1.387 . S
C1430 C1433 1.387 . S
H1431 C1427 0.950 . S
H1432 C1429 0.950 . S
C1433 C1424 1.390 1_545 S
C1433 H1426 0.950 . S
C1433 C1430 1.387 . S
C1434 C1435 1.387 . S
C1434 H1438 0.950 . S
C1434 C1443 1.390 1_545 S
C1435 C1434 1.387 . S
C1435 C1437 1.387 . S
H1436 C1443 0.950 . S
C1437 C1435 1.387 . S
C1437 C1439 1.390 1_545 S
C1437 H1441 0.950 . S
H1438 C1434 0.950 . S
C1439 C1437 1.390 1_565 S
C1439 C1440 1.387 . S
C1439 H1442 0.950 . S
C1440 C1439 1.387 . S
C1440 C1443 1.387 . S
H1441 C1437 0.950 . S
H1442 C1439 0.950 . S
C1443 C1434 1.390 1_565 S
C1443 H1436 0.950 . S
C1443 C1440 1.387 . S
C1444 C1445 1.387 . S
C1444 H1448 0.950 . S
C1444 C1453 1.390 1_545 S
C1445 C1444 1.387 . S
C1445 C1447 1.387 . S
H1446 C1453 0.950 . S
C1447 C1445 1.387 . S
C1447 C1449 1.390 1_545 S
C1447 H1451 0.950 . S
H1448 C1444 0.950 . S
C1449 C1447 1.390 1_565 S
C1449 C1450 1.387 . S
C1449 H1452 0.950 . S
C1450 C1449 1.387 . S
C1450 C1453 1.387 . S
H1451 C1447 0.950 . S
H1452 C1449 0.950 . S
C1453 C1444 1.390 1_565 S
C1453 H1446 0.950 . S
C1453 C1450 1.387 . S
C1454 C1455 1.387 . S
C1454 H1458 0.950 . S
C1454 C1463 1.390 1_545 S
C1455 C1454 1.387 . S
C1455 C1457 1.387 . S
H1456 C1463 0.950 . S
C1457 C1455 1.387 . S
C1457 C1459 1.390 1_545 S
C1457 H1461 0.950 . S
H1458 C1454 0.950 . S
C1459 C1457 1.390 1_565 S
C1459 C1460 1.387 . S
C1459 H1462 0.950 . S
C1460 C1459 1.387 . S
C1460 C1463 1.387 . S
H1461 C1457 0.950 . S
H1462 C1459 0.950 . S
C1463 C1454 1.390 1_565 S
C1463 H1456 0.950 . S
C1463 C1460 1.387 . S
C1464 C1465 1.387 . S
C1464 H1468 0.950 . S
C1464 C1473 1.390 . S
C1465 C1464 1.387 . S
C1465 C1467 1.387 . S
H1466 C1473 0.950 . S
C1467 C1465 1.387 . S
C1467 C1469 1.390 . S
C1467 H1471 0.950 . S
H1468 C1464 0.950 . S
C1469 C1467 1.390 . S
C1469 C1470 1.387 . S
C1469 H1472 0.950 . S
C1470 C1469 1.387 . S
C1470 C1473 1.387 . S
H1471 C1467 0.950 . S
H1472 C1469 0.950 . S
C1473 C1464 1.390 . S
C1473 H1466 0.950 . S
C1473 C1470 1.387 . S
C1474 C1475 1.387 . S
C1474 H1478 0.950 . S
C1474 C1483 1.390 . S
C1475 C1474 1.387 . S
C1475 C1477 1.387 . S
H1476 C1483 0.950 . S
C1477 C1475 1.387 . S
C1477 C1479 1.390 . S
C1477 H1481 0.950 . S
H1478 C1474 0.950 . S
C1479 C1477 1.390 . S
C1479 C1480 1.387 . S
C1479 H1482 0.950 . S
C1480 C1479 1.387 . S
C1480 C1483 1.387 . S
H1481 C1477 0.950 . S
H1482 C1479 0.950 . S
C1483 C1474 1.390 . S
C1483 H1476 0.950 . S
C1483 C1480 1.387 . S
C1484 C1485 1.387 . S
C1484 H1488 0.950 . S
C1484 C1493 1.390 . S
C1485 C1484 1.387 . S
C1485 C1487 1.387 . S
H1486 C1493 0.950 . S
C1487 C1485 1.387 . S
C1487 C1489 1.390 . S
C1487 H1491 0.950 . S
H1488 C1484 0.950 . S
C1489 C1487 1.390 . S
C1489 C1490 1.387 . S
C1489 H1492 0.950 . S
C1490 C1489 1.387 . S
C1490 C1493 1.387 . S
H1491 C1487 0.950 . S
H1492 C1489 0.950 . S
C1493 C1484 1.390 . S
C1493 H1486 0.950 . S
C1493 C1490 1.387 . S
C1494 C1495 1.387 . S
C1494 H1498 0.950 . S
C1494 C1503 1.390 . S
C1495 C1494 1.387 . S
C1495 C1497 1.387 . S
H1496 C1503 0.950 . S
C1497 C1495 1.387 . S
C1497 C1499 1.390 . S
C1497 H1501 0.950 . S
H1498 C1494 0.950 . S
C1499 C1497 1.390 . S
C1499 C1500 1.387 . S
C1499 H1502 0.950 . S
C1500 C1499 1.387 . S
C1500 C1503 1.387 . S
H1501 C1497 0.950 . S
H1502 C1499 0.950 . S
C1503 C1494 1.390 . S
C1503 H1496 0.950 . S
C1503 C1500 1.387 . S
C1504 C1505 1.387 . S
C1504 H1508 0.950 . S
C1504 C1513 1.390 1_556 S
C1505 C1504 1.387 . S
C1505 C1507 1.387 . S
H1506 C1513 0.950 . S
C1507 C1505 1.387 . S
C1507 C1509 1.390 1_556 S
C1507 H1511 0.950 . S
H1508 C1504 0.950 . S
C1509 C1507 1.390 1_554 S
C1509 C1510 1.387 . S
C1509 H1512 0.950 . S
C1510 C1509 1.387 . S
C1510 C1513 1.387 . S
H1511 C1507 0.950 . S
H1512 C1509 0.950 . S
C1513 C1504 1.390 1_554 S
C1513 H1506 0.950 . S
C1513 C1510 1.387 . S
C1514 C1515 1.387 . S
C1514 H1518 0.950 . S
C1514 C1523 1.390 1_556 S
C1515 C1514 1.387 . S
C1515 C1517 1.387 . S
H1516 C1523 0.950 . S
C1517 C1515 1.387 . S
C1517 C1519 1.390 1_556 S
C1517 H1521 0.950 . S
H1518 C1514 0.950 . S
C1519 C1517 1.390 1_554 S
C1519 C1520 1.387 . S
C1519 H1522 0.950 . S
C1520 C1519 1.387 . S
C1520 C1523 1.387 . S
H1521 C1517 0.950 . S
H1522 C1519 0.950 . S
C1523 C1514 1.390 1_554 S
C1523 H1516 0.950 . S
C1523 C1520 1.387 . S
C1524 C1525 1.387 . S
C1524 H1528 0.950 . S
C1524 C1533 1.390 . S
C1525 C1524 1.387 . S
C1525 C1527 1.387 . S
H1526 C1533 0.950 . S
C1527 C1525 1.387 . S
C1527 C1529 1.390 . S
C1527 H1531 0.950 . S
H1528 C1524 0.950 . S
C1529 C1527 1.390 . S
C1529 C1530 1.387 . S
C1529 H1532 0.950 . S
C1530 C1529 1.387 . S
C1530 C1533 1.387 . S
H1531 C1527 0.950 . S
H1532 C1529 0.950 . S
C1533 C1524 1.390 . S
C1533 H1526 0.950 . S
C1533 C1530 1.387 . S
C1534 C1535 1.387 . S
C1534 H1538 0.950 . S
C1534 C1543 1.390 . S
C1535 C1534 1.387 . S
C1535 C1537 1.387 . S
H1536 C1543 0.950 . S
C1537 C1535 1.387 . S
C1537 C1539 1.390 . S
C1537 H1541 0.950 . S
H1538 C1534 0.950 . S
C1539 C1537 1.390 . S
C1539 C1540 1.387 . S
C1539 H1542 0.950 . S
C1540 C1539 1.387 . S
C1540 C1543 1.387 . S
H1541 C1537 0.950 . S
H1542 C1539 0.950 . S
C1543 C1534 1.390 . S
C1543 H1536 0.950 . S
C1543 C1540 1.387 . S
C1544 C1545 1.387 . S
C1544 H1548 0.950 . S
C1544 C1553 1.390 1_554 S
C1545 C1544 1.387 . S
C1545 C1547 1.387 . S
H1546 C1553 0.950 . S
C1547 C1545 1.387 . S
C1547 C1549 1.390 1_554 S
C1547 H1551 0.950 . S
H1548 C1544 0.950 . S
C1549 C1547 1.390 1_556 S
C1549 C1550 1.387 . S
C1549 H1552 0.950 . S
C1550 C1549 1.387 . S
C1550 C1553 1.387 . S
H1551 C1547 0.950 . S
H1552 C1549 0.950 . S
C1553 C1544 1.390 1_556 S
C1553 H1546 0.950 . S
C1553 C1550 1.387 . S
C1554 C1555 1.387 . S
C1554 H1558 0.950 . S
C1554 C1563 1.390 1_556 S
C1555 C1554 1.387 . S
C1555 C1557 1.387 . S
H1556 C1563 0.950 . S
C1557 C1555 1.387 . S
C1557 C1559 1.390 1_556 S
C1557 H1561 0.950 . S
H1558 C1554 0.950 . S
C1559 C1557 1.390 1_554 S
C1559 C1560 1.387 . S
C1559 H1562 0.950 . S
C1560 C1559 1.387 . S
C1560 C1563 1.387 . S
H1561 C1557 0.950 . S
H1562 C1559 0.950 . S
C1563 C1554 1.390 1_554 S
C1563 H1556 0.950 . S
C1563 C1560 1.387 . S
C1564 C1565 1.387 . S
C1564 H1568 0.950 . S
C1564 C1573 1.390 . S
C1565 C1564 1.387 . S
C1565 C1567 1.387 . S
H1566 C1573 0.950 . S
C1567 C1565 1.387 . S
C1567 C1569 1.390 . S
C1567 H1571 0.950 . S
H1568 C1564 0.950 . S
C1569 C1567 1.390 . S
C1569 C1570 1.387 . S
C1569 H1572 0.950 . S
C1570 C1569 1.387 . S
C1570 C1573 1.387 . S
H1571 C1567 0.950 . S
H1572 C1569 0.950 . S
C1573 C1564 1.390 . S
C1573 H1566 0.950 . S
C1573 C1570 1.387 . S
C1574 C1575 1.387 . S
C1574 H1578 0.950 . S
C1574 C1583 1.390 . S
C1575 C1574 1.387 . S
C1575 C1577 1.387 . S
H1576 C1583 0.950 . S
C1577 C1575 1.387 . S
C1577 C1579 1.390 . S
C1577 H1581 0.950 . S
H1578 C1574 0.950 . S
C1579 C1577 1.390 . S
C1579 C1580 1.387 . S
C1579 H1582 0.950 . S
C1580 C1579 1.387 . S
C1580 C1583 1.387 . S
H1581 C1577 0.950 . S
H1582 C1579 0.950 . S
C1583 C1574 1.390 . S
C1583 H1576 0.950 . S
C1583 C1580 1.387 . S
C1584 C1585 1.387 . S
C1584 H1588 0.950 . S
C1584 C1593 1.390 1_665 S
C1585 C1584 1.387 . S
C1585 C1587 1.387 . S
H1586 C1593 0.950 . S
C1587 C1585 1.387 . S
C1587 C1589 1.390 1_665 S
C1587 H1591 0.950 . S
H1588 C1584 0.950 . S
C1589 C1587 1.390 1_445 S
C1589 C1590 1.387 . S
C1589 H1592 0.950 . S
C1590 C1589 1.387 . S
C1590 C1593 1.387 . S
H1591 C1587 0.950 . S
H1592 C1589 0.950 . S
C1593 C1584 1.390 1_445 S
C1593 H1586 0.950 . S
C1593 C1590 1.387 . S
C1594 C1595 1.387 . S
C1594 H1598 0.950 . S
C1594 C1603 1.390 1_645 S
C1595 C1594 1.387 . S
C1595 C1597 1.387 . S
H1596 C1603 0.950 . S
C1597 C1595 1.387 . S
C1597 C1599 1.390 1_645 S
C1597 H1601 0.950 . S
H1598 C1594 0.950 . S
C1599 C1597 1.390 1_465 S
C1599 C1600 1.387 . S
C1599 H1602 0.950 . S
C1600 C1599 1.387 . S
C1600 C1603 1.387 . S
H1601 C1597 0.950 . S
H1602 C1599 0.950 . S
C1603 C1594 1.390 1_465 S
C1603 H1596 0.950 . S
C1603 C1600 1.387 . S
C1604 C1605 1.387 . S
C1604 H1608 0.950 . S
C1604 C1613 1.390 1_445 S
C1605 C1604 1.387 . S
C1605 C1607 1.387 . S
H1606 C1613 0.950 . S
C1607 C1605 1.387 . S
C1607 C1609 1.390 1_445 S
C1607 H1611 0.950 . S
H1608 C1604 0.950 . S
C1609 C1607 1.390 1_665 S
C1609 C1610 1.387 . S
C1609 H1612 0.950 . S
C1610 C1609 1.387 . S
C1610 C1613 1.387 . S
H1611 C1607 0.950 . S
H1612 C1609 0.950 . S
C1613 C1604 1.390 1_665 S
C1613 H1606 0.950 . S
C1613 C1610 1.387 . S
C1614 C1615 1.387 . S
C1614 H1618 0.950 . S
C1614 C1623 1.390 1_645 S
C1615 C1614 1.387 . S
C1615 C1617 1.387 . S
H1616 C1623 0.950 . S
C1617 C1615 1.387 . S
C1617 C1619 1.390 1_645 S
C1617 H1621 0.950 . S
H1618 C1614 0.950 . S
C1619 C1617 1.390 1_465 S
C1619 C1620 1.387 . S
C1619 H1622 0.950 . S
C1620 C1619 1.387 . S
C1620 C1623 1.387 . S
H1621 C1617 0.950 . S
H1622 C1619 0.950 . S
C1623 C1614 1.390 1_465 S
C1623 H1616 0.950 . S
C1623 C1620 1.387 . S
C1624 C1625 1.387 . S
C1624 H1628 0.950 . S
C1624 C1633 1.390 . S
C1625 C1624 1.387 . S
C1625 C1627 1.387 . S
H1626 C1633 0.950 . S
C1627 C1625 1.387 . S
C1627 C1629 1.390 . S
C1627 H1631 0.950 . S
H1628 C1624 0.950 . S
C1629 C1627 1.390 . S
C1629 C1630 1.387 . S
C1629 H1632 0.950 . S
C1630 C1629 1.387 . S
C1630 C1633 1.387 . S
H1631 C1627 0.950 . S
H1632 C1629 0.950 . S
C1633 C1624 1.390 . S
C1633 H1626 0.950 . S
C1633 C1630 1.387 . S
C1634 C1635 1.387 . S
C1634 H1638 0.950 . S
C1634 C1643 1.390 . S
C1635 C1634 1.387 . S
C1635 C1637 1.387 . S
H1636 C1643 0.950 . S
C1637 C1635 1.387 . S
C1637 C1639 1.390 . S
C1637 H1641 0.950 . S
H1638 C1634 0.950 . S
C1639 C1637 1.390 . S
C1639 C1640 1.387 . S
C1639 H1642 0.950 . S
C1640 C1639 1.387 . S
C1640 C1643 1.387 . S
H1641 C1637 0.950 . S
H1642 C1639 0.950 . S
C1643 C1634 1.390 . S
C1643 H1636 0.950 . S
C1643 C1640 1.387 . S
C1644 C1645 1.387 . S
C1644 H1648 0.950 . S
C1644 C1653 1.390 . S
C1645 C1644 1.387 . S
C1645 C1647 1.387 . S
H1646 C1653 0.950 . S
C1647 C1645 1.387 . S
C1647 C1649 1.390 . S
C1647 H1651 0.950 . S
H1648 C1644 0.950 . S
C1649 C1647 1.390 . S
C1649 C1650 1.387 . S
C1649 H1652 0.950 . S
C1650 C1649 1.387 . S
C1650 C1653 1.387 . S
H1651 C1647 0.950 . S
H1652 C1649 0.950 . S
C1653 C1644 1.390 . S
C1653 H1646 0.950 . S
C1653 C1650 1.387 . S
C1654 C1655 1.387 . S
C1654 H1658 0.950 . S
C1654 C1663 1.390 . S
C1655 C1654 1.387 . S
C1655 C1657 1.387 . S
H1656 C1663 0.950 . S
C1657 C1655 1.387 . S
C1657 C1659 1.390 . S
C1657 H1661 0.950 . S
H1658 C1654 0.950 . S
C1659 C1657 1.390 . S
C1659 C1660 1.387 . S
C1659 H1662 0.950 . S
C1660 C1659 1.387 . S
C1660 C1663 1.387 . S
H1661 C1657 0.950 . S
H1662 C1659 0.950 . S
C1663 C1654 1.390 . S
C1663 H1656 0.950 . S
C1663 C1660 1.387 . S
C1664 C1665 1.387 . S
C1664 H1668 0.950 . S
C1664 C1673 1.390 . S
C1665 C1664 1.387 . S
C1665 C1667 1.387 . S
H1666 C1673 0.950 . S
C1667 C1665 1.387 . S
C1667 C1669 1.390 . S
C1667 H1671 0.950 . S
H1668 C1664 0.950 . S
C1669 C1667 1.390 . S
C1669 C1670 1.387 . S
C1669 H1672 0.950 . S
C1670 C1669 1.387 . S
C1670 C1673 1.387 . S
H1671 C1667 0.950 . S
H1672 C1669 0.950 . S
C1673 C1664 1.390 . S
C1673 H1666 0.950 . S
C1673 C1670 1.387 . S
C1674 C1675 1.387 . S
C1674 H1678 0.950 . S
C1674 C1683 1.390 . S
C1675 C1674 1.387 . S
C1675 C1677 1.387 . S
H1676 C1683 0.950 . S
C1677 C1675 1.387 . S
C1677 C1679 1.390 . S
C1677 H1681 0.950 . S
H1678 C1674 0.950 . S
C1679 C1677 1.390 . S
C1679 C1680 1.387 . S
C1679 H1682 0.950 . S
C1680 C1679 1.387 . S
C1680 C1683 1.387 . S
H1681 C1677 0.950 . S
H1682 C1679 0.950 . S
C1683 C1674 1.390 . S
C1683 H1676 0.950 . S
C1683 C1680 1.387 . S
C1684 C1685 1.387 . S
C1684 H1688 0.950 . S
C1684 C1693 1.390 . S
C1685 C1684 1.387 . S
C1685 C1687 1.387 . S
H1686 C1693 0.950 . S
C1687 C1685 1.387 . S
C1687 C1689 1.390 . S
C1687 H1691 0.950 . S
H1688 C1684 0.950 . S
C1689 C1687 1.390 . S
C1689 C1690 1.387 . S
C1689 H1692 0.950 . S
C1690 C1689 1.387 . S
C1690 C1693 1.387 . S
H1691 C1687 0.950 . S
H1692 C1689 0.950 . S
C1693 C1684 1.390 . S
C1693 H1686 0.950 . S
C1693 C1690 1.387 . S
C1694 C1695 1.387 . S
C1694 H1698 0.950 . S
C1694 C1703 1.390 . S
C1695 C1694 1.387 . S
C1695 C1697 1.387 . S
H1696 C1703 0.950 . S
C1697 C1695 1.387 . S
C1697 C1699 1.390 . S
C1697 H1701 0.950 . S
H1698 C1694 0.950 . S
C1699 C1697 1.390 . S
C1699 C1700 1.387 . S
C1699 H1702 0.950 . S
C1700 C1699 1.387 . S
C1700 C1703 1.387 . S
H1701 C1697 0.950 . S
H1702 C1699 0.950 . S
C1703 C1694 1.390 . S
C1703 H1696 0.950 . S
C1703 C1700 1.387 . S
C1704 C1705 1.387 . S
C1704 H1708 0.950 . S
C1704 C1713 1.390 . S
C1705 C1704 1.387 . S
C1705 C1707 1.387 . S
H1706 C1713 0.950 . S
C1707 C1705 1.387 . S
C1707 C1709 1.390 . S
C1707 H1711 0.950 . S
H1708 C1704 0.950 . S
C1709 C1707 1.390 . S
C1709 C1710 1.387 . S
C1709 H1712 0.950 . S
C1710 C1709 1.387 . S
C1710 C1713 1.387 . S
H1711 C1707 0.950 . S
H1712 C1709 0.950 . S
C1713 C1704 1.390 . S
C1713 H1706 0.950 . S
C1713 C1710 1.387 . S
C1714 C1715 1.387 . S
C1714 H1718 0.950 . S
C1714 C1723 1.390 . S
C1715 C1714 1.387 . S
C1715 C1717 1.387 . S
H1716 C1723 0.950 . S
C1717 C1715 1.387 . S
C1717 C1719 1.390 . S
C1717 H1721 0.950 . S
H1718 C1714 0.950 . S
C1719 C1717 1.390 . S
C1719 C1720 1.387 . S
C1719 H1722 0.950 . S
C1720 C1719 1.387 . S
C1720 C1723 1.387 . S
H1721 C1717 0.950 . S
H1722 C1719 0.950 . S
C1723 C1714 1.390 . S
C1723 H1716 0.950 . S
C1723 C1720 1.387 . S
C1724 C1725 1.387 . S
C1724 H1728 0.950 . S
C1724 C1733 1.390 . S
C1725 C1724 1.387 . S
C1725 C1727 1.387 . S
H1726 C1733 0.950 . S
C1727 C1725 1.387 . S
C1727 C1729 1.390 . S
C1727 H1731 0.950 . S
H1728 C1724 0.950 . S
C1729 C1727 1.390 . S
C1729 C1730 1.387 . S
C1729 H1732 0.950 . S
C1730 C1729 1.387 . S
C1730 C1733 1.387 . S
H1731 C1727 0.950 . S
H1732 C1729 0.950 . S
C1733 C1724 1.390 . S
C1733 H1726 0.950 . S
C1733 C1730 1.387 . S
C1734 C1735 1.387 . S
C1734 H1738 0.950 . S
C1734 C1743 1.390 . S
C1735 C1734 1.387 . S
C1735 C1737 1.387 . S
H1736 C1743 0.950 . S
C1737 C1735 1.387 . S
C1737 C1739 1.390 . S
C1737 H1741 0.950 . S
H1738 C1734 0.950 . S
C1739 C1737 1.390 . S
C1739 C1740 1.387 . S
C1739 H1742 0.950 . S
C1740 C1739 1.387 . S
C1740 C1743 1.387 . S
H1741 C1737 0.950 . S
H1742 C1739 0.950 . S
C1743 C1734 1.390 . S
C1743 H1736 0.950 . S
C1743 C1740 1.387 . S
C1744 C1745 1.387 . S
C1744 H1748 0.950 . S
C1744 C1753 1.390 . S
C1745 C1744 1.387 . S
C1745 C1747 1.387 . S
H1746 C1753 0.950 . S
C1747 C1745 1.387 . S
C1747 C1749 1.390 . S
C1747 H1751 0.950 . S
H1748 C1744 0.950 . S
C1749 C1747 1.390 . S
C1749 C1750 1.387 . S
C1749 H1752 0.950 . S
C1750 C1749 1.387 . S
C1750 C1753 1.387 . S
H1751 C1747 0.950 . S
H1752 C1749 0.950 . S
C1753 C1744 1.390 . S
C1753 H1746 0.950 . S
C1753 C1750 1.387 . S
C1754 C1755 1.387 . S
C1754 H1758 0.950 . S
C1754 C1763 1.390 . S
C1755 C1754 1.387 . S
C1755 C1757 1.387 . S
H1756 C1763 0.950 . S
C1757 C1755 1.387 . S
C1757 C1759 1.390 . S
C1757 H1761 0.950 . S
H1758 C1754 0.950 . S
C1759 C1757 1.390 . S
C1759 C1760 1.387 . S
C1759 H1762 0.950 . S
C1760 C1759 1.387 . S
C1760 C1763 1.387 . S
H1761 C1757 0.950 . S
H1762 C1759 0.950 . S
C1763 C1754 1.390 . S
C1763 H1756 0.950 . S
C1763 C1760 1.387 . S
C1764 C1765 1.387 . S
C1764 H1768 0.950 . S
C1764 C1773 1.390 . S
C1765 C1764 1.387 . S
C1765 C1767 1.387 . S
H1766 C1773 0.950 . S
C1767 C1765 1.387 . S
C1767 C1769 1.390 . S
C1767 H1771 0.950 . S
H1768 C1764 0.950 . S
C1769 C1767 1.390 . S
C1769 C1770 1.387 . S
C1769 H1772 0.950 . S
C1770 C1769 1.387 . S
C1770 C1773 1.387 . S
H1771 C1767 0.950 . S
H1772 C1769 0.950 . S
C1773 C1764 1.390 . S
C1773 H1766 0.950 . S
C1773 C1770 1.387 . S
C1774 C1775 1.387 . S
C1774 H1778 0.950 . S
C1774 C1783 1.390 . S
C1775 C1774 1.387 . S
C1775 C1777 1.387 . S
H1776 C1783 0.950 . S
C1777 C1775 1.387 . S
C1777 C1779 1.390 . S
C1777 H1781 0.950 . S
H1778 C1774 0.950 . S
C1779 C1777 1.390 . S
C1779 C1780 1.387 . S
C1779 H1782 0.950 . S
C1780 C1779 1.387 . S
C1780 C1783 1.387 . S
H1781 C1777 0.950 . S
H1782 C1779 0.950 . S
C1783 C1774 1.390 . S
C1783 H1776 0.950 . S
C1783 C1780 1.387 . S
C1784 C1785 1.387 . S
C1784 H1788 0.950 . S
C1784 C1793 1.390 . S
C1785 C1784 1.387 . S
C1785 C1787 1.387 . S
H1786 C1793 0.950 . S
C1787 C1785 1.387 . S
C1787 C1789 1.390 . S
C1787 H1791 0.950 . S
H1788 C1784 0.950 . S
C1789 C1787 1.390 . S
C1789 C1790 1.387 . S
C1789 H1792 0.950 . S
C1790 C1789 1.387 . S
C1790 C1793 1.387 . S
H1791 C1787 0.950 . S
H1792 C1789 0.950 . S
C1793 C1784 1.390 . S
C1793 H1786 0.950 . S
C1793 C1790 1.387 . S
C1794 C1795 1.387 . S
C1794 H1798 0.950 . S
C1794 C1803 1.390 . S
C1795 C1794 1.387 . S
C1795 C1797 1.387 . S
H1796 C1803 0.950 . S
C1797 C1795 1.387 . S
C1797 C1799 1.390 . S
C1797 H1801 0.950 . S
H1798 C1794 0.950 . S
C1799 C1797 1.390 . S
C1799 C1800 1.387 . S
C1799 H1802 0.950 . S
C1800 C1799 1.387 . S
C1800 C1803 1.387 . S
H1801 C1797 0.950 . S
H1802 C1799 0.950 . S
C1803 C1794 1.390 . S
C1803 H1796 0.950 . S
C1803 C1800 1.387 . S
C1804 C1805 1.387 . S
C1804 H1808 0.950 . S
C1804 C1813 1.390 . S
C1805 C1804 1.387 . S
C1805 C1807 1.387 . S
H1806 C1813 0.950 . S
C1807 C1805 1.387 . S
C1807 C1809 1.390 . S
C1807 H1811 0.950 . S
H1808 C1804 0.950 . S
C1809 C1807 1.390 . S
C1809 C1810 1.387 . S
C1809 H1812 0.950 . S
C1810 C1809 1.387 . S
C1810 C1813 1.387 . S
H1811 C1807 0.950 . S
H1812 C1809 0.950 . S
C1813 C1804 1.390 . S
C1813 H1806 0.950 . S
C1813 C1810 1.387 . S
C1814 C1815 1.387 . S
C1814 H1818 0.950 . S
C1814 C1823 1.390 . S
C1815 C1814 1.387 . S
C1815 C1817 1.387 . S
H1816 C1823 0.950 . S
C1817 C1815 1.387 . S
C1817 C1819 1.390 . S
C1817 H1821 0.950 . S
H1818 C1814 0.950 . S
C1819 C1817 1.390 . S
C1819 C1820 1.387 . S
C1819 H1822 0.950 . S
C1820 C1819 1.387 . S
C1820 C1823 1.387 . S
H1821 C1817 0.950 . S
H1822 C1819 0.950 . S
C1823 C1814 1.390 . S
C1823 H1816 0.950 . S
C1823 C1820 1.387 . S
C1345 C67 1.509 . S
C1350 C823 1.509 . S
C1355 C151 1.509 . S
C1360 C739 1.509 . S
C1365 C991 1.509 . S
C1370 C235 1.509 . S
C1375 C319 1.508 . S
C1380 C907 1.508 . S
C1385 C1148 1.509 . S
C1390 C392 1.509 . S
C1395 C1064 1.508 . S
C1400 C476 1.508 . S
C1405 C1316 1.509 . S
C1410 C560 1.509 . S
C1415 C644 1.509 . S
C1420 C1232 1.509 . S
C1425 C242 1.704 . S
C1430 C74 1.704 . S
C1435 C326 1.703 . S
C1440 C158 1.703 . S
C1445 C567 1.704 . S
C1450 C399 1.704 . S
C1455 C483 1.703 . S
C1460 C651 1.703 . S
C1465 C914 1.703 . S
C1470 C746 1.703 . S
C1475 C998 1.704 . S
C1480 C830 1.704 . S
C1485 C1071 1.703 . S
C1490 C1239 1.703 . S
C1495 C1155 1.704 . S
C1500 C1323 1.704 . S
C1505 C494 1.676 . S
C1510 C63 1.675 . S
C1515 C410 1.674 . S
C1520 C147 1.677 . S
C1525 C231 1.675 . S
C1530 C662 1.675 . S
C1535 C578 1.675 . S
C1540 C315 1.675 . S
C1545 C735 1.674 . S
C1550 C1166 1.676 . S
C1555 C1082 1.674 . S
C1560 C819 1.677 . S
C1565 C903 1.677 . S
C1570 C1334 1.674 . S
C1575 C1250 1.676 . S
C1580 C987 1.674 . S
C1585 C140 1.503 . S
C1590 C56 1.503 . S
C1595 C308 1.503 . S
C1600 C224 1.503 . S
C1605 C487 1.502 . S
C1610 C403 1.502 . S
C1615 C571 1.503 . S
C1620 C655 1.503 . S
C1625 C812 1.502 . S
C1630 C728 1.502 . S
C1635 C980 1.503 . S
C1640 C896 1.503 . S
C1645 C1075 1.503 . S
C1650 C1159 1.503 . S
C1655 C1243 1.503 . S
C1660 C1327 1.503 . S
C1665 C69 1.306 . S
C1670 C58 1.306 . S
C1675 C153 1.313 . S
C1680 C142 1.313 . S
C1685 C237 1.313 . S
C1690 C226 1.313 . S
C1695 C310 1.312 . S
C1700 C321 1.312 . S
C1705 C394 1.306 . S
C1710 C405 1.306 . S
C1715 C489 1.306 . S
C1720 C478 1.306 . S
C1725 C562 1.306 . S
C1730 C573 1.306 . S
C1735 C646 1.313 . S
C1740 C657 1.313 . S
C1745 C730 1.306 1_545 S
C1750 C741 1.306 . S
C1755 C825 1.306 . S
C1760 C814 1.306 1_565 S
C1765 C898 1.306 1_565 S
C1770 C909 1.306 . S
C1775 C982 1.306 1_545 S
C1780 C993 1.306 . S
C1785 C1066 1.306 . S
C1790 C1077 1.306 1_565 S
C1795 C1150 1.306 . S
C1800 C1161 1.306 1_545 S
C1805 C1245 1.313 1_545 S
C1810 C1234 1.313 . S
C1815 C1318 1.313 . S
C1820 C1329 1.313 1_565 S
