# Generated by pormake.
# Topology dft, (4)-cn, num edge types: 1
# Building blocks:
#     Node 0, Type 0, BuildingBlock: ICAMEG_clean_sbu_1, # of connection points: 4
#     Node 1, Type 0, BuildingBlock: ICAMEG_clean_sbu_1, # of connection points: 4
#     Node 2, Type 0, BuildingBlock: ICAMEG_clean_sbu_1, # of connection points: 4
#     Node 3, Type 0, BuildingBlock: ICAMEG_clean_sbu_1, # of connection points: 4
#     Node 4, Type 0, BuildingBlock: ICAMEG_clean_sbu_1, # of connection points: 4
#     Node 5, Type 0, BuildingBlock: ICAMEG_clean_sbu_1, # of connection points: 4
#     Node 6, Type 0, BuildingBlock: ICAMEG_clean_sbu_1, # of connection points: 4
#     Node 7, Type 0, BuildingBlock: ICAMEG_clean_sbu_1, # of connection points: 4
#     Edge 8, Type (0, 0), BuildingBlock: XIVTED_clean_linker_0, # of connection points: 2
#     Edge 9, Type (0, 0), BuildingBlock: XIVTED_clean_linker_0, # of connection points: 2
#     Edge 10, Type (0, 0), BuildingBlock: XIVTED_clean_linker_0, # of connection points: 2
#     Edge 11, Type (0, 0), BuildingBlock: XIVTED_clean_linker_0, # of connection points: 2
#     Edge 12, Type (0, 0), BuildingBlock: XIVTED_clean_linker_0, # of connection points: 2
#     Edge 13, Type (0, 0), BuildingBlock: XIVTED_clean_linker_0, # of connection points: 2
#     Edge 14, Type (0, 0), BuildingBlock: XIVTED_clean_linker_0, # of connection points: 2
#     Edge 15, Type (0, 0), BuildingBlock: XIVTED_clean_linker_0, # of connection points: 2
#     Edge 16, Type (0, 0), BuildingBlock: XIVTED_clean_linker_0, # of connection points: 2
#     Edge 17, Type (0, 0), BuildingBlock: XIVTED_clean_linker_0, # of connection points: 2
#     Edge 18, Type (0, 0), BuildingBlock: XIVTED_clean_linker_0, # of connection points: 2
#     Edge 19, Type (0, 0), BuildingBlock: XIVTED_clean_linker_0, # of connection points: 2
#     Edge 20, Type (0, 0), BuildingBlock: XIVTED_clean_linker_0, # of connection points: 2
#     Edge 21, Type (0, 0), BuildingBlock: XIVTED_clean_linker_0, # of connection points: 2
#     Edge 22, Type (0, 0), BuildingBlock: XIVTED_clean_linker_0, # of connection points: 2
#     Edge 23, Type (0, 0), BuildingBlock: XIVTED_clean_linker_0, # of connection points: 2
# Relax obj value: 0.222
# Max RMSD: 0.220
# Mean RMSD: 0.220
data_MOF--net-dft--node1-ICAMEG_clean_sbu_1--edge1-XIVTED_clean_linker_0
_symmetry_space_group_name_H-M    P1
_symmetry_Int_Tables_number       1
_symmetry_cell_setting            triclinic
loop_
_symmetry_equiv_pos_as_xyz
'x, y, z'
_cell_length_a     34.554994
_cell_length_b     34.496831
_cell_length_c     47.564701
_cell_angle_alpha  89.95853
_cell_angle_beta   89.959914
_cell_angle_gamma 90.021558
loop_
_atom_site_label
_atom_site_type_symbol
_atom_site_fract_x
_atom_site_fract_y
_atom_site_fract_z
_atom_type_partial_charge
Co0 Co 0.28211 0.11027 0.16367 0.0
Co1 Co 0.34531 0.05359 0.19972 0.0
O2 O 0.32912 0.07863 0.16464 0.0
C3 C 0.27677 0.0642 0.11044 0.0
O4 O 0.28421 0.032 0.12414 0.0
C5 C 0.42003 0.08786 0.18036 0.0
O6 O 0.40351 0.12209 0.179 0.0
O7 O 0.34729 0.10517 0.21879 0.0
O8 O 0.2901 0.12718 0.20326 0.0
H9 H 0.34266 0.03008 0.30399 0.0
H10 H 0.34391 0.12103 0.1211 0.0
O11 O 0.2736 0.09611 0.12352 0.0
H12 H 0.32591 0.2496 0.16443 0.0
H13 H 0.18598 0.20226 0.12004 0.0
H14 H 0.21735 0.12346 0.20349 0.0
H15 H 0.28618 0.19399 0.17951 0.0
H16 H 0.24555 0.16302 0.12137 0.0
O17 O 0.40069 0.05833 0.18803 0.0
H18 H 0.3219 0.06035 0.25952 0.0
H19 H 0.40555 0.99496 0.21446 0.0
H20 H 0.15781 0.16276 0.20319 0.0
H21 H 0.3841 0.17596 0.10522 0.0
H22 H 0.14176 0.20252 0.16124 0.0
H23 H 0.37528 0.24079 0.12698 0.0
O24 O 0.25114 0.06483 0.17713 0.0
H25 H 0.37041 0.96048 0.12061 0.0
H26 H 0.31068 0.97667 0.21405 0.0
H27 H 0.30621 0.91351 0.19004 0.0
H28 H 0.33632 0.90507 0.14301 0.0
H29 H 0.37383 0.02329 0.14523 0.0
H30 H 0.42746 0.96424 0.25848 0.0
H31 H 0.39582 0.98163 0.30365 0.0
O32 O 0.29032 0.04696 0.21234 0.0
C33 C 0.31918 0.12907 0.21962 0.0
C34 C 0.3566 0.02217 0.28443 0.0
C35 C 0.40423 0.98526 0.2589 0.0
N36 N 0.36226 0.02925 0.23438 0.0
C37 C 0.3449 0.03916 0.25917 0.0
C38 C 0.39175 0.00284 0.23404 0.0
C39 C 0.38645 0.99502 0.28423 0.0
C40 C 0.33975 0.14921 0.13056 0.0
N41 N 0.31268 0.15428 0.15117 0.0
C42 C 0.36265 0.18018 0.12152 0.0
C43 C 0.3577 0.21654 0.13375 0.0
C44 C 0.33002 0.22151 0.15475 0.0
C45 C 0.30765 0.18988 0.16325 0.0
C46 C 0.19265 0.18504 0.13844 0.0
C47 C 0.21068 0.14077 0.18518 0.0
C48 C 0.22626 0.16259 0.13927 0.0
N49 N 0.23504 0.14099 0.16252 0.0
C50 C 0.17686 0.16291 0.18512 0.0
C51 C 0.16786 0.1852 0.16157 0.0
C52 C 0.25737 0.04691 0.20023 0.0
C53 C 0.35726 0.96376 0.14113 0.0
C54 C 0.3237 0.97331 0.19353 0.0
C55 C 0.32116 0.93743 0.18007 0.0
C56 C 0.33808 0.93271 0.15369 0.0
N57 N 0.34262 0.00363 0.18108 0.0
C58 C 0.35923 0.99922 0.15521 0.0
Co59 Co 0.03547 0.2815 0.65074 0.0
Co60 Co 0.05429 0.33981 0.7068 0.0
O61 O 0.05307 0.33149 0.66578 0.0
C62 C 0.09167 0.3124 0.60717 0.0
O63 O 0.09975 0.34334 0.6221 0.0
C64 C 0.02888 0.41622 0.68204 0.0
O65 O 0.01026 0.39822 0.66191 0.0
O66 O 0.99746 0.3294 0.70853 0.0
O67 O 0.99806 0.27535 0.68252 0.0
H68 H 0.02032 0.30827 0.80699 0.0
H69 H 0.02963 0.35488 0.61649 0.0
O70 O 0.07112 0.28521 0.61747 0.0
H71 H 0.89971 0.29669 0.61359 0.0
H72 H 0.99789 0.18558 0.57555 0.0
H73 H 0.01891 0.20534 0.67706 0.0
H74 H 0.95208 0.26508 0.63992 0.0
H75 H 0.01738 0.24957 0.59368 0.0
O76 O 0.04531 0.39699 0.70152 0.0
H77 H 0.02113 0.298 0.75572 0.0
H78 H 0.08764 0.40047 0.74456 0.0
H79 H 0.99898 0.14099 0.65983 0.0
H80 H 0.9786 0.38674 0.5893 0.0
H81 H 0.98836 0.13077 0.60873 0.0
H82 H 0.91281 0.35787 0.58773 0.0
O83 O 0.07684 0.25511 0.67287 0.0
H84 H 0.17497 0.39923 0.66632 0.0
H85 H 0.12295 0.31203 0.73932 0.0
H86 H 0.19333 0.32279 0.73631 0.0
H87 H 0.21979 0.36677 0.69966 0.0
H88 H 0.1048 0.38735 0.6699 0.0
H89 H 0.08729 0.41198 0.79571 0.0
H90 H 0.05357 0.36561 0.82732 0.0
O91 O 0.06506 0.28337 0.71423 0.0
C92 C 0.98157 0.29811 0.69994 0.0
C93 C 0.03517 0.32865 0.79344 0.0
C94 C 0.07271 0.38688 0.7871 0.0
N95 N 0.05452 0.3485 0.74713 0.0
C96 C 0.03578 0.32296 0.76438 0.0
C97 C 0.0727 0.38026 0.75814 0.0
C98 C 0.05381 0.36084 0.80483 0.0
C99 C 0.00171 0.34129 0.61549 0.0
N100 N 0.99457 0.30738 0.62944 0.0
C101 C 0.97259 0.35987 0.60023 0.0
C102 C 0.93567 0.34375 0.59943 0.0
C103 C 0.92831 0.30949 0.61395 0.0
C104 C 0.95817 0.29174 0.62895 0.0
C105 C 0.00242 0.18967 0.59787 0.0
C106 C 0.01418 0.20121 0.65481 0.0
C107 C 0.01365 0.22582 0.60826 0.0
N108 N 0.01919 0.23129 0.63645 0.0
C109 C 0.00297 0.16467 0.64517 0.0
C110 C 0.99705 0.15894 0.6165 0.0
C111 C 0.08017 0.25634 0.69958 0.0
C112 C 0.16379 0.38002 0.6824 0.0
C113 C 0.1342 0.331 0.72318 0.0
C114 C 0.1741 0.33709 0.72165 0.0
C115 C 0.18893 0.36178 0.70109 0.0
N116 N 0.1097 0.34903 0.70477 0.0
C117 C 0.12405 0.37324 0.68456 0.0
Co118 Co 0.84307 0.0412 0.15042 0.0
Co119 Co 0.78096 0.07722 0.19997 0.0
O120 O 0.79472 0.06723 0.16057 0.0
C121 C 0.82522 0.09416 0.10175 0.0
O122 O 0.79436 0.1082 0.11416 0.0
C123 C 0.70617 0.0462 0.17754 0.0
O124 O 0.72352 0.01413 0.16967 0.0
O125 O 0.78421 0.02063 0.20834 0.0
O126 O 0.83831 0.00648 0.18403 0.0
H127 H 0.79381 0.06436 0.30487 0.0
H128 H 0.76992 0.04129 0.11575 0.0
O129 O 0.84917 0.07333 0.11539 0.0
H130 H 0.81591 0.90637 0.11433 0.0
H131 H 0.94392 0.98461 0.08544 0.0
H132 H 0.91072 0.01571 0.18371 0.0
H133 H 0.8518 0.95603 0.14049 0.0
H134 H 0.88106 0.01424 0.09704 0.0
O135 O 0.72501 0.07287 0.18988 0.0
H136 H 0.81202 0.05293 0.25546 0.0
H137 H 0.71806 0.12244 0.2278 0.0
H138 H 0.97364 0.98539 0.17306 0.0
H139 H 0.73378 0.99278 0.08905 0.0
H140 H 0.99062 0.9697 0.12361 0.0
H141 H 0.75653 0.92455 0.08809 0.0
O142 O 0.87263 0.08089 0.17237 0.0
H143 H 0.74104 0.19442 0.14419 0.0
H144 H 0.81305 0.14834 0.22719 0.0
H145 H 0.81132 0.21823 0.21655 0.0
H146 H 0.77505 0.24172 0.17481 0.0
H147 H 0.74382 0.12471 0.15546 0.0
H148 H 0.69869 0.13447 0.2769 0.0
H149 H 0.73674 0.10542 0.31587 0.0
O150 O 0.83641 0.08298 0.21129 0.0
C151 C 0.81194 0.99782 0.20183 0.0
C152 C 0.77695 0.07713 0.28808 0.0
C153 C 0.72356 0.11645 0.27238 0.0
N154 N 0.76606 0.08678 0.23872 0.0
C155 C 0.78711 0.07071 0.26005 0.0
C156 C 0.73458 0.10938 0.2446 0.0
C157 C 0.74493 0.10017 0.29424 0.0
C158 C 0.78095 0.01219 0.11512 0.0
N159 N 0.81411 0.00231 0.1291 0.0
C160 C 0.75991 0.98456 0.10008 0.0
C161 C 0.7726 0.94628 0.09961 0.0
C162 C 0.8059 0.9361 0.11429 0.0
C163 C 0.8262 0.96454 0.12907 0.0
C164 C 0.93686 0.99132 0.10707 0.0
C165 C 0.91774 0.00868 0.16216 0.0
C166 C 0.90138 0.00837 0.11376 0.0
N167 N 0.89206 0.01658 0.14108 0.0
C168 C 0.95349 0.99165 0.15625 0.0
C169 C 0.96302 0.98291 0.1285 0.0
C170 C 0.86773 0.09003 0.19812 0.0
C171 C 0.75699 0.18454 0.16241 0.0
C172 C 0.7975 0.15823 0.20883 0.0
C173 C 0.79648 0.1979 0.20299 0.0
C174 C 0.77609 0.21106 0.17959 0.0
N175 N 0.77881 0.13236 0.19182 0.0
C176 C 0.75866 0.14509 0.1689 0.0
Co177 Co 0.08611 0.8371 0.64303 0.0
Co178 Co 0.07384 0.77693 0.69907 0.0
O179 O 0.07311 0.78567 0.65807 0.0
C180 C 0.03288 0.80154 0.59952 0.0
O181 O 0.02797 0.76959 0.6141 0.0
C182 C 0.09555 0.69995 0.67231 0.0
O183 O 0.10168 0.7166 0.64796 0.0
O184 O 0.12978 0.79191 0.69972 0.0
O185 O 0.12341 0.84625 0.67442 0.0
H186 H 0.10852 0.8112 0.7986 0.0
H187 H 0.0981 0.76501 0.60796 0.0
O188 O 0.05018 0.83059 0.61023 0.0
H189 H 0.22211 0.83474 0.60458 0.0
H190 H 0.11358 0.93651 0.5678 0.0
H191 H 0.09644 0.91425 0.66946 0.0
H192 H 0.16736 0.86125 0.63128 0.0
H193 H 0.1002 0.87092 0.58591 0.0
O194 O 0.08751 0.72035 0.6939 0.0
H195 H 0.10511 0.82132 0.74736 0.0
H196 H 0.04694 0.71367 0.73747 0.0
H197 H 0.11026 0.98023 0.65225 0.0
H198 H 0.15154 0.738 0.58055 0.0
H199 H 0.11891 0.99172 0.60107 0.0
H200 H 0.21442 0.77274 0.57869 0.0
O201 O 0.0431 0.85952 0.66569 0.0
H202 H 0.95538 0.71092 0.66011 0.0
H203 H 0.00503 0.79807 0.73382 0.0
H204 H 0.93553 0.78241 0.73251 0.0
H205 H 0.91025 0.73838 0.69553 0.0
H206 H 0.0245 0.72769 0.66197 0.0
H207 H 0.05003 0.70226 0.78858 0.0
H208 H 0.08084 0.75131 0.81954 0.0
O209 O 0.05865 0.83231 0.70676 0.0
C210 C 0.14264 0.82458 0.69107 0.0
C211 C 0.09495 0.78964 0.78533 0.0
C212 C 0.06218 0.72848 0.77971 0.0
N213 N 0.07572 0.76822 0.7394 0.0
C214 C 0.09288 0.79524 0.75629 0.0
C215 C 0.06065 0.73505 0.75075 0.0
C216 C 0.07945 0.75602 0.79707 0.0
C217 C 0.12472 0.78089 0.60712 0.0
N218 N 0.12885 0.81517 0.62118 0.0
C219 C 0.15524 0.76517 0.5916 0.0
C220 C 0.19051 0.7846 0.59061 0.0
C221 C 0.19484 0.81932 0.60514 0.0
C222 C 0.16363 0.83414 0.62039 0.0
C223 C 0.10987 0.93188 0.59015 0.0
C224 C 0.10032 0.91894 0.64717 0.0
C225 C 0.10209 0.89482 0.60053 0.0
N226 N 0.09762 0.88866 0.62877 0.0
C227 C 0.10808 0.9564 0.63754 0.0
C228 C 0.11289 0.96284 0.60883 0.0
C229 C 0.04072 0.85794 0.69243 0.0
C230 C 0.96607 0.72998 0.67642 0.0
C231 C 0.99436 0.77894 0.7176 0.0
C232 C 0.95492 0.77013 0.71701 0.0
C233 C 0.94075 0.74543 0.69626 0.0
N234 N 0.01913 0.76347 0.69817 0.0
C235 C 0.00533 0.73945 0.67767 0.0
Co236 Co 0.27591 0.01646 0.84821 0.0
Co237 Co 0.34124 0.06819 0.80905 0.0
O238 O 0.3238 0.04675 0.8452 0.0
C239 C 0.27433 0.06834 0.89919 0.0
O240 O 0.28937 0.0974 0.88512 0.0
C241 C 0.41642 0.03224 0.82714 0.0
O242 O 0.40051 0.99766 0.82716 0.0
O243 O 0.34063 0.0153 0.7918 0.0
O244 O 0.28527 0.99269 0.81055 0.0
H245 H 0.33921 0.08603 0.70413 0.0
H246 H 0.33788 0.01223 0.89117 0.0
O247 O 0.26586 0.03686 0.8868 0.0
H248 H 0.31425 0.87689 0.86272 0.0
H249 H 0.17524 0.93464 0.8972 0.0
H250 H 0.21215 0.99919 0.80863 0.0
H251 H 0.27641 0.93025 0.84188 0.0
H252 H 0.23656 0.97081 0.89368 0.0
O253 O 0.39644 0.06204 0.82109 0.0
H254 H 0.31659 0.06022 0.74959 0.0
H255 H 0.40506 0.12193 0.79228 0.0
H256 H 0.1508 0.96284 0.81111 0.0
H257 H 0.3762 0.9598 0.91271 0.0
H258 H 0.13195 0.93029 0.85566 0.0
H259 H 0.36456 0.89153 0.89846 0.0
O260 O 0.24605 0.06014 0.83077 0.0
H261 H 0.3725 0.16677 0.88344 0.0
H262 H 0.30938 0.14509 0.79184 0.0
H263 H 0.30838 0.21034 0.8129 0.0
H264 H 0.34024 0.22156 0.85898 0.0
H265 H 0.3723 0.10179 0.86183 0.0
H266 H 0.42884 0.14828 0.7473 0.0
H267 H 0.3958 0.13043 0.70278 0.0
O268 O 0.2868 0.07611 0.79599 0.0
C269 C 0.31336 0.99035 0.79323 0.0
C270 C 0.35391 0.09399 0.72337 0.0
C271 C 0.40421 0.12888 0.74759 0.0
N272 N 0.35951 0.0893 0.77357 0.0
C273 C 0.34121 0.07939 0.74917 0.0
C274 C 0.39069 0.11372 0.77301 0.0
C275 C 0.38565 0.11888 0.72263 0.0
C276 C 0.33263 0.98262 0.88482 0.0
N277 N 0.30513 0.97436 0.86508 0.0
C278 C 0.35443 0.95304 0.89711 0.0
C279 C 0.34789 0.91475 0.88911 0.0
C280 C 0.3197 0.90652 0.86905 0.0
C281 C 0.29849 0.93687 0.85721 0.0
C282 C 0.18311 0.94874 0.87768 0.0
C283 C 0.20426 0.98497 0.82806 0.0
C284 C 0.21771 0.96949 0.87562 0.0
N285 N 0.22801 0.98715 0.85097 0.0
C286 C 0.16943 0.96449 0.82935 0.0
C287 C 0.15886 0.94627 0.85436 0.0
C288 C 0.25339 0.07678 0.80735 0.0
C289 C 0.35859 0.16226 0.86332 0.0
C290 C 0.32302 0.14961 0.81201 0.0
C291 C 0.32251 0.18669 0.82377 0.0
C292 C 0.34043 0.19298 0.84961 0.0
N293 N 0.34088 0.11961 0.8256 0.0
C294 C 0.35852 0.12557 0.85093 0.0
Co295 Co 0.09905 0.28561 0.34926 0.0
Co296 Co 0.07339 0.35049 0.29892 0.0
O297 O 0.08064 0.33763 0.3389 0.0
C298 C 0.05203 0.31362 0.39908 0.0
O299 O 0.04143 0.34528 0.38587 0.0
C300 C 0.09373 0.42659 0.32764 0.0
O301 O 0.09976 0.40938 0.35183 0.0
O302 O 0.12938 0.33951 0.29238 0.0
O303 O 0.12925 0.28158 0.31354 0.0
H304 H 0.09099 0.32776 0.19534 0.0
H305 H 0.11459 0.35365 0.38719 0.0
O306 O 0.07075 0.28717 0.38623 0.0
H307 H 0.24174 0.29396 0.36999 0.0
H308 H 0.14791 0.18132 0.41453 0.0
H309 H 0.10709 0.21184 0.3177 0.0
H310 H 0.18307 0.26641 0.34863 0.0
H311 H 0.1273 0.24746 0.40192 0.0
O312 O 0.08554 0.40686 0.30576 0.0
H313 H 0.09748 0.31262 0.24577 0.0
H314 H 0.03715 0.41581 0.26701 0.0
H315 H 0.12791 0.14544 0.32936 0.0
H316 H 0.17228 0.38171 0.4092 0.0
H317 H 0.14849 0.12979 0.37809 0.0
H318 H 0.23664 0.35194 0.40069 0.0
O319 O 0.05277 0.26301 0.33026 0.0
H320 H 0.9588 0.40475 0.35159 0.0
H321 H 1.00053 0.32834 0.26949 0.0
H322 H 0.93105 0.33934 0.27758 0.0
H323 H 0.9097 0.37797 0.31881 0.0
H324 H 0.02781 0.39269 0.34292 0.0
H325 H 0.03037 0.43226 0.21681 0.0
H326 H 0.05723 0.38798 0.18056 0.0
O327 O 0.0598 0.29516 0.28976 0.0
C328 C 0.14499 0.30684 0.29769 0.0
C329 C 0.07909 0.34725 0.21093 0.0
C330 C 0.04512 0.40592 0.22298 0.0
N331 N 0.06758 0.36317 0.25935 0.0
C332 C 0.08262 0.33879 0.23953 0.0
C333 C 0.04918 0.39651 0.25139 0.0
C334 C 0.06018 0.38106 0.20265 0.0
C335 C 0.14206 0.33997 0.38361 0.0
N336 N 0.1449 0.30781 0.367 0.0
C337 C 0.17487 0.35624 0.39605 0.0
C338 C 0.21097 0.33958 0.39123 0.0
C339 C 0.21384 0.30706 0.37404 0.0
C340 C 0.18039 0.29158 0.362 0.0
C341 C 0.13898 0.18777 0.39323 0.0
C342 C 0.1161 0.20535 0.33894 0.0
C343 C 0.12709 0.22515 0.38598 0.0
N344 N 0.11598 0.2336 0.35907 0.0
C345 C 0.12782 0.16765 0.34542 0.0
C346 C 0.13933 0.15888 0.37277 0.0
C347 C 0.04593 0.26701 0.30403 0.0
C348 C 0.96773 0.38807 0.33344 0.0
C349 C 0.99163 0.34518 0.28752 0.0
C350 C 0.95215 0.35133 0.29196 0.0
C351 C 0.9402 0.373 0.31508 0.0
N352 N 0.01859 0.36033 0.30549 0.0
C353 C 0.00696 0.38131 0.32832 0.0
Co354 Co 0.83926 0.0817 0.84952 0.0
Co355 Co 0.7776 0.04801 0.79889 0.0
O356 O 0.79064 0.05676 0.8386 0.0
C357 C 0.81973 0.02799 0.89754 0.0
O358 O 0.78847 0.0151 0.88501 0.0
C359 C 0.70247 0.07849 0.82169 0.0
O360 O 0.71985 0.10991 0.83082 0.0
O361 O 0.78195 0.10483 0.79134 0.0
O362 O 0.83596 0.11717 0.81621 0.0
H363 H 0.79323 0.06347 0.69437 0.0
H364 H 0.76548 0.08222 0.88351 0.0
O365 O 0.84409 0.04877 0.88422 0.0
H366 H 0.81383 0.21628 0.88677 0.0
H367 H 0.93974 0.13506 0.91614 0.0
H368 H 0.90816 0.1065 0.81721 0.0
H369 H 0.8494 0.16649 0.8605 0.0
H370 H 0.87656 0.10693 0.90356 0.0
O371 O 0.72139 0.05271 0.80843 0.0
H372 H 0.81048 0.07315 0.74414 0.0
H373 H 0.7146 0.00457 0.76967 0.0
H374 H 0.97144 0.13534 0.82885 0.0
H375 H 0.72965 0.13082 0.91036 0.0
H376 H 0.98761 0.14975 0.87863 0.0
H377 H 0.75358 0.19863 0.91222 0.0
O378 O 0.86849 0.04188 0.82749 0.0
H379 H 0.73506 0.92997 0.85275 0.0
H380 H 0.80886 0.97714 0.77083 0.0
H381 H 0.80581 0.90701 0.78043 0.0
H382 H 0.76863 0.88296 0.82163 0.0
H383 H 0.73916 0.99992 0.84252 0.0
H384 H 0.69619 0.99431 0.72019 0.0
H385 H 0.73567 0.02379 0.6821 0.0
O386 O 0.83326 0.04164 0.78811 0.0
C387 C 0.81021 0.12681 0.79823 0.0
C388 C 0.77574 0.05054 0.71076 0.0
C389 C 0.72126 0.01176 0.72526 0.0
N390 N 0.76348 0.03972 0.75984 0.0
C391 C 0.78534 0.05598 0.739 0.0
C392 C 0.73175 0.01784 0.75326 0.0
C393 C 0.74344 0.02828 0.7039 0.0
C394 C 0.77701 0.11111 0.88454 0.0
N395 N 0.8106 0.12069 0.87096 0.0
C396 C 0.75614 0.13881 0.89966 0.0
C397 C 0.7695 0.17685 0.90064 0.0
C398 C 0.80327 0.18674 0.88638 0.0
C399 C 0.82337 0.15824 0.87151 0.0
C400 C 0.93303 0.12892 0.89437 0.0
C401 C 0.91482 0.11299 0.8389 0.0
C402 C 0.89737 0.11271 0.88711 0.0
N403 N 0.88851 0.1052 0.85961 0.0
C404 C 0.95078 0.12918 0.84537 0.0
C405 C 0.95986 0.1372 0.87331 0.0
C406 C 0.86399 0.03332 0.80159 0.0
C407 C 0.7514 0.94008 0.83477 0.0
C408 C 0.79291 0.96699 0.78895 0.0
C409 C 0.79114 0.9272 0.7942 0.0
C410 C 0.77025 0.91373 0.8173 0.0
N411 N 0.77444 0.9927 0.80623 0.0
C412 C 0.75382 0.97967 0.82886 0.0
Co413 Co 0.03166 0.84124 0.35045 0.0
Co414 Co 0.05258 0.78586 0.29337 0.0
O415 O 0.05056 0.79242 0.33447 0.0
C416 C 0.08676 0.80908 0.39404 0.0
O417 O 0.09581 0.77893 0.37856 0.0
C418 C 0.02585 0.70913 0.31583 0.0
O419 O 0.00397 0.72681 0.33434 0.0
O420 O 0.99562 0.79497 0.29143 0.0
O421 O 0.99461 0.84794 0.31857 0.0
H422 H 0.01978 0.82043 0.19353 0.0
H423 H 0.0263 0.76553 0.38214 0.0
O424 O 0.0669 0.83681 0.38383 0.0
H425 H 0.8958 0.82204 0.38667 0.0
H426 H 0.99079 0.93303 0.42745 0.0
H427 H 0.01391 0.91812 0.32572 0.0
H428 H 0.94793 0.85581 0.36144 0.0
H429 H 0.012 0.87031 0.40805 0.0
O430 O 0.04473 0.72858 0.2977 0.0
H431 H 0.01939 0.82876 0.24499 0.0
H432 H 0.08767 0.72726 0.25477 0.0
H433 H 0.9922 0.98121 0.34421 0.0
H434 H 0.97557 0.73156 0.40826 0.0
H435 H 0.98051 0.98899 0.39542 0.0
H436 H 0.90947 0.75957 0.41065 0.0
O437 O 0.07284 0.86938 0.32924 0.0
H438 H 0.17388 0.72764 0.33356 0.0
H439 H 0.12112 0.81646 0.26196 0.0
H440 H 0.19168 0.80734 0.26539 0.0
H441 H 0.21852 0.76257 0.30135 0.0
H442 H 0.1035 0.73791 0.32957 0.0
H443 H 0.08856 0.71771 0.20341 0.0
H444 H 0.05458 0.76458 0.1724 0.0
O445 O 0.06216 0.84275 0.28716 0.0
C446 C 0.97886 0.82544 0.30063 0.0
C447 C 0.03477 0.79985 0.20681 0.0
C448 C 0.07332 0.74217 0.21236 0.0
N449 N 0.05362 0.77865 0.2529 0.0
C450 C 0.0347 0.80445 0.23598 0.0
C451 C 0.07261 0.74768 0.24144 0.0
C452 C 0.05427 0.76849 0.19497 0.0
C453 C 0.99832 0.77886 0.38364 0.0
N454 N 0.99092 0.81356 0.37082 0.0
C455 C 0.96933 0.75903 0.39823 0.0
C456 C 0.93224 0.77466 0.39947 0.0
C457 C 0.92457 0.80965 0.38601 0.0
C458 C 0.95431 0.82865 0.37166 0.0
C459 C 0.9958 0.93001 0.40509 0.0
C460 C 0.00875 0.92119 0.34801 0.0
C461 C 0.00803 0.89461 0.39399 0.0
N462 N 0.01414 0.89046 0.36573 0.0
C463 C 0.99652 0.95703 0.35837 0.0
C464 C 0.99 0.96138 0.38711 0.0
C465 C 0.0767 0.86929 0.30255 0.0
C466 C 0.16255 0.74723 0.3178 0.0
C467 C 0.13253 0.79714 0.2778 0.0
C468 C 0.17254 0.79198 0.27957 0.0
C469 C 0.18757 0.76685 0.29974 0.0
N470 N 0.10814 0.77782 0.29562 0.0
C471 C 0.12269 0.75312 0.31542 0.0
H472 H 0.27627 0.12797 0.07645 0.0
H473 H 0.25439 0.00864 0.93399 0.0
H474 H 0.27287 0.00291 0.07332 0.0
H475 H 0.28832 0.12911 0.93571 0.0
H476 H 0.2539 0.00769 0.98498 0.0
H477 H 0.27406 0.13005 0.0253 0.0
C478 C 0.27483 0.10084 0.06504 0.0
C479 C 0.27459 0.06509 0.07932 0.0
C480 C 0.26135 0.03439 0.97427 0.0
C481 C 0.27208 0.06753 0.02047 0.0
C482 C 0.26141 0.03513 0.94502 0.0
C483 C 0.27135 0.06913 0.93033 0.0
C484 C 0.27102 0.06793 0.98925 0.0
C485 C 0.28042 0.1023 0.94607 0.0
C486 C 0.27376 0.10216 0.03577 0.0
C487 C 0.27306 0.03106 0.06326 0.0
N488 N 0.28001 0.10088 0.97471 0.0
N489 N 0.27173 0.03313 0.03468 0.0
H490 H 0.09472 0.37616 0.57266 0.0
H491 H 0.06127 0.25056 0.43309 0.0
H492 H 0.09244 0.25113 0.57105 0.0
H493 H 0.04734 0.37482 0.43587 0.0
H494 H 0.07546 0.25062 0.48331 0.0
H495 H 0.08335 0.37683 0.5218 0.0
C496 C 0.09292 0.34885 0.56152 0.0
C497 C 0.09463 0.31352 0.57613 0.0
C498 C 0.06897 0.27788 0.47305 0.0
C499 C 0.08057 0.31409 0.51812 0.0
C500 C 0.06056 0.27783 0.44438 0.0
C501 C 0.05296 0.31272 0.43022 0.0
C502 C 0.07014 0.31312 0.48779 0.0
C503 C 0.05264 0.34718 0.44595 0.0
C504 C 0.08582 0.34926 0.53255 0.0
C505 C 0.09133 0.27904 0.56064 0.0
N506 N 0.06145 0.34656 0.47385 0.0
N507 N 0.08423 0.2802 0.53257 0.0
H508 H 0.75929 0.025 0.93473 0.0
H509 H 0.88813 0.08092 0.06828 0.0
H510 H 0.88334 0.03831 0.93078 0.0
H511 H 0.7644 0.09702 0.06496 0.0
H512 H 0.88739 0.06105 0.01893 0.0
H513 H 0.76101 0.04378 0.98433 0.0
C514 C 0.78701 0.03085 0.94447 0.0
C515 C 0.82125 0.02999 0.92859 0.0
C516 C 0.86046 0.06939 0.02889 0.0
C517 C 0.8233 0.05244 0.98514 0.0
C518 C 0.86091 0.08105 0.05699 0.0
C519 C 0.82631 0.09087 0.07074 0.0
C520 C 0.82508 0.06699 0.01449 0.0
C521 C 0.79183 0.09018 0.05514 0.0
C522 C 0.78789 0.0422 0.97266 0.0
C523 C 0.85625 0.0386 0.94224 0.0
N524 N 0.79203 0.07799 0.02794 0.0
N525 N 0.85637 0.04962 0.96967 0.0
H526 H 0.08728 0.74328 0.42669 0.0
H527 H 0.02548 0.86266 0.56387 0.0
H528 H 0.08368 0.8681 0.43188 0.0
H529 H 0.04097 0.73859 0.56464 0.0
H530 H 0.04198 0.86364 0.5141 0.0
H531 H 0.07003 0.73964 0.47666 0.0
C532 C 0.08398 0.76991 0.43849 0.0
C533 C 0.08694 0.80608 0.42507 0.0
C534 C 0.04137 0.83606 0.52498 0.0
C535 C 0.06592 0.80208 0.48189 0.0
C536 C 0.03142 0.83545 0.55335 0.0
C537 C 0.03181 0.80051 0.56845 0.0
C538 C 0.05196 0.80147 0.51145 0.0
C539 C 0.03995 0.76614 0.55376 0.0
C540 C 0.07353 0.76779 0.46691 0.0
C541 C 0.08161 0.8396 0.44133 0.0
N542 N 0.05014 0.76752 0.5261 0.0
N543 N 0.07101 0.83676 0.46872 0.0
H544 H 0.47572 0.14432 0.17449 0.0
H545 H 0.65083 0.99209 0.16338 0.0
H546 H 0.45993 0.02017 0.17363 0.0
H547 H 0.66573 0.11381 0.18145 0.0
H548 H 0.58077 0.00276 0.15976 0.0
H549 H 0.54564 0.13452 0.16959 0.0
C550 C 0.48687 0.11506 0.173 0.0
C551 C 0.46195 0.08306 0.17478 0.0
C552 C 0.59949 0.02713 0.16436 0.0
C553 C 0.54185 0.07158 0.16919 0.0
C554 C 0.63945 0.02105 0.16634 0.0
C555 C 0.66414 0.05197 0.17303 0.0
C556 C 0.58423 0.06444 0.16885 0.0
C557 C 0.64779 0.08896 0.1766 0.0
C558 C 0.52679 0.10945 0.1703 0.0
C559 C 0.47807 0.04574 0.17268 0.0
N560 N 0.60894 0.09411 0.17456 0.0
N561 N 0.51695 0.04104 0.17012 0.0
H562 H 0.01952 0.46519 0.63683 0.0
H563 H 0.0915 0.65425 0.71938 0.0
H564 H 0.05504 0.46399 0.72379 0.0
H565 H 0.08489 0.64856 0.62888 0.0
H566 H 0.07405 0.58565 0.72183 0.0
H567 H 0.03759 0.5339 0.63408 0.0
C568 C 0.03066 0.47943 0.65543 0.0
C569 C 0.03573 0.45871 0.68058 0.0
C570 C 0.07669 0.59931 0.70141 0.0
C571 C 0.05676 0.53726 0.67752 0.0
C572 C 0.08679 0.6385 0.69999 0.0
C573 C 0.08984 0.65729 0.67387 0.0
C574 C 0.06904 0.57866 0.67657 0.0
C575 C 0.08321 0.63529 0.64947 0.0
C576 C 0.0413 0.51857 0.65377 0.0
C577 C 0.05069 0.47868 0.70392 0.0
N578 N 0.07283 0.59727 0.65142 0.0
N579 N 0.0606 0.51673 0.70183 0.0
H580 H 0.64717 0.13042 0.83992 0.0
H581 H 0.47339 0.97648 0.82785 0.0
H582 H 0.66217 0.01119 0.81465 0.0
H583 H 0.45578 0.09982 0.8362 0.0
H584 H 0.54344 0.98723 0.83006 0.0
H585 H 0.57751 0.11834 0.84532 0.0
C586 C 0.63591 0.10172 0.83566 0.0
C587 C 0.66054 0.07194 0.82654 0.0
C588 C 0.52419 0.0119 0.8316 0.0
C589 C 0.58104 0.05781 0.83284 0.0
C590 C 0.48418 0.00573 0.83048 0.0
C591 C 0.45863 0.03727 0.83158 0.0
C592 C 0.53876 0.04986 0.83403 0.0
C593 C 0.47437 0.07461 0.83498 0.0
C594 C 0.59616 0.09483 0.8387 0.0
C595 C 0.6443 0.03521 0.82142 0.0
N596 N 0.51333 0.07986 0.83595 0.0
N597 N 0.60569 0.02925 0.82458 0.0
H598 H 0.09426 0.47286 0.28106 0.0
H599 H 0.01218 0.66002 0.3604 0.0
H600 H 0.07921 0.47708 0.37108 0.0
H601 H 0.05711 0.6621 0.27572 0.0
H602 H 0.03095 0.59153 0.36407 0.0
H603 H 0.07673 0.54127 0.27827 0.0
C604 C 0.0877 0.48831 0.30031 0.0
C605 C 0.08836 0.46918 0.32636 0.0
C606 C 0.03657 0.60703 0.34469 0.0
C607 C 0.06742 0.54756 0.32325 0.0
C608 C 0.02553 0.64599 0.34248 0.0
C609 C 0.03303 0.66684 0.3177 0.0
C610 C 0.05484 0.58874 0.32184 0.0
C611 C 0.05081 0.64726 0.29526 0.0
C612 C 0.07756 0.52738 0.29869 0.0
C613 C 0.07942 0.49072 0.35058 0.0
N614 N 0.06102 0.60941 0.29786 0.0
N615 N 0.06897 0.52868 0.34842 0.0
H616 H 0.1455 0.25431 0.25631 0.0
H617 H 0.34733 0.20257 0.21862 0.0
H618 H 0.22084 0.32583 0.30644 0.0
H619 H 0.27924 0.12302 0.26783 0.0
H620 H 0.31007 0.25681 0.2385 0.0
H621 H 0.20122 0.21472 0.24269 0.0
C622 C 0.17413 0.26267 0.26338 0.0
C623 C 0.17895 0.29365 0.282 0.0
C624 C 0.30479 0.22762 0.24597 0.0
C625 C 0.24208 0.24794 0.26746 0.0
C626 C 0.32629 0.19675 0.23498 0.0
C627 C 0.31621 0.15841 0.24169 0.0
C628 C 0.27321 0.21952 0.26347 0.0
C629 C 0.28806 0.15221 0.26238 0.0
C630 C 0.20563 0.23981 0.25602 0.0
C631 C 0.21639 0.30259 0.2915 0.0
N632 N 0.26654 0.18239 0.27183 0.0
N633 N 0.24683 0.27941 0.28437 0.0
H634 H 0.94123 0.32694 0.74579 0.0
H635 H 0.83078 0.19642 0.82043 0.0
H636 H 0.93768 0.23698 0.68273 0.0
H637 H 0.80619 0.14107 0.7414 0.0
H638 H 0.86248 0.24898 0.79585 0.0
H639 H 0.88525 0.29683 0.76876 0.0
C640 C 0.9285 0.30122 0.73659 0.0
C641 C 0.94472 0.28427 0.71249 0.0
C642 C 0.8492 0.22622 0.78358 0.0
C643 C 0.88124 0.24905 0.73891 0.0
C644 C 0.83133 0.19575 0.79779 0.0
C645 C 0.81705 0.16357 0.78307 0.0
C646 C 0.8531 0.22435 0.75426 0.0
C647 C 0.81746 0.16489 0.75365 0.0
C648 C 0.89668 0.28376 0.74984 0.0
C649 C 0.92664 0.25114 0.70133 0.0
N650 N 0.8362 0.19427 0.74023 0.0
N651 N 0.89628 0.23456 0.71473 0.0
H652 H 0.94015 0.79757 0.25384 0.0
H653 H 0.82846 0.92696 0.18002 0.0
H654 H 0.93314 0.88454 0.31891 0.0
H655 H 0.80823 0.98486 0.25874 0.0
H656 H 0.85831 0.87353 0.20471 0.0
H657 H 0.88443 0.82755 0.23079 0.0
C658 C 0.92668 0.82262 0.26346 0.0
C659 C 0.94195 0.83886 0.28811 0.0
C660 C 0.84649 0.8971 0.21695 0.0
C661 C 0.87874 0.87412 0.26156 0.0
C662 C 0.82966 0.92803 0.20265 0.0
C663 C 0.81725 0.96108 0.21722 0.0
C664 C 0.8512 0.89941 0.2462 0.0
C665 C 0.81812 0.96031 0.24661 0.0
C666 C 0.89496 0.84007 0.25015 0.0
C667 C 0.92291 0.87105 0.29982 0.0
N668 N 0.83581 0.9304 0.26011 0.0
N669 N 0.89276 0.88774 0.28632 0.0
H670 H 0.18931 0.79774 0.73448 0.0
H671 H 0.30481 0.99712 0.73644 0.0
H672 H 0.17939 0.89002 0.67345 0.0
H673 H 0.31281 0.91247 0.80267 0.0
H674 H 0.27355 0.9489 0.70671 0.0
H675 H 0.24578 0.83124 0.75464 0.0
C676 C 0.19933 0.82445 0.72495 0.0
C677 C 0.17932 0.84096 0.70221 0.0
C678 C 0.28277 0.94049 0.7276 0.0
C679 C 0.24384 0.87911 0.72489 0.0
C680 C 0.3012 0.96801 0.74443 0.0
C681 C 0.31034 0.95908 0.77232 0.0
C682 C 0.27294 0.90409 0.739 0.0
C683 C 0.30478 0.92084 0.78161 0.0
C684 C 0.23158 0.84351 0.73641 0.0
C685 C 0.19367 0.87576 0.69079 0.0
N686 N 0.28553 0.89492 0.76527 0.0
N687 N 0.22467 0.89362 0.70232 0.0
H688 H 0.92685 0.99337 0.82269 0.0
H689 H 0.99294 0.91468 0.67104 0.0
H690 H 0.87092 0.02441 0.74473 0.0
H691 H 0.03602 0.86866 0.74946 0.0
H692 H 0.95339 0.96082 0.69759 0.0
H693 H 0.97283 0.95347 0.79601 0.0
C694 C 0.92446 0.99219 0.80001 0.0
C695 C 0.89473 0.01211 0.78603 0.0
C696 C 0.97162 0.94068 0.70896 0.0
C697 C 0.94714 0.96645 0.75536 0.0
C698 C 0.99426 0.91434 0.69379 0.0
C699 C 0.01772 0.88745 0.70795 0.0
C700 C 0.97252 0.94037 0.73854 0.0
C701 C 0.01824 0.88859 0.73754 0.0
C702 C 0.95059 0.96925 0.78478 0.0
C703 C 0.89307 0.00936 0.75653 0.0
N704 N 0.99597 0.91446 0.7518 0.0
N705 N 0.91872 0.98692 0.74227 0.0
H706 H 0.19035 0.01553 0.1781 0.0
H707 H 0.12379 0.9248 0.32619 0.0
H708 H 0.25208 0.03119 0.25612 0.0
H709 H 0.07951 0.88571 0.24621 0.0
H710 H 0.1636 0.97265 0.3014 0.0
H711 H 0.14201 0.97631 0.20342 0.0
C712 C 0.19351 0.01111 0.20053 0.0
C713 C 0.22554 0.02627 0.21491 0.0
C714 C 0.14495 0.95373 0.28931 0.0
C715 C 0.1705 0.98179 0.24397 0.0
C716 C 0.12212 0.92648 0.30348 0.0
C717 C 0.0985 0.90086 0.28832 0.0
C718 C 0.144 0.95563 0.25976 0.0
C719 C 0.09754 0.90454 0.25883 0.0
C720 C 0.16606 0.98862 0.21495 0.0
C721 C 0.2282 0.01961 0.24403 0.0
N722 N 0.12004 0.93123 0.24555 0.0
N723 N 0.2012 0.99787 0.25751 0.0
H724 H 0.1268 0.1991 0.67759 0.0
H725 H 0.18695 0.11123 0.82799 0.0
H726 H 0.08238 0.24262 0.75634 0.0
H727 H 0.24995 0.0907 0.75108 0.0
H728 H 0.14091 0.15156 0.80144 0.0
H729 H 0.1649 0.15124 0.7037 0.0
C730 C 0.12479 0.19845 0.70031 0.0
C731 C 0.10154 0.22524 0.71471 0.0
C732 C 0.16472 0.13794 0.79042 0.0
C733 C 0.14505 0.17036 0.7448 0.0
C734 C 0.19084 0.11478 0.80554 0.0
C735 C 0.2226 0.09788 0.79184 0.0
C736 C 0.17017 0.14373 0.76137 0.0
C737 C 0.22625 0.10356 0.76266 0.0
C738 C 0.14663 0.17117 0.71524 0.0
C739 C 0.10012 0.22284 0.74427 0.0
N740 N 0.20052 0.12598 0.74849 0.0
N741 N 0.1216 0.19604 0.75829 0.0
H742 H 0.03943 0.25824 0.24712 0.0
H743 H 0.87504 0.09693 0.25508 0.0
H744 H 1.00079 0.20771 0.32533 0.0
H745 H 0.93046 0.13063 0.17746 0.0
H746 H 0.92122 0.13639 0.28106 0.0
H747 H 1.00022 0.21157 0.22147 0.0
C748 C 0.02277 0.23727 0.25899 0.0
C749 C 0.02329 0.23721 0.28857 0.0
C750 C 0.92359 0.13493 0.25838 0.0
C751 C 0.97796 0.1834 0.25899 0.0
C752 C 0.89714 0.1124 0.24344 0.0
C753 C 0.89862 0.1106 0.21391 0.0
C754 C 0.95166 0.15635 0.2438 0.0
C755 C 0.92817 0.13112 0.20015 0.0
C756 C 1.00044 0.21046 0.24422 0.0
C757 C 0.00124 0.20898 0.30259 0.0
N758 N 0.95325 0.15347 0.21519 0.0
N759 N 0.97922 0.18345 0.28768 0.0
loop_
_geom_bond_atom_site_label_1
_geom_bond_atom_site_label_2
_geom_bond_distance
_geom_bond_site_symmetry_2
_ccdc_geom_bond_type
Co0 O2 2.143 . S
Co0 O8 2.074 . S
Co0 O11 2.093 . S
Co0 O24 2.097 . S
Co0 N41 2.151 . S
Co0 N49 2.214 . S
Co1 O2 2.160 . S
Co1 O7 2.058 . S
Co1 O17 2.057 . S
Co1 O32 2.037 . S
Co1 N36 2.145 . S
Co1 N57 2.257 . S
O2 Co0 2.143 . S
O2 Co1 2.160 . S
C3 O4 1.278 . S
C3 O11 1.224 . S
O4 C3 1.278 . S
C5 O6 1.245 . S
C5 O17 1.232 . S
O6 C5 1.245 . S
O7 Co1 2.058 . S
O7 C33 1.269 . S
O8 Co0 2.074 . S
O8 C33 1.257 . S
H9 C34 0.930 . S
H10 C40 0.930 . S
O11 Co0 2.093 . S
O11 C3 1.224 . S
H12 C44 0.929 . S
H13 C46 0.930 . S
H14 C47 0.930 . S
H15 C45 0.929 . S
H16 C48 0.928 . S
O17 Co1 2.057 . S
O17 C5 1.232 . S
H18 C37 0.929 . S
H19 C38 0.929 . S
H20 C50 0.931 . S
H21 C42 0.929 . S
H22 C51 0.930 . S
H23 C43 0.931 . S
O24 Co0 2.097 . S
O24 C52 1.214 . S
H25 C53 0.929 . S
H26 C54 0.929 . S
H27 C55 0.930 . S
H28 C56 0.929 . S
H29 C58 0.930 . S
H30 C35 0.930 . S
H31 C39 0.933 . S
O32 Co1 2.037 . S
O32 C52 1.234 . S
C33 O7 1.269 . S
C33 O8 1.257 . S
C34 H9 0.930 . S
C34 C37 1.388 . S
C34 C39 1.418 . S
C35 H30 0.930 . S
C35 C38 1.404 . S
C35 C39 1.353 . S
N36 Co1 2.145 . S
N36 C37 1.397 . S
N36 C38 1.334 . S
C37 H18 0.929 . S
C37 C34 1.388 . S
C37 N36 1.397 . S
C38 H19 0.929 . S
C38 C35 1.404 . S
C38 N36 1.334 . S
C39 H31 0.933 . S
C39 C34 1.418 . S
C39 C35 1.353 . S
C40 H10 0.930 . S
C40 N41 1.330 . S
C40 C42 1.446 . S
N41 Co0 2.151 . S
N41 C40 1.330 . S
N41 C45 1.418 . S
C42 H21 0.929 . S
C42 C40 1.446 . S
C42 C43 1.332 . S
C43 H23 0.931 . S
C43 C42 1.332 . S
C43 C44 1.267 . S
C44 H12 0.929 . S
C44 C43 1.267 . S
C44 C45 1.251 . S
C45 H15 0.929 . S
C45 N41 1.418 . S
C45 C44 1.251 . S
C46 H13 0.930 . S
C46 C48 1.406 . S
C46 C51 1.261 . S
C47 H14 0.930 . S
C47 N49 1.325 . S
C47 C50 1.357 . S
C48 H16 0.928 . S
C48 C46 1.406 . S
C48 N49 1.261 . S
N49 Co0 2.214 . S
N49 C47 1.325 . S
N49 C48 1.261 . S
C50 H20 0.931 . S
C50 C47 1.357 . S
C50 C51 1.312 . S
C51 H22 0.930 . S
C51 C46 1.261 . S
C51 C50 1.312 . S
C52 O24 1.214 . S
C52 O32 1.234 . S
C53 H25 0.929 . S
C53 C56 1.391 . S
C53 C58 1.391 1_565 S
C54 H26 0.929 . S
C54 C55 1.390 . S
C54 N57 1.391 1_565 S
C55 H27 0.930 . S
C55 C54 1.390 . S
C55 C56 1.392 . S
C56 H28 0.929 . S
C56 C53 1.391 . S
C56 C55 1.392 . S
N57 Co1 2.257 . S
N57 C54 1.391 1_545 S
N57 C58 1.388 . S
C58 H29 0.930 . S
C58 C53 1.391 1_545 S
C58 N57 1.388 . S
Co59 O61 2.143 . S
Co59 O67 2.074 1_455 S
Co59 O70 2.093 . S
Co59 O83 2.097 . S
Co59 N100 2.151 1_455 S
Co59 N108 2.214 . S
Co60 O61 2.160 . S
Co60 O66 2.058 . S
Co60 O76 2.057 . S
Co60 O91 2.037 . S
Co60 N95 2.145 . S
Co60 N116 2.257 . S
O61 Co59 2.143 . S
O61 Co60 2.160 . S
C62 O63 1.278 . S
C62 O70 1.224 . S
O63 C62 1.278 . S
C64 O65 1.245 . S
C64 O76 1.232 . S
O65 C64 1.245 . S
O66 Co60 2.058 . S
O66 C92 1.269 1_455 S
O67 Co59 2.074 1_655 S
O67 C92 1.257 . S
H68 C93 0.930 . S
H69 C99 0.930 . S
O70 Co59 2.093 . S
O70 C62 1.224 . S
H71 C103 0.929 . S
H72 C105 0.930 . S
H73 C106 0.930 . S
H74 C104 0.929 . S
H75 C107 0.928 . S
O76 Co60 2.057 . S
O76 C64 1.232 . S
H77 C96 0.929 . S
H78 C97 0.929 . S
H79 C109 0.931 1_455 S
H80 C101 0.929 . S
H81 C110 0.930 . S
H82 C102 0.931 . S
O83 Co59 2.097 . S
O83 C111 1.214 . S
H84 C112 0.929 . S
H85 C113 0.929 . S
H86 C114 0.930 . S
H87 C115 0.929 . S
H88 C117 0.930 . S
H89 C94 0.930 . S
H90 C98 0.930 . S
O91 Co60 2.037 . S
O91 C111 1.234 . S
C92 O66 1.269 1_655 S
C92 O67 1.257 . S
C93 H68 0.930 . S
C93 C96 1.388 . S
C93 C98 1.418 . S
C94 H89 0.930 . S
C94 C97 1.404 . S
C94 C98 1.353 . S
N95 Co60 2.145 . S
N95 C96 1.397 . S
N95 C97 1.334 . S
C96 H77 0.929 . S
C96 C93 1.388 . S
C96 N95 1.397 . S
C97 H78 0.929 . S
C97 C94 1.404 . S
C97 N95 1.334 . S
C98 H90 0.930 . S
C98 C93 1.418 . S
C98 C94 1.353 . S
C99 H69 0.930 . S
C99 N100 1.330 . S
C99 C101 1.446 . S
N100 Co59 2.151 1_655 S
N100 C99 1.330 . S
N100 C104 1.418 . S
C101 H80 0.929 . S
C101 C99 1.446 . S
C101 C102 1.332 . S
C102 H82 0.931 . S
C102 C101 1.332 . S
C102 C103 1.267 . S
C103 H71 0.929 . S
C103 C102 1.267 . S
C103 C104 1.251 . S
C104 H74 0.929 . S
C104 N100 1.418 . S
C104 C103 1.251 . S
C105 H72 0.930 . S
C105 C107 1.406 . S
C105 C110 1.261 . S
C106 H73 0.930 . S
C106 N108 1.325 . S
C106 C109 1.357 1_455 S
C107 H75 0.928 . S
C107 C105 1.406 . S
C107 N108 1.261 1_655 S
N108 Co59 2.214 . S
N108 C106 1.325 . S
N108 C107 1.261 1_455 S
C109 H79 0.931 1_655 S
C109 C106 1.357 1_655 S
C109 C110 1.312 . S
C110 H81 0.930 . S
C110 C105 1.261 . S
C110 C109 1.312 . S
C111 O83 1.214 . S
C111 O91 1.234 . S
C112 H84 0.929 . S
C112 C115 1.391 . S
C112 C117 1.391 . S
C113 H85 0.929 . S
C113 C114 1.390 . S
C113 N116 1.391 . S
C114 H86 0.930 . S
C114 C113 1.390 . S
C114 C115 1.392 . S
C115 H87 0.929 . S
C115 C112 1.391 . S
C115 C114 1.392 . S
N116 Co60 2.257 . S
N116 C113 1.391 . S
N116 C117 1.388 . S
C117 H88 0.930 . S
C117 C112 1.391 . S
C117 N116 1.388 . S
Co118 O120 2.143 . S
Co118 O126 2.074 1_545 S
Co118 O129 2.093 . S
Co118 O142 2.097 . S
Co118 N159 2.151 1_545 S
Co118 N167 2.214 . S
Co119 O120 2.160 . S
Co119 O125 2.058 . S
Co119 O135 2.057 . S
Co119 O150 2.037 . S
Co119 N154 2.145 . S
Co119 N175 2.257 . S
O120 Co118 2.143 . S
O120 Co119 2.160 . S
C121 O122 1.278 . S
C121 O129 1.224 . S
O122 C121 1.278 . S
C123 O124 1.245 . S
C123 O135 1.232 . S
O124 C123 1.245 . S
O125 Co119 2.058 . S
O125 C151 1.269 1_545 S
O126 Co118 2.074 1_565 S
O126 C151 1.257 . S
H127 C152 0.930 . S
H128 C158 0.930 . S
O129 Co118 2.093 . S
O129 C121 1.224 . S
H130 C162 0.929 . S
H131 C164 0.930 . S
H132 C165 0.930 . S
H133 C163 0.929 . S
H134 C166 0.928 . S
O135 Co119 2.057 . S
O135 C123 1.232 . S
H136 C155 0.929 . S
H137 C156 0.929 . S
H138 C168 0.931 1_545 S
H139 C160 0.929 . S
H140 C169 0.930 1_455 S
H141 C161 0.931 . S
O142 Co118 2.097 . S
O142 C170 1.214 . S
H143 C171 0.929 . S
H144 C172 0.929 . S
H145 C173 0.930 . S
H146 C174 0.929 . S
H147 C176 0.930 . S
H148 C153 0.930 . S
H149 C157 0.930 . S
O150 Co119 2.037 . S
O150 C170 1.234 . S
C151 O125 1.269 1_565 S
C151 O126 1.257 . S
C152 H127 0.930 . S
C152 C155 1.388 . S
C152 C157 1.418 . S
C153 H148 0.930 . S
C153 C156 1.404 . S
C153 C157 1.353 . S
N154 Co119 2.145 . S
N154 C155 1.397 . S
N154 C156 1.334 . S
C155 H136 0.929 . S
C155 C152 1.388 . S
C155 N154 1.397 . S
C156 H137 0.929 . S
C156 C153 1.404 . S
C156 N154 1.334 . S
C157 H149 0.930 . S
C157 C152 1.418 . S
C157 C153 1.353 . S
C158 H128 0.930 . S
C158 N159 1.330 . S
C158 C160 1.446 . S
N159 Co118 2.151 1_565 S
N159 C158 1.330 . S
N159 C163 1.418 . S
C160 H139 0.929 . S
C160 C158 1.446 . S
C160 C161 1.332 . S
C161 H141 0.931 . S
C161 C160 1.332 . S
C161 C162 1.267 . S
C162 H130 0.929 . S
C162 C161 1.267 . S
C162 C163 1.251 . S
C163 H133 0.929 . S
C163 N159 1.418 . S
C163 C162 1.251 . S
C164 H131 0.930 . S
C164 C166 1.406 . S
C164 C169 1.261 . S
C165 H132 0.930 . S
C165 N167 1.325 . S
C165 C168 1.357 1_545 S
C166 H134 0.928 . S
C166 C164 1.406 . S
C166 N167 1.261 1_565 S
N167 Co118 2.214 . S
N167 C165 1.325 . S
N167 C166 1.261 1_545 S
C168 H138 0.931 1_565 S
C168 C165 1.357 1_565 S
C168 C169 1.312 . S
C169 H140 0.930 1_655 S
C169 C164 1.261 . S
C169 C168 1.312 . S
C170 O142 1.214 . S
C170 O150 1.234 . S
C171 H143 0.929 . S
C171 C174 1.391 . S
C171 C176 1.391 . S
C172 H144 0.929 . S
C172 C173 1.390 . S
C172 N175 1.391 . S
C173 H145 0.930 . S
C173 C172 1.390 . S
C173 C174 1.392 . S
C174 H146 0.929 . S
C174 C171 1.391 . S
C174 C173 1.392 . S
N175 Co119 2.257 . S
N175 C172 1.391 . S
N175 C176 1.388 . S
C176 H147 0.930 . S
C176 C171 1.391 . S
C176 N175 1.388 . S
Co177 O179 2.143 . S
Co177 O185 2.074 . S
Co177 O188 2.093 . S
Co177 O201 2.097 . S
Co177 N218 2.151 . S
Co177 N226 2.214 . S
Co178 O179 2.160 . S
Co178 O184 2.058 . S
Co178 O194 2.057 . S
Co178 O209 2.037 . S
Co178 N213 2.145 . S
Co178 N234 2.257 . S
O179 Co177 2.143 . S
O179 Co178 2.160 . S
C180 O181 1.278 . S
C180 O188 1.224 . S
O181 C180 1.278 . S
C182 O183 1.245 . S
C182 O194 1.232 . S
O183 C182 1.245 . S
O184 Co178 2.058 . S
O184 C210 1.269 . S
O185 Co177 2.074 . S
O185 C210 1.257 . S
H186 C211 0.930 . S
H187 C217 0.930 . S
O188 Co177 2.093 . S
O188 C180 1.224 . S
H189 C221 0.929 . S
H190 C223 0.930 . S
H191 C224 0.930 . S
H192 C222 0.929 . S
H193 C225 0.928 . S
O194 Co178 2.057 . S
O194 C182 1.232 . S
H195 C214 0.929 . S
H196 C215 0.929 . S
H197 C227 0.931 . S
H198 C219 0.929 . S
H199 C228 0.930 1_545 S
H200 C220 0.931 . S
O201 Co177 2.097 . S
O201 C229 1.214 . S
H202 C230 0.929 . S
H203 C231 0.929 . S
H204 C232 0.930 . S
H205 C233 0.929 . S
H206 C235 0.930 . S
H207 C212 0.930 . S
H208 C216 0.933 . S
O209 Co178 2.037 . S
O209 C229 1.234 . S
C210 O184 1.269 . S
C210 O185 1.257 . S
C211 H186 0.930 . S
C211 C214 1.388 . S
C211 C216 1.418 . S
C212 H207 0.930 . S
C212 C215 1.404 . S
C212 C216 1.353 . S
N213 Co178 2.145 . S
N213 C214 1.397 . S
N213 C215 1.334 . S
C214 H195 0.929 . S
C214 C211 1.388 . S
C214 N213 1.397 . S
C215 H196 0.929 . S
C215 C212 1.404 . S
C215 N213 1.334 . S
C216 H208 0.933 . S
C216 C211 1.418 . S
C216 C212 1.353 . S
C217 H187 0.930 . S
C217 N218 1.330 . S
C217 C219 1.446 . S
N218 Co177 2.151 . S
N218 C217 1.330 . S
N218 C222 1.418 . S
C219 H198 0.929 . S
C219 C217 1.446 . S
C219 C220 1.332 . S
C220 H200 0.931 . S
C220 C219 1.332 . S
C220 C221 1.267 . S
C221 H189 0.929 . S
C221 C220 1.267 . S
C221 C222 1.251 . S
C222 H192 0.929 . S
C222 N218 1.418 . S
C222 C221 1.251 . S
C223 H190 0.930 . S
C223 C225 1.406 . S
C223 C228 1.261 . S
C224 H191 0.930 . S
C224 N226 1.325 . S
C224 C227 1.357 . S
C225 H193 0.928 . S
C225 C223 1.406 . S
C225 N226 1.261 . S
N226 Co177 2.214 . S
N226 C224 1.325 . S
N226 C225 1.261 . S
C227 H197 0.931 . S
C227 C224 1.357 . S
C227 C228 1.312 . S
C228 H199 0.930 1_565 S
C228 C223 1.261 . S
C228 C227 1.312 . S
C229 O201 1.214 . S
C229 O209 1.234 . S
C230 H202 0.929 . S
C230 C233 1.391 . S
C230 C235 1.391 1_655 S
C231 H203 0.929 . S
C231 C232 1.390 . S
C231 N234 1.391 1_655 S
C232 H204 0.930 . S
C232 C231 1.390 . S
C232 C233 1.392 . S
C233 H205 0.929 . S
C233 C230 1.391 . S
C233 C232 1.392 . S
N234 Co178 2.257 . S
N234 C231 1.391 1_455 S
N234 C235 1.388 . S
C235 H206 0.930 . S
C235 C230 1.391 1_455 S
C235 N234 1.388 . S
Co236 O238 2.143 . S
Co236 O244 2.074 1_545 S
Co236 O247 2.093 . S
Co236 O260 2.097 . S
Co236 N277 2.151 1_545 S
Co236 N285 2.214 . S
Co237 O238 2.160 . S
Co237 O243 2.058 . S
Co237 O253 2.057 . S
Co237 O268 2.037 . S
Co237 N272 2.145 . S
Co237 N293 2.257 . S
O238 Co236 2.143 . S
O238 Co237 2.160 . S
C239 O240 1.278 . S
C239 O247 1.224 . S
O240 C239 1.278 . S
C241 O242 1.245 . S
C241 O253 1.232 . S
O242 C241 1.245 . S
O243 Co237 2.058 . S
O243 C269 1.269 1_545 S
O244 Co236 2.074 1_565 S
O244 C269 1.257 . S
H245 C270 0.930 . S
H246 C276 0.930 . S
O247 Co236 2.093 . S
O247 C239 1.224 . S
H248 C280 0.929 . S
H249 C282 0.930 . S
H250 C283 0.930 . S
H251 C281 0.929 . S
H252 C284 0.928 . S
O253 Co237 2.057 . S
O253 C241 1.232 . S
H254 C273 0.929 . S
H255 C274 0.929 . S
H256 C286 0.931 1_545 S
H257 C278 0.929 . S
H258 C287 0.930 . S
H259 C279 0.931 . S
O260 Co236 2.097 . S
O260 C288 1.214 . S
H261 C289 0.929 . S
H262 C290 0.929 . S
H263 C291 0.930 . S
H264 C292 0.929 . S
H265 C294 0.930 . S
H266 C271 0.930 . S
H267 C275 0.930 . S
O268 Co237 2.037 . S
O268 C288 1.234 . S
C269 O243 1.269 1_565 S
C269 O244 1.257 . S
C270 H245 0.930 . S
C270 C273 1.388 . S
C270 C275 1.418 . S
C271 H266 0.930 . S
C271 C274 1.404 . S
C271 C275 1.353 . S
N272 Co237 2.145 . S
N272 C273 1.397 . S
N272 C274 1.334 . S
C273 H254 0.929 . S
C273 C270 1.388 . S
C273 N272 1.397 . S
C274 H255 0.929 . S
C274 C271 1.404 . S
C274 N272 1.334 . S
C275 H267 0.930 . S
C275 C270 1.418 . S
C275 C271 1.353 . S
C276 H246 0.930 . S
C276 N277 1.330 . S
C276 C278 1.446 . S
N277 Co236 2.151 1_565 S
N277 C276 1.330 . S
N277 C281 1.418 . S
C278 H257 0.929 . S
C278 C276 1.446 . S
C278 C279 1.332 . S
C279 H259 0.931 . S
C279 C278 1.332 . S
C279 C280 1.267 . S
C280 H248 0.929 . S
C280 C279 1.267 . S
C280 C281 1.251 . S
C281 H251 0.929 . S
C281 N277 1.418 . S
C281 C280 1.251 . S
C282 H249 0.930 . S
C282 C284 1.406 . S
C282 C287 1.261 . S
C283 H250 0.930 . S
C283 N285 1.325 . S
C283 C286 1.357 1_545 S
C284 H252 0.928 . S
C284 C282 1.406 . S
C284 N285 1.261 1_565 S
N285 Co236 2.214 . S
N285 C283 1.325 . S
N285 C284 1.261 1_545 S
C286 H256 0.931 1_565 S
C286 C283 1.357 1_565 S
C286 C287 1.312 . S
C287 H258 0.930 . S
C287 C282 1.261 . S
C287 C286 1.312 . S
C288 O260 1.214 . S
C288 O268 1.234 . S
C289 H261 0.929 . S
C289 C292 1.391 . S
C289 C294 1.391 . S
C290 H262 0.929 . S
C290 C291 1.390 . S
C290 N293 1.391 . S
C291 H263 0.930 . S
C291 C290 1.390 . S
C291 C292 1.392 . S
C292 H264 0.929 . S
C292 C289 1.391 . S
C292 C291 1.392 . S
N293 Co237 2.257 . S
N293 C290 1.391 . S
N293 C294 1.388 . S
C294 H265 0.930 . S
C294 C289 1.391 . S
C294 N293 1.388 . S
Co295 O297 2.143 . S
Co295 O303 2.074 . S
Co295 O306 2.093 . S
Co295 O319 2.097 . S
Co295 N336 2.151 . S
Co295 N344 2.214 . S
Co296 O297 2.160 . S
Co296 O302 2.058 . S
Co296 O312 2.057 . S
Co296 O327 2.037 . S
Co296 N331 2.145 . S
Co296 N352 2.257 . S
O297 Co295 2.143 . S
O297 Co296 2.160 . S
C298 O299 1.278 . S
C298 O306 1.224 . S
O299 C298 1.278 . S
C300 O301 1.245 . S
C300 O312 1.232 . S
O301 C300 1.245 . S
O302 Co296 2.058 . S
O302 C328 1.269 . S
O303 Co295 2.074 . S
O303 C328 1.257 . S
H304 C329 0.930 . S
H305 C335 0.930 . S
O306 Co295 2.093 . S
O306 C298 1.224 . S
H307 C339 0.929 . S
H308 C341 0.930 . S
H309 C342 0.930 . S
H310 C340 0.929 . S
H311 C343 0.928 . S
O312 Co296 2.057 . S
O312 C300 1.232 . S
H313 C332 0.929 . S
H314 C333 0.929 . S
H315 C345 0.931 . S
H316 C337 0.929 . S
H317 C346 0.930 . S
H318 C338 0.931 . S
O319 Co295 2.097 . S
O319 C347 1.214 . S
H320 C348 0.929 . S
H321 C349 0.929 . S
H322 C350 0.930 . S
H323 C351 0.929 . S
H324 C353 0.930 . S
H325 C330 0.930 . S
H326 C334 0.933 . S
O327 Co296 2.037 . S
O327 C347 1.234 . S
C328 O302 1.269 . S
C328 O303 1.257 . S
C329 H304 0.930 . S
C329 C332 1.388 . S
C329 C334 1.418 . S
C330 H325 0.930 . S
C330 C333 1.404 . S
C330 C334 1.353 . S
N331 Co296 2.145 . S
N331 C332 1.397 . S
N331 C333 1.334 . S
C332 H313 0.929 . S
C332 C329 1.388 . S
C332 N331 1.397 . S
C333 H314 0.929 . S
C333 C330 1.404 . S
C333 N331 1.334 . S
C334 H326 0.933 . S
C334 C329 1.418 . S
C334 C330 1.353 . S
C335 H305 0.930 . S
C335 N336 1.330 . S
C335 C337 1.446 . S
N336 Co295 2.151 . S
N336 C335 1.330 . S
N336 C340 1.418 . S
C337 H316 0.929 . S
C337 C335 1.446 . S
C337 C338 1.332 . S
C338 H318 0.931 . S
C338 C337 1.332 . S
C338 C339 1.267 . S
C339 H307 0.929 . S
C339 C338 1.267 . S
C339 C340 1.251 . S
C340 H310 0.929 . S
C340 N336 1.418 . S
C340 C339 1.251 . S
C341 H308 0.930 . S
C341 C343 1.406 . S
C341 C346 1.261 . S
C342 H309 0.930 . S
C342 N344 1.325 . S
C342 C345 1.357 . S
C343 H311 0.928 . S
C343 C341 1.406 . S
C343 N344 1.261 . S
N344 Co295 2.214 . S
N344 C342 1.325 . S
N344 C343 1.261 . S
C345 H315 0.931 . S
C345 C342 1.357 . S
C345 C346 1.312 . S
C346 H317 0.930 . S
C346 C341 1.261 . S
C346 C345 1.312 . S
C347 O319 1.214 . S
C347 O327 1.234 . S
C348 H320 0.929 . S
C348 C351 1.391 . S
C348 C353 1.391 1_655 S
C349 H321 0.929 . S
C349 C350 1.390 . S
C349 N352 1.391 1_655 S
C350 H322 0.930 . S
C350 C349 1.390 . S
C350 C351 1.392 . S
C351 H323 0.929 . S
C351 C348 1.391 . S
C351 C350 1.392 . S
N352 Co296 2.257 . S
N352 C349 1.391 1_455 S
N352 C353 1.388 . S
C353 H324 0.930 . S
C353 C348 1.391 1_455 S
C353 N352 1.388 . S
Co354 O356 2.143 . S
Co354 O362 2.074 . S
Co354 O365 2.093 . S
Co354 O378 2.097 . S
Co354 N395 2.151 . S
Co354 N403 2.214 . S
Co355 O356 2.160 . S
Co355 O361 2.058 . S
Co355 O371 2.057 . S
Co355 O386 2.037 . S
Co355 N390 2.145 . S
Co355 N411 2.257 . S
O356 Co354 2.143 . S
O356 Co355 2.160 . S
C357 O358 1.278 . S
C357 O365 1.224 . S
O358 C357 1.278 . S
C359 O360 1.245 . S
C359 O371 1.232 . S
O360 C359 1.245 . S
O361 Co355 2.058 . S
O361 C387 1.269 . S
O362 Co354 2.074 . S
O362 C387 1.257 . S
H363 C388 0.930 . S
H364 C394 0.930 . S
O365 Co354 2.093 . S
O365 C357 1.224 . S
H366 C398 0.929 . S
H367 C400 0.930 . S
H368 C401 0.930 . S
H369 C399 0.929 . S
H370 C402 0.928 . S
O371 Co355 2.057 . S
O371 C359 1.232 . S
H372 C391 0.929 . S
H373 C392 0.929 . S
H374 C404 0.931 . S
H375 C396 0.929 . S
H376 C405 0.930 1_455 S
H377 C397 0.931 . S
O378 Co354 2.097 . S
O378 C406 1.214 . S
H379 C407 0.929 . S
H380 C408 0.929 . S
H381 C409 0.930 . S
H382 C410 0.929 . S
H383 C412 0.930 . S
H384 C389 0.930 . S
H385 C393 0.933 . S
O386 Co355 2.037 . S
O386 C406 1.234 . S
C387 O361 1.269 . S
C387 O362 1.257 . S
C388 H363 0.930 . S
C388 C391 1.388 . S
C388 C393 1.418 . S
C389 H384 0.930 . S
C389 C392 1.404 . S
C389 C393 1.353 . S
N390 Co355 2.145 . S
N390 C391 1.397 . S
N390 C392 1.334 . S
C391 H372 0.929 . S
C391 C388 1.388 . S
C391 N390 1.397 . S
C392 H373 0.929 . S
C392 C389 1.404 . S
C392 N390 1.334 . S
C393 H385 0.933 . S
C393 C388 1.418 . S
C393 C389 1.353 . S
C394 H364 0.930 . S
C394 N395 1.330 . S
C394 C396 1.446 . S
N395 Co354 2.151 . S
N395 C394 1.330 . S
N395 C399 1.418 . S
C396 H375 0.929 . S
C396 C394 1.446 . S
C396 C397 1.332 . S
C397 H377 0.931 . S
C397 C396 1.332 . S
C397 C398 1.267 . S
C398 H366 0.929 . S
C398 C397 1.267 . S
C398 C399 1.251 . S
C399 H369 0.929 . S
C399 N395 1.418 . S
C399 C398 1.251 . S
C400 H367 0.930 . S
C400 C402 1.406 . S
C400 C405 1.261 . S
C401 H368 0.930 . S
C401 N403 1.325 . S
C401 C404 1.357 . S
C402 H370 0.928 . S
C402 C400 1.406 . S
C402 N403 1.261 . S
N403 Co354 2.214 . S
N403 C401 1.325 . S
N403 C402 1.261 . S
C404 H374 0.931 . S
C404 C401 1.357 . S
C404 C405 1.312 . S
C405 H376 0.930 1_655 S
C405 C400 1.261 . S
C405 C404 1.312 . S
C406 O378 1.214 . S
C406 O386 1.234 . S
C407 H379 0.929 . S
C407 C410 1.391 . S
C407 C412 1.391 1_565 S
C408 H380 0.929 . S
C408 C409 1.390 . S
C408 N411 1.391 1_565 S
C409 H381 0.930 . S
C409 C408 1.390 . S
C409 C410 1.392 . S
C410 H382 0.929 . S
C410 C407 1.391 . S
C410 C409 1.392 . S
N411 Co355 2.257 . S
N411 C408 1.391 1_545 S
N411 C412 1.388 . S
C412 H383 0.930 . S
C412 C407 1.391 1_545 S
C412 N411 1.388 . S
Co413 O415 2.143 . S
Co413 O421 2.074 1_455 S
Co413 O424 2.093 . S
Co413 O437 2.097 . S
Co413 N454 2.151 1_455 S
Co413 N462 2.214 . S
Co414 O415 2.160 . S
Co414 O420 2.058 . S
Co414 O430 2.057 . S
Co414 O445 2.037 . S
Co414 N449 2.145 . S
Co414 N470 2.257 . S
O415 Co413 2.143 . S
O415 Co414 2.160 . S
C416 O417 1.278 . S
C416 O424 1.224 . S
O417 C416 1.278 . S
C418 O419 1.245 . S
C418 O430 1.232 . S
O419 C418 1.245 . S
O420 Co414 2.058 . S
O420 C446 1.269 1_455 S
O421 Co413 2.074 1_655 S
O421 C446 1.257 . S
H422 C447 0.930 . S
H423 C453 0.930 . S
O424 Co413 2.093 . S
O424 C416 1.224 . S
H425 C457 0.929 . S
H426 C459 0.930 . S
H427 C460 0.930 . S
H428 C458 0.929 . S
H429 C461 0.928 . S
O430 Co414 2.057 . S
O430 C418 1.232 . S
H431 C450 0.929 . S
H432 C451 0.929 . S
H433 C463 0.931 1_455 S
H434 C455 0.929 . S
H435 C464 0.930 1_545 S
H436 C456 0.931 . S
O437 Co413 2.097 . S
O437 C465 1.214 . S
H438 C466 0.929 . S
H439 C467 0.929 . S
H440 C468 0.930 . S
H441 C469 0.929 . S
H442 C471 0.930 . S
H443 C448 0.930 . S
H444 C452 0.930 . S
O445 Co414 2.037 . S
O445 C465 1.234 . S
C446 O420 1.269 1_655 S
C446 O421 1.257 . S
C447 H422 0.930 . S
C447 C450 1.388 . S
C447 C452 1.418 . S
C448 H443 0.930 . S
C448 C451 1.404 . S
C448 C452 1.353 . S
N449 Co414 2.145 . S
N449 C450 1.397 . S
N449 C451 1.334 . S
C450 H431 0.929 . S
C450 C447 1.388 . S
C450 N449 1.397 . S
C451 H432 0.929 . S
C451 C448 1.404 . S
C451 N449 1.334 . S
C452 H444 0.930 . S
C452 C447 1.418 . S
C452 C448 1.353 . S
C453 H423 0.930 . S
C453 N454 1.330 . S
C453 C455 1.446 . S
N454 Co413 2.151 1_655 S
N454 C453 1.330 . S
N454 C458 1.418 . S
C455 H434 0.929 . S
C455 C453 1.446 . S
C455 C456 1.332 . S
C456 H436 0.931 . S
C456 C455 1.332 . S
C456 C457 1.267 . S
C457 H425 0.929 . S
C457 C456 1.267 . S
C457 C458 1.251 . S
C458 H428 0.929 . S
C458 N454 1.418 . S
C458 C457 1.251 . S
C459 H426 0.930 . S
C459 C461 1.406 . S
C459 C464 1.261 . S
C460 H427 0.930 . S
C460 N462 1.325 . S
C460 C463 1.357 1_455 S
C461 H429 0.928 . S
C461 C459 1.406 . S
C461 N462 1.261 1_655 S
N462 Co413 2.214 . S
N462 C460 1.325 . S
N462 C461 1.261 1_455 S
C463 H433 0.931 1_655 S
C463 C460 1.357 1_655 S
C463 C464 1.312 . S
C464 H435 0.930 1_565 S
C464 C459 1.261 . S
C464 C463 1.312 . S
C465 O437 1.214 . S
C465 O445 1.234 . S
C466 H438 0.929 . S
C466 C469 1.391 . S
C466 C471 1.391 . S
C467 H439 0.929 . S
C467 C468 1.390 . S
C467 N470 1.391 . S
C468 H440 0.930 . S
C468 C467 1.390 . S
C468 C469 1.392 . S
C469 H441 0.929 . S
C469 C466 1.391 . S
C469 C468 1.392 . S
N470 Co414 2.257 . S
N470 C467 1.391 . S
N470 C471 1.388 . S
C471 H442 0.930 . S
C471 C466 1.391 . S
C471 N470 1.388 . S
H472 C478 0.930 . S
H473 C482 0.930 . S
H474 C487 0.929 . S
H475 C485 0.929 . S
H476 C480 0.929 . S
H477 C486 0.929 . S
C478 H472 0.930 . S
C478 C479 1.367 . S
C478 C486 1.378 . S
C479 C478 1.367 . S
C479 C487 1.433 . S
C480 H476 0.929 . S
C480 C482 1.378 . S
C480 C484 1.350 . S
C481 C484 1.463 1_554 S
C481 C486 1.350 . S
C481 N489 1.427 . S
C482 H473 0.930 . S
C482 C480 1.378 . S
C482 C483 1.367 . S
C483 C482 1.367 . S
C483 C485 1.433 . S
C484 C480 1.350 . S
C484 C481 1.463 1_556 S
C484 N488 1.427 . S
C485 H475 0.929 . S
C485 C483 1.433 . S
C485 N488 1.384 . S
C486 H477 0.929 . S
C486 C478 1.378 . S
C486 C481 1.350 . S
C487 H474 0.929 . S
C487 C479 1.433 . S
C487 N489 1.384 . S
N488 C484 1.427 . S
N488 C485 1.384 . S
N489 C481 1.427 . S
N489 C487 1.384 . S
H490 C496 0.930 . S
H491 C500 0.930 . S
H492 C505 0.929 . S
H493 C503 0.929 . S
H494 C498 0.929 . S
H495 C504 0.929 . S
C496 H490 0.930 . S
C496 C497 1.367 . S
C496 C504 1.378 . S
C497 C496 1.367 . S
C497 C505 1.433 . S
C498 H494 0.929 . S
C498 C500 1.378 . S
C498 C502 1.350 . S
C499 C502 1.463 . S
C499 C504 1.350 . S
C499 N507 1.427 . S
C500 H491 0.930 . S
C500 C498 1.378 . S
C500 C501 1.367 . S
C501 C500 1.367 . S
C501 C503 1.433 . S
C502 C498 1.350 . S
C502 C499 1.463 . S
C502 N506 1.427 . S
C503 H493 0.929 . S
C503 C501 1.433 . S
C503 N506 1.384 . S
C504 H495 0.929 . S
C504 C496 1.378 . S
C504 C499 1.350 . S
C505 H492 0.929 . S
C505 C497 1.433 . S
C505 N507 1.384 . S
N506 C502 1.427 . S
N506 C503 1.384 . S
N507 C499 1.427 . S
N507 C505 1.384 . S
H508 C514 0.930 . S
H509 C518 0.930 . S
H510 C523 0.929 . S
H511 C521 0.929 . S
H512 C516 0.929 . S
H513 C522 0.929 . S
C514 H508 0.930 . S
C514 C515 1.367 . S
C514 C522 1.378 . S
C515 C514 1.367 . S
C515 C523 1.433 . S
C516 H512 0.929 . S
C516 C518 1.378 . S
C516 C520 1.350 . S
C517 C520 1.463 1_556 S
C517 C522 1.350 . S
C517 N525 1.427 . S
C518 H509 0.930 . S
C518 C516 1.378 . S
C518 C519 1.367 . S
C519 C518 1.367 . S
C519 C521 1.433 . S
C520 C516 1.350 . S
C520 C517 1.463 1_554 S
C520 N524 1.427 . S
C521 H511 0.929 . S
C521 C519 1.433 . S
C521 N524 1.384 . S
C522 H513 0.929 . S
C522 C514 1.378 . S
C522 C517 1.350 . S
C523 H510 0.929 . S
C523 C515 1.433 . S
C523 N525 1.384 . S
N524 C520 1.427 . S
N524 C521 1.384 . S
N525 C517 1.427 . S
N525 C523 1.384 . S
H526 C532 0.930 . S
H527 C536 0.930 . S
H528 C541 0.929 . S
H529 C539 0.929 . S
H530 C534 0.929 . S
H531 C540 0.929 . S
C532 H526 0.930 . S
C532 C533 1.367 . S
C532 C540 1.378 . S
C533 C532 1.367 . S
C533 C541 1.433 . S
C534 H530 0.929 . S
C534 C536 1.378 . S
C534 C538 1.350 . S
C535 C538 1.463 . S
C535 C540 1.350 . S
C535 N543 1.427 . S
C536 H527 0.930 . S
C536 C534 1.378 . S
C536 C537 1.367 . S
C537 C536 1.367 . S
C537 C539 1.433 . S
C538 C534 1.350 . S
C538 C535 1.463 . S
C538 N542 1.427 . S
C539 H529 0.929 . S
C539 C537 1.433 . S
C539 N542 1.384 . S
C540 H531 0.929 . S
C540 C532 1.378 . S
C540 C535 1.350 . S
C541 H528 0.929 . S
C541 C533 1.433 . S
C541 N543 1.384 . S
N542 C538 1.427 . S
N542 C539 1.384 . S
N543 C535 1.427 . S
N543 C541 1.384 . S
H544 C550 0.930 . S
H545 C554 0.930 1_565 S
H546 C559 0.929 . S
H547 C557 0.929 . S
H548 C552 0.914 1_565 S
H549 C558 0.929 . S
C550 H544 0.930 . S
C550 C551 1.367 . S
C550 C558 1.378 . S
C551 C550 1.367 . S
C551 C559 1.433 . S
C552 H548 0.914 1_545 S
C552 C554 1.378 . S
C552 C556 1.350 . S
C553 C556 1.463 . S
C553 C558 1.350 . S
C553 N561 1.427 . S
C554 H545 0.930 1_545 S
C554 C552 1.378 . S
C554 C555 1.367 . S
C555 C554 1.367 . S
C555 C557 1.433 . S
C556 C552 1.350 . S
C556 C553 1.463 . S
C556 N560 1.427 . S
C557 H547 0.929 . S
C557 C555 1.433 . S
C557 N560 1.384 . S
C558 H549 0.929 . S
C558 C550 1.378 . S
C558 C553 1.350 . S
C559 H546 0.929 . S
C559 C551 1.433 . S
C559 N561 1.384 . S
N560 C556 1.427 . S
N560 C557 1.384 . S
N561 C553 1.427 . S
N561 C559 1.384 . S
H562 C568 0.930 . S
H563 C572 0.930 . S
H564 C577 0.929 . S
H565 C575 0.929 . S
H566 C570 0.929 . S
H567 C576 0.929 . S
C568 H562 0.930 . S
C568 C569 1.367 . S
C568 C576 1.378 . S
C569 C568 1.367 . S
C569 C577 1.433 . S
C570 H566 0.929 . S
C570 C572 1.378 . S
C570 C574 1.350 . S
C571 C574 1.463 . S
C571 C576 1.350 . S
C571 N579 1.427 . S
C572 H563 0.930 . S
C572 C570 1.378 . S
C572 C573 1.367 . S
C573 C572 1.367 . S
C573 C575 1.433 . S
C574 C570 1.350 . S
C574 C571 1.463 . S
C574 N578 1.427 . S
C575 H565 0.929 . S
C575 C573 1.433 . S
C575 N578 1.384 . S
C576 H567 0.929 . S
C576 C568 1.378 . S
C576 C571 1.350 . S
C577 H564 0.929 . S
C577 C569 1.433 . S
C577 N579 1.384 . S
N578 C574 1.427 . S
N578 C575 1.384 . S
N579 C571 1.427 . S
N579 C577 1.384 . S
H580 C586 0.930 . S
H581 C590 0.904 1_565 S
H582 C595 0.929 . S
H583 C593 0.929 . S
H584 C588 0.929 1_565 S
H585 C594 0.929 . S
C586 H580 0.930 . S
C586 C587 1.367 . S
C586 C594 1.378 . S
C587 C586 1.367 . S
C587 C595 1.433 . S
C588 H584 0.929 1_545 S
C588 C590 1.387 . S
C588 C592 1.350 . S
C589 C592 1.463 . S
C589 C594 1.350 . S
C589 N597 1.427 . S
C590 H581 0.904 1_545 S
C590 C588 1.387 . S
C590 C591 1.384 . S
C591 C590 1.384 . S
C591 C593 1.433 . S
C592 C588 1.350 . S
C592 C589 1.463 . S
C592 N596 1.427 . S
C593 H583 0.929 . S
C593 C591 1.433 . S
C593 N596 1.384 . S
C594 H585 0.929 . S
C594 C586 1.378 . S
C594 C589 1.350 . S
C595 H582 0.929 . S
C595 C587 1.433 . S
C595 N597 1.384 . S
N596 C592 1.427 . S
N596 C593 1.384 . S
N597 C589 1.427 . S
N597 C595 1.384 . S
H598 C604 0.930 . S
H599 C608 0.930 . S
H600 C613 0.929 . S
H601 C611 0.929 1_655 S
H602 C606 0.929 . S
H603 C612 0.929 . S
C604 H598 0.930 . S
C604 C605 1.367 . S
C604 C612 1.378 . S
C605 C604 1.367 . S
C605 C613 1.433 . S
C606 H602 0.929 . S
C606 C608 1.378 . S
C606 C610 1.350 . S
C607 C610 1.463 . S
C607 C612 1.350 . S
C607 N615 1.427 . S
C608 H599 0.930 . S
C608 C606 1.378 . S
C608 C609 1.367 . S
C609 C608 1.367 . S
C609 C611 1.433 . S
C610 C606 1.350 . S
C610 C607 1.463 . S
C610 N614 1.427 . S
C611 H601 0.929 1_455 S
C611 C609 1.433 . S
C611 N614 1.384 . S
C612 H603 0.929 . S
C612 C604 1.378 . S
C612 C607 1.350 . S
C613 H600 0.929 . S
C613 C605 1.433 . S
C613 N615 1.384 . S
N614 C610 1.427 . S
N614 C611 1.384 . S
N615 C607 1.427 . S
N615 C613 1.384 . S
H616 C622 0.930 . S
H617 C626 0.930 . S
H618 C631 0.929 . S
H619 C629 0.929 . S
H620 C624 0.929 . S
H621 C630 0.929 . S
C622 H616 0.930 . S
C622 C623 1.367 . S
C622 C630 1.378 . S
C623 C622 1.367 . S
C623 C631 1.433 . S
C624 H620 0.929 . S
C624 C626 1.378 . S
C624 C628 1.350 . S
C625 C628 1.463 . S
C625 C630 1.350 . S
C625 N633 1.427 . S
C626 H617 0.930 . S
C626 C624 1.378 . S
C626 C627 1.367 . S
C627 C626 1.367 . S
C627 C629 1.433 . S
C628 C624 1.350 . S
C628 C625 1.463 . S
C628 N632 1.427 . S
C629 H619 0.929 . S
C629 C627 1.433 . S
C629 N632 1.384 . S
C630 H621 0.929 . S
C630 C622 1.378 . S
C630 C625 1.350 . S
C631 H618 0.929 . S
C631 C623 1.433 . S
C631 N633 1.384 . S
N632 C628 1.427 . S
N632 C629 1.384 . S
N633 C625 1.427 . S
N633 C631 1.384 . S
H634 C640 0.930 1_455 S
H635 C644 0.930 . S
H636 C649 0.929 . S
H637 C647 0.929 . S
H638 C642 0.929 . S
H639 C648 0.929 . S
C640 H634 0.930 1_655 S
C640 C641 1.367 . S
C640 C648 1.378 . S
C641 C640 1.367 . S
C641 C649 1.433 . S
C642 H638 0.929 . S
C642 C644 1.378 . S
C642 C646 1.350 . S
C643 C646 1.463 . S
C643 C648 1.350 . S
C643 N651 1.427 . S
C644 H635 0.930 . S
C644 C642 1.378 . S
C644 C645 1.367 . S
C645 C644 1.367 . S
C645 C647 1.433 . S
C646 C642 1.350 . S
C646 C643 1.463 . S
C646 N650 1.427 . S
C647 H637 0.929 . S
C647 C645 1.433 . S
C647 N650 1.384 . S
C648 H639 0.929 . S
C648 C640 1.378 . S
C648 C643 1.350 . S
C649 H636 0.929 . S
C649 C641 1.433 . S
C649 N651 1.384 . S
N650 C646 1.427 . S
N650 C647 1.384 . S
N651 C643 1.427 . S
N651 C649 1.384 . S
H652 C658 0.930 . S
H653 C662 0.930 . S
H654 C667 0.929 . S
H655 C665 0.929 1_545 S
H656 C660 0.929 . S
H657 C666 0.929 . S
C658 H652 0.930 . S
C658 C659 1.367 . S
C658 C666 1.378 . S
C659 C658 1.367 . S
C659 C667 1.433 . S
C660 H656 0.929 . S
C660 C662 1.378 . S
C660 C664 1.350 . S
C661 C664 1.463 . S
C661 C666 1.350 . S
C661 N669 1.427 . S
C662 H653 0.930 . S
C662 C660 1.378 . S
C662 C663 1.367 . S
C663 C662 1.367 . S
C663 C665 1.433 . S
C664 C660 1.350 . S
C664 C661 1.463 . S
C664 N668 1.427 . S
C665 H655 0.929 1_565 S
C665 C663 1.433 . S
C665 N668 1.384 . S
C666 H657 0.929 . S
C666 C658 1.378 . S
C666 C661 1.350 . S
C667 H654 0.929 . S
C667 C659 1.433 . S
C667 N669 1.384 . S
N668 C664 1.427 . S
N668 C665 1.384 . S
N669 C661 1.427 . S
N669 C667 1.384 . S
H670 C676 0.930 . S
H671 C680 0.930 . S
H672 C685 0.929 . S
H673 C683 0.929 . S
H674 C678 0.929 . S
H675 C684 0.929 . S
C676 H670 0.930 . S
C676 C677 1.367 . S
C676 C684 1.378 . S
C677 C676 1.367 . S
C677 C685 1.433 . S
C678 H674 0.929 . S
C678 C680 1.378 . S
C678 C682 1.350 . S
C679 C682 1.463 . S
C679 C684 1.350 . S
C679 N687 1.427 . S
C680 H671 0.930 . S
C680 C678 1.378 . S
C680 C681 1.367 . S
C681 C680 1.367 . S
C681 C683 1.433 . S
C682 C678 1.350 . S
C682 C679 1.463 . S
C682 N686 1.427 . S
C683 H673 0.929 . S
C683 C681 1.433 . S
C683 N686 1.384 . S
C684 H675 0.929 . S
C684 C676 1.378 . S
C684 C679 1.350 . S
C685 H672 0.929 . S
C685 C677 1.433 . S
C685 N687 1.384 . S
N686 C682 1.427 . S
N686 C683 1.384 . S
N687 C679 1.427 . S
N687 C685 1.384 . S
H688 C694 0.930 . S
H689 C698 0.930 . S
H690 C703 0.929 . S
H691 C701 0.929 . S
H692 C696 0.929 . S
H693 C702 0.929 . S
C694 H688 0.930 . S
C694 C695 1.367 1_565 S
C694 C702 1.378 . S
C695 C694 1.367 1_545 S
C695 C703 1.433 . S
C696 H692 0.929 . S
C696 C698 1.378 1_655 S
C696 C700 1.350 . S
C697 C700 1.463 . S
C697 C702 1.350 . S
C697 N705 1.427 . S
C698 H689 0.930 . S
C698 C696 1.378 1_455 S
C698 C699 1.367 . S
C699 C698 1.367 . S
C699 C701 1.433 1_455 S
C700 C696 1.350 . S
C700 C697 1.463 . S
C700 N704 1.427 . S
C701 H691 0.929 . S
C701 C699 1.433 1_655 S
C701 N704 1.384 . S
C702 H693 0.929 . S
C702 C694 1.378 . S
C702 C697 1.350 . S
C703 H690 0.929 . S
C703 C695 1.433 . S
C703 N705 1.384 1_545 S
N704 C700 1.427 . S
N704 C701 1.384 . S
N705 C697 1.427 . S
N705 C703 1.384 1_565 S
H706 C712 0.930 . S
H707 C716 0.930 . S
H708 C721 0.929 . S
H709 C719 0.929 . S
H710 C714 0.929 . S
H711 C720 0.929 . S
C712 H706 0.930 . S
C712 C713 1.367 1_565 S
C712 C720 1.378 . S
C713 C712 1.367 1_545 S
C713 C721 1.433 . S
C714 H710 0.929 . S
C714 C716 1.378 . S
C714 C718 1.350 . S
C715 C718 1.463 . S
C715 C720 1.350 . S
C715 N723 1.427 . S
C716 H707 0.930 . S
C716 C714 1.378 . S
C716 C717 1.367 . S
C717 C716 1.367 . S
C717 C719 1.433 . S
C718 C714 1.350 . S
C718 C715 1.463 . S
C718 N722 1.427 . S
C719 H709 0.929 . S
C719 C717 1.433 . S
C719 N722 1.384 . S
C720 H711 0.929 . S
C720 C712 1.378 . S
C720 C715 1.350 . S
C721 H708 0.929 . S
C721 C713 1.433 . S
C721 N723 1.384 1_545 S
N722 C718 1.427 . S
N722 C719 1.384 . S
N723 C715 1.427 . S
N723 C721 1.384 1_565 S
H724 C730 0.930 . S
H725 C734 0.930 . S
H726 C739 0.929 . S
H727 C737 0.929 . S
H728 C732 0.929 . S
H729 C738 0.929 . S
C730 H724 0.930 . S
C730 C731 1.367 . S
C730 C738 1.378 . S
C731 C730 1.367 . S
C731 C739 1.433 . S
C732 H728 0.929 . S
C732 C734 1.378 . S
C732 C736 1.350 . S
C733 C736 1.463 . S
C733 C738 1.350 . S
C733 N741 1.427 . S
C734 H725 0.930 . S
C734 C732 1.378 . S
C734 C735 1.367 . S
C735 C734 1.367 . S
C735 C737 1.433 . S
C736 C732 1.350 . S
C736 C733 1.463 . S
C736 N740 1.427 . S
C737 H727 0.929 . S
C737 C735 1.433 . S
C737 N740 1.384 . S
C738 H729 0.929 . S
C738 C730 1.378 . S
C738 C733 1.350 . S
C739 H726 0.929 . S
C739 C731 1.433 . S
C739 N741 1.384 . S
N740 C736 1.427 . S
N740 C737 1.384 . S
N741 C733 1.427 . S
N741 C739 1.384 . S
H742 C748 0.930 . S
H743 C752 0.930 . S
H744 C757 0.929 . S
H745 C755 0.929 . S
H746 C750 0.929 . S
H747 C756 0.929 . S
C748 H742 0.930 . S
C748 C749 1.367 . S
C748 C756 1.378 1_455 S
C749 C748 1.367 . S
C749 C757 1.433 1_455 S
C750 H746 0.929 . S
C750 C752 1.378 . S
C750 C754 1.350 . S
C751 C754 1.463 . S
C751 C756 1.350 . S
C751 N759 1.427 . S
C752 H743 0.930 . S
C752 C750 1.378 . S
C752 C753 1.367 . S
C753 C752 1.367 . S
C753 C755 1.433 . S
C754 C750 1.350 . S
C754 C751 1.463 . S
C754 N758 1.427 . S
C755 H745 0.929 . S
C755 C753 1.433 . S
C755 N758 1.384 . S
C756 H747 0.929 . S
C756 C748 1.378 1_655 S
C756 C751 1.350 . S
C757 H744 0.929 . S
C757 C749 1.433 1_655 S
C757 N759 1.384 . S
N758 C754 1.427 . S
N758 C755 1.384 . S
N759 C751 1.427 . S
N759 C757 1.384 . S
C479 C3 1.563 . S
C483 C239 1.561 . S
C497 C62 1.565 . S
C501 C298 1.562 . S
C515 C357 1.563 . S
C519 C121 1.561 . S
C533 C416 1.566 . S
C537 C180 1.563 . S
C551 C5 1.584 . S
C555 C123 1.585 . S
C569 C64 1.576 . S
C573 C182 1.578 . S
C587 C359 1.585 . S
C591 C241 1.584 . S
C605 C300 1.575 . S
C609 C418 1.574 . S
C623 C328 0.942 . S
C627 C33 0.953 . S
C641 C92 0.949 . S
C645 C387 0.959 . S
C659 C446 0.941 . S
C663 C151 0.952 . S
C677 C210 0.956 . S
C681 C269 0.959 . S
C695 C406 1.749 . S
C699 C229 1.751 . S
C713 C52 1.748 . S
C717 C465 1.750 . S
C731 C111 1.747 . S
C735 C288 1.750 . S
C749 C347 1.746 . S
C753 C170 1.746 . S
