# Generated by pormake.
# Topology whw, (6)-cn, num edge types: 1
# Building blocks:
#     Node 0, Type 0, BuildingBlock: INOVEN_clean_sbu_0, # of connection points: 6
#     Node 1, Type 0, BuildingBlock: INOVEN_clean_sbu_0, # of connection points: 6
#     Node 2, Type 0, BuildingBlock: INOVEN_clean_sbu_0, # of connection points: 6
#     Node 3, Type 0, BuildingBlock: INOVEN_clean_sbu_0, # of connection points: 6
#     Node 4, Type 0, BuildingBlock: INOVEN_clean_sbu_0, # of connection points: 6
#     Node 5, Type 0, BuildingBlock: INOVEN_clean_sbu_0, # of connection points: 6
#     Node 6, Type 0, BuildingBlock: INOVEN_clean_sbu_0, # of connection points: 6
#     Node 7, Type 0, BuildingBlock: INOVEN_clean_sbu_0, # of connection points: 6
#     Node 8, Type 0, BuildingBlock: INOVEN_clean_sbu_0, # of connection points: 6
#     Node 9, Type 0, BuildingBlock: INOVEN_clean_sbu_0, # of connection points: 6
#     Node 10, Type 0, BuildingBlock: INOVEN_clean_sbu_0, # of connection points: 6
#     Node 11, Type 0, BuildingBlock: INOVEN_clean_sbu_0, # of connection points: 6
#     Node 12, Type 0, BuildingBlock: INOVEN_clean_sbu_0, # of connection points: 6
#     Node 13, Type 0, BuildingBlock: INOVEN_clean_sbu_0, # of connection points: 6
#     Node 14, Type 0, BuildingBlock: INOVEN_clean_sbu_0, # of connection points: 6
#     Node 15, Type 0, BuildingBlock: INOVEN_clean_sbu_0, # of connection points: 6
#     Edge 16, Type (0, 0), BuildingBlock: UVAHIK_clean_linker_0, # of connection points: 2
#     Edge 17, Type (0, 0), BuildingBlock: UVAHIK_clean_linker_0, # of connection points: 2
#     Edge 18, Type (0, 0), BuildingBlock: UVAHIK_clean_linker_0, # of connection points: 2
#     Edge 19, Type (0, 0), BuildingBlock: UVAHIK_clean_linker_0, # of connection points: 2
#     Edge 20, Type (0, 0), BuildingBlock: UVAHIK_clean_linker_0, # of connection points: 2
#     Edge 21, Type (0, 0), BuildingBlock: UVAHIK_clean_linker_0, # of connection points: 2
#     Edge 22, Type (0, 0), BuildingBlock: UVAHIK_clean_linker_0, # of connection points: 2
#     Edge 23, Type (0, 0), BuildingBlock: UVAHIK_clean_linker_0, # of connection points: 2
#     Edge 24, Type (0, 0), BuildingBlock: UVAHIK_clean_linker_0, # of connection points: 2
#     Edge 25, Type (0, 0), BuildingBlock: UVAHIK_clean_linker_0, # of connection points: 2
#     Edge 26, Type (0, 0), BuildingBlock: UVAHIK_clean_linker_0, # of connection points: 2
#     Edge 27, Type (0, 0), BuildingBlock: UVAHIK_clean_linker_0, # of connection points: 2
#     Edge 28, Type (0, 0), BuildingBlock: UVAHIK_clean_linker_0, # of connection points: 2
#     Edge 29, Type (0, 0), BuildingBlock: UVAHIK_clean_linker_0, # of connection points: 2
#     Edge 30, Type (0, 0), BuildingBlock: UVAHIK_clean_linker_0, # of connection points: 2
#     Edge 31, Type (0, 0), BuildingBlock: UVAHIK_clean_linker_0, # of connection points: 2
#     Edge 32, Type (0, 0), BuildingBlock: UVAHIK_clean_linker_0, # of connection points: 2
#     Edge 33, Type (0, 0), BuildingBlock: UVAHIK_clean_linker_0, # of connection points: 2
#     Edge 34, Type (0, 0), BuildingBlock: UVAHIK_clean_linker_0, # of connection points: 2
#     Edge 35, Type (0, 0), BuildingBlock: UVAHIK_clean_linker_0, # of connection points: 2
#     Edge 36, Type (0, 0), BuildingBlock: UVAHIK_clean_linker_0, # of connection points: 2
#     Edge 37, Type (0, 0), BuildingBlock: UVAHIK_clean_linker_0, # of connection points: 2
#     Edge 38, Type (0, 0), BuildingBlock: UVAHIK_clean_linker_0, # of connection points: 2
#     Edge 39, Type (0, 0), BuildingBlock: UVAHIK_clean_linker_0, # of connection points: 2
#     Edge 40, Type (0, 0), BuildingBlock: UVAHIK_clean_linker_0, # of connection points: 2
#     Edge 41, Type (0, 0), BuildingBlock: UVAHIK_clean_linker_0, # of connection points: 2
#     Edge 42, Type (0, 0), BuildingBlock: UVAHIK_clean_linker_0, # of connection points: 2
#     Edge 43, Type (0, 0), BuildingBlock: UVAHIK_clean_linker_0, # of connection points: 2
#     Edge 44, Type (0, 0), BuildingBlock: UVAHIK_clean_linker_0, # of connection points: 2
#     Edge 45, Type (0, 0), BuildingBlock: UVAHIK_clean_linker_0, # of connection points: 2
#     Edge 46, Type (0, 0), BuildingBlock: UVAHIK_clean_linker_0, # of connection points: 2
#     Edge 47, Type (0, 0), BuildingBlock: UVAHIK_clean_linker_0, # of connection points: 2
#     Edge 48, Type (0, 0), BuildingBlock: UVAHIK_clean_linker_0, # of connection points: 2
#     Edge 49, Type (0, 0), BuildingBlock: UVAHIK_clean_linker_0, # of connection points: 2
#     Edge 50, Type (0, 0), BuildingBlock: UVAHIK_clean_linker_0, # of connection points: 2
#     Edge 51, Type (0, 0), BuildingBlock: UVAHIK_clean_linker_0, # of connection points: 2
#     Edge 52, Type (0, 0), BuildingBlock: UVAHIK_clean_linker_0, # of connection points: 2
#     Edge 53, Type (0, 0), BuildingBlock: UVAHIK_clean_linker_0, # of connection points: 2
#     Edge 54, Type (0, 0), BuildingBlock: UVAHIK_clean_linker_0, # of connection points: 2
#     Edge 55, Type (0, 0), BuildingBlock: UVAHIK_clean_linker_0, # of connection points: 2
#     Edge 56, Type (0, 0), BuildingBlock: UVAHIK_clean_linker_0, # of connection points: 2
#     Edge 57, Type (0, 0), BuildingBlock: UVAHIK_clean_linker_0, # of connection points: 2
#     Edge 58, Type (0, 0), BuildingBlock: UVAHIK_clean_linker_0, # of connection points: 2
#     Edge 59, Type (0, 0), BuildingBlock: UVAHIK_clean_linker_0, # of connection points: 2
#     Edge 60, Type (0, 0), BuildingBlock: UVAHIK_clean_linker_0, # of connection points: 2
#     Edge 61, Type (0, 0), BuildingBlock: UVAHIK_clean_linker_0, # of connection points: 2
#     Edge 62, Type (0, 0), BuildingBlock: UVAHIK_clean_linker_0, # of connection points: 2
#     Edge 63, Type (0, 0), BuildingBlock: UVAHIK_clean_linker_0, # of connection points: 2
# Relax obj value: 0.354
# Max RMSD: 0.212
# Mean RMSD: 0.197
data_MOF--net-whw--node1-INOVEN_clean_sbu_0--edge1-UVAHIK_clean_linker_0
_symmetry_space_group_name_H-M    P1
_symmetry_Int_Tables_number       1
_symmetry_cell_setting            triclinic
loop_
_symmetry_equiv_pos_as_xyz
'x, y, z'
_cell_length_a     60.027293
_cell_length_b     59.411112
_cell_length_c     42.130903
_cell_angle_alpha  90.039311
_cell_angle_beta   80.540241
_cell_angle_gamma 98.408366
loop_
_atom_site_label
_atom_site_type_symbol
_atom_site_fract_x
_atom_site_fract_y
_atom_site_fract_z
_atom_type_partial_charge
Gd0 Gd 0.01251 0.11646 0.1879 0.0
Gd1 Gd 0.99084 0.12049 0.12197 0.0
C2 C 0.95686 0.11137 0.18925 0.0
C3 C 0.02558 0.1285 0.24256 0.0
C4 C 0.03288 0.13617 0.27427 0.0
C5 C 0.04499 0.12306 0.29136 0.0
C6 C 0.0282 0.15711 0.28762 0.0
C7 C 0.04731 0.15153 0.33421 0.0
C8 C 0.03526 0.16463 0.3168 0.0
C9 C 0.05199 0.13053 0.32066 0.0
C10 C 0.0057 0.07777 0.15418 0.0
C11 C 0.04485 0.12096 0.12073 0.0
C12 C 0.98091 0.11813 0.06369 0.0
C13 C 0.97168 0.12889 0.03726 0.0
C14 C 0.97922 0.15166 1.02668 0.0
C15 C 0.95723 0.11525 1.01948 0.0
C16 C 0.95914 0.14632 0.98005 0.0
C17 C 0.95103 0.12378 0.99149 0.0
C18 C 0.97301 0.16023 0.99862 0.0
C19 C 0.00312 0.15986 0.15201 0.0
O20 O 0.97458 0.11263 0.20472 0.0
O21 O 0.95843 0.11318 0.15757 0.0
O22 O 0.03029 0.10973 0.22805 0.0
O23 O 0.01339 0.14017 0.22744 0.0
O24 O 0.02068 0.08131 0.17364 0.0
O25 O -0.00647 0.09355 0.15677 0.0
O26 O 0.02674 0.11209 0.10807 0.0
O27 O 0.04306 0.128 0.15074 0.0
O28 O 0.00046 0.12773 0.07074 0.0
O29 O 0.96695 0.10872 0.08899 0.0
O30 O 0.98765 0.15741 0.1335 0.0
O31 O 0.0115 0.14186 0.15093 0.0
H32 H 0.04907 0.10689 0.2821 0.0
H33 H 0.01914 0.16794 0.27533 0.0
H34 H 0.0315 0.18106 0.32532 0.0
H35 H 0.06086 0.11949 0.33286 0.0
H36 H 0.99052 0.1627 0.03952 0.0
H37 H 0.95122 0.09762 1.0267 0.0
H38 H 0.93995 0.11249 0.97866 0.0
H39 H 0.97986 0.1776 0.9909 0.0
Gd40 Gd 0.13024 0.7713 0.44896 0.0
Gd41 Gd 0.11961 0.72487 0.42945 0.0
C42 C 0.12304 0.72998 0.50385 0.0
C43 C 0.13851 0.81005 0.47518 0.0
C44 C 0.13653 0.818 0.50805 0.0
C45 C 0.15288 0.83556 0.51555 0.0
C46 C 0.11998 0.80676 0.5325 0.0
C47 C 0.1365 0.8305 0.57212 0.0
C48 C 0.11987 0.81309 0.56435 0.0
C49 C 0.15292 0.84175 0.54739 0.0
C50 C 0.16362 0.75881 0.40386 0.0
C51 C 0.11189 0.76596 0.3822 0.0
C52 C 0.12045 0.68656 0.40171 0.0
C53 C 0.12846 0.67996 0.36908 0.0
C54 C 0.1238 0.69162 0.34257 0.0
C55 C 0.14177 0.66241 0.36437 0.0
C56 C 0.14389 0.66662 0.30678 0.0
C57 C 0.14956 0.65583 0.33335 0.0
C58 C 0.13136 0.6849 0.31159 0.0
C59 C 0.08469 0.7388 0.46881 0.0
O60 O 0.12381 0.75206 0.49801 0.0
O61 O 0.12503 0.71602 0.47951 0.0
O62 O 0.15384 0.79655 0.46784 0.0
O63 O 0.11936 0.80319 0.46461 0.0
O64 O 0.15629 0.77815 0.4047 0.0
O65 O 0.15321 0.74636 0.4279 0.0
O66 O 0.11575 0.74457 0.38425 0.0
O67 O 0.1137 0.7796 0.4068 0.0
O68 O 0.10241 0.69694 0.40582 0.0
O69 O 0.13663 0.6958 0.41702 0.0
O70 O 0.08865 0.71795 0.46809 0.0
O71 O 0.09758 0.75057 0.44641 0.0
H72 H 0.166 0.84404 0.49687 0.0
H73 H 0.10742 0.79289 0.52706 0.0
H74 H 0.10682 0.8043 0.58285 0.0
H75 H 0.16617 0.85494 0.5527 0.0
H76 H 0.11391 0.70554 0.34576 0.0
H77 H 0.14588 0.65364 0.38471 0.0
H78 H 0.15942 0.64188 0.33015 0.0
H79 H 0.12644 0.69331 0.29158 0.0
Gd80 Gd 0.49098 0.84736 0.64703 0.0
Gd81 Gd 0.53224 0.87479 0.66062 0.0
C82 C 0.53122 0.8514 0.58889 0.0
C83 C 0.44964 0.83629 0.63822 0.0
C84 C 0.43878 0.83986 0.61026 0.0
C85 C 0.44486 0.82893 0.58124 0.0
C86 C 0.42455 0.8567 0.61126 0.0
C87 C 0.42437 0.85313 0.55405 0.0
C88 C 0.41753 0.86341 0.58331 0.0
C89 C 0.43762 0.83546 0.55341 0.0
C90 C 0.52174 0.82345 0.66539 0.0
C91 C 0.49184 0.85867 0.72263 0.0
C92 C 0.57293 0.8908 0.67003 0.0
C93 C 0.58338 0.8901 0.69885 0.0
C94 C 0.60665 0.8978 0.69812 0.0
C95 C 0.56968 0.88162 0.72768 0.0
C96 C 0.60212 0.88898 0.75537 0.0
C97 C 0.57895 0.88084 0.75558 0.0
C98 C 0.61602 0.89727 0.72635 0.0
C99 C 0.50484 0.90097 0.63707 0.0
O100 O 0.50882 0.84812 0.59643 0.0
O101 O 0.54396 0.8602 0.61032 0.0
O102 O 0.46434 0.82177 0.63511 0.0
O103 O 0.4567 0.8551 0.65225 0.0
O104 O 0.50882 0.8157 0.6447 0.0
O105 O 0.51595 0.84144 0.67676 0.0
O106 O 0.51394 0.86638 0.71323 0.0
O107 O 0.47911 0.85288 0.70033 0.0
O108 O 0.55631 0.90298 0.67249 0.0
O109 O 0.56791 0.87104 0.65724 0.0
O110 O 0.5145 0.9056 0.66209 0.0
O111 O 0.50877 0.88156 0.62716 0.0
H112 H 0.45583 0.81589 0.57969 0.0
H113 H 0.41972 0.86542 0.63336 0.0
H114 H 0.40739 0.87714 0.58444 0.0
H115 H 0.44264 0.82683 0.5313 0.0
H116 H 0.61743 0.90435 0.67592 0.0
H117 H 0.55173 0.87569 0.72873 0.0
H118 H 0.56792 0.87376 0.77732 0.0
H119 H 0.63396 0.9036 0.72561 0.0
Gd120 Gd 0.39812 0.21846 0.86197 0.0
Gd121 Gd 0.40479 0.26648 0.83652 0.0
C122 C 0.40312 0.26018 0.91336 0.0
C123 C 0.39167 0.17893 0.89 0.0
C124 C 0.39223 0.17074 0.92228 0.0
C125 C 0.37937 0.14988 0.93346 0.0
C126 C 0.40306 0.18498 0.94333 0.0
C127 C 0.38768 0.15789 0.98713 0.0
C128 C 0.4011 0.17851 0.97543 0.0
C129 C 0.37703 0.14349 0.96579 0.0
C130 C 0.3629 0.23037 0.83633 0.0
C131 C 0.41476 0.22501 0.78658 0.0
C132 C 0.39645 0.30215 0.80905 0.0
C133 C 0.38438 0.30442 0.78222 0.0
C134 C 0.38462 0.32583 0.76851 0.0
C135 C 0.37359 0.2849 0.7691 0.0
C136 C 0.3648 0.30809 0.72687 0.0
C137 C 0.3637 0.28671 0.74172 0.0
C138 C 0.37493 0.32768 0.74094 0.0
C139 C 0.44282 0.25682 0.85562 0.0
O140 O 0.40208 0.23807 0.90794 0.0
O141 O 0.40211 0.27473 0.88986 0.0
O142 O 0.37535 0.19101 0.88853 0.0
O143 O 0.41126 0.18778 0.87297 0.0
O144 O 0.37078 0.21141 0.83132 0.0
O145 O 0.37403 0.24243 0.85482 0.0
O146 O 0.40885 0.2457 0.79046 0.0
O147 O 0.41492 0.21182 0.81179 0.0
O148 O 0.41578 0.29409 0.80155 0.0
O149 O 0.38364 0.29273 0.83519 0.0
O150 O 0.43816 0.27731 0.85257 0.0
O151 O 0.42871 0.24286 0.84336 0.0
H152 H 0.37047 0.13898 0.91749 0.0
H153 H 0.41238 0.20141 0.93513 0.0
H154 H 0.40984 0.18982 0.99113 0.0
H155 H 0.36633 0.12766 0.97423 0.0
H156 H 0.39302 0.34099 0.7784 0.0
H157 H 0.37349 0.26821 0.77942 0.0
H158 H 0.35596 0.27136 0.73152 0.0
H159 H 0.37653 0.34435 0.72969 0.0
Gd160 Gd 0.01985 0.87571 0.94187 0.0
Gd161 Gd -0.0008 0.87211 0.87601 0.0
C162 C 0.96891 0.8856 0.94139 0.0
C163 C 0.04362 0.87572 0.98848 0.0
C164 C 0.04471 0.86627 1.02138 0.0
C165 C 0.05056 0.84437 1.02501 0.0
C166 C 0.04295 0.87991 0.04876 0.0
C167 C 0.05338 0.85022 0.08216 0.0
C168 C 0.04704 0.872 0.07862 0.0
C169 C 0.05485 0.83655 0.05466 0.0
C170 C 0.98918 0.83912 0.93672 0.0
C171 C 0.05115 0.86599 0.87608 0.0
C172 C 0.98609 0.86003 0.82122 0.0
C173 C 0.97843 0.85298 0.78937 0.0
C174 C 0.98657 0.86605 0.76072 0.0
C175 C 0.96382 0.83241 0.78671 0.0
C176 C 0.96601 0.83808 0.72785 0.0
C177 C 0.95777 0.82513 0.75675 0.0
C178 C 0.98048 0.85883 0.73075 0.0
C179 C 0.01297 0.91489 0.89707 0.0
O180 O 0.98792 0.89193 0.95373 0.0
O181 O 0.96871 0.8747 0.91376 0.0
O182 O 0.04436 0.86142 0.96473 0.0
O183 O 0.03078 0.89151 0.98515 0.0
O184 O -0.00805 0.84895 0.96328 0.0
O185 O 0.00425 0.84759 0.91352 0.0
O186 O 0.03264 0.85916 0.86366 0.0
O187 O 0.05063 0.87701 0.90323 0.0
O188 O 0.00256 0.87683 0.82356 0.0
O189 O 0.97623 0.85042 0.84912 0.0
O190 O -0.00343 0.90999 0.88032 0.0
O191 O 0.02225 0.89739 0.89898 0.0
H192 H 0.05259 0.83335 1.00458 0.0
H193 H 0.03886 0.89698 0.04699 0.0
H194 H 0.04525 0.88315 0.09889 0.0
H195 H 0.06008 0.81992 0.05548 0.0
H196 H -0.00205 0.88191 0.76133 0.0
H197 H 0.95719 0.82164 0.80788 0.0
H198 H 0.94636 0.80928 0.75652 0.0
H199 H 0.98768 0.86947 0.70967 0.0
Gd200 Gd 0.39736 0.77171 0.12348 0.0
Gd201 Gd 0.38795 0.72449 0.10499 0.0
C202 C 0.40572 0.73153 0.17199 0.0
C203 C 0.39634 0.81039 0.15045 0.0
C204 C 0.39099 0.81746 0.18353 0.0
C205 C 0.39706 0.80543 0.20861 0.0
C206 C 0.37923 0.83602 0.19024 0.0
C207 C 0.38071 0.83131 0.24694 0.0
C208 C 0.37407 0.84292 0.22185 0.0
C209 C 0.39205 0.81237 0.2401 0.0
C210 C 0.43282 0.75792 0.08514 0.0
C211 C 0.39418 0.7652 0.04923 0.0
C212 C 0.38157 0.68507 0.07979 0.0
C213 C 0.3846 0.67674 0.04717 0.0
C214 C 0.37327 0.65537 0.04086 0.0
C215 C 0.39711 0.69088 1.02186 0.0
C216 C 0.386 0.66266 0.98359 0.0
C217 C 0.39767 0.68397 0.99024 0.0
C218 C 0.37408 0.64827 1.00924 0.0
C219 C 0.35393 0.73683 0.14905 0.0
O220 O 0.40168 0.75279 0.16914 0.0
O221 O 0.4042 0.71742 0.14787 0.0
O222 O 0.415 0.80115 0.14341 0.0
O223 O 0.37903 0.7996 0.13866 0.0
O224 O 0.42832 0.77856 0.08488 0.0
O225 O 0.41998 0.74626 0.10773 0.0
O226 O 0.39407 0.74332 0.05571 0.0
O227 O 0.39157 0.77947 0.07316 0.0
O228 O 0.36562 0.69803 0.08599 0.0
O229 O 0.40032 0.69301 0.0907 0.0
O230 O 0.36154 0.71765 0.14876 0.0
O231 O 0.3643 0.74915 0.12482 0.0
H232 H 0.406 0.79093 0.20384 0.0
H233 H 0.37419 0.84521 0.17104 0.0
H234 H 0.36511 0.85743 0.22664 0.0
H235 H 0.39771 0.80333 0.25891 0.0
H236 H 0.36348 0.64438 0.06032 0.0
H237 H 0.40599 0.70744 1.0265 0.0
H238 H 0.40677 0.69557 0.97103 0.0
H239 H 0.36528 0.6316 1.00488 0.0
Gd240 Gd 0.4904 0.12086 0.39403 0.0
Gd241 Gd 0.53249 0.14655 0.40705 0.0
C242 C 0.53025 0.13595 0.33157 0.0
C243 C 0.44922 0.10605 0.38556 0.0
C244 C 0.43835 0.10775 0.35735 0.0
C245 C 0.41571 0.09785 0.35726 0.0
C246 C 0.4513 0.11868 0.32953 0.0
C247 C 0.41961 0.10903 0.30091 0.0
C248 C 0.44201 0.11952 0.30166 0.0
C249 C 0.40632 0.0985 0.32906 0.0
C250 C 0.51701 0.09322 0.41672 0.0
C251 C 0.49258 0.14321 0.46583 0.0
C252 C 0.57397 0.15662 0.41561 0.0
C253 C 0.58438 0.15295 0.44394 0.0
C254 C 0.57831 0.16427 0.47263 0.0
C255 C 0.59781 0.13547 0.44379 0.0
C256 C 0.59717 0.13927 0.50112 0.0
C257 C 0.60403 0.12857 0.47222 0.0
C258 C 0.58474 0.15752 0.50095 0.0
C259 C 0.50247 0.17209 0.39046 0.0
O260 O 0.50798 0.12961 0.34143 0.0
O261 O 0.54354 0.14057 0.35352 0.0
O262 O 0.4656 0.09355 0.38166 0.0
O263 O 0.45484 0.12538 0.39915 0.0
O264 O 0.50695 0.08915 0.39195 0.0
O265 O 0.51386 0.11276 0.42682 0.0
O266 O 0.51498 0.14561 0.45804 0.0
O267 O 0.47949 0.13538 0.44439 0.0
O268 O 0.55985 0.17169 0.41804 0.0
O269 O 0.5664 0.13782 0.40201 0.0
O270 O 0.51519 0.1785 0.41194 0.0
O271 O 0.50766 0.15416 0.37807 0.0
H272 H 0.40553 0.08931 0.37868 0.0
H273 H 0.46879 0.12623 0.32913 0.0
H274 H 0.45248 0.12828 0.2806 0.0
H275 H 0.38897 0.09034 0.32902 0.0
H276 H 0.56793 0.17779 0.47355 0.0
H277 H 0.60257 0.12642 0.42197 0.0
H278 H 0.61359 0.11442 0.47176 0.0
H279 H 0.57977 0.16646 0.5228 0.0
Gd280 Gd 0.12058 0.22687 0.71761 0.0
Gd281 Gd 0.12011 0.27423 0.69423 0.0
C282 C 0.10786 0.26654 0.7696 0.0
C283 C 0.13472 0.19335 0.74269 0.0
C284 C 0.14655 0.19287 0.7702 0.0
C285 C 0.14504 0.17256 0.7876 0.0
C286 C 0.15636 0.21341 0.78199 0.0
C287 C 0.16011 0.19379 0.83071 0.0
C288 C 0.16331 0.21386 0.81193 0.0
C289 C 0.15182 0.17298 0.81773 0.0
C290 C 0.07935 0.23177 0.70499 0.0
C291 C 0.11737 0.23344 0.64164 0.0
C292 C 0.12131 0.31424 0.66977 0.0
C293 C 0.12277 0.32397 0.63774 0.0
C294 C 0.13802 0.34395 0.62913 0.0
C295 C 0.1117 0.31218 0.61457 0.0
C296 C 0.13158 0.34027 0.57398 0.0
C297 C 0.11584 0.32045 0.58292 0.0
C298 C 0.14258 0.35195 0.59743 0.0
C299 C 0.15931 0.26638 0.71331 0.0
O300 O 0.11688 0.24737 0.76445 0.0
O301 O 0.10392 0.27841 0.74518 0.0
O302 O 0.11373 0.19763 0.75002 0.0
O303 O 0.14636 0.205 0.71745 0.0
O304 O 0.08687 0.21236 0.70542 0.0
O305 O 0.0929 0.24709 0.71605 0.0
O306 O 0.11639 0.25521 0.64793 0.0
O307 O 0.12102 0.21925 0.66409 0.0
O308 O 0.13946 0.30569 0.67389 0.0
O309 O 0.10226 0.30152 0.6823 0.0
O310 O 0.14916 0.28367 0.72155 0.0
O311 O 0.14795 0.25355 0.69591 0.0
H312 H 0.13723 0.15664 0.7789 0.0
H313 H 0.15723 0.22931 0.76906 0.0
H314 H 0.16971 0.23009 0.8213 0.0
H315 H 0.14878 0.15729 0.83187 0.0
H316 H 0.14709 0.35289 0.64672 0.0
H317 H 0.10037 0.29635 0.62073 0.0
H318 H 0.10684 0.31123 0.56551 0.0
H319 H 0.15517 0.36696 0.59122 0.0
Gd320 Gd 0.90074 0.27092 0.62669 0.0
Gd321 Gd 0.89166 0.22359 0.60717 0.0
C322 C 0.90868 0.23023 0.67481 0.0
C323 C 0.89835 0.3091 0.65454 0.0
C324 C 0.89091 0.31559 0.68748 0.0
C325 C 0.89557 0.30337 0.71345 0.0
C326 C 0.87877 0.33398 0.69307 0.0
C327 C 0.87794 0.32934 0.75042 0.0
C328 C 0.87227 0.34082 0.72443 0.0
C329 C 0.8892 0.31024 0.74473 0.0
C330 C 0.93659 0.25729 0.58922 0.0
C331 C 0.89929 0.26471 0.55154 0.0
C332 C 0.88506 0.18413 0.58209 0.0
C333 C 0.88658 0.17534 0.54972 0.0
C334 C 0.87432 0.15407 0.54495 0.0
C335 C 0.89804 0.18905 0.52328 0.0
C336 C 0.88382 0.16071 0.48726 0.0
C337 C 0.8966 0.1818 0.49216 0.0
C338 C 0.87304 0.1467 0.51383 0.0
C339 C 0.85749 0.23579 0.65115 0.0
O340 O 0.90433 0.25143 0.67231 0.0
O341 O 0.9078 0.21643 0.6502 0.0
O342 O 0.91705 0.29976 0.64956 0.0
O343 O 0.8821 0.29887 0.6401 0.0
O344 O 0.93244 0.27808 0.58935 0.0
O345 O 0.92331 0.2455 0.61124 0.0
O346 O 0.89829 0.24267 0.55802 0.0
O347 O 0.89682 0.27905 0.57548 0.0
O348 O 0.86898 0.19678 0.58963 0.0
O349 O 0.90437 0.19254 0.59118 0.0
O350 O 0.86509 0.2166 0.65074 0.0
O351 O 0.86796 0.24821 0.62706 0.0
H352 H 0.9047 0.28893 0.70956 0.0
H353 H 0.87473 0.34329 0.67318 0.0
H354 H 0.86341 0.35547 0.72831 0.0
H355 H 0.89413 0.30128 0.76425 0.0
H356 H 0.86518 0.14349 0.56528 0.0
H357 H 0.9076 0.20552 0.52673 0.0
H358 H 0.90528 0.19273 0.47195 0.0
H359 H 0.86301 0.13043 0.51053 0.0
Gd360 Gd 0.61824 0.72691 0.2182 0.0
Gd361 Gd 0.62399 0.77459 0.19308 0.0
C362 C 0.60828 0.76815 0.26853 0.0
C363 C 0.62585 0.69088 0.24586 0.0
C364 C 0.63714 0.68735 0.27329 0.0
C365 C 0.62831 0.66912 0.29478 0.0
C366 C 0.65539 0.70326 0.27981 0.0
C367 C 0.65527 0.68336 0.33011 0.0
C368 C 0.66466 0.7011 0.30766 0.0
C369 C 0.63716 0.66721 0.32309 0.0
C370 C 0.57966 0.73596 0.20015 0.0
C371 C 0.61891 0.73313 0.14149 0.0
C372 C 0.62953 0.81421 0.16546 0.0
C373 C 0.62817 0.82267 0.1336 0.0
C374 C 0.64063 0.84372 0.12251 0.0
C375 C 0.61697 0.80857 0.11276 0.0
C376 C 0.63132 0.83616 0.06924 0.0
C377 C 0.61823 0.81537 0.0809 0.0
C378 C 0.64227 0.85043 0.09043 0.0
C379 C 0.66013 0.76332 0.21735 0.0
O380 O 0.61466 0.74766 0.26443 0.0
O381 O 0.60751 0.78114 0.2434 0.0
O382 O 0.60668 0.69922 0.25302 0.0
O383 O 0.6391 0.70043 0.2201 0.0
O384 O 0.58496 0.71567 0.20222 0.0
O385 O 0.59363 0.75012 0.21233 0.0
O386 O 0.6194 0.75514 0.14719 0.0
O387 O 0.62071 0.7187 0.16474 0.0
O388 O 0.64606 0.80222 0.16588 0.0
O389 O 0.6103 0.80516 0.18313 0.0
O390 O 0.65171 0.78194 0.22308 0.0
O391 O 0.64891 0.7511 0.19909 0.0
H392 H 0.61395 0.65691 0.29034 0.0
H393 H 0.66199 0.71777 0.26391 0.0
H394 H 0.6787 0.71374 0.31199 0.0
H395 H 0.62899 0.65366 0.3401 0.0
H396 H 0.64979 0.85453 0.1383 0.0
H397 H 0.60794 0.79201 0.12087 0.0
H398 H 0.60928 0.80415 0.06533 0.0
H399 H 0.65275 0.86639 0.08201 0.0
Gd400 Gd 0.63313 0.27105 0.95026 0.0
Gd401 Gd 0.62499 0.22374 0.93294 0.0
C402 C 0.62824 0.23121 1.00677 0.0
C403 C 0.63894 0.31052 0.97552 0.0
C404 C 0.63613 0.31833 1.00848 0.0
C405 C 0.64884 0.33875 1.0158 0.0
C406 C 0.62291 0.30415 0.03321 0.0
C407 C 0.63617 0.33016 0.07283 0.0
C408 C 0.62306 0.30991 0.06517 0.0
C409 C 0.64874 0.34474 0.04781 0.0
C410 C 0.66775 0.25919 0.90671 0.0
C411 C 0.61559 0.2629 0.88343 0.0
C412 C 0.62658 0.18501 0.90633 0.0
C413 C 0.63089 0.17815 0.873 0.0
C414 C 0.6217 0.18867 0.84939 0.0
C415 C 0.64505 0.16164 0.86442 0.0
C416 C 0.64002 0.16547 0.80892 0.0
C417 C 0.6496 0.1553 0.83247 0.0
C418 C 0.62619 0.18233 0.81756 0.0
C419 C 0.58891 0.23684 0.97081 0.0
O420 O 0.62711 0.25274 0.99982 0.0
O421 O 0.63181 0.21691 0.98308 0.0
O422 O 0.65525 0.29808 0.96851 0.0
O423 O 0.62018 0.30224 0.96488 0.0
O424 O 0.65947 0.27798 0.90635 0.0
O425 O 0.65763 0.24698 0.93117 0.0
O426 O 0.62029 0.24191 0.88675 0.0
O427 O 0.6166 0.27725 0.90735 0.0
O428 O 0.60754 0.1933 0.91515 0.0
O429 O 0.64413 0.19661 0.91663 0.0
O430 O 0.59425 0.21655 0.97179 0.0
O431 O 0.60139 0.24851 0.94789 0.0
H432 H 0.65926 0.34974 0.99682 0.0
H433 H 0.613 0.28831 1.02784 0.0
H434 H 0.61345 0.29814 0.08382 0.0
H435 H 0.65869 0.36064 0.05294 0.0
H436 H 0.61083 0.20157 0.85556 0.0
H437 H 0.6525 0.15366 0.88242 0.0
H438 H 0.66046 0.14238 0.82619 0.0
H439 H 0.6183 0.19015 0.79991 0.0
Gd440 Gd 0.90351 0.71838 0.35788 0.0
Gd441 Gd 0.90912 0.76636 0.33442 0.0
C442 C 0.9072 0.75898 0.41145 0.0
C443 C 0.89808 0.67803 0.38317 0.0
C444 C 0.89768 0.66892 0.41521 0.0
C445 C 0.88525 0.64746 0.42424 0.0
C446 C 0.90645 0.68299 0.43823 0.0
C447 C 0.88908 0.65482 0.47977 0.0
C448 C 0.90236 0.67593 0.47031 0.0
C449 C 0.88097 0.64038 0.45645 0.0
C450 C 0.86769 0.72989 0.33308 0.0
C451 C 0.92032 0.72626 0.28252 0.0
C452 C 0.90004 0.80228 0.30851 0.0
C453 C 0.88814 0.80484 0.28159 0.0
C454 C 0.88928 0.82626 0.26736 0.0
C455 C 0.87699 0.78549 0.26851 0.0
C456 C 0.86988 0.80879 0.22516 0.0
C457 C 0.86775 0.78746 0.24059 0.0
C458 C 0.88024 0.82825 0.23926 0.0
C459 C 0.94759 0.75731 0.35282 0.0
O460 O 0.90626 0.73694 0.40526 0.0
O461 O 0.90642 0.77383 0.38819 0.0
O462 O 0.88128 0.68937 0.38128 0.0
O463 O 0.91778 0.68817 0.36805 0.0
O464 O 0.87637 0.71148 0.32681 0.0
O465 O 0.87855 0.74178 0.35205 0.0
O466 O 0.91396 0.74673 0.28713 0.0
O467 O 0.92063 0.71283 0.3074 0.0
O468 O 0.91966 0.79483 0.30081 0.0
O469 O 0.88726 0.79208 0.33412 0.0
O470 O 0.94223 0.77761 0.35089 0.0
O471 O 0.93385 0.74326 0.34004 0.0
H472 H 0.878 0.63665 0.40664 0.0
H473 H 0.91557 0.69979 0.43162 0.0
H474 H 0.90916 0.68719 0.48778 0.0
H475 H 0.8706 0.62408 0.46327 0.0
H476 H 0.898 0.84127 0.27718 0.0
H477 H 0.87621 0.76878 0.27921 0.0
H478 H 0.85979 0.77221 0.2304 0.0
H479 H 0.88261 0.84487 0.22762 0.0
Gd480 Gd 0.52189 0.62061 0.68206 0.0
Gd481 Gd 0.49621 0.62907 0.62178 0.0
C482 C 0.46531 0.61 0.6871 0.0
C483 C 0.53451 0.62985 0.73782 0.0
C484 C 0.54086 0.63646 0.7704 0.0
C485 C 0.55742 0.62673 0.78366 0.0
C486 C 0.53095 0.65365 0.78815 0.0
C487 C 0.55405 0.65148 0.83128 0.0
C488 C 0.53752 0.66116 0.81753 0.0
C489 C 0.56374 0.63392 0.81351 0.0
C490 C 0.51718 0.58541 0.64212 0.0
C491 C 0.55149 0.63583 0.61402 0.0
C492 C 0.4834 0.63595 0.56697 0.0
C493 C 0.47573 0.64171 0.53612 0.0
C494 C 0.47059 0.66363 0.53089 0.0
C495 C 0.47415 0.62601 0.51127 0.0
C496 C 0.46328 0.65445 0.47624 0.0
C497 C 0.46818 0.6323 0.48177 0.0
C498 C 0.4643 0.66981 0.50176 0.0
C499 C 0.50312 0.66233 0.66399 0.0
O500 O 0.48395 0.61186 0.70087 0.0
O501 O 0.46549 0.61406 0.65615 0.0
O502 O 0.54314 0.61454 0.71887 0.0
O503 O 0.5187 0.63896 0.72663 0.0
O504 O 0.53259 0.58817 0.66101 0.0
O505 O 0.50321 0.59946 0.6488 0.0
O506 O 0.53317 0.62854 0.60094 0.0
O507 O 0.55081 0.63762 0.64551 0.0
O508 O 0.49187 0.65214 0.58451 0.0
O509 O 0.4819 0.61531 0.57922 0.0
O510 O 0.48521 0.6596 0.65008 0.0
O511 O 0.51635 0.64882 0.65323 0.0
H512 H 0.5656 0.61349 0.77093 0.0
H513 H 0.51805 0.66159 0.77918 0.0
H514 H 0.52962 0.67495 0.82897 0.0
H515 H 0.57619 0.62535 0.82252 0.0
H516 H 0.47138 0.67618 0.5495 0.0
H517 H 0.47803 0.60899 0.51433 0.0
H518 H 0.46795 0.61982 0.46308 0.0
H519 H 0.46008 0.68676 0.49959 0.0
Gd520 Gd -0.00362 0.34694 0.15091 0.0
Gd521 Gd 0.03918 0.37485 0.15988 0.0
C522 C 0.03733 0.35361 0.09001 0.0
C523 C 0.95877 0.33198 0.13171 0.0
C524 C 0.94986 0.33923 0.1037 0.0
C525 C 0.94412 0.3232 0.08092 0.0
C526 C 0.9494 0.36247 0.09775 0.0
C527 C 0.9379 0.35347 0.04641 0.0
C528 C 0.94323 0.3695 0.06936 0.0
C529 C 0.93828 0.3303 0.0523 0.0
C530 C 0.02738 0.32365 0.17146 0.0
C531 C -0.00013 0.35511 0.22352 0.0
C532 C 0.07587 0.39561 0.17713 0.0
C533 C 0.08656 0.39331 0.20522 0.0
C534 C 0.10542 0.40895 0.21006 0.0
C535 C 0.07734 0.37583 0.22796 0.0
C536 C 0.10489 0.39054 0.2615 0.0
C537 C 0.08638 0.37451 0.25606 0.0
C538 C 0.11467 0.40751 0.23812 0.0
C539 C 0.01463 0.3977 0.12671 0.0
O540 O 0.01494 0.35147 0.09933 0.0
O541 O 0.0512 0.35997 0.11101 0.0
O542 O 0.97687 0.32185 0.12506 0.0
O543 O 0.96015 0.3469 0.15443 0.0
O544 O 0.00553 0.31757 0.17979 0.0
O545 O 0.03081 0.33945 0.15126 0.0
O546 O 0.02185 0.36259 0.2123 0.0
O547 O 0.98539 0.35158 0.20323 0.0
O548 O 0.05628 0.40328 0.18292 0.0
O549 O 0.07563 0.37815 0.15831 0.0
O550 O 0.03651 0.39916 0.12145 0.0
O551 O 0.00595 0.38494 0.15135 0.0
H552 H 0.94469 0.3053 0.08494 0.0
H553 H 0.95425 0.3753 0.11462 0.0
H554 H 0.94312 0.38745 0.065 0.0
H555 H 0.93401 0.31772 0.03479 0.0
H556 H 0.11268 0.42245 0.1925 0.0
H557 H 0.06298 0.36341 0.22419 0.0
H558 H 0.07881 0.36111 0.27366 0.0
H559 H 0.12892 0.42005 0.24204 0.0
Gd560 Gd 0.52441 0.36348 0.43632 0.0
Gd561 Gd 0.5036 0.36977 0.37031 0.0
C562 C 0.47102 0.36299 0.43884 0.0
C563 C 0.54569 0.36361 0.48573 0.0
C564 C 0.54734 0.35362 0.51805 0.0
C565 C 0.55722 0.33368 0.52047 0.0
C566 C 0.54199 0.36557 0.54651 0.0
C567 C 0.55686 0.33831 0.57867 0.0
C568 C 0.54652 0.35801 0.57624 0.0
C569 C 0.56186 0.32618 0.55013 0.0
C570 C 0.50599 0.32561 0.40866 0.0
C571 C 0.55836 0.37468 0.36837 0.0
C572 C 0.49022 0.36133 0.3149 0.0
C573 C 0.48173 0.35549 0.28348 0.0
C574 C 0.49219 0.36677 0.2542 0.0
C575 C 0.46424 0.33705 0.28196 0.0
C576 C 0.4684 0.3409 0.22285 0.0
C577 C 0.45773 0.32991 0.25236 0.0
C578 C 0.48563 0.35967 0.22453 0.0
C579 C 0.50766 0.4067 0.40821 0.0
O580 O 0.48856 0.36965 0.45382 0.0
O581 O 0.47311 0.35774 0.40804 0.0
O582 O 0.55 0.35142 0.46009 0.0
O583 O 0.53016 0.37674 0.48334 0.0
O584 O 0.50557 0.32745 0.43944 0.0
O585 O 0.51721 0.34324 0.39444 0.0
O586 O 0.541 0.3718 0.35233 0.0
O587 O 0.55621 0.37381 0.40012 0.0
O588 O 0.50631 0.37824 0.3185 0.0
O589 O 0.48059 0.35054 0.34187 0.0
O590 O 0.49311 0.40344 0.38818 0.0
O591 O 0.52071 0.39175 0.40431 0.0
H592 H 0.56207 0.32414 0.49918 0.0
H593 H 0.53475 0.38119 0.54571 0.0
H594 H 0.54192 0.36782 0.59733 0.0
H595 H 0.57015 0.3112 0.55027 0.0
H596 H 0.50588 0.38085 0.25407 0.0
H597 H 0.45564 0.32782 0.30375 0.0
H598 H 0.44414 0.31571 0.2528 0.0
H599 H 0.49463 0.36862 0.20274 0.0
Gd600 Gd 0.98799 0.61827 0.89299 0.0
Gd601 Gd 0.03519 0.63699 0.90014 0.0
C602 C 0.02782 0.63132 0.82793 0.0
C603 C 0.94874 0.60408 0.87756 0.0
C604 C 0.93884 0.6064 0.84875 0.0
C605 C 0.91971 0.59122 0.84365 0.0
C606 C 0.94936 0.62295 0.82528 0.0
C607 C 0.92187 0.60893 0.79121 0.0
C608 C 0.94081 0.62436 0.79683 0.0
C609 C 0.91124 0.59245 0.81493 0.0
C610 C 0.00708 0.59035 0.9273 0.0
C611 C -0.00586 0.64128 0.96079 0.0
C612 C 0.07473 0.64296 0.91686 0.0
C613 C 0.08217 0.63798 0.94715 0.0
C614 C 0.07979 0.65301 0.97281 0.0
C615 C 0.08993 0.6172 0.95153 0.0
C616 C 0.09178 0.62608 1.00708 0.0
C617 C 0.09461 0.61124 0.98136 0.0
C618 C 0.08452 0.64706 1.00258 0.0
C619 C 0.0119 0.66731 0.87728 0.0
O620 O 0.00561 0.62755 0.84014 0.0
O621 O 0.04301 0.63153 0.84721 0.0
O622 O 0.96545 0.59191 0.87407 0.0
O623 O 0.95301 0.62292 0.89306 0.0
O624 O 0.98627 0.5941 0.9337 0.0
O625 O 0.01743 0.60106 0.90161 0.0
O626 O 0.01626 0.64012 0.95161 0.0
O627 O 0.97953 0.63598 0.94046 0.0
O628 O 0.06205 0.65917 0.91757 0.0
O629 O 0.06729 0.62513 0.90118 0.0
O630 O 0.03399 0.66898 0.87059 0.0
O631 O 0.00476 0.652 0.89817 0.0
H632 H 0.91164 0.5782 0.86158 0.0
H633 H 0.96436 0.63456 0.82872 0.0
H634 H 0.94908 0.6375 0.77919 0.0
H635 H 0.89673 0.58026 0.811 0.0
H636 H 0.07395 0.66921 0.97012 0.0
H637 H 0.09194 0.60532 0.93211 0.0
H638 H 0.10024 0.59499 0.98442 0.0
H639 H 0.08276 0.659 1.02196 0.0
C640 C 0.06972 0.11755 0.06847 0.0
C641 C 0.06633 0.12766 0.09862 0.0
C642 C 0.08666 0.12773 0.0441 0.0
C643 C 0.13776 0.16436 1.01689 0.0
H644 H 0.10501 0.18614 0.95378 0.0
C645 C 0.14991 0.21111 0.88385 0.0
C646 C 0.16097 0.19495 0.86548 0.0
C647 C 0.1446 0.20849 0.91717 0.0
C648 C 0.11443 0.18066 0.97148 0.0
H649 H 0.07907 0.15514 0.12799 0.0
H650 H 0.10883 0.17292 0.08494 0.0
H651 H 0.08378 0.16785 1.00356 0.0
H652 H 0.17755 0.16508 0.86761 0.0
H653 H 0.16792 0.1603 0.92602 0.0
H654 H 0.16844 0.17607 0.98371 0.0
C655 C 0.09845 0.15709 0.0805 0.0
C656 C 0.10228 0.17003 0.99969 0.0
C657 C 0.08149 0.14688 0.105 0.0
C658 C 0.16882 0.17761 0.88125 0.0
C659 C 0.16351 0.17501 0.91465 0.0
C660 C 0.15 0.17479 0.98828 0.0
C661 C 0.10042 0.14802 0.04968 0.0
C662 C 0.11385 0.16138 1.02212 0.0
C663 C 0.15026 0.18971 0.93258 0.0
C664 C 0.13835 0.18263 0.96516 0.0
H665 H 0.05834 0.10267 0.06307 0.0
H666 H 0.08807 0.12058 1.0203 0.0
H667 H 0.14681 0.15775 0.03417 0.0
H668 H 0.14344 0.22455 0.87241 0.0
H669 H 0.13442 0.22005 0.93062 0.0
C670 C 0.10512 0.7983 0.34709 0.0
C671 C 0.10575 0.7749 0.35174 0.0
C672 C 0.09956 0.80673 0.31853 0.0
C673 C 0.07088 0.78858 0.24797 0.0
H674 H 0.10277 0.84587 0.2092 0.0
C675 C 0.05588 0.81853 0.12214 0.0
C676 C 0.0589 0.84195 0.11384 0.0
C677 C 0.06159 0.81077 0.15095 0.0
C678 C 0.09329 0.83 0.21972 0.0
H679 H 0.10085 0.74215 0.32923 0.0
H680 H 0.09108 0.75669 0.27986 0.0
H681 H 0.11229 0.83201 0.25893 0.0
H682 H 0.07074 0.87537 0.13089 0.0
H683 H 0.07932 0.8621 0.18133 0.0
H684 H 0.05147 0.78665 0.20951 0.0
C685 C 0.09478 0.76863 0.29839 0.0
C686 C 0.0989 0.82195 0.24849 0.0
C687 C 0.10056 0.76024 0.32681 0.0
C688 C 0.06767 0.85724 0.13603 0.0
C689 C 0.07308 0.84949 0.16511 0.0
C690 C 0.06507 0.79672 0.21945 0.0
C691 C 0.09418 0.79204 0.29365 0.0
C692 C 0.08792 0.80099 0.26307 0.0
C693 C 0.07025 0.82605 0.17322 0.0
C694 C 0.07625 0.81755 0.20446 0.0
H695 H 0.10903 0.81025 0.36553 0.0
H696 H 0.09913 0.8248 0.31622 0.0
H697 H 0.06163 0.7726 0.25852 0.0
H698 H 0.04889 0.80592 0.10649 0.0
H699 H 0.0594 0.79259 0.15538 0.0
C700 C 0.37122 0.82453 0.30623 0.0
C701 C 0.37751 0.83984 0.27986 0.0
C702 C 0.37176 0.83228 0.33725 0.0
C703 C 0.40263 0.87749 0.37769 0.0
H704 H 0.36323 0.84802 0.45283 0.0
C705 C 0.43323 0.86224 0.4952 0.0
C706 C 0.41768 0.86067 0.52417 0.0
C707 C 0.42617 0.86675 0.46635 0.0
C708 C 0.3741 0.85694 0.43224 0.0
H709 H 0.38812 0.8753 0.26512 0.0
H710 H 0.38828 0.88896 0.31959 0.0
H711 H 0.35213 0.84234 0.40025 0.0
H712 H 0.38309 0.86422 0.54614 0.0
H713 H 0.37095 0.87288 0.49576 0.0
H714 H 0.42481 0.89177 0.40967 0.0
C715 C 0.38331 0.87097 0.31618 0.0
C716 C 0.36787 0.85342 0.40209 0.0
C717 C 0.38296 0.86318 0.2851 0.0
C718 C 0.39542 0.86531 0.52413 0.0
C719 C 0.38843 0.87009 0.49531 0.0
C720 C 0.40876 0.88122 0.40791 0.0
C721 C 0.37836 0.85549 0.34239 0.0
C722 C 0.3825 0.86294 0.37448 0.0
C723 C 0.4035 0.87005 0.46608 0.0
C724 C 0.39496 0.87027 0.43528 0.0
H725 H 0.36673 0.80646 0.30277 0.0
H726 H 0.36817 0.81989 0.35697 0.0
H727 H 0.41437 0.88487 0.35674 0.0
H728 H 0.45067 0.85928 0.49468 0.0
H729 H 0.43814 0.86638 0.44418 0.0
C730 C 0.42389 0.19326 0.74851 0.0
C731 C 0.42116 0.21627 0.75332 0.0
C732 C 0.43003 0.18504 0.71741 0.0
C733 C 0.45741 0.20472 0.63393 0.0
H734 H 0.43277 0.14424 0.61009 0.0
C735 C 0.49696 0.1636 0.51738 0.0
C736 C 0.48262 0.15058 0.49866 0.0
C737 C 0.48833 0.17131 0.54777 0.0
C738 C 0.43971 0.16125 0.61617 0.0
H739 H 0.42268 0.24851 0.72849 0.0
H740 H 0.43346 0.23433 0.67455 0.0
H741 H 0.41988 0.15809 0.66378 0.0
H742 H 0.44759 0.13554 0.49798 0.0
H743 H 0.43247 0.14878 0.5515 0.0
H744 H 0.47715 0.208 0.58649 0.0
C745 C 0.431 0.22257 0.69487 0.0
C746 C 0.43249 0.16914 0.64723 0.0
C747 C 0.42466 0.23074 0.72595 0.0
C748 C 0.45922 0.14543 0.5116 0.0
C749 C 0.45056 0.15298 0.54241 0.0
C750 C 0.46472 0.19679 0.60307 0.0
C751 C 0.43387 0.19959 0.69001 0.0
C752 C 0.44125 0.19103 0.65668 0.0
C753 C 0.465 0.16622 0.56092 0.0
C754 C 0.45614 0.17487 0.59364 0.0
H755 H 0.42129 0.18148 0.76886 0.0
H756 H 0.43223 0.16732 0.71495 0.0
H757 H 0.46483 0.22153 0.64012 0.0
H758 H 0.51504 0.16813 0.50845 0.0
H759 H 0.50015 0.18113 0.56117 0.0
C760 C 0.85619 0.82985 0.18261 0.0
C761 C 0.86461 0.81057 0.19228 0.0
C762 C 0.85771 0.83503 0.15002 0.0
C763 C 0.86414 0.84411 0.07817 0.0
H764 H 0.92701 0.83908 0.04267 0.0
C765 C 0.92711 0.87235 0.95537 0.0
C766 C 0.94689 0.88576 0.96273 0.0
C767 C 0.90909 0.86446 0.97995 0.0
C768 C 0.90934 0.84038 0.05222 0.0
H769 H 0.87833 0.77998 0.17562 0.0
H770 H 0.88011 0.7886 0.11887 0.0
H771 H 0.90877 0.81752 0.09118 0.0
H772 H 0.96134 0.90525 1.00002 0.0
H773 H 0.92983 0.89143 0.04276 0.0
H774 H 0.86569 0.86823 0.03948 0.0
C775 C 0.87297 0.80006 0.13641 0.0
C776 C 0.89874 0.8278 0.0797 0.0
C777 C 0.87173 0.79502 0.169 0.0
C778 C 0.9466 0.89446 0.99376 0.0
C779 C 0.92855 0.88667 1.01821 0.0
C780 C 0.87486 0.85677 0.05043 0.0
C781 C 0.86744 0.82087 0.12663 0.0
C782 C 0.87626 0.83006 0.09362 0.0
C783 C 0.91059 0.87039 1.01173 0.0
C784 C 0.89773 0.85546 0.03814 0.0
H785 H 0.85013 0.84185 0.20014 0.0
H786 H 0.85328 0.8512 0.14333 0.0
H787 H 0.84676 0.84604 0.0883 0.0
H788 H 0.92663 0.86564 0.93155 0.0
H789 H 0.89534 0.85181 0.97467 0.0
C790 C 0.91705 0.19865 0.70987 0.0
C791 C 0.91416 0.22157 0.7059 0.0
C792 C 0.92176 0.1904 0.73908 0.0
C793 C 0.92009 0.20484 0.82685 0.0
H794 H 0.95807 0.15742 0.82643 0.0
C795 C 0.9511 0.17785 0.94396 0.0
C796 C 0.95371 0.15491 0.94861 0.0
C797 C 0.94625 0.18574 0.91461 0.0
C798 C 0.94718 0.17048 0.82727 0.0
H799 H 0.91424 0.25366 0.73033 0.0
H800 H 0.92286 0.2396 0.78058 0.0
H801 H 0.94987 0.17125 0.77584 0.0
H802 H 0.95347 0.12256 0.92457 0.0
H803 H 0.94445 0.13602 0.87437 0.0
H804 H 0.91741 0.20408 0.87825 0.0
C805 C 0.92105 0.22772 0.76137 0.0
C806 C 0.94242 0.17849 0.79794 0.0
C807 C 0.91625 0.23593 0.7322 0.0
C808 C 0.95129 0.14024 0.9226 0.0
C809 C 0.94641 0.14812 0.8933 0.0
C810 C 0.92487 0.19685 0.85615 0.0
C811 C 0.92384 0.20475 0.7655 0.0
C812 C 0.92883 0.19591 0.79707 0.0
C813 C 0.94379 0.17104 0.88863 0.0
C814 C 0.93856 0.17953 0.85702 0.0
H815 H 0.91547 0.18691 0.69042 0.0
H816 H 0.92337 0.17257 0.741 0.0
H817 H 0.90916 0.21786 0.82774 0.0
H818 H 0.95257 0.18981 0.96315 0.0
H819 H 0.94473 0.20357 0.91224 0.0
C820 C 0.63948 0.13396 0.77023 0.0
C821 C 0.64287 0.1574 0.77582 0.0
C822 C 0.63877 0.12623 0.73922 0.0
C823 C 0.65146 0.14391 0.65388 0.0
H824 H 0.59611 0.10254 0.64727 0.0
C825 C 0.62539 0.12706 0.53217 0.0
C826 C 0.60326 0.13177 0.53139 0.0
C827 C 0.63208 0.12297 0.56144 0.0
C828 C 0.61175 0.11387 0.64881 0.0
H829 H 0.6495 0.19118 0.75366 0.0
H830 H 0.64778 0.17768 0.69941 0.0
H831 H 0.60648 0.11085 0.70009 0.0
H832 H 0.57008 0.13379 0.55995 0.0
H833 H 0.58206 0.12764 0.61126 0.0
H834 H 0.65586 0.14835 0.60298 0.0
C835 C 0.64597 0.16529 0.71886 0.0
C836 C 0.61779 0.11846 0.6789 0.0
C837 C 0.64671 0.17301 0.74985 0.0
C838 C 0.58742 0.13072 0.56005 0.0
C839 C 0.59416 0.1268 0.58933 0.0
C840 C 0.6454 0.13937 0.62385 0.0
C841 C 0.64146 0.14186 0.71348 0.0
C842 C 0.63734 0.13403 0.68165 0.0
C843 C 0.61679 0.12372 0.59028 0.0
C844 C 0.62517 0.12481 0.62117 0.0
H845 H 0.63622 0.12164 0.78999 0.0
H846 H 0.63538 0.1081 0.73549 0.0
H847 H 0.66666 0.15588 0.6555 0.0
H848 H 0.63792 0.12776 0.5104 0.0
H849 H 0.64955 0.12036 0.56164 0.0
C850 C 0.56462 0.85008 0.54261 0.0
C851 C 0.54146 0.84384 0.55627 0.0
C852 C 0.57334 0.84241 0.51185 0.0
C853 C 0.56033 0.79678 0.45287 0.0
H854 H 0.60243 0.83633 0.38998 0.0
C855 C 0.59946 0.76282 0.32937 0.0
C856 C 0.60207 0.77698 0.30183 0.0
C857 C 0.59332 0.77113 0.36044 0.0
C858 C 0.59058 0.82502 0.40714 0.0
H859 H 0.5096 0.82417 0.54782 0.0
H860 H 0.52457 0.81103 0.49536 0.0
H861 H 0.58983 0.85044 0.4436 0.0
H862 H 0.60043 0.81136 0.28599 0.0
H863 H 0.58979 0.82573 0.33979 0.0
H864 H 0.5606 0.77154 0.4165 0.0
C865 C 0.53617 0.82178 0.50809 0.0
C866 C 0.58354 0.83308 0.43817 0.0
C867 C 0.52749 0.82958 0.53836 0.0
C868 C 0.59857 0.79981 0.30645 0.0
C869 C 0.5926 0.80817 0.33751 0.0
C870 C 0.56743 0.78871 0.42203 0.0
C871 C 0.55923 0.82796 0.49417 0.0
C872 C 0.56809 0.81916 0.4615 0.0
C873 C 0.58973 0.79395 0.36512 0.0
C874 C 0.5826 0.80268 0.39847 0.0
H875 H 0.57597 0.86096 0.55556 0.0
H876 H 0.59122 0.84749 0.50215 0.0
H877 H 0.54866 0.78533 0.47006 0.0
H878 H 0.60202 0.74519 0.32698 0.0
H879 H 0.59161 0.75961 0.38088 0.0
C880 C 0.66759 0.70349 0.37812 0.0
C881 C 0.66235 0.68304 0.36223 0.0
C882 C 0.66908 0.7032 0.41079 0.0
C883 C 0.66026 0.66346 0.48296 0.0
H884 H 0.61955 0.7057 0.51763 0.0
C885 C 0.59406 0.64566 0.60041 0.0
C886 C 0.57228 0.64542 0.59218 0.0
C887 C 0.61351 0.65515 0.57894 0.0
C888 C 0.63135 0.69409 0.5086 0.0
H889 H 0.65785 0.64624 0.36718 0.0
H890 H 0.65837 0.6457 0.42432 0.0
H891 H 0.64202 0.71302 0.46475 0.0
H892 H 0.5535 0.65568 0.55613 0.0
H893 H 0.5871 0.67222 0.51916 0.0
H894 H 0.64696 0.64317 0.52576 0.0
C895 C 0.66189 0.66205 0.41178 0.0
C896 C 0.64447 0.69834 0.47823 0.0
C897 C 0.66105 0.66232 0.37894 0.0
C898 C 0.57012 0.65531 0.56286 0.0
C899 C 0.58934 0.66511 0.54192 0.0
C900 C 0.64678 0.65905 0.51326 0.0
C901 C 0.66462 0.68253 0.4285 0.0
C902 C 0.65786 0.68224 0.46407 0.0
C903 C 0.6112 0.66506 0.54963 0.0
C904 C 0.6311 0.67359 0.52515 0.0
H905 H 0.66881 0.71985 0.36616 0.0
H906 H 0.67194 0.7193 0.42264 0.0
H907 H 0.67096 0.65109 0.47323 0.0
H908 H 0.59602 0.63817 0.62303 0.0
H909 H 0.63027 0.65475 0.58511 0.0
C910 C 0.60666 0.25565 0.82692 0.0
C911 C 0.6095 0.27072 0.85227 0.0
C912 C 0.60103 0.26308 0.79784 0.0
C913 C 0.60097 0.31567 0.74797 0.0
H914 H 0.55946 0.27548 0.70464 0.0
C915 C 0.56835 0.34653 0.634 0.0
C916 C 0.56277 0.33072 0.61042 0.0
C917 C 0.57394 0.3395 0.66332 0.0
C918 C 0.5714 0.28695 0.71588 0.0
H919 H 0.60875 0.30582 0.86607 0.0
H920 H 0.59899 0.31868 0.81577 0.0
H921 H 0.56946 0.26296 0.75466 0.0
H922 H 0.55882 0.29459 0.60062 0.0
H923 H 0.56948 0.28263 0.65032 0.0
H924 H 0.60321 0.33957 0.70904 0.0
C925 C 0.60121 0.30103 0.81819 0.0
C926 C 0.57713 0.27968 0.74494 0.0
C927 C 0.60668 0.29356 0.84734 0.0
C928 C 0.5632 0.30757 0.61749 0.0
C929 C 0.56902 0.30057 0.64666 0.0
C930 C 0.59538 0.32289 0.71873 0.0
C931 C 0.59819 0.28593 0.79286 0.0
C932 C 0.59204 0.29387 0.7616 0.0
C933 C 0.57444 0.31634 0.67034 0.0
C934 C 0.58047 0.30868 0.70197 0.0
H935 H 0.60878 0.238 0.82945 0.0
H936 H 0.59924 0.25087 0.779 0.0
H937 H 0.61273 0.32712 0.75956 0.0
H938 H 0.56872 0.36455 0.62979 0.0
H939 H 0.57764 0.35239 0.68064 0.0
C940 C 0.94297 0.35435 0.98686 0.0
C941 C 0.93154 0.36075 1.01642 0.0
C942 C 0.93524 0.35894 0.95855 0.0
C943 C 0.88243 0.36068 0.93184 0.0
H944 H 0.92086 0.37935 0.8502 0.0
C945 C 0.86863 0.32448 0.81015 0.0
C946 C 0.87505 0.33889 0.78279 0.0
C947 C 0.87098 0.33295 0.84041 0.0
C948 C 0.90976 0.37461 0.8729 0.0
H949 H 0.90404 0.37778 0.0401 0.0
H950 H 0.89007 0.38542 0.99027 0.0
H951 H 0.93643 0.38552 0.89997 0.0
H952 H 0.88734 0.37367 0.76568 0.0
H953 H 0.89103 0.38849 0.8187 0.0
H954 H 0.8562 0.34849 0.90461 0.0
C955 C 0.90507 0.37708 0.98908 0.0
C956 C 0.91872 0.378 0.90123 0.0
C957 C 0.91302 0.37277 1.01737 0.0
C958 C 0.88204 0.36223 0.78642 0.0
C959 C 0.88435 0.37068 0.81665 0.0
C960 C 0.87352 0.35712 0.90348 0.0
C961 C 0.91583 0.36973 0.95964 0.0
C962 C 0.9053 0.37047 0.93074 0.0
C963 C 0.87973 0.35593 0.84362 0.0
C964 C 0.88733 0.3635 0.87378 0.0
H965 H 0.95743 0.34521 0.98582 0.0
H966 H 0.94362 0.3529 0.93608 0.0
H967 H 0.87192 0.35446 0.95441 0.0
H968 H 0.86303 0.30645 0.80792 0.0
H969 H 0.86751 0.32119 0.86088 0.0
C970 C 0.9314 0.73262 0.22176 0.0
C971 C 0.92701 0.71787 0.24896 0.0
C972 C 0.93806 0.7246 0.19056 0.0
C973 C 0.938 0.67131 0.14224 0.0
H974 H 0.98474 0.7084 0.08206 0.0
C975 C 0.96249 0.64677 1.00713 0.0
C976 C 0.98588 0.64995 0.99366 0.0
C977 C 0.95485 0.65507 0.0378 0.0
C978 C 0.97171 0.69771 0.0985 0.0
H979 H 0.92594 0.68273 0.2639 0.0
H980 H 0.93721 0.66886 0.20998 0.0
H981 H 0.97252 0.72246 0.13568 0.0
H982 H 0.0194 0.66507 1.00225 0.0
H983 H 0.00613 0.67973 0.05513 0.0
H984 H 0.93732 0.64651 0.10505 0.0
C985 C 0.93556 0.6867 0.21261 0.0
C986 C 0.96449 0.70592 0.12934 0.0
C987 C 0.9292 0.69476 0.24378 0.0
C988 C 0.00129 0.66203 1.01173 0.0
C989 C -0.00638 0.67065 0.04213 0.0
C990 C 0.94505 0.66321 0.11124 0.0
C991 C 0.94025 0.70147 0.18536 0.0
C992 C 0.94759 0.69284 0.15192 0.0
C993 C 0.97027 0.66723 0.05588 0.0
C994 C 0.96217 0.67618 0.08884 0.0
H995 H 0.9299 0.75048 0.22456 0.0
H996 H 0.94123 0.73657 0.1704 0.0
H997 H 0.92482 0.6607 0.15856 0.0
H998 H 0.95002 0.63769 0.99404 0.0
H999 H 0.93673 0.65221 0.04717 0.0
C1000 C 0.43557 0.33795 0.46195 0.0
C1001 C 0.44833 0.35971 0.45824 0.0
C1002 C 0.41648 0.33355 0.48603 0.0
C1003 C 0.39639 0.35799 0.56416 0.0
H1004 H 0.35211 0.30294 0.57168 0.0
C1005 C 0.34916 0.32884 0.686 0.0
C1006 C 0.35863 0.30991 0.69453 0.0
C1007 C 0.34985 0.33437 0.6537 0.0
C1008 C 0.36407 0.31861 0.56962 0.0
H1009 H 0.45016 0.39465 0.47313 0.0
H1010 H 0.41553 0.38765 0.51321 0.0
H1011 H 0.3727 0.31648 0.51855 0.0
H1012 H 0.37355 0.2803 0.67621 0.0
H1013 H 0.37434 0.28984 0.6199 0.0
H1014 H 0.38793 0.35993 0.61514 0.0
C1015 C 0.42092 0.37349 0.49933 0.0
C1016 C 0.37608 0.32626 0.53936 0.0
C1017 C 0.44058 0.37763 0.47621 0.0
C1018 C 0.36601 0.29496 0.67046 0.0
C1019 C 0.36644 0.30037 0.63816 0.0
C1020 C 0.38397 0.35072 0.59405 0.0
C1021 C 0.40948 0.35111 0.50601 0.0
C1022 C 0.39307 0.34558 0.53642 0.0
C1023 C 0.35966 0.32083 0.62961 0.0
C1024 C 0.36828 0.33062 0.59716 0.0
H1025 H 0.44132 0.324 0.448 0.0
H1026 H 0.4084 0.31607 0.49031 0.0
H1027 H 0.40968 0.37248 0.56346 0.0
H1028 H 0.34294 0.34038 0.70414 0.0
H1029 H 0.34453 0.35023 0.64747 0.0
C1030 C 0.44725 0.64588 0.42388 0.0
C1031 C 0.45744 0.66169 0.44426 0.0
C1032 C 0.44197 0.65279 0.39426 0.0
C1033 C 0.45268 0.7034 0.33536 0.0
H1034 H 0.4033 0.6689 0.29925 0.0
C1035 C 0.41751 0.7384 0.22689 0.0
C1036 C 0.41175 0.72319 0.20284 0.0
C1037 C 0.42317 0.73053 0.25567 0.0
C1038 C 0.41728 0.67871 0.30878 0.0
H1039 H 0.47021 0.69765 0.44768 0.0
H1040 H 0.45971 0.70963 0.39826 0.0
H1041 H 0.41254 0.65618 0.34982 0.0
H1042 H 0.40729 0.68745 0.19101 0.0
H1043 H 0.41693 0.67381 0.24106 0.0
H1044 H 0.45692 0.72622 0.29461 0.0
C1045 C 0.45633 0.69165 0.40441 0.0
C1046 C 0.42274 0.67131 0.33801 0.0
C1047 C 0.46199 0.68471 0.43364 0.0
C1048 C 0.41167 0.6998 0.20874 0.0
C1049 C 0.41708 0.6919 0.2377 0.0
C1050 C 0.44699 0.71094 0.30645 0.0
C1051 C 0.44632 0.67587 0.38387 0.0
C1052 C 0.44054 0.68353 0.35207 0.0
C1053 C 0.42303 0.70714 0.26167 0.0
C1054 C 0.42917 0.69879 0.29261 0.0
H1055 H 0.44305 0.62805 0.43078 0.0
H1056 H 0.43464 0.6398 0.37944 0.0
H1057 H 0.46692 0.71318 0.34426 0.0
H1058 H 0.41781 0.75649 0.22345 0.0
H1059 H 0.42738 0.74287 0.2735 0.0
C1060 C 0.14271 0.63331 0.27142 0.0
C1061 C 0.14803 0.65691 0.27468 0.0
C1062 C 0.14142 0.62428 0.24128 0.0
C1063 C 0.15236 0.63712 0.15438 0.0
H1064 H 0.09234 0.60164 0.1569 0.0
C1065 C 0.11869 0.61284 0.03907 0.0
C1066 C 0.09778 0.62046 0.0381 0.0
C1067 C 0.12617 0.61095 0.0683 0.0
C1068 C 0.10923 0.61127 0.15594 0.0
H1069 H 0.15823 0.68941 0.24909 0.0
H1070 H 0.15532 0.67364 0.19626 0.0
H1071 H 0.10619 0.61148 0.20706 0.0
H1072 H 0.06738 0.63037 0.06651 0.0
H1073 H 0.08071 0.62755 0.11778 0.0
H1074 H 0.1547 0.63825 0.10333 0.0
C1075 C 0.15243 0.66213 0.21695 0.0
C1076 C 0.11725 0.61672 0.18449 0.0
C1077 C 0.15387 0.67116 0.24712 0.0
C1078 C 0.08371 0.62471 0.06682 0.0
C1079 C 0.09121 0.62285 0.09606 0.0
C1080 C 0.14434 0.63166 0.12582 0.0
C1081 C 0.14528 0.63874 0.21409 0.0
C1082 C 0.13867 0.63009 0.18389 0.0
C1083 C 0.11282 0.61668 0.0968 0.0
C1084 C 0.12252 0.61913 0.1265 0.0
H1085 H 0.13787 0.62195 0.2923 0.0
H1086 H 0.13608 0.60617 0.23947 0.0
H1087 H 0.16889 0.64749 0.15347 0.0
H1088 H 0.12984 0.6096 1.01714 0.0
H1089 H 0.14282 0.60602 0.0685 0.0
C1090 C 0.09337 0.29622 0.80717 0.0
C1091 C 0.10211 0.27545 0.80294 0.0
C1092 C 0.08774 0.30502 0.83787 0.0
C1093 C 0.09488 0.29933 0.92478 0.0
H1094 H 0.0447 0.33437 0.93806 0.0
C1095 C 0.06958 0.345 0.04643 0.0
C1096 C 0.0463 0.34653 0.05665 0.0
C1097 C 0.07729 0.33681 1.0157 0.0
C1098 C 0.05861 0.32442 0.93519 0.0
H1099 H 0.11205 0.24793 0.8285 0.0
H1100 H 0.10169 0.26293 0.88226 0.0
H1101 H 0.05545 0.3183 0.88605 0.0
H1102 H 0.01298 0.34042 0.042 0.0
H1103 H 0.02608 0.32593 0.98961 0.0
H1104 H 0.09725 0.30471 0.97461 0.0
C1105 C 0.09945 0.27266 0.86161 0.0
C1106 C 0.06513 0.31544 0.90481 0.0
C1107 C 0.10526 0.26388 0.83065 0.0
C1108 C 0.03107 0.33974 0.03515 0.0
C1109 C 0.0387 0.33149 1.00468 0.0
C1110 C 0.08819 0.30817 0.9554 0.0
C1111 C 0.0904 0.29336 0.86582 0.0
C1112 C 0.08343 0.30273 0.89886 0.0
C1113 C 0.06195 0.32984 0.99422 0.0
C1114 C 0.06983 0.32083 0.96124 0.0
H1115 H 0.09086 0.30591 0.78661 0.0
H1116 H 0.08149 0.32124 0.83948 0.0
H1117 H 0.10923 0.28996 0.92145 0.0
H1118 H 0.08185 0.34988 0.0623 0.0
H1119 H 0.09535 0.33612 1.00875 0.0
C1120 C 0.06858 0.32064 0.16378 0.0
C1121 C 0.04608 0.3118 0.17797 0.0
C1122 C 0.08628 0.3079 0.16335 0.0
C1123 C 0.09525 0.2641 0.13087 0.0
H1124 H 0.09112 0.21534 0.19299 0.0
C1125 C 0.03388 0.18601 0.12057 0.0
C1126 C 0.01955 0.18047 0.1502 0.0
C1127 C 0.05514 0.19929 0.11941 0.0
C1128 C 0.09271 0.22875 0.175 0.0
H1129 H 0.02486 0.28382 0.20599 0.0
H1130 H 0.05564 0.26093 0.20444 0.0
H1131 H 0.10072 0.2545 0.20849 0.0
H1132 H 0.0157 0.18435 0.20164 0.0
H1133 H 0.05136 0.2098 0.19976 0.0
H1134 H 0.08249 0.23927 0.09959 0.0
C1135 C 0.05978 0.27809 0.19432 0.0
C1136 C 0.09873 0.25119 0.18375 0.0
C1137 C 0.04199 0.29095 0.19477 0.0
C1138 C 0.02622 0.18909 0.17851 0.0
C1139 C 0.04716 0.20291 0.17735 0.0
C1140 C 0.08811 0.24183 0.12262 0.0
C1141 C 0.08175 0.28593 0.17685 0.0
C1142 C 0.09596 0.26886 0.1634 0.0
C1143 C 0.06222 0.20778 0.14785 0.0
C1144 C 0.08319 0.22466 0.14677 0.0
H1145 H 0.07228 0.3366 0.15043 0.0
H1146 H 0.10285 0.31414 0.14933 0.0
H1147 H 0.09457 0.27758 0.11387 0.0
H1148 H 0.02938 0.17854 0.09856 0.0
H1149 H 0.06613 0.20252 0.0963 0.0
C1150 C 0.97301 0.7706 0.39116 0.0
C1151 C 0.95999 0.75226 0.37862 0.0
C1152 C 0.97798 0.76918 0.42206 0.0
C1153 C 0.97719 0.76907 0.49222 0.0
H1154 H -0.00121 0.71531 0.51921 0.0
C1155 C 0.06013 0.76802 0.48717 0.0
C1156 C 0.06731 0.7472 0.49246 0.0
C1157 C 0.03943 0.7727 0.5041 0.0
C1158 C -0.00782 0.73048 0.51316 0.0
H1159 H 0.94532 0.71701 0.38615 0.0
H1160 H 0.95337 0.71436 0.44075 0.0
H1161 H 0.97694 0.71272 0.47654 0.0
H1162 H 0.06224 0.71779 0.52468 0.0
H1163 H 0.0259 0.72588 0.55405 0.0
H1164 H -0.00501 0.78717 0.52657 0.0
C1165 C 0.95921 0.73015 0.42719 0.0
C1166 C 0.97963 0.72895 0.48805 0.0
C1167 C 0.9547 0.73151 0.39578 0.0
C1168 C 0.0562 0.7334 0.51906 0.0
C1169 C 0.03563 0.73827 0.5363 0.0
C1170 C 0.99005 0.77057 0.51707 0.0
C1171 C 0.9699 0.74941 0.4413 0.0
C1172 C 0.97435 0.74882 0.47493 0.0
C1173 C 0.02553 0.75614 0.52561 0.0
C1174 C 0.00076 0.75205 0.52375 0.0
H1175 H 0.97798 0.78669 0.37795 0.0
H1176 H 0.98775 0.7839 0.43096 0.0
H1177 H 0.97174 0.78442 0.48437 0.0
H1178 H 0.06911 0.77947 0.4677 0.0
H1179 H 0.03288 0.78737 0.49612 0.0
C1180 C 0.50349 0.68328 0.71489 0.0
C1181 C 0.51121 0.68193 0.6818 0.0
C1182 C 0.51683 0.69701 0.73387 0.0
C1183 C 0.54051 0.74058 0.75857 0.0
H1184 H 0.59943 0.7607 0.7065 0.0
C1185 C 0.54534 0.79201 0.66532 0.0
C1186 C 0.53878 0.8122 0.67809 0.0
C1187 C 0.55881 0.78008 0.68123 0.0
C1188 C 0.5837 0.75532 0.72303 0.0
H1189 H 0.53782 0.69415 0.64204 0.0
H1190 H 0.5602 0.71889 0.67397 0.0
H1191 H 0.58506 0.72032 0.71289 0.0
H1192 H 0.54314 0.83711 0.71513 0.0
H1193 H 0.56553 0.81573 0.7436 0.0
H1194 H 0.53863 0.77553 0.76736 0.0
C1195 C 0.54471 0.70878 0.68624 0.0
C1196 C 0.57519 0.73214 0.72629 0.0
C1197 C 0.53149 0.69524 0.66756 0.0
C1198 C 0.54774 0.82142 0.70496 0.0
C1199 C 0.56091 0.80941 0.72107 0.0
C1200 C 0.54965 0.76359 0.75696 0.0
C1201 C 0.53805 0.70929 0.71987 0.0
C1202 C 0.55182 0.72549 0.73847 0.0
C1203 C 0.56547 0.78804 0.71038 0.0
C1204 C 0.569 0.77103 0.73376 0.0
H1205 H 0.48807 0.67258 0.72633 0.0
H1206 H 0.51082 0.69758 0.75948 0.0
H1207 H 0.52297 0.73585 0.77022 0.0
H1208 H 0.53897 0.78478 0.64435 0.0
H1209 H 0.5618 0.76341 0.67265 0.0
C1210 C 0.55837 0.23045 1.01868 0.0
C1211 C 0.56993 0.24443 0.9925 0.0
C1212 C 0.5369 0.23431 0.03404 0.0
C1213 C 0.49029 0.26589 1.01747 0.0
H1214 H 0.4766 0.20968 0.97322 0.0
C1215 C 0.45065 0.2305 0.89751 0.0
C1216 C 0.45487 0.25181 0.88186 0.0
C1217 C 0.45595 0.22828 0.92837 0.0
C1218 C 0.47932 0.22536 0.98601 0.0
H1219 H 0.5709 0.27591 0.96618 0.0
H1220 H 0.53318 0.28216 0.99159 0.0
H1221 H 0.50132 0.21126 1.01233 0.0
H1222 H 0.47114 0.28676 0.88358 0.0
H1223 H 0.48203 0.28265 0.93553 0.0
H1224 H 0.46911 0.28028 0.98958 0.0
C1225 C 0.54027 0.26821 1.00071 0.0
C1226 C 0.49356 0.22625 1.00904 0.0
C1227 C 0.56179 0.26444 0.98554 0.0
C1228 C 0.46705 0.27018 0.89557 0.0
C1229 C 0.4727 0.26794 0.92593 0.0
C1230 C 0.47556 0.26489 0.99495 0.0
C1231 C 0.52661 0.25169 1.02243 0.0
C1232 C 0.50186 0.24741 1.02105 0.0
C1233 C 0.4662 0.24726 0.94355 0.0
C1234 C 0.47235 0.2454 0.97614 0.0
H1235 H 0.56493 0.21541 1.0254 0.0
H1236 H 0.52705 0.22174 0.05143 0.0
H1237 H 0.49551 0.28217 1.0277 0.0
H1238 H 0.4419 0.21601 0.88694 0.0
H1239 H 0.4513 0.21186 0.94058 0.0
C1240 C 0.95192 0.81673 0.95668 0.0
C1241 C 0.97357 0.81799 0.93736 0.0
C1242 C 0.93925 0.79571 0.96706 0.0
C1243 C 0.94791 0.74034 0.98706 0.0
H1244 H 0.92536 0.71744 0.91058 0.0
C1245 C 0.00574 0.70458 0.89623 0.0
C1246 C -0.00102 0.68609 0.87777 0.0
C1247 C 0.98931 0.71378 0.91739 0.0
C1248 C 0.93098 0.72283 0.93289 0.0
H1249 H -0.00096 0.79883 0.91316 0.0
H1250 H 0.97683 0.76192 0.9307 0.0
H1251 H 0.91356 0.75167 0.93451 0.0
H1252 H 0.97027 0.6657 0.86168 0.0
H1253 H 0.94137 0.68256 0.89751 0.0
H1254 H 0.96761 0.71296 0.98337 0.0
C1255 C 0.96966 0.77719 0.93793 0.0
C1256 C 0.92393 0.74239 0.94694 0.0
C1257 C 0.9821 0.79814 0.92717 0.0
C1258 C 0.97574 0.67995 0.87594 0.0
C1259 C 0.95924 0.68904 0.89718 0.0
C1260 C 0.95472 0.72051 0.97359 0.0
C1261 C 0.9485 0.77591 0.95871 0.0
C1262 C 0.93624 0.75337 0.96945 0.0
C1263 C 0.96598 0.70494 0.91957 0.0
C1264 C 0.94899 0.714 0.9435 0.0
H1265 H 0.94544 0.83206 0.96535 0.0
H1266 H 0.92281 0.79495 0.98246 0.0
H1267 H 0.95645 0.748 1.00604 0.0
H1268 H 0.0236 0.70962 0.89795 0.0
H1269 H -0.00499 0.72705 0.93313 0.0
C1270 C 0.57049 0.76229 0.15945 0.0
C1271 C 0.56674 0.74095 0.17495 0.0
C1272 C 0.5645 0.76451 0.12902 0.0
C1273 C 0.54429 0.72776 0.06303 0.0
H1274 H 0.51934 0.7817 0.04471 0.0
C1275 C 0.45864 0.72929 0.06943 0.0
C1276 C 0.45124 0.74981 0.06297 0.0
C1277 C 0.47996 0.72499 0.05421 0.0
C1278 C 0.52687 0.7666 0.04829 0.0
H1279 H 0.55048 0.70596 0.1737 0.0
H1280 H 0.53835 0.71008 0.12254 0.0
H1281 H 0.5434 0.78303 0.08461 0.0
H1282 H 0.45709 0.77916 0.03053 0.0
H1283 H 0.49462 0.77187 1.00439 0.0
H1284 H 0.52483 0.7107 0.02955 0.0
C1285 C 0.54786 0.7248 0.13183 0.0
C1286 C 0.54073 0.76735 0.07178 0.0
C1287 C 0.55423 0.72256 0.16174 0.0
C1288 C 0.46314 0.76374 0.03695 0.0
C1289 C 0.4844 0.75932 1.02151 0.0
C1290 C 0.52992 0.7269 0.04005 0.0
C1291 C 0.554 0.74549 0.11418 0.0
C1292 C 0.54752 0.74726 0.0818 0.0
C1293 C 0.49417 0.74154 0.0331 0.0
C1294 C 0.5187 0.74554 0.03588 0.0
H1295 H 0.57949 0.77679 0.16967 0.0
H1296 H 0.56889 0.78094 0.11681 0.0
H1297 H 0.55079 0.71237 0.06837 0.0
H1298 H 0.4492 0.71781 0.08859 0.0
H1299 H 0.48655 0.71063 0.0631 0.0
C1300 C 0.47262 0.1974 0.40404 0.0
C1301 C 0.48278 0.18202 0.3834 0.0
C1302 C 0.45433 0.20698 0.39597 0.0
C1303 C 0.41815 0.22871 0.37343 0.0
H1304 H 0.46265 0.26199 0.3069 0.0
C1305 C 0.49119 0.30873 0.36081 0.0
C1306 C 0.48955 0.30978 0.39428 0.0
C1307 C 0.47395 0.29593 0.34711 0.0
C1308 C 0.4494 0.25337 0.32516 0.0
H1309 H 0.48135 0.16364 0.33918 0.0
H1310 H 0.44951 0.18033 0.32507 0.0
H1311 H 0.45692 0.22143 0.30726 0.0
H1312 H 0.46964 0.29717 0.43992 0.0
H1313 H 0.44088 0.27331 0.41684 0.0
H1314 H 0.41124 0.26088 0.39185 0.0
C1315 C 0.45525 0.1847 0.34768 0.0
C1316 C 0.44592 0.22968 0.32513 0.0
C1317 C 0.47359 0.17532 0.35566 0.0
C1318 C 0.4711 0.29692 0.41395 0.0
C1319 C 0.45418 0.28362 0.40041 0.0
C1320 C 0.42092 0.25248 0.37264 0.0
C1321 C 0.44603 0.20137 0.367 0.0
C1322 C 0.43382 0.21772 0.35291 0.0
C1323 C 0.45526 0.28275 0.36664 0.0
C1324 C 0.44007 0.26454 0.3526 0.0
H1325 H 0.47922 0.20254 0.4258 0.0
H1326 H 0.44801 0.22019 0.41111 0.0
H1327 H 0.40724 0.2196 0.39384 0.0
H1328 H 0.50561 0.31828 0.34516 0.0
H1329 H 0.47573 0.29608 0.32117 0.0
C1330 C 0.05503 0.21676 0.66581 0.0
C1331 C 0.06503 0.23564 0.68106 0.0
C1332 C 0.04839 0.21938 0.63614 0.0
C1333 C 0.04021 0.26358 0.57727 0.0
H1334 H 0.02625 0.20793 0.53188 0.0
C1335 C 0.96598 0.26266 0.53987 0.0
C1336 C 0.95404 0.24872 0.56587 0.0
C1337 C 0.9866 0.25741 0.5233 0.0
C1338 C 0.03083 0.22388 0.54337 0.0
H1339 H 0.0716 0.27212 0.68092 0.0
H1340 H 0.06207 0.27714 0.62805 0.0
H1341 H 0.05021 0.20859 0.57293 0.0
H1342 H 0.95085 0.21595 0.58995 0.0
H1343 H 0.98715 0.20737 0.56257 0.0
H1344 H 0.02089 0.27883 0.54798 0.0
C1345 C 0.05969 0.26006 0.63795 0.0
C1346 C 0.04391 0.22412 0.56787 0.0
C1347 C 0.06544 0.25738 0.66835 0.0
C1348 C 0.96044 0.22747 0.57096 0.0
C1349 C 0.98114 0.22238 0.5546 0.0
C1350 C 0.02784 0.26347 0.55213 0.0
C1351 C 0.05207 0.24092 0.6206 0.0
C1352 C 0.04629 0.24319 0.58771 0.0
C1353 C -0.00415 0.23901 0.53419 0.0
C1354 C 0.0201 0.24273 0.53854 0.0
H1355 H 0.05364 0.19971 0.6758 0.0
H1356 H 0.04083 0.20424 0.62538 0.0
H1357 H 0.0424 0.27914 0.59037 0.0
H1358 H 0.96058 0.27863 0.53438 0.0
H1359 H -0.0029 0.26995 0.50642 0.0
C1360 C 0.98995 0.05891 0.10749 0.0
C1361 C 0.00625 0.06084 0.12813 0.0
C1362 C 0.99102 0.04367 0.08202 0.0
C1363 C 0.0307 0.0099 0.03151 0.0
H1364 H 0.97474 0.97683 1.01007 0.0
C1365 C 0.0307 0.93623 0.94044 0.0
C1366 C 0.01395 0.9337 0.92046 0.0
C1367 C 0.03012 0.95212 0.96512 0.0
C1368 C 0.99057 0.98612 1.01536 0.0
H1369 H 0.03651 0.04827 0.1382 0.0
H1370 H 0.0382 0.02139 0.09426 0.0
H1371 H 0.97294 0.00341 0.05414 0.0
H1372 H 0.98365 0.94622 0.91043 0.0
H1373 H 0.98289 0.97429 0.95284 0.0
H1374 H 0.04833 0.99258 0.99276 0.0
C1375 C 0.0247 0.03184 0.09736 0.0
C1376 C 0.98952 0.00142 0.04077 0.0
C1377 C 0.02362 0.04711 0.12281 0.0
C1378 C -0.00309 0.94784 0.92523 0.0
C1379 C -0.00368 0.96375 0.9499 0.0
C1380 C 0.03174 0.9946 1.00608 0.0
C1381 C 0.00843 0.02989 0.07652 0.0
C1382 C 0.00957 0.01356 0.04927 0.0
C1383 C 0.01278 0.966 0.97047 0.0
C1384 C 0.01169 0.98246 0.99757 0.0
H1385 H 0.97638 0.06927 0.11094 0.0
H1386 H 0.97835 0.04297 0.06633 0.0
H1387 H 0.04651 0.01915 0.03688 0.0
H1388 H 0.044 0.92552 0.93747 0.0
H1389 H 0.04295 0.95305 0.98058 0.0
C1390 C 0.18984 0.73332 0.37224 0.0
C1391 C 0.18411 0.75498 0.38025 0.0
C1392 C 0.20825 0.73099 0.34738 0.0
C1393 C 0.26043 0.76498 0.29798 0.0
H1394 H 0.25441 0.71635 0.23741 0.0
C1395 C 0.32711 0.76201 0.18006 0.0
C1396 C 0.33312 0.74045 0.17217 0.0
C1397 C 0.30857 0.76419 0.20477 0.0
C1398 C 0.25654 0.72999 0.2542 0.0
H1399 H 0.19358 0.79107 0.3686 0.0
H1400 H 0.22496 0.78704 0.32621 0.0
H1401 H 0.22408 0.71802 0.28321 0.0
H1402 H 0.32388 0.70433 0.18374 0.0
H1403 H 0.29223 0.70809 0.22585 0.0
H1404 H 0.29288 0.77697 0.26898 0.0
C1405 C 0.21571 0.77179 0.33894 0.0
C1406 C 0.23908 0.73086 0.28068 0.0
C1407 C 0.19745 0.77407 0.36333 0.0
C1408 C 0.31983 0.72126 0.18895 0.0
C1409 C 0.30141 0.72339 0.21317 0.0
C1410 C 0.27787 0.76412 0.2715 0.0
C1411 C 0.22144 0.75028 0.33029 0.0
C1412 C 0.24068 0.74841 0.30299 0.0
C1413 C 0.2955 0.74483 0.22182 0.0
C1414 C 0.27626 0.74659 0.24917 0.0
H1415 H 0.17981 0.71825 0.38452 0.0
H1416 H 0.21215 0.71409 0.34157 0.0
H1417 H 0.26258 0.77861 0.31478 0.0
H1418 H 0.33705 0.77715 0.16787 0.0
H1419 H 0.3045 0.78104 0.21056 0.0
C1420 C 0.51702 0.05153 0.42761 0.0
C1421 C 0.51894 0.07399 0.43862 0.0
C1422 C 0.51563 0.03295 0.44882 0.0
C1423 C 0.52512 0.01696 0.53134 0.0
H1424 H 0.48524 0.96157 0.51774 0.0
C1425 C 0.50414 0.94246 0.62584 0.0
C1426 C 0.50274 0.91998 0.61489 0.0
C1427 C 0.50557 0.96096 0.60449 0.0
C1428 C 0.49668 0.97676 0.52181 0.0
H1429 H 0.52136 0.09438 0.4809 0.0
H1430 H 0.5189 0.06208 0.51795 0.0
H1431 H 0.48945 0.99409 0.48092 0.0
H1432 H 0.50123 0.89948 0.57255 0.0
H1433 H 0.50362 0.93168 0.53525 0.0
H1434 H 0.53229 -0.00035 0.5723 0.0
C1435 C 0.5187 0.05874 0.49273 0.0
C1436 C 0.49914 0.99555 0.50052 0.0
C1437 C 0.52012 0.07736 0.47143 0.0
C1438 C 0.50206 0.9165 0.58198 0.0
C1439 C 0.50346 0.93506 0.56054 0.0
C1440 C 0.52263 -0.00181 0.55265 0.0
C1441 C 0.51608 0.03614 0.4819 0.0
C1442 C 0.51344 0.01601 0.50484 0.0
C1443 C 0.50563 0.95767 0.57134 0.0
C1444 C 0.50833 0.97774 0.54832 0.0
H1445 H 0.51603 0.04821 0.40256 0.0
H1446 H 0.51413 0.016 0.43917 0.0
H1447 H 0.53658 0.03213 0.53541 0.0
H1448 H 0.50474 0.94588 0.65097 0.0
H1449 H 0.50673 0.97792 0.61407 0.0
C1450 C 0.33481 0.22165 0.79911 0.0
C1451 C 0.34322 0.236 0.82233 0.0
C1452 C 0.3158 0.22573 0.78611 0.0
C1453 C 0.27917 0.26954 0.77562 0.0
H1454 H 0.23554 0.21686 0.76222 0.0
C1455 C 0.18989 0.27763 0.74615 0.0
C1456 C 0.18094 0.26276 0.72387 0.0
C1457 C 0.2101 0.27469 0.75696 0.0
C1458 C 0.24766 0.23175 0.76536 0.0
H1459 H 0.33854 0.2663 0.84965 0.0
H1460 H 0.3049 0.27344 0.82714 0.0
H1461 H 0.26972 0.2117 0.78376 0.0
H1462 H 0.18639 0.23329 0.69504 0.0
H1463 H 0.22185 0.22801 0.71399 0.0
H1464 H 0.25692 0.28958 0.75744 0.0
C1465 C 0.31322 0.25904 0.81879 0.0
C1466 C 0.26733 0.22881 0.77778 0.0
C1467 C 0.33241 0.25493 0.83183 0.0
C1468 C 0.19276 0.24488 0.71243 0.0
C1469 C 0.21304 0.24187 0.72338 0.0
C1470 C 0.25945 0.27248 0.76324 0.0
C1471 C 0.30447 0.24426 0.79606 0.0
C1472 C 0.28339 0.24764 0.78309 0.0
C1473 C 0.22199 0.25678 0.74579 0.0
C1474 C 0.2434 0.25362 0.75798 0.0
H1475 H 0.34291 0.20706 0.79094 0.0
H1476 H 0.31 0.2143 0.76814 0.0
H1477 H 0.29127 0.28441 0.77889 0.0
H1478 H 0.18116 0.29155 0.75555 0.0
H1479 H 0.21618 0.28628 0.77457 0.0
C1480 C 0.69558 0.23426 0.87734 0.0
C1481 C 0.68848 0.25561 0.88334 0.0
C1482 C 0.71414 0.23195 0.85268 0.0
C1483 C 0.76437 0.26645 0.79991 0.0
H1484 H 0.76032 0.21485 0.74397 0.0
C1485 C 0.83057 0.26124 0.68163 0.0
C1486 C 0.83724 0.23974 0.67522 0.0
C1487 C 0.81227 0.26371 0.70664 0.0
C1488 C 0.76194 0.22933 0.75947 0.0
H1489 H 0.69575 0.29126 0.86838 0.0
H1490 H 0.72741 0.28729 0.82638 0.0
H1491 H 0.7301 0.21692 0.78972 0.0
H1492 H 0.82961 0.20407 0.69009 0.0
H1493 H 0.79853 0.20834 0.73271 0.0
H1494 H 0.79623 0.27886 0.76965 0.0
C1495 C 0.71909 0.27227 0.8405 0.0
C1496 C 0.74453 0.23044 0.78593 0.0
C1497 C 0.70066 0.2745 0.86467 0.0
C1498 C 0.82502 0.22094 0.69403 0.0
C1499 C 0.8069 0.22334 0.71857 0.0
C1500 C 0.7818 0.26533 0.77346 0.0
C1501 C 0.72612 0.251 0.8338 0.0
C1502 C 0.7454 0.24905 0.80658 0.0
C1503 C 0.80016 0.2447 0.72551 0.0
C1504 C 0.78093 0.24672 0.75281 0.0
H1505 H 0.68656 0.21934 0.89106 0.0
H1506 H 0.71909 0.21527 0.84842 0.0
H1507 H 0.76593 0.28095 0.81539 0.0
H1508 H 0.83967 0.27611 0.66786 0.0
H1509 H 0.80758 0.28048 0.7111 0.0
C1510 C 0.83754 0.71959 0.29923 0.0
C1511 C 0.84677 0.73452 0.32124 0.0
C1512 C 0.81755 0.72286 0.28808 0.0
C1513 C 0.77961 0.7659 0.27981 0.0
H1514 H 0.73633 0.71272 0.26722 0.0
C1515 C 0.68994 0.77334 0.25174 0.0
C1516 C 0.68124 0.75891 0.22878 0.0
C1517 C 0.70999 0.77018 0.26279 0.0
C1518 C 0.74834 0.72774 0.2702 0.0
H1519 H 0.84229 0.76486 0.34854 0.0
H1520 H 0.80705 0.77062 0.32922 0.0
H1521 H 0.77113 0.70806 0.28769 0.0
H1522 H 0.68686 0.72976 0.19933 0.0
H1523 H 0.72212 0.72405 0.21879 0.0
H1524 H 0.75669 0.78556 0.2625 0.0
C1525 C 0.81547 0.75639 0.32037 0.0
C1526 C 0.76836 0.7251 0.282 0.0
C1527 C 0.83561 0.75308 0.33159 0.0
C1528 C 0.69312 0.74111 0.21709 0.0
C1529 C 0.71324 0.73781 0.22838 0.0
C1530 C 0.75955 0.76854 0.2681 0.0
C1531 C 0.80604 0.74117 0.29864 0.0
C1532 C 0.78435 0.74413 0.28689 0.0
C1533 C 0.72203 0.75245 0.25123 0.0
C1534 C 0.74363 0.7495 0.2631 0.0
H1535 H 0.8458 0.70521 0.29052 0.0
H1536 H 0.81123 0.71106 0.27088 0.0
H1537 H 0.7916 0.78094 0.28271 0.0
H1538 H 0.68118 0.78719 0.26135 0.0
H1539 H 0.71593 0.78154 0.28074 0.0
C1540 C 0.5325 0.55301 0.61244 0.0
C1541 C 0.51564 0.5673 0.61797 0.0
C1542 C 0.53136 0.53581 0.58978 0.0
C1543 C 0.49126 0.50141 0.54335 0.0
H1544 H 0.54729 0.4877 0.49227 0.0
C1545 C 0.49146 0.43914 0.43699 0.0
C1546 C 0.50832 0.42483 0.43243 0.0
C1547 C 0.49207 0.45637 0.45973 0.0
C1548 C 0.53147 0.49107 0.50657 0.0
H1549 H 0.48419 0.5746 0.60429 0.0
H1550 H 0.48242 0.54498 0.56402 0.0
H1551 H 0.54884 0.51814 0.53084 0.0
H1552 H 0.53902 0.41726 0.44823 0.0
H1553 H 0.53996 0.44702 0.48826 0.0
H1554 H 0.4739 0.47435 0.51888 0.0
C1555 C 0.49643 0.54682 0.57751 0.0
C1556 C 0.53235 0.5086 0.52879 0.0
C1557 C 0.49754 0.56398 0.60035 0.0
C1558 C 0.52576 0.42801 0.45123 0.0
C1559 C 0.52639 0.44522 0.47399 0.0
C1560 C 0.49037 0.48389 0.52105 0.0
C1561 C 0.51335 0.53246 0.57187 0.0
C1562 C 0.51227 0.51401 0.54763 0.0
C1563 C 0.50959 0.45973 0.4785 0.0
C1564 C 0.51048 0.47841 0.50238 0.0
H1565 H 0.54663 0.55506 0.62573 0.0
H1566 H 0.54449 0.52493 0.58668 0.0
H1567 H 0.47544 0.50475 0.55769 0.0
H1568 H 0.47777 0.43708 0.42288 0.0
H1569 H 0.47899 0.46731 0.46216 0.0
C1570 C 0.00895 0.57327 0.98002 0.0
C1571 C 0.01469 0.57277 0.94633 0.0
C1572 C 0.00918 0.5542 0.99938 0.0
C1573 C 0.00335 0.49126 0.9963 0.0
H1574 H 0.01972 0.49643 0.08153 0.0
C1575 C 0.00713 0.41211 0.07532 0.0
C1576 C 0.0039 0.41356 0.10902 0.0
C1577 C 0.00649 0.43099 0.05571 0.0
C1578 C 0.01462 0.49459 0.05807 0.0
H1579 H 0.02546 0.55175 0.90649 0.0
H1580 H 0.0264 0.51826 0.94041 0.0
H1581 H 0.02534 0.53009 0.04663 0.0
H1582 H -0.00309 0.436 0.1486 0.0
H1583 H -0.00553 0.46877 0.11464 0.0
H1584 H -0.00764 0.45584 1.00781 0.0
C1585 C 0.02168 0.53357 0.9519 0.0
C1586 C 0.01804 0.51401 0.03783 0.0
C1587 C 0.02162 0.55289 0.93242 0.0
C1588 C -0.00138 0.43406 0.12279 0.0
C1589 C -0.00212 0.45305 0.10313 0.0
C1590 C -0.0002 0.47184 1.01662 0.0
C1591 C 0.01492 0.53378 0.98568 0.0
C1592 C 0.01247 0.51271 1.00659 0.0
C1593 C 0.00268 0.45209 0.06918 0.0
C1594 C 0.00537 0.47312 0.04792 0.0
H1595 H 0.00294 0.58814 0.99137 0.0
H1596 H 0.00354 0.55513 1.02506 0.0
H1597 H -0.0016 0.48953 0.97274 0.0
H1598 H 0.01211 0.39683 0.06394 0.0
H1599 H 0.01063 0.42935 0.02991 0.0
C1600 C 0.04294 0.17454 0.38635 0.0
C1601 C 0.05487 0.15971 0.36598 0.0
C1602 C 0.04996 0.18222 0.4155 0.0
C1603 C 0.08775 0.17042 0.47615 0.0
H1604 H 0.07732 0.23016 0.50609 0.0
C1605 C 0.10757 0.20123 0.6033 0.0
C1606 C 0.11214 0.22469 0.60928 0.0
C1607 C 0.10102 0.19331 0.57392 0.0
C1608 C 0.08065 0.21343 0.49842 0.0
H1609 H 0.08434 0.14196 0.3619 0.0
H1610 H 0.09623 0.155 0.4121 0.0
H1611 H 0.06556 0.21684 0.45617 0.0
H1612 H 0.11311 0.25805 0.58788 0.0
H1613 H 0.10283 0.24461 0.53705 0.0
H1614 H 0.10328 0.16717 0.51799 0.0
C1615 C 0.08111 0.16054 0.40576 0.0
C1616 C 0.0735 0.20557 0.46945 0.0
C1617 C 0.07415 0.15292 0.37652 0.0
C1618 C 0.11003 0.23986 0.58452 0.0
C1619 C 0.10376 0.23198 0.55507 0.0
C1620 C 0.09481 0.17826 0.50523 0.0
C1621 C 0.06923 0.17543 0.42599 0.0
C1622 C 0.07688 0.18386 0.45751 0.0
C1623 C 0.09892 0.20848 0.54895 0.0
C1624 C 0.09142 0.19998 0.51726 0.0
H1625 H 0.02776 0.18005 0.38021 0.0
H1626 H 0.03986 0.19326 0.43014 0.0
H1627 H 0.09064 0.15354 0.46854 0.0
H1628 H 0.10851 0.18885 0.62169 0.0
H1629 H 0.09711 0.17513 0.57129 0.0
C1630 C 0.13235 0.81991 0.63039 0.0
C1631 C 0.13689 0.83678 0.60593 0.0
C1632 C 0.13201 0.82591 0.66239 0.0
C1633 C 0.12202 0.87363 0.7147 0.0
H1634 H 0.13721 0.83367 0.77812 0.0
C1635 C 0.0885 0.88363 0.84611 0.0
C1636 C 0.07299 0.86396 0.85616 0.0
C1637 C 0.10571 0.8829 0.81962 0.0
C1638 C 0.13336 0.84523 0.7606 0.0
H1639 H 0.14507 0.87313 0.59567 0.0
H1640 H 0.14526 0.88354 0.65147 0.0
H1641 H 0.14938 0.82773 0.72085 0.0
H1642 H 0.06426 0.82787 0.84941 0.0
H1643 H 0.09468 0.82635 0.80375 0.0
H1644 H 0.10511 0.89045 0.75429 0.0
C1645 C 0.14164 0.86571 0.64595 0.0
C1646 C 0.14007 0.84172 0.72791 0.0
C1647 C 0.14172 0.85972 0.61399 0.0
C1648 C 0.07622 0.84315 0.84193 0.0
C1649 C 0.09367 0.84231 0.81598 0.0
C1650 C 0.11555 0.87728 0.74732 0.0
C1651 C 0.13646 0.84889 0.67053 0.0
C1652 C 0.13359 0.85529 0.70469 0.0
C1653 C 0.1077 0.86241 0.80351 0.0
C1654 C 0.12033 0.86252 0.77047 0.0
H1655 H 0.12892 0.80205 0.62487 0.0
H1656 H 0.12754 0.81256 0.6808 0.0
H1657 H 0.11647 0.8842 0.69747 0.0
H1658 H 0.086 0.8999 0.85668 0.0
H1659 H 0.1163 0.8986 0.81027 0.0
C1660 C 0.40843 0.79842 1.00914 0.0
C1661 C 0.40239 0.77474 1.01516 0.0
C1662 C 0.41853 0.80744 0.97821 0.0
C1663 C 0.4286 0.79237 0.88998 0.0
H1664 H 0.47151 0.84835 0.88145 0.0
C1665 C 0.45966 0.83932 0.76504 0.0
C1666 C 0.48208 0.85126 0.75728 0.0
C1667 C 0.45078 0.83014 0.79619 0.0
C1668 C 0.45972 0.8326 0.88311 0.0
H1669 H 0.40286 0.74217 0.99216 0.0
H1670 H 0.42015 0.75768 0.9386 0.0
H1671 H 0.45509 0.83209 0.93481 0.0
H1672 H 0.51259 0.86254 0.77754 0.0
H1673 H 0.49709 0.84687 0.83193 0.0
H1674 H 0.43356 0.79258 0.83835 0.0
C1675 C 0.41681 0.76949 0.95775 0.0
C1676 C 0.44994 0.82331 0.91408 0.0
C1677 C 0.4068 0.76047 0.98878 0.0
C1678 C 0.49518 0.85384 0.78232 0.0
C1679 C 0.48619 0.84474 0.81375 0.0
C1680 C 0.43833 0.80166 0.85906 0.0
C1681 C 0.42304 0.79321 0.95174 0.0
C1682 C 0.43402 0.80303 0.91829 0.0
C1683 C 0.46382 0.83246 0.82131 0.0
C1684 C 0.454 0.8221 0.85483 0.0
H1685 H 0.40581 0.81017 1.0286 0.0
H1686 H 0.42266 0.82574 0.97512 0.0
H1687 H 0.41641 0.77691 0.89156 0.0
H1688 H 0.44887 0.83662 0.74675 0.0
H1689 H 0.43344 0.82127 0.80051 0.0
C1690 C 0.38873 0.1148 0.2698 0.0
C1691 C 0.4106 0.10922 0.27049 0.0
C1692 C 0.38177 0.11817 0.24038 0.0
C1693 C 0.40518 0.14192 0.16404 0.0
H1694 H 0.35632 0.10715 0.12683 0.0
C1695 C 0.38227 0.16851 0.0449 0.0
C1696 C 0.3846 0.15169 1.02159 0.0
C1697 C 0.38114 0.16304 0.07726 0.0
C1698 C 0.36983 0.11705 0.13726 0.0
H1699 H 0.44153 0.10086 0.24137 0.0
H1700 H 0.42956 0.10753 0.19008 0.0
H1701 H 0.36266 0.09662 0.18077 0.0
H1702 H 0.38664 0.11586 1.01393 0.0
H1703 H 0.38415 0.10626 0.07079 0.0
H1704 H 0.41269 0.16215 0.12069 0.0
C1705 C 0.41797 0.10932 0.21223 0.0
C1706 C 0.37338 0.1111 0.16785 0.0
C1707 C 0.42479 0.10567 0.24147 0.0
C1708 C 0.38463 0.12911 0.03138 0.0
C1709 C 0.38318 0.1236 0.06382 0.0
C1710 C 0.40142 0.14808 0.13382 0.0
C1711 C 0.3967 0.11614 0.21161 0.0
C1712 C 0.39134 0.12328 0.18097 0.0
C1713 C 0.38194 0.14063 0.08679 0.0
C1714 C 0.38397 0.13546 0.12006 0.0
H1715 H 0.37755 0.11771 0.29186 0.0
H1716 H 0.36532 0.12354 0.24005 0.0
H1717 H 0.41912 0.15145 0.17404 0.0
H1718 H 0.38165 0.18596 0.03814 0.0
H1719 H 0.38009 0.17636 0.09479 0.0
C1720 C 0.91113 0.75187 0.4703 0.0
C1721 C 0.91148 0.76727 0.44461 0.0
C1722 C 0.9165 0.75938 0.50049 0.0
C1723 C 0.92624 0.81287 0.55064 0.0
H1724 H 0.95183 0.773 0.60273 0.0
C1725 C 0.95918 0.84543 0.66984 0.0
C1726 C 0.95974 0.82998 0.69519 0.0
C1727 C 0.95349 0.83796 0.63976 0.0
C1728 C 0.94438 0.78448 0.5891 0.0
H1729 H 0.91848 0.80316 0.43161 0.0
H1730 H 0.92808 0.81618 0.48331 0.0
H1731 H 0.94122 0.76 0.55199 0.0
H1732 H 0.95464 0.79379 0.7067 0.0
H1733 H 0.94403 0.78104 0.6558 0.0
H1734 H 0.929 0.83721 0.58802 0.0
C1735 C 0.92301 0.79813 0.48072 0.0
C1736 C 0.93822 0.77689 0.55935 0.0
C1737 C 0.91752 0.79059 0.45057 0.0
C1738 C 0.95424 0.80662 0.68869 0.0
C1739 C 0.94841 0.79915 0.6587 0.0
C1740 C 0.93218 0.82039 0.58056 0.0
C1741 C 0.92269 0.78274 0.50657 0.0
C1742 C 0.92907 0.79089 0.53915 0.0
C1743 C 0.94786 0.81458 0.6333 0.0
C1744 C 0.94146 0.80643 0.6007 0.0
H1745 H 0.9068 0.73377 0.46711 0.0
H1746 H 0.91564 0.74664 0.51914 0.0
H1747 H 0.91891 0.82437 0.53685 0.0
H1748 H 0.96291 0.86357 0.67315 0.0
H1749 H 0.95379 0.85078 0.62143 0.0
C1750 C 0.88512 0.13166 0.44466 0.0
C1751 C 0.88136 0.15352 0.45448 0.0
C1752 C 0.88361 0.12516 0.41324 0.0
C1753 C 0.89003 0.15051 0.33291 0.0
H1754 H 0.87215 0.08789 0.31044 0.0
C1755 C 0.91961 0.12442 0.20737 0.0
C1756 C 0.93441 0.10852 0.20954 0.0
C1757 C 0.90259 0.127 0.23345 0.0
C1758 C 0.87677 0.10553 0.31633 0.0
H1759 H 0.87205 0.18543 0.44009 0.0
H1760 H 0.8691 0.17399 0.38511 0.0
H1761 H 0.86308 0.09937 0.36625 0.0
H1762 H 0.94149 0.08083 0.23783 0.0
H1763 H 0.91178 0.08508 0.2831 0.0
H1764 H 0.90485 0.15646 0.28358 0.0
C1765 C 0.87362 0.16201 0.40145 0.0
C1766 C 0.8718 0.11205 0.34823 0.0
C1767 C 0.87537 0.16858 0.43279 0.0
C1768 C 0.9302 0.09326 0.2359 0.0
C1769 C 0.91309 0.09563 0.26171 0.0
C1770 C 0.89486 0.14404 0.30108 0.0
C1771 C 0.87808 0.14036 0.39121 0.0
C1772 C 0.87921 0.13439 0.35698 0.0
C1773 C 0.90022 0.11355 0.2616 0.0
C1774 C 0.88909 0.1213 0.29271 0.0
H1775 H 0.88993 0.11986 0.46101 0.0
H1776 H 0.88764 0.10855 0.40591 0.0
H1777 H 0.8963 0.16776 0.33889 0.0
H1778 H 0.92274 0.13641 0.18721 0.0
H1779 H 0.89273 0.14083 0.23278 0.0
C1780 C 0.60844 0.2346 0.0647 0.0
C1781 C 0.62016 0.22186 0.04092 0.0
C1782 C 0.59844 0.22503 0.0954 0.0
C1783 C 0.5996 0.17624 0.15234 0.0
H1784 H 0.54247 0.19272 0.19605 0.0
C1785 C 0.56361 0.14867 0.28671 0.0
C1786 C 0.53982 0.14314 0.29687 0.0
C1787 C 0.57286 0.15776 0.25559 0.0
C1788 C 0.55836 0.18771 0.18426 0.0
H1789 H 0.62998 0.1885 0.03169 0.0
H1790 H 0.61313 0.17206 0.08491 0.0
H1791 H 0.5593 0.20918 0.14277 0.0
H1792 H 0.50723 0.1435 0.28131 0.0
H1793 H 0.52326 0.15912 0.2271 0.0
H1794 H 0.59864 0.15466 0.19357 0.0
C1795 C 0.6118 0.18965 0.08004 0.0
C1796 C 0.56825 0.19745 0.15358 0.0
C1797 C 0.62158 0.19916 0.04924 0.0
C1798 C 0.52561 0.14707 0.27449 0.0
C1799 C 0.53489 0.15638 0.24333 0.0
C1800 C 0.58983 0.16666 0.18306 0.0
C1801 C 0.59988 0.20232 0.10379 0.0
C1802 C 0.58911 0.19191 0.1369 0.0
C1803 C 0.55875 0.16197 0.23319 0.0
C1804 C 0.56899 0.17216 0.19978 0.0
H1805 H 0.60639 0.25193 0.05938 0.0
H1806 H 0.58965 0.23559 0.11266 0.0
H1807 H 0.61571 0.17152 0.14089 0.0
H1808 H 0.57526 0.14633 0.30311 0.0
H1809 H 0.59123 0.16206 0.24943 0.0
C1810 C 0.59823 0.89365 0.81461 0.0
C1811 C 0.61139 0.8883 0.78558 0.0
C1812 C 0.60493 0.88951 0.8438 0.0
C1813 C 0.64715 0.88499 0.88941 0.0
H1814 H 0.60759 0.8329 0.93363 0.0
C1815 C 0.63391 0.86523 1.02549 0.0
C1816 C 0.63399 0.84258 0.0349 0.0
C1817 C 0.63553 0.87105 0.99311 0.0
C1818 C 0.61895 0.84725 0.92132 0.0
H1819 H 0.64261 0.87596 0.76413 0.0
H1820 H 0.65466 0.8693 0.81579 0.0
H1821 H 0.60247 0.84429 0.87987 0.0
H1822 H 0.63699 0.80846 1.01776 0.0
H1823 H 0.6389 0.81859 0.96122 0.0
H1824 H 0.66299 0.88854 0.93156 0.0
C1825 C 0.6391 0.87648 0.8155 0.0
C1826 C 0.61595 0.85377 0.89085 0.0
C1827 C 0.63225 0.88035 0.78615 0.0
C1828 C 0.63633 0.82596 1.01129 0.0
C1829 C 0.63765 0.83174 0.979 0.0
C1830 C 0.64997 0.87864 0.92019 0.0
C1831 C 0.62508 0.88042 0.84432 0.0
C1832 C 0.62988 0.87276 0.875 0.0
C1833 C 0.63701 0.85426 0.9698 0.0
C1834 C 0.63572 0.85986 0.93637 0.0
H1835 H 0.58231 0.90024 0.81482 0.0
H1836 H 0.59401 0.89265 0.86603 0.0
H1837 H 0.65789 0.89977 0.87731 0.0
H1838 H 0.63188 0.87834 0.04316 0.0
H1839 H 0.63467 0.88847 0.98643 0.0
C1840 C 0.58153 0.65523 0.87314 0.0
C1841 C 0.56099 0.65965 0.86355 0.0
C1842 C 0.58781 0.66274 0.90281 0.0
C1843 C 0.57626 0.70496 0.96869 0.0
H1844 H 0.60778 0.66791 1.01667 0.0
C1845 C 0.61217 0.73962 0.08404 0.0
C1846 C 0.61382 0.72442 0.10904 0.0
C1847 C 0.60601 0.73177 0.05452 0.0
C1848 C 0.59882 0.67858 1.004 0.0
H1849 H 0.531 0.6758 0.88049 0.0
H1850 H 0.5423 0.68928 0.93049 0.0
H1851 H 0.59643 0.65437 0.96624 0.0
H1852 H 0.60956 0.68857 0.12173 0.0
H1853 H 0.59868 0.6749 0.07094 0.0
H1854 H 0.57863 0.7292 1.00615 0.0
C1855 C 0.5537 0.67997 0.91481 0.0
C1856 C 0.5925 0.67082 0.97448 0.0
C1857 C 0.54721 0.67215 0.88544 0.0
C1858 C 0.60895 0.70097 0.10319 0.0
C1859 C 0.6027 0.69308 0.07365 0.0
C1860 C 0.58279 0.71283 0.99801 0.0
C1861 C 0.57411 0.6754 0.92428 0.0
C1862 C 0.58101 0.68379 0.95614 0.0
C1863 C 0.60106 0.70828 0.04852 0.0
C1864 C 0.59414 0.69981 1.01658 0.0
H1865 H 0.59325 0.64622 0.85764 0.0
H1866 H 0.60382 0.65897 0.90855 0.0
H1867 H 0.56772 0.71578 0.95557 0.0
H1868 H 0.61553 0.7578 0.08726 0.0
H1869 H 0.60536 0.74435 0.03629 0.0
C1870 C 0.59619 0.36226 0.35316 0.0
C1871 C 0.58114 0.37756 0.3491 0.0
C1872 C 0.61414 0.35976 0.32838 0.0
C1873 C 0.6242 0.3417 0.26166 0.0
H1874 H 0.65405 0.38628 0.19518 0.0
C1875 C 0.61733 0.33079 0.13017 0.0
C1876 C 0.63705 0.33574 0.10682 0.0
C1877 C 0.61821 0.33541 0.16232 0.0
C1878 C 0.6463 0.37357 0.2137 0.0
H1879 H 0.57432 0.40429 0.31888 0.0
H1880 H 0.60565 0.40024 0.27588 0.0
H1881 H 0.64565 0.39812 0.25095 0.0
H1882 H 0.6732 0.34934 0.09891 0.0
H1883 H 0.67437 0.3583 0.15533 0.0
H1884 H 0.62328 0.31755 0.22407 0.0
C1885 C 0.60388 0.3901 0.29775 0.0
C1886 C 0.6415 0.38033 0.24551 0.0
C1887 C 0.58581 0.39234 0.32222 0.0
C1888 C 0.65763 0.34565 0.11628 0.0
C1889 C 0.65841 0.35059 0.14849 0.0
C1890 C 0.62889 0.33501 0.22991 0.0
C1891 C 0.61719 0.37271 0.29965 0.0
C1892 C 0.62936 0.36467 0.26945 0.0
C1893 C 0.63874 0.34531 0.1717 0.0
C1894 C 0.63895 0.35113 0.20556 0.0
H1895 H 0.59268 0.35065 0.37379 0.0
H1896 H 0.62426 0.34631 0.33043 0.0
H1897 H 0.61456 0.32928 0.27943 0.0
H1898 H 0.60112 0.3236 0.12359 0.0
H1899 H 0.60268 0.3317 0.1798 0.0
C1900 C 0.00441 0.34946 0.28306 0.0
C1901 C 0.99092 0.34741 0.25842 0.0
C1902 C -0.00462 0.34077 0.31481 0.0
C1903 C 0.94599 0.29964 0.36125 0.0
H1904 H 0.9637 0.32966 0.43673 0.0
C1905 C 0.91193 0.25967 0.49112 0.0
C1906 C 0.90817 0.27412 0.51747 0.0
C1907 C 0.9225 0.26838 0.46013 0.0
C1908 C 0.95828 0.32101 0.41607 0.0
H1909 H 0.95698 0.33405 0.24911 0.0
H1910 H 0.9417 0.31947 0.30298 0.0
H1911 H 0.98104 0.34509 0.38312 0.0
H1912 H 0.91341 0.30951 0.53083 0.0
H1913 H 0.93126 0.32456 0.47737 0.0
H1914 H 0.92292 0.27588 0.39391 0.0
C1915 C 0.95931 0.32756 0.29824 0.0
C1916 C 0.96858 0.32981 0.38496 0.0
C1917 C 0.96818 0.33632 0.26692 0.0
C1918 C 0.91548 0.29766 0.5114 0.0
C1919 C 0.92616 0.30636 0.48047 0.0
C1920 C 0.93576 0.29084 0.39225 0.0
C1921 C 0.97262 0.32941 0.32301 0.0
C1922 C 0.96252 0.31946 0.35676 0.0
C1923 C 0.92999 0.29194 0.45403 0.0
C1924 C 0.94151 0.30135 0.4205 0.0
H1925 H 0.02201 0.3576 0.27781 0.0
H1926 H 0.00646 0.34256 0.33276 0.0
H1927 H 0.94088 0.29066 0.34065 0.0
H1928 H 0.90702 0.24146 0.49449 0.0
H1929 H 0.92526 0.25638 0.44106 0.0
C1930 C 0.92915 0.61443 0.73177 0.0
C1931 C 0.91348 0.61016 0.7605 0.0
C1932 C 0.92151 0.61798 0.70311 0.0
C1933 C 0.875 0.60774 0.65936 0.0
H1934 H 0.90309 0.66484 0.61554 0.0
C1935 C 0.88546 0.62619 0.5241 0.0
C1936 C 0.88348 0.64819 0.51402 0.0
C1937 C 0.88267 0.6208 0.55677 0.0
C1938 C 0.89476 0.64906 0.62781 0.0
H1939 H 0.87756 0.60503 0.78169 0.0
H1940 H 0.86416 0.61073 0.73086 0.0
H1941 H 0.91193 0.65597 0.66806 0.0
H1942 H 0.8751 0.68121 0.52966 0.0
H1943 H 0.87071 0.67185 0.58692 0.0
H1944 H 0.85858 0.60046 0.61826 0.0
C1945 C 0.88229 0.6115 0.73093 0.0
C1946 C 0.9 0.64392 0.65755 0.0
C1947 C 0.88996 0.6082 0.7598 0.0
C1948 C 0.87723 0.66428 0.53695 0.0
C1949 C 0.87453 0.65891 0.56956 0.0
C1950 C 0.8699 0.61279 0.62931 0.0
C1951 C 0.89811 0.617 0.70273 0.0
C1952 C 0.89055 0.62306 0.67309 0.0
C1953 C 0.87793 0.63737 0.57961 0.0
C1954 C 0.8801 0.63331 0.61316 0.0
H1955 H 0.94735 0.61545 0.73154 0.0
H1956 H 0.93389 0.62186 0.68131 0.0
H1957 H 0.86762 0.59155 0.6712 0.0
H1958 H 0.89035 0.61356 0.50681 0.0
H1959 H 0.88569 0.60417 0.56407 0.0
C1960 C 0.46275 0.34788 0.16459 0.0
C1961 C 0.46175 0.33268 0.19077 0.0
C1962 C 0.45646 0.34024 0.13501 0.0
C1963 C 0.42539 0.28932 0.09682 0.0
H1964 H 0.45332 0.32164 1.01712 0.0
C1965 C 0.4083 0.25365 0.97146 0.0
C1966 C 0.40815 0.26886 0.94577 0.0
C1967 C 0.41464 0.26142 1.00089 0.0
C1968 C 0.445 0.31245 0.03905 0.0
H1969 H 0.45362 0.29688 0.20466 0.0
H1970 H 0.44297 0.28373 0.15382 0.0
H1971 H 0.46473 0.33472 0.06766 0.0
H1972 H 0.41515 0.30459 0.93177 0.0
H1973 H 0.42576 0.31813 0.98283 0.0
H1974 H 0.40578 0.26697 0.06817 0.0
C1975 C 0.44809 0.3018 0.15621 0.0
C1976 C 0.45162 0.32004 0.06845 0.0
C1977 C 0.45431 0.30944 0.18579 0.0
C1978 C 0.41465 0.29222 0.95083 0.0
C1979 C 0.42107 0.30001 0.98029 0.0
C1980 C 0.41883 0.28169 0.06742 0.0
C1981 C 0.44894 0.31699 0.13005 0.0
C1982 C 0.44195 0.30871 0.09813 0.0
C1983 C 0.42123 0.2848 1.00606 0.0
C1984 C 0.4284 0.2931 0.03781 0.0
H1985 H 0.46798 0.36592 0.16704 0.0
H1986 H 0.45713 0.35282 0.1162 0.0
H1987 H 0.41699 0.28009 0.11868 0.0
H1988 H 0.40379 0.23552 0.96876 0.0
H1989 H 0.4149 0.24886 1.01936 0.0
C1990 C 0.36618 0.64383 0.94062 0.0
C1991 C 0.38603 0.65564 0.94999 0.0
C1992 C 0.3663 0.63714 0.90889 0.0
C1993 C 0.39588 0.65014 0.82713 0.0
H1994 H 0.38327 0.58545 0.81198 0.0
C1995 C 0.44128 0.59258 0.73674 0.0
C1996 C 0.44333 0.6058 0.70862 0.0
C1997 C 0.42395 0.59462 0.76242 0.0
C1998 C 0.38626 0.60359 0.81581 0.0
H1999 H 0.42159 0.66955 0.93359 0.0
H2000 H 0.42156 0.65837 0.87802 0.0
H2001 H 0.37426 0.59952 0.86652 0.0
H2002 H 0.42768 0.62944 0.68341 0.0
H2003 H 0.3975 0.63335 0.72874 0.0
H2004 H 0.40942 0.65421 0.77712 0.0
C2005 C 0.40592 0.65446 0.89524 0.0
C2006 C 0.38114 0.61161 0.84687 0.0
C2007 C 0.40591 0.66085 0.92699 0.0
C2008 C 0.42631 0.619 0.70492 0.0
C2009 C 0.40913 0.62131 0.73083 0.0
C2010 C 0.40081 0.64218 0.7961 0.0
C2011 C 0.38614 0.64253 0.88603 0.0
C2012 C 0.38686 0.6348 0.85284 0.0
C2013 C 0.40873 0.6102 0.76037 0.0
C2014 C 0.39697 0.61873 0.79043 0.0
H2015 H 0.35049 0.63991 0.9577 0.0
H2016 H 0.3509 0.62792 0.90213 0.0
H2017 H 0.4003 0.66812 0.83134 0.0
H2018 H 0.45421 0.5822 0.7399 0.0
H2019 H 0.42414 0.58594 0.78497 0.0
C2020 C 0.10732 0.69635 0.5426 0.0
C2021 C 0.11477 0.71996 0.53763 0.0
C2022 C 0.0972 0.68695 0.5733 0.0
C2023 C 0.09087 0.69904 0.66203 0.0
H2024 H 0.04242 0.64749 0.66993 0.0
C2025 C 0.05989 0.64806 0.7836 0.0
C2026 C 0.03651 0.63944 0.79327 0.0
C2027 C 0.0684 0.65781 0.75272 0.0
C2028 C 0.05582 0.66197 0.6684 0.0
H2029 H 0.11683 0.75203 0.56221 0.0
H2030 H 0.09979 0.73573 0.61562 0.0
H2031 H 0.05887 0.66457 0.61688 0.0
H2032 H 0.00392 0.63461 0.77661 0.0
H2033 H 0.01885 0.65116 0.72239 0.0
H2034 H 0.08778 0.69658 0.71346 0.0
C2035 C 0.10191 0.72432 0.59568 0.0
C2036 C 0.06554 0.67171 0.63766 0.0
C2037 C 0.1118 0.73377 0.56481 0.0
C2038 C 0.02202 0.64072 0.77031 0.0
C2039 C 0.03067 0.6503 0.73902 0.0
C2040 C 0.0813 0.6892 0.69268 0.0
C2041 C 0.09423 0.7007 0.60058 0.0
C2042 C 0.08337 0.69043 0.63375 0.0
C2043 C 0.05405 0.65933 0.72972 0.0
C2044 C 0.06365 0.67035 0.6966 0.0
H2045 H 0.10879 0.68499 0.5225 0.0
H2046 H 0.09186 0.66874 0.5756 0.0
H2047 H 0.10458 0.71323 0.66054 0.0
H2048 H 0.07182 0.64775 0.80022 0.0
H2049 H 0.08649 0.66409 0.74688 0.0
C2050 C 0.09752 0.38838 0.32103 0.0
C2051 C 0.1132 0.39006 0.29226 0.0
C2052 C 0.10505 0.3873 0.35032 0.0
C2053 C 0.15021 0.36914 0.38624 0.0
H2054 H 0.12103 0.3991 0.4601 0.0
C2055 C 0.13736 0.33371 0.51476 0.0
C2056 C 0.13652 0.34887 0.54037 0.0
C2057 C 0.14057 0.34192 0.48317 0.0
C2058 C 0.12983 0.39101 0.43971 0.0
H2059 H 0.14889 0.39224 0.27103 0.0
H2060 H 0.16222 0.39034 0.3228 0.0
H2061 H 0.11538 0.40927 0.40661 0.0
H2062 H 0.13933 0.38455 0.5529 0.0
H2063 H 0.14613 0.39883 0.4978 0.0
H2064 H 0.1644 0.3506 0.4195 0.0
C2065 C 0.14415 0.38985 0.32251 0.0
C2066 C 0.12635 0.39666 0.40915 0.0
C2067 C 0.13658 0.39104 0.2931 0.0
C2068 C 0.14008 0.3724 0.53372 0.0
C2069 C 0.14374 0.3806 0.50217 0.0
C2070 C 0.15388 0.3636 0.41688 0.0
C2071 C 0.1284 0.38792 0.35128 0.0
C2072 C 0.13579 0.38515 0.38237 0.0
C2073 C 0.14335 0.36544 0.47667 0.0
C2074 C 0.14307 0.37394 0.44396 0.0
H2075 H 0.07941 0.38782 0.32085 0.0
H2076 H 0.09253 0.38541 0.37218 0.0
H2077 H 0.15758 0.35997 0.36586 0.0
H2078 H 0.13517 0.31549 0.51909 0.0
H2079 H 0.13989 0.32978 0.46403 0.0
loop_
_geom_bond_atom_site_label_1
_geom_bond_atom_site_label_2
_geom_bond_distance
_geom_bond_site_symmetry_2
_ccdc_geom_bond_type
Gd0 C3 2.818 . S
Gd0 O20 2.377 . S
Gd0 O22 2.448 . S
Gd0 O23 2.506 . S
Gd0 O24 2.435 . S
Gd0 O25 2.717 . S
Gd0 O27 2.395 . S
Gd0 O31 2.327 . S
Gd1 C12 2.818 . S
Gd1 O21 2.395 . S
Gd1 O25 2.327 1_655 S
Gd1 O26 2.377 1_655 S
Gd1 O28 2.448 . S
Gd1 O29 2.506 . S
Gd1 O30 2.435 1_655 S
Gd1 O31 2.717 1_655 S
C2 O20 1.240 . S
C2 O21 1.240 1_455 S
C3 Gd0 2.818 . S
C3 C4 1.510 . S
C3 O22 1.249 . S
C3 O23 1.252 . S
C4 C3 1.510 . S
C4 C5 1.404 . S
C4 C6 1.352 . S
C5 C4 1.404 . S
C5 C9 1.389 . S
C5 H32 0.930 . S
C6 C4 1.352 . S
C6 C8 1.374 . S
C6 H33 0.931 . S
C7 C8 1.359 . S
C7 C9 1.364 . S
C8 C6 1.374 . S
C8 C7 1.359 . S
C8 H34 0.931 . S
C9 C5 1.389 . S
C9 C7 1.364 . S
C9 H35 0.931 . S
C10 O24 1.256 . S
C10 O25 1.257 . S
C11 O26 1.240 . S
C11 O27 1.240 . S
C12 Gd1 2.818 . S
C12 C13 1.510 . S
C12 O28 1.249 . S
C12 O29 1.252 . S
C13 C12 1.510 . S
C13 C14 1.418 . S
C13 C15 1.352 1_554 S
C14 C13 1.418 . S
C14 C18 1.354 1_554 S
C14 H36 0.951 . S
C15 C13 1.352 1_556 S
C15 C17 1.374 . S
C15 H37 0.931 . S
C16 C17 1.359 . S
C16 C18 1.364 . S
C17 C15 1.374 . S
C17 C16 1.359 . S
C17 H38 0.931 . S
C18 C14 1.354 1_556 S
C18 C16 1.364 . S
C18 H39 0.931 . S
C19 O30 1.256 . S
C19 O31 1.257 . S
O20 Gd0 2.377 . S
O20 C2 1.240 . S
O21 Gd1 2.395 . S
O21 C2 1.240 1_655 S
O22 Gd0 2.448 . S
O22 C3 1.249 . S
O23 Gd0 2.506 . S
O23 C3 1.252 . S
O24 Gd0 2.435 . S
O24 C10 1.256 . S
O25 Gd0 2.717 . S
O25 Gd1 2.327 1_455 S
O25 C10 1.257 . S
O26 Gd1 2.377 1_455 S
O26 C11 1.240 . S
O27 Gd0 2.395 . S
O27 C11 1.240 . S
O28 Gd1 2.448 . S
O28 C12 1.249 . S
O29 Gd1 2.506 . S
O29 C12 1.252 . S
O30 Gd1 2.435 1_455 S
O30 C19 1.256 . S
O31 Gd0 2.327 . S
O31 Gd1 2.717 1_455 S
O31 C19 1.257 . S
H32 C5 0.930 . S
H33 C6 0.931 . S
H34 C8 0.931 . S
H35 C9 0.931 . S
H36 C14 0.951 . S
H37 C15 0.931 . S
H38 C17 0.931 . S
H39 C18 0.931 . S
Gd40 C43 2.818 . S
Gd40 O60 2.377 . S
Gd40 O62 2.448 . S
Gd40 O63 2.506 . S
Gd40 O64 2.435 . S
Gd40 O65 2.717 . S
Gd40 O67 2.395 . S
Gd40 O71 2.327 . S
Gd41 C52 2.818 . S
Gd41 O61 2.395 . S
Gd41 O65 2.327 . S
Gd41 O66 2.377 . S
Gd41 O68 2.448 . S
Gd41 O69 2.506 . S
Gd41 O70 2.435 . S
Gd41 O71 2.717 . S
C42 O60 1.240 . S
C42 O61 1.240 . S
C43 Gd40 2.818 . S
C43 C44 1.510 . S
C43 O62 1.249 . S
C43 O63 1.252 . S
C44 C43 1.510 . S
C44 C45 1.404 . S
C44 C46 1.352 . S
C45 C44 1.404 . S
C45 C49 1.389 . S
C45 H72 0.930 . S
C46 C44 1.352 . S
C46 C48 1.374 . S
C46 H73 0.931 . S
C47 C48 1.359 . S
C47 C49 1.364 . S
C48 C46 1.374 . S
C48 C47 1.359 . S
C48 H74 0.931 . S
C49 C45 1.389 . S
C49 C47 1.364 . S
C49 H75 0.931 . S
C50 O64 1.256 . S
C50 O65 1.257 . S
C51 O66 1.240 . S
C51 O67 1.240 . S
C52 Gd41 2.818 . S
C52 C53 1.510 . S
C52 O68 1.249 . S
C52 O69 1.252 . S
C53 C52 1.510 . S
C53 C54 1.404 . S
C53 C55 1.352 . S
C54 C53 1.404 . S
C54 C58 1.389 . S
C54 H76 0.930 . S
C55 C53 1.352 . S
C55 C57 1.374 . S
C55 H77 0.931 . S
C56 C57 1.359 . S
C56 C58 1.364 . S
C57 C55 1.374 . S
C57 C56 1.359 . S
C57 H78 0.931 . S
C58 C54 1.389 . S
C58 C56 1.364 . S
C58 H79 0.931 . S
C59 O70 1.256 . S
C59 O71 1.257 . S
O60 Gd40 2.377 . S
O60 C42 1.240 . S
O61 Gd41 2.395 . S
O61 C42 1.240 . S
O62 Gd40 2.448 . S
O62 C43 1.249 . S
O63 Gd40 2.506 . S
O63 C43 1.252 . S
O64 Gd40 2.435 . S
O64 C50 1.256 . S
O65 Gd40 2.717 . S
O65 Gd41 2.327 . S
O65 C50 1.257 . S
O66 Gd41 2.377 . S
O66 C51 1.240 . S
O67 Gd40 2.395 . S
O67 C51 1.240 . S
O68 Gd41 2.448 . S
O68 C52 1.249 . S
O69 Gd41 2.506 . S
O69 C52 1.252 . S
O70 Gd41 2.435 . S
O70 C59 1.256 . S
O71 Gd40 2.327 . S
O71 Gd41 2.717 . S
O71 C59 1.257 . S
H72 C45 0.930 . S
H73 C46 0.931 . S
H74 C48 0.931 . S
H75 C49 0.931 . S
H76 C54 0.930 . S
H77 C55 0.931 . S
H78 C57 0.931 . S
H79 C58 0.931 . S
Gd80 C83 2.818 . S
Gd80 O100 2.377 . S
Gd80 O102 2.448 . S
Gd80 O103 2.506 . S
Gd80 O104 2.435 . S
Gd80 O105 2.717 . S
Gd80 O107 2.395 . S
Gd80 O111 2.327 . S
Gd81 C92 2.818 . S
Gd81 O101 2.395 . S
Gd81 O105 2.327 . S
Gd81 O106 2.377 . S
Gd81 O108 2.448 . S
Gd81 O109 2.506 . S
Gd81 O110 2.435 . S
Gd81 O111 2.717 . S
C82 O100 1.240 . S
C82 O101 1.240 . S
C83 Gd80 2.818 . S
C83 C84 1.510 . S
C83 O102 1.249 . S
C83 O103 1.252 . S
C84 C83 1.510 . S
C84 C85 1.404 . S
C84 C86 1.352 . S
C85 C84 1.404 . S
C85 C89 1.389 . S
C85 H112 0.930 . S
C86 C84 1.352 . S
C86 C88 1.374 . S
C86 H113 0.931 . S
C87 C88 1.359 . S
C87 C89 1.364 . S
C88 C86 1.374 . S
C88 C87 1.359 . S
C88 H114 0.931 . S
C89 C85 1.389 . S
C89 C87 1.364 . S
C89 H115 0.931 . S
C90 O104 1.256 . S
C90 O105 1.257 . S
C91 O106 1.240 . S
C91 O107 1.240 . S
C92 Gd81 2.818 . S
C92 C93 1.510 . S
C92 O108 1.249 . S
C92 O109 1.252 . S
C93 C92 1.510 . S
C93 C94 1.404 . S
C93 C95 1.352 . S
C94 C93 1.404 . S
C94 C98 1.389 . S
C94 H116 0.930 . S
C95 C93 1.352 . S
C95 C97 1.374 . S
C95 H117 0.931 . S
C96 C97 1.359 . S
C96 C98 1.364 . S
C97 C95 1.374 . S
C97 C96 1.359 . S
C97 H118 0.931 . S
C98 C94 1.389 . S
C98 C96 1.364 . S
C98 H119 0.931 . S
C99 O110 1.256 . S
C99 O111 1.257 . S
O100 Gd80 2.377 . S
O100 C82 1.240 . S
O101 Gd81 2.395 . S
O101 C82 1.240 . S
O102 Gd80 2.448 . S
O102 C83 1.249 . S
O103 Gd80 2.506 . S
O103 C83 1.252 . S
O104 Gd80 2.435 . S
O104 C90 1.256 . S
O105 Gd80 2.717 . S
O105 Gd81 2.327 . S
O105 C90 1.257 . S
O106 Gd81 2.377 . S
O106 C91 1.240 . S
O107 Gd80 2.395 . S
O107 C91 1.240 . S
O108 Gd81 2.448 . S
O108 C92 1.249 . S
O109 Gd81 2.506 . S
O109 C92 1.252 . S
O110 Gd81 2.435 . S
O110 C99 1.256 . S
O111 Gd80 2.327 . S
O111 Gd81 2.717 . S
O111 C99 1.257 . S
H112 C85 0.930 . S
H113 C86 0.931 . S
H114 C88 0.931 . S
H115 C89 0.931 . S
H116 C94 0.930 . S
H117 C95 0.931 . S
H118 C97 0.931 . S
H119 C98 0.931 . S
Gd120 C123 2.818 . S
Gd120 O140 2.377 . S
Gd120 O142 2.448 . S
Gd120 O143 2.506 . S
Gd120 O144 2.435 . S
Gd120 O145 2.717 . S
Gd120 O147 2.395 . S
Gd120 O151 2.327 . S
Gd121 C132 2.818 . S
Gd121 O141 2.395 . S
Gd121 O145 2.327 . S
Gd121 O146 2.377 . S
Gd121 O148 2.448 . S
Gd121 O149 2.506 . S
Gd121 O150 2.435 . S
Gd121 O151 2.717 . S
C122 O140 1.240 . S
C122 O141 1.240 . S
C123 Gd120 2.818 . S
C123 C124 1.510 . S
C123 O142 1.249 . S
C123 O143 1.252 . S
C124 C123 1.510 . S
C124 C125 1.404 . S
C124 C126 1.352 . S
C125 C124 1.404 . S
C125 C129 1.389 . S
C125 H152 0.930 . S
C126 C124 1.352 . S
C126 C128 1.374 1_556 S
C126 H153 0.931 . S
C127 C128 1.359 . S
C127 C129 1.364 1_554 S
C128 C126 1.374 1_554 S
C128 C127 1.359 . S
C128 H154 0.931 . S
C129 C125 1.389 . S
C129 C127 1.364 1_556 S
C129 H155 0.931 1_556 S
C130 O144 1.256 . S
C130 O145 1.257 . S
C131 O146 1.240 . S
C131 O147 1.240 . S
C132 Gd121 2.818 . S
C132 C133 1.510 . S
C132 O148 1.249 . S
C132 O149 1.252 . S
C133 C132 1.510 . S
C133 C134 1.404 . S
C133 C135 1.352 . S
C134 C133 1.404 . S
C134 C138 1.389 . S
C134 H156 0.930 . S
C135 C133 1.352 . S
C135 C137 1.374 . S
C135 H157 0.931 . S
C136 C137 1.359 . S
C136 C138 1.364 . S
C137 C135 1.374 . S
C137 C136 1.359 . S
C137 H158 0.931 . S
C138 C134 1.389 . S
C138 C136 1.364 . S
C138 H159 0.931 . S
C139 O150 1.256 . S
C139 O151 1.257 . S
O140 Gd120 2.377 . S
O140 C122 1.240 . S
O141 Gd121 2.395 . S
O141 C122 1.240 . S
O142 Gd120 2.448 . S
O142 C123 1.249 . S
O143 Gd120 2.506 . S
O143 C123 1.252 . S
O144 Gd120 2.435 . S
O144 C130 1.256 . S
O145 Gd120 2.717 . S
O145 Gd121 2.327 . S
O145 C130 1.257 . S
O146 Gd121 2.377 . S
O146 C131 1.240 . S
O147 Gd120 2.395 . S
O147 C131 1.240 . S
O148 Gd121 2.448 . S
O148 C132 1.249 . S
O149 Gd121 2.506 . S
O149 C132 1.252 . S
O150 Gd121 2.435 . S
O150 C139 1.256 . S
O151 Gd120 2.327 . S
O151 Gd121 2.717 . S
O151 C139 1.257 . S
H152 C125 0.930 . S
H153 C126 0.931 . S
H154 C128 0.931 . S
H155 C129 0.931 1_554 S
H156 C134 0.930 . S
H157 C135 0.931 . S
H158 C137 0.931 . S
H159 C138 0.931 . S
Gd160 C163 2.818 . S
Gd160 O180 2.377 . S
Gd160 O182 2.448 . S
Gd160 O183 2.506 . S
Gd160 O184 2.435 . S
Gd160 O185 2.717 . S
Gd160 O187 2.395 . S
Gd160 O191 2.327 . S
Gd161 C172 2.818 . S
Gd161 O181 2.395 . S
Gd161 O185 2.327 1_655 S
Gd161 O186 2.377 1_655 S
Gd161 O188 2.448 . S
Gd161 O189 2.506 . S
Gd161 O190 2.435 . S
Gd161 O191 2.717 1_655 S
C162 O180 1.240 1_655 S
C162 O181 1.240 . S
C163 Gd160 2.818 . S
C163 C164 1.510 . S
C163 O182 1.249 . S
C163 O183 1.252 . S
C164 C163 1.510 . S
C164 C165 1.418 . S
C164 C166 1.352 1_556 S
C165 C164 1.418 . S
C165 C169 1.354 1_556 S
C165 H192 0.952 . S
C166 C164 1.352 1_554 S
C166 C168 1.374 . S
C166 H193 0.931 . S
C167 C168 1.359 . S
C167 C169 1.364 . S
C168 C166 1.374 . S
C168 C167 1.359 . S
C168 H194 0.931 . S
C169 C165 1.354 1_554 S
C169 C167 1.364 . S
C169 H195 0.931 . S
C170 O184 1.256 . S
C170 O185 1.257 . S
C171 O186 1.240 . S
C171 O187 1.240 . S
C172 Gd161 2.818 . S
C172 C173 1.510 . S
C172 O188 1.249 . S
C172 O189 1.252 . S
C173 C172 1.510 . S
C173 C174 1.404 . S
C173 C175 1.352 . S
C174 C173 1.404 . S
C174 C178 1.389 . S
C174 H196 0.930 . S
C175 C173 1.352 . S
C175 C177 1.374 . S
C175 H197 0.931 . S
C176 C177 1.359 . S
C176 C178 1.364 . S
C177 C175 1.374 . S
C177 C176 1.359 . S
C177 H198 0.931 . S
C178 C174 1.389 . S
C178 C176 1.364 . S
C178 H199 0.931 . S
C179 O190 1.256 1_455 S
C179 O191 1.257 . S
O180 Gd160 2.377 . S
O180 C162 1.240 1_455 S
O181 Gd161 2.395 . S
O181 C162 1.240 . S
O182 Gd160 2.448 . S
O182 C163 1.249 . S
O183 Gd160 2.506 . S
O183 C163 1.252 . S
O184 Gd160 2.435 . S
O184 C170 1.256 . S
O185 Gd160 2.717 . S
O185 Gd161 2.327 1_455 S
O185 C170 1.257 . S
O186 Gd161 2.377 1_455 S
O186 C171 1.240 . S
O187 Gd160 2.395 . S
O187 C171 1.240 . S
O188 Gd161 2.448 . S
O188 C172 1.249 . S
O189 Gd161 2.506 . S
O189 C172 1.252 . S
O190 Gd161 2.435 . S
O190 C179 1.256 1_655 S
O191 Gd160 2.327 . S
O191 Gd161 2.717 1_455 S
O191 C179 1.257 . S
H192 C165 0.952 . S
H193 C166 0.931 . S
H194 C168 0.931 . S
H195 C169 0.931 . S
H196 C174 0.930 . S
H197 C175 0.931 . S
H198 C177 0.931 . S
H199 C178 0.931 . S
Gd200 C203 2.818 . S
Gd200 O220 2.377 . S
Gd200 O222 2.448 . S
Gd200 O223 2.506 . S
Gd200 O224 2.435 . S
Gd200 O225 2.717 . S
Gd200 O227 2.395 . S
Gd200 O231 2.327 . S
Gd201 C212 2.818 . S
Gd201 O221 2.395 . S
Gd201 O225 2.327 . S
Gd201 O226 2.377 . S
Gd201 O228 2.448 . S
Gd201 O229 2.506 . S
Gd201 O230 2.435 . S
Gd201 O231 2.717 . S
C202 O220 1.240 . S
C202 O221 1.240 . S
C203 Gd200 2.818 . S
C203 C204 1.510 . S
C203 O222 1.249 . S
C203 O223 1.252 . S
C204 C203 1.510 . S
C204 C205 1.404 . S
C204 C206 1.352 . S
C205 C204 1.404 . S
C205 C209 1.389 . S
C205 H232 0.930 . S
C206 C204 1.352 . S
C206 C208 1.374 . S
C206 H233 0.931 . S
C207 C208 1.359 . S
C207 C209 1.364 . S
C208 C206 1.374 . S
C208 C207 1.359 . S
C208 H234 0.931 . S
C209 C205 1.389 . S
C209 C207 1.364 . S
C209 H235 0.931 . S
C210 O224 1.256 . S
C210 O225 1.257 . S
C211 O226 1.240 . S
C211 O227 1.240 . S
C212 Gd201 2.818 . S
C212 C213 1.510 1_554 S
C212 O228 1.249 . S
C212 O229 1.252 . S
C213 C212 1.510 1_556 S
C213 C214 1.404 . S
C213 C215 1.352 . S
C214 C213 1.404 . S
C214 C218 1.389 . S
C214 H236 0.930 1_556 S
C215 C213 1.352 . S
C215 C217 1.374 . S
C215 H237 0.931 . S
C216 C217 1.359 . S
C216 C218 1.364 . S
C217 C215 1.374 . S
C217 C216 1.359 . S
C217 H238 0.931 . S
C218 C214 1.389 . S
C218 C216 1.364 . S
C218 H239 0.931 . S
C219 O230 1.256 . S
C219 O231 1.257 . S
O220 Gd200 2.377 . S
O220 C202 1.240 . S
O221 Gd201 2.395 . S
O221 C202 1.240 . S
O222 Gd200 2.448 . S
O222 C203 1.249 . S
O223 Gd200 2.506 . S
O223 C203 1.252 . S
O224 Gd200 2.435 . S
O224 C210 1.256 . S
O225 Gd200 2.717 . S
O225 Gd201 2.327 . S
O225 C210 1.257 . S
O226 Gd201 2.377 . S
O226 C211 1.240 . S
O227 Gd200 2.395 . S
O227 C211 1.240 . S
O228 Gd201 2.448 . S
O228 C212 1.249 . S
O229 Gd201 2.506 . S
O229 C212 1.252 . S
O230 Gd201 2.435 . S
O230 C219 1.256 . S
O231 Gd200 2.327 . S
O231 Gd201 2.717 . S
O231 C219 1.257 . S
H232 C205 0.930 . S
H233 C206 0.931 . S
H234 C208 0.931 . S
H235 C209 0.931 . S
H236 C214 0.930 1_554 S
H237 C215 0.931 . S
H238 C217 0.931 . S
H239 C218 0.931 . S
Gd240 C243 2.818 . S
Gd240 O260 2.377 . S
Gd240 O262 2.448 . S
Gd240 O263 2.506 . S
Gd240 O264 2.435 . S
Gd240 O265 2.717 . S
Gd240 O267 2.395 . S
Gd240 O271 2.327 . S
Gd241 C252 2.818 . S
Gd241 O261 2.395 . S
Gd241 O265 2.327 . S
Gd241 O266 2.377 . S
Gd241 O268 2.448 . S
Gd241 O269 2.506 . S
Gd241 O270 2.435 . S
Gd241 O271 2.717 . S
C242 O260 1.240 . S
C242 O261 1.240 . S
C243 Gd240 2.818 . S
C243 C244 1.510 . S
C243 O262 1.249 . S
C243 O263 1.252 . S
C244 C243 1.510 . S
C244 C245 1.404 . S
C244 C246 1.352 . S
C245 C244 1.404 . S
C245 C249 1.389 . S
C245 H272 0.930 . S
C246 C244 1.352 . S
C246 C248 1.374 . S
C246 H273 0.931 . S
C247 C248 1.359 . S
C247 C249 1.364 . S
C248 C246 1.374 . S
C248 C247 1.359 . S
C248 H274 0.931 . S
C249 C245 1.389 . S
C249 C247 1.364 . S
C249 H275 0.931 . S
C250 O264 1.256 . S
C250 O265 1.257 . S
C251 O266 1.240 . S
C251 O267 1.240 . S
C252 Gd241 2.818 . S
C252 C253 1.510 . S
C252 O268 1.249 . S
C252 O269 1.252 . S
C253 C252 1.510 . S
C253 C254 1.404 . S
C253 C255 1.352 . S
C254 C253 1.404 . S
C254 C258 1.389 . S
C254 H276 0.930 . S
C255 C253 1.352 . S
C255 C257 1.374 . S
C255 H277 0.931 . S
C256 C257 1.359 . S
C256 C258 1.364 . S
C257 C255 1.374 . S
C257 C256 1.359 . S
C257 H278 0.931 . S
C258 C254 1.389 . S
C258 C256 1.364 . S
C258 H279 0.931 . S
C259 O270 1.256 . S
C259 O271 1.257 . S
O260 Gd240 2.377 . S
O260 C242 1.240 . S
O261 Gd241 2.395 . S
O261 C242 1.240 . S
O262 Gd240 2.448 . S
O262 C243 1.249 . S
O263 Gd240 2.506 . S
O263 C243 1.252 . S
O264 Gd240 2.435 . S
O264 C250 1.256 . S
O265 Gd240 2.717 . S
O265 Gd241 2.327 . S
O265 C250 1.257 . S
O266 Gd241 2.377 . S
O266 C251 1.240 . S
O267 Gd240 2.395 . S
O267 C251 1.240 . S
O268 Gd241 2.448 . S
O268 C252 1.249 . S
O269 Gd241 2.506 . S
O269 C252 1.252 . S
O270 Gd241 2.435 . S
O270 C259 1.256 . S
O271 Gd240 2.327 . S
O271 Gd241 2.717 . S
O271 C259 1.257 . S
H272 C245 0.930 . S
H273 C246 0.931 . S
H274 C248 0.931 . S
H275 C249 0.931 . S
H276 C254 0.930 . S
H277 C255 0.931 . S
H278 C257 0.931 . S
H279 C258 0.931 . S
Gd280 C283 2.818 . S
Gd280 O300 2.377 . S
Gd280 O302 2.448 . S
Gd280 O303 2.506 . S
Gd280 O304 2.435 . S
Gd280 O305 2.717 . S
Gd280 O307 2.395 . S
Gd280 O311 2.327 . S
Gd281 C292 2.818 . S
Gd281 O301 2.395 . S
Gd281 O305 2.327 . S
Gd281 O306 2.377 . S
Gd281 O308 2.448 . S
Gd281 O309 2.506 . S
Gd281 O310 2.435 . S
Gd281 O311 2.717 . S
C282 O300 1.240 . S
C282 O301 1.240 . S
C283 Gd280 2.818 . S
C283 C284 1.510 . S
C283 O302 1.249 . S
C283 O303 1.252 . S
C284 C283 1.510 . S
C284 C285 1.404 . S
C284 C286 1.352 . S
C285 C284 1.404 . S
C285 C289 1.389 . S
C285 H312 0.930 . S
C286 C284 1.352 . S
C286 C288 1.374 . S
C286 H313 0.931 . S
C287 C288 1.359 . S
C287 C289 1.364 . S
C288 C286 1.374 . S
C288 C287 1.359 . S
C288 H314 0.931 . S
C289 C285 1.389 . S
C289 C287 1.364 . S
C289 H315 0.931 . S
C290 O304 1.256 . S
C290 O305 1.257 . S
C291 O306 1.240 . S
C291 O307 1.240 . S
C292 Gd281 2.818 . S
C292 C293 1.510 . S
C292 O308 1.249 . S
C292 O309 1.252 . S
C293 C292 1.510 . S
C293 C294 1.404 . S
C293 C295 1.352 . S
C294 C293 1.404 . S
C294 C298 1.389 . S
C294 H316 0.930 . S
C295 C293 1.352 . S
C295 C297 1.374 . S
C295 H317 0.931 . S
C296 C297 1.359 . S
C296 C298 1.364 . S
C297 C295 1.374 . S
C297 C296 1.359 . S
C297 H318 0.931 . S
C298 C294 1.389 . S
C298 C296 1.364 . S
C298 H319 0.931 . S
C299 O310 1.256 . S
C299 O311 1.257 . S
O300 Gd280 2.377 . S
O300 C282 1.240 . S
O301 Gd281 2.395 . S
O301 C282 1.240 . S
O302 Gd280 2.448 . S
O302 C283 1.249 . S
O303 Gd280 2.506 . S
O303 C283 1.252 . S
O304 Gd280 2.435 . S
O304 C290 1.256 . S
O305 Gd280 2.717 . S
O305 Gd281 2.327 . S
O305 C290 1.257 . S
O306 Gd281 2.377 . S
O306 C291 1.240 . S
O307 Gd280 2.395 . S
O307 C291 1.240 . S
O308 Gd281 2.448 . S
O308 C292 1.249 . S
O309 Gd281 2.506 . S
O309 C292 1.252 . S
O310 Gd281 2.435 . S
O310 C299 1.256 . S
O311 Gd280 2.327 . S
O311 Gd281 2.717 . S
O311 C299 1.257 . S
H312 C285 0.930 . S
H313 C286 0.931 . S
H314 C288 0.931 . S
H315 C289 0.931 . S
H316 C294 0.930 . S
H317 C295 0.931 . S
H318 C297 0.931 . S
H319 C298 0.931 . S
Gd320 C323 2.818 . S
Gd320 O340 2.377 . S
Gd320 O342 2.448 . S
Gd320 O343 2.506 . S
Gd320 O344 2.435 . S
Gd320 O345 2.717 . S
Gd320 O347 2.395 . S
Gd320 O351 2.327 . S
Gd321 C332 2.818 . S
Gd321 O341 2.395 . S
Gd321 O345 2.327 . S
Gd321 O346 2.377 . S
Gd321 O348 2.448 . S
Gd321 O349 2.506 . S
Gd321 O350 2.435 . S
Gd321 O351 2.717 . S
C322 O340 1.240 . S
C322 O341 1.240 . S
C323 Gd320 2.818 . S
C323 C324 1.510 . S
C323 O342 1.249 . S
C323 O343 1.252 . S
C324 C323 1.510 . S
C324 C325 1.404 . S
C324 C326 1.352 . S
C325 C324 1.404 . S
C325 C329 1.389 . S
C325 H352 0.930 . S
C326 C324 1.352 . S
C326 C328 1.374 . S
C326 H353 0.931 . S
C327 C328 1.359 . S
C327 C329 1.364 . S
C328 C326 1.374 . S
C328 C327 1.359 . S
C328 H354 0.931 . S
C329 C325 1.389 . S
C329 C327 1.364 . S
C329 H355 0.931 . S
C330 O344 1.256 . S
C330 O345 1.257 . S
C331 O346 1.240 . S
C331 O347 1.240 . S
C332 Gd321 2.818 . S
C332 C333 1.510 . S
C332 O348 1.249 . S
C332 O349 1.252 . S
C333 C332 1.510 . S
C333 C334 1.404 . S
C333 C335 1.352 . S
C334 C333 1.404 . S
C334 C338 1.389 . S
C334 H356 0.930 . S
C335 C333 1.352 . S
C335 C337 1.374 . S
C335 H357 0.931 . S
C336 C337 1.359 . S
C336 C338 1.364 . S
C337 C335 1.374 . S
C337 C336 1.359 . S
C337 H358 0.931 . S
C338 C334 1.389 . S
C338 C336 1.364 . S
C338 H359 0.931 . S
C339 O350 1.256 . S
C339 O351 1.257 . S
O340 Gd320 2.377 . S
O340 C322 1.240 . S
O341 Gd321 2.395 . S
O341 C322 1.240 . S
O342 Gd320 2.448 . S
O342 C323 1.249 . S
O343 Gd320 2.506 . S
O343 C323 1.252 . S
O344 Gd320 2.435 . S
O344 C330 1.256 . S
O345 Gd320 2.717 . S
O345 Gd321 2.327 . S
O345 C330 1.257 . S
O346 Gd321 2.377 . S
O346 C331 1.240 . S
O347 Gd320 2.395 . S
O347 C331 1.240 . S
O348 Gd321 2.448 . S
O348 C332 1.249 . S
O349 Gd321 2.506 . S
O349 C332 1.252 . S
O350 Gd321 2.435 . S
O350 C339 1.256 . S
O351 Gd320 2.327 . S
O351 Gd321 2.717 . S
O351 C339 1.257 . S
H352 C325 0.930 . S
H353 C326 0.931 . S
H354 C328 0.931 . S
H355 C329 0.931 . S
H356 C334 0.930 . S
H357 C335 0.931 . S
H358 C337 0.931 . S
H359 C338 0.931 . S
Gd360 C363 2.818 . S
Gd360 O380 2.377 . S
Gd360 O382 2.448 . S
Gd360 O383 2.506 . S
Gd360 O384 2.435 . S
Gd360 O385 2.717 . S
Gd360 O387 2.395 . S
Gd360 O391 2.327 . S
Gd361 C372 2.818 . S
Gd361 O381 2.395 . S
Gd361 O385 2.327 . S
Gd361 O386 2.377 . S
Gd361 O388 2.448 . S
Gd361 O389 2.506 . S
Gd361 O390 2.435 . S
Gd361 O391 2.717 . S
C362 O380 1.240 . S
C362 O381 1.240 . S
C363 Gd360 2.818 . S
C363 C364 1.510 . S
C363 O382 1.249 . S
C363 O383 1.252 . S
C364 C363 1.510 . S
C364 C365 1.404 . S
C364 C366 1.352 . S
C365 C364 1.404 . S
C365 C369 1.389 . S
C365 H392 0.930 . S
C366 C364 1.352 . S
C366 C368 1.374 . S
C366 H393 0.931 . S
C367 C368 1.359 . S
C367 C369 1.364 . S
C368 C366 1.374 . S
C368 C367 1.359 . S
C368 H394 0.931 . S
C369 C365 1.389 . S
C369 C367 1.364 . S
C369 H395 0.931 . S
C370 O384 1.256 . S
C370 O385 1.257 . S
C371 O386 1.240 . S
C371 O387 1.240 . S
C372 Gd361 2.818 . S
C372 C373 1.510 . S
C372 O388 1.249 . S
C372 O389 1.252 . S
C373 C372 1.510 . S
C373 C374 1.404 . S
C373 C375 1.352 . S
C374 C373 1.404 . S
C374 C378 1.389 . S
C374 H396 0.930 . S
C375 C373 1.352 . S
C375 C377 1.374 1_554 S
C375 H397 0.931 . S
C376 C377 1.359 . S
C376 C378 1.364 1_556 S
C377 C375 1.374 1_556 S
C377 C376 1.359 . S
C377 H398 0.931 . S
C378 C374 1.389 . S
C378 C376 1.364 1_554 S
C378 H399 0.931 1_554 S
C379 O390 1.256 . S
C379 O391 1.257 . S
O380 Gd360 2.377 . S
O380 C362 1.240 . S
O381 Gd361 2.395 . S
O381 C362 1.240 . S
O382 Gd360 2.448 . S
O382 C363 1.249 . S
O383 Gd360 2.506 . S
O383 C363 1.252 . S
O384 Gd360 2.435 . S
O384 C370 1.256 . S
O385 Gd360 2.717 . S
O385 Gd361 2.327 . S
O385 C370 1.257 . S
O386 Gd361 2.377 . S
O386 C371 1.240 . S
O387 Gd360 2.395 . S
O387 C371 1.240 . S
O388 Gd361 2.448 . S
O388 C372 1.249 . S
O389 Gd361 2.506 . S
O389 C372 1.252 . S
O390 Gd361 2.435 . S
O390 C379 1.256 . S
O391 Gd360 2.327 . S
O391 Gd361 2.717 . S
O391 C379 1.257 . S
H392 C365 0.930 . S
H393 C366 0.931 . S
H394 C368 0.931 . S
H395 C369 0.931 . S
H396 C374 0.930 . S
H397 C375 0.931 . S
H398 C377 0.931 . S
H399 C378 0.931 1_556 S
Gd400 C403 2.818 . S
Gd400 O420 2.377 . S
Gd400 O422 2.448 . S
Gd400 O423 2.506 . S
Gd400 O424 2.435 . S
Gd400 O425 2.717 . S
Gd400 O427 2.395 . S
Gd400 O431 2.327 . S
Gd401 C412 2.818 . S
Gd401 O421 2.395 . S
Gd401 O425 2.327 . S
Gd401 O426 2.377 . S
Gd401 O428 2.448 . S
Gd401 O429 2.506 . S
Gd401 O430 2.435 . S
Gd401 O431 2.717 . S
C402 O420 1.240 . S
C402 O421 1.240 . S
C403 Gd400 2.818 . S
C403 C404 1.510 1_556 S
C403 O422 1.249 . S
C403 O423 1.252 . S
C404 C403 1.510 1_554 S
C404 C405 1.404 . S
C404 C406 1.352 . S
C405 C404 1.404 . S
C405 C409 1.389 . S
C405 H432 0.930 1_554 S
C406 C404 1.352 . S
C406 C408 1.374 . S
C406 H433 0.931 . S
C407 C408 1.359 . S
C407 C409 1.364 . S
C408 C406 1.374 . S
C408 C407 1.359 . S
C408 H434 0.931 . S
C409 C405 1.389 . S
C409 C407 1.364 . S
C409 H435 0.931 . S
C410 O424 1.256 . S
C410 O425 1.257 . S
C411 O426 1.240 . S
C411 O427 1.240 . S
C412 Gd401 2.818 . S
C412 C413 1.510 . S
C412 O428 1.249 . S
C412 O429 1.252 . S
C413 C412 1.510 . S
C413 C414 1.404 . S
C413 C415 1.352 . S
C414 C413 1.404 . S
C414 C418 1.389 . S
C414 H436 0.930 . S
C415 C413 1.352 . S
C415 C417 1.374 . S
C415 H437 0.931 . S
C416 C417 1.359 . S
C416 C418 1.364 . S
C417 C415 1.374 . S
C417 C416 1.359 . S
C417 H438 0.931 . S
C418 C414 1.389 . S
C418 C416 1.364 . S
C418 H439 0.931 . S
C419 O430 1.256 . S
C419 O431 1.257 . S
O420 Gd400 2.377 . S
O420 C402 1.240 . S
O421 Gd401 2.395 . S
O421 C402 1.240 . S
O422 Gd400 2.448 . S
O422 C403 1.249 . S
O423 Gd400 2.506 . S
O423 C403 1.252 . S
O424 Gd400 2.435 . S
O424 C410 1.256 . S
O425 Gd400 2.717 . S
O425 Gd401 2.327 . S
O425 C410 1.257 . S
O426 Gd401 2.377 . S
O426 C411 1.240 . S
O427 Gd400 2.395 . S
O427 C411 1.240 . S
O428 Gd401 2.448 . S
O428 C412 1.249 . S
O429 Gd401 2.506 . S
O429 C412 1.252 . S
O430 Gd401 2.435 . S
O430 C419 1.256 . S
O431 Gd400 2.327 . S
O431 Gd401 2.717 . S
O431 C419 1.257 . S
H432 C405 0.930 1_556 S
H433 C406 0.931 . S
H434 C408 0.931 . S
H435 C409 0.931 . S
H436 C414 0.930 . S
H437 C415 0.931 . S
H438 C417 0.931 . S
H439 C418 0.931 . S
Gd440 C443 2.818 . S
Gd440 O460 2.377 . S
Gd440 O462 2.448 . S
Gd440 O463 2.506 . S
Gd440 O464 2.435 . S
Gd440 O465 2.717 . S
Gd440 O467 2.395 . S
Gd440 O471 2.327 . S
Gd441 C452 2.818 . S
Gd441 O461 2.395 . S
Gd441 O465 2.327 . S
Gd441 O466 2.377 . S
Gd441 O468 2.448 . S
Gd441 O469 2.506 . S
Gd441 O470 2.435 . S
Gd441 O471 2.717 . S
C442 O460 1.240 . S
C442 O461 1.240 . S
C443 Gd440 2.818 . S
C443 C444 1.510 . S
C443 O462 1.249 . S
C443 O463 1.252 . S
C444 C443 1.510 . S
C444 C445 1.404 . S
C444 C446 1.352 . S
C445 C444 1.404 . S
C445 C449 1.389 . S
C445 H472 0.930 . S
C446 C444 1.352 . S
C446 C448 1.374 . S
C446 H473 0.931 . S
C447 C448 1.359 . S
C447 C449 1.364 . S
C448 C446 1.374 . S
C448 C447 1.359 . S
C448 H474 0.931 . S
C449 C445 1.389 . S
C449 C447 1.364 . S
C449 H475 0.931 . S
C450 O464 1.256 . S
C450 O465 1.257 . S
C451 O466 1.240 . S
C451 O467 1.240 . S
C452 Gd441 2.818 . S
C452 C453 1.510 . S
C452 O468 1.249 . S
C452 O469 1.252 . S
C453 C452 1.510 . S
C453 C454 1.404 . S
C453 C455 1.352 . S
C454 C453 1.404 . S
C454 C458 1.389 . S
C454 H476 0.930 . S
C455 C453 1.352 . S
C455 C457 1.374 . S
C455 H477 0.931 . S
C456 C457 1.359 . S
C456 C458 1.364 . S
C457 C455 1.374 . S
C457 C456 1.359 . S
C457 H478 0.931 . S
C458 C454 1.389 . S
C458 C456 1.364 . S
C458 H479 0.931 . S
C459 O470 1.256 . S
C459 O471 1.257 . S
O460 Gd440 2.377 . S
O460 C442 1.240 . S
O461 Gd441 2.395 . S
O461 C442 1.240 . S
O462 Gd440 2.448 . S
O462 C443 1.249 . S
O463 Gd440 2.506 . S
O463 C443 1.252 . S
O464 Gd440 2.435 . S
O464 C450 1.256 . S
O465 Gd440 2.717 . S
O465 Gd441 2.327 . S
O465 C450 1.257 . S
O466 Gd441 2.377 . S
O466 C451 1.240 . S
O467 Gd440 2.395 . S
O467 C451 1.240 . S
O468 Gd441 2.448 . S
O468 C452 1.249 . S
O469 Gd441 2.506 . S
O469 C452 1.252 . S
O470 Gd441 2.435 . S
O470 C459 1.256 . S
O471 Gd440 2.327 . S
O471 Gd441 2.717 . S
O471 C459 1.257 . S
H472 C445 0.930 . S
H473 C446 0.931 . S
H474 C448 0.931 . S
H475 C449 0.931 . S
H476 C454 0.930 . S
H477 C455 0.931 . S
H478 C457 0.931 . S
H479 C458 0.931 . S
Gd480 C483 2.818 . S
Gd480 O500 2.377 . S
Gd480 O502 2.448 . S
Gd480 O503 2.506 . S
Gd480 O504 2.435 . S
Gd480 O505 2.717 . S
Gd480 O507 2.395 . S
Gd480 O511 2.327 . S
Gd481 C492 2.818 . S
Gd481 O501 2.395 . S
Gd481 O505 2.327 . S
Gd481 O506 2.377 . S
Gd481 O508 2.448 . S
Gd481 O509 2.506 . S
Gd481 O510 2.435 . S
Gd481 O511 2.717 . S
C482 O500 1.240 . S
C482 O501 1.240 . S
C483 Gd480 2.818 . S
C483 C484 1.510 . S
C483 O502 1.249 . S
C483 O503 1.252 . S
C484 C483 1.510 . S
C484 C485 1.404 . S
C484 C486 1.352 . S
C485 C484 1.404 . S
C485 C489 1.389 . S
C485 H512 0.930 . S
C486 C484 1.352 . S
C486 C488 1.374 . S
C486 H513 0.931 . S
C487 C488 1.359 . S
C487 C489 1.364 . S
C488 C486 1.374 . S
C488 C487 1.359 . S
C488 H514 0.931 . S
C489 C485 1.389 . S
C489 C487 1.364 . S
C489 H515 0.931 . S
C490 O504 1.256 . S
C490 O505 1.257 . S
C491 O506 1.240 . S
C491 O507 1.240 . S
C492 Gd481 2.818 . S
C492 C493 1.510 . S
C492 O508 1.249 . S
C492 O509 1.252 . S
C493 C492 1.510 . S
C493 C494 1.404 . S
C493 C495 1.352 . S
C494 C493 1.404 . S
C494 C498 1.389 . S
C494 H516 0.930 . S
C495 C493 1.352 . S
C495 C497 1.374 . S
C495 H517 0.931 . S
C496 C497 1.359 . S
C496 C498 1.364 . S
C497 C495 1.374 . S
C497 C496 1.359 . S
C497 H518 0.931 . S
C498 C494 1.389 . S
C498 C496 1.364 . S
C498 H519 0.931 . S
C499 O510 1.256 . S
C499 O511 1.257 . S
O500 Gd480 2.377 . S
O500 C482 1.240 . S
O501 Gd481 2.395 . S
O501 C482 1.240 . S
O502 Gd480 2.448 . S
O502 C483 1.249 . S
O503 Gd480 2.506 . S
O503 C483 1.252 . S
O504 Gd480 2.435 . S
O504 C490 1.256 . S
O505 Gd480 2.717 . S
O505 Gd481 2.327 . S
O505 C490 1.257 . S
O506 Gd481 2.377 . S
O506 C491 1.240 . S
O507 Gd480 2.395 . S
O507 C491 1.240 . S
O508 Gd481 2.448 . S
O508 C492 1.249 . S
O509 Gd481 2.506 . S
O509 C492 1.252 . S
O510 Gd481 2.435 . S
O510 C499 1.256 . S
O511 Gd480 2.327 . S
O511 Gd481 2.717 . S
O511 C499 1.257 . S
H512 C485 0.930 . S
H513 C486 0.931 . S
H514 C488 0.931 . S
H515 C489 0.931 . S
H516 C494 0.930 . S
H517 C495 0.931 . S
H518 C497 0.931 . S
H519 C498 0.931 . S
Gd520 C523 2.818 1_455 S
Gd520 O540 2.377 . S
Gd520 O542 2.448 1_455 S
Gd520 O543 2.506 1_455 S
Gd520 O544 2.435 . S
Gd520 O545 2.717 . S
Gd520 O547 2.395 1_455 S
Gd520 O551 2.327 . S
Gd521 C532 2.818 . S
Gd521 O541 2.395 . S
Gd521 O545 2.327 . S
Gd521 O546 2.377 . S
Gd521 O548 2.448 . S
Gd521 O549 2.506 . S
Gd521 O550 2.435 . S
Gd521 O551 2.717 . S
C522 O540 1.240 . S
C522 O541 1.240 . S
C523 Gd520 2.818 1_655 S
C523 C524 1.510 . S
C523 O542 1.249 . S
C523 O543 1.252 . S
C524 C523 1.510 . S
C524 C525 1.409 . S
C524 C526 1.352 1_554 S
C525 C524 1.409 . S
C525 C529 1.378 1_554 S
C525 H552 0.936 . S
C526 C524 1.352 1_556 S
C526 C528 1.374 . S
C526 H553 0.931 . S
C527 C528 1.359 . S
C527 C529 1.364 . S
C528 C526 1.374 . S
C528 C527 1.359 . S
C528 H554 0.931 . S
C529 C525 1.378 1_556 S
C529 C527 1.364 . S
C529 H555 0.931 . S
C530 O544 1.256 . S
C530 O545 1.257 . S
C531 O546 1.240 . S
C531 O547 1.240 1_455 S
C532 Gd521 2.818 . S
C532 C533 1.510 . S
C532 O548 1.249 . S
C532 O549 1.252 . S
C533 C532 1.510 . S
C533 C534 1.404 . S
C533 C535 1.352 . S
C534 C533 1.404 . S
C534 C538 1.389 . S
C534 H556 0.930 . S
C535 C533 1.352 . S
C535 C537 1.374 . S
C535 H557 0.931 . S
C536 C537 1.359 . S
C536 C538 1.364 . S
C537 C535 1.374 . S
C537 C536 1.359 . S
C537 H558 0.931 . S
C538 C534 1.389 . S
C538 C536 1.364 . S
C538 H559 0.931 . S
C539 O550 1.256 . S
C539 O551 1.257 . S
O540 Gd520 2.377 . S
O540 C522 1.240 . S
O541 Gd521 2.395 . S
O541 C522 1.240 . S
O542 Gd520 2.448 1_655 S
O542 C523 1.249 . S
O543 Gd520 2.506 1_655 S
O543 C523 1.252 . S
O544 Gd520 2.435 . S
O544 C530 1.256 . S
O545 Gd520 2.717 . S
O545 Gd521 2.327 . S
O545 C530 1.257 . S
O546 Gd521 2.377 . S
O546 C531 1.240 . S
O547 Gd520 2.395 1_655 S
O547 C531 1.240 1_655 S
O548 Gd521 2.448 . S
O548 C532 1.249 . S
O549 Gd521 2.506 . S
O549 C532 1.252 . S
O550 Gd521 2.435 . S
O550 C539 1.256 . S
O551 Gd520 2.327 . S
O551 Gd521 2.717 . S
O551 C539 1.257 . S
H552 C525 0.936 . S
H553 C526 0.931 . S
H554 C528 0.931 . S
H555 C529 0.931 . S
H556 C534 0.930 . S
H557 C535 0.931 . S
H558 C537 0.931 . S
H559 C538 0.931 . S
Gd560 C563 2.818 . S
Gd560 O580 2.377 . S
Gd560 O582 2.448 . S
Gd560 O583 2.506 . S
Gd560 O584 2.435 . S
Gd560 O585 2.717 . S
Gd560 O587 2.395 . S
Gd560 O591 2.327 . S
Gd561 C572 2.818 . S
Gd561 O581 2.395 . S
Gd561 O585 2.327 . S
Gd561 O586 2.377 . S
Gd561 O588 2.448 . S
Gd561 O589 2.506 . S
Gd561 O590 2.435 . S
Gd561 O591 2.717 . S
C562 O580 1.240 . S
C562 O581 1.240 . S
C563 Gd560 2.818 . S
C563 C564 1.510 . S
C563 O582 1.249 . S
C563 O583 1.252 . S
C564 C563 1.510 . S
C564 C565 1.404 . S
C564 C566 1.352 . S
C565 C564 1.404 . S
C565 C569 1.389 . S
C565 H592 0.930 . S
C566 C564 1.352 . S
C566 C568 1.374 . S
C566 H593 0.931 . S
C567 C568 1.359 . S
C567 C569 1.364 . S
C568 C566 1.374 . S
C568 C567 1.359 . S
C568 H594 0.931 . S
C569 C565 1.389 . S
C569 C567 1.364 . S
C569 H595 0.931 . S
C570 O584 1.256 . S
C570 O585 1.257 . S
C571 O586 1.240 . S
C571 O587 1.240 . S
C572 Gd561 2.818 . S
C572 C573 1.510 . S
C572 O588 1.249 . S
C572 O589 1.252 . S
C573 C572 1.510 . S
C573 C574 1.404 . S
C573 C575 1.352 . S
C574 C573 1.404 . S
C574 C578 1.389 . S
C574 H596 0.930 . S
C575 C573 1.352 . S
C575 C577 1.374 . S
C575 H597 0.931 . S
C576 C577 1.359 . S
C576 C578 1.364 . S
C577 C575 1.374 . S
C577 C576 1.359 . S
C577 H598 0.931 . S
C578 C574 1.389 . S
C578 C576 1.364 . S
C578 H599 0.931 . S
C579 O590 1.256 . S
C579 O591 1.257 . S
O580 Gd560 2.377 . S
O580 C562 1.240 . S
O581 Gd561 2.395 . S
O581 C562 1.240 . S
O582 Gd560 2.448 . S
O582 C563 1.249 . S
O583 Gd560 2.506 . S
O583 C563 1.252 . S
O584 Gd560 2.435 . S
O584 C570 1.256 . S
O585 Gd560 2.717 . S
O585 Gd561 2.327 . S
O585 C570 1.257 . S
O586 Gd561 2.377 . S
O586 C571 1.240 . S
O587 Gd560 2.395 . S
O587 C571 1.240 . S
O588 Gd561 2.448 . S
O588 C572 1.249 . S
O589 Gd561 2.506 . S
O589 C572 1.252 . S
O590 Gd561 2.435 . S
O590 C579 1.256 . S
O591 Gd560 2.327 . S
O591 Gd561 2.717 . S
O591 C579 1.257 . S
H592 C565 0.930 . S
H593 C566 0.931 . S
H594 C568 0.931 . S
H595 C569 0.931 . S
H596 C574 0.930 . S
H597 C575 0.931 . S
H598 C577 0.931 . S
H599 C578 0.931 . S
Gd600 C603 2.818 . S
Gd600 O620 2.377 1_655 S
Gd600 O622 2.448 . S
Gd600 O623 2.506 . S
Gd600 O624 2.435 . S
Gd600 O625 2.717 1_655 S
Gd600 O627 2.395 . S
Gd600 O631 2.327 1_655 S
Gd601 C612 2.818 . S
Gd601 O621 2.395 . S
Gd601 O625 2.327 . S
Gd601 O626 2.377 . S
Gd601 O628 2.448 . S
Gd601 O629 2.506 . S
Gd601 O630 2.435 . S
Gd601 O631 2.717 . S
C602 O620 1.240 . S
C602 O621 1.240 . S
C603 Gd600 2.818 . S
C603 C604 1.510 . S
C603 O622 1.249 . S
C603 O623 1.252 . S
C604 C603 1.510 . S
C604 C605 1.404 . S
C604 C606 1.352 . S
C605 C604 1.404 . S
C605 C609 1.389 . S
C605 H632 0.930 . S
C606 C604 1.352 . S
C606 C608 1.374 . S
C606 H633 0.931 . S
C607 C608 1.359 . S
C607 C609 1.364 . S
C608 C606 1.374 . S
C608 C607 1.359 . S
C608 H634 0.931 . S
C609 C605 1.389 . S
C609 C607 1.364 . S
C609 H635 0.931 . S
C610 O624 1.256 1_455 S
C610 O625 1.257 . S
C611 O626 1.240 1_655 S
C611 O627 1.240 . S
C612 Gd601 2.818 . S
C612 C613 1.510 . S
C612 O628 1.249 . S
C612 O629 1.252 . S
C613 C612 1.510 . S
C613 C614 1.409 . S
C613 C615 1.352 1_556 S
C614 C613 1.409 . S
C614 C618 1.378 1_556 S
C614 H636 0.936 . S
C615 C613 1.352 1_554 S
C615 C617 1.374 . S
C615 H637 0.931 . S
C616 C617 1.359 . S
C616 C618 1.364 . S
C617 C615 1.374 . S
C617 C616 1.359 . S
C617 H638 0.931 . S
C618 C614 1.378 1_554 S
C618 C616 1.364 . S
C618 H639 0.931 . S
C619 O630 1.256 . S
C619 O631 1.257 . S
O620 Gd600 2.377 1_455 S
O620 C602 1.240 . S
O621 Gd601 2.395 . S
O621 C602 1.240 . S
O622 Gd600 2.448 . S
O622 C603 1.249 . S
O623 Gd600 2.506 . S
O623 C603 1.252 . S
O624 Gd600 2.435 . S
O624 C610 1.256 1_655 S
O625 Gd600 2.717 1_455 S
O625 Gd601 2.327 . S
O625 C610 1.257 . S
O626 Gd601 2.377 . S
O626 C611 1.240 1_455 S
O627 Gd600 2.395 . S
O627 C611 1.240 . S
O628 Gd601 2.448 . S
O628 C612 1.249 . S
O629 Gd601 2.506 . S
O629 C612 1.252 . S
O630 Gd601 2.435 . S
O630 C619 1.256 . S
O631 Gd600 2.327 1_455 S
O631 Gd601 2.717 . S
O631 C619 1.257 . S
H632 C605 0.930 . S
H633 C606 0.931 . S
H634 C608 0.931 . S
H635 C609 0.931 . S
H636 C614 0.936 . S
H637 C615 0.931 . S
H638 C617 0.931 . S
H639 C618 0.931 . S
C640 C641 1.349 . S
C640 C642 1.327 . S
C640 H665 0.950 . S
C641 C640 1.349 . S
C641 C657 1.349 . S
C642 C640 1.327 . S
C642 C661 1.429 . S
C642 H666 0.950 1_554 S
C643 C660 1.574 . S
C643 C662 1.368 . S
C643 H667 0.949 . S
H644 C648 0.949 . S
C645 C646 1.349 . S
C645 C647 1.327 . S
C645 H668 0.950 . S
C646 C645 1.349 . S
C646 C658 1.349 . S
C647 C645 1.327 . S
C647 C663 1.429 . S
C647 H669 0.950 . S
C648 H644 0.949 . S
C648 C656 1.574 . S
C648 C664 1.368 . S
H649 C657 0.950 . S
H650 C655 0.950 . S
H651 C656 0.949 . S
H652 C658 0.950 . S
H653 C659 0.950 . S
H654 C660 0.949 . S
C655 H650 0.950 . S
C655 C657 1.327 . S
C655 C661 1.429 . S
C656 C648 1.574 . S
C656 H651 0.949 . S
C656 C662 1.368 . S
C657 C641 1.349 . S
C657 H649 0.950 . S
C657 C655 1.327 . S
C658 C646 1.349 . S
C658 H652 0.950 . S
C658 C659 1.327 . S
C659 H653 0.950 . S
C659 C658 1.327 . S
C659 C663 1.429 . S
C660 C643 1.574 . S
C660 H654 0.949 . S
C660 C664 1.368 . S
C661 C642 1.429 . S
C661 C655 1.429 . S
C661 C662 1.523 1_554 S
C662 C643 1.368 . S
C662 C656 1.368 . S
C662 C661 1.523 1_556 S
C663 C647 1.429 . S
C663 C659 1.429 . S
C663 C664 1.523 . S
C664 C648 1.368 . S
C664 C660 1.368 . S
C664 C663 1.523 . S
H665 C640 0.950 . S
H666 C642 0.950 1_556 S
H667 C643 0.949 . S
H668 C645 0.950 . S
H669 C647 0.950 . S
C670 C671 1.349 . S
C670 C672 1.327 . S
C670 H695 0.950 . S
C671 C670 1.349 . S
C671 C687 1.349 . S
C672 C670 1.327 . S
C672 C691 1.429 . S
C672 H696 0.950 . S
C673 C690 1.574 . S
C673 C692 1.368 . S
C673 H697 0.949 . S
H674 C678 0.949 . S
C675 C676 1.349 . S
C675 C677 1.327 . S
C675 H698 0.950 . S
C676 C675 1.349 . S
C676 C688 1.349 . S
C677 C675 1.327 . S
C677 C693 1.429 . S
C677 H699 0.950 . S
C678 H674 0.949 . S
C678 C686 1.574 . S
C678 C694 1.368 . S
H679 C687 0.950 . S
H680 C685 0.950 . S
H681 C686 0.949 . S
H682 C688 0.950 . S
H683 C689 0.950 . S
H684 C690 0.949 . S
C685 H680 0.950 . S
C685 C687 1.327 . S
C685 C691 1.429 . S
C686 C678 1.574 . S
C686 H681 0.949 . S
C686 C692 1.368 . S
C687 C671 1.349 . S
C687 H679 0.950 . S
C687 C685 1.327 . S
C688 C676 1.349 . S
C688 H682 0.950 . S
C688 C689 1.327 . S
C689 H683 0.950 . S
C689 C688 1.327 . S
C689 C693 1.429 . S
C690 C673 1.574 . S
C690 H684 0.949 . S
C690 C694 1.368 . S
C691 C672 1.429 . S
C691 C685 1.429 . S
C691 C692 1.523 . S
C692 C673 1.368 . S
C692 C686 1.368 . S
C692 C691 1.523 . S
C693 C677 1.429 . S
C693 C689 1.429 . S
C693 C694 1.523 . S
C694 C678 1.368 . S
C694 C690 1.368 . S
C694 C693 1.523 . S
H695 C670 0.950 . S
H696 C672 0.950 . S
H697 C673 0.949 . S
H698 C675 0.950 . S
H699 C677 0.950 . S
C700 C701 1.349 . S
C700 C702 1.327 . S
C700 H725 0.950 . S
C701 C700 1.349 . S
C701 C717 1.349 . S
C702 C700 1.327 . S
C702 C721 1.429 . S
C702 H726 0.950 . S
C703 C720 1.574 . S
C703 C722 1.368 . S
C703 H727 0.949 . S
H704 C708 0.949 . S
C705 C706 1.349 . S
C705 C707 1.327 . S
C705 H728 0.950 . S
C706 C705 1.349 . S
C706 C718 1.349 . S
C707 C705 1.327 . S
C707 C723 1.429 . S
C707 H729 0.950 . S
C708 H704 0.949 . S
C708 C716 1.574 . S
C708 C724 1.368 . S
H709 C717 0.950 . S
H710 C715 0.950 . S
H711 C716 0.949 . S
H712 C718 0.950 . S
H713 C719 0.950 . S
H714 C720 0.949 . S
C715 H710 0.950 . S
C715 C717 1.327 . S
C715 C721 1.429 . S
C716 C708 1.574 . S
C716 H711 0.949 . S
C716 C722 1.368 . S
C717 C701 1.349 . S
C717 H709 0.950 . S
C717 C715 1.327 . S
C718 C706 1.349 . S
C718 H712 0.950 . S
C718 C719 1.327 . S
C719 H713 0.950 . S
C719 C718 1.327 . S
C719 C723 1.429 . S
C720 C703 1.574 . S
C720 H714 0.949 . S
C720 C724 1.368 . S
C721 C702 1.429 . S
C721 C715 1.429 . S
C721 C722 1.523 . S
C722 C703 1.368 . S
C722 C716 1.368 . S
C722 C721 1.523 . S
C723 C707 1.429 . S
C723 C719 1.429 . S
C723 C724 1.523 . S
C724 C708 1.368 . S
C724 C720 1.368 . S
C724 C723 1.523 . S
H725 C700 0.950 . S
H726 C702 0.950 . S
H727 C703 0.949 . S
H728 C705 0.950 . S
H729 C707 0.950 . S
C730 C731 1.349 . S
C730 C732 1.327 . S
C730 H755 0.950 . S
C731 C730 1.349 . S
C731 C747 1.349 . S
C732 C730 1.327 . S
C732 C751 1.429 . S
C732 H756 0.950 . S
C733 C750 1.574 . S
C733 C752 1.368 . S
C733 H757 0.949 . S
H734 C738 0.949 . S
C735 C736 1.349 . S
C735 C737 1.327 . S
C735 H758 0.950 . S
C736 C735 1.349 . S
C736 C748 1.349 . S
C737 C735 1.327 . S
C737 C753 1.429 . S
C737 H759 0.950 . S
C738 H734 0.949 . S
C738 C746 1.574 . S
C738 C754 1.368 . S
H739 C747 0.950 . S
H740 C745 0.950 . S
H741 C746 0.949 . S
H742 C748 0.950 . S
H743 C749 0.950 . S
H744 C750 0.949 . S
C745 H740 0.950 . S
C745 C747 1.327 . S
C745 C751 1.429 . S
C746 C738 1.574 . S
C746 H741 0.949 . S
C746 C752 1.368 . S
C747 C731 1.349 . S
C747 H739 0.950 . S
C747 C745 1.327 . S
C748 C736 1.349 . S
C748 H742 0.950 . S
C748 C749 1.327 . S
C749 H743 0.950 . S
C749 C748 1.327 . S
C749 C753 1.429 . S
C750 C733 1.574 . S
C750 H744 0.949 . S
C750 C754 1.368 . S
C751 C732 1.429 . S
C751 C745 1.429 . S
C751 C752 1.523 . S
C752 C733 1.368 . S
C752 C746 1.368 . S
C752 C751 1.523 . S
C753 C737 1.429 . S
C753 C749 1.429 . S
C753 C754 1.523 . S
C754 C738 1.368 . S
C754 C750 1.368 . S
C754 C753 1.523 . S
H755 C730 0.950 . S
H756 C732 0.950 . S
H757 C733 0.949 . S
H758 C735 0.950 . S
H759 C737 0.950 . S
C760 C761 1.349 . S
C760 C762 1.327 . S
C760 H785 0.950 . S
C761 C760 1.349 . S
C761 C777 1.349 . S
C762 C760 1.327 . S
C762 C781 1.429 . S
C762 H786 0.950 . S
C763 C780 1.574 . S
C763 C782 1.368 . S
C763 H787 0.949 . S
H764 C768 0.949 . S
C765 C766 1.349 . S
C765 C767 1.327 . S
C765 H788 0.950 . S
C766 C765 1.349 . S
C766 C778 1.349 . S
C767 C765 1.327 . S
C767 C783 1.429 . S
C767 H789 0.950 . S
C768 H764 0.949 . S
C768 C776 1.574 . S
C768 C784 1.368 . S
H769 C777 0.950 . S
H770 C775 0.950 . S
H771 C776 0.949 . S
H772 C778 0.950 1_455 S
H773 C779 0.950 1_554 S
H774 C780 0.949 . S
C775 H770 0.950 . S
C775 C777 1.327 . S
C775 C781 1.429 . S
C776 C768 1.574 . S
C776 H771 0.949 . S
C776 C782 1.368 . S
C777 C761 1.349 . S
C777 H769 0.950 . S
C777 C775 1.327 . S
C778 C766 1.349 . S
C778 H772 0.950 1_655 S
C778 C779 1.327 . S
C779 H773 0.950 1_556 S
C779 C778 1.327 . S
C779 C783 1.429 . S
C780 C763 1.574 . S
C780 H774 0.949 . S
C780 C784 1.368 . S
C781 C762 1.429 . S
C781 C775 1.429 . S
C781 C782 1.523 . S
C782 C763 1.368 . S
C782 C776 1.368 . S
C782 C781 1.523 . S
C783 C767 1.429 . S
C783 C779 1.429 . S
C783 C784 1.523 1_556 S
C784 C768 1.368 . S
C784 C780 1.368 . S
C784 C783 1.523 1_554 S
H785 C760 0.950 . S
H786 C762 0.950 . S
H787 C763 0.949 . S
H788 C765 0.950 . S
H789 C767 0.950 . S
C790 C791 1.349 . S
C790 C792 1.327 . S
C790 H815 0.950 . S
C791 C790 1.349 . S
C791 C807 1.349 . S
C792 C790 1.327 . S
C792 C811 1.429 . S
C792 H816 0.950 . S
C793 C810 1.574 . S
C793 C812 1.368 . S
C793 H817 0.949 . S
H794 C798 0.949 . S
C795 C796 1.349 . S
C795 C797 1.327 . S
C795 H818 0.950 . S
C796 C795 1.349 . S
C796 C808 1.349 . S
C797 C795 1.327 . S
C797 C813 1.429 . S
C797 H819 0.950 . S
C798 H794 0.949 . S
C798 C806 1.574 . S
C798 C814 1.368 . S
H799 C807 0.950 . S
H800 C805 0.950 . S
H801 C806 0.949 . S
H802 C808 0.950 . S
H803 C809 0.950 . S
H804 C810 0.949 . S
C805 H800 0.950 . S
C805 C807 1.327 . S
C805 C811 1.429 . S
C806 C798 1.574 . S
C806 H801 0.949 . S
C806 C812 1.368 . S
C807 C791 1.349 . S
C807 H799 0.950 . S
C807 C805 1.327 . S
C808 C796 1.349 . S
C808 H802 0.950 . S
C808 C809 1.327 . S
C809 H803 0.950 . S
C809 C808 1.327 . S
C809 C813 1.429 . S
C810 C793 1.574 . S
C810 H804 0.949 . S
C810 C814 1.368 . S
C811 C792 1.429 . S
C811 C805 1.429 . S
C811 C812 1.523 . S
C812 C793 1.368 . S
C812 C806 1.368 . S
C812 C811 1.523 . S
C813 C797 1.429 . S
C813 C809 1.429 . S
C813 C814 1.523 . S
C814 C798 1.368 . S
C814 C810 1.368 . S
C814 C813 1.523 . S
H815 C790 0.950 . S
H816 C792 0.950 . S
H817 C793 0.949 . S
H818 C795 0.950 . S
H819 C797 0.950 . S
C820 C821 1.349 . S
C820 C822 1.327 . S
C820 H845 0.950 . S
C821 C820 1.349 . S
C821 C837 1.349 . S
C822 C820 1.327 . S
C822 C841 1.429 . S
C822 H846 0.950 . S
C823 C840 1.574 . S
C823 C842 1.368 . S
C823 H847 0.949 . S
H824 C828 0.949 . S
C825 C826 1.349 . S
C825 C827 1.327 . S
C825 H848 0.950 . S
C826 C825 1.349 . S
C826 C838 1.349 . S
C827 C825 1.327 . S
C827 C843 1.429 . S
C827 H849 0.950 . S
C828 H824 0.949 . S
C828 C836 1.574 . S
C828 C844 1.368 . S
H829 C837 0.950 . S
H830 C835 0.950 . S
H831 C836 0.949 . S
H832 C838 0.950 . S
H833 C839 0.950 . S
H834 C840 0.949 . S
C835 H830 0.950 . S
C835 C837 1.327 . S
C835 C841 1.429 . S
C836 C828 1.574 . S
C836 H831 0.949 . S
C836 C842 1.368 . S
C837 C821 1.349 . S
C837 H829 0.950 . S
C837 C835 1.327 . S
C838 C826 1.349 . S
C838 H832 0.950 . S
C838 C839 1.327 . S
C839 H833 0.950 . S
C839 C838 1.327 . S
C839 C843 1.429 . S
C840 C823 1.574 . S
C840 H834 0.949 . S
C840 C844 1.368 . S
C841 C822 1.429 . S
C841 C835 1.429 . S
C841 C842 1.523 . S
C842 C823 1.368 . S
C842 C836 1.368 . S
C842 C841 1.523 . S
C843 C827 1.429 . S
C843 C839 1.429 . S
C843 C844 1.523 . S
C844 C828 1.368 . S
C844 C840 1.368 . S
C844 C843 1.523 . S
H845 C820 0.950 . S
H846 C822 0.950 . S
H847 C823 0.949 . S
H848 C825 0.950 . S
H849 C827 0.950 . S
C850 C851 1.349 . S
C850 C852 1.327 . S
C850 H875 0.950 . S
C851 C850 1.349 . S
C851 C867 1.349 . S
C852 C850 1.327 . S
C852 C871 1.429 . S
C852 H876 0.950 . S
C853 C870 1.574 . S
C853 C872 1.368 . S
C853 H877 0.949 . S
H854 C858 0.949 . S
C855 C856 1.349 . S
C855 C857 1.327 . S
C855 H878 0.950 . S
C856 C855 1.349 . S
C856 C868 1.349 . S
C857 C855 1.327 . S
C857 C873 1.429 . S
C857 H879 0.950 . S
C858 H854 0.949 . S
C858 C866 1.574 . S
C858 C874 1.368 . S
H859 C867 0.950 . S
H860 C865 0.950 . S
H861 C866 0.949 . S
H862 C868 0.950 . S
H863 C869 0.950 . S
H864 C870 0.949 . S
C865 H860 0.950 . S
C865 C867 1.327 . S
C865 C871 1.429 . S
C866 C858 1.574 . S
C866 H861 0.949 . S
C866 C872 1.368 . S
C867 C851 1.349 . S
C867 H859 0.950 . S
C867 C865 1.327 . S
C868 C856 1.349 . S
C868 H862 0.950 . S
C868 C869 1.327 . S
C869 H863 0.950 . S
C869 C868 1.327 . S
C869 C873 1.429 . S
C870 C853 1.574 . S
C870 H864 0.949 . S
C870 C874 1.368 . S
C871 C852 1.429 . S
C871 C865 1.429 . S
C871 C872 1.523 . S
C872 C853 1.368 . S
C872 C866 1.368 . S
C872 C871 1.523 . S
C873 C857 1.429 . S
C873 C869 1.429 . S
C873 C874 1.523 . S
C874 C858 1.368 . S
C874 C870 1.368 . S
C874 C873 1.523 . S
H875 C850 0.950 . S
H876 C852 0.950 . S
H877 C853 0.949 . S
H878 C855 0.950 . S
H879 C857 0.950 . S
C880 C881 1.349 . S
C880 C882 1.327 . S
C880 H905 0.950 . S
C881 C880 1.349 . S
C881 C897 1.349 . S
C882 C880 1.327 . S
C882 C901 1.429 . S
C882 H906 0.950 . S
C883 C900 1.574 . S
C883 C902 1.368 . S
C883 H907 0.949 . S
H884 C888 0.949 . S
C885 C886 1.349 . S
C885 C887 1.327 . S
C885 H908 0.950 . S
C886 C885 1.349 . S
C886 C898 1.349 . S
C887 C885 1.327 . S
C887 C903 1.429 . S
C887 H909 0.950 . S
C888 H884 0.949 . S
C888 C896 1.574 . S
C888 C904 1.368 . S
H889 C897 0.950 . S
H890 C895 0.950 . S
H891 C896 0.949 . S
H892 C898 0.950 . S
H893 C899 0.950 . S
H894 C900 0.949 . S
C895 H890 0.950 . S
C895 C897 1.327 . S
C895 C901 1.429 . S
C896 C888 1.574 . S
C896 H891 0.949 . S
C896 C902 1.368 . S
C897 C881 1.349 . S
C897 H889 0.950 . S
C897 C895 1.327 . S
C898 C886 1.349 . S
C898 H892 0.950 . S
C898 C899 1.327 . S
C899 H893 0.950 . S
C899 C898 1.327 . S
C899 C903 1.429 . S
C900 C883 1.574 . S
C900 H894 0.949 . S
C900 C904 1.368 . S
C901 C882 1.429 . S
C901 C895 1.429 . S
C901 C902 1.523 . S
C902 C883 1.368 . S
C902 C896 1.368 . S
C902 C901 1.523 . S
C903 C887 1.429 . S
C903 C899 1.429 . S
C903 C904 1.523 . S
C904 C888 1.368 . S
C904 C900 1.368 . S
C904 C903 1.523 . S
H905 C880 0.950 . S
H906 C882 0.950 . S
H907 C883 0.949 . S
H908 C885 0.950 . S
H909 C887 0.950 . S
C910 C911 1.349 . S
C910 C912 1.327 . S
C910 H935 0.950 . S
C911 C910 1.349 . S
C911 C927 1.349 . S
C912 C910 1.327 . S
C912 C931 1.429 . S
C912 H936 0.950 . S
C913 C930 1.574 . S
C913 C932 1.368 . S
C913 H937 0.949 . S
H914 C918 0.949 . S
C915 C916 1.349 . S
C915 C917 1.327 . S
C915 H938 0.950 . S
C916 C915 1.349 . S
C916 C928 1.349 . S
C917 C915 1.327 . S
C917 C933 1.429 . S
C917 H939 0.950 . S
C918 H914 0.949 . S
C918 C926 1.574 . S
C918 C934 1.368 . S
H919 C927 0.950 . S
H920 C925 0.950 . S
H921 C926 0.949 . S
H922 C928 0.950 . S
H923 C929 0.950 . S
H924 C930 0.949 . S
C925 H920 0.950 . S
C925 C927 1.327 . S
C925 C931 1.429 . S
C926 C918 1.574 . S
C926 H921 0.949 . S
C926 C932 1.368 . S
C927 C911 1.349 . S
C927 H919 0.950 . S
C927 C925 1.327 . S
C928 C916 1.349 . S
C928 H922 0.950 . S
C928 C929 1.327 . S
C929 H923 0.950 . S
C929 C928 1.327 . S
C929 C933 1.429 . S
C930 C913 1.574 . S
C930 H924 0.949 . S
C930 C934 1.368 . S
C931 C912 1.429 . S
C931 C925 1.429 . S
C931 C932 1.523 . S
C932 C913 1.368 . S
C932 C926 1.368 . S
C932 C931 1.523 . S
C933 C917 1.429 . S
C933 C929 1.429 . S
C933 C934 1.523 . S
C934 C918 1.368 . S
C934 C930 1.368 . S
C934 C933 1.523 . S
H935 C910 0.950 . S
H936 C912 0.950 . S
H937 C913 0.949 . S
H938 C915 0.950 . S
H939 C917 0.950 . S
C940 C941 1.349 . S
C940 C942 1.327 . S
C940 H965 0.956 . S
C941 C940 1.349 . S
C941 C957 1.349 . S
C942 C940 1.327 . S
C942 C961 1.429 . S
C942 H966 0.950 . S
C943 C960 1.574 . S
C943 C962 1.368 . S
C943 H967 0.949 . S
H944 C948 0.949 . S
C945 C946 1.349 . S
C945 C947 1.327 . S
C945 H968 0.950 . S
C946 C945 1.349 . S
C946 C958 1.349 . S
C947 C945 1.327 . S
C947 C963 1.429 . S
C947 H969 0.950 . S
C948 H944 0.949 . S
C948 C956 1.574 . S
C948 C964 1.368 . S
H949 C957 0.950 . S
H950 C955 0.950 . S
H951 C956 0.949 . S
H952 C958 0.950 . S
H953 C959 0.950 . S
H954 C960 0.949 . S
C955 H950 0.950 . S
C955 C957 1.327 . S
C955 C961 1.429 . S
C956 C948 1.574 . S
C956 H951 0.949 . S
C956 C962 1.368 . S
C957 C941 1.349 . S
C957 H949 0.950 . S
C957 C955 1.327 . S
C958 C946 1.349 . S
C958 H952 0.950 . S
C958 C959 1.327 . S
C959 H953 0.950 . S
C959 C958 1.327 . S
C959 C963 1.429 . S
C960 C943 1.574 . S
C960 H954 0.949 . S
C960 C964 1.368 . S
C961 C942 1.429 . S
C961 C955 1.429 . S
C961 C962 1.523 . S
C962 C943 1.368 . S
C962 C956 1.368 . S
C962 C961 1.523 . S
C963 C947 1.429 . S
C963 C959 1.429 . S
C963 C964 1.523 . S
C964 C948 1.368 . S
C964 C960 1.368 . S
C964 C963 1.523 . S
H965 C940 0.956 . S
H966 C942 0.950 . S
H967 C943 0.949 . S
H968 C945 0.950 . S
H969 C947 0.950 . S
C970 C971 1.349 . S
C970 C972 1.327 . S
C970 H995 0.950 . S
C971 C970 1.349 . S
C971 C987 1.349 . S
C972 C970 1.327 . S
C972 C991 1.429 . S
C972 H996 0.950 . S
C973 C990 1.574 . S
C973 C992 1.368 . S
C973 H997 0.949 . S
H974 C978 0.949 . S
C975 C976 1.369 . S
C975 C977 1.327 . S
C975 H998 0.950 . S
C976 C975 1.369 . S
C976 C988 1.355 . S
C977 C975 1.327 . S
C977 C993 1.429 . S
C977 H999 0.950 . S
C978 H974 0.949 . S
C978 C986 1.574 . S
C978 C994 1.368 . S
H979 C987 0.950 . S
H980 C985 0.950 . S
H981 C986 0.949 . S
H982 C988 0.950 1_556 S
H983 C989 0.950 . S
H984 C990 0.949 . S
C985 H980 0.950 . S
C985 C987 1.327 . S
C985 C991 1.429 . S
C986 C978 1.574 . S
C986 H981 0.949 . S
C986 C992 1.368 . S
C987 C971 1.349 . S
C987 H979 0.950 . S
C987 C985 1.327 . S
C988 C976 1.355 . S
C988 H982 0.950 1_554 S
C988 C989 1.327 . S
C989 H983 0.950 . S
C989 C988 1.327 . S
C989 C993 1.429 . S
C990 C973 1.574 . S
C990 H984 0.949 . S
C990 C994 1.368 . S
C991 C972 1.429 . S
C991 C985 1.429 . S
C991 C992 1.523 . S
C992 C973 1.368 . S
C992 C986 1.368 . S
C992 C991 1.523 . S
C993 C977 1.429 . S
C993 C989 1.429 . S
C993 C994 1.523 . S
C994 C978 1.368 . S
C994 C990 1.368 . S
C994 C993 1.523 . S
H995 C970 0.950 . S
H996 C972 0.950 . S
H997 C973 0.949 . S
H998 C975 0.950 . S
H999 C977 0.950 . S
C1000 C1001 1.349 . S
C1000 C1002 1.327 . S
C1000 H1025 0.950 . S
C1001 C1000 1.349 . S
C1001 C1017 1.349 . S
C1002 C1000 1.327 . S
C1002 C1021 1.429 . S
C1002 H1026 0.950 . S
C1003 C1020 1.574 . S
C1003 C1022 1.368 . S
C1003 H1027 0.949 . S
H1004 C1008 0.949 . S
C1005 C1006 1.349 . S
C1005 C1007 1.327 . S
C1005 H1028 0.950 . S
C1006 C1005 1.349 . S
C1006 C1018 1.349 . S
C1007 C1005 1.327 . S
C1007 C1023 1.429 . S
C1007 H1029 0.950 . S
C1008 H1004 0.949 . S
C1008 C1016 1.574 . S
C1008 C1024 1.368 . S
H1009 C1017 0.950 . S
H1010 C1015 0.950 . S
H1011 C1016 0.949 . S
H1012 C1018 0.950 . S
H1013 C1019 0.950 . S
H1014 C1020 0.949 . S
C1015 H1010 0.950 . S
C1015 C1017 1.327 . S
C1015 C1021 1.429 . S
C1016 C1008 1.574 . S
C1016 H1011 0.949 . S
C1016 C1022 1.368 . S
C1017 C1001 1.349 . S
C1017 H1009 0.950 . S
C1017 C1015 1.327 . S
C1018 C1006 1.349 . S
C1018 H1012 0.950 . S
C1018 C1019 1.327 . S
C1019 H1013 0.950 . S
C1019 C1018 1.327 . S
C1019 C1023 1.429 . S
C1020 C1003 1.574 . S
C1020 H1014 0.949 . S
C1020 C1024 1.368 . S
C1021 C1002 1.429 . S
C1021 C1015 1.429 . S
C1021 C1022 1.523 . S
C1022 C1003 1.368 . S
C1022 C1016 1.368 . S
C1022 C1021 1.523 . S
C1023 C1007 1.429 . S
C1023 C1019 1.429 . S
C1023 C1024 1.523 . S
C1024 C1008 1.368 . S
C1024 C1020 1.368 . S
C1024 C1023 1.523 . S
H1025 C1000 0.950 . S
H1026 C1002 0.950 . S
H1027 C1003 0.949 . S
H1028 C1005 0.950 . S
H1029 C1007 0.950 . S
C1030 C1031 1.349 . S
C1030 C1032 1.327 . S
C1030 H1055 0.950 . S
C1031 C1030 1.349 . S
C1031 C1047 1.349 . S
C1032 C1030 1.327 . S
C1032 C1051 1.429 . S
C1032 H1056 0.950 . S
C1033 C1050 1.574 . S
C1033 C1052 1.368 . S
C1033 H1057 0.949 . S
H1034 C1038 0.949 . S
C1035 C1036 1.349 . S
C1035 C1037 1.327 . S
C1035 H1058 0.950 . S
C1036 C1035 1.349 . S
C1036 C1048 1.349 . S
C1037 C1035 1.327 . S
C1037 C1053 1.429 . S
C1037 H1059 0.950 . S
C1038 H1034 0.949 . S
C1038 C1046 1.574 . S
C1038 C1054 1.368 . S
H1039 C1047 0.950 . S
H1040 C1045 0.950 . S
H1041 C1046 0.949 . S
H1042 C1048 0.950 . S
H1043 C1049 0.950 . S
H1044 C1050 0.949 . S
C1045 H1040 0.950 . S
C1045 C1047 1.327 . S
C1045 C1051 1.429 . S
C1046 C1038 1.574 . S
C1046 H1041 0.949 . S
C1046 C1052 1.368 . S
C1047 C1031 1.349 . S
C1047 H1039 0.950 . S
C1047 C1045 1.327 . S
C1048 C1036 1.349 . S
C1048 H1042 0.950 . S
C1048 C1049 1.327 . S
C1049 H1043 0.950 . S
C1049 C1048 1.327 . S
C1049 C1053 1.429 . S
C1050 C1033 1.574 . S
C1050 H1044 0.949 . S
C1050 C1054 1.368 . S
C1051 C1032 1.429 . S
C1051 C1045 1.429 . S
C1051 C1052 1.523 . S
C1052 C1033 1.368 . S
C1052 C1046 1.368 . S
C1052 C1051 1.523 . S
C1053 C1037 1.429 . S
C1053 C1049 1.429 . S
C1053 C1054 1.523 . S
C1054 C1038 1.368 . S
C1054 C1050 1.368 . S
C1054 C1053 1.523 . S
H1055 C1030 0.950 . S
H1056 C1032 0.950 . S
H1057 C1033 0.949 . S
H1058 C1035 0.950 . S
H1059 C1037 0.950 . S
C1060 C1061 1.349 . S
C1060 C1062 1.327 . S
C1060 H1085 0.950 . S
C1061 C1060 1.349 . S
C1061 C1077 1.349 . S
C1062 C1060 1.327 . S
C1062 C1081 1.429 . S
C1062 H1086 0.950 . S
C1063 C1080 1.574 . S
C1063 C1082 1.368 . S
C1063 H1087 0.949 . S
H1064 C1068 0.949 . S
C1065 C1066 1.349 . S
C1065 C1067 1.327 . S
C1065 H1088 0.950 . S
C1066 C1065 1.349 . S
C1066 C1078 1.349 . S
C1067 C1065 1.327 . S
C1067 C1083 1.429 . S
C1067 H1089 0.950 . S
C1068 H1064 0.949 . S
C1068 C1076 1.574 . S
C1068 C1084 1.368 . S
H1069 C1077 0.950 . S
H1070 C1075 0.950 . S
H1071 C1076 0.949 . S
H1072 C1078 0.950 . S
H1073 C1079 0.950 . S
H1074 C1080 0.949 . S
C1075 H1070 0.950 . S
C1075 C1077 1.327 . S
C1075 C1081 1.429 . S
C1076 C1068 1.574 . S
C1076 H1071 0.949 . S
C1076 C1082 1.368 . S
C1077 C1061 1.349 . S
C1077 H1069 0.950 . S
C1077 C1075 1.327 . S
C1078 C1066 1.349 . S
C1078 H1072 0.950 . S
C1078 C1079 1.327 . S
C1079 H1073 0.950 . S
C1079 C1078 1.327 . S
C1079 C1083 1.429 . S
C1080 C1063 1.574 . S
C1080 H1074 0.949 . S
C1080 C1084 1.368 . S
C1081 C1062 1.429 . S
C1081 C1075 1.429 . S
C1081 C1082 1.523 . S
C1082 C1063 1.368 . S
C1082 C1076 1.368 . S
C1082 C1081 1.523 . S
C1083 C1067 1.429 . S
C1083 C1079 1.429 . S
C1083 C1084 1.523 . S
C1084 C1068 1.368 . S
C1084 C1080 1.368 . S
C1084 C1083 1.523 . S
H1085 C1060 0.950 . S
H1086 C1062 0.950 . S
H1087 C1063 0.949 . S
H1088 C1065 0.950 . S
H1089 C1067 0.950 . S
C1090 C1091 1.349 . S
C1090 C1092 1.327 . S
C1090 H1115 0.950 . S
C1091 C1090 1.349 . S
C1091 C1107 1.349 . S
C1092 C1090 1.327 . S
C1092 C1111 1.429 . S
C1092 H1116 0.950 . S
C1093 C1110 1.574 . S
C1093 C1112 1.368 . S
C1093 H1117 0.949 . S
H1094 C1098 0.949 . S
C1095 C1096 1.348 . S
C1095 C1097 1.327 . S
C1095 H1118 0.950 1_556 S
C1096 C1095 1.348 . S
C1096 C1108 1.375 . S
C1097 C1095 1.327 . S
C1097 C1113 1.429 . S
C1097 H1119 0.950 . S
C1098 H1094 0.949 . S
C1098 C1106 1.574 . S
C1098 C1114 1.368 . S
H1099 C1107 0.950 . S
H1100 C1105 0.950 . S
H1101 C1106 0.949 . S
H1102 C1108 0.950 . S
H1103 C1109 0.950 . S
H1104 C1110 0.949 . S
C1105 H1100 0.950 . S
C1105 C1107 1.327 . S
C1105 C1111 1.429 . S
C1106 C1098 1.574 . S
C1106 H1101 0.949 . S
C1106 C1112 1.368 . S
C1107 C1091 1.349 . S
C1107 H1099 0.950 . S
C1107 C1105 1.327 . S
C1108 C1096 1.375 . S
C1108 H1102 0.950 . S
C1108 C1109 1.327 . S
C1109 H1103 0.950 . S
C1109 C1108 1.327 . S
C1109 C1113 1.429 . S
C1110 C1093 1.574 . S
C1110 H1104 0.949 . S
C1110 C1114 1.368 . S
C1111 C1092 1.429 . S
C1111 C1105 1.429 . S
C1111 C1112 1.523 . S
C1112 C1093 1.368 . S
C1112 C1106 1.368 . S
C1112 C1111 1.523 . S
C1113 C1097 1.429 . S
C1113 C1109 1.429 . S
C1113 C1114 1.523 . S
C1114 C1098 1.368 . S
C1114 C1110 1.368 . S
C1114 C1113 1.523 . S
H1115 C1090 0.950 . S
H1116 C1092 0.950 . S
H1117 C1093 0.949 . S
H1118 C1095 0.950 1_554 S
H1119 C1097 0.950 . S
C1120 C1121 1.349 . S
C1120 C1122 1.327 . S
C1120 H1145 0.950 . S
C1121 C1120 1.349 . S
C1121 C1137 1.349 . S
C1122 C1120 1.327 . S
C1122 C1141 1.429 . S
C1122 H1146 0.950 . S
C1123 C1140 1.574 . S
C1123 C1142 1.368 . S
C1123 H1147 0.949 . S
H1124 C1128 0.949 . S
C1125 C1126 1.349 . S
C1125 C1127 1.327 . S
C1125 H1148 0.950 . S
C1126 C1125 1.349 . S
C1126 C1138 1.349 . S
C1127 C1125 1.327 . S
C1127 C1143 1.429 . S
C1127 H1149 0.950 . S
C1128 H1124 0.949 . S
C1128 C1136 1.574 . S
C1128 C1144 1.368 . S
H1129 C1137 0.950 . S
H1130 C1135 0.950 . S
H1131 C1136 0.949 . S
H1132 C1138 0.950 . S
H1133 C1139 0.950 . S
H1134 C1140 0.949 . S
C1135 H1130 0.950 . S
C1135 C1137 1.327 . S
C1135 C1141 1.429 . S
C1136 C1128 1.574 . S
C1136 H1131 0.949 . S
C1136 C1142 1.368 . S
C1137 C1121 1.349 . S
C1137 H1129 0.950 . S
C1137 C1135 1.327 . S
C1138 C1126 1.349 . S
C1138 H1132 0.950 . S
C1138 C1139 1.327 . S
C1139 H1133 0.950 . S
C1139 C1138 1.327 . S
C1139 C1143 1.429 . S
C1140 C1123 1.574 . S
C1140 H1134 0.949 . S
C1140 C1144 1.368 . S
C1141 C1122 1.429 . S
C1141 C1135 1.429 . S
C1141 C1142 1.523 . S
C1142 C1123 1.368 . S
C1142 C1136 1.368 . S
C1142 C1141 1.523 . S
C1143 C1127 1.429 . S
C1143 C1139 1.429 . S
C1143 C1144 1.523 . S
C1144 C1128 1.368 . S
C1144 C1140 1.368 . S
C1144 C1143 1.523 . S
H1145 C1120 0.950 . S
H1146 C1122 0.950 . S
H1147 C1123 0.949 . S
H1148 C1125 0.950 . S
H1149 C1127 0.950 . S
C1150 C1151 1.349 . S
C1150 C1152 1.327 . S
C1150 H1175 0.950 . S
C1151 C1150 1.349 . S
C1151 C1167 1.349 . S
C1152 C1150 1.327 . S
C1152 C1171 1.429 . S
C1152 H1176 0.950 . S
C1153 C1170 1.574 . S
C1153 C1172 1.368 1_455 S
C1153 H1177 0.949 1_455 S
H1154 C1158 0.949 . S
C1155 C1156 1.349 . S
C1155 C1157 1.327 . S
C1155 H1178 0.950 . S
C1156 C1155 1.349 . S
C1156 C1168 1.349 . S
C1157 C1155 1.327 . S
C1157 C1173 1.429 . S
C1157 H1179 0.950 . S
C1158 H1154 0.949 . S
C1158 C1166 1.560 1_455 S
C1158 C1174 1.368 . S
H1159 C1167 0.950 . S
H1160 C1165 0.950 . S
H1161 C1166 0.956 . S
H1162 C1168 0.950 . S
H1163 C1169 0.950 . S
H1164 C1170 0.949 . S
C1165 H1160 0.950 . S
C1165 C1167 1.327 . S
C1165 C1171 1.429 . S
C1166 C1158 1.560 1_655 S
C1166 H1161 0.956 . S
C1166 C1172 1.374 . S
C1167 C1151 1.349 . S
C1167 H1159 0.950 . S
C1167 C1165 1.327 . S
C1168 C1156 1.349 . S
C1168 H1162 0.950 . S
C1168 C1169 1.327 . S
C1169 H1163 0.950 . S
C1169 C1168 1.327 . S
C1169 C1173 1.429 . S
C1170 C1153 1.574 . S
C1170 H1164 0.949 . S
C1170 C1174 1.368 . S
C1171 C1152 1.429 . S
C1171 C1165 1.429 . S
C1171 C1172 1.523 . S
C1172 C1153 1.368 1_655 S
C1172 C1166 1.374 . S
C1172 C1171 1.523 . S
C1173 C1157 1.429 . S
C1173 C1169 1.429 . S
C1173 C1174 1.523 . S
C1174 C1158 1.368 . S
C1174 C1170 1.368 . S
C1174 C1173 1.523 . S
H1175 C1150 0.950 . S
H1176 C1152 0.950 . S
H1177 C1153 0.949 1_655 S
H1178 C1155 0.950 . S
H1179 C1157 0.950 . S
C1180 C1181 1.349 . S
C1180 C1182 1.327 . S
C1180 H1205 0.950 . S
C1181 C1180 1.349 . S
C1181 C1197 1.349 . S
C1182 C1180 1.327 . S
C1182 C1201 1.429 . S
C1182 H1206 0.950 . S
C1183 C1200 1.574 . S
C1183 C1202 1.368 . S
C1183 H1207 0.949 . S
H1184 C1188 0.949 . S
C1185 C1186 1.349 . S
C1185 C1187 1.327 . S
C1185 H1208 0.950 . S
C1186 C1185 1.349 . S
C1186 C1198 1.349 . S
C1187 C1185 1.327 . S
C1187 C1203 1.429 . S
C1187 H1209 0.950 . S
C1188 H1184 0.949 . S
C1188 C1196 1.574 . S
C1188 C1204 1.368 . S
H1189 C1197 0.950 . S
H1190 C1195 0.950 . S
H1191 C1196 0.949 . S
H1192 C1198 0.950 . S
H1193 C1199 0.950 . S
H1194 C1200 0.949 . S
C1195 H1190 0.950 . S
C1195 C1197 1.327 . S
C1195 C1201 1.429 . S
C1196 C1188 1.574 . S
C1196 H1191 0.949 . S
C1196 C1202 1.368 . S
C1197 C1181 1.349 . S
C1197 H1189 0.950 . S
C1197 C1195 1.327 . S
C1198 C1186 1.349 . S
C1198 H1192 0.950 . S
C1198 C1199 1.327 . S
C1199 H1193 0.950 . S
C1199 C1198 1.327 . S
C1199 C1203 1.429 . S
C1200 C1183 1.574 . S
C1200 H1194 0.949 . S
C1200 C1204 1.368 . S
C1201 C1182 1.429 . S
C1201 C1195 1.429 . S
C1201 C1202 1.523 . S
C1202 C1183 1.368 . S
C1202 C1196 1.368 . S
C1202 C1201 1.523 . S
C1203 C1187 1.429 . S
C1203 C1199 1.429 . S
C1203 C1204 1.523 . S
C1204 C1188 1.368 . S
C1204 C1200 1.368 . S
C1204 C1203 1.523 . S
H1205 C1180 0.950 . S
H1206 C1182 0.950 . S
H1207 C1183 0.949 . S
H1208 C1185 0.950 . S
H1209 C1187 0.950 . S
C1210 C1211 1.349 . S
C1210 C1212 1.327 . S
C1210 H1235 0.950 . S
C1211 C1210 1.349 . S
C1211 C1227 1.349 . S
C1212 C1210 1.327 . S
C1212 C1231 1.429 . S
C1212 H1236 0.950 . S
C1213 C1230 1.574 . S
C1213 C1232 1.368 . S
C1213 H1237 0.949 . S
H1214 C1218 0.949 . S
C1215 C1216 1.349 . S
C1215 C1217 1.327 . S
C1215 H1238 0.950 . S
C1216 C1215 1.349 . S
C1216 C1228 1.349 . S
C1217 C1215 1.327 . S
C1217 C1233 1.429 . S
C1217 H1239 0.950 . S
C1218 H1214 0.949 . S
C1218 C1226 1.574 . S
C1218 C1234 1.368 . S
H1219 C1227 0.950 . S
H1220 C1225 0.950 . S
H1221 C1226 0.949 . S
H1222 C1228 0.950 . S
H1223 C1229 0.950 . S
H1224 C1230 0.949 . S
C1225 H1220 0.950 . S
C1225 C1227 1.327 . S
C1225 C1231 1.429 . S
C1226 C1218 1.574 . S
C1226 H1221 0.949 . S
C1226 C1232 1.368 . S
C1227 C1211 1.349 . S
C1227 H1219 0.950 . S
C1227 C1225 1.327 . S
C1228 C1216 1.349 . S
C1228 H1222 0.950 . S
C1228 C1229 1.327 . S
C1229 H1223 0.950 . S
C1229 C1228 1.327 . S
C1229 C1233 1.429 . S
C1230 C1213 1.574 . S
C1230 H1224 0.949 . S
C1230 C1234 1.368 . S
C1231 C1212 1.429 . S
C1231 C1225 1.429 . S
C1231 C1232 1.523 . S
C1232 C1213 1.368 . S
C1232 C1226 1.368 . S
C1232 C1231 1.523 . S
C1233 C1217 1.429 . S
C1233 C1229 1.429 . S
C1233 C1234 1.523 . S
C1234 C1218 1.368 . S
C1234 C1230 1.368 . S
C1234 C1233 1.523 . S
H1235 C1210 0.950 . S
H1236 C1212 0.950 . S
H1237 C1213 0.949 . S
H1238 C1215 0.950 . S
H1239 C1217 0.950 . S
C1240 C1241 1.349 1_655 S
C1240 C1242 1.327 . S
C1240 H1265 0.950 . S
C1241 C1240 1.349 1_455 S
C1241 C1257 1.349 . S
C1242 C1240 1.327 . S
C1242 C1261 1.429 1_655 S
C1242 H1266 0.950 . S
C1243 C1260 1.574 . S
C1243 C1262 1.368 . S
C1243 H1267 0.949 . S
H1244 C1248 0.949 . S
C1245 C1246 1.349 . S
C1245 C1247 1.327 . S
C1245 H1268 0.950 . S
C1246 C1245 1.349 . S
C1246 C1258 1.349 1_455 S
C1247 C1245 1.327 . S
C1247 C1263 1.429 . S
C1247 H1269 0.950 . S
C1248 H1244 0.949 . S
C1248 C1256 1.574 . S
C1248 C1264 1.368 1_655 S
H1249 C1257 0.950 . S
H1250 C1255 0.950 . S
H1251 C1256 0.949 . S
H1252 C1258 0.950 . S
H1253 C1259 0.950 . S
H1254 C1260 0.949 . S
C1255 H1250 0.950 . S
C1255 C1257 1.327 . S
C1255 C1261 1.429 . S
C1256 C1248 1.574 . S
C1256 H1251 0.949 . S
C1256 C1262 1.368 1_655 S
C1257 C1241 1.349 . S
C1257 H1249 0.950 . S
C1257 C1255 1.327 . S
C1258 C1246 1.349 1_655 S
C1258 H1252 0.950 . S
C1258 C1259 1.327 . S
C1259 H1253 0.950 . S
C1259 C1258 1.327 . S
C1259 C1263 1.429 1_655 S
C1260 C1243 1.574 . S
C1260 H1254 0.949 . S
C1260 C1264 1.368 . S
C1261 C1242 1.429 1_455 S
C1261 C1255 1.429 . S
C1261 C1262 1.523 . S
C1262 C1243 1.368 . S
C1262 C1256 1.368 1_455 S
C1262 C1261 1.523 . S
C1263 C1247 1.429 . S
C1263 C1259 1.429 1_455 S
C1263 C1264 1.523 . S
C1264 C1248 1.368 1_455 S
C1264 C1260 1.368 . S
C1264 C1263 1.523 . S
H1265 C1240 0.950 . S
H1266 C1242 0.950 . S
H1267 C1243 0.949 . S
H1268 C1245 0.950 . S
H1269 C1247 0.950 . S
C1270 C1271 1.349 . S
C1270 C1272 1.327 . S
C1270 H1295 0.950 . S
C1271 C1270 1.349 . S
C1271 C1287 1.349 . S
C1272 C1270 1.327 . S
C1272 C1291 1.429 . S
C1272 H1296 0.950 . S
C1273 C1290 1.574 . S
C1273 C1292 1.368 . S
C1273 H1297 0.949 . S
H1274 C1278 0.949 . S
C1275 C1276 1.349 . S
C1275 C1277 1.327 . S
C1275 H1298 0.950 . S
C1276 C1275 1.349 . S
C1276 C1288 1.349 . S
C1277 C1275 1.327 . S
C1277 C1293 1.429 . S
C1277 H1299 0.950 . S
C1278 H1274 0.949 . S
C1278 C1286 1.574 . S
C1278 C1294 1.368 . S
H1279 C1287 0.950 . S
H1280 C1285 0.950 . S
H1281 C1286 0.949 . S
H1282 C1288 0.950 . S
H1283 C1289 0.950 . S
H1284 C1290 0.949 . S
C1285 H1280 0.950 . S
C1285 C1287 1.327 . S
C1285 C1291 1.429 . S
C1286 C1278 1.574 . S
C1286 H1281 0.949 . S
C1286 C1292 1.368 . S
C1287 C1271 1.349 . S
C1287 H1279 0.950 . S
C1287 C1285 1.327 . S
C1288 C1276 1.349 . S
C1288 H1282 0.950 . S
C1288 C1289 1.327 . S
C1289 H1283 0.950 . S
C1289 C1288 1.327 . S
C1289 C1293 1.429 . S
C1290 C1273 1.574 . S
C1290 H1284 0.949 . S
C1290 C1294 1.368 . S
C1291 C1272 1.429 . S
C1291 C1285 1.429 . S
C1291 C1292 1.523 . S
C1292 C1273 1.368 . S
C1292 C1286 1.368 . S
C1292 C1291 1.523 . S
C1293 C1277 1.429 . S
C1293 C1289 1.429 . S
C1293 C1294 1.523 . S
C1294 C1278 1.368 . S
C1294 C1290 1.368 . S
C1294 C1293 1.523 . S
H1295 C1270 0.950 . S
H1296 C1272 0.950 . S
H1297 C1273 0.949 . S
H1298 C1275 0.950 . S
H1299 C1277 0.950 . S
C1300 C1301 1.349 . S
C1300 C1302 1.327 . S
C1300 H1325 0.950 . S
C1301 C1300 1.349 . S
C1301 C1317 1.349 . S
C1302 C1300 1.327 . S
C1302 C1321 1.429 . S
C1302 H1326 0.950 . S
C1303 C1320 1.574 . S
C1303 C1322 1.368 . S
C1303 H1327 0.949 . S
H1304 C1308 0.949 . S
C1305 C1306 1.349 . S
C1305 C1307 1.327 . S
C1305 H1328 0.950 . S
C1306 C1305 1.349 . S
C1306 C1318 1.349 . S
C1307 C1305 1.327 . S
C1307 C1323 1.429 . S
C1307 H1329 0.950 . S
C1308 H1304 0.949 . S
C1308 C1316 1.574 . S
C1308 C1324 1.368 . S
H1309 C1317 0.950 . S
H1310 C1315 0.950 . S
H1311 C1316 0.949 . S
H1312 C1318 0.950 . S
H1313 C1319 0.950 . S
H1314 C1320 0.949 . S
C1315 H1310 0.950 . S
C1315 C1317 1.327 . S
C1315 C1321 1.429 . S
C1316 C1308 1.574 . S
C1316 H1311 0.949 . S
C1316 C1322 1.368 . S
C1317 C1301 1.349 . S
C1317 H1309 0.950 . S
C1317 C1315 1.327 . S
C1318 C1306 1.349 . S
C1318 H1312 0.950 . S
C1318 C1319 1.327 . S
C1319 H1313 0.950 . S
C1319 C1318 1.327 . S
C1319 C1323 1.429 . S
C1320 C1303 1.574 . S
C1320 H1314 0.949 . S
C1320 C1324 1.368 . S
C1321 C1302 1.429 . S
C1321 C1315 1.429 . S
C1321 C1322 1.523 . S
C1322 C1303 1.368 . S
C1322 C1316 1.368 . S
C1322 C1321 1.523 . S
C1323 C1307 1.429 . S
C1323 C1319 1.429 . S
C1323 C1324 1.523 . S
C1324 C1308 1.368 . S
C1324 C1320 1.368 . S
C1324 C1323 1.523 . S
H1325 C1300 0.950 . S
H1326 C1302 0.950 . S
H1327 C1303 0.949 . S
H1328 C1305 0.950 . S
H1329 C1307 0.950 . S
C1330 C1331 1.349 . S
C1330 C1332 1.327 . S
C1330 H1355 0.950 . S
C1331 C1330 1.349 . S
C1331 C1347 1.349 . S
C1332 C1330 1.327 . S
C1332 C1351 1.429 . S
C1332 H1356 0.950 . S
C1333 C1350 1.574 . S
C1333 C1352 1.368 . S
C1333 H1357 0.949 . S
H1334 C1338 0.949 1_655 S
C1335 C1336 1.349 . S
C1335 C1337 1.327 . S
C1335 H1358 0.950 . S
C1336 C1335 1.349 . S
C1336 C1348 1.349 . S
C1337 C1335 1.327 . S
C1337 C1353 1.429 . S
C1337 H1359 0.950 . S
C1338 H1334 0.949 1_455 S
C1338 C1346 1.574 . S
C1338 C1354 1.368 . S
H1339 C1347 0.950 . S
H1340 C1345 0.950 . S
H1341 C1346 0.949 . S
H1342 C1348 0.950 . S
H1343 C1349 0.950 . S
H1344 C1350 0.949 . S
C1345 H1340 0.950 . S
C1345 C1347 1.327 . S
C1345 C1351 1.429 . S
C1346 C1338 1.574 . S
C1346 H1341 0.949 . S
C1346 C1352 1.368 . S
C1347 C1331 1.349 . S
C1347 H1339 0.950 . S
C1347 C1345 1.327 . S
C1348 C1336 1.349 . S
C1348 H1342 0.950 . S
C1348 C1349 1.327 . S
C1349 H1343 0.950 . S
C1349 C1348 1.327 . S
C1349 C1353 1.429 . S
C1350 C1333 1.574 . S
C1350 H1344 0.949 . S
C1350 C1354 1.368 . S
C1351 C1332 1.429 . S
C1351 C1345 1.429 . S
C1351 C1352 1.523 . S
C1352 C1333 1.368 . S
C1352 C1346 1.368 . S
C1352 C1351 1.523 . S
C1353 C1337 1.429 . S
C1353 C1349 1.429 . S
C1353 C1354 1.523 1_655 S
C1354 C1338 1.368 . S
C1354 C1350 1.368 . S
C1354 C1353 1.523 1_455 S
H1355 C1330 0.950 . S
H1356 C1332 0.950 . S
H1357 C1333 0.949 . S
H1358 C1335 0.950 . S
H1359 C1337 0.950 . S
C1360 C1361 1.349 . S
C1360 C1362 1.327 . S
C1360 H1385 0.950 1_455 S
C1361 C1360 1.349 . S
C1361 C1377 1.349 . S
C1362 C1360 1.327 . S
C1362 C1381 1.429 . S
C1362 H1386 0.950 1_455 S
C1363 C1380 1.574 . S
C1363 C1382 1.368 1_556 S
C1363 H1387 0.949 . S
H1364 C1368 0.949 1_655 S
C1365 C1366 1.349 . S
C1365 C1367 1.327 . S
C1365 H1388 0.950 . S
C1366 C1365 1.349 . S
C1366 C1378 1.349 . S
C1367 C1365 1.327 . S
C1367 C1383 1.429 . S
C1367 H1389 0.950 . S
C1368 H1364 0.949 1_455 S
C1368 C1376 1.574 . S
C1368 C1384 1.368 1_554 S
H1369 C1377 0.950 . S
H1370 C1375 0.950 . S
H1371 C1376 0.949 1_655 S
H1372 C1378 0.950 1_655 S
H1373 C1379 0.950 1_655 S
H1374 C1380 0.949 . S
C1375 H1370 0.950 . S
C1375 C1377 1.327 . S
C1375 C1381 1.429 . S
C1376 C1368 1.574 . S
C1376 H1371 0.949 1_455 S
C1376 C1382 1.368 1_565 S
C1377 C1361 1.349 . S
C1377 H1369 0.950 . S
C1377 C1375 1.327 . S
C1378 C1366 1.349 . S
C1378 H1372 0.950 1_455 S
C1378 C1379 1.327 . S
C1379 H1373 0.950 1_455 S
C1379 C1378 1.327 . S
C1379 C1383 1.429 . S
C1380 C1363 1.574 . S
C1380 H1374 0.949 . S
C1380 C1384 1.368 1_545 S
C1381 C1362 1.429 . S
C1381 C1375 1.429 . S
C1381 C1382 1.523 . S
C1382 C1363 1.368 1_554 S
C1382 C1376 1.368 1_545 S
C1382 C1381 1.523 . S
C1383 C1367 1.429 . S
C1383 C1379 1.429 . S
C1383 C1384 1.523 . S
C1384 C1368 1.368 1_556 S
C1384 C1380 1.368 1_565 S
C1384 C1383 1.523 . S
H1385 C1360 0.950 1_655 S
H1386 C1362 0.950 1_655 S
H1387 C1363 0.949 . S
H1388 C1365 0.950 . S
H1389 C1367 0.950 . S
C1390 C1391 1.349 . S
C1390 C1392 1.327 . S
C1390 H1415 0.950 . S
C1391 C1390 1.349 . S
C1391 C1407 1.349 . S
C1392 C1390 1.327 . S
C1392 C1411 1.429 . S
C1392 H1416 0.950 . S
C1393 C1410 1.574 . S
C1393 C1412 1.368 . S
C1393 H1417 0.949 . S
H1394 C1398 0.949 . S
C1395 C1396 1.349 . S
C1395 C1397 1.327 . S
C1395 H1418 0.950 . S
C1396 C1395 1.349 . S
C1396 C1408 1.349 . S
C1397 C1395 1.327 . S
C1397 C1413 1.429 . S
C1397 H1419 0.950 . S
C1398 H1394 0.949 . S
C1398 C1406 1.574 . S
C1398 C1414 1.368 . S
H1399 C1407 0.950 . S
H1400 C1405 0.950 . S
H1401 C1406 0.949 . S
H1402 C1408 0.950 . S
H1403 C1409 0.950 . S
H1404 C1410 0.949 . S
C1405 H1400 0.950 . S
C1405 C1407 1.327 . S
C1405 C1411 1.429 . S
C1406 C1398 1.574 . S
C1406 H1401 0.949 . S
C1406 C1412 1.368 . S
C1407 C1391 1.349 . S
C1407 H1399 0.950 . S
C1407 C1405 1.327 . S
C1408 C1396 1.349 . S
C1408 H1402 0.950 . S
C1408 C1409 1.327 . S
C1409 H1403 0.950 . S
C1409 C1408 1.327 . S
C1409 C1413 1.429 . S
C1410 C1393 1.574 . S
C1410 H1404 0.949 . S
C1410 C1414 1.368 . S
C1411 C1392 1.429 . S
C1411 C1405 1.429 . S
C1411 C1412 1.523 . S
C1412 C1393 1.368 . S
C1412 C1406 1.368 . S
C1412 C1411 1.523 . S
C1413 C1397 1.429 . S
C1413 C1409 1.429 . S
C1413 C1414 1.523 . S
C1414 C1398 1.368 . S
C1414 C1410 1.368 . S
C1414 C1413 1.523 . S
H1415 C1390 0.950 . S
H1416 C1392 0.950 . S
H1417 C1393 0.949 . S
H1418 C1395 0.950 . S
H1419 C1397 0.950 . S
C1420 C1421 1.349 . S
C1420 C1422 1.327 . S
C1420 H1445 0.950 . S
C1421 C1420 1.349 . S
C1421 C1437 1.349 . S
C1422 C1420 1.327 . S
C1422 C1441 1.429 . S
C1422 H1446 0.950 . S
C1423 C1440 1.574 . S
C1423 C1442 1.368 . S
C1423 H1447 0.949 . S
H1424 C1428 0.949 . S
C1425 C1426 1.349 . S
C1425 C1427 1.327 . S
C1425 H1448 0.950 . S
C1426 C1425 1.349 . S
C1426 C1438 1.349 . S
C1427 C1425 1.327 . S
C1427 C1443 1.429 . S
C1427 H1449 0.950 . S
C1428 H1424 0.949 . S
C1428 C1436 1.574 . S
C1428 C1444 1.368 . S
H1429 C1437 0.950 . S
H1430 C1435 0.950 . S
H1431 C1436 0.949 . S
H1432 C1438 0.950 . S
H1433 C1439 0.950 . S
H1434 C1440 0.949 . S
C1435 H1430 0.950 . S
C1435 C1437 1.327 . S
C1435 C1441 1.429 . S
C1436 C1428 1.574 . S
C1436 H1431 0.949 . S
C1436 C1442 1.368 1_565 S
C1437 C1421 1.349 . S
C1437 H1429 0.950 . S
C1437 C1435 1.327 . S
C1438 C1426 1.349 . S
C1438 H1432 0.950 . S
C1438 C1439 1.327 . S
C1439 H1433 0.950 . S
C1439 C1438 1.327 . S
C1439 C1443 1.429 . S
C1440 C1423 1.574 . S
C1440 H1434 0.949 . S
C1440 C1444 1.368 1_545 S
C1441 C1422 1.429 . S
C1441 C1435 1.429 . S
C1441 C1442 1.523 . S
C1442 C1423 1.368 . S
C1442 C1436 1.368 1_545 S
C1442 C1441 1.523 . S
C1443 C1427 1.429 . S
C1443 C1439 1.429 . S
C1443 C1444 1.523 . S
C1444 C1428 1.368 . S
C1444 C1440 1.368 1_565 S
C1444 C1443 1.523 . S
H1445 C1420 0.950 . S
H1446 C1422 0.950 . S
H1447 C1423 0.949 . S
H1448 C1425 0.950 . S
H1449 C1427 0.950 . S
C1450 C1451 1.349 . S
C1450 C1452 1.327 . S
C1450 H1475 0.950 . S
C1451 C1450 1.349 . S
C1451 C1467 1.349 . S
C1452 C1450 1.327 . S
C1452 C1471 1.429 . S
C1452 H1476 0.950 . S
C1453 C1470 1.574 . S
C1453 C1472 1.368 . S
C1453 H1477 0.949 . S
H1454 C1458 0.949 . S
C1455 C1456 1.349 . S
C1455 C1457 1.327 . S
C1455 H1478 0.950 . S
C1456 C1455 1.349 . S
C1456 C1468 1.349 . S
C1457 C1455 1.327 . S
C1457 C1473 1.429 . S
C1457 H1479 0.950 . S
C1458 H1454 0.949 . S
C1458 C1466 1.574 . S
C1458 C1474 1.368 . S
H1459 C1467 0.950 . S
H1460 C1465 0.950 . S
H1461 C1466 0.949 . S
H1462 C1468 0.950 . S
H1463 C1469 0.950 . S
H1464 C1470 0.949 . S
C1465 H1460 0.950 . S
C1465 C1467 1.327 . S
C1465 C1471 1.429 . S
C1466 C1458 1.574 . S
C1466 H1461 0.949 . S
C1466 C1472 1.368 . S
C1467 C1451 1.349 . S
C1467 H1459 0.950 . S
C1467 C1465 1.327 . S
C1468 C1456 1.349 . S
C1468 H1462 0.950 . S
C1468 C1469 1.327 . S
C1469 H1463 0.950 . S
C1469 C1468 1.327 . S
C1469 C1473 1.429 . S
C1470 C1453 1.574 . S
C1470 H1464 0.949 . S
C1470 C1474 1.368 . S
C1471 C1452 1.429 . S
C1471 C1465 1.429 . S
C1471 C1472 1.523 . S
C1472 C1453 1.368 . S
C1472 C1466 1.368 . S
C1472 C1471 1.523 . S
C1473 C1457 1.429 . S
C1473 C1469 1.429 . S
C1473 C1474 1.523 . S
C1474 C1458 1.368 . S
C1474 C1470 1.368 . S
C1474 C1473 1.523 . S
H1475 C1450 0.950 . S
H1476 C1452 0.950 . S
H1477 C1453 0.949 . S
H1478 C1455 0.950 . S
H1479 C1457 0.950 . S
C1480 C1481 1.349 . S
C1480 C1482 1.327 . S
C1480 H1505 0.950 . S
C1481 C1480 1.349 . S
C1481 C1497 1.349 . S
C1482 C1480 1.327 . S
C1482 C1501 1.429 . S
C1482 H1506 0.950 . S
C1483 C1500 1.574 . S
C1483 C1502 1.368 . S
C1483 H1507 0.949 . S
H1484 C1488 0.949 . S
C1485 C1486 1.349 . S
C1485 C1487 1.327 . S
C1485 H1508 0.950 . S
C1486 C1485 1.349 . S
C1486 C1498 1.349 . S
C1487 C1485 1.327 . S
C1487 C1503 1.429 . S
C1487 H1509 0.950 . S
C1488 H1484 0.949 . S
C1488 C1496 1.574 . S
C1488 C1504 1.368 . S
H1489 C1497 0.950 . S
H1490 C1495 0.950 . S
H1491 C1496 0.949 . S
H1492 C1498 0.950 . S
H1493 C1499 0.950 . S
H1494 C1500 0.949 . S
C1495 H1490 0.950 . S
C1495 C1497 1.327 . S
C1495 C1501 1.429 . S
C1496 C1488 1.574 . S
C1496 H1491 0.949 . S
C1496 C1502 1.368 . S
C1497 C1481 1.349 . S
C1497 H1489 0.950 . S
C1497 C1495 1.327 . S
C1498 C1486 1.349 . S
C1498 H1492 0.950 . S
C1498 C1499 1.327 . S
C1499 H1493 0.950 . S
C1499 C1498 1.327 . S
C1499 C1503 1.429 . S
C1500 C1483 1.574 . S
C1500 H1494 0.949 . S
C1500 C1504 1.368 . S
C1501 C1482 1.429 . S
C1501 C1495 1.429 . S
C1501 C1502 1.523 . S
C1502 C1483 1.368 . S
C1502 C1496 1.368 . S
C1502 C1501 1.523 . S
C1503 C1487 1.429 . S
C1503 C1499 1.429 . S
C1503 C1504 1.523 . S
C1504 C1488 1.368 . S
C1504 C1500 1.368 . S
C1504 C1503 1.523 . S
H1505 C1480 0.950 . S
H1506 C1482 0.950 . S
H1507 C1483 0.949 . S
H1508 C1485 0.950 . S
H1509 C1487 0.950 . S
C1510 C1511 1.349 . S
C1510 C1512 1.327 . S
C1510 H1535 0.950 . S
C1511 C1510 1.349 . S
C1511 C1527 1.349 . S
C1512 C1510 1.327 . S
C1512 C1531 1.429 . S
C1512 H1536 0.950 . S
C1513 C1530 1.574 . S
C1513 C1532 1.368 . S
C1513 H1537 0.949 . S
H1514 C1518 0.949 . S
C1515 C1516 1.349 . S
C1515 C1517 1.327 . S
C1515 H1538 0.950 . S
C1516 C1515 1.349 . S
C1516 C1528 1.349 . S
C1517 C1515 1.327 . S
C1517 C1533 1.429 . S
C1517 H1539 0.950 . S
C1518 H1514 0.949 . S
C1518 C1526 1.574 . S
C1518 C1534 1.368 . S
H1519 C1527 0.950 . S
H1520 C1525 0.950 . S
H1521 C1526 0.949 . S
H1522 C1528 0.950 . S
H1523 C1529 0.950 . S
H1524 C1530 0.949 . S
C1525 H1520 0.950 . S
C1525 C1527 1.327 . S
C1525 C1531 1.429 . S
C1526 C1518 1.574 . S
C1526 H1521 0.949 . S
C1526 C1532 1.368 . S
C1527 C1511 1.349 . S
C1527 H1519 0.950 . S
C1527 C1525 1.327 . S
C1528 C1516 1.349 . S
C1528 H1522 0.950 . S
C1528 C1529 1.327 . S
C1529 H1523 0.950 . S
C1529 C1528 1.327 . S
C1529 C1533 1.429 . S
C1530 C1513 1.574 . S
C1530 H1524 0.949 . S
C1530 C1534 1.368 . S
C1531 C1512 1.429 . S
C1531 C1525 1.429 . S
C1531 C1532 1.523 . S
C1532 C1513 1.368 . S
C1532 C1526 1.368 . S
C1532 C1531 1.523 . S
C1533 C1517 1.429 . S
C1533 C1529 1.429 . S
C1533 C1534 1.523 . S
C1534 C1518 1.368 . S
C1534 C1530 1.368 . S
C1534 C1533 1.523 . S
H1535 C1510 0.950 . S
H1536 C1512 0.950 . S
H1537 C1513 0.949 . S
H1538 C1515 0.950 . S
H1539 C1517 0.950 . S
C1540 C1541 1.349 . S
C1540 C1542 1.327 . S
C1540 H1565 0.950 . S
C1541 C1540 1.349 . S
C1541 C1557 1.349 . S
C1542 C1540 1.327 . S
C1542 C1561 1.429 . S
C1542 H1566 0.950 . S
C1543 C1560 1.574 . S
C1543 C1562 1.368 . S
C1543 H1567 0.949 . S
H1544 C1548 0.949 . S
C1545 C1546 1.349 . S
C1545 C1547 1.327 . S
C1545 H1568 0.950 . S
C1546 C1545 1.349 . S
C1546 C1558 1.349 . S
C1547 C1545 1.327 . S
C1547 C1563 1.429 . S
C1547 H1569 0.950 . S
C1548 H1544 0.949 . S
C1548 C1556 1.574 . S
C1548 C1564 1.368 . S
H1549 C1557 0.950 . S
H1550 C1555 0.950 . S
H1551 C1556 0.949 . S
H1552 C1558 0.950 . S
H1553 C1559 0.950 . S
H1554 C1560 0.949 . S
C1555 H1550 0.950 . S
C1555 C1557 1.327 . S
C1555 C1561 1.429 . S
C1556 C1548 1.574 . S
C1556 H1551 0.949 . S
C1556 C1562 1.368 . S
C1557 C1541 1.349 . S
C1557 H1549 0.950 . S
C1557 C1555 1.327 . S
C1558 C1546 1.349 . S
C1558 H1552 0.950 . S
C1558 C1559 1.327 . S
C1559 H1553 0.950 . S
C1559 C1558 1.327 . S
C1559 C1563 1.429 . S
C1560 C1543 1.574 . S
C1560 H1554 0.949 . S
C1560 C1564 1.368 . S
C1561 C1542 1.429 . S
C1561 C1555 1.429 . S
C1561 C1562 1.523 . S
C1562 C1543 1.368 . S
C1562 C1556 1.368 . S
C1562 C1561 1.523 . S
C1563 C1547 1.429 . S
C1563 C1559 1.429 . S
C1563 C1564 1.523 . S
C1564 C1548 1.368 . S
C1564 C1560 1.368 . S
C1564 C1563 1.523 . S
H1565 C1540 0.950 . S
H1566 C1542 0.950 . S
H1567 C1543 0.949 . S
H1568 C1545 0.950 . S
H1569 C1547 0.950 . S
C1570 C1571 1.349 . S
C1570 C1572 1.327 . S
C1570 H1595 0.950 1_455 S
C1571 C1570 1.349 . S
C1571 C1587 1.349 . S
C1572 C1570 1.327 . S
C1572 C1591 1.429 . S
C1572 H1596 0.943 1_455 S
C1573 C1590 1.574 . S
C1573 C1592 1.368 . S
C1573 H1597 0.949 . S
H1574 C1578 0.949 . S
C1575 C1576 1.349 . S
C1575 C1577 1.327 . S
C1575 H1598 0.950 . S
C1576 C1575 1.349 . S
C1576 C1588 1.349 . S
C1577 C1575 1.327 . S
C1577 C1593 1.429 . S
C1577 H1599 0.950 . S
C1578 H1574 0.949 . S
C1578 C1586 1.574 . S
C1578 C1594 1.368 . S
H1579 C1587 0.950 . S
H1580 C1585 0.950 . S
H1581 C1586 0.949 . S
H1582 C1588 0.950 . S
H1583 C1589 0.950 . S
H1584 C1590 0.949 . S
C1585 H1580 0.950 . S
C1585 C1587 1.327 . S
C1585 C1591 1.429 . S
C1586 C1578 1.574 . S
C1586 H1581 0.949 . S
C1586 C1592 1.368 1_554 S
C1587 C1571 1.349 . S
C1587 H1579 0.950 . S
C1587 C1585 1.327 . S
C1588 C1576 1.349 . S
C1588 H1582 0.950 . S
C1588 C1589 1.327 . S
C1589 H1583 0.950 . S
C1589 C1588 1.327 . S
C1589 C1593 1.429 . S
C1590 C1573 1.574 . S
C1590 H1584 0.949 . S
C1590 C1594 1.368 1_556 S
C1591 C1572 1.429 . S
C1591 C1585 1.429 . S
C1591 C1592 1.523 . S
C1592 C1573 1.368 . S
C1592 C1586 1.368 1_556 S
C1592 C1591 1.523 . S
C1593 C1577 1.429 . S
C1593 C1589 1.429 . S
C1593 C1594 1.523 . S
C1594 C1578 1.368 . S
C1594 C1590 1.368 1_554 S
C1594 C1593 1.523 . S
H1595 C1570 0.950 1_655 S
H1596 C1572 0.943 1_655 S
H1597 C1573 0.949 . S
H1598 C1575 0.950 . S
H1599 C1577 0.950 . S
C1600 C1601 1.349 . S
C1600 C1602 1.327 . S
C1600 H1625 0.950 . S
C1601 C1600 1.349 . S
C1601 C1617 1.349 . S
C1602 C1600 1.327 . S
C1602 C1621 1.429 . S
C1602 H1626 0.950 . S
C1603 C1620 1.574 . S
C1603 C1622 1.368 . S
C1603 H1627 0.949 . S
H1604 C1608 0.949 . S
C1605 C1606 1.349 . S
C1605 C1607 1.327 . S
C1605 H1628 0.950 . S
C1606 C1605 1.349 . S
C1606 C1618 1.349 . S
C1607 C1605 1.327 . S
C1607 C1623 1.429 . S
C1607 H1629 0.950 . S
C1608 H1604 0.949 . S
C1608 C1616 1.574 . S
C1608 C1624 1.368 . S
H1609 C1617 0.950 . S
H1610 C1615 0.950 . S
H1611 C1616 0.949 . S
H1612 C1618 0.950 . S
H1613 C1619 0.950 . S
H1614 C1620 0.949 . S
C1615 H1610 0.950 . S
C1615 C1617 1.327 . S
C1615 C1621 1.429 . S
C1616 C1608 1.574 . S
C1616 H1611 0.949 . S
C1616 C1622 1.368 . S
C1617 C1601 1.349 . S
C1617 H1609 0.950 . S
C1617 C1615 1.327 . S
C1618 C1606 1.349 . S
C1618 H1612 0.950 . S
C1618 C1619 1.327 . S
C1619 H1613 0.950 . S
C1619 C1618 1.327 . S
C1619 C1623 1.429 . S
C1620 C1603 1.574 . S
C1620 H1614 0.949 . S
C1620 C1624 1.368 . S
C1621 C1602 1.429 . S
C1621 C1615 1.429 . S
C1621 C1622 1.523 . S
C1622 C1603 1.368 . S
C1622 C1616 1.368 . S
C1622 C1621 1.523 . S
C1623 C1607 1.429 . S
C1623 C1619 1.429 . S
C1623 C1624 1.523 . S
C1624 C1608 1.368 . S
C1624 C1620 1.368 . S
C1624 C1623 1.523 . S
H1625 C1600 0.950 . S
H1626 C1602 0.950 . S
H1627 C1603 0.949 . S
H1628 C1605 0.950 . S
H1629 C1607 0.950 . S
C1630 C1631 1.349 . S
C1630 C1632 1.327 . S
C1630 H1655 0.950 . S
C1631 C1630 1.349 . S
C1631 C1647 1.349 . S
C1632 C1630 1.327 . S
C1632 C1651 1.429 . S
C1632 H1656 0.950 . S
C1633 C1650 1.574 . S
C1633 C1652 1.368 . S
C1633 H1657 0.949 . S
H1634 C1638 0.949 . S
C1635 C1636 1.349 . S
C1635 C1637 1.327 . S
C1635 H1658 0.950 . S
C1636 C1635 1.349 . S
C1636 C1648 1.349 . S
C1637 C1635 1.327 . S
C1637 C1653 1.429 . S
C1637 H1659 0.950 . S
C1638 H1634 0.949 . S
C1638 C1646 1.574 . S
C1638 C1654 1.368 . S
H1639 C1647 0.950 . S
H1640 C1645 0.950 . S
H1641 C1646 0.949 . S
H1642 C1648 0.950 . S
H1643 C1649 0.950 . S
H1644 C1650 0.949 . S
C1645 H1640 0.950 . S
C1645 C1647 1.327 . S
C1645 C1651 1.429 . S
C1646 C1638 1.574 . S
C1646 H1641 0.949 . S
C1646 C1652 1.368 . S
C1647 C1631 1.349 . S
C1647 H1639 0.950 . S
C1647 C1645 1.327 . S
C1648 C1636 1.349 . S
C1648 H1642 0.950 . S
C1648 C1649 1.327 . S
C1649 H1643 0.950 . S
C1649 C1648 1.327 . S
C1649 C1653 1.429 . S
C1650 C1633 1.574 . S
C1650 H1644 0.949 . S
C1650 C1654 1.368 . S
C1651 C1632 1.429 . S
C1651 C1645 1.429 . S
C1651 C1652 1.523 . S
C1652 C1633 1.368 . S
C1652 C1646 1.368 . S
C1652 C1651 1.523 . S
C1653 C1637 1.429 . S
C1653 C1649 1.429 . S
C1653 C1654 1.523 . S
C1654 C1638 1.368 . S
C1654 C1650 1.368 . S
C1654 C1653 1.523 . S
H1655 C1630 0.950 . S
H1656 C1632 0.950 . S
H1657 C1633 0.949 . S
H1658 C1635 0.950 . S
H1659 C1637 0.950 . S
C1660 C1661 1.349 . S
C1660 C1662 1.327 . S
C1660 H1685 0.950 . S
C1661 C1660 1.349 . S
C1661 C1677 1.349 . S
C1662 C1660 1.327 . S
C1662 C1681 1.429 . S
C1662 H1686 0.950 . S
C1663 C1680 1.574 . S
C1663 C1682 1.368 . S
C1663 H1687 0.949 . S
H1664 C1668 0.949 . S
C1665 C1666 1.349 . S
C1665 C1667 1.327 . S
C1665 H1688 0.950 . S
C1666 C1665 1.349 . S
C1666 C1678 1.349 . S
C1667 C1665 1.327 . S
C1667 C1683 1.429 . S
C1667 H1689 0.950 . S
C1668 H1664 0.949 . S
C1668 C1676 1.574 . S
C1668 C1684 1.368 . S
H1669 C1677 0.950 . S
H1670 C1675 0.950 . S
H1671 C1676 0.949 . S
H1672 C1678 0.950 . S
H1673 C1679 0.950 . S
H1674 C1680 0.949 . S
C1675 H1670 0.950 . S
C1675 C1677 1.327 . S
C1675 C1681 1.429 . S
C1676 C1668 1.574 . S
C1676 H1671 0.949 . S
C1676 C1682 1.368 . S
C1677 C1661 1.349 . S
C1677 H1669 0.950 . S
C1677 C1675 1.327 . S
C1678 C1666 1.349 . S
C1678 H1672 0.950 . S
C1678 C1679 1.327 . S
C1679 H1673 0.950 . S
C1679 C1678 1.327 . S
C1679 C1683 1.429 . S
C1680 C1663 1.574 . S
C1680 H1674 0.949 . S
C1680 C1684 1.368 . S
C1681 C1662 1.429 . S
C1681 C1675 1.429 . S
C1681 C1682 1.523 . S
C1682 C1663 1.368 . S
C1682 C1676 1.368 . S
C1682 C1681 1.523 . S
C1683 C1667 1.429 . S
C1683 C1679 1.429 . S
C1683 C1684 1.523 . S
C1684 C1668 1.368 . S
C1684 C1680 1.368 . S
C1684 C1683 1.523 . S
H1685 C1660 0.950 . S
H1686 C1662 0.950 . S
H1687 C1663 0.949 . S
H1688 C1665 0.950 . S
H1689 C1667 0.950 . S
C1690 C1691 1.349 . S
C1690 C1692 1.327 . S
C1690 H1715 0.950 . S
C1691 C1690 1.349 . S
C1691 C1707 1.349 . S
C1692 C1690 1.327 . S
C1692 C1711 1.429 . S
C1692 H1716 0.950 . S
C1693 C1710 1.574 . S
C1693 C1712 1.368 . S
C1693 H1717 0.949 . S
H1694 C1698 0.949 . S
C1695 C1696 1.349 . S
C1695 C1697 1.327 . S
C1695 H1718 0.950 . S
C1696 C1695 1.349 . S
C1696 C1708 1.349 . S
C1697 C1695 1.327 . S
C1697 C1713 1.429 . S
C1697 H1719 0.950 . S
C1698 H1694 0.949 . S
C1698 C1706 1.574 . S
C1698 C1714 1.368 . S
H1699 C1707 0.950 . S
H1700 C1705 0.950 . S
H1701 C1706 0.949 . S
H1702 C1708 0.950 . S
H1703 C1709 0.950 . S
H1704 C1710 0.949 . S
C1705 H1700 0.950 . S
C1705 C1707 1.327 . S
C1705 C1711 1.429 . S
C1706 C1698 1.574 . S
C1706 H1701 0.949 . S
C1706 C1712 1.368 . S
C1707 C1691 1.349 . S
C1707 H1699 0.950 . S
C1707 C1705 1.327 . S
C1708 C1696 1.349 . S
C1708 H1702 0.950 . S
C1708 C1709 1.327 . S
C1709 H1703 0.950 . S
C1709 C1708 1.327 . S
C1709 C1713 1.429 . S
C1710 C1693 1.574 . S
C1710 H1704 0.949 . S
C1710 C1714 1.368 . S
C1711 C1692 1.429 . S
C1711 C1705 1.429 . S
C1711 C1712 1.523 . S
C1712 C1693 1.368 . S
C1712 C1706 1.368 . S
C1712 C1711 1.523 . S
C1713 C1697 1.429 . S
C1713 C1709 1.429 . S
C1713 C1714 1.523 . S
C1714 C1698 1.368 . S
C1714 C1710 1.368 . S
C1714 C1713 1.523 . S
H1715 C1690 0.950 . S
H1716 C1692 0.950 . S
H1717 C1693 0.949 . S
H1718 C1695 0.950 . S
H1719 C1697 0.950 . S
C1720 C1721 1.349 . S
C1720 C1722 1.327 . S
C1720 H1745 0.950 . S
C1721 C1720 1.349 . S
C1721 C1737 1.349 . S
C1722 C1720 1.327 . S
C1722 C1741 1.429 . S
C1722 H1746 0.950 . S
C1723 C1740 1.574 . S
C1723 C1742 1.368 . S
C1723 H1747 0.949 . S
H1724 C1728 0.949 . S
C1725 C1726 1.349 . S
C1725 C1727 1.327 . S
C1725 H1748 0.950 . S
C1726 C1725 1.349 . S
C1726 C1738 1.349 . S
C1727 C1725 1.327 . S
C1727 C1743 1.429 . S
C1727 H1749 0.950 . S
C1728 H1724 0.949 . S
C1728 C1736 1.574 . S
C1728 C1744 1.368 . S
H1729 C1737 0.950 . S
H1730 C1735 0.950 . S
H1731 C1736 0.949 . S
H1732 C1738 0.950 . S
H1733 C1739 0.950 . S
H1734 C1740 0.949 . S
C1735 H1730 0.950 . S
C1735 C1737 1.327 . S
C1735 C1741 1.429 . S
C1736 C1728 1.574 . S
C1736 H1731 0.949 . S
C1736 C1742 1.368 . S
C1737 C1721 1.349 . S
C1737 H1729 0.950 . S
C1737 C1735 1.327 . S
C1738 C1726 1.349 . S
C1738 H1732 0.950 . S
C1738 C1739 1.327 . S
C1739 H1733 0.950 . S
C1739 C1738 1.327 . S
C1739 C1743 1.429 . S
C1740 C1723 1.574 . S
C1740 H1734 0.949 . S
C1740 C1744 1.368 . S
C1741 C1722 1.429 . S
C1741 C1735 1.429 . S
C1741 C1742 1.523 . S
C1742 C1723 1.368 . S
C1742 C1736 1.368 . S
C1742 C1741 1.523 . S
C1743 C1727 1.429 . S
C1743 C1739 1.429 . S
C1743 C1744 1.523 . S
C1744 C1728 1.368 . S
C1744 C1740 1.368 . S
C1744 C1743 1.523 . S
H1745 C1720 0.950 . S
H1746 C1722 0.950 . S
H1747 C1723 0.949 . S
H1748 C1725 0.950 . S
H1749 C1727 0.950 . S
C1750 C1751 1.349 . S
C1750 C1752 1.327 . S
C1750 H1775 0.950 . S
C1751 C1750 1.349 . S
C1751 C1767 1.349 . S
C1752 C1750 1.327 . S
C1752 C1771 1.429 . S
C1752 H1776 0.950 . S
C1753 C1770 1.574 . S
C1753 C1772 1.368 . S
C1753 H1777 0.949 . S
H1754 C1758 0.949 . S
C1755 C1756 1.349 1_455 S
C1755 C1757 1.327 1_455 S
C1755 H1778 0.950 . S
C1756 C1755 1.349 1_655 S
C1756 C1768 1.349 . S
C1757 C1755 1.327 1_655 S
C1757 C1773 1.429 . S
C1757 H1779 0.950 . S
C1758 H1754 0.949 . S
C1758 C1766 1.574 . S
C1758 C1774 1.368 . S
H1759 C1767 0.950 . S
H1760 C1765 0.950 . S
H1761 C1766 0.949 . S
H1762 C1768 0.950 . S
H1763 C1769 0.950 . S
H1764 C1770 0.949 . S
C1765 H1760 0.950 . S
C1765 C1767 1.327 . S
C1765 C1771 1.429 . S
C1766 C1758 1.574 . S
C1766 H1761 0.949 . S
C1766 C1772 1.368 . S
C1767 C1751 1.349 . S
C1767 H1759 0.950 . S
C1767 C1765 1.327 . S
C1768 C1756 1.349 . S
C1768 H1762 0.950 . S
C1768 C1769 1.327 . S
C1769 H1763 0.950 . S
C1769 C1768 1.327 . S
C1769 C1773 1.429 . S
C1770 C1753 1.574 . S
C1770 H1764 0.949 . S
C1770 C1774 1.368 . S
C1771 C1752 1.429 . S
C1771 C1765 1.429 . S
C1771 C1772 1.523 . S
C1772 C1753 1.368 . S
C1772 C1766 1.368 . S
C1772 C1771 1.523 . S
C1773 C1757 1.429 . S
C1773 C1769 1.429 . S
C1773 C1774 1.523 . S
C1774 C1758 1.368 . S
C1774 C1770 1.368 . S
C1774 C1773 1.523 . S
H1775 C1750 0.950 . S
H1776 C1752 0.950 . S
H1777 C1753 0.949 . S
H1778 C1755 0.950 . S
H1779 C1757 0.950 . S
C1780 C1781 1.349 . S
C1780 C1782 1.327 . S
C1780 H1805 0.950 . S
C1781 C1780 1.349 . S
C1781 C1797 1.349 . S
C1782 C1780 1.327 . S
C1782 C1801 1.429 . S
C1782 H1806 0.950 . S
C1783 C1800 1.574 . S
C1783 C1802 1.368 . S
C1783 H1807 0.949 . S
H1784 C1788 0.949 . S
C1785 C1786 1.349 . S
C1785 C1787 1.327 . S
C1785 H1808 0.950 . S
C1786 C1785 1.349 . S
C1786 C1798 1.349 . S
C1787 C1785 1.327 . S
C1787 C1803 1.429 . S
C1787 H1809 0.950 . S
C1788 H1784 0.949 . S
C1788 C1796 1.574 . S
C1788 C1804 1.368 . S
H1789 C1797 0.950 . S
H1790 C1795 0.950 . S
H1791 C1796 0.949 . S
H1792 C1798 0.950 . S
H1793 C1799 0.950 . S
H1794 C1800 0.949 . S
C1795 H1790 0.950 . S
C1795 C1797 1.327 . S
C1795 C1801 1.429 . S
C1796 C1788 1.574 . S
C1796 H1791 0.949 . S
C1796 C1802 1.368 . S
C1797 C1781 1.349 . S
C1797 H1789 0.950 . S
C1797 C1795 1.327 . S
C1798 C1786 1.349 . S
C1798 H1792 0.950 . S
C1798 C1799 1.327 . S
C1799 H1793 0.950 . S
C1799 C1798 1.327 . S
C1799 C1803 1.429 . S
C1800 C1783 1.574 . S
C1800 H1794 0.949 . S
C1800 C1804 1.368 . S
C1801 C1782 1.429 . S
C1801 C1795 1.429 . S
C1801 C1802 1.523 . S
C1802 C1783 1.368 . S
C1802 C1796 1.368 . S
C1802 C1801 1.523 . S
C1803 C1787 1.429 . S
C1803 C1799 1.429 . S
C1803 C1804 1.523 . S
C1804 C1788 1.368 . S
C1804 C1800 1.368 . S
C1804 C1803 1.523 . S
H1805 C1780 0.950 . S
H1806 C1782 0.950 . S
H1807 C1783 0.949 . S
H1808 C1785 0.950 . S
H1809 C1787 0.950 . S
C1810 C1811 1.349 . S
C1810 C1812 1.327 . S
C1810 H1835 0.950 . S
C1811 C1810 1.349 . S
C1811 C1827 1.349 . S
C1812 C1810 1.327 . S
C1812 C1831 1.429 . S
C1812 H1836 0.950 . S
C1813 C1830 1.574 . S
C1813 C1832 1.368 . S
C1813 H1837 0.949 . S
H1814 C1818 0.949 . S
C1815 C1816 1.349 . S
C1815 C1817 1.327 . S
C1815 H1838 0.950 . S
C1816 C1815 1.349 . S
C1816 C1828 1.349 . S
C1817 C1815 1.327 . S
C1817 C1833 1.429 . S
C1817 H1839 0.950 . S
C1818 H1814 0.949 . S
C1818 C1826 1.574 . S
C1818 C1834 1.368 . S
H1819 C1827 0.950 . S
H1820 C1825 0.950 . S
H1821 C1826 0.949 . S
H1822 C1828 0.950 . S
H1823 C1829 0.950 . S
H1824 C1830 0.949 . S
C1825 H1820 0.950 . S
C1825 C1827 1.327 . S
C1825 C1831 1.429 . S
C1826 C1818 1.574 . S
C1826 H1821 0.949 . S
C1826 C1832 1.368 . S
C1827 C1811 1.349 . S
C1827 H1819 0.950 . S
C1827 C1825 1.327 . S
C1828 C1816 1.349 . S
C1828 H1822 0.950 . S
C1828 C1829 1.327 . S
C1829 H1823 0.950 . S
C1829 C1828 1.327 . S
C1829 C1833 1.429 . S
C1830 C1813 1.574 . S
C1830 H1824 0.949 . S
C1830 C1834 1.368 . S
C1831 C1812 1.429 . S
C1831 C1825 1.429 . S
C1831 C1832 1.523 . S
C1832 C1813 1.368 . S
C1832 C1826 1.368 . S
C1832 C1831 1.523 . S
C1833 C1817 1.429 . S
C1833 C1829 1.429 . S
C1833 C1834 1.523 . S
C1834 C1818 1.368 . S
C1834 C1830 1.368 . S
C1834 C1833 1.523 . S
H1835 C1810 0.950 . S
H1836 C1812 0.950 . S
H1837 C1813 0.949 . S
H1838 C1815 0.950 . S
H1839 C1817 0.950 . S
C1840 C1841 1.349 . S
C1840 C1842 1.327 . S
C1840 H1865 0.950 . S
C1841 C1840 1.349 . S
C1841 C1857 1.349 . S
C1842 C1840 1.327 . S
C1842 C1861 1.429 . S
C1842 H1866 0.950 . S
C1843 C1860 1.574 . S
C1843 C1862 1.368 . S
C1843 H1867 0.949 . S
H1844 C1848 0.949 . S
C1845 C1846 1.349 . S
C1845 C1847 1.327 . S
C1845 H1868 0.950 . S
C1846 C1845 1.349 . S
C1846 C1858 1.349 . S
C1847 C1845 1.327 . S
C1847 C1863 1.429 1_554 S
C1847 H1869 0.950 1_554 S
C1848 H1844 0.949 . S
C1848 C1856 1.574 . S
C1848 C1864 1.368 . S
H1849 C1857 0.950 . S
H1850 C1855 0.950 . S
H1851 C1856 0.949 . S
H1852 C1858 0.950 . S
H1853 C1859 0.950 . S
H1854 C1860 0.949 . S
C1855 H1850 0.950 . S
C1855 C1857 1.327 . S
C1855 C1861 1.429 . S
C1856 C1848 1.574 . S
C1856 H1851 0.949 . S
C1856 C1862 1.368 . S
C1857 C1841 1.349 . S
C1857 H1849 0.950 . S
C1857 C1855 1.327 . S
C1858 C1846 1.349 . S
C1858 H1852 0.950 . S
C1858 C1859 1.327 . S
C1859 H1853 0.950 . S
C1859 C1858 1.327 . S
C1859 C1863 1.429 1_554 S
C1860 C1843 1.574 . S
C1860 H1854 0.949 . S
C1860 C1864 1.368 . S
C1861 C1842 1.429 . S
C1861 C1855 1.429 . S
C1861 C1862 1.523 . S
C1862 C1843 1.368 . S
C1862 C1856 1.368 . S
C1862 C1861 1.523 . S
C1863 C1847 1.429 1_556 S
C1863 C1859 1.429 1_556 S
C1863 C1864 1.523 . S
C1864 C1848 1.368 . S
C1864 C1860 1.368 . S
C1864 C1863 1.523 . S
H1865 C1840 0.950 . S
H1866 C1842 0.950 . S
H1867 C1843 0.949 . S
H1868 C1845 0.950 . S
H1869 C1847 0.950 1_556 S
C1870 C1871 1.349 . S
C1870 C1872 1.327 . S
C1870 H1895 0.950 . S
C1871 C1870 1.349 . S
C1871 C1887 1.349 . S
C1872 C1870 1.327 . S
C1872 C1891 1.429 . S
C1872 H1896 0.950 . S
C1873 C1890 1.574 . S
C1873 C1892 1.368 . S
C1873 H1897 0.949 . S
H1874 C1878 0.949 . S
C1875 C1876 1.349 . S
C1875 C1877 1.327 . S
C1875 H1898 0.950 . S
C1876 C1875 1.349 . S
C1876 C1888 1.349 . S
C1877 C1875 1.327 . S
C1877 C1893 1.429 . S
C1877 H1899 0.950 . S
C1878 H1874 0.949 . S
C1878 C1886 1.574 . S
C1878 C1894 1.368 . S
H1879 C1887 0.950 . S
H1880 C1885 0.950 . S
H1881 C1886 0.949 . S
H1882 C1888 0.950 . S
H1883 C1889 0.950 . S
H1884 C1890 0.949 . S
C1885 H1880 0.950 . S
C1885 C1887 1.327 . S
C1885 C1891 1.429 . S
C1886 C1878 1.574 . S
C1886 H1881 0.949 . S
C1886 C1892 1.368 . S
C1887 C1871 1.349 . S
C1887 H1879 0.950 . S
C1887 C1885 1.327 . S
C1888 C1876 1.349 . S
C1888 H1882 0.950 . S
C1888 C1889 1.327 . S
C1889 H1883 0.950 . S
C1889 C1888 1.327 . S
C1889 C1893 1.429 . S
C1890 C1873 1.574 . S
C1890 H1884 0.949 . S
C1890 C1894 1.368 . S
C1891 C1872 1.429 . S
C1891 C1885 1.429 . S
C1891 C1892 1.523 . S
C1892 C1873 1.368 . S
C1892 C1886 1.368 . S
C1892 C1891 1.523 . S
C1893 C1877 1.429 . S
C1893 C1889 1.429 . S
C1893 C1894 1.523 . S
C1894 C1878 1.368 . S
C1894 C1890 1.368 . S
C1894 C1893 1.523 . S
H1895 C1870 0.950 . S
H1896 C1872 0.950 . S
H1897 C1873 0.949 . S
H1898 C1875 0.950 . S
H1899 C1877 0.950 . S
C1900 C1901 1.349 . S
C1900 C1902 1.327 . S
C1900 H1925 0.950 . S
C1901 C1900 1.349 . S
C1901 C1917 1.349 . S
C1902 C1900 1.327 . S
C1902 C1921 1.429 . S
C1902 H1926 0.950 . S
C1903 C1920 1.574 . S
C1903 C1922 1.368 . S
C1903 H1927 0.949 . S
H1904 C1908 0.949 . S
C1905 C1906 1.349 . S
C1905 C1907 1.327 . S
C1905 H1928 0.950 . S
C1906 C1905 1.349 . S
C1906 C1918 1.349 . S
C1907 C1905 1.327 . S
C1907 C1923 1.429 . S
C1907 H1929 0.950 . S
C1908 H1904 0.949 . S
C1908 C1916 1.574 . S
C1908 C1924 1.368 . S
H1909 C1917 0.950 . S
H1910 C1915 0.950 . S
H1911 C1916 0.949 . S
H1912 C1918 0.950 . S
H1913 C1919 0.950 . S
H1914 C1920 0.949 . S
C1915 H1910 0.950 . S
C1915 C1917 1.327 . S
C1915 C1921 1.429 . S
C1916 C1908 1.574 . S
C1916 H1911 0.949 . S
C1916 C1922 1.368 . S
C1917 C1901 1.349 . S
C1917 H1909 0.950 . S
C1917 C1915 1.327 . S
C1918 C1906 1.349 . S
C1918 H1912 0.950 . S
C1918 C1919 1.327 . S
C1919 H1913 0.950 . S
C1919 C1918 1.327 . S
C1919 C1923 1.429 . S
C1920 C1903 1.574 . S
C1920 H1914 0.949 . S
C1920 C1924 1.368 . S
C1921 C1902 1.429 . S
C1921 C1915 1.429 . S
C1921 C1922 1.523 . S
C1922 C1903 1.368 . S
C1922 C1916 1.368 . S
C1922 C1921 1.523 . S
C1923 C1907 1.429 . S
C1923 C1919 1.429 . S
C1923 C1924 1.523 . S
C1924 C1908 1.368 . S
C1924 C1920 1.368 . S
C1924 C1923 1.523 . S
H1925 C1900 0.950 . S
H1926 C1902 0.950 . S
H1927 C1903 0.949 . S
H1928 C1905 0.950 . S
H1929 C1907 0.950 . S
C1930 C1931 1.349 . S
C1930 C1932 1.327 . S
C1930 H1955 0.950 . S
C1931 C1930 1.349 . S
C1931 C1947 1.349 . S
C1932 C1930 1.327 . S
C1932 C1951 1.429 . S
C1932 H1956 0.950 . S
C1933 C1950 1.574 . S
C1933 C1952 1.368 . S
C1933 H1957 0.949 . S
H1934 C1938 0.949 . S
C1935 C1936 1.349 . S
C1935 C1937 1.327 . S
C1935 H1958 0.950 . S
C1936 C1935 1.349 . S
C1936 C1948 1.349 . S
C1937 C1935 1.327 . S
C1937 C1953 1.429 . S
C1937 H1959 0.950 . S
C1938 H1934 0.949 . S
C1938 C1946 1.574 . S
C1938 C1954 1.368 . S
H1939 C1947 0.950 . S
H1940 C1945 0.950 . S
H1941 C1946 0.949 . S
H1942 C1948 0.950 . S
H1943 C1949 0.950 . S
H1944 C1950 0.949 . S
C1945 H1940 0.950 . S
C1945 C1947 1.327 . S
C1945 C1951 1.429 . S
C1946 C1938 1.574 . S
C1946 H1941 0.949 . S
C1946 C1952 1.368 . S
C1947 C1931 1.349 . S
C1947 H1939 0.950 . S
C1947 C1945 1.327 . S
C1948 C1936 1.349 . S
C1948 H1942 0.950 . S
C1948 C1949 1.327 . S
C1949 H1943 0.950 . S
C1949 C1948 1.327 . S
C1949 C1953 1.429 . S
C1950 C1933 1.574 . S
C1950 H1944 0.949 . S
C1950 C1954 1.368 . S
C1951 C1932 1.429 . S
C1951 C1945 1.429 . S
C1951 C1952 1.523 . S
C1952 C1933 1.368 . S
C1952 C1946 1.368 . S
C1952 C1951 1.523 . S
C1953 C1937 1.429 . S
C1953 C1949 1.429 . S
C1953 C1954 1.523 . S
C1954 C1938 1.368 . S
C1954 C1950 1.368 . S
C1954 C1953 1.523 . S
H1955 C1930 0.950 . S
H1956 C1932 0.950 . S
H1957 C1933 0.949 . S
H1958 C1935 0.950 . S
H1959 C1937 0.950 . S
C1960 C1961 1.349 . S
C1960 C1962 1.327 . S
C1960 H1985 0.950 . S
C1961 C1960 1.349 . S
C1961 C1977 1.349 . S
C1962 C1960 1.327 . S
C1962 C1981 1.429 . S
C1962 H1986 0.950 . S
C1963 C1980 1.574 . S
C1963 C1982 1.368 . S
C1963 H1987 0.949 . S
H1964 C1968 0.949 . S
C1965 C1966 1.349 . S
C1965 C1967 1.327 1_556 S
C1965 H1988 0.950 . S
C1966 C1965 1.349 . S
C1966 C1978 1.349 . S
C1967 C1965 1.327 1_554 S
C1967 C1983 1.429 . S
C1967 H1989 0.950 . S
C1968 H1964 0.949 . S
C1968 C1976 1.574 . S
C1968 C1984 1.368 . S
H1969 C1977 0.950 . S
H1970 C1975 0.950 . S
H1971 C1976 0.949 . S
H1972 C1978 0.950 . S
H1973 C1979 0.950 . S
H1974 C1980 0.949 . S
C1975 H1970 0.950 . S
C1975 C1977 1.327 . S
C1975 C1981 1.429 . S
C1976 C1968 1.574 . S
C1976 H1971 0.949 . S
C1976 C1982 1.368 . S
C1977 C1961 1.349 . S
C1977 H1969 0.950 . S
C1977 C1975 1.327 . S
C1978 C1966 1.349 . S
C1978 H1972 0.950 . S
C1978 C1979 1.327 . S
C1979 H1973 0.950 . S
C1979 C1978 1.327 . S
C1979 C1983 1.429 1_556 S
C1980 C1963 1.574 . S
C1980 H1974 0.949 . S
C1980 C1984 1.368 . S
C1981 C1962 1.429 . S
C1981 C1975 1.429 . S
C1981 C1982 1.523 . S
C1982 C1963 1.368 . S
C1982 C1976 1.368 . S
C1982 C1981 1.523 . S
C1983 C1967 1.429 . S
C1983 C1979 1.429 1_554 S
C1983 C1984 1.523 . S
C1984 C1968 1.368 . S
C1984 C1980 1.368 . S
C1984 C1983 1.523 . S
H1985 C1960 0.950 . S
H1986 C1962 0.950 . S
H1987 C1963 0.949 . S
H1988 C1965 0.950 . S
H1989 C1967 0.950 . S
C1990 C1991 1.349 . S
C1990 C1992 1.327 . S
C1990 H2015 0.950 . S
C1991 C1990 1.349 . S
C1991 C2007 1.349 . S
C1992 C1990 1.327 . S
C1992 C2011 1.429 . S
C1992 H2016 0.950 . S
C1993 C2010 1.574 . S
C1993 C2012 1.368 . S
C1993 H2017 0.949 . S
H1994 C1998 0.949 . S
C1995 C1996 1.349 . S
C1995 C1997 1.327 . S
C1995 H2018 0.950 . S
C1996 C1995 1.349 . S
C1996 C2008 1.349 . S
C1997 C1995 1.327 . S
C1997 C2013 1.429 . S
C1997 H2019 0.950 . S
C1998 H1994 0.949 . S
C1998 C2006 1.574 . S
C1998 C2014 1.368 . S
H1999 C2007 0.950 . S
H2000 C2005 0.950 . S
H2001 C2006 0.949 . S
H2002 C2008 0.950 . S
H2003 C2009 0.950 . S
H2004 C2010 0.949 . S
C2005 H2000 0.950 . S
C2005 C2007 1.327 . S
C2005 C2011 1.429 . S
C2006 C1998 1.574 . S
C2006 H2001 0.949 . S
C2006 C2012 1.368 . S
C2007 C1991 1.349 . S
C2007 H1999 0.950 . S
C2007 C2005 1.327 . S
C2008 C1996 1.349 . S
C2008 H2002 0.950 . S
C2008 C2009 1.327 . S
C2009 H2003 0.950 . S
C2009 C2008 1.327 . S
C2009 C2013 1.429 . S
C2010 C1993 1.574 . S
C2010 H2004 0.949 . S
C2010 C2014 1.368 . S
C2011 C1992 1.429 . S
C2011 C2005 1.429 . S
C2011 C2012 1.523 . S
C2012 C1993 1.368 . S
C2012 C2006 1.368 . S
C2012 C2011 1.523 . S
C2013 C1997 1.429 . S
C2013 C2009 1.429 . S
C2013 C2014 1.523 . S
C2014 C1998 1.368 . S
C2014 C2010 1.368 . S
C2014 C2013 1.523 . S
H2015 C1990 0.950 . S
H2016 C1992 0.950 . S
H2017 C1993 0.949 . S
H2018 C1995 0.950 . S
H2019 C1997 0.950 . S
C2020 C2021 1.349 . S
C2020 C2022 1.327 . S
C2020 H2045 0.950 . S
C2021 C2020 1.349 . S
C2021 C2037 1.349 . S
C2022 C2020 1.327 . S
C2022 C2041 1.429 . S
C2022 H2046 0.950 . S
C2023 C2040 1.574 . S
C2023 C2042 1.368 . S
C2023 H2047 0.949 . S
H2024 C2028 0.949 . S
C2025 C2026 1.349 . S
C2025 C2027 1.327 . S
C2025 H2048 0.950 . S
C2026 C2025 1.349 . S
C2026 C2038 1.349 . S
C2027 C2025 1.327 . S
C2027 C2043 1.429 . S
C2027 H2049 0.950 . S
C2028 H2024 0.949 . S
C2028 C2036 1.574 . S
C2028 C2044 1.368 . S
H2029 C2037 0.950 . S
H2030 C2035 0.950 . S
H2031 C2036 0.949 . S
H2032 C2038 0.950 . S
H2033 C2039 0.950 . S
H2034 C2040 0.949 . S
C2035 H2030 0.950 . S
C2035 C2037 1.327 . S
C2035 C2041 1.429 . S
C2036 C2028 1.574 . S
C2036 H2031 0.949 . S
C2036 C2042 1.368 . S
C2037 C2021 1.349 . S
C2037 H2029 0.950 . S
C2037 C2035 1.327 . S
C2038 C2026 1.349 . S
C2038 H2032 0.950 . S
C2038 C2039 1.327 . S
C2039 H2033 0.950 . S
C2039 C2038 1.327 . S
C2039 C2043 1.429 . S
C2040 C2023 1.574 . S
C2040 H2034 0.949 . S
C2040 C2044 1.368 . S
C2041 C2022 1.429 . S
C2041 C2035 1.429 . S
C2041 C2042 1.523 . S
C2042 C2023 1.368 . S
C2042 C2036 1.368 . S
C2042 C2041 1.523 . S
C2043 C2027 1.429 . S
C2043 C2039 1.429 . S
C2043 C2044 1.523 . S
C2044 C2028 1.368 . S
C2044 C2040 1.368 . S
C2044 C2043 1.523 . S
H2045 C2020 0.950 . S
H2046 C2022 0.950 . S
H2047 C2023 0.949 . S
H2048 C2025 0.950 . S
H2049 C2027 0.950 . S
C2050 C2051 1.349 . S
C2050 C2052 1.327 . S
C2050 H2075 0.950 . S
C2051 C2050 1.349 . S
C2051 C2067 1.349 . S
C2052 C2050 1.327 . S
C2052 C2071 1.429 . S
C2052 H2076 0.950 . S
C2053 C2070 1.574 . S
C2053 C2072 1.368 . S
C2053 H2077 0.949 . S
H2054 C2058 0.949 . S
C2055 C2056 1.349 . S
C2055 C2057 1.327 . S
C2055 H2078 0.950 . S
C2056 C2055 1.349 . S
C2056 C2068 1.349 . S
C2057 C2055 1.327 . S
C2057 C2073 1.429 . S
C2057 H2079 0.950 . S
C2058 H2054 0.949 . S
C2058 C2066 1.574 . S
C2058 C2074 1.368 . S
H2059 C2067 0.950 . S
H2060 C2065 0.950 . S
H2061 C2066 0.949 . S
H2062 C2068 0.950 . S
H2063 C2069 0.950 . S
H2064 C2070 0.949 . S
C2065 H2060 0.950 . S
C2065 C2067 1.327 . S
C2065 C2071 1.429 . S
C2066 C2058 1.574 . S
C2066 H2061 0.949 . S
C2066 C2072 1.368 . S
C2067 C2051 1.349 . S
C2067 H2059 0.950 . S
C2067 C2065 1.327 . S
C2068 C2056 1.349 . S
C2068 H2062 0.950 . S
C2068 C2069 1.327 . S
C2069 H2063 0.950 . S
C2069 C2068 1.327 . S
C2069 C2073 1.429 . S
C2070 C2053 1.574 . S
C2070 H2064 0.949 . S
C2070 C2074 1.368 . S
C2071 C2052 1.429 . S
C2071 C2065 1.429 . S
C2071 C2072 1.523 . S
C2072 C2053 1.368 . S
C2072 C2066 1.368 . S
C2072 C2071 1.523 . S
C2073 C2057 1.429 . S
C2073 C2069 1.429 . S
C2073 C2074 1.523 . S
C2074 C2058 1.368 . S
C2074 C2070 1.368 . S
C2074 C2073 1.523 . S
H2075 C2050 0.950 . S
H2076 C2052 0.950 . S
H2077 C2053 0.949 . S
H2078 C2055 0.950 . S
H2079 C2057 0.950 . S
C641 C11 0.414 . S
C646 C287 0.389 . S
C671 C51 1.975 . S
C676 C167 1.992 . S
C701 C207 0.876 . S
C706 C87 0.832 . S
C731 C131 2.707 . S
C736 C251 2.677 . S
C761 C456 0.389 . S
C766 C162 0.414 . S
C791 C322 1.975 . S
C796 C16 1.992 . S
C821 C416 0.876 . S
C826 C256 0.832 . S
C851 C82 2.677 . S
C856 C362 2.707 . S
C881 C367 0.389 . S
C886 C491 0.415 . S
C911 C411 1.974 . S
C916 C567 1.992 . S
C941 C527 0.832 . S
C946 C327 0.876 . S
C971 C451 2.707 . S
C976 C611 2.650 1_554 S
C1001 C562 0.415 . S
C1006 C136 0.389 . S
C1031 C496 1.992 . S
C1036 C202 1.974 . S
C1061 C56 0.875 . S
C1066 C616 0.832 . S
C1091 C282 2.707 . S
C1096 C522 2.650 1_556 S
C1121 C530 0.857 . S
C1126 C19 0.832 . S
C1151 C459 0.474 . S
C1156 C59 0.855 . S
C1181 C499 0.832 . S
C1186 C90 0.857 . S
C1211 C419 0.856 . S
C1216 C139 0.475 . S
C1241 C170 0.832 . S
C1246 C619 0.857 . S
C1271 C370 0.475 . S
C1276 C210 0.855 . S
C1301 C259 0.857 . S
C1306 C570 0.832 . S
C1331 C290 0.474 . S
C1336 C330 0.855 . S
C1361 C10 1.364 . S
C1366 C179 1.364 . S
C1391 C50 1.718 . S
C1396 C219 1.718 . S
C1421 C250 1.262 . S
C1426 C99 1.262 . S
C1451 C130 1.051 . S
C1456 C299 1.051 . S
C1481 C410 1.718 . S
C1486 C339 1.718 . S
C1511 C450 1.052 . S
C1516 C379 1.052 . S
C1541 C490 1.365 . S
C1546 C579 1.365 . S
C1571 C610 1.261 . S
C1576 C539 1.261 . S
C1601 C7 2.769 . S
C1606 C291 2.823 . S
C1631 C47 0.909 . S
C1636 C171 0.931 . S
C1661 C211 3.577 1_556 S
C1666 C91 3.561 . S
C1691 C247 0.508 . S
C1696 C127 0.518 . S
C1721 C442 2.823 . S
C1726 C176 2.769 . S
C1751 C336 0.909 . S
C1756 C2 0.931 1_655 S
C1781 C402 3.577 1_554 S
C1786 C242 3.561 . S
C1811 C96 0.508 . S
C1816 C376 0.518 . S
C1841 C487 2.769 . S
C1846 C371 2.823 . S
C1871 C571 0.931 . S
C1876 C407 0.910 . S
C1901 C531 3.561 1_655 S
C1906 C331 3.577 . S
C1931 C607 0.507 . S
C1936 C447 0.518 . S
C1961 C576 2.769 . S
C1966 C122 2.823 . S
C1991 C216 0.910 . S
C1996 C482 0.932 . S
C2021 C42 3.577 . S
C2026 C602 3.560 . S
C2051 C536 0.507 . S
C2056 C296 0.518 . S
