# Generated by pormake.
# Topology nfb, (4)-cn, num edge types: 1
# Building blocks:
#     Node 0, Type 0, BuildingBlock: TATPOV_clean_sbu_0, # of connection points: 4
#     Node 1, Type 0, BuildingBlock: TATPOV_clean_sbu_0, # of connection points: 4
#     Node 2, Type 0, BuildingBlock: TATPOV_clean_sbu_0, # of connection points: 4
#     Node 3, Type 0, BuildingBlock: TATPOV_clean_sbu_0, # of connection points: 4
#     Node 4, Type 0, BuildingBlock: TATPOV_clean_sbu_0, # of connection points: 4
#     Node 5, Type 0, BuildingBlock: TATPOV_clean_sbu_0, # of connection points: 4
#     Node 6, Type 0, BuildingBlock: TATPOV_clean_sbu_0, # of connection points: 4
#     Node 7, Type 0, BuildingBlock: TATPOV_clean_sbu_0, # of connection points: 4
#     Node 8, Type 0, BuildingBlock: TATPOV_clean_sbu_0, # of connection points: 4
#     Node 9, Type 0, BuildingBlock: TATPOV_clean_sbu_0, # of connection points: 4
#     Node 10, Type 0, BuildingBlock: TATPOV_clean_sbu_0, # of connection points: 4
#     Node 11, Type 0, BuildingBlock: TATPOV_clean_sbu_0, # of connection points: 4
#     Node 12, Type 0, BuildingBlock: TATPOV_clean_sbu_0, # of connection points: 4
#     Node 13, Type 0, BuildingBlock: TATPOV_clean_sbu_0, # of connection points: 4
#     Node 14, Type 0, BuildingBlock: TATPOV_clean_sbu_0, # of connection points: 4
#     Node 15, Type 0, BuildingBlock: TATPOV_clean_sbu_0, # of connection points: 4
#     Node 16, Type 0, BuildingBlock: TATPOV_clean_sbu_0, # of connection points: 4
#     Node 17, Type 0, BuildingBlock: TATPOV_clean_sbu_0, # of connection points: 4
#     Node 18, Type 0, BuildingBlock: TATPOV_clean_sbu_0, # of connection points: 4
#     Node 19, Type 0, BuildingBlock: TATPOV_clean_sbu_0, # of connection points: 4
#     Node 20, Type 0, BuildingBlock: TATPOV_clean_sbu_0, # of connection points: 4
#     Node 21, Type 0, BuildingBlock: TATPOV_clean_sbu_0, # of connection points: 4
#     Node 22, Type 0, BuildingBlock: TATPOV_clean_sbu_0, # of connection points: 4
#     Node 23, Type 0, BuildingBlock: TATPOV_clean_sbu_0, # of connection points: 4
#     Node 24, Type 0, BuildingBlock: TATPOV_clean_sbu_0, # of connection points: 4
#     Node 25, Type 0, BuildingBlock: TATPOV_clean_sbu_0, # of connection points: 4
#     Node 26, Type 0, BuildingBlock: TATPOV_clean_sbu_0, # of connection points: 4
#     Node 27, Type 0, BuildingBlock: TATPOV_clean_sbu_0, # of connection points: 4
#     Node 28, Type 0, BuildingBlock: TATPOV_clean_sbu_0, # of connection points: 4
#     Node 29, Type 0, BuildingBlock: TATPOV_clean_sbu_0, # of connection points: 4
#     Node 30, Type 0, BuildingBlock: TATPOV_clean_sbu_0, # of connection points: 4
#     Node 31, Type 0, BuildingBlock: TATPOV_clean_sbu_0, # of connection points: 4
#     Node 32, Type 0, BuildingBlock: TATPOV_clean_sbu_0, # of connection points: 4
#     Node 33, Type 0, BuildingBlock: TATPOV_clean_sbu_0, # of connection points: 4
#     Node 34, Type 0, BuildingBlock: TATPOV_clean_sbu_0, # of connection points: 4
#     Node 35, Type 0, BuildingBlock: TATPOV_clean_sbu_0, # of connection points: 4
#     Node 36, Type 0, BuildingBlock: TATPOV_clean_sbu_0, # of connection points: 4
#     Node 37, Type 0, BuildingBlock: TATPOV_clean_sbu_0, # of connection points: 4
#     Node 38, Type 0, BuildingBlock: TATPOV_clean_sbu_0, # of connection points: 4
#     Node 39, Type 0, BuildingBlock: TATPOV_clean_sbu_0, # of connection points: 4
#     Node 40, Type 0, BuildingBlock: TATPOV_clean_sbu_0, # of connection points: 4
#     Node 41, Type 0, BuildingBlock: TATPOV_clean_sbu_0, # of connection points: 4
#     Node 42, Type 0, BuildingBlock: TATPOV_clean_sbu_0, # of connection points: 4
#     Node 43, Type 0, BuildingBlock: TATPOV_clean_sbu_0, # of connection points: 4
#     Node 44, Type 0, BuildingBlock: TATPOV_clean_sbu_0, # of connection points: 4
#     Node 45, Type 0, BuildingBlock: TATPOV_clean_sbu_0, # of connection points: 4
#     Node 46, Type 0, BuildingBlock: TATPOV_clean_sbu_0, # of connection points: 4
#     Node 47, Type 0, BuildingBlock: TATPOV_clean_sbu_0, # of connection points: 4
#     Edge 48, Type (0, 0), BuildingBlock: UVAHIK_clean_linker_0, # of connection points: 2
#     Edge 49, Type (0, 0), BuildingBlock: UVAHIK_clean_linker_0, # of connection points: 2
#     Edge 50, Type (0, 0), BuildingBlock: UVAHIK_clean_linker_0, # of connection points: 2
#     Edge 51, Type (0, 0), BuildingBlock: UVAHIK_clean_linker_0, # of connection points: 2
#     Edge 52, Type (0, 0), BuildingBlock: UVAHIK_clean_linker_0, # of connection points: 2
#     Edge 53, Type (0, 0), BuildingBlock: UVAHIK_clean_linker_0, # of connection points: 2
#     Edge 54, Type (0, 0), BuildingBlock: UVAHIK_clean_linker_0, # of connection points: 2
#     Edge 55, Type (0, 0), BuildingBlock: UVAHIK_clean_linker_0, # of connection points: 2
#     Edge 56, Type (0, 0), BuildingBlock: UVAHIK_clean_linker_0, # of connection points: 2
#     Edge 57, Type (0, 0), BuildingBlock: UVAHIK_clean_linker_0, # of connection points: 2
#     Edge 58, Type (0, 0), BuildingBlock: UVAHIK_clean_linker_0, # of connection points: 2
#     Edge 59, Type (0, 0), BuildingBlock: UVAHIK_clean_linker_0, # of connection points: 2
#     Edge 60, Type (0, 0), BuildingBlock: UVAHIK_clean_linker_0, # of connection points: 2
#     Edge 61, Type (0, 0), BuildingBlock: UVAHIK_clean_linker_0, # of connection points: 2
#     Edge 62, Type (0, 0), BuildingBlock: UVAHIK_clean_linker_0, # of connection points: 2
#     Edge 63, Type (0, 0), BuildingBlock: UVAHIK_clean_linker_0, # of connection points: 2
#     Edge 64, Type (0, 0), BuildingBlock: UVAHIK_clean_linker_0, # of connection points: 2
#     Edge 65, Type (0, 0), BuildingBlock: UVAHIK_clean_linker_0, # of connection points: 2
#     Edge 66, Type (0, 0), BuildingBlock: UVAHIK_clean_linker_0, # of connection points: 2
#     Edge 67, Type (0, 0), BuildingBlock: UVAHIK_clean_linker_0, # of connection points: 2
#     Edge 68, Type (0, 0), BuildingBlock: UVAHIK_clean_linker_0, # of connection points: 2
#     Edge 69, Type (0, 0), BuildingBlock: UVAHIK_clean_linker_0, # of connection points: 2
#     Edge 70, Type (0, 0), BuildingBlock: UVAHIK_clean_linker_0, # of connection points: 2
#     Edge 71, Type (0, 0), BuildingBlock: UVAHIK_clean_linker_0, # of connection points: 2
#     Edge 72, Type (0, 0), BuildingBlock: UVAHIK_clean_linker_0, # of connection points: 2
#     Edge 73, Type (0, 0), BuildingBlock: UVAHIK_clean_linker_0, # of connection points: 2
#     Edge 74, Type (0, 0), BuildingBlock: UVAHIK_clean_linker_0, # of connection points: 2
#     Edge 75, Type (0, 0), BuildingBlock: UVAHIK_clean_linker_0, # of connection points: 2
#     Edge 76, Type (0, 0), BuildingBlock: UVAHIK_clean_linker_0, # of connection points: 2
#     Edge 77, Type (0, 0), BuildingBlock: UVAHIK_clean_linker_0, # of connection points: 2
#     Edge 78, Type (0, 0), BuildingBlock: UVAHIK_clean_linker_0, # of connection points: 2
#     Edge 79, Type (0, 0), BuildingBlock: UVAHIK_clean_linker_0, # of connection points: 2
#     Edge 80, Type (0, 0), BuildingBlock: UVAHIK_clean_linker_0, # of connection points: 2
#     Edge 81, Type (0, 0), BuildingBlock: UVAHIK_clean_linker_0, # of connection points: 2
#     Edge 82, Type (0, 0), BuildingBlock: UVAHIK_clean_linker_0, # of connection points: 2
#     Edge 83, Type (0, 0), BuildingBlock: UVAHIK_clean_linker_0, # of connection points: 2
#     Edge 84, Type (0, 0), BuildingBlock: UVAHIK_clean_linker_0, # of connection points: 2
#     Edge 85, Type (0, 0), BuildingBlock: UVAHIK_clean_linker_0, # of connection points: 2
#     Edge 86, Type (0, 0), BuildingBlock: UVAHIK_clean_linker_0, # of connection points: 2
#     Edge 87, Type (0, 0), BuildingBlock: UVAHIK_clean_linker_0, # of connection points: 2
#     Edge 88, Type (0, 0), BuildingBlock: UVAHIK_clean_linker_0, # of connection points: 2
#     Edge 89, Type (0, 0), BuildingBlock: UVAHIK_clean_linker_0, # of connection points: 2
#     Edge 90, Type (0, 0), BuildingBlock: UVAHIK_clean_linker_0, # of connection points: 2
#     Edge 91, Type (0, 0), BuildingBlock: UVAHIK_clean_linker_0, # of connection points: 2
#     Edge 92, Type (0, 0), BuildingBlock: UVAHIK_clean_linker_0, # of connection points: 2
#     Edge 93, Type (0, 0), BuildingBlock: UVAHIK_clean_linker_0, # of connection points: 2
#     Edge 94, Type (0, 0), BuildingBlock: UVAHIK_clean_linker_0, # of connection points: 2
#     Edge 95, Type (0, 0), BuildingBlock: UVAHIK_clean_linker_0, # of connection points: 2
#     Edge 96, Type (0, 0), BuildingBlock: UVAHIK_clean_linker_0, # of connection points: 2
#     Edge 97, Type (0, 0), BuildingBlock: UVAHIK_clean_linker_0, # of connection points: 2
#     Edge 98, Type (0, 0), BuildingBlock: UVAHIK_clean_linker_0, # of connection points: 2
#     Edge 99, Type (0, 0), BuildingBlock: UVAHIK_clean_linker_0, # of connection points: 2
#     Edge 100, Type (0, 0), BuildingBlock: UVAHIK_clean_linker_0, # of connection points: 2
#     Edge 101, Type (0, 0), BuildingBlock: UVAHIK_clean_linker_0, # of connection points: 2
#     Edge 102, Type (0, 0), BuildingBlock: UVAHIK_clean_linker_0, # of connection points: 2
#     Edge 103, Type (0, 0), BuildingBlock: UVAHIK_clean_linker_0, # of connection points: 2
#     Edge 104, Type (0, 0), BuildingBlock: UVAHIK_clean_linker_0, # of connection points: 2
#     Edge 105, Type (0, 0), BuildingBlock: UVAHIK_clean_linker_0, # of connection points: 2
#     Edge 106, Type (0, 0), BuildingBlock: UVAHIK_clean_linker_0, # of connection points: 2
#     Edge 107, Type (0, 0), BuildingBlock: UVAHIK_clean_linker_0, # of connection points: 2
#     Edge 108, Type (0, 0), BuildingBlock: UVAHIK_clean_linker_0, # of connection points: 2
#     Edge 109, Type (0, 0), BuildingBlock: UVAHIK_clean_linker_0, # of connection points: 2
#     Edge 110, Type (0, 0), BuildingBlock: UVAHIK_clean_linker_0, # of connection points: 2
#     Edge 111, Type (0, 0), BuildingBlock: UVAHIK_clean_linker_0, # of connection points: 2
#     Edge 112, Type (0, 0), BuildingBlock: UVAHIK_clean_linker_0, # of connection points: 2
#     Edge 113, Type (0, 0), BuildingBlock: UVAHIK_clean_linker_0, # of connection points: 2
#     Edge 114, Type (0, 0), BuildingBlock: UVAHIK_clean_linker_0, # of connection points: 2
#     Edge 115, Type (0, 0), BuildingBlock: UVAHIK_clean_linker_0, # of connection points: 2
#     Edge 116, Type (0, 0), BuildingBlock: UVAHIK_clean_linker_0, # of connection points: 2
#     Edge 117, Type (0, 0), BuildingBlock: UVAHIK_clean_linker_0, # of connection points: 2
#     Edge 118, Type (0, 0), BuildingBlock: UVAHIK_clean_linker_0, # of connection points: 2
#     Edge 119, Type (0, 0), BuildingBlock: UVAHIK_clean_linker_0, # of connection points: 2
#     Edge 120, Type (0, 0), BuildingBlock: UVAHIK_clean_linker_0, # of connection points: 2
#     Edge 121, Type (0, 0), BuildingBlock: UVAHIK_clean_linker_0, # of connection points: 2
#     Edge 122, Type (0, 0), BuildingBlock: UVAHIK_clean_linker_0, # of connection points: 2
#     Edge 123, Type (0, 0), BuildingBlock: UVAHIK_clean_linker_0, # of connection points: 2
#     Edge 124, Type (0, 0), BuildingBlock: UVAHIK_clean_linker_0, # of connection points: 2
#     Edge 125, Type (0, 0), BuildingBlock: UVAHIK_clean_linker_0, # of connection points: 2
#     Edge 126, Type (0, 0), BuildingBlock: UVAHIK_clean_linker_0, # of connection points: 2
#     Edge 127, Type (0, 0), BuildingBlock: UVAHIK_clean_linker_0, # of connection points: 2
#     Edge 128, Type (0, 0), BuildingBlock: UVAHIK_clean_linker_0, # of connection points: 2
#     Edge 129, Type (0, 0), BuildingBlock: UVAHIK_clean_linker_0, # of connection points: 2
#     Edge 130, Type (0, 0), BuildingBlock: UVAHIK_clean_linker_0, # of connection points: 2
#     Edge 131, Type (0, 0), BuildingBlock: UVAHIK_clean_linker_0, # of connection points: 2
#     Edge 132, Type (0, 0), BuildingBlock: UVAHIK_clean_linker_0, # of connection points: 2
#     Edge 133, Type (0, 0), BuildingBlock: UVAHIK_clean_linker_0, # of connection points: 2
#     Edge 134, Type (0, 0), BuildingBlock: UVAHIK_clean_linker_0, # of connection points: 2
#     Edge 135, Type (0, 0), BuildingBlock: UVAHIK_clean_linker_0, # of connection points: 2
#     Edge 136, Type (0, 0), BuildingBlock: UVAHIK_clean_linker_0, # of connection points: 2
#     Edge 137, Type (0, 0), BuildingBlock: UVAHIK_clean_linker_0, # of connection points: 2
#     Edge 138, Type (0, 0), BuildingBlock: UVAHIK_clean_linker_0, # of connection points: 2
#     Edge 139, Type (0, 0), BuildingBlock: UVAHIK_clean_linker_0, # of connection points: 2
#     Edge 140, Type (0, 0), BuildingBlock: UVAHIK_clean_linker_0, # of connection points: 2
#     Edge 141, Type (0, 0), BuildingBlock: UVAHIK_clean_linker_0, # of connection points: 2
#     Edge 142, Type (0, 0), BuildingBlock: UVAHIK_clean_linker_0, # of connection points: 2
#     Edge 143, Type (0, 0), BuildingBlock: UVAHIK_clean_linker_0, # of connection points: 2
# Relax obj value: 0.381
# Max RMSD: 0.219
# Mean RMSD: 0.178
data_MOF--net-nfb--node1-TATPOV_clean_sbu_0--edge1-UVAHIK_clean_linker_0
_symmetry_space_group_name_H-M    P1
_symmetry_Int_Tables_number       1
_symmetry_cell_setting            triclinic
loop_
_symmetry_equiv_pos_as_xyz
'x, y, z'
_cell_length_a     75.272048
_cell_length_b     74.077996
_cell_length_c     74.086317
_cell_angle_alpha  90.002652
_cell_angle_beta   89.997968
_cell_angle_gamma 89.483171
loop_
_atom_site_label
_atom_site_type_symbol
_atom_site_fract_x
_atom_site_fract_y
_atom_site_fract_z
_atom_type_partial_charge
Zn0 Zn 0.12949 0.13862 0.33694 0.0
Zn1 Zn 0.12423 0.13331 0.37267 0.0
O2 O 0.10338 0.12032 0.36069 0.0
O3 O 0.1072 0.12359 0.33147 0.0
O4 O 0.12106 0.12785 0.39889 0.0
O5 O 0.1551 0.12869 0.33954 0.0
O6 O 0.15006 0.12565 0.36857 0.0
C7 C 0.09801 0.11781 0.34459 0.0
C8 C 0.123 0.17143 0.35818 0.0
O9 O 0.12184 0.16049 0.37136 0.0
O10 O 0.12593 0.16556 0.34235 0.0
C11 C 0.10607 0.12828 0.40675 0.0
O12 O 0.09176 0.1325 0.39745 0.0
C13 C 0.16071 0.12486 0.35525 0.0
Zn14 Zn 0.42168 0.61375 0.86921 0.0
Zn15 Zn 0.38679 0.60757 0.87658 0.0
O16 O 0.38718 0.63434 0.87013 0.0
O17 O 0.41498 0.6403 0.86351 0.0
O18 O 0.36096 0.60348 0.88109 0.0
O19 O 0.42099 0.59233 0.85129 0.0
O20 O 0.39287 0.58823 0.85802 0.0
C21 C 0.39904 0.64564 0.8657 0.0
C22 C 0.41428 0.60339 0.9064 0.0
O23 O 0.39835 0.60265 0.90075 0.0
O24 O 0.42671 0.60782 0.89576 0.0
C25 C 0.35301 0.61206 0.89359 0.0
O26 O 0.36207 0.62328 0.9037 0.0
C27 C 0.4068 0.58336 0.84952 0.0
Zn28 Zn 0.87727 0.86613 0.33738 0.0
Zn29 Zn 0.88211 0.87019 0.3733 0.0
O30 O 0.90346 0.8829 0.36197 0.0
O31 O 0.89989 0.88088 0.33262 0.0
O32 O 0.88566 0.8747 0.39967 0.0
O33 O 0.85186 0.87641 0.34022 0.0
O34 O 0.85651 0.87886 0.36939 0.0
C35 C 0.90907 0.88591 0.34605 0.0
C36 C 0.88243 0.83248 0.35739 0.0
O37 O 0.88353 0.84295 0.37094 0.0
O38 O 0.8801 0.83895 0.34169 0.0
C39 C 0.89712 0.86587 0.40874 0.0
O40 O 0.90692 0.85355 0.40063 0.0
C41 C 0.84609 0.88009 0.35591 0.0
Zn42 Zn 0.58118 0.38746 0.86982 0.0
Zn43 Zn 0.61589 0.39264 0.87923 0.0
O44 O 0.61564 0.36623 0.87172 0.0
O45 O 0.58799 0.36086 0.864 0.0
O46 O 0.64148 0.39682 0.88465 0.0
O47 O 0.58309 0.40922 0.85213 0.0
O48 O 0.61059 0.41258 0.86135 0.0
C49 C 0.6038 0.35526 0.86653 0.0
C50 C 0.58729 0.39665 0.90777 0.0
O51 O 0.6035 0.39687 0.90294 0.0
O52 O 0.57521 0.39306 0.8964 0.0
C53 C 0.65009 0.38691 0.89563 0.0
O54 O 0.64189 0.37373 0.90396 0.0
C55 C 0.59749 0.41803 0.85193 0.0
Zn56 Zn 0.12894 0.90992 0.63506 0.0
Zn57 Zn 0.12571 0.87342 0.63141 0.0
O58 O 0.15093 0.87685 0.64039 0.0
O59 O 0.15476 0.90594 0.64422 0.0
O60 O 0.12548 0.84666 0.62869 0.0
O61 O 0.10606 0.90887 0.6507 0.0
O62 O 0.10453 0.87938 0.64748 0.0
C63 C 0.16094 0.88994 0.64452 0.0
C64 C 0.12289 0.89765 0.59827 0.0
O65 O 0.12242 0.88225 0.60584 0.0
O66 O 0.12563 0.91173 0.60759 0.0
C67 C 0.11363 0.83761 0.62064 0.0
O68 O 0.09958 0.84591 0.61403 0.0
C69 C 0.09807 0.8941 0.65359 0.0
Zn70 Zn 0.59164 0.62071 0.13425 0.0
Zn71 Zn 0.62654 0.61253 0.12924 0.0
O72 O 0.62602 0.63967 0.13474 0.0
O73 O 0.59821 0.64677 0.14063 0.0
O74 O 0.65261 0.60747 0.12666 0.0
O75 O 0.5902 0.59947 0.15215 0.0
O76 O 0.61859 0.59382 0.14771 0.0
C77 C 0.61426 0.65148 0.13869 0.0
C78 C 0.60118 0.60943 0.09772 0.0
O79 O 0.6166 0.60722 0.10444 0.0
O80 O 0.58847 0.61537 0.10735 0.0
C81 C 0.66158 0.61641 0.11528 0.0
O82 O 0.65345 0.62856 0.10525 0.0
C83 C 0.60389 0.58979 0.15513 0.0
Zn84 Zn 0.87604 0.09215 0.63475 0.0
Zn85 Zn 0.87808 0.12914 0.63356 0.0
O86 O 0.85345 0.12474 0.64356 0.0
O87 O 0.85009 0.09534 0.64407 0.0
O88 O 0.87794 0.15604 0.63139 0.0
O89 O 0.89899 0.09315 0.65033 0.0
O90 O 0.89994 0.12279 0.64848 0.0
C91 C 0.84369 0.11112 0.64627 0.0
C92 C 0.88032 0.10676 0.59885 0.0
O93 O 0.88008 0.12154 0.60755 0.0
O94 O 0.87916 0.09185 0.60718 0.0
C95 C 0.86485 0.16258 0.62265 0.0
O96 O 0.85305 0.15155 0.61581 0.0
C97 C 0.90678 0.10792 0.65375 0.0
Zn98 Zn 0.41089 0.38299 0.13303 0.0
Zn99 Zn 0.37538 0.38975 0.13039 0.0
O100 O 0.37692 0.36281 0.13631 0.0
O101 O 0.40537 0.35655 0.13922 0.0
O102 O 0.34908 0.39401 0.129 0.0
O103 O 0.41254 0.40393 0.15122 0.0
O104 O 0.38387 0.40899 0.14808 0.0
C105 C 0.38935 0.35136 0.13896 0.0
C106 C 0.39883 0.39372 0.09723 0.0
O107 O 0.38375 0.39466 0.10493 0.0
O108 O 0.41253 0.3891 0.10614 0.0
C109 C 0.34023 0.38509 0.1175 0.0
O110 O 0.34864 0.37364 0.1069 0.0
C111 C 0.39881 0.41334 0.1548 0.0
Zn112 Zn 0.3329 0.13333 0.1133 0.0
Zn113 Zn 0.36833 0.12821 0.10935 0.0
O114 O 0.35736 0.10726 0.09543 0.0
O115 O 0.32844 0.11067 0.09787 0.0
O116 O 0.39429 0.12529 0.10411 0.0
O117 O 0.33501 0.1593 0.10386 0.0
O118 O 0.36386 0.15466 0.10269 0.0
C119 C 0.34174 0.10164 0.09226 0.0
C120 C 0.35287 0.12682 0.14681 0.0
O121 O 0.36623 0.1251 0.13642 0.0
O122 O 0.33759 0.13029 0.14036 0.0
C123 C 0.40371 0.11291 0.11125 0.0
O124 O 0.39631 0.10155 0.12254 0.0
C125 C 0.35055 0.16531 0.10136 0.0
Zn126 Zn 0.37952 0.86983 0.59682 0.0
Zn127 Zn 0.38412 0.87497 0.63312 0.0
O128 O 0.35869 0.86619 0.63072 0.0
O129 O 0.35384 0.86132 0.60192 0.0
O130 O 0.38577 0.87884 0.65983 0.0
O131 O 0.40221 0.85378 0.59778 0.0
O132 O 0.40494 0.8583 0.62701 0.0
C133 C 0.34819 0.86177 0.61807 0.0
C134 C 0.38617 0.907 0.60736 0.0
O135 O 0.38714 0.90007 0.62304 0.0
O136 O 0.38294 0.89713 0.59377 0.0
C137 C 0.37349 0.88838 0.66689 0.0
O138 O 0.36118 0.89546 0.65643 0.0
C139 C 0.41075 0.8514 0.61239 0.0
Zn140 Zn 0.67108 0.86947 0.11253 0.0
Zn141 Zn 0.63524 0.87461 0.11148 0.0
O142 O 0.64461 0.89559 0.09636 0.0
O143 O 0.67367 0.89244 0.09706 0.0
O144 O 0.60869 0.87669 0.10997 0.0
O145 O 0.66818 0.84367 0.10284 0.0
O146 O 0.63934 0.84828 0.10415 0.0
C147 C 0.65998 0.90133 0.09224 0.0
C148 C 0.65411 0.87577 0.14751 0.0
O149 O 0.64008 0.87777 0.13813 0.0
O150 O 0.66882 0.87203 0.13996 0.0
C151 C 0.59986 0.89108 0.10697 0.0
O152 O 0.60828 0.90631 0.10437 0.0
C153 C 0.65249 0.83768 0.10153 0.0
Zn154 Zn 0.62538 0.13132 0.59659 0.0
Zn155 Zn 0.62062 0.12625 0.63267 0.0
O156 O 0.64615 0.13457 0.63003 0.0
O157 O 0.65116 0.13972 0.60132 0.0
O158 O 0.61966 0.12325 0.65941 0.0
O159 O 0.60283 0.14758 0.59735 0.0
O160 O 0.59963 0.14271 0.62646 0.0
C161 C 0.65675 0.13902 0.61747 0.0
C162 C 0.61839 0.09411 0.60741 0.0
O163 O 0.61739 0.101 0.62311 0.0
O164 O 0.62175 0.10398 0.59385 0.0
C165 C 0.60735 0.11617 0.66864 0.0
O166 O 0.59295 0.11041 0.66054 0.0
C167 C 0.594 0.14972 0.61182 0.0
Zn168 Zn 0.33766 0.86543 0.89206 0.0
Zn169 Zn 0.3731 0.87052 0.89529 0.0
O170 O 0.36211 0.89046 0.91101 0.0
O171 O 0.33327 0.8862 0.90996 0.0
O172 O 0.39928 0.87376 0.89869 0.0
O173 O 0.34127 0.83859 0.8986 0.0
O174 O 0.3699 0.84365 0.90068 0.0
C175 C 0.34642 0.89534 0.91537 0.0
C176 C 0.35571 0.8759 0.85881 0.0
O177 O 0.36951 0.87559 0.86871 0.0
O178 O 0.3406 0.87236 0.86547 0.0
C179 C 0.40974 0.86341 0.88998 0.0
O180 O 0.40302 0.85117 0.87918 0.0
C181 C 0.35697 0.83269 0.90099 0.0
Zn182 Zn 0.63042 0.83027 0.37166 0.0
Zn183 Zn 0.6239 0.86653 0.37267 0.0
O184 O 0.60276 0.85593 0.38615 0.0
O185 O 0.60688 0.82653 0.38555 0.0
O186 O 0.61943 0.89323 0.37459 0.0
O187 O 0.65498 0.83485 0.38297 0.0
O188 O 0.64941 0.86401 0.38201 0.0
C189 C 0.59737 0.84012 0.38981 0.0
C190 C 0.62609 0.84723 0.33646 0.0
O191 O 0.62322 0.86132 0.34585 0.0
O192 O 0.6296 0.83228 0.34408 0.0
C193 C 0.61149 0.90222 0.36236 0.0
O194 O 0.6056 0.89391 0.34792 0.0
C195 C 0.66016 0.85099 0.38503 0.0
Zn196 Zn 0.6633 0.13444 0.88872 0.0
Zn197 Zn 0.62823 0.12987 0.8957 0.0
O198 O 0.64003 0.11043 0.91129 0.0
O199 O 0.66866 0.1137 0.90654 0.0
O200 O 0.6023 0.12742 0.90099 0.0
O201 O 0.66078 0.16141 0.89525 0.0
O202 O 0.63235 0.15683 0.89981 0.0
C203 C 0.65599 0.10522 0.91391 0.0
C204 C 0.64207 0.12324 0.85778 0.0
O205 O 0.62949 0.12347 0.86923 0.0
O206 O 0.65769 0.12745 0.86254 0.0
C207 C 0.59184 0.13775 0.89227 0.0
O208 O 0.59854 0.14933 0.88074 0.0
C209 C 0.6454 0.16758 0.89881 0.0
Zn210 Zn 0.37787 0.16972 0.37085 0.0
Zn211 Zn 0.38411 0.13361 0.37185 0.0
O212 O 0.40507 0.14353 0.38616 0.0
O213 O 0.40112 0.17297 0.38536 0.0
O214 O 0.38698 0.10679 0.37358 0.0
O215 O 0.35289 0.16611 0.38162 0.0
O216 O 0.35837 0.13699 0.38015 0.0
C217 C 0.41044 0.15934 0.38994 0.0
C218 C 0.3835 0.1525 0.3357 0.0
O219 O 0.38634 0.13841 0.34509 0.0
O220 O 0.37942 0.16733 0.3433 0.0
C221 C 0.37571 0.09744 0.36499 0.0
O222 O 0.36347 0.10577 0.35538 0.0
C223 C 0.34758 0.14997 0.38317 0.0
Zn224 Zn 0.07875 0.3775 0.1189 0.0
Zn225 Zn 0.11416 0.38152 0.11273 0.0
O226 O 0.11265 0.37549 0.13959 0.0
O227 O 0.08434 0.37156 0.14548 0.0
O228 O 0.14043 0.38338 0.1089 0.0
O229 O 0.07803 0.35922 0.09795 0.0
O230 O 0.10654 0.36354 0.0934 0.0
C231 C 0.10032 0.37236 0.15088 0.0
C232 C 0.08936 0.41374 0.10809 0.0
O233 O 0.10483 0.40669 0.10755 0.0
O234 O 0.07608 0.40427 0.11251 0.0
C235 C 0.1494 0.3941 0.11862 0.0
O236 O 0.14114 0.40408 0.1307 0.0
C237 C 0.092 0.35621 0.08878 0.0
Zn238 Zn 0.0946 0.64214 0.88314 0.0
Zn239 Zn 0.12908 0.63367 0.89031 0.0
O240 O 0.12959 0.64038 0.86354 0.0
O241 O 0.10201 0.64772 0.85686 0.0
O242 O 0.15466 0.62859 0.89567 0.0
O243 O 0.09488 0.65998 0.90463 0.0
O244 O 0.12263 0.65209 0.90973 0.0
C245 C 0.118 0.64515 0.85195 0.0
C246 C 0.10102 0.60461 0.89332 0.0
O247 O 0.11708 0.6097 0.89445 0.0
O248 O 0.08891 0.61576 0.88881 0.0
C249 C 0.16328 0.61666 0.88691 0.0
O250 O 0.15514 0.60738 0.87432 0.0
C251 C 0.10882 0.66105 0.9142 0.0
Zn252 Zn 0.84486 0.60726 0.36719 0.0
Zn253 Zn 0.88056 0.60411 0.37162 0.0
O254 O 0.87043 0.58867 0.39206 0.0
O255 O 0.84143 0.59022 0.38878 0.0
O256 O 0.90695 0.60106 0.37382 0.0
O257 O 0.84759 0.5993 0.34072 0.0
O258 O 0.87644 0.59781 0.3451 0.0
C259 C 0.85492 0.58463 0.39749 0.0
C260 C 0.86308 0.64095 0.37541 0.0
O261 O 0.87685 0.63087 0.37575 0.0
O262 O 0.84794 0.63423 0.37226 0.0
C263 C 0.91521 0.59947 0.3887 0.0
O264 O 0.90622 0.59948 0.4039 0.0
C265 C 0.86314 0.59683 0.33454 0.0
Zn266 Zn 0.90851 0.36021 0.88702 0.0
Zn267 Zn 0.8734 0.36809 0.89289 0.0
O268 O 0.87383 0.361 0.86637 0.0
O269 O 0.90176 0.35437 0.86049 0.0
O270 O 0.84763 0.37276 0.8974 0.0
O271 O 0.90761 0.34247 0.90881 0.0
O272 O 0.87969 0.35037 0.91272 0.0
C273 C 0.88584 0.35647 0.85514 0.0
C274 C 0.90068 0.39781 0.8963 0.0
O275 O 0.88478 0.3922 0.89697 0.0
O276 O 0.91331 0.38701 0.89242 0.0
C277 C 0.83968 0.386 0.88998 0.0
O278 O 0.84863 0.39678 0.87931 0.0
C279 C 0.89334 0.34159 0.91791 0.0
Zn280 Zn 0.15827 0.39589 0.37019 0.0
Zn281 Zn 0.12259 0.39978 0.37484 0.0
O282 O 0.13289 0.41482 0.39544 0.0
O283 O 0.16185 0.41272 0.39199 0.0
O284 O 0.09624 0.40258 0.37765 0.0
O285 O 0.15523 0.40402 0.34377 0.0
O286 O 0.12648 0.40651 0.34841 0.0
C287 C 0.14851 0.41848 0.40083 0.0
C288 C 0.13971 0.36253 0.3781 0.0
O289 O 0.12621 0.37296 0.37853 0.0
O290 O 0.15502 0.36889 0.37506 0.0
C291 C 0.08666 0.39358 0.36685 0.0
O292 O 0.09443 0.38341 0.35459 0.0
C293 C 0.13971 0.40707 0.33774 0.0
Zn294 Zn 0.92247 0.62484 0.11545 0.0
Zn295 Zn 0.88701 0.62115 0.10899 0.0
O296 O 0.88867 0.62685 0.13594 0.0
O297 O 0.91684 0.63175 0.14174 0.0
O298 O 0.86073 0.61915 0.10537 0.0
O299 O 0.92326 0.64236 0.09377 0.0
O300 O 0.89441 0.63961 0.09012 0.0
C301 C 0.90091 0.63051 0.14717 0.0
C302 C 0.91159 0.58871 0.10487 0.0
O303 O 0.89634 0.59607 0.1032 0.0
O304 O 0.92474 0.59779 0.11033 0.0
C305 C 0.85221 0.60768 0.11463 0.0
O306 O 0.86095 0.59726 0.12599 0.0
C307 C 0.90916 0.64622 0.08514 0.0
Zn308 Zn 0.82501 0.38823 0.63672 0.0
Zn309 Zn 0.86075 0.39059 0.632 0.0
O310 O 0.85037 0.4062 0.61171 0.0
O311 O 0.82142 0.40595 0.61556 0.0
O312 O 0.88713 0.39286 0.62937 0.0
O313 O 0.82839 0.39484 0.66358 0.0
O314 O 0.85714 0.39625 0.65873 0.0
C315 C 0.83487 0.41087 0.60653 0.0
C316 C 0.84285 0.35448 0.62694 0.0
O317 O 0.85673 0.36413 0.62727 0.0
O318 O 0.82773 0.36147 0.6302 0.0
C319 C 0.89502 0.4063 0.62249 0.0
O320 O 0.88565 0.41995 0.6162 0.0
C321 C 0.84404 0.39689 0.66959 0.0
Zn322 Zn 0.17609 0.6189 0.63186 0.0
Zn323 Zn 0.14122 0.61117 0.62766 0.0
O324 O 0.15322 0.59606 0.60795 0.0
O325 O 0.18175 0.60139 0.61095 0.0
O326 O 0.11548 0.60492 0.62554 0.0
O327 O 0.17449 0.61232 0.65885 0.0
O328 O 0.14607 0.60739 0.65461 0.0
C329 C 0.16914 0.59385 0.60252 0.0
C330 C 0.15356 0.64937 0.62102 0.0
O331 O 0.14132 0.63767 0.62129 0.0
O332 O 0.16939 0.64492 0.62507 0.0
C333 C 0.10478 0.61307 0.63607 0.0
O334 O 0.11108 0.62481 0.64766 0.0
C335 C 0.1593 0.60863 0.66523 0.0
Zn336 Zn 0.87949 0.9 0.636 0.0
Zn337 Zn 0.88433 0.8635 0.63612 0.0
O338 O 0.90484 0.87157 0.65209 0.0
O339 O 0.90194 0.90117 0.65213 0.0
O340 O 0.88569 0.83656 0.63577 0.0
O341 O 0.85369 0.89655 0.64488 0.0
O342 O 0.85851 0.86731 0.64363 0.0
C343 C 0.91055 0.88705 0.65666 0.0
C344 C 0.88769 0.88447 0.60093 0.0
O345 O 0.8886 0.86993 0.61001 0.0
O346 O 0.8836 0.89924 0.60862 0.0
C347 C 0.89753 0.82766 0.62729 0.0
O348 O 0.91051 0.83631 0.6193 0.0
C349 C 0.84796 0.88055 0.64628 0.0
Zn350 Zn 0.58148 0.37347 0.13355 0.0
Zn351 Zn 0.61644 0.3795 0.12597 0.0
O352 O 0.61042 0.39845 0.14504 0.0
O353 O 0.58243 0.39412 0.1522 0.0
O354 O 0.6427 0.38271 0.12251 0.0
O355 O 0.58748 0.34673 0.13854 0.0
O356 O 0.61522 0.35255 0.13161 0.0
C357 C 0.59664 0.40306 0.15393 0.0
C358 C 0.58882 0.38529 0.09662 0.0
O359 O 0.60489 0.38556 0.10196 0.0
O360 O 0.57653 0.38054 0.10731 0.0
C361 C 0.65033 0.39077 0.10955 0.0
O362 O 0.64071 0.39819 0.0967 0.0
C363 C 0.60331 0.34129 0.13597 0.0
Zn364 Zn 0.12475 0.09988 0.63439 0.0
Zn365 Zn 0.12064 0.13634 0.63285 0.0
O366 O 0.09998 0.12901 0.64913 0.0
O367 O 0.10291 0.0995 0.65122 0.0
O368 O 0.11942 0.16327 0.63168 0.0
O369 O 0.15084 0.10333 0.64228 0.0
O370 O 0.14643 0.13262 0.6406 0.0
C371 C 0.09432 0.11389 0.65483 0.0
C372 C 0.11641 0.1139 0.5987 0.0
O373 O 0.11645 0.12897 0.60691 0.0
O374 O 0.11963 0.09939 0.60725 0.0
C375 C 0.10716 0.17213 0.6238 0.0
O376 O 0.09369 0.16347 0.61671 0.0
C377 C 0.15681 0.11926 0.64336 0.0
Zn378 Zn 0.4198 0.62956 0.13231 0.0
Zn379 Zn 0.38475 0.62321 0.12551 0.0
O380 O 0.39125 0.60453 0.14465 0.0
O381 O 0.41934 0.60909 0.1512 0.0
O382 O 0.35861 0.61928 0.12218 0.0
O383 O 0.41348 0.65629 0.13705 0.0
O384 O 0.38559 0.65023 0.13093 0.0
C385 C 0.40522 0.60008 0.1533 0.0
C386 C 0.41195 0.61733 0.09571 0.0
O387 O 0.396 0.61713 0.10139 0.0
O388 O 0.42445 0.62217 0.10608 0.0
C389 C 0.35169 0.60874 0.11067 0.0
O390 O 0.36199 0.59944 0.09972 0.0
C391 C 0.39755 0.66161 0.13486 0.0
Zn392 Zn 0.87722 0.13218 0.33375 0.0
Zn393 Zn 0.88282 0.12786 0.36957 0.0
O394 O 0.85727 0.11962 0.36536 0.0
O395 O 0.85246 0.1208 0.33615 0.0
O396 O 0.88586 0.12276 0.39592 0.0
O397 O 0.90088 0.11863 0.32891 0.0
O398 O 0.90436 0.11532 0.35817 0.0
C399 C 0.84683 0.11773 0.352 0.0
C400 C 0.88128 0.16566 0.35442 0.0
O401 O 0.88417 0.15508 0.36764 0.0
O402 O 0.8779 0.15935 0.33888 0.0
C403 C 0.87729 0.13237 0.40719 0.0
O404 O 0.8671 0.14559 0.40125 0.0
C405 C 0.91015 0.11314 0.34217 0.0
Zn406 Zn 0.40879 0.36568 0.87003 0.0
Zn407 Zn 0.3733 0.3725 0.87218 0.0
O408 O 0.38197 0.39167 0.85444 0.0
O409 O 0.41062 0.38637 0.85156 0.0
O410 O 0.34696 0.37664 0.8732 0.0
O411 O 0.40337 0.33911 0.86423 0.0
O412 O 0.37489 0.34545 0.86657 0.0
C413 C 0.397 0.3959 0.84786 0.0
C414 C 0.39652 0.37752 0.90538 0.0
O415 O 0.38146 0.37801 0.8976 0.0
O416 O 0.41029 0.37264 0.89672 0.0
C417 C 0.33993 0.38982 0.88163 0.0
O418 O 0.3502 0.40161 0.88966 0.0
C419 C 0.38734 0.33394 0.86424 0.0
Zn420 Zn 0.12913 0.86815 0.33515 0.0
Zn421 Zn 0.12474 0.87245 0.37104 0.0
O422 O 0.15039 0.88065 0.36669 0.0
O423 O 0.15432 0.87834 0.33737 0.0
O424 O 0.12165 0.87642 0.39753 0.0
O425 O 0.10605 0.88272 0.33084 0.0
O426 O 0.10314 0.88554 0.36022 0.0
C427 C 0.16047 0.88179 0.35294 0.0
C428 C 0.12467 0.83471 0.35526 0.0
O429 O 0.12302 0.84527 0.3687 0.0
O430 O 0.12735 0.84102 0.33958 0.0
C431 C 0.1233 0.89191 0.40464 0.0
O432 O 0.12695 0.90581 0.39431 0.0
C433 C 0.09714 0.88817 0.34436 0.0
Zn434 Zn 0.59098 0.63619 0.87128 0.0
Zn435 Zn 0.62649 0.62931 0.87258 0.0
O436 O 0.61717 0.61031 0.85477 0.0
O437 O 0.58845 0.61588 0.85276 0.0
O438 O 0.65285 0.62483 0.87281 0.0
O439 O 0.59655 0.66283 0.86589 0.0
O440 O 0.62508 0.65634 0.86699 0.0
C441 C 0.60191 0.60634 0.84856 0.0
C442 C 0.60375 0.62419 0.90621 0.0
O443 O 0.61881 0.62425 0.8984 0.0
O444 O 0.58977 0.62845 0.89761 0.0
C445 C 0.66023 0.61272 0.88246 0.0
O446 O 0.65034 0.60225 0.89256 0.0
C447 C 0.6126 0.66792 0.86531 0.0
Zn448 Zn 0.6702 0.88734 0.89054 0.0
Zn449 Zn 0.63454 0.89075 0.89597 0.0
O450 O 0.64022 0.86435 0.90166 0.0
O451 O 0.66889 0.86045 0.89759 0.0
O452 O 0.60816 0.89154 0.89987 0.0
O453 O 0.67344 0.90866 0.90805 0.0
O454 O 0.64446 0.91141 0.91119 0.0
C455 C 0.65376 0.85397 0.90123 0.0
C456 C 0.64973 0.89619 0.85833 0.0
O457 O 0.6367 0.89566 0.86922 0.0
O458 O 0.66543 0.89336 0.86397 0.0
C459 C 0.59952 0.87999 0.89081 0.0
O460 O 0.60825 0.8691 0.87988 0.0
C461 C 0.66007 0.91708 0.91444 0.0
Zn462 Zn 0.62934 0.16782 0.37071 0.0
Zn463 Zn 0.62427 0.13156 0.37461 0.0
O464 O 0.65009 0.13473 0.38234 0.0
O465 O 0.65491 0.16388 0.38022 0.0
O466 O 0.62068 0.10488 0.37725 0.0
O467 O 0.60679 0.17188 0.3862 0.0
O468 O 0.60355 0.14253 0.38881 0.0
C469 C 0.66064 0.14802 0.38342 0.0
C470 C 0.62283 0.1489 0.33717 0.0
O471 O 0.62158 0.13548 0.34776 0.0
O472 O 0.62603 0.16448 0.34344 0.0
C473 C 0.62676 0.0944 0.36511 0.0
O474 O 0.63562 0.10121 0.35148 0.0
C475 C 0.59792 0.1585 0.39182 0.0
Zn476 Zn 0.33191 0.11345 0.88714 0.0
Zn477 Zn 0.36747 0.10995 0.89287 0.0
O478 O 0.36165 0.13646 0.89798 0.0
O479 O 0.33291 0.14028 0.89449 0.0
O480 O 0.3937 0.1093 0.89735 0.0
O481 O 0.32857 0.09188 0.90448 0.0
O482 O 0.35749 0.0896 0.90832 0.0
C483 C 0.34809 0.14683 0.89778 0.0
C484 C 0.35286 0.10436 0.85514 0.0
O485 O 0.36575 0.10437 0.86622 0.0
O486 O 0.33721 0.1079 0.86053 0.0
C487 C 0.40259 0.12072 0.88839 0.0
O488 O 0.39421 0.13143 0.87703 0.0
C489 C 0.3419 0.08373 0.91127 0.0
Zn490 Zn 0.37817 0.8316 0.36776 0.0
Zn491 Zn 0.38136 0.8675 0.37405 0.0
O492 O 0.35604 0.86232 0.38261 0.0
O493 O 0.35241 0.83343 0.37709 0.0
O494 O 0.38317 0.89413 0.37806 0.0
O495 O 0.40074 0.82753 0.38311 0.0
O496 O 0.40318 0.85685 0.38686 0.0
C497 C 0.34608 0.84854 0.38221 0.0
C498 C 0.38288 0.85297 0.33547 0.0
O499 O 0.38312 0.86585 0.34681 0.0
O500 O 0.3813 0.83681 0.34087 0.0
C501 C 0.37149 0.90379 0.37018 0.0
O502 O 0.35922 0.89582 0.36048 0.0
C503 C 0.40933 0.84093 0.3891 0.0
Zn504 Zn 0.66332 0.12256 0.11371 0.0
Zn505 Zn 0.62784 0.11713 0.11041 0.0
O506 O 0.63086 0.14345 0.1028 0.0
O507 O 0.65956 0.14845 0.10429 0.0
O508 O 0.60175 0.11289 0.10749 0.0
O509 O 0.66795 0.10007 0.09803 0.0
O510 O 0.63909 0.09618 0.09634 0.0
C511 C 0.64388 0.15423 0.10148 0.0
C512 C 0.64467 0.11644 0.14763 0.0
O513 O 0.63121 0.11507 0.13737 0.0
O514 O 0.65992 0.11926 0.14095 0.0
C515 C 0.59302 0.11888 0.09406 0.0
O516 O 0.60129 0.12802 0.08146 0.0
C517 C 0.65482 0.09082 0.09277 0.0
Zn518 Zn 0.37532 0.13761 0.59533 0.0
Zn519 Zn 0.37885 0.13316 0.63164 0.0
O520 O 0.40038 0.14871 0.6258 0.0
O521 O 0.39797 0.15319 0.59653 0.0
O522 O 0.37929 0.12991 0.65841 0.0
O523 O 0.34956 0.1467 0.59926 0.0
O524 O 0.35353 0.1426 0.62833 0.0
C525 C 0.4065 0.15524 0.61118 0.0
C526 C 0.38155 0.10053 0.6067 0.0
O527 O 0.3819 0.1077 0.62229 0.0
O528 O 0.37887 0.11023 0.59283 0.0
C529 C 0.39062 0.12047 0.66702 0.0
O530 O 0.40392 0.11289 0.65827 0.0
C531 C 0.34345 0.1469 0.61522 0.0
Zn532 Zn 0.33742 0.88052 0.11342 0.0
Zn533 Zn 0.37287 0.88572 0.10946 0.0
O534 O 0.3693 0.85944 0.10185 0.0
O535 O 0.34064 0.85452 0.10413 0.0
O536 O 0.39906 0.88918 0.10609 0.0
O537 O 0.33281 0.90294 0.09769 0.0
O538 O 0.36166 0.90682 0.09553 0.0
C539 C 0.35622 0.84869 0.10092 0.0
C540 C 0.35663 0.8869 0.14696 0.0
O541 O 0.36996 0.88807 0.13649 0.0
O542 O 0.34128 0.88404 0.14054 0.0
C543 C 0.4095 0.87742 0.11284 0.0
O544 O 0.40276 0.86357 0.12145 0.0
C545 C 0.34586 0.91219 0.09222 0.0
Zn546 Zn 0.62979 0.86339 0.59764 0.0
Zn547 Zn 0.62496 0.8686 0.634 0.0
O548 O 0.60411 0.85254 0.62745 0.0
O549 O 0.60697 0.84795 0.59825 0.0
O550 O 0.62288 0.87181 0.66083 0.0
O551 O 0.65535 0.85427 0.60312 0.0
O552 O 0.65043 0.85942 0.63189 0.0
C553 C 0.5983 0.84584 0.6128 0.0
C554 C 0.62323 0.90069 0.60808 0.0
O555 O 0.62225 0.8938 0.62377 0.0
O556 O 0.62645 0.89074 0.5945 0.0
C557 C 0.61565 0.88537 0.66847 0.0
O558 O 0.60808 0.89797 0.65858 0.0
C559 C 0.66095 0.85469 0.61928 0.0
Zn560 Zn 0.92152 0.62452 0.8681 0.0
Zn561 Zn 0.88558 0.62278 0.87341 0.0
O562 O 0.89339 0.64095 0.89242 0.0
O563 O 0.92235 0.64291 0.88899 0.0
O564 O 0.85907 0.62207 0.87614 0.0
O565 O 0.9168 0.63043 0.8413 0.0
O566 O 0.88817 0.62818 0.84657 0.0
C567 C 0.90827 0.64724 0.89746 0.0
C568 C 0.90879 0.58938 0.87953 0.0
O569 O 0.89376 0.5974 0.87958 0.0
O570 O 0.92269 0.59779 0.87497 0.0
C571 C 0.85116 0.61301 0.88823 0.0
O572 O 0.86058 0.6038 0.90006 0.0
C573 C 0.90091 0.63048 0.83555 0.0
Zn574 Zn 0.90882 0.36269 0.13588 0.0
Zn575 Zn 0.87348 0.36671 0.1293 0.0
O576 O 0.8813 0.34788 0.11049 0.0
O577 O 0.90989 0.34389 0.11558 0.0
O578 O 0.84725 0.36926 0.12526 0.0
O579 O 0.9029 0.35802 0.16269 0.0
O580 O 0.87456 0.36141 0.15634 0.0
C581 C 0.89611 0.34053 0.10635 0.0
C582 C 0.89841 0.39835 0.12341 0.0
O583 O 0.88288 0.39171 0.1236 0.0
O584 O 0.91177 0.3888 0.12785 0.0
C585 C 0.84059 0.37653 0.11125 0.0
O586 O 0.85119 0.38237 0.09846 0.0
C587 C 0.88684 0.35882 0.16788 0.0
Zn588 Zn 0.15708 0.39458 0.6193 0.0
Zn589 Zn 0.12163 0.39983 0.61473 0.0
O590 O 0.1261 0.40534 0.64139 0.0
O591 O 0.15483 0.40243 0.64584 0.0
O592 O 0.09545 0.40443 0.61261 0.0
O593 O 0.16129 0.41155 0.59771 0.0
O594 O 0.13241 0.415 0.59454 0.0
C595 C 0.13938 0.40553 0.65201 0.0
C596 C 0.13707 0.36215 0.61032 0.0
O597 O 0.12393 0.37305 0.6098 0.0
O598 O 0.15249 0.36785 0.61406 0.0
C599 C 0.08546 0.39491 0.62254 0.0
O600 O 0.09273 0.38278 0.63325 0.0
C601 C 0.14814 0.41808 0.5891 0.0
Zn602 Zn 0.0946 0.64 0.1323 0.0
Zn603 Zn 0.12923 0.63181 0.12564 0.0
O604 O 0.12349 0.65091 0.10659 0.0
O605 O 0.09565 0.65863 0.1116 0.0
O606 O 0.15518 0.6269 0.12207 0.0
O607 O 0.10079 0.64457 0.15906 0.0
O608 O 0.12844 0.63735 0.15267 0.0
C609 C 0.1097 0.65999 0.10223 0.0
C610 C 0.1013 0.60308 0.1201 0.0
O611 O 0.11741 0.60812 0.11971 0.0
O612 O 0.08913 0.61396 0.12506 0.0
C613 C 0.16179 0.61838 0.10876 0.0
O614 O 0.15125 0.6123 0.09604 0.0
C615 C 0.11665 0.64171 0.16421 0.0
Zn616 Zn 0.8444 0.60611 0.61609 0.0
Zn617 Zn 0.88012 0.60129 0.61218 0.0
O618 O 0.87491 0.59528 0.63855 0.0
O619 O 0.84613 0.5981 0.64263 0.0
O620 O 0.90652 0.59764 0.61121 0.0
O621 O 0.84128 0.58922 0.59422 0.0
O622 O 0.87026 0.5861 0.59155 0.0
C623 C 0.8615 0.59494 0.64898 0.0
C624 C 0.86414 0.63883 0.60788 0.0
O625 O 0.87736 0.62804 0.60746 0.0
O626 O 0.84871 0.63297 0.6113 0.0
C627 C 0.91519 0.60661 0.62282 0.0
O628 O 0.90647 0.61733 0.63392 0.0
C629 C 0.85466 0.58291 0.58579 0.0
Zn630 Zn 0.07918 0.37856 0.87173 0.0
Zn631 Zn 0.11477 0.38183 0.87752 0.0
O632 O 0.10702 0.36387 0.89684 0.0
O633 O 0.07841 0.36004 0.89246 0.0
O634 O 0.14122 0.38278 0.88067 0.0
O635 O 0.08423 0.37274 0.84503 0.0
O636 O 0.11268 0.37604 0.85063 0.0
C637 C 0.09239 0.35674 0.9015 0.0
C638 C 0.09056 0.4144 0.88305 0.0
O639 O 0.10593 0.40711 0.88317 0.0
O640 O 0.07706 0.40525 0.87864 0.0
C641 C 0.14923 0.39328 0.89145 0.0
O642 O 0.13995 0.40436 0.90169 0.0
C643 C 0.10016 0.3732 0.83947 0.0
Zn644 Zn 0.17704 0.61345 0.38148 0.0
Zn645 Zn 0.14173 0.61034 0.38765 0.0
O646 O 0.14524 0.60355 0.36101 0.0
O647 O 0.17392 0.604 0.3556 0.0
O648 O 0.11563 0.60654 0.39137 0.0
O649 O 0.18193 0.59805 0.40414 0.0
O650 O 0.15311 0.59601 0.40834 0.0
C651 C 0.15815 0.60194 0.34999 0.0
C652 C 0.15794 0.6474 0.38848 0.0
O653 O 0.14457 0.63727 0.39074 0.0
O654 O 0.17298 0.64065 0.38443 0.0
C655 C 0.10483 0.61221 0.37943 0.0
O656 O 0.11106 0.62058 0.36516 0.0
C657 C 0.16893 0.59263 0.41354 0.0
Zn658 Zn 0.8256 0.38587 0.38547 0.0
Zn659 Zn 0.86123 0.38806 0.39078 0.0
O660 O 0.85712 0.39505 0.36438 0.0
O661 O 0.82837 0.39517 0.35944 0.0
O662 O 0.88762 0.39073 0.39279 0.0
O663 O 0.82223 0.4016 0.40827 0.0
O664 O 0.85121 0.40298 0.41172 0.0
C665 C 0.84409 0.39698 0.35359 0.0
C666 C 0.8439 0.35145 0.39215 0.0
O667 O 0.85753 0.36127 0.39415 0.0
O668 O 0.82895 0.35853 0.38834 0.0
C669 C 0.89684 0.38189 0.38139 0.0
O670 O 0.88868 0.37146 0.36973 0.0
C671 C 0.83561 0.4068 0.41727 0.0
C672 C 0.15183 0.33089 0.37925 0.0
C673 C 0.13721 0.34282 0.37972 0.0
C674 C 0.14922 0.31224 0.37895 0.0
C675 C 0.11646 0.27915 0.36459 0.0
H676 H 0.14543 0.24519 0.39176 0.0
C677 C 0.12214 0.2034 0.34713 0.0
C678 C 0.12202 0.19109 0.36157 0.0
C679 C 0.12258 0.22195 0.35041 0.0
C680 C 0.13714 0.25453 0.38421 0.0
H681 H 0.1084 0.34448 0.38097 0.0
H682 H 0.10393 0.31198 0.38043 0.0
H683 H 0.14915 0.27761 0.39647 0.0
H684 H 0.12183 0.18865 0.39078 0.0
H685 H 0.12267 0.22105 0.39644 0.0
H686 H 0.10459 0.25611 0.35219 0.0
C687 C 0.11738 0.31707 0.38012 0.0
C688 C 0.13938 0.27305 0.38679 0.0
C689 C 0.11997 0.33569 0.38054 0.0
C690 C 0.12194 0.19776 0.37935 0.0
C691 C 0.12253 0.2163 0.38261 0.0
C692 C 0.11433 0.26065 0.3619 0.0
C693 C 0.13195 0.30518 0.379 0.0
C694 C 0.12912 0.28553 0.37694 0.0
C695 C 0.12305 0.22856 0.36818 0.0
C696 C 0.12472 0.24816 0.37161 0.0
H697 H 0.16527 0.33595 0.37864 0.0
H698 H 0.1607 0.30337 0.37798 0.0
H699 H 0.1085 0.28848 0.35668 0.0
H700 H 0.1222 0.19871 0.33329 0.0
H701 H 0.12311 0.23111 0.33903 0.0
C702 C 0.32388 0.5988 0.88458 0.0
C703 C 0.33361 0.6103 0.8959 0.0
C704 C 0.30541 0.59802 0.8859 0.0
C705 C 0.26727 0.62542 0.90049 0.0
H706 H 0.24129 0.58084 0.89443 0.0
C707 C 0.19103 0.6239 0.90388 0.0
C708 C 0.18248 0.614 0.89029 0.0
C709 C 0.20934 0.62223 0.90643 0.0
C710 C 0.24837 0.5934 0.89604 0.0
H711 H 0.33163 0.62952 0.91792 0.0
H712 H 0.29935 0.62804 0.92031 0.0
H713 H 0.27371 0.58001 0.89586 0.0
H714 H 0.18634 0.59422 0.86902 0.0
H715 H 0.21837 0.59148 0.87334 0.0
H716 H 0.24203 0.63885 0.90036 0.0
C717 C 0.30602 0.61983 0.91025 0.0
C718 C 0.26692 0.59293 0.89687 0.0
C719 C 0.32451 0.6206 0.90893 0.0
C720 C 0.19254 0.60204 0.87961 0.0
C721 C 0.21088 0.60038 0.88215 0.0
C722 C 0.24876 0.62588 0.89967 0.0
C723 C 0.29626 0.60871 0.89857 0.0
C724 C 0.27656 0.60896 0.89893 0.0
C725 C 0.2195 0.61065 0.89544 0.0
C726 C 0.23911 0.60991 0.89727 0.0
H727 H 0.33049 0.59066 0.8744 0.0
H728 H 0.29827 0.58948 0.87658 0.0
H729 H 0.27432 0.63803 0.90177 0.0
H730 H 0.18364 0.63314 0.91244 0.0
H731 H 0.21556 0.63011 0.91696 0.0
C732 C 0.88346 0.80545 0.37768 0.0
C733 C 0.88265 0.8127 0.36015 0.0
C734 C 0.88203 0.78687 0.38043 0.0
C735 C 0.8643 0.74622 0.35857 0.0
H736 H 0.89206 0.7207 0.39471 0.0
C737 C 0.88198 0.66837 0.3788 0.0
C738 C 0.86501 0.66073 0.37721 0.0
C739 C 0.88405 0.68707 0.37842 0.0
C740 C 0.88426 0.72763 0.38453 0.0
H741 H 0.88046 0.80603 0.33172 0.0
H742 H 0.87827 0.77359 0.33652 0.0
H743 H 0.89697 0.75285 0.38973 0.0
H744 H 0.83684 0.66678 0.37494 0.0
H745 H 0.84046 0.69944 0.37457 0.0
H746 H 0.85193 0.72099 0.353 0.0
C747 C 0.87963 0.78232 0.34816 0.0
C748 C 0.88696 0.74607 0.38178 0.0
C749 C 0.88101 0.8009 0.3454 0.0
C750 C 0.8501 0.67222 0.37605 0.0
C751 C 0.85218 0.69094 0.37572 0.0
C752 C 0.86161 0.72782 0.36131 0.0
C753 C 0.87981 0.77513 0.36572 0.0
C754 C 0.87707 0.75554 0.3687 0.0
C755 C 0.86921 0.69855 0.3765 0.0
C756 C 0.87159 0.71829 0.37427 0.0
H757 H 0.88471 0.81416 0.38935 0.0
H758 H 0.88209 0.78178 0.39414 0.0
H759 H 0.85627 0.75318 0.34859 0.0
H760 H 0.89375 0.65991 0.37972 0.0
H761 H 0.89736 0.69249 0.3789 0.0
C762 C 0.81086 0.37676 0.90377 0.0
C763 C 0.82042 0.38871 0.89279 0.0
C764 C 0.79252 0.37871 0.90577 0.0
C765 C 0.75363 0.3974 0.88236 0.0
H766 H 0.72983 0.38831 0.92787 0.0
C767 C 0.67792 0.40381 0.88906 0.0
C768 C 0.66939 0.38952 0.89791 0.0
C769 C 0.69632 0.40555 0.88999 0.0
C770 C 0.73631 0.39079 0.91506 0.0
H771 H 0.81832 0.41243 0.87573 0.0
H772 H 0.78625 0.41593 0.87933 0.0
H773 H 0.76227 0.38828 0.92665 0.0
H774 H 0.6734 0.3662 0.9152 0.0
H775 H 0.70563 0.36914 0.91666 0.0
H776 H 0.72775 0.39962 0.87069 0.0
C777 C 0.79295 0.4049 0.88619 0.0
C778 C 0.75485 0.39078 0.91436 0.0
C779 C 0.81132 0.40294 0.88419 0.0
C780 C 0.67959 0.37735 0.90822 0.0
C781 C 0.69804 0.37909 0.90914 0.0
C782 C 0.73512 0.39743 0.88307 0.0
C783 C 0.78333 0.39268 0.89684 0.0
C784 C 0.7637 0.39391 0.89795 0.0
C785 C 0.70661 0.39303 0.89977 0.0
C786 C 0.72626 0.39397 0.89939 0.0
H787 H 0.81748 0.36565 0.9106 0.0
H788 H 0.78547 0.36895 0.91388 0.0
H789 H 0.76004 0.39954 0.86946 0.0
H790 H 0.67042 0.41352 0.88113 0.0
H791 H 0.70253 0.41661 0.88288 0.0
C792 C 0.16173 0.68199 0.61882 0.0
C793 C 0.14906 0.66835 0.61671 0.0
C794 C 0.15706 0.70005 0.61602 0.0
C795 C 0.11801 0.73025 0.61642 0.0
H796 H 0.15142 0.76465 0.59685 0.0
C797 C 0.10294 0.8071 0.61086 0.0
C798 C 0.11643 0.81804 0.61793 0.0
C799 C 0.10596 0.78862 0.6082 0.0
C800 C 0.14195 0.75517 0.60232 0.0
H801 H 0.12172 0.66291 0.60929 0.0
H802 H 0.11368 0.6944 0.60413 0.0
H803 H 0.15866 0.73249 0.59618 0.0
H804 H 0.14367 0.8182 0.62761 0.0
H805 H 0.14886 0.78615 0.62293 0.0
H806 H 0.10144 0.75304 0.62278 0.0
C807 C 0.12712 0.69116 0.60829 0.0
C808 C 0.14611 0.73678 0.60199 0.0
C809 C 0.13177 0.67311 0.61117 0.0
C810 C 0.13297 0.81017 0.62217 0.0
C811 C 0.13602 0.79183 0.61934 0.0
C812 C 0.11381 0.74865 0.61664 0.0
C813 C 0.13964 0.70486 0.61095 0.0
C814 C 0.13438 0.72415 0.60943 0.0
C815 C 0.12258 0.78086 0.61233 0.0
C816 C 0.12594 0.7613 0.61 0.0
H817 H 0.17515 0.67878 0.62311 0.0
H818 H 0.16696 0.71028 0.61844 0.0
H819 H 0.10875 0.7209 0.62244 0.0
H820 H 0.09007 0.81279 0.60746 0.0
H821 H 0.09538 0.78043 0.60275 0.0
C822 C 0.69111 0.62424 0.10199 0.0
C823 C 0.68101 0.61368 0.11387 0.0
C824 C 0.70956 0.62217 0.1012 0.0
C825 C 0.74747 0.60604 0.12828 0.0
H826 H 0.77287 0.60824 0.0828 0.0
C827 C 0.82315 0.5945 0.12409 0.0
C828 C 0.83265 0.60665 0.11328 0.0
C829 C 0.80461 0.59411 0.12342 0.0
C830 C 0.76596 0.60773 0.09561 0.0
H831 H 0.68232 0.59237 0.13394 0.0
H832 H 0.71448 0.58866 0.13243 0.0
H833 H 0.74046 0.60979 0.08295 0.0
H834 H 0.83015 0.62769 0.09303 0.0
H835 H 0.79781 0.62711 0.092 0.0
H836 H 0.77293 0.60418 0.14098 0.0
C837 C 0.70816 0.59872 0.12392 0.0
C838 C 0.74741 0.60862 0.0957 0.0
C839 C 0.68972 0.60079 0.12471 0.0
C840 C 0.82323 0.61816 0.10153 0.0
C841 C 0.8047 0.61776 0.10086 0.0
C842 C 0.766 0.60515 0.1282 0.0
C843 C 0.7183 0.60949 0.11227 0.0
C844 C 0.73797 0.60789 0.11205 0.0
C845 C 0.79518 0.60585 0.11192 0.0
C846 C 0.77546 0.60609 0.11188 0.0
H847 H 0.68481 0.63431 0.09347 0.0
H848 H 0.71701 0.63082 0.09224 0.0
H849 H 0.74061 0.60574 0.14113 0.0
H850 H 0.83001 0.5854 0.13322 0.0
H851 H 0.79766 0.58461 0.13193 0.0
C852 C 0.84615 0.1894 0.61476 0.0
C853 C 0.8625 0.18225 0.62067 0.0
C854 C 0.84361 0.20803 0.61343 0.0
C855 C 0.86697 0.25074 0.60855 0.0
H856 H 0.82588 0.27167 0.63254 0.0
C857 C 0.86138 0.32656 0.62381 0.0
C858 C 0.84456 0.33492 0.62343 0.0
C859 C 0.86307 0.30795 0.62152 0.0
C860 C 0.83723 0.26606 0.62545 0.0
H861 H 0.88913 0.18893 0.62945 0.0
H862 H 0.88473 0.22157 0.6269 0.0
H863 H 0.82985 0.239 0.63202 0.0
H864 H 0.81636 0.33043 0.61972 0.0
H865 H 0.81935 0.29793 0.61523 0.0
H866 H 0.87434 0.2777 0.60182 0.0
C867 C 0.8739 0.21271 0.62334 0.0
C868 C 0.83953 0.24735 0.62524 0.0
C869 C 0.87638 0.19407 0.6249 0.0
C870 C 0.82949 0.32435 0.62023 0.0
C871 C 0.8312 0.30571 0.61775 0.0
C872 C 0.86457 0.26944 0.60856 0.0
C873 C 0.85745 0.21983 0.61775 0.0
C874 C 0.85454 0.23956 0.61701 0.0
C875 C 0.848 0.29727 0.6186 0.0
C876 C 0.84981 0.27734 0.61726 0.0
H877 H 0.83519 0.18063 0.61142 0.0
H878 H 0.83084 0.21322 0.60898 0.0
H879 H 0.87854 0.245 0.60191 0.0
H880 H 0.87326 0.33431 0.62633 0.0
H881 H 0.87617 0.30189 0.62259 0.0
C882 C 0.3116 0.39903 0.12802 0.0
C883 C 0.32071 0.38717 0.11638 0.0
C884 C 0.2931 0.40058 0.12729 0.0
C885 C 0.25348 0.37569 0.1128 0.0
H886 H 0.22987 0.42221 0.11743 0.0
C887 C 0.17781 0.38367 0.10428 0.0
C888 C 0.16897 0.39461 0.11698 0.0
C889 C 0.19634 0.38348 0.10332 0.0
C890 C 0.23627 0.40911 0.11627 0.0
H891 H 0.31756 0.36785 0.09462 0.0
H892 H 0.28532 0.37067 0.09325 0.0
H893 H 0.26228 0.42054 0.11739 0.0
H894 H 0.17263 0.4142 0.1384 0.0
H895 H 0.20498 0.41374 0.13683 0.0
H896 H 0.22753 0.36422 0.11182 0.0
C897 C 0.29246 0.37859 0.10311 0.0
C898 C 0.25483 0.40815 0.11625 0.0
C899 C 0.31095 0.37705 0.10384 0.0
C900 C 0.17904 0.40563 0.12845 0.0
C901 C 0.19758 0.40544 0.12749 0.0
C902 C 0.23495 0.37664 0.11282 0.0
C903 C 0.28332 0.39028 0.1149 0.0
C904 C 0.26363 0.39142 0.11456 0.0
C905 C 0.20643 0.39423 0.11503 0.0
C906 C 0.22614 0.39335 0.1146 0.0
H907 H 0.31873 0.407 0.13786 0.0
H908 H 0.28644 0.40955 0.13669 0.0
H909 H 0.25985 0.36256 0.11178 0.0
H910 H 0.17044 0.37509 0.09517 0.0
H911 H 0.20276 0.3749 0.09339 0.0
C912 C 0.37092 0.11887 0.17409 0.0
C913 C 0.35551 0.12658 0.16655 0.0
C914 C 0.37429 0.12041 0.19257 0.0
C915 C 0.35311 0.13407 0.23621 0.0
H916 H 0.40197 0.14157 0.2509 0.0
C917 C 0.37254 0.1628 0.30558 0.0
C918 C 0.38317 0.15098 0.31586 0.0
C919 C 0.37006 0.15973 0.28716 0.0
C920 C 0.38829 0.13944 0.24692 0.0
H921 H 0.3314 0.1417 0.17245 0.0
H922 H 0.33755 0.14504 0.2044 0.0
H923 H 0.39525 0.13546 0.21925 0.0
H924 H 0.40032 0.12731 0.31479 0.0
H925 H 0.39643 0.12237 0.28236 0.0
H926 H 0.34621 0.13888 0.26387 0.0
C927 C 0.34684 0.13729 0.19629 0.0
C928 C 0.38441 0.13577 0.22885 0.0
C929 C 0.34332 0.13545 0.1779 0.0
C930 C 0.39203 0.13662 0.30719 0.0
C931 C 0.38985 0.13379 0.28869 0.0
C932 C 0.35697 0.13812 0.25417 0.0
C933 C 0.36248 0.13 0.20385 0.0
C934 C 0.36674 0.13309 0.22323 0.0
C935 C 0.37848 0.14505 0.27867 0.0
C936 C 0.37457 0.14088 0.25963 0.0
H937 H 0.3805 0.11185 0.16566 0.0
H938 H 0.38626 0.11424 0.19794 0.0
H939 H 0.3394 0.13168 0.23255 0.0
H940 H 0.36546 0.17391 0.31192 0.0
H941 H 0.36131 0.16863 0.2796 0.0
C942 C 0.38638 0.88498 0.69788 0.0
C943 C 0.37221 0.89031 0.68668 0.0
C944 C 0.38466 0.8858 0.71664 0.0
C945 C 0.3512 0.88316 0.75177 0.0
H946 H 0.38755 0.90266 0.78309 0.0
C947 C 0.34239 0.88414 0.82892 0.0
C948 C 0.35743 0.87993 0.83937 0.0
C949 C 0.34404 0.88737 0.81042 0.0
C950 C 0.37736 0.89698 0.77455 0.0
H951 H 0.34528 0.90102 0.68631 0.0
H952 H 0.34224 0.9022 0.71908 0.0
H953 H 0.39105 0.90462 0.75039 0.0
H954 H 0.38601 0.87591 0.83868 0.0
H955 H 0.38882 0.88092 0.8064 0.0
H956 H 0.33778 0.87486 0.77571 0.0
C957 C 0.35465 0.89743 0.71332 0.0
C958 C 0.37935 0.89819 0.75584 0.0
C959 C 0.35644 0.89682 0.69458 0.0
C960 C 0.37417 0.87922 0.831 0.0
C961 C 0.3758 0.88222 0.81249 0.0
C962 C 0.3493 0.88175 0.77044 0.0
C963 C 0.36867 0.89176 0.7245 0.0
C964 C 0.36632 0.89122 0.7443 0.0
C965 C 0.36074 0.88623 0.80194 0.0
C966 C 0.3624 0.88855 0.78208 0.0
H967 H 0.39872 0.87995 0.69217 0.0
H968 H 0.39563 0.88124 0.72499 0.0
H969 H 0.34107 0.87746 0.74314 0.0
H970 H 0.32933 0.88495 0.83502 0.0
H971 H 0.33221 0.89075 0.80279 0.0
C972 C 0.66496 0.86597 0.17783 0.0
C973 C 0.65272 0.87583 0.16737 0.0
C974 C 0.66212 0.86363 0.19631 0.0
C975 C 0.62563 0.86546 0.23003 0.0
H976 H 0.66439 0.85941 0.26404 0.0
C977 C 0.61814 0.86325 0.30791 0.0
C978 C 0.62689 0.84887 0.31665 0.0
C979 C 0.62056 0.86613 0.28946 0.0
C980 C 0.65347 0.86095 0.25461 0.0
H981 H 0.62858 0.89198 0.16817 0.0
H982 H 0.6241 0.88871 0.20054 0.0
H983 H 0.67086 0.86715 0.23274 0.0
H984 H 0.64469 0.82598 0.31291 0.0
H985 H 0.64921 0.83131 0.28063 0.0
H986 H 0.60827 0.85985 0.25225 0.0
C987 C 0.63549 0.88212 0.19442 0.0
C988 C 0.65715 0.86534 0.23668 0.0
C989 C 0.63815 0.88416 0.17589 0.0
C990 C 0.6377 0.8371 0.3065 0.0
C991 C 0.6404 0.84021 0.2881 0.0
C992 C 0.62196 0.8614 0.24805 0.0
C993 C 0.64716 0.87138 0.20479 0.0
C994 C 0.64328 0.86754 0.22411 0.0
C995 C 0.63203 0.85488 0.27952 0.0
C996 C 0.63586 0.85898 0.26043 0.0
H997 H 0.67623 0.85926 0.1716 0.0
H998 H 0.6713 0.85509 0.20373 0.0
H999 H 0.6146 0.86662 0.22072 0.0
H1000 H 0.6097 0.87249 0.3154 0.0
H1001 H 0.61401 0.87755 0.28309 0.0
C1002 C 0.62105 0.1132 0.8337 0.0
C1003 C 0.63819 0.11868 0.83876 0.0
C1004 C 0.617 0.10992 0.81562 0.0
C1005 C 0.63745 0.10174 0.77082 0.0
H1006 H 0.59335 0.12231 0.75268 0.0
C1007 C 0.62634 0.11788 0.69614 0.0
C1008 C 0.6098 0.11398 0.68832 0.0
C1009 C 0.62897 0.11589 0.71464 0.0
C1010 C 0.60556 0.11622 0.7576 0.0
H1011 H 0.66462 0.12458 0.82884 0.0
H1012 H 0.65748 0.11914 0.79726 0.0
H1013 H 0.59974 0.12341 0.78493 0.0
H1014 H 0.58303 0.10488 0.6938 0.0
H1015 H 0.58763 0.10156 0.72638 0.0
H1016 H 0.64349 0.09509 0.74338 0.0
C1017 C 0.64723 0.11713 0.8073 0.0
C1018 C 0.60924 0.11684 0.77607 0.0
C1019 C 0.6513 0.12036 0.8254 0.0
C1020 C 0.59592 0.108 0.69944 0.0
C1021 C 0.59853 0.10614 0.71806 0.0
C1022 C 0.6338 0.10119 0.75237 0.0
C1023 C 0.62998 0.11207 0.80219 0.0
C1024 C 0.62537 0.10991 0.78284 0.0
C1025 C 0.61511 0.11004 0.7258 0.0
C1026 C 0.61798 0.10875 0.74553 0.0
H1027 H 0.61065 0.11165 0.84368 0.0
H1028 H 0.60366 0.10579 0.81215 0.0
H1029 H 0.64983 0.09596 0.77566 0.0
H1030 H 0.63735 0.1225 0.68798 0.0
H1031 H 0.6418 0.11928 0.72025 0.0
C1032 C 0.90838 0.7977 0.6157 0.0
C1033 C 0.89541 0.80801 0.62478 0.0
C1034 C 0.90559 0.77938 0.61223 0.0
C1035 C 0.86976 0.74672 0.60649 0.0
H1036 H 0.90558 0.71052 0.61773 0.0
C1037 C 0.85397 0.67096 0.6108 0.0
C1038 C 0.86716 0.6584 0.6058 0.0
C1039 C 0.85761 0.68941 0.61091 0.0
C1040 C 0.89554 0.72046 0.61417 0.0
H1041 H 0.8695 0.80709 0.63766 0.0
H1042 H 0.86469 0.77526 0.63155 0.0
H1043 H 0.91205 0.74236 0.62251 0.0
H1044 H 0.89421 0.6554 0.59602 0.0
H1045 H 0.90039 0.68759 0.59574 0.0
H1046 H 0.85323 0.72494 0.59811 0.0
C1047 C 0.87692 0.78136 0.62699 0.0
C1048 C 0.89926 0.73869 0.61699 0.0
C1049 C 0.87977 0.79957 0.63061 0.0
C1050 C 0.8838 0.66473 0.60011 0.0
C1051 C 0.88739 0.68318 0.60007 0.0
C1052 C 0.8661 0.72853 0.60352 0.0
C1053 C 0.8897 0.77114 0.61761 0.0
C1054 C 0.88629 0.75194 0.61346 0.0
C1055 C 0.87447 0.69571 0.60586 0.0
C1056 C 0.87884 0.71515 0.60759 0.0
H1057 H 0.92056 0.80382 0.61104 0.0
H1058 H 0.91564 0.77177 0.60495 0.0
H1059 H 0.85964 0.75673 0.60338 0.0
H1060 H 0.84104 0.66652 0.61533 0.0
H1061 H 0.84741 0.69866 0.61565 0.0
C1062 C 0.81002 0.37317 0.12388 0.0
C1063 C 0.82112 0.37901 0.10983 0.0
C1064 C 0.79171 0.37599 0.12299 0.0
C1065 C 0.75482 0.3846 0.09157 0.0
H1066 H 0.73033 0.39959 0.1352 0.0
C1067 C 0.67887 0.39894 0.0941 0.0
C1068 C 0.66996 0.39138 0.10893 0.0
C1069 C 0.69746 0.39905 0.09353 0.0
C1070 C 0.73696 0.39531 0.12293 0.0
H1071 H 0.82163 0.3922 0.08369 0.0
H1072 H 0.78951 0.39717 0.08217 0.0
H1073 H 0.76257 0.39657 0.1353 0.0
H1074 H 0.67359 0.37809 0.13481 0.0
H1075 H 0.70582 0.3782 0.13374 0.0
H1076 H 0.72909 0.3831 0.07929 0.0
C1077 C 0.79505 0.39032 0.09383 0.0
C1078 C 0.75542 0.39357 0.12299 0.0
C1079 C 0.81344 0.38753 0.09474 0.0
C1080 C 0.68 0.38407 0.1232 0.0
C1081 C 0.69851 0.38423 0.12265 0.0
C1082 C 0.7363 0.38635 0.0915 0.0
C1083 C 0.78402 0.38472 0.10803 0.0
C1084 C 0.76453 0.38787 0.10742 0.0
C1085 C 0.70746 0.39169 0.10782 0.0
C1086 C 0.72716 0.3914 0.10729 0.0
H1087 H 0.81547 0.36648 0.13567 0.0
H1088 H 0.78353 0.3712 0.134 0.0
H1089 H 0.76146 0.38007 0.07939 0.0
H1090 H 0.67151 0.40468 0.0829 0.0
H1091 H 0.704 0.405 0.08198 0.0
C1092 C 0.09537 0.20219 0.61339 0.0
C1093 C 0.109 0.19183 0.62135 0.0
C1094 C 0.09768 0.22066 0.61033 0.0
C1095 C 0.13258 0.25438 0.60399 0.0
H1096 H 0.09679 0.28924 0.61892 0.0
C1097 C 0.1475 0.32999 0.61176 0.0
C1098 C 0.13402 0.34262 0.60782 0.0
C1099 C 0.14405 0.31151 0.61116 0.0
C1100 C 0.10679 0.27968 0.61435 0.0
H1101 H 0.13565 0.19277 0.63255 0.0
H1102 H 0.13963 0.22485 0.62716 0.0
H1103 H 0.09109 0.25705 0.62235 0.0
H1104 H 0.10656 0.34573 0.59932 0.0
H1105 H 0.10068 0.31349 0.59788 0.0
H1106 H 0.14832 0.2769 0.59602 0.0
C1107 C 0.12723 0.21869 0.62316 0.0
C1108 C 0.10352 0.26126 0.61638 0.0
C1109 C 0.12488 0.20033 0.62636 0.0
C1110 C 0.11721 0.33636 0.60257 0.0
C1111 C 0.1138 0.31787 0.60186 0.0
C1112 C 0.13579 0.27277 0.60184 0.0
C1113 C 0.11373 0.22901 0.615 0.0
C1114 C 0.11652 0.24846 0.61152 0.0
C1115 C 0.12708 0.30524 0.60647 0.0
C1116 C 0.12306 0.28566 0.60728 0.0
H1117 H 0.08299 0.19602 0.60938 0.0
H1118 H 0.08708 0.22834 0.60399 0.0
H1119 H 0.14271 0.24476 0.59986 0.0
H1120 H 0.16057 0.33436 0.61592 0.0
H1121 H 0.15453 0.30218 0.61502 0.0
C1122 C 0.18894 0.60551 0.09357 0.0
C1123 C 0.18119 0.61516 0.10794 0.0
C1124 C 0.20731 0.60243 0.09311 0.0
C1125 C 0.24682 0.60154 0.12278 0.0
H1126 H 0.27337 0.60975 0.07872 0.0
C1127 C 0.32145 0.61539 0.12296 0.0
C1128 C 0.33216 0.6071 0.10975 0.0
C1129 C 0.30301 0.61408 0.12218 0.0
C1130 C 0.2661 0.60713 0.09105 0.0
H1131 H 0.18667 0.62924 0.13301 0.0
H1132 H 0.21852 0.62406 0.13208 0.0
H1133 H 0.24092 0.61167 0.07825 0.0
H1134 H 0.33188 0.59093 0.08534 0.0
H1135 H 0.29947 0.58875 0.08393 0.0
H1136 H 0.27196 0.59747 0.13568 0.0
C1137 C 0.21044 0.6186 0.12132 0.0
C1138 C 0.24754 0.60822 0.09079 0.0
C1139 C 0.19217 0.62169 0.12177 0.0
C1140 C 0.32399 0.59745 0.09573 0.0
C1141 C 0.30546 0.59626 0.09487 0.0
C1142 C 0.26532 0.6005 0.12305 0.0
C1143 C 0.21823 0.60887 0.10704 0.0
C1144 C 0.23774 0.60584 0.10675 0.0
C1145 C 0.29481 0.60454 0.10813 0.0
C1146 C 0.27517 0.60369 0.10728 0.0
H1147 H 0.18083 0.60029 0.08271 0.0
H1148 H 0.21294 0.59481 0.08197 0.0
H1149 H 0.23963 0.59923 0.13522 0.0
H1150 H 0.3273 0.62294 0.13394 0.0
H1151 H 0.29514 0.62084 0.13243 0.0
C1152 C 0.86974 0.19624 0.34619 0.0
C1153 C 0.87997 0.18527 0.3577 0.0
C1154 C 0.86641 0.21428 0.35056 0.0
C1155 C 0.86675 0.24556 0.38987 0.0
H1156 H 0.85904 0.28158 0.35265 0.0
C1157 C 0.86111 0.32352 0.40001 0.0
C1158 C 0.84614 0.33164 0.39195 0.0
C1159 C 0.86476 0.30519 0.39734 0.0
C1160 C 0.86107 0.27159 0.36315 0.0
H1161 H 0.89556 0.18478 0.38229 0.0
H1162 H 0.89058 0.21652 0.38945 0.0
H1163 H 0.86822 0.25114 0.34414 0.0
H1164 H 0.82291 0.32685 0.37534 0.0
H1165 H 0.8296 0.29488 0.37032 0.0
H1166 H 0.86025 0.26651 0.40885 0.0
C1167 C 0.88449 0.21106 0.37742 0.0
C1168 C 0.86626 0.25412 0.35831 0.0
C1169 C 0.88752 0.19291 0.37323 0.0
C1170 C 0.83448 0.32094 0.38181 0.0
C1171 C 0.83835 0.30272 0.37883 0.0
C1172 C 0.86192 0.26317 0.39471 0.0
C1173 C 0.87354 0.22189 0.36636 0.0
C1174 C 0.86898 0.24079 0.37159 0.0
C1175 C 0.8537 0.29483 0.38627 0.0
C1176 C 0.85885 0.27622 0.38136 0.0
H1177 H 0.86358 0.19068 0.33423 0.0
H1178 H 0.85768 0.22202 0.34183 0.0
H1179 H 0.86838 0.23564 0.40049 0.0
H1180 H 0.8703 0.33145 0.4079 0.0
H1181 H 0.87669 0.29933 0.40316 0.0
C1182 C 0.17811 0.4059 0.90249 0.0
C1183 C 0.16887 0.39321 0.89205 0.0
C1184 C 0.19669 0.40598 0.90259 0.0
C1185 C 0.23567 0.37704 0.89296 0.0
H1186 H 0.26073 0.42221 0.88726 0.0
C1187 C 0.30953 0.3787 0.87424 0.0
C1188 C 0.32037 0.39125 0.88309 0.0
C1189 C 0.29111 0.37946 0.87618 0.0
C1190 C 0.25393 0.40951 0.8891 0.0
H1191 H 0.17191 0.37058 0.87364 0.0
H1192 H 0.20419 0.37077 0.87381 0.0
H1193 H 0.22835 0.42242 0.88964 0.0
H1194 H 0.32033 0.41465 0.90072 0.0
H1195 H 0.28808 0.41588 0.90421 0.0
H1196 H 0.26115 0.3641 0.89233 0.0
C1197 C 0.19711 0.38056 0.88204 0.0
C1198 C 0.2354 0.40964 0.89047 0.0
C1199 C 0.17859 0.38052 0.88186 0.0
C1200 C 0.31235 0.40479 0.8937 0.0
C1201 C 0.29387 0.40554 0.89566 0.0
C1202 C 0.25416 0.37692 0.89163 0.0
C1203 C 0.20638 0.39329 0.89236 0.0
C1204 C 0.22608 0.39337 0.89216 0.0
C1205 C 0.28307 0.39276 0.88705 0.0
C1206 C 0.26349 0.39312 0.88942 0.0
H1207 H 0.171 0.41585 0.91048 0.0
H1208 H 0.20349 0.41587 0.91078 0.0
H1209 H 0.22888 0.36432 0.8946 0.0
H1210 H 0.31526 0.36816 0.86588 0.0
H1211 H 0.28315 0.36963 0.86909 0.0
C1212 C 0.11783 0.80758 0.37399 0.0
C1213 C 0.12514 0.81503 0.35826 0.0
C1214 C 0.11995 0.78921 0.37775 0.0
C1215 C 0.13482 0.74557 0.35711 0.0
H1216 H 0.1429 0.73199 0.40706 0.0
C1217 C 0.16683 0.67812 0.37836 0.0
C1218 C 0.15537 0.66716 0.38844 0.0
C1219 C 0.16286 0.69638 0.37582 0.0
C1220 C 0.1406 0.73567 0.39309 0.0
H1221 H 0.14015 0.80911 0.33397 0.0
H1222 H 0.14453 0.77735 0.34081 0.0
H1223 H 0.13567 0.76333 0.39964 0.0
H1224 H 0.13138 0.66688 0.40467 0.0
H1225 H 0.12481 0.6991 0.40069 0.0
H1226 H 0.14065 0.71795 0.35064 0.0
C1227 C 0.13664 0.78543 0.35004 0.0
C1228 C 0.13629 0.75354 0.3888 0.0
C1229 C 0.13421 0.8037 0.34612 0.0
C1230 C 0.14042 0.67502 0.39681 0.0
C1231 C 0.13666 0.69339 0.39457 0.0
C1232 C 0.1395 0.72782 0.36139 0.0
C1233 C 0.12974 0.77797 0.36602 0.0
C1234 C 0.13343 0.75876 0.37073 0.0
C1235 C 0.14759 0.70403 0.38364 0.0
C1236 C 0.14249 0.72278 0.37937 0.0
H1237 H 0.11065 0.816 0.38353 0.0
H1238 H 0.11407 0.7839 0.38996 0.0
H1239 H 0.13231 0.7489 0.34311 0.0
H1240 H 0.17839 0.67243 0.37167 0.0
H1241 H 0.17148 0.70445 0.36741 0.0
C1242 C 0.82252 0.60111 0.90062 0.0
C1243 C 0.83152 0.6123 0.8884 0.0
C1244 C 0.80398 0.60002 0.90022 0.0
C1245 C 0.76564 0.6084 0.87007 0.0
H1246 H 0.7382 0.6081 0.91436 0.0
C1247 C 0.69027 0.62158 0.87128 0.0
C1248 C 0.67982 0.61098 0.8828 0.0
C1249 C 0.70877 0.62045 0.87194 0.0
C1250 C 0.7457 0.60793 0.90189 0.0
H1251 H 0.82809 0.63137 0.8664 0.0
H1252 H 0.79587 0.62966 0.86589 0.0
H1253 H 0.7706 0.60879 0.91583 0.0
H1254 H 0.68063 0.59074 0.90396 0.0
H1255 H 0.71303 0.58875 0.90507 0.0
H1256 H 0.74077 0.6078 0.85612 0.0
C1257 C 0.80311 0.62146 0.87556 0.0
C1258 C 0.76425 0.60832 0.90272 0.0
C1259 C 0.82159 0.62254 0.87595 0.0
C1260 C 0.6883 0.5991 0.8949 0.0
C1261 C 0.70685 0.59802 0.89562 0.0
C1262 C 0.74713 0.60805 0.86924 0.0
C1263 C 0.79408 0.61009 0.88758 0.0
C1264 C 0.77442 0.60878 0.88681 0.0
C1265 C 0.71727 0.60873 0.88417 0.0
C1266 C 0.73695 0.60801 0.88513 0.0
H1267 H 0.82979 0.59302 0.91036 0.0
H1268 H 0.79742 0.59103 0.90957 0.0
H1269 H 0.77309 0.60835 0.85756 0.0
H1270 H 0.68417 0.6309 0.86181 0.0
H1271 H 0.71643 0.62904 0.8631 0.0
C1272 C 0.66042 0.90078 0.82662 0.0
C1273 C 0.64631 0.89893 0.83887 0.0
C1274 C 0.65712 0.90175 0.80808 0.0
C1275 C 0.62115 0.9083 0.77411 0.0
H1276 H 0.65263 0.87971 0.74388 0.0
C1277 C 0.62371 0.87336 0.6989 0.0
C1278 C 0.6174 0.88768 0.68818 0.0
C1279 C 0.62686 0.87588 0.71727 0.0
C1280 C 0.64362 0.88764 0.75215 0.0
H1281 H 0.61763 0.89721 0.84131 0.0
H1282 H 0.61194 0.89845 0.80909 0.0
H1283 H 0.65905 0.88274 0.77584 0.0
H1284 H 0.60903 0.91577 0.6884 0.0
H1285 H 0.61484 0.92028 0.72047 0.0
H1286 H 0.6053 0.91252 0.75048 0.0
C1287 C 0.62553 0.89951 0.81374 0.0
C1288 C 0.64747 0.88963 0.77044 0.0
C1289 C 0.62881 0.89868 0.83225 0.0
C1290 C 0.61383 0.90446 0.69632 0.0
C1291 C 0.61712 0.90702 0.71471 0.0
C1292 C 0.61723 0.90621 0.7558 0.0
C1293 C 0.63966 0.90075 0.80141 0.0
C1294 C 0.6362 0.89984 0.78169 0.0
C1295 C 0.62393 0.89283 0.72533 0.0
C1296 C 0.62832 0.89567 0.74465 0.0
H1297 H 0.67404 0.90117 0.83131 0.0
H1298 H 0.66828 0.90304 0.79897 0.0
H1299 H 0.61231 0.91644 0.78236 0.0
H1300 H 0.62643 0.86021 0.69306 0.0
H1301 H 0.63168 0.86453 0.72514 0.0
C1302 C 0.65663 0.11872 0.17913 0.0
C1303 C 0.64211 0.11663 0.16742 0.0
C1304 C 0.65389 0.1212 0.19762 0.0
C1305 C 0.6201 0.11721 0.23388 0.0
H1306 H 0.64886 0.15355 0.25725 0.0
C1307 C 0.62465 0.16 0.30522 0.0
C1308 C 0.62204 0.1458 0.31747 0.0
C1309 C 0.62581 0.15653 0.2867 0.0
C1310 C 0.64055 0.14354 0.25087 0.0
H1311 H 0.61336 0.1148 0.16606 0.0
H1312 H 0.60861 0.11941 0.19814 0.0
H1313 H 0.6539 0.14644 0.2256 0.0
H1314 H 0.61791 0.1169 0.31982 0.0
H1315 H 0.62026 0.11087 0.28775 0.0
H1316 H 0.6064 0.1147 0.25902 0.0
C1317 C 0.62212 0.11892 0.19313 0.0
C1318 C 0.64366 0.13922 0.2328 0.0
C1319 C 0.62486 0.11634 0.17469 0.0
C1320 C 0.61995 0.12818 0.31077 0.0
C1321 C 0.62119 0.12472 0.29233 0.0
C1322 C 0.61692 0.1216 0.25192 0.0
C1323 C 0.63658 0.12173 0.20477 0.0
C1324 C 0.63351 0.12596 0.22411 0.0
C1325 C 0.62443 0.13879 0.28009 0.0
C1326 C 0.62716 0.13476 0.26066 0.0
H1327 H 0.67009 0.11891 0.17397 0.0
H1328 H 0.66533 0.12296 0.20628 0.0
H1329 H 0.61212 0.10684 0.22763 0.0
H1330 H 0.62623 0.17373 0.30993 0.0
H1331 H 0.62799 0.16772 0.27758 0.0
C1332 C 0.37178 0.12222 0.69468 0.0
C1333 C 0.38783 0.11694 0.68644 0.0
C1334 C 0.36857 0.11824 0.71276 0.0
C1335 C 0.39042 0.10915 0.75559 0.0
H1336 H 0.34445 0.09033 0.76942 0.0
C1337 C 0.37338 0.09559 0.83 0.0
C1338 C 0.35649 0.10147 0.83574 0.0
C1339 C 0.37746 0.09463 0.81164 0.0
C1340 C 0.3573 0.0957 0.7658 0.0
H1341 H 0.41322 0.10356 0.69081 0.0
H1342 H 0.40766 0.09685 0.72268 0.0
H1343 H 0.35144 0.09452 0.73755 0.0
H1344 H 0.33044 0.11038 0.82669 0.0
H1345 H 0.33766 0.10911 0.7947 0.0
H1346 H 0.3961 0.11101 0.78378 0.0
C1347 C 0.39757 0.10399 0.715 0.0
C1348 C 0.36131 0.09804 0.74756 0.0
C1349 C 0.40073 0.10781 0.69678 0.0
C1350 C 0.34356 0.10574 0.82271 0.0
C1351 C 0.34769 0.10492 0.80435 0.0
C1352 C 0.38636 0.10695 0.77385 0.0
C1353 C 0.38138 0.10903 0.72308 0.0
C1354 C 0.3778 0.10505 0.7423 0.0
C1355 C 0.36479 0.09966 0.7986 0.0
C1356 C 0.36964 0.10046 0.77918 0.0
H1357 H 0.36154 0.12927 0.68711 0.0
H1358 H 0.35609 0.12254 0.71873 0.0
H1359 H 0.40317 0.11473 0.75189 0.0
H1360 H 0.38359 0.09205 0.8397 0.0
H1361 H 0.39063 0.09018 0.80768 0.0
C1362 C 0.37669 0.88833 0.17383 0.0
C1363 C 0.35941 0.88712 0.16672 0.0
C1364 C 0.37967 0.8862 0.1923 0.0
C1365 C 0.35972 0.86465 0.23191 0.0
H1366 H 0.39517 0.89156 0.25839 0.0
C1367 C 0.38312 0.87516 0.31003 0.0
C1368 C 0.38299 0.85712 0.31594 0.0
C1369 C 0.38134 0.87926 0.29174 0.0
C1370 C 0.38517 0.88399 0.2512 0.0
H1371 H 0.33162 0.88371 0.17358 0.0
H1372 H 0.33683 0.88027 0.20588 0.0
H1373 H 0.38879 0.89937 0.22703 0.0
H1374 H 0.38169 0.82921 0.30717 0.0
H1375 H 0.37885 0.8364 0.27518 0.0
H1376 H 0.35582 0.8495 0.25612 0.0
C1377 C 0.34809 0.88249 0.19709 0.0
C1378 C 0.38161 0.88837 0.2332 0.0
C1379 C 0.3451 0.88459 0.1786 0.0
C1380 C 0.38174 0.84325 0.30308 0.0
C1381 C 0.37998 0.84737 0.28477 0.0
C1382 C 0.36326 0.86028 0.24987 0.0
C1383 C 0.36545 0.88285 0.20407 0.0
C1384 C 0.36884 0.87874 0.22337 0.0
C1385 C 0.37942 0.86543 0.27894 0.0
C1386 C 0.37605 0.86987 0.25971 0.0
H1387 H 0.38803 0.89027 0.16506 0.0
H1388 H 0.39322 0.88641 0.19722 0.0
H1389 H 0.34999 0.85679 0.22464 0.0
H1390 H 0.38405 0.88618 0.31958 0.0
H1391 H 0.3808 0.89331 0.28771 0.0
C1392 C 0.11014 0.12966 0.56953 0.0
C1393 C 0.11271 0.11346 0.5791 0.0
C1394 C 0.10709 0.12942 0.55097 0.0
C1395 C 0.11456 0.1013 0.51082 0.0
H1396 H 0.08323 0.13656 0.48835 0.0
C1397 C 0.12047 0.12063 0.43617 0.0
C1398 C 0.10494 0.12438 0.42628 0.0
C1399 C 0.11964 0.11742 0.45468 0.0
C1400 C 0.09183 0.12645 0.4944 0.0
H1401 H 0.11368 0.08427 0.57673 0.0
H1402 H 0.10815 0.08387 0.54427 0.0
H1403 H 0.08428 0.13425 0.52114 0.0
H1404 H 0.0763 0.12737 0.42802 0.0
H1405 H 0.07483 0.12157 0.46044 0.0
H1406 H 0.12207 0.09345 0.48409 0.0
C1407 C 0.10876 0.09676 0.55113 0.0
C1408 C 0.0926 0.12527 0.5132 0.0
C1409 C 0.11186 0.09699 0.56973 0.0
C1410 C 0.08851 0.12459 0.43528 0.0
C1411 C 0.08767 0.12134 0.45385 0.0
C1412 C 0.11375 0.10244 0.49204 0.0
C1413 C 0.10646 0.11299 0.54152 0.0
C1414 C 0.10425 0.11295 0.52162 0.0
C1415 C 0.10325 0.11781 0.46376 0.0
C1416 C 0.10267 0.11529 0.48362 0.0
H1417 H 0.11073 0.14259 0.57631 0.0
H1418 H 0.10569 0.14218 0.54395 0.0
H1419 H 0.12376 0.09174 0.51686 0.0
H1420 H 0.13336 0.1204 0.42967 0.0
H1421 H 0.13192 0.11506 0.46196 0.0
C1422 C 0.40436 0.5941 0.93716 0.0
C1423 C 0.41802 0.59994 0.92569 0.0
C1424 C 0.40727 0.59234 0.95565 0.0
C1425 C 0.43453 0.61114 0.99153 0.0
H1426 H 0.41134 0.57454 0.02035 0.0
C1427 C 0.43286 0.61423 0.06947 0.0
C1428 C 0.4158 0.61206 0.07685 0.0
C1429 C 0.43614 0.60993 0.05139 0.0
C1430 C 0.41792 0.58482 0.01247 0.0
H1431 H 0.4457 0.6078 0.92457 0.0
H1432 H 0.45078 0.60471 0.95702 0.0
H1433 H 0.41203 0.57157 0.98754 0.0
H1434 H 0.38896 0.60319 0.07118 0.0
H1435 H 0.39467 0.59582 0.03975 0.0
H1436 H 0.43987 0.62472 0.01641 0.0
C1437 C 0.43778 0.60164 0.95163 0.0
C1438 C 0.41832 0.58313 0.99372 0.0
C1439 C 0.43488 0.60334 0.93306 0.0
C1440 C 0.40224 0.60507 0.06592 0.0
C1441 C 0.40555 0.60068 0.04794 0.0
C1442 C 0.43415 0.61282 0.0103 0.0
C1443 C 0.42391 0.5964 0.96314 0.0
C1444 C 0.42614 0.59656 0.98302 0.0
C1445 C 0.42247 0.60323 0.04042 0.0
C1446 C 0.42535 0.59997 0.02091 0.0
H1447 H 0.39122 0.59132 0.93194 0.0
H1448 H 0.39623 0.58852 0.96417 0.0
H1449 H 0.44051 0.62181 0.98366 0.0
H1450 H 0.4436 0.61954 0.07755 0.0
H1451 H 0.44934 0.61193 0.04596 0.0
C1452 C 0.90849 0.85683 0.43919 0.0
C1453 C 0.89879 0.86895 0.42835 0.0
C1454 C 0.90917 0.85921 0.45788 0.0
C1455 C 0.90297 0.89258 0.49409 0.0
H1456 H 0.89144 0.85094 0.52341 0.0
C1457 C 0.8858 0.89809 0.56999 0.0
C1458 C 0.89116 0.88385 0.58133 0.0
C1459 C 0.88821 0.89683 0.55132 0.0
C1460 C 0.895 0.86265 0.51548 0.0
H1461 H 0.88269 0.89341 0.42849 0.0
H1462 H 0.88399 0.89759 0.46112 0.0
H1463 H 0.89355 0.84775 0.4908 0.0
H1464 H 0.90397 0.8575 0.5821 0.0
H1465 H 0.90864 0.85554 0.54972 0.0
H1466 H 0.90452 0.90748 0.51878 0.0
C1467 C 0.89105 0.88627 0.45515 0.0
C1468 C 0.89617 0.8608 0.49679 0.0
C1469 C 0.89022 0.88379 0.4365 0.0
C1470 C 0.89948 0.86861 0.5737 0.0
C1471 C 0.90207 0.86744 0.55511 0.0
C1472 C 0.90198 0.8944 0.51284 0.0
C1473 C 0.90033 0.87387 0.46604 0.0
C1474 C 0.90004 0.87576 0.48591 0.0
C1475 C 0.89621 0.88138 0.54365 0.0
C1476 C 0.89786 0.87947 0.52375 0.0
H1477 H 0.91526 0.84528 0.4333 0.0
H1478 H 0.91654 0.84954 0.46597 0.0
H1479 H 0.90613 0.90429 0.48599 0.0
H1480 H 0.8793 0.90998 0.57548 0.0
H1481 H 0.88335 0.90773 0.54288 0.0
C1482 C 0.59597 0.40656 0.93866 0.0
C1483 C 0.58285 0.40006 0.92691 0.0
C1484 C 0.59248 0.40853 0.95701 0.0
C1485 C 0.56535 0.38935 0.99262 0.0
H1486 H 0.5866 0.42753 0.02097 0.0
C1487 C 0.56751 0.38736 0.07064 0.0
C1488 C 0.58455 0.39029 0.07779 0.0
C1489 C 0.56384 0.39133 0.05256 0.0
C1490 C 0.58053 0.41681 0.01322 0.0
H1491 H 0.55554 0.3911 0.92512 0.0
H1492 H 0.54947 0.39447 0.95743 0.0
H1493 H 0.58589 0.42996 0.98813 0.0
H1494 H 0.61093 0.4002 0.07171 0.0
H1495 H 0.60456 0.40704 0.04028 0.0
H1496 H 0.56061 0.37588 0.0177 0.0
C1497 C 0.56248 0.39797 0.95233 0.0
C1498 C 0.58012 0.41821 0.99445 0.0
C1499 C 0.56593 0.39611 0.93385 0.0
C1500 C 0.59769 0.39772 0.06663 0.0
C1501 C 0.59399 0.4018 0.04865 0.0
C1502 C 0.56573 0.38797 0.01142 0.0
C1503 C 0.57581 0.40399 0.96411 0.0
C1504 C 0.57311 0.40419 0.98393 0.0
C1505 C 0.5771 0.39848 0.04136 0.0
C1506 C 0.57389 0.4014 0.02185 0.0
H1507 H 0.60912 0.4098 0.93376 0.0
H1508 H 0.60313 0.41293 0.96576 0.0
H1509 H 0.55999 0.37826 0.98487 0.0
H1510 H 0.55708 0.38168 0.0789 0.0
H1511 H 0.55069 0.38871 0.0473 0.0
C1512 C 0.12391 0.91505 0.56916 0.0
C1513 C 0.12098 0.89878 0.57844 0.0
C1514 C 0.12339 0.91554 0.55028 0.0
C1515 C 0.12907 0.88538 0.51128 0.0
H1516 H 0.10646 0.92381 0.48387 0.0
C1517 C 0.11787 0.879 0.43525 0.0
C1518 C 0.12185 0.894 0.42442 0.0
C1519 C 0.1173 0.8806 0.45398 0.0
C1520 C 0.11299 0.9131 0.49137 0.0
H1521 H 0.11442 0.87047 0.57518 0.0
H1522 H 0.11335 0.87141 0.54245 0.0
H1523 H 0.10614 0.9249 0.5169 0.0
H1524 H 0.12793 0.92257 0.42476 0.0
H1525 H 0.12706 0.92532 0.45764 0.0
H1526 H 0.13593 0.87353 0.48592 0.0
C1527 C 0.11641 0.88369 0.5497 0.0
C1528 C 0.1128 0.91372 0.51025 0.0
C1529 C 0.11694 0.8832 0.56849 0.0
C1530 C 0.12485 0.91076 0.43274 0.0
C1531 C 0.12427 0.91236 0.45155 0.0
C1532 C 0.12926 0.88476 0.49249 0.0
C1533 C 0.11995 0.89977 0.54037 0.0
C1534 C 0.12065 0.89972 0.52038 0.0
C1535 C 0.12073 0.89722 0.46236 0.0
C1536 C 0.12103 0.89848 0.48232 0.0
H1537 H 0.12704 0.9273 0.57644 0.0
H1538 H 0.12623 0.9281 0.54344 0.0
H1539 H 0.1356 0.87461 0.51871 0.0
H1540 H 0.11535 0.86592 0.42928 0.0
H1541 H 0.11421 0.86876 0.46193 0.0
C1542 C 0.61719 0.62205 0.93688 0.0
C1543 C 0.60261 0.61935 0.92546 0.0
C1544 C 0.61596 0.61811 0.95525 0.0
C1545 C 0.61383 0.60192 0.99227 0.0
H1546 H 0.56897 0.61019 0.01668 0.0
C1547 C 0.60907 0.59365 0.06906 0.0
C1548 C 0.59852 0.60632 0.0783 0.0
C1549 C 0.60787 0.59204 0.05032 0.0
C1550 C 0.58167 0.60797 0.01015 0.0
H1551 H 0.57553 0.6098 0.92401 0.0
H1552 H 0.57362 0.60199 0.95588 0.0
H1553 H 0.5708 0.61438 0.98432 0.0
H1554 H 0.57815 0.62695 0.07541 0.0
H1555 H 0.57672 0.62497 0.04273 0.0
H1556 H 0.62508 0.59704 0.0182 0.0
C1557 C 0.5858 0.60783 0.95091 0.0
C1558 C 0.58265 0.61006 0.99145 0.0
C1559 C 0.58691 0.6122 0.93261 0.0
C1560 C 0.58634 0.61697 0.06859 0.0
C1561 C 0.58547 0.61571 0.04981 0.0
C1562 C 0.61295 0.60027 0.011 0.0
C1563 C 0.60025 0.61093 0.96254 0.0
C1564 C 0.59882 0.60733 0.98227 0.0
C1565 C 0.59645 0.60344 0.04037 0.0
C1566 C 0.59691 0.60352 0.02026 0.0
H1567 H 0.62942 0.62768 0.93173 0.0
H1568 H 0.62725 0.62112 0.96375 0.0
H1569 H 0.62643 0.59923 0.9857 0.0
H1570 H 0.61843 0.58513 0.0763 0.0
H1571 H 0.61617 0.58206 0.04366 0.0
C1572 C 0.87122 0.14065 0.43926 0.0
C1573 C 0.87822 0.12836 0.42668 0.0
C1574 C 0.8716 0.1367 0.45766 0.0
C1575 C 0.89331 0.10722 0.49168 0.0
H1576 H 0.85331 0.1229 0.52091 0.0
C1577 C 0.88433 0.0918 0.5686 0.0
C1578 C 0.88089 0.10737 0.57893 0.0
C1579 C 0.88419 0.09268 0.54971 0.0
C1580 C 0.86455 0.11843 0.51288 0.0
H1581 H 0.89119 0.10228 0.42346 0.0
H1582 H 0.89145 0.09516 0.4556 0.0
H1583 H 0.85254 0.12752 0.48838 0.0
H1584 H 0.87467 0.13605 0.57756 0.0
H1585 H 0.87417 0.13742 0.54482 0.0
H1586 H 0.90517 0.09801 0.51642 0.0
C1587 C 0.88597 0.10802 0.45129 0.0
C1588 C 0.86419 0.12118 0.49428 0.0
C1589 C 0.88575 0.11206 0.43287 0.0
C1590 C 0.87742 0.12379 0.57004 0.0
C1591 C 0.87701 0.12459 0.55128 0.0
C1592 C 0.89357 0.10427 0.51033 0.0
C1593 C 0.87879 0.12025 0.4639 0.0
C1594 C 0.87873 0.11599 0.48349 0.0
C1595 C 0.88028 0.10906 0.54096 0.0
C1596 C 0.87934 0.11022 0.52109 0.0
H1597 H 0.86547 0.15339 0.43492 0.0
H1598 H 0.86633 0.14663 0.46701 0.0
H1599 H 0.90479 0.10318 0.4838 0.0
H1600 H 0.88708 0.07897 0.57509 0.0
H1601 H 0.88674 0.08054 0.54196 0.0
C1602 C 0.3828 0.38929 0.93379 0.0
C1603 C 0.39777 0.3824 0.92468 0.0
C1604 C 0.38361 0.39315 0.95218 0.0
C1605 C 0.41441 0.40077 0.99027 0.0
H1606 H 0.37451 0.38428 0.01877 0.0
C1607 C 0.41574 0.39269 0.06807 0.0
C1608 C 0.40002 0.39676 0.07755 0.0
C1609 C 0.41608 0.39349 0.04923 0.0
C1610 C 0.38563 0.38924 0.011 0.0
H1611 H 0.42549 0.37465 0.92763 0.0
H1612 H 0.4268 0.38114 0.95991 0.0
H1613 H 0.37397 0.38071 0.9862 0.0
H1614 H 0.37269 0.40596 0.07475 0.0
H1615 H 0.3734 0.40756 0.04198 0.0
H1616 H 0.42618 0.40899 0.01528 0.0
C1617 C 0.41451 0.38374 0.95273 0.0
C1618 C 0.38533 0.38719 0.99232 0.0
C1619 C 0.41372 0.37992 0.93427 0.0
C1620 C 0.38496 0.40254 0.06786 0.0
C1621 C 0.38533 0.40338 0.04907 0.0
C1622 C 0.41473 0.40282 0.00904 0.0
C1623 C 0.39938 0.39016 0.96192 0.0
C1624 C 0.39971 0.39289 0.98174 0.0
C1625 C 0.40074 0.3984 0.03953 0.0
C1626 C 0.40033 0.39704 0.01958 0.0
H1627 H 0.37036 0.39155 0.92676 0.0
H1628 H 0.37182 0.39839 0.95881 0.0
H1629 H 0.42562 0.40545 0.98244 0.0
H1630 H 0.42758 0.38822 0.07514 0.0
H1631 H 0.42813 0.38947 0.04224 0.0
C1632 C 0.56507 0.10521 0.10587 0.0
C1633 C 0.57359 0.1163 0.0932 0.0
C1634 C 0.54663 0.1035 0.10573 0.0
C1635 C 0.50645 0.12801 0.09246 0.0
H1636 H 0.48326 0.08219 0.10068 0.0
C1637 C 0.43031 0.12255 0.09363 0.0
C1638 C 0.42291 0.11173 0.10722 0.0
C1639 C 0.44854 0.12203 0.09024 0.0
C1640 C 0.48955 0.09511 0.09853 0.0
H1641 H 0.56947 0.13392 0.07016 0.0
H1642 H 0.53718 0.13095 0.06999 0.0
H1643 H 0.51554 0.08312 0.09757 0.0
H1644 H 0.42879 0.09164 0.12772 0.0
H1645 H 0.46069 0.09102 0.12207 0.0
H1646 H 0.48063 0.14012 0.09389 0.0
C1647 C 0.54482 0.12369 0.08007 0.0
C1648 C 0.50801 0.09563 0.0967 0.0
C1649 C 0.5633 0.12532 0.08013 0.0
C1650 C 0.43409 0.10012 0.11713 0.0
C1651 C 0.45236 0.09969 0.11381 0.0
C1652 C 0.48802 0.12752 0.09439 0.0
C1653 C 0.53629 0.1129 0.09299 0.0
C1654 C 0.51665 0.1121 0.09378 0.0
C1655 C 0.45983 0.11077 0.10044 0.0
C1656 C 0.47935 0.11108 0.09758 0.0
H1657 H 0.57263 0.09804 0.11609 0.0
H1658 H 0.54041 0.09523 0.11597 0.0
H1659 H 0.51277 0.14095 0.0905 0.0
H1660 H 0.42204 0.13152 0.08563 0.0
H1661 H 0.4538 0.1305 0.07962 0.0
C1662 C 0.39201 0.93736 0.62052 0.0
C1663 C 0.38795 0.92676 0.60537 0.0
C1664 C 0.39226 0.95611 0.61926 0.0
C1665 C 0.39502 0.99447 0.58792 0.0
H1666 H 0.37099 0.01979 0.62685 0.0
C1667 C 0.38131 0.07197 0.58839 0.0
C1668 C 0.38377 0.08075 0.60502 0.0
C1669 C 0.38242 0.05313 0.58727 0.0
C1670 C 0.37791 0.01295 0.61597 0.0
H1671 H 0.38165 0.92755 0.57679 0.0
H1672 H 0.38202 0.96052 0.57463 0.0
H1673 H 0.37206 0.987 0.62688 0.0
H1674 H 0.39003 0.07669 0.63336 0.0
H1675 H 0.39215 0.04404 0.63134 0.0
H1676 H 0.4009 0.02059 0.57708 0.0
C1677 C 0.38506 0.9542 0.58746 0.0
C1678 C 0.37852 0.99416 0.61599 0.0
C1679 C 0.38479 0.93535 0.58872 0.0
C1680 C 0.38787 0.07037 0.62036 0.0
C1681 C 0.389 0.05163 0.61924 0.0
C1682 C 0.39443 0.01336 0.58791 0.0
C1683 C 0.38844 0.96475 0.60283 0.0
C1684 C 0.38728 0.98471 0.60212 0.0
C1685 C 0.386 0.04277 0.60277 0.0
C1686 C 0.38607 0.02278 0.60209 0.0
H1687 H 0.39469 0.93122 0.63352 0.0
H1688 H 0.39528 0.96389 0.63124 0.0
H1689 H 0.40191 0.98752 0.57709 0.0
H1690 H 0.37816 0.07959 0.57632 0.0
H1691 H 0.37998 0.04666 0.57441 0.0
C1692 C 0.44035 0.86554 0.11737 0.0
C1693 C 0.42897 0.87944 0.11143 0.0
C1694 C 0.45874 0.86754 0.11652 0.0
C1695 C 0.4942 0.89409 0.09474 0.0
H1696 H 0.52241 0.87558 0.13457 0.0
C1697 C 0.57009 0.90588 0.10216 0.0
C1698 C 0.58023 0.89057 0.10692 0.0
C1699 C 0.55152 0.90528 0.10244 0.0
C1700 C 0.51471 0.88071 0.1233 0.0
H1701 H 0.42795 0.90632 0.09981 0.0
H1702 H 0.46011 0.90994 0.09863 0.0
H1703 H 0.4902 0.87317 0.13556 0.0
H1704 H 0.57882 0.86261 0.11557 0.0
H1705 H 0.54655 0.86164 0.1161 0.0
H1706 H 0.51887 0.90173 0.08259 0.0
C1707 C 0.45481 0.89737 0.10369 0.0
C1708 C 0.49626 0.87929 0.12383 0.0
C1709 C 0.43638 0.89533 0.10445 0.0
C1710 C 0.57143 0.87466 0.11187 0.0
C1711 C 0.55293 0.87412 0.11227 0.0
C1712 C 0.5127 0.89561 0.09427 0.0
C1713 C 0.4662 0.88354 0.10983 0.0
C1714 C 0.48579 0.88575 0.10947 0.0
C1715 C 0.54278 0.88943 0.10765 0.0
C1716 C 0.52314 0.88874 0.10845 0.0
H1717 H 0.43506 0.85307 0.12268 0.0
H1718 H 0.46712 0.85647 0.12102 0.0
H1719 H 0.48654 0.89905 0.08338 0.0
H1720 H 0.57649 0.91832 0.09826 0.0
H1721 H 0.544 0.9173 0.0989 0.0
C1722 C 0.62005 0.0658 0.58875 0.0
C1723 C 0.61655 0.07436 0.60534 0.0
C1724 C 0.61985 0.04695 0.58745 0.0
C1725 C 0.62618 0.0071 0.6161 0.0
H1726 H 0.60462 0.98033 0.57693 0.0
C1727 C 0.61664 0.93109 0.62106 0.0
C1728 C 0.6211 0.92045 0.606 0.0
C1729 C 0.61558 0.9498 0.61963 0.0
C1730 C 0.61086 0.98767 0.58783 0.0
H1731 H 0.6092 0.06987 0.63332 0.0
H1732 H 0.60874 0.03719 0.63099 0.0
H1733 H 0.60339 0.01342 0.57678 0.0
H1734 H 0.62743 0.92115 0.57743 0.0
H1735 H 0.62572 0.95408 0.57499 0.0
H1736 H 0.63368 0.98157 0.6272 0.0
C1737 C 0.61197 0.04499 0.61908 0.0
C1738 C 0.61015 0.00656 0.58775 0.0
C1739 C 0.61216 0.06374 0.62038 0.0
C1740 C 0.624 0.92897 0.5893 0.0
C1741 C 0.62295 0.9478 0.58787 0.0
C1742 C 0.62691 0.98833 0.61616 0.0
C1743 C 0.6162 0.03638 0.60273 0.0
C1744 C 0.61756 0.01643 0.60206 0.0
C1745 C 0.61902 0.95839 0.60313 0.0
C1746 C 0.61902 0.97838 0.60221 0.0
H1747 H 0.62344 0.07361 0.5769 0.0
H1748 H 0.62319 0.04064 0.57469 0.0
H1749 H 0.6324 0.01435 0.62708 0.0
H1750 H 0.61415 0.92501 0.63409 0.0
H1751 H 0.61214 0.95757 0.63154 0.0
C1752 C 0.43649 0.87856 0.90299 0.0
C1753 C 0.4292 0.86515 0.89188 0.0
C1754 C 0.4549 0.88025 0.9046 0.0
C1755 C 0.49691 0.85505 0.89783 0.0
H1756 H 0.51794 0.90258 0.89498 0.0
C1757 C 0.57094 0.86511 0.88298 0.0
C1758 C 0.58003 0.87855 0.89253 0.0
C1759 C 0.55256 0.86356 0.88448 0.0
C1760 C 0.51226 0.88924 0.89606 0.0
H1761 H 0.43549 0.84294 0.87381 0.0
H1762 H 0.46755 0.846 0.87649 0.0
H1763 H 0.48566 0.89966 0.89475 0.0
H1764 H 0.57697 0.90091 0.91122 0.0
H1765 H 0.54473 0.89816 0.91388 0.0
H1766 H 0.52347 0.84461 0.89889 0.0
C1767 C 0.45906 0.85507 0.88414 0.0
C1768 C 0.49378 0.88757 0.89593 0.0
C1769 C 0.44068 0.8534 0.8825 0.0
C1770 C 0.57033 0.89043 0.90366 0.0
C1771 C 0.55188 0.88891 0.90513 0.0
C1772 C 0.51536 0.85673 0.89796 0.0
C1773 C 0.46637 0.86852 0.89518 0.0
C1774 C 0.48592 0.87043 0.89654 0.0
C1775 C 0.54282 0.87543 0.89557 0.0
C1776 C 0.52323 0.87382 0.8968 0.0
H1777 H 0.428 0.8878 0.91044 0.0
H1778 H 0.46015 0.89064 0.91334 0.0
H1779 H 0.49125 0.84169 0.89867 0.0
H1780 H 0.578 0.85575 0.87426 0.0
H1781 H 0.54593 0.85322 0.87672 0.0
C1782 C 0.60732 0.93261 0.34839 0.0
C1783 C 0.60996 0.92201 0.36387 0.0
C1784 C 0.6072 0.95142 0.3496 0.0
C1785 C 0.62212 0.98834 0.37966 0.0
H1786 H 0.59436 0.01787 0.34666 0.0
C1787 C 0.6189 0.06655 0.38235 0.0
C1788 C 0.62343 0.07485 0.36595 0.0
C1789 C 0.61588 0.04798 0.38303 0.0
C1790 C 0.60215 0.00973 0.35595 0.0
H1791 H 0.6137 0.92265 0.39287 0.0
H1792 H 0.61273 0.95544 0.39515 0.0
H1793 H 0.59073 0.98517 0.34657 0.0
H1794 H 0.62802 0.07039 0.33738 0.0
H1795 H 0.62235 0.03799 0.33855 0.0
H1796 H 0.63326 0.0131 0.38919 0.0
C1797 C 0.6114 0.94932 0.38195 0.0
C1798 C 0.60018 0.99102 0.35585 0.0
C1799 C 0.61183 0.93052 0.38068 0.0
C1800 C 0.62464 0.06433 0.35022 0.0
C1801 C 0.62129 0.04585 0.35085 0.0
C1802 C 0.62384 0.00708 0.37996 0.0
C1803 C 0.6094 0.96003 0.36638 0.0
C1804 C 0.61038 0.98004 0.36748 0.0
C1805 C 0.61698 0.03753 0.36726 0.0
C1806 C 0.61409 0.01788 0.36791 0.0
H1807 H 0.60596 0.92641 0.33523 0.0
H1808 H 0.60594 0.95916 0.33727 0.0
H1809 H 0.63044 0.98037 0.38859 0.0
H1810 H 0.6179 0.07436 0.39467 0.0
H1811 H 0.61254 0.0418 0.39583 0.0
C1812 C 0.43126 0.11065 0.90259 0.0
C1813 C 0.42198 0.12229 0.89086 0.0
C1814 C 0.44961 0.11235 0.90488 0.0
C1815 C 0.48614 0.14471 0.89897 0.0
H1816 H 0.51624 0.10198 0.89729 0.0
C1817 C 0.56101 0.1481 0.88499 0.0
C1818 C 0.57241 0.13643 0.89456 0.0
C1819 C 0.54263 0.14654 0.88659 0.0
C1820 C 0.508 0.11402 0.89808 0.0
H1821 H 0.42464 0.14481 0.87234 0.0
H1822 H 0.45656 0.14764 0.87622 0.0
H1823 H 0.48401 0.0988 0.89633 0.0
H1824 H 0.57348 0.11414 0.91354 0.0
H1825 H 0.54129 0.11148 0.91639 0.0
H1826 H 0.51009 0.15995 0.90041 0.0
C1827 C 0.44966 0.13737 0.88383 0.0
C1828 C 0.48955 0.11219 0.89752 0.0
C1829 C 0.43138 0.13565 0.8815 0.0
C1830 C 0.56504 0.12331 0.90596 0.0
C1831 C 0.54662 0.12172 0.90753 0.0
C1832 C 0.50456 0.14653 0.89953 0.0
C1833 C 0.45898 0.12576 0.89554 0.0
C1834 C 0.47845 0.12754 0.89764 0.0
C1835 C 0.53523 0.13327 0.89779 0.0
C1836 C 0.51569 0.13123 0.89877 0.0
H1837 H 0.42438 0.10024 0.91001 0.0
H1838 H 0.45644 0.10329 0.91408 0.0
H1839 H 0.4779 0.15676 0.89943 0.0
H1840 H 0.56626 0.15834 0.87608 0.0
H1841 H 0.53421 0.15547 0.87871 0.0
C1842 C 0.38535 0.93241 0.38113 0.0
C1843 C 0.37193 0.92368 0.37136 0.0
C1844 C 0.38594 0.95125 0.38174 0.0
C1845 C 0.35826 0.99204 0.37458 0.0
H1846 H 0.40342 0.01583 0.36752 0.0
C1847 C 0.36279 0.06744 0.35746 0.0
C1848 C 0.3759 0.07755 0.36627 0.0
C1849 C 0.36258 0.04869 0.35901 0.0
C1850 C 0.39075 0.00938 0.36974 0.0
H1851 H 0.34852 0.92783 0.3547 0.0
H1852 H 0.34967 0.96061 0.35564 0.0
H1853 H 0.40242 0.98294 0.36893 0.0
H1854 H 0.39917 0.0759 0.38351 0.0
H1855 H 0.39874 0.04306 0.38626 0.0
H1856 H 0.34656 0.01844 0.37518 0.0
C1857 C 0.35961 0.95293 0.36301 0.0
C1858 C 0.39018 0.99056 0.37056 0.0
C1859 C 0.35902 0.93414 0.36239 0.0
C1860 C 0.3889 0.06848 0.37654 0.0
C1861 C 0.38871 0.04969 0.37806 0.0
C1862 C 0.35883 0.01083 0.37374 0.0
C1863 C 0.3731 0.9617 0.37263 0.0
C1864 C 0.37389 0.98169 0.3728 0.0
C1865 C 0.37547 0.03961 0.36939 0.0
C1866 C 0.37505 0.0197 0.37111 0.0
H1867 H 0.39547 0.92472 0.38822 0.0
H1868 H 0.3964 0.95764 0.38942 0.0
H1869 H 0.34555 0.9856 0.37664 0.0
H1870 H 0.35261 0.07401 0.3494 0.0
H1871 H 0.35238 0.04126 0.35195 0.0
C1872 C 0.07063 0.44191 0.10718 0.0
C1873 C 0.08711 0.43324 0.10443 0.0
C1874 C 0.06903 0.46063 0.10527 0.0
C1875 C 0.09182 0.50096 0.08717 0.0
H1876 H 0.06977 0.52557 0.1277 0.0
C1877 C 0.1102 0.57271 0.10835 0.0
C1878 C 0.09688 0.58438 0.11494 0.0
C1879 C 0.10632 0.55484 0.10413 0.0
C1880 C 0.07566 0.51894 0.11609 0.0
H1881 H 0.11461 0.43732 0.09673 0.0
H1882 H 0.11184 0.46985 0.09356 0.0
H1883 H 0.06754 0.49289 0.12516 0.0
H1884 H 0.06891 0.58655 0.12181 0.0
H1885 H 0.06215 0.55521 0.11444 0.0
H1886 H 0.10048 0.52698 0.07847 0.0
C1887 C 0.10012 0.46222 0.09704 0.0
C1888 C 0.07437 0.50021 0.11462 0.0
C1889 C 0.10174 0.44356 0.09901 0.0
C1890 C 0.07949 0.57788 0.11684 0.0
C1891 C 0.07562 0.55994 0.11267 0.0
C1892 C 0.09311 0.51968 0.08864 0.0
C1893 C 0.08384 0.471 0.10047 0.0
C1894 C 0.08286 0.49098 0.10042 0.0
C1895 C 0.08904 0.5482 0.10642 0.0
C1896 C 0.08547 0.5288 0.10339 0.0
H1897 H 0.05908 0.43433 0.11129 0.0
H1898 H 0.05628 0.46702 0.10783 0.0
H1899 H 0.09823 0.49423 0.0759 0.0
H1900 H 0.12373 0.57728 0.10667 0.0
H1901 H 0.11701 0.54606 0.0996 0.0
C1902 C 0.07945 0.57897 0.89359 0.0
C1903 C 0.09671 0.58545 0.89656 0.0
C1904 C 0.07584 0.56058 0.89538 0.0
C1905 C 0.09396 0.51766 0.91384 0.0
H1906 H 0.06901 0.49576 0.87374 0.0
C1907 C 0.10329 0.44347 0.89394 0.0
C1908 C 0.08857 0.4337 0.88779 0.0
C1909 C 0.10172 0.46185 0.89773 0.0
C1910 C 0.0757 0.50168 0.88522 0.0
H1911 H 0.12354 0.57779 0.90438 0.0
H1912 H 0.11728 0.54583 0.9073 0.0
H1913 H 0.07069 0.52853 0.87579 0.0
H1914 H 0.06051 0.4355 0.88121 0.0
H1915 H 0.05781 0.46773 0.8878 0.0
H1916 H 0.0995 0.49076 0.92291 0.0
C1917 C 0.10648 0.55494 0.90378 0.0
C1918 C 0.07665 0.52046 0.88641 0.0
C1919 C 0.1101 0.57327 0.90195 0.0
C1920 C 0.07212 0.44266 0.88587 0.0
C1921 C 0.07057 0.46111 0.88958 0.0
C1922 C 0.09303 0.49889 0.91264 0.0
C1923 C 0.08939 0.54834 0.90025 0.0
C1924 C 0.0862 0.52863 0.90047 0.0
C1925 C 0.0854 0.47091 0.89541 0.0
C1926 C 0.08429 0.49071 0.89806 0.0
H1927 H 0.06882 0.58802 0.8895 0.0
H1928 H 0.0625 0.5559 0.89274 0.0
H1929 H 0.10113 0.52358 0.92502 0.0
H1930 H 0.11615 0.437 0.8956 0.0
H1931 H 0.11345 0.46909 0.90194 0.0
C1932 C 0.07844 0.60308 0.39779 0.0
C1933 C 0.08556 0.60921 0.38138 0.0
C1934 C 0.06017 0.6003 0.39955 0.0
C1935 C 0.02003 0.59146 0.37308 0.0
H1936 H 0.99462 0.6125 0.41358 0.0
C1937 C 0.94433 0.60048 0.37259 0.0
C1938 C 0.93483 0.59831 0.38876 0.0
C1939 C 0.96284 0.60004 0.37256 0.0
C1940 C 0.00153 0.60624 0.40236 0.0
H1941 H 0.07917 0.6171 0.35391 0.0
H1942 H 0.04734 0.61212 0.35697 0.0
H1943 H 0.0269 0.61495 0.412 0.0
H1944 H 0.93733 0.59363 0.41755 0.0
H1945 H 0.96977 0.59255 0.41744 0.0
H1946 H 0.99479 0.58272 0.36339 0.0
C1947 C 0.05589 0.60943 0.36844 0.0
C1948 C 0.02001 0.6077 0.40144 0.0
C1949 C 0.07409 0.61239 0.36674 0.0
C1950 C 0.94427 0.59543 0.40488 0.0
C1951 C 0.96285 0.5949 0.40483 0.0
C1952 C 0.0016 0.58986 0.37406 0.0
C1953 C 0.04875 0.60339 0.38486 0.0
C1954 C 0.02938 0.60061 0.38662 0.0
C1955 C 0.97235 0.5973 0.38867 0.0
C1956 C 0.99208 0.59755 0.38853 0.0
H1957 H 0.08694 0.60052 0.40932 0.0
H1958 H 0.055 0.59556 0.41233 0.0
H1959 H 0.02698 0.5856 0.36165 0.0
H1960 H 0.93748 0.60281 0.35993 0.0
H1961 H 0.9697 0.60229 0.35991 0.0
C1962 C 0.89483 0.5614 0.8915 0.0
C1963 C 0.90979 0.57005 0.88435 0.0
C1964 C 0.89525 0.54292 0.89501 0.0
C1965 C 0.92486 0.50322 0.9008 0.0
H1966 H 0.88294 0.47738 0.88536 0.0
C1967 C 0.92021 0.42502 0.89379 0.0
C1968 C 0.90398 0.41726 0.8989 0.0
C1969 C 0.92223 0.44378 0.89407 0.0
C1970 C 0.89465 0.48441 0.88997 0.0
H1971 H 0.93716 0.56619 0.87585 0.0
H1972 H 0.93776 0.53374 0.8817 0.0
H1973 H 0.88399 0.50992 0.88186 0.0
H1974 H 0.87765 0.42298 0.90955 0.0
H1975 H 0.88127 0.4555 0.91021 0.0
H1976 H 0.93555 0.47742 0.90863 0.0
C1977 C 0.92578 0.54134 0.88477 0.0
C1978 C 0.89526 0.50307 0.88798 0.0
C1979 C 0.9254 0.5599 0.88133 0.0
C1980 C 0.89023 0.42852 0.90527 0.0
C1981 C 0.89227 0.44718 0.90559 0.0
C1982 C 0.92427 0.48443 0.90276 0.0
C1983 C 0.91058 0.53262 0.89134 0.0
C1984 C 0.91028 0.51272 0.89349 0.0
C1985 C 0.90806 0.45504 0.89947 0.0
C1986 C 0.90907 0.47489 0.89749 0.0
H1987 H 0.88267 0.56885 0.89421 0.0
H1988 H 0.88344 0.53667 0.90044 0.0
H1989 H 0.93659 0.51031 0.90524 0.0
H1990 H 0.93106 0.41668 0.88885 0.0
H1991 H 0.93454 0.4495 0.88925 0.0
C1992 C 0.05666 0.38402 0.35631 0.0
C1993 C 0.06708 0.39409 0.36831 0.0
C1994 C 0.0382 0.38405 0.35789 0.0
C1995 C 0.00217 0.39218 0.39044 0.0
H1996 H 0.97279 0.39324 0.34744 0.0
C1997 C 0.92524 0.39515 0.39283 0.0
C1998 C 0.91634 0.38385 0.38063 0.0
C1999 C 0.94362 0.39736 0.39163 0.0
C2000 C 0.98083 0.39279 0.35957 0.0
H2001 H 0.06629 0.41227 0.39127 0.0
H2002 H 0.03396 0.41242 0.39393 0.0
H2003 H 0.00493 0.39576 0.34462 0.0
H2004 H 0.91977 0.36584 0.35776 0.0
H2005 H 0.95178 0.36958 0.35579 0.0
H2006 H 0.97802 0.38906 0.40537 0.0
C2007 C 0.04012 0.40435 0.38342 0.0
C2008 C 0.99922 0.39424 0.35795 0.0
C2009 C 0.05863 0.40434 0.38184 0.0
C2010 C 0.9262 0.37469 0.36733 0.0
C2011 C 0.94454 0.37693 0.36611 0.0
C2012 C 0.98374 0.39075 0.39206 0.0
C2013 C 0.02972 0.39416 0.37149 0.0
C2014 C 0.01011 0.39373 0.37335 0.0
C2015 C 0.95344 0.38836 0.37817 0.0
C2016 C 0.9729 0.39081 0.37662 0.0
H2017 H 0.06276 0.37594 0.34577 0.0
H2018 H 0.03057 0.37585 0.34864 0.0
H2019 H 0.01022 0.39154 0.40254 0.0
H2020 H 0.91799 0.40242 0.40321 0.0
H2021 H 0.95011 0.40635 0.40103 0.0
C2022 C 0.88698 0.4299 0.12068 0.0
C2023 C 0.90082 0.41736 0.11819 0.0
C2024 C 0.88936 0.44802 0.11628 0.0
C2025 C 0.89373 0.48429 0.09903 0.0
H2026 H 0.93989 0.50578 0.10643 0.0
C2027 C 0.90251 0.5604 0.08934 0.0
C2028 C 0.9135 0.56916 0.10179 0.0
C2029 C 0.90285 0.54161 0.08793 0.0
C2030 C 0.92685 0.50008 0.10444 0.0
H2031 H 0.9278 0.41369 0.10859 0.0
H2032 H 0.93172 0.44515 0.09998 0.0
H2033 H 0.93619 0.47372 0.11145 0.0
H2034 H 0.93378 0.56536 0.1222 0.0
H2035 H 0.93367 0.53263 0.12061 0.0
H2036 H 0.88399 0.51079 0.09356 0.0
C2037 C 0.91923 0.44123 0.106 0.0
C2038 C 0.92479 0.48154 0.10702 0.0
C2039 C 0.91697 0.42316 0.11083 0.0
C2040 C 0.92527 0.5589 0.11238 0.0
C2041 C 0.92526 0.54009 0.11135 0.0
C2042 C 0.89568 0.50287 0.0969 0.0
C2043 C 0.90551 0.45396 0.10883 0.0
C2044 C 0.90811 0.47343 0.10464 0.0
C2045 C 0.91378 0.53114 0.09936 0.0
C2046 C 0.91221 0.5111 0.09984 0.0
H2047 H 0.87443 0.4258 0.12649 0.0
H2048 H 0.87861 0.4574 0.11912 0.0
H2049 H 0.88078 0.47854 0.09658 0.0
H2050 H 0.89346 0.56807 0.08087 0.0
H2051 H 0.89421 0.53532 0.07813 0.0
C2052 C 0.92447 0.39312 0.63107 0.0
C2053 C 0.91464 0.40662 0.62209 0.0
C2054 C 0.94297 0.39344 0.63108 0.0
C2055 C 0.98138 0.41005 0.60619 0.0
H2056 H 0.00628 0.40026 0.65102 0.0
C2057 C 0.05813 0.41133 0.61191 0.0
C2058 C 0.06599 0.3975 0.62225 0.0
C2059 C 0.03969 0.4138 0.61189 0.0
C2060 C 0.99953 0.40285 0.63836 0.0
H2061 H 0.91655 0.43093 0.60591 0.0
H2062 H 0.94906 0.43139 0.60585 0.0
H2063 H 0.97396 0.40216 0.6509 0.0
H2064 H 0.06067 0.3753 0.64053 0.0
H2065 H 0.02861 0.3794 0.64025 0.0
H2066 H 0.00696 0.41035 0.59356 0.0
C2067 C 0.94233 0.42059 0.61287 0.0
C2068 C 0.98103 0.40398 0.63831 0.0
C2069 C 0.92375 0.42036 0.61297 0.0
C2070 C 0.05505 0.38615 0.63249 0.0
C2071 C 0.03666 0.38858 0.63243 0.0
C2072 C 0.99992 0.40883 0.60621 0.0
C2073 C 0.9521 0.40719 0.62203 0.0
C2074 C 0.97176 0.40733 0.62219 0.0
C2075 C 0.02877 0.40247 0.6222 0.0
C2076 C 0.00918 0.40495 0.62226 0.0
H2077 H 0.91788 0.38232 0.63821 0.0
H2078 H 0.95016 0.38279 0.63803 0.0
H2079 H 0.97454 0.41251 0.59355 0.0
H2080 H 0.06621 0.42033 0.60391 0.0
H2081 H 0.03403 0.42473 0.604 0.0
C2082 C 0.07847 0.59818 0.62186 0.0
C2083 C 0.08548 0.60978 0.63503 0.0
C2084 C 0.06015 0.59557 0.62062 0.0
C2085 C 0.01843 0.60062 0.64644 0.0
H2086 H 0.99623 0.6034 0.59926 0.0
C2087 C 0.94391 0.61449 0.63751 0.0
C2088 C 0.93472 0.605 0.62407 0.0
C2089 C 0.96234 0.61312 0.63884 0.0
C2090 C 0.00225 0.6023 0.6125 0.0
H2091 H 0.07879 0.62755 0.65735 0.0
H2092 H 0.04689 0.62311 0.65508 0.0
H2093 H 0.02854 0.60435 0.60172 0.0
H2094 H 0.93766 0.58654 0.6015 0.0
H2095 H 0.96999 0.58412 0.60388 0.0
H2096 H 0.99216 0.59888 0.65725 0.0
C2097 C 0.05555 0.61588 0.64585 0.0
C2098 C 0.02075 0.60285 0.61391 0.0
C2099 C 0.07383 0.61852 0.64706 0.0
C2100 C 0.94437 0.59405 0.61199 0.0
C2101 C 0.96287 0.59271 0.6133 0.0
C2102 C 0.99996 0.60007 0.64503 0.0
C2103 C 0.0485 0.60446 0.63256 0.0
C2104 C 0.029 0.60233 0.63092 0.0
C2105 C 0.97203 0.60223 0.62676 0.0
C2106 C 0.99166 0.60123 0.62808 0.0
H2107 H 0.08712 0.59121 0.61242 0.0
H2108 H 0.0551 0.58657 0.61034 0.0
H2109 H 0.02443 0.59984 0.65971 0.0
H2110 H 0.93689 0.62307 0.64702 0.0
H2111 H 0.96904 0.62085 0.64918 0.0
C2112 C 0.93911 0.1012 0.35432 0.0
C2113 C 0.92877 0.1067 0.33944 0.0
C2114 C 0.95741 0.09823 0.35255 0.0
C2115 C 0.99509 0.11255 0.32422 0.0
H2116 H 0.02141 0.07789 0.35318 0.0
C2117 C 0.07191 0.11138 0.32433 0.0
C2118 C 0.07986 0.11057 0.34151 0.0
C2119 C 0.05382 0.10755 0.32211 0.0
C2120 C 0.01427 0.08769 0.34504 0.0
H2121 H 0.92959 0.11232 0.31072 0.0
H2122 H 0.96149 0.10688 0.30757 0.0
H2123 H 0.989 0.07698 0.35265 0.0
H2124 H 0.07509 0.10407 0.36965 0.0
H2125 H 0.04374 0.09745 0.36579 0.0
H2126 H 0.02029 0.12355 0.31695 0.0
C2127 C 0.95545 0.10519 0.32072 0.0
C2128 C 0.99566 0.08718 0.34474 0.0
C2129 C 0.93709 0.10814 0.32249 0.0
C2130 C 0.06948 0.10484 0.35621 0.0
C2131 C 0.05144 0.10096 0.35398 0.0
C2132 C 0.01369 0.11305 0.32451 0.0
C2133 C 0.96595 0.10066 0.33583 0.0
C2134 C 0.98578 0.09982 0.33459 0.0
C2135 C 0.04324 0.10273 0.337 0.0
C2136 C 0.02354 0.10085 0.33519 0.0
H2137 H 0.9332 0.09995 0.36759 0.0
H2138 H 0.965 0.09492 0.36453 0.0
H2139 H 0.988 0.12269 0.31646 0.0
H2140 H 0.07946 0.11572 0.3127 0.0
H2141 H 0.04804 0.10876 0.30878 0.0
C2142 C 0.41595 0.4205 0.83479 0.0
C2143 C 0.39899 0.41369 0.83874 0.0
C2144 C 0.41809 0.43866 0.83001 0.0
C2145 C 0.39347 0.48098 0.81725 0.0
H2146 H 0.43084 0.50427 0.84441 0.0
C2147 C 0.39103 0.55599 0.83802 0.0
C2148 C 0.40695 0.56558 0.84016 0.0
C2149 C 0.39129 0.53782 0.83287 0.0
C2150 C 0.42056 0.49803 0.83639 0.0
H2151 H 0.37088 0.42042 0.83938 0.0
H2152 H 0.37462 0.45192 0.8312 0.0
H2153 H 0.42909 0.47154 0.84416 0.0
H2154 H 0.43558 0.5638 0.83725 0.0
H2155 H 0.43601 0.53212 0.82807 0.0
H2156 H 0.38458 0.5076 0.81005 0.0
C2157 C 0.3863 0.44329 0.8317 0.0
C2158 C 0.41955 0.47917 0.83624 0.0
C2159 C 0.38415 0.42516 0.83647 0.0
C2160 C 0.42306 0.55686 0.83577 0.0
C2161 C 0.42332 0.53862 0.83068 0.0
C2162 C 0.39447 0.49987 0.81742 0.0
C2163 C 0.40335 0.45046 0.82903 0.0
C2164 C 0.40575 0.47038 0.82702 0.0
C2165 C 0.40747 0.5287 0.82975 0.0
C2166 C 0.40779 0.50866 0.82734 0.0
H2167 H 0.42769 0.41208 0.83632 0.0
H2168 H 0.43139 0.44361 0.82769 0.0
H2169 H 0.38284 0.4747 0.80975 0.0
H2170 H 0.37836 0.56224 0.84123 0.0
H2171 H 0.37882 0.53066 0.83243 0.0
C2172 C 0.06836 0.89991 0.35716 0.0
C2173 C 0.0786 0.89502 0.34201 0.0
C2174 C 0.05007 0.90317 0.35557 0.0
C2175 C 0.01225 0.89062 0.32657 0.0
H2176 H 0.98621 0.92413 0.35709 0.0
C2177 C 0.93545 0.89276 0.3263 0.0
C2178 C 0.92739 0.89292 0.34344 0.0
C2179 C 0.9536 0.89643 0.32439 0.0
C2180 C 0.99326 0.91465 0.34851 0.0
H2181 H 0.07767 0.89085 0.31305 0.0
H2182 H 0.04584 0.89681 0.31023 0.0
H2183 H 0.01863 0.92467 0.35674 0.0
H2184 H 0.93204 0.89806 0.37188 0.0
H2185 H 0.96351 0.90436 0.36856 0.0
H2186 H 0.98696 0.88028 0.31867 0.0
C2187 C 0.05191 0.89777 0.32344 0.0
C2188 C 0.01188 0.91496 0.34831 0.0
C2189 C 0.07023 0.89453 0.32503 0.0
C2190 C 0.93774 0.89781 0.35846 0.0
C2191 C 0.95585 0.90151 0.35654 0.0
C2192 C 0.99365 0.89032 0.32676 0.0
C2193 C 0.04149 0.90164 0.33877 0.0
C2194 C 0.02166 0.90273 0.33758 0.0
C2195 C 0.96415 0.90041 0.33956 0.0
C2196 C 0.98388 0.90211 0.33797 0.0
H2197 H 0.0743 0.90043 0.37047 0.0
H2198 H 0.04253 0.90596 0.36772 0.0
H2199 H 0.01926 0.88079 0.31835 0.0
H2200 H 0.92792 0.88908 0.31443 0.0
H2201 H 0.95947 0.89574 0.31106 0.0
C2202 C 0.61303 0.44729 0.84722 0.0
C2203 C 0.59854 0.43612 0.84325 0.0
C2204 C 0.61309 0.46537 0.84196 0.0
C2205 C 0.58209 0.50249 0.82783 0.0
H2206 H 0.62646 0.52848 0.82699 0.0
C2207 C 0.6132 0.58041 0.82979 0.0
C2208 C 0.59942 0.58861 0.83966 0.0
C2209 C 0.61208 0.56226 0.82455 0.0
C2210 C 0.61382 0.52167 0.82673 0.0
H2211 H 0.57318 0.43508 0.82948 0.0
H2212 H 0.5737 0.46646 0.8193 0.0
H2213 H 0.62693 0.49605 0.82657 0.0
H2214 H 0.57339 0.58438 0.85128 0.0
H2215 H 0.57186 0.55282 0.84341 0.0
H2216 H 0.56896 0.5281 0.82669 0.0
C2217 C 0.58477 0.46142 0.8272 0.0
C2218 C 0.61412 0.50279 0.82693 0.0
C2219 C 0.58454 0.4433 0.83284 0.0
C2220 C 0.58416 0.57853 0.84346 0.0
C2221 C 0.58329 0.56026 0.83881 0.0
C2222 C 0.58178 0.5214 0.827 0.0
C2223 C 0.59885 0.47291 0.83211 0.0
C2224 C 0.59831 0.49286 0.82838 0.0
C2225 C 0.59745 0.55159 0.8297 0.0
C2226 C 0.59765 0.5314 0.82725 0.0
H2227 H 0.62405 0.44237 0.8553 0.0
H2228 H 0.62404 0.47355 0.84651 0.0
H2229 H 0.56954 0.49557 0.82887 0.0
H2230 H 0.6251 0.58788 0.82658 0.0
H2231 H 0.62303 0.55655 0.81695 0.0
C2232 C 0.93759 0.90517 0.66464 0.0
C2233 C 0.92873 0.88852 0.66443 0.0
C2234 C 0.95588 0.90594 0.66816 0.0
C2235 C 0.99561 0.87677 0.66386 0.0
H2236 H 0.01994 0.91647 0.68696 0.0
C2237 C 0.07178 0.87766 0.66606 0.0
C2238 C 0.07992 0.89408 0.66158 0.0
C2239 C 0.05367 0.87707 0.67025 0.0
C2240 C 0.01336 0.90532 0.68038 0.0
H2241 H 0.93199 0.8598 0.6693 0.0
H2242 H 0.96365 0.8612 0.67581 0.0
H2243 H 0.98746 0.91531 0.68766 0.0
H2244 H 0.0755 0.92293 0.65905 0.0
H2245 H 0.04386 0.92189 0.66608 0.0
H2246 H 0.02126 0.86699 0.6561 0.0
C2247 C 0.95659 0.87363 0.67275 0.0
C2248 C 0.99472 0.90465 0.6808 0.0
C2249 C 0.93836 0.87285 0.66917 0.0
C2250 C 0.0697 0.91005 0.6625 0.0
C2251 C 0.05151 0.90945 0.66656 0.0
C2252 C 0.01416 0.87745 0.66341 0.0
C2253 C 0.96574 0.89008 0.67162 0.0
C2254 C 0.98559 0.8904 0.67243 0.0
C2255 C 0.04312 0.89286 0.66991 0.0
C2256 C 0.02334 0.89178 0.67155 0.0
H2257 H 0.93064 0.91752 0.66101 0.0
H2258 H 0.96244 0.91885 0.66711 0.0
H2259 H 0.98911 0.86581 0.65689 0.0
H2260 H 0.07925 0.8651 0.66566 0.0
H2261 H 0.04782 0.86411 0.67322 0.0
C2262 C 0.58045 0.42894 0.16883 0.0
C2263 C 0.59655 0.42063 0.16367 0.0
C2264 C 0.58004 0.44709 0.1742 0.0
C2265 C 0.6085 0.48635 0.18669 0.0
H2266 H 0.57265 0.51402 0.16093 0.0
C2267 C 0.6173 0.56087 0.1666 0.0
C2268 C 0.60229 0.57214 0.16456 0.0
C2269 C 0.61548 0.54281 0.17175 0.0
C2270 C 0.58254 0.50657 0.1686 0.0
H2271 H 0.62501 0.42454 0.16159 0.0
H2272 H 0.62427 0.45599 0.17088 0.0
H2273 H 0.57143 0.48127 0.16081 0.0
H2274 H 0.57367 0.57353 0.1678 0.0
H2275 H 0.57052 0.54211 0.17709 0.0
H2276 H 0.61993 0.51173 0.19394 0.0
C2277 C 0.61194 0.44858 0.17081 0.0
C2278 C 0.58183 0.48771 0.16852 0.0
C2279 C 0.61235 0.43049 0.16539 0.0
C2280 C 0.58553 0.56525 0.16914 0.0
C2281 C 0.5837 0.54715 0.1743 0.0
C2282 C 0.60918 0.50525 0.18679 0.0
C2283 C 0.59571 0.45731 0.17465 0.0
C2284 C 0.59505 0.47732 0.17717 0.0
C2285 C 0.59859 0.53552 0.17505 0.0
C2286 C 0.59647 0.51561 0.17735 0.0
H2287 H 0.56802 0.42178 0.16772 0.0
H2288 H 0.56733 0.4533 0.17737 0.0
H2289 H 0.61874 0.47879 0.19373 0.0
H2290 H 0.63044 0.56568 0.16325 0.0
H2291 H 0.62725 0.53432 0.17205 0.0
C2292 C 0.93529 0.09194 0.66218 0.0
C2293 C 0.92503 0.10791 0.66149 0.0
C2294 C 0.95351 0.09255 0.66611 0.0
C2295 C 0.99077 0.12441 0.66252 0.0
H2296 H 0.01761 0.08703 0.68732 0.0
C2297 C 0.0667 0.12882 0.66693 0.0
C2298 C 0.07621 0.11291 0.66284 0.0
C2299 C 0.0485 0.12828 0.67077 0.0
C2300 C 0.01033 0.09755 0.68028 0.0
H2301 H 0.9257 0.13686 0.66582 0.0
H2302 H 0.95722 0.13785 0.67303 0.0
H2303 H 0.98514 0.08584 0.68682 0.0
H2304 H 0.07415 0.08379 0.66081 0.0
H2305 H 0.04244 0.08288 0.66724 0.0
H2306 H 0.01576 0.13588 0.6555 0.0
C2307 C 0.95134 0.12489 0.67004 0.0
C2308 C 0.99169 0.09686 0.68 0.0
C2309 C 0.93319 0.1243 0.66604 0.0
C2310 C 0.0673 0.09633 0.66392 0.0
C2311 C 0.04904 0.0958 0.66765 0.0
C2312 C 0.00932 0.12508 0.66278 0.0
C2313 C 0.96189 0.10913 0.66951 0.0
C2314 C 0.98167 0.11024 0.67099 0.0
C2315 C 0.03926 0.11184 0.67049 0.0
C2316 C 0.01941 0.11161 0.67154 0.0
H2317 H 0.92949 0.07908 0.6587 0.0
H2318 H 0.96119 0.08013 0.66551 0.0
H2319 H 0.98359 0.13473 0.65509 0.0
H2320 H 0.07313 0.14184 0.66638 0.0
H2321 H 0.04154 0.14088 0.67336 0.0
C2322 C 0.38988 0.57267 0.16529 0.0
C2323 C 0.40561 0.58258 0.16315 0.0
C2324 C 0.39049 0.55459 0.17073 0.0
C2325 C 0.42067 0.51559 0.16763 0.0
H2326 H 0.38327 0.49137 0.19392 0.0
C2327 C 0.41735 0.43804 0.16828 0.0
C2328 C 0.40052 0.43104 0.16413 0.0
C2329 C 0.4192 0.45614 0.17339 0.0
C2330 C 0.39382 0.49791 0.18653 0.0
H2331 H 0.43423 0.58154 0.16648 0.0
H2332 H 0.43525 0.55003 0.17617 0.0
H2333 H 0.38433 0.52431 0.19375 0.0
H2334 H 0.37232 0.43733 0.16351 0.0
H2335 H 0.37554 0.46873 0.17221 0.0
H2336 H 0.42977 0.48933 0.15978 0.0
C2337 C 0.42246 0.5562 0.17332 0.0
C2338 C 0.39444 0.51681 0.18644 0.0
C2339 C 0.42185 0.57434 0.16793 0.0
C2340 C 0.3855 0.44223 0.16654 0.0
C2341 C 0.38735 0.4603 0.17163 0.0
C2342 C 0.42004 0.49672 0.16769 0.0
C2343 C 0.40684 0.54592 0.17416 0.0
C2344 C 0.40762 0.52591 0.17662 0.0
C2345 C 0.40427 0.46769 0.1745 0.0
C2346 C 0.40635 0.48761 0.17676 0.0
H2347 H 0.37712 0.57857 0.16179 0.0
H2348 H 0.37819 0.54713 0.17111 0.0
H2349 H 0.43086 0.52207 0.15969 0.0
H2350 H 0.42922 0.42982 0.16667 0.0
H2351 H 0.43241 0.46126 0.17586 0.0
C2352 C 0.32266 0.07499 0.0844 0.0
C2353 C 0.33941 0.08328 0.08449 0.0
C2354 C 0.32109 0.0566 0.0803 0.0
C2355 C 0.3458 0.01643 0.06209 0.0
H2356 H 0.31683 0.9901 0.09619 0.0
C2357 C 0.35742 0.94123 0.07948 0.0
C2358 C 0.34288 0.9305 0.08445 0.0
C2359 C 0.35505 0.95954 0.07537 0.0
C2360 C 0.32472 0.99719 0.08629 0.0
H2361 H 0.36746 0.07888 0.07913 0.0
H2362 H 0.36473 0.04699 0.07214 0.0
H2363 H 0.31603 0.0229 0.09621 0.0
H2364 H 0.31425 0.93047 0.08778 0.0
H2365 H 0.31011 0.96234 0.08041 0.0
H2366 H 0.35492 0.99062 0.05261 0.0
C2367 C 0.35276 0.05464 0.07513 0.0
C2368 C 0.32426 0.01608 0.08629 0.0
C2369 C 0.35434 0.07299 0.07924 0.0
C2370 C 0.32577 0.9383 0.08409 0.0
C2371 C 0.32341 0.95664 0.08001 0.0
C2372 C 0.34628 0.99751 0.0621 0.0
C2373 C 0.3362 0.04605 0.07614 0.0
C2374 C 0.33507 0.02598 0.07445 0.0
C2375 C 0.33808 0.96763 0.07613 0.0
C2376 C 0.33602 0.98764 0.07446 0.0
H2377 H 0.31086 0.08249 0.08832 0.0
H2378 H 0.30807 0.05052 0.08089 0.0
H2379 H 0.35409 0.02358 0.05257 0.0
H2380 H 0.3708 0.93572 0.07958 0.0
H2381 H 0.36669 0.96755 0.07257 0.0
C2382 C 0.43763 0.83925 0.62851 0.0
C2383 C 0.42881 0.84303 0.61219 0.0
C2384 C 0.45572 0.83477 0.62866 0.0
C2385 C 0.49472 0.82242 0.59968 0.0
H2386 H 0.52071 0.84815 0.63664 0.0
C2387 C 0.57055 0.83694 0.59616 0.0
C2388 C 0.58005 0.83829 0.61246 0.0
C2389 C 0.55222 0.83363 0.59624 0.0
C2390 C 0.51373 0.84054 0.62641 0.0
H2391 H 0.43196 0.84393 0.58311 0.0
H2392 H 0.46357 0.83635 0.58339 0.0
H2393 H 0.48854 0.84924 0.63659 0.0
H2394 H 0.57794 0.83563 0.64154 0.0
H2395 H 0.54625 0.82941 0.64165 0.0
H2396 H 0.52014 0.81415 0.58928 0.0
C2397 C 0.45647 0.83668 0.59609 0.0
C2398 C 0.49517 0.84117 0.62638 0.0
C2399 C 0.4383 0.84106 0.59593 0.0
C2400 C 0.57104 0.83488 0.62873 0.0
C2401 C 0.55279 0.83147 0.6288 0.0
C2402 C 0.51337 0.8218 0.59971 0.0
C2403 C 0.46556 0.83408 0.61251 0.0
C2404 C 0.48536 0.83223 0.61297 0.0
C2405 C 0.54299 0.83149 0.61262 0.0
C2406 C 0.52313 0.83096 0.61303 0.0
H2407 H 0.43072 0.84047 0.64129 0.0
H2408 H 0.46214 0.83239 0.64154 0.0
H2409 H 0.48763 0.81523 0.58924 0.0
H2410 H 0.57702 0.83955 0.58338 0.0
H2411 H 0.54515 0.8338 0.58352 0.0
C2412 C 0.643 0.0618 0.08026 0.0
C2413 C 0.65765 0.07252 0.0849 0.0
C2414 C 0.64527 0.04351 0.07605 0.0
C2415 C 0.67602 0.00584 0.08588 0.0
H2416 H 0.64541 0.97949 0.05329 0.0
C2417 C 0.67843 0.9281 0.0834 0.0
C2418 C 0.66176 0.9197 0.08434 0.0
C2419 C 0.67969 0.94652 0.0793 0.0
C2420 C 0.65405 0.98663 0.06248 0.0
H2421 H 0.68635 0.07257 0.0875 0.0
H2422 H 0.69032 0.04073 0.07989 0.0
H2423 H 0.64455 0.01245 0.05342 0.0
H2424 H 0.63346 0.92393 0.08039 0.0
H2425 H 0.63565 0.95588 0.07339 0.0
H2426 H 0.68514 0.98011 0.09534 0.0
C2427 C 0.67701 0.04641 0.07987 0.0
C2428 C 0.65355 0.00555 0.06256 0.0
C2429 C 0.67475 0.06474 0.08409 0.0
C2430 C 0.64652 0.92991 0.07987 0.0
C2431 C 0.64779 0.94829 0.07575 0.0
C2432 C 0.67652 0.98695 0.08579 0.0
C2433 C 0.66225 0.03542 0.07633 0.0
C2434 C 0.66427 0.01541 0.07453 0.0
C2435 C 0.66433 0.95699 0.07597 0.0
C2436 C 0.66529 0.97706 0.07435 0.0
H2437 H 0.62963 0.0673 0.08071 0.0
H2438 H 0.63355 0.03551 0.07354 0.0
H2439 H 0.68427 0.0129 0.0955 0.0
H2440 H 0.69046 0.92068 0.08669 0.0
H2441 H 0.69268 0.95268 0.07926 0.0
C2442 C 0.5678 0.16262 0.59482 0.0
C2443 C 0.57587 0.15796 0.61133 0.0
C2444 C 0.5497 0.1672 0.59406 0.0
C2445 C 0.51005 0.17902 0.62239 0.0
H2446 H 0.48415 0.15497 0.58425 0.0
C2447 C 0.43505 0.16309 0.62681 0.0
C2448 C 0.42487 0.16258 0.61089 0.0
C2449 C 0.45329 0.16662 0.62619 0.0
C2450 C 0.49112 0.16211 0.59481 0.0
H2451 H 0.57131 0.1556 0.64015 0.0
H2452 H 0.53992 0.16346 0.63882 0.0
H2453 H 0.51642 0.15395 0.58432 0.0
H2454 H 0.42583 0.16662 0.5819 0.0
H2455 H 0.45755 0.17304 0.58086 0.0
H2456 H 0.48465 0.18673 0.63314 0.0
C2457 C 0.54754 0.16368 0.62643 0.0
C2458 C 0.50972 0.16152 0.59485 0.0
C2459 C 0.5656 0.15909 0.62718 0.0
C2460 C 0.43322 0.16682 0.59445 0.0
C2461 C 0.45148 0.17034 0.59382 0.0
C2462 C 0.49143 0.1796 0.62235 0.0
C2463 C 0.5392 0.1673 0.6098 0.0
C2464 C 0.51946 0.16969 0.6088 0.0
C2465 C 0.46187 0.16975 0.60962 0.0
C2466 C 0.48169 0.17089 0.60872 0.0
H2467 H 0.57526 0.16195 0.58233 0.0
H2468 H 0.54382 0.17023 0.58106 0.0
H2469 H 0.51708 0.18571 0.6332 0.0
H2470 H 0.42913 0.15989 0.63974 0.0
H2471 H 0.46081 0.16591 0.63863 0.0
C2472 C 0.35473 0.05582 0.92567 0.0
C2473 C 0.33972 0.06581 0.92009 0.0
C2474 C 0.35326 0.03763 0.93053 0.0
C2475 C 0.32461 0.99864 0.92108 0.0
H2476 H 0.35615 0.97417 0.95466 0.0
C2477 C 0.32639 0.92106 0.92478 0.0
C2478 C 0.34353 0.91337 0.92383 0.0
C2479 C 0.32406 0.9394 0.92887 0.0
C2480 C 0.34725 0.98079 0.94521 0.0
H2481 H 0.31113 0.06474 0.91663 0.0
H2482 H 0.30853 0.03314 0.92546 0.0
H2483 H 0.35524 0.00713 0.9538 0.0
H2484 H 0.37154 0.91875 0.92789 0.0
H2485 H 0.36747 0.95058 0.93495 0.0
H2486 H 0.31698 0.97239 0.91212 0.0
C2487 C 0.32154 0.03927 0.92565 0.0
C2488 C 0.34673 0.99971 0.9447 0.0
C2489 C 0.32301 0.05747 0.92074 0.0
C2490 C 0.35814 0.92418 0.92844 0.0
C2491 C 0.3558 0.94249 0.93256 0.0
C2492 C 0.3251 0.97976 0.92162 0.0
C2493 C 0.33673 0.02893 0.93002 0.0
C2494 C 0.33569 0.0089 0.93234 0.0
C2495 C 0.33878 0.95051 0.93218 0.0
C2496 C 0.33669 0.97055 0.93342 0.0
H2497 H 0.36783 0.06174 0.92537 0.0
H2498 H 0.3653 0.03016 0.93368 0.0
H2499 H 0.31615 0.00514 0.91116 0.0
H2500 H 0.31482 0.91318 0.92138 0.0
H2501 H 0.31073 0.94504 0.9288 0.0
C2502 C 0.56849 0.85292 0.40128 0.0
C2503 C 0.57893 0.83774 0.39667 0.0
C2504 C 0.5503 0.85123 0.40475 0.0
C2505 C 0.51272 0.82186 0.39317 0.0
H2506 H 0.48697 0.85244 0.42684 0.0
C2507 C 0.43604 0.82131 0.39588 0.0
C2508 C 0.42772 0.8384 0.3962 0.0
C2509 C 0.45426 0.81947 0.39946 0.0
C2510 C 0.49394 0.84385 0.41731 0.0
H2511 H 0.57845 0.80869 0.39312 0.0
H2512 H 0.54673 0.80573 0.39938 0.0
H2513 H 0.51941 0.8523 0.42692 0.0
H2514 H 0.43201 0.86682 0.40159 0.0
H2515 H 0.46361 0.86365 0.40769 0.0
H2516 H 0.48734 0.81378 0.38319 0.0
C2517 C 0.55261 0.819 0.40003 0.0
C2518 C 0.51256 0.84376 0.41736 0.0
C2519 C 0.57085 0.82068 0.3966 0.0
C2520 C 0.4379 0.85343 0.40121 0.0
C2521 C 0.4561 0.8516 0.40479 0.0
C2522 C 0.49412 0.82196 0.3931 0.0
C2523 C 0.542 0.83433 0.4037 0.0
C2524 C 0.52222 0.833 0.40507 0.0
C2525 C 0.46465 0.83467 0.40348 0.0
C2526 C 0.48444 0.83319 0.40495 0.0
H2527 H 0.5742 0.86628 0.40147 0.0
H2528 H 0.54259 0.86337 0.40738 0.0
H2529 H 0.51965 0.8136 0.38332 0.0
H2530 H 0.42865 0.8094 0.39213 0.0
H2531 H 0.4603 0.80617 0.39866 0.0
C2532 C 0.67647 0.07965 0.92276 0.0
C2533 C 0.65936 0.08747 0.92276 0.0
C2534 C 0.67895 0.06144 0.92736 0.0
C2535 C 0.65619 0.02074 0.94629 0.0
H2536 H 0.6859 0.99513 0.91188 0.0
C2537 C 0.64748 0.94537 0.92835 0.0
C2538 C 0.66239 0.93511 0.92299 0.0
C2539 C 0.64914 0.96365 0.93283 0.0
C2540 C 0.67782 0.00202 0.92188 0.0
H2541 H 0.63167 0.08251 0.92902 0.0
H2542 H 0.63594 0.05093 0.9368 0.0
H2543 H 0.68532 0.02789 0.91185 0.0
H2544 H 0.691 0.9358 0.91954 0.0
H2545 H 0.69391 0.96756 0.92757 0.0
H2546 H 0.6482 0.9947 0.95582 0.0
C2547 C 0.64751 0.05879 0.93335 0.0
C2548 C 0.6775 0.0209 0.92188 0.0
C2549 C 0.64504 0.07698 0.9288 0.0
C2550 C 0.67919 0.94327 0.92349 0.0
C2551 C 0.68085 0.96156 0.92795 0.0
C2552 C 0.65648 0.00181 0.94627 0.0
C2553 C 0.6644 0.05059 0.93206 0.0
C2554 C 0.6664 0.03056 0.93383 0.0
C2555 C 0.66577 0.97214 0.93207 0.0
C2556 C 0.66704 0.99219 0.93381 0.0
H2557 H 0.68784 0.0873 0.91828 0.0
H2558 H 0.69221 0.05571 0.9266 0.0
H2559 H 0.6477 0.02768 0.95589 0.0
H2560 H 0.63432 0.93958 0.92816 0.0
H2561 H 0.63721 0.97134 0.93584 0.0
C2562 C 0.43668 0.1788 0.3976 0.0
C2563 C 0.42869 0.1617 0.3973 0.0
C2564 C 0.45483 0.18054 0.40148 0.0
C2565 C 0.49462 0.15586 0.41945 0.0
H2566 H 0.52036 0.18614 0.38595 0.0
C2567 C 0.5694 0.14621 0.40417 0.0
C2568 C 0.57966 0.1612 0.39919 0.0
C2569 C 0.55121 0.14812 0.40772 0.0
C2570 C 0.51344 0.17789 0.39569 0.0
H2571 H 0.43343 0.13314 0.40192 0.0
H2572 H 0.46489 0.13615 0.40863 0.0
H2573 H 0.48806 0.18621 0.38548 0.0
H2574 H 0.57891 0.1902 0.39524 0.0
H2575 H 0.54725 0.19358 0.40174 0.0
H2576 H 0.52006 0.14721 0.42935 0.0
C2577 C 0.45719 0.14827 0.40594 0.0
C2578 C 0.49483 0.17792 0.39541 0.0
C2579 C 0.43909 0.14653 0.40201 0.0
C2580 C 0.57145 0.17834 0.39898 0.0
C2581 C 0.55323 0.18025 0.40253 0.0
C2582 C 0.51325 0.15585 0.41976 0.0
C2583 C 0.46543 0.16523 0.40524 0.0
C2584 C 0.48516 0.16665 0.40704 0.0
C2585 C 0.54274 0.16508 0.40641 0.0
C2586 C 0.52293 0.1666 0.40764 0.0
H2587 H 0.42912 0.1908 0.39407 0.0
H2588 H 0.46065 0.19385 0.40111 0.0
H2589 H 0.48763 0.14723 0.42881 0.0
H2590 H 0.57521 0.13278 0.40448 0.0
H2591 H 0.54363 0.13609 0.41052 0.0
C2592 C 0.0747 0.34318 0.92686 0.0
C2593 C 0.09128 0.3473 0.91919 0.0
C2594 C 0.07344 0.33802 0.94502 0.0
C2595 C 0.10004 0.32443 0.98562 0.0
H2596 H 0.06398 0.35173 0.01146 0.0
C2597 C 0.10635 0.3444 0.06054 0.0
C2598 C 0.09094 0.34686 0.07104 0.0
C2599 C 0.10516 0.33933 0.04239 0.0
C2600 C 0.07391 0.34366 0.00451 0.0
H2601 H 0.11966 0.3478 0.92433 0.0
H2602 H 0.11745 0.33895 0.95581 0.0
H2603 H 0.06407 0.35184 0.97869 0.0
H2604 H 0.06224 0.34446 0.07096 0.0
H2605 H 0.06019 0.33536 0.03936 0.0
H2606 H 0.11024 0.3168 0.01156 0.0
C2607 C 0.10539 0.33963 0.94787 0.0
C2608 C 0.07396 0.34372 0.98563 0.0
C2609 C 0.10665 0.3448 0.92975 0.0
C2610 C 0.07439 0.34279 0.06329 0.0
C2611 C 0.0732 0.33772 0.0451 0.0
C2612 C 0.09999 0.32437 0.00453 0.0
C2613 C 0.08872 0.3368 0.95593 0.0
C2614 C 0.08727 0.33447 0.97591 0.0
C2615 C 0.08853 0.33655 0.03424 0.0
C2616 C 0.08717 0.33434 0.01424 0.0
H2617 H 0.06258 0.34488 0.91915 0.0
H2618 H 0.06041 0.33561 0.95068 0.0
H2619 H 0.11033 0.31692 0.97859 0.0
H2620 H 0.11934 0.34736 0.06604 0.0
H2621 H 0.11726 0.33869 0.0345 0.0
C2622 C 0.09216 0.67539 0.94008 0.0
C2623 C 0.10837 0.67009 0.93215 0.0
C2624 C 0.09138 0.68024 0.95838 0.0
C2625 C 0.1193 0.69089 0.99887 0.0
H2626 H 0.08158 0.66698 0.02493 0.0
C2627 C 0.12472 0.67016 0.07378 0.0
C2628 C 0.10928 0.66939 0.08446 0.0
C2629 C 0.12378 0.67523 0.0556 0.0
C2630 C 0.09202 0.6741 0.01792 0.0
H2631 H 0.13667 0.66707 0.93702 0.0
H2632 H 0.1353 0.67538 0.96869 0.0
H2633 H 0.08133 0.6671 0.99214 0.0
H2634 H 0.0809 0.67471 0.08459 0.0
H2635 H 0.07931 0.68379 0.05295 0.0
H2636 H 0.13031 0.6973 0.02475 0.0
C2637 C 0.12315 0.67588 0.96087 0.0
C2638 C 0.09187 0.67418 0.99903 0.0
C2639 C 0.12393 0.67102 0.94264 0.0
C2640 C 0.09306 0.67509 0.07681 0.0
C2641 C 0.09212 0.68013 0.05858 0.0
C2642 C 0.11946 0.6908 0.01779 0.0
C2643 C 0.10679 0.67997 0.96917 0.0
C2644 C 0.10573 0.6822 0.98921 0.0
C2645 C 0.10737 0.67967 0.04758 0.0
C2646 C 0.10603 0.68204 0.02758 0.0
H2647 H 0.07991 0.67487 0.93244 0.0
H2648 H 0.07858 0.68363 0.96421 0.0
H2649 H 0.13004 0.69748 0.9918 0.0
H2650 H 0.13746 0.66588 0.07918 0.0
H2651 H 0.1358 0.6746 0.04759 0.0
C2652 C 0.83578 0.5745 0.42336 0.0
C2653 C 0.8527 0.57595 0.41545 0.0
C2654 C 0.83399 0.56975 0.44157 0.0
C2655 C 0.85858 0.55228 0.48192 0.0
H2656 H 0.82708 0.58471 0.50799 0.0
C2657 C 0.86731 0.56958 0.55736 0.0
C2658 C 0.85236 0.57444 0.56774 0.0
C2659 C 0.86555 0.56518 0.53908 0.0
C2660 C 0.83567 0.57523 0.50099 0.0
H2661 H 0.88094 0.57221 0.42027 0.0
H2662 H 0.87781 0.56409 0.4519 0.0
H2663 H 0.82719 0.58505 0.47524 0.0
H2664 H 0.82363 0.57701 0.56727 0.0
H2665 H 0.82054 0.56899 0.53549 0.0
H2666 H 0.86744 0.54287 0.5078 0.0
C2667 C 0.86589 0.56654 0.44407 0.0
C2668 C 0.83574 0.57543 0.48211 0.0
C2669 C 0.86769 0.57129 0.42588 0.0
C2670 C 0.83546 0.57347 0.55969 0.0
C2671 C 0.8337 0.56902 0.5414 0.0
C2672 C 0.8585 0.55205 0.50084 0.0
C2673 C 0.84906 0.5663 0.45232 0.0
C2674 C 0.84746 0.56425 0.47231 0.0
C2675 C 0.84878 0.56545 0.53069 0.0
C2676 C 0.84731 0.56381 0.51064 0.0
H2677 H 0.82393 0.57789 0.41575 0.0
H2678 H 0.82079 0.56936 0.44739 0.0
H2679 H 0.8676 0.54328 0.47482 0.0
H2680 H 0.88054 0.57014 0.56306 0.0
H2681 H 0.8775 0.56262 0.53131 0.0
C2682 C 0.9075 0.32294 0.94281 0.0
C2683 C 0.89304 0.33306 0.93611 0.0
C2684 C 0.90797 0.31751 0.961 0.0
C2685 C 0.88004 0.31766 0.0037 0.0
H2686 H 0.92607 0.31753 0.02687 0.0
C2687 C 0.91283 0.33467 0.07788 0.0
C2688 C 0.89788 0.33134 0.08866 0.0
C2689 C 0.91301 0.32982 0.05963 0.0
C2690 C 0.91301 0.31784 0.02079 0.0
H2691 H 0.8675 0.34485 0.9433 0.0
H2692 H 0.86872 0.3365 0.97456 0.0
H2693 H 0.9243 0.31937 0.9944 0.0
H2694 H 0.872 0.31892 0.08921 0.0
H2695 H 0.87289 0.30884 0.05795 0.0
H2696 H 0.86863 0.31811 0.02991 0.0
C2697 C 0.87949 0.33196 0.96597 0.0
C2698 C 0.91201 0.31846 0.00189 0.0
C2699 C 0.87884 0.33697 0.94784 0.0
C2700 C 0.88368 0.32174 0.08118 0.0
C2701 C 0.88412 0.31626 0.06306 0.0
C2702 C 0.88102 0.31771 0.02255 0.0
C2703 C 0.89418 0.3224 0.97304 0.0
C2704 C 0.89547 0.31894 0.99301 0.0
C2705 C 0.89844 0.32096 0.05169 0.0
C2706 C 0.89752 0.31829 0.03152 0.0
H2707 H 0.91865 0.31963 0.93415 0.0
H2708 H 0.91936 0.3098 0.96563 0.0
H2709 H 0.867 0.31722 0.99758 0.0
H2710 H 0.92389 0.34229 0.08318 0.0
H2711 H 0.92424 0.33409 0.05166 0.0
C2712 C 0.16779 0.4272 0.56322 0.0
C2713 C 0.15082 0.42668 0.57115 0.0
C2714 C 0.1698 0.43179 0.54498 0.0
C2715 C 0.14575 0.45005 0.50451 0.0
H2716 H 0.17611 0.41637 0.47862 0.0
C2717 C 0.13613 0.43194 0.42934 0.0
C2718 C 0.15098 0.42692 0.41888 0.0
C2719 C 0.13806 0.43644 0.44758 0.0
C2720 C 0.16784 0.42618 0.48558 0.0
H2721 H 0.1228 0.43192 0.56637 0.0
H2722 H 0.12627 0.4397 0.53472 0.0
H2723 H 0.17611 0.41632 0.51138 0.0
H2724 H 0.17969 0.42405 0.41918 0.0
H2725 H 0.18305 0.43213 0.45092 0.0
H2726 H 0.13702 0.45941 0.47857 0.0
C2727 C 0.13808 0.43668 0.54253 0.0
C2728 C 0.16785 0.42616 0.50446 0.0
C2729 C 0.13608 0.43212 0.56074 0.0
C2730 C 0.16794 0.42775 0.42682 0.0
C2731 C 0.16985 0.43223 0.44509 0.0
C2732 C 0.14573 0.45005 0.48559 0.0
C2733 C 0.15489 0.43597 0.53423 0.0
C2734 C 0.15652 0.43781 0.51421 0.0
C2735 C 0.15488 0.43605 0.45586 0.0
C2736 C 0.1565 0.43784 0.47587 0.0
H2737 H 0.17947 0.4232 0.57082 0.0
H2738 H 0.18299 0.43147 0.53915 0.0
H2739 H 0.13707 0.45942 0.51155 0.0
H2740 H 0.12286 0.43151 0.42371 0.0
H2741 H 0.1262 0.43919 0.45543 0.0
C2742 C 0.92543 0.65727 0.92472 0.0
C2743 C 0.90932 0.65673 0.9151 0.0
C2744 C 0.92563 0.66204 0.94303 0.0
C2745 C 0.89527 0.66034 0.98196 0.0
H2746 H 0.9344 0.68203 0.00788 0.0
C2747 C 0.89434 0.66169 0.05904 0.0
C2748 C 0.91004 0.65574 0.06752 0.0
C2749 C 0.8944 0.66679 0.04087 0.0
C2750 C 0.92338 0.67591 0.00084 0.0
H2751 H 0.88109 0.66258 0.91672 0.0
H2752 H 0.88152 0.6714 0.94838 0.0
H2753 H 0.93423 0.6823 0.97484 0.0
H2754 H 0.93839 0.65181 0.06383 0.0
H2755 H 0.93846 0.6604 0.03206 0.0
H2756 H 0.88466 0.65338 0.0077 0.0
C2757 C 0.89393 0.66754 0.94199 0.0
C2758 C 0.92328 0.67607 0.98189 0.0
C2759 C 0.8937 0.66263 0.92377 0.0
C2760 C 0.92606 0.65637 0.05775 0.0
C2761 C 0.92609 0.66132 0.03949 0.0
C2762 C 0.89537 0.66017 1.0008 0.0
C2763 C 0.90974 0.66651 0.95209 0.0
C2764 C 0.9093 0.66809 0.9722 0.0
C2765 C 0.91013 0.66589 0.03062 0.0
C2766 C 0.9095 0.66777 0.01055 0.0
H2767 H 0.93771 0.65276 0.9185 0.0
H2768 H 0.93806 0.66103 0.95033 0.0
H2769 H 0.88449 0.65365 0.97506 0.0
H2770 H 0.88179 0.66157 0.06621 0.0
H2771 H 0.88193 0.67072 0.03465 0.0
C2772 C 0.81632 0.41612 0.44354 0.0
C2773 C 0.83324 0.41496 0.4355 0.0
C2774 C 0.81449 0.42074 0.4618 0.0
C2775 C 0.83891 0.43882 0.50187 0.0
H2776 H 0.80771 0.40724 0.52863 0.0
C2777 C 0.84757 0.42331 0.57781 0.0
C2778 C 0.83259 0.41907 0.58831 0.0
C2779 C 0.84586 0.42717 0.5594 0.0
C2780 C 0.81623 0.41647 0.52142 0.0
H2781 H 0.86139 0.4189 0.44024 0.0
H2782 H 0.85821 0.42679 0.47192 0.0
H2783 H 0.80789 0.40614 0.49586 0.0
H2784 H 0.80386 0.41698 0.58781 0.0
H2785 H 0.80088 0.424 0.55576 0.0
H2786 H 0.84764 0.44873 0.52755 0.0
C2787 C 0.84631 0.42424 0.46416 0.0
C2788 C 0.81633 0.41583 0.50253 0.0
C2789 C 0.84814 0.41962 0.44593 0.0
C2790 C 0.81571 0.42011 0.58017 0.0
C2791 C 0.81401 0.42396 0.56172 0.0
C2792 C 0.83881 0.43946 0.52079 0.0
C2793 C 0.82951 0.42436 0.4725 0.0
C2794 C 0.82794 0.42672 0.49249 0.0
C2795 C 0.82912 0.42692 0.55095 0.0
C2796 C 0.82772 0.42802 0.53084 0.0
H2797 H 0.80453 0.4127 0.43594 0.0
H2798 H 0.80131 0.42101 0.46767 0.0
H2799 H 0.84781 0.44763 0.4946 0.0
H2800 H 0.86078 0.42267 0.58358 0.0
H2801 H 0.85783 0.42928 0.55159 0.0
C2802 C 0.15806 0.57896 0.57428 0.0
C2803 C 0.1724 0.58534 0.58459 0.0
C2804 C 0.16023 0.5747 0.556 0.0
C2805 C 0.1888 0.5873 0.51763 0.0
H2806 H 0.16027 0.55245 0.49183 0.0
C2807 C 0.1889 0.5851 0.43981 0.0
C2808 C 0.17192 0.58489 0.43185 0.0
C2809 C 0.19109 0.58108 0.45818 0.0
C2810 C 0.16832 0.56227 0.49882 0.0
H2811 H 0.20066 0.59078 0.58396 0.0
H2812 H 0.20453 0.58297 0.55219 0.0
H2813 H 0.16053 0.55235 0.5248 0.0
H2814 H 0.14415 0.57906 0.43681 0.0
H2815 H 0.14797 0.57211 0.46866 0.0
H2816 H 0.19622 0.59754 0.49174 0.0
C2817 C 0.19146 0.58171 0.55815 0.0
C2818 C 0.16846 0.56222 0.51775 0.0
C2819 C 0.18928 0.58601 0.57646 0.0
C2820 C 0.15742 0.57941 0.44245 0.0
C2821 C 0.15963 0.57534 0.46077 0.0
C2822 C 0.18869 0.58731 0.49874 0.0
C2823 C 0.17684 0.57662 0.54751 0.0
C2824 C 0.17841 0.575 0.52743 0.0
C2825 C 0.1764 0.57667 0.46902 0.0
C2826 C 0.17816 0.57505 0.48906 0.0
H2827 H 0.14486 0.57824 0.58003 0.0
H2828 H 0.14861 0.57094 0.5483 0.0
H2829 H 0.19639 0.59755 0.52452 0.0
H2830 H 0.20039 0.58922 0.4321 0.0
H2831 H 0.20425 0.58195 0.46401 0.0
C2832 C 0.31557 0.16002 0.3861 0.0
C2833 C 0.3283 0.14601 0.38522 0.0
C2834 C 0.29739 0.15628 0.3846 0.0
C2835 C 0.26753 0.12264 0.36456 0.0
H2836 H 0.23088 0.14666 0.39264 0.0
C2837 C 0.18639 0.12122 0.37662 0.0
C2838 C 0.1801 0.12251 0.35875 0.0
C2839 C 0.20454 0.12244 0.38043 0.0
C2840 C 0.24095 0.13972 0.38476 0.0
H2841 H 0.33164 0.11693 0.38303 0.0
H2842 H 0.30008 0.11052 0.38046 0.0
H2843 H 0.26214 0.15236 0.39929 0.0
H2844 H 0.18829 0.12508 0.33081 0.0
H2845 H 0.22004 0.12689 0.33748 0.0
H2846 H 0.24634 0.11016 0.3499 0.0
C2847 C 0.30417 0.12441 0.38208 0.0
C2848 C 0.25887 0.14312 0.38847 0.0
C2849 C 0.3223 0.12811 0.38373 0.0
C2850 C 0.19261 0.12398 0.34471 0.0
C2851 C 0.21083 0.12504 0.34854 0.0
C2852 C 0.24961 0.11939 0.3607 0.0
C2853 C 0.29151 0.13847 0.38204 0.0
C2854 C 0.2724 0.13461 0.37843 0.0
C2855 C 0.21697 0.1248 0.36649 0.0
C2856 C 0.23609 0.12788 0.37076 0.0
H2857 H 0.31968 0.17395 0.38716 0.0
H2858 H 0.28799 0.16744 0.38459 0.0
H2859 H 0.2776 0.11601 0.35641 0.0
H2860 H 0.17722 0.12004 0.38782 0.0
H2861 H 0.20884 0.12187 0.39438 0.0
C2862 C 0.408 0.67831 0.8668 0.0
C2863 C 0.39455 0.66526 0.86594 0.0
C2864 C 0.40381 0.69646 0.87031 0.0
C2865 C 0.36689 0.73011 0.87083 0.0
H2866 H 0.39561 0.75392 0.907 0.0
C2867 C 0.34699 0.80036 0.8988 0.0
C2868 C 0.36074 0.8129 0.90105 0.0
C2869 C 0.35086 0.78208 0.89557 0.0
C2870 C 0.38754 0.74759 0.89673 0.0
H2871 H 0.36604 0.66137 0.8672 0.0
H2872 H 0.35877 0.69293 0.87309 0.0
H2873 H 0.40317 0.72328 0.89755 0.0
H2874 H 0.38938 0.81574 0.90249 0.0
H2875 H 0.39607 0.78415 0.89672 0.0
H2876 H 0.35137 0.75444 0.86982 0.0
C2877 C 0.37257 0.68916 0.87109 0.0
C2878 C 0.39191 0.72999 0.89128 0.0
C2879 C 0.37676 0.67101 0.86773 0.0
C2880 C 0.37841 0.80651 0.9009 0.0
C2881 C 0.38227 0.78829 0.8976 0.0
C2882 C 0.36257 0.74775 0.8762 0.0
C2883 C 0.38606 0.70205 0.87289 0.0
C2884 C 0.38166 0.72101 0.87825 0.0
C2885 C 0.36858 0.77586 0.89446 0.0
C2886 C 0.37283 0.75677 0.88923 0.0
H2887 H 0.42184 0.67439 0.86555 0.0
H2888 H 0.41451 0.70608 0.87132 0.0
H2889 H 0.3588 0.72368 0.86064 0.0
H2890 H 0.33323 0.80475 0.89884 0.0
H2891 H 0.33994 0.77288 0.89362 0.0
C2892 C 0.68539 0.87283 0.38793 0.0
C2893 C 0.67941 0.85487 0.38748 0.0
C2894 C 0.7035 0.87673 0.38631 0.0
C2895 C 0.74449 0.85693 0.36698 0.0
H2896 H 0.76773 0.89682 0.39094 0.0
C2897 C 0.81436 0.87953 0.34514 0.0
C2898 C 0.82666 0.88249 0.35912 0.0
C2899 C 0.79618 0.878 0.34891 0.0
C2900 C 0.76146 0.8856 0.38416 0.0
H2901 H 0.68811 0.82691 0.38617 0.0
H2902 H 0.71966 0.83371 0.38366 0.0
H2903 H 0.73708 0.88944 0.39871 0.0
H2904 H 0.82917 0.88731 0.3879 0.0
H2905 H 0.7976 0.88468 0.39439 0.0
H2906 H 0.76887 0.85287 0.35264 0.0
C2907 C 0.71027 0.84481 0.38488 0.0
C2908 C 0.74383 0.88143 0.38854 0.0
C2909 C 0.69216 0.84089 0.38654 0.0
C2910 C 0.82013 0.88504 0.37676 0.0
C2911 C 0.80196 0.88355 0.38051 0.0
C2912 C 0.76206 0.86113 0.36257 0.0
C2913 C 0.71614 0.86279 0.38416 0.0
C2914 C 0.73511 0.867 0.38004 0.0
C2915 C 0.7898 0.87943 0.36672 0.0
C2916 C 0.77081 0.87552 0.37108 0.0
H2917 H 0.676 0.88397 0.38861 0.0
H2918 H 0.70746 0.89074 0.38577 0.0
H2919 H 0.73817 0.84591 0.35993 0.0
H2920 H 0.81884 0.87752 0.33139 0.0
H2921 H 0.78717 0.87522 0.33788 0.0
C2922 C 0.62434 0.19404 0.89964 0.0
C2923 C 0.64191 0.18742 0.89883 0.0
C2924 C 0.62053 0.2123 0.89647 0.0
C2925 C 0.63965 0.25271 0.87414 0.0
H2926 H 0.60024 0.27743 0.89743 0.0
C2927 C 0.62592 0.32971 0.86743 0.0
C2928 C 0.60813 0.33561 0.86621 0.0
C2929 C 0.63007 0.31148 0.87032 0.0
C2930 C 0.61116 0.27065 0.89063 0.0
H2931 H 0.66936 0.19518 0.895 0.0
H2932 H 0.66279 0.22713 0.89006 0.0
H2933 H 0.60794 0.24669 0.90639 0.0
H2934 H 0.58077 0.3267 0.86636 0.0
H2935 H 0.58802 0.29485 0.87139 0.0
H2936 H 0.64301 0.27688 0.85862 0.0
C2937 C 0.65186 0.21808 0.89264 0.0
C2938 C 0.61561 0.25298 0.89579 0.0
C2939 C 0.65567 0.19976 0.89571 0.0
C2940 C 0.59461 0.32266 0.86715 0.0
C2941 C 0.59876 0.30442 0.87024 0.0
C2942 C 0.63528 0.27044 0.8691 0.0
C2943 C 0.63419 0.22454 0.89253 0.0
C2944 C 0.62989 0.2437 0.88758 0.0
C2945 C 0.61653 0.29867 0.87225 0.0
C2946 C 0.62094 0.27961 0.87723 0.0
H2947 H 0.61335 0.18498 0.90191 0.0
H2948 H 0.60675 0.2166 0.89635 0.0
H2949 H 0.6505 0.24596 0.86722 0.0
H2950 H 0.63669 0.33929 0.86681 0.0
H2951 H 0.64388 0.30756 0.87188 0.0
C2952 C 0.32284 0.86198 0.64006 0.0
C2953 C 0.3289 0.8601 0.62216 0.0
C2954 C 0.30471 0.86373 0.64386 0.0
C2955 C 0.2595 0.85733 0.62517 0.0
H2956 H 0.24648 0.89506 0.65915 0.0
C2957 C 0.19269 0.90047 0.64642 0.0
C2958 C 0.18032 0.88635 0.64682 0.0
C2959 C 0.21097 0.89672 0.64516 0.0
C2960 C 0.24987 0.88451 0.6496 0.0
H2961 H 0.32036 0.85768 0.59432 0.0
H2962 H 0.28866 0.86057 0.60098 0.0
H2963 H 0.27779 0.88878 0.65294 0.0
H2964 H 0.17766 0.85719 0.64737 0.0
H2965 H 0.20934 0.85075 0.64542 0.0
H2966 H 0.23159 0.85329 0.62157 0.0
C2967 C 0.29802 0.8607 0.61209 0.0
C2968 C 0.26784 0.88077 0.64617 0.0
C2969 C 0.31622 0.85902 0.60826 0.0
C2970 C 0.18675 0.86844 0.64696 0.0
C2971 C 0.20495 0.86471 0.64567 0.0
C2972 C 0.24154 0.86099 0.62869 0.0
C2973 C 0.29207 0.86357 0.6299 0.0
C2974 C 0.2729 0.86716 0.63386 0.0
C2975 C 0.21728 0.87877 0.64424 0.0
C2976 C 0.23647 0.87466 0.64092 0.0
H2977 H 0.33216 0.86282 0.65116 0.0
H2978 H 0.3006 0.86554 0.65776 0.0
H2979 H 0.26289 0.84671 0.6157 0.0
H2980 H 0.18825 0.91441 0.64618 0.0
H2981 H 0.22009 0.90789 0.64405 0.0
C2982 C 0.63666 0.67622 0.13529 0.0
C2983 C 0.61892 0.67096 0.13796 0.0
C2984 C 0.64078 0.69419 0.13131 0.0
C2985 C 0.6206 0.73481 0.11088 0.0
H2986 H 0.66155 0.75943 0.1304 0.0
C2987 C 0.63186 0.81129 0.10112 0.0
C2988 C 0.64932 0.8179 0.10049 0.0
C2989 C 0.62866 0.79296 0.10411 0.0
C2990 C 0.65023 0.75267 0.12454 0.0
H2991 H 0.59172 0.68079 0.13938 0.0
H2992 H 0.59894 0.71211 0.13256 0.0
H2993 H 0.65492 0.72883 0.14032 0.0
H2994 H 0.67713 0.81003 0.10131 0.0
H2995 H 0.67155 0.77796 0.10603 0.0
H2996 H 0.61595 0.7585 0.09498 0.0
C2997 C 0.60963 0.70225 0.13331 0.0
C2998 C 0.64638 0.73513 0.13034 0.0
C2999 C 0.60552 0.68431 0.13743 0.0
C3000 C 0.66351 0.80546 0.10174 0.0
C3001 C 0.6603 0.78708 0.10469 0.0
C3002 C 0.62451 0.75229 0.10499 0.0
C3003 C 0.62726 0.70733 0.12977 0.0
C3004 C 0.63142 0.72603 0.1237 0.0
C3005 C 0.64282 0.78066 0.10648 0.0
C3006 C 0.63931 0.76154 0.11183 0.0
H3007 H 0.64733 0.66632 0.13555 0.0
H3008 H 0.65448 0.6976 0.12862 0.0
H3009 H 0.60919 0.72806 0.10519 0.0
H3010 H 0.62057 0.82042 0.10024 0.0
H3011 H 0.61502 0.78865 0.1055 0.0
C3012 C 0.81212 0.09988 0.64694 0.0
C3013 C 0.82423 0.11415 0.64861 0.0
C3014 C 0.79382 0.10341 0.64537 0.0
C3015 C 0.7546 0.11502 0.64949 0.0
H3016 H 0.74216 0.15395 0.61665 0.0
C3017 C 0.68194 0.13834 0.63962 0.0
C3018 C 0.67604 0.14047 0.6217 0.0
C3019 C 0.70003 0.13637 0.64355 0.0
C3020 C 0.7454 0.14302 0.62582 0.0
H3021 H 0.82632 0.14327 0.65111 0.0
H3022 H 0.79462 0.14929 0.64852 0.0
H3023 H 0.77337 0.14739 0.62316 0.0
H3024 H 0.68482 0.14315 0.59396 0.0
H3025 H 0.71648 0.13996 0.60088 0.0
H3026 H 0.72662 0.11053 0.652 0.0
C3027 C 0.79926 0.13541 0.64808 0.0
C3028 C 0.76329 0.13935 0.6297 0.0
C3029 C 0.81746 0.13191 0.64975 0.0
C3030 C 0.68885 0.1416 0.60791 0.0
C3031 C 0.70701 0.13974 0.61188 0.0
C3032 C 0.7367 0.1188 0.64575 0.0
C3033 C 0.78724 0.12127 0.64534 0.0
C3034 C 0.76813 0.12529 0.64157 0.0
C3035 C 0.71277 0.1366 0.62971 0.0
C3036 C 0.73186 0.13283 0.63384 0.0
H3037 H 0.81682 0.08606 0.64591 0.0
H3038 H 0.78493 0.09219 0.64327 0.0
H3039 H 0.75784 0.10414 0.65873 0.0
H3040 H 0.67253 0.13748 0.65064 0.0
H3041 H 0.70401 0.13435 0.65746 0.0
C3042 C 0.33972 0.19751 0.10369 0.0
C3043 C 0.35367 0.18512 0.10056 0.0
C3044 C 0.34329 0.21576 0.10703 0.0
C3045 C 0.3545 0.25555 0.10748 0.0
H3046 H 0.39384 0.26352 0.14027 0.0
C3047 C 0.36741 0.32602 0.13785 0.0
C3048 C 0.38517 0.33176 0.13857 0.0
C3049 C 0.36335 0.308 0.13409 0.0
C3050 C 0.38293 0.26161 0.13095 0.0
H3051 H 0.38224 0.18262 0.09716 0.0
H3052 H 0.38835 0.21434 0.10274 0.0
H3053 H 0.38729 0.23303 0.1301 0.0
H3054 H 0.41259 0.3227 0.13668 0.0
H3055 H 0.40554 0.2914 0.13001 0.0
H3056 H 0.35023 0.28414 0.10817 0.0
C3057 C 0.37469 0.20988 0.10302 0.0
C3058 C 0.37919 0.24409 0.12509 0.0
C3059 C 0.37114 0.19169 0.09963 0.0
C3060 C 0.39877 0.31879 0.13636 0.0
C3061 C 0.3947 0.30077 0.13251 0.0
C3062 C 0.35831 0.27311 0.11327 0.0
C3063 C 0.36088 0.22203 0.10736 0.0
C3064 C 0.36495 0.24082 0.11324 0.0
C3065 C 0.37692 0.29521 0.13087 0.0
C3066 C 0.37259 0.2764 0.12509 0.0
H3067 H 0.32612 0.19295 0.10458 0.0
H3068 H 0.33232 0.22473 0.11032 0.0
H3069 H 0.34354 0.25354 0.09825 0.0
H3070 H 0.35658 0.33559 0.13954 0.0
H3071 H 0.34951 0.30417 0.13339 0.0
C3072 C 0.12223 0.37355 0.1764 0.0
C3073 C 0.10448 0.37264 0.17051 0.0
C3074 C 0.12624 0.37708 0.1945 0.0
C3075 C 0.10696 0.39916 0.23465 0.0
H3076 H 0.1461 0.37616 0.26001 0.0
C3077 C 0.11895 0.40859 0.31126 0.0
C3078 C 0.13646 0.40789 0.31793 0.0
C3079 C 0.11544 0.40559 0.29297 0.0
C3080 C 0.13531 0.38296 0.25305 0.0
H3081 H 0.07703 0.3739 0.17938 0.0
H3082 H 0.08404 0.3799 0.21099 0.0
H3083 H 0.13895 0.36676 0.22934 0.0
H3084 H 0.16409 0.40464 0.31018 0.0
H3085 H 0.15799 0.39991 0.27819 0.0
H3086 H 0.10337 0.41547 0.25825 0.0
C3087 C 0.09486 0.37812 0.2015 0.0
C3088 C 0.13115 0.37748 0.23547 0.0
C3089 C 0.09085 0.37447 0.1834 0.0
C3090 C 0.15044 0.40524 0.30558 0.0
C3091 C 0.14692 0.40229 0.28723 0.0
C3092 C 0.11118 0.40472 0.2522 0.0
C3093 C 0.1126 0.37989 0.2072 0.0
C3094 C 0.11687 0.38544 0.22607 0.0
C3095 C 0.12933 0.40189 0.28077 0.0
C3096 C 0.12537 0.39665 0.26169 0.0
H3097 H 0.13309 0.37226 0.16688 0.0
H3098 H 0.14004 0.37842 0.19838 0.0
H3099 H 0.0961 0.40585 0.22769 0.0
H3100 H 0.10781 0.41053 0.32033 0.0
H3101 H 0.10172 0.40528 0.2886 0.0
C3102 C 0.17011 0.61213 0.69729 0.0
C3103 C 0.15617 0.60883 0.6851 0.0
C3104 C 0.16658 0.61545 0.7156 0.0
C3105 C 0.13071 0.61302 0.75073 0.0
H3106 H 0.15839 0.65018 0.77416 0.0
C3107 C 0.10945 0.64393 0.81913 0.0
C3108 C 0.12276 0.64482 0.83243 0.0
C3109 C 0.11384 0.64025 0.8011 0.0
C3110 C 0.1506 0.63971 0.76784 0.0
H3111 H 0.1276 0.60576 0.68295 0.0
H3112 H 0.12148 0.61179 0.71451 0.0
H3113 H 0.16572 0.64096 0.74341 0.0
H3114 H 0.15123 0.64349 0.8369 0.0
H3115 H 0.15885 0.63744 0.80544 0.0
H3116 H 0.11539 0.61208 0.77508 0.0
C3117 C 0.1352 0.61157 0.71012 0.0
C3118 C 0.15487 0.6343 0.75021 0.0
C3119 C 0.13873 0.60813 0.69189 0.0
C3120 C 0.14062 0.64294 0.82704 0.0
C3121 C 0.14501 0.63946 0.80898 0.0
C3122 C 0.12634 0.61856 0.76826 0.0
C3123 C 0.14902 0.61567 0.72221 0.0
C3124 C 0.14496 0.62089 0.74135 0.0
C3125 C 0.13164 0.63758 0.79586 0.0
C3126 C 0.13619 0.632 0.77704 0.0
H3127 H 0.18371 0.61276 0.69259 0.0
H3128 H 0.17765 0.61813 0.72452 0.0
H3129 H 0.12295 0.60242 0.7446 0.0
H3130 H 0.09556 0.64523 0.82275 0.0
H3131 H 0.10324 0.63916 0.79128 0.0
C3132 C 0.87906 0.62908 0.17273 0.0
C3133 C 0.89677 0.63035 0.16681 0.0
C3134 C 0.87516 0.62568 0.19088 0.0
C3135 C 0.89495 0.60441 0.23115 0.0
H3136 H 0.8556 0.62702 0.25652 0.0
C3137 C 0.88369 0.59557 0.30789 0.0
C3138 C 0.86623 0.59604 0.31471 0.0
C3139 C 0.887 0.59846 0.28954 0.0
C3140 C 0.86645 0.62032 0.24956 0.0
H3141 H 0.92425 0.62984 0.17563 0.0
H3142 H 0.91743 0.62404 0.20731 0.0
H3143 H 0.86241 0.63621 0.2257 0.0
H3144 H 0.83849 0.59877 0.30719 0.0
H3145 H 0.84424 0.60332 0.2751 0.0
H3146 H 0.89894 0.5884 0.25488 0.0
C3147 C 0.90656 0.62545 0.19783 0.0
C3148 C 0.87042 0.62569 0.2319 0.0
C3149 C 0.91046 0.62899 0.17968 0.0
C3150 C 0.85211 0.59836 0.30247 0.0
C3151 C 0.85542 0.6012 0.28407 0.0
C3152 C 0.89093 0.59896 0.24877 0.0
C3153 C 0.88888 0.62334 0.20357 0.0
C3154 C 0.88478 0.61788 0.2225 0.0
C3155 C 0.87295 0.60181 0.27744 0.0
C3156 C 0.87667 0.60689 0.25828 0.0
H3157 H 0.86816 0.63001 0.16321 0.0
H3158 H 0.86141 0.62406 0.19481 0.0
H3159 H 0.90588 0.59784 0.22419 0.0
H3160 H 0.89493 0.59385 0.31687 0.0
H3161 H 0.90067 0.59894 0.28505 0.0
C3162 C 0.89503 0.35838 0.8225 0.0
C3163 C 0.88152 0.35676 0.83552 0.0
C3164 C 0.89085 0.36234 0.80447 0.0
C3165 C 0.85416 0.36324 0.77085 0.0
H3166 H 0.8817 0.40124 0.74866 0.0
C3167 C 0.83379 0.39359 0.70183 0.0
C3168 C 0.84756 0.39666 0.68939 0.0
C3169 C 0.8376 0.3898 0.71998 0.0
C3170 C 0.87396 0.39048 0.75453 0.0
H3171 H 0.85295 0.35701 0.83943 0.0
H3172 H 0.84571 0.36365 0.80807 0.0
H3173 H 0.88943 0.39062 0.77881 0.0
H3174 H 0.87616 0.39908 0.68669 0.0
H3175 H 0.88276 0.39235 0.71805 0.0
H3176 H 0.83881 0.36292 0.74652 0.0
C3177 C 0.85954 0.36194 0.81177 0.0
C3178 C 0.87844 0.38435 0.77184 0.0
C3179 C 0.86372 0.35813 0.8298 0.0
C3180 C 0.86516 0.39683 0.69583 0.0
C3181 C 0.86897 0.39299 0.71392 0.0
C3182 C 0.84974 0.36929 0.75347 0.0
C3183 C 0.87306 0.3646 0.79897 0.0
C3184 C 0.86861 0.37064 0.78024 0.0
C3185 C 0.85529 0.38894 0.72619 0.0
C3186 C 0.85958 0.38301 0.74504 0.0
H3187 H 0.90888 0.35749 0.82639 0.0
H3188 H 0.90158 0.364 0.7949 0.0
H3189 H 0.84639 0.35256 0.77683 0.0
H3190 H 0.82008 0.39335 0.69741 0.0
H3191 H 0.82667 0.38717 0.72908 0.0
C3192 C 0.69293 0.85126 0.60951 0.0
C3193 C 0.68023 0.85254 0.6234 0.0
C3194 C 0.71113 0.85254 0.61338 0.0
C3195 C 0.74967 0.84849 0.62651 0.0
H3196 H 0.76245 0.88611 0.66045 0.0
C3197 C 0.8224 0.85912 0.64838 0.0
C3198 C 0.82859 0.87701 0.6482 0.0
C3199 C 0.80425 0.85548 0.64699 0.0
C3200 C 0.75912 0.87558 0.65092 0.0
H3201 H 0.67692 0.85509 0.65242 0.0
H3202 H 0.70849 0.85713 0.65907 0.0
H3203 H 0.73118 0.88017 0.65428 0.0
H3204 H 0.82028 0.9051 0.64733 0.0
H3205 H 0.78856 0.89872 0.64505 0.0
H3206 H 0.77761 0.84414 0.6229 0.0
C3207 C 0.7044 0.8555 0.64516 0.0
C3208 C 0.74118 0.87203 0.64751 0.0
C3209 C 0.68626 0.85415 0.64132 0.0
C3210 C 0.81603 0.89117 0.64758 0.0
C3211 C 0.79781 0.8875 0.64626 0.0
C3212 C 0.76761 0.85195 0.63002 0.0
C3213 C 0.71705 0.85519 0.63121 0.0
C3214 C 0.7362 0.85849 0.6352 0.0
C3215 C 0.79174 0.86959 0.64546 0.0
C3216 C 0.77258 0.8656 0.64221 0.0
H3217 H 0.6888 0.8501 0.59556 0.0
H3218 H 0.7205 0.85229 0.60229 0.0
H3219 H 0.74634 0.83791 0.61704 0.0
H3220 H 0.83163 0.84784 0.64892 0.0
H3221 H 0.80003 0.84154 0.64679 0.0
C3222 C 0.62265 0.18052 0.10009 0.0
C3223 C 0.64027 0.17399 0.10024 0.0
C3224 C 0.61892 0.19884 0.10296 0.0
C3225 C 0.63891 0.2391 0.12437 0.0
H3226 H 0.59857 0.26406 0.10307 0.0
C3227 C 0.62536 0.31578 0.13352 0.0
C3228 C 0.60762 0.32165 0.13537 0.0
C3229 C 0.62939 0.29765 0.12993 0.0
C3230 C 0.60976 0.25721 0.10931 0.0
H3231 H 0.66785 0.18199 0.10225 0.0
H3232 H 0.66137 0.214 0.10671 0.0
H3233 H 0.60592 0.23342 0.09341 0.0
H3234 H 0.58024 0.31277 0.13564 0.0
H3235 H 0.5873 0.2811 0.12948 0.0
H3236 H 0.64281 0.26299 0.14015 0.0
C3237 C 0.65038 0.20485 0.1049 0.0
C3238 C 0.61401 0.23962 0.10374 0.0
C3239 C 0.65411 0.18648 0.1021 0.0
C3240 C 0.59405 0.30875 0.13434 0.0
C3241 C 0.59809 0.29062 0.13061 0.0
C3242 C 0.63471 0.25672 0.12987 0.0
C3243 C 0.63271 0.21119 0.10596 0.0
C3244 C 0.62862 0.23028 0.11122 0.0
C3245 C 0.61579 0.28492 0.12798 0.0
C3246 C 0.62004 0.26599 0.12246 0.0
H3247 H 0.61161 0.17134 0.09873 0.0
H3248 H 0.60515 0.20311 0.10376 0.0
H3249 H 0.65002 0.23227 0.13075 0.0
H3250 H 0.63616 0.32532 0.1342 0.0
H3251 H 0.64316 0.29378 0.12791 0.0
C3252 C 0.18861 0.10836 0.64272 0.0
C3253 C 0.17624 0.12253 0.645 0.0
C3254 C 0.20679 0.11197 0.64094 0.0
C3255 C 0.24119 0.1472 0.64754 0.0
H3256 H 0.26553 0.12158 0.60903 0.0
C3257 C 0.31175 0.14805 0.60433 0.0
C3258 C 0.32404 0.14909 0.61859 0.0
C3259 C 0.29352 0.14648 0.60785 0.0
C3260 C 0.2589 0.129 0.61972 0.0
H3261 H 0.17354 0.15154 0.64822 0.0
H3262 H 0.2051 0.15776 0.64524 0.0
H3263 H 0.23462 0.11471 0.61572 0.0
H3264 H 0.32656 0.15042 0.64774 0.0
H3265 H 0.29491 0.14781 0.65382 0.0
H3266 H 0.26548 0.16162 0.6514 0.0
C3267 C 0.2008 0.14386 0.6448 0.0
C3268 C 0.24123 0.12485 0.62375 0.0
C3269 C 0.18264 0.14027 0.64648 0.0
C3270 C 0.31751 0.14964 0.6364 0.0
C3271 C 0.29931 0.14818 0.63991 0.0
C3272 C 0.25892 0.15128 0.64357 0.0
C3273 C 0.21307 0.12981 0.64151 0.0
C3274 C 0.23212 0.13388 0.63771 0.0
C3275 C 0.28711 0.14603 0.62571 0.0
C3276 C 0.26801 0.14226 0.62958 0.0
H3277 H 0.1842 0.09454 0.64149 0.0
H3278 H 0.2159 0.10078 0.63874 0.0
H3279 H 0.23463 0.15437 0.65844 0.0
H3280 H 0.31626 0.14755 0.59046 0.0
H3281 H 0.28447 0.14519 0.59657 0.0
C3282 C 0.37736 0.82234 0.09923 0.0
C3283 C 0.35976 0.82891 0.09967 0.0
C3284 C 0.3811 0.80401 0.10204 0.0
C3285 C 0.36141 0.7637 0.12367 0.0
H3286 H 0.40143 0.73882 0.10168 0.0
C3287 C 0.37533 0.68702 0.13263 0.0
C3288 C 0.39312 0.68123 0.13422 0.0
C3289 C 0.37116 0.70512 0.12906 0.0
C3290 C 0.39033 0.74565 0.10811 0.0
H3291 H 0.33221 0.82097 0.10215 0.0
H3292 H 0.33869 0.78894 0.1065 0.0
H3293 H 0.39391 0.76947 0.0922 0.0
H3294 H 0.42046 0.69024 0.13403 0.0
H3295 H 0.41316 0.72186 0.12791 0.0
H3296 H 0.35777 0.73977 0.13945 0.0
C3297 C 0.34967 0.79807 0.10451 0.0
C3298 C 0.38598 0.76324 0.10264 0.0
C3299 C 0.34592 0.81644 0.10178 0.0
C3300 C 0.40661 0.69419 0.13293 0.0
C3301 C 0.40244 0.7123 0.12922 0.0
C3302 C 0.3657 0.74607 0.12905 0.0
C3303 C 0.36734 0.79169 0.10526 0.0
C3304 C 0.37149 0.77257 0.11038 0.0
C3305 C 0.38468 0.71792 0.12687 0.0
C3306 C 0.38027 0.73683 0.1214 0.0
H3307 H 0.3884 0.8315 0.0977 0.0
H3308 H 0.39487 0.79972 0.10261 0.0
H3309 H 0.35039 0.77051 0.13024 0.0
H3310 H 0.36458 0.67743 0.13351 0.0
H3311 H 0.35735 0.70894 0.12726 0.0
C3312 C 0.69243 0.15836 0.38254 0.0
C3313 C 0.68009 0.14444 0.38514 0.0
C3314 C 0.71058 0.15442 0.3805 0.0
C3315 C 0.74506 0.11822 0.38601 0.0
H3316 H 0.76881 0.14441 0.34781 0.0
C3317 C 0.82114 0.11379 0.37326 0.0
C3318 C 0.82746 0.11544 0.35545 0.0
C3319 C 0.80299 0.1155 0.37712 0.0
C3320 C 0.76236 0.1368 0.35839 0.0
H3321 H 0.67748 0.1155 0.3887 0.0
H3322 H 0.70896 0.10869 0.38514 0.0
H3323 H 0.73809 0.15172 0.35521 0.0
H3324 H 0.81931 0.11905 0.32759 0.0
H3325 H 0.78765 0.12166 0.33428 0.0
H3326 H 0.76929 0.10306 0.38892 0.0
C3327 C 0.70467 0.12268 0.38472 0.0
C3328 C 0.74478 0.14122 0.36286 0.0
C3329 C 0.68654 0.12661 0.38675 0.0
C3330 C 0.81499 0.11771 0.34147 0.0
C3331 C 0.79681 0.11944 0.34534 0.0
C3332 C 0.76269 0.11381 0.38154 0.0
C3333 C 0.71689 0.13646 0.38104 0.0
C3334 C 0.73586 0.13203 0.37675 0.0
C3335 C 0.79062 0.11892 0.36328 0.0
C3336 C 0.77159 0.12303 0.36765 0.0
H3337 H 0.688 0.17225 0.38125 0.0
H3338 H 0.71962 0.16544 0.37809 0.0
H3339 H 0.7387 0.1109 0.39684 0.0
H3340 H 0.83031 0.11207 0.38441 0.0
H3341 H 0.7988 0.11509 0.39109 0.0
C3342 C 0.36533 0.30859 0.86442 0.0
C3343 C 0.38311 0.31433 0.86446 0.0
C3344 C 0.36112 0.29051 0.86776 0.0
C3345 C 0.37906 0.25034 0.89104 0.0
H3346 H 0.34194 0.22477 0.86568 0.0
C3347 C 0.36799 0.17372 0.89997 0.0
C3348 C 0.35075 0.16673 0.89823 0.0
C3349 C 0.37127 0.19204 0.89699 0.0
C3350 C 0.35214 0.23178 0.87314 0.0
H3351 H 0.41044 0.30522 0.86724 0.0
H3352 H 0.40309 0.27371 0.87296 0.0
H3353 H 0.34927 0.25553 0.85678 0.0
H3354 H 0.32325 0.17393 0.89296 0.0
H3355 H 0.32888 0.20601 0.88827 0.0
H3356 H 0.38186 0.22677 0.90753 0.0
C3357 C 0.39239 0.28328 0.87056 0.0
C3358 C 0.35641 0.24942 0.86794 0.0
C3359 C 0.39661 0.30133 0.86708 0.0
C3360 C 0.3367 0.1788 0.89442 0.0
C3361 C 0.33998 0.19719 0.89149 0.0
C3362 C 0.37472 0.23277 0.89632 0.0
C3363 C 0.37457 0.27771 0.87136 0.0
C3364 C 0.37002 0.25888 0.87674 0.0
C3365 C 0.35739 0.20398 0.89228 0.0
C3366 C 0.36128 0.22316 0.88737 0.0
H3367 H 0.35457 0.3182 0.86248 0.0
H3368 H 0.34726 0.28674 0.86832 0.0
H3369 H 0.38936 0.25735 0.89838 0.0
H3370 H 0.37919 0.16488 0.90281 0.0
H3371 H 0.38487 0.19662 0.89758 0.0
C3372 C 0.19183 0.87685 0.34251 0.0
C3373 C 0.17998 0.88353 0.35562 0.0
C3374 C 0.20994 0.87471 0.34638 0.0
C3375 C 0.2409 0.87085 0.3859 0.0
H3376 H 0.27658 0.87019 0.34817 0.0
C3377 C 0.31951 0.86702 0.39184 0.0
C3378 C 0.32654 0.85112 0.38409 0.0
C3379 C 0.30138 0.87128 0.39021 0.0
C3380 C 0.26671 0.87034 0.35882 0.0
H3381 H 0.17818 0.89438 0.38272 0.0
H3382 H 0.20985 0.89169 0.38915 0.0
H3383 H 0.24619 0.8793 0.34095 0.0
H3384 H 0.31977 0.82695 0.36913 0.0
H3385 H 0.28825 0.83468 0.36599 0.0
H3386 H 0.26193 0.86246 0.4038 0.0
C3387 C 0.20511 0.88732 0.37609 0.0
C3388 C 0.24922 0.87543 0.3547 0.0
C3389 C 0.18692 0.88913 0.37231 0.0
C3390 C 0.31483 0.8392 0.37543 0.0
C3391 C 0.2968 0.84366 0.37349 0.0
C3392 C 0.25852 0.86612 0.39006 0.0
C3393 C 0.21685 0.87952 0.36339 0.0
C3394 C 0.23591 0.8755 0.3681 0.0
C3395 C 0.29002 0.8599 0.38053 0.0
C3396 C 0.27149 0.86557 0.37649 0.0
H3397 H 0.18698 0.87217 0.32958 0.0
H3398 H 0.21829 0.86843 0.33625 0.0
H3399 H 0.23114 0.87036 0.39661 0.0
H3400 H 0.32815 0.87655 0.3985 0.0
H3401 H 0.29641 0.88389 0.39573 0.0
C3402 C 0.60358 0.7005 0.86903 0.0
C3403 C 0.61692 0.6875 0.86569 0.0
C3404 C 0.60801 0.71845 0.87277 0.0
C3405 C 0.64409 0.75217 0.86984 0.0
H3406 H 0.61999 0.77393 0.91077 0.0
C3407 C 0.66495 0.82201 0.8973 0.0
C3408 C 0.65106 0.83407 0.90166 0.0
C3409 C 0.66151 0.80369 0.89417 0.0
C3410 C 0.62675 0.76818 0.8992 0.0
H3411 H 0.64537 0.68354 0.86266 0.0
H3412 H 0.65302 0.71483 0.86895 0.0
H3413 H 0.61204 0.74364 0.90109 0.0
H3414 H 0.62276 0.83597 0.90707 0.0
H3415 H 0.6168 0.80434 0.90152 0.0
H3416 H 0.65863 0.77679 0.86775 0.0
C3417 C 0.63913 0.71114 0.86876 0.0
C3418 C 0.62215 0.75078 0.89362 0.0
C3419 C 0.63472 0.69316 0.86516 0.0
C3420 C 0.63384 0.82713 0.9038 0.0
C3421 C 0.6304 0.80888 0.90063 0.0
C3422 C 0.64862 0.76964 0.87535 0.0
C3423 C 0.62587 0.7239 0.87311 0.0
C3424 C 0.63069 0.74256 0.87882 0.0
C3425 C 0.64409 0.79696 0.89531 0.0
C3426 C 0.63996 0.77794 0.89007 0.0
H3427 H 0.58974 0.69668 0.86959 0.0
H3428 H 0.59744 0.72801 0.87574 0.0
H3429 H 0.65085 0.74631 0.85831 0.0
H3430 H 0.67838 0.82684 0.89552 0.0
H3431 H 0.67247 0.79487 0.89048 0.0
C3432 C 0.91081 0.62708 0.80327 0.0
C3433 C 0.89713 0.63026 0.81584 0.0
C3434 C 0.90684 0.62345 0.78515 0.0
C3435 C 0.87116 0.62624 0.75054 0.0
H3436 H 0.89629 0.58568 0.72905 0.0
C3437 C 0.85055 0.59809 0.68097 0.0
C3438 C 0.86447 0.59428 0.66884 0.0
C3439 C 0.8541 0.60122 0.69928 0.0
C3440 C 0.88923 0.59714 0.73475 0.0
H3441 H 0.86857 0.63316 0.81889 0.0
H3442 H 0.86171 0.627 0.78739 0.0
H3443 H 0.90391 0.59547 0.75947 0.0
H3444 H 0.89293 0.58972 0.66679 0.0
H3445 H 0.89905 0.59523 0.69847 0.0
H3446 H 0.85658 0.62804 0.72579 0.0
C3447 C 0.87551 0.62725 0.7915 0.0
C3448 C 0.89366 0.6028 0.75221 0.0
C3449 C 0.87947 0.63077 0.80962 0.0
C3450 C 0.88184 0.59259 0.6757 0.0
C3451 C 0.88537 0.59573 0.69396 0.0
C3452 C 0.86677 0.62063 0.73306 0.0
C3453 C 0.8891 0.62306 0.77914 0.0
C3454 C 0.8847 0.61744 0.76033 0.0
C3455 C 0.87163 0.60061 0.70592 0.0
C3456 C 0.87576 0.60601 0.7249 0.0
H3457 H 0.92456 0.62654 0.80756 0.0
H3458 H 0.91765 0.62059 0.77591 0.0
H3459 H 0.8641 0.63767 0.7563 0.0
H3460 H 0.83701 0.59951 0.6762 0.0
H3461 H 0.84312 0.60455 0.70816 0.0
C3462 C 0.83392 0.39526 0.32123 0.0
C3463 C 0.84768 0.39771 0.33383 0.0
C3464 C 0.83778 0.39201 0.30298 0.0
C3465 C 0.87414 0.39328 0.26857 0.0
H3466 H 0.84696 0.35534 0.2458 0.0
C3467 C 0.89584 0.36188 0.20048 0.0
C3468 C 0.88242 0.35966 0.18747 0.0
C3469 C 0.89151 0.36593 0.21845 0.0
C3470 C 0.8546 0.36606 0.25189 0.0
H3471 H 0.87629 0.39973 0.33675 0.0
H3472 H 0.88295 0.39404 0.30518 0.0
H3473 H 0.83918 0.36536 0.27616 0.0
H3474 H 0.85387 0.35905 0.18349 0.0
H3475 H 0.84638 0.36596 0.21472 0.0
H3476 H 0.88965 0.39385 0.24433 0.0
C3477 C 0.86915 0.39469 0.30928 0.0
C3478 C 0.85008 0.37189 0.2693 0.0
C3479 C 0.86531 0.39795 0.32748 0.0
C3480 C 0.86458 0.36064 0.19311 0.0
C3481 C 0.86026 0.3646 0.21108 0.0
C3482 C 0.87869 0.3874 0.25119 0.0
C3483 C 0.85549 0.39114 0.29686 0.0
C3484 C 0.8598 0.38557 0.27792 0.0
C3485 C 0.87366 0.36775 0.2239 0.0
C3486 C 0.86902 0.37368 0.24261 0.0
H3487 H 0.82019 0.39497 0.32558 0.0
H3488 H 0.82687 0.38974 0.29375 0.0
H3489 H 0.8818 0.40401 0.27462 0.0
H3490 H 0.90972 0.36125 0.19666 0.0
H3491 H 0.90218 0.36794 0.22803 0.0
C3492 C 0.12187 0.37344 0.81373 0.0
C3493 C 0.10415 0.37324 0.8198 0.0
C3494 C 0.12583 0.37661 0.79555 0.0
C3495 C 0.10696 0.39891 0.75533 0.0
H3496 H 0.14514 0.37433 0.72992 0.0
C3497 C 0.11877 0.40735 0.67858 0.0
C3498 C 0.13623 0.40619 0.67185 0.0
C3499 C 0.11525 0.40448 0.6969 0.0
C3500 C 0.13462 0.38156 0.73689 0.0
H3501 H 0.07667 0.37542 0.81118 0.0
H3502 H 0.0836 0.38082 0.77944 0.0
H3503 H 0.1379 0.36549 0.76074 0.0
H3504 H 0.1638 0.40214 0.67945 0.0
H3505 H 0.15771 0.39759 0.71149 0.0
H3506 H 0.10374 0.41508 0.73158 0.0
C3507 C 0.09444 0.37875 0.78885 0.0
C3508 C 0.13041 0.3764 0.75456 0.0
C3509 C 0.09047 0.37545 0.80703 0.0
C3510 C 0.15019 0.40311 0.68412 0.0
C3511 C 0.14666 0.40028 0.70249 0.0
C3512 C 0.11123 0.40413 0.73769 0.0
C3513 C 0.11218 0.37978 0.78296 0.0
C3514 C 0.11648 0.38496 0.76399 0.0
C3515 C 0.1291 0.40043 0.70904 0.0
C3516 C 0.12508 0.39549 0.72818 0.0
H3517 H 0.13277 0.37181 0.82316 0.0
H3518 H 0.13964 0.37739 0.79153 0.0
H3519 H 0.09638 0.40605 0.7623 0.0
H3520 H 0.10764 0.40963 0.66957 0.0
H3521 H 0.10155 0.40459 0.70134 0.0
C3522 C 0.16813 0.60324 0.31754 0.0
C3523 C 0.15437 0.60137 0.33024 0.0
C3524 C 0.16429 0.60666 0.29933 0.0
C3525 C 0.12757 0.60727 0.26517 0.0
H3526 H 0.1569 0.64323 0.24195 0.0
C3527 C 0.1076 0.63965 0.1969 0.0
C3528 C 0.12109 0.64067 0.18379 0.0
C3529 C 0.11172 0.63545 0.21489 0.0
C3530 C 0.14864 0.63308 0.24817 0.0
H3531 H 0.12571 0.60055 0.33335 0.0
H3532 H 0.11907 0.60662 0.30185 0.0
H3533 H 0.1642 0.63303 0.27235 0.0
H3534 H 0.14959 0.63896 0.17964 0.0
H3535 H 0.15672 0.63186 0.21093 0.0
H3536 H 0.11191 0.60753 0.24102 0.0
C3537 C 0.13287 0.60536 0.30584 0.0
C3538 C 0.15289 0.62712 0.26561 0.0
C3539 C 0.13669 0.60188 0.32401 0.0
C3540 C 0.13884 0.63831 0.18934 0.0
C3541 C 0.14296 0.63425 0.20733 0.0
C3542 C 0.12328 0.61331 0.24777 0.0
C3543 C 0.14659 0.60833 0.29331 0.0
C3544 C 0.14242 0.61412 0.27439 0.0
C3545 C 0.12942 0.63232 0.22026 0.0
C3546 C 0.13375 0.6263 0.23903 0.0
H3547 H 0.1819 0.60291 0.32179 0.0
H3548 H 0.17524 0.60843 0.29003 0.0
H3549 H 0.11932 0.59707 0.27132 0.0
H3550 H 0.09378 0.64132 0.19313 0.0
H3551 H 0.10098 0.63436 0.22455 0.0
loop_
_geom_bond_atom_site_label_1
_geom_bond_atom_site_label_2
_geom_bond_distance
_geom_bond_site_symmetry_2
_ccdc_geom_bond_type
Zn0 O3 2.031 . S
Zn0 O5 2.049 . S
Zn0 O10 2.067 . S
Zn1 O2 1.962 . S
Zn1 O4 1.986 . S
Zn1 O6 1.996 . S
Zn1 O9 1.943 . S
O2 Zn1 1.962 . S
O2 C7 1.254 . S
O3 Zn0 2.031 . S
O3 C7 1.269 . S
O4 Zn1 1.986 . S
O4 C11 1.262 . S
O5 Zn0 2.049 . S
O5 C13 1.260 . S
O6 Zn1 1.996 . S
O6 C13 1.257 . S
C7 O2 1.254 . S
C7 O3 1.269 . S
C8 O9 1.249 . S
C8 O10 1.270 . S
O9 Zn1 1.943 . S
O9 C8 1.249 . S
O10 Zn0 2.067 . S
O10 C8 1.270 . S
C11 O4 1.262 . S
C11 O12 1.232 . S
O12 C11 1.232 . S
C13 O5 1.260 . S
C13 O6 1.257 . S
Zn14 O17 2.031 . S
Zn14 O19 2.049 . S
Zn14 O24 2.067 . S
Zn15 O16 1.962 . S
Zn15 O18 1.986 . S
Zn15 O20 1.996 . S
Zn15 O23 1.943 . S
O16 Zn15 1.962 . S
O16 C21 1.254 . S
O17 Zn14 2.031 . S
O17 C21 1.269 . S
O18 Zn15 1.986 . S
O18 C25 1.262 . S
O19 Zn14 2.049 . S
O19 C27 1.260 . S
O20 Zn15 1.996 . S
O20 C27 1.257 . S
C21 O16 1.254 . S
C21 O17 1.269 . S
C22 O23 1.249 . S
C22 O24 1.270 . S
O23 Zn15 1.943 . S
O23 C22 1.249 . S
O24 Zn14 2.067 . S
O24 C22 1.270 . S
C25 O18 1.262 . S
C25 O26 1.232 . S
O26 C25 1.232 . S
C27 O19 1.260 . S
C27 O20 1.257 . S
Zn28 O31 2.031 . S
Zn28 O33 2.049 . S
Zn28 O38 2.067 . S
Zn29 O30 1.962 . S
Zn29 O32 1.986 . S
Zn29 O34 1.996 . S
Zn29 O37 1.943 . S
O30 Zn29 1.962 . S
O30 C35 1.254 . S
O31 Zn28 2.031 . S
O31 C35 1.269 . S
O32 Zn29 1.986 . S
O32 C39 1.262 . S
O33 Zn28 2.049 . S
O33 C41 1.260 . S
O34 Zn29 1.996 . S
O34 C41 1.257 . S
C35 O30 1.254 . S
C35 O31 1.269 . S
C36 O37 1.249 . S
C36 O38 1.270 . S
O37 Zn29 1.943 . S
O37 C36 1.249 . S
O38 Zn28 2.067 . S
O38 C36 1.270 . S
C39 O32 1.262 . S
C39 O40 1.232 . S
O40 C39 1.232 . S
C41 O33 1.260 . S
C41 O34 1.257 . S
Zn42 O45 2.031 . S
Zn42 O47 2.049 . S
Zn42 O52 2.067 . S
Zn43 O44 1.962 . S
Zn43 O46 1.986 . S
Zn43 O48 1.996 . S
Zn43 O51 1.943 . S
O44 Zn43 1.962 . S
O44 C49 1.254 . S
O45 Zn42 2.031 . S
O45 C49 1.269 . S
O46 Zn43 1.986 . S
O46 C53 1.262 . S
O47 Zn42 2.049 . S
O47 C55 1.260 . S
O48 Zn43 1.996 . S
O48 C55 1.257 . S
C49 O44 1.254 . S
C49 O45 1.269 . S
C50 O51 1.249 . S
C50 O52 1.270 . S
O51 Zn43 1.943 . S
O51 C50 1.249 . S
O52 Zn42 2.067 . S
O52 C50 1.270 . S
C53 O46 1.262 . S
C53 O54 1.232 . S
O54 C53 1.232 . S
C55 O47 1.260 . S
C55 O48 1.257 . S
Zn56 O59 2.031 . S
Zn56 O61 2.049 . S
Zn56 O66 2.067 . S
Zn57 O58 1.962 . S
Zn57 O60 1.986 . S
Zn57 O62 1.996 . S
Zn57 O65 1.943 . S
O58 Zn57 1.962 . S
O58 C63 1.254 . S
O59 Zn56 2.031 . S
O59 C63 1.269 . S
O60 Zn57 1.986 . S
O60 C67 1.262 . S
O61 Zn56 2.049 . S
O61 C69 1.260 . S
O62 Zn57 1.996 . S
O62 C69 1.257 . S
C63 O58 1.254 . S
C63 O59 1.269 . S
C64 O65 1.249 . S
C64 O66 1.270 . S
O65 Zn57 1.943 . S
O65 C64 1.249 . S
O66 Zn56 2.067 . S
O66 C64 1.270 . S
C67 O60 1.262 . S
C67 O68 1.232 . S
O68 C67 1.232 . S
C69 O61 1.260 . S
C69 O62 1.257 . S
Zn70 O73 2.031 . S
Zn70 O75 2.049 . S
Zn70 O80 2.067 . S
Zn71 O72 1.962 . S
Zn71 O74 1.986 . S
Zn71 O76 1.996 . S
Zn71 O79 1.943 . S
O72 Zn71 1.962 . S
O72 C77 1.254 . S
O73 Zn70 2.031 . S
O73 C77 1.269 . S
O74 Zn71 1.986 . S
O74 C81 1.262 . S
O75 Zn70 2.049 . S
O75 C83 1.260 . S
O76 Zn71 1.996 . S
O76 C83 1.257 . S
C77 O72 1.254 . S
C77 O73 1.269 . S
C78 O79 1.249 . S
C78 O80 1.270 . S
O79 Zn71 1.943 . S
O79 C78 1.249 . S
O80 Zn70 2.067 . S
O80 C78 1.270 . S
C81 O74 1.262 . S
C81 O82 1.232 . S
O82 C81 1.232 . S
C83 O75 1.260 . S
C83 O76 1.257 . S
Zn84 O87 2.031 . S
Zn84 O89 2.049 . S
Zn84 O94 2.067 . S
Zn85 O86 1.962 . S
Zn85 O88 1.986 . S
Zn85 O90 1.996 . S
Zn85 O93 1.943 . S
O86 Zn85 1.962 . S
O86 C91 1.254 . S
O87 Zn84 2.031 . S
O87 C91 1.269 . S
O88 Zn85 1.986 . S
O88 C95 1.262 . S
O89 Zn84 2.049 . S
O89 C97 1.260 . S
O90 Zn85 1.996 . S
O90 C97 1.257 . S
C91 O86 1.254 . S
C91 O87 1.269 . S
C92 O93 1.249 . S
C92 O94 1.270 . S
O93 Zn85 1.943 . S
O93 C92 1.249 . S
O94 Zn84 2.067 . S
O94 C92 1.270 . S
C95 O88 1.262 . S
C95 O96 1.232 . S
O96 C95 1.232 . S
C97 O89 1.260 . S
C97 O90 1.257 . S
Zn98 O101 2.031 . S
Zn98 O103 2.049 . S
Zn98 O108 2.067 . S
Zn99 O100 1.962 . S
Zn99 O102 1.986 . S
Zn99 O104 1.996 . S
Zn99 O107 1.943 . S
O100 Zn99 1.962 . S
O100 C105 1.254 . S
O101 Zn98 2.031 . S
O101 C105 1.269 . S
O102 Zn99 1.986 . S
O102 C109 1.262 . S
O103 Zn98 2.049 . S
O103 C111 1.260 . S
O104 Zn99 1.996 . S
O104 C111 1.257 . S
C105 O100 1.254 . S
C105 O101 1.269 . S
C106 O107 1.249 . S
C106 O108 1.270 . S
O107 Zn99 1.943 . S
O107 C106 1.249 . S
O108 Zn98 2.067 . S
O108 C106 1.270 . S
C109 O102 1.262 . S
C109 O110 1.232 . S
O110 C109 1.232 . S
C111 O103 1.260 . S
C111 O104 1.257 . S
Zn112 O115 2.031 . S
Zn112 O117 2.049 . S
Zn112 O122 2.067 . S
Zn113 O114 1.962 . S
Zn113 O116 1.986 . S
Zn113 O118 1.996 . S
Zn113 O121 1.943 . S
O114 Zn113 1.962 . S
O114 C119 1.254 . S
O115 Zn112 2.031 . S
O115 C119 1.269 . S
O116 Zn113 1.986 . S
O116 C123 1.262 . S
O117 Zn112 2.049 . S
O117 C125 1.260 . S
O118 Zn113 1.996 . S
O118 C125 1.257 . S
C119 O114 1.254 . S
C119 O115 1.269 . S
C120 O121 1.249 . S
C120 O122 1.270 . S
O121 Zn113 1.943 . S
O121 C120 1.249 . S
O122 Zn112 2.067 . S
O122 C120 1.270 . S
C123 O116 1.262 . S
C123 O124 1.232 . S
O124 C123 1.232 . S
C125 O117 1.260 . S
C125 O118 1.257 . S
Zn126 O129 2.031 . S
Zn126 O131 2.049 . S
Zn126 O136 2.067 . S
Zn127 O128 1.962 . S
Zn127 O130 1.986 . S
Zn127 O132 1.996 . S
Zn127 O135 1.943 . S
O128 Zn127 1.962 . S
O128 C133 1.254 . S
O129 Zn126 2.031 . S
O129 C133 1.269 . S
O130 Zn127 1.986 . S
O130 C137 1.262 . S
O131 Zn126 2.049 . S
O131 C139 1.260 . S
O132 Zn127 1.996 . S
O132 C139 1.257 . S
C133 O128 1.254 . S
C133 O129 1.269 . S
C134 O135 1.249 . S
C134 O136 1.270 . S
O135 Zn127 1.943 . S
O135 C134 1.249 . S
O136 Zn126 2.067 . S
O136 C134 1.270 . S
C137 O130 1.262 . S
C137 O138 1.232 . S
O138 C137 1.232 . S
C139 O131 1.260 . S
C139 O132 1.257 . S
Zn140 O143 2.031 . S
Zn140 O145 2.049 . S
Zn140 O150 2.067 . S
Zn141 O142 1.962 . S
Zn141 O144 1.986 . S
Zn141 O146 1.996 . S
Zn141 O149 1.943 . S
O142 Zn141 1.962 . S
O142 C147 1.254 . S
O143 Zn140 2.031 . S
O143 C147 1.269 . S
O144 Zn141 1.986 . S
O144 C151 1.262 . S
O145 Zn140 2.049 . S
O145 C153 1.260 . S
O146 Zn141 1.996 . S
O146 C153 1.257 . S
C147 O142 1.254 . S
C147 O143 1.269 . S
C148 O149 1.249 . S
C148 O150 1.270 . S
O149 Zn141 1.943 . S
O149 C148 1.249 . S
O150 Zn140 2.067 . S
O150 C148 1.270 . S
C151 O144 1.262 . S
C151 O152 1.232 . S
O152 C151 1.232 . S
C153 O145 1.260 . S
C153 O146 1.257 . S
Zn154 O157 2.031 . S
Zn154 O159 2.049 . S
Zn154 O164 2.067 . S
Zn155 O156 1.962 . S
Zn155 O158 1.986 . S
Zn155 O160 1.996 . S
Zn155 O163 1.943 . S
O156 Zn155 1.962 . S
O156 C161 1.254 . S
O157 Zn154 2.031 . S
O157 C161 1.269 . S
O158 Zn155 1.986 . S
O158 C165 1.262 . S
O159 Zn154 2.049 . S
O159 C167 1.260 . S
O160 Zn155 1.996 . S
O160 C167 1.257 . S
C161 O156 1.254 . S
C161 O157 1.269 . S
C162 O163 1.249 . S
C162 O164 1.270 . S
O163 Zn155 1.943 . S
O163 C162 1.249 . S
O164 Zn154 2.067 . S
O164 C162 1.270 . S
C165 O158 1.262 . S
C165 O166 1.232 . S
O166 C165 1.232 . S
C167 O159 1.260 . S
C167 O160 1.257 . S
Zn168 O171 2.031 . S
Zn168 O173 2.049 . S
Zn168 O178 2.067 . S
Zn169 O170 1.962 . S
Zn169 O172 1.986 . S
Zn169 O174 1.996 . S
Zn169 O177 1.943 . S
O170 Zn169 1.962 . S
O170 C175 1.254 . S
O171 Zn168 2.031 . S
O171 C175 1.269 . S
O172 Zn169 1.986 . S
O172 C179 1.262 . S
O173 Zn168 2.049 . S
O173 C181 1.260 . S
O174 Zn169 1.996 . S
O174 C181 1.257 . S
C175 O170 1.254 . S
C175 O171 1.269 . S
C176 O177 1.249 . S
C176 O178 1.270 . S
O177 Zn169 1.943 . S
O177 C176 1.249 . S
O178 Zn168 2.067 . S
O178 C176 1.270 . S
C179 O172 1.262 . S
C179 O180 1.232 . S
O180 C179 1.232 . S
C181 O173 1.260 . S
C181 O174 1.257 . S
Zn182 O185 2.031 . S
Zn182 O187 2.049 . S
Zn182 O192 2.067 . S
Zn183 O184 1.962 . S
Zn183 O186 1.986 . S
Zn183 O188 1.996 . S
Zn183 O191 1.943 . S
O184 Zn183 1.962 . S
O184 C189 1.254 . S
O185 Zn182 2.031 . S
O185 C189 1.269 . S
O186 Zn183 1.986 . S
O186 C193 1.262 . S
O187 Zn182 2.049 . S
O187 C195 1.260 . S
O188 Zn183 1.996 . S
O188 C195 1.257 . S
C189 O184 1.254 . S
C189 O185 1.269 . S
C190 O191 1.249 . S
C190 O192 1.270 . S
O191 Zn183 1.943 . S
O191 C190 1.249 . S
O192 Zn182 2.067 . S
O192 C190 1.270 . S
C193 O186 1.262 . S
C193 O194 1.232 . S
O194 C193 1.232 . S
C195 O187 1.260 . S
C195 O188 1.257 . S
Zn196 O199 2.031 . S
Zn196 O201 2.049 . S
Zn196 O206 2.067 . S
Zn197 O198 1.962 . S
Zn197 O200 1.986 . S
Zn197 O202 1.996 . S
Zn197 O205 1.943 . S
O198 Zn197 1.962 . S
O198 C203 1.254 . S
O199 Zn196 2.031 . S
O199 C203 1.269 . S
O200 Zn197 1.986 . S
O200 C207 1.262 . S
O201 Zn196 2.049 . S
O201 C209 1.260 . S
O202 Zn197 1.996 . S
O202 C209 1.257 . S
C203 O198 1.254 . S
C203 O199 1.269 . S
C204 O205 1.249 . S
C204 O206 1.270 . S
O205 Zn197 1.943 . S
O205 C204 1.249 . S
O206 Zn196 2.067 . S
O206 C204 1.270 . S
C207 O200 1.262 . S
C207 O208 1.232 . S
O208 C207 1.232 . S
C209 O201 1.260 . S
C209 O202 1.257 . S
Zn210 O213 2.031 . S
Zn210 O215 2.049 . S
Zn210 O220 2.067 . S
Zn211 O212 1.962 . S
Zn211 O214 1.986 . S
Zn211 O216 1.996 . S
Zn211 O219 1.943 . S
O212 Zn211 1.962 . S
O212 C217 1.254 . S
O213 Zn210 2.031 . S
O213 C217 1.269 . S
O214 Zn211 1.986 . S
O214 C221 1.262 . S
O215 Zn210 2.049 . S
O215 C223 1.260 . S
O216 Zn211 1.996 . S
O216 C223 1.257 . S
C217 O212 1.254 . S
C217 O213 1.269 . S
C218 O219 1.249 . S
C218 O220 1.270 . S
O219 Zn211 1.943 . S
O219 C218 1.249 . S
O220 Zn210 2.067 . S
O220 C218 1.270 . S
C221 O214 1.262 . S
C221 O222 1.232 . S
O222 C221 1.232 . S
C223 O215 1.260 . S
C223 O216 1.257 . S
Zn224 O227 2.031 . S
Zn224 O229 2.049 . S
Zn224 O234 2.067 . S
Zn225 O226 1.962 . S
Zn225 O228 1.986 . S
Zn225 O230 1.996 . S
Zn225 O233 1.943 . S
O226 Zn225 1.962 . S
O226 C231 1.254 . S
O227 Zn224 2.031 . S
O227 C231 1.269 . S
O228 Zn225 1.986 . S
O228 C235 1.262 . S
O229 Zn224 2.049 . S
O229 C237 1.260 . S
O230 Zn225 1.996 . S
O230 C237 1.257 . S
C231 O226 1.254 . S
C231 O227 1.269 . S
C232 O233 1.249 . S
C232 O234 1.270 . S
O233 Zn225 1.943 . S
O233 C232 1.249 . S
O234 Zn224 2.067 . S
O234 C232 1.270 . S
C235 O228 1.262 . S
C235 O236 1.232 . S
O236 C235 1.232 . S
C237 O229 1.260 . S
C237 O230 1.257 . S
Zn238 O241 2.031 . S
Zn238 O243 2.049 . S
Zn238 O248 2.067 . S
Zn239 O240 1.962 . S
Zn239 O242 1.986 . S
Zn239 O244 1.996 . S
Zn239 O247 1.943 . S
O240 Zn239 1.962 . S
O240 C245 1.254 . S
O241 Zn238 2.031 . S
O241 C245 1.269 . S
O242 Zn239 1.986 . S
O242 C249 1.262 . S
O243 Zn238 2.049 . S
O243 C251 1.260 . S
O244 Zn239 1.996 . S
O244 C251 1.257 . S
C245 O240 1.254 . S
C245 O241 1.269 . S
C246 O247 1.249 . S
C246 O248 1.270 . S
O247 Zn239 1.943 . S
O247 C246 1.249 . S
O248 Zn238 2.067 . S
O248 C246 1.270 . S
C249 O242 1.262 . S
C249 O250 1.232 . S
O250 C249 1.232 . S
C251 O243 1.260 . S
C251 O244 1.257 . S
Zn252 O255 2.031 . S
Zn252 O257 2.049 . S
Zn252 O262 2.067 . S
Zn253 O254 1.962 . S
Zn253 O256 1.986 . S
Zn253 O258 1.996 . S
Zn253 O261 1.943 . S
O254 Zn253 1.962 . S
O254 C259 1.254 . S
O255 Zn252 2.031 . S
O255 C259 1.269 . S
O256 Zn253 1.986 . S
O256 C263 1.262 . S
O257 Zn252 2.049 . S
O257 C265 1.260 . S
O258 Zn253 1.996 . S
O258 C265 1.257 . S
C259 O254 1.254 . S
C259 O255 1.269 . S
C260 O261 1.249 . S
C260 O262 1.270 . S
O261 Zn253 1.943 . S
O261 C260 1.249 . S
O262 Zn252 2.067 . S
O262 C260 1.270 . S
C263 O256 1.262 . S
C263 O264 1.232 . S
O264 C263 1.232 . S
C265 O257 1.260 . S
C265 O258 1.257 . S
Zn266 O269 2.031 . S
Zn266 O271 2.049 . S
Zn266 O276 2.067 . S
Zn267 O268 1.962 . S
Zn267 O270 1.986 . S
Zn267 O272 1.996 . S
Zn267 O275 1.943 . S
O268 Zn267 1.962 . S
O268 C273 1.254 . S
O269 Zn266 2.031 . S
O269 C273 1.269 . S
O270 Zn267 1.986 . S
O270 C277 1.262 . S
O271 Zn266 2.049 . S
O271 C279 1.260 . S
O272 Zn267 1.996 . S
O272 C279 1.257 . S
C273 O268 1.254 . S
C273 O269 1.269 . S
C274 O275 1.249 . S
C274 O276 1.270 . S
O275 Zn267 1.943 . S
O275 C274 1.249 . S
O276 Zn266 2.067 . S
O276 C274 1.270 . S
C277 O270 1.262 . S
C277 O278 1.232 . S
O278 C277 1.232 . S
C279 O271 1.260 . S
C279 O272 1.257 . S
Zn280 O283 2.031 . S
Zn280 O285 2.049 . S
Zn280 O290 2.067 . S
Zn281 O282 1.962 . S
Zn281 O284 1.986 . S
Zn281 O286 1.996 . S
Zn281 O289 1.943 . S
O282 Zn281 1.962 . S
O282 C287 1.254 . S
O283 Zn280 2.031 . S
O283 C287 1.269 . S
O284 Zn281 1.986 . S
O284 C291 1.262 . S
O285 Zn280 2.049 . S
O285 C293 1.260 . S
O286 Zn281 1.996 . S
O286 C293 1.257 . S
C287 O282 1.254 . S
C287 O283 1.269 . S
C288 O289 1.249 . S
C288 O290 1.270 . S
O289 Zn281 1.943 . S
O289 C288 1.249 . S
O290 Zn280 2.067 . S
O290 C288 1.270 . S
C291 O284 1.262 . S
C291 O292 1.232 . S
O292 C291 1.232 . S
C293 O285 1.260 . S
C293 O286 1.257 . S
Zn294 O297 2.031 . S
Zn294 O299 2.049 . S
Zn294 O304 2.067 . S
Zn295 O296 1.962 . S
Zn295 O298 1.986 . S
Zn295 O300 1.996 . S
Zn295 O303 1.943 . S
O296 Zn295 1.962 . S
O296 C301 1.254 . S
O297 Zn294 2.031 . S
O297 C301 1.269 . S
O298 Zn295 1.986 . S
O298 C305 1.262 . S
O299 Zn294 2.049 . S
O299 C307 1.260 . S
O300 Zn295 1.996 . S
O300 C307 1.257 . S
C301 O296 1.254 . S
C301 O297 1.269 . S
C302 O303 1.249 . S
C302 O304 1.270 . S
O303 Zn295 1.943 . S
O303 C302 1.249 . S
O304 Zn294 2.067 . S
O304 C302 1.270 . S
C305 O298 1.262 . S
C305 O306 1.232 . S
O306 C305 1.232 . S
C307 O299 1.260 . S
C307 O300 1.257 . S
Zn308 O311 2.031 . S
Zn308 O313 2.049 . S
Zn308 O318 2.067 . S
Zn309 O310 1.962 . S
Zn309 O312 1.986 . S
Zn309 O314 1.996 . S
Zn309 O317 1.943 . S
O310 Zn309 1.962 . S
O310 C315 1.254 . S
O311 Zn308 2.031 . S
O311 C315 1.269 . S
O312 Zn309 1.986 . S
O312 C319 1.262 . S
O313 Zn308 2.049 . S
O313 C321 1.260 . S
O314 Zn309 1.996 . S
O314 C321 1.257 . S
C315 O310 1.254 . S
C315 O311 1.269 . S
C316 O317 1.249 . S
C316 O318 1.270 . S
O317 Zn309 1.943 . S
O317 C316 1.249 . S
O318 Zn308 2.067 . S
O318 C316 1.270 . S
C319 O312 1.262 . S
C319 O320 1.232 . S
O320 C319 1.232 . S
C321 O313 1.260 . S
C321 O314 1.257 . S
Zn322 O325 2.031 . S
Zn322 O327 2.049 . S
Zn322 O332 2.067 . S
Zn323 O324 1.962 . S
Zn323 O326 1.986 . S
Zn323 O328 1.996 . S
Zn323 O331 1.943 . S
O324 Zn323 1.962 . S
O324 C329 1.254 . S
O325 Zn322 2.031 . S
O325 C329 1.269 . S
O326 Zn323 1.986 . S
O326 C333 1.262 . S
O327 Zn322 2.049 . S
O327 C335 1.260 . S
O328 Zn323 1.996 . S
O328 C335 1.257 . S
C329 O324 1.254 . S
C329 O325 1.269 . S
C330 O331 1.249 . S
C330 O332 1.270 . S
O331 Zn323 1.943 . S
O331 C330 1.249 . S
O332 Zn322 2.067 . S
O332 C330 1.270 . S
C333 O326 1.262 . S
C333 O334 1.232 . S
O334 C333 1.232 . S
C335 O327 1.260 . S
C335 O328 1.257 . S
Zn336 O339 2.031 . S
Zn336 O341 2.049 . S
Zn336 O346 2.067 . S
Zn337 O338 1.962 . S
Zn337 O340 1.986 . S
Zn337 O342 1.996 . S
Zn337 O345 1.943 . S
O338 Zn337 1.962 . S
O338 C343 1.254 . S
O339 Zn336 2.031 . S
O339 C343 1.269 . S
O340 Zn337 1.986 . S
O340 C347 1.262 . S
O341 Zn336 2.049 . S
O341 C349 1.260 . S
O342 Zn337 1.996 . S
O342 C349 1.257 . S
C343 O338 1.254 . S
C343 O339 1.269 . S
C344 O345 1.249 . S
C344 O346 1.270 . S
O345 Zn337 1.943 . S
O345 C344 1.249 . S
O346 Zn336 2.067 . S
O346 C344 1.270 . S
C347 O340 1.262 . S
C347 O348 1.232 . S
O348 C347 1.232 . S
C349 O341 1.260 . S
C349 O342 1.257 . S
Zn350 O353 2.031 . S
Zn350 O355 2.049 . S
Zn350 O360 2.067 . S
Zn351 O352 1.962 . S
Zn351 O354 1.986 . S
Zn351 O356 1.996 . S
Zn351 O359 1.943 . S
O352 Zn351 1.962 . S
O352 C357 1.254 . S
O353 Zn350 2.031 . S
O353 C357 1.269 . S
O354 Zn351 1.986 . S
O354 C361 1.262 . S
O355 Zn350 2.049 . S
O355 C363 1.260 . S
O356 Zn351 1.996 . S
O356 C363 1.257 . S
C357 O352 1.254 . S
C357 O353 1.269 . S
C358 O359 1.249 . S
C358 O360 1.270 . S
O359 Zn351 1.943 . S
O359 C358 1.249 . S
O360 Zn350 2.067 . S
O360 C358 1.270 . S
C361 O354 1.262 . S
C361 O362 1.232 . S
O362 C361 1.232 . S
C363 O355 1.260 . S
C363 O356 1.257 . S
Zn364 O367 2.031 . S
Zn364 O369 2.049 . S
Zn364 O374 2.067 . S
Zn365 O366 1.962 . S
Zn365 O368 1.986 . S
Zn365 O370 1.996 . S
Zn365 O373 1.943 . S
O366 Zn365 1.962 . S
O366 C371 1.254 . S
O367 Zn364 2.031 . S
O367 C371 1.269 . S
O368 Zn365 1.986 . S
O368 C375 1.262 . S
O369 Zn364 2.049 . S
O369 C377 1.260 . S
O370 Zn365 1.996 . S
O370 C377 1.257 . S
C371 O366 1.254 . S
C371 O367 1.269 . S
C372 O373 1.249 . S
C372 O374 1.270 . S
O373 Zn365 1.943 . S
O373 C372 1.249 . S
O374 Zn364 2.067 . S
O374 C372 1.270 . S
C375 O368 1.262 . S
C375 O376 1.232 . S
O376 C375 1.232 . S
C377 O369 1.260 . S
C377 O370 1.257 . S
Zn378 O381 2.031 . S
Zn378 O383 2.049 . S
Zn378 O388 2.067 . S
Zn379 O380 1.962 . S
Zn379 O382 1.986 . S
Zn379 O384 1.996 . S
Zn379 O387 1.943 . S
O380 Zn379 1.962 . S
O380 C385 1.254 . S
O381 Zn378 2.031 . S
O381 C385 1.269 . S
O382 Zn379 1.986 . S
O382 C389 1.262 . S
O383 Zn378 2.049 . S
O383 C391 1.260 . S
O384 Zn379 1.996 . S
O384 C391 1.257 . S
C385 O380 1.254 . S
C385 O381 1.269 . S
C386 O387 1.249 . S
C386 O388 1.270 . S
O387 Zn379 1.943 . S
O387 C386 1.249 . S
O388 Zn378 2.067 . S
O388 C386 1.270 . S
C389 O382 1.262 . S
C389 O390 1.232 . S
O390 C389 1.232 . S
C391 O383 1.260 . S
C391 O384 1.257 . S
Zn392 O395 2.031 . S
Zn392 O397 2.049 . S
Zn392 O402 2.067 . S
Zn393 O394 1.962 . S
Zn393 O396 1.986 . S
Zn393 O398 1.996 . S
Zn393 O401 1.943 . S
O394 Zn393 1.962 . S
O394 C399 1.254 . S
O395 Zn392 2.031 . S
O395 C399 1.269 . S
O396 Zn393 1.986 . S
O396 C403 1.262 . S
O397 Zn392 2.049 . S
O397 C405 1.260 . S
O398 Zn393 1.996 . S
O398 C405 1.257 . S
C399 O394 1.254 . S
C399 O395 1.269 . S
C400 O401 1.249 . S
C400 O402 1.270 . S
O401 Zn393 1.943 . S
O401 C400 1.249 . S
O402 Zn392 2.067 . S
O402 C400 1.270 . S
C403 O396 1.262 . S
C403 O404 1.232 . S
O404 C403 1.232 . S
C405 O397 1.260 . S
C405 O398 1.257 . S
Zn406 O409 2.031 . S
Zn406 O411 2.049 . S
Zn406 O416 2.067 . S
Zn407 O408 1.962 . S
Zn407 O410 1.986 . S
Zn407 O412 1.996 . S
Zn407 O415 1.943 . S
O408 Zn407 1.962 . S
O408 C413 1.254 . S
O409 Zn406 2.031 . S
O409 C413 1.269 . S
O410 Zn407 1.986 . S
O410 C417 1.262 . S
O411 Zn406 2.049 . S
O411 C419 1.260 . S
O412 Zn407 1.996 . S
O412 C419 1.257 . S
C413 O408 1.254 . S
C413 O409 1.269 . S
C414 O415 1.249 . S
C414 O416 1.270 . S
O415 Zn407 1.943 . S
O415 C414 1.249 . S
O416 Zn406 2.067 . S
O416 C414 1.270 . S
C417 O410 1.262 . S
C417 O418 1.232 . S
O418 C417 1.232 . S
C419 O411 1.260 . S
C419 O412 1.257 . S
Zn420 O423 2.031 . S
Zn420 O425 2.049 . S
Zn420 O430 2.067 . S
Zn421 O422 1.962 . S
Zn421 O424 1.986 . S
Zn421 O426 1.996 . S
Zn421 O429 1.943 . S
O422 Zn421 1.962 . S
O422 C427 1.254 . S
O423 Zn420 2.031 . S
O423 C427 1.269 . S
O424 Zn421 1.986 . S
O424 C431 1.262 . S
O425 Zn420 2.049 . S
O425 C433 1.260 . S
O426 Zn421 1.996 . S
O426 C433 1.257 . S
C427 O422 1.254 . S
C427 O423 1.269 . S
C428 O429 1.249 . S
C428 O430 1.270 . S
O429 Zn421 1.943 . S
O429 C428 1.249 . S
O430 Zn420 2.067 . S
O430 C428 1.270 . S
C431 O424 1.262 . S
C431 O432 1.232 . S
O432 C431 1.232 . S
C433 O425 1.260 . S
C433 O426 1.257 . S
Zn434 O437 2.031 . S
Zn434 O439 2.049 . S
Zn434 O444 2.067 . S
Zn435 O436 1.962 . S
Zn435 O438 1.986 . S
Zn435 O440 1.996 . S
Zn435 O443 1.943 . S
O436 Zn435 1.962 . S
O436 C441 1.254 . S
O437 Zn434 2.031 . S
O437 C441 1.269 . S
O438 Zn435 1.986 . S
O438 C445 1.262 . S
O439 Zn434 2.049 . S
O439 C447 1.260 . S
O440 Zn435 1.996 . S
O440 C447 1.257 . S
C441 O436 1.254 . S
C441 O437 1.269 . S
C442 O443 1.249 . S
C442 O444 1.270 . S
O443 Zn435 1.943 . S
O443 C442 1.249 . S
O444 Zn434 2.067 . S
O444 C442 1.270 . S
C445 O438 1.262 . S
C445 O446 1.232 . S
O446 C445 1.232 . S
C447 O439 1.260 . S
C447 O440 1.257 . S
Zn448 O451 2.031 . S
Zn448 O453 2.049 . S
Zn448 O458 2.067 . S
Zn449 O450 1.962 . S
Zn449 O452 1.986 . S
Zn449 O454 1.996 . S
Zn449 O457 1.943 . S
O450 Zn449 1.962 . S
O450 C455 1.254 . S
O451 Zn448 2.031 . S
O451 C455 1.269 . S
O452 Zn449 1.986 . S
O452 C459 1.262 . S
O453 Zn448 2.049 . S
O453 C461 1.260 . S
O454 Zn449 1.996 . S
O454 C461 1.257 . S
C455 O450 1.254 . S
C455 O451 1.269 . S
C456 O457 1.249 . S
C456 O458 1.270 . S
O457 Zn449 1.943 . S
O457 C456 1.249 . S
O458 Zn448 2.067 . S
O458 C456 1.270 . S
C459 O452 1.262 . S
C459 O460 1.232 . S
O460 C459 1.232 . S
C461 O453 1.260 . S
C461 O454 1.257 . S
Zn462 O465 2.031 . S
Zn462 O467 2.049 . S
Zn462 O472 2.067 . S
Zn463 O464 1.962 . S
Zn463 O466 1.986 . S
Zn463 O468 1.996 . S
Zn463 O471 1.943 . S
O464 Zn463 1.962 . S
O464 C469 1.254 . S
O465 Zn462 2.031 . S
O465 C469 1.269 . S
O466 Zn463 1.986 . S
O466 C473 1.262 . S
O467 Zn462 2.049 . S
O467 C475 1.260 . S
O468 Zn463 1.996 . S
O468 C475 1.257 . S
C469 O464 1.254 . S
C469 O465 1.269 . S
C470 O471 1.249 . S
C470 O472 1.270 . S
O471 Zn463 1.943 . S
O471 C470 1.249 . S
O472 Zn462 2.067 . S
O472 C470 1.270 . S
C473 O466 1.262 . S
C473 O474 1.232 . S
O474 C473 1.232 . S
C475 O467 1.260 . S
C475 O468 1.257 . S
Zn476 O479 2.031 . S
Zn476 O481 2.049 . S
Zn476 O486 2.067 . S
Zn477 O478 1.962 . S
Zn477 O480 1.986 . S
Zn477 O482 1.996 . S
Zn477 O485 1.943 . S
O478 Zn477 1.962 . S
O478 C483 1.254 . S
O479 Zn476 2.031 . S
O479 C483 1.269 . S
O480 Zn477 1.986 . S
O480 C487 1.262 . S
O481 Zn476 2.049 . S
O481 C489 1.260 . S
O482 Zn477 1.996 . S
O482 C489 1.257 . S
C483 O478 1.254 . S
C483 O479 1.269 . S
C484 O485 1.249 . S
C484 O486 1.270 . S
O485 Zn477 1.943 . S
O485 C484 1.249 . S
O486 Zn476 2.067 . S
O486 C484 1.270 . S
C487 O480 1.262 . S
C487 O488 1.232 . S
O488 C487 1.232 . S
C489 O481 1.260 . S
C489 O482 1.257 . S
Zn490 O493 2.031 . S
Zn490 O495 2.049 . S
Zn490 O500 2.067 . S
Zn491 O492 1.962 . S
Zn491 O494 1.986 . S
Zn491 O496 1.996 . S
Zn491 O499 1.943 . S
O492 Zn491 1.962 . S
O492 C497 1.254 . S
O493 Zn490 2.031 . S
O493 C497 1.269 . S
O494 Zn491 1.986 . S
O494 C501 1.262 . S
O495 Zn490 2.049 . S
O495 C503 1.260 . S
O496 Zn491 1.996 . S
O496 C503 1.257 . S
C497 O492 1.254 . S
C497 O493 1.269 . S
C498 O499 1.249 . S
C498 O500 1.270 . S
O499 Zn491 1.943 . S
O499 C498 1.249 . S
O500 Zn490 2.067 . S
O500 C498 1.270 . S
C501 O494 1.262 . S
C501 O502 1.232 . S
O502 C501 1.232 . S
C503 O495 1.260 . S
C503 O496 1.257 . S
Zn504 O507 2.031 . S
Zn504 O509 2.049 . S
Zn504 O514 2.067 . S
Zn505 O506 1.962 . S
Zn505 O508 1.986 . S
Zn505 O510 1.996 . S
Zn505 O513 1.943 . S
O506 Zn505 1.962 . S
O506 C511 1.254 . S
O507 Zn504 2.031 . S
O507 C511 1.269 . S
O508 Zn505 1.986 . S
O508 C515 1.262 . S
O509 Zn504 2.049 . S
O509 C517 1.260 . S
O510 Zn505 1.996 . S
O510 C517 1.257 . S
C511 O506 1.254 . S
C511 O507 1.269 . S
C512 O513 1.249 . S
C512 O514 1.270 . S
O513 Zn505 1.943 . S
O513 C512 1.249 . S
O514 Zn504 2.067 . S
O514 C512 1.270 . S
C515 O508 1.262 . S
C515 O516 1.232 . S
O516 C515 1.232 . S
C517 O509 1.260 . S
C517 O510 1.257 . S
Zn518 O521 2.031 . S
Zn518 O523 2.049 . S
Zn518 O528 2.067 . S
Zn519 O520 1.962 . S
Zn519 O522 1.986 . S
Zn519 O524 1.996 . S
Zn519 O527 1.943 . S
O520 Zn519 1.962 . S
O520 C525 1.254 . S
O521 Zn518 2.031 . S
O521 C525 1.269 . S
O522 Zn519 1.986 . S
O522 C529 1.262 . S
O523 Zn518 2.049 . S
O523 C531 1.260 . S
O524 Zn519 1.996 . S
O524 C531 1.257 . S
C525 O520 1.254 . S
C525 O521 1.269 . S
C526 O527 1.249 . S
C526 O528 1.270 . S
O527 Zn519 1.943 . S
O527 C526 1.249 . S
O528 Zn518 2.067 . S
O528 C526 1.270 . S
C529 O522 1.262 . S
C529 O530 1.232 . S
O530 C529 1.232 . S
C531 O523 1.260 . S
C531 O524 1.257 . S
Zn532 O535 2.031 . S
Zn532 O537 2.049 . S
Zn532 O542 2.067 . S
Zn533 O534 1.962 . S
Zn533 O536 1.986 . S
Zn533 O538 1.996 . S
Zn533 O541 1.943 . S
O534 Zn533 1.962 . S
O534 C539 1.254 . S
O535 Zn532 2.031 . S
O535 C539 1.269 . S
O536 Zn533 1.986 . S
O536 C543 1.262 . S
O537 Zn532 2.049 . S
O537 C545 1.260 . S
O538 Zn533 1.996 . S
O538 C545 1.257 . S
C539 O534 1.254 . S
C539 O535 1.269 . S
C540 O541 1.249 . S
C540 O542 1.270 . S
O541 Zn533 1.943 . S
O541 C540 1.249 . S
O542 Zn532 2.067 . S
O542 C540 1.270 . S
C543 O536 1.262 . S
C543 O544 1.232 . S
O544 C543 1.232 . S
C545 O537 1.260 . S
C545 O538 1.257 . S
Zn546 O549 2.031 . S
Zn546 O551 2.049 . S
Zn546 O556 2.067 . S
Zn547 O548 1.962 . S
Zn547 O550 1.986 . S
Zn547 O552 1.996 . S
Zn547 O555 1.943 . S
O548 Zn547 1.962 . S
O548 C553 1.254 . S
O549 Zn546 2.031 . S
O549 C553 1.269 . S
O550 Zn547 1.986 . S
O550 C557 1.262 . S
O551 Zn546 2.049 . S
O551 C559 1.260 . S
O552 Zn547 1.996 . S
O552 C559 1.257 . S
C553 O548 1.254 . S
C553 O549 1.269 . S
C554 O555 1.249 . S
C554 O556 1.270 . S
O555 Zn547 1.943 . S
O555 C554 1.249 . S
O556 Zn546 2.067 . S
O556 C554 1.270 . S
C557 O550 1.262 . S
C557 O558 1.232 . S
O558 C557 1.232 . S
C559 O551 1.260 . S
C559 O552 1.257 . S
Zn560 O563 2.031 . S
Zn560 O565 2.049 . S
Zn560 O570 2.067 . S
Zn561 O562 1.962 . S
Zn561 O564 1.986 . S
Zn561 O566 1.996 . S
Zn561 O569 1.943 . S
O562 Zn561 1.962 . S
O562 C567 1.254 . S
O563 Zn560 2.031 . S
O563 C567 1.269 . S
O564 Zn561 1.986 . S
O564 C571 1.262 . S
O565 Zn560 2.049 . S
O565 C573 1.260 . S
O566 Zn561 1.996 . S
O566 C573 1.257 . S
C567 O562 1.254 . S
C567 O563 1.269 . S
C568 O569 1.249 . S
C568 O570 1.270 . S
O569 Zn561 1.943 . S
O569 C568 1.249 . S
O570 Zn560 2.067 . S
O570 C568 1.270 . S
C571 O564 1.262 . S
C571 O572 1.232 . S
O572 C571 1.232 . S
C573 O565 1.260 . S
C573 O566 1.257 . S
Zn574 O577 2.031 . S
Zn574 O579 2.049 . S
Zn574 O584 2.067 . S
Zn575 O576 1.962 . S
Zn575 O578 1.986 . S
Zn575 O580 1.996 . S
Zn575 O583 1.943 . S
O576 Zn575 1.962 . S
O576 C581 1.254 . S
O577 Zn574 2.031 . S
O577 C581 1.269 . S
O578 Zn575 1.986 . S
O578 C585 1.262 . S
O579 Zn574 2.049 . S
O579 C587 1.260 . S
O580 Zn575 1.996 . S
O580 C587 1.257 . S
C581 O576 1.254 . S
C581 O577 1.269 . S
C582 O583 1.249 . S
C582 O584 1.270 . S
O583 Zn575 1.943 . S
O583 C582 1.249 . S
O584 Zn574 2.067 . S
O584 C582 1.270 . S
C585 O578 1.262 . S
C585 O586 1.232 . S
O586 C585 1.232 . S
C587 O579 1.260 . S
C587 O580 1.257 . S
Zn588 O591 2.031 . S
Zn588 O593 2.049 . S
Zn588 O598 2.067 . S
Zn589 O590 1.962 . S
Zn589 O592 1.986 . S
Zn589 O594 1.996 . S
Zn589 O597 1.943 . S
O590 Zn589 1.962 . S
O590 C595 1.254 . S
O591 Zn588 2.031 . S
O591 C595 1.269 . S
O592 Zn589 1.986 . S
O592 C599 1.262 . S
O593 Zn588 2.049 . S
O593 C601 1.260 . S
O594 Zn589 1.996 . S
O594 C601 1.257 . S
C595 O590 1.254 . S
C595 O591 1.269 . S
C596 O597 1.249 . S
C596 O598 1.270 . S
O597 Zn589 1.943 . S
O597 C596 1.249 . S
O598 Zn588 2.067 . S
O598 C596 1.270 . S
C599 O592 1.262 . S
C599 O600 1.232 . S
O600 C599 1.232 . S
C601 O593 1.260 . S
C601 O594 1.257 . S
Zn602 O605 2.031 . S
Zn602 O607 2.049 . S
Zn602 O612 2.067 . S
Zn603 O604 1.962 . S
Zn603 O606 1.986 . S
Zn603 O608 1.996 . S
Zn603 O611 1.943 . S
O604 Zn603 1.962 . S
O604 C609 1.254 . S
O605 Zn602 2.031 . S
O605 C609 1.269 . S
O606 Zn603 1.986 . S
O606 C613 1.262 . S
O607 Zn602 2.049 . S
O607 C615 1.260 . S
O608 Zn603 1.996 . S
O608 C615 1.257 . S
C609 O604 1.254 . S
C609 O605 1.269 . S
C610 O611 1.249 . S
C610 O612 1.270 . S
O611 Zn603 1.943 . S
O611 C610 1.249 . S
O612 Zn602 2.067 . S
O612 C610 1.270 . S
C613 O606 1.262 . S
C613 O614 1.232 . S
O614 C613 1.232 . S
C615 O607 1.260 . S
C615 O608 1.257 . S
Zn616 O619 2.031 . S
Zn616 O621 2.049 . S
Zn616 O626 2.067 . S
Zn617 O618 1.962 . S
Zn617 O620 1.986 . S
Zn617 O622 1.996 . S
Zn617 O625 1.943 . S
O618 Zn617 1.962 . S
O618 C623 1.254 . S
O619 Zn616 2.031 . S
O619 C623 1.269 . S
O620 Zn617 1.986 . S
O620 C627 1.262 . S
O621 Zn616 2.049 . S
O621 C629 1.260 . S
O622 Zn617 1.996 . S
O622 C629 1.257 . S
C623 O618 1.254 . S
C623 O619 1.269 . S
C624 O625 1.249 . S
C624 O626 1.270 . S
O625 Zn617 1.943 . S
O625 C624 1.249 . S
O626 Zn616 2.067 . S
O626 C624 1.270 . S
C627 O620 1.262 . S
C627 O628 1.232 . S
O628 C627 1.232 . S
C629 O621 1.260 . S
C629 O622 1.257 . S
Zn630 O633 2.031 . S
Zn630 O635 2.049 . S
Zn630 O640 2.067 . S
Zn631 O632 1.962 . S
Zn631 O634 1.986 . S
Zn631 O636 1.996 . S
Zn631 O639 1.943 . S
O632 Zn631 1.962 . S
O632 C637 1.254 . S
O633 Zn630 2.031 . S
O633 C637 1.269 . S
O634 Zn631 1.986 . S
O634 C641 1.262 . S
O635 Zn630 2.049 . S
O635 C643 1.260 . S
O636 Zn631 1.996 . S
O636 C643 1.257 . S
C637 O632 1.254 . S
C637 O633 1.269 . S
C638 O639 1.249 . S
C638 O640 1.270 . S
O639 Zn631 1.943 . S
O639 C638 1.249 . S
O640 Zn630 2.067 . S
O640 C638 1.270 . S
C641 O634 1.262 . S
C641 O642 1.232 . S
O642 C641 1.232 . S
C643 O635 1.260 . S
C643 O636 1.257 . S
Zn644 O647 2.031 . S
Zn644 O649 2.049 . S
Zn644 O654 2.067 . S
Zn645 O646 1.962 . S
Zn645 O648 1.986 . S
Zn645 O650 1.996 . S
Zn645 O653 1.943 . S
O646 Zn645 1.962 . S
O646 C651 1.254 . S
O647 Zn644 2.031 . S
O647 C651 1.269 . S
O648 Zn645 1.986 . S
O648 C655 1.262 . S
O649 Zn644 2.049 . S
O649 C657 1.260 . S
O650 Zn645 1.996 . S
O650 C657 1.257 . S
C651 O646 1.254 . S
C651 O647 1.269 . S
C652 O653 1.249 . S
C652 O654 1.270 . S
O653 Zn645 1.943 . S
O653 C652 1.249 . S
O654 Zn644 2.067 . S
O654 C652 1.270 . S
C655 O648 1.262 . S
C655 O656 1.232 . S
O656 C655 1.232 . S
C657 O649 1.260 . S
C657 O650 1.257 . S
Zn658 O661 2.031 . S
Zn658 O663 2.049 . S
Zn658 O668 2.067 . S
Zn659 O660 1.962 . S
Zn659 O662 1.986 . S
Zn659 O664 1.996 . S
Zn659 O667 1.943 . S
O660 Zn659 1.962 . S
O660 C665 1.254 . S
O661 Zn658 2.031 . S
O661 C665 1.269 . S
O662 Zn659 1.986 . S
O662 C669 1.262 . S
O663 Zn658 2.049 . S
O663 C671 1.260 . S
O664 Zn659 1.996 . S
O664 C671 1.257 . S
C665 O660 1.254 . S
C665 O661 1.269 . S
C666 O667 1.249 . S
C666 O668 1.270 . S
O667 Zn659 1.943 . S
O667 C666 1.249 . S
O668 Zn658 2.067 . S
O668 C666 1.270 . S
C669 O662 1.262 . S
C669 O670 1.232 . S
O670 C669 1.232 . S
C671 O663 1.260 . S
C671 O664 1.257 . S
C672 C673 1.349 . S
C672 C674 1.327 . S
C672 H697 0.950 . S
C673 C672 1.349 . S
C673 C689 1.349 . S
C674 C672 1.327 . S
C674 C693 1.429 . S
C674 H698 0.950 . S
C675 C692 1.574 . S
C675 C694 1.368 . S
C675 H699 0.949 . S
H676 C680 0.949 . S
C677 C678 1.349 . S
C677 C679 1.327 . S
C677 H700 0.950 . S
C678 C677 1.349 . S
C678 C690 1.349 . S
C679 C677 1.327 . S
C679 C695 1.429 . S
C679 H701 0.950 . S
C680 H676 0.949 . S
C680 C688 1.574 . S
C680 C696 1.368 . S
H681 C689 0.950 . S
H682 C687 0.950 . S
H683 C688 0.949 . S
H684 C690 0.950 . S
H685 C691 0.950 . S
H686 C692 0.949 . S
C687 H682 0.950 . S
C687 C689 1.327 . S
C687 C693 1.429 . S
C688 C680 1.574 . S
C688 H683 0.949 . S
C688 C694 1.368 . S
C689 C673 1.349 . S
C689 H681 0.950 . S
C689 C687 1.327 . S
C690 C678 1.349 . S
C690 H684 0.950 . S
C690 C691 1.327 . S
C691 H685 0.950 . S
C691 C690 1.327 . S
C691 C695 1.429 . S
C692 C675 1.574 . S
C692 H686 0.949 . S
C692 C696 1.368 . S
C693 C674 1.429 . S
C693 C687 1.429 . S
C693 C694 1.523 . S
C694 C675 1.368 . S
C694 C688 1.368 . S
C694 C693 1.523 . S
C695 C679 1.429 . S
C695 C691 1.429 . S
C695 C696 1.523 . S
C696 C680 1.368 . S
C696 C692 1.368 . S
C696 C695 1.523 . S
H697 C672 0.950 . S
H698 C674 0.950 . S
H699 C675 0.949 . S
H700 C677 0.950 . S
H701 C679 0.950 . S
C702 C703 1.349 . S
C702 C704 1.327 . S
C702 H727 0.950 . S
C703 C702 1.349 . S
C703 C719 1.349 . S
C704 C702 1.327 . S
C704 C723 1.429 . S
C704 H728 0.950 . S
C705 C722 1.574 . S
C705 C724 1.368 . S
C705 H729 0.949 . S
H706 C710 0.949 . S
C707 C708 1.349 . S
C707 C709 1.327 . S
C707 H730 0.950 . S
C708 C707 1.349 . S
C708 C720 1.349 . S
C709 C707 1.327 . S
C709 C725 1.429 . S
C709 H731 0.950 . S
C710 H706 0.949 . S
C710 C718 1.574 . S
C710 C726 1.368 . S
H711 C719 0.950 . S
H712 C717 0.950 . S
H713 C718 0.949 . S
H714 C720 0.950 . S
H715 C721 0.950 . S
H716 C722 0.949 . S
C717 H712 0.950 . S
C717 C719 1.327 . S
C717 C723 1.429 . S
C718 C710 1.574 . S
C718 H713 0.949 . S
C718 C724 1.368 . S
C719 C703 1.349 . S
C719 H711 0.950 . S
C719 C717 1.327 . S
C720 C708 1.349 . S
C720 H714 0.950 . S
C720 C721 1.327 . S
C721 H715 0.950 . S
C721 C720 1.327 . S
C721 C725 1.429 . S
C722 C705 1.574 . S
C722 H716 0.949 . S
C722 C726 1.368 . S
C723 C704 1.429 . S
C723 C717 1.429 . S
C723 C724 1.523 . S
C724 C705 1.368 . S
C724 C718 1.368 . S
C724 C723 1.523 . S
C725 C709 1.429 . S
C725 C721 1.429 . S
C725 C726 1.523 . S
C726 C710 1.368 . S
C726 C722 1.368 . S
C726 C725 1.523 . S
H727 C702 0.950 . S
H728 C704 0.950 . S
H729 C705 0.949 . S
H730 C707 0.950 . S
H731 C709 0.950 . S
C732 C733 1.349 . S
C732 C734 1.327 . S
C732 H757 0.950 . S
C733 C732 1.349 . S
C733 C749 1.349 . S
C734 C732 1.327 . S
C734 C753 1.429 . S
C734 H758 0.950 . S
C735 C752 1.574 . S
C735 C754 1.368 . S
C735 H759 0.949 . S
H736 C740 0.949 . S
C737 C738 1.349 . S
C737 C739 1.327 . S
C737 H760 0.950 . S
C738 C737 1.349 . S
C738 C750 1.349 . S
C739 C737 1.327 . S
C739 C755 1.429 . S
C739 H761 0.950 . S
C740 H736 0.949 . S
C740 C748 1.574 . S
C740 C756 1.368 . S
H741 C749 0.950 . S
H742 C747 0.950 . S
H743 C748 0.949 . S
H744 C750 0.950 . S
H745 C751 0.950 . S
H746 C752 0.949 . S
C747 H742 0.950 . S
C747 C749 1.327 . S
C747 C753 1.429 . S
C748 C740 1.574 . S
C748 H743 0.949 . S
C748 C754 1.368 . S
C749 C733 1.349 . S
C749 H741 0.950 . S
C749 C747 1.327 . S
C750 C738 1.349 . S
C750 H744 0.950 . S
C750 C751 1.327 . S
C751 H745 0.950 . S
C751 C750 1.327 . S
C751 C755 1.429 . S
C752 C735 1.574 . S
C752 H746 0.949 . S
C752 C756 1.368 . S
C753 C734 1.429 . S
C753 C747 1.429 . S
C753 C754 1.523 . S
C754 C735 1.368 . S
C754 C748 1.368 . S
C754 C753 1.523 . S
C755 C739 1.429 . S
C755 C751 1.429 . S
C755 C756 1.523 . S
C756 C740 1.368 . S
C756 C752 1.368 . S
C756 C755 1.523 . S
H757 C732 0.950 . S
H758 C734 0.950 . S
H759 C735 0.949 . S
H760 C737 0.950 . S
H761 C739 0.950 . S
C762 C763 1.349 . S
C762 C764 1.327 . S
C762 H787 0.950 . S
C763 C762 1.349 . S
C763 C779 1.349 . S
C764 C762 1.327 . S
C764 C783 1.429 . S
C764 H788 0.950 . S
C765 C782 1.574 . S
C765 C784 1.368 . S
C765 H789 0.949 . S
H766 C770 0.949 . S
C767 C768 1.349 . S
C767 C769 1.327 . S
C767 H790 0.950 . S
C768 C767 1.349 . S
C768 C780 1.349 . S
C769 C767 1.327 . S
C769 C785 1.429 . S
C769 H791 0.950 . S
C770 H766 0.949 . S
C770 C778 1.574 . S
C770 C786 1.368 . S
H771 C779 0.950 . S
H772 C777 0.950 . S
H773 C778 0.949 . S
H774 C780 0.950 . S
H775 C781 0.950 . S
H776 C782 0.949 . S
C777 H772 0.950 . S
C777 C779 1.327 . S
C777 C783 1.429 . S
C778 C770 1.574 . S
C778 H773 0.949 . S
C778 C784 1.368 . S
C779 C763 1.349 . S
C779 H771 0.950 . S
C779 C777 1.327 . S
C780 C768 1.349 . S
C780 H774 0.950 . S
C780 C781 1.327 . S
C781 H775 0.950 . S
C781 C780 1.327 . S
C781 C785 1.429 . S
C782 C765 1.574 . S
C782 H776 0.949 . S
C782 C786 1.368 . S
C783 C764 1.429 . S
C783 C777 1.429 . S
C783 C784 1.523 . S
C784 C765 1.368 . S
C784 C778 1.368 . S
C784 C783 1.523 . S
C785 C769 1.429 . S
C785 C781 1.429 . S
C785 C786 1.523 . S
C786 C770 1.368 . S
C786 C782 1.368 . S
C786 C785 1.523 . S
H787 C762 0.950 . S
H788 C764 0.950 . S
H789 C765 0.949 . S
H790 C767 0.950 . S
H791 C769 0.950 . S
C792 C793 1.349 . S
C792 C794 1.327 . S
C792 H817 0.950 . S
C793 C792 1.349 . S
C793 C809 1.349 . S
C794 C792 1.327 . S
C794 C813 1.429 . S
C794 H818 0.950 . S
C795 C812 1.574 . S
C795 C814 1.368 . S
C795 H819 0.949 . S
H796 C800 0.949 . S
C797 C798 1.349 . S
C797 C799 1.327 . S
C797 H820 0.950 . S
C798 C797 1.349 . S
C798 C810 1.349 . S
C799 C797 1.327 . S
C799 C815 1.429 . S
C799 H821 0.950 . S
C800 H796 0.949 . S
C800 C808 1.574 . S
C800 C816 1.368 . S
H801 C809 0.950 . S
H802 C807 0.950 . S
H803 C808 0.949 . S
H804 C810 0.950 . S
H805 C811 0.950 . S
H806 C812 0.949 . S
C807 H802 0.950 . S
C807 C809 1.327 . S
C807 C813 1.429 . S
C808 C800 1.574 . S
C808 H803 0.949 . S
C808 C814 1.368 . S
C809 C793 1.349 . S
C809 H801 0.950 . S
C809 C807 1.327 . S
C810 C798 1.349 . S
C810 H804 0.950 . S
C810 C811 1.327 . S
C811 H805 0.950 . S
C811 C810 1.327 . S
C811 C815 1.429 . S
C812 C795 1.574 . S
C812 H806 0.949 . S
C812 C816 1.368 . S
C813 C794 1.429 . S
C813 C807 1.429 . S
C813 C814 1.523 . S
C814 C795 1.368 . S
C814 C808 1.368 . S
C814 C813 1.523 . S
C815 C799 1.429 . S
C815 C811 1.429 . S
C815 C816 1.523 . S
C816 C800 1.368 . S
C816 C812 1.368 . S
C816 C815 1.523 . S
H817 C792 0.950 . S
H818 C794 0.950 . S
H819 C795 0.949 . S
H820 C797 0.950 . S
H821 C799 0.950 . S
C822 C823 1.349 . S
C822 C824 1.327 . S
C822 H847 0.950 . S
C823 C822 1.349 . S
C823 C839 1.349 . S
C824 C822 1.327 . S
C824 C843 1.429 . S
C824 H848 0.950 . S
C825 C842 1.574 . S
C825 C844 1.368 . S
C825 H849 0.949 . S
H826 C830 0.949 . S
C827 C828 1.349 . S
C827 C829 1.327 . S
C827 H850 0.950 . S
C828 C827 1.349 . S
C828 C840 1.349 . S
C829 C827 1.327 . S
C829 C845 1.429 . S
C829 H851 0.950 . S
C830 H826 0.949 . S
C830 C838 1.574 . S
C830 C846 1.368 . S
H831 C839 0.950 . S
H832 C837 0.950 . S
H833 C838 0.949 . S
H834 C840 0.950 . S
H835 C841 0.950 . S
H836 C842 0.949 . S
C837 H832 0.950 . S
C837 C839 1.327 . S
C837 C843 1.429 . S
C838 C830 1.574 . S
C838 H833 0.949 . S
C838 C844 1.368 . S
C839 C823 1.349 . S
C839 H831 0.950 . S
C839 C837 1.327 . S
C840 C828 1.349 . S
C840 H834 0.950 . S
C840 C841 1.327 . S
C841 H835 0.950 . S
C841 C840 1.327 . S
C841 C845 1.429 . S
C842 C825 1.574 . S
C842 H836 0.949 . S
C842 C846 1.368 . S
C843 C824 1.429 . S
C843 C837 1.429 . S
C843 C844 1.523 . S
C844 C825 1.368 . S
C844 C838 1.368 . S
C844 C843 1.523 . S
C845 C829 1.429 . S
C845 C841 1.429 . S
C845 C846 1.523 . S
C846 C830 1.368 . S
C846 C842 1.368 . S
C846 C845 1.523 . S
H847 C822 0.950 . S
H848 C824 0.950 . S
H849 C825 0.949 . S
H850 C827 0.950 . S
H851 C829 0.950 . S
C852 C853 1.349 . S
C852 C854 1.327 . S
C852 H877 0.950 . S
C853 C852 1.349 . S
C853 C869 1.349 . S
C854 C852 1.327 . S
C854 C873 1.429 . S
C854 H878 0.950 . S
C855 C872 1.574 . S
C855 C874 1.368 . S
C855 H879 0.949 . S
H856 C860 0.949 . S
C857 C858 1.349 . S
C857 C859 1.327 . S
C857 H880 0.950 . S
C858 C857 1.349 . S
C858 C870 1.349 . S
C859 C857 1.327 . S
C859 C875 1.429 . S
C859 H881 0.950 . S
C860 H856 0.949 . S
C860 C868 1.574 . S
C860 C876 1.368 . S
H861 C869 0.950 . S
H862 C867 0.950 . S
H863 C868 0.949 . S
H864 C870 0.950 . S
H865 C871 0.950 . S
H866 C872 0.949 . S
C867 H862 0.950 . S
C867 C869 1.327 . S
C867 C873 1.429 . S
C868 C860 1.574 . S
C868 H863 0.949 . S
C868 C874 1.368 . S
C869 C853 1.349 . S
C869 H861 0.950 . S
C869 C867 1.327 . S
C870 C858 1.349 . S
C870 H864 0.950 . S
C870 C871 1.327 . S
C871 H865 0.950 . S
C871 C870 1.327 . S
C871 C875 1.429 . S
C872 C855 1.574 . S
C872 H866 0.949 . S
C872 C876 1.368 . S
C873 C854 1.429 . S
C873 C867 1.429 . S
C873 C874 1.523 . S
C874 C855 1.368 . S
C874 C868 1.368 . S
C874 C873 1.523 . S
C875 C859 1.429 . S
C875 C871 1.429 . S
C875 C876 1.523 . S
C876 C860 1.368 . S
C876 C872 1.368 . S
C876 C875 1.523 . S
H877 C852 0.950 . S
H878 C854 0.950 . S
H879 C855 0.949 . S
H880 C857 0.950 . S
H881 C859 0.950 . S
C882 C883 1.349 . S
C882 C884 1.327 . S
C882 H907 0.950 . S
C883 C882 1.349 . S
C883 C899 1.349 . S
C884 C882 1.327 . S
C884 C903 1.429 . S
C884 H908 0.950 . S
C885 C902 1.574 . S
C885 C904 1.368 . S
C885 H909 0.949 . S
H886 C890 0.949 . S
C887 C888 1.349 . S
C887 C889 1.327 . S
C887 H910 0.950 . S
C888 C887 1.349 . S
C888 C900 1.349 . S
C889 C887 1.327 . S
C889 C905 1.429 . S
C889 H911 0.950 . S
C890 H886 0.949 . S
C890 C898 1.574 . S
C890 C906 1.368 . S
H891 C899 0.950 . S
H892 C897 0.950 . S
H893 C898 0.949 . S
H894 C900 0.950 . S
H895 C901 0.950 . S
H896 C902 0.949 . S
C897 H892 0.950 . S
C897 C899 1.327 . S
C897 C903 1.429 . S
C898 C890 1.574 . S
C898 H893 0.949 . S
C898 C904 1.368 . S
C899 C883 1.349 . S
C899 H891 0.950 . S
C899 C897 1.327 . S
C900 C888 1.349 . S
C900 H894 0.950 . S
C900 C901 1.327 . S
C901 H895 0.950 . S
C901 C900 1.327 . S
C901 C905 1.429 . S
C902 C885 1.574 . S
C902 H896 0.949 . S
C902 C906 1.368 . S
C903 C884 1.429 . S
C903 C897 1.429 . S
C903 C904 1.523 . S
C904 C885 1.368 . S
C904 C898 1.368 . S
C904 C903 1.523 . S
C905 C889 1.429 . S
C905 C901 1.429 . S
C905 C906 1.523 . S
C906 C890 1.368 . S
C906 C902 1.368 . S
C906 C905 1.523 . S
H907 C882 0.950 . S
H908 C884 0.950 . S
H909 C885 0.949 . S
H910 C887 0.950 . S
H911 C889 0.950 . S
C912 C913 1.349 . S
C912 C914 1.327 . S
C912 H937 0.950 . S
C913 C912 1.349 . S
C913 C929 1.349 . S
C914 C912 1.327 . S
C914 C933 1.429 . S
C914 H938 0.950 . S
C915 C932 1.574 . S
C915 C934 1.368 . S
C915 H939 0.949 . S
H916 C920 0.949 . S
C917 C918 1.349 . S
C917 C919 1.327 . S
C917 H940 0.950 . S
C918 C917 1.349 . S
C918 C930 1.349 . S
C919 C917 1.327 . S
C919 C935 1.429 . S
C919 H941 0.950 . S
C920 H916 0.949 . S
C920 C928 1.574 . S
C920 C936 1.368 . S
H921 C929 0.950 . S
H922 C927 0.950 . S
H923 C928 0.949 . S
H924 C930 0.950 . S
H925 C931 0.950 . S
H926 C932 0.949 . S
C927 H922 0.950 . S
C927 C929 1.327 . S
C927 C933 1.429 . S
C928 C920 1.574 . S
C928 H923 0.949 . S
C928 C934 1.368 . S
C929 C913 1.349 . S
C929 H921 0.950 . S
C929 C927 1.327 . S
C930 C918 1.349 . S
C930 H924 0.950 . S
C930 C931 1.327 . S
C931 H925 0.950 . S
C931 C930 1.327 . S
C931 C935 1.429 . S
C932 C915 1.574 . S
C932 H926 0.949 . S
C932 C936 1.368 . S
C933 C914 1.429 . S
C933 C927 1.429 . S
C933 C934 1.523 . S
C934 C915 1.368 . S
C934 C928 1.368 . S
C934 C933 1.523 . S
C935 C919 1.429 . S
C935 C931 1.429 . S
C935 C936 1.523 . S
C936 C920 1.368 . S
C936 C932 1.368 . S
C936 C935 1.523 . S
H937 C912 0.950 . S
H938 C914 0.950 . S
H939 C915 0.949 . S
H940 C917 0.950 . S
H941 C919 0.950 . S
C942 C943 1.349 . S
C942 C944 1.327 . S
C942 H967 0.950 . S
C943 C942 1.349 . S
C943 C959 1.349 . S
C944 C942 1.327 . S
C944 C963 1.429 . S
C944 H968 0.950 . S
C945 C962 1.574 . S
C945 C964 1.368 . S
C945 H969 0.949 . S
H946 C950 0.949 . S
C947 C948 1.349 . S
C947 C949 1.327 . S
C947 H970 0.950 . S
C948 C947 1.349 . S
C948 C960 1.349 . S
C949 C947 1.327 . S
C949 C965 1.429 . S
C949 H971 0.950 . S
C950 H946 0.949 . S
C950 C958 1.574 . S
C950 C966 1.368 . S
H951 C959 0.950 . S
H952 C957 0.950 . S
H953 C958 0.949 . S
H954 C960 0.950 . S
H955 C961 0.950 . S
H956 C962 0.949 . S
C957 H952 0.950 . S
C957 C959 1.327 . S
C957 C963 1.429 . S
C958 C950 1.574 . S
C958 H953 0.949 . S
C958 C964 1.368 . S
C959 C943 1.349 . S
C959 H951 0.950 . S
C959 C957 1.327 . S
C960 C948 1.349 . S
C960 H954 0.950 . S
C960 C961 1.327 . S
C961 H955 0.950 . S
C961 C960 1.327 . S
C961 C965 1.429 . S
C962 C945 1.574 . S
C962 H956 0.949 . S
C962 C966 1.368 . S
C963 C944 1.429 . S
C963 C957 1.429 . S
C963 C964 1.523 . S
C964 C945 1.368 . S
C964 C958 1.368 . S
C964 C963 1.523 . S
C965 C949 1.429 . S
C965 C961 1.429 . S
C965 C966 1.523 . S
C966 C950 1.368 . S
C966 C962 1.368 . S
C966 C965 1.523 . S
H967 C942 0.950 . S
H968 C944 0.950 . S
H969 C945 0.949 . S
H970 C947 0.950 . S
H971 C949 0.950 . S
C972 C973 1.349 . S
C972 C974 1.327 . S
C972 H997 0.950 . S
C973 C972 1.349 . S
C973 C989 1.349 . S
C974 C972 1.327 . S
C974 C993 1.429 . S
C974 H998 0.950 . S
C975 C992 1.574 . S
C975 C994 1.368 . S
C975 H999 0.949 . S
H976 C980 0.949 . S
C977 C978 1.349 . S
C977 C979 1.327 . S
C977 H1000 0.950 . S
C978 C977 1.349 . S
C978 C990 1.349 . S
C979 C977 1.327 . S
C979 C995 1.429 . S
C979 H1001 0.950 . S
C980 H976 0.949 . S
C980 C988 1.574 . S
C980 C996 1.368 . S
H981 C989 0.950 . S
H982 C987 0.950 . S
H983 C988 0.949 . S
H984 C990 0.950 . S
H985 C991 0.950 . S
H986 C992 0.949 . S
C987 H982 0.950 . S
C987 C989 1.327 . S
C987 C993 1.429 . S
C988 C980 1.574 . S
C988 H983 0.949 . S
C988 C994 1.368 . S
C989 C973 1.349 . S
C989 H981 0.950 . S
C989 C987 1.327 . S
C990 C978 1.349 . S
C990 H984 0.950 . S
C990 C991 1.327 . S
C991 H985 0.950 . S
C991 C990 1.327 . S
C991 C995 1.429 . S
C992 C975 1.574 . S
C992 H986 0.949 . S
C992 C996 1.368 . S
C993 C974 1.429 . S
C993 C987 1.429 . S
C993 C994 1.523 . S
C994 C975 1.368 . S
C994 C988 1.368 . S
C994 C993 1.523 . S
C995 C979 1.429 . S
C995 C991 1.429 . S
C995 C996 1.523 . S
C996 C980 1.368 . S
C996 C992 1.368 . S
C996 C995 1.523 . S
H997 C972 0.950 . S
H998 C974 0.950 . S
H999 C975 0.949 . S
H1000 C977 0.950 . S
H1001 C979 0.950 . S
C1002 C1003 1.349 . S
C1002 C1004 1.327 . S
C1002 H1027 0.950 . S
C1003 C1002 1.349 . S
C1003 C1019 1.349 . S
C1004 C1002 1.327 . S
C1004 C1023 1.429 . S
C1004 H1028 0.950 . S
C1005 C1022 1.574 . S
C1005 C1024 1.368 . S
C1005 H1029 0.949 . S
H1006 C1010 0.949 . S
C1007 C1008 1.349 . S
C1007 C1009 1.327 . S
C1007 H1030 0.950 . S
C1008 C1007 1.349 . S
C1008 C1020 1.349 . S
C1009 C1007 1.327 . S
C1009 C1025 1.429 . S
C1009 H1031 0.950 . S
C1010 H1006 0.949 . S
C1010 C1018 1.574 . S
C1010 C1026 1.368 . S
H1011 C1019 0.950 . S
H1012 C1017 0.950 . S
H1013 C1018 0.949 . S
H1014 C1020 0.950 . S
H1015 C1021 0.950 . S
H1016 C1022 0.949 . S
C1017 H1012 0.950 . S
C1017 C1019 1.327 . S
C1017 C1023 1.429 . S
C1018 C1010 1.574 . S
C1018 H1013 0.949 . S
C1018 C1024 1.368 . S
C1019 C1003 1.349 . S
C1019 H1011 0.950 . S
C1019 C1017 1.327 . S
C1020 C1008 1.349 . S
C1020 H1014 0.950 . S
C1020 C1021 1.327 . S
C1021 H1015 0.950 . S
C1021 C1020 1.327 . S
C1021 C1025 1.429 . S
C1022 C1005 1.574 . S
C1022 H1016 0.949 . S
C1022 C1026 1.368 . S
C1023 C1004 1.429 . S
C1023 C1017 1.429 . S
C1023 C1024 1.523 . S
C1024 C1005 1.368 . S
C1024 C1018 1.368 . S
C1024 C1023 1.523 . S
C1025 C1009 1.429 . S
C1025 C1021 1.429 . S
C1025 C1026 1.523 . S
C1026 C1010 1.368 . S
C1026 C1022 1.368 . S
C1026 C1025 1.523 . S
H1027 C1002 0.950 . S
H1028 C1004 0.950 . S
H1029 C1005 0.949 . S
H1030 C1007 0.950 . S
H1031 C1009 0.950 . S
C1032 C1033 1.349 . S
C1032 C1034 1.327 . S
C1032 H1057 0.950 . S
C1033 C1032 1.349 . S
C1033 C1049 1.349 . S
C1034 C1032 1.327 . S
C1034 C1053 1.429 . S
C1034 H1058 0.950 . S
C1035 C1052 1.574 . S
C1035 C1054 1.368 . S
C1035 H1059 0.949 . S
H1036 C1040 0.949 . S
C1037 C1038 1.349 . S
C1037 C1039 1.327 . S
C1037 H1060 0.950 . S
C1038 C1037 1.349 . S
C1038 C1050 1.349 . S
C1039 C1037 1.327 . S
C1039 C1055 1.429 . S
C1039 H1061 0.950 . S
C1040 H1036 0.949 . S
C1040 C1048 1.574 . S
C1040 C1056 1.368 . S
H1041 C1049 0.950 . S
H1042 C1047 0.950 . S
H1043 C1048 0.949 . S
H1044 C1050 0.950 . S
H1045 C1051 0.950 . S
H1046 C1052 0.949 . S
C1047 H1042 0.950 . S
C1047 C1049 1.327 . S
C1047 C1053 1.429 . S
C1048 C1040 1.574 . S
C1048 H1043 0.949 . S
C1048 C1054 1.368 . S
C1049 C1033 1.349 . S
C1049 H1041 0.950 . S
C1049 C1047 1.327 . S
C1050 C1038 1.349 . S
C1050 H1044 0.950 . S
C1050 C1051 1.327 . S
C1051 H1045 0.950 . S
C1051 C1050 1.327 . S
C1051 C1055 1.429 . S
C1052 C1035 1.574 . S
C1052 H1046 0.949 . S
C1052 C1056 1.368 . S
C1053 C1034 1.429 . S
C1053 C1047 1.429 . S
C1053 C1054 1.523 . S
C1054 C1035 1.368 . S
C1054 C1048 1.368 . S
C1054 C1053 1.523 . S
C1055 C1039 1.429 . S
C1055 C1051 1.429 . S
C1055 C1056 1.523 . S
C1056 C1040 1.368 . S
C1056 C1052 1.368 . S
C1056 C1055 1.523 . S
H1057 C1032 0.950 . S
H1058 C1034 0.950 . S
H1059 C1035 0.949 . S
H1060 C1037 0.950 . S
H1061 C1039 0.950 . S
C1062 C1063 1.349 . S
C1062 C1064 1.327 . S
C1062 H1087 0.950 . S
C1063 C1062 1.349 . S
C1063 C1079 1.349 . S
C1064 C1062 1.327 . S
C1064 C1083 1.429 . S
C1064 H1088 0.950 . S
C1065 C1082 1.574 . S
C1065 C1084 1.368 . S
C1065 H1089 0.949 . S
H1066 C1070 0.949 . S
C1067 C1068 1.349 . S
C1067 C1069 1.327 . S
C1067 H1090 0.950 . S
C1068 C1067 1.349 . S
C1068 C1080 1.349 . S
C1069 C1067 1.327 . S
C1069 C1085 1.429 . S
C1069 H1091 0.950 . S
C1070 H1066 0.949 . S
C1070 C1078 1.574 . S
C1070 C1086 1.368 . S
H1071 C1079 0.950 . S
H1072 C1077 0.950 . S
H1073 C1078 0.949 . S
H1074 C1080 0.950 . S
H1075 C1081 0.950 . S
H1076 C1082 0.949 . S
C1077 H1072 0.950 . S
C1077 C1079 1.327 . S
C1077 C1083 1.429 . S
C1078 C1070 1.574 . S
C1078 H1073 0.949 . S
C1078 C1084 1.368 . S
C1079 C1063 1.349 . S
C1079 H1071 0.950 . S
C1079 C1077 1.327 . S
C1080 C1068 1.349 . S
C1080 H1074 0.950 . S
C1080 C1081 1.327 . S
C1081 H1075 0.950 . S
C1081 C1080 1.327 . S
C1081 C1085 1.429 . S
C1082 C1065 1.574 . S
C1082 H1076 0.949 . S
C1082 C1086 1.368 . S
C1083 C1064 1.429 . S
C1083 C1077 1.429 . S
C1083 C1084 1.523 . S
C1084 C1065 1.368 . S
C1084 C1078 1.368 . S
C1084 C1083 1.523 . S
C1085 C1069 1.429 . S
C1085 C1081 1.429 . S
C1085 C1086 1.523 . S
C1086 C1070 1.368 . S
C1086 C1082 1.368 . S
C1086 C1085 1.523 . S
H1087 C1062 0.950 . S
H1088 C1064 0.950 . S
H1089 C1065 0.949 . S
H1090 C1067 0.950 . S
H1091 C1069 0.950 . S
C1092 C1093 1.349 . S
C1092 C1094 1.327 . S
C1092 H1117 0.950 . S
C1093 C1092 1.349 . S
C1093 C1109 1.349 . S
C1094 C1092 1.327 . S
C1094 C1113 1.429 . S
C1094 H1118 0.950 . S
C1095 C1112 1.574 . S
C1095 C1114 1.368 . S
C1095 H1119 0.949 . S
H1096 C1100 0.949 . S
C1097 C1098 1.349 . S
C1097 C1099 1.327 . S
C1097 H1120 0.950 . S
C1098 C1097 1.349 . S
C1098 C1110 1.349 . S
C1099 C1097 1.327 . S
C1099 C1115 1.429 . S
C1099 H1121 0.950 . S
C1100 H1096 0.949 . S
C1100 C1108 1.574 . S
C1100 C1116 1.368 . S
H1101 C1109 0.950 . S
H1102 C1107 0.950 . S
H1103 C1108 0.949 . S
H1104 C1110 0.950 . S
H1105 C1111 0.950 . S
H1106 C1112 0.949 . S
C1107 H1102 0.950 . S
C1107 C1109 1.327 . S
C1107 C1113 1.429 . S
C1108 C1100 1.574 . S
C1108 H1103 0.949 . S
C1108 C1114 1.368 . S
C1109 C1093 1.349 . S
C1109 H1101 0.950 . S
C1109 C1107 1.327 . S
C1110 C1098 1.349 . S
C1110 H1104 0.950 . S
C1110 C1111 1.327 . S
C1111 H1105 0.950 . S
C1111 C1110 1.327 . S
C1111 C1115 1.429 . S
C1112 C1095 1.574 . S
C1112 H1106 0.949 . S
C1112 C1116 1.368 . S
C1113 C1094 1.429 . S
C1113 C1107 1.429 . S
C1113 C1114 1.523 . S
C1114 C1095 1.368 . S
C1114 C1108 1.368 . S
C1114 C1113 1.523 . S
C1115 C1099 1.429 . S
C1115 C1111 1.429 . S
C1115 C1116 1.523 . S
C1116 C1100 1.368 . S
C1116 C1112 1.368 . S
C1116 C1115 1.523 . S
H1117 C1092 0.950 . S
H1118 C1094 0.950 . S
H1119 C1095 0.949 . S
H1120 C1097 0.950 . S
H1121 C1099 0.950 . S
C1122 C1123 1.349 . S
C1122 C1124 1.327 . S
C1122 H1147 0.950 . S
C1123 C1122 1.349 . S
C1123 C1139 1.349 . S
C1124 C1122 1.327 . S
C1124 C1143 1.429 . S
C1124 H1148 0.950 . S
C1125 C1142 1.574 . S
C1125 C1144 1.368 . S
C1125 H1149 0.949 . S
H1126 C1130 0.949 . S
C1127 C1128 1.349 . S
C1127 C1129 1.327 . S
C1127 H1150 0.950 . S
C1128 C1127 1.349 . S
C1128 C1140 1.349 . S
C1129 C1127 1.327 . S
C1129 C1145 1.429 . S
C1129 H1151 0.950 . S
C1130 H1126 0.949 . S
C1130 C1138 1.574 . S
C1130 C1146 1.368 . S
H1131 C1139 0.950 . S
H1132 C1137 0.950 . S
H1133 C1138 0.949 . S
H1134 C1140 0.950 . S
H1135 C1141 0.950 . S
H1136 C1142 0.949 . S
C1137 H1132 0.950 . S
C1137 C1139 1.327 . S
C1137 C1143 1.429 . S
C1138 C1130 1.574 . S
C1138 H1133 0.949 . S
C1138 C1144 1.368 . S
C1139 C1123 1.349 . S
C1139 H1131 0.950 . S
C1139 C1137 1.327 . S
C1140 C1128 1.349 . S
C1140 H1134 0.950 . S
C1140 C1141 1.327 . S
C1141 H1135 0.950 . S
C1141 C1140 1.327 . S
C1141 C1145 1.429 . S
C1142 C1125 1.574 . S
C1142 H1136 0.949 . S
C1142 C1146 1.368 . S
C1143 C1124 1.429 . S
C1143 C1137 1.429 . S
C1143 C1144 1.523 . S
C1144 C1125 1.368 . S
C1144 C1138 1.368 . S
C1144 C1143 1.523 . S
C1145 C1129 1.429 . S
C1145 C1141 1.429 . S
C1145 C1146 1.523 . S
C1146 C1130 1.368 . S
C1146 C1142 1.368 . S
C1146 C1145 1.523 . S
H1147 C1122 0.950 . S
H1148 C1124 0.950 . S
H1149 C1125 0.949 . S
H1150 C1127 0.950 . S
H1151 C1129 0.950 . S
C1152 C1153 1.349 . S
C1152 C1154 1.327 . S
C1152 H1177 0.950 . S
C1153 C1152 1.349 . S
C1153 C1169 1.349 . S
C1154 C1152 1.327 . S
C1154 C1173 1.429 . S
C1154 H1178 0.950 . S
C1155 C1172 1.574 . S
C1155 C1174 1.368 . S
C1155 H1179 0.949 . S
H1156 C1160 0.949 . S
C1157 C1158 1.349 . S
C1157 C1159 1.327 . S
C1157 H1180 0.950 . S
C1158 C1157 1.349 . S
C1158 C1170 1.349 . S
C1159 C1157 1.327 . S
C1159 C1175 1.429 . S
C1159 H1181 0.950 . S
C1160 H1156 0.949 . S
C1160 C1168 1.574 . S
C1160 C1176 1.368 . S
H1161 C1169 0.950 . S
H1162 C1167 0.950 . S
H1163 C1168 0.949 . S
H1164 C1170 0.950 . S
H1165 C1171 0.950 . S
H1166 C1172 0.949 . S
C1167 H1162 0.950 . S
C1167 C1169 1.327 . S
C1167 C1173 1.429 . S
C1168 C1160 1.574 . S
C1168 H1163 0.949 . S
C1168 C1174 1.368 . S
C1169 C1153 1.349 . S
C1169 H1161 0.950 . S
C1169 C1167 1.327 . S
C1170 C1158 1.349 . S
C1170 H1164 0.950 . S
C1170 C1171 1.327 . S
C1171 H1165 0.950 . S
C1171 C1170 1.327 . S
C1171 C1175 1.429 . S
C1172 C1155 1.574 . S
C1172 H1166 0.949 . S
C1172 C1176 1.368 . S
C1173 C1154 1.429 . S
C1173 C1167 1.429 . S
C1173 C1174 1.523 . S
C1174 C1155 1.368 . S
C1174 C1168 1.368 . S
C1174 C1173 1.523 . S
C1175 C1159 1.429 . S
C1175 C1171 1.429 . S
C1175 C1176 1.523 . S
C1176 C1160 1.368 . S
C1176 C1172 1.368 . S
C1176 C1175 1.523 . S
H1177 C1152 0.950 . S
H1178 C1154 0.950 . S
H1179 C1155 0.949 . S
H1180 C1157 0.950 . S
H1181 C1159 0.950 . S
C1182 C1183 1.349 . S
C1182 C1184 1.327 . S
C1182 H1207 0.950 . S
C1183 C1182 1.349 . S
C1183 C1199 1.349 . S
C1184 C1182 1.327 . S
C1184 C1203 1.429 . S
C1184 H1208 0.950 . S
C1185 C1202 1.574 . S
C1185 C1204 1.368 . S
C1185 H1209 0.949 . S
H1186 C1190 0.949 . S
C1187 C1188 1.349 . S
C1187 C1189 1.327 . S
C1187 H1210 0.950 . S
C1188 C1187 1.349 . S
C1188 C1200 1.349 . S
C1189 C1187 1.327 . S
C1189 C1205 1.429 . S
C1189 H1211 0.950 . S
C1190 H1186 0.949 . S
C1190 C1198 1.574 . S
C1190 C1206 1.368 . S
H1191 C1199 0.950 . S
H1192 C1197 0.950 . S
H1193 C1198 0.949 . S
H1194 C1200 0.950 . S
H1195 C1201 0.950 . S
H1196 C1202 0.949 . S
C1197 H1192 0.950 . S
C1197 C1199 1.327 . S
C1197 C1203 1.429 . S
C1198 C1190 1.574 . S
C1198 H1193 0.949 . S
C1198 C1204 1.368 . S
C1199 C1183 1.349 . S
C1199 H1191 0.950 . S
C1199 C1197 1.327 . S
C1200 C1188 1.349 . S
C1200 H1194 0.950 . S
C1200 C1201 1.327 . S
C1201 H1195 0.950 . S
C1201 C1200 1.327 . S
C1201 C1205 1.429 . S
C1202 C1185 1.574 . S
C1202 H1196 0.949 . S
C1202 C1206 1.368 . S
C1203 C1184 1.429 . S
C1203 C1197 1.429 . S
C1203 C1204 1.523 . S
C1204 C1185 1.368 . S
C1204 C1198 1.368 . S
C1204 C1203 1.523 . S
C1205 C1189 1.429 . S
C1205 C1201 1.429 . S
C1205 C1206 1.523 . S
C1206 C1190 1.368 . S
C1206 C1202 1.368 . S
C1206 C1205 1.523 . S
H1207 C1182 0.950 . S
H1208 C1184 0.950 . S
H1209 C1185 0.949 . S
H1210 C1187 0.950 . S
H1211 C1189 0.950 . S
C1212 C1213 1.349 . S
C1212 C1214 1.327 . S
C1212 H1237 0.950 . S
C1213 C1212 1.349 . S
C1213 C1229 1.349 . S
C1214 C1212 1.327 . S
C1214 C1233 1.429 . S
C1214 H1238 0.950 . S
C1215 C1232 1.574 . S
C1215 C1234 1.368 . S
C1215 H1239 0.949 . S
H1216 C1220 0.949 . S
C1217 C1218 1.349 . S
C1217 C1219 1.327 . S
C1217 H1240 0.950 . S
C1218 C1217 1.349 . S
C1218 C1230 1.349 . S
C1219 C1217 1.327 . S
C1219 C1235 1.429 . S
C1219 H1241 0.950 . S
C1220 H1216 0.949 . S
C1220 C1228 1.574 . S
C1220 C1236 1.368 . S
H1221 C1229 0.950 . S
H1222 C1227 0.950 . S
H1223 C1228 0.949 . S
H1224 C1230 0.950 . S
H1225 C1231 0.950 . S
H1226 C1232 0.949 . S
C1227 H1222 0.950 . S
C1227 C1229 1.327 . S
C1227 C1233 1.429 . S
C1228 C1220 1.574 . S
C1228 H1223 0.949 . S
C1228 C1234 1.368 . S
C1229 C1213 1.349 . S
C1229 H1221 0.950 . S
C1229 C1227 1.327 . S
C1230 C1218 1.349 . S
C1230 H1224 0.950 . S
C1230 C1231 1.327 . S
C1231 H1225 0.950 . S
C1231 C1230 1.327 . S
C1231 C1235 1.429 . S
C1232 C1215 1.574 . S
C1232 H1226 0.949 . S
C1232 C1236 1.368 . S
C1233 C1214 1.429 . S
C1233 C1227 1.429 . S
C1233 C1234 1.523 . S
C1234 C1215 1.368 . S
C1234 C1228 1.368 . S
C1234 C1233 1.523 . S
C1235 C1219 1.429 . S
C1235 C1231 1.429 . S
C1235 C1236 1.523 . S
C1236 C1220 1.368 . S
C1236 C1232 1.368 . S
C1236 C1235 1.523 . S
H1237 C1212 0.950 . S
H1238 C1214 0.950 . S
H1239 C1215 0.949 . S
H1240 C1217 0.950 . S
H1241 C1219 0.950 . S
C1242 C1243 1.349 . S
C1242 C1244 1.327 . S
C1242 H1267 0.950 . S
C1243 C1242 1.349 . S
C1243 C1259 1.349 . S
C1244 C1242 1.327 . S
C1244 C1263 1.429 . S
C1244 H1268 0.950 . S
C1245 C1262 1.574 . S
C1245 C1264 1.368 . S
C1245 H1269 0.949 . S
H1246 C1250 0.949 . S
C1247 C1248 1.349 . S
C1247 C1249 1.327 . S
C1247 H1270 0.950 . S
C1248 C1247 1.349 . S
C1248 C1260 1.349 . S
C1249 C1247 1.327 . S
C1249 C1265 1.429 . S
C1249 H1271 0.950 . S
C1250 H1246 0.949 . S
C1250 C1258 1.574 . S
C1250 C1266 1.368 . S
H1251 C1259 0.950 . S
H1252 C1257 0.950 . S
H1253 C1258 0.949 . S
H1254 C1260 0.950 . S
H1255 C1261 0.950 . S
H1256 C1262 0.949 . S
C1257 H1252 0.950 . S
C1257 C1259 1.327 . S
C1257 C1263 1.429 . S
C1258 C1250 1.574 . S
C1258 H1253 0.949 . S
C1258 C1264 1.368 . S
C1259 C1243 1.349 . S
C1259 H1251 0.950 . S
C1259 C1257 1.327 . S
C1260 C1248 1.349 . S
C1260 H1254 0.950 . S
C1260 C1261 1.327 . S
C1261 H1255 0.950 . S
C1261 C1260 1.327 . S
C1261 C1265 1.429 . S
C1262 C1245 1.574 . S
C1262 H1256 0.949 . S
C1262 C1266 1.368 . S
C1263 C1244 1.429 . S
C1263 C1257 1.429 . S
C1263 C1264 1.523 . S
C1264 C1245 1.368 . S
C1264 C1258 1.368 . S
C1264 C1263 1.523 . S
C1265 C1249 1.429 . S
C1265 C1261 1.429 . S
C1265 C1266 1.523 . S
C1266 C1250 1.368 . S
C1266 C1262 1.368 . S
C1266 C1265 1.523 . S
H1267 C1242 0.950 . S
H1268 C1244 0.950 . S
H1269 C1245 0.949 . S
H1270 C1247 0.950 . S
H1271 C1249 0.950 . S
C1272 C1273 1.349 . S
C1272 C1274 1.327 . S
C1272 H1297 0.950 . S
C1273 C1272 1.349 . S
C1273 C1289 1.349 . S
C1274 C1272 1.327 . S
C1274 C1293 1.429 . S
C1274 H1298 0.950 . S
C1275 C1292 1.574 . S
C1275 C1294 1.368 . S
C1275 H1299 0.949 . S
H1276 C1280 0.949 . S
C1277 C1278 1.349 . S
C1277 C1279 1.327 . S
C1277 H1300 0.950 . S
C1278 C1277 1.349 . S
C1278 C1290 1.349 . S
C1279 C1277 1.327 . S
C1279 C1295 1.429 . S
C1279 H1301 0.950 . S
C1280 H1276 0.949 . S
C1280 C1288 1.574 . S
C1280 C1296 1.368 . S
H1281 C1289 0.950 . S
H1282 C1287 0.950 . S
H1283 C1288 0.949 . S
H1284 C1290 0.950 . S
H1285 C1291 0.950 . S
H1286 C1292 0.949 . S
C1287 H1282 0.950 . S
C1287 C1289 1.327 . S
C1287 C1293 1.429 . S
C1288 C1280 1.574 . S
C1288 H1283 0.949 . S
C1288 C1294 1.368 . S
C1289 C1273 1.349 . S
C1289 H1281 0.950 . S
C1289 C1287 1.327 . S
C1290 C1278 1.349 . S
C1290 H1284 0.950 . S
C1290 C1291 1.327 . S
C1291 H1285 0.950 . S
C1291 C1290 1.327 . S
C1291 C1295 1.429 . S
C1292 C1275 1.574 . S
C1292 H1286 0.949 . S
C1292 C1296 1.368 . S
C1293 C1274 1.429 . S
C1293 C1287 1.429 . S
C1293 C1294 1.523 . S
C1294 C1275 1.368 . S
C1294 C1288 1.368 . S
C1294 C1293 1.523 . S
C1295 C1279 1.429 . S
C1295 C1291 1.429 . S
C1295 C1296 1.523 . S
C1296 C1280 1.368 . S
C1296 C1292 1.368 . S
C1296 C1295 1.523 . S
H1297 C1272 0.950 . S
H1298 C1274 0.950 . S
H1299 C1275 0.949 . S
H1300 C1277 0.950 . S
H1301 C1279 0.950 . S
C1302 C1303 1.349 . S
C1302 C1304 1.327 . S
C1302 H1327 0.950 . S
C1303 C1302 1.349 . S
C1303 C1319 1.349 . S
C1304 C1302 1.327 . S
C1304 C1323 1.429 . S
C1304 H1328 0.950 . S
C1305 C1322 1.574 . S
C1305 C1324 1.368 . S
C1305 H1329 0.949 . S
H1306 C1310 0.949 . S
C1307 C1308 1.349 . S
C1307 C1309 1.327 . S
C1307 H1330 0.950 . S
C1308 C1307 1.349 . S
C1308 C1320 1.349 . S
C1309 C1307 1.327 . S
C1309 C1325 1.429 . S
C1309 H1331 0.950 . S
C1310 H1306 0.949 . S
C1310 C1318 1.574 . S
C1310 C1326 1.368 . S
H1311 C1319 0.950 . S
H1312 C1317 0.950 . S
H1313 C1318 0.949 . S
H1314 C1320 0.950 . S
H1315 C1321 0.950 . S
H1316 C1322 0.949 . S
C1317 H1312 0.950 . S
C1317 C1319 1.327 . S
C1317 C1323 1.429 . S
C1318 C1310 1.574 . S
C1318 H1313 0.949 . S
C1318 C1324 1.368 . S
C1319 C1303 1.349 . S
C1319 H1311 0.950 . S
C1319 C1317 1.327 . S
C1320 C1308 1.349 . S
C1320 H1314 0.950 . S
C1320 C1321 1.327 . S
C1321 H1315 0.950 . S
C1321 C1320 1.327 . S
C1321 C1325 1.429 . S
C1322 C1305 1.574 . S
C1322 H1316 0.949 . S
C1322 C1326 1.368 . S
C1323 C1304 1.429 . S
C1323 C1317 1.429 . S
C1323 C1324 1.523 . S
C1324 C1305 1.368 . S
C1324 C1318 1.368 . S
C1324 C1323 1.523 . S
C1325 C1309 1.429 . S
C1325 C1321 1.429 . S
C1325 C1326 1.523 . S
C1326 C1310 1.368 . S
C1326 C1322 1.368 . S
C1326 C1325 1.523 . S
H1327 C1302 0.950 . S
H1328 C1304 0.950 . S
H1329 C1305 0.949 . S
H1330 C1307 0.950 . S
H1331 C1309 0.950 . S
C1332 C1333 1.349 . S
C1332 C1334 1.327 . S
C1332 H1357 0.950 . S
C1333 C1332 1.349 . S
C1333 C1349 1.349 . S
C1334 C1332 1.327 . S
C1334 C1353 1.429 . S
C1334 H1358 0.950 . S
C1335 C1352 1.574 . S
C1335 C1354 1.368 . S
C1335 H1359 0.949 . S
H1336 C1340 0.949 . S
C1337 C1338 1.349 . S
C1337 C1339 1.327 . S
C1337 H1360 0.950 . S
C1338 C1337 1.349 . S
C1338 C1350 1.349 . S
C1339 C1337 1.327 . S
C1339 C1355 1.429 . S
C1339 H1361 0.950 . S
C1340 H1336 0.949 . S
C1340 C1348 1.574 . S
C1340 C1356 1.368 . S
H1341 C1349 0.950 . S
H1342 C1347 0.950 . S
H1343 C1348 0.949 . S
H1344 C1350 0.950 . S
H1345 C1351 0.950 . S
H1346 C1352 0.949 . S
C1347 H1342 0.950 . S
C1347 C1349 1.327 . S
C1347 C1353 1.429 . S
C1348 C1340 1.574 . S
C1348 H1343 0.949 . S
C1348 C1354 1.368 . S
C1349 C1333 1.349 . S
C1349 H1341 0.950 . S
C1349 C1347 1.327 . S
C1350 C1338 1.349 . S
C1350 H1344 0.950 . S
C1350 C1351 1.327 . S
C1351 H1345 0.950 . S
C1351 C1350 1.327 . S
C1351 C1355 1.429 . S
C1352 C1335 1.574 . S
C1352 H1346 0.949 . S
C1352 C1356 1.368 . S
C1353 C1334 1.429 . S
C1353 C1347 1.429 . S
C1353 C1354 1.523 . S
C1354 C1335 1.368 . S
C1354 C1348 1.368 . S
C1354 C1353 1.523 . S
C1355 C1339 1.429 . S
C1355 C1351 1.429 . S
C1355 C1356 1.523 . S
C1356 C1340 1.368 . S
C1356 C1352 1.368 . S
C1356 C1355 1.523 . S
H1357 C1332 0.950 . S
H1358 C1334 0.950 . S
H1359 C1335 0.949 . S
H1360 C1337 0.950 . S
H1361 C1339 0.950 . S
C1362 C1363 1.349 . S
C1362 C1364 1.327 . S
C1362 H1387 0.950 . S
C1363 C1362 1.349 . S
C1363 C1379 1.349 . S
C1364 C1362 1.327 . S
C1364 C1383 1.429 . S
C1364 H1388 0.950 . S
C1365 C1382 1.574 . S
C1365 C1384 1.368 . S
C1365 H1389 0.949 . S
H1366 C1370 0.949 . S
C1367 C1368 1.349 . S
C1367 C1369 1.327 . S
C1367 H1390 0.950 . S
C1368 C1367 1.349 . S
C1368 C1380 1.349 . S
C1369 C1367 1.327 . S
C1369 C1385 1.429 . S
C1369 H1391 0.950 . S
C1370 H1366 0.949 . S
C1370 C1378 1.574 . S
C1370 C1386 1.368 . S
H1371 C1379 0.950 . S
H1372 C1377 0.950 . S
H1373 C1378 0.949 . S
H1374 C1380 0.950 . S
H1375 C1381 0.950 . S
H1376 C1382 0.949 . S
C1377 H1372 0.950 . S
C1377 C1379 1.327 . S
C1377 C1383 1.429 . S
C1378 C1370 1.574 . S
C1378 H1373 0.949 . S
C1378 C1384 1.368 . S
C1379 C1363 1.349 . S
C1379 H1371 0.950 . S
C1379 C1377 1.327 . S
C1380 C1368 1.349 . S
C1380 H1374 0.950 . S
C1380 C1381 1.327 . S
C1381 H1375 0.950 . S
C1381 C1380 1.327 . S
C1381 C1385 1.429 . S
C1382 C1365 1.574 . S
C1382 H1376 0.949 . S
C1382 C1386 1.368 . S
C1383 C1364 1.429 . S
C1383 C1377 1.429 . S
C1383 C1384 1.523 . S
C1384 C1365 1.368 . S
C1384 C1378 1.368 . S
C1384 C1383 1.523 . S
C1385 C1369 1.429 . S
C1385 C1381 1.429 . S
C1385 C1386 1.523 . S
C1386 C1370 1.368 . S
C1386 C1382 1.368 . S
C1386 C1385 1.523 . S
H1387 C1362 0.950 . S
H1388 C1364 0.950 . S
H1389 C1365 0.949 . S
H1390 C1367 0.950 . S
H1391 C1369 0.950 . S
C1392 C1393 1.349 . S
C1392 C1394 1.327 . S
C1392 H1417 0.950 . S
C1393 C1392 1.349 . S
C1393 C1409 1.349 . S
C1394 C1392 1.327 . S
C1394 C1413 1.429 . S
C1394 H1418 0.950 . S
C1395 C1412 1.574 . S
C1395 C1414 1.368 . S
C1395 H1419 0.949 . S
H1396 C1400 0.949 . S
C1397 C1398 1.349 . S
C1397 C1399 1.327 . S
C1397 H1420 0.950 . S
C1398 C1397 1.349 . S
C1398 C1410 1.349 . S
C1399 C1397 1.327 . S
C1399 C1415 1.429 . S
C1399 H1421 0.950 . S
C1400 H1396 0.949 . S
C1400 C1408 1.574 . S
C1400 C1416 1.368 . S
H1401 C1409 0.950 . S
H1402 C1407 0.950 . S
H1403 C1408 0.949 . S
H1404 C1410 0.950 . S
H1405 C1411 0.950 . S
H1406 C1412 0.949 . S
C1407 H1402 0.950 . S
C1407 C1409 1.327 . S
C1407 C1413 1.429 . S
C1408 C1400 1.574 . S
C1408 H1403 0.949 . S
C1408 C1414 1.368 . S
C1409 C1393 1.349 . S
C1409 H1401 0.950 . S
C1409 C1407 1.327 . S
C1410 C1398 1.349 . S
C1410 H1404 0.950 . S
C1410 C1411 1.327 . S
C1411 H1405 0.950 . S
C1411 C1410 1.327 . S
C1411 C1415 1.429 . S
C1412 C1395 1.574 . S
C1412 H1406 0.949 . S
C1412 C1416 1.368 . S
C1413 C1394 1.429 . S
C1413 C1407 1.429 . S
C1413 C1414 1.523 . S
C1414 C1395 1.368 . S
C1414 C1408 1.368 . S
C1414 C1413 1.523 . S
C1415 C1399 1.429 . S
C1415 C1411 1.429 . S
C1415 C1416 1.523 . S
C1416 C1400 1.368 . S
C1416 C1412 1.368 . S
C1416 C1415 1.523 . S
H1417 C1392 0.950 . S
H1418 C1394 0.950 . S
H1419 C1395 0.949 . S
H1420 C1397 0.950 . S
H1421 C1399 0.950 . S
C1422 C1423 1.349 . S
C1422 C1424 1.327 . S
C1422 H1447 0.950 . S
C1423 C1422 1.349 . S
C1423 C1439 1.349 . S
C1424 C1422 1.327 . S
C1424 C1443 1.429 . S
C1424 H1448 0.950 . S
C1425 C1442 1.555 1_556 S
C1425 C1444 1.376 . S
C1425 H1449 0.959 . S
H1426 C1430 0.949 . S
C1427 C1428 1.349 . S
C1427 C1429 1.327 . S
C1427 H1450 0.950 . S
C1428 C1427 1.349 . S
C1428 C1440 1.349 . S
C1429 C1427 1.327 . S
C1429 C1445 1.429 . S
C1429 H1451 0.950 . S
C1430 H1426 0.949 . S
C1430 C1438 1.574 1_554 S
C1430 C1446 1.368 . S
H1431 C1439 0.950 . S
H1432 C1437 0.950 . S
H1433 C1438 0.949 . S
H1434 C1440 0.950 . S
H1435 C1441 0.950 . S
H1436 C1442 0.949 . S
C1437 H1432 0.950 . S
C1437 C1439 1.327 . S
C1437 C1443 1.429 . S
C1438 C1430 1.574 1_556 S
C1438 H1433 0.949 . S
C1438 C1444 1.368 . S
C1439 C1423 1.349 . S
C1439 H1431 0.950 . S
C1439 C1437 1.327 . S
C1440 C1428 1.349 . S
C1440 H1434 0.950 . S
C1440 C1441 1.327 . S
C1441 H1435 0.950 . S
C1441 C1440 1.327 . S
C1441 C1445 1.429 . S
C1442 C1425 1.555 1_554 S
C1442 H1436 0.949 . S
C1442 C1446 1.368 . S
C1443 C1424 1.429 . S
C1443 C1437 1.429 . S
C1443 C1444 1.523 . S
C1444 C1425 1.376 . S
C1444 C1438 1.368 . S
C1444 C1443 1.523 . S
C1445 C1429 1.429 . S
C1445 C1441 1.429 . S
C1445 C1446 1.523 . S
C1446 C1430 1.368 . S
C1446 C1442 1.368 . S
C1446 C1445 1.523 . S
H1447 C1422 0.950 . S
H1448 C1424 0.950 . S
H1449 C1425 0.959 . S
H1450 C1427 0.950 . S
H1451 C1429 0.950 . S
C1452 C1453 1.349 . S
C1452 C1454 1.327 . S
C1452 H1477 0.950 . S
C1453 C1452 1.349 . S
C1453 C1469 1.349 . S
C1454 C1452 1.327 . S
C1454 C1473 1.429 . S
C1454 H1478 0.950 . S
C1455 C1472 1.574 . S
C1455 C1474 1.368 . S
C1455 H1479 0.949 . S
H1456 C1460 0.949 . S
C1457 C1458 1.349 . S
C1457 C1459 1.327 . S
C1457 H1480 0.950 . S
C1458 C1457 1.349 . S
C1458 C1470 1.349 . S
C1459 C1457 1.327 . S
C1459 C1475 1.429 . S
C1459 H1481 0.950 . S
C1460 H1456 0.949 . S
C1460 C1468 1.574 . S
C1460 C1476 1.368 . S
H1461 C1469 0.950 . S
H1462 C1467 0.950 . S
H1463 C1468 0.949 . S
H1464 C1470 0.950 . S
H1465 C1471 0.950 . S
H1466 C1472 0.949 . S
C1467 H1462 0.950 . S
C1467 C1469 1.327 . S
C1467 C1473 1.429 . S
C1468 C1460 1.574 . S
C1468 H1463 0.949 . S
C1468 C1474 1.368 . S
C1469 C1453 1.349 . S
C1469 H1461 0.950 . S
C1469 C1467 1.327 . S
C1470 C1458 1.349 . S
C1470 H1464 0.950 . S
C1470 C1471 1.327 . S
C1471 H1465 0.950 . S
C1471 C1470 1.327 . S
C1471 C1475 1.429 . S
C1472 C1455 1.574 . S
C1472 H1466 0.949 . S
C1472 C1476 1.368 . S
C1473 C1454 1.429 . S
C1473 C1467 1.429 . S
C1473 C1474 1.523 . S
C1474 C1455 1.368 . S
C1474 C1468 1.368 . S
C1474 C1473 1.523 . S
C1475 C1459 1.429 . S
C1475 C1471 1.429 . S
C1475 C1476 1.523 . S
C1476 C1460 1.368 . S
C1476 C1472 1.368 . S
C1476 C1475 1.523 . S
H1477 C1452 0.950 . S
H1478 C1454 0.950 . S
H1479 C1455 0.949 . S
H1480 C1457 0.950 . S
H1481 C1459 0.950 . S
C1482 C1483 1.349 . S
C1482 C1484 1.327 . S
C1482 H1507 0.950 . S
C1483 C1482 1.349 . S
C1483 C1499 1.349 . S
C1484 C1482 1.327 . S
C1484 C1503 1.429 . S
C1484 H1508 0.950 . S
C1485 C1502 1.558 1_556 S
C1485 C1504 1.375 . S
C1485 H1509 0.957 . S
H1486 C1490 0.949 . S
C1487 C1488 1.349 . S
C1487 C1489 1.327 . S
C1487 H1510 0.950 . S
C1488 C1487 1.349 . S
C1488 C1500 1.349 . S
C1489 C1487 1.327 . S
C1489 C1505 1.429 . S
C1489 H1511 0.950 . S
C1490 H1486 0.949 . S
C1490 C1498 1.574 1_554 S
C1490 C1506 1.368 . S
H1491 C1499 0.950 . S
H1492 C1497 0.950 . S
H1493 C1498 0.949 . S
H1494 C1500 0.950 . S
H1495 C1501 0.950 . S
H1496 C1502 0.949 . S
C1497 H1492 0.950 . S
C1497 C1499 1.327 . S
C1497 C1503 1.429 . S
C1498 C1490 1.574 1_556 S
C1498 H1493 0.949 . S
C1498 C1504 1.368 . S
C1499 C1483 1.349 . S
C1499 H1491 0.950 . S
C1499 C1497 1.327 . S
C1500 C1488 1.349 . S
C1500 H1494 0.950 . S
C1500 C1501 1.327 . S
C1501 H1495 0.950 . S
C1501 C1500 1.327 . S
C1501 C1505 1.429 . S
C1502 C1485 1.558 1_554 S
C1502 H1496 0.949 . S
C1502 C1506 1.368 . S
C1503 C1484 1.429 . S
C1503 C1497 1.429 . S
C1503 C1504 1.523 . S
C1504 C1485 1.375 . S
C1504 C1498 1.368 . S
C1504 C1503 1.523 . S
C1505 C1489 1.429 . S
C1505 C1501 1.429 . S
C1505 C1506 1.523 . S
C1506 C1490 1.368 . S
C1506 C1502 1.368 . S
C1506 C1505 1.523 . S
H1507 C1482 0.950 . S
H1508 C1484 0.950 . S
H1509 C1485 0.957 . S
H1510 C1487 0.950 . S
H1511 C1489 0.950 . S
C1512 C1513 1.349 . S
C1512 C1514 1.327 . S
C1512 H1537 0.950 . S
C1513 C1512 1.349 . S
C1513 C1529 1.349 . S
C1514 C1512 1.327 . S
C1514 C1533 1.429 . S
C1514 H1538 0.950 . S
C1515 C1532 1.574 . S
C1515 C1534 1.368 . S
C1515 H1539 0.949 . S
H1516 C1520 0.949 . S
C1517 C1518 1.349 . S
C1517 C1519 1.327 . S
C1517 H1540 0.950 . S
C1518 C1517 1.349 . S
C1518 C1530 1.349 . S
C1519 C1517 1.327 . S
C1519 C1535 1.429 . S
C1519 H1541 0.950 . S
C1520 H1516 0.949 . S
C1520 C1528 1.574 . S
C1520 C1536 1.368 . S
H1521 C1529 0.950 . S
H1522 C1527 0.950 . S
H1523 C1528 0.949 . S
H1524 C1530 0.950 . S
H1525 C1531 0.950 . S
H1526 C1532 0.949 . S
C1527 H1522 0.950 . S
C1527 C1529 1.327 . S
C1527 C1533 1.429 . S
C1528 C1520 1.574 . S
C1528 H1523 0.949 . S
C1528 C1534 1.368 . S
C1529 C1513 1.349 . S
C1529 H1521 0.950 . S
C1529 C1527 1.327 . S
C1530 C1518 1.349 . S
C1530 H1524 0.950 . S
C1530 C1531 1.327 . S
C1531 H1525 0.950 . S
C1531 C1530 1.327 . S
C1531 C1535 1.429 . S
C1532 C1515 1.574 . S
C1532 H1526 0.949 . S
C1532 C1536 1.368 . S
C1533 C1514 1.429 . S
C1533 C1527 1.429 . S
C1533 C1534 1.523 . S
C1534 C1515 1.368 . S
C1534 C1528 1.368 . S
C1534 C1533 1.523 . S
C1535 C1519 1.429 . S
C1535 C1531 1.429 . S
C1535 C1536 1.523 . S
C1536 C1520 1.368 . S
C1536 C1532 1.368 . S
C1536 C1535 1.523 . S
H1537 C1512 0.950 . S
H1538 C1514 0.950 . S
H1539 C1515 0.949 . S
H1540 C1517 0.950 . S
H1541 C1519 0.950 . S
C1542 C1543 1.349 . S
C1542 C1544 1.327 . S
C1542 H1567 0.950 . S
C1543 C1542 1.349 . S
C1543 C1559 1.349 . S
C1544 C1542 1.327 . S
C1544 C1563 1.429 . S
C1544 H1568 0.950 . S
C1545 C1562 1.574 1_556 S
C1545 C1564 1.368 . S
C1545 H1569 0.949 . S
H1546 C1550 0.949 . S
C1547 C1548 1.349 . S
C1547 C1549 1.327 . S
C1547 H1570 0.950 . S
C1548 C1547 1.349 . S
C1548 C1560 1.349 . S
C1549 C1547 1.327 . S
C1549 C1565 1.429 . S
C1549 H1571 0.950 . S
C1550 H1546 0.949 . S
C1550 C1558 1.574 1_554 S
C1550 C1566 1.368 . S
H1551 C1559 0.950 . S
H1552 C1557 0.950 . S
H1553 C1558 0.949 . S
H1554 C1560 0.950 . S
H1555 C1561 0.950 . S
H1556 C1562 0.949 . S
C1557 H1552 0.950 . S
C1557 C1559 1.327 . S
C1557 C1563 1.429 . S
C1558 C1550 1.574 1_556 S
C1558 H1553 0.949 . S
C1558 C1564 1.368 . S
C1559 C1543 1.349 . S
C1559 H1551 0.950 . S
C1559 C1557 1.327 . S
C1560 C1548 1.349 . S
C1560 H1554 0.950 . S
C1560 C1561 1.327 . S
C1561 H1555 0.950 . S
C1561 C1560 1.327 . S
C1561 C1565 1.429 . S
C1562 C1545 1.574 1_554 S
C1562 H1556 0.949 . S
C1562 C1566 1.368 . S
C1563 C1544 1.429 . S
C1563 C1557 1.429 . S
C1563 C1564 1.523 . S
C1564 C1545 1.368 . S
C1564 C1558 1.368 . S
C1564 C1563 1.523 . S
C1565 C1549 1.429 . S
C1565 C1561 1.429 . S
C1565 C1566 1.523 . S
C1566 C1550 1.368 . S
C1566 C1562 1.368 . S
C1566 C1565 1.523 . S
H1567 C1542 0.950 . S
H1568 C1544 0.950 . S
H1569 C1545 0.949 . S
H1570 C1547 0.950 . S
H1571 C1549 0.950 . S
C1572 C1573 1.349 . S
C1572 C1574 1.327 . S
C1572 H1597 0.950 . S
C1573 C1572 1.349 . S
C1573 C1589 1.349 . S
C1574 C1572 1.327 . S
C1574 C1593 1.429 . S
C1574 H1598 0.950 . S
C1575 C1592 1.574 . S
C1575 C1594 1.368 . S
C1575 H1599 0.949 . S
H1576 C1580 0.949 . S
C1577 C1578 1.349 . S
C1577 C1579 1.327 . S
C1577 H1600 0.950 . S
C1578 C1577 1.349 . S
C1578 C1590 1.349 . S
C1579 C1577 1.327 . S
C1579 C1595 1.429 . S
C1579 H1601 0.950 . S
C1580 H1576 0.949 . S
C1580 C1588 1.574 . S
C1580 C1596 1.368 . S
H1581 C1589 0.950 . S
H1582 C1587 0.950 . S
H1583 C1588 0.949 . S
H1584 C1590 0.950 . S
H1585 C1591 0.950 . S
H1586 C1592 0.949 . S
C1587 H1582 0.950 . S
C1587 C1589 1.327 . S
C1587 C1593 1.429 . S
C1588 C1580 1.574 . S
C1588 H1583 0.949 . S
C1588 C1594 1.368 . S
C1589 C1573 1.349 . S
C1589 H1581 0.950 . S
C1589 C1587 1.327 . S
C1590 C1578 1.349 . S
C1590 H1584 0.950 . S
C1590 C1591 1.327 . S
C1591 H1585 0.950 . S
C1591 C1590 1.327 . S
C1591 C1595 1.429 . S
C1592 C1575 1.574 . S
C1592 H1586 0.949 . S
C1592 C1596 1.368 . S
C1593 C1574 1.429 . S
C1593 C1587 1.429 . S
C1593 C1594 1.523 . S
C1594 C1575 1.368 . S
C1594 C1588 1.368 . S
C1594 C1593 1.523 . S
C1595 C1579 1.429 . S
C1595 C1591 1.429 . S
C1595 C1596 1.523 . S
C1596 C1580 1.368 . S
C1596 C1592 1.368 . S
C1596 C1595 1.523 . S
H1597 C1572 0.950 . S
H1598 C1574 0.950 . S
H1599 C1575 0.949 . S
H1600 C1577 0.950 . S
H1601 C1579 0.950 . S
C1602 C1603 1.349 . S
C1602 C1604 1.327 . S
C1602 H1627 0.950 . S
C1603 C1602 1.349 . S
C1603 C1619 1.349 . S
C1604 C1602 1.327 . S
C1604 C1623 1.429 . S
C1604 H1628 0.950 . S
C1605 C1622 1.574 1_556 S
C1605 C1624 1.368 . S
C1605 H1629 0.949 . S
H1606 C1610 0.949 . S
C1607 C1608 1.349 . S
C1607 C1609 1.327 . S
C1607 H1630 0.950 . S
C1608 C1607 1.349 . S
C1608 C1620 1.349 . S
C1609 C1607 1.327 . S
C1609 C1625 1.429 . S
C1609 H1631 0.950 . S
C1610 H1606 0.949 . S
C1610 C1618 1.574 1_554 S
C1610 C1626 1.368 . S
H1611 C1619 0.950 . S
H1612 C1617 0.950 . S
H1613 C1618 0.949 . S
H1614 C1620 0.950 . S
H1615 C1621 0.950 . S
H1616 C1622 0.949 . S
C1617 H1612 0.950 . S
C1617 C1619 1.327 . S
C1617 C1623 1.429 . S
C1618 C1610 1.574 1_556 S
C1618 H1613 0.949 . S
C1618 C1624 1.368 . S
C1619 C1603 1.349 . S
C1619 H1611 0.950 . S
C1619 C1617 1.327 . S
C1620 C1608 1.349 . S
C1620 H1614 0.950 . S
C1620 C1621 1.327 . S
C1621 H1615 0.950 . S
C1621 C1620 1.327 . S
C1621 C1625 1.429 . S
C1622 C1605 1.574 1_554 S
C1622 H1616 0.949 . S
C1622 C1626 1.368 . S
C1623 C1604 1.429 . S
C1623 C1617 1.429 . S
C1623 C1624 1.523 . S
C1624 C1605 1.368 . S
C1624 C1618 1.368 . S
C1624 C1623 1.523 . S
C1625 C1609 1.429 . S
C1625 C1621 1.429 . S
C1625 C1626 1.523 . S
C1626 C1610 1.368 . S
C1626 C1622 1.368 . S
C1626 C1625 1.523 . S
H1627 C1602 0.950 . S
H1628 C1604 0.950 . S
H1629 C1605 0.949 . S
H1630 C1607 0.950 . S
H1631 C1609 0.950 . S
C1632 C1633 1.349 . S
C1632 C1634 1.327 . S
C1632 H1657 0.950 . S
C1633 C1632 1.349 . S
C1633 C1649 1.349 . S
C1634 C1632 1.327 . S
C1634 C1653 1.429 . S
C1634 H1658 0.950 . S
C1635 C1652 1.574 . S
C1635 C1654 1.368 . S
C1635 H1659 0.949 . S
H1636 C1640 0.949 . S
C1637 C1638 1.349 . S
C1637 C1639 1.327 . S
C1637 H1660 0.950 . S
C1638 C1637 1.349 . S
C1638 C1650 1.349 . S
C1639 C1637 1.327 . S
C1639 C1655 1.429 . S
C1639 H1661 0.950 . S
C1640 H1636 0.949 . S
C1640 C1648 1.574 . S
C1640 C1656 1.368 . S
H1641 C1649 0.950 . S
H1642 C1647 0.950 . S
H1643 C1648 0.949 . S
H1644 C1650 0.950 . S
H1645 C1651 0.950 . S
H1646 C1652 0.949 . S
C1647 H1642 0.950 . S
C1647 C1649 1.327 . S
C1647 C1653 1.429 . S
C1648 C1640 1.574 . S
C1648 H1643 0.949 . S
C1648 C1654 1.368 . S
C1649 C1633 1.349 . S
C1649 H1641 0.950 . S
C1649 C1647 1.327 . S
C1650 C1638 1.349 . S
C1650 H1644 0.950 . S
C1650 C1651 1.327 . S
C1651 H1645 0.950 . S
C1651 C1650 1.327 . S
C1651 C1655 1.429 . S
C1652 C1635 1.574 . S
C1652 H1646 0.949 . S
C1652 C1656 1.368 . S
C1653 C1634 1.429 . S
C1653 C1647 1.429 . S
C1653 C1654 1.523 . S
C1654 C1635 1.368 . S
C1654 C1648 1.368 . S
C1654 C1653 1.523 . S
C1655 C1639 1.429 . S
C1655 C1651 1.429 . S
C1655 C1656 1.523 . S
C1656 C1640 1.368 . S
C1656 C1652 1.368 . S
C1656 C1655 1.523 . S
H1657 C1632 0.950 . S
H1658 C1634 0.950 . S
H1659 C1635 0.949 . S
H1660 C1637 0.950 . S
H1661 C1639 0.950 . S
C1662 C1663 1.349 . S
C1662 C1664 1.327 . S
C1662 H1687 0.950 . S
C1663 C1662 1.349 . S
C1663 C1679 1.349 . S
C1664 C1662 1.327 . S
C1664 C1683 1.429 . S
C1664 H1688 0.950 . S
C1665 C1682 1.574 1_565 S
C1665 C1684 1.368 . S
C1665 H1689 0.949 . S
H1666 C1670 0.949 . S
C1667 C1668 1.349 . S
C1667 C1669 1.327 . S
C1667 H1690 0.950 . S
C1668 C1667 1.349 . S
C1668 C1680 1.349 . S
C1669 C1667 1.327 . S
C1669 C1685 1.429 . S
C1669 H1691 0.950 . S
C1670 H1666 0.949 . S
C1670 C1678 1.574 1_545 S
C1670 C1686 1.368 . S
H1671 C1679 0.950 . S
H1672 C1677 0.950 . S
H1673 C1678 0.949 . S
H1674 C1680 0.950 . S
H1675 C1681 0.950 . S
H1676 C1682 0.949 . S
C1677 H1672 0.950 . S
C1677 C1679 1.327 . S
C1677 C1683 1.429 . S
C1678 C1670 1.574 1_565 S
C1678 H1673 0.949 . S
C1678 C1684 1.368 . S
C1679 C1663 1.349 . S
C1679 H1671 0.950 . S
C1679 C1677 1.327 . S
C1680 C1668 1.349 . S
C1680 H1674 0.950 . S
C1680 C1681 1.327 . S
C1681 H1675 0.950 . S
C1681 C1680 1.327 . S
C1681 C1685 1.429 . S
C1682 C1665 1.574 1_545 S
C1682 H1676 0.949 . S
C1682 C1686 1.368 . S
C1683 C1664 1.429 . S
C1683 C1677 1.429 . S
C1683 C1684 1.523 . S
C1684 C1665 1.368 . S
C1684 C1678 1.368 . S
C1684 C1683 1.523 . S
C1685 C1669 1.429 . S
C1685 C1681 1.429 . S
C1685 C1686 1.523 . S
C1686 C1670 1.368 . S
C1686 C1682 1.368 . S
C1686 C1685 1.523 . S
H1687 C1662 0.950 . S
H1688 C1664 0.950 . S
H1689 C1665 0.949 . S
H1690 C1667 0.950 . S
H1691 C1669 0.950 . S
C1692 C1693 1.349 . S
C1692 C1694 1.327 . S
C1692 H1717 0.950 . S
C1693 C1692 1.349 . S
C1693 C1709 1.349 . S
C1694 C1692 1.327 . S
C1694 C1713 1.429 . S
C1694 H1718 0.950 . S
C1695 C1712 1.574 . S
C1695 C1714 1.368 . S
C1695 H1719 0.949 . S
H1696 C1700 0.949 . S
C1697 C1698 1.349 . S
C1697 C1699 1.327 . S
C1697 H1720 0.950 . S
C1698 C1697 1.349 . S
C1698 C1710 1.349 . S
C1699 C1697 1.327 . S
C1699 C1715 1.429 . S
C1699 H1721 0.950 . S
C1700 H1696 0.949 . S
C1700 C1708 1.574 . S
C1700 C1716 1.368 . S
H1701 C1709 0.950 . S
H1702 C1707 0.950 . S
H1703 C1708 0.949 . S
H1704 C1710 0.950 . S
H1705 C1711 0.950 . S
H1706 C1712 0.949 . S
C1707 H1702 0.950 . S
C1707 C1709 1.327 . S
C1707 C1713 1.429 . S
C1708 C1700 1.574 . S
C1708 H1703 0.949 . S
C1708 C1714 1.368 . S
C1709 C1693 1.349 . S
C1709 H1701 0.950 . S
C1709 C1707 1.327 . S
C1710 C1698 1.349 . S
C1710 H1704 0.950 . S
C1710 C1711 1.327 . S
C1711 H1705 0.950 . S
C1711 C1710 1.327 . S
C1711 C1715 1.429 . S
C1712 C1695 1.574 . S
C1712 H1706 0.949 . S
C1712 C1716 1.368 . S
C1713 C1694 1.429 . S
C1713 C1707 1.429 . S
C1713 C1714 1.523 . S
C1714 C1695 1.368 . S
C1714 C1708 1.368 . S
C1714 C1713 1.523 . S
C1715 C1699 1.429 . S
C1715 C1711 1.429 . S
C1715 C1716 1.523 . S
C1716 C1700 1.368 . S
C1716 C1712 1.368 . S
C1716 C1715 1.523 . S
H1717 C1692 0.950 . S
H1718 C1694 0.950 . S
H1719 C1695 0.949 . S
H1720 C1697 0.950 . S
H1721 C1699 0.950 . S
C1722 C1723 1.349 . S
C1722 C1724 1.327 . S
C1722 H1747 0.950 . S
C1723 C1722 1.349 . S
C1723 C1739 1.349 . S
C1724 C1722 1.327 . S
C1724 C1743 1.429 . S
C1724 H1748 0.950 . S
C1725 C1742 1.574 1_545 S
C1725 C1744 1.368 . S
C1725 H1749 0.949 . S
H1726 C1730 0.949 . S
C1727 C1728 1.349 . S
C1727 C1729 1.327 . S
C1727 H1750 0.950 . S
C1728 C1727 1.349 . S
C1728 C1740 1.349 . S
C1729 C1727 1.327 . S
C1729 C1745 1.429 . S
C1729 H1751 0.950 . S
C1730 H1726 0.949 . S
C1730 C1738 1.574 1_565 S
C1730 C1746 1.368 . S
H1731 C1739 0.950 . S
H1732 C1737 0.950 . S
H1733 C1738 0.949 . S
H1734 C1740 0.950 . S
H1735 C1741 0.950 . S
H1736 C1742 0.949 . S
C1737 H1732 0.950 . S
C1737 C1739 1.327 . S
C1737 C1743 1.429 . S
C1738 C1730 1.574 1_545 S
C1738 H1733 0.949 . S
C1738 C1744 1.368 . S
C1739 C1723 1.349 . S
C1739 H1731 0.950 . S
C1739 C1737 1.327 . S
C1740 C1728 1.349 . S
C1740 H1734 0.950 . S
C1740 C1741 1.327 . S
C1741 H1735 0.950 . S
C1741 C1740 1.327 . S
C1741 C1745 1.429 . S
C1742 C1725 1.574 1_565 S
C1742 H1736 0.949 . S
C1742 C1746 1.368 . S
C1743 C1724 1.429 . S
C1743 C1737 1.429 . S
C1743 C1744 1.523 . S
C1744 C1725 1.368 . S
C1744 C1738 1.368 . S
C1744 C1743 1.523 . S
C1745 C1729 1.429 . S
C1745 C1741 1.429 . S
C1745 C1746 1.523 . S
C1746 C1730 1.368 . S
C1746 C1742 1.368 . S
C1746 C1745 1.523 . S
H1747 C1722 0.950 . S
H1748 C1724 0.950 . S
H1749 C1725 0.949 . S
H1750 C1727 0.950 . S
H1751 C1729 0.950 . S
C1752 C1753 1.349 . S
C1752 C1754 1.327 . S
C1752 H1777 0.950 . S
C1753 C1752 1.349 . S
C1753 C1769 1.349 . S
C1754 C1752 1.327 . S
C1754 C1773 1.429 . S
C1754 H1778 0.950 . S
C1755 C1772 1.574 . S
C1755 C1774 1.368 . S
C1755 H1779 0.949 . S
H1756 C1760 0.949 . S
C1757 C1758 1.349 . S
C1757 C1759 1.327 . S
C1757 H1780 0.950 . S
C1758 C1757 1.349 . S
C1758 C1770 1.349 . S
C1759 C1757 1.327 . S
C1759 C1775 1.429 . S
C1759 H1781 0.950 . S
C1760 H1756 0.949 . S
C1760 C1768 1.574 . S
C1760 C1776 1.368 . S
H1761 C1769 0.950 . S
H1762 C1767 0.950 . S
H1763 C1768 0.949 . S
H1764 C1770 0.950 . S
H1765 C1771 0.950 . S
H1766 C1772 0.949 . S
C1767 H1762 0.950 . S
C1767 C1769 1.327 . S
C1767 C1773 1.429 . S
C1768 C1760 1.574 . S
C1768 H1763 0.949 . S
C1768 C1774 1.368 . S
C1769 C1753 1.349 . S
C1769 H1761 0.950 . S
C1769 C1767 1.327 . S
C1770 C1758 1.349 . S
C1770 H1764 0.950 . S
C1770 C1771 1.327 . S
C1771 H1765 0.950 . S
C1771 C1770 1.327 . S
C1771 C1775 1.429 . S
C1772 C1755 1.574 . S
C1772 H1766 0.949 . S
C1772 C1776 1.368 . S
C1773 C1754 1.429 . S
C1773 C1767 1.429 . S
C1773 C1774 1.523 . S
C1774 C1755 1.368 . S
C1774 C1768 1.368 . S
C1774 C1773 1.523 . S
C1775 C1759 1.429 . S
C1775 C1771 1.429 . S
C1775 C1776 1.523 . S
C1776 C1760 1.368 . S
C1776 C1772 1.368 . S
C1776 C1775 1.523 . S
H1777 C1752 0.950 . S
H1778 C1754 0.950 . S
H1779 C1755 0.949 . S
H1780 C1757 0.950 . S
H1781 C1759 0.950 . S
C1782 C1783 1.349 . S
C1782 C1784 1.327 . S
C1782 H1807 0.950 . S
C1783 C1782 1.349 . S
C1783 C1799 1.349 . S
C1784 C1782 1.327 . S
C1784 C1803 1.429 . S
C1784 H1808 0.950 . S
C1785 C1802 1.574 1_565 S
C1785 C1804 1.368 . S
C1785 H1809 0.949 . S
H1786 C1790 0.949 . S
C1787 C1788 1.349 . S
C1787 C1789 1.327 . S
C1787 H1810 0.950 . S
C1788 C1787 1.349 . S
C1788 C1800 1.349 . S
C1789 C1787 1.327 . S
C1789 C1805 1.429 . S
C1789 H1811 0.950 . S
C1790 H1786 0.949 . S
C1790 C1798 1.574 1_545 S
C1790 C1806 1.368 . S
H1791 C1799 0.950 . S
H1792 C1797 0.950 . S
H1793 C1798 0.949 . S
H1794 C1800 0.950 . S
H1795 C1801 0.950 . S
H1796 C1802 0.949 . S
C1797 H1792 0.950 . S
C1797 C1799 1.327 . S
C1797 C1803 1.429 . S
C1798 C1790 1.574 1_565 S
C1798 H1793 0.949 . S
C1798 C1804 1.368 . S
C1799 C1783 1.349 . S
C1799 H1791 0.950 . S
C1799 C1797 1.327 . S
C1800 C1788 1.349 . S
C1800 H1794 0.950 . S
C1800 C1801 1.327 . S
C1801 H1795 0.950 . S
C1801 C1800 1.327 . S
C1801 C1805 1.429 . S
C1802 C1785 1.574 1_545 S
C1802 H1796 0.949 . S
C1802 C1806 1.368 . S
C1803 C1784 1.429 . S
C1803 C1797 1.429 . S
C1803 C1804 1.523 . S
C1804 C1785 1.368 . S
C1804 C1798 1.368 . S
C1804 C1803 1.523 . S
C1805 C1789 1.429 . S
C1805 C1801 1.429 . S
C1805 C1806 1.523 . S
C1806 C1790 1.368 . S
C1806 C1802 1.368 . S
C1806 C1805 1.523 . S
H1807 C1782 0.950 . S
H1808 C1784 0.950 . S
H1809 C1785 0.949 . S
H1810 C1787 0.950 . S
H1811 C1789 0.950 . S
C1812 C1813 1.349 . S
C1812 C1814 1.327 . S
C1812 H1837 0.950 . S
C1813 C1812 1.349 . S
C1813 C1829 1.349 . S
C1814 C1812 1.327 . S
C1814 C1833 1.429 . S
C1814 H1838 0.950 . S
C1815 C1832 1.574 . S
C1815 C1834 1.368 . S
C1815 H1839 0.949 . S
H1816 C1820 0.949 . S
C1817 C1818 1.349 . S
C1817 C1819 1.327 . S
C1817 H1840 0.950 . S
C1818 C1817 1.349 . S
C1818 C1830 1.349 . S
C1819 C1817 1.327 . S
C1819 C1835 1.429 . S
C1819 H1841 0.950 . S
C1820 H1816 0.949 . S
C1820 C1828 1.574 . S
C1820 C1836 1.368 . S
H1821 C1829 0.950 . S
H1822 C1827 0.950 . S
H1823 C1828 0.949 . S
H1824 C1830 0.950 . S
H1825 C1831 0.950 . S
H1826 C1832 0.949 . S
C1827 H1822 0.950 . S
C1827 C1829 1.327 . S
C1827 C1833 1.429 . S
C1828 C1820 1.574 . S
C1828 H1823 0.949 . S
C1828 C1834 1.368 . S
C1829 C1813 1.349 . S
C1829 H1821 0.950 . S
C1829 C1827 1.327 . S
C1830 C1818 1.349 . S
C1830 H1824 0.950 . S
C1830 C1831 1.327 . S
C1831 H1825 0.950 . S
C1831 C1830 1.327 . S
C1831 C1835 1.429 . S
C1832 C1815 1.574 . S
C1832 H1826 0.949 . S
C1832 C1836 1.368 . S
C1833 C1814 1.429 . S
C1833 C1827 1.429 . S
C1833 C1834 1.523 . S
C1834 C1815 1.368 . S
C1834 C1828 1.368 . S
C1834 C1833 1.523 . S
C1835 C1819 1.429 . S
C1835 C1831 1.429 . S
C1835 C1836 1.523 . S
C1836 C1820 1.368 . S
C1836 C1832 1.368 . S
C1836 C1835 1.523 . S
H1837 C1812 0.950 . S
H1838 C1814 0.950 . S
H1839 C1815 0.949 . S
H1840 C1817 0.950 . S
H1841 C1819 0.950 . S
C1842 C1843 1.349 . S
C1842 C1844 1.327 . S
C1842 H1867 0.950 . S
C1843 C1842 1.349 . S
C1843 C1859 1.349 . S
C1844 C1842 1.327 . S
C1844 C1863 1.429 . S
C1844 H1868 0.950 . S
C1845 C1862 1.574 1_565 S
C1845 C1864 1.368 . S
C1845 H1869 0.949 . S
H1846 C1850 0.949 . S
C1847 C1848 1.349 . S
C1847 C1849 1.327 . S
C1847 H1870 0.950 . S
C1848 C1847 1.349 . S
C1848 C1860 1.349 . S
C1849 C1847 1.327 . S
C1849 C1865 1.429 . S
C1849 H1871 0.950 . S
C1850 H1846 0.949 . S
C1850 C1858 1.574 1_545 S
C1850 C1866 1.368 . S
H1851 C1859 0.950 . S
H1852 C1857 0.950 . S
H1853 C1858 0.949 . S
H1854 C1860 0.950 . S
H1855 C1861 0.950 . S
H1856 C1862 0.949 . S
C1857 H1852 0.950 . S
C1857 C1859 1.327 . S
C1857 C1863 1.429 . S
C1858 C1850 1.574 1_565 S
C1858 H1853 0.949 . S
C1858 C1864 1.368 . S
C1859 C1843 1.349 . S
C1859 H1851 0.950 . S
C1859 C1857 1.327 . S
C1860 C1848 1.349 . S
C1860 H1854 0.950 . S
C1860 C1861 1.327 . S
C1861 H1855 0.950 . S
C1861 C1860 1.327 . S
C1861 C1865 1.429 . S
C1862 C1845 1.574 1_545 S
C1862 H1856 0.949 . S
C1862 C1866 1.368 . S
C1863 C1844 1.429 . S
C1863 C1857 1.429 . S
C1863 C1864 1.523 . S
C1864 C1845 1.368 . S
C1864 C1858 1.368 . S
C1864 C1863 1.523 . S
C1865 C1849 1.429 . S
C1865 C1861 1.429 . S
C1865 C1866 1.523 . S
C1866 C1850 1.368 . S
C1866 C1862 1.368 . S
C1866 C1865 1.523 . S
H1867 C1842 0.950 . S
H1868 C1844 0.950 . S
H1869 C1845 0.949 . S
H1870 C1847 0.950 . S
H1871 C1849 0.950 . S
C1872 C1873 1.349 . S
C1872 C1874 1.327 . S
C1872 H1897 0.950 . S
C1873 C1872 1.349 . S
C1873 C1889 1.349 . S
C1874 C1872 1.327 . S
C1874 C1893 1.429 . S
C1874 H1898 0.950 . S
C1875 C1892 1.574 . S
C1875 C1894 1.368 . S
C1875 H1899 0.949 . S
H1876 C1880 0.949 . S
C1877 C1878 1.349 . S
C1877 C1879 1.327 . S
C1877 H1900 0.950 . S
C1878 C1877 1.349 . S
C1878 C1890 1.349 . S
C1879 C1877 1.327 . S
C1879 C1895 1.429 . S
C1879 H1901 0.950 . S
C1880 H1876 0.949 . S
C1880 C1888 1.574 . S
C1880 C1896 1.368 . S
H1881 C1889 0.950 . S
H1882 C1887 0.950 . S
H1883 C1888 0.949 . S
H1884 C1890 0.950 . S
H1885 C1891 0.950 . S
H1886 C1892 0.949 . S
C1887 H1882 0.950 . S
C1887 C1889 1.327 . S
C1887 C1893 1.429 . S
C1888 C1880 1.574 . S
C1888 H1883 0.949 . S
C1888 C1894 1.368 . S
C1889 C1873 1.349 . S
C1889 H1881 0.950 . S
C1889 C1887 1.327 . S
C1890 C1878 1.349 . S
C1890 H1884 0.950 . S
C1890 C1891 1.327 . S
C1891 H1885 0.950 . S
C1891 C1890 1.327 . S
C1891 C1895 1.429 . S
C1892 C1875 1.574 . S
C1892 H1886 0.949 . S
C1892 C1896 1.368 . S
C1893 C1874 1.429 . S
C1893 C1887 1.429 . S
C1893 C1894 1.523 . S
C1894 C1875 1.368 . S
C1894 C1888 1.368 . S
C1894 C1893 1.523 . S
C1895 C1879 1.429 . S
C1895 C1891 1.429 . S
C1895 C1896 1.523 . S
C1896 C1880 1.368 . S
C1896 C1892 1.368 . S
C1896 C1895 1.523 . S
H1897 C1872 0.950 . S
H1898 C1874 0.950 . S
H1899 C1875 0.949 . S
H1900 C1877 0.950 . S
H1901 C1879 0.950 . S
C1902 C1903 1.349 . S
C1902 C1904 1.327 . S
C1902 H1927 0.950 . S
C1903 C1902 1.349 . S
C1903 C1919 1.349 . S
C1904 C1902 1.327 . S
C1904 C1923 1.429 . S
C1904 H1928 0.950 . S
C1905 C1922 1.574 . S
C1905 C1924 1.368 . S
C1905 H1929 0.949 . S
H1906 C1910 0.949 . S
C1907 C1908 1.349 . S
C1907 C1909 1.327 . S
C1907 H1930 0.950 . S
C1908 C1907 1.349 . S
C1908 C1920 1.349 . S
C1909 C1907 1.327 . S
C1909 C1925 1.429 . S
C1909 H1931 0.950 . S
C1910 H1906 0.949 . S
C1910 C1918 1.574 . S
C1910 C1926 1.368 . S
H1911 C1919 0.950 . S
H1912 C1917 0.950 . S
H1913 C1918 0.949 . S
H1914 C1920 0.950 . S
H1915 C1921 0.950 . S
H1916 C1922 0.949 . S
C1917 H1912 0.950 . S
C1917 C1919 1.327 . S
C1917 C1923 1.429 . S
C1918 C1910 1.574 . S
C1918 H1913 0.949 . S
C1918 C1924 1.368 . S
C1919 C1903 1.349 . S
C1919 H1911 0.950 . S
C1919 C1917 1.327 . S
C1920 C1908 1.349 . S
C1920 H1914 0.950 . S
C1920 C1921 1.327 . S
C1921 H1915 0.950 . S
C1921 C1920 1.327 . S
C1921 C1925 1.429 . S
C1922 C1905 1.574 . S
C1922 H1916 0.949 . S
C1922 C1926 1.368 . S
C1923 C1904 1.429 . S
C1923 C1917 1.429 . S
C1923 C1924 1.523 . S
C1924 C1905 1.368 . S
C1924 C1918 1.368 . S
C1924 C1923 1.523 . S
C1925 C1909 1.429 . S
C1925 C1921 1.429 . S
C1925 C1926 1.523 . S
C1926 C1910 1.368 . S
C1926 C1922 1.368 . S
C1926 C1925 1.523 . S
H1927 C1902 0.950 . S
H1928 C1904 0.950 . S
H1929 C1905 0.949 . S
H1930 C1907 0.950 . S
H1931 C1909 0.950 . S
C1932 C1933 1.349 . S
C1932 C1934 1.327 . S
C1932 H1957 0.950 . S
C1933 C1932 1.349 . S
C1933 C1949 1.349 . S
C1934 C1932 1.327 . S
C1934 C1953 1.429 . S
C1934 H1958 0.950 . S
C1935 C1952 1.574 . S
C1935 C1954 1.368 . S
C1935 H1959 0.949 . S
H1936 C1940 0.949 . S
C1937 C1938 1.349 . S
C1937 C1939 1.327 . S
C1937 H1960 0.950 . S
C1938 C1937 1.349 . S
C1938 C1950 1.349 . S
C1939 C1937 1.327 . S
C1939 C1955 1.429 . S
C1939 H1961 0.950 . S
C1940 H1936 0.949 . S
C1940 C1948 1.574 . S
C1940 C1956 1.368 . S
H1941 C1949 0.950 . S
H1942 C1947 0.950 . S
H1943 C1948 0.949 . S
H1944 C1950 0.950 . S
H1945 C1951 0.950 . S
H1946 C1952 0.949 . S
C1947 H1942 0.950 . S
C1947 C1949 1.327 . S
C1947 C1953 1.429 . S
C1948 C1940 1.574 . S
C1948 H1943 0.949 . S
C1948 C1954 1.368 . S
C1949 C1933 1.349 . S
C1949 H1941 0.950 . S
C1949 C1947 1.327 . S
C1950 C1938 1.349 . S
C1950 H1944 0.950 . S
C1950 C1951 1.327 . S
C1951 H1945 0.950 . S
C1951 C1950 1.327 . S
C1951 C1955 1.429 . S
C1952 C1935 1.574 . S
C1952 H1946 0.949 . S
C1952 C1956 1.368 . S
C1953 C1934 1.429 . S
C1953 C1947 1.429 . S
C1953 C1954 1.523 . S
C1954 C1935 1.368 . S
C1954 C1948 1.368 . S
C1954 C1953 1.523 . S
C1955 C1939 1.429 . S
C1955 C1951 1.429 . S
C1955 C1956 1.523 1_655 S
C1956 C1940 1.368 . S
C1956 C1952 1.368 . S
C1956 C1955 1.523 1_455 S
H1957 C1932 0.950 . S
H1958 C1934 0.950 . S
H1959 C1935 0.949 . S
H1960 C1937 0.950 . S
H1961 C1939 0.950 . S
C1962 C1963 1.349 . S
C1962 C1964 1.327 . S
C1962 H1987 0.950 . S
C1963 C1962 1.349 . S
C1963 C1979 1.349 . S
C1964 C1962 1.327 . S
C1964 C1983 1.429 . S
C1964 H1988 0.950 . S
C1965 C1982 1.574 . S
C1965 C1984 1.368 . S
C1965 H1989 0.949 . S
H1966 C1970 0.949 . S
C1967 C1968 1.349 . S
C1967 C1969 1.327 . S
C1967 H1990 0.950 . S
C1968 C1967 1.349 . S
C1968 C1980 1.349 . S
C1969 C1967 1.327 . S
C1969 C1985 1.429 . S
C1969 H1991 0.950 . S
C1970 H1966 0.949 . S
C1970 C1978 1.574 . S
C1970 C1986 1.368 . S
H1971 C1979 0.950 . S
H1972 C1977 0.950 . S
H1973 C1978 0.949 . S
H1974 C1980 0.950 . S
H1975 C1981 0.950 . S
H1976 C1982 0.949 . S
C1977 H1972 0.950 . S
C1977 C1979 1.327 . S
C1977 C1983 1.429 . S
C1978 C1970 1.574 . S
C1978 H1973 0.949 . S
C1978 C1984 1.368 . S
C1979 C1963 1.349 . S
C1979 H1971 0.950 . S
C1979 C1977 1.327 . S
C1980 C1968 1.349 . S
C1980 H1974 0.950 . S
C1980 C1981 1.327 . S
C1981 H1975 0.950 . S
C1981 C1980 1.327 . S
C1981 C1985 1.429 . S
C1982 C1965 1.574 . S
C1982 H1976 0.949 . S
C1982 C1986 1.368 . S
C1983 C1964 1.429 . S
C1983 C1977 1.429 . S
C1983 C1984 1.523 . S
C1984 C1965 1.368 . S
C1984 C1978 1.368 . S
C1984 C1983 1.523 . S
C1985 C1969 1.429 . S
C1985 C1981 1.429 . S
C1985 C1986 1.523 . S
C1986 C1970 1.368 . S
C1986 C1982 1.368 . S
C1986 C1985 1.523 . S
H1987 C1962 0.950 . S
H1988 C1964 0.950 . S
H1989 C1965 0.949 . S
H1990 C1967 0.950 . S
H1991 C1969 0.950 . S
C1992 C1993 1.349 . S
C1992 C1994 1.327 . S
C1992 H2017 0.950 . S
C1993 C1992 1.349 . S
C1993 C2009 1.349 . S
C1994 C1992 1.327 . S
C1994 C2013 1.429 . S
C1994 H2018 0.950 . S
C1995 C2012 1.574 . S
C1995 C2014 1.368 . S
C1995 H2019 0.949 . S
H1996 C2000 0.949 . S
C1997 C1998 1.349 . S
C1997 C1999 1.327 . S
C1997 H2020 0.950 . S
C1998 C1997 1.349 . S
C1998 C2010 1.349 . S
C1999 C1997 1.327 . S
C1999 C2015 1.429 . S
C1999 H2021 0.950 . S
C2000 H1996 0.949 . S
C2000 C2008 1.574 . S
C2000 C2016 1.368 . S
H2001 C2009 0.950 . S
H2002 C2007 0.950 . S
H2003 C2008 0.949 . S
H2004 C2010 0.950 . S
H2005 C2011 0.950 . S
H2006 C2012 0.949 . S
C2007 H2002 0.950 . S
C2007 C2009 1.327 . S
C2007 C2013 1.429 . S
C2008 C2000 1.574 . S
C2008 H2003 0.949 . S
C2008 C2014 1.368 . S
C2009 C1993 1.349 . S
C2009 H2001 0.950 . S
C2009 C2007 1.327 . S
C2010 C1998 1.349 . S
C2010 H2004 0.950 . S
C2010 C2011 1.327 . S
C2011 H2005 0.950 . S
C2011 C2010 1.327 . S
C2011 C2015 1.429 . S
C2012 C1995 1.574 . S
C2012 H2006 0.949 . S
C2012 C2016 1.368 . S
C2013 C1994 1.429 . S
C2013 C2007 1.429 . S
C2013 C2014 1.523 1_455 S
C2014 C1995 1.368 . S
C2014 C2008 1.368 . S
C2014 C2013 1.523 1_655 S
C2015 C1999 1.429 . S
C2015 C2011 1.429 . S
C2015 C2016 1.523 . S
C2016 C2000 1.368 . S
C2016 C2012 1.368 . S
C2016 C2015 1.523 . S
H2017 C1992 0.950 . S
H2018 C1994 0.950 . S
H2019 C1995 0.949 . S
H2020 C1997 0.950 . S
H2021 C1999 0.950 . S
C2022 C2023 1.349 . S
C2022 C2024 1.327 . S
C2022 H2047 0.950 . S
C2023 C2022 1.349 . S
C2023 C2039 1.349 . S
C2024 C2022 1.327 . S
C2024 C2043 1.429 . S
C2024 H2048 0.950 . S
C2025 C2042 1.574 . S
C2025 C2044 1.368 . S
C2025 H2049 0.949 . S
H2026 C2030 0.949 . S
C2027 C2028 1.349 . S
C2027 C2029 1.327 . S
C2027 H2050 0.950 . S
C2028 C2027 1.349 . S
C2028 C2040 1.349 . S
C2029 C2027 1.327 . S
C2029 C2045 1.429 . S
C2029 H2051 0.950 . S
C2030 H2026 0.949 . S
C2030 C2038 1.574 . S
C2030 C2046 1.368 . S
H2031 C2039 0.950 . S
H2032 C2037 0.950 . S
H2033 C2038 0.949 . S
H2034 C2040 0.950 . S
H2035 C2041 0.950 . S
H2036 C2042 0.949 . S
C2037 H2032 0.950 . S
C2037 C2039 1.327 . S
C2037 C2043 1.429 . S
C2038 C2030 1.574 . S
C2038 H2033 0.949 . S
C2038 C2044 1.368 . S
C2039 C2023 1.349 . S
C2039 H2031 0.950 . S
C2039 C2037 1.327 . S
C2040 C2028 1.349 . S
C2040 H2034 0.950 . S
C2040 C2041 1.327 . S
C2041 H2035 0.950 . S
C2041 C2040 1.327 . S
C2041 C2045 1.429 . S
C2042 C2025 1.574 . S
C2042 H2036 0.949 . S
C2042 C2046 1.368 . S
C2043 C2024 1.429 . S
C2043 C2037 1.429 . S
C2043 C2044 1.523 . S
C2044 C2025 1.368 . S
C2044 C2038 1.368 . S
C2044 C2043 1.523 . S
C2045 C2029 1.429 . S
C2045 C2041 1.429 . S
C2045 C2046 1.523 . S
C2046 C2030 1.368 . S
C2046 C2042 1.368 . S
C2046 C2045 1.523 . S
H2047 C2022 0.950 . S
H2048 C2024 0.950 . S
H2049 C2025 0.949 . S
H2050 C2027 0.950 . S
H2051 C2029 0.950 . S
C2052 C2053 1.349 . S
C2052 C2054 1.327 . S
C2052 H2077 0.950 . S
C2053 C2052 1.349 . S
C2053 C2069 1.349 . S
C2054 C2052 1.327 . S
C2054 C2073 1.429 . S
C2054 H2078 0.950 . S
C2055 C2072 1.574 1_655 S
C2055 C2074 1.368 . S
C2055 H2079 0.949 . S
H2056 C2060 0.949 . S
C2057 C2058 1.349 . S
C2057 C2059 1.327 . S
C2057 H2080 0.950 . S
C2058 C2057 1.349 . S
C2058 C2070 1.349 . S
C2059 C2057 1.327 . S
C2059 C2075 1.429 . S
C2059 H2081 0.950 . S
C2060 H2056 0.949 . S
C2060 C2068 1.574 1_455 S
C2060 C2076 1.368 . S
H2061 C2069 0.950 . S
H2062 C2067 0.950 . S
H2063 C2068 0.949 . S
H2064 C2070 0.950 . S
H2065 C2071 0.950 . S
H2066 C2072 0.949 . S
C2067 H2062 0.950 . S
C2067 C2069 1.327 . S
C2067 C2073 1.429 . S
C2068 C2060 1.574 1_655 S
C2068 H2063 0.949 . S
C2068 C2074 1.368 . S
C2069 C2053 1.349 . S
C2069 H2061 0.950 . S
C2069 C2067 1.327 . S
C2070 C2058 1.349 . S
C2070 H2064 0.950 . S
C2070 C2071 1.327 . S
C2071 H2065 0.950 . S
C2071 C2070 1.327 . S
C2071 C2075 1.429 . S
C2072 C2055 1.574 1_455 S
C2072 H2066 0.949 . S
C2072 C2076 1.368 . S
C2073 C2054 1.429 . S
C2073 C2067 1.429 . S
C2073 C2074 1.523 . S
C2074 C2055 1.368 . S
C2074 C2068 1.368 . S
C2074 C2073 1.523 . S
C2075 C2059 1.429 . S
C2075 C2071 1.429 . S
C2075 C2076 1.523 . S
C2076 C2060 1.368 . S
C2076 C2072 1.368 . S
C2076 C2075 1.523 . S
H2077 C2052 0.950 . S
H2078 C2054 0.950 . S
H2079 C2055 0.949 . S
H2080 C2057 0.950 . S
H2081 C2059 0.950 . S
C2082 C2083 1.349 . S
C2082 C2084 1.327 . S
C2082 H2107 0.950 . S
C2083 C2082 1.349 . S
C2083 C2099 1.349 . S
C2084 C2082 1.327 . S
C2084 C2103 1.429 . S
C2084 H2108 0.950 . S
C2085 C2102 1.574 1_455 S
C2085 C2104 1.368 . S
C2085 H2109 0.949 . S
H2086 C2090 0.949 . S
C2087 C2088 1.349 . S
C2087 C2089 1.327 . S
C2087 H2110 0.950 . S
C2088 C2087 1.349 . S
C2088 C2100 1.349 . S
C2089 C2087 1.327 . S
C2089 C2105 1.429 . S
C2089 H2111 0.950 . S
C2090 H2086 0.949 . S
C2090 C2098 1.574 1_655 S
C2090 C2106 1.368 . S
H2091 C2099 0.950 . S
H2092 C2097 0.950 . S
H2093 C2098 0.949 . S
H2094 C2100 0.950 . S
H2095 C2101 0.950 . S
H2096 C2102 0.949 . S
C2097 H2092 0.950 . S
C2097 C2099 1.327 . S
C2097 C2103 1.429 . S
C2098 C2090 1.574 1_455 S
C2098 H2093 0.949 . S
C2098 C2104 1.368 . S
C2099 C2083 1.349 . S
C2099 H2091 0.950 . S
C2099 C2097 1.327 . S
C2100 C2088 1.349 . S
C2100 H2094 0.950 . S
C2100 C2101 1.327 . S
C2101 H2095 0.950 . S
C2101 C2100 1.327 . S
C2101 C2105 1.429 . S
C2102 C2085 1.574 1_655 S
C2102 H2096 0.949 . S
C2102 C2106 1.368 . S
C2103 C2084 1.429 . S
C2103 C2097 1.429 . S
C2103 C2104 1.523 . S
C2104 C2085 1.368 . S
C2104 C2098 1.368 . S
C2104 C2103 1.523 . S
C2105 C2089 1.429 . S
C2105 C2101 1.429 . S
C2105 C2106 1.523 . S
C2106 C2090 1.368 . S
C2106 C2102 1.368 . S
C2106 C2105 1.523 . S
H2107 C2082 0.950 . S
H2108 C2084 0.950 . S
H2109 C2085 0.949 . S
H2110 C2087 0.950 . S
H2111 C2089 0.950 . S
C2112 C2113 1.349 . S
C2112 C2114 1.327 . S
C2112 H2137 0.950 . S
C2113 C2112 1.349 . S
C2113 C2129 1.349 . S
C2114 C2112 1.327 . S
C2114 C2133 1.429 . S
C2114 H2138 0.950 . S
C2115 C2132 1.574 1_655 S
C2115 C2134 1.368 . S
C2115 H2139 0.949 . S
H2116 C2120 0.949 . S
C2117 C2118 1.349 . S
C2117 C2119 1.327 . S
C2117 H2140 0.950 . S
C2118 C2117 1.349 . S
C2118 C2130 1.349 . S
C2119 C2117 1.327 . S
C2119 C2135 1.429 . S
C2119 H2141 0.950 . S
C2120 H2116 0.949 . S
C2120 C2128 1.574 1_455 S
C2120 C2136 1.368 . S
H2121 C2129 0.950 . S
H2122 C2127 0.950 . S
H2123 C2128 0.949 . S
H2124 C2130 0.950 . S
H2125 C2131 0.950 . S
H2126 C2132 0.949 . S
C2127 H2122 0.950 . S
C2127 C2129 1.327 . S
C2127 C2133 1.429 . S
C2128 C2120 1.574 1_655 S
C2128 H2123 0.949 . S
C2128 C2134 1.368 . S
C2129 C2113 1.349 . S
C2129 H2121 0.950 . S
C2129 C2127 1.327 . S
C2130 C2118 1.349 . S
C2130 H2124 0.950 . S
C2130 C2131 1.327 . S
C2131 H2125 0.950 . S
C2131 C2130 1.327 . S
C2131 C2135 1.429 . S
C2132 C2115 1.574 1_455 S
C2132 H2126 0.949 . S
C2132 C2136 1.368 . S
C2133 C2114 1.429 . S
C2133 C2127 1.429 . S
C2133 C2134 1.523 . S
C2134 C2115 1.368 . S
C2134 C2128 1.368 . S
C2134 C2133 1.523 . S
C2135 C2119 1.429 . S
C2135 C2131 1.429 . S
C2135 C2136 1.523 . S
C2136 C2120 1.368 . S
C2136 C2132 1.368 . S
C2136 C2135 1.523 . S
H2137 C2112 0.950 . S
H2138 C2114 0.950 . S
H2139 C2115 0.949 . S
H2140 C2117 0.950 . S
H2141 C2119 0.950 . S
C2142 C2143 1.349 . S
C2142 C2144 1.327 . S
C2142 H2167 0.950 . S
C2143 C2142 1.349 . S
C2143 C2159 1.349 . S
C2144 C2142 1.327 . S
C2144 C2163 1.429 . S
C2144 H2168 0.950 . S
C2145 C2162 1.574 . S
C2145 C2164 1.368 . S
C2145 H2169 0.949 . S
H2146 C2150 0.949 . S
C2147 C2148 1.349 . S
C2147 C2149 1.327 . S
C2147 H2170 0.950 . S
C2148 C2147 1.349 . S
C2148 C2160 1.349 . S
C2149 C2147 1.327 . S
C2149 C2165 1.429 . S
C2149 H2171 0.950 . S
C2150 H2146 0.949 . S
C2150 C2158 1.574 . S
C2150 C2166 1.368 . S
H2151 C2159 0.950 . S
H2152 C2157 0.950 . S
H2153 C2158 0.949 . S
H2154 C2160 0.950 . S
H2155 C2161 0.950 . S
H2156 C2162 0.949 . S
C2157 H2152 0.950 . S
C2157 C2159 1.327 . S
C2157 C2163 1.429 . S
C2158 C2150 1.574 . S
C2158 H2153 0.949 . S
C2158 C2164 1.368 . S
C2159 C2143 1.349 . S
C2159 H2151 0.950 . S
C2159 C2157 1.327 . S
C2160 C2148 1.349 . S
C2160 H2154 0.950 . S
C2160 C2161 1.327 . S
C2161 H2155 0.950 . S
C2161 C2160 1.327 . S
C2161 C2165 1.429 . S
C2162 C2145 1.574 . S
C2162 H2156 0.949 . S
C2162 C2166 1.368 . S
C2163 C2144 1.429 . S
C2163 C2157 1.429 . S
C2163 C2164 1.523 . S
C2164 C2145 1.368 . S
C2164 C2158 1.368 . S
C2164 C2163 1.523 . S
C2165 C2149 1.429 . S
C2165 C2161 1.429 . S
C2165 C2166 1.523 . S
C2166 C2150 1.368 . S
C2166 C2162 1.368 . S
C2166 C2165 1.523 . S
H2167 C2142 0.950 . S
H2168 C2144 0.950 . S
H2169 C2145 0.949 . S
H2170 C2147 0.950 . S
H2171 C2149 0.950 . S
C2172 C2173 1.349 . S
C2172 C2174 1.327 . S
C2172 H2197 0.950 . S
C2173 C2172 1.349 . S
C2173 C2189 1.349 . S
C2174 C2172 1.327 . S
C2174 C2193 1.429 . S
C2174 H2198 0.950 . S
C2175 C2192 1.574 1_455 S
C2175 C2194 1.368 . S
C2175 H2199 0.949 . S
H2176 C2180 0.949 . S
C2177 C2178 1.349 . S
C2177 C2179 1.327 . S
C2177 H2200 0.950 . S
C2178 C2177 1.349 . S
C2178 C2190 1.349 . S
C2179 C2177 1.327 . S
C2179 C2195 1.429 . S
C2179 H2201 0.950 . S
C2180 H2176 0.949 . S
C2180 C2188 1.574 1_655 S
C2180 C2196 1.368 . S
H2181 C2189 0.950 . S
H2182 C2187 0.950 . S
H2183 C2188 0.949 . S
H2184 C2190 0.950 . S
H2185 C2191 0.950 . S
H2186 C2192 0.949 . S
C2187 H2182 0.950 . S
C2187 C2189 1.327 . S
C2187 C2193 1.429 . S
C2188 C2180 1.574 1_455 S
C2188 H2183 0.949 . S
C2188 C2194 1.368 . S
C2189 C2173 1.349 . S
C2189 H2181 0.950 . S
C2189 C2187 1.327 . S
C2190 C2178 1.349 . S
C2190 H2184 0.950 . S
C2190 C2191 1.327 . S
C2191 H2185 0.950 . S
C2191 C2190 1.327 . S
C2191 C2195 1.429 . S
C2192 C2175 1.574 1_655 S
C2192 H2186 0.949 . S
C2192 C2196 1.368 . S
C2193 C2174 1.429 . S
C2193 C2187 1.429 . S
C2193 C2194 1.523 . S
C2194 C2175 1.368 . S
C2194 C2188 1.368 . S
C2194 C2193 1.523 . S
C2195 C2179 1.429 . S
C2195 C2191 1.429 . S
C2195 C2196 1.523 . S
C2196 C2180 1.368 . S
C2196 C2192 1.368 . S
C2196 C2195 1.523 . S
H2197 C2172 0.950 . S
H2198 C2174 0.950 . S
H2199 C2175 0.949 . S
H2200 C2177 0.950 . S
H2201 C2179 0.950 . S
C2202 C2203 1.349 . S
C2202 C2204 1.327 . S
C2202 H2227 0.950 . S
C2203 C2202 1.349 . S
C2203 C2219 1.349 . S
C2204 C2202 1.327 . S
C2204 C2223 1.429 . S
C2204 H2228 0.950 . S
C2205 C2222 1.574 . S
C2205 C2224 1.368 . S
C2205 H2229 0.949 . S
H2206 C2210 0.949 . S
C2207 C2208 1.349 . S
C2207 C2209 1.327 . S
C2207 H2230 0.950 . S
C2208 C2207 1.349 . S
C2208 C2220 1.349 . S
C2209 C2207 1.327 . S
C2209 C2225 1.429 . S
C2209 H2231 0.950 . S
C2210 H2206 0.949 . S
C2210 C2218 1.574 . S
C2210 C2226 1.368 . S
H2211 C2219 0.950 . S
H2212 C2217 0.950 . S
H2213 C2218 0.949 . S
H2214 C2220 0.950 . S
H2215 C2221 0.950 . S
H2216 C2222 0.949 . S
C2217 H2212 0.950 . S
C2217 C2219 1.327 . S
C2217 C2223 1.429 . S
C2218 C2210 1.574 . S
C2218 H2213 0.949 . S
C2218 C2224 1.368 . S
C2219 C2203 1.349 . S
C2219 H2211 0.950 . S
C2219 C2217 1.327 . S
C2220 C2208 1.349 . S
C2220 H2214 0.950 . S
C2220 C2221 1.327 . S
C2221 H2215 0.950 . S
C2221 C2220 1.327 . S
C2221 C2225 1.429 . S
C2222 C2205 1.574 . S
C2222 H2216 0.949 . S
C2222 C2226 1.368 . S
C2223 C2204 1.429 . S
C2223 C2217 1.429 . S
C2223 C2224 1.523 . S
C2224 C2205 1.368 . S
C2224 C2218 1.368 . S
C2224 C2223 1.523 . S
C2225 C2209 1.429 . S
C2225 C2221 1.429 . S
C2225 C2226 1.523 . S
C2226 C2210 1.368 . S
C2226 C2222 1.368 . S
C2226 C2225 1.523 . S
H2227 C2202 0.950 . S
H2228 C2204 0.950 . S
H2229 C2205 0.949 . S
H2230 C2207 0.950 . S
H2231 C2209 0.950 . S
C2232 C2233 1.349 . S
C2232 C2234 1.327 . S
C2232 H2257 0.950 . S
C2233 C2232 1.349 . S
C2233 C2249 1.349 . S
C2234 C2232 1.327 . S
C2234 C2253 1.429 . S
C2234 H2258 0.950 . S
C2235 C2252 1.574 1_655 S
C2235 C2254 1.368 . S
C2235 H2259 0.949 . S
H2236 C2240 0.949 . S
C2237 C2238 1.349 . S
C2237 C2239 1.327 . S
C2237 H2260 0.950 . S
C2238 C2237 1.349 . S
C2238 C2250 1.349 . S
C2239 C2237 1.327 . S
C2239 C2255 1.429 . S
C2239 H2261 0.950 . S
C2240 H2236 0.949 . S
C2240 C2248 1.574 1_455 S
C2240 C2256 1.368 . S
H2241 C2249 0.950 . S
H2242 C2247 0.950 . S
H2243 C2248 0.949 . S
H2244 C2250 0.950 . S
H2245 C2251 0.950 . S
H2246 C2252 0.949 . S
C2247 H2242 0.950 . S
C2247 C2249 1.327 . S
C2247 C2253 1.429 . S
C2248 C2240 1.574 1_655 S
C2248 H2243 0.949 . S
C2248 C2254 1.368 . S
C2249 C2233 1.349 . S
C2249 H2241 0.950 . S
C2249 C2247 1.327 . S
C2250 C2238 1.349 . S
C2250 H2244 0.950 . S
C2250 C2251 1.327 . S
C2251 H2245 0.950 . S
C2251 C2250 1.327 . S
C2251 C2255 1.429 . S
C2252 C2235 1.574 1_455 S
C2252 H2246 0.949 . S
C2252 C2256 1.368 . S
C2253 C2234 1.429 . S
C2253 C2247 1.429 . S
C2253 C2254 1.523 . S
C2254 C2235 1.368 . S
C2254 C2248 1.368 . S
C2254 C2253 1.523 . S
C2255 C2239 1.429 . S
C2255 C2251 1.429 . S
C2255 C2256 1.523 . S
C2256 C2240 1.368 . S
C2256 C2252 1.368 . S
C2256 C2255 1.523 . S
H2257 C2232 0.950 . S
H2258 C2234 0.950 . S
H2259 C2235 0.949 . S
H2260 C2237 0.950 . S
H2261 C2239 0.950 . S
C2262 C2263 1.349 . S
C2262 C2264 1.327 . S
C2262 H2287 0.950 . S
C2263 C2262 1.349 . S
C2263 C2279 1.349 . S
C2264 C2262 1.327 . S
C2264 C2283 1.429 . S
C2264 H2288 0.950 . S
C2265 C2282 1.574 . S
C2265 C2284 1.368 . S
C2265 H2289 0.949 . S
H2266 C2270 0.949 . S
C2267 C2268 1.349 . S
C2267 C2269 1.327 . S
C2267 H2290 0.950 . S
C2268 C2267 1.349 . S
C2268 C2280 1.349 . S
C2269 C2267 1.327 . S
C2269 C2285 1.429 . S
C2269 H2291 0.950 . S
C2270 H2266 0.949 . S
C2270 C2278 1.574 . S
C2270 C2286 1.368 . S
H2271 C2279 0.950 . S
H2272 C2277 0.950 . S
H2273 C2278 0.949 . S
H2274 C2280 0.950 . S
H2275 C2281 0.950 . S
H2276 C2282 0.949 . S
C2277 H2272 0.950 . S
C2277 C2279 1.327 . S
C2277 C2283 1.429 . S
C2278 C2270 1.574 . S
C2278 H2273 0.949 . S
C2278 C2284 1.368 . S
C2279 C2263 1.349 . S
C2279 H2271 0.950 . S
C2279 C2277 1.327 . S
C2280 C2268 1.349 . S
C2280 H2274 0.950 . S
C2280 C2281 1.327 . S
C2281 H2275 0.950 . S
C2281 C2280 1.327 . S
C2281 C2285 1.429 . S
C2282 C2265 1.574 . S
C2282 H2276 0.949 . S
C2282 C2286 1.368 . S
C2283 C2264 1.429 . S
C2283 C2277 1.429 . S
C2283 C2284 1.523 . S
C2284 C2265 1.368 . S
C2284 C2278 1.368 . S
C2284 C2283 1.523 . S
C2285 C2269 1.429 . S
C2285 C2281 1.429 . S
C2285 C2286 1.523 . S
C2286 C2270 1.368 . S
C2286 C2282 1.368 . S
C2286 C2285 1.523 . S
H2287 C2262 0.950 . S
H2288 C2264 0.950 . S
H2289 C2265 0.949 . S
H2290 C2267 0.950 . S
H2291 C2269 0.950 . S
C2292 C2293 1.349 . S
C2292 C2294 1.327 . S
C2292 H2317 0.950 . S
C2293 C2292 1.349 . S
C2293 C2309 1.349 . S
C2294 C2292 1.327 . S
C2294 C2313 1.429 . S
C2294 H2318 0.950 . S
C2295 C2312 1.574 1_655 S
C2295 C2314 1.368 . S
C2295 H2319 0.949 . S
H2296 C2300 0.949 . S
C2297 C2298 1.349 . S
C2297 C2299 1.327 . S
C2297 H2320 0.950 . S
C2298 C2297 1.349 . S
C2298 C2310 1.349 . S
C2299 C2297 1.327 . S
C2299 C2315 1.429 . S
C2299 H2321 0.950 . S
C2300 H2296 0.949 . S
C2300 C2308 1.574 1_455 S
C2300 C2316 1.368 . S
H2301 C2309 0.950 . S
H2302 C2307 0.950 . S
H2303 C2308 0.949 . S
H2304 C2310 0.950 . S
H2305 C2311 0.950 . S
H2306 C2312 0.949 . S
C2307 H2302 0.950 . S
C2307 C2309 1.327 . S
C2307 C2313 1.429 . S
C2308 C2300 1.574 1_655 S
C2308 H2303 0.949 . S
C2308 C2314 1.368 . S
C2309 C2293 1.349 . S
C2309 H2301 0.950 . S
C2309 C2307 1.327 . S
C2310 C2298 1.349 . S
C2310 H2304 0.950 . S
C2310 C2311 1.327 . S
C2311 H2305 0.950 . S
C2311 C2310 1.327 . S
C2311 C2315 1.429 . S
C2312 C2295 1.574 1_455 S
C2312 H2306 0.949 . S
C2312 C2316 1.368 . S
C2313 C2294 1.429 . S
C2313 C2307 1.429 . S
C2313 C2314 1.523 . S
C2314 C2295 1.368 . S
C2314 C2308 1.368 . S
C2314 C2313 1.523 . S
C2315 C2299 1.429 . S
C2315 C2311 1.429 . S
C2315 C2316 1.523 . S
C2316 C2300 1.368 . S
C2316 C2312 1.368 . S
C2316 C2315 1.523 . S
H2317 C2292 0.950 . S
H2318 C2294 0.950 . S
H2319 C2295 0.949 . S
H2320 C2297 0.950 . S
H2321 C2299 0.950 . S
C2322 C2323 1.349 . S
C2322 C2324 1.327 . S
C2322 H2347 0.950 . S
C2323 C2322 1.349 . S
C2323 C2339 1.349 . S
C2324 C2322 1.327 . S
C2324 C2343 1.429 . S
C2324 H2348 0.950 . S
C2325 C2342 1.574 . S
C2325 C2344 1.368 . S
C2325 H2349 0.949 . S
H2326 C2330 0.949 . S
C2327 C2328 1.349 . S
C2327 C2329 1.327 . S
C2327 H2350 0.950 . S
C2328 C2327 1.349 . S
C2328 C2340 1.349 . S
C2329 C2327 1.327 . S
C2329 C2345 1.429 . S
C2329 H2351 0.950 . S
C2330 H2326 0.949 . S
C2330 C2338 1.574 . S
C2330 C2346 1.368 . S
H2331 C2339 0.950 . S
H2332 C2337 0.950 . S
H2333 C2338 0.949 . S
H2334 C2340 0.950 . S
H2335 C2341 0.950 . S
H2336 C2342 0.949 . S
C2337 H2332 0.950 . S
C2337 C2339 1.327 . S
C2337 C2343 1.429 . S
C2338 C2330 1.574 . S
C2338 H2333 0.949 . S
C2338 C2344 1.368 . S
C2339 C2323 1.349 . S
C2339 H2331 0.950 . S
C2339 C2337 1.327 . S
C2340 C2328 1.349 . S
C2340 H2334 0.950 . S
C2340 C2341 1.327 . S
C2341 H2335 0.950 . S
C2341 C2340 1.327 . S
C2341 C2345 1.429 . S
C2342 C2325 1.574 . S
C2342 H2336 0.949 . S
C2342 C2346 1.368 . S
C2343 C2324 1.429 . S
C2343 C2337 1.429 . S
C2343 C2344 1.523 . S
C2344 C2325 1.368 . S
C2344 C2338 1.368 . S
C2344 C2343 1.523 . S
C2345 C2329 1.429 . S
C2345 C2341 1.429 . S
C2345 C2346 1.523 . S
C2346 C2330 1.368 . S
C2346 C2342 1.368 . S
C2346 C2345 1.523 . S
H2347 C2322 0.950 . S
H2348 C2324 0.950 . S
H2349 C2325 0.949 . S
H2350 C2327 0.950 . S
H2351 C2329 0.950 . S
C2352 C2353 1.349 . S
C2352 C2354 1.327 . S
C2352 H2377 0.950 . S
C2353 C2352 1.349 . S
C2353 C2369 1.349 . S
C2354 C2352 1.327 . S
C2354 C2373 1.429 . S
C2354 H2378 0.950 . S
C2355 C2372 1.574 1_545 S
C2355 C2374 1.368 . S
C2355 H2379 0.949 . S
H2356 C2360 0.949 . S
C2357 C2358 1.349 . S
C2357 C2359 1.327 . S
C2357 H2380 0.950 . S
C2358 C2357 1.349 . S
C2358 C2370 1.349 . S
C2359 C2357 1.327 . S
C2359 C2375 1.429 . S
C2359 H2381 0.950 . S
C2360 H2356 0.949 . S
C2360 C2368 1.574 1_565 S
C2360 C2376 1.368 . S
H2361 C2369 0.950 . S
H2362 C2367 0.950 . S
H2363 C2368 0.949 . S
H2364 C2370 0.950 . S
H2365 C2371 0.950 . S
H2366 C2372 0.949 . S
C2367 H2362 0.950 . S
C2367 C2369 1.327 . S
C2367 C2373 1.429 . S
C2368 C2360 1.574 1_545 S
C2368 H2363 0.949 . S
C2368 C2374 1.368 . S
C2369 C2353 1.349 . S
C2369 H2361 0.950 . S
C2369 C2367 1.327 . S
C2370 C2358 1.349 . S
C2370 H2364 0.950 . S
C2370 C2371 1.327 . S
C2371 H2365 0.950 . S
C2371 C2370 1.327 . S
C2371 C2375 1.429 . S
C2372 C2355 1.574 1_565 S
C2372 H2366 0.949 . S
C2372 C2376 1.368 . S
C2373 C2354 1.429 . S
C2373 C2367 1.429 . S
C2373 C2374 1.523 . S
C2374 C2355 1.368 . S
C2374 C2368 1.368 . S
C2374 C2373 1.523 . S
C2375 C2359 1.429 . S
C2375 C2371 1.429 . S
C2375 C2376 1.523 . S
C2376 C2360 1.368 . S
C2376 C2372 1.368 . S
C2376 C2375 1.523 . S
H2377 C2352 0.950 . S
H2378 C2354 0.950 . S
H2379 C2355 0.949 . S
H2380 C2357 0.950 . S
H2381 C2359 0.950 . S
C2382 C2383 1.349 . S
C2382 C2384 1.327 . S
C2382 H2407 0.950 . S
C2383 C2382 1.349 . S
C2383 C2399 1.349 . S
C2384 C2382 1.327 . S
C2384 C2403 1.429 . S
C2384 H2408 0.950 . S
C2385 C2402 1.574 . S
C2385 C2404 1.368 . S
C2385 H2409 0.949 . S
H2386 C2390 0.949 . S
C2387 C2388 1.349 . S
C2387 C2389 1.327 . S
C2387 H2410 0.950 . S
C2388 C2387 1.349 . S
C2388 C2400 1.349 . S
C2389 C2387 1.327 . S
C2389 C2405 1.429 . S
C2389 H2411 0.950 . S
C2390 H2386 0.949 . S
C2390 C2398 1.574 . S
C2390 C2406 1.368 . S
H2391 C2399 0.950 . S
H2392 C2397 0.950 . S
H2393 C2398 0.949 . S
H2394 C2400 0.950 . S
H2395 C2401 0.950 . S
H2396 C2402 0.949 . S
C2397 H2392 0.950 . S
C2397 C2399 1.327 . S
C2397 C2403 1.429 . S
C2398 C2390 1.574 . S
C2398 H2393 0.949 . S
C2398 C2404 1.368 . S
C2399 C2383 1.349 . S
C2399 H2391 0.950 . S
C2399 C2397 1.327 . S
C2400 C2388 1.349 . S
C2400 H2394 0.950 . S
C2400 C2401 1.327 . S
C2401 H2395 0.950 . S
C2401 C2400 1.327 . S
C2401 C2405 1.429 . S
C2402 C2385 1.574 . S
C2402 H2396 0.949 . S
C2402 C2406 1.368 . S
C2403 C2384 1.429 . S
C2403 C2397 1.429 . S
C2403 C2404 1.523 . S
C2404 C2385 1.368 . S
C2404 C2398 1.368 . S
C2404 C2403 1.523 . S
C2405 C2389 1.429 . S
C2405 C2401 1.429 . S
C2405 C2406 1.523 . S
C2406 C2390 1.368 . S
C2406 C2402 1.368 . S
C2406 C2405 1.523 . S
H2407 C2382 0.950 . S
H2408 C2384 0.950 . S
H2409 C2385 0.949 . S
H2410 C2387 0.950 . S
H2411 C2389 0.950 . S
C2412 C2413 1.349 . S
C2412 C2414 1.327 . S
C2412 H2437 0.950 . S
C2413 C2412 1.349 . S
C2413 C2429 1.349 . S
C2414 C2412 1.327 . S
C2414 C2433 1.429 . S
C2414 H2438 0.950 . S
C2415 C2432 1.574 1_545 S
C2415 C2434 1.368 . S
C2415 H2439 0.949 . S
H2416 C2420 0.949 . S
C2417 C2418 1.349 . S
C2417 C2419 1.327 . S
C2417 H2440 0.950 . S
C2418 C2417 1.349 . S
C2418 C2430 1.349 . S
C2419 C2417 1.327 . S
C2419 C2435 1.429 . S
C2419 H2441 0.950 . S
C2420 H2416 0.949 . S
C2420 C2428 1.574 1_565 S
C2420 C2436 1.368 . S
H2421 C2429 0.950 . S
H2422 C2427 0.950 . S
H2423 C2428 0.949 . S
H2424 C2430 0.950 . S
H2425 C2431 0.950 . S
H2426 C2432 0.949 . S
C2427 H2422 0.950 . S
C2427 C2429 1.327 . S
C2427 C2433 1.429 . S
C2428 C2420 1.574 1_545 S
C2428 H2423 0.949 . S
C2428 C2434 1.368 . S
C2429 C2413 1.349 . S
C2429 H2421 0.950 . S
C2429 C2427 1.327 . S
C2430 C2418 1.349 . S
C2430 H2424 0.950 . S
C2430 C2431 1.327 . S
C2431 H2425 0.950 . S
C2431 C2430 1.327 . S
C2431 C2435 1.429 . S
C2432 C2415 1.574 1_565 S
C2432 H2426 0.949 . S
C2432 C2436 1.368 . S
C2433 C2414 1.429 . S
C2433 C2427 1.429 . S
C2433 C2434 1.523 . S
C2434 C2415 1.368 . S
C2434 C2428 1.368 . S
C2434 C2433 1.523 . S
C2435 C2419 1.429 . S
C2435 C2431 1.429 . S
C2435 C2436 1.523 . S
C2436 C2420 1.368 . S
C2436 C2432 1.368 . S
C2436 C2435 1.523 . S
H2437 C2412 0.950 . S
H2438 C2414 0.950 . S
H2439 C2415 0.949 . S
H2440 C2417 0.950 . S
H2441 C2419 0.950 . S
C2442 C2443 1.349 . S
C2442 C2444 1.327 . S
C2442 H2467 0.950 . S
C2443 C2442 1.349 . S
C2443 C2459 1.349 . S
C2444 C2442 1.327 . S
C2444 C2463 1.429 . S
C2444 H2468 0.950 . S
C2445 C2462 1.574 . S
C2445 C2464 1.368 . S
C2445 H2469 0.949 . S
H2446 C2450 0.949 . S
C2447 C2448 1.349 . S
C2447 C2449 1.327 . S
C2447 H2470 0.950 . S
C2448 C2447 1.349 . S
C2448 C2460 1.349 . S
C2449 C2447 1.327 . S
C2449 C2465 1.429 . S
C2449 H2471 0.950 . S
C2450 H2446 0.949 . S
C2450 C2458 1.574 . S
C2450 C2466 1.368 . S
H2451 C2459 0.950 . S
H2452 C2457 0.950 . S
H2453 C2458 0.949 . S
H2454 C2460 0.950 . S
H2455 C2461 0.950 . S
H2456 C2462 0.949 . S
C2457 H2452 0.950 . S
C2457 C2459 1.327 . S
C2457 C2463 1.429 . S
C2458 C2450 1.574 . S
C2458 H2453 0.949 . S
C2458 C2464 1.368 . S
C2459 C2443 1.349 . S
C2459 H2451 0.950 . S
C2459 C2457 1.327 . S
C2460 C2448 1.349 . S
C2460 H2454 0.950 . S
C2460 C2461 1.327 . S
C2461 H2455 0.950 . S
C2461 C2460 1.327 . S
C2461 C2465 1.429 . S
C2462 C2445 1.574 . S
C2462 H2456 0.949 . S
C2462 C2466 1.368 . S
C2463 C2444 1.429 . S
C2463 C2457 1.429 . S
C2463 C2464 1.523 . S
C2464 C2445 1.368 . S
C2464 C2458 1.368 . S
C2464 C2463 1.523 . S
C2465 C2449 1.429 . S
C2465 C2461 1.429 . S
C2465 C2466 1.523 . S
C2466 C2450 1.368 . S
C2466 C2462 1.368 . S
C2466 C2465 1.523 . S
H2467 C2442 0.950 . S
H2468 C2444 0.950 . S
H2469 C2445 0.949 . S
H2470 C2447 0.950 . S
H2471 C2449 0.950 . S
C2472 C2473 1.349 . S
C2472 C2474 1.327 . S
C2472 H2497 0.950 . S
C2473 C2472 1.349 . S
C2473 C2489 1.349 . S
C2474 C2472 1.327 . S
C2474 C2493 1.429 . S
C2474 H2498 0.950 . S
C2475 C2492 1.574 1_545 S
C2475 C2494 1.368 . S
C2475 H2499 0.949 . S
H2476 C2480 0.949 . S
C2477 C2478 1.349 . S
C2477 C2479 1.327 . S
C2477 H2500 0.950 . S
C2478 C2477 1.349 . S
C2478 C2490 1.349 . S
C2479 C2477 1.327 . S
C2479 C2495 1.429 . S
C2479 H2501 0.950 . S
C2480 H2476 0.949 . S
C2480 C2488 1.574 1_565 S
C2480 C2496 1.368 . S
H2481 C2489 0.950 . S
H2482 C2487 0.950 . S
H2483 C2488 0.949 . S
H2484 C2490 0.950 . S
H2485 C2491 0.950 . S
H2486 C2492 0.949 . S
C2487 H2482 0.950 . S
C2487 C2489 1.327 . S
C2487 C2493 1.429 . S
C2488 C2480 1.574 1_545 S
C2488 H2483 0.949 . S
C2488 C2494 1.368 . S
C2489 C2473 1.349 . S
C2489 H2481 0.950 . S
C2489 C2487 1.327 . S
C2490 C2478 1.349 . S
C2490 H2484 0.950 . S
C2490 C2491 1.327 . S
C2491 H2485 0.950 . S
C2491 C2490 1.327 . S
C2491 C2495 1.429 . S
C2492 C2475 1.574 1_565 S
C2492 H2486 0.949 . S
C2492 C2496 1.368 . S
C2493 C2474 1.429 . S
C2493 C2487 1.429 . S
C2493 C2494 1.523 . S
C2494 C2475 1.368 . S
C2494 C2488 1.368 . S
C2494 C2493 1.523 . S
C2495 C2479 1.429 . S
C2495 C2491 1.429 . S
C2495 C2496 1.523 . S
C2496 C2480 1.368 . S
C2496 C2492 1.368 . S
C2496 C2495 1.523 . S
H2497 C2472 0.950 . S
H2498 C2474 0.950 . S
H2499 C2475 0.949 . S
H2500 C2477 0.950 . S
H2501 C2479 0.950 . S
C2502 C2503 1.349 . S
C2502 C2504 1.327 . S
C2502 H2527 0.950 . S
C2503 C2502 1.349 . S
C2503 C2519 1.349 . S
C2504 C2502 1.327 . S
C2504 C2523 1.429 . S
C2504 H2528 0.950 . S
C2505 C2522 1.574 . S
C2505 C2524 1.368 . S
C2505 H2529 0.949 . S
H2506 C2510 0.949 . S
C2507 C2508 1.349 . S
C2507 C2509 1.327 . S
C2507 H2530 0.950 . S
C2508 C2507 1.349 . S
C2508 C2520 1.349 . S
C2509 C2507 1.327 . S
C2509 C2525 1.429 . S
C2509 H2531 0.950 . S
C2510 H2506 0.949 . S
C2510 C2518 1.574 . S
C2510 C2526 1.368 . S
H2511 C2519 0.950 . S
H2512 C2517 0.950 . S
H2513 C2518 0.949 . S
H2514 C2520 0.950 . S
H2515 C2521 0.950 . S
H2516 C2522 0.949 . S
C2517 H2512 0.950 . S
C2517 C2519 1.327 . S
C2517 C2523 1.429 . S
C2518 C2510 1.574 . S
C2518 H2513 0.949 . S
C2518 C2524 1.368 . S
C2519 C2503 1.349 . S
C2519 H2511 0.950 . S
C2519 C2517 1.327 . S
C2520 C2508 1.349 . S
C2520 H2514 0.950 . S
C2520 C2521 1.327 . S
C2521 H2515 0.950 . S
C2521 C2520 1.327 . S
C2521 C2525 1.429 . S
C2522 C2505 1.574 . S
C2522 H2516 0.949 . S
C2522 C2526 1.368 . S
C2523 C2504 1.429 . S
C2523 C2517 1.429 . S
C2523 C2524 1.523 . S
C2524 C2505 1.368 . S
C2524 C2518 1.368 . S
C2524 C2523 1.523 . S
C2525 C2509 1.429 . S
C2525 C2521 1.429 . S
C2525 C2526 1.523 . S
C2526 C2510 1.368 . S
C2526 C2522 1.368 . S
C2526 C2525 1.523 . S
H2527 C2502 0.950 . S
H2528 C2504 0.950 . S
H2529 C2505 0.949 . S
H2530 C2507 0.950 . S
H2531 C2509 0.950 . S
C2532 C2533 1.349 . S
C2532 C2534 1.327 . S
C2532 H2557 0.950 . S
C2533 C2532 1.349 . S
C2533 C2549 1.349 . S
C2534 C2532 1.327 . S
C2534 C2553 1.429 . S
C2534 H2558 0.950 . S
C2535 C2552 1.574 1_545 S
C2535 C2554 1.368 . S
C2535 H2559 0.949 . S
H2536 C2540 0.949 . S
C2537 C2538 1.349 . S
C2537 C2539 1.327 . S
C2537 H2560 0.950 . S
C2538 C2537 1.349 . S
C2538 C2550 1.349 . S
C2539 C2537 1.327 . S
C2539 C2555 1.429 . S
C2539 H2561 0.950 . S
C2540 H2536 0.949 . S
C2540 C2548 1.574 1_565 S
C2540 C2556 1.368 . S
H2541 C2549 0.950 . S
H2542 C2547 0.950 . S
H2543 C2548 0.949 . S
H2544 C2550 0.950 . S
H2545 C2551 0.950 . S
H2546 C2552 0.949 . S
C2547 H2542 0.950 . S
C2547 C2549 1.327 . S
C2547 C2553 1.429 . S
C2548 C2540 1.574 1_545 S
C2548 H2543 0.949 . S
C2548 C2554 1.368 . S
C2549 C2533 1.349 . S
C2549 H2541 0.950 . S
C2549 C2547 1.327 . S
C2550 C2538 1.349 . S
C2550 H2544 0.950 . S
C2550 C2551 1.327 . S
C2551 H2545 0.950 . S
C2551 C2550 1.327 . S
C2551 C2555 1.429 . S
C2552 C2535 1.574 1_565 S
C2552 H2546 0.949 . S
C2552 C2556 1.368 . S
C2553 C2534 1.429 . S
C2553 C2547 1.429 . S
C2553 C2554 1.523 . S
C2554 C2535 1.368 . S
C2554 C2548 1.368 . S
C2554 C2553 1.523 . S
C2555 C2539 1.429 . S
C2555 C2551 1.429 . S
C2555 C2556 1.523 . S
C2556 C2540 1.368 . S
C2556 C2552 1.368 . S
C2556 C2555 1.523 . S
H2557 C2532 0.950 . S
H2558 C2534 0.950 . S
H2559 C2535 0.949 . S
H2560 C2537 0.950 . S
H2561 C2539 0.950 . S
C2562 C2563 1.349 . S
C2562 C2564 1.327 . S
C2562 H2587 0.950 . S
C2563 C2562 1.349 . S
C2563 C2579 1.349 . S
C2564 C2562 1.327 . S
C2564 C2583 1.429 . S
C2564 H2588 0.950 . S
C2565 C2582 1.574 . S
C2565 C2584 1.368 . S
C2565 H2589 0.949 . S
H2566 C2570 0.949 . S
C2567 C2568 1.349 . S
C2567 C2569 1.327 . S
C2567 H2590 0.950 . S
C2568 C2567 1.349 . S
C2568 C2580 1.349 . S
C2569 C2567 1.327 . S
C2569 C2585 1.429 . S
C2569 H2591 0.950 . S
C2570 H2566 0.949 . S
C2570 C2578 1.574 . S
C2570 C2586 1.368 . S
H2571 C2579 0.950 . S
H2572 C2577 0.950 . S
H2573 C2578 0.949 . S
H2574 C2580 0.950 . S
H2575 C2581 0.950 . S
H2576 C2582 0.949 . S
C2577 H2572 0.950 . S
C2577 C2579 1.327 . S
C2577 C2583 1.429 . S
C2578 C2570 1.574 . S
C2578 H2573 0.949 . S
C2578 C2584 1.368 . S
C2579 C2563 1.349 . S
C2579 H2571 0.950 . S
C2579 C2577 1.327 . S
C2580 C2568 1.349 . S
C2580 H2574 0.950 . S
C2580 C2581 1.327 . S
C2581 H2575 0.950 . S
C2581 C2580 1.327 . S
C2581 C2585 1.429 . S
C2582 C2565 1.574 . S
C2582 H2576 0.949 . S
C2582 C2586 1.368 . S
C2583 C2564 1.429 . S
C2583 C2577 1.429 . S
C2583 C2584 1.523 . S
C2584 C2565 1.368 . S
C2584 C2578 1.368 . S
C2584 C2583 1.523 . S
C2585 C2569 1.429 . S
C2585 C2581 1.429 . S
C2585 C2586 1.523 . S
C2586 C2570 1.368 . S
C2586 C2582 1.368 . S
C2586 C2585 1.523 . S
H2587 C2562 0.950 . S
H2588 C2564 0.950 . S
H2589 C2565 0.949 . S
H2590 C2567 0.950 . S
H2591 C2569 0.950 . S
C2592 C2593 1.349 . S
C2592 C2594 1.327 . S
C2592 H2617 0.950 . S
C2593 C2592 1.349 . S
C2593 C2609 1.349 . S
C2594 C2592 1.327 . S
C2594 C2613 1.429 . S
C2594 H2618 0.950 . S
C2595 C2612 1.574 1_556 S
C2595 C2614 1.368 . S
C2595 H2619 0.949 . S
H2596 C2600 0.949 . S
C2597 C2598 1.349 . S
C2597 C2599 1.327 . S
C2597 H2620 0.950 . S
C2598 C2597 1.349 . S
C2598 C2610 1.349 . S
C2599 C2597 1.327 . S
C2599 C2615 1.429 . S
C2599 H2621 0.950 . S
C2600 H2596 0.949 . S
C2600 C2608 1.574 1_554 S
C2600 C2616 1.368 . S
H2601 C2609 0.950 . S
H2602 C2607 0.950 . S
H2603 C2608 0.949 . S
H2604 C2610 0.950 . S
H2605 C2611 0.950 . S
H2606 C2612 0.949 . S
C2607 H2602 0.950 . S
C2607 C2609 1.327 . S
C2607 C2613 1.429 . S
C2608 C2600 1.574 1_556 S
C2608 H2603 0.949 . S
C2608 C2614 1.368 . S
C2609 C2593 1.349 . S
C2609 H2601 0.950 . S
C2609 C2607 1.327 . S
C2610 C2598 1.349 . S
C2610 H2604 0.950 . S
C2610 C2611 1.327 . S
C2611 H2605 0.950 . S
C2611 C2610 1.327 . S
C2611 C2615 1.429 . S
C2612 C2595 1.574 1_554 S
C2612 H2606 0.949 . S
C2612 C2616 1.368 . S
C2613 C2594 1.429 . S
C2613 C2607 1.429 . S
C2613 C2614 1.523 . S
C2614 C2595 1.368 . S
C2614 C2608 1.368 . S
C2614 C2613 1.523 . S
C2615 C2599 1.429 . S
C2615 C2611 1.429 . S
C2615 C2616 1.523 . S
C2616 C2600 1.368 . S
C2616 C2612 1.368 . S
C2616 C2615 1.523 . S
H2617 C2592 0.950 . S
H2618 C2594 0.950 . S
H2619 C2595 0.949 . S
H2620 C2597 0.950 . S
H2621 C2599 0.950 . S
C2622 C2623 1.349 . S
C2622 C2624 1.327 . S
C2622 H2647 0.950 . S
C2623 C2622 1.349 . S
C2623 C2639 1.349 . S
C2624 C2622 1.327 . S
C2624 C2643 1.429 . S
C2624 H2648 0.950 . S
C2625 C2642 1.574 1_556 S
C2625 C2644 1.368 . S
C2625 H2649 0.949 . S
H2626 C2630 0.949 . S
C2627 C2628 1.349 . S
C2627 C2629 1.327 . S
C2627 H2650 0.950 . S
C2628 C2627 1.349 . S
C2628 C2640 1.349 . S
C2629 C2627 1.327 . S
C2629 C2645 1.429 . S
C2629 H2651 0.950 . S
C2630 H2626 0.949 . S
C2630 C2638 1.574 1_554 S
C2630 C2646 1.368 . S
H2631 C2639 0.950 . S
H2632 C2637 0.950 . S
H2633 C2638 0.949 . S
H2634 C2640 0.950 . S
H2635 C2641 0.950 . S
H2636 C2642 0.949 . S
C2637 H2632 0.950 . S
C2637 C2639 1.327 . S
C2637 C2643 1.429 . S
C2638 C2630 1.574 1_556 S
C2638 H2633 0.949 . S
C2638 C2644 1.368 . S
C2639 C2623 1.349 . S
C2639 H2631 0.950 . S
C2639 C2637 1.327 . S
C2640 C2628 1.349 . S
C2640 H2634 0.950 . S
C2640 C2641 1.327 . S
C2641 H2635 0.950 . S
C2641 C2640 1.327 . S
C2641 C2645 1.429 . S
C2642 C2625 1.574 1_554 S
C2642 H2636 0.949 . S
C2642 C2646 1.368 . S
C2643 C2624 1.429 . S
C2643 C2637 1.429 . S
C2643 C2644 1.523 . S
C2644 C2625 1.368 . S
C2644 C2638 1.368 . S
C2644 C2643 1.523 . S
C2645 C2629 1.429 . S
C2645 C2641 1.429 . S
C2645 C2646 1.523 . S
C2646 C2630 1.368 . S
C2646 C2642 1.368 . S
C2646 C2645 1.523 . S
H2647 C2622 0.950 . S
H2648 C2624 0.950 . S
H2649 C2625 0.949 . S
H2650 C2627 0.950 . S
H2651 C2629 0.950 . S
C2652 C2653 1.349 . S
C2652 C2654 1.327 . S
C2652 H2677 0.950 . S
C2653 C2652 1.349 . S
C2653 C2669 1.349 . S
C2654 C2652 1.327 . S
C2654 C2673 1.429 . S
C2654 H2678 0.950 . S
C2655 C2672 1.574 . S
C2655 C2674 1.368 . S
C2655 H2679 0.949 . S
H2656 C2660 0.949 . S
C2657 C2658 1.349 . S
C2657 C2659 1.327 . S
C2657 H2680 0.950 . S
C2658 C2657 1.349 . S
C2658 C2670 1.349 . S
C2659 C2657 1.327 . S
C2659 C2675 1.429 . S
C2659 H2681 0.950 . S
C2660 H2656 0.949 . S
C2660 C2668 1.574 . S
C2660 C2676 1.368 . S
H2661 C2669 0.950 . S
H2662 C2667 0.950 . S
H2663 C2668 0.949 . S
H2664 C2670 0.950 . S
H2665 C2671 0.950 . S
H2666 C2672 0.949 . S
C2667 H2662 0.950 . S
C2667 C2669 1.327 . S
C2667 C2673 1.429 . S
C2668 C2660 1.574 . S
C2668 H2663 0.949 . S
C2668 C2674 1.368 . S
C2669 C2653 1.349 . S
C2669 H2661 0.950 . S
C2669 C2667 1.327 . S
C2670 C2658 1.349 . S
C2670 H2664 0.950 . S
C2670 C2671 1.327 . S
C2671 H2665 0.950 . S
C2671 C2670 1.327 . S
C2671 C2675 1.429 . S
C2672 C2655 1.574 . S
C2672 H2666 0.949 . S
C2672 C2676 1.368 . S
C2673 C2654 1.429 . S
C2673 C2667 1.429 . S
C2673 C2674 1.523 . S
C2674 C2655 1.368 . S
C2674 C2668 1.368 . S
C2674 C2673 1.523 . S
C2675 C2659 1.429 . S
C2675 C2671 1.429 . S
C2675 C2676 1.523 . S
C2676 C2660 1.368 . S
C2676 C2672 1.368 . S
C2676 C2675 1.523 . S
H2677 C2652 0.950 . S
H2678 C2654 0.950 . S
H2679 C2655 0.949 . S
H2680 C2657 0.950 . S
H2681 C2659 0.950 . S
C2682 C2683 1.349 . S
C2682 C2684 1.327 . S
C2682 H2707 0.950 . S
C2683 C2682 1.349 . S
C2683 C2699 1.349 . S
C2684 C2682 1.327 . S
C2684 C2703 1.429 . S
C2684 H2708 0.950 . S
C2685 C2702 1.574 1_556 S
C2685 C2704 1.368 . S
C2685 H2709 0.949 . S
H2686 C2690 0.949 . S
C2687 C2688 1.349 . S
C2687 C2689 1.327 . S
C2687 H2710 0.950 . S
C2688 C2687 1.349 . S
C2688 C2700 1.349 . S
C2689 C2687 1.327 . S
C2689 C2705 1.429 . S
C2689 H2711 0.950 . S
C2690 H2686 0.949 . S
C2690 C2698 1.574 1_554 S
C2690 C2706 1.368 . S
H2691 C2699 0.950 . S
H2692 C2697 0.950 . S
H2693 C2698 0.949 . S
H2694 C2700 0.950 . S
H2695 C2701 0.950 . S
H2696 C2702 0.949 . S
C2697 H2692 0.950 . S
C2697 C2699 1.327 . S
C2697 C2703 1.429 . S
C2698 C2690 1.574 1_556 S
C2698 H2693 0.949 . S
C2698 C2704 1.368 . S
C2699 C2683 1.349 . S
C2699 H2691 0.950 . S
C2699 C2697 1.327 . S
C2700 C2688 1.349 . S
C2700 H2694 0.950 . S
C2700 C2701 1.327 . S
C2701 H2695 0.950 . S
C2701 C2700 1.327 . S
C2701 C2705 1.429 . S
C2702 C2685 1.574 1_554 S
C2702 H2696 0.949 . S
C2702 C2706 1.368 . S
C2703 C2684 1.429 . S
C2703 C2697 1.429 . S
C2703 C2704 1.523 . S
C2704 C2685 1.368 . S
C2704 C2698 1.368 . S
C2704 C2703 1.523 . S
C2705 C2689 1.429 . S
C2705 C2701 1.429 . S
C2705 C2706 1.523 . S
C2706 C2690 1.368 . S
C2706 C2702 1.368 . S
C2706 C2705 1.523 . S
H2707 C2682 0.950 . S
H2708 C2684 0.950 . S
H2709 C2685 0.949 . S
H2710 C2687 0.950 . S
H2711 C2689 0.950 . S
C2712 C2713 1.349 . S
C2712 C2714 1.327 . S
C2712 H2737 0.950 . S
C2713 C2712 1.349 . S
C2713 C2729 1.349 . S
C2714 C2712 1.327 . S
C2714 C2733 1.429 . S
C2714 H2738 0.950 . S
C2715 C2732 1.574 . S
C2715 C2734 1.368 . S
C2715 H2739 0.949 . S
H2716 C2720 0.949 . S
C2717 C2718 1.349 . S
C2717 C2719 1.327 . S
C2717 H2740 0.950 . S
C2718 C2717 1.349 . S
C2718 C2730 1.349 . S
C2719 C2717 1.327 . S
C2719 C2735 1.429 . S
C2719 H2741 0.950 . S
C2720 H2716 0.949 . S
C2720 C2728 1.574 . S
C2720 C2736 1.368 . S
H2721 C2729 0.950 . S
H2722 C2727 0.950 . S
H2723 C2728 0.949 . S
H2724 C2730 0.950 . S
H2725 C2731 0.950 . S
H2726 C2732 0.949 . S
C2727 H2722 0.950 . S
C2727 C2729 1.327 . S
C2727 C2733 1.429 . S
C2728 C2720 1.574 . S
C2728 H2723 0.949 . S
C2728 C2734 1.368 . S
C2729 C2713 1.349 . S
C2729 H2721 0.950 . S
C2729 C2727 1.327 . S
C2730 C2718 1.349 . S
C2730 H2724 0.950 . S
C2730 C2731 1.327 . S
C2731 H2725 0.950 . S
C2731 C2730 1.327 . S
C2731 C2735 1.429 . S
C2732 C2715 1.574 . S
C2732 H2726 0.949 . S
C2732 C2736 1.368 . S
C2733 C2714 1.429 . S
C2733 C2727 1.429 . S
C2733 C2734 1.523 . S
C2734 C2715 1.368 . S
C2734 C2728 1.368 . S
C2734 C2733 1.523 . S
C2735 C2719 1.429 . S
C2735 C2731 1.429 . S
C2735 C2736 1.523 . S
C2736 C2720 1.368 . S
C2736 C2732 1.368 . S
C2736 C2735 1.523 . S
H2737 C2712 0.950 . S
H2738 C2714 0.950 . S
H2739 C2715 0.949 . S
H2740 C2717 0.950 . S
H2741 C2719 0.950 . S
C2742 C2743 1.349 . S
C2742 C2744 1.327 . S
C2742 H2767 0.950 . S
C2743 C2742 1.349 . S
C2743 C2759 1.349 . S
C2744 C2742 1.327 . S
C2744 C2763 1.429 . S
C2744 H2768 0.950 . S
C2745 C2762 1.574 1_556 S
C2745 C2764 1.368 . S
C2745 H2769 0.949 . S
H2746 C2750 0.949 . S
C2747 C2748 1.349 . S
C2747 C2749 1.327 . S
C2747 H2770 0.950 . S
C2748 C2747 1.349 . S
C2748 C2760 1.349 . S
C2749 C2747 1.327 . S
C2749 C2765 1.429 . S
C2749 H2771 0.950 . S
C2750 H2746 0.949 . S
C2750 C2758 1.574 1_554 S
C2750 C2766 1.368 . S
H2751 C2759 0.950 . S
H2752 C2757 0.950 . S
H2753 C2758 0.949 . S
H2754 C2760 0.950 . S
H2755 C2761 0.950 . S
H2756 C2762 0.949 . S
C2757 H2752 0.950 . S
C2757 C2759 1.327 . S
C2757 C2763 1.429 . S
C2758 C2750 1.574 1_556 S
C2758 H2753 0.949 . S
C2758 C2764 1.368 . S
C2759 C2743 1.349 . S
C2759 H2751 0.950 . S
C2759 C2757 1.327 . S
C2760 C2748 1.349 . S
C2760 H2754 0.950 . S
C2760 C2761 1.327 . S
C2761 H2755 0.950 . S
C2761 C2760 1.327 . S
C2761 C2765 1.429 . S
C2762 C2745 1.574 1_554 S
C2762 H2756 0.949 . S
C2762 C2766 1.368 . S
C2763 C2744 1.429 . S
C2763 C2757 1.429 . S
C2763 C2764 1.523 . S
C2764 C2745 1.368 . S
C2764 C2758 1.368 . S
C2764 C2763 1.523 . S
C2765 C2749 1.429 . S
C2765 C2761 1.429 . S
C2765 C2766 1.523 . S
C2766 C2750 1.368 . S
C2766 C2762 1.368 . S
C2766 C2765 1.523 . S
H2767 C2742 0.950 . S
H2768 C2744 0.950 . S
H2769 C2745 0.949 . S
H2770 C2747 0.950 . S
H2771 C2749 0.950 . S
C2772 C2773 1.349 . S
C2772 C2774 1.327 . S
C2772 H2797 0.950 . S
C2773 C2772 1.349 . S
C2773 C2789 1.349 . S
C2774 C2772 1.327 . S
C2774 C2793 1.429 . S
C2774 H2798 0.950 . S
C2775 C2792 1.574 . S
C2775 C2794 1.368 . S
C2775 H2799 0.949 . S
H2776 C2780 0.949 . S
C2777 C2778 1.349 . S
C2777 C2779 1.327 . S
C2777 H2800 0.950 . S
C2778 C2777 1.349 . S
C2778 C2790 1.349 . S
C2779 C2777 1.327 . S
C2779 C2795 1.429 . S
C2779 H2801 0.950 . S
C2780 H2776 0.949 . S
C2780 C2788 1.574 . S
C2780 C2796 1.368 . S
H2781 C2789 0.950 . S
H2782 C2787 0.950 . S
H2783 C2788 0.949 . S
H2784 C2790 0.950 . S
H2785 C2791 0.950 . S
H2786 C2792 0.949 . S
C2787 H2782 0.950 . S
C2787 C2789 1.327 . S
C2787 C2793 1.429 . S
C2788 C2780 1.574 . S
C2788 H2783 0.949 . S
C2788 C2794 1.368 . S
C2789 C2773 1.349 . S
C2789 H2781 0.950 . S
C2789 C2787 1.327 . S
C2790 C2778 1.349 . S
C2790 H2784 0.950 . S
C2790 C2791 1.327 . S
C2791 H2785 0.950 . S
C2791 C2790 1.327 . S
C2791 C2795 1.429 . S
C2792 C2775 1.574 . S
C2792 H2786 0.949 . S
C2792 C2796 1.368 . S
C2793 C2774 1.429 . S
C2793 C2787 1.429 . S
C2793 C2794 1.523 . S
C2794 C2775 1.368 . S
C2794 C2788 1.368 . S
C2794 C2793 1.523 . S
C2795 C2779 1.429 . S
C2795 C2791 1.429 . S
C2795 C2796 1.523 . S
C2796 C2780 1.368 . S
C2796 C2792 1.368 . S
C2796 C2795 1.523 . S
H2797 C2772 0.950 . S
H2798 C2774 0.950 . S
H2799 C2775 0.949 . S
H2800 C2777 0.950 . S
H2801 C2779 0.950 . S
C2802 C2803 1.349 . S
C2802 C2804 1.327 . S
C2802 H2827 0.950 . S
C2803 C2802 1.349 . S
C2803 C2819 1.349 . S
C2804 C2802 1.327 . S
C2804 C2823 1.429 . S
C2804 H2828 0.950 . S
C2805 C2822 1.574 . S
C2805 C2824 1.368 . S
C2805 H2829 0.949 . S
H2806 C2810 0.949 . S
C2807 C2808 1.349 . S
C2807 C2809 1.327 . S
C2807 H2830 0.950 . S
C2808 C2807 1.349 . S
C2808 C2820 1.349 . S
C2809 C2807 1.327 . S
C2809 C2825 1.429 . S
C2809 H2831 0.950 . S
C2810 H2806 0.949 . S
C2810 C2818 1.574 . S
C2810 C2826 1.368 . S
H2811 C2819 0.950 . S
H2812 C2817 0.950 . S
H2813 C2818 0.949 . S
H2814 C2820 0.950 . S
H2815 C2821 0.950 . S
H2816 C2822 0.949 . S
C2817 H2812 0.950 . S
C2817 C2819 1.327 . S
C2817 C2823 1.429 . S
C2818 C2810 1.574 . S
C2818 H2813 0.949 . S
C2818 C2824 1.368 . S
C2819 C2803 1.349 . S
C2819 H2811 0.950 . S
C2819 C2817 1.327 . S
C2820 C2808 1.349 . S
C2820 H2814 0.950 . S
C2820 C2821 1.327 . S
C2821 H2815 0.950 . S
C2821 C2820 1.327 . S
C2821 C2825 1.429 . S
C2822 C2805 1.574 . S
C2822 H2816 0.949 . S
C2822 C2826 1.368 . S
C2823 C2804 1.429 . S
C2823 C2817 1.429 . S
C2823 C2824 1.523 . S
C2824 C2805 1.368 . S
C2824 C2818 1.368 . S
C2824 C2823 1.523 . S
C2825 C2809 1.429 . S
C2825 C2821 1.429 . S
C2825 C2826 1.523 . S
C2826 C2810 1.368 . S
C2826 C2822 1.368 . S
C2826 C2825 1.523 . S
H2827 C2802 0.950 . S
H2828 C2804 0.950 . S
H2829 C2805 0.949 . S
H2830 C2807 0.950 . S
H2831 C2809 0.950 . S
C2832 C2833 1.349 . S
C2832 C2834 1.327 . S
C2832 H2857 0.950 . S
C2833 C2832 1.349 . S
C2833 C2849 1.349 . S
C2834 C2832 1.327 . S
C2834 C2853 1.429 . S
C2834 H2858 0.950 . S
C2835 C2852 1.574 . S
C2835 C2854 1.368 . S
C2835 H2859 0.949 . S
H2836 C2840 0.949 . S
C2837 C2838 1.349 . S
C2837 C2839 1.327 . S
C2837 H2860 0.950 . S
C2838 C2837 1.349 . S
C2838 C2850 1.349 . S
C2839 C2837 1.327 . S
C2839 C2855 1.429 . S
C2839 H2861 0.950 . S
C2840 H2836 0.949 . S
C2840 C2848 1.574 . S
C2840 C2856 1.368 . S
H2841 C2849 0.950 . S
H2842 C2847 0.950 . S
H2843 C2848 0.949 . S
H2844 C2850 0.950 . S
H2845 C2851 0.950 . S
H2846 C2852 0.949 . S
C2847 H2842 0.950 . S
C2847 C2849 1.327 . S
C2847 C2853 1.429 . S
C2848 C2840 1.574 . S
C2848 H2843 0.949 . S
C2848 C2854 1.368 . S
C2849 C2833 1.349 . S
C2849 H2841 0.950 . S
C2849 C2847 1.327 . S
C2850 C2838 1.349 . S
C2850 H2844 0.950 . S
C2850 C2851 1.327 . S
C2851 H2845 0.950 . S
C2851 C2850 1.327 . S
C2851 C2855 1.429 . S
C2852 C2835 1.574 . S
C2852 H2846 0.949 . S
C2852 C2856 1.368 . S
C2853 C2834 1.429 . S
C2853 C2847 1.429 . S
C2853 C2854 1.523 . S
C2854 C2835 1.368 . S
C2854 C2848 1.368 . S
C2854 C2853 1.523 . S
C2855 C2839 1.429 . S
C2855 C2851 1.429 . S
C2855 C2856 1.523 . S
C2856 C2840 1.368 . S
C2856 C2852 1.368 . S
C2856 C2855 1.523 . S
H2857 C2832 0.950 . S
H2858 C2834 0.950 . S
H2859 C2835 0.949 . S
H2860 C2837 0.950 . S
H2861 C2839 0.950 . S
C2862 C2863 1.349 . S
C2862 C2864 1.327 . S
C2862 H2887 0.950 . S
C2863 C2862 1.349 . S
C2863 C2879 1.349 . S
C2864 C2862 1.327 . S
C2864 C2883 1.429 . S
C2864 H2888 0.950 . S
C2865 C2882 1.574 . S
C2865 C2884 1.368 . S
C2865 H2889 0.949 . S
H2866 C2870 0.949 . S
C2867 C2868 1.349 . S
C2867 C2869 1.327 . S
C2867 H2890 0.950 . S
C2868 C2867 1.349 . S
C2868 C2880 1.349 . S
C2869 C2867 1.327 . S
C2869 C2885 1.429 . S
C2869 H2891 0.950 . S
C2870 H2866 0.949 . S
C2870 C2878 1.574 . S
C2870 C2886 1.368 . S
H2871 C2879 0.950 . S
H2872 C2877 0.950 . S
H2873 C2878 0.949 . S
H2874 C2880 0.950 . S
H2875 C2881 0.950 . S
H2876 C2882 0.949 . S
C2877 H2872 0.950 . S
C2877 C2879 1.327 . S
C2877 C2883 1.429 . S
C2878 C2870 1.574 . S
C2878 H2873 0.949 . S
C2878 C2884 1.368 . S
C2879 C2863 1.349 . S
C2879 H2871 0.950 . S
C2879 C2877 1.327 . S
C2880 C2868 1.349 . S
C2880 H2874 0.950 . S
C2880 C2881 1.327 . S
C2881 H2875 0.950 . S
C2881 C2880 1.327 . S
C2881 C2885 1.429 . S
C2882 C2865 1.574 . S
C2882 H2876 0.949 . S
C2882 C2886 1.368 . S
C2883 C2864 1.429 . S
C2883 C2877 1.429 . S
C2883 C2884 1.523 . S
C2884 C2865 1.368 . S
C2884 C2878 1.368 . S
C2884 C2883 1.523 . S
C2885 C2869 1.429 . S
C2885 C2881 1.429 . S
C2885 C2886 1.523 . S
C2886 C2870 1.368 . S
C2886 C2882 1.368 . S
C2886 C2885 1.523 . S
H2887 C2862 0.950 . S
H2888 C2864 0.950 . S
H2889 C2865 0.949 . S
H2890 C2867 0.950 . S
H2891 C2869 0.950 . S
C2892 C2893 1.349 . S
C2892 C2894 1.327 . S
C2892 H2917 0.950 . S
C2893 C2892 1.349 . S
C2893 C2909 1.349 . S
C2894 C2892 1.327 . S
C2894 C2913 1.429 . S
C2894 H2918 0.950 . S
C2895 C2912 1.574 . S
C2895 C2914 1.368 . S
C2895 H2919 0.949 . S
H2896 C2900 0.949 . S
C2897 C2898 1.349 . S
C2897 C2899 1.327 . S
C2897 H2920 0.950 . S
C2898 C2897 1.349 . S
C2898 C2910 1.349 . S
C2899 C2897 1.327 . S
C2899 C2915 1.429 . S
C2899 H2921 0.950 . S
C2900 H2896 0.949 . S
C2900 C2908 1.574 . S
C2900 C2916 1.368 . S
H2901 C2909 0.950 . S
H2902 C2907 0.950 . S
H2903 C2908 0.949 . S
H2904 C2910 0.950 . S
H2905 C2911 0.950 . S
H2906 C2912 0.949 . S
C2907 H2902 0.950 . S
C2907 C2909 1.327 . S
C2907 C2913 1.429 . S
C2908 C2900 1.574 . S
C2908 H2903 0.949 . S
C2908 C2914 1.368 . S
C2909 C2893 1.349 . S
C2909 H2901 0.950 . S
C2909 C2907 1.327 . S
C2910 C2898 1.349 . S
C2910 H2904 0.950 . S
C2910 C2911 1.327 . S
C2911 H2905 0.950 . S
C2911 C2910 1.327 . S
C2911 C2915 1.429 . S
C2912 C2895 1.574 . S
C2912 H2906 0.949 . S
C2912 C2916 1.368 . S
C2913 C2894 1.429 . S
C2913 C2907 1.429 . S
C2913 C2914 1.523 . S
C2914 C2895 1.368 . S
C2914 C2908 1.368 . S
C2914 C2913 1.523 . S
C2915 C2899 1.429 . S
C2915 C2911 1.429 . S
C2915 C2916 1.523 . S
C2916 C2900 1.368 . S
C2916 C2912 1.368 . S
C2916 C2915 1.523 . S
H2917 C2892 0.950 . S
H2918 C2894 0.950 . S
H2919 C2895 0.949 . S
H2920 C2897 0.950 . S
H2921 C2899 0.950 . S
C2922 C2923 1.349 . S
C2922 C2924 1.327 . S
C2922 H2947 0.950 . S
C2923 C2922 1.349 . S
C2923 C2939 1.349 . S
C2924 C2922 1.327 . S
C2924 C2943 1.429 . S
C2924 H2948 0.950 . S
C2925 C2942 1.574 . S
C2925 C2944 1.368 . S
C2925 H2949 0.949 . S
H2926 C2930 0.949 . S
C2927 C2928 1.349 . S
C2927 C2929 1.327 . S
C2927 H2950 0.950 . S
C2928 C2927 1.349 . S
C2928 C2940 1.349 . S
C2929 C2927 1.327 . S
C2929 C2945 1.429 . S
C2929 H2951 0.950 . S
C2930 H2926 0.949 . S
C2930 C2938 1.574 . S
C2930 C2946 1.368 . S
H2931 C2939 0.950 . S
H2932 C2937 0.950 . S
H2933 C2938 0.949 . S
H2934 C2940 0.950 . S
H2935 C2941 0.950 . S
H2936 C2942 0.949 . S
C2937 H2932 0.950 . S
C2937 C2939 1.327 . S
C2937 C2943 1.429 . S
C2938 C2930 1.574 . S
C2938 H2933 0.949 . S
C2938 C2944 1.368 . S
C2939 C2923 1.349 . S
C2939 H2931 0.950 . S
C2939 C2937 1.327 . S
C2940 C2928 1.349 . S
C2940 H2934 0.950 . S
C2940 C2941 1.327 . S
C2941 H2935 0.950 . S
C2941 C2940 1.327 . S
C2941 C2945 1.429 . S
C2942 C2925 1.574 . S
C2942 H2936 0.949 . S
C2942 C2946 1.368 . S
C2943 C2924 1.429 . S
C2943 C2937 1.429 . S
C2943 C2944 1.523 . S
C2944 C2925 1.368 . S
C2944 C2938 1.368 . S
C2944 C2943 1.523 . S
C2945 C2929 1.429 . S
C2945 C2941 1.429 . S
C2945 C2946 1.523 . S
C2946 C2930 1.368 . S
C2946 C2942 1.368 . S
C2946 C2945 1.523 . S
H2947 C2922 0.950 . S
H2948 C2924 0.950 . S
H2949 C2925 0.949 . S
H2950 C2927 0.950 . S
H2951 C2929 0.950 . S
C2952 C2953 1.349 . S
C2952 C2954 1.327 . S
C2952 H2977 0.950 . S
C2953 C2952 1.349 . S
C2953 C2969 1.349 . S
C2954 C2952 1.327 . S
C2954 C2973 1.429 . S
C2954 H2978 0.950 . S
C2955 C2972 1.574 . S
C2955 C2974 1.368 . S
C2955 H2979 0.949 . S
H2956 C2960 0.949 . S
C2957 C2958 1.349 . S
C2957 C2959 1.327 . S
C2957 H2980 0.950 . S
C2958 C2957 1.349 . S
C2958 C2970 1.349 . S
C2959 C2957 1.327 . S
C2959 C2975 1.429 . S
C2959 H2981 0.950 . S
C2960 H2956 0.949 . S
C2960 C2968 1.574 . S
C2960 C2976 1.368 . S
H2961 C2969 0.950 . S
H2962 C2967 0.950 . S
H2963 C2968 0.949 . S
H2964 C2970 0.950 . S
H2965 C2971 0.950 . S
H2966 C2972 0.949 . S
C2967 H2962 0.950 . S
C2967 C2969 1.327 . S
C2967 C2973 1.429 . S
C2968 C2960 1.574 . S
C2968 H2963 0.949 . S
C2968 C2974 1.368 . S
C2969 C2953 1.349 . S
C2969 H2961 0.950 . S
C2969 C2967 1.327 . S
C2970 C2958 1.349 . S
C2970 H2964 0.950 . S
C2970 C2971 1.327 . S
C2971 H2965 0.950 . S
C2971 C2970 1.327 . S
C2971 C2975 1.429 . S
C2972 C2955 1.574 . S
C2972 H2966 0.949 . S
C2972 C2976 1.368 . S
C2973 C2954 1.429 . S
C2973 C2967 1.429 . S
C2973 C2974 1.523 . S
C2974 C2955 1.368 . S
C2974 C2968 1.368 . S
C2974 C2973 1.523 . S
C2975 C2959 1.429 . S
C2975 C2971 1.429 . S
C2975 C2976 1.523 . S
C2976 C2960 1.368 . S
C2976 C2972 1.368 . S
C2976 C2975 1.523 . S
H2977 C2952 0.950 . S
H2978 C2954 0.950 . S
H2979 C2955 0.949 . S
H2980 C2957 0.950 . S
H2981 C2959 0.950 . S
C2982 C2983 1.349 . S
C2982 C2984 1.327 . S
C2982 H3007 0.950 . S
C2983 C2982 1.349 . S
C2983 C2999 1.349 . S
C2984 C2982 1.327 . S
C2984 C3003 1.429 . S
C2984 H3008 0.950 . S
C2985 C3002 1.574 . S
C2985 C3004 1.368 . S
C2985 H3009 0.949 . S
H2986 C2990 0.949 . S
C2987 C2988 1.349 . S
C2987 C2989 1.327 . S
C2987 H3010 0.950 . S
C2988 C2987 1.349 . S
C2988 C3000 1.349 . S
C2989 C2987 1.327 . S
C2989 C3005 1.429 . S
C2989 H3011 0.950 . S
C2990 H2986 0.949 . S
C2990 C2998 1.574 . S
C2990 C3006 1.368 . S
H2991 C2999 0.950 . S
H2992 C2997 0.950 . S
H2993 C2998 0.949 . S
H2994 C3000 0.950 . S
H2995 C3001 0.950 . S
H2996 C3002 0.949 . S
C2997 H2992 0.950 . S
C2997 C2999 1.327 . S
C2997 C3003 1.429 . S
C2998 C2990 1.574 . S
C2998 H2993 0.949 . S
C2998 C3004 1.368 . S
C2999 C2983 1.349 . S
C2999 H2991 0.950 . S
C2999 C2997 1.327 . S
C3000 C2988 1.349 . S
C3000 H2994 0.950 . S
C3000 C3001 1.327 . S
C3001 H2995 0.950 . S
C3001 C3000 1.327 . S
C3001 C3005 1.429 . S
C3002 C2985 1.574 . S
C3002 H2996 0.949 . S
C3002 C3006 1.368 . S
C3003 C2984 1.429 . S
C3003 C2997 1.429 . S
C3003 C3004 1.523 . S
C3004 C2985 1.368 . S
C3004 C2998 1.368 . S
C3004 C3003 1.523 . S
C3005 C2989 1.429 . S
C3005 C3001 1.429 . S
C3005 C3006 1.523 . S
C3006 C2990 1.368 . S
C3006 C3002 1.368 . S
C3006 C3005 1.523 . S
H3007 C2982 0.950 . S
H3008 C2984 0.950 . S
H3009 C2985 0.949 . S
H3010 C2987 0.950 . S
H3011 C2989 0.950 . S
C3012 C3013 1.349 . S
C3012 C3014 1.327 . S
C3012 H3037 0.950 . S
C3013 C3012 1.349 . S
C3013 C3029 1.349 . S
C3014 C3012 1.327 . S
C3014 C3033 1.429 . S
C3014 H3038 0.950 . S
C3015 C3032 1.574 . S
C3015 C3034 1.368 . S
C3015 H3039 0.949 . S
H3016 C3020 0.949 . S
C3017 C3018 1.349 . S
C3017 C3019 1.327 . S
C3017 H3040 0.950 . S
C3018 C3017 1.349 . S
C3018 C3030 1.349 . S
C3019 C3017 1.327 . S
C3019 C3035 1.429 . S
C3019 H3041 0.950 . S
C3020 H3016 0.949 . S
C3020 C3028 1.574 . S
C3020 C3036 1.368 . S
H3021 C3029 0.950 . S
H3022 C3027 0.950 . S
H3023 C3028 0.949 . S
H3024 C3030 0.950 . S
H3025 C3031 0.950 . S
H3026 C3032 0.949 . S
C3027 H3022 0.950 . S
C3027 C3029 1.327 . S
C3027 C3033 1.429 . S
C3028 C3020 1.574 . S
C3028 H3023 0.949 . S
C3028 C3034 1.368 . S
C3029 C3013 1.349 . S
C3029 H3021 0.950 . S
C3029 C3027 1.327 . S
C3030 C3018 1.349 . S
C3030 H3024 0.950 . S
C3030 C3031 1.327 . S
C3031 H3025 0.950 . S
C3031 C3030 1.327 . S
C3031 C3035 1.429 . S
C3032 C3015 1.574 . S
C3032 H3026 0.949 . S
C3032 C3036 1.368 . S
C3033 C3014 1.429 . S
C3033 C3027 1.429 . S
C3033 C3034 1.523 . S
C3034 C3015 1.368 . S
C3034 C3028 1.368 . S
C3034 C3033 1.523 . S
C3035 C3019 1.429 . S
C3035 C3031 1.429 . S
C3035 C3036 1.523 . S
C3036 C3020 1.368 . S
C3036 C3032 1.368 . S
C3036 C3035 1.523 . S
H3037 C3012 0.950 . S
H3038 C3014 0.950 . S
H3039 C3015 0.949 . S
H3040 C3017 0.950 . S
H3041 C3019 0.950 . S
C3042 C3043 1.349 . S
C3042 C3044 1.327 . S
C3042 H3067 0.950 . S
C3043 C3042 1.349 . S
C3043 C3059 1.349 . S
C3044 C3042 1.327 . S
C3044 C3063 1.429 . S
C3044 H3068 0.950 . S
C3045 C3062 1.574 . S
C3045 C3064 1.368 . S
C3045 H3069 0.949 . S
H3046 C3050 0.949 . S
C3047 C3048 1.349 . S
C3047 C3049 1.327 . S
C3047 H3070 0.950 . S
C3048 C3047 1.349 . S
C3048 C3060 1.349 . S
C3049 C3047 1.327 . S
C3049 C3065 1.429 . S
C3049 H3071 0.950 . S
C3050 H3046 0.949 . S
C3050 C3058 1.574 . S
C3050 C3066 1.368 . S
H3051 C3059 0.950 . S
H3052 C3057 0.950 . S
H3053 C3058 0.949 . S
H3054 C3060 0.950 . S
H3055 C3061 0.950 . S
H3056 C3062 0.949 . S
C3057 H3052 0.950 . S
C3057 C3059 1.327 . S
C3057 C3063 1.429 . S
C3058 C3050 1.574 . S
C3058 H3053 0.949 . S
C3058 C3064 1.368 . S
C3059 C3043 1.349 . S
C3059 H3051 0.950 . S
C3059 C3057 1.327 . S
C3060 C3048 1.349 . S
C3060 H3054 0.950 . S
C3060 C3061 1.327 . S
C3061 H3055 0.950 . S
C3061 C3060 1.327 . S
C3061 C3065 1.429 . S
C3062 C3045 1.574 . S
C3062 H3056 0.949 . S
C3062 C3066 1.368 . S
C3063 C3044 1.429 . S
C3063 C3057 1.429 . S
C3063 C3064 1.523 . S
C3064 C3045 1.368 . S
C3064 C3058 1.368 . S
C3064 C3063 1.523 . S
C3065 C3049 1.429 . S
C3065 C3061 1.429 . S
C3065 C3066 1.523 . S
C3066 C3050 1.368 . S
C3066 C3062 1.368 . S
C3066 C3065 1.523 . S
H3067 C3042 0.950 . S
H3068 C3044 0.950 . S
H3069 C3045 0.949 . S
H3070 C3047 0.950 . S
H3071 C3049 0.950 . S
C3072 C3073 1.349 . S
C3072 C3074 1.327 . S
C3072 H3097 0.950 . S
C3073 C3072 1.349 . S
C3073 C3089 1.349 . S
C3074 C3072 1.327 . S
C3074 C3093 1.429 . S
C3074 H3098 0.950 . S
C3075 C3092 1.574 . S
C3075 C3094 1.368 . S
C3075 H3099 0.949 . S
H3076 C3080 0.949 . S
C3077 C3078 1.349 . S
C3077 C3079 1.327 . S
C3077 H3100 0.950 . S
C3078 C3077 1.349 . S
C3078 C3090 1.349 . S
C3079 C3077 1.327 . S
C3079 C3095 1.429 . S
C3079 H3101 0.950 . S
C3080 H3076 0.949 . S
C3080 C3088 1.574 . S
C3080 C3096 1.368 . S
H3081 C3089 0.950 . S
H3082 C3087 0.950 . S
H3083 C3088 0.949 . S
H3084 C3090 0.950 . S
H3085 C3091 0.950 . S
H3086 C3092 0.949 . S
C3087 H3082 0.950 . S
C3087 C3089 1.327 . S
C3087 C3093 1.429 . S
C3088 C3080 1.574 . S
C3088 H3083 0.949 . S
C3088 C3094 1.368 . S
C3089 C3073 1.349 . S
C3089 H3081 0.950 . S
C3089 C3087 1.327 . S
C3090 C3078 1.349 . S
C3090 H3084 0.950 . S
C3090 C3091 1.327 . S
C3091 H3085 0.950 . S
C3091 C3090 1.327 . S
C3091 C3095 1.429 . S
C3092 C3075 1.574 . S
C3092 H3086 0.949 . S
C3092 C3096 1.368 . S
C3093 C3074 1.429 . S
C3093 C3087 1.429 . S
C3093 C3094 1.523 . S
C3094 C3075 1.368 . S
C3094 C3088 1.368 . S
C3094 C3093 1.523 . S
C3095 C3079 1.429 . S
C3095 C3091 1.429 . S
C3095 C3096 1.523 . S
C3096 C3080 1.368 . S
C3096 C3092 1.368 . S
C3096 C3095 1.523 . S
H3097 C3072 0.950 . S
H3098 C3074 0.950 . S
H3099 C3075 0.949 . S
H3100 C3077 0.950 . S
H3101 C3079 0.950 . S
C3102 C3103 1.349 . S
C3102 C3104 1.327 . S
C3102 H3127 0.950 . S
C3103 C3102 1.349 . S
C3103 C3119 1.349 . S
C3104 C3102 1.327 . S
C3104 C3123 1.429 . S
C3104 H3128 0.950 . S
C3105 C3122 1.574 . S
C3105 C3124 1.368 . S
C3105 H3129 0.949 . S
H3106 C3110 0.949 . S
C3107 C3108 1.349 . S
C3107 C3109 1.327 . S
C3107 H3130 0.950 . S
C3108 C3107 1.349 . S
C3108 C3120 1.349 . S
C3109 C3107 1.327 . S
C3109 C3125 1.429 . S
C3109 H3131 0.950 . S
C3110 H3106 0.949 . S
C3110 C3118 1.574 . S
C3110 C3126 1.368 . S
H3111 C3119 0.950 . S
H3112 C3117 0.950 . S
H3113 C3118 0.949 . S
H3114 C3120 0.950 . S
H3115 C3121 0.950 . S
H3116 C3122 0.949 . S
C3117 H3112 0.950 . S
C3117 C3119 1.327 . S
C3117 C3123 1.429 . S
C3118 C3110 1.574 . S
C3118 H3113 0.949 . S
C3118 C3124 1.368 . S
C3119 C3103 1.349 . S
C3119 H3111 0.950 . S
C3119 C3117 1.327 . S
C3120 C3108 1.349 . S
C3120 H3114 0.950 . S
C3120 C3121 1.327 . S
C3121 H3115 0.950 . S
C3121 C3120 1.327 . S
C3121 C3125 1.429 . S
C3122 C3105 1.574 . S
C3122 H3116 0.949 . S
C3122 C3126 1.368 . S
C3123 C3104 1.429 . S
C3123 C3117 1.429 . S
C3123 C3124 1.523 . S
C3124 C3105 1.368 . S
C3124 C3118 1.368 . S
C3124 C3123 1.523 . S
C3125 C3109 1.429 . S
C3125 C3121 1.429 . S
C3125 C3126 1.523 . S
C3126 C3110 1.368 . S
C3126 C3122 1.368 . S
C3126 C3125 1.523 . S
H3127 C3102 0.950 . S
H3128 C3104 0.950 . S
H3129 C3105 0.949 . S
H3130 C3107 0.950 . S
H3131 C3109 0.950 . S
C3132 C3133 1.349 . S
C3132 C3134 1.327 . S
C3132 H3157 0.950 . S
C3133 C3132 1.349 . S
C3133 C3149 1.349 . S
C3134 C3132 1.327 . S
C3134 C3153 1.429 . S
C3134 H3158 0.950 . S
C3135 C3152 1.574 . S
C3135 C3154 1.368 . S
C3135 H3159 0.949 . S
H3136 C3140 0.949 . S
C3137 C3138 1.349 . S
C3137 C3139 1.327 . S
C3137 H3160 0.950 . S
C3138 C3137 1.349 . S
C3138 C3150 1.349 . S
C3139 C3137 1.327 . S
C3139 C3155 1.429 . S
C3139 H3161 0.950 . S
C3140 H3136 0.949 . S
C3140 C3148 1.574 . S
C3140 C3156 1.368 . S
H3141 C3149 0.950 . S
H3142 C3147 0.950 . S
H3143 C3148 0.949 . S
H3144 C3150 0.950 . S
H3145 C3151 0.950 . S
H3146 C3152 0.949 . S
C3147 H3142 0.950 . S
C3147 C3149 1.327 . S
C3147 C3153 1.429 . S
C3148 C3140 1.574 . S
C3148 H3143 0.949 . S
C3148 C3154 1.368 . S
C3149 C3133 1.349 . S
C3149 H3141 0.950 . S
C3149 C3147 1.327 . S
C3150 C3138 1.349 . S
C3150 H3144 0.950 . S
C3150 C3151 1.327 . S
C3151 H3145 0.950 . S
C3151 C3150 1.327 . S
C3151 C3155 1.429 . S
C3152 C3135 1.574 . S
C3152 H3146 0.949 . S
C3152 C3156 1.368 . S
C3153 C3134 1.429 . S
C3153 C3147 1.429 . S
C3153 C3154 1.523 . S
C3154 C3135 1.368 . S
C3154 C3148 1.368 . S
C3154 C3153 1.523 . S
C3155 C3139 1.429 . S
C3155 C3151 1.429 . S
C3155 C3156 1.523 . S
C3156 C3140 1.368 . S
C3156 C3152 1.368 . S
C3156 C3155 1.523 . S
H3157 C3132 0.950 . S
H3158 C3134 0.950 . S
H3159 C3135 0.949 . S
H3160 C3137 0.950 . S
H3161 C3139 0.950 . S
C3162 C3163 1.349 . S
C3162 C3164 1.327 . S
C3162 H3187 0.950 . S
C3163 C3162 1.349 . S
C3163 C3179 1.349 . S
C3164 C3162 1.327 . S
C3164 C3183 1.429 . S
C3164 H3188 0.950 . S
C3165 C3182 1.574 . S
C3165 C3184 1.368 . S
C3165 H3189 0.949 . S
H3166 C3170 0.949 . S
C3167 C3168 1.349 . S
C3167 C3169 1.327 . S
C3167 H3190 0.950 . S
C3168 C3167 1.349 . S
C3168 C3180 1.349 . S
C3169 C3167 1.327 . S
C3169 C3185 1.429 . S
C3169 H3191 0.950 . S
C3170 H3166 0.949 . S
C3170 C3178 1.574 . S
C3170 C3186 1.368 . S
H3171 C3179 0.950 . S
H3172 C3177 0.950 . S
H3173 C3178 0.949 . S
H3174 C3180 0.950 . S
H3175 C3181 0.950 . S
H3176 C3182 0.949 . S
C3177 H3172 0.950 . S
C3177 C3179 1.327 . S
C3177 C3183 1.429 . S
C3178 C3170 1.574 . S
C3178 H3173 0.949 . S
C3178 C3184 1.368 . S
C3179 C3163 1.349 . S
C3179 H3171 0.950 . S
C3179 C3177 1.327 . S
C3180 C3168 1.349 . S
C3180 H3174 0.950 . S
C3180 C3181 1.327 . S
C3181 H3175 0.950 . S
C3181 C3180 1.327 . S
C3181 C3185 1.429 . S
C3182 C3165 1.574 . S
C3182 H3176 0.949 . S
C3182 C3186 1.368 . S
C3183 C3164 1.429 . S
C3183 C3177 1.429 . S
C3183 C3184 1.523 . S
C3184 C3165 1.368 . S
C3184 C3178 1.368 . S
C3184 C3183 1.523 . S
C3185 C3169 1.429 . S
C3185 C3181 1.429 . S
C3185 C3186 1.523 . S
C3186 C3170 1.368 . S
C3186 C3182 1.368 . S
C3186 C3185 1.523 . S
H3187 C3162 0.950 . S
H3188 C3164 0.950 . S
H3189 C3165 0.949 . S
H3190 C3167 0.950 . S
H3191 C3169 0.950 . S
C3192 C3193 1.349 . S
C3192 C3194 1.327 . S
C3192 H3217 0.950 . S
C3193 C3192 1.349 . S
C3193 C3209 1.349 . S
C3194 C3192 1.327 . S
C3194 C3213 1.429 . S
C3194 H3218 0.950 . S
C3195 C3212 1.574 . S
C3195 C3214 1.368 . S
C3195 H3219 0.949 . S
H3196 C3200 0.949 . S
C3197 C3198 1.349 . S
C3197 C3199 1.327 . S
C3197 H3220 0.950 . S
C3198 C3197 1.349 . S
C3198 C3210 1.349 . S
C3199 C3197 1.327 . S
C3199 C3215 1.429 . S
C3199 H3221 0.950 . S
C3200 H3196 0.949 . S
C3200 C3208 1.574 . S
C3200 C3216 1.368 . S
H3201 C3209 0.950 . S
H3202 C3207 0.950 . S
H3203 C3208 0.949 . S
H3204 C3210 0.950 . S
H3205 C3211 0.950 . S
H3206 C3212 0.949 . S
C3207 H3202 0.950 . S
C3207 C3209 1.327 . S
C3207 C3213 1.429 . S
C3208 C3200 1.574 . S
C3208 H3203 0.949 . S
C3208 C3214 1.368 . S
C3209 C3193 1.349 . S
C3209 H3201 0.950 . S
C3209 C3207 1.327 . S
C3210 C3198 1.349 . S
C3210 H3204 0.950 . S
C3210 C3211 1.327 . S
C3211 H3205 0.950 . S
C3211 C3210 1.327 . S
C3211 C3215 1.429 . S
C3212 C3195 1.574 . S
C3212 H3206 0.949 . S
C3212 C3216 1.368 . S
C3213 C3194 1.429 . S
C3213 C3207 1.429 . S
C3213 C3214 1.523 . S
C3214 C3195 1.368 . S
C3214 C3208 1.368 . S
C3214 C3213 1.523 . S
C3215 C3199 1.429 . S
C3215 C3211 1.429 . S
C3215 C3216 1.523 . S
C3216 C3200 1.368 . S
C3216 C3212 1.368 . S
C3216 C3215 1.523 . S
H3217 C3192 0.950 . S
H3218 C3194 0.950 . S
H3219 C3195 0.949 . S
H3220 C3197 0.950 . S
H3221 C3199 0.950 . S
C3222 C3223 1.349 . S
C3222 C3224 1.327 . S
C3222 H3247 0.950 . S
C3223 C3222 1.349 . S
C3223 C3239 1.349 . S
C3224 C3222 1.327 . S
C3224 C3243 1.429 . S
C3224 H3248 0.950 . S
C3225 C3242 1.574 . S
C3225 C3244 1.368 . S
C3225 H3249 0.949 . S
H3226 C3230 0.949 . S
C3227 C3228 1.349 . S
C3227 C3229 1.327 . S
C3227 H3250 0.950 . S
C3228 C3227 1.349 . S
C3228 C3240 1.349 . S
C3229 C3227 1.327 . S
C3229 C3245 1.429 . S
C3229 H3251 0.950 . S
C3230 H3226 0.949 . S
C3230 C3238 1.574 . S
C3230 C3246 1.368 . S
H3231 C3239 0.950 . S
H3232 C3237 0.950 . S
H3233 C3238 0.949 . S
H3234 C3240 0.950 . S
H3235 C3241 0.950 . S
H3236 C3242 0.949 . S
C3237 H3232 0.950 . S
C3237 C3239 1.327 . S
C3237 C3243 1.429 . S
C3238 C3230 1.574 . S
C3238 H3233 0.949 . S
C3238 C3244 1.368 . S
C3239 C3223 1.349 . S
C3239 H3231 0.950 . S
C3239 C3237 1.327 . S
C3240 C3228 1.349 . S
C3240 H3234 0.950 . S
C3240 C3241 1.327 . S
C3241 H3235 0.950 . S
C3241 C3240 1.327 . S
C3241 C3245 1.429 . S
C3242 C3225 1.574 . S
C3242 H3236 0.949 . S
C3242 C3246 1.368 . S
C3243 C3224 1.429 . S
C3243 C3237 1.429 . S
C3243 C3244 1.523 . S
C3244 C3225 1.368 . S
C3244 C3238 1.368 . S
C3244 C3243 1.523 . S
C3245 C3229 1.429 . S
C3245 C3241 1.429 . S
C3245 C3246 1.523 . S
C3246 C3230 1.368 . S
C3246 C3242 1.368 . S
C3246 C3245 1.523 . S
H3247 C3222 0.950 . S
H3248 C3224 0.950 . S
H3249 C3225 0.949 . S
H3250 C3227 0.950 . S
H3251 C3229 0.950 . S
C3252 C3253 1.349 . S
C3252 C3254 1.327 . S
C3252 H3277 0.950 . S
C3253 C3252 1.349 . S
C3253 C3269 1.349 . S
C3254 C3252 1.327 . S
C3254 C3273 1.429 . S
C3254 H3278 0.950 . S
C3255 C3272 1.574 . S
C3255 C3274 1.368 . S
C3255 H3279 0.949 . S
H3256 C3260 0.949 . S
C3257 C3258 1.349 . S
C3257 C3259 1.327 . S
C3257 H3280 0.950 . S
C3258 C3257 1.349 . S
C3258 C3270 1.349 . S
C3259 C3257 1.327 . S
C3259 C3275 1.429 . S
C3259 H3281 0.950 . S
C3260 H3256 0.949 . S
C3260 C3268 1.574 . S
C3260 C3276 1.368 . S
H3261 C3269 0.950 . S
H3262 C3267 0.950 . S
H3263 C3268 0.949 . S
H3264 C3270 0.950 . S
H3265 C3271 0.950 . S
H3266 C3272 0.949 . S
C3267 H3262 0.950 . S
C3267 C3269 1.327 . S
C3267 C3273 1.429 . S
C3268 C3260 1.574 . S
C3268 H3263 0.949 . S
C3268 C3274 1.368 . S
C3269 C3253 1.349 . S
C3269 H3261 0.950 . S
C3269 C3267 1.327 . S
C3270 C3258 1.349 . S
C3270 H3264 0.950 . S
C3270 C3271 1.327 . S
C3271 H3265 0.950 . S
C3271 C3270 1.327 . S
C3271 C3275 1.429 . S
C3272 C3255 1.574 . S
C3272 H3266 0.949 . S
C3272 C3276 1.368 . S
C3273 C3254 1.429 . S
C3273 C3267 1.429 . S
C3273 C3274 1.523 . S
C3274 C3255 1.368 . S
C3274 C3268 1.368 . S
C3274 C3273 1.523 . S
C3275 C3259 1.429 . S
C3275 C3271 1.429 . S
C3275 C3276 1.523 . S
C3276 C3260 1.368 . S
C3276 C3272 1.368 . S
C3276 C3275 1.523 . S
H3277 C3252 0.950 . S
H3278 C3254 0.950 . S
H3279 C3255 0.949 . S
H3280 C3257 0.950 . S
H3281 C3259 0.950 . S
C3282 C3283 1.349 . S
C3282 C3284 1.327 . S
C3282 H3307 0.950 . S
C3283 C3282 1.349 . S
C3283 C3299 1.349 . S
C3284 C3282 1.327 . S
C3284 C3303 1.429 . S
C3284 H3308 0.950 . S
C3285 C3302 1.574 . S
C3285 C3304 1.368 . S
C3285 H3309 0.949 . S
H3286 C3290 0.949 . S
C3287 C3288 1.349 . S
C3287 C3289 1.327 . S
C3287 H3310 0.950 . S
C3288 C3287 1.349 . S
C3288 C3300 1.349 . S
C3289 C3287 1.327 . S
C3289 C3305 1.429 . S
C3289 H3311 0.950 . S
C3290 H3286 0.949 . S
C3290 C3298 1.574 . S
C3290 C3306 1.368 . S
H3291 C3299 0.950 . S
H3292 C3297 0.950 . S
H3293 C3298 0.949 . S
H3294 C3300 0.950 . S
H3295 C3301 0.950 . S
H3296 C3302 0.949 . S
C3297 H3292 0.950 . S
C3297 C3299 1.327 . S
C3297 C3303 1.429 . S
C3298 C3290 1.574 . S
C3298 H3293 0.949 . S
C3298 C3304 1.368 . S
C3299 C3283 1.349 . S
C3299 H3291 0.950 . S
C3299 C3297 1.327 . S
C3300 C3288 1.349 . S
C3300 H3294 0.950 . S
C3300 C3301 1.327 . S
C3301 H3295 0.950 . S
C3301 C3300 1.327 . S
C3301 C3305 1.429 . S
C3302 C3285 1.574 . S
C3302 H3296 0.949 . S
C3302 C3306 1.368 . S
C3303 C3284 1.429 . S
C3303 C3297 1.429 . S
C3303 C3304 1.523 . S
C3304 C3285 1.368 . S
C3304 C3298 1.368 . S
C3304 C3303 1.523 . S
C3305 C3289 1.429 . S
C3305 C3301 1.429 . S
C3305 C3306 1.523 . S
C3306 C3290 1.368 . S
C3306 C3302 1.368 . S
C3306 C3305 1.523 . S
H3307 C3282 0.950 . S
H3308 C3284 0.950 . S
H3309 C3285 0.949 . S
H3310 C3287 0.950 . S
H3311 C3289 0.950 . S
C3312 C3313 1.349 . S
C3312 C3314 1.327 . S
C3312 H3337 0.950 . S
C3313 C3312 1.349 . S
C3313 C3329 1.349 . S
C3314 C3312 1.327 . S
C3314 C3333 1.429 . S
C3314 H3338 0.950 . S
C3315 C3332 1.574 . S
C3315 C3334 1.368 . S
C3315 H3339 0.949 . S
H3316 C3320 0.949 . S
C3317 C3318 1.349 . S
C3317 C3319 1.327 . S
C3317 H3340 0.950 . S
C3318 C3317 1.349 . S
C3318 C3330 1.349 . S
C3319 C3317 1.327 . S
C3319 C3335 1.429 . S
C3319 H3341 0.950 . S
C3320 H3316 0.949 . S
C3320 C3328 1.574 . S
C3320 C3336 1.368 . S
H3321 C3329 0.950 . S
H3322 C3327 0.950 . S
H3323 C3328 0.949 . S
H3324 C3330 0.950 . S
H3325 C3331 0.950 . S
H3326 C3332 0.949 . S
C3327 H3322 0.950 . S
C3327 C3329 1.327 . S
C3327 C3333 1.429 . S
C3328 C3320 1.574 . S
C3328 H3323 0.949 . S
C3328 C3334 1.368 . S
C3329 C3313 1.349 . S
C3329 H3321 0.950 . S
C3329 C3327 1.327 . S
C3330 C3318 1.349 . S
C3330 H3324 0.950 . S
C3330 C3331 1.327 . S
C3331 H3325 0.950 . S
C3331 C3330 1.327 . S
C3331 C3335 1.429 . S
C3332 C3315 1.574 . S
C3332 H3326 0.949 . S
C3332 C3336 1.368 . S
C3333 C3314 1.429 . S
C3333 C3327 1.429 . S
C3333 C3334 1.523 . S
C3334 C3315 1.368 . S
C3334 C3328 1.368 . S
C3334 C3333 1.523 . S
C3335 C3319 1.429 . S
C3335 C3331 1.429 . S
C3335 C3336 1.523 . S
C3336 C3320 1.368 . S
C3336 C3332 1.368 . S
C3336 C3335 1.523 . S
H3337 C3312 0.950 . S
H3338 C3314 0.950 . S
H3339 C3315 0.949 . S
H3340 C3317 0.950 . S
H3341 C3319 0.950 . S
C3342 C3343 1.349 . S
C3342 C3344 1.327 . S
C3342 H3367 0.950 . S
C3343 C3342 1.349 . S
C3343 C3359 1.349 . S
C3344 C3342 1.327 . S
C3344 C3363 1.429 . S
C3344 H3368 0.950 . S
C3345 C3362 1.574 . S
C3345 C3364 1.368 . S
C3345 H3369 0.949 . S
H3346 C3350 0.949 . S
C3347 C3348 1.349 . S
C3347 C3349 1.327 . S
C3347 H3370 0.950 . S
C3348 C3347 1.349 . S
C3348 C3360 1.349 . S
C3349 C3347 1.327 . S
C3349 C3365 1.429 . S
C3349 H3371 0.950 . S
C3350 H3346 0.949 . S
C3350 C3358 1.574 . S
C3350 C3366 1.368 . S
H3351 C3359 0.950 . S
H3352 C3357 0.950 . S
H3353 C3358 0.949 . S
H3354 C3360 0.950 . S
H3355 C3361 0.950 . S
H3356 C3362 0.949 . S
C3357 H3352 0.950 . S
C3357 C3359 1.327 . S
C3357 C3363 1.429 . S
C3358 C3350 1.574 . S
C3358 H3353 0.949 . S
C3358 C3364 1.368 . S
C3359 C3343 1.349 . S
C3359 H3351 0.950 . S
C3359 C3357 1.327 . S
C3360 C3348 1.349 . S
C3360 H3354 0.950 . S
C3360 C3361 1.327 . S
C3361 H3355 0.950 . S
C3361 C3360 1.327 . S
C3361 C3365 1.429 . S
C3362 C3345 1.574 . S
C3362 H3356 0.949 . S
C3362 C3366 1.368 . S
C3363 C3344 1.429 . S
C3363 C3357 1.429 . S
C3363 C3364 1.523 . S
C3364 C3345 1.368 . S
C3364 C3358 1.368 . S
C3364 C3363 1.523 . S
C3365 C3349 1.429 . S
C3365 C3361 1.429 . S
C3365 C3366 1.523 . S
C3366 C3350 1.368 . S
C3366 C3362 1.368 . S
C3366 C3365 1.523 . S
H3367 C3342 0.950 . S
H3368 C3344 0.950 . S
H3369 C3345 0.949 . S
H3370 C3347 0.950 . S
H3371 C3349 0.950 . S
C3372 C3373 1.349 . S
C3372 C3374 1.327 . S
C3372 H3397 0.950 . S
C3373 C3372 1.349 . S
C3373 C3389 1.349 . S
C3374 C3372 1.327 . S
C3374 C3393 1.429 . S
C3374 H3398 0.950 . S
C3375 C3392 1.574 . S
C3375 C3394 1.368 . S
C3375 H3399 0.949 . S
H3376 C3380 0.949 . S
C3377 C3378 1.349 . S
C3377 C3379 1.327 . S
C3377 H3400 0.950 . S
C3378 C3377 1.349 . S
C3378 C3390 1.349 . S
C3379 C3377 1.327 . S
C3379 C3395 1.429 . S
C3379 H3401 0.950 . S
C3380 H3376 0.949 . S
C3380 C3388 1.574 . S
C3380 C3396 1.368 . S
H3381 C3389 0.950 . S
H3382 C3387 0.950 . S
H3383 C3388 0.949 . S
H3384 C3390 0.950 . S
H3385 C3391 0.950 . S
H3386 C3392 0.949 . S
C3387 H3382 0.950 . S
C3387 C3389 1.327 . S
C3387 C3393 1.429 . S
C3388 C3380 1.574 . S
C3388 H3383 0.949 . S
C3388 C3394 1.368 . S
C3389 C3373 1.349 . S
C3389 H3381 0.950 . S
C3389 C3387 1.327 . S
C3390 C3378 1.349 . S
C3390 H3384 0.950 . S
C3390 C3391 1.327 . S
C3391 H3385 0.950 . S
C3391 C3390 1.327 . S
C3391 C3395 1.429 . S
C3392 C3375 1.574 . S
C3392 H3386 0.949 . S
C3392 C3396 1.368 . S
C3393 C3374 1.429 . S
C3393 C3387 1.429 . S
C3393 C3394 1.523 . S
C3394 C3375 1.368 . S
C3394 C3388 1.368 . S
C3394 C3393 1.523 . S
C3395 C3379 1.429 . S
C3395 C3391 1.429 . S
C3395 C3396 1.523 . S
C3396 C3380 1.368 . S
C3396 C3392 1.368 . S
C3396 C3395 1.523 . S
H3397 C3372 0.950 . S
H3398 C3374 0.950 . S
H3399 C3375 0.949 . S
H3400 C3377 0.950 . S
H3401 C3379 0.950 . S
C3402 C3403 1.349 . S
C3402 C3404 1.327 . S
C3402 H3427 0.950 . S
C3403 C3402 1.349 . S
C3403 C3419 1.349 . S
C3404 C3402 1.327 . S
C3404 C3423 1.429 . S
C3404 H3428 0.950 . S
C3405 C3422 1.574 . S
C3405 C3424 1.368 . S
C3405 H3429 0.949 . S
H3406 C3410 0.949 . S
C3407 C3408 1.349 . S
C3407 C3409 1.327 . S
C3407 H3430 0.950 . S
C3408 C3407 1.349 . S
C3408 C3420 1.349 . S
C3409 C3407 1.327 . S
C3409 C3425 1.429 . S
C3409 H3431 0.950 . S
C3410 H3406 0.949 . S
C3410 C3418 1.574 . S
C3410 C3426 1.368 . S
H3411 C3419 0.950 . S
H3412 C3417 0.950 . S
H3413 C3418 0.949 . S
H3414 C3420 0.950 . S
H3415 C3421 0.950 . S
H3416 C3422 0.949 . S
C3417 H3412 0.950 . S
C3417 C3419 1.327 . S
C3417 C3423 1.429 . S
C3418 C3410 1.574 . S
C3418 H3413 0.949 . S
C3418 C3424 1.368 . S
C3419 C3403 1.349 . S
C3419 H3411 0.950 . S
C3419 C3417 1.327 . S
C3420 C3408 1.349 . S
C3420 H3414 0.950 . S
C3420 C3421 1.327 . S
C3421 H3415 0.950 . S
C3421 C3420 1.327 . S
C3421 C3425 1.429 . S
C3422 C3405 1.574 . S
C3422 H3416 0.949 . S
C3422 C3426 1.368 . S
C3423 C3404 1.429 . S
C3423 C3417 1.429 . S
C3423 C3424 1.523 . S
C3424 C3405 1.368 . S
C3424 C3418 1.368 . S
C3424 C3423 1.523 . S
C3425 C3409 1.429 . S
C3425 C3421 1.429 . S
C3425 C3426 1.523 . S
C3426 C3410 1.368 . S
C3426 C3422 1.368 . S
C3426 C3425 1.523 . S
H3427 C3402 0.950 . S
H3428 C3404 0.950 . S
H3429 C3405 0.949 . S
H3430 C3407 0.950 . S
H3431 C3409 0.950 . S
C3432 C3433 1.349 . S
C3432 C3434 1.327 . S
C3432 H3457 0.950 . S
C3433 C3432 1.349 . S
C3433 C3449 1.349 . S
C3434 C3432 1.327 . S
C3434 C3453 1.429 . S
C3434 H3458 0.950 . S
C3435 C3452 1.574 . S
C3435 C3454 1.368 . S
C3435 H3459 0.949 . S
H3436 C3440 0.949 . S
C3437 C3438 1.349 . S
C3437 C3439 1.327 . S
C3437 H3460 0.950 . S
C3438 C3437 1.349 . S
C3438 C3450 1.349 . S
C3439 C3437 1.327 . S
C3439 C3455 1.429 . S
C3439 H3461 0.950 . S
C3440 H3436 0.949 . S
C3440 C3448 1.574 . S
C3440 C3456 1.368 . S
H3441 C3449 0.950 . S
H3442 C3447 0.950 . S
H3443 C3448 0.949 . S
H3444 C3450 0.950 . S
H3445 C3451 0.950 . S
H3446 C3452 0.949 . S
C3447 H3442 0.950 . S
C3447 C3449 1.327 . S
C3447 C3453 1.429 . S
C3448 C3440 1.574 . S
C3448 H3443 0.949 . S
C3448 C3454 1.368 . S
C3449 C3433 1.349 . S
C3449 H3441 0.950 . S
C3449 C3447 1.327 . S
C3450 C3438 1.349 . S
C3450 H3444 0.950 . S
C3450 C3451 1.327 . S
C3451 H3445 0.950 . S
C3451 C3450 1.327 . S
C3451 C3455 1.429 . S
C3452 C3435 1.574 . S
C3452 H3446 0.949 . S
C3452 C3456 1.368 . S
C3453 C3434 1.429 . S
C3453 C3447 1.429 . S
C3453 C3454 1.523 . S
C3454 C3435 1.368 . S
C3454 C3448 1.368 . S
C3454 C3453 1.523 . S
C3455 C3439 1.429 . S
C3455 C3451 1.429 . S
C3455 C3456 1.523 . S
C3456 C3440 1.368 . S
C3456 C3452 1.368 . S
C3456 C3455 1.523 . S
H3457 C3432 0.950 . S
H3458 C3434 0.950 . S
H3459 C3435 0.949 . S
H3460 C3437 0.950 . S
H3461 C3439 0.950 . S
C3462 C3463 1.349 . S
C3462 C3464 1.327 . S
C3462 H3487 0.950 . S
C3463 C3462 1.349 . S
C3463 C3479 1.349 . S
C3464 C3462 1.327 . S
C3464 C3483 1.429 . S
C3464 H3488 0.950 . S
C3465 C3482 1.574 . S
C3465 C3484 1.368 . S
C3465 H3489 0.949 . S
H3466 C3470 0.949 . S
C3467 C3468 1.349 . S
C3467 C3469 1.327 . S
C3467 H3490 0.950 . S
C3468 C3467 1.349 . S
C3468 C3480 1.349 . S
C3469 C3467 1.327 . S
C3469 C3485 1.429 . S
C3469 H3491 0.950 . S
C3470 H3466 0.949 . S
C3470 C3478 1.574 . S
C3470 C3486 1.368 . S
H3471 C3479 0.950 . S
H3472 C3477 0.950 . S
H3473 C3478 0.949 . S
H3474 C3480 0.950 . S
H3475 C3481 0.950 . S
H3476 C3482 0.949 . S
C3477 H3472 0.950 . S
C3477 C3479 1.327 . S
C3477 C3483 1.429 . S
C3478 C3470 1.574 . S
C3478 H3473 0.949 . S
C3478 C3484 1.368 . S
C3479 C3463 1.349 . S
C3479 H3471 0.950 . S
C3479 C3477 1.327 . S
C3480 C3468 1.349 . S
C3480 H3474 0.950 . S
C3480 C3481 1.327 . S
C3481 H3475 0.950 . S
C3481 C3480 1.327 . S
C3481 C3485 1.429 . S
C3482 C3465 1.574 . S
C3482 H3476 0.949 . S
C3482 C3486 1.368 . S
C3483 C3464 1.429 . S
C3483 C3477 1.429 . S
C3483 C3484 1.523 . S
C3484 C3465 1.368 . S
C3484 C3478 1.368 . S
C3484 C3483 1.523 . S
C3485 C3469 1.429 . S
C3485 C3481 1.429 . S
C3485 C3486 1.523 . S
C3486 C3470 1.368 . S
C3486 C3482 1.368 . S
C3486 C3485 1.523 . S
H3487 C3462 0.950 . S
H3488 C3464 0.950 . S
H3489 C3465 0.949 . S
H3490 C3467 0.950 . S
H3491 C3469 0.950 . S
C3492 C3493 1.349 . S
C3492 C3494 1.327 . S
C3492 H3517 0.950 . S
C3493 C3492 1.349 . S
C3493 C3509 1.349 . S
C3494 C3492 1.327 . S
C3494 C3513 1.429 . S
C3494 H3518 0.950 . S
C3495 C3512 1.574 . S
C3495 C3514 1.368 . S
C3495 H3519 0.949 . S
H3496 C3500 0.949 . S
C3497 C3498 1.349 . S
C3497 C3499 1.327 . S
C3497 H3520 0.950 . S
C3498 C3497 1.349 . S
C3498 C3510 1.349 . S
C3499 C3497 1.327 . S
C3499 C3515 1.429 . S
C3499 H3521 0.950 . S
C3500 H3496 0.949 . S
C3500 C3508 1.574 . S
C3500 C3516 1.368 . S
H3501 C3509 0.950 . S
H3502 C3507 0.950 . S
H3503 C3508 0.949 . S
H3504 C3510 0.950 . S
H3505 C3511 0.950 . S
H3506 C3512 0.949 . S
C3507 H3502 0.950 . S
C3507 C3509 1.327 . S
C3507 C3513 1.429 . S
C3508 C3500 1.574 . S
C3508 H3503 0.949 . S
C3508 C3514 1.368 . S
C3509 C3493 1.349 . S
C3509 H3501 0.950 . S
C3509 C3507 1.327 . S
C3510 C3498 1.349 . S
C3510 H3504 0.950 . S
C3510 C3511 1.327 . S
C3511 H3505 0.950 . S
C3511 C3510 1.327 . S
C3511 C3515 1.429 . S
C3512 C3495 1.574 . S
C3512 H3506 0.949 . S
C3512 C3516 1.368 . S
C3513 C3494 1.429 . S
C3513 C3507 1.429 . S
C3513 C3514 1.523 . S
C3514 C3495 1.368 . S
C3514 C3508 1.368 . S
C3514 C3513 1.523 . S
C3515 C3499 1.429 . S
C3515 C3511 1.429 . S
C3515 C3516 1.523 . S
C3516 C3500 1.368 . S
C3516 C3512 1.368 . S
C3516 C3515 1.523 . S
H3517 C3492 0.950 . S
H3518 C3494 0.950 . S
H3519 C3495 0.949 . S
H3520 C3497 0.950 . S
H3521 C3499 0.950 . S
C3522 C3523 1.349 . S
C3522 C3524 1.327 . S
C3522 H3547 0.950 . S
C3523 C3522 1.349 . S
C3523 C3539 1.349 . S
C3524 C3522 1.327 . S
C3524 C3543 1.429 . S
C3524 H3548 0.950 . S
C3525 C3542 1.574 . S
C3525 C3544 1.368 . S
C3525 H3549 0.949 . S
H3526 C3530 0.949 . S
C3527 C3528 1.349 . S
C3527 C3529 1.327 . S
C3527 H3550 0.950 . S
C3528 C3527 1.349 . S
C3528 C3540 1.349 . S
C3529 C3527 1.327 . S
C3529 C3545 1.429 . S
C3529 H3551 0.950 . S
C3530 H3526 0.949 . S
C3530 C3538 1.574 . S
C3530 C3546 1.368 . S
H3531 C3539 0.950 . S
H3532 C3537 0.950 . S
H3533 C3538 0.949 . S
H3534 C3540 0.950 . S
H3535 C3541 0.950 . S
H3536 C3542 0.949 . S
C3537 H3532 0.950 . S
C3537 C3539 1.327 . S
C3537 C3543 1.429 . S
C3538 C3530 1.574 . S
C3538 H3533 0.949 . S
C3538 C3544 1.368 . S
C3539 C3523 1.349 . S
C3539 H3531 0.950 . S
C3539 C3537 1.327 . S
C3540 C3528 1.349 . S
C3540 H3534 0.950 . S
C3540 C3541 1.327 . S
C3541 H3535 0.950 . S
C3541 C3540 1.327 . S
C3541 C3545 1.429 . S
C3542 C3525 1.574 . S
C3542 H3536 0.949 . S
C3542 C3546 1.368 . S
C3543 C3524 1.429 . S
C3543 C3537 1.429 . S
C3543 C3544 1.523 . S
C3544 C3525 1.368 . S
C3544 C3538 1.368 . S
C3544 C3543 1.523 . S
C3545 C3529 1.429 . S
C3545 C3541 1.429 . S
C3545 C3546 1.523 . S
C3546 C3530 1.368 . S
C3546 C3542 1.368 . S
C3546 C3545 1.523 . S
H3547 C3522 0.950 . S
H3548 C3524 0.950 . S
H3549 C3525 0.949 . S
H3550 C3527 0.950 . S
H3551 C3529 0.950 . S
C673 C288 1.265 . S
C678 C8 1.270 . S
C703 C25 0.841 . S
C708 C249 0.842 . S
C733 C36 1.270 . S
C738 C260 1.265 . S
C763 C277 0.842 . S
C768 C53 0.842 . S
C793 C330 1.102 . S
C798 C67 1.111 . S
C823 C81 0.926 . S
C828 C305 0.926 . S
C853 C95 1.111 . S
C858 C316 1.102 . S
C883 C109 0.926 . S
C888 C235 0.926 . S
C913 C120 1.164 . S
C918 C218 1.169 . S
C943 C137 1.213 . S
C948 C176 1.203 . S
C973 C148 1.164 . S
C978 C190 1.169 . S
C1003 C204 1.203 . S
C1008 C165 1.213 . S
C1033 C347 1.043 . S
C1038 C624 1.044 . S
C1063 C585 0.717 . S
C1068 C361 0.717 . S
C1093 C375 1.043 . S
C1098 C596 1.044 . S
C1123 C613 0.717 . S
C1128 C389 0.717 . S
C1153 C400 1.036 . S
C1158 C666 1.040 . S
C1183 C641 0.811 . S
C1188 C417 0.811 . S
C1213 C428 1.036 . S
C1218 C652 1.040 . S
C1243 C571 0.811 . S
C1248 C445 0.811 . S
C1273 C456 1.046 . S
C1278 C557 1.048 . S
C1303 C512 1.043 . S
C1308 C470 1.039 . S
C1333 C529 1.048 . S
C1338 C484 1.046 . S
C1363 C540 1.043 . S
C1368 C498 1.039 . S
C1393 C372 0.731 . S
C1398 C11 0.731 . S
C1423 C22 0.693 . S
C1428 C386 0.693 . S
C1453 C39 0.731 . S
C1458 C344 0.731 . S
C1483 C50 0.693 . S
C1488 C358 0.693 . S
C1513 C64 0.737 . S
C1518 C431 0.736 . S
C1543 C442 0.693 . S
C1548 C78 0.693 . S
C1573 C403 0.736 . S
C1578 C92 0.737 . S
C1603 C414 0.693 . S
C1608 C106 0.693 . S
C1633 C515 0.530 . S
C1638 C123 0.533 . S
C1663 C134 0.768 . S
C1668 C526 0.769 . S
C1693 C543 0.530 . S
C1698 C151 0.533 . S
C1723 C162 0.768 . S
C1728 C554 0.769 . S
C1753 C179 0.525 . S
C1758 C459 0.522 . S
C1783 C193 0.703 . S
C1788 C473 0.702 . S
C1813 C487 0.522 . S
C1818 C207 0.525 . S
C1843 C501 0.702 . S
C1848 C221 0.703 . S
C1873 C232 0.703 . S
C1878 C610 0.703 . S
C1903 C246 0.689 . S
C1908 C638 0.689 . S
C1933 C655 0.525 . S
C1938 C263 0.529 . S
C1963 C568 0.689 . S
C1968 C274 0.689 . S
C1993 C291 0.529 . S
C1998 C669 0.525 . S
C2023 C582 0.703 . S
C2028 C302 0.703 . S
C2053 C319 0.533 . S
C2058 C599 0.532 . S
C2083 C333 0.533 . S
C2088 C627 0.532 . S
C2113 C405 1.742 . S
C2118 C7 1.774 . S
C2143 C413 1.658 . S
C2148 C27 1.662 . S
C2173 C433 1.742 . S
C2178 C35 1.774 . S
C2203 C55 1.662 . S
C2208 C441 1.658 . S
C2233 C343 1.761 . S
C2238 C69 1.748 . S
C2263 C357 1.617 . S
C2268 C83 1.621 . S
C2293 C97 1.748 . S
C2298 C371 1.761 . S
C2323 C385 1.617 . S
C2328 C111 1.621 . S
C2353 C119 1.762 . S
C2358 C545 1.741 . S
C2383 C139 1.737 . S
C2388 C553 1.752 . S
C2413 C517 1.741 . S
C2418 C147 1.762 . S
C2443 C167 1.736 . S
C2448 C525 1.752 . S
C2473 C489 1.653 . S
C2478 C175 1.676 . S
C2503 C189 1.777 . S
C2508 C503 1.752 . S
C2533 C203 1.676 . S
C2538 C461 1.653 . S
C2563 C217 1.777 . S
C2568 C475 1.752 . S
C2593 C637 1.596 . S
C2598 C237 1.599 . S
C2623 C251 1.680 . S
C2628 C609 1.674 . S
C2653 C259 1.692 . S
C2658 C629 1.666 . S
C2683 C279 1.680 . S
C2688 C581 1.674 . S
C2713 C601 1.667 . S
C2718 C287 1.692 . S
C2743 C567 1.596 . S
C2748 C307 1.599 . S
C2773 C671 1.735 . S
C2778 C315 1.754 . S
C2803 C329 1.754 . S
C2808 C657 1.735 . S
C2833 C223 1.566 . S
C2838 C13 1.578 . S
C2863 C21 1.564 . S
C2868 C181 1.587 . S
C2893 C195 1.566 . S
C2898 C41 1.578 . S
C2923 C209 1.587 . S
C2928 C49 1.564 . S
C2953 C133 1.627 . S
C2958 C63 1.627 . S
C2983 C77 1.457 . S
C2988 C153 1.461 . S
C3013 C91 1.627 . S
C3018 C161 1.627 . S
C3043 C125 1.461 . S
C3048 C105 1.457 . S
C3073 C231 1.500 . S
C3078 C293 1.511 . S
C3103 C335 1.537 . S
C3108 C245 1.523 . S
C3133 C301 1.500 . S
C3138 C265 1.511 . S
C3163 C273 1.523 . S
C3168 C321 1.537 . S
C3193 C559 1.416 . S
C3198 C349 1.403 . S
C3223 C511 1.477 . S
C3228 C363 1.509 . S
C3253 C377 1.403 . S
C3258 C531 1.416 . S
C3283 C539 1.477 . S
C3288 C391 1.509 . S
C3313 C469 1.472 . S
C3318 C399 1.470 . S
C3343 C419 1.474 . S
C3348 C483 1.453 . S
C3373 C427 1.470 . S
C3378 C497 1.472 . S
C3403 C447 1.475 . S
C3408 C455 1.453 . S
C3433 C573 1.461 . S
C3438 C623 1.443 . S
C3463 C665 1.490 . S
C3468 C587 1.527 . S
C3493 C643 1.461 . S
C3498 C595 1.443 . S
C3523 C651 1.489 . S
C3528 C615 1.527 . S
