# Generated by pormake.
# Topology mon, (4)-cn, num edge types: 1
# Building blocks:
#     Node 0, Type 0, BuildingBlock: TATPOV_clean_sbu_0, # of connection points: 4
#     Node 1, Type 0, BuildingBlock: TATPOV_clean_sbu_0, # of connection points: 4
#     Node 2, Type 0, BuildingBlock: TATPOV_clean_sbu_0, # of connection points: 4
#     Node 3, Type 0, BuildingBlock: TATPOV_clean_sbu_0, # of connection points: 4
#     Node 4, Type 0, BuildingBlock: TATPOV_clean_sbu_0, # of connection points: 4
#     Node 5, Type 0, BuildingBlock: TATPOV_clean_sbu_0, # of connection points: 4
#     Node 6, Type 0, BuildingBlock: TATPOV_clean_sbu_0, # of connection points: 4
#     Node 7, Type 0, BuildingBlock: TATPOV_clean_sbu_0, # of connection points: 4
#     Node 8, Type 0, BuildingBlock: TATPOV_clean_sbu_0, # of connection points: 4
#     Node 9, Type 0, BuildingBlock: TATPOV_clean_sbu_0, # of connection points: 4
#     Node 10, Type 0, BuildingBlock: TATPOV_clean_sbu_0, # of connection points: 4
#     Node 11, Type 0, BuildingBlock: TATPOV_clean_sbu_0, # of connection points: 4
#     Node 12, Type 0, BuildingBlock: TATPOV_clean_sbu_0, # of connection points: 4
#     Node 13, Type 0, BuildingBlock: TATPOV_clean_sbu_0, # of connection points: 4
#     Node 14, Type 0, BuildingBlock: TATPOV_clean_sbu_0, # of connection points: 4
#     Node 15, Type 0, BuildingBlock: TATPOV_clean_sbu_0, # of connection points: 4
#     Edge 16, Type (0, 0), BuildingBlock: TEMPAE_clean_linker_10, # of connection points: 2
#     Edge 17, Type (0, 0), BuildingBlock: TEMPAE_clean_linker_10, # of connection points: 2
#     Edge 18, Type (0, 0), BuildingBlock: TEMPAE_clean_linker_10, # of connection points: 2
#     Edge 19, Type (0, 0), BuildingBlock: TEMPAE_clean_linker_10, # of connection points: 2
#     Edge 20, Type (0, 0), BuildingBlock: TEMPAE_clean_linker_10, # of connection points: 2
#     Edge 21, Type (0, 0), BuildingBlock: TEMPAE_clean_linker_10, # of connection points: 2
#     Edge 22, Type (0, 0), BuildingBlock: TEMPAE_clean_linker_10, # of connection points: 2
#     Edge 23, Type (0, 0), BuildingBlock: TEMPAE_clean_linker_10, # of connection points: 2
#     Edge 24, Type (0, 0), BuildingBlock: TEMPAE_clean_linker_10, # of connection points: 2
#     Edge 25, Type (0, 0), BuildingBlock: TEMPAE_clean_linker_10, # of connection points: 2
#     Edge 26, Type (0, 0), BuildingBlock: TEMPAE_clean_linker_10, # of connection points: 2
#     Edge 27, Type (0, 0), BuildingBlock: TEMPAE_clean_linker_10, # of connection points: 2
#     Edge 28, Type (0, 0), BuildingBlock: TEMPAE_clean_linker_10, # of connection points: 2
#     Edge 29, Type (0, 0), BuildingBlock: TEMPAE_clean_linker_10, # of connection points: 2
#     Edge 30, Type (0, 0), BuildingBlock: TEMPAE_clean_linker_10, # of connection points: 2
#     Edge 31, Type (0, 0), BuildingBlock: TEMPAE_clean_linker_10, # of connection points: 2
#     Edge 32, Type (0, 0), BuildingBlock: TEMPAE_clean_linker_10, # of connection points: 2
#     Edge 33, Type (0, 0), BuildingBlock: TEMPAE_clean_linker_10, # of connection points: 2
#     Edge 34, Type (0, 0), BuildingBlock: TEMPAE_clean_linker_10, # of connection points: 2
#     Edge 35, Type (0, 0), BuildingBlock: TEMPAE_clean_linker_10, # of connection points: 2
#     Edge 36, Type (0, 0), BuildingBlock: TEMPAE_clean_linker_10, # of connection points: 2
#     Edge 37, Type (0, 0), BuildingBlock: TEMPAE_clean_linker_10, # of connection points: 2
#     Edge 38, Type (0, 0), BuildingBlock: TEMPAE_clean_linker_10, # of connection points: 2
#     Edge 39, Type (0, 0), BuildingBlock: TEMPAE_clean_linker_10, # of connection points: 2
#     Edge 40, Type (0, 0), BuildingBlock: TEMPAE_clean_linker_10, # of connection points: 2
#     Edge 41, Type (0, 0), BuildingBlock: TEMPAE_clean_linker_10, # of connection points: 2
#     Edge 42, Type (0, 0), BuildingBlock: TEMPAE_clean_linker_10, # of connection points: 2
#     Edge 43, Type (0, 0), BuildingBlock: TEMPAE_clean_linker_10, # of connection points: 2
#     Edge 44, Type (0, 0), BuildingBlock: TEMPAE_clean_linker_10, # of connection points: 2
#     Edge 45, Type (0, 0), BuildingBlock: TEMPAE_clean_linker_10, # of connection points: 2
#     Edge 46, Type (0, 0), BuildingBlock: TEMPAE_clean_linker_10, # of connection points: 2
#     Edge 47, Type (0, 0), BuildingBlock: TEMPAE_clean_linker_10, # of connection points: 2
# Relax obj value: 0.114
# Max RMSD: 0.120
# Mean RMSD: 0.120
data_MOF--net-mon--node1-TATPOV_clean_sbu_0--edge1-TEMPAE_clean_linker_10
_symmetry_space_group_name_H-M    P1
_symmetry_Int_Tables_number       1
_symmetry_cell_setting            triclinic
loop_
_symmetry_equiv_pos_as_xyz
'x, y, z'
_cell_length_a     33.824286
_cell_length_b     33.826901
_cell_length_c     85.614442
_cell_angle_alpha  90.025885
_cell_angle_beta   90.048934
_cell_angle_gamma 89.984139
loop_
_atom_site_label
_atom_site_type_symbol
_atom_site_fract_x
_atom_site_fract_y
_atom_site_fract_z
_atom_type_partial_charge
Zn0 Zn 0.00822 0.94627 0.55441 0.0
Zn1 Zn 0.01068 0.0209 0.55797 0.0
O2 O 0.0615 0.00248 0.56978 0.0
O3 O 0.05174 0.93821 0.56973 0.0
O4 O 0.01262 0.08079 0.55923 0.0
O5 O 0.02084 0.94696 0.53189 0.0
O6 O 0.01147 0.01114 0.53389 0.0
C7 C 0.07188 0.9678 0.574 0.0
C8 C 0.93793 0.97361 0.56832 0.0
O9 O 0.95807 0.00547 0.56922 0.0
O10 O 0.95196 0.94399 0.56122 0.0
C11 C 0.02047 0.09984 0.57168 0.0
O12 O 0.0272 0.08013 0.58463 0.0
C13 C 0.0177 0.98048 0.52554 0.0
Zn14 Zn 0.27806 0.76671 0.83047 0.0
Zn15 Zn 0.20337 0.76738 0.83472 0.0
O16 O 0.22202 0.81872 0.84648 0.0
O17 O 0.28641 0.81399 0.84355 0.0
O18 O 0.14314 0.7684 0.83635 0.0
O19 O 0.27692 0.7728 0.80765 0.0
O20 O 0.21245 0.7669 0.81045 0.0
C21 C 0.25682 0.83193 0.8491 0.0
C22 C 0.25388 0.69832 0.8469 0.0
O23 O 0.22028 0.71554 0.84628 0.0
O24 O 0.28333 0.71368 0.84013 0.0
C25 C 0.12439 0.78054 0.84833 0.0
O26 O 0.1445 0.79269 0.86056 0.0
C27 C 0.24287 0.77044 0.80171 0.0
Zn28 Zn 0.56267 0.08333 0.10742 0.0
Zn29 Zn 0.56163 0.00677 0.10974 0.0
O30 O 0.52512 0.02564 0.12821 0.0
O31 O 0.53025 0.09032 0.12627 0.0
O32 O 0.55888 0.94682 0.11054 0.0
O33 O 0.53689 0.08383 0.08648 0.0
O34 O 0.53961 0.01885 0.08761 0.0
C35 C 0.51666 0.06028 0.13318 0.0
C36 C 0.64019 0.05221 0.11136 0.0
O37 O 0.62203 0.01914 0.11176 0.0
O38 O 0.62102 0.08395 0.10948 0.0
C39 C 0.57662 0.92621 0.12082 0.0
O40 O 0.59728 0.94429 0.13169 0.0
C41 C 0.53086 0.05049 0.08026 0.0
Zn42 Zn 0.261 0.18839 0.37995 0.0
Zn43 Zn 0.33128 0.18359 0.36875 0.0
O44 O 0.32164 0.12803 0.37873 0.0
O45 O 0.26172 0.13387 0.38831 0.0
O46 O 0.38813 0.18181 0.36147 0.0
O47 O 0.24039 0.19873 0.35782 0.0
O48 O 0.30009 0.18696 0.34868 0.0
C49 C 0.292 0.11295 0.38576 0.0
C50 C 0.30173 0.2537 0.38959 0.0
O51 O 0.32594 0.23849 0.37986 0.0
O52 O 0.27202 0.23393 0.39392 0.0
C53 C 0.40191 0.21014 0.35337 0.0
O54 O 0.37892 0.24042 0.3502 0.0
C55 C 0.26372 0.19467 0.34634 0.0
Zn56 Zn 0.0297 0.99229 0.37742 0.0
Zn57 Zn 0.0173 0.92048 0.37809 0.0
O58 O 0.07667 0.92719 0.37131 0.0
O59 O 0.07831 0.98964 0.36461 0.0
O60 O 0.01001 0.86077 0.37819 0.0
O61 O 0.0347 0.99656 0.40053 0.0
O62 O 0.01065 0.9362 0.40137 0.0
C63 C 0.09539 0.95652 0.36555 0.0
C64 C 0.95952 0.97799 0.36175 0.0
O65 O 0.97152 0.94241 0.36362 0.0
O66 O 0.97912 0.00605 0.36762 0.0
C67 C 0.02539 0.83912 0.36765 0.0
O68 O 0.04483 0.85609 0.35619 0.0
C69 C 0.02173 0.96767 0.40835 0.0
Zn70 Zn 0.21345 0.77722 0.65475 0.0
Zn71 Zn 0.28851 0.76469 0.65241 0.0
O72 O 0.2805 0.81864 0.6407 0.0
O73 O 0.21756 0.83042 0.64534 0.0
O74 O 0.34838 0.75751 0.65278 0.0
O75 O 0.21041 0.77408 0.6776 0.0
O76 O 0.27476 0.76467 0.67634 0.0
C77 C 0.25032 0.84119 0.63971 0.0
C78 C 0.23036 0.70762 0.63681 0.0
O79 O 0.26623 0.71634 0.64 0.0
O80 O 0.20272 0.72962 0.64168 0.0
C81 C 0.37111 0.76836 0.64174 0.0
O82 O 0.35545 0.78356 0.62904 0.0
C83 C 0.24312 0.76871 0.68436 0.0
Zn84 Zn 0.4395 0.97895 0.94316 0.0
Zn85 Zn 0.4498 0.05153 0.93314 0.0
O86 O 0.39648 0.03342 0.9229 0.0
O87 O 0.38719 0.9742 0.93283 0.0
O88 O 0.4531 0.10948 0.92707 0.0
O89 O 0.44097 0.99361 0.96553 0.0
O90 O 0.45297 0.05425 0.95744 0.0
C91 C 0.37541 0.00227 0.92428 0.0
C92 C 0.50976 0.98841 0.92403 0.0
O93 O 0.49878 0.02448 0.92327 0.0
O94 O 0.48943 0.96375 0.93175 0.0
C95 C 0.48267 0.13094 0.93062 0.0
O96 O 0.51284 0.11466 0.93785 0.0
C97 C 0.44828 0.02942 0.96851 0.0
Zn98 Zn 0.34552 0.26645 0.22106 0.0
Zn99 Zn 0.28102 0.26868 0.2036 0.0
O100 O 0.30809 0.21676 0.19669 0.0
O101 O 0.35729 0.21111 0.21339 0.0
O102 O 0.23063 0.27228 0.19089 0.0
O103 O 0.31366 0.27496 0.24032 0.0
O104 O 0.25961 0.26777 0.22626 0.0
C105 C 0.33727 0.19724 0.20214 0.0
C106 C 0.34644 0.33175 0.20014 0.0
O107 O 0.31201 0.31874 0.19683 0.0
O108 O 0.36771 0.31355 0.20995 0.0
C109 C 0.22142 0.24955 0.17962 0.0
O110 O 0.24596 0.22138 0.17544 0.0
C111 C 0.27644 0.2724 0.23945 0.0
Zn112 Zn 0.80594 0.26494 0.10725 0.0
Zn113 Zn 0.87173 0.26512 0.12267 0.0
O114 O 0.86788 0.3221 0.11349 0.0
O115 O 0.81362 0.31973 0.09943 0.0
O116 O 0.92517 0.26331 0.13306 0.0
O117 O 0.77654 0.25554 0.12787 0.0
O118 O 0.83298 0.25987 0.14059 0.0
C119 C 0.84283 0.33907 0.10459 0.0
C120 C 0.84906 0.19863 0.099 0.0
O121 O 0.87062 0.21265 0.10991 0.0
O122 O 0.82023 0.21876 0.09398 0.0
C123 C 0.95599 0.27672 0.12644 0.0
O124 O 0.95282 0.29278 0.11252 0.0
C125 C 0.79558 0.2555 0.14064 0.0
Zn126 Zn 0.82386 0.7538 0.66647 0.0
Zn127 Zn 0.7499 0.75285 0.65868 0.0
O128 O 0.77144 0.69923 0.65024 0.0
O129 O 0.83101 0.69718 0.6605 0.0
O130 O 0.691 0.75021 0.65388 0.0
O131 O 0.81429 0.76871 0.68846 0.0
O132 O 0.7513 0.76003 0.68289 0.0
C133 C 0.80391 0.6809 0.6526 0.0
C134 C 0.80604 0.81295 0.64378 0.0
O135 O 0.7706 0.80109 0.64589 0.0
O136 O 0.83424 0.79616 0.65087 0.0
C137 C 0.66767 0.77758 0.65825 0.0
O138 O 0.68238 0.80824 0.66568 0.0
C139 C 0.77864 0.76749 0.69276 0.0
Zn140 Zn 0.80403 0.18561 0.26892 0.0
Zn141 Zn 0.73559 0.18861 0.28276 0.0
O142 O 0.76402 0.23852 0.29134 0.0
O143 O 0.81944 0.2384 0.27794 0.0
O144 O 0.68169 0.19014 0.29303 0.0
O145 O 0.77971 0.18168 0.24795 0.0
O146 O 0.72171 0.19138 0.25899 0.0
C147 C 0.797 0.25462 0.28789 0.0
C148 C 0.79366 0.11947 0.28874 0.0
O149 O 0.76004 0.13575 0.29099 0.0
O150 O 0.81856 0.13582 0.27983 0.0
C151 C 0.67712 0.19945 0.30732 0.0
O152 O 0.70838 0.2083 0.31574 0.0
C153 C 0.7428 0.18648 0.2468 0.0
Zn154 Zn 0.67208 0.78061 0.83204 0.0
Zn155 Zn 0.74382 0.77939 0.84288 0.0
O156 O 0.7205 0.72698 0.85169 0.0
O157 O 0.66275 0.72558 0.83983 0.0
O158 O 0.80233 0.77744 0.8487 0.0
O159 O 0.68615 0.78986 0.81006 0.0
O160 O 0.74722 0.78226 0.81849 0.0
C161 C 0.68795 0.70941 0.8487 0.0
C162 C 0.6854 0.84361 0.85359 0.0
O163 O 0.72034 0.82922 0.85419 0.0
O164 O 0.65939 0.82731 0.84514 0.0
C165 C 0.82575 0.80359 0.84333 0.0
O166 O 0.81096 0.83264 0.83498 0.0
C167 C 0.72271 0.78759 0.80733 0.0
Zn168 Zn 0.57038 0.47443 0.10457 0.0
Zn169 Zn 0.56508 0.54631 0.11215 0.0
O170 O 0.62474 0.53269 0.1165 0.0
O171 O 0.62305 0.46801 0.11421 0.0
O172 O 0.56149 0.60493 0.11708 0.0
O173 O 0.56614 0.48423 0.08174 0.0
O174 O 0.54929 0.54456 0.08871 0.0
C175 C 0.64185 0.49914 0.11755 0.0
C176 C 0.50875 0.4845 0.12617 0.0
O177 O 0.52323 0.51939 0.12674 0.0
O178 O 0.52274 0.4597 0.11661 0.0
C179 C 0.58454 0.62836 0.10985 0.0
O180 O 0.60991 0.61347 0.09983 0.0
C181 C 0.55353 0.51819 0.07818 0.0
Zn182 Zn 0.01934 0.5516 0.55327 0.0
Zn183 Zn 0.01898 0.47882 0.56303 0.0
O184 O 0.97231 0.50316 0.57556 0.0
O185 O 0.97765 0.56564 0.5688 0.0
O186 O 0.01733 0.42058 0.56868 0.0
O187 O 0.00305 0.5385 0.5316 0.0
O188 O 0.0111 0.47661 0.53892 0.0
C189 C 0.96092 0.53901 0.57679 0.0
C190 C 0.09253 0.53082 0.5676 0.0
O191 O 0.07355 0.49927 0.5709 0.0
O192 O 0.07662 0.55689 0.55906 0.0
C193 C 0.04571 0.39751 0.5652 0.0
O194 O 0.07739 0.41233 0.55853 0.0
C195 C 0.00352 0.50211 0.52834 0.0
Zn196 Zn 0.44649 0.58261 0.93886 0.0
Zn197 Zn 0.45552 0.50847 0.93371 0.0
O198 O 0.50123 0.5314 0.92012 0.0
O199 O 0.48777 0.59462 0.92293 0.0
O200 O 0.45993 0.44868 0.93219 0.0
O201 O 0.46238 0.5816 0.96104 0.0
O202 O 0.46405 0.51712 0.95764 0.0
C203 C 0.50858 0.56753 0.9169 0.0
C204 C 0.37712 0.55107 0.92586 0.0
O205 O 0.39955 0.52087 0.92451 0.0
O206 O 0.38967 0.58144 0.9329 0.0
C207 C 0.47061 0.42888 0.92027 0.0
O208 O 0.47992 0.44767 0.90736 0.0
C209 C 0.46746 0.54733 0.96649 0.0
Zn210 Zn 0.0104 0.38659 0.39004 0.0
Zn211 Zn 0.01447 0.45992 0.38041 0.0
O212 O 0.97297 0.43309 0.36536 0.0
O213 O 0.97122 0.37188 0.37401 0.0
O214 O 0.01338 0.51802 0.37438 0.0
O215 O 0.99253 0.40097 0.4115 0.0
O216 O 0.0002 0.46266 0.4039 0.0
C217 C 0.95954 0.3978 0.36445 0.0
C218 C 0.08873 0.40873 0.38004 0.0
O219 O 0.07298 0.44235 0.37737 0.0
O220 O 0.06801 0.38057 0.3853 0.0
C221 C 0.03547 0.54219 0.38172 0.0
O222 O 0.05947 0.52841 0.3925 0.0
C223 C 0.992 0.43753 0.41452 0.0
C224 C 0.03293 0.16481 0.58503 0.0
C225 C 0.023 0.14373 0.57145 0.0
C226 C 0.03637 0.20624 0.58486 0.0
C227 C 0.02968 0.22719 0.57078 0.0
C228 C 0.01926 0.20614 0.55708 0.0
C229 C 0.01608 0.16473 0.55757 0.0
C230 C 0.04757 0.22758 0.59971 0.0
C231 C 0.0118 0.22734 0.54184 0.0
C232 C 0.00583 0.33724 0.57192 0.0
C233 C 0.04212 0.35415 0.56761 0.0
C234 C 0.00148 0.29603 0.57322 0.0
C235 C 0.03426 0.27106 0.57026 0.0
C236 C 0.0712 0.288 0.56629 0.0
C237 C 0.07464 0.32926 0.56496 0.0
C238 C 0.96156 0.27915 0.57742 0.0
C239 C 0.10697 0.26247 0.56318 0.0
H240 H 0.03833 0.14892 0.59581 0.0
H241 H 0.00835 0.1488 0.54702 0.0
H242 H 0.07577 0.24374 0.59799 0.0
H243 H 0.02468 0.24984 0.60268 0.0
H244 H 0.05107 0.20709 0.60975 0.0
H245 H 0.00312 0.20677 0.53232 0.0
H246 H 0.98803 0.24961 0.54336 0.0
H247 H 0.03883 0.24344 0.53819 0.0
H248 H 0.9805 0.35617 0.57397 0.0
H249 H 0.10284 0.342 0.56169 0.0
H250 H 0.96417 0.25976 0.58782 0.0
H251 H 0.95045 0.2606 0.56766 0.0
H252 H 0.9394 0.30255 0.57991 0.0
H253 H 0.1127 0.24284 0.57331 0.0
H254 H 0.13396 0.28026 0.56088 0.0
H255 H 0.10134 0.24322 0.55292 0.0
C256 C 0.88624 0.76627 0.85217 0.0
C257 C 0.86935 0.80011 0.8454 0.0
C258 C 0.92757 0.76185 0.85324 0.0
C259 C 0.95268 0.79204 0.84748 0.0
C260 C 0.93577 0.82657 0.84093 0.0
C261 C 0.89444 0.83013 0.83994 0.0
C262 C 0.94439 0.72455 0.86028 0.0
C263 C 0.96138 0.85961 0.83475 0.0
C264 C 0.0599 0.79827 0.8611 0.0
C265 C 0.08037 0.78209 0.84834 0.0
C266 C 0.0184 0.80115 0.86108 0.0
C267 C 0.99665 0.7874 0.84802 0.0
C268 C 0.01707 0.77045 0.83521 0.0
C269 C 0.0586 0.76807 0.83551 0.0
C270 C 0.99786 0.81954 0.87495 0.0
C271 C 0.99506 0.7553 0.82108 0.0
H272 H 0.86719 0.74284 0.85639 0.0
H273 H 0.88179 0.85645 0.83473 0.0
H274 H 0.96235 0.70868 0.85143 0.0
H275 H 0.96433 0.73199 0.87014 0.0
H276 H 0.92096 0.7043 0.86458 0.0
H277 H 0.94368 0.88502 0.83041 0.0
H278 H 0.9816 0.87029 0.84405 0.0
H279 H 0.98004 0.8485 0.82504 0.0
H280 H 0.07633 0.8092 0.87108 0.0
H281 H 0.07403 0.75542 0.82561 0.0
H282 H 0.97558 0.79878 0.87975 0.0
H283 H 0.98183 0.84656 0.87122 0.0
H284 H 0.01886 0.82763 0.88441 0.0
H285 H 0.97274 0.73308 0.82467 0.0
H286 H 0.01511 0.74161 0.81234 0.0
H287 H 0.97892 0.77998 0.81539 0.0
C288 C 0.55351 0.68861 0.12199 0.0
C289 C 0.58251 0.67182 0.11232 0.0
C290 C 0.55099 0.72983 0.12402 0.0
C291 C 0.57817 0.75486 0.11625 0.0
C292 C 0.60768 0.73804 0.10659 0.0
C293 C 0.60944 0.69683 0.10473 0.0
C294 C 0.51905 0.74662 0.13439 0.0
C295 C 0.63734 0.76362 0.09813 0.0
C296 C 0.55321 0.8629 0.10858 0.0
C297 C 0.57534 0.88229 0.12015 0.0
C298 C 0.55311 0.82144 0.10741 0.0
C299 C 0.57575 0.7987 0.11805 0.0
C300 C 0.59753 0.81803 0.12994 0.0
C301 C 0.59702 0.85953 0.13087 0.0
C302 C 0.52939 0.802 0.09458 0.0
C303 C 0.62209 0.7949 0.1415 0.0
H304 H 0.53253 0.66957 0.12789 0.0
H305 H 0.63202 0.68423 0.09725 0.0
H306 H 0.5325 0.76455 0.14386 0.0
H307 H 0.49969 0.7666 0.12752 0.0
H308 H 0.50047 0.7232 0.13975 0.0
H309 H 0.65878 0.74593 0.09122 0.0
H310 H 0.62175 0.78418 0.09012 0.0
H311 H 0.65399 0.78192 0.10664 0.0
H312 H 0.53624 0.88014 0.10027 0.0
H313 H 0.61417 0.87415 0.13987 0.0
H314 H 0.50894 0.77976 0.09961 0.0
H315 H 0.54953 0.78611 0.08651 0.0
H316 H 0.51185 0.82368 0.08773 0.0
H317 H 0.60351 0.77251 0.14747 0.0
H318 H 0.63591 0.81418 0.15048 0.0
H319 H 0.64584 0.77873 0.13525 0.0
C320 C 0.60391 0.18822 0.30574 0.0
C321 C 0.63701 0.20058 0.31435 0.0
C322 C 0.56578 0.18933 0.31223 0.0
C323 C 0.56053 0.20333 0.32768 0.0
C324 C 0.5938 0.2158 0.33644 0.0
C325 C 0.63162 0.21418 0.32969 0.0
C326 C 0.53109 0.17562 0.30253 0.0
C327 C 0.5894 0.23112 0.35292 0.0
C328 C 0.45845 0.24093 0.33892 0.0
C329 C 0.44287 0.20864 0.34717 0.0
C330 C 0.49679 0.23972 0.33266 0.0
C331 C 0.52015 0.20532 0.3346 0.0
C332 C 0.50473 0.17272 0.34299 0.0
C333 C 0.46633 0.1748 0.34921 0.0
C334 C 0.51222 0.27519 0.32386 0.0
C335 C 0.52866 0.13548 0.34527 0.0
H336 H 0.60774 0.17758 0.2939 0.0
H337 H 0.65696 0.22386 0.33643 0.0
H338 H 0.51537 0.15133 0.30863 0.0
H339 H 0.50969 0.20018 0.30103 0.0
H340 H 0.54021 0.16499 0.29079 0.0
H341 H 0.61822 0.23948 0.3582 0.0
H342 H 0.56974 0.25738 0.353 0.0
H343 H 0.57533 0.2083 0.36038 0.0
H344 H 0.44063 0.26724 0.33731 0.0
H345 H 0.45456 0.14969 0.35553 0.0
H346 H 0.51922 0.26674 0.31165 0.0
H347 H 0.54006 0.28581 0.32929 0.0
H348 H 0.49066 0.29996 0.32364 0.0
H349 H 0.53629 0.12253 0.33376 0.0
H350 H 0.51257 0.11291 0.35222 0.0
H351 H 0.55686 0.1425 0.35129 0.0
C352 C 0.00222 0.77673 0.3807 0.0
C353 C 0.02377 0.79527 0.36877 0.0
C354 C 0.00233 0.73535 0.38234 0.0
C355 C 0.02472 0.71188 0.37186 0.0
C356 C 0.04588 0.73037 0.35962 0.0
C357 C 0.04504 0.77175 0.35819 0.0
C358 C 0.97914 0.71678 0.39549 0.0
C359 C 0.07026 0.7065 0.34824 0.0
C360 C 0.05987 0.61124 0.38608 0.0
C361 C 0.03315 0.58545 0.37876 0.0
C362 C 0.05753 0.65232 0.38386 0.0
C363 C 0.02756 0.66821 0.37415 0.0
C364 C 0.00056 0.64237 0.36667 0.0
C365 C 0.00376 0.60131 0.36901 0.0
C366 C 0.08711 0.67876 0.39197 0.0
C367 C 0.9681 0.65815 0.35629 0.0
H368 H 0.98557 0.79457 0.3889 0.0
H369 H 0.0618 0.78571 0.34893 0.0
H370 H 0.95884 0.69389 0.39082 0.0
H371 H 0.99966 0.70185 0.40371 0.0
H372 H 0.96153 0.73887 0.40211 0.0
H373 H 0.08366 0.72516 0.33898 0.0
H374 H 0.09433 0.69103 0.35459 0.0
H375 H 0.05169 0.68351 0.34262 0.0
H376 H 0.08273 0.59935 0.39361 0.0
H377 H 0.98288 0.58167 0.36334 0.0
H378 H 0.07151 0.69968 0.39982 0.0
H379 H 0.10335 0.69666 0.38322 0.0
H380 H 0.10891 0.66176 0.39898 0.0
H381 H 0.94884 0.67847 0.36304 0.0
H382 H 0.94952 0.6342 0.35129 0.0
H383 H 0.98104 0.67549 0.34656 0.0
C384 C 0.43187 0.75103 0.65726 0.0
C385 C 0.41485 0.76631 0.64357 0.0
C386 C 0.4731 0.75102 0.65946 0.0
C387 C 0.49804 0.76675 0.64772 0.0
C388 C 0.48111 0.78144 0.63374 0.0
C389 C 0.43981 0.78101 0.63183 0.0
C390 C 0.48993 0.73493 0.67451 0.0
C391 C 0.50659 0.79847 0.62093 0.0
C392 C 0.59914 0.80564 0.65989 0.0
C393 C 0.62436 0.77475 0.65534 0.0
C394 C 0.5581 0.80338 0.65746 0.0
C395 C 0.54166 0.76936 0.65032 0.0
C396 C 0.56692 0.73808 0.64566 0.0
C397 C 0.60793 0.74116 0.64821 0.0
C398 C 0.5323 0.83747 0.66255 0.0
C399 C 0.55059 0.70129 0.63804 0.0
H400 H 0.41293 0.73952 0.66639 0.0
H401 H 0.42707 0.79284 0.62119 0.0
H402 H 0.51229 0.71181 0.67197 0.0
H403 H 0.50516 0.75891 0.68099 0.0
H404 H 0.46677 0.72207 0.68217 0.0
H405 H 0.48905 0.80719 0.61051 0.0
H406 H 0.52252 0.82489 0.62534 0.0
H407 H 0.52925 0.77662 0.61729 0.0
H408 H 0.61144 0.83174 0.6654 0.0
H409 H 0.62709 0.7171 0.64467 0.0
H410 H 0.51016 0.82708 0.67118 0.0
H411 H 0.51576 0.84934 0.65239 0.0
H412 H 0.54965 0.86188 0.66789 0.0
H413 H 0.52896 0.68688 0.64594 0.0
H414 H 0.57411 0.6796 0.63511 0.0
H415 H 0.53456 0.70924 0.62717 0.0
C416 C 0.4621 0.36507 0.93482 0.0
C417 C 0.47268 0.38498 0.92106 0.0
C418 C 0.464 0.32365 0.93582 0.0
C419 C 0.47687 0.30141 0.92276 0.0
C420 C 0.48757 0.32127 0.90882 0.0
C421 C 0.48533 0.36277 0.90814 0.0
C422 C 0.45226 0.30368 0.95089 0.0
C423 C 0.50152 0.29865 0.89466 0.0
C424 C 0.51508 0.19766 0.93118 0.0
C425 C 0.48201 0.17425 0.92763 0.0
C426 C 0.51413 0.23894 0.92929 0.0
C427 C 0.47921 0.2574 0.92378 0.0
C428 C 0.44601 0.23387 0.91985 0.0
C429 C 0.44783 0.19263 0.92179 0.0
C430 C 0.55026 0.26289 0.93351 0.0
C431 C 0.4082 0.25237 0.91398 0.0
H432 H 0.45227 0.38185 0.94488 0.0
H433 H 0.4936 0.37781 0.89745 0.0
H434 H 0.42776 0.28257 0.94871 0.0
H435 H 0.47753 0.28641 0.95556 0.0
H436 H 0.44264 0.32516 0.95995 0.0
H437 H 0.50869 0.31843 0.8847 0.0
H438 H 0.52822 0.28115 0.89764 0.0
H439 H 0.47839 0.27745 0.89087 0.0
H440 H 0.54168 0.18381 0.93563 0.0
H441 H 0.42211 0.17486 0.919 0.0
H442 H 0.54329 0.28293 0.94339 0.0
H443 H 0.5592 0.2817 0.9235 0.0
H444 H 0.57571 0.24396 0.93689 0.0
H445 H 0.39567 0.27202 0.9231 0.0
H446 H 0.38562 0.2299 0.91081 0.0
H447 H 0.41429 0.27095 0.90358 0.0
C448 C 0.17104 0.22712 0.16006 0.0
C449 C 0.18298 0.25436 0.17149 0.0
C450 C 0.13433 0.23083 0.15253 0.0
C451 C 0.10902 0.26266 0.15646 0.0
C452 C 0.12105 0.29048 0.16786 0.0
C453 C 0.15782 0.28595 0.17527 0.0
C454 C 0.12245 0.20046 0.14047 0.0
C455 C 0.09496 0.32493 0.17231 0.0
C456 C 0.02853 0.2914 0.12758 0.0
C457 C 0.99506 0.27354 0.13419 0.0
C458 C 0.06578 0.28826 0.13474 0.0
C459 C 0.06971 0.26654 0.14879 0.0
C460 C 0.03605 0.24844 0.15552 0.0
C461 C 0.99913 0.25227 0.14817 0.0
C462 C 0.10095 0.30819 0.12727 0.0
C463 C 0.03909 0.22485 0.17044 0.0
H464 H 0.19023 0.2026 0.15707 0.0
H465 H 0.16681 0.30721 0.18405 0.0
H466 H 0.09482 0.18549 0.14416 0.0
H467 H 0.1163 0.21516 0.12914 0.0
H468 H 0.14566 0.17769 0.13863 0.0
H469 H 0.10899 0.34442 0.18116 0.0
H470 H 0.08794 0.34283 0.16181 0.0
H471 H 0.06653 0.31391 0.17707 0.0
H472 H 0.02566 0.30796 0.11681 0.0
H473 H 0.97347 0.23827 0.15335 0.0
H474 H 0.12384 0.28587 0.12438 0.0
H475 H 0.11445 0.32941 0.13559 0.0
H476 H 0.09287 0.32431 0.11642 0.0
H477 H 0.06022 0.20007 0.16888 0.0
H478 H 0.01013 0.21253 0.17414 0.0
H479 H 0.05072 0.24378 0.17998 0.0
C480 C 0.99401 0.9481 0.43432 0.0
C481 C 0.02031 0.97097 0.42552 0.0
C482 C 0.99233 0.95203 0.45064 0.0
C483 C 0.01826 0.97873 0.45825 0.0
C484 C 0.04494 0.00175 0.4494 0.0
C485 C 0.04535 0.99788 0.43313 0.0
C486 C 0.96307 0.92746 0.45973 0.0
C487 C 0.07374 0.02975 0.45713 0.0
C488 C 0.99727 0.01021 0.50005 0.0
C489 C 0.02013 0.98292 0.5084 0.0
C490 C 0.99617 0.00918 0.48365 0.0
C491 C 0.01924 0.98084 0.47555 0.0
C492 C 0.04351 0.95429 0.48397 0.0
C493 C 0.0433 0.95537 0.5003 0.0
C494 C 0.96952 0.03754 0.47502 0.0
C495 C 0.06938 0.9244 0.47574 0.0
H496 H 0.97441 0.92755 0.42844 0.0
H497 H 0.06595 0.01544 0.42636 0.0
H498 H 0.97909 0.90665 0.4675 0.0
H499 H 0.94475 0.94681 0.4673 0.0
H500 H 0.9432 0.91014 0.45198 0.0
H501 H 0.09195 0.04618 0.44851 0.0
H502 H 0.05762 0.05142 0.46448 0.0
H503 H 0.0938 0.01297 0.46496 0.0
H504 H 0.97907 0.03124 0.50635 0.0
H505 H 0.0612 0.93441 0.50678 0.0
H506 H 0.94727 0.02072 0.46819 0.0
H507 H 0.98697 0.05528 0.46659 0.0
H508 H 0.95379 0.05801 0.48304 0.0
H509 H 0.05074 0.90351 0.46899 0.0
H510 H 0.08788 0.90714 0.48402 0.0
H511 H 0.08913 0.93955 0.46731 0.0
C512 C 0.21378 0.74622 0.77663 0.0
C513 C 0.23955 0.77156 0.78459 0.0
C514 C 0.21443 0.74406 0.76024 0.0
C515 C 0.24064 0.7687 0.75175 0.0
C516 C 0.26571 0.79526 0.75978 0.0
C517 C 0.26524 0.79594 0.77612 0.0
C518 C 0.18782 0.71488 0.75202 0.0
C519 C 0.29309 0.82294 0.75115 0.0
C520 C 0.27036 0.74519 0.70994 0.0
C521 C 0.24381 0.7688 0.70156 0.0
C522 C 0.26896 0.74394 0.72634 0.0
C523 C 0.24117 0.76776 0.73442 0.0
C524 C 0.21487 0.79218 0.72596 0.0
C525 C 0.21619 0.792 0.70964 0.0
C526 C 0.29695 0.71699 0.73502 0.0
C527 C 0.18572 0.81896 0.73414 0.0
H528 H 0.19434 0.72701 0.78324 0.0
H529 H 0.28509 0.81563 0.78233 0.0
H530 H 0.16757 0.73065 0.74396 0.0
H531 H 0.20588 0.69437 0.74485 0.0
H532 H 0.16984 0.69724 0.76034 0.0
H533 H 0.30974 0.84268 0.75917 0.0
H534 H 0.31461 0.8057 0.74414 0.0
H535 H 0.27589 0.84151 0.7429 0.0
H536 H 0.29145 0.72702 0.70367 0.0
H537 H 0.19584 0.81056 0.70315 0.0
H538 H 0.28001 0.69691 0.74278 0.0
H539 H 0.31687 0.73473 0.74257 0.0
H540 H 0.31531 0.69887 0.72699 0.0
H541 H 0.16569 0.80128 0.74163 0.0
H542 H 0.1675 0.83632 0.7258 0.0
H543 H 0.20176 0.83984 0.74189 0.0
C544 C 0.52509 0.01793 0.0542 0.0
C545 C 0.51484 0.04891 0.06425 0.0
C546 C 0.51257 0.01798 0.03857 0.0
C547 C 0.48835 0.04921 0.03306 0.0
C548 C 0.47696 0.07995 0.04331 0.0
C549 C 0.49081 0.07971 0.05874 0.0
C550 C 0.52585 0.98501 0.0279 0.0
C551 C 0.45017 0.11303 0.03797 0.0
C552 C 0.48646 0.06452 0.98915 0.0
C553 C 0.45432 0.04079 0.98491 0.0
C554 C 0.49732 0.06857 0.00491 0.0
C555 C 0.47472 0.0493 0.01658 0.0
C556 C 0.44052 0.02773 0.01235 0.0
C557 C 0.4311 0.02322 -0.00347 0.0
C558 C 0.53436 0.09127 0.00896 0.0
C559 C 0.41496 0.00784 0.02448 0.0
H560 H 0.54395 0.99431 0.05842 0.0
H561 H 0.48264 0.10358 0.06656 0.0
H562 H 0.49979 0.96876 0.02335 0.0
H563 H 0.54173 0.9975 0.01769 0.0
H564 H 0.54564 0.96363 0.03389 0.0
H565 H 0.443 0.13396 0.04756 0.0
H566 H 0.46441 0.12975 0.02836 0.0
H567 H 0.42218 0.10066 0.0333 0.0
H568 H 0.50463 0.07769 0.98011 0.0
H569 H 0.40612 0.00498 0.99318 0.0
H570 H 0.55692 0.07059 0.01364 0.0
H571 H 0.52818 0.11338 0.01821 0.0
H572 H 0.54702 0.10675 -0.00133 0.0
H573 H 0.4313 0.98273 0.02975 0.0
H574 H 0.38695 0.99638 0.01943 0.0
H575 H 0.40772 0.02879 0.03403 0.0
C576 C 0.22496 0.24125 0.25622 0.0
C577 C 0.2541 0.27019 0.25414 0.0
C578 C 0.21346 0.22985 0.27134 0.0
C579 C 0.23164 0.24799 0.28441 0.0
C580 C 0.25666 0.28105 0.2822 0.0
C581 C 0.26781 0.29158 0.26705 0.0
C582 C 0.18557 0.19543 0.27326 0.0
C583 C 0.27585 0.30205 0.29581 0.0
C584 C 0.21663 0.22558 0.32733 0.0
C585 C 0.24994 0.20195 0.33025 0.0
C586 C 0.20786 0.23841 0.3121 0.0
C587 C 0.23309 0.22729 0.29967 0.0
C588 C 0.26462 0.2006 0.30245 0.0
C589 C 0.27268 0.18837 0.31771 0.0
C590 C 0.17353 0.26619 0.30962 0.0
C591 C 0.29201 0.18743 0.2895 0.0
H592 H 0.21411 0.22489 0.2462 0.0
H593 H 0.28983 0.31449 0.26536 0.0
H594 H 0.20296 0.16795 0.27497 0.0
H595 H 0.16641 0.19944 0.28365 0.0
H596 H 0.16664 0.19148 0.26276 0.0
H597 H 0.28938 0.33058 0.29225 0.0
H598 H 0.25399 0.30784 0.30517 0.0
H599 H 0.29943 0.28299 0.30078 0.0
H600 H 0.19877 0.23599 0.337 0.0
H601 H 0.298 0.16949 0.3199 0.0
H602 H 0.15985 0.26195 0.29796 0.0
H603 H 0.18422 0.29713 0.31035 0.0
H604 H 0.15055 0.26209 0.31874 0.0
H605 H 0.27478 0.17625 0.2794 0.0
H606 H 0.31266 0.16381 0.29336 0.0
H607 H 0.30977 0.21298 0.2854 0.0
C608 C 0.79495 0.25523 0.1697 0.0
C609 C 0.77489 0.24867 0.15562 0.0
C610 C 0.77785 0.24522 0.18403 0.0
C611 C 0.73961 0.22809 0.18434 0.0
C612 C 0.71821 0.22338 0.17025 0.0
C613 C 0.73618 0.23368 0.15601 0.0
C614 C 0.80174 0.25114 0.19878 0.0
C615 C 0.67733 0.20558 0.17004 0.0
C616 C 0.73901 0.16322 0.21961 0.0
C617 C 0.72638 0.19012 0.23098 0.0
C618 C 0.73818 0.17322 0.20376 0.0
C619 C 0.72503 0.21131 0.19931 0.0
C620 C 0.707 0.23623 0.21055 0.0
C621 C 0.70788 0.22527 0.22639 0.0
C622 C 0.7566 0.14521 0.19212 0.0
C623 C 0.69142 0.27649 0.20617 0.0
H624 H 0.82463 0.26732 0.16952 0.0
H625 H 0.72041 0.2286 0.14516 0.0
H626 H 0.78439 0.26816 0.20748 0.0
H627 H 0.80883 0.22201 0.20405 0.0
H628 H 0.82991 0.26707 0.19659 0.0
H629 H 0.66072 0.21445 0.1594 0.0
H630 H 0.67981 0.17288 0.17003 0.0
H631 H 0.66009 0.21436 0.1805 0.0
H632 H 0.75305 0.13588 0.22323 0.0
H633 H 0.69814 0.24608 0.23523 0.0
H634 H 0.78683 0.15561 0.18919 0.0
H635 H 0.73921 0.14443 0.18114 0.0
H636 H 0.75885 0.11469 0.19683 0.0
H637 H 0.71649 0.29753 0.20529 0.0
H638 H 0.67043 0.2879 0.21507 0.0
H639 H 0.67642 0.27564 0.19464 0.0
C640 C 0.79413 0.79882 0.71826 0.0
C641 C 0.76965 0.77401 0.70938 0.0
C642 C 0.7882 0.80347 0.73433 0.0
C643 C 0.75773 0.78193 0.74174 0.0
C644 C 0.73273 0.75699 0.73282 0.0
C645 C 0.73865 0.75376 0.71664 0.0
C646 C 0.8146 0.8313 0.74338 0.0
C647 C 0.70032 0.73308 0.74041 0.0
C648 C 0.76477 0.76363 0.78541 0.0
C649 C 0.73587 0.78959 0.79101 0.0
C650 C 0.77256 0.76103 0.76933 0.0
C651 C 0.7517 0.78582 0.75882 0.0
C652 C 0.72413 0.81364 0.76459 0.0
C653 C 0.71612 0.81475 0.78062 0.0
C654 C 0.80171 0.73057 0.76354 0.0
C655 C 0.7023 0.84146 0.75381 0.0
H656 H 0.81797 0.81472 0.71259 0.0
H657 H 0.72 0.7343 0.70978 0.0
H658 H 0.79641 0.85358 0.74962 0.0
H659 H 0.83144 0.81466 0.75235 0.0
H660 H 0.83594 0.84702 0.73572 0.0
H661 H 0.6841 0.7144 0.73187 0.0
H662 H 0.7131 0.71368 0.74957 0.0
H663 H 0.67888 0.75304 0.74622 0.0
H664 H 0.77966 0.74391 0.79348 0.0
H665 H 0.69389 0.83498 0.78503 0.0
H666 H 0.82484 0.74487 0.75631 0.0
H667 H 0.78622 0.70887 0.75597 0.0
H668 H 0.81627 0.71439 0.77325 0.0
H669 H 0.72351 0.85744 0.74622 0.0
H670 H 0.68437 0.86351 0.76032 0.0
H671 H 0.68231 0.82438 0.74607 0.0
C672 C 0.50232 0.57301 0.98987 0.0
C673 C 0.47948 0.54319 0.98294 0.0
C674 C 0.51465 0.57007 0.00543 0.0
C675 C 0.50286 0.53704 0.01439 0.0
C676 C 0.47924 0.50708 0.00754 0.0
C677 C 0.46833 0.5102 0.99175 0.0
C678 C 0.5409 0.60195 0.01218 0.0
C679 C 0.46538 0.47189 0.01689 0.0
C680 C 0.56356 0.50828 0.04977 0.0
C681 C 0.54212 0.52591 0.0619 0.0
C682 C 0.55146 0.5123 0.03421 0.0
C683 C 0.51636 0.53338 0.03081 0.0
C684 C 0.49464 0.55138 0.04304 0.0
C685 C 0.50819 0.54795 0.05848 0.0
C686 C 0.57615 0.49389 0.02143 0.0
C687 C 0.4566 0.57332 0.03985 0.0
H688 H 0.51131 0.59837 0.983 0.0
H689 H 0.45046 0.4873 0.98639 0.0
H690 H 0.52644 0.61579 0.02243 0.0
H691 H 0.56908 0.58877 0.0163 0.0
H692 H 0.5478 0.62546 0.00354 0.0
H693 H 0.44547 0.45231 0.01005 0.0
H694 H 0.49119 0.45431 0.02086 0.0
H695 H 0.44949 0.48205 0.02749 0.0
H696 H 0.58991 0.49133 0.05247 0.0
H697 H 0.49139 0.56109 0.06793 0.0
H698 H 0.58446 0.51665 0.01271 0.0
H699 H 0.55873 0.47098 0.01522 0.0
H700 H 0.60358 0.48001 0.02602 0.0
H701 H 0.46215 0.5984 0.03181 0.0
H702 H 0.44287 0.58497 0.0507 0.0
H703 H 0.4352 0.55335 0.03399 0.0
C704 C 0.01815 0.45962 0.50528 0.0
C705 C 0.99602 0.48995 0.51212 0.0
C706 C 0.01454 0.45137 0.48927 0.0
C707 C 0.9872 0.47317 0.48013 0.0
C708 C 0.96327 0.50236 0.48722 0.0
C709 C 0.96848 0.51089 0.5031 0.0
C710 C 0.04117 0.4206 0.48202 0.0
C711 C 0.93284 0.5252 0.47798 0.0
C712 C 0.00835 0.48179 0.43678 0.0
C713 C 0.98626 0.45025 0.43079 0.0
C714 C 0.00852 0.48993 0.45284 0.0
C715 C 0.98504 0.46669 0.463 0.0
C716 C 0.96081 0.43636 0.45685 0.0
C717 C 0.96224 0.42804 0.44082 0.0
C718 C 0.03534 0.52204 0.45902 0.0
C719 C 0.93429 0.41196 0.46725 0.0
H720 H 0.03963 0.4437 0.51227 0.0
H721 H 0.95113 0.53416 0.50848 0.0
H722 H 0.02326 0.3977 0.47603 0.0
H723 H 0.06023 0.43465 0.47305 0.0
H724 H 0.0604 0.4059 0.49079 0.0
H725 H 0.91403 0.54407 0.48557 0.0
H726 H 0.94782 0.54442 0.46932 0.0
H727 H 0.91353 0.50459 0.47138 0.0
H728 H 0.02728 0.49866 0.42904 0.0
H729 H 0.94502 0.40372 0.43614 0.0
H730 H 0.05757 0.50894 0.46703 0.0
H731 H 0.01806 0.54388 0.46584 0.0
H732 H 0.05115 0.53786 0.44952 0.0
H733 H 0.95254 0.39329 0.47508 0.0
H734 H 0.91431 0.39241 0.46043 0.0
H735 H 0.91607 0.43152 0.47476 0.0
C736 C 0.23047 0.91063 0.63648 0.0
C737 C 0.25027 0.87768 0.63039 0.0
C738 C 0.21117 0.93734 0.62656 0.0
C739 C 0.21141 0.93023 0.61028 0.0
C740 C 0.23771 0.90161 0.60408 0.0
C741 C 0.25693 0.87531 0.61429 0.0
C742 C 0.18493 0.96856 0.63368 0.0
C743 C 0.24039 0.89448 0.58673 0.0
C744 C 0.10922 0.9258 0.59251 0.0
C745 C 0.1072 0.96081 0.58383 0.0
C746 C 0.14289 0.91601 0.60112 0.0
C747 C 0.17593 0.94179 0.60103 0.0
C748 C 0.17401 0.97769 0.59252 0.0
C749 C 0.13945 0.98689 0.58402 0.0
C750 C 0.14295 0.87767 0.61023 0.0
C751 C 0.20864 0.00571 0.5919 0.0
H752 H 0.22581 0.9127 0.64899 0.0
H753 H 0.27252 0.84996 0.60957 0.0
H754 H 0.18417 0.99554 0.62633 0.0
H755 H 0.15431 0.95694 0.63454 0.0
H756 H 0.195 0.97668 0.64561 0.0
H757 H 0.26813 0.87876 0.58362 0.0
H758 H 0.21502 0.87595 0.58297 0.0
H759 H 0.23898 0.92278 0.58021 0.0
H760 H 0.08425 0.9057 0.59255 0.0
H761 H 0.13814 0.01384 0.57719 0.0
H762 H 0.1484 0.88364 0.62279 0.0
H763 H 0.16699 0.85812 0.60599 0.0
H764 H 0.11456 0.86137 0.60918 0.0
H765 H 0.22438 0.00712 0.60326 0.0
H766 H 0.19924 0.03602 0.58855 0.0
H767 H 0.22997 0.99501 0.58301 0.0
C768 C 0.30251 0.87204 0.86525 0.0
C769 C 0.26422 0.86651 0.85934 0.0
C770 C 0.31132 0.90289 0.87549 0.0
C771 C 0.2812 0.92977 0.87987 0.0
C772 C 0.2426 0.92535 0.87361 0.0
C773 C 0.23443 0.89345 0.86346 0.0
C774 C 0.35284 0.9057 0.88201 0.0
C775 C 0.2102 0.95438 0.87747 0.0
C776 C 0.31326 0.96581 0.91892 0.0
C777 C 0.34013 0.99524 0.91442 0.0
C778 C 0.28846 0.94771 0.90795 0.0
C779 C 0.29058 0.95958 0.89213 0.0
C780 C 0.3125 0.99382 0.88813 0.0
C781 C 0.33746 0.01123 0.89936 0.0
C782 C 0.26497 0.9119 0.91288 0.0
C783 C 0.31375 0.00874 0.87156 0.0
H784 H 0.3258 0.85141 0.8622 0.0
H785 H 0.20491 0.88967 0.85876 0.0
H786 H 0.36605 0.93472 0.87902 0.0
H787 H 0.35213 0.90335 0.89494 0.0
H788 H 0.37261 0.88214 0.87746 0.0
H789 H 0.18069 0.94354 0.8737 0.0
H790 H 0.20933 0.96071 0.89018 0.0
H791 H 0.21624 0.98274 0.87142 0.0
H792 H 0.31437 0.95415 0.93072 0.0
H793 H 0.35758 0.03455 0.89587 0.0
H794 H 0.28142 0.88476 0.90957 0.0
H795 H 0.23587 0.91101 0.90693 0.0
H796 H 0.26009 0.91131 0.92571 0.0
H797 H 0.33544 0.99108 0.86478 0.0
H798 H 0.32295 0.04024 0.87108 0.0
H799 H 0.28446 0.00553 0.86585 0.0
C800 C 0.49186 0.10357 0.15425 0.0
C801 C 0.48959 0.06719 0.14646 0.0
C802 C 0.46251 0.11555 0.16468 0.0
C803 C 0.43007 0.09023 0.16767 0.0
C804 C 0.42909 0.05203 0.16083 0.0
C805 C 0.45891 0.04095 0.15017 0.0
C806 C 0.46524 0.15645 0.17177 0.0
C807 C 0.39568 0.02369 0.16404 0.0
C808 C 0.37729 0.13515 0.20183 0.0
C809 C 0.35168 0.16129 0.1941 0.0
C810 C 0.39933 0.10709 0.19346 0.0
C811 C 0.39648 0.10608 0.17698 0.0
C812 C 0.36716 0.12905 0.16938 0.0
C813 C 0.34482 0.15625 0.17808 0.0
C814 C 0.42876 0.08166 0.20209 0.0
C815 C 0.36274 0.12854 0.15185 0.0
H816 H 0.51593 0.12368 0.15165 0.0
H817 H 0.45706 0.01275 0.1442 0.0
H818 H 0.43962 0.17456 0.16796 0.0
H819 H 0.46431 0.15457 0.18469 0.0
H820 H 0.49277 0.17213 0.16837 0.0
H821 H 0.40489 0.9926 0.16196 0.0
H822 H 0.3848 0.02651 0.17621 0.0
H823 H 0.3707 0.03035 0.15606 0.0
H824 H 0.38196 0.13822 0.2143 0.0
H825 H 0.32469 0.17601 0.17206 0.0
H826 H 0.4585 0.09537 0.20135 0.0
H827 H 0.43063 0.05178 0.19678 0.0
H828 H 0.42088 0.07866 0.21463 0.0
H829 H 0.388 0.14449 0.14649 0.0
H830 H 0.3349 0.14302 0.14799 0.0
H831 H 0.36317 0.09778 0.14737 0.0
C832 C 0.16268 0.93074 0.37257 0.0
C833 C 0.13887 0.95596 0.36356 0.0
C834 C 0.20211 0.94104 0.37599 0.0
C835 C 0.21704 0.97785 0.37073 0.0
C836 C 0.19507 0.9997 0.35953 0.0
C837 C 0.15656 0.98786 0.35585 0.0
C838 C 0.226 0.91422 0.38641 0.0
C839 C 0.2097 0.03864 0.35305 0.0
C840 C 0.25676 0.05568 0.39691 0.0
C841 C 0.28746 0.06963 0.38743 0.0
C842 C 0.23643 0.02101 0.39303 0.0
C843 C 0.24834 0.99919 0.37968 0.0
C844 C 0.28503 0.00819 0.37256 0.0
C845 C 0.30401 0.04402 0.37631 0.0
C846 C 0.19873 0.01157 0.40172 0.0
C847 C 0.30182 0.98275 0.35973 0.0
H848 H 0.14967 0.90515 0.37819 0.0
H849 H 0.13864 0.00652 0.34836 0.0
H850 H 0.25763 0.92286 0.38695 0.0
H851 H 0.21343 0.91444 0.39837 0.0
H852 H 0.22393 0.88334 0.38207 0.0
H853 H 0.18878 0.05177 0.34449 0.0
H854 H 0.21406 0.0602 0.36268 0.0
H855 H 0.23848 0.03443 0.34713 0.0
H856 H 0.24504 0.07468 0.40601 0.0
H857 H 0.32879 0.05378 0.36927 0.0
H858 H 0.19913 0.98044 0.40571 0.0
H859 H 0.17288 0.0154 0.39386 0.0
H860 H 0.19446 0.03083 0.4121 0.0
H861 H 0.28814 0.95292 0.35949 0.0
H862 H 0.33426 0.97954 0.36133 0.0
H863 H 0.2971 0.99727 0.34827 0.0
C864 C 0.91197 0.02789 0.35181 0.0
C865 C 0.92415 0.98822 0.35229 0.0
C866 C 0.88279 0.0407 0.34145 0.0
C867 C 0.86425 0.01302 0.33145 0.0
C868 C 0.87367 0.97229 0.33282 0.0
C869 C 0.90397 0.96033 0.34313 0.0
C870 C 0.87414 0.08453 0.34044 0.0
C871 C 0.85343 0.94149 0.32291 0.0
C872 C 0.78442 0.06952 0.3103 0.0
C873 C 0.80613 0.08376 0.29753 0.0
C874 C 0.80104 0.04153 0.32057 0.0
C875 C 0.84042 0.02856 0.31817 0.0
C876 C 0.86042 0.03938 0.30431 0.0
C877 C 0.84288 0.06651 0.29411 0.0
C878 C 0.77782 0.02859 0.33469 0.0
C879 C 0.90228 0.02605 0.30112 0.0
H880 H 0.92659 0.04967 0.35908 0.0
H881 H 0.91265 0.9295 0.34361 0.0
H882 H 0.88252 0.09578 0.32872 0.0
H883 H 0.84209 0.09008 0.342 0.0
H884 H 0.89046 0.10191 0.34937 0.0
H885 H 0.8518 0.91278 0.32917 0.0
H886 H 0.8231 0.9507 0.31955 0.0
H887 H 0.87079 0.93667 0.31209 0.0
H888 H 0.75556 0.08189 0.31284 0.0
H889 H 0.85943 0.07635 0.284 0.0
H890 H 0.78616 0.04709 0.34487 0.0
H891 H 0.78438 0.99732 0.33765 0.0
H892 H 0.7455 0.03191 0.33275 0.0
H893 H 0.92263 0.04026 0.30961 0.0
H894 H 0.91216 0.03386 0.28914 0.0
H895 H 0.90494 0.99362 0.30261 0.0
C896 C 0.70008 0.09047 0.1177 0.0
C897 C 0.68373 0.05511 0.11221 0.0
C898 C 0.73966 0.09988 0.11503 0.0
C899 C 0.76408 0.07272 0.10683 0.0
C900 C 0.74894 0.03482 0.10296 0.0
C901 C 0.70862 0.0265 0.10559 0.0
C902 C 0.75394 0.14059 0.11978 0.0
C903 C 0.77414 0.00372 0.09522 0.0
C904 C 0.82395 0.14185 0.08378 0.0
C905 C 0.84793 0.1555 0.09601 0.0
C906 C 0.80034 0.10819 0.08583 0.0
C907 C 0.80201 0.08775 0.10025 0.0
C908 C 0.83412 0.09502 0.11044 0.0
C909 C 0.8568 0.12946 0.10831 0.0
C910 C 0.76868 0.09935 0.07392 0.0
C911 C 0.83998 0.0706 0.12496 0.0
H912 H 0.68105 0.11216 0.12324 0.0
H913 H 0.69622 0.99878 0.10154 0.0
H914 H 0.78009 0.13819 0.12752 0.0
H915 H 0.76271 0.15769 0.10929 0.0
H916 H 0.73097 0.15779 0.1261 0.0
H917 H 0.76856 0.97448 0.10069 0.0
H918 H 0.76563 0.00116 0.08274 0.0
H919 H 0.8062 0.01037 0.09599 0.0
H920 H 0.81857 0.16089 0.07381 0.0
H921 H 0.87681 0.13868 0.11752 0.0
H922 H 0.73965 0.10981 0.07835 0.0
H923 H 0.76649 0.06707 0.0719 0.0
H924 H 0.77461 0.11417 0.06258 0.0
H925 H 0.82225 0.08328 0.13464 0.0
H926 H 0.87151 0.07073 0.1286 0.0
H927 H 0.83018 0.03963 0.12305 0.0
C928 C 0.68966 0.88511 0.87797 0.0
C929 C 0.67287 0.87762 0.8633 0.0
C930 C 0.67079 0.91073 0.88862 0.0
C931 C 0.63434 0.92863 0.88445 0.0
C932 C 0.61984 0.92438 0.86904 0.0
C933 C 0.6394 0.89915 0.85866 0.0
C934 C 0.68806 0.91592 0.90473 0.0
C935 C 0.58127 0.94296 0.86397 0.0
C936 C 0.55024 0.93314 0.91338 0.0
C937 C 0.54485 0.97397 0.91531 0.0
C938 C 0.58071 0.91813 0.90405 0.0
C939 C 0.60722 0.94452 0.89664 0.0
C940 C 0.60365 0.98571 0.89935 0.0
C941 C 0.5721 1.00005 0.90849 0.0
C942 C 0.5829 0.87399 0.90138 0.0
C943 C 0.63199 0.01479 0.89209 0.0
H944 H 0.71579 0.86891 0.88157 0.0
H945 H 0.6268 0.89421 0.84717 0.0
H946 H 0.68416 0.94677 0.90887 0.0
H947 H 0.67245 0.89619 0.91303 0.0
H948 H 0.72002 0.90834 0.90498 0.0
H949 H 0.5764 0.94038 0.85118 0.0
H950 H 0.55638 0.92811 0.87005 0.0
H951 H 0.58043 0.97467 0.86721 0.0
H952 H 0.52954 0.91265 0.91864 0.0
H953 H 0.56851 0.03164 0.9101 0.0
H954 H 0.61296 0.86288 0.9041 0.0
H955 H 0.57691 0.86736 0.8889 0.0
H956 H 0.56126 0.85743 0.90861 0.0
H957 H 0.66246 0.00266 0.89172 0.0
H958 H 0.63236 0.04323 0.89858 0.0
H959 H 0.6227 0.02102 0.87991 0.0
C960 C 0.85463 0.84834 0.62725 0.0
C961 C 0.81566 0.84508 0.63266 0.0
C962 C 0.86555 0.87758 0.6166 0.0
C963 C 0.8369 0.90498 0.61125 0.0
C964 C 0.79754 0.90254 0.61686 0.0
C965 C 0.78725 0.87233 0.62746 0.0
C966 C 0.9078 0.87836 0.61079 0.0
C967 C 0.76654 0.93197 0.61182 0.0
C968 C 0.89683 0.98458 0.59221 0.0
C969 C 0.90119 0.96773 0.57735 0.0
C970 C 0.87052 0.96789 0.60309 0.0
C971 C 0.84875 0.93365 0.59893 0.0
C972 C 0.84852 0.92085 0.5832 0.0
C973 C 0.87481 0.93811 0.57258 0.0
C974 C 0.87017 0.98354 0.61957 0.0
C975 C 0.82525 0.88501 0.5781 0.0
H976 H 0.87678 0.82734 0.63113 0.0
H977 H 0.7572 0.87026 0.63177 0.0
H978 H 0.90839 0.87445 0.59792 0.0
H979 H 0.92156 0.90733 0.61348 0.0
H980 H 0.92628 0.85481 0.61613 0.0
H981 H 0.73635 0.92278 0.61541 0.0
H982 H 0.77308 0.96106 0.61722 0.0
H983 H 0.76698 0.93616 0.59898 0.0
H984 H 0.91676 0.0079 0.59589 0.0
H985 H 0.87745 0.92569 0.56095 0.0
H986 H 0.89064 0.96571 0.62686 0.0
H987 H 0.84019 0.98122 0.62475 0.0
H988 H 0.87999 0.01486 0.62003 0.0
H989 H 0.84109 0.8579 0.58188 0.0
H990 H 0.82179 0.88388 0.5652 0.0
H991 H 0.79553 0.88464 0.58354 0.0
C992 C 0.81597 0.39917 0.09209 0.0
C993 C 0.84066 0.38267 0.10352 0.0
C994 C 0.79485 0.43393 0.09516 0.0
C995 C 0.7995 0.45273 0.10984 0.0
C996 C 0.83158 0.44159 0.11951 0.0
C997 C 0.85162 0.40597 0.11639 0.0
C998 C 0.76285 0.44628 0.08387 0.0
C999 C 0.84086 0.46397 0.13428 0.0
C1000 C 0.71223 0.52174 0.1146 0.0
C1001 C 0.68459 0.49504 0.12072 0.0
C1002 C 0.75214 0.51053 0.11281 0.0
C1003 C 0.7639 0.47162 0.1169 0.0
C1004 C 0.73693 0.44684 0.12499 0.0
C1005 C 0.69786 0.45922 0.12698 0.0
C1006 C 0.78041 0.53941 0.10543 0.0
C1007 C 0.7476 0.40519 0.12991 0.0
H1008 H 0.80879 0.38201 0.08177 0.0
H1009 H 0.8719 0.39424 0.12504 0.0
H1010 H 0.7334 0.43941 0.0889 0.0
H1011 H 0.76424 0.47856 0.08178 0.0
H1012 H 0.76546 0.43086 0.07245 0.0
H1013 H 0.87293 0.46219 0.137 0.0
H1014 H 0.83205 0.4955 0.13328 0.0
H1015 H 0.82455 0.45068 0.14421 0.0
H1016 H 0.70225 0.54989 0.11 0.0
H1017 H 0.67662 0.43905 0.13213 0.0
H1018 H 0.77304 0.54291 0.09287 0.0
H1019 H 0.81172 0.52999 0.10654 0.0
H1020 H 0.77694 0.56894 0.11094 0.0
H1021 H 0.75514 0.38718 0.11949 0.0
H1022 H 0.7231 0.39019 0.13619 0.0
H1023 H 0.77373 0.40554 0.13771 0.0
C1024 C 0.84703 0.30791 0.29196 0.0
C1025 C 0.81178 0.28951 0.29664 0.0
C1026 C 0.86677 0.33449 0.30181 0.0
C1027 C 0.85084 0.34297 0.31672 0.0
C1028 C 0.81299 0.32815 0.32073 0.0
C1029 C 0.79388 0.30144 0.31064 0.0
C1030 C 0.90688 0.34972 0.29696 0.0
C1031 C 0.79454 0.33712 0.33637 0.0
C1032 C 0.92654 0.34486 0.34918 0.0
C1033 C 0.93135 0.38541 0.35209 0.0
C1034 C 0.90021 0.33109 0.33785 0.0
C1035 C 0.87751 0.35846 0.32915 0.0
C1036 C 0.88184 0.39954 0.33201 0.0
C1037 C 0.909 0.41263 0.34342 0.0
C1038 C 0.89714 0.287 0.3351 0.0
C1039 C 0.85767 0.42948 0.3231 0.0
H1040 H 0.8607 0.29959 0.28099 0.0
H1041 H 0.76635 0.28788 0.31427 0.0
H1042 H 0.91073 0.38109 0.30039 0.0
H1043 H 0.93016 0.33229 0.30297 0.0
H1044 H 0.91153 0.34704 0.28416 0.0
H1045 H 0.76225 0.3311 0.33635 0.0
H1046 H 0.80848 0.31826 0.34544 0.0
H1047 H 0.79953 0.36841 0.33971 0.0
H1048 H 0.94384 0.3235 0.3557 0.0
H1049 H 0.91239 0.44398 0.34568 0.0
H1050 H 0.90496 0.27999 0.32282 0.0
H1051 H 0.86632 0.27696 0.33704 0.0
H1052 H 0.91691 0.26975 0.34291 0.0
H1053 H 0.86228 0.42579 0.31035 0.0
H1054 H 0.86523 0.46034 0.32638 0.0
H1055 H 0.82577 0.42455 0.32538 0.0
C1056 C 0.92352 0.59109 0.59095 0.0
C1057 C 0.92949 0.55078 0.58793 0.0
C1058 C 0.89604 0.60379 0.60204 0.0
C1059 C 0.87319 0.57555 0.61025 0.0
C1060 C 0.87765 0.53481 0.6068 0.0
C1061 C 0.9062 0.52281 0.59579 0.0
C1062 C 0.89269 0.6476 0.60538 0.0
C1063 C 0.85336 0.50374 0.61501 0.0
C1064 C 0.84744 0.62259 0.64844 0.0
C1065 C 0.81342 0.6438 0.64421 0.0
C1066 C 0.86486 0.59566 0.63811 0.0
C1067 C 0.84761 0.58964 0.62324 0.0
C1068 C 0.81011 0.60631 0.61991 0.0
C1069 C 0.79343 0.63353 0.63043 0.0
C1070 C 0.9044 0.57788 0.64231 0.0
C1071 C 0.78985 0.59897 0.60448 0.0
H1072 H 0.94124 0.61302 0.58495 0.0
H1073 H 0.9104 0.4916 0.59344 0.0
H1074 H 0.86182 0.65766 0.60356 0.0
H1075 H 0.90053 0.65358 0.61774 0.0
H1076 H 0.91234 0.66562 0.59781 0.0
H1077 H 0.85079 0.4765 0.60783 0.0
H1078 H 0.86802 0.49565 0.62615 0.0
H1079 H 0.82324 0.5147 0.61777 0.0
H1080 H 0.86246 0.62953 0.6593 0.0
H1081 H 0.76669 0.6492 0.6272 0.0
H1082 H 0.9281 0.59364 0.63587 0.0
H1083 H 0.90563 0.54631 0.63888 0.0
H1084 H 0.91068 0.58024 0.65502 0.0
H1085 H 0.80329 0.61815 0.59541 0.0
H1086 H 0.75777 0.60582 0.60511 0.0
H1087 H 0.79371 0.56779 0.60074 0.0
C1088 C 0.64624 0.64916 0.8506 0.0
C1089 C 0.6762 0.67288 0.85698 0.0
C1090 C 0.62555 0.62208 0.85988 0.0
C1091 C 0.63492 0.61892 0.87594 0.0
C1092 C 0.66871 0.63871 0.88186 0.0
C1093 C 0.68908 0.66562 0.87227 0.0
C1094 C 0.59033 0.60099 0.85295 0.0
C1095 C 0.68038 0.63527 0.89881 0.0
C1096 C 0.54458 0.61891 0.90184 0.0
C1097 C 0.5414 0.57917 0.90637 0.0
C1098 C 0.57525 0.6319 0.89222 0.0
C1099 C 0.60395 0.60457 0.88691 0.0
C1100 C 0.60138 0.56439 0.8915 0.0
C1101 C 0.56987 0.55204 0.90112 0.0
C1102 C 0.5765 0.67507 0.8876 0.0
C1103 C 0.63143 0.5344 0.88611 0.0
H1104 H 0.63678 0.65403 0.83865 0.0
H1105 H 0.71254 0.68353 0.87721 0.0
H1106 H 0.58827 0.5703 0.85741 0.0
H1107 H 0.56289 0.61672 0.8564 0.0
H1108 H 0.59171 0.60017 0.83999 0.0
H1109 H 0.71152 0.64454 0.90072 0.0
H1110 H 0.66099 0.65463 0.90594 0.0
H1111 H 0.67661 0.60451 0.90305 0.0
H1112 H 0.52279 0.6402 0.90576 0.0
H1113 H 0.56771 0.52131 0.9046 0.0
H1114 H 0.57416 0.67788 0.87472 0.0
H1115 H 0.60506 0.68837 0.8912 0.0
H1116 H 0.55222 0.69251 0.89298 0.0
H1117 H 0.62546 0.52652 0.87376 0.0
H1118 H 0.63025 0.5069 0.89319 0.0
H1119 H 0.6618 0.54671 0.88669 0.0
C1120 C 0.3324 0.53118 0.90376 0.0
C1121 C 0.33968 0.55467 0.91696 0.0
C1122 C 0.30554 0.54388 0.89223 0.0
C1123 C 0.2871 0.58127 0.89382 0.0
C1124 C 0.28926 0.60129 0.9083 0.0
C1125 C 0.31525 0.58744 0.91979 0.0
C1126 C 0.30058 0.5197 0.87758 0.0
C1127 C 0.26874 0.64041 0.91085 0.0
C1128 C 0.29995 0.65298 0.86058 0.0
C1129 C 0.26083 0.6633 0.85697 0.0
C1130 C 0.30861 0.62475 0.87196 0.0
C1131 C 0.27731 0.60478 0.87963 0.0
C1132 C 0.23769 0.61237 0.87505 0.0
C1133 C 0.22984 0.6422 0.86397 0.0
C1134 C 0.35145 0.61861 0.87652 0.0
C1135 C 0.2033 0.5905 0.88215 0.0
H1136 H 0.35015 0.50501 0.90169 0.0
H1137 H 0.31949 0.60482 0.93031 0.0
H1138 H 0.27043 0.52346 0.87265 0.0
H1139 H 0.32221 0.52961 0.86867 0.0
H1140 H 0.30596 0.48783 0.87989 0.0
H1141 H 0.27074 0.65047 0.92318 0.0
H1142 H 0.28241 0.66328 0.90328 0.0
H1143 H 0.23711 0.63811 0.9076 0.0
H1144 H 0.32423 0.66873 0.85516 0.0
H1145 H 0.19949 0.64947 0.86106 0.0
H1146 H 0.36014 0.58743 0.87455 0.0
H1147 H 0.35562 0.62515 0.88912 0.0
H1148 H 0.37196 0.63772 0.86977 0.0
H1149 H 0.18156 0.58261 0.87293 0.0
H1150 H 0.18786 0.61015 0.89055 0.0
H1151 H 0.21249 0.56312 0.88829 0.0
C1152 C 0.13874 0.52534 0.59042 0.0
C1153 C 0.1299 0.54115 0.57568 0.0
C1154 C 0.16581 0.54447 0.60038 0.0
C1155 C 0.18382 0.58017 0.59546 0.0
C1156 C 0.1795 0.59251 0.57976 0.0
C1157 C 0.15259 0.57279 0.57005 0.0
C1158 C 0.1713 0.5292 0.61677 0.0
C1159 C 0.19896 0.62974 0.57384 0.0
C1160 C 0.17976 0.66628 0.62349 0.0
C1161 C 0.21971 0.67273 0.62712 0.0
C1162 C 0.16801 0.63549 0.61366 0.0
C1163 C 0.19684 0.60974 0.60731 0.0
C1164 C 0.23716 0.6148 0.61141 0.0
C1165 C 0.24822 0.64656 0.62117 0.0
C1166 C 0.1246 0.63156 0.60964 0.0
C1167 C 0.26883 0.5877 0.60516 0.0
H1168 H 0.12191 0.50041 0.59478 0.0
H1169 H 0.14674 0.58448 0.55848 0.0
H1170 H 0.2022 0.53369 0.62078 0.0
H1171 H 0.15158 0.54575 0.6248 0.0
H1172 H 0.16383 0.49729 0.61762 0.0
H1173 H 0.19819 0.63159 0.56089 0.0
H1174 H 0.18323 0.65585 0.57866 0.0
H1175 H 0.23015 0.63134 0.57778 0.0
H1176 H 0.15732 0.686 0.62806 0.0
H1177 H 0.27914 0.6511 0.62398 0.0
H1178 H 0.11378 0.60169 0.61283 0.0
H1179 H 0.1203 0.63526 0.59687 0.0
H1180 H 0.106 0.65377 0.61575 0.0
H1181 H 0.2576 0.55718 0.60344 0.0
H1182 H 0.29477 0.58672 0.61312 0.0
H1183 H 0.2791 0.59894 0.59369 0.0
C1184 C 0.15986 0.42964 0.38243 0.0
C1185 C 0.13149 0.40159 0.37796 0.0
C1186 C 0.19989 0.41867 0.38422 0.0
C1187 C 0.21132 0.37898 0.38135 0.0
C1188 C 0.18315 0.35187 0.37531 0.0
C1189 C 0.14373 0.36356 0.37374 0.0
C1190 C 0.22949 0.44898 0.38971 0.0
C1191 C 0.19372 0.30936 0.37168 0.0
C1192 C 0.30405 0.32079 0.37811 0.0
C1193 C 0.29886 0.29708 0.39141 0.0
C1194 C 0.27973 0.35396 0.37564 0.0
C1195 C 0.2501 0.36302 0.38675 0.0
C1196 C 0.25152 0.34467 0.40162 0.0
C1197 C 0.27627 0.31187 0.40382 0.0
C1198 C 0.28124 0.37471 0.36009 0.0
C1199 C 0.22174 0.35441 0.41417 0.0
H1200 H 0.15042 0.45924 0.38553 0.0
H1201 H 0.12186 0.3421 0.37 0.0
H1202 H 0.24631 0.43787 0.39994 0.0
H1203 H 0.2512 0.45464 0.38027 0.0
H1204 H 0.21521 0.47744 0.3929 0.0
H1205 H 0.1686 0.29277 0.36648 0.0
H1206 H 0.21882 0.30813 0.36337 0.0
H1207 H 0.20293 0.29396 0.38253 0.0
H1208 H 0.32236 0.31024 0.36858 0.0
H1209 H 0.27313 0.29425 0.41433 0.0
H1210 H 0.27188 0.40602 0.36117 0.0
H1211 H 0.26087 0.35979 0.3518 0.0
H1212 H 0.3115 0.37356 0.35506 0.0
H1213 H 0.21629 0.38668 0.41481 0.0
H1214 H 0.23168 0.34386 0.42582 0.0
H1215 H 0.19325 0.33972 0.41136 0.0
C1216 C 0.46332 0.43212 0.13574 0.0
C1217 C 0.47717 0.47113 0.13696 0.0
C1218 C 0.43701 0.41639 0.14665 0.0
C1219 C 0.42339 0.44038 0.15906 0.0
C1220 C 0.43502 0.4806 0.15984 0.0
C1221 C 0.46217 0.4955 0.14883 0.0
C1222 C 0.42569 0.37324 0.14536 0.0
C1223 C 0.42022 0.50739 0.17265 0.0
C1224 C 0.34162 0.38639 0.18028 0.0
C1225 C 0.3635 0.36587 0.19161 0.0
C1226 C 0.35992 0.41439 0.17053 0.0
C1227 C 0.40107 0.42129 0.17197 0.0
C1228 C 0.42244 0.40308 0.18423 0.0
C1229 C 0.40334 0.37589 0.19395 0.0
C1230 C 0.33584 0.43431 0.15795 0.0
C1231 C 0.46642 0.40929 0.18615 0.0
H1232 H 0.47419 0.41306 0.12651 0.0
H1233 H 0.47234 0.52578 0.14977 0.0
H1234 H 0.43713 0.35683 0.15564 0.0
H1235 H 0.39308 0.37 0.1453 0.0
H1236 H 0.43761 0.35914 0.13463 0.0
H1237 H 0.42449 0.53907 0.16968 0.0
H1238 H 0.3884 0.50207 0.175 0.0
H1239 H 0.43668 0.50115 0.18358 0.0
H1240 H 0.31065 0.37941 0.17856 0.0
H1241 H 0.42045 0.36071 0.20283 0.0
H1242 H 0.34104 0.41922 0.14663 0.0
H1243 H 0.34479 0.46567 0.15658 0.0
H1244 H 0.30368 0.43306 0.16053 0.0
H1245 H 0.48225 0.39483 0.17634 0.0
H1246 H 0.4777 0.3967 0.19728 0.0
H1247 H 0.47375 0.44121 0.18582 0.0
loop_
_geom_bond_atom_site_label_1
_geom_bond_atom_site_label_2
_geom_bond_distance
_geom_bond_site_symmetry_2
_ccdc_geom_bond_type
Zn0 O3 2.031 . S
Zn0 O5 2.049 . S
Zn0 O10 2.067 1_455 S
Zn1 O2 1.962 . S
Zn1 O4 1.986 . S
Zn1 O6 1.996 . S
Zn1 O9 1.943 1_455 S
O2 Zn1 1.962 . S
O2 C7 1.254 1_545 S
O3 Zn0 2.031 . S
O3 C7 1.269 . S
O4 Zn1 1.986 . S
O4 C11 1.262 . S
O5 Zn0 2.049 . S
O5 C13 1.260 1_565 S
O6 Zn1 1.996 . S
O6 C13 1.257 . S
C7 O2 1.254 1_565 S
C7 O3 1.269 . S
C8 O9 1.249 1_565 S
C8 O10 1.270 . S
O9 Zn1 1.943 1_655 S
O9 C8 1.249 1_545 S
O10 Zn0 2.067 1_655 S
O10 C8 1.270 . S
C11 O4 1.262 . S
C11 O12 1.232 . S
O12 C11 1.232 . S
C13 O5 1.260 1_545 S
C13 O6 1.257 . S
Zn14 O17 2.031 . S
Zn14 O19 2.049 . S
Zn14 O24 2.067 . S
Zn15 O16 1.962 . S
Zn15 O18 1.986 . S
Zn15 O20 1.996 . S
Zn15 O23 1.943 . S
O16 Zn15 1.962 . S
O16 C21 1.254 . S
O17 Zn14 2.031 . S
O17 C21 1.269 . S
O18 Zn15 1.986 . S
O18 C25 1.262 . S
O19 Zn14 2.049 . S
O19 C27 1.260 . S
O20 Zn15 1.996 . S
O20 C27 1.257 . S
C21 O16 1.254 . S
C21 O17 1.269 . S
C22 O23 1.249 . S
C22 O24 1.270 . S
O23 Zn15 1.943 . S
O23 C22 1.249 . S
O24 Zn14 2.067 . S
O24 C22 1.270 . S
C25 O18 1.262 . S
C25 O26 1.232 . S
O26 C25 1.232 . S
C27 O19 1.260 . S
C27 O20 1.257 . S
Zn28 O31 2.031 . S
Zn28 O33 2.049 . S
Zn28 O38 2.067 . S
Zn29 O30 1.962 . S
Zn29 O32 1.986 . S
Zn29 O34 1.996 . S
Zn29 O37 1.943 . S
O30 Zn29 1.962 . S
O30 C35 1.254 1_565 S
O31 Zn28 2.031 . S
O31 C35 1.269 . S
O32 Zn29 1.986 . S
O32 C39 1.262 . S
O33 Zn28 2.049 . S
O33 C41 1.260 1_545 S
O34 Zn29 1.996 . S
O34 C41 1.257 . S
C35 O30 1.254 1_545 S
C35 O31 1.269 . S
C36 O37 1.249 1_545 S
C36 O38 1.270 . S
O37 Zn29 1.943 . S
O37 C36 1.249 1_565 S
O38 Zn28 2.067 . S
O38 C36 1.270 . S
C39 O32 1.262 . S
C39 O40 1.232 . S
O40 C39 1.232 . S
C41 O33 1.260 1_565 S
C41 O34 1.257 . S
Zn42 O45 2.031 . S
Zn42 O47 2.049 . S
Zn42 O52 2.067 . S
Zn43 O44 1.962 . S
Zn43 O46 1.986 . S
Zn43 O48 1.996 . S
Zn43 O51 1.943 . S
O44 Zn43 1.962 . S
O44 C49 1.254 . S
O45 Zn42 2.031 . S
O45 C49 1.269 . S
O46 Zn43 1.986 . S
O46 C53 1.262 . S
O47 Zn42 2.049 . S
O47 C55 1.260 . S
O48 Zn43 1.996 . S
O48 C55 1.257 . S
C49 O44 1.254 . S
C49 O45 1.269 . S
C50 O51 1.249 . S
C50 O52 1.270 . S
O51 Zn43 1.943 . S
O51 C50 1.249 . S
O52 Zn42 2.067 . S
O52 C50 1.270 . S
C53 O46 1.262 . S
C53 O54 1.232 . S
O54 C53 1.232 . S
C55 O47 1.260 . S
C55 O48 1.257 . S
Zn56 O59 2.031 . S
Zn56 O61 2.049 . S
Zn56 O66 2.067 1_455 S
Zn57 O58 1.962 . S
Zn57 O60 1.986 . S
Zn57 O62 1.996 . S
Zn57 O65 1.943 1_455 S
O58 Zn57 1.962 . S
O58 C63 1.254 1_565 S
O59 Zn56 2.031 . S
O59 C63 1.269 . S
O60 Zn57 1.986 . S
O60 C67 1.262 . S
O61 Zn56 2.049 . S
O61 C69 1.260 1_545 S
O62 Zn57 1.996 . S
O62 C69 1.257 . S
C63 O58 1.254 1_545 S
C63 O59 1.269 . S
C64 O65 1.249 1_545 S
C64 O66 1.270 . S
O65 Zn57 1.943 1_655 S
O65 C64 1.249 1_565 S
O66 Zn56 2.067 1_655 S
O66 C64 1.270 . S
C67 O60 1.262 . S
C67 O68 1.232 . S
O68 C67 1.232 . S
C69 O61 1.260 1_565 S
C69 O62 1.257 . S
Zn70 O73 2.031 . S
Zn70 O75 2.049 . S
Zn70 O80 2.067 . S
Zn71 O72 1.962 . S
Zn71 O74 1.986 . S
Zn71 O76 1.996 . S
Zn71 O79 1.943 . S
O72 Zn71 1.962 . S
O72 C77 1.254 . S
O73 Zn70 2.031 . S
O73 C77 1.269 . S
O74 Zn71 1.986 . S
O74 C81 1.262 . S
O75 Zn70 2.049 . S
O75 C83 1.260 . S
O76 Zn71 1.996 . S
O76 C83 1.257 . S
C77 O72 1.254 . S
C77 O73 1.269 . S
C78 O79 1.249 . S
C78 O80 1.270 . S
O79 Zn71 1.943 . S
O79 C78 1.249 . S
O80 Zn70 2.067 . S
O80 C78 1.270 . S
C81 O74 1.262 . S
C81 O82 1.232 . S
O82 C81 1.232 . S
C83 O75 1.260 . S
C83 O76 1.257 . S
Zn84 O87 2.031 . S
Zn84 O89 2.049 . S
Zn84 O94 2.067 . S
Zn85 O86 1.962 . S
Zn85 O88 1.986 . S
Zn85 O90 1.996 . S
Zn85 O93 1.943 . S
O86 Zn85 1.962 . S
O86 C91 1.254 1_545 S
O87 Zn84 2.031 . S
O87 C91 1.269 . S
O88 Zn85 1.986 . S
O88 C95 1.262 . S
O89 Zn84 2.049 . S
O89 C97 1.260 1_565 S
O90 Zn85 1.996 . S
O90 C97 1.257 . S
C91 O86 1.254 1_565 S
C91 O87 1.269 . S
C92 O93 1.249 1_565 S
C92 O94 1.270 . S
O93 Zn85 1.943 . S
O93 C92 1.249 1_545 S
O94 Zn84 2.067 . S
O94 C92 1.270 . S
C95 O88 1.262 . S
C95 O96 1.232 . S
O96 C95 1.232 . S
C97 O89 1.260 1_545 S
C97 O90 1.257 . S
Zn98 O101 2.031 . S
Zn98 O103 2.049 . S
Zn98 O108 2.067 . S
Zn99 O100 1.962 . S
Zn99 O102 1.986 . S
Zn99 O104 1.996 . S
Zn99 O107 1.943 . S
O100 Zn99 1.962 . S
O100 C105 1.254 . S
O101 Zn98 2.031 . S
O101 C105 1.269 . S
O102 Zn99 1.986 . S
O102 C109 1.262 . S
O103 Zn98 2.049 . S
O103 C111 1.260 . S
O104 Zn99 1.996 . S
O104 C111 1.257 . S
C105 O100 1.254 . S
C105 O101 1.269 . S
C106 O107 1.249 . S
C106 O108 1.270 . S
O107 Zn99 1.943 . S
O107 C106 1.249 . S
O108 Zn98 2.067 . S
O108 C106 1.270 . S
C109 O102 1.262 . S
C109 O110 1.232 . S
O110 C109 1.232 . S
C111 O103 1.260 . S
C111 O104 1.257 . S
Zn112 O115 2.031 . S
Zn112 O117 2.049 . S
Zn112 O122 2.067 . S
Zn113 O114 1.962 . S
Zn113 O116 1.986 . S
Zn113 O118 1.996 . S
Zn113 O121 1.943 . S
O114 Zn113 1.962 . S
O114 C119 1.254 . S
O115 Zn112 2.031 . S
O115 C119 1.269 . S
O116 Zn113 1.986 . S
O116 C123 1.262 . S
O117 Zn112 2.049 . S
O117 C125 1.260 . S
O118 Zn113 1.996 . S
O118 C125 1.257 . S
C119 O114 1.254 . S
C119 O115 1.269 . S
C120 O121 1.249 . S
C120 O122 1.270 . S
O121 Zn113 1.943 . S
O121 C120 1.249 . S
O122 Zn112 2.067 . S
O122 C120 1.270 . S
C123 O116 1.262 . S
C123 O124 1.232 . S
O124 C123 1.232 . S
C125 O117 1.260 . S
C125 O118 1.257 . S
Zn126 O129 2.031 . S
Zn126 O131 2.049 . S
Zn126 O136 2.067 . S
Zn127 O128 1.962 . S
Zn127 O130 1.986 . S
Zn127 O132 1.996 . S
Zn127 O135 1.943 . S
O128 Zn127 1.962 . S
O128 C133 1.254 . S
O129 Zn126 2.031 . S
O129 C133 1.269 . S
O130 Zn127 1.986 . S
O130 C137 1.262 . S
O131 Zn126 2.049 . S
O131 C139 1.260 . S
O132 Zn127 1.996 . S
O132 C139 1.257 . S
C133 O128 1.254 . S
C133 O129 1.269 . S
C134 O135 1.249 . S
C134 O136 1.270 . S
O135 Zn127 1.943 . S
O135 C134 1.249 . S
O136 Zn126 2.067 . S
O136 C134 1.270 . S
C137 O130 1.262 . S
C137 O138 1.232 . S
O138 C137 1.232 . S
C139 O131 1.260 . S
C139 O132 1.257 . S
Zn140 O143 2.031 . S
Zn140 O145 2.049 . S
Zn140 O150 2.067 . S
Zn141 O142 1.962 . S
Zn141 O144 1.986 . S
Zn141 O146 1.996 . S
Zn141 O149 1.943 . S
O142 Zn141 1.962 . S
O142 C147 1.254 . S
O143 Zn140 2.031 . S
O143 C147 1.269 . S
O144 Zn141 1.986 . S
O144 C151 1.262 . S
O145 Zn140 2.049 . S
O145 C153 1.260 . S
O146 Zn141 1.996 . S
O146 C153 1.257 . S
C147 O142 1.254 . S
C147 O143 1.269 . S
C148 O149 1.249 . S
C148 O150 1.270 . S
O149 Zn141 1.943 . S
O149 C148 1.249 . S
O150 Zn140 2.067 . S
O150 C148 1.270 . S
C151 O144 1.262 . S
C151 O152 1.232 . S
O152 C151 1.232 . S
C153 O145 1.260 . S
C153 O146 1.257 . S
Zn154 O157 2.031 . S
Zn154 O159 2.049 . S
Zn154 O164 2.067 . S
Zn155 O156 1.962 . S
Zn155 O158 1.986 . S
Zn155 O160 1.996 . S
Zn155 O163 1.943 . S
O156 Zn155 1.962 . S
O156 C161 1.254 . S
O157 Zn154 2.031 . S
O157 C161 1.269 . S
O158 Zn155 1.986 . S
O158 C165 1.262 . S
O159 Zn154 2.049 . S
O159 C167 1.260 . S
O160 Zn155 1.996 . S
O160 C167 1.257 . S
C161 O156 1.254 . S
C161 O157 1.269 . S
C162 O163 1.249 . S
C162 O164 1.270 . S
O163 Zn155 1.943 . S
O163 C162 1.249 . S
O164 Zn154 2.067 . S
O164 C162 1.270 . S
C165 O158 1.262 . S
C165 O166 1.232 . S
O166 C165 1.232 . S
C167 O159 1.260 . S
C167 O160 1.257 . S
Zn168 O171 2.031 . S
Zn168 O173 2.049 . S
Zn168 O178 2.067 . S
Zn169 O170 1.962 . S
Zn169 O172 1.986 . S
Zn169 O174 1.996 . S
Zn169 O177 1.943 . S
O170 Zn169 1.962 . S
O170 C175 1.254 . S
O171 Zn168 2.031 . S
O171 C175 1.269 . S
O172 Zn169 1.986 . S
O172 C179 1.262 . S
O173 Zn168 2.049 . S
O173 C181 1.260 . S
O174 Zn169 1.996 . S
O174 C181 1.257 . S
C175 O170 1.254 . S
C175 O171 1.269 . S
C176 O177 1.249 . S
C176 O178 1.270 . S
O177 Zn169 1.943 . S
O177 C176 1.249 . S
O178 Zn168 2.067 . S
O178 C176 1.270 . S
C179 O172 1.262 . S
C179 O180 1.232 . S
O180 C179 1.232 . S
C181 O173 1.260 . S
C181 O174 1.257 . S
Zn182 O185 2.032 1_455 S
Zn182 O187 2.049 . S
Zn182 O192 2.067 . S
Zn183 O184 1.962 1_455 S
Zn183 O186 1.986 . S
Zn183 O188 1.996 . S
Zn183 O191 1.943 . S
O184 Zn183 1.962 1_655 S
O184 C189 1.254 . S
O185 Zn182 2.032 1_655 S
O185 C189 1.267 . S
O186 Zn183 1.986 . S
O186 C193 1.262 . S
O187 Zn182 2.049 . S
O187 C195 1.260 . S
O188 Zn183 1.996 . S
O188 C195 1.257 . S
C189 O184 1.254 . S
C189 O185 1.267 . S
C190 O191 1.249 . S
C190 O192 1.270 . S
O191 Zn183 1.943 . S
O191 C190 1.249 . S
O192 Zn182 2.067 . S
O192 C190 1.270 . S
C193 O186 1.262 . S
C193 O194 1.232 . S
O194 C193 1.232 . S
C195 O187 1.260 . S
C195 O188 1.257 . S
Zn196 O199 2.031 . S
Zn196 O201 2.049 . S
Zn196 O206 2.067 . S
Zn197 O198 1.962 . S
Zn197 O200 1.986 . S
Zn197 O202 1.996 . S
Zn197 O205 1.943 . S
O198 Zn197 1.962 . S
O198 C203 1.254 . S
O199 Zn196 2.031 . S
O199 C203 1.269 . S
O200 Zn197 1.986 . S
O200 C207 1.262 . S
O201 Zn196 2.049 . S
O201 C209 1.260 . S
O202 Zn197 1.996 . S
O202 C209 1.257 . S
C203 O198 1.254 . S
C203 O199 1.269 . S
C204 O205 1.249 . S
C204 O206 1.270 . S
O205 Zn197 1.943 . S
O205 C204 1.249 . S
O206 Zn196 2.067 . S
O206 C204 1.270 . S
C207 O200 1.262 . S
C207 O208 1.232 . S
O208 C207 1.232 . S
C209 O201 1.260 . S
C209 O202 1.257 . S
Zn210 O213 2.032 1_455 S
Zn210 O215 2.049 . S
Zn210 O220 2.067 . S
Zn211 O212 1.962 1_455 S
Zn211 O214 1.986 . S
Zn211 O216 1.996 . S
Zn211 O219 1.943 . S
O212 Zn211 1.962 1_655 S
O212 C217 1.254 . S
O213 Zn210 2.032 1_655 S
O213 C217 1.267 . S
O214 Zn211 1.986 . S
O214 C221 1.262 . S
O215 Zn210 2.049 . S
O215 C223 1.260 . S
O216 Zn211 1.996 . S
O216 C223 1.257 . S
C217 O212 1.254 . S
C217 O213 1.267 . S
C218 O219 1.249 . S
C218 O220 1.270 . S
O219 Zn211 1.943 . S
O219 C218 1.249 . S
O220 Zn210 2.067 . S
O220 C218 1.270 . S
C221 O214 1.262 . S
C221 O222 1.232 . S
O222 C221 1.232 . S
C223 O215 1.260 . S
C223 O216 1.257 . S
C224 C225 1.391 1_655 S
C224 C226 1.394 . S
C224 H240 0.931 . S
C225 C224 1.391 1_455 S
C225 C229 1.376 . S
C226 C224 1.394 . S
C226 C227 1.369 1_655 S
C226 C230 1.531 . S
C227 C226 1.369 1_455 S
C227 C228 1.410 . S
C227 C235 1.503 . S
C228 C227 1.410 . S
C228 C229 1.392 . S
C228 C231 1.511 . S
C229 C225 1.376 . S
C229 C228 1.392 . S
C229 H241 0.929 . S
C230 C226 1.531 . S
C230 H242 0.960 . S
C230 H243 0.962 . S
C230 H244 0.960 . S
C231 C228 1.511 . S
C231 H245 0.961 . S
C231 H246 0.961 . S
C231 H247 0.961 . S
C232 C233 1.370 . S
C232 C234 1.363 . S
C232 H248 0.931 . S
C233 C232 1.370 . S
C233 C237 1.408 . S
C234 C232 1.363 . S
C234 C235 1.370 . S
C234 C238 1.524 . S
C235 C227 1.503 . S
C235 C234 1.370 . S
C235 C236 1.403 . S
C236 C235 1.403 . S
C236 C237 1.404 . S
C236 C239 1.539 . S
C237 C233 1.408 . S
C237 C236 1.404 . S
C237 H249 0.930 . S
C238 C234 1.524 . S
C238 H250 0.956 1_455 S
C238 H251 0.961 . S
C238 H252 0.961 . S
C239 C236 1.539 . S
C239 H253 0.958 . S
C239 H254 0.961 . S
C239 H255 0.960 . S
H240 C224 0.931 . S
H241 C229 0.929 . S
H242 C230 0.960 . S
H243 C230 0.962 . S
H244 C230 0.960 . S
H245 C231 0.961 . S
H246 C231 0.961 . S
H247 C231 0.961 . S
H248 C232 0.931 . S
H249 C237 0.930 . S
H250 C238 0.956 1_655 S
H251 C238 0.961 . S
H252 C238 0.961 . S
H253 C239 0.958 . S
H254 C239 0.961 . S
H255 C239 0.960 . S
C256 C257 1.391 . S
C256 C258 1.394 . S
C256 H272 0.931 . S
C257 C256 1.391 . S
C257 C261 1.376 . S
C258 C256 1.394 . S
C258 C259 1.382 . S
C258 C262 1.531 . S
C259 C258 1.382 . S
C259 C260 1.421 . S
C259 C267 1.478 1_655 S
C260 C259 1.421 . S
C260 C261 1.392 . S
C260 C263 1.511 1_655 S
C261 C257 1.376 . S
C261 C260 1.392 . S
C261 H273 0.929 . S
C262 C258 1.531 . S
C262 H274 0.960 1_655 S
C262 H275 0.962 1_655 S
C262 H276 0.960 . S
C263 C260 1.511 1_455 S
C263 H277 0.961 1_455 S
C263 H278 0.961 . S
C263 H279 0.961 . S
C264 C265 1.370 . S
C264 C266 1.363 . S
C264 H280 0.931 . S
C265 C264 1.370 . S
C265 C269 1.408 . S
C266 C264 1.363 . S
C266 C267 1.370 . S
C266 C270 1.524 . S
C267 C259 1.478 1_455 S
C267 C266 1.370 . S
C267 C268 1.403 . S
C268 C267 1.403 . S
C268 C269 1.404 . S
C268 C271 1.539 . S
C269 C265 1.408 . S
C269 C268 1.404 . S
C269 H281 0.930 . S
C270 C266 1.524 . S
C270 H282 0.956 . S
C270 H283 0.961 . S
C270 H284 0.961 . S
C271 C268 1.539 . S
C271 H285 0.958 . S
C271 H286 0.961 . S
C271 H287 0.960 . S
H272 C256 0.931 . S
H273 C261 0.929 . S
H274 C262 0.960 1_455 S
H275 C262 0.962 1_455 S
H276 C262 0.960 . S
H277 C263 0.961 1_655 S
H278 C263 0.961 . S
H279 C263 0.961 . S
H280 C264 0.931 . S
H281 C269 0.930 . S
H282 C270 0.956 . S
H283 C270 0.961 . S
H284 C270 0.961 . S
H285 C271 0.958 . S
H286 C271 0.961 . S
H287 C271 0.960 . S
C288 C289 1.391 . S
C288 C290 1.394 . S
C288 H304 0.931 . S
C289 C288 1.391 . S
C289 C293 1.376 . S
C290 C288 1.394 . S
C290 C291 1.369 . S
C290 C294 1.531 . S
C291 C290 1.369 . S
C291 C292 1.410 . S
C291 C299 1.503 . S
C292 C291 1.410 . S
C292 C293 1.392 . S
C292 C295 1.511 . S
C293 C289 1.376 . S
C293 C292 1.392 . S
C293 H305 0.929 . S
C294 C290 1.531 . S
C294 H306 0.960 . S
C294 H307 0.962 . S
C294 H308 0.960 . S
C295 C292 1.511 . S
C295 H309 0.961 . S
C295 H310 0.961 . S
C295 H311 0.961 . S
C296 C297 1.370 . S
C296 C298 1.363 . S
C296 H312 0.931 . S
C297 C296 1.370 . S
C297 C301 1.408 . S
C298 C296 1.363 . S
C298 C299 1.370 . S
C298 C302 1.524 . S
C299 C291 1.503 . S
C299 C298 1.370 . S
C299 C300 1.403 . S
C300 C299 1.403 . S
C300 C301 1.404 . S
C300 C303 1.539 . S
C301 C297 1.408 . S
C301 C300 1.404 . S
C301 H313 0.930 . S
C302 C298 1.524 . S
C302 H314 0.956 . S
C302 H315 0.961 . S
C302 H316 0.961 . S
C303 C300 1.539 . S
C303 H317 0.958 . S
C303 H318 0.961 . S
C303 H319 0.960 . S
H304 C288 0.931 . S
H305 C293 0.929 . S
H306 C294 0.960 . S
H307 C294 0.962 . S
H308 C294 0.960 . S
H309 C295 0.961 . S
H310 C295 0.961 . S
H311 C295 0.961 . S
H312 C296 0.931 . S
H313 C301 0.930 . S
H314 C302 0.956 . S
H315 C302 0.961 . S
H316 C302 0.961 . S
H317 C303 0.958 . S
H318 C303 0.961 . S
H319 C303 0.960 . S
C320 C321 1.391 . S
C320 C322 1.394 . S
C320 H336 0.931 . S
C321 C320 1.391 . S
C321 C325 1.376 . S
C322 C320 1.394 . S
C322 C323 1.369 . S
C322 C326 1.531 . S
C323 C322 1.369 . S
C323 C324 1.410 . S
C323 C331 1.503 . S
C324 C323 1.410 . S
C324 C325 1.392 . S
C324 C327 1.511 . S
C325 C321 1.376 . S
C325 C324 1.392 . S
C325 H337 0.929 . S
C326 C322 1.531 . S
C326 H338 0.960 . S
C326 H339 0.962 . S
C326 H340 0.960 . S
C327 C324 1.511 . S
C327 H341 0.961 . S
C327 H342 0.961 . S
C327 H343 0.961 . S
C328 C329 1.370 . S
C328 C330 1.363 . S
C328 H344 0.931 . S
C329 C328 1.370 . S
C329 C333 1.408 . S
C330 C328 1.363 . S
C330 C331 1.370 . S
C330 C334 1.524 . S
C331 C323 1.503 . S
C331 C330 1.370 . S
C331 C332 1.403 . S
C332 C331 1.403 . S
C332 C333 1.404 . S
C332 C335 1.539 . S
C333 C329 1.408 . S
C333 C332 1.404 . S
C333 H345 0.930 . S
C334 C330 1.524 . S
C334 H346 0.956 . S
C334 H347 0.961 . S
C334 H348 0.961 . S
C335 C332 1.539 . S
C335 H349 0.958 . S
C335 H350 0.961 . S
C335 H351 0.960 . S
H336 C320 0.931 . S
H337 C325 0.929 . S
H338 C326 0.960 . S
H339 C326 0.962 . S
H340 C326 0.960 . S
H341 C327 0.961 . S
H342 C327 0.961 . S
H343 C327 0.961 . S
H344 C328 0.931 . S
H345 C333 0.930 . S
H346 C334 0.956 . S
H347 C334 0.961 . S
H348 C334 0.961 . S
H349 C335 0.958 . S
H350 C335 0.961 . S
H351 C335 0.960 . S
C352 C353 1.391 . S
C352 C354 1.394 . S
C352 H368 0.931 . S
C353 C352 1.391 . S
C353 C357 1.376 1_455 S
C354 C352 1.394 . S
C354 C355 1.369 . S
C354 C358 1.531 . S
C355 C354 1.369 . S
C355 C356 1.410 1_455 S
C355 C363 1.503 . S
C356 C355 1.410 1_655 S
C356 C357 1.392 . S
C356 C359 1.511 . S
C357 C353 1.376 1_655 S
C357 C356 1.392 . S
C357 H369 0.929 . S
C358 C354 1.531 . S
C358 H370 0.960 . S
C358 H371 0.962 . S
C358 H372 0.960 . S
C359 C356 1.511 . S
C359 H373 0.961 . S
C359 H374 0.961 . S
C359 H375 0.961 . S
C360 C361 1.370 . S
C360 C362 1.363 . S
C360 H376 0.931 . S
C361 C360 1.370 . S
C361 C365 1.408 1_455 S
C362 C360 1.363 . S
C362 C363 1.370 . S
C362 C366 1.524 . S
C363 C355 1.503 . S
C363 C362 1.370 . S
C363 C364 1.403 1_455 S
C364 C363 1.403 1_655 S
C364 C365 1.404 . S
C364 C367 1.539 . S
C365 C361 1.408 1_655 S
C365 C364 1.404 . S
C365 H377 0.930 . S
C366 C362 1.524 . S
C366 H378 0.956 . S
C366 H379 0.961 . S
C366 H380 0.961 . S
C367 C364 1.539 . S
C367 H381 0.958 . S
C367 H382 0.961 . S
C367 H383 0.960 . S
H368 C352 0.931 . S
H369 C357 0.929 . S
H370 C358 0.960 . S
H371 C358 0.962 . S
H372 C358 0.960 . S
H373 C359 0.961 . S
H374 C359 0.961 . S
H375 C359 0.961 . S
H376 C360 0.931 . S
H377 C365 0.930 . S
H378 C366 0.956 . S
H379 C366 0.961 . S
H380 C366 0.961 . S
H381 C367 0.958 . S
H382 C367 0.961 . S
H383 C367 0.960 . S
C384 C385 1.391 . S
C384 C386 1.394 . S
C384 H400 0.931 . S
C385 C384 1.391 . S
C385 C389 1.376 . S
C386 C384 1.394 . S
C386 C387 1.369 . S
C386 C390 1.531 . S
C387 C386 1.369 . S
C387 C388 1.410 . S
C387 C395 1.503 . S
C388 C387 1.410 . S
C388 C389 1.392 . S
C388 C391 1.511 . S
C389 C385 1.376 . S
C389 C388 1.392 . S
C389 H401 0.929 . S
C390 C386 1.531 . S
C390 H402 0.960 . S
C390 H403 0.962 . S
C390 H404 0.960 . S
C391 C388 1.511 . S
C391 H405 0.961 . S
C391 H406 0.961 . S
C391 H407 0.961 . S
C392 C393 1.370 . S
C392 C394 1.363 . S
C392 H408 0.931 . S
C393 C392 1.370 . S
C393 C397 1.408 . S
C394 C392 1.363 . S
C394 C395 1.370 . S
C394 C398 1.524 . S
C395 C387 1.503 . S
C395 C394 1.370 . S
C395 C396 1.403 . S
C396 C395 1.403 . S
C396 C397 1.404 . S
C396 C399 1.539 . S
C397 C393 1.408 . S
C397 C396 1.404 . S
C397 H409 0.930 . S
C398 C394 1.524 . S
C398 H410 0.956 . S
C398 H411 0.961 . S
C398 H412 0.961 . S
C399 C396 1.539 . S
C399 H413 0.958 . S
C399 H414 0.961 . S
C399 H415 0.960 . S
H400 C384 0.931 . S
H401 C389 0.929 . S
H402 C390 0.960 . S
H403 C390 0.962 . S
H404 C390 0.960 . S
H405 C391 0.961 . S
H406 C391 0.961 . S
H407 C391 0.961 . S
H408 C392 0.931 . S
H409 C397 0.930 . S
H410 C398 0.956 . S
H411 C398 0.961 . S
H412 C398 0.961 . S
H413 C399 0.958 . S
H414 C399 0.961 . S
H415 C399 0.960 . S
C416 C417 1.391 . S
C416 C418 1.394 . S
C416 H432 0.931 . S
C417 C416 1.391 . S
C417 C421 1.376 . S
C418 C416 1.394 . S
C418 C419 1.369 . S
C418 C422 1.531 . S
C419 C418 1.369 . S
C419 C420 1.410 . S
C419 C427 1.503 . S
C420 C419 1.410 . S
C420 C421 1.392 . S
C420 C423 1.511 . S
C421 C417 1.376 . S
C421 C420 1.392 . S
C421 H433 0.929 . S
C422 C418 1.531 . S
C422 H434 0.960 . S
C422 H435 0.962 . S
C422 H436 0.960 . S
C423 C420 1.511 . S
C423 H437 0.961 . S
C423 H438 0.961 . S
C423 H439 0.961 . S
C424 C425 1.370 . S
C424 C426 1.363 . S
C424 H440 0.931 . S
C425 C424 1.370 . S
C425 C429 1.408 . S
C426 C424 1.363 . S
C426 C427 1.370 . S
C426 C430 1.524 . S
C427 C419 1.503 . S
C427 C426 1.370 . S
C427 C428 1.403 . S
C428 C427 1.403 . S
C428 C429 1.404 . S
C428 C431 1.539 . S
C429 C425 1.408 . S
C429 C428 1.404 . S
C429 H441 0.930 . S
C430 C426 1.524 . S
C430 H442 0.956 . S
C430 H443 0.961 . S
C430 H444 0.961 . S
C431 C428 1.539 . S
C431 H445 0.958 . S
C431 H446 0.961 . S
C431 H447 0.960 . S
H432 C416 0.931 . S
H433 C421 0.929 . S
H434 C422 0.960 . S
H435 C422 0.962 . S
H436 C422 0.960 . S
H437 C423 0.961 . S
H438 C423 0.961 . S
H439 C423 0.961 . S
H440 C424 0.931 . S
H441 C429 0.930 . S
H442 C430 0.956 . S
H443 C430 0.961 . S
H444 C430 0.961 . S
H445 C431 0.958 . S
H446 C431 0.961 . S
H447 C431 0.960 . S
C448 C449 1.391 . S
C448 C450 1.394 . S
C448 H464 0.931 . S
C449 C448 1.391 . S
C449 C453 1.376 . S
C450 C448 1.394 . S
C450 C451 1.369 . S
C450 C454 1.531 . S
C451 C450 1.369 . S
C451 C452 1.410 . S
C451 C459 1.474 1_455 S
C452 C451 1.410 . S
C452 C453 1.392 . S
C452 C455 1.511 . S
C453 C449 1.376 . S
C453 C452 1.392 . S
C453 H465 0.929 . S
C454 C450 1.531 . S
C454 H466 0.960 . S
C454 H467 0.962 . S
C454 H468 0.960 . S
C455 C452 1.511 . S
C455 H469 0.961 . S
C455 H470 0.961 . S
C455 H471 0.961 . S
C456 C457 1.370 . S
C456 C458 1.363 . S
C456 H472 0.931 . S
C457 C456 1.370 . S
C457 C461 1.408 . S
C458 C456 1.363 . S
C458 C459 1.385 . S
C458 C462 1.524 1_655 S
C459 C451 1.474 1_655 S
C459 C458 1.385 . S
C459 C460 1.418 . S
C460 C459 1.418 . S
C460 C461 1.404 . S
C460 C463 1.539 . S
C461 C457 1.408 . S
C461 C460 1.404 . S
C461 H473 0.930 . S
C462 C458 1.524 1_455 S
C462 H474 0.956 . S
C462 H475 0.961 . S
C462 H476 0.961 1_455 S
C463 C460 1.539 . S
C463 H477 0.958 1_655 S
C463 H478 0.961 . S
C463 H479 0.960 1_655 S
H464 C448 0.931 . S
H465 C453 0.929 . S
H466 C454 0.960 . S
H467 C454 0.962 . S
H468 C454 0.960 . S
H469 C455 0.961 . S
H470 C455 0.961 . S
H471 C455 0.961 . S
H472 C456 0.931 . S
H473 C461 0.930 . S
H474 C462 0.956 . S
H475 C462 0.961 . S
H476 C462 0.961 1_655 S
H477 C463 0.958 1_455 S
H478 C463 0.961 . S
H479 C463 0.960 1_455 S
C480 C481 1.391 1_655 S
C480 C482 1.394 . S
C480 H496 0.931 . S
C481 C480 1.391 1_455 S
C481 C485 1.376 . S
C482 C480 1.394 . S
C482 C483 1.369 1_655 S
C482 C486 1.531 . S
C483 C482 1.369 1_455 S
C483 C484 1.417 . S
C483 C491 1.503 . S
C484 C483 1.417 . S
C484 C485 1.394 . S
C484 C487 1.503 1_565 S
C485 C481 1.376 . S
C485 C484 1.394 . S
C485 H497 0.929 1_565 S
C486 C482 1.531 . S
C486 H498 0.960 . S
C486 H499 0.962 . S
C486 H500 0.960 . S
C487 C484 1.503 1_545 S
C487 H501 0.961 . S
C487 H502 0.961 . S
C487 H503 0.961 1_545 S
C488 C489 1.370 1_655 S
C488 C490 1.363 . S
C488 H504 0.931 . S
C489 C488 1.370 1_455 S
C489 C493 1.408 1_545 S
C490 C488 1.363 . S
C490 C491 1.370 1_645 S
C490 C494 1.524 . S
C491 C483 1.503 . S
C491 C490 1.370 1_465 S
C491 C492 1.403 . S
C492 C491 1.403 . S
C492 C493 1.404 . S
C492 C495 1.539 . S
C493 C489 1.408 1_565 S
C493 C492 1.404 . S
C493 H505 0.930 . S
C494 C490 1.524 . S
C494 H506 0.956 . S
C494 H507 0.961 1_655 S
C494 H508 0.961 . S
C495 C492 1.539 . S
C495 H509 0.958 . S
C495 H510 0.961 . S
C495 H511 0.960 . S
H496 C480 0.931 . S
H497 C485 0.929 1_545 S
H498 C486 0.960 . S
H499 C486 0.962 . S
H500 C486 0.960 . S
H501 C487 0.961 . S
H502 C487 0.961 . S
H503 C487 0.961 1_565 S
H504 C488 0.931 . S
H505 C493 0.930 . S
H506 C494 0.956 . S
H507 C494 0.961 1_455 S
H508 C494 0.961 . S
H509 C495 0.958 . S
H510 C495 0.961 . S
H511 C495 0.960 . S
C512 C513 1.391 . S
C512 C514 1.394 . S
C512 H528 0.931 . S
C513 C512 1.391 . S
C513 C517 1.376 . S
C514 C512 1.394 . S
C514 C515 1.369 . S
C514 C518 1.531 . S
C515 C514 1.369 . S
C515 C516 1.410 . S
C515 C523 1.503 . S
C516 C515 1.410 . S
C516 C517 1.392 . S
C516 C519 1.511 . S
C517 C513 1.376 . S
C517 C516 1.392 . S
C517 H529 0.929 . S
C518 C514 1.531 . S
C518 H530 0.960 . S
C518 H531 0.962 . S
C518 H532 0.960 . S
C519 C516 1.511 . S
C519 H533 0.961 . S
C519 H534 0.961 . S
C519 H535 0.961 . S
C520 C521 1.370 . S
C520 C522 1.363 . S
C520 H536 0.931 . S
C521 C520 1.370 . S
C521 C525 1.408 . S
C522 C520 1.363 . S
C522 C523 1.370 . S
C522 C526 1.524 . S
C523 C515 1.503 . S
C523 C522 1.370 . S
C523 C524 1.403 . S
C524 C523 1.403 . S
C524 C525 1.404 . S
C524 C527 1.539 . S
C525 C521 1.408 . S
C525 C524 1.404 . S
C525 H537 0.930 . S
C526 C522 1.524 . S
C526 H538 0.956 . S
C526 H539 0.961 . S
C526 H540 0.961 . S
C527 C524 1.539 . S
C527 H541 0.958 . S
C527 H542 0.961 . S
C527 H543 0.960 . S
H528 C512 0.931 . S
H529 C517 0.929 . S
H530 C518 0.960 . S
H531 C518 0.962 . S
H532 C518 0.960 . S
H533 C519 0.961 . S
H534 C519 0.961 . S
H535 C519 0.961 . S
H536 C520 0.931 . S
H537 C525 0.930 . S
H538 C526 0.956 . S
H539 C526 0.961 . S
H540 C526 0.961 . S
H541 C527 0.958 . S
H542 C527 0.961 . S
H543 C527 0.960 . S
C544 C545 1.391 . S
C544 C546 1.394 . S
C544 H560 0.931 . S
C545 C544 1.391 . S
C545 C549 1.376 1_565 S
C546 C544 1.394 . S
C546 C547 1.369 . S
C546 C550 1.531 . S
C547 C546 1.369 . S
C547 C548 1.410 1_565 S
C547 C555 1.503 1_554 S
C548 C547 1.410 1_545 S
C548 C549 1.392 . S
C548 C551 1.511 . S
C549 C545 1.376 1_545 S
C549 C548 1.392 . S
C549 H561 0.929 . S
C550 C546 1.531 . S
C550 H562 0.960 1_554 S
C550 H563 0.962 . S
C550 H564 0.960 . S
C551 C548 1.511 . S
C551 H565 0.961 . S
C551 H566 0.961 . S
C551 H567 0.961 . S
C552 C553 1.370 . S
C552 C554 1.363 . S
C552 H568 0.931 . S
C553 C552 1.370 . S
C553 C557 1.408 1_545 S
C554 C552 1.363 . S
C554 C555 1.370 1_545 S
C554 C558 1.524 . S
C555 C547 1.503 1_556 S
C555 C554 1.370 1_565 S
C555 C556 1.403 . S
C556 C555 1.403 . S
C556 C557 1.404 . S
C556 C559 1.539 . S
C557 C553 1.408 1_565 S
C557 C556 1.404 . S
C557 H569 0.930 . S
C558 C554 1.524 . S
C558 H570 0.938 1_556 S
C558 H571 0.961 1_556 S
C558 H572 0.961 . S
C559 C556 1.539 . S
C559 H573 0.958 . S
C559 H574 0.961 . S
C559 H575 0.960 . S
H560 C544 0.931 . S
H561 C549 0.929 . S
H562 C550 0.960 1_556 S
H563 C550 0.962 . S
H564 C550 0.960 . S
H565 C551 0.961 . S
H566 C551 0.961 . S
H567 C551 0.961 . S
H568 C552 0.931 . S
H569 C557 0.930 . S
H570 C558 0.938 1_554 S
H571 C558 0.961 1_554 S
H572 C558 0.961 . S
H573 C559 0.958 . S
H574 C559 0.961 . S
H575 C559 0.960 . S
C576 C577 1.391 . S
C576 C578 1.394 . S
C576 H592 0.931 . S
C577 C576 1.391 . S
C577 C581 1.376 . S
C578 C576 1.394 . S
C578 C579 1.369 . S
C578 C582 1.531 . S
C579 C578 1.369 . S
C579 C580 1.410 . S
C579 C587 1.503 . S
C580 C579 1.410 . S
C580 C581 1.392 . S
C580 C583 1.511 . S
C581 C577 1.376 . S
C581 C580 1.392 . S
C581 H593 0.929 . S
C582 C578 1.531 . S
C582 H594 0.960 . S
C582 H595 0.962 . S
C582 H596 0.960 . S
C583 C580 1.511 . S
C583 H597 0.961 . S
C583 H598 0.961 . S
C583 H599 0.961 . S
C584 C585 1.370 . S
C584 C586 1.363 . S
C584 H600 0.931 . S
C585 C584 1.370 . S
C585 C589 1.408 . S
C586 C584 1.363 . S
C586 C587 1.370 . S
C586 C590 1.524 . S
C587 C579 1.503 . S
C587 C586 1.370 . S
C587 C588 1.403 . S
C588 C587 1.403 . S
C588 C589 1.404 . S
C588 C591 1.539 . S
C589 C585 1.408 . S
C589 C588 1.404 . S
C589 H601 0.930 . S
C590 C586 1.524 . S
C590 H602 0.956 . S
C590 H603 0.961 . S
C590 H604 0.961 . S
C591 C588 1.539 . S
C591 H605 0.958 . S
C591 H606 0.961 . S
C591 H607 0.960 . S
H592 C576 0.931 . S
H593 C581 0.929 . S
H594 C582 0.960 . S
H595 C582 0.962 . S
H596 C582 0.960 . S
H597 C583 0.961 . S
H598 C583 0.961 . S
H599 C583 0.961 . S
H600 C584 0.931 . S
H601 C589 0.930 . S
H602 C590 0.956 . S
H603 C590 0.961 . S
H604 C590 0.961 . S
H605 C591 0.958 . S
H606 C591 0.961 . S
H607 C591 0.960 . S
C608 C609 1.391 . S
C608 C610 1.394 . S
C608 H624 0.931 . S
C609 C608 1.391 . S
C609 C613 1.376 . S
C610 C608 1.394 . S
C610 C611 1.369 . S
C610 C614 1.531 . S
C611 C610 1.369 . S
C611 C612 1.410 . S
C611 C619 1.503 . S
C612 C611 1.410 . S
C612 C613 1.392 . S
C612 C615 1.511 . S
C613 C609 1.376 . S
C613 C612 1.392 . S
C613 H625 0.929 . S
C614 C610 1.531 . S
C614 H626 0.960 . S
C614 H627 0.962 . S
C614 H628 0.960 . S
C615 C612 1.511 . S
C615 H629 0.961 . S
C615 H630 0.961 . S
C615 H631 0.961 . S
C616 C617 1.370 . S
C616 C618 1.363 . S
C616 H632 0.931 . S
C617 C616 1.370 . S
C617 C621 1.408 . S
C618 C616 1.363 . S
C618 C619 1.370 . S
C618 C622 1.524 . S
C619 C611 1.503 . S
C619 C618 1.370 . S
C619 C620 1.403 . S
C620 C619 1.403 . S
C620 C621 1.404 . S
C620 C623 1.539 . S
C621 C617 1.408 . S
C621 C620 1.404 . S
C621 H633 0.930 . S
C622 C618 1.524 . S
C622 H634 0.956 . S
C622 H635 0.961 . S
C622 H636 0.961 . S
C623 C620 1.539 . S
C623 H637 0.958 . S
C623 H638 0.961 . S
C623 H639 0.960 . S
H624 C608 0.931 . S
H625 C613 0.929 . S
H626 C614 0.960 . S
H627 C614 0.962 . S
H628 C614 0.960 . S
H629 C615 0.961 . S
H630 C615 0.961 . S
H631 C615 0.961 . S
H632 C616 0.931 . S
H633 C621 0.930 . S
H634 C622 0.956 . S
H635 C622 0.961 . S
H636 C622 0.961 . S
H637 C623 0.958 . S
H638 C623 0.961 . S
H639 C623 0.960 . S
C640 C641 1.391 . S
C640 C642 1.394 . S
C640 H656 0.931 . S
C641 C640 1.391 . S
C641 C645 1.376 . S
C642 C640 1.394 . S
C642 C643 1.369 . S
C642 C646 1.531 . S
C643 C642 1.369 . S
C643 C644 1.410 . S
C643 C651 1.503 . S
C644 C643 1.410 . S
C644 C645 1.392 . S
C644 C647 1.511 . S
C645 C641 1.376 . S
C645 C644 1.392 . S
C645 H657 0.929 . S
C646 C642 1.531 . S
C646 H658 0.960 . S
C646 H659 0.962 . S
C646 H660 0.960 . S
C647 C644 1.511 . S
C647 H661 0.961 . S
C647 H662 0.961 . S
C647 H663 0.961 . S
C648 C649 1.370 . S
C648 C650 1.363 . S
C648 H664 0.931 . S
C649 C648 1.370 . S
C649 C653 1.408 . S
C650 C648 1.363 . S
C650 C651 1.370 . S
C650 C654 1.524 . S
C651 C643 1.503 . S
C651 C650 1.370 . S
C651 C652 1.403 . S
C652 C651 1.403 . S
C652 C653 1.404 . S
C652 C655 1.539 . S
C653 C649 1.408 . S
C653 C652 1.404 . S
C653 H665 0.930 . S
C654 C650 1.524 . S
C654 H666 0.956 . S
C654 H667 0.961 . S
C654 H668 0.961 . S
C655 C652 1.539 . S
C655 H669 0.958 . S
C655 H670 0.961 . S
C655 H671 0.960 . S
H656 C640 0.931 . S
H657 C645 0.929 . S
H658 C646 0.960 . S
H659 C646 0.962 . S
H660 C646 0.960 . S
H661 C647 0.961 . S
H662 C647 0.961 . S
H663 C647 0.961 . S
H664 C648 0.931 . S
H665 C653 0.930 . S
H666 C654 0.956 . S
H667 C654 0.961 . S
H668 C654 0.961 . S
H669 C655 0.958 . S
H670 C655 0.961 . S
H671 C655 0.960 . S
C672 C673 1.391 . S
C672 C674 1.394 . S
C672 H688 0.931 . S
C673 C672 1.391 . S
C673 C677 1.376 . S
C674 C672 1.394 . S
C674 C675 1.369 . S
C674 C678 1.531 . S
C675 C674 1.369 . S
C675 C676 1.410 . S
C675 C683 1.503 1_556 S
C676 C675 1.410 . S
C676 C677 1.392 . S
C676 C679 1.511 . S
C677 C673 1.376 . S
C677 C676 1.392 . S
C677 H689 0.929 . S
C678 C674 1.531 . S
C678 H690 0.960 . S
C678 H691 0.962 . S
C678 H692 0.960 . S
C679 C676 1.511 . S
C679 H693 0.961 . S
C679 H694 0.961 1_556 S
C679 H695 0.961 . S
C680 C681 1.370 . S
C680 C682 1.363 . S
C680 H696 0.931 . S
C681 C680 1.370 . S
C681 C685 1.408 . S
C682 C680 1.363 . S
C682 C683 1.370 . S
C682 C686 1.524 . S
C683 C675 1.503 1_554 S
C683 C682 1.370 . S
C683 C684 1.403 . S
C684 C683 1.403 . S
C684 C685 1.404 . S
C684 C687 1.539 . S
C685 C681 1.408 . S
C685 C684 1.404 . S
C685 H697 0.930 . S
C686 C682 1.524 . S
C686 H698 0.999 . S
C686 H699 0.961 . S
C686 H700 0.961 . S
C687 C684 1.539 . S
C687 H701 0.958 . S
C687 H702 0.961 . S
C687 H703 0.921 1_554 S
H688 C672 0.931 . S
H689 C677 0.929 . S
H690 C678 0.960 . S
H691 C678 0.962 . S
H692 C678 0.960 . S
H693 C679 0.961 . S
H694 C679 0.961 1_554 S
H695 C679 0.961 . S
H696 C680 0.931 . S
H697 C685 0.930 . S
H698 C686 0.999 . S
H699 C686 0.961 . S
H700 C686 0.961 . S
H701 C687 0.958 . S
H702 C687 0.961 . S
H703 C687 0.921 1_556 S
C704 C705 1.391 . S
C704 C706 1.394 . S
C704 H720 0.931 . S
C705 C704 1.391 . S
C705 C709 1.376 . S
C706 C704 1.394 . S
C706 C707 1.369 . S
C706 C710 1.531 . S
C707 C706 1.369 . S
C707 C708 1.410 . S
C707 C715 1.503 . S
C708 C707 1.410 . S
C708 C709 1.392 . S
C708 C711 1.511 1_455 S
C709 C705 1.376 . S
C709 C708 1.392 . S
C709 H721 0.929 1_455 S
C710 C706 1.531 . S
C710 H722 0.960 . S
C710 H723 0.962 . S
C710 H724 0.960 . S
C711 C708 1.511 1_655 S
C711 H725 0.961 . S
C711 H726 0.961 . S
C711 H727 0.961 . S
C712 C713 1.370 . S
C712 C714 1.363 . S
C712 H728 0.931 . S
C713 C712 1.370 . S
C713 C717 1.408 . S
C714 C712 1.363 . S
C714 C715 1.370 . S
C714 C718 1.524 . S
C715 C707 1.503 . S
C715 C714 1.370 . S
C715 C716 1.403 . S
C716 C715 1.403 . S
C716 C717 1.404 . S
C716 C719 1.539 1_455 S
C717 C713 1.408 . S
C717 C716 1.404 . S
C717 H729 0.930 . S
C718 C714 1.524 . S
C718 H730 0.956 . S
C718 H731 0.961 . S
C718 H732 0.961 . S
C719 C716 1.539 1_655 S
C719 H733 0.958 1_655 S
C719 H734 0.961 . S
C719 H735 0.960 . S
H720 C704 0.931 . S
H721 C709 0.929 1_655 S
H722 C710 0.960 . S
H723 C710 0.962 . S
H724 C710 0.960 . S
H725 C711 0.961 . S
H726 C711 0.961 . S
H727 C711 0.961 . S
H728 C712 0.931 . S
H729 C717 0.930 . S
H730 C718 0.956 . S
H731 C718 0.961 . S
H732 C718 0.961 . S
H733 C719 0.958 1_455 S
H734 C719 0.961 . S
H735 C719 0.960 . S
C736 C737 1.391 . S
C736 C738 1.394 . S
C736 H752 0.931 . S
C737 C736 1.391 . S
C737 C741 1.376 . S
C738 C736 1.394 . S
C738 C739 1.369 . S
C738 C742 1.531 . S
C739 C738 1.369 . S
C739 C740 1.410 . S
C739 C747 1.503 . S
C740 C739 1.410 . S
C740 C741 1.392 . S
C740 C743 1.511 . S
C741 C737 1.376 . S
C741 C740 1.392 . S
C741 H753 0.929 . S
C742 C738 1.531 . S
C742 H754 0.960 . S
C742 H755 0.962 . S
C742 H756 0.960 . S
C743 C740 1.511 . S
C743 H757 0.961 . S
C743 H758 0.961 . S
C743 H759 0.961 . S
C744 C745 1.370 . S
C744 C746 1.363 . S
C744 H760 0.931 . S
C745 C744 1.370 . S
C745 C749 1.408 . S
C746 C744 1.363 . S
C746 C747 1.370 . S
C746 C750 1.524 . S
C747 C739 1.503 . S
C747 C746 1.370 . S
C747 C748 1.403 . S
C748 C747 1.403 . S
C748 C749 1.404 . S
C748 C751 1.539 . S
C749 C745 1.408 . S
C749 C748 1.404 . S
C749 H761 0.930 . S
C750 C746 1.524 . S
C750 H762 0.956 . S
C750 H763 0.961 . S
C750 H764 0.961 . S
C751 C748 1.539 . S
C751 H765 0.958 . S
C751 H766 0.961 . S
C751 H767 0.960 . S
H752 C736 0.931 . S
H753 C741 0.929 . S
H754 C742 0.960 . S
H755 C742 0.962 . S
H756 C742 0.960 . S
H757 C743 0.961 . S
H758 C743 0.961 . S
H759 C743 0.961 . S
H760 C744 0.931 . S
H761 C749 0.930 . S
H762 C750 0.956 . S
H763 C750 0.961 . S
H764 C750 0.961 . S
H765 C751 0.958 . S
H766 C751 0.961 . S
H767 C751 0.960 . S
C768 C769 1.391 . S
C768 C770 1.394 . S
C768 H784 0.931 . S
C769 C768 1.391 . S
C769 C773 1.376 . S
C770 C768 1.394 . S
C770 C771 1.369 . S
C770 C774 1.531 . S
C771 C770 1.369 . S
C771 C772 1.410 . S
C771 C779 1.503 . S
C772 C771 1.410 . S
C772 C773 1.392 . S
C772 C775 1.511 . S
C773 C769 1.376 . S
C773 C772 1.392 . S
C773 H785 0.929 . S
C774 C770 1.531 . S
C774 H786 0.960 . S
C774 H787 0.962 . S
C774 H788 0.960 . S
C775 C772 1.511 . S
C775 H789 0.961 . S
C775 H790 0.961 . S
C775 H791 0.961 . S
C776 C777 1.370 . S
C776 C778 1.363 . S
C776 H792 0.931 . S
C777 C776 1.370 . S
C777 C781 1.408 . S
C778 C776 1.363 . S
C778 C779 1.370 . S
C778 C782 1.524 . S
C779 C771 1.503 . S
C779 C778 1.370 . S
C779 C780 1.403 . S
C780 C779 1.403 . S
C780 C781 1.404 . S
C780 C783 1.539 . S
C781 C777 1.408 . S
C781 C780 1.404 . S
C781 H793 0.930 . S
C782 C778 1.524 . S
C782 H794 0.956 . S
C782 H795 0.961 . S
C782 H796 0.961 . S
C783 C780 1.539 . S
C783 H797 0.958 . S
C783 H798 0.961 . S
C783 H799 0.960 . S
H784 C768 0.931 . S
H785 C773 0.929 . S
H786 C774 0.960 . S
H787 C774 0.962 . S
H788 C774 0.960 . S
H789 C775 0.961 . S
H790 C775 0.961 . S
H791 C775 0.961 . S
H792 C776 0.931 . S
H793 C781 0.930 . S
H794 C782 0.956 . S
H795 C782 0.961 . S
H796 C782 0.961 . S
H797 C783 0.958 . S
H798 C783 0.961 . S
H799 C783 0.960 . S
C800 C801 1.391 . S
C800 C802 1.394 . S
C800 H816 0.931 . S
C801 C800 1.391 . S
C801 C805 1.376 . S
C802 C800 1.394 . S
C802 C803 1.369 . S
C802 C806 1.531 . S
C803 C802 1.369 . S
C803 C804 1.410 . S
C803 C811 1.503 . S
C804 C803 1.410 . S
C804 C805 1.392 . S
C804 C807 1.511 . S
C805 C801 1.376 . S
C805 C804 1.392 . S
C805 H817 0.929 1_545 S
C806 C802 1.531 . S
C806 H818 0.960 . S
C806 H819 0.962 . S
C806 H820 0.960 . S
C807 C804 1.511 . S
C807 H821 0.961 . S
C807 H822 0.961 . S
C807 H823 0.961 . S
C808 C809 1.370 . S
C808 C810 1.363 . S
C808 H824 0.931 . S
C809 C808 1.370 . S
C809 C813 1.408 . S
C810 C808 1.363 . S
C810 C811 1.370 . S
C810 C814 1.524 . S
C811 C803 1.503 . S
C811 C810 1.370 . S
C811 C812 1.403 . S
C812 C811 1.403 . S
C812 C813 1.404 . S
C812 C815 1.539 . S
C813 C809 1.408 . S
C813 C812 1.404 . S
C813 H825 0.930 . S
C814 C810 1.524 . S
C814 H826 0.956 . S
C814 H827 0.961 . S
C814 H828 0.961 . S
C815 C812 1.539 . S
C815 H829 0.958 . S
C815 H830 0.961 . S
C815 H831 0.960 . S
H816 C800 0.931 . S
H817 C805 0.929 1_565 S
H818 C806 0.960 . S
H819 C806 0.962 . S
H820 C806 0.960 . S
H821 C807 0.961 . S
H822 C807 0.961 . S
H823 C807 0.961 . S
H824 C808 0.931 . S
H825 C813 0.930 . S
H826 C814 0.956 . S
H827 C814 0.961 . S
H828 C814 0.961 . S
H829 C815 0.958 . S
H830 C815 0.961 . S
H831 C815 0.960 . S
C832 C833 1.391 . S
C832 C834 1.394 . S
C832 H848 0.931 . S
C833 C832 1.391 . S
C833 C837 1.376 . S
C834 C832 1.394 . S
C834 C835 1.369 . S
C834 C838 1.531 . S
C835 C834 1.369 . S
C835 C836 1.410 . S
C835 C843 1.503 . S
C836 C835 1.410 . S
C836 C837 1.392 . S
C836 C839 1.511 . S
C837 C833 1.376 . S
C837 C836 1.392 . S
C837 H849 0.929 . S
C838 C834 1.531 . S
C838 H850 0.960 . S
C838 H851 0.962 . S
C838 H852 0.960 . S
C839 C836 1.511 . S
C839 H853 0.961 . S
C839 H854 0.961 . S
C839 H855 0.961 . S
C840 C841 1.370 . S
C840 C842 1.363 . S
C840 H856 0.931 . S
C841 C840 1.370 . S
C841 C845 1.408 . S
C842 C840 1.363 . S
C842 C843 1.370 . S
C842 C846 1.524 . S
C843 C835 1.503 . S
C843 C842 1.370 . S
C843 C844 1.403 . S
C844 C843 1.403 . S
C844 C845 1.404 . S
C844 C847 1.539 . S
C845 C841 1.408 . S
C845 C844 1.404 . S
C845 H857 0.930 . S
C846 C842 1.524 . S
C846 H858 0.956 . S
C846 H859 0.961 . S
C846 H860 0.961 . S
C847 C844 1.539 . S
C847 H861 0.958 . S
C847 H862 0.961 . S
C847 H863 0.960 . S
H848 C832 0.931 . S
H849 C837 0.929 . S
H850 C838 0.960 . S
H851 C838 0.962 . S
H852 C838 0.960 . S
H853 C839 0.961 . S
H854 C839 0.961 . S
H855 C839 0.961 . S
H856 C840 0.931 . S
H857 C845 0.930 . S
H858 C846 0.956 . S
H859 C846 0.961 . S
H860 C846 0.961 . S
H861 C847 0.958 . S
H862 C847 0.961 . S
H863 C847 0.960 . S
C864 C865 1.391 . S
C864 C866 1.394 . S
C864 H880 0.931 . S
C865 C864 1.391 . S
C865 C869 1.376 . S
C866 C864 1.394 . S
C866 C867 1.369 . S
C866 C870 1.531 . S
C867 C866 1.369 . S
C867 C868 1.410 . S
C867 C875 1.503 . S
C868 C867 1.410 . S
C868 C869 1.392 . S
C868 C871 1.511 . S
C869 C865 1.376 . S
C869 C868 1.392 . S
C869 H881 0.929 . S
C870 C866 1.531 . S
C870 H882 0.960 . S
C870 H883 0.962 . S
C870 H884 0.960 . S
C871 C868 1.511 . S
C871 H885 0.961 . S
C871 H886 0.961 . S
C871 H887 0.961 . S
C872 C873 1.370 . S
C872 C874 1.363 . S
C872 H888 0.931 . S
C873 C872 1.370 . S
C873 C877 1.408 . S
C874 C872 1.363 . S
C874 C875 1.370 . S
C874 C878 1.524 . S
C875 C867 1.503 . S
C875 C874 1.370 . S
C875 C876 1.403 . S
C876 C875 1.403 . S
C876 C877 1.404 . S
C876 C879 1.539 . S
C877 C873 1.408 . S
C877 C876 1.404 . S
C877 H889 0.930 . S
C878 C874 1.524 . S
C878 H890 0.956 . S
C878 H891 0.961 . S
C878 H892 0.961 . S
C879 C876 1.539 . S
C879 H893 0.958 . S
C879 H894 0.961 . S
C879 H895 0.960 . S
H880 C864 0.931 . S
H881 C869 0.929 . S
H882 C870 0.960 . S
H883 C870 0.962 . S
H884 C870 0.960 . S
H885 C871 0.961 . S
H886 C871 0.961 . S
H887 C871 0.961 . S
H888 C872 0.931 . S
H889 C877 0.930 . S
H890 C878 0.956 . S
H891 C878 0.961 . S
H892 C878 0.961 . S
H893 C879 0.958 . S
H894 C879 0.961 . S
H895 C879 0.960 . S
C896 C897 1.391 . S
C896 C898 1.394 . S
C896 H912 0.931 . S
C897 C896 1.391 . S
C897 C901 1.376 . S
C898 C896 1.394 . S
C898 C899 1.369 . S
C898 C902 1.531 . S
C899 C898 1.369 . S
C899 C900 1.410 . S
C899 C907 1.503 . S
C900 C899 1.410 . S
C900 C901 1.392 . S
C900 C903 1.511 . S
C901 C897 1.376 . S
C901 C900 1.392 . S
C901 H913 0.929 . S
C902 C898 1.531 . S
C902 H914 0.960 . S
C902 H915 0.962 . S
C902 H916 0.960 . S
C903 C900 1.511 . S
C903 H917 0.961 . S
C903 H918 0.961 . S
C903 H919 0.961 . S
C904 C905 1.370 . S
C904 C906 1.363 . S
C904 H920 0.931 . S
C905 C904 1.370 . S
C905 C909 1.408 . S
C906 C904 1.363 . S
C906 C907 1.370 . S
C906 C910 1.524 . S
C907 C899 1.503 . S
C907 C906 1.370 . S
C907 C908 1.403 . S
C908 C907 1.403 . S
C908 C909 1.404 . S
C908 C911 1.539 . S
C909 C905 1.408 . S
C909 C908 1.404 . S
C909 H921 0.930 . S
C910 C906 1.524 . S
C910 H922 0.956 . S
C910 H923 0.961 . S
C910 H924 0.961 . S
C911 C908 1.539 . S
C911 H925 0.958 . S
C911 H926 0.961 . S
C911 H927 0.960 . S
H912 C896 0.931 . S
H913 C901 0.929 . S
H914 C902 0.960 . S
H915 C902 0.962 . S
H916 C902 0.960 . S
H917 C903 0.961 . S
H918 C903 0.961 . S
H919 C903 0.961 . S
H920 C904 0.931 . S
H921 C909 0.930 . S
H922 C910 0.956 . S
H923 C910 0.961 . S
H924 C910 0.961 . S
H925 C911 0.958 . S
H926 C911 0.961 . S
H927 C911 0.960 . S
C928 C929 1.391 . S
C928 C930 1.394 . S
C928 H944 0.931 . S
C929 C928 1.391 . S
C929 C933 1.376 . S
C930 C928 1.394 . S
C930 C931 1.369 . S
C930 C934 1.531 . S
C931 C930 1.369 . S
C931 C932 1.410 . S
C931 C939 1.503 . S
C932 C931 1.410 . S
C932 C933 1.392 . S
C932 C935 1.511 . S
C933 C929 1.376 . S
C933 C932 1.392 . S
C933 H945 0.929 . S
C934 C930 1.531 . S
C934 H946 0.960 . S
C934 H947 0.962 . S
C934 H948 0.960 . S
C935 C932 1.511 . S
C935 H949 0.961 . S
C935 H950 0.961 . S
C935 H951 0.961 . S
C936 C937 1.370 . S
C936 C938 1.363 . S
C936 H952 0.931 . S
C937 C936 1.370 . S
C937 C941 1.408 . S
C938 C936 1.363 . S
C938 C939 1.370 . S
C938 C942 1.524 . S
C939 C931 1.503 . S
C939 C938 1.370 . S
C939 C940 1.403 . S
C940 C939 1.403 . S
C940 C941 1.404 . S
C940 C943 1.539 . S
C941 C937 1.408 . S
C941 C940 1.404 . S
C941 H953 0.930 1_565 S
C942 C938 1.524 . S
C942 H954 0.956 . S
C942 H955 0.961 . S
C942 H956 0.961 . S
C943 C940 1.539 . S
C943 H957 0.958 . S
C943 H958 0.961 1_565 S
C943 H959 0.960 . S
H944 C928 0.931 . S
H945 C933 0.929 . S
H946 C934 0.960 . S
H947 C934 0.962 . S
H948 C934 0.960 . S
H949 C935 0.961 . S
H950 C935 0.961 . S
H951 C935 0.961 . S
H952 C936 0.931 . S
H953 C941 0.930 1_545 S
H954 C942 0.956 . S
H955 C942 0.961 . S
H956 C942 0.961 . S
H957 C943 0.958 . S
H958 C943 0.961 1_545 S
H959 C943 0.960 . S
C960 C961 1.391 . S
C960 C962 1.394 . S
C960 H976 0.931 . S
C961 C960 1.391 . S
C961 C965 1.376 . S
C962 C960 1.394 . S
C962 C963 1.369 . S
C962 C966 1.531 . S
C963 C962 1.369 . S
C963 C964 1.410 . S
C963 C971 1.503 . S
C964 C963 1.410 . S
C964 C965 1.392 . S
C964 C967 1.511 . S
C965 C961 1.376 . S
C965 C964 1.392 . S
C965 H977 0.929 . S
C966 C962 1.531 . S
C966 H978 0.960 . S
C966 H979 0.962 . S
C966 H980 0.960 . S
C967 C964 1.511 . S
C967 H981 0.961 . S
C967 H982 0.961 . S
C967 H983 0.961 . S
C968 C969 1.370 . S
C968 C970 1.363 . S
C968 H984 0.931 . S
C969 C968 1.370 . S
C969 C973 1.408 . S
C970 C968 1.363 . S
C970 C971 1.370 . S
C970 C974 1.524 . S
C971 C963 1.503 . S
C971 C970 1.370 . S
C971 C972 1.403 . S
C972 C971 1.403 . S
C972 C973 1.404 . S
C972 C975 1.539 . S
C973 C969 1.408 . S
C973 C972 1.404 . S
C973 H985 0.930 . S
C974 C970 1.524 . S
C974 H986 0.956 . S
C974 H987 0.961 . S
C974 H988 0.961 . S
C975 C972 1.539 . S
C975 H989 0.958 . S
C975 H990 0.961 . S
C975 H991 0.960 . S
H976 C960 0.931 . S
H977 C965 0.929 . S
H978 C966 0.960 . S
H979 C966 0.962 . S
H980 C966 0.960 . S
H981 C967 0.961 . S
H982 C967 0.961 . S
H983 C967 0.961 . S
H984 C968 0.931 . S
H985 C973 0.930 . S
H986 C974 0.956 . S
H987 C974 0.961 . S
H988 C974 0.961 . S
H989 C975 0.958 . S
H990 C975 0.961 . S
H991 C975 0.960 . S
C992 C993 1.391 . S
C992 C994 1.394 . S
C992 H1008 0.931 . S
C993 C992 1.391 . S
C993 C997 1.376 . S
C994 C992 1.394 . S
C994 C995 1.369 . S
C994 C998 1.531 . S
C995 C994 1.369 . S
C995 C996 1.410 . S
C995 C1003 1.503 . S
C996 C995 1.410 . S
C996 C997 1.392 . S
C996 C999 1.511 . S
C997 C993 1.376 . S
C997 C996 1.392 . S
C997 H1009 0.929 . S
C998 C994 1.531 . S
C998 H1010 0.960 . S
C998 H1011 0.962 . S
C998 H1012 0.960 . S
C999 C996 1.511 . S
C999 H1013 0.961 . S
C999 H1014 0.961 . S
C999 H1015 0.961 . S
C1000 C1001 1.370 . S
C1000 C1002 1.363 . S
C1000 H1016 0.931 . S
C1001 C1000 1.370 . S
C1001 C1005 1.408 . S
C1002 C1000 1.363 . S
C1002 C1003 1.370 . S
C1002 C1006 1.524 . S
C1003 C995 1.503 . S
C1003 C1002 1.370 . S
C1003 C1004 1.403 . S
C1004 C1003 1.403 . S
C1004 C1005 1.404 . S
C1004 C1007 1.539 . S
C1005 C1001 1.408 . S
C1005 C1004 1.404 . S
C1005 H1017 0.930 . S
C1006 C1002 1.524 . S
C1006 H1018 0.956 . S
C1006 H1019 0.961 . S
C1006 H1020 0.961 . S
C1007 C1004 1.539 . S
C1007 H1021 0.958 . S
C1007 H1022 0.961 . S
C1007 H1023 0.960 . S
H1008 C992 0.931 . S
H1009 C997 0.929 . S
H1010 C998 0.960 . S
H1011 C998 0.962 . S
H1012 C998 0.960 . S
H1013 C999 0.961 . S
H1014 C999 0.961 . S
H1015 C999 0.961 . S
H1016 C1000 0.931 . S
H1017 C1005 0.930 . S
H1018 C1006 0.956 . S
H1019 C1006 0.961 . S
H1020 C1006 0.961 . S
H1021 C1007 0.958 . S
H1022 C1007 0.961 . S
H1023 C1007 0.960 . S
C1024 C1025 1.391 . S
C1024 C1026 1.394 . S
C1024 H1040 0.931 . S
C1025 C1024 1.391 . S
C1025 C1029 1.376 . S
C1026 C1024 1.394 . S
C1026 C1027 1.369 . S
C1026 C1030 1.531 . S
C1027 C1026 1.369 . S
C1027 C1028 1.410 . S
C1027 C1035 1.503 . S
C1028 C1027 1.410 . S
C1028 C1029 1.392 . S
C1028 C1031 1.511 . S
C1029 C1025 1.376 . S
C1029 C1028 1.392 . S
C1029 H1041 0.929 . S
C1030 C1026 1.531 . S
C1030 H1042 0.960 . S
C1030 H1043 0.962 . S
C1030 H1044 0.960 . S
C1031 C1028 1.511 . S
C1031 H1045 0.961 . S
C1031 H1046 0.961 . S
C1031 H1047 0.961 . S
C1032 C1033 1.370 . S
C1032 C1034 1.363 . S
C1032 H1048 0.931 . S
C1033 C1032 1.370 . S
C1033 C1037 1.408 . S
C1034 C1032 1.363 . S
C1034 C1035 1.370 . S
C1034 C1038 1.524 . S
C1035 C1027 1.503 . S
C1035 C1034 1.370 . S
C1035 C1036 1.403 . S
C1036 C1035 1.403 . S
C1036 C1037 1.404 . S
C1036 C1039 1.539 . S
C1037 C1033 1.408 . S
C1037 C1036 1.404 . S
C1037 H1049 0.930 . S
C1038 C1034 1.524 . S
C1038 H1050 0.956 . S
C1038 H1051 0.961 . S
C1038 H1052 0.961 . S
C1039 C1036 1.539 . S
C1039 H1053 0.958 . S
C1039 H1054 0.961 . S
C1039 H1055 0.960 . S
H1040 C1024 0.931 . S
H1041 C1029 0.929 . S
H1042 C1030 0.960 . S
H1043 C1030 0.962 . S
H1044 C1030 0.960 . S
H1045 C1031 0.961 . S
H1046 C1031 0.961 . S
H1047 C1031 0.961 . S
H1048 C1032 0.931 . S
H1049 C1037 0.930 . S
H1050 C1038 0.956 . S
H1051 C1038 0.961 . S
H1052 C1038 0.961 . S
H1053 C1039 0.958 . S
H1054 C1039 0.961 . S
H1055 C1039 0.960 . S
C1056 C1057 1.391 . S
C1056 C1058 1.394 . S
C1056 H1072 0.931 . S
C1057 C1056 1.391 . S
C1057 C1061 1.376 . S
C1058 C1056 1.394 . S
C1058 C1059 1.369 . S
C1058 C1062 1.531 . S
C1059 C1058 1.369 . S
C1059 C1060 1.410 . S
C1059 C1067 1.503 . S
C1060 C1059 1.410 . S
C1060 C1061 1.392 . S
C1060 C1063 1.511 . S
C1061 C1057 1.376 . S
C1061 C1060 1.392 . S
C1061 H1073 0.929 . S
C1062 C1058 1.531 . S
C1062 H1074 0.960 . S
C1062 H1075 0.962 . S
C1062 H1076 0.960 . S
C1063 C1060 1.511 . S
C1063 H1077 0.961 . S
C1063 H1078 0.961 . S
C1063 H1079 0.961 . S
C1064 C1065 1.370 . S
C1064 C1066 1.363 . S
C1064 H1080 0.931 . S
C1065 C1064 1.370 . S
C1065 C1069 1.408 . S
C1066 C1064 1.363 . S
C1066 C1067 1.370 . S
C1066 C1070 1.524 . S
C1067 C1059 1.503 . S
C1067 C1066 1.370 . S
C1067 C1068 1.403 . S
C1068 C1067 1.403 . S
C1068 C1069 1.404 . S
C1068 C1071 1.539 . S
C1069 C1065 1.408 . S
C1069 C1068 1.404 . S
C1069 H1081 0.930 . S
C1070 C1066 1.524 . S
C1070 H1082 0.956 . S
C1070 H1083 0.961 . S
C1070 H1084 0.961 . S
C1071 C1068 1.539 . S
C1071 H1085 0.958 . S
C1071 H1086 0.961 . S
C1071 H1087 0.960 . S
H1072 C1056 0.931 . S
H1073 C1061 0.929 . S
H1074 C1062 0.960 . S
H1075 C1062 0.962 . S
H1076 C1062 0.960 . S
H1077 C1063 0.961 . S
H1078 C1063 0.961 . S
H1079 C1063 0.961 . S
H1080 C1064 0.931 . S
H1081 C1069 0.930 . S
H1082 C1070 0.956 . S
H1083 C1070 0.961 . S
H1084 C1070 0.961 . S
H1085 C1071 0.958 . S
H1086 C1071 0.961 . S
H1087 C1071 0.960 . S
C1088 C1089 1.391 . S
C1088 C1090 1.394 . S
C1088 H1104 0.931 . S
C1089 C1088 1.391 . S
C1089 C1093 1.376 . S
C1090 C1088 1.394 . S
C1090 C1091 1.369 . S
C1090 C1094 1.531 . S
C1091 C1090 1.369 . S
C1091 C1092 1.410 . S
C1091 C1099 1.503 . S
C1092 C1091 1.410 . S
C1092 C1093 1.392 . S
C1092 C1095 1.511 . S
C1093 C1089 1.376 . S
C1093 C1092 1.392 . S
C1093 H1105 0.929 . S
C1094 C1090 1.531 . S
C1094 H1106 0.960 . S
C1094 H1107 0.962 . S
C1094 H1108 0.960 . S
C1095 C1092 1.511 . S
C1095 H1109 0.961 . S
C1095 H1110 0.961 . S
C1095 H1111 0.961 . S
C1096 C1097 1.370 . S
C1096 C1098 1.363 . S
C1096 H1112 0.931 . S
C1097 C1096 1.370 . S
C1097 C1101 1.408 . S
C1098 C1096 1.363 . S
C1098 C1099 1.370 . S
C1098 C1102 1.524 . S
C1099 C1091 1.503 . S
C1099 C1098 1.370 . S
C1099 C1100 1.403 . S
C1100 C1099 1.403 . S
C1100 C1101 1.404 . S
C1100 C1103 1.539 . S
C1101 C1097 1.408 . S
C1101 C1100 1.404 . S
C1101 H1113 0.930 . S
C1102 C1098 1.524 . S
C1102 H1114 0.956 . S
C1102 H1115 0.961 . S
C1102 H1116 0.961 . S
C1103 C1100 1.539 . S
C1103 H1117 0.958 . S
C1103 H1118 0.961 . S
C1103 H1119 0.960 . S
H1104 C1088 0.931 . S
H1105 C1093 0.929 . S
H1106 C1094 0.960 . S
H1107 C1094 0.962 . S
H1108 C1094 0.960 . S
H1109 C1095 0.961 . S
H1110 C1095 0.961 . S
H1111 C1095 0.961 . S
H1112 C1096 0.931 . S
H1113 C1101 0.930 . S
H1114 C1102 0.956 . S
H1115 C1102 0.961 . S
H1116 C1102 0.961 . S
H1117 C1103 0.958 . S
H1118 C1103 0.961 . S
H1119 C1103 0.960 . S
C1120 C1121 1.391 . S
C1120 C1122 1.394 . S
C1120 H1136 0.931 . S
C1121 C1120 1.391 . S
C1121 C1125 1.376 . S
C1122 C1120 1.394 . S
C1122 C1123 1.369 . S
C1122 C1126 1.531 . S
C1123 C1122 1.369 . S
C1123 C1124 1.410 . S
C1123 C1131 1.503 . S
C1124 C1123 1.410 . S
C1124 C1125 1.392 . S
C1124 C1127 1.511 . S
C1125 C1121 1.376 . S
C1125 C1124 1.392 . S
C1125 H1137 0.929 . S
C1126 C1122 1.531 . S
C1126 H1138 0.960 . S
C1126 H1139 0.962 . S
C1126 H1140 0.960 . S
C1127 C1124 1.511 . S
C1127 H1141 0.961 . S
C1127 H1142 0.961 . S
C1127 H1143 0.961 . S
C1128 C1129 1.370 . S
C1128 C1130 1.363 . S
C1128 H1144 0.931 . S
C1129 C1128 1.370 . S
C1129 C1133 1.408 . S
C1130 C1128 1.363 . S
C1130 C1131 1.370 . S
C1130 C1134 1.524 . S
C1131 C1123 1.503 . S
C1131 C1130 1.370 . S
C1131 C1132 1.403 . S
C1132 C1131 1.403 . S
C1132 C1133 1.404 . S
C1132 C1135 1.539 . S
C1133 C1129 1.408 . S
C1133 C1132 1.404 . S
C1133 H1145 0.930 . S
C1134 C1130 1.524 . S
C1134 H1146 0.956 . S
C1134 H1147 0.961 . S
C1134 H1148 0.961 . S
C1135 C1132 1.539 . S
C1135 H1149 0.958 . S
C1135 H1150 0.961 . S
C1135 H1151 0.960 . S
H1136 C1120 0.931 . S
H1137 C1125 0.929 . S
H1138 C1126 0.960 . S
H1139 C1126 0.962 . S
H1140 C1126 0.960 . S
H1141 C1127 0.961 . S
H1142 C1127 0.961 . S
H1143 C1127 0.961 . S
H1144 C1128 0.931 . S
H1145 C1133 0.930 . S
H1146 C1134 0.956 . S
H1147 C1134 0.961 . S
H1148 C1134 0.961 . S
H1149 C1135 0.958 . S
H1150 C1135 0.961 . S
H1151 C1135 0.960 . S
C1152 C1153 1.391 . S
C1152 C1154 1.394 . S
C1152 H1168 0.931 . S
C1153 C1152 1.391 . S
C1153 C1157 1.376 . S
C1154 C1152 1.394 . S
C1154 C1155 1.369 . S
C1154 C1158 1.531 . S
C1155 C1154 1.369 . S
C1155 C1156 1.410 . S
C1155 C1163 1.503 . S
C1156 C1155 1.410 . S
C1156 C1157 1.392 . S
C1156 C1159 1.511 . S
C1157 C1153 1.376 . S
C1157 C1156 1.392 . S
C1157 H1169 0.929 . S
C1158 C1154 1.531 . S
C1158 H1170 0.960 . S
C1158 H1171 0.962 . S
C1158 H1172 0.960 . S
C1159 C1156 1.511 . S
C1159 H1173 0.961 . S
C1159 H1174 0.961 . S
C1159 H1175 0.961 . S
C1160 C1161 1.370 . S
C1160 C1162 1.363 . S
C1160 H1176 0.931 . S
C1161 C1160 1.370 . S
C1161 C1165 1.408 . S
C1162 C1160 1.363 . S
C1162 C1163 1.370 . S
C1162 C1166 1.524 . S
C1163 C1155 1.503 . S
C1163 C1162 1.370 . S
C1163 C1164 1.403 . S
C1164 C1163 1.403 . S
C1164 C1165 1.404 . S
C1164 C1167 1.539 . S
C1165 C1161 1.408 . S
C1165 C1164 1.404 . S
C1165 H1177 0.930 . S
C1166 C1162 1.524 . S
C1166 H1178 0.956 . S
C1166 H1179 0.961 . S
C1166 H1180 0.961 . S
C1167 C1164 1.539 . S
C1167 H1181 0.958 . S
C1167 H1182 0.961 . S
C1167 H1183 0.960 . S
H1168 C1152 0.931 . S
H1169 C1157 0.929 . S
H1170 C1158 0.960 . S
H1171 C1158 0.962 . S
H1172 C1158 0.960 . S
H1173 C1159 0.961 . S
H1174 C1159 0.961 . S
H1175 C1159 0.961 . S
H1176 C1160 0.931 . S
H1177 C1165 0.930 . S
H1178 C1166 0.956 . S
H1179 C1166 0.961 . S
H1180 C1166 0.961 . S
H1181 C1167 0.958 . S
H1182 C1167 0.961 . S
H1183 C1167 0.960 . S
C1184 C1185 1.391 . S
C1184 C1186 1.394 . S
C1184 H1200 0.931 . S
C1185 C1184 1.391 . S
C1185 C1189 1.376 . S
C1186 C1184 1.394 . S
C1186 C1187 1.369 . S
C1186 C1190 1.531 . S
C1187 C1186 1.369 . S
C1187 C1188 1.410 . S
C1187 C1195 1.503 . S
C1188 C1187 1.410 . S
C1188 C1189 1.392 . S
C1188 C1191 1.511 . S
C1189 C1185 1.376 . S
C1189 C1188 1.392 . S
C1189 H1201 0.929 . S
C1190 C1186 1.531 . S
C1190 H1202 0.960 . S
C1190 H1203 0.962 . S
C1190 H1204 0.960 . S
C1191 C1188 1.511 . S
C1191 H1205 0.961 . S
C1191 H1206 0.961 . S
C1191 H1207 0.961 . S
C1192 C1193 1.370 . S
C1192 C1194 1.363 . S
C1192 H1208 0.931 . S
C1193 C1192 1.370 . S
C1193 C1197 1.408 . S
C1194 C1192 1.363 . S
C1194 C1195 1.370 . S
C1194 C1198 1.524 . S
C1195 C1187 1.503 . S
C1195 C1194 1.370 . S
C1195 C1196 1.403 . S
C1196 C1195 1.403 . S
C1196 C1197 1.404 . S
C1196 C1199 1.539 . S
C1197 C1193 1.408 . S
C1197 C1196 1.404 . S
C1197 H1209 0.930 . S
C1198 C1194 1.524 . S
C1198 H1210 0.956 . S
C1198 H1211 0.961 . S
C1198 H1212 0.961 . S
C1199 C1196 1.539 . S
C1199 H1213 0.958 . S
C1199 H1214 0.961 . S
C1199 H1215 0.960 . S
H1200 C1184 0.931 . S
H1201 C1189 0.929 . S
H1202 C1190 0.960 . S
H1203 C1190 0.962 . S
H1204 C1190 0.960 . S
H1205 C1191 0.961 . S
H1206 C1191 0.961 . S
H1207 C1191 0.961 . S
H1208 C1192 0.931 . S
H1209 C1197 0.930 . S
H1210 C1198 0.956 . S
H1211 C1198 0.961 . S
H1212 C1198 0.961 . S
H1213 C1199 0.958 . S
H1214 C1199 0.961 . S
H1215 C1199 0.960 . S
C1216 C1217 1.391 . S
C1216 C1218 1.394 . S
C1216 H1232 0.931 . S
C1217 C1216 1.391 . S
C1217 C1221 1.376 . S
C1218 C1216 1.394 . S
C1218 C1219 1.369 . S
C1218 C1222 1.531 . S
C1219 C1218 1.369 . S
C1219 C1220 1.410 . S
C1219 C1227 1.503 . S
C1220 C1219 1.410 . S
C1220 C1221 1.392 . S
C1220 C1223 1.511 . S
C1221 C1217 1.376 . S
C1221 C1220 1.392 . S
C1221 H1233 0.929 . S
C1222 C1218 1.531 . S
C1222 H1234 0.960 . S
C1222 H1235 0.962 . S
C1222 H1236 0.960 . S
C1223 C1220 1.511 . S
C1223 H1237 0.961 . S
C1223 H1238 0.961 . S
C1223 H1239 0.961 . S
C1224 C1225 1.370 . S
C1224 C1226 1.363 . S
C1224 H1240 0.931 . S
C1225 C1224 1.370 . S
C1225 C1229 1.408 . S
C1226 C1224 1.363 . S
C1226 C1227 1.370 . S
C1226 C1230 1.524 . S
C1227 C1219 1.503 . S
C1227 C1226 1.370 . S
C1227 C1228 1.403 . S
C1228 C1227 1.403 . S
C1228 C1229 1.404 . S
C1228 C1231 1.539 . S
C1229 C1225 1.408 . S
C1229 C1228 1.404 . S
C1229 H1241 0.930 . S
C1230 C1226 1.524 . S
C1230 H1242 0.956 . S
C1230 H1243 0.961 . S
C1230 H1244 0.961 . S
C1231 C1228 1.539 . S
C1231 H1245 0.958 . S
C1231 H1246 0.961 . S
C1231 H1247 0.960 . S
H1232 C1216 0.931 . S
H1233 C1221 0.929 . S
H1234 C1222 0.960 . S
H1235 C1222 0.962 . S
H1236 C1222 0.960 . S
H1237 C1223 0.961 . S
H1238 C1223 0.961 . S
H1239 C1223 0.961 . S
H1240 C1224 0.931 . S
H1241 C1229 0.930 . S
H1242 C1230 0.956 . S
H1243 C1230 0.961 . S
H1244 C1230 0.961 . S
H1245 C1231 0.958 . S
H1246 C1231 0.961 . S
H1247 C1231 0.960 . S
C225 C11 1.052 . S
C233 C193 1.056 . S
C257 C165 1.057 . S
C265 C25 1.046 . S
C289 C179 1.064 . S
C297 C39 1.048 . S
C321 C151 1.061 . S
C329 C53 1.046 . S
C353 C67 1.054 . S
C361 C221 1.046 . S
C385 C81 1.062 . S
C393 C137 1.047 . S
C417 C207 1.055 . S
C425 C95 1.046 . S
C449 C109 1.039 . S
C457 C123 1.051 . S
C481 C69 1.515 . S
C489 C13 1.470 . S
C513 C27 1.474 . S
C521 C83 1.484 . S
C545 C41 1.500 . S
C553 C97 1.475 . S
C577 C111 1.450 . S
C585 C55 1.496 . S
C609 C125 1.457 . S
C617 C153 1.492 . S
C641 C139 1.511 . S
C649 C167 1.481 . S
C673 C209 1.479 . S
C681 C181 1.495 . S
C705 C195 1.510 . S
C713 C223 1.472 . S
C737 C77 1.371 . S
C745 C7 1.352 . S
C769 C21 1.343 . S
C777 C91 1.375 . S
C801 C35 1.343 . S
C809 C105 1.375 . S
C833 C63 1.390 . S
C841 C49 1.362 . S
C865 C64 1.220 . S
C873 C148 1.249 . S
C897 C36 1.290 . S
C905 C120 1.256 . S
C929 C162 1.282 . S
C937 C92 1.265 . S
C961 C134 1.269 . S
C969 C8 1.241 . S
C993 C119 1.338 . S
C1001 C175 1.374 . S
C1025 C147 1.355 . S
C1033 C217 1.377 . S
C1057 C189 1.332 . S
C1065 C133 1.368 . S
C1089 C161 1.365 . S
C1097 C203 1.375 . S
C1121 C204 1.259 . S
C1129 C22 1.271 . S
C1153 C190 1.237 . S
C1161 C78 1.271 . S
C1185 C218 1.244 . S
C1193 C50 1.271 . S
C1217 C176 1.241 . S
C1225 C106 1.242 . S
