# Generated by pormake.
# Topology vby, (6)-cn, num edge types: 1
# Building blocks:
#     Node 0, Type 0, BuildingBlock: FUNLAD_clean_sbu_0, # of connection points: 6
#     Node 1, Type 0, BuildingBlock: FUNLAD_clean_sbu_0, # of connection points: 6
#     Node 2, Type 0, BuildingBlock: FUNLAD_clean_sbu_0, # of connection points: 6
#     Node 3, Type 0, BuildingBlock: FUNLAD_clean_sbu_0, # of connection points: 6
#     Node 4, Type 0, BuildingBlock: FUNLAD_clean_sbu_0, # of connection points: 6
#     Node 5, Type 0, BuildingBlock: FUNLAD_clean_sbu_0, # of connection points: 6
#     Node 6, Type 0, BuildingBlock: FUNLAD_clean_sbu_0, # of connection points: 6
#     Node 7, Type 0, BuildingBlock: FUNLAD_clean_sbu_0, # of connection points: 6
#     Edge 8, Type (0, 0), BuildingBlock: UVAHIK_clean_linker_0, # of connection points: 2
#     Edge 9, Type (0, 0), BuildingBlock: UVAHIK_clean_linker_0, # of connection points: 2
#     Edge 10, Type (0, 0), BuildingBlock: UVAHIK_clean_linker_0, # of connection points: 2
#     Edge 11, Type (0, 0), BuildingBlock: UVAHIK_clean_linker_0, # of connection points: 2
#     Edge 12, Type (0, 0), BuildingBlock: UVAHIK_clean_linker_0, # of connection points: 2
#     Edge 13, Type (0, 0), BuildingBlock: UVAHIK_clean_linker_0, # of connection points: 2
#     Edge 14, Type (0, 0), BuildingBlock: UVAHIK_clean_linker_0, # of connection points: 2
#     Edge 15, Type (0, 0), BuildingBlock: UVAHIK_clean_linker_0, # of connection points: 2
#     Edge 16, Type (0, 0), BuildingBlock: UVAHIK_clean_linker_0, # of connection points: 2
#     Edge 17, Type (0, 0), BuildingBlock: UVAHIK_clean_linker_0, # of connection points: 2
#     Edge 18, Type (0, 0), BuildingBlock: UVAHIK_clean_linker_0, # of connection points: 2
#     Edge 19, Type (0, 0), BuildingBlock: UVAHIK_clean_linker_0, # of connection points: 2
#     Edge 20, Type (0, 0), BuildingBlock: UVAHIK_clean_linker_0, # of connection points: 2
#     Edge 21, Type (0, 0), BuildingBlock: UVAHIK_clean_linker_0, # of connection points: 2
#     Edge 22, Type (0, 0), BuildingBlock: UVAHIK_clean_linker_0, # of connection points: 2
#     Edge 23, Type (0, 0), BuildingBlock: UVAHIK_clean_linker_0, # of connection points: 2
#     Edge 24, Type (0, 0), BuildingBlock: UVAHIK_clean_linker_0, # of connection points: 2
#     Edge 25, Type (0, 0), BuildingBlock: UVAHIK_clean_linker_0, # of connection points: 2
#     Edge 26, Type (0, 0), BuildingBlock: UVAHIK_clean_linker_0, # of connection points: 2
#     Edge 27, Type (0, 0), BuildingBlock: UVAHIK_clean_linker_0, # of connection points: 2
#     Edge 28, Type (0, 0), BuildingBlock: UVAHIK_clean_linker_0, # of connection points: 2
#     Edge 29, Type (0, 0), BuildingBlock: UVAHIK_clean_linker_0, # of connection points: 2
#     Edge 30, Type (0, 0), BuildingBlock: UVAHIK_clean_linker_0, # of connection points: 2
#     Edge 31, Type (0, 0), BuildingBlock: UVAHIK_clean_linker_0, # of connection points: 2
# Relax obj value: 0.056
# Max RMSD: 0.113
# Mean RMSD: 0.108
data_MOF--net-vby--node1-FUNLAD_clean_sbu_0--edge1-UVAHIK_clean_linker_0
_symmetry_space_group_name_H-M    P1
_symmetry_Int_Tables_number       1
_symmetry_cell_setting            triclinic
loop_
_symmetry_equiv_pos_as_xyz
'x, y, z'
_cell_length_a     19.243449
_cell_length_b     75.084249
_cell_length_c     52.608856
_cell_angle_alpha  88.174993
_cell_angle_beta   90.108941
_cell_angle_gamma 89.845084
loop_
_atom_site_label
_atom_site_type_symbol
_atom_site_fract_x
_atom_site_fract_y
_atom_site_fract_z
_atom_type_partial_charge
C0 C 0.97606 0.40428 0.00756 0.0
N1 N 0.01133 0.36798 0.06834 0.0
C2 C 0.0435 0.38127 0.08079 0.0
C3 C 0.04181 0.38161 0.10731 0.0
C4 C 0.00616 0.36822 0.12124 0.0
C5 C 0.97385 0.3546 0.10784 0.0
C6 C 0.97733 0.3547 0.08132 0.0
Zn7 Zn 0.01154 0.36835 0.02939 0.0
C8 C 0.87506 0.35946 0.00839 0.0
N9 N 0.01048 0.36952 0.94801 0.0
C10 C 0.04272 0.38287 0.93453 0.0
C11 C 0.97659 0.35629 0.93604 0.0
C12 C 0.97366 0.35622 0.90953 0.0
C13 C 0.00649 0.36981 0.89506 0.0
C14 C 0.04157 0.38324 0.90795 0.0
Zn15 Zn 0.01138 0.36918 0.98695 0.0
O16 O -0.01667 0.39552 0.02847 0.0
C17 C 0.14772 0.37815 0.00797 0.0
O18 O -0.01639 0.39639 0.98672 0.0
H19 H 0.95128 0.34579 0.94707 0.0
H20 H 0.07022 0.39172 0.07013 0.0
H21 H 0.06942 0.39326 0.94441 0.0
O22 O 0.1159 0.37556 0.02885 0.0
O23 O 0.1159 0.37628 0.98707 0.0
H24 H 0.95203 0.34426 0.07108 0.0
O25 O 0.04075 0.34207 0.98787 0.0
O26 O 0.04132 0.34126 0.02962 0.0
O27 O 0.9068 0.36211 0.98751 0.0
O28 O 0.90709 0.3612 0.02924 0.0
C29 C 0.05092 0.33351 0.00878 0.0
H30 H 0.06849 0.39222 0.11676 0.0
H31 H 0.9449 0.34413 0.11765 0.0
H32 H 0.94501 0.34574 0.90054 0.0
H33 H 0.06849 0.39385 0.89766 0.0
C34 C -0.01584 0.595 0.00997 0.0
N35 N 0.95039 0.62968 0.06968 0.0
C36 C 0.91821 0.61631 0.08313 0.0
C37 C 0.91938 0.61591 0.10971 0.0
C38 C 0.95443 0.62934 0.12263 0.0
C39 C -0.01276 0.64294 0.10817 0.0
C40 C -0.01571 0.6429 0.08167 0.0
Zn41 Zn 0.94925 0.63008 0.03073 0.0
C42 C 0.08521 0.63982 0.00916 0.0
N43 N 0.9485 0.6314 0.94934 0.0
C44 C 0.91648 0.61815 0.93673 0.0
C45 C -0.01707 0.6447 0.93652 0.0
C46 C -0.01262 0.64479 0.91003 0.0
C47 C 0.95551 0.63118 0.89655 0.0
C48 C 0.91904 0.61784 0.9102 0.0
Zn49 Zn 0.94835 0.63095 0.98829 0.0
O50 O 0.97706 0.60287 0.03084 0.0
C51 C 0.81253 0.62113 0.00989 0.0
O52 O 0.97647 0.60377 0.98909 0.0
H53 H 0.00774 0.65515 0.94687 0.0
H54 H 0.8915 0.60593 0.07324 0.0
H55 H 0.88973 0.60766 0.94727 0.0
O56 O 0.84481 0.62296 0.03069 0.0
O57 O 0.84391 0.62376 0.98891 0.0
H58 H 0.00955 0.65341 0.07065 0.0
O59 O 0.91869 0.65803 0.98818 0.0
O60 O 0.9198 0.65719 0.02993 0.0
O61 O 0.05287 0.63808 0.98837 0.0
O62 O 0.05377 0.63716 0.03009 0.0
C63 C 0.90937 0.66577 0.00905 0.0
H64 H 0.89248 0.60529 0.11999 0.0
H65 H 0.01587 0.65342 0.11719 0.0
H66 H 0.0153 0.65544 0.90018 0.0
H67 H 0.89425 0.60703 0.90053 0.0
C68 C 0.97846 0.59491 0.51023 0.0
N69 N 0.01234 0.63117 0.44941 0.0
C70 C 0.04448 0.61788 0.43687 0.0
C71 C 0.04181 0.61752 0.41035 0.0
C72 C 0.00509 0.63086 0.39662 0.0
C73 C 0.973 0.6445 0.41002 0.0
C74 C 0.97757 0.64444 0.43652 0.0
Zn75 Zn 0.01319 0.63082 0.48835 0.0
C76 C 0.87675 0.63977 0.50937 0.0
N77 N 0.01298 0.62974 0.56974 0.0
C78 C 0.04539 0.61638 0.58329 0.0
C79 C 0.97897 0.64301 0.58164 0.0
C80 C 0.97603 0.64311 0.60813 0.0
C81 C 0.00897 0.62951 0.62269 0.0
C82 C 0.04423 0.61604 0.60987 0.0
Zn83 Zn 0.0135 0.63002 0.5308 0.0
O84 O -0.01461 0.60366 0.48931 0.0
C85 C 0.14977 0.621 0.50976 0.0
O86 O -0.01385 0.6028 0.53106 0.0
H87 H 0.95352 0.65351 0.57055 0.0
H88 H 0.07149 0.6074 0.44747 0.0
H89 H 0.07218 0.60596 0.57347 0.0
O90 O 0.11768 0.62358 0.48887 0.0
O91 O 0.11813 0.6229 0.53065 0.0
H92 H 0.95267 0.65493 0.44681 0.0
O93 O 0.04245 0.65714 0.52982 0.0
O94 O 0.04254 0.6579 0.48806 0.0
O95 O 0.90877 0.63713 0.53024 0.0
O96 O 0.9086 0.63801 0.48852 0.0
C97 C 0.05227 0.66567 0.50888 0.0
H98 H 0.06676 0.60669 0.40073 0.0
H99 H 0.94487 0.65514 0.40011 0.0
H100 H 0.94723 0.65361 0.61706 0.0
H101 H 0.07123 0.60542 0.62023 0.0
C102 C 0.90821 0.33334 0.50878 0.0
N103 N 0.9482 0.3693 0.44799 0.0
C104 C -0.01714 0.35609 0.43618 0.0
C105 C -0.01274 0.35616 0.40971 0.0
C106 C 0.95512 0.36985 0.39518 0.0
C107 C 0.91862 0.38316 0.40779 0.0
C108 C 0.91611 0.38268 0.43437 0.0
Zn109 Zn 0.94706 0.36899 0.48694 0.0
C110 C 0.81072 0.37802 0.5078 0.0
N111 N 0.94767 0.36783 0.56832 0.0
C112 C -0.01766 0.35455 0.58123 0.0
C113 C 0.91552 0.38113 0.58084 0.0
C114 C 0.91813 0.38149 0.60736 0.0
C115 C 0.9548 0.36815 0.6211 0.0
C116 C -0.01315 0.3545 0.60772 0.0
Zn117 Zn 0.94721 0.3682 0.52938 0.0
O118 O 0.91811 0.34187 0.48785 0.0
C119 C 0.08373 0.35924 0.50853 0.0
O120 O 0.91784 0.34112 0.5296 0.0
H121 H 0.88858 0.39162 0.57023 0.0
H122 H 0.00762 0.34551 0.44733 0.0
H123 H 0.00725 0.34405 0.57095 0.0
O124 O 0.05179 0.36188 0.48764 0.0
O125 O 0.0518 0.36101 0.52936 0.0
H126 H 0.88906 0.39309 0.44412 0.0
O127 O 0.97503 0.39535 0.52848 0.0
O128 O 0.9744 0.39621 0.48673 0.0
O129 O 0.84273 0.37545 0.52871 0.0
O130 O 0.84243 0.37612 0.48692 0.0
C131 C -0.01797 0.4041 0.50757 0.0
H132 H 0.01515 0.34552 0.4007 0.0
H133 H 0.89355 0.39402 0.39726 0.0
H134 H 0.89321 0.39233 0.61697 0.0
H135 H 0.01494 0.34386 0.61765 0.0
C136 C 0.47586 0.90426 0.00806 0.0
N137 N 0.51062 0.86802 0.06895 0.0
C138 C 0.54273 0.88131 0.08141 0.0
C139 C 0.54087 0.88166 0.10793 0.0
C140 C 0.50511 0.86828 0.12185 0.0
C141 C 0.47286 0.85466 0.10843 0.0
C142 C 0.47651 0.85475 0.08192 0.0
Zn143 Zn 0.51115 0.86835 0.03001 0.0
C144 C 0.3748 0.85943 0.00889 0.0
N145 N 0.51065 0.86942 0.94862 0.0
C146 C 0.54298 0.88277 0.93516 0.0
C147 C 0.47686 0.85619 0.93663 0.0
C148 C 0.4741 0.8561 0.91013 0.0
C149 C 0.50699 0.86969 0.89567 0.0
C150 C 0.542 0.88313 0.90858 0.0
Zn151 Zn 0.51124 0.86912 0.98756 0.0
O152 O 0.48299 0.89552 0.029 0.0
C153 C 0.64747 0.8781 0.00869 0.0
O154 O 0.48351 0.89634 0.98725 0.0
H155 H 0.45147 0.84569 0.94765 0.0
H156 H 0.56954 0.89175 0.07077 0.0
H157 H 0.5696 0.89316 0.94505 0.0
O158 O 0.61554 0.87554 0.02956 0.0
O159 O 0.61574 0.87621 0.98778 0.0
H160 H 0.45127 0.8443 0.07167 0.0
O161 O 0.54058 0.84201 0.98857 0.0
O162 O 0.54089 0.84125 0.03033 0.0
O163 O 0.40665 0.86206 0.98803 0.0
O164 O 0.40671 0.8612 0.02976 0.0
C165 C 0.55061 0.83347 0.00952 0.0
H166 H 0.56751 0.89227 0.1174 0.0
H167 H 0.44384 0.8442 0.11823 0.0
H168 H 0.44549 0.84562 0.90112 0.0
H169 H 0.56896 0.89374 0.8983 0.0
C170 C 0.48446 0.09503 0.00874 0.0
N171 N 0.45053 0.12977 0.06838 0.0
C172 C 0.4185 0.11642 0.0819 0.0
C173 C 0.42005 0.11603 0.10848 0.0
C174 C 0.45532 0.12946 0.12132 0.0
C175 C 0.48793 0.14306 0.10679 0.0
C176 C 0.4846 0.143 0.08029 0.0
Zn177 Zn 0.44929 0.13013 0.02944 0.0
C178 C 0.5855 0.13986 0.00791 0.0
N179 N 0.44896 0.1314 0.94805 0.0
C180 C 0.41683 0.11815 0.93548 0.0
C181 C 0.48321 0.14471 0.93519 0.0
C182 C 0.48728 0.14483 0.9087 0.0
C183 C 0.45523 0.13123 0.89526 0.0
C184 C 0.41902 0.11786 0.90895 0.0
Zn185 Zn 0.44888 0.13097 0.987 0.0
O186 O 0.47701 0.10292 0.02959 0.0
C187 C 0.31283 0.12117 0.00851 0.0
O188 O 0.4771 0.1038 0.98784 0.0
H189 H 0.50809 0.15517 0.94552 0.0
H190 H 0.39168 0.10602 0.07207 0.0
H191 H 0.39022 0.10764 0.94606 0.0
O192 O 0.34476 0.12304 0.02938 0.0
O193 O 0.34455 0.12375 0.9876 0.0
H194 H 0.50974 0.1535 0.06922 0.0
O195 O 0.41909 0.15806 0.98685 0.0
O196 O 0.41996 0.15724 0.0286 0.0
O197 O 0.55335 0.13812 0.98708 0.0
O198 O 0.55387 0.1372 0.0288 0.0
C199 C 0.40965 0.16581 0.0077 0.0
H200 H 0.3933 0.10542 0.11882 0.0
H201 H 0.51672 0.15353 0.11573 0.0
H202 H 0.51502 0.15549 0.89881 0.0
H203 H 0.39411 0.10706 0.8993 0.0
C204 C 0.47812 0.09501 0.50896 0.0
N205 N 0.51268 0.1312 0.4481 0.0
C206 C 0.54498 0.11791 0.43563 0.0
C207 C 0.54268 0.11755 0.4091 0.0
C208 C 0.50619 0.1309 0.39531 0.0
C209 C 0.47395 0.14454 0.40865 0.0
C210 C 0.47814 0.14449 0.43515 0.0
Zn211 Zn 0.51299 0.13088 0.48704 0.0
C212 C 0.37637 0.13987 0.50781 0.0
N213 N 0.51184 0.12992 0.56842 0.0
C214 C 0.54405 0.11658 0.58205 0.0
C215 C 0.47758 0.1432 0.58021 0.0
C216 C 0.47416 0.14331 0.6067 0.0
C217 C 0.50689 0.12972 0.62134 0.0
C218 C 0.54242 0.11625 0.60863 0.0
Zn219 Zn 0.51294 0.13017 0.52948 0.0
O220 O 0.48521 0.10372 0.48802 0.0
C221 C 0.64939 0.1211 0.5087 0.0
O222 O 0.48562 0.10295 0.52977 0.0
H223 H 0.45229 0.15369 0.56905 0.0
H224 H 0.57183 0.10742 0.44627 0.0
H225 H 0.57103 0.10615 0.57231 0.0
O226 O 0.61746 0.12364 0.48776 0.0
O227 O 0.61759 0.12304 0.52954 0.0
H228 H 0.45314 0.15498 0.4454 0.0
O229 O 0.54187 0.15728 0.52849 0.0
O230 O 0.54233 0.15797 0.48674 0.0
O231 O 0.40822 0.13727 0.52872 0.0
O232 O 0.40838 0.13807 0.48701 0.0
C233 C 0.55187 0.16578 0.50754 0.0
H234 H 0.56775 0.10672 0.39952 0.0
H235 H 0.44599 0.15519 0.39869 0.0
H236 H 0.44518 0.15382 0.61554 0.0
H237 H 0.56928 0.10564 0.61906 0.0
C238 C 0.40795 0.83336 0.50926 0.0
N239 N 0.44862 0.8694 0.44863 0.0
C240 C 0.48333 0.8562 0.4368 0.0
C241 C 0.48768 0.85629 0.41033 0.0
C242 C 0.45544 0.86998 0.39581 0.0
C243 C 0.41897 0.88328 0.40845 0.0
C244 C 0.41651 0.88279 0.43502 0.0
Zn245 Zn 0.44712 0.86903 0.48757 0.0
C246 C 0.31038 0.87803 0.50819 0.0
N247 N 0.44662 0.86777 0.56896 0.0
C248 C 0.48127 0.85448 0.58184 0.0
C249 C 0.41445 0.88105 0.58151 0.0
C250 C 0.41712 0.8814 0.60803 0.0
C251 C 0.45386 0.86806 0.62174 0.0
C252 C 0.48584 0.85441 0.60833 0.0
Zn253 Zn 0.44652 0.8682 0.53001 0.0
O254 O 0.41813 0.84191 0.48836 0.0
C255 C 0.58342 0.85927 0.50937 0.0
O256 O 0.41728 0.84112 0.53012 0.0
H257 H 0.38752 0.89156 0.57091 0.0
H258 H 0.50809 0.84562 0.44793 0.0
H259 H 0.50619 0.844 0.57154 0.0
O260 O 0.5518 0.86192 0.48842 0.0
O261 O 0.55117 0.86103 0.53014 0.0
H262 H 0.38942 0.89318 0.44479 0.0
O263 O 0.47423 0.89537 0.52922 0.0
O264 O 0.47447 0.89624 0.48747 0.0
O265 O 0.34195 0.87543 0.52919 0.0
O266 O 0.34256 0.87617 0.4874 0.0
C267 C 0.48165 0.90413 0.50834 0.0
H268 H 0.51555 0.84566 0.40129 0.0
H269 H 0.39384 0.89414 0.39793 0.0
H270 H 0.39223 0.89224 0.61766 0.0
H271 H 0.51396 0.84376 0.61823 0.0
C272 C 0.2599 0.38146 0.98507 0.0
C273 C 0.22283 0.38119 0.00803 0.0
C274 C 0.33206 0.38052 0.98537 0.0
C275 C 0.46562 0.36083 0.02544 0.0
H276 H 0.59247 0.3846 0.97843 0.0
C277 C 0.76298 0.35638 0.03139 0.0
C278 C 0.79981 0.35663 0.00838 0.0
C279 C 0.69089 0.35759 0.0312 0.0
C280 C 0.55726 0.37768 0.99137 0.0
H281 H 0.23168 0.38176 0.04918 0.0
H282 H 0.35809 0.38024 0.04959 0.0
H283 H 0.47086 0.39381 0.97926 0.0
H284 H 0.79049 0.35634 0.96723 0.0
H285 H 0.66416 0.35829 0.96701 0.0
H286 H 0.55195 0.34468 0.03753 0.0
C287 C 0.33116 0.38074 0.03147 0.0
C288 C 0.48812 0.38306 0.99199 0.0
C289 C 0.25902 0.38167 0.0312 0.0
C290 C 0.76334 0.35641 0.98525 0.0
C291 C 0.69125 0.35761 0.98509 0.0
C292 C 0.53474 0.35545 0.02482 0.0
C293 C 0.36785 0.37937 0.00861 0.0
C294 C 0.44189 0.37468 0.00904 0.0
C295 C 0.65489 0.35899 0.00802 0.0
C296 C 0.58096 0.36381 0.00774 0.0
H297 H 0.23325 0.38127 0.96693 0.0
H298 H 0.35937 0.37947 0.96749 0.0
H299 H 0.4304 0.3539 0.03837 0.0
H300 H 0.78984 0.35638 0.04951 0.0
H301 H 0.66384 0.35863 0.04914 0.0
C302 C 0.19665 0.64344 0.98586 0.0
C303 C 0.16044 0.64268 0.009 0.0
C304 C 0.26875 0.64228 0.98574 0.0
C305 C 0.42566 0.64362 0.02542 0.0
H306 H 0.4892 0.60618 0.98172 0.0
C307 C 0.70137 0.61717 0.03326 0.0
C308 C 0.73741 0.61811 0.01008 0.0
C309 C 0.62923 0.61813 0.03345 0.0
C310 C 0.47203 0.61667 0.99393 0.0
H311 H 0.17086 0.64201 0.05015 0.0
H312 H 0.29686 0.63983 0.04988 0.0
H313 H 0.36762 0.61544 0.98036 0.0
H314 H 0.72671 0.61889 0.96895 0.0
H315 H 0.60062 0.62073 0.96935 0.0
H316 H 0.53007 0.64486 0.03899 0.0
C317 C 0.26961 0.64126 0.03188 0.0
C318 C 0.40291 0.62208 0.993 0.0
C319 C 0.19752 0.64242 0.03202 0.0
C320 C 0.70017 0.61835 0.9871 0.0
C321 C 0.62804 0.61931 0.98731 0.0
C322 C 0.49477 0.6382 0.02636 0.0
C323 C 0.30537 0.64041 0.00875 0.0
C324 C 0.37932 0.63561 0.00871 0.0
C325 C 0.5924 0.61999 0.01049 0.0
C326 C 0.51837 0.62469 0.01063 0.0
H327 H 0.1693 0.6439 0.96783 0.0
H328 H 0.29567 0.64202 0.96769 0.0
H329 H 0.40853 0.65412 0.03761 0.0
H330 H 0.72883 0.61671 0.05126 0.0
H331 H 0.60242 0.61827 0.05153 0.0
C332 C 0.76522 0.64286 0.5325 0.0
C333 C 0.80145 0.64262 0.50938 0.0
C334 C 0.69315 0.64168 0.53267 0.0
C335 C 0.53616 0.64381 0.49293 0.0
H336 H 0.47355 0.60549 0.53856 0.0
C337 C 0.26097 0.61752 0.48655 0.0
C338 C 0.22497 0.61798 0.5097 0.0
C339 C 0.33308 0.61849 0.48628 0.0
C340 C 0.49045 0.61623 0.52581 0.0
H341 H 0.79104 0.64283 0.46825 0.0
H342 H 0.66508 0.6406 0.46862 0.0
H343 H 0.59495 0.61471 0.53939 0.0
H344 H 0.23577 0.61792 0.55081 0.0
H345 H 0.36183 0.61978 0.55027 0.0
H346 H 0.43166 0.64534 0.47936 0.0
C347 C 0.6923 0.64165 0.48655 0.0
C348 C 0.55948 0.62161 0.52643 0.0
C349 C 0.76437 0.64285 0.48637 0.0
C350 C 0.26226 0.61774 0.53267 0.0
C351 C 0.33438 0.61872 0.53239 0.0
C352 C 0.46715 0.63842 0.49231 0.0
C353 C 0.65657 0.64028 0.50974 0.0
C354 C 0.58273 0.63547 0.51003 0.0
C355 C 0.36994 0.61989 0.50915 0.0
C356 C 0.44387 0.62459 0.50873 0.0
H357 H 0.79255 0.64295 0.55052 0.0
H358 H 0.66626 0.64102 0.55075 0.0
H359 H 0.55301 0.65457 0.4802 0.0
H360 H 0.23346 0.61743 0.46856 0.0
H361 H 0.35983 0.619 0.46817 0.0
C362 C 0.69956 0.38165 0.53098 0.0
C363 C 0.73553 0.38106 0.50783 0.0
C364 C 0.62745 0.3807 0.53127 0.0
C365 C 0.47001 0.38276 0.49178 0.0
H366 H 0.40752 0.34466 0.53782 0.0
C367 C 0.19526 0.35606 0.48544 0.0
C368 C 0.15904 0.35641 0.50855 0.0
C369 C 0.26732 0.35726 0.48525 0.0
C370 C 0.42435 0.35535 0.52497 0.0
H371 H 0.72467 0.38089 0.46673 0.0
H372 H 0.5986 0.37905 0.46732 0.0
H373 H 0.52888 0.3539 0.53853 0.0
H374 H 0.16947 0.35641 0.54967 0.0
H375 H 0.29543 0.35867 0.54926 0.0
H376 H 0.36548 0.3842 0.47821 0.0
C377 C 0.62608 0.38021 0.48518 0.0
C378 C 0.49336 0.36074 0.52551 0.0
C379 C 0.6982 0.38118 0.48487 0.0
C380 C 0.19614 0.35631 0.53156 0.0
C381 C 0.26821 0.35752 0.53135 0.0
C382 C 0.40098 0.37737 0.49124 0.0
C383 C 0.59056 0.37918 0.50844 0.0
C384 C 0.51662 0.37448 0.50893 0.0
C385 C 0.30392 0.35878 0.50815 0.0
C386 C 0.37775 0.36361 0.5078 0.0
H387 H 0.7271 0.38185 0.54895 0.0
H388 H 0.60073 0.3803 0.54939 0.0
H389 H 0.48689 0.39343 0.4789 0.0
H390 H 0.16792 0.35587 0.46742 0.0
H391 H 0.2942 0.35783 0.46716 0.0
C392 C 0.75884 0.88143 0.03195 0.0
C393 C 0.7226 0.88111 0.00878 0.0
C394 C 0.83097 0.88045 0.0322 0.0
C395 C -0.01215 0.88296 0.99269 0.0
H396 H 0.0517 0.84433 0.0378 0.0
C397 C 0.26314 0.85642 0.9857 0.0
C398 C 0.29957 0.85656 0.00884 0.0
C399 C 0.19104 0.85758 0.98553 0.0
C400 C 0.03447 0.85517 0.02521 0.0
H401 H 0.73295 0.88141 0.96766 0.0
H402 H 0.85906 0.87955 0.96818 0.0
H403 H 0.93014 0.85356 0.03876 0.0
H404 H 0.28954 0.85613 0.04997 0.0
H405 H 0.16352 0.8583 0.0496 0.0
H406 H 0.09218 0.88457 0.97913 0.0
C407 C 0.83178 0.8805 0.98608 0.0
C408 C 0.96536 0.86055 0.02591 0.0
C409 C 0.75964 0.88148 0.98581 0.0
C410 C 0.26271 0.85619 0.03184 0.0
C411 C 0.19061 0.85735 0.03165 0.0
C412 C 0.05698 0.87758 0.992 0.0
C413 C 0.8676 0.87919 0.00931 0.0
C414 C 0.94163 0.87449 0.00966 0.0
C415 C 0.15464 0.85883 0.00847 0.0
C416 C 0.08069 0.86363 0.00823 0.0
H417 H 0.73152 0.88142 0.04994 0.0
H418 H 0.85793 0.87984 0.05031 0.0
H419 H 0.97059 0.89378 0.98008 0.0
H420 H 0.29032 0.85644 0.96768 0.0
H421 H 0.16397 0.85832 0.96745 0.0
C422 C 0.20067 0.11802 0.03146 0.0
C423 C 0.23772 0.11813 0.00849 0.0
C424 C 0.12852 0.11897 0.03116 0.0
C425 C -0.00508 0.13841 0.99084 0.0
H426 H 0.86812 0.11496 0.0382 0.0
C427 C 0.69755 0.1428 0.98486 0.0
C428 C 0.66073 0.1427 0.00787 0.0
C429 C 0.76965 0.1416 0.98506 0.0
C430 C 0.90332 0.12179 0.02515 0.0
H431 H 0.22884 0.11731 0.96738 0.0
H432 H 0.10243 0.11884 0.96696 0.0
H433 H -0.01028 0.10574 0.03748 0.0
H434 H 0.67007 0.14327 0.049 0.0
H435 H 0.79641 0.14135 0.04924 0.0
H436 H 0.90858 0.15448 0.97854 0.0
C437 C 0.12937 0.11845 0.98507 0.0
C438 C 0.97245 0.11641 0.0246 0.0
C439 C 0.2015 0.11751 0.98535 0.0
C440 C 0.69721 0.14307 0.03098 0.0
C441 C 0.7693 0.14189 0.03116 0.0
C442 C 0.9258 0.14379 0.99139 0.0
C443 C 0.09271 0.11998 0.00791 0.0
C444 C 0.01867 0.12467 0.00743 0.0
C445 C 0.80566 0.14036 0.00825 0.0
C446 C 0.8796 0.13555 0.00859 0.0
H447 H 0.22735 0.11832 0.04959 0.0
H448 H 0.10123 0.12014 0.04902 0.0
H449 H 0.03013 0.14525 0.97781 0.0
H450 H 0.67068 0.14267 0.96675 0.0
H451 H 0.79669 0.14044 0.96714 0.0
C452 C 0.26482 0.14321 0.53084 0.0
C453 C 0.30107 0.14271 0.50774 0.0
C454 C 0.19276 0.14202 0.53103 0.0
C455 C 0.03578 0.14368 0.49127 0.0
H456 H 0.97318 0.1059 0.53783 0.0
C457 C 0.76056 0.11734 0.48558 0.0
C458 C 0.72458 0.11807 0.50871 0.0
C459 C 0.83268 0.11829 0.48528 0.0
C460 C -0.00992 0.11649 0.52482 0.0
H461 H 0.29068 0.14245 0.46663 0.0
H462 H 0.16472 0.14021 0.46705 0.0
H463 H 0.09459 0.11513 0.53841 0.0
H464 H 0.73539 0.1185 0.54979 0.0
H465 H 0.86146 0.12034 0.54919 0.0
H466 H 0.93126 0.14505 0.47769 0.0
C467 C 0.19192 0.14147 0.48495 0.0
C468 C 0.0591 0.12188 0.52529 0.0
C469 C 0.26399 0.14268 0.48474 0.0
C470 C 0.76188 0.1181 0.53166 0.0
C471 C 0.83401 0.11907 0.53135 0.0
C472 C 0.96676 0.13829 0.49079 0.0
C473 C 0.15619 0.14036 0.50816 0.0
C474 C 0.08235 0.13554 0.50856 0.0
C475 C 0.86955 0.11996 0.50809 0.0
C476 C 0.94349 0.12465 0.50756 0.0
H477 H 0.29215 0.14352 0.54885 0.0
H478 H 0.16586 0.14158 0.54912 0.0
H479 H 0.05262 0.15429 0.47828 0.0
H480 H 0.73305 0.11703 0.46761 0.0
H481 H 0.85941 0.11858 0.46717 0.0
C482 C 0.69553 0.85653 0.48654 0.0
C483 C 0.65872 0.85641 0.50956 0.0
C484 C 0.7676 0.85769 0.48664 0.0
C485 C 0.90098 0.87713 0.52522 0.0
H486 H 0.02802 0.85407 0.47948 0.0
C487 C 0.19822 0.88096 0.53095 0.0
C488 C 0.23517 0.88104 0.50796 0.0
C489 C 0.12611 0.87998 0.53077 0.0
C490 C -0.00726 0.8608 0.49204 0.0
H491 H 0.6681 0.85546 0.55074 0.0
H492 H 0.79444 0.85735 0.55082 0.0
H493 H 0.90671 0.8448 0.48103 0.0
H494 H 0.22606 0.88216 0.46678 0.0
H495 H 0.09967 0.88058 0.46657 0.0
H496 H -0.01294 0.89311 0.53625 0.0
C497 C 0.76731 0.85697 0.53278 0.0
C498 C 0.92377 0.85539 0.49308 0.0
C499 C 0.69523 0.85581 0.5327 0.0
C500 C 0.19882 0.88182 0.48479 0.0
C501 C 0.1267 0.88084 0.48464 0.0
C502 C 0.96997 0.88254 0.52419 0.0
C503 C 0.80362 0.8587 0.50975 0.0
C504 C 0.87748 0.86349 0.5097 0.0
C505 C 0.0902 0.87913 0.50763 0.0
C506 C 0.01626 0.87442 0.50757 0.0
H507 H 0.66864 0.85682 0.46842 0.0
H508 H 0.79459 0.85901 0.46863 0.0
H509 H 0.86571 0.88385 0.53779 0.0
H510 H 0.22499 0.88054 0.5491 0.0
H511 H 0.09895 0.87867 0.54875 0.0
C512 C -0.00539 0.56541 0.03289 0.0
C513 C -0.00597 0.57549 0.00992 0.0
C514 C -0.00545 0.54682 0.03272 0.0
C515 C 0.02671 0.50837 0.99224 0.0
H516 H 0.89627 0.48444 0.03782 0.0
C517 C 0.96572 0.43385 0.98457 0.0
C518 C 0.96616 0.42379 0.00756 0.0
C519 C 0.96573 0.45244 0.9847 0.0
C520 C 0.93331 0.49092 0.02513 0.0
H521 H -0.00394 0.57399 0.96878 0.0
H522 H -0.00427 0.54158 0.96854 0.0
H523 H 0.90908 0.51671 0.03884 0.0
H524 H 0.96385 0.42533 0.04868 0.0
H525 H 0.96413 0.45773 0.04886 0.0
H526 H 0.05097 0.48258 0.97853 0.0
C527 C -0.00344 0.54803 0.98666 0.0
C528 C 0.94085 0.50938 0.02578 0.0
C529 C -0.00345 0.56661 0.98682 0.0
C530 C 0.96346 0.43269 0.03064 0.0
C531 C 0.96342 0.45127 0.03075 0.0
C532 C 0.01918 0.48991 0.99159 0.0
C533 C -0.00596 0.53795 0.0096 0.0
C534 C -0.01233 0.5183 0.00935 0.0
C535 C 0.96606 0.46133 0.0078 0.0
C536 C 0.97238 0.48099 0.00803 0.0
H537 H -0.00708 0.57185 0.05101 0.0
H538 H -0.00616 0.53939 0.0507 0.0
H539 H 0.06374 0.51485 0.97955 0.0
H540 H 0.96755 0.42739 0.96646 0.0
H541 H 0.96653 0.45985 0.9667 0.0
C542 C -0.00452 0.43247 0.53067 0.0
C543 C -0.00804 0.4236 0.50758 0.0
C544 C -0.00407 0.45105 0.53083 0.0
C545 C 0.9402 0.48993 0.49191 0.0
H546 H 0.05283 0.51628 0.53888 0.0
C547 C 0.96501 0.56655 0.48713 0.0
C548 C 0.96856 0.57542 0.51022 0.0
C549 C 0.96458 0.54797 0.48697 0.0
C550 C 0.02036 0.50908 0.52589 0.0
H551 H -0.01064 0.42725 0.4665 0.0
H552 H -0.00896 0.45971 0.46681 0.0
H553 H 0.0644 0.48397 0.53778 0.0
H554 H 0.97122 0.57177 0.55131 0.0
H555 H 0.96956 0.5393 0.551 0.0
H556 H 0.89615 0.51504 0.48002 0.0
C557 C -0.00778 0.45227 0.48478 0.0
C558 C 0.02719 0.49059 0.5252 0.0
C559 C -0.00815 0.43368 0.48461 0.0
C560 C 0.96871 0.56533 0.53319 0.0
C561 C 0.96835 0.54674 0.53302 0.0
C562 C 0.93337 0.50842 0.4926 0.0
C563 C -0.00715 0.46114 0.50791 0.0
C564 C -0.01279 0.48082 0.5082 0.0
C565 C 0.9677 0.53787 0.5099 0.0
C566 C 0.97335 0.51819 0.50961 0.0
H567 H -0.00446 0.42509 0.54871 0.0
H568 H -0.00405 0.45749 0.54896 0.0
H569 H 0.90773 0.48273 0.47892 0.0
H570 H 0.96492 0.57393 0.4691 0.0
H571 H 0.96455 0.54152 0.46885 0.0
C572 C 0.46277 0.93268 0.03107 0.0
C573 C 0.46608 0.92377 0.00801 0.0
C574 C 0.46293 0.95126 0.03116 0.0
C575 C 0.43585 0.99182 0.99083 0.0
H576 H 0.56021 0.01325 0.03923 0.0
C577 C 0.49752 0.06665 0.98564 0.0
C578 C 0.4943 0.07553 0.00873 0.0
C579 C 0.49746 0.04807 0.98549 0.0
C580 C 0.52485 0.00747 0.02575 0.0
H581 H 0.46905 0.92735 0.96692 0.0
H582 H 0.46957 0.95979 0.96713 0.0
H583 H 0.5476 0.98094 0.03933 0.0
H584 H 0.49157 0.07189 0.04981 0.0
H585 H 0.49119 0.03945 0.04951 0.0
H586 H 0.41308 0.01835 0.97726 0.0
C587 C 0.46651 0.95241 0.98512 0.0
C588 C 0.51743 0.98898 0.02586 0.0
C589 C 0.46638 0.93382 0.98501 0.0
C590 C 0.49417 0.06545 0.0317 0.0
C591 C 0.49412 0.04686 0.03154 0.0
C592 C 0.44326 0.01031 0.99073 0.0
C593 C 0.46634 0.96131 0.00822 0.0
C594 C 0.4728 0.98097 0.00841 0.0
C595 C 0.49423 0.03798 0.00841 0.0
C596 C 0.48787 0.01833 0.00818 0.0
H597 H 0.46218 0.92532 0.04912 0.0
H598 H 0.46145 0.95776 0.04924 0.0
H599 H 0.4005 0.98604 0.97735 0.0
H600 H 0.49798 0.07403 0.96761 0.0
H601 H 0.49888 0.04159 0.96739 0.0
C602 C 0.46483 0.06659 0.48597 0.0
C603 C 0.46828 0.07551 0.50902 0.0
C604 C 0.46456 0.04801 0.4859 0.0
C605 C 0.43603 0.00757 0.52623 0.0
H606 H 0.55933 0.98564 0.47797 0.0
C607 C 0.49487 0.93249 0.53147 0.0
C608 C 0.49155 0.92362 0.50837 0.0
C609 C 0.49527 0.95107 0.53162 0.0
C610 C 0.52425 0.99156 0.49141 0.0
H611 H 0.47121 0.07195 0.55012 0.0
H612 H 0.47098 0.0395 0.54995 0.0
H613 H 0.5481 0.018 0.47787 0.0
H614 H 0.48895 0.92728 0.46729 0.0
H615 H 0.48937 0.95971 0.46759 0.0
H616 H 0.41215 0.98114 0.53975 0.0
C617 C 0.46812 0.04688 0.53195 0.0
C618 C 0.51763 0.01008 0.49131 0.0
C619 C 0.46842 0.06547 0.53203 0.0
C620 C 0.49164 0.93371 0.48541 0.0
C621 C 0.49205 0.9523 0.48557 0.0
C622 C 0.44264 0.98905 0.52633 0.0
C623 C 0.46767 0.03796 0.50886 0.0
C624 C 0.4734 0.01828 0.5087 0.0
C625 C 0.49241 0.96117 0.5087 0.0
C626 C 0.48684 0.98085 0.50892 0.0
H627 H 0.46435 0.07394 0.46791 0.0
H628 H 0.46288 0.0415 0.46783 0.0
H629 H 0.40096 0.0135 0.53966 0.0
H630 H 0.49516 0.92511 0.5495 0.0
H631 H 0.49687 0.95754 0.54972 0.0
C632 C 0.09416 0.30709 0.98569 0.0
C633 C 0.07963 0.31525 0.00877 0.0
C634 C 0.12857 0.29071 0.98555 0.0
C635 C 0.17634 0.25139 0.02579 0.0
H636 H 0.32659 0.24697 0.9773 0.0
C637 C 0.36651 0.19222 0.03084 0.0
C638 C 0.38097 0.18407 0.00774 0.0
C639 C 0.33213 0.2086 0.031 0.0
C640 C 0.28442 0.24795 0.9908 0.0
H641 H 0.08746 0.31229 0.04985 0.0
H642 H 0.14782 0.28373 0.04958 0.0
H643 H 0.25755 0.27425 0.97734 0.0
H644 H 0.37307 0.18705 0.96666 0.0
H645 H 0.3128 0.21562 0.96699 0.0
H646 H 0.20321 0.22509 0.03926 0.0
C647 C 0.13224 0.28996 0.0316 0.0
C648 C 0.24475 0.26354 0.99078 0.0
C649 C 0.09783 0.30635 0.03175 0.0
C650 C 0.36275 0.19298 0.98478 0.0
C651 C 0.32839 0.20938 0.98495 0.0
C652 C 0.21601 0.2358 0.02581 0.0
C653 C 0.14912 0.28213 0.00848 0.0
C654 C 0.19026 0.26542 0.00826 0.0
C655 C 0.31158 0.2172 0.00808 0.0
C656 C 0.27049 0.23392 0.00833 0.0
H657 H 0.08052 0.31356 0.96766 0.0
H658 H 0.13977 0.28485 0.96746 0.0
H659 H 0.13416 0.25237 0.03929 0.0
H660 H 0.38016 0.18574 0.04886 0.0
H661 H 0.32099 0.21446 0.0491 0.0
C662 C 0.59721 0.80634 0.03262 0.0
C663 C 0.57933 0.81521 0.0096 0.0
C664 C 0.63166 0.78995 0.03257 0.0
C665 C 0.74489 0.76353 0.99202 0.0
H666 H 0.70267 0.72507 0.04041 0.0
C667 C 0.86281 0.69298 0.98613 0.0
C668 C 0.88071 0.68403 0.0091 0.0
C669 C 0.8285 0.70938 0.98629 0.0
C670 C 0.71566 0.73578 0.027 0.0
H671 H 0.58081 0.81348 0.96849 0.0
H672 H 0.64014 0.78478 0.96846 0.0
H673 H 0.63358 0.75235 0.0403 0.0
H674 H 0.87936 0.68564 0.05022 0.0
H675 H 0.82026 0.71438 0.05044 0.0
H676 H 0.82696 0.74697 0.97871 0.0
C677 C 0.62866 0.79066 0.98652 0.0
C678 C 0.67596 0.75137 0.0269 0.0
C679 C 0.5942 0.80704 0.98656 0.0
C680 C 0.86597 0.69215 0.03219 0.0
C681 C 0.83164 0.70854 0.03234 0.0
C682 C 0.78458 0.74794 0.99213 0.0
C683 C 0.6489 0.78211 0.0095 0.0
C684 C 0.69011 0.7654 0.00939 0.0
C685 C 0.81142 0.71717 0.00941 0.0
C686 C 0.77039 0.7339 0.00961 0.0
H687 H 0.58656 0.81229 0.0507 0.0
H688 H 0.64699 0.78373 0.05059 0.0
H689 H 0.75787 0.77424 0.9786 0.0
H690 H 0.87336 0.68707 0.96802 0.0
H691 H 0.81317 0.71565 0.96831 0.0
C692 C 0.09824 0.6928 0.4858 0.0
C693 C 0.08072 0.68393 0.50882 0.0
C694 C 0.13238 0.70919 0.48586 0.0
C695 C 0.24535 0.73563 0.52644 0.0
H696 H 0.202 0.77405 0.47795 0.0
C697 C 0.36201 0.80619 0.53221 0.0
C698 C 0.37957 0.8151 0.50924 0.0
C699 C 0.32798 0.78979 0.53208 0.0
C700 C 0.21531 0.76335 0.4914 0.0
H701 H 0.08255 0.68565 0.54993 0.0
H702 H 0.14132 0.71435 0.54997 0.0
H703 H 0.1335 0.74677 0.47808 0.0
H704 H 0.37787 0.81346 0.46812 0.0
H705 H 0.31926 0.78473 0.46795 0.0
H706 H 0.32715 0.75221 0.53976 0.0
C707 C 0.12981 0.70847 0.53191 0.0
C708 C 0.17595 0.74775 0.49151 0.0
C709 C 0.09566 0.6921 0.53186 0.0
C710 C 0.36475 0.80697 0.48616 0.0
C711 C 0.33069 0.79058 0.48604 0.0
C712 C 0.28471 0.75123 0.52633 0.0
C713 C 0.14967 0.71703 0.50893 0.0
C714 C 0.19051 0.73374 0.50905 0.0
C715 C 0.31083 0.78198 0.50898 0.0
C716 C 0.27012 0.76525 0.5088 0.0
H717 H 0.08754 0.68685 0.46772 0.0
H718 H 0.14743 0.7154 0.46785 0.0
H719 H 0.25865 0.72494 0.53989 0.0
H720 H 0.37262 0.81211 0.55032 0.0
H721 H 0.31292 0.78354 0.55007 0.0
C722 C 0.86229 0.30621 0.53186 0.0
C723 C 0.87977 0.31509 0.50884 0.0
C724 C 0.82812 0.28983 0.5318 0.0
C725 C 0.78646 0.25182 0.49164 0.0
H726 H 0.62951 0.24593 0.53728 0.0
C727 C 0.59782 0.19289 0.48442 0.0
C728 C 0.5803 0.18404 0.50745 0.0
C729 C 0.63198 0.20927 0.48446 0.0
C730 C 0.67354 0.24732 0.52459 0.0
H731 H 0.8775 0.31342 0.46773 0.0
H732 H 0.81766 0.28489 0.46767 0.0
H733 H 0.69834 0.27313 0.53802 0.0
H734 H 0.58248 0.18575 0.54856 0.0
H735 H 0.6423 0.21427 0.54858 0.0
H736 H 0.76168 0.226 0.47821 0.0
C737 C 0.83068 0.29054 0.48575 0.0
C738 C 0.71309 0.26286 0.52506 0.0
C739 C 0.86478 0.30692 0.4858 0.0
C740 C 0.59523 0.19223 0.53048 0.0
C741 C 0.62932 0.20861 0.53051 0.0
C742 C 0.74692 0.23627 0.49117 0.0
C743 C 0.81086 0.28198 0.50874 0.0
C744 C 0.77 0.26527 0.5086 0.0
C745 C 0.64919 0.21715 0.50751 0.0
C746 C 0.69002 0.23386 0.50763 0.0
H747 H 0.87335 0.31211 0.54994 0.0
H748 H 0.81454 0.2834 0.54982 0.0
H749 H 0.83049 0.25321 0.47894 0.0
H750 H 0.58681 0.18697 0.46635 0.0
H751 H 0.64558 0.21569 0.46643 0.0
C752 C -0.005 0.38482 0.16188 0.0
C753 C 0.00188 0.36857 0.14951 0.0
C754 C -0.00964 0.38515 0.18837 0.0
C755 C 0.0253 0.35761 0.24696 0.0
H756 H 0.90363 0.39193 0.27794 0.0
C757 C 0.02449 0.3671 0.35523 0.0
C758 C 0.96042 0.37028 0.36703 0.0
C759 C 0.02963 0.36724 0.32874 0.0
C760 C 0.93735 0.38214 0.26963 0.0
H761 H 0.01004 0.33991 0.15557 0.0
H762 H -0.00074 0.34044 0.20157 0.0
H763 H 0.91092 0.39108 0.23184 0.0
H764 H 0.85141 0.37602 0.36036 0.0
H765 H 0.85984 0.37588 0.31409 0.0
H766 H 0.04978 0.34822 0.28469 0.0
C767 C -0.00127 0.35299 0.19083 0.0
C768 C 0.94233 0.38182 0.24314 0.0
C769 C 0.00392 0.35266 0.16436 0.0
C770 C 0.90161 0.3737 0.35177 0.0
C771 C 0.90658 0.37367 0.32525 0.0
C772 C 0.01992 0.35784 0.27343 0.0
C773 C -0.00807 0.36923 0.20321 0.0
C774 C -0.01353 0.36957 0.23144 0.0
C775 C 0.97066 0.37039 0.31338 0.0
C776 C 0.97602 0.37013 0.28514 0.0
H777 H -0.00771 0.39733 0.1511 0.0
H778 H -0.0139 0.39793 0.19722 0.0
H779 H 0.06052 0.34814 0.23869 0.0
H780 H 0.07093 0.3647 0.36651 0.0
H781 H 0.08011 0.36504 0.32033 0.0
C782 C 0.96362 0.61302 0.1651 0.0
C783 C 0.95718 0.62916 0.15095 0.0
C784 C 0.96732 0.61292 0.19166 0.0
C785 C 0.93131 0.64106 0.24707 0.0
H786 H 0.05392 0.60739 0.28221 0.0
C787 C 0.93485 0.63344 0.3565 0.0
C788 C -0.00078 0.6304 0.36853 0.0
C789 C 0.92899 0.63293 0.33006 0.0
C790 C 0.01992 0.61701 0.27271 0.0
H791 H 0.94833 0.65785 0.15389 0.0
H792 H 0.95755 0.65772 0.19994 0.0
H793 H 0.04606 0.6075 0.23605 0.0
H794 H 0.10812 0.62464 0.36229 0.0
H795 H 0.09846 0.62415 0.31607 0.0
H796 H 0.90721 0.65104 0.28361 0.0
C797 C 0.95852 0.64508 0.19059 0.0
C798 C 0.0146 0.61689 0.24621 0.0
C799 C 0.95427 0.64518 0.16407 0.0
C800 C 0.05768 0.62685 0.35355 0.0
C801 C 0.052 0.62651 0.32706 0.0
C802 C 0.93704 0.64127 0.27354 0.0
C803 C 0.96515 0.62896 0.20475 0.0
C804 C 0.97025 0.62892 0.23302 0.0
C805 C -0.01246 0.62953 0.31496 0.0
C806 C -0.0186 0.62925 0.28673 0.0
H807 H 0.96684 0.60044 0.15568 0.0
H808 H 0.97147 0.60023 0.20191 0.0
H809 H 0.8959 0.65036 0.23765 0.0
H810 H 0.88867 0.63594 0.3676 0.0
H811 H 0.87826 0.63497 0.3215 0.0
C812 C 0.90322 0.6272 0.85335 0.0
C813 C 0.96152 0.63073 0.86846 0.0
C814 C 0.90907 0.62687 0.82688 0.0
C815 C 0.02422 0.6416 0.77362 0.0
H816 H 0.91625 0.60784 0.73586 0.0
C817 C 0.00852 0.64539 0.66409 0.0
C818 C 0.006 0.62936 0.651 0.0
C819 C 0.00389 0.64533 0.6906 0.0
C820 C 0.94741 0.61723 0.7461 0.0
H821 H 0.07198 0.63624 0.86778 0.0
H822 H 0.0827 0.63529 0.82172 0.0
H823 H 0.90781 0.60777 0.78199 0.0
H824 H -0.0033 0.60064 0.65577 0.0
H825 H -0.00858 0.6005 0.70199 0.0
H826 H 0.06567 0.65065 0.73785 0.0
C827 C 0.03195 0.63326 0.83016 0.0
C828 C 0.94176 0.61737 0.77259 0.0
C829 C 0.02591 0.63376 0.85659 0.0
C830 C -0.00038 0.61324 0.66517 0.0
C831 C -0.00447 0.61318 0.69171 0.0
C832 C 0.03029 0.64137 0.74717 0.0
C833 C 0.97356 0.62988 0.81492 0.0
C834 C 0.97992 0.6296 0.7867 0.0
C835 C -0.00273 0.62923 0.70478 0.0
C836 C -0.00825 0.62923 0.73303 0.0
H837 H 0.85277 0.625 0.86198 0.0
H838 H 0.86274 0.62453 0.81578 0.0
H839 H 0.05377 0.65137 0.78377 0.0
H840 H 0.01441 0.65805 0.6539 0.0
H841 H 0.00454 0.65798 0.69992 0.0
C842 C 0.02516 0.3656 0.66119 0.0
C843 C 0.96075 0.36864 0.6492 0.0
C844 C 0.0311 0.36613 0.68763 0.0
C845 C 0.94041 0.38207 0.74501 0.0
H846 H 0.06453 0.34872 0.78003 0.0
C847 C -0.00279 0.3861 0.85258 0.0
C848 C 0.00367 0.36997 0.86674 0.0
C849 C -0.00661 0.38619 0.82602 0.0
C850 C 0.02909 0.35803 0.77062 0.0
H851 H 0.85189 0.37441 0.65547 0.0
H852 H 0.8617 0.37493 0.70168 0.0
H853 H 0.053 0.34802 0.73407 0.0
H854 H 0.01246 0.34128 0.86383 0.0
H855 H 0.00304 0.34139 0.81778 0.0
H856 H 0.91446 0.3916 0.78168 0.0
C857 C 0.90811 0.37256 0.69068 0.0
C858 C 0.02323 0.3578 0.74416 0.0
C859 C 0.90234 0.3722 0.66419 0.0
C860 C 0.00651 0.35395 0.85363 0.0
C861 C 0.00214 0.35403 0.82712 0.0
C862 C 0.94585 0.3822 0.77151 0.0
C863 C 0.9726 0.36953 0.70275 0.0
C864 C 0.97884 0.36982 0.73098 0.0
C865 C -0.00453 0.37015 0.81294 0.0
C866 C -0.00976 0.37017 0.78468 0.0
H867 H 0.0713 0.36309 0.65009 0.0
H868 H 0.08186 0.36409 0.69617 0.0
H869 H 0.90639 0.39169 0.73553 0.0
H870 H -0.00595 0.39869 0.86199 0.0
H871 H -0.01078 0.39888 0.81576 0.0
C872 C 0.50274 0.85273 0.16496 0.0
C873 C 0.50074 0.86863 0.15011 0.0
C874 C 0.49757 0.85305 0.19144 0.0
C875 C 0.44147 0.88189 0.24378 0.0
H876 H 0.54918 0.8483 0.28525 0.0
C877 C 0.40159 0.87381 0.35246 0.0
C878 C 0.46053 0.8704 0.36766 0.0
C879 C 0.40635 0.87377 0.32594 0.0
C880 C 0.51925 0.85792 0.27401 0.0
H881 H 0.49118 0.89739 0.1517 0.0
H882 H 0.48502 0.898 0.19782 0.0
H883 H 0.55959 0.84821 0.23924 0.0
H884 H 0.57104 0.86482 0.36702 0.0
H885 H 0.57984 0.86515 0.32083 0.0
H886 H 0.40303 0.89202 0.27861 0.0
C887 C 0.48924 0.88521 0.18897 0.0
C888 C 0.52444 0.85768 0.24754 0.0
C889 C 0.49387 0.88488 0.16248 0.0
C890 C 0.5245 0.86721 0.35579 0.0
C891 C 0.52943 0.86734 0.3293 0.0
C892 C 0.43669 0.88222 0.27028 0.0
C893 C 0.49083 0.8693 0.20381 0.0
C894 C 0.48552 0.86964 0.23205 0.0
C895 C 0.47033 0.8705 0.314 0.0
C896 C 0.47546 0.87022 0.28575 0.0
H897 H 0.50885 0.83997 0.15617 0.0
H898 H 0.49809 0.8405 0.20217 0.0
H899 H 0.41 0.89115 0.2325 0.0
H900 H 0.35146 0.87613 0.3611 0.0
H901 H 0.35952 0.87598 0.31482 0.0
C902 C 0.45587 0.14532 0.16274 0.0
C903 C 0.45854 0.1293 0.14963 0.0
C904 C 0.4605 0.14525 0.18924 0.0
C905 C 0.51686 0.11707 0.24485 0.0
H906 H 0.40945 0.15121 0.28227 0.0
C907 C 0.55923 0.1269 0.3523 0.0
C908 C 0.50062 0.13044 0.36721 0.0
C909 C 0.55381 0.12658 0.3258 0.0
C910 C 0.4393 0.14144 0.2722 0.0
H911 H 0.46823 0.10058 0.15437 0.0
H912 H 0.47351 0.10039 0.2006 0.0
H913 H 0.39819 0.15055 0.23631 0.0
H914 H 0.39007 0.13597 0.36614 0.0
H915 H 0.38011 0.13505 0.32004 0.0
H916 H 0.55611 0.10755 0.28086 0.0
C917 C 0.46926 0.11308 0.19033 0.0
C918 C 0.4336 0.14124 0.24573 0.0
C919 C 0.46518 0.11317 0.16379 0.0
C920 C 0.43636 0.13349 0.3551 0.0
C921 C 0.43077 0.133 0.32866 0.0
C922 C 0.52214 0.11717 0.27136 0.0
C923 C 0.46726 0.12913 0.20341 0.0
C924 C 0.4725 0.12911 0.23168 0.0
C925 C 0.48947 0.12963 0.31362 0.0
C926 C 0.48358 0.1294 0.28539 0.0
H927 H 0.44979 0.15799 0.15255 0.0
H928 H 0.45966 0.15789 0.19858 0.0
H929 H 0.5483 0.10768 0.23469 0.0
H930 H 0.60957 0.12468 0.36111 0.0
H931 H 0.60037 0.12424 0.31487 0.0
C932 C 0.40217 0.12731 0.85217 0.0
C933 C 0.46074 0.13082 0.86715 0.0
C934 C 0.40755 0.12703 0.82568 0.0
C935 C 0.52179 0.14187 0.77222 0.0
H936 H 0.4135 0.10812 0.73456 0.0
C937 C 0.50579 0.14564 0.66272 0.0
C938 C 0.50348 0.1296 0.64964 0.0
C939 C 0.50095 0.1456 0.68921 0.0
C940 C 0.44474 0.11751 0.74477 0.0
H941 H 0.57118 0.13634 0.86624 0.0
H942 H 0.58108 0.13547 0.82014 0.0
H943 H 0.40557 0.10801 0.78071 0.0
H944 H 0.49421 0.10089 0.65445 0.0
H945 H 0.48859 0.10077 0.70065 0.0
H946 H 0.56285 0.15095 0.73641 0.0
C947 C 0.53048 0.13342 0.82869 0.0
C948 C 0.43938 0.11763 0.77127 0.0
C949 C 0.52491 0.13388 0.85514 0.0
C950 C 0.49699 0.11349 0.66383 0.0
C951 C 0.49271 0.11344 0.69037 0.0
C952 C 0.52757 0.14166 0.74577 0.0
C953 C 0.47182 0.13007 0.81358 0.0
C954 C 0.4777 0.12985 0.78535 0.0
C955 C 0.49435 0.12951 0.70341 0.0
C956 C 0.48894 0.12952 0.73166 0.0
H957 H 0.35188 0.12509 0.86091 0.0
H958 H 0.36102 0.1247 0.81468 0.0
H959 H 0.55144 0.15164 0.78234 0.0
H960 H 0.51173 0.1583 0.65251 0.0
H961 H 0.50151 0.15826 0.69852 0.0
C962 C 0.40173 0.87211 0.66489 0.0
C963 C 0.46001 0.86854 0.64983 0.0
C964 C 0.40772 0.87247 0.69137 0.0
C965 C 0.52327 0.85771 0.74473 0.0
H966 H 0.41478 0.89151 0.78236 0.0
C967 C 0.5071 0.85384 0.85423 0.0
C968 C 0.50425 0.86986 0.86735 0.0
C969 C 0.50269 0.85393 0.82772 0.0
C970 C 0.4461 0.88211 0.77216 0.0
H971 H 0.57057 0.86299 0.6506 0.0
H972 H 0.5815 0.86398 0.69668 0.0
H973 H 0.40637 0.8916 0.73622 0.0
H974 H 0.49463 0.89859 0.8626 0.0
H975 H 0.48974 0.89878 0.81638 0.0
H976 H 0.56482 0.84862 0.78057 0.0
C977 C 0.53068 0.86602 0.68819 0.0
C978 C 0.44046 0.88198 0.74567 0.0
C979 C 0.52452 0.8655 0.66176 0.0
C980 C 0.49779 0.886 0.85319 0.0
C981 C 0.49394 0.88609 0.82664 0.0
C982 C 0.52932 0.85793 0.77119 0.0
C983 C 0.47231 0.86944 0.70338 0.0
C984 C 0.47878 0.86973 0.7316 0.0
C985 C 0.49597 0.87005 0.81355 0.0
C986 C 0.49058 0.87007 0.78529 0.0
H987 H 0.35121 0.87433 0.65622 0.0
H988 H 0.3614 0.87483 0.70243 0.0
H989 H 0.55295 0.84793 0.73462 0.0
H990 H 0.51306 0.84117 0.86442 0.0
H991 H 0.50358 0.84129 0.81837 0.0
loop_
_geom_bond_atom_site_label_1
_geom_bond_atom_site_label_2
_geom_bond_distance
_geom_bond_site_symmetry_2
_ccdc_geom_bond_type
C0 O16 1.251 . S
C0 O18 1.254 1_554 S
N1 C2 1.333 . S
N1 C6 1.307 . S
N1 Zn7 2.020 . S
C2 N1 1.333 . S
C2 C3 1.379 . S
C2 H20 0.952 . S
C3 C2 1.379 . S
C3 C4 1.390 . S
C3 H30 0.949 . S
C4 C3 1.390 . S
C4 C5 1.357 . S
C5 C4 1.357 . S
C5 C6 1.370 . S
C5 H31 0.950 . S
C6 N1 1.307 . S
C6 C5 1.370 . S
C6 H24 0.948 . S
Zn7 N1 2.020 . S
Zn7 O16 2.039 . S
Zn7 O22 2.034 . S
Zn7 O26 2.025 . S
Zn7 O28 2.024 1_455 S
C8 O27 1.246 1_554 S
C8 O28 1.249 . S
N9 C10 1.307 . S
N9 C11 1.333 . S
N9 Zn15 2.020 . S
C10 N9 1.307 . S
C10 C14 1.370 . S
C10 H21 0.948 . S
C11 N9 1.333 . S
C11 C12 1.379 . S
C11 H19 0.952 . S
C12 C11 1.379 . S
C12 C13 1.390 . S
C12 H32 0.949 . S
C13 C12 1.390 . S
C13 C14 1.357 . S
C14 C10 1.370 . S
C14 C13 1.357 . S
C14 H33 0.950 . S
Zn15 N9 2.020 . S
Zn15 O18 2.025 . S
Zn15 O23 2.024 . S
Zn15 O25 2.039 . S
Zn15 O27 2.034 1_455 S
O16 C0 1.251 . S
O16 Zn7 2.039 . S
C17 O22 1.246 . S
C17 O23 1.249 1_554 S
O18 C0 1.254 1_556 S
O18 Zn15 2.025 . S
H19 C11 0.952 . S
H20 C2 0.952 . S
H21 C10 0.948 . S
O22 Zn7 2.034 . S
O22 C17 1.246 . S
O23 Zn15 2.024 . S
O23 C17 1.249 1_556 S
H24 C6 0.948 . S
O25 Zn15 2.039 . S
O25 C29 1.251 1_556 S
O26 Zn7 2.025 . S
O26 C29 1.254 . S
O27 C8 1.246 1_556 S
O27 Zn15 2.034 1_655 S
O28 Zn7 2.024 1_655 S
O28 C8 1.249 . S
C29 O25 1.251 1_554 S
C29 O26 1.254 . S
H30 C3 0.949 . S
H31 C5 0.950 . S
H32 C12 0.949 . S
H33 C14 0.950 . S
C34 O50 1.251 . S
C34 O52 1.254 1_554 S
N35 C36 1.333 . S
N35 C40 1.307 . S
N35 Zn41 2.020 . S
C36 N35 1.333 . S
C36 C37 1.379 . S
C36 H54 0.952 . S
C37 C36 1.379 . S
C37 C38 1.390 . S
C37 H64 0.949 . S
C38 C37 1.390 . S
C38 C39 1.357 . S
C39 C38 1.357 . S
C39 C40 1.370 . S
C39 H65 0.950 . S
C40 N35 1.307 . S
C40 C39 1.370 . S
C40 H58 0.948 . S
Zn41 N35 2.020 . S
Zn41 O50 2.039 . S
Zn41 O56 2.034 . S
Zn41 O60 2.025 . S
Zn41 O62 2.024 1_655 S
C42 O61 1.246 1_554 S
C42 O62 1.249 . S
N43 C44 1.307 . S
N43 C45 1.333 . S
N43 Zn49 2.020 . S
C44 N43 1.307 . S
C44 C48 1.370 . S
C44 H55 0.948 . S
C45 N43 1.333 . S
C45 C46 1.379 . S
C45 H53 0.952 . S
C46 C45 1.379 . S
C46 C47 1.390 . S
C46 H66 0.949 . S
C47 C46 1.390 . S
C47 C48 1.357 . S
C48 C44 1.370 . S
C48 C47 1.357 . S
C48 H67 0.950 . S
Zn49 N43 2.020 . S
Zn49 O52 2.025 . S
Zn49 O57 2.024 . S
Zn49 O59 2.039 . S
Zn49 O61 2.034 1_655 S
O50 C34 1.251 . S
O50 Zn41 2.039 . S
C51 O56 1.246 . S
C51 O57 1.249 1_554 S
O52 C34 1.254 1_556 S
O52 Zn49 2.025 . S
H53 C45 0.952 . S
H54 C36 0.952 . S
H55 C44 0.948 . S
O56 Zn41 2.034 . S
O56 C51 1.246 . S
O57 Zn49 2.024 . S
O57 C51 1.249 1_556 S
H58 C40 0.948 . S
O59 Zn49 2.039 . S
O59 C63 1.251 . S
O60 Zn41 2.025 . S
O60 C63 1.254 1_554 S
O61 C42 1.246 1_556 S
O61 Zn49 2.034 1_455 S
O62 Zn41 2.024 1_455 S
O62 C42 1.249 . S
C63 O59 1.251 . S
C63 O60 1.254 1_556 S
H64 C37 0.949 . S
H65 C39 0.950 . S
H66 C46 0.949 . S
H67 C48 0.950 . S
C68 O84 1.251 . S
C68 O86 1.254 . S
N69 C70 1.333 . S
N69 C74 1.307 . S
N69 Zn75 2.020 . S
C70 N69 1.333 . S
C70 C71 1.379 . S
C70 H88 0.952 . S
C71 C70 1.379 . S
C71 C72 1.390 . S
C71 H98 0.949 . S
C72 C71 1.390 . S
C72 C73 1.357 . S
C73 C72 1.357 . S
C73 C74 1.370 . S
C73 H99 0.950 . S
C74 N69 1.307 . S
C74 C73 1.370 . S
C74 H92 0.948 . S
Zn75 N69 2.020 . S
Zn75 O84 2.039 . S
Zn75 O90 2.034 . S
Zn75 O94 2.025 . S
Zn75 O96 2.024 1_455 S
C76 O95 1.246 . S
C76 O96 1.249 . S
N77 C78 1.307 . S
N77 C79 1.333 . S
N77 Zn83 2.020 . S
C78 N77 1.307 . S
C78 C82 1.370 . S
C78 H89 0.948 . S
C79 N77 1.333 . S
C79 C80 1.379 . S
C79 H87 0.952 . S
C80 C79 1.379 . S
C80 C81 1.390 . S
C80 H100 0.949 . S
C81 C80 1.390 . S
C81 C82 1.357 . S
C82 C78 1.370 . S
C82 C81 1.357 . S
C82 H101 0.950 . S
Zn83 N77 2.020 . S
Zn83 O86 2.025 . S
Zn83 O91 2.024 . S
Zn83 O93 2.039 . S
Zn83 O95 2.034 1_455 S
O84 C68 1.251 . S
O84 Zn75 2.039 . S
C85 O90 1.246 . S
C85 O91 1.249 . S
O86 C68 1.254 . S
O86 Zn83 2.025 . S
H87 C79 0.952 . S
H88 C70 0.952 . S
H89 C78 0.948 . S
O90 Zn75 2.034 . S
O90 C85 1.246 . S
O91 Zn83 2.024 . S
O91 C85 1.249 . S
H92 C74 0.948 . S
O93 Zn83 2.039 . S
O93 C97 1.251 . S
O94 Zn75 2.025 . S
O94 C97 1.254 . S
O95 C76 1.246 . S
O95 Zn83 2.034 1_655 S
O96 Zn75 2.024 1_655 S
O96 C76 1.249 . S
C97 O93 1.251 . S
C97 O94 1.254 . S
H98 C71 0.949 . S
H99 C73 0.950 . S
H100 C80 0.949 . S
H101 C82 0.950 . S
C102 O118 1.251 . S
C102 O120 1.254 . S
N103 C104 1.333 . S
N103 C108 1.307 . S
N103 Zn109 2.020 . S
C104 N103 1.333 . S
C104 C105 1.379 . S
C104 H122 0.952 . S
C105 C104 1.379 . S
C105 C106 1.390 . S
C105 H132 0.949 . S
C106 C105 1.390 . S
C106 C107 1.357 . S
C107 C106 1.357 . S
C107 C108 1.370 . S
C107 H133 0.950 . S
C108 N103 1.307 . S
C108 C107 1.370 . S
C108 H126 0.948 . S
Zn109 N103 2.020 . S
Zn109 O118 2.039 . S
Zn109 O124 2.034 1_655 S
Zn109 O128 2.025 . S
Zn109 O130 2.024 . S
C110 O129 1.246 . S
C110 O130 1.249 . S
N111 C112 1.307 . S
N111 C113 1.333 . S
N111 Zn117 2.020 . S
C112 N111 1.307 . S
C112 C116 1.370 . S
C112 H123 0.948 . S
C113 N111 1.333 . S
C113 C114 1.379 . S
C113 H121 0.952 . S
C114 C113 1.379 . S
C114 C115 1.390 . S
C114 H134 0.949 . S
C115 C114 1.390 . S
C115 C116 1.357 . S
C116 C112 1.370 . S
C116 C115 1.357 . S
C116 H135 0.950 . S
Zn117 N111 2.020 . S
Zn117 O120 2.025 . S
Zn117 O125 2.024 1_655 S
Zn117 O127 2.039 . S
Zn117 O129 2.034 . S
O118 C102 1.251 . S
O118 Zn109 2.039 . S
C119 O124 1.246 . S
C119 O125 1.249 . S
O120 C102 1.254 . S
O120 Zn117 2.025 . S
H121 C113 0.952 . S
H122 C104 0.952 . S
H123 C112 0.948 . S
O124 Zn109 2.034 1_455 S
O124 C119 1.246 . S
O125 Zn117 2.024 1_455 S
O125 C119 1.249 . S
H126 C108 0.948 . S
O127 Zn117 2.039 . S
O127 C131 1.251 . S
O128 Zn109 2.025 . S
O128 C131 1.254 . S
O129 C110 1.246 . S
O129 Zn117 2.034 . S
O130 Zn109 2.024 . S
O130 C110 1.249 . S
C131 O127 1.251 . S
C131 O128 1.254 . S
H132 C105 0.949 . S
H133 C107 0.950 . S
H134 C114 0.949 . S
H135 C116 0.950 . S
C136 O152 1.251 . S
C136 O154 1.254 1_554 S
N137 C138 1.333 . S
N137 C142 1.307 . S
N137 Zn143 2.020 . S
C138 N137 1.333 . S
C138 C139 1.379 . S
C138 H156 0.952 . S
C139 C138 1.379 . S
C139 C140 1.390 . S
C139 H166 0.949 . S
C140 C139 1.390 . S
C140 C141 1.357 . S
C141 C140 1.357 . S
C141 C142 1.370 . S
C141 H167 0.950 . S
C142 N137 1.307 . S
C142 C141 1.370 . S
C142 H160 0.948 . S
Zn143 N137 2.020 . S
Zn143 O152 2.039 . S
Zn143 O158 2.034 . S
Zn143 O162 2.025 . S
Zn143 O164 2.024 . S
C144 O163 1.246 1_554 S
C144 O164 1.249 . S
N145 C146 1.307 . S
N145 C147 1.333 . S
N145 Zn151 2.020 . S
C146 N145 1.307 . S
C146 C150 1.370 . S
C146 H157 0.948 . S
C147 N145 1.333 . S
C147 C148 1.379 . S
C147 H155 0.952 . S
C148 C147 1.379 . S
C148 C149 1.390 . S
C148 H168 0.949 . S
C149 C148 1.390 . S
C149 C150 1.357 . S
C150 C146 1.370 . S
C150 C149 1.357 . S
C150 H169 0.950 . S
Zn151 N145 2.020 . S
Zn151 O154 2.025 . S
Zn151 O159 2.024 . S
Zn151 O161 2.039 . S
Zn151 O163 2.034 . S
O152 C136 1.251 . S
O152 Zn143 2.039 . S
C153 O158 1.246 . S
C153 O159 1.249 1_554 S
O154 C136 1.254 1_556 S
O154 Zn151 2.025 . S
H155 C147 0.952 . S
H156 C138 0.952 . S
H157 C146 0.948 . S
O158 Zn143 2.034 . S
O158 C153 1.246 . S
O159 Zn151 2.024 . S
O159 C153 1.249 1_556 S
H160 C142 0.948 . S
O161 Zn151 2.039 . S
O161 C165 1.251 1_556 S
O162 Zn143 2.025 . S
O162 C165 1.254 . S
O163 C144 1.246 1_556 S
O163 Zn151 2.034 . S
O164 Zn143 2.024 . S
O164 C144 1.249 . S
C165 O161 1.251 1_554 S
C165 O162 1.254 . S
H166 C139 0.949 . S
H167 C141 0.950 . S
H168 C148 0.949 . S
H169 C150 0.950 . S
C170 O186 1.251 . S
C170 O188 1.254 1_554 S
N171 C172 1.333 . S
N171 C176 1.307 . S
N171 Zn177 2.020 . S
C172 N171 1.333 . S
C172 C173 1.379 . S
C172 H190 0.952 . S
C173 C172 1.379 . S
C173 C174 1.390 . S
C173 H200 0.949 . S
C174 C173 1.390 . S
C174 C175 1.357 . S
C175 C174 1.357 . S
C175 C176 1.370 . S
C175 H201 0.950 . S
C176 N171 1.307 . S
C176 C175 1.370 . S
C176 H194 0.948 . S
Zn177 N171 2.020 . S
Zn177 O186 2.039 . S
Zn177 O192 2.034 . S
Zn177 O196 2.025 . S
Zn177 O198 2.024 . S
C178 O197 1.246 1_554 S
C178 O198 1.249 . S
N179 C180 1.307 . S
N179 C181 1.333 . S
N179 Zn185 2.020 . S
C180 N179 1.307 . S
C180 C184 1.370 . S
C180 H191 0.948 . S
C181 N179 1.333 . S
C181 C182 1.379 . S
C181 H189 0.952 . S
C182 C181 1.379 . S
C182 C183 1.390 . S
C182 H202 0.949 . S
C183 C182 1.390 . S
C183 C184 1.357 . S
C184 C180 1.370 . S
C184 C183 1.357 . S
C184 H203 0.950 . S
Zn185 N179 2.020 . S
Zn185 O188 2.025 . S
Zn185 O193 2.024 . S
Zn185 O195 2.039 . S
Zn185 O197 2.034 . S
O186 C170 1.251 . S
O186 Zn177 2.039 . S
C187 O192 1.246 . S
C187 O193 1.249 1_554 S
O188 C170 1.254 1_556 S
O188 Zn185 2.025 . S
H189 C181 0.952 . S
H190 C172 0.952 . S
H191 C180 0.948 . S
O192 Zn177 2.034 . S
O192 C187 1.246 . S
O193 Zn185 2.024 . S
O193 C187 1.249 1_556 S
H194 C176 0.948 . S
O195 Zn185 2.039 . S
O195 C199 1.251 . S
O196 Zn177 2.025 . S
O196 C199 1.254 1_554 S
O197 C178 1.246 1_556 S
O197 Zn185 2.034 . S
O198 Zn177 2.024 . S
O198 C178 1.249 . S
C199 O195 1.251 . S
C199 O196 1.254 1_556 S
H200 C173 0.949 . S
H201 C175 0.950 . S
H202 C182 0.949 . S
H203 C184 0.950 . S
C204 O220 1.251 . S
C204 O222 1.254 . S
N205 C206 1.333 . S
N205 C210 1.307 . S
N205 Zn211 2.020 . S
C206 N205 1.333 . S
C206 C207 1.379 . S
C206 H224 0.952 . S
C207 C206 1.379 . S
C207 C208 1.390 . S
C207 H234 0.949 . S
C208 C207 1.390 . S
C208 C209 1.357 . S
C209 C208 1.357 . S
C209 C210 1.370 . S
C209 H235 0.950 . S
C210 N205 1.307 . S
C210 C209 1.370 . S
C210 H228 0.948 . S
Zn211 N205 2.020 . S
Zn211 O220 2.039 . S
Zn211 O226 2.034 . S
Zn211 O230 2.025 . S
Zn211 O232 2.024 . S
C212 O231 1.246 . S
C212 O232 1.249 . S
N213 C214 1.307 . S
N213 C215 1.333 . S
N213 Zn219 2.020 . S
C214 N213 1.307 . S
C214 C218 1.370 . S
C214 H225 0.948 . S
C215 N213 1.333 . S
C215 C216 1.379 . S
C215 H223 0.952 . S
C216 C215 1.379 . S
C216 C217 1.390 . S
C216 H236 0.949 . S
C217 C216 1.390 . S
C217 C218 1.357 . S
C218 C214 1.370 . S
C218 C217 1.357 . S
C218 H237 0.950 . S
Zn219 N213 2.020 . S
Zn219 O222 2.025 . S
Zn219 O227 2.024 . S
Zn219 O229 2.039 . S
Zn219 O231 2.034 . S
O220 C204 1.251 . S
O220 Zn211 2.039 . S
C221 O226 1.246 . S
C221 O227 1.249 . S
O222 C204 1.254 . S
O222 Zn219 2.025 . S
H223 C215 0.952 . S
H224 C206 0.952 . S
H225 C214 0.948 . S
O226 Zn211 2.034 . S
O226 C221 1.246 . S
O227 Zn219 2.024 . S
O227 C221 1.249 . S
H228 C210 0.948 . S
O229 Zn219 2.039 . S
O229 C233 1.251 . S
O230 Zn211 2.025 . S
O230 C233 1.254 . S
O231 C212 1.246 . S
O231 Zn219 2.034 . S
O232 Zn211 2.024 . S
O232 C212 1.249 . S
C233 O229 1.251 . S
C233 O230 1.254 . S
H234 C207 0.949 . S
H235 C209 0.950 . S
H236 C216 0.949 . S
H237 C218 0.950 . S
C238 O254 1.251 . S
C238 O256 1.254 . S
N239 C240 1.333 . S
N239 C244 1.307 . S
N239 Zn245 2.020 . S
C240 N239 1.333 . S
C240 C241 1.379 . S
C240 H258 0.952 . S
C241 C240 1.379 . S
C241 C242 1.390 . S
C241 H268 0.949 . S
C242 C241 1.390 . S
C242 C243 1.357 . S
C243 C242 1.357 . S
C243 C244 1.370 . S
C243 H269 0.950 . S
C244 N239 1.307 . S
C244 C243 1.370 . S
C244 H262 0.948 . S
Zn245 N239 2.020 . S
Zn245 O254 2.039 . S
Zn245 O260 2.034 . S
Zn245 O264 2.025 . S
Zn245 O266 2.024 . S
C246 O265 1.246 . S
C246 O266 1.249 . S
N247 C248 1.307 . S
N247 C249 1.333 . S
N247 Zn253 2.020 . S
C248 N247 1.307 . S
C248 C252 1.370 . S
C248 H259 0.948 . S
C249 N247 1.333 . S
C249 C250 1.379 . S
C249 H257 0.952 . S
C250 C249 1.379 . S
C250 C251 1.390 . S
C250 H270 0.949 . S
C251 C250 1.390 . S
C251 C252 1.357 . S
C252 C248 1.370 . S
C252 C251 1.357 . S
C252 H271 0.950 . S
Zn253 N247 2.020 . S
Zn253 O256 2.025 . S
Zn253 O261 2.024 . S
Zn253 O263 2.039 . S
Zn253 O265 2.034 . S
O254 C238 1.251 . S
O254 Zn245 2.039 . S
C255 O260 1.246 . S
C255 O261 1.249 . S
O256 C238 1.254 . S
O256 Zn253 2.025 . S
H257 C249 0.952 . S
H258 C240 0.952 . S
H259 C248 0.948 . S
O260 Zn245 2.034 . S
O260 C255 1.246 . S
O261 Zn253 2.024 . S
O261 C255 1.249 . S
H262 C244 0.948 . S
O263 Zn253 2.039 . S
O263 C267 1.251 . S
O264 Zn245 2.025 . S
O264 C267 1.254 . S
O265 C246 1.246 . S
O265 Zn253 2.034 . S
O266 Zn245 2.024 . S
O266 C246 1.249 . S
C267 O263 1.251 . S
C267 O264 1.254 . S
H268 C241 0.949 . S
H269 C243 0.950 . S
H270 C250 0.949 . S
H271 C252 0.950 . S
C272 C273 1.349 1_556 S
C272 C274 1.327 . S
C272 H297 0.950 . S
C273 C272 1.349 1_554 S
C273 C289 1.349 . S
C274 C272 1.327 . S
C274 C293 1.429 1_556 S
C274 H298 0.950 . S
C275 C292 1.574 . S
C275 C294 1.368 . S
C275 H299 0.949 . S
H276 C280 0.949 . S
C277 C278 1.368 . S
C277 C279 1.327 . S
C277 H300 0.950 . S
C278 C277 1.368 . S
C278 C290 1.331 1_554 S
C279 C277 1.327 . S
C279 C295 1.429 . S
C279 H301 0.950 . S
C280 H276 0.949 . S
C280 C288 1.574 . S
C280 C296 1.368 1_556 S
H281 C289 0.950 . S
H282 C287 0.950 . S
H283 C288 0.949 . S
H284 C290 0.950 . S
H285 C291 0.950 . S
H286 C292 0.949 . S
C287 H282 0.950 . S
C287 C289 1.327 . S
C287 C293 1.429 . S
C288 C280 1.574 . S
C288 H283 0.949 . S
C288 C294 1.368 1_556 S
C289 C273 1.349 . S
C289 H281 0.950 . S
C289 C287 1.327 . S
C290 C278 1.331 1_556 S
C290 H284 0.950 . S
C290 C291 1.327 . S
C291 H285 0.950 . S
C291 C290 1.327 . S
C291 C295 1.429 1_556 S
C292 C275 1.574 . S
C292 H286 0.949 . S
C292 C296 1.368 . S
C293 C274 1.429 1_554 S
C293 C287 1.429 . S
C293 C294 1.523 . S
C294 C275 1.368 . S
C294 C288 1.368 1_554 S
C294 C293 1.523 . S
C295 C279 1.429 . S
C295 C291 1.429 1_554 S
C295 C296 1.523 . S
C296 C280 1.368 1_554 S
C296 C292 1.368 . S
C296 C295 1.523 . S
H297 C272 0.950 . S
H298 C274 0.950 . S
H299 C275 0.949 . S
H300 C277 0.950 . S
H301 C279 0.950 . S
C302 C303 1.338 1_556 S
C302 C304 1.327 . S
C302 H327 0.950 . S
C303 C302 1.338 1_554 S
C303 C319 1.360 . S
C304 C302 1.327 . S
C304 C323 1.403 1_556 S
C304 H328 0.950 . S
C305 C322 1.574 . S
C305 C324 1.368 . S
C305 H329 0.949 . S
H306 C310 0.949 . S
C307 C308 1.349 . S
C307 C309 1.327 . S
C307 H330 0.950 . S
C308 C307 1.349 . S
C308 C320 1.349 1_554 S
C309 C307 1.327 . S
C309 C325 1.429 . S
C309 H331 0.950 . S
C310 H306 0.949 . S
C310 C318 1.574 . S
C310 C326 1.368 1_556 S
H311 C319 0.950 . S
H312 C317 0.950 . S
H313 C318 0.949 . S
H314 C320 0.950 . S
H315 C321 0.950 . S
H316 C322 0.949 . S
C317 H312 0.950 . S
C317 C319 1.327 . S
C317 C323 1.455 . S
C318 C310 1.574 . S
C318 H313 0.949 . S
C318 C324 1.368 1_556 S
C319 C303 1.360 . S
C319 H311 0.950 . S
C319 C317 1.327 . S
C320 C308 1.349 1_556 S
C320 H314 0.950 . S
C320 C321 1.327 . S
C321 H315 0.950 . S
C321 C320 1.327 . S
C321 C325 1.429 1_556 S
C322 C305 1.574 . S
C322 H316 0.949 . S
C322 C326 1.368 . S
C323 C304 1.403 1_554 S
C323 C317 1.455 . S
C323 C324 1.524 . S
C324 C305 1.368 . S
C324 C318 1.368 1_554 S
C324 C323 1.524 . S
C325 C309 1.429 . S
C325 C321 1.429 1_554 S
C325 C326 1.523 . S
C326 C310 1.368 1_554 S
C326 C322 1.368 . S
C326 C325 1.523 . S
H327 C302 0.950 . S
H328 C304 0.950 . S
H329 C305 0.949 . S
H330 C307 0.950 . S
H331 C309 0.950 . S
C332 C333 1.349 . S
C332 C334 1.327 . S
C332 H357 0.950 . S
C333 C332 1.349 . S
C333 C349 1.349 . S
C334 C332 1.327 . S
C334 C353 1.429 . S
C334 H358 0.950 . S
C335 C352 1.574 . S
C335 C354 1.368 . S
C335 H359 0.949 . S
H336 C340 0.949 . S
C337 C338 1.349 . S
C337 C339 1.327 . S
C337 H360 0.950 . S
C338 C337 1.349 . S
C338 C350 1.349 . S
C339 C337 1.327 . S
C339 C355 1.429 . S
C339 H361 0.950 . S
C340 H336 0.949 . S
C340 C348 1.574 . S
C340 C356 1.368 . S
H341 C349 0.950 . S
H342 C347 0.950 . S
H343 C348 0.949 . S
H344 C350 0.950 . S
H345 C351 0.950 . S
H346 C352 0.949 . S
C347 H342 0.950 . S
C347 C349 1.327 . S
C347 C353 1.429 . S
C348 C340 1.574 . S
C348 H343 0.949 . S
C348 C354 1.368 . S
C349 C333 1.349 . S
C349 H341 0.950 . S
C349 C347 1.327 . S
C350 C338 1.349 . S
C350 H344 0.950 . S
C350 C351 1.327 . S
C351 H345 0.950 . S
C351 C350 1.327 . S
C351 C355 1.429 . S
C352 C335 1.574 . S
C352 H346 0.949 . S
C352 C356 1.368 . S
C353 C334 1.429 . S
C353 C347 1.429 . S
C353 C354 1.523 . S
C354 C335 1.368 . S
C354 C348 1.368 . S
C354 C353 1.523 . S
C355 C339 1.429 . S
C355 C351 1.429 . S
C355 C356 1.523 . S
C356 C340 1.368 . S
C356 C352 1.368 . S
C356 C355 1.523 . S
H357 C332 0.950 . S
H358 C334 0.950 . S
H359 C335 0.949 . S
H360 C337 0.950 . S
H361 C339 0.950 . S
C362 C363 1.349 . S
C362 C364 1.327 . S
C362 H387 0.950 . S
C363 C362 1.349 . S
C363 C379 1.349 . S
C364 C362 1.327 . S
C364 C383 1.429 . S
C364 H388 0.950 . S
C365 C382 1.574 . S
C365 C384 1.368 . S
C365 H389 0.949 . S
H366 C370 0.949 . S
C367 C368 1.349 . S
C367 C369 1.327 . S
C367 H390 0.950 . S
C368 C367 1.349 . S
C368 C380 1.349 . S
C369 C367 1.327 . S
C369 C385 1.429 . S
C369 H391 0.950 . S
C370 H366 0.949 . S
C370 C378 1.574 . S
C370 C386 1.368 . S
H371 C379 0.950 . S
H372 C377 0.950 . S
H373 C378 0.949 . S
H374 C380 0.950 . S
H375 C381 0.950 . S
H376 C382 0.949 . S
C377 H372 0.950 . S
C377 C379 1.327 . S
C377 C383 1.429 . S
C378 C370 1.574 . S
C378 H373 0.949 . S
C378 C384 1.368 . S
C379 C363 1.349 . S
C379 H371 0.950 . S
C379 C377 1.327 . S
C380 C368 1.349 . S
C380 H374 0.950 . S
C380 C381 1.327 . S
C381 H375 0.950 . S
C381 C380 1.327 . S
C381 C385 1.429 . S
C382 C365 1.574 . S
C382 H376 0.949 . S
C382 C386 1.368 . S
C383 C364 1.429 . S
C383 C377 1.429 . S
C383 C384 1.523 . S
C384 C365 1.368 . S
C384 C378 1.368 . S
C384 C383 1.523 . S
C385 C369 1.429 . S
C385 C381 1.429 . S
C385 C386 1.523 . S
C386 C370 1.368 . S
C386 C382 1.368 . S
C386 C385 1.523 . S
H387 C362 0.950 . S
H388 C364 0.950 . S
H389 C365 0.949 . S
H390 C367 0.950 . S
H391 C369 0.950 . S
C392 C393 1.349 . S
C392 C394 1.327 . S
C392 H417 0.950 . S
C393 C392 1.349 . S
C393 C409 1.349 1_554 S
C394 C392 1.327 . S
C394 C413 1.429 . S
C394 H418 0.950 . S
C395 C412 1.574 . S
C395 C414 1.368 1_456 S
C395 H419 0.949 1_455 S
H396 C400 0.949 . S
C397 C398 1.325 1_556 S
C397 C399 1.327 . S
C397 H420 0.950 . S
C398 C397 1.325 1_554 S
C398 C410 1.374 . S
C399 C397 1.327 . S
C399 C415 1.429 1_556 S
C399 H421 0.950 . S
C400 H396 0.949 . S
C400 C408 1.574 . S
C400 C416 1.368 . S
H401 C409 0.950 . S
H402 C407 0.950 . S
H403 C408 0.949 1_655 S
H404 C410 0.950 . S
H405 C411 0.950 . S
H406 C412 0.949 . S
C407 H402 0.950 . S
C407 C409 1.327 . S
C407 C413 1.429 1_556 S
C408 C400 1.574 . S
C408 H403 0.949 1_455 S
C408 C414 1.368 1_455 S
C409 C393 1.349 1_556 S
C409 H401 0.950 . S
C409 C407 1.327 . S
C410 C398 1.374 . S
C410 H404 0.950 . S
C410 C411 1.327 . S
C411 H405 0.950 . S
C411 C410 1.327 . S
C411 C415 1.429 . S
C412 C395 1.574 . S
C412 H406 0.949 . S
C412 C416 1.368 1_556 S
C413 C394 1.429 . S
C413 C407 1.429 1_554 S
C413 C414 1.523 . S
C414 C395 1.368 1_654 S
C414 C408 1.368 1_655 S
C414 C413 1.523 . S
C415 C399 1.429 1_554 S
C415 C411 1.429 . S
C415 C416 1.523 . S
C416 C400 1.368 . S
C416 C412 1.368 1_554 S
C416 C415 1.523 . S
H417 C392 0.950 . S
H418 C394 0.950 . S
H419 C395 0.949 1_655 S
H420 C397 0.950 . S
H421 C399 0.950 . S
C422 C423 1.349 . S
C422 C424 1.327 . S
C422 H447 0.950 . S
C423 C422 1.349 . S
C423 C439 1.349 1_554 S
C424 C422 1.327 . S
C424 C443 1.429 . S
C424 H448 0.950 . S
C425 C442 1.574 . S
C425 C444 1.368 1_656 S
C425 H449 0.949 1_655 S
H426 C430 0.949 . S
C427 C428 1.338 1_556 S
C427 C429 1.327 . S
C427 H450 0.950 . S
C428 C427 1.338 1_554 S
C428 C440 1.360 . S
C429 C427 1.327 . S
C429 C445 1.402 1_556 S
C429 H451 0.950 . S
C430 H426 0.949 . S
C430 C438 1.574 . S
C430 C446 1.368 . S
H431 C439 0.950 . S
H432 C437 0.950 . S
H433 C438 0.949 1_455 S
H434 C440 0.950 . S
H435 C441 0.950 . S
H436 C442 0.949 . S
C437 H432 0.950 . S
C437 C439 1.327 . S
C437 C443 1.429 1_556 S
C438 C430 1.574 . S
C438 H433 0.949 1_655 S
C438 C444 1.368 1_655 S
C439 C423 1.349 1_556 S
C439 H431 0.950 . S
C439 C437 1.327 . S
C440 C428 1.360 . S
C440 H434 0.950 . S
C440 C441 1.327 . S
C441 H435 0.950 . S
C441 C440 1.327 . S
C441 C445 1.456 . S
C442 C425 1.574 . S
C442 H436 0.949 . S
C442 C446 1.368 1_556 S
C443 C424 1.429 . S
C443 C437 1.429 1_554 S
C443 C444 1.523 . S
C444 C425 1.368 1_454 S
C444 C438 1.368 1_455 S
C444 C443 1.523 . S
C445 C429 1.402 1_554 S
C445 C441 1.456 . S
C445 C446 1.524 . S
C446 C430 1.368 . S
C446 C442 1.368 1_554 S
C446 C445 1.524 . S
H447 C422 0.950 . S
H448 C424 0.950 . S
H449 C425 0.949 1_455 S
H450 C427 0.950 . S
H451 C429 0.950 . S
C452 C453 1.349 . S
C452 C454 1.327 . S
C452 H477 0.950 . S
C453 C452 1.349 . S
C453 C469 1.349 . S
C454 C452 1.327 . S
C454 C473 1.429 . S
C454 H478 0.950 . S
C455 C472 1.574 . S
C455 C474 1.368 . S
C455 H479 0.949 . S
H456 C460 0.949 1_655 S
C457 C458 1.349 . S
C457 C459 1.327 . S
C457 H480 0.950 . S
C458 C457 1.349 . S
C458 C470 1.349 . S
C459 C457 1.327 . S
C459 C475 1.429 . S
C459 H481 0.950 . S
C460 H456 0.949 1_455 S
C460 C468 1.574 . S
C460 C476 1.368 1_455 S
H461 C469 0.950 . S
H462 C467 0.950 . S
H463 C468 0.949 . S
H464 C470 0.950 . S
H465 C471 0.950 . S
H466 C472 0.949 1_655 S
C467 H462 0.950 . S
C467 C469 1.327 . S
C467 C473 1.429 . S
C468 C460 1.574 . S
C468 H463 0.949 . S
C468 C474 1.368 . S
C469 C453 1.349 . S
C469 H461 0.950 . S
C469 C467 1.327 . S
C470 C458 1.349 . S
C470 H464 0.950 . S
C470 C471 1.327 . S
C471 H465 0.950 . S
C471 C470 1.327 . S
C471 C475 1.429 . S
C472 C455 1.574 . S
C472 H466 0.949 1_455 S
C472 C476 1.368 1_455 S
C473 C454 1.429 . S
C473 C467 1.429 . S
C473 C474 1.523 . S
C474 C455 1.368 . S
C474 C468 1.368 . S
C474 C473 1.523 . S
C475 C459 1.429 . S
C475 C471 1.429 . S
C475 C476 1.523 . S
C476 C460 1.368 1_655 S
C476 C472 1.368 1_655 S
C476 C475 1.523 . S
H477 C452 0.950 . S
H478 C454 0.950 . S
H479 C455 0.949 . S
H480 C457 0.950 . S
H481 C459 0.950 . S
C482 C483 1.349 . S
C482 C484 1.327 . S
C482 H507 0.950 . S
C483 C482 1.349 . S
C483 C499 1.349 . S
C484 C482 1.327 . S
C484 C503 1.429 . S
C484 H508 0.950 . S
C485 C502 1.574 . S
C485 C504 1.368 . S
C485 H509 0.949 . S
H486 C490 0.949 1_455 S
C487 C488 1.349 . S
C487 C489 1.327 . S
C487 H510 0.950 . S
C488 C487 1.349 . S
C488 C500 1.349 . S
C489 C487 1.327 . S
C489 C505 1.429 . S
C489 H511 0.950 . S
C490 H486 0.949 1_655 S
C490 C498 1.574 . S
C490 C506 1.368 1_655 S
H491 C499 0.950 . S
H492 C497 0.950 . S
H493 C498 0.949 . S
H494 C500 0.950 . S
H495 C501 0.950 . S
H496 C502 0.949 1_455 S
C497 H492 0.950 . S
C497 C499 1.327 . S
C497 C503 1.429 . S
C498 C490 1.574 . S
C498 H493 0.949 . S
C498 C504 1.368 . S
C499 C483 1.349 . S
C499 H491 0.950 . S
C499 C497 1.327 . S
C500 C488 1.349 . S
C500 H494 0.950 . S
C500 C501 1.327 . S
C501 H495 0.950 . S
C501 C500 1.327 . S
C501 C505 1.429 . S
C502 C485 1.574 . S
C502 H496 0.949 1_655 S
C502 C506 1.368 1_655 S
C503 C484 1.429 . S
C503 C497 1.429 . S
C503 C504 1.523 . S
C504 C485 1.368 . S
C504 C498 1.368 . S
C504 C503 1.523 . S
C505 C489 1.429 . S
C505 C501 1.429 . S
C505 C506 1.523 . S
C506 C490 1.368 1_455 S
C506 C502 1.368 1_455 S
C506 C505 1.523 . S
H507 C482 0.950 . S
H508 C484 0.950 . S
H509 C485 0.949 . S
H510 C487 0.950 . S
H511 C489 0.950 . S
C512 C513 1.349 . S
C512 C514 1.327 . S
C512 H537 0.950 . S
C513 C512 1.349 . S
C513 C529 1.349 1_654 S
C514 C512 1.327 . S
C514 C533 1.429 . S
C514 H538 0.950 . S
C515 C532 1.574 . S
C515 C534 1.368 1_456 S
C515 H539 0.949 . S
H516 C520 0.949 . S
C517 C518 1.349 1_556 S
C517 C519 1.327 . S
C517 H540 0.950 . S
C518 C517 1.349 1_554 S
C518 C530 1.349 1_455 S
C519 C517 1.327 . S
C519 C535 1.429 1_556 S
C519 H541 0.950 . S
C520 H516 0.949 . S
C520 C528 1.574 . S
C520 C536 1.368 1_655 S
H521 C529 0.950 . S
H522 C527 0.950 . S
H523 C528 0.949 . S
H524 C530 0.950 . S
H525 C531 0.950 . S
H526 C532 0.949 . S
C527 H522 0.950 . S
C527 C529 1.327 . S
C527 C533 1.429 1_456 S
C528 C520 1.574 . S
C528 H523 0.949 . S
C528 C534 1.368 . S
C529 C513 1.349 1_456 S
C529 H521 0.950 . S
C529 C527 1.327 . S
C530 C518 1.349 1_655 S
C530 H524 0.950 . S
C530 C531 1.327 . S
C531 H525 0.950 . S
C531 C530 1.327 . S
C531 C535 1.429 1_655 S
C532 C515 1.574 . S
C532 H526 0.949 . S
C532 C536 1.368 1_556 S
C533 C514 1.429 . S
C533 C527 1.429 1_654 S
C533 C534 1.523 . S
C534 C515 1.368 1_654 S
C534 C528 1.368 . S
C534 C533 1.523 . S
C535 C519 1.429 1_554 S
C535 C531 1.429 1_455 S
C535 C536 1.523 . S
C536 C520 1.368 1_455 S
C536 C532 1.368 1_554 S
C536 C535 1.523 . S
H537 C512 0.950 . S
H538 C514 0.950 . S
H539 C515 0.949 . S
H540 C517 0.950 . S
H541 C519 0.950 . S
C542 C543 1.349 1_455 S
C542 C544 1.327 . S
C542 H567 0.950 . S
C543 C542 1.349 1_655 S
C543 C559 1.349 . S
C544 C542 1.327 . S
C544 C563 1.429 1_455 S
C544 H568 0.950 . S
C545 C562 1.574 . S
C545 C564 1.368 . S
C545 H569 0.949 . S
H546 C550 0.949 . S
C547 C548 1.349 1_655 S
C547 C549 1.327 . S
C547 H570 0.950 . S
C548 C547 1.349 1_455 S
C548 C560 1.349 . S
C549 C547 1.327 . S
C549 C565 1.429 1_655 S
C549 H571 0.950 . S
C550 H546 0.949 . S
C550 C558 1.574 . S
C550 C566 1.368 . S
H551 C559 0.950 . S
H552 C557 0.950 . S
H553 C558 0.949 . S
H554 C560 0.950 . S
H555 C561 0.950 . S
H556 C562 0.949 . S
C557 H552 0.950 . S
C557 C559 1.327 . S
C557 C563 1.429 . S
C558 C550 1.574 . S
C558 H553 0.949 . S
C558 C564 1.368 1_455 S
C559 C543 1.349 . S
C559 H551 0.950 . S
C559 C557 1.327 . S
C560 C548 1.349 . S
C560 H554 0.950 . S
C560 C561 1.327 . S
C561 H555 0.950 . S
C561 C560 1.327 . S
C561 C565 1.429 . S
C562 C545 1.574 . S
C562 H556 0.949 . S
C562 C566 1.368 1_655 S
C563 C544 1.429 1_655 S
C563 C557 1.429 . S
C563 C564 1.523 . S
C564 C545 1.368 . S
C564 C558 1.368 1_655 S
C564 C563 1.523 . S
C565 C549 1.429 1_455 S
C565 C561 1.429 . S
C565 C566 1.523 . S
C566 C550 1.368 . S
C566 C562 1.368 1_455 S
C566 C565 1.523 . S
H567 C542 0.950 . S
H568 C544 0.950 . S
H569 C545 0.949 . S
H570 C547 0.950 . S
H571 C549 0.950 . S
C572 C573 1.349 . S
C572 C574 1.327 . S
C572 H597 0.950 . S
C573 C572 1.349 . S
C573 C589 1.349 1_554 S
C574 C572 1.327 . S
C574 C593 1.429 . S
C574 H598 0.950 . S
C575 C592 1.574 1_565 S
C575 C594 1.368 1_556 S
C575 H599 0.949 . S
H576 C580 0.949 . S
C577 C578 1.349 1_556 S
C577 C579 1.327 . S
C577 H600 0.950 . S
C578 C577 1.349 1_554 S
C578 C590 1.349 . S
C579 C577 1.327 . S
C579 C595 1.429 1_556 S
C579 H601 0.950 . S
C580 H576 0.949 . S
C580 C588 1.574 1_545 S
C580 C596 1.368 . S
H581 C589 0.950 . S
H582 C587 0.950 . S
H583 C588 0.949 . S
H584 C590 0.950 . S
H585 C591 0.950 . S
H586 C592 0.949 . S
C587 H582 0.950 . S
C587 C589 1.327 . S
C587 C593 1.429 1_556 S
C588 C580 1.574 1_565 S
C588 H583 0.949 . S
C588 C594 1.368 . S
C589 C573 1.349 1_556 S
C589 H581 0.950 . S
C589 C587 1.327 . S
C590 C578 1.349 . S
C590 H584 0.950 . S
C590 C591 1.327 . S
C591 H585 0.950 . S
C591 C590 1.327 . S
C591 C595 1.429 . S
C592 C575 1.574 1_545 S
C592 H586 0.949 . S
C592 C596 1.368 1_556 S
C593 C574 1.429 . S
C593 C587 1.429 1_554 S
C593 C594 1.523 . S
C594 C575 1.368 1_554 S
C594 C588 1.368 . S
C594 C593 1.523 . S
C595 C579 1.429 1_554 S
C595 C591 1.429 . S
C595 C596 1.523 . S
C596 C580 1.368 . S
C596 C592 1.368 1_554 S
C596 C595 1.523 . S
H597 C572 0.950 . S
H598 C574 0.950 . S
H599 C575 0.949 . S
H600 C577 0.950 . S
H601 C579 0.950 . S
C602 C603 1.349 . S
C602 C604 1.327 . S
C602 H627 0.950 . S
C603 C602 1.349 . S
C603 C619 1.349 . S
C604 C602 1.327 . S
C604 C623 1.429 . S
C604 H628 0.950 . S
C605 C622 1.574 1_545 S
C605 C624 1.368 . S
C605 H629 0.949 . S
H606 C610 0.949 . S
C607 C608 1.349 . S
C607 C609 1.327 . S
C607 H630 0.950 . S
C608 C607 1.349 . S
C608 C620 1.349 . S
C609 C607 1.327 . S
C609 C625 1.429 . S
C609 H631 0.950 . S
C610 H606 0.949 . S
C610 C618 1.574 1_565 S
C610 C626 1.368 . S
H611 C619 0.950 . S
H612 C617 0.950 . S
H613 C618 0.949 . S
H614 C620 0.950 . S
H615 C621 0.950 . S
H616 C622 0.949 . S
C617 H612 0.950 . S
C617 C619 1.327 . S
C617 C623 1.429 . S
C618 C610 1.574 1_545 S
C618 H613 0.949 . S
C618 C624 1.368 . S
C619 C603 1.349 . S
C619 H611 0.950 . S
C619 C617 1.327 . S
C620 C608 1.349 . S
C620 H614 0.950 . S
C620 C621 1.327 . S
C621 H615 0.950 . S
C621 C620 1.327 . S
C621 C625 1.429 . S
C622 C605 1.574 1_565 S
C622 H616 0.949 . S
C622 C626 1.368 . S
C623 C604 1.429 . S
C623 C617 1.429 . S
C623 C624 1.523 . S
C624 C605 1.368 . S
C624 C618 1.368 . S
C624 C623 1.523 . S
C625 C609 1.429 . S
C625 C621 1.429 . S
C625 C626 1.523 . S
C626 C610 1.368 . S
C626 C622 1.368 . S
C626 C625 1.523 . S
H627 C602 0.950 . S
H628 C604 0.950 . S
H629 C605 0.949 . S
H630 C607 0.950 . S
H631 C609 0.950 . S
C632 C633 1.337 1_556 S
C632 C634 1.327 . S
C632 H657 0.950 . S
C633 C632 1.337 1_554 S
C633 C649 1.360 . S
C634 C632 1.327 . S
C634 C653 1.429 . S
C634 H658 0.950 . S
C635 C652 1.574 . S
C635 C654 1.357 1_554 S
C635 H659 0.949 . S
H636 C640 0.949 . S
C637 C638 1.349 1_554 S
C637 C639 1.327 . S
C637 H660 0.950 . S
C638 C637 1.349 1_556 S
C638 C650 1.349 . S
C639 C637 1.327 . S
C639 C655 1.429 1_554 S
C639 H661 0.950 . S
C640 H636 0.949 . S
C640 C648 1.574 . S
C640 C656 1.400 . S
H641 C649 0.950 . S
H642 C647 0.950 . S
H643 C648 0.949 . S
H644 C650 0.950 . S
H645 C651 0.950 . S
H646 C652 0.949 . S
C647 H642 0.950 . S
C647 C649 1.327 . S
C647 C653 1.428 1_554 S
C648 C640 1.574 . S
C648 H643 0.949 . S
C648 C654 1.380 . S
C649 C633 1.360 . S
C649 H641 0.950 . S
C649 C647 1.327 . S
C650 C638 1.349 . S
C650 H644 0.950 . S
C650 C651 1.327 . S
C651 H645 0.950 . S
C651 C650 1.327 . S
C651 C655 1.429 . S
C652 C635 1.574 . S
C652 H646 0.949 . S
C652 C656 1.336 1_554 S
C653 C634 1.429 . S
C653 C647 1.428 1_556 S
C653 C654 1.522 . S
C654 C635 1.357 1_556 S
C654 C648 1.380 . S
C654 C653 1.522 . S
C655 C639 1.429 1_556 S
C655 C651 1.429 . S
C655 C656 1.525 . S
C656 C640 1.400 . S
C656 C652 1.336 1_556 S
C656 C655 1.525 . S
H657 C632 0.950 . S
H658 C634 0.950 . S
H659 C635 0.949 . S
H660 C637 0.950 . S
H661 C639 0.950 . S
C662 C663 1.361 . S
C662 C664 1.327 . S
C662 H687 0.950 . S
C663 C662 1.361 . S
C663 C679 1.337 1_554 S
C664 C662 1.327 . S
C664 C683 1.428 1_554 S
C664 H688 0.950 . S
C665 C682 1.574 . S
C665 C684 1.381 . S
C665 H689 0.949 . S
H666 C670 0.949 . S
C667 C668 1.349 . S
C667 C669 1.327 . S
C667 H690 0.950 . S
C668 C667 1.349 . S
C668 C680 1.349 1_556 S
C669 C667 1.327 . S
C669 C685 1.429 . S
C669 H691 0.950 . S
C670 H666 0.949 . S
C670 C678 1.574 . S
C670 C686 1.336 1_554 S
H671 C679 0.950 . S
H672 C677 0.950 . S
H673 C678 0.949 . S
H674 C680 0.950 . S
H675 C681 0.950 . S
H676 C682 0.949 . S
C677 H672 0.950 . S
C677 C679 1.327 . S
C677 C683 1.429 . S
C678 C670 1.574 . S
C678 H673 0.949 . S
C678 C684 1.357 1_554 S
C679 C663 1.337 1_556 S
C679 H671 0.950 . S
C679 C677 1.327 . S
C680 C668 1.349 1_554 S
C680 H674 0.950 . S
C680 C681 1.327 . S
C681 H675 0.950 . S
C681 C680 1.327 . S
C681 C685 1.429 1_554 S
C682 C665 1.574 . S
C682 H676 0.949 . S
C682 C686 1.400 . S
C683 C664 1.428 1_556 S
C683 C677 1.429 . S
C683 C684 1.522 . S
C684 C665 1.381 . S
C684 C678 1.357 1_556 S
C684 C683 1.522 . S
C685 C669 1.429 . S
C685 C681 1.429 1_556 S
C685 C686 1.525 . S
C686 C670 1.336 1_556 S
C686 C682 1.400 . S
C686 C685 1.525 . S
H687 C662 0.950 . S
H688 C664 0.950 . S
H689 C665 0.949 . S
H690 C667 0.950 . S
H691 C669 0.950 . S
C692 C693 1.349 . S
C692 C694 1.327 . S
C692 H717 0.950 . S
C693 C692 1.349 . S
C693 C709 1.349 . S
C694 C692 1.327 . S
C694 C713 1.429 . S
C694 H718 0.950 . S
C695 C712 1.574 . S
C695 C714 1.368 . S
C695 H719 0.949 . S
H696 C700 0.949 . S
C697 C698 1.349 . S
C697 C699 1.327 . S
C697 H720 0.950 . S
C698 C697 1.349 . S
C698 C710 1.349 . S
C699 C697 1.327 . S
C699 C715 1.429 . S
C699 H721 0.950 . S
C700 H696 0.949 . S
C700 C708 1.574 . S
C700 C716 1.368 . S
H701 C709 0.950 . S
H702 C707 0.950 . S
H703 C708 0.949 . S
H704 C710 0.950 . S
H705 C711 0.950 . S
H706 C712 0.949 . S
C707 H702 0.950 . S
C707 C709 1.327 . S
C707 C713 1.429 . S
C708 C700 1.574 . S
C708 H703 0.949 . S
C708 C714 1.368 . S
C709 C693 1.349 . S
C709 H701 0.950 . S
C709 C707 1.327 . S
C710 C698 1.349 . S
C710 H704 0.950 . S
C710 C711 1.327 . S
C711 H705 0.950 . S
C711 C710 1.327 . S
C711 C715 1.429 . S
C712 C695 1.574 . S
C712 H706 0.949 . S
C712 C716 1.368 . S
C713 C694 1.429 . S
C713 C707 1.429 . S
C713 C714 1.523 . S
C714 C695 1.368 . S
C714 C708 1.368 . S
C714 C713 1.523 . S
C715 C699 1.429 . S
C715 C711 1.429 . S
C715 C716 1.523 . S
C716 C700 1.368 . S
C716 C712 1.368 . S
C716 C715 1.523 . S
H717 C692 0.950 . S
H718 C694 0.950 . S
H719 C695 0.949 . S
H720 C697 0.950 . S
H721 C699 0.950 . S
C722 C723 1.349 . S
C722 C724 1.327 . S
C722 H747 0.950 . S
C723 C722 1.349 . S
C723 C739 1.349 . S
C724 C722 1.327 . S
C724 C743 1.429 . S
C724 H748 0.950 . S
C725 C742 1.574 . S
C725 C744 1.368 . S
C725 H749 0.949 . S
H726 C730 0.949 . S
C727 C728 1.349 . S
C727 C729 1.327 . S
C727 H750 0.950 . S
C728 C727 1.349 . S
C728 C740 1.349 . S
C729 C727 1.327 . S
C729 C745 1.429 . S
C729 H751 0.950 . S
C730 H726 0.949 . S
C730 C738 1.574 . S
C730 C746 1.368 . S
H731 C739 0.950 . S
H732 C737 0.950 . S
H733 C738 0.949 . S
H734 C740 0.950 . S
H735 C741 0.950 . S
H736 C742 0.949 . S
C737 H732 0.950 . S
C737 C739 1.327 . S
C737 C743 1.429 . S
C738 C730 1.574 . S
C738 H733 0.949 . S
C738 C744 1.368 . S
C739 C723 1.349 . S
C739 H731 0.950 . S
C739 C737 1.327 . S
C740 C728 1.349 . S
C740 H734 0.950 . S
C740 C741 1.327 . S
C741 H735 0.950 . S
C741 C740 1.327 . S
C741 C745 1.429 . S
C742 C725 1.574 . S
C742 H736 0.949 . S
C742 C746 1.368 . S
C743 C724 1.429 . S
C743 C737 1.429 . S
C743 C744 1.523 . S
C744 C725 1.368 . S
C744 C738 1.368 . S
C744 C743 1.523 . S
C745 C729 1.429 . S
C745 C741 1.429 . S
C745 C746 1.523 . S
C746 C730 1.368 . S
C746 C742 1.368 . S
C746 C745 1.523 . S
H747 C722 0.950 . S
H748 C724 0.950 . S
H749 C725 0.949 . S
H750 C727 0.950 . S
H751 C729 0.950 . S
C752 C753 1.349 . S
C752 C754 1.327 1_455 S
C752 H777 0.950 1_455 S
C753 C752 1.349 . S
C753 C769 1.349 . S
C754 C752 1.327 1_655 S
C754 C773 1.429 1_655 S
C754 H778 0.949 . S
C755 C772 1.574 . S
C755 C774 1.368 . S
C755 H779 0.949 . S
H756 C760 0.949 . S
C757 C758 1.349 . S
C757 C759 1.327 1_655 S
C757 H780 0.950 1_655 S
C758 C757 1.349 . S
C758 C770 1.349 . S
C759 C757 1.327 1_455 S
C759 C775 1.429 1_455 S
C759 H781 0.950 . S
C760 H756 0.949 . S
C760 C768 1.574 . S
C760 C776 1.368 . S
H761 C769 0.950 . S
H762 C767 0.950 . S
H763 C768 0.949 . S
H764 C770 0.950 . S
H765 C771 0.950 . S
H766 C772 0.949 . S
C767 H762 0.950 . S
C767 C769 1.327 . S
C767 C773 1.429 . S
C768 C760 1.574 . S
C768 H763 0.949 . S
C768 C774 1.368 1_655 S
C769 C753 1.349 . S
C769 H761 0.950 . S
C769 C767 1.327 . S
C770 C758 1.349 . S
C770 H764 0.950 . S
C770 C771 1.327 . S
C771 H765 0.950 . S
C771 C770 1.327 . S
C771 C775 1.429 . S
C772 C755 1.574 . S
C772 H766 0.949 . S
C772 C776 1.368 1_455 S
C773 C754 1.429 1_455 S
C773 C767 1.429 . S
C773 C774 1.523 . S
C774 C755 1.368 . S
C774 C768 1.368 1_455 S
C774 C773 1.523 . S
C775 C759 1.429 1_655 S
C775 C771 1.429 . S
C775 C776 1.523 . S
C776 C760 1.368 . S
C776 C772 1.368 1_655 S
C776 C775 1.523 . S
H777 C752 0.950 1_655 S
H778 C754 0.949 . S
H779 C755 0.949 . S
H780 C757 0.950 1_455 S
H781 C759 0.950 . S
C782 C783 1.349 . S
C782 C784 1.327 1_655 S
C782 H807 0.950 1_655 S
C783 C782 1.349 . S
C783 C799 1.349 . S
C784 C782 1.327 1_455 S
C784 C803 1.429 1_455 S
C784 H808 0.950 . S
C785 C802 1.574 . S
C785 C804 1.368 . S
C785 H809 0.949 . S
H786 C790 0.949 . S
C787 C788 1.349 . S
C787 C789 1.327 1_455 S
C787 H810 0.950 1_455 S
C788 C787 1.349 . S
C788 C800 1.349 . S
C789 C787 1.327 1_655 S
C789 C805 1.429 1_655 S
C789 H811 0.950 . S
C790 H786 0.949 . S
C790 C798 1.574 . S
C790 C806 1.368 . S
H791 C799 0.950 . S
H792 C797 0.950 . S
H793 C798 0.949 . S
H794 C800 0.950 . S
H795 C801 0.950 . S
H796 C802 0.949 . S
C797 H792 0.950 . S
C797 C799 1.327 . S
C797 C803 1.429 . S
C798 C790 1.574 . S
C798 H793 0.949 . S
C798 C804 1.368 1_455 S
C799 C783 1.349 . S
C799 H791 0.950 . S
C799 C797 1.327 . S
C800 C788 1.349 . S
C800 H794 0.950 . S
C800 C801 1.327 . S
C801 H795 0.950 . S
C801 C800 1.327 . S
C801 C805 1.429 . S
C802 C785 1.574 . S
C802 H796 0.949 . S
C802 C806 1.368 1_655 S
C803 C784 1.429 1_655 S
C803 C797 1.429 . S
C803 C804 1.523 . S
C804 C785 1.368 . S
C804 C798 1.368 1_655 S
C804 C803 1.523 . S
C805 C789 1.429 1_455 S
C805 C801 1.429 . S
C805 C806 1.523 . S
C806 C790 1.368 . S
C806 C802 1.368 1_455 S
C806 C805 1.523 . S
H807 C782 0.950 1_455 S
H808 C784 0.950 . S
H809 C785 0.949 . S
H810 C787 0.950 1_655 S
H811 C789 0.950 . S
C812 C813 1.349 . S
C812 C814 1.327 . S
C812 H837 0.950 . S
C813 C812 1.349 . S
C813 C829 1.349 . S
C814 C812 1.327 . S
C814 C833 1.429 . S
C814 H838 0.950 . S
C815 C832 1.574 . S
C815 C834 1.368 1_455 S
C815 H839 0.949 . S
H816 C820 0.949 . S
C817 C818 1.349 . S
C817 C819 1.327 . S
C817 H840 0.950 . S
C818 C817 1.349 . S
C818 C830 1.349 . S
C819 C817 1.327 . S
C819 C835 1.429 . S
C819 H841 0.950 . S
C820 H816 0.949 . S
C820 C828 1.574 . S
C820 C836 1.368 1_655 S
H821 C829 0.950 1_455 S
H822 C827 0.950 . S
H823 C828 0.949 . S
H824 C830 0.950 1_655 S
H825 C831 0.950 . S
H826 C832 0.949 . S
C827 H822 0.950 . S
C827 C829 1.327 1_455 S
C827 C833 1.429 1_455 S
C828 C820 1.574 . S
C828 H823 0.949 . S
C828 C834 1.368 . S
C829 C813 1.349 . S
C829 H821 0.950 1_655 S
C829 C827 1.327 1_655 S
C830 C818 1.349 . S
C830 H824 0.950 1_455 S
C830 C831 1.327 1_455 S
C831 H825 0.950 . S
C831 C830 1.327 1_655 S
C831 C835 1.429 1_655 S
C832 C815 1.574 . S
C832 H826 0.949 . S
C832 C836 1.368 . S
C833 C814 1.429 . S
C833 C827 1.429 1_655 S
C833 C834 1.523 . S
C834 C815 1.368 1_655 S
C834 C828 1.368 . S
C834 C833 1.523 . S
C835 C819 1.429 . S
C835 C831 1.429 1_455 S
C835 C836 1.523 . S
C836 C820 1.368 1_455 S
C836 C832 1.368 . S
C836 C835 1.523 . S
H837 C812 0.950 . S
H838 C814 0.950 . S
H839 C815 0.949 . S
H840 C817 0.950 . S
H841 C819 0.950 . S
C842 C843 1.349 . S
C842 C844 1.326 1_655 S
C842 H867 0.950 1_655 S
C843 C842 1.349 . S
C843 C859 1.349 . S
C844 C842 1.326 1_455 S
C844 C863 1.425 1_455 S
C844 H868 0.954 . S
C845 C862 1.574 . S
C845 C864 1.368 . S
C845 H869 0.949 . S
H846 C850 0.949 . S
C847 C848 1.349 . S
C847 C849 1.327 1_455 S
C847 H870 0.950 1_455 S
C848 C847 1.349 . S
C848 C860 1.349 . S
C849 C847 1.327 1_655 S
C849 C865 1.429 1_655 S
C849 H871 0.950 . S
C850 H846 0.949 . S
C850 C858 1.574 . S
C850 C866 1.368 . S
H851 C859 0.950 . S
H852 C857 0.950 . S
H853 C858 0.949 . S
H854 C860 0.950 . S
H855 C861 0.950 . S
H856 C862 0.949 . S
C857 H852 0.950 . S
C857 C859 1.327 . S
C857 C863 1.429 . S
C858 C850 1.574 . S
C858 H853 0.949 . S
C858 C864 1.368 1_455 S
C859 C843 1.349 . S
C859 H851 0.950 . S
C859 C857 1.327 . S
C860 C848 1.349 . S
C860 H854 0.950 . S
C860 C861 1.327 . S
C861 H855 0.950 . S
C861 C860 1.327 . S
C861 C865 1.429 . S
C862 C845 1.574 . S
C862 H856 0.949 . S
C862 C866 1.368 1_655 S
C863 C844 1.425 1_655 S
C863 C857 1.429 . S
C863 C864 1.523 . S
C864 C845 1.368 . S
C864 C858 1.368 1_655 S
C864 C863 1.523 . S
C865 C849 1.429 1_455 S
C865 C861 1.429 . S
C865 C866 1.523 . S
C866 C850 1.368 . S
C866 C862 1.368 1_455 S
C866 C865 1.523 . S
H867 C842 0.950 1_455 S
H868 C844 0.954 . S
H869 C845 0.949 . S
H870 C847 0.950 1_655 S
H871 C849 0.950 . S
C872 C873 1.349 . S
C872 C874 1.327 . S
C872 H897 0.950 . S
C873 C872 1.349 . S
C873 C889 1.349 . S
C874 C872 1.327 . S
C874 C893 1.429 . S
C874 H898 0.950 . S
C875 C892 1.574 . S
C875 C894 1.368 . S
C875 H899 0.949 . S
H876 C880 0.949 . S
C877 C878 1.349 . S
C877 C879 1.327 . S
C877 H900 0.950 . S
C878 C877 1.349 . S
C878 C890 1.349 . S
C879 C877 1.327 . S
C879 C895 1.429 . S
C879 H901 0.950 . S
C880 H876 0.949 . S
C880 C888 1.574 . S
C880 C896 1.368 . S
H881 C889 0.950 . S
H882 C887 0.950 . S
H883 C888 0.949 . S
H884 C890 0.950 . S
H885 C891 0.950 . S
H886 C892 0.949 . S
C887 H882 0.950 . S
C887 C889 1.327 . S
C887 C893 1.429 . S
C888 C880 1.574 . S
C888 H883 0.949 . S
C888 C894 1.368 . S
C889 C873 1.349 . S
C889 H881 0.950 . S
C889 C887 1.327 . S
C890 C878 1.349 . S
C890 H884 0.950 . S
C890 C891 1.327 . S
C891 H885 0.950 . S
C891 C890 1.327 . S
C891 C895 1.429 . S
C892 C875 1.574 . S
C892 H886 0.949 . S
C892 C896 1.368 . S
C893 C874 1.429 . S
C893 C887 1.429 . S
C893 C894 1.523 . S
C894 C875 1.368 . S
C894 C888 1.368 . S
C894 C893 1.523 . S
C895 C879 1.429 . S
C895 C891 1.429 . S
C895 C896 1.523 . S
C896 C880 1.368 . S
C896 C892 1.368 . S
C896 C895 1.523 . S
H897 C872 0.950 . S
H898 C874 0.950 . S
H899 C875 0.949 . S
H900 C877 0.950 . S
H901 C879 0.950 . S
C902 C903 1.349 . S
C902 C904 1.327 . S
C902 H927 0.950 . S
C903 C902 1.349 . S
C903 C919 1.349 . S
C904 C902 1.327 . S
C904 C923 1.429 . S
C904 H928 0.950 . S
C905 C922 1.574 . S
C905 C924 1.368 . S
C905 H929 0.949 . S
H906 C910 0.949 . S
C907 C908 1.349 . S
C907 C909 1.327 . S
C907 H930 0.950 . S
C908 C907 1.349 . S
C908 C920 1.349 . S
C909 C907 1.327 . S
C909 C925 1.429 . S
C909 H931 0.950 . S
C910 H906 0.949 . S
C910 C918 1.574 . S
C910 C926 1.368 . S
H911 C919 0.950 . S
H912 C917 0.950 . S
H913 C918 0.949 . S
H914 C920 0.950 . S
H915 C921 0.950 . S
H916 C922 0.949 . S
C917 H912 0.950 . S
C917 C919 1.327 . S
C917 C923 1.429 . S
C918 C910 1.574 . S
C918 H913 0.949 . S
C918 C924 1.368 . S
C919 C903 1.349 . S
C919 H911 0.950 . S
C919 C917 1.327 . S
C920 C908 1.349 . S
C920 H914 0.950 . S
C920 C921 1.327 . S
C921 H915 0.950 . S
C921 C920 1.327 . S
C921 C925 1.429 . S
C922 C905 1.574 . S
C922 H916 0.949 . S
C922 C926 1.368 . S
C923 C904 1.429 . S
C923 C917 1.429 . S
C923 C924 1.523 . S
C924 C905 1.368 . S
C924 C918 1.368 . S
C924 C923 1.523 . S
C925 C909 1.429 . S
C925 C921 1.429 . S
C925 C926 1.523 . S
C926 C910 1.368 . S
C926 C922 1.368 . S
C926 C925 1.523 . S
H927 C902 0.950 . S
H928 C904 0.950 . S
H929 C905 0.949 . S
H930 C907 0.950 . S
H931 C909 0.950 . S
C932 C933 1.349 . S
C932 C934 1.327 . S
C932 H957 0.950 . S
C933 C932 1.349 . S
C933 C949 1.349 . S
C934 C932 1.327 . S
C934 C953 1.429 . S
C934 H958 0.950 . S
C935 C952 1.574 . S
C935 C954 1.368 . S
C935 H959 0.949 . S
H936 C940 0.949 . S
C937 C938 1.349 . S
C937 C939 1.327 . S
C937 H960 0.950 . S
C938 C937 1.349 . S
C938 C950 1.349 . S
C939 C937 1.327 . S
C939 C955 1.429 . S
C939 H961 0.950 . S
C940 H936 0.949 . S
C940 C948 1.574 . S
C940 C956 1.368 . S
H941 C949 0.950 . S
H942 C947 0.950 . S
H943 C948 0.949 . S
H944 C950 0.950 . S
H945 C951 0.950 . S
H946 C952 0.949 . S
C947 H942 0.950 . S
C947 C949 1.327 . S
C947 C953 1.429 . S
C948 C940 1.574 . S
C948 H943 0.949 . S
C948 C954 1.368 . S
C949 C933 1.349 . S
C949 H941 0.950 . S
C949 C947 1.327 . S
C950 C938 1.349 . S
C950 H944 0.950 . S
C950 C951 1.327 . S
C951 H945 0.950 . S
C951 C950 1.327 . S
C951 C955 1.429 . S
C952 C935 1.574 . S
C952 H946 0.949 . S
C952 C956 1.368 . S
C953 C934 1.429 . S
C953 C947 1.429 . S
C953 C954 1.523 . S
C954 C935 1.368 . S
C954 C948 1.368 . S
C954 C953 1.523 . S
C955 C939 1.429 . S
C955 C951 1.429 . S
C955 C956 1.523 . S
C956 C940 1.368 . S
C956 C952 1.368 . S
C956 C955 1.523 . S
H957 C932 0.950 . S
H958 C934 0.950 . S
H959 C935 0.949 . S
H960 C937 0.950 . S
H961 C939 0.950 . S
C962 C963 1.349 . S
C962 C964 1.327 . S
C962 H987 0.950 . S
C963 C962 1.349 . S
C963 C979 1.349 . S
C964 C962 1.327 . S
C964 C983 1.429 . S
C964 H988 0.950 . S
C965 C982 1.574 . S
C965 C984 1.368 . S
C965 H989 0.949 . S
H966 C970 0.949 . S
C967 C968 1.349 . S
C967 C969 1.327 . S
C967 H990 0.950 . S
C968 C967 1.349 . S
C968 C980 1.349 . S
C969 C967 1.327 . S
C969 C985 1.429 . S
C969 H991 0.950 . S
C970 H966 0.949 . S
C970 C978 1.574 . S
C970 C986 1.368 . S
H971 C979 0.950 . S
H972 C977 0.950 . S
H973 C978 0.949 . S
H974 C980 0.950 . S
H975 C981 0.950 . S
H976 C982 0.949 . S
C977 H972 0.950 . S
C977 C979 1.327 . S
C977 C983 1.429 . S
C978 C970 1.574 . S
C978 H973 0.949 . S
C978 C984 1.368 . S
C979 C963 1.349 . S
C979 H971 0.950 . S
C979 C977 1.327 . S
C980 C968 1.349 . S
C980 H974 0.950 . S
C980 C981 1.327 . S
C981 H975 0.950 . S
C981 C980 1.327 . S
C981 C985 1.429 . S
C982 C965 1.574 . S
C982 H976 0.949 . S
C982 C986 1.368 . S
C983 C964 1.429 . S
C983 C977 1.429 . S
C983 C984 1.523 . S
C984 C965 1.368 . S
C984 C978 1.368 . S
C984 C983 1.523 . S
C985 C969 1.429 . S
C985 C981 1.429 . S
C985 C986 1.523 . S
C986 C970 1.368 . S
C986 C982 1.368 . S
C986 C985 1.523 . S
H987 C962 0.950 . S
H988 C964 0.950 . S
H989 C965 0.949 . S
H990 C967 0.950 . S
H991 C969 0.950 . S
C273 C17 1.092 . S
C278 C8 1.095 . S
C303 C42 1.093 . S
C308 C51 1.092 . S
C333 C76 1.092 . S
C338 C85 1.092 . S
C363 C110 1.092 . S
C368 C119 1.092 . S
C393 C153 1.092 . S
C398 C144 1.095 . S
C423 C187 1.092 . S
C428 C178 1.093 . S
C453 C212 1.092 . S
C458 C221 1.092 . S
C483 C255 1.092 . S
C488 C246 1.092 . S
C513 C34 1.554 . S
C518 C0 1.555 . S
C543 C131 1.553 . S
C548 C68 1.553 . S
C573 C136 1.555 . S
C578 C170 1.554 . S
C603 C204 1.553 . S
C608 C267 1.553 . S
C633 C29 1.643 . S
C638 C199 1.641 . S
C663 C165 1.643 . S
C668 C63 1.641 . S
C693 C97 1.640 . S
C698 C238 1.640 . S
C723 C102 1.640 . S
C728 C233 1.640 . S
C753 C4 1.580 . S
C758 C106 1.577 . S
C783 C38 1.582 . S
C788 C72 1.585 . S
C813 C47 1.573 . S
C818 C81 1.576 . S
C843 C115 1.574 . S
C848 C13 1.571 . S
C873 C140 1.580 . S
C878 C242 1.577 . S
C903 C174 1.582 . S
C908 C208 1.585 . S
C933 C183 1.573 . S
C938 C217 1.576 . S
C963 C251 1.574 . S
C968 C149 1.571 . S
