# Generated by pormake.
# Topology uku, (4)-cn, num edge types: 1
# Building blocks:
#     Node 0, Type 0, BuildingBlock: KUFVIS_clean_sbu_0, # of connection points: 4
#     Node 1, Type 0, BuildingBlock: KUFVIS_clean_sbu_0, # of connection points: 4
#     Node 2, Type 0, BuildingBlock: KUFVIS_clean_sbu_0, # of connection points: 4
#     Node 3, Type 0, BuildingBlock: KUFVIS_clean_sbu_0, # of connection points: 4
#     Node 4, Type 0, BuildingBlock: KUFVIS_clean_sbu_0, # of connection points: 4
#     Node 5, Type 0, BuildingBlock: KUFVIS_clean_sbu_0, # of connection points: 4
#     Node 6, Type 0, BuildingBlock: KUFVIS_clean_sbu_0, # of connection points: 4
#     Node 7, Type 0, BuildingBlock: KUFVIS_clean_sbu_0, # of connection points: 4
#     Node 8, Type 0, BuildingBlock: KUFVIS_clean_sbu_0, # of connection points: 4
#     Node 9, Type 0, BuildingBlock: KUFVIS_clean_sbu_0, # of connection points: 4
#     Node 10, Type 0, BuildingBlock: KUFVIS_clean_sbu_0, # of connection points: 4
#     Node 11, Type 0, BuildingBlock: KUFVIS_clean_sbu_0, # of connection points: 4
#     Edge 12, Type (0, 0), BuildingBlock: XIVTED_clean_linker_0, # of connection points: 2
#     Edge 13, Type (0, 0), BuildingBlock: XIVTED_clean_linker_0, # of connection points: 2
#     Edge 14, Type (0, 0), BuildingBlock: XIVTED_clean_linker_0, # of connection points: 2
#     Edge 15, Type (0, 0), BuildingBlock: XIVTED_clean_linker_0, # of connection points: 2
#     Edge 16, Type (0, 0), BuildingBlock: XIVTED_clean_linker_0, # of connection points: 2
#     Edge 17, Type (0, 0), BuildingBlock: XIVTED_clean_linker_0, # of connection points: 2
#     Edge 18, Type (0, 0), BuildingBlock: XIVTED_clean_linker_0, # of connection points: 2
#     Edge 19, Type (0, 0), BuildingBlock: XIVTED_clean_linker_0, # of connection points: 2
#     Edge 20, Type (0, 0), BuildingBlock: XIVTED_clean_linker_0, # of connection points: 2
#     Edge 21, Type (0, 0), BuildingBlock: XIVTED_clean_linker_0, # of connection points: 2
#     Edge 22, Type (0, 0), BuildingBlock: XIVTED_clean_linker_0, # of connection points: 2
#     Edge 23, Type (0, 0), BuildingBlock: XIVTED_clean_linker_0, # of connection points: 2
#     Edge 24, Type (0, 0), BuildingBlock: XIVTED_clean_linker_0, # of connection points: 2
#     Edge 25, Type (0, 0), BuildingBlock: XIVTED_clean_linker_0, # of connection points: 2
#     Edge 26, Type (0, 0), BuildingBlock: XIVTED_clean_linker_0, # of connection points: 2
#     Edge 27, Type (0, 0), BuildingBlock: XIVTED_clean_linker_0, # of connection points: 2
#     Edge 28, Type (0, 0), BuildingBlock: XIVTED_clean_linker_0, # of connection points: 2
#     Edge 29, Type (0, 0), BuildingBlock: XIVTED_clean_linker_0, # of connection points: 2
#     Edge 30, Type (0, 0), BuildingBlock: XIVTED_clean_linker_0, # of connection points: 2
#     Edge 31, Type (0, 0), BuildingBlock: XIVTED_clean_linker_0, # of connection points: 2
#     Edge 32, Type (0, 0), BuildingBlock: XIVTED_clean_linker_0, # of connection points: 2
#     Edge 33, Type (0, 0), BuildingBlock: XIVTED_clean_linker_0, # of connection points: 2
#     Edge 34, Type (0, 0), BuildingBlock: XIVTED_clean_linker_0, # of connection points: 2
#     Edge 35, Type (0, 0), BuildingBlock: XIVTED_clean_linker_0, # of connection points: 2
# Relax obj value: 0.400
# Max RMSD: 0.284
# Mean RMSD: 0.284
data_MOF--net-uku--node1-KUFVIS_clean_sbu_0--edge1-XIVTED_clean_linker_0
_symmetry_space_group_name_H-M    P1
_symmetry_Int_Tables_number       1
_symmetry_cell_setting            triclinic
loop_
_symmetry_equiv_pos_as_xyz
'x, y, z'
_cell_length_a     40.755656
_cell_length_b     40.792764
_cell_length_c     40.762663
_cell_angle_alpha  90.024386
_cell_angle_beta   89.947321
_cell_angle_gamma 89.988371
loop_
_atom_site_label
_atom_site_type_symbol
_atom_site_fract_x
_atom_site_fract_y
_atom_site_fract_z
_atom_type_partial_charge
Mn0 Mn 0.05668 0.17216 0.66183 0.0
Mn1 Mn 0.97839 0.18769 0.68202 0.0
C2 C 0.04549 0.21558 0.69564 0.0
C3 C 0.1019 0.13941 0.67141 0.0
C4 C 0.00878 0.20453 0.61602 0.0
O5 O 0.03207 0.1319 0.64767 0.0
O6 O 0.98265 0.14003 0.67079 0.0
C7 C 0.97166 0.14837 0.74268 0.0
N8 N 0.97028 0.17791 0.72716 0.0
C9 C 0.95486 0.20526 0.77716 0.0
C10 C 0.95588 0.1751 0.79362 0.0
C11 C 0.96434 0.14655 0.77629 0.0
C12 C 0.96199 0.20552 0.74354 0.0
H13 H 0.97838 0.12638 0.72953 0.0
C14 C 0.00396 0.12175 0.65647 0.0
O15 O 0.09783 0.15344 0.64305 0.0
O16 O 0.08062 0.14567 0.69421 0.0
N17 N 0.97167 0.23256 0.69419 0.0
C18 C 0.9742 0.26002 0.67532 0.0
C19 C 0.96796 0.29084 0.68934 0.0
C20 C 0.95912 0.29313 0.72257 0.0
C21 C 0.95656 0.26455 0.74148 0.0
C22 C 0.96281 0.23447 0.72611 0.0
H23 H 0.98112 0.25849 0.64981 0.0
O24 O 0.07374 0.21339 0.68101 0.0
O25 O 0.02537 0.1912 0.69123 0.0
O26 O 0.03833 0.19741 0.62323 0.0
O27 O 0.98448 0.19946 0.63525 0.0
C28 C 0.94875 0.2648 0.77516 0.0
C29 C 0.94788 0.23518 0.79298 0.0
H30 H 0.95056 0.17363 0.81962 0.0
H31 H 0.96538 0.12321 0.78886 0.0
H32 H 0.97008 0.31279 0.6746 0.0
H33 H 0.9546 0.31698 0.73336 0.0
H34 H 0.94382 0.2877 0.78771 0.0
H35 H 0.9423 0.23574 0.81896 0.0
Mn36 Mn 0.92405 0.82574 0.66173 0.0
Mn37 Mn 0.00217 0.81195 0.68367 0.0
C38 C 0.93576 0.78091 0.69339 0.0
C39 C 0.87785 0.85673 0.67241 0.0
C40 C 0.97474 0.79753 0.61583 0.0
O41 O 0.94751 0.86751 0.65061 0.0
O42 O -0.00323 0.85991 0.67416 0.0
C43 C 0.00496 0.8488 0.74617 0.0
N44 N 0.00814 0.82005 0.72946 0.0
C45 C 0.0222 0.79105 0.77889 0.0
C46 C 0.01937 0.82041 0.79657 0.0
C47 C 0.01068 0.84939 0.78013 0.0
C48 C 0.01664 0.79203 0.745 0.0
H49 H -0.00199 0.87109 0.7337 0.0
C50 C 0.97517 0.87807 0.6602 0.0
O51 O 0.88261 0.84447 0.64331 0.0
O52 O 0.89877 0.84943 0.69514 0.0
N53 N 0.01011 0.76687 0.69416 0.0
C54 C 0.00945 0.74021 0.67401 0.0
C55 C 0.01617 0.70903 0.68694 0.0
C56 C 0.02356 0.70557 0.7204 0.0
C57 C 0.02424 0.73336 0.74064 0.0
C58 C 0.01765 0.76386 0.72631 0.0
H59 H 0.00361 0.74263 0.64831 0.0
O60 O 0.9079 0.78288 0.67806 0.0
O61 O 0.9551 0.80618 0.69087 0.0
O62 O 0.94466 0.8035 0.62215 0.0
O63 O -0.00195 0.80202 0.63637 0.0
C64 C 0.03047 0.73188 0.7746 0.0
C65 C 0.02948 0.76071 0.7937 0.0
H66 H 0.02341 0.82091 0.82282 0.0
H67 H 0.00822 0.87211 0.79364 0.0
H68 H 0.01549 0.68768 0.67118 0.0
H69 H 0.0284 0.68143 0.73035 0.0
H70 H 0.0356 0.70863 0.78635 0.0
H71 H 0.03385 0.75918 0.81987 0.0
Mn72 Mn 0.07206 0.82955 0.33483 0.0
Mn73 Mn 0.99294 0.81362 0.31837 0.0
C74 C 0.05939 0.78602 0.3017 0.0
C75 C 0.11628 0.86266 0.32209 0.0
C76 C 0.02636 0.7966 0.38286 0.0
O77 O 0.04813 0.86967 0.35024 0.0
O78 O -0.00276 0.86095 0.33097 0.0
C79 C 0.98383 0.85456 0.25915 0.0
N80 N 0.98305 0.82461 0.2739 0.0
C81 C 0.9661 0.79855 0.22374 0.0
C82 C 0.96645 0.82915 0.20809 0.0
C83 C 0.97539 0.85726 0.22588 0.0
C84 C 0.97438 0.79741 0.25706 0.0
H85 H 0.99093 0.8762 0.27266 0.0
C86 C 0.01915 0.87927 0.34421 0.0
O87 O 0.11427 0.84883 0.3508 0.0
O88 O 0.0937 0.85588 0.30084 0.0
N89 N 0.98573 0.76911 0.30531 0.0
C90 C 0.98867 0.7412 0.32345 0.0
C91 C 0.98184 0.71076 0.3089 0.0
C92 C 0.97199 0.7093 0.27592 0.0
C93 C 0.96894 0.73835 0.2578 0.0
C94 C 0.97577 0.76802 0.2737 0.0
H95 H -0.00361 0.74212 0.34875 0.0
O96 O 0.08832 0.78826 0.31484 0.0
O97 O 0.03943 0.81032 0.30717 0.0
O98 O 0.05554 0.80455 0.37474 0.0
O99 O 0.00138 0.80074 0.36431 0.0
C100 C 0.96006 0.73896 0.22441 0.0
C101 C 0.95862 0.76904 0.2074 0.0
H102 H 0.96025 0.8313 0.18234 0.0
H103 H 0.97592 0.88094 0.21392 0.0
H104 H 0.98433 0.68844 0.32302 0.0
H105 H 0.96707 0.68574 0.2647 0.0
H106 H 0.95469 0.7164 0.21147 0.0
H107 H 0.95217 0.76915 0.18163 0.0
Mn108 Mn 0.92702 0.16852 0.3347 0.0
Mn109 Mn 0.00632 0.18581 0.32034 0.0
C110 C 0.93987 0.21088 0.30018 0.0
C111 C 0.88343 0.13429 0.32277 0.0
C112 C 0.97005 0.20455 0.38281 0.0
O113 O 0.95138 0.1296 0.35249 0.0
O114 O 0.00258 0.13884 0.33417 0.0
C115 C 0.01903 0.14318 0.26293 0.0
N116 N 0.01839 0.17361 0.2767 0.0
C117 C 0.03732 0.19839 0.22658 0.0
C118 C 0.03842 0.16729 0.21195 0.0
C119 C 0.0292 0.13958 0.23021 0.0
C120 C 0.02734 0.20043 0.2594 0.0
H121 H 0.01176 0.12183 0.27679 0.0
C122 C 0.98071 0.12041 0.34736 0.0
O123 O 0.88495 0.14945 0.3508 0.0
O124 O 0.90639 0.14015 0.30155 0.0
N125 N 0.01293 0.23004 0.30608 0.0
C126 C 0.00836 0.25846 0.32307 0.0
C127 C 0.01516 0.28856 0.30782 0.0
C128 C 0.02668 0.28915 0.27535 0.0
C129 C 0.03137 0.2596 0.25841 0.0
C130 C 0.02444 0.23032 0.27496 0.0
H131 H -0.00061 0.25821 0.34799 0.0
O132 O 0.91058 0.20848 0.31253 0.0
O133 O 0.9602 0.1873 0.30718 0.0
O134 O 0.94148 0.19569 0.37377 0.0
O135 O -0.00408 0.20005 0.36558 0.0
C136 C 0.04199 0.25809 0.22554 0.0
C137 C 0.04498 0.22751 0.20964 0.0
H138 H 0.04596 0.16444 0.18662 0.0
H139 H 0.0298 0.11552 0.21903 0.0
H140 H 0.01141 0.31128 0.32103 0.0
H141 H 0.03163 0.31244 0.26358 0.0
H142 H 0.04751 0.28033 0.21212 0.0
H143 H 0.05275 0.22669 0.18423 0.0
Mn144 Mn 0.66095 0.06333 0.17422 0.0
Mn145 Mn 0.67681 0.98405 0.18897 0.0
C146 C 0.69315 0.04977 0.21818 0.0
C147 C 0.67424 0.10813 0.14224 0.0
C148 C 0.61172 0.01724 0.20434 0.0
O149 O 0.64676 0.04014 0.13321 0.0
O150 O 0.66626 0.9892 0.14116 0.0
C151 C 0.73767 0.97504 0.15036 0.0
N152 N 0.7217 0.97415 0.17972 0.0
C153 C 0.77079 0.95714 0.2077 0.0
C154 C 0.78769 0.95762 0.17773 0.0
C155 C 0.77106 0.96663 0.14895 0.0
C156 C 0.73743 0.96536 0.20754 0.0
H157 H 0.72506 0.98221 0.12821 0.0
C158 C 0.6535 0.01153 0.12297 0.0
O159 O 0.64521 0.10569 0.15535 0.0
O160 O 0.69552 0.08562 0.14922 0.0
N161 N 0.68798 0.97643 0.23396 0.0
C162 C 0.66875 0.97939 0.26116 0.0
C163 C 0.68208 0.97258 0.29217 0.0
C164 C 0.715 0.96275 0.29489 0.0
C165 C 0.73429 0.95977 0.26656 0.0
C166 C 0.71959 0.96661 0.23628 0.0
H167 H 0.6435 0.98711 0.25928 0.0
O168 O 0.67984 0.07865 0.21636 0.0
O169 O 0.68812 0.03036 0.19336 0.0
O170 O 0.62045 0.04653 0.19781 0.0
O171 O 0.63024 0.99226 0.20003 0.0
C172 C 0.7677 0.95095 0.26724 0.0
C173 C 0.78593 0.9496 0.23783 0.0
H174 H 0.81353 0.95146 0.17658 0.0
H175 H 0.78398 0.96726 0.12575 0.0
H176 H 0.66706 0.97504 0.31394 0.0
H177 H 0.72527 0.95781 0.31889 0.0
H178 H 0.77974 0.94555 0.2903 0.0
H179 H 0.81171 0.94319 0.23872 0.0
Mn180 Mn 0.32971 0.92738 0.156 0.0
Mn181 Mn 0.31164 0.00663 0.16928 0.0
C182 C 0.29809 0.94101 0.20036 0.0
C183 C 0.31747 0.88122 0.12559 0.0
C184 C 0.37738 0.97562 0.18581 0.0
O185 O 0.3427 0.94979 0.1142 0.0
O186 O 0.32292 0.00065 0.12171 0.0
C187 C 0.251 0.01234 0.12978 0.0
N188 N 0.26659 0.01483 0.15923 0.0
C189 C 0.2167 0.03149 0.18609 0.0
C190 C 0.20018 0.02938 0.156 0.0
C191 C 0.21741 0.01973 0.12774 0.0
C192 C 0.25027 0.02419 0.18656 0.0
H193 H 0.26407 0.00468 0.10803 0.0
C194 C 0.33568 0.9782 0.10368 0.0
O195 O 0.34658 0.88501 0.13811 0.0
O196 O 0.29559 0.90332 0.13208 0.0
N197 N 0.29965 0.01543 0.21386 0.0
C198 C 0.31867 0.01424 0.24132 0.0
C199 C 0.30479 0.02197 0.2719 0.0
C200 C 0.27158 0.03095 0.27394 0.0
C201 C 0.25255 0.03222 0.24533 0.0
C202 C 0.26779 0.02454 0.21549 0.0
H203 H 0.34416 0.00721 0.23998 0.0
O204 O 0.31203 0.91243 0.19871 0.0
O205 O 0.30175 0.96004 0.17496 0.0
O206 O 0.36983 0.9461 0.1788 0.0
O207 O 0.3582 4e-05 0.18127 0.0
C208 C 0.2189 0.04015 0.24536 0.0
C209 C 0.20099 0.0398 0.21576 0.0
H210 H 0.17421 0.03478 0.15438 0.0
H211 H 0.20479 0.01785 0.10447 0.0
H212 H 0.31962 0.02087 0.29388 0.0
H213 H 0.2609 0.03659 0.29762 0.0
H214 H 0.20646 0.04615 0.26807 0.0
H215 H 0.17504 0.04554 0.21616 0.0
Mn216 Mn 0.65612 0.9221 0.82988 0.0
Mn217 Mn 0.6757 0.00068 0.81519 0.0
C218 C 0.68983 0.93406 0.78655 0.0
C219 C 0.66644 0.8767 0.86205 0.0
C220 C 0.6102 0.96992 0.79716 0.0
O221 O 0.64155 0.94598 0.87044 0.0
O222 O 0.66327 -0.00402 0.86255 0.0
C223 C 0.73536 0.00702 0.85608 0.0
N224 N 0.72055 0.00878 0.82618 0.0
C225 C 0.77121 0.02447 0.80021 0.0
C226 C 0.78693 0.02308 0.83076 0.0
C227 C 0.76892 0.01429 0.8588 0.0
C228 C 0.73762 0.01734 0.79906 0.0
H229 H 0.72169 3e-05 0.87768 0.0
C230 C 0.64926 0.97435 0.88064 0.0
O231 O 0.63798 0.88045 0.84811 0.0
O232 O 0.68885 0.89842 0.85607 0.0
N233 N 0.68891 0.00812 0.77071 0.0
C234 C 0.67063 0.00624 0.74279 0.0
C235 C 0.68535 0.01303 0.71239 0.0
C236 C 0.71865 0.02178 0.71099 0.0
C237 C 0.73692 0.02376 0.74005 0.0
C238 C 0.72086 0.017 0.76968 0.0
H239 H 0.64507 -0.00061 0.74364 0.0
O240 O 0.67557 0.90567 0.78842 0.0
O241 O 0.68524 0.95386 0.81119 0.0
O242 O 0.6173 0.94046 0.80476 0.0
O243 O 0.62936 0.99427 0.80218 0.0
C244 C 0.77061 0.0315 0.74069 0.0
C245 C 0.78773 0.03188 0.77075 0.0
H246 H 0.81288 0.02838 0.83292 0.0
H247 H 0.78092 0.01297 0.88244 0.0
H248 H 0.6711 0.01138 0.69006 0.0
H249 H 0.72999 0.02669 0.68746 0.0
H250 H 0.78368 0.03679 0.71816 0.0
H251 H 0.81372 0.03745 0.77088 0.0
Mn252 Mn 0.33223 0.06655 0.81086 0.0
Mn253 Mn 0.31268 0.98832 0.79534 0.0
C254 C 0.29754 0.05519 0.76811 0.0
C255 C 0.32223 0.11101 0.84448 0.0
C256 C 0.3785 0.01929 0.77843 0.0
O257 O 0.3474 0.04178 0.85069 0.0
O258 O 0.32407 0.99243 0.84301 0.0
C259 C 0.2522 0.98065 0.83484 0.0
N260 N 0.26763 0.9798 0.80519 0.0
C261 C 0.21756 0.9648 0.77779 0.0
C262 C 0.2012 0.96529 0.80806 0.0
C263 C 0.2186 0.97326 0.8367 0.0
C264 C 0.25117 0.97196 0.7775 0.0
H265 H 0.26541 0.98701 0.8569 0.0
C266 C 0.33878 0.01369 0.86101 0.0
O267 O 0.35045 0.10784 0.82986 0.0
O268 O 0.29977 0.08948 0.83811 0.0
N269 N 0.30047 0.98195 0.75041 0.0
C270 C 0.31928 0.98487 0.72291 0.0
C271 C 0.30519 0.97909 0.69203 0.0
C272 C 0.27194 0.97035 0.68972 0.0
C273 C 0.25309 0.96742 0.71835 0.0
C274 C 0.26853 0.97319 0.74848 0.0
H275 H 0.3448 0.99174 0.72446 0.0
O276 O 0.3119 0.08356 0.76999 0.0
O277 O 0.30303 0.03508 0.79223 0.0
O278 O 0.37086 0.04887 0.78497 0.0
O279 O 0.35938 -0.00506 0.78362 0.0
C280 C 0.2194 0.95967 0.7181 0.0
C281 C 0.20166 0.95832 0.7478 0.0
H282 H 0.17521 0.95993 0.80955 0.0
H283 H 0.2061 0.97388 0.86013 0.0
H284 H 0.31988 0.98151 0.67004 0.0
H285 H 0.26109 0.96621 0.66583 0.0
H286 H 0.2068 0.95511 0.69517 0.0
H287 H 0.17568 0.95277 0.74725 0.0
Mn288 Mn 0.16133 0.6569 0.06583 0.0
Mn289 Mn 0.17642 0.67229 0.9862 0.0
C290 C 0.20421 0.69046 0.05203 0.0
C291 C 0.12929 0.66966 0.11088 0.0
C292 C 0.19553 0.60905 0.02064 0.0
O293 O 0.12097 0.64078 0.04282 0.0
O294 O 0.12954 0.65813 0.99119 0.0
C295 C 0.13319 0.72973 0.97622 0.0
N296 N 0.16367 0.71605 0.97541 0.0
C297 C 0.18764 0.76653 0.95648 0.0
C298 C 0.15646 0.78107 0.95686 0.0
C299 C 0.12913 0.76259 0.96681 0.0
C300 C 0.19012 0.73357 0.96575 0.0
H301 H 0.11213 0.7157 0.98407 0.0
C302 C 0.11134 0.64552 0.01361 0.0
O303 O 0.1433 0.64108 0.10857 0.0
O304 O 0.13496 0.69073 0.08782 0.0
N305 N 0.2204 0.68682 0.97824 0.0
C306 C 0.24905 0.66992 0.98158 0.0
C307 C 0.27887 0.68537 0.97392 0.0
C308 C 0.27894 0.71797 0.96287 0.0
C309 C 0.24916 0.73484 0.95952 0.0
C310 C 0.22017 0.71809 0.96723 0.0
H311 H 0.24921 0.64496 0.9903 0.0
O312 O 0.20261 0.67749 0.08107 0.0
O313 O 0.17969 0.68451 0.03247 0.0
O314 O 0.18667 0.61713 0.04955 0.0
O315 O 0.19126 0.62713 -0.00463 0.0
C316 C 0.24718 0.76785 0.94956 0.0
C317 C 0.21644 0.78368 0.94802 0.0
H318 H 0.15327 0.8065 0.9499 0.0
H319 H 0.10502 0.77369 0.96736 0.0
H320 H 0.30177 0.67223 0.9767 0.0
H321 H 0.30203 0.7299 0.9573 0.0
H322 H 0.26919 0.78143 0.94346 0.0
H323 H 0.21528 0.80919 0.94076 0.0
Mn324 Mn 0.17326 0.3316 0.92424 0.0
Mn325 Mn 0.18946 0.31092 0.00215 0.0
C326 C 0.21711 0.29817 0.93476 0.0
C327 C 0.13977 0.32168 0.87971 0.0
C328 C 0.20525 0.37743 0.97239 0.0
O329 O 0.13309 0.34522 0.94932 0.0
O330 O 0.1416 0.32184 -0.00152 0.0
C331 C 0.15068 0.24988 0.00825 0.0
N332 N 0.18013 0.26562 0.00961 0.0
C333 C 0.20811 0.21556 0.02344 0.0
C334 C 0.17804 0.19888 0.02244 0.0
C335 C 0.14922 0.21612 0.01479 0.0
C336 C 0.208 0.2493 0.01712 0.0
H337 H 0.12848 0.26297 0.00211 0.0
C338 C 0.12315 0.33623 0.97742 0.0
O339 O 0.1536 0.35019 0.88342 0.0
O340 O 0.14695 0.29895 0.90069 0.0
N341 N 0.23452 0.29908 0.00831 0.0
C342 C 0.2618 0.31825 0.00595 0.0
C343 C 0.29283 0.30439 0.0115 0.0
C344 C 0.29552 0.271 0.01946 0.0
C345 C 0.26712 0.25178 0.02187 0.0
C346 C 0.23681 0.267 0.01638 0.0
H347 H 0.25996 0.34388 -0.00033 0.0
O348 O 0.21461 0.31292 0.90664 0.0
O349 O 0.19284 0.30232 0.9551 0.0
O350 O 0.19816 0.37038 0.94277 0.0
O351 O 0.20071 0.35784 -0.00351 0.0
C352 C 0.26775 0.21795 0.02881 0.0
C353 C 0.23827 0.19986 0.02962 0.0
H354 H 0.17686 0.17277 0.02714 0.0
H355 H 0.12595 0.20338 0.01376 0.0
H356 H 0.31466 0.31937 0.00949 0.0
H357 H 0.31954 0.26034 0.02341 0.0
H358 H 0.29083 0.20551 0.03313 0.0
H359 H 0.23912 0.17378 0.03454 0.0
Mn360 Mn 0.81999 0.65091 0.92067 0.0
Mn361 Mn 0.80473 0.66804 -0.00024 0.0
C362 C 0.77687 0.68457 0.93343 0.0
C363 C 0.85306 0.66265 0.87619 0.0
C364 C 0.78708 0.6035 0.96679 0.0
O365 O 0.86014 0.63524 0.94451 0.0
O366 O 0.85211 0.6557 0.99508 0.0
C367 C 0.84553 0.72744 0.0083 0.0
N368 N 0.81562 0.71258 0.00938 0.0
C369 C 0.78945 0.76271 0.02627 0.0
C370 C 0.82002 0.77848 0.02561 0.0
C371 C 0.84817 0.76076 0.01655 0.0
C372 C 0.78839 0.72936 0.0182 0.0
H373 H 0.8672 0.714 0.00108 0.0
C374 C 0.87018 0.64204 0.97318 0.0
O375 O 0.8388 0.63421 0.87855 0.0
O376 O 0.84671 0.68428 0.89858 0.0
N377 N 0.76016 0.68099 0.00719 0.0
C378 C 0.73226 0.66278 0.00441 0.0
C379 C 0.70177 0.67727 0.01131 0.0
C380 C 0.70026 0.71027 0.02105 0.0
C381 C 0.7293 0.72846 0.02392 0.0
C382 C 0.75901 0.71263 0.01704 0.0
H383 H 0.73321 0.63746 -0.00322 0.0
O384 O 0.77883 0.67127 0.90454 0.0
O385 O 0.80124 0.67897 0.95325 0.0
O386 O 0.79451 0.61159 0.93749 0.0
O387 O 0.79192 0.62197 0.99171 0.0
C388 C 0.72985 0.76189 0.03263 0.0
C389 C 0.7599 0.77899 0.03383 0.0
H390 H 0.82211 0.80426 0.03163 0.0
H391 H 0.87181 0.7728 0.01576 0.0
H392 H 0.67946 0.66309 0.00897 0.0
H393 H 0.67667 0.72144 0.02602 0.0
H394 H 0.70725 0.77479 0.03803 0.0
H395 H 0.75996 0.8048 0.04012 0.0
Mn396 Mn 0.82947 0.32653 0.063 0.0
Mn397 Mn 0.81442 0.30606 0.9847 0.0
C398 C 0.7863 0.29248 0.05171 0.0
C399 C 0.86201 0.31687 0.10833 0.0
C400 C 0.79649 0.37184 0.01487 0.0
O401 O 0.86978 0.3409 0.03865 0.0
O402 O 0.86186 0.31848 0.98891 0.0
C403 C 0.85522 0.24634 0.97841 0.0
N404 N 0.82531 0.26116 0.97685 0.0
C405 C 0.79916 0.21049 0.96171 0.0
C406 C 0.82972 0.19474 0.9629 0.0
C407 C 0.85786 0.21275 0.97132 0.0
C408 C 0.79809 0.2441 0.96862 0.0
H409 H 0.87689 0.26001 0.98511 0.0
C410 C 0.87995 0.33281 0.01034 0.0
O411 O 0.84795 0.34523 0.10431 0.0
O412 O 0.85591 0.2942 0.08693 0.0
N413 N 0.76985 0.29286 0.97786 0.0
C414 C 0.74193 0.31113 0.98011 0.0
C415 C 0.71145 0.2964 0.97383 0.0
C416 C 0.70996 0.26309 0.96523 0.0
C417 C 0.739 0.24481 0.96293 0.0
C418 C 0.76871 0.26088 0.9692 0.0
H419 H 0.74285 0.33669 0.98686 0.0
O420 O 0.78822 0.3072 0.07991 0.0
O421 O 0.81079 0.29698 0.03167 0.0
O422 O 0.80409 0.36503 0.04441 0.0
O423 O 0.80151 0.35244 0.9907 0.0
C424 C 0.73956 0.21111 0.95536 0.0
C425 C 0.76962 0.19397 0.95472 0.0
H426 H 0.83182 0.16877 0.95776 0.0
H427 H 0.8815 0.20073 0.97249 0.0
H428 H 0.68913 0.31065 0.97575 0.0
H429 H 0.68636 0.25175 0.96069 0.0
H430 H 0.71697 0.19804 0.95042 0.0
H431 H 0.76969 0.16797 0.94931 0.0
H432 H 0.92203 0.21635 0.42847 0.0
H433 H 0.05336 0.2257 0.5705 0.0
H434 H 0.02659 0.22482 0.41288 0.0
H435 H 0.94919 0.21396 0.58641 0.0
H436 H 0.04256 0.23925 0.5134 0.0
H437 H 0.93016 0.2295 0.48615 0.0
C438 C 0.94667 0.22141 0.43702 0.0
C439 C 0.97381 0.2184 0.41601 0.0
C440 C 0.02201 0.23415 0.52948 0.0
C441 C 0.98323 0.2333 0.48203 0.0
C442 C 0.02817 0.22627 0.56209 0.0
C443 C 0.00219 0.21768 0.58301 0.0
C444 C 0.98971 0.23307 0.51763 0.0
C445 C 0.97002 0.21971 0.57097 0.0
C446 C 0.95127 0.22898 0.47 0.0
C447 C 0.00502 0.226 0.42835 0.0
N448 N 0.96473 0.22661 0.53886 0.0
N449 N 0.00895 0.2325 0.46072 0.0
H450 H 0.96902 0.77289 0.40851 0.0
H451 H 0.03603 0.78512 0.59106 0.0
H452 H 0.07027 0.79184 0.4336 0.0
H453 H 0.9333 0.78351 0.56481 0.0
H454 H 0.05013 0.77316 0.5342 0.0
H455 H 0.95742 0.76187 0.46606 0.0
C456 C 0.98893 0.77437 0.42603 0.0
C457 C 0.02048 0.78425 0.41634 0.0
C458 C 0.0245 0.77505 0.54101 0.0
C459 C 0.00726 0.77172 0.48221 0.0
C460 C 0.01639 0.78194 0.57346 0.0
C461 C 0.98342 0.78619 0.58257 0.0
C462 C -0.0005 0.7724 0.51754 0.0
C463 C 0.95907 0.78115 0.55879 0.0
C464 C 0.98226 0.76802 0.45888 0.0
C465 C 0.04544 0.78494 0.44003 0.0
N466 N 0.96764 0.77494 0.52725 0.0
N467 N 0.03815 0.77932 0.47201 0.0
H468 H 0.4041 0.03481 0.20308 0.0
H469 H 0.58268 0.95889 0.2206 0.0
H470 H 0.42581 0.93114 0.19958 0.0
H471 H 0.56257 0.06254 0.21162 0.0
H472 H 0.52413 0.9488 0.22703 0.0
H473 H 0.46058 0.04537 0.21955 0.0
C474 C 0.42062 0.01422 0.20599 0.0
C475 C 0.4104 0.98209 0.1991 0.0
C476 C 0.5326 0.97379 0.22411 0.0
C477 C 0.47499 0.99407 0.21807 0.0
C478 C 0.56605 0.9796 0.22042 0.0
C479 C 0.57748 0.01152 0.21456 0.0
C480 C 0.51049 6e-05 0.22176 0.0
C481 C 0.55482 0.03743 0.21534 0.0
C482 C 0.45285 0.02029 0.21551 0.0
C483 C 0.43275 0.95638 0.20396 0.0
N484 N 0.52231 0.03106 0.21826 0.0
N485 N 0.46414 0.96298 0.21274 0.0
H486 H 0.56286 0.9254 0.7801 0.0
H487 H 0.42744 0.06345 0.76514 0.0
H488 H 0.58346 0.02932 0.78079 0.0
H489 H 0.40665 0.95957 0.76608 0.0
H490 H 0.48542 0.05113 0.75776 0.0
H491 H 0.50701 0.93722 0.76261 0.0
C492 C 0.55576 0.9507 0.77633 0.0
C493 C 0.57764 0.97646 0.78282 0.0
C494 C 0.46811 0.03104 0.75908 0.0
C495 C 0.5137 0.99012 0.7628 0.0
C496 C 0.43495 0.03804 0.76331 0.0
C497 C 0.41225 0.01248 0.7673 0.0
C498 C 0.47862 -0.00173 0.75912 0.0
C499 C 0.42336 0.98008 0.76396 0.0
C500 C 0.52387 0.95742 0.7662 0.0
C501 C 0.56724 0.0087 0.77679 0.0
N502 N 0.45588 0.97389 0.7607 0.0
N503 N 0.53583 0.01464 0.76762 0.0
H504 H 0.22116 0.42546 0.92839 0.0
H505 H 0.23125 0.58752 0.96809 0.0
H506 H 0.21651 0.40563 0.0324 0.0
H507 H 0.1931 0.55618 0.06185 0.0
H508 H 0.24773 0.53143 0.95656 0.0
H509 H 0.23095 0.48266 0.94022 0.0
C510 C 0.22289 0.43304 0.9538 0.0
C511 C 0.21716 0.41082 0.97942 0.0
C512 C 0.2355 0.53661 0.97952 0.0
C513 C 0.22917 0.47664 0.9934 0.0
C514 C 0.22632 0.56878 0.98625 0.0
C515 C 0.20983 0.57632 0.01553 0.0
C516 C 0.22736 0.51174 0.00191 0.0
C517 C 0.20514 0.55134 0.03866 0.0
C518 C 0.22891 0.46589 0.96063 0.0
C519 C 0.22018 0.42201 0.01184 0.0
N520 N 0.21332 0.52002 0.03108 0.0
N521 N 0.22534 0.4543 0.01788 0.0
H522 H 0.77494 0.5553 0.92147 0.0
H523 H 0.77835 0.41914 0.05902 0.0
H524 H 0.77052 0.5754 0.02549 0.0
H525 H 0.78221 0.39879 0.95502 0.0
H526 H 0.76275 0.47541 0.04681 0.0
H527 H 0.76449 0.49765 0.93285 0.0
C528 C 0.77133 0.54772 0.94667 0.0
C529 C 0.7747 0.57006 0.97265 0.0
C530 C 0.76658 0.45852 0.02666 0.0
C531 C 0.76295 0.50409 0.9858 0.0
C532 C 0.77563 0.42638 0.0336 0.0
C533 C 0.78258 0.40446 0.00798 0.0
C534 C 0.76481 0.46889 0.99387 0.0
C535 C 0.77785 0.41504 0.97557 0.0
C536 C 0.76531 0.51476 0.95314 0.0
C537 C 0.76901 0.55892 0.00473 0.0
N538 N 0.76982 0.4467 0.96943 0.0
N539 N 0.76403 0.52658 0.01044 0.0
H540 H 0.10282 0.09118 0.71682 0.0
H541 H 0.29523 0.06721 0.70251 0.0
H542 H 0.16158 0.13467 0.64028 0.0
H543 H 0.23574 0.03955 0.78535 0.0
H544 H 0.24506 0.07723 0.67067 0.0
H545 H 0.14929 0.05733 0.7327 0.0
C546 C 0.12558 0.09346 0.70325 0.0
C547 C 0.12882 0.11637 0.67787 0.0
C548 C 0.24304 0.06785 0.69543 0.0
C549 C 0.18224 0.07796 0.69611 0.0
C550 C 0.27157 0.06201 0.71346 0.0
C551 C 0.26936 0.05188 0.74621 0.0
C552 C 0.21236 0.06408 0.7107 0.0
C553 C 0.23838 0.04627 0.7598 0.0
C554 C 0.15205 0.074 0.7122 0.0
C555 C 0.15842 0.11765 0.6604 0.0
N556 N 0.21107 0.05273 0.74207 0.0
N557 N 0.18436 0.09916 0.67033 0.0
H558 H 0.68641 0.9241 0.72078 0.0
H559 H 0.88009 0.90714 0.71494 0.0
H560 H 0.75292 0.94979 0.79867 0.0
H561 H 0.8154 0.85869 0.64674 0.0
H562 H 0.83416 0.93961 0.73499 0.0
H563 H 0.7335 0.91629 0.68391 0.0
C564 C 0.71091 0.92932 0.72964 0.0
C565 C 0.71601 0.93834 0.76241 0.0
C566 C 0.82997 0.92222 0.71535 0.0
C567 C 0.76955 0.92876 0.72108 0.0
C568 C 0.85612 0.90359 0.70399 0.0
C569 C 0.85111 0.87962 0.67991 0.0
C570 C 0.79841 0.91631 0.70304 0.0
C571 C 0.81996 0.87662 0.66578 0.0
C572 C 0.73767 0.92476 0.70874 0.0
C573 C 0.74802 0.94397 0.77323 0.0
N574 N 0.79443 0.89428 0.67814 0.0
N575 N 0.77363 0.93885 0.75267 0.0
H576 H 0.30427 0.93272 0.2661 0.0
H577 H 0.11137 0.91281 0.27933 0.0
H578 H 0.23457 0.95687 0.19055 0.0
H579 H 0.17962 0.86615 0.34527 0.0
H580 H 0.15581 0.94607 0.25739 0.0
H581 H 0.25874 0.92506 0.30486 0.0
C582 C 0.2794 0.9377 0.25814 0.0
C583 C 0.27296 0.94613 0.22546 0.0
C584 C 0.1611 0.92891 0.27697 0.0
C585 C 0.22115 0.93663 0.26895 0.0
C586 C 0.13579 0.90982 0.2894 0.0
C587 C 0.1422 0.88609 0.31339 0.0
C588 C 0.19321 0.92376 0.28812 0.0
C589 C 0.17394 0.88385 0.32633 0.0
C590 C 0.25353 0.9332 0.28012 0.0
C591 C 0.2405 0.95148 0.21585 0.0
N592 N 0.19859 0.90198 0.31295 0.0
N593 N 0.21575 0.94635 0.23745 0.0
H594 H 0.69279 0.06044 0.28398 0.0
H595 H 0.88496 0.08668 0.27646 0.0
H596 H 0.75529 0.03261 0.20342 0.0
H597 H 0.82287 0.12787 0.35171 0.0
H598 H 0.83976 0.05205 0.25869 0.0
H599 H 0.74166 0.07005 0.31778 0.0
C600 C 0.71682 0.05506 0.27395 0.0
C601 C 0.72024 0.04519 0.24122 0.0
C602 C 0.83601 0.06836 0.27933 0.0
C603 C 0.77586 0.05706 0.27895 0.0
C604 C 0.86176 0.08829 0.28937 0.0
C605 C 0.85724 0.1108 0.31495 0.0
C606 C 0.80527 0.07141 0.29456 0.0
C607 C 0.82707 0.11121 0.33146 0.0
C608 C 0.74463 0.0607 0.29309 0.0
C609 C 0.7517 0.03925 0.22888 0.0
N610 N 0.8019 0.09225 0.32052 0.0
N611 N 0.77834 0.04566 0.24765 0.0
H612 H 0.6448 0.16826 0.13315 0.0
H613 H 0.79979 0.22977 0.03569 0.0
H614 H 0.72317 0.10657 0.09759 0.0
H615 H 0.72091 0.29398 0.06426 0.0
H616 H 0.76455 0.18273 0.0454 0.0
H617 H 0.66503 0.21272 0.09782 0.0
C618 C 0.66596 0.164 0.11763 0.0
C619 C 0.683 0.1342 0.11896 0.0
C620 C 0.75443 0.20705 0.04874 0.0
C621 C 0.70591 0.18432 0.0785 0.0
C622 C 0.77445 0.23392 0.04254 0.0
C623 C 0.76283 0.26561 0.04836 0.0
C624 C 0.72319 0.21195 0.06259 0.0
C625 C 0.73046 0.26972 0.05918 0.0
C626 C 0.67741 0.18924 0.0974 0.0
C627 C 0.70992 0.12957 0.09805 0.0
N628 N 0.71186 0.24311 0.06661 0.0
N629 N 0.72073 0.15447 0.079 0.0
H630 H 0.1904 0.75188 0.03187 0.0
H631 H 0.34709 0.82074 0.12067 0.0
H632 H 0.26973 0.69005 0.06402 0.0
H633 H 0.26894 0.87975 0.08061 0.0
H634 H 0.32636 0.77358 0.08939 0.0
H635 H 0.22595 0.79946 0.03674 0.0
C636 C 0.21585 0.74826 0.03857 0.0
C637 C 0.22756 0.71713 0.04669 0.0
C638 C 0.31416 0.79703 0.08702 0.0
C639 C 0.26765 0.77164 0.05529 0.0
C640 C 0.32593 0.82384 0.10491 0.0
C641 C 0.30902 0.85372 0.10392 0.0
C642 C 0.28546 0.80048 0.06815 0.0
C643 C 0.28207 0.85678 0.08284 0.0
C644 C 0.23607 0.77548 0.04194 0.0
C645 C 0.26011 0.71383 0.05718 0.0
N646 N 0.27089 0.8304 0.06613 0.0
N647 N 0.27895 0.7409 0.06179 0.0
H648 H 0.71098 0.68298 0.92349 0.0
H649 H 0.70998 0.87686 0.9119 0.0
H650 H 0.79057 0.74677 0.95085 0.0
H651 H 0.6392 0.81508 0.86331 0.0
H652 H 0.72921 0.82977 0.94307 0.0
H653 H 0.67517 0.73108 0.91761 0.0
C654 C 0.72045 0.70707 0.92944 0.0
C655 C 0.75336 0.71114 0.9384 0.0
C656 C 0.70917 0.82649 0.92594 0.0
C657 C 0.71327 0.76583 0.93098 0.0
C658 C 0.69829 0.85332 0.90805 0.0
C659 C 0.6737 0.84945 0.88437 0.0
C660 C 0.69588 0.79544 0.91957 0.0
C661 C 0.65865 0.81878 0.88099 0.0
C662 C 0.70015 0.73441 0.92601 0.0
C663 C 0.76499 0.74266 0.94501 0.0
N664 N 0.67054 0.7926 0.8979 0.0
N665 N 0.74501 0.76886 0.94093 0.0
H666 H 0.27991 0.10783 0.89528 0.0
H667 H 0.28268 0.30004 0.92277 0.0
H668 H 0.34994 0.17234 0.84915 0.0
H669 H 0.20365 0.23519 0.94932 0.0
H670 H 0.31746 0.25217 0.91141 0.0
H671 H 0.26266 0.15245 0.93094 0.0
C672 C 0.29179 0.13147 0.89283 0.0
C673 C 0.31562 0.13687 0.86864 0.0
C674 C 0.29291 0.24847 0.92089 0.0
C675 C 0.29576 0.18812 0.90911 0.0
C676 C 0.2732 0.27568 0.92749 0.0
C677 C 0.24066 0.27131 0.93766 0.0
C678 C 0.27954 0.21691 0.92398 0.0
C679 C 0.229 0.23949 0.94262 0.0
C680 C 0.28207 0.15687 0.91331 0.0
C681 C 0.33101 0.16752 0.86716 0.0
N682 N 0.24834 0.21347 0.93545 0.0
N683 N 0.32027 0.19238 0.88669 0.0
H684 H 0.06953 0.72027 0.30429 0.0
H685 H 0.08124 0.71531 0.11019 0.0
H686 H 0.04185 0.79866 0.23923 0.0
H687 H 0.12748 0.64413 0.17328 0.0
H688 H 0.05098 0.73665 0.15703 0.0
H689 H 0.07549 0.68371 0.25675 0.0
C690 C 0.06356 0.72933 0.28003 0.0
C691 C 0.05447 0.76211 0.27546 0.0
C692 C 0.06741 0.7161 0.16067 0.0
C693 C 0.06206 0.72118 0.22135 0.0
C694 C 0.08479 0.70399 0.13397 0.0
C695 C 0.10753 0.67858 0.1382 0.0
C696 C 0.07329 0.70315 0.19198 0.0
C697 C 0.11052 0.66414 0.16923 0.0
C698 C 0.06705 0.7086 0.25301 0.0
C699 C 0.04783 0.7732 0.24373 0.0
N700 N 0.09408 0.67714 0.19523 0.0
N701 N 0.05201 0.75282 0.21781 0.0
H702 H 0.02867 0.20238 0.75823 0.0
H703 H 0.13169 0.35239 0.82007 0.0
H704 H 0.059 0.28074 0.69431 0.0
H705 H 0.0917 0.27634 0.88179 0.0
H706 H 0.0949 0.33459 0.77573 0.0
H707 H 0.03856 0.23733 0.8054 0.0
C708 C 0.03591 0.2276 0.75415 0.0
C709 C 0.04219 0.23912 0.7225 0.0
C710 C 0.09379 0.32224 0.79921 0.0
C711 C 0.05682 0.27832 0.77638 0.0
C712 C 0.11484 0.33232 0.82438 0.0
C713 C 0.11538 0.31504 0.85406 0.0
C714 C 0.07331 0.29489 0.80412 0.0
C715 C 0.09279 0.2896 0.85881 0.0
C716 C 0.04224 0.24745 0.78111 0.0
C717 C 0.05358 0.27127 0.71853 0.0
N718 N 0.07299 0.28005 0.83398 0.0
N719 N 0.06125 0.28963 0.74525 0.0
H720 H 0.90453 0.70382 0.88086 0.0
H721 H 0.92657 0.71514 0.68781 0.0
H722 H 0.85558 0.63924 0.81289 0.0
H723 H 0.94869 0.79154 0.75728 0.0
H724 H 0.91731 0.67706 0.73363 0.0
H725 H 0.9383 0.72465 0.83623 0.0
C726 C 0.90114 0.69383 0.85646 0.0
C727 C 0.87665 0.67058 0.85017 0.0
C728 C 0.92538 0.70183 0.73873 0.0
C729 C 0.91486 0.69458 0.79899 0.0
C730 C 0.93076 0.72342 0.71271 0.0
C731 C 0.93924 0.75611 0.71901 0.0
C732 C 0.9281 0.71339 0.77105 0.0
C733 C 0.94345 0.76618 0.75149 0.0
C734 C 0.9205 0.70561 0.83106 0.0
C735 C 0.87389 0.65764 0.81846 0.0
N736 N 0.93764 0.74494 0.77633 0.0
N737 N 0.89231 0.67042 0.79371 0.0
H738 H 0.96161 0.19672 0.23928 0.0
H739 H 0.8674 0.34865 0.16764 0.0
H740 H 0.92617 0.27598 0.29944 0.0
H741 H 0.90872 0.26993 0.11021 0.0
H742 H 0.90021 0.33045 0.21476 0.0
H743 H 0.95606 0.23123 0.19099 0.0
C744 C 0.95404 0.22198 0.24239 0.0
C745 C 0.94509 0.23393 0.27324 0.0
C746 C 0.90253 0.31757 0.19163 0.0
C747 C 0.93577 0.27271 0.21792 0.0
C748 C 0.88376 0.32791 0.16485 0.0
C749 C 0.88466 0.31007 0.1355 0.0
C750 C 0.92217 0.28933 0.18871 0.0
C751 C 0.90656 0.28372 0.13281 0.0
C752 C 0.9503 0.24159 0.21476 0.0
C753 C 0.9336 0.26618 0.27589 0.0
N754 N 0.92409 0.2739 0.1592 0.0
N755 N 0.92864 0.28435 0.24843 0.0
H756 H 0.94633 0.08761 0.66615 0.0
H757 H 0.03329 0.91259 0.66373 0.0
H758 H 0.04835 0.07435 0.64023 0.0
H759 H 0.92881 0.92515 0.65087 0.0
H760 H 0.03981 0.97239 0.66059 0.0
H761 H 0.93949 0.02787 0.66558 0.0
C762 C 0.96714 0.07226 0.66003 0.0
C763 C -0.00213 0.08613 0.65312 0.0
C764 C 0.01553 0.96186 0.65825 0.0
C765 C 0.99043 0.01799 0.6531 0.0
C766 C 0.01183 0.92783 0.66011 0.0
C767 C 0.98057 0.9138 0.65728 0.0
C768 C 0.9877 0.98188 0.65418 0.0
C769 C 0.9535 0.93477 0.65278 0.0
C770 C 0.96327 0.03822 0.65975 0.0
C771 C 0.02409 0.06492 0.64553 0.0
N772 N 0.95767 0.9677 0.65158 0.0
N773 N 0.01983 0.03197 0.64602 0.0
H774 H 0.04017 0.08847 0.34322 0.0
H775 H 0.95969 0.91153 0.34215 0.0
H776 H 0.93761 0.07228 0.36502 0.0
H777 H 0.0631 0.92725 0.35968 0.0
H778 H 0.95074 0.97071 0.34794 0.0
H779 H 0.04931 0.02923 0.34697 0.0
C780 C 0.0197 0.07261 0.34919 0.0
C781 C 0.9881 0.08546 0.35366 0.0
C782 C 0.9753 0.961 0.35085 0.0
C783 C -0.00176 0.01782 0.35737 0.0
C784 C 0.9804 0.92728 0.34749 0.0
C785 C 0.01214 0.91433 0.35037 0.0
C786 C 0.0022 0.98184 0.35654 0.0
C787 C 0.03813 0.93599 0.35729 0.0
C788 C 0.02491 0.03883 0.3513 0.0
C789 C 0.96245 0.06362 0.36131 0.0
N790 N 0.03263 0.96866 0.35978 0.0
N791 N 0.96801 0.03089 0.3625 0.0
H792 H 0.6327 0.93003 0.92806 0.0
H793 H 0.64059 0.05699 0.07569 0.0
H794 H 0.65635 0.03245 0.91456 0.0
H795 H 0.6559 0.95298 0.08895 0.0
H796 H 0.63623 0.04844 0.0169 0.0
H797 H 0.63089 0.93869 0.98706 0.0
C798 C 0.63711 0.95451 0.93738 0.0
C799 C 0.64475 0.98063 0.91614 0.0
C800 C 0.6404 0.02748 0.03267 0.0
C801 C 0.64273 0.99043 0.98397 0.0
C802 C 0.64272 0.03221 0.06636 0.0
C803 C 0.64864 0.00556 0.08748 0.0
C804 C 0.64365 -0.00413 0.0198 0.0
C805 C 0.65138 0.97419 0.07366 0.0
C806 C 0.63628 0.95927 0.97116 0.0
C807 C 0.65041 0.01163 0.92992 0.0
N808 N 0.64881 0.97019 0.04061 0.0
N809 N 0.64928 0.01567 0.96303 0.0
H810 H 0.34728 0.93213 0.05658 0.0
H811 H 0.35611 0.05792 0.90818 0.0
H812 H 0.33355 0.03644 0.06924 0.0
H813 H 0.33046 0.95592 0.89523 0.0
H814 H 0.35795 0.04955 0.96717 0.0
H815 H 0.35101 0.94014 -0.00237 0.0
C816 C 0.34538 0.95685 0.04708 0.0
C817 C 0.34012 0.98375 0.06807 0.0
C818 C 0.3521 0.02899 0.95141 0.0
C819 C 0.34437 0.99283 0.00025 0.0
C820 C 0.35125 0.03358 0.91761 0.0
C821 C 0.34309 0.00749 0.89652 0.0
C822 C 0.34512 -0.00197 0.96439 0.0
C823 C 0.33683 0.97669 0.91047 0.0
C824 C 0.34732 0.96127 0.01331 0.0
C825 C 0.33758 0.01504 0.05405 0.0
N826 N 0.338 0.9728 0.9436 0.0
N827 N 0.33981 0.01874 0.02094 0.0
H828 H 0.91789 0.62685 0.92864 0.0
H829 H 0.06403 0.62771 0.05764 0.0
H830 H 0.90337 0.64564 0.03202 0.0
H831 H 0.07825 0.64865 0.95464 0.0
H832 H 0.00541 0.62265 0.0481 0.0
H833 H 0.97671 0.62332 0.93795 0.0
C834 C 0.92694 0.62982 0.95345 0.0
C835 C 0.90549 0.63665 0.97967 0.0
C836 C 0.02139 0.62813 0.02758 0.0
C837 C 0.97309 0.63262 0.99022 0.0
C838 C 0.05498 0.63088 0.03286 0.0
C839 C 0.07628 0.63883 0.00685 0.0
C840 C 0.00885 0.63299 -0.00397 0.0
C841 C 0.06283 0.64262 0.97541 0.0
C842 C 0.96062 0.62799 0.9586 0.0
C843 C 0.91891 0.64044 0.01111 0.0
N844 N 0.02989 0.63972 0.97088 0.0
N845 N 0.95193 0.63839 0.01551 0.0
H846 H 0.08967 0.32958 0.03594 0.0
H847 H 0.91363 0.32723 0.95183 0.0
H848 H 0.07524 0.34999 0.93291 0.0
H849 H 0.92743 0.34801 0.0549 0.0
H850 H 0.97327 0.33073 0.94417 0.0
H851 H 0.02994 0.33145 0.04364 0.0
C852 C 0.07407 0.33472 0.01507 0.0
C853 C 0.08757 0.33978 0.98384 0.0
C854 C 0.96304 0.33479 0.96837 0.0
C855 C 0.01951 0.34132 0.99228 0.0
C856 C 0.92906 0.3328 0.97272 0.0
C857 C 0.91541 0.33744 0.00396 0.0
C858 C 0.98341 0.34085 -0.00445 0.0
C859 C 0.9367 0.34444 0.03025 0.0
C860 C 0.04005 0.33579 0.01945 0.0
C861 C 0.06609 0.34618 0.95756 0.0
N862 N 0.96959 0.34562 0.0255 0.0
N863 N 0.03318 0.34647 0.96233 0.0
loop_
_geom_bond_atom_site_label_1
_geom_bond_atom_site_label_2
_geom_bond_distance
_geom_bond_site_symmetry_2
_ccdc_geom_bond_type
Mn0 O5 2.095 . S
Mn0 O15 2.162 . S
Mn0 O16 2.297 . S
Mn0 O24 2.385 . S
Mn0 O25 2.209 . S
Mn0 O26 2.094 . S
Mn1 O6 2.121 . S
Mn1 N8 2.257 1_455 S
Mn1 N17 2.282 . S
Mn1 O25 2.215 . S
Mn1 O27 2.117 . S
C2 O24 1.234 . S
C2 O25 1.283 . S
C3 O15 1.281 . S
C3 O16 1.236 . S
C4 O26 1.240 . S
C4 O27 1.264 . S
O5 Mn0 2.095 . S
O5 C14 1.250 . S
O6 Mn1 2.121 . S
O6 C14 1.258 . S
C7 N8 1.326 . S
C7 C11 1.460 . S
C7 H13 0.929 . S
N8 Mn1 2.257 1_655 S
N8 C7 1.326 . S
N8 C12 1.362 . S
C9 C10 1.258 . S
C9 C12 1.431 . S
C9 C29 1.449 . S
C10 C9 1.258 . S
C10 C11 1.477 . S
C10 H30 0.931 . S
C11 C7 1.460 . S
C11 C10 1.477 . S
C11 H31 0.930 . S
C12 N8 1.362 . S
C12 C9 1.431 . S
C12 C22 1.476 . S
H13 C7 0.929 . S
C14 O5 1.250 . S
C14 O6 1.258 . S
O15 Mn0 2.162 . S
O15 C3 1.281 . S
O16 Mn0 2.297 . S
O16 C3 1.236 . S
N17 Mn1 2.282 . S
N17 C18 1.328 . S
N17 C22 1.318 1_455 S
C18 N17 1.328 . S
C18 C19 1.457 . S
C18 H23 0.929 . S
C19 C18 1.457 . S
C19 C20 1.291 1_455 S
C19 H32 0.931 . S
C20 C19 1.291 1_655 S
C20 C21 1.373 . S
C20 H33 0.929 . S
C21 C20 1.373 . S
C21 C22 1.396 . S
C21 C28 1.403 . S
C22 C12 1.476 . S
C22 N17 1.318 1_655 S
C22 C21 1.396 . S
H23 C18 0.929 . S
O24 Mn0 2.385 . S
O24 C2 1.234 . S
O25 Mn0 2.209 . S
O25 Mn1 2.215 . S
O25 C2 1.283 . S
O26 Mn0 2.094 . S
O26 C4 1.240 . S
O27 Mn1 2.117 . S
O27 C4 1.264 . S
C28 C21 1.403 . S
C28 C29 1.399 . S
C28 H34 0.929 . S
C29 C9 1.449 . S
C29 C28 1.399 . S
C29 H35 0.930 . S
H30 C10 0.931 . S
H31 C11 0.930 . S
H32 C19 0.931 . S
H33 C20 0.929 . S
H34 C28 0.929 . S
H35 C29 0.930 . S
Mn36 O41 2.095 . S
Mn36 O51 2.162 . S
Mn36 O52 2.297 . S
Mn36 O60 2.385 . S
Mn36 O61 2.209 . S
Mn36 O62 2.094 . S
Mn37 O42 2.121 . S
Mn37 N44 2.257 1_655 S
Mn37 N53 2.282 . S
Mn37 O61 2.215 . S
Mn37 O63 2.117 . S
C38 O60 1.234 . S
C38 O61 1.283 . S
C39 O51 1.281 . S
C39 O52 1.236 . S
C40 O62 1.240 . S
C40 O63 1.264 . S
O41 Mn36 2.095 . S
O41 C50 1.250 . S
O42 Mn37 2.121 . S
O42 C50 1.258 . S
C43 N44 1.326 . S
C43 C47 1.460 . S
C43 H49 0.929 . S
N44 Mn37 2.257 1_455 S
N44 C43 1.326 . S
N44 C48 1.362 . S
C45 C46 1.258 . S
C45 C48 1.431 . S
C45 C65 1.449 . S
C46 C45 1.258 . S
C46 C47 1.477 . S
C46 H66 0.931 . S
C47 C43 1.460 . S
C47 C46 1.477 . S
C47 H67 0.930 . S
C48 N44 1.362 . S
C48 C45 1.431 . S
C48 C58 1.476 . S
H49 C43 0.929 . S
C50 O41 1.250 . S
C50 O42 1.258 . S
O51 Mn36 2.162 . S
O51 C39 1.281 . S
O52 Mn36 2.297 . S
O52 C39 1.236 . S
N53 Mn37 2.282 . S
N53 C54 1.328 . S
N53 C58 1.318 1_655 S
C54 N53 1.328 . S
C54 C55 1.457 . S
C54 H59 0.929 . S
C55 C54 1.457 . S
C55 C56 1.291 1_655 S
C55 H68 0.931 . S
C56 C55 1.291 1_455 S
C56 C57 1.373 . S
C56 H69 0.929 . S
C57 C56 1.373 . S
C57 C58 1.396 . S
C57 C64 1.403 . S
C58 C48 1.476 . S
C58 N53 1.318 1_455 S
C58 C57 1.396 . S
H59 C54 0.929 . S
O60 Mn36 2.385 . S
O60 C38 1.234 . S
O61 Mn36 2.209 . S
O61 Mn37 2.215 . S
O61 C38 1.283 . S
O62 Mn36 2.094 . S
O62 C40 1.240 . S
O63 Mn37 2.117 . S
O63 C40 1.264 . S
C64 C57 1.403 . S
C64 C65 1.399 . S
C64 H70 0.929 . S
C65 C45 1.449 . S
C65 C64 1.399 . S
C65 H71 0.930 . S
H66 C46 0.931 . S
H67 C47 0.930 . S
H68 C55 0.931 . S
H69 C56 0.929 . S
H70 C64 0.929 . S
H71 C65 0.930 . S
Mn72 O77 2.095 . S
Mn72 O87 2.162 . S
Mn72 O88 2.297 . S
Mn72 O96 2.385 . S
Mn72 O97 2.209 . S
Mn72 O98 2.094 . S
Mn73 O78 2.121 . S
Mn73 N80 2.257 1_455 S
Mn73 N89 2.282 . S
Mn73 O97 2.215 . S
Mn73 O99 2.117 . S
C74 O96 1.234 . S
C74 O97 1.283 . S
C75 O87 1.281 . S
C75 O88 1.236 . S
C76 O98 1.240 . S
C76 O99 1.264 . S
O77 Mn72 2.095 . S
O77 C86 1.250 . S
O78 Mn73 2.121 . S
O78 C86 1.258 . S
C79 N80 1.326 . S
C79 C83 1.460 . S
C79 H85 0.929 . S
N80 Mn73 2.257 1_655 S
N80 C79 1.326 . S
N80 C84 1.362 . S
C81 C82 1.258 . S
C81 C84 1.431 . S
C81 C101 1.449 . S
C82 C81 1.258 . S
C82 C83 1.477 . S
C82 H102 0.931 . S
C83 C79 1.460 . S
C83 C82 1.477 . S
C83 H103 0.930 . S
C84 N80 1.362 . S
C84 C81 1.431 . S
C84 C94 1.476 . S
H85 C79 0.929 . S
C86 O77 1.250 . S
C86 O78 1.258 . S
O87 Mn72 2.162 . S
O87 C75 1.281 . S
O88 Mn72 2.297 . S
O88 C75 1.236 . S
N89 Mn73 2.282 . S
N89 C90 1.328 . S
N89 C94 1.318 1_455 S
C90 N89 1.328 . S
C90 C91 1.457 . S
C90 H95 0.929 . S
C91 C90 1.457 . S
C91 C92 1.291 1_455 S
C91 H104 0.931 . S
C92 C91 1.291 1_655 S
C92 C93 1.373 . S
C92 H105 0.929 . S
C93 C92 1.373 . S
C93 C94 1.396 . S
C93 C100 1.403 . S
C94 C84 1.476 . S
C94 N89 1.318 1_655 S
C94 C93 1.396 . S
H95 C90 0.929 . S
O96 Mn72 2.385 . S
O96 C74 1.234 . S
O97 Mn72 2.209 . S
O97 Mn73 2.215 . S
O97 C74 1.283 . S
O98 Mn72 2.094 . S
O98 C76 1.240 . S
O99 Mn73 2.117 . S
O99 C76 1.264 . S
C100 C93 1.403 . S
C100 C101 1.399 . S
C100 H106 0.929 . S
C101 C81 1.449 . S
C101 C100 1.399 . S
C101 H107 0.930 . S
H102 C82 0.931 . S
H103 C83 0.930 . S
H104 C91 0.931 . S
H105 C92 0.929 . S
H106 C100 0.929 . S
H107 C101 0.930 . S
Mn108 O113 2.095 . S
Mn108 O123 2.162 . S
Mn108 O124 2.297 . S
Mn108 O132 2.385 . S
Mn108 O133 2.209 . S
Mn108 O134 2.094 . S
Mn109 O114 2.121 . S
Mn109 N116 2.257 1_655 S
Mn109 N125 2.282 . S
Mn109 O133 2.215 . S
Mn109 O135 2.117 . S
C110 O132 1.234 . S
C110 O133 1.283 . S
C111 O123 1.281 . S
C111 O124 1.236 . S
C112 O134 1.240 . S
C112 O135 1.264 . S
O113 Mn108 2.095 . S
O113 C122 1.250 . S
O114 Mn109 2.121 . S
O114 C122 1.258 . S
C115 N116 1.326 . S
C115 C119 1.460 . S
C115 H121 0.929 . S
N116 Mn109 2.257 1_455 S
N116 C115 1.326 . S
N116 C120 1.362 . S
C117 C118 1.258 . S
C117 C120 1.431 . S
C117 C137 1.449 . S
C118 C117 1.258 . S
C118 C119 1.477 . S
C118 H138 0.931 . S
C119 C115 1.460 . S
C119 C118 1.477 . S
C119 H139 0.930 . S
C120 N116 1.362 . S
C120 C117 1.431 . S
C120 C130 1.476 . S
H121 C115 0.929 . S
C122 O113 1.250 . S
C122 O114 1.258 . S
O123 Mn108 2.162 . S
O123 C111 1.281 . S
O124 Mn108 2.297 . S
O124 C111 1.236 . S
N125 Mn109 2.282 . S
N125 C126 1.328 . S
N125 C130 1.318 1_655 S
C126 N125 1.328 . S
C126 C127 1.457 . S
C126 H131 0.929 . S
C127 C126 1.457 . S
C127 C128 1.291 1_655 S
C127 H140 0.931 . S
C128 C127 1.291 1_455 S
C128 C129 1.373 . S
C128 H141 0.929 . S
C129 C128 1.373 . S
C129 C130 1.396 . S
C129 C136 1.403 . S
C130 C120 1.476 . S
C130 N125 1.318 1_455 S
C130 C129 1.396 . S
H131 C126 0.929 . S
O132 Mn108 2.385 . S
O132 C110 1.234 . S
O133 Mn108 2.209 . S
O133 Mn109 2.215 . S
O133 C110 1.283 . S
O134 Mn108 2.094 . S
O134 C112 1.240 . S
O135 Mn109 2.117 . S
O135 C112 1.264 . S
C136 C129 1.403 . S
C136 C137 1.399 . S
C136 H142 0.929 . S
C137 C117 1.449 . S
C137 C136 1.399 . S
C137 H143 0.930 . S
H138 C118 0.931 . S
H139 C119 0.930 . S
H140 C127 0.931 . S
H141 C128 0.929 . S
H142 C136 0.929 . S
H143 C137 0.930 . S
Mn144 O149 2.095 . S
Mn144 O159 2.162 . S
Mn144 O160 2.297 . S
Mn144 O168 2.385 . S
Mn144 O169 2.209 . S
Mn144 O170 2.094 . S
Mn145 O150 2.121 . S
Mn145 N152 2.257 1_545 S
Mn145 N161 2.282 . S
Mn145 O169 2.215 . S
Mn145 O171 2.117 . S
C146 O168 1.234 . S
C146 O169 1.283 . S
C147 O159 1.281 . S
C147 O160 1.236 . S
C148 O170 1.240 . S
C148 O171 1.264 . S
O149 Mn144 2.095 . S
O149 C158 1.250 . S
O150 Mn145 2.121 . S
O150 C158 1.258 . S
C151 N152 1.326 . S
C151 C155 1.460 . S
C151 H157 0.929 . S
N152 Mn145 2.257 1_565 S
N152 C151 1.326 . S
N152 C156 1.362 . S
C153 C154 1.258 . S
C153 C156 1.431 . S
C153 C173 1.449 . S
C154 C153 1.258 . S
C154 C155 1.477 . S
C154 H174 0.931 . S
C155 C151 1.460 . S
C155 C154 1.477 . S
C155 H175 0.930 . S
C156 N152 1.362 . S
C156 C153 1.431 . S
C156 C166 1.476 . S
H157 C151 0.929 . S
C158 O149 1.250 . S
C158 O150 1.258 . S
O159 Mn144 2.162 . S
O159 C147 1.281 . S
O160 Mn144 2.297 . S
O160 C147 1.236 . S
N161 Mn145 2.282 . S
N161 C162 1.328 . S
N161 C166 1.318 1_545 S
C162 N161 1.328 . S
C162 C163 1.457 . S
C162 H167 0.929 . S
C163 C162 1.457 . S
C163 C164 1.291 1_545 S
C163 H176 0.931 . S
C164 C163 1.291 1_565 S
C164 C165 1.373 . S
C164 H177 0.929 . S
C165 C164 1.373 . S
C165 C166 1.396 . S
C165 C172 1.403 . S
C166 C156 1.476 . S
C166 N161 1.318 1_565 S
C166 C165 1.396 . S
H167 C162 0.929 . S
O168 Mn144 2.385 . S
O168 C146 1.234 . S
O169 Mn144 2.209 . S
O169 Mn145 2.215 . S
O169 C146 1.283 . S
O170 Mn144 2.094 . S
O170 C148 1.240 . S
O171 Mn145 2.117 . S
O171 C148 1.264 . S
C172 C165 1.403 . S
C172 C173 1.399 . S
C172 H178 0.929 . S
C173 C153 1.449 . S
C173 C172 1.399 . S
C173 H179 0.930 . S
H174 C154 0.931 . S
H175 C155 0.930 . S
H176 C163 0.931 . S
H177 C164 0.929 . S
H178 C172 0.929 . S
H179 C173 0.930 . S
Mn180 O185 2.095 . S
Mn180 O195 2.162 . S
Mn180 O196 2.297 . S
Mn180 O204 2.385 . S
Mn180 O205 2.209 . S
Mn180 O206 2.094 . S
Mn181 O186 2.121 . S
Mn181 N188 2.257 1_565 S
Mn181 N197 2.282 . S
Mn181 O205 2.215 . S
Mn181 O207 2.117 . S
C182 O204 1.234 . S
C182 O205 1.283 . S
C183 O195 1.281 . S
C183 O196 1.236 . S
C184 O206 1.240 . S
C184 O207 1.264 . S
O185 Mn180 2.095 . S
O185 C194 1.250 . S
O186 Mn181 2.121 . S
O186 C194 1.258 . S
C187 N188 1.326 . S
C187 C191 1.460 . S
C187 H193 0.929 . S
N188 Mn181 2.257 1_545 S
N188 C187 1.326 . S
N188 C192 1.362 . S
C189 C190 1.258 . S
C189 C192 1.431 . S
C189 C209 1.449 . S
C190 C189 1.258 . S
C190 C191 1.477 . S
C190 H210 0.931 . S
C191 C187 1.460 . S
C191 C190 1.477 . S
C191 H211 0.930 . S
C192 N188 1.362 . S
C192 C189 1.431 . S
C192 C202 1.476 . S
H193 C187 0.929 . S
C194 O185 1.250 . S
C194 O186 1.258 . S
O195 Mn180 2.162 . S
O195 C183 1.281 . S
O196 Mn180 2.297 . S
O196 C183 1.236 . S
N197 Mn181 2.282 . S
N197 C198 1.328 . S
N197 C202 1.318 1_565 S
C198 N197 1.328 . S
C198 C199 1.457 . S
C198 H203 0.929 . S
C199 C198 1.457 . S
C199 C200 1.291 1_565 S
C199 H212 0.931 . S
C200 C199 1.291 1_545 S
C200 C201 1.373 . S
C200 H213 0.929 . S
C201 C200 1.373 . S
C201 C202 1.396 . S
C201 C208 1.403 . S
C202 C192 1.476 . S
C202 N197 1.318 1_545 S
C202 C201 1.396 . S
H203 C198 0.929 . S
O204 Mn180 2.385 . S
O204 C182 1.234 . S
O205 Mn180 2.209 . S
O205 Mn181 2.215 . S
O205 C182 1.283 . S
O206 Mn180 2.094 . S
O206 C184 1.240 . S
O207 Mn181 2.117 . S
O207 C184 1.264 . S
C208 C201 1.403 . S
C208 C209 1.399 . S
C208 H214 0.929 . S
C209 C189 1.449 . S
C209 C208 1.399 . S
C209 H215 0.930 . S
H210 C190 0.931 . S
H211 C191 0.930 . S
H212 C199 0.931 . S
H213 C200 0.929 . S
H214 C208 0.929 . S
H215 C209 0.930 . S
Mn216 O221 2.095 . S
Mn216 O231 2.162 . S
Mn216 O232 2.297 . S
Mn216 O240 2.385 . S
Mn216 O241 2.209 . S
Mn216 O242 2.094 . S
Mn217 O222 2.121 . S
Mn217 N224 2.257 1_565 S
Mn217 N233 2.282 . S
Mn217 O241 2.215 . S
Mn217 O243 2.117 . S
C218 O240 1.234 . S
C218 O241 1.283 . S
C219 O231 1.281 . S
C219 O232 1.236 . S
C220 O242 1.240 . S
C220 O243 1.264 . S
O221 Mn216 2.095 . S
O221 C230 1.250 . S
O222 Mn217 2.121 . S
O222 C230 1.258 . S
C223 N224 1.326 . S
C223 C227 1.460 . S
C223 H229 0.929 . S
N224 Mn217 2.257 1_545 S
N224 C223 1.326 . S
N224 C228 1.362 . S
C225 C226 1.258 . S
C225 C228 1.431 . S
C225 C245 1.449 . S
C226 C225 1.258 . S
C226 C227 1.477 . S
C226 H246 0.931 . S
C227 C223 1.460 . S
C227 C226 1.477 . S
C227 H247 0.930 . S
C228 N224 1.362 . S
C228 C225 1.431 . S
C228 C238 1.476 . S
H229 C223 0.929 . S
C230 O221 1.250 . S
C230 O222 1.258 . S
O231 Mn216 2.162 . S
O231 C219 1.281 . S
O232 Mn216 2.297 . S
O232 C219 1.236 . S
N233 Mn217 2.282 . S
N233 C234 1.328 . S
N233 C238 1.318 1_565 S
C234 N233 1.328 . S
C234 C235 1.457 . S
C234 H239 0.929 . S
C235 C234 1.457 . S
C235 C236 1.291 1_565 S
C235 H248 0.931 . S
C236 C235 1.291 1_545 S
C236 C237 1.373 . S
C236 H249 0.929 . S
C237 C236 1.373 . S
C237 C238 1.396 . S
C237 C244 1.403 . S
C238 C228 1.476 . S
C238 N233 1.318 1_545 S
C238 C237 1.396 . S
H239 C234 0.929 . S
O240 Mn216 2.385 . S
O240 C218 1.234 . S
O241 Mn216 2.209 . S
O241 Mn217 2.215 . S
O241 C218 1.283 . S
O242 Mn216 2.094 . S
O242 C220 1.240 . S
O243 Mn217 2.117 . S
O243 C220 1.264 . S
C244 C237 1.403 . S
C244 C245 1.399 . S
C244 H250 0.929 . S
C245 C225 1.449 . S
C245 C244 1.399 . S
C245 H251 0.930 . S
H246 C226 0.931 . S
H247 C227 0.930 . S
H248 C235 0.931 . S
H249 C236 0.929 . S
H250 C244 0.929 . S
H251 C245 0.930 . S
Mn252 O257 2.095 . S
Mn252 O267 2.162 . S
Mn252 O268 2.297 . S
Mn252 O276 2.385 . S
Mn252 O277 2.209 . S
Mn252 O278 2.094 . S
Mn253 O258 2.121 . S
Mn253 N260 2.257 1_545 S
Mn253 N269 2.282 . S
Mn253 O277 2.215 . S
Mn253 O279 2.117 . S
C254 O276 1.234 . S
C254 O277 1.283 . S
C255 O267 1.281 . S
C255 O268 1.236 . S
C256 O278 1.240 . S
C256 O279 1.264 . S
O257 Mn252 2.095 . S
O257 C266 1.250 . S
O258 Mn253 2.121 . S
O258 C266 1.258 . S
C259 N260 1.326 . S
C259 C263 1.460 . S
C259 H265 0.929 . S
N260 Mn253 2.257 1_565 S
N260 C259 1.326 . S
N260 C264 1.362 . S
C261 C262 1.258 . S
C261 C264 1.431 . S
C261 C281 1.449 . S
C262 C261 1.258 . S
C262 C263 1.477 . S
C262 H282 0.931 . S
C263 C259 1.460 . S
C263 C262 1.477 . S
C263 H283 0.930 . S
C264 N260 1.362 . S
C264 C261 1.431 . S
C264 C274 1.476 . S
H265 C259 0.929 . S
C266 O257 1.250 . S
C266 O258 1.258 . S
O267 Mn252 2.162 . S
O267 C255 1.281 . S
O268 Mn252 2.297 . S
O268 C255 1.236 . S
N269 Mn253 2.282 . S
N269 C270 1.328 . S
N269 C274 1.318 1_545 S
C270 N269 1.328 . S
C270 C271 1.457 . S
C270 H275 0.929 . S
C271 C270 1.457 . S
C271 C272 1.291 1_545 S
C271 H284 0.931 . S
C272 C271 1.291 1_565 S
C272 C273 1.373 . S
C272 H285 0.929 . S
C273 C272 1.373 . S
C273 C274 1.396 . S
C273 C280 1.403 . S
C274 C264 1.476 . S
C274 N269 1.318 1_565 S
C274 C273 1.396 . S
H275 C270 0.929 . S
O276 Mn252 2.385 . S
O276 C254 1.234 . S
O277 Mn252 2.209 . S
O277 Mn253 2.215 . S
O277 C254 1.283 . S
O278 Mn252 2.094 . S
O278 C256 1.240 . S
O279 Mn253 2.117 . S
O279 C256 1.264 . S
C280 C273 1.403 . S
C280 C281 1.399 . S
C280 H286 0.929 . S
C281 C261 1.449 . S
C281 C280 1.399 . S
C281 H287 0.930 . S
H282 C262 0.931 . S
H283 C263 0.930 . S
H284 C271 0.931 . S
H285 C272 0.929 . S
H286 C280 0.929 . S
H287 C281 0.930 . S
Mn288 O293 2.095 . S
Mn288 O303 2.162 . S
Mn288 O304 2.297 . S
Mn288 O312 2.385 . S
Mn288 O313 2.209 . S
Mn288 O314 2.094 . S
Mn289 O294 2.121 . S
Mn289 N296 2.257 1_554 S
Mn289 N305 2.282 . S
Mn289 O313 2.215 . S
Mn289 O315 2.117 . S
C290 O312 1.234 . S
C290 O313 1.283 . S
C291 O303 1.281 . S
C291 O304 1.236 . S
C292 O314 1.240 . S
C292 O315 1.264 . S
O293 Mn288 2.095 . S
O293 C302 1.250 . S
O294 Mn289 2.121 . S
O294 C302 1.258 . S
C295 N296 1.326 . S
C295 C299 1.460 . S
C295 H301 0.929 . S
N296 Mn289 2.257 1_556 S
N296 C295 1.326 . S
N296 C300 1.362 . S
C297 C298 1.258 . S
C297 C300 1.431 . S
C297 C317 1.449 . S
C298 C297 1.258 . S
C298 C299 1.477 . S
C298 H318 0.931 . S
C299 C295 1.460 . S
C299 C298 1.477 . S
C299 H319 0.930 . S
C300 N296 1.362 . S
C300 C297 1.431 . S
C300 C310 1.476 . S
H301 C295 0.929 . S
C302 O293 1.250 . S
C302 O294 1.258 . S
O303 Mn288 2.162 . S
O303 C291 1.281 . S
O304 Mn288 2.297 . S
O304 C291 1.236 . S
N305 Mn289 2.282 . S
N305 C306 1.328 . S
N305 C310 1.318 1_554 S
C306 N305 1.328 . S
C306 C307 1.457 . S
C306 H311 0.929 . S
C307 C306 1.457 . S
C307 C308 1.291 1_554 S
C307 H320 0.931 . S
C308 C307 1.291 1_556 S
C308 C309 1.373 . S
C308 H321 0.929 . S
C309 C308 1.373 . S
C309 C310 1.396 . S
C309 C316 1.403 . S
C310 C300 1.476 . S
C310 N305 1.318 1_556 S
C310 C309 1.396 . S
H311 C306 0.929 . S
O312 Mn288 2.385 . S
O312 C290 1.234 . S
O313 Mn288 2.209 . S
O313 Mn289 2.215 . S
O313 C290 1.283 . S
O314 Mn288 2.094 . S
O314 C292 1.240 . S
O315 Mn289 2.117 . S
O315 C292 1.264 . S
C316 C309 1.403 . S
C316 C317 1.399 . S
C316 H322 0.929 . S
C317 C297 1.449 . S
C317 C316 1.399 . S
C317 H323 0.930 . S
H318 C298 0.931 . S
H319 C299 0.930 . S
H320 C307 0.931 . S
H321 C308 0.929 . S
H322 C316 0.929 . S
H323 C317 0.930 . S
Mn324 O329 2.095 . S
Mn324 O339 2.162 . S
Mn324 O340 2.297 . S
Mn324 O348 2.385 . S
Mn324 O349 2.209 . S
Mn324 O350 2.094 . S
Mn325 O330 2.121 . S
Mn325 N332 2.257 1_556 S
Mn325 N341 2.282 . S
Mn325 O349 2.215 . S
Mn325 O351 2.117 . S
C326 O348 1.234 . S
C326 O349 1.283 . S
C327 O339 1.281 . S
C327 O340 1.236 . S
C328 O350 1.240 . S
C328 O351 1.264 . S
O329 Mn324 2.095 . S
O329 C338 1.250 . S
O330 Mn325 2.121 . S
O330 C338 1.258 . S
C331 N332 1.326 . S
C331 C335 1.460 . S
C331 H337 0.929 . S
N332 Mn325 2.257 1_554 S
N332 C331 1.326 . S
N332 C336 1.362 . S
C333 C334 1.258 . S
C333 C336 1.431 . S
C333 C353 1.449 . S
C334 C333 1.258 . S
C334 C335 1.477 . S
C334 H354 0.931 . S
C335 C331 1.460 . S
C335 C334 1.477 . S
C335 H355 0.930 . S
C336 N332 1.362 . S
C336 C333 1.431 . S
C336 C346 1.476 . S
H337 C331 0.929 . S
C338 O329 1.250 . S
C338 O330 1.258 . S
O339 Mn324 2.162 . S
O339 C327 1.281 . S
O340 Mn324 2.297 . S
O340 C327 1.236 . S
N341 Mn325 2.282 . S
N341 C342 1.328 . S
N341 C346 1.318 1_556 S
C342 N341 1.328 . S
C342 C343 1.457 . S
C342 H347 0.929 . S
C343 C342 1.457 . S
C343 C344 1.291 1_556 S
C343 H356 0.931 . S
C344 C343 1.291 1_554 S
C344 C345 1.373 . S
C344 H357 0.929 . S
C345 C344 1.373 . S
C345 C346 1.396 . S
C345 C352 1.403 . S
C346 C336 1.476 . S
C346 N341 1.318 1_554 S
C346 C345 1.396 . S
H347 C342 0.929 . S
O348 Mn324 2.385 . S
O348 C326 1.234 . S
O349 Mn324 2.209 . S
O349 Mn325 2.215 . S
O349 C326 1.283 . S
O350 Mn324 2.094 . S
O350 C328 1.240 . S
O351 Mn325 2.117 . S
O351 C328 1.264 . S
C352 C345 1.403 . S
C352 C353 1.399 . S
C352 H358 0.929 . S
C353 C333 1.449 . S
C353 C352 1.399 . S
C353 H359 0.930 . S
H354 C334 0.931 . S
H355 C335 0.930 . S
H356 C343 0.931 . S
H357 C344 0.929 . S
H358 C352 0.929 . S
H359 C353 0.930 . S
Mn360 O365 2.095 . S
Mn360 O375 2.162 . S
Mn360 O376 2.297 . S
Mn360 O384 2.385 . S
Mn360 O385 2.209 . S
Mn360 O386 2.094 . S
Mn361 O366 2.121 . S
Mn361 N368 2.257 1_556 S
Mn361 N377 2.282 . S
Mn361 O385 2.215 . S
Mn361 O387 2.117 . S
C362 O384 1.234 . S
C362 O385 1.283 . S
C363 O375 1.281 . S
C363 O376 1.236 . S
C364 O386 1.240 . S
C364 O387 1.264 . S
O365 Mn360 2.095 . S
O365 C374 1.250 . S
O366 Mn361 2.121 . S
O366 C374 1.258 . S
C367 N368 1.326 . S
C367 C371 1.460 . S
C367 H373 0.929 . S
N368 Mn361 2.257 1_554 S
N368 C367 1.326 . S
N368 C372 1.362 . S
C369 C370 1.258 . S
C369 C372 1.431 . S
C369 C389 1.449 . S
C370 C369 1.258 . S
C370 C371 1.477 . S
C370 H390 0.931 . S
C371 C367 1.460 . S
C371 C370 1.477 . S
C371 H391 0.930 . S
C372 N368 1.362 . S
C372 C369 1.431 . S
C372 C382 1.476 . S
H373 C367 0.929 . S
C374 O365 1.250 . S
C374 O366 1.258 . S
O375 Mn360 2.162 . S
O375 C363 1.281 . S
O376 Mn360 2.297 . S
O376 C363 1.236 . S
N377 Mn361 2.282 . S
N377 C378 1.328 . S
N377 C382 1.318 1_556 S
C378 N377 1.328 . S
C378 C379 1.457 . S
C378 H383 0.929 . S
C379 C378 1.457 . S
C379 C380 1.291 1_556 S
C379 H392 0.931 . S
C380 C379 1.291 1_554 S
C380 C381 1.373 . S
C380 H393 0.929 . S
C381 C380 1.373 . S
C381 C382 1.396 . S
C381 C388 1.403 . S
C382 C372 1.476 . S
C382 N377 1.318 1_554 S
C382 C381 1.396 . S
H383 C378 0.929 . S
O384 Mn360 2.385 . S
O384 C362 1.234 . S
O385 Mn360 2.209 . S
O385 Mn361 2.215 . S
O385 C362 1.283 . S
O386 Mn360 2.094 . S
O386 C364 1.240 . S
O387 Mn361 2.117 . S
O387 C364 1.264 . S
C388 C381 1.403 . S
C388 C389 1.399 . S
C388 H394 0.929 . S
C389 C369 1.449 . S
C389 C388 1.399 . S
C389 H395 0.930 . S
H390 C370 0.931 . S
H391 C371 0.930 . S
H392 C379 0.931 . S
H393 C380 0.929 . S
H394 C388 0.929 . S
H395 C389 0.930 . S
Mn396 O401 2.095 . S
Mn396 O411 2.162 . S
Mn396 O412 2.297 . S
Mn396 O420 2.385 . S
Mn396 O421 2.209 . S
Mn396 O422 2.094 . S
Mn397 O402 2.121 . S
Mn397 N404 2.257 1_554 S
Mn397 N413 2.282 . S
Mn397 O421 2.215 . S
Mn397 O423 2.117 . S
C398 O420 1.234 . S
C398 O421 1.283 . S
C399 O411 1.281 . S
C399 O412 1.236 . S
C400 O422 1.240 . S
C400 O423 1.264 . S
O401 Mn396 2.095 . S
O401 C410 1.250 . S
O402 Mn397 2.121 . S
O402 C410 1.258 . S
C403 N404 1.326 . S
C403 C407 1.460 . S
C403 H409 0.929 . S
N404 Mn397 2.257 1_556 S
N404 C403 1.326 . S
N404 C408 1.362 . S
C405 C406 1.258 . S
C405 C408 1.431 . S
C405 C425 1.449 . S
C406 C405 1.258 . S
C406 C407 1.477 . S
C406 H426 0.931 . S
C407 C403 1.460 . S
C407 C406 1.477 . S
C407 H427 0.930 . S
C408 N404 1.362 . S
C408 C405 1.431 . S
C408 C418 1.476 . S
H409 C403 0.929 . S
C410 O401 1.250 . S
C410 O402 1.258 . S
O411 Mn396 2.162 . S
O411 C399 1.281 . S
O412 Mn396 2.297 . S
O412 C399 1.236 . S
N413 Mn397 2.282 . S
N413 C414 1.328 . S
N413 C418 1.318 1_554 S
C414 N413 1.328 . S
C414 C415 1.457 . S
C414 H419 0.929 . S
C415 C414 1.457 . S
C415 C416 1.291 1_554 S
C415 H428 0.931 . S
C416 C415 1.291 1_556 S
C416 C417 1.373 . S
C416 H429 0.929 . S
C417 C416 1.373 . S
C417 C418 1.396 . S
C417 C424 1.403 . S
C418 C408 1.476 . S
C418 N413 1.318 1_556 S
C418 C417 1.396 . S
H419 C414 0.929 . S
O420 Mn396 2.385 . S
O420 C398 1.234 . S
O421 Mn396 2.209 . S
O421 Mn397 2.215 . S
O421 C398 1.283 . S
O422 Mn396 2.094 . S
O422 C400 1.240 . S
O423 Mn397 2.117 . S
O423 C400 1.264 . S
C424 C417 1.403 . S
C424 C425 1.399 . S
C424 H430 0.929 . S
C425 C405 1.449 . S
C425 C424 1.399 . S
C425 H431 0.930 . S
H426 C406 0.931 . S
H427 C407 0.930 . S
H428 C415 0.931 . S
H429 C416 0.929 . S
H430 C424 0.929 . S
H431 C425 0.930 . S
H432 C438 0.930 . S
H433 C442 0.930 . S
H434 C447 0.929 . S
H435 C445 0.929 . S
H436 C440 0.929 . S
H437 C446 0.929 . S
C438 H432 0.930 . S
C438 C439 1.367 . S
C438 C446 1.378 . S
C439 C438 1.367 . S
C439 C447 1.433 . S
C440 H436 0.929 . S
C440 C442 1.378 . S
C440 C444 1.350 . S
C441 C444 1.463 1_655 S
C441 C446 1.350 . S
C441 N449 1.427 . S
C442 H433 0.930 . S
C442 C440 1.378 . S
C442 C443 1.367 . S
C443 C442 1.367 . S
C443 C445 1.433 . S
C444 C440 1.350 . S
C444 C441 1.463 1_455 S
C444 N448 1.427 . S
C445 H435 0.929 . S
C445 C443 1.433 . S
C445 N448 1.384 . S
C446 H437 0.929 . S
C446 C438 1.378 . S
C446 C441 1.350 . S
C447 H434 0.929 . S
C447 C439 1.433 . S
C447 N449 1.384 . S
N448 C444 1.427 . S
N448 C445 1.384 . S
N449 C441 1.427 . S
N449 C447 1.384 . S
H450 C456 0.930 . S
H451 C460 0.930 . S
H452 C465 0.929 . S
H453 C463 0.929 . S
H454 C458 0.929 1_455 S
H455 C464 0.929 1_655 S
C456 H450 0.930 . S
C456 C457 1.367 . S
C456 C464 1.378 . S
C457 C456 1.367 . S
C457 C465 1.433 . S
C458 H454 0.929 1_655 S
C458 C460 1.378 . S
C458 C462 1.350 . S
C459 C462 1.463 1_455 S
C459 C464 1.350 . S
C459 N467 1.427 . S
C460 H451 0.930 . S
C460 C458 1.378 . S
C460 C461 1.367 . S
C461 C460 1.367 . S
C461 C463 1.433 . S
C462 C458 1.350 . S
C462 C459 1.463 1_655 S
C462 N466 1.427 . S
C463 H453 0.929 . S
C463 C461 1.433 . S
C463 N466 1.384 . S
C464 H455 0.929 1_455 S
C464 C456 1.378 . S
C464 C459 1.350 . S
C465 H452 0.929 . S
C465 C457 1.433 . S
C465 N467 1.384 . S
N466 C462 1.427 . S
N466 C463 1.384 . S
N467 C459 1.427 . S
N467 C465 1.384 . S
H468 C474 0.930 . S
H469 C478 0.930 . S
H470 C483 0.929 . S
H471 C481 0.929 . S
H472 C476 0.929 1_565 S
H473 C482 0.929 1_545 S
C474 H468 0.930 . S
C474 C475 1.367 . S
C474 C482 1.378 . S
C475 C474 1.367 . S
C475 C483 1.433 . S
C476 H472 0.929 1_545 S
C476 C478 1.378 . S
C476 C480 1.350 . S
C477 C480 1.463 1_565 S
C477 C482 1.350 . S
C477 N485 1.427 . S
C478 H469 0.930 . S
C478 C476 1.378 . S
C478 C479 1.367 . S
C479 C478 1.367 . S
C479 C481 1.433 . S
C480 C476 1.350 . S
C480 C477 1.463 1_545 S
C480 N484 1.427 . S
C481 H471 0.929 . S
C481 C479 1.433 . S
C481 N484 1.384 . S
C482 H473 0.929 1_565 S
C482 C474 1.378 . S
C482 C477 1.350 . S
C483 H470 0.929 . S
C483 C475 1.433 . S
C483 N485 1.384 . S
N484 C480 1.427 . S
N484 C481 1.384 . S
N485 C477 1.427 . S
N485 C483 1.384 . S
H486 C492 0.930 . S
H487 C496 0.930 . S
H488 C501 0.929 . S
H489 C499 0.929 . S
H490 C494 0.929 . S
H491 C500 0.929 . S
C492 H486 0.930 . S
C492 C493 1.367 . S
C492 C500 1.378 . S
C493 C492 1.367 . S
C493 C501 1.433 . S
C494 H490 0.929 . S
C494 C496 1.378 . S
C494 C498 1.350 . S
C495 C498 1.463 1_565 S
C495 C500 1.350 . S
C495 N503 1.427 . S
C496 H487 0.930 . S
C496 C494 1.378 . S
C496 C497 1.367 . S
C497 C496 1.367 . S
C497 C499 1.433 . S
C498 C494 1.350 . S
C498 C495 1.463 1_545 S
C498 N502 1.427 . S
C499 H489 0.929 . S
C499 C497 1.433 . S
C499 N502 1.384 . S
C500 H491 0.929 . S
C500 C492 1.378 . S
C500 C495 1.350 . S
C501 H488 0.929 . S
C501 C493 1.433 . S
C501 N503 1.384 . S
N502 C498 1.427 . S
N502 C499 1.384 . S
N503 C495 1.427 . S
N503 C501 1.384 . S
H504 C510 0.930 . S
H505 C514 0.930 . S
H506 C519 0.929 . S
H507 C517 0.929 . S
H508 C512 0.929 . S
H509 C518 0.929 . S
C510 H504 0.930 . S
C510 C511 1.367 . S
C510 C518 1.378 . S
C511 C510 1.367 . S
C511 C519 1.433 . S
C512 H508 0.929 . S
C512 C514 1.378 . S
C512 C516 1.350 . S
C513 C516 1.463 1_556 S
C513 C518 1.350 . S
C513 N521 1.427 . S
C514 H505 0.930 . S
C514 C512 1.378 . S
C514 C515 1.367 . S
C515 C514 1.367 . S
C515 C517 1.433 . S
C516 C512 1.350 . S
C516 C513 1.463 1_554 S
C516 N520 1.427 . S
C517 H507 0.929 . S
C517 C515 1.433 . S
C517 N520 1.384 . S
C518 H509 0.929 . S
C518 C510 1.378 . S
C518 C513 1.350 . S
C519 H506 0.929 . S
C519 C511 1.433 . S
C519 N521 1.384 . S
N520 C516 1.427 . S
N520 C517 1.384 . S
N521 C513 1.427 . S
N521 C519 1.384 . S
H522 C528 0.930 . S
H523 C532 0.930 . S
H524 C537 0.929 . S
H525 C535 0.929 . S
H526 C530 0.929 . S
H527 C536 0.929 . S
C528 H522 0.930 . S
C528 C529 1.367 . S
C528 C536 1.378 . S
C529 C528 1.367 . S
C529 C537 1.433 . S
C530 H526 0.929 . S
C530 C532 1.378 . S
C530 C534 1.350 . S
C531 C534 1.463 1_556 S
C531 C536 1.350 . S
C531 N539 1.427 . S
C532 H523 0.930 . S
C532 C530 1.378 . S
C532 C533 1.367 . S
C533 C532 1.367 . S
C533 C535 1.433 . S
C534 C530 1.350 . S
C534 C531 1.463 1_554 S
C534 N538 1.427 . S
C535 H525 0.929 . S
C535 C533 1.433 . S
C535 N538 1.384 . S
C536 H527 0.929 . S
C536 C528 1.378 . S
C536 C531 1.350 . S
C537 H524 0.929 . S
C537 C529 1.433 . S
C537 N539 1.384 . S
N538 C534 1.427 . S
N538 C535 1.384 . S
N539 C531 1.427 . S
N539 C537 1.384 . S
H540 C546 0.930 . S
H541 C550 0.930 . S
H542 C555 0.929 . S
H543 C553 0.929 . S
H544 C548 0.929 . S
H545 C554 0.929 . S
C546 H540 0.930 . S
C546 C547 1.367 . S
C546 C554 1.378 . S
C547 C546 1.367 . S
C547 C555 1.433 . S
C548 H544 0.929 . S
C548 C550 1.378 . S
C548 C552 1.350 . S
C549 C552 1.463 . S
C549 C554 1.350 . S
C549 N557 1.427 . S
C550 H541 0.930 . S
C550 C548 1.378 . S
C550 C551 1.367 . S
C551 C550 1.367 . S
C551 C553 1.433 . S
C552 C548 1.350 . S
C552 C549 1.463 . S
C552 N556 1.427 . S
C553 H543 0.929 . S
C553 C551 1.433 . S
C553 N556 1.384 . S
C554 H545 0.929 . S
C554 C546 1.378 . S
C554 C549 1.350 . S
C555 H542 0.929 . S
C555 C547 1.433 . S
C555 N557 1.384 . S
N556 C552 1.427 . S
N556 C553 1.384 . S
N557 C549 1.427 . S
N557 C555 1.384 . S
H558 C564 0.930 . S
H559 C568 0.930 . S
H560 C573 0.929 . S
H561 C571 0.929 . S
H562 C566 0.929 . S
H563 C572 0.929 . S
C564 H558 0.930 . S
C564 C565 1.367 . S
C564 C572 1.378 . S
C565 C564 1.367 . S
C565 C573 1.433 . S
C566 H562 0.929 . S
C566 C568 1.378 . S
C566 C570 1.350 . S
C567 C570 1.463 . S
C567 C572 1.350 . S
C567 N575 1.427 . S
C568 H559 0.930 . S
C568 C566 1.378 . S
C568 C569 1.367 . S
C569 C568 1.367 . S
C569 C571 1.433 . S
C570 C566 1.350 . S
C570 C567 1.463 . S
C570 N574 1.427 . S
C571 H561 0.929 . S
C571 C569 1.433 . S
C571 N574 1.384 . S
C572 H563 0.929 . S
C572 C564 1.378 . S
C572 C567 1.350 . S
C573 H560 0.929 . S
C573 C565 1.433 . S
C573 N575 1.384 . S
N574 C570 1.427 . S
N574 C571 1.384 . S
N575 C567 1.427 . S
N575 C573 1.384 . S
H576 C582 0.930 . S
H577 C586 0.930 . S
H578 C591 0.929 . S
H579 C589 0.929 . S
H580 C584 0.929 . S
H581 C590 0.929 . S
C582 H576 0.930 . S
C582 C583 1.367 . S
C582 C590 1.378 . S
C583 C582 1.367 . S
C583 C591 1.433 . S
C584 H580 0.929 . S
C584 C586 1.378 . S
C584 C588 1.350 . S
C585 C588 1.463 . S
C585 C590 1.350 . S
C585 N593 1.427 . S
C586 H577 0.930 . S
C586 C584 1.378 . S
C586 C587 1.367 . S
C587 C586 1.367 . S
C587 C589 1.433 . S
C588 C584 1.350 . S
C588 C585 1.463 . S
C588 N592 1.427 . S
C589 H579 0.929 . S
C589 C587 1.433 . S
C589 N592 1.384 . S
C590 H581 0.929 . S
C590 C582 1.378 . S
C590 C585 1.350 . S
C591 H578 0.929 . S
C591 C583 1.433 . S
C591 N593 1.384 . S
N592 C588 1.427 . S
N592 C589 1.384 . S
N593 C585 1.427 . S
N593 C591 1.384 . S
H594 C600 0.930 . S
H595 C604 0.930 . S
H596 C609 0.929 . S
H597 C607 0.929 . S
H598 C602 0.929 . S
H599 C608 0.929 . S
C600 H594 0.930 . S
C600 C601 1.367 . S
C600 C608 1.378 . S
C601 C600 1.367 . S
C601 C609 1.433 . S
C602 H598 0.929 . S
C602 C604 1.378 . S
C602 C606 1.350 . S
C603 C606 1.463 . S
C603 C608 1.350 . S
C603 N611 1.427 . S
C604 H595 0.930 . S
C604 C602 1.378 . S
C604 C605 1.367 . S
C605 C604 1.367 . S
C605 C607 1.433 . S
C606 C602 1.350 . S
C606 C603 1.463 . S
C606 N610 1.427 . S
C607 H597 0.929 . S
C607 C605 1.433 . S
C607 N610 1.384 . S
C608 H599 0.929 . S
C608 C600 1.378 . S
C608 C603 1.350 . S
C609 H596 0.929 . S
C609 C601 1.433 . S
C609 N611 1.384 . S
N610 C606 1.427 . S
N610 C607 1.384 . S
N611 C603 1.427 . S
N611 C609 1.384 . S
H612 C618 0.930 . S
H613 C622 0.930 . S
H614 C627 0.929 . S
H615 C625 0.929 . S
H616 C620 0.929 . S
H617 C626 0.929 . S
C618 H612 0.930 . S
C618 C619 1.367 . S
C618 C626 1.378 . S
C619 C618 1.367 . S
C619 C627 1.433 . S
C620 H616 0.929 . S
C620 C622 1.378 . S
C620 C624 1.350 . S
C621 C624 1.463 . S
C621 C626 1.350 . S
C621 N629 1.427 . S
C622 H613 0.930 . S
C622 C620 1.378 . S
C622 C623 1.367 . S
C623 C622 1.367 . S
C623 C625 1.433 . S
C624 C620 1.350 . S
C624 C621 1.463 . S
C624 N628 1.427 . S
C625 H615 0.929 . S
C625 C623 1.433 . S
C625 N628 1.384 . S
C626 H617 0.929 . S
C626 C618 1.378 . S
C626 C621 1.350 . S
C627 H614 0.929 . S
C627 C619 1.433 . S
C627 N629 1.384 . S
N628 C624 1.427 . S
N628 C625 1.384 . S
N629 C621 1.427 . S
N629 C627 1.384 . S
H630 C636 0.930 . S
H631 C640 0.930 . S
H632 C645 0.929 . S
H633 C643 0.929 . S
H634 C638 0.929 . S
H635 C644 0.929 . S
C636 H630 0.930 . S
C636 C637 1.367 . S
C636 C644 1.378 . S
C637 C636 1.367 . S
C637 C645 1.433 . S
C638 H634 0.929 . S
C638 C640 1.378 . S
C638 C642 1.350 . S
C639 C642 1.463 . S
C639 C644 1.350 . S
C639 N647 1.427 . S
C640 H631 0.930 . S
C640 C638 1.378 . S
C640 C641 1.367 . S
C641 C640 1.367 . S
C641 C643 1.433 . S
C642 C638 1.350 . S
C642 C639 1.463 . S
C642 N646 1.427 . S
C643 H633 0.929 . S
C643 C641 1.433 . S
C643 N646 1.384 . S
C644 H635 0.929 . S
C644 C636 1.378 . S
C644 C639 1.350 . S
C645 H632 0.929 . S
C645 C637 1.433 . S
C645 N647 1.384 . S
N646 C642 1.427 . S
N646 C643 1.384 . S
N647 C639 1.427 . S
N647 C645 1.384 . S
H648 C654 0.930 . S
H649 C658 0.930 . S
H650 C663 0.929 . S
H651 C661 0.929 . S
H652 C656 0.929 . S
H653 C662 0.929 . S
C654 H648 0.930 . S
C654 C655 1.367 . S
C654 C662 1.378 . S
C655 C654 1.367 . S
C655 C663 1.433 . S
C656 H652 0.929 . S
C656 C658 1.378 . S
C656 C660 1.350 . S
C657 C660 1.463 . S
C657 C662 1.350 . S
C657 N665 1.427 . S
C658 H649 0.930 . S
C658 C656 1.378 . S
C658 C659 1.367 . S
C659 C658 1.367 . S
C659 C661 1.433 . S
C660 C656 1.350 . S
C660 C657 1.463 . S
C660 N664 1.427 . S
C661 H651 0.929 . S
C661 C659 1.433 . S
C661 N664 1.384 . S
C662 H653 0.929 . S
C662 C654 1.378 . S
C662 C657 1.350 . S
C663 H650 0.929 . S
C663 C655 1.433 . S
C663 N665 1.384 . S
N664 C660 1.427 . S
N664 C661 1.384 . S
N665 C657 1.427 . S
N665 C663 1.384 . S
H666 C672 0.930 . S
H667 C676 0.930 . S
H668 C681 0.929 . S
H669 C679 0.929 . S
H670 C674 0.929 . S
H671 C680 0.929 . S
C672 H666 0.930 . S
C672 C673 1.367 . S
C672 C680 1.378 . S
C673 C672 1.367 . S
C673 C681 1.433 . S
C674 H670 0.929 . S
C674 C676 1.378 . S
C674 C678 1.350 . S
C675 C678 1.463 . S
C675 C680 1.350 . S
C675 N683 1.427 . S
C676 H667 0.930 . S
C676 C674 1.378 . S
C676 C677 1.367 . S
C677 C676 1.367 . S
C677 C679 1.433 . S
C678 C674 1.350 . S
C678 C675 1.463 . S
C678 N682 1.427 . S
C679 H669 0.929 . S
C679 C677 1.433 . S
C679 N682 1.384 . S
C680 H671 0.929 . S
C680 C672 1.378 . S
C680 C675 1.350 . S
C681 H668 0.929 . S
C681 C673 1.433 . S
C681 N683 1.384 . S
N682 C678 1.427 . S
N682 C679 1.384 . S
N683 C675 1.427 . S
N683 C681 1.384 . S
H684 C690 0.930 . S
H685 C694 0.930 . S
H686 C699 0.929 . S
H687 C697 0.929 . S
H688 C692 0.929 . S
H689 C698 0.929 . S
C690 H684 0.930 . S
C690 C691 1.367 . S
C690 C698 1.378 . S
C691 C690 1.367 . S
C691 C699 1.433 . S
C692 H688 0.929 . S
C692 C694 1.378 . S
C692 C696 1.350 . S
C693 C696 1.463 . S
C693 C698 1.350 . S
C693 N701 1.427 . S
C694 H685 0.930 . S
C694 C692 1.378 . S
C694 C695 1.367 . S
C695 C694 1.367 . S
C695 C697 1.433 . S
C696 C692 1.350 . S
C696 C693 1.463 . S
C696 N700 1.427 . S
C697 H687 0.929 . S
C697 C695 1.433 . S
C697 N700 1.384 . S
C698 H689 0.929 . S
C698 C690 1.378 . S
C698 C693 1.350 . S
C699 H686 0.929 . S
C699 C691 1.433 . S
C699 N701 1.384 . S
N700 C696 1.427 . S
N700 C697 1.384 . S
N701 C693 1.427 . S
N701 C699 1.384 . S
H702 C708 0.930 . S
H703 C712 0.930 . S
H704 C717 0.929 . S
H705 C715 0.929 . S
H706 C710 0.929 . S
H707 C716 0.929 . S
C708 H702 0.930 . S
C708 C709 1.367 . S
C708 C716 1.378 . S
C709 C708 1.367 . S
C709 C717 1.433 . S
C710 H706 0.929 . S
C710 C712 1.378 . S
C710 C714 1.350 . S
C711 C714 1.463 . S
C711 C716 1.350 . S
C711 N719 1.427 . S
C712 H703 0.930 . S
C712 C710 1.378 . S
C712 C713 1.367 . S
C713 C712 1.367 . S
C713 C715 1.433 . S
C714 C710 1.350 . S
C714 C711 1.463 . S
C714 N718 1.427 . S
C715 H705 0.929 . S
C715 C713 1.433 . S
C715 N718 1.384 . S
C716 H707 0.929 . S
C716 C708 1.378 . S
C716 C711 1.350 . S
C717 H704 0.929 . S
C717 C709 1.433 . S
C717 N719 1.384 . S
N718 C714 1.427 . S
N718 C715 1.384 . S
N719 C711 1.427 . S
N719 C717 1.384 . S
H720 C726 0.930 . S
H721 C730 0.930 . S
H722 C735 0.929 . S
H723 C733 0.929 . S
H724 C728 0.929 . S
H725 C734 0.929 . S
C726 H720 0.930 . S
C726 C727 1.367 . S
C726 C734 1.378 . S
C727 C726 1.367 . S
C727 C735 1.433 . S
C728 H724 0.929 . S
C728 C730 1.378 . S
C728 C732 1.350 . S
C729 C732 1.463 . S
C729 C734 1.350 . S
C729 N737 1.427 . S
C730 H721 0.930 . S
C730 C728 1.378 . S
C730 C731 1.367 . S
C731 C730 1.367 . S
C731 C733 1.433 . S
C732 C728 1.350 . S
C732 C729 1.463 . S
C732 N736 1.427 . S
C733 H723 0.929 . S
C733 C731 1.433 . S
C733 N736 1.384 . S
C734 H725 0.929 . S
C734 C726 1.378 . S
C734 C729 1.350 . S
C735 H722 0.929 . S
C735 C727 1.433 . S
C735 N737 1.384 . S
N736 C732 1.427 . S
N736 C733 1.384 . S
N737 C729 1.427 . S
N737 C735 1.384 . S
H738 C744 0.930 . S
H739 C748 0.930 . S
H740 C753 0.929 . S
H741 C751 0.929 . S
H742 C746 0.929 . S
H743 C752 0.929 . S
C744 H738 0.930 . S
C744 C745 1.367 . S
C744 C752 1.378 . S
C745 C744 1.367 . S
C745 C753 1.433 . S
C746 H742 0.929 . S
C746 C748 1.378 . S
C746 C750 1.350 . S
C747 C750 1.463 . S
C747 C752 1.350 . S
C747 N755 1.427 . S
C748 H739 0.930 . S
C748 C746 1.378 . S
C748 C749 1.367 . S
C749 C748 1.367 . S
C749 C751 1.433 . S
C750 C746 1.350 . S
C750 C747 1.463 . S
C750 N754 1.427 . S
C751 H741 0.929 . S
C751 C749 1.433 . S
C751 N754 1.384 . S
C752 H743 0.929 . S
C752 C744 1.378 . S
C752 C747 1.350 . S
C753 H740 0.929 . S
C753 C745 1.433 . S
C753 N755 1.384 . S
N754 C750 1.427 . S
N754 C751 1.384 . S
N755 C747 1.427 . S
N755 C753 1.384 . S
H756 C762 0.930 . S
H757 C766 0.930 . S
H758 C771 0.929 . S
H759 C769 0.929 . S
H760 C764 0.929 . S
H761 C770 0.929 . S
C762 H756 0.930 . S
C762 C763 1.367 . S
C762 C770 1.378 1_455 S
C763 C762 1.367 . S
C763 C771 1.433 . S
C764 H760 0.929 . S
C764 C766 1.378 1_455 S
C764 C768 1.350 1_455 S
C765 C768 1.463 1_445 S
C765 C770 1.350 1_455 S
C765 N773 1.427 . S
C766 H757 0.930 . S
C766 C764 1.378 1_655 S
C766 C767 1.367 . S
C767 C766 1.367 . S
C767 C769 1.433 . S
C768 C764 1.350 1_655 S
C768 C765 1.463 1_665 S
C768 N772 1.427 . S
C769 H759 0.929 . S
C769 C767 1.433 . S
C769 N772 1.384 . S
C770 H761 0.929 . S
C770 C762 1.378 1_655 S
C770 C765 1.350 1_655 S
C771 H758 0.929 . S
C771 C763 1.433 . S
C771 N773 1.384 . S
N772 C768 1.427 . S
N772 C769 1.384 . S
N773 C765 1.427 . S
N773 C771 1.384 . S
H774 C780 0.930 1_455 S
H775 C784 0.930 1_655 S
H776 C789 0.929 . S
H777 C787 0.929 . S
H778 C782 0.929 . S
H779 C788 0.929 . S
C780 H774 0.930 1_655 S
C780 C781 1.367 . S
C780 C788 1.378 1_655 S
C781 C780 1.367 . S
C781 C789 1.433 . S
C782 H778 0.929 . S
C782 C784 1.378 1_655 S
C782 C786 1.350 1_655 S
C783 C786 1.463 1_645 S
C783 C788 1.350 1_655 S
C783 N791 1.427 . S
C784 H775 0.930 1_455 S
C784 C782 1.378 1_455 S
C784 C785 1.367 . S
C785 C784 1.367 . S
C785 C787 1.433 . S
C786 C782 1.350 1_455 S
C786 C783 1.463 1_465 S
C786 N790 1.427 . S
C787 H777 0.929 . S
C787 C785 1.433 . S
C787 N790 1.384 . S
C788 H779 0.929 . S
C788 C780 1.378 1_455 S
C788 C783 1.350 1_455 S
C789 H776 0.929 . S
C789 C781 1.433 . S
C789 N791 1.384 . S
N790 C786 1.427 . S
N790 C787 1.384 . S
N791 C783 1.427 . S
N791 C789 1.384 . S
H792 C798 0.930 . S
H793 C802 0.930 . S
H794 C807 0.929 . S
H795 C805 0.929 . S
H796 C800 0.929 . S
H797 C806 0.929 . S
C798 H792 0.930 . S
C798 C799 1.367 . S
C798 C806 1.378 . S
C799 C798 1.367 . S
C799 C807 1.433 . S
C800 H796 0.929 . S
C800 C802 1.378 . S
C800 C804 1.350 . S
C801 C804 1.463 1_566 S
C801 C806 1.350 . S
C801 N809 1.427 1_565 S
C802 H793 0.930 . S
C802 C800 1.378 . S
C802 C803 1.367 . S
C803 C802 1.367 . S
C803 C805 1.433 . S
C804 C800 1.350 . S
C804 C801 1.463 1_544 S
C804 N808 1.427 1_545 S
C805 H795 0.929 . S
C805 C803 1.433 . S
C805 N808 1.384 1_545 S
C806 H797 0.929 . S
C806 C798 1.378 . S
C806 C801 1.350 . S
C807 H794 0.929 . S
C807 C799 1.433 . S
C807 N809 1.384 1_565 S
N808 C804 1.427 1_565 S
N808 C805 1.384 1_565 S
N809 C801 1.427 1_545 S
N809 C807 1.384 1_545 S
H810 C816 0.930 . S
H811 C820 0.930 . S
H812 C825 0.926 1_545 S
H813 C823 0.926 1_565 S
H814 C818 0.929 . S
H815 C824 0.929 . S
C816 H810 0.930 . S
C816 C817 1.367 . S
C816 C824 1.378 . S
C817 C816 1.367 . S
C817 C825 1.433 . S
C818 H814 0.929 . S
C818 C820 1.378 . S
C818 C822 1.350 . S
C819 C822 1.463 1_564 S
C819 C824 1.350 . S
C819 N827 1.427 1_565 S
C820 H811 0.930 . S
C820 C818 1.378 . S
C820 C821 1.367 . S
C821 C820 1.367 . S
C821 C823 1.433 . S
C822 C818 1.350 . S
C822 C819 1.463 1_546 S
C822 N826 1.427 1_545 S
C823 H813 0.926 1_545 S
C823 C821 1.433 . S
C823 N826 1.384 1_545 S
C824 H815 0.929 . S
C824 C816 1.378 . S
C824 C819 1.350 . S
C825 H812 0.926 1_565 S
C825 C817 1.433 . S
C825 N827 1.384 1_565 S
N826 C822 1.427 1_565 S
N826 C823 1.384 1_565 S
N827 C819 1.427 1_545 S
N827 C825 1.384 1_545 S
H828 C834 0.930 . S
H829 C838 0.930 . S
H830 C843 0.929 . S
H831 C841 0.929 . S
H832 C836 0.929 . S
H833 C842 0.929 . S
C834 H828 0.930 . S
C834 C835 1.367 . S
C834 C842 1.378 . S
C835 C834 1.367 . S
C835 C843 1.433 . S
C836 H832 0.929 . S
C836 C838 1.378 . S
C836 C840 1.350 . S
C837 C840 1.463 1_656 S
C837 C842 1.350 . S
C837 N845 1.427 . S
C838 H829 0.930 . S
C838 C836 1.378 . S
C838 C839 1.367 . S
C839 C838 1.367 . S
C839 C841 1.433 . S
C840 C836 1.350 . S
C840 C837 1.463 1_454 S
C840 N844 1.427 . S
C841 H831 0.929 . S
C841 C839 1.433 . S
C841 N844 1.384 . S
C842 H833 0.929 . S
C842 C834 1.378 . S
C842 C837 1.350 . S
C843 H830 0.929 . S
C843 C835 1.433 . S
C843 N845 1.384 . S
N844 C840 1.427 . S
N844 C841 1.384 . S
N845 C837 1.427 . S
N845 C843 1.384 . S
H846 C852 0.930 . S
H847 C856 0.930 . S
H848 C861 0.929 . S
H849 C859 0.929 . S
H850 C854 0.929 . S
H851 C860 0.929 . S
C852 H846 0.930 . S
C852 C853 1.367 . S
C852 C860 1.378 1_556 S
C853 C852 1.367 . S
C853 C861 1.433 . S
C854 H850 0.929 . S
C854 C856 1.378 1_556 S
C854 C858 1.350 1_556 S
C855 C858 1.463 1_456 S
C855 C860 1.350 1_556 S
C855 N863 1.427 . S
C856 H847 0.930 . S
C856 C854 1.378 1_554 S
C856 C857 1.367 . S
C857 C856 1.367 . S
C857 C859 1.433 . S
C858 C854 1.350 1_554 S
C858 C855 1.463 1_654 S
C858 N862 1.427 . S
C859 H849 0.929 . S
C859 C857 1.433 . S
C859 N862 1.384 . S
C860 H851 0.929 . S
C860 C852 1.378 1_554 S
C860 C855 1.350 1_554 S
C861 H848 0.929 . S
C861 C853 1.433 . S
C861 N863 1.384 . S
N862 C858 1.427 . S
N862 C859 1.384 . S
N863 C855 1.427 . S
N863 C861 1.384 . S
C439 C112 0.965 . S
C443 C4 0.973 . S
C457 C76 0.958 . S
C461 C40 0.951 . S
C475 C184 0.950 . S
C479 C148 0.957 . S
C493 C220 0.974 . S
C497 C256 0.966 . S
C511 C328 0.955 . S
C515 C292 0.966 . S
C529 C364 0.960 . S
C533 C400 0.970 . S
C547 C3 0.905 . S
C551 C254 0.900 . S
C565 C218 0.874 . S
C569 C39 0.903 . S
C583 C182 0.889 . S
C587 C75 0.900 . S
C601 C146 0.897 . S
C605 C111 0.903 . S
C619 C147 0.912 . S
C623 C398 0.881 . S
C637 C290 0.877 . S
C641 C183 0.911 . S
C655 C362 0.879 . S
C659 C219 0.900 . S
C673 C255 0.901 . S
C677 C326 0.892 . S
C691 C74 0.901 . S
C695 C291 0.907 . S
C709 C2 0.882 . S
C713 C327 0.912 . S
C727 C363 0.901 . S
C731 C38 0.877 . S
C745 C110 0.882 . S
C749 C399 0.913 . S
C763 C14 1.134 . S
C767 C50 1.128 . S
C781 C122 1.127 . S
C785 C86 1.132 . S
C799 C230 1.137 . S
C803 C158 1.142 . S
C817 C194 1.138 . S
C821 C266 1.143 . S
C835 C374 1.141 . S
C839 C302 1.134 . S
C853 C338 1.128 . S
C857 C410 1.134 . S
