# Generated by pormake.
# Topology vbw, (6)-cn, num edge types: 1
# Building blocks:
#     Node 0, Type 0, BuildingBlock: IZENUY_clean_sbu_0, # of connection points: 6
#     Node 1, Type 0, BuildingBlock: IZENUY_clean_sbu_0, # of connection points: 6
#     Node 2, Type 0, BuildingBlock: IZENUY_clean_sbu_0, # of connection points: 6
#     Node 3, Type 0, BuildingBlock: IZENUY_clean_sbu_0, # of connection points: 6
#     Node 4, Type 0, BuildingBlock: IZENUY_clean_sbu_0, # of connection points: 6
#     Node 5, Type 0, BuildingBlock: IZENUY_clean_sbu_0, # of connection points: 6
#     Node 6, Type 0, BuildingBlock: IZENUY_clean_sbu_0, # of connection points: 6
#     Node 7, Type 0, BuildingBlock: IZENUY_clean_sbu_0, # of connection points: 6
#     Node 8, Type 0, BuildingBlock: IZENUY_clean_sbu_0, # of connection points: 6
#     Node 9, Type 0, BuildingBlock: IZENUY_clean_sbu_0, # of connection points: 6
#     Node 10, Type 0, BuildingBlock: IZENUY_clean_sbu_0, # of connection points: 6
#     Node 11, Type 0, BuildingBlock: IZENUY_clean_sbu_0, # of connection points: 6
#     Node 12, Type 0, BuildingBlock: IZENUY_clean_sbu_0, # of connection points: 6
#     Node 13, Type 0, BuildingBlock: IZENUY_clean_sbu_0, # of connection points: 6
#     Node 14, Type 0, BuildingBlock: IZENUY_clean_sbu_0, # of connection points: 6
#     Node 15, Type 0, BuildingBlock: IZENUY_clean_sbu_0, # of connection points: 6
#     Edge 16, Type (0, 0), BuildingBlock: XUDNAN_clean_linker_2, # of connection points: 2
#     Edge 17, Type (0, 0), BuildingBlock: XUDNAN_clean_linker_2, # of connection points: 2
#     Edge 18, Type (0, 0), BuildingBlock: XUDNAN_clean_linker_2, # of connection points: 2
#     Edge 19, Type (0, 0), BuildingBlock: XUDNAN_clean_linker_2, # of connection points: 2
#     Edge 20, Type (0, 0), BuildingBlock: XUDNAN_clean_linker_2, # of connection points: 2
#     Edge 21, Type (0, 0), BuildingBlock: XUDNAN_clean_linker_2, # of connection points: 2
#     Edge 22, Type (0, 0), BuildingBlock: XUDNAN_clean_linker_2, # of connection points: 2
#     Edge 23, Type (0, 0), BuildingBlock: XUDNAN_clean_linker_2, # of connection points: 2
#     Edge 24, Type (0, 0), BuildingBlock: XUDNAN_clean_linker_2, # of connection points: 2
#     Edge 25, Type (0, 0), BuildingBlock: XUDNAN_clean_linker_2, # of connection points: 2
#     Edge 26, Type (0, 0), BuildingBlock: XUDNAN_clean_linker_2, # of connection points: 2
#     Edge 27, Type (0, 0), BuildingBlock: XUDNAN_clean_linker_2, # of connection points: 2
#     Edge 28, Type (0, 0), BuildingBlock: XUDNAN_clean_linker_2, # of connection points: 2
#     Edge 29, Type (0, 0), BuildingBlock: XUDNAN_clean_linker_2, # of connection points: 2
#     Edge 30, Type (0, 0), BuildingBlock: XUDNAN_clean_linker_2, # of connection points: 2
#     Edge 31, Type (0, 0), BuildingBlock: XUDNAN_clean_linker_2, # of connection points: 2
#     Edge 32, Type (0, 0), BuildingBlock: XUDNAN_clean_linker_2, # of connection points: 2
#     Edge 33, Type (0, 0), BuildingBlock: XUDNAN_clean_linker_2, # of connection points: 2
#     Edge 34, Type (0, 0), BuildingBlock: XUDNAN_clean_linker_2, # of connection points: 2
#     Edge 35, Type (0, 0), BuildingBlock: XUDNAN_clean_linker_2, # of connection points: 2
#     Edge 36, Type (0, 0), BuildingBlock: XUDNAN_clean_linker_2, # of connection points: 2
#     Edge 37, Type (0, 0), BuildingBlock: XUDNAN_clean_linker_2, # of connection points: 2
#     Edge 38, Type (0, 0), BuildingBlock: XUDNAN_clean_linker_2, # of connection points: 2
#     Edge 39, Type (0, 0), BuildingBlock: XUDNAN_clean_linker_2, # of connection points: 2
#     Edge 40, Type (0, 0), BuildingBlock: XUDNAN_clean_linker_2, # of connection points: 2
#     Edge 41, Type (0, 0), BuildingBlock: XUDNAN_clean_linker_2, # of connection points: 2
#     Edge 42, Type (0, 0), BuildingBlock: XUDNAN_clean_linker_2, # of connection points: 2
#     Edge 43, Type (0, 0), BuildingBlock: XUDNAN_clean_linker_2, # of connection points: 2
#     Edge 44, Type (0, 0), BuildingBlock: XUDNAN_clean_linker_2, # of connection points: 2
#     Edge 45, Type (0, 0), BuildingBlock: XUDNAN_clean_linker_2, # of connection points: 2
#     Edge 46, Type (0, 0), BuildingBlock: XUDNAN_clean_linker_2, # of connection points: 2
#     Edge 47, Type (0, 0), BuildingBlock: XUDNAN_clean_linker_2, # of connection points: 2
#     Edge 48, Type (0, 0), BuildingBlock: XUDNAN_clean_linker_2, # of connection points: 2
#     Edge 49, Type (0, 0), BuildingBlock: XUDNAN_clean_linker_2, # of connection points: 2
#     Edge 50, Type (0, 0), BuildingBlock: XUDNAN_clean_linker_2, # of connection points: 2
#     Edge 51, Type (0, 0), BuildingBlock: XUDNAN_clean_linker_2, # of connection points: 2
#     Edge 52, Type (0, 0), BuildingBlock: XUDNAN_clean_linker_2, # of connection points: 2
#     Edge 53, Type (0, 0), BuildingBlock: XUDNAN_clean_linker_2, # of connection points: 2
#     Edge 54, Type (0, 0), BuildingBlock: XUDNAN_clean_linker_2, # of connection points: 2
#     Edge 55, Type (0, 0), BuildingBlock: XUDNAN_clean_linker_2, # of connection points: 2
#     Edge 56, Type (0, 0), BuildingBlock: XUDNAN_clean_linker_2, # of connection points: 2
#     Edge 57, Type (0, 0), BuildingBlock: XUDNAN_clean_linker_2, # of connection points: 2
#     Edge 58, Type (0, 0), BuildingBlock: XUDNAN_clean_linker_2, # of connection points: 2
#     Edge 59, Type (0, 0), BuildingBlock: XUDNAN_clean_linker_2, # of connection points: 2
#     Edge 60, Type (0, 0), BuildingBlock: XUDNAN_clean_linker_2, # of connection points: 2
#     Edge 61, Type (0, 0), BuildingBlock: XUDNAN_clean_linker_2, # of connection points: 2
#     Edge 62, Type (0, 0), BuildingBlock: XUDNAN_clean_linker_2, # of connection points: 2
#     Edge 63, Type (0, 0), BuildingBlock: XUDNAN_clean_linker_2, # of connection points: 2
# Relax obj value: 0.219
# Max RMSD: 0.233
# Mean RMSD: 0.232
data_MOF--net-vbw--node1-IZENUY_clean_sbu_0--edge1-XUDNAN_clean_linker_2
_symmetry_space_group_name_H-M    P1
_symmetry_Int_Tables_number       1
_symmetry_cell_setting            triclinic
loop_
_symmetry_equiv_pos_as_xyz
'x, y, z'
_cell_length_a     55.728904
_cell_length_b     45.35586
_cell_length_c     27.237011
_cell_angle_alpha  89.929308
_cell_angle_beta   90.004495
_cell_angle_gamma 89.927937
loop_
_atom_site_label
_atom_site_type_symbol
_atom_site_fract_x
_atom_site_fract_y
_atom_site_fract_z
_atom_type_partial_charge
Fe0 Fe 0.12543 0.22029 0.09829 0.0
Fe1 Fe 0.13119 0.16314 0.15769 0.0
O2 O 0.13953 0.18581 0.1075 0.0
Fe3 Fe 0.16196 0.17411 0.06593 0.0
O4 O 0.18059 0.20505 0.0816 0.0
O5 O 0.1522 0.23799 0.0713 0.0
O6 O 0.13579 0.23331 0.15658 0.0
C7 C 0.13207 0.22147 0.19765 0.0
C8 C 0.12834 0.20423 1.00337 0.0
O9 O 0.12533 0.19464 0.20047 0.0
C10 C 0.13633 0.12331 0.07728 0.0
O11 O 0.09609 0.2091 0.12351 0.0
O12 O 0.10054 0.16175 0.13701 0.0
O13 O 0.14918 0.19383 1.01168 0.0
O14 O 0.1144 0.20918 0.03878 0.0
C15 C 0.17972 0.15478 0.15853 0.0
O16 O 0.13564 0.12792 0.12344 0.0
O17 O 0.14427 0.14266 0.0483 0.0
C18 C 0.08725 0.18356 0.12841 0.0
O19 O 0.16132 0.16276 0.18173 0.0
O20 O 0.1794 0.15279 0.112 0.0
C21 C 0.17428 0.23123 0.07351 0.0
Fe22 Fe 0.36891 0.88501 0.6645 0.0
Fe23 Fe 0.3356 0.86817 0.57973 0.0
O24 O 0.35838 0.85851 0.622 0.0
Fe25 Fe 0.37054 0.82246 0.62219 0.0
O26 O 0.36165 0.81638 0.68538 0.0
O27 O 0.37649 0.85785 0.71316 0.0
O28 O 0.33961 0.88813 0.69219 0.0
C29 C 0.32064 0.89436 0.66919 0.0
C30 C 0.41105 0.85983 0.63585 0.0
O31 O 0.3201 0.89376 0.62247 0.0
C32 C 0.36613 0.8297 0.52356 0.0
O33 O 0.36347 0.91726 0.6239 0.0
O34 O 0.35403 0.89709 0.55321 0.0
O35 O 0.40122 0.83459 0.63931 0.0
O36 O 0.39867 0.88306 0.63893 0.0
C37 C 0.32077 0.81359 0.60801 0.0
O38 O 0.3463 0.84317 0.52975 0.0
O39 O 0.38009 0.82587 0.55929 0.0
C40 C 0.36198 0.91871 0.5774 0.0
O41 O 0.31602 0.84052 0.60417 0.0
O42 O 0.34213 0.80416 0.60449 0.0
C43 C 0.36863 0.83196 0.72073 0.0
Fe44 Fe 0.13108 0.82072 0.94679 0.0
Fe45 Fe 0.12827 0.87508 0.87865 0.0
O46 O 0.1402 0.85697 0.93097 0.0
Fe47 Fe 0.16187 0.87545 0.96692 0.0
O48 O 0.18384 0.8481 0.95208 0.0
O49 O 0.1614 0.80916 0.96774 0.0
O50 O 0.13945 0.80657 0.88749 0.0
C51 C 0.13219 0.81537 0.84635 0.0
C52 C 0.13637 0.84198 0.03922 0.0
O53 O 0.12356 0.84114 0.8416 0.0
C54 C 0.1314 0.92076 0.9512 0.0
O55 O 0.09933 0.82674 0.92845 0.0
O56 O 0.09853 0.87326 0.90405 0.0
O57 O 0.15439 0.85676 0.0252 0.0
O58 O 0.12214 0.83128 1.00819 0.0
C59 C 0.17532 0.89077 0.8705 0.0
O60 O 0.13026 0.91256 0.90642 0.0
O61 O 0.14074 0.9041 0.983 0.0
C62 C 0.08802 0.85068 0.92041 0.0
O63 O 0.15788 0.87782 0.85034 0.0
O64 O 0.17428 0.89723 0.91571 0.0
C65 C 0.18177 0.82087 0.95965 0.0
Fe66 Fe 0.37336 0.16262 0.36319 0.0
Fe67 Fe 0.33946 0.16543 0.45147 0.0
O68 O 0.35983 0.18309 0.41113 0.0
Fe69 Fe 0.36635 0.22103 0.41717 0.0
O70 O 0.3564 0.2293 0.35478 0.0
O71 O 0.37757 0.19414 0.32127 0.0
O72 O 0.34419 0.15694 0.33484 0.0
C73 C 0.32636 0.14581 0.35677 0.0
C74 C 0.41145 0.19362 0.39844 0.0
O75 O 0.32716 0.14116 0.40291 0.0
C76 C 0.36499 0.20547 0.51444 0.0
O77 O 0.37198 0.12676 0.39544 0.0
O78 O 0.36165 0.13821 0.47056 0.0
O79 O 0.39797 0.21634 0.39848 0.0
O80 O 0.40293 0.16825 0.38972 0.0
C81 C 0.31636 0.21787 0.43638 0.0
O82 O 0.34764 0.18783 0.5066 0.0
O83 O 0.37677 0.21606 0.47919 0.0
C84 C 0.37066 0.12008 0.44065 0.0
O85 O 0.31587 0.19026 0.43489 0.0
O86 O 0.33604 0.23178 0.43818 0.0
C87 C 0.36639 0.21836 0.31755 0.0
Fe88 Fe 0.87234 0.87817 0.88264 0.0
Fe89 Fe 0.86928 0.82019 0.94057 0.0
O90 O 0.85938 0.85691 0.93032 0.0
Fe91 Fe 0.83618 0.87277 0.96619 0.0
O92 O 0.82378 0.89497 0.91508 0.0
O93 O 0.84372 0.87966 0.8503 0.0
O94 O 0.88065 0.84682 0.8431 0.0
C95 C 0.87201 0.82113 0.84036 0.0
C96 C 0.86491 0.92071 0.9579 0.0
O97 O 0.86281 0.80936 0.8776 0.0
C98 C 0.86149 0.83679 0.03609 0.0
O99 O 0.90107 0.877 0.913 0.0
O100 O 0.90123 0.8289 0.92708 0.0
O101 O 0.85553 0.90243 0.98696 0.0
O102 O 0.86724 0.91419 0.91281 0.0
C103 C 0.81848 0.81733 0.95182 0.0
O104 O 0.87612 0.82687 1.00484 0.0
O105 O 0.84387 0.85268 0.02295 0.0
C106 C 0.912 0.85369 0.9254 0.0
O107 O 0.83927 0.80618 0.95603 0.0
O108 O 0.8153 0.84469 0.94833 0.0
C109 C 0.8247 0.8897 0.86928 0.0
Fe110 Fe 0.65895 0.15421 0.46811 0.0
Fe111 Fe 0.62625 0.15732 0.37803 0.0
O112 O 0.63941 0.17462 0.42991 0.0
Fe113 Fe 0.63376 0.21216 0.44254 0.0
O114 O 0.66423 0.21994 0.46576 0.0
O115 O 0.6835 0.1782 0.45401 0.0
O116 O 0.67027 0.13063 0.41794 0.0
C117 C 0.6726 0.13773 0.37308 0.0
C118 C 0.63525 0.19272 0.53629 0.0
O119 O 0.65573 0.15098 0.35139 0.0
C120 C 0.58827 0.18878 0.41416 0.0
O121 O 0.63528 0.12869 0.48389 0.0
O122 O 0.62531 0.11988 0.40715 0.0
O123 O 0.62257 0.20427 0.50329 0.0
O124 O 0.65195 0.17489 0.52504 0.0
C125 C 0.63611 0.21548 0.34289 0.0
O126 O 0.59621 0.16367 0.40188 0.0
O127 O 0.60242 0.21036 0.42131 0.0
C128 C 0.62534 0.11248 0.45239 0.0
O129 O 0.62473 0.19128 0.3395 0.0
O130 O 0.64473 0.22337 0.38333 0.0
C131 C 0.68361 0.20563 0.46003 0.0
Fe132 Fe 0.86863 0.16423 0.16695 0.0
Fe133 Fe 0.87079 0.21947 0.10076 0.0
O134 O 0.85781 0.18495 0.11624 0.0
Fe135 Fe 0.83362 0.17131 0.08116 0.0
O136 O 0.8189 0.15144 0.13222 0.0
O137 O 0.83968 0.1645 0.19699 0.0
O138 O 0.87629 0.19711 0.20509 0.0
C139 C 0.8699 0.22399 0.20098 0.0
C140 C 0.8604 0.12142 0.09219 0.0
O141 O 0.86354 0.2342 0.16005 0.0
C142 C 0.86287 0.20006 1.00847 0.0
O143 O 0.89814 0.16241 0.14053 0.0
O144 O 0.9015 0.20915 0.12004 0.0
O145 O 0.85085 0.13953 0.06301 0.0
O146 O 0.86308 0.1277 0.13747 0.0
C147 C 0.82073 0.22843 0.08486 0.0
O148 O 0.87863 0.20759 0.03921 0.0
O149 O 0.84324 0.18886 0.02305 0.0
C150 C 0.91075 0.1839 0.12693 0.0
O151 O 0.84247 0.23575 0.07845 0.0
O152 O 0.81543 0.2026 0.09771 0.0
C153 C 0.82046 0.15534 0.17818 0.0
Fe154 Fe 0.62678 0.81221 0.61358 0.0
Fe155 Fe 0.66107 0.85961 0.57318 0.0
O156 O 0.6394 0.84816 0.61734 0.0
Fe157 Fe 0.63066 0.87175 0.66613 0.0
O158 O 0.63942 0.84471 0.71351 0.0
O159 O 0.62091 0.8078 0.67903 0.0
O160 O 0.6562 0.7956 0.62349 0.0
C161 C 0.67426 0.80157 0.59723 0.0
C162 C 0.58727 0.84609 0.63233 0.0
O163 O 0.6743 0.82302 0.56754 0.0
C164 C 0.63318 0.91173 0.58879 0.0
O165 O 0.62971 0.80888 0.54713 0.0
O166 O 0.64085 0.85262 0.52116 0.0
O167 O 0.59937 0.85915 0.6653 0.0
O168 O 0.5969 0.82744 0.60388 0.0
C169 C 0.68087 0.8812 0.65982 0.0
O170 O 0.65143 0.89854 0.5717 0.0
O171 O 0.62128 0.90072 0.62384 0.0
C172 C 0.6314 0.8277 0.51318 0.0
O173 O 0.68353 0.86662 0.62073 0.0
O174 O 0.66021 0.88863 0.6745 0.0
C175 C 0.63104 0.81889 0.71591 0.0
Fe176 Fe 0.63081 0.71335 0.11148 0.0
Fe177 Fe 0.62812 0.65412 0.16557 0.0
O178 O 0.64113 0.6767 0.12008 0.0
Fe179 Fe 0.6648 0.66305 0.08404 0.0
O180 O 0.68385 0.69156 0.1074 0.0
O181 O 0.66021 0.72828 0.09022 0.0
O182 O 0.63893 0.72338 0.17398 0.0
C183 C 0.62984 0.71092 0.21103 0.0
C184 C 0.63687 0.69772 1.0163 0.0
O185 O 0.62067 0.68529 0.20715 0.0
C186 C 0.63637 0.61427 0.08649 0.0
O187 O 0.59935 0.7047 0.12881 0.0
O188 O 0.59962 0.6563 0.13494 0.0
O189 O 0.65633 0.68465 0.02794 0.0
O190 O 0.62216 0.70544 0.04899 0.0
C191 C 0.67555 0.64225 0.17972 0.0
O192 O 0.63319 0.61887 0.13209 0.0
O193 O 0.64654 0.63333 0.05998 0.0
C194 C 0.58864 0.68001 0.12607 0.0
O195 O 0.65611 0.65098 0.19826 0.0
O196 O 0.67784 0.63986 0.13343 0.0
C197 C 0.68124 0.71773 0.09405 0.0
Fe198 Fe 0.86785 0.37637 0.66478 0.0
Fe199 Fe 0.83779 0.36749 0.57195 0.0
O200 O 0.85997 0.35458 0.61309 0.0
Fe201 Fe 0.8738 0.3199 0.60277 0.0
O202 O 0.86373 0.3064 0.6612 0.0
O203 O 0.87378 0.34443 0.7065 0.0
O204 O 0.83733 0.37574 0.68799 0.0
C205 C 0.81927 0.38438 0.66422 0.0
C206 C 0.9119 0.3567 0.63384 0.0
O207 O 0.82074 0.38849 0.6183 0.0
C208 C 0.87058 0.33779 0.50805 0.0
O209 O 0.86351 0.41237 0.63207 0.0
O210 O 0.85601 0.3988 0.55601 0.0
O211 O 0.90327 0.33115 0.62716 0.0
O212 O 0.89861 0.37819 0.64484 0.0
C213 C 0.82482 0.31011 0.57884 0.0
O214 O 0.85024 0.34888 0.51753 0.0
O215 O 0.88453 0.33021 0.54225 0.0
C216 C 0.86348 0.41776 0.58605 0.0
O217 O 0.81862 0.33653 0.58562 0.0
O218 O 0.84679 0.3029 0.57673 0.0
C219 C 0.86716 0.31768 0.70269 0.0
Fe220 Fe 0.62844 0.31189 0.93608 0.0
Fe221 Fe 0.62603 0.37037 0.87922 0.0
O222 O 0.63852 0.34869 0.92746 0.0
Fe223 Fe 0.66138 0.36268 0.96639 0.0
O224 O 0.67695 0.32743 0.97104 0.0
O225 O 0.65787 0.29725 0.92097 0.0
O226 O 0.61948 0.30542 0.87288 0.0
C227 C 0.62837 0.31583 0.83428 0.0
C228 C 0.63734 0.3295 0.03404 0.0
O229 O 0.63402 0.34272 0.83244 0.0
C230 C 0.63078 0.41265 0.95254 0.0
O231 O 0.59883 0.32497 0.95138 0.0
O232 O 0.59545 0.35535 0.88811 0.0
O233 O 0.64401 0.35526 0.0224 0.0
O234 O 0.63507 0.31011 1.00135 0.0
C235 C 0.67583 0.38315 0.87467 0.0
O236 O 0.61757 0.40026 0.92083 0.0
O237 O 0.6499 0.40054 0.96756 0.0
C238 C 0.58613 0.34095 0.92353 0.0
O239 O 0.65429 0.38876 0.8631 0.0
O240 O 0.68089 0.37038 0.91453 0.0
C241 C 0.6767 0.30525 0.94295 0.0
Fe242 Fe 0.8725 0.71987 0.4469 0.0
Fe243 Fe 0.86751 0.66473 0.38241 0.0
O244 O 0.85978 0.6848 0.43573 0.0
Fe245 Fe 0.83896 0.66981 0.47792 0.0
O246 O 0.81864 0.69979 0.46655 0.0
O247 O 0.84528 0.73491 0.47705 0.0
O248 O 0.86083 0.73445 0.38996 0.0
C249 C 0.86473 0.72418 0.34775 0.0
C250 C 0.87195 0.70041 0.54065 0.0
O251 O 0.8719 0.69772 0.34257 0.0
C252 C 0.86504 0.6207 0.45823 0.0
O253 O 0.90195 0.71086 0.41923 0.0
O254 O 0.89855 0.66393 0.40021 0.0
O255 O 0.85166 0.68853 0.53292 0.0
O256 O 0.88492 0.70772 0.50482 0.0
C257 C 0.81943 0.65385 0.38572 0.0
O258 O 0.86477 0.62814 0.41299 0.0
O259 O 0.85823 0.63861 0.49085 0.0
C260 C 0.91138 0.68591 0.41046 0.0
O261 O 0.83663 0.66433 0.36133 0.0
O262 O 0.82183 0.64898 0.43136 0.0
C263 C 0.82362 0.72628 0.47536 0.0
Fe264 Fe 0.37281 0.38021 0.86348 0.0
Fe265 Fe 0.36515 0.32142 0.91634 0.0
O266 O 0.35925 0.3596 0.9113 0.0
Fe267 Fe 0.33948 0.3775 0.95267 0.0
O268 O 0.32765 0.40281 0.9054 0.0
O269 O 0.3435 0.38699 0.83627 0.0
O270 O 0.37638 0.34901 0.82064 0.0
C271 C 0.36523 0.32481 0.81671 0.0
C272 C 0.37148 0.42188 0.94228 0.0
O273 O 0.35508 0.3139 0.85378 0.0
C274 C 0.36438 0.3362 1.01402 0.0
O275 O 0.40237 0.37353 0.88914 0.0
O276 O 0.39674 0.32548 0.89782 0.0
O277 O 0.36239 0.40365 0.97197 0.0
O278 O 0.37226 0.41573 0.8968 0.0
C279 C 0.31529 0.32604 0.93569 0.0
O280 O 0.37574 0.32537 0.97845 0.0
O281 O 0.3473 0.35429 1.00685 0.0
C282 C 0.41038 0.34797 0.89845 0.0
O283 O 0.3347 0.31147 0.93698 0.0
O284 O 0.31523 0.35369 0.93588 0.0
C285 C 0.32616 0.39849 0.85937 0.0
Fe286 Fe 0.16212 0.67053 0.47131 0.0
Fe287 Fe 0.13169 0.66903 0.37835 0.0
O288 O 0.14038 0.68719 0.43303 0.0
Fe289 Fe 0.12786 0.72192 0.44883 0.0
O290 O 0.15578 0.73594 0.47692 0.0
O291 O 0.1823 0.70105 0.46216 0.0
O292 O 0.17823 0.65174 0.42112 0.0
C293 C 0.17966 0.6583 0.37595 0.0
C294 C 0.13109 0.69916 0.54064 0.0
O295 O 0.16206 0.66992 0.3543 0.0
C296 C 0.08837 0.68845 0.41304 0.0
O297 O 0.14307 0.63891 0.48234 0.0
O298 O 0.13553 0.63137 0.40417 0.0
O299 O 0.11718 0.70887 0.50789 0.0
O300 O 0.15061 0.68661 0.52889 0.0
C301 C 0.13318 0.72928 0.34932 0.0
O302 O 0.1012 0.66716 0.39911 0.0
O303 O 0.09766 0.71323 0.42389 0.0
C304 C 0.13596 0.62217 0.4484 0.0
O305 O 0.12593 0.70309 0.34257 0.0
O306 O 0.13793 0.73826 0.39191 0.0
C307 C 0.17739 0.72714 0.47427 0.0
Fe308 Fe 0.37352 0.71942 0.11992 0.0
Fe309 Fe 0.33774 0.67433 0.07953 0.0
O310 O 0.36071 0.68378 0.12126 0.0
Fe311 Fe 0.37105 0.65759 0.16458 0.0
O312 O 0.37878 0.68543 0.21201 0.0
O313 O 0.36409 0.72671 0.18248 0.0
O314 O 0.34592 0.73807 0.09923 0.0
C315 C 0.32412 0.73019 0.09974 0.0
C316 C 0.41314 0.68165 0.13381 0.0
O317 O 0.31867 0.70338 0.10225 0.0
C318 C 0.36342 0.62293 0.0791 0.0
O319 O 0.38348 0.71449 0.05737 0.0
O320 O 0.34925 0.69793 0.02857 0.0
O321 O 0.40067 0.65865 0.13819 0.0
O322 O 0.40373 0.70696 0.13907 0.0
C323 C 0.32276 0.64939 0.17007 0.0
O324 O 0.35548 0.64435 0.05432 0.0
O325 O 0.36521 0.62487 0.12546 0.0
C326 C 0.3694 0.71053 0.02177 0.0
O327 O 0.32179 0.65003 0.12341 0.0
O328 O 0.3419 0.65527 0.19261 0.0
C329 C 0.37075 0.71141 0.2186 0.0
Fe330 Fe 0.1279 0.32101 0.60377 0.0
Fe331 Fe 0.1657 0.36676 0.57364 0.0
O332 O 0.14107 0.35644 0.6105 0.0
Fe333 Fe 0.12976 0.38145 0.65481 0.0
O334 O 0.12039 0.35237 0.69874 0.0
O335 O 0.13495 0.31164 0.66693 0.0
O336 O 0.1559 0.30253 0.58593 0.0
C337 C 0.17776 0.30984 0.58937 0.0
C338 C 0.08809 0.35925 0.61819 0.0
O339 O 0.18347 0.33634 0.59618 0.0
C340 C 0.14035 0.41834 0.57321 0.0
O341 O 0.12046 0.32732 0.53954 0.0
O342 O 0.1557 0.3458 0.51961 0.0
O343 O 0.10089 0.38172 0.62523 0.0
O344 O 0.09721 0.33355 0.61955 0.0
C345 C 0.17795 0.38899 0.66751 0.0
O346 O 0.1494 0.39772 0.54847 0.0
O347 O 0.13687 0.41525 0.61902 0.0
C348 C 0.13596 0.33393 0.50749 0.0
O349 O 0.18036 0.38933 0.62122 0.0
O350 O 0.15811 0.3826 0.68695 0.0
C351 C 0.12769 0.32597 0.70359 0.0
H352 H 0.22742 0.16969 0.1462 0.0
H353 H 0.17904 0.11928 0.2383 0.0
H354 H 0.21242 0.10758 0.29459 0.0
H355 H 0.28199 0.1236 0.16599 0.0
H356 H 0.30163 0.15511 0.16854 0.0
H357 H 0.27477 0.15648 0.13171 0.0
H358 H 0.26106 0.20337 0.17789 0.0
H359 H 0.28782 0.20216 0.21482 0.0
H360 H 0.25877 0.2026 0.24392 0.0
H361 H 0.24958 0.10506 0.34502 0.0
H362 H 0.28834 0.11222 0.38702 0.0
H363 H 0.31339 0.165 0.26424 0.0
C364 C 0.22413 0.15545 0.17743 0.0
C365 C 0.20075 0.1449 0.18752 0.0
C366 C 0.19687 0.12728 0.22971 0.0
C367 C 0.21572 0.1205 0.26186 0.0
C368 C 0.23844 0.13171 0.2517 0.0
C369 C 0.24281 0.14882 0.21056 0.0
C370 C 0.26849 0.16015 0.21082 0.0
C371 C 0.28255 0.1481 0.16663 0.0
C372 C 0.26906 0.19407 0.21195 0.0
C373 C 0.27766 0.14705 0.25877 0.0
C374 C 0.26003 0.13056 0.28146 0.0
C375 C 0.26365 0.11759 0.32732 0.0
C376 C 0.28576 0.1218 0.35095 0.0
C377 C 0.30411 0.13884 0.32884 0.0
C378 C 0.29997 0.15131 0.28176 0.0
H379 H 0.18843 0.87357 0.77653 0.0
H380 H 0.21173 0.9268 0.90005 0.0
H381 H 0.24946 0.93785 0.85706 0.0
H382 H 0.2443 0.84119 0.75252 0.0
H383 H 0.24159 0.84165 0.68662 0.0
H384 H 0.21506 0.84011 0.72414 0.0
H385 H 0.19869 0.88676 0.68074 0.0
H386 H 0.22521 0.88811 0.6429 0.0
H387 H 0.21672 0.91973 0.67903 0.0
H388 H 0.28635 0.93874 0.80612 0.0
H389 H 0.32008 0.9297 0.74939 0.0
H390 H 0.27362 0.87736 0.65636 0.0
C391 C 0.20123 0.8881 0.79401 0.0
C392 C 0.19692 0.89945 0.8417 0.0
C393 C 0.21444 0.91787 0.86361 0.0
C394 C 0.23598 0.92439 0.83938 0.0
C395 C 0.23985 0.91251 0.79293 0.0
C396 C 0.22296 0.8949 0.77021 0.0
C397 C 0.23245 0.88344 0.72149 0.0
C398 C 0.23339 0.84956 0.72128 0.0
C399 C 0.21736 0.89522 0.67849 0.0
C400 C 0.25752 0.89665 0.72116 0.0
C401 C 0.26126 0.91354 0.76267 0.0
C402 C 0.2835 0.92608 0.77298 0.0
C403 C 0.30257 0.92082 0.74058 0.0
C404 C 0.29933 0.90339 0.69803 0.0
C405 C 0.27636 0.89159 0.68776 0.0
H406 H 0.72601 0.85551 0.66268 0.0
H407 H 0.68339 0.92573 0.72687 0.0
H408 H 0.71664 0.93761 0.78308 0.0
H409 H 0.75166 0.83167 0.77805 0.0
H410 H 0.78 0.82183 0.75057 0.0
H411 H 0.75287 0.82069 0.7147 0.0
H412 H 0.77358 0.85546 0.65114 0.0
H413 H 0.80003 0.85747 0.68906 0.0
H414 H 0.78464 0.8908 0.67126 0.0
H415 H 0.75285 0.93934 0.83732 0.0
H416 H 0.7902 0.93152 0.88444 0.0
H417 H 0.81032 0.86087 0.78539 0.0
C418 C 0.72386 0.87372 0.68793 0.0
C419 C 0.70205 0.88981 0.68997 0.0
C420 C 0.69986 0.91311 0.72437 0.0
C421 C 0.71869 0.92007 0.75651 0.0
C422 C 0.73971 0.90348 0.75423 0.0
C423 C 0.74246 0.88077 0.72089 0.0
C424 C 0.76638 0.86524 0.72845 0.0
C425 C 0.76251 0.83294 0.74384 0.0
C426 C 0.78209 0.86739 0.68221 0.0
C427 C 0.77676 0.8831 0.77057 0.0
C428 C 0.76093 0.90486 0.78516 0.0
C429 C 0.76556 0.92269 0.82574 0.0
C430 C 0.78681 0.91806 0.85236 0.0
C431 C 0.8034 0.89599 0.83813 0.0
C432 C 0.79833 0.8785 0.79632 0.0
H433 H 0.68518 0.15287 0.27807 0.0
H434 H 0.71326 0.11258 0.41096 0.0
H435 H 0.75343 0.11036 0.37341 0.0
H436 H 0.72313 0.11093 0.19097 0.0
H437 H 0.72695 0.14211 0.15061 0.0
H438 H 0.69989 0.13849 0.18634 0.0
H439 H 0.70697 0.19035 0.22308 0.0
H440 H 0.73412 0.194 0.18781 0.0
H441 H 0.73495 0.19819 0.2536 0.0
H442 H 0.79127 0.11731 0.3257 0.0
H443 H 0.82398 0.1295 0.26799 0.0
H444 H 0.77187 0.16297 0.16353 0.0
C445 C 0.69964 0.14294 0.29888 0.0
C446 C 0.69589 0.13267 0.34752 0.0
C447 C 0.71549 0.12034 0.37363 0.0
C448 C 0.73846 0.11906 0.35262 0.0
C449 C 0.74163 0.12993 0.30518 0.0
C450 C 0.72274 0.1413 0.27829 0.0
C451 C 0.73131 0.15244 0.22858 0.0
C452 C 0.71963 0.13494 0.18664 0.0
C453 C 0.72655 0.18571 0.22297 0.0
C454 C 0.75802 0.14594 0.23215 0.0
C455 C 0.76353 0.13308 0.27682 0.0
C456 C 0.78713 0.12688 0.29028 0.0
C457 C 0.8056 0.13396 0.25734 0.0
C458 C 0.80044 0.14675 0.21107 0.0
C459 C 0.77627 0.15256 0.1982 0.0
H460 H 0.80731 0.66258 0.28847 0.0
H461 H 0.77965 0.62781 0.42589 0.0
H462 H 0.74114 0.61674 0.38538 0.0
H463 H 0.75376 0.69796 0.2513 0.0
H464 H 0.75725 0.68983 0.18693 0.0
H465 H 0.7833 0.69299 0.22561 0.0
H466 H 0.79699 0.64076 0.19925 0.0
H467 H 0.77088 0.63739 0.16059 0.0
H468 H 0.77688 0.61 0.20702 0.0
H469 H 0.70469 0.61307 0.33239 0.0
H470 H 0.67254 0.61755 0.27047 0.0
H471 H 0.7236 0.65324 0.16608 0.0
C472 C 0.7933 0.65223 0.30992 0.0
C473 C 0.79667 0.64588 0.36044 0.0
C474 C 0.77765 0.63275 0.38719 0.0
C475 C 0.75569 0.62631 0.36445 0.0
C476 C 0.75294 0.63296 0.31479 0.0
C477 C 0.77121 0.64559 0.28775 0.0
C478 C 0.76311 0.65193 0.23552 0.0
C479 C 0.76443 0.68515 0.2242 0.0
C480 C 0.77785 0.63394 0.19841 0.0
C481 C 0.73731 0.6413 0.23766 0.0
C482 C 0.7319 0.63035 0.28376 0.0
C483 C 0.70881 0.62114 0.29596 0.0
C484 C 0.69068 0.62374 0.26054 0.0
C485 C 0.69568 0.6352 0.21325 0.0
C486 C 0.71944 0.64355 0.20143 0.0
H487 H 0.7238 0.36892 0.88161 0.0
H488 H 0.67221 0.41301 0.78715 0.0
H489 H 0.70385 0.42072 0.72509 0.0
H490 H 0.77582 0.41494 0.84956 0.0
H491 H 0.79633 0.38419 0.85145 0.0
H492 H 0.77007 0.38428 0.89007 0.0
H493 H 0.75704 0.33427 0.85347 0.0
H494 H 0.78323 0.33386 0.81486 0.0
H495 H 0.75379 0.33044 0.78798 0.0
H496 H 0.74043 0.42013 0.67031 0.0
H497 H 0.77925 0.41249 0.6284 0.0
H498 H 0.80712 0.36932 0.75886 0.0
C499 C 0.71921 0.38074 0.84834 0.0
C500 C 0.69544 0.39053 0.8396 0.0
C501 C 0.69023 0.40542 0.79502 0.0
C502 C 0.70812 0.40991 0.75944 0.0
C503 C 0.73121 0.39952 0.7689 0.0
C504 C 0.73684 0.38542 0.81241 0.0
C505 C 0.76276 0.37515 0.81256 0.0
C506 C 0.77709 0.39057 0.85333 0.0
C507 C 0.76429 0.34141 0.81745 0.0
C508 C 0.77074 0.3853 0.76211 0.0
C509 C 0.7523 0.39937 0.73752 0.0
C510 C 0.75507 0.40946 0.68947 0.0
C511 C 0.77721 0.40496 0.66591 0.0
C512 C 0.79638 0.39055 0.69038 0.0
C513 C 0.79301 0.38083 0.73931 0.0
H514 H 0.31299 0.38405 0.76478 0.0
H515 H 0.2872 0.42742 0.89676 0.0
H516 H 0.24726 0.43283 0.85915 0.0
H517 H 0.27695 0.42798 0.67626 0.0
H518 H 0.27152 0.3966 0.63727 0.0
H519 H 0.29884 0.39877 0.67247 0.0
H520 H 0.28948 0.34797 0.71149 0.0
H521 H 0.26206 0.34578 0.6768 0.0
H522 H 0.2613 0.34258 0.74275 0.0
H523 H 0.20915 0.42839 0.81206 0.0
H524 H 0.17569 0.41718 0.75566 0.0
H525 H 0.22587 0.37852 0.65234 0.0
C526 C 0.29914 0.39542 0.78527 0.0
C527 C 0.30337 0.40554 0.83367 0.0
C528 C 0.28453 0.41965 0.85957 0.0
C529 C 0.26173 0.42282 0.83853 0.0
C530 C 0.258 0.41196 0.79136 0.0
C531 C 0.2762 0.39882 0.76473 0.0
C532 C 0.26699 0.38764 0.7157 0.0
C533 C 0.27931 0.40372 0.67289 0.0
C534 C 0.27014 0.354 0.71147 0.0
C535 C 0.2407 0.39609 0.71944 0.0
C536 C 0.23594 0.41006 0.76346 0.0
C537 C 0.21271 0.418 0.77706 0.0
C538 C 0.19382 0.41146 0.74491 0.0
C539 C 0.19827 0.39743 0.69942 0.0
C540 C 0.22207 0.38994 0.68637 0.0
H541 H 0.27633 0.66841 0.15889 0.0
H542 H 0.32222 0.61366 0.24972 0.0
H543 H 0.289 0.60646 0.30837 0.0
H544 H 0.24993 0.7062 0.25558 0.0
H545 H 0.22035 0.70897 0.22916 0.0
H546 H 0.24617 0.70593 0.18983 0.0
H547 H 0.22771 0.66014 0.14789 0.0
H548 H 0.20169 0.66314 0.1869 0.0
H549 H 0.21847 0.62915 0.18483 0.0
H550 H 0.25321 0.6098 0.36159 0.0
H551 H 0.21613 0.62233 0.40604 0.0
H552 H 0.19281 0.67598 0.28266 0.0
C553 C 0.27898 0.65401 0.1902 0.0
C554 C 0.30162 0.64106 0.19948 0.0
C555 C 0.30488 0.62341 0.24181 0.0
C556 C 0.28614 0.61921 0.27528 0.0
C557 C 0.26426 0.63302 0.26609 0.0
C558 C 0.26046 0.64995 0.22452 0.0
C559 C 0.23595 0.66461 0.22613 0.0
C560 C 0.23825 0.69843 0.22514 0.0
C561 C 0.22001 0.65359 0.18393 0.0
C562 C 0.22687 0.65374 0.27552 0.0
C563 C 0.24346 0.63535 0.29761 0.0
C564 C 0.23989 0.62381 0.34443 0.0
C565 C 0.21879 0.63119 0.3695 0.0
C566 C 0.20144 0.64998 0.34782 0.0
C567 C 0.20555 0.66122 0.29998 0.0
H568 H 0.15854 0.21451 0.9241 0.0
H569 H 0.0856 0.2285 0.97532 0.0
H570 H 0.07793 0.26128 0.90504 0.0
H571 H 0.16914 0.28696 0.88341 0.0
H572 H 0.18595 0.27692 0.82941 0.0
H573 H 0.18567 0.2528 0.88199 0.0
H574 H 0.17027 0.20979 0.82802 0.0
H575 H 0.17089 0.23363 0.77505 0.0
H576 H 0.14357 0.21481 0.79153 0.0
H577 H 0.07939 0.29725 0.8351 0.0
H578 H 0.08785 0.32747 0.76136 0.0
H579 H 0.15846 0.28778 0.75047 0.0
C580 C 0.14075 0.22379 0.91984 0.0
C581 C 0.1227 0.2188 0.95559 0.0
C582 C 0.09978 0.23186 0.94872 0.0
C583 C 0.09524 0.2507 0.90893 0.0
C584 C 0.11365 0.25609 0.87559 0.0
C585 C 0.13577 0.2425 0.87982 0.0
C586 C 0.15244 0.25235 0.83879 0.0
C587 C 0.17461 0.26819 0.85965 0.0
C588 C 0.15971 0.22608 0.80642 0.0
C589 C 0.13623 0.27366 0.81115 0.0
C590 C 0.11407 0.27584 0.83359 0.0
C591 C 0.09654 0.29537 0.81671 0.0
C592 C 0.10154 0.31262 0.77509 0.0
C593 C 0.1237 0.30983 0.75021 0.0
C594 C 0.14127 0.29012 0.76863 0.0
H595 H 0.33918 0.82506 0.43695 0.0
H596 H 0.40538 0.79548 0.50582 0.0
H597 H 0.41277 0.76204 0.43703 0.0
H598 H 0.32152 0.7561 0.38627 0.0
H599 H 0.31085 0.77068 0.32869 0.0
H600 H 0.31035 0.7934 0.38285 0.0
H601 H 0.3355 0.83322 0.33845 0.0
H602 H 0.33582 0.8108 0.28386 0.0
H603 H 0.36366 0.8231 0.31052 0.0
H604 H 0.41163 0.72807 0.36557 0.0
H605 H 0.40519 0.70133 0.28775 0.0
H606 H 0.3421 0.7548 0.25893 0.0
C607 C 0.35541 0.81191 0.43716 0.0
C608 C 0.37153 0.81299 0.47748 0.0
C609 C 0.39256 0.79523 0.47595 0.0
C610 C 0.39697 0.77593 0.43693 0.0
C611 C 0.3805 0.77476 0.3987 0.0
C612 C 0.36043 0.79271 0.39765 0.0
C613 C 0.34608 0.7873 0.35093 0.0
C614 C 0.3207 0.77621 0.36294 0.0
C615 C 0.34522 0.81527 0.31905 0.0
C616 C 0.36106 0.76325 0.32673 0.0
C617 C 0.38064 0.75614 0.35543 0.0
C618 C 0.39654 0.7337 0.34237 0.0
C619 C 0.39264 0.71846 0.29827 0.0
C620 C 0.37325 0.72602 0.26715 0.0
C621 C 0.35722 0.7487 0.2818 0.0
H622 H 0.11744 0.7228 0.25313 0.0
H623 H 0.15312 0.78425 0.35106 0.0
H624 H 0.15607 0.82036 0.28385 0.0
H625 H 0.15221 0.74074 0.14524 0.0
H626 H 0.12721 0.73727 0.10366 0.0
H627 H 0.12783 0.7161 0.15963 0.0
H628 H 0.08646 0.73782 0.18399 0.0
H629 H 0.08585 0.75925 0.12825 0.0
H630 H 0.08267 0.77726 0.18685 0.0
H631 H 0.15664 0.84948 0.20533 0.0
H632 H 0.15441 0.86933 0.12078 0.0
H633 H 0.1169 0.79042 0.07415 0.0
C634 C 0.12586 0.74384 0.26045 0.0
C635 C 0.13497 0.75057 0.30769 0.0
C636 C 0.14586 0.77846 0.31547 0.0
C637 C 0.14765 0.79922 0.27744 0.0
C638 C 0.13837 0.79201 0.23157 0.0
C639 C 0.12767 0.76503 0.22283 0.0
C640 C 0.11932 0.76289 0.16988 0.0
C641 C 0.13243 0.73776 0.14302 0.0
C642 C 0.09195 0.75908 0.1671 0.0
C643 C 0.12698 0.79284 0.15041 0.0
C644 C 0.13807 0.80922 0.18656 0.0
C645 C 0.14775 0.83699 0.17683 0.0
C646 C 0.14636 0.84813 0.12875 0.0
C647 C 0.13512 0.83175 0.09101 0.0
C648 C 0.12506 0.80387 0.1024 0.0
H649 H 0.33486 0.28335 0.77362 0.0
H650 H 0.40486 0.32431 0.75914 0.0
H651 H 0.41342 0.2934 0.68711 0.0
H652 H 0.35244 0.20893 0.73112 0.0
H653 H 0.32518 0.2032 0.69682 0.0
H654 H 0.32494 0.2263 0.75066 0.0
H655 H 0.30729 0.26921 0.69971 0.0
H656 H 0.3075 0.24629 0.64579 0.0
H657 H 0.32276 0.28139 0.64527 0.0
H658 H 0.41492 0.25909 0.61723 0.0
H659 H 0.4071 0.22893 0.54434 0.0
H660 H 0.33481 0.21148 0.59637 0.0
C661 C 0.35203 0.28557 0.75538 0.0
C662 C 0.36924 0.30628 0.77227 0.0
C663 C 0.39133 0.30883 0.74692 0.0
C664 C 0.39648 0.29111 0.70617 0.0
C665 C 0.37928 0.27098 0.69046 0.0
C666 C 0.35733 0.26833 0.71359 0.0
C667 C 0.34141 0.24662 0.68596 0.0
C668 C 0.33565 0.21966 0.71807 0.0
C669 C 0.31836 0.2618 0.6681 0.0
C670 C 0.35766 0.23815 0.64312 0.0
C671 C 0.37964 0.25196 0.64767 0.0
C672 C 0.39776 0.24824 0.61313 0.0
C673 C 0.3931 0.23094 0.57174 0.0
C674 C 0.37031 0.21776 0.56417 0.0
C675 C 0.35251 0.22083 0.60122 0.0
H676 H 0.88198 0.78536 0.07138 0.0
H677 H 0.84219 0.86286 0.11741 0.0
H678 H 0.83938 0.84252 0.20132 0.0
H679 H 0.84761 0.73387 0.14042 0.0
H680 H 0.87254 0.71035 0.15617 0.0
H681 H 0.87334 0.73176 0.10046 0.0
H682 H 0.91339 0.75561 0.12757 0.0
H683 H 0.91285 0.73404 0.18317 0.0
H684 H 0.91517 0.77362 0.18642 0.0
H685 H 0.83929 0.81331 0.27902 0.0
H686 H 0.8425 0.77768 0.34669 0.0
H687 H 0.8814 0.71745 0.2516 0.0
C688 C 0.87315 0.79836 0.0994 0.0
C689 C 0.86256 0.826 0.0878 0.0
C690 C 0.85059 0.84184 0.12533 0.0
C691 C 0.84886 0.83041 0.17314 0.0
C692 C 0.85901 0.80291 0.18305 0.0
C693 C 0.87099 0.78706 0.14738 0.0
C694 C 0.8793 0.7574 0.1675 0.0
C695 C 0.86749 0.73184 0.13946 0.0
C696 C 0.90682 0.75504 0.16608 0.0
C697 C 0.87011 0.75908 0.22003 0.0
C698 C 0.85854 0.78563 0.228 0.0
C699 C 0.84841 0.79252 0.27324 0.0
C700 C 0.85036 0.772 0.31157 0.0
C701 C 0.86228 0.74461 0.30488 0.0
C702 C 0.87212 0.73806 0.25809 0.0
H703 H 0.62126 0.24865 0.56186 0.0
H704 H 0.64888 0.16702 0.62312 0.0
H705 H 0.6511 0.19058 0.70499 0.0
H706 H 0.65958 0.29621 0.63239 0.0
H707 H 0.63738 0.32481 0.63965 0.0
H708 H 0.6367 0.30131 0.58637 0.0
H709 H 0.59284 0.28659 0.60589 0.0
H710 H 0.59324 0.31029 0.6589 0.0
H711 H 0.58563 0.27188 0.66562 0.0
H712 H 0.64969 0.22249 0.77969 0.0
H713 H 0.64522 0.26052 0.8433 0.0
H714 H 0.62105 0.32329 0.73355 0.0
C715 C 0.62736 0.23552 0.59268 0.0
C716 C 0.63448 0.20571 0.5863 0.0
C717 C 0.64308 0.18968 0.62727 0.0
C718 C 0.64448 0.20295 0.6738 0.0
C719 C 0.63764 0.23244 0.67858 0.0
C720 C 0.62934 0.24861 0.63914 0.0
C721 C 0.62395 0.28027 0.65396 0.0
C722 C 0.64038 0.30193 0.62645 0.0
C723 C 0.59733 0.28768 0.6456 0.0
C724 C 0.63002 0.27926 0.70829 0.0
C725 C 0.63787 0.25138 0.72147 0.0
C726 C 0.64373 0.24441 0.7697 0.0
C727 C 0.64111 0.26623 0.80558 0.0
C728 C 0.63294 0.29495 0.79339 0.0
C729 C 0.62769 0.30171 0.74382 0.0
H730 H 0.88678 0.32145 0.79761 0.0
H731 H 0.83973 0.26866 0.70587 0.0
H732 H 0.83557 0.23239 0.77201 0.0
H733 H 0.91745 0.26056 0.85507 0.0
H734 H 0.91896 0.27704 0.91518 0.0
H735 H 0.91816 0.30012 0.8613 0.0
H736 H 0.8808 0.32744 0.89511 0.0
H737 H 0.88176 0.30472 0.94939 0.0
H738 H 0.85477 0.30645 0.91304 0.0
H739 H 0.83622 0.20116 0.84635 0.0
H740 H 0.84002 0.17816 0.92812 0.0
H741 H 0.88703 0.2492 0.97402 0.0
C742 C 0.87544 0.30242 0.79176 0.0
C743 C 0.86376 0.29796 0.74608 0.0
C744 C 0.84914 0.27259 0.74005 0.0
C745 C 0.8466 0.25172 0.77751 0.0
C746 C 0.85875 0.25625 0.82136 0.0
C747 C 0.87272 0.281 0.82913 0.0
C748 C 0.88364 0.28009 0.88037 0.0
C749 C 0.91119 0.27941 0.87781 0.0
C750 C 0.8747 0.30623 0.91131 0.0
C751 C 0.87371 0.25098 0.8996 0.0
C752 C 0.85937 0.23772 0.86476 0.0
C753 C 0.84751 0.21123 0.87395 0.0
C754 C 0.84987 0.19823 0.92044 0.0
C755 C 0.86411 0.2115 0.9573 0.0
C756 C 0.8765 0.23805 0.94628 0.0
H757 H 0.65878 0.75379 0.25261 0.0
H758 H 0.59104 0.70814 0.2715 0.0
H759 H 0.58223 0.73862 0.34429 0.0
H760 H 0.67257 0.75688 0.38167 0.0
H761 H 0.68674 0.79255 0.37841 0.0
H762 H 0.6868 0.76875 0.32559 0.0
H763 H 0.66727 0.81055 0.27434 0.0
H764 H 0.66674 0.83416 0.32753 0.0
H765 H 0.63937 0.82662 0.29459 0.0
H766 H 0.58077 0.7728 0.41542 0.0
H767 H 0.58933 0.80319 0.48827 0.0
H768 H 0.65889 0.826 0.42826 0.0
C769 C 0.64205 0.75039 0.27202 0.0
C770 C 0.6255 0.72863 0.25616 0.0
C771 C 0.60401 0.72451 0.28298 0.0
C772 C 0.59874 0.74195 0.32414 0.0
C773 C 0.61528 0.76328 0.33867 0.0
C774 C 0.63672 0.76724 0.31411 0.0
C775 C 0.65219 0.79002 0.34027 0.0
C776 C 0.67598 0.77622 0.35751 0.0
C777 C 0.65665 0.81694 0.3072 0.0
C778 C 0.63617 0.798 0.38357 0.0
C779 C 0.61476 0.78265 0.3811 0.0
C780 C 0.59736 0.7851 0.41754 0.0
C781 C 0.60229 0.80263 0.45863 0.0
C782 C 0.62447 0.81755 0.46342 0.0
C783 C 0.64143 0.81577 0.42474 0.0
H784 H 0.66989 0.72506 0.95538 0.0
H785 H 0.59483 0.70095 0.96715 0.0
H786 H 0.58572 0.73034 0.89322 0.0
H787 H 0.65987 0.79909 0.92025 0.0
H788 H 0.68459 0.80131 0.8777 0.0
H789 H 0.68579 0.77581 0.9285 0.0
H790 H 0.6934 0.7328 0.8684 0.0
H791 H 0.69223 0.75814 0.81744 0.0
H792 H 0.67267 0.72654 0.81866 0.0
H793 H 0.58386 0.76412 0.82217 0.0
H794 H 0.58973 0.79773 0.75216 0.0
H795 H 0.6658 0.80265 0.78476 0.0
C796 C 0.65173 0.72518 0.94123 0.0
C797 C 0.63308 0.71019 0.96646 0.0
C798 C 0.60938 0.71185 0.94801 0.0
C799 C 0.60402 0.72866 0.90621 0.0
C800 C 0.62253 0.744 0.88321 0.0
C801 C 0.64597 0.74223 0.89946 0.0
C802 C 0.66214 0.76211 0.86868 0.0
C803 C 0.67378 0.78602 0.90068 0.0
C804 C 0.68124 0.7438 0.84168 0.0
C805 C 0.64405 0.77538 0.8329 0.0
C806 C 0.62134 0.76446 0.84229 0.0
C807 C 0.60154 0.77279 0.8144 0.0
C808 C 0.60503 0.79205 0.77486 0.0
C809 C 0.6281 0.80315 0.7634 0.0
C810 C 0.64788 0.79505 0.79335 0.0
H811 H 0.88494 0.28257 0.47919 0.0
H812 H 0.86368 0.36827 0.42352 0.0
H813 H 0.86384 0.34855 0.33896 0.0
H814 H 0.9228 0.25947 0.37313 0.0
H815 H 0.91241 0.22188 0.37572 0.0
H816 H 0.91397 0.24357 0.43106 0.0
H817 H 0.86906 0.23292 0.44773 0.0
H818 H 0.86724 0.21153 0.39219 0.0
H819 H 0.8471 0.24214 0.40161 0.0
H820 H 0.86289 0.31941 0.26273 0.0
H821 H 0.86119 0.28294 0.19695 0.0
H822 H 0.88169 0.21394 0.29983 0.0
C823 C 0.88123 0.29737 0.44888 0.0
C824 C 0.87497 0.32722 0.45752 0.0
C825 C 0.86901 0.34559 0.4174 0.0
C826 C 0.86899 0.33452 0.36937 0.0
C827 C 0.87464 0.30487 0.3621 0.0
C828 C 0.8807 0.28647 0.40057 0.0
C829 C 0.88393 0.25488 0.38273 0.0
C830 C 0.90982 0.24433 0.39116 0.0
C831 C 0.86575 0.23415 0.40754 0.0
C832 C 0.87856 0.25842 0.32827 0.0
C833 C 0.8734 0.28756 0.31754 0.0
C834 C 0.86712 0.29659 0.27056 0.0
C835 C 0.86614 0.27546 0.23334 0.0
C836 C 0.87137 0.24528 0.24273 0.0
C837 C 0.87773 0.23673 0.29115 0.0
H838 H 0.62757 0.27379 0.06616 0.0
H839 H 0.64549 0.36122 0.11964 0.0
H840 H 0.64674 0.34139 0.20464 0.0
H841 H 0.59001 0.2509 0.16606 0.0
H842 H 0.60086 0.21345 0.16514 0.0
H843 H 0.6006 0.23492 0.10948 0.0
H844 H 0.64612 0.22511 0.09804 0.0
H845 H 0.64655 0.20369 0.15376 0.0
H846 H 0.66662 0.23453 0.14672 0.0
H847 H 0.64758 0.31107 0.28309 0.0
H848 H 0.64646 0.27413 0.34913 0.0
H849 H 0.62784 0.20628 0.24346 0.0
C850 C 0.63153 0.28906 0.09558 0.0
C851 C 0.63633 0.31928 0.08601 0.0
C852 C 0.64162 0.33813 0.12591 0.0
C853 C 0.64244 0.32699 0.17425 0.0
C854 C 0.63801 0.29697 0.18194 0.0
C855 C 0.63259 0.27834 0.1436 0.0
C856 C 0.62915 0.24682 0.16105 0.0
C857 C 0.60363 0.23589 0.14977 0.0
C858 C 0.64824 0.22634 0.13855 0.0
C859 C 0.63304 0.25054 0.21569 0.0
C860 C 0.63836 0.2796 0.22685 0.0
C861 C 0.64332 0.28836 0.27467 0.0
C862 C 0.6427 0.26704 0.31197 0.0
C863 C 0.63697 0.23712 0.3017 0.0
C864 C 0.63207 0.2289 0.25269 0.0
H865 H 0.84194 0.70883 0.62085 0.0
H866 H 0.91484 0.72333 0.56993 0.0
H867 H 0.92279 0.7543 0.6422 0.0
H868 H 0.83135 0.77971 0.66408 0.0
H869 H 0.81475 0.76952 0.71829 0.0
H870 H 0.81488 0.74552 0.66572 0.0
H871 H 0.83059 0.70227 0.71838 0.0
H872 H 0.82998 0.72572 0.77175 0.0
H873 H 0.85732 0.70706 0.75479 0.0
H874 H 0.9214 0.78917 0.71283 0.0
H875 H 0.91256 0.82019 0.7851 0.0
H876 H 0.84169 0.78127 0.79546 0.0
C877 C 0.85982 0.7177 0.62572 0.0
C878 C 0.87778 0.71347 0.58945 0.0
C879 C 0.90076 0.72611 0.59696 0.0
C880 C 0.90546 0.74387 0.63792 0.0
C881 C 0.88714 0.7486 0.67177 0.0
C882 C 0.86493 0.73538 0.66689 0.0
C883 C 0.84826 0.74493 0.70821 0.0
C884 C 0.826 0.76087 0.68785 0.0
C885 C 0.84112 0.71841 0.74019 0.0
C886 C 0.86443 0.76603 0.73622 0.0
C887 C 0.88671 0.76794 0.71418 0.0
C888 C 0.90419 0.78744 0.73099 0.0
C889 C 0.89895 0.80514 0.77183 0.0
C890 C 0.87656 0.80297 0.79605 0.0
C891 C 0.8591 0.78305 0.77802 0.0
H892 H 0.335 0.25786 0.27267 0.0
H893 H 0.40656 0.22055 0.26192 0.0
H894 H 0.41461 0.25125 0.18925 0.0
H895 H 0.32402 0.25842 0.14277 0.0
H896 H 0.30732 0.29251 0.14302 0.0
H897 H 0.30769 0.26945 0.19685 0.0
H898 H 0.32297 0.31377 0.24794 0.0
H899 H 0.32294 0.33667 0.19379 0.0
H900 H 0.34999 0.33256 0.22944 0.0
H901 H 0.41532 0.28462 0.11802 0.0
H902 H 0.40697 0.31413 0.04432 0.0
H903 H 0.33403 0.32896 0.09473 0.0
C904 C 0.35239 0.25642 0.2551 0.0
C905 C 0.37021 0.23685 0.27314 0.0
C906 C 0.3926 0.2352 0.24872 0.0
C907 C 0.39744 0.25277 0.20761 0.0
C908 C 0.37962 0.27178 0.19069 0.0
C909 C 0.35739 0.27348 0.21298 0.0
C910 C 0.34093 0.29415 0.18436 0.0
C911 C 0.31868 0.27762 0.16563 0.0
C912 C 0.33379 0.32087 0.21577 0.0
C913 C 0.35731 0.3033 0.1422 0.0
C914 C 0.37969 0.29051 0.14756 0.0
C915 C 0.39789 0.29477 0.11336 0.0
C916 C 0.39294 0.31166 0.07155 0.0
C917 C 0.36987 0.32398 0.06356 0.0
C918 C 0.35196 0.32031 0.10012 0.0
H919 H 0.11612 0.82225 0.74961 0.0
H920 H 0.14912 0.75902 0.84897 0.0
H921 H 0.14934 0.72192 0.7837 0.0
H922 H 0.07815 0.76997 0.68501 0.0
H923 H 0.08243 0.78668 0.62558 0.0
H924 H 0.08422 0.80891 0.68026 0.0
H925 H 0.1268 0.82641 0.65532 0.0
H926 H 0.12494 0.80453 0.60032 0.0
H927 H 0.14965 0.79938 0.64214 0.0
H928 H 0.14773 0.69166 0.70782 0.0
H929 H 0.14543 0.67098 0.62404 0.0
H930 H 0.1126 0.75206 0.57251 0.0
C931 C 0.12334 0.8006 0.75762 0.0
C932 C 0.13248 0.79377 0.80491 0.0
C933 C 0.14189 0.76507 0.81345 0.0
C934 C 0.14207 0.74364 0.77652 0.0
C935 C 0.13279 0.75093 0.73073 0.0
C936 C 0.12371 0.7787 0.72085 0.0
C937 C 0.11555 0.78071 0.66765 0.0
C938 C 0.08848 0.78693 0.66446 0.0
C939 C 0.1301 0.80415 0.63972 0.0
C940 C 0.12146 0.7498 0.64956 0.0
C941 C 0.13143 0.73305 0.68669 0.0
C942 C 0.13966 0.70441 0.67854 0.0
C943 C 0.13819 0.69277 0.63091 0.0
C944 C 0.12832 0.70954 0.592 0.0
C945 C 0.11948 0.73829 0.60182 0.0
H946 H 0.33989 0.71877 0.94038 0.0
H947 H 0.41013 0.74099 0.99883 0.0
H948 H 0.4166 0.77525 0.93022 0.0
H949 H 0.35807 0.72135 0.8104 0.0
H950 H 0.32991 0.73689 0.79049 0.0
H951 H 0.33091 0.71334 0.84378 0.0
H952 H 0.31078 0.75451 0.8954 0.0
H953 H 0.31001 0.77828 0.84236 0.0
H954 H 0.32445 0.79046 0.89795 0.0
H955 H 0.41425 0.81077 0.86004 0.0
H956 H 0.40602 0.839 0.78412 0.0
H957 H 0.33904 0.79165 0.76593 0.0
C958 C 0.35683 0.73035 0.93821 0.0
C959 C 0.37443 0.72707 0.97547 0.0
C960 C 0.39626 0.74299 0.97115 0.0
C961 C 0.40012 0.76271 0.93231 0.0
C962 C 0.38216 0.76617 0.8973 0.0
C963 C 0.36118 0.74998 0.89908 0.0
C964 C 0.345 0.75779 0.85601 0.0
C965 C 0.34073 0.73073 0.82322 0.0
C966 C 0.32115 0.77104 0.87402 0.0
C967 C 0.36021 0.78084 0.82999 0.0
C968 C 0.38137 0.78571 0.85508 0.0
C969 C 0.39789 0.80689 0.83968 0.0
C970 C 0.39298 0.82301 0.79677 0.0
C971 C 0.37197 0.81748 0.76913 0.0
C972 C 0.35532 0.79621 0.78625 0.0
H973 H 0.11399 0.2829 0.47426 0.0
H974 H 0.15402 0.35964 0.42588 0.0
H975 H 0.15672 0.33871 0.3427 0.0
H976 H 0.14772 0.23061 0.40688 0.0
H977 H 0.12283 0.20722 0.39067 0.0
H978 H 0.12165 0.22896 0.44594 0.0
H979 H 0.08199 0.25318 0.41709 0.0
H980 H 0.08281 0.23117 0.36206 0.0
H981 H 0.08074 0.27075 0.35774 0.0
H982 H 0.15817 0.30898 0.26804 0.0
H983 H 0.15565 0.27344 0.20098 0.0
H984 H 0.11445 0.21405 0.29377 0.0
C985 C 0.12267 0.29562 0.44569 0.0
C986 C 0.13356 0.32315 0.45636 0.0
C987 C 0.14542 0.3387 0.41844 0.0
C988 C 0.14711 0.32693 0.37112 0.0
C989 C 0.13692 0.29945 0.36212 0.0
C990 C 0.1247 0.28399 0.39792 0.0
C991 C 0.11636 0.25426 0.37818 0.0
C992 C 0.12783 0.22876 0.40715 0.0
C993 C 0.08884 0.25223 0.3788 0.0
C994 C 0.12596 0.25549 0.32585 0.0
C995 C 0.13777 0.28186 0.31793 0.0
C996 C 0.14871 0.28842 0.2735 0.0
C997 C 0.14713 0.26791 0.23552 0.0
C998 C 0.13458 0.24089 0.24153 0.0
C999 C 0.12412 0.23443 0.28781 0.0
H1000 H 0.05084 0.22528 0.12667 0.0
H1001 H 0.06423 0.13084 0.12345 0.0
H1002 H 0.02092 0.12163 0.11881 0.0
H1003 H 0.99845 0.22171 0.20277 0.0
H1004 H 0.98265 0.25084 0.17132 0.0
H1005 H 0.01496 0.25059 0.17231 0.0
H1006 H 0.01572 0.25243 0.07726 0.0
H1007 H 0.98339 0.25261 0.07597 0.0
H1008 H -0.0002 0.22479 0.04271 0.0
H1009 H 0.97697 0.1218 0.11662 0.0
H1010 H 0.93364 0.13129 0.11929 0.0
H1011 H 0.94713 0.22561 0.12437 0.0
C1012 C 0.04463 0.2027 0.12476 0.0
C1013 C 0.06101 0.1788 0.12557 0.0
C1014 C 0.05213 0.14955 0.12322 0.0
C1015 C 0.02752 0.14404 0.12033 0.0
C1016 C 0.01191 0.16795 0.11982 0.0
C1017 C 0.01996 0.19671 0.12208 0.0
C1018 C 0.999 0.21817 0.12247 0.0
C1019 C 0.99876 0.2364 0.17005 0.0
C1020 C 0.99952 0.23818 0.07688 0.0
C1021 C 0.97803 0.19686 0.12059 0.0
C1022 C 0.98605 0.16805 0.11878 0.0
C1023 C 0.9704 0.14424 0.11794 0.0
C1024 C 0.94578 0.14992 0.11964 0.0
C1025 C 0.93694 0.1792 0.12226 0.0
C1026 C 0.95333 0.20301 0.1221 0.0
H1027 H 0.44534 0.81616 0.62122 0.0
H1028 H 0.43693 0.91048 0.64399 0.0
H1029 H 0.48059 0.91662 0.6413 0.0
H1030 H 0.498 0.80731 0.69474 0.0
H1031 H 0.51226 0.78102 0.6546 0.0
H1032 H 0.48002 0.78358 0.65653 0.0
H1033 H 0.47902 0.79237 0.56258 0.0
H1034 H 0.51129 0.78987 0.56036 0.0
H1035 H 0.49631 0.82209 0.53651 0.0
H1036 H 0.52452 0.91302 0.64187 0.0
H1037 H 0.56737 0.89979 0.64249 0.0
H1038 H 0.54911 0.80829 0.61519 0.0
C1039 C 0.45271 0.83809 0.62545 0.0
C1040 C 0.43756 0.86279 0.633 0.0
C1041 C 0.44798 0.89114 0.63819 0.0
C1042 C 0.47285 0.89493 0.63667 0.0
C1043 C 0.48722 0.87025 0.62945 0.0
C1044 C 0.47768 0.84239 0.62357 0.0
C1045 C 0.49754 0.8197 0.61689 0.0
C1046 C 0.49691 0.79654 0.65815 0.0
C1047 C 0.49594 0.80515 0.56605 0.0
C1048 C 0.51961 0.83922 0.62087 0.0
C1049 C 0.51306 0.86829 0.62818 0.0
C1050 C 0.52993 0.89042 0.63562 0.0
C1051 C 0.5542 0.88267 0.63608 0.0
C1052 C 0.56148 0.85312 0.62859 0.0
C1053 C 0.54398 0.83112 0.6202 0.0
H1054 H 0.9474 0.81118 0.91233 0.0
H1055 H 0.93562 0.90152 0.95921 0.0
H1056 H 0.97906 0.90819 0.96962 0.0
H1057 H -0.00018 0.79614 0.99369 0.0
H1058 H 0.01535 0.77485 0.94773 0.0
H1059 H 0.983 0.77561 0.94873 0.0
H1060 H 0.98255 0.7932 0.85827 0.0
H1061 H 0.01484 0.79258 0.85702 0.0
H1062 H 0.99894 0.82593 0.8414 0.0
H1063 H 0.02284 0.90737 0.9681 0.0
H1064 H 0.06592 0.89909 0.95504 0.0
H1065 H 0.05157 0.80911 0.90951 0.0
C1066 C 0.95402 0.8321 0.92578 0.0
C1067 C 0.9381 0.85584 0.93511 0.0
C1068 C 0.94744 0.88309 0.95168 0.0
C1069 C 0.9721 0.88706 0.95795 0.0
C1070 C 0.98735 0.86359 0.94752 0.0
C1071 C 0.97884 0.83658 0.93191 0.0
C1072 C 0.99958 0.81587 0.92017 0.0
C1073 C 0.99943 0.78902 0.95465 0.0
C1074 C 0.99893 0.80634 0.866 0.0
C1075 C 0.02094 0.83578 0.93056 0.0
C1076 C 0.01325 0.86309 0.94668 0.0
C1077 C 0.02914 0.88599 0.95608 0.0
C1078 C 0.05359 0.88109 0.9483 0.0
C1079 C 0.0621 0.85347 0.93138 0.0
C1080 C 0.04557 0.83029 0.92316 0.0
H1081 H 0.44789 0.15295 0.38375 0.0
H1082 H 0.43452 0.24348 0.4281 0.0
H1083 H 0.47789 0.25125 0.43849 0.0
H1084 H 0.49754 0.13936 0.46724 0.0
H1085 H 0.51427 0.11756 0.42378 0.0
H1086 H 0.48198 0.11855 0.42076 0.0
H1087 H 0.48423 0.13549 0.33002 0.0
H1088 H 0.51651 0.13454 0.33275 0.0
H1089 H 0.50132 0.1679 0.31444 0.0
H1090 H 0.52234 0.24992 0.44309 0.0
H1091 H 0.56567 0.23977 0.44069 0.0
H1092 H 0.5512 0.15014 0.3929 0.0
C1093 C 0.45408 0.17436 0.39582 0.0
C1094 C 0.4377 0.19763 0.40494 0.0
C1095 C 0.44662 0.22534 0.42055 0.0
C1096 C 0.47126 0.22998 0.42674 0.0
C1097 C 0.48688 0.20673 0.41717 0.0
C1098 C 0.47874 0.17947 0.40202 0.0
C1099 C 0.49958 0.15848 0.39336 0.0
C1100 C 0.49826 0.13192 0.42838 0.0
C1101 C 0.50045 0.14852 0.33943 0.0
C1102 C 0.52064 0.17832 0.40582 0.0
C1103 C 0.51281 0.206 0.41961 0.0
C1104 C 0.52873 0.22832 0.43239 0.0
C1105 C 0.55336 0.2223 0.43083 0.0
C1106 C 0.56198 0.19416 0.41647 0.0
C1107 C 0.54527 0.17186 0.40406 0.0
H1108 H 0.55319 0.7212 0.14573 0.0
H1109 H 0.56554 0.63407 0.08476 0.0
H1110 H 0.5221 0.62715 0.07484 0.0
H1111 H 0.50286 0.70205 0.21583 0.0
H1112 H 0.48635 0.73571 0.20568 0.0
H1113 H 0.51862 0.73588 0.20293 0.0
H1114 H 0.517 0.75792 0.11521 0.0
H1115 H 0.48467 0.75803 0.11782 0.0
H1116 H 0.49987 0.73943 0.06831 0.0
H1117 H 0.47831 0.62691 0.07892 0.0
H1118 H 0.43524 0.63414 0.09399 0.0
H1119 H 0.4496 0.72161 0.15177 0.0
C1120 C 0.54668 0.70101 0.12927 0.0
C1121 C 0.56268 0.67815 0.11604 0.0
C1122 C 0.55357 0.65178 0.09542 0.0
C1123 C 0.52893 0.64767 0.08941 0.0
C1124 C 0.51358 0.67016 0.10404 0.0
C1125 C 0.52194 0.69642 0.12321 0.0
C1126 C 0.5012 0.71606 0.13879 0.0
C1127 C 0.50234 0.72281 0.19409 0.0
C1128 C 0.50066 0.74455 0.1082 0.0
C1129 C 0.48005 0.69631 0.12656 0.0
C1130 C 0.48775 0.67006 0.10623 0.0
C1131 C 0.47196 0.64749 0.09423 0.0
C1132 C 0.44754 0.65176 0.10327 0.0
C1133 C 0.43907 0.67842 0.12409 0.0
C1134 C 0.45555 0.70113 0.13539 0.0
H1135 H 0.94879 0.31576 0.63371 0.0
H1136 H 0.93398 0.40962 0.62233 0.0
H1137 H 0.97705 0.41948 0.61267 0.0
H1138 H 0.00264 0.32328 0.70488 0.0
H1139 H 0.01814 0.29323 0.67539 0.0
H1140 H 0.98588 0.293 0.67926 0.0
H1141 H 0.98318 0.28737 0.58477 0.0
H1142 H 0.01545 0.28771 0.5806 0.0
H1143 H 0.99797 0.31387 0.54579 0.0
H1144 H 0.02098 0.41988 0.6052 0.0
H1145 H 0.06446 0.41117 0.6051 0.0
H1146 H 0.05219 0.31713 0.62309 0.0
C1147 C 0.95464 0.33834 0.629 0.0
C1148 C 0.93798 0.36192 0.62888 0.0
C1149 C 0.94636 0.3912 0.62294 0.0
C1150 C 0.9708 0.39705 0.6171 0.0
C1151 C 0.98672 0.37343 0.61745 0.0
C1152 C 0.97914 0.34467 0.62355 0.0
C1153 C 0.00035 0.32363 0.62448 0.0
C1154 C 0.00183 0.30733 0.67395 0.0
C1155 C 0.99916 0.30186 0.58133 0.0
C1156 C 0.02095 0.34517 0.61833 0.0
C1157 C 0.01253 0.37371 0.6139 0.0
C1158 C 0.02786 0.39764 0.60863 0.0
C1159 C 0.05256 0.39242 0.60871 0.0
C1160 C 0.06181 0.36346 0.61433 0.0
C1161 C 0.04571 0.33948 0.61852 0.0
H1162 H 0.55189 0.37625 0.87962 0.0
H1163 H 0.56052 0.3018 0.9787 0.0
H1164 H 0.51671 0.29666 0.98393 0.0
H1165 H 0.49876 0.4067 0.94063 0.0
H1166 H 0.48489 0.41813 0.88392 0.0
H1167 H 0.51712 0.41673 0.88876 0.0
H1168 H 0.51888 0.38219 0.81314 0.0
H1169 H 0.48667 0.38336 0.80822 0.0
H1170 H 0.50187 0.3484 0.8135 0.0
H1171 H 0.47258 0.29686 0.97418 0.0
H1172 H 0.42987 0.30502 0.95499 0.0
H1173 H 0.44881 0.38091 0.86582 0.0
C1174 C 0.54454 0.35901 0.90265 0.0
C1175 C 0.55971 0.33937 0.92856 0.0
C1176 C 0.54936 0.31717 0.95851 0.0
C1177 C 0.52445 0.314 0.9617 0.0
C1178 C 0.51006 0.33341 0.93527 0.0
C1179 C 0.51961 0.35573 0.9068 0.0
C1180 C 0.49992 0.37352 0.88216 0.0
C1181 C 0.50019 0.40568 0.89995 0.0
C1182 C 0.50196 0.37175 0.82592 0.0
C1183 C 0.47789 0.35733 0.90062 0.0
C1184 C 0.48426 0.33418 0.93101 0.0
C1185 C 0.46731 0.31509 0.95087 0.0
C1186 C 0.44313 0.3198 0.93953 0.0
C1187 C 0.43609 0.3436 0.90905 0.0
C1188 C 0.45371 0.36273 0.88962 0.0
H1189 H 0.05153 0.72988 0.4223 0.0
H1190 H 0.06545 0.63596 0.40666 0.0
H1191 H 0.02234 0.62626 0.40536 0.0
H1192 H 0.99884 0.72185 0.50156 0.0
H1193 H 0.98264 0.75196 0.47374 0.0
H1194 H 0.01497 0.75231 0.47476 0.0
H1195 H 0.01567 0.75843 0.38022 0.0
H1196 H 0.98335 0.75801 0.3789 0.0
H1197 H 0.00012 0.73207 0.34235 0.0
H1198 H 0.97881 0.62565 0.40318 0.0
H1199 H 0.93546 0.6341 0.40219 0.0
H1200 H 0.94727 0.72829 0.41983 0.0
C1201 C 0.04545 0.70732 0.4189 0.0
C1202 C 0.06203 0.68376 0.41424 0.0
C1203 C 0.05329 0.65451 0.4098 0.0
C1204 C 0.02874 0.64866 0.40916 0.0
C1205 C 0.01295 0.67221 0.41313 0.0
C1206 C 0.02073 0.70095 0.41811 0.0
C1207 C 0.99943 0.72191 0.42107 0.0
C1208 C 0.99895 0.73796 0.47074 0.0
C1209 C -0.00034 0.74391 0.37807 0.0
C1210 C 0.97867 0.70031 0.41659 0.0
C1211 C 0.98712 0.67182 0.4121 0.0
C1212 C 0.97188 0.64784 0.40679 0.0
C1213 C 0.9472 0.65296 0.40611 0.0
C1214 C 0.9378 0.6819 0.41075 0.0
C1215 C 0.95384 0.70593 0.4162 0.0
H1216 H 0.14249 0.0669 0.11516 0.0
H1217 H 0.11508 0.11489 0.98922 0.0
H1218 H 0.10725 0.06803 0.94649 0.0
H1219 H 0.17379 1.01379 0.04707 0.0
H1220 H 0.16771 0.98323 0.08754 0.0
H1221 H 0.16823 0.02021 0.11139 0.0
H1222 H 0.12524 1.01343 0.1457 0.0
H1223 H 0.12464 0.97633 0.12206 0.0
H1224 H 0.10146 1.00213 0.10502 0.0
H1225 H 0.10579 1.01659 0.91386 0.0
H1226 H 0.11119 0.96393 0.89365 0.0
H1227 H 0.14002 0.94849 0.0396 0.0
C1228 C 0.13423 0.06741 0.07918 0.0
C1229 C 0.12919 0.09457 0.05568 0.0
C1230 C 0.11903 0.09436 1.00797 0.0
C1231 C 0.11444 0.06784 0.9834 0.0
C1232 C 0.12015 0.04147 1.00683 0.0
C1233 C 0.12976 0.04095 0.0537 0.0
C1234 C 0.13603 1.00959 0.06867 0.0
C1235 C 0.16304 1.00654 0.07928 0.0
C1236 C 0.12094 0.99979 0.113 0.0
C1237 C 0.12895 0.99282 0.02259 0.0
C1238 C 0.11958 1.01162 0.9876 0.0
C1239 C 0.11285 1.00157 0.94119 0.0
C1240 C 0.11602 0.97158 0.92998 0.0
C1241 C 0.12596 0.95188 0.9649 0.0
C1242 C 0.13214 0.96278 1.01209 0.0
H1243 H 0.35788 0.97598 0.61154 0.0
H1244 H 0.37783 0.92486 0.48335 0.0
H1245 H 0.38553 0.97087 0.43744 0.0
H1246 H 0.32583 0.03108 0.5452 0.0
H1247 H 0.33472 0.0612 0.58426 0.0
H1248 H 0.33302 0.02439 0.60878 0.0
H1249 H 0.37721 0.02803 0.6375 0.0
H1250 H 0.37906 0.06488 0.6129 0.0
H1251 H 0.40026 0.03716 0.5936 0.0
H1252 H 0.38989 0.02214 0.40432 0.0
H1253 H 0.38751 0.07492 0.38378 0.0
H1254 H 0.36282 0.09387 0.53168 0.0
C1255 C 0.36426 0.97452 0.57406 0.0
C1256 C 0.3675 0.94673 0.55117 0.0
C1257 C 0.37528 0.94581 0.50169 0.0
C1258 C 0.3798 0.97186 0.47536 0.0
C1259 C 0.37624 0.99885 0.49873 0.0
C1260 C 0.36844 1.00044 0.54683 0.0
C1261 C 0.36432 0.03235 0.56187 0.0
C1262 C 0.3379 0.03755 0.57584 0.0
C1263 C 0.38122 0.04112 0.60397 0.0
C1264 C 0.3708 0.04839 0.51461 0.0
C1265 C 0.37795 0.02858 0.47897 0.0
C1266 C 0.38437 0.03785 0.43199 0.0
C1267 C 0.38297 0.06801 0.42069 0.0
C1268 C 0.37497 0.08883 0.45594 0.0
C1269 C 0.36918 0.07873 0.50387 0.0
H1270 H 0.85043 0.06512 0.12674 0.0
H1271 H 0.88592 0.11293 1.00962 0.0
H1272 H 0.89412 0.06618 0.96662 0.0
H1273 H 0.88902 0.99742 0.122 0.0
H1274 H 0.86401 0.97308 0.13266 0.0
H1275 H 0.86382 1.00977 0.15805 0.0
H1276 H 0.82317 0.02015 0.1153 0.0
H1277 H 0.82332 0.98362 0.08956 0.0
H1278 H 0.82066 1.01526 0.04981 0.0
H1279 H 0.89515 1.01555 0.93208 0.0
H1280 H 0.88895 0.96378 0.90791 0.0
H1281 H 0.852 0.9474 0.04563 0.0
C1282 C 0.86059 0.0655 0.09286 0.0
C1283 C 0.86793 0.09257 0.07181 0.0
C1284 C 0.88039 0.09239 0.02652 0.0
C1285 C 0.88514 0.06594 1.00184 0.0
C1286 C 0.87717 0.03967 0.02266 0.0
C1287 C 0.86522 0.0391 0.06719 0.0
C1288 C 0.85687 1.00796 0.079 0.0
C1289 C 0.86917 0.99637 0.1257 0.0
C1290 C 0.82937 1.00669 0.08368 0.0
C1291 C 0.86552 0.99142 0.03373 0.0
C1292 C 0.87741 1.01017 1.00205 0.0
C1293 C 0.8861 1.00055 0.95683 0.0
C1294 C 0.88241 0.97106 0.94333 0.0
C1295 C 0.87004 0.95134 0.97475 0.0
C1296 C 0.86176 0.96174 0.02089 0.0
H1297 H 0.64845 0.06074 0.43058 0.0
H1298 H 0.58935 0.09688 0.5143 0.0
H1299 H 0.58302 0.04829 0.55387 0.0
H1300 H 0.62425 0.9845 0.41547 0.0
H1301 H 0.65335 0.96782 0.42373 0.0
H1302 H 0.6509 1.00405 0.39688 0.0
H1303 H 0.67973 0.02447 0.46312 0.0
H1304 H 0.68207 0.98844 0.49047 0.0
H1305 H 0.67257 0.01939 0.52712 0.0
H1306 H 0.58528 0.9969 0.58937 0.0
H1307 H 0.59592 0.94713 0.6187 0.0
H1308 H 0.65494 0.94426 0.5147 0.0
C1309 C 0.6336 0.05798 0.45582 0.0
C1310 C 0.61878 0.08224 0.4682 0.0
C1311 C 0.60038 0.07834 0.50334 0.0
C1312 C 0.59676 0.05085 0.52613 0.0
C1313 C 0.61196 0.02746 0.51397 0.0
C1314 C 0.63001 0.03071 0.47953 0.0
C1315 C 0.64516 1.00284 0.47639 0.0
C1316 C 0.6433 0.98898 0.42506 0.0
C1317 C 0.67144 1.00918 0.4901 0.0
C1318 C 0.63306 0.9836 0.51487 0.0
C1319 C 0.6138 0.99815 0.53571 0.0
C1320 C 0.60023 0.98526 0.57301 0.0
C1321 C 0.60648 0.95689 0.58954 0.0
C1322 C 0.62632 0.94149 0.56924 0.0
C1323 C 0.63963 0.95519 0.53107 0.0
H1324 H 0.65001 0.5584 0.11527 0.0
H1325 H 0.60904 0.60574 1.00535 0.0
H1326 H 0.60006 0.55871 0.96306 0.0
H1327 H 0.67769 0.50966 0.03061 0.0
H1328 H 0.67788 0.47825 0.07121 0.0
H1329 H 0.67855 0.51497 0.09618 0.0
H1330 H 0.64071 0.50348 0.14795 0.0
H1331 H 0.63993 0.46669 0.12308 0.0
H1332 H 0.614 0.49027 0.11787 0.0
H1333 H 0.5965 0.50633 0.93122 0.0
H1334 H 0.6019 0.45402 0.908 0.0
H1335 H 0.64784 0.44105 0.03486 0.0
C1336 C 0.63871 0.55866 0.08292 0.0
C1337 C 0.62977 0.58559 0.06402 0.0
C1338 C 0.61578 0.58528 0.02064 0.0
C1339 C 0.61057 0.55866 0.99648 0.0
C1340 C 0.61983 0.53246 1.01559 0.0
C1341 C 0.63383 0.53227 0.05757 0.0
C1342 C 0.64342 0.50149 0.0678 0.0
C1343 C 0.67102 0.50108 0.06635 0.0
C1344 C 0.63394 0.4898 0.11711 0.0
C1345 C 0.6328 0.48449 0.02495 0.0
C1346 C 0.61889 0.50264 0.99576 0.0
C1347 C 0.60735 0.49193 0.95389 0.0
C1348 C 0.61045 0.4621 0.94105 0.0
C1349 C 0.62531 0.44328 0.96941 0.0
C1350 C 0.63637 0.45477 1.01225 0.0
H1351 H 0.8548 0.59266 0.54599 0.0
H1352 H 0.88645 0.57784 0.40247 0.0
H1353 H 0.89298 0.52552 0.42388 0.0
H1354 H 0.89348 0.54124 0.61523 0.0
H1355 H 0.86935 0.52894 0.65424 0.0
H1356 H 0.86908 0.56588 0.62968 0.0
H1357 H 0.82714 0.5566 0.59187 0.0
H1358 H 0.82725 0.51972 0.61636 0.0
H1359 H 0.82285 0.52557 0.55151 0.0
H1360 H 0.89348 0.47442 0.45786 0.0
H1361 H 0.88678 0.42733 0.50076 0.0
H1362 H 0.85472 0.47399 0.62326 0.0
C1363 C 0.86348 0.57855 0.51932 0.0
C1364 C 0.87024 0.58955 0.47247 0.0
C1365 C 0.88114 0.57008 0.43849 0.0
C1366 C 0.885 0.54031 0.45044 0.0
C1367 C 0.87789 0.53016 0.49658 0.0
C1368 C 0.86733 0.54863 0.53055 0.0
C1369 C 0.85996 0.53159 0.57633 0.0
C1370 C 0.8738 0.54257 0.62155 0.0
C1371 C 0.83268 0.53348 0.58447 0.0
C1372 C 0.86762 0.50051 0.56243 0.0
C1373 C 0.87813 0.50039 0.51638 0.0
C1374 C 0.88552 0.47432 0.4941 0.0
C1375 C 0.88162 0.44765 0.51883 0.0
C1376 C 0.87045 0.44694 0.56558 0.0
C1377 C 0.8638 0.47387 0.58811 0.0
H1378 H 0.36315 0.44781 0.03327 0.0
H1379 H 0.38985 0.46674 0.88679 0.0
H1380 H 0.39276 0.51936 0.90786 0.0
H1381 H 0.32688 0.51079 0.04502 0.0
H1382 H 0.3332 0.51728 0.109 0.0
H1383 H 0.33512 0.4805 0.08453 0.0
H1384 H 0.37892 0.47612 0.11534 0.0
H1385 H 0.37708 0.51285 0.14028 0.0
H1386 H 0.40059 0.5036 0.09752 0.0
H1387 H 0.38853 0.57051 0.94085 0.0
H1388 H 0.38053 0.61657 0.98623 0.0
H1389 H 0.35847 0.56566 0.11332 0.0
C1390 C 0.37011 0.4629 1.00595 0.0
C1391 C 0.37627 0.45287 0.95821 0.0
C1392 C 0.38501 0.47361 0.92355 0.0
C1393 C 0.38672 0.50368 0.93516 0.0
C1394 C 0.3799 0.51291 0.98189 0.0
C1395 C 0.37209 0.49315 1.01707 0.0
C1396 C 0.36511 0.50923 0.06399 0.0
C1397 C 0.3385 0.50414 0.07634 0.0
C1398 C 0.3814 0.49989 0.10682 0.0
C1399 C 0.3697 0.54109 0.04921 0.0
C1400 C 0.37819 0.54261 1.0016 0.0
C1401 C 0.38228 0.56957 0.97843 0.0
C1402 C 0.37758 0.59564 1.00444 0.0
C1403 C 0.36911 0.59479 0.05346 0.0
C1404 C 0.36537 0.56704 0.07622 0.0
H1405 H 0.13866 0.59387 0.53814 0.0
H1406 H 0.12486 0.57802 0.38346 0.0
H1407 H 0.12193 0.52467 0.40014 0.0
H1408 H 0.17563 0.53202 0.558 0.0
H1409 H 0.16453 0.52398 0.6187 0.0
H1410 H 0.16364 0.56118 0.59567 0.0
H1411 H 0.11789 0.56349 0.61186 0.0
H1412 H 0.11864 0.52628 0.63516 0.0
H1413 H 0.0986 0.53579 0.58564 0.0
H1414 H 0.12409 0.47291 0.43184 0.0
H1415 H 0.12958 0.42621 0.47686 0.0
H1416 H 0.14079 0.47487 0.61198 0.0
C1417 C 0.13466 0.57927 0.50781 0.0
C1418 C 0.132 0.59032 0.45934 0.0
C1419 C 0.12694 0.57027 0.42085 0.0
C1420 C 0.12523 0.53987 0.42998 0.0
C1421 C 0.1284 0.52972 0.4779 0.0
C1422 C 0.1328 0.5488 0.51631 0.0
C1423 C 0.13638 0.532 0.56409 0.0
C1424 C 0.16154 0.53763 0.58535 0.0
C1425 C 0.1167 0.53986 0.60139 0.0
C1426 C 0.13382 0.50042 0.54636 0.0
C1427 C 0.12917 0.49971 0.49648 0.0
C1428 C 0.12742 0.47322 0.47098 0.0
C1429 C 0.13065 0.44678 0.4969 0.0
C1430 C 0.13546 0.44682 0.54802 0.0
C1431 C 0.13674 0.47409 0.57312 0.0
H1432 H 0.22294 0.22601 0.07979 0.0
H1433 H 0.16638 0.28031 1.01714 0.0
H1434 H 0.19658 0.30758 0.96898 0.0
H1435 H 0.26788 0.28316 0.08914 0.0
H1436 H 0.29203 0.25853 0.07292 0.0
H1437 H 0.26585 0.24444 0.10364 0.0
H1438 H 0.26041 0.20667 0.03324 0.0
H1439 H 0.2862 0.22135 1.00174 0.0
H1440 H 0.25763 0.2196 0.97086 0.0
H1441 H 0.23245 0.32787 0.92643 0.0
H1442 H 0.27252 0.3446 0.9001 0.0
H1443 H 0.30563 0.27631 0.98905 0.0
C1444 C 0.21693 0.24397 0.05656 0.0
C1445 C 0.19235 0.25114 0.05231 0.0
C1446 C 0.18516 0.2747 0.02143 0.0
C1447 C 0.20213 0.29006 0.99348 0.0
C1448 C 0.2261 0.28158 0.99709 0.0
C1449 C 0.23356 0.25944 0.02841 0.0
C1450 C 0.26041 0.25479 0.02577 0.0
C1451 C 0.27222 0.2606 0.07586 0.0
C1452 C 0.26651 0.22376 1.00676 0.0
C1453 C 0.26698 0.27818 0.98856 0.0
C1454 C 0.24685 0.29308 0.97204 0.0
C1455 C 0.24834 0.31638 0.93897 0.0
C1456 C 0.27112 0.32561 0.92412 0.0
C1457 C 0.29201 0.31157 0.94245 0.0
C1458 C 0.2899 0.28696 0.97376 0.0
H1459 H 0.31165 0.77148 0.53956 0.0
H1460 H 0.28282 0.81415 0.66897 0.0
H1461 H 0.24254 0.79454 0.64964 0.0
H1462 H 0.26636 0.78904 0.46305 0.0
H1463 H 0.26531 0.75508 0.42878 0.0
H1464 H 0.29274 0.76622 0.45816 0.0
H1465 H 0.29467 0.7168 0.50565 0.0
H1466 H 0.26747 0.70522 0.47555 0.0
H1467 H 0.26921 0.7052 0.54163 0.0
H1468 H 0.20491 0.78097 0.60741 0.0
H1469 H 0.17235 0.76224 0.55455 0.0
H1470 H 0.22521 0.7276 0.45265 0.0
C1471 C 0.29707 0.77522 0.56513 0.0
C1472 C 0.30018 0.7937 0.60617 0.0
C1473 C 0.28064 0.7995 0.63787 0.0
C1474 C 0.25775 0.78884 0.62689 0.0
C1475 C 0.2548 0.7726 0.58408 0.0
C1476 C 0.27398 0.76491 0.55446 0.0
C1477 C 0.26551 0.74913 0.50865 0.0
C1478 C 0.27291 0.76589 0.4619 0.0
C1479 C 0.27476 0.71718 0.50785 0.0
C1480 C 0.23862 0.75029 0.51638 0.0
C1481 C 0.23285 0.76406 0.56 0.0
C1482 C 0.20916 0.76953 0.57366 0.0
C1483 C 0.19081 0.75932 0.543 0.0
C1484 C 0.19636 0.74365 0.49955 0.0
C1485 C 0.22056 0.73956 0.48573 0.0
H1486 H 0.19095 0.77711 0.02725 0.0
H1487 H 0.22351 0.82998 0.91225 0.0
H1488 H 0.26363 0.814 0.93907 0.0
H1489 H 0.23284 0.792 0.11799 0.0
H1490 H 0.234 0.75558 0.14443 0.0
H1491 H 0.20721 0.76792 0.11365 0.0
H1492 H 0.20871 0.7231 0.05496 0.0
H1493 H 0.23499 0.71001 0.0868 0.0
H1494 H 0.23586 0.71548 0.02125 0.0
H1495 H 0.29974 0.79843 0.98398 0.0
H1496 H 0.33096 0.77417 0.03364 0.0
H1497 H 0.27585 0.72936 0.11818 0.0
C1498 C 0.20651 0.78431 1.00665 0.0
C1499 C 0.20427 0.80472 0.96775 0.0
C1500 C 0.22498 0.81432 0.94221 0.0
C1501 C 0.24781 0.80557 0.95734 0.0
C1502 C 0.24957 0.78697 0.99772 0.0
C1503 C 0.22958 0.77563 0.02119 0.0
C1504 C 0.23683 0.75633 0.06424 0.0
C1505 C 0.22714 0.76871 0.11294 0.0
C1506 C 0.22862 0.72433 0.05631 0.0
C1507 C 0.2639 0.75907 0.06141 0.0
C1508 C 0.27076 0.77723 0.0232 0.0
C1509 C 0.2947 0.78388 1.01376 0.0
C1510 C 0.31228 0.77038 0.04267 0.0
C1511 C 0.30575 0.75013 0.07991 0.0
C1512 C 0.28125 0.74498 0.09015 0.0
H1513 H 0.30771 0.26856 0.48894 0.0
H1514 H 0.27284 0.19907 0.40592 0.0
H1515 H 0.23365 0.21449 0.4385 0.0
H1516 H 0.27397 0.26261 0.59422 0.0
H1517 H 0.27161 0.30147 0.60709 0.0
H1518 H 0.29675 0.28769 0.5725 0.0
H1519 H 0.28681 0.32347 0.50108 0.0
H1520 H 0.2619 0.33764 0.53605 0.0
H1521 H 0.25705 0.32341 0.47509 0.0
H1522 H 0.19963 0.23194 0.48868 0.0
H1523 H 0.17037 0.25816 0.54024 0.0
H1524 H 0.22659 0.31758 0.58947 0.0
C1525 C 0.29171 0.25742 0.47616 0.0
C1526 C 0.29324 0.23258 0.4452 0.0
C1527 C 0.27199 0.2181 0.4299 0.0
C1528 C 0.24967 0.22658 0.44832 0.0
C1529 C 0.24889 0.24987 0.48133 0.0
C1530 C 0.26913 0.26578 0.49395 0.0
C1531 C 0.26313 0.28946 0.53119 0.0
C1532 C 0.27721 0.28503 0.57912 0.0
C1533 C 0.26747 0.32033 0.50955 0.0
C1534 C 0.23665 0.28356 0.5386 0.0
C1535 C 0.22888 0.26053 0.50963 0.0
C1536 C 0.20535 0.25035 0.51103 0.0
C1537 C 0.18894 0.26515 0.54102 0.0
C1538 C 0.19615 0.29002 0.56879 0.0
C1539 C 0.22052 0.29867 0.56864 0.0
H1540 H 0.77601 0.83385 0.99254 0.0
H1541 H 0.81377 0.75889 0.93045 0.0
H1542 H 0.77952 0.72678 0.95178 0.0
H1543 H 0.75511 0.79706 0.09479 0.0
H1544 H 0.72656 0.8157 0.09813 0.0
H1545 H 0.75187 0.83383 0.07047 0.0
H1546 H 0.72721 0.84225 0.99214 0.0
H1547 H 0.70165 0.82306 1.01718 0.0
H1548 H 0.71465 0.81138 0.95976 0.0
H1549 H 0.74492 0.70244 0.98806 0.0
H1550 H 0.71133 0.68556 0.03816 0.0
H1551 H 0.69509 0.77594 0.07954 0.0
C1552 C 0.77672 0.81084 0.98205 0.0
C1553 C 0.79729 0.79874 0.95927 0.0
C1554 C 0.79804 0.76844 0.94761 0.0
C1555 C 0.77867 0.75018 0.95935 0.0
C1556 C 0.7589 0.76266 0.9829 0.0
C1557 C 0.75773 0.79225 0.99424 0.0
C1558 C 0.7357 0.79936 0.02476 0.0
C1559 C 0.74274 0.81223 0.075 0.0
C1560 C 0.71877 0.82023 0.99681 0.0
C1561 C 0.72499 0.76886 0.03006 0.0
C1562 C 0.73864 0.74826 1.00498 0.0
C1563 C 0.73391 0.71833 1.00732 0.0
C1564 C 0.71491 0.70902 0.03651 0.0
C1565 C 0.70078 0.72951 0.06337 0.0
C1566 C 0.70554 0.75992 0.05926 0.0
H1567 H 0.77603 0.31498 0.58702 0.0
H1568 H 0.8326 0.25833 0.53052 0.0
H1569 H 0.80227 0.22696 0.49094 0.0
H1570 H 0.73298 0.25597 0.61132 0.0
H1571 H 0.70761 0.2782 0.59342 0.0
H1572 H 0.73384 0.29542 0.61918 0.0
H1573 H 0.73676 0.32915 0.54252 0.0
H1574 H 0.71085 0.31158 0.51606 0.0
H1575 H 0.73868 0.31275 0.48238 0.0
H1576 H 0.76668 0.20366 0.45376 0.0
H1577 H 0.72689 0.18538 0.4294 0.0
H1578 H 0.69307 0.25666 0.51051 0.0
C1579 C 0.782 0.29573 0.56692 0.0
C1580 C 0.80663 0.28908 0.56178 0.0
C1581 C 0.8138 0.26371 0.53525 0.0
C1582 C 0.79674 0.24589 0.5123 0.0
C1583 C 0.77268 0.25364 0.51671 0.0
C1584 C 0.76522 0.27758 0.54404 0.0
C1585 C 0.73819 0.28086 0.543 0.0
C1586 C 0.72753 0.27739 0.5948 0.0
C1587 C 0.73069 0.31034 0.51958 0.0
C1588 C 0.7317 0.2551 0.51044 0.0
C1589 C 0.75192 0.23989 0.49548 0.0
C1590 C 0.75067 0.2152 0.46547 0.0
C1591 C 0.72801 0.20507 0.45178 0.0
C1592 C 0.70698 0.21959 0.46834 0.0
C1593 C 0.70887 0.24533 0.49702 0.0
H1594 H 0.68647 0.26452 1.01144 0.0
H1595 H 0.71476 0.3078 0.88216 0.0
H1596 H 0.75582 0.29193 0.90513 0.0
H1597 H 0.7288 0.28716 0.0897 0.0
H1598 H 0.73151 0.25408 0.12604 0.0
H1599 H 0.70385 0.26206 0.0947 0.0
H1600 H 0.70547 0.21205 0.04921 0.0
H1601 H 0.73258 0.20322 0.08216 0.0
H1602 H 0.73221 0.20186 1.01601 0.0
H1603 H 0.79347 0.28111 0.95036 0.0
H1604 H 0.82588 0.26442 1.00537 0.0
H1605 H 0.77294 0.22836 0.1058 0.0
C1606 C 0.70121 0.26897 0.98655 0.0
C1607 C 0.69773 0.2864 0.94437 0.0
C1608 C 0.71728 0.29351 0.91368 0.0
C1609 C 0.74058 0.28507 0.92685 0.0
C1610 C 0.7437 0.2697 0.97068 0.0
C1611 C 0.72452 0.26081 0.99932 0.0
C1612 C 0.73286 0.24658 0.04662 0.0
C1613 C 0.7237 0.2635 0.0919 0.0
C1614 C 0.72535 0.21399 0.04858 0.0
C1615 C 0.75969 0.24982 0.04077 0.0
C1616 C 0.76555 0.26335 0.99691 0.0
C1617 C 0.78917 0.26997 0.9844 0.0
C1618 C 0.80742 0.26092 1.01634 0.0
C1619 C 0.80182 0.24523 0.05987 0.0
C1620 C 0.77764 0.24042 0.07281 0.0
H1621 H 0.77719 0.72767 0.44694 0.0
H1622 H 0.82655 0.7621 0.55574 0.0
H1623 H 0.79211 0.77993 0.60512 0.0
H1624 H 0.73313 0.78739 0.45652 0.0
H1625 H 0.70833 0.76259 0.44692 0.0
H1626 H 0.73707 0.75463 0.41994 0.0
H1627 H 0.7364 0.70341 0.46235 0.0
H1628 H 0.70807 0.71179 0.49098 0.0
H1629 H 0.73343 0.70124 0.52817 0.0
H1630 H 0.75232 0.78983 0.64538 0.0
H1631 H 0.7101 0.80333 0.66376 0.0
H1632 H 0.68742 0.76272 0.5278 0.0
C1633 C 0.78072 0.73965 0.48057 0.0
C1634 C 0.80436 0.74379 0.49753 0.0
C1635 C 0.80849 0.75926 0.54181 0.0
C1636 C 0.78909 0.76888 0.5705 0.0
C1637 C 0.76591 0.76284 0.55407 0.0
C1638 C 0.76168 0.74945 0.50937 0.0
C1639 C 0.73515 0.74635 0.49917 0.0
C1640 C 0.72802 0.7638 0.45291 0.0
C1641 C 0.72785 0.71376 0.49493 0.0
C1642 C 0.72503 0.76012 0.54519 0.0
C1643 C 0.74303 0.76894 0.57689 0.0
C1644 C 0.73802 0.78307 0.62109 0.0
C1645 C 0.71406 0.79016 0.6316 0.0
C1646 C 0.69573 0.78326 0.59769 0.0
C1647 C 0.70114 0.76716 0.55499 0.0
loop_
_geom_bond_atom_site_label_1
_geom_bond_atom_site_label_2
_geom_bond_distance
_geom_bond_site_symmetry_2
_ccdc_geom_bond_type
Fe0 O2 1.918 . S
Fe0 O5 1.997 . S
Fe0 O6 2.002 . S
Fe0 O11 1.976 . S
Fe0 O14 1.996 1_554 S
Fe1 O2 1.918 . S
Fe1 O9 1.997 . S
Fe1 O12 1.996 . S
Fe1 O16 1.976 . S
Fe1 O19 2.002 . S
O2 Fe0 1.918 . S
O2 Fe1 1.918 . S
O2 Fe3 1.918 . S
Fe3 O2 1.918 . S
Fe3 O4 2.002 . S
Fe3 O13 1.976 1_554 S
Fe3 O17 1.996 . S
Fe3 O20 1.997 . S
O4 Fe3 2.002 . S
O4 C21 1.295 . S
O5 Fe0 1.997 . S
O5 C21 1.235 . S
O6 Fe0 2.002 . S
O6 C7 1.295 . S
C7 O6 1.295 . S
C7 O9 1.235 . S
C8 O13 1.287 . S
C8 O14 1.255 . S
O9 Fe1 1.997 . S
O9 C7 1.235 . S
C10 O16 1.287 . S
C10 O17 1.255 . S
O11 Fe0 1.976 . S
O11 C18 1.287 . S
O12 Fe1 1.996 . S
O12 C18 1.255 . S
O13 Fe3 1.976 1_556 S
O13 C8 1.287 . S
O14 Fe0 1.996 1_556 S
O14 C8 1.255 . S
C15 O19 1.295 . S
C15 O20 1.235 . S
O16 Fe1 1.976 . S
O16 C10 1.287 . S
O17 Fe3 1.996 . S
O17 C10 1.255 . S
C18 O11 1.287 . S
C18 O12 1.255 . S
O19 Fe1 2.002 . S
O19 C15 1.295 . S
O20 Fe3 1.997 . S
O20 C15 1.235 . S
C21 O4 1.295 . S
C21 O5 1.235 . S
Fe22 O24 1.918 . S
Fe22 O27 1.997 . S
Fe22 O28 2.002 . S
Fe22 O33 1.976 . S
Fe22 O36 1.996 . S
Fe23 O24 1.918 . S
Fe23 O31 1.997 . S
Fe23 O34 1.996 . S
Fe23 O38 1.976 . S
Fe23 O41 2.002 . S
O24 Fe22 1.918 . S
O24 Fe23 1.918 . S
O24 Fe25 1.918 . S
Fe25 O24 1.918 . S
Fe25 O26 2.002 . S
Fe25 O35 1.976 . S
Fe25 O39 1.996 . S
Fe25 O42 1.997 . S
O26 Fe25 2.002 . S
O26 C43 1.295 . S
O27 Fe22 1.997 . S
O27 C43 1.235 . S
O28 Fe22 2.002 . S
O28 C29 1.295 . S
C29 O28 1.295 . S
C29 O31 1.235 . S
C30 O35 1.287 . S
C30 O36 1.255 . S
O31 Fe23 1.997 . S
O31 C29 1.235 . S
C32 O38 1.287 . S
C32 O39 1.255 . S
O33 Fe22 1.976 . S
O33 C40 1.287 . S
O34 Fe23 1.996 . S
O34 C40 1.255 . S
O35 Fe25 1.976 . S
O35 C30 1.287 . S
O36 Fe22 1.996 . S
O36 C30 1.255 . S
C37 O41 1.295 . S
C37 O42 1.235 . S
O38 Fe23 1.976 . S
O38 C32 1.287 . S
O39 Fe25 1.996 . S
O39 C32 1.255 . S
C40 O33 1.287 . S
C40 O34 1.255 . S
O41 Fe23 2.002 . S
O41 C37 1.295 . S
O42 Fe25 1.997 . S
O42 C37 1.235 . S
C43 O26 1.295 . S
C43 O27 1.235 . S
Fe44 O46 1.918 . S
Fe44 O49 1.997 . S
Fe44 O50 2.002 . S
Fe44 O55 1.976 . S
Fe44 O58 1.996 1_556 S
Fe45 O46 1.918 . S
Fe45 O53 1.997 . S
Fe45 O56 1.996 . S
Fe45 O60 1.976 . S
Fe45 O63 2.002 . S
O46 Fe44 1.918 . S
O46 Fe45 1.918 . S
O46 Fe47 1.918 . S
Fe47 O46 1.918 . S
Fe47 O48 2.002 . S
Fe47 O57 1.976 1_556 S
Fe47 O61 1.996 . S
Fe47 O64 1.997 . S
O48 Fe47 2.002 . S
O48 C65 1.295 . S
O49 Fe44 1.997 . S
O49 C65 1.235 . S
O50 Fe44 2.002 . S
O50 C51 1.295 . S
C51 O50 1.295 . S
C51 O53 1.235 . S
C52 O57 1.287 . S
C52 O58 1.255 . S
O53 Fe45 1.997 . S
O53 C51 1.235 . S
C54 O60 1.287 . S
C54 O61 1.255 . S
O55 Fe44 1.976 . S
O55 C62 1.287 . S
O56 Fe45 1.996 . S
O56 C62 1.255 . S
O57 Fe47 1.976 1_554 S
O57 C52 1.287 . S
O58 Fe44 1.996 1_554 S
O58 C52 1.255 . S
C59 O63 1.295 . S
C59 O64 1.235 . S
O60 Fe45 1.976 . S
O60 C54 1.287 . S
O61 Fe47 1.996 . S
O61 C54 1.255 . S
C62 O55 1.287 . S
C62 O56 1.255 . S
O63 Fe45 2.002 . S
O63 C59 1.295 . S
O64 Fe47 1.997 . S
O64 C59 1.235 . S
C65 O48 1.295 . S
C65 O49 1.235 . S
Fe66 O68 1.918 . S
Fe66 O71 1.997 . S
Fe66 O72 2.002 . S
Fe66 O77 1.976 . S
Fe66 O80 1.996 . S
Fe67 O68 1.918 . S
Fe67 O75 1.997 . S
Fe67 O78 1.996 . S
Fe67 O82 1.976 . S
Fe67 O85 2.002 . S
O68 Fe66 1.918 . S
O68 Fe67 1.918 . S
O68 Fe69 1.918 . S
Fe69 O68 1.918 . S
Fe69 O70 2.002 . S
Fe69 O79 1.976 . S
Fe69 O83 1.996 . S
Fe69 O86 1.997 . S
O70 Fe69 2.002 . S
O70 C87 1.295 . S
O71 Fe66 1.997 . S
O71 C87 1.235 . S
O72 Fe66 2.002 . S
O72 C73 1.295 . S
C73 O72 1.295 . S
C73 O75 1.235 . S
C74 O79 1.287 . S
C74 O80 1.255 . S
O75 Fe67 1.997 . S
O75 C73 1.235 . S
C76 O82 1.287 . S
C76 O83 1.255 . S
O77 Fe66 1.976 . S
O77 C84 1.287 . S
O78 Fe67 1.996 . S
O78 C84 1.255 . S
O79 Fe69 1.976 . S
O79 C74 1.287 . S
O80 Fe66 1.996 . S
O80 C74 1.255 . S
C81 O85 1.295 . S
C81 O86 1.235 . S
O82 Fe67 1.976 . S
O82 C76 1.287 . S
O83 Fe69 1.996 . S
O83 C76 1.255 . S
C84 O77 1.287 . S
C84 O78 1.255 . S
O85 Fe67 2.002 . S
O85 C81 1.295 . S
O86 Fe69 1.997 . S
O86 C81 1.235 . S
C87 O70 1.295 . S
C87 O71 1.235 . S
Fe88 O90 1.918 . S
Fe88 O93 1.997 . S
Fe88 O94 2.002 . S
Fe88 O99 1.976 . S
Fe88 O102 1.996 . S
Fe89 O90 1.918 . S
Fe89 O97 1.997 . S
Fe89 O100 1.996 . S
Fe89 O104 1.976 1_556 S
Fe89 O107 2.002 . S
O90 Fe88 1.918 . S
O90 Fe89 1.918 . S
O90 Fe91 1.918 . S
Fe91 O90 1.918 . S
Fe91 O92 2.002 . S
Fe91 O101 1.976 . S
Fe91 O105 1.996 1_556 S
Fe91 O108 1.997 . S
O92 Fe91 2.002 . S
O92 C109 1.295 . S
O93 Fe88 1.997 . S
O93 C109 1.235 . S
O94 Fe88 2.002 . S
O94 C95 1.295 . S
C95 O94 1.295 . S
C95 O97 1.235 . S
C96 O101 1.287 . S
C96 O102 1.255 . S
O97 Fe89 1.997 . S
O97 C95 1.235 . S
C98 O104 1.287 . S
C98 O105 1.255 . S
O99 Fe88 1.976 . S
O99 C106 1.287 . S
O100 Fe89 1.996 . S
O100 C106 1.255 . S
O101 Fe91 1.976 . S
O101 C96 1.287 . S
O102 Fe88 1.996 . S
O102 C96 1.255 . S
C103 O107 1.295 . S
C103 O108 1.235 . S
O104 Fe89 1.976 1_554 S
O104 C98 1.287 . S
O105 Fe91 1.996 1_554 S
O105 C98 1.255 . S
C106 O99 1.287 . S
C106 O100 1.255 . S
O107 Fe89 2.002 . S
O107 C103 1.295 . S
O108 Fe91 1.997 . S
O108 C103 1.235 . S
C109 O92 1.295 . S
C109 O93 1.235 . S
Fe110 O112 1.918 . S
Fe110 O115 1.997 . S
Fe110 O116 2.002 . S
Fe110 O121 1.976 . S
Fe110 O124 1.996 . S
Fe111 O112 1.918 . S
Fe111 O119 1.997 . S
Fe111 O122 1.996 . S
Fe111 O126 1.976 . S
Fe111 O129 2.002 . S
O112 Fe110 1.918 . S
O112 Fe111 1.918 . S
O112 Fe113 1.918 . S
Fe113 O112 1.918 . S
Fe113 O114 2.002 . S
Fe113 O123 1.976 . S
Fe113 O127 1.996 . S
Fe113 O130 1.997 . S
O114 Fe113 2.002 . S
O114 C131 1.295 . S
O115 Fe110 1.997 . S
O115 C131 1.235 . S
O116 Fe110 2.002 . S
O116 C117 1.295 . S
C117 O116 1.295 . S
C117 O119 1.235 . S
C118 O123 1.287 . S
C118 O124 1.255 . S
O119 Fe111 1.997 . S
O119 C117 1.235 . S
C120 O126 1.287 . S
C120 O127 1.255 . S
O121 Fe110 1.976 . S
O121 C128 1.287 . S
O122 Fe111 1.996 . S
O122 C128 1.255 . S
O123 Fe113 1.976 . S
O123 C118 1.287 . S
O124 Fe110 1.996 . S
O124 C118 1.255 . S
C125 O129 1.295 . S
C125 O130 1.235 . S
O126 Fe111 1.976 . S
O126 C120 1.287 . S
O127 Fe113 1.996 . S
O127 C120 1.255 . S
C128 O121 1.287 . S
C128 O122 1.255 . S
O129 Fe111 2.002 . S
O129 C125 1.295 . S
O130 Fe113 1.997 . S
O130 C125 1.235 . S
C131 O114 1.295 . S
C131 O115 1.235 . S
Fe132 O134 1.918 . S
Fe132 O137 1.997 . S
Fe132 O138 2.002 . S
Fe132 O143 1.976 . S
Fe132 O146 1.996 . S
Fe133 O134 1.918 . S
Fe133 O141 1.997 . S
Fe133 O144 1.996 . S
Fe133 O148 1.976 1_554 S
Fe133 O151 2.002 . S
O134 Fe132 1.918 . S
O134 Fe133 1.918 . S
O134 Fe135 1.918 . S
Fe135 O134 1.918 . S
Fe135 O136 2.002 . S
Fe135 O145 1.976 . S
Fe135 O149 1.996 1_554 S
Fe135 O152 1.997 . S
O136 Fe135 2.002 . S
O136 C153 1.295 . S
O137 Fe132 1.997 . S
O137 C153 1.235 . S
O138 Fe132 2.002 . S
O138 C139 1.295 . S
C139 O138 1.295 . S
C139 O141 1.235 . S
C140 O145 1.287 . S
C140 O146 1.255 . S
O141 Fe133 1.997 . S
O141 C139 1.235 . S
C142 O148 1.287 . S
C142 O149 1.255 . S
O143 Fe132 1.976 . S
O143 C150 1.287 . S
O144 Fe133 1.996 . S
O144 C150 1.255 . S
O145 Fe135 1.976 . S
O145 C140 1.287 . S
O146 Fe132 1.996 . S
O146 C140 1.255 . S
C147 O151 1.295 . S
C147 O152 1.235 . S
O148 Fe133 1.976 1_556 S
O148 C142 1.287 . S
O149 Fe135 1.996 1_556 S
O149 C142 1.255 . S
C150 O143 1.287 . S
C150 O144 1.255 . S
O151 Fe133 2.002 . S
O151 C147 1.295 . S
O152 Fe135 1.997 . S
O152 C147 1.235 . S
C153 O136 1.295 . S
C153 O137 1.235 . S
Fe154 O156 1.918 . S
Fe154 O159 1.997 . S
Fe154 O160 2.002 . S
Fe154 O165 1.976 . S
Fe154 O168 1.996 . S
Fe155 O156 1.918 . S
Fe155 O163 1.997 . S
Fe155 O166 1.996 . S
Fe155 O170 1.976 . S
Fe155 O173 2.002 . S
O156 Fe154 1.918 . S
O156 Fe155 1.918 . S
O156 Fe157 1.918 . S
Fe157 O156 1.918 . S
Fe157 O158 2.002 . S
Fe157 O167 1.976 . S
Fe157 O171 1.996 . S
Fe157 O174 1.997 . S
O158 Fe157 2.002 . S
O158 C175 1.295 . S
O159 Fe154 1.997 . S
O159 C175 1.235 . S
O160 Fe154 2.002 . S
O160 C161 1.295 . S
C161 O160 1.295 . S
C161 O163 1.235 . S
C162 O167 1.287 . S
C162 O168 1.255 . S
O163 Fe155 1.997 . S
O163 C161 1.235 . S
C164 O170 1.287 . S
C164 O171 1.255 . S
O165 Fe154 1.976 . S
O165 C172 1.287 . S
O166 Fe155 1.996 . S
O166 C172 1.255 . S
O167 Fe157 1.976 . S
O167 C162 1.287 . S
O168 Fe154 1.996 . S
O168 C162 1.255 . S
C169 O173 1.295 . S
C169 O174 1.235 . S
O170 Fe155 1.976 . S
O170 C164 1.287 . S
O171 Fe157 1.996 . S
O171 C164 1.255 . S
C172 O165 1.287 . S
C172 O166 1.255 . S
O173 Fe155 2.002 . S
O173 C169 1.295 . S
O174 Fe157 1.997 . S
O174 C169 1.235 . S
C175 O158 1.295 . S
C175 O159 1.235 . S
Fe176 O178 1.918 . S
Fe176 O181 1.997 . S
Fe176 O182 2.002 . S
Fe176 O187 1.976 . S
Fe176 O190 1.996 1_554 S
Fe177 O178 1.918 . S
Fe177 O185 1.997 . S
Fe177 O188 1.996 . S
Fe177 O192 1.976 . S
Fe177 O195 2.002 . S
O178 Fe176 1.918 . S
O178 Fe177 1.918 . S
O178 Fe179 1.918 . S
Fe179 O178 1.918 . S
Fe179 O180 2.002 . S
Fe179 O189 1.976 1_554 S
Fe179 O193 1.996 . S
Fe179 O196 1.997 . S
O180 Fe179 2.002 . S
O180 C197 1.295 . S
O181 Fe176 1.997 . S
O181 C197 1.235 . S
O182 Fe176 2.002 . S
O182 C183 1.295 . S
C183 O182 1.295 . S
C183 O185 1.235 . S
C184 O189 1.287 . S
C184 O190 1.255 . S
O185 Fe177 1.997 . S
O185 C183 1.235 . S
C186 O192 1.287 . S
C186 O193 1.255 . S
O187 Fe176 1.976 . S
O187 C194 1.287 . S
O188 Fe177 1.996 . S
O188 C194 1.255 . S
O189 Fe179 1.976 1_556 S
O189 C184 1.287 . S
O190 Fe176 1.996 1_556 S
O190 C184 1.255 . S
C191 O195 1.295 . S
C191 O196 1.235 . S
O192 Fe177 1.976 . S
O192 C186 1.287 . S
O193 Fe179 1.996 . S
O193 C186 1.255 . S
C194 O187 1.287 . S
C194 O188 1.255 . S
O195 Fe177 2.002 . S
O195 C191 1.295 . S
O196 Fe179 1.997 . S
O196 C191 1.235 . S
C197 O180 1.295 . S
C197 O181 1.235 . S
Fe198 O200 1.918 . S
Fe198 O203 1.997 . S
Fe198 O204 2.002 . S
Fe198 O209 1.976 . S
Fe198 O212 1.996 . S
Fe199 O200 1.918 . S
Fe199 O207 1.997 . S
Fe199 O210 1.996 . S
Fe199 O214 1.976 . S
Fe199 O217 2.002 . S
O200 Fe198 1.918 . S
O200 Fe199 1.918 . S
O200 Fe201 1.918 . S
Fe201 O200 1.918 . S
Fe201 O202 2.002 . S
Fe201 O211 1.976 . S
Fe201 O215 1.996 . S
Fe201 O218 1.997 . S
O202 Fe201 2.002 . S
O202 C219 1.295 . S
O203 Fe198 1.997 . S
O203 C219 1.235 . S
O204 Fe198 2.002 . S
O204 C205 1.295 . S
C205 O204 1.295 . S
C205 O207 1.235 . S
C206 O211 1.287 . S
C206 O212 1.255 . S
O207 Fe199 1.997 . S
O207 C205 1.235 . S
C208 O214 1.287 . S
C208 O215 1.255 . S
O209 Fe198 1.976 . S
O209 C216 1.287 . S
O210 Fe199 1.996 . S
O210 C216 1.255 . S
O211 Fe201 1.976 . S
O211 C206 1.287 . S
O212 Fe198 1.996 . S
O212 C206 1.255 . S
C213 O217 1.295 . S
C213 O218 1.235 . S
O214 Fe199 1.976 . S
O214 C208 1.287 . S
O215 Fe201 1.996 . S
O215 C208 1.255 . S
C216 O209 1.287 . S
C216 O210 1.255 . S
O217 Fe199 2.002 . S
O217 C213 1.295 . S
O218 Fe201 1.997 . S
O218 C213 1.235 . S
C219 O202 1.295 . S
C219 O203 1.235 . S
Fe220 O222 1.918 . S
Fe220 O225 1.997 . S
Fe220 O226 2.002 . S
Fe220 O231 1.976 . S
Fe220 O234 1.996 1_556 S
Fe221 O222 1.918 . S
Fe221 O229 1.997 . S
Fe221 O232 1.996 . S
Fe221 O236 1.976 . S
Fe221 O239 2.002 . S
O222 Fe220 1.918 . S
O222 Fe221 1.918 . S
O222 Fe223 1.918 . S
Fe223 O222 1.918 . S
Fe223 O224 2.002 . S
Fe223 O233 1.976 1_556 S
Fe223 O237 1.996 . S
Fe223 O240 1.997 . S
O224 Fe223 2.002 . S
O224 C241 1.295 . S
O225 Fe220 1.997 . S
O225 C241 1.235 . S
O226 Fe220 2.002 . S
O226 C227 1.295 . S
C227 O226 1.295 . S
C227 O229 1.235 . S
C228 O233 1.287 . S
C228 O234 1.255 . S
O229 Fe221 1.997 . S
O229 C227 1.235 . S
C230 O236 1.287 . S
C230 O237 1.255 . S
O231 Fe220 1.976 . S
O231 C238 1.287 . S
O232 Fe221 1.996 . S
O232 C238 1.255 . S
O233 Fe223 1.976 1_554 S
O233 C228 1.287 . S
O234 Fe220 1.996 1_554 S
O234 C228 1.255 . S
C235 O239 1.295 . S
C235 O240 1.235 . S
O236 Fe221 1.976 . S
O236 C230 1.287 . S
O237 Fe223 1.996 . S
O237 C230 1.255 . S
C238 O231 1.287 . S
C238 O232 1.255 . S
O239 Fe221 2.002 . S
O239 C235 1.295 . S
O240 Fe223 1.997 . S
O240 C235 1.235 . S
C241 O224 1.295 . S
C241 O225 1.235 . S
Fe242 O244 1.918 . S
Fe242 O247 1.997 . S
Fe242 O248 2.002 . S
Fe242 O253 1.976 . S
Fe242 O256 1.996 . S
Fe243 O244 1.918 . S
Fe243 O251 1.997 . S
Fe243 O254 1.996 . S
Fe243 O258 1.976 . S
Fe243 O261 2.002 . S
O244 Fe242 1.918 . S
O244 Fe243 1.918 . S
O244 Fe245 1.918 . S
Fe245 O244 1.918 . S
Fe245 O246 2.002 . S
Fe245 O255 1.976 . S
Fe245 O259 1.996 . S
Fe245 O262 1.997 . S
O246 Fe245 2.002 . S
O246 C263 1.295 . S
O247 Fe242 1.997 . S
O247 C263 1.235 . S
O248 Fe242 2.002 . S
O248 C249 1.295 . S
C249 O248 1.295 . S
C249 O251 1.235 . S
C250 O255 1.287 . S
C250 O256 1.255 . S
O251 Fe243 1.997 . S
O251 C249 1.235 . S
C252 O258 1.287 . S
C252 O259 1.255 . S
O253 Fe242 1.976 . S
O253 C260 1.287 . S
O254 Fe243 1.996 . S
O254 C260 1.255 . S
O255 Fe245 1.976 . S
O255 C250 1.287 . S
O256 Fe242 1.996 . S
O256 C250 1.255 . S
C257 O261 1.295 . S
C257 O262 1.235 . S
O258 Fe243 1.976 . S
O258 C252 1.287 . S
O259 Fe245 1.996 . S
O259 C252 1.255 . S
C260 O253 1.287 . S
C260 O254 1.255 . S
O261 Fe243 2.002 . S
O261 C257 1.295 . S
O262 Fe245 1.997 . S
O262 C257 1.235 . S
C263 O246 1.295 . S
C263 O247 1.235 . S
Fe264 O266 1.918 . S
Fe264 O269 1.997 . S
Fe264 O270 2.002 . S
Fe264 O275 1.976 . S
Fe264 O278 1.996 . S
Fe265 O266 1.918 . S
Fe265 O273 1.997 . S
Fe265 O276 1.996 . S
Fe265 O280 1.976 1_556 S
Fe265 O283 2.002 . S
O266 Fe264 1.918 . S
O266 Fe265 1.918 . S
O266 Fe267 1.918 . S
Fe267 O266 1.918 . S
Fe267 O268 2.002 . S
Fe267 O277 1.976 . S
Fe267 O281 1.996 1_556 S
Fe267 O284 1.997 . S
O268 Fe267 2.002 . S
O268 C285 1.295 . S
O269 Fe264 1.997 . S
O269 C285 1.235 . S
O270 Fe264 2.002 . S
O270 C271 1.295 . S
C271 O270 1.295 . S
C271 O273 1.235 . S
C272 O277 1.287 . S
C272 O278 1.255 . S
O273 Fe265 1.997 . S
O273 C271 1.235 . S
C274 O280 1.287 . S
C274 O281 1.255 . S
O275 Fe264 1.976 . S
O275 C282 1.287 . S
O276 Fe265 1.996 . S
O276 C282 1.255 . S
O277 Fe267 1.976 . S
O277 C272 1.287 . S
O278 Fe264 1.996 . S
O278 C272 1.255 . S
C279 O283 1.295 . S
C279 O284 1.235 . S
O280 Fe265 1.976 1_554 S
O280 C274 1.287 . S
O281 Fe267 1.996 1_554 S
O281 C274 1.255 . S
C282 O275 1.287 . S
C282 O276 1.255 . S
O283 Fe265 2.002 . S
O283 C279 1.295 . S
O284 Fe267 1.997 . S
O284 C279 1.235 . S
C285 O268 1.295 . S
C285 O269 1.235 . S
Fe286 O288 1.918 . S
Fe286 O291 1.997 . S
Fe286 O292 2.002 . S
Fe286 O297 1.976 . S
Fe286 O300 1.996 . S
Fe287 O288 1.918 . S
Fe287 O295 1.997 . S
Fe287 O298 1.996 . S
Fe287 O302 1.976 . S
Fe287 O305 2.002 . S
O288 Fe286 1.918 . S
O288 Fe287 1.918 . S
O288 Fe289 1.918 . S
Fe289 O288 1.918 . S
Fe289 O290 2.002 . S
Fe289 O299 1.976 . S
Fe289 O303 1.996 . S
Fe289 O306 1.997 . S
O290 Fe289 2.002 . S
O290 C307 1.295 . S
O291 Fe286 1.997 . S
O291 C307 1.235 . S
O292 Fe286 2.002 . S
O292 C293 1.295 . S
C293 O292 1.295 . S
C293 O295 1.235 . S
C294 O299 1.287 . S
C294 O300 1.255 . S
O295 Fe287 1.997 . S
O295 C293 1.235 . S
C296 O302 1.287 . S
C296 O303 1.255 . S
O297 Fe286 1.976 . S
O297 C304 1.287 . S
O298 Fe287 1.996 . S
O298 C304 1.255 . S
O299 Fe289 1.976 . S
O299 C294 1.287 . S
O300 Fe286 1.996 . S
O300 C294 1.255 . S
C301 O305 1.295 . S
C301 O306 1.235 . S
O302 Fe287 1.976 . S
O302 C296 1.287 . S
O303 Fe289 1.996 . S
O303 C296 1.255 . S
C304 O297 1.287 . S
C304 O298 1.255 . S
O305 Fe287 2.002 . S
O305 C301 1.295 . S
O306 Fe289 1.997 . S
O306 C301 1.235 . S
C307 O290 1.295 . S
C307 O291 1.235 . S
Fe308 O310 1.918 . S
Fe308 O313 1.997 . S
Fe308 O314 2.002 . S
Fe308 O319 1.976 1_554 S
Fe308 O322 1.996 . S
Fe309 O310 1.918 . S
Fe309 O317 1.997 . S
Fe309 O320 1.996 1_554 S
Fe309 O324 1.976 . S
Fe309 O327 2.002 . S
O310 Fe308 1.918 . S
O310 Fe309 1.918 . S
O310 Fe311 1.918 . S
Fe311 O310 1.918 . S
Fe311 O312 2.002 . S
Fe311 O321 1.976 . S
Fe311 O325 1.996 . S
Fe311 O328 1.997 . S
O312 Fe311 2.002 . S
O312 C329 1.295 . S
O313 Fe308 1.997 . S
O313 C329 1.235 . S
O314 Fe308 2.002 . S
O314 C315 1.295 . S
C315 O314 1.295 . S
C315 O317 1.235 . S
C316 O321 1.287 . S
C316 O322 1.255 . S
O317 Fe309 1.997 . S
O317 C315 1.235 . S
C318 O324 1.287 . S
C318 O325 1.255 . S
O319 Fe308 1.976 1_556 S
O319 C326 1.287 . S
O320 Fe309 1.996 1_556 S
O320 C326 1.255 . S
O321 Fe311 1.976 . S
O321 C316 1.287 . S
O322 Fe308 1.996 . S
O322 C316 1.255 . S
C323 O327 1.295 . S
C323 O328 1.235 . S
O324 Fe309 1.976 . S
O324 C318 1.287 . S
O325 Fe311 1.996 . S
O325 C318 1.255 . S
C326 O319 1.287 . S
C326 O320 1.255 . S
O327 Fe309 2.002 . S
O327 C323 1.295 . S
O328 Fe311 1.997 . S
O328 C323 1.235 . S
C329 O312 1.295 . S
C329 O313 1.235 . S
Fe330 O332 1.918 . S
Fe330 O335 1.997 . S
Fe330 O336 2.002 . S
Fe330 O341 1.976 . S
Fe330 O344 1.996 . S
Fe331 O332 1.918 . S
Fe331 O339 1.997 . S
Fe331 O342 1.996 . S
Fe331 O346 1.976 . S
Fe331 O349 2.002 . S
O332 Fe330 1.918 . S
O332 Fe331 1.918 . S
O332 Fe333 1.918 . S
Fe333 O332 1.918 . S
Fe333 O334 2.002 . S
Fe333 O343 1.976 . S
Fe333 O347 1.996 . S
Fe333 O350 1.997 . S
O334 Fe333 2.002 . S
O334 C351 1.295 . S
O335 Fe330 1.997 . S
O335 C351 1.235 . S
O336 Fe330 2.002 . S
O336 C337 1.295 . S
C337 O336 1.295 . S
C337 O339 1.235 . S
C338 O343 1.287 . S
C338 O344 1.255 . S
O339 Fe331 1.997 . S
O339 C337 1.235 . S
C340 O346 1.287 . S
C340 O347 1.255 . S
O341 Fe330 1.976 . S
O341 C348 1.287 . S
O342 Fe331 1.996 . S
O342 C348 1.255 . S
O343 Fe333 1.976 . S
O343 C338 1.287 . S
O344 Fe330 1.996 . S
O344 C338 1.255 . S
C345 O349 1.295 . S
C345 O350 1.235 . S
O346 Fe331 1.976 . S
O346 C340 1.287 . S
O347 Fe333 1.996 . S
O347 C340 1.255 . S
C348 O341 1.287 . S
C348 O342 1.255 . S
O349 Fe331 2.002 . S
O349 C345 1.295 . S
O350 Fe333 1.997 . S
O350 C345 1.235 . S
C351 O334 1.295 . S
C351 O335 1.235 . S
H352 C364 0.930 . S
H353 C366 0.930 . S
H354 C367 0.930 . S
H355 C371 0.959 . S
H356 C371 0.959 . S
H357 C371 0.961 . S
H358 C372 0.960 . S
H359 C372 0.961 . S
H360 C372 0.959 . S
H361 C375 0.929 . S
H362 C376 0.931 . S
H363 C378 0.930 . S
C364 H352 0.930 . S
C364 C365 1.399 . S
C364 C369 1.399 . S
C365 C364 1.399 . S
C365 C366 1.376 . S
C366 H353 0.930 . S
C366 C365 1.376 . S
C366 C367 1.388 . S
C367 H354 0.930 . S
C367 C366 1.388 . S
C367 C368 1.390 . S
C368 C367 1.390 . S
C368 C369 1.394 . S
C368 C374 1.465 . S
C369 C364 1.399 . S
C369 C368 1.394 . S
C369 C370 1.516 . S
C370 C369 1.516 . S
C370 C371 1.502 . S
C370 C372 1.561 . S
C370 C373 1.526 . S
C371 H355 0.959 . S
C371 H356 0.959 . S
C371 H357 0.961 . S
C371 C370 1.502 . S
C372 H358 0.960 . S
C372 H359 0.961 . S
C372 H360 0.959 . S
C372 C370 1.561 . S
C373 C370 1.526 . S
C373 C374 1.396 . S
C373 C378 1.390 . S
C374 C368 1.465 . S
C374 C373 1.396 . S
C374 C375 1.399 . S
C375 H361 0.929 . S
C375 C374 1.399 . S
C375 C376 1.385 . S
C376 H362 0.931 . S
C376 C375 1.385 . S
C376 C377 1.389 . S
C377 C376 1.389 . S
C377 C378 1.387 . S
C378 H363 0.930 . S
C378 C373 1.390 . S
C378 C377 1.387 . S
H379 C391 0.930 . S
H380 C393 0.930 . S
H381 C394 0.930 . S
H382 C398 0.959 . S
H383 C398 0.959 . S
H384 C398 0.961 . S
H385 C399 0.960 . S
H386 C399 0.961 . S
H387 C399 0.959 . S
H388 C402 0.929 . S
H389 C403 0.931 . S
H390 C405 0.930 . S
C391 H379 0.930 . S
C391 C392 1.399 . S
C391 C396 1.399 . S
C392 C391 1.399 . S
C392 C393 1.376 . S
C393 H380 0.930 . S
C393 C392 1.376 . S
C393 C394 1.388 . S
C394 H381 0.930 . S
C394 C393 1.388 . S
C394 C395 1.390 . S
C395 C394 1.390 . S
C395 C396 1.394 . S
C395 C401 1.465 . S
C396 C391 1.399 . S
C396 C395 1.394 . S
C396 C397 1.516 . S
C397 C396 1.516 . S
C397 C398 1.502 . S
C397 C399 1.561 . S
C397 C400 1.526 . S
C398 H382 0.959 . S
C398 H383 0.959 . S
C398 H384 0.961 . S
C398 C397 1.502 . S
C399 H385 0.960 . S
C399 H386 0.961 . S
C399 H387 0.959 . S
C399 C397 1.561 . S
C400 C397 1.526 . S
C400 C401 1.396 . S
C400 C405 1.390 . S
C401 C395 1.465 . S
C401 C400 1.396 . S
C401 C402 1.399 . S
C402 H388 0.929 . S
C402 C401 1.399 . S
C402 C403 1.385 . S
C403 H389 0.931 . S
C403 C402 1.385 . S
C403 C404 1.389 . S
C404 C403 1.389 . S
C404 C405 1.387 . S
C405 H390 0.930 . S
C405 C400 1.390 . S
C405 C404 1.387 . S
H406 C418 0.930 . S
H407 C420 0.930 . S
H408 C421 0.930 . S
H409 C425 0.959 . S
H410 C425 0.959 . S
H411 C425 0.961 . S
H412 C426 0.960 . S
H413 C426 0.961 . S
H414 C426 0.959 . S
H415 C429 0.929 . S
H416 C430 0.931 . S
H417 C432 0.930 . S
C418 H406 0.930 . S
C418 C419 1.399 . S
C418 C423 1.399 . S
C419 C418 1.399 . S
C419 C420 1.376 . S
C420 H407 0.930 . S
C420 C419 1.376 . S
C420 C421 1.388 . S
C421 H408 0.930 . S
C421 C420 1.388 . S
C421 C422 1.390 . S
C422 C421 1.390 . S
C422 C423 1.394 . S
C422 C428 1.465 . S
C423 C418 1.399 . S
C423 C422 1.394 . S
C423 C424 1.516 . S
C424 C423 1.516 . S
C424 C425 1.502 . S
C424 C426 1.561 . S
C424 C427 1.526 . S
C425 H409 0.959 . S
C425 H410 0.959 . S
C425 H411 0.961 . S
C425 C424 1.502 . S
C426 H412 0.960 . S
C426 H413 0.961 . S
C426 H414 0.959 . S
C426 C424 1.561 . S
C427 C424 1.526 . S
C427 C428 1.396 . S
C427 C432 1.390 . S
C428 C422 1.465 . S
C428 C427 1.396 . S
C428 C429 1.399 . S
C429 H415 0.929 . S
C429 C428 1.399 . S
C429 C430 1.385 . S
C430 H416 0.931 . S
C430 C429 1.385 . S
C430 C431 1.389 . S
C431 C430 1.389 . S
C431 C432 1.387 . S
C432 H417 0.930 . S
C432 C427 1.390 . S
C432 C431 1.387 . S
H433 C445 0.930 . S
H434 C447 0.930 . S
H435 C448 0.930 . S
H436 C452 0.959 . S
H437 C452 0.959 . S
H438 C452 0.961 . S
H439 C453 0.960 . S
H440 C453 0.961 . S
H441 C453 0.959 . S
H442 C456 0.929 . S
H443 C457 0.931 . S
H444 C459 0.930 . S
C445 H433 0.930 . S
C445 C446 1.399 . S
C445 C450 1.399 . S
C446 C445 1.399 . S
C446 C447 1.376 . S
C447 H434 0.930 . S
C447 C446 1.376 . S
C447 C448 1.388 . S
C448 H435 0.930 . S
C448 C447 1.388 . S
C448 C449 1.390 . S
C449 C448 1.390 . S
C449 C450 1.394 . S
C449 C455 1.465 . S
C450 C445 1.399 . S
C450 C449 1.394 . S
C450 C451 1.516 . S
C451 C450 1.516 . S
C451 C452 1.502 . S
C451 C453 1.561 . S
C451 C454 1.526 . S
C452 H436 0.959 . S
C452 H437 0.959 . S
C452 H438 0.961 . S
C452 C451 1.502 . S
C453 H439 0.960 . S
C453 H440 0.961 . S
C453 H441 0.959 . S
C453 C451 1.561 . S
C454 C451 1.526 . S
C454 C455 1.396 . S
C454 C459 1.390 . S
C455 C449 1.465 . S
C455 C454 1.396 . S
C455 C456 1.399 . S
C456 H442 0.929 . S
C456 C455 1.399 . S
C456 C457 1.385 . S
C457 H443 0.931 . S
C457 C456 1.385 . S
C457 C458 1.389 . S
C458 C457 1.389 . S
C458 C459 1.387 . S
C459 H444 0.930 . S
C459 C454 1.390 . S
C459 C458 1.387 . S
H460 C472 0.930 . S
H461 C474 0.930 . S
H462 C475 0.930 . S
H463 C479 0.959 . S
H464 C479 0.959 . S
H465 C479 0.961 . S
H466 C480 0.960 . S
H467 C480 0.961 . S
H468 C480 0.959 . S
H469 C483 0.929 . S
H470 C484 0.931 . S
H471 C486 0.930 . S
C472 H460 0.930 . S
C472 C473 1.399 . S
C472 C477 1.399 . S
C473 C472 1.399 . S
C473 C474 1.376 . S
C474 H461 0.930 . S
C474 C473 1.376 . S
C474 C475 1.388 . S
C475 H462 0.930 . S
C475 C474 1.388 . S
C475 C476 1.390 . S
C476 C475 1.390 . S
C476 C477 1.394 . S
C476 C482 1.465 . S
C477 C472 1.399 . S
C477 C476 1.394 . S
C477 C478 1.516 . S
C478 C477 1.516 . S
C478 C479 1.502 . S
C478 C480 1.561 . S
C478 C481 1.526 . S
C479 H463 0.959 . S
C479 H464 0.959 . S
C479 H465 0.961 . S
C479 C478 1.502 . S
C480 H466 0.960 . S
C480 H467 0.961 . S
C480 H468 0.959 . S
C480 C478 1.561 . S
C481 C478 1.526 . S
C481 C482 1.396 . S
C481 C486 1.390 . S
C482 C476 1.465 . S
C482 C481 1.396 . S
C482 C483 1.399 . S
C483 H469 0.929 . S
C483 C482 1.399 . S
C483 C484 1.385 . S
C484 H470 0.931 . S
C484 C483 1.385 . S
C484 C485 1.389 . S
C485 C484 1.389 . S
C485 C486 1.387 . S
C486 H471 0.930 . S
C486 C481 1.390 . S
C486 C485 1.387 . S
H487 C499 0.930 . S
H488 C501 0.930 . S
H489 C502 0.930 . S
H490 C506 0.959 . S
H491 C506 0.959 . S
H492 C506 0.961 . S
H493 C507 0.960 . S
H494 C507 0.961 . S
H495 C507 0.959 . S
H496 C510 0.929 . S
H497 C511 0.931 . S
H498 C513 0.930 . S
C499 H487 0.930 . S
C499 C500 1.399 . S
C499 C504 1.399 . S
C500 C499 1.399 . S
C500 C501 1.376 . S
C501 H488 0.930 . S
C501 C500 1.376 . S
C501 C502 1.388 . S
C502 H489 0.930 . S
C502 C501 1.388 . S
C502 C503 1.390 . S
C503 C502 1.390 . S
C503 C504 1.394 . S
C503 C509 1.465 . S
C504 C499 1.399 . S
C504 C503 1.394 . S
C504 C505 1.516 . S
C505 C504 1.516 . S
C505 C506 1.502 . S
C505 C507 1.561 . S
C505 C508 1.526 . S
C506 H490 0.959 . S
C506 H491 0.959 . S
C506 H492 0.961 . S
C506 C505 1.502 . S
C507 H493 0.960 . S
C507 H494 0.961 . S
C507 H495 0.959 . S
C507 C505 1.561 . S
C508 C505 1.526 . S
C508 C509 1.396 . S
C508 C513 1.390 . S
C509 C503 1.465 . S
C509 C508 1.396 . S
C509 C510 1.399 . S
C510 H496 0.929 . S
C510 C509 1.399 . S
C510 C511 1.385 . S
C511 H497 0.931 . S
C511 C510 1.385 . S
C511 C512 1.389 . S
C512 C511 1.389 . S
C512 C513 1.387 . S
C513 H498 0.930 . S
C513 C508 1.390 . S
C513 C512 1.387 . S
H514 C526 0.930 . S
H515 C528 0.930 . S
H516 C529 0.930 . S
H517 C533 0.959 . S
H518 C533 0.959 . S
H519 C533 0.961 . S
H520 C534 0.960 . S
H521 C534 0.961 . S
H522 C534 0.959 . S
H523 C537 0.929 . S
H524 C538 0.931 . S
H525 C540 0.930 . S
C526 H514 0.930 . S
C526 C527 1.399 . S
C526 C531 1.399 . S
C527 C526 1.399 . S
C527 C528 1.376 . S
C528 H515 0.930 . S
C528 C527 1.376 . S
C528 C529 1.388 . S
C529 H516 0.930 . S
C529 C528 1.388 . S
C529 C530 1.390 . S
C530 C529 1.390 . S
C530 C531 1.394 . S
C530 C536 1.465 . S
C531 C526 1.399 . S
C531 C530 1.394 . S
C531 C532 1.516 . S
C532 C531 1.516 . S
C532 C533 1.502 . S
C532 C534 1.561 . S
C532 C535 1.526 . S
C533 H517 0.959 . S
C533 H518 0.959 . S
C533 H519 0.961 . S
C533 C532 1.502 . S
C534 H520 0.960 . S
C534 H521 0.961 . S
C534 H522 0.959 . S
C534 C532 1.561 . S
C535 C532 1.526 . S
C535 C536 1.396 . S
C535 C540 1.390 . S
C536 C530 1.465 . S
C536 C535 1.396 . S
C536 C537 1.399 . S
C537 H523 0.929 . S
C537 C536 1.399 . S
C537 C538 1.385 . S
C538 H524 0.931 . S
C538 C537 1.385 . S
C538 C539 1.389 . S
C539 C538 1.389 . S
C539 C540 1.387 . S
C540 H525 0.930 . S
C540 C535 1.390 . S
C540 C539 1.387 . S
H541 C553 0.930 . S
H542 C555 0.930 . S
H543 C556 0.930 . S
H544 C560 0.959 . S
H545 C560 0.959 . S
H546 C560 0.961 . S
H547 C561 0.960 . S
H548 C561 0.961 . S
H549 C561 0.959 . S
H550 C564 0.929 . S
H551 C565 0.931 . S
H552 C567 0.930 . S
C553 H541 0.930 . S
C553 C554 1.399 . S
C553 C558 1.399 . S
C554 C553 1.399 . S
C554 C555 1.376 . S
C555 H542 0.930 . S
C555 C554 1.376 . S
C555 C556 1.388 . S
C556 H543 0.930 . S
C556 C555 1.388 . S
C556 C557 1.390 . S
C557 C556 1.390 . S
C557 C558 1.394 . S
C557 C563 1.465 . S
C558 C553 1.399 . S
C558 C557 1.394 . S
C558 C559 1.516 . S
C559 C558 1.516 . S
C559 C560 1.502 . S
C559 C561 1.561 . S
C559 C562 1.526 . S
C560 H544 0.959 . S
C560 H545 0.959 . S
C560 H546 0.961 . S
C560 C559 1.502 . S
C561 H547 0.960 . S
C561 H548 0.961 . S
C561 H549 0.959 . S
C561 C559 1.561 . S
C562 C559 1.526 . S
C562 C563 1.396 . S
C562 C567 1.390 . S
C563 C557 1.465 . S
C563 C562 1.396 . S
C563 C564 1.399 . S
C564 H550 0.929 . S
C564 C563 1.399 . S
C564 C565 1.385 . S
C565 H551 0.931 . S
C565 C564 1.385 . S
C565 C566 1.389 . S
C566 C565 1.389 . S
C566 C567 1.387 . S
C567 H552 0.930 . S
C567 C562 1.390 . S
C567 C566 1.387 . S
H568 C580 0.930 . S
H569 C582 0.930 . S
H570 C583 0.930 . S
H571 C587 0.959 . S
H572 C587 0.959 . S
H573 C587 0.961 . S
H574 C588 0.960 . S
H575 C588 0.961 . S
H576 C588 0.959 . S
H577 C591 0.929 . S
H578 C592 0.931 . S
H579 C594 0.930 . S
C580 H568 0.930 . S
C580 C581 1.399 . S
C580 C585 1.399 . S
C581 C580 1.399 . S
C581 C582 1.376 . S
C582 H569 0.930 . S
C582 C581 1.376 . S
C582 C583 1.388 . S
C583 H570 0.930 . S
C583 C582 1.388 . S
C583 C584 1.390 . S
C584 C583 1.390 . S
C584 C585 1.394 . S
C584 C590 1.465 . S
C585 C580 1.399 . S
C585 C584 1.394 . S
C585 C586 1.516 . S
C586 C585 1.516 . S
C586 C587 1.502 . S
C586 C588 1.561 . S
C586 C589 1.526 . S
C587 H571 0.959 . S
C587 H572 0.959 . S
C587 H573 0.961 . S
C587 C586 1.502 . S
C588 H574 0.960 . S
C588 H575 0.961 . S
C588 H576 0.959 . S
C588 C586 1.561 . S
C589 C586 1.526 . S
C589 C590 1.396 . S
C589 C594 1.390 . S
C590 C584 1.465 . S
C590 C589 1.396 . S
C590 C591 1.399 . S
C591 H577 0.929 . S
C591 C590 1.399 . S
C591 C592 1.385 . S
C592 H578 0.931 . S
C592 C591 1.385 . S
C592 C593 1.389 . S
C593 C592 1.389 . S
C593 C594 1.387 . S
C594 H579 0.930 . S
C594 C589 1.390 . S
C594 C593 1.387 . S
H595 C607 0.930 . S
H596 C609 0.930 . S
H597 C610 0.930 . S
H598 C614 0.959 . S
H599 C614 0.959 . S
H600 C614 0.961 . S
H601 C615 0.960 . S
H602 C615 0.961 . S
H603 C615 0.959 . S
H604 C618 0.929 . S
H605 C619 0.931 . S
H606 C621 0.930 . S
C607 H595 0.930 . S
C607 C608 1.399 . S
C607 C612 1.399 . S
C608 C607 1.399 . S
C608 C609 1.376 . S
C609 H596 0.930 . S
C609 C608 1.376 . S
C609 C610 1.388 . S
C610 H597 0.930 . S
C610 C609 1.388 . S
C610 C611 1.390 . S
C611 C610 1.390 . S
C611 C612 1.394 . S
C611 C617 1.465 . S
C612 C607 1.399 . S
C612 C611 1.394 . S
C612 C613 1.516 . S
C613 C612 1.516 . S
C613 C614 1.502 . S
C613 C615 1.561 . S
C613 C616 1.526 . S
C614 H598 0.959 . S
C614 H599 0.959 . S
C614 H600 0.961 . S
C614 C613 1.502 . S
C615 H601 0.960 . S
C615 H602 0.961 . S
C615 H603 0.959 . S
C615 C613 1.561 . S
C616 C613 1.526 . S
C616 C617 1.396 . S
C616 C621 1.390 . S
C617 C611 1.465 . S
C617 C616 1.396 . S
C617 C618 1.399 . S
C618 H604 0.929 . S
C618 C617 1.399 . S
C618 C619 1.385 . S
C619 H605 0.931 . S
C619 C618 1.385 . S
C619 C620 1.389 . S
C620 C619 1.389 . S
C620 C621 1.387 . S
C621 H606 0.930 . S
C621 C616 1.390 . S
C621 C620 1.387 . S
H622 C634 0.930 . S
H623 C636 0.930 . S
H624 C637 0.930 . S
H625 C641 0.959 . S
H626 C641 0.959 . S
H627 C641 0.961 . S
H628 C642 0.960 . S
H629 C642 0.961 . S
H630 C642 0.959 . S
H631 C645 0.929 . S
H632 C646 0.931 . S
H633 C648 0.930 . S
C634 H622 0.930 . S
C634 C635 1.399 . S
C634 C639 1.399 . S
C635 C634 1.399 . S
C635 C636 1.376 . S
C636 H623 0.930 . S
C636 C635 1.376 . S
C636 C637 1.388 . S
C637 H624 0.930 . S
C637 C636 1.388 . S
C637 C638 1.390 . S
C638 C637 1.390 . S
C638 C639 1.394 . S
C638 C644 1.465 . S
C639 C634 1.399 . S
C639 C638 1.394 . S
C639 C640 1.516 . S
C640 C639 1.516 . S
C640 C641 1.502 . S
C640 C642 1.561 . S
C640 C643 1.526 . S
C641 H625 0.959 . S
C641 H626 0.959 . S
C641 H627 0.961 . S
C641 C640 1.502 . S
C642 H628 0.960 . S
C642 H629 0.961 . S
C642 H630 0.959 . S
C642 C640 1.561 . S
C643 C640 1.526 . S
C643 C644 1.396 . S
C643 C648 1.390 . S
C644 C638 1.465 . S
C644 C643 1.396 . S
C644 C645 1.399 . S
C645 H631 0.929 . S
C645 C644 1.399 . S
C645 C646 1.385 . S
C646 H632 0.931 . S
C646 C645 1.385 . S
C646 C647 1.389 . S
C647 C646 1.389 . S
C647 C648 1.387 . S
C648 H633 0.930 . S
C648 C643 1.390 . S
C648 C647 1.387 . S
H649 C661 0.930 . S
H650 C663 0.930 . S
H651 C664 0.930 . S
H652 C668 0.959 . S
H653 C668 0.959 . S
H654 C668 0.961 . S
H655 C669 0.960 . S
H656 C669 0.961 . S
H657 C669 0.959 . S
H658 C672 0.929 . S
H659 C673 0.931 . S
H660 C675 0.930 . S
C661 H649 0.930 . S
C661 C662 1.399 . S
C661 C666 1.399 . S
C662 C661 1.399 . S
C662 C663 1.376 . S
C663 H650 0.930 . S
C663 C662 1.376 . S
C663 C664 1.388 . S
C664 H651 0.930 . S
C664 C663 1.388 . S
C664 C665 1.390 . S
C665 C664 1.390 . S
C665 C666 1.394 . S
C665 C671 1.465 . S
C666 C661 1.399 . S
C666 C665 1.394 . S
C666 C667 1.516 . S
C667 C666 1.516 . S
C667 C668 1.502 . S
C667 C669 1.561 . S
C667 C670 1.526 . S
C668 H652 0.959 . S
C668 H653 0.959 . S
C668 H654 0.961 . S
C668 C667 1.502 . S
C669 H655 0.960 . S
C669 H656 0.961 . S
C669 H657 0.959 . S
C669 C667 1.561 . S
C670 C667 1.526 . S
C670 C671 1.396 . S
C670 C675 1.390 . S
C671 C665 1.465 . S
C671 C670 1.396 . S
C671 C672 1.399 . S
C672 H658 0.929 . S
C672 C671 1.399 . S
C672 C673 1.385 . S
C673 H659 0.931 . S
C673 C672 1.385 . S
C673 C674 1.389 . S
C674 C673 1.389 . S
C674 C675 1.387 . S
C675 H660 0.930 . S
C675 C670 1.390 . S
C675 C674 1.387 . S
H676 C688 0.930 . S
H677 C690 0.930 . S
H678 C691 0.930 . S
H679 C695 0.959 . S
H680 C695 0.959 . S
H681 C695 0.961 . S
H682 C696 0.960 . S
H683 C696 0.961 . S
H684 C696 0.959 . S
H685 C699 0.929 . S
H686 C700 0.931 . S
H687 C702 0.930 . S
C688 H676 0.930 . S
C688 C689 1.399 . S
C688 C693 1.399 . S
C689 C688 1.399 . S
C689 C690 1.376 . S
C690 H677 0.930 . S
C690 C689 1.376 . S
C690 C691 1.388 . S
C691 H678 0.930 . S
C691 C690 1.388 . S
C691 C692 1.390 . S
C692 C691 1.390 . S
C692 C693 1.394 . S
C692 C698 1.465 . S
C693 C688 1.399 . S
C693 C692 1.394 . S
C693 C694 1.516 . S
C694 C693 1.516 . S
C694 C695 1.502 . S
C694 C696 1.561 . S
C694 C697 1.526 . S
C695 H679 0.959 . S
C695 H680 0.959 . S
C695 H681 0.961 . S
C695 C694 1.502 . S
C696 H682 0.960 . S
C696 H683 0.961 . S
C696 H684 0.959 . S
C696 C694 1.561 . S
C697 C694 1.526 . S
C697 C698 1.396 . S
C697 C702 1.390 . S
C698 C692 1.465 . S
C698 C697 1.396 . S
C698 C699 1.399 . S
C699 H685 0.929 . S
C699 C698 1.399 . S
C699 C700 1.385 . S
C700 H686 0.931 . S
C700 C699 1.385 . S
C700 C701 1.389 . S
C701 C700 1.389 . S
C701 C702 1.387 . S
C702 H687 0.930 . S
C702 C697 1.390 . S
C702 C701 1.387 . S
H703 C715 0.930 . S
H704 C717 0.930 . S
H705 C718 0.930 . S
H706 C722 0.959 . S
H707 C722 0.959 . S
H708 C722 0.961 . S
H709 C723 0.960 . S
H710 C723 0.961 . S
H711 C723 0.959 . S
H712 C726 0.929 . S
H713 C727 0.931 . S
H714 C729 0.930 . S
C715 H703 0.930 . S
C715 C716 1.399 . S
C715 C720 1.399 . S
C716 C715 1.399 . S
C716 C717 1.376 . S
C717 H704 0.930 . S
C717 C716 1.376 . S
C717 C718 1.388 . S
C718 H705 0.930 . S
C718 C717 1.388 . S
C718 C719 1.390 . S
C719 C718 1.390 . S
C719 C720 1.394 . S
C719 C725 1.465 . S
C720 C715 1.399 . S
C720 C719 1.394 . S
C720 C721 1.516 . S
C721 C720 1.516 . S
C721 C722 1.502 . S
C721 C723 1.561 . S
C721 C724 1.526 . S
C722 H706 0.959 . S
C722 H707 0.959 . S
C722 H708 0.961 . S
C722 C721 1.502 . S
C723 H709 0.960 . S
C723 H710 0.961 . S
C723 H711 0.959 . S
C723 C721 1.561 . S
C724 C721 1.526 . S
C724 C725 1.396 . S
C724 C729 1.390 . S
C725 C719 1.465 . S
C725 C724 1.396 . S
C725 C726 1.399 . S
C726 H712 0.929 . S
C726 C725 1.399 . S
C726 C727 1.385 . S
C727 H713 0.931 . S
C727 C726 1.385 . S
C727 C728 1.389 . S
C728 C727 1.389 . S
C728 C729 1.387 . S
C729 H714 0.930 . S
C729 C724 1.390 . S
C729 C728 1.387 . S
H730 C742 0.930 . S
H731 C744 0.930 . S
H732 C745 0.930 . S
H733 C749 0.959 . S
H734 C749 0.959 . S
H735 C749 0.961 . S
H736 C750 0.960 . S
H737 C750 0.961 . S
H738 C750 0.959 . S
H739 C753 0.929 . S
H740 C754 0.931 . S
H741 C756 0.930 . S
C742 H730 0.930 . S
C742 C743 1.399 . S
C742 C747 1.399 . S
C743 C742 1.399 . S
C743 C744 1.376 . S
C744 H731 0.930 . S
C744 C743 1.376 . S
C744 C745 1.388 . S
C745 H732 0.930 . S
C745 C744 1.388 . S
C745 C746 1.390 . S
C746 C745 1.390 . S
C746 C747 1.394 . S
C746 C752 1.465 . S
C747 C742 1.399 . S
C747 C746 1.394 . S
C747 C748 1.516 . S
C748 C747 1.516 . S
C748 C749 1.502 . S
C748 C750 1.561 . S
C748 C751 1.526 . S
C749 H733 0.959 . S
C749 H734 0.959 . S
C749 H735 0.961 . S
C749 C748 1.502 . S
C750 H736 0.960 . S
C750 H737 0.961 . S
C750 H738 0.959 . S
C750 C748 1.561 . S
C751 C748 1.526 . S
C751 C752 1.396 . S
C751 C756 1.390 . S
C752 C746 1.465 . S
C752 C751 1.396 . S
C752 C753 1.399 . S
C753 H739 0.929 . S
C753 C752 1.399 . S
C753 C754 1.385 . S
C754 H740 0.931 . S
C754 C753 1.385 . S
C754 C755 1.389 . S
C755 C754 1.389 . S
C755 C756 1.387 . S
C756 H741 0.930 . S
C756 C751 1.390 . S
C756 C755 1.387 . S
H757 C769 0.930 . S
H758 C771 0.930 . S
H759 C772 0.930 . S
H760 C776 0.959 . S
H761 C776 0.959 . S
H762 C776 0.961 . S
H763 C777 0.960 . S
H764 C777 0.961 . S
H765 C777 0.959 . S
H766 C780 0.929 . S
H767 C781 0.931 . S
H768 C783 0.930 . S
C769 H757 0.930 . S
C769 C770 1.399 . S
C769 C774 1.399 . S
C770 C769 1.399 . S
C770 C771 1.376 . S
C771 H758 0.930 . S
C771 C770 1.376 . S
C771 C772 1.388 . S
C772 H759 0.930 . S
C772 C771 1.388 . S
C772 C773 1.390 . S
C773 C772 1.390 . S
C773 C774 1.394 . S
C773 C779 1.465 . S
C774 C769 1.399 . S
C774 C773 1.394 . S
C774 C775 1.516 . S
C775 C774 1.516 . S
C775 C776 1.502 . S
C775 C777 1.561 . S
C775 C778 1.526 . S
C776 H760 0.959 . S
C776 H761 0.959 . S
C776 H762 0.961 . S
C776 C775 1.502 . S
C777 H763 0.960 . S
C777 H764 0.961 . S
C777 H765 0.959 . S
C777 C775 1.561 . S
C778 C775 1.526 . S
C778 C779 1.396 . S
C778 C783 1.390 . S
C779 C773 1.465 . S
C779 C778 1.396 . S
C779 C780 1.399 . S
C780 H766 0.929 . S
C780 C779 1.399 . S
C780 C781 1.385 . S
C781 H767 0.931 . S
C781 C780 1.385 . S
C781 C782 1.389 . S
C782 C781 1.389 . S
C782 C783 1.387 . S
C783 H768 0.930 . S
C783 C778 1.390 . S
C783 C782 1.387 . S
H784 C796 0.930 . S
H785 C798 0.930 . S
H786 C799 0.930 . S
H787 C803 0.959 . S
H788 C803 0.959 . S
H789 C803 0.961 . S
H790 C804 0.960 . S
H791 C804 0.961 . S
H792 C804 0.959 . S
H793 C807 0.929 . S
H794 C808 0.931 . S
H795 C810 0.930 . S
C796 H784 0.930 . S
C796 C797 1.399 . S
C796 C801 1.399 . S
C797 C796 1.399 . S
C797 C798 1.376 . S
C798 H785 0.930 . S
C798 C797 1.376 . S
C798 C799 1.388 . S
C799 H786 0.930 . S
C799 C798 1.388 . S
C799 C800 1.390 . S
C800 C799 1.390 . S
C800 C801 1.394 . S
C800 C806 1.465 . S
C801 C796 1.399 . S
C801 C800 1.394 . S
C801 C802 1.516 . S
C802 C801 1.516 . S
C802 C803 1.502 . S
C802 C804 1.561 . S
C802 C805 1.526 . S
C803 H787 0.959 . S
C803 H788 0.959 . S
C803 H789 0.961 . S
C803 C802 1.502 . S
C804 H790 0.960 . S
C804 H791 0.961 . S
C804 H792 0.959 . S
C804 C802 1.561 . S
C805 C802 1.526 . S
C805 C806 1.396 . S
C805 C810 1.390 . S
C806 C800 1.465 . S
C806 C805 1.396 . S
C806 C807 1.399 . S
C807 H793 0.929 . S
C807 C806 1.399 . S
C807 C808 1.385 . S
C808 H794 0.931 . S
C808 C807 1.385 . S
C808 C809 1.389 . S
C809 C808 1.389 . S
C809 C810 1.387 . S
C810 H795 0.930 . S
C810 C805 1.390 . S
C810 C809 1.387 . S
H811 C823 0.930 . S
H812 C825 0.930 . S
H813 C826 0.930 . S
H814 C830 0.959 . S
H815 C830 0.959 . S
H816 C830 0.961 . S
H817 C831 0.960 . S
H818 C831 0.961 . S
H819 C831 0.959 . S
H820 C834 0.929 . S
H821 C835 0.931 . S
H822 C837 0.930 . S
C823 H811 0.930 . S
C823 C824 1.399 . S
C823 C828 1.399 . S
C824 C823 1.399 . S
C824 C825 1.376 . S
C825 H812 0.930 . S
C825 C824 1.376 . S
C825 C826 1.388 . S
C826 H813 0.930 . S
C826 C825 1.388 . S
C826 C827 1.390 . S
C827 C826 1.390 . S
C827 C828 1.394 . S
C827 C833 1.465 . S
C828 C823 1.399 . S
C828 C827 1.394 . S
C828 C829 1.516 . S
C829 C828 1.516 . S
C829 C830 1.502 . S
C829 C831 1.561 . S
C829 C832 1.526 . S
C830 H814 0.959 . S
C830 H815 0.959 . S
C830 H816 0.961 . S
C830 C829 1.502 . S
C831 H817 0.960 . S
C831 H818 0.961 . S
C831 H819 0.959 . S
C831 C829 1.561 . S
C832 C829 1.526 . S
C832 C833 1.396 . S
C832 C837 1.390 . S
C833 C827 1.465 . S
C833 C832 1.396 . S
C833 C834 1.399 . S
C834 H820 0.929 . S
C834 C833 1.399 . S
C834 C835 1.385 . S
C835 H821 0.931 . S
C835 C834 1.385 . S
C835 C836 1.389 . S
C836 C835 1.389 . S
C836 C837 1.387 . S
C837 H822 0.930 . S
C837 C832 1.390 . S
C837 C836 1.387 . S
H838 C850 0.930 . S
H839 C852 0.930 . S
H840 C853 0.930 . S
H841 C857 0.959 . S
H842 C857 0.959 . S
H843 C857 0.961 . S
H844 C858 0.960 . S
H845 C858 0.961 . S
H846 C858 0.959 . S
H847 C861 0.929 . S
H848 C862 0.931 . S
H849 C864 0.930 . S
C850 H838 0.930 . S
C850 C851 1.399 . S
C850 C855 1.399 . S
C851 C850 1.399 . S
C851 C852 1.376 . S
C852 H839 0.930 . S
C852 C851 1.376 . S
C852 C853 1.388 . S
C853 H840 0.930 . S
C853 C852 1.388 . S
C853 C854 1.390 . S
C854 C853 1.390 . S
C854 C855 1.394 . S
C854 C860 1.465 . S
C855 C850 1.399 . S
C855 C854 1.394 . S
C855 C856 1.516 . S
C856 C855 1.516 . S
C856 C857 1.502 . S
C856 C858 1.561 . S
C856 C859 1.526 . S
C857 H841 0.959 . S
C857 H842 0.959 . S
C857 H843 0.961 . S
C857 C856 1.502 . S
C858 H844 0.960 . S
C858 H845 0.961 . S
C858 H846 0.959 . S
C858 C856 1.561 . S
C859 C856 1.526 . S
C859 C860 1.396 . S
C859 C864 1.390 . S
C860 C854 1.465 . S
C860 C859 1.396 . S
C860 C861 1.399 . S
C861 H847 0.929 . S
C861 C860 1.399 . S
C861 C862 1.385 . S
C862 H848 0.931 . S
C862 C861 1.385 . S
C862 C863 1.389 . S
C863 C862 1.389 . S
C863 C864 1.387 . S
C864 H849 0.930 . S
C864 C859 1.390 . S
C864 C863 1.387 . S
H865 C877 0.930 . S
H866 C879 0.930 . S
H867 C880 0.930 . S
H868 C884 0.959 . S
H869 C884 0.959 . S
H870 C884 0.961 . S
H871 C885 0.960 . S
H872 C885 0.961 . S
H873 C885 0.959 . S
H874 C888 0.929 . S
H875 C889 0.931 . S
H876 C891 0.930 . S
C877 H865 0.930 . S
C877 C878 1.399 . S
C877 C882 1.399 . S
C878 C877 1.399 . S
C878 C879 1.376 . S
C879 H866 0.930 . S
C879 C878 1.376 . S
C879 C880 1.388 . S
C880 H867 0.930 . S
C880 C879 1.388 . S
C880 C881 1.390 . S
C881 C880 1.390 . S
C881 C882 1.394 . S
C881 C887 1.465 . S
C882 C877 1.399 . S
C882 C881 1.394 . S
C882 C883 1.516 . S
C883 C882 1.516 . S
C883 C884 1.502 . S
C883 C885 1.561 . S
C883 C886 1.526 . S
C884 H868 0.959 . S
C884 H869 0.959 . S
C884 H870 0.961 . S
C884 C883 1.502 . S
C885 H871 0.960 . S
C885 H872 0.961 . S
C885 H873 0.959 . S
C885 C883 1.561 . S
C886 C883 1.526 . S
C886 C887 1.396 . S
C886 C891 1.390 . S
C887 C881 1.465 . S
C887 C886 1.396 . S
C887 C888 1.399 . S
C888 H874 0.929 . S
C888 C887 1.399 . S
C888 C889 1.385 . S
C889 H875 0.931 . S
C889 C888 1.385 . S
C889 C890 1.389 . S
C890 C889 1.389 . S
C890 C891 1.387 . S
C891 H876 0.930 . S
C891 C886 1.390 . S
C891 C890 1.387 . S
H892 C904 0.930 . S
H893 C906 0.930 . S
H894 C907 0.930 . S
H895 C911 0.959 . S
H896 C911 0.959 . S
H897 C911 0.961 . S
H898 C912 0.960 . S
H899 C912 0.961 . S
H900 C912 0.959 . S
H901 C915 0.929 . S
H902 C916 0.931 . S
H903 C918 0.930 . S
C904 H892 0.930 . S
C904 C905 1.399 . S
C904 C909 1.399 . S
C905 C904 1.399 . S
C905 C906 1.376 . S
C906 H893 0.930 . S
C906 C905 1.376 . S
C906 C907 1.388 . S
C907 H894 0.930 . S
C907 C906 1.388 . S
C907 C908 1.390 . S
C908 C907 1.390 . S
C908 C909 1.394 . S
C908 C914 1.465 . S
C909 C904 1.399 . S
C909 C908 1.394 . S
C909 C910 1.516 . S
C910 C909 1.516 . S
C910 C911 1.502 . S
C910 C912 1.561 . S
C910 C913 1.526 . S
C911 H895 0.959 . S
C911 H896 0.959 . S
C911 H897 0.961 . S
C911 C910 1.502 . S
C912 H898 0.960 . S
C912 H899 0.961 . S
C912 H900 0.959 . S
C912 C910 1.561 . S
C913 C910 1.526 . S
C913 C914 1.396 . S
C913 C918 1.390 . S
C914 C908 1.465 . S
C914 C913 1.396 . S
C914 C915 1.399 . S
C915 H901 0.929 . S
C915 C914 1.399 . S
C915 C916 1.385 . S
C916 H902 0.931 . S
C916 C915 1.385 . S
C916 C917 1.389 . S
C917 C916 1.389 . S
C917 C918 1.387 . S
C918 H903 0.930 . S
C918 C913 1.390 . S
C918 C917 1.387 . S
H919 C931 0.930 . S
H920 C933 0.930 . S
H921 C934 0.930 . S
H922 C938 0.959 . S
H923 C938 0.959 . S
H924 C938 0.961 . S
H925 C939 0.960 . S
H926 C939 0.961 . S
H927 C939 0.959 . S
H928 C942 0.929 . S
H929 C943 0.931 . S
H930 C945 0.930 . S
C931 H919 0.930 . S
C931 C932 1.399 . S
C931 C936 1.399 . S
C932 C931 1.399 . S
C932 C933 1.376 . S
C933 H920 0.930 . S
C933 C932 1.376 . S
C933 C934 1.388 . S
C934 H921 0.930 . S
C934 C933 1.388 . S
C934 C935 1.390 . S
C935 C934 1.390 . S
C935 C936 1.394 . S
C935 C941 1.465 . S
C936 C931 1.399 . S
C936 C935 1.394 . S
C936 C937 1.516 . S
C937 C936 1.516 . S
C937 C938 1.502 . S
C937 C939 1.561 . S
C937 C940 1.526 . S
C938 H922 0.959 . S
C938 H923 0.959 . S
C938 H924 0.961 . S
C938 C937 1.502 . S
C939 H925 0.960 . S
C939 H926 0.961 . S
C939 H927 0.959 . S
C939 C937 1.561 . S
C940 C937 1.526 . S
C940 C941 1.396 . S
C940 C945 1.390 . S
C941 C935 1.465 . S
C941 C940 1.396 . S
C941 C942 1.399 . S
C942 H928 0.929 . S
C942 C941 1.399 . S
C942 C943 1.385 . S
C943 H929 0.931 . S
C943 C942 1.385 . S
C943 C944 1.389 . S
C944 C943 1.389 . S
C944 C945 1.387 . S
C945 H930 0.930 . S
C945 C940 1.390 . S
C945 C944 1.387 . S
H946 C958 0.930 . S
H947 C960 0.930 . S
H948 C961 0.930 . S
H949 C965 0.959 . S
H950 C965 0.959 . S
H951 C965 0.961 . S
H952 C966 0.960 . S
H953 C966 0.961 . S
H954 C966 0.959 . S
H955 C969 0.929 . S
H956 C970 0.931 . S
H957 C972 0.930 . S
C958 H946 0.930 . S
C958 C959 1.399 . S
C958 C963 1.399 . S
C959 C958 1.399 . S
C959 C960 1.376 . S
C960 H947 0.930 . S
C960 C959 1.376 . S
C960 C961 1.388 . S
C961 H948 0.930 . S
C961 C960 1.388 . S
C961 C962 1.390 . S
C962 C961 1.390 . S
C962 C963 1.394 . S
C962 C968 1.465 . S
C963 C958 1.399 . S
C963 C962 1.394 . S
C963 C964 1.516 . S
C964 C963 1.516 . S
C964 C965 1.502 . S
C964 C966 1.561 . S
C964 C967 1.526 . S
C965 H949 0.959 . S
C965 H950 0.959 . S
C965 H951 0.961 . S
C965 C964 1.502 . S
C966 H952 0.960 . S
C966 H953 0.961 . S
C966 H954 0.959 . S
C966 C964 1.561 . S
C967 C964 1.526 . S
C967 C968 1.396 . S
C967 C972 1.390 . S
C968 C962 1.465 . S
C968 C967 1.396 . S
C968 C969 1.399 . S
C969 H955 0.929 . S
C969 C968 1.399 . S
C969 C970 1.385 . S
C970 H956 0.931 . S
C970 C969 1.385 . S
C970 C971 1.389 . S
C971 C970 1.389 . S
C971 C972 1.387 . S
C972 H957 0.930 . S
C972 C967 1.390 . S
C972 C971 1.387 . S
H973 C985 0.930 . S
H974 C987 0.930 . S
H975 C988 0.930 . S
H976 C992 0.959 . S
H977 C992 0.959 . S
H978 C992 0.961 . S
H979 C993 0.960 . S
H980 C993 0.961 . S
H981 C993 0.959 . S
H982 C996 0.929 . S
H983 C997 0.931 . S
H984 C999 0.930 . S
C985 H973 0.930 . S
C985 C986 1.399 . S
C985 C990 1.399 . S
C986 C985 1.399 . S
C986 C987 1.376 . S
C987 H974 0.930 . S
C987 C986 1.376 . S
C987 C988 1.388 . S
C988 H975 0.930 . S
C988 C987 1.388 . S
C988 C989 1.390 . S
C989 C988 1.390 . S
C989 C990 1.394 . S
C989 C995 1.465 . S
C990 C985 1.399 . S
C990 C989 1.394 . S
C990 C991 1.516 . S
C991 C990 1.516 . S
C991 C992 1.502 . S
C991 C993 1.561 . S
C991 C994 1.526 . S
C992 H976 0.959 . S
C992 H977 0.959 . S
C992 H978 0.961 . S
C992 C991 1.502 . S
C993 H979 0.960 . S
C993 H980 0.961 . S
C993 H981 0.959 . S
C993 C991 1.561 . S
C994 C991 1.526 . S
C994 C995 1.396 . S
C994 C999 1.390 . S
C995 C989 1.465 . S
C995 C994 1.396 . S
C995 C996 1.399 . S
C996 H982 0.929 . S
C996 C995 1.399 . S
C996 C997 1.385 . S
C997 H983 0.931 . S
C997 C996 1.385 . S
C997 C998 1.389 . S
C998 C997 1.389 . S
C998 C999 1.387 . S
C999 H984 0.930 . S
C999 C994 1.390 . S
C999 C998 1.387 . S
H1000 C1012 0.930 . S
H1001 C1014 0.930 . S
H1002 C1015 0.930 . S
H1003 C1019 0.961 . S
H1004 C1019 0.973 . S
H1005 C1019 0.945 1_455 S
H1006 C1020 0.958 . S
H1007 C1020 0.963 1_655 S
H1008 C1020 0.959 1_655 S
H1009 C1023 0.929 . S
H1010 C1024 0.931 . S
H1011 C1026 0.930 . S
C1012 H1000 0.930 . S
C1012 C1013 1.399 . S
C1012 C1017 1.399 . S
C1013 C1012 1.399 . S
C1013 C1014 1.376 . S
C1014 H1001 0.930 . S
C1014 C1013 1.376 . S
C1014 C1015 1.388 . S
C1015 H1002 0.930 . S
C1015 C1014 1.388 . S
C1015 C1016 1.390 . S
C1016 C1015 1.390 . S
C1016 C1017 1.394 . S
C1016 C1022 1.465 1_455 S
C1017 C1012 1.399 . S
C1017 C1016 1.394 . S
C1017 C1018 1.515 . S
C1018 C1017 1.515 . S
C1018 C1019 1.502 1_455 S
C1018 C1020 1.561 . S
C1018 C1021 1.527 1_455 S
C1019 H1003 0.961 . S
C1019 H1004 0.973 . S
C1019 H1005 0.945 1_655 S
C1019 C1018 1.502 1_655 S
C1020 H1006 0.958 . S
C1020 H1007 0.963 1_455 S
C1020 H1008 0.959 1_455 S
C1020 C1018 1.561 . S
C1021 C1018 1.527 1_655 S
C1021 C1022 1.396 . S
C1021 C1026 1.390 . S
C1022 C1016 1.465 1_655 S
C1022 C1021 1.396 . S
C1022 C1023 1.399 . S
C1023 H1009 0.929 . S
C1023 C1022 1.399 . S
C1023 C1024 1.385 . S
C1024 H1010 0.931 . S
C1024 C1023 1.385 . S
C1024 C1025 1.389 . S
C1025 C1024 1.389 . S
C1025 C1026 1.387 . S
C1026 H1011 0.930 . S
C1026 C1021 1.390 . S
C1026 C1025 1.387 . S
H1027 C1039 0.930 . S
H1028 C1041 0.930 . S
H1029 C1042 0.930 . S
H1030 C1046 0.959 . S
H1031 C1046 0.959 . S
H1032 C1046 0.961 . S
H1033 C1047 0.960 . S
H1034 C1047 0.961 . S
H1035 C1047 0.959 . S
H1036 C1050 0.929 . S
H1037 C1051 0.931 . S
H1038 C1053 0.930 . S
C1039 H1027 0.930 . S
C1039 C1040 1.399 . S
C1039 C1044 1.399 . S
C1040 C1039 1.399 . S
C1040 C1041 1.376 . S
C1041 H1028 0.930 . S
C1041 C1040 1.376 . S
C1041 C1042 1.388 . S
C1042 H1029 0.930 . S
C1042 C1041 1.388 . S
C1042 C1043 1.390 . S
C1043 C1042 1.390 . S
C1043 C1044 1.394 . S
C1043 C1049 1.465 . S
C1044 C1039 1.399 . S
C1044 C1043 1.394 . S
C1044 C1045 1.516 . S
C1045 C1044 1.516 . S
C1045 C1046 1.502 . S
C1045 C1047 1.561 . S
C1045 C1048 1.526 . S
C1046 H1030 0.959 . S
C1046 H1031 0.959 . S
C1046 H1032 0.961 . S
C1046 C1045 1.502 . S
C1047 H1033 0.960 . S
C1047 H1034 0.961 . S
C1047 H1035 0.959 . S
C1047 C1045 1.561 . S
C1048 C1045 1.526 . S
C1048 C1049 1.396 . S
C1048 C1053 1.390 . S
C1049 C1043 1.465 . S
C1049 C1048 1.396 . S
C1049 C1050 1.399 . S
C1050 H1036 0.929 . S
C1050 C1049 1.399 . S
C1050 C1051 1.385 . S
C1051 H1037 0.931 . S
C1051 C1050 1.385 . S
C1051 C1052 1.389 . S
C1052 C1051 1.389 . S
C1052 C1053 1.387 . S
C1053 H1038 0.930 . S
C1053 C1048 1.390 . S
C1053 C1052 1.387 . S
H1054 C1066 0.930 . S
H1055 C1068 0.930 . S
H1056 C1069 0.930 . S
H1057 C1073 0.963 . S
H1058 C1073 0.988 . S
H1059 C1073 0.930 1_655 S
H1060 C1074 0.952 1_655 S
H1061 C1074 0.968 . S
H1062 C1074 0.960 . S
H1063 C1077 0.929 . S
H1064 C1078 0.931 . S
H1065 C1080 0.930 . S
C1066 H1054 0.930 . S
C1066 C1067 1.399 . S
C1066 C1071 1.399 . S
C1067 C1066 1.399 . S
C1067 C1068 1.376 . S
C1068 H1055 0.930 . S
C1068 C1067 1.376 . S
C1068 C1069 1.388 . S
C1069 H1056 0.930 . S
C1069 C1068 1.388 . S
C1069 C1070 1.390 . S
C1070 C1069 1.390 . S
C1070 C1071 1.394 . S
C1070 C1076 1.465 1_655 S
C1071 C1066 1.399 . S
C1071 C1070 1.394 . S
C1071 C1072 1.510 1_655 S
C1072 C1071 1.510 1_455 S
C1072 C1073 1.501 . S
C1072 C1074 1.561 . S
C1072 C1075 1.532 . S
C1073 H1057 0.963 . S
C1073 H1058 0.988 . S
C1073 H1059 0.930 1_455 S
C1073 C1072 1.501 . S
C1074 H1060 0.952 1_455 S
C1074 H1061 0.968 . S
C1074 H1062 0.960 . S
C1074 C1072 1.561 . S
C1075 C1072 1.532 . S
C1075 C1076 1.396 . S
C1075 C1080 1.390 . S
C1076 C1070 1.465 1_455 S
C1076 C1075 1.396 . S
C1076 C1077 1.399 . S
C1077 H1063 0.929 . S
C1077 C1076 1.399 . S
C1077 C1078 1.385 . S
C1078 H1064 0.931 . S
C1078 C1077 1.385 . S
C1078 C1079 1.389 . S
C1079 C1078 1.389 . S
C1079 C1080 1.387 . S
C1080 H1065 0.930 . S
C1080 C1075 1.390 . S
C1080 C1079 1.387 . S
H1081 C1093 0.930 . S
H1082 C1095 0.930 . S
H1083 C1096 0.930 . S
H1084 C1100 0.959 . S
H1085 C1100 0.959 . S
H1086 C1100 0.961 . S
H1087 C1101 0.960 . S
H1088 C1101 0.961 . S
H1089 C1101 0.959 . S
H1090 C1104 0.929 . S
H1091 C1105 0.931 . S
H1092 C1107 0.930 . S
C1093 H1081 0.930 . S
C1093 C1094 1.399 . S
C1093 C1098 1.399 . S
C1094 C1093 1.399 . S
C1094 C1095 1.376 . S
C1095 H1082 0.930 . S
C1095 C1094 1.376 . S
C1095 C1096 1.388 . S
C1096 H1083 0.930 . S
C1096 C1095 1.388 . S
C1096 C1097 1.390 . S
C1097 C1096 1.390 . S
C1097 C1098 1.394 . S
C1097 C1103 1.465 . S
C1098 C1093 1.399 . S
C1098 C1097 1.394 . S
C1098 C1099 1.516 . S
C1099 C1098 1.516 . S
C1099 C1100 1.502 . S
C1099 C1101 1.561 . S
C1099 C1102 1.526 . S
C1100 H1084 0.959 . S
C1100 H1085 0.959 . S
C1100 H1086 0.961 . S
C1100 C1099 1.502 . S
C1101 H1087 0.960 . S
C1101 H1088 0.961 . S
C1101 H1089 0.959 . S
C1101 C1099 1.561 . S
C1102 C1099 1.526 . S
C1102 C1103 1.396 . S
C1102 C1107 1.390 . S
C1103 C1097 1.465 . S
C1103 C1102 1.396 . S
C1103 C1104 1.399 . S
C1104 H1090 0.929 . S
C1104 C1103 1.399 . S
C1104 C1105 1.385 . S
C1105 H1091 0.931 . S
C1105 C1104 1.385 . S
C1105 C1106 1.389 . S
C1106 C1105 1.389 . S
C1106 C1107 1.387 . S
C1107 H1092 0.930 . S
C1107 C1102 1.390 . S
C1107 C1106 1.387 . S
H1108 C1120 0.930 . S
H1109 C1122 0.930 . S
H1110 C1123 0.930 1_556 S
H1111 C1127 0.959 . S
H1112 C1127 0.959 . S
H1113 C1127 0.961 . S
H1114 C1128 0.960 . S
H1115 C1128 0.961 . S
H1116 C1128 0.959 . S
H1117 C1131 0.929 1_556 S
H1118 C1132 0.931 . S
H1119 C1134 0.930 . S
C1120 H1108 0.930 . S
C1120 C1121 1.399 . S
C1120 C1125 1.399 . S
C1121 C1120 1.399 . S
C1121 C1122 1.376 . S
C1122 H1109 0.930 . S
C1122 C1121 1.376 . S
C1122 C1123 1.388 . S
C1123 H1110 0.930 1_554 S
C1123 C1122 1.388 . S
C1123 C1124 1.390 . S
C1124 C1123 1.390 . S
C1124 C1125 1.394 . S
C1124 C1130 1.465 . S
C1125 C1120 1.399 . S
C1125 C1124 1.394 . S
C1125 C1126 1.516 . S
C1126 C1125 1.516 . S
C1126 C1127 1.502 . S
C1126 C1128 1.561 . S
C1126 C1129 1.526 . S
C1127 H1111 0.959 . S
C1127 H1112 0.959 . S
C1127 H1113 0.961 . S
C1127 C1126 1.502 . S
C1128 H1114 0.960 . S
C1128 H1115 0.961 . S
C1128 H1116 0.959 . S
C1128 C1126 1.561 . S
C1129 C1126 1.526 . S
C1129 C1130 1.396 . S
C1129 C1134 1.390 . S
C1130 C1124 1.465 . S
C1130 C1129 1.396 . S
C1130 C1131 1.399 . S
C1131 H1117 0.929 1_554 S
C1131 C1130 1.399 . S
C1131 C1132 1.385 . S
C1132 H1118 0.931 . S
C1132 C1131 1.385 . S
C1132 C1133 1.389 . S
C1133 C1132 1.389 . S
C1133 C1134 1.387 . S
C1134 H1119 0.930 . S
C1134 C1129 1.390 . S
C1134 C1133 1.387 . S
H1135 C1147 0.930 . S
H1136 C1149 0.930 . S
H1137 C1150 0.930 . S
H1138 C1154 0.961 . S
H1139 C1154 0.972 . S
H1140 C1154 0.947 1_655 S
H1141 C1155 0.959 . S
H1142 C1155 0.962 1_455 S
H1143 C1155 0.959 1_455 S
H1144 C1158 0.929 . S
H1145 C1159 0.931 . S
H1146 C1161 0.930 . S
C1147 H1135 0.930 . S
C1147 C1148 1.399 . S
C1147 C1152 1.399 . S
C1148 C1147 1.399 . S
C1148 C1149 1.376 . S
C1149 H1136 0.930 . S
C1149 C1148 1.376 . S
C1149 C1150 1.388 . S
C1150 H1137 0.930 . S
C1150 C1149 1.388 . S
C1150 C1151 1.390 . S
C1151 C1150 1.390 . S
C1151 C1152 1.394 . S
C1151 C1157 1.465 1_655 S
C1152 C1147 1.399 . S
C1152 C1151 1.394 . S
C1152 C1153 1.516 . S
C1153 C1152 1.516 . S
C1153 C1154 1.502 1_655 S
C1153 C1155 1.561 . S
C1153 C1156 1.526 1_655 S
C1154 H1138 0.961 . S
C1154 H1139 0.972 . S
C1154 H1140 0.947 1_455 S
C1154 C1153 1.502 1_455 S
C1155 H1141 0.959 . S
C1155 H1142 0.962 1_655 S
C1155 H1143 0.959 1_655 S
C1155 C1153 1.561 . S
C1156 C1153 1.526 1_455 S
C1156 C1157 1.396 . S
C1156 C1161 1.390 . S
C1157 C1151 1.465 1_455 S
C1157 C1156 1.396 . S
C1157 C1158 1.399 . S
C1158 H1144 0.929 . S
C1158 C1157 1.399 . S
C1158 C1159 1.385 . S
C1159 H1145 0.931 . S
C1159 C1158 1.385 . S
C1159 C1160 1.389 . S
C1160 C1159 1.389 . S
C1160 C1161 1.387 . S
C1161 H1146 0.930 . S
C1161 C1156 1.390 . S
C1161 C1160 1.387 . S
H1162 C1174 0.930 . S
H1163 C1176 0.930 . S
H1164 C1177 0.930 1_554 S
H1165 C1181 0.959 . S
H1166 C1181 0.959 . S
H1167 C1181 0.961 . S
H1168 C1182 0.960 . S
H1169 C1182 0.961 . S
H1170 C1182 0.959 . S
H1171 C1185 0.929 1_554 S
H1172 C1186 0.931 . S
H1173 C1188 0.930 . S
C1174 H1162 0.930 . S
C1174 C1175 1.399 . S
C1174 C1179 1.399 . S
C1175 C1174 1.399 . S
C1175 C1176 1.376 . S
C1176 H1163 0.930 . S
C1176 C1175 1.376 . S
C1176 C1177 1.388 . S
C1177 H1164 0.930 1_556 S
C1177 C1176 1.388 . S
C1177 C1178 1.390 . S
C1178 C1177 1.390 . S
C1178 C1179 1.394 . S
C1178 C1184 1.465 . S
C1179 C1174 1.399 . S
C1179 C1178 1.394 . S
C1179 C1180 1.516 . S
C1180 C1179 1.516 . S
C1180 C1181 1.502 . S
C1180 C1182 1.561 . S
C1180 C1183 1.526 . S
C1181 H1165 0.959 . S
C1181 H1166 0.959 . S
C1181 H1167 0.961 . S
C1181 C1180 1.502 . S
C1182 H1168 0.960 . S
C1182 H1169 0.961 . S
C1182 H1170 0.959 . S
C1182 C1180 1.561 . S
C1183 C1180 1.526 . S
C1183 C1184 1.396 . S
C1183 C1188 1.390 . S
C1184 C1178 1.465 . S
C1184 C1183 1.396 . S
C1184 C1185 1.399 . S
C1185 H1171 0.929 1_556 S
C1185 C1184 1.399 . S
C1185 C1186 1.385 . S
C1186 H1172 0.931 . S
C1186 C1185 1.385 . S
C1186 C1187 1.389 . S
C1187 C1186 1.389 . S
C1187 C1188 1.387 . S
C1188 H1173 0.930 . S
C1188 C1183 1.390 . S
C1188 C1187 1.387 . S
H1189 C1201 0.930 . S
H1190 C1203 0.930 . S
H1191 C1204 0.930 . S
H1192 C1208 0.963 . S
H1193 C1208 0.988 . S
H1194 C1208 0.930 1_455 S
H1195 C1209 0.952 1_455 S
H1196 C1209 0.968 . S
H1197 C1209 0.960 . S
H1198 C1212 0.929 . S
H1199 C1213 0.931 . S
H1200 C1215 0.930 . S
C1201 H1189 0.930 . S
C1201 C1202 1.399 . S
C1201 C1206 1.399 . S
C1202 C1201 1.399 . S
C1202 C1203 1.376 . S
C1203 H1190 0.930 . S
C1203 C1202 1.376 . S
C1203 C1204 1.388 . S
C1204 H1191 0.930 . S
C1204 C1203 1.388 . S
C1204 C1205 1.390 . S
C1205 C1204 1.390 . S
C1205 C1206 1.394 . S
C1205 C1211 1.465 1_455 S
C1206 C1201 1.399 . S
C1206 C1205 1.394 . S
C1206 C1207 1.510 1_455 S
C1207 C1206 1.510 1_655 S
C1207 C1208 1.501 . S
C1207 C1209 1.561 . S
C1207 C1210 1.532 . S
C1208 H1192 0.963 . S
C1208 H1193 0.988 . S
C1208 H1194 0.930 1_655 S
C1208 C1207 1.501 . S
C1209 H1195 0.952 1_655 S
C1209 H1196 0.968 . S
C1209 H1197 0.960 . S
C1209 C1207 1.561 . S
C1210 C1207 1.532 . S
C1210 C1211 1.396 . S
C1210 C1215 1.390 . S
C1211 C1205 1.465 1_655 S
C1211 C1210 1.396 . S
C1211 C1212 1.399 . S
C1212 H1198 0.929 . S
C1212 C1211 1.399 . S
C1212 C1213 1.385 . S
C1213 H1199 0.931 . S
C1213 C1212 1.385 . S
C1213 C1214 1.389 . S
C1214 C1213 1.389 . S
C1214 C1215 1.387 . S
C1215 H1200 0.930 . S
C1215 C1210 1.390 . S
C1215 C1214 1.387 . S
H1216 C1228 0.930 . S
H1217 C1230 0.930 . S
H1218 C1231 0.930 . S
H1219 C1235 0.959 . S
H1220 C1235 0.959 . S
H1221 C1235 0.954 1_545 S
H1222 C1236 0.960 . S
H1223 C1236 0.961 . S
H1224 C1236 0.959 . S
H1225 C1239 0.929 . S
H1226 C1240 0.931 . S
H1227 C1242 0.930 . S
C1228 H1216 0.930 . S
C1228 C1229 1.399 . S
C1228 C1233 1.399 . S
C1229 C1228 1.399 . S
C1229 C1230 1.376 1_554 S
C1230 H1217 0.930 . S
C1230 C1229 1.376 1_556 S
C1230 C1231 1.388 . S
C1231 H1218 0.930 . S
C1231 C1230 1.388 . S
C1231 C1232 1.390 . S
C1232 C1231 1.390 . S
C1232 C1233 1.394 1_556 S
C1232 C1238 1.465 1_545 S
C1233 C1228 1.399 . S
C1233 C1232 1.394 1_554 S
C1233 C1234 1.516 1_545 S
C1234 C1233 1.516 1_565 S
C1234 C1235 1.502 . S
C1234 C1236 1.561 . S
C1234 C1237 1.526 . S
C1235 H1219 0.959 . S
C1235 H1220 0.959 . S
C1235 H1221 0.954 1_565 S
C1235 C1234 1.502 . S
C1236 H1222 0.960 . S
C1236 H1223 0.961 . S
C1236 H1224 0.959 . S
C1236 C1234 1.561 . S
C1237 C1234 1.526 . S
C1237 C1238 1.396 1_554 S
C1237 C1242 1.390 . S
C1238 C1232 1.465 1_565 S
C1238 C1237 1.396 1_556 S
C1238 C1239 1.399 . S
C1239 H1225 0.929 . S
C1239 C1238 1.399 . S
C1239 C1240 1.385 . S
C1240 H1226 0.931 . S
C1240 C1239 1.385 . S
C1240 C1241 1.389 . S
C1241 C1240 1.389 . S
C1241 C1242 1.387 1_556 S
C1242 H1227 0.930 . S
C1242 C1237 1.390 . S
C1242 C1241 1.387 1_554 S
H1243 C1255 0.930 . S
H1244 C1257 0.930 . S
H1245 C1258 0.930 . S
H1246 C1262 0.959 . S
H1247 C1262 0.959 . S
H1248 C1262 0.961 1_565 S
H1249 C1263 0.960 . S
H1250 C1263 0.961 . S
H1251 C1263 0.959 . S
H1252 C1266 0.929 . S
H1253 C1267 0.931 . S
H1254 C1269 0.930 . S
C1255 H1243 0.930 . S
C1255 C1256 1.399 . S
C1255 C1260 1.399 . S
C1256 C1255 1.399 . S
C1256 C1257 1.376 . S
C1257 H1244 0.930 . S
C1257 C1256 1.376 . S
C1257 C1258 1.388 . S
C1258 H1245 0.930 . S
C1258 C1257 1.388 . S
C1258 C1259 1.390 . S
C1259 C1258 1.390 . S
C1259 C1260 1.394 . S
C1259 C1265 1.465 1_565 S
C1260 C1255 1.399 . S
C1260 C1259 1.394 . S
C1260 C1261 1.516 1_565 S
C1261 C1260 1.516 1_545 S
C1261 C1262 1.502 . S
C1261 C1263 1.561 . S
C1261 C1264 1.526 . S
C1262 H1246 0.959 . S
C1262 H1247 0.959 . S
C1262 H1248 0.961 1_545 S
C1262 C1261 1.502 . S
C1263 H1249 0.960 . S
C1263 H1250 0.961 . S
C1263 H1251 0.959 . S
C1263 C1261 1.561 . S
C1264 C1261 1.526 . S
C1264 C1265 1.396 . S
C1264 C1269 1.390 . S
C1265 C1259 1.465 1_545 S
C1265 C1264 1.396 . S
C1265 C1266 1.399 . S
C1266 H1252 0.929 . S
C1266 C1265 1.399 . S
C1266 C1267 1.385 . S
C1267 H1253 0.931 . S
C1267 C1266 1.385 . S
C1267 C1268 1.389 . S
C1268 C1267 1.389 . S
C1268 C1269 1.387 . S
C1269 H1254 0.930 . S
C1269 C1264 1.390 . S
C1269 C1268 1.387 . S
H1270 C1282 0.930 . S
H1271 C1284 0.930 . S
H1272 C1285 0.930 1_556 S
H1273 C1289 0.965 . S
H1274 C1289 0.940 1_565 S
H1275 C1289 0.978 1_554 S
H1276 C1290 0.960 1_545 S
H1277 C1290 0.961 . S
H1278 C1290 0.959 . S
H1279 C1293 0.929 . S
H1280 C1294 0.931 . S
H1281 C1296 0.930 . S
C1282 H1270 0.930 . S
C1282 C1283 1.399 . S
C1282 C1287 1.399 . S
C1283 C1282 1.399 . S
C1283 C1284 1.376 . S
C1284 H1271 0.930 . S
C1284 C1283 1.376 . S
C1284 C1285 1.388 . S
C1285 H1272 0.930 1_554 S
C1285 C1284 1.388 . S
C1285 C1286 1.390 . S
C1286 C1285 1.390 . S
C1286 C1287 1.394 . S
C1286 C1292 1.465 1_544 S
C1287 C1282 1.399 . S
C1287 C1286 1.394 . S
C1287 C1288 1.516 1_545 S
C1288 C1287 1.516 1_565 S
C1288 C1289 1.499 1_564 S
C1288 C1290 1.561 . S
C1288 C1291 1.526 1_554 S
C1289 H1273 0.965 . S
C1289 H1274 0.940 1_545 S
C1289 H1275 0.978 1_556 S
C1289 C1288 1.499 1_546 S
C1290 H1276 0.960 1_565 S
C1290 H1277 0.961 . S
C1290 H1278 0.959 . S
C1290 C1288 1.561 . S
C1291 C1288 1.526 1_556 S
C1291 C1292 1.396 . S
C1291 C1296 1.390 . S
C1292 C1286 1.465 1_566 S
C1292 C1291 1.396 . S
C1292 C1293 1.399 . S
C1293 H1279 0.929 . S
C1293 C1292 1.399 . S
C1293 C1294 1.385 . S
C1294 H1280 0.931 . S
C1294 C1293 1.385 . S
C1294 C1295 1.389 . S
C1295 C1294 1.389 . S
C1295 C1296 1.387 . S
C1296 H1281 0.930 . S
C1296 C1291 1.390 . S
C1296 C1295 1.387 . S
H1297 C1309 0.930 . S
H1298 C1311 0.930 . S
H1299 C1312 0.930 . S
H1300 C1316 0.959 . S
H1301 C1316 0.959 . S
H1302 C1316 0.961 1_545 S
H1303 C1317 0.960 . S
H1304 C1317 0.961 . S
H1305 C1317 0.959 . S
H1306 C1320 0.929 . S
H1307 C1321 0.931 . S
H1308 C1323 0.930 . S
C1309 H1297 0.930 . S
C1309 C1310 1.399 . S
C1309 C1314 1.399 . S
C1310 C1309 1.399 . S
C1310 C1311 1.376 . S
C1311 H1298 0.930 . S
C1311 C1310 1.376 . S
C1311 C1312 1.388 . S
C1312 H1299 0.930 . S
C1312 C1311 1.388 . S
C1312 C1313 1.390 . S
C1313 C1312 1.390 . S
C1313 C1314 1.394 . S
C1313 C1319 1.465 1_545 S
C1314 C1309 1.399 . S
C1314 C1313 1.394 . S
C1314 C1315 1.516 1_545 S
C1315 C1314 1.516 1_565 S
C1315 C1316 1.502 . S
C1315 C1317 1.561 . S
C1315 C1318 1.526 . S
C1316 H1300 0.959 . S
C1316 H1301 0.959 . S
C1316 H1302 0.961 1_565 S
C1316 C1315 1.502 . S
C1317 H1303 0.960 . S
C1317 H1304 0.961 . S
C1317 H1305 0.959 . S
C1317 C1315 1.561 . S
C1318 C1315 1.526 . S
C1318 C1319 1.396 . S
C1318 C1323 1.390 . S
C1319 C1313 1.465 1_565 S
C1319 C1318 1.396 . S
C1319 C1320 1.399 . S
C1320 H1306 0.929 . S
C1320 C1319 1.399 . S
C1320 C1321 1.385 . S
C1321 H1307 0.931 . S
C1321 C1320 1.385 . S
C1321 C1322 1.389 . S
C1322 C1321 1.389 . S
C1322 C1323 1.387 . S
C1323 H1308 0.930 . S
C1323 C1318 1.390 . S
C1323 C1322 1.387 . S
H1324 C1336 0.930 . S
H1325 C1338 0.930 . S
H1326 C1339 0.930 . S
H1327 C1343 0.959 . S
H1328 C1343 0.959 . S
H1329 C1343 0.961 . S
H1330 C1344 0.960 . S
H1331 C1344 0.961 . S
H1332 C1344 0.959 . S
H1333 C1347 0.929 . S
H1334 C1348 0.931 . S
H1335 C1350 0.930 . S
C1336 H1324 0.930 . S
C1336 C1337 1.399 . S
C1336 C1341 1.399 . S
C1337 C1336 1.399 . S
C1337 C1338 1.376 1_554 S
C1338 H1325 0.930 . S
C1338 C1337 1.376 1_556 S
C1338 C1339 1.388 . S
C1339 H1326 0.930 . S
C1339 C1338 1.388 . S
C1339 C1340 1.390 . S
C1340 C1339 1.390 . S
C1340 C1341 1.394 1_556 S
C1340 C1346 1.465 . S
C1341 C1336 1.399 . S
C1341 C1340 1.394 1_554 S
C1341 C1342 1.516 . S
C1342 C1341 1.516 . S
C1342 C1343 1.502 . S
C1342 C1344 1.561 . S
C1342 C1345 1.526 . S
C1343 H1327 0.959 . S
C1343 H1328 0.959 . S
C1343 H1329 0.961 . S
C1343 C1342 1.502 . S
C1344 H1330 0.960 . S
C1344 H1331 0.961 . S
C1344 H1332 0.959 . S
C1344 C1342 1.561 . S
C1345 C1342 1.526 . S
C1345 C1346 1.396 1_554 S
C1345 C1350 1.390 . S
C1346 C1340 1.465 . S
C1346 C1345 1.396 1_556 S
C1346 C1347 1.399 . S
C1347 H1333 0.929 . S
C1347 C1346 1.399 . S
C1347 C1348 1.385 . S
C1348 H1334 0.931 . S
C1348 C1347 1.385 . S
C1348 C1349 1.389 . S
C1349 C1348 1.389 . S
C1349 C1350 1.387 1_556 S
C1350 H1335 0.930 . S
C1350 C1345 1.390 . S
C1350 C1349 1.387 1_554 S
H1351 C1363 0.930 . S
H1352 C1365 0.930 . S
H1353 C1366 0.930 . S
H1354 C1370 0.959 . S
H1355 C1370 0.959 . S
H1356 C1370 0.961 . S
H1357 C1371 0.960 . S
H1358 C1371 0.961 . S
H1359 C1371 0.959 . S
H1360 C1374 0.929 . S
H1361 C1375 0.931 . S
H1362 C1377 0.930 . S
C1363 H1351 0.930 . S
C1363 C1364 1.399 . S
C1363 C1368 1.399 . S
C1364 C1363 1.399 . S
C1364 C1365 1.376 . S
C1365 H1352 0.930 . S
C1365 C1364 1.376 . S
C1365 C1366 1.388 . S
C1366 H1353 0.930 . S
C1366 C1365 1.388 . S
C1366 C1367 1.390 . S
C1367 C1366 1.390 . S
C1367 C1368 1.394 . S
C1367 C1373 1.465 . S
C1368 C1363 1.399 . S
C1368 C1367 1.394 . S
C1368 C1369 1.516 . S
C1369 C1368 1.516 . S
C1369 C1370 1.502 . S
C1369 C1371 1.561 . S
C1369 C1372 1.526 . S
C1370 H1354 0.959 . S
C1370 H1355 0.959 . S
C1370 H1356 0.961 . S
C1370 C1369 1.502 . S
C1371 H1357 0.960 . S
C1371 H1358 0.961 . S
C1371 H1359 0.959 . S
C1371 C1369 1.561 . S
C1372 C1369 1.526 . S
C1372 C1373 1.396 . S
C1372 C1377 1.390 . S
C1373 C1367 1.465 . S
C1373 C1372 1.396 . S
C1373 C1374 1.399 . S
C1374 H1360 0.929 . S
C1374 C1373 1.399 . S
C1374 C1375 1.385 . S
C1375 H1361 0.931 . S
C1375 C1374 1.385 . S
C1375 C1376 1.389 . S
C1376 C1375 1.389 . S
C1376 C1377 1.387 . S
C1377 H1362 0.930 . S
C1377 C1372 1.390 . S
C1377 C1376 1.387 . S
H1378 C1390 0.930 . S
H1379 C1392 0.930 . S
H1380 C1393 0.930 . S
H1381 C1397 0.959 . S
H1382 C1397 0.959 . S
H1383 C1397 0.961 . S
H1384 C1398 0.960 . S
H1385 C1398 0.961 . S
H1386 C1398 0.959 . S
H1387 C1401 0.929 . S
H1388 C1402 0.931 . S
H1389 C1404 0.930 . S
C1390 H1378 0.930 . S
C1390 C1391 1.399 1_554 S
C1390 C1395 1.399 . S
C1391 C1390 1.399 1_556 S
C1391 C1392 1.376 . S
C1392 H1379 0.930 . S
C1392 C1391 1.376 . S
C1392 C1393 1.388 . S
C1393 H1380 0.930 . S
C1393 C1392 1.388 . S
C1393 C1394 1.390 . S
C1394 C1393 1.390 . S
C1394 C1395 1.394 1_556 S
C1394 C1400 1.465 . S
C1395 C1390 1.399 . S
C1395 C1394 1.394 1_554 S
C1395 C1396 1.516 . S
C1396 C1395 1.516 . S
C1396 C1397 1.502 . S
C1396 C1398 1.561 . S
C1396 C1399 1.526 . S
C1397 H1381 0.959 . S
C1397 H1382 0.959 . S
C1397 H1383 0.961 . S
C1397 C1396 1.502 . S
C1398 H1384 0.960 . S
C1398 H1385 0.961 . S
C1398 H1386 0.959 . S
C1398 C1396 1.561 . S
C1399 C1396 1.526 . S
C1399 C1400 1.396 1_554 S
C1399 C1404 1.390 . S
C1400 C1394 1.465 . S
C1400 C1399 1.396 1_556 S
C1400 C1401 1.399 . S
C1401 H1387 0.929 . S
C1401 C1400 1.399 . S
C1401 C1402 1.385 . S
C1402 H1388 0.931 . S
C1402 C1401 1.385 . S
C1402 C1403 1.389 1_556 S
C1403 C1402 1.389 1_554 S
C1403 C1404 1.387 . S
C1404 H1389 0.930 . S
C1404 C1399 1.390 . S
C1404 C1403 1.387 . S
H1405 C1417 0.930 . S
H1406 C1419 0.930 . S
H1407 C1420 0.930 . S
H1408 C1424 0.959 . S
H1409 C1424 0.959 . S
H1410 C1424 0.961 . S
H1411 C1425 0.960 . S
H1412 C1425 0.961 . S
H1413 C1425 0.959 . S
H1414 C1428 0.929 . S
H1415 C1429 0.931 . S
H1416 C1431 0.930 . S
C1417 H1405 0.930 . S
C1417 C1418 1.399 . S
C1417 C1422 1.399 . S
C1418 C1417 1.399 . S
C1418 C1419 1.376 . S
C1419 H1406 0.930 . S
C1419 C1418 1.376 . S
C1419 C1420 1.388 . S
C1420 H1407 0.930 . S
C1420 C1419 1.388 . S
C1420 C1421 1.390 . S
C1421 C1420 1.390 . S
C1421 C1422 1.394 . S
C1421 C1427 1.465 . S
C1422 C1417 1.399 . S
C1422 C1421 1.394 . S
C1422 C1423 1.516 . S
C1423 C1422 1.516 . S
C1423 C1424 1.502 . S
C1423 C1425 1.561 . S
C1423 C1426 1.526 . S
C1424 H1408 0.959 . S
C1424 H1409 0.959 . S
C1424 H1410 0.961 . S
C1424 C1423 1.502 . S
C1425 H1411 0.960 . S
C1425 H1412 0.961 . S
C1425 H1413 0.959 . S
C1425 C1423 1.561 . S
C1426 C1423 1.526 . S
C1426 C1427 1.396 . S
C1426 C1431 1.390 . S
C1427 C1421 1.465 . S
C1427 C1426 1.396 . S
C1427 C1428 1.399 . S
C1428 H1414 0.929 . S
C1428 C1427 1.399 . S
C1428 C1429 1.385 . S
C1429 H1415 0.931 . S
C1429 C1428 1.385 . S
C1429 C1430 1.389 . S
C1430 C1429 1.389 . S
C1430 C1431 1.387 . S
C1431 H1416 0.930 . S
C1431 C1426 1.390 . S
C1431 C1430 1.387 . S
H1432 C1444 0.930 . S
H1433 C1446 0.930 . S
H1434 C1447 0.930 . S
H1435 C1451 0.959 1_554 S
H1436 C1451 0.959 . S
H1437 C1451 0.961 . S
H1438 C1452 0.960 . S
H1439 C1452 0.961 . S
H1440 C1452 0.959 . S
H1441 C1455 0.929 . S
H1442 C1456 0.931 . S
H1443 C1458 0.930 . S
C1444 H1432 0.930 . S
C1444 C1445 1.399 . S
C1444 C1449 1.399 . S
C1445 C1444 1.399 . S
C1445 C1446 1.376 . S
C1446 H1433 0.930 . S
C1446 C1445 1.376 . S
C1446 C1447 1.388 . S
C1447 H1434 0.930 . S
C1447 C1446 1.388 . S
C1447 C1448 1.390 . S
C1448 C1447 1.390 . S
C1448 C1449 1.394 . S
C1448 C1454 1.465 1_554 S
C1449 C1444 1.399 . S
C1449 C1448 1.394 . S
C1449 C1450 1.516 1_554 S
C1450 C1449 1.516 1_556 S
C1450 C1451 1.502 . S
C1450 C1452 1.561 . S
C1450 C1453 1.526 . S
C1451 H1435 0.959 1_556 S
C1451 H1436 0.959 . S
C1451 H1437 0.961 . S
C1451 C1450 1.502 . S
C1452 H1438 0.960 . S
C1452 H1439 0.961 . S
C1452 H1440 0.959 . S
C1452 C1450 1.561 . S
C1453 C1450 1.526 . S
C1453 C1454 1.396 . S
C1453 C1458 1.390 . S
C1454 C1448 1.465 1_556 S
C1454 C1453 1.396 . S
C1454 C1455 1.399 1_556 S
C1455 H1441 0.929 . S
C1455 C1454 1.399 1_554 S
C1455 C1456 1.385 1_554 S
C1456 H1442 0.931 . S
C1456 C1455 1.385 1_556 S
C1456 C1457 1.389 . S
C1457 C1456 1.389 . S
C1457 C1458 1.387 . S
C1458 H1443 0.930 . S
C1458 C1453 1.390 . S
C1458 C1457 1.387 . S
H1459 C1471 0.930 . S
H1460 C1473 0.930 . S
H1461 C1474 0.930 . S
H1462 C1478 0.959 . S
H1463 C1478 0.959 . S
H1464 C1478 0.961 . S
H1465 C1479 0.960 . S
H1466 C1479 0.961 . S
H1467 C1479 0.959 . S
H1468 C1482 0.929 . S
H1469 C1483 0.931 . S
H1470 C1485 0.930 . S
C1471 H1459 0.930 . S
C1471 C1472 1.399 . S
C1471 C1476 1.399 . S
C1472 C1471 1.399 . S
C1472 C1473 1.376 . S
C1473 H1460 0.930 . S
C1473 C1472 1.376 . S
C1473 C1474 1.388 . S
C1474 H1461 0.930 . S
C1474 C1473 1.388 . S
C1474 C1475 1.390 . S
C1475 C1474 1.390 . S
C1475 C1476 1.394 . S
C1475 C1481 1.465 . S
C1476 C1471 1.399 . S
C1476 C1475 1.394 . S
C1476 C1477 1.516 . S
C1477 C1476 1.516 . S
C1477 C1478 1.502 . S
C1477 C1479 1.561 . S
C1477 C1480 1.526 . S
C1478 H1462 0.959 . S
C1478 H1463 0.959 . S
C1478 H1464 0.961 . S
C1478 C1477 1.502 . S
C1479 H1465 0.960 . S
C1479 H1466 0.961 . S
C1479 H1467 0.959 . S
C1479 C1477 1.561 . S
C1480 C1477 1.526 . S
C1480 C1481 1.396 . S
C1480 C1485 1.390 . S
C1481 C1475 1.465 . S
C1481 C1480 1.396 . S
C1481 C1482 1.399 . S
C1482 H1468 0.929 . S
C1482 C1481 1.399 . S
C1482 C1483 1.385 . S
C1483 H1469 0.931 . S
C1483 C1482 1.385 . S
C1483 C1484 1.389 . S
C1484 C1483 1.389 . S
C1484 C1485 1.387 . S
C1485 H1470 0.930 . S
C1485 C1480 1.390 . S
C1485 C1484 1.387 . S
H1486 C1498 0.930 . S
H1487 C1500 0.930 . S
H1488 C1501 0.930 1_554 S
H1489 C1505 0.959 1_554 S
H1490 C1505 0.959 . S
H1491 C1505 0.961 . S
H1492 C1506 0.960 . S
H1493 C1506 0.961 . S
H1494 C1506 0.959 . S
H1495 C1509 0.929 . S
H1496 C1510 0.931 . S
H1497 C1512 0.930 . S
C1498 H1486 0.930 . S
C1498 C1499 1.399 . S
C1498 C1503 1.399 . S
C1499 C1498 1.399 . S
C1499 C1500 1.376 . S
C1500 H1487 0.930 . S
C1500 C1499 1.376 . S
C1500 C1501 1.388 . S
C1501 H1488 0.930 1_556 S
C1501 C1500 1.388 . S
C1501 C1502 1.390 . S
C1502 C1501 1.390 . S
C1502 C1503 1.394 . S
C1502 C1508 1.465 1_556 S
C1503 C1498 1.399 . S
C1503 C1502 1.394 . S
C1503 C1504 1.516 . S
C1504 C1503 1.516 . S
C1504 C1505 1.502 . S
C1504 C1506 1.561 . S
C1504 C1507 1.526 1_556 S
C1505 H1489 0.959 1_556 S
C1505 H1490 0.959 . S
C1505 H1491 0.961 . S
C1505 C1504 1.502 . S
C1506 H1492 0.960 . S
C1506 H1493 0.961 . S
C1506 H1494 0.959 . S
C1506 C1504 1.561 . S
C1507 C1504 1.526 1_554 S
C1507 C1508 1.396 . S
C1507 C1512 1.390 . S
C1508 C1502 1.465 1_554 S
C1508 C1507 1.396 . S
C1508 C1509 1.399 . S
C1509 H1495 0.929 . S
C1509 C1508 1.399 . S
C1509 C1510 1.385 . S
C1510 H1496 0.931 . S
C1510 C1509 1.385 . S
C1510 C1511 1.389 . S
C1511 C1510 1.389 . S
C1511 C1512 1.387 . S
C1512 H1497 0.930 . S
C1512 C1507 1.390 . S
C1512 C1511 1.387 . S
H1513 C1525 0.930 . S
H1514 C1527 0.930 . S
H1515 C1528 0.930 . S
H1516 C1532 0.959 . S
H1517 C1532 0.959 . S
H1518 C1532 0.961 . S
H1519 C1533 0.960 . S
H1520 C1533 0.961 . S
H1521 C1533 0.959 . S
H1522 C1536 0.929 . S
H1523 C1537 0.931 . S
H1524 C1539 0.930 . S
C1525 H1513 0.930 . S
C1525 C1526 1.399 . S
C1525 C1530 1.399 . S
C1526 C1525 1.399 . S
C1526 C1527 1.376 . S
C1527 H1514 0.930 . S
C1527 C1526 1.376 . S
C1527 C1528 1.388 . S
C1528 H1515 0.930 . S
C1528 C1527 1.388 . S
C1528 C1529 1.390 . S
C1529 C1528 1.390 . S
C1529 C1530 1.394 . S
C1529 C1535 1.465 . S
C1530 C1525 1.399 . S
C1530 C1529 1.394 . S
C1530 C1531 1.516 . S
C1531 C1530 1.516 . S
C1531 C1532 1.502 . S
C1531 C1533 1.561 . S
C1531 C1534 1.526 . S
C1532 H1516 0.959 . S
C1532 H1517 0.959 . S
C1532 H1518 0.961 . S
C1532 C1531 1.502 . S
C1533 H1519 0.960 . S
C1533 H1520 0.961 . S
C1533 H1521 0.959 . S
C1533 C1531 1.561 . S
C1534 C1531 1.526 . S
C1534 C1535 1.396 . S
C1534 C1539 1.390 . S
C1535 C1529 1.465 . S
C1535 C1534 1.396 . S
C1535 C1536 1.399 . S
C1536 H1522 0.929 . S
C1536 C1535 1.399 . S
C1536 C1537 1.385 . S
C1537 H1523 0.931 . S
C1537 C1536 1.385 . S
C1537 C1538 1.389 . S
C1538 C1537 1.389 . S
C1538 C1539 1.387 . S
C1539 H1524 0.930 . S
C1539 C1534 1.390 . S
C1539 C1538 1.387 . S
H1540 C1552 0.930 . S
H1541 C1554 0.930 . S
H1542 C1555 0.930 . S
H1543 C1559 0.959 . S
H1544 C1559 0.959 . S
H1545 C1559 0.961 . S
H1546 C1560 0.960 . S
H1547 C1560 0.961 . S
H1548 C1560 0.959 1_556 S
H1549 C1563 0.929 . S
H1550 C1564 0.931 . S
H1551 C1566 0.930 . S
C1552 H1540 0.930 . S
C1552 C1553 1.399 . S
C1552 C1557 1.399 . S
C1553 C1552 1.399 . S
C1553 C1554 1.376 . S
C1554 H1541 0.930 . S
C1554 C1553 1.376 . S
C1554 C1555 1.388 . S
C1555 H1542 0.930 . S
C1555 C1554 1.388 . S
C1555 C1556 1.390 . S
C1556 C1555 1.390 . S
C1556 C1557 1.394 . S
C1556 C1562 1.465 . S
C1557 C1552 1.399 . S
C1557 C1556 1.394 . S
C1557 C1558 1.516 1_556 S
C1558 C1557 1.516 1_554 S
C1558 C1559 1.502 . S
C1558 C1560 1.561 . S
C1558 C1561 1.526 . S
C1559 H1543 0.959 . S
C1559 H1544 0.959 . S
C1559 H1545 0.961 . S
C1559 C1558 1.502 . S
C1560 H1546 0.960 . S
C1560 H1547 0.961 . S
C1560 H1548 0.959 1_554 S
C1560 C1558 1.561 . S
C1561 C1558 1.526 . S
C1561 C1562 1.396 1_554 S
C1561 C1566 1.390 . S
C1562 C1556 1.465 . S
C1562 C1561 1.396 1_556 S
C1562 C1563 1.399 . S
C1563 H1549 0.929 . S
C1563 C1562 1.399 . S
C1563 C1564 1.385 1_556 S
C1564 H1550 0.931 . S
C1564 C1563 1.385 1_554 S
C1564 C1565 1.389 . S
C1565 C1564 1.389 . S
C1565 C1566 1.387 . S
C1566 H1551 0.930 . S
C1566 C1561 1.390 . S
C1566 C1565 1.387 . S
H1567 C1579 0.930 . S
H1568 C1581 0.930 . S
H1569 C1582 0.930 . S
H1570 C1586 0.959 . S
H1571 C1586 0.959 . S
H1572 C1586 0.961 . S
H1573 C1587 0.960 . S
H1574 C1587 0.961 . S
H1575 C1587 0.959 . S
H1576 C1590 0.929 . S
H1577 C1591 0.931 . S
H1578 C1593 0.930 . S
C1579 H1567 0.930 . S
C1579 C1580 1.399 . S
C1579 C1584 1.399 . S
C1580 C1579 1.399 . S
C1580 C1581 1.376 . S
C1581 H1568 0.930 . S
C1581 C1580 1.376 . S
C1581 C1582 1.388 . S
C1582 H1569 0.930 . S
C1582 C1581 1.388 . S
C1582 C1583 1.390 . S
C1583 C1582 1.390 . S
C1583 C1584 1.394 . S
C1583 C1589 1.465 . S
C1584 C1579 1.399 . S
C1584 C1583 1.394 . S
C1584 C1585 1.516 . S
C1585 C1584 1.516 . S
C1585 C1586 1.502 . S
C1585 C1587 1.561 . S
C1585 C1588 1.526 . S
C1586 H1570 0.959 . S
C1586 H1571 0.959 . S
C1586 H1572 0.961 . S
C1586 C1585 1.502 . S
C1587 H1573 0.960 . S
C1587 H1574 0.961 . S
C1587 H1575 0.959 . S
C1587 C1585 1.561 . S
C1588 C1585 1.526 . S
C1588 C1589 1.396 . S
C1588 C1593 1.390 . S
C1589 C1583 1.465 . S
C1589 C1588 1.396 . S
C1589 C1590 1.399 . S
C1590 H1576 0.929 . S
C1590 C1589 1.399 . S
C1590 C1591 1.385 . S
C1591 H1577 0.931 . S
C1591 C1590 1.385 . S
C1591 C1592 1.389 . S
C1592 C1591 1.389 . S
C1592 C1593 1.387 . S
C1593 H1578 0.930 . S
C1593 C1588 1.390 . S
C1593 C1592 1.387 . S
H1594 C1606 0.930 1_554 S
H1595 C1608 0.930 . S
H1596 C1609 0.930 . S
H1597 C1613 0.959 . S
H1598 C1613 0.959 . S
H1599 C1613 0.961 . S
H1600 C1614 0.960 . S
H1601 C1614 0.961 . S
H1602 C1614 0.959 . S
H1603 C1617 0.929 . S
H1604 C1618 0.931 . S
H1605 C1620 0.930 . S
C1606 H1594 0.930 1_556 S
C1606 C1607 1.399 . S
C1606 C1611 1.399 1_556 S
C1607 C1606 1.399 . S
C1607 C1608 1.376 . S
C1608 H1595 0.930 . S
C1608 C1607 1.376 . S
C1608 C1609 1.388 . S
C1609 H1596 0.930 . S
C1609 C1608 1.388 . S
C1609 C1610 1.390 . S
C1610 C1609 1.390 . S
C1610 C1611 1.394 1_556 S
C1610 C1616 1.465 . S
C1611 C1606 1.399 1_554 S
C1611 C1610 1.394 1_554 S
C1611 C1612 1.516 . S
C1612 C1611 1.516 . S
C1612 C1613 1.502 . S
C1612 C1614 1.561 . S
C1612 C1615 1.526 . S
C1613 H1597 0.959 . S
C1613 H1598 0.959 . S
C1613 H1599 0.961 . S
C1613 C1612 1.502 . S
C1614 H1600 0.960 . S
C1614 H1601 0.961 . S
C1614 H1602 0.959 . S
C1614 C1612 1.561 . S
C1615 C1612 1.526 . S
C1615 C1616 1.396 1_554 S
C1615 C1620 1.390 . S
C1616 C1610 1.465 . S
C1616 C1615 1.396 1_556 S
C1616 C1617 1.399 . S
C1617 H1603 0.929 . S
C1617 C1616 1.399 . S
C1617 C1618 1.385 . S
C1618 H1604 0.931 . S
C1618 C1617 1.385 . S
C1618 C1619 1.389 1_556 S
C1619 C1618 1.389 1_554 S
C1619 C1620 1.387 . S
C1620 H1605 0.930 . S
C1620 C1615 1.390 . S
C1620 C1619 1.387 . S
H1621 C1633 0.930 . S
H1622 C1635 0.930 . S
H1623 C1636 0.930 . S
H1624 C1640 0.959 . S
H1625 C1640 0.959 . S
H1626 C1640 0.961 . S
H1627 C1641 0.960 . S
H1628 C1641 0.961 . S
H1629 C1641 0.959 . S
H1630 C1644 0.929 . S
H1631 C1645 0.931 . S
H1632 C1647 0.930 . S
C1633 H1621 0.930 . S
C1633 C1634 1.399 . S
C1633 C1638 1.399 . S
C1634 C1633 1.399 . S
C1634 C1635 1.376 . S
C1635 H1622 0.930 . S
C1635 C1634 1.376 . S
C1635 C1636 1.388 . S
C1636 H1623 0.930 . S
C1636 C1635 1.388 . S
C1636 C1637 1.390 . S
C1637 C1636 1.390 . S
C1637 C1638 1.394 . S
C1637 C1643 1.465 . S
C1638 C1633 1.399 . S
C1638 C1637 1.394 . S
C1638 C1639 1.516 . S
C1639 C1638 1.516 . S
C1639 C1640 1.502 . S
C1639 C1641 1.561 . S
C1639 C1642 1.526 . S
C1640 H1624 0.959 . S
C1640 H1625 0.959 . S
C1640 H1626 0.961 . S
C1640 C1639 1.502 . S
C1641 H1627 0.960 . S
C1641 H1628 0.961 . S
C1641 H1629 0.959 . S
C1641 C1639 1.561 . S
C1642 C1639 1.526 . S
C1642 C1643 1.396 . S
C1642 C1647 1.390 . S
C1643 C1637 1.465 . S
C1643 C1642 1.396 . S
C1643 C1644 1.399 . S
C1644 H1630 0.929 . S
C1644 C1643 1.399 . S
C1644 C1645 1.385 . S
C1645 H1631 0.931 . S
C1645 C1644 1.385 . S
C1645 C1646 1.389 . S
C1646 C1645 1.389 . S
C1646 C1647 1.387 . S
C1647 H1632 0.930 . S
C1647 C1642 1.390 . S
C1647 C1646 1.387 . S
C365 C15 1.371 . S
C377 C73 1.370 . S
C392 C59 1.402 . S
C404 C29 1.393 . S
C419 C169 1.382 . S
C431 C109 1.384 . S
C446 C117 1.411 . S
C458 C153 1.410 . S
C473 C257 1.380 . S
C485 C191 1.367 . S
C500 C235 1.389 . S
C512 C205 1.403 . S
C527 C285 1.409 . S
C539 C345 1.407 . S
C554 C323 1.413 . S
C566 C293 1.413 . S
C581 C8 1.557 . S
C593 C351 1.577 . S
C608 C32 1.508 . S
C620 C329 1.577 . S
C635 C301 1.576 . S
C647 C52 1.553 . S
C662 C271 1.576 . S
C674 C76 1.493 . S
C689 C98 1.555 . S
C701 C249 1.578 . S
C716 C118 1.568 . S
C728 C227 1.577 . S
C743 C219 1.580 . S
C755 C142 1.539 . S
C770 C183 1.583 . S
C782 C172 1.523 . S
C797 C184 1.556 . S
C809 C175 1.577 . S
C824 C208 1.526 . S
C836 C139 1.576 . S
C851 C228 1.545 . S
C863 C125 1.576 . S
C878 C250 1.558 . S
C890 C95 1.577 . S
C905 C87 1.579 . S
C917 C274 1.550 . S
C932 C51 1.577 . S
C944 C294 1.563 . S
C959 C326 1.504 . S
C971 C43 1.584 . S
C986 C348 1.544 . S
C998 C7 1.580 . S
C1013 C18 1.436 . S
C1025 C150 1.436 . S
C1040 C30 1.437 . S
C1052 C162 1.437 . S
C1067 C106 1.438 . S
C1079 C62 1.436 . S
C1094 C74 1.428 . S
C1106 C120 1.427 . S
C1121 C194 1.435 . S
C1133 C316 1.434 . S
C1148 C206 1.437 . S
C1160 C338 1.438 . S
C1175 C238 1.435 . S
C1187 C282 1.434 . S
C1202 C296 1.438 . S
C1214 C260 1.437 . S
C1229 C10 1.538 . S
C1241 C54 1.538 . S
C1256 C40 1.539 . S
C1268 C84 1.539 . S
C1283 C140 1.519 . S
C1295 C96 1.520 . S
C1310 C128 1.520 . S
C1322 C164 1.521 . S
C1337 C186 1.537 . S
C1349 C230 1.537 . S
C1364 C252 1.523 . S
C1376 C216 1.523 . S
C1391 C272 1.533 . S
C1403 C318 1.533 . S
C1418 C304 1.534 . S
C1430 C340 1.535 . S
C1445 C21 0.954 . S
C1457 C279 0.834 . S
C1472 C37 0.965 . S
C1484 C307 0.836 . S
C1499 C65 0.837 . S
C1511 C315 0.958 . S
C1526 C81 0.965 . S
C1538 C337 0.831 . S
C1553 C103 0.961 . S
C1565 C197 0.822 . S
C1580 C213 0.947 . S
C1592 C131 0.840 . S
C1607 C241 0.952 . S
C1619 C147 0.857 . S
C1634 C263 0.943 . S
C1646 C161 0.843 . S
