# Generated by pormake.
# Topology acs-i, (5)-cn, num edge types: 1
# Building blocks:
#     Node 0, Type 0, BuildingBlock: BEQFEK_clean_sbu_0, # of connection points: 5
#     Node 1, Type 0, BuildingBlock: BEQFEK_clean_sbu_0, # of connection points: 5
#     Node 2, Type 0, BuildingBlock: BEQFEK_clean_sbu_0, # of connection points: 5
#     Node 3, Type 0, BuildingBlock: BEQFEK_clean_sbu_0, # of connection points: 5
#     Node 4, Type 0, BuildingBlock: BEQFEK_clean_sbu_0, # of connection points: 5
#     Node 5, Type 0, BuildingBlock: BEQFEK_clean_sbu_0, # of connection points: 5
#     Node 6, Type 0, BuildingBlock: BEQFEK_clean_sbu_0, # of connection points: 5
#     Node 7, Type 0, BuildingBlock: BEQFEK_clean_sbu_0, # of connection points: 5
#     Node 8, Type 0, BuildingBlock: BEQFEK_clean_sbu_0, # of connection points: 5
#     Node 9, Type 0, BuildingBlock: BEQFEK_clean_sbu_0, # of connection points: 5
#     Node 10, Type 0, BuildingBlock: BEQFEK_clean_sbu_0, # of connection points: 5
#     Node 11, Type 0, BuildingBlock: BEQFEK_clean_sbu_0, # of connection points: 5
#     Edge 12, Type (0, 0), BuildingBlock: ZUJKAS_clean_linker_0, # of connection points: 2
#     Edge 13, Type (0, 0), BuildingBlock: ZUJKAS_clean_linker_0, # of connection points: 2
#     Edge 14, Type (0, 0), BuildingBlock: ZUJKAS_clean_linker_0, # of connection points: 2
#     Edge 15, Type (0, 0), BuildingBlock: ZUJKAS_clean_linker_0, # of connection points: 2
#     Edge 16, Type (0, 0), BuildingBlock: ZUJKAS_clean_linker_0, # of connection points: 2
#     Edge 17, Type (0, 0), BuildingBlock: ZUJKAS_clean_linker_0, # of connection points: 2
#     Edge 18, Type (0, 0), BuildingBlock: ZUJKAS_clean_linker_0, # of connection points: 2
#     Edge 19, Type (0, 0), BuildingBlock: ZUJKAS_clean_linker_0, # of connection points: 2
#     Edge 20, Type (0, 0), BuildingBlock: ZUJKAS_clean_linker_0, # of connection points: 2
#     Edge 21, Type (0, 0), BuildingBlock: ZUJKAS_clean_linker_0, # of connection points: 2
#     Edge 22, Type (0, 0), BuildingBlock: ZUJKAS_clean_linker_0, # of connection points: 2
#     Edge 23, Type (0, 0), BuildingBlock: ZUJKAS_clean_linker_0, # of connection points: 2
#     Edge 24, Type (0, 0), BuildingBlock: ZUJKAS_clean_linker_0, # of connection points: 2
#     Edge 25, Type (0, 0), BuildingBlock: ZUJKAS_clean_linker_0, # of connection points: 2
#     Edge 26, Type (0, 0), BuildingBlock: ZUJKAS_clean_linker_0, # of connection points: 2
#     Edge 27, Type (0, 0), BuildingBlock: ZUJKAS_clean_linker_0, # of connection points: 2
#     Edge 28, Type (0, 0), BuildingBlock: ZUJKAS_clean_linker_0, # of connection points: 2
#     Edge 29, Type (0, 0), BuildingBlock: ZUJKAS_clean_linker_0, # of connection points: 2
#     Edge 30, Type (0, 0), BuildingBlock: ZUJKAS_clean_linker_0, # of connection points: 2
#     Edge 31, Type (0, 0), BuildingBlock: ZUJKAS_clean_linker_0, # of connection points: 2
#     Edge 32, Type (0, 0), BuildingBlock: ZUJKAS_clean_linker_0, # of connection points: 2
#     Edge 33, Type (0, 0), BuildingBlock: ZUJKAS_clean_linker_0, # of connection points: 2
#     Edge 34, Type (0, 0), BuildingBlock: ZUJKAS_clean_linker_0, # of connection points: 2
#     Edge 35, Type (0, 0), BuildingBlock: ZUJKAS_clean_linker_0, # of connection points: 2
#     Edge 36, Type (0, 0), BuildingBlock: ZUJKAS_clean_linker_0, # of connection points: 2
#     Edge 37, Type (0, 0), BuildingBlock: ZUJKAS_clean_linker_0, # of connection points: 2
#     Edge 38, Type (0, 0), BuildingBlock: ZUJKAS_clean_linker_0, # of connection points: 2
#     Edge 39, Type (0, 0), BuildingBlock: ZUJKAS_clean_linker_0, # of connection points: 2
#     Edge 40, Type (0, 0), BuildingBlock: ZUJKAS_clean_linker_0, # of connection points: 2
#     Edge 41, Type (0, 0), BuildingBlock: ZUJKAS_clean_linker_0, # of connection points: 2
# Relax obj value: 1.273
# Max RMSD: 0.221
# Mean RMSD: 0.210
data_MOF--net-acs-i--node1-BEQFEK_clean_sbu_0--edge1-ZUJKAS_clean_linker_0
_symmetry_space_group_name_H-M    P1
_symmetry_Int_Tables_number       1
_symmetry_cell_setting            triclinic
loop_
_symmetry_equiv_pos_as_xyz
'x, y, z'
_cell_length_a     57.656495
_cell_length_b     48.706273
_cell_length_c     39.348832
_cell_angle_alpha  89.995727
_cell_angle_beta   89.900417
_cell_angle_gamma 115.02713
loop_
_atom_site_label
_atom_site_type_symbol
_atom_site_fract_x
_atom_site_fract_y
_atom_site_fract_z
_atom_type_partial_charge
Co0 Co 0.37298 0.38494 0.31094 0.0
Co1 Co 0.32719 0.37268 0.26022 0.0
C2 C 0.38083 0.40834 0.23818 0.0
O3 O 0.38923 0.40486 0.26703 0.0
O4 O 0.35695 0.39746 0.23219 0.0
C5 C 0.41431 0.42936 0.34383 0.0
O6 O 0.41004 0.44421 0.31854 0.0
C7 C 0.29357 0.37816 0.20747 0.0
C8 C 0.25698 0.33872 0.21798 0.0
C9 C 0.2688 0.36254 0.19557 0.0
N10 N 0.29649 0.36392 0.23525 0.0
N11 N 0.27452 0.3404 0.24149 0.0
C12 C 0.31366 0.40719 0.1939 0.0
H13 H 0.32626 0.42068 0.21474 0.0
H14 H 0.30483 0.42079 0.18125 0.0
H15 H 0.32541 0.40191 0.17494 0.0
C16 C 0.34181 0.40829 0.35225 0.0
N17 N 0.34595 0.39569 0.3237 0.0
N18 N 0.32752 0.39178 0.30191 0.0
C19 C 0.31143 0.40233 0.31551 0.0
C20 C 0.31991 0.41306 0.34796 0.0
C21 C 0.35766 0.41409 0.38379 0.0
H22 H 0.36461 0.39624 0.38715 0.0
H23 H 0.3744 0.43636 0.38152 0.0
H24 H 0.34647 0.41459 0.40658 0.0
O25 O 0.35982 0.34026 0.30472 0.0
O26 O 0.32866 0.33377 0.26802 0.0
H27 H 0.27323 0.38088 0.2965 0.0
H28 H 0.28292 0.41993 0.30883 0.0
C29 C 0.28938 0.40376 0.29681 0.0
H30 H 0.29502 0.41087 0.27017 0.0
H31 H 0.2716 0.32526 0.26152 0.0
O32 O 0.40042 0.40103 0.34631 0.0
C33 C 0.34167 0.32325 0.28536 0.0
Co34 Co 0.84698 0.43346 0.50192 0.0
Co35 Co 0.83039 0.43635 0.42656 0.0
C36 C 0.83397 0.48319 0.47954 0.0
O37 O 0.84068 0.46979 0.50259 0.0
O38 O 0.82958 0.47291 0.4493 0.0
C39 C 0.86123 0.44367 0.57228 0.0
O40 O 0.86154 0.47045 0.56705 0.0
C41 C 0.79009 0.43334 0.38211 0.0
C42 C 0.79859 0.41754 0.3331 0.0
C43 C 0.78057 0.42453 0.34976 0.0
N44 N 0.81282 0.43212 0.38455 0.0
N45 N 0.81813 0.42322 0.35495 0.0
C46 C 0.77589 0.43802 0.41187 0.0
H47 H 0.77769 0.46161 0.41136 0.0
H48 H 0.78378 0.43416 0.43614 0.0
H49 H 0.75522 0.42248 0.41052 0.0
C50 C 0.805 0.37308 0.49882 0.0
N51 N 0.8188 0.40036 0.48494 0.0
N52 N 0.81215 0.40035 0.45296 0.0
C53 C 0.79376 0.37255 0.44549 0.0
C54 C 0.78871 0.35454 0.47436 0.0
C55 C 0.80843 0.36455 0.53438 0.0
H56 H 0.82716 0.3633 0.53636 0.0
H57 H 0.80858 0.38226 0.55223 0.0
H58 H 0.79296 0.34238 0.54182 0.0
O59 O 0.87639 0.4399 0.47367 0.0
O60 O 0.86687 0.44277 0.4193 0.0
H61 H 0.79857 0.37044 0.39171 0.0
H62 H 0.7726 0.33737 0.40937 0.0
C63 C 0.78295 0.36242 0.41081 0.0
H64 H 0.76934 0.37233 0.40468 0.0
H65 H 0.83428 0.41926 0.35033 0.0
O66 O 0.85539 0.4247 0.54807 0.0
C67 C 0.88244 0.44296 0.44241 0.0
Co68 Co 0.52163 0.77762 0.9982 0.0
Co69 Co 0.53035 0.71848 0.99076 0.0
C70 C 0.48097 0.72115 0.9699 0.0
O71 O 0.48858 0.74855 0.9795 0.0
O72 O 0.49516 0.70712 0.97293 0.0
C73 C 0.50999 0.8289 0.98961 0.0
O74 O 0.50336 0.81794 0.95884 0.0
C75 C 0.51798 0.65546 0.00516 0.0
C76 C 0.55466 0.65216 0.99716 0.0
C77 C 0.5295 0.63566 0.00729 0.0
N78 N 0.53538 0.68233 0.99403 0.0
N79 N 0.55721 0.68016 0.98876 0.0
C80 C 0.49185 0.65022 0.01752 0.0
H81 H 0.47783 0.63985 0.99679 0.0
H82 H 0.49139 0.67198 0.02486 0.0
H83 H 0.48609 0.63458 0.03963 0.0
C84 C 0.5339 0.7713 0.06954 0.0
N85 N 0.53082 0.7619 0.03702 0.0
N86 N 0.53456 0.73713 0.03451 0.0
C87 C 0.54006 0.72994 0.06573 0.0
C88 C 0.53985 0.75139 0.08882 0.0
C89 C 0.52969 0.79787 0.08202 0.0
H90 H 0.54413 0.81887 0.07028 0.0
H91 H 0.51047 0.7954 0.07396 0.0
H92 H 0.53112 0.79999 0.11009 0.0
O93 O 0.54762 0.78708 0.96235 0.0
O94 O 0.55466 0.74585 0.95662 0.0
H95 H 0.55924 0.70176 0.05441 0.0
H96 H 0.55408 0.70515 0.09924 0.0
C97 C 0.54571 0.70332 0.0735 0.0
H98 H 0.52772 0.6823 0.07232 0.0
H99 H 0.57409 0.69811 0.98079 0.0
O100 O 0.51847 0.81529 0.01026 0.0
C101 C 0.55895 0.77278 0.94785 0.0
Co102 Co 0.64321 0.62282 0.80835 0.0
Co103 Co 0.68954 0.63911 0.75767 0.0
C104 C 0.63518 0.6038 0.73513 0.0
O105 O 0.62628 0.60387 0.76478 0.0
O106 O 0.65911 0.61675 0.72927 0.0
C107 C 0.593 0.59438 0.83958 0.0
O108 O 0.58454 0.59587 0.80897 0.0
C109 C 0.72181 0.62859 0.70683 0.0
C110 C 0.75599 0.67246 0.7056 0.0
C111 C 0.7451 0.64414 0.69053 0.0
N112 N 0.71912 0.64684 0.73059 0.0
N113 N 0.73967 0.67297 0.7299 0.0
C114 C 0.70111 0.59828 0.69765 0.0
H115 H 0.69054 0.60098 0.6753 0.0
H116 H 0.68754 0.58891 0.71912 0.0
H117 H 0.70903 0.58194 0.69074 0.0
C118 C 0.67296 0.5952 0.84516 0.0
N119 N 0.66997 0.61104 0.81878 0.0
N120 N 0.68906 0.61716 0.79736 0.0
C121 C 0.70477 0.60532 0.80931 0.0
C122 C 0.69503 0.59093 0.84004 0.0
C123 C 0.6553 0.5851 0.87511 0.0
H124 H 0.65171 0.60438 0.88465 0.0
H125 H 0.63674 0.56686 0.86707 0.0
H126 H 0.66339 0.57664 0.89606 0.0
O127 O 0.65651 0.66783 0.80419 0.0
O128 O 0.68984 0.67836 0.76975 0.0
H129 H 0.74105 0.62972 0.78519 0.0
H130 H 0.7374 0.59419 0.80401 0.0
C131 C 0.72745 0.60588 0.79019 0.0
H132 H 0.721 0.59447 0.76539 0.0
H133 H 0.74222 0.69144 0.74534 0.0
O134 O 0.61699 0.60644 0.84497 0.0
C135 C 0.67572 0.68686 0.78776 0.0
Co136 Co 0.15106 0.55385 0.01666 0.0
Co137 Co 0.17165 0.56139 0.94175 0.0
C138 C 0.1681 0.50957 0.98664 0.0
O139 O 0.15887 0.5189 0.01096 0.0
O140 O 0.17413 0.5238 0.95851 0.0
C141 C 0.15191 0.54646 0.08789 0.0
O142 O 0.17015 0.53817 0.07985 0.0
C143 C 0.21469 0.57362 0.89804 0.0
C144 C 0.20653 0.59362 0.85182 0.0
C145 C 0.22512 0.58694 0.86731 0.0
N146 N 0.19098 0.57209 0.90062 0.0
N147 N 0.1859 0.5835 0.8726 0.0
C148 C 0.2286 0.56719 0.92692 0.0
H149 H 0.21898 0.56667 0.95146 0.0
H150 H 0.24869 0.5846 0.92824 0.0
H151 H 0.22899 0.54487 0.92269 0.0
C152 C 0.19067 0.61591 0.02254 0.0
N153 N 0.17892 0.59002 0.005 0.0
N154 N 0.18708 0.59427 0.97331 0.0
C155 C 0.20439 0.62341 0.96982 0.0
C156 C 0.20723 0.63782 0.00093 0.0
C157 C 0.18477 0.62015 0.05872 0.0
H158 H 0.16405 0.61428 0.06135 0.0
H159 H 0.18937 0.60466 0.07516 0.0
H160 H 0.19599 0.64373 0.06757 0.0
O161 O 0.12239 0.54968 0.98812 0.0
O162 O 0.13478 0.553 0.93394 0.0
H163 H 0.20119 0.63115 0.91679 0.0
H164 H 0.22496 0.6632 0.93901 0.0
C165 C 0.21604 0.63813 0.93685 0.0
H166 H 0.23107 0.63077 0.92933 0.0
H167 H 0.16907 0.58612 0.8686 0.0
O168 O 0.14092 0.55445 0.06447 0.0
C169 C 0.11787 0.54969 0.95653 0.0
Co170 Co 0.48014 0.25072 0.46268 0.0
Co171 Co 0.47588 0.31313 0.46382 0.0
C172 C 0.52135 0.3072 0.43359 0.0
O173 O 0.51209 0.27905 0.4405 0.0
O174 O 0.50945 0.32318 0.44142 0.0
C175 C 0.50273 0.2106 0.47909 0.0
O176 O 0.5219 0.23609 0.48802 0.0
C177 C 0.49199 0.37643 0.48264 0.0
C178 C 0.45603 0.38221 0.48067 0.0
C179 C 0.48183 0.39729 0.48838 0.0
N180 N 0.47316 0.35038 0.47194 0.0
N181 N 0.45176 0.35409 0.47026 0.0
C182 C 0.51837 0.37975 0.49115 0.0
H183 H 0.53146 0.39117 0.46974 0.0
H184 H 0.5184 0.35723 0.4952 0.0
H185 H 0.52565 0.39371 0.51435 0.0
C186 C 0.47206 0.25415 0.53647 0.0
N187 N 0.47514 0.26583 0.50491 0.0
N188 N 0.47323 0.29184 0.50582 0.0
C189 C 0.46909 0.2976 0.53833 0.0
C190 C 0.46839 0.27397 0.55878 0.0
C191 C 0.47063 0.22347 0.54476 0.0
H192 H 0.46012 0.20713 0.52453 0.0
H193 H 0.4903 0.22487 0.54639 0.0
H194 H 0.46079 0.21497 0.56939 0.0
O195 O 0.45102 0.24418 0.43325 0.0
O196 O 0.44824 0.2884 0.43167 0.0
H197 H 0.45144 0.32833 0.53499 0.0
H198 H 0.46253 0.32526 0.57719 0.0
C199 C 0.46675 0.32566 0.54968 0.0
H200 H 0.48502 0.34559 0.54465 0.0
H201 H 0.43407 0.3371 0.46324 0.0
O202 O 0.48241 0.21134 0.46765 0.0
C203 C 0.44046 0.2608 0.42267 0.0
Co204 Co 0.52337 0.73568 0.54979 0.0
Co205 Co 0.53248 0.80423 0.54616 0.0
C206 C 0.48604 0.75566 0.58046 0.0
O207 O 0.4927 0.73461 0.57307 0.0
O208 O 0.49981 0.78299 0.57188 0.0
C209 C 0.49753 0.67153 0.54201 0.0
O210 O 0.47745 0.6777 0.54265 0.0
C211 C 0.51682 0.84871 0.51735 0.0
C212 C 0.54852 0.89266 0.53032 0.0
C213 C 0.52535 0.87974 0.5133 0.0
N214 N 0.53432 0.84342 0.5353 0.0
N215 N 0.55317 0.86979 0.54324 0.0
C216 C 0.49178 0.82442 0.50575 0.0
H217 H 0.47621 0.83185 0.50947 0.0
H218 H 0.48721 0.80297 0.51959 0.0
H219 H 0.49273 0.81993 0.47832 0.0
C220 C 0.52883 0.74407 0.47517 0.0
N221 N 0.52767 0.75438 0.50662 0.0
N222 N 0.53276 0.78339 0.50496 0.0
C223 C 0.53788 0.79253 0.47228 0.0
C224 C 0.53521 0.76788 0.45238 0.0
C225 C 0.52365 0.71196 0.46722 0.0
H226 H 0.53773 0.70592 0.48071 0.0
H227 H 0.50427 0.69676 0.47651 0.0
H228 H 0.52467 0.70825 0.43956 0.0
O229 O 0.55391 0.75876 0.57787 0.0
O230 O 0.56166 0.80755 0.57562 0.0
H231 H 0.55925 0.84035 0.4811 0.0
H232 H 0.56092 0.82834 0.4381 0.0
C233 C 0.54826 0.82478 0.46053 0.0
H234 H 0.53226 0.83028 0.45275 0.0
H235 H 0.56931 0.87219 0.55713 0.0
O236 O 0.5197 0.69317 0.54488 0.0
C237 C 0.56727 0.78633 0.58618 0.0
Co238 Co 0.84135 0.35598 0.97935 0.0
Co239 Co 0.81743 0.34401 0.05229 0.0
C240 C 0.81487 0.29362 0.00503 0.0
O241 O 0.82705 0.31212 0.98172 0.0
O242 O 0.80967 0.30252 0.03331 0.0
C243 C 0.86414 0.35563 0.91436 0.0
O244 O 0.86617 0.33141 0.92581 0.0
C245 C 0.77235 0.3203 0.09423 0.0
C246 C 0.78448 0.34627 0.14197 0.0
C247 C 0.7633 0.32507 0.12529 0.0
N248 N 0.79759 0.33772 0.09262 0.0
N249 N 0.80493 0.35275 0.12151 0.0
C250 C 0.75677 0.30322 0.0644 0.0
H251 H 0.76781 0.31074 0.04044 0.0
H252 H 0.73888 0.30643 0.06238 0.0
H253 H 0.75148 0.27869 0.06793 0.0
C254 C 0.8088 0.38837 0.97217 0.0
N255 N 0.81682 0.37055 0.99011 0.0
N256 N 0.8072 0.36685 0.021 0.0
C257 C 0.79288 0.38272 0.02374 0.0
C258 C 0.79346 0.39676 0.99285 0.0
C259 C 0.81637 0.39787 0.93614 0.0
H260 H 0.81405 0.37782 0.92071 0.0
H261 H 0.80464 0.40863 0.92484 0.0
H262 H 0.83684 0.41418 0.93537 0.0
O263 O 0.87012 0.37351 0.01014 0.0
O264 O 0.85466 0.36779 0.06287 0.0
H265 H 0.77683 0.40728 0.05446 0.0
H266 H 0.76314 0.36698 0.06103 0.0
C267 C 0.78124 0.38723 0.05607 0.0
H268 H 0.79448 0.39025 0.07756 0.0
H269 H 0.82354 0.36877 0.12642 0.0
O270 O 0.85437 0.36914 0.93319 0.0
C271 C 0.87335 0.37733 0.04199 0.0
Co272 Co 0.37925 0.99567 0.21505 0.0
Co273 Co 0.33313 0.96775 0.2663 0.0
C274 C 0.3867 0.98193 0.28793 0.0
O275 O 0.39563 0.99137 0.25839 0.0
O276 O 0.36292 0.97238 0.29429 0.0
C277 C 0.42779 0.00896 0.18225 0.0
O278 O 0.4367 0.0117 0.21337 0.0
C279 C 0.2998 0.93058 0.3204 0.0
C280 C 0.26401 0.93579 0.31188 0.0
C281 C 0.2755 0.92278 0.33347 0.0
N282 N 0.3028 0.9479 0.29273 0.0
N283 N 0.28131 0.9509 0.2877 0.0
C284 C 0.31928 0.92007 0.33256 0.0
H285 H 0.33085 0.91818 0.31088 0.0
H286 H 0.30994 0.89778 0.3455 0.0
H287 H 0.33222 0.93681 0.35089 0.0
C288 C 0.34674 0.94015 0.17717 0.0
N289 N 0.35111 0.95849 0.20431 0.0
N290 N 0.3321 0.94624 0.22601 0.0
C291 C 0.31511 0.91953 0.21355 0.0
C292 C 0.32385 0.91479 0.18214 0.0
C293 C 0.36363 0.94757 0.1464 0.0
H294 H 0.36837 0.97114 0.13826 0.0
H295 H 0.38172 0.94596 0.15294 0.0
H296 H 0.35432 0.93211 0.12491 0.0
O297 O 0.36795 0.02891 0.21889 0.0
O298 O 0.33566 0.00822 0.25532 0.0
H299 H 0.27752 0.908 0.23296 0.0
H300 H 0.28317 0.87561 0.22043 0.0
C301 C 0.29183 0.89834 0.23238 0.0
H302 H 0.29702 0.89596 0.25897 0.0
H303 H 0.27856 0.96351 0.26795 0.0
O304 O 0.40462 0.00441 0.17771 0.0
C305 C 0.34987 0.03021 0.23655 0.0
Co306 Co 0.46585 0.26045 0.01556 0.0
Co307 Co 0.46106 0.19358 0.01134 0.0
C308 C 0.50779 0.24474 0.03983 0.0
O309 O 0.49865 0.26408 0.03504 0.0
O310 O 0.49535 0.21707 0.03143 0.0
C311 C 0.48267 0.32516 0.02534 0.0
O312 O 0.49685 0.32198 0.04975 0.0
C313 C 0.4762 0.14781 0.98485 0.0
C314 C 0.44157 0.10521 0.99262 0.0
C315 C 0.46603 0.11681 0.97886 0.0
N316 N 0.45858 0.15413 0.00121 0.0
N317 N 0.43804 0.12853 0.00631 0.0
C318 C 0.50101 0.17165 0.97199 0.0
H319 H 0.5166 0.17345 0.98959 0.0
H320 H 0.50021 0.19399 0.97087 0.0
H321 H 0.50552 0.16564 0.94638 0.0
C322 C 0.45795 0.25101 0.94172 0.0
N323 N 0.45997 0.24091 0.97292 0.0
N324 N 0.45679 0.21256 0.97088 0.0
C325 C 0.45211 0.20357 0.93814 0.0
C326 C 0.45283 0.22767 0.91864 0.0
C327 C 0.46272 0.28308 0.93408 0.0
H328 H 0.44656 0.28737 0.9441 0.0
H329 H 0.48047 0.29876 0.94701 0.0
H330 H 0.46476 0.28794 0.90643 0.0
O331 O 0.43771 0.23726 0.0474 0.0
O332 O 0.43498 0.19025 0.046 0.0
H333 H 0.43408 0.15528 0.94477 0.0
H334 H 0.43531 0.1677 0.90131 0.0
C335 C 0.44588 0.17219 0.92573 0.0
H336 H 0.46387 0.16963 0.92154 0.0
H337 H 0.42131 0.12714 0.01788 0.0
O338 O 0.46766 0.30188 0.00905 0.0
C339 C 0.42771 0.2098 0.05752 0.0
Co340 Co 0.15197 0.61325 0.50637 0.0
Co341 Co 0.17244 0.62288 0.58133 0.0
C342 C 0.17019 0.67346 0.53864 0.0
O343 O 0.16105 0.65603 0.5134 0.0
O344 O 0.17544 0.66379 0.56634 0.0
C345 C 0.15225 0.62242 0.43509 0.0
O346 O 0.17061 0.64892 0.44294 0.0
C347 C 0.21579 0.65143 0.62528 0.0
C348 C 0.20639 0.62249 0.67103 0.0
C349 C 0.22568 0.64753 0.656 0.0
N350 N 0.19178 0.62998 0.62228 0.0
N351 N 0.186 0.61302 0.65 0.0
C352 C 0.23025 0.67213 0.59688 0.0
H353 H 0.23171 0.69519 0.60206 0.0
H354 H 0.22036 0.66415 0.57227 0.0
H355 H 0.24995 0.67358 0.59508 0.0
C356 C 0.19006 0.58846 0.49869 0.0
N357 N 0.17917 0.60319 0.51699 0.0
N358 N 0.18738 0.60603 0.54856 0.0
C359 C 0.2038 0.59291 0.55126 0.0
C360 C 0.206 0.58149 0.51974 0.0
C361 C 0.18404 0.57958 0.46221 0.0
H362 H 0.16331 0.56478 0.45958 0.0
H363 H 0.18857 0.60023 0.44673 0.0
H364 H 0.19525 0.56762 0.45222 0.0
O365 O 0.12292 0.58917 0.53473 0.0
O366 O 0.1357 0.59365 0.58876 0.0
H367 H 0.22264 0.57096 0.58113 0.0
H368 H 0.23032 0.60966 0.59226 0.0
C369 C 0.21469 0.58799 0.58397 0.0
H370 H 0.19964 0.58029 0.60384 0.0
H371 H 0.16872 0.59402 0.65371 0.0
O372 O 0.14145 0.60337 0.45859 0.0
C373 C 0.11843 0.58271 0.56604 0.0
Co374 Co 0.59113 0.99006 0.65836 0.0
Co375 Co 0.63957 0.0141 0.70612 0.0
C376 C 0.58825 0.00932 0.72981 0.0
O377 O 0.5777 -0.00014 0.70113 0.0
O378 O 0.61162 0.01496 0.73475 0.0
C379 C 0.54302 0.98111 0.628 0.0
O380 O 0.53502 0.97863 0.6596 0.0
C381 C 0.67797 0.05633 0.75279 0.0
C382 C 0.705 0.03526 0.75812 0.0
C383 C 0.69988 0.05895 0.76995 0.0
N384 N 0.67057 0.03225 0.73187 0.0
N385 N 0.68697 0.01996 0.73495 0.0
C386 C 0.66304 0.07478 0.75823 0.0
H387 H 0.6595 0.07622 0.78577 0.0
H388 H 0.64475 0.06528 0.74422 0.0
H389 H 0.67405 0.09807 0.74851 0.0
C390 C 0.62654 0.04182 0.61687 0.0
N391 N 0.62156 0.02389 0.64454 0.0
N392 N 0.64178 0.03415 0.66444 0.0
C393 C 0.66036 0.05866 0.64992 0.0
C394 C 0.65125 0.06443 0.61934 0.0
C395 C 0.60796 0.03726 0.58855 0.0
H396 H 0.60077 0.01363 0.57919 0.0
H397 H 0.5914 0.04091 0.59827 0.0
H398 H 0.61686 0.05294 0.56703 0.0
O399 O 0.59723 0.95313 0.66584 0.0
O400 O 0.63262 0.97161 0.6973 0.0
H401 H 0.69462 0.06251 0.67476 0.0
H402 H 0.69874 0.0952 0.64932 0.0
C403 C 0.68552 0.07738 0.66642 0.0
H404 H 0.68213 0.08853 0.68919 0.0
H405 H 0.68534 0.00049 0.72215 0.0
O406 O 0.56537 0.98317 0.62203 0.0
C407 C 0.61517 0.94976 0.68162 0.0
H408 H 0.39388 0.23364 0.07132 0.0
H409 H 0.36926 0.22754 0.12356 0.0
H410 H 0.39607 0.1628 0.16061 0.0
H411 H 0.42024 0.16811 0.10773 0.0
H412 H 0.33181 0.16952 0.16658 0.0
H413 H 0.42667 0.24568 0.22088 0.0
H414 H 0.42245 0.24269 0.17543 0.0
H415 H 0.42212 0.21114 0.19924 0.0
C416 C 0.3939 0.21741 0.09014 0.0
C417 C 0.40907 0.20151 0.08565 0.0
C418 C 0.37973 0.2138 0.11985 0.0
C419 C 0.38082 0.19465 0.14579 0.0
C420 C 0.39472 0.17734 0.14065 0.0
H421 H 0.36231 0.2891 0.31859 0.0
H422 H 0.36521 0.24406 0.29621 0.0
C423 C 0.40855 0.18049 0.11051 0.0
C424 C 0.37102 0.19747 0.17963 0.0
H425 H 0.39038 0.24686 0.2457 0.0
C426 C 0.34451 0.18561 0.18472 0.0
C427 C 0.38766 0.21786 0.20355 0.0
C428 C 0.41635 0.23018 0.1998 0.0
C429 C 0.33415 0.19622 0.21125 0.0
C430 C 0.35083 0.22003 0.23227 0.0
C431 C 0.37737 0.22903 0.22948 0.0
C432 C 0.3421 0.24018 0.25171 0.0
C433 C 0.30545 0.18285 0.215 0.0
C434 C 0.32685 0.25222 0.23537 0.0
C435 C 0.32454 0.27745 0.24858 0.0
C436 C 0.33827 0.29205 0.27779 0.0
C437 C 0.35172 0.2786 0.29584 0.0
C438 C 0.35338 0.25272 0.28302 0.0
H439 H 0.29727 0.15783 0.21213 0.0
H440 H 0.2994 0.18832 0.23991 0.0
H441 H 0.29726 0.19152 0.19433 0.0
H442 H 0.31854 0.24403 0.21071 0.0
H443 H 0.31387 0.28707 0.23398 0.0
H444 H 0.9036 0.40356 0.44888 0.0
H445 H 0.94729 0.41906 0.46953 0.0
H446 H 0.96449 0.51194 0.44504 0.0
H447 H 0.92075 0.49641 0.42425 0.0
H448 H 0.00834 0.49035 0.44236 0.0
H449 H 0.95072 0.46885 0.5615 0.0
H450 H 0.94134 0.43894 0.5305 0.0
H451 H 0.93824 0.4732 0.52082 0.0
C452 C 0.91726 0.42696 0.44569 0.0
C453 C 0.90898 0.44884 0.43495 0.0
C454 C 0.94209 0.43583 0.45792 0.0
C455 C 0.95878 0.46665 0.45944 0.0
C456 C 0.95175 0.48802 0.44407 0.0
H457 H 0.0764 0.59274 0.57581 0.0
H458 H 0.03419 0.55739 0.55562 0.0
C459 C 0.92688 0.47911 0.43177 0.0
C460 C 0.98076 0.47713 0.48293 0.0
H461 H 0.99544 0.49028 0.56727 0.0
C462 C 0.00563 0.48991 0.46967 0.0
C463 C 0.97693 0.47679 0.51854 0.0
C464 C 0.95042 0.4639 0.5339 0.0
C465 C 0.0269 0.50293 0.49119 0.0
C466 C 0.02305 0.50301 0.52676 0.0
C467 C 0.99821 0.48975 0.54005 0.0
C468 C 0.04462 0.5199 0.54971 0.0
C469 C 0.05334 0.51769 0.47573 0.0
C470 C 0.06353 0.50958 0.5558 0.0
C471 C 0.08748 0.52962 0.56803 0.0
C472 C 0.09265 0.56009 0.57396 0.0
C473 C 0.07263 0.56917 0.57217 0.0
C474 C 0.04864 0.5491 0.56018 0.0
H475 H 0.0528 0.51846 0.44753 0.0
H476 H 0.06371 0.54117 0.48544 0.0
H477 H 0.06445 0.50479 0.48317 0.0
H478 H 0.06065 0.48705 0.54792 0.0
H479 H 0.10284 0.52236 0.56845 0.0
H480 H 0.65442 0.93296 0.68657 0.0
H481 H 0.65284 0.88916 0.7184 0.0
H482 H 0.57073 0.85571 0.72658 0.0
H483 H 0.57219 0.89839 0.69315 0.0
H484 H 0.64146 0.88944 0.78007 0.0
H485 H 0.57623 0.77768 0.73226 0.0
H486 H 0.58793 0.8107 0.70514 0.0
H487 H 0.55951 0.80138 0.73064 0.0
C488 C 0.63593 0.91532 0.69357 0.0
C489 C 0.61345 0.91918 0.68796 0.0
C490 C 0.63504 0.89035 0.71188 0.0
C491 C 0.61173 0.86933 0.72547 0.0
C492 C 0.58894 0.87125 0.71609 0.0
H493 H 0.57401 0.83046 0.92515 0.0
H494 H 0.59242 0.85079 0.87037 0.0
C495 C 0.58978 0.89584 0.69702 0.0
C496 C 0.61177 0.85091 0.75551 0.0
H497 H 0.57634 0.78385 0.79522 0.0
C498 C 0.62768 0.86604 0.78288 0.0
C499 C 0.59439 0.82015 0.75935 0.0
C500 C 0.57882 0.80155 0.73002 0.0
C501 C 0.62526 0.85209 0.81456 0.0
C502 C 0.6055 0.82283 0.81963 0.0
C503 C 0.5911 0.80663 0.79161 0.0
C504 C 0.59708 0.81087 0.85428 0.0
C505 C 0.64355 0.86927 0.84249 0.0
C506 C 0.59336 0.78146 0.86358 0.0
C507 C 0.58238 0.76946 0.89509 0.0
C508 C 0.57479 0.78667 0.91754 0.0
C509 C 0.57964 0.81654 0.90861 0.0
C510 C 0.5904 0.82835 0.87726 0.0
H511 H 0.66278 0.88362 0.83187 0.0
H512 H 0.63645 0.8846 0.85517 0.0
H513 H 0.64556 0.85379 0.86178 0.0
H514 H 0.59827 0.76754 0.84611 0.0
H515 H 0.57878 0.74631 0.90115 0.0
H516 H 0.71865 0.73563 0.7669 0.0
H517 H 0.7195 0.78174 0.74145 0.0
H518 H 0.64089 0.75467 0.77196 0.0
H519 H 0.64028 0.70937 0.79826 0.0
H520 H 0.69374 0.77574 0.68852 0.0
H521 H 0.66402 0.84332 0.77143 0.0
H522 H 0.67481 0.81665 0.78905 0.0
H523 H 0.64121 0.80534 0.78059 0.0
C524 C 0.70193 0.74025 0.76951 0.0
C525 C 0.67917 0.71854 0.78386 0.0
C526 C 0.70246 0.76667 0.75495 0.0
C527 C 0.68022 0.7717 0.75435 0.0
C528 C 0.65851 0.75179 0.77241 0.0
H529 H 0.58515 0.74658 0.60963 0.0
H530 H 0.62082 0.75612 0.64718 0.0
C531 C 0.65807 0.72558 0.78734 0.0
C532 C 0.67717 0.79219 0.72853 0.0
H533 H 0.6383 0.82764 0.7148 0.0
C534 C 0.68254 0.78824 0.6945 0.0
C535 C 0.66362 0.80983 0.73566 0.0
C536 C 0.66091 0.81924 0.77132 0.0
C537 C 0.67092 0.79677 0.66785 0.0
C538 C 0.65288 0.80845 0.67556 0.0
C539 C 0.65114 0.81732 0.70903 0.0
C540 C 0.63191 0.80437 0.65153 0.0
C541 C 0.67624 0.79055 0.63181 0.0
C542 C 0.62544 0.82816 0.64251 0.0
C543 C 0.60451 0.82265 0.62098 0.0
C544 C 0.58968 0.79321 0.60861 0.0
C545 C 0.59617 0.76958 0.61827 0.0
C546 C 0.61685 0.77507 0.63956 0.0
H547 H 0.69664 0.79478 0.62883 0.0
H548 H 0.66445 0.76633 0.62575 0.0
H549 H 0.67174 0.80483 0.61331 0.0
H550 H 0.63651 0.85083 0.65205 0.0
H551 H 0.59986 0.8413 0.61428 0.0
H552 H 0.09229 0.58325 0.97144 0.0
H553 H 0.04682 0.56077 0.98611 0.0
H554 H 0.03824 0.47639 0.94094 0.0
H555 H 0.08377 0.49896 0.92601 0.0
H556 H 0.99158 0.49316 0.94133 0.0
H557 H 0.04004 0.49634 0.06482 0.0
H558 H 0.04973 0.53127 0.04156 0.0
H559 H 0.05642 0.5012 0.02461 0.0
C560 C 0.0803 0.56056 0.9626 0.0
C561 C 0.09135 0.54274 0.94765 0.0
C562 C 0.05442 0.54766 0.97133 0.0
C563 C 0.03948 0.51683 0.96523 0.0
C564 C 0.0496 0.50025 0.94586 0.0
H565 H 0.91484 0.36546 0.03887 0.0
H566 H 0.95788 0.40439 0.02721 0.0
C567 C 0.07553 0.51323 0.93698 0.0
C568 C 0.01583 0.50051 0.98499 0.0
H569 H 0.99517 0.47103 0.06403 0.0
C570 C 0.99224 0.48871 0.96823 0.0
C571 C 0.01699 0.49457 0.02006 0.0
C572 C 0.04211 0.50629 0.03897 0.0
C573 C 0.96966 0.47056 0.98565 0.0
C574 C 0.97093 0.46409 0.02048 0.0
C575 C 0.99441 0.47641 0.03742 0.0
C576 C 0.94828 0.44183 0.03823 0.0
C577 C 0.94464 0.45741 0.96655 0.0
C578 C 0.92946 0.45023 0.05083 0.0
C579 C 0.90501 0.42794 0.05832 0.0
C580 C 0.89929 0.39727 0.05273 0.0
C581 C 0.91904 0.38894 0.04404 0.0
C582 C 0.94349 0.41115 0.03697 0.0
H583 H 0.9469 0.4648 0.93956 0.0
H584 H 0.93646 0.43228 0.96735 0.0
H585 H 0.93068 0.4644 0.97895 0.0
H586 H 0.93294 0.47388 0.05182 0.0
H587 H 0.88988 0.43483 0.06417 0.0
H588 H 0.32608 0.04655 0.2867 0.0
H589 H 0.33054 0.09679 0.29959 0.0
H590 H 0.37091 0.12989 0.2051 0.0
H591 H 0.36833 0.07925 0.19323 0.0
H592 H 0.39841 0.16082 0.25106 0.0
H593 H 0.30525 0.15742 0.28526 0.0
H594 H 0.30712 0.12585 0.30578 0.0
H595 H 0.30769 0.12779 0.25984 0.0
C596 C 0.3353 0.06422 0.26804 0.0
C597 C 0.3473 0.05903 0.23924 0.0
C598 C 0.33742 0.09312 0.27519 0.0
C599 C 0.35073 0.11739 0.2531 0.0
C600 C 0.36055 0.11159 0.22254 0.0
H601 H 0.43461 0.28724 0.36421 0.0
H602 H 0.40899 0.26027 0.31496 0.0
C603 C 0.35914 0.08269 0.21583 0.0
C604 C 0.35928 0.14881 0.26605 0.0
H605 H 0.34127 0.1877 0.3246 0.0
C606 C 0.38572 0.16735 0.26595 0.0
C607 C 0.34289 0.15791 0.28516 0.0
C608 C 0.31415 0.14122 0.28356 0.0
C609 C 0.39645 0.19213 0.28796 0.0
C610 C 0.38026 0.19854 0.31044 0.0
C611 C 0.35365 0.18231 0.30772 0.0
C612 C 0.39082 0.21716 0.34101 0.0
C613 C 0.42521 0.20932 0.28946 0.0
C614 C 0.38812 0.20216 0.37216 0.0
C615 C 0.40292 0.21731 0.3999 0.0
C616 C 0.42028 0.24783 0.39706 0.0
C617 C 0.42115 0.26372 0.36696 0.0
C618 C 0.40663 0.24834 0.33885 0.0
H619 H 0.43507 0.20068 0.2709 0.0
H620 H 0.43074 0.23361 0.28391 0.0
H621 H 0.43214 0.20771 0.31537 0.0
H622 H 0.37607 0.17808 0.37426 0.0
H623 H 0.40196 0.20467 0.42294 0.0
H624 H 0.28974 0.37727 0.13225 0.0
H625 H 0.27193 0.39234 0.083 0.0
H626 H 0.20385 0.37716 0.14065 0.0
H627 H 0.22148 0.36156 0.18986 0.0
H628 H 0.19366 0.35796 0.07295 0.0
H629 H 0.27074 0.47523 0.08184 0.0
H630 H 0.28141 0.44583 0.07627 0.0
H631 H 0.26527 0.44746 0.11482 0.0
C632 C 0.27102 0.37727 0.1344 0.0
C633 C 0.25725 0.3692 0.16507 0.0
C634 C 0.26083 0.38572 0.10624 0.0
C635 C 0.23685 0.38654 0.10846 0.0
C636 C 0.22247 0.37684 0.1385 0.0
H637 H 0.14598 0.46512 0.03343 0.0
H638 H 0.16195 0.42912 0.05348 0.0
C639 C 0.23255 0.36806 0.16658 0.0
C640 C 0.22743 0.39949 0.08057 0.0
H641 H 0.23913 0.46632 0.04084 0.0
C642 C 0.20374 0.38155 0.06555 0.0
C643 C 0.24072 0.43023 0.07081 0.0
C644 C 0.26584 0.45095 0.08688 0.0
C645 C 0.1925 0.39389 0.042 0.0
C646 C 0.20519 0.42498 0.03365 0.0
C647 C 0.22953 0.44242 0.04713 0.0
C648 C 0.19212 0.44123 0.01588 0.0
C649 C 0.16685 0.37378 0.027 0.0
C650 C 0.20344 0.45964 0.98755 0.0
C651 C 0.19431 0.48041 0.97598 0.0
C652 C 0.17406 0.48338 0.99306 0.0
C653 C 0.16171 0.46346 0.01988 0.0
C654 C 0.17066 0.4426 0.03117 0.0
H655 H 0.1642 0.34984 0.0258 0.0
H656 H 0.15146 0.37457 0.04341 0.0
H657 H 0.16463 0.38133 0.00107 0.0
H658 H 0.2202 0.4591 0.97563 0.0
H659 H 0.20422 0.49552 0.95531 0.0
H660 H 0.54999 0.36756 0.42067 0.0
H661 H 0.59236 0.39104 0.39414 0.0
H662 H 0.592 0.30298 0.38101 0.0
H663 H 0.54973 0.27927 0.40735 0.0
H664 H 0.63568 0.38473 0.4203 0.0
H665 H 0.61573 0.34389 0.28721 0.0
H666 H 0.5911 0.34393 0.31567 0.0
H667 H 0.60234 0.31479 0.31888 0.0
C668 C 0.55878 0.35314 0.41181 0.0
C669 C 0.54648 0.32153 0.41624 0.0
C670 C 0.58295 0.3666 0.39658 0.0
C671 C 0.59508 0.34868 0.38512 0.0
C672 C 0.58271 0.31714 0.389 0.0
H673 H 0.7447 0.36868 0.33321 0.0
H674 H 0.69825 0.35242 0.3355 0.0
C675 C 0.55864 0.30367 0.40437 0.0
C676 C 0.62169 0.36303 0.37227 0.0
H677 H 0.6596 0.36535 0.3045 0.0
C678 C 0.64092 0.38094 0.39481 0.0
C679 C 0.62836 0.35768 0.33912 0.0
C680 C 0.6083 0.33923 0.31366 0.0
C681 C 0.66681 0.39274 0.38562 0.0
C682 C 0.67359 0.38721 0.35254 0.0
C683 C 0.65431 0.36976 0.3297 0.0
C684 C 0.70076 0.39768 0.34249 0.0
C685 C 0.68671 0.40975 0.41205 0.0
C686 C 0.71739 0.42863 0.34346 0.0
C687 C 0.74384 0.43785 0.34244 0.0
C688 C 0.75391 0.41629 0.33966 0.0
C689 C 0.73727 0.38568 0.33492 0.0
C690 C 0.71079 0.3764 0.33642 0.0
H691 H 0.67853 0.40595 0.43813 0.0
H692 H 0.70275 0.40284 0.41147 0.0
H693 H 0.69459 0.4344 0.40666 0.0
H694 H 0.70998 0.44543 0.34748 0.0
H695 H 0.75642 0.46156 0.34628 0.0
H696 H 0.48385 0.58862 0.99332 0.0
H697 H 0.46176 0.54315 0.02806 0.0
H698 H 0.52812 0.56977 0.09259 0.0
H699 H 0.55047 0.61506 0.05743 0.0
H700 H 0.50012 0.50475 0.08293 0.0
H701 H 0.43869 0.56174 0.12161 0.0
H702 H 0.43958 0.55617 0.07661 0.0
H703 H 0.46818 0.58102 0.09835 0.0
C704 C 0.49388 0.58433 0.01445 0.0
C705 C 0.51858 0.60545 0.02323 0.0
C706 C 0.4813 0.55844 0.03423 0.0
C707 C 0.49314 0.55357 0.06329 0.0
C708 C 0.51865 0.57326 0.07033 0.0
H709 H 0.43283 0.44183 0.24323 0.0
H710 H 0.46177 0.47447 0.19952 0.0
C711 C 0.53137 0.59905 0.05028 0.0
C712 C 0.47782 0.53049 0.08851 0.0
H713 H 0.42691 0.51209 0.14221 0.0
C714 C 0.48408 0.50624 0.09589 0.0
C715 C 0.45724 0.53293 0.10583 0.0
C716 C 0.45061 0.55949 0.10053 0.0
C717 C 0.46965 0.48373 0.11944 0.0
C718 C 0.44878 0.48594 0.13613 0.0
C719 C 0.44283 0.51041 0.12909 0.0
C720 C 0.43248 0.46316 0.16096 0.0
C721 C 0.47639 0.45747 0.12587 0.0
C722 C 0.40655 0.44599 0.1536 0.0
C723 C 0.39002 0.42749 0.17841 0.0
C724 C 0.39902 0.42602 0.21125 0.0
C725 C 0.42526 0.44248 0.21822 0.0
C726 C 0.44186 0.46098 0.19325 0.0
H727 H 0.4902 0.45636 0.1068 0.0
H728 H 0.48509 0.45991 0.15147 0.0
H729 H 0.45889 0.43576 0.12546 0.0
H730 H 0.39897 0.44751 0.12885 0.0
H731 H 0.37006 0.41482 0.17196 0.0
H732 H 0.76399 0.67404 0.63117 0.0
H733 H 0.7802 0.65595 0.58214 0.0
H734 H 0.7671 0.57388 0.63674 0.0
H735 H 0.75157 0.59212 0.68575 0.0
H736 H 0.82145 0.63755 0.57936 0.0
H737 H 0.72846 0.54412 0.54541 0.0
H738 H 0.73098 0.57556 0.57192 0.0
H739 H 0.73574 0.54432 0.58979 0.0
C740 C 0.76461 0.65215 0.63254 0.0
C741 C 0.75572 0.63392 0.66163 0.0
C742 C 0.77376 0.64185 0.6046 0.0
C743 C 0.77411 0.61324 0.60555 0.0
C744 C 0.76617 0.59561 0.63515 0.0
H745 H 0.8521 0.51852 0.53544 0.0
H746 H 0.83946 0.55695 0.5569 0.0
C747 C 0.75714 0.60591 0.663 0.0
C748 C 0.78338 0.60168 0.57625 0.0
H749 H 0.76623 0.53903 0.52631 0.0
C750 C 0.8093 0.61637 0.56712 0.0
C751 C 0.76736 0.57449 0.55973 0.0
C752 C 0.73902 0.55886 0.56693 0.0
C753 C 0.82009 0.60305 0.54406 0.0
C754 C 0.80459 0.57423 0.53032 0.0
C755 C 0.7782 0.56099 0.53709 0.0
C756 C 0.81569 0.55526 0.51369 0.0
C757 C 0.84818 0.6194 0.53569 0.0
C758 C 0.80665 0.54153 0.48207 0.0
C759 C 0.81378 0.51924 0.46972 0.0
C760 C 0.82969 0.51002 0.48916 0.0
C761 C 0.83967 0.52493 0.51995 0.0
C762 C 0.8327 0.54723 0.5321 0.0
H763 H 0.85468 0.64435 0.53695 0.0
H764 H 0.85937 0.61316 0.55464 0.0
H765 H 0.85246 0.61329 0.50999 0.0
H766 H 0.79329 0.5472 0.46764 0.0
H767 H 0.80579 0.50816 0.44591 0.0
H768 H 0.44706 0.74517 0.95457 0.0
H769 H 0.4056 0.72009 0.9264 0.0
H770 H 0.41609 0.63776 0.91896 0.0
H771 H 0.45755 0.66249 0.94734 0.0
H772 H 0.39343 0.68967 0.86021 0.0
H773 H 0.34682 0.61364 0.9696 0.0
H774 H 0.37654 0.64709 0.97379 0.0
H775 H 0.37624 0.61351 0.95458 0.0
C776 C 0.44056 0.72168 0.94709 0.0
C777 C 0.45557 0.70577 0.9535 0.0
C778 C 0.41694 0.70748 0.93078 0.0
C779 C 0.40781 0.6771 0.92077 0.0
C780 C 0.42277 0.66118 0.92678 0.0
H781 H 0.25402 0.55549 0.8611 0.0
H782 H 0.30074 0.57668 0.86503 0.0
C783 C 0.44643 0.67536 0.94304 0.0
C784 C 0.38217 0.66182 0.90516 0.0
H785 H 0.32187 0.60819 0.92093 0.0
C786 C 0.37776 0.67169 0.87329 0.0
C787 C 0.36188 0.63839 0.92232 0.0
C788 C 0.3654 0.62758 0.95708 0.0
C789 C 0.35341 0.65875 0.85815 0.0
C790 C 0.33297 0.6358 0.87573 0.0
C791 C 0.3376 0.6256 0.9073 0.0
C792 C 0.3061 0.62343 0.86369 0.0
C793 C 0.34985 0.6697 0.82354 0.0
C794 C 0.29373 0.64266 0.85985 0.0
C795 C 0.26707 0.63053 0.85708 0.0
C796 C 0.2525 0.59907 0.85864 0.0
C797 C 0.26498 0.57983 0.85962 0.0
C798 C 0.2916 0.59192 0.86202 0.0
H799 H 0.3681 0.67918 0.80899 0.0
H800 H 0.33526 0.65116 0.80849 0.0
H801 H 0.34336 0.688 0.82663 0.0
H802 H 0.30439 0.66699 0.86183 0.0
H803 H 0.25776 0.64575 0.85697 0.0
H804 H 0.58317 0.56931 0.73787 0.0
H805 H 0.55511 0.54056 0.6914 0.0
H806 H 0.61916 0.57395 0.62221 0.0
H807 H 0.64731 0.60263 0.66817 0.0
H808 H 0.54603 0.56009 0.62157 0.0
H809 H 0.59095 0.47901 0.62256 0.0
H810 H 0.59382 0.50407 0.6577 0.0
H811 H 0.61273 0.51841 0.62002 0.0
C812 C 0.59126 0.57074 0.71271 0.0
C813 C 0.6176 0.58795 0.70689 0.0
C814 C 0.57517 0.55441 0.68619 0.0
C815 C 0.58516 0.55499 0.65354 0.0
C816 C 0.61117 0.57304 0.64735 0.0
H817 H 0.52944 0.44205 0.47616 0.0
H818 H 0.55355 0.48518 0.51307 0.0
C819 C 0.62724 0.58933 0.67374 0.0
C820 C 0.56898 0.53507 0.62642 0.0
H821 H 0.5611 0.47304 0.57927 0.0
C822 C 0.54922 0.54101 0.61227 0.0
C823 C 0.57328 0.51027 0.61442 0.0
C824 C 0.59369 0.50228 0.62956 0.0
C825 C 0.53385 0.52291 0.5859 0.0
C826 C 0.53821 0.49811 0.57394 0.0
C827 C 0.55796 0.49226 0.58823 0.0
C828 C 0.52205 0.47682 0.54768 0.0
C829 C 0.51348 0.53076 0.57057 0.0
C830 C 0.49605 0.45861 0.55408 0.0
C831 C 0.48228 0.43393 0.53302 0.0
C832 C 0.49448 0.42687 0.50567 0.0
C833 C 0.51983 0.44659 0.49765 0.0
C834 C 0.53354 0.4713 0.51857 0.0
H835 H 0.51704 0.55462 0.57588 0.0
H836 H 0.51247 0.5272 0.54265 0.0
H837 H 0.4946 0.51581 0.58157 0.0
H838 H 0.48687 0.46216 0.57662 0.0
H839 H 0.4627 0.4191 0.53966 0.0
H840 H 0.37684 0.9746 0.35603 0.0
H841 H 0.4028 0.96605 0.40009 0.0
H842 H 0.46114 0.97676 0.32585 0.0
H843 H 0.43534 0.98562 0.28157 0.0
H844 H 0.41508 0.91867 0.39981 0.0
H845 H 0.50377 0.02499 0.40574 0.0
H846 H 0.47491 0.02277 0.38557 0.0
H847 H 0.49619 0.01064 0.36322 0.0
C848 C 0.39532 0.97549 0.34908 0.0
C849 C 0.40388 0.98045 0.31517 0.0
C850 C 0.4102 0.97077 0.37438 0.0
C851 C 0.43401 0.97102 0.36638 0.0
C852 C 0.44308 0.97711 0.3328 0.0
H853 H 0.50561 0.86608 0.4496 0.0
H854 H 0.48351 0.89054 0.4173 0.0
C855 C 0.42822 0.98198 0.30744 0.0
C856 C 0.44779 0.9613 0.39214 0.0
H857 H 0.50609 0.98056 0.42948 0.0
C858 C 0.43488 0.93242 0.40662 0.0
C859 C 0.4735 0.97938 0.40146 0.0
C860 C 0.48783 0.0113 0.38846 0.0
C861 C 0.44728 0.92054 0.42883 0.0
C862 C 0.47346 0.93775 0.43628 0.0
C863 C 0.4861 0.96725 0.4233 0.0
C864 C 0.48822 0.92439 0.45556 0.0
C865 C 0.43233 0.88941 0.44374 0.0
C866 C 0.499 0.936 0.4873 0.0
C867 C 0.51158 0.92184 0.50599 0.0
C868 C 0.51334 0.89585 0.49318 0.0
C869 C 0.50352 0.8852 0.46077 0.0
C870 C 0.49109 0.89933 0.44216 0.0
H871 H 0.41141 0.8831 0.44362 0.0
H872 H 0.43581 0.87246 0.42829 0.0
H873 H 0.4384 0.88815 0.47024 0.0
H874 H 0.49711 0.95547 0.49792 0.0
H875 H 0.51927 0.93064 0.53078 0.0
H876 H 0.74165 0.3616 0.14772 0.0
H877 H 0.69587 0.34969 0.14791 0.0
H878 H 0.67839 0.25718 0.12085 0.0
H879 H 0.724 0.26889 0.12129 0.0
H880 H 0.66997 0.33153 0.08733 0.0
H881 H 0.62076 0.24662 0.18715 0.0
H882 H 0.65477 0.27043 0.18804 0.0
H883 H 0.64222 0.23691 0.16205 0.0
C884 C 0.72793 0.33846 0.14319 0.0
C885 C 0.73621 0.31619 0.13409 0.0
C886 C 0.70184 0.33172 0.14316 0.0
C887 C 0.68374 0.30254 0.13449 0.0
C888 C 0.69196 0.2797 0.12815 0.0
H889 H 0.53581 0.21177 0.04773 0.0
H890 H 0.57787 0.22802 0.07412 0.0
C891 C 0.71801 0.28646 0.1281 0.0
C892 C 0.65714 0.29717 0.12622 0.0
H893 H 0.59469 0.24865 0.14016 0.0
C894 C 0.65345 0.31385 0.09934 0.0
C895 C 0.63571 0.27391 0.14174 0.0
C896 C 0.63852 0.25613 0.17157 0.0
C897 C 0.62899 0.30684 0.08632 0.0
C898 C 0.60759 0.28289 0.1011 0.0
C899 C 0.61116 0.26694 0.12883 0.0
C900 C 0.58159 0.27294 0.08673 0.0
C901 C 0.62645 0.32406 0.05571 0.0
C902 C 0.56966 0.29274 0.08542 0.0
C903 C 0.54573 0.28365 0.07004 0.0
C904 C 0.53317 0.25444 0.05606 0.0
C905 C 0.54497 0.23445 0.05814 0.0
C906 C 0.56895 0.24363 0.07334 0.0
H907 H 0.64514 0.33694 0.04291 0.0
H908 H 0.61292 0.30844 0.03693 0.0
H909 H 0.61886 0.34049 0.0639 0.0
H910 H 0.57891 0.31527 0.09615 0.0
H911 H 0.53706 0.2995 0.06923 0.0
H912 H 0.20785 0.72183 0.57046 0.0
H913 H 0.22533 0.77481 0.55153 0.0
H914 H 0.16588 0.75088 0.47592 0.0
H915 H 0.14843 0.69839 0.49464 0.0
H916 H 0.24326 0.78667 0.48591 0.0
H917 H 0.17229 0.83351 0.50602 0.0
H918 H 0.17157 0.8013 0.52961 0.0
H919 H 0.15785 0.79635 0.48771 0.0
C920 C 0.198 0.72816 0.55069 0.0
C921 C 0.17697 0.706 0.53375 0.0
C922 C 0.208 0.75838 0.53988 0.0
C923 C 0.19678 0.76683 0.5125 0.0
C924 C 0.17455 0.74508 0.49754 0.0
H925 H 0.22729 0.8784 0.34046 0.0
H926 H 0.20949 0.84503 0.38961 0.0
C927 C 0.16474 0.71498 0.50806 0.0
C928 C 0.21059 0.79623 0.49505 0.0
H929 H 0.20118 0.85403 0.45794 0.0
C930 C 0.23444 0.80195 0.48054 0.0
C931 C 0.1989 0.81588 0.48785 0.0
C932 C 0.17384 0.8116 0.50393 0.0
C933 C 0.24602 0.82541 0.45697 0.0
C934 C 0.23367 0.84414 0.44839 0.0
C935 C 0.21054 0.83955 0.46444 0.0
C936 C 0.24339 0.86672 0.42065 0.0
C937 C 0.27044 0.8285 0.43971 0.0
C938 C 0.26799 0.8905 0.42227 0.0
C939 C 0.27825 0.9092 0.39411 0.0
C940 C 0.26397 0.9046 0.36407 0.0
C941 C 0.23875 0.88212 0.36324 0.0
C942 C 0.22857 0.86318 0.39129 0.0
H943 H 0.2744 0.80833 0.44392 0.0
H944 H 0.26953 0.83184 0.41191 0.0
H945 H 0.28677 0.84854 0.45011 0.0
H946 H 0.27946 0.89412 0.44501 0.0
H947 H 0.29744 0.9271 0.39575 0.0
H948 H 0.60603 0.03491 0.79176 0.0
H949 H 0.58255 0.04703 0.83642 0.0
H950 H 0.51365 0.00857 0.77643 0.0
H951 H 0.53717 0.99692 0.73107 0.0
H952 H 0.5225 0.06403 0.80042 0.0
H953 H 0.5318 0.99424 0.90602 0.0
H954 H 0.56214 0.01856 0.88786 0.0
H955 H 0.53895 0.98891 0.86249 0.0
C956 C 0.58581 0.02869 0.78811 0.0
C957 C 0.57349 0.01492 0.75774 0.0
C958 C 0.57236 0.03543 0.81387 0.0
C959 C 0.54623 0.0282 0.81008 0.0
C960 C 0.53377 0.01414 0.77999 0.0
H961 H 0.44047 0.07209 0.93358 0.0
H962 H 0.4586 0.04771 0.89374 0.0
C963 C 0.54726 0.00752 0.75408 0.0
C964 C 0.53245 0.03744 0.83636 0.0
H965 H 0.51877 0.03333 0.92129 0.0
C966 C 0.52139 0.05698 0.82675 0.0
C967 C 0.53109 0.0283 0.87076 0.0
C968 C 0.54141 0.0061 0.88236 0.0
C969 C 0.5097 0.06837 0.85073 0.0
C970 C 0.50885 0.05976 0.88518 0.0
C971 C 0.51955 0.0399 0.89482 0.0
C972 C 0.49748 0.07198 0.91154 0.0
C973 C 0.49901 0.09028 0.83928 0.0
C974 C 0.51325 0.09284 0.93547 0.0
C975 C 0.50296 0.10678 0.95823 0.0
C976 C 0.47674 0.10003 0.95739 0.0
C977 C 0.46078 0.07788 0.93463 0.0
C978 C 0.4711 0.06405 0.91178 0.0
H979 H 0.50522 0.09876 0.81308 0.0
H980 H 0.47779 0.07872 0.83967 0.0
H981 H 0.50505 0.10996 0.8568 0.0
H982 H 0.53364 0.099 0.93584 0.0
H983 H 0.51558 0.12308 0.97618 0.0
H984 H 0.45163 0.6999 0.60245 0.0
H985 H 0.40942 0.6867 0.62744 0.0
H986 H 0.42235 0.78055 0.62421 0.0
H987 H 0.46452 0.79405 0.59878 0.0
H988 H 0.39235 0.70787 0.68732 0.0
H989 H 0.35758 0.73549 0.56584 0.0
H990 H 0.38703 0.73102 0.56858 0.0
H991 H 0.38573 0.76518 0.58355 0.0
C992 C 0.44563 0.71783 0.60726 0.0
C993 C 0.46138 0.74801 0.59821 0.0
C994 C 0.42154 0.71023 0.62172 0.0
C995 C 0.41271 0.7326 0.62732 0.0
C996 C 0.42874 0.76291 0.61969 0.0
H997 H 0.25628 0.70785 0.65938 0.0
H998 H 0.30313 0.73156 0.66087 0.0
C999 C 0.45285 0.77057 0.60519 0.0
C1000 C 0.38601 0.72378 0.63868 0.0
H1001 H 0.32831 0.7185 0.6109 0.0
C1002 C 0.37833 0.71038 0.6708 0.0
C1003 C 0.36782 0.72705 0.61699 0.0
C1004 C 0.37478 0.74023 0.5817 0.0
C1005 C 0.35279 0.70003 0.68177 0.0
C1006 C 0.3345 0.70271 0.65973 0.0
C1007 C 0.34239 0.71668 0.62792 0.0
C1008 C 0.30671 0.68939 0.66751 0.0
C1009 C 0.34566 0.6864 0.71679 0.0
C1010 C 0.29314 0.65797 0.67219 0.0
C1011 C 0.26637 0.64446 0.67165 0.0
C1012 C 0.25288 0.66217 0.66585 0.0
C1013 C 0.26636 0.69378 0.66372 0.0
C1014 C 0.29307 0.70729 0.66457 0.0
H1015 H 0.36245 0.69492 0.7341 0.0
H1016 H 0.33026 0.69144 0.72817 0.0
H1017 H 0.33867 0.66143 0.71498 0.0
H1018 H 0.30319 0.6436 0.67375 0.0
H1019 H 0.25635 0.62 0.67294 0.0
H1020 H 0.72155 0.04654 0.82597 0.0
H1021 H 0.74332 0.08064 0.873 0.0
H1022 H 0.73068 0.15244 0.82416 0.0
H1023 H 0.71094 0.11942 0.77624 0.0
H1024 H 0.77727 0.17268 0.84702 0.0
H1025 H 0.71143 0.10662 0.95009 0.0
H1026 H 0.72614 0.08617 0.92739 0.0
H1027 H 0.70431 0.09777 0.90573 0.0
C1028 C 0.72348 0.06965 0.82529 0.0
C1029 C 0.71358 0.07991 0.79791 0.0
C1030 C 0.73563 0.08898 0.8524 0.0
C1031 C 0.7379 0.11884 0.8527 0.0
C1032 C 0.72871 0.12932 0.82487 0.0
H1033 H 0.76502 0.25328 0.00501 0.0
H1034 H 0.74725 0.20618 0.97203 0.0
C1035 C 0.71693 0.11018 0.79765 0.0
C1036 C 0.75066 0.13984 0.88113 0.0
H1037 H 0.74753 0.15088 0.96651 0.0
C1038 C 0.77082 0.16784 0.87317 0.0
C1039 C 0.74208 0.13358 0.91522 0.0
C1040 C 0.71966 0.10454 0.92518 0.0
C1041 C 0.78214 0.19014 0.89798 0.0
C1042 C 0.77388 0.18378 0.93221 0.0
C1043 C 0.75408 0.15552 0.9404 0.0
C1044 C 0.78417 0.20731 0.95898 0.0
C1045 C 0.8019 0.22084 0.88675 0.0
C1046 C 0.81064 0.22233 0.96458 0.0
C1047 C 0.82076 0.2495 0.98269 0.0
C1048 C 0.80447 0.26128 0.99665 0.0
C1049 C 0.77788 0.24434 0.99474 0.0
C1050 C 0.76776 0.21754 0.97578 0.0
H1051 H 0.80107 0.22428 0.85894 0.0
H1052 H 0.79921 0.23938 0.90009 0.0
H1053 H 0.82131 0.22269 0.89269 0.0
H1054 H 0.8236 0.21432 0.95273 0.0
H1055 H 0.84135 0.26234 0.98385 0.0
H1056 H 0.25697 0.59586 0.51702 0.0
H1057 H 0.27706 0.56403 0.49425 0.0
H1058 H 0.20242 0.49015 0.48162 0.0
H1059 H 0.18244 0.52209 0.50364 0.0
H1060 H 0.27447 0.50532 0.51106 0.0
H1061 H 0.23228 0.50767 0.38485 0.0
H1062 H 0.23295 0.53269 0.41903 0.0
H1063 H 0.20935 0.494 0.41878 0.0
C1064 C 0.24504 0.57265 0.50986 0.0
C1065 C 0.21831 0.56132 0.5115 0.0
C1066 C 0.25644 0.55454 0.49693 0.0
C1067 C 0.24114 0.525 0.48567 0.0
C1068 C 0.21448 0.51309 0.48958 0.0
H1069 H 0.27013 0.39244 0.36783 0.0
H1070 H 0.25122 0.41827 0.40457 0.0
C1071 C 0.20313 0.53121 0.50222 0.0
C1072 C 0.25278 0.5074 0.46744 0.0
H1073 H 0.25378 0.47599 0.39026 0.0
C1074 C 0.27002 0.4989 0.48465 0.0
C1075 C 0.24697 0.49926 0.43293 0.0
C1076 C 0.22957 0.50908 0.41265 0.0
C1077 C 0.28128 0.48189 0.46832 0.0
C1078 C 0.27532 0.47363 0.4339 0.0
C1079 C 0.25812 0.48219 0.41675 0.0
C1080 C 0.28715 0.45681 0.4146 0.0
C1081 C 0.29914 0.47251 0.4881 0.0
C1082 C 0.31358 0.46997 0.40816 0.0
C1083 C 0.32432 0.45538 0.38704 0.0
C1084 C 0.30877 0.42752 0.37194 0.0
C1085 C 0.28243 0.41407 0.37896 0.0
C1086 C 0.27168 0.42868 0.40002 0.0
H1087 H 0.2967 0.47394 0.51596 0.0
H1088 H 0.29597 0.449 0.48157 0.0
H1089 H 0.31921 0.48783 0.48153 0.0
H1090 H 0.32574 0.49198 0.41854 0.0
H1091 H 0.34465 0.46633 0.38164 0.0
H1092 H 0.69723 0.0827 0.58724 0.0
H1093 H 0.7196 0.12937 0.55415 0.0
H1094 H 0.65549 0.152 0.56771 0.0
H1095 H 0.63324 0.10557 0.60113 0.0
H1096 H 0.67957 0.16153 0.49793 0.0
H1097 H 0.74696 0.21371 0.60498 0.0
H1098 H 0.74314 0.17674 0.59156 0.0
H1099 H 0.71669 0.18125 0.61067 0.0
C1100 C 0.68795 0.09764 0.58294 0.0
C1101 C 0.66375 0.09093 0.59689 0.0
C1102 C 0.70063 0.12411 0.56404 0.0
C1103 C 0.6892 0.1441 0.5588 0.0
C1104 C 0.66454 0.13676 0.57149 0.0
H1105 H 0.73681 0.32455 0.47527 0.0
H1106 H 0.71162 0.27134 0.49143 0.0
C1107 C 0.65191 0.11035 0.59051 0.0
C1108 C 0.70368 0.17369 0.54222 0.0
H1109 H 0.75387 0.24228 0.55481 0.0
C1110 C 0.69587 0.17924 0.51019 0.0
C1111 C 0.72481 0.19662 0.5585 0.0
C1112 C 0.73339 0.19205 0.59344 0.0
C1113 C 0.70903 0.2072 0.49369 0.0
C1114 C 0.73012 0.23022 0.51009 0.0
C1115 C 0.73781 0.22453 0.54216 0.0
C1116 C 0.74444 0.26072 0.49514 0.0
C1117 C 0.70052 0.21163 0.4587 0.0
C1118 C 0.77114 0.27233 0.49169 0.0
C1119 C 0.78541 0.30263 0.48302 0.0
C1120 C 0.7732 0.32172 0.47745 0.0
C1121 C 0.74645 0.30992 0.47911 0.0
C1122 C 0.73212 0.27959 0.48816 0.0
H1123 H 0.68943 0.18962 0.44586 0.0
H1124 H 0.68796 0.22362 0.46095 0.0
H1125 H 0.71715 0.22549 0.44247 0.0
H1126 H 0.78103 0.25822 0.49708 0.0
H1127 H 0.8061 0.3115 0.482 0.0
H1128 H 0.57723 0.79384 0.12656 0.0
H1129 H 0.58088 0.79629 0.18873 0.0
H1130 H 0.51174 0.71345 0.19648 0.0
H1131 H 0.50903 0.71029 0.13435 0.0
H1132 H 0.55144 0.80356 0.23307 0.0
H1133 H 0.55444 0.69429 0.2624 0.0
H1134 H 0.55773 0.70876 0.21963 0.0
H1135 H 0.52645 0.68841 0.23821 0.0
C1136 C 0.56319 0.77591 0.14173 0.0
C1137 C 0.54302 0.75174 0.12602 0.0
C1138 C 0.56518 0.77734 0.17715 0.0
C1139 C 0.54683 0.75478 0.19747 0.0
C1140 C 0.52663 0.7306 0.18154 0.0
H1141 H 0.50891 0.78218 0.40389 0.0
H1142 H 0.51303 0.77976 0.34212 0.0
C1143 C 0.52494 0.72889 0.14609 0.0
C1144 C 0.54786 0.7577 0.23517 0.0
H1145 H 0.5432 0.71853 0.30877 0.0
C1146 C 0.54996 0.78505 0.24958 0.0
C1147 C 0.54641 0.73384 0.25691 0.0
C1148 C 0.54643 0.70484 0.24346 0.0
C1149 C 0.54992 0.78891 0.28493 0.0
C1150 C 0.54661 0.7643 0.3066 0.0
C1151 C 0.5453 0.73727 0.29225 0.0
C1152 C 0.54414 0.76593 0.34413 0.0
C1153 C 0.55386 0.81955 0.29853 0.0
C1154 C 0.55954 0.75788 0.36597 0.0
C1155 C 0.55667 0.75849 0.40124 0.0
C1156 C 0.53849 0.76735 0.41521 0.0
C1157 C 0.52319 0.77553 0.39353 0.0
C1158 C 0.52572 0.7744 0.35829 0.0
H1159 H 0.56486 0.83791 0.2803 0.0
H1160 H 0.53496 0.82003 0.30234 0.0
H1161 H 0.56419 0.82451 0.32316 0.0
H1162 H 0.57381 0.75116 0.35573 0.0
H1163 H 0.56873 0.75222 0.41763 0.0
H1164 H 0.66845 0.53293 0.86164 0.0
H1165 H 0.6847 0.50189 0.89431 0.0
H1166 H 0.75948 0.57673 0.8974 0.0
H1167 H 0.74311 0.60813 0.86543 0.0
H1168 H 0.75456 0.51652 0.87056 0.0
H1169 H 0.70969 0.51083 0.99731 0.0
H1170 H 0.68966 0.50493 0.96046 0.0
H1171 H 0.71543 0.54143 0.9677 0.0
C1172 C 0.68823 0.54286 0.86984 0.0
C1173 C 0.70462 0.57279 0.86101 0.0
C1174 C 0.69745 0.52518 0.88846 0.0
C1175 C 0.72319 0.53718 0.89843 0.0
C1176 C 0.73952 0.5672 0.89002 0.0
H1177 H 0.82029 0.45542 0.97479 0.0
H1178 H 0.80321 0.49081 0.95474 0.0
C1179 C 0.73023 0.58498 0.87165 0.0
C1180 C 0.7335 0.51765 0.91529 0.0
H1181 H 0.73195 0.48016 0.98915 0.0
C1182 C 0.74979 0.50868 0.89656 0.0
C1183 C 0.72686 0.50726 0.94898 0.0
C1184 C 0.70956 0.51666 0.97003 0.0
C1185 C 0.75944 0.48915 0.91049 0.0
C1186 C 0.75322 0.47911 0.94448 0.0
C1187 C 0.73681 0.48804 0.96321 0.0
C1188 C 0.76349 0.45914 0.96071 0.0
C1189 C 0.77558 0.47878 0.88826 0.0
C1190 C 0.74684 0.43027 0.97264 0.0
C1191 C 0.75662 0.41026 0.98468 0.0
C1192 C 0.7831 0.4189 0.98468 0.0
C1193 C 0.79976 0.44827 0.9745 0.0
C1194 C 0.79003 0.46836 0.9629 0.0
H1195 H 0.77233 0.48127 0.86083 0.0
H1196 H 0.79611 0.49286 0.89364 0.0
H1197 H 0.77144 0.45472 0.89332 0.0
H1198 H 0.72629 0.42284 0.97143 0.0
H1199 H 0.74353 0.38767 0.99259 0.0
H1200 H 0.34644 0.88077 0.15538 0.0
H1201 H 0.32717 0.83681 0.11776 0.0
H1202 H 0.2556 0.8451 0.12079 0.0
H1203 H 0.27493 0.88925 0.15839 0.0
H1204 H 0.25127 0.78659 0.13389 0.0
H1205 H 0.30806 0.83402 0.01685 0.0
H1206 H 0.32695 0.83815 0.05437 0.0
H1207 H 0.30656 0.85756 0.05149 0.0
C1208 C 0.32668 0.87335 0.14765 0.0
C1209 C 0.31211 0.88829 0.15954 0.0
C1210 C 0.31575 0.84839 0.1261 0.0
C1211 C 0.29012 0.8381 0.11602 0.0
C1212 C 0.27548 0.8529 0.12809 0.0
H1213 H 0.18634 0.67767 0.00836 0.0
H1214 H 0.20702 0.72881 0.0325 0.0
C1215 C 0.28644 0.87791 0.14963 0.0
C1216 C 0.27818 0.81075 0.09458 0.0
H1217 H 0.28248 0.78066 0.01769 0.0
C1218 C 0.2579 0.78536 0.10836 0.0
C1219 C 0.28705 0.80926 0.06139 0.0
C1220 C 0.30821 0.83627 0.04496 0.0
C1221 C 0.2466 0.75819 0.09015 0.0
C1222 C 0.25551 0.75663 0.05699 0.0
C1223 C 0.2757 0.78205 0.04308 0.0
C1224 C 0.24428 0.72838 0.03696 0.0
C1225 C 0.22569 0.7311 0.10691 0.0
C1226 C 0.25878 0.71207 0.0298 0.0
C1227 C 0.24705 0.68305 0.01568 0.0
C1228 C 0.22078 0.67028 0.00857 0.0
C1229 C 0.20668 0.68736 0.01364 0.0
C1230 C 0.2184 0.71634 0.02758 0.0
H1231 H 0.22523 0.73399 0.13488 0.0
H1232 H 0.20687 0.72807 0.09654 0.0
H1233 H 0.22819 0.71011 0.10168 0.0
H1234 H 0.2788 0.72109 0.03682 0.0
H1235 H 0.25809 0.66998 0.0121 0.0
H1236 H 0.42987 0.27606 0.59777 0.0
H1237 H 0.42378 0.2674 0.65938 0.0
H1238 H 0.49282 0.25362 0.66448 0.0
H1239 H 0.49922 0.26285 0.6032 0.0
H1240 H 0.44523 0.20652 0.69616 0.0
H1241 H 0.46974 0.325 0.73746 0.0
H1242 H 0.44783 0.31013 0.70251 0.0
H1243 H 0.48061 0.31645 0.69743 0.0
C1244 C 0.44395 0.27176 0.61226 0.0
C1245 C 0.46515 0.27042 0.59601 0.0
C1246 C 0.44041 0.26668 0.64728 0.0
C1247 C 0.45795 0.26005 0.66635 0.0
C1248 C 0.47912 0.25874 0.65013 0.0
H1249 H 0.47977 0.21316 0.87082 0.0
H1250 H 0.47859 0.21903 0.80912 0.0
C1251 C 0.48274 0.264 0.61525 0.0
C1252 C 0.45407 0.25372 0.70315 0.0
H1253 H 0.458 0.28766 0.78006 0.0
C1254 C 0.44789 0.22417 0.71458 0.0
C1255 C 0.45738 0.27681 0.7269 0.0
C1256 C 0.46439 0.30898 0.7157 0.0
C1257 C 0.44507 0.21708 0.74935 0.0
C1258 C 0.44923 0.24039 0.77326 0.0
C1259 C 0.45486 0.26983 0.7617 0.0
C1260 C 0.44883 0.23509 0.81041 0.0
C1261 C 0.43744 0.18464 0.76004 0.0
C1262 C 0.43283 0.24264 0.83168 0.0
C1263 C 0.4337 0.23958 0.86691 0.0
C1264 C 0.45063 0.229 0.88137 0.0
C1265 C 0.46634 0.221 0.86012 0.0
C1266 C 0.46559 0.22424 0.82493 0.0
H1267 H 0.42713 0.16858 0.73937 0.0
H1268 H 0.45492 0.1814 0.76602 0.0
H1269 H 0.42504 0.17882 0.78298 0.0
H1270 H 0.41984 0.25118 0.82103 0.0
H1271 H 0.42136 0.24577 0.88291 0.0
H1272 H 0.4541 0.62387 0.52159 0.0
H1273 H 0.44928 0.57423 0.50322 0.0
H1274 H 0.52849 0.59798 0.52717 0.0
H1275 H 0.53375 0.6487 0.54433 0.0
H1276 H 0.52005 0.57389 0.46931 0.0
H1277 H 0.44019 0.49757 0.54662 0.0
H1278 H 0.42976 0.52408 0.5284 0.0
H1279 H 0.45689 0.53729 0.55689 0.0
C1280 C 0.47045 0.61848 0.52354 0.0
C1281 C 0.49433 0.64032 0.53438 0.0
C1282 C 0.46757 0.58978 0.5134 0.0
C1283 C 0.48832 0.58183 0.51457 0.0
C1284 C 0.5121 0.60336 0.52631 0.0
H1285 H 0.42262 0.40916 0.40633 0.0
H1286 H 0.44818 0.44063 0.45341 0.0
C1287 C 0.51509 0.63237 0.53607 0.0
C1288 C 0.48557 0.55264 0.49926 0.0
H1289 H 0.43993 0.4809 0.48625 0.0
C1290 C 0.50289 0.5533 0.47378 0.0
C1291 C 0.46407 0.52498 0.50597 0.0
C1292 C 0.44695 0.52094 0.53633 0.0
C1293 C 0.49733 0.52854 0.45194 0.0
C1294 C 0.47332 0.50319 0.45459 0.0
C1295 C 0.45788 0.50079 0.48309 0.0
C1296 C 0.46177 0.48274 0.42516 0.0
C1297 C 0.51671 0.53053 0.42516 0.0
C1298 C 0.46114 0.49572 0.39351 0.0
C1299 C 0.44689 0.47791 0.36676 0.0
C1300 C 0.43237 0.44662 0.37101 0.0
C1301 C 0.43366 0.43322 0.40223 0.0
C1302 C 0.44822 0.45118 0.42916 0.0
H1303 H 0.53639 0.54155 0.43572 0.0
H1304 H 0.51345 0.50785 0.41521 0.0
H1305 H 0.51568 0.54488 0.40383 0.0
H1306 H 0.47053 0.52002 0.38988 0.0
H1307 H 0.44638 0.48906 0.34314 0.0
H1308 H 0.87742 0.327 0.86305 0.0
H1309 H 0.88487 0.34233 0.80321 0.0
H1310 H 0.87386 0.42259 0.82617 0.0
H1311 H 0.86659 0.4077 0.88573 0.0
H1312 H 0.84762 0.3504 0.76342 0.0
H1313 H 0.93804 0.45508 0.76568 0.0
H1314 H 0.92853 0.4277 0.79986 0.0
H1315 H 0.91509 0.45487 0.7967 0.0
C1316 C 0.87705 0.34818 0.85544 0.0
C1317 C 0.87129 0.36606 0.87905 0.0
C1318 C 0.88132 0.35689 0.8213 0.0
C1319 C 0.88024 0.38376 0.81045 0.0
C1320 C 0.87531 0.4021 0.83418 0.0
H1321 H 0.86481 0.47336 0.63225 0.0
H1322 H 0.87172 0.45756 0.68888 0.0
C1323 C 0.87093 0.39338 0.86817 0.0
C1324 C 0.88135 0.39115 0.77392 0.0
H1325 H 0.9115 0.4476 0.71647 0.0
C1326 C 0.86183 0.37137 0.75289 0.0
C1327 C 0.89984 0.41864 0.76053 0.0
C1328 C 0.92171 0.44018 0.78179 0.0
C1329 C 0.85949 0.37905 0.71916 0.0
C1330 C 0.87758 0.40696 0.70598 0.0
C1331 C 0.89765 0.42626 0.7267 0.0
C1332 C 0.87508 0.41726 0.67139 0.0
C1333 C 0.8369 0.35793 0.69857 0.0
C1334 C 0.87521 0.40014 0.6428 0.0
C1335 C 0.87092 0.40888 0.6105 0.0
C1336 C 0.86689 0.43519 0.60622 0.0
C1337 C 0.86779 0.45294 0.63476 0.0
C1338 C 0.8718 0.44399 0.66709 0.0
H1339 H 0.82167 0.34131 0.7149 0.0
H1340 H 0.82847 0.37079 0.68362 0.0
H1341 H 0.84335 0.34504 0.68057 0.0
H1342 H 0.87832 0.37982 0.64551 0.0
H1343 H 0.87066 0.39495 0.58891 0.0
H1344 H 0.52389 0.85849 0.05031 0.0
H1345 H 0.51401 0.89951 0.07133 0.0
H1346 H 0.47748 0.90095 0.97627 0.0
H1347 H 0.4872 0.85969 0.95489 0.0
H1348 H 0.5248 0.96036 0.04277 0.0
H1349 H 0.42126 0.88157 0.05189 0.0
H1350 H 0.44577 0.86795 0.04779 0.0
H1351 H 0.43707 0.88412 0.01178 0.0
C1352 C 0.51397 0.86767 0.03368 0.0
C1353 C 0.50607 0.85558 0.00104 0.0
C1354 C 0.50846 0.89122 0.0457 0.0
C1355 C 0.49487 0.90302 0.02542 0.0
C1356 C 0.48783 0.89192 0.99234 0.0
H1357 H 0.41541 0.0032 0.11466 0.0
H1358 H 0.43448 0.98457 0.0699 0.0
C1359 C 0.49342 0.86838 0.98021 0.0
C1360 C 0.48642 0.92519 0.04023 0.0
H1361 H 0.43396 0.93014 0.07437 0.0
C1362 C 0.5049 0.95401 0.04927 0.0
C1363 C 0.46043 0.91684 0.04841 0.0
C1364 C 0.43989 0.88592 0.03972 0.0
C1365 C 0.49814 0.97443 0.06735 0.0
C1366 C 0.47235 0.96538 0.0773 0.0
C1367 C 0.45373 0.93711 0.06671 0.0
C1368 C 0.46444 0.983 0.10179 0.0
C1369 C 0.51873 0.00528 0.07595 0.0
C1370 C 0.47545 0.98929 0.13431 0.0
C1371 C 0.46468 0.0001 0.1599 0.0
C1372 C 0.44242 0.00434 0.1536 0.0
C1373 C 0.43244 -4e-05 0.12042 0.0
C1374 C 0.44333 0.98932 0.09478 0.0
H1375 H 0.53423 0.01282 0.05657 0.0
H1376 H 0.51091 0.0225 0.07782 0.0
H1377 H 0.52741 0.00406 0.10073 0.0
H1378 H 0.49134 0.98394 0.14063 0.0
H1379 H 0.47283 0.00317 0.18515 0.0
H1380 H 0.51787 0.38006 0.0484 0.0
H1381 H 0.52903 0.42975 0.02273 0.0
H1382 H 0.46812 0.3895 0.94992 0.0
H1383 H 0.45704 0.33968 0.9751 0.0
H1384 H 0.51408 0.42042 0.92013 0.0
H1385 H 0.49961 0.4924 0.01909 0.0
H1386 H 0.51887 0.47392 0.03373 0.0
H1387 H 0.48598 0.45159 0.02235 0.0
C1388 C 0.50646 0.38185 0.02741 0.0
C1389 C 0.48673 0.35581 0.01358 0.0
C1390 C 0.51275 0.41037 0.01292 0.0
C1391 C 0.49928 0.41343 0.98456 0.0
C1392 C 0.4787 0.3877 0.97188 0.0
H1393 H 0.54186 0.55765 0.833 0.0
H1394 H 0.51568 0.51591 0.87046 0.0
C1395 C 0.47244 0.3592 0.98627 0.0
C1396 C 0.50894 0.44232 0.9652 0.0
H1397 H 0.5268 0.51859 0.97206 0.0
C1398 C 0.51643 0.44179 0.93134 0.0
C1399 C 0.51222 0.47025 0.97993 0.0
C1400 C 0.50351 0.47209 0.01568 0.0
C1401 C 0.52791 0.46843 0.91216 0.0
C1402 C 0.53166 0.49644 0.92703 0.0
C1403 C 0.5238 0.49705 0.96071 0.0
C1404 C 0.54524 0.52526 0.90827 0.0
C1405 C 0.53692 0.46652 0.87653 0.0
C1406 C 0.57 0.54534 0.91812 0.0
C1407 C 0.585 0.56933 0.89685 0.0
C1408 C 0.5755 0.57355 0.86529 0.0
C1409 C 0.5499 0.55489 0.85692 0.0
C1410 C 0.5349 0.53096 0.87826 0.0
H1411 H 0.53709 0.44418 0.87134 0.0
H1412 H 0.52387 0.46985 0.85798 0.0
H1413 H 0.55648 0.48452 0.87217 0.0
H1414 H 0.57828 0.5414 0.94128 0.0
H1415 H 0.6045 0.58351 0.90434 0.0
H1416 H 0.17871 0.54361 0.14372 0.0
H1417 H 0.1706 0.55185 0.20281 0.0
H1418 H 0.10316 0.56302 0.17273 0.0
H1419 H 0.11164 0.55575 0.11323 0.0
H1420 H 0.13167 0.60707 0.21371 0.0
H1421 H 0.1201 0.49865 0.2711 0.0
H1422 H 0.14968 0.51547 0.24811 0.0
H1423 H 0.11977 0.50378 0.2257 0.0
C1424 C 0.16196 0.54742 0.14969 0.0
C1425 C 0.14582 0.54904 0.12385 0.0
C1426 C 0.15722 0.55189 0.18355 0.0
C1427 C 0.13599 0.55745 0.19229 0.0
C1428 C 0.11956 0.55855 0.16657 0.0
H1429 H 0.11213 0.57245 0.41029 0.0
H1430 H 0.10357 0.5564 0.35094 0.0
C1431 C 0.12445 0.55442 0.13261 0.0
C1432 C 0.13228 0.56462 0.22789 0.0
H1433 H 0.13229 0.54127 0.30958 0.0
C1434 C 0.13134 0.59243 0.23466 0.0
C1435 C 0.13127 0.54526 0.25521 0.0
C1436 C 0.12996 0.51399 0.24961 0.0
C1437 C 0.13096 0.6022 0.26808 0.0
C1438 C 0.13233 0.58405 0.29538 0.0
C1439 C 0.1317 0.55544 0.28863 0.0
C1440 C 0.13609 0.59503 0.33093 0.0
C1441 C 0.1293 0.63196 0.27369 0.0
C1442 C 0.15718 0.62208 0.33937 0.0
C1443 C 0.16196 0.63147 0.37314 0.0
C1444 C 0.14601 0.61365 0.39921 0.0
C1445 C 0.12477 0.58666 0.39074 0.0
C1446 C 0.11985 0.57745 0.35687 0.0
H1447 H 0.11924 0.63719 0.25233 0.0
H1448 H 0.11915 0.63184 0.29773 0.0
H1449 H 0.14893 0.65044 0.27496 0.0
H1450 H 0.17042 0.63556 0.31992 0.0
H1451 H 0.17861 0.6522 0.37887 0.0
H1452 H 0.50539 0.00037 0.63616 0.0
H1453 H 0.49221 0.02799 0.59506 0.0
H1454 H 0.53676 0.00975 0.51736 0.0
H1455 H 0.5512 0.98328 0.55921 0.0
H1456 H 0.55027 0.06577 0.51881 0.0
H1457 H 0.44559 0.01731 0.51886 0.0
H1458 H 0.45548 0.02356 0.56231 0.0
H1459 H 0.46263 0.99713 0.53696 0.0
C1460 C 0.51176 0.00132 0.61009 0.0
C1461 C 0.52962 0.98996 0.60108 0.0
C1462 C 0.50397 0.01698 0.58636 0.0
C1463 C 0.51326 0.02088 0.55283 0.0
C1464 C 0.52935 0.00717 0.54305 0.0
H1465 H 0.47281 0.15567 0.45042 0.0
H1466 H 0.47534 0.10724 0.45979 0.0
C1467 C 0.53754 0.99195 0.56699 0.0
C1468 C 0.5099 0.04359 0.53048 0.0
H1469 H 0.46731 0.07333 0.51261 0.0
C1470 C 0.53194 0.06688 0.51665 0.0
C1471 C 0.48602 0.04497 0.52648 0.0
C1472 C 0.46112 0.01911 0.53664 0.0
C1473 C 0.53111 0.09268 0.502 0.0
C1474 C 0.50787 0.09597 0.50253 0.0
C1475 C 0.48537 0.07142 0.51322 0.0
C1476 C 0.507 0.12546 0.49511 0.0
C1477 C 0.55538 0.11639 0.48683 0.0
C1478 C 0.52371 0.15179 0.51209 0.0
C1479 C 0.52259 0.17947 0.50635 0.0
C1480 C 0.50425 0.18133 0.48419 0.0
C1481 C 0.48719 0.15492 0.46761 0.0
C1482 C 0.48862 0.12725 0.47293 0.0
H1483 H 0.56736 0.10577 0.47579 0.0
H1484 H 0.5513 0.12967 0.46666 0.0
H1485 H 0.56678 0.13209 0.50713 0.0
H1486 H 0.53739 0.15088 0.53036 0.0
H1487 H 0.53572 0.19929 0.51991 0.0
loop_
_geom_bond_atom_site_label_1
_geom_bond_atom_site_label_2
_geom_bond_distance
_geom_bond_site_symmetry_2
_ccdc_geom_bond_type
Co0 O3 1.970 . S
Co0 N17 1.989 . S
Co0 O25 1.967 . S
Co0 O32 1.920 . S
Co1 O4 1.966 . S
Co1 N10 2.022 . S
Co1 N18 1.993 . S
Co1 O26 1.941 . S
C2 O3 1.258 . S
C2 O4 1.263 . S
O3 Co0 1.970 . S
O3 C2 1.258 . S
O4 Co1 1.966 . S
O4 C2 1.263 . S
C5 O6 1.235 . S
C5 O32 1.289 . S
O6 C5 1.235 . S
C7 C9 1.400 . S
C7 N10 1.351 . S
C7 C12 1.501 . S
C8 C9 1.387 . S
C8 N11 1.341 . S
C9 C7 1.400 . S
C9 C8 1.387 . S
N10 Co1 2.022 . S
N10 C7 1.351 . S
N10 N11 1.365 . S
N11 C8 1.341 . S
N11 N10 1.365 . S
N11 H31 0.862 . S
C12 C7 1.501 . S
C12 H13 0.961 . S
C12 H14 0.961 . S
C12 H15 0.960 . S
H13 C12 0.961 . S
H14 C12 0.961 . S
H15 C12 0.960 . S
C16 N17 1.342 . S
C16 C20 1.401 . S
C16 C21 1.499 . S
N17 Co0 1.989 . S
N17 C16 1.342 . S
N17 N18 1.388 . S
N18 Co1 1.993 . S
N18 N17 1.388 . S
N18 C19 1.346 . S
C19 N18 1.346 . S
C19 C20 1.396 . S
C19 C29 1.510 . S
C20 C16 1.401 . S
C20 C19 1.396 . S
C21 C16 1.499 . S
C21 H22 0.959 . S
C21 H23 0.960 . S
C21 H24 0.961 . S
H22 C21 0.959 . S
H23 C21 0.960 . S
H24 C21 0.961 . S
O25 Co0 1.967 . S
O25 C33 1.258 . S
O26 Co1 1.941 . S
O26 C33 1.266 . S
H27 C29 0.959 . S
H28 C29 0.961 . S
C29 C19 1.510 . S
C29 H27 0.959 . S
C29 H28 0.961 . S
C29 H30 0.960 . S
H30 C29 0.960 . S
H31 N11 0.862 . S
O32 Co0 1.920 . S
O32 C5 1.289 . S
C33 O25 1.258 . S
C33 O26 1.266 . S
Co34 O37 1.970 . S
Co34 N51 1.989 . S
Co34 O59 1.967 . S
Co34 O66 1.920 . S
Co35 O38 1.966 . S
Co35 N44 2.022 . S
Co35 N52 1.993 . S
Co35 O60 1.941 . S
C36 O37 1.258 . S
C36 O38 1.263 . S
O37 Co34 1.970 . S
O37 C36 1.258 . S
O38 Co35 1.966 . S
O38 C36 1.263 . S
C39 O40 1.235 . S
C39 O66 1.289 . S
O40 C39 1.235 . S
C41 C43 1.400 . S
C41 N44 1.351 . S
C41 C46 1.501 . S
C42 C43 1.387 . S
C42 N45 1.341 . S
C43 C41 1.400 . S
C43 C42 1.387 . S
N44 Co35 2.022 . S
N44 C41 1.351 . S
N44 N45 1.365 . S
N45 C42 1.341 . S
N45 N44 1.365 . S
N45 H65 0.862 . S
C46 C41 1.501 . S
C46 H47 0.961 . S
C46 H48 0.961 . S
C46 H49 0.960 . S
H47 C46 0.961 . S
H48 C46 0.961 . S
H49 C46 0.960 . S
C50 N51 1.342 . S
C50 C54 1.401 . S
C50 C55 1.499 . S
N51 Co34 1.989 . S
N51 C50 1.342 . S
N51 N52 1.388 . S
N52 Co35 1.993 . S
N52 N51 1.388 . S
N52 C53 1.346 . S
C53 N52 1.346 . S
C53 C54 1.396 . S
C53 C63 1.510 . S
C54 C50 1.401 . S
C54 C53 1.396 . S
C55 C50 1.499 . S
C55 H56 0.959 . S
C55 H57 0.960 . S
C55 H58 0.961 . S
H56 C55 0.959 . S
H57 C55 0.960 . S
H58 C55 0.961 . S
O59 Co34 1.967 . S
O59 C67 1.258 . S
O60 Co35 1.941 . S
O60 C67 1.266 . S
H61 C63 0.959 . S
H62 C63 0.961 . S
C63 C53 1.510 . S
C63 H61 0.959 . S
C63 H62 0.961 . S
C63 H64 0.960 . S
H64 C63 0.960 . S
H65 N45 0.862 . S
O66 Co34 1.920 . S
O66 C39 1.289 . S
C67 O59 1.258 . S
C67 O60 1.266 . S
Co68 O71 1.970 1_554 S
Co68 N85 1.989 . S
Co68 O93 1.967 1_554 S
Co68 O100 1.920 . S
Co69 O72 1.966 . S
Co69 N78 2.022 . S
Co69 N86 1.993 1_556 S
Co69 O94 1.941 . S
C70 O71 1.258 . S
C70 O72 1.263 . S
O71 Co68 1.970 1_556 S
O71 C70 1.258 . S
O72 Co69 1.966 . S
O72 C70 1.263 . S
C73 O74 1.235 . S
C73 O100 1.289 . S
O74 C73 1.235 . S
C75 C77 1.400 1_556 S
C75 N78 1.351 . S
C75 C80 1.501 . S
C76 C77 1.387 . S
C76 N79 1.341 1_554 S
C77 C75 1.400 1_554 S
C77 C76 1.387 . S
N78 Co69 2.022 . S
N78 C75 1.351 . S
N78 N79 1.365 . S
N79 C76 1.341 1_556 S
N79 N78 1.365 . S
N79 H99 0.862 . S
C80 C75 1.501 . S
C80 H81 0.961 . S
C80 H82 0.961 1_556 S
C80 H83 0.960 . S
H81 C80 0.961 . S
H82 C80 0.961 1_554 S
H83 C80 0.960 . S
C84 N85 1.342 . S
C84 C88 1.401 . S
C84 C89 1.499 . S
N85 Co68 1.989 . S
N85 C84 1.342 . S
N85 N86 1.388 . S
N86 Co69 1.993 1_554 S
N86 N85 1.388 . S
N86 C87 1.346 . S
C87 N86 1.346 . S
C87 C88 1.396 . S
C87 C97 1.510 . S
C88 C84 1.401 . S
C88 C87 1.396 . S
C89 C84 1.499 . S
C89 H90 0.959 . S
C89 H91 0.960 . S
C89 H92 0.961 . S
H90 C89 0.959 . S
H91 C89 0.960 . S
H92 C89 0.961 . S
O93 Co68 1.967 1_556 S
O93 C101 1.258 . S
O94 Co69 1.941 . S
O94 C101 1.266 . S
H95 C97 0.959 . S
H96 C97 0.961 . S
C97 C87 1.510 . S
C97 H95 0.959 . S
C97 H96 0.961 . S
C97 H98 0.960 . S
H98 C97 0.960 . S
H99 N79 0.862 . S
O100 Co68 1.920 . S
O100 C73 1.289 . S
C101 O93 1.258 . S
C101 O94 1.266 . S
Co102 O105 1.970 . S
Co102 N119 1.989 . S
Co102 O127 1.967 . S
Co102 O134 1.920 . S
Co103 O106 1.966 . S
Co103 N112 2.022 . S
Co103 N120 1.993 . S
Co103 O128 1.941 . S
C104 O105 1.258 . S
C104 O106 1.263 . S
O105 Co102 1.970 . S
O105 C104 1.258 . S
O106 Co103 1.966 . S
O106 C104 1.263 . S
C107 O108 1.235 . S
C107 O134 1.289 . S
O108 C107 1.235 . S
C109 C111 1.400 . S
C109 N112 1.351 . S
C109 C114 1.501 . S
C110 C111 1.387 . S
C110 N113 1.341 . S
C111 C109 1.400 . S
C111 C110 1.387 . S
N112 Co103 2.022 . S
N112 C109 1.351 . S
N112 N113 1.365 . S
N113 C110 1.341 . S
N113 N112 1.365 . S
N113 H133 0.862 . S
C114 C109 1.501 . S
C114 H115 0.961 . S
C114 H116 0.961 . S
C114 H117 0.960 . S
H115 C114 0.961 . S
H116 C114 0.961 . S
H117 C114 0.960 . S
C118 N119 1.342 . S
C118 C122 1.401 . S
C118 C123 1.499 . S
N119 Co102 1.989 . S
N119 C118 1.342 . S
N119 N120 1.388 . S
N120 Co103 1.993 . S
N120 N119 1.388 . S
N120 C121 1.346 . S
C121 N120 1.346 . S
C121 C122 1.396 . S
C121 C131 1.510 . S
C122 C118 1.401 . S
C122 C121 1.396 . S
C123 C118 1.499 . S
C123 H124 0.959 . S
C123 H125 0.960 . S
C123 H126 0.961 . S
H124 C123 0.959 . S
H125 C123 0.960 . S
H126 C123 0.961 . S
O127 Co102 1.967 . S
O127 C135 1.258 . S
O128 Co103 1.941 . S
O128 C135 1.266 . S
H129 C131 0.959 . S
H130 C131 0.961 . S
C131 C121 1.510 . S
C131 H129 0.959 . S
C131 H130 0.961 . S
C131 H132 0.960 . S
H132 C131 0.960 . S
H133 N113 0.862 . S
O134 Co102 1.920 . S
O134 C107 1.289 . S
C135 O127 1.258 . S
C135 O128 1.266 . S
Co136 O139 1.970 . S
Co136 N153 1.989 . S
Co136 O161 1.967 1_554 S
Co136 O168 1.920 . S
Co137 O140 1.966 . S
Co137 N146 2.022 . S
Co137 N154 1.993 . S
Co137 O162 1.941 . S
C138 O139 1.258 . S
C138 O140 1.263 1_554 S
O139 Co136 1.970 . S
O139 C138 1.258 . S
O140 Co137 1.966 . S
O140 C138 1.263 1_556 S
C141 O142 1.235 . S
C141 O168 1.289 . S
O142 C141 1.235 . S
C143 C145 1.400 . S
C143 N146 1.351 . S
C143 C148 1.501 . S
C144 C145 1.387 . S
C144 N147 1.341 . S
C145 C143 1.400 . S
C145 C144 1.387 . S
N146 Co137 2.022 . S
N146 C143 1.351 . S
N146 N147 1.365 . S
N147 C144 1.341 . S
N147 N146 1.365 . S
N147 H167 0.862 . S
C148 C143 1.501 . S
C148 H149 0.961 . S
C148 H150 0.961 . S
C148 H151 0.960 . S
H149 C148 0.961 . S
H150 C148 0.961 . S
H151 C148 0.960 . S
C152 N153 1.342 . S
C152 C156 1.401 . S
C152 C157 1.499 . S
N153 Co136 1.989 . S
N153 C152 1.342 . S
N153 N154 1.388 1_554 S
N154 Co137 1.993 . S
N154 N153 1.388 1_556 S
N154 C155 1.346 . S
C155 N154 1.346 . S
C155 C156 1.396 1_556 S
C155 C165 1.510 . S
C156 C152 1.401 . S
C156 C155 1.396 1_554 S
C157 C152 1.499 . S
C157 H158 0.959 . S
C157 H159 0.960 . S
C157 H160 0.961 . S
H158 C157 0.959 . S
H159 C157 0.960 . S
H160 C157 0.961 . S
O161 Co136 1.967 1_556 S
O161 C169 1.258 . S
O162 Co137 1.941 . S
O162 C169 1.266 . S
H163 C165 0.959 . S
H164 C165 0.961 . S
C165 C155 1.510 . S
C165 H163 0.959 . S
C165 H164 0.961 . S
C165 H166 0.960 . S
H166 C165 0.960 . S
H167 N147 0.862 . S
O168 Co136 1.920 . S
O168 C141 1.289 . S
C169 O161 1.258 . S
C169 O162 1.266 . S
Co170 O173 1.970 . S
Co170 N187 1.989 . S
Co170 O195 1.967 . S
Co170 O202 1.920 . S
Co171 O174 1.966 . S
Co171 N180 2.022 . S
Co171 N188 1.993 . S
Co171 O196 1.941 . S
C172 O173 1.258 . S
C172 O174 1.263 . S
O173 Co170 1.970 . S
O173 C172 1.258 . S
O174 Co171 1.966 . S
O174 C172 1.263 . S
C175 O176 1.235 . S
C175 O202 1.289 . S
O176 C175 1.235 . S
C177 C179 1.400 . S
C177 N180 1.351 . S
C177 C182 1.501 . S
C178 C179 1.387 . S
C178 N181 1.341 . S
C179 C177 1.400 . S
C179 C178 1.387 . S
N180 Co171 2.022 . S
N180 C177 1.351 . S
N180 N181 1.365 . S
N181 C178 1.341 . S
N181 N180 1.365 . S
N181 H201 0.862 . S
C182 C177 1.501 . S
C182 H183 0.961 . S
C182 H184 0.961 . S
C182 H185 0.960 . S
H183 C182 0.961 . S
H184 C182 0.961 . S
H185 C182 0.960 . S
C186 N187 1.342 . S
C186 C190 1.401 . S
C186 C191 1.499 . S
N187 Co170 1.989 . S
N187 C186 1.342 . S
N187 N188 1.388 . S
N188 Co171 1.993 . S
N188 N187 1.388 . S
N188 C189 1.346 . S
C189 N188 1.346 . S
C189 C190 1.396 . S
C189 C199 1.510 . S
C190 C186 1.401 . S
C190 C189 1.396 . S
C191 C186 1.499 . S
C191 H192 0.959 . S
C191 H193 0.960 . S
C191 H194 0.961 . S
H192 C191 0.959 . S
H193 C191 0.960 . S
H194 C191 0.961 . S
O195 Co170 1.967 . S
O195 C203 1.258 . S
O196 Co171 1.941 . S
O196 C203 1.266 . S
H197 C199 0.959 . S
H198 C199 0.961 . S
C199 C189 1.510 . S
C199 H197 0.959 . S
C199 H198 0.961 . S
C199 H200 0.960 . S
H200 C199 0.960 . S
H201 N181 0.862 . S
O202 Co170 1.920 . S
O202 C175 1.289 . S
C203 O195 1.258 . S
C203 O196 1.266 . S
Co204 O207 1.970 . S
Co204 N221 1.989 . S
Co204 O229 1.967 . S
Co204 O236 1.920 . S
Co205 O208 1.966 . S
Co205 N214 2.022 . S
Co205 N222 1.993 . S
Co205 O230 1.941 . S
C206 O207 1.258 . S
C206 O208 1.263 . S
O207 Co204 1.970 . S
O207 C206 1.258 . S
O208 Co205 1.966 . S
O208 C206 1.263 . S
C209 O210 1.235 . S
C209 O236 1.289 . S
O210 C209 1.235 . S
C211 C213 1.400 . S
C211 N214 1.351 . S
C211 C216 1.501 . S
C212 C213 1.387 . S
C212 N215 1.341 . S
C213 C211 1.400 . S
C213 C212 1.387 . S
N214 Co205 2.022 . S
N214 C211 1.351 . S
N214 N215 1.365 . S
N215 C212 1.341 . S
N215 N214 1.365 . S
N215 H235 0.862 . S
C216 C211 1.501 . S
C216 H217 0.961 . S
C216 H218 0.961 . S
C216 H219 0.960 . S
H217 C216 0.961 . S
H218 C216 0.961 . S
H219 C216 0.960 . S
C220 N221 1.342 . S
C220 C224 1.401 . S
C220 C225 1.499 . S
N221 Co204 1.989 . S
N221 C220 1.342 . S
N221 N222 1.388 . S
N222 Co205 1.993 . S
N222 N221 1.388 . S
N222 C223 1.346 . S
C223 N222 1.346 . S
C223 C224 1.396 . S
C223 C233 1.510 . S
C224 C220 1.401 . S
C224 C223 1.396 . S
C225 C220 1.499 . S
C225 H226 0.959 . S
C225 H227 0.960 . S
C225 H228 0.961 . S
H226 C225 0.959 . S
H227 C225 0.960 . S
H228 C225 0.961 . S
O229 Co204 1.967 . S
O229 C237 1.258 . S
O230 Co205 1.941 . S
O230 C237 1.266 . S
H231 C233 0.959 . S
H232 C233 0.961 . S
C233 C223 1.510 . S
C233 H231 0.959 . S
C233 H232 0.961 . S
C233 H234 0.960 . S
H234 C233 0.960 . S
H235 N215 0.862 . S
O236 Co204 1.920 . S
O236 C209 1.289 . S
C237 O229 1.258 . S
C237 O230 1.266 . S
Co238 O241 1.970 . S
Co238 N255 1.989 . S
Co238 O263 1.967 1_556 S
Co238 O270 1.920 . S
Co239 O242 1.966 . S
Co239 N248 2.022 . S
Co239 N256 1.993 . S
Co239 O264 1.941 . S
C240 O241 1.258 . S
C240 O242 1.263 1_556 S
O241 Co238 1.970 . S
O241 C240 1.258 . S
O242 Co239 1.966 . S
O242 C240 1.263 1_554 S
C243 O244 1.235 . S
C243 O270 1.289 . S
O244 C243 1.235 . S
C245 C247 1.400 . S
C245 N248 1.351 . S
C245 C250 1.501 . S
C246 C247 1.387 . S
C246 N249 1.341 . S
C247 C245 1.400 . S
C247 C246 1.387 . S
N248 Co239 2.022 . S
N248 C245 1.351 . S
N248 N249 1.365 . S
N249 C246 1.341 . S
N249 N248 1.365 . S
N249 H269 0.862 . S
C250 C245 1.501 . S
C250 H251 0.961 . S
C250 H252 0.961 . S
C250 H253 0.960 . S
H251 C250 0.961 . S
H252 C250 0.961 . S
H253 C250 0.960 . S
C254 N255 1.342 . S
C254 C258 1.401 . S
C254 C259 1.499 . S
N255 Co238 1.989 . S
N255 C254 1.342 . S
N255 N256 1.388 1_556 S
N256 Co239 1.993 . S
N256 N255 1.388 1_554 S
N256 C257 1.346 . S
C257 N256 1.346 . S
C257 C258 1.396 1_554 S
C257 C267 1.510 . S
C258 C254 1.401 . S
C258 C257 1.396 1_556 S
C259 C254 1.499 . S
C259 H260 0.959 . S
C259 H261 0.960 . S
C259 H262 0.961 . S
H260 C259 0.959 . S
H261 C259 0.960 . S
H262 C259 0.961 . S
O263 Co238 1.967 1_554 S
O263 C271 1.258 . S
O264 Co239 1.941 . S
O264 C271 1.266 . S
H265 C267 0.959 . S
H266 C267 0.961 . S
C267 C257 1.510 . S
C267 H265 0.959 . S
C267 H266 0.961 . S
C267 H268 0.960 . S
H268 C267 0.960 . S
H269 N249 0.862 . S
O270 Co238 1.920 . S
O270 C243 1.289 . S
C271 O263 1.258 . S
C271 O264 1.266 . S
Co272 O275 1.970 . S
Co272 N289 1.989 . S
Co272 O297 1.967 1_565 S
Co272 O304 1.920 . S
Co273 O276 1.966 . S
Co273 N282 2.022 . S
Co273 N290 1.993 . S
Co273 O298 1.941 . S
C274 O275 1.258 . S
C274 O276 1.263 . S
O275 Co272 1.970 . S
O275 C274 1.258 . S
O276 Co273 1.966 . S
O276 C274 1.263 . S
C277 O278 1.235 . S
C277 O304 1.289 . S
O278 C277 1.235 . S
C279 C281 1.400 . S
C279 N282 1.351 . S
C279 C284 1.501 . S
C280 C281 1.387 . S
C280 N283 1.341 . S
C281 C279 1.400 . S
C281 C280 1.387 . S
N282 Co273 2.022 . S
N282 C279 1.351 . S
N282 N283 1.365 . S
N283 C280 1.341 . S
N283 N282 1.365 . S
N283 H303 0.862 . S
C284 C279 1.501 . S
C284 H285 0.961 . S
C284 H286 0.961 . S
C284 H287 0.960 . S
H285 C284 0.961 . S
H286 C284 0.961 . S
H287 C284 0.960 . S
C288 N289 1.342 . S
C288 C292 1.401 . S
C288 C293 1.499 . S
N289 Co272 1.989 . S
N289 C288 1.342 . S
N289 N290 1.388 . S
N290 Co273 1.993 . S
N290 N289 1.388 . S
N290 C291 1.346 . S
C291 N290 1.346 . S
C291 C292 1.396 . S
C291 C301 1.510 . S
C292 C288 1.401 . S
C292 C291 1.396 . S
C293 C288 1.499 . S
C293 H294 0.959 . S
C293 H295 0.960 . S
C293 H296 0.961 . S
H294 C293 0.959 . S
H295 C293 0.960 . S
H296 C293 0.961 . S
O297 Co272 1.967 1_545 S
O297 C305 1.258 . S
O298 Co273 1.941 . S
O298 C305 1.266 1_565 S
H299 C301 0.959 . S
H300 C301 0.961 . S
C301 C291 1.510 . S
C301 H299 0.959 . S
C301 H300 0.961 . S
C301 H302 0.960 . S
H302 C301 0.960 . S
H303 N283 0.862 . S
O304 Co272 1.920 . S
O304 C277 1.289 . S
C305 O297 1.258 . S
C305 O298 1.266 1_545 S
Co306 O309 1.970 1_556 S
Co306 N323 1.989 . S
Co306 O331 1.967 1_556 S
Co306 O338 1.920 . S
Co307 O310 1.966 . S
Co307 N316 2.022 . S
Co307 N324 1.993 1_554 S
Co307 O332 1.941 . S
C308 O309 1.258 . S
C308 O310 1.263 . S
O309 Co306 1.970 1_554 S
O309 C308 1.258 . S
O310 Co307 1.966 . S
O310 C308 1.263 . S
C311 O312 1.235 . S
C311 O338 1.289 . S
O312 C311 1.235 . S
C313 C315 1.400 1_554 S
C313 N316 1.351 . S
C313 C318 1.501 . S
C314 C315 1.387 . S
C314 N317 1.341 1_556 S
C315 C313 1.400 1_556 S
C315 C314 1.387 . S
N316 Co307 2.022 . S
N316 C313 1.351 . S
N316 N317 1.365 . S
N317 C314 1.341 1_554 S
N317 N316 1.365 . S
N317 H337 0.862 . S
C318 C313 1.501 . S
C318 H319 0.961 . S
C318 H320 0.961 1_554 S
C318 H321 0.960 . S
H319 C318 0.961 . S
H320 C318 0.961 1_556 S
H321 C318 0.960 . S
C322 N323 1.342 . S
C322 C326 1.401 . S
C322 C327 1.499 . S
N323 Co306 1.989 . S
N323 C322 1.342 . S
N323 N324 1.388 . S
N324 Co307 1.993 1_556 S
N324 N323 1.388 . S
N324 C325 1.346 . S
C325 N324 1.346 . S
C325 C326 1.396 . S
C325 C335 1.510 . S
C326 C322 1.401 . S
C326 C325 1.396 . S
C327 C322 1.499 . S
C327 H328 0.959 . S
C327 H329 0.960 . S
C327 H330 0.961 . S
H328 C327 0.959 . S
H329 C327 0.960 . S
H330 C327 0.961 . S
O331 Co306 1.967 1_554 S
O331 C339 1.258 . S
O332 Co307 1.941 . S
O332 C339 1.266 . S
H333 C335 0.959 . S
H334 C335 0.961 . S
C335 C325 1.510 . S
C335 H333 0.959 . S
C335 H334 0.961 . S
C335 H336 0.960 . S
H336 C335 0.960 . S
H337 N317 0.862 . S
O338 Co306 1.920 . S
O338 C311 1.289 . S
C339 O331 1.258 . S
C339 O332 1.266 . S
Co340 O343 1.970 . S
Co340 N357 1.989 . S
Co340 O365 1.967 . S
Co340 O372 1.920 . S
Co341 O344 1.966 . S
Co341 N350 2.022 . S
Co341 N358 1.993 . S
Co341 O366 1.941 . S
C342 O343 1.258 . S
C342 O344 1.263 . S
O343 Co340 1.970 . S
O343 C342 1.258 . S
O344 Co341 1.966 . S
O344 C342 1.263 . S
C345 O346 1.235 . S
C345 O372 1.289 . S
O346 C345 1.235 . S
C347 C349 1.400 . S
C347 N350 1.351 . S
C347 C352 1.501 . S
C348 C349 1.387 . S
C348 N351 1.341 . S
C349 C347 1.400 . S
C349 C348 1.387 . S
N350 Co341 2.022 . S
N350 C347 1.351 . S
N350 N351 1.365 . S
N351 C348 1.341 . S
N351 N350 1.365 . S
N351 H371 0.862 . S
C352 C347 1.501 . S
C352 H353 0.961 . S
C352 H354 0.961 . S
C352 H355 0.960 . S
H353 C352 0.961 . S
H354 C352 0.961 . S
H355 C352 0.960 . S
C356 N357 1.342 . S
C356 C360 1.401 . S
C356 C361 1.499 . S
N357 Co340 1.989 . S
N357 C356 1.342 . S
N357 N358 1.388 . S
N358 Co341 1.993 . S
N358 N357 1.388 . S
N358 C359 1.346 . S
C359 N358 1.346 . S
C359 C360 1.396 . S
C359 C369 1.510 . S
C360 C356 1.401 . S
C360 C359 1.396 . S
C361 C356 1.499 . S
C361 H362 0.959 . S
C361 H363 0.960 . S
C361 H364 0.961 . S
H362 C361 0.959 . S
H363 C361 0.960 . S
H364 C361 0.961 . S
O365 Co340 1.967 . S
O365 C373 1.258 . S
O366 Co341 1.941 . S
O366 C373 1.266 . S
H367 C369 0.959 . S
H368 C369 0.961 . S
C369 C359 1.510 . S
C369 H367 0.959 . S
C369 H368 0.961 . S
C369 H370 0.960 . S
H370 C369 0.960 . S
H371 N351 0.862 . S
O372 Co340 1.920 . S
O372 C345 1.289 . S
C373 O365 1.258 . S
C373 O366 1.266 . S
Co374 O377 1.970 . S
Co374 N391 1.989 . S
Co374 O399 1.967 1_545 S
Co374 O406 1.920 . S
Co375 O378 1.966 . S
Co375 N384 2.022 . S
Co375 N392 1.993 . S
Co375 O400 1.941 1_545 S
C376 O377 1.258 . S
C376 O378 1.263 . S
O377 Co374 1.970 . S
O377 C376 1.258 . S
O378 Co375 1.966 . S
O378 C376 1.263 . S
C379 O380 1.235 . S
C379 O406 1.289 . S
O380 C379 1.235 . S
C381 C383 1.400 . S
C381 N384 1.351 . S
C381 C386 1.501 . S
C382 C383 1.387 . S
C382 N385 1.341 . S
C383 C381 1.400 . S
C383 C382 1.387 . S
N384 Co375 2.022 . S
N384 C381 1.351 . S
N384 N385 1.365 . S
N385 C382 1.341 . S
N385 N384 1.365 . S
N385 H405 0.862 . S
C386 C381 1.501 . S
C386 H387 0.961 . S
C386 H388 0.961 . S
C386 H389 0.960 . S
H387 C386 0.961 . S
H388 C386 0.961 . S
H389 C386 0.960 . S
C390 N391 1.342 . S
C390 C394 1.401 . S
C390 C395 1.499 . S
N391 Co374 1.989 . S
N391 C390 1.342 . S
N391 N392 1.388 . S
N392 Co375 1.993 . S
N392 N391 1.388 . S
N392 C393 1.346 . S
C393 N392 1.346 . S
C393 C394 1.396 . S
C393 C403 1.510 . S
C394 C390 1.401 . S
C394 C393 1.396 . S
C395 C390 1.499 . S
C395 H396 0.959 . S
C395 H397 0.960 . S
C395 H398 0.961 . S
H396 C395 0.959 . S
H397 C395 0.960 . S
H398 C395 0.961 . S
O399 Co374 1.967 1_565 S
O399 C407 1.258 . S
O400 Co375 1.941 1_565 S
O400 C407 1.266 . S
H401 C403 0.959 . S
H402 C403 0.961 . S
C403 C393 1.510 . S
C403 H401 0.959 . S
C403 H402 0.961 . S
C403 H404 0.960 . S
H404 C403 0.960 . S
H405 N385 0.862 . S
O406 Co374 1.920 . S
O406 C379 1.289 . S
C407 O399 1.258 . S
C407 O400 1.266 . S
H408 C416 0.929 . S
H409 C418 0.930 . S
H410 C420 0.930 . S
H411 C423 0.929 . S
H412 C426 0.930 . S
H413 C428 0.960 . S
H414 C428 0.960 . S
H415 C428 0.960 . S
C416 H408 0.929 . S
C416 C417 1.377 . S
C416 C418 1.384 . S
C417 C416 1.377 . S
C417 C423 1.390 . S
C418 H409 0.930 . S
C418 C416 1.384 . S
C418 C419 1.372 . S
C419 C418 1.372 . S
C419 C420 1.400 . S
C419 C424 1.490 . S
C420 H410 0.930 . S
C420 C419 1.400 . S
C420 C423 1.386 . S
H421 C437 0.930 . S
H422 C438 0.931 . S
C423 H411 0.929 . S
C423 C417 1.390 . S
C423 C420 1.386 . S
C424 C419 1.490 . S
C424 C426 1.395 . S
C424 C427 1.403 . S
H425 C431 0.930 . S
C426 H412 0.930 . S
C426 C424 1.395 . S
C426 C429 1.403 . S
C427 C424 1.403 . S
C427 C428 1.524 . S
C427 C431 1.400 . S
C428 H413 0.960 . S
C428 H414 0.960 . S
C428 H415 0.960 . S
C428 C427 1.524 . S
C429 C426 1.403 . S
C429 C430 1.392 . S
C429 C433 1.495 . S
C430 C429 1.392 . S
C430 C431 1.385 . S
C430 C432 1.478 . S
C431 H425 0.930 . S
C431 C427 1.400 . S
C431 C430 1.385 . S
C432 C430 1.478 . S
C432 C434 1.381 . S
C432 C438 1.383 . S
C433 C429 1.495 . S
C433 H439 0.959 . S
C433 H440 0.961 . S
C433 H441 0.960 . S
C434 C432 1.381 . S
C434 C435 1.394 . S
C434 H442 0.930 . S
C435 C434 1.394 . S
C435 C436 1.383 . S
C435 H443 0.929 . S
C436 C435 1.383 . S
C436 C437 1.377 . S
C437 H421 0.930 . S
C437 C436 1.377 . S
C437 C438 1.379 . S
C438 H422 0.931 . S
C438 C432 1.383 . S
C438 C437 1.379 . S
H439 C433 0.959 . S
H440 C433 0.961 . S
H441 C433 0.960 . S
H442 C434 0.930 . S
H443 C435 0.929 . S
H444 C452 0.929 . S
H445 C454 0.930 . S
H446 C456 0.930 . S
H447 C459 0.929 . S
H448 C462 0.930 . S
H449 C464 0.960 . S
H450 C464 0.960 . S
H451 C464 0.960 . S
C452 H444 0.929 . S
C452 C453 1.377 . S
C452 C454 1.384 . S
C453 C452 1.377 . S
C453 C459 1.390 . S
C454 H445 0.930 . S
C454 C452 1.384 . S
C454 C455 1.372 . S
C455 C454 1.372 . S
C455 C456 1.400 . S
C455 C460 1.490 . S
C456 H446 0.930 . S
C456 C455 1.400 . S
C456 C459 1.386 . S
H457 C473 0.930 . S
H458 C474 0.931 . S
C459 H447 0.929 . S
C459 C453 1.390 . S
C459 C456 1.386 . S
C460 C455 1.490 . S
C460 C462 1.395 . S
C460 C463 1.403 . S
H461 C467 0.930 . S
C462 H448 0.930 . S
C462 C460 1.395 . S
C462 C465 1.403 1_655 S
C463 C460 1.403 . S
C463 C464 1.524 . S
C463 C467 1.400 1_655 S
C464 H449 0.960 . S
C464 H450 0.960 . S
C464 H451 0.960 . S
C464 C463 1.524 . S
C465 C462 1.403 1_455 S
C465 C466 1.392 . S
C465 C469 1.495 . S
C466 C465 1.392 . S
C466 C467 1.385 . S
C466 C468 1.478 . S
C467 H461 0.930 . S
C467 C463 1.400 1_455 S
C467 C466 1.385 . S
C468 C466 1.478 . S
C468 C470 1.381 . S
C468 C474 1.383 . S
C469 C465 1.495 . S
C469 H475 0.959 . S
C469 H476 0.961 . S
C469 H477 0.960 . S
C470 C468 1.381 . S
C470 C471 1.394 . S
C470 H478 0.930 . S
C471 C470 1.394 . S
C471 C472 1.383 . S
C471 H479 0.929 . S
C472 C471 1.383 . S
C472 C473 1.377 . S
C473 H457 0.930 . S
C473 C472 1.377 . S
C473 C474 1.379 . S
C474 H458 0.931 . S
C474 C468 1.383 . S
C474 C473 1.379 . S
H475 C469 0.959 . S
H476 C469 0.961 . S
H477 C469 0.960 . S
H478 C470 0.930 . S
H479 C471 0.929 . S
H480 C488 0.929 . S
H481 C490 0.930 . S
H482 C492 0.930 . S
H483 C495 0.929 . S
H484 C498 0.930 . S
H485 C500 0.960 . S
H486 C500 0.960 . S
H487 C500 0.960 . S
C488 H480 0.929 . S
C488 C489 1.377 . S
C488 C490 1.384 . S
C489 C488 1.377 . S
C489 C495 1.390 . S
C490 H481 0.930 . S
C490 C488 1.384 . S
C490 C491 1.372 . S
C491 C490 1.372 . S
C491 C492 1.400 . S
C491 C496 1.490 . S
C492 H482 0.930 . S
C492 C491 1.400 . S
C492 C495 1.386 . S
H493 C509 0.930 . S
H494 C510 0.931 . S
C495 H483 0.929 . S
C495 C489 1.390 . S
C495 C492 1.386 . S
C496 C491 1.490 . S
C496 C498 1.395 . S
C496 C499 1.403 . S
H497 C503 0.930 . S
C498 H484 0.930 . S
C498 C496 1.395 . S
C498 C501 1.403 . S
C499 C496 1.403 . S
C499 C500 1.524 . S
C499 C503 1.400 . S
C500 H485 0.960 . S
C500 H486 0.960 . S
C500 H487 0.960 . S
C500 C499 1.524 . S
C501 C498 1.403 . S
C501 C502 1.392 . S
C501 C505 1.495 . S
C502 C501 1.392 . S
C502 C503 1.385 . S
C502 C504 1.478 . S
C503 H497 0.930 . S
C503 C499 1.400 . S
C503 C502 1.385 . S
C504 C502 1.478 . S
C504 C506 1.381 . S
C504 C510 1.383 . S
C505 C501 1.495 . S
C505 H511 0.959 . S
C505 H512 0.961 . S
C505 H513 0.960 . S
C506 C504 1.381 . S
C506 C507 1.394 . S
C506 H514 0.930 . S
C507 C506 1.394 . S
C507 C508 1.383 . S
C507 H515 0.929 . S
C508 C507 1.383 . S
C508 C509 1.377 . S
C509 H493 0.930 . S
C509 C508 1.377 . S
C509 C510 1.379 . S
C510 H494 0.931 . S
C510 C504 1.383 . S
C510 C509 1.379 . S
H511 C505 0.959 . S
H512 C505 0.961 . S
H513 C505 0.960 . S
H514 C506 0.930 . S
H515 C507 0.929 . S
H516 C524 0.929 . S
H517 C526 0.930 . S
H518 C528 0.930 . S
H519 C531 0.929 . S
H520 C534 0.930 . S
H521 C536 0.960 . S
H522 C536 0.960 . S
H523 C536 0.960 . S
C524 H516 0.929 . S
C524 C525 1.377 . S
C524 C526 1.384 . S
C525 C524 1.377 . S
C525 C531 1.390 . S
C526 H517 0.930 . S
C526 C524 1.384 . S
C526 C527 1.372 . S
C527 C526 1.372 . S
C527 C528 1.400 . S
C527 C532 1.490 . S
C528 H518 0.930 . S
C528 C527 1.400 . S
C528 C531 1.386 . S
H529 C545 0.930 . S
H530 C546 0.931 . S
C531 H519 0.929 . S
C531 C525 1.390 . S
C531 C528 1.386 . S
C532 C527 1.490 . S
C532 C534 1.395 . S
C532 C535 1.403 . S
H533 C539 0.930 . S
C534 H520 0.930 . S
C534 C532 1.395 . S
C534 C537 1.403 . S
C535 C532 1.403 . S
C535 C536 1.524 . S
C535 C539 1.400 . S
C536 H521 0.960 . S
C536 H522 0.960 . S
C536 H523 0.960 . S
C536 C535 1.524 . S
C537 C534 1.403 . S
C537 C538 1.392 . S
C537 C541 1.495 . S
C538 C537 1.392 . S
C538 C539 1.385 . S
C538 C540 1.478 . S
C539 H533 0.930 . S
C539 C535 1.400 . S
C539 C538 1.385 . S
C540 C538 1.478 . S
C540 C542 1.381 . S
C540 C546 1.383 . S
C541 C537 1.495 . S
C541 H547 0.959 . S
C541 H548 0.961 . S
C541 H549 0.960 . S
C542 C540 1.381 . S
C542 C543 1.394 . S
C542 H550 0.930 . S
C543 C542 1.394 . S
C543 C544 1.383 . S
C543 H551 0.929 . S
C544 C543 1.383 . S
C544 C545 1.377 . S
C545 H529 0.930 . S
C545 C544 1.377 . S
C545 C546 1.379 . S
C546 H530 0.931 . S
C546 C540 1.383 . S
C546 C545 1.379 . S
H547 C541 0.959 . S
H548 C541 0.961 . S
H549 C541 0.960 . S
H550 C542 0.930 . S
H551 C543 0.929 . S
H552 C560 0.929 . S
H553 C562 0.930 . S
H554 C564 0.930 . S
H555 C567 0.929 . S
H556 C570 0.930 . S
H557 C572 0.960 . S
H558 C572 0.960 . S
H559 C572 0.960 . S
C560 H552 0.929 . S
C560 C561 1.377 . S
C560 C562 1.384 . S
C561 C560 1.377 . S
C561 C567 1.390 . S
C562 H553 0.930 . S
C562 C560 1.384 . S
C562 C563 1.372 . S
C563 C562 1.372 . S
C563 C564 1.400 . S
C563 C568 1.490 . S
C564 H554 0.930 . S
C564 C563 1.400 . S
C564 C567 1.386 . S
H565 C581 0.930 . S
H566 C582 0.931 . S
C567 H555 0.929 . S
C567 C561 1.390 . S
C567 C564 1.386 . S
C568 C563 1.490 . S
C568 C570 1.395 . S
C568 C571 1.403 1_556 S
H569 C575 0.930 . S
C570 H556 0.930 . S
C570 C568 1.395 . S
C570 C573 1.403 1_455 S
C571 C568 1.403 1_554 S
C571 C572 1.524 . S
C571 C575 1.400 1_455 S
C572 H557 0.960 . S
C572 H558 0.960 . S
C572 H559 0.960 . S
C572 C571 1.524 . S
C573 C570 1.403 1_655 S
C573 C574 1.392 1_556 S
C573 C577 1.495 . S
C574 C573 1.392 1_554 S
C574 C575 1.385 . S
C574 C576 1.478 . S
C575 H569 0.930 . S
C575 C571 1.400 1_655 S
C575 C574 1.385 . S
C576 C574 1.478 . S
C576 C578 1.381 . S
C576 C582 1.383 . S
C577 C573 1.495 . S
C577 H583 0.959 . S
C577 H584 0.961 . S
C577 H585 0.960 . S
C578 C576 1.381 . S
C578 C579 1.394 . S
C578 H586 0.930 . S
C579 C578 1.394 . S
C579 C580 1.383 . S
C579 H587 0.929 . S
C580 C579 1.383 . S
C580 C581 1.377 . S
C581 H565 0.930 . S
C581 C580 1.377 . S
C581 C582 1.379 . S
C582 H566 0.931 . S
C582 C576 1.383 . S
C582 C581 1.379 . S
H583 C577 0.959 . S
H584 C577 0.961 . S
H585 C577 0.960 . S
H586 C578 0.930 . S
H587 C579 0.929 . S
H588 C596 0.925 . S
H589 C598 0.930 . S
H590 C600 0.930 . S
H591 C603 0.929 . S
H592 C606 0.930 . S
H593 C608 0.960 . S
H594 C608 0.960 . S
H595 C608 0.960 . S
C596 H588 0.925 . S
C596 C597 1.377 . S
C596 C598 1.384 . S
C597 C596 1.377 . S
C597 C603 1.390 . S
C598 H589 0.930 . S
C598 C596 1.384 . S
C598 C599 1.372 . S
C599 C598 1.372 . S
C599 C600 1.400 . S
C599 C604 1.490 . S
C600 H590 0.930 . S
C600 C599 1.400 . S
C600 C603 1.386 . S
H601 C617 0.930 . S
H602 C618 0.931 . S
C603 H591 0.929 . S
C603 C597 1.390 . S
C603 C600 1.386 . S
C604 C599 1.490 . S
C604 C606 1.395 . S
C604 C607 1.403 . S
H605 C611 0.930 . S
C606 H592 0.930 . S
C606 C604 1.395 . S
C606 C609 1.403 . S
C607 C604 1.403 . S
C607 C608 1.524 . S
C607 C611 1.400 . S
C608 H593 0.960 . S
C608 H594 0.960 . S
C608 H595 0.960 . S
C608 C607 1.524 . S
C609 C606 1.403 . S
C609 C610 1.392 . S
C609 C613 1.495 . S
C610 C609 1.392 . S
C610 C611 1.385 . S
C610 C612 1.478 . S
C611 H605 0.930 . S
C611 C607 1.400 . S
C611 C610 1.385 . S
C612 C610 1.478 . S
C612 C614 1.381 . S
C612 C618 1.383 . S
C613 C609 1.495 . S
C613 H619 0.959 . S
C613 H620 0.961 . S
C613 H621 0.960 . S
C614 C612 1.381 . S
C614 C615 1.394 . S
C614 H622 0.930 . S
C615 C614 1.394 . S
C615 C616 1.383 . S
C615 H623 0.929 . S
C616 C615 1.383 . S
C616 C617 1.377 . S
C617 H601 0.930 . S
C617 C616 1.377 . S
C617 C618 1.379 . S
C618 H602 0.931 . S
C618 C612 1.383 . S
C618 C617 1.379 . S
H619 C613 0.959 . S
H620 C613 0.961 . S
H621 C613 0.960 . S
H622 C614 0.930 . S
H623 C615 0.929 . S
H624 C632 0.929 . S
H625 C634 0.930 . S
H626 C636 0.930 . S
H627 C639 0.929 . S
H628 C642 0.930 . S
H629 C644 0.960 . S
H630 C644 0.960 . S
H631 C644 0.960 . S
C632 H624 0.929 . S
C632 C633 1.377 . S
C632 C634 1.384 . S
C633 C632 1.377 . S
C633 C639 1.390 . S
C634 H625 0.930 . S
C634 C632 1.384 . S
C634 C635 1.372 . S
C635 C634 1.372 . S
C635 C636 1.400 . S
C635 C640 1.490 . S
C636 H626 0.930 . S
C636 C635 1.400 . S
C636 C639 1.386 . S
H637 C653 0.930 . S
H638 C654 0.931 . S
C639 H627 0.929 . S
C639 C633 1.390 . S
C639 C636 1.386 . S
C640 C635 1.490 . S
C640 C642 1.395 . S
C640 C643 1.403 . S
H641 C647 0.930 . S
C642 H628 0.930 . S
C642 C640 1.395 . S
C642 C645 1.403 . S
C643 C640 1.403 . S
C643 C644 1.524 . S
C643 C647 1.400 . S
C644 H629 0.960 . S
C644 H630 0.960 . S
C644 H631 0.960 . S
C644 C643 1.524 . S
C645 C642 1.403 . S
C645 C646 1.392 . S
C645 C649 1.495 . S
C646 C645 1.392 . S
C646 C647 1.385 . S
C646 C648 1.478 . S
C647 H641 0.930 . S
C647 C643 1.400 . S
C647 C646 1.385 . S
C648 C646 1.478 . S
C648 C650 1.381 . S
C648 C654 1.383 . S
C649 C645 1.495 . S
C649 H655 0.959 . S
C649 H656 0.961 . S
C649 H657 0.960 . S
C650 C648 1.381 . S
C650 C651 1.408 . S
C650 H658 0.930 . S
C651 C650 1.408 . S
C651 C652 1.398 . S
C651 H659 0.901 1_554 S
C652 C651 1.398 . S
C652 C653 1.377 . S
C653 H637 0.930 . S
C653 C652 1.377 . S
C653 C654 1.379 . S
C654 H638 0.931 . S
C654 C648 1.383 . S
C654 C653 1.379 . S
H655 C649 0.959 . S
H656 C649 0.961 . S
H657 C649 0.960 . S
H658 C650 0.930 . S
H659 C651 0.901 1_556 S
H660 C668 0.929 . S
H661 C670 0.930 . S
H662 C672 0.930 . S
H663 C675 0.929 . S
H664 C678 0.930 . S
H665 C680 0.960 . S
H666 C680 0.960 . S
H667 C680 0.960 . S
C668 H660 0.929 . S
C668 C669 1.377 . S
C668 C670 1.384 . S
C669 C668 1.377 . S
C669 C675 1.390 . S
C670 H661 0.930 . S
C670 C668 1.384 . S
C670 C671 1.372 . S
C671 C670 1.372 . S
C671 C672 1.400 . S
C671 C676 1.490 . S
C672 H662 0.930 . S
C672 C671 1.400 . S
C672 C675 1.386 . S
H673 C689 0.930 . S
H674 C690 0.931 . S
C675 H663 0.929 . S
C675 C669 1.390 . S
C675 C672 1.386 . S
C676 C671 1.490 . S
C676 C678 1.395 . S
C676 C679 1.403 . S
H677 C683 0.930 . S
C678 H664 0.930 . S
C678 C676 1.395 . S
C678 C681 1.403 . S
C679 C676 1.403 . S
C679 C680 1.524 . S
C679 C683 1.400 . S
C680 H665 0.960 . S
C680 H666 0.960 . S
C680 H667 0.960 . S
C680 C679 1.524 . S
C681 C678 1.403 . S
C681 C682 1.392 . S
C681 C685 1.495 . S
C682 C681 1.392 . S
C682 C683 1.385 . S
C682 C684 1.478 . S
C683 H677 0.930 . S
C683 C679 1.400 . S
C683 C682 1.385 . S
C684 C682 1.478 . S
C684 C686 1.381 . S
C684 C690 1.383 . S
C685 C681 1.495 . S
C685 H691 0.959 . S
C685 H692 0.961 . S
C685 H693 0.960 . S
C686 C684 1.381 . S
C686 C687 1.394 . S
C686 H694 0.930 . S
C687 C686 1.394 . S
C687 C688 1.383 . S
C687 H695 0.929 . S
C688 C687 1.383 . S
C688 C689 1.377 . S
C689 H673 0.930 . S
C689 C688 1.377 . S
C689 C690 1.379 . S
C690 H674 0.931 . S
C690 C684 1.383 . S
C690 C689 1.379 . S
H691 C685 0.959 . S
H692 C685 0.961 . S
H693 C685 0.960 . S
H694 C686 0.930 . S
H695 C687 0.929 . S
H696 C704 0.929 1_556 S
H697 C706 0.930 . S
H698 C708 0.930 . S
H699 C711 0.929 . S
H700 C714 0.930 . S
H701 C716 0.960 . S
H702 C716 0.960 . S
H703 C716 0.960 . S
C704 H696 0.929 1_554 S
C704 C705 1.377 . S
C704 C706 1.384 . S
C705 C704 1.377 . S
C705 C711 1.390 . S
C706 H697 0.930 . S
C706 C704 1.384 . S
C706 C707 1.372 . S
C707 C706 1.372 . S
C707 C708 1.400 . S
C707 C712 1.490 . S
C708 H698 0.930 . S
C708 C707 1.400 . S
C708 C711 1.386 . S
H709 C725 0.930 . S
H710 C726 0.931 . S
C711 H699 0.929 . S
C711 C705 1.390 . S
C711 C708 1.386 . S
C712 C707 1.490 . S
C712 C714 1.395 . S
C712 C715 1.403 . S
H713 C719 0.930 . S
C714 H700 0.930 . S
C714 C712 1.395 . S
C714 C717 1.403 . S
C715 C712 1.403 . S
C715 C716 1.524 . S
C715 C719 1.400 . S
C716 H701 0.960 . S
C716 H702 0.960 . S
C716 H703 0.960 . S
C716 C715 1.524 . S
C717 C714 1.403 . S
C717 C718 1.392 . S
C717 C721 1.495 . S
C718 C717 1.392 . S
C718 C719 1.385 . S
C718 C720 1.478 . S
C719 H713 0.930 . S
C719 C715 1.400 . S
C719 C718 1.385 . S
C720 C718 1.478 . S
C720 C722 1.381 . S
C720 C726 1.383 . S
C721 C717 1.495 . S
C721 H727 0.959 . S
C721 H728 0.961 . S
C721 H729 0.960 . S
C722 C720 1.381 . S
C722 C723 1.394 . S
C722 H730 0.930 . S
C723 C722 1.394 . S
C723 C724 1.383 . S
C723 H731 0.929 . S
C724 C723 1.383 . S
C724 C725 1.377 . S
C725 H709 0.930 . S
C725 C724 1.377 . S
C725 C726 1.379 . S
C726 H710 0.931 . S
C726 C720 1.383 . S
C726 C725 1.379 . S
H727 C721 0.959 . S
H728 C721 0.961 . S
H729 C721 0.960 . S
H730 C722 0.930 . S
H731 C723 0.929 . S
H732 C740 0.929 . S
H733 C742 0.930 . S
H734 C744 0.930 . S
H735 C747 0.929 . S
H736 C750 0.930 . S
H737 C752 0.960 . S
H738 C752 0.960 . S
H739 C752 0.960 . S
C740 H732 0.929 . S
C740 C741 1.377 . S
C740 C742 1.384 . S
C741 C740 1.377 . S
C741 C747 1.390 . S
C742 H733 0.930 . S
C742 C740 1.384 . S
C742 C743 1.372 . S
C743 C742 1.372 . S
C743 C744 1.400 . S
C743 C748 1.490 . S
C744 H734 0.930 . S
C744 C743 1.400 . S
C744 C747 1.386 . S
H745 C761 0.930 . S
H746 C762 0.931 . S
C747 H735 0.929 . S
C747 C741 1.390 . S
C747 C744 1.386 . S
C748 C743 1.490 . S
C748 C750 1.395 . S
C748 C751 1.403 . S
H749 C755 0.930 . S
C750 H736 0.930 . S
C750 C748 1.395 . S
C750 C753 1.403 . S
C751 C748 1.403 . S
C751 C752 1.524 . S
C751 C755 1.400 . S
C752 H737 0.960 . S
C752 H738 0.960 . S
C752 H739 0.960 . S
C752 C751 1.524 . S
C753 C750 1.403 . S
C753 C754 1.392 . S
C753 C757 1.495 . S
C754 C753 1.392 . S
C754 C755 1.385 . S
C754 C756 1.478 . S
C755 H749 0.930 . S
C755 C751 1.400 . S
C755 C754 1.385 . S
C756 C754 1.478 . S
C756 C758 1.381 . S
C756 C762 1.383 . S
C757 C753 1.495 . S
C757 H763 0.959 . S
C757 H764 0.961 . S
C757 H765 0.960 . S
C758 C756 1.381 . S
C758 C759 1.394 . S
C758 H766 0.930 . S
C759 C758 1.394 . S
C759 C760 1.383 . S
C759 H767 0.929 . S
C760 C759 1.383 . S
C760 C761 1.377 . S
C761 H745 0.930 . S
C761 C760 1.377 . S
C761 C762 1.379 . S
C762 H746 0.931 . S
C762 C756 1.383 . S
C762 C761 1.379 . S
H763 C757 0.959 . S
H764 C757 0.961 . S
H765 C757 0.960 . S
H766 C758 0.930 . S
H767 C759 0.929 . S
H768 C776 0.929 . S
H769 C778 0.930 . S
H770 C780 0.930 . S
H771 C783 0.929 . S
H772 C786 0.930 . S
H773 C788 0.960 . S
H774 C788 0.960 . S
H775 C788 0.960 . S
C776 H768 0.929 . S
C776 C777 1.377 . S
C776 C778 1.384 . S
C777 C776 1.377 . S
C777 C783 1.390 . S
C778 H769 0.930 . S
C778 C776 1.384 . S
C778 C779 1.372 . S
C779 C778 1.372 . S
C779 C780 1.400 . S
C779 C784 1.490 . S
C780 H770 0.930 . S
C780 C779 1.400 . S
C780 C783 1.386 . S
H781 C797 0.930 . S
H782 C798 0.931 . S
C783 H771 0.929 . S
C783 C777 1.390 . S
C783 C780 1.386 . S
C784 C779 1.490 . S
C784 C786 1.395 . S
C784 C787 1.403 . S
H785 C791 0.930 . S
C786 H772 0.930 . S
C786 C784 1.395 . S
C786 C789 1.403 . S
C787 C784 1.403 . S
C787 C788 1.524 . S
C787 C791 1.400 . S
C788 H773 0.960 . S
C788 H774 0.960 . S
C788 H775 0.960 . S
C788 C787 1.524 . S
C789 C786 1.403 . S
C789 C790 1.392 . S
C789 C793 1.495 . S
C790 C789 1.392 . S
C790 C791 1.385 . S
C790 C792 1.478 . S
C791 H785 0.930 . S
C791 C787 1.400 . S
C791 C790 1.385 . S
C792 C790 1.478 . S
C792 C794 1.381 . S
C792 C798 1.383 . S
C793 C789 1.495 . S
C793 H799 0.959 . S
C793 H800 0.961 . S
C793 H801 0.960 . S
C794 C792 1.381 . S
C794 C795 1.394 . S
C794 H802 0.930 . S
C795 C794 1.394 . S
C795 C796 1.383 . S
C795 H803 0.929 . S
C796 C795 1.383 . S
C796 C797 1.377 . S
C797 H781 0.930 . S
C797 C796 1.377 . S
C797 C798 1.379 . S
C798 H782 0.931 . S
C798 C792 1.383 . S
C798 C797 1.379 . S
H799 C793 0.959 . S
H800 C793 0.961 . S
H801 C793 0.960 . S
H802 C794 0.930 . S
H803 C795 0.929 . S
H804 C812 0.929 . S
H805 C814 0.930 . S
H806 C816 0.930 . S
H807 C819 0.929 . S
H808 C822 0.930 . S
H809 C824 0.960 . S
H810 C824 0.960 . S
H811 C824 0.960 . S
C812 H804 0.929 . S
C812 C813 1.377 . S
C812 C814 1.384 . S
C813 C812 1.377 . S
C813 C819 1.390 . S
C814 H805 0.930 . S
C814 C812 1.384 . S
C814 C815 1.372 . S
C815 C814 1.372 . S
C815 C816 1.400 . S
C815 C820 1.490 . S
C816 H806 0.930 . S
C816 C815 1.400 . S
C816 C819 1.386 . S
H817 C833 0.930 . S
H818 C834 0.931 . S
C819 H807 0.929 . S
C819 C813 1.390 . S
C819 C816 1.386 . S
C820 C815 1.490 . S
C820 C822 1.395 . S
C820 C823 1.403 . S
H821 C827 0.930 . S
C822 H808 0.930 . S
C822 C820 1.395 . S
C822 C825 1.403 . S
C823 C820 1.403 . S
C823 C824 1.524 . S
C823 C827 1.400 . S
C824 H809 0.960 . S
C824 H810 0.960 . S
C824 H811 0.960 . S
C824 C823 1.524 . S
C825 C822 1.403 . S
C825 C826 1.392 . S
C825 C829 1.495 . S
C826 C825 1.392 . S
C826 C827 1.385 . S
C826 C828 1.478 . S
C827 H821 0.930 . S
C827 C823 1.400 . S
C827 C826 1.385 . S
C828 C826 1.478 . S
C828 C830 1.381 . S
C828 C834 1.383 . S
C829 C825 1.495 . S
C829 H835 0.959 . S
C829 H836 0.961 . S
C829 H837 0.960 . S
C830 C828 1.381 . S
C830 C831 1.394 . S
C830 H838 0.930 . S
C831 C830 1.394 . S
C831 C832 1.383 . S
C831 H839 0.929 . S
C832 C831 1.383 . S
C832 C833 1.377 . S
C833 H817 0.930 . S
C833 C832 1.377 . S
C833 C834 1.379 . S
C834 H818 0.931 . S
C834 C828 1.383 . S
C834 C833 1.379 . S
H835 C829 0.959 . S
H836 C829 0.961 . S
H837 C829 0.960 . S
H838 C830 0.930 . S
H839 C831 0.929 . S
H840 C848 0.929 . S
H841 C850 0.930 . S
H842 C852 0.930 . S
H843 C855 0.929 . S
H844 C858 0.930 . S
H845 C860 0.960 . S
H846 C860 0.960 . S
H847 C860 0.960 . S
C848 H840 0.929 . S
C848 C849 1.377 . S
C848 C850 1.384 . S
C849 C848 1.377 . S
C849 C855 1.390 . S
C850 H841 0.930 . S
C850 C848 1.384 . S
C850 C851 1.372 . S
C851 C850 1.372 . S
C851 C852 1.400 . S
C851 C856 1.490 . S
C852 H842 0.930 . S
C852 C851 1.400 . S
C852 C855 1.386 . S
H853 C869 0.930 . S
H854 C870 0.931 . S
C855 H843 0.929 . S
C855 C849 1.390 . S
C855 C852 1.386 . S
C856 C851 1.490 . S
C856 C858 1.395 . S
C856 C859 1.403 . S
H857 C863 0.930 . S
C858 H844 0.930 . S
C858 C856 1.395 . S
C858 C861 1.403 . S
C859 C856 1.403 . S
C859 C860 1.524 . S
C859 C863 1.400 . S
C860 H845 0.960 . S
C860 H846 0.960 . S
C860 H847 0.960 . S
C860 C859 1.524 . S
C861 C858 1.403 . S
C861 C862 1.392 . S
C861 C865 1.495 . S
C862 C861 1.392 . S
C862 C863 1.385 . S
C862 C864 1.478 . S
C863 H857 0.930 . S
C863 C859 1.400 . S
C863 C862 1.385 . S
C864 C862 1.478 . S
C864 C866 1.381 . S
C864 C870 1.383 . S
C865 C861 1.495 . S
C865 H871 0.959 . S
C865 H872 0.961 . S
C865 H873 0.960 . S
C866 C864 1.381 . S
C866 C867 1.394 . S
C866 H874 0.930 . S
C867 C866 1.394 . S
C867 C868 1.383 . S
C867 H875 0.929 . S
C868 C867 1.383 . S
C868 C869 1.377 . S
C869 H853 0.930 . S
C869 C868 1.377 . S
C869 C870 1.379 . S
C870 H854 0.931 . S
C870 C864 1.383 . S
C870 C869 1.379 . S
H871 C865 0.959 . S
H872 C865 0.961 . S
H873 C865 0.960 . S
H874 C866 0.930 . S
H875 C867 0.929 . S
H876 C884 0.929 . S
H877 C886 0.930 . S
H878 C888 0.930 . S
H879 C891 0.929 . S
H880 C894 0.930 . S
H881 C896 0.960 . S
H882 C896 0.960 . S
H883 C896 0.960 . S
C884 H876 0.929 . S
C884 C885 1.377 . S
C884 C886 1.384 . S
C885 C884 1.377 . S
C885 C891 1.390 . S
C886 H877 0.930 . S
C886 C884 1.384 . S
C886 C887 1.372 . S
C887 C886 1.372 . S
C887 C888 1.400 . S
C887 C892 1.490 . S
C888 H878 0.930 . S
C888 C887 1.400 . S
C888 C891 1.386 . S
H889 C905 0.930 . S
H890 C906 0.931 . S
C891 H879 0.929 . S
C891 C885 1.390 . S
C891 C888 1.386 . S
C892 C887 1.490 . S
C892 C894 1.395 . S
C892 C895 1.403 . S
H893 C899 0.930 . S
C894 H880 0.930 . S
C894 C892 1.395 . S
C894 C897 1.403 . S
C895 C892 1.403 . S
C895 C896 1.524 . S
C895 C899 1.400 . S
C896 H881 0.960 . S
C896 H882 0.960 . S
C896 H883 0.960 . S
C896 C895 1.524 . S
C897 C894 1.403 . S
C897 C898 1.392 . S
C897 C901 1.495 1_554 S
C898 C897 1.392 . S
C898 C899 1.385 . S
C898 C900 1.478 . S
C899 H893 0.930 . S
C899 C895 1.400 . S
C899 C898 1.385 . S
C900 C898 1.478 . S
C900 C902 1.381 . S
C900 C906 1.383 . S
C901 C897 1.495 1_556 S
C901 H907 0.959 . S
C901 H908 0.961 . S
C901 H909 0.960 . S
C902 C900 1.381 . S
C902 C903 1.394 . S
C902 H910 0.930 . S
C903 C902 1.394 . S
C903 C904 1.383 . S
C903 H911 0.929 . S
C904 C903 1.383 . S
C904 C905 1.377 . S
C905 H889 0.930 . S
C905 C904 1.377 . S
C905 C906 1.379 . S
C906 H890 0.931 . S
C906 C900 1.383 . S
C906 C905 1.379 . S
H907 C901 0.959 . S
H908 C901 0.961 . S
H909 C901 0.960 . S
H910 C902 0.930 . S
H911 C903 0.929 . S
H912 C920 0.929 . S
H913 C922 0.930 . S
H914 C924 0.930 . S
H915 C927 0.929 . S
H916 C930 0.930 . S
H917 C932 0.960 . S
H918 C932 0.960 . S
H919 C932 0.960 . S
C920 H912 0.929 . S
C920 C921 1.377 . S
C920 C922 1.384 . S
C921 C920 1.377 . S
C921 C927 1.390 . S
C922 H913 0.930 . S
C922 C920 1.384 . S
C922 C923 1.372 . S
C923 C922 1.372 . S
C923 C924 1.400 . S
C923 C928 1.490 . S
C924 H914 0.930 . S
C924 C923 1.400 . S
C924 C927 1.386 . S
H925 C941 0.930 . S
H926 C942 0.931 . S
C927 H915 0.929 . S
C927 C921 1.390 . S
C927 C924 1.386 . S
C928 C923 1.490 . S
C928 C930 1.395 . S
C928 C931 1.403 . S
H929 C935 0.930 . S
C930 H916 0.930 . S
C930 C928 1.395 . S
C930 C933 1.403 . S
C931 C928 1.403 . S
C931 C932 1.524 . S
C931 C935 1.400 . S
C932 H917 0.960 . S
C932 H918 0.960 . S
C932 H919 0.960 . S
C932 C931 1.524 . S
C933 C930 1.403 . S
C933 C934 1.392 . S
C933 C937 1.495 . S
C934 C933 1.392 . S
C934 C935 1.385 . S
C934 C936 1.478 . S
C935 H929 0.930 . S
C935 C931 1.400 . S
C935 C934 1.385 . S
C936 C934 1.478 . S
C936 C938 1.381 . S
C936 C942 1.383 . S
C937 C933 1.495 . S
C937 H943 0.959 . S
C937 H944 0.961 . S
C937 H945 0.960 . S
C938 C936 1.381 . S
C938 C939 1.394 . S
C938 H946 0.930 . S
C939 C938 1.394 . S
C939 C940 1.383 . S
C939 H947 0.929 . S
C940 C939 1.383 . S
C940 C941 1.377 . S
C941 H925 0.930 . S
C941 C940 1.377 . S
C941 C942 1.379 . S
C942 H926 0.931 . S
C942 C936 1.383 . S
C942 C941 1.379 . S
H943 C937 0.959 . S
H944 C937 0.961 . S
H945 C937 0.960 . S
H946 C938 0.930 . S
H947 C939 0.929 . S
H948 C956 0.929 . S
H949 C958 0.930 . S
H950 C960 0.930 . S
H951 C963 0.929 . S
H952 C966 0.930 . S
H953 C968 0.960 . S
H954 C968 0.960 . S
H955 C968 0.960 . S
C956 H948 0.929 . S
C956 C957 1.377 . S
C956 C958 1.384 . S
C957 C956 1.377 . S
C957 C963 1.390 . S
C958 H949 0.930 . S
C958 C956 1.384 . S
C958 C959 1.372 . S
C959 C958 1.372 . S
C959 C960 1.400 . S
C959 C964 1.490 . S
C960 H950 0.930 . S
C960 C959 1.400 . S
C960 C963 1.386 . S
H961 C977 0.930 . S
H962 C978 0.931 . S
C963 H951 0.929 . S
C963 C957 1.390 . S
C963 C960 1.386 . S
C964 C959 1.490 . S
C964 C966 1.395 . S
C964 C967 1.403 . S
H965 C971 0.930 . S
C966 H952 0.930 . S
C966 C964 1.395 . S
C966 C969 1.403 . S
C967 C964 1.403 . S
C967 C968 1.524 . S
C967 C971 1.400 . S
C968 H953 0.960 . S
C968 H954 0.960 . S
C968 H955 0.960 . S
C968 C967 1.524 . S
C969 C966 1.403 . S
C969 C970 1.392 . S
C969 C973 1.495 . S
C970 C969 1.392 . S
C970 C971 1.385 . S
C970 C972 1.478 . S
C971 H965 0.930 . S
C971 C967 1.400 . S
C971 C970 1.385 . S
C972 C970 1.478 . S
C972 C974 1.381 . S
C972 C978 1.383 . S
C973 C969 1.495 . S
C973 H979 0.959 . S
C973 H980 0.961 . S
C973 H981 0.960 . S
C974 C972 1.381 . S
C974 C975 1.394 . S
C974 H982 0.930 . S
C975 C974 1.394 . S
C975 C976 1.383 . S
C975 H983 0.929 . S
C976 C975 1.383 . S
C976 C977 1.377 . S
C977 H961 0.930 . S
C977 C976 1.377 . S
C977 C978 1.379 . S
C978 H962 0.931 . S
C978 C972 1.383 . S
C978 C977 1.379 . S
H979 C973 0.959 . S
H980 C973 0.961 . S
H981 C973 0.960 . S
H982 C974 0.930 . S
H983 C975 0.929 . S
H984 C992 0.929 . S
H985 C994 0.930 . S
H986 C996 0.930 . S
H987 C999 0.929 . S
H988 C1002 0.930 . S
H989 C1004 0.960 . S
H990 C1004 0.960 . S
H991 C1004 0.960 . S
C992 H984 0.929 . S
C992 C993 1.377 . S
C992 C994 1.384 . S
C993 C992 1.377 . S
C993 C999 1.390 . S
C994 H985 0.930 . S
C994 C992 1.384 . S
C994 C995 1.372 . S
C995 C994 1.372 . S
C995 C996 1.400 . S
C995 C1000 1.490 . S
C996 H986 0.930 . S
C996 C995 1.400 . S
C996 C999 1.386 . S
H997 C1013 0.930 . S
H998 C1014 0.931 . S
C999 H987 0.929 . S
C999 C993 1.390 . S
C999 C996 1.386 . S
C1000 C995 1.490 . S
C1000 C1002 1.395 . S
C1000 C1003 1.403 . S
H1001 C1007 0.930 . S
C1002 H988 0.930 . S
C1002 C1000 1.395 . S
C1002 C1005 1.403 . S
C1003 C1000 1.403 . S
C1003 C1004 1.524 . S
C1003 C1007 1.400 . S
C1004 H989 0.960 . S
C1004 H990 0.960 . S
C1004 H991 0.960 . S
C1004 C1003 1.524 . S
C1005 C1002 1.403 . S
C1005 C1006 1.392 . S
C1005 C1009 1.495 . S
C1006 C1005 1.392 . S
C1006 C1007 1.385 . S
C1006 C1008 1.478 . S
C1007 H1001 0.930 . S
C1007 C1003 1.400 . S
C1007 C1006 1.385 . S
C1008 C1006 1.478 . S
C1008 C1010 1.381 . S
C1008 C1014 1.383 . S
C1009 C1005 1.495 . S
C1009 H1015 0.959 . S
C1009 H1016 0.961 . S
C1009 H1017 0.960 . S
C1010 C1008 1.381 . S
C1010 C1011 1.394 . S
C1010 H1018 0.930 . S
C1011 C1010 1.394 . S
C1011 C1012 1.383 . S
C1011 H1019 0.929 . S
C1012 C1011 1.383 . S
C1012 C1013 1.377 . S
C1013 H997 0.930 . S
C1013 C1012 1.377 . S
C1013 C1014 1.379 . S
C1014 H998 0.931 . S
C1014 C1008 1.383 . S
C1014 C1013 1.379 . S
H1015 C1009 0.959 . S
H1016 C1009 0.961 . S
H1017 C1009 0.960 . S
H1018 C1010 0.930 . S
H1019 C1011 0.929 . S
H1020 C1028 0.929 . S
H1021 C1030 0.930 . S
H1022 C1032 0.930 . S
H1023 C1035 0.929 . S
H1024 C1038 0.930 . S
H1025 C1040 0.960 . S
H1026 C1040 0.960 . S
H1027 C1040 0.960 . S
C1028 H1020 0.929 . S
C1028 C1029 1.377 . S
C1028 C1030 1.384 . S
C1029 C1028 1.377 . S
C1029 C1035 1.390 . S
C1030 H1021 0.930 . S
C1030 C1028 1.384 . S
C1030 C1031 1.372 . S
C1031 C1030 1.372 . S
C1031 C1032 1.400 . S
C1031 C1036 1.490 . S
C1032 H1022 0.930 . S
C1032 C1031 1.400 . S
C1032 C1035 1.386 . S
H1033 C1049 0.930 . S
H1034 C1050 0.931 . S
C1035 H1023 0.929 . S
C1035 C1029 1.390 . S
C1035 C1032 1.386 . S
C1036 C1031 1.490 . S
C1036 C1038 1.395 . S
C1036 C1039 1.403 . S
H1037 C1043 0.930 . S
C1038 H1024 0.930 . S
C1038 C1036 1.395 . S
C1038 C1041 1.403 . S
C1039 C1036 1.403 . S
C1039 C1040 1.524 . S
C1039 C1043 1.400 . S
C1040 H1025 0.960 . S
C1040 H1026 0.960 . S
C1040 H1027 0.960 . S
C1040 C1039 1.524 . S
C1041 C1038 1.403 . S
C1041 C1042 1.392 . S
C1041 C1045 1.495 . S
C1042 C1041 1.392 . S
C1042 C1043 1.385 . S
C1042 C1044 1.478 . S
C1043 H1037 0.930 . S
C1043 C1039 1.400 . S
C1043 C1042 1.385 . S
C1044 C1042 1.478 . S
C1044 C1046 1.381 . S
C1044 C1050 1.383 . S
C1045 C1041 1.495 . S
C1045 H1051 0.959 . S
C1045 H1052 0.961 . S
C1045 H1053 0.960 . S
C1046 C1044 1.381 . S
C1046 C1047 1.394 . S
C1046 H1054 0.930 . S
C1047 C1046 1.394 . S
C1047 C1048 1.383 . S
C1047 H1055 0.929 . S
C1048 C1047 1.383 . S
C1048 C1049 1.377 . S
C1049 H1033 0.930 . S
C1049 C1048 1.377 . S
C1049 C1050 1.379 . S
C1050 H1034 0.931 . S
C1050 C1044 1.383 . S
C1050 C1049 1.379 . S
H1051 C1045 0.959 . S
H1052 C1045 0.961 . S
H1053 C1045 0.960 . S
H1054 C1046 0.930 . S
H1055 C1047 0.929 . S
H1056 C1064 0.929 . S
H1057 C1066 0.930 . S
H1058 C1068 0.930 . S
H1059 C1071 0.929 . S
H1060 C1074 0.930 . S
H1061 C1076 0.960 . S
H1062 C1076 0.960 . S
H1063 C1076 0.960 . S
C1064 H1056 0.929 . S
C1064 C1065 1.377 . S
C1064 C1066 1.384 . S
C1065 C1064 1.377 . S
C1065 C1071 1.390 . S
C1066 H1057 0.930 . S
C1066 C1064 1.384 . S
C1066 C1067 1.372 . S
C1067 C1066 1.372 . S
C1067 C1068 1.400 . S
C1067 C1072 1.490 . S
C1068 H1058 0.930 . S
C1068 C1067 1.400 . S
C1068 C1071 1.386 . S
H1069 C1085 0.930 . S
H1070 C1086 0.931 . S
C1071 H1059 0.929 . S
C1071 C1065 1.390 . S
C1071 C1068 1.386 . S
C1072 C1067 1.490 . S
C1072 C1074 1.395 . S
C1072 C1075 1.403 . S
H1073 C1079 0.930 . S
C1074 H1060 0.930 . S
C1074 C1072 1.395 . S
C1074 C1077 1.403 . S
C1075 C1072 1.403 . S
C1075 C1076 1.524 . S
C1075 C1079 1.400 . S
C1076 H1061 0.960 . S
C1076 H1062 0.960 . S
C1076 H1063 0.960 . S
C1076 C1075 1.524 . S
C1077 C1074 1.403 . S
C1077 C1078 1.392 . S
C1077 C1081 1.495 . S
C1078 C1077 1.392 . S
C1078 C1079 1.385 . S
C1078 C1080 1.478 . S
C1079 H1073 0.930 . S
C1079 C1075 1.400 . S
C1079 C1078 1.385 . S
C1080 C1078 1.478 . S
C1080 C1082 1.381 . S
C1080 C1086 1.383 . S
C1081 C1077 1.495 . S
C1081 H1087 0.959 . S
C1081 H1088 0.961 . S
C1081 H1089 0.960 . S
C1082 C1080 1.381 . S
C1082 C1083 1.394 . S
C1082 H1090 0.930 . S
C1083 C1082 1.394 . S
C1083 C1084 1.383 . S
C1083 H1091 0.929 . S
C1084 C1083 1.383 . S
C1084 C1085 1.377 . S
C1085 H1069 0.930 . S
C1085 C1084 1.377 . S
C1085 C1086 1.379 . S
C1086 H1070 0.931 . S
C1086 C1080 1.383 . S
C1086 C1085 1.379 . S
H1087 C1081 0.959 . S
H1088 C1081 0.961 . S
H1089 C1081 0.960 . S
H1090 C1082 0.930 . S
H1091 C1083 0.929 . S
H1092 C1100 0.929 . S
H1093 C1102 0.930 . S
H1094 C1104 0.930 . S
H1095 C1107 0.929 . S
H1096 C1110 0.930 . S
H1097 C1112 0.960 . S
H1098 C1112 0.960 . S
H1099 C1112 0.960 . S
C1100 H1092 0.929 . S
C1100 C1101 1.377 . S
C1100 C1102 1.384 . S
C1101 C1100 1.377 . S
C1101 C1107 1.390 . S
C1102 H1093 0.930 . S
C1102 C1100 1.384 . S
C1102 C1103 1.372 . S
C1103 C1102 1.372 . S
C1103 C1104 1.400 . S
C1103 C1108 1.490 . S
C1104 H1094 0.930 . S
C1104 C1103 1.400 . S
C1104 C1107 1.386 . S
H1105 C1121 0.930 . S
H1106 C1122 0.931 . S
C1107 H1095 0.929 . S
C1107 C1101 1.390 . S
C1107 C1104 1.386 . S
C1108 C1103 1.490 . S
C1108 C1110 1.395 . S
C1108 C1111 1.403 . S
H1109 C1115 0.930 . S
C1110 H1096 0.930 . S
C1110 C1108 1.395 . S
C1110 C1113 1.403 . S
C1111 C1108 1.403 . S
C1111 C1112 1.524 . S
C1111 C1115 1.400 . S
C1112 H1097 0.960 . S
C1112 H1098 0.960 . S
C1112 H1099 0.960 . S
C1112 C1111 1.524 . S
C1113 C1110 1.403 . S
C1113 C1114 1.392 . S
C1113 C1117 1.495 . S
C1114 C1113 1.392 . S
C1114 C1115 1.385 . S
C1114 C1116 1.478 . S
C1115 H1109 0.930 . S
C1115 C1111 1.400 . S
C1115 C1114 1.385 . S
C1116 C1114 1.478 . S
C1116 C1118 1.381 . S
C1116 C1122 1.383 . S
C1117 C1113 1.495 . S
C1117 H1123 0.959 . S
C1117 H1124 0.961 . S
C1117 H1125 0.960 . S
C1118 C1116 1.381 . S
C1118 C1119 1.394 . S
C1118 H1126 0.930 . S
C1119 C1118 1.394 . S
C1119 C1120 1.383 . S
C1119 H1127 0.929 . S
C1120 C1119 1.383 . S
C1120 C1121 1.377 . S
C1121 H1105 0.930 . S
C1121 C1120 1.377 . S
C1121 C1122 1.379 . S
C1122 H1106 0.931 . S
C1122 C1116 1.383 . S
C1122 C1121 1.379 . S
H1123 C1117 0.959 . S
H1124 C1117 0.961 . S
H1125 C1117 0.960 . S
H1126 C1118 0.930 . S
H1127 C1119 0.929 . S
H1128 C1136 0.929 . S
H1129 C1138 0.930 . S
H1130 C1140 0.930 . S
H1131 C1143 0.929 . S
H1132 C1146 0.930 . S
H1133 C1148 0.960 . S
H1134 C1148 0.960 . S
H1135 C1148 0.960 . S
C1136 H1128 0.929 . S
C1136 C1137 1.377 . S
C1136 C1138 1.384 . S
C1137 C1136 1.377 . S
C1137 C1143 1.390 . S
C1138 H1129 0.930 . S
C1138 C1136 1.384 . S
C1138 C1139 1.372 . S
C1139 C1138 1.372 . S
C1139 C1140 1.400 . S
C1139 C1144 1.490 . S
C1140 H1130 0.930 . S
C1140 C1139 1.400 . S
C1140 C1143 1.386 . S
H1141 C1157 0.930 . S
H1142 C1158 0.931 . S
C1143 H1131 0.929 . S
C1143 C1137 1.390 . S
C1143 C1140 1.386 . S
C1144 C1139 1.490 . S
C1144 C1146 1.395 . S
C1144 C1147 1.403 . S
H1145 C1151 0.930 . S
C1146 H1132 0.930 . S
C1146 C1144 1.395 . S
C1146 C1149 1.403 . S
C1147 C1144 1.403 . S
C1147 C1148 1.524 . S
C1147 C1151 1.400 . S
C1148 H1133 0.960 . S
C1148 H1134 0.960 . S
C1148 H1135 0.960 . S
C1148 C1147 1.524 . S
C1149 C1146 1.403 . S
C1149 C1150 1.392 . S
C1149 C1153 1.495 . S
C1150 C1149 1.392 . S
C1150 C1151 1.385 . S
C1150 C1152 1.478 . S
C1151 H1145 0.930 . S
C1151 C1147 1.400 . S
C1151 C1150 1.385 . S
C1152 C1150 1.478 . S
C1152 C1154 1.381 . S
C1152 C1158 1.383 . S
C1153 C1149 1.495 . S
C1153 H1159 0.959 . S
C1153 H1160 0.961 . S
C1153 H1161 0.960 . S
C1154 C1152 1.381 . S
C1154 C1155 1.394 . S
C1154 H1162 0.930 . S
C1155 C1154 1.394 . S
C1155 C1156 1.383 . S
C1155 H1163 0.929 . S
C1156 C1155 1.383 . S
C1156 C1157 1.377 . S
C1157 H1141 0.930 . S
C1157 C1156 1.377 . S
C1157 C1158 1.379 . S
C1158 H1142 0.931 . S
C1158 C1152 1.383 . S
C1158 C1157 1.379 . S
H1159 C1153 0.959 . S
H1160 C1153 0.961 . S
H1161 C1153 0.960 . S
H1162 C1154 0.930 . S
H1163 C1155 0.929 . S
H1164 C1172 0.929 . S
H1165 C1174 0.930 . S
H1166 C1176 0.930 . S
H1167 C1179 0.929 . S
H1168 C1182 0.930 . S
H1169 C1184 0.960 . S
H1170 C1184 0.960 . S
H1171 C1184 0.960 . S
C1172 H1164 0.929 . S
C1172 C1173 1.377 . S
C1172 C1174 1.384 . S
C1173 C1172 1.377 . S
C1173 C1179 1.390 . S
C1174 H1165 0.930 . S
C1174 C1172 1.384 . S
C1174 C1175 1.372 . S
C1175 C1174 1.372 . S
C1175 C1176 1.400 . S
C1175 C1180 1.490 . S
C1176 H1166 0.930 . S
C1176 C1175 1.400 . S
C1176 C1179 1.386 . S
H1177 C1193 0.930 . S
H1178 C1194 0.931 . S
C1179 H1167 0.929 . S
C1179 C1173 1.390 . S
C1179 C1176 1.386 . S
C1180 C1175 1.490 . S
C1180 C1182 1.395 . S
C1180 C1183 1.403 . S
H1181 C1187 0.930 . S
C1182 H1168 0.930 . S
C1182 C1180 1.395 . S
C1182 C1185 1.403 . S
C1183 C1180 1.403 . S
C1183 C1184 1.524 . S
C1183 C1187 1.400 . S
C1184 H1169 0.960 . S
C1184 H1170 0.960 . S
C1184 H1171 0.960 . S
C1184 C1183 1.524 . S
C1185 C1182 1.403 . S
C1185 C1186 1.392 . S
C1185 C1189 1.495 . S
C1186 C1185 1.392 . S
C1186 C1187 1.385 . S
C1186 C1188 1.478 . S
C1187 H1181 0.930 . S
C1187 C1183 1.400 . S
C1187 C1186 1.385 . S
C1188 C1186 1.478 . S
C1188 C1190 1.381 . S
C1188 C1194 1.383 . S
C1189 C1185 1.495 . S
C1189 H1195 0.959 . S
C1189 H1196 0.961 . S
C1189 H1197 0.960 . S
C1190 C1188 1.381 . S
C1190 C1191 1.394 . S
C1190 H1198 0.930 . S
C1191 C1190 1.394 . S
C1191 C1192 1.383 . S
C1191 H1199 0.929 . S
C1192 C1191 1.383 . S
C1192 C1193 1.377 . S
C1193 H1177 0.930 . S
C1193 C1192 1.377 . S
C1193 C1194 1.379 . S
C1194 H1178 0.931 . S
C1194 C1188 1.383 . S
C1194 C1193 1.379 . S
H1195 C1189 0.959 . S
H1196 C1189 0.961 . S
H1197 C1189 0.960 . S
H1198 C1190 0.930 . S
H1199 C1191 0.929 . S
H1200 C1208 0.929 . S
H1201 C1210 0.930 . S
H1202 C1212 0.930 . S
H1203 C1215 0.929 . S
H1204 C1218 0.930 . S
H1205 C1220 0.960 . S
H1206 C1220 0.960 . S
H1207 C1220 0.960 . S
C1208 H1200 0.929 . S
C1208 C1209 1.377 . S
C1208 C1210 1.384 . S
C1209 C1208 1.377 . S
C1209 C1215 1.390 . S
C1210 H1201 0.930 . S
C1210 C1208 1.384 . S
C1210 C1211 1.372 . S
C1211 C1210 1.372 . S
C1211 C1212 1.400 . S
C1211 C1216 1.490 . S
C1212 H1202 0.930 . S
C1212 C1211 1.400 . S
C1212 C1215 1.386 . S
H1213 C1229 0.930 . S
H1214 C1230 0.931 . S
C1215 H1203 0.929 . S
C1215 C1209 1.390 . S
C1215 C1212 1.386 . S
C1216 C1211 1.490 . S
C1216 C1218 1.395 . S
C1216 C1219 1.403 . S
H1217 C1223 0.930 . S
C1218 H1204 0.930 . S
C1218 C1216 1.395 . S
C1218 C1221 1.403 . S
C1219 C1216 1.403 . S
C1219 C1220 1.524 . S
C1219 C1223 1.400 . S
C1220 H1205 0.960 . S
C1220 H1206 0.960 . S
C1220 H1207 0.960 . S
C1220 C1219 1.524 . S
C1221 C1218 1.403 . S
C1221 C1222 1.392 . S
C1221 C1225 1.495 . S
C1222 C1221 1.392 . S
C1222 C1223 1.385 . S
C1222 C1224 1.478 . S
C1223 H1217 0.930 . S
C1223 C1219 1.400 . S
C1223 C1222 1.385 . S
C1224 C1222 1.478 . S
C1224 C1226 1.381 . S
C1224 C1230 1.383 . S
C1225 C1221 1.495 . S
C1225 H1231 0.959 . S
C1225 H1232 0.961 . S
C1225 H1233 0.960 . S
C1226 C1224 1.381 . S
C1226 C1227 1.394 . S
C1226 H1234 0.930 . S
C1227 C1226 1.394 . S
C1227 C1228 1.383 . S
C1227 H1235 0.929 . S
C1228 C1227 1.383 . S
C1228 C1229 1.377 . S
C1229 H1213 0.930 . S
C1229 C1228 1.377 . S
C1229 C1230 1.379 . S
C1230 H1214 0.931 . S
C1230 C1224 1.383 . S
C1230 C1229 1.379 . S
H1231 C1225 0.959 . S
H1232 C1225 0.961 . S
H1233 C1225 0.960 . S
H1234 C1226 0.930 . S
H1235 C1227 0.929 . S
H1236 C1244 0.929 . S
H1237 C1246 0.930 . S
H1238 C1248 0.930 . S
H1239 C1251 0.929 . S
H1240 C1254 0.930 . S
H1241 C1256 0.960 . S
H1242 C1256 0.960 . S
H1243 C1256 0.960 . S
C1244 H1236 0.929 . S
C1244 C1245 1.377 . S
C1244 C1246 1.384 . S
C1245 C1244 1.377 . S
C1245 C1251 1.390 . S
C1246 H1237 0.930 . S
C1246 C1244 1.384 . S
C1246 C1247 1.372 . S
C1247 C1246 1.372 . S
C1247 C1248 1.400 . S
C1247 C1252 1.490 . S
C1248 H1238 0.930 . S
C1248 C1247 1.400 . S
C1248 C1251 1.386 . S
H1249 C1265 0.930 . S
H1250 C1266 0.931 . S
C1251 H1239 0.929 . S
C1251 C1245 1.390 . S
C1251 C1248 1.386 . S
C1252 C1247 1.490 . S
C1252 C1254 1.395 . S
C1252 C1255 1.403 . S
H1253 C1259 0.930 . S
C1254 H1240 0.930 . S
C1254 C1252 1.395 . S
C1254 C1257 1.403 . S
C1255 C1252 1.403 . S
C1255 C1256 1.524 . S
C1255 C1259 1.400 . S
C1256 H1241 0.960 . S
C1256 H1242 0.960 . S
C1256 H1243 0.960 . S
C1256 C1255 1.524 . S
C1257 C1254 1.403 . S
C1257 C1258 1.392 . S
C1257 C1261 1.495 . S
C1258 C1257 1.392 . S
C1258 C1259 1.385 . S
C1258 C1260 1.478 . S
C1259 H1253 0.930 . S
C1259 C1255 1.400 . S
C1259 C1258 1.385 . S
C1260 C1258 1.478 . S
C1260 C1262 1.381 . S
C1260 C1266 1.383 . S
C1261 C1257 1.495 . S
C1261 H1267 0.959 . S
C1261 H1268 0.961 . S
C1261 H1269 0.960 . S
C1262 C1260 1.381 . S
C1262 C1263 1.394 . S
C1262 H1270 0.930 . S
C1263 C1262 1.394 . S
C1263 C1264 1.383 . S
C1263 H1271 0.929 . S
C1264 C1263 1.383 . S
C1264 C1265 1.377 . S
C1265 H1249 0.930 . S
C1265 C1264 1.377 . S
C1265 C1266 1.379 . S
C1266 H1250 0.931 . S
C1266 C1260 1.383 . S
C1266 C1265 1.379 . S
H1267 C1261 0.959 . S
H1268 C1261 0.961 . S
H1269 C1261 0.960 . S
H1270 C1262 0.930 . S
H1271 C1263 0.929 . S
H1272 C1280 0.929 . S
H1273 C1282 0.930 . S
H1274 C1284 0.930 . S
H1275 C1287 0.929 . S
H1276 C1290 0.930 . S
H1277 C1292 0.960 . S
H1278 C1292 0.960 . S
H1279 C1292 0.960 . S
C1280 H1272 0.929 . S
C1280 C1281 1.377 . S
C1280 C1282 1.384 . S
C1281 C1280 1.377 . S
C1281 C1287 1.390 . S
C1282 H1273 0.930 . S
C1282 C1280 1.384 . S
C1282 C1283 1.372 . S
C1283 C1282 1.372 . S
C1283 C1284 1.400 . S
C1283 C1288 1.490 . S
C1284 H1274 0.930 . S
C1284 C1283 1.400 . S
C1284 C1287 1.386 . S
H1285 C1301 0.930 . S
H1286 C1302 0.931 . S
C1287 H1275 0.929 . S
C1287 C1281 1.390 . S
C1287 C1284 1.386 . S
C1288 C1283 1.490 . S
C1288 C1290 1.395 . S
C1288 C1291 1.403 . S
H1289 C1295 0.930 . S
C1290 H1276 0.930 . S
C1290 C1288 1.395 . S
C1290 C1293 1.403 . S
C1291 C1288 1.403 . S
C1291 C1292 1.524 . S
C1291 C1295 1.400 . S
C1292 H1277 0.960 . S
C1292 H1278 0.960 . S
C1292 H1279 0.960 . S
C1292 C1291 1.524 . S
C1293 C1290 1.403 . S
C1293 C1294 1.392 . S
C1293 C1297 1.495 . S
C1294 C1293 1.392 . S
C1294 C1295 1.385 . S
C1294 C1296 1.478 . S
C1295 H1289 0.930 . S
C1295 C1291 1.400 . S
C1295 C1294 1.385 . S
C1296 C1294 1.478 . S
C1296 C1298 1.381 . S
C1296 C1302 1.383 . S
C1297 C1293 1.495 . S
C1297 H1303 0.959 . S
C1297 H1304 0.961 . S
C1297 H1305 0.960 . S
C1298 C1296 1.381 . S
C1298 C1299 1.394 . S
C1298 H1306 0.930 . S
C1299 C1298 1.394 . S
C1299 C1300 1.383 . S
C1299 H1307 0.929 . S
C1300 C1299 1.383 . S
C1300 C1301 1.377 . S
C1301 H1285 0.930 . S
C1301 C1300 1.377 . S
C1301 C1302 1.379 . S
C1302 H1286 0.931 . S
C1302 C1296 1.383 . S
C1302 C1301 1.379 . S
H1303 C1297 0.959 . S
H1304 C1297 0.961 . S
H1305 C1297 0.960 . S
H1306 C1298 0.930 . S
H1307 C1299 0.929 . S
H1308 C1316 0.929 . S
H1309 C1318 0.930 . S
H1310 C1320 0.930 . S
H1311 C1323 0.929 . S
H1312 C1326 0.930 . S
H1313 C1328 0.960 . S
H1314 C1328 0.960 . S
H1315 C1328 0.960 . S
C1316 H1308 0.929 . S
C1316 C1317 1.377 . S
C1316 C1318 1.384 . S
C1317 C1316 1.377 . S
C1317 C1323 1.390 . S
C1318 H1309 0.930 . S
C1318 C1316 1.384 . S
C1318 C1319 1.372 . S
C1319 C1318 1.372 . S
C1319 C1320 1.400 . S
C1319 C1324 1.490 . S
C1320 H1310 0.930 . S
C1320 C1319 1.400 . S
C1320 C1323 1.386 . S
H1321 C1337 0.930 . S
H1322 C1338 0.931 . S
C1323 H1311 0.929 . S
C1323 C1317 1.390 . S
C1323 C1320 1.386 . S
C1324 C1319 1.490 . S
C1324 C1326 1.395 . S
C1324 C1327 1.403 . S
H1325 C1331 0.930 . S
C1326 H1312 0.930 . S
C1326 C1324 1.395 . S
C1326 C1329 1.403 . S
C1327 C1324 1.403 . S
C1327 C1328 1.524 . S
C1327 C1331 1.400 . S
C1328 H1313 0.960 . S
C1328 H1314 0.960 . S
C1328 H1315 0.960 . S
C1328 C1327 1.524 . S
C1329 C1326 1.403 . S
C1329 C1330 1.392 . S
C1329 C1333 1.495 . S
C1330 C1329 1.392 . S
C1330 C1331 1.385 . S
C1330 C1332 1.478 . S
C1331 H1325 0.930 . S
C1331 C1327 1.400 . S
C1331 C1330 1.385 . S
C1332 C1330 1.478 . S
C1332 C1334 1.381 . S
C1332 C1338 1.383 . S
C1333 C1329 1.495 . S
C1333 H1339 0.959 . S
C1333 H1340 0.961 . S
C1333 H1341 0.960 . S
C1334 C1332 1.381 . S
C1334 C1335 1.394 . S
C1334 H1342 0.930 . S
C1335 C1334 1.394 . S
C1335 C1336 1.383 . S
C1335 H1343 0.929 . S
C1336 C1335 1.383 . S
C1336 C1337 1.377 . S
C1337 H1321 0.930 . S
C1337 C1336 1.377 . S
C1337 C1338 1.379 . S
C1338 H1322 0.931 . S
C1338 C1332 1.383 . S
C1338 C1337 1.379 . S
H1339 C1333 0.959 . S
H1340 C1333 0.961 . S
H1341 C1333 0.960 . S
H1342 C1334 0.930 . S
H1343 C1335 0.929 . S
H1344 C1352 0.929 . S
H1345 C1354 0.930 . S
H1346 C1356 0.930 . S
H1347 C1359 0.929 1_556 S
H1348 C1362 0.930 . S
H1349 C1364 0.960 . S
H1350 C1364 0.960 . S
H1351 C1364 0.960 . S
C1352 H1344 0.929 . S
C1352 C1353 1.377 . S
C1352 C1354 1.384 . S
C1353 C1352 1.377 . S
C1353 C1359 1.390 . S
C1354 H1345 0.930 . S
C1354 C1352 1.384 . S
C1354 C1355 1.372 . S
C1355 C1354 1.372 . S
C1355 C1356 1.400 . S
C1355 C1360 1.490 . S
C1356 H1346 0.930 . S
C1356 C1355 1.400 . S
C1356 C1359 1.386 . S
H1357 C1373 0.930 . S
H1358 C1374 0.931 . S
C1359 H1347 0.929 1_554 S
C1359 C1353 1.390 . S
C1359 C1356 1.386 . S
C1360 C1355 1.490 . S
C1360 C1362 1.395 . S
C1360 C1363 1.403 . S
H1361 C1367 0.930 . S
C1362 H1348 0.930 . S
C1362 C1360 1.395 . S
C1362 C1365 1.403 . S
C1363 C1360 1.403 . S
C1363 C1364 1.524 . S
C1363 C1367 1.400 . S
C1364 H1349 0.960 . S
C1364 H1350 0.960 . S
C1364 H1351 0.960 . S
C1364 C1363 1.524 . S
C1365 C1362 1.403 . S
C1365 C1366 1.392 . S
C1365 C1369 1.495 . S
C1366 C1365 1.392 . S
C1366 C1367 1.385 . S
C1366 C1368 1.478 . S
C1367 H1361 0.930 . S
C1367 C1363 1.400 . S
C1367 C1366 1.385 . S
C1368 C1366 1.478 . S
C1368 C1370 1.381 . S
C1368 C1374 1.383 . S
C1369 C1365 1.495 . S
C1369 H1375 0.959 . S
C1369 H1376 0.961 . S
C1369 H1377 0.960 . S
C1370 C1368 1.381 . S
C1370 C1371 1.394 . S
C1370 H1378 0.930 . S
C1371 C1370 1.394 . S
C1371 C1372 1.383 . S
C1371 H1379 0.929 . S
C1372 C1371 1.383 . S
C1372 C1373 1.377 . S
C1373 H1357 0.930 . S
C1373 C1372 1.377 . S
C1373 C1374 1.379 . S
C1374 H1358 0.931 . S
C1374 C1368 1.383 . S
C1374 C1373 1.379 . S
H1375 C1369 0.959 . S
H1376 C1369 0.961 . S
H1377 C1369 0.960 . S
H1378 C1370 0.930 . S
H1379 C1371 0.929 . S
H1380 C1388 0.929 . S
H1381 C1390 0.930 . S
H1382 C1392 0.930 . S
H1383 C1395 0.929 . S
H1384 C1398 0.930 . S
H1385 C1400 0.960 . S
H1386 C1400 0.960 . S
H1387 C1400 0.960 . S
C1388 H1380 0.929 . S
C1388 C1389 1.377 . S
C1388 C1390 1.384 . S
C1389 C1388 1.377 . S
C1389 C1395 1.390 . S
C1390 H1381 0.930 . S
C1390 C1388 1.384 . S
C1390 C1391 1.372 . S
C1391 C1390 1.372 . S
C1391 C1392 1.400 . S
C1391 C1396 1.490 . S
C1392 H1382 0.930 . S
C1392 C1391 1.400 . S
C1392 C1395 1.386 . S
H1393 C1409 0.930 . S
H1394 C1410 0.931 . S
C1395 H1383 0.929 . S
C1395 C1389 1.390 . S
C1395 C1392 1.386 . S
C1396 C1391 1.490 . S
C1396 C1398 1.395 . S
C1396 C1399 1.403 . S
H1397 C1403 0.930 . S
C1398 H1384 0.930 . S
C1398 C1396 1.395 . S
C1398 C1401 1.403 . S
C1399 C1396 1.403 . S
C1399 C1400 1.524 . S
C1399 C1403 1.400 . S
C1400 H1385 0.960 . S
C1400 H1386 0.960 . S
C1400 H1387 0.960 . S
C1400 C1399 1.524 . S
C1401 C1398 1.403 . S
C1401 C1402 1.392 . S
C1401 C1405 1.495 . S
C1402 C1401 1.392 . S
C1402 C1403 1.385 . S
C1402 C1404 1.478 . S
C1403 H1397 0.930 . S
C1403 C1399 1.400 . S
C1403 C1402 1.385 . S
C1404 C1402 1.478 . S
C1404 C1406 1.381 . S
C1404 C1410 1.383 . S
C1405 C1401 1.495 . S
C1405 H1411 0.959 . S
C1405 H1412 0.961 . S
C1405 H1413 0.960 . S
C1406 C1404 1.381 . S
C1406 C1407 1.394 . S
C1406 H1414 0.930 . S
C1407 C1406 1.394 . S
C1407 C1408 1.383 . S
C1407 H1415 0.929 . S
C1408 C1407 1.383 . S
C1408 C1409 1.377 . S
C1409 H1393 0.930 . S
C1409 C1408 1.377 . S
C1409 C1410 1.379 . S
C1410 H1394 0.931 . S
C1410 C1404 1.383 . S
C1410 C1409 1.379 . S
H1411 C1405 0.959 . S
H1412 C1405 0.961 . S
H1413 C1405 0.960 . S
H1414 C1406 0.930 . S
H1415 C1407 0.929 . S
H1416 C1424 0.929 . S
H1417 C1426 0.930 . S
H1418 C1428 0.930 . S
H1419 C1431 0.929 . S
H1420 C1434 0.930 . S
H1421 C1436 0.960 . S
H1422 C1436 0.960 . S
H1423 C1436 0.960 . S
C1424 H1416 0.929 . S
C1424 C1425 1.377 . S
C1424 C1426 1.384 . S
C1425 C1424 1.377 . S
C1425 C1431 1.390 . S
C1426 H1417 0.930 . S
C1426 C1424 1.384 . S
C1426 C1427 1.372 . S
C1427 C1426 1.372 . S
C1427 C1428 1.400 . S
C1427 C1432 1.490 . S
C1428 H1418 0.930 . S
C1428 C1427 1.400 . S
C1428 C1431 1.386 . S
H1429 C1445 0.930 . S
H1430 C1446 0.931 . S
C1431 H1419 0.929 . S
C1431 C1425 1.390 . S
C1431 C1428 1.386 . S
C1432 C1427 1.490 . S
C1432 C1434 1.395 . S
C1432 C1435 1.403 . S
H1433 C1439 0.930 . S
C1434 H1420 0.930 . S
C1434 C1432 1.395 . S
C1434 C1437 1.403 . S
C1435 C1432 1.403 . S
C1435 C1436 1.524 . S
C1435 C1439 1.400 . S
C1436 H1421 0.960 . S
C1436 H1422 0.960 . S
C1436 H1423 0.960 . S
C1436 C1435 1.524 . S
C1437 C1434 1.403 . S
C1437 C1438 1.392 . S
C1437 C1441 1.495 . S
C1438 C1437 1.392 . S
C1438 C1439 1.385 . S
C1438 C1440 1.478 . S
C1439 H1433 0.930 . S
C1439 C1435 1.400 . S
C1439 C1438 1.385 . S
C1440 C1438 1.478 . S
C1440 C1442 1.381 . S
C1440 C1446 1.383 . S
C1441 C1437 1.495 . S
C1441 H1447 0.959 . S
C1441 H1448 0.961 . S
C1441 H1449 0.960 . S
C1442 C1440 1.381 . S
C1442 C1443 1.394 . S
C1442 H1450 0.930 . S
C1443 C1442 1.394 . S
C1443 C1444 1.383 . S
C1443 H1451 0.929 . S
C1444 C1443 1.383 . S
C1444 C1445 1.377 . S
C1445 H1429 0.930 . S
C1445 C1444 1.377 . S
C1445 C1446 1.379 . S
C1446 H1430 0.931 . S
C1446 C1440 1.383 . S
C1446 C1445 1.379 . S
H1447 C1441 0.959 . S
H1448 C1441 0.961 . S
H1449 C1441 0.960 . S
H1450 C1442 0.930 . S
H1451 C1443 0.929 . S
H1452 C1460 0.929 . S
H1453 C1462 0.930 . S
H1454 C1464 0.930 . S
H1455 C1467 0.929 1_565 S
H1456 C1470 0.930 . S
H1457 C1472 0.960 . S
H1458 C1472 0.960 . S
H1459 C1472 0.960 . S
C1460 H1452 0.929 . S
C1460 C1461 1.377 . S
C1460 C1462 1.384 . S
C1461 C1460 1.377 . S
C1461 C1467 1.390 . S
C1462 H1453 0.930 . S
C1462 C1460 1.384 . S
C1462 C1463 1.372 . S
C1463 C1462 1.372 . S
C1463 C1464 1.400 . S
C1463 C1468 1.490 . S
C1464 H1454 0.930 . S
C1464 C1463 1.400 . S
C1464 C1467 1.386 . S
H1465 C1481 0.930 . S
H1466 C1482 0.931 . S
C1467 H1455 0.929 1_545 S
C1467 C1461 1.390 . S
C1467 C1464 1.386 . S
C1468 C1463 1.490 . S
C1468 C1470 1.395 . S
C1468 C1471 1.403 . S
H1469 C1475 0.930 . S
C1470 H1456 0.930 . S
C1470 C1468 1.395 . S
C1470 C1473 1.403 . S
C1471 C1468 1.403 . S
C1471 C1472 1.524 . S
C1471 C1475 1.400 . S
C1472 H1457 0.960 . S
C1472 H1458 0.960 . S
C1472 H1459 0.960 . S
C1472 C1471 1.524 . S
C1473 C1470 1.403 . S
C1473 C1474 1.392 . S
C1473 C1477 1.495 . S
C1474 C1473 1.392 . S
C1474 C1475 1.385 . S
C1474 C1476 1.478 . S
C1475 H1469 0.930 . S
C1475 C1471 1.400 . S
C1475 C1474 1.385 . S
C1476 C1474 1.478 . S
C1476 C1478 1.381 . S
C1476 C1482 1.383 . S
C1477 C1473 1.495 . S
C1477 H1483 0.959 . S
C1477 H1484 0.961 . S
C1477 H1485 0.960 . S
C1478 C1476 1.381 . S
C1478 C1479 1.394 . S
C1478 H1486 0.930 . S
C1479 C1478 1.394 . S
C1479 C1480 1.383 . S
C1479 H1487 0.929 . S
C1480 C1479 1.383 . S
C1480 C1481 1.377 . S
C1481 H1465 0.930 . S
C1481 C1480 1.377 . S
C1481 C1482 1.379 . S
C1482 H1466 0.931 . S
C1482 C1476 1.383 . S
C1482 C1481 1.379 . S
H1483 C1477 0.959 . S
H1484 C1477 0.961 . S
H1485 C1477 0.960 . S
H1486 C1478 0.930 . S
H1487 C1479 0.929 . S
C417 C339 0.265 . S
C436 C33 0.523 . S
C453 C67 0.728 . S
C472 C373 0.702 . S
C489 C407 0.494 . S
C508 C101 0.305 . S
C525 C135 0.466 . S
C544 C237 0.296 . S
C561 C169 0.529 . S
C580 C271 0.473 . S
C597 C305 0.430 . S
C616 C203 0.280 . S
C633 C9 1.098 . S
C652 C138 1.106 . S
C669 C172 1.535 . S
C688 C43 1.466 . S
C705 C77 1.395 . S
C724 C2 1.441 . S
C741 C111 1.176 . S
C760 C36 1.156 . S
C777 C70 1.386 . S
C796 C145 1.358 . S
C813 C104 1.458 . S
C832 C179 1.386 . S
C849 C274 1.458 . S
C868 C213 1.399 . S
C885 C247 1.348 . S
C904 C308 1.373 . S
C921 C342 1.160 . S
C940 C281 1.159 . S
C957 C376 1.445 . S
C976 C315 1.359 . S
C993 C206 1.530 . S
C1012 C349 1.484 . S
C1029 C383 1.102 . S
C1048 C240 1.064 . S
C1065 C360 1.092 . S
C1084 C20 1.087 . S
C1101 C394 1.065 . S
C1120 C54 1.122 . S
C1137 C88 0.882 . S
C1156 C224 0.915 . S
C1173 C122 1.004 . S
C1192 C258 1.006 . S
C1209 C292 0.995 . S
C1228 C156 1.007 . S
C1245 C190 0.884 . S
C1264 C326 0.911 . S
C1281 C209 0.834 . S
C1300 C5 0.783 . S
C1317 C243 0.728 . S
C1336 C39 0.657 . S
C1353 C73 0.824 . S
C1372 C277 0.877 . S
C1389 C311 0.827 . S
C1408 C107 0.760 . S
C1425 C141 0.701 . S
C1444 C345 0.708 . S
C1461 C379 0.798 . S
C1480 C175 0.806 . S
