# Generated by pormake.
# Topology pcl, (4)-cn, num edge types: 1
# Building blocks:
#     Node 0, Type 0, BuildingBlock: QUQFOY_clean_sbu_3, # of connection points: 4
#     Node 1, Type 0, BuildingBlock: QUQFOY_clean_sbu_3, # of connection points: 4
#     Node 2, Type 0, BuildingBlock: QUQFOY_clean_sbu_3, # of connection points: 4
#     Node 3, Type 0, BuildingBlock: QUQFOY_clean_sbu_3, # of connection points: 4
#     Node 4, Type 0, BuildingBlock: QUQFOY_clean_sbu_3, # of connection points: 4
#     Node 5, Type 0, BuildingBlock: QUQFOY_clean_sbu_3, # of connection points: 4
#     Node 6, Type 0, BuildingBlock: QUQFOY_clean_sbu_3, # of connection points: 4
#     Node 7, Type 0, BuildingBlock: QUQFOY_clean_sbu_3, # of connection points: 4
#     Node 8, Type 0, BuildingBlock: QUQFOY_clean_sbu_3, # of connection points: 4
#     Node 9, Type 0, BuildingBlock: QUQFOY_clean_sbu_3, # of connection points: 4
#     Node 10, Type 0, BuildingBlock: QUQFOY_clean_sbu_3, # of connection points: 4
#     Node 11, Type 0, BuildingBlock: QUQFOY_clean_sbu_3, # of connection points: 4
#     Node 12, Type 0, BuildingBlock: QUQFOY_clean_sbu_3, # of connection points: 4
#     Node 13, Type 0, BuildingBlock: QUQFOY_clean_sbu_3, # of connection points: 4
#     Node 14, Type 0, BuildingBlock: QUQFOY_clean_sbu_3, # of connection points: 4
#     Node 15, Type 0, BuildingBlock: QUQFOY_clean_sbu_3, # of connection points: 4
#     Edge 16, Type (0, 0), BuildingBlock: XIVTED_clean_linker_0, # of connection points: 2
#     Edge 17, Type (0, 0), BuildingBlock: XIVTED_clean_linker_0, # of connection points: 2
#     Edge 18, Type (0, 0), BuildingBlock: XIVTED_clean_linker_0, # of connection points: 2
#     Edge 19, Type (0, 0), BuildingBlock: XIVTED_clean_linker_0, # of connection points: 2
#     Edge 20, Type (0, 0), BuildingBlock: XIVTED_clean_linker_0, # of connection points: 2
#     Edge 21, Type (0, 0), BuildingBlock: XIVTED_clean_linker_0, # of connection points: 2
#     Edge 22, Type (0, 0), BuildingBlock: XIVTED_clean_linker_0, # of connection points: 2
#     Edge 23, Type (0, 0), BuildingBlock: XIVTED_clean_linker_0, # of connection points: 2
#     Edge 24, Type (0, 0), BuildingBlock: XIVTED_clean_linker_0, # of connection points: 2
#     Edge 25, Type (0, 0), BuildingBlock: XIVTED_clean_linker_0, # of connection points: 2
#     Edge 26, Type (0, 0), BuildingBlock: XIVTED_clean_linker_0, # of connection points: 2
#     Edge 27, Type (0, 0), BuildingBlock: XIVTED_clean_linker_0, # of connection points: 2
#     Edge 28, Type (0, 0), BuildingBlock: XIVTED_clean_linker_0, # of connection points: 2
#     Edge 29, Type (0, 0), BuildingBlock: XIVTED_clean_linker_0, # of connection points: 2
#     Edge 30, Type (0, 0), BuildingBlock: XIVTED_clean_linker_0, # of connection points: 2
#     Edge 31, Type (0, 0), BuildingBlock: XIVTED_clean_linker_0, # of connection points: 2
#     Edge 32, Type (0, 0), BuildingBlock: XIVTED_clean_linker_0, # of connection points: 2
#     Edge 33, Type (0, 0), BuildingBlock: XIVTED_clean_linker_0, # of connection points: 2
#     Edge 34, Type (0, 0), BuildingBlock: XIVTED_clean_linker_0, # of connection points: 2
#     Edge 35, Type (0, 0), BuildingBlock: XIVTED_clean_linker_0, # of connection points: 2
#     Edge 36, Type (0, 0), BuildingBlock: XIVTED_clean_linker_0, # of connection points: 2
#     Edge 37, Type (0, 0), BuildingBlock: XIVTED_clean_linker_0, # of connection points: 2
#     Edge 38, Type (0, 0), BuildingBlock: XIVTED_clean_linker_0, # of connection points: 2
#     Edge 39, Type (0, 0), BuildingBlock: XIVTED_clean_linker_0, # of connection points: 2
#     Edge 40, Type (0, 0), BuildingBlock: XIVTED_clean_linker_0, # of connection points: 2
#     Edge 41, Type (0, 0), BuildingBlock: XIVTED_clean_linker_0, # of connection points: 2
#     Edge 42, Type (0, 0), BuildingBlock: XIVTED_clean_linker_0, # of connection points: 2
#     Edge 43, Type (0, 0), BuildingBlock: XIVTED_clean_linker_0, # of connection points: 2
#     Edge 44, Type (0, 0), BuildingBlock: XIVTED_clean_linker_0, # of connection points: 2
#     Edge 45, Type (0, 0), BuildingBlock: XIVTED_clean_linker_0, # of connection points: 2
#     Edge 46, Type (0, 0), BuildingBlock: XIVTED_clean_linker_0, # of connection points: 2
#     Edge 47, Type (0, 0), BuildingBlock: XIVTED_clean_linker_0, # of connection points: 2
# Relax obj value: 0.063
# Max RMSD: 0.050
# Mean RMSD: 0.047
data_MOF--net-pcl--node1-QUQFOY_clean_sbu_3--edge1-XIVTED_clean_linker_0
_symmetry_space_group_name_H-M    P1
_symmetry_Int_Tables_number       1
_symmetry_cell_setting            triclinic
loop_
_symmetry_equiv_pos_as_xyz
'x, y, z'
_cell_length_a     54.729054
_cell_length_b     43.417704
_cell_length_c     45.139131
_cell_angle_alpha  90.096827
_cell_angle_beta   89.874264
_cell_angle_gamma 90.161647
loop_
_atom_site_label
_atom_site_type_symbol
_atom_site_fract_x
_atom_site_fract_y
_atom_site_fract_z
_atom_type_partial_charge
C0 C 0.11982 0.40524 0.06038 0.0
O1 O 0.12086 0.40765 0.08838 0.0
Cd2 Cd 0.12271 0.36353 0.11971 0.0
O3 O 0.1219 0.37906 0.04779 0.0
Cd4 Cd 0.13017 0.32426 0.05955 0.0
C5 C 0.074 0.32226 0.08911 0.0
O6 O 0.15552 0.33338 0.10161 0.0
O7 O 0.14114 0.28736 0.09924 0.0
O8 O 0.16287 0.32825 0.02414 0.0
C9 C 0.15501 0.30649 0.11227 0.0
O10 O 0.08386 0.33748 0.11014 0.0
C11 C 0.15842 0.30315 0.0108 0.0
O12 O 0.08619 0.31509 0.066 0.0
O13 O 0.13957 0.28818 0.01907 0.0
C14 C 0.84556 0.57439 0.5673 0.0
O15 O 0.84758 0.57061 0.59507 0.0
Cd16 Cd 0.85774 0.6133 0.62645 0.0
O17 O 0.84652 0.60126 0.55608 0.0
Cd18 Cd 0.84902 0.6567 0.5675 0.0
C19 C 0.90727 0.64221 0.58503 0.0
O20 O 0.83064 0.65415 0.61542 0.0
O21 O 0.85086 0.69582 0.60683 0.0
O22 O 0.81124 0.65814 0.54116 0.0
C23 C 0.83784 0.68019 0.62461 0.0
O24 O 0.89771 0.62852 0.60722 0.0
C25 C 0.81651 0.6806 0.52442 0.0
O26 O 0.89394 0.65433 0.56501 0.0
O27 O 0.83779 0.69226 0.52706 0.0
C28 C 0.10462 0.58874 0.92845 0.0
O29 O 0.09422 0.5863 0.90343 0.0
Cd30 Cd 0.09745 0.62473 0.86606 0.0
O31 O 0.11709 0.61268 0.93491 0.0
Cd32 Cd 0.12925 0.66212 0.91148 0.0
C33 C 0.07102 0.68471 0.9037 0.0
O34 O 0.14019 0.63574 0.86672 0.0
O35 O 0.13985 0.68497 0.86241 0.0
O36 O 0.16422 0.65523 0.94422 0.0
C37 C 0.14515 0.65904 0.85119 0.0
O38 O 0.07052 0.66661 0.8815 0.0
C39 C 0.16911 0.68372 0.9462 0.0
O40 O 0.08965 0.68605 0.92046 0.0
O41 O 0.15496 0.70222 0.93293 0.0
C42 C 0.83818 0.39782 0.42465 0.0
O43 O 0.838 0.40389 0.39714 0.0
Cd44 Cd 0.84012 0.36657 0.35882 0.0
O45 O 0.83866 0.37002 0.43379 0.0
Cd46 Cd 0.83801 0.31629 0.41398 0.0
C47 C 0.89303 0.32921 0.38268 0.0
O48 O 0.81104 0.32998 0.37483 0.0
O49 O 0.82596 0.28476 0.37019 0.0
O50 O 0.81172 0.30965 0.4566 0.0
C51 C 0.81211 0.30545 0.35987 0.0
O52 O 0.8814 0.34606 0.36442 0.0
C53 C 0.81681 0.28151 0.46069 0.0
O54 O 0.88207 0.31623 0.40431 0.0
O55 O 0.83288 0.26965 0.44385 0.0
C56 C 0.8598 0.6509 0.83826 0.0
O57 O 0.87489 0.62956 0.84395 0.0
Cd58 Cd 0.87979 0.60714 0.89233 0.0
O59 O 0.84696 0.66299 0.85866 0.0
Cd60 Cd 0.84292 0.65942 0.91247 0.0
C61 C 0.90312 0.67081 0.92576 0.0
O62 O 0.84017 0.60377 0.91398 0.0
O63 O 0.84259 0.62651 0.95648 0.0
O64 O 0.79976 0.67075 0.90661 0.0
C65 C 0.83961 0.60174 0.94196 0.0
O66 O 0.90585 0.64246 0.91945 0.0
C67 C 0.80004 0.69444 0.92308 0.0
O68 O 0.88265 0.68417 0.92221 0.0
O69 O 0.82039 0.70203 0.93449 0.0
C70 C 0.14556 0.34518 0.32014 0.0
O71 O 0.14067 0.37369 0.32145 0.0
Cd72 Cd 0.12265 0.39658 0.36371 0.0
O73 O 0.14276 0.32788 0.34266 0.0
Cd74 Cd 0.13321 0.33371 0.39628 0.0
C75 C 0.075 0.34524 0.37899 0.0
O76 O 0.1509 0.38469 0.40185 0.0
O77 O 0.12673 0.37048 0.43698 0.0
O78 O 0.16891 0.30137 0.39798 0.0
C79 C 0.1419 0.39005 0.42713 0.0
O80 O 0.08281 0.37128 0.36995 0.0
C81 C 0.16306 0.28722 0.42147 0.0
O82 O 0.08967 0.32522 0.38925 0.0
O83 O 0.1426 0.29386 0.43316 0.0
C84 C 0.82755 0.35815 0.15117 0.0
O85 O 0.83554 0.38551 0.14872 0.0
Cd86 Cd 0.8546 0.4042 0.10486 0.0
O87 O 0.82719 0.33997 0.12899 0.0
Cd88 Cd 0.83432 0.34069 0.07474 0.0
C89 C 0.8945 0.34353 0.0893 0.0
O90 O 0.82511 0.39419 0.06783 0.0
O91 O 0.84058 0.3718 0.02955 0.0
O92 O 0.79287 0.32247 0.07293 0.0
C93 C 0.83184 0.39606 0.04108 0.0
O94 O 0.88997 0.37066 0.0986 0.0
C95 C 0.79689 0.29939 0.05643 0.0
O96 O 0.87757 0.32629 0.07915 0.0
O97 O 0.81891 0.29483 0.04845 0.0
C98 C 0.15254 0.61724 0.63573 0.0
O99 O 0.14957 0.58921 0.62853 0.0
Cd100 Cd 0.13692 0.57454 0.58008 0.0
O101 O 0.15159 0.63839 0.61627 0.0
Cd102 Cd 0.14883 0.64474 0.56194 0.0
C103 C 0.08969 0.62791 0.56985 0.0
O104 O 0.16547 0.59597 0.54652 0.0
O105 O 0.14416 0.61946 0.51352 0.0
O106 O 0.18806 0.66833 0.5675 0.0
C107 C 0.15743 0.59663 0.52028 0.0
O108 O 0.09785 0.60084 0.57435 0.0
C109 C 0.18354 0.69255 0.55291 0.0
O110 O 0.10424 0.65048 0.56544 0.0
O111 O 0.162 0.69539 0.54263 0.0
C112 C 0.62771 0.90779 0.05622 0.0
O113 O 0.62739 0.91279 0.08394 0.0
Cd114 Cd 0.62754 0.87246 0.11964 0.0
O115 O 0.6294 0.88044 0.04609 0.0
Cd116 Cd 0.63445 0.8263 0.06248 0.0
C117 C 0.5781 0.83042 0.09184 0.0
O118 O 0.65956 0.83996 0.10344 0.0
O119 O 0.64711 0.79308 0.10466 0.0
O120 O 0.66473 0.82757 0.02419 0.0
C121 C 0.65981 0.81426 0.11648 0.0
O122 O 0.5881 0.84746 0.11143 0.0
C123 C 0.66042 0.801 0.01376 0.0
O124 O 0.59038 0.82012 0.06994 0.0
O125 O 0.64296 0.78586 0.02546 0.0
C126 C 0.36372 0.09325 0.54513 0.0
O127 O 0.37112 0.08993 0.57157 0.0
Cd128 Cd 0.36672 0.12846 0.60865 0.0
O129 O 0.35344 0.1182 0.53704 0.0
Cd130 Cd 0.34169 0.1684 0.55972 0.0
C131 C 0.40019 0.18547 0.57497 0.0
O132 O 0.32536 0.14393 0.60298 0.0
O133 O 0.33011 0.19278 0.60769 0.0
O134 O 0.30815 0.16445 0.52463 0.0
C135 C 0.32158 0.1679 0.61815 0.0
O136 O 0.39749 0.16756 0.59706 0.0
C137 C 0.30553 0.19329 0.52172 0.0
O138 O 0.38332 0.18847 0.55585 0.0
O139 O 0.32056 0.21055 0.53532 0.0
C140 C 0.62531 0.0858 0.91521 0.0
O141 O 0.62426 0.08181 0.88737 0.0
Cd142 Cd 0.61845 0.12417 0.85417 0.0
O143 O 0.62564 0.11284 0.92619 0.0
Cd144 Cd 0.6271 0.16791 0.91313 0.0
C145 C 0.56906 0.1587 0.89131 0.0
O146 O 0.64732 0.16268 0.86639 0.0
O147 O 0.62918 0.20605 0.87303 0.0
O148 O 0.66381 0.16789 0.94173 0.0
C149 C 0.6419 0.18895 0.85624 0.0
O150 O 0.57881 0.14415 0.86975 0.0
C151 C 0.65889 0.19133 0.95738 0.0
O152 O 0.58205 0.16911 0.9126 0.0
O153 O 0.63821 0.20403 0.95322 0.0
C154 C 0.36034 0.90829 0.41297 0.0
O155 O 0.3606 0.91098 0.38497 0.0
Cd156 Cd 0.35878 0.86679 0.35343 0.0
O157 O 0.3572 0.88204 0.42501 0.0
Cd158 Cd 0.34846 0.82763 0.41231 0.0
C159 C 0.4054 0.82347 0.38525 0.0
O160 O 0.3243 0.83788 0.36942 0.0
O161 O 0.33721 0.79123 0.37216 0.0
O162 O 0.3149 0.83286 0.44637 0.0
C163 C 0.32407 0.81087 0.35891 0.0
O164 O 0.39663 0.83923 0.36399 0.0
C165 C 0.31852 0.80791 0.46018 0.0
O166 O 0.39231 0.8167 0.40774 0.0
O167 O 0.33719 0.79227 0.45269 0.0
C168 C 0.32484 0.11765 0.82958 0.0
O169 O 0.3314 0.08992 0.83355 0.0
Cd170 Cd 0.34628 0.07069 0.87939 0.0
O171 O 0.32385 0.13664 0.85111 0.0
Cd172 Cd 0.3278 0.13894 0.90576 0.0
C173 C 0.38842 0.12943 0.89557 0.0
O174 O 0.31565 0.08684 0.91253 0.0
O175 O 0.32799 0.10884 0.95254 0.0
O176 O 0.28776 0.1609 0.90197 0.0
C177 C 0.31981 0.08479 0.93995 0.0
O178 O 0.38263 0.1023 0.88725 0.0
C179 C 0.29181 0.18422 0.91816 0.0
O180 O 0.37217 0.14874 0.90367 0.0
O181 O 0.31328 0.18716 0.92864 0.0
C182 C 0.65277 0.85213 0.32814 0.0
O183 O 0.64582 0.8798 0.33152 0.0
Cd184 Cd 0.62654 0.89777 0.37547 0.0
O185 O 0.6523 0.83318 0.34966 0.0
Cd186 Cd 0.64506 0.83275 0.40404 0.0
C187 C 0.58535 0.83729 0.38786 0.0
O188 O 0.65488 0.88577 0.41305 0.0
O189 O 0.63813 0.86254 0.45003 0.0
O190 O 0.6863 0.81409 0.40559 0.0
C191 C 0.64746 0.88701 0.43957 0.0
O192 O 0.59064 0.86455 0.37953 0.0
C193 C 0.68203 0.79091 0.42183 0.0
O194 O 0.60164 0.81932 0.39812 0.0
O195 O 0.65994 0.78641 0.42965 0.0
C196 C 0.32594 0.84129 0.14916 0.0
O197 O 0.33121 0.86969 0.14693 0.0
Cd198 Cd 0.34881 0.89278 0.10439 0.0
O199 O 0.32829 0.82303 0.12719 0.0
Cd200 Cd 0.33805 0.82585 0.07336 0.0
C201 C 0.39644 0.84127 0.09056 0.0
O202 O 0.32095 0.87665 0.06765 0.0
O203 O 0.33948 0.85927 0.02913 0.0
O204 O 0.30319 0.79155 0.07249 0.0
C205 C 0.32732 0.88076 0.04105 0.0
O206 O 0.38836 0.86729 0.09919 0.0
C207 C 0.31014 0.77621 0.05011 0.0
O208 O 0.3821 0.82072 0.08031 0.0
O209 O 0.33081 0.78304 0.03904 0.0
C210 C 0.61905 0.148 0.64528 0.0
O211 O 0.60284 0.12727 0.64222 0.0
Cd212 Cd 0.59495 0.10203 0.59579 0.0
O213 O 0.6311 0.1578 0.62312 0.0
Cd214 Cd 0.63061 0.1494 0.56942 0.0
C215 C 0.57076 0.16359 0.56094 0.0
O216 O 0.63312 0.09295 0.57148 0.0
O217 O 0.62691 0.1132 0.52853 0.0
O218 O 0.67282 0.16627 0.57552 0.0
C219 C 0.63176 0.08946 0.54365 0.0
O220 O 0.56787 0.13563 0.56849 0.0
C221 C 0.67389 0.18021 0.5509 0.0
O222 O 0.5916 0.17658 0.56249 0.0
O223 O 0.6546 0.18074 0.53534 0.0
H224 H 0.0448 0.32654 0.13784 0.0
H225 H 0.91856 0.30386 0.05154 0.0
H226 H 0.04257 0.30335 0.04481 0.0
H227 H 0.92828 0.35846 0.1306 0.0
H228 H 0.96245 0.29107 0.05266 0.0
H229 H 0.00043 0.32448 0.1395 0.0
C230 C 0.03501 0.32066 0.11778 0.0
C231 C 0.04746 0.31572 0.09099 0.0
C232 C 0.95479 0.30554 0.06988 0.0
C233 C -0.00357 0.3135 0.09279 0.0
C234 C 0.92983 0.31272 0.06933 0.0
C235 C 0.91993 0.33248 0.09086 0.0
C236 C 0.9696 0.31773 0.09246 0.0
C237 C 0.93525 0.34346 0.11337 0.0
C238 C 0.00963 0.31954 0.11876 0.0
C239 C 0.0337 0.30763 0.06587 0.0
N240 N 0.95926 0.33597 0.11356 0.0
N241 N 0.00882 0.30717 0.06726 0.0
H242 H 0.93941 0.60995 0.61851 0.0
H243 H 0.06244 0.67733 0.54979 0.0
H244 H 0.93686 0.67496 0.54623 0.0
H245 H 0.05583 0.58889 0.59276 0.0
H246 H 0.01762 0.68291 0.55269 0.0
H247 H 0.9835 0.60873 0.6145 0.0
C248 C 0.9481 0.62411 0.60178 0.0
C249 C 0.93428 0.64248 0.58255 0.0
C250 C 0.02615 0.66234 0.56134 0.0
C251 C 0.98523 0.64109 0.57787 0.0
C252 C 0.05164 0.65919 0.55984 0.0
C253 C 0.06291 0.63259 0.57104 0.0
C254 C 0.01211 0.63898 0.57463 0.0
C255 C 0.04805 0.60974 0.58371 0.0
C256 C 0.97337 0.62328 0.59944 0.0
C257 C 0.94679 0.66031 0.56137 0.0
N258 N 0.02355 0.61356 0.58528 0.0
N259 N 0.97167 0.65923 0.55959 0.0
H260 H 0.91935 0.72283 0.89865 0.0
H261 H 0.05367 0.69402 0.95964 0.0
H262 H 0.93749 0.65781 0.96713 0.0
H263 H 0.03601 0.70878 0.8677 0.0
H264 H 0.01101 0.70478 0.9728 0.0
H265 H 0.96188 0.74118 0.89885 0.0
C266 C 0.93203 0.71345 0.91466 0.0
C267 C 0.92518 0.68867 0.93274 0.0
C268 C 0.01677 0.70673 0.9499 0.0
C269 C 0.97334 0.70945 0.93314 0.0
C270 C 0.04106 0.70074 0.94237 0.0
C271 C 0.04814 0.70001 0.9125 0.0
C272 C -0.00025 0.71255 0.9274 0.0
C273 C 0.03109 0.70866 0.89095 0.0
C274 C 0.95623 0.72377 0.91462 0.0
C275 C 0.94226 0.67686 0.95276 0.0
N276 N 0.00754 0.7142 0.89878 0.0
N277 N 0.9657 0.68712 0.9522 0.0
H278 H 0.04894 0.30048 0.40854 0.0
H279 H 0.92166 0.35412 0.33931 0.0
H280 H 0.04068 0.37526 0.34646 0.0
H281 H 0.92575 0.29882 0.41862 0.0
H282 H 0.96599 0.35438 0.33646 0.0
H283 H 0.00447 0.29259 0.40763 0.0
C284 C 0.03783 0.31505 0.39457 0.0
C285 C 0.0485 0.33871 0.3777 0.0
C286 C 0.95722 0.34207 0.35444 0.0
C287 C -0.0021 0.32967 0.37643 0.0
C288 C 0.93185 0.34182 0.35608 0.0
C289 C 0.91989 0.32671 0.37947 0.0
C290 C 0.97092 0.32706 0.37629 0.0
C291 C 0.93419 0.31095 0.40032 0.0
C292 C 0.0125 0.3106 0.39415 0.0
C293 C 0.03325 0.35693 0.36003 0.0
N294 N 0.95902 0.31168 0.39835 0.0
N295 N 0.00878 0.35203 0.35988 0.0
H296 H 0.42884 0.86954 0.12714 0.0
H297 H 0.54787 0.80156 0.05148 0.0
H298 H 0.42425 0.79944 0.05943 0.0
H299 H 0.54733 0.84753 0.13643 0.0
H300 H 0.50303 0.79972 0.0529 0.0
H301 H 0.47276 0.86189 0.12954 0.0
C302 C 0.4371 0.85245 0.11278 0.0
C303 C 0.4229 0.83524 0.09291 0.0
C304 C 0.51284 0.80982 0.07134 0.0
C305 C 0.47339 0.82643 0.09544 0.0
C306 C 0.5384 0.81088 0.07057 0.0
C307 C 0.55141 0.82512 0.09367 0.0
C308 C 0.50033 0.82333 0.09524 0.0
C309 C 0.53816 0.8367 0.11789 0.0
C310 C 0.4622 0.84795 0.11428 0.0
C311 C 0.43458 0.81318 0.07506 0.0
N312 N 0.51342 0.83586 0.11786 0.0
N313 N 0.45928 0.80963 0.07648 0.0
H314 H 0.53798 0.15286 0.51723 0.0
H315 H 0.43398 0.20378 0.61572 0.0
H316 H 0.55305 0.21287 0.59107 0.0
H317 H 0.42225 0.19557 0.52158 0.0
H318 H 0.47755 0.21205 0.60646 0.0
H319 H 0.49607 0.1723 0.51577 0.0
C320 C 0.5326 0.17097 0.53243 0.0
C321 C 0.54878 0.18145 0.55421 0.0
C322 C 0.46535 0.20938 0.58776 0.0
C323 C 0.50084 0.2027 0.55363 0.0
C324 C 0.44052 0.20457 0.59305 0.0
C325 C 0.42464 0.19858 0.56939 0.0
C326 C 0.47439 0.20716 0.55871 0.0
C327 C 0.43395 0.19997 0.54044 0.0
C328 C 0.50873 0.18204 0.53166 0.0
C329 C 0.54101 0.2045 0.57381 0.0
N330 N 0.45839 0.2032 0.53592 0.0
N331 N 0.5173 0.21377 0.57364 0.0
H332 H 0.53866 0.17785 0.93693 0.0
H333 H 0.42259 0.1069 0.85818 0.0
H334 H 0.53778 0.14566 0.84634 0.0
H335 H 0.4135 0.17201 0.92966 0.0
H336 H 0.46587 0.11898 0.85653 0.0
H337 H 0.49366 0.17533 0.93751 0.0
C338 C 0.52908 0.17066 0.91712 0.0
C339 C 0.54207 0.16144 0.89172 0.0
C340 C 0.45448 0.13088 0.8725 0.0
C341 C 0.49098 0.15832 0.89238 0.0
C342 C 0.42975 0.12383 0.87357 0.0
C343 C 0.41445 0.13838 0.89418 0.0
C344 C 0.46432 0.15229 0.89253 0.0
C345 C 0.42473 0.16036 0.91339 0.0
C346 C 0.50345 0.16926 0.91748 0.0
C347 C 0.52869 0.15246 0.86664 0.0
N348 N 0.4492 0.16643 0.91238 0.0
N349 N 0.50401 0.15081 0.86775 0.0
H350 H 0.43485 0.80265 0.43058 0.0
H351 H 0.5541 0.8515 0.34379 0.0
H352 H 0.43611 0.82685 0.33784 0.0
H353 H 0.55846 0.80037 0.42541 0.0
H354 H 0.5106 0.84034 0.34127 0.0
H355 H 0.47962 0.79862 0.42954 0.0
C356 C 0.44445 0.80657 0.40991 0.0
C357 C 0.43173 0.81569 0.38439 0.0
C358 C 0.521 0.83115 0.35961 0.0
C359 C 0.48273 0.81134 0.38316 0.0
C360 C 0.54584 0.83763 0.36108 0.0
C361 C 0.55977 0.82701 0.38494 0.0
C362 C 0.50973 0.81451 0.38255 0.0
C363 C 0.54825 0.80893 0.40664 0.0
C364 C 0.46998 0.80428 0.40935 0.0
C365 C 0.44511 0.82035 0.35822 0.0
N366 N 0.52371 0.80367 0.40523 0.0
N367 N 0.46982 0.81852 0.3584 0.0
H368 H 0.19046 0.33814 0.14113 0.0
H369 H 0.13969 0.28647 0.29869 0.0
H370 H 0.1386 0.2641 0.15283 0.0
H371 H 0.17203 0.3746 0.27796 0.0
H372 H 0.15049 0.26826 0.24873 0.0
H373 H 0.19626 0.34018 0.19463 0.0
C374 C 0.18073 0.3218 0.15497 0.0
C375 C 0.16354 0.3015 0.14275 0.0
C376 C 0.15558 0.29137 0.25543 0.0
C377 C 0.16968 0.30414 0.20384 0.0
C378 C 0.14944 0.30174 0.28381 0.0
C379 C 0.15454 0.33226 0.29205 0.0
C380 C 0.16721 0.31158 0.23561 0.0
C381 C 0.1673 0.35112 0.27217 0.0
C382 C 0.18399 0.32303 0.18548 0.0
C383 C 0.15175 0.28042 0.16151 0.0
N384 N 0.17303 0.34054 0.2448 0.0
N385 N 0.15459 0.28278 0.19135 0.0
H386 H 0.80254 0.66677 0.66494 0.0
H387 H 0.89371 0.65134 0.79384 0.0
H388 H 0.87478 0.70582 0.65662 0.0
H389 H 0.81874 0.67464 0.81325 0.0
H390 H 0.88731 0.66721 0.74233 0.0
H391 H 0.80733 0.66651 0.71895 0.0
C392 C 0.81914 0.67597 0.6746 0.0
C393 C 0.83829 0.68634 0.65655 0.0
C394 C 0.8724 0.66918 0.75804 0.0
C395 C 0.84418 0.68507 0.71766 0.0
C396 C 0.87596 0.65989 0.78724 0.0
C397 C 0.85666 0.66154 0.80761 0.0
C398 C 0.84924 0.67931 0.74913 0.0
C399 C 0.83406 0.67303 0.79812 0.0
C400 C 0.82186 0.6758 0.70528 0.0
C401 C 0.85955 0.69782 0.66992 0.0
N402 N 0.83081 0.68099 0.76933 0.0
N403 N 0.8622 0.69619 0.69977 0.0
H404 H 0.16209 0.6072 0.82483 0.0
H405 H 0.15278 0.67478 0.66096 0.0
H406 H 0.14434 0.70211 0.80657 0.0
H407 H 0.16118 0.57838 0.68202 0.0
H408 H 0.15606 0.68714 0.71372 0.0
H409 H 0.1688 0.59854 0.77222 0.0
C410 C 0.1598 0.6263 0.80971 0.0
C411 C 0.15227 0.65527 0.81995 0.0
C412 C 0.15738 0.66334 0.70671 0.0
C413 C 0.15971 0.64544 0.75956 0.0
C414 C 0.15553 0.65624 0.67662 0.0
C415 C 0.15641 0.62544 0.66711 0.0
C416 C 0.16025 0.63947 0.72732 0.0
C417 C 0.16011 0.6024 0.68835 0.0
C418 C 0.16362 0.62134 0.77964 0.0
C419 C 0.14995 0.67931 0.79946 0.0
N420 N 0.16175 0.60989 0.71744 0.0
N421 N 0.15336 0.67378 0.77008 0.0
H422 H 0.8099 0.39294 0.19651 0.0
H423 H 0.82456 0.26426 0.31606 0.0
H424 H 0.82499 0.29886 0.17164 0.0
H425 H 0.78447 0.34823 0.33175 0.0
H426 H 0.82187 0.27364 0.26269 0.0
H427 H 0.79834 0.37547 0.24584 0.0
C428 C 0.81065 0.36855 0.20144 0.0
C429 C 0.81871 0.34734 0.18018 0.0
C430 C 0.81318 0.2896 0.27783 0.0
C431 C 0.80565 0.32714 0.23664 0.0
C432 C 0.81465 0.28423 0.30828 0.0
C433 C 0.80525 0.30593 0.32832 0.0
C434 C 0.80247 0.31697 0.26763 0.0
C435 C 0.79244 0.33126 0.31706 0.0
C436 C 0.80385 0.35853 0.22952 0.0
C437 C 0.81899 0.31595 0.18755 0.0
N438 N 0.79187 0.33642 0.28748 0.0
N439 N 0.81298 0.3068 0.21542 0.0
H440 H 0.65237 0.79356 0.30533 0.0
H441 H 0.69003 0.85408 0.14489 0.0
H442 H 0.67171 0.88736 0.28392 0.0
H443 H 0.6479 0.77114 0.15873 0.0
H444 H 0.6955 0.85877 0.19826 0.0
H445 H 0.6617 0.77854 0.25405 0.0
C446 C 0.65895 0.81086 0.28998 0.0
C447 C 0.66091 0.84183 0.29863 0.0
C448 C 0.6854 0.83925 0.18961 0.0
C449 C 0.67186 0.82481 0.2405 0.0
C450 C 0.68233 0.8365 0.15916 0.0
C451 C 0.66799 0.81261 0.14749 0.0
C452 C 0.67393 0.81807 0.20853 0.0
C453 C 0.65881 0.79016 0.16691 0.0
C454 C 0.66422 0.80228 0.26081 0.0
C455 C 0.66955 0.86334 0.27799 0.0
N456 N 0.66154 0.79375 0.19666 0.0
N457 N 0.67458 0.85444 0.24985 0.0
H458 H 0.32215 0.17681 0.80863 0.0
H459 H 0.29821 0.11939 0.64325 0.0
H460 H 0.31266 0.0819 0.7822 0.0
H461 H 0.32733 0.20942 0.66376 0.0
H462 H 0.29266 0.10973 0.69594 0.0
H463 H 0.31444 0.19267 0.75737 0.0
C464 C 0.31819 0.15936 0.79213 0.0
C465 C 0.31841 0.12796 0.79952 0.0
C466 C 0.29998 0.13176 0.68895 0.0
C467 C 0.30933 0.14593 0.74128 0.0
C468 C 0.3031 0.13732 0.65887 0.0
C469 C 0.31373 0.16495 0.64924 0.0
C470 C 0.30772 0.1539 0.70957 0.0
C471 C 0.31932 0.18762 0.67036 0.0
C472 C 0.31381 0.16843 0.76297 0.0
C473 C 0.31307 0.10632 0.77738 0.0
N474 N 0.31663 0.18139 0.69971 0.0
N475 N 0.30886 0.11571 0.74925 0.0
H476 H 0.60858 0.2197 0.82276 0.0
H477 H 0.6629 0.16719 0.66724 0.0
H478 H 0.67579 0.16832 0.8168 0.0
H479 H 0.58663 0.15794 0.69006 0.0
H480 H 0.6712 0.18565 0.71779 0.0
H481 H 0.60443 0.21633 0.7688 0.0
C482 C 0.62287 0.20863 0.81001 0.0
C483 C 0.64247 0.194 0.82409 0.0
C484 C 0.65265 0.17994 0.71144 0.0
C485 C 0.63785 0.1903 0.76287 0.0
C486 C 0.6479 0.16944 0.68279 0.0
C487 C 0.6241 0.16075 0.6748 0.0
C488 C 0.63333 0.18257 0.73168 0.0
C489 C 0.60526 0.16404 0.69561 0.0
C490 C 0.62037 0.20653 0.77936 0.0
C491 C 0.66035 0.17967 0.80663 0.0
N492 N 0.61027 0.1748 0.72318 0.0
N493 N 0.65755 0.17797 0.77679 0.0
H494 H 0.33206 0.78353 0.17249 0.0
H495 H 0.28897 0.8434 0.33073 0.0
H496 H 0.30057 0.87248 0.19114 0.0
H497 H 0.33805 0.7668 0.31863 0.0
H498 H 0.28097 0.84352 0.27764 0.0
H499 H 0.32316 0.76782 0.2237 0.0
C500 C 0.32284 0.79947 0.18719 0.0
C501 C 0.31749 0.82954 0.17795 0.0
C502 C 0.29315 0.82628 0.28663 0.0
C503 C 0.30707 0.81173 0.23591 0.0
C504 C 0.29767 0.82618 0.31691 0.0
C505 C 0.31467 0.80559 0.32883 0.0
C506 C 0.30602 0.80599 0.26811 0.0
C507 C 0.32509 0.78335 0.31014 0.0
C508 C 0.3178 0.79053 0.21631 0.0
C509 C 0.30546 0.84931 0.19766 0.0
N510 N 0.32104 0.78458 0.28045 0.0
N511 N 0.30085 0.84015 0.22578 0.0
H512 H 0.24361 0.17828 0.90432 0.0
H513 H 0.2028 0.32707 -0.0045 0.0
H514 H 0.29436 0.23868 0.94911 0.0
H515 H 0.15496 0.24988 0.97822 0.0
H516 H 0.2351 0.30142 0.96753 0.0
H517 H 0.20995 0.21088 0.92077 0.0
C518 C 0.24772 0.1986 0.91736 0.0
C519 C 0.27182 0.20561 0.92567 0.0
C520 C 0.21744 0.29031 0.96956 0.0
C521 C 0.23334 0.24301 0.94438 0.0
C522 C 0.19892 0.30496 0.98537 0.0
C523 C 0.17623 0.29037 -0.0105 0.0
C524 C 0.21318 0.261 0.95757 0.0
C525 C 0.17224 0.26181 0.97578 0.0
C526 C 0.22847 0.21713 0.92676 0.0
C527 C 0.27604 0.23229 0.94245 0.0
N528 N 0.19064 0.24791 0.96059 0.0
N529 N 0.25694 0.24999 0.9514 0.0
H530 H 0.77032 0.65917 0.51558 0.0
H531 H 0.73076 0.79885 0.4116 0.0
H532 H 0.81993 0.73113 0.4879 0.0
H533 H 0.67952 0.73881 0.45607 0.0
H534 H 0.76442 0.76932 0.43249 0.0
H535 H 0.73797 0.68309 0.48679 0.0
C536 C 0.77449 0.6799 0.50322 0.0
C537 C 0.79783 0.69338 0.50438 0.0
C538 C 0.74582 0.76249 0.43752 0.0
C539 C 0.76073 0.72091 0.47141 0.0
C540 C 0.72657 0.77927 0.42557 0.0
C541 C 0.70227 0.7714 0.43233 0.0
C542 C 0.74078 0.73755 0.45627 0.0
C543 C 0.69796 0.74577 0.45044 0.0
C544 C 0.75595 0.69356 0.48684 0.0
C545 C 0.80217 0.72009 0.48774 0.0
N546 N 0.71706 0.72982 0.46191 0.0
N547 N 0.78371 0.73313 0.47206 0.0
H548 H 0.2744 0.74122 0.07558 0.0
H549 H 0.19621 0.73447 0.93344 0.0
H550 H 0.30684 0.76392 -0.00882 0.0
H551 H 0.19204 0.65751 -0.00639 0.0
H552 H 0.23376 0.75151 0.95805 0.0
H553 H 0.24128 0.71419 0.04955 0.0
C554 C 0.27478 0.73993 0.05162 0.0
C555 C 0.29326 0.75474 0.03541 0.0
C556 C 0.22462 0.73083 0.96572 0.0
C557 C 0.25533 0.7251 0.00584 0.0
C558 C 0.20314 0.72132 0.95197 0.0
C559 C 0.19108 0.69468 0.96169 0.0
C560 C 0.23364 0.71405 -0.01018 0.0
C561 C 0.2009 0.6782 0.98555 0.0
C562 C 0.25596 0.72458 0.03687 0.0
C563 C 0.29296 0.75261 0.00443 0.0
N564 N 0.22152 0.68842 -0.00081 0.0
N565 N 0.27391 0.73867 -0.00945 0.0
H566 H 0.6894 0.18368 0.49389 0.0
H567 H 0.79439 0.29938 0.51192 0.0
H568 H 0.71072 0.20626 0.58331 0.0
H569 H 0.80374 0.22158 0.45346 0.0
H570 H 0.7616 0.27134 0.5377 0.0
H571 H 0.72849 0.2042 0.47599 0.0
C572 C 0.70228 0.19315 0.50969 0.0
C573 C 0.69693 0.19351 0.54003 0.0
C574 C 0.7713 0.26025 0.51968 0.0
C575 C 0.74126 0.21702 0.51979 0.0
C576 C 0.78993 0.27612 0.50504 0.0
C577 C 0.80167 0.26268 0.48059 0.0
C578 C 0.76393 0.23136 0.509 0.0
C579 C 0.79519 0.23262 0.47233 0.0
C580 C 0.72459 0.20447 0.49953 0.0
C581 C 0.71429 0.20567 0.55971 0.0
N582 N 0.77625 0.21821 0.48603 0.0
N583 N 0.73564 0.2175 0.54919 0.0
H584 H 0.69801 0.82946 0.98526 0.0
H585 H 0.7528 0.67502 0.91643 0.0
H586 H 0.661 0.74177 -0.00797 0.0
H587 H 0.79614 0.75291 0.94459 0.0
H588 H 0.71574 0.70267 0.93149 0.0
H589 H 0.73028 0.80497 0.9565 0.0
C590 C 0.69644 0.80512 0.98027 0.0
C591 C 0.67703 0.78747 -0.00846 0.0
C592 C 0.73337 0.71373 0.93403 0.0
C593 C 0.71399 0.75938 0.95874 0.0
C594 C 0.75448 0.69808 0.92543 0.0
C595 C 0.77753 0.71166 0.9296 0.0
C596 C 0.73542 0.74329 0.94636 0.0
C597 C 0.77873 0.74151 0.94132 0.0
C598 C 0.71493 0.79118 0.96395 0.0
C599 C 0.67581 0.75613 0.98403 0.0
N600 N 0.75795 0.75632 0.94935 0.0
N601 N 0.69428 0.74292 0.96834 0.0
H602 H 0.28265 0.24768 0.53212 0.0
H603 H 0.19672 0.25001 0.39523 0.0
H604 H 0.28042 0.16745 0.4756 0.0
H605 H 0.17037 0.28003 0.48062 0.0
H606 H 0.23103 0.22418 0.41979 0.0
H607 H 0.24536 0.26657 0.50838 0.0
C608 C 0.27447 0.23427 0.51444 0.0
C609 C 0.28456 0.20607 0.50564 0.0
C610 C 0.21746 0.23601 0.43307 0.0
C611 C 0.24225 0.22749 0.4786 0.0
C612 C 0.19796 0.25064 0.41917 0.0
C613 C 0.18079 0.26699 0.43604 0.0
C614 C 0.22012 0.23879 0.46382 0.0
C615 C 0.18317 0.2674 0.46693 0.0
C616 C 0.25312 0.24486 0.50123 0.0
C617 C 0.27312 0.18934 0.48293 0.0
N618 N 0.20285 0.25403 0.47986 0.0
N619 N 0.25262 0.20049 0.46987 0.0
H620 H 0.79901 0.24632 0.02343 0.0
H621 H 0.65581 0.24297 -0.00746 0.0
H622 H 0.74821 0.30847 0.06564 0.0
H623 H 0.70457 0.16926 0.9677 0.0
H624 H 0.68909 0.26679 0.02073 0.0
H625 H 0.76442 0.21708 0.00356 0.0
C626 C 0.7806 0.25367 0.02868 0.0
C627 C 0.77648 0.27996 0.04601 0.0
C628 C 0.69239 0.24521 0.00937 0.0
C629 C 0.73688 0.24686 0.02325 0.0
C630 C 0.67339 0.23162 -0.00669 0.0
C631 C 0.67749 0.20428 0.97754 0.0
C632 C 0.71563 0.23146 0.00934 0.0
C633 C 0.70063 0.1905 0.97934 0.0
C634 C 0.76086 0.23696 0.0174 0.0
C635 C 0.75224 0.28841 0.05224 0.0
N636 N 0.71889 0.20441 -0.00535 0.0
N637 N 0.73336 0.27209 0.04064 0.0
H638 H 0.23114 0.68889 0.56986 0.0
H639 H 0.274 0.83269 0.47301 0.0
H640 H 0.18121 0.74639 0.52099 0.0
H641 H 0.3209 0.75632 0.49509 0.0
H642 H 0.24108 0.80887 0.50159 0.0
H643 H 0.26498 0.7213 0.55351 0.0
C644 C 0.22722 0.70859 0.55598 0.0
C645 C 0.20332 0.71471 0.54639 0.0
C646 C 0.25868 0.79757 0.50047 0.0
C647 C 0.24207 0.75187 0.52771 0.0
C648 C 0.27754 0.81116 0.4843 0.0
C649 C 0.30016 0.79622 0.48138 0.0
C650 C 0.26254 0.769 0.51404 0.0
C651 C 0.30369 0.76846 0.49655 0.0
C652 C 0.2466 0.72701 0.54664 0.0
C653 C 0.19937 0.7407 0.52866 0.0
N654 N 0.28498 0.7556 0.51209 0.0
N655 N 0.21863 0.75824 0.51966 0.0
H656 H 0.08601 0.53112 0.91872 0.0
H657 H 0.12294 0.46568 0.07766 0.0
H658 H 0.12135 0.58667 0.98566 0.0
H659 H 0.10801 0.40813 0.00164 0.0
H660 H 0.11694 0.51127 0.04676 0.0
H661 H 0.08796 0.48687 0.95181 0.0
C662 C 0.09399 0.53412 0.94048 0.0
C663 C 0.1037 0.56262 0.94935 0.0
C664 C 0.11496 0.48863 0.03691 0.0
C665 C 0.10603 0.51197 0.98727 0.0
C666 C 0.11834 0.46261 0.05451 0.0
C667 C 0.11609 0.43304 0.04216 0.0
C668 C 0.10902 0.48503 0.00688 0.0
C669 C 0.1101 0.43046 0.01205 0.0
C670 C 0.0952 0.50878 0.95929 0.0
C671 C 0.11379 0.56508 0.97783 0.0
N672 N 0.10674 0.45612 -0.00455 0.0
N673 N 0.11475 0.54002 -0.00422 0.0
H674 H 0.84562 0.51287 0.58179 0.0
H675 H 0.83457 0.45923 0.41277 0.0
H676 H 0.83852 0.57479 0.50751 0.0
H677 H 0.84075 0.39512 0.48545 0.0
H678 H 0.83463 0.5016 0.44796 0.0
H679 H 0.84237 0.46917 0.54764 0.0
C680 C 0.84327 0.51729 0.55836 0.0
C681 C 0.84248 0.54755 0.54748 0.0
C682 C 0.83593 0.47829 0.4563 0.0
C683 C 0.8388 0.49777 0.50841 0.0
C684 C 0.83593 0.45402 0.43617 0.0
C685 C 0.83777 0.42353 0.44614 0.0
C686 C 0.83786 0.47218 0.48673 0.0
C687 C 0.83936 0.41828 0.47677 0.0
C688 C 0.84144 0.49234 0.5389 0.0
C689 C 0.83937 0.55191 0.51693 0.0
N690 N 0.83946 0.44241 0.49602 0.0
N691 N 0.83773 0.52731 0.49851 0.0
H692 H 0.84305 0.40741 0.98291 0.0
H693 H 0.83423 0.59015 0.00114 0.0
H694 H 0.82092 0.45249 0.06393 0.0
H695 H 0.84038 0.54478 0.91628 0.0
H696 H 0.83148 0.53978 0.02504 0.0
H697 H 0.84423 0.45762 0.95831 0.0
C698 C 0.83839 0.42785 -0.00453 0.0
C699 C 0.83191 0.42583 0.02547 0.0
C700 C 0.83335 0.54086 0.00117 0.0
C701 C 0.83335 0.48317 -0.00235 0.0
C702 C 0.83498 0.56959 -0.01244 0.0
C703 C 0.83755 0.57161 0.95672 0.0
C704 C 0.83451 0.51399 0.98383 0.0
C705 C 0.83837 0.54425 0.94014 0.0
C706 C 0.83902 0.45646 0.98144 0.0
C707 C 0.826 0.453 0.04074 0.0
N708 N 0.83696 0.51654 0.95393 0.0
N709 N 0.82697 0.48056 0.02669 0.0
H710 H 0.10855 0.422 0.45974 0.0
H711 H 0.19365 0.55416 0.51538 0.0
H712 H 0.18215 0.42694 0.42559 0.0
H713 H 0.12054 0.57453 0.48592 0.0
H714 H 0.1908 0.50354 0.49104 0.0
H715 H 0.11324 0.47432 0.47967 0.0
C716 C 0.12576 0.434 0.45677 0.0
C717 C 0.14503 0.42034 0.44112 0.0
C718 C 0.17558 0.51936 0.48967 0.0
C719 C 0.15049 0.47952 0.46388 0.0
C720 C 0.17718 0.54808 0.50342 0.0
C721 C 0.15736 0.56841 0.50237 0.0
C722 C 0.15371 0.51075 0.47581 0.0
C723 C 0.1363 0.55955 0.48689 0.0
C724 C 0.12832 0.4638 0.46784 0.0
C725 C 0.1669 0.43687 0.43754 0.0
N726 N 0.13483 0.53104 0.47462 0.0
N727 N 0.16918 0.46561 0.44915 0.0
H728 H 0.62536 0.02435 0.90062 0.0
H729 H 0.62526 0.96916 0.06969 0.0
H730 H 0.62654 0.08617 0.9757 0.0
H731 H 0.62813 0.90632 -0.00453 0.0
H732 H 0.62469 0.01224 0.03522 0.0
H733 H 0.62561 0.98065 0.93473 0.0
C734 C 0.62571 0.02875 0.92424 0.0
C735 C 0.62593 0.05899 0.93531 0.0
C736 C 0.62543 0.98903 0.02644 0.0
C737 C 0.62614 0.00914 0.97439 0.0
C738 C 0.62572 0.96439 0.04614 0.0
C739 C 0.62677 0.93405 0.03548 0.0
C740 C 0.62617 0.98338 -0.00418 0.0
C741 C 0.62733 0.92932 0.00469 0.0
C742 C 0.62584 0.0038 0.94369 0.0
C743 C 0.62637 0.0633 0.96613 0.0
N744 N 0.62704 0.95375 0.98593 0.0
N745 N 0.62643 0.03866 0.98456 0.0
H746 H 0.36819 0.9103 0.47267 0.0
H747 H 0.35286 0.09225 0.48576 0.0
H748 H 0.35878 0.96902 0.39642 0.0
H749 H 0.37938 0.03484 0.55676 0.0
H750 H 0.35406 0.04764 0.45258 0.0
H751 H 0.37126 0.95593 0.50397 0.0
C752 C 0.36682 0.9328 0.46248 0.0
C753 C 0.36313 0.93585 0.43189 0.0
C754 C 0.35978 0.04492 0.47538 0.0
C755 C 0.36654 0.98822 0.46766 0.0
C756 C 0.35907 0.07035 0.49434 0.0
C757 C 0.3659 0.06725 0.52414 0.0
C758 C 0.36714 0.01619 0.48641 0.0
C759 C 0.37388 0.03833 0.534 0.0
C760 C 0.36866 0.95886 0.48037 0.0
C761 C 0.36163 0.96561 0.41991 0.0
N762 N 0.37409 0.0139 0.51524 0.0
N763 N 0.36317 0.99068 0.43787 0.0
H764 H 0.31413 0.93531 0.06652 0.0
H765 H 0.31389 0.02837 0.9146 0.0
H766 H 0.33297 0.89428 0.98236 0.0
H767 H 0.32327 0.07287 -0.00055 0.0
H768 H 0.31394 0.97843 0.93925 0.0
H769 H 0.3106 0.98541 0.04217 0.0
C770 C 0.31735 0.93681 0.04287 0.0
C771 C 0.32393 0.91069 0.02637 0.0
C772 C 0.31594 -0.00088 0.95247 0.0
C773 C 0.31981 0.96771 -0.00146 0.0
C774 C 0.31581 0.02764 0.93847 0.0
C775 C 0.31869 0.05477 0.95505 0.0
C776 C 0.31866 -0.00229 0.9833 0.0
C777 C 0.32113 0.05246 0.98588 0.0
C778 C 0.31544 0.9654 0.02908 0.0
C779 C 0.32797 0.91391 -0.00413 0.0
N780 N 0.32103 0.02434 -0.00092 0.0
N781 N 0.32579 0.94195 0.98289 0.0
H782 H 0.63405 0.03286 0.5703 0.0
H783 H 0.65863 0.94393 0.41824 0.0
H784 H 0.63649 0.07712 0.48477 0.0
H785 H 0.63474 0.89722 0.4976 0.0
H786 H 0.65572 -0.00702 0.44426 0.0
H787 H 0.63898 0.98282 0.54575 0.0
C788 C 0.63567 0.03204 0.54639 0.0
C789 C 0.63481 0.05911 0.5295 0.0
C790 C 0.65113 0.97202 0.45602 0.0
C791 C 0.6406 0.00225 0.50146 0.0
C792 C 0.65288 0.94398 0.44122 0.0
C793 C 0.64681 0.91649 0.45578 0.0
C794 C 0.64343 0.97262 0.48568 0.0
C795 C 0.63947 0.91794 0.48556 0.0
C796 C 0.63841 0.00353 0.53243 0.0
C797 C 0.63696 0.0568 0.49862 0.0
N798 N 0.63799 0.94562 0.49959 0.0
N799 N 0.63983 0.02887 0.48561 0.0
loop_
_geom_bond_atom_site_label_1
_geom_bond_atom_site_label_2
_geom_bond_distance
_geom_bond_site_symmetry_2
_ccdc_geom_bond_type
C0 O1 1.306 . S
C0 O3 1.160 . S
O1 C0 1.306 . S
O1 Cd2 2.228 . S
Cd2 O1 2.228 . S
Cd2 O6 2.273 . S
Cd2 O10 2.277 . S
O3 C0 1.160 . S
O3 Cd4 2.203 . S
Cd4 O3 2.203 . S
Cd4 O6 2.411 . S
Cd4 O7 2.333 . S
Cd4 O8 2.352 . S
Cd4 O12 2.277 . S
Cd4 O13 2.356 . S
C5 O10 1.209 . S
C5 O12 1.226 . S
O6 Cd2 2.273 . S
O6 Cd4 2.411 . S
O6 C9 1.320 . S
O7 Cd4 2.333 . S
O7 C9 1.214 . S
O8 Cd4 2.352 . S
O8 C11 1.258 . S
C9 O6 1.320 . S
C9 O7 1.214 . S
O10 Cd2 2.277 . S
O10 C5 1.209 . S
C11 O8 1.258 . S
C11 O13 1.282 . S
O12 Cd4 2.277 . S
O12 C5 1.226 . S
O13 Cd4 2.356 . S
O13 C11 1.282 . S
C14 O15 1.306 . S
C14 O17 1.160 . S
O15 C14 1.306 . S
O15 Cd16 2.228 . S
Cd16 O15 2.228 . S
Cd16 O20 2.273 . S
Cd16 O24 2.277 . S
O17 C14 1.160 . S
O17 Cd18 2.203 . S
Cd18 O17 2.203 . S
Cd18 O20 2.411 . S
Cd18 O21 2.333 . S
Cd18 O22 2.352 . S
Cd18 O26 2.277 . S
Cd18 O27 2.356 . S
C19 O24 1.209 . S
C19 O26 1.226 . S
O20 Cd16 2.273 . S
O20 Cd18 2.411 . S
O20 C23 1.320 . S
O21 Cd18 2.333 . S
O21 C23 1.214 . S
O22 Cd18 2.352 . S
O22 C25 1.258 . S
C23 O20 1.320 . S
C23 O21 1.214 . S
O24 Cd16 2.277 . S
O24 C19 1.209 . S
C25 O22 1.258 . S
C25 O27 1.282 . S
O26 Cd18 2.277 . S
O26 C19 1.226 . S
O27 Cd18 2.356 . S
O27 C25 1.282 . S
C28 O29 1.306 . S
C28 O31 1.160 . S
O29 C28 1.306 . S
O29 Cd30 2.228 . S
Cd30 O29 2.228 . S
Cd30 O34 2.273 . S
Cd30 O38 2.277 . S
O31 C28 1.160 . S
O31 Cd32 2.203 . S
Cd32 O31 2.203 . S
Cd32 O34 2.411 . S
Cd32 O35 2.333 . S
Cd32 O36 2.352 . S
Cd32 O40 2.277 . S
Cd32 O41 2.356 . S
C33 O38 1.209 . S
C33 O40 1.226 . S
O34 Cd30 2.273 . S
O34 Cd32 2.411 . S
O34 C37 1.320 . S
O35 Cd32 2.333 . S
O35 C37 1.214 . S
O36 Cd32 2.352 . S
O36 C39 1.258 . S
C37 O34 1.320 . S
C37 O35 1.214 . S
O38 Cd30 2.277 . S
O38 C33 1.209 . S
C39 O36 1.258 . S
C39 O41 1.282 . S
O40 Cd32 2.277 . S
O40 C33 1.226 . S
O41 Cd32 2.356 . S
O41 C39 1.282 . S
C42 O43 1.306 . S
C42 O45 1.160 . S
O43 C42 1.306 . S
O43 Cd44 2.228 . S
Cd44 O43 2.228 . S
Cd44 O48 2.273 . S
Cd44 O52 2.277 . S
O45 C42 1.160 . S
O45 Cd46 2.203 . S
Cd46 O45 2.203 . S
Cd46 O48 2.411 . S
Cd46 O49 2.333 . S
Cd46 O50 2.352 . S
Cd46 O54 2.277 . S
Cd46 O55 2.356 . S
C47 O52 1.209 . S
C47 O54 1.226 . S
O48 Cd44 2.273 . S
O48 Cd46 2.411 . S
O48 C51 1.320 . S
O49 Cd46 2.333 . S
O49 C51 1.214 . S
O50 Cd46 2.352 . S
O50 C53 1.258 . S
C51 O48 1.320 . S
C51 O49 1.214 . S
O52 Cd44 2.277 . S
O52 C47 1.209 . S
C53 O50 1.258 . S
C53 O55 1.282 . S
O54 Cd46 2.277 . S
O54 C47 1.226 . S
O55 Cd46 2.356 . S
O55 C53 1.282 . S
C56 O57 1.306 . S
C56 O59 1.160 . S
O57 C56 1.306 . S
O57 Cd58 2.228 . S
Cd58 O57 2.228 . S
Cd58 O62 2.273 . S
Cd58 O66 2.277 . S
O59 C56 1.160 . S
O59 Cd60 2.203 . S
Cd60 O59 2.203 . S
Cd60 O62 2.411 . S
Cd60 O63 2.333 . S
Cd60 O64 2.352 . S
Cd60 O68 2.277 . S
Cd60 O69 2.356 . S
C61 O66 1.209 . S
C61 O68 1.226 . S
O62 Cd58 2.273 . S
O62 Cd60 2.411 . S
O62 C65 1.320 . S
O63 Cd60 2.333 . S
O63 C65 1.214 . S
O64 Cd60 2.352 . S
O64 C67 1.258 . S
C65 O62 1.320 . S
C65 O63 1.214 . S
O66 Cd58 2.277 . S
O66 C61 1.209 . S
C67 O64 1.258 . S
C67 O69 1.282 . S
O68 Cd60 2.277 . S
O68 C61 1.226 . S
O69 Cd60 2.356 . S
O69 C67 1.282 . S
C70 O71 1.306 . S
C70 O73 1.160 . S
O71 C70 1.306 . S
O71 Cd72 2.228 . S
Cd72 O71 2.228 . S
Cd72 O76 2.273 . S
Cd72 O80 2.277 . S
O73 C70 1.160 . S
O73 Cd74 2.203 . S
Cd74 O73 2.203 . S
Cd74 O76 2.411 . S
Cd74 O77 2.333 . S
Cd74 O78 2.352 . S
Cd74 O82 2.277 . S
Cd74 O83 2.356 . S
C75 O80 1.209 . S
C75 O82 1.226 . S
O76 Cd72 2.273 . S
O76 Cd74 2.411 . S
O76 C79 1.320 . S
O77 Cd74 2.333 . S
O77 C79 1.214 . S
O78 Cd74 2.352 . S
O78 C81 1.258 . S
C79 O76 1.320 . S
C79 O77 1.214 . S
O80 Cd72 2.277 . S
O80 C75 1.209 . S
C81 O78 1.258 . S
C81 O83 1.282 . S
O82 Cd74 2.277 . S
O82 C75 1.226 . S
O83 Cd74 2.356 . S
O83 C81 1.282 . S
C84 O85 1.306 . S
C84 O87 1.160 . S
O85 C84 1.306 . S
O85 Cd86 2.228 . S
Cd86 O85 2.228 . S
Cd86 O90 2.273 . S
Cd86 O94 2.277 . S
O87 C84 1.160 . S
O87 Cd88 2.203 . S
Cd88 O87 2.203 . S
Cd88 O90 2.411 . S
Cd88 O91 2.333 . S
Cd88 O92 2.352 . S
Cd88 O96 2.277 . S
Cd88 O97 2.356 . S
C89 O94 1.209 . S
C89 O96 1.226 . S
O90 Cd86 2.273 . S
O90 Cd88 2.411 . S
O90 C93 1.320 . S
O91 Cd88 2.333 . S
O91 C93 1.214 . S
O92 Cd88 2.352 . S
O92 C95 1.258 . S
C93 O90 1.320 . S
C93 O91 1.214 . S
O94 Cd86 2.277 . S
O94 C89 1.209 . S
C95 O92 1.258 . S
C95 O97 1.282 . S
O96 Cd88 2.277 . S
O96 C89 1.226 . S
O97 Cd88 2.356 . S
O97 C95 1.282 . S
C98 O99 1.306 . S
C98 O101 1.160 . S
O99 C98 1.306 . S
O99 Cd100 2.228 . S
Cd100 O99 2.228 . S
Cd100 O104 2.273 . S
Cd100 O108 2.277 . S
O101 C98 1.160 . S
O101 Cd102 2.203 . S
Cd102 O101 2.203 . S
Cd102 O104 2.411 . S
Cd102 O105 2.333 . S
Cd102 O106 2.352 . S
Cd102 O110 2.277 . S
Cd102 O111 2.356 . S
C103 O108 1.209 . S
C103 O110 1.226 . S
O104 Cd100 2.273 . S
O104 Cd102 2.411 . S
O104 C107 1.320 . S
O105 Cd102 2.333 . S
O105 C107 1.214 . S
O106 Cd102 2.352 . S
O106 C109 1.258 . S
C107 O104 1.320 . S
C107 O105 1.214 . S
O108 Cd100 2.277 . S
O108 C103 1.209 . S
C109 O106 1.258 . S
C109 O111 1.282 . S
O110 Cd102 2.277 . S
O110 C103 1.226 . S
O111 Cd102 2.356 . S
O111 C109 1.282 . S
C112 O113 1.306 . S
C112 O115 1.160 . S
O113 C112 1.306 . S
O113 Cd114 2.228 . S
Cd114 O113 2.228 . S
Cd114 O118 2.273 . S
Cd114 O122 2.277 . S
O115 C112 1.160 . S
O115 Cd116 2.203 . S
Cd116 O115 2.203 . S
Cd116 O118 2.411 . S
Cd116 O119 2.333 . S
Cd116 O120 2.352 . S
Cd116 O124 2.277 . S
Cd116 O125 2.356 . S
C117 O122 1.209 . S
C117 O124 1.226 . S
O118 Cd114 2.273 . S
O118 Cd116 2.411 . S
O118 C121 1.320 . S
O119 Cd116 2.333 . S
O119 C121 1.214 . S
O120 Cd116 2.352 . S
O120 C123 1.258 . S
C121 O118 1.320 . S
C121 O119 1.214 . S
O122 Cd114 2.277 . S
O122 C117 1.209 . S
C123 O120 1.258 . S
C123 O125 1.282 . S
O124 Cd116 2.277 . S
O124 C117 1.226 . S
O125 Cd116 2.356 . S
O125 C123 1.282 . S
C126 O127 1.306 . S
C126 O129 1.160 . S
O127 C126 1.306 . S
O127 Cd128 2.228 . S
Cd128 O127 2.228 . S
Cd128 O132 2.273 . S
Cd128 O136 2.277 . S
O129 C126 1.160 . S
O129 Cd130 2.203 . S
Cd130 O129 2.203 . S
Cd130 O132 2.411 . S
Cd130 O133 2.333 . S
Cd130 O134 2.352 . S
Cd130 O138 2.277 . S
Cd130 O139 2.356 . S
C131 O136 1.209 . S
C131 O138 1.226 . S
O132 Cd128 2.273 . S
O132 Cd130 2.411 . S
O132 C135 1.320 . S
O133 Cd130 2.333 . S
O133 C135 1.214 . S
O134 Cd130 2.352 . S
O134 C137 1.258 . S
C135 O132 1.320 . S
C135 O133 1.214 . S
O136 Cd128 2.277 . S
O136 C131 1.209 . S
C137 O134 1.258 . S
C137 O139 1.282 . S
O138 Cd130 2.277 . S
O138 C131 1.226 . S
O139 Cd130 2.356 . S
O139 C137 1.282 . S
C140 O141 1.306 . S
C140 O143 1.160 . S
O141 C140 1.306 . S
O141 Cd142 2.228 . S
Cd142 O141 2.228 . S
Cd142 O146 2.273 . S
Cd142 O150 2.277 . S
O143 C140 1.160 . S
O143 Cd144 2.203 . S
Cd144 O143 2.203 . S
Cd144 O146 2.411 . S
Cd144 O147 2.333 . S
Cd144 O148 2.352 . S
Cd144 O152 2.277 . S
Cd144 O153 2.356 . S
C145 O150 1.209 . S
C145 O152 1.226 . S
O146 Cd142 2.273 . S
O146 Cd144 2.411 . S
O146 C149 1.320 . S
O147 Cd144 2.333 . S
O147 C149 1.214 . S
O148 Cd144 2.352 . S
O148 C151 1.258 . S
C149 O146 1.320 . S
C149 O147 1.214 . S
O150 Cd142 2.277 . S
O150 C145 1.209 . S
C151 O148 1.258 . S
C151 O153 1.282 . S
O152 Cd144 2.277 . S
O152 C145 1.226 . S
O153 Cd144 2.356 . S
O153 C151 1.282 . S
C154 O155 1.306 . S
C154 O157 1.160 . S
O155 C154 1.306 . S
O155 Cd156 2.228 . S
Cd156 O155 2.228 . S
Cd156 O160 2.273 . S
Cd156 O164 2.277 . S
O157 C154 1.160 . S
O157 Cd158 2.203 . S
Cd158 O157 2.203 . S
Cd158 O160 2.411 . S
Cd158 O161 2.333 . S
Cd158 O162 2.352 . S
Cd158 O166 2.277 . S
Cd158 O167 2.356 . S
C159 O164 1.209 . S
C159 O166 1.226 . S
O160 Cd156 2.273 . S
O160 Cd158 2.411 . S
O160 C163 1.320 . S
O161 Cd158 2.333 . S
O161 C163 1.214 . S
O162 Cd158 2.352 . S
O162 C165 1.258 . S
C163 O160 1.320 . S
C163 O161 1.214 . S
O164 Cd156 2.277 . S
O164 C159 1.209 . S
C165 O162 1.258 . S
C165 O167 1.282 . S
O166 Cd158 2.277 . S
O166 C159 1.226 . S
O167 Cd158 2.356 . S
O167 C165 1.282 . S
C168 O169 1.306 . S
C168 O171 1.160 . S
O169 C168 1.306 . S
O169 Cd170 2.228 . S
Cd170 O169 2.228 . S
Cd170 O174 2.273 . S
Cd170 O178 2.277 . S
O171 C168 1.160 . S
O171 Cd172 2.203 . S
Cd172 O171 2.203 . S
Cd172 O174 2.411 . S
Cd172 O175 2.333 . S
Cd172 O176 2.352 . S
Cd172 O180 2.277 . S
Cd172 O181 2.356 . S
C173 O178 1.209 . S
C173 O180 1.226 . S
O174 Cd170 2.273 . S
O174 Cd172 2.411 . S
O174 C177 1.320 . S
O175 Cd172 2.333 . S
O175 C177 1.214 . S
O176 Cd172 2.352 . S
O176 C179 1.258 . S
C177 O174 1.320 . S
C177 O175 1.214 . S
O178 Cd170 2.277 . S
O178 C173 1.209 . S
C179 O176 1.258 . S
C179 O181 1.282 . S
O180 Cd172 2.277 . S
O180 C173 1.226 . S
O181 Cd172 2.356 . S
O181 C179 1.282 . S
C182 O183 1.306 . S
C182 O185 1.160 . S
O183 C182 1.306 . S
O183 Cd184 2.228 . S
Cd184 O183 2.228 . S
Cd184 O188 2.273 . S
Cd184 O192 2.277 . S
O185 C182 1.160 . S
O185 Cd186 2.203 . S
Cd186 O185 2.203 . S
Cd186 O188 2.411 . S
Cd186 O189 2.333 . S
Cd186 O190 2.352 . S
Cd186 O194 2.277 . S
Cd186 O195 2.356 . S
C187 O192 1.209 . S
C187 O194 1.226 . S
O188 Cd184 2.273 . S
O188 Cd186 2.411 . S
O188 C191 1.320 . S
O189 Cd186 2.333 . S
O189 C191 1.214 . S
O190 Cd186 2.352 . S
O190 C193 1.258 . S
C191 O188 1.320 . S
C191 O189 1.214 . S
O192 Cd184 2.277 . S
O192 C187 1.209 . S
C193 O190 1.258 . S
C193 O195 1.282 . S
O194 Cd186 2.277 . S
O194 C187 1.226 . S
O195 Cd186 2.356 . S
O195 C193 1.282 . S
C196 O197 1.306 . S
C196 O199 1.160 . S
O197 C196 1.306 . S
O197 Cd198 2.228 . S
Cd198 O197 2.228 . S
Cd198 O202 2.273 . S
Cd198 O206 2.277 . S
O199 C196 1.160 . S
O199 Cd200 2.203 . S
Cd200 O199 2.203 . S
Cd200 O202 2.411 . S
Cd200 O203 2.333 . S
Cd200 O204 2.352 . S
Cd200 O208 2.277 . S
Cd200 O209 2.356 . S
C201 O206 1.209 . S
C201 O208 1.226 . S
O202 Cd198 2.273 . S
O202 Cd200 2.411 . S
O202 C205 1.320 . S
O203 Cd200 2.333 . S
O203 C205 1.214 . S
O204 Cd200 2.352 . S
O204 C207 1.258 . S
C205 O202 1.320 . S
C205 O203 1.214 . S
O206 Cd198 2.277 . S
O206 C201 1.209 . S
C207 O204 1.258 . S
C207 O209 1.282 . S
O208 Cd200 2.277 . S
O208 C201 1.226 . S
O209 Cd200 2.356 . S
O209 C207 1.282 . S
C210 O211 1.306 . S
C210 O213 1.160 . S
O211 C210 1.306 . S
O211 Cd212 2.228 . S
Cd212 O211 2.228 . S
Cd212 O216 2.273 . S
Cd212 O220 2.277 . S
O213 C210 1.160 . S
O213 Cd214 2.203 . S
Cd214 O213 2.203 . S
Cd214 O216 2.411 . S
Cd214 O217 2.333 . S
Cd214 O218 2.352 . S
Cd214 O222 2.277 . S
Cd214 O223 2.356 . S
C215 O220 1.209 . S
C215 O222 1.226 . S
O216 Cd212 2.273 . S
O216 Cd214 2.411 . S
O216 C219 1.320 . S
O217 Cd214 2.333 . S
O217 C219 1.214 . S
O218 Cd214 2.352 . S
O218 C221 1.258 . S
C219 O216 1.320 . S
C219 O217 1.214 . S
O220 Cd212 2.277 . S
O220 C215 1.209 . S
C221 O218 1.258 . S
C221 O223 1.282 . S
O222 Cd214 2.277 . S
O222 C215 1.226 . S
O223 Cd214 2.356 . S
O223 C221 1.282 . S
H224 C230 0.930 . S
H225 C234 0.930 . S
H226 C239 0.929 . S
H227 C237 0.929 . S
H228 C232 0.929 . S
H229 C238 0.929 . S
C230 H224 0.930 . S
C230 C231 1.367 . S
C230 C238 1.378 . S
C231 C230 1.367 . S
C231 C239 1.433 . S
C232 H228 0.929 . S
C232 C234 1.378 . S
C232 C236 1.350 . S
C233 C236 1.463 1_455 S
C233 C238 1.350 . S
C233 N241 1.427 . S
C234 H225 0.930 . S
C234 C232 1.378 . S
C234 C235 1.367 . S
C235 C234 1.367 . S
C235 C237 1.433 . S
C236 C232 1.350 . S
C236 C233 1.463 1_655 S
C236 N240 1.427 . S
C237 H227 0.929 . S
C237 C235 1.433 . S
C237 N240 1.384 . S
C238 H229 0.929 . S
C238 C230 1.378 . S
C238 C233 1.350 . S
C239 H226 0.929 . S
C239 C231 1.433 . S
C239 N241 1.384 . S
N240 C236 1.427 . S
N240 C237 1.384 . S
N241 C233 1.427 . S
N241 C239 1.384 . S
H242 C248 0.930 . S
H243 C252 0.930 . S
H244 C257 0.929 . S
H245 C255 0.929 . S
H246 C250 0.929 . S
H247 C256 0.929 . S
C248 H242 0.930 . S
C248 C249 1.367 . S
C248 C256 1.378 . S
C249 C248 1.367 . S
C249 C257 1.433 . S
C250 H246 0.929 . S
C250 C252 1.378 . S
C250 C254 1.350 . S
C251 C254 1.463 1_655 S
C251 C256 1.350 . S
C251 N259 1.427 . S
C252 H243 0.930 . S
C252 C250 1.378 . S
C252 C253 1.367 . S
C253 C252 1.367 . S
C253 C255 1.433 . S
C254 C250 1.350 . S
C254 C251 1.463 1_455 S
C254 N258 1.427 . S
C255 H245 0.929 . S
C255 C253 1.433 . S
C255 N258 1.384 . S
C256 H247 0.929 . S
C256 C248 1.378 . S
C256 C251 1.350 . S
C257 H244 0.929 . S
C257 C249 1.433 . S
C257 N259 1.384 . S
N258 C254 1.427 . S
N258 C255 1.384 . S
N259 C251 1.427 . S
N259 C257 1.384 . S
H260 C266 0.930 . S
H261 C270 0.930 . S
H262 C275 0.929 . S
H263 C273 0.929 . S
H264 C268 0.929 . S
H265 C274 0.929 . S
C266 H260 0.930 . S
C266 C267 1.367 . S
C266 C274 1.378 . S
C267 C266 1.367 . S
C267 C275 1.433 . S
C268 H264 0.929 . S
C268 C270 1.378 . S
C268 C272 1.350 . S
C269 C272 1.463 1_655 S
C269 C274 1.350 . S
C269 N277 1.427 . S
C270 H261 0.930 . S
C270 C268 1.378 . S
C270 C271 1.367 . S
C271 C270 1.367 . S
C271 C273 1.433 . S
C272 C268 1.350 . S
C272 C269 1.463 1_455 S
C272 N276 1.427 . S
C273 H263 0.929 . S
C273 C271 1.433 . S
C273 N276 1.384 . S
C274 H265 0.929 . S
C274 C266 1.378 . S
C274 C269 1.350 . S
C275 H262 0.929 . S
C275 C267 1.433 . S
C275 N277 1.384 . S
N276 C272 1.427 . S
N276 C273 1.384 . S
N277 C269 1.427 . S
N277 C275 1.384 . S
H278 C284 0.930 . S
H279 C288 0.930 . S
H280 C293 0.929 . S
H281 C291 0.929 . S
H282 C286 0.929 . S
H283 C292 0.929 . S
C284 H278 0.930 . S
C284 C285 1.367 . S
C284 C292 1.378 . S
C285 C284 1.367 . S
C285 C293 1.433 . S
C286 H282 0.929 . S
C286 C288 1.378 . S
C286 C290 1.350 . S
C287 C290 1.463 1_455 S
C287 C292 1.350 . S
C287 N295 1.427 . S
C288 H279 0.930 . S
C288 C286 1.378 . S
C288 C289 1.367 . S
C289 C288 1.367 . S
C289 C291 1.433 . S
C290 C286 1.350 . S
C290 C287 1.463 1_655 S
C290 N294 1.427 . S
C291 H281 0.929 . S
C291 C289 1.433 . S
C291 N294 1.384 . S
C292 H283 0.929 . S
C292 C284 1.378 . S
C292 C287 1.350 . S
C293 H280 0.929 . S
C293 C285 1.433 . S
C293 N295 1.384 . S
N294 C290 1.427 . S
N294 C291 1.384 . S
N295 C287 1.427 . S
N295 C293 1.384 . S
H296 C302 0.930 . S
H297 C306 0.930 . S
H298 C311 0.929 . S
H299 C309 0.929 . S
H300 C304 0.929 . S
H301 C310 0.929 . S
C302 H296 0.930 . S
C302 C303 1.367 . S
C302 C310 1.378 . S
C303 C302 1.367 . S
C303 C311 1.433 . S
C304 H300 0.929 . S
C304 C306 1.378 . S
C304 C308 1.350 . S
C305 C308 1.463 . S
C305 C310 1.350 . S
C305 N313 1.427 . S
C306 H297 0.930 . S
C306 C304 1.378 . S
C306 C307 1.367 . S
C307 C306 1.367 . S
C307 C309 1.433 . S
C308 C304 1.350 . S
C308 C305 1.463 . S
C308 N312 1.427 . S
C309 H299 0.929 . S
C309 C307 1.433 . S
C309 N312 1.384 . S
C310 H301 0.929 . S
C310 C302 1.378 . S
C310 C305 1.350 . S
C311 H298 0.929 . S
C311 C303 1.433 . S
C311 N313 1.384 . S
N312 C308 1.427 . S
N312 C309 1.384 . S
N313 C305 1.427 . S
N313 C311 1.384 . S
H314 C320 0.930 . S
H315 C324 0.930 . S
H316 C329 0.929 . S
H317 C327 0.929 . S
H318 C322 0.929 . S
H319 C328 0.929 . S
C320 H314 0.930 . S
C320 C321 1.367 . S
C320 C328 1.378 . S
C321 C320 1.367 . S
C321 C329 1.433 . S
C322 H318 0.929 . S
C322 C324 1.378 . S
C322 C326 1.350 . S
C323 C326 1.463 . S
C323 C328 1.350 . S
C323 N331 1.427 . S
C324 H315 0.930 . S
C324 C322 1.378 . S
C324 C325 1.367 . S
C325 C324 1.367 . S
C325 C327 1.433 . S
C326 C322 1.350 . S
C326 C323 1.463 . S
C326 N330 1.427 . S
C327 H317 0.929 . S
C327 C325 1.433 . S
C327 N330 1.384 . S
C328 H319 0.929 . S
C328 C320 1.378 . S
C328 C323 1.350 . S
C329 H316 0.929 . S
C329 C321 1.433 . S
C329 N331 1.384 . S
N330 C326 1.427 . S
N330 C327 1.384 . S
N331 C323 1.427 . S
N331 C329 1.384 . S
H332 C338 0.930 . S
H333 C342 0.930 . S
H334 C347 0.929 . S
H335 C345 0.929 . S
H336 C340 0.929 . S
H337 C346 0.929 . S
C338 H332 0.930 . S
C338 C339 1.367 . S
C338 C346 1.378 . S
C339 C338 1.367 . S
C339 C347 1.433 . S
C340 H336 0.929 . S
C340 C342 1.378 . S
C340 C344 1.350 . S
C341 C344 1.463 . S
C341 C346 1.350 . S
C341 N349 1.427 . S
C342 H333 0.930 . S
C342 C340 1.378 . S
C342 C343 1.367 . S
C343 C342 1.367 . S
C343 C345 1.433 . S
C344 C340 1.350 . S
C344 C341 1.463 . S
C344 N348 1.427 . S
C345 H335 0.929 . S
C345 C343 1.433 . S
C345 N348 1.384 . S
C346 H337 0.929 . S
C346 C338 1.378 . S
C346 C341 1.350 . S
C347 H334 0.929 . S
C347 C339 1.433 . S
C347 N349 1.384 . S
N348 C344 1.427 . S
N348 C345 1.384 . S
N349 C341 1.427 . S
N349 C347 1.384 . S
H350 C356 0.930 . S
H351 C360 0.930 . S
H352 C365 0.929 . S
H353 C363 0.929 . S
H354 C358 0.929 . S
H355 C364 0.929 . S
C356 H350 0.930 . S
C356 C357 1.367 . S
C356 C364 1.378 . S
C357 C356 1.367 . S
C357 C365 1.433 . S
C358 H354 0.929 . S
C358 C360 1.378 . S
C358 C362 1.350 . S
C359 C362 1.463 . S
C359 C364 1.350 . S
C359 N367 1.427 . S
C360 H351 0.930 . S
C360 C358 1.378 . S
C360 C361 1.367 . S
C361 C360 1.367 . S
C361 C363 1.433 . S
C362 C358 1.350 . S
C362 C359 1.463 . S
C362 N366 1.427 . S
C363 H353 0.929 . S
C363 C361 1.433 . S
C363 N366 1.384 . S
C364 H355 0.929 . S
C364 C356 1.378 . S
C364 C359 1.350 . S
C365 H352 0.929 . S
C365 C357 1.433 . S
C365 N367 1.384 . S
N366 C362 1.427 . S
N366 C363 1.384 . S
N367 C359 1.427 . S
N367 C365 1.384 . S
H368 C374 0.930 . S
H369 C378 0.930 . S
H370 C383 0.929 . S
H371 C381 0.929 . S
H372 C376 0.929 . S
H373 C382 0.929 . S
C374 H368 0.930 . S
C374 C375 1.367 . S
C374 C382 1.378 . S
C375 C374 1.367 . S
C375 C383 1.433 . S
C376 H372 0.929 . S
C376 C378 1.378 . S
C376 C380 1.350 . S
C377 C380 1.463 . S
C377 C382 1.350 . S
C377 N385 1.427 . S
C378 H369 0.930 . S
C378 C376 1.378 . S
C378 C379 1.367 . S
C379 C378 1.367 . S
C379 C381 1.433 . S
C380 C376 1.350 . S
C380 C377 1.463 . S
C380 N384 1.427 . S
C381 H371 0.929 . S
C381 C379 1.433 . S
C381 N384 1.384 . S
C382 H373 0.929 . S
C382 C374 1.378 . S
C382 C377 1.350 . S
C383 H370 0.929 . S
C383 C375 1.433 . S
C383 N385 1.384 . S
N384 C380 1.427 . S
N384 C381 1.384 . S
N385 C377 1.427 . S
N385 C383 1.384 . S
H386 C392 0.930 . S
H387 C396 0.930 . S
H388 C401 0.929 . S
H389 C399 0.929 . S
H390 C394 0.929 . S
H391 C400 0.929 . S
C392 H386 0.930 . S
C392 C393 1.367 . S
C392 C400 1.378 . S
C393 C392 1.367 . S
C393 C401 1.433 . S
C394 H390 0.929 . S
C394 C396 1.378 . S
C394 C398 1.350 . S
C395 C398 1.463 . S
C395 C400 1.350 . S
C395 N403 1.427 . S
C396 H387 0.930 . S
C396 C394 1.378 . S
C396 C397 1.367 . S
C397 C396 1.367 . S
C397 C399 1.433 . S
C398 C394 1.350 . S
C398 C395 1.463 . S
C398 N402 1.427 . S
C399 H389 0.929 . S
C399 C397 1.433 . S
C399 N402 1.384 . S
C400 H391 0.929 . S
C400 C392 1.378 . S
C400 C395 1.350 . S
C401 H388 0.929 . S
C401 C393 1.433 . S
C401 N403 1.384 . S
N402 C398 1.427 . S
N402 C399 1.384 . S
N403 C395 1.427 . S
N403 C401 1.384 . S
H404 C410 0.930 . S
H405 C414 0.930 . S
H406 C419 0.929 . S
H407 C417 0.929 . S
H408 C412 0.929 . S
H409 C418 0.929 . S
C410 H404 0.930 . S
C410 C411 1.367 . S
C410 C418 1.378 . S
C411 C410 1.367 . S
C411 C419 1.433 . S
C412 H408 0.929 . S
C412 C414 1.378 . S
C412 C416 1.350 . S
C413 C416 1.463 . S
C413 C418 1.350 . S
C413 N421 1.427 . S
C414 H405 0.930 . S
C414 C412 1.378 . S
C414 C415 1.367 . S
C415 C414 1.367 . S
C415 C417 1.433 . S
C416 C412 1.350 . S
C416 C413 1.463 . S
C416 N420 1.427 . S
C417 H407 0.929 . S
C417 C415 1.433 . S
C417 N420 1.384 . S
C418 H409 0.929 . S
C418 C410 1.378 . S
C418 C413 1.350 . S
C419 H406 0.929 . S
C419 C411 1.433 . S
C419 N421 1.384 . S
N420 C416 1.427 . S
N420 C417 1.384 . S
N421 C413 1.427 . S
N421 C419 1.384 . S
H422 C428 0.930 . S
H423 C432 0.930 . S
H424 C437 0.929 . S
H425 C435 0.929 . S
H426 C430 0.929 . S
H427 C436 0.929 . S
C428 H422 0.930 . S
C428 C429 1.367 . S
C428 C436 1.378 . S
C429 C428 1.367 . S
C429 C437 1.433 . S
C430 H426 0.929 . S
C430 C432 1.378 . S
C430 C434 1.350 . S
C431 C434 1.463 . S
C431 C436 1.350 . S
C431 N439 1.427 . S
C432 H423 0.930 . S
C432 C430 1.378 . S
C432 C433 1.367 . S
C433 C432 1.367 . S
C433 C435 1.433 . S
C434 C430 1.350 . S
C434 C431 1.463 . S
C434 N438 1.427 . S
C435 H425 0.929 . S
C435 C433 1.433 . S
C435 N438 1.384 . S
C436 H427 0.929 . S
C436 C428 1.378 . S
C436 C431 1.350 . S
C437 H424 0.929 . S
C437 C429 1.433 . S
C437 N439 1.384 . S
N438 C434 1.427 . S
N438 C435 1.384 . S
N439 C431 1.427 . S
N439 C437 1.384 . S
H440 C446 0.930 . S
H441 C450 0.930 . S
H442 C455 0.929 . S
H443 C453 0.929 . S
H444 C448 0.929 . S
H445 C454 0.929 . S
C446 H440 0.930 . S
C446 C447 1.367 . S
C446 C454 1.378 . S
C447 C446 1.367 . S
C447 C455 1.433 . S
C448 H444 0.929 . S
C448 C450 1.378 . S
C448 C452 1.350 . S
C449 C452 1.463 . S
C449 C454 1.350 . S
C449 N457 1.427 . S
C450 H441 0.930 . S
C450 C448 1.378 . S
C450 C451 1.367 . S
C451 C450 1.367 . S
C451 C453 1.433 . S
C452 C448 1.350 . S
C452 C449 1.463 . S
C452 N456 1.427 . S
C453 H443 0.929 . S
C453 C451 1.433 . S
C453 N456 1.384 . S
C454 H445 0.929 . S
C454 C446 1.378 . S
C454 C449 1.350 . S
C455 H442 0.929 . S
C455 C447 1.433 . S
C455 N457 1.384 . S
N456 C452 1.427 . S
N456 C453 1.384 . S
N457 C449 1.427 . S
N457 C455 1.384 . S
H458 C464 0.930 . S
H459 C468 0.930 . S
H460 C473 0.929 . S
H461 C471 0.929 . S
H462 C466 0.929 . S
H463 C472 0.929 . S
C464 H458 0.930 . S
C464 C465 1.367 . S
C464 C472 1.378 . S
C465 C464 1.367 . S
C465 C473 1.433 . S
C466 H462 0.929 . S
C466 C468 1.378 . S
C466 C470 1.350 . S
C467 C470 1.463 . S
C467 C472 1.350 . S
C467 N475 1.427 . S
C468 H459 0.930 . S
C468 C466 1.378 . S
C468 C469 1.367 . S
C469 C468 1.367 . S
C469 C471 1.433 . S
C470 C466 1.350 . S
C470 C467 1.463 . S
C470 N474 1.427 . S
C471 H461 0.929 . S
C471 C469 1.433 . S
C471 N474 1.384 . S
C472 H463 0.929 . S
C472 C464 1.378 . S
C472 C467 1.350 . S
C473 H460 0.929 . S
C473 C465 1.433 . S
C473 N475 1.384 . S
N474 C470 1.427 . S
N474 C471 1.384 . S
N475 C467 1.427 . S
N475 C473 1.384 . S
H476 C482 0.930 . S
H477 C486 0.930 . S
H478 C491 0.929 . S
H479 C489 0.929 . S
H480 C484 0.929 . S
H481 C490 0.929 . S
C482 H476 0.930 . S
C482 C483 1.367 . S
C482 C490 1.378 . S
C483 C482 1.367 . S
C483 C491 1.433 . S
C484 H480 0.929 . S
C484 C486 1.378 . S
C484 C488 1.350 . S
C485 C488 1.463 . S
C485 C490 1.350 . S
C485 N493 1.427 . S
C486 H477 0.930 . S
C486 C484 1.378 . S
C486 C487 1.367 . S
C487 C486 1.367 . S
C487 C489 1.433 . S
C488 C484 1.350 . S
C488 C485 1.463 . S
C488 N492 1.427 . S
C489 H479 0.929 . S
C489 C487 1.433 . S
C489 N492 1.384 . S
C490 H481 0.929 . S
C490 C482 1.378 . S
C490 C485 1.350 . S
C491 H478 0.929 . S
C491 C483 1.433 . S
C491 N493 1.384 . S
N492 C488 1.427 . S
N492 C489 1.384 . S
N493 C485 1.427 . S
N493 C491 1.384 . S
H494 C500 0.930 . S
H495 C504 0.930 . S
H496 C509 0.929 . S
H497 C507 0.929 . S
H498 C502 0.929 . S
H499 C508 0.929 . S
C500 H494 0.930 . S
C500 C501 1.367 . S
C500 C508 1.378 . S
C501 C500 1.367 . S
C501 C509 1.433 . S
C502 H498 0.929 . S
C502 C504 1.378 . S
C502 C506 1.350 . S
C503 C506 1.463 . S
C503 C508 1.350 . S
C503 N511 1.427 . S
C504 H495 0.930 . S
C504 C502 1.378 . S
C504 C505 1.367 . S
C505 C504 1.367 . S
C505 C507 1.433 . S
C506 C502 1.350 . S
C506 C503 1.463 . S
C506 N510 1.427 . S
C507 H497 0.929 . S
C507 C505 1.433 . S
C507 N510 1.384 . S
C508 H499 0.929 . S
C508 C500 1.378 . S
C508 C503 1.350 . S
C509 H496 0.929 . S
C509 C501 1.433 . S
C509 N511 1.384 . S
N510 C506 1.427 . S
N510 C507 1.384 . S
N511 C503 1.427 . S
N511 C509 1.384 . S
H512 C518 0.930 . S
H513 C522 0.930 . S
H514 C527 0.929 . S
H515 C525 0.929 . S
H516 C520 0.929 . S
H517 C526 0.929 . S
C518 H512 0.930 . S
C518 C519 1.367 . S
C518 C526 1.378 . S
C519 C518 1.367 . S
C519 C527 1.433 . S
C520 H516 0.929 . S
C520 C522 1.378 . S
C520 C524 1.350 . S
C521 C524 1.463 1_556 S
C521 C526 1.350 . S
C521 N529 1.427 1_556 S
C522 H513 0.930 . S
C522 C520 1.378 . S
C522 C523 1.367 . S
C523 C522 1.367 . S
C523 C525 1.433 . S
C524 C520 1.350 . S
C524 C521 1.463 1_554 S
C524 N528 1.427 1_554 S
C525 H515 0.929 . S
C525 C523 1.433 . S
C525 N528 1.384 1_554 S
C526 H517 0.929 . S
C526 C518 1.378 . S
C526 C521 1.350 . S
C527 H514 0.929 . S
C527 C519 1.433 . S
C527 N529 1.384 1_556 S
N528 C524 1.427 1_556 S
N528 C525 1.384 1_556 S
N529 C521 1.427 1_554 S
N529 C527 1.384 1_554 S
H530 C536 0.930 . S
H531 C540 0.930 . S
H532 C545 0.929 . S
H533 C543 0.929 . S
H534 C538 0.929 . S
H535 C544 0.929 . S
C536 H530 0.930 . S
C536 C537 1.367 . S
C536 C544 1.378 . S
C537 C536 1.367 . S
C537 C545 1.433 . S
C538 H534 0.929 . S
C538 C540 1.378 . S
C538 C542 1.350 . S
C539 C542 1.463 . S
C539 C544 1.350 . S
C539 N547 1.427 . S
C540 H531 0.930 . S
C540 C538 1.378 . S
C540 C541 1.367 . S
C541 C540 1.367 . S
C541 C543 1.433 . S
C542 C538 1.350 . S
C542 C539 1.463 . S
C542 N546 1.427 . S
C543 H533 0.929 . S
C543 C541 1.433 . S
C543 N546 1.384 . S
C544 H535 0.929 . S
C544 C536 1.378 . S
C544 C539 1.350 . S
C545 H532 0.929 . S
C545 C537 1.433 . S
C545 N547 1.384 . S
N546 C542 1.427 . S
N546 C543 1.384 . S
N547 C539 1.427 . S
N547 C545 1.384 . S
H548 C554 0.930 . S
H549 C558 0.930 . S
H550 C563 0.929 1_556 S
H551 C561 0.929 . S
H552 C556 0.929 . S
H553 C562 0.929 . S
C554 H548 0.930 . S
C554 C555 1.367 . S
C554 C562 1.378 . S
C555 C554 1.367 . S
C555 C563 1.433 . S
C556 H552 0.929 . S
C556 C558 1.378 . S
C556 C560 1.350 . S
C557 C560 1.463 1_554 S
C557 C562 1.350 . S
C557 N565 1.427 1_554 S
C558 H549 0.930 . S
C558 C556 1.378 . S
C558 C559 1.367 . S
C559 C558 1.367 . S
C559 C561 1.433 . S
C560 C556 1.350 . S
C560 C557 1.463 1_556 S
C560 N564 1.427 1_556 S
C561 H551 0.929 . S
C561 C559 1.433 . S
C561 N564 1.384 1_556 S
C562 H553 0.929 . S
C562 C554 1.378 . S
C562 C557 1.350 . S
C563 H550 0.929 1_554 S
C563 C555 1.433 . S
C563 N565 1.384 1_554 S
N564 C560 1.427 1_554 S
N564 C561 1.384 1_554 S
N565 C557 1.427 1_556 S
N565 C563 1.384 1_556 S
H566 C572 0.930 . S
H567 C576 0.930 . S
H568 C581 0.929 . S
H569 C579 0.929 . S
H570 C574 0.929 . S
H571 C580 0.929 . S
C572 H566 0.930 . S
C572 C573 1.367 . S
C572 C580 1.378 . S
C573 C572 1.367 . S
C573 C581 1.433 . S
C574 H570 0.929 . S
C574 C576 1.378 . S
C574 C578 1.350 . S
C575 C578 1.463 . S
C575 C580 1.350 . S
C575 N583 1.427 . S
C576 H567 0.930 . S
C576 C574 1.378 . S
C576 C577 1.367 . S
C577 C576 1.367 . S
C577 C579 1.433 . S
C578 C574 1.350 . S
C578 C575 1.463 . S
C578 N582 1.427 . S
C579 H569 0.929 . S
C579 C577 1.433 . S
C579 N582 1.384 . S
C580 H571 0.929 . S
C580 C572 1.378 . S
C580 C575 1.350 . S
C581 H568 0.929 . S
C581 C573 1.433 . S
C581 N583 1.384 . S
N582 C578 1.427 . S
N582 C579 1.384 . S
N583 C575 1.427 . S
N583 C581 1.384 . S
H584 C590 0.930 . S
H585 C594 0.930 . S
H586 C599 0.929 . S
H587 C597 0.929 . S
H588 C592 0.929 . S
H589 C598 0.929 . S
C590 H584 0.930 . S
C590 C591 1.367 . S
C590 C598 1.378 . S
C591 C590 1.367 . S
C591 C599 1.433 . S
C592 H588 0.929 . S
C592 C594 1.378 . S
C592 C596 1.350 . S
C593 C596 1.463 1_554 S
C593 C598 1.350 . S
C593 N601 1.427 . S
C594 H585 0.930 . S
C594 C592 1.378 . S
C594 C595 1.367 . S
C595 C594 1.367 . S
C595 C597 1.433 . S
C596 C592 1.350 . S
C596 C593 1.463 1_556 S
C596 N600 1.427 . S
C597 H587 0.929 . S
C597 C595 1.433 . S
C597 N600 1.384 . S
C598 H589 0.929 . S
C598 C590 1.378 . S
C598 C593 1.350 . S
C599 H586 0.929 . S
C599 C591 1.433 . S
C599 N601 1.384 . S
N600 C596 1.427 . S
N600 C597 1.384 . S
N601 C593 1.427 . S
N601 C599 1.384 . S
H602 C608 0.930 . S
H603 C612 0.930 . S
H604 C617 0.929 . S
H605 C615 0.929 . S
H606 C610 0.929 . S
H607 C616 0.929 . S
C608 H602 0.930 . S
C608 C609 1.367 . S
C608 C616 1.378 . S
C609 C608 1.367 . S
C609 C617 1.433 . S
C610 H606 0.929 . S
C610 C612 1.378 . S
C610 C614 1.350 . S
C611 C614 1.463 . S
C611 C616 1.350 . S
C611 N619 1.427 . S
C612 H603 0.930 . S
C612 C610 1.378 . S
C612 C613 1.367 . S
C613 C612 1.367 . S
C613 C615 1.433 . S
C614 C610 1.350 . S
C614 C611 1.463 . S
C614 N618 1.427 . S
C615 H605 0.929 . S
C615 C613 1.433 . S
C615 N618 1.384 . S
C616 H607 0.929 . S
C616 C608 1.378 . S
C616 C611 1.350 . S
C617 H604 0.929 . S
C617 C609 1.433 . S
C617 N619 1.384 . S
N618 C614 1.427 . S
N618 C615 1.384 . S
N619 C611 1.427 . S
N619 C617 1.384 . S
H620 C626 0.941 . S
H621 C630 0.944 . S
H622 C635 0.929 . S
H623 C633 0.929 . S
H624 C628 0.929 . S
H625 C634 0.929 . S
C626 H620 0.941 . S
C626 C627 1.367 . S
C626 C634 1.378 1_554 S
C627 C626 1.367 . S
C627 C635 1.433 . S
C628 H624 0.929 . S
C628 C630 1.378 1_554 S
C628 C632 1.350 1_554 S
C629 C632 1.463 1_554 S
C629 C634 1.350 1_554 S
C629 N637 1.427 . S
C630 H621 0.944 . S
C630 C628 1.378 1_556 S
C630 C631 1.367 . S
C631 C630 1.367 . S
C631 C633 1.433 . S
C632 C628 1.350 1_556 S
C632 C629 1.463 1_556 S
C632 N636 1.427 . S
C633 H623 0.929 . S
C633 C631 1.433 . S
C633 N636 1.384 . S
C634 H625 0.929 . S
C634 C626 1.378 1_556 S
C634 C629 1.350 1_556 S
C635 H622 0.929 . S
C635 C627 1.433 . S
C635 N637 1.384 . S
N636 C632 1.427 . S
N636 C633 1.384 . S
N637 C629 1.427 . S
N637 C635 1.384 . S
H638 C644 0.930 . S
H639 C648 0.930 . S
H640 C653 0.929 . S
H641 C651 0.929 . S
H642 C646 0.929 . S
H643 C652 0.929 . S
C644 H638 0.930 . S
C644 C645 1.367 . S
C644 C652 1.378 . S
C645 C644 1.367 . S
C645 C653 1.433 . S
C646 H642 0.929 . S
C646 C648 1.378 . S
C646 C650 1.350 . S
C647 C650 1.463 . S
C647 C652 1.350 . S
C647 N655 1.427 . S
C648 H639 0.930 . S
C648 C646 1.378 . S
C648 C649 1.367 . S
C649 C648 1.367 . S
C649 C651 1.433 . S
C650 C646 1.350 . S
C650 C647 1.463 . S
C650 N654 1.427 . S
C651 H641 0.929 . S
C651 C649 1.433 . S
C651 N654 1.384 . S
C652 H643 0.929 . S
C652 C644 1.378 . S
C652 C647 1.350 . S
C653 H640 0.929 . S
C653 C645 1.433 . S
C653 N655 1.384 . S
N654 C650 1.427 . S
N654 C651 1.384 . S
N655 C647 1.427 . S
N655 C653 1.384 . S
H656 C662 0.930 . S
H657 C666 0.930 . S
H658 C671 0.929 1_554 S
H659 C669 0.929 1_556 S
H660 C664 0.929 . S
H661 C670 0.929 . S
C662 H656 0.930 . S
C662 C663 1.367 . S
C662 C670 1.378 . S
C663 C662 1.367 . S
C663 C671 1.433 . S
C664 H660 0.929 . S
C664 C666 1.378 . S
C664 C668 1.350 . S
C665 C668 1.463 1_556 S
C665 C670 1.350 . S
C665 N673 1.427 1_556 S
C666 H657 0.930 . S
C666 C664 1.378 . S
C666 C667 1.367 . S
C667 C666 1.367 . S
C667 C669 1.433 . S
C668 C664 1.350 . S
C668 C665 1.463 1_554 S
C668 N672 1.427 1_554 S
C669 H659 0.929 1_554 S
C669 C667 1.433 . S
C669 N672 1.384 1_554 S
C670 H661 0.929 . S
C670 C662 1.378 . S
C670 C665 1.350 . S
C671 H658 0.929 1_556 S
C671 C663 1.433 . S
C671 N673 1.384 1_556 S
N672 C668 1.427 1_556 S
N672 C669 1.384 1_556 S
N673 C665 1.427 1_554 S
N673 C671 1.384 1_554 S
H674 C680 0.930 . S
H675 C684 0.930 . S
H676 C689 0.929 . S
H677 C687 0.929 . S
H678 C682 0.929 . S
H679 C688 0.929 . S
C680 H674 0.930 . S
C680 C681 1.367 . S
C680 C688 1.378 . S
C681 C680 1.367 . S
C681 C689 1.433 . S
C682 H678 0.929 . S
C682 C684 1.378 . S
C682 C686 1.350 . S
C683 C686 1.463 . S
C683 C688 1.350 . S
C683 N691 1.427 . S
C684 H675 0.930 . S
C684 C682 1.378 . S
C684 C685 1.367 . S
C685 C684 1.367 . S
C685 C687 1.433 . S
C686 C682 1.350 . S
C686 C683 1.463 . S
C686 N690 1.427 . S
C687 H677 0.929 . S
C687 C685 1.433 . S
C687 N690 1.384 . S
C688 H679 0.929 . S
C688 C680 1.378 . S
C688 C683 1.350 . S
C689 H676 0.929 . S
C689 C681 1.433 . S
C689 N691 1.384 . S
N690 C686 1.427 . S
N690 C687 1.384 . S
N691 C683 1.427 . S
N691 C689 1.384 . S
H692 C698 0.930 1_556 S
H693 C702 0.930 1_554 S
H694 C707 0.929 . S
H695 C705 0.929 . S
H696 C700 0.929 . S
H697 C706 0.929 . S
C698 H692 0.930 1_554 S
C698 C699 1.367 . S
C698 C706 1.378 1_554 S
C699 C698 1.367 . S
C699 C707 1.433 . S
C700 H696 0.929 . S
C700 C702 1.378 1_554 S
C700 C704 1.350 1_554 S
C701 C704 1.463 1_554 S
C701 C706 1.350 1_554 S
C701 N709 1.427 . S
C702 H693 0.930 1_556 S
C702 C700 1.378 1_556 S
C702 C703 1.367 . S
C703 C702 1.367 . S
C703 C705 1.433 . S
C704 C700 1.350 1_556 S
C704 C701 1.463 1_556 S
C704 N708 1.427 . S
C705 H695 0.929 . S
C705 C703 1.433 . S
C705 N708 1.384 . S
C706 H697 0.929 . S
C706 C698 1.378 1_556 S
C706 C701 1.350 1_556 S
C707 H694 0.929 . S
C707 C699 1.433 . S
C707 N709 1.384 . S
N708 C704 1.427 . S
N708 C705 1.384 . S
N709 C701 1.427 . S
N709 C707 1.384 . S
H710 C716 0.930 . S
H711 C720 0.930 . S
H712 C725 0.929 . S
H713 C723 0.929 . S
H714 C718 0.929 . S
H715 C724 0.929 . S
C716 H710 0.930 . S
C716 C717 1.367 . S
C716 C724 1.378 . S
C717 C716 1.367 . S
C717 C725 1.433 . S
C718 H714 0.929 . S
C718 C720 1.378 . S
C718 C722 1.350 . S
C719 C722 1.463 . S
C719 C724 1.350 . S
C719 N727 1.427 . S
C720 H711 0.930 . S
C720 C718 1.378 . S
C720 C721 1.367 . S
C721 C720 1.367 . S
C721 C723 1.433 . S
C722 C718 1.350 . S
C722 C719 1.463 . S
C722 N726 1.427 . S
C723 H713 0.929 . S
C723 C721 1.433 . S
C723 N726 1.384 . S
C724 H715 0.929 . S
C724 C716 1.378 . S
C724 C719 1.350 . S
C725 H712 0.929 . S
C725 C717 1.433 . S
C725 N727 1.384 . S
N726 C722 1.427 . S
N726 C723 1.384 . S
N727 C719 1.427 . S
N727 C725 1.384 . S
H728 C734 0.930 . S
H729 C738 0.930 . S
H730 C743 0.929 1_554 S
H731 C741 0.929 1_556 S
H732 C736 0.929 . S
H733 C742 0.929 . S
C734 H728 0.930 . S
C734 C735 1.367 . S
C734 C742 1.378 . S
C735 C734 1.367 . S
C735 C743 1.433 . S
C736 H732 0.929 . S
C736 C738 1.378 . S
C736 C740 1.350 . S
C737 C740 1.463 1_546 S
C737 C742 1.350 . S
C737 N745 1.427 1_556 S
C738 H729 0.930 . S
C738 C736 1.378 . S
C738 C739 1.367 . S
C739 C738 1.367 . S
C739 C741 1.433 . S
C740 C736 1.350 . S
C740 C737 1.463 1_564 S
C740 N744 1.427 1_554 S
C741 H731 0.929 1_554 S
C741 C739 1.433 . S
C741 N744 1.384 1_554 S
C742 H733 0.929 . S
C742 C734 1.378 . S
C742 C737 1.350 . S
C743 H730 0.929 1_556 S
C743 C735 1.433 . S
C743 N745 1.384 1_556 S
N744 C740 1.427 1_556 S
N744 C741 1.384 1_556 S
N745 C737 1.427 1_554 S
N745 C743 1.384 1_554 S
H746 C752 0.930 . S
H747 C756 0.930 . S
H748 C761 0.929 . S
H749 C759 0.929 . S
H750 C754 0.929 . S
H751 C760 0.929 . S
C752 H746 0.930 . S
C752 C753 1.367 . S
C752 C760 1.378 . S
C753 C752 1.367 . S
C753 C761 1.433 . S
C754 H750 0.929 . S
C754 C756 1.378 . S
C754 C758 1.350 . S
C755 C758 1.463 1_565 S
C755 C760 1.350 . S
C755 N763 1.427 . S
C756 H747 0.930 . S
C756 C754 1.378 . S
C756 C757 1.367 . S
C757 C756 1.367 . S
C757 C759 1.433 . S
C758 C754 1.350 . S
C758 C755 1.463 1_545 S
C758 N762 1.427 . S
C759 H749 0.929 . S
C759 C757 1.433 . S
C759 N762 1.384 . S
C760 H751 0.929 . S
C760 C752 1.378 . S
C760 C755 1.350 . S
C761 H748 0.929 . S
C761 C753 1.433 . S
C761 N763 1.384 . S
N762 C758 1.427 . S
N762 C759 1.384 . S
N763 C755 1.427 . S
N763 C761 1.384 . S
H764 C770 0.930 . S
H765 C774 0.930 . S
H766 C779 0.929 1_556 S
H767 C777 0.929 1_554 S
H768 C772 0.929 . S
H769 C778 0.929 . S
C770 H764 0.930 . S
C770 C771 1.367 . S
C770 C778 1.378 . S
C771 C770 1.367 . S
C771 C779 1.433 . S
C772 H768 0.929 . S
C772 C774 1.378 . S
C772 C776 1.350 . S
C773 C776 1.463 1_564 S
C773 C778 1.350 . S
C773 N781 1.427 1_554 S
C774 H765 0.930 . S
C774 C772 1.378 . S
C774 C775 1.367 . S
C775 C774 1.367 . S
C775 C777 1.433 . S
C776 C772 1.350 . S
C776 C773 1.463 1_546 S
C776 N780 1.427 1_556 S
C777 H767 0.929 1_556 S
C777 C775 1.433 . S
C777 N780 1.384 1_556 S
C778 H769 0.929 . S
C778 C770 1.378 . S
C778 C773 1.350 . S
C779 H766 0.929 1_554 S
C779 C771 1.433 . S
C779 N781 1.384 1_554 S
N780 C776 1.427 1_554 S
N780 C777 1.384 1_554 S
N781 C773 1.427 1_556 S
N781 C779 1.384 1_556 S
H782 C788 0.930 . S
H783 C792 0.930 . S
H784 C797 0.929 . S
H785 C795 0.929 . S
H786 C790 0.929 . S
H787 C796 0.929 . S
C788 H782 0.930 . S
C788 C789 1.367 . S
C788 C796 1.378 . S
C789 C788 1.367 . S
C789 C797 1.433 . S
C790 H786 0.929 . S
C790 C792 1.378 . S
C790 C794 1.350 . S
C791 C794 1.463 1_545 S
C791 C796 1.350 . S
C791 N799 1.427 . S
C792 H783 0.930 . S
C792 C790 1.378 . S
C792 C793 1.367 . S
C793 C792 1.367 . S
C793 C795 1.433 . S
C794 C790 1.350 . S
C794 C791 1.463 1_565 S
C794 N798 1.427 . S
C795 H785 0.929 . S
C795 C793 1.433 . S
C795 N798 1.384 . S
C796 H787 0.929 . S
C796 C788 1.378 . S
C796 C791 1.350 . S
C797 H784 0.929 . S
C797 C789 1.433 . S
C797 N799 1.384 . S
N798 C794 1.427 . S
N798 C795 1.384 . S
N799 C791 1.427 . S
N799 C797 1.384 . S
C231 C5 1.445 . S
C235 C89 1.449 . S
C249 C19 1.445 . S
C253 C103 1.449 . S
C267 C61 1.447 . S
C271 C33 1.446 . S
C285 C75 1.449 . S
C289 C47 1.444 . S
C303 C201 1.445 . S
C307 C117 1.449 . S
C321 C215 1.448 . S
C325 C131 1.445 . S
C339 C145 1.448 . S
C343 C173 1.446 . S
C357 C159 1.448 . S
C361 C187 1.446 . S
C375 C9 1.488 . S
C379 C70 1.469 . S
C393 C23 1.489 . S
C397 C56 1.460 . S
C411 C37 1.488 . S
C415 C98 1.469 . S
C429 C84 1.464 . S
C433 C51 1.488 . S
C447 C182 1.465 . S
C451 C121 1.489 . S
C465 C168 1.469 . S
C469 C135 1.488 . S
C483 C149 1.487 . S
C487 C210 1.470 . S
C501 C196 1.466 . S
C505 C163 1.489 . S
C519 C179 1.401 . S
C523 C11 1.406 . S
C537 C25 1.403 . S
C541 C193 1.397 . S
C555 C207 1.401 . S
C559 C39 1.405 . S
C573 C221 1.395 . S
C577 C53 1.402 . S
C591 C123 1.405 . S
C595 C67 1.400 . S
C609 C137 1.405 . S
C613 C81 1.400 . S
C627 C95 1.395 . S
C631 C151 1.402 . S
C645 C109 1.397 . S
C649 C165 1.404 . S
C663 C28 1.442 . S
C667 C0 1.444 . S
C681 C14 1.445 . S
C685 C42 1.442 . S
C699 C93 1.503 . S
C703 C65 1.502 . S
C717 C79 1.502 . S
C721 C107 1.503 . S
C735 C140 1.445 . S
C739 C112 1.442 . S
C753 C154 1.452 . S
C757 C126 1.449 . S
C771 C205 1.503 . S
C775 C177 1.503 . S
C789 C219 1.503 . S
C793 C191 1.503 . S
