# Generated by pormake.
# Topology uoq, (4)-cn, num edge types: 1
# Building blocks:
#     Node 0, Type 0, BuildingBlock: KUFVIS_clean_sbu_0, # of connection points: 4
#     Node 1, Type 0, BuildingBlock: KUFVIS_clean_sbu_0, # of connection points: 4
#     Node 2, Type 0, BuildingBlock: KUFVIS_clean_sbu_0, # of connection points: 4
#     Node 3, Type 0, BuildingBlock: KUFVIS_clean_sbu_0, # of connection points: 4
#     Node 4, Type 0, BuildingBlock: KUFVIS_clean_sbu_0, # of connection points: 4
#     Node 5, Type 0, BuildingBlock: KUFVIS_clean_sbu_0, # of connection points: 4
#     Node 6, Type 0, BuildingBlock: KUFVIS_clean_sbu_0, # of connection points: 4
#     Node 7, Type 0, BuildingBlock: KUFVIS_clean_sbu_0, # of connection points: 4
#     Node 8, Type 0, BuildingBlock: KUFVIS_clean_sbu_0, # of connection points: 4
#     Node 9, Type 0, BuildingBlock: KUFVIS_clean_sbu_0, # of connection points: 4
#     Node 10, Type 0, BuildingBlock: KUFVIS_clean_sbu_0, # of connection points: 4
#     Node 11, Type 0, BuildingBlock: KUFVIS_clean_sbu_0, # of connection points: 4
#     Edge 12, Type (0, 0), BuildingBlock: TEMPAE_clean_linker_10, # of connection points: 2
#     Edge 13, Type (0, 0), BuildingBlock: TEMPAE_clean_linker_10, # of connection points: 2
#     Edge 14, Type (0, 0), BuildingBlock: TEMPAE_clean_linker_10, # of connection points: 2
#     Edge 15, Type (0, 0), BuildingBlock: TEMPAE_clean_linker_10, # of connection points: 2
#     Edge 16, Type (0, 0), BuildingBlock: TEMPAE_clean_linker_10, # of connection points: 2
#     Edge 17, Type (0, 0), BuildingBlock: TEMPAE_clean_linker_10, # of connection points: 2
#     Edge 18, Type (0, 0), BuildingBlock: TEMPAE_clean_linker_10, # of connection points: 2
#     Edge 19, Type (0, 0), BuildingBlock: TEMPAE_clean_linker_10, # of connection points: 2
#     Edge 20, Type (0, 0), BuildingBlock: TEMPAE_clean_linker_10, # of connection points: 2
#     Edge 21, Type (0, 0), BuildingBlock: TEMPAE_clean_linker_10, # of connection points: 2
#     Edge 22, Type (0, 0), BuildingBlock: TEMPAE_clean_linker_10, # of connection points: 2
#     Edge 23, Type (0, 0), BuildingBlock: TEMPAE_clean_linker_10, # of connection points: 2
#     Edge 24, Type (0, 0), BuildingBlock: TEMPAE_clean_linker_10, # of connection points: 2
#     Edge 25, Type (0, 0), BuildingBlock: TEMPAE_clean_linker_10, # of connection points: 2
#     Edge 26, Type (0, 0), BuildingBlock: TEMPAE_clean_linker_10, # of connection points: 2
#     Edge 27, Type (0, 0), BuildingBlock: TEMPAE_clean_linker_10, # of connection points: 2
#     Edge 28, Type (0, 0), BuildingBlock: TEMPAE_clean_linker_10, # of connection points: 2
#     Edge 29, Type (0, 0), BuildingBlock: TEMPAE_clean_linker_10, # of connection points: 2
#     Edge 30, Type (0, 0), BuildingBlock: TEMPAE_clean_linker_10, # of connection points: 2
#     Edge 31, Type (0, 0), BuildingBlock: TEMPAE_clean_linker_10, # of connection points: 2
#     Edge 32, Type (0, 0), BuildingBlock: TEMPAE_clean_linker_10, # of connection points: 2
#     Edge 33, Type (0, 0), BuildingBlock: TEMPAE_clean_linker_10, # of connection points: 2
#     Edge 34, Type (0, 0), BuildingBlock: TEMPAE_clean_linker_10, # of connection points: 2
#     Edge 35, Type (0, 0), BuildingBlock: TEMPAE_clean_linker_10, # of connection points: 2
# Relax obj value: 0.144
# Max RMSD: 0.133
# Mean RMSD: 0.133
data_MOF--net-uoq--node1-KUFVIS_clean_sbu_0--edge1-TEMPAE_clean_linker_10
_symmetry_space_group_name_H-M    P1
_symmetry_Int_Tables_number       1
_symmetry_cell_setting            triclinic
loop_
_symmetry_equiv_pos_as_xyz
'x, y, z'
_cell_length_a     59.816101
_cell_length_b     59.769118
_cell_length_c     22.256032
_cell_angle_alpha  89.937863
_cell_angle_beta   89.992892
_cell_angle_gamma 120.02979
loop_
_atom_site_label
_atom_site_type_symbol
_atom_site_fract_x
_atom_site_fract_y
_atom_site_fract_z
_atom_type_partial_charge
Mn0 Mn 0.30212 0.45783 0.30668 0.0
Mn1 Mn 0.31433 0.44214 0.44518 0.0
C2 C 0.2927 0.47326 0.39463 0.0
C3 C 0.27527 0.45012 0.22091 0.0
C4 C 0.35561 0.48366 0.36648 0.0
O5 O 0.30836 0.4272 0.2885 0.0
O6 O 0.31218 0.41772 0.38454 0.0
C7 C 0.26434 0.39367 0.46024 0.0
N8 N 0.28302 0.41681 0.48199 0.0
C9 C 0.26376 0.40738 0.58013 0.0
C10 C 0.24442 0.38323 0.55923 0.0
C11 C 0.24449 0.37652 0.49871 0.0
C12 C 0.28229 0.42407 0.53895 0.0
H13 H 0.2647 0.38844 0.41401 0.0
C14 C 0.31079 0.41306 0.32854 0.0
O15 O 0.30015 0.46489 0.21895 0.0
O16 O 0.26593 0.43878 0.27211 0.0
N17 N 0.31747 0.4637 0.51154 0.0
C18 C 0.33734 0.48786 0.52406 0.0
C19 C 0.34052 0.49745 0.58283 0.0
C20 C 0.32386 0.48177 0.62855 0.0
C21 C 0.30351 0.45698 0.61466 0.0
C22 C 0.30099 0.44868 0.5551 0.0
H23 H 0.35101 0.49952 0.48979 0.0
O24 O 0.29464 0.48437 0.34325 0.0
O25 O 0.29499 0.45288 0.39309 0.0
O26 O 0.34089 0.48196 0.32298 0.0
O27 O 0.34769 0.46875 0.41216 0.0
C28 C 0.28604 0.43991 0.65786 0.0
C29 C 0.26576 0.41539 0.64035 0.0
H30 H 0.22946 0.36971 0.58919 0.0
H31 H 0.22956 0.358 0.48208 0.0
H32 H 0.35624 0.5166 0.59321 0.0
H33 H 0.3268 0.489 0.67416 0.0
H34 H 0.28782 0.44557 0.7046 0.0
H35 H 0.25206 0.40272 0.67369 0.0
Mn36 Mn 0.8676 0.29461 0.60095 0.0
Mn37 Mn 0.89342 0.32013 0.73842 0.0
C38 C 0.84256 0.27993 0.68752 0.0
C39 C 0.85365 0.26497 0.51951 0.0
C40 C 0.87753 0.34701 0.64816 0.0
O41 O 0.90687 0.31092 0.58579 0.0
O42 O 0.92046 0.32626 0.67971 0.0
C43 C 0.91723 0.2889 0.77364 0.0
N44 N 0.90161 0.29873 0.78639 0.0
C45 C 0.90006 0.28791 0.89111 0.0
C46 C 0.91628 0.27778 0.87914 0.0
C47 C 0.92466 0.27802 0.81999 0.0
C48 C 0.89294 0.29803 0.84286 0.0
H49 H 0.92408 0.28961 0.72863 0.0
C50 C 0.92465 0.32261 0.62535 0.0
O51 O 0.85851 0.28851 0.51379 0.0
O52 O 0.85925 0.25908 0.57156 0.0
N53 N 0.86969 0.31576 0.80092 0.0
C54 C 0.85203 0.32379 0.80316 0.0
C55 C 0.83983 0.32262 0.85795 0.0
C56 C 0.84654 0.31401 0.91009 0.0
C57 C 0.86494 0.30606 0.90665 0.0
C58 C 0.87586 0.30695 0.8505 0.0
H59 H 0.84748 0.33118 0.76352 0.0
O60 O 0.83224 0.27822 0.63517 0.0
O61 O 0.86761 0.29062 0.68913 0.0
O62 O 0.87008 0.33006 0.60704 0.0
O63 O 0.88668 0.34508 0.69787 0.0
C64 C 0.87273 0.29705 0.95651 0.0
C65 C 0.89024 0.28793 0.94873 0.0
H66 H 0.9222 0.26955 0.91486 0.0
H67 H 0.93712 0.27017 0.81033 0.0
H68 H 0.82564 0.32878 0.86025 0.0
H69 H 0.83731 0.31344 0.9524 0.0
H70 H 0.86485 0.2964 1.00071 0.0
H71 H 0.89556 0.28042 0.98708 0.0
Mn72 Mn 0.54827 0.85103 0.93289 0.0
Mn73 Mn 0.54896 0.8705 0.07751 0.0
C74 C 0.54299 0.82389 0.01375 0.0
C75 C 0.56542 0.84312 0.84411 0.0
C76 C 0.50273 0.85134 0.99777 0.0
O77 O 0.56586 0.89075 0.92243 0.0
O78 O 0.56162 0.89865 0.01938 0.0
C79 C 0.60557 0.9032 0.09196 0.0
N80 N 0.58238 0.88397 0.11235 0.0
C81 C 0.60018 0.88452 0.20959 0.0
C82 C 0.62434 0.90421 0.18958 0.0
C83 C 0.62708 0.91344 0.13033 0.0
C84 C 0.57964 0.87463 0.16881 0.0
H85 H 0.60749 0.91092 0.04715 0.0
C86 C 0.56783 0.90599 0.96525 0.0
O87 O 0.54438 0.84431 0.8441 0.0
O88 O 0.57789 0.84882 0.89478 0.0
N89 N 0.53708 0.84601 0.14158 0.0
C90 C 0.51268 0.82637 0.15282 0.0
C91 C 0.50679 0.81444 0.20952 0.0
C92 C 0.5258 0.82331 0.25453 0.0
C93 C 0.55063 0.84394 0.24227 0.0
C94 C 0.55552 0.85468 0.18457 0.0
H95 H 0.4978 0.82015 0.11898 0.0
O96 O 0.53403 0.81476 0.96083 0.0
O97 O 0.555 0.84893 0.01936 0.0
O98 O 0.51333 0.84908 0.95011 0.0
O99 O 0.51397 0.85773 0.04839 0.0
C100 C 0.5708 0.85419 0.28484 0.0
C101 C 0.59559 0.87437 0.26842 0.0
H102 H 0.64088 0.91243 0.21933 0.0
H103 H 0.64561 0.92876 0.11469 0.0
H104 H 0.4875 0.79874 0.21888 0.0
H105 H 0.52111 0.81419 0.29836 0.0
H106 H 0.56758 0.84636 0.32996 0.0
H107 H 0.61103 0.88178 0.3012 0.0
Mn108 Mn 0.70126 0.55505 0.27631 0.0
Mn109 Mn 0.67841 0.56404 0.4099 0.0
C110 C 0.71237 0.54348 0.36714 0.0
C111 C 0.73134 0.56592 0.1958 0.0
C112 C 0.64596 0.52081 0.32356 0.0
O113 O 0.69109 0.58242 0.25449 0.0
O114 O 0.67853 0.58725 0.34726 0.0
C115 C 0.71735 0.61781 0.44271 0.0
N116 N 0.70273 0.5924 0.45732 0.0
C117 C 0.71184 0.60168 0.56262 0.0
C118 C 0.72682 0.62805 0.54873 0.0
C119 C 0.72989 0.6361 0.48842 0.0
C120 C 0.7003 0.58438 0.51504 0.0
H121 H 0.71925 0.62394 0.39668 0.0
C122 C 0.68305 0.59324 0.29171 0.0
O123 O 0.70704 0.54915 0.19039 0.0
O124 O 0.73816 0.57788 0.24716 0.0
N125 N 0.67712 0.54291 0.47566 0.0
C126 C 0.66475 0.51667 0.47999 0.0
C127 C 0.66227 0.50517 0.53653 0.0
C128 C 0.67176 0.52075 0.58806 0.0
C129 C 0.68421 0.54772 0.58239 0.0
C130 C 0.68685 0.55806 0.52471 0.0
H131 H 0.65666 0.50469 0.44068 0.0
O132 O 0.71253 0.53263 0.31672 0.0
O133 O 0.70532 0.56083 0.36427 0.0
O134 O 0.66309 0.52596 0.28352 0.0
O135 O 0.65023 0.5344 0.37027 0.0
C136 C 0.6944 0.56482 0.6315 0.0
C137 C 0.70832 0.5918 0.62158 0.0
H138 H 0.73635 0.64222 0.5839 0.0
H139 H 0.74161 0.65638 0.47734 0.0
H140 H 0.65261 0.48435 0.54055 0.0
H141 H 0.66951 0.51179 0.63168 0.0
H142 H 0.69239 0.55742 0.67682 0.0
H143 H 0.71678 0.60472 0.65945 0.0
Mn144 Mn 0.13001 0.69912 0.56475 0.0
Mn145 Mn 0.09304 0.68329 0.68912 0.0
C146 C 0.14908 0.72128 0.65444 0.0
C147 C 0.144 0.7231 0.47406 0.0
C148 C 0.11612 0.65181 0.63692 0.0
O149 O 0.0925 0.67214 0.53767 0.0
O150 O 0.07562 0.6822 0.61344 0.0
C151 C 0.07548 0.72172 0.69098 0.0
N152 N 0.08569 0.70874 0.71963 0.0
C153 C 0.0795 0.72275 0.8164 0.0
C154 C 0.06897 0.73633 0.78797 0.0
C155 C 0.06719 0.73601 0.72496 0.0
C156 C 0.0879 0.70929 0.78014 0.0
H157 H 0.07336 0.72087 0.6427 0.0
C158 C 0.0728 0.66811 0.56859 0.0
O159 O 0.1447 0.70194 0.48199 0.0
O160 O 0.13291 0.72898 0.51643 0.0
N161 N 0.10833 0.68525 0.76578 0.0
C162 C 0.1219 0.67392 0.7854 0.0
C163 C 0.127 0.67406 0.84702 0.0
C164 C 0.11753 0.68522 0.88794 0.0
C165 C 0.10365 0.6968 0.86666 0.0
C166 C 0.09981 0.69672 0.80465 0.0
H167 H 0.12864 0.66472 0.75449 0.0
O168 O 0.16274 0.7235 0.60724 0.0
O169 O 0.1243 0.70843 0.64655 0.0
O170 O 0.13192 0.66849 0.59974 0.0
O171 O 0.09909 0.65472 0.66518 0.0
C172 C 0.09411 0.70908 0.90437 0.0
C173 C 0.08217 0.72217 0.87923 0.0
H174 H 0.0623 0.74715 0.81404 0.0
H175 H 0.05905 0.74642 0.70273 0.0
H176 H 0.13787 0.66524 0.86306 0.0
H177 H 0.12134 0.6851 0.93549 0.0
H178 H 0.09661 0.70929 0.95261 0.0
H179 H 0.07558 0.73215 0.90854 0.0
Mn180 Mn 0.45501 0.14925 0.9143 0.0
Mn181 Mn 0.45103 0.13018 0.06035 0.0
C182 C 0.46028 0.17707 0.99352 0.0
C183 C 0.4397 0.15898 0.82436 0.0
C184 C 0.49802 0.14595 0.98468 0.0
O185 O 0.43512 0.10932 0.90528 0.0
O186 O 0.43794 0.10167 1.00332 0.0
C187 C 0.39415 0.09923 0.07213 0.0
N188 N 0.41741 0.11816 0.09284 0.0
C189 C 0.3991 0.11875 0.18869 0.0
C190 C 0.37488 0.09936 0.16831 0.0
C191 C 0.37236 0.08974 0.10957 0.0
C192 C 0.41994 0.12792 0.14876 0.0
H193 H 0.39236 0.09113 0.02784 0.0
C194 C 0.43184 0.09404 0.94932 0.0
O195 O 0.45987 0.1562 0.82502 0.0
O196 O 0.42696 0.15361 0.87454 0.0
N197 N 0.463 0.15527 0.12303 0.0
C198 C 0.48751 0.17453 0.13464 0.0
C199 C 0.49313 0.18713 0.19045 0.0
C200 C 0.47367 0.17935 0.23419 0.0
C201 C 0.4487 0.15908 0.22163 0.0
C202 C 0.44414 0.1476 0.16483 0.0
H203 H 0.50269 0.17995 0.10182 0.0
O204 O 0.4709 0.18586 0.94159 0.0
O205 O 0.4472 0.15209 0.99941 0.0
O206 O 0.48864 0.14841 0.935 0.0
O207 O 0.48606 0.14137 0.03432 0.0
C208 C 0.42817 0.14968 0.26325 0.0
C209 C 0.40339 0.12949 0.24684 0.0
H210 H 0.3581 0.09174 0.19733 0.0
H211 H 0.35377 0.07468 0.09364 0.0
H212 H 0.51252 0.20254 0.20011 0.0
H213 H 0.47815 0.18899 0.27736 0.0
H214 H 0.43115 0.15805 0.30771 0.0
H215 H 0.3877 0.12268 0.27891 0.0
Mn216 Mn 0.56408 0.70233 0.43293 0.0
Mn217 Mn 0.56808 0.67893 0.29551 0.0
C218 C 0.55034 0.71387 0.34596 0.0
C219 C 0.57734 0.73232 0.51397 0.0
C220 C 0.52828 0.64685 0.38938 0.0
O221 O 0.59169 0.69161 0.44688 0.0
O222 O 0.59352 0.67907 0.35163 0.0
C223 C 0.62043 0.71681 0.25155 0.0
N224 N 0.59446 0.70301 0.24312 0.0
C225 C 0.59925 0.7125 0.13714 0.0
C226 C 0.62613 0.72665 0.14466 0.0
C227 C 0.63674 0.7291 0.20229 0.0
C228 C 0.58403 0.70114 0.18812 0.0
H229 H 0.62852 0.71822 0.29538 0.0
C230 C 0.60126 0.68358 0.40617 0.0
O231 O 0.56076 0.70801 0.52029 0.0
O232 O 0.58795 0.7392 0.46108 0.0
N233 N 0.54445 0.67798 0.23647 0.0
C234 C 0.5182 0.66603 0.23865 0.0
C235 C 0.50443 0.6644 0.18616 0.0
C236 C 0.51775 0.67438 0.13179 0.0
C237 C 0.54478 0.68643 0.13072 0.0
C238 C 0.55746 0.68819 0.1848 0.0
H239 H 0.50792 0.65769 0.28003 0.0
O240 O 0.54088 0.71413 0.39836 0.0
O241 O 0.56719 0.70621 0.34477 0.0
O242 O 0.53468 0.66438 0.42886 0.0
O243 O 0.54008 0.65072 0.33988 0.0
C244 C 0.55968 0.69683 0.07826 0.0
C245 C 0.58692 0.70977 0.08142 0.0
H246 H 0.63877 0.736 0.10671 0.0
H247 H 0.65744 0.74015 0.20855 0.0
H248 H 0.48358 0.65508 0.18734 0.0
H249 H 0.50704 0.67277 0.09122 0.0
H250 H 0.55042 0.69548 0.03553 0.0
H251 H 0.59818 0.7182 0.04108 0.0
Mn252 Mn 0.85232 0.54202 0.77291 0.0
Mn253 Mn 0.87042 0.54807 0.62571 0.0
C254 C 0.82412 0.53854 0.69625 0.0
C255 C 0.84444 0.55681 0.86552 0.0
C256 C 0.85226 0.49905 0.69519 0.0
O257 O 0.89207 0.55957 0.78139 0.0
O258 O 0.89865 0.55837 0.68235 0.0
C259 C 0.90283 0.60508 0.62312 0.0
N260 N 0.88366 0.58276 0.59898 0.0
C261 C 0.88389 0.60448 0.50777 0.0
C262 C 0.9035 0.62779 0.53178 0.0
C263 C 0.91286 0.62812 0.58991 0.0
C264 C 0.87416 0.58233 0.54367 0.0
H265 H 0.91068 0.60519 0.66689 0.0
C266 C 0.90668 0.5627 0.73627 0.0
O267 O 0.84594 0.53592 0.86199 0.0
O268 O 0.85006 0.57042 0.81661 0.0
N269 N 0.84594 0.53864 0.5622 0.0
C270 C 0.82703 0.51456 0.54587 0.0
C271 C 0.81567 0.51079 0.48885 0.0
C272 C 0.8242 0.53166 0.44876 0.0
C273 C 0.84411 0.55616 0.46603 0.0
C274 C 0.85448 0.55882 0.52369 0.0
H275 H 0.82105 0.49827 0.57573 0.0
O276 O 0.81576 0.52788 0.74827 0.0
O277 O 0.84907 0.55136 0.68899 0.0
O278 O 0.85114 0.50799 0.74671 0.0
O279 O 0.85754 0.51216 0.64701 0.0
C280 C 0.85411 0.57808 0.42835 0.0
C281 C 0.87384 0.60226 0.44938 0.0
H282 H 0.91161 0.64551 0.50588 0.0
H283 H 0.92816 0.64598 0.60853 0.0
H284 H 0.80073 0.4917 0.47535 0.0
H285 H 0.81547 0.52862 0.4047 0.0
H286 H 0.8465 0.57662 0.38346 0.0
H287 H 0.88113 0.61901 0.4203 0.0
Mn288 Mn 0.29022 0.85068 0.06442 0.0
Mn289 Mn 0.3044 0.86557 0.91656 0.0
C290 C 0.26511 0.82186 0.98953 0.0
C291 C 0.26658 0.84388 0.15448 0.0
C292 C 0.33327 0.84784 0.99437 0.0
O293 O 0.31317 0.89065 0.06871 0.0
O294 O 0.32262 0.8951 0.97002 0.0
C295 C 0.28224 0.89983 0.90221 0.0
N296 N 0.2845 0.87941 0.88323 0.0
C297 C 0.26461 0.8782 0.78845 0.0
C298 C 0.2619 0.89914 0.80704 0.0
C299 C 0.27052 0.90983 0.86443 0.0
C300 C 0.27572 0.86859 0.82878 0.0
H301 H 0.28969 0.90865 0.9454 0.0
C302 C 0.32565 0.9043 0.02285 0.0
O303 O 0.28902 0.84547 0.15386 0.0
O304 O 0.25945 0.84956 0.10434 0.0
N305 N 0.28867 0.83929 0.857 0.0
C306 C 0.29218 0.81879 0.84686 0.0
C307 C 0.28416 0.80552 0.79202 0.0
C308 C 0.27299 0.8137 0.74787 0.0
C309 C 0.26999 0.83513 0.75896 0.0
C310 C 0.27809 0.84741 0.81467 0.0
H311 H 0.30155 0.81301 0.87992 0.0
O312 O 0.26703 0.81385 0.04234 0.0
O313 O 0.27863 0.84663 0.98004 0.0
O314 O 0.32249 0.84789 0.04385 0.0
O315 O 0.32641 0.85217 0.94372 0.0
C316 C 0.25949 0.84496 0.71679 0.0
C317 C 0.25669 0.86641 0.73162 0.0
H318 H 0.25324 0.90716 0.77766 0.0
H319 H 0.26861 0.92606 0.87899 0.0
H320 H 0.28689 0.78923 0.78343 0.0
H321 H 0.26697 0.80349 0.70549 0.0
H322 H 0.25316 0.83595 0.67316 0.0
H323 H 0.24822 0.87353 0.69922 0.0
Mn324 Mn 0.43944 0.30081 0.41046 0.0
Mn325 Mn 0.43009 0.32056 0.27285 0.0
C326 C 0.44933 0.28659 0.32187 0.0
C327 C 0.42861 0.27237 0.49484 0.0
C328 C 0.47514 0.35414 0.35396 0.0
O329 O 0.41365 0.31348 0.42991 0.0
O330 O 0.40873 0.32398 0.33502 0.0
C331 C 0.37529 0.28222 0.24797 0.0
N332 N 0.4004 0.29551 0.23034 0.0
C333 C 0.3887 0.2843 0.12671 0.0
C334 C 0.3626 0.27074 0.14364 0.0
C335 C 0.3559 0.26934 0.20468 0.0
C336 C 0.40711 0.29605 0.17212 0.0
H337 H 0.37027 0.28166 0.29454 0.0
C338 C 0.40335 0.32149 0.39097 0.0
O339 O 0.44597 0.29662 0.49733 0.0
O340 O 0.41587 0.26489 0.44458 0.0
N341 N 0.44939 0.31865 0.20674 0.0
C342 C 0.47544 0.33008 0.19956 0.0
C343 C 0.48558 0.3308 0.14217 0.0
C344 C 0.46889 0.32075 0.09254 0.0
C345 C 0.44215 0.30942 0.10103 0.0
C346 C 0.43317 0.30828 0.15961 0.0
H347 H 0.48832 0.33882 0.23723 0.0
O348 O 0.46038 0.28718 0.37251 0.0
O349 O 0.43262 0.29445 0.32318 0.0
O350 O 0.46946 0.33829 0.39746 0.0
O351 O 0.46119 0.34895 0.3075 0.0
C352 C 0.42399 0.29906 0.0539 0.0
C353 C 0.39725 0.2865 0.06674 0.0
H354 H 0.34758 0.26111 0.11027 0.0
H355 H 0.33583 0.25877 0.21818 0.0
H356 H 0.50623 0.33965 0.13593 0.0
H357 H 0.47682 0.32177 0.04819 0.0
H358 H 0.43034 0.3 1.00792 0.0
H359 H 0.38347 0.27798 0.03043 0.0
Mn360 Mn 0.15577 0.46569 0.77585 0.0
Mn361 Mn 0.14265 0.45994 0.62601 0.0
C362 C 0.18913 0.48903 0.70604 0.0
C363 C 0.1686 0.45285 0.86487 0.0
C364 C 0.13188 0.49368 0.70906 0.0
O365 O 0.11917 0.43303 0.77199 0.0
O366 O 0.11581 0.43104 0.67144 0.0
C367 C 0.14751 0.4137 0.60496 0.0
N368 N 0.15393 0.43831 0.59016 0.0
C369 C 0.17557 0.43697 0.50047 0.0
C370 C 0.16848 0.4113 0.51367 0.0
C371 C 0.15482 0.39978 0.56677 0.0
C372 C 0.16831 0.45007 0.54109 0.0
H373 H 0.13674 0.40475 0.64537 0.0
C374 C 0.10726 0.42192 0.72339 0.0
O375 O 0.15652 0.46583 0.86661 0.0
O376 O 0.17156 0.44575 0.81181 0.0
N377 N 0.16602 0.48612 0.57209 0.0
C378 C 0.16781 0.50942 0.56093 0.0
C379 C 0.18044 0.52328 0.50888 0.0
C380 C 0.19014 0.51261 0.46735 0.0
C381 C 0.18714 0.48816 0.47827 0.0
C382 C 0.17453 0.47531 0.53117 0.0
H383 H 0.15949 0.51736 0.59127 0.0
O384 O 0.19131 0.49559 0.76208 0.0
O385 O 0.16759 0.46831 0.69213 0.0
O386 O 0.1406 0.48927 0.75743 0.0
O387 O 0.1309 0.48288 0.65889 0.0
C388 C 0.19516 0.47558 0.43735 0.0
C389 C 0.18953 0.45006 0.44864 0.0
H390 H 0.17375 0.40039 0.48382 0.0
H391 H 0.14963 0.38013 0.57779 0.0
H392 H 0.18226 0.54195 0.50023 0.0
H393 H 0.19958 0.52322 0.42687 0.0
H394 H 0.20526 0.4852 0.3965 0.0
H395 H 0.19563 0.44052 0.41668 0.0
Mn396 Mn 0.70662 0.14322 0.10537 0.0
Mn397 Mn 0.69279 0.1179 0.96547 0.0
C398 C 0.73118 0.1686 0.02471 0.0
C399 C 0.72889 0.15033 0.1979 0.0
C400 C 0.66075 0.13611 0.03424 0.0
O401 O 0.68019 0.10406 0.11666 0.0
O402 O 0.68619 0.09147 0.02604 0.0
C403 C 0.72775 0.09689 0.94617 0.0
N404 N 0.71788 0.11189 0.92755 0.0
C405 C 0.7339 0.11429 0.82718 0.0
C406 C 0.7444 0.09899 0.84532 0.0
C407 C 0.74155 0.09049 0.90524 0.0
C408 C 0.72096 0.12059 0.87035 0.0
H409 H 0.7247 0.0895 0.99157 0.0
C410 C 0.67517 0.08657 0.077 0.0
O411 O 0.70781 0.15139 0.19335 0.0
O412 O 0.73556 0.14255 0.15023 0.0
N413 N 0.69919 0.1417 0.90145 0.0
C414 C 0.69007 0.15828 0.89311 0.0
C415 C 0.69321 0.17024 0.83694 0.0
C416 C 0.70504 0.16447 0.78956 0.0
C417 C 0.71422 0.1473 0.79924 0.0
C418 C 0.71123 0.13659 0.85663 0.0
H419 H 0.68027 0.16216 0.92875 0.0
O420 O 0.73172 0.17873 0.07653 0.0
O421 O 0.71769 0.14354 0.02205 0.0
O422 O 0.6766 0.14795 0.07677 0.0
O423 O 0.66417 0.12227 0.9959 0.0
C424 C 0.7263 0.14042 0.75433 0.0
C425 C 0.73614 0.12393 0.76829 0.0
H426 H 0.7548 0.09376 0.81372 0.0
H427 H 0.74952 0.0786 0.9195 0.0
H428 H 0.68613 0.18352 0.82984 0.0
H429 H 0.7071 0.17346 0.74607 0.0
H430 H 0.72864 0.14816 0.70928 0.0
H431 H 0.7459 0.11924 0.73375 0.0
C432 C 0.30146 0.36922 0.35217 0.0
C433 C 0.31439 0.39088 0.31444 0.0
C434 C 0.31308 0.35497 0.37048 0.0
C435 C 0.33713 0.36072 0.34536 0.0
C436 C 0.3479 0.37953 0.29872 0.0
C437 C 0.33686 0.39501 0.28522 0.0
C438 C 0.30014 0.33516 0.4198 0.0
C439 C 0.37197 0.38464 0.26538 0.0
C440 C 0.39008 0.35293 0.42153 0.0
C441 C 0.38297 0.32751 0.40642 0.0
C442 C 0.37421 0.36328 0.40616 0.0
C443 C 0.35176 0.3485 0.37054 0.0
C444 C 0.3437 0.32221 0.35906 0.0
C445 C 0.35871 0.31181 0.38022 0.0
C446 C 0.38249 0.39052 0.42559 0.0
C447 C 0.32027 0.30499 0.32146 0.0
H448 H 0.2838 0.36563 0.37414 0.0
H449 H 0.34705 0.41164 0.25594 0.0
H450 H 0.2869 0.31614 0.3992 0.0
H451 H 0.31422 0.33315 0.44839 0.0
H452 H 0.2883 0.34018 0.4493 0.0
H453 H 0.37121 0.39015 0.21805 0.0
H454 H 0.38904 0.40112 0.28653 0.0
H455 H 0.37468 0.36757 0.26552 0.0
H456 H 0.40889 0.36533 0.44135 0.0
H457 H 0.35276 0.2919 0.36994 0.0
H458 H 0.36577 0.39358 0.43107 0.0
H459 H 0.39571 0.40431 0.39143 0.0
H460 H 0.39322 0.39517 0.46876 0.0
H461 H 0.30441 0.29151 0.35153 0.0
H462 H 0.32456 0.29296 0.29075 0.0
H463 H 0.31341 0.31585 0.29399 0.0
C464 C 0.96123 0.3154 0.63744 0.0
C465 C 0.9519 0.33086 0.61345 0.0
C466 C 0.98636 0.3264 0.66089 0.0
C467 C 0.00338 0.3534 0.65552 0.0
C468 C 0.9951 0.36847 0.62322 0.0
C469 C 0.96923 0.35718 0.60436 0.0
C470 C 0.99351 0.30887 0.69429 0.0
C471 C 0.01314 0.39685 0.61128 0.0
C472 C 0.06072 0.39693 0.75584 0.0
C473 C 0.08123 0.39846 0.72221 0.0
C474 C 0.0349 0.38044 0.73755 0.0
C475 C 0.02973 0.36617 0.6832 0.0
C476 C 0.05028 0.36591 0.65266 0.0
C477 C 0.07557 0.38145 0.67351 0.0
C478 C 0.01327 0.37935 0.77458 0.0
C479 C 0.04586 0.35084 0.59518 0.0
H480 H 0.94794 0.29495 0.64408 0.0
H481 H 0.96207 0.36933 0.58666 0.0
H482 H 0.99538 0.29587 0.66163 0.0
H483 H 0.01175 0.31938 0.72006 0.0
H484 H 0.97779 0.29635 0.72592 0.0
H485 H 0.00523 0.40455 0.57703 0.0
H486 H 0.01634 0.40796 0.65336 0.0
H487 H 0.0322 0.4002 0.59556 0.0
H488 H 0.0648 0.40992 0.79346 0.0
H489 H 0.09128 0.38221 0.64768 0.0
H490 H 0.99689 0.3592 0.77752 0.0
H491 H 0.00604 0.39123 0.75291 0.0
H492 H 0.01976 0.38686 0.82075 0.0
H493 H 0.03358 0.32989 0.60435 0.0
H494 H 0.06419 0.35416 0.57453 0.0
H495 H 0.03553 0.35632 0.56211 0.0
C496 C 0.60374 0.95036 0.9406 0.0
C497 C 0.57804 0.93398 0.95744 0.0
C498 C 0.61707 0.97634 0.95983 0.0
C499 C 0.60483 0.98545 0.99989 0.0
C500 C 0.57825 0.96942 1.01278 0.0
C501 C 0.56501 0.9444 0.98899 0.0
C502 C 0.64465 0.99333 0.9397 0.0
C503 C 0.56388 0.97772 0.05473 0.0
C504 C 0.65415 0.03961 0.09985 0.0
C505 C 0.65212 0.06071 0.07993 0.0
C506 C 0.63749 0.01459 0.0774 0.0
C507 C 0.6199 0.01108 0.03036 0.0
C508 C 0.61699 0.03226 1.01264 0.0
C509 C 0.6323 0.0564 0.03973 0.0
C510 C 0.63982 0.99234 0.1023 0.0
C511 C 0.59915 0.03056 0.96252 0.0
H512 H 0.61401 0.94247 0.91656 0.0
H513 H 0.545 0.93173 1.00175 0.0
H514 H 0.65041 0.01411 0.9399 0.0
H515 H 0.65768 0.99048 0.97014 0.0
H516 H 0.64749 0.98798 0.8937 0.0
H517 H 0.54685 0.96083 0.07524 0.0
H518 H 0.57642 0.99023 0.0915 0.0
H519 H 0.55669 0.98872 0.0289 0.0
H520 H 0.66974 0.04286 0.12997 0.0
H521 H 0.6309 0.07278 0.02351 0.0
H522 H 0.65434 0.99018 0.07593 0.0
H523 H 0.62118 0.97386 0.10024 0.0
H524 H 0.6465 0.996 0.14972 0.0
H525 H 0.59215 0.01301 0.93443 0.0
H526 H 0.60909 0.04775 0.93273 0.0
H527 H 0.58228 0.03092 0.98219 0.0
C528 C 0.65616 0.61191 0.2631 0.0
C529 C 0.6808 0.61587 0.27546 0.0
C530 C 0.64845 0.62903 0.28537 0.0
C531 C 0.665 0.64912 0.32526 0.0
C532 C 0.69096 0.65495 0.33126 0.0
C533 C 0.69889 0.63918 0.30241 0.0
C534 C 0.62185 0.62419 0.2696 0.0
C535 C 0.71012 0.67639 0.37125 0.0
C536 C 0.64614 0.6972 0.38456 0.0
C537 C 0.62387 0.68059 0.41727 0.0
C538 C 0.66023 0.68767 0.35421 0.0
C539 C 0.65413 0.66179 0.36429 0.0
C540 C 0.63546 0.64701 0.40893 0.0
C541 C 0.61969 0.65611 0.43276 0.0
C542 C 0.68003 0.70502 0.30851 0.0
C543 C 0.63065 0.62079 0.4286 0.0
H544 H 0.6421 0.59417 0.24128 0.0
H545 H 0.71839 0.64289 0.30931 0.0
H546 H 0.60738 0.60927 0.30001 0.0
H547 H 0.62051 0.642 0.27343 0.0
H548 H 0.61666 0.61668 0.22302 0.0
H549 H 0.72114 0.69415 0.3439 0.0
H550 H 0.70068 0.68066 0.40888 0.0
H551 H 0.72434 0.67158 0.39039 0.0
H552 H 0.6502 0.71667 0.37526 0.0
H553 H 0.60276 0.64319 0.45888 0.0
H554 H 0.68385 0.69416 0.27355 0.0
H555 H 0.69836 0.71806 0.33208 0.0
H556 H 0.67373 0.71749 0.28577 0.0
H557 H 0.6146 0.60553 0.40202 0.0
H558 H 0.62476 0.6173 0.47659 0.0
H559 H 0.64804 0.61884 0.42269 0.0
C560 C 0.95236 0.59664 0.75362 0.0
C561 C 0.93432 0.57085 0.74084 0.0
C562 C 0.97679 0.6088 0.72547 0.0
C563 C 0.98222 0.59542 0.68008 0.0
C564 C 0.96494 0.56869 0.67177 0.0
C565 C 0.94212 0.55646 0.70559 0.0
C566 C 0.99575 0.63653 0.74126 0.0
C567 C 0.96902 0.55339 0.62319 0.0
C568 C 0.02535 0.64403 0.56213 0.0
C569 C 0.04826 0.64325 0.5683 0.0
C570 C 0.00291 0.62671 0.59388 0.0
C571 C 0.00415 0.60986 0.63717 0.0
C572 C 0.02657 0.60751 0.63943 0.0
C573 C 0.04755 0.62297 0.60153 0.0
C574 C 0.97857 0.6279 0.58359 0.0
C575 C 0.03033 0.59137 0.68626 0.0
H576 H 0.94663 0.60794 0.78092 0.0
H577 H 0.92819 0.53637 0.69618 0.0
H578 H 0.01596 0.64172 0.73114 0.0
H579 H 0.99107 0.64954 0.7155 0.0
H580 H 0.9943 0.64007 0.78972 0.0
H581 H 0.95104 0.53497 0.61315 0.0
H582 H 0.97591 0.56473 0.58094 0.0
H583 H 0.98379 0.54854 0.63785 0.0
H584 H 0.02554 0.65951 0.53625 0.0
H585 H 0.06472 0.62138 0.60438 0.0
H586 H 0.97831 0.6424 0.61414 0.0
H587 H 0.96096 0.60896 0.59201 0.0
H588 H 0.97783 0.63403 0.53683 0.0
H589 H 0.01239 0.57733 0.7096 0.0
H590 H 0.04375 0.60452 0.72103 0.0
H591 H 0.03941 0.58092 0.66577 0.0
C592 C 0.36578 0.94116 0.98492 0.0
C593 C 0.34499 0.93225 0.02544 0.0
C594 C 0.3797 0.96699 0.9669 0.0
C595 C 0.37429 0.98516 0.99366 0.0
C596 C 0.35513 0.97688 0.03944 0.0
C597 C 0.34013 0.9503 0.05375 0.0
C598 C 0.39943 0.97446 0.91719 0.0
C599 C 0.35003 0.99596 0.07219 0.0
C600 C 0.43006 0.05386 0.98051 0.0
C601 C 0.41996 0.06569 0.94334 0.0
C602 C 0.41508 0.02817 0.99905 0.0
C603 C 0.38991 0.01291 0.97561 0.0
C604 C 0.38054 0.0239 0.93265 0.0
C605 C 0.39542 0.05045 0.91823 0.0
C606 C 0.4262 0.01803 0.04568 0.0
C607 C 0.35453 0.00787 0.90335 0.0
H608 H 0.36986 0.92732 0.96329 0.0
H609 H 0.32401 0.94361 0.0846 0.0
H610 H 0.39769 0.98748 0.88431 0.0
H611 H 0.41914 0.98491 0.93643 0.0
H612 H 0.39734 0.95732 0.89272 0.0
H613 H 0.33827 0.98739 0.11334 0.0
H614 H 0.36848 0.01337 0.08499 0.0
H615 H 0.33944 0.0023 0.04228 0.0
H616 H 0.44911 0.06557 1.00001 0.0
H617 H 0.38732 0.05949 0.89029 0.0
H618 H 0.43701 0.00989 0.02285 0.0
H619 H 0.41105 0.00275 0.07427 0.0
H620 H 0.44005 0.03382 0.07546 0.0
H621 H 0.35176 0.98885 0.88911 0.0
H622 H 0.35219 0.01776 0.86357 0.0
H623 H 0.33908 0.00422 0.93606 0.0
C624 C 0.19235 0.43325 0.91735 0.0
C625 C 0.18101 0.44893 0.91959 0.0
C626 C 0.20631 0.43142 0.96662 0.0
C627 C 0.20957 0.44596 0.01961 0.0
C628 C 0.1977 0.46141 0.02253 0.0
C629 C 0.1835 0.46255 0.97297 0.0
C630 C 0.21811 0.41434 0.96135 0.0
C631 C 0.20078 0.47754 0.07737 0.0
C632 C 0.2318 0.43002 0.16815 0.0
C633 C 0.25845 0.4479 0.16835 0.0
C634 C 0.2158 0.42879 0.11984 0.0
C635 C 0.22645 0.44613 0.07056 0.0
C636 C 0.25336 0.46409 0.0705 0.0
C637 C 0.26894 0.46462 0.11881 0.0
C638 C 0.1874 0.409 0.12174 0.0
C639 C 0.26571 0.48321 0.01974 0.0
H640 H 0.19065 0.42262 0.87656 0.0
H641 H 0.17506 0.47489 0.97538 0.0
H642 H 0.23948 0.42639 0.96167 0.0
H643 H 0.21248 0.40107 1.00047 0.0
H644 H 0.21214 0.40267 0.9195 0.0
H645 H 0.18963 0.48778 0.07383 0.0
H646 H 0.19436 0.46519 0.11813 0.0
H647 H 0.22148 0.4921 0.08367 0.0
H648 H 0.22338 0.41698 0.20594 0.0
H649 H 0.28941 0.47863 0.11828 0.0
H650 H 0.18181 0.39697 0.08052 0.0
H651 H 0.17588 0.41887 0.12276 0.0
H652 H 0.18222 0.39612 0.16158 0.0
H653 H 0.26238 0.47281 0.97648 0.0
H654 H 0.28684 0.49593 0.02609 0.0
H655 H 0.2567 0.49548 0.0161 0.0
C656 C 0.83504 0.25369 0.41531 0.0
C657 C 0.83876 0.24539 0.47168 0.0
C658 C 0.81783 0.23614 0.37252 0.0
C659 C 0.80361 0.20934 0.38586 0.0
C660 C 0.808 0.20067 0.44176 0.0
C661 C 0.82548 0.21873 0.48385 0.0
C662 C 0.81413 0.24648 0.31371 0.0
C663 C 0.79343 0.17238 0.45814 0.0
C664 C 0.73984 0.17215 0.29938 0.0
C665 C 0.74661 0.16165 0.25093 0.0
C666 C 0.75778 0.18661 0.34486 0.0
C667 C 0.78335 0.19091 0.34234 0.0
C668 C 0.78993 0.17931 0.2951 0.0
C669 C 0.77158 0.1649 0.25019 0.0
C670 C 0.74965 0.19836 0.39421 0.0
C671 C 0.81679 0.18316 0.2903 0.0
H672 H 0.84509 0.27417 0.40514 0.0
H673 H 0.82791 0.21202 0.5273 0.0
H674 H 0.81704 0.23632 0.27547 0.0
H675 H 0.79405 0.24283 0.31078 0.0
H676 H 0.82762 0.26757 0.30858 0.0
H677 H 0.80057 0.16838 0.50059 0.0
H678 H 0.77263 0.16592 0.46354 0.0
H679 H 0.79507 0.16066 0.42161 0.0
H680 H 0.72071 0.16991 0.3007 0.0
H681 H 0.7772 0.15704 0.21307 0.0
H682 H 0.76035 0.21972 0.38962 0.0
H683 H 0.75454 0.19367 0.43881 0.0
H684 H 0.72863 0.19149 0.39301 0.0
H685 H 0.83064 0.20366 0.27928 0.0
H686 H 0.81818 0.17076 0.25504 0.0
H687 H 0.82284 0.17887 0.3339 0.0
C688 C 0.5931 0.82723 0.79421 0.0
C689 C 0.5724 0.83207 0.79146 0.0
C690 C 0.59734 0.81342 0.74818 0.0
C691 C 0.58041 0.80391 0.69806 0.0
C692 C 0.56017 0.8097 0.69396 0.0
C693 C 0.55649 0.82366 0.74028 0.0
C694 C 0.61935 0.80808 0.75449 0.0
C695 C 0.54151 0.80003 0.64188 0.0
C696 C 0.59561 0.77804 0.55428 0.0
C697 C 0.58114 0.75116 0.56311 0.0
C698 C 0.59638 0.7955 0.59843 0.0
C699 C 0.58221 0.78599 0.6528 0.0
C700 C 0.56831 0.75891 0.66256 0.0
C701 C 0.56801 0.74199 0.61805 0.0
C702 C 0.6117 0.82414 0.58604 0.0
C703 C 0.55283 0.74764 0.71933 0.0
H704 H 0.60553 0.83349 0.83336 0.0
H705 H 0.54041 0.82716 0.73731 0.0
H706 H 0.61154 0.78717 0.76302 0.0
H707 H 0.63068 0.81297 0.71222 0.0
H708 H 0.63251 0.81917 0.79198 0.0
H709 H 0.52797 0.80767 0.64282 0.0
H710 H 0.55217 0.80563 0.59865 0.0
H711 H 0.53006 0.77861 0.64313 0.0
H712 H 0.60576 0.78546 0.51215 0.0
H713 H 0.55673 0.72133 0.62577 0.0
H714 H 0.62455 0.8344 0.62456 0.0
H715 H 0.59835 0.83183 0.58066 0.0
H716 H 0.62362 0.82864 0.54472 0.0
H717 H 0.56529 0.75621 0.75934 0.0
H718 H 0.54401 0.7263 0.72153 0.0
H719 H 0.53717 0.75244 0.7219 0.0
C720 C 0.74127 0.55555 0.09289 0.0
C721 C 0.75026 0.56895 0.14749 0.0
C722 C 0.75835 0.55573 0.04886 0.0
C723 C 0.78539 0.56964 0.05899 0.0
C724 C 0.79469 0.58379 0.11337 0.0
C725 C 0.7771 0.58328 0.15681 0.0
C726 C 0.74732 0.54043 0.99185 0.0
C727 C 0.82325 0.59897 0.12635 0.0
C728 C 0.82412 0.54566 0.96893 0.0
C729 C 0.83284 0.56248 0.91927 0.0
C730 C 0.80967 0.54842 0.01569 0.0
C731 C 0.80358 0.56852 0.01332 0.0
C732 C 0.81329 0.58624 0.96461 0.0
C733 C 0.8277 0.58302 0.91843 0.0
C734 C 0.79995 0.52906 0.06646 0.0
C735 C 0.8075 0.60802 0.95984 0.0
H736 H 0.72066 0.54437 0.08483 0.0
H737 H 0.78438 0.59361 0.19875 0.0
H738 H 0.75583 0.55315 0.9521 0.0
H739 H 0.75241 0.52498 0.98879 0.0
H740 H 0.72598 0.53137 0.98962 0.0
H741 H 0.82758 0.61013 0.16883 0.0
H742 H 0.83103 0.58561 0.12971 0.0
H743 H 0.83358 0.61256 0.08894 0.0
H744 H 0.8278 0.52966 0.97034 0.0
H745 H 0.83416 0.59614 0.88043 0.0
H746 H 0.77857 0.51728 0.06441 0.0
H747 H 0.80505 0.53916 0.11039 0.0
H748 H 0.80797 0.51586 0.06461 0.0
H749 H 0.78655 0.59997 0.95175 0.0
H750 H 0.81839 0.62159 0.92272 0.0
H751 H 0.81229 0.619 1.00258 0.0
C752 C 0.16856 0.73376 0.37606 0.0
C753 C 0.15863 0.74146 0.42391 0.0
C754 C 0.18508 0.75162 0.33252 0.0
C755 C 0.19241 0.77811 0.33704 0.0
C756 C 0.18199 0.78591 0.38454 0.0
C757 C 0.16516 0.76755 0.42694 0.0
C758 C 0.19522 0.74217 0.28233 0.0
C759 C 0.18938 0.81387 0.39193 0.0
C760 C 0.25629 0.82544 0.25962 0.0
C761 C 0.24797 0.83082 0.20525 0.0
C762 C 0.23851 0.80926 0.30371 0.0
C763 C 0.21156 0.79763 0.2932 0.0
C764 C 0.20307 0.80373 0.23931 0.0
C765 C 0.22128 0.82031 0.19641 0.0
C766 C 0.24863 0.80385 0.36075 0.0
C767 C 0.17465 0.79171 0.22554 0.0
H768 H 0.16378 0.71375 0.37317 0.0
H769 H 0.15791 0.77388 0.46394 0.0
H770 H 0.1912 0.74809 0.23822 0.0
H771 H 0.21648 0.75111 0.28638 0.0
H772 H 0.18652 0.72082 0.28274 0.0
H773 H 0.17879 0.81673 0.42941 0.0
H774 H 0.21041 0.82569 0.40085 0.0
H775 H 0.18547 0.82129 0.34989 0.0
H776 H 0.27678 0.8333 0.26707 0.0
H777 H 0.21449 0.82398 0.15444 0.0
H778 H 0.2434 0.78324 0.36192 0.0
H779 H 0.23962 0.80735 0.40052 0.0
H780 H 0.26995 0.816 0.36464 0.0
H781 H 0.16604 0.77052 0.22023 0.0
H782 H 0.17108 0.79964 0.1838 0.0
H783 H 0.16447 0.7949 0.26332 0.0
C784 C 0.44973 0.17932 0.72068 0.0
C785 C 0.43394 0.1714 0.77214 0.0
C786 C 0.44683 0.19409 0.67477 0.0
C787 C 0.42766 0.20138 0.67976 0.0
C788 C 0.41105 0.19266 0.73059 0.0
C789 C 0.41438 0.17789 0.77588 0.0
C790 C 0.46501 0.20271 0.62175 0.0
C791 C 0.39029 0.19973 0.73831 0.0
C792 C 0.44084 0.26339 0.59708 0.0
C793 C 0.42601 0.25398 0.54439 0.0
C794 C 0.44108 0.2466 0.64156 0.0
C795 C 0.42615 0.21941 0.6339 0.0
C796 C 0.41059 0.20974 0.58154 0.0
C797 C 0.41071 0.22703 0.53764 0.0
C798 C 0.45792 0.25806 0.69628 0.0
C799 C 0.39429 0.18103 0.57109 0.0
H800 H 0.46499 0.17463 0.71698 0.0
H801 H 0.40208 0.17212 0.81529 0.0
H802 H 0.45392 0.1973 0.57913 0.0
H803 H 0.4773 0.22407 0.62209 0.0
H804 H 0.47775 0.19413 0.6222 0.0
H805 H 0.37764 0.18987 0.77753 0.0
H806 H 0.39933 0.22092 0.74463 0.0
H807 H 0.37816 0.19463 0.69733 0.0
H808 H 0.45283 0.28408 0.60316 0.0
H809 H 0.39929 0.21938 0.49721 0.0
H810 H 0.47295 0.25236 0.69737 0.0
H811 H 0.4462 0.25042 0.73775 0.0
H812 H 0.46761 0.27949 0.69698 0.0
H813 H 0.40694 0.1725 0.56625 0.0
H814 H 0.38214 0.17646 0.53016 0.0
H815 H 0.38154 0.1716 0.61034 0.0
C816 C 0.22896 0.48714 0.69306 0.0
C817 C 0.21303 0.49637 0.67258 0.0
C818 C 0.25042 0.49114 0.65955 0.0
C819 C 0.25446 0.50226 0.60156 0.0
C820 C 0.24114 0.51551 0.58601 0.0
C821 C 0.22103 0.51309 0.6233 0.0
C822 C 0.26809 0.48291 0.6864 0.0
C823 C 0.24763 0.5317 0.52983 0.0
C824 C 0.29826 0.50618 0.4719 0.0
C825 C 0.28443 0.481 0.44927 0.0
C826 C 0.29032 0.51301 0.52503 0.0
C827 C 0.26696 0.4947 0.55348 0.0
C828 C 0.25376 0.46887 0.53164 0.0
C829 C 0.26263 0.46248 0.47985 0.0
C830 C 0.30792 0.53937 0.55125 0.0
C831 C 0.23052 0.4475 0.56312 0.0
H832 H 0.22444 0.47636 0.73487 0.0
H833 H 0.21131 0.5237 0.61319 0.0
H834 H 0.28533 0.48898 0.65815 0.0
H835 H 0.27451 0.49183 0.73146 0.0
H836 H 0.25739 0.46171 0.69337 0.0
H837 H 0.23562 0.54092 0.52492 0.0
H838 H 0.26794 0.54752 0.53152 0.0
H839 H 0.2453 0.51977 0.48959 0.0
H840 H 0.3158 0.52026 0.44937 0.0
H841 H 0.25232 0.44286 0.46277 0.0
H842 H 0.32719 0.5415 0.55965 0.0
H843 H 0.30068 0.54284 0.5941 0.0
H844 H 0.31085 0.5545 0.51809 0.0
H845 H 0.23692 0.44157 0.6037 0.0
H846 H 0.22017 0.43008 0.53447 0.0
H847 H 0.21696 0.45398 0.57758 0.0
C848 C 0.83561 0.25663 0.78444 0.0
C849 C 0.82601 0.26552 0.73876 0.0
C850 C 0.82037 0.24323 0.83386 0.0
C851 C 0.79374 0.23509 0.83297 0.0
C852 C 0.78335 0.24249 0.78467 0.0
C853 C 0.79987 0.25841 0.73917 0.0
C854 C 0.83299 0.23856 0.88771 0.0
C855 C 0.75497 0.23367 0.77916 0.0
C856 C 0.75813 0.1767 0.93334 0.0
C857 C 0.74649 0.18522 0.97465 0.0
C858 C 0.772 0.19214 0.88443 0.0
C859 C 0.77699 0.2179 0.88132 0.0
C860 C 0.76706 0.22739 0.92605 0.0
C861 C 0.75118 0.21061 0.97114 0.0
C862 C 0.78097 0.18074 0.83575 0.0
C863 C 0.77312 0.25513 0.92677 0.0
H864 H 0.85506 0.26006 0.78148 0.0
H865 H 0.79207 0.26454 0.70284 0.0
H866 H 0.8322 0.24993 0.92609 0.0
H867 H 0.82283 0.21828 0.90314 0.0
H868 H 0.85327 0.24394 0.87855 0.0
H869 H 0.74801 0.22553 0.73366 0.0
H870 H 0.74275 0.21897 0.81287 0.0
H871 H 0.75223 0.25064 0.78377 0.0
H872 H 0.75648 0.15803 0.93944 0.0
H873 H 0.74282 0.21753 1.00439 0.0
H874 H 0.80204 0.19194 0.82849 0.0
H875 H 0.77213 0.1813 0.79242 0.0
H876 H 0.77613 0.16071 0.84626 0.0
H877 H 0.77072 0.26114 0.97243 0.0
H878 H 0.75964 0.25725 0.89622 0.0
H879 H 0.79312 0.26847 0.91126 0.0
C880 C 0.5619 0.81581 0.10502 0.0
C881 C 0.54251 0.80655 0.06145 0.0
C882 C 0.56087 0.80014 0.1529 0.0
C883 C 0.54189 0.77356 0.15256 0.0
C884 C 0.52378 0.76342 0.10499 0.0
C885 C 0.52373 0.78027 0.06109 0.0
C886 C 0.58005 0.81211 0.20384 0.0
C887 C 0.50463 0.73488 0.1 0.0
C888 C 0.56593 0.73867 0.25063 0.0
C889 C 0.54674 0.72737 0.29456 0.0
C890 C 0.56311 0.7514 0.20109 0.0
C891 C 0.54237 0.75637 0.2 0.0
C892 C 0.52353 0.74637 0.24642 0.0
C893 C 0.52557 0.73129 0.29217 0.0
C894 C 0.58187 0.75864 0.14917 0.0
C895 C 0.5015 0.7518 0.25025 0.0
H896 H 0.57764 0.83554 0.1023 0.0
H897 H 0.50927 0.77277 0.0259 0.0
H898 H 0.5696 0.80756 0.24735 0.0
H899 H 0.59329 0.80428 0.2066 0.0
H900 H 0.59234 0.8333 0.19863 0.0
H901 H 0.49641 0.72953 0.05403 0.0
H902 H 0.51382 0.72327 0.11162 0.0
H903 H 0.48848 0.72963 0.13182 0.0
H904 H 0.58346 0.73793 0.25532 0.0
H905 H 0.51103 0.72335 0.32721 0.0
H906 H 0.58885 0.77831 0.13158 0.0
H907 H 0.57164 0.74563 0.11106 0.0
H908 H 0.59905 0.75715 0.16131 0.0
H909 H 0.50252 0.76137 0.29372 0.0
H910 H 0.4829 0.73324 0.24987 0.0
H911 H 0.50129 0.76416 0.21349 0.0
C912 C 0.73532 0.55937 0.46478 0.0
C913 C 0.72513 0.54027 0.42056 0.0
C914 C 0.74752 0.55679 0.51566 0.0
C915 C 0.75374 0.53691 0.51729 0.0
C916 C 0.7447 0.51807 0.4709 0.0
C917 C 0.72967 0.51951 0.42432 0.0
C918 C 0.75267 0.57474 0.56834 0.0
C919 C 0.75108 0.49666 0.46777 0.0
C920 C 0.8139 0.55878 0.61105 0.0
C921 C 0.80591 0.53837 0.65166 0.0
C922 C 0.79754 0.55783 0.56502 0.0
C923 C 0.77145 0.53749 0.56463 0.0
C924 C 0.76237 0.51858 0.61067 0.0
C925 C 0.78 0.51867 0.65229 0.0
C926 C 0.80835 0.57857 0.51692 0.0
C927 C 0.73423 0.49819 0.61617 0.0
H928 H 0.73425 0.57665 0.4592 0.0
H929 H 0.72252 0.50494 0.38931 0.0
H930 H 0.73736 0.56426 0.60211 0.0
H931 H 0.77085 0.58039 0.59248 0.0
H932 H 0.75274 0.59262 0.55462 0.0
H933 H 0.76089 0.49794 0.42445 0.0
H934 H 0.76355 0.49696 0.50474 0.0
H935 H 0.7329 0.47771 0.46824 0.0
H936 H 0.83327 0.57516 0.61423 0.0
H937 H 0.7734 0.50345 0.68572 0.0
H938 H 0.80022 0.59154 0.52019 0.0
H939 H 0.80337 0.5696 0.47165 0.0
H940 H 0.82954 0.59114 0.52081 0.0
H941 H 0.72143 0.50571 0.60188 0.0
H942 H 0.72924 0.491 0.66308 0.0
H943 H 0.73019 0.4815 0.58723 0.0
C944 C 0.15226 0.74186 0.75439 0.0
C945 C 0.16199 0.73167 0.71219 0.0
C946 C 0.16507 0.7518 0.80908 0.0
C947 C 0.18987 0.75481 0.81762 0.0
C948 C 0.20002 0.74488 0.77431 0.0
C949 C 0.18553 0.73277 0.72309 0.0
C950 C 0.15177 0.75818 0.85842 0.0
C951 C 0.22614 0.74693 0.77984 0.0
C952 C 0.23421 0.81426 0.90715 0.0
C953 C 0.2445 0.80429 0.94853 0.0
C954 C 0.21648 0.7984 0.86384 0.0
C955 C 0.20642 0.77134 0.86702 0.0
C956 C 0.2138 0.76074 0.91482 0.0
C957 C 0.23356 0.77745 0.95375 0.0
C958 C 0.20971 0.81089 0.81317 0.0
C959 C 0.20173 0.73196 0.92382 0.0
H960 H 0.13493 0.74244 0.74429 0.0
H961 H 0.19318 0.72489 0.69038 0.0
H962 H 0.14655 0.74377 0.89486 0.0
H963 H 0.16439 0.77695 0.8803 0.0
H964 H 0.13421 0.75805 0.84198 0.0
H965 H 0.23658 0.75303 0.73626 0.0
H966 H 0.23855 0.76055 0.81493 0.0
H967 H 0.22336 0.72753 0.79028 0.0
H968 H 0.24067 0.83468 0.90742 0.0
H969 H 0.2404 0.76948 0.98817 0.0
H970 H 0.18913 0.80538 0.81393 0.0
H971 H 0.21334 0.80454 0.76921 0.0
H972 H 0.22072 0.83222 0.81585 0.0
H973 H 0.18184 0.72121 0.9053 0.0
H974 H 0.20103 0.72723 0.97232 0.0
H975 H 0.21372 0.72514 0.90109 0.0
C976 C 0.47759 0.22088 0.03895 0.0
C977 C 0.45912 0.19454 0.03839 0.0
C978 C 0.47598 0.23758 0.0808 0.0
C979 C 0.45662 0.22719 0.12597 0.0
C980 C 0.43755 0.20061 0.12414 0.0
C981 C 0.43825 0.18516 0.07799 0.0
C982 C 0.4951 0.26615 0.07605 0.0
C983 C 0.41605 0.18825 0.16999 0.0
C984 C 0.47366 0.2697 0.26506 0.0
C985 C 0.45219 0.27303 0.26976 0.0
C986 C 0.47536 0.2546 0.21907 0.0
C987 C 0.4558 0.24394 0.17427 0.0
C988 C 0.43453 0.24813 0.1781 0.0
C989 C 0.43231 0.26115 0.22779 0.0
C990 C 0.49794 0.24996 0.221 0.0
C991 C 0.4138 0.23924 0.13051 0.0
H992 H 0.4931 0.22855 1.0062 0.0
H993 H 0.42263 0.16544 0.07372 0.0
H994 H 0.5004 0.27193 0.02839 0.0
H995 H 0.48748 0.27811 0.09546 0.0
H996 H 0.51307 0.27052 0.10013 0.0
H997 H 0.40723 0.16707 0.17038 0.0
H998 H 0.42296 0.1959 0.21582 0.0
H999 H 0.40004 0.19156 0.15797 0.0
H1000 H 0.48881 0.27817 0.2986 0.0
H1001 H 0.41474 0.26176 0.23396 0.0
H1002 H 0.51605 0.2685 0.21277 0.0
H1003 H 0.49664 0.23555 0.18802 0.0
H1004 H 0.49956 0.24332 0.26659 0.0
H1005 H 0.41417 0.2562 0.11094 0.0
H1006 H 0.39441 0.22752 0.15121 0.0
H1007 H 0.41609 0.22862 0.09252 0.0
C1008 C 0.39089 0.52655 0.32837 0.0
C1009 C 0.38259 0.5057 0.36837 0.0
C1010 C 0.41511 0.54899 0.33525 0.0
C1011 C 0.43148 0.55064 0.38313 0.0
C1012 C 0.42357 0.52942 0.42256 0.0
C1013 C 0.3993 0.50726 0.4147 0.0
C1014 C 0.42296 0.57118 0.29198 0.0
C1015 C 0.44055 0.53031 0.47379 0.0
C1016 C 0.50245 0.60009 0.36408 0.0
C1017 C 0.50478 0.62121 0.39697 0.0
C1018 C 0.47895 0.57677 0.36088 0.0
C1019 C 0.4571 0.57442 0.39118 0.0
C1020 C 0.45958 0.59517 0.42699 0.0
C1021 C 0.48348 0.61835 0.42966 0.0
C1022 C 0.47727 0.55506 0.32283 0.0
C1023 C 0.43671 0.59331 0.46016 0.0
H1024 H 0.37815 0.5257 0.29271 0.0
H1025 H 0.39319 0.49132 0.44595 0.0
H1026 H 0.42625 0.58865 0.31686 0.0
H1027 H 0.44142 0.57595 0.26969 0.0
H1028 H 0.40815 0.56679 0.25682 0.0
H1029 H 0.43179 0.51197 0.49979 0.0
H1030 H 0.45957 0.53427 0.45635 0.0
H1031 H 0.44419 0.54631 0.50479 0.0
H1032 H 0.5189 0.60209 0.339 0.0
H1033 H 0.48508 0.63463 0.4547 0.0
H1034 H 0.46438 0.5517 0.28389 0.0
H1035 H 0.46875 0.53685 0.34913 0.0
H1036 H 0.49644 0.5593 0.30566 0.0
H1037 H 0.42205 0.59181 0.42734 0.0
H1038 H 0.44219 0.61036 0.48934 0.0
H1039 H 0.42745 0.57561 0.48831 0.0
C1040 C 0.85049 0.4592 0.73903 0.0
C1041 C 0.8496 0.47308 0.68914 0.0
C1042 C 0.85232 0.43678 0.7313 0.0
C1043 C 0.85372 0.42844 0.67246 0.0
C1044 C 0.85139 0.44154 0.62221 0.0
C1045 C 0.84899 0.46338 0.63117 0.0
C1046 C 0.85395 0.42273 0.78598 0.0
C1047 C 0.85313 0.43355 0.55873 0.0
C1048 C 0.89163 0.39362 0.65245 0.0
C1049 C 0.87188 0.36814 0.64355 0.0
C1050 C 0.88595 0.4135 0.66089 0.0
C1051 C 0.85983 0.40747 0.66285 0.0
C1052 C 0.8398 0.38169 0.65349 0.0
C1053 C 0.84612 0.36234 0.64315 0.0
C1054 C 0.90789 0.44087 0.66875 0.0
C1055 C 0.81175 0.37441 0.65682 0.0
H1056 H 0.85081 0.46639 0.7839 0.0
H1057 H 0.84786 0.47358 0.59204 0.0
H1058 H 0.84076 0.4016 0.78127 0.0
H1059 H 0.87385 0.42602 0.79031 0.0
H1060 H 0.84903 0.42939 0.82791 0.0
H1061 H 0.84935 0.44482 0.52456 0.0
H1062 H 0.87272 0.43645 0.5508 0.0
H1063 H 0.83915 0.41274 0.5519 0.0
H1064 H 0.9115 0.39786 0.65405 0.0
H1065 H 0.83086 0.34239 0.63834 0.0
H1066 H 0.90688 0.44807 0.71401 0.0
H1067 H 0.90623 0.45376 0.63533 0.0
H1068 H 0.92709 0.44242 0.66347 0.0
H1069 H 0.80743 0.37897 0.70219 0.0
H1070 H 0.79852 0.35356 0.6477 0.0
H1071 H 0.80766 0.3859 0.62408 0.0
C1072 C 0.45704 0.82904 0.95995 0.0
C1073 C 0.47666 0.84814 0.99526 0.0
C1074 C 0.43201 0.82568 0.96071 0.0
C1075 C 0.42691 0.84233 0.9962 0.0
C1076 C 0.44681 0.86174 0.03147 0.0
C1077 C 0.47131 0.86419 0.03104 0.0
C1078 C 0.41106 0.80447 0.92347 0.0
C1079 C 0.4425 0.88046 0.06839 0.0
C1080 C 0.37513 0.8574 0.94977 0.0
C1081 C 0.35631 0.84479 0.9944 0.0
C1082 C 0.39779 0.85604 0.94887 0.0
C1083 C 0.40156 0.84121 0.99294 0.0
C1084 C 0.38227 0.82766 0.03701 0.0
C1085 C 0.35995 0.82993 0.0378 0.0
C1086 C 0.4182 0.87149 0.90232 0.0
C1087 C 0.38548 0.81125 0.08394 0.0
H1088 H 0.46114 0.81646 0.93282 0.0
H1089 H 0.48655 0.87914 0.05804 0.0
H1090 H 0.39392 0.79235 0.95191 0.0
H1091 H 0.40481 0.813 0.88754 0.0
H1092 H 0.41758 0.79189 0.90228 0.0
H1093 H 0.45997 0.89421 0.09402 0.0
H1094 H 0.43691 0.89173 0.03852 0.0
H1095 H 0.42643 0.86979 0.10058 0.0
H1096 H 0.37256 0.86916 0.91641 0.0
H1097 H 0.34534 0.82 0.07201 0.0
H1098 H 0.4235 0.85882 0.87719 0.0
H1099 H 0.43593 0.88651 0.92492 0.0
H1100 H 0.41175 0.88117 0.86965 0.0
H1101 H 0.39097 0.79795 0.06236 0.0
H1102 H 0.36758 0.79968 0.11058 0.0
H1103 H 0.4013 0.82379 0.11513 0.0
C1104 C 0.6001 0.49513 0.35638 0.0
C1105 C 0.62032 0.4969 0.32066 0.0
C1106 C 0.57686 0.47179 0.36314 0.0
C1107 C 0.57345 0.44949 0.33308 0.0
C1108 C 0.59338 0.45118 0.29537 0.0
C1109 C 0.61664 0.47492 0.28955 0.0
C1110 C 0.55606 0.47098 0.4032 0.0
C1111 C 0.59029 0.42782 0.2621 0.0
C1112 C 0.52024 0.38439 0.39234 0.0
C1113 C 0.49992 0.37918 0.3529 0.0
C1114 C 0.54448 0.40705 0.38604 0.0
C1115 C 0.54843 0.42481 0.3392 0.0
C1116 C 0.52791 0.41977 0.29988 0.0
C1117 C 0.50401 0.39722 0.30738 0.0
C1118 C 0.5659 0.41196 0.42922 0.0
C1119 C 0.53117 0.43821 0.24963 0.0
H1120 H 0.60265 0.51202 0.38043 0.0
H1121 H 0.63222 0.47602 0.26247 0.0
H1122 H 0.53817 0.46486 0.37691 0.0
H1123 H 0.55128 0.45653 0.43949 0.0
H1124 H 0.56192 0.49 0.42408 0.0
H1125 H 0.60744 0.43233 0.23419 0.0
H1126 H 0.58707 0.4124 0.29461 0.0
H1127 H 0.57306 0.41995 0.23256 0.0
H1128 H 0.51741 0.37055 0.42723 0.0
H1129 H 0.48852 0.3936 0.27657 0.0
H1130 H 0.57223 0.43036 0.45357 0.0
H1131 H 0.58287 0.41406 0.40405 0.0
H1132 H 0.55991 0.39615 0.46265 0.0
H1133 H 0.53595 0.45726 0.26852 0.0
H1134 H 0.51352 0.43101 0.22165 0.0
H1135 H 0.54746 0.44137 0.22015 0.0
C1136 C 0.13551 0.62328 0.62068 0.0
C1137 C 0.11734 0.62795 0.64934 0.0
C1138 C 0.13696 0.60101 0.63384 0.0
C1139 C 0.11966 0.5828 0.67613 0.0
C1140 C 0.10126 0.58736 0.70499 0.0
C1141 C 0.10055 0.60994 0.6918 0.0
C1142 C 0.15705 0.59695 0.60254 0.0
C1143 C 0.08223 0.56832 0.7497 0.0
C1144 C 0.10906 0.51481 0.66287 0.0
C1145 C 0.1254 0.51459 0.70787 0.0
C1146 C 0.10632 0.53653 0.6535 0.0
C1147 C 0.12056 0.5588 0.6894 0.0
C1148 C 0.13624 0.55834 0.73657 0.0
C1149 C 0.13833 0.53615 0.74555 0.0
C1150 C 0.08894 0.53599 0.60363 0.0
C1151 C 0.15182 0.58174 0.77564 0.0
H1152 H 0.14873 0.6371 0.58823 0.0
H1153 H 0.08682 0.61352 0.71529 0.0
H1154 H 0.1695 0.59478 0.63629 0.0
H1155 H 0.14749 0.57884 0.57593 0.0
H1156 H 0.1695 0.6132 0.57201 0.0
H1157 H 0.06884 0.57454 0.76748 0.0
H1158 H 0.07064 0.54911 0.72826 0.0
H1159 H 0.0927 0.56589 0.78797 0.0
H1160 H 0.09895 0.49818 0.63367 0.0
H1161 H 0.15123 0.53627 0.7799 0.0
H1162 H 0.10072 0.55 0.5681 0.0
H1163 H 0.07528 0.54191 0.62095 0.0
H1164 H 0.07767 0.51654 0.58293 0.0
H1165 H 0.16647 0.59783 0.74779 0.0
H1166 H 0.1619 0.5778 0.81252 0.0
H1167 H 0.13917 0.5884 0.79557 0.0
C1168 C 0.6369 0.16047 0.04902 0.0
C1169 C 0.63777 0.13914 0.02561 0.0
C1170 C 0.61571 0.16399 0.03747 0.0
C1171 C 0.59475 0.14555 1.00249 0.0
C1172 C 0.59565 0.12411 0.97848 0.0
C1173 C 0.61714 0.12125 0.99004 0.0
C1174 C 0.61551 0.18718 0.06361 0.0
C1175 C 0.57353 0.10367 0.94214 0.0
C1176 C 0.5281 0.13485 0.03624 0.0
C1177 C 0.52319 0.14656 0.987 0.0
C1178 C 0.5513 0.13472 0.04177 0.0
C1179 C 0.57052 0.1468 0.99721 0.0
C1180 C 0.56596 0.15882 0.94733 0.0
C1181 C 0.54219 0.15839 0.9425 0.0
C1182 C 0.55502 0.12121 0.0951 0.0
C1183 C 0.58616 0.17206 0.89921 0.0
H1184 H 0.65291 0.17459 0.0757 0.0
H1185 H 0.61759 0.1047 0.97162 0.0
H1186 H 0.6111 0.19742 0.02808 0.0
H1187 H 0.60011 0.18076 0.09811 0.0
H1188 H 0.63425 0.20099 0.08477 0.0
H1189 H 0.57793 0.08906 0.92348 0.0
H1190 H 0.55607 0.09357 0.97087 0.0
H1191 H 0.56873 0.11269 0.90447 0.0
H1192 H 0.51351 0.12528 0.07067 0.0
H1193 H 0.53862 0.16751 0.90447 0.0
H1194 H 0.57246 0.13494 0.1207 0.0
H1195 H 0.55809 0.10534 0.07941 0.0
H1196 H 0.53821 0.11295 0.12614 0.0
H1197 H 0.60453 0.18698 0.91971 0.0
H1198 H 0.58012 0.18137 0.86459 0.0
H1199 H 0.59014 0.15784 0.87684 0.0
loop_
_geom_bond_atom_site_label_1
_geom_bond_atom_site_label_2
_geom_bond_distance
_geom_bond_site_symmetry_2
_ccdc_geom_bond_type
Mn0 O5 2.095 . S
Mn0 O15 2.162 . S
Mn0 O16 2.297 . S
Mn0 O24 2.385 . S
Mn0 O25 2.209 . S
Mn0 O26 2.094 . S
Mn1 O6 2.121 . S
Mn1 N8 2.257 . S
Mn1 N17 2.282 . S
Mn1 O25 2.215 . S
Mn1 O27 2.117 . S
C2 O24 1.234 . S
C2 O25 1.283 . S
C3 O15 1.281 . S
C3 O16 1.236 . S
C4 O26 1.240 . S
C4 O27 1.264 . S
O5 Mn0 2.095 . S
O5 C14 1.250 . S
O6 Mn1 2.121 . S
O6 C14 1.258 . S
C7 N8 1.326 . S
C7 C11 1.460 . S
C7 H13 0.929 . S
N8 Mn1 2.257 . S
N8 C7 1.326 . S
N8 C12 1.362 . S
C9 C10 1.258 . S
C9 C12 1.431 . S
C9 C29 1.449 . S
C10 C9 1.258 . S
C10 C11 1.477 . S
C10 H30 0.931 . S
C11 C7 1.460 . S
C11 C10 1.477 . S
C11 H31 0.930 . S
C12 N8 1.362 . S
C12 C9 1.431 . S
C12 C22 1.476 . S
H13 C7 0.929 . S
C14 O5 1.250 . S
C14 O6 1.258 . S
O15 Mn0 2.162 . S
O15 C3 1.281 . S
O16 Mn0 2.297 . S
O16 C3 1.236 . S
N17 Mn1 2.282 . S
N17 C18 1.328 . S
N17 C22 1.318 . S
C18 N17 1.328 . S
C18 C19 1.457 . S
C18 H23 0.929 . S
C19 C18 1.457 . S
C19 C20 1.291 . S
C19 H32 0.931 . S
C20 C19 1.291 . S
C20 C21 1.373 . S
C20 H33 0.929 . S
C21 C20 1.373 . S
C21 C22 1.396 . S
C21 C28 1.403 . S
C22 C12 1.476 . S
C22 N17 1.318 . S
C22 C21 1.396 . S
H23 C18 0.929 . S
O24 Mn0 2.385 . S
O24 C2 1.234 . S
O25 Mn0 2.209 . S
O25 Mn1 2.215 . S
O25 C2 1.283 . S
O26 Mn0 2.094 . S
O26 C4 1.240 . S
O27 Mn1 2.117 . S
O27 C4 1.264 . S
C28 C21 1.403 . S
C28 C29 1.399 . S
C28 H34 0.929 . S
C29 C9 1.449 . S
C29 C28 1.399 . S
C29 H35 0.930 . S
H30 C10 0.931 . S
H31 C11 0.930 . S
H32 C19 0.931 . S
H33 C20 0.929 . S
H34 C28 0.929 . S
H35 C29 0.930 . S
Mn36 O41 2.095 . S
Mn36 O51 2.162 . S
Mn36 O52 2.297 . S
Mn36 O60 2.385 . S
Mn36 O61 2.209 . S
Mn36 O62 2.094 . S
Mn37 O42 2.121 . S
Mn37 N44 2.257 . S
Mn37 N53 2.282 . S
Mn37 O61 2.215 . S
Mn37 O63 2.117 . S
C38 O60 1.234 . S
C38 O61 1.283 . S
C39 O51 1.281 . S
C39 O52 1.236 . S
C40 O62 1.240 . S
C40 O63 1.264 . S
O41 Mn36 2.095 . S
O41 C50 1.250 . S
O42 Mn37 2.121 . S
O42 C50 1.258 . S
C43 N44 1.326 . S
C43 C47 1.460 . S
C43 H49 0.929 . S
N44 Mn37 2.257 . S
N44 C43 1.326 . S
N44 C48 1.362 . S
C45 C46 1.258 . S
C45 C48 1.431 . S
C45 C65 1.449 . S
C46 C45 1.258 . S
C46 C47 1.477 . S
C46 H66 0.931 . S
C47 C43 1.460 . S
C47 C46 1.477 . S
C47 H67 0.930 . S
C48 N44 1.362 . S
C48 C45 1.431 . S
C48 C58 1.476 . S
H49 C43 0.929 . S
C50 O41 1.250 . S
C50 O42 1.258 . S
O51 Mn36 2.162 . S
O51 C39 1.281 . S
O52 Mn36 2.297 . S
O52 C39 1.236 . S
N53 Mn37 2.282 . S
N53 C54 1.328 . S
N53 C58 1.318 . S
C54 N53 1.328 . S
C54 C55 1.457 . S
C54 H59 0.929 . S
C55 C54 1.457 . S
C55 C56 1.291 . S
C55 H68 0.931 . S
C56 C55 1.291 . S
C56 C57 1.373 . S
C56 H69 0.929 . S
C57 C56 1.373 . S
C57 C58 1.396 . S
C57 C64 1.403 . S
C58 C48 1.476 . S
C58 N53 1.318 . S
C58 C57 1.396 . S
H59 C54 0.929 . S
O60 Mn36 2.385 . S
O60 C38 1.234 . S
O61 Mn36 2.209 . S
O61 Mn37 2.215 . S
O61 C38 1.283 . S
O62 Mn36 2.094 . S
O62 C40 1.240 . S
O63 Mn37 2.117 . S
O63 C40 1.264 . S
C64 C57 1.403 . S
C64 C65 1.399 . S
C64 H70 0.929 . S
C65 C45 1.449 . S
C65 C64 1.399 . S
C65 H71 0.930 . S
H66 C46 0.931 . S
H67 C47 0.930 . S
H68 C55 0.931 . S
H69 C56 0.929 . S
H70 C64 0.929 . S
H71 C65 0.930 . S
Mn72 O77 2.095 . S
Mn72 O87 2.162 . S
Mn72 O88 2.297 . S
Mn72 O96 2.385 . S
Mn72 O97 2.209 1_556 S
Mn72 O98 2.094 . S
Mn73 O78 2.121 . S
Mn73 N80 2.257 . S
Mn73 N89 2.282 . S
Mn73 O97 2.215 . S
Mn73 O99 2.117 . S
C74 O96 1.234 1_554 S
C74 O97 1.283 . S
C75 O87 1.281 . S
C75 O88 1.236 . S
C76 O98 1.240 . S
C76 O99 1.264 1_556 S
O77 Mn72 2.095 . S
O77 C86 1.250 . S
O78 Mn73 2.121 . S
O78 C86 1.258 1_554 S
C79 N80 1.326 . S
C79 C83 1.460 . S
C79 H85 0.929 . S
N80 Mn73 2.257 . S
N80 C79 1.326 . S
N80 C84 1.362 . S
C81 C82 1.258 . S
C81 C84 1.431 . S
C81 C101 1.449 . S
C82 C81 1.258 . S
C82 C83 1.477 . S
C82 H102 0.931 . S
C83 C79 1.460 . S
C83 C82 1.477 . S
C83 H103 0.930 . S
C84 N80 1.362 . S
C84 C81 1.431 . S
C84 C94 1.476 . S
H85 C79 0.929 . S
C86 O77 1.250 . S
C86 O78 1.258 1_556 S
O87 Mn72 2.162 . S
O87 C75 1.281 . S
O88 Mn72 2.297 . S
O88 C75 1.236 . S
N89 Mn73 2.282 . S
N89 C90 1.328 . S
N89 C94 1.318 . S
C90 N89 1.328 . S
C90 C91 1.457 . S
C90 H95 0.929 . S
C91 C90 1.457 . S
C91 C92 1.291 . S
C91 H104 0.931 . S
C92 C91 1.291 . S
C92 C93 1.373 . S
C92 H105 0.929 . S
C93 C92 1.373 . S
C93 C94 1.396 . S
C93 C100 1.403 . S
C94 C84 1.476 . S
C94 N89 1.318 . S
C94 C93 1.396 . S
H95 C90 0.929 . S
O96 Mn72 2.385 . S
O96 C74 1.234 1_556 S
O97 Mn72 2.209 1_554 S
O97 Mn73 2.215 . S
O97 C74 1.283 . S
O98 Mn72 2.094 . S
O98 C76 1.240 . S
O99 Mn73 2.117 . S
O99 C76 1.264 1_554 S
C100 C93 1.403 . S
C100 C101 1.399 . S
C100 H106 0.929 . S
C101 C81 1.449 . S
C101 C100 1.399 . S
C101 H107 0.930 . S
H102 C82 0.931 . S
H103 C83 0.930 . S
H104 C91 0.931 . S
H105 C92 0.929 . S
H106 C100 0.929 . S
H107 C101 0.930 . S
Mn108 O113 2.095 . S
Mn108 O123 2.162 . S
Mn108 O124 2.297 . S
Mn108 O132 2.385 . S
Mn108 O133 2.209 . S
Mn108 O134 2.094 . S
Mn109 O114 2.121 . S
Mn109 N116 2.257 . S
Mn109 N125 2.282 . S
Mn109 O133 2.215 . S
Mn109 O135 2.117 . S
C110 O132 1.234 . S
C110 O133 1.283 . S
C111 O123 1.281 . S
C111 O124 1.236 . S
C112 O134 1.240 . S
C112 O135 1.264 . S
O113 Mn108 2.095 . S
O113 C122 1.250 . S
O114 Mn109 2.121 . S
O114 C122 1.258 . S
C115 N116 1.326 . S
C115 C119 1.460 . S
C115 H121 0.929 . S
N116 Mn109 2.257 . S
N116 C115 1.326 . S
N116 C120 1.362 . S
C117 C118 1.258 . S
C117 C120 1.431 . S
C117 C137 1.449 . S
C118 C117 1.258 . S
C118 C119 1.477 . S
C118 H138 0.931 . S
C119 C115 1.460 . S
C119 C118 1.477 . S
C119 H139 0.930 . S
C120 N116 1.362 . S
C120 C117 1.431 . S
C120 C130 1.476 . S
H121 C115 0.929 . S
C122 O113 1.250 . S
C122 O114 1.258 . S
O123 Mn108 2.162 . S
O123 C111 1.281 . S
O124 Mn108 2.297 . S
O124 C111 1.236 . S
N125 Mn109 2.282 . S
N125 C126 1.328 . S
N125 C130 1.318 . S
C126 N125 1.328 . S
C126 C127 1.457 . S
C126 H131 0.929 . S
C127 C126 1.457 . S
C127 C128 1.291 . S
C127 H140 0.931 . S
C128 C127 1.291 . S
C128 C129 1.373 . S
C128 H141 0.929 . S
C129 C128 1.373 . S
C129 C130 1.396 . S
C129 C136 1.403 . S
C130 C120 1.476 . S
C130 N125 1.318 . S
C130 C129 1.396 . S
H131 C126 0.929 . S
O132 Mn108 2.385 . S
O132 C110 1.234 . S
O133 Mn108 2.209 . S
O133 Mn109 2.215 . S
O133 C110 1.283 . S
O134 Mn108 2.094 . S
O134 C112 1.240 . S
O135 Mn109 2.117 . S
O135 C112 1.264 . S
C136 C129 1.403 . S
C136 C137 1.399 . S
C136 H142 0.929 . S
C137 C117 1.449 . S
C137 C136 1.399 . S
C137 H143 0.930 . S
H138 C118 0.931 . S
H139 C119 0.930 . S
H140 C127 0.931 . S
H141 C128 0.929 . S
H142 C136 0.929 . S
H143 C137 0.930 . S
Mn144 O149 2.095 . S
Mn144 O159 2.162 . S
Mn144 O160 2.297 . S
Mn144 O168 2.385 . S
Mn144 O169 2.209 . S
Mn144 O170 2.094 . S
Mn145 O150 2.121 . S
Mn145 N152 2.257 . S
Mn145 N161 2.282 . S
Mn145 O169 2.215 . S
Mn145 O171 2.117 . S
C146 O168 1.234 . S
C146 O169 1.283 . S
C147 O159 1.281 . S
C147 O160 1.236 . S
C148 O170 1.240 . S
C148 O171 1.264 . S
O149 Mn144 2.095 . S
O149 C158 1.250 . S
O150 Mn145 2.121 . S
O150 C158 1.258 . S
C151 N152 1.326 . S
C151 C155 1.460 . S
C151 H157 0.929 . S
N152 Mn145 2.257 . S
N152 C151 1.326 . S
N152 C156 1.362 . S
C153 C154 1.258 . S
C153 C156 1.431 . S
C153 C173 1.449 . S
C154 C153 1.258 . S
C154 C155 1.477 . S
C154 H174 0.931 . S
C155 C151 1.460 . S
C155 C154 1.477 . S
C155 H175 0.930 . S
C156 N152 1.362 . S
C156 C153 1.431 . S
C156 C166 1.476 . S
H157 C151 0.929 . S
C158 O149 1.250 . S
C158 O150 1.258 . S
O159 Mn144 2.162 . S
O159 C147 1.281 . S
O160 Mn144 2.297 . S
O160 C147 1.236 . S
N161 Mn145 2.282 . S
N161 C162 1.328 . S
N161 C166 1.318 . S
C162 N161 1.328 . S
C162 C163 1.457 . S
C162 H167 0.929 . S
C163 C162 1.457 . S
C163 C164 1.291 . S
C163 H176 0.931 . S
C164 C163 1.291 . S
C164 C165 1.373 . S
C164 H177 0.929 . S
C165 C164 1.373 . S
C165 C166 1.396 . S
C165 C172 1.403 . S
C166 C156 1.476 . S
C166 N161 1.318 . S
C166 C165 1.396 . S
H167 C162 0.929 . S
O168 Mn144 2.385 . S
O168 C146 1.234 . S
O169 Mn144 2.209 . S
O169 Mn145 2.215 . S
O169 C146 1.283 . S
O170 Mn144 2.094 . S
O170 C148 1.240 . S
O171 Mn145 2.117 . S
O171 C148 1.264 . S
C172 C165 1.403 . S
C172 C173 1.399 . S
C172 H178 0.929 . S
C173 C153 1.449 . S
C173 C172 1.399 . S
C173 H179 0.930 . S
H174 C154 0.931 . S
H175 C155 0.930 . S
H176 C163 0.931 . S
H177 C164 0.929 . S
H178 C172 0.929 . S
H179 C173 0.930 . S
Mn180 O185 2.095 . S
Mn180 O195 2.162 . S
Mn180 O196 2.297 . S
Mn180 O204 2.385 . S
Mn180 O205 2.209 1_556 S
Mn180 O206 2.094 . S
Mn181 O186 2.121 . S
Mn181 N188 2.257 . S
Mn181 N197 2.282 . S
Mn181 O205 2.215 . S
Mn181 O207 2.117 . S
C182 O204 1.234 1_554 S
C182 O205 1.283 . S
C183 O195 1.281 . S
C183 O196 1.236 . S
C184 O206 1.240 . S
C184 O207 1.264 1_556 S
O185 Mn180 2.095 . S
O185 C194 1.250 . S
O186 Mn181 2.121 . S
O186 C194 1.258 1_554 S
C187 N188 1.326 . S
C187 C191 1.460 . S
C187 H193 0.929 . S
N188 Mn181 2.257 . S
N188 C187 1.326 . S
N188 C192 1.362 . S
C189 C190 1.258 . S
C189 C192 1.431 . S
C189 C209 1.449 . S
C190 C189 1.258 . S
C190 C191 1.477 . S
C190 H210 0.931 . S
C191 C187 1.460 . S
C191 C190 1.477 . S
C191 H211 0.930 . S
C192 N188 1.362 . S
C192 C189 1.431 . S
C192 C202 1.476 . S
H193 C187 0.929 . S
C194 O185 1.250 . S
C194 O186 1.258 1_556 S
O195 Mn180 2.162 . S
O195 C183 1.281 . S
O196 Mn180 2.297 . S
O196 C183 1.236 . S
N197 Mn181 2.282 . S
N197 C198 1.328 . S
N197 C202 1.318 . S
C198 N197 1.328 . S
C198 C199 1.457 . S
C198 H203 0.929 . S
C199 C198 1.457 . S
C199 C200 1.291 . S
C199 H212 0.931 . S
C200 C199 1.291 . S
C200 C201 1.373 . S
C200 H213 0.929 . S
C201 C200 1.373 . S
C201 C202 1.396 . S
C201 C208 1.403 . S
C202 C192 1.476 . S
C202 N197 1.318 . S
C202 C201 1.396 . S
H203 C198 0.929 . S
O204 Mn180 2.385 . S
O204 C182 1.234 1_556 S
O205 Mn180 2.209 1_554 S
O205 Mn181 2.215 . S
O205 C182 1.283 . S
O206 Mn180 2.094 . S
O206 C184 1.240 . S
O207 Mn181 2.117 . S
O207 C184 1.264 1_554 S
C208 C201 1.403 . S
C208 C209 1.399 . S
C208 H214 0.929 . S
C209 C189 1.449 . S
C209 C208 1.399 . S
C209 H215 0.930 . S
H210 C190 0.931 . S
H211 C191 0.930 . S
H212 C199 0.931 . S
H213 C200 0.929 . S
H214 C208 0.929 . S
H215 C209 0.930 . S
Mn216 O221 2.095 . S
Mn216 O231 2.162 . S
Mn216 O232 2.297 . S
Mn216 O240 2.385 . S
Mn216 O241 2.209 . S
Mn216 O242 2.094 . S
Mn217 O222 2.121 . S
Mn217 N224 2.257 . S
Mn217 N233 2.282 . S
Mn217 O241 2.215 . S
Mn217 O243 2.117 . S
C218 O240 1.234 . S
C218 O241 1.283 . S
C219 O231 1.281 . S
C219 O232 1.236 . S
C220 O242 1.240 . S
C220 O243 1.264 . S
O221 Mn216 2.095 . S
O221 C230 1.250 . S
O222 Mn217 2.121 . S
O222 C230 1.258 . S
C223 N224 1.326 . S
C223 C227 1.460 . S
C223 H229 0.929 . S
N224 Mn217 2.257 . S
N224 C223 1.326 . S
N224 C228 1.362 . S
C225 C226 1.258 . S
C225 C228 1.431 . S
C225 C245 1.449 . S
C226 C225 1.258 . S
C226 C227 1.477 . S
C226 H246 0.931 . S
C227 C223 1.460 . S
C227 C226 1.477 . S
C227 H247 0.930 . S
C228 N224 1.362 . S
C228 C225 1.431 . S
C228 C238 1.476 . S
H229 C223 0.929 . S
C230 O221 1.250 . S
C230 O222 1.258 . S
O231 Mn216 2.162 . S
O231 C219 1.281 . S
O232 Mn216 2.297 . S
O232 C219 1.236 . S
N233 Mn217 2.282 . S
N233 C234 1.328 . S
N233 C238 1.318 . S
C234 N233 1.328 . S
C234 C235 1.457 . S
C234 H239 0.929 . S
C235 C234 1.457 . S
C235 C236 1.291 . S
C235 H248 0.931 . S
C236 C235 1.291 . S
C236 C237 1.373 . S
C236 H249 0.929 . S
C237 C236 1.373 . S
C237 C238 1.396 . S
C237 C244 1.403 . S
C238 C228 1.476 . S
C238 N233 1.318 . S
C238 C237 1.396 . S
H239 C234 0.929 . S
O240 Mn216 2.385 . S
O240 C218 1.234 . S
O241 Mn216 2.209 . S
O241 Mn217 2.215 . S
O241 C218 1.283 . S
O242 Mn216 2.094 . S
O242 C220 1.240 . S
O243 Mn217 2.117 . S
O243 C220 1.264 . S
C244 C237 1.403 . S
C244 C245 1.399 . S
C244 H250 0.929 . S
C245 C225 1.449 . S
C245 C244 1.399 . S
C245 H251 0.930 . S
H246 C226 0.931 . S
H247 C227 0.930 . S
H248 C235 0.931 . S
H249 C236 0.929 . S
H250 C244 0.929 . S
H251 C245 0.930 . S
Mn252 O257 2.095 . S
Mn252 O267 2.162 . S
Mn252 O268 2.297 . S
Mn252 O276 2.385 . S
Mn252 O277 2.209 . S
Mn252 O278 2.094 . S
Mn253 O258 2.121 . S
Mn253 N260 2.257 . S
Mn253 N269 2.282 . S
Mn253 O277 2.215 . S
Mn253 O279 2.117 . S
C254 O276 1.234 . S
C254 O277 1.283 . S
C255 O267 1.281 . S
C255 O268 1.236 . S
C256 O278 1.240 . S
C256 O279 1.264 . S
O257 Mn252 2.095 . S
O257 C266 1.250 . S
O258 Mn253 2.121 . S
O258 C266 1.258 . S
C259 N260 1.326 . S
C259 C263 1.460 . S
C259 H265 0.929 . S
N260 Mn253 2.257 . S
N260 C259 1.326 . S
N260 C264 1.362 . S
C261 C262 1.258 . S
C261 C264 1.431 . S
C261 C281 1.449 . S
C262 C261 1.258 . S
C262 C263 1.477 . S
C262 H282 0.931 . S
C263 C259 1.460 . S
C263 C262 1.477 . S
C263 H283 0.930 . S
C264 N260 1.362 . S
C264 C261 1.431 . S
C264 C274 1.476 . S
H265 C259 0.929 . S
C266 O257 1.250 . S
C266 O258 1.258 . S
O267 Mn252 2.162 . S
O267 C255 1.281 . S
O268 Mn252 2.297 . S
O268 C255 1.236 . S
N269 Mn253 2.282 . S
N269 C270 1.328 . S
N269 C274 1.318 . S
C270 N269 1.328 . S
C270 C271 1.457 . S
C270 H275 0.929 . S
C271 C270 1.457 . S
C271 C272 1.291 . S
C271 H284 0.931 . S
C272 C271 1.291 . S
C272 C273 1.373 . S
C272 H285 0.929 . S
C273 C272 1.373 . S
C273 C274 1.396 . S
C273 C280 1.403 . S
C274 C264 1.476 . S
C274 N269 1.318 . S
C274 C273 1.396 . S
H275 C270 0.929 . S
O276 Mn252 2.385 . S
O276 C254 1.234 . S
O277 Mn252 2.209 . S
O277 Mn253 2.215 . S
O277 C254 1.283 . S
O278 Mn252 2.094 . S
O278 C256 1.240 . S
O279 Mn253 2.117 . S
O279 C256 1.264 . S
C280 C273 1.403 . S
C280 C281 1.399 . S
C280 H286 0.929 . S
C281 C261 1.449 . S
C281 C280 1.399 . S
C281 H287 0.930 . S
H282 C262 0.931 . S
H283 C263 0.930 . S
H284 C271 0.931 . S
H285 C272 0.929 . S
H286 C280 0.929 . S
H287 C281 0.930 . S
Mn288 O293 2.095 . S
Mn288 O303 2.162 . S
Mn288 O304 2.297 . S
Mn288 O312 2.385 . S
Mn288 O313 2.209 1_554 S
Mn288 O314 2.094 . S
Mn289 O294 2.121 . S
Mn289 N296 2.257 . S
Mn289 N305 2.282 . S
Mn289 O313 2.215 . S
Mn289 O315 2.117 . S
C290 O312 1.234 1_556 S
C290 O313 1.283 . S
C291 O303 1.281 . S
C291 O304 1.236 . S
C292 O314 1.240 . S
C292 O315 1.264 1_554 S
O293 Mn288 2.095 . S
O293 C302 1.250 . S
O294 Mn289 2.121 . S
O294 C302 1.258 1_556 S
C295 N296 1.326 . S
C295 C299 1.460 . S
C295 H301 0.929 . S
N296 Mn289 2.257 . S
N296 C295 1.326 . S
N296 C300 1.362 . S
C297 C298 1.258 . S
C297 C300 1.431 . S
C297 C317 1.449 . S
C298 C297 1.258 . S
C298 C299 1.477 . S
C298 H318 0.931 . S
C299 C295 1.460 . S
C299 C298 1.477 . S
C299 H319 0.930 . S
C300 N296 1.362 . S
C300 C297 1.431 . S
C300 C310 1.476 . S
H301 C295 0.929 . S
C302 O293 1.250 . S
C302 O294 1.258 1_554 S
O303 Mn288 2.162 . S
O303 C291 1.281 . S
O304 Mn288 2.297 . S
O304 C291 1.236 . S
N305 Mn289 2.282 . S
N305 C306 1.328 . S
N305 C310 1.318 . S
C306 N305 1.328 . S
C306 C307 1.457 . S
C306 H311 0.929 . S
C307 C306 1.457 . S
C307 C308 1.291 . S
C307 H320 0.931 . S
C308 C307 1.291 . S
C308 C309 1.373 . S
C308 H321 0.929 . S
C309 C308 1.373 . S
C309 C310 1.396 . S
C309 C316 1.403 . S
C310 C300 1.476 . S
C310 N305 1.318 . S
C310 C309 1.396 . S
H311 C306 0.929 . S
O312 Mn288 2.385 . S
O312 C290 1.234 1_554 S
O313 Mn288 2.209 1_556 S
O313 Mn289 2.215 . S
O313 C290 1.283 . S
O314 Mn288 2.094 . S
O314 C292 1.240 . S
O315 Mn289 2.117 . S
O315 C292 1.264 1_556 S
C316 C309 1.403 . S
C316 C317 1.399 . S
C316 H322 0.929 . S
C317 C297 1.449 . S
C317 C316 1.399 . S
C317 H323 0.930 . S
H318 C298 0.931 . S
H319 C299 0.930 . S
H320 C307 0.931 . S
H321 C308 0.929 . S
H322 C316 0.929 . S
H323 C317 0.930 . S
Mn324 O329 2.095 . S
Mn324 O339 2.162 . S
Mn324 O340 2.297 . S
Mn324 O348 2.385 . S
Mn324 O349 2.209 . S
Mn324 O350 2.094 . S
Mn325 O330 2.121 . S
Mn325 N332 2.257 . S
Mn325 N341 2.282 . S
Mn325 O349 2.215 . S
Mn325 O351 2.117 . S
C326 O348 1.234 . S
C326 O349 1.283 . S
C327 O339 1.281 . S
C327 O340 1.236 . S
C328 O350 1.240 . S
C328 O351 1.264 . S
O329 Mn324 2.095 . S
O329 C338 1.250 . S
O330 Mn325 2.121 . S
O330 C338 1.258 . S
C331 N332 1.326 . S
C331 C335 1.460 . S
C331 H337 0.929 . S
N332 Mn325 2.257 . S
N332 C331 1.326 . S
N332 C336 1.362 . S
C333 C334 1.258 . S
C333 C336 1.431 . S
C333 C353 1.449 . S
C334 C333 1.258 . S
C334 C335 1.477 . S
C334 H354 0.931 . S
C335 C331 1.460 . S
C335 C334 1.477 . S
C335 H355 0.930 . S
C336 N332 1.362 . S
C336 C333 1.431 . S
C336 C346 1.476 . S
H337 C331 0.929 . S
C338 O329 1.250 . S
C338 O330 1.258 . S
O339 Mn324 2.162 . S
O339 C327 1.281 . S
O340 Mn324 2.297 . S
O340 C327 1.236 . S
N341 Mn325 2.282 . S
N341 C342 1.328 . S
N341 C346 1.318 . S
C342 N341 1.328 . S
C342 C343 1.457 . S
C342 H347 0.929 . S
C343 C342 1.457 . S
C343 C344 1.291 . S
C343 H356 0.931 . S
C344 C343 1.291 . S
C344 C345 1.373 . S
C344 H357 0.929 . S
C345 C344 1.373 . S
C345 C346 1.396 . S
C345 C352 1.403 . S
C346 C336 1.476 . S
C346 N341 1.318 . S
C346 C345 1.396 . S
H347 C342 0.929 . S
O348 Mn324 2.385 . S
O348 C326 1.234 . S
O349 Mn324 2.209 . S
O349 Mn325 2.215 . S
O349 C326 1.283 . S
O350 Mn324 2.094 . S
O350 C328 1.240 . S
O351 Mn325 2.117 . S
O351 C328 1.264 . S
C352 C345 1.403 . S
C352 C353 1.399 . S
C352 H358 0.929 . S
C353 C333 1.449 . S
C353 C352 1.399 . S
C353 H359 0.930 . S
H354 C334 0.931 . S
H355 C335 0.930 . S
H356 C343 0.931 . S
H357 C344 0.929 . S
H358 C352 0.929 . S
H359 C353 0.930 . S
Mn360 O365 2.095 . S
Mn360 O375 2.162 . S
Mn360 O376 2.297 . S
Mn360 O384 2.385 . S
Mn360 O385 2.209 . S
Mn360 O386 2.094 . S
Mn361 O366 2.121 . S
Mn361 N368 2.257 . S
Mn361 N377 2.282 . S
Mn361 O385 2.215 . S
Mn361 O387 2.117 . S
C362 O384 1.234 . S
C362 O385 1.283 . S
C363 O375 1.281 . S
C363 O376 1.236 . S
C364 O386 1.240 . S
C364 O387 1.264 . S
O365 Mn360 2.095 . S
O365 C374 1.250 . S
O366 Mn361 2.121 . S
O366 C374 1.258 . S
C367 N368 1.326 . S
C367 C371 1.460 . S
C367 H373 0.929 . S
N368 Mn361 2.257 . S
N368 C367 1.326 . S
N368 C372 1.362 . S
C369 C370 1.258 . S
C369 C372 1.431 . S
C369 C389 1.449 . S
C370 C369 1.258 . S
C370 C371 1.477 . S
C370 H390 0.931 . S
C371 C367 1.460 . S
C371 C370 1.477 . S
C371 H391 0.930 . S
C372 N368 1.362 . S
C372 C369 1.431 . S
C372 C382 1.476 . S
H373 C367 0.929 . S
C374 O365 1.250 . S
C374 O366 1.258 . S
O375 Mn360 2.162 . S
O375 C363 1.281 . S
O376 Mn360 2.297 . S
O376 C363 1.236 . S
N377 Mn361 2.282 . S
N377 C378 1.328 . S
N377 C382 1.318 . S
C378 N377 1.328 . S
C378 C379 1.457 . S
C378 H383 0.929 . S
C379 C378 1.457 . S
C379 C380 1.291 . S
C379 H392 0.931 . S
C380 C379 1.291 . S
C380 C381 1.373 . S
C380 H393 0.929 . S
C381 C380 1.373 . S
C381 C382 1.396 . S
C381 C388 1.403 . S
C382 C372 1.476 . S
C382 N377 1.318 . S
C382 C381 1.396 . S
H383 C378 0.929 . S
O384 Mn360 2.385 . S
O384 C362 1.234 . S
O385 Mn360 2.209 . S
O385 Mn361 2.215 . S
O385 C362 1.283 . S
O386 Mn360 2.094 . S
O386 C364 1.240 . S
O387 Mn361 2.117 . S
O387 C364 1.264 . S
C388 C381 1.403 . S
C388 C389 1.399 . S
C388 H394 0.929 . S
C389 C369 1.449 . S
C389 C388 1.399 . S
C389 H395 0.930 . S
H390 C370 0.931 . S
H391 C371 0.930 . S
H392 C379 0.931 . S
H393 C380 0.929 . S
H394 C388 0.929 . S
H395 C389 0.930 . S
Mn396 O401 2.095 . S
Mn396 O411 2.162 . S
Mn396 O412 2.297 . S
Mn396 O420 2.385 . S
Mn396 O421 2.209 1_554 S
Mn396 O422 2.094 . S
Mn397 O402 2.121 . S
Mn397 N404 2.257 . S
Mn397 N413 2.282 . S
Mn397 O421 2.215 . S
Mn397 O423 2.117 . S
C398 O420 1.234 1_556 S
C398 O421 1.283 . S
C399 O411 1.281 . S
C399 O412 1.236 . S
C400 O422 1.240 . S
C400 O423 1.264 1_554 S
O401 Mn396 2.095 . S
O401 C410 1.250 . S
O402 Mn397 2.121 . S
O402 C410 1.258 1_556 S
C403 N404 1.326 . S
C403 C407 1.460 . S
C403 H409 0.929 . S
N404 Mn397 2.257 . S
N404 C403 1.326 . S
N404 C408 1.362 . S
C405 C406 1.258 . S
C405 C408 1.431 . S
C405 C425 1.449 . S
C406 C405 1.258 . S
C406 C407 1.477 . S
C406 H426 0.931 . S
C407 C403 1.460 . S
C407 C406 1.477 . S
C407 H427 0.930 . S
C408 N404 1.362 . S
C408 C405 1.431 . S
C408 C418 1.476 . S
H409 C403 0.929 . S
C410 O401 1.250 . S
C410 O402 1.258 1_554 S
O411 Mn396 2.162 . S
O411 C399 1.281 . S
O412 Mn396 2.297 . S
O412 C399 1.236 . S
N413 Mn397 2.282 . S
N413 C414 1.328 . S
N413 C418 1.318 . S
C414 N413 1.328 . S
C414 C415 1.457 . S
C414 H419 0.929 . S
C415 C414 1.457 . S
C415 C416 1.291 . S
C415 H428 0.931 . S
C416 C415 1.291 . S
C416 C417 1.373 . S
C416 H429 0.929 . S
C417 C416 1.373 . S
C417 C418 1.396 . S
C417 C424 1.403 . S
C418 C408 1.476 . S
C418 N413 1.318 . S
C418 C417 1.396 . S
H419 C414 0.929 . S
O420 Mn396 2.385 . S
O420 C398 1.234 1_554 S
O421 Mn396 2.209 1_556 S
O421 Mn397 2.215 . S
O421 C398 1.283 . S
O422 Mn396 2.094 . S
O422 C400 1.240 . S
O423 Mn397 2.117 . S
O423 C400 1.264 1_556 S
C424 C417 1.403 . S
C424 C425 1.399 . S
C424 H430 0.929 . S
C425 C405 1.449 . S
C425 C424 1.399 . S
C425 H431 0.930 . S
H426 C406 0.931 . S
H427 C407 0.930 . S
H428 C415 0.931 . S
H429 C416 0.929 . S
H430 C424 0.929 . S
H431 C425 0.930 . S
C432 C433 1.391 . S
C432 C434 1.394 . S
C432 H448 0.931 . S
C433 C432 1.391 . S
C433 C437 1.376 . S
C434 C432 1.394 . S
C434 C435 1.369 . S
C434 C438 1.531 . S
C435 C434 1.369 . S
C435 C436 1.410 . S
C435 C443 1.503 . S
C436 C435 1.410 . S
C436 C437 1.392 . S
C436 C439 1.511 . S
C437 C433 1.376 . S
C437 C436 1.392 . S
C437 H449 0.929 . S
C438 C434 1.531 . S
C438 H450 0.960 . S
C438 H451 0.962 . S
C438 H452 0.960 . S
C439 C436 1.511 . S
C439 H453 0.961 . S
C439 H454 0.961 . S
C439 H455 0.961 . S
C440 C441 1.370 . S
C440 C442 1.363 . S
C440 H456 0.931 . S
C441 C440 1.370 . S
C441 C445 1.408 . S
C442 C440 1.363 . S
C442 C443 1.370 . S
C442 C446 1.524 . S
C443 C435 1.503 . S
C443 C442 1.370 . S
C443 C444 1.403 . S
C444 C443 1.403 . S
C444 C445 1.404 . S
C444 C447 1.539 . S
C445 C441 1.408 . S
C445 C444 1.404 . S
C445 H457 0.930 . S
C446 C442 1.524 . S
C446 H458 0.956 . S
C446 H459 0.961 . S
C446 H460 0.961 . S
C447 C444 1.539 . S
C447 H461 0.958 . S
C447 H462 0.961 . S
C447 H463 0.960 . S
H448 C432 0.931 . S
H449 C437 0.929 . S
H450 C438 0.960 . S
H451 C438 0.962 . S
H452 C438 0.960 . S
H453 C439 0.961 . S
H454 C439 0.961 . S
H455 C439 0.961 . S
H456 C440 0.931 . S
H457 C445 0.930 . S
H458 C446 0.956 . S
H459 C446 0.961 . S
H460 C446 0.961 . S
H461 C447 0.958 . S
H462 C447 0.961 . S
H463 C447 0.960 . S
C464 C465 1.391 . S
C464 C466 1.394 . S
C464 H480 0.931 . S
C465 C464 1.391 . S
C465 C469 1.376 . S
C466 C464 1.394 . S
C466 C467 1.369 . S
C466 C470 1.531 . S
C467 C466 1.369 . S
C467 C468 1.410 . S
C467 C475 1.503 1_655 S
C468 C467 1.410 . S
C468 C469 1.392 . S
C468 C471 1.511 . S
C469 C465 1.376 . S
C469 C468 1.392 . S
C469 H481 0.929 . S
C470 C466 1.531 . S
C470 H482 0.960 1_655 S
C470 H483 0.962 . S
C470 H484 0.960 . S
C471 C468 1.511 . S
C471 H485 0.961 . S
C471 H486 0.961 1_655 S
C471 H487 0.959 1_655 S
C472 C473 1.370 . S
C472 C474 1.363 . S
C472 H488 0.931 . S
C473 C472 1.370 . S
C473 C477 1.408 . S
C474 C472 1.363 . S
C474 C475 1.370 . S
C474 C478 1.524 1_455 S
C475 C467 1.503 1_455 S
C475 C474 1.370 . S
C475 C476 1.403 . S
C476 C475 1.403 . S
C476 C477 1.404 . S
C476 C479 1.539 . S
C477 C473 1.408 . S
C477 C476 1.404 . S
C477 H489 0.930 . S
C478 C474 1.524 1_655 S
C478 H490 0.956 . S
C478 H491 0.961 . S
C478 H492 0.961 1_655 S
C479 C476 1.539 . S
C479 H493 0.958 . S
C479 H494 0.961 . S
C479 H495 0.960 . S
H480 C464 0.931 . S
H481 C469 0.929 . S
H482 C470 0.960 1_455 S
H483 C470 0.962 . S
H484 C470 0.960 . S
H485 C471 0.961 . S
H486 C471 0.961 1_455 S
H487 C471 0.959 1_455 S
H488 C472 0.931 . S
H489 C477 0.930 . S
H490 C478 0.956 . S
H491 C478 0.961 . S
H492 C478 0.961 1_455 S
H493 C479 0.958 . S
H494 C479 0.961 . S
H495 C479 0.960 . S
C496 C497 1.391 . S
C496 C498 1.394 . S
C496 H512 0.931 . S
C497 C496 1.391 . S
C497 C501 1.376 . S
C498 C496 1.394 . S
C498 C499 1.369 . S
C498 C502 1.531 . S
C499 C498 1.369 . S
C499 C500 1.410 1_556 S
C499 C507 1.503 1_566 S
C500 C499 1.410 1_554 S
C500 C501 1.392 1_554 S
C500 C503 1.511 . S
C501 C497 1.376 . S
C501 C500 1.392 1_556 S
C501 H513 0.929 1_556 S
C502 C498 1.531 . S
C502 H514 0.960 1_565 S
C502 H515 0.962 . S
C502 H516 0.960 . S
C503 C500 1.511 . S
C503 H517 0.961 . S
C503 H518 0.961 . S
C503 H519 0.961 . S
C504 C505 1.370 . S
C504 C506 1.363 . S
C504 H520 0.931 . S
C505 C504 1.370 . S
C505 C509 1.408 1_554 S
C506 C504 1.363 . S
C506 C507 1.370 . S
C506 C510 1.505 1_545 S
C507 C499 1.503 1_544 S
C507 C506 1.370 . S
C507 C508 1.403 1_554 S
C508 C507 1.403 1_556 S
C508 C509 1.404 . S
C508 C511 1.539 . S
C509 C505 1.408 1_556 S
C509 C508 1.404 . S
C509 H521 0.930 . S
C510 C506 1.505 1_565 S
C510 H522 0.971 . S
C510 H523 0.968 . S
C510 H524 0.958 1_565 S
C511 C508 1.539 . S
C511 H525 0.958 . S
C511 H526 0.961 . S
C511 H527 0.960 . S
H512 C496 0.931 . S
H513 C501 0.929 1_554 S
H514 C502 0.960 1_545 S
H515 C502 0.962 . S
H516 C502 0.960 . S
H517 C503 0.961 . S
H518 C503 0.961 . S
H519 C503 0.961 . S
H520 C504 0.931 . S
H521 C509 0.930 . S
H522 C510 0.971 . S
H523 C510 0.968 . S
H524 C510 0.958 1_545 S
H525 C511 0.958 . S
H526 C511 0.961 . S
H527 C511 0.960 . S
C528 C529 1.391 . S
C528 C530 1.394 . S
C528 H544 0.931 . S
C529 C528 1.391 . S
C529 C533 1.376 . S
C530 C528 1.394 . S
C530 C531 1.369 . S
C530 C534 1.531 . S
C531 C530 1.369 . S
C531 C532 1.410 . S
C531 C539 1.503 . S
C532 C531 1.410 . S
C532 C533 1.392 . S
C532 C535 1.511 . S
C533 C529 1.376 . S
C533 C532 1.392 . S
C533 H545 0.929 . S
C534 C530 1.531 . S
C534 H546 0.960 . S
C534 H547 0.962 . S
C534 H548 0.960 . S
C535 C532 1.511 . S
C535 H549 0.961 . S
C535 H550 0.961 . S
C535 H551 0.961 . S
C536 C537 1.370 . S
C536 C538 1.363 . S
C536 H552 0.931 . S
C537 C536 1.370 . S
C537 C541 1.408 . S
C538 C536 1.363 . S
C538 C539 1.370 . S
C538 C542 1.524 . S
C539 C531 1.503 . S
C539 C538 1.370 . S
C539 C540 1.403 . S
C540 C539 1.403 . S
C540 C541 1.404 . S
C540 C543 1.539 . S
C541 C537 1.408 . S
C541 C540 1.404 . S
C541 H553 0.930 . S
C542 C538 1.524 . S
C542 H554 0.956 . S
C542 H555 0.961 . S
C542 H556 0.961 . S
C543 C540 1.539 . S
C543 H557 0.958 . S
C543 H558 0.961 . S
C543 H559 0.960 . S
H544 C528 0.931 . S
H545 C533 0.929 . S
H546 C534 0.960 . S
H547 C534 0.962 . S
H548 C534 0.960 . S
H549 C535 0.961 . S
H550 C535 0.961 . S
H551 C535 0.961 . S
H552 C536 0.931 . S
H553 C541 0.930 . S
H554 C542 0.956 . S
H555 C542 0.961 . S
H556 C542 0.961 . S
H557 C543 0.958 . S
H558 C543 0.961 . S
H559 C543 0.960 . S
C560 C561 1.391 . S
C560 C562 1.394 . S
C560 H576 0.931 . S
C561 C560 1.391 . S
C561 C565 1.376 . S
C562 C560 1.394 . S
C562 C563 1.369 . S
C562 C566 1.531 . S
C563 C562 1.369 . S
C563 C564 1.410 . S
C563 C571 1.503 1_655 S
C564 C563 1.410 . S
C564 C565 1.392 . S
C564 C567 1.511 . S
C565 C561 1.376 . S
C565 C564 1.392 . S
C565 H577 0.929 . S
C566 C562 1.531 . S
C566 H578 0.960 1_655 S
C566 H579 0.962 . S
C566 H580 0.960 . S
C567 C564 1.511 . S
C567 H581 0.961 . S
C567 H582 0.961 . S
C567 H583 0.961 . S
C568 C569 1.370 . S
C568 C570 1.363 . S
C568 H584 0.931 . S
C569 C568 1.370 . S
C569 C573 1.408 . S
C570 C568 1.363 . S
C570 C571 1.370 . S
C570 C574 1.489 1_455 S
C571 C563 1.503 1_455 S
C571 C570 1.370 . S
C571 C572 1.403 . S
C572 C571 1.403 . S
C572 C573 1.404 . S
C572 C575 1.539 . S
C573 C569 1.408 . S
C573 C572 1.404 . S
C573 H585 0.930 . S
C574 C570 1.489 1_655 S
C574 H586 0.985 . S
C574 H587 0.974 . S
C574 H588 0.956 1_655 S
C575 C572 1.539 . S
C575 H589 0.958 . S
C575 H590 0.961 . S
C575 H591 0.960 . S
H576 C560 0.931 . S
H577 C565 0.929 . S
H578 C566 0.960 1_455 S
H579 C566 0.962 . S
H580 C566 0.960 . S
H581 C567 0.961 . S
H582 C567 0.961 . S
H583 C567 0.961 . S
H584 C568 0.931 . S
H585 C573 0.930 . S
H586 C574 0.985 . S
H587 C574 0.974 . S
H588 C574 0.956 1_455 S
H589 C575 0.958 . S
H590 C575 0.961 . S
H591 C575 0.960 . S
C592 C593 1.390 . S
C592 C594 1.394 1_554 S
C592 H608 0.931 1_554 S
C593 C592 1.390 . S
C593 C597 1.376 . S
C594 C592 1.394 1_556 S
C594 C595 1.369 . S
C594 C598 1.531 . S
C595 C594 1.369 . S
C595 C596 1.410 1_556 S
C595 C603 1.503 1_565 S
C596 C595 1.410 1_554 S
C596 C597 1.392 . S
C596 C599 1.511 . S
C597 C593 1.376 . S
C597 C596 1.392 . S
C597 H609 0.929 . S
C598 C594 1.531 . S
C598 H610 0.960 . S
C598 H611 0.962 . S
C598 H612 0.960 . S
C599 C596 1.511 . S
C599 H613 0.961 . S
C599 H614 0.961 1_565 S
C599 H615 0.961 . S
C600 C601 1.371 1_554 S
C600 C602 1.363 . S
C600 H616 0.930 . S
C601 C600 1.371 1_556 S
C601 C605 1.408 . S
C602 C600 1.363 . S
C602 C603 1.370 1_554 S
C602 C606 1.524 . S
C603 C595 1.503 1_545 S
C603 C602 1.370 1_556 S
C603 C604 1.403 . S
C604 C603 1.403 . S
C604 C605 1.404 . S
C604 C607 1.539 . S
C605 C601 1.408 . S
C605 C604 1.404 . S
C605 H617 0.930 . S
C606 C602 1.524 . S
C606 H618 0.956 . S
C606 H619 0.961 . S
C606 H620 0.961 . S
C607 C604 1.539 . S
C607 H621 0.958 1_545 S
C607 H622 0.961 . S
C607 H623 0.960 1_545 S
H608 C592 0.931 1_556 S
H609 C597 0.929 . S
H610 C598 0.960 . S
H611 C598 0.962 . S
H612 C598 0.960 . S
H613 C599 0.961 . S
H614 C599 0.961 1_545 S
H615 C599 0.961 . S
H616 C600 0.930 . S
H617 C605 0.930 . S
H618 C606 0.956 . S
H619 C606 0.961 . S
H620 C606 0.961 . S
H621 C607 0.958 1_565 S
H622 C607 0.961 . S
H623 C607 0.960 1_565 S
C624 C625 1.391 . S
C624 C626 1.394 . S
C624 H640 0.931 . S
C625 C624 1.391 . S
C625 C629 1.376 . S
C626 C624 1.394 . S
C626 C627 1.369 . S
C626 C630 1.531 . S
C627 C626 1.369 . S
C627 C628 1.410 . S
C627 C635 1.503 1_556 S
C628 C627 1.410 . S
C628 C629 1.392 . S
C628 C631 1.511 1_556 S
C629 C625 1.376 . S
C629 C628 1.392 . S
C629 H641 0.929 . S
C630 C626 1.531 . S
C630 H642 0.960 . S
C630 H643 0.962 . S
C630 H644 0.960 . S
C631 C628 1.511 1_554 S
C631 H645 0.961 . S
C631 H646 0.961 . S
C631 H647 0.961 . S
C632 C633 1.370 . S
C632 C634 1.363 . S
C632 H648 0.931 . S
C633 C632 1.370 . S
C633 C637 1.408 . S
C634 C632 1.363 . S
C634 C635 1.370 . S
C634 C638 1.524 . S
C635 C627 1.503 1_554 S
C635 C634 1.370 . S
C635 C636 1.403 . S
C636 C635 1.403 . S
C636 C637 1.404 . S
C636 C639 1.539 1_554 S
C637 C633 1.408 . S
C637 C636 1.404 . S
C637 H649 0.930 . S
C638 C634 1.524 . S
C638 H650 0.956 . S
C638 H651 0.961 . S
C638 H652 0.961 . S
C639 C636 1.539 1_556 S
C639 H653 0.958 . S
C639 H654 0.961 1_556 S
C639 H655 0.960 . S
H640 C624 0.931 . S
H641 C629 0.929 . S
H642 C630 0.960 . S
H643 C630 0.962 . S
H644 C630 0.960 . S
H645 C631 0.961 . S
H646 C631 0.961 . S
H647 C631 0.961 . S
H648 C632 0.931 . S
H649 C637 0.930 . S
H650 C638 0.956 . S
H651 C638 0.961 . S
H652 C638 0.961 . S
H653 C639 0.958 . S
H654 C639 0.961 1_554 S
H655 C639 0.960 . S
C656 C657 1.391 . S
C656 C658 1.394 . S
C656 H672 0.931 . S
C657 C656 1.391 . S
C657 C661 1.376 . S
C658 C656 1.394 . S
C658 C659 1.369 . S
C658 C662 1.531 . S
C659 C658 1.369 . S
C659 C660 1.410 . S
C659 C667 1.503 . S
C660 C659 1.410 . S
C660 C661 1.392 . S
C660 C663 1.511 . S
C661 C657 1.376 . S
C661 C660 1.392 . S
C661 H673 0.929 . S
C662 C658 1.531 . S
C662 H674 0.960 . S
C662 H675 0.962 . S
C662 H676 0.960 . S
C663 C660 1.511 . S
C663 H677 0.961 . S
C663 H678 0.961 . S
C663 H679 0.961 . S
C664 C665 1.370 . S
C664 C666 1.363 . S
C664 H680 0.931 . S
C665 C664 1.370 . S
C665 C669 1.408 . S
C666 C664 1.363 . S
C666 C667 1.370 . S
C666 C670 1.524 . S
C667 C659 1.503 . S
C667 C666 1.370 . S
C667 C668 1.403 . S
C668 C667 1.403 . S
C668 C669 1.404 . S
C668 C671 1.539 . S
C669 C665 1.408 . S
C669 C668 1.404 . S
C669 H681 0.930 . S
C670 C666 1.524 . S
C670 H682 0.956 . S
C670 H683 0.961 . S
C670 H684 0.961 . S
C671 C668 1.539 . S
C671 H685 0.958 . S
C671 H686 0.961 . S
C671 H687 0.960 . S
H672 C656 0.931 . S
H673 C661 0.929 . S
H674 C662 0.960 . S
H675 C662 0.962 . S
H676 C662 0.960 . S
H677 C663 0.961 . S
H678 C663 0.961 . S
H679 C663 0.961 . S
H680 C664 0.931 . S
H681 C669 0.930 . S
H682 C670 0.956 . S
H683 C670 0.961 . S
H684 C670 0.961 . S
H685 C671 0.958 . S
H686 C671 0.961 . S
H687 C671 0.960 . S
C688 C689 1.391 . S
C688 C690 1.394 . S
C688 H704 0.931 . S
C689 C688 1.391 . S
C689 C693 1.376 . S
C690 C688 1.394 . S
C690 C691 1.369 . S
C690 C694 1.531 . S
C691 C690 1.369 . S
C691 C692 1.410 . S
C691 C699 1.503 . S
C692 C691 1.410 . S
C692 C693 1.392 . S
C692 C695 1.511 . S
C693 C689 1.376 . S
C693 C692 1.392 . S
C693 H705 0.929 . S
C694 C690 1.531 . S
C694 H706 0.960 . S
C694 H707 0.962 . S
C694 H708 0.960 . S
C695 C692 1.511 . S
C695 H709 0.961 . S
C695 H710 0.961 . S
C695 H711 0.961 . S
C696 C697 1.370 . S
C696 C698 1.363 . S
C696 H712 0.931 . S
C697 C696 1.370 . S
C697 C701 1.408 . S
C698 C696 1.363 . S
C698 C699 1.370 . S
C698 C702 1.524 . S
C699 C691 1.503 . S
C699 C698 1.370 . S
C699 C700 1.403 . S
C700 C699 1.403 . S
C700 C701 1.404 . S
C700 C703 1.539 . S
C701 C697 1.408 . S
C701 C700 1.404 . S
C701 H713 0.930 . S
C702 C698 1.524 . S
C702 H714 0.956 . S
C702 H715 0.961 . S
C702 H716 0.961 . S
C703 C700 1.539 . S
C703 H717 0.958 . S
C703 H718 0.961 . S
C703 H719 0.960 . S
H704 C688 0.931 . S
H705 C693 0.929 . S
H706 C694 0.960 . S
H707 C694 0.962 . S
H708 C694 0.960 . S
H709 C695 0.961 . S
H710 C695 0.961 . S
H711 C695 0.961 . S
H712 C696 0.931 . S
H713 C701 0.930 . S
H714 C702 0.956 . S
H715 C702 0.961 . S
H716 C702 0.961 . S
H717 C703 0.958 . S
H718 C703 0.961 . S
H719 C703 0.960 . S
C720 C721 1.391 . S
C720 C722 1.394 . S
C720 H736 0.931 . S
C721 C720 1.391 . S
C721 C725 1.376 . S
C722 C720 1.394 . S
C722 C723 1.369 . S
C722 C726 1.531 1_554 S
C723 C722 1.369 . S
C723 C724 1.410 . S
C723 C731 1.503 1_554 S
C724 C723 1.410 . S
C724 C725 1.392 . S
C724 C727 1.511 . S
C725 C721 1.376 . S
C725 C724 1.392 . S
C725 H737 0.929 . S
C726 C722 1.531 1_556 S
C726 H738 0.960 . S
C726 H739 0.962 . S
C726 H740 0.960 . S
C727 C724 1.511 . S
C727 H741 0.961 . S
C727 H742 0.961 . S
C727 H743 0.961 . S
C728 C729 1.370 . S
C728 C730 1.363 . S
C728 H744 0.931 . S
C729 C728 1.370 . S
C729 C733 1.408 . S
C730 C728 1.363 . S
C730 C731 1.370 . S
C730 C734 1.524 1_556 S
C731 C723 1.503 1_556 S
C731 C730 1.370 . S
C731 C732 1.403 . S
C732 C731 1.403 . S
C732 C733 1.404 . S
C732 C735 1.539 . S
C733 C729 1.408 . S
C733 C732 1.404 . S
C733 H745 0.930 . S
C734 C730 1.524 1_554 S
C734 H746 0.956 . S
C734 H747 0.961 . S
C734 H748 0.961 . S
C735 C732 1.539 . S
C735 H749 0.958 . S
C735 H750 0.961 . S
C735 H751 0.960 . S
H736 C720 0.931 . S
H737 C725 0.929 . S
H738 C726 0.960 . S
H739 C726 0.962 . S
H740 C726 0.960 . S
H741 C727 0.961 . S
H742 C727 0.961 . S
H743 C727 0.961 . S
H744 C728 0.931 . S
H745 C733 0.930 . S
H746 C734 0.956 . S
H747 C734 0.961 . S
H748 C734 0.961 . S
H749 C735 0.958 . S
H750 C735 0.961 . S
H751 C735 0.960 . S
C752 C753 1.391 . S
C752 C754 1.394 . S
C752 H768 0.931 . S
C753 C752 1.391 . S
C753 C757 1.376 . S
C754 C752 1.394 . S
C754 C755 1.369 . S
C754 C758 1.531 . S
C755 C754 1.369 . S
C755 C756 1.410 . S
C755 C763 1.503 . S
C756 C755 1.410 . S
C756 C757 1.392 . S
C756 C759 1.511 . S
C757 C753 1.376 . S
C757 C756 1.392 . S
C757 H769 0.929 . S
C758 C754 1.531 . S
C758 H770 0.960 . S
C758 H771 0.962 . S
C758 H772 0.960 . S
C759 C756 1.511 . S
C759 H773 0.961 . S
C759 H774 0.961 . S
C759 H775 0.961 . S
C760 C761 1.370 . S
C760 C762 1.363 . S
C760 H776 0.931 . S
C761 C760 1.370 . S
C761 C765 1.408 . S
C762 C760 1.363 . S
C762 C763 1.370 . S
C762 C766 1.524 . S
C763 C755 1.503 . S
C763 C762 1.370 . S
C763 C764 1.403 . S
C764 C763 1.403 . S
C764 C765 1.404 . S
C764 C767 1.539 . S
C765 C761 1.408 . S
C765 C764 1.404 . S
C765 H777 0.930 . S
C766 C762 1.524 . S
C766 H778 0.956 . S
C766 H779 0.961 . S
C766 H780 0.961 . S
C767 C764 1.539 . S
C767 H781 0.958 . S
C767 H782 0.961 . S
C767 H783 0.960 . S
H768 C752 0.931 . S
H769 C757 0.929 . S
H770 C758 0.960 . S
H771 C758 0.962 . S
H772 C758 0.960 . S
H773 C759 0.961 . S
H774 C759 0.961 . S
H775 C759 0.961 . S
H776 C760 0.931 . S
H777 C765 0.930 . S
H778 C766 0.956 . S
H779 C766 0.961 . S
H780 C766 0.961 . S
H781 C767 0.958 . S
H782 C767 0.961 . S
H783 C767 0.960 . S
C784 C785 1.391 . S
C784 C786 1.394 . S
C784 H800 0.931 . S
C785 C784 1.391 . S
C785 C789 1.376 . S
C786 C784 1.394 . S
C786 C787 1.369 . S
C786 C790 1.531 . S
C787 C786 1.369 . S
C787 C788 1.410 . S
C787 C795 1.503 . S
C788 C787 1.410 . S
C788 C789 1.392 . S
C788 C791 1.511 . S
C789 C785 1.376 . S
C789 C788 1.392 . S
C789 H801 0.929 . S
C790 C786 1.531 . S
C790 H802 0.960 . S
C790 H803 0.962 . S
C790 H804 0.960 . S
C791 C788 1.511 . S
C791 H805 0.961 . S
C791 H806 0.961 . S
C791 H807 0.961 . S
C792 C793 1.370 . S
C792 C794 1.363 . S
C792 H808 0.931 . S
C793 C792 1.370 . S
C793 C797 1.408 . S
C794 C792 1.363 . S
C794 C795 1.370 . S
C794 C798 1.524 . S
C795 C787 1.503 . S
C795 C794 1.370 . S
C795 C796 1.403 . S
C796 C795 1.403 . S
C796 C797 1.404 . S
C796 C799 1.539 . S
C797 C793 1.408 . S
C797 C796 1.404 . S
C797 H809 0.930 . S
C798 C794 1.524 . S
C798 H810 0.956 . S
C798 H811 0.961 . S
C798 H812 0.961 . S
C799 C796 1.539 . S
C799 H813 0.958 . S
C799 H814 0.961 . S
C799 H815 0.960 . S
H800 C784 0.931 . S
H801 C789 0.929 . S
H802 C790 0.960 . S
H803 C790 0.962 . S
H804 C790 0.960 . S
H805 C791 0.961 . S
H806 C791 0.961 . S
H807 C791 0.961 . S
H808 C792 0.931 . S
H809 C797 0.930 . S
H810 C798 0.956 . S
H811 C798 0.961 . S
H812 C798 0.961 . S
H813 C799 0.958 . S
H814 C799 0.961 . S
H815 C799 0.960 . S
C816 C817 1.391 . S
C816 C818 1.394 . S
C816 H832 0.931 . S
C817 C816 1.391 . S
C817 C821 1.376 . S
C818 C816 1.394 . S
C818 C819 1.369 . S
C818 C822 1.531 . S
C819 C818 1.369 . S
C819 C820 1.410 . S
C819 C827 1.503 . S
C820 C819 1.410 . S
C820 C821 1.392 . S
C820 C823 1.511 . S
C821 C817 1.376 . S
C821 C820 1.392 . S
C821 H833 0.929 . S
C822 C818 1.531 . S
C822 H834 0.960 . S
C822 H835 0.962 . S
C822 H836 0.960 . S
C823 C820 1.511 . S
C823 H837 0.961 . S
C823 H838 0.961 . S
C823 H839 0.961 . S
C824 C825 1.370 . S
C824 C826 1.363 . S
C824 H840 0.931 . S
C825 C824 1.370 . S
C825 C829 1.408 . S
C826 C824 1.363 . S
C826 C827 1.370 . S
C826 C830 1.524 . S
C827 C819 1.503 . S
C827 C826 1.370 . S
C827 C828 1.403 . S
C828 C827 1.403 . S
C828 C829 1.404 . S
C828 C831 1.539 . S
C829 C825 1.408 . S
C829 C828 1.404 . S
C829 H841 0.930 . S
C830 C826 1.524 . S
C830 H842 0.956 . S
C830 H843 0.961 . S
C830 H844 0.961 . S
C831 C828 1.539 . S
C831 H845 0.958 . S
C831 H846 0.961 . S
C831 H847 0.960 . S
H832 C816 0.931 . S
H833 C821 0.929 . S
H834 C822 0.960 . S
H835 C822 0.962 . S
H836 C822 0.960 . S
H837 C823 0.961 . S
H838 C823 0.961 . S
H839 C823 0.961 . S
H840 C824 0.931 . S
H841 C829 0.930 . S
H842 C830 0.956 . S
H843 C830 0.961 . S
H844 C830 0.961 . S
H845 C831 0.958 . S
H846 C831 0.961 . S
H847 C831 0.960 . S
C848 C849 1.391 . S
C848 C850 1.394 . S
C848 H864 0.931 . S
C849 C848 1.391 . S
C849 C853 1.376 . S
C850 C848 1.394 . S
C850 C851 1.369 . S
C850 C854 1.531 . S
C851 C850 1.369 . S
C851 C852 1.410 . S
C851 C859 1.503 . S
C852 C851 1.410 . S
C852 C853 1.392 . S
C852 C855 1.511 . S
C853 C849 1.376 . S
C853 C852 1.392 . S
C853 H865 0.929 . S
C854 C850 1.531 . S
C854 H866 0.960 . S
C854 H867 0.962 . S
C854 H868 0.960 . S
C855 C852 1.511 . S
C855 H869 0.961 . S
C855 H870 0.961 . S
C855 H871 0.961 . S
C856 C857 1.370 . S
C856 C858 1.363 . S
C856 H872 0.931 . S
C857 C856 1.370 . S
C857 C861 1.408 . S
C858 C856 1.363 . S
C858 C859 1.370 . S
C858 C862 1.524 . S
C859 C851 1.503 . S
C859 C858 1.370 . S
C859 C860 1.403 . S
C860 C859 1.403 . S
C860 C861 1.404 . S
C860 C863 1.539 . S
C861 C857 1.408 . S
C861 C860 1.404 . S
C861 H873 0.930 . S
C862 C858 1.524 . S
C862 H874 0.956 . S
C862 H875 0.961 . S
C862 H876 0.961 . S
C863 C860 1.539 . S
C863 H877 0.958 . S
C863 H878 0.961 . S
C863 H879 0.960 . S
H864 C848 0.931 . S
H865 C853 0.929 . S
H866 C854 0.960 . S
H867 C854 0.962 . S
H868 C854 0.960 . S
H869 C855 0.961 . S
H870 C855 0.961 . S
H871 C855 0.961 . S
H872 C856 0.931 . S
H873 C861 0.930 . S
H874 C862 0.956 . S
H875 C862 0.961 . S
H876 C862 0.961 . S
H877 C863 0.958 . S
H878 C863 0.961 . S
H879 C863 0.960 . S
C880 C881 1.391 . S
C880 C882 1.394 . S
C880 H896 0.931 . S
C881 C880 1.391 . S
C881 C885 1.376 . S
C882 C880 1.394 . S
C882 C883 1.369 . S
C882 C886 1.531 . S
C883 C882 1.369 . S
C883 C884 1.410 . S
C883 C891 1.503 . S
C884 C883 1.410 . S
C884 C885 1.392 . S
C884 C887 1.511 . S
C885 C881 1.376 . S
C885 C884 1.392 . S
C885 H897 0.929 . S
C886 C882 1.531 . S
C886 H898 0.960 . S
C886 H899 0.962 . S
C886 H900 0.960 . S
C887 C884 1.511 . S
C887 H901 0.961 . S
C887 H902 0.961 . S
C887 H903 0.961 . S
C888 C889 1.370 . S
C888 C890 1.363 . S
C888 H904 0.931 . S
C889 C888 1.370 . S
C889 C893 1.408 . S
C890 C888 1.363 . S
C890 C891 1.370 . S
C890 C894 1.524 . S
C891 C883 1.503 . S
C891 C890 1.370 . S
C891 C892 1.403 . S
C892 C891 1.403 . S
C892 C893 1.404 . S
C892 C895 1.539 . S
C893 C889 1.408 . S
C893 C892 1.404 . S
C893 H905 0.930 . S
C894 C890 1.524 . S
C894 H906 0.956 . S
C894 H907 0.961 . S
C894 H908 0.961 . S
C895 C892 1.539 . S
C895 H909 0.958 . S
C895 H910 0.961 . S
C895 H911 0.960 . S
H896 C880 0.931 . S
H897 C885 0.929 . S
H898 C886 0.960 . S
H899 C886 0.962 . S
H900 C886 0.960 . S
H901 C887 0.961 . S
H902 C887 0.961 . S
H903 C887 0.961 . S
H904 C888 0.931 . S
H905 C893 0.930 . S
H906 C894 0.956 . S
H907 C894 0.961 . S
H908 C894 0.961 . S
H909 C895 0.958 . S
H910 C895 0.961 . S
H911 C895 0.960 . S
C912 C913 1.391 . S
C912 C914 1.394 . S
C912 H928 0.931 . S
C913 C912 1.391 . S
C913 C917 1.376 . S
C914 C912 1.394 . S
C914 C915 1.369 . S
C914 C918 1.531 . S
C915 C914 1.369 . S
C915 C916 1.410 . S
C915 C923 1.503 . S
C916 C915 1.410 . S
C916 C917 1.392 . S
C916 C919 1.511 . S
C917 C913 1.376 . S
C917 C916 1.392 . S
C917 H929 0.929 . S
C918 C914 1.531 . S
C918 H930 0.960 . S
C918 H931 0.962 . S
C918 H932 0.960 . S
C919 C916 1.511 . S
C919 H933 0.961 . S
C919 H934 0.961 . S
C919 H935 0.961 . S
C920 C921 1.370 . S
C920 C922 1.363 . S
C920 H936 0.931 . S
C921 C920 1.370 . S
C921 C925 1.408 . S
C922 C920 1.363 . S
C922 C923 1.370 . S
C922 C926 1.524 . S
C923 C915 1.503 . S
C923 C922 1.370 . S
C923 C924 1.403 . S
C924 C923 1.403 . S
C924 C925 1.404 . S
C924 C927 1.539 . S
C925 C921 1.408 . S
C925 C924 1.404 . S
C925 H937 0.930 . S
C926 C922 1.524 . S
C926 H938 0.956 . S
C926 H939 0.961 . S
C926 H940 0.961 . S
C927 C924 1.539 . S
C927 H941 0.958 . S
C927 H942 0.961 . S
C927 H943 0.960 . S
H928 C912 0.931 . S
H929 C917 0.929 . S
H930 C918 0.960 . S
H931 C918 0.962 . S
H932 C918 0.960 . S
H933 C919 0.961 . S
H934 C919 0.961 . S
H935 C919 0.961 . S
H936 C920 0.931 . S
H937 C925 0.930 . S
H938 C926 0.956 . S
H939 C926 0.961 . S
H940 C926 0.961 . S
H941 C927 0.958 . S
H942 C927 0.961 . S
H943 C927 0.960 . S
C944 C945 1.391 . S
C944 C946 1.394 . S
C944 H960 0.931 . S
C945 C944 1.391 . S
C945 C949 1.376 . S
C946 C944 1.394 . S
C946 C947 1.369 . S
C946 C950 1.531 . S
C947 C946 1.369 . S
C947 C948 1.410 . S
C947 C955 1.503 . S
C948 C947 1.410 . S
C948 C949 1.392 . S
C948 C951 1.511 . S
C949 C945 1.376 . S
C949 C948 1.392 . S
C949 H961 0.929 . S
C950 C946 1.531 . S
C950 H962 0.960 . S
C950 H963 0.962 . S
C950 H964 0.960 . S
C951 C948 1.511 . S
C951 H965 0.961 . S
C951 H966 0.961 . S
C951 H967 0.961 . S
C952 C953 1.370 . S
C952 C954 1.363 . S
C952 H968 0.931 . S
C953 C952 1.370 . S
C953 C957 1.408 . S
C954 C952 1.363 . S
C954 C955 1.370 . S
C954 C958 1.524 . S
C955 C947 1.503 . S
C955 C954 1.370 . S
C955 C956 1.403 . S
C956 C955 1.403 . S
C956 C957 1.404 . S
C956 C959 1.539 . S
C957 C953 1.408 . S
C957 C956 1.404 . S
C957 H969 0.930 . S
C958 C954 1.524 . S
C958 H970 0.956 . S
C958 H971 0.961 . S
C958 H972 0.961 . S
C959 C956 1.539 . S
C959 H973 0.958 . S
C959 H974 0.961 . S
C959 H975 0.960 . S
H960 C944 0.931 . S
H961 C949 0.929 . S
H962 C950 0.960 . S
H963 C950 0.962 . S
H964 C950 0.960 . S
H965 C951 0.961 . S
H966 C951 0.961 . S
H967 C951 0.961 . S
H968 C952 0.931 . S
H969 C957 0.930 . S
H970 C958 0.956 . S
H971 C958 0.961 . S
H972 C958 0.961 . S
H973 C959 0.958 . S
H974 C959 0.961 . S
H975 C959 0.960 . S
C976 C977 1.391 . S
C976 C978 1.394 . S
C976 H992 0.938 . S
C977 C976 1.391 . S
C977 C981 1.376 . S
C978 C976 1.394 . S
C978 C979 1.369 . S
C978 C982 1.531 . S
C979 C978 1.369 . S
C979 C980 1.410 . S
C979 C987 1.503 . S
C980 C979 1.410 . S
C980 C981 1.392 . S
C980 C983 1.511 . S
C981 C977 1.376 . S
C981 C980 1.392 . S
C981 H993 0.929 . S
C982 C978 1.531 . S
C982 H994 0.960 . S
C982 H995 0.962 . S
C982 H996 0.960 . S
C983 C980 1.511 . S
C983 H997 0.961 . S
C983 H998 0.961 . S
C983 H999 0.961 . S
C984 C985 1.370 . S
C984 C986 1.363 . S
C984 H1000 0.931 . S
C985 C984 1.370 . S
C985 C989 1.408 . S
C986 C984 1.363 . S
C986 C987 1.370 . S
C986 C990 1.524 . S
C987 C979 1.503 . S
C987 C986 1.370 . S
C987 C988 1.403 . S
C988 C987 1.403 . S
C988 C989 1.404 . S
C988 C991 1.539 . S
C989 C985 1.408 . S
C989 C988 1.404 . S
C989 H1001 0.930 . S
C990 C986 1.524 . S
C990 H1002 0.956 . S
C990 H1003 0.961 . S
C990 H1004 0.961 . S
C991 C988 1.539 . S
C991 H1005 0.958 . S
C991 H1006 0.961 . S
C991 H1007 0.960 . S
H992 C976 0.938 . S
H993 C981 0.929 . S
H994 C982 0.960 . S
H995 C982 0.962 . S
H996 C982 0.960 . S
H997 C983 0.961 . S
H998 C983 0.961 . S
H999 C983 0.961 . S
H1000 C984 0.931 . S
H1001 C989 0.930 . S
H1002 C990 0.956 . S
H1003 C990 0.961 . S
H1004 C990 0.961 . S
H1005 C991 0.958 . S
H1006 C991 0.961 . S
H1007 C991 0.960 . S
C1008 C1009 1.391 . S
C1008 C1010 1.394 . S
C1008 H1024 0.931 . S
C1009 C1008 1.391 . S
C1009 C1013 1.376 . S
C1010 C1008 1.394 . S
C1010 C1011 1.369 . S
C1010 C1014 1.531 . S
C1011 C1010 1.369 . S
C1011 C1012 1.410 . S
C1011 C1019 1.503 . S
C1012 C1011 1.410 . S
C1012 C1013 1.392 . S
C1012 C1015 1.511 . S
C1013 C1009 1.376 . S
C1013 C1012 1.392 . S
C1013 H1025 0.929 . S
C1014 C1010 1.531 . S
C1014 H1026 0.960 . S
C1014 H1027 0.962 . S
C1014 H1028 0.960 . S
C1015 C1012 1.511 . S
C1015 H1029 0.961 . S
C1015 H1030 0.961 . S
C1015 H1031 0.961 . S
C1016 C1017 1.370 . S
C1016 C1018 1.363 . S
C1016 H1032 0.931 . S
C1017 C1016 1.370 . S
C1017 C1021 1.408 . S
C1018 C1016 1.363 . S
C1018 C1019 1.370 . S
C1018 C1022 1.524 . S
C1019 C1011 1.503 . S
C1019 C1018 1.370 . S
C1019 C1020 1.403 . S
C1020 C1019 1.403 . S
C1020 C1021 1.404 . S
C1020 C1023 1.539 . S
C1021 C1017 1.408 . S
C1021 C1020 1.404 . S
C1021 H1033 0.930 . S
C1022 C1018 1.524 . S
C1022 H1034 0.956 . S
C1022 H1035 0.961 . S
C1022 H1036 0.961 . S
C1023 C1020 1.539 . S
C1023 H1037 0.958 . S
C1023 H1038 0.961 . S
C1023 H1039 0.960 . S
H1024 C1008 0.931 . S
H1025 C1013 0.929 . S
H1026 C1014 0.960 . S
H1027 C1014 0.962 . S
H1028 C1014 0.960 . S
H1029 C1015 0.961 . S
H1030 C1015 0.961 . S
H1031 C1015 0.961 . S
H1032 C1016 0.931 . S
H1033 C1021 0.930 . S
H1034 C1022 0.956 . S
H1035 C1022 0.961 . S
H1036 C1022 0.961 . S
H1037 C1023 0.958 . S
H1038 C1023 0.961 . S
H1039 C1023 0.960 . S
C1040 C1041 1.391 . S
C1040 C1042 1.394 . S
C1040 H1056 0.931 . S
C1041 C1040 1.391 . S
C1041 C1045 1.376 . S
C1042 C1040 1.394 . S
C1042 C1043 1.369 . S
C1042 C1046 1.531 . S
C1043 C1042 1.369 . S
C1043 C1044 1.410 . S
C1043 C1051 1.503 . S
C1044 C1043 1.410 . S
C1044 C1045 1.392 . S
C1044 C1047 1.511 . S
C1045 C1041 1.376 . S
C1045 C1044 1.392 . S
C1045 H1057 0.929 . S
C1046 C1042 1.531 . S
C1046 H1058 0.960 . S
C1046 H1059 0.962 . S
C1046 H1060 0.960 . S
C1047 C1044 1.511 . S
C1047 H1061 0.961 . S
C1047 H1062 0.961 . S
C1047 H1063 0.961 . S
C1048 C1049 1.370 . S
C1048 C1050 1.363 . S
C1048 H1064 0.931 . S
C1049 C1048 1.370 . S
C1049 C1053 1.408 . S
C1050 C1048 1.363 . S
C1050 C1051 1.370 . S
C1050 C1054 1.524 . S
C1051 C1043 1.503 . S
C1051 C1050 1.370 . S
C1051 C1052 1.403 . S
C1052 C1051 1.403 . S
C1052 C1053 1.404 . S
C1052 C1055 1.539 . S
C1053 C1049 1.408 . S
C1053 C1052 1.404 . S
C1053 H1065 0.930 . S
C1054 C1050 1.524 . S
C1054 H1066 0.956 . S
C1054 H1067 0.961 . S
C1054 H1068 0.961 . S
C1055 C1052 1.539 . S
C1055 H1069 0.958 . S
C1055 H1070 0.961 . S
C1055 H1071 0.960 . S
H1056 C1040 0.931 . S
H1057 C1045 0.929 . S
H1058 C1046 0.960 . S
H1059 C1046 0.962 . S
H1060 C1046 0.960 . S
H1061 C1047 0.961 . S
H1062 C1047 0.961 . S
H1063 C1047 0.961 . S
H1064 C1048 0.931 . S
H1065 C1053 0.930 . S
H1066 C1054 0.956 . S
H1067 C1054 0.961 . S
H1068 C1054 0.961 . S
H1069 C1055 0.958 . S
H1070 C1055 0.961 . S
H1071 C1055 0.960 . S
C1072 C1073 1.391 . S
C1072 C1074 1.394 . S
C1072 H1088 0.931 . S
C1073 C1072 1.391 . S
C1073 C1077 1.376 1_556 S
C1074 C1072 1.394 . S
C1074 C1075 1.369 1_556 S
C1074 C1078 1.531 . S
C1075 C1074 1.369 1_554 S
C1075 C1076 1.410 . S
C1075 C1083 1.503 . S
C1076 C1075 1.410 . S
C1076 C1077 1.392 . S
C1076 C1079 1.511 . S
C1077 C1073 1.376 1_554 S
C1077 C1076 1.392 . S
C1077 H1089 0.929 . S
C1078 C1074 1.531 . S
C1078 H1090 0.960 . S
C1078 H1091 0.962 . S
C1078 H1092 0.960 . S
C1079 C1076 1.511 . S
C1079 H1093 0.961 . S
C1079 H1094 0.961 . S
C1079 H1095 0.961 . S
C1080 C1081 1.370 1_556 S
C1080 C1082 1.363 . S
C1080 H1096 0.931 . S
C1081 C1080 1.370 1_554 S
C1081 C1085 1.408 . S
C1082 C1080 1.363 . S
C1082 C1083 1.370 1_556 S
C1082 C1086 1.524 . S
C1083 C1075 1.503 . S
C1083 C1082 1.370 1_554 S
C1083 C1084 1.403 . S
C1084 C1083 1.403 . S
C1084 C1085 1.404 . S
C1084 C1087 1.539 . S
C1085 C1081 1.408 . S
C1085 C1084 1.404 . S
C1085 H1097 0.930 . S
C1086 C1082 1.524 . S
C1086 H1098 0.956 . S
C1086 H1099 0.961 . S
C1086 H1100 0.961 . S
C1087 C1084 1.539 . S
C1087 H1101 0.958 . S
C1087 H1102 0.961 . S
C1087 H1103 0.960 . S
H1088 C1072 0.931 . S
H1089 C1077 0.929 . S
H1090 C1078 0.960 . S
H1091 C1078 0.962 . S
H1092 C1078 0.960 . S
H1093 C1079 0.961 . S
H1094 C1079 0.961 . S
H1095 C1079 0.961 . S
H1096 C1080 0.931 . S
H1097 C1085 0.930 . S
H1098 C1086 0.956 . S
H1099 C1086 0.961 . S
H1100 C1086 0.961 . S
H1101 C1087 0.958 . S
H1102 C1087 0.961 . S
H1103 C1087 0.960 . S
C1104 C1105 1.391 . S
C1104 C1106 1.394 . S
C1104 H1120 0.931 . S
C1105 C1104 1.391 . S
C1105 C1109 1.376 . S
C1106 C1104 1.394 . S
C1106 C1107 1.369 . S
C1106 C1110 1.531 . S
C1107 C1106 1.369 . S
C1107 C1108 1.410 . S
C1107 C1115 1.503 . S
C1108 C1107 1.410 . S
C1108 C1109 1.392 . S
C1108 C1111 1.511 . S
C1109 C1105 1.376 . S
C1109 C1108 1.392 . S
C1109 H1121 0.929 . S
C1110 C1106 1.531 . S
C1110 H1122 0.960 . S
C1110 H1123 0.962 . S
C1110 H1124 0.960 . S
C1111 C1108 1.511 . S
C1111 H1125 0.961 . S
C1111 H1126 0.961 . S
C1111 H1127 0.961 . S
C1112 C1113 1.370 . S
C1112 C1114 1.363 . S
C1112 H1128 0.931 . S
C1113 C1112 1.370 . S
C1113 C1117 1.408 . S
C1114 C1112 1.363 . S
C1114 C1115 1.370 . S
C1114 C1118 1.524 . S
C1115 C1107 1.503 . S
C1115 C1114 1.370 . S
C1115 C1116 1.403 . S
C1116 C1115 1.403 . S
C1116 C1117 1.404 . S
C1116 C1119 1.539 . S
C1117 C1113 1.408 . S
C1117 C1116 1.404 . S
C1117 H1129 0.930 . S
C1118 C1114 1.524 . S
C1118 H1130 0.956 . S
C1118 H1131 0.961 . S
C1118 H1132 0.961 . S
C1119 C1116 1.539 . S
C1119 H1133 0.958 . S
C1119 H1134 0.961 . S
C1119 H1135 0.960 . S
H1120 C1104 0.931 . S
H1121 C1109 0.929 . S
H1122 C1110 0.960 . S
H1123 C1110 0.962 . S
H1124 C1110 0.960 . S
H1125 C1111 0.961 . S
H1126 C1111 0.961 . S
H1127 C1111 0.961 . S
H1128 C1112 0.931 . S
H1129 C1117 0.930 . S
H1130 C1118 0.956 . S
H1131 C1118 0.961 . S
H1132 C1118 0.961 . S
H1133 C1119 0.958 . S
H1134 C1119 0.961 . S
H1135 C1119 0.960 . S
C1136 C1137 1.391 . S
C1136 C1138 1.394 . S
C1136 H1152 0.931 . S
C1137 C1136 1.391 . S
C1137 C1141 1.376 . S
C1138 C1136 1.394 . S
C1138 C1139 1.369 . S
C1138 C1142 1.531 . S
C1139 C1138 1.369 . S
C1139 C1140 1.410 . S
C1139 C1147 1.503 . S
C1140 C1139 1.410 . S
C1140 C1141 1.392 . S
C1140 C1143 1.511 . S
C1141 C1137 1.376 . S
C1141 C1140 1.392 . S
C1141 H1153 0.929 . S
C1142 C1138 1.531 . S
C1142 H1154 0.960 . S
C1142 H1155 0.962 . S
C1142 H1156 0.960 . S
C1143 C1140 1.511 . S
C1143 H1157 0.961 . S
C1143 H1158 0.961 . S
C1143 H1159 0.961 . S
C1144 C1145 1.370 . S
C1144 C1146 1.363 . S
C1144 H1160 0.931 . S
C1145 C1144 1.370 . S
C1145 C1149 1.408 . S
C1146 C1144 1.363 . S
C1146 C1147 1.370 . S
C1146 C1150 1.524 . S
C1147 C1139 1.503 . S
C1147 C1146 1.370 . S
C1147 C1148 1.403 . S
C1148 C1147 1.403 . S
C1148 C1149 1.404 . S
C1148 C1151 1.539 . S
C1149 C1145 1.408 . S
C1149 C1148 1.404 . S
C1149 H1161 0.930 . S
C1150 C1146 1.524 . S
C1150 H1162 0.956 . S
C1150 H1163 0.961 . S
C1150 H1164 0.961 . S
C1151 C1148 1.539 . S
C1151 H1165 0.958 . S
C1151 H1166 0.961 . S
C1151 H1167 0.960 . S
H1152 C1136 0.931 . S
H1153 C1141 0.929 . S
H1154 C1142 0.960 . S
H1155 C1142 0.962 . S
H1156 C1142 0.960 . S
H1157 C1143 0.961 . S
H1158 C1143 0.961 . S
H1159 C1143 0.961 . S
H1160 C1144 0.931 . S
H1161 C1149 0.930 . S
H1162 C1150 0.956 . S
H1163 C1150 0.961 . S
H1164 C1150 0.961 . S
H1165 C1151 0.958 . S
H1166 C1151 0.961 . S
H1167 C1151 0.960 . S
C1168 C1169 1.391 . S
C1168 C1170 1.394 . S
C1168 H1184 0.931 . S
C1169 C1168 1.391 . S
C1169 C1173 1.376 1_554 S
C1170 C1168 1.394 . S
C1170 C1171 1.369 1_554 S
C1170 C1174 1.531 . S
C1171 C1170 1.369 1_556 S
C1171 C1172 1.410 . S
C1171 C1179 1.503 . S
C1172 C1171 1.410 . S
C1172 C1173 1.392 . S
C1172 C1175 1.511 . S
C1173 C1169 1.376 1_556 S
C1173 C1172 1.392 . S
C1173 H1185 0.929 . S
C1174 C1170 1.531 . S
C1174 H1186 0.960 . S
C1174 H1187 0.962 . S
C1174 H1188 0.960 . S
C1175 C1172 1.511 . S
C1175 H1189 0.961 . S
C1175 H1190 0.961 . S
C1175 H1191 0.961 . S
C1176 C1177 1.370 1_554 S
C1176 C1178 1.363 . S
C1176 H1192 0.931 . S
C1177 C1176 1.370 1_556 S
C1177 C1181 1.408 . S
C1178 C1176 1.363 . S
C1178 C1179 1.370 1_554 S
C1178 C1182 1.524 . S
C1179 C1171 1.503 . S
C1179 C1178 1.370 1_556 S
C1179 C1180 1.403 . S
C1180 C1179 1.403 . S
C1180 C1181 1.404 . S
C1180 C1183 1.539 . S
C1181 C1177 1.408 . S
C1181 C1180 1.404 . S
C1181 H1193 0.930 . S
C1182 C1178 1.524 . S
C1182 H1194 0.956 . S
C1182 H1195 0.961 . S
C1182 H1196 0.961 . S
C1183 C1180 1.539 . S
C1183 H1197 0.958 . S
C1183 H1198 0.961 . S
C1183 H1199 0.960 . S
H1184 C1168 0.931 . S
H1185 C1173 0.929 . S
H1186 C1174 0.960 . S
H1187 C1174 0.962 . S
H1188 C1174 0.960 . S
H1189 C1175 0.961 . S
H1190 C1175 0.961 . S
H1191 C1175 0.961 . S
H1192 C1176 0.931 . S
H1193 C1181 0.930 . S
H1194 C1182 0.956 . S
H1195 C1182 0.961 . S
H1196 C1182 0.961 . S
H1197 C1183 0.958 . S
H1198 C1183 0.961 . S
H1199 C1183 0.960 . S
C433 C14 1.259 . S
C441 C338 1.207 . S
C465 C50 1.263 . S
C473 C374 1.192 . S
C497 C86 1.231 . S
C505 C410 1.189 . S
C529 C122 1.152 . S
C537 C230 1.225 . S
C561 C266 1.233 . S
C569 C158 1.189 . S
C593 C302 1.188 . S
C601 C194 1.234 . S
C625 C363 1.720 . S
C633 C3 1.731 . S
C657 C39 1.740 . S
C665 C399 1.739 . S
C689 C75 1.727 . S
C697 C219 1.734 . S
C721 C111 1.742 . S
C729 C255 1.740 . S
C753 C147 1.734 . S
C761 C291 1.737 . S
C785 C183 1.744 . S
C793 C327 1.741 . S
C817 C362 0.971 . S
C825 C2 0.958 . S
C849 C38 0.937 . S
C857 C398 0.944 . S
C881 C74 0.951 . S
C889 C218 0.947 . S
C913 C110 0.951 . S
C921 C254 0.947 . S
C945 C146 0.946 . S
C953 C290 0.946 . S
C977 C182 0.969 . S
C985 C326 0.961 . S
C1009 C4 1.635 . S
C1017 C220 1.642 . S
C1041 C256 1.641 . S
C1049 C40 1.643 . S
C1073 C76 1.640 . S
C1081 C292 1.644 . S
C1105 C112 1.641 . S
C1113 C328 1.642 . S
C1137 C148 1.635 . S
C1145 C364 1.643 . S
C1169 C400 1.638 . S
C1177 C184 1.644 . S
