# Generated by pormake.
# Topology umy, (4)-cn, num edge types: 1
# Building blocks:
#     Node 0, Type 0, BuildingBlock: ICAMEG_clean_sbu_1, # of connection points: 4
#     Node 1, Type 0, BuildingBlock: ICAMEG_clean_sbu_1, # of connection points: 4
#     Node 2, Type 0, BuildingBlock: ICAMEG_clean_sbu_1, # of connection points: 4
#     Node 3, Type 0, BuildingBlock: ICAMEG_clean_sbu_1, # of connection points: 4
#     Node 4, Type 0, BuildingBlock: ICAMEG_clean_sbu_1, # of connection points: 4
#     Node 5, Type 0, BuildingBlock: ICAMEG_clean_sbu_1, # of connection points: 4
#     Node 6, Type 0, BuildingBlock: ICAMEG_clean_sbu_1, # of connection points: 4
#     Node 7, Type 0, BuildingBlock: ICAMEG_clean_sbu_1, # of connection points: 4
#     Node 8, Type 0, BuildingBlock: ICAMEG_clean_sbu_1, # of connection points: 4
#     Node 9, Type 0, BuildingBlock: ICAMEG_clean_sbu_1, # of connection points: 4
#     Node 10, Type 0, BuildingBlock: ICAMEG_clean_sbu_1, # of connection points: 4
#     Node 11, Type 0, BuildingBlock: ICAMEG_clean_sbu_1, # of connection points: 4
#     Edge 12, Type (0, 0), BuildingBlock: MIFKUJ_clean_linker_0, # of connection points: 2
#     Edge 13, Type (0, 0), BuildingBlock: MIFKUJ_clean_linker_0, # of connection points: 2
#     Edge 14, Type (0, 0), BuildingBlock: MIFKUJ_clean_linker_0, # of connection points: 2
#     Edge 15, Type (0, 0), BuildingBlock: MIFKUJ_clean_linker_0, # of connection points: 2
#     Edge 16, Type (0, 0), BuildingBlock: MIFKUJ_clean_linker_0, # of connection points: 2
#     Edge 17, Type (0, 0), BuildingBlock: MIFKUJ_clean_linker_0, # of connection points: 2
#     Edge 18, Type (0, 0), BuildingBlock: MIFKUJ_clean_linker_0, # of connection points: 2
#     Edge 19, Type (0, 0), BuildingBlock: MIFKUJ_clean_linker_0, # of connection points: 2
#     Edge 20, Type (0, 0), BuildingBlock: MIFKUJ_clean_linker_0, # of connection points: 2
#     Edge 21, Type (0, 0), BuildingBlock: MIFKUJ_clean_linker_0, # of connection points: 2
#     Edge 22, Type (0, 0), BuildingBlock: MIFKUJ_clean_linker_0, # of connection points: 2
#     Edge 23, Type (0, 0), BuildingBlock: MIFKUJ_clean_linker_0, # of connection points: 2
#     Edge 24, Type (0, 0), BuildingBlock: MIFKUJ_clean_linker_0, # of connection points: 2
#     Edge 25, Type (0, 0), BuildingBlock: MIFKUJ_clean_linker_0, # of connection points: 2
#     Edge 26, Type (0, 0), BuildingBlock: MIFKUJ_clean_linker_0, # of connection points: 2
#     Edge 27, Type (0, 0), BuildingBlock: MIFKUJ_clean_linker_0, # of connection points: 2
#     Edge 28, Type (0, 0), BuildingBlock: MIFKUJ_clean_linker_0, # of connection points: 2
#     Edge 29, Type (0, 0), BuildingBlock: MIFKUJ_clean_linker_0, # of connection points: 2
#     Edge 30, Type (0, 0), BuildingBlock: MIFKUJ_clean_linker_0, # of connection points: 2
#     Edge 31, Type (0, 0), BuildingBlock: MIFKUJ_clean_linker_0, # of connection points: 2
#     Edge 32, Type (0, 0), BuildingBlock: MIFKUJ_clean_linker_0, # of connection points: 2
#     Edge 33, Type (0, 0), BuildingBlock: MIFKUJ_clean_linker_0, # of connection points: 2
#     Edge 34, Type (0, 0), BuildingBlock: MIFKUJ_clean_linker_0, # of connection points: 2
#     Edge 35, Type (0, 0), BuildingBlock: MIFKUJ_clean_linker_0, # of connection points: 2
# Relax obj value: 0.082
# Max RMSD: 0.107
# Mean RMSD: 0.107
data_MOF--net-umy--node1-ICAMEG_clean_sbu_1--edge1-MIFKUJ_clean_linker_0
_symmetry_space_group_name_H-M    P1
_symmetry_Int_Tables_number       1
_symmetry_cell_setting            triclinic
loop_
_symmetry_equiv_pos_as_xyz
'x, y, z'
_cell_length_a     51.618118
_cell_length_b     51.71278
_cell_length_c     72.708722
_cell_angle_alpha  90.043672
_cell_angle_beta   90.023485
_cell_angle_gamma 119.96645
loop_
_atom_site_label
_atom_site_type_symbol
_atom_site_fract_x
_atom_site_fract_y
_atom_site_fract_z
_atom_type_partial_charge
Co0 Co 0.07167 0.32306 0.13903 0.0
Co1 Co 0.07887 0.38444 0.1619 0.0
O2 O 0.08157 0.36491 0.1394 0.0
C3 C 0.13217 0.35204 0.12149 0.0
O4 O 0.14253 0.37044 0.13554 0.0
C5 C 0.0489 0.40223 0.13322 0.0
O6 O 0.0364 0.37517 0.12632 0.0
O7 O 0.03637 0.35259 0.16558 0.0
O8 O 0.03855 0.31187 0.15739 0.0
H9 H 0.05111 0.38768 0.22776 0.0
H10 H 0.07543 0.35308 0.10365 0.0
O11 O 0.1044 0.33269 0.12058 0.0
H12 H 0.97216 0.26843 0.10673 0.0
H13 H 0.05617 0.22865 0.10886 0.0
H14 H 0.05672 0.27675 0.16757 0.0
H15 H 1.00795 0.27735 0.13176 0.0
H16 H 0.06697 0.2808 0.1095 0.0
O17 O 0.06585 0.40899 0.14726 0.0
H18 H 0.05535 0.36371 0.1995 0.0
H19 H 0.09604 0.44707 0.17173 0.0
H20 H 0.04546 0.22446 0.16753 0.0
H21 H 0.04048 0.34477 0.0782 0.0
H22 H 0.04519 0.20008 0.13802 0.0
H23 H 0.98839 0.30224 0.07968 0.0
O24 O 0.10016 0.33054 0.15954 0.0
H25 H 0.16698 0.45921 0.12514 0.0
H26 H 0.13273 0.41313 0.18618 0.0
H27 H 0.18575 0.451 0.18168 0.0
H28 H 0.20318 0.47436 0.15099 0.0
H29 H 0.11419 0.42106 0.1302 0.0
H30 H 0.09203 0.47191 0.19966 0.0
H31 H 0.06952 0.44218 0.22797 0.0
O32 O 0.09227 0.36128 0.17742 0.0
C33 C 0.0256 0.32433 0.16547 0.0
C34 C 0.06103 0.4009 0.21553 0.0
C35 C 0.08396 0.44816 0.19976 0.0
N36 N 0.07609 0.40398 0.184 0.0
C37 C 0.06356 0.38745 0.19949 0.0
C38 C 0.08611 0.43395 0.18396 0.0
C39 C 0.07134 0.43147 0.21563 0.0
C40 C 0.05289 0.33436 0.1043 0.0
N41 N 0.04376 0.3157 0.11915 0.0
C42 C 0.03316 0.32984 0.08989 0.0
C43 C 1.00392 0.30601 0.09074 0.0
C44 C 0.99479 0.28705 0.10593 0.0
C45 C 0.01513 0.29228 0.12009 0.0
C46 C 0.05615 0.23901 0.1218 0.0
C47 C 0.05641 0.26623 0.15465 0.0
C48 C 0.06232 0.26855 0.12225 0.0
N49 N 0.06228 0.28175 0.13854 0.0
C50 C 0.05011 0.23664 0.15473 0.0
C51 C 0.04999 0.22299 0.13817 0.0
C52 C 0.10265 0.34377 0.17479 0.0
C53 C 0.15964 0.44927 0.13859 0.0
C54 C 0.14014 0.42314 0.17277 0.0
C55 C 0.17019 0.44462 0.17032 0.0
C56 C 0.17995 0.45773 0.15309 0.0
N57 N 0.12034 0.41503 0.15849 0.0
C58 C 0.12975 0.42774 0.14156 0.0
Co59 Co 0.75712 0.06294 0.30438 0.0
Co60 Co 0.70158 0.06927 0.32619 0.0
O61 O 0.72589 0.07407 0.30431 0.0
C62 C 0.79107 0.12494 0.28905 0.0
O63 O 0.78143 0.13422 0.30287 0.0
C64 C 0.65566 0.04351 0.29607 0.0
O65 O 0.66949 0.03029 0.28907 0.0
O66 O 0.68935 0.02617 0.32787 0.0
O67 O 0.73267 0.02809 0.32109 0.0
H68 H 0.66364 0.03355 0.39012 0.0
H69 H 0.73465 0.0716 0.26877 0.0
O70 O 0.78276 0.0973 0.28751 0.0
H71 H 0.7134 0.96743 0.26788 0.0
H72 H 0.83695 0.04723 0.2756 0.0
H73 H 0.78455 0.0435 0.3331 0.0
H74 H 0.73846 0.99992 0.29457 0.0
H75 H 0.79677 0.05986 0.27563 0.0
O76 O 0.66579 0.05951 0.31048 0.0
H77 H 0.69435 0.04061 0.36262 0.0
H78 H 0.65658 0.08723 0.33604 0.0
H79 H 0.82441 0.03044 0.33365 0.0
H80 H 0.70982 0.03998 0.2417 0.0
H81 H 0.85094 0.03228 0.30476 0.0
H82 H 0.69897 0.98747 0.24118 0.0
O83 O 0.77655 0.08871 0.32631 0.0
H84 H 0.7213 0.1629 0.29347 0.0
H85 H 0.72559 0.11973 0.35308 0.0
H86 H 0.74268 0.17349 0.35105 0.0
H87 H 0.74054 0.1954 0.32109 0.0
H88 H 0.70468 0.10926 0.29608 0.0
H89 H 0.62528 0.08048 0.36324 0.0
H90 H 0.62877 0.05356 0.39056 0.0
O91 O 0.73614 0.07928 0.34282 0.0
C92 C 0.70635 0.01478 0.32794 0.0
C93 C 0.66195 0.04537 0.37832 0.0
C94 C 0.6404 0.07168 0.36322 0.0
N95 N 0.67735 0.0644 0.34774 0.0
C96 C 0.67932 0.04949 0.3627 0.0
C97 C 0.65812 0.07535 0.34783 0.0
C98 C 0.64238 0.05658 0.37855 0.0
C99 C 0.73023 0.04885 0.26856 0.0
N100 N 0.73806 0.03764 0.2832 0.0
C101 C 0.71607 0.03102 0.25323 0.0
C102 C 0.70994 1.00154 0.25296 0.0
C103 C 0.71801 0.99028 0.26795 0.0
C104 C 0.7321 0.00875 0.28305 0.0
C105 C 0.82553 0.04629 0.28828 0.0
C106 C 0.79586 0.04419 0.32044 0.0
C107 C 0.80281 0.05349 0.28839 0.0
N108 N 0.78821 0.05227 0.30433 0.0
C109 C 0.81846 0.03683 0.32085 0.0
C110 C 0.83336 0.0379 0.30464 0.0
C111 C 0.76415 0.0892 0.34138 0.0
C112 C 0.72226 0.15359 0.30662 0.0
C113 C 0.72465 0.12909 0.33998 0.0
C114 C 0.73431 0.15955 0.33893 0.0
C115 C 0.73308 0.17182 0.32211 0.0
N116 N 0.71399 0.11134 0.32472 0.0
C117 C 0.71277 0.12323 0.30819 0.0
Co118 Co 0.69903 0.75108 0.47035 0.0
Co119 Co 0.6336 0.69983 0.49228 0.0
O120 O 0.65616 0.72148 0.47036 0.0
C121 C 0.67245 0.78585 0.45443 0.0
O122 O 0.65333 0.77636 0.46812 0.0
C123 C 0.61791 0.65162 0.46401 0.0
O124 O 0.6449 0.66669 0.45703 0.0
O125 O 0.66456 0.68891 0.49902 0.0
O126 O 0.70753 0.72596 0.48752 0.0
H127 H 0.62229 0.66875 0.55858 0.0
H128 H 0.66771 0.72954 0.43465 0.0
O129 O 0.69176 0.77739 0.45314 0.0
H130 H 0.74573 0.70105 0.43494 0.0
H131 H 0.79599 0.82594 0.44068 0.0
H132 H 0.74676 0.77665 0.49871 0.0
H133 H 0.74021 0.72804 0.46125 0.0
H134 H 0.74226 0.78845 0.44123 0.0
O135 O 0.61069 0.6617 0.47788 0.0
H136 H 0.64953 0.69789 0.53125 0.0
H137 H 0.56958 0.65512 0.49969 0.0
H138 H 0.80058 0.81384 0.49877 0.0
H139 H 0.67268 0.7029 0.40794 0.0
H140 H 0.82555 0.83879 0.46959 0.0
H141 H 0.71186 0.68838 0.40801 0.0
O142 O 0.69469 0.77241 0.49197 0.0
H143 H 0.56503 0.71289 0.44905 0.0
H144 H 0.60053 0.72402 0.51309 0.0
H145 H 0.5636 0.73913 0.50491 0.0
H146 H 0.54555 0.73352 0.47268 0.0
H147 H 0.60227 0.69851 0.4578 0.0
H148 H 0.54137 0.62633 0.52686 0.0
H149 H 0.56778 0.6331 0.55658 0.0
O150 O 0.65488 0.737 0.50736 0.0
C151 C 0.69301 0.70263 0.49738 0.0
C152 C 0.6105 0.66596 0.54578 0.0
C153 C 0.5651 0.642 0.52795 0.0
N154 N 0.61116 0.67832 0.5139 0.0
C155 C 0.6258 0.68231 0.53024 0.0
C156 C 0.5812 0.65838 0.51261 0.0
C157 C 0.57992 0.64581 0.54462 0.0
C158 C 0.68501 0.72357 0.43469 0.0
N159 N 0.70369 0.7304 0.44947 0.0
C160 C 0.68763 0.70837 0.41957 0.0
C161 C 0.70958 0.70018 0.41963 0.0
C162 C 0.72857 0.70725 0.43475 0.0
C163 C 0.72526 0.72243 0.44964 0.0
C164 C 0.78537 0.81523 0.45348 0.0
C165 C 0.75747 0.78733 0.48596 0.0
C166 C 0.75492 0.79404 0.45389 0.0
N167 N 0.74139 0.78032 0.46999 0.0
C168 C 0.78795 0.80841 0.48607 0.0
C169 C 0.80194 0.82241 0.4697 0.0
C170 C 0.67706 0.76342 0.50576 0.0
C171 C 0.57273 0.71546 0.46313 0.0
C172 C 0.59301 0.72182 0.49901 0.0
C173 C 0.57197 0.73024 0.49448 0.0
C174 C 0.56183 0.72706 0.4764 0.0
N175 N 0.60364 0.71052 0.48593 0.0
C176 C 0.59375 0.70727 0.46818 0.0
Co177 Co 0.9468 0.69 0.64043 0.0
Co178 Co 0.93816 0.62687 0.66188 0.0
O179 O 0.9361 0.64789 0.63996 0.0
C180 C 0.8858 0.66234 0.62369 0.0
O181 O 0.87592 0.64371 0.63762 0.0
C182 C 0.9687 0.60999 0.63291 0.0
O183 O 0.98206 0.63737 0.62651 0.0
O184 O 0.98072 0.65819 0.66626 0.0
O185 O 0.98028 0.6999 0.65827 0.0
H186 H 0.96419 0.61939 0.72753 0.0
H187 H 0.94126 0.66063 0.6045 0.0
O188 O 0.9136 0.68152 0.62249 0.0
H189 H 0.04543 0.74366 0.60721 0.0
H190 H 0.96427 0.78628 0.61215 0.0
H191 H 0.96356 0.73558 0.66972 0.0
H192 H 0.01061 0.7349 0.63277 0.0
H193 H 0.95176 0.73358 0.61181 0.0
O194 O 0.95113 0.60292 0.64664 0.0
H195 H 0.96088 0.6452 0.6999 0.0
H196 H 0.92003 0.5635 0.6702 0.0
H197 H 0.97637 0.78833 0.67067 0.0
H198 H 0.97524 0.6688 0.57851 0.0
H199 H 0.9768 0.81404 0.64172 0.0
H200 H 0.02777 0.71052 0.5798 0.0
O201 O 0.91918 0.68269 0.66145 0.0
H202 H 0.85066 0.55507 0.62339 0.0
H203 H 0.88366 0.59693 0.68556 0.0
H204 H 0.83065 0.55977 0.68019 0.0
H205 H 0.81385 0.53852 0.64892 0.0
H206 H 0.90344 0.59251 0.62934 0.0
H207 H 0.92311 0.53684 0.69747 0.0
H208 H 0.94522 0.56481 0.72643 0.0
O209 O 0.92471 0.64921 0.67799 0.0
C210 C 0.99243 0.68658 0.66623 0.0
C211 C 0.95446 0.60694 0.71501 0.0
C212 C 0.93144 0.56063 0.69813 0.0
N213 N 0.94019 0.60588 0.68346 0.0
C214 C 0.95248 0.62143 0.69932 0.0
C215 C 0.92984 0.57586 0.68271 0.0
C216 C 0.94383 0.57633 0.71437 0.0
C217 C 0.96401 0.679 0.60507 0.0
N218 N 0.97392 0.69731 0.6201 0.0
C219 C 0.98318 0.68344 0.59036 0.0
C220 C 0.01266 0.70682 0.5911 0.0
C221 C 0.0226 0.72541 0.60648 0.0
C222 C 1.0028 0.72027 0.62095 0.0
C223 C 0.96422 0.77534 0.62484 0.0
C224 C 0.96385 0.74665 0.65705 0.0
C225 C 0.9571 0.74549 0.62474 0.0
N226 N 0.95714 0.73158 0.64071 0.0
C227 C 0.97106 0.77651 0.65768 0.0
C228 C 0.97126 0.79091 0.64144 0.0
C229 C 0.91561 0.66789 0.67618 0.0
C230 C 0.85773 0.5641 0.63709 0.0
C231 C 0.87653 0.58787 0.6719 0.0
C232 C 0.84648 0.56677 0.66895 0.0
C233 C 0.83708 0.55485 0.65141 0.0
N234 N 0.89667 0.59677 0.65779 0.0
C235 C 0.8876 0.58522 0.64055 0.0
Co236 Co 0.26169 0.94545 0.80527 0.0
Co237 Co 0.31707 0.9392 0.82723 0.0
O238 O 0.29328 0.93495 0.80522 0.0
C239 C 0.229 0.88405 0.78906 0.0
O240 O 0.23845 0.87468 0.80293 0.0
C241 C 0.36464 0.96878 0.79852 0.0
O242 O 0.35249 0.98471 0.79344 0.0
O243 O 0.32864 0.98205 0.82961 0.0
O244 O 0.28522 0.97976 0.82262 0.0
H245 H 0.3536 0.97285 0.8917 0.0
H246 H 0.28612 0.93899 0.76984 0.0
O247 O 0.237 0.91165 0.78776 0.0
H248 H 0.30521 0.04243 0.77046 0.0
H249 H 0.18186 0.96099 0.77629 0.0
H250 H 0.23273 0.96288 0.83412 0.0
H251 H 0.27938 0.00855 0.79642 0.0
H252 H 0.22255 0.94907 0.77636 0.0
O253 O 0.35309 0.94995 0.81155 0.0
H254 H 0.32329 0.96644 0.86407 0.0
H255 H 0.36255 0.92178 0.8368 0.0
H256 H 0.1923 0.97514 0.83466 0.0
H257 H 0.31182 0.97204 0.74351 0.0
H258 H 0.16656 0.97424 0.80558 0.0
H259 H 0.32157 0.02419 0.74374 0.0
O260 O 0.24195 0.91859 0.82666 0.0
H261 H 0.29988 0.84744 0.79311 0.0
H262 H 0.29295 0.88769 0.85326 0.0
H263 H 0.27682 0.83422 0.8504 0.0
H264 H 0.28031 0.81378 0.82016 0.0
H265 H 0.31547 0.90072 0.79654 0.0
H266 H 0.39345 0.92787 0.86412 0.0
H267 H 0.389 0.95348 0.89185 0.0
O268 O 0.28197 0.92808 0.8437 0.0
C269 C 0.31139 0.99313 0.82971 0.0
C270 C 0.35568 0.96157 0.87972 0.0
C271 C 0.37808 0.93637 0.86423 0.0
N272 N 0.341 0.9436 0.84886 0.0
C273 C 0.33852 0.95781 0.86404 0.0
C274 C 0.36057 0.93305 0.84878 0.0
C275 C 0.37556 0.95073 0.87979 0.0
C276 C 0.29008 0.96158 0.76996 0.0
N277 N 0.28115 0.97179 0.7846 0.0
C278 C 0.30473 0.98022 0.75505 0.0
C279 C 0.31023 0.00949 0.7552 0.0
C280 C 0.30107 0.01974 0.77019 0.0
C281 C 0.28652 1.00048 0.78487 0.0
C282 C 0.19294 0.96151 0.78904 0.0
C283 C 0.22175 0.96259 0.8214 0.0
C284 C 0.21595 0.95471 0.78917 0.0
N285 N 0.23012 0.95545 0.80521 0.0
C286 C 0.19882 0.96949 0.82179 0.0
C287 C 0.18437 0.96895 0.80548 0.0
C288 C 0.25392 0.91764 0.84181 0.0
C289 C 0.29833 0.85609 0.80637 0.0
C290 C 0.29444 0.87895 0.84004 0.0
C291 C 0.28534 0.84866 0.83852 0.0
C292 C 0.28731 0.83721 0.82155 0.0
N293 N 0.30528 0.89734 0.82509 0.0
C294 C 0.30723 0.88626 0.80841 0.0
Co295 Co 0.32108 0.25943 0.9709 0.0
Co296 Co 0.38391 0.31282 0.99323 0.0
O297 O 0.36341 0.29018 0.97106 0.0
C298 C 0.34894 0.22622 0.95436 0.0
O299 O 0.36787 0.2354 0.96818 0.0
C300 C 0.40137 0.36039 0.96465 0.0
O301 O 0.37346 0.34726 0.95906 0.0
O302 O 0.35304 0.32482 0.99705 0.0
O303 O 0.31114 0.28315 0.98858 0.0
H304 H 0.39029 0.34641 0.05878 0.0
H305 H 0.35213 0.2836 0.9355 0.0
O306 O 0.32954 0.23456 0.95316 0.0
H307 H 0.27007 0.30638 0.93679 0.0
H308 H 0.22501 0.18253 0.94117 0.0
H309 H 0.27422 0.2309 0.9995 0.0
H310 H 0.27718 0.27941 0.96248 0.0
H311 H 0.27813 0.22185 0.94165 0.0
O312 O 0.40879 0.3495 0.97801 0.0
H313 H 0.36479 0.31768 0.03094 0.0
H314 H 0.44739 0.35711 1.00218 0.0
H315 H 0.22099 0.19188 0.99962 0.0
H316 H 0.34566 0.31035 0.90941 0.0
H317 H 0.19604 0.1674 0.9703 0.0
H318 H 0.30443 0.32198 0.90999 0.0
O319 O 0.32734 0.23854 0.99199 0.0
H320 H 0.45666 0.29664 0.95611 0.0
H321 H 0.41176 0.28664 0.01742 0.0
H322 H 0.44872 0.27027 0.01271 0.0
H323 H 0.47144 0.27524 0.98191 0.0
H324 H 0.41944 0.31248 0.96134 0.0
H325 H 0.47376 0.38645 0.02967 0.0
H326 H 0.44519 0.38111 0.05826 0.0
O327 O 0.36023 0.2771 0.00922 0.0
C328 C 0.32457 0.30851 0.99667 0.0
C329 C 0.40301 0.34888 0.04643 0.0
C330 C 0.44985 0.37138 0.03008 0.0
N331 N 0.40459 0.33557 0.01498 0.0
C332 C 0.3887 0.3326 0.03063 0.0
C333 C 0.43477 0.35476 0.01454 0.0
C334 C 0.4338 0.36836 0.04612 0.0
C335 C 0.33398 0.28835 0.93576 0.0
N336 N 0.315 0.27988 0.95046 0.0
C337 C 0.33049 0.3036 0.92099 0.0
C338 C 0.30739 0.31016 0.92133 0.0
C339 C 0.28812 0.30144 0.93638 0.0
C340 C 0.29231 0.28626 0.95092 0.0
C341 C 0.23562 0.19306 0.95403 0.0
C342 C 0.26348 0.22047 0.98667 0.0
C343 C 0.26571 0.21528 0.9544 0.0
N344 N 0.27921 0.22878 0.97057 0.0
C345 C 0.23335 0.19833 0.98683 0.0
C346 C 0.21937 0.18459 0.97038 0.0
C347 C 0.34129 0.24947 0.00704 0.0
C348 C 0.44695 0.2944 0.96961 0.0
C349 C 0.42148 0.2888 1.00394 0.0
C350 C 0.44242 0.27953 1.00138 0.0
C351 C 0.4552 0.28237 0.98409 0.0
N352 N 0.41358 0.30068 0.98969 0.0
C353 C 0.42596 0.30346 0.97268 0.0
Co354 Co 0.69503 0.94859 0.70374 0.0
Co355 Co 0.6311 0.93686 0.68115 0.0
O356 O 0.6526 0.93703 0.70344 0.0
C357 C 0.66667 0.88808 0.72072 0.0
O358 O 0.64773 0.87851 0.70691 0.0
C359 C 0.61468 0.96998 0.70861 0.0
O360 O 0.64212 0.98375 0.71503 0.0
O361 O 0.66252 0.9788 0.6751 0.0
O362 O 0.70471 0.98159 0.6858 0.0
H363 H 0.62221 0.9552 0.6142 0.0
H364 H 0.66376 0.94223 0.73904 0.0
O365 O 0.68656 0.91563 0.72174 0.0
H366 H 0.74508 0.04712 0.73712 0.0
H367 H 0.791 0.96853 0.73409 0.0
H368 H 0.7423 0.96682 0.67538 0.0
H369 H 0.73837 0.01263 0.71175 0.0
H370 H 0.73779 0.95453 0.73329 0.0
O371 O 0.60758 0.95157 0.69533 0.0
H372 H 0.6486 0.9549 0.6424 0.0
H373 H 0.56751 0.91838 0.67267 0.0
H374 H 0.7956 0.98119 0.67558 0.0
H375 H 0.66985 0.97588 0.76482 0.0
H376 H 0.8203 0.9821 0.70509 0.0
H377 H 0.7107 0.02877 0.76393 0.0
O378 O 0.68956 0.92131 0.6828 0.0
H379 H 0.56062 0.85437 0.72307 0.0
H380 H 0.59909 0.87999 0.65974 0.0
H381 H 0.56194 0.8279 0.66726 0.0
H382 H 0.54239 0.81481 0.69914 0.0
H383 H 0.59809 0.90612 0.71497 0.0
H384 H 0.5403 0.91855 0.64483 0.0
H385 H 0.56766 0.93695 0.6153 0.0
O386 O 0.65294 0.92146 0.66623 0.0
C387 C 0.69104 0.99189 0.67632 0.0
C388 C 0.61003 0.94708 0.62698 0.0
C389 C 0.56407 0.92656 0.64417 0.0
N390 N 0.60962 0.93657 0.65916 0.0
C391 C 0.62484 0.9468 0.64299 0.0
C392 C 0.57962 0.92663 0.65991 0.0
C393 C 0.57943 0.93686 0.62761 0.0
C394 C 0.68176 0.96514 0.73865 0.0
N395 N 0.70074 0.97543 0.72395 0.0
C396 C 0.68502 0.98412 0.75324 0.0
C397 C 0.70792 0.01381 0.75272 0.0
C398 C 0.7272 0.02413 0.73767 0.0
C399 C 0.72323 1.00452 0.72332 0.0
C400 C 0.7805 0.96826 0.72115 0.0
C401 C 0.75292 0.96732 0.68829 0.0
C402 C 0.75036 0.96028 0.7206 0.0
N403 N 0.73699 0.96002 0.70432 0.0
C404 C 0.78309 0.9754 0.68831 0.0
C405 C 0.79693 0.97588 0.70487 0.0
C406 C 0.67351 0.91491 0.66832 0.0
C407 C 0.56895 0.8598 0.70913 0.0
C408 C 0.59091 0.87444 0.67365 0.0
C409 C 0.56975 0.84492 0.67782 0.0
C410 C 0.55876 0.8376 0.6957 0.0
N411 N 0.60084 0.89609 0.68689 0.0
C412 C 0.5901 0.88908 0.70444 0.0
Co413 Co 0.74859 0.6943 0.87291 0.0
Co414 Co 0.69975 0.63326 0.84751 0.0
O415 O 0.71939 0.65176 0.8708 0.0
C416 C 0.78177 0.66675 0.88961 0.0
O417 O 0.77446 0.64943 0.87506 0.0
C418 C 0.64881 0.61057 0.87399 0.0
O419 O 0.6592 0.63812 0.8797 0.0
O420 O 0.6857 0.66263 0.84446 0.0
O421 O 0.72573 0.70456 0.85469 0.0
H422 H 0.67333 0.63256 0.7809 0.0
H423 H 0.72122 0.65919 0.90668 0.0
O424 O 0.77247 0.68535 0.89118 0.0
H425 H 0.69379 0.73788 0.90633 0.0
H426 H 0.8193 0.78803 0.90725 0.0
H427 H 0.77854 0.74429 0.84643 0.0
H428 H 0.72492 0.73507 0.88156 0.0
H429 H 0.78165 0.73465 0.90427 0.0
O430 O 0.66221 0.60508 0.86117 0.0
H431 H 0.69755 0.65577 0.81032 0.0
H432 H 0.65935 0.57041 0.83551 0.0
H433 H 0.8159 0.79785 0.84881 0.0
H434 H 0.69025 0.66132 0.93183 0.0
H435 H 0.83656 0.82005 0.87939 0.0
H436 H 0.67628 0.70084 0.93173 0.0
O437 O 0.77272 0.6915 0.85245 0.0
H438 H 0.71864 0.56046 0.88242 0.0
H439 H 0.73176 0.61179 0.82312 0.0
H440 H 0.75206 0.57791 0.82712 0.0
H441 H 0.74538 0.55185 0.85687 0.0
H442 H 0.69927 0.59501 0.87801 0.0
H443 H 0.63456 0.54629 0.80636 0.0
H444 H 0.64161 0.57742 0.77877 0.0
O445 O 0.73649 0.66039 0.83314 0.0
C446 C 0.70112 0.69107 0.84574 0.0
C447 C 0.67011 0.61875 0.79282 0.0
C448 C 0.64833 0.57033 0.80712 0.0
N449 N 0.67996 0.61447 0.82461 0.0
C450 C 0.6838 0.63176 0.80952 0.0
C451 C 0.66234 0.58413 0.8236 0.0
C452 C 0.65231 0.58781 0.79164 0.0
C453 C 0.71544 0.67661 0.90664 0.0
N454 N 0.72496 0.69705 0.89273 0.0
C455 C 0.69781 0.67763 0.92088 0.0
C456 C 0.68995 0.69979 0.92079 0.0
C457 C 0.69974 0.72057 0.90654 0.0
C458 C 0.7173 0.71882 0.89253 0.0
C459 C 0.81042 0.77863 0.89385 0.0
C460 C 0.78728 0.75383 0.8598 0.0
C461 C 0.78916 0.7484 0.89207 0.0
N462 N 0.77778 0.73641 0.8752 0.0
C463 C 0.80849 0.78415 0.86106 0.0
C464 C 0.8201 0.79659 0.87822 0.0
C465 C 0.7636 0.67956 0.8367 0.0
C466 C 0.72155 0.57157 0.86935 0.0
C467 C 0.72886 0.60064 0.83615 0.0
C468 C 0.74031 0.5814 0.8383 0.0
C469 C 0.73658 0.56679 0.85502 0.0
N470 N 0.71417 0.60526 0.85029 0.0
C471 C 0.71048 0.59104 0.86673 0.0
Co472 Co 0.06287 0.7498 0.03857 0.0
Co473 Co 0.06967 0.69514 0.01585 0.0
O474 O 0.07332 0.71821 0.03816 0.0
C475 C 0.12437 0.78226 0.05479 0.0
O476 O 0.13394 0.77324 0.04081 0.0
C477 C 0.04189 0.64887 0.04547 0.0
O478 O 0.03052 0.66417 0.05286 0.0
O479 O 0.02693 0.68411 0.01277 0.0
O480 O 0.02867 0.72675 0.0211 0.0
H481 H 0.03941 0.66185 0.95052 0.0
H482 H 0.06975 0.72581 0.07406 0.0
O483 O 0.09668 0.77406 0.05613 0.0
H484 H 0.96561 0.70525 0.07336 0.0
H485 H 0.04676 0.82838 0.06869 0.0
H486 H 0.04525 0.7793 0.01021 0.0
H487 H 0.99935 0.73108 0.04734 0.0
H488 H 0.05915 0.7881 0.06799 0.0
O489 O 0.05751 0.65813 0.03087 0.0
H490 H 0.04448 0.69088 0.97854 0.0
H491 H 0.08692 0.64966 0.00616 0.0
H492 H 0.03244 0.81929 0.01031 0.0
H493 H 0.03689 0.7003 0.10051 0.0
H494 H 0.03316 0.84414 0.03971 0.0
H495 H 0.98437 0.68976 0.10023 0.0
O496 O 0.08984 0.77012 0.01733 0.0
H497 H 0.15934 0.70957 0.05147 0.0
H498 H 0.12271 0.72008 0.99084 0.0
H499 H 0.17598 0.7354 0.99472 0.0
H500 H 0.19458 0.73015 0.02517 0.0
H501 H 0.10635 0.69479 0.04707 0.0
H502 H 0.08211 0.62002 0.97847 0.0
H503 H 0.05831 0.62611 0.95036 0.0
O504 O 0.08192 0.73098 0.9999 0.0
C505 C 0.0157 0.70123 0.01322 0.0
C506 C 0.04991 0.65906 0.96266 0.0
C507 C 0.07383 0.63556 0.97836 0.0
N508 N 0.06614 0.67213 0.99394 0.0
C509 C 0.0529 0.6755 0.97856 0.0
C510 C 0.07643 0.65236 0.99401 0.0
C511 C 0.06049 0.63899 0.96259 0.0
C512 C 0.04701 0.72157 0.07393 0.0
N513 N 0.0365 0.72995 0.05919 0.0
C514 C 0.02847 0.707 0.08891 0.0
C515 C 0.99899 0.70104 0.08872 0.0
C516 C 0.98844 0.70969 0.07364 0.0
C517 C 1.00761 0.7242 0.0589 0.0
C518 C 0.04633 0.8177 0.0558 0.0
C519 C 0.04547 0.78989 0.02307 0.0
C520 C 0.0534 0.79493 0.05531 0.0
N521 N 0.05277 0.78124 0.03909 0.0
C522 C 0.03826 0.81258 0.02304 0.0
C523 C 0.03869 0.82653 0.03953 0.0
C524 C 0.09166 0.75881 1.00214 0.0
C525 C 0.15149 0.7119 0.03811 0.0
C526 C 0.13064 0.71779 1.00417 0.0
C527 C 0.16082 0.72646 0.00626 0.0
C528 C 0.17125 0.72348 0.02336 0.0
N529 N 0.11138 0.70634 0.0187 0.0
C530 C 0.12147 0.70344 0.03551 0.0
Co531 Co 0.31721 0.06215 0.20424 0.0
Co532 Co 0.37943 0.0661 0.18412 0.0
O533 O 0.35902 0.07112 0.20562 0.0
C534 C 0.34794 0.12248 0.22226 0.0
O535 O 0.37077 0.13068 0.21116 0.0
C536 C 0.39936 0.04314 0.21641 0.0
O537 O 0.37632 0.03909 0.22622 0.0
O538 O 0.3472 0.02379 0.18139 0.0
O539 O 0.30663 0.02779 0.18696 0.0
H540 H 0.38388 0.03233 0.11995 0.0
H541 H 0.3436 0.06765 0.24119 0.0
O542 O 0.32568 0.09602 0.22149 0.0
H543 H 0.25794 0.96503 0.23828 0.0
H544 H 0.22072 0.0495 0.22957 0.0
H545 H 0.27366 0.04677 0.17382 0.0
H546 H 0.27002 0.99917 0.21195 0.0
H547 H 0.27264 0.05954 0.23148 0.0
O548 O 0.40293 0.05322 0.20006 0.0
H549 H 0.35951 0.03968 0.14698 0.0
H550 H 0.44216 0.0811 0.17585 0.0
H551 H 0.2217 0.03645 0.17131 0.0
H552 H 0.33202 0.03441 0.26798 0.0
H553 H 0.19487 0.03777 0.19933 0.0
H554 H 0.28899 0.98263 0.26659 0.0
O555 O 0.32709 0.0897 0.18299 0.0
H556 H 0.45532 0.15611 0.21919 0.0
H557 H 0.40999 0.11768 0.15836 0.0
H558 H 0.44922 0.17043 0.16158 0.0
H559 H 0.47228 0.18994 0.19215 0.0
H560 H 0.41572 0.10363 0.21541 0.0
H561 H 0.46739 0.07399 0.14916 0.0
H562 H 0.43824 0.04954 0.12092 0.0
O563 O 0.35746 0.07878 0.16695 0.0
C564 C 0.31906 0.01365 0.18051 0.0
C565 C 0.39686 0.0431 0.13215 0.0
C566 C 0.44371 0.06644 0.14855 0.0
N567 N 0.3994 0.06099 0.16296 0.0
C568 C 0.38319 0.04741 0.14749 0.0
C569 C 0.42928 0.07035 0.16365 0.0
C570 C 0.42734 0.05273 0.13271 0.0
C571 C 0.32469 0.04524 0.24055 0.0
N572 N 0.30758 0.03536 0.22501 0.0
C573 C 0.31831 0.02648 0.25573 0.0
C574 C 0.29419 0.99742 0.25493 0.0
C575 C 0.2768 0.98751 0.23904 0.0
C576 C 0.28385 0.0069 0.22413 0.0
C577 C 0.23215 0.04879 0.21727 0.0
C578 C 0.26209 0.04724 0.18609 0.0
C579 C 0.26157 0.05451 0.21826 0.0
N580 N 0.27612 0.05356 0.20279 0.0
C581 C 0.23269 0.04143 0.18458 0.0
C582 C 0.21766 0.04221 0.2003 0.0
C583 C 0.34061 0.09018 0.16823 0.0
C584 C 0.44555 0.14784 0.20578 0.0
C585 C 0.41979 0.12601 0.17174 0.0
C586 C 0.44207 0.1559 0.17346 0.0
C587 C 0.45501 0.16682 0.19061 0.0
N588 N 0.41072 0.10749 0.18667 0.0
C589 C 0.42322 0.11808 0.20354 0.0
Co590 Co 0.26526 0.31743 0.3726 0.0
Co591 Co 0.31926 0.37779 0.34857 0.0
O592 O 0.29634 0.35986 0.37128 0.0
C593 C 0.24028 0.35039 0.39454 0.0
O594 O 0.2631 0.3764 0.39012 0.0
C595 C 0.36564 0.39977 0.37827 0.0
O596 O 0.35079 0.37353 0.38617 0.0
O597 O 0.33172 0.34715 0.34736 0.0
O598 O 0.28944 0.30619 0.35601 0.0
H599 H 0.35015 0.37564 0.28328 0.0
H600 H 0.29035 0.35133 0.40742 0.0
O601 O 0.23884 0.32626 0.389 0.0
H602 H 0.3103 0.26764 0.40983 0.0
H603 H 0.18756 0.22342 0.40372 0.0
H604 H 0.23743 0.26876 0.34504 0.0
H605 H 0.28417 0.27368 0.38325 0.0
H606 H 0.22689 0.27641 0.40238 0.0
O607 O 0.35615 0.40487 0.36329 0.0
H608 H 0.32307 0.35384 0.31215 0.0
H609 H 0.36401 0.43974 0.33694 0.0
H610 H 0.19843 0.21563 0.3458 0.0
H611 H 0.31609 0.34589 0.43437 0.0
H612 H 0.17318 0.19262 0.3753 0.0
H613 H 0.32634 0.30383 0.43569 0.0
O614 O 0.24457 0.32224 0.35092 0.0
H615 H 0.30426 0.45668 0.37898 0.0
H616 H 0.29191 0.40072 0.32162 0.0
H617 H 0.27548 0.43796 0.3227 0.0
H618 H 0.28167 0.46633 0.35153 0.0
H619 H 0.32003 0.4189 0.37736 0.0
H620 H 0.39192 0.46242 0.30838 0.0
H621 H 0.38489 0.43034 0.28124 0.0
O622 O 0.28363 0.35173 0.33296 0.0
C623 C 0.31515 0.31885 0.34831 0.0
C624 C 0.35341 0.38988 0.295 0.0
C625 C 0.37686 0.43856 0.3091 0.0
N626 N 0.34185 0.39548 0.32623 0.0
C627 C 0.33807 0.37766 0.3114 0.0
C628 C 0.3611 0.42557 0.32527 0.0
C629 C 0.37289 0.42055 0.29387 0.0
C630 C 0.29422 0.33271 0.40798 0.0
N631 N 0.28538 0.31268 0.39383 0.0
C632 C 0.30904 0.32985 0.42325 0.0
C633 C 0.31485 0.3063 0.42396 0.0
C634 C 0.30589 0.28601 0.40945 0.0
C635 C 0.29116 0.28961 0.3944 0.0
C636 C 0.19843 0.23318 0.39079 0.0
C637 C 0.22668 0.25888 0.35796 0.0
C638 C 0.22067 0.26319 0.38994 0.0
N639 N 0.2346 0.27563 0.37367 0.0
C640 C 0.20455 0.22879 0.35829 0.0
C641 C 0.19038 0.21591 0.37484 0.0
C642 C 0.25584 0.33378 0.33542 0.0
C643 C 0.30145 0.44448 0.36633 0.0
C644 C 0.29445 0.41274 0.33428 0.0
C645 C 0.28522 0.43392 0.33477 0.0
C646 C 0.28875 0.44986 0.35094 0.0
N647 N 0.30683 0.40753 0.34946 0.0
C648 C 0.31044 0.42314 0.36532 0.0
Co649 Co 0.95361 0.26171 0.53845 0.0
Co650 Co 0.94132 0.313 0.51554 0.0
O651 O 0.94015 0.29099 0.53771 0.0
C652 C 0.89144 0.22595 0.55307 0.0
O653 O 0.88222 0.23465 0.53877 0.0
C654 C 0.972 0.36233 0.5431 0.0
O655 O 0.98935 0.35153 0.54771 0.0
O656 O 0.98447 0.32615 0.51137 0.0
O657 O 0.98824 0.28723 0.52188 0.0
H658 H 0.96534 0.34491 0.44952 0.0
H659 H 0.94239 0.28466 0.57309 0.0
O660 O 0.91928 0.23529 0.55519 0.0
H661 H 0.04833 0.31131 0.57593 0.0
H662 H 0.97434 0.18678 0.56935 0.0
H663 H 0.97676 0.2361 0.51083 0.0
H664 H 0.01698 0.28361 0.54935 0.0
H665 H 0.95838 0.22445 0.56811 0.0
O666 O 0.95218 0.34954 0.53068 0.0
H667 H 0.96383 0.31722 0.47746 0.0
H668 H 0.92063 0.35614 0.50674 0.0
H669 H 0.99304 0.19868 0.51148 0.0
H670 H 0.97283 0.31216 0.60003 0.0
H671 H 0.99196 0.17377 0.54089 0.0
H672 H 0.02623 0.32573 0.60154 0.0
O673 O 0.9288 0.24026 0.51649 0.0
H674 H 0.85176 0.29409 0.553 0.0
H675 H 0.88701 0.28506 0.49159 0.0
H676 H 0.83336 0.26686 0.49649 0.0
H677 H 0.81542 0.27133 0.52735 0.0
H678 H 0.9052 0.31179 0.54756 0.0
H679 H 0.92186 0.38443 0.47915 0.0
H680 H 0.94425 0.37883 0.45025 0.0
O681 O 0.93009 0.27737 0.49982 0.0
C682 C 0.99858 0.31179 0.51303 0.0
C683 C 0.95552 0.34755 0.46203 0.0
C684 C 0.93116 0.36975 0.47866 0.0
N685 N 0.9422 0.33506 0.49373 0.0
C686 C 0.95459 0.3319 0.47789 0.0
C687 C 0.93063 0.35375 0.49427 0.0
C688 C 0.9437 0.36658 0.46245 0.0
C689 C 0.96556 0.29033 0.57371 0.0
N690 N 0.97791 0.28254 0.55968 0.0
C691 C 0.98271 0.30596 0.58897 0.0
C692 C 0.01268 0.31361 0.5898 0.0
C693 C 0.0251 0.30555 0.57543 0.0
C694 C 1.00728 0.28996 0.56038 0.0
C695 C 0.975 0.19754 0.55645 0.0
C696 C 0.97637 0.22548 0.52371 0.0
C697 C 0.96592 0.21883 0.55566 0.0
N698 N 0.96681 0.23259 0.53943 0.0
C699 C 0.98557 0.20427 0.52398 0.0
C700 C 0.9849 0.19026 0.54048 0.0
C701 C 0.92414 0.25045 0.50163 0.0
C702 C 0.85931 0.29208 0.53947 0.0
C703 C 0.87939 0.28704 0.50508 0.0
C704 C 0.84898 0.27673 0.50776 0.0
C705 C 0.83893 0.27928 0.52508 0.0
N706 N 0.89926 0.29964 0.51926 0.0
C707 C 0.88956 0.30217 0.53629 0.0
H708 H 0.03231 0.63394 0.08199 0.0
H709 H 0.0306 0.59053 0.09701 0.0
H710 H 0.04102 0.55847 0.04436 0.0
H711 H 0.0437 0.60216 0.02935 0.0
H712 H 0.99338 0.51353 0.07085 0.0
H713 H 0.09839 0.58858 0.06518 0.0
H714 H 0.14138 0.63928 0.06943 0.0
H715 H 0.12763 0.63157 0.12787 0.0
H716 H 0.08415 0.581 0.12392 0.0
H717 H 0.03045 0.40359 0.09797 0.0
H718 H 0.0266 0.44404 0.08315 0.0
H719 H 0.05295 0.49411 0.1339 0.0
H720 H 0.05814 0.45443 0.14844 0.0
H721 H 0.08075 0.5304 0.1084 0.0
H722 H 0.97787 0.45666 0.11581 0.0
H723 H 0.93258 0.40712 0.1132 0.0
H724 H 0.93888 0.41268 0.0543 0.0
H725 H 0.98446 0.46211 0.05657 0.0
C726 C 0.03393 0.61747 0.07361 0.0
C727 C 0.0382 0.6215 0.0545 0.0
C728 C 0.033 0.59274 0.0822 0.0
C729 C 0.03567 0.57129 0.07178 0.0
C730 C 0.03882 0.5747 0.05263 0.0
C731 C 0.04046 0.59973 0.0441 0.0
C732 C 0.03677 0.54614 0.08092 0.0
C733 C 0.01255 0.51706 0.07892 0.0
C734 C 0.06145 0.55094 0.09183 0.0
C735 C 0.0878 0.58116 0.09424 0.0
C736 C 0.10434 0.59781 0.07892 0.0
C737 C 0.12883 0.6265 0.08127 0.0
C738 C 0.13718 0.63867 0.0989 0.0
C739 C 0.1211 0.62214 0.11422 0.0
C740 C 0.09653 0.59346 0.11193 0.0
C741 C 0.03519 0.42313 0.10599 0.0
C742 C 0.04455 0.42572 0.1244 0.0
C743 C 0.03286 0.44627 0.09753 0.0
C744 C 0.03908 0.4722 0.10741 0.0
C745 C 0.04809 0.47453 0.12588 0.0
C746 C 0.05094 0.45171 0.13423 0.0
C747 C 0.03718 0.49729 0.09847 0.0
C748 C 0.06137 0.52656 0.10043 0.0
C749 C 0.01217 0.49266 0.08779 0.0
C750 C 0.98476 0.46296 0.08637 0.0
C751 C 0.96973 0.44722 0.10231 0.0
C752 C 0.94398 0.41918 0.10089 0.0
C753 C 0.9329 0.40673 0.0836 0.0
C754 C 0.94751 0.42234 0.06769 0.0
C755 C 0.97329 0.45038 0.06903 0.0
H756 H 0.91296 0.38501 0.08253 0.0
H757 H 0.15615 0.66089 0.1007 0.0
H758 H 0.61549 0.05715 0.31105 0.0
H759 H 0.57085 0.0533 0.29688 0.0
H760 H 0.58858 0.01941 0.24714 0.0
H761 H 0.6335 0.02299 0.26135 0.0
H762 H 0.57459 0.06581 0.24144 0.0
H763 H 0.53427 0.97218 0.27353 0.0
H764 H 0.52644 0.94026 0.30052 0.0
H765 H 0.4865 0.98369 0.32978 0.0
H766 H 0.49448 0.01618 0.30303 0.0
H767 H 0.43886 0.03167 0.19842 0.0
H768 H 0.48026 0.02756 0.21143 0.0
H769 H 0.4562 0.04181 0.26581 0.0
H770 H 0.41366 0.04433 0.25287 0.0
H771 H 0.47367 1.00357 0.26847 0.0
H772 H 0.51545 0.09874 0.23894 0.0
H773 H 0.5241 0.13343 0.21336 0.0
H774 H 0.56285 0.09165 0.18124 0.0
H775 H 0.55401 0.0564 0.20654 0.0
C776 C 0.60996 0.04879 0.2971 0.0
C777 C 0.62813 0.04034 0.28735 0.0
C778 C 0.5843 0.04651 0.28904 0.0
C779 C 0.57622 0.03589 0.27099 0.0
C780 C 0.59436 0.02761 0.26111 0.0
C781 C 0.61994 0.02954 0.26927 0.0
C782 C 0.54905 0.03396 0.26248 0.0
C783 C 0.55243 0.05181 0.24713 0.0
C784 C 0.52028 0.01649 0.27029 0.0
C785 C 0.51519 0.99678 0.28632 0.0
C786 C 0.52401 0.97508 0.28576 0.0
C787 C 0.51951 0.95686 0.30101 0.0
C788 C 0.50604 0.95999 0.31687 0.0
C789 C 0.49696 0.9813 0.31749 0.0
C790 C 0.50143 0.9996 0.30228 0.0
C791 C 0.44223 0.03367 0.21318 0.0
C792 C 0.42307 0.0385 0.22461 0.0
C793 C 0.4661 0.03154 0.22061 0.0
C794 C 0.47204 0.03518 0.2396 0.0
C795 C 0.45231 0.03906 0.25111 0.0
C796 C 0.42797 0.04052 0.24371 0.0
C797 C 0.49907 0.03553 0.24737 0.0
C798 C 0.49574 0.01747 0.26264 0.0
C799 C 0.52801 0.05327 0.2397 0.0
C800 C 0.5338 0.07475 0.22457 0.0
C801 C 0.52567 0.09685 0.22639 0.0
C802 C 0.53061 0.11661 0.21194 0.0
C803 C 0.54395 0.11469 0.19567 0.0
C804 C 0.55248 0.09308 0.19384 0.0
C805 C 0.54753 0.07321 0.20823 0.0
H806 H 0.54773 0.13 0.18449 0.0
H807 H 0.50259 0.94587 0.32866 0.0
H808 H 0.61599 0.63271 0.42845 0.0
H809 H 0.57498 0.58855 0.41351 0.0
H810 H 0.5264 0.56325 0.46468 0.0
H811 H 0.56686 0.60744 0.47958 0.0
H812 H 0.52642 0.51462 0.44468 0.0
H813 H 0.50711 0.59628 0.43566 0.0
H814 H 0.52057 0.64692 0.42543 0.0
H815 H 0.53211 0.62496 0.3702 0.0
H816 H 0.51921 0.57431 0.38019 0.0
H817 H 0.38067 0.40763 0.41477 0.0
H818 H 0.42469 0.44919 0.42907 0.0
H819 H 0.45737 0.48773 0.3755 0.0
H820 H 0.41239 0.44722 0.36136 0.0
H821 H 0.46774 0.53001 0.39626 0.0
H822 H 0.48687 0.44905 0.40359 0.0
H823 H 0.47637 0.39885 0.41284 0.0
H824 H 0.46875 0.41891 0.46922 0.0
H825 H 0.47884 0.46911 0.46028 0.0
C826 C 0.59672 0.61755 0.43656 0.0
C827 C 0.59466 0.62364 0.45519 0.0
C828 C 0.57328 0.5924 0.428 0.0
C829 C 0.54758 0.57266 0.43798 0.0
C830 C 0.546 0.57812 0.45673 0.0
C831 C 0.56913 0.60348 0.4652 0.0
C832 C 0.52168 0.54705 0.42878 0.0
C833 C 0.51339 0.51788 0.43417 0.0
C834 C 0.50519 0.55133 0.41477 0.0
C835 C 0.51252 0.58162 0.40871 0.0
C836 C 0.51276 0.60233 0.42137 0.0
C837 C 0.52025 0.63102 0.41561 0.0
C838 C 0.52726 0.63918 0.39718 0.0
C839 C 0.52671 0.61862 0.38447 0.0
C840 C 0.51931 0.58992 0.39017 0.0
C841 C 0.39736 0.42491 0.40606 0.0
C842 C 0.39312 0.42407 0.38693 0.0
C843 C 0.42271 0.44865 0.41424 0.0
C844 C 0.44498 0.47157 0.40342 0.0
C845 C 0.44072 0.47052 0.38426 0.0
C846 C 0.415 0.44723 0.37614 0.0
C847 C 0.47219 0.49707 0.41203 0.0
C848 C 0.48075 0.5264 0.4066 0.0
C849 C 0.48927 0.49287 0.4258 0.0
C850 C 0.48335 0.46275 0.43123 0.0
C851 C 0.48277 0.44269 0.41794 0.0
C852 C 0.47692 0.41425 0.42313 0.0
C853 C 0.47183 0.40567 0.4416 0.0
C854 C 0.47267 0.42557 0.45492 0.0
C855 C 0.47848 0.45403 0.4498 0.0
H856 H 0.46729 0.38364 0.44559 0.0
H857 H 0.53306 0.6614 0.39274 0.0
H858 H 0.95397 0.55541 0.64684 0.0
H859 H 0.95843 0.51546 0.6322 0.0
H860 H 0.99632 0.57021 0.58399 0.0
H861 H 0.99266 0.61086 0.59889 0.0
H862 H 0.93252 0.48354 0.60391 0.0
H863 H 0.04059 0.54894 0.56104 0.0
H864 H 0.08849 0.59645 0.56231 0.0
H865 H 0.08282 0.59697 0.62122 0.0
H866 H 0.0351 0.5493 0.62031 0.0
H867 H 0.93911 0.3895 0.5366 0.0
H868 H 0.94215 0.43268 0.5521 0.0
H869 H 0.01361 0.43967 0.58633 0.0
H870 H 0.01094 0.39631 0.57066 0.0
H871 H 0.02455 0.49486 0.57483 0.0
H872 H 0.94436 0.40894 0.60343 0.0
H873 H 0.89777 0.36024 0.60433 0.0
H874 H 0.85012 0.39898 0.57878 0.0
H875 H 0.89655 0.44785 0.57748 0.0
C876 C 0.96346 0.55913 0.63316 0.0
C877 C 0.97295 0.58642 0.62405 0.0
C878 C 0.96594 0.53615 0.62476 0.0
C879 C 0.97783 0.53966 0.60697 0.0
C880 C 0.98753 0.56699 0.59784 0.0
C881 C 0.98534 0.59023 0.60635 0.0
C882 C 0.97891 0.51423 0.59794 0.0
C883 C 0.9527 0.48615 0.59757 0.0
C884 C 1.00527 0.51724 0.58983 0.0
C885 C 0.03413 0.54571 0.59057 0.0
C886 C 0.04963 0.55915 0.57426 0.0
C887 C 0.07673 0.58611 0.57492 0.0
C888 C 0.08864 0.59977 0.59183 0.0
C889 C 0.07352 0.58643 0.60813 0.0
C890 C 0.04643 0.55946 0.60754 0.0
C891 C 0.95561 0.40017 0.54738 0.0
C892 C 0.9747 0.38922 0.55242 0.0
C893 C 0.95726 0.42492 0.55627 0.0
C894 C 0.97788 0.43931 0.57054 0.0
C895 C 0.99749 0.42894 0.57537 0.0
C896 C 0.99585 0.40407 0.56644 0.0
C897 C 0.97812 0.4645 0.58069 0.0
C898 C 1.00445 0.49242 0.58121 0.0
C899 C 0.95204 0.46128 0.58928 0.0
C900 C 0.92399 0.432 0.59021 0.0
C901 C 0.92399 0.40703 0.59789 0.0
C902 C 0.89761 0.3794 0.59848 0.0
C903 C 0.87102 0.3765 0.59157 0.0
C904 C 0.87074 0.40126 0.58411 0.0
C905 C 0.89708 0.42893 0.58345 0.0
H906 H 0.85062 0.35509 0.59204 0.0
H907 H 0.10961 0.62065 0.59231 0.0
H908 H 0.5585 0.95104 0.69548 0.0
H909 H 0.51802 0.95474 0.71002 0.0
H910 H 0.57543 1.0012 0.75602 0.0
H911 H 0.61653 0.99803 0.74128 0.0
H912 H 0.48931 0.93119 0.74018 0.0
H913 H 0.55193 0.04643 0.77604 0.0
H914 H 0.59714 0.09559 0.77159 0.0
H915 H 0.59298 0.08014 0.71335 0.0
H916 H 0.54754 0.0311 0.71742 0.0
H917 H 0.39595 0.94057 0.80688 0.0
H918 H 0.43952 0.94451 0.79129 0.0
H919 H 0.43871 0.00793 0.75317 0.0
H920 H 0.39502 1.00444 0.76895 0.0
H921 H 0.49579 0.02438 0.76361 0.0
H922 H 0.41071 0.93623 0.74038 0.0
H923 H 0.36397 0.88783 0.74261 0.0
H924 H 0.41065 0.8503 0.77077 0.0
H925 H 0.45761 0.89863 0.76894 0.0
C926 C 0.56272 0.96226 0.70864 0.0
C927 C 0.59087 0.97419 0.7172 0.0
C928 C 0.53942 0.96429 0.71698 0.0
C929 C 0.54351 0.97829 0.73413 0.0
C930 C 0.57173 0.99063 0.74267 0.0
C931 C 0.59522 0.98875 0.73424 0.0
C932 C 0.51778 0.97874 0.74323 0.0
C933 C 0.49085 0.95162 0.7453 0.0
C934 C 0.5194 0.00537 0.74971 0.0
C935 C 0.54652 0.03496 0.74707 0.0
C936 C 0.56061 0.05358 0.76228 0.0
C937 C 0.58629 0.08141 0.75982 0.0
C938 C 0.59799 0.09094 0.7422 0.0
C939 C 0.58397 0.07269 0.72699 0.0
C940 C 0.55828 0.04486 0.72937 0.0
C941 C 0.40498 0.95548 0.79522 0.0
C942 C 0.39174 0.97205 0.78912 0.0
C943 C 0.42996 0.95766 0.78629 0.0
C944 C 0.44226 0.97624 0.7709 0.0
C945 C 0.42962 0.99342 0.76501 0.0
C946 C 0.40455 0.9913 0.774 0.0
C947 C 0.46763 0.9768 0.76072 0.0
C948 C 0.4944 1.00402 0.75848 0.0
C949 C 0.46575 0.95034 0.75374 0.0
C950 C 0.43763 0.92113 0.75466 0.0
C951 C 0.41097 0.91771 0.74715 0.0
C952 C 0.38444 0.89028 0.74833 0.0
C953 C 0.38432 0.86603 0.75686 0.0
C954 C 0.41077 0.86912 0.76418 0.0
C955 C 0.43736 0.89652 0.76306 0.0
H956 H 0.36375 0.84481 0.75777 0.0
H957 H 0.61788 0.11248 0.74033 0.0
H958 H 0.39782 0.38437 0.93159 0.0
H959 H 0.43822 0.42712 0.91538 0.0
H960 H 0.49831 0.44063 0.96031 0.0
H961 H 0.45853 0.39777 0.97628 0.0
H962 H 0.47263 0.48526 0.92192 0.0
H963 H 0.56756 0.46334 0.9448 0.0
H964 H 0.57379 0.4208 0.95389 0.0
H965 H 0.49631 0.36134 0.92225 0.0
H966 H 0.4899 0.40358 0.91274 0.0
H967 H 0.61547 0.61248 0.90294 0.0
H968 H 0.57196 0.5705 0.91745 0.0
H969 H 0.57754 0.50979 0.8791 0.0
H970 H 0.62114 0.55139 0.86477 0.0
H971 H 0.56868 0.48714 0.91209 0.0
H972 H 0.52323 0.53004 0.87528 0.0
H973 H 0.51486 0.57002 0.86357 0.0
H974 H 0.49017 0.58309 0.91771 0.0
H975 H 0.4988 0.54345 0.9298 0.0
C976 C 0.41962 0.39655 0.93804 0.0
C977 C 0.42496 0.38741 0.95516 0.0
C978 C 0.44269 0.42104 0.92877 0.0
C979 C 0.47153 0.43689 0.93645 0.0
C980 C 0.47651 0.42845 0.95387 0.0
C981 C 0.45363 0.4039 0.96303 0.0
C982 C 0.4967 0.46168 0.92614 0.0
C983 C 0.49363 0.48567 0.91979 0.0
C984 C 0.52399 0.46207 0.92296 0.0
C985 C 0.52812 0.43661 0.9282 0.0
C986 C 0.55197 0.44122 0.93969 0.0
C987 C 0.55551 0.41715 0.94493 0.0
C988 C 0.53541 0.38838 0.9387 0.0
C989 C 0.51181 0.38363 0.92712 0.0
C990 C 0.50821 0.40762 0.92181 0.0
C991 C 0.60736 0.59021 0.89754 0.0
C992 C 0.62185 0.58541 0.88264 0.0
C993 C 0.58237 0.5662 0.90582 0.0
C994 C 0.57119 0.53689 0.8993 0.0
C995 C 0.58566 0.53211 0.88443 0.0
C996 C 0.61062 0.55603 0.87619 0.0
C997 C 0.54487 0.51106 0.90816 0.0
C998 C 0.54772 0.48682 0.91424 0.0
C999 C 0.51721 0.51016 0.91069 0.0
C1000 C 0.51194 0.53397 0.90347 0.0
C1001 C 0.51625 0.5416 0.88472 0.0
C1002 C 0.51141 0.56417 0.87801 0.0
C1003 C 0.50206 0.57914 0.8899 0.0
C1004 C 0.49745 0.57151 0.90852 0.0
C1005 C 0.50229 0.54897 0.91531 0.0
H1006 H 0.49833 0.5966 0.88468 0.0
H1007 H 0.53815 0.36977 0.94281 0.0
H1008 H 0.11785 0.31765 0.0904 0.0
H1009 H 0.15176 0.31427 0.06843 0.0
H1010 H 0.22749 0.38206 0.09834 0.0
H1011 H 0.19358 0.38592 0.12035 0.0
H1012 H 0.23658 0.3895 0.06122 0.0
H1013 H 0.20559 0.30889 0.10412 0.0
H1014 H 0.16889 0.26513 0.12177 0.0
H1015 H 0.1305 0.21758 0.07152 0.0
H1016 H 0.1667 0.26125 0.05355 0.0
H1017 H 0.34312 0.35472 0.02153 0.0
H1018 H 0.31186 0.36558 0.04176 0.0
H1019 H 0.23262 0.29426 0.01655 0.0
H1020 H 0.26355 0.28281 0.99667 0.0
H1021 H 0.22676 0.28989 0.05217 0.0
H1022 H 0.25708 0.37031 0.00911 0.0
H1023 H 0.29298 0.41425 0.99126 0.0
H1024 H 0.33227 0.46204 0.04132 0.0
H1025 H 0.29684 0.41822 0.05948 0.0
C1026 C 0.14171 0.33205 0.09229 0.0
C1027 C 0.15293 0.35189 0.1073 0.0
C1028 C 0.16112 0.33001 0.07971 0.0
C1029 C 0.19226 0.34753 0.08186 0.0
C1030 C 0.20357 0.36821 0.0964 0.0
C1031 C 0.18412 0.37034 0.10901 0.0
C1032 C 0.21284 0.34332 0.06936 0.0
C1033 C 0.23471 0.3678 0.05941 0.0
C1034 C 0.21015 0.31493 0.06671 0.0
C1035 C 0.18869 0.28844 0.07749 0.0
C1036 C 0.18921 0.28916 0.09683 0.0
C1037 C 0.1685 0.26437 0.1069 0.0
C1038 C 0.14733 0.23862 0.09777 0.0
C1039 C 0.14689 0.23756 0.07856 0.0
C1040 C 0.16752 0.26232 0.06843 0.0
C1041 C 0.31905 0.3416 0.02009 0.0
C1042 C 0.30598 0.31784 0.00741 0.0
C1043 C 0.30114 0.34789 0.03169 0.0
C1044 C 0.26974 0.33084 0.03071 0.0
C1045 C 0.25672 0.3077 0.0177 0.0
C1046 C 0.27454 0.30127 0.00622 0.0
C1047 C 0.25033 0.33599 0.04374 0.0
C1048 C 0.22871 0.31163 0.05391 0.0
C1049 C 0.25326 0.36448 0.04653 0.0
C1050 C 0.27451 0.39088 0.03565 0.0
C1051 C 0.27353 0.39011 0.01631 0.0
C1052 C 0.29376 0.41501 0.00614 0.0
C1053 C 0.31495 0.44089 0.01515 0.0
C1054 C 0.31588 0.44196 0.03436 0.0
C1055 C 0.29571 0.41711 0.0446 0.0
H1056 H 0.3306 0.46014 0.00725 0.0
H1057 H 0.13129 0.21946 0.10559 0.0
H1058 H 0.81803 0.11335 0.2603 0.0
H1059 H 0.85601 0.14885 0.23933 0.0
H1060 H 0.85248 0.22135 0.26622 0.0
H1061 H 0.81414 0.1858 0.28733 0.0
H1062 H 0.85579 0.22809 0.2286 0.0
H1063 H 0.90888 0.20869 0.27543 0.0
H1064 H 0.92092 0.17779 0.29556 0.0
H1065 H 0.94063 0.14085 0.24829 0.0
H1066 H 0.92824 0.17118 0.22784 0.0
H1067 H 0.99465 0.34115 0.18898 0.0
H1068 H 0.95334 0.30907 0.20951 0.0
H1069 H 0.9536 0.23155 0.18786 0.0
H1070 H 0.99491 0.26327 0.16754 0.0
H1071 H 0.95256 0.22983 0.22424 0.0
H1072 H 0.89778 0.24781 0.17735 0.0
H1073 H 0.88577 0.27866 0.15714 0.0
H1074 H 0.8697 0.31853 0.20439 0.0
H1075 H 0.88203 0.28818 0.22489 0.0
C1076 C 0.82515 0.13681 0.26177 0.0
C1077 C 0.81306 0.14665 0.27566 0.0
C1078 C 0.84702 0.15715 0.24976 0.0
C1079 C 0.85751 0.1879 0.25131 0.0
C1080 C 0.84487 0.19777 0.26477 0.0
C1081 C 0.82298 0.17739 0.27688 0.0
C1082 C 0.88207 0.20958 0.2391 0.0
C1083 C 0.87712 0.22878 0.22784 0.0
C1084 C 0.9098 0.21025 0.23783 0.0
C1085 C 0.91733 0.192 0.25009 0.0
C1086 C 0.91553 0.19379 0.26931 0.0
C1087 C 0.92246 0.1764 0.28078 0.0
C1088 C 0.93146 0.15731 0.27321 0.0
C1089 C 0.93361 0.15562 0.25414 0.0
C1090 C 0.92665 0.17291 0.2426 0.0
C1091 C 0.98567 0.31724 0.18839 0.0
C1092 C 0.99828 0.30493 0.17653 0.0
C1093 C 0.96196 0.29887 0.20016 0.0
C1094 C 0.95018 0.26776 0.20027 0.0
C1095 C 0.96229 0.25543 0.18814 0.0
C1096 C 0.98593 0.2737 0.17642 0.0
C1097 C 0.92615 0.24802 0.21346 0.0
C1098 C 0.93127 0.22922 0.22499 0.0
C1099 C 0.89863 0.24776 0.21494 0.0
C1100 C 0.89114 0.26596 0.20265 0.0
C1101 C 0.89193 0.26333 0.18343 0.0
C1102 C 0.88502 0.2807 0.17192 0.0
C1103 C 0.87706 0.30061 0.17948 0.0
C1104 C 0.87592 0.30313 0.19856 0.0
C1105 C 0.88284 0.28584 0.21013 0.0
H1106 H 0.87172 0.31403 0.17055 0.0
H1107 H 0.93682 0.14387 0.28211 0.0
H1108 H 0.6353 0.80967 0.4528 0.0
H1109 H 0.63606 0.84535 0.43031 0.0
H1110 H 0.71058 0.84654 0.40272 0.0
H1111 H 0.70972 0.81072 0.42489 0.0
H1112 H 0.67785 0.90173 0.4217 0.0
H1113 H 0.70727 0.85574 0.35706 0.0
H1114 H 0.69875 0.80757 0.34488 0.0
H1115 H 0.61871 0.76112 0.37711 0.0
H1116 H 0.62649 0.80902 0.38928 0.0
H1117 H 0.73413 0.98144 0.329 0.0
H1118 H 0.7231 0.93954 0.34919 0.0
H1119 H 0.64648 0.94195 0.37064 0.0
H1120 H 0.65736 0.98407 0.35047 0.0
H1121 H 0.67557 0.88315 0.35458 0.0
H1122 H 0.64418 0.92966 0.41725 0.0
H1123 H 0.65228 0.97819 0.42855 0.0
H1124 H 0.73605 0.02344 0.39983 0.0
H1125 H 0.72869 0.97518 0.38864 0.0
C1126 C 0.65177 0.81741 0.44189 0.0
C1127 C 0.67236 0.80714 0.44065 0.0
C1128 C 0.65224 0.83793 0.42907 0.0
C1129 C 0.67315 0.84848 0.41465 0.0
C1130 C 0.69386 0.83841 0.41349 0.0
C1131 C 0.6934 0.81793 0.42626 0.0
C1132 C 0.67364 0.87017 0.40087 0.0
C1133 C 0.67681 0.89739 0.40704 0.0
C1134 C 0.6728 0.8649 0.38167 0.0
C1135 C 0.66764 0.83598 0.3742 0.0
C1136 C 0.68777 0.83526 0.36148 0.0
C1137 C 0.68309 0.808 0.35459 0.0
C1138 C 0.65826 0.7813 0.36026 0.0
C1139 C 0.63799 0.78181 0.37278 0.0
C1140 C 0.64255 0.80901 0.37969 0.0
C1141 C 0.71463 0.97287 0.33779 0.0
C1142 C 0.69682 0.98647 0.33817 0.0
C1143 C 0.70833 0.94878 0.34933 0.0
C1144 C 0.68422 0.93781 0.36165 0.0
C1145 C 0.66546 0.95027 0.36143 0.0
C1146 C 0.67165 0.97432 0.3498 0.0
C1147 C 0.68002 0.91466 0.37543 0.0
C1148 C 0.67627 0.88727 0.36925 0.0
C1149 C 0.68035 0.91978 0.3946 0.0
C1150 C 0.68569 0.94881 0.40197 0.0
C1151 C 0.66442 0.94995 0.41347 0.0
C1152 C 0.66887 0.97741 0.41984 0.0
C1153 C 0.69461 1.00388 0.41486 0.0
C1154 C 0.71608 1.00293 0.40364 0.0
C1155 C 0.71178 0.97553 0.39729 0.0
H1156 H 0.69794 0.02511 0.41973 0.0
H1157 H 0.65469 0.76022 0.35493 0.0
H1158 H 0.67319 0.66032 0.5249 0.0
H1159 H 0.70355 0.64897 0.54567 0.0
H1160 H 0.78331 0.71201 0.5168 0.0
H1161 H 0.75329 0.72323 0.49593 0.0
H1162 H 0.78654 0.66375 0.52519 0.0
H1163 H 0.76187 0.72962 0.55741 0.0
H1164 H 0.72948 0.74686 0.5712 0.0
H1165 H 0.68922 0.66965 0.60611 0.0
H1166 H 0.72098 0.65165 0.59229 0.0
H1167 H 0.89888 0.69596 0.59232 0.0
H1168 H 0.86402 0.69797 0.57041 0.0
H1169 H 0.78961 0.63129 0.60165 0.0
H1170 H 0.8244 0.62923 0.62374 0.0
H1171 H 0.78114 0.67751 0.59232 0.0
H1172 H 0.80864 0.61345 0.56079 0.0
H1173 H 0.84341 0.5986 0.54781 0.0
H1174 H 0.88015 0.67462 0.51191 0.0
H1175 H 0.84588 0.69018 0.52487 0.0
C1176 C 0.69714 0.67148 0.52278 0.0
C1177 C 0.71068 0.6928 0.50869 0.0
C1178 C 0.71453 0.66512 0.53479 0.0
C1179 C 0.74586 0.67995 0.53302 0.0
C1180 C 0.75925 0.70029 0.51852 0.0
C1181 C 0.74195 0.70671 0.50657 0.0
C1182 C 0.7649 0.67505 0.54648 0.0
C1183 C 0.78548 0.667 0.53985 0.0
C1184 C 0.76326 0.67869 0.5657 0.0
C1185 C 0.74359 0.68911 0.57367 0.0
C1186 C 0.74586 0.71612 0.56787 0.0
C1187 C 0.72766 0.72607 0.57572 0.0
C1188 C 0.70734 0.70937 0.58953 0.0
C1189 C 0.70499 0.68256 0.59541 0.0
C1190 C 0.72306 0.67247 0.58757 0.0
C1191 C 0.87511 0.68154 0.59451 0.0
C1192 C 0.86452 0.66237 0.60983 0.0
C1193 C 0.85515 0.68265 0.5819 0.0
C1194 C 0.82409 0.66461 0.58424 0.0
C1195 C 0.81343 0.64542 0.5995 0.0
C1196 C 0.8334 0.64418 0.61209 0.0
C1197 C 0.80286 0.66639 0.57101 0.0
C1198 C 0.78195 0.67394 0.57768 0.0
C1199 C 0.80432 0.66249 0.55182 0.0
C1200 C 0.82485 0.65311 0.54392 0.0
C1201 C 0.82428 0.62713 0.55023 0.0
C1202 C 0.84388 0.61856 0.54285 0.0
C1203 C 0.86402 0.63569 0.52907 0.0
C1204 C 0.86455 0.66139 0.5226 0.0
C1205 C 0.84502 0.67007 0.52994 0.0
H1206 H 0.87917 0.62902 0.52338 0.0
H1207 H 0.69353 0.71726 0.59576 0.0
H1208 H 0.02563 0.74761 0.66787 0.0
H1209 H 0.06816 0.77835 0.68765 0.0
H1210 H 0.06517 0.69935 0.70939 0.0
H1211 H 0.02206 0.66813 0.6897 0.0
H1212 H 0.07085 0.73714 0.73669 0.0
H1213 H 0.121 0.7461 0.6798 0.0
H1214 H 0.13053 0.75555 0.64657 0.0
H1215 H 0.14856 0.84542 0.65405 0.0
H1216 H 0.13871 0.83638 0.68729 0.0
H1217 H 0.20614 0.8233 0.7873 0.0
H1218 H 0.16909 0.78785 0.7656 0.0
H1219 H 0.16569 0.86018 0.73839 0.0
H1220 H 0.20303 0.89571 0.75975 0.0
H1221 H 0.16518 0.82267 0.71354 0.0
H1222 H 0.11109 0.81291 0.76942 0.0
H1223 H 0.10023 0.8039 0.80257 0.0
H1224 H 0.08868 0.71608 0.79689 0.0
H1225 H 0.09988 0.72474 0.76373 0.0
C1226 C 0.03411 0.73661 0.67666 0.0
C1227 C 0.0203 0.70523 0.67705 0.0
C1228 C 0.05862 0.75434 0.68798 0.0
C1229 C 0.07021 0.7413 0.69994 0.0
C1230 C 0.05674 0.71001 0.70026 0.0
C1231 C 0.03216 0.69217 0.68888 0.0
C1232 C 0.09561 0.76042 0.71254 0.0
C1233 C 0.09171 0.75547 0.73159 0.0
C1234 C 0.12264 0.78485 0.706 0.0
C1235 C 0.1289 0.79048 0.68603 0.0
C1236 C 0.12681 0.76782 0.67434 0.0
C1237 C 0.13229 0.77311 0.65551 0.0
C1238 C 0.14009 0.80105 0.6482 0.0
C1239 C 0.1425 0.82379 0.65973 0.0
C1240 C 0.13701 0.8186 0.67857 0.0
C1241 C 0.19764 0.8317 0.77664 0.0
C1242 C 0.20755 0.86242 0.77539 0.0
C1243 C 0.17629 0.81134 0.76427 0.0
C1244 C 0.16415 0.82118 0.75044 0.0
C1245 C 0.17459 0.85192 0.7489 0.0
C1246 C 0.19595 0.87226 0.76121 0.0
C1247 C 0.1403 0.7996 0.73772 0.0
C1248 C 0.14446 0.80413 0.71864 0.0
C1249 C 0.11345 0.77487 0.74424 0.0
C1250 C 0.10666 0.7696 0.76415 0.0
C1251 C 0.10647 0.79177 0.77527 0.0
C1252 C 0.10022 0.78671 0.79406 0.0
C1253 C 0.09386 0.75947 0.80184 0.0
C1254 C 0.09367 0.7372 0.79085 0.0
C1255 C 0.09995 0.74216 0.77206 0.0
H1256 H 0.08902 0.75559 0.81639 0.0
H1257 H 0.14431 0.8051 0.63361 0.0
H1258 H 0.3612 0.02502 0.85149 0.0
H1259 H 0.37263 0.06779 0.87124 0.0
H1260 H 0.2937 0.06754 0.85156 0.0
H1261 H 0.28225 0.02514 0.83169 0.0
H1262 H 0.33992 0.12408 0.85527 0.0
H1263 H 0.29316 0.03444 0.89191 0.0
H1264 H 0.28878 0.98786 0.90398 0.0
H1265 H 0.37493 0.03782 0.92963 0.0
H1266 H 0.38007 0.08468 0.91741 0.0
H1267 H 0.31013 0.19967 0.92566 0.0
H1268 H 0.30856 0.16317 0.90377 0.0
H1269 H 0.38591 0.1676 0.92958 0.0
H1270 H 0.38728 0.20385 0.95188 0.0
H1271 H 0.34533 0.11097 0.9225 0.0
H1272 H 0.39068 0.20122 0.88747 0.0
H1273 H 0.39558 0.24751 0.87451 0.0
H1274 H 0.31266 0.19661 0.84547 0.0
H1275 H 0.30704 0.15002 0.85846 0.0
C1276 C 0.34648 0.0343 0.85114 0.0
C1277 C 0.32065 0.02135 0.84004 0.0
C1278 C 0.35298 0.0587 0.86254 0.0
C1279 C 0.33379 0.07067 0.86313 0.0
C1280 C 0.30882 0.05871 0.85142 0.0
C1281 C 0.30227 0.03433 0.84006 0.0
C1282 C 0.33869 0.09458 0.87654 0.0
C1283 C 0.34089 0.12113 0.86997 0.0
C1284 C 0.34061 0.09108 0.89573 0.0
C1285 C 0.33712 0.06304 0.9036 0.0
C1286 C 0.31123 0.03548 0.90006 0.0
C1287 C 0.30861 0.00903 0.90691 0.0
C1288 C 0.33159 0.00988 0.91753 0.0
C1289 C 0.35717 0.0372 0.92138 0.0
C1290 C 0.35995 0.06372 0.9145 0.0
C1291 C 0.32696 0.19308 0.92667 0.0
C1292 C 0.34892 0.20489 0.94055 0.0
C1293 C 0.32609 0.1722 0.91405 0.0
C1294 C 0.34736 0.16281 0.91479 0.0
C1295 C 0.36928 0.17448 0.92866 0.0
C1296 C 0.3701 0.19533 0.94137 0.0
C1297 C 0.34627 0.14048 0.90125 0.0
C1298 C 0.34469 0.11414 0.90779 0.0
C1299 C 0.34491 0.14418 0.88201 0.0
C1300 C 0.34833 0.17214 0.87406 0.0
C1301 C 0.37338 0.19991 0.87842 0.0
C1302 C 0.37631 0.2262 0.87105 0.0
C1303 C 0.35441 0.22501 0.85921 0.0
C1304 C 0.32959 0.1975 0.85466 0.0
C1305 C 0.32654 0.17114 0.862 0.0
H1306 H 0.35671 0.24539 0.85353 0.0
H1307 H 0.32955 0.98937 0.9228 0.0
H1308 H 0.72781 0.75204 0.84516 0.0
H1309 H 0.71677 0.7829 0.82508 0.0
H1310 H 0.64283 0.70396 0.80147 0.0
H1311 H 0.65419 0.67264 0.82133 0.0
H1312 H 0.6752 0.74153 0.77505 0.0
H1313 H 0.6321 0.75107 0.83092 0.0
H1314 H 0.63061 0.76067 0.86402 0.0
H1315 H 0.70306 0.85041 0.85717 0.0
H1316 H 0.70528 0.84123 0.82407 0.0
H1317 H 0.62802 0.8276 0.72292 0.0
H1318 H 0.62876 0.7924 0.74512 0.0
H1319 H 0.70492 0.86471 0.77216 0.0
H1320 H 0.70405 0.90005 0.75024 0.0
H1321 H 0.66644 0.82765 0.79708 0.0
H1322 H 0.71212 0.81682 0.74202 0.0
H1323 H 0.71458 0.80731 0.709 0.0
H1324 H 0.63758 0.71992 0.71451 0.0
H1325 H 0.63442 0.72909 0.74753 0.0
C1326 C 0.70893 0.74108 0.83589 0.0
C1327 C 0.69188 0.70969 0.83498 0.0
C1328 C 0.70255 0.75888 0.82441 0.0
C1329 C 0.67873 0.7459 0.81182 0.0
C1330 C 0.66129 0.71459 0.81107 0.0
C1331 C 0.66771 0.69668 0.82255 0.0
C1332 C 0.67309 0.76508 0.79893 0.0
C1333 C 0.67268 0.75999 0.77991 0.0
C1334 C 0.67046 0.78966 0.80515 0.0
C1335 C 0.66899 0.79538 0.82503 0.0
C1336 C 0.64784 0.7728 0.83649 0.0
C1337 C 0.64685 0.77817 0.85525 0.0
C1338 C 0.66676 0.80612 0.8627 0.0
C1339 C 0.68765 0.82877 0.85139 0.0
C1340 C 0.68877 0.8235 0.83262 0.0
C1341 C 0.64486 0.83607 0.73363 0.0
C1342 C 0.66608 0.86671 0.73468 0.0
C1343 C 0.64533 0.81585 0.7463 0.0
C1344 C 0.66716 0.82576 0.76023 0.0
C1345 C 0.68787 0.85643 0.76156 0.0
C1346 C 0.68739 0.87664 0.74894 0.0
C1347 C 0.66887 0.80426 0.77323 0.0
C1348 C 0.66861 0.80897 0.79225 0.0
C1349 C 0.67091 0.77934 0.76702 0.0
C1350 C 0.67283 0.77377 0.74719 0.0
C1351 C 0.69557 0.79567 0.73616 0.0
C1352 C 0.69712 0.79033 0.71745 0.0
C1353 C 0.6762 0.76306 0.70965 0.0
C1354 C 0.65374 0.74105 0.72056 0.0
C1355 C 0.65207 0.7463 0.73927 0.0
H1356 H 0.67743 0.75896 0.69517 0.0
H1357 H 0.66596 0.81023 0.87723 0.0
H1358 H 0.80424 0.70208 0.92021 0.0
H1359 H 0.84121 0.70403 0.94198 0.0
H1360 H 0.84408 0.633 0.91266 0.0
H1361 H 0.80678 0.63069 0.89082 0.0
H1362 H 0.84541 0.62625 0.95016 0.0
H1363 H 0.8981 0.70392 0.90593 0.0
H1364 H 0.90816 0.74793 0.88745 0.0
H1365 H 0.92184 0.7989 0.93678 0.0
H1366 H 0.91141 0.75503 0.95558 0.0
H1367 H 0.98555 0.65444 0.98899 0.0
H1368 H 0.94351 0.64502 0.96902 0.0
H1369 H 0.94058 0.71952 0.9935 0.0
H1370 H 0.98275 0.72942 0.01317 0.0
H1371 H 0.93935 0.72305 0.95756 0.0
H1372 H 0.8863 0.64547 1.00194 0.0
H1373 H 0.87574 0.60141 0.02053 0.0
H1374 H 0.86276 0.55038 0.97131 0.0
H1375 H 0.87363 0.59428 0.95241 0.0
C1376 C 0.81251 0.68667 0.91842 0.0
C1377 C 0.80264 0.66637 0.90363 0.0
C1378 C 0.83377 0.68789 0.93088 0.0
C1379 C 0.84581 0.66896 0.92884 0.0
C1380 C 0.83522 0.6479 0.91451 0.0
C1381 C 0.81394 0.64668 0.90198 0.0
C1382 C 0.87023 0.67201 0.94127 0.0
C1383 C 0.86612 0.6473 0.95161 0.0
C1384 C 0.89711 0.69959 0.94343 0.0
C1385 C 0.9037 0.7261 0.93216 0.0
C1386 C 0.90304 0.72445 0.91284 0.0
C1387 C 0.90884 0.74938 0.90231 0.0
C1388 C 0.91555 0.77617 0.91093 0.0
C1389 C 0.91659 0.77812 0.93012 0.0
C1390 C 0.91076 0.75324 0.94072 0.0
C1391 C 0.97569 0.66856 0.99033 0.0
C1392 C 0.98773 0.69275 1.00273 0.0
C1393 C 0.95156 0.66311 0.97889 0.0
C1394 C 0.9387 0.68151 0.97972 0.0
C1395 C 0.95012 0.70506 0.99248 0.0
C1396 C 0.97424 0.7106 1.00382 0.0
C1397 C 0.91444 0.6774 0.96675 0.0
C1398 C 0.91866 0.70195 0.95618 0.0
C1399 C 0.88771 0.64969 0.96444 0.0
C1400 C 0.88109 0.62325 0.97576 0.0
C1401 C 0.88143 0.62492 0.99508 0.0
C1402 C 0.87534 0.59997 0.00567 0.0
C1403 C 0.86867 0.57314 0.99711 0.0
C1404 C 0.86798 0.57119 0.97793 0.0
C1405 C 0.87408 0.59609 0.96727 0.0
H1406 H 0.86396 0.55384 0.00533 0.0
H1407 H 0.92002 0.79544 0.90276 0.0
H1408 H 0.33696 0.98151 0.15905 0.0
H1409 H 0.30578 0.93907 0.13903 0.0
H1410 H 0.22707 0.94004 0.15783 0.0
H1411 H 0.25791 0.98238 0.17783 0.0
H1412 H 0.21751 0.88256 0.15433 0.0
H1413 H 0.25887 0.97302 0.11844 0.0
H1414 H 0.30074 0.02028 0.10685 0.0
H1415 H 0.33839 0.97219 0.08057 0.0
H1416 H 0.297 0.92465 0.09231 0.0
H1417 H 0.11211 0.80768 0.08406 0.0
H1418 H 0.14705 0.84385 0.10606 0.0
H1419 H 0.22023 0.8412 0.0793 0.0
H1420 H 0.18528 0.80524 0.05685 0.0
H1421 H 0.23568 0.89752 0.08713 0.0
H1422 H 0.19262 0.80655 0.12116 0.0
H1423 H 0.15207 0.75942 0.13382 0.0
H1424 H 0.11858 0.80788 0.16409 0.0
H1425 H 0.15869 0.85531 0.1514 0.0
C1426 C 0.31298 0.97249 0.15915 0.0
C1427 C 0.30006 0.98561 0.17004 0.0
C1428 C 0.29518 0.94825 0.14762 0.0
C1429 C 0.26408 0.93655 0.14675 0.0
C1430 C 0.25099 0.94867 0.15823 0.0
C1431 C 0.26874 0.973 0.16966 0.0
C1432 C 0.2453 0.91283 0.13321 0.0
C1433 C 0.22133 0.88589 0.13963 0.0
C1434 C 0.2507 0.91687 0.11404 0.0
C1435 C 0.27499 0.9453 0.1064 0.0
C1436 C 0.27615 0.97253 0.11026 0.0
C1437 C 0.2998 0.99937 0.10368 0.0
C1438 C 0.32225 0.99924 0.09302 0.0
C1439 C 0.321 0.97225 0.08885 0.0
C1440 C 0.29745 0.94535 0.09546 0.0
C1441 C 0.1356 0.81458 0.08284 0.0
C1442 C 0.14579 0.80335 0.06866 0.0
C1443 C 0.15561 0.83527 0.09554 0.0
C1444 C 0.18634 0.84507 0.09457 0.0
C1445 C 0.19666 0.83399 0.0804 0.0
C1446 C 0.1766 0.8133 0.06761 0.0
C1447 C 0.20753 0.8672 0.10821 0.0
C1448 C 0.23196 0.89395 0.10182 0.0
C1449 C 0.2026 0.86294 0.12744 0.0
C1450 C 0.17855 0.83448 0.13521 0.0
C1451 C 0.17649 0.80715 0.13042 0.0
C1452 C 0.1536 0.78038 0.13762 0.0
C1453 C 0.13272 0.78065 0.14972 0.0
C1454 C 0.13475 0.80771 0.1547 0.0
C1455 C 0.15759 0.83454 0.14753 0.0
H1456 H 0.11501 0.7599 0.15528 0.0
H1457 H 0.34058 0.02004 0.08797 0.0
H1458 H 0.39526 0.17256 0.2374 0.0
H1459 H 0.39321 0.20729 0.25973 0.0
H1460 H 0.29691 0.15651 0.25867 0.0
H1461 H 0.29874 0.12132 0.23691 0.0
H1462 H 0.32614 0.22385 0.25514 0.0
H1463 H 0.3223 0.14406 0.29249 0.0
H1464 H 0.34125 0.11122 0.30296 0.0
H1465 H 0.42378 0.18775 0.31972 0.0
H1466 H 0.40546 0.22107 0.30905 0.0
H1467 H 0.29019 0.25794 0.34995 0.0
H1468 H 0.30021 0.2261 0.32973 0.0
H1469 H 0.36966 0.30402 0.3026 0.0
H1470 H 0.3604 0.33615 0.32301 0.0
H1471 H 0.35538 0.2241 0.32025 0.0
H1472 H 0.3544 0.28796 0.25692 0.0
H1473 H 0.33535 0.32135 0.24759 0.0
H1474 H 0.26015 0.27488 0.28372 0.0
H1475 H 0.27877 0.24131 0.29322 0.0
C1476 C 0.37367 0.16885 0.24191 0.0
C1477 C 0.34718 0.1441 0.23544 0.0
C1478 C 0.37254 0.1887 0.25466 0.0
C1479 C 0.34489 0.18453 0.26081 0.0
C1480 C 0.31846 0.16022 0.25406 0.0
C1481 C 0.31958 0.14002 0.2417 0.0
C1482 C 0.34334 0.20489 0.2747 0.0
C1483 C 0.33273 0.22402 0.26933 0.0
C1484 C 0.35172 0.20504 0.29326 0.0
C1485 C 0.36266 0.18505 0.29977 0.0
C1486 C 0.3446 0.15389 0.29823 0.0
C1487 C 0.3552 0.13519 0.30424 0.0
C1488 C 0.38374 0.14739 0.31195 0.0
C1489 C 0.4017 0.17833 0.31371 0.0
C1490 C 0.39122 0.19713 0.30769 0.0
C1491 C 0.30806 0.26842 0.33996 0.0
C1492 C 0.32432 0.29972 0.33809 0.0
C1493 C 0.31378 0.25012 0.32843 0.0
C1494 C 0.33553 0.26267 0.31458 0.0
C1495 C 0.35271 0.29387 0.31317 0.0
C1496 C 0.34735 0.31221 0.32489 0.0
C1497 C 0.33841 0.24316 0.30064 0.0
C1498 C 0.34917 0.22417 0.306 0.0
C1499 C 0.33011 0.24307 0.28208 0.0
C1500 C 0.31807 0.26228 0.27583 0.0
C1501 C 0.33372 0.2848 0.26277 0.0
C1502 C 0.32306 0.30383 0.25751 0.0
C1503 C 0.29664 0.30035 0.26512 0.0
C1504 C 0.28072 0.27771 0.27792 0.0
C1505 C 0.29133 0.25871 0.28326 0.0
H1506 H 0.28848 0.31515 0.26108 0.0
H1507 H 0.3919 0.13288 0.3166 0.0
H1508 H 0.18166 0.30664 0.39545 0.0
H1509 H 0.14185 0.30373 0.41504 0.0
H1510 H 0.20533 0.38612 0.44158 0.0
H1511 H 0.24464 0.39009 0.42101 0.0
H1512 H 0.12944 0.29577 0.4476 0.0
H1513 H 0.17352 0.42201 0.46109 0.0
H1514 H 0.20189 0.47014 0.44491 0.0
H1515 H 0.17529 0.425 0.39286 0.0
H1516 H 0.14647 0.37667 0.40872 0.0
H1517 H 0.04345 0.29962 0.52033 0.0
H1518 H 0.08633 0.31032 0.50112 0.0
H1519 H 0.05982 0.35579 0.46221 0.0
H1520 H 0.01817 0.3471 0.48215 0.0
H1521 H 0.11555 0.38204 0.46119 0.0
H1522 H 0.04241 0.27916 0.45774 0.0
H1523 H 1.00751 0.22841 0.46897 0.0
H1524 H 0.0809 0.22229 0.49195 0.0
H1525 H 0.11621 0.27324 0.48115 0.0
C1526 C 0.18703 0.32428 0.40536 0.0
C1527 C 0.21625 0.34872 0.40658 0.0
C1528 C 0.16424 0.32256 0.41665 0.0
C1529 C 0.17017 0.34488 0.42979 0.0
C1530 C 0.19964 0.36901 0.43127 0.0
C1531 C 0.22226 0.37118 0.41957 0.0
C1532 C 0.1457 0.34236 0.44215 0.0
C1533 C 0.1265 0.31472 0.45048 0.0
C1534 C 0.14102 0.36671 0.44578 0.0
C1535 C 0.15812 0.3957 0.43611 0.0
C1536 C 0.17366 0.42238 0.4462 0.0
C1537 C 0.18982 0.44969 0.43708 0.0
C1538 C 0.19048 0.45061 0.41787 0.0
C1539 C 0.17487 0.42424 0.40773 0.0
C1540 C 0.15864 0.39688 0.41678 0.0
C1541 C 0.04704 0.31241 0.50787 0.0
C1542 C 0.02703 0.32216 0.50273 0.0
C1543 C 0.07148 0.31825 0.49673 0.0
C1544 C 0.07594 0.33297 0.47977 0.0
C1545 C 0.05691 0.34414 0.47509 0.0
C1546 C 0.03293 0.33907 0.48653 0.0
C1547 C 0.09953 0.33554 0.46665 0.0
C1548 C 0.11856 0.36315 0.45824 0.0
C1549 C 0.10311 0.31077 0.46219 0.0
C1550 C 0.08194 0.28013 0.46877 0.0
C1551 C 0.05109 0.26708 0.4653 0.0
C1552 C 0.03123 0.23827 0.47158 0.0
C1553 C 0.04199 0.22214 0.48116 0.0
C1554 C 0.07261 0.23482 0.48453 0.0
C1555 C 0.09255 0.26367 0.47834 0.0
H1556 H 0.02662 0.19978 0.48592 0.0
H1557 H 0.20303 0.47177 0.41084 0.0
H1558 H 0.90295 0.2032 0.58404 0.0
H1559 H 0.86708 0.16528 0.60492 0.0
H1560 H 0.79418 0.16034 0.57315 0.0
H1561 H 0.83005 0.19874 0.55227 0.0
H1562 H 0.78228 0.15797 0.60945 0.0
H1563 H 0.81468 0.10726 0.56865 0.0
H1564 H 0.85113 0.09816 0.55217 0.0
H1565 H 0.88538 0.08724 0.60363 0.0
H1566 H 0.84944 0.09673 0.62043 0.0
H1567 H 0.67304 0.01723 0.6494 0.0
H1568 H 0.70496 0.05837 0.6287 0.0
H1569 H 0.78331 0.06911 0.65683 0.0
H1570 H 0.75186 0.02809 0.67731 0.0
H1571 H 0.78998 0.06748 0.62081 0.0
H1572 H 0.75818 0.11972 0.66159 0.0
H1573 H 0.72133 0.12848 0.67783 0.0
H1574 H 0.68509 0.13555 0.62614 0.0
H1575 H 0.7215 0.12643 0.60958 0.0
C1576 C 0.8793 0.19421 0.58149 0.0
C1577 C 0.86946 0.20396 0.56633 0.0
C1578 C 0.85876 0.17236 0.59344 0.0
C1579 C 0.82782 0.15948 0.59049 0.0
C1580 C 0.81789 0.1698 0.57571 0.0
C1581 C 0.83847 0.19173 0.56373 0.0
C1582 C 0.80602 0.13485 0.60263 0.0
C1583 C 0.78372 0.138 0.61173 0.0
C1584 C 0.80798 0.10886 0.60586 0.0
C1585 C 0.82955 0.10299 0.5958 0.0
C1586 C 0.83014 0.10315 0.57645 0.0
C1587 C 0.85069 0.09789 0.56706 0.0
C1588 C 0.87061 0.09221 0.57685 0.0
C1589 C 0.86997 0.09169 0.59606 0.0
C1590 C 0.8495 0.09699 0.60553 0.0
C1591 C 0.69703 0.02864 0.65138 0.0
C1592 C 0.70973 0.01917 0.6651 0.0
C1593 C 0.71531 0.05222 0.6395 0.0
C1594 C 0.74666 0.06699 0.64116 0.0
C1595 C 0.75926 0.05807 0.65516 0.0
C1596 C 0.74111 0.03458 0.66696 0.0
C1597 C 0.7666 0.09082 0.62794 0.0
C1598 C 0.7885 0.08743 0.61854 0.0
C1599 C 0.76416 0.11648 0.62442 0.0
C1600 C 0.74235 0.12208 0.63435 0.0
C1601 C 0.7422 0.12291 0.65369 0.0
C1602 C 0.72142 0.12798 0.66295 0.0
C1603 C 0.70082 0.13248 0.65303 0.0
C1604 C 0.70102 0.13201 0.63381 0.0
C1605 C 0.72174 0.12692 0.62448 0.0
H1606 H 0.68475 0.1364 0.66022 0.0
H1607 H 0.88651 0.08814 0.56955 0.0
H1608 H 0.26724 0.32148 0.30125 0.0
H1609 H 0.23832 0.31466 0.27326 0.0
H1610 H 0.17278 0.32441 0.30473 0.0
H1611 H 0.20084 0.32918 0.33304 0.0
H1612 H 0.14578 0.28668 0.27776 0.0
H1613 H 0.23259 0.38485 0.28192 0.0
H1614 H 0.28658 0.41917 0.28654 0.0
H1615 H 0.30611 0.38379 0.23842 0.0
H1616 H 0.25221 0.34896 0.23366 0.0
H1617 H 0.09744 0.35326 0.21111 0.0
H1618 H 0.12192 0.34485 0.23723 0.0
H1619 H 0.16649 0.31406 0.20059 0.0
H1620 H 0.14154 0.32198 0.17415 0.0
H1621 H 0.20426 0.35884 0.22846 0.0
H1622 H 0.11422 0.26392 0.22319 0.0
H1623 H 0.05977 0.23075 0.22003 0.0
H1624 H 0.04569 0.26276 0.27145 0.0
H1625 H 0.10007 0.29654 0.27476 0.0
C1626 C 0.24634 0.32158 0.3022 0.0
C1627 C 0.23632 0.32614 0.31918 0.0
C1628 C 0.22991 0.31785 0.28621 0.0
C1629 C 0.20384 0.31998 0.28677 0.0
C1630 C 0.19292 0.32289 0.30392 0.0
C1631 C 0.20895 0.32568 0.32006 0.0
C1632 C 0.18942 0.32159 0.26942 0.0
C1633 C 0.15854 0.30259 0.26705 0.0
C1634 C 0.20612 0.34211 0.25528 0.0
C1635 C 0.23839 0.36421 0.25748 0.0
C1636 C 0.24841 0.38443 0.27231 0.0
C1637 C 0.27898 0.40392 0.27498 0.0
C1638 C 0.29976 0.40363 0.26279 0.0
C1639 C 0.28998 0.38399 0.24784 0.0
C1640 C 0.25942 0.3644 0.24513 0.0
C1641 C 0.11241 0.34466 0.20852 0.0
C1642 C 0.11754 0.33828 0.19051 0.0
C1643 C 0.1263 0.33979 0.2235 0.0
C1644 C 0.14587 0.32873 0.22082 0.0
C1645 C 0.15138 0.32257 0.20289 0.0
C1646 C 0.13705 0.327 0.18785 0.0
C1647 C 0.16068 0.32404 0.23691 0.0
C1648 C 0.19162 0.34267 0.23908 0.0
C1649 C 0.14395 0.30355 0.25097 0.0
C1650 C 0.11124 0.28295 0.24915 0.0
C1651 C 0.09951 0.26407 0.23376 0.0
C1652 C 0.06865 0.24513 0.23195 0.0
C1653 C 0.04927 0.24469 0.24551 0.0
C1654 C 0.06073 0.26314 0.26094 0.0
C1655 C 0.09158 0.28217 0.2628 0.0
H1656 H 0.02539 0.23002 0.24409 0.0
H1657 H 0.32343 0.41864 0.26492 0.0
H1658 H 0.92022 0.26679 0.46661 0.0
H1659 H 0.89555 0.23489 0.44037 0.0
H1660 H 0.87298 0.15698 0.47312 0.0
H1661 H 0.89835 0.1891 0.49979 0.0
H1662 H 0.88961 0.15288 0.43609 0.0
H1663 H 0.82197 0.1753 0.46822 0.0
H1664 H 0.80675 0.20838 0.48328 0.0
H1665 H 0.81845 0.25519 0.43245 0.0
H1666 H 0.83426 0.22273 0.41716 0.0
H1667 H 0.74384 0.08483 0.37644 0.0
H1668 H 0.77256 0.10693 0.4042 0.0
H1669 H 0.85448 0.14387 0.37303 0.0
H1670 H 0.82563 0.12122 0.34486 0.0
H1671 H 0.80622 0.16417 0.41125 0.0
H1672 H 0.91085 0.15127 0.40293 0.0
H1673 H 0.92451 0.11638 0.38873 0.0
H1674 H 0.83377 0.04494 0.39382 0.0
H1675 H 0.81967 0.07926 0.40831 0.0
C1676 C 0.91029 0.24291 0.46835 0.0
C1677 C 0.9109 0.23052 0.48548 0.0
C1678 C 0.89623 0.22469 0.45324 0.0
C1679 C 0.88209 0.19358 0.45486 0.0
C1680 C 0.88377 0.18099 0.47162 0.0
C1681 C 0.8981 0.19934 0.48685 0.0
C1682 C 0.86361 0.17466 0.43938 0.0
C1683 C 0.8713 0.15519 0.43066 0.0
C1684 C 0.83947 0.17743 0.43248 0.0
C1685 C 0.82948 0.19669 0.44157 0.0
C1686 C 0.82148 0.19277 0.46028 0.0
C1687 C 0.81274 0.2114 0.46886 0.0
C1688 C 0.81166 0.23388 0.45883 0.0
C1689 C 0.8193 0.23776 0.4402 0.0
C1690 C 0.82813 0.21924 0.43157 0.0
C1691 C 0.76797 0.09749 0.37536 0.0
C1692 C 0.78239 0.1015 0.35829 0.0
C1693 C 0.78438 0.11012 0.39133 0.0
C1694 C 0.81565 0.1271 0.39074 0.0
C1695 C 0.83033 0.1306 0.37385 0.0
C1696 C 0.81384 0.11777 0.35775 0.0
C1697 C 0.83238 0.14257 0.40766 0.0
C1698 C 0.8244 0.1616 0.41666 0.0
C1699 C 0.85582 0.13892 0.41491 0.0
C1700 C 0.86417 0.11795 0.40654 0.0
C1701 C 0.89385 0.12809 0.4011 0.0
C1702 C 0.90166 0.10841 0.39299 0.0
C1703 C 0.88 0.07849 0.39032 0.0
C1704 C 0.85051 0.06815 0.39583 0.0
C1705 C 0.84259 0.08772 0.40397 0.0
H1706 H 0.88609 0.0633 0.38401 0.0
H1707 H 0.80484 0.24826 0.46548 0.0
H1708 H 0.72269 0.90848 0.66185 0.0
H1709 H 0.73136 0.88463 0.63506 0.0
H1710 H 0.64504 0.86257 0.61328 0.0
H1711 H 0.63662 0.88687 0.63928 0.0
H1712 H 0.65939 0.81389 0.61467 0.0
H1713 H 0.6986 0.91771 0.59574 0.0
H1714 H 0.7329 0.97186 0.59912 0.0
H1715 H 0.80838 0.95859 0.59432 0.0
H1716 H 0.77445 0.90425 0.59122 0.0
H1717 H 0.63614 0.77203 0.52385 0.0
H1718 H 0.64329 0.80028 0.55207 0.0
H1719 H 0.73745 0.82898 0.55133 0.0
H1720 H 0.73039 0.80131 0.52248 0.0
H1721 H 0.72855 0.87297 0.56426 0.0
H1722 H 0.68962 0.77022 0.5776 0.0
H1723 H 0.65569 0.71614 0.5741 0.0
H1724 H 0.58136 0.72602 0.59087 0.0
H1725 H 0.61467 0.78037 0.59392 0.0
C1726 C 0.70552 0.89839 0.65139 0.0
C1727 C 0.67882 0.8994 0.65285 0.0
C1728 C 0.71056 0.88489 0.6361 0.0
C1729 C 0.68877 0.87183 0.62227 0.0
C1730 C 0.66205 0.87241 0.62387 0.0
C1731 C 0.65727 0.88631 0.63883 0.0
C1732 C 0.69324 0.85754 0.60587 0.0
C1733 C 0.67454 0.82672 0.60364 0.0
C1734 C 0.7137 0.87426 0.5918 0.0
C1735 C 0.73401 0.9069 0.59351 0.0
C1736 C 0.7225 0.9263 0.5956 0.0
C1737 C 0.74187 0.95704 0.59742 0.0
C1738 C 0.7728 0.96865 0.597 0.0
C1739 C 0.78442 0.94956 0.59469 0.0
C1740 C 0.76513 0.91879 0.5929 0.0
C1741 C 0.6584 0.78458 0.52958 0.0
C1742 C 0.68261 0.78414 0.52116 0.0
C1743 C 0.6625 0.80069 0.54574 0.0
C1744 C 0.69076 0.81602 0.55415 0.0
C1745 C 0.7154 0.81709 0.54519 0.0
C1746 C 0.71136 0.80134 0.52872 0.0
C1747 C 0.69374 0.82934 0.57271 0.0
C1748 C 0.71386 0.8599 0.5754 0.0
C1749 C 0.67474 0.8123 0.58736 0.0
C1750 C 0.65468 0.77946 0.58592 0.0
C1751 C 0.66601 0.76092 0.58045 0.0
C1752 C 0.64686 0.73019 0.57853 0.0
C1753 C 0.61639 0.71761 0.58232 0.0
C1754 C 0.60498 0.73578 0.58797 0.0
C1755 C 0.62399 0.76657 0.58978 0.0
H1756 H 0.6016 0.6938 0.58089 0.0
H1757 H 0.78777 0.99245 0.59841 0.0
H1758 H 0.89178 0.70503 0.6792 0.0
H1759 H 0.86736 0.71198 0.70616 0.0
H1760 H 0.88172 0.64853 0.73647 0.0
H1761 H 0.90546 0.64107 0.70978 0.0
H1762 H 0.82669 0.63798 0.74186 0.0
H1763 H 0.92568 0.72428 0.74293 0.0
H1764 H 0.96835 0.76962 0.72998 0.0
H1765 H 0.91337 0.80982 0.72429 0.0
H1766 H 0.87023 0.7645 0.73696 0.0
H1767 H 0.81158 0.67147 0.83446 0.0
H1768 H 0.84022 0.6756 0.80648 0.0
H1769 H 0.79144 0.70981 0.77676 0.0
H1770 H 0.76201 0.70456 0.80447 0.0
H1771 H 0.86242 0.73736 0.77048 0.0
H1772 H 0.76289 0.64949 0.76783 0.0
H1773 H 0.72087 0.60447 0.78155 0.0
H1774 H 0.77824 0.56772 0.79063 0.0
H1775 H 0.8208 0.6129 0.7773 0.0
C1776 C 0.88967 0.69252 0.69159 0.0
C1777 C 0.90061 0.67248 0.69225 0.0
C1778 C 0.87582 0.69662 0.70702 0.0
C1779 C 0.87289 0.68092 0.72339 0.0
C1780 C 0.88363 0.66083 0.724 0.0
C1781 C 0.89732 0.65667 0.70866 0.0
C1782 C 0.85861 0.68508 0.74001 0.0
C1783 C 0.83471 0.65973 0.74812 0.0
C1784 C 0.86866 0.71349 0.7481 0.0
C1785 C 0.89466 0.74088 0.74071 0.0
C1786 C 0.92264 0.74271 0.7388 0.0
C1787 C 0.94691 0.76841 0.73152 0.0
C1788 C 0.94355 0.79255 0.72626 0.0
C1789 C 0.91593 0.79108 0.72834 0.0
C1790 C 0.89156 0.7654 0.73557 0.0
C1791 C 0.80769 0.68067 0.82207 0.0
C1792 C 0.78491 0.68791 0.82149 0.0
C1793 C 0.82393 0.68298 0.80615 0.0
C1794 C 0.81792 0.6931 0.78965 0.0
C1795 C 0.79652 0.70223 0.78942 0.0
C1796 C 0.77977 0.69919 0.80518 0.0
C1797 C 0.83098 0.69029 0.7722 0.0
C1798 C 0.85448 0.71576 0.76404 0.0
C1799 C 0.82066 0.66205 0.76401 0.0
C1800 C 0.79508 0.63469 0.77177 0.0
C1801 C 0.76661 0.63194 0.77292 0.0
C1802 C 0.74268 0.60638 0.78058 0.0
C1803 C 0.74688 0.58325 0.78694 0.0
C1804 C 0.77502 0.58566 0.78567 0.0
C1805 C 0.79906 0.61124 0.77808 0.0
H1806 H 0.72832 0.56347 0.79286 0.0
H1807 H 0.96236 0.81243 0.72062 0.0
H1808 H 0.19397 0.87625 0.84328 0.0
H1809 H 0.16425 0.85201 0.8708 0.0
H1810 H 0.24136 0.90548 0.90494 0.0
H1811 H 0.2712 0.92879 0.87763 0.0
H1812 H 0.2168 0.85145 0.91603 0.0
H1813 H 0.17976 0.91729 0.90127 0.0
H1814 H 0.15784 0.94014 0.88151 0.0
H1815 H 0.07824 0.85492 0.87494 0.0
H1816 H 0.09988 0.83145 0.89444 0.0
H1817 H 0.13772 0.81668 1.00171 0.0
H1818 H 0.16315 0.84696 0.97447 0.0
H1819 H 0.10144 0.77554 0.93922 0.0
H1820 H 0.07658 0.74493 0.96623 0.0
H1821 H 0.11731 0.83987 0.92954 0.0
H1822 H 0.15806 0.77448 0.94158 0.0
H1823 H 0.17998 0.75232 0.9619 0.0
H1824 H 0.25309 0.83968 0.97452 0.0
H1825 H 0.23138 0.86235 0.95432 0.0
C1826 C 0.20444 0.88295 0.85668 0.0
C1827 C 0.23496 0.90428 0.85826 0.0
C1828 C 0.18743 0.86919 0.87242 0.0
C1829 C 0.20047 0.87703 0.89003 0.0
C1830 C 0.23077 0.89886 0.89156 0.0
C1831 C 0.24783 0.91222 0.87589 0.0
C1832 C 0.18315 0.86171 0.90685 0.0
C1833 C 0.19528 0.84944 0.91904 0.0
C1834 C 0.15477 0.85848 0.91077 0.0
C1835 C 0.14157 0.87256 0.89918 0.0
C1836 C 0.15767 0.90338 0.89551 0.0
C1837 C 0.14528 0.91645 0.88436 0.0
C1838 C 0.1167 0.89898 0.87694 0.0
C1839 C 0.1004 0.86842 0.88068 0.0
C1840 C 0.11271 0.85522 0.89179 0.0
C1841 C 0.1294 0.80765 0.98815 0.0
C1842 C 0.10537 0.77842 0.98605 0.0
C1843 C 0.14387 0.82492 0.97264 0.0
C1844 C 0.13404 0.81343 0.95489 0.0
C1845 C 0.1092 0.78481 0.95281 0.0
C1846 C 0.09521 0.76731 0.96824 0.0
C1847 C 0.15122 0.83008 0.93848 0.0
C1848 C 0.13899 0.84234 0.92644 0.0
C1849 C 0.17962 0.83361 0.93471 0.0
C1850 C 0.19295 0.8201 0.94663 0.0
C1851 C 0.17868 0.78896 0.94881 0.0
C1852 C 0.19109 0.77631 0.96028 0.0
C1853 C 0.21784 0.79459 0.96959 0.0
C1854 C 0.23233 0.82555 0.96734 0.0
C1855 C 0.22002 0.83831 0.95586 0.0
H1856 H 0.22739 0.78475 0.9785 0.0
H1857 H 0.10715 0.90914 0.86831 0.0
H1858 H 0.32842 0.1359 0.16582 0.0
H1859 H 0.32384 0.15953 0.13778 0.0
H1860 H 0.33658 0.09723 0.10486 0.0
H1861 H 0.34271 0.07472 0.13276 0.0
H1862 H 0.36793 0.14821 0.09089 0.0
H1863 H 0.26633 0.09433 0.11061 0.0
H1864 H 0.22423 0.07777 0.13226 0.0
H1865 H 0.24127 0.16773 0.1369 0.0
H1866 H 0.28382 0.18493 0.11551 0.0
H1867 H 0.3247 0.19014 0.007 0.0
H1868 H 0.31916 0.15896 0.0339 0.0
H1869 H 0.3385 0.2328 0.06985 0.0
H1870 H 0.34477 0.26415 0.04319 0.0
H1871 H 0.28755 0.17271 0.08072 0.0
H1872 H 0.39306 0.22541 0.06357 0.0
H1873 H 0.43421 0.24057 0.04137 0.0
H1874 H 0.406 0.14857 0.03059 0.0
H1875 H 0.36455 0.13288 0.05274 0.0
C1876 C 0.33007 0.12722 0.15258 0.0
C1877 C 0.33606 0.10359 0.15147 0.0
C1878 C 0.32726 0.14059 0.13654 0.0
C1879 C 0.32946 0.12997 0.1191 0.0
C1880 C 0.33491 0.10599 0.11807 0.0
C1881 C 0.33838 0.09309 0.13406 0.0
C1882 C 0.3274 0.14457 0.10192 0.0
C1883 C 0.34996 0.15296 0.08861 0.0
C1884 C 0.30423 0.15126 0.09886 0.0
C1885 C 0.27843 0.14096 0.11157 0.0
C1886 C 0.26122 0.11062 0.11634 0.0
C1887 C 0.23727 0.10112 0.12856 0.0
C1888 C 0.23012 0.1217 0.13598 0.0
C1889 C 0.24686 0.15182 0.13115 0.0
C1890 C 0.27088 0.16146 0.11897 0.0
C1891 C 0.32743 0.19956 0.02065 0.0
C1892 C 0.33539 0.22961 0.02301 0.0
C1893 C 0.32427 0.18178 0.03597 0.0
C1894 C 0.3284 0.19364 0.05381 0.0
C1895 C 0.3351 0.22323 0.05619 0.0
C1896 C 0.33888 0.24115 0.04094 0.0
C1897 C 0.32796 0.17609 0.07001 0.0
C1898 C 0.30511 0.16737 0.08307 0.0
C1899 C 0.35052 0.16864 0.07276 0.0
C1900 C 0.37556 0.17799 0.05962 0.0
C1901 C 0.39551 0.20842 0.05636 0.0
C1902 C 0.4189 0.21711 0.0438 0.0
C1903 C 0.42262 0.19555 0.03447 0.0
C1904 C 0.40305 0.16524 0.03779 0.0
C1905 C 0.37964 0.15644 0.05037 0.0
H1906 H 0.44073 0.20233 0.02474 0.0
H1907 H 0.21157 0.1143 0.14544 0.0
loop_
_geom_bond_atom_site_label_1
_geom_bond_atom_site_label_2
_geom_bond_distance
_geom_bond_site_symmetry_2
_ccdc_geom_bond_type
Co0 O2 2.143 . S
Co0 O8 2.074 . S
Co0 O11 2.093 . S
Co0 O24 2.097 . S
Co0 N41 2.151 . S
Co0 N49 2.214 . S
Co1 O2 2.160 . S
Co1 O7 2.058 . S
Co1 O17 2.057 . S
Co1 O32 2.037 . S
Co1 N36 2.145 . S
Co1 N57 2.257 . S
O2 Co0 2.143 . S
O2 Co1 2.160 . S
C3 O4 1.278 . S
C3 O11 1.224 . S
O4 C3 1.278 . S
C5 O6 1.245 . S
C5 O17 1.232 . S
O6 C5 1.245 . S
O7 Co1 2.058 . S
O7 C33 1.269 . S
O8 Co0 2.074 . S
O8 C33 1.257 . S
H9 C34 0.930 . S
H10 C40 0.930 . S
O11 Co0 2.093 . S
O11 C3 1.224 . S
H12 C44 0.929 . S
H13 C46 0.930 . S
H14 C47 0.930 . S
H15 C45 0.929 . S
H16 C48 0.928 . S
O17 Co1 2.057 . S
O17 C5 1.232 . S
H18 C37 0.929 . S
H19 C38 0.929 . S
H20 C50 0.931 . S
H21 C42 0.929 . S
H22 C51 0.930 . S
H23 C43 0.931 1_655 S
O24 Co0 2.097 . S
O24 C52 1.214 . S
H25 C53 0.929 . S
H26 C54 0.929 . S
H27 C55 0.930 . S
H28 C56 0.929 . S
H29 C58 0.930 . S
H30 C35 0.930 . S
H31 C39 0.930 . S
O32 Co1 2.037 . S
O32 C52 1.234 . S
C33 O7 1.269 . S
C33 O8 1.257 . S
C34 H9 0.930 . S
C34 C37 1.388 . S
C34 C39 1.418 . S
C35 H30 0.930 . S
C35 C38 1.404 . S
C35 C39 1.353 . S
N36 Co1 2.145 . S
N36 C37 1.397 . S
N36 C38 1.334 . S
C37 H18 0.929 . S
C37 C34 1.388 . S
C37 N36 1.397 . S
C38 H19 0.929 . S
C38 C35 1.404 . S
C38 N36 1.334 . S
C39 H31 0.930 . S
C39 C34 1.418 . S
C39 C35 1.353 . S
C40 H10 0.930 . S
C40 N41 1.330 . S
C40 C42 1.446 . S
N41 Co0 2.151 . S
N41 C40 1.330 . S
N41 C45 1.418 . S
C42 H21 0.929 . S
C42 C40 1.446 . S
C42 C43 1.332 . S
C43 H23 0.931 1_455 S
C43 C42 1.332 . S
C43 C44 1.267 1_455 S
C44 H12 0.929 . S
C44 C43 1.267 1_655 S
C44 C45 1.251 1_655 S
C45 H15 0.929 . S
C45 N41 1.418 . S
C45 C44 1.251 1_455 S
C46 H13 0.930 . S
C46 C48 1.406 . S
C46 C51 1.261 . S
C47 H14 0.930 . S
C47 N49 1.325 . S
C47 C50 1.357 . S
C48 H16 0.928 . S
C48 C46 1.406 . S
C48 N49 1.261 . S
N49 Co0 2.214 . S
N49 C47 1.325 . S
N49 C48 1.261 . S
C50 H20 0.931 . S
C50 C47 1.357 . S
C50 C51 1.312 . S
C51 H22 0.930 . S
C51 C46 1.261 . S
C51 C50 1.312 . S
C52 O24 1.214 . S
C52 O32 1.234 . S
C53 H25 0.929 . S
C53 C56 1.391 . S
C53 C58 1.391 . S
C54 H26 0.929 . S
C54 C55 1.390 . S
C54 N57 1.391 . S
C55 H27 0.930 . S
C55 C54 1.390 . S
C55 C56 1.392 . S
C56 H28 0.929 . S
C56 C53 1.391 . S
C56 C55 1.392 . S
N57 Co1 2.257 . S
N57 C54 1.391 . S
N57 C58 1.388 . S
C58 H29 0.930 . S
C58 C53 1.391 . S
C58 N57 1.388 . S
Co59 O61 2.143 . S
Co59 O67 2.074 . S
Co59 O70 2.093 . S
Co59 O83 2.097 . S
Co59 N100 2.151 . S
Co59 N108 2.214 . S
Co60 O61 2.160 . S
Co60 O66 2.058 . S
Co60 O76 2.057 . S
Co60 O91 2.037 . S
Co60 N95 2.145 . S
Co60 N116 2.257 . S
O61 Co59 2.143 . S
O61 Co60 2.160 . S
C62 O63 1.278 . S
C62 O70 1.224 . S
O63 C62 1.278 . S
C64 O65 1.245 . S
C64 O76 1.232 . S
O65 C64 1.245 . S
O66 Co60 2.058 . S
O66 C92 1.269 . S
O67 Co59 2.074 . S
O67 C92 1.257 . S
H68 C93 0.930 . S
H69 C99 0.930 . S
O70 Co59 2.093 . S
O70 C62 1.224 . S
H71 C103 0.929 . S
H72 C105 0.930 . S
H73 C106 0.930 . S
H74 C104 0.929 . S
H75 C107 0.928 . S
O76 Co60 2.057 . S
O76 C64 1.232 . S
H77 C96 0.929 . S
H78 C97 0.929 . S
H79 C109 0.931 . S
H80 C101 0.929 . S
H81 C110 0.930 . S
H82 C102 0.931 1_565 S
O83 Co59 2.097 . S
O83 C111 1.214 . S
H84 C112 0.929 . S
H85 C113 0.929 . S
H86 C114 0.930 . S
H87 C115 0.929 . S
H88 C117 0.930 . S
H89 C94 0.930 . S
H90 C98 0.930 . S
O91 Co60 2.037 . S
O91 C111 1.234 . S
C92 O66 1.269 . S
C92 O67 1.257 . S
C93 H68 0.930 . S
C93 C96 1.388 . S
C93 C98 1.418 . S
C94 H89 0.930 . S
C94 C97 1.404 . S
C94 C98 1.353 . S
N95 Co60 2.145 . S
N95 C96 1.397 . S
N95 C97 1.334 . S
C96 H77 0.929 . S
C96 C93 1.388 . S
C96 N95 1.397 . S
C97 H78 0.929 . S
C97 C94 1.404 . S
C97 N95 1.334 . S
C98 H90 0.930 . S
C98 C93 1.418 . S
C98 C94 1.353 . S
C99 H69 0.930 . S
C99 N100 1.330 . S
C99 C101 1.446 . S
N100 Co59 2.151 . S
N100 C99 1.330 . S
N100 C104 1.418 . S
C101 H80 0.929 . S
C101 C99 1.446 . S
C101 C102 1.332 . S
C102 H82 0.931 1_545 S
C102 C101 1.332 . S
C102 C103 1.267 1_545 S
C103 H71 0.929 . S
C103 C102 1.267 1_565 S
C103 C104 1.251 1_565 S
C104 H74 0.929 . S
C104 N100 1.418 . S
C104 C103 1.251 1_545 S
C105 H72 0.930 . S
C105 C107 1.406 . S
C105 C110 1.261 . S
C106 H73 0.930 . S
C106 N108 1.325 . S
C106 C109 1.357 . S
C107 H75 0.928 . S
C107 C105 1.406 . S
C107 N108 1.261 . S
N108 Co59 2.214 . S
N108 C106 1.325 . S
N108 C107 1.261 . S
C109 H79 0.931 . S
C109 C106 1.357 . S
C109 C110 1.312 . S
C110 H81 0.930 . S
C110 C105 1.261 . S
C110 C109 1.312 . S
C111 O83 1.214 . S
C111 O91 1.234 . S
C112 H84 0.929 . S
C112 C115 1.391 . S
C112 C117 1.391 . S
C113 H85 0.929 . S
C113 C114 1.390 . S
C113 N116 1.391 . S
C114 H86 0.930 . S
C114 C113 1.390 . S
C114 C115 1.392 . S
C115 H87 0.929 . S
C115 C112 1.391 . S
C115 C114 1.392 . S
N116 Co60 2.257 . S
N116 C113 1.391 . S
N116 C117 1.388 . S
C117 H88 0.930 . S
C117 C112 1.391 . S
C117 N116 1.388 . S
Co118 O120 2.143 . S
Co118 O126 2.074 . S
Co118 O129 2.093 . S
Co118 O142 2.097 . S
Co118 N159 2.151 . S
Co118 N167 2.214 . S
Co119 O120 2.160 . S
Co119 O125 2.058 . S
Co119 O135 2.057 . S
Co119 O150 2.037 . S
Co119 N154 2.145 . S
Co119 N175 2.257 . S
O120 Co118 2.143 . S
O120 Co119 2.160 . S
C121 O122 1.278 . S
C121 O129 1.224 . S
O122 C121 1.278 . S
C123 O124 1.245 . S
C123 O135 1.232 . S
O124 C123 1.245 . S
O125 Co119 2.058 . S
O125 C151 1.269 . S
O126 Co118 2.074 . S
O126 C151 1.257 . S
H127 C152 0.930 . S
H128 C158 0.930 . S
O129 Co118 2.093 . S
O129 C121 1.224 . S
H130 C162 0.929 . S
H131 C164 0.930 . S
H132 C165 0.930 . S
H133 C163 0.929 . S
H134 C166 0.928 . S
O135 Co119 2.057 . S
O135 C123 1.232 . S
H136 C155 0.929 . S
H137 C156 0.929 . S
H138 C168 0.931 . S
H139 C160 0.929 . S
H140 C169 0.930 . S
H141 C161 0.931 . S
O142 Co118 2.097 . S
O142 C170 1.214 . S
H143 C171 0.929 . S
H144 C172 0.929 . S
H145 C173 0.930 . S
H146 C174 0.929 . S
H147 C176 0.930 . S
H148 C153 0.930 . S
H149 C157 0.930 . S
O150 Co119 2.037 . S
O150 C170 1.234 . S
C151 O125 1.269 . S
C151 O126 1.257 . S
C152 H127 0.930 . S
C152 C155 1.388 . S
C152 C157 1.418 . S
C153 H148 0.930 . S
C153 C156 1.404 . S
C153 C157 1.353 . S
N154 Co119 2.145 . S
N154 C155 1.397 . S
N154 C156 1.334 . S
C155 H136 0.929 . S
C155 C152 1.388 . S
C155 N154 1.397 . S
C156 H137 0.929 . S
C156 C153 1.404 . S
C156 N154 1.334 . S
C157 H149 0.930 . S
C157 C152 1.418 . S
C157 C153 1.353 . S
C158 H128 0.930 . S
C158 N159 1.330 . S
C158 C160 1.446 . S
N159 Co118 2.151 . S
N159 C158 1.330 . S
N159 C163 1.418 . S
C160 H139 0.929 . S
C160 C158 1.446 . S
C160 C161 1.332 . S
C161 H141 0.931 . S
C161 C160 1.332 . S
C161 C162 1.267 . S
C162 H130 0.929 . S
C162 C161 1.267 . S
C162 C163 1.251 . S
C163 H133 0.929 . S
C163 N159 1.418 . S
C163 C162 1.251 . S
C164 H131 0.930 . S
C164 C166 1.406 . S
C164 C169 1.261 . S
C165 H132 0.930 . S
C165 N167 1.325 . S
C165 C168 1.357 . S
C166 H134 0.928 . S
C166 C164 1.406 . S
C166 N167 1.261 . S
N167 Co118 2.214 . S
N167 C165 1.325 . S
N167 C166 1.261 . S
C168 H138 0.931 . S
C168 C165 1.357 . S
C168 C169 1.312 . S
C169 H140 0.930 . S
C169 C164 1.261 . S
C169 C168 1.312 . S
C170 O142 1.214 . S
C170 O150 1.234 . S
C171 H143 0.929 . S
C171 C174 1.391 . S
C171 C176 1.391 . S
C172 H144 0.929 . S
C172 C173 1.390 . S
C172 N175 1.391 . S
C173 H145 0.930 . S
C173 C172 1.390 . S
C173 C174 1.392 . S
C174 H146 0.929 . S
C174 C171 1.391 . S
C174 C173 1.392 . S
N175 Co119 2.257 . S
N175 C172 1.391 . S
N175 C176 1.388 . S
C176 H147 0.930 . S
C176 C171 1.391 . S
C176 N175 1.388 . S
Co177 O179 2.143 . S
Co177 O185 2.074 . S
Co177 O188 2.093 . S
Co177 O201 2.097 . S
Co177 N218 2.151 . S
Co177 N226 2.214 . S
Co178 O179 2.160 . S
Co178 O184 2.058 . S
Co178 O194 2.057 . S
Co178 O209 2.037 . S
Co178 N213 2.145 . S
Co178 N234 2.257 . S
O179 Co177 2.143 . S
O179 Co178 2.160 . S
C180 O181 1.278 . S
C180 O188 1.224 . S
O181 C180 1.278 . S
C182 O183 1.245 . S
C182 O194 1.232 . S
O183 C182 1.245 . S
O184 Co178 2.058 . S
O184 C210 1.269 . S
O185 Co177 2.074 . S
O185 C210 1.257 . S
H186 C211 0.930 . S
H187 C217 0.930 . S
O188 Co177 2.093 . S
O188 C180 1.224 . S
H189 C221 0.929 . S
H190 C223 0.930 . S
H191 C224 0.930 . S
H192 C222 0.929 . S
H193 C225 0.928 . S
O194 Co178 2.057 . S
O194 C182 1.232 . S
H195 C214 0.929 . S
H196 C215 0.929 . S
H197 C227 0.931 . S
H198 C219 0.929 . S
H199 C228 0.930 . S
H200 C220 0.931 1_455 S
O201 Co177 2.097 . S
O201 C229 1.214 . S
H202 C230 0.929 . S
H203 C231 0.929 . S
H204 C232 0.930 . S
H205 C233 0.929 . S
H206 C235 0.930 . S
H207 C212 0.930 . S
H208 C216 0.930 . S
O209 Co178 2.037 . S
O209 C229 1.234 . S
C210 O184 1.269 . S
C210 O185 1.257 . S
C211 H186 0.930 . S
C211 C214 1.388 . S
C211 C216 1.418 . S
C212 H207 0.930 . S
C212 C215 1.404 . S
C212 C216 1.353 . S
N213 Co178 2.145 . S
N213 C214 1.397 . S
N213 C215 1.334 . S
C214 H195 0.929 . S
C214 C211 1.388 . S
C214 N213 1.397 . S
C215 H196 0.929 . S
C215 C212 1.404 . S
C215 N213 1.334 . S
C216 H208 0.930 . S
C216 C211 1.418 . S
C216 C212 1.353 . S
C217 H187 0.930 . S
C217 N218 1.330 . S
C217 C219 1.446 . S
N218 Co177 2.151 . S
N218 C217 1.330 . S
N218 C222 1.418 . S
C219 H198 0.929 . S
C219 C217 1.446 . S
C219 C220 1.332 . S
C220 H200 0.931 1_655 S
C220 C219 1.332 . S
C220 C221 1.267 1_655 S
C221 H189 0.929 . S
C221 C220 1.267 1_455 S
C221 C222 1.251 1_455 S
C222 H192 0.929 . S
C222 N218 1.418 . S
C222 C221 1.251 1_655 S
C223 H190 0.930 . S
C223 C225 1.406 . S
C223 C228 1.261 . S
C224 H191 0.930 . S
C224 N226 1.325 . S
C224 C227 1.357 . S
C225 H193 0.928 . S
C225 C223 1.406 . S
C225 N226 1.261 . S
N226 Co177 2.214 . S
N226 C224 1.325 . S
N226 C225 1.261 . S
C227 H197 0.931 . S
C227 C224 1.357 . S
C227 C228 1.312 . S
C228 H199 0.930 . S
C228 C223 1.261 . S
C228 C227 1.312 . S
C229 O201 1.214 . S
C229 O209 1.234 . S
C230 H202 0.929 . S
C230 C233 1.391 . S
C230 C235 1.391 . S
C231 H203 0.929 . S
C231 C232 1.390 . S
C231 N234 1.391 . S
C232 H204 0.930 . S
C232 C231 1.390 . S
C232 C233 1.392 . S
C233 H205 0.929 . S
C233 C230 1.391 . S
C233 C232 1.392 . S
N234 Co178 2.257 . S
N234 C231 1.391 . S
N234 C235 1.388 . S
C235 H206 0.930 . S
C235 C230 1.391 . S
C235 N234 1.388 . S
Co236 O238 2.143 . S
Co236 O244 2.074 . S
Co236 O247 2.093 . S
Co236 O260 2.097 . S
Co236 N277 2.151 . S
Co236 N285 2.214 . S
Co237 O238 2.160 . S
Co237 O243 2.058 . S
Co237 O253 2.057 . S
Co237 O268 2.037 . S
Co237 N272 2.145 . S
Co237 N293 2.257 . S
O238 Co236 2.143 . S
O238 Co237 2.160 . S
C239 O240 1.278 . S
C239 O247 1.224 . S
O240 C239 1.278 . S
C241 O242 1.245 . S
C241 O253 1.232 . S
O242 C241 1.245 . S
O243 Co237 2.058 . S
O243 C269 1.269 . S
O244 Co236 2.074 . S
O244 C269 1.257 . S
H245 C270 0.930 . S
H246 C276 0.930 . S
O247 Co236 2.093 . S
O247 C239 1.224 . S
H248 C280 0.929 . S
H249 C282 0.930 . S
H250 C283 0.930 . S
H251 C281 0.929 . S
H252 C284 0.928 . S
O253 Co237 2.057 . S
O253 C241 1.232 . S
H254 C273 0.929 . S
H255 C274 0.929 . S
H256 C286 0.931 . S
H257 C278 0.929 . S
H258 C287 0.930 . S
H259 C279 0.931 1_545 S
O260 Co236 2.097 . S
O260 C288 1.214 . S
H261 C289 0.929 . S
H262 C290 0.929 . S
H263 C291 0.930 . S
H264 C292 0.929 . S
H265 C294 0.930 . S
H266 C271 0.930 . S
H267 C275 0.930 . S
O268 Co237 2.037 . S
O268 C288 1.234 . S
C269 O243 1.269 . S
C269 O244 1.257 . S
C270 H245 0.930 . S
C270 C273 1.388 . S
C270 C275 1.418 . S
C271 H266 0.930 . S
C271 C274 1.404 . S
C271 C275 1.353 . S
N272 Co237 2.145 . S
N272 C273 1.397 . S
N272 C274 1.334 . S
C273 H254 0.929 . S
C273 C270 1.388 . S
C273 N272 1.397 . S
C274 H255 0.929 . S
C274 C271 1.404 . S
C274 N272 1.334 . S
C275 H267 0.930 . S
C275 C270 1.418 . S
C275 C271 1.353 . S
C276 H246 0.930 . S
C276 N277 1.330 . S
C276 C278 1.446 . S
N277 Co236 2.151 . S
N277 C276 1.330 . S
N277 C281 1.418 . S
C278 H257 0.929 . S
C278 C276 1.446 . S
C278 C279 1.332 . S
C279 H259 0.931 1_565 S
C279 C278 1.332 . S
C279 C280 1.267 1_565 S
C280 H248 0.929 . S
C280 C279 1.267 1_545 S
C280 C281 1.251 1_545 S
C281 H251 0.929 . S
C281 N277 1.418 . S
C281 C280 1.251 1_565 S
C282 H249 0.930 . S
C282 C284 1.406 . S
C282 C287 1.261 . S
C283 H250 0.930 . S
C283 N285 1.325 . S
C283 C286 1.357 . S
C284 H252 0.928 . S
C284 C282 1.406 . S
C284 N285 1.261 . S
N285 Co236 2.214 . S
N285 C283 1.325 . S
N285 C284 1.261 . S
C286 H256 0.931 . S
C286 C283 1.357 . S
C286 C287 1.312 . S
C287 H258 0.930 . S
C287 C282 1.261 . S
C287 C286 1.312 . S
C288 O260 1.214 . S
C288 O268 1.234 . S
C289 H261 0.929 . S
C289 C292 1.391 . S
C289 C294 1.391 . S
C290 H262 0.929 . S
C290 C291 1.390 . S
C290 N293 1.391 . S
C291 H263 0.930 . S
C291 C290 1.390 . S
C291 C292 1.392 . S
C292 H264 0.929 . S
C292 C289 1.391 . S
C292 C291 1.392 . S
N293 Co237 2.257 . S
N293 C290 1.391 . S
N293 C294 1.388 . S
C294 H265 0.930 . S
C294 C289 1.391 . S
C294 N293 1.388 . S
Co295 O297 2.143 . S
Co295 O303 2.074 . S
Co295 O306 2.093 . S
Co295 O319 2.097 . S
Co295 N336 2.151 . S
Co295 N344 2.214 . S
Co296 O297 2.160 . S
Co296 O302 2.058 . S
Co296 O312 2.057 . S
Co296 O327 2.042 . S
Co296 N331 2.145 1_556 S
Co296 N352 2.257 . S
O297 Co295 2.143 . S
O297 Co296 2.160 . S
C298 O299 1.278 . S
C298 O306 1.224 . S
O299 C298 1.278 . S
C300 O301 1.245 . S
C300 O312 1.232 . S
O301 C300 1.245 . S
O302 Co296 2.058 . S
O302 C328 1.269 . S
O303 Co295 2.074 . S
O303 C328 1.257 . S
H304 C329 0.930 . S
H305 C335 0.930 . S
O306 Co295 2.093 . S
O306 C298 1.224 . S
H307 C339 0.929 . S
H308 C341 0.930 . S
H309 C342 0.944 . S
H310 C340 0.929 . S
H311 C343 0.928 . S
O312 Co296 2.057 . S
O312 C300 1.232 . S
H313 C332 0.929 . S
H314 C333 0.965 . S
H315 C345 0.931 1_554 S
H316 C337 0.929 . S
H317 C346 0.930 . S
H318 C338 0.931 . S
O319 Co295 2.097 . S
O319 C347 1.228 . S
H320 C348 0.929 . S
H321 C349 0.929 1_554 S
H322 C350 0.930 . S
H323 C351 0.929 . S
H324 C353 0.930 . S
H325 C330 0.930 . S
H326 C334 0.930 . S
O327 Co296 2.042 . S
O327 C347 1.234 . S
C328 O302 1.269 . S
C328 O303 1.257 . S
C329 H304 0.930 . S
C329 C332 1.388 . S
C329 C334 1.418 . S
C330 H325 0.930 . S
C330 C333 1.377 1_554 S
C330 C334 1.353 . S
N331 Co296 2.145 1_554 S
N331 C332 1.397 . S
N331 C333 1.327 1_554 S
C332 H313 0.929 . S
C332 C329 1.388 . S
C332 N331 1.397 . S
C333 H314 0.965 . S
C333 C330 1.377 1_556 S
C333 N331 1.327 1_556 S
C334 H326 0.930 . S
C334 C329 1.418 . S
C334 C330 1.353 . S
C335 H305 0.930 . S
C335 N336 1.330 . S
C335 C337 1.446 . S
N336 Co295 2.151 . S
N336 C335 1.330 . S
N336 C340 1.418 . S
C337 H316 0.929 . S
C337 C335 1.446 . S
C337 C338 1.332 . S
C338 H318 0.931 . S
C338 C337 1.332 . S
C338 C339 1.267 . S
C339 H307 0.929 . S
C339 C338 1.267 . S
C339 C340 1.251 . S
C340 H310 0.929 . S
C340 N336 1.418 . S
C340 C339 1.251 . S
C341 H308 0.930 . S
C341 C343 1.406 . S
C341 C346 1.261 . S
C342 H309 0.944 . S
C342 N344 1.325 . S
C342 C345 1.357 . S
C343 H311 0.928 . S
C343 C341 1.406 . S
C343 N344 1.261 . S
N344 Co295 2.214 . S
N344 C342 1.325 . S
N344 C343 1.261 . S
C345 H315 0.931 1_556 S
C345 C342 1.357 . S
C345 C346 1.312 . S
C346 H317 0.930 . S
C346 C341 1.261 . S
C346 C345 1.312 . S
C347 O319 1.228 . S
C347 O327 1.234 . S
C348 H320 0.929 . S
C348 C351 1.391 . S
C348 C353 1.391 . S
C349 H321 0.929 1_556 S
C349 C350 1.390 . S
C349 N352 1.391 . S
C350 H322 0.930 . S
C350 C349 1.390 . S
C350 C351 1.392 . S
C351 H323 0.929 . S
C351 C348 1.391 . S
C351 C350 1.392 . S
N352 Co296 2.257 . S
N352 C349 1.391 . S
N352 C353 1.388 . S
C353 H324 0.930 . S
C353 C348 1.391 . S
C353 N352 1.388 . S
Co354 O356 2.143 . S
Co354 O362 2.074 . S
Co354 O365 2.093 . S
Co354 O378 2.097 . S
Co354 N395 2.151 . S
Co354 N403 2.214 . S
Co355 O356 2.160 . S
Co355 O361 2.058 . S
Co355 O371 2.057 . S
Co355 O386 2.037 . S
Co355 N390 2.145 . S
Co355 N411 2.257 . S
O356 Co354 2.143 . S
O356 Co355 2.160 . S
C357 O358 1.278 . S
C357 O365 1.224 . S
O358 C357 1.278 . S
C359 O360 1.245 . S
C359 O371 1.232 . S
O360 C359 1.245 . S
O361 Co355 2.058 . S
O361 C387 1.269 . S
O362 Co354 2.074 . S
O362 C387 1.257 . S
H363 C388 0.930 . S
H364 C394 0.930 . S
O365 Co354 2.093 . S
O365 C357 1.224 . S
H366 C398 0.929 . S
H367 C400 0.930 . S
H368 C401 0.930 . S
H369 C399 0.929 . S
H370 C402 0.928 . S
O371 Co355 2.057 . S
O371 C359 1.232 . S
H372 C391 0.929 . S
H373 C392 0.929 . S
H374 C404 0.931 . S
H375 C396 0.929 . S
H376 C405 0.930 . S
H377 C397 0.931 1_545 S
O378 Co354 2.097 . S
O378 C406 1.214 . S
H379 C407 0.929 . S
H380 C408 0.929 . S
H381 C409 0.930 . S
H382 C410 0.929 . S
H383 C412 0.930 . S
H384 C389 0.930 . S
H385 C393 0.930 . S
O386 Co355 2.037 . S
O386 C406 1.234 . S
C387 O361 1.269 . S
C387 O362 1.257 . S
C388 H363 0.930 . S
C388 C391 1.388 . S
C388 C393 1.418 . S
C389 H384 0.930 . S
C389 C392 1.404 . S
C389 C393 1.353 . S
N390 Co355 2.145 . S
N390 C391 1.397 . S
N390 C392 1.334 . S
C391 H372 0.929 . S
C391 C388 1.388 . S
C391 N390 1.397 . S
C392 H373 0.929 . S
C392 C389 1.404 . S
C392 N390 1.334 . S
C393 H385 0.930 . S
C393 C388 1.418 . S
C393 C389 1.353 . S
C394 H364 0.930 . S
C394 N395 1.330 . S
C394 C396 1.446 . S
N395 Co354 2.151 . S
N395 C394 1.330 . S
N395 C399 1.418 . S
C396 H375 0.929 . S
C396 C394 1.446 . S
C396 C397 1.332 . S
C397 H377 0.931 1_565 S
C397 C396 1.332 . S
C397 C398 1.267 1_565 S
C398 H366 0.929 . S
C398 C397 1.267 1_545 S
C398 C399 1.251 1_545 S
C399 H369 0.929 . S
C399 N395 1.418 . S
C399 C398 1.251 1_565 S
C400 H367 0.930 . S
C400 C402 1.406 . S
C400 C405 1.261 . S
C401 H368 0.930 . S
C401 N403 1.325 . S
C401 C404 1.357 . S
C402 H370 0.928 . S
C402 C400 1.406 . S
C402 N403 1.261 . S
N403 Co354 2.214 . S
N403 C401 1.325 . S
N403 C402 1.261 . S
C404 H374 0.931 . S
C404 C401 1.357 . S
C404 C405 1.312 . S
C405 H376 0.930 . S
C405 C400 1.261 . S
C405 C404 1.312 . S
C406 O378 1.214 . S
C406 O386 1.234 . S
C407 H379 0.929 . S
C407 C410 1.391 . S
C407 C412 1.391 . S
C408 H380 0.929 . S
C408 C409 1.390 . S
C408 N411 1.391 . S
C409 H381 0.930 . S
C409 C408 1.390 . S
C409 C410 1.392 . S
C410 H382 0.929 . S
C410 C407 1.391 . S
C410 C409 1.392 . S
N411 Co355 2.257 . S
N411 C408 1.391 . S
N411 C412 1.388 . S
C412 H383 0.930 . S
C412 C407 1.391 . S
C412 N411 1.388 . S
Co413 O415 2.143 . S
Co413 O421 2.074 . S
Co413 O424 2.093 . S
Co413 O437 2.097 . S
Co413 N454 2.151 . S
Co413 N462 2.214 . S
Co414 O415 2.160 . S
Co414 O420 2.058 . S
Co414 O430 2.057 . S
Co414 O445 2.037 . S
Co414 N449 2.145 . S
Co414 N470 2.257 . S
O415 Co413 2.143 . S
O415 Co414 2.160 . S
C416 O417 1.278 . S
C416 O424 1.224 . S
O417 C416 1.278 . S
C418 O419 1.245 . S
C418 O430 1.232 . S
O419 C418 1.245 . S
O420 Co414 2.058 . S
O420 C446 1.269 . S
O421 Co413 2.074 . S
O421 C446 1.257 . S
H422 C447 0.930 . S
H423 C453 0.930 . S
O424 Co413 2.093 . S
O424 C416 1.224 . S
H425 C457 0.929 . S
H426 C459 0.930 . S
H427 C460 0.930 . S
H428 C458 0.929 . S
H429 C461 0.928 . S
O430 Co414 2.057 . S
O430 C418 1.232 . S
H431 C450 0.929 . S
H432 C451 0.929 . S
H433 C463 0.931 . S
H434 C455 0.929 . S
H435 C464 0.930 . S
H436 C456 0.931 . S
O437 Co413 2.097 . S
O437 C465 1.214 . S
H438 C466 0.929 . S
H439 C467 0.929 . S
H440 C468 0.930 . S
H441 C469 0.929 . S
H442 C471 0.930 . S
H443 C448 0.930 . S
H444 C452 0.930 . S
O445 Co414 2.037 . S
O445 C465 1.234 . S
C446 O420 1.269 . S
C446 O421 1.257 . S
C447 H422 0.930 . S
C447 C450 1.388 . S
C447 C452 1.418 . S
C448 H443 0.930 . S
C448 C451 1.404 . S
C448 C452 1.353 . S
N449 Co414 2.145 . S
N449 C450 1.397 . S
N449 C451 1.334 . S
C450 H431 0.929 . S
C450 C447 1.388 . S
C450 N449 1.397 . S
C451 H432 0.929 . S
C451 C448 1.404 . S
C451 N449 1.334 . S
C452 H444 0.930 . S
C452 C447 1.418 . S
C452 C448 1.353 . S
C453 H423 0.930 . S
C453 N454 1.330 . S
C453 C455 1.446 . S
N454 Co413 2.151 . S
N454 C453 1.330 . S
N454 C458 1.418 . S
C455 H434 0.929 . S
C455 C453 1.446 . S
C455 C456 1.332 . S
C456 H436 0.931 . S
C456 C455 1.332 . S
C456 C457 1.267 . S
C457 H425 0.929 . S
C457 C456 1.267 . S
C457 C458 1.251 . S
C458 H428 0.929 . S
C458 N454 1.418 . S
C458 C457 1.251 . S
C459 H426 0.930 . S
C459 C461 1.406 . S
C459 C464 1.261 . S
C460 H427 0.930 . S
C460 N462 1.325 . S
C460 C463 1.357 . S
C461 H429 0.928 . S
C461 C459 1.406 . S
C461 N462 1.261 . S
N462 Co413 2.214 . S
N462 C460 1.325 . S
N462 C461 1.261 . S
C463 H433 0.931 . S
C463 C460 1.357 . S
C463 C464 1.312 . S
C464 H435 0.930 . S
C464 C459 1.261 . S
C464 C463 1.312 . S
C465 O437 1.214 . S
C465 O445 1.234 . S
C466 H438 0.929 . S
C466 C469 1.391 . S
C466 C471 1.391 . S
C467 H439 0.929 . S
C467 C468 1.390 . S
C467 N470 1.391 . S
C468 H440 0.930 . S
C468 C467 1.390 . S
C468 C469 1.392 . S
C469 H441 0.929 . S
C469 C466 1.391 . S
C469 C468 1.392 . S
N470 Co414 2.257 . S
N470 C467 1.391 . S
N470 C471 1.388 . S
C471 H442 0.930 . S
C471 C466 1.391 . S
C471 N470 1.388 . S
Co472 O474 2.143 . S
Co472 O480 2.074 . S
Co472 O483 2.093 . S
Co472 O496 2.097 . S
Co472 N513 2.151 . S
Co472 N521 2.214 . S
Co473 O474 2.160 . S
Co473 O479 2.058 . S
Co473 O489 2.057 . S
Co473 O504 2.042 . S
Co473 N508 2.145 1_554 S
Co473 N529 2.257 . S
O474 Co472 2.143 . S
O474 Co473 2.160 . S
C475 O476 1.278 . S
C475 O483 1.224 . S
O476 C475 1.278 . S
C477 O478 1.245 . S
C477 O489 1.232 . S
O478 C477 1.245 . S
O479 Co473 2.058 . S
O479 C505 1.269 . S
O480 Co472 2.074 . S
O480 C505 1.257 . S
H481 C506 0.930 . S
H482 C512 0.930 . S
O483 Co472 2.093 . S
O483 C475 1.224 . S
H484 C516 0.929 . S
H485 C518 0.930 . S
H486 C519 0.944 . S
H487 C517 0.929 . S
H488 C520 0.928 . S
O489 Co473 2.057 . S
O489 C477 1.232 . S
H490 C509 0.929 . S
H491 C510 0.965 . S
H492 C522 0.931 1_556 S
H493 C514 0.929 . S
H494 C523 0.930 . S
H495 C515 0.931 1_655 S
O496 Co472 2.097 . S
O496 C524 1.228 . S
H497 C525 0.929 . S
H498 C526 0.929 1_556 S
H499 C527 0.930 . S
H500 C528 0.929 . S
H501 C530 0.930 . S
H502 C507 0.930 . S
H503 C511 0.930 . S
O504 Co473 2.042 . S
O504 C524 1.234 . S
C505 O479 1.269 . S
C505 O480 1.257 . S
C506 H481 0.930 . S
C506 C509 1.388 . S
C506 C511 1.418 . S
C507 H502 0.930 . S
C507 C510 1.376 1_556 S
C507 C511 1.353 . S
N508 Co473 2.145 1_556 S
N508 C509 1.397 . S
N508 C510 1.327 1_556 S
C509 H490 0.929 . S
C509 C506 1.388 . S
C509 N508 1.397 . S
C510 H491 0.965 . S
C510 C507 1.376 1_554 S
C510 N508 1.327 1_554 S
C511 H503 0.930 . S
C511 C506 1.418 . S
C511 C507 1.353 . S
C512 H482 0.930 . S
C512 N513 1.330 . S
C512 C514 1.446 . S
N513 Co472 2.151 . S
N513 C512 1.330 . S
N513 C517 1.418 . S
C514 H493 0.929 . S
C514 C512 1.446 . S
C514 C515 1.332 . S
C515 H495 0.931 1_455 S
C515 C514 1.332 . S
C515 C516 1.267 1_455 S
C516 H484 0.929 . S
C516 C515 1.267 1_655 S
C516 C517 1.251 1_655 S
C517 H487 0.929 . S
C517 N513 1.418 . S
C517 C516 1.251 1_455 S
C518 H485 0.930 . S
C518 C520 1.406 . S
C518 C523 1.261 . S
C519 H486 0.944 . S
C519 N521 1.325 . S
C519 C522 1.357 . S
C520 H488 0.928 . S
C520 C518 1.406 . S
C520 N521 1.261 . S
N521 Co472 2.214 . S
N521 C519 1.325 . S
N521 C520 1.261 . S
C522 H492 0.931 1_554 S
C522 C519 1.357 . S
C522 C523 1.312 . S
C523 H494 0.930 . S
C523 C518 1.261 . S
C523 C522 1.312 . S
C524 O496 1.228 . S
C524 O504 1.234 . S
C525 H497 0.929 . S
C525 C528 1.391 . S
C525 C530 1.391 . S
C526 H498 0.929 1_554 S
C526 C527 1.390 . S
C526 N529 1.391 . S
C527 H499 0.930 . S
C527 C526 1.390 . S
C527 C528 1.392 . S
C528 H500 0.929 . S
C528 C525 1.391 . S
C528 C527 1.392 . S
N529 Co473 2.257 . S
N529 C526 1.391 . S
N529 C530 1.388 . S
C530 H501 0.930 . S
C530 C525 1.391 . S
C530 N529 1.388 . S
Co531 O533 2.143 . S
Co531 O539 2.074 . S
Co531 O542 2.093 . S
Co531 O555 2.097 . S
Co531 N572 2.151 . S
Co531 N580 2.214 . S
Co532 O533 2.160 . S
Co532 O538 2.058 . S
Co532 O548 2.057 . S
Co532 O563 2.037 . S
Co532 N567 2.145 . S
Co532 N588 2.257 . S
O533 Co531 2.143 . S
O533 Co532 2.160 . S
C534 O535 1.278 . S
C534 O542 1.224 . S
O535 C534 1.278 . S
C536 O537 1.245 . S
C536 O548 1.232 . S
O537 C536 1.245 . S
O538 Co532 2.058 . S
O538 C564 1.269 . S
O539 Co531 2.074 . S
O539 C564 1.257 . S
H540 C565 0.930 . S
H541 C571 0.930 . S
O542 Co531 2.093 . S
O542 C534 1.224 . S
H543 C575 0.929 . S
H544 C577 0.930 . S
H545 C578 0.930 . S
H546 C576 0.929 . S
H547 C579 0.928 . S
O548 Co532 2.057 . S
O548 C536 1.232 . S
H549 C568 0.929 . S
H550 C569 0.929 . S
H551 C581 0.931 . S
H552 C573 0.929 . S
H553 C582 0.930 . S
H554 C574 0.931 1_565 S
O555 Co531 2.097 . S
O555 C583 1.214 . S
H556 C584 0.929 . S
H557 C585 0.929 . S
H558 C586 0.930 . S
H559 C587 0.929 . S
H560 C589 0.930 . S
H561 C566 0.930 . S
H562 C570 0.930 . S
O563 Co532 2.037 . S
O563 C583 1.234 . S
C564 O538 1.269 . S
C564 O539 1.257 . S
C565 H540 0.930 . S
C565 C568 1.388 . S
C565 C570 1.418 . S
C566 H561 0.930 . S
C566 C569 1.404 . S
C566 C570 1.353 . S
N567 Co532 2.145 . S
N567 C568 1.397 . S
N567 C569 1.334 . S
C568 H549 0.929 . S
C568 C565 1.388 . S
C568 N567 1.397 . S
C569 H550 0.929 . S
C569 C566 1.404 . S
C569 N567 1.334 . S
C570 H562 0.930 . S
C570 C565 1.418 . S
C570 C566 1.353 . S
C571 H541 0.930 . S
C571 N572 1.330 . S
C571 C573 1.446 . S
N572 Co531 2.151 . S
N572 C571 1.330 . S
N572 C576 1.418 . S
C573 H552 0.929 . S
C573 C571 1.446 . S
C573 C574 1.332 . S
C574 H554 0.931 1_545 S
C574 C573 1.332 . S
C574 C575 1.267 1_545 S
C575 H543 0.929 . S
C575 C574 1.267 1_565 S
C575 C576 1.251 1_565 S
C576 H546 0.929 . S
C576 N572 1.418 . S
C576 C575 1.251 1_545 S
C577 H544 0.930 . S
C577 C579 1.406 . S
C577 C582 1.261 . S
C578 H545 0.930 . S
C578 N580 1.325 . S
C578 C581 1.357 . S
C579 H547 0.928 . S
C579 C577 1.406 . S
C579 N580 1.261 . S
N580 Co531 2.214 . S
N580 C578 1.325 . S
N580 C579 1.261 . S
C581 H551 0.931 . S
C581 C578 1.357 . S
C581 C582 1.312 . S
C582 H553 0.930 . S
C582 C577 1.261 . S
C582 C581 1.312 . S
C583 O555 1.214 . S
C583 O563 1.234 . S
C584 H556 0.929 . S
C584 C587 1.391 . S
C584 C589 1.391 . S
C585 H557 0.929 . S
C585 C586 1.390 . S
C585 N588 1.391 . S
C586 H558 0.930 . S
C586 C585 1.390 . S
C586 C587 1.392 . S
C587 H559 0.929 . S
C587 C584 1.391 . S
C587 C586 1.392 . S
N588 Co532 2.257 . S
N588 C585 1.391 . S
N588 C589 1.388 . S
C589 H560 0.930 . S
C589 C584 1.391 . S
C589 N588 1.388 . S
Co590 O592 2.143 . S
Co590 O598 2.074 . S
Co590 O601 2.093 . S
Co590 O614 2.097 . S
Co590 N631 2.151 . S
Co590 N639 2.214 . S
Co591 O592 2.160 . S
Co591 O597 2.058 . S
Co591 O607 2.057 . S
Co591 O622 2.037 . S
Co591 N626 2.145 . S
Co591 N647 2.257 . S
O592 Co590 2.143 . S
O592 Co591 2.160 . S
C593 O594 1.278 . S
C593 O601 1.224 . S
O594 C593 1.278 . S
C595 O596 1.245 . S
C595 O607 1.232 . S
O596 C595 1.245 . S
O597 Co591 2.058 . S
O597 C623 1.269 . S
O598 Co590 2.074 . S
O598 C623 1.257 . S
H599 C624 0.930 . S
H600 C630 0.930 . S
O601 Co590 2.093 . S
O601 C593 1.224 . S
H602 C634 0.929 . S
H603 C636 0.930 . S
H604 C637 0.930 . S
H605 C635 0.929 . S
H606 C638 0.928 . S
O607 Co591 2.057 . S
O607 C595 1.232 . S
H608 C627 0.929 . S
H609 C628 0.929 . S
H610 C640 0.931 . S
H611 C632 0.929 . S
H612 C641 0.930 . S
H613 C633 0.931 . S
O614 Co590 2.097 . S
O614 C642 1.214 . S
H615 C643 0.929 . S
H616 C644 0.929 . S
H617 C645 0.930 . S
H618 C646 0.929 . S
H619 C648 0.930 . S
H620 C625 0.930 . S
H621 C629 0.930 . S
O622 Co591 2.037 . S
O622 C642 1.234 . S
C623 O597 1.269 . S
C623 O598 1.257 . S
C624 H599 0.930 . S
C624 C627 1.388 . S
C624 C629 1.418 . S
C625 H620 0.930 . S
C625 C628 1.404 . S
C625 C629 1.353 . S
N626 Co591 2.145 . S
N626 C627 1.397 . S
N626 C628 1.334 . S
C627 H608 0.929 . S
C627 C624 1.388 . S
C627 N626 1.397 . S
C628 H609 0.929 . S
C628 C625 1.404 . S
C628 N626 1.334 . S
C629 H621 0.930 . S
C629 C624 1.418 . S
C629 C625 1.353 . S
C630 H600 0.930 . S
C630 N631 1.330 . S
C630 C632 1.446 . S
N631 Co590 2.151 . S
N631 C630 1.330 . S
N631 C635 1.418 . S
C632 H611 0.929 . S
C632 C630 1.446 . S
C632 C633 1.332 . S
C633 H613 0.931 . S
C633 C632 1.332 . S
C633 C634 1.267 . S
C634 H602 0.929 . S
C634 C633 1.267 . S
C634 C635 1.251 . S
C635 H605 0.929 . S
C635 N631 1.418 . S
C635 C634 1.251 . S
C636 H603 0.930 . S
C636 C638 1.406 . S
C636 C641 1.261 . S
C637 H604 0.930 . S
C637 N639 1.325 . S
C637 C640 1.357 . S
C638 H606 0.928 . S
C638 C636 1.406 . S
C638 N639 1.261 . S
N639 Co590 2.214 . S
N639 C637 1.325 . S
N639 C638 1.261 . S
C640 H610 0.931 . S
C640 C637 1.357 . S
C640 C641 1.312 . S
C641 H612 0.930 . S
C641 C636 1.261 . S
C641 C640 1.312 . S
C642 O614 1.214 . S
C642 O622 1.234 . S
C643 H615 0.929 . S
C643 C646 1.391 . S
C643 C648 1.391 . S
C644 H616 0.929 . S
C644 C645 1.390 . S
C644 N647 1.391 . S
C645 H617 0.930 . S
C645 C644 1.390 . S
C645 C646 1.392 . S
C646 H618 0.929 . S
C646 C643 1.391 . S
C646 C645 1.392 . S
N647 Co591 2.257 . S
N647 C644 1.391 . S
N647 C648 1.388 . S
C648 H619 0.930 . S
C648 C643 1.391 . S
C648 N647 1.388 . S
Co649 O651 2.143 . S
Co649 O657 2.074 . S
Co649 O660 2.093 . S
Co649 O673 2.097 . S
Co649 N690 2.151 . S
Co649 N698 2.214 . S
Co650 O651 2.160 . S
Co650 O656 2.058 . S
Co650 O666 2.057 . S
Co650 O681 2.037 . S
Co650 N685 2.145 . S
Co650 N706 2.257 . S
O651 Co649 2.143 . S
O651 Co650 2.160 . S
C652 O653 1.278 . S
C652 O660 1.224 . S
O653 C652 1.278 . S
C654 O655 1.245 . S
C654 O666 1.232 . S
O655 C654 1.245 . S
O656 Co650 2.058 . S
O656 C682 1.269 . S
O657 Co649 2.074 . S
O657 C682 1.257 . S
H658 C683 0.930 . S
H659 C689 0.930 . S
O660 Co649 2.093 . S
O660 C652 1.224 . S
H661 C693 0.929 . S
H662 C695 0.930 . S
H663 C696 0.930 . S
H664 C694 0.929 . S
H665 C697 0.928 . S
O666 Co650 2.057 . S
O666 C654 1.232 . S
H667 C686 0.929 . S
H668 C687 0.929 . S
H669 C699 0.931 . S
H670 C691 0.929 . S
H671 C700 0.930 . S
H672 C692 0.931 1_455 S
O673 Co649 2.097 . S
O673 C701 1.214 . S
H674 C702 0.929 . S
H675 C703 0.929 . S
H676 C704 0.930 . S
H677 C705 0.929 . S
H678 C707 0.930 . S
H679 C684 0.930 . S
H680 C688 0.930 . S
O681 Co650 2.037 . S
O681 C701 1.234 . S
C682 O656 1.269 . S
C682 O657 1.257 . S
C683 H658 0.930 . S
C683 C686 1.388 . S
C683 C688 1.418 . S
C684 H679 0.930 . S
C684 C687 1.404 . S
C684 C688 1.353 . S
N685 Co650 2.145 . S
N685 C686 1.397 . S
N685 C687 1.334 . S
C686 H667 0.929 . S
C686 C683 1.388 . S
C686 N685 1.397 . S
C687 H668 0.929 . S
C687 C684 1.404 . S
C687 N685 1.334 . S
C688 H680 0.930 . S
C688 C683 1.418 . S
C688 C684 1.353 . S
C689 H659 0.930 . S
C689 N690 1.330 . S
C689 C691 1.446 . S
N690 Co649 2.151 . S
N690 C689 1.330 . S
N690 C694 1.418 . S
C691 H670 0.929 . S
C691 C689 1.446 . S
C691 C692 1.332 . S
C692 H672 0.931 1_655 S
C692 C691 1.332 . S
C692 C693 1.267 1_655 S
C693 H661 0.929 . S
C693 C692 1.267 1_455 S
C693 C694 1.251 1_455 S
C694 H664 0.929 . S
C694 N690 1.418 . S
C694 C693 1.251 1_655 S
C695 H662 0.930 . S
C695 C697 1.406 . S
C695 C700 1.261 . S
C696 H663 0.930 . S
C696 N698 1.325 . S
C696 C699 1.357 . S
C697 H665 0.928 . S
C697 C695 1.406 . S
C697 N698 1.261 . S
N698 Co649 2.214 . S
N698 C696 1.325 . S
N698 C697 1.261 . S
C699 H669 0.931 . S
C699 C696 1.357 . S
C699 C700 1.312 . S
C700 H671 0.930 . S
C700 C695 1.261 . S
C700 C699 1.312 . S
C701 O673 1.214 . S
C701 O681 1.234 . S
C702 H674 0.929 . S
C702 C705 1.391 . S
C702 C707 1.391 . S
C703 H675 0.929 . S
C703 C704 1.390 . S
C703 N706 1.391 . S
C704 H676 0.930 . S
C704 C703 1.390 . S
C704 C705 1.392 . S
C705 H677 0.929 . S
C705 C702 1.391 . S
C705 C704 1.392 . S
N706 Co650 2.257 . S
N706 C703 1.391 . S
N706 C707 1.388 . S
C707 H678 0.930 . S
C707 C702 1.391 . S
C707 N706 1.388 . S
H708 C726 0.951 . S
H709 C728 0.951 . S
H710 C730 0.950 . S
H711 C731 0.950 . S
H712 C733 0.950 . S
H713 C736 0.950 . S
H714 C737 0.950 . S
H715 C739 0.950 . S
H716 C740 0.950 . S
H717 C741 0.951 . S
H718 C743 0.951 . S
H719 C745 0.950 . S
H720 C746 0.950 . S
H721 C748 0.950 . S
H722 C751 0.950 1_455 S
H723 C752 0.950 . S
H724 C754 0.950 . S
H725 C755 0.950 . S
C726 H708 0.951 . S
C726 C727 1.366 . S
C726 C728 1.388 . S
C727 C726 1.366 . S
C727 C731 1.385 . S
C728 H709 0.951 . S
C728 C726 1.388 . S
C728 C729 1.366 . S
C729 C728 1.366 . S
C729 C730 1.414 . S
C729 C732 1.499 . S
C730 H710 0.950 . S
C730 C729 1.414 . S
C730 C731 1.374 . S
C731 H711 0.950 . S
C731 C727 1.385 . S
C731 C730 1.374 . S
C732 C729 1.499 . S
C732 C733 1.373 . S
C732 C734 1.389 . S
C733 H712 0.950 . S
C733 C732 1.373 . S
C733 C749 1.377 . S
C734 C732 1.389 . S
C734 C735 1.524 . S
C734 C748 1.377 . S
C735 C734 1.524 . S
C735 C736 1.397 . S
C735 C740 1.363 . S
C736 H713 0.950 . S
C736 C735 1.397 . S
C736 C737 1.334 . S
C737 H714 0.950 . S
C737 C736 1.334 . S
C737 C738 1.287 . S
C738 C737 1.287 . S
C738 C739 1.524 . S
C738 H757 0.913 . S
C739 H715 0.950 . S
C739 C738 1.524 . S
C739 C740 1.415 . S
C740 H716 0.950 . S
C740 C735 1.363 . S
C740 C739 1.415 . S
C741 H717 0.951 . S
C741 C742 1.366 . S
C741 C743 1.388 . S
C742 C741 1.366 . S
C742 C746 1.385 . S
C743 H718 0.951 . S
C743 C741 1.388 . S
C743 C744 1.366 . S
C744 C743 1.366 . S
C744 C745 1.414 . S
C744 C747 1.499 . S
C745 H719 0.950 . S
C745 C744 1.414 . S
C745 C746 1.374 . S
C746 H720 0.950 . S
C746 C742 1.385 . S
C746 C745 1.374 . S
C747 C744 1.499 . S
C747 C748 1.373 . S
C747 C749 1.389 . S
C748 H721 0.950 . S
C748 C734 1.377 . S
C748 C747 1.373 . S
C749 C733 1.377 . S
C749 C747 1.389 . S
C749 C750 1.524 . S
C750 C749 1.524 . S
C750 C751 1.397 1_455 S
C750 C755 1.363 1_455 S
C751 H722 0.950 1_655 S
C751 C750 1.397 1_655 S
C751 C752 1.334 . S
C752 H723 0.950 . S
C752 C751 1.334 . S
C752 C753 1.287 . S
C753 C752 1.287 . S
C753 C754 1.524 . S
C753 H756 0.999 . S
C754 H724 0.950 . S
C754 C753 1.524 . S
C754 C755 1.415 . S
C755 H725 0.950 . S
C755 C750 1.363 1_655 S
C755 C754 1.415 . S
H756 C753 0.999 . S
H757 C738 0.913 . S
H758 C776 0.951 . S
H759 C778 0.951 . S
H760 C780 0.950 . S
H761 C781 0.950 . S
H762 C783 0.950 . S
H763 C786 0.950 . S
H764 C787 0.950 1_565 S
H765 C789 0.950 . S
H766 C790 0.950 . S
H767 C791 0.951 . S
H768 C793 0.951 . S
H769 C795 0.950 . S
H770 C796 0.950 . S
H771 C798 0.950 . S
H772 C801 0.950 . S
H773 C802 0.950 . S
H774 C804 0.950 . S
H775 C805 0.950 . S
C776 H758 0.951 . S
C776 C777 1.366 . S
C776 C778 1.388 . S
C777 C776 1.366 . S
C777 C781 1.385 . S
C778 H759 0.951 . S
C778 C776 1.388 . S
C778 C779 1.366 . S
C779 C778 1.366 . S
C779 C780 1.414 . S
C779 C782 1.499 . S
C780 H760 0.950 . S
C780 C779 1.414 . S
C780 C781 1.374 . S
C781 H761 0.950 . S
C781 C777 1.385 . S
C781 C780 1.374 . S
C782 C779 1.499 . S
C782 C783 1.373 . S
C782 C784 1.389 . S
C783 H762 0.950 . S
C783 C782 1.373 . S
C783 C799 1.377 . S
C784 C782 1.389 . S
C784 C785 1.524 . S
C784 C798 1.377 . S
C785 C784 1.524 . S
C785 C786 1.397 . S
C785 C790 1.363 . S
C786 H763 0.950 . S
C786 C785 1.397 . S
C786 C787 1.334 . S
C787 H764 0.950 1_545 S
C787 C786 1.334 . S
C787 C788 1.287 . S
C788 C787 1.287 . S
C788 C789 1.524 . S
C788 H807 0.913 . S
C789 H765 0.950 . S
C789 C788 1.524 . S
C789 C790 1.415 . S
C790 H766 0.950 . S
C790 C785 1.363 . S
C790 C789 1.415 . S
C791 H767 0.951 . S
C791 C792 1.366 . S
C791 C793 1.388 . S
C792 C791 1.366 . S
C792 C796 1.385 . S
C793 H768 0.951 . S
C793 C791 1.388 . S
C793 C794 1.366 . S
C794 C793 1.366 . S
C794 C795 1.414 . S
C794 C797 1.499 . S
C795 H769 0.950 . S
C795 C794 1.414 . S
C795 C796 1.374 . S
C796 H770 0.950 . S
C796 C792 1.385 . S
C796 C795 1.374 . S
C797 C794 1.499 . S
C797 C798 1.373 . S
C797 C799 1.389 . S
C798 H771 0.950 . S
C798 C784 1.377 . S
C798 C797 1.373 . S
C799 C783 1.377 . S
C799 C797 1.389 . S
C799 C800 1.524 . S
C800 C799 1.524 . S
C800 C801 1.397 . S
C800 C805 1.363 . S
C801 H772 0.950 . S
C801 C800 1.397 . S
C801 C802 1.334 . S
C802 H773 0.950 . S
C802 C801 1.334 . S
C802 C803 1.287 . S
C803 C802 1.287 . S
C803 C804 1.524 . S
C803 H806 0.999 . S
C804 H774 0.950 . S
C804 C803 1.524 . S
C804 C805 1.415 . S
C805 H775 0.950 . S
C805 C800 1.363 . S
C805 C804 1.415 . S
H806 C803 0.999 . S
H807 C788 0.913 . S
H808 C826 0.951 . S
H809 C828 0.951 . S
H810 C830 0.950 . S
H811 C831 0.950 . S
H812 C833 0.950 . S
H813 C836 0.950 . S
H814 C837 0.950 . S
H815 C839 0.950 . S
H816 C840 0.950 . S
H817 C841 0.951 . S
H818 C843 0.951 . S
H819 C845 0.950 . S
H820 C846 0.950 . S
H821 C848 0.950 . S
H822 C851 0.950 . S
H823 C852 0.950 . S
H824 C854 0.950 . S
H825 C855 0.950 . S
C826 H808 0.951 . S
C826 C827 1.366 . S
C826 C828 1.388 . S
C827 C826 1.366 . S
C827 C831 1.385 . S
C828 H809 0.951 . S
C828 C826 1.388 . S
C828 C829 1.366 . S
C829 C828 1.366 . S
C829 C830 1.414 . S
C829 C832 1.499 . S
C830 H810 0.950 . S
C830 C829 1.414 . S
C830 C831 1.374 . S
C831 H811 0.950 . S
C831 C827 1.385 . S
C831 C830 1.374 . S
C832 C829 1.499 . S
C832 C833 1.373 . S
C832 C834 1.389 . S
C833 H812 0.950 . S
C833 C832 1.373 . S
C833 C849 1.377 . S
C834 C832 1.389 . S
C834 C835 1.524 . S
C834 C848 1.377 . S
C835 C834 1.524 . S
C835 C836 1.397 . S
C835 C840 1.363 . S
C836 H813 0.950 . S
C836 C835 1.397 . S
C836 C837 1.334 . S
C837 H814 0.950 . S
C837 C836 1.334 . S
C837 C838 1.287 . S
C838 C837 1.287 . S
C838 C839 1.524 . S
C838 H857 0.913 . S
C839 H815 0.950 . S
C839 C838 1.524 . S
C839 C840 1.415 . S
C840 H816 0.950 . S
C840 C835 1.363 . S
C840 C839 1.415 . S
C841 H817 0.951 . S
C841 C842 1.366 . S
C841 C843 1.388 . S
C842 C841 1.366 . S
C842 C846 1.385 . S
C843 H818 0.951 . S
C843 C841 1.388 . S
C843 C844 1.366 . S
C844 C843 1.366 . S
C844 C845 1.414 . S
C844 C847 1.499 . S
C845 H819 0.950 . S
C845 C844 1.414 . S
C845 C846 1.374 . S
C846 H820 0.950 . S
C846 C842 1.385 . S
C846 C845 1.374 . S
C847 C844 1.499 . S
C847 C848 1.373 . S
C847 C849 1.389 . S
C848 H821 0.950 . S
C848 C834 1.377 . S
C848 C847 1.373 . S
C849 C833 1.377 . S
C849 C847 1.389 . S
C849 C850 1.524 . S
C850 C849 1.524 . S
C850 C851 1.397 . S
C850 C855 1.363 . S
C851 H822 0.950 . S
C851 C850 1.397 . S
C851 C852 1.334 . S
C852 H823 0.950 . S
C852 C851 1.334 . S
C852 C853 1.287 . S
C853 C852 1.287 . S
C853 C854 1.524 . S
C853 H856 0.999 . S
C854 H824 0.950 . S
C854 C853 1.524 . S
C854 C855 1.415 . S
C855 H825 0.950 . S
C855 C850 1.363 . S
C855 C854 1.415 . S
H856 C853 0.999 . S
H857 C838 0.913 . S
H858 C876 0.951 . S
H859 C878 0.951 . S
H860 C880 0.950 . S
H861 C881 0.950 . S
H862 C883 0.950 . S
H863 C886 0.950 . S
H864 C887 0.950 1_655 S
H865 C889 0.950 . S
H866 C890 0.950 . S
H867 C891 0.951 . S
H868 C893 0.951 . S
H869 C895 0.950 . S
H870 C896 0.950 . S
H871 C898 0.950 . S
H872 C901 0.950 . S
H873 C902 0.950 . S
H874 C904 0.950 . S
H875 C905 0.950 . S
C876 H858 0.951 . S
C876 C877 1.366 . S
C876 C878 1.388 . S
C877 C876 1.366 . S
C877 C881 1.385 . S
C878 H859 0.951 . S
C878 C876 1.388 . S
C878 C879 1.366 . S
C879 C878 1.366 . S
C879 C880 1.414 . S
C879 C882 1.499 . S
C880 H860 0.950 . S
C880 C879 1.414 . S
C880 C881 1.374 . S
C881 H861 0.950 . S
C881 C877 1.385 . S
C881 C880 1.374 . S
C882 C879 1.499 . S
C882 C883 1.373 . S
C882 C884 1.389 . S
C883 H862 0.950 . S
C883 C882 1.373 . S
C883 C899 1.377 . S
C884 C882 1.389 . S
C884 C885 1.524 . S
C884 C898 1.377 . S
C885 C884 1.524 . S
C885 C886 1.397 . S
C885 C890 1.363 1_655 S
C886 H863 0.950 . S
C886 C885 1.397 . S
C886 C887 1.334 1_655 S
C887 H864 0.950 1_455 S
C887 C886 1.334 1_455 S
C887 C888 1.287 . S
C888 C887 1.287 . S
C888 C889 1.524 . S
C888 H907 0.913 . S
C889 H865 0.950 . S
C889 C888 1.524 . S
C889 C890 1.415 . S
C890 H866 0.950 . S
C890 C885 1.363 1_455 S
C890 C889 1.415 . S
C891 H867 0.951 . S
C891 C892 1.366 . S
C891 C893 1.388 . S
C892 C891 1.366 . S
C892 C896 1.385 . S
C893 H868 0.951 . S
C893 C891 1.388 . S
C893 C894 1.366 . S
C894 C893 1.366 . S
C894 C895 1.414 . S
C894 C897 1.499 . S
C895 H869 0.950 . S
C895 C894 1.414 . S
C895 C896 1.374 . S
C896 H870 0.950 . S
C896 C892 1.385 . S
C896 C895 1.374 . S
C897 C894 1.499 . S
C897 C898 1.373 . S
C897 C899 1.389 . S
C898 H871 0.950 . S
C898 C884 1.377 . S
C898 C897 1.373 . S
C899 C883 1.377 . S
C899 C897 1.389 . S
C899 C900 1.524 . S
C900 C899 1.524 . S
C900 C901 1.397 . S
C900 C905 1.363 . S
C901 H872 0.950 . S
C901 C900 1.397 . S
C901 C902 1.334 . S
C902 H873 0.950 . S
C902 C901 1.334 . S
C902 C903 1.287 . S
C903 C902 1.287 . S
C903 C904 1.524 . S
C903 H906 0.999 . S
C904 H874 0.950 . S
C904 C903 1.524 . S
C904 C905 1.415 . S
C905 H875 0.950 . S
C905 C900 1.363 . S
C905 C904 1.415 . S
H906 C903 0.999 . S
H907 C888 0.913 . S
H908 C926 0.951 . S
H909 C928 0.951 . S
H910 C930 0.950 . S
H911 C931 0.950 . S
H912 C933 0.950 . S
H913 C936 0.950 . S
H914 C937 0.950 . S
H915 C939 0.950 . S
H916 C940 0.950 . S
H917 C941 0.951 . S
H918 C943 0.951 . S
H919 C945 0.950 . S
H920 C946 0.950 . S
H921 C948 0.950 . S
H922 C951 0.950 . S
H923 C952 0.950 . S
H924 C954 0.950 . S
H925 C955 0.950 . S
C926 H908 0.951 . S
C926 C927 1.366 . S
C926 C928 1.388 . S
C927 C926 1.366 . S
C927 C931 1.385 . S
C928 H909 0.951 . S
C928 C926 1.388 . S
C928 C929 1.366 . S
C929 C928 1.366 . S
C929 C930 1.414 . S
C929 C932 1.499 . S
C930 H910 0.950 . S
C930 C929 1.414 . S
C930 C931 1.374 . S
C931 H911 0.950 . S
C931 C927 1.385 . S
C931 C930 1.374 . S
C932 C929 1.499 . S
C932 C933 1.373 . S
C932 C934 1.389 . S
C933 H912 0.950 . S
C933 C932 1.373 . S
C933 C949 1.377 . S
C934 C932 1.389 . S
C934 C935 1.524 . S
C934 C948 1.377 . S
C935 C934 1.524 . S
C935 C936 1.397 . S
C935 C940 1.363 1_565 S
C936 H913 0.950 . S
C936 C935 1.397 . S
C936 C937 1.334 1_565 S
C937 H914 0.950 . S
C937 C936 1.334 1_545 S
C937 C938 1.287 . S
C938 C937 1.287 . S
C938 C939 1.524 . S
C938 H957 0.913 . S
C939 H915 0.950 . S
C939 C938 1.524 . S
C939 C940 1.415 . S
C940 H916 0.950 . S
C940 C935 1.363 1_545 S
C940 C939 1.415 . S
C941 H917 0.951 . S
C941 C942 1.366 . S
C941 C943 1.388 . S
C942 C941 1.366 . S
C942 C946 1.385 . S
C943 H918 0.951 . S
C943 C941 1.388 . S
C943 C944 1.366 . S
C944 C943 1.366 . S
C944 C945 1.414 . S
C944 C947 1.499 . S
C945 H919 0.950 . S
C945 C944 1.414 . S
C945 C946 1.374 . S
C946 H920 0.950 . S
C946 C942 1.385 . S
C946 C945 1.374 . S
C947 C944 1.499 . S
C947 C948 1.373 . S
C947 C949 1.389 . S
C948 H921 0.950 . S
C948 C934 1.377 . S
C948 C947 1.373 . S
C949 C933 1.377 . S
C949 C947 1.389 . S
C949 C950 1.524 . S
C950 C949 1.524 . S
C950 C951 1.397 . S
C950 C955 1.363 . S
C951 H922 0.950 . S
C951 C950 1.397 . S
C951 C952 1.334 . S
C952 H923 0.950 . S
C952 C951 1.334 . S
C952 C953 1.287 . S
C953 C952 1.287 . S
C953 C954 1.524 . S
C953 H956 0.999 . S
C954 H924 0.950 . S
C954 C953 1.524 . S
C954 C955 1.415 . S
C955 H925 0.950 . S
C955 C950 1.363 . S
C955 C954 1.415 . S
H956 C953 0.999 . S
H957 C938 0.913 . S
H958 C976 0.951 . S
H959 C978 0.951 . S
H960 C980 0.950 . S
H961 C981 0.950 . S
H962 C983 0.950 . S
H963 C986 0.950 . S
H964 C987 0.950 . S
H965 C989 0.950 . S
H966 C990 0.950 . S
H967 C991 0.951 . S
H968 C993 0.951 . S
H969 C995 0.950 . S
H970 C996 0.950 . S
H971 C998 0.950 . S
H972 C1001 0.950 . S
H973 C1002 0.950 . S
H974 C1004 0.950 . S
H975 C1005 0.950 . S
C976 H958 0.951 . S
C976 C977 1.366 . S
C976 C978 1.388 . S
C977 C976 1.366 . S
C977 C981 1.385 . S
C978 H959 0.951 . S
C978 C976 1.388 . S
C978 C979 1.366 . S
C979 C978 1.366 . S
C979 C980 1.414 . S
C979 C982 1.499 . S
C980 H960 0.950 . S
C980 C979 1.414 . S
C980 C981 1.374 . S
C981 H961 0.950 . S
C981 C977 1.385 . S
C981 C980 1.374 . S
C982 C979 1.499 . S
C982 C983 1.373 . S
C982 C984 1.389 . S
C983 H962 0.950 . S
C983 C982 1.373 . S
C983 C999 1.377 . S
C984 C982 1.389 . S
C984 C985 1.524 . S
C984 C998 1.377 . S
C985 C984 1.524 . S
C985 C986 1.397 . S
C985 C990 1.363 . S
C986 H963 0.950 . S
C986 C985 1.397 . S
C986 C987 1.334 . S
C987 H964 0.950 . S
C987 C986 1.334 . S
C987 C988 1.287 . S
C988 C987 1.287 . S
C988 C989 1.524 . S
C988 H1007 0.913 . S
C989 H965 0.950 . S
C989 C988 1.524 . S
C989 C990 1.415 . S
C990 H966 0.950 . S
C990 C985 1.363 . S
C990 C989 1.415 . S
C991 H967 0.951 . S
C991 C992 1.366 . S
C991 C993 1.388 . S
C992 C991 1.366 . S
C992 C996 1.385 . S
C993 H968 0.951 . S
C993 C991 1.388 . S
C993 C994 1.366 . S
C994 C993 1.366 . S
C994 C995 1.414 . S
C994 C997 1.499 . S
C995 H969 0.950 . S
C995 C994 1.414 . S
C995 C996 1.374 . S
C996 H970 0.950 . S
C996 C992 1.385 . S
C996 C995 1.374 . S
C997 C994 1.499 . S
C997 C998 1.373 . S
C997 C999 1.389 . S
C998 H971 0.950 . S
C998 C984 1.377 . S
C998 C997 1.373 . S
C999 C983 1.377 . S
C999 C997 1.389 . S
C999 C1000 1.524 . S
C1000 C999 1.524 . S
C1000 C1001 1.397 . S
C1000 C1005 1.363 . S
C1001 H972 0.950 . S
C1001 C1000 1.397 . S
C1001 C1002 1.334 . S
C1002 H973 0.950 . S
C1002 C1001 1.334 . S
C1002 C1003 1.287 . S
C1003 C1002 1.287 . S
C1003 C1004 1.524 . S
C1003 H1006 0.999 . S
C1004 H974 0.950 . S
C1004 C1003 1.524 . S
C1004 C1005 1.415 . S
C1005 H975 0.950 . S
C1005 C1000 1.363 . S
C1005 C1004 1.415 . S
H1006 C1003 0.999 . S
H1007 C988 0.913 . S
H1008 C1026 0.951 . S
H1009 C1028 0.951 . S
H1010 C1030 0.950 . S
H1011 C1031 0.950 . S
H1012 C1033 0.950 . S
H1013 C1036 0.950 . S
H1014 C1037 0.950 . S
H1015 C1039 0.950 . S
H1016 C1040 0.950 . S
H1017 C1041 0.951 . S
H1018 C1043 0.951 . S
H1019 C1045 0.950 1_556 S
H1020 C1046 0.950 . S
H1021 C1048 0.950 . S
H1022 C1051 0.950 . S
H1023 C1052 0.950 . S
H1024 C1054 0.950 . S
H1025 C1055 0.950 . S
C1026 H1008 0.951 . S
C1026 C1027 1.366 . S
C1026 C1028 1.388 . S
C1027 C1026 1.366 . S
C1027 C1031 1.385 . S
C1028 H1009 0.951 . S
C1028 C1026 1.388 . S
C1028 C1029 1.366 . S
C1029 C1028 1.366 . S
C1029 C1030 1.414 . S
C1029 C1032 1.499 . S
C1030 H1010 0.950 . S
C1030 C1029 1.414 . S
C1030 C1031 1.374 . S
C1031 H1011 0.950 . S
C1031 C1027 1.385 . S
C1031 C1030 1.374 . S
C1032 C1029 1.499 . S
C1032 C1033 1.373 . S
C1032 C1034 1.389 . S
C1033 H1012 0.950 . S
C1033 C1032 1.373 . S
C1033 C1049 1.377 . S
C1034 C1032 1.389 . S
C1034 C1035 1.524 . S
C1034 C1048 1.377 . S
C1035 C1034 1.524 . S
C1035 C1036 1.397 . S
C1035 C1040 1.363 . S
C1036 H1013 0.950 . S
C1036 C1035 1.397 . S
C1036 C1037 1.334 . S
C1037 H1014 0.950 . S
C1037 C1036 1.334 . S
C1037 C1038 1.287 . S
C1038 C1037 1.287 . S
C1038 C1039 1.524 . S
C1038 H1057 0.913 . S
C1039 H1015 0.950 . S
C1039 C1038 1.524 . S
C1039 C1040 1.415 . S
C1040 H1016 0.950 . S
C1040 C1035 1.363 . S
C1040 C1039 1.415 . S
C1041 H1017 0.951 . S
C1041 C1042 1.320 1_554 S
C1041 C1043 1.388 . S
C1042 C1041 1.320 1_556 S
C1042 C1046 1.404 . S
C1043 H1018 0.951 . S
C1043 C1041 1.388 . S
C1043 C1044 1.366 . S
C1044 C1043 1.366 . S
C1044 C1045 1.414 . S
C1044 C1047 1.499 . S
C1045 H1019 0.950 1_554 S
C1045 C1044 1.414 . S
C1045 C1046 1.374 1_554 S
C1046 H1020 0.950 . S
C1046 C1042 1.404 . S
C1046 C1045 1.374 1_556 S
C1047 C1044 1.499 . S
C1047 C1048 1.373 . S
C1047 C1049 1.389 . S
C1048 H1021 0.950 . S
C1048 C1034 1.377 . S
C1048 C1047 1.373 . S
C1049 C1033 1.377 . S
C1049 C1047 1.389 . S
C1049 C1050 1.524 . S
C1050 C1049 1.524 . S
C1050 C1051 1.397 . S
C1050 C1055 1.363 . S
C1051 H1022 0.950 . S
C1051 C1050 1.397 . S
C1051 C1052 1.334 . S
C1052 H1023 0.950 . S
C1052 C1051 1.334 . S
C1052 C1053 1.287 . S
C1053 C1052 1.287 . S
C1053 C1054 1.524 . S
C1053 H1056 0.999 . S
C1054 H1024 0.950 . S
C1054 C1053 1.524 . S
C1054 C1055 1.415 . S
C1055 H1025 0.950 . S
C1055 C1050 1.363 . S
C1055 C1054 1.415 . S
H1056 C1053 0.999 . S
H1057 C1038 0.913 . S
H1058 C1076 0.951 . S
H1059 C1078 0.951 . S
H1060 C1080 0.950 . S
H1061 C1081 0.950 . S
H1062 C1083 0.950 . S
H1063 C1086 0.950 . S
H1064 C1087 0.950 . S
H1065 C1089 0.950 . S
H1066 C1090 0.950 . S
H1067 C1091 0.951 . S
H1068 C1093 0.951 . S
H1069 C1095 0.950 . S
H1070 C1096 0.950 1_455 S
H1071 C1098 0.950 . S
H1072 C1101 0.950 . S
H1073 C1102 0.950 . S
H1074 C1104 0.950 . S
H1075 C1105 0.950 . S
C1076 H1058 0.951 . S
C1076 C1077 1.366 . S
C1076 C1078 1.388 . S
C1077 C1076 1.366 . S
C1077 C1081 1.385 . S
C1078 H1059 0.951 . S
C1078 C1076 1.388 . S
C1078 C1079 1.366 . S
C1079 C1078 1.366 . S
C1079 C1080 1.414 . S
C1079 C1082 1.499 . S
C1080 H1060 0.950 . S
C1080 C1079 1.414 . S
C1080 C1081 1.374 . S
C1081 H1061 0.950 . S
C1081 C1077 1.385 . S
C1081 C1080 1.374 . S
C1082 C1079 1.499 . S
C1082 C1083 1.373 . S
C1082 C1084 1.389 . S
C1083 H1062 0.950 . S
C1083 C1082 1.373 . S
C1083 C1099 1.377 . S
C1084 C1082 1.389 . S
C1084 C1085 1.524 . S
C1084 C1098 1.377 . S
C1085 C1084 1.524 . S
C1085 C1086 1.397 . S
C1085 C1090 1.363 . S
C1086 H1063 0.950 . S
C1086 C1085 1.397 . S
C1086 C1087 1.334 . S
C1087 H1064 0.950 . S
C1087 C1086 1.334 . S
C1087 C1088 1.287 . S
C1088 C1087 1.287 . S
C1088 C1089 1.524 . S
C1088 H1107 0.913 . S
C1089 H1065 0.950 . S
C1089 C1088 1.524 . S
C1089 C1090 1.415 . S
C1090 H1066 0.950 . S
C1090 C1085 1.363 . S
C1090 C1089 1.415 . S
C1091 H1067 0.951 . S
C1091 C1092 1.366 . S
C1091 C1093 1.388 . S
C1092 C1091 1.366 . S
C1092 C1096 1.385 . S
C1093 H1068 0.951 . S
C1093 C1091 1.388 . S
C1093 C1094 1.366 . S
C1094 C1093 1.366 . S
C1094 C1095 1.414 . S
C1094 C1097 1.499 . S
C1095 H1069 0.950 . S
C1095 C1094 1.414 . S
C1095 C1096 1.374 . S
C1096 H1070 0.950 1_655 S
C1096 C1092 1.385 . S
C1096 C1095 1.374 . S
C1097 C1094 1.499 . S
C1097 C1098 1.373 . S
C1097 C1099 1.389 . S
C1098 H1071 0.950 . S
C1098 C1084 1.377 . S
C1098 C1097 1.373 . S
C1099 C1083 1.377 . S
C1099 C1097 1.389 . S
C1099 C1100 1.524 . S
C1100 C1099 1.524 . S
C1100 C1101 1.397 . S
C1100 C1105 1.363 . S
C1101 H1072 0.950 . S
C1101 C1100 1.397 . S
C1101 C1102 1.334 . S
C1102 H1073 0.950 . S
C1102 C1101 1.334 . S
C1102 C1103 1.287 . S
C1103 C1102 1.287 . S
C1103 C1104 1.524 . S
C1103 H1106 0.999 . S
C1104 H1074 0.950 . S
C1104 C1103 1.524 . S
C1104 C1105 1.415 . S
C1105 H1075 0.950 . S
C1105 C1100 1.363 . S
C1105 C1104 1.415 . S
H1106 C1103 0.999 . S
H1107 C1088 0.913 . S
H1108 C1126 0.951 . S
H1109 C1128 0.951 . S
H1110 C1130 0.950 . S
H1111 C1131 0.950 . S
H1112 C1133 0.950 . S
H1113 C1136 0.950 . S
H1114 C1137 0.950 . S
H1115 C1139 0.950 . S
H1116 C1140 0.950 . S
H1117 C1141 0.969 . S
H1118 C1143 0.951 . S
H1119 C1145 0.950 . S
H1120 C1146 0.950 . S
H1121 C1148 0.950 . S
H1122 C1151 0.950 . S
H1123 C1152 0.950 . S
H1124 C1154 0.950 . S
H1125 C1155 0.950 . S
C1126 H1108 0.951 . S
C1126 C1127 1.366 . S
C1126 C1128 1.388 . S
C1127 C1126 1.366 . S
C1127 C1131 1.385 . S
C1128 H1109 0.951 . S
C1128 C1126 1.388 . S
C1128 C1129 1.366 . S
C1129 C1128 1.366 . S
C1129 C1130 1.414 . S
C1129 C1132 1.499 . S
C1130 H1110 0.950 . S
C1130 C1129 1.414 . S
C1130 C1131 1.374 . S
C1131 H1111 0.950 . S
C1131 C1127 1.385 . S
C1131 C1130 1.374 . S
C1132 C1129 1.499 . S
C1132 C1133 1.373 . S
C1132 C1134 1.389 . S
C1133 H1112 0.950 . S
C1133 C1132 1.373 . S
C1133 C1149 1.377 . S
C1134 C1132 1.389 . S
C1134 C1135 1.524 . S
C1134 C1148 1.377 . S
C1135 C1134 1.524 . S
C1135 C1136 1.397 . S
C1135 C1140 1.363 . S
C1136 H1113 0.950 . S
C1136 C1135 1.397 . S
C1136 C1137 1.334 . S
C1137 H1114 0.950 . S
C1137 C1136 1.334 . S
C1137 C1138 1.287 . S
C1138 C1137 1.287 . S
C1138 C1139 1.524 . S
C1138 H1157 0.913 . S
C1139 H1115 0.950 . S
C1139 C1138 1.524 . S
C1139 C1140 1.415 . S
C1140 H1116 0.950 . S
C1140 C1135 1.363 . S
C1140 C1139 1.415 . S
C1141 H1117 0.969 . S
C1141 C1142 1.366 1_545 S
C1141 C1143 1.370 1_545 S
C1142 C1141 1.366 1_565 S
C1142 C1146 1.385 . S
C1143 H1118 0.951 . S
C1143 C1141 1.370 1_565 S
C1143 C1144 1.366 . S
C1144 C1143 1.366 . S
C1144 C1145 1.414 . S
C1144 C1147 1.499 . S
C1145 H1119 0.950 . S
C1145 C1144 1.414 . S
C1145 C1146 1.374 . S
C1146 H1120 0.950 . S
C1146 C1142 1.385 . S
C1146 C1145 1.374 . S
C1147 C1144 1.499 . S
C1147 C1148 1.373 . S
C1147 C1149 1.389 . S
C1148 H1121 0.950 . S
C1148 C1134 1.377 . S
C1148 C1147 1.373 . S
C1149 C1133 1.377 . S
C1149 C1147 1.389 . S
C1149 C1150 1.524 . S
C1150 C1149 1.524 . S
C1150 C1151 1.397 . S
C1150 C1155 1.363 . S
C1151 H1122 0.950 . S
C1151 C1150 1.397 . S
C1151 C1152 1.334 . S
C1152 H1123 0.950 . S
C1152 C1151 1.334 . S
C1152 C1153 1.287 . S
C1153 C1152 1.287 . S
C1153 C1154 1.524 . S
C1153 H1156 0.999 . S
C1154 H1124 0.950 . S
C1154 C1153 1.524 . S
C1154 C1155 1.415 . S
C1155 H1125 0.950 . S
C1155 C1150 1.363 . S
C1155 C1154 1.415 . S
H1156 C1153 0.999 . S
H1157 C1138 0.913 . S
H1158 C1176 0.951 . S
H1159 C1178 0.951 . S
H1160 C1180 0.950 . S
H1161 C1181 0.950 . S
H1162 C1183 0.950 . S
H1163 C1186 0.950 . S
H1164 C1187 0.950 . S
H1165 C1189 0.950 . S
H1166 C1190 0.950 . S
H1167 C1191 0.951 . S
H1168 C1193 0.951 . S
H1169 C1195 0.950 . S
H1170 C1196 0.950 . S
H1171 C1198 0.950 . S
H1172 C1201 0.950 . S
H1173 C1202 0.950 . S
H1174 C1204 0.950 . S
H1175 C1205 0.950 . S
C1176 H1158 0.951 . S
C1176 C1177 1.366 . S
C1176 C1178 1.388 . S
C1177 C1176 1.366 . S
C1177 C1181 1.385 . S
C1178 H1159 0.951 . S
C1178 C1176 1.388 . S
C1178 C1179 1.366 . S
C1179 C1178 1.366 . S
C1179 C1180 1.414 . S
C1179 C1182 1.499 . S
C1180 H1160 0.950 . S
C1180 C1179 1.414 . S
C1180 C1181 1.374 . S
C1181 H1161 0.950 . S
C1181 C1177 1.385 . S
C1181 C1180 1.374 . S
C1182 C1179 1.499 . S
C1182 C1183 1.373 . S
C1182 C1184 1.389 . S
C1183 H1162 0.950 . S
C1183 C1182 1.373 . S
C1183 C1199 1.377 . S
C1184 C1182 1.389 . S
C1184 C1185 1.524 . S
C1184 C1198 1.377 . S
C1185 C1184 1.524 . S
C1185 C1186 1.397 . S
C1185 C1190 1.363 . S
C1186 H1163 0.950 . S
C1186 C1185 1.397 . S
C1186 C1187 1.334 . S
C1187 H1164 0.950 . S
C1187 C1186 1.334 . S
C1187 C1188 1.287 . S
C1188 C1187 1.287 . S
C1188 C1189 1.524 . S
C1188 H1207 0.913 . S
C1189 H1165 0.950 . S
C1189 C1188 1.524 . S
C1189 C1190 1.415 . S
C1190 H1166 0.950 . S
C1190 C1185 1.363 . S
C1190 C1189 1.415 . S
C1191 H1167 0.951 . S
C1191 C1192 1.366 . S
C1191 C1193 1.388 . S
C1192 C1191 1.366 . S
C1192 C1196 1.385 . S
C1193 H1168 0.951 . S
C1193 C1191 1.388 . S
C1193 C1194 1.366 . S
C1194 C1193 1.366 . S
C1194 C1195 1.414 . S
C1194 C1197 1.499 . S
C1195 H1169 0.950 . S
C1195 C1194 1.414 . S
C1195 C1196 1.374 . S
C1196 H1170 0.950 . S
C1196 C1192 1.385 . S
C1196 C1195 1.374 . S
C1197 C1194 1.499 . S
C1197 C1198 1.373 . S
C1197 C1199 1.389 . S
C1198 H1171 0.950 . S
C1198 C1184 1.377 . S
C1198 C1197 1.373 . S
C1199 C1183 1.377 . S
C1199 C1197 1.389 . S
C1199 C1200 1.524 . S
C1200 C1199 1.524 . S
C1200 C1201 1.397 . S
C1200 C1205 1.363 . S
C1201 H1172 0.950 . S
C1201 C1200 1.397 . S
C1201 C1202 1.334 . S
C1202 H1173 0.950 . S
C1202 C1201 1.334 . S
C1202 C1203 1.287 . S
C1203 C1202 1.287 . S
C1203 C1204 1.524 . S
C1203 H1206 0.999 . S
C1204 H1174 0.950 . S
C1204 C1203 1.524 . S
C1204 C1205 1.415 . S
C1205 H1175 0.950 . S
C1205 C1200 1.363 . S
C1205 C1204 1.415 . S
H1206 C1203 0.999 . S
H1207 C1188 0.913 . S
H1208 C1226 0.951 . S
H1209 C1228 0.951 . S
H1210 C1230 0.950 . S
H1211 C1231 0.950 . S
H1212 C1233 0.950 . S
H1213 C1236 0.950 . S
H1214 C1237 0.950 . S
H1215 C1239 0.950 . S
H1216 C1240 0.950 . S
H1217 C1241 0.951 . S
H1218 C1243 0.951 . S
H1219 C1245 0.950 . S
H1220 C1246 0.950 . S
H1221 C1248 0.950 . S
H1222 C1251 0.950 . S
H1223 C1252 0.950 . S
H1224 C1254 0.950 . S
H1225 C1255 0.950 . S
C1226 H1208 0.951 . S
C1226 C1227 1.366 . S
C1226 C1228 1.388 . S
C1227 C1226 1.366 . S
C1227 C1231 1.385 . S
C1228 H1209 0.951 . S
C1228 C1226 1.388 . S
C1228 C1229 1.366 . S
C1229 C1228 1.366 . S
C1229 C1230 1.414 . S
C1229 C1232 1.499 . S
C1230 H1210 0.950 . S
C1230 C1229 1.414 . S
C1230 C1231 1.374 . S
C1231 H1211 0.950 . S
C1231 C1227 1.385 . S
C1231 C1230 1.374 . S
C1232 C1229 1.499 . S
C1232 C1233 1.373 . S
C1232 C1234 1.389 . S
C1233 H1212 0.950 . S
C1233 C1232 1.373 . S
C1233 C1249 1.377 . S
C1234 C1232 1.389 . S
C1234 C1235 1.524 . S
C1234 C1248 1.377 . S
C1235 C1234 1.524 . S
C1235 C1236 1.397 . S
C1235 C1240 1.363 . S
C1236 H1213 0.950 . S
C1236 C1235 1.397 . S
C1236 C1237 1.334 . S
C1237 H1214 0.950 . S
C1237 C1236 1.334 . S
C1237 C1238 1.287 . S
C1238 C1237 1.287 . S
C1238 C1239 1.524 . S
C1238 H1257 0.913 . S
C1239 H1215 0.950 . S
C1239 C1238 1.524 . S
C1239 C1240 1.415 . S
C1240 H1216 0.950 . S
C1240 C1235 1.363 . S
C1240 C1239 1.415 . S
C1241 H1217 0.951 . S
C1241 C1242 1.366 . S
C1241 C1243 1.388 . S
C1242 C1241 1.366 . S
C1242 C1246 1.385 . S
C1243 H1218 0.951 . S
C1243 C1241 1.388 . S
C1243 C1244 1.366 . S
C1244 C1243 1.366 . S
C1244 C1245 1.414 . S
C1244 C1247 1.499 . S
C1245 H1219 0.950 . S
C1245 C1244 1.414 . S
C1245 C1246 1.374 . S
C1246 H1220 0.950 . S
C1246 C1242 1.385 . S
C1246 C1245 1.374 . S
C1247 C1244 1.499 . S
C1247 C1248 1.373 . S
C1247 C1249 1.389 . S
C1248 H1221 0.950 . S
C1248 C1234 1.377 . S
C1248 C1247 1.373 . S
C1249 C1233 1.377 . S
C1249 C1247 1.389 . S
C1249 C1250 1.524 . S
C1250 C1249 1.524 . S
C1250 C1251 1.397 . S
C1250 C1255 1.363 . S
C1251 H1222 0.950 . S
C1251 C1250 1.397 . S
C1251 C1252 1.334 . S
C1252 H1223 0.950 . S
C1252 C1251 1.334 . S
C1252 C1253 1.287 . S
C1253 C1252 1.287 . S
C1253 C1254 1.524 . S
C1253 H1256 0.999 . S
C1254 H1224 0.950 . S
C1254 C1253 1.524 . S
C1254 C1255 1.415 . S
C1255 H1225 0.950 . S
C1255 C1250 1.363 . S
C1255 C1254 1.415 . S
H1256 C1253 0.999 . S
H1257 C1238 0.913 . S
H1258 C1276 0.951 . S
H1259 C1278 0.951 . S
H1260 C1280 0.950 . S
H1261 C1281 0.931 1_565 S
H1262 C1283 0.950 . S
H1263 C1286 0.950 . S
H1264 C1287 0.950 . S
H1265 C1289 0.950 . S
H1266 C1290 0.950 . S
H1267 C1291 0.951 . S
H1268 C1293 0.951 . S
H1269 C1295 0.950 . S
H1270 C1296 0.950 . S
H1271 C1298 0.950 . S
H1272 C1301 0.950 . S
H1273 C1302 0.950 . S
H1274 C1304 0.950 . S
H1275 C1305 0.950 . S
C1276 H1258 0.951 . S
C1276 C1277 1.366 . S
C1276 C1278 1.388 . S
C1277 C1276 1.366 . S
C1277 C1281 1.374 . S
C1278 H1259 0.951 . S
C1278 C1276 1.388 . S
C1278 C1279 1.366 . S
C1279 C1278 1.366 . S
C1279 C1280 1.414 . S
C1279 C1282 1.499 . S
C1280 H1260 0.950 . S
C1280 C1279 1.414 . S
C1280 C1281 1.405 . S
C1281 H1261 0.931 1_545 S
C1281 C1277 1.374 . S
C1281 C1280 1.405 . S
C1282 C1279 1.499 . S
C1282 C1283 1.373 . S
C1282 C1284 1.389 . S
C1283 H1262 0.950 . S
C1283 C1282 1.373 . S
C1283 C1299 1.377 . S
C1284 C1282 1.389 . S
C1284 C1285 1.524 . S
C1284 C1298 1.377 . S
C1285 C1284 1.524 . S
C1285 C1286 1.397 . S
C1285 C1290 1.363 . S
C1286 H1263 0.950 . S
C1286 C1285 1.397 . S
C1286 C1287 1.334 . S
C1287 H1264 0.950 . S
C1287 C1286 1.334 . S
C1287 C1288 1.287 . S
C1288 C1287 1.287 . S
C1288 C1289 1.524 . S
C1288 H1307 0.913 . S
C1289 H1265 0.950 . S
C1289 C1288 1.524 . S
C1289 C1290 1.415 . S
C1290 H1266 0.950 . S
C1290 C1285 1.363 . S
C1290 C1289 1.415 . S
C1291 H1267 0.951 . S
C1291 C1292 1.366 . S
C1291 C1293 1.388 . S
C1292 C1291 1.366 . S
C1292 C1296 1.385 . S
C1293 H1268 0.951 . S
C1293 C1291 1.388 . S
C1293 C1294 1.366 . S
C1294 C1293 1.366 . S
C1294 C1295 1.414 . S
C1294 C1297 1.499 . S
C1295 H1269 0.950 . S
C1295 C1294 1.414 . S
C1295 C1296 1.374 . S
C1296 H1270 0.950 . S
C1296 C1292 1.385 . S
C1296 C1295 1.374 . S
C1297 C1294 1.499 . S
C1297 C1298 1.373 . S
C1297 C1299 1.389 . S
C1298 H1271 0.950 . S
C1298 C1284 1.377 . S
C1298 C1297 1.373 . S
C1299 C1283 1.377 . S
C1299 C1297 1.389 . S
C1299 C1300 1.524 . S
C1300 C1299 1.524 . S
C1300 C1301 1.397 . S
C1300 C1305 1.363 . S
C1301 H1272 0.950 . S
C1301 C1300 1.397 . S
C1301 C1302 1.334 . S
C1302 H1273 0.950 . S
C1302 C1301 1.334 . S
C1302 C1303 1.287 . S
C1303 C1302 1.287 . S
C1303 C1304 1.524 . S
C1303 H1306 0.999 . S
C1304 H1274 0.950 . S
C1304 C1303 1.524 . S
C1304 C1305 1.415 . S
C1305 H1275 0.950 . S
C1305 C1300 1.363 . S
C1305 C1304 1.415 . S
H1306 C1303 0.999 . S
H1307 C1288 0.913 . S
H1308 C1326 0.951 . S
H1309 C1328 0.951 . S
H1310 C1330 0.950 . S
H1311 C1331 0.950 . S
H1312 C1333 0.950 . S
H1313 C1336 0.950 . S
H1314 C1337 0.950 . S
H1315 C1339 0.950 . S
H1316 C1340 0.950 . S
H1317 C1341 0.951 . S
H1318 C1343 0.951 . S
H1319 C1345 0.950 . S
H1320 C1346 0.950 . S
H1321 C1348 0.950 . S
H1322 C1351 0.950 . S
H1323 C1352 0.950 . S
H1324 C1354 0.950 . S
H1325 C1355 0.950 . S
C1326 H1308 0.951 . S
C1326 C1327 1.366 . S
C1326 C1328 1.388 . S
C1327 C1326 1.366 . S
C1327 C1331 1.385 . S
C1328 H1309 0.951 . S
C1328 C1326 1.388 . S
C1328 C1329 1.366 . S
C1329 C1328 1.366 . S
C1329 C1330 1.414 . S
C1329 C1332 1.499 . S
C1330 H1310 0.950 . S
C1330 C1329 1.414 . S
C1330 C1331 1.374 . S
C1331 H1311 0.950 . S
C1331 C1327 1.385 . S
C1331 C1330 1.374 . S
C1332 C1329 1.499 . S
C1332 C1333 1.373 . S
C1332 C1334 1.389 . S
C1333 H1312 0.950 . S
C1333 C1332 1.373 . S
C1333 C1349 1.377 . S
C1334 C1332 1.389 . S
C1334 C1335 1.524 . S
C1334 C1348 1.377 . S
C1335 C1334 1.524 . S
C1335 C1336 1.397 . S
C1335 C1340 1.363 . S
C1336 H1313 0.950 . S
C1336 C1335 1.397 . S
C1336 C1337 1.334 . S
C1337 H1314 0.950 . S
C1337 C1336 1.334 . S
C1337 C1338 1.287 . S
C1338 C1337 1.287 . S
C1338 C1339 1.524 . S
C1338 H1357 0.913 . S
C1339 H1315 0.950 . S
C1339 C1338 1.524 . S
C1339 C1340 1.415 . S
C1340 H1316 0.950 . S
C1340 C1335 1.363 . S
C1340 C1339 1.415 . S
C1341 H1317 0.951 . S
C1341 C1342 1.366 . S
C1341 C1343 1.388 . S
C1342 C1341 1.366 . S
C1342 C1346 1.385 . S
C1343 H1318 0.951 . S
C1343 C1341 1.388 . S
C1343 C1344 1.366 . S
C1344 C1343 1.366 . S
C1344 C1345 1.414 . S
C1344 C1347 1.499 . S
C1345 H1319 0.950 . S
C1345 C1344 1.414 . S
C1345 C1346 1.374 . S
C1346 H1320 0.950 . S
C1346 C1342 1.385 . S
C1346 C1345 1.374 . S
C1347 C1344 1.499 . S
C1347 C1348 1.373 . S
C1347 C1349 1.389 . S
C1348 H1321 0.950 . S
C1348 C1334 1.377 . S
C1348 C1347 1.373 . S
C1349 C1333 1.377 . S
C1349 C1347 1.389 . S
C1349 C1350 1.524 . S
C1350 C1349 1.524 . S
C1350 C1351 1.397 . S
C1350 C1355 1.363 . S
C1351 H1322 0.950 . S
C1351 C1350 1.397 . S
C1351 C1352 1.334 . S
C1352 H1323 0.950 . S
C1352 C1351 1.334 . S
C1352 C1353 1.287 . S
C1353 C1352 1.287 . S
C1353 C1354 1.524 . S
C1353 H1356 0.999 . S
C1354 H1324 0.950 . S
C1354 C1353 1.524 . S
C1354 C1355 1.415 . S
C1355 H1325 0.950 . S
C1355 C1350 1.363 . S
C1355 C1354 1.415 . S
H1356 C1353 0.999 . S
H1357 C1338 0.913 . S
H1358 C1376 0.951 . S
H1359 C1378 0.951 . S
H1360 C1380 0.950 . S
H1361 C1381 0.950 . S
H1362 C1383 0.950 . S
H1363 C1386 0.950 . S
H1364 C1387 0.950 . S
H1365 C1389 0.950 . S
H1366 C1390 0.950 . S
H1367 C1391 0.951 . S
H1368 C1393 0.951 . S
H1369 C1395 0.950 . S
H1370 C1396 0.950 1_454 S
H1371 C1398 0.950 . S
H1372 C1401 0.950 . S
H1373 C1402 0.950 . S
H1374 C1404 0.949 . S
H1375 C1405 0.950 . S
C1376 H1358 0.951 . S
C1376 C1377 1.366 . S
C1376 C1378 1.388 . S
C1377 C1376 1.366 . S
C1377 C1381 1.385 . S
C1378 H1359 0.951 . S
C1378 C1376 1.388 . S
C1378 C1379 1.366 . S
C1379 C1378 1.366 . S
C1379 C1380 1.414 . S
C1379 C1382 1.499 . S
C1380 H1360 0.950 . S
C1380 C1379 1.414 . S
C1380 C1381 1.374 . S
C1381 H1361 0.950 . S
C1381 C1377 1.385 . S
C1381 C1380 1.374 . S
C1382 C1379 1.499 . S
C1382 C1383 1.373 . S
C1382 C1384 1.389 . S
C1383 H1362 0.950 . S
C1383 C1382 1.373 . S
C1383 C1399 1.377 . S
C1384 C1382 1.389 . S
C1384 C1385 1.524 . S
C1384 C1398 1.377 . S
C1385 C1384 1.524 . S
C1385 C1386 1.397 . S
C1385 C1390 1.363 . S
C1386 H1363 0.950 . S
C1386 C1385 1.397 . S
C1386 C1387 1.334 . S
C1387 H1364 0.950 . S
C1387 C1386 1.334 . S
C1387 C1388 1.287 . S
C1388 C1387 1.287 . S
C1388 C1389 1.524 . S
C1388 H1407 0.913 . S
C1389 H1365 0.950 . S
C1389 C1388 1.524 . S
C1389 C1390 1.415 . S
C1390 H1366 0.950 . S
C1390 C1385 1.363 . S
C1390 C1389 1.415 . S
C1391 H1367 0.951 . S
C1391 C1392 1.350 1_556 S
C1391 C1393 1.388 . S
C1392 C1391 1.350 1_554 S
C1392 C1396 1.375 1_554 S
C1393 H1368 0.951 . S
C1393 C1391 1.388 . S
C1393 C1394 1.366 . S
C1394 C1393 1.366 . S
C1394 C1395 1.414 . S
C1394 C1397 1.499 . S
C1395 H1369 0.950 . S
C1395 C1394 1.414 . S
C1395 C1396 1.374 . S
C1396 H1370 0.950 1_656 S
C1396 C1392 1.375 1_556 S
C1396 C1395 1.374 . S
C1397 C1394 1.499 . S
C1397 C1398 1.373 . S
C1397 C1399 1.389 . S
C1398 H1371 0.950 . S
C1398 C1384 1.377 . S
C1398 C1397 1.373 . S
C1399 C1383 1.377 . S
C1399 C1397 1.389 . S
C1399 C1400 1.524 . S
C1400 C1399 1.524 . S
C1400 C1401 1.397 1_556 S
C1400 C1405 1.363 . S
C1401 H1372 0.950 . S
C1401 C1400 1.397 1_554 S
C1401 C1402 1.334 . S
C1402 H1373 0.950 . S
C1402 C1401 1.334 . S
C1402 C1403 1.287 . S
C1403 C1402 1.287 . S
C1403 C1404 1.564 . S
C1403 H1406 0.999 . S
C1404 H1374 0.949 . S
C1404 C1403 1.564 . S
C1404 C1405 1.377 1_554 S
C1405 H1375 0.950 . S
C1405 C1400 1.363 . S
C1405 C1404 1.377 1_556 S
H1406 C1403 0.999 . S
H1407 C1388 0.913 . S
H1408 C1426 0.951 1_545 S
H1409 C1428 0.951 . S
H1410 C1430 0.950 . S
H1411 C1431 0.950 . S
H1412 C1433 0.950 . S
H1413 C1436 0.950 . S
H1414 C1437 0.950 . S
H1415 C1439 0.950 . S
H1416 C1440 0.950 . S
H1417 C1441 0.951 . S
H1418 C1443 0.951 . S
H1419 C1445 0.950 . S
H1420 C1446 0.950 . S
H1421 C1448 0.950 . S
H1422 C1451 0.950 . S
H1423 C1452 0.950 . S
H1424 C1454 0.950 . S
H1425 C1455 0.950 . S
C1426 H1408 0.951 1_565 S
C1426 C1427 1.366 . S
C1426 C1428 1.388 . S
C1427 C1426 1.366 . S
C1427 C1431 1.385 . S
C1428 H1409 0.951 . S
C1428 C1426 1.388 . S
C1428 C1429 1.366 . S
C1429 C1428 1.366 . S
C1429 C1430 1.414 . S
C1429 C1432 1.499 . S
C1430 H1410 0.950 . S
C1430 C1429 1.414 . S
C1430 C1431 1.374 . S
C1431 H1411 0.950 . S
C1431 C1427 1.385 . S
C1431 C1430 1.374 . S
C1432 C1429 1.499 . S
C1432 C1433 1.373 . S
C1432 C1434 1.389 . S
C1433 H1412 0.950 . S
C1433 C1432 1.373 . S
C1433 C1449 1.377 . S
C1434 C1432 1.389 . S
C1434 C1435 1.524 . S
C1434 C1448 1.377 . S
C1435 C1434 1.524 . S
C1435 C1436 1.397 . S
C1435 C1440 1.363 . S
C1436 H1413 0.950 . S
C1436 C1435 1.397 . S
C1436 C1437 1.334 1_565 S
C1437 H1414 0.950 . S
C1437 C1436 1.334 1_545 S
C1437 C1438 1.287 . S
C1438 C1437 1.287 . S
C1438 C1439 1.524 1_545 S
C1438 H1457 0.913 . S
C1439 H1415 0.950 . S
C1439 C1438 1.524 1_565 S
C1439 C1440 1.415 . S
C1440 H1416 0.950 . S
C1440 C1435 1.363 . S
C1440 C1439 1.415 . S
C1441 H1417 0.951 . S
C1441 C1442 1.366 . S
C1441 C1443 1.388 . S
C1442 C1441 1.366 . S
C1442 C1446 1.385 . S
C1443 H1418 0.951 . S
C1443 C1441 1.388 . S
C1443 C1444 1.366 . S
C1444 C1443 1.366 . S
C1444 C1445 1.414 . S
C1444 C1447 1.499 . S
C1445 H1419 0.950 . S
C1445 C1444 1.414 . S
C1445 C1446 1.374 . S
C1446 H1420 0.950 . S
C1446 C1442 1.385 . S
C1446 C1445 1.374 . S
C1447 C1444 1.499 . S
C1447 C1448 1.373 . S
C1447 C1449 1.389 . S
C1448 H1421 0.950 . S
C1448 C1434 1.377 . S
C1448 C1447 1.373 . S
C1449 C1433 1.377 . S
C1449 C1447 1.389 . S
C1449 C1450 1.524 . S
C1450 C1449 1.524 . S
C1450 C1451 1.397 . S
C1450 C1455 1.363 . S
C1451 H1422 0.950 . S
C1451 C1450 1.397 . S
C1451 C1452 1.334 . S
C1452 H1423 0.950 . S
C1452 C1451 1.334 . S
C1452 C1453 1.287 . S
C1453 C1452 1.287 . S
C1453 C1454 1.524 . S
C1453 H1456 0.999 . S
C1454 H1424 0.950 . S
C1454 C1453 1.524 . S
C1454 C1455 1.415 . S
C1455 H1425 0.950 . S
C1455 C1450 1.363 . S
C1455 C1454 1.415 . S
H1456 C1453 0.999 . S
H1457 C1438 0.913 . S
H1458 C1476 0.951 . S
H1459 C1478 0.951 . S
H1460 C1480 0.950 . S
H1461 C1481 0.950 . S
H1462 C1483 0.950 . S
H1463 C1486 0.950 . S
H1464 C1487 0.950 . S
H1465 C1489 0.950 . S
H1466 C1490 0.950 . S
H1467 C1491 0.951 . S
H1468 C1493 0.951 . S
H1469 C1495 0.950 . S
H1470 C1496 0.950 . S
H1471 C1498 0.950 . S
H1472 C1501 0.950 . S
H1473 C1502 0.950 . S
H1474 C1504 0.950 . S
H1475 C1505 0.950 . S
C1476 H1458 0.951 . S
C1476 C1477 1.366 . S
C1476 C1478 1.388 . S
C1477 C1476 1.366 . S
C1477 C1481 1.385 . S
C1478 H1459 0.951 . S
C1478 C1476 1.388 . S
C1478 C1479 1.366 . S
C1479 C1478 1.366 . S
C1479 C1480 1.414 . S
C1479 C1482 1.499 . S
C1480 H1460 0.950 . S
C1480 C1479 1.414 . S
C1480 C1481 1.374 . S
C1481 H1461 0.950 . S
C1481 C1477 1.385 . S
C1481 C1480 1.374 . S
C1482 C1479 1.499 . S
C1482 C1483 1.373 . S
C1482 C1484 1.389 . S
C1483 H1462 0.950 . S
C1483 C1482 1.373 . S
C1483 C1499 1.377 . S
C1484 C1482 1.389 . S
C1484 C1485 1.524 . S
C1484 C1498 1.377 . S
C1485 C1484 1.524 . S
C1485 C1486 1.397 . S
C1485 C1490 1.363 . S
C1486 H1463 0.950 . S
C1486 C1485 1.397 . S
C1486 C1487 1.334 . S
C1487 H1464 0.950 . S
C1487 C1486 1.334 . S
C1487 C1488 1.287 . S
C1488 C1487 1.287 . S
C1488 C1489 1.524 . S
C1488 H1507 0.913 . S
C1489 H1465 0.950 . S
C1489 C1488 1.524 . S
C1489 C1490 1.415 . S
C1490 H1466 0.950 . S
C1490 C1485 1.363 . S
C1490 C1489 1.415 . S
C1491 H1467 0.951 . S
C1491 C1492 1.366 . S
C1491 C1493 1.388 . S
C1492 C1491 1.366 . S
C1492 C1496 1.385 . S
C1493 H1468 0.951 . S
C1493 C1491 1.388 . S
C1493 C1494 1.366 . S
C1494 C1493 1.366 . S
C1494 C1495 1.414 . S
C1494 C1497 1.499 . S
C1495 H1469 0.950 . S
C1495 C1494 1.414 . S
C1495 C1496 1.374 . S
C1496 H1470 0.950 . S
C1496 C1492 1.385 . S
C1496 C1495 1.374 . S
C1497 C1494 1.499 . S
C1497 C1498 1.373 . S
C1497 C1499 1.389 . S
C1498 H1471 0.950 . S
C1498 C1484 1.377 . S
C1498 C1497 1.373 . S
C1499 C1483 1.377 . S
C1499 C1497 1.389 . S
C1499 C1500 1.524 . S
C1500 C1499 1.524 . S
C1500 C1501 1.397 . S
C1500 C1505 1.363 . S
C1501 H1472 0.950 . S
C1501 C1500 1.397 . S
C1501 C1502 1.334 . S
C1502 H1473 0.950 . S
C1502 C1501 1.334 . S
C1502 C1503 1.287 . S
C1503 C1502 1.287 . S
C1503 C1504 1.524 . S
C1503 H1506 0.999 . S
C1504 H1474 0.950 . S
C1504 C1503 1.524 . S
C1504 C1505 1.415 . S
C1505 H1475 0.950 . S
C1505 C1500 1.363 . S
C1505 C1504 1.415 . S
H1506 C1503 0.999 . S
H1507 C1488 0.913 . S
H1508 C1526 0.951 . S
H1509 C1528 0.951 . S
H1510 C1530 0.950 . S
H1511 C1531 0.950 . S
H1512 C1533 0.950 . S
H1513 C1536 0.950 . S
H1514 C1537 0.950 . S
H1515 C1539 0.950 . S
H1516 C1540 0.950 . S
H1517 C1541 0.951 . S
H1518 C1543 0.951 . S
H1519 C1545 0.950 . S
H1520 C1546 0.950 1_655 S
H1521 C1548 0.950 . S
H1522 C1551 0.950 . S
H1523 C1552 0.950 . S
H1524 C1554 0.950 . S
H1525 C1555 0.950 . S
C1526 H1508 0.951 . S
C1526 C1527 1.366 . S
C1526 C1528 1.388 . S
C1527 C1526 1.366 . S
C1527 C1531 1.385 . S
C1528 H1509 0.951 . S
C1528 C1526 1.388 . S
C1528 C1529 1.366 . S
C1529 C1528 1.366 . S
C1529 C1530 1.414 . S
C1529 C1532 1.499 . S
C1530 H1510 0.950 . S
C1530 C1529 1.414 . S
C1530 C1531 1.374 . S
C1531 H1511 0.950 . S
C1531 C1527 1.385 . S
C1531 C1530 1.374 . S
C1532 C1529 1.499 . S
C1532 C1533 1.373 . S
C1532 C1534 1.389 . S
C1533 H1512 0.950 . S
C1533 C1532 1.373 . S
C1533 C1549 1.377 . S
C1534 C1532 1.389 . S
C1534 C1535 1.524 . S
C1534 C1548 1.377 . S
C1535 C1534 1.524 . S
C1535 C1536 1.397 . S
C1535 C1540 1.363 . S
C1536 H1513 0.950 . S
C1536 C1535 1.397 . S
C1536 C1537 1.334 . S
C1537 H1514 0.950 . S
C1537 C1536 1.334 . S
C1537 C1538 1.287 . S
C1538 C1537 1.287 . S
C1538 C1539 1.524 . S
C1538 H1557 0.913 . S
C1539 H1515 0.950 . S
C1539 C1538 1.524 . S
C1539 C1540 1.415 . S
C1540 H1516 0.950 . S
C1540 C1535 1.363 . S
C1540 C1539 1.415 . S
C1541 H1517 0.951 . S
C1541 C1542 1.366 . S
C1541 C1543 1.388 . S
C1542 C1541 1.366 . S
C1542 C1546 1.385 . S
C1543 H1518 0.951 . S
C1543 C1541 1.388 . S
C1543 C1544 1.366 . S
C1544 C1543 1.366 . S
C1544 C1545 1.414 . S
C1544 C1547 1.499 . S
C1545 H1519 0.950 . S
C1545 C1544 1.414 . S
C1545 C1546 1.374 . S
C1546 H1520 0.950 1_455 S
C1546 C1542 1.385 . S
C1546 C1545 1.374 . S
C1547 C1544 1.499 . S
C1547 C1548 1.373 . S
C1547 C1549 1.389 . S
C1548 H1521 0.950 . S
C1548 C1534 1.377 . S
C1548 C1547 1.373 . S
C1549 C1533 1.377 . S
C1549 C1547 1.389 . S
C1549 C1550 1.524 . S
C1550 C1549 1.524 . S
C1550 C1551 1.397 . S
C1550 C1555 1.363 . S
C1551 H1522 0.950 . S
C1551 C1550 1.397 . S
C1551 C1552 1.334 . S
C1552 H1523 0.950 . S
C1552 C1551 1.334 . S
C1552 C1553 1.287 . S
C1553 C1552 1.287 . S
C1553 C1554 1.524 . S
C1553 H1556 0.999 . S
C1554 H1524 0.950 . S
C1554 C1553 1.524 . S
C1554 C1555 1.415 . S
C1555 H1525 0.950 . S
C1555 C1550 1.363 . S
C1555 C1554 1.415 . S
H1556 C1553 0.999 . S
H1557 C1538 0.913 . S
H1558 C1576 0.951 . S
H1559 C1578 0.951 . S
H1560 C1580 0.950 . S
H1561 C1581 0.950 . S
H1562 C1583 0.950 . S
H1563 C1586 0.950 . S
H1564 C1587 0.950 . S
H1565 C1589 0.950 . S
H1566 C1590 0.950 . S
H1567 C1591 0.951 1_565 S
H1568 C1593 0.951 . S
H1569 C1595 0.950 . S
H1570 C1596 0.950 . S
H1571 C1598 0.950 . S
H1572 C1601 0.950 . S
H1573 C1602 0.950 . S
H1574 C1604 0.950 . S
H1575 C1605 0.950 . S
C1576 H1558 0.951 . S
C1576 C1577 1.366 . S
C1576 C1578 1.388 . S
C1577 C1576 1.366 . S
C1577 C1581 1.385 . S
C1578 H1559 0.951 . S
C1578 C1576 1.388 . S
C1578 C1579 1.366 . S
C1579 C1578 1.366 . S
C1579 C1580 1.414 . S
C1579 C1582 1.499 . S
C1580 H1560 0.950 . S
C1580 C1579 1.414 . S
C1580 C1581 1.374 . S
C1581 H1561 0.950 . S
C1581 C1577 1.385 . S
C1581 C1580 1.374 . S
C1582 C1579 1.499 . S
C1582 C1583 1.373 . S
C1582 C1584 1.389 . S
C1583 H1562 0.950 . S
C1583 C1582 1.373 . S
C1583 C1599 1.377 . S
C1584 C1582 1.389 . S
C1584 C1585 1.524 . S
C1584 C1598 1.377 . S
C1585 C1584 1.524 . S
C1585 C1586 1.397 . S
C1585 C1590 1.363 . S
C1586 H1563 0.950 . S
C1586 C1585 1.397 . S
C1586 C1587 1.334 . S
C1587 H1564 0.950 . S
C1587 C1586 1.334 . S
C1587 C1588 1.287 . S
C1588 C1587 1.287 . S
C1588 C1589 1.524 . S
C1588 H1607 0.913 . S
C1589 H1565 0.950 . S
C1589 C1588 1.524 . S
C1589 C1590 1.415 . S
C1590 H1566 0.950 . S
C1590 C1585 1.363 . S
C1590 C1589 1.415 . S
C1591 H1567 0.951 1_545 S
C1591 C1592 1.366 . S
C1591 C1593 1.388 . S
C1592 C1591 1.366 . S
C1592 C1596 1.385 . S
C1593 H1568 0.951 . S
C1593 C1591 1.388 . S
C1593 C1594 1.366 . S
C1594 C1593 1.366 . S
C1594 C1595 1.414 . S
C1594 C1597 1.499 . S
C1595 H1569 0.950 . S
C1595 C1594 1.414 . S
C1595 C1596 1.374 . S
C1596 H1570 0.950 . S
C1596 C1592 1.385 . S
C1596 C1595 1.374 . S
C1597 C1594 1.499 . S
C1597 C1598 1.373 . S
C1597 C1599 1.389 . S
C1598 H1571 0.950 . S
C1598 C1584 1.377 . S
C1598 C1597 1.373 . S
C1599 C1583 1.377 . S
C1599 C1597 1.389 . S
C1599 C1600 1.524 . S
C1600 C1599 1.524 . S
C1600 C1601 1.397 . S
C1600 C1605 1.363 . S
C1601 H1572 0.950 . S
C1601 C1600 1.397 . S
C1601 C1602 1.334 . S
C1602 H1573 0.950 . S
C1602 C1601 1.334 . S
C1602 C1603 1.287 . S
C1603 C1602 1.287 . S
C1603 C1604 1.524 . S
C1603 H1606 0.999 . S
C1604 H1574 0.950 . S
C1604 C1603 1.524 . S
C1604 C1605 1.415 . S
C1605 H1575 0.950 . S
C1605 C1600 1.363 . S
C1605 C1604 1.415 . S
H1606 C1603 0.999 . S
H1607 C1588 0.913 . S
H1608 C1626 0.951 . S
H1609 C1628 0.951 . S
H1610 C1630 0.950 . S
H1611 C1631 0.950 . S
H1612 C1633 0.950 . S
H1613 C1636 0.950 . S
H1614 C1637 0.950 . S
H1615 C1639 0.950 . S
H1616 C1640 0.950 . S
H1617 C1641 0.951 . S
H1618 C1643 0.951 . S
H1619 C1645 0.950 . S
H1620 C1646 0.950 . S
H1621 C1648 0.950 . S
H1622 C1651 0.950 . S
H1623 C1652 0.950 . S
H1624 C1654 0.950 . S
H1625 C1655 0.950 . S
C1626 H1608 0.951 . S
C1626 C1627 1.366 . S
C1626 C1628 1.388 . S
C1627 C1626 1.366 . S
C1627 C1631 1.385 . S
C1628 H1609 0.951 . S
C1628 C1626 1.388 . S
C1628 C1629 1.366 . S
C1629 C1628 1.366 . S
C1629 C1630 1.414 . S
C1629 C1632 1.499 . S
C1630 H1610 0.950 . S
C1630 C1629 1.414 . S
C1630 C1631 1.374 . S
C1631 H1611 0.950 . S
C1631 C1627 1.385 . S
C1631 C1630 1.374 . S
C1632 C1629 1.499 . S
C1632 C1633 1.373 . S
C1632 C1634 1.389 . S
C1633 H1612 0.950 . S
C1633 C1632 1.373 . S
C1633 C1649 1.377 . S
C1634 C1632 1.389 . S
C1634 C1635 1.524 . S
C1634 C1648 1.377 . S
C1635 C1634 1.524 . S
C1635 C1636 1.397 . S
C1635 C1640 1.363 . S
C1636 H1613 0.950 . S
C1636 C1635 1.397 . S
C1636 C1637 1.334 . S
C1637 H1614 0.950 . S
C1637 C1636 1.334 . S
C1637 C1638 1.287 . S
C1638 C1637 1.287 . S
C1638 C1639 1.524 . S
C1638 H1657 0.913 . S
C1639 H1615 0.950 . S
C1639 C1638 1.524 . S
C1639 C1640 1.415 . S
C1640 H1616 0.950 . S
C1640 C1635 1.363 . S
C1640 C1639 1.415 . S
C1641 H1617 0.951 . S
C1641 C1642 1.366 . S
C1641 C1643 1.388 . S
C1642 C1641 1.366 . S
C1642 C1646 1.385 . S
C1643 H1618 0.951 . S
C1643 C1641 1.388 . S
C1643 C1644 1.366 . S
C1644 C1643 1.366 . S
C1644 C1645 1.414 . S
C1644 C1647 1.499 . S
C1645 H1619 0.950 . S
C1645 C1644 1.414 . S
C1645 C1646 1.374 . S
C1646 H1620 0.950 . S
C1646 C1642 1.385 . S
C1646 C1645 1.374 . S
C1647 C1644 1.499 . S
C1647 C1648 1.373 . S
C1647 C1649 1.389 . S
C1648 H1621 0.950 . S
C1648 C1634 1.377 . S
C1648 C1647 1.373 . S
C1649 C1633 1.377 . S
C1649 C1647 1.389 . S
C1649 C1650 1.524 . S
C1650 C1649 1.524 . S
C1650 C1651 1.397 . S
C1650 C1655 1.363 . S
C1651 H1622 0.950 . S
C1651 C1650 1.397 . S
C1651 C1652 1.334 . S
C1652 H1623 0.950 . S
C1652 C1651 1.334 . S
C1652 C1653 1.287 . S
C1653 C1652 1.287 . S
C1653 C1654 1.524 . S
C1653 H1656 0.999 . S
C1654 H1624 0.950 . S
C1654 C1653 1.524 . S
C1654 C1655 1.415 . S
C1655 H1625 0.950 . S
C1655 C1650 1.363 . S
C1655 C1654 1.415 . S
H1656 C1653 0.999 . S
H1657 C1638 0.913 . S
H1658 C1676 0.951 . S
H1659 C1678 0.951 . S
H1660 C1680 0.950 . S
H1661 C1681 0.950 . S
H1662 C1683 0.950 . S
H1663 C1686 0.950 . S
H1664 C1687 0.950 . S
H1665 C1689 0.950 . S
H1666 C1690 0.950 . S
H1667 C1691 0.951 . S
H1668 C1693 0.951 . S
H1669 C1695 0.950 . S
H1670 C1696 0.950 . S
H1671 C1698 0.950 . S
H1672 C1701 0.950 . S
H1673 C1702 0.950 . S
H1674 C1704 0.950 . S
H1675 C1705 0.950 . S
C1676 H1658 0.951 . S
C1676 C1677 1.366 . S
C1676 C1678 1.388 . S
C1677 C1676 1.366 . S
C1677 C1681 1.385 . S
C1678 H1659 0.951 . S
C1678 C1676 1.388 . S
C1678 C1679 1.366 . S
C1679 C1678 1.366 . S
C1679 C1680 1.414 . S
C1679 C1682 1.499 . S
C1680 H1660 0.950 . S
C1680 C1679 1.414 . S
C1680 C1681 1.374 . S
C1681 H1661 0.950 . S
C1681 C1677 1.385 . S
C1681 C1680 1.374 . S
C1682 C1679 1.499 . S
C1682 C1683 1.373 . S
C1682 C1684 1.389 . S
C1683 H1662 0.950 . S
C1683 C1682 1.373 . S
C1683 C1699 1.377 . S
C1684 C1682 1.389 . S
C1684 C1685 1.524 . S
C1684 C1698 1.377 . S
C1685 C1684 1.524 . S
C1685 C1686 1.397 . S
C1685 C1690 1.363 . S
C1686 H1663 0.950 . S
C1686 C1685 1.397 . S
C1686 C1687 1.334 . S
C1687 H1664 0.950 . S
C1687 C1686 1.334 . S
C1687 C1688 1.287 . S
C1688 C1687 1.287 . S
C1688 C1689 1.524 . S
C1688 H1707 0.913 . S
C1689 H1665 0.950 . S
C1689 C1688 1.524 . S
C1689 C1690 1.415 . S
C1690 H1666 0.950 . S
C1690 C1685 1.363 . S
C1690 C1689 1.415 . S
C1691 H1667 0.951 . S
C1691 C1692 1.366 . S
C1691 C1693 1.388 . S
C1692 C1691 1.366 . S
C1692 C1696 1.385 . S
C1693 H1668 0.951 . S
C1693 C1691 1.388 . S
C1693 C1694 1.366 . S
C1694 C1693 1.366 . S
C1694 C1695 1.414 . S
C1694 C1697 1.499 . S
C1695 H1669 0.950 . S
C1695 C1694 1.414 . S
C1695 C1696 1.374 . S
C1696 H1670 0.950 . S
C1696 C1692 1.385 . S
C1696 C1695 1.374 . S
C1697 C1694 1.499 . S
C1697 C1698 1.373 . S
C1697 C1699 1.389 . S
C1698 H1671 0.950 . S
C1698 C1684 1.377 . S
C1698 C1697 1.373 . S
C1699 C1683 1.377 . S
C1699 C1697 1.389 . S
C1699 C1700 1.524 . S
C1700 C1699 1.524 . S
C1700 C1701 1.397 . S
C1700 C1705 1.363 . S
C1701 H1672 0.950 . S
C1701 C1700 1.397 . S
C1701 C1702 1.334 . S
C1702 H1673 0.950 . S
C1702 C1701 1.334 . S
C1702 C1703 1.287 . S
C1703 C1702 1.287 . S
C1703 C1704 1.524 . S
C1703 H1706 0.999 . S
C1704 H1674 0.950 . S
C1704 C1703 1.524 . S
C1704 C1705 1.415 . S
C1705 H1675 0.950 . S
C1705 C1700 1.363 . S
C1705 C1704 1.415 . S
H1706 C1703 0.999 . S
H1707 C1688 0.913 . S
H1708 C1726 0.951 . S
H1709 C1728 0.951 . S
H1710 C1730 0.950 . S
H1711 C1731 0.950 . S
H1712 C1733 0.950 . S
H1713 C1736 0.950 . S
H1714 C1737 0.950 . S
H1715 C1739 0.950 . S
H1716 C1740 0.950 . S
H1717 C1741 0.951 . S
H1718 C1743 0.951 . S
H1719 C1745 0.950 . S
H1720 C1746 0.950 . S
H1721 C1748 0.950 . S
H1722 C1751 0.950 . S
H1723 C1752 0.950 . S
H1724 C1754 0.950 . S
H1725 C1755 0.950 . S
C1726 H1708 0.951 . S
C1726 C1727 1.366 . S
C1726 C1728 1.388 . S
C1727 C1726 1.366 . S
C1727 C1731 1.385 . S
C1728 H1709 0.951 . S
C1728 C1726 1.388 . S
C1728 C1729 1.366 . S
C1729 C1728 1.366 . S
C1729 C1730 1.414 . S
C1729 C1732 1.499 . S
C1730 H1710 0.950 . S
C1730 C1729 1.414 . S
C1730 C1731 1.374 . S
C1731 H1711 0.950 . S
C1731 C1727 1.385 . S
C1731 C1730 1.374 . S
C1732 C1729 1.499 . S
C1732 C1733 1.373 . S
C1732 C1734 1.389 . S
C1733 H1712 0.950 . S
C1733 C1732 1.373 . S
C1733 C1749 1.377 . S
C1734 C1732 1.389 . S
C1734 C1735 1.524 . S
C1734 C1748 1.377 . S
C1735 C1734 1.524 . S
C1735 C1736 1.397 . S
C1735 C1740 1.363 . S
C1736 H1713 0.950 . S
C1736 C1735 1.397 . S
C1736 C1737 1.334 . S
C1737 H1714 0.950 . S
C1737 C1736 1.334 . S
C1737 C1738 1.287 . S
C1738 C1737 1.287 . S
C1738 C1739 1.524 . S
C1738 H1757 0.913 . S
C1739 H1715 0.950 . S
C1739 C1738 1.524 . S
C1739 C1740 1.415 . S
C1740 H1716 0.950 . S
C1740 C1735 1.363 . S
C1740 C1739 1.415 . S
C1741 H1717 0.951 . S
C1741 C1742 1.366 . S
C1741 C1743 1.388 . S
C1742 C1741 1.366 . S
C1742 C1746 1.385 . S
C1743 H1718 0.951 . S
C1743 C1741 1.388 . S
C1743 C1744 1.366 . S
C1744 C1743 1.366 . S
C1744 C1745 1.414 . S
C1744 C1747 1.499 . S
C1745 H1719 0.950 . S
C1745 C1744 1.414 . S
C1745 C1746 1.374 . S
C1746 H1720 0.950 . S
C1746 C1742 1.385 . S
C1746 C1745 1.374 . S
C1747 C1744 1.499 . S
C1747 C1748 1.373 . S
C1747 C1749 1.389 . S
C1748 H1721 0.950 . S
C1748 C1734 1.377 . S
C1748 C1747 1.373 . S
C1749 C1733 1.377 . S
C1749 C1747 1.389 . S
C1749 C1750 1.524 . S
C1750 C1749 1.524 . S
C1750 C1751 1.397 . S
C1750 C1755 1.363 . S
C1751 H1722 0.950 . S
C1751 C1750 1.397 . S
C1751 C1752 1.334 . S
C1752 H1723 0.950 . S
C1752 C1751 1.334 . S
C1752 C1753 1.287 . S
C1753 C1752 1.287 . S
C1753 C1754 1.524 . S
C1753 H1756 0.999 . S
C1754 H1724 0.950 . S
C1754 C1753 1.524 . S
C1754 C1755 1.415 . S
C1755 H1725 0.950 . S
C1755 C1750 1.363 . S
C1755 C1754 1.415 . S
H1756 C1753 0.999 . S
H1757 C1738 0.913 . S
H1758 C1776 0.951 . S
H1759 C1778 0.951 . S
H1760 C1780 0.950 . S
H1761 C1781 0.950 . S
H1762 C1783 0.950 . S
H1763 C1786 0.950 . S
H1764 C1787 0.950 . S
H1765 C1789 0.950 . S
H1766 C1790 0.950 . S
H1767 C1791 0.951 . S
H1768 C1793 0.951 . S
H1769 C1795 0.950 . S
H1770 C1796 0.950 . S
H1771 C1798 0.950 . S
H1772 C1801 0.950 . S
H1773 C1802 0.950 . S
H1774 C1804 0.950 . S
H1775 C1805 0.950 . S
C1776 H1758 0.951 . S
C1776 C1777 1.366 . S
C1776 C1778 1.388 . S
C1777 C1776 1.366 . S
C1777 C1781 1.385 . S
C1778 H1759 0.951 . S
C1778 C1776 1.388 . S
C1778 C1779 1.366 . S
C1779 C1778 1.366 . S
C1779 C1780 1.414 . S
C1779 C1782 1.499 . S
C1780 H1760 0.950 . S
C1780 C1779 1.414 . S
C1780 C1781 1.374 . S
C1781 H1761 0.950 . S
C1781 C1777 1.385 . S
C1781 C1780 1.374 . S
C1782 C1779 1.499 . S
C1782 C1783 1.373 . S
C1782 C1784 1.389 . S
C1783 H1762 0.950 . S
C1783 C1782 1.373 . S
C1783 C1799 1.377 . S
C1784 C1782 1.389 . S
C1784 C1785 1.524 . S
C1784 C1798 1.377 . S
C1785 C1784 1.524 . S
C1785 C1786 1.397 . S
C1785 C1790 1.363 . S
C1786 H1763 0.950 . S
C1786 C1785 1.397 . S
C1786 C1787 1.334 . S
C1787 H1764 0.950 . S
C1787 C1786 1.334 . S
C1787 C1788 1.287 . S
C1788 C1787 1.287 . S
C1788 C1789 1.524 . S
C1788 H1807 0.913 . S
C1789 H1765 0.950 . S
C1789 C1788 1.524 . S
C1789 C1790 1.415 . S
C1790 H1766 0.950 . S
C1790 C1785 1.363 . S
C1790 C1789 1.415 . S
C1791 H1767 0.951 . S
C1791 C1792 1.366 . S
C1791 C1793 1.388 . S
C1792 C1791 1.366 . S
C1792 C1796 1.385 . S
C1793 H1768 0.951 . S
C1793 C1791 1.388 . S
C1793 C1794 1.366 . S
C1794 C1793 1.366 . S
C1794 C1795 1.414 . S
C1794 C1797 1.499 . S
C1795 H1769 0.950 . S
C1795 C1794 1.414 . S
C1795 C1796 1.374 . S
C1796 H1770 0.950 . S
C1796 C1792 1.385 . S
C1796 C1795 1.374 . S
C1797 C1794 1.499 . S
C1797 C1798 1.373 . S
C1797 C1799 1.389 . S
C1798 H1771 0.950 . S
C1798 C1784 1.377 . S
C1798 C1797 1.373 . S
C1799 C1783 1.377 . S
C1799 C1797 1.389 . S
C1799 C1800 1.524 . S
C1800 C1799 1.524 . S
C1800 C1801 1.397 . S
C1800 C1805 1.363 . S
C1801 H1772 0.950 . S
C1801 C1800 1.397 . S
C1801 C1802 1.334 . S
C1802 H1773 0.950 . S
C1802 C1801 1.334 . S
C1802 C1803 1.287 . S
C1803 C1802 1.287 . S
C1803 C1804 1.524 . S
C1803 H1806 0.999 . S
C1804 H1774 0.950 . S
C1804 C1803 1.524 . S
C1804 C1805 1.415 . S
C1805 H1775 0.950 . S
C1805 C1800 1.363 . S
C1805 C1804 1.415 . S
H1806 C1803 0.999 . S
H1807 C1788 0.913 . S
H1808 C1826 0.951 . S
H1809 C1828 0.951 . S
H1810 C1830 0.950 . S
H1811 C1831 0.950 . S
H1812 C1833 0.950 . S
H1813 C1836 0.950 . S
H1814 C1837 0.950 . S
H1815 C1839 0.950 . S
H1816 C1840 0.950 . S
H1817 C1841 0.951 . S
H1818 C1843 0.951 . S
H1819 C1845 0.950 . S
H1820 C1846 0.950 . S
H1821 C1848 0.950 . S
H1822 C1851 0.950 . S
H1823 C1852 0.950 . S
H1824 C1854 0.950 . S
H1825 C1855 0.950 . S
C1826 H1808 0.951 . S
C1826 C1827 1.366 . S
C1826 C1828 1.388 . S
C1827 C1826 1.366 . S
C1827 C1831 1.385 . S
C1828 H1809 0.951 . S
C1828 C1826 1.388 . S
C1828 C1829 1.366 . S
C1829 C1828 1.366 . S
C1829 C1830 1.414 . S
C1829 C1832 1.499 . S
C1830 H1810 0.950 . S
C1830 C1829 1.414 . S
C1830 C1831 1.374 . S
C1831 H1811 0.950 . S
C1831 C1827 1.385 . S
C1831 C1830 1.374 . S
C1832 C1829 1.499 . S
C1832 C1833 1.373 . S
C1832 C1834 1.389 . S
C1833 H1812 0.950 . S
C1833 C1832 1.373 . S
C1833 C1849 1.377 . S
C1834 C1832 1.389 . S
C1834 C1835 1.524 . S
C1834 C1848 1.377 . S
C1835 C1834 1.524 . S
C1835 C1836 1.397 . S
C1835 C1840 1.363 . S
C1836 H1813 0.950 . S
C1836 C1835 1.397 . S
C1836 C1837 1.334 . S
C1837 H1814 0.950 . S
C1837 C1836 1.334 . S
C1837 C1838 1.287 . S
C1838 C1837 1.287 . S
C1838 C1839 1.524 . S
C1838 H1857 0.913 . S
C1839 H1815 0.950 . S
C1839 C1838 1.524 . S
C1839 C1840 1.415 . S
C1840 H1816 0.950 . S
C1840 C1835 1.363 . S
C1840 C1839 1.415 . S
C1841 H1817 0.951 . S
C1841 C1842 1.366 . S
C1841 C1843 1.388 . S
C1842 C1841 1.366 . S
C1842 C1846 1.385 . S
C1843 H1818 0.951 . S
C1843 C1841 1.388 . S
C1843 C1844 1.366 . S
C1844 C1843 1.366 . S
C1844 C1845 1.414 . S
C1844 C1847 1.499 . S
C1845 H1819 0.950 . S
C1845 C1844 1.414 . S
C1845 C1846 1.374 . S
C1846 H1820 0.950 . S
C1846 C1842 1.385 . S
C1846 C1845 1.374 . S
C1847 C1844 1.499 . S
C1847 C1848 1.373 . S
C1847 C1849 1.389 . S
C1848 H1821 0.950 . S
C1848 C1834 1.377 . S
C1848 C1847 1.373 . S
C1849 C1833 1.377 . S
C1849 C1847 1.389 . S
C1849 C1850 1.524 . S
C1850 C1849 1.524 . S
C1850 C1851 1.397 . S
C1850 C1855 1.363 . S
C1851 H1822 0.950 . S
C1851 C1850 1.397 . S
C1851 C1852 1.334 . S
C1852 H1823 0.950 . S
C1852 C1851 1.334 . S
C1852 C1853 1.287 . S
C1853 C1852 1.287 . S
C1853 C1854 1.524 . S
C1853 H1856 0.999 . S
C1854 H1824 0.950 . S
C1854 C1853 1.524 . S
C1854 C1855 1.415 . S
C1855 H1825 0.950 . S
C1855 C1850 1.363 . S
C1855 C1854 1.415 . S
H1856 C1853 0.999 . S
H1857 C1838 0.913 . S
H1858 C1876 0.951 . S
H1859 C1878 0.951 . S
H1860 C1880 0.950 . S
H1861 C1881 0.950 . S
H1862 C1883 0.950 . S
H1863 C1886 0.950 . S
H1864 C1887 0.950 . S
H1865 C1889 0.950 . S
H1866 C1890 0.950 . S
H1867 C1891 0.951 . S
H1868 C1893 0.951 . S
H1869 C1895 0.950 . S
H1870 C1896 0.950 . S
H1871 C1898 0.950 . S
H1872 C1901 0.950 . S
H1873 C1902 0.950 . S
H1874 C1904 0.950 . S
H1875 C1905 0.950 . S
C1876 H1858 0.951 . S
C1876 C1877 1.366 . S
C1876 C1878 1.388 . S
C1877 C1876 1.366 . S
C1877 C1881 1.385 . S
C1878 H1859 0.951 . S
C1878 C1876 1.388 . S
C1878 C1879 1.366 . S
C1879 C1878 1.366 . S
C1879 C1880 1.414 . S
C1879 C1882 1.499 . S
C1880 H1860 0.950 . S
C1880 C1879 1.414 . S
C1880 C1881 1.374 . S
C1881 H1861 0.950 . S
C1881 C1877 1.385 . S
C1881 C1880 1.374 . S
C1882 C1879 1.499 . S
C1882 C1883 1.373 . S
C1882 C1884 1.389 . S
C1883 H1862 0.950 . S
C1883 C1882 1.373 . S
C1883 C1899 1.377 . S
C1884 C1882 1.389 . S
C1884 C1885 1.524 . S
C1884 C1898 1.377 . S
C1885 C1884 1.524 . S
C1885 C1886 1.397 . S
C1885 C1890 1.363 . S
C1886 H1863 0.950 . S
C1886 C1885 1.397 . S
C1886 C1887 1.334 . S
C1887 H1864 0.950 . S
C1887 C1886 1.334 . S
C1887 C1888 1.287 . S
C1888 C1887 1.287 . S
C1888 C1889 1.524 . S
C1888 H1907 0.913 . S
C1889 H1865 0.950 . S
C1889 C1888 1.524 . S
C1889 C1890 1.415 . S
C1890 H1866 0.950 . S
C1890 C1885 1.363 . S
C1890 C1889 1.415 . S
C1891 H1867 0.951 . S
C1891 C1892 1.366 . S
C1891 C1893 1.388 . S
C1892 C1891 1.366 . S
C1892 C1896 1.385 . S
C1893 H1868 0.951 . S
C1893 C1891 1.388 . S
C1893 C1894 1.366 . S
C1894 C1893 1.366 . S
C1894 C1895 1.414 . S
C1894 C1897 1.499 . S
C1895 H1869 0.950 . S
C1895 C1894 1.414 . S
C1895 C1896 1.374 . S
C1896 H1870 0.950 . S
C1896 C1892 1.385 . S
C1896 C1895 1.374 . S
C1897 C1894 1.499 . S
C1897 C1898 1.373 . S
C1897 C1899 1.389 . S
C1898 H1871 0.950 . S
C1898 C1884 1.377 . S
C1898 C1897 1.373 . S
C1899 C1883 1.377 . S
C1899 C1897 1.389 . S
C1899 C1900 1.524 . S
C1900 C1899 1.524 . S
C1900 C1901 1.397 . S
C1900 C1905 1.363 . S
C1901 H1872 0.950 . S
C1901 C1900 1.397 . S
C1901 C1902 1.334 . S
C1902 H1873 0.950 . S
C1902 C1901 1.334 . S
C1902 C1903 1.287 . S
C1903 C1902 1.287 . S
C1903 C1904 1.524 . S
C1903 H1906 0.999 . S
C1904 H1874 0.950 . S
C1904 C1903 1.524 . S
C1904 C1905 1.415 . S
C1905 H1875 0.950 . S
C1905 C1900 1.363 . S
C1905 C1904 1.415 . S
H1906 C1903 0.999 . S
H1907 C1888 0.913 . S
C727 C477 1.477 . S
C742 C5 1.476 . S
C777 C64 1.476 . S
C792 C536 1.477 . S
C827 C123 1.476 . S
C842 C595 1.476 . S
C877 C182 1.476 . S
C892 C654 1.476 . S
C927 C359 1.476 . S
C942 C241 1.476 . S
C977 C300 1.477 . S
C992 C418 1.476 . S
C1027 C3 1.617 . S
C1042 C328 1.650 . S
C1077 C62 1.617 . S
C1092 C33 1.625 1_655 S
C1127 C121 1.617 . S
C1142 C92 1.625 1_565 S
C1177 C151 1.625 . S
C1192 C180 1.616 . S
C1227 C210 1.625 1_455 S
C1242 C239 1.617 . S
C1277 C269 1.625 1_545 S
C1292 C298 1.616 . S
C1327 C446 1.625 . S
C1342 C357 1.617 . S
C1377 C416 1.617 . S
C1392 C505 1.649 1_655 S
C1427 C564 1.625 1_565 S
C1442 C475 1.616 . S
C1477 C534 1.616 . S
C1492 C623 1.625 . S
C1527 C593 1.617 . S
C1542 C682 1.625 1_455 S
C1577 C652 1.617 . S
C1592 C387 1.625 1_545 S
C1627 C642 1.452 . S
C1642 C52 1.452 . S
C1677 C701 1.452 . S
C1692 C111 1.452 . S
C1727 C406 1.452 . S
C1742 C170 1.452 . S
C1777 C229 1.452 . S
C1792 C465 1.452 . S
C1827 C288 1.452 . S
C1842 C524 1.436 1_556 S
C1877 C583 1.452 . S
C1892 C347 1.436 1_554 S
