# Generated by pormake.
# Topology ecc, (8)-cn, num edge types: 1
# Building blocks:
#     Node 0, Type 0, BuildingBlock: EBIMEJ_clean_sbu_0, # of connection points: 8
#     Node 1, Type 0, BuildingBlock: EBIMEJ_clean_sbu_0, # of connection points: 8
#     Node 2, Type 0, BuildingBlock: EBIMEJ_clean_sbu_0, # of connection points: 8
#     Node 3, Type 0, BuildingBlock: EBIMEJ_clean_sbu_0, # of connection points: 8
#     Node 4, Type 0, BuildingBlock: EBIMEJ_clean_sbu_0, # of connection points: 8
#     Node 5, Type 0, BuildingBlock: EBIMEJ_clean_sbu_0, # of connection points: 8
#     Node 6, Type 0, BuildingBlock: EBIMEJ_clean_sbu_0, # of connection points: 8
#     Node 7, Type 0, BuildingBlock: EBIMEJ_clean_sbu_0, # of connection points: 8
#     Node 8, Type 0, BuildingBlock: EBIMEJ_clean_sbu_0, # of connection points: 8
#     Node 9, Type 0, BuildingBlock: EBIMEJ_clean_sbu_0, # of connection points: 8
#     Node 10, Type 0, BuildingBlock: EBIMEJ_clean_sbu_0, # of connection points: 8
#     Node 11, Type 0, BuildingBlock: EBIMEJ_clean_sbu_0, # of connection points: 8
#     Node 12, Type 0, BuildingBlock: EBIMEJ_clean_sbu_0, # of connection points: 8
#     Node 13, Type 0, BuildingBlock: EBIMEJ_clean_sbu_0, # of connection points: 8
#     Node 14, Type 0, BuildingBlock: EBIMEJ_clean_sbu_0, # of connection points: 8
#     Node 15, Type 0, BuildingBlock: EBIMEJ_clean_sbu_0, # of connection points: 8
#     Node 16, Type 0, BuildingBlock: EBIMEJ_clean_sbu_0, # of connection points: 8
#     Node 17, Type 0, BuildingBlock: EBIMEJ_clean_sbu_0, # of connection points: 8
#     Edge 18, Type (0, 0), BuildingBlock: ZUJKAS_clean_linker_0, # of connection points: 2
#     Edge 19, Type (0, 0), BuildingBlock: ZUJKAS_clean_linker_0, # of connection points: 2
#     Edge 20, Type (0, 0), BuildingBlock: ZUJKAS_clean_linker_0, # of connection points: 2
#     Edge 21, Type (0, 0), BuildingBlock: ZUJKAS_clean_linker_0, # of connection points: 2
#     Edge 22, Type (0, 0), BuildingBlock: ZUJKAS_clean_linker_0, # of connection points: 2
#     Edge 23, Type (0, 0), BuildingBlock: ZUJKAS_clean_linker_0, # of connection points: 2
#     Edge 24, Type (0, 0), BuildingBlock: ZUJKAS_clean_linker_0, # of connection points: 2
#     Edge 25, Type (0, 0), BuildingBlock: ZUJKAS_clean_linker_0, # of connection points: 2
#     Edge 26, Type (0, 0), BuildingBlock: ZUJKAS_clean_linker_0, # of connection points: 2
#     Edge 27, Type (0, 0), BuildingBlock: ZUJKAS_clean_linker_0, # of connection points: 2
#     Edge 28, Type (0, 0), BuildingBlock: ZUJKAS_clean_linker_0, # of connection points: 2
#     Edge 29, Type (0, 0), BuildingBlock: ZUJKAS_clean_linker_0, # of connection points: 2
#     Edge 30, Type (0, 0), BuildingBlock: ZUJKAS_clean_linker_0, # of connection points: 2
#     Edge 31, Type (0, 0), BuildingBlock: ZUJKAS_clean_linker_0, # of connection points: 2
#     Edge 32, Type (0, 0), BuildingBlock: ZUJKAS_clean_linker_0, # of connection points: 2
#     Edge 33, Type (0, 0), BuildingBlock: ZUJKAS_clean_linker_0, # of connection points: 2
#     Edge 34, Type (0, 0), BuildingBlock: ZUJKAS_clean_linker_0, # of connection points: 2
#     Edge 35, Type (0, 0), BuildingBlock: ZUJKAS_clean_linker_0, # of connection points: 2
#     Edge 36, Type (0, 0), BuildingBlock: ZUJKAS_clean_linker_0, # of connection points: 2
#     Edge 37, Type (0, 0), BuildingBlock: ZUJKAS_clean_linker_0, # of connection points: 2
#     Edge 38, Type (0, 0), BuildingBlock: ZUJKAS_clean_linker_0, # of connection points: 2
#     Edge 39, Type (0, 0), BuildingBlock: ZUJKAS_clean_linker_0, # of connection points: 2
#     Edge 40, Type (0, 0), BuildingBlock: ZUJKAS_clean_linker_0, # of connection points: 2
#     Edge 41, Type (0, 0), BuildingBlock: ZUJKAS_clean_linker_0, # of connection points: 2
#     Edge 42, Type (0, 0), BuildingBlock: ZUJKAS_clean_linker_0, # of connection points: 2
#     Edge 43, Type (0, 0), BuildingBlock: ZUJKAS_clean_linker_0, # of connection points: 2
#     Edge 44, Type (0, 0), BuildingBlock: ZUJKAS_clean_linker_0, # of connection points: 2
#     Edge 45, Type (0, 0), BuildingBlock: ZUJKAS_clean_linker_0, # of connection points: 2
#     Edge 46, Type (0, 0), BuildingBlock: ZUJKAS_clean_linker_0, # of connection points: 2
#     Edge 47, Type (0, 0), BuildingBlock: ZUJKAS_clean_linker_0, # of connection points: 2
#     Edge 48, Type (0, 0), BuildingBlock: ZUJKAS_clean_linker_0, # of connection points: 2
#     Edge 49, Type (0, 0), BuildingBlock: ZUJKAS_clean_linker_0, # of connection points: 2
#     Edge 50, Type (0, 0), BuildingBlock: ZUJKAS_clean_linker_0, # of connection points: 2
#     Edge 51, Type (0, 0), BuildingBlock: ZUJKAS_clean_linker_0, # of connection points: 2
#     Edge 52, Type (0, 0), BuildingBlock: ZUJKAS_clean_linker_0, # of connection points: 2
#     Edge 53, Type (0, 0), BuildingBlock: ZUJKAS_clean_linker_0, # of connection points: 2
#     Edge 54, Type (0, 0), BuildingBlock: ZUJKAS_clean_linker_0, # of connection points: 2
#     Edge 55, Type (0, 0), BuildingBlock: ZUJKAS_clean_linker_0, # of connection points: 2
#     Edge 56, Type (0, 0), BuildingBlock: ZUJKAS_clean_linker_0, # of connection points: 2
#     Edge 57, Type (0, 0), BuildingBlock: ZUJKAS_clean_linker_0, # of connection points: 2
#     Edge 58, Type (0, 0), BuildingBlock: ZUJKAS_clean_linker_0, # of connection points: 2
#     Edge 59, Type (0, 0), BuildingBlock: ZUJKAS_clean_linker_0, # of connection points: 2
#     Edge 60, Type (0, 0), BuildingBlock: ZUJKAS_clean_linker_0, # of connection points: 2
#     Edge 61, Type (0, 0), BuildingBlock: ZUJKAS_clean_linker_0, # of connection points: 2
#     Edge 62, Type (0, 0), BuildingBlock: ZUJKAS_clean_linker_0, # of connection points: 2
#     Edge 63, Type (0, 0), BuildingBlock: ZUJKAS_clean_linker_0, # of connection points: 2
#     Edge 64, Type (0, 0), BuildingBlock: ZUJKAS_clean_linker_0, # of connection points: 2
#     Edge 65, Type (0, 0), BuildingBlock: ZUJKAS_clean_linker_0, # of connection points: 2
#     Edge 66, Type (0, 0), BuildingBlock: ZUJKAS_clean_linker_0, # of connection points: 2
#     Edge 67, Type (0, 0), BuildingBlock: ZUJKAS_clean_linker_0, # of connection points: 2
#     Edge 68, Type (0, 0), BuildingBlock: ZUJKAS_clean_linker_0, # of connection points: 2
#     Edge 69, Type (0, 0), BuildingBlock: ZUJKAS_clean_linker_0, # of connection points: 2
#     Edge 70, Type (0, 0), BuildingBlock: ZUJKAS_clean_linker_0, # of connection points: 2
#     Edge 71, Type (0, 0), BuildingBlock: ZUJKAS_clean_linker_0, # of connection points: 2
#     Edge 72, Type (0, 0), BuildingBlock: ZUJKAS_clean_linker_0, # of connection points: 2
#     Edge 73, Type (0, 0), BuildingBlock: ZUJKAS_clean_linker_0, # of connection points: 2
#     Edge 74, Type (0, 0), BuildingBlock: ZUJKAS_clean_linker_0, # of connection points: 2
#     Edge 75, Type (0, 0), BuildingBlock: ZUJKAS_clean_linker_0, # of connection points: 2
#     Edge 76, Type (0, 0), BuildingBlock: ZUJKAS_clean_linker_0, # of connection points: 2
#     Edge 77, Type (0, 0), BuildingBlock: ZUJKAS_clean_linker_0, # of connection points: 2
#     Edge 78, Type (0, 0), BuildingBlock: ZUJKAS_clean_linker_0, # of connection points: 2
#     Edge 79, Type (0, 0), BuildingBlock: ZUJKAS_clean_linker_0, # of connection points: 2
#     Edge 80, Type (0, 0), BuildingBlock: ZUJKAS_clean_linker_0, # of connection points: 2
#     Edge 81, Type (0, 0), BuildingBlock: ZUJKAS_clean_linker_0, # of connection points: 2
#     Edge 82, Type (0, 0), BuildingBlock: ZUJKAS_clean_linker_0, # of connection points: 2
#     Edge 83, Type (0, 0), BuildingBlock: ZUJKAS_clean_linker_0, # of connection points: 2
#     Edge 84, Type (0, 0), BuildingBlock: ZUJKAS_clean_linker_0, # of connection points: 2
#     Edge 85, Type (0, 0), BuildingBlock: ZUJKAS_clean_linker_0, # of connection points: 2
#     Edge 86, Type (0, 0), BuildingBlock: ZUJKAS_clean_linker_0, # of connection points: 2
#     Edge 87, Type (0, 0), BuildingBlock: ZUJKAS_clean_linker_0, # of connection points: 2
#     Edge 88, Type (0, 0), BuildingBlock: ZUJKAS_clean_linker_0, # of connection points: 2
#     Edge 89, Type (0, 0), BuildingBlock: ZUJKAS_clean_linker_0, # of connection points: 2
# Relax obj value: 0.324
# Max RMSD: 0.288
# Mean RMSD: 0.288
data_MOF--net-ecc--node1-EBIMEJ_clean_sbu_0--edge1-ZUJKAS_clean_linker_0
_symmetry_space_group_name_H-M    P1
_symmetry_Int_Tables_number       1
_symmetry_cell_setting            triclinic
loop_
_symmetry_equiv_pos_as_xyz
'x, y, z'
_cell_length_a     74.484936
_cell_length_b     74.549647
_cell_length_c     33.328905
_cell_angle_alpha  90.022769
_cell_angle_beta   89.97049
_cell_angle_gamma 120.068
loop_
_atom_site_label
_atom_site_type_symbol
_atom_site_fract_x
_atom_site_fract_y
_atom_site_fract_z
_atom_type_partial_charge
Co0 Co 0.1505 1.00331 0.71784 0.0
Co1 Co 0.18234 0.02582 0.7918 0.0
Co2 Co 0.19317 1.004 0.72896 0.0
H3 H 0.17193 1.00342 0.73449 0.0
O4 O 0.16775 1.00086 0.75894 0.0
H5 H 0.20289 0.02422 0.79141 0.0
O6 O 0.20824 0.02701 0.76768 0.0
Co7 Co 0.22209 0.02203 0.81439 0.0
O8 O 0.2205 0.04255 0.855 0.0
O9 O 0.1978 0.05015 0.82682 0.0
O10 O 0.2338 0.00895 0.7735 0.0
O11 O 0.21915 1.00535 0.71221 0.0
O12 O 0.12 0.9939 0.70589 0.0
O13 O 0.12786 0.98325 0.75683 0.0
O14 O 0.19919 0.99712 0.84334 0.0
O15 O 0.17509 0.00638 0.83868 0.0
C16 C 0.16226 0.97834 0.66497 0.0
C17 C 0.14646 0.03059 0.77705 0.0
C18 C 0.25584 0.03542 0.85102 0.0
C19 C 0.18637 0.03111 0.66716 0.0
C20 C 0.21099 0.05295 0.85404 0.0
C21 C 0.2325 1.00482 0.73555 0.0
C22 C 0.11339 0.98285 0.73681 0.0
C23 C 0.18162 0.99482 0.85312 0.0
O24 O 0.15203 0.98767 0.6701 0.0
O25 O 0.17715 0.98099 0.68831 0.0
O26 O 0.15665 0.02701 0.80365 0.0
O27 O 0.1468 0.02642 0.74006 0.0
O28 O 0.23851 0.02183 0.86434 0.0
O29 O 0.25404 0.04123 0.8166 0.0
O30 O 0.16708 0.02283 0.67413 0.0
O31 O 0.19813 0.0262 0.68696 0.0
Co32 Co 0.02792 0.16709 0.72581 0.0
Co33 Co 1.00793 0.18034 0.79673 0.0
Co34 Co 0.03015 0.21082 0.73079 0.0
H35 H 0.0297 0.18978 0.73906 0.0
O36 O 0.03256 0.18894 0.76373 0.0
H37 H 0.01037 0.20277 0.79381 0.0
O38 O 1.00761 0.20485 0.76969 0.0
Co39 Co 0.01342 0.2249 0.81484 0.0
O40 O 0.99281 0.20392 0.85722 0.0
O41 O 0.98358 0.17291 0.83069 0.0
O42 O 0.0262 0.24828 0.77064 0.0
O43 O 0.02968 0.23542 0.7113 0.0
O44 O 0.03032 0.14104 0.7187 0.0
O45 O 0.05144 0.16543 0.75448 0.0
O46 O 0.03857 0.22702 0.84311 0.0
O47 O 0.02742 0.19317 0.8435 0.0
C48 C 0.05729 0.20305 0.67348 0.0
C49 C 0.99936 0.13878 0.78592 0.0
C50 C 1.00074 0.2459 0.85185 0.0
C51 C 0.99948 0.17444 0.67608 0.0
C52 C 0.98135 0.18404 0.85696 0.0
C53 C 0.03055 0.25013 0.73265 0.0
C54 C 0.04592 0.14766 0.7411 0.0
C55 C 0.03993 0.21158 0.8556 0.0
O56 O 0.04829 0.1839 0.68276 0.0
O57 O 0.05277 0.21586 0.69029 0.0
O58 O 1.00584 0.15342 0.81159 0.0
O59 O 1.00235 0.14238 0.74848 0.0
O60 O 0.01169 0.23919 0.86693 0.0
O61 O 0.9972 0.24093 0.81543 0.0
O62 O 1.00563 0.1622 0.68746 0.0
O63 O 1.00748 0.19306 0.68976 0.0
Co64 Co 0.86761 0.88495 0.71992 0.0
Co65 Co 0.85603 0.85268 0.79311 0.0
Co66 Co 0.82443 0.84338 0.72887 0.0
H67 H 0.84542 0.86413 0.73549 0.0
O68 O 0.84687 0.86823 0.75998 0.0
H69 H 0.83343 0.83267 0.79185 0.0
O70 O 0.83101 0.82749 0.76799 0.0
Co71 Co 0.81146 0.81374 0.81394 0.0
O72 O 0.83282 0.81497 0.85599 0.0
O73 O 0.86366 0.83611 0.82772 0.0
O74 O 0.78737 0.80263 0.77125 0.0
O75 O 0.79969 0.8179 0.71092 0.0
O76 O 0.88632 0.91529 0.70259 0.0
O77 O 0.87426 0.90821 0.76045 0.0
O78 O 0.81017 0.83682 0.84345 0.0
O79 O 0.84386 0.86038 0.83964 0.0
C80 C 0.83183 0.87512 0.66521 0.0
C81 C 0.89766 0.88681 0.77924 0.0
C82 C 0.79059 0.77972 0.84981 0.0
C83 C 0.86023 0.84823 0.67354 0.0
C84 C 0.85267 0.82317 0.85479 0.0
C85 C 0.78518 0.80436 0.7331 0.0
C86 C 0.88561 0.92233 0.73641 0.0
C87 C 0.82568 0.85416 0.85359 0.0
O88 O 0.85133 0.88464 0.67156 0.0
O89 O 0.81885 0.86022 0.68778 0.0
O90 O 0.88352 0.87765 0.80583 0.0
O91 O 0.89327 0.88602 0.7421 0.0
O92 O 0.79271 0.7967 0.8616 0.0
O93 O 0.80002 0.782 0.81724 0.0
O94 O 0.87256 0.86689 0.6834 0.0
O95 O 0.8417 0.83788 0.68777 0.0
Co96 Co 0.8089 0.01812 0.20542 0.0
Co97 Co 0.83904 0.03455 0.28955 0.0
Co98 Co 0.84741 0.01202 0.22436 0.0
H99 H 0.82763 0.01474 0.22689 0.0
O100 O 0.82261 0.01201 0.25087 0.0
H101 H 0.85962 0.03403 0.28206 0.0
O102 O 0.86355 0.03668 0.25745 0.0
Co103 Co 0.88038 0.03234 0.29691 0.0
O104 O 0.88017 0.04803 0.34597 0.0
O105 O 0.85642 0.05699 0.33027 0.0
O106 O 0.88368 0.00968 0.27091 0.0
O107 O 0.87195 0.0095 0.20903 0.0
O108 O 0.79151 0.02095 0.15987 0.0
O109 O 0.7775 0.99676 0.2004 0.0
O110 O 0.86177 0.00851 0.3314 0.0
O111 O 0.83358 0.01185 0.33068 0.0
C112 C 0.81756 0.9861 0.16329 0.0
C113 C 0.80008 0.03502 0.28671 0.0
C114 C 0.91828 0.05242 0.28603 0.0
C115 C 0.8491 0.0447 0.16654 0.0
C116 C 0.87115 0.05843 0.35271 0.0
C117 C 0.88241 1.00526 0.2337 0.0
C118 C 0.77487 1.00506 0.16987 0.0
C119 C 0.84349 1.00289 0.34308 0.0
O120 O 0.80971 0.99804 0.16232 0.0
O121 O 0.83027 0.98774 0.19052 0.0
O122 O 0.8138 0.03413 0.30844 0.0
O123 O 0.79811 0.0311 0.24858 0.0
O124 O 0.90904 0.03521 0.3035 0.0
O125 O 0.90601 0.05841 0.27507 0.0
O126 O 0.83254 0.04368 0.17959 0.0
O127 O 0.85442 0.03158 0.17743 0.0
Co128 Co 0.01726 0.81475 0.20453 0.0
Co129 Co 1.00081 0.82795 0.28915 0.0
Co130 Co 0.02362 0.8594 0.22493 0.0
H131 H 0.02075 0.8368 0.22664 0.0
O132 O 0.02342 0.83433 0.25051 0.0
H133 H 1.00146 0.84913 0.28252 0.0
O134 O 0.9989 0.85066 0.25801 0.0
Co135 Co 1.00316 0.87144 0.2983 0.0
O136 O 0.98814 0.85534 0.34774 0.0
O137 O 0.97832 0.82267 0.32981 0.0
O138 O 0.02502 0.89782 0.27225 0.0
O139 O 0.02624 0.88662 0.21049 0.0
O140 O 0.01534 0.79573 0.15735 0.0
O141 O 0.03759 0.8034 0.20143 0.0
O142 O 0.02834 0.877 0.32898 0.0
O143 O 0.02338 0.84485 0.33053 0.0
C144 C 0.04947 0.85554 0.16338 0.0
C145 C 1.00013 0.78855 0.28498 0.0
C146 C 0.98187 0.88815 0.28922 0.0
C147 C 0.99133 0.82904 0.16517 0.0
C148 C 0.97733 0.83583 0.35337 0.0
C149 C 0.02964 0.90112 0.23514 0.0
C150 C 0.03027 0.79373 0.16916 0.0
C151 C 0.03332 0.86398 0.34128 0.0
O152 O 0.03737 0.83579 0.16199 0.0
O153 O 0.04789 0.86665 0.19066 0.0
O154 O 1.00119 0.80303 0.30733 0.0
O155 O 1.0038 0.79065 0.2468 0.0
O156 O 0.99877 0.89616 0.30789 0.0
O157 O 0.97686 0.87044 0.27614 0.0
O158 O 0.99261 0.81335 0.17601 0.0
O159 O 1.00386 0.84722 0.17833 0.0
Co160 Co 0.22093 0.227 0.20469 0.0
Co161 Co 0.20683 0.1965 0.28862 0.0
Co162 Co 0.17633 0.18793 0.22255 0.0
H163 H 0.19872 0.20797 0.22561 0.0
O164 O 0.20075 0.21289 0.24966 0.0
H165 H 0.18564 0.17588 0.28091 0.0
O166 O 0.18472 0.17203 0.25632 0.0
Co167 Co 0.16303 0.15498 0.29493 0.0
O168 O 0.17989 0.152 0.33858 0.0
O169 O 0.21201 0.17908 0.3292 0.0
O170 O 0.13792 0.15422 0.26975 0.0
O171 O 0.14967 0.16313 0.20713 0.0
O172 O 0.23864 0.24384 0.15595 0.0
O173 O 0.23368 0.25895 0.203 0.0
O174 O 0.16034 0.17111 0.33986 0.0
O175 O 0.18933 0.20155 0.32968 0.0
C176 C 0.18032 0.21759 0.16097 0.0
C177 C 0.24629 0.23546 0.28643 0.0
C178 C 0.14445 0.11773 0.27758 0.0
C179 C 0.20782 0.18714 0.16428 0.0
C180 C 0.19917 0.16202 0.34692 0.0
C181 C 0.13482 0.1542 0.23214 0.0
C182 C 0.24203 0.26104 0.16922 0.0
C183 C 0.17217 0.19011 0.34833 0.0
O184 O 0.20023 0.22644 0.16152 0.0
O185 O 0.16905 0.20451 0.18753 0.0
O186 O 0.23152 0.22171 0.30787 0.0
O187 O 0.2445 0.23761 0.24831 0.0
O188 O 0.13674 0.12629 0.29827 0.0
O189 O 0.16268 0.13031 0.26685 0.0
O190 O 0.22323 0.204 0.17672 0.0
O191 O 0.18939 0.18116 0.17641 0.0
Co192 Co 0.8175 0.34097 0.05413 0.0
Co193 Co 0.84947 0.36133 0.12728 0.0
Co194 Co 0.85856 0.33871 0.06338 0.0
H195 H 0.83801 0.33922 0.0699 0.0
O196 O 0.83382 0.33659 0.09435 0.0
H197 H 0.86946 0.35876 0.12597 0.0
O198 O 0.87462 0.36139 0.10208 0.0
Co199 Co 0.8884 0.35577 0.14806 0.0
O200 O 0.88723 0.37603 0.19019 0.0
O201 O 0.86607 0.38555 0.16174 0.0
O202 O 0.89959 0.34274 0.10548 0.0
O203 O 0.8839 0.33916 0.04542 0.0
O204 O 0.78703 0.33056 0.03974 0.0
O205 O 0.79468 0.32137 0.09297 0.0
O206 O 0.86509 0.33113 0.17688 0.0
O207 O 0.84189 0.34166 0.174 0.0
C208 C 0.82705 0.31494 0.9993 0.0
C209 C 0.81483 0.3684 0.11421 0.0
C210 C 0.92251 0.36906 0.18349 0.0
C211 C 0.8546 0.37047 1.00923 0.0
C212 C 0.87884 0.3875 0.18915 0.0
C213 C 0.89765 0.3385 0.06743 0.0
C214 C 0.78031 0.32025 0.07152 0.0
C215 C 0.84789 0.32948 0.1875 0.0
O216 O 0.81817 0.32557 1.00501 0.0
O217 O 0.84142 0.31619 0.02262 0.0
O218 O 0.82451 0.36382 0.1403 0.0
O219 O 0.81517 0.36469 0.07698 0.0
O220 O 0.90554 0.35432 0.1957 0.0
O221 O 0.92016 0.37603 0.15079 0.0
O222 O 0.83625 0.36499 0.02013 0.0
O223 O 0.86424 0.36128 0.0219 0.0
Co224 Co 0.69461 0.50149 0.0556 0.0
Co225 Co 0.67458 0.51384 0.12853 0.0
Co226 Co 0.69822 0.54544 0.06509 0.0
H227 H 0.69694 0.52399 0.07154 0.0
O228 O 0.69938 0.52235 0.09606 0.0
H229 H 0.67751 0.5365 0.12682 0.0
O230 O 0.67521 0.53913 0.1028 0.0
Co231 Co 0.68066 0.55848 0.14892 0.0
O232 O 0.66024 0.53718 0.19119 0.0
O233 O 0.65017 0.50656 0.16211 0.0
O234 O 0.69375 0.58261 0.10624 0.0
O235 O 0.69873 0.57076 0.04705 0.0
O236 O 0.70191 0.47878 0.04454 0.0
O237 O 0.71734 0.5007 0.08921 0.0
O238 O 0.70586 0.55995 0.17541 0.0
O239 O 0.69395 0.52595 0.17582 0.0
C240 C 0.72145 0.5371 1.00124 0.0
C241 C 0.66763 0.47191 0.11764 0.0
C242 C 0.6677 0.57903 0.18651 0.0
C243 C 0.66633 0.51045 1.0098 0.0
C244 C 0.64845 0.51735 0.18983 0.0
C245 C 0.69885 0.58505 0.06859 0.0
C246 C 0.71546 0.48497 0.0716 0.0
C247 C 0.70688 0.5443 0.1877 0.0
O248 O 0.71008 0.51759 1.00644 0.0
O249 O 0.7209 0.5504 0.02512 0.0
O250 O 0.67169 0.48645 0.1427 0.0
O251 O 0.67186 0.47525 0.0804 0.0
O252 O 0.67551 0.56927 0.20248 0.0
O253 O 0.66742 0.57733 0.14893 0.0
O254 O 0.67084 0.49693 0.02098 0.0
O255 O 0.67604 0.52923 0.02268 0.0
Co256 Co 0.53388 0.21731 0.05584 0.0
Co257 Co 0.52158 0.18425 0.12811 0.0
Co258 Co 0.49019 0.17603 0.06421 0.0
H259 H 0.5115 0.19654 0.07109 0.0
O260 O 0.51294 0.20043 0.09571 0.0
H261 H 0.49888 0.16458 0.12653 0.0
O262 O 0.49638 0.15953 0.10255 0.0
Co263 Co 0.47683 0.14597 0.1485 0.0
O264 O 0.49798 0.14711 0.19117 0.0
O265 O 0.52882 0.16709 0.16191 0.0
O266 O 0.45282 0.1351 0.10575 0.0
O267 O 0.46521 0.15093 0.04588 0.0
O268 O 0.56117 0.24525 0.05452 0.0
O269 O 0.53472 0.24284 0.08096 0.0
O270 O 0.4757 0.16986 0.17513 0.0
O271 O 0.50979 0.19181 0.17558 0.0
C272 C 0.49708 0.21086 1.00712 0.0
C273 C 0.5629 0.21535 0.11267 0.0
C274 C 0.456 0.11181 0.18387 0.0
C275 C 0.52395 0.18201 1.00261 0.0
C276 C 0.51774 0.15463 0.18955 0.0
C277 C 0.45068 0.13721 0.06774 0.0
C278 C 0.55351 0.25461 0.07265 0.0
C279 C 0.49145 0.18649 0.18744 0.0
O280 O 0.51635 0.22136 0.01528 0.0
O281 O 0.48472 0.1934 0.02404 0.0
O282 O 0.54921 0.20872 0.14036 0.0
O283 O 0.55785 0.21431 0.07583 0.0
O284 O 0.45683 0.1284 0.19433 0.0
O285 O 0.46675 0.11456 0.15295 0.0
O286 O 0.53581 0.20108 0.01034 0.0
O287 O 0.50713 0.17064 0.02235 0.0
Co288 Co 0.47547 0.35096 0.53918 0.0
Co289 Co 0.50576 0.36855 0.62293 0.0
Co290 Co 0.51447 0.34567 0.55899 0.0
H291 H 0.49444 0.34805 0.56101 0.0
O292 O 0.48947 0.34549 0.58504 0.0
H293 H 0.52651 0.36834 0.61563 0.0
O294 O 0.53027 0.37078 0.59093 0.0
Co295 Co 0.54769 0.36731 0.63009 0.0
O296 O 0.55031 0.38715 0.67361 0.0
O297 O 0.52296 0.39158 0.66268 0.0
O298 O 0.55025 0.34366 0.60752 0.0
O299 O 0.53938 0.34342 0.54491 0.0
O300 O 0.45944 0.34908 0.4871 0.0
O301 O 0.44323 0.33433 0.53858 0.0
O302 O 0.52923 0.34308 0.66445 0.0
O303 O 0.50113 0.34667 0.66505 0.0
C304 C 0.48477 0.31898 0.49838 0.0
C305 C 0.46644 0.36823 0.61995 0.0
C306 C 0.58504 0.38807 0.61405 0.0
C307 C 0.51566 0.37758 0.49985 0.0
C308 C 0.5399 0.39607 0.6811 0.0
C309 C 0.54967 0.33934 0.57039 0.0
C310 C 0.44179 0.33791 0.5022 0.0
C311 C 0.51111 0.33769 0.67685 0.0
O312 O 0.47647 0.33053 0.49721 0.0
O313 O 0.49765 0.32105 0.52565 0.0
O314 O 0.4804 0.36781 0.64171 0.0
O315 O 0.46431 0.36384 0.58199 0.0
O316 O 0.57796 0.37708 0.64498 0.0
O317 O 0.57092 0.38748 0.59258 0.0
O318 O 0.49893 0.37635 0.51247 0.0
O319 O 0.52126 0.36476 0.51141 0.0
Co320 Co 0.68401 0.14822 0.53891 0.0
Co321 Co 0.66723 0.16168 0.62308 0.0
Co322 Co 0.6903 0.19279 0.55841 0.0
H323 H 0.68745 0.17024 0.56075 0.0
O324 O 0.69001 0.16786 0.58479 0.0
H325 H 0.66747 0.18258 0.61489 0.0
O326 O 0.66513 0.18378 0.59008 0.0
Co327 Co 0.66844 0.20487 0.62844 0.0
O328 O 0.65003 0.18853 0.6741 0.0
O329 O 0.64431 0.15634 0.66316 0.0
O330 O 0.69203 0.23105 0.60554 0.0
O331 O 0.69308 0.22003 0.54362 0.0
O332 O 0.68772 0.13574 0.48614 0.0
O333 O 0.69867 0.13069 0.53949 0.0
O334 O 0.69185 0.21056 0.66485 0.0
O335 O 0.68955 0.17946 0.66436 0.0
C336 C 0.71649 0.18908 0.49791 0.0
C337 C 0.66713 0.12265 0.62056 0.0
C338 C 0.64717 0.22075 0.61143 0.0
C339 C 0.65819 0.16238 0.49879 0.0
C340 C 0.64051 0.16922 0.68191 0.0
C341 C 0.69695 0.23454 0.56861 0.0
C342 C 0.69699 0.12744 0.50228 0.0
C343 C 0.69788 0.19829 0.67689 0.0
O344 O 0.70429 0.16933 0.49641 0.0
O345 O 0.71496 0.20014 0.52534 0.0
O346 O 0.66797 0.13715 0.64255 0.0
O347 O 0.67087 0.12458 0.58235 0.0
O348 O 0.65594 0.22291 0.6447 0.0
O349 O 0.65029 0.2094 0.58804 0.0
O350 O 0.6591 0.14665 0.51091 0.0
O351 O 0.67114 0.18066 0.51089 0.0
Co352 Co 0.88654 0.56038 0.53976 0.0
Co353 Co 0.87466 0.53121 0.62415 0.0
Co354 Co 0.84259 0.52088 0.56059 0.0
H355 H 0.86479 0.54132 0.56187 0.0
O356 O 0.86706 0.54653 0.5857 0.0
H357 H 0.85422 0.50986 0.61734 0.0
O358 O 0.85292 0.50603 0.59269 0.0
Co359 Co 0.83268 0.48813 0.63252 0.0
O360 O 0.85066 0.48664 0.67581 0.0
O361 O 0.88162 0.51509 0.66425 0.0
O362 O 0.80609 0.48518 0.6109 0.0
O363 O 0.81573 0.49535 0.54766 0.0
O364 O 0.90857 0.59182 0.53876 0.0
O365 O 0.89363 0.57676 0.48651 0.0
O366 O 0.82668 0.5053 0.66976 0.0
O367 O 0.85673 0.53523 0.66579 0.0
C368 C 0.84451 0.55013 0.50011 0.0
C369 C 0.9131 0.57064 0.62021 0.0
C370 C 0.81595 0.45072 0.61751 0.0
C371 C 0.87334 0.52025 0.50063 0.0
C372 C 0.86994 0.49806 0.68302 0.0
C373 C 0.80174 0.48516 0.57393 0.0
C374 C 0.90672 0.59375 0.50175 0.0
C375 C 0.83834 0.52404 0.68011 0.0
O376 O 0.86445 0.55905 0.49907 0.0
O377 O 0.83386 0.53683 0.52694 0.0
O378 O 0.89863 0.55717 0.64248 0.0
O379 O 0.91093 0.57201 0.58193 0.0
O380 O 0.81089 0.45815 0.64629 0.0
O381 O 0.83071 0.46453 0.59757 0.0
O382 O 0.88879 0.53716 0.51277 0.0
O383 O 0.85494 0.51434 0.51284 0.0
Co384 Co 0.4838 0.67253 0.38867 0.0
Co385 Co 0.5162 0.6938 0.46117 0.0
Co386 Co 0.52603 0.67221 0.39623 0.0
H387 H 0.505 0.67177 0.40357 0.0
O388 O 0.50102 0.66897 0.42812 0.0
H389 H 0.5365 0.69187 0.45934 0.0
O390 O 0.54165 0.69479 0.43546 0.0
Co391 Co 0.55567 0.68925 0.48111 0.0
O392 O 0.55412 0.70929 0.52345 0.0
O393 O 0.53239 0.71817 0.49541 0.0
O394 O 0.56668 0.67614 0.43851 0.0
O395 O 0.55185 0.67375 0.37788 0.0
O396 O 0.45327 0.66064 0.37276 0.0
O397 O 0.46099 0.65476 0.42931 0.0
O398 O 0.53244 0.66358 0.50767 0.0
O399 O 0.50954 0.67447 0.50828 0.0
C400 C 0.4942 0.64755 0.33266 0.0
C401 C 0.48116 0.69994 0.44881 0.0
C402 C 0.59006 0.70372 0.51614 0.0
C403 C 0.51978 0.70201 0.34027 0.0
C404 C 0.54532 0.7204 0.52269 0.0
C405 C 0.56526 0.67264 0.40021 0.0
C406 C 0.44658 0.65207 0.40615 0.0
C407 C 0.51552 0.66199 0.5201 0.0
O408 O 0.48439 0.65712 0.33983 0.0
O409 O 0.50935 0.6497 0.35481 0.0
O410 O 0.49086 0.69538 0.47481 0.0
O411 O 0.48167 0.69639 0.41156 0.0
O412 O 0.57731 0.68469 0.5121 0.0
O413 O 0.58337 0.71441 0.49983 0.0
O414 O 0.50093 0.69485 0.34998 0.0
O415 O 0.53086 0.6949 0.35548 0.0
Co416 Co 0.363 0.83422 0.39149 0.0
Co417 Co 0.34105 0.84599 0.46155 0.0
Co418 Co 0.36443 0.87749 0.39764 0.0
H419 H 0.36403 0.85648 0.40536 0.0
O420 O 0.3663 0.85519 0.43016 0.0
H421 H 0.34357 0.86848 0.45929 0.0
O422 O 0.34121 0.87087 0.4351 0.0
Co423 Co 0.34627 0.89039 0.48079 0.0
O424 O 0.32613 0.869 0.52324 0.0
O425 O 0.31634 0.83831 0.49461 0.0
O426 O 0.35972 0.91439 0.43792 0.0
O427 O 0.36403 0.9022 0.37852 0.0
O428 O 0.3715 0.81248 0.37957 0.0
O429 O 0.38358 0.83192 0.42915 0.0
O430 O 0.37092 0.89214 0.51046 0.0
O431 O 0.36014 0.85834 0.50898 0.0
C432 C 0.39184 0.87046 0.33988 0.0
C433 C 0.3345 0.80434 0.45068 0.0
C434 C 0.33169 0.91051 0.51459 0.0
C435 C 0.33426 0.84142 0.34223 0.0
C436 C 0.31448 0.84913 0.52211 0.0
C437 C 0.36447 0.91664 0.40009 0.0
C438 C 0.38317 0.81731 0.40967 0.0
C439 C 0.37242 0.87663 0.52196 0.0
O440 O 0.38239 0.8511 0.34732 0.0
O441 O 0.38769 0.88315 0.35835 0.0
O442 O 0.33853 0.81876 0.47605 0.0
O443 O 0.33901 0.80807 0.41363 0.0
O444 O 0.35049 0.91796 0.50545 0.0
O445 O 0.32129 0.89189 0.50396 0.0
O446 O 0.34006 0.82896 0.35417 0.0
O447 O 0.34255 0.86014 0.35534 0.0
Co448 Co 0.20191 0.55068 0.39003 0.0
Co449 Co 0.1883 0.51854 0.46232 0.0
Co450 Co 0.15766 0.51019 0.3968 0.0
H451 H 0.17898 0.5305 0.40426 0.0
O452 O 0.18007 0.53458 0.4287 0.0
H453 H 0.1657 0.49869 0.46006 0.0
O454 O 0.1634 0.49369 0.43606 0.0
Co455 Co 0.14358 0.47972 0.48154 0.0
O456 O 0.16446 0.48045 0.52452 0.0
O457 O 0.1954 0.5017 0.49704 0.0
O458 O 0.11994 0.46928 0.43795 0.0
O459 O 0.13262 0.48519 0.37819 0.0
O460 O 0.22715 0.58001 0.38526 0.0
O461 O 0.20163 0.57472 0.41967 0.0
O462 O 0.14201 0.50277 0.51075 0.0
O463 O 0.17579 0.52603 0.50837 0.0
C464 C 0.16685 0.543 0.3343 0.0
C465 C 0.23017 0.5504 0.45032 0.0
C466 C 0.12256 0.44537 0.51612 0.0
C467 C 0.19365 0.5138 0.34354 0.0
C468 C 0.18434 0.48875 0.52398 0.0
C469 C 0.11793 0.47154 0.39993 0.0
C470 C 0.21942 0.5879 0.40773 0.0
C471 C 0.15752 0.51995 0.52161 0.0
O472 O 0.18622 0.55185 0.34195 0.0
O473 O 0.15322 0.52778 0.35551 0.0
O474 O 0.21558 0.54321 0.47623 0.0
O475 O 0.22647 0.54965 0.41288 0.0
O476 O 0.12263 0.46171 0.52577 0.0
O477 O 0.13417 0.44849 0.48642 0.0
O478 O 0.20668 0.53202 0.35486 0.0
O479 O 0.17476 0.50428 0.35609 0.0
Co480 Co 0.14215 0.68461 0.87279 0.0
Co481 Co 0.17273 0.70153 0.95599 0.0
Co482 Co 0.18059 0.67824 0.89169 0.0
H483 H 0.16086 0.68112 0.89417 0.0
O484 O 0.15597 0.67861 0.91825 0.0
H485 H 0.19321 0.70089 0.94845 0.0
O486 O 0.19695 0.70321 0.92371 0.0
Co487 Co 0.2142 0.69972 0.96346 0.0
O488 O 0.21415 0.71553 0.01241 0.0
O489 O 0.19043 0.72442 0.99573 0.0
O490 O 0.21741 0.67678 0.93849 0.0
O491 O 0.20511 0.67561 0.87662 0.0
O492 O 0.12638 0.68249 0.82023 0.0
O493 O 0.1099 0.66918 0.87228 0.0
O494 O 0.19741 0.67948 1.00588 0.0
O495 O 0.16748 0.67927 0.99808 0.0
C496 C 0.15024 0.65199 0.83168 0.0
C497 C 0.13375 0.70201 0.95382 0.0
C498 C 0.25141 0.72032 0.94614 0.0
C499 C 0.18234 0.71072 0.83345 0.0
C500 C 0.20514 0.726 0.01843 0.0
C501 C 0.21603 0.67205 0.90143 0.0
C502 C 0.10864 0.67222 0.83554 0.0
C503 C 0.17861 0.67279 0.01542 0.0
O504 O 0.14262 0.66411 0.8305 0.0
O505 O 0.16315 0.65367 0.85855 0.0
O506 O 0.14778 0.70149 0.97513 0.0
O507 O 0.13121 0.69743 0.91598 0.0
O508 O 0.244 0.70562 0.97084 0.0
O509 O 0.23768 0.72337 0.9313 0.0
O510 O 0.16597 0.71001 0.84687 0.0
O511 O 0.18742 0.6974 0.84415 0.0
Co512 Co 0.35044 0.48167 0.87117 0.0
Co513 Co 0.33418 0.49588 0.95585 0.0
Co514 Co 0.35699 0.52652 0.89046 0.0
H515 H 0.35391 0.50383 0.8928 0.0
O516 O 0.35653 0.50144 0.9168 0.0
H517 H 0.336 0.51758 0.94893 0.0
O518 O 0.33297 0.51885 0.92463 0.0
Co519 Co 0.33982 0.54083 0.96365 0.0
O520 O 0.32058 0.52458 1.00876 0.0
O521 O 0.31192 0.49158 0.99645 0.0
O522 O 0.36612 0.56439 0.94045 0.0
O523 O 0.36025 0.55405 0.87689 0.0
O524 O 0.35129 0.46603 0.82044 0.0
O525 O 0.36811 0.46718 0.87071 0.0
O526 O 0.36376 0.545 0.99679 0.0
O527 O 0.35688 0.51214 0.99762 0.0
C528 C 0.38164 0.52205 0.82729 0.0
C529 C 0.33289 0.45595 0.95259 0.0
C530 C 0.32161 0.56027 0.95003 0.0
C531 C 0.32382 0.4957 0.83296 0.0
C532 C 0.30968 0.50522 0.01612 0.0
C533 C 0.3687 0.56843 0.90306 0.0
C534 C 0.3635 0.46079 0.83521 0.0
C535 C 0.3675 0.53112 1.00919 0.0
O536 O 0.37002 0.5022 0.82707 0.0
O537 O 0.38061 0.53318 0.85512 0.0
O538 O 0.33344 0.47046 0.9741 0.0
O539 O 0.33748 0.45804 0.91472 0.0
O540 O 0.33951 0.56823 0.96465 0.0
O541 O 0.31387 0.54119 0.94394 0.0
O542 O 0.32514 0.48016 0.84494 0.0
O543 O 0.33669 0.51412 0.84462 0.0
Co544 Co 0.55375 0.89341 0.87238 0.0
Co545 Co 0.5408 0.86329 0.95645 0.0
Co546 Co 0.50914 0.85488 0.89292 0.0
H547 H 0.53177 0.87467 0.89449 0.0
O548 O 0.53434 0.8797 0.91845 0.0
H549 H 0.51963 0.84273 0.94965 0.0
O550 O 0.51806 0.83882 0.92502 0.0
Co551 Co 0.49747 0.82191 0.9653 0.0
O552 O 0.51378 0.82172 0.01309 0.0
O553 O 0.54629 0.846 0.99682 0.0
O554 O 0.47151 0.82008 0.94248 0.0
O555 O 0.48176 0.83026 0.87941 0.0
O556 O 0.5757 0.92492 0.87163 0.0
O557 O 0.56102 0.90988 0.81921 0.0
O558 O 0.49504 0.83844 1.00975 0.0
O559 O 0.52389 0.86878 0.99819 0.0
C560 C 0.51252 0.88458 0.83213 0.0
C561 C 0.58019 0.90226 0.95286 0.0
C562 C 0.47966 0.78497 0.94542 0.0
C563 C 0.53954 0.853 0.83375 0.0
C564 C 0.53328 0.83105 0.01932 0.0
C565 C 0.4675 0.82041 0.90538 0.0
C566 C 0.57398 0.92689 0.83458 0.0
C567 C 0.50687 0.85753 0.01742 0.0
O568 O 0.53231 0.89236 0.83042 0.0
O569 O 0.50159 0.87192 0.85959 0.0
O570 O 0.56576 0.88842 0.97471 0.0
O571 O 0.57788 0.9045 0.91497 0.0
O572 O 0.47713 0.79137 0.97862 0.0
O573 O 0.49247 0.79952 0.92367 0.0
O574 O 0.55522 0.86964 0.8462 0.0
O575 O 0.52115 0.84767 0.84532 0.0
H576 H 0.03396 0.10803 0.71935 0.0
H577 H 0.0506 0.08797 0.73712 0.0
H578 H 0.09694 0.13985 0.805 0.0
H579 H 0.08051 0.16012 0.78685 0.0
H580 H 0.1134 0.12259 0.75375 0.0
H581 H 0.04981 0.06146 0.84457 0.0
H582 H 0.04169 0.06442 0.79553 0.0
H583 H 0.05058 0.0853 0.83113 0.0
C584 C 0.04767 0.11514 0.73811 0.0
C585 C 0.05597 0.13561 0.75174 0.0
C586 C 0.05704 0.1036 0.74855 0.0
C587 C 0.07475 0.1123 0.77303 0.0
C588 C 0.08316 0.13281 0.78641 0.0
H589 H 0.15584 0.0615 0.83175 0.0
H590 H 0.13812 0.08171 0.83895 0.0
C591 C 0.07379 0.14436 0.776 0.0
C592 C 0.0851 0.10033 0.7829 0.0
H593 H 0.0767 0.05473 0.8236 0.0
C594 C 0.10554 0.10794 0.76969 0.0
C595 C 0.07473 0.0812 0.80357 0.0
C596 C 0.05305 0.07269 0.81987 0.0
C597 C 0.1156 0.09647 0.77502 0.0
C598 C 0.10502 0.07709 0.7947 0.0
C599 C 0.08479 0.06972 0.8089 0.0
C600 C 0.11388 0.06328 0.79629 0.0
C601 C 0.13704 0.10462 0.75772 0.0
C602 C 0.10557 0.04586 0.77125 0.0
C603 C 0.11565 0.03451 0.76697 0.0
C604 C 0.13407 0.04022 0.78807 0.0
C605 C 0.14159 0.05674 0.81542 0.0
C606 C 0.13159 0.06833 0.81933 0.0
H607 H 0.14195 0.11858 0.73879 0.0
H608 H 0.14838 0.10877 0.78252 0.0
H609 H 0.13761 0.0925 0.73929 0.0
H610 H 0.0919 0.04172 0.75333 0.0
H611 H 0.10948 0.02175 0.74585 0.0
H612 H 0.95893 0.11227 0.77322 0.0
H613 H 0.94121 0.07451 0.77809 0.0
H614 H 0.99662 0.07846 0.82763 0.0
H615 H 0.01444 0.11649 0.82237 0.0
H616 H 0.98209 0.05271 0.76356 0.0
H617 H 0.91733 0.03289 0.86815 0.0
H618 H 0.91811 0.05004 0.82962 0.0
H619 H 0.93938 0.05877 0.86444 0.0
C620 C 0.967 0.10505 0.78658 0.0
C621 C 0.98775 0.11708 0.79842 0.0
C622 C 0.95691 0.08351 0.78938 0.0
C623 C 0.96746 0.07366 0.8039 0.0
C624 C 0.98811 0.08577 0.81693 0.0
H625 H 0.89496 0.93819 0.81187 0.0
H626 H 0.91719 0.97445 0.83131 0.0
C627 C 0.99819 0.10742 0.81434 0.0
C628 C 0.95754 0.05082 0.80085 0.0
H629 H 0.91221 0.00626 0.82034 0.0
C630 C 0.96698 0.04247 0.77662 0.0
C631 C 0.93799 0.03744 0.81829 0.0
C632 C 0.92774 0.04525 0.84692 0.0
C633 C 0.95687 0.02122 0.76762 0.0
C634 C 0.93654 0.00812 0.78238 0.0
C635 C 0.92763 0.01632 0.80841 0.0
C636 C 0.92394 0.98604 0.77038 0.0
C637 C 0.96806 0.01313 0.74224 0.0
C638 C 0.92016 0.98048 0.72965 0.0
C639 C 0.90767 0.95974 0.7185 0.0
C640 C 0.89832 0.94428 0.7479 0.0
C641 C 0.90183 0.94986 0.78861 0.0
C642 C 0.91459 0.97054 0.79973 0.0
H643 H 0.98516 0.02303 0.74526 0.0
H644 H 0.96357 0.99699 0.75055 0.0
H645 H 0.96412 0.01335 0.71021 0.0
H646 H 0.92664 0.99221 0.70645 0.0
H647 H 0.90514 0.95582 0.68692 0.0
H648 H 0.91794 0.88212 0.84418 0.0
H649 H 0.95577 0.90037 0.85504 0.0
H650 H 0.96459 0.93692 0.74875 0.0
H651 H 0.92743 0.91936 0.73836 0.0
H652 H 0.98352 0.89946 0.80186 0.0
H653 H 1.00397 0.9808 0.82461 0.0
H654 H 0.97769 0.95955 0.82987 0.0
H655 H 0.98793 0.97028 0.78111 0.0
C656 C 0.92801 0.89445 0.82388 0.0
C657 C 0.91978 0.89923 0.79031 0.0
C658 C 0.94956 0.90479 0.83 0.0
C659 C 0.96299 0.92024 0.80303 0.0
C660 C 0.95459 0.92548 0.77055 0.0
H661 H 0.08081 0.98181 0.69795 0.0
H662 H 0.04492 0.96622 0.72117 0.0
C663 C 0.93328 0.9152 0.76438 0.0
C664 C 0.98581 0.92939 0.80524 0.0
H665 H 0.03084 0.97552 0.7945 0.0
C666 C 0.99397 0.9161 0.80143 0.0
C667 C 0.9994 0.9511 0.80453 0.0
C668 C 0.99176 0.96621 0.81067 0.0
C669 C 0.01516 0.92392 0.79377 0.0
C670 C 0.02848 0.94558 0.79038 0.0
C671 C 0.02054 0.9589 0.79674 0.0
C672 C 0.05025 0.95467 0.77683 0.0
C673 C 0.02291 0.90896 0.78673 0.0
C674 C 0.0651 0.95331 0.80047 0.0
C675 C 0.08563 0.96214 0.78715 0.0
C676 C 0.09157 0.97251 0.75007 0.0
C677 C 0.07664 0.97381 0.72652 0.0
C678 C 0.05618 0.965 0.73983 0.0
H679 H 0.01002 0.89268 0.78422 0.0
H680 H 0.03238 0.91308 0.75892 0.0
H681 H 0.03295 0.90989 0.81217 0.0
H682 H 0.06088 0.94565 0.82936 0.0
H683 H 0.09689 0.9611 0.80608 0.0
H684 H 0.99399 0.92835 0.30567 0.0
H685 H 0.97632 0.94729 0.28771 0.0
H686 H 0.92596 0.89167 0.23626 0.0
H687 H 0.94418 0.87281 0.25248 0.0
H688 H 0.93651 0.92454 0.18858 0.0
H689 H 0.92804 0.94515 0.34419 0.0
H690 H 0.95462 0.95402 0.33206 0.0
H691 H 0.9362 0.92662 0.33317 0.0
C692 C 0.97911 0.92012 0.29069 0.0
C693 C 0.9704 0.89909 0.28063 0.0
C694 C 0.96895 0.93093 0.28066 0.0
C695 C 0.94959 0.9208 0.2614 0.0
C696 C 0.94083 0.89977 0.25131 0.0
H697 H 0.8647 0.96588 0.20499 0.0
H698 H 0.88114 0.94433 0.20443 0.0
C699 C 0.95118 0.88899 0.26077 0.0
C700 C 0.93873 0.93234 0.25137 0.0
H701 H 0.92247 0.96379 0.292 0.0
C702 C 0.93324 0.93296 0.21123 0.0
C703 C 0.93431 0.94318 0.28101 0.0
C704 C 0.9384 0.94204 0.32504 0.0
C705 C 0.92414 0.94477 0.19979 0.0
C706 C 0.92053 0.9562 0.22924 0.0
C707 C 0.92556 0.95519 0.26941 0.0
C708 C 0.91169 0.96957 0.21966 0.0
C709 C 0.91892 0.94541 0.15632 0.0
C710 C 0.9236 0.99093 0.22698 0.0
C711 C 0.91425 1.00311 0.22735 0.0
C712 C 0.89292 0.99415 0.22034 0.0
C713 C 0.88129 0.97314 0.20972 0.0
C714 C 0.89064 0.96085 0.20953 0.0
H715 H 0.92555 0.93827 0.13635 0.0
H716 H 0.90181 0.93684 0.15261 0.0
H717 H 0.92474 0.96166 0.14666 0.0
H718 H 0.93984 0.99792 0.23493 0.0
H719 H 0.9234 0.01927 0.23561 0.0
H720 H 0.15977 0.09633 0.23793 0.0
H721 H 0.14089 0.05979 0.21784 0.0
H722 H 0.08492 0.05308 0.27046 0.0
H723 H 0.10368 0.08958 0.29061 0.0
H724 H 0.11939 0.02518 0.27004 0.0
H725 H 0.06712 0.02896 0.15599 0.0
H726 H 0.09032 0.05169 0.17351 0.0
H727 H 0.06716 0.04036 0.20353 0.0
C728 C 0.14342 0.08706 0.24508 0.0
C729 C 0.13316 0.09572 0.26582 0.0
C730 C 0.13268 0.06625 0.23354 0.0
C731 C 0.11148 0.05389 0.24211 0.0
C732 C 0.10121 0.0625 0.26292 0.0
H733 H 0.01787 0.92907 0.25152 0.0
H734 H 0.03875 0.96664 0.24436 0.0
C735 C 0.11196 0.08326 0.27471 0.0
C736 C 0.10031 0.03169 0.23115 0.0
H737 H 0.05879 0.99516 0.17826 0.0
C738 C 0.10637 0.01862 0.24943 0.0
C739 C 0.08332 0.02328 0.20435 0.0
C740 C 0.07666 0.0368 0.18289 0.0
C741 C 0.09524 0.99714 0.2431 0.0
C742 C 0.07792 0.98864 0.21705 0.0
C743 C 0.07224 1.0018 0.19782 0.0
C744 C 0.06404 0.96599 0.21376 0.0
C745 C 0.10138 0.98357 0.26602 0.0
C746 C 0.07094 0.95317 0.19714 0.0
C747 C 0.05885 0.93158 0.2009 0.0
C748 C 0.03992 0.92277 0.22167 0.0
C749 C 0.03248 0.93559 0.23564 0.0
C750 C 0.04437 0.95701 0.23149 0.0
H751 H 0.11314 0.99233 0.28955 0.0
H752 H 0.0876 0.97051 0.28052 0.0
H753 H 0.10802 0.97691 0.24493 0.0
H754 H 0.08606 0.95988 0.18308 0.0
H755 H 0.06494 0.92195 0.1902 0.0
H756 H 0.1112 0.17164 0.21866 0.0
H757 H 0.07311 0.15309 0.21656 0.0
H758 H 0.07209 0.09472 0.21639 0.0
H759 H 0.11014 0.11329 0.21835 0.0
H760 H 0.03936 0.11598 0.16582 0.0
H761 H 0.04694 0.10171 0.32745 0.0
H762 H 0.06812 0.12198 0.29933 0.0
H763 H 0.06101 0.09542 0.29161 0.0
C764 C 0.10278 0.15489 0.2164 0.0
C765 C 0.11332 0.14375 0.21844 0.0
C766 C 0.08112 0.14433 0.21534 0.0
C767 C 0.06993 0.12261 0.21661 0.0
C768 C 0.08054 0.11151 0.21539 0.0
H769 H 0.94506 0.03814 0.29691 0.0
H770 H 0.98137 0.05471 0.2766 0.0
C771 C 0.10218 0.12206 0.21644 0.0
C772 C 0.04754 0.11178 0.22553 0.0
H773 H 0.0133 0.08867 0.30227 0.0
C774 C 0.03354 0.1099 0.19552 0.0
C775 C 0.0402 0.10395 0.26437 0.0
C776 C 0.05478 0.1059 0.29776 0.0
C777 C 0.01214 0.10004 0.20328 0.0
C778 C 1.00479 0.09253 0.24244 0.0
C779 C 0.01892 0.09445 0.27232 0.0
C780 C 0.98254 0.08241 0.25335 0.0
C781 C 0.99765 0.09736 0.16924 0.0
C782 C 0.97116 0.09258 0.24759 0.0
C783 C 0.95024 0.08293 0.25853 0.0
C784 C 0.94055 0.0632 0.27626 0.0
C785 C 0.95213 0.05335 0.28319 0.0
C786 C 0.97287 0.06279 0.27155 0.0
H787 H 1.00481 0.09799 0.13963 0.0
H788 H 0.98286 0.0824 0.17162 0.0
H789 H 0.9941 0.11013 0.17016 0.0
H790 H 0.97846 0.10801 0.23488 0.0
H791 H 0.94168 0.09092 0.25319 0.0
H792 H 0.78028 0.36345 0.078 0.0
H793 H 0.76328 0.38367 0.08804 0.0
H794 H 0.80445 0.41589 0.18674 0.0
H795 H 0.82196 0.39561 0.17634 0.0
H796 H 0.74334 0.39038 0.15226 0.0
H797 H 0.81547 0.4624 0.1066 0.0
H798 H 0.81249 0.43703 0.10011 0.0
H799 H 0.81715 0.44848 0.14914 0.0
C800 C 0.78561 0.37466 0.10221 0.0
C801 C 0.80266 0.37822 0.126 0.0
C802 C 0.77579 0.38614 0.10802 0.0
C803 C 0.78283 0.40153 0.13762 0.0
C804 C 0.79902 0.40429 0.16327 0.0
H805 H 0.74362 0.49505 0.1321 0.0
H806 H 0.75982 0.4752 0.15506 0.0
C807 C 0.80888 0.39262 0.15757 0.0
C808 C 0.774 0.41546 0.13861 0.0
H809 H 0.78504 0.46411 0.11143 0.0
C810 C 0.75252 0.40661 0.14412 0.0
C811 C 0.78599 0.43662 0.12776 0.0
C812 C 0.80904 0.44678 0.12027 0.0
C813 C 0.74257 0.4181 0.13739 0.0
C814 C 0.75441 0.4389 0.12441 0.0
C815 C 0.77603 0.44812 0.12122 0.0
C816 C 0.74452 0.45084 0.111 0.0
C817 C 0.71939 0.4077 0.14325 0.0
C818 C 0.73094 0.44393 0.07807 0.0
C819 C 0.72181 0.45526 0.06478 0.0
C820 C 0.72617 0.47376 0.08407 0.0
C821 C 0.74004 0.48086 0.11662 0.0
C822 C 0.74922 0.46952 0.12986 0.0
H823 H 0.71374 0.39446 0.16444 0.0
H824 H 0.71478 0.41881 0.15469 0.0
H825 H 0.71156 0.40157 0.11401 0.0
H826 H 0.72749 0.4298 0.06251 0.0
H827 H 0.71117 0.44942 0.03965 0.0
H828 H 0.62925 0.44929 0.15053 0.0
H829 H 0.60905 0.41123 0.15465 0.0
H830 H 0.66261 0.408 0.11565 0.0
H831 H 0.68256 0.44578 0.11108 0.0
H832 H 0.6045 0.38801 0.08185 0.0
H833 H 0.63727 0.36405 0.20665 0.0
H834 H 0.64006 0.38955 0.20386 0.0
H835 H 0.65613 0.38331 0.17353 0.0
C836 C 0.63684 0.4404 0.14448 0.0
C837 C 0.65742 0.45027 0.13086 0.0
C838 C 0.62532 0.41874 0.14655 0.0
C839 C 0.63442 0.40686 0.13575 0.0
C840 C 0.6554 0.41688 0.12475 0.0
H841 H 0.59528 0.28091 0.06725 0.0
H842 H 0.61451 0.31792 0.08411 0.0
C843 C 0.66678 0.43843 0.12209 0.0
C844 C 0.62149 0.38421 0.13016 0.0
H845 H 0.61598 0.33785 0.15947 0.0
C846 C 0.60673 0.37698 0.09923 0.0
C847 C 0.62483 0.37001 0.15235 0.0
C848 C 0.64032 0.37704 0.18619 0.0
C849 C 0.59552 0.35589 0.08924 0.0
C850 C 0.59883 0.34165 0.11144 0.0
C851 C 0.61346 0.34885 0.14262 0.0
C852 C 0.5873 0.31922 0.1024 0.0
C853 C 0.58077 0.34909 0.05408 0.0
C854 C 0.56573 0.30774 0.10766 0.0
C855 C 0.55475 0.28667 0.09815 0.0
C856 C 0.56519 0.27678 0.08317 0.0
C857 C 0.58684 0.28823 0.07843 0.0
C858 C 0.59783 0.30929 0.08818 0.0
H859 H 0.5836 0.36235 0.03459 0.0
H860 H 0.58219 0.33747 0.03557 0.0
H861 H 0.5646 0.34177 0.06536 0.0
H862 H 0.55739 0.31511 0.11907 0.0
H863 H 0.53808 0.27818 0.10222 0.0
H864 H 0.76411 0.30193 0.14347 0.0
H865 H 0.72771 0.28488 0.1644 0.0
H866 H 0.71076 0.29746 0.0484 0.0
H867 H 0.74718 0.31496 0.02764 0.0
H868 H 0.69158 0.30568 0.11145 0.0
H869 H 0.68343 0.2276 0.12634 0.0
H870 H 0.70382 0.24769 0.15567 0.0
H871 H 0.70535 0.24888 0.10185 0.0
C872 C 0.75258 0.30096 0.1224 0.0
C873 C 0.75837 0.30951 0.08376 0.0
C874 C 0.73183 0.29122 0.13439 0.0
C875 C 0.71653 0.28967 0.10776 0.0
C876 C 0.72234 0.29847 0.06937 0.0
H877 H 0.59096 0.21213 0.0671 0.0
H878 H 0.62845 0.23026 0.07541 0.0
C879 C 0.7431 0.30834 0.05746 0.0
C880 C 0.69437 0.27851 0.1193 0.0
H881 H 0.65395 0.23027 0.14052 0.0
C882 C 0.68337 0.28925 0.11839 0.0
C883 C 0.68375 0.25705 0.12809 0.0
C884 C 0.69459 0.24453 0.12777 0.0
C885 C 0.66184 0.27893 0.12459 0.0
C886 C 0.6512 0.25742 0.13257 0.0
C887 C 0.66231 0.24685 0.13505 0.0
C888 C 0.62833 0.24504 0.13121 0.0
C889 C 0.65041 0.29078 0.12013 0.0
C890 C 0.61582 0.24691 0.16056 0.0
C891 C 0.59419 0.23634 0.15602 0.0
C892 C 0.58504 0.22407 0.12185 0.0
C893 C 0.59764 0.22163 0.09357 0.0
C894 C 0.61904 0.23193 0.09831 0.0
H895 H 0.66074 0.30696 0.10987 0.0
H896 H 0.6375 0.28286 0.09831 0.0
H897 H 0.64357 0.29123 0.14942 0.0
H898 H 0.6228 0.2569 0.1863 0.0
H899 H 0.58476 0.23852 0.17808 0.0
H900 H 0.58766 0.34822 0.59545 0.0
H901 H 0.60392 0.32707 0.58678 0.0
H902 H 0.55331 0.28506 0.51077 0.0
H903 H 0.53701 0.30657 0.51894 0.0
H904 H 0.56139 0.26762 0.58294 0.0
H905 H 0.63243 0.3142 0.49209 0.0
H906 H 0.62829 0.32841 0.53107 0.0
H907 H 0.61027 0.31796 0.49007 0.0
C908 C 0.5803 0.33481 0.57593 0.0
C909 C 0.56111 0.32895 0.55786 0.0
C910 C 0.58964 0.3228 0.57087 0.0
C911 C 0.57987 0.30461 0.54795 0.0
C912 C 0.56115 0.29919 0.52825 0.0
H913 H 0.63271 0.22263 0.53737 0.0
H914 H 0.61503 0.24162 0.5181 0.0
C915 C 0.55192 0.31147 0.53277 0.0
C916 C 0.58794 0.29012 0.54953 0.0
H917 H 0.63154 0.28712 0.53247 0.0
C918 C 0.57654 0.27163 0.57117 0.0
C919 C 0.60774 0.29553 0.53441 0.0
C920 C 0.62037 0.31503 0.5103 0.0
C921 C 0.58488 0.25886 0.57975 0.0
C922 C 0.60508 0.26478 0.56627 0.0
C923 C 0.61608 0.28273 0.54292 0.0
C924 C 0.61541 0.25306 0.57789 0.0
C925 C 0.5723 0.23943 0.60412 0.0
C926 C 0.62152 0.2534 0.61782 0.0
C927 C 0.63168 0.24269 0.62886 0.0
C928 C 0.63579 0.23143 0.60013 0.0
C929 C 0.62959 0.23107 0.56017 0.0
C930 C 0.61957 0.24193 0.54909 0.0
H931 H 0.5556 0.23476 0.60489 0.0
H932 H 0.57385 0.22643 0.59182 0.0
H933 H 0.57818 0.24224 0.63541 0.0
H934 H 0.61862 0.26213 0.64033 0.0
H935 H 0.6364 0.24331 0.65981 0.0
H936 H 0.82396 0.43229 0.55474 0.0
H937 H 0.80471 0.39557 0.53583 0.0
H938 H 0.76352 0.38277 0.63636 0.0
H939 H 0.78275 0.41937 0.6556 0.0
H940 H 0.77974 0.35551 0.62816 0.0
H941 H 0.74557 0.36422 0.48611 0.0
H942 H 0.77321 0.38042 0.49143 0.0
H943 H 0.75621 0.38416 0.52414 0.0
C944 C 0.81082 0.42161 0.57281 0.0
C945 C 0.80485 0.4286 0.60668 0.0
C946 C 0.79978 0.40072 0.56181 0.0
C947 C 0.78258 0.38659 0.58444 0.0
C948 C 0.77673 0.39351 0.61847 0.0
H949 H 0.68511 0.26268 0.58226 0.0
H950 H 0.70701 0.30037 0.57761 0.0
C951 C 0.78773 0.41437 0.62945 0.0
C952 C 0.77093 0.36441 0.57347 0.0
H953 H 0.73825 0.33041 0.50305 0.0
C954 C 0.77084 0.35002 0.60064 0.0
C955 C 0.75926 0.3574 0.53762 0.0
C956 C 0.75835 0.37228 0.50817 0.0
C957 C 0.75914 0.3287 0.59313 0.0
C958 C 0.74735 0.32168 0.5575 0.0
C959 C 0.74762 0.33601 0.52999 0.0
C960 C 0.733 0.2994 0.5511 0.0
C961 C 0.75884 0.31368 0.62388 0.0
C962 C 0.74019 0.28655 0.53599 0.0
C963 C 0.72755 0.26497 0.53801 0.0
C964 C 0.70785 0.25625 0.55577 0.0
C965 C 0.70025 0.26917 0.56832 0.0
C966 C 0.7127 0.29062 0.5657 0.0
H967 H 0.76885 0.32169 0.65016 0.0
H968 H 0.74272 0.30344 0.63461 0.0
H969 H 0.76419 0.30366 0.6099 0.0
H970 H 0.75593 0.29318 0.52496 0.0
H971 H 0.73377 0.25522 0.52876 0.0
H972 H 0.78155 0.4946 0.51603 0.0
H973 H 0.7437 0.47817 0.5076 0.0
H974 H 0.73471 0.43343 0.59897 0.0
H975 H 0.77212 0.44959 0.60739 0.0
H976 H 0.70713 0.41666 0.53225 0.0
H977 H 0.71035 0.48687 0.59872 0.0
H978 H 0.72603 0.49059 0.555 0.0
H979 H 0.73198 0.48239 0.60125 0.0
C980 C 0.77144 0.48096 0.53352 0.0
C981 C 0.77966 0.47348 0.56269 0.0
C982 C 0.7499 0.4717 0.52891 0.0
C983 C 0.73648 0.45481 0.55315 0.0
C984 C 0.7448 0.4465 0.58013 0.0
H985 H 0.61747 0.39096 0.657 0.0
H986 H 0.65396 0.40777 0.63653 0.0
C987 C 0.76617 0.4558 0.585 0.0
C988 C 0.71385 0.44666 0.55362 0.0
H989 H 0.67741 0.4578 0.58863 0.0
C990 C 0.70058 0.42575 0.54378 0.0
C991 C 0.70543 0.45852 0.56935 0.0
C992 C 0.7191 0.4808 0.582 0.0
C993 C 0.67913 0.41622 0.55038 0.0
C994 C 0.67088 0.42794 0.56715 0.0
C995 C 0.68395 0.449 0.57556 0.0
C996 C 0.64893 0.4181 0.57919 0.0
C997 C 0.66541 0.39353 0.54084 0.0
C998 C 0.63425 0.41864 0.55374 0.0
C999 C 0.61344 0.40911 0.56536 0.0
C1000 C 0.60711 0.39898 0.60262 0.0
C1001 C 0.62194 0.39868 0.62817 0.0
C1002 C 0.64272 0.4082 0.61653 0.0
H1003 H 0.67392 0.38701 0.52472 0.0
H1004 H 0.65906 0.38473 0.56914 0.0
H1005 H 0.65206 0.39123 0.52222 0.0
H1006 H 0.63888 0.42625 0.52483 0.0
H1007 H 0.60228 0.40945 0.545 0.0
H1008 H 0.48708 0.72585 0.51258 0.0
H1009 H 0.46881 0.7453 0.52415 0.0
H1010 H 0.42944 0.71485 0.42225 0.0
H1011 H 0.44716 0.69547 0.41105 0.0
H1012 H 0.46821 0.77245 0.46838 0.0
H1013 H 0.38772 0.7121 0.50253 0.0
H1014 H 0.40924 0.70745 0.50667 0.0
H1015 H 0.39708 0.70538 0.45882 0.0
C1016 C 0.47414 0.72297 0.49347 0.0
C1017 C 0.46861 0.70931 0.46078 0.0
C1018 C 0.46378 0.73409 0.49999 0.0
C1019 C 0.44757 0.73129 0.47438 0.0
C1020 C 0.44153 0.71692 0.44298 0.0
H1021 H 0.38241 0.78445 0.37252 0.0
H1022 H 0.3986 0.76465 0.39513 0.0
C1023 C 0.45186 0.70601 0.43635 0.0
C1024 C 0.43846 0.74494 0.47656 0.0
H1025 H 0.39198 0.74339 0.47051 0.0
C1026 C 0.45158 0.76625 0.47001 0.0
C1027 C 0.41676 0.73675 0.47846 0.0
C1028 C 0.40194 0.71418 0.48741 0.0
C1029 C 0.44347 0.77932 0.46225 0.0
C1030 C 0.42172 0.77083 0.46166 0.0
C1031 C 0.40866 0.74979 0.47066 0.0
C1032 C 0.41216 0.78309 0.44852 0.0
C1033 C 0.45814 0.80178 0.45216 0.0
C1034 C 0.41444 0.79998 0.47113 0.0
C1035 C 0.40528 0.81137 0.45817 0.0
C1036 C 0.39366 0.80597 0.42249 0.0
C1037 C 0.39139 0.78903 0.39999 0.0
C1038 C 0.40053 0.77767 0.41295 0.0
H1039 H 0.47429 0.80507 0.44754 0.0
H1040 H 0.45295 0.80625 0.42461 0.0
H1041 H 0.45821 0.81168 0.4771 0.0
H1042 H 0.42313 0.80421 0.49894 0.0
H1043 H 0.4071 0.82425 0.47627 0.0
H1044 H 0.30139 0.78373 0.50147 0.0
H1045 H 0.28046 0.74585 0.50997 0.0
H1046 H 0.32354 0.73827 0.43535 0.0
H1047 H 0.3441 0.77569 0.42643 0.0
H1048 H 0.26329 0.7196 0.43978 0.0
H1049 H 0.31199 0.69769 0.5294 0.0
H1050 H 0.31543 0.72348 0.53029 0.0
H1051 H 0.32584 0.71562 0.48964 0.0
C1052 C 0.30664 0.77394 0.48802 0.0
C1053 C 0.32428 0.78251 0.46331 0.0
C1054 C 0.29468 0.75238 0.49272 0.0
C1055 C 0.30059 0.73932 0.47358 0.0
C1056 C 0.3189 0.74806 0.45092 0.0
H1057 H 0.25894 0.61755 0.38912 0.0
H1058 H 0.27715 0.65397 0.4097 0.0
C1059 C 0.33058 0.76943 0.4457 0.0
C1060 C 0.28659 0.71661 0.47239 0.0
H1061 H 0.28575 0.67097 0.48806 0.0
C1062 C 0.26789 0.70886 0.45117 0.0
C1063 C 0.29286 0.70277 0.48677 0.0
C1064 C 0.31255 0.71028 0.51062 0.0
C1065 C 0.25583 0.68769 0.44199 0.0
C1066 C 0.26246 0.67393 0.45523 0.0
C1067 C 0.28073 0.68158 0.4779 0.0
C1068 C 0.25136 0.65176 0.44372 0.0
C1069 C 0.23677 0.68043 0.41618 0.0
C1070 C 0.23089 0.63845 0.45633 0.0
C1071 C 0.22044 0.61766 0.4445 0.0
C1072 C 0.23033 0.60987 0.41995 0.0
C1073 C 0.25089 0.62318 0.40777 0.0
C1074 C 0.26133 0.64394 0.41965 0.0
H1075 H 0.23623 0.69356 0.40163 0.0
H1076 H 0.23619 0.66969 0.39246 0.0
H1077 H 0.2227 0.67194 0.4351 0.0
H1078 H 0.22304 0.64413 0.47541 0.0
H1079 H 0.20464 0.60768 0.45457 0.0
H1080 H 0.25662 0.53834 0.42471 0.0
H1081 H 0.29426 0.55681 0.43297 0.0
H1082 H 0.29051 0.60176 0.5088 0.0
H1083 H 0.25249 0.58296 0.50079 0.0
H1084 H 0.31731 0.61868 0.44225 0.0
H1085 H 0.3339 0.56446 0.52543 0.0
H1086 H 0.31629 0.55205 0.4845 0.0
H1087 H 0.30865 0.56238 0.52571 0.0
C1088 C 0.26381 0.55179 0.44418 0.0
C1089 C 0.25185 0.55918 0.46258 0.0
C1090 C 0.28526 0.56229 0.44898 0.0
C1091 C 0.29513 0.58049 0.4719 0.0
C1092 C 0.28311 0.58757 0.49145 0.0
H1093 H 0.43076 0.64141 0.48163 0.0
H1094 H 0.39442 0.62626 0.50205 0.0
C1095 C 0.26149 0.57681 0.48713 0.0
C1096 C 0.31801 0.59316 0.47096 0.0
H1097 H 0.36155 0.58962 0.48355 0.0
C1098 C 0.32708 0.61257 0.45206 0.0
C1099 C 0.3307 0.58521 0.48401 0.0
C1100 C 0.3219 0.56496 0.50642 0.0
C1101 C 0.34842 0.62373 0.44379 0.0
C1102 C 0.36085 0.61499 0.45405 0.0
C1103 C 0.35196 0.59616 0.47513 0.0
C1104 C 0.38289 0.62465 0.44178 0.0
C1105 C 0.35732 0.6446 0.42363 0.0
C1106 C 0.3884 0.62844 0.40107 0.0
C1107 C 0.40913 0.63723 0.3894 0.0
C1108 C 0.42462 0.64196 0.41818 0.0
C1109 C 0.41907 0.63777 0.45881 0.0
C1110 C 0.39836 0.6292 0.47052 0.0
H1111 H 0.34774 0.65189 0.42983 0.0
H1112 H 0.37346 0.65532 0.43366 0.0
H1113 H 0.35744 0.64255 0.39067 0.0
H1114 H 0.37666 0.62446 0.37824 0.0
H1115 H 0.41302 0.64022 0.35786 0.0
H1116 H 0.33891 0.60222 0.94703 0.0
H1117 H 0.32185 0.6219 0.92917 0.0
H1118 H 0.26411 0.5648 0.91158 0.0
H1119 H 0.28124 0.54501 0.92846 0.0
H1120 H 0.27205 0.5937 0.85166 0.0
H1121 H 0.28231 0.62905 1.00261 0.0
H1122 H 0.30611 0.63371 0.97987 0.0
H1123 H 0.28665 0.6077 0.99302 0.0
C1124 C 0.32255 0.59388 0.93954 0.0
C1125 C 0.31129 0.57211 0.93962 0.0
C1126 C 0.31283 0.60513 0.92939 0.0
C1127 C 0.29163 0.5948 0.91975 0.0
C1128 C 0.28046 0.57305 0.91908 0.0
H1129 H 0.20024 0.63211 0.87763 0.0
H1130 H 0.21933 0.61318 0.87532 0.0
C1131 C 0.29022 0.56179 0.92888 0.0
C1132 C 0.28101 0.60666 0.91097 0.0
H1133 H 0.26923 0.64145 0.95177 0.0
C1134 C 0.2714 0.60415 0.87349 0.0
C1135 C 0.2801 0.62017 0.93963 0.0
C1136 C 0.28916 0.62271 0.98117 0.0
C1137 C 0.26122 0.61514 0.86362 0.0
C1138 C 0.26048 0.62876 0.8922 0.0
C1139 C 0.27003 0.63117 0.92969 0.0
C1140 C 0.24947 0.6404 0.88491 0.0
C1141 C 0.25165 0.6123 0.82257 0.0
C1142 C 0.2601 0.66199 0.8902 0.0
C1143 C 0.24919 0.67266 0.892 0.0
C1144 C 0.22755 0.66198 0.88804 0.0
C1145 C 0.21701 0.64066 0.87984 0.0
C1146 C 0.22791 0.62988 0.87852 0.0
H1147 H 0.25852 0.60617 0.80075 0.0
H1148 H 0.23479 0.601 0.8246 0.0
H1149 H 0.25362 0.62713 0.81092 0.0
H1150 H 0.2767 0.6704 0.89529 0.0
H1151 H 0.25753 0.68907 0.89871 0.0
H1152 H 0.40409 0.59645 0.93864 0.0
H1153 H 0.42244 0.63393 0.92991 0.0
H1154 H 0.38064 0.62758 0.83423 0.0
H1155 H 0.36204 0.5896 0.84296 0.0
H1156 H 0.44191 0.66036 0.86303 0.0
H1157 H 0.37364 0.66374 0.92214 0.0
H1158 H 0.37593 0.64086 0.92681 0.0
H1159 H 0.36961 0.64748 0.87922 0.0
C1160 C 0.39906 0.60301 0.91516 0.0
C1161 C 0.38168 0.59027 0.89151 0.0
C1162 C 0.40956 0.62439 0.91019 0.0
C1163 C 0.40273 0.63349 0.88179 0.0
C1164 C 0.386 0.62077 0.85653 0.0
H1165 H 0.4777 0.76967 0.87029 0.0
H1166 H 0.45777 0.73344 0.84866 0.0
C1167 C 0.37555 0.59917 0.86123 0.0
C1168 C 0.41244 0.6563 0.88155 0.0
H1169 H 0.40465 0.69532 0.91392 0.0
C1170 C 0.43374 0.66813 0.87333 0.0
C1171 C 0.40171 0.66619 0.89586 0.0
C1172 C 0.37899 0.65402 0.90682 0.0
C1173 C 0.44485 0.68954 0.88061 0.0
C1174 C 0.4342 0.69941 0.89556 0.0
C1175 C 0.41272 0.68769 0.90226 0.0
C1176 C 0.44536 0.72151 0.90765 0.0
C1177 C 0.46807 0.7011 0.87461 0.0
C1178 C 0.44446 0.72688 0.94769 0.0
C1179 C 0.45561 0.74755 0.95998 0.0
C1180 C 0.46793 0.76317 0.93245 0.0
C1181 C 0.46856 0.75785 0.89224 0.0
C1182 C 0.45723 0.73719 0.87987 0.0
H1183 H 0.47435 0.69041 0.87198 0.0
H1184 H 0.47188 0.71029 0.84654 0.0
H1185 H 0.47604 0.71193 0.89987 0.0
H1186 H 0.43537 0.71502 0.96961 0.0
H1187 H 0.45474 0.75126 0.99109 0.0
H1188 H 0.43806 0.78373 0.93511 0.0
H1189 H 0.40073 0.76703 0.92498 0.0
H1190 H 0.40972 0.81448 0.84003 0.0
H1191 H 0.44754 0.83135 0.84988 0.0
H1192 H 0.3828 0.8085 0.90808 0.0
H1193 H 0.36109 0.73433 0.83176 0.0
H1194 H 0.37873 0.74001 0.87284 0.0
H1195 H 0.38697 0.75658 0.82945 0.0
C1196 C 0.43214 0.79035 0.91353 0.0
C1197 C 0.44559 0.80882 0.89331 0.0
C1198 C 0.41082 0.78072 0.90758 0.0
C1199 C 0.40252 0.78942 0.88149 0.0
C1200 C 0.41593 0.80746 0.85997 0.0
H1201 H 0.27018 0.75248 0.89321 0.0
H1202 H 0.30661 0.77039 0.87183 0.0
C1203 C 0.43744 0.817 0.86548 0.0
C1204 C 0.37985 0.78089 0.88119 0.0
H1205 H 0.33424 0.73542 0.87016 0.0
C1206 C 0.37207 0.79271 0.89881 0.0
C1207 C 0.36603 0.76022 0.86955 0.0
C1208 C 0.3736 0.74708 0.8495 0.0
C1209 C 0.35087 0.78394 0.90745 0.0
C1210 C 0.33717 0.76298 0.89736 0.0
C1211 C 0.34483 0.75148 0.87791 0.0
C1212 C 0.31513 0.75222 0.90956 0.0
C1213 C 0.3435 0.79672 0.92962 0.0
C1214 C 0.30792 0.73598 0.93744 0.0
C1215 C 0.28723 0.7258 0.9497 0.0
C1216 C 0.27339 0.73161 0.93406 0.0
C1217 C 0.28059 0.7478 0.90593 0.0
C1218 C 0.30135 0.75804 0.89375 0.0
H1219 H 0.3566 0.81137 0.94153 0.0
H1220 H 0.33439 0.80073 0.90891 0.0
H1221 H 0.33325 0.78777 0.955 0.0
H1222 H 0.31835 0.73126 0.94991 0.0
H1223 H 0.28204 0.71326 0.97117 0.0
H1224 H 0.16658 0.02922 0.59816 0.0
H1225 H 0.17622 0.05585 0.54717 0.0
H1226 H 0.23361 0.09498 0.60944 0.0
H1227 H 0.22405 0.06782 0.66081 0.0
H1228 H 0.18178 0.09425 0.56124 0.0
H1229 H 0.25306 0.10103 0.49264 0.0
H1230 H 0.23575 0.07922 0.5235 0.0
H1231 H 0.25317 0.10372 0.54629 0.0
C1232 C 0.18146 0.04334 0.60078 0.0
C1233 C 0.19454 0.04639 0.63367 0.0
C1234 C 0.18694 0.05863 0.57155 0.0
C1235 C 0.20564 0.07754 0.57422 0.0
C1236 C 0.21921 0.08044 0.60625 0.0
H1237 H 0.22931 0.18093 0.40609 0.0
H1238 H 0.23464 0.16353 0.46432 0.0
C1239 C 0.21377 0.06491 0.63562 0.0
C1240 C 0.20976 0.09429 0.54461 0.0
H1241 H 0.24064 0.12197 0.46542 0.0
C1242 C 0.19487 0.10052 0.54076 0.0
C1243 C 0.22682 0.10261 0.51775 0.0
C1244 C 0.24309 0.09627 0.51984 0.0
C1245 C 0.19607 0.11402 0.51008 0.0
C1246 C 0.21259 0.12162 0.4822 0.0
C1247 C 0.22806 0.11626 0.487 0.0
C1248 C 0.21209 0.13252 0.44508 0.0
C1249 C 0.17908 0.11935 0.50648 0.0
C1250 C 0.19819 0.12089 0.41455 0.0
C1251 C 0.19516 0.13068 0.38172 0.0
C1252 C 0.20599 0.15245 0.37827 0.0
C1253 C 0.22087 0.16417 0.40768 0.0
C1254 C 0.22384 0.15424 0.441 0.0
H1255 H 0.16985 0.11586 0.53452 0.0
H1256 H 0.18567 0.136 0.49905 0.0
H1257 H 0.16844 0.11012 0.48178 0.0
H1258 H 0.18901 0.10416 0.41692 0.0
H1259 H 0.18368 0.12113 0.35954 0.0
H1260 H 0.9848 0.19516 0.6284 0.0
H1261 H 0.95832 0.17999 0.57495 0.0
H1262 H 0.95037 0.11971 0.59998 0.0
H1263 H 0.97585 0.13426 0.65291 0.0
H1264 H 0.95817 0.15844 0.50544 0.0
H1265 H 0.89098 0.10664 0.59958 0.0
H1266 H 0.91449 0.12763 0.62062 0.0
H1267 H 0.91261 0.10307 0.60959 0.0
C1268 C 0.97713 0.17864 0.62285 0.0
C1269 C 0.98256 0.16604 0.64528 0.0
C1270 C 0.96206 0.16998 0.59219 0.0
C1271 C 0.95198 0.14857 0.58381 0.0
C1272 C 0.9574 0.13612 0.60633 0.0
H1273 H 0.88704 0.05264 0.4212 0.0
H1274 H 0.90424 0.07691 0.47592 0.0
C1275 C 0.97226 0.14463 0.63661 0.0
C1276 C 0.93655 0.13887 0.55055 0.0
H1277 H 0.88936 0.09631 0.53002 0.0
C1278 C 0.94288 0.14522 0.51081 0.0
C1279 C 0.91654 0.12154 0.55736 0.0
C1280 C 0.90819 0.11447 0.59916 0.0
C1281 C 0.93045 0.13383 0.47789 0.0
C1282 C 0.91104 0.11574 0.48483 0.0
C1283 C 0.90421 0.11014 0.52455 0.0
C1284 C 0.89903 0.10086 0.45197 0.0
C1285 C 0.93874 0.14038 0.43592 0.0
C1286 C 0.88973 0.10592 0.42047 0.0
C1287 C 0.87957 0.09181 0.38885 0.0
C1288 C 0.87878 0.07255 0.38812 0.0
C1289 C 0.88747 0.06739 0.42053 0.0
C1290 C 0.89734 0.08127 0.45199 0.0
H1291 H 0.95505 0.15337 0.43574 0.0
H1292 H 0.93795 0.12711 0.4192 0.0
H1293 H 0.92903 0.14543 0.41969 0.0
H1294 H 0.89058 0.12084 0.42004 0.0
H1295 H 0.87312 0.0963 0.36431 0.0
H1296 H 0.90055 0.861 0.65755 0.0
H1297 H 0.91499 0.85022 0.60383 0.0
H1298 H 0.85341 0.80388 0.56715 0.0
H1299 H 0.83856 0.81513 0.62115 0.0
H1300 H 0.91358 0.81433 0.58625 0.0
H1301 H 0.87728 0.83551 0.46295 0.0
H1302 H 0.87707 0.84298 0.51435 0.0
H1303 H 0.85977 0.8168 0.49855 0.0
C1304 C 0.88992 0.84844 0.63827 0.0
C1305 C 0.86829 0.83911 0.64355 0.0
C1306 C 0.89829 0.84222 0.60748 0.0
C1307 C 0.88538 0.82646 0.58079 0.0
C1308 C 0.86374 0.81639 0.58679 0.0
H1309 H 0.93785 0.80183 0.36087 0.0
H1310 H 0.91314 0.79499 0.41617 0.0
C1311 C 0.85525 0.82266 0.61796 0.0
C1312 C 0.89511 0.82138 0.5466 0.0
H1313 H 0.90124 0.82529 0.44451 0.0
C1314 C 0.91058 0.81637 0.55522 0.0
C1315 C 0.89137 0.82412 0.50596 0.0
C1316 C 0.8756 0.8303 0.49465 0.0
C1317 C 0.92288 0.8149 0.52479 0.0
C1318 C 0.91974 0.81851 0.48442 0.0
C1319 C 0.90355 0.82238 0.47542 0.0
C1320 C 0.93478 0.8211 0.45219 0.0
C1321 C 0.93967 0.81019 0.53628 0.0
C1322 C 0.95513 0.83787 0.45417 0.0
C1323 C 0.96908 0.84181 0.42283 0.0
C1324 C 0.96314 0.82905 0.38858 0.0
C1325 C 0.94297 0.81176 0.38707 0.0
C1326 C 0.92882 0.80795 0.41848 0.0
H1327 H 0.93628 0.80196 0.5655 0.0
H1328 H 0.94159 0.80063 0.51298 0.0
H1329 H 0.9546 0.82496 0.53925 0.0
H1330 H 0.96006 0.8484 0.47948 0.0
H1331 H 0.98447 0.85529 0.42495 0.0
H1332 H 0.06832 0.2476 0.89433 0.0
H1333 H 0.09487 0.25204 0.94334 0.0
H1334 H 0.07458 0.18694 0.93496 0.0
H1335 H 0.04837 0.1824 0.8859 0.0
H1336 H 0.09141 0.23408 0.0181 0.0
H1337 H 0.13639 0.21261 0.91627 0.0
H1338 H 0.11692 0.21826 0.8981 0.0
H1339 H 0.10946 0.19317 0.91873 0.0
C1340 C 0.06958 0.23424 0.9027 0.0
C1341 C 0.0562 0.21467 0.88568 0.0
C1342 C 0.08477 0.2368 0.93086 0.0
C1343 C 0.0871 0.21993 0.94241 0.0
C1344 C 0.07355 0.20035 0.92594 0.0
H1345 H 0.14514 0.18775 0.12661 0.0
H1346 H 0.12472 0.19084 0.0727 0.0
C1347 C 0.05839 0.19776 0.89794 0.0
C1348 C 0.10334 0.22254 0.97217 0.0
H1349 H 0.14363 0.2134 0.98651 0.0
C1350 C 0.10304 0.22989 0.01092 0.0
C1351 C 0.1186 0.21707 0.96308 0.0
C1352 C 0.12054 0.21003 0.92167 0.0
C1353 C 0.11695 0.23111 0.04098 0.0
C1354 C 0.13174 0.22506 0.03213 0.0
C1355 C 0.1324 0.21819 0.99323 0.0
C1356 C 0.1451 0.2237 0.06398 0.0
C1357 C 0.11532 0.23807 0.08262 0.0
C1358 C 0.16371 0.24115 0.07669 0.0
C1359 C 0.17576 0.23939 0.10745 0.0
C1360 C 0.16911 0.22021 0.12642 0.0
C1361 C 0.15061 0.20283 0.11306 0.0
C1362 C 0.13888 0.20453 0.08212 0.0
H1363 H 0.1027 0.24184 0.0851 0.0
H1364 H 0.11238 0.22569 0.10459 0.0
H1365 H 0.13025 0.25197 0.09091 0.0
H1366 H 0.16881 0.25613 0.06304 0.0
H1367 H 0.18987 0.25305 0.11714 0.0
H1368 H 0.82528 0.95404 0.16489 0.0
H1369 H 0.82443 0.93232 0.1097 0.0
H1370 H 0.8011 0.96177 0.0309 0.0
H1371 H 0.80172 0.98376 0.08677 0.0
H1372 H 0.78228 0.91869 0.01789 0.0
H1373 H 0.86763 0.95436 0.02056 0.0
H1374 H 0.85618 0.94414 0.06858 0.0
H1375 H 0.85427 0.96529 0.0472 0.0
C1376 C 0.81975 0.95589 0.136 0.0
C1377 C 0.81376 0.97092 0.13039 0.0
C1378 C 0.81941 0.94346 0.10427 0.0
C1379 C 0.81325 0.94571 0.06573 0.0
C1380 C 0.80615 0.95987 0.06026 0.0
H1381 H 0.84855 0.89635 0.86057 0.0
H1382 H 0.84432 0.91865 0.90885 0.0
C1383 C 0.80642 0.97239 0.09229 0.0
C1384 C 0.81484 0.93356 0.03147 0.0
H1385 H 0.84904 0.92268 0.98409 0.0
C1386 C 0.7969 0.91969 0.01019 0.0
C1387 C 0.83397 0.93505 0.02077 0.0
C1388 C 0.85414 0.95067 0.04017 0.0
C1389 C 0.79744 0.90687 0.97955 0.0
C1390 C 0.81639 0.90747 0.97046 0.0
C1391 C 0.83441 0.92184 0.99104 0.0
C1392 C 0.81809 0.89365 0.93963 0.0
C1393 C 0.7777 0.8931 0.95688 0.0
C1394 C 0.80487 0.87198 0.94039 0.0
C1395 C 0.80699 0.85919 0.91204 0.0
C1396 C 0.82281 0.86766 0.88295 0.0
C1397 C 0.83623 0.88927 0.88259 0.0
C1398 C 0.83381 0.90207 0.91032 0.0
H1399 H 0.76698 0.89941 0.95761 0.0
H1400 H 0.78089 0.89123 0.92508 0.0
H1401 H 0.7696 0.87759 0.97125 0.0
H1402 H 0.79311 0.86483 0.96338 0.0
H1403 H 0.79659 0.84259 0.91359 0.0
H1404 H 0.19226 0.97286 0.90513 0.0
H1405 H 0.17028 0.94738 0.95564 0.0
H1406 H 0.11851 0.9541 0.91837 0.0
H1407 H 0.14048 0.97995 0.86892 0.0
H1408 H 0.12036 0.95477 0.99621 0.0
H1409 H 0.12691 0.88764 0.9454 0.0
H1410 H 0.15173 0.90986 0.95595 0.0
H1411 H 0.13614 0.91083 0.91565 0.0
C1412 C 0.17615 0.96879 0.90745 0.0
C1413 C 0.16822 0.97853 0.8828 0.0
C1414 C 0.16351 0.95405 0.93624 0.0
C1415 C 0.14251 0.94841 0.9406 0.0
C1416 C 0.13458 0.95804 0.91575 0.0
H1417 H 0.0484 0.84418 0.08412 0.0
H1418 H 0.07091 0.86602 0.02935 0.0
C1419 C 0.14723 0.97289 0.88736 0.0
C1420 C 0.12901 0.93334 0.97221 0.0
H1421 H 0.11171 0.88463 1.01003 0.0
C1422 C 0.11844 0.93941 0.99898 0.0
C1423 C 0.12606 0.91306 0.97572 0.0
C1424 C 0.13563 0.90485 0.94639 0.0
C1425 C 0.10543 0.92609 0.0293 0.0
C1426 C 0.10334 0.90622 0.03416 0.0
C1427 C 0.11351 0.89992 1.00687 0.0
C1428 C 0.09079 0.89199 0.06758 0.0
C1429 C 0.09372 0.93339 0.05525 0.0
C1430 C 0.09492 0.89882 0.10755 0.0
C1431 C 0.08201 0.8865 0.13865 0.0
C1432 C 0.06485 0.86675 0.13087 0.0
C1433 C 0.06151 0.85926 0.09121 0.0
C1434 C 0.07434 0.87179 0.05985 0.0
H1435 H 0.09167 0.94547 0.03987 0.0
H1436 H 0.07817 0.92037 0.06354 0.0
H1437 H 0.10263 0.94034 0.08319 0.0
H1438 H 0.10788 0.91398 0.11469 0.0
H1439 H 0.08523 0.8927 0.16886 0.0
H1440 H 0.79671 0.87867 0.65642 0.0
H1441 H 0.78943 0.89608 0.60089 0.0
H1442 H 0.84471 0.90587 0.54005 0.0
H1443 H 0.852 0.88881 0.5947 0.0
H1444 H 0.81862 0.93904 0.57344 0.0
H1445 H 0.79928 0.88145 0.45215 0.0
H1446 H 0.7976 0.87474 0.50468 0.0
H1447 H 0.82229 0.8871 0.47948 0.0
C1448 C 0.80698 0.88412 0.63071 0.0
C1449 C 0.82489 0.88229 0.62992 0.0
C1450 C 0.80292 0.8942 0.59918 0.0
C1451 C 0.81646 0.90217 0.56608 0.0
C1452 C 0.83388 0.89965 0.56486 0.0
H1453 H 0.8572 0.97633 0.36174 0.0
H1454 H 0.84632 0.95139 0.41582 0.0
C1455 C 0.83805 0.88991 0.59628 0.0
C1456 C 0.81352 0.91424 0.53358 0.0
H1457 H 0.81089 0.91642 0.43148 0.0
C1458 C 0.8164 0.93394 0.54244 0.0
C1459 C 0.81078 0.90765 0.49311 0.0
C1460 C 0.80712 0.88649 0.48172 0.0
C1461 C 0.8181 0.94776 0.51174 0.0
C1462 C 0.81636 0.94152 0.47104 0.0
C1463 C 0.81221 0.92131 0.46252 0.0
C1464 C 0.8217 0.95639 0.43687 0.0
C1465 C 0.82321 0.96941 0.52304 0.0
C1466 C 0.81126 0.96748 0.42968 0.0
C1467 C 0.81763 0.98215 0.39833 0.0
C1468 C 0.83451 0.98592 0.37361 0.0
C1469 C 0.84427 0.97413 0.38019 0.0
C1470 C 0.838 0.95969 0.41123 0.0
H1471 H 0.82774 0.97294 0.55508 0.0
H1472 H 0.83605 0.98108 0.50417 0.0
H1473 H 0.80939 0.97107 0.51795 0.0
H1474 H 0.79834 0.96495 0.44844 0.0
H1475 H 0.80973 0.99088 0.39418 0.0
H1476 H 0.03949 0.84249 0.40243 0.0
H1477 H 0.064 0.85771 0.45892 0.0
H1478 H 0.08962 0.91815 0.4049 0.0
H1479 H 0.06545 0.90328 0.34909 0.0
H1480 H 0.11146 0.88688 0.46322 0.0
H1481 H 0.06461 0.92111 0.51681 0.0
H1482 H 0.05465 0.89977 0.48177 0.0
H1483 H 0.07172 0.92579 0.46475 0.0
C1484 C 0.05071 0.85892 0.40218 0.0
C1485 C 0.05035 0.87168 0.37142 0.0
C1486 C 0.06465 0.86761 0.43452 0.0
C1487 C 0.07843 0.88913 0.43641 0.0
C1488 C 0.07897 0.90157 0.40438 0.0
H1489 H 0.15852 0.98816 0.58909 0.0
H1490 H 0.13948 0.96435 0.53447 0.0
C1491 C 0.06511 0.893 0.37242 0.0
C1492 C 0.09115 0.89921 0.47284 0.0
H1493 H 0.09809 0.93441 0.54559 0.0
C1494 C 0.10842 0.89704 0.48169 0.0
C1495 C 0.08713 0.91243 0.49698 0.0
C1496 C 0.06843 0.91483 0.48994 0.0
C1497 C 0.12234 0.9086 0.5128 0.0
C1498 C 0.11875 0.92247 0.53579 0.0
C1499 C 0.10099 0.92392 0.52784 0.0
C1500 C 0.13362 0.93672 0.5666 0.0
C1501 C 0.14125 0.9066 0.51973 0.0
C1502 C 0.13749 0.92928 0.60253 0.0
C1503 C 0.14875 0.94306 0.63387 0.0
C1504 C 0.15609 0.96439 0.62973 0.0
C1505 C 0.15322 0.97182 0.59294 0.0
C1506 C 0.1422 0.95819 0.56177 0.0
H1507 H 0.14379 0.89814 0.49496 0.0
H1508 H 0.15531 0.92214 0.5229 0.0
H1509 H 0.13928 0.89798 0.54805 0.0
H1510 H 0.13078 0.91278 0.60728 0.0
H1511 H 0.15033 0.93689 0.66223 0.0
H1512 H 0.15521 0.17079 0.41834 0.0
H1513 H 0.14008 0.18156 0.47162 0.0
H1514 H 0.1576 0.23833 0.4081 0.0
H1515 H 0.17329 0.2277 0.35446 0.0
H1516 H 0.1616 0.22381 0.51808 0.0
H1517 H 0.09031 0.20455 0.43092 0.0
H1518 H 0.10539 0.19228 0.41995 0.0
H1519 H 0.11547 0.219 0.40748 0.0
C1520 C 0.15609 0.18571 0.41586 0.0
C1521 C 0.16549 0.19842 0.38221 0.0
C1522 C 0.1474 0.19183 0.44636 0.0
C1523 C 0.14753 0.21065 0.44377 0.0
C1524 C 0.15729 0.2237 0.41066 0.0
H1525 H 0.06961 0.23396 0.61559 0.0
H1526 H 0.09368 0.2405 0.55912 0.0
C1527 C 0.16637 0.2177 0.38022 0.0
C1528 C 0.13699 0.21603 0.47575 0.0
H1529 H 0.09038 0.21198 0.49954 0.0
C1530 C 0.1462 0.22165 0.51382 0.0
C1531 C 0.11689 0.21321 0.47028 0.0
C1532 C 0.10625 0.20689 0.43006 0.0
C1533 C 0.1356 0.22379 0.54681 0.0
C1534 C 0.11498 0.21974 0.542 0.0
C1535 C 0.10616 0.21517 0.5034 0.0
C1536 C 0.10153 0.21739 0.57732 0.0
C1537 C 0.14648 0.2299 0.58684 0.0
C1538 C 0.09792 0.20233 0.60633 0.0
C1539 C 0.08436 0.19865 0.63821 0.0
C1540 C 0.07377 0.20979 0.64217 0.0
C1541 C 0.07769 0.2253 0.61374 0.0
C1542 C 0.09132 0.22892 0.58132 0.0
H1543 H 0.16356 0.23946 0.58297 0.0
H1544 H 0.14107 0.23871 0.60521 0.0
H1545 H 0.14323 0.2157 0.60353 0.0
H1546 H 0.10514 0.19287 0.60368 0.0
H1547 H 0.08177 0.18657 0.65943 0.0
H1548 H 0.97051 0.79765 0.11032 0.0
H1549 H 0.94556 0.79493 0.05923 0.0
H1550 H 0.94996 0.85142 0.1032 0.0
H1551 H 0.97548 0.85467 0.15293 0.0
H1552 H 0.90824 0.79091 0.06034 0.0
H1553 H 0.96135 0.86599 0.98794 0.0
H1554 H 0.97011 0.85482 0.02566 0.0
H1555 H 0.9574 0.86903 0.03995 0.0
C1556 C 0.96617 0.8095 0.10906 0.0
C1557 C 0.97524 0.82652 0.13546 0.0
C1558 C 0.95186 0.80793 0.07981 0.0
C1559 C 0.94614 0.82323 0.07647 0.0
C1560 C 0.95455 0.83976 0.10398 0.0
H1561 H 0.84035 0.8102 0.9328 0.0
H1562 H 0.86184 0.80905 0.98755 0.0
C1563 C 0.9691 0.84153 0.1327 0.0
C1564 C 0.93152 0.82198 0.0442 0.0
H1565 H 0.92608 0.84952 0.96776 0.0
C1566 C 0.9122 0.80371 0.03999 0.0
C1567 C 0.93664 0.83854 0.0171 0.0
C1568 C 0.95758 0.8581 0.01756 0.0
C1569 C 0.89794 0.80159 1.00988 0.0
C1570 C 0.90282 0.8184 0.98367 0.0
C1571 C 0.92214 0.83663 0.98789 0.0
C1572 C 0.88876 0.8173 0.95036 0.0
C1573 C 0.87807 0.78112 1.00576 0.0
C1574 C 0.89655 0.82237 0.91109 0.0
C1575 C 0.88444 0.82332 0.88004 0.0
C1576 C 0.86404 0.8191 0.88713 0.0
C1577 C 0.85587 0.81326 0.92612 0.0
C1578 C 0.86818 0.81256 0.95749 0.0
H1579 H 0.87932 0.76831 0.01994 0.0
H1580 H 0.86535 0.78213 0.02099 0.0
H1581 H 0.87378 0.77719 0.97375 0.0
H1582 H 0.91228 0.82604 0.90451 0.0
H1583 H 0.89129 0.82784 0.85046 0.0
H1584 H 0.17795 0.15231 0.12618 0.0
H1585 H 0.18241 0.13134 0.07517 0.0
H1586 H 0.24871 0.17098 0.08126 0.0
H1587 H 0.24447 0.19238 0.13243 0.0
H1588 H 0.21136 0.15234 0.99562 0.0
H1589 H 0.22937 0.10367 0.09596 0.0
H1590 H 0.21286 0.11353 0.11266 0.0
H1591 H 0.24008 0.13096 0.10613 0.0
C1592 C 0.19355 0.15665 0.11696 0.0
C1593 C 0.21086 0.17417 0.13369 0.0
C1594 C 0.19604 0.14457 0.08768 0.0
C1595 C 0.21588 0.14949 0.07451 0.0
C1596 C 0.23325 0.16682 0.09115 0.0
H1597 H 0.24402 0.07422 0.90679 0.0
H1598 H 0.24728 0.09889 0.95961 0.0
C1599 C 0.23078 0.17906 0.12038 0.0
C1600 C 0.21815 0.1368 0.04239 0.0
H1601 H 0.22586 0.09575 0.02695 0.0
C1602 C 0.21471 0.14008 1.00239 0.0
C1603 C 0.22268 0.12093 0.05118 0.0
C1604 C 0.22648 0.11688 0.09375 0.0
C1605 C 0.2154 0.12776 0.97101 0.0
C1606 C 0.21899 0.11118 0.97986 0.0
C1607 C 0.22304 0.10832 0.0199 0.0
C1608 C 0.21729 0.09599 0.94836 0.0
C1609 C 0.21238 0.13286 0.9286 0.0
C1610 C 0.19922 0.08563 0.92507 0.0
C1611 C 0.19751 0.07194 0.8947 0.0
C1612 C 0.21361 0.06767 0.88706 0.0
C1613 C 0.23142 0.0773 0.91148 0.0
C1614 C 0.23326 0.09138 0.94174 0.0
H1615 H 0.21729 0.14953 0.92548 0.0
H1616 H 0.22125 0.12908 0.90674 0.0
H1617 H 0.19566 0.12379 0.92081 0.0
H1618 H 0.18626 0.08808 0.93041 0.0
H1619 H 0.18328 0.0644 0.87748 0.0
H1620 H 0.95121 0.14328 0.85789 0.0
H1621 H 0.9285 0.12322 0.91262 0.0
H1622 H 0.9532 0.17823 0.98571 0.0
H1623 H 0.97659 0.1987 0.93058 0.0
H1624 H 0.95122 0.14487 0.02664 0.0
H1625 H 0.87578 0.11972 0.95325 0.0
H1626 H 0.8922 0.11388 0.92327 0.0
H1627 H 0.89985 0.14049 0.93358 0.0
C1628 C 0.95175 0.15135 0.88531 0.0
C1629 C 0.96582 0.17277 0.88949 0.0
C1630 C 0.93856 0.13975 0.91669 0.0
C1631 C 0.93878 0.14915 0.9533 0.0
C1632 C 0.95258 0.1706 0.95767 0.0
H1633 H 0.84386 0.07609 0.13537 0.0
H1634 H 0.86584 0.10273 0.0866 0.0
C1635 C 0.96588 0.18233 0.92601 0.0
C1636 C 0.92527 0.13614 0.98718 0.0
H1637 H 0.87518 0.09974 0.01027 0.0
C1638 C 0.93456 0.13522 0.02323 0.0
C1639 C 0.90344 0.12359 0.98319 0.0
C1640 C 0.8922 0.12461 0.94638 0.0
C1641 C 0.92282 0.12161 0.05453 0.0
C1642 C 0.90116 0.1082 0.04957 0.0
C1643 C 0.89177 0.10974 0.01415 0.0
C1644 C 0.88801 0.09222 0.08024 0.0
C1645 C 0.93382 0.12184 0.09269 0.0
C1646 C 0.89284 0.07712 0.09279 0.0
C1647 C 0.88033 0.0619 0.12083 0.0
C1648 C 0.86245 0.06115 0.13688 0.0
C1649 C 0.85749 0.07614 0.12393 0.0
C1650 C 0.87008 0.09143 0.09592 0.0
H1651 H 0.94829 0.13696 0.09697 0.0
H1652 H 0.92373 0.11874 0.11933 0.0
H1653 H 0.9382 0.10966 0.09099 0.0
H1654 H 0.90618 0.07689 0.08048 0.0
H1655 H 0.88465 0.05059 0.12966 0.0
H1656 H 0.847 0.40219 1.00018 0.0
H1657 H 0.85675 0.42642 0.94425 0.0
H1658 H 0.89245 0.40126 0.89245 0.0
H1659 H 0.88272 0.37671 0.94896 0.0
H1660 H 0.90661 0.45432 0.90006 0.0
H1661 H 0.83568 0.39565 0.81967 0.0
H1662 H 0.83499 0.3981 0.87343 0.0
H1663 H 0.85019 0.38804 0.85195 0.0
C1664 C 0.85727 0.40201 0.97735 0.0
C1665 C 0.86402 0.38742 0.979 0.0
C1666 C 0.86285 0.41593 0.94541 0.0
C1667 C 0.87526 0.41561 0.91418 0.0
C1668 C 0.88292 0.4018 0.91645 0.0
H1669 H 0.87596 0.46534 0.67727 0.0
H1670 H 0.88086 0.44662 0.73261 0.0
C1671 C 0.87743 0.38786 0.94878 0.0
C1672 C 0.8784 0.42845 0.87784 0.0
H1673 H 0.85418 0.42886 0.79116 0.0
C1674 C 0.89534 0.44873 0.8759 0.0
C1675 C 0.8636 0.42116 0.84658 0.0
C1676 C 0.84504 0.39954 0.84759 0.0
C1677 C 0.89778 0.46197 0.84354 0.0
C1678 C 0.88263 0.45487 0.81268 0.0
C1679 C 0.86588 0.4344 0.81453 0.0
C1680 C 0.88337 0.46829 0.77857 0.0
C1681 C 0.91662 0.48338 0.84268 0.0
C1682 C 0.88375 0.48714 0.78545 0.0
C1683 C 0.88142 0.49811 0.75352 0.0
C1684 C 0.87847 0.49035 0.71422 0.0
C1685 C 0.87879 0.47194 0.70715 0.0
C1686 C 0.88136 0.46113 0.73888 0.0
H1687 H 0.92957 0.48405 0.86041 0.0
H1688 H 0.92206 0.48841 0.8115 0.0
H1689 H 0.9126 0.49452 0.8562 0.0
H1690 H 0.88463 0.49277 0.81574 0.0
H1691 H 0.88046 0.51186 0.75991 0.0
H1692 H 0.52171 0.39906 0.75068 0.0
H1693 H 0.53979 0.4217 0.80845 0.0
H1694 H 0.59656 0.45159 0.74015 0.0
H1695 H 0.57874 0.42889 0.68313 0.0
H1696 H 0.57759 0.42283 0.84344 0.0
H1697 H 0.59237 0.50034 0.79506 0.0
H1698 H 0.57159 0.4765 0.77443 0.0
H1699 H 0.59786 0.48593 0.75861 0.0
C1700 C 0.53784 0.41096 0.74767 0.0
C1701 C 0.54875 0.41247 0.71224 0.0
C1702 C 0.54822 0.42376 0.78074 0.0
C1703 C 0.56952 0.43851 0.77854 0.0
C1704 C 0.58009 0.44061 0.74245 0.0
H1705 H 0.67182 0.52194 0.93124 0.0
H1706 H 0.64698 0.50479 0.87635 0.0
C1707 C 0.56988 0.42765 0.70983 0.0
C1708 C 0.58137 0.45031 0.81472 0.0
H1709 H 0.61104 0.49937 0.85201 0.0
C1710 C 0.58465 0.43953 0.8457 0.0
C1711 C 0.59098 0.47214 0.81717 0.0
C1712 C 0.58797 0.48448 0.78473 0.0
C1713 C 0.59775 0.44999 0.87839 0.0
C1714 C 0.60728 0.47191 0.88119 0.0
C1715 C 0.60371 0.48263 0.85032 0.0
C1716 C 0.62161 0.48397 0.91495 0.0
C1717 C 0.60206 0.43743 0.90837 0.0
C1718 C 0.61553 0.47876 0.95523 0.0
C1719 C 0.62982 0.48837 0.98647 0.0
C1720 C 0.65026 0.504 0.97831 0.0
C1721 C 0.65601 0.51026 0.93838 0.0
C1722 C 0.64183 0.50033 0.907 0.0
H1723 H 0.59894 0.42238 0.8955 0.0
H1724 H 0.6184 0.44597 0.91881 0.0
H1725 H 0.59173 0.43397 0.93473 0.0
H1726 H 0.59991 0.46674 0.96252 0.0
H1727 H 0.6251 0.48311 0.01699 0.0
H1728 H 0.61754 0.187 0.69888 0.0
H1729 H 0.59391 0.18015 0.7543 0.0
H1730 H 0.60179 0.12922 0.79228 0.0
H1731 H 0.62624 0.13639 0.73623 0.0
H1732 H 0.5571 0.14675 0.77462 0.0
H1733 H 0.61557 0.16419 0.89472 0.0
H1734 H 0.62281 0.17034 0.84273 0.0
H1735 H 0.61128 0.14402 0.85978 0.0
C1736 C 0.61428 0.17423 0.7188 0.0
C1737 C 0.62402 0.16236 0.7132 0.0
C1738 C 0.60063 0.17029 0.75057 0.0
C1739 C 0.59619 0.15438 0.77805 0.0
C1740 C 0.60521 0.14185 0.77192 0.0
H1741 H 0.521 0.14357 0.99574 0.0
H1742 H 0.53631 0.13235 0.9424 0.0
C1743 C 0.619 0.14578 0.73963 0.0
C1744 C 0.58245 0.15175 0.81302 0.0
H1745 H 0.58326 0.15953 0.91451 0.0
C1746 C 0.56269 0.14909 0.8053 0.0
C1747 C 0.58971 0.15499 0.85319 0.0
C1748 C 0.61103 0.15869 0.86338 0.0
C1749 C 0.55052 0.15055 0.83602 0.0
C1750 C 0.55815 0.15468 0.87577 0.0
C1751 C 0.57735 0.15618 0.88406 0.0
C1752 C 0.54785 0.16047 0.90751 0.0
C1753 C 0.52994 0.14862 0.82552 0.0
C1754 C 0.54911 0.17985 0.90545 0.0
C1755 C 0.54062 0.18628 0.93573 0.0
C1756 C 0.53041 0.17343 0.96882 0.0
C1757 C 0.52854 0.1537 0.97041 0.0
C1758 C 0.53741 0.14735 0.94015 0.0
H1759 H 0.52405 0.14081 0.79614 0.0
H1760 H 0.51821 0.13984 0.84905 0.0
H1761 H 0.53183 0.16434 0.82366 0.0
H1762 H 0.55713 0.19026 0.88071 0.0
H1763 H 0.54233 0.20156 0.93354 0.0
H1764 H 0.73564 0.58022 0.2257 0.0
H1765 H 0.76165 0.58445 0.27557 0.0
H1766 H 0.74058 0.51912 0.26861 0.0
H1767 H 0.71484 0.5148 0.21844 0.0
H1768 H 0.75685 0.56775 0.34951 0.0
H1769 H 0.80241 0.54322 0.25686 0.0
H1770 H 0.78355 0.54891 0.23547 0.0
H1771 H 0.77535 0.52408 0.25822 0.0
C1772 C 0.73663 0.56676 0.23446 0.0
C1773 C 0.72309 0.54718 0.21769 0.0
C1774 C 0.75154 0.56921 0.26311 0.0
C1775 C 0.75344 0.5522 0.27553 0.0
C1776 C 0.73988 0.53263 0.25897 0.0
H1777 H 0.80268 0.53488 0.49618 0.0
H1778 H 0.78248 0.53734 0.4416 0.0
C1779 C 0.72498 0.53016 0.23038 0.0
C1780 C 0.76891 0.5547 0.30702 0.0
H1781 H 0.80825 0.54493 0.32782 0.0
C1782 C 0.76821 0.56294 0.34454 0.0
C1783 C 0.78404 0.54874 0.30068 0.0
C1784 C 0.78657 0.54095 0.2605 0.0
C1785 C 0.78159 0.56469 0.37609 0.0
C1786 C 0.79596 0.55769 0.37045 0.0
C1787 C 0.7972 0.55016 0.33247 0.0
C1788 C 0.80888 0.55694 0.40418 0.0
C1789 C 0.78017 0.57408 0.41522 0.0
C1790 C 0.83066 0.56677 0.40142 0.0
C1791 C 0.84248 0.56527 0.4329 0.0
C1792 C 0.83273 0.55373 0.4677 0.0
C1793 C 0.81092 0.54406 0.47021 0.0
C1794 C 0.79922 0.54553 0.43893 0.0
H1795 H 0.77389 0.58467 0.41069 0.0
H1796 H 0.76946 0.56152 0.43572 0.0
H1797 H 0.79555 0.58285 0.43001 0.0
H1798 H 0.83853 0.57555 0.37482 0.0
H1799 H 0.85916 0.57277 0.4296 0.0
H1800 H 0.49761 0.29054 0.49639 0.0
H1801 H 0.49583 0.26837 0.44143 0.0
H1802 H 0.46192 0.28982 0.37046 0.0
H1803 H 0.46418 0.31283 0.42563 0.0
H1804 H 0.46481 0.23668 0.4041 0.0
H1805 H 0.5081 0.29968 0.29376 0.0
H1806 H 0.50648 0.30475 0.34617 0.0
H1807 H 0.48506 0.29856 0.31316 0.0
C1808 C 0.48967 0.29063 0.46925 0.0
C1809 C 0.48116 0.30373 0.46564 0.0
C1810 C 0.48865 0.27781 0.43766 0.0
C1811 C 0.47907 0.27755 0.40125 0.0
C1812 C 0.46985 0.29002 0.39781 0.0
H1813 H 0.45524 0.18043 0.22244 0.0
H1814 H 0.45105 0.20221 0.27227 0.0
C1815 C 0.47093 0.30303 0.42961 0.0
C1816 C 0.47903 0.26416 0.36752 0.0
H1817 H 0.49576 0.26543 0.2712 0.0
C1818 C 0.47145 0.24298 0.37495 0.0
C1819 C 0.48805 0.27233 0.32956 0.0
C1820 C 0.49758 0.2951 0.32013 0.0
C1821 C 0.47278 0.2299 0.346 0.0
C1822 C 0.48145 0.23797 0.30781 0.0
C1823 C 0.48891 0.25911 0.30021 0.0
C1824 C 0.48375 0.22496 0.27611 0.0
C1825 C 0.46564 0.20772 0.35732 0.0
C1826 C 0.50343 0.23067 0.26044 0.0
C1827 C 0.50586 0.2183 0.23165 0.0
C1828 C 0.48866 0.19987 0.21749 0.0
C1829 C 0.46889 0.19438 0.23267 0.0
C1830 C 0.46648 0.2068 0.26146 0.0
H1831 H 0.46475 0.20554 0.39039 0.0
H1832 H 0.44992 0.19751 0.34484 0.0
H1833 H 0.47624 0.20265 0.34499 0.0
H1834 H 0.51703 0.24459 0.27098 0.0
H1835 H 0.52133 0.22317 0.22069 0.0
H1836 H 0.71575 0.17748 0.41883 0.0
H1837 H 0.73807 0.19924 0.36394 0.0
H1838 H 0.77405 0.2481 0.44845 0.0
H1839 H 0.75156 0.22685 0.50271 0.0
H1840 H 0.76422 0.26344 0.38791 0.0
H1841 H 0.79528 0.21538 0.32645 0.0
H1842 H 0.76747 0.20226 0.3271 0.0
H1843 H 0.78161 0.20956 0.37364 0.0
C1844 C 0.72871 0.19268 0.42577 0.0
C1845 C 0.73183 0.20035 0.46529 0.0
C1846 C 0.74153 0.20516 0.3943 0.0
C1847 C 0.75798 0.22541 0.4018 0.0
C1848 C 0.76151 0.23265 0.44155 0.0
H1849 H 0.85839 0.30757 0.2398 0.0
H1850 H 0.83637 0.28228 0.29065 0.0
C1851 C 0.74863 0.22038 0.47273 0.0
C1852 C 0.77075 0.23973 0.36855 0.0
H1853 H 0.8021 0.24521 0.2887 0.0
C1854 C 0.77252 0.2594 0.36632 0.0
C1855 C 0.78185 0.23473 0.34039 0.0
C1856 C 0.78166 0.21442 0.34214 0.0
C1857 C 0.78498 0.27411 0.33723 0.0
C1858 C 0.7956 0.26891 0.30829 0.0
C1859 C 0.79388 0.24925 0.31049 0.0
C1860 C 0.80882 0.28379 0.27614 0.0
C1861 C 0.78711 0.29533 0.3388 0.0
C1862 C 0.80073 0.29287 0.25021 0.0
C1863 C 0.81338 0.30756 0.22153 0.0
C1864 C 0.8344 0.31328 0.21728 0.0
C1865 C 0.84231 0.3036 0.24219 0.0
C1866 C 0.82969 0.28909 0.27132 0.0
H1867 H 0.78353 0.29886 0.36918 0.0
H1868 H 0.80301 0.30762 0.33044 0.0
H1869 H 0.77595 0.29588 0.31749 0.0
H1870 H 0.78457 0.28865 0.25218 0.0
H1871 H 0.8066 0.31439 0.20251 0.0
H1872 H 0.51364 0.30269 0.67759 0.0
H1873 H 0.50447 0.27761 0.73185 0.0
H1874 H 0.48106 0.31041 0.80115 0.0
H1875 H 0.48944 0.3351 0.7457 0.0
H1876 H 0.521 0.28508 0.80216 0.0
H1877 H 0.43666 0.25257 0.82503 0.0
H1878 H 0.45002 0.2678 0.78144 0.0
H1879 H 0.45097 0.28031 0.82827 0.0
C1880 C 0.50601 0.30424 0.70397 0.0
C1881 C 0.50211 0.32079 0.7072 0.0
C1882 C 0.50084 0.28991 0.73515 0.0
C1883 C 0.49189 0.29185 0.77084 0.0
C1884 C 0.48742 0.30809 0.77372 0.0
H1885 H 0.50628 0.2507 1.00306 0.0
H1886 H 0.50227 0.26868 0.94552 0.0
C1887 C 0.49225 0.32228 0.742 0.0
C1888 C 0.48923 0.27806 0.80586 0.0
H1889 H 0.45481 0.24577 0.87682 0.0
C1890 C 0.50641 0.27636 0.81806 0.0
C1891 C 0.47023 0.2665 0.82693 0.0
C1892 C 0.45087 0.2667 0.81453 0.0
C1893 C 0.50526 0.26389 0.85072 0.0
C1894 C 0.48651 0.2529 0.87247 0.0
C1895 C 0.46918 0.25422 0.86015 0.0
C1896 C 0.48539 0.24109 0.90942 0.0
C1897 C 0.5242 0.26262 0.86207 0.0
C1898 C 0.47646 0.21938 0.90898 0.0
C1899 C 0.47855 0.20892 0.94231 0.0
C1900 C 0.48971 0.2201 0.97635 0.0
C1901 C 0.49751 0.24164 0.97736 0.0
C1902 C 0.4953 0.25197 0.94443 0.0
H1903 H 0.53645 0.26937 0.83864 0.0
H1904 H 0.53074 0.27122 0.89048 0.0
H1905 H 0.51996 0.24624 0.86718 0.0
H1906 H 0.46886 0.21069 0.88215 0.0
H1907 H 0.47274 0.19241 0.94036 0.0
H1908 H 0.81583 0.32243 0.92698 0.0
H1909 H 0.79776 0.29795 0.87276 0.0
H1910 H 0.80208 0.25029 0.93781 0.0
H1911 H 0.82046 0.27505 0.99273 0.0
H1912 H 0.80911 0.27294 0.8245 0.0
H1913 H 0.73836 0.22606 0.91707 0.0
H1914 H 0.75802 0.25192 0.93136 0.0
H1915 H 0.76287 0.23079 0.93676 0.0
C1916 C 0.81326 0.30682 0.92956 0.0
C1917 C 0.81958 0.30069 0.96421 0.0
C1918 C 0.80289 0.29282 0.89849 0.0
C1919 C 0.79826 0.27217 0.90132 0.0
C1920 C 0.80527 0.26609 0.93513 0.0
H1921 H 0.70883 0.17718 0.73138 0.0
H1922 H 0.7348 0.19244 0.78553 0.0
C1923 C 0.81597 0.28029 0.96628 0.0
C1924 C 0.78544 0.25724 0.86919 0.0
H1925 H 0.73613 0.21822 0.84843 0.0
C1926 C 0.79327 0.26072 0.82988 0.0
C1927 C 0.76473 0.24129 0.87606 0.0
C1928 C 0.75532 0.23723 0.91747 0.0
C1929 C 0.78085 0.24921 0.79723 0.0
C1930 C 0.75979 0.23401 0.80374 0.0
C1931 C 0.75224 0.2298 0.84331 0.0
C1932 C 0.74488 0.22427 0.76971 0.0
C1933 C 0.79033 0.25381 0.75585 0.0
C1934 C 0.74182 0.23696 0.74285 0.0
C1935 C 0.72715 0.22835 0.71218 0.0
C1936 C 0.71486 0.2067 0.70741 0.0
C1937 C 0.71811 0.19388 0.73388 0.0
C1938 C 0.73288 0.2026 0.76497 0.0
H1939 H 0.80733 0.25988 0.75728 0.0
H1940 H 0.78315 0.23979 0.73653 0.0
H1941 H 0.78792 0.26588 0.74159 0.0
H1942 H 0.75044 0.25366 0.74621 0.0
H1943 H 0.72519 0.23882 0.69252 0.0
H1944 H 0.71427 0.51733 0.92997 0.0
H1945 H 0.73864 0.52385 0.87559 0.0
H1946 H 0.78556 0.57775 0.93781 0.0
H1947 H 0.76093 0.57117 0.99311 0.0
H1948 H 0.76162 0.5587 0.82507 0.0
H1949 H 0.81269 0.54125 0.91945 0.0
H1950 H 0.78678 0.53436 0.93486 0.0
H1951 H 0.80727 0.56087 0.9371 0.0
C1952 C 0.7297 0.53075 0.93203 0.0
C1953 C 0.73569 0.54366 0.96607 0.0
C1954 C 0.74364 0.53446 0.90079 0.0
C1955 C 0.76407 0.55108 0.90275 0.0
C1956 C 0.76996 0.56463 0.93587 0.0
H1957 H 0.85897 0.55819 0.73042 0.0
H1958 H 0.84354 0.56917 0.78378 0.0
C1959 C 0.75583 0.56101 0.96724 0.0
C1960 C 0.77897 0.55335 0.87041 0.0
H1961 H 0.81963 0.54551 0.85038 0.0
C1962 C 0.77455 0.55621 0.83074 0.0
C1963 C 0.79585 0.55006 0.87762 0.0
C1964 C 0.80099 0.54633 0.91946 0.0
C1965 C 0.78599 0.55512 0.79814 0.0
C1966 C 0.80214 0.5507 0.80513 0.0
C1967 C 0.80731 0.54895 0.84493 0.0
C1968 C 0.8119 0.54524 0.77164 0.0
C1969 C 0.78027 0.55821 0.75632 0.0
C1970 C 0.79937 0.52816 0.74721 0.0
C1971 C 0.80807 0.52191 0.71705 0.0
C1972 C 0.82966 0.53246 0.71038 0.0
C1973 C 0.8423 0.54981 0.73446 0.0
C1974 C 0.8335 0.55603 0.76507 0.0
H1975 H 0.77317 0.56824 0.75657 0.0
H1976 H 0.79401 0.56525 0.73622 0.0
H1977 H 0.76866 0.54296 0.74372 0.0
H1978 H 0.78276 0.51926 0.75206 0.0
H1979 H 0.79774 0.50849 0.69924 0.0
H1980 H 0.55448 0.15524 0.18363 0.0
H1981 H 0.57583 0.15372 0.2374 0.0
H1982 H 0.52904 0.14507 0.32386 0.0
H1983 H 0.50714 0.14579 0.2695 0.0
H1984 H 0.59343 0.17951 0.29552 0.0
H1985 H 0.54234 0.10279 0.36436 0.0
H1986 H 0.53638 0.11024 0.31693 0.0
H1987 H 0.53078 0.11888 0.36328 0.0
C1988 C 0.54848 0.15255 0.21399 0.0
C1989 C 0.52898 0.15051 0.22211 0.0
C1990 C 0.5608 0.15179 0.24487 0.0
C1991 C 0.55417 0.14915 0.28502 0.0
C1992 C 0.53445 0.14662 0.29322 0.0
H1993 H 0.64538 0.18997 0.48017 0.0
H1994 H 0.6198 0.18648 0.4304 0.0
C1995 C 0.52189 0.14706 0.26206 0.0
C1996 C 0.56863 0.15051 0.31787 0.0
H1997 H 0.57316 0.12554 0.40021 0.0
C1998 C 0.58893 0.16761 0.31827 0.0
C1999 C 0.56306 0.13498 0.34758 0.0
C2000 C 0.54203 0.11559 0.34789 0.0
C2001 C 0.60367 0.16964 0.34708 0.0
C2002 C 0.59791 0.15448 0.37762 0.0
C2003 C 0.57764 0.1373 0.3772 0.0
C2004 C 0.61276 0.15609 0.4098 0.0
C2005 C 0.62549 0.18777 0.34354 0.0
C2006 C 0.61681 0.1398 0.4166 0.0
C2007 C 0.63126 0.1416 0.44581 0.0
C2008 C 0.6421 0.1598 0.46885 0.0
C2009 C 0.63763 0.17585 0.46263 0.0
C2010 C 0.62303 0.17393 0.43387 0.0
H2011 H 0.62899 0.19393 0.31242 0.0
H2012 H 0.6272 0.20047 0.36343 0.0
H2013 H 0.63713 0.18339 0.35249 0.0
H2014 H 0.60906 0.12579 0.39876 0.0
H2015 H 0.63422 0.1289 0.44975 0.0
H2016 H 0.90933 0.52814 0.46161 0.0
H2017 H 0.91369 0.50655 0.41145 0.0
H2018 H 0.84871 0.46105 0.42072 0.0
H2019 H 0.84426 0.48226 0.47114 0.0
H2020 H 0.87242 0.44265 0.41856 0.0
H2021 H 0.89553 0.49984 0.29502 0.0
H2022 H 0.9117 0.50958 0.33872 0.0
H2023 H 0.88486 0.5026 0.34164 0.0
C2024 C 0.89595 0.51353 0.45306 0.0
C2025 C 0.87641 0.50711 0.47046 0.0
C2026 C 0.89845 0.50122 0.4241 0.0
C2027 C 0.88148 0.48223 0.41164 0.0
C2028 C 0.86207 0.47562 0.42955 0.0
H2029 H 0.86332 0.41374 0.19405 0.0
H2030 H 0.86569 0.43616 0.24891 0.0
C2031 C 0.85955 0.48788 0.45841 0.0
C2032 C 0.88374 0.46924 0.37986 0.0
H2033 H 0.89689 0.46946 0.28138 0.0
C2034 C 0.87788 0.44855 0.38861 0.0
C2035 C 0.89056 0.47675 0.34049 0.0
C2036 C 0.89584 0.49833 0.32814 0.0
C2037 C 0.8785 0.43522 0.35924 0.0
C2038 C 0.88565 0.44284 0.32002 0.0
C2039 C 0.89168 0.46359 0.31145 0.0
C2040 C 0.8851 0.42917 0.28636 0.0
C2041 C 0.87066 0.41286 0.37012 0.0
C2042 C 0.89552 0.41777 0.28832 0.0
C2043 C 0.89409 0.40458 0.25657 0.0
C2044 C 0.88235 0.40266 0.22203 0.0
C2045 C 0.87252 0.41462 0.21994 0.0
C2046 C 0.87386 0.4276 0.25149 0.0
H2047 H 0.8612 0.40833 0.398 0.0
H2048 H 0.8611 0.40236 0.34552 0.0
H2049 H 0.88407 0.41053 0.37519 0.0
H2050 H 0.90471 0.419 0.31441 0.0
H2051 H 0.90191 0.39569 0.25936 0.0
H2052 H 0.50779 0.40568 0.4612 0.0
H2053 H 0.52944 0.43186 0.41144 0.0
H2054 H 0.57513 0.41272 0.42049 0.0
H2055 H 0.55381 0.38677 0.47054 0.0
H2056 H 0.59334 0.45506 0.41894 0.0
H2057 H 0.53649 0.42065 0.29485 0.0
H2058 H 0.52646 0.42672 0.33858 0.0
H2059 H 0.53379 0.40715 0.34133 0.0
C2060 C 0.52246 0.40702 0.4527 0.0
C2061 C 0.52889 0.3939 0.46991 0.0
C2062 C 0.5348 0.42197 0.42397 0.0
C2063 C 0.55387 0.42416 0.41157 0.0
C2064 C 0.5605 0.41137 0.42929 0.0
H2065 H 0.62229 0.47556 0.19454 0.0
H2066 H 0.59997 0.45533 0.24931 0.0
C2067 C 0.54818 0.39642 0.45792 0.0
C2068 C 0.56686 0.43957 0.37998 0.0
H2069 H 0.56664 0.45273 0.28171 0.0
C2070 C 0.58747 0.45462 0.38897 0.0
C2071 C 0.55938 0.43889 0.34061 0.0
C2072 C 0.5379 0.42239 0.328 0.0
C2073 C 0.60077 0.46881 0.35981 0.0
C2074 C 0.59318 0.46834 0.32056 0.0
C2075 C 0.57249 0.4534 0.31179 0.0
C2076 C 0.60684 0.48163 0.28701 0.0
C2077 C 0.62306 0.48359 0.37093 0.0
C2078 C 0.61818 0.50347 0.28912 0.0
C2079 C 0.63135 0.51536 0.2574 0.0
C2080 C 0.63329 0.50563 0.22273 0.0
C2081 C 0.62138 0.48381 0.2205 0.0
C2082 C 0.60846 0.47207 0.25202 0.0
H2083 H 0.62764 0.47872 0.39879 0.0
H2084 H 0.6337 0.48477 0.34639 0.0
H2085 H 0.62515 0.49922 0.37614 0.0
H2086 H 0.61691 0.51136 0.3153 0.0
H2087 H 0.64019 0.53207 0.26029 0.0
H2088 H 0.5575 0.71987 0.29915 0.0
H2089 H 0.56939 0.74673 0.2464 0.0
H2090 H 0.51266 0.74842 0.25847 0.0
H2091 H 0.50095 0.72238 0.31048 0.0
H2092 H 0.54908 0.74564 0.17124 0.0
H2093 H 0.55696 0.80953 0.26757 0.0
H2094 H 0.55595 0.78657 0.28788 0.0
H2095 H 0.53243 0.78633 0.27427 0.0
C2096 C 0.54771 0.72616 0.2908 0.0
C2097 C 0.52828 0.71889 0.30945 0.0
C2098 C 0.55448 0.74145 0.26056 0.0
C2099 C 0.54207 0.7499 0.24887 0.0
C2100 C 0.52276 0.74258 0.26743 0.0
H2101 H 0.51172 0.8149 0.08771 0.0
H2102 H 0.51906 0.79794 0.1422 0.0
C2103 C 0.51603 0.72746 0.29724 0.0
C2104 C 0.5484 0.76584 0.21654 0.0
H2105 H 0.55119 0.81219 0.19704 0.0
C2106 C 0.55015 0.76047 0.17689 0.0
C2107 C 0.54976 0.7852 0.22383 0.0
C2108 C 0.54888 0.79235 0.26577 0.0
C2109 C 0.55154 0.77317 0.14421 0.0
C2110 C 0.55154 0.79192 0.15144 0.0
C2111 C 0.5512 0.79787 0.19131 0.0
C2112 C 0.54858 0.80385 0.11855 0.0
C2113 C 0.55149 0.76573 0.10211 0.0
C2114 C 0.56301 0.81349 0.08721 0.0
C2115 C 0.55884 0.82344 0.05553 0.0
C2116 C 0.54009 0.82373 0.05468 0.0
C2117 C 0.52622 0.81481 0.08704 0.0
C2118 C 0.53041 0.80509 0.11843 0.0
H2119 H 0.54863 0.74961 0.1015 0.0
H2120 H 0.53941 0.76643 0.08377 0.0
H2121 H 0.56675 0.776 0.08787 0.0
H2122 H 0.57734 0.81308 0.08694 0.0
H2123 H 0.56982 0.83012 0.03108 0.0
H2124 H 0.30598 0.80113 0.3271 0.0
H2125 H 0.28126 0.78671 0.27232 0.0
H2126 H 0.29933 0.84833 0.23134 0.0
H2127 H 0.3247 0.8631 0.28651 0.0
H2128 H 0.24761 0.79007 0.25127 0.0
H2129 H 0.30725 0.82155 0.13055 0.0
H2130 H 0.3139 0.8218 0.18266 0.0
H2131 H 0.30707 0.84025 0.16438 0.0
C2132 C 0.30475 0.81176 0.30664 0.0
C2133 C 0.31757 0.83336 0.31115 0.0
C2134 C 0.29048 0.80341 0.27525 0.0
C2135 C 0.28857 0.81634 0.24712 0.0
C2136 C 0.30075 0.83798 0.25218 0.0
H2137 H 0.21376 0.76656 0.02411 0.0
H2138 H 0.23218 0.79091 0.07961 0.0
C2139 C 0.31511 0.84643 0.28399 0.0
C2140 C 0.27405 0.80669 0.21248 0.0
H2141 H 0.27273 0.79939 0.1108 0.0
C2142 C 0.25308 0.79239 0.2205 0.0
C2143 C 0.2811 0.80954 0.17219 0.0
C2144 C 0.30356 0.82397 0.16169 0.0
C2145 C 0.23924 0.78048 0.18979 0.0
C2146 C 0.24646 0.78278 0.1498 0.0
C2147 C 0.26715 0.79774 0.14139 0.0
C2148 C 0.23358 0.76806 0.11746 0.0
C2149 C 0.21706 0.76509 0.20059 0.0
C2150 C 0.22806 0.74714 0.12039 0.0
C2151 C 0.21775 0.7334 0.08891 0.0
C2152 C 0.21251 0.74011 0.05366 0.0
C2153 C 0.21727 0.76087 0.05116 0.0
C2154 C 0.22794 0.77481 0.08269 0.0
H2155 H 0.21241 0.76932 0.22914 0.0
H2156 H 0.20627 0.76397 0.17647 0.0
H2157 H 0.21544 0.74956 0.20455 0.0
H2158 H 0.23245 0.74158 0.14651 0.0
H2159 H 0.21443 0.71753 0.09163 0.0
H2160 H 0.29752 0.53015 0.05196 0.0
H2161 H 0.27315 0.52242 0.10605 0.0
H2162 H 0.26021 0.45922 0.10875 0.0
H2163 H 0.28543 0.46704 0.05401 0.0
H2164 H 0.232 0.49564 0.11054 0.0
H2165 H 0.27388 0.47688 0.22625 0.0
H2166 H 0.28568 0.48887 0.17909 0.0
H2167 H 0.26687 0.46171 0.18099 0.0
C2168 C 0.28969 0.51452 0.06384 0.0
C2169 C 0.29375 0.49926 0.04852 0.0
C2170 C 0.27555 0.51012 0.0949 0.0
C2171 C 0.26487 0.4903 0.11197 0.0
C2172 C 0.26847 0.47475 0.09654 0.0
H2173 H 0.1711 0.48232 0.28871 0.0
H2174 H 0.18515 0.47131 0.23302 0.0
C2175 C 0.2828 0.47919 0.06505 0.0
C2176 C 0.25033 0.48668 0.14603 0.0
H2177 H 0.24481 0.47867 0.24745 0.0
C2178 C 0.23454 0.49154 0.14038 0.0
C2179 C 0.25379 0.4816 0.18512 0.0
C2180 C 0.27104 0.47709 0.19358 0.0
C2181 C 0.22292 0.49256 0.17276 0.0
C2182 C 0.22665 0.48791 0.21204 0.0
C2183 C 0.24175 0.48203 0.21739 0.0
C2184 C 0.21739 0.49202 0.24833 0.0
C2185 C 0.20781 0.50007 0.16488 0.0
C2186 C 0.23066 0.50646 0.27676 0.0
C2187 C 0.2227 0.51252 0.3086 0.0
C2188 C 0.20117 0.50435 0.31315 0.0
C2189 C 0.18773 0.48896 0.28609 0.0
C2190 C 0.19578 0.48284 0.25397 0.0
H2191 H 0.20982 0.50693 0.13448 0.0
H2192 H 0.19173 0.48681 0.16715 0.0
H2193 H 0.2097 0.51188 0.18737 0.0
H2194 H 0.24733 0.51374 0.27345 0.0
H2195 H 0.23359 0.5242 0.32907 0.0
H2196 H 0.3875 0.85058 0.53723 0.0
H2197 H 0.41306 0.85427 0.5872 0.0
H2198 H 0.41932 0.91235 0.62578 0.0
H2199 H 0.39422 0.90912 0.57449 0.0
H2200 H 0.45637 0.91524 0.62484 0.0
H2201 H 0.40236 0.84261 0.70378 0.0
H2202 H 0.40553 0.8381 0.65214 0.0
H2203 H 0.39376 0.85338 0.66496 0.0
C2204 C 0.39426 0.86417 0.55634 0.0
C2205 C 0.38855 0.87945 0.55198 0.0
C2206 C 0.40885 0.8662 0.58521 0.0
C2207 C 0.41783 0.88332 0.6113 0.0
C2208 C 0.41257 0.89889 0.60636 0.0
H2209 H 0.47443 0.88115 0.8374 0.0
H2210 H 0.45315 0.88273 0.78366 0.0
C2211 C 0.39816 0.89702 0.57699 0.0
C2212 C 0.43258 0.88489 0.64367 0.0
H2213 H 0.43784 0.85844 0.72244 0.0
C2214 C 0.45226 0.90285 0.6463 0.0
C2215 C 0.42729 0.86889 0.67222 0.0
C2216 C 0.40602 0.84977 0.67347 0.0
C2217 C 0.46672 0.90515 0.67618 0.0
C2218 C 0.46166 0.88884 0.70383 0.0
C2219 C 0.44195 0.87095 0.70123 0.0
C2220 C 0.47598 0.89013 0.73689 0.0
C2221 C 0.48703 0.92531 0.67841 0.0
C2222 C 0.49632 0.89422 0.7292 0.0
C2223 C 0.50882 0.89369 0.7604 0.0
C2224 C 0.50109 0.88864 0.79983 0.0
C2225 C 0.48096 0.88508 0.80747 0.0
C2226 C 0.46866 0.88588 0.77659 0.0
H2227 H 0.48604 0.9381 0.66343 0.0
H2228 H 0.49193 0.92983 0.71001 0.0
H2229 H 0.4992 0.92348 0.66287 0.0
H2230 H 0.5023 0.89706 0.69886 0.0
H2231 H 0.52411 0.89623 0.75328 0.0
H2232 H 0.18395 0.56102 0.53747 0.0
H2233 H 0.18027 0.58289 0.58745 0.0
H2234 H 0.12145 0.53136 0.62425 0.0
H2235 H 0.12471 0.50946 0.57311 0.0
H2236 H 0.11942 0.56621 0.62264 0.0
H2237 H 0.1906 0.58255 0.70479 0.0
H2238 H 0.19576 0.59041 0.65329 0.0
H2239 H 0.17976 0.56336 0.66559 0.0
C2240 C 0.17019 0.55426 0.55616 0.0
C2241 C 0.15471 0.53334 0.55139 0.0
C2242 C 0.16817 0.56682 0.58501 0.0
C2243 C 0.15083 0.55874 0.61057 0.0
C2244 C 0.13507 0.538 0.6052 0.0
H2245 H 0.15176 0.61636 0.83715 0.0
H2246 H 0.14993 0.59347 0.78318 0.0
C2247 C 0.13695 0.52546 0.57591 0.0
C2248 C 0.14926 0.57187 0.64293 0.0
H2249 H 0.17521 0.60258 0.72321 0.0
C2250 C 0.13159 0.57408 0.64475 0.0
C2251 C 0.16496 0.58203 0.67228 0.0
C2252 C 0.18372 0.57932 0.67422 0.0
C2253 C 0.12929 0.58622 0.67464 0.0
C2254 C 0.14532 0.59691 0.70314 0.0
C2255 C 0.16293 0.5946 0.70135 0.0
C2256 C 0.14402 0.60989 0.73622 0.0
C2257 C 0.10944 0.58698 0.67593 0.0
C2258 C 0.14079 0.62665 0.72843 0.0
C2259 C 0.14145 0.63968 0.75972 0.0
C2260 C 0.14577 0.63646 0.79932 0.0
C2261 C 0.14841 0.61936 0.80706 0.0
C2262 C 0.14746 0.60625 0.77607 0.0
H2263 H 0.09662 0.57352 0.66017 0.0
H2264 H 0.10455 0.5872 0.70732 0.0
H2265 H 0.11193 0.60127 0.66069 0.0
H2266 H 0.13858 0.6302 0.69798 0.0
H2267 H 0.13966 0.65288 0.75258 0.0
H2268 H 0.40378 0.51061 0.77584 0.0
H2269 H 0.42839 0.53224 0.72284 0.0
H2270 H 0.41383 0.58039 0.74668 0.0
H2271 H 0.39029 0.55959 0.79974 0.0
H2272 H 0.42551 0.54987 0.65341 0.0
H2273 H 0.47524 0.61327 0.75713 0.0
H2274 H 0.45524 0.58834 0.77497 0.0
H2275 H 0.44896 0.60778 0.75982 0.0
C2276 C 0.40593 0.52583 0.76969 0.0
C2277 C 0.39541 0.53352 0.79274 0.0
C2278 C 0.42 0.53821 0.73943 0.0
C2279 C 0.42362 0.55837 0.73154 0.0
C2280 C 0.41213 0.56538 0.75308 0.0
H2281 H 0.48104 0.65699 0.55985 0.0
H2282 H 0.45997 0.63088 0.6099 0.0
C2283 C 0.3985 0.55331 0.78343 0.0
C2284 C 0.43914 0.57231 0.70093 0.0
H2285 H 0.47873 0.6222 0.68699 0.0
C2286 C 0.43737 0.56554 0.66095 0.0
C2287 C 0.45482 0.59287 0.71047 0.0
C2288 C 0.45883 0.6009 0.75302 0.0
C2289 C 0.4501 0.579 0.63028 0.0
C2290 C 0.46497 0.59976 0.63967 0.0
C2291 C 0.46721 0.60634 0.6797 0.0
C2292 C 0.47772 0.61519 0.60818 0.0
C2293 C 0.44714 0.57126 0.58766 0.0
C2294 C 0.49488 0.6152 0.59059 0.0
C2295 C 0.50718 0.63031 0.56202 0.0
C2296 C 0.50251 0.64568 0.55024 0.0
C2297 C 0.48519 0.64546 0.56791 0.0
C2298 C 0.47306 0.6305 0.59663 0.0
H2299 H 0.43401 0.55512 0.5847 0.0
H2300 H 0.44428 0.58152 0.56778 0.0
H2301 H 0.46152 0.57178 0.57706 0.0
H2302 H 0.49889 0.60365 0.59929 0.0
H2303 H 0.52035 0.62993 0.54921 0.0
H2304 H 0.20103 0.66968 0.07603 0.0
H2305 H 0.18974 0.64423 0.12952 0.0
H2306 H 0.12667 0.61628 0.08738 0.0
H2307 H 0.13804 0.64209 0.03267 0.0
H2308 H 0.16071 0.63534 0.19138 0.0
H2309 H 0.13864 0.56721 0.09221 0.0
H2310 H 0.15444 0.59349 0.07453 0.0
H2311 H 0.12717 0.58305 0.08233 0.0
C2312 C 0.18469 0.65817 0.07788 0.0
C2313 C 0.17048 0.65786 0.04961 0.0
C2314 C 0.17825 0.64362 0.10876 0.0
C2315 C 0.1574 0.62813 0.11239 0.0
C2316 C 0.14291 0.62793 0.08493 0.0
H2317 H 0.1281 0.53757 0.31377 0.0
H2318 H 0.12064 0.5558 0.26008 0.0
C2319 C 0.14938 0.64277 0.05387 0.0
C2320 C 0.15155 0.61233 0.14491 0.0
H2321 H 0.13997 0.5623 0.16152 0.0
C2322 C 0.15559 0.61923 0.18491 0.0
C2323 C 0.14515 0.59133 0.13656 0.0
C2324 C 0.14116 0.58319 0.09414 0.0
C2325 C 0.15436 0.60604 0.2163 0.0
C2326 C 0.14892 0.58535 0.20772 0.0
C2327 C 0.14384 0.57808 0.16812 0.0
C2328 C 0.1522 0.57258 0.23806 0.0
C2329 C 0.16023 0.61465 0.25822 0.0
C2330 C 0.1722 0.57567 0.2429 0.0
C2331 C 0.17646 0.56541 0.27314 0.0
C2332 C 0.16084 0.55171 0.29975 0.0
C2333 C 0.14051 0.54797 0.29397 0.0
C2334 C 0.13623 0.5584 0.26336 0.0
H2335 H 0.16082 0.62977 0.26137 0.0
H2336 H 0.14901 0.60355 0.28034 0.0
H2337 H 0.17577 0.61692 0.26562 0.0
H2338 H 0.18474 0.58649 0.22376 0.0
H2339 H 0.1923 0.56865 0.27607 0.0
H2340 H 0.4034 0.56795 0.01286 0.0
H2341 H 0.42783 0.58208 0.06864 0.0
H2342 H 0.3933 0.52434 0.13248 0.0
H2343 H 0.3687 0.50992 0.07602 0.0
H2344 H 0.4004 0.56097 0.17588 0.0
H2345 H 0.4737 0.57134 0.11202 0.0
H2346 H 0.46076 0.58082 0.08032 0.0
H2347 H 0.44857 0.55355 0.09096 0.0
C2348 C 0.40128 0.55803 0.03831 0.0
C2349 C 0.38417 0.53774 0.03986 0.0
C2350 C 0.41533 0.56614 0.07019 0.0
C2351 C 0.4126 0.55426 0.10471 0.0
C2352 C 0.39587 0.53375 0.10599 0.0
H2353 H 0.49305 0.61003 0.32057 0.0
H2354 H 0.4741 0.58469 0.26662 0.0
C2355 C 0.3819 0.52546 0.07362 0.0
C2356 C 0.42605 0.56421 0.14053 0.0
H2357 H 0.47686 0.59177 0.17035 0.0
C2358 C 0.41705 0.56726 0.175 0.0
C2359 C 0.44783 0.57257 0.13949 0.0
C2360 C 0.45831 0.56927 0.10385 0.0
C2361 C 0.42931 0.57932 0.20736 0.0
C2362 C 0.45117 0.58855 0.20544 0.0
C2363 C 0.46012 0.58466 0.17192 0.0
C2364 C 0.46479 0.60425 0.23568 0.0
C2365 C 0.41888 0.58291 0.24278 0.0
C2366 C 0.4665 0.62382 0.23528 0.0
C2367 C 0.47728 0.63817 0.26555 0.0
C2368 C 0.48672 0.63342 0.29727 0.0
C2369 C 0.48609 0.61423 0.29651 0.0
C2370 C 0.47516 0.59972 0.26587 0.0
H2371 H 0.40202 0.57141 0.24388 0.0
H2372 H 0.42616 0.58218 0.27133 0.0
H2373 H 0.42074 0.59861 0.24043 0.0
H2374 H 0.45886 0.62777 0.21213 0.0
H2375 H 0.47759 0.65286 0.26486 0.0
H2376 H 0.48923 0.83828 0.0871 0.0
H2377 H 0.47439 0.84955 0.13999 0.0
H2378 H 0.49401 0.90692 0.07708 0.0
H2379 H 0.50936 0.89575 0.02372 0.0
H2380 H 0.49715 0.89283 0.18629 0.0
H2381 H 0.42585 0.87303 0.0986 0.0
H2382 H 0.44033 0.85996 0.08915 0.0
H2383 H 0.45107 0.88658 0.07504 0.0
C2384 C 0.49063 0.85343 0.08464 0.0
C2385 C 0.50047 0.86613 0.05119 0.0
C2386 C 0.48212 0.85983 0.11493 0.0
C2387 C 0.48292 0.87898 0.11238 0.0
C2388 C 0.49319 0.89205 0.07957 0.0
H2389 H 0.40416 0.90166 0.28273 0.0
H2390 H 0.42864 0.90873 0.22673 0.0
C2391 C 0.50206 0.88573 0.0493 0.0
C2392 C 0.47245 0.88461 0.14396 0.0
H2393 H 0.42563 0.88013 0.16736 0.0
C2394 C 0.4817 0.89053 0.18194 0.0
C2395 C 0.45228 0.88156 0.13833 0.0
C2396 C 0.44162 0.87491 0.09817 0.0
C2397 C 0.47103 0.89268 0.21477 0.0
C2398 C 0.45033 0.88836 0.20983 0.0
C2399 C 0.44149 0.88354 0.17127 0.0
C2400 C 0.4368 0.88585 0.24503 0.0
C2401 C 0.48187 0.899 0.25481 0.0
C2402 C 0.43325 0.87076 0.27392 0.0
C2403 C 0.41946 0.86677 0.30548 0.0
C2404 C 0.4086 0.87764 0.30921 0.0
C2405 C 0.41248 0.89322 0.281 0.0
C2406 C 0.42633 0.89714 0.24888 0.0
H2407 H 0.49894 0.9087 0.25095 0.0
H2408 H 0.47631 0.90774 0.27298 0.0
H2409 H 0.47877 0.88489 0.27168 0.0
H2410 H 0.44068 0.86149 0.27135 0.0
H2411 H 0.41686 0.85464 0.32658 0.0
H2412 H 0.3163 0.52514 0.80025 0.0
H2413 H 0.28992 0.52037 0.75126 0.0
H2414 H 0.26711 0.45461 0.74976 0.0
H2415 H 0.29379 0.45928 0.79837 0.0
H2416 H 0.27054 0.46917 0.67492 0.0
H2417 H 0.22883 0.49861 0.76638 0.0
H2418 H 0.25599 0.51711 0.76237 0.0
H2419 H 0.24766 0.49286 0.78771 0.0
C2420 C 0.30563 0.50959 0.7898 0.0
C2421 C 0.30724 0.49258 0.80365 0.0
C2422 C 0.29036 0.50687 0.76188 0.0
C2423 C 0.27611 0.48705 0.74721 0.0
C2424 C 0.27774 0.47005 0.76076 0.0
H2425 H 0.16946 0.46769 0.59625 0.0
H2426 H 0.18995 0.46472 0.65124 0.0
C2427 C 0.29304 0.47275 0.78868 0.0
C2428 C 0.2602 0.48424 0.71644 0.0
H2429 H 0.2218 0.49543 0.69568 0.0
C2430 C 0.25974 0.47472 0.67975 0.0
C2431 C 0.24578 0.49115 0.7226 0.0
C2432 C 0.2444 0.5003 0.76205 0.0
C2433 C 0.24598 0.47267 0.64874 0.0
C2434 C 0.23239 0.48065 0.65402 0.0
C2435 C 0.23224 0.48942 0.69128 0.0
C2436 C 0.21942 0.48139 0.62035 0.0
C2437 C 0.24619 0.46192 0.61051 0.0
C2438 C 0.22903 0.49177 0.58471 0.0
C2439 C 0.21742 0.49335 0.5534 0.0
C2440 C 0.19575 0.48483 0.5567 0.0
C2441 C 0.18602 0.47428 0.59236 0.0
C2442 C 0.19776 0.47268 0.62393 0.0
H2443 H 0.25171 0.45078 0.616 0.0
H2444 H 0.23054 0.45347 0.59664 0.0
H2445 H 0.25701 0.47366 0.58881 0.0
H2446 H 0.2457 0.49913 0.58133 0.0
H2447 H 0.22568 0.50175 0.52675 0.0
H2448 H 0.51051 0.81441 0.80633 0.0
H2449 H 0.51492 0.7928 0.75666 0.0
H2450 H 0.5794 0.83921 0.7436 0.0
H2451 H 0.57508 0.8611 0.79307 0.0
H2452 H 0.5607 0.82525 0.67104 0.0
H2453 H 0.54247 0.75791 0.76776 0.0
H2454 H 0.52242 0.76457 0.76815 0.0
H2455 H 0.54766 0.78254 0.78789 0.0
C2456 C 0.52569 0.82006 0.79311 0.0
C2457 C 0.54245 0.83959 0.804 0.0
C2458 C 0.52823 0.80753 0.76484 0.0
C2459 C 0.5476 0.81411 0.7467 0.0
C2460 C 0.56433 0.83364 0.75731 0.0
H2461 H 0.56984 0.73019 0.59129 0.0
H2462 H 0.5727 0.75372 0.64609 0.0
C2463 C 0.56183 0.84616 0.78573 0.0
C2464 C 0.55012 0.80108 0.71538 0.0
H2465 H 0.54272 0.7526 0.6969 0.0
C2466 C 0.55696 0.80944 0.67691 0.0
C2467 C 0.54557 0.78048 0.72286 0.0
C2468 C 0.53932 0.77089 0.76401 0.0
C2469 C 0.55862 0.79765 0.64556 0.0
C2470 C 0.55298 0.77669 0.65242 0.0
C2471 C 0.54691 0.76856 0.69131 0.0
C2472 C 0.55195 0.7627 0.61903 0.0
C2473 C 0.56641 0.80787 0.60527 0.0
C2474 C 0.53925 0.75967 0.58571 0.0
C2475 C 0.53774 0.74648 0.55445 0.0
C2476 C 0.54865 0.73552 0.55556 0.0
C2477 C 0.56134 0.73843 0.5891 0.0
C2478 C 0.56291 0.75183 0.62056 0.0
H2479 H 0.57641 0.82494 0.60834 0.0
H2480 H 0.57535 0.8017 0.58968 0.0
H2481 H 0.55297 0.80488 0.58621 0.0
H2482 H 0.53015 0.7673 0.58406 0.0
H2483 H 0.52759 0.74464 0.5296 0.0
H2484 H 0.21886 0.71755 0.79958 0.0
H2485 H 0.2404 0.74357 0.74994 0.0
H2486 H 0.19809 0.76716 0.74951 0.0
H2487 H 0.17616 0.74085 0.79885 0.0
H2488 H 0.20875 0.76312 0.6741 0.0
H2489 H 0.2804 0.80466 0.76447 0.0
H2490 H 0.27136 0.77744 0.76087 0.0
H2491 H 0.25577 0.78616 0.78624 0.0
C2492 C 0.2141 0.7283 0.78918 0.0
C2493 C 0.19569 0.72702 0.80358 0.0
C2494 C 0.22661 0.74336 0.7609 0.0
C2495 C 0.22121 0.75773 0.74635 0.0
C2496 C 0.20277 0.75642 0.7604 0.0
H2497 H 0.30817 0.86385 0.5943 0.0
H2498 H 0.28482 0.84332 0.64939 0.0
C2499 C 0.19022 0.74134 0.78874 0.0
C2500 C 0.23431 0.77346 0.71529 0.0
H2501 H 0.28401 0.81152 0.69374 0.0
C2502 C 0.22515 0.77383 0.67866 0.0
C2503 C 0.25571 0.78776 0.72111 0.0
C2504 C 0.26635 0.78918 0.76045 0.0
C2505 C 0.23686 0.78744 0.6474 0.0
C2506 C 0.25849 0.80093 0.65239 0.0
C2507 C 0.2675 0.80114 0.68957 0.0
C2508 C 0.27215 0.81386 0.61861 0.0
C2509 C 0.22584 0.78717 0.60924 0.0
C2510 C 0.27295 0.80428 0.58296 0.0
C2511 C 0.28611 0.81591 0.55156 0.0
C2512 C 0.29916 0.83758 0.55481 0.0
C2513 C 0.29829 0.84728 0.59047 0.0
C2514 C 0.285 0.83552 0.6221 0.0
H2515 H 0.20915 0.78157 0.61478 0.0
H2516 H 0.23298 0.80281 0.59541 0.0
H2517 H 0.22682 0.77643 0.58748 0.0
H2518 H 0.26368 0.78762 0.57964 0.0
H2519 H 0.28629 0.80771 0.52489 0.0
H2520 H 0.27403 0.02486 0.71584 0.0
H2521 H 0.29241 0.01023 0.67869 0.0
H2522 H 0.2368 0.95022 0.67961 0.0
H2523 H 0.2184 0.96497 0.71504 0.0
H2524 H 0.30154 0.97978 0.69244 0.0
H2525 H 0.24862 0.95664 0.56203 0.0
H2526 H 0.24814 0.97293 0.60152 0.0
H2527 H 0.23505 0.94521 0.60778 0.0
C2528 C 0.26589 0.00852 0.70837 0.0
C2529 C 0.24482 0.99602 0.71828 0.0
C2530 C 0.27634 1.00016 0.68703 0.0
C2531 C 0.26591 0.97916 0.67522 0.0
C2532 C 0.24511 0.96656 0.687 0.0
H2533 H 0.29253 0.89425 0.54478 0.0
H2534 H 0.27791 0.91169 0.5838 0.0
C2535 C 0.23464 0.97495 0.70773 0.0
C2536 C 0.27651 0.97037 0.65033 0.0
H2537 H 0.27148 0.94302 0.56437 0.0
C2538 C 0.29505 0.97191 0.66426 0.0
C2539 C 0.26817 0.96008 0.61336 0.0
C2540 C 0.24902 0.95879 0.59508 0.0
C2541 C 0.305 0.96287 0.64316 0.0
C2542 C 0.29644 0.95226 0.60658 0.0
C2543 C 0.27808 0.95102 0.5924 0.0
C2544 C 0.30582 0.9418 0.583 0.0
C2545 C 0.32422 0.96418 0.66107 0.0
C2546 C 0.3264 0.95283 0.56884 0.0
C2547 C 0.33486 0.94279 0.54653 0.0
C2548 C 0.32286 0.92155 0.53741 0.0
C2549 C 0.30221 0.91064 0.55109 0.0
C2550 C 0.29382 0.92062 0.57352 0.0
H2551 H 0.32552 0.9677 0.69369 0.0
H2552 H 0.32434 0.94947 0.65666 0.0
H2553 H 0.33811 0.97681 0.64609 0.0
H2554 H 0.3359 0.96927 0.57469 0.0
H2555 H 0.35077 0.95168 0.53628 0.0
H2556 H 0.02849 0.28469 0.75741 0.0
H2557 H 0.04214 0.31808 0.7222 0.0
H2558 H 0.06541 0.29571 0.62777 0.0
H2559 H 0.05139 0.26253 0.6615 0.0
H2560 H 0.08071 0.34745 0.7005 0.0
H2561 H 0.03514 0.31624 0.56142 0.0
H2562 H 0.02966 0.30076 0.60617 0.0
H2563 H 0.04999 0.30399 0.57241 0.0
C2564 C 0.03632 0.28684 0.72892 0.0
C2565 C 0.03842 0.27063 0.71213 0.0
C2566 C 0.04418 0.30597 0.7088 0.0
C2567 C 0.05438 0.30938 0.67155 0.0
C2568 C 0.05697 0.2934 0.65553 0.0
H2569 H 0.12265 0.40926 0.50133 0.0
H2570 H 0.10595 0.37706 0.54039 0.0
C2571 C 0.04895 0.27432 0.67518 0.0
C2572 C 0.06288 0.32965 0.64965 0.0
H2573 H 0.06441 0.35057 0.55729 0.0
C2574 C 0.07692 0.34814 0.66934 0.0
C2575 C 0.05807 0.33074 0.60882 0.0
C2576 C 0.04223 0.31189 0.58613 0.0
C2577 C 0.08674 0.36738 0.64913 0.0
C2578 C 0.08228 0.36834 0.60807 0.0
C2579 C 0.068 0.34993 0.58861 0.0
C2580 C 0.09246 0.38815 0.58449 0.0
C2581 C 0.10239 0.38642 0.67159 0.0
C2582 C 0.09027 0.40516 0.59565 0.0
C2583 C 0.09981 0.42362 0.57325 0.0
C2584 C 0.11167 0.42549 0.53896 0.0
C2585 C 0.1136 0.40836 0.52749 0.0
C2586 C 0.10406 0.38992 0.54988 0.0
H2587 H 0.10794 0.38235 0.69918 0.0
H2588 H 0.11598 0.39638 0.65237 0.0
H2589 H 0.09505 0.39559 0.68069 0.0
H2590 H 0.08105 0.40414 0.62161 0.0
H2591 H 0.09795 0.43647 0.5829 0.0
H2592 H 0.61723 0.74451 0.53259 0.0
H2593 H 0.6494 0.75929 0.57162 0.0
H2594 H 0.63954 0.69793 0.59257 0.0
H2595 H 0.60745 0.68309 0.55303 0.0
H2596 H 0.65663 0.75411 0.64999 0.0
H2597 H 0.69861 0.72786 0.55048 0.0
H2598 H 0.67482 0.72682 0.53565 0.0
H2599 H 0.67414 0.70719 0.56803 0.0
C2600 C 0.62199 0.73415 0.54523 0.0
C2601 C 0.60983 0.7126 0.53932 0.0
C2602 C 0.64037 0.74264 0.56775 0.0
C2603 C 0.64719 0.72982 0.58475 0.0
C2604 C 0.63494 0.70825 0.57919 0.0
H2605 H 0.7474 0.77627 0.76758 0.0
H2606 H 0.71351 0.75696 0.73417 0.0
C2607 C 0.61651 0.69975 0.55668 0.0
C2608 C 0.66698 0.73909 0.6084 0.0
H2609 H 0.71489 0.74331 0.61198 0.0
C2610 C 0.66934 0.75169 0.64173 0.0
C2611 C 0.68377 0.73624 0.59748 0.0
C2612 C 0.68287 0.72397 0.56076 0.0
C2613 C 0.68788 0.76143 0.66426 0.0
C2614 C 0.70452 0.75822 0.65381 0.0
C2615 C 0.70212 0.7456 0.6205 0.0
C2616 C 0.72511 0.76907 0.67482 0.0
C2617 C 0.68971 0.77567 0.69814 0.0
C2618 C 0.74315 0.78174 0.65269 0.0
C2619 C 0.7625 0.79257 0.67156 0.0
C2620 C 0.76454 0.79108 0.71335 0.0
C2621 C 0.74653 0.7779 0.73546 0.0
C2622 C 0.72706 0.76698 0.71639 0.0
H2623 H 0.67778 0.78042 0.69606 0.0
H2624 H 0.68751 0.76751 0.72713 0.0
H2625 H 0.70528 0.78984 0.69838 0.0
H2626 H 0.74223 0.78363 0.62065 0.0
H2627 H 0.77587 0.80243 0.65319 0.0
H2628 H 0.92605 0.32909 0.10143 0.0
H2629 H 0.94565 0.31495 0.06747 0.0
H2630 H 0.91829 0.31645 0.95456 0.0
H2631 H 0.89916 0.33073 0.98755 0.0
H2632 H 0.9313 0.27833 0.02406 0.0
H2633 H 0.97884 0.34486 0.92431 0.0
H2634 H 0.96467 0.34676 0.96648 0.0
H2635 H 0.95163 0.33578 0.91975 0.0
C2636 C 0.92444 0.3267 0.06928 0.0
C2637 C 0.91102 0.33128 0.04745 0.0
C2638 C 0.9356 0.3185 0.04987 0.0
C2639 C 0.9338 0.31489 1.00815 0.0
C2640 C 0.92046 0.3195 0.98647 0.0
H2641 H 0.97565 0.26057 0.82472 0.0
H2642 H 0.95982 0.27697 0.86385 0.0
C2643 C 0.90936 0.32763 1.00568 0.0
C2644 C 0.94512 0.30566 0.98709 0.0
H2645 H 0.97723 0.31293 0.90749 0.0
C2646 C 0.94155 0.28602 0.9989 0.0
C2647 C 0.95843 0.31552 0.95394 0.0
C2648 C 0.96379 0.33698 0.94059 0.0
C2649 C 0.9503 0.27579 0.97785 0.0
C2650 C 0.9634 0.28556 0.94436 0.0
C2651 C 0.96718 0.3053 0.93294 0.0
C2652 C 0.9732 0.27556 0.92058 0.0
C2653 C 0.94479 0.25424 0.99085 0.0
C2654 C 0.98635 0.26954 0.93898 0.0
C2655 C 0.99543 0.26016 0.9166 0.0
C2656 C 0.99173 0.25667 0.87512 0.0
C2657 C 0.97885 0.26301 0.85656 0.0
C2658 C 0.96977 0.2724 0.87898 0.0
H2659 H 0.93037 0.24677 1.00911 0.0
H2660 H 0.94267 0.24422 0.96455 0.0
H2661 H 0.95754 0.25514 1.00954 0.0
H2662 H 0.98973 0.27219 0.97073 0.0
H2663 H 1.0053 0.25554 0.9319 0.0
H2664 H 0.71511 0.59649 0.99314 0.0
H2665 H 0.72923 0.6299 0.96043 0.0
H2666 H 0.71419 0.65443 0.06411 0.0
H2667 H 0.70037 0.62076 0.09805 0.0
H2668 H 0.71207 0.6516 0.93717 0.0
H2669 H 0.77363 0.69872 0.04767 0.0
H2670 H 0.75927 0.67078 0.04934 0.0
H2671 H 0.74792 0.68544 0.06834 0.0
C2672 C 0.7147 0.60886 1.00935 0.0
C2673 C 0.70651 0.60569 0.0486 0.0
C2674 C 0.72287 0.62813 0.99036 0.0
C2675 C 0.72317 0.64499 1.00972 0.0
C2676 C 0.71468 0.64191 0.04867 0.0
H2677 H 0.77081 0.77266 0.92246 0.0
H2678 H 0.75387 0.74036 0.96133 0.0
C2679 C 0.70657 0.62253 0.068 0.0
C2680 C 0.73205 0.66543 0.98823 0.0
H2681 H 0.76964 0.71672 0.99314 0.0
C2682 C 0.72464 0.66582 0.94957 0.0
C2683 C 0.74852 0.68414 1.00406 0.0
C2684 C 0.75797 0.68482 0.04445 0.0
C2685 C 0.73313 0.68412 0.9265 0.0
C2686 C 0.74977 0.70274 0.94208 0.0
C2687 C 0.75693 0.70251 0.98103 0.0
C2688 C 0.76009 0.72246 0.91818 0.0
C2689 C 0.724 0.68333 0.88569 0.0
C2690 C 0.7695 0.72341 0.88099 0.0
C2691 C 0.77913 0.74187 0.85861 0.0
C2692 C 0.77973 0.75992 0.87295 0.0
C2693 C 0.7705 0.75903 0.91034 0.0
C2694 C 0.76086 0.74055 0.93271 0.0
H2695 H 0.70797 0.66996 0.88301 0.0
H2696 H 0.72371 0.6978 0.87936 0.0
H2697 H 0.73365 0.68152 0.86243 0.0
H2698 H 0.76961 0.7099 0.86938 0.0
H2699 H 0.78628 0.74204 0.83021 0.0
H2700 H 0.26179 0.02572 0.92728 0.0
H2701 H 0.29391 0.04183 0.96671 0.0
H2702 H 0.3267 0.08159 0.86679 0.0
H2703 H 0.29456 0.06577 0.82751 0.0
H2704 H 0.33153 0.04451 0.95514 0.0
H2705 H 0.34192 0.12343 0.95625 0.0
H2706 H 0.31814 0.10104 0.94002 0.0
H2707 H 0.33997 0.11343 0.90651 0.0
C2708 C 0.27585 0.03789 0.91369 0.0
C2709 C 0.27557 0.04451 0.87427 0.0
C2710 C 0.29424 0.0471 0.9363 0.0
C2711 C 0.31275 0.06325 0.92015 0.0
C2712 C 0.31258 0.06954 0.88042 0.0
H2713 H 0.44056 0.13882 0.9894 0.0
H2714 H 0.40689 0.11998 0.95703 0.0
C2715 C 0.2942 0.06036 0.85781 0.0
C2716 C 0.33224 0.07335 0.94466 0.0
H2717 H 0.37065 0.12039 0.97874 0.0
C2718 C 0.33997 0.06108 0.9606 0.0
C2719 C 0.34329 0.09498 0.95216 0.0
C2720 C 0.33532 0.10897 0.9382 0.0
C2721 C 0.35874 0.0699 0.98237 0.0
C2722 C 0.37002 0.09157 0.98894 0.0
C2723 C 0.36208 0.10378 0.97368 0.0
C2724 C 0.39067 0.10215 1.00945 0.0
C2725 C 0.36673 0.05605 0.997 0.0
C2726 C 0.393 0.09843 0.05002 0.0
C2727 C 0.41248 0.10932 0.06903 0.0
C2728 C 0.43006 0.12419 0.04782 0.0
C2729 C 0.42757 0.12753 1.00701 0.0
C2730 C 0.4082 0.11677 0.98827 0.0
H2731 H 0.35848 0.04049 0.98274 0.0
H2732 H 0.38359 0.06317 0.99085 0.0
H2733 H 0.36443 0.05398 0.02993 0.0
H2734 H 0.37967 0.08743 0.06725 0.0
H2735 H 0.41368 0.10636 0.10044 0.0
H2736 H 0.79563 0.03885 0.36732 0.0
H2737 H 0.77679 0.05342 0.4009 0.0
H2738 H 0.75623 0.06328 0.28641 0.0
H2739 H 0.77484 0.04823 0.25232 0.0
H2740 H 0.78288 0.09199 0.39606 0.0
H2741 H 0.70236 0.03672 0.34791 0.0
H2742 H 0.72336 0.03153 0.34096 0.0
H2743 H 0.72027 0.0486 0.30719 0.0
C2744 C 0.78692 0.04385 0.34906 0.0
C2745 C 0.78681 0.04224 0.30687 0.0
C2746 C 0.77614 0.05227 0.36847 0.0
C2747 C 0.76484 0.05936 0.34647 0.0
C2748 C 0.76442 0.05755 0.30434 0.0
H2749 H 0.69691 0.12185 0.42109 0.0
H2750 H 0.71344 0.10579 0.38335 0.0
C2751 C 0.77516 0.04898 0.28478 0.0
C2752 C 0.75441 0.0694 0.3679 0.0
H2753 H 0.70752 0.06638 0.38385 0.0
C2754 C 0.76637 0.08631 0.39341 0.0
C2755 C 0.73287 0.06217 0.36451 0.0
C2756 C 0.71889 0.04365 0.33897 0.0
C2757 C 0.75754 0.09618 0.41524 0.0
C2758 C 0.73596 0.08879 0.41228 0.0
C2759 C 0.72402 0.07206 0.38637 0.0
C2760 C 0.72554 0.09823 0.43566 0.0
C2761 C 0.77157 0.11476 0.44067 0.0
C2762 C 0.72641 0.09909 0.47787 0.0
C2763 C 0.71696 0.10832 0.49956 0.0
C2764 C 0.70624 0.11676 0.47961 0.0
C2765 C 0.70501 0.1155 0.43745 0.0
C2766 C 0.71448 0.1063 0.41579 0.0
H2767 H 0.78801 0.12198 0.43092 0.0
H2768 H 0.76678 0.12666 0.4395 0.0
H2769 H 0.7707 0.10976 0.47231 0.0
H2770 H 0.7344 0.09259 0.49413 0.0
H2771 H 0.71814 0.10894 0.53198 0.0
H2772 H 1.0058 0.78113 0.36281 0.0
H2773 H 0.99149 0.74783 0.3972 0.0
H2774 H 0.96248 0.7162 0.28702 0.0
H2775 H 0.97771 0.74957 0.25199 0.0
H2776 H 0.95349 0.72054 0.41227 0.0
H2777 H 0.98518 0.68076 0.32083 0.0
H2778 H 0.99407 0.70801 0.31513 0.0
H2779 H 0.97037 0.68889 0.29151 0.0
C2780 C 0.99669 0.76706 0.34566 0.0
C2781 C 0.99308 0.76806 0.30449 0.0
C2782 C 0.98841 0.74796 0.36546 0.0
C2783 C 0.97602 0.72925 0.34488 0.0
C2784 C 0.97247 0.73021 0.30359 0.0
H2785 H 0.90108 0.60046 0.42337 0.0
H2786 H 0.91776 0.63321 0.38624 0.0
C2787 C 0.98113 0.74937 0.28352 0.0
C2788 C 0.96603 0.70906 0.36736 0.0
H2789 H 0.95888 0.65993 0.36795 0.0
C2790 C 0.95486 0.70738 0.40261 0.0
C2791 C 0.96758 0.69167 0.35499 0.0
C2792 C 0.98012 0.69245 0.31878 0.0
C2793 C 0.94512 0.68898 0.42536 0.0
C2794 C 0.94666 0.67162 0.41295 0.0
C2795 C 0.95767 0.67319 0.3776 0.0
C2796 C 0.93676 0.65165 0.43588 0.0
C2797 C 0.93286 0.68818 0.46206 0.0
C2798 C 0.94201 0.65088 0.47618 0.0
C2799 C 0.93241 0.63211 0.49758 0.0
C2800 C 0.91748 0.61364 0.47907 0.0
C2801 C 0.91253 0.61438 0.43857 0.0
C2802 C 0.92207 0.63313 0.41725 0.0
H2803 H 0.92855 0.70045 0.46145 0.0
H2804 H 0.91848 0.67287 0.46481 0.0
H2805 H 0.94245 0.69065 0.48921 0.0
H2806 H 0.95361 0.6648 0.49109 0.0
H2807 H 0.93667 0.63207 0.52864 0.0
H2808 H 0.40215 0.31237 0.52948 0.0
H2809 H 0.36982 0.29645 0.49061 0.0
H2810 H 0.40425 0.32711 0.38384 0.0
H2811 H 0.43659 0.34277 0.42241 0.0
H2812 H 0.35101 0.31385 0.44801 0.0
H2813 H 0.37066 0.26788 0.34475 0.0
H2814 H 0.38558 0.28009 0.3893 0.0
H2815 H 0.38933 0.29508 0.34459 0.0
C2816 C 0.40283 0.31571 0.49771 0.0
C2817 C 0.42199 0.32882 0.47908 0.0
C2818 C 0.38432 0.30658 0.47546 0.0
C2819 C 0.3845 0.31022 0.43398 0.0
C2820 C 0.40362 0.32359 0.4155 0.0
H2821 H 0.28416 0.26431 0.25355 0.0
H2822 H 0.31777 0.2836 0.28803 0.0
C2823 C 0.42213 0.33271 0.43772 0.0
C2824 C 0.36467 0.3004 0.41042 0.0
H2825 H 0.33987 0.26867 0.33035 0.0
C2826 C 0.34861 0.30395 0.42233 0.0
C2827 C 0.36141 0.2875 0.37668 0.0
C2828 C 0.37756 0.28222 0.36322 0.0
C2829 C 0.3296 0.29518 0.4015 0.0
C2830 C 0.32624 0.28211 0.36802 0.0
C2831 C 0.34238 0.27874 0.35578 0.0
C2832 C 0.30575 0.27095 0.34682 0.0
C2833 C 0.31336 0.30026 0.41533 0.0
C2834 C 0.28775 0.25727 0.36809 0.0
C2835 C 0.26857 0.24633 0.34858 0.0
C2836 C 0.26675 0.24854 0.30696 0.0
C2837 C 0.28482 0.26228 0.28559 0.0
C2838 C 0.30411 0.27328 0.30528 0.0
H2839 H 0.3204 0.31509 0.43226 0.0
H2840 H 0.3045 0.30136 0.3896 0.0
H2841 H 0.30233 0.28782 0.43567 0.0
H2842 H 0.28855 0.25473 0.39986 0.0
H2843 H 0.25519 0.23583 0.3663 0.0
H2844 H 0.06368 0.78951 0.18891 0.0
H2845 H 0.07918 0.77285 0.14978 0.0
H2846 H 0.03256 0.75652 0.05843 0.0
H2847 H 0.01716 0.77341 0.09721 0.0
H2848 H 0.06231 0.73219 0.12471 0.0
H2849 H 0.08565 0.78422 0.99227 0.0
H2850 H 0.07786 0.79046 0.0391 0.0
H2851 H 0.05865 0.77229 1.005 0.0
C2852 C 0.05671 0.78236 0.1605 0.0
C2853 C 0.03918 0.78284 0.1462 0.0
C2854 C 0.06561 0.77284 0.13809 0.0
C2855 C 0.05731 0.76367 0.10069 0.0
C2856 C 0.0396 0.76386 0.08666 0.0
H2857 H 0.09914 0.70293 0.92536 0.0
H2858 H 0.0792 0.71652 0.95989 0.0
C2859 C 0.03068 0.77338 0.10907 0.0
C2860 C 0.06693 0.75354 0.07705 0.0
H2861 H 0.0905 0.75525 0.98766 0.0
C2862 C 0.06846 0.73726 0.09474 0.0
C2863 C 0.07486 0.75996 0.03773 0.0
C2864 C 0.07438 0.7778 0.01743 0.0
C2865 C 0.07758 0.72724 0.07441 0.0
C2866 C 0.08595 0.73395 0.03542 0.0
C2867 C 0.08409 0.75 0.0174 0.0
C2868 C 0.09773 0.72535 0.01406 0.0
C2869 C 0.07789 0.70935 0.0949 0.0
C2870 C 0.11499 0.72601 0.03248 0.0
C2871 C 0.12621 0.7181 0.01311 0.0
C2872 C 0.1208 0.70954 0.97421 0.0
C2873 C 0.10371 0.70921 0.95533 0.0
C2874 C 0.09232 0.71704 0.97505 0.0
H2875 H 0.06511 0.70175 0.11713 0.0
H2876 H 0.0765 0.69752 0.07293 0.0
H2877 H 0.09274 0.71523 0.11136 0.0
H2878 H 0.12001 0.73291 0.06189 0.0
H2879 H 0.13943 0.71907 0.02863 0.0
H2880 H 0.32703 0.41894 0.92063 0.0
H2881 H 0.31211 0.38508 0.95438 0.0
H2882 H 0.30658 0.41257 0.06401 0.0
H2883 H 0.32125 0.44608 0.03112 0.0
H2884 H 0.32512 0.37264 0.02615 0.0
H2885 H 0.24728 0.36406 0.04543 0.0
H2886 H 0.26632 0.38254 0.0111 0.0
H2887 H 0.26809 0.3882 0.06388 0.0
C2888 C 0.32274 0.41781 0.95197 0.0
C2889 C 0.32531 0.43541 0.97283 0.0
C2890 C 0.31418 0.39841 0.97124 0.0
C2891 C 0.30781 0.39613 0.01162 0.0
C2892 C 0.31092 0.41375 0.03268 0.0
H2893 H 0.24932 0.29945 0.1922 0.0
H2894 H 0.2657 0.33166 0.15309 0.0
C2895 C 0.3195 0.43304 0.01367 0.0
C2896 C 0.29792 0.37551 0.03221 0.0
H2897 H 0.25399 0.34076 0.08243 0.0
C2898 C 0.30949 0.36554 0.03808 0.0
C2899 C 0.27755 0.36624 0.04808 0.0
C2900 C 0.26398 0.37568 0.04155 0.0
C2901 C 0.30153 0.34701 0.06044 0.0
C2902 C 0.28122 0.33786 0.07674 0.0
C2903 C 0.26956 0.3477 0.07025 0.0
C2904 C 0.27179 0.31824 0.10088 0.0
C2905 C 0.31529 0.33786 0.06764 0.0
C2906 C 0.26953 0.29978 0.08474 0.0
C2907 C 0.26025 0.28135 0.10719 0.0
C2908 C 0.25281 0.28086 0.14625 0.0
C2909 C 0.255 0.2993 0.16235 0.0
C2910 C 0.26432 0.31773 0.13991 0.0
H2911 H 0.33194 0.34955 0.06336 0.0
H2912 H 0.31316 0.33141 0.09843 0.0
H2913 H 0.31124 0.32512 0.04591 0.0
H2914 H 0.27463 0.2995 0.05444 0.0
H2915 H 0.25862 0.2674 0.09368 0.0
H2916 H 0.61604 0.93597 0.92256 0.0
H2917 H 0.65016 0.95524 0.95556 0.0
H2918 H 0.62536 0.91678 0.06046 0.0
H2919 H 0.5916 0.89773 0.02848 0.0
H2920 H 0.66057 0.97664 0.03666 0.0
H2921 H 0.67723 0.91208 0.02659 0.0
H2922 H 0.65839 0.91361 0.99485 0.0
H2923 H 0.65202 0.90507 0.04593 0.0
C2924 C 0.61782 0.93169 0.95272 0.0
C2925 C 0.60089 0.91519 0.9726 0.0
C2926 C 0.63735 0.94272 0.97155 0.0
C2927 C 0.64042 0.93728 0.01036 0.0
C2928 C 0.62351 0.92112 0.03038 0.0
H2929 H 0.73804 0.96968 0.18554 0.0
H2930 H 0.70605 0.95439 0.14583 0.0
C2931 C 0.60408 0.91028 0.01191 0.0
C2932 C 0.66114 0.94823 0.03047 0.0
H2933 H 0.699 0.94011 0.06939 0.0
C2934 C 0.66914 0.96878 0.04338 0.0
C2935 C 0.67222 0.9379 0.03968 0.0
C2936 C 0.66468 0.916 0.02582 0.0
C2937 C 0.68751 0.97901 0.06633 0.0
C2938 C 0.69853 0.96861 0.07589 0.0
C2939 C 0.69065 0.94816 0.06229 0.0
C2940 C 0.71799 0.97843 0.10054 0.0
C2941 C 0.69444 1.00058 0.08153 0.0
C2942 C 0.73556 0.99704 0.08845 0.0
C2943 C 0.75387 0.00587 0.11128 0.0
C2944 C 0.75513 0.99623 0.14664 0.0
C2945 C 0.73758 0.9776 0.15866 0.0
C2946 C 0.71927 0.96879 0.13584 0.0
H2947 H 0.68153 1.004 0.08142 0.0
H2948 H 0.7007 1.00273 0.11248 0.0
H2949 H 0.70688 0.01203 0.06171 0.0
H2950 H 0.73526 1.00459 0.06093 0.0
H2951 H 0.76715 0.02012 0.10093 0.0
H2952 H 0.64984 0.60089 0.15724 0.0
H2953 H 0.63406 0.61762 0.19553 0.0
H2954 H 0.64858 0.59758 0.306 0.0
H2955 H 0.66458 0.58113 0.26795 0.0
H2956 H 0.6009 0.60041 0.24767 0.0
H2957 H 0.67097 0.6585 0.32929 0.0
H2958 H 0.67237 0.64414 0.28695 0.0
H2959 H 0.66533 0.63228 0.33572 0.0
C2960 C 0.64984 0.60022 0.1897 0.0
C2961 C 0.65866 0.58982 0.20949 0.0
C2962 C 0.64076 0.60977 0.21162 0.0
C2963 C 0.64039 0.60925 0.25385 0.0
C2964 C 0.64909 0.59873 0.27359 0.0
H2965 H 0.58773 0.65632 0.43511 0.0
H2966 H 0.60593 0.64081 0.40083 0.0
C2967 C 0.65816 0.58921 0.25172 0.0
C2968 C 0.63026 0.61906 0.27706 0.0
H2969 H 0.63891 0.65533 0.34917 0.0
C2970 C 0.60928 0.61248 0.26972 0.0
C2971 C 0.64101 0.6347 0.30628 0.0
C2972 C 0.66371 0.64299 0.31487 0.0
C2973 C 0.59878 0.6209 0.29078 0.0
C2974 C 0.60962 0.63681 0.3195 0.0
C2975 C 0.63054 0.64321 0.32722 0.0
C2976 C 0.59963 0.64732 0.34081 0.0
C2977 C 0.57597 0.61225 0.28257 0.0
C2978 C 0.59063 0.65687 0.31884 0.0
C2979 C 0.58018 0.66564 0.33829 0.0
C2980 C 0.57864 0.66544 0.38048 0.0
C2981 C 0.58857 0.65681 0.40266 0.0
C2982 C 0.59894 0.64785 0.38303 0.0
H2983 H 0.56867 0.59627 0.27021 0.0
H2984 H 0.5675 0.61196 0.31021 0.0
H2985 H 0.57409 0.62212 0.26 0.0
H2986 H 0.59147 0.65736 0.28639 0.0
H2987 H 0.57302 0.67236 0.32003 0.0
H2988 H 0.45445 0.07505 0.16714 0.0
H2989 H 0.43789 0.04293 0.20639 0.0
H2990 H 0.41732 0.07175 0.293 0.0
H2991 H 0.43355 0.10379 0.25346 0.0
H2992 H 0.44533 0.03534 0.28215 0.0
H2993 H 0.36395 0.01824 0.27294 0.0
H2994 H 0.38428 0.03753 0.2418 0.0
H2995 H 0.38145 0.04345 0.29294 0.0
C2996 C 0.4462 0.07448 0.19431 0.0
C2997 C 0.44519 0.09198 0.20691 0.0
C2998 C 0.43677 0.05609 0.21687 0.0
C2999 C 0.42599 0.05464 0.25252 0.0
C3000 C 0.42505 0.07216 0.26521 0.0
H3001 H 0.36669 0.95254 0.4301 0.0
H3002 H 0.38153 0.98656 0.39688 0.0
C3003 C 0.43446 0.09056 0.24263 0.0
C3004 C 0.41638 0.03505 0.27687 0.0
H3005 H 0.3705 0.99712 0.31689 0.0
C3006 C 0.42896 0.02703 0.28965 0.0
C3007 C 0.39499 0.02406 0.28699 0.0
C3008 C 0.38031 0.03111 0.27267 0.0
C3009 C 0.42084 0.00854 0.31204 0.0
C3010 C 0.39946 0.99749 0.32184 0.0
C3011 C 0.3869 0.00562 0.3097 0.0
C3012 C 0.38972 0.97679 0.34209 0.0
C3013 C 0.43525 1.00092 0.32514 0.0
C3014 C 0.38893 0.95984 0.32217 0.0
C3015 C 0.38035 0.94044 0.34079 0.0
C3016 C 0.37227 0.9373 0.38014 0.0
C3017 C 0.37273 0.95426 0.39991 0.0
C3018 C 0.38123 0.97375 0.38094 0.0
H3019 H 0.45176 0.01346 0.32415 0.0
H3020 H 0.4315 0.99454 0.35607 0.0
H3021 H 0.43338 0.98834 0.30471 0.0
H3022 H 0.39509 0.96164 0.29206 0.0
H3023 H 0.3804 0.92795 0.32429 0.0
H3024 H 0.10682 0.47639 0.3242 0.0
H3025 H 0.07329 0.45737 0.2915 0.0
H3026 H 0.04818 0.41827 0.39566 0.0
H3027 H 0.08191 0.43784 0.42955 0.0
H3028 H 0.05092 0.41845 0.26878 0.0
H3029 H 1.00474 0.43434 0.37892 0.0
H3030 H 0.03269 0.44752 0.38051 0.0
H3031 H 0.0176 0.42163 0.4 0.0
C3032 C 0.09428 0.46374 0.34048 0.0
C3033 C 0.09728 0.45877 0.37984 0.0
C3034 C 0.07497 0.45282 0.32152 0.0
C3035 C 0.05792 0.43649 0.34107 0.0
C3036 C 0.06085 0.43112 0.38011 0.0
H3037 H 0.92978 0.3567 0.25623 0.0
H3038 H 0.9623 0.37218 0.29446 0.0
C3039 C 0.08026 0.44223 0.39939 0.0
C3040 C 0.03743 0.4251 0.31974 0.0
H3041 H 0.98628 0.41188 0.32516 0.0
C3042 C 0.03681 0.41703 0.28125 0.0
C3043 C 0.01886 0.42316 0.33568 0.0
C3044 C 0.01845 0.43227 0.37586 0.0
C3045 C 0.01841 0.4072 0.25848 0.0
C3046 C 0.99993 0.40547 0.2742 0.0
C3047 C 1.00039 0.41317 0.31296 0.0
C3048 C 0.9801 0.396 0.25069 0.0
C3049 C 0.01892 0.39854 0.21783 0.0
C3050 C 0.97905 0.40427 0.21339 0.0
C3051 C 0.96047 0.39539 0.19139 0.0
C3052 C 0.94241 0.37807 0.20624 0.0
C3053 C 0.94342 0.36992 0.24374 0.0
C3054 C 0.96201 0.37882 0.26573 0.0
H3055 H 0.03221 0.39578 0.21508 0.0
H3056 H 1.00435 0.38376 0.21193 0.0
H3057 H 0.02069 0.40985 0.19432 0.0
H3058 H 0.99257 0.41779 0.20141 0.0
H3059 H 0.96021 0.40221 0.16288 0.0
H3060 H 0.46604 0.37745 0.69939 0.0
H3061 H 0.44716 0.3922 0.73192 0.0
H3062 H 0.41824 0.39138 0.61947 0.0
H3063 H 0.43713 0.37633 0.58624 0.0
H3064 H 0.44961 0.42964 0.71563 0.0
H3065 H 0.36863 0.36517 0.69623 0.0
H3066 H 0.39078 0.36183 0.68856 0.0
H3067 H 0.38359 0.37429 0.65087 0.0
C3068 C 0.45552 0.38013 0.68132 0.0
C3069 C 0.45319 0.37556 0.63989 0.0
C3070 C 0.44473 0.38868 0.70016 0.0
C3071 C 0.4311 0.39284 0.67843 0.0
C3072 C 0.42839 0.38803 0.63719 0.0
H3073 H 0.35679 0.44823 0.7567 0.0
H3074 H 0.3732 0.43231 0.71804 0.0
C3075 C 0.43927 0.37945 0.61814 0.0
C3076 C 0.42055 0.40293 0.69912 0.0
H3077 H 0.37307 0.39582 0.72641 0.0
C3078 C 0.43286 0.42221 0.71793 0.0
C3079 C 0.39868 0.39339 0.70211 0.0
C3080 C 0.38458 0.37245 0.68369 0.0
C3081 C 0.42401 0.43216 0.73944 0.0
C3082 C 0.40214 0.42241 0.74324 0.0
C3083 C 0.3898 0.4033 0.72382 0.0
C3084 C 0.39183 0.43176 0.76728 0.0
C3085 C 0.43823 0.45324 0.75727 0.0
C3086 C 0.39642 0.43647 0.80823 0.0
C3087 C 0.38705 0.44561 0.83043 0.0
C3088 C 0.3727 0.45012 0.81233 0.0
C3089 C 0.36776 0.44498 0.77162 0.0
C3090 C 0.37715 0.43586 0.74943 0.0
H3091 H 0.45354 0.46111 0.74192 0.0
H3092 H 0.43129 0.46337 0.75538 0.0
H3093 H 0.44098 0.45143 0.78935 0.0
H3094 H 0.40728 0.43306 0.82314 0.0
H3095 H 0.39116 0.44928 0.86173 0.0
H3096 H 0.64461 0.08351 0.58825 0.0
H3097 H 0.6293 0.05026 0.62399 0.0
H3098 H 0.6591 0.08241 0.73324 0.0
H3099 H 0.67345 0.11556 0.69825 0.0
H3100 H 0.64303 0.02899 0.66229 0.0
H3101 H 0.60188 0.04986 0.77453 0.0
H3102 H 0.61463 0.06597 0.73162 0.0
H3103 H 0.62927 0.06747 0.77582 0.0
C3104 C 0.64799 0.08345 0.61984 0.0
C3105 C 0.6601 0.10224 0.64043 0.0
C3106 C 0.63916 0.06441 0.64036 0.0
C3107 C 0.64241 0.06369 0.68184 0.0
C3108 C 0.65553 0.08242 0.70177 0.0
H3109 H 0.60388 0.96527 0.86145 0.0
H3110 H 0.6207 0.99804 0.82385 0.0
C3111 C 0.66397 0.10142 0.68153 0.0
C3112 C 0.6322 0.04346 0.70421 0.0
H3113 H 0.60323 0.01916 0.78767 0.0
C3114 C 0.63423 0.02686 0.68955 0.0
C3115 C 0.62053 0.04041 0.73986 0.0
C3116 C 0.61625 0.0568 0.75613 0.0
C3117 C 0.62547 0.00769 0.70982 0.0
C3118 C 0.61416 1.00481 0.74579 0.0
C3119 C 0.61204 0.02134 0.76038 0.0
C3120 C 0.60417 0.98474 0.76845 0.0
C3121 C 0.62879 0.9908 0.69287 0.0
C3122 C 0.58906 0.9663 0.7502 0.0
C3123 C 0.57952 0.94757 0.77159 0.0
C3124 C 0.58467 0.94681 0.81195 0.0
C3125 C 0.59963 0.96529 0.83039 0.0
C3126 C 0.60923 0.98404 0.8089 0.0
H3127 H 0.64228 0.99713 0.67213 0.0
H3128 H 0.63128 0.98208 0.71714 0.0
H3129 H 0.61482 0.97977 0.67565 0.0
H3130 H 0.5844 0.96641 0.71948 0.0
H3131 H 0.56787 0.93369 0.75659 0.0
H3132 H 0.95149 0.5964 0.5853 0.0
H3133 H 0.98539 0.61474 0.61913 0.0
H3134 H 0.95524 0.5934 0.73367 0.0
H3135 H 0.92167 0.5751 0.70061 0.0
H3136 H 1.00172 0.64561 0.67959 0.0
H3137 H 0.99708 0.57334 0.73476 0.0
H3138 H 0.97988 0.57335 0.69664 0.0
H3139 H 0.97505 0.57564 0.74878 0.0
C3140 C 0.95205 0.59577 0.61771 0.0
C3141 C 0.9337 0.58401 0.63998 0.0
C3142 C 0.97149 0.60622 0.63704 0.0
C3143 C 0.973 0.60506 0.67899 0.0
C3144 C 0.95464 0.59412 0.70127 0.0
H3145 H 0.06874 0.64868 0.86329 0.0
H3146 H 0.03645 0.63319 0.82432 0.0
C3147 C 0.93534 0.58373 0.68214 0.0
C3148 C 0.99359 0.61507 0.69987 0.0
H3149 H 0.02354 0.60486 0.76332 0.0
C3150 C 1.00659 0.63668 0.69758 0.0
C3151 C 1.00003 0.60349 0.72353 0.0
C3152 C 0.98739 0.58015 0.72584 0.0
C3153 C 0.02538 0.64703 0.71924 0.0
C3154 C 0.03166 0.63547 0.74338 0.0
C3155 C 0.01878 0.61383 0.74515 0.0
C3156 C 0.05142 0.64544 0.76716 0.0
C3157 C 0.03798 0.67036 0.71709 0.0
C3158 C 0.07074 0.6574 0.74823 0.0
C3159 C 0.08922 0.66634 0.77052 0.0
C3160 C 0.08889 0.66342 0.81231 0.0
C3161 C 0.06957 0.65137 0.83124 0.0
C3162 C 0.05108 0.64245 0.80891 0.0
H3163 H 0.02846 0.67716 0.70692 0.0
H3164 H 0.04487 0.67713 0.74671 0.0
H3165 H 0.05079 0.67493 0.69523 0.0
H3166 H 0.0716 0.65957 0.71603 0.0
H3167 H 0.10383 0.67532 0.75489 0.0
loop_
_geom_bond_atom_site_label_1
_geom_bond_atom_site_label_2
_geom_bond_distance
_geom_bond_site_symmetry_2
_ccdc_geom_bond_type
Co0 H3 2.400 1_545 S
Co0 O4 2.009 . S
Co0 O12 2.115 . S
Co0 O13 2.315 1_545 S
Co0 O24 2.053 1_545 S
Co0 O27 2.094 . S
Co0 O30 2.122 . S
Co1 O4 2.126 . S
Co1 H5 2.388 . S
Co1 O6 2.053 . S
Co1 O9 2.047 . S
Co1 O15 2.113 . S
Co1 O26 2.063 . S
Co2 H3 2.388 . S
Co2 O4 2.053 1_565 S
Co2 O6 2.126 1_565 S
Co2 O11 2.063 . S
Co2 O25 2.047 . S
Co2 O31 2.113 1_565 S
H3 Co0 2.400 1_565 S
H3 Co2 2.388 . S
H3 O4 0.760 1_565 S
O4 Co0 2.009 . S
O4 Co1 2.126 . S
O4 Co2 2.053 1_545 S
O4 H3 0.760 1_545 S
H5 Co1 2.388 . S
H5 O6 0.760 . S
H5 Co7 2.400 . S
O6 Co1 2.053 . S
O6 Co2 2.126 1_545 S
O6 H5 0.760 . S
O6 Co7 2.009 . S
Co7 H5 2.400 . S
Co7 O6 2.009 . S
Co7 O8 2.053 . S
Co7 O10 2.041 1_545 S
Co7 O14 2.122 1_545 S
Co7 O28 2.115 . S
Co7 O29 2.315 . S
O8 Co7 2.053 . S
O8 C20 1.259 . S
O9 Co1 2.047 . S
O9 C20 1.257 . S
O10 Co7 2.041 1_565 S
O10 C21 1.265 . S
O11 Co2 2.063 . S
O11 C21 1.268 . S
O12 Co0 2.115 . S
O12 C22 1.281 1_545 S
O13 Co0 2.315 1_565 S
O13 C22 1.252 . S
O14 Co7 2.122 1_565 S
O14 C23 1.272 . S
O15 Co1 2.113 . S
O15 C23 1.245 1_545 S
C16 O24 1.259 . S
C16 O25 1.257 . S
C17 O26 1.268 . S
C17 O27 1.253 . S
C18 O28 1.281 . S
C18 O29 1.252 . S
C19 O30 1.272 . S
C19 O31 1.245 . S
C20 O8 1.259 . S
C20 O9 1.257 . S
C21 O10 1.265 . S
C21 O11 1.268 . S
C22 O12 1.281 1_565 S
C22 O13 1.252 . S
C23 O14 1.272 . S
C23 O15 1.245 1_565 S
O24 Co0 2.053 1_565 S
O24 C16 1.259 . S
O25 Co2 2.047 . S
O25 C16 1.257 . S
O26 Co1 2.063 . S
O26 C17 1.268 . S
O27 Co0 2.094 . S
O27 C17 1.253 . S
O28 Co7 2.115 . S
O28 C18 1.281 . S
O29 Co7 2.315 . S
O29 C18 1.252 . S
O30 Co0 2.122 . S
O30 C19 1.272 . S
O31 Co2 2.113 1_545 S
O31 C19 1.245 . S
Co32 H35 2.400 . S
Co32 O36 2.009 . S
Co32 O44 2.115 . S
Co32 O45 2.315 . S
Co32 O56 2.053 . S
Co32 O59 2.094 1_455 S
Co32 O62 2.122 1_455 S
Co33 O36 2.126 1_655 S
Co33 H37 2.388 . S
Co33 O38 2.046 . S
Co33 O41 2.047 . S
Co33 O47 2.113 1_655 S
Co33 O58 2.063 . S
Co34 H35 2.388 . S
Co34 O36 2.053 . S
Co34 O38 2.114 1_455 S
Co34 O43 2.063 . S
Co34 O57 2.047 . S
Co34 O63 2.109 1_455 S
H35 Co32 2.400 . S
H35 Co34 2.388 . S
H35 O36 0.760 . S
O36 Co32 2.009 . S
O36 Co33 2.126 1_455 S
O36 Co34 2.053 . S
O36 H35 0.760 . S
H37 Co33 2.388 . S
H37 O38 0.774 . S
H37 Co39 2.400 1_655 S
O38 Co33 2.046 . S
O38 Co34 2.114 1_655 S
O38 H37 0.774 . S
O38 Co39 2.013 1_655 S
Co39 H37 2.400 1_455 S
Co39 O38 2.013 1_455 S
Co39 O40 2.053 1_455 S
Co39 O42 2.094 . S
Co39 O46 2.122 . S
Co39 O60 2.115 . S
Co39 O61 2.315 1_455 S
O40 Co39 2.053 1_655 S
O40 C52 1.259 . S
O41 Co33 2.047 . S
O41 C52 1.257 . S
O42 Co39 2.094 . S
O42 C53 1.253 . S
O43 Co34 2.063 . S
O43 C53 1.268 . S
O44 Co32 2.115 . S
O44 C54 1.281 . S
O45 Co32 2.315 . S
O45 C54 1.252 . S
O46 Co39 2.122 . S
O46 C55 1.272 . S
O47 Co33 2.113 1_455 S
O47 C55 1.245 . S
C48 O56 1.259 . S
C48 O57 1.257 . S
C49 O58 1.268 . S
C49 O59 1.253 . S
C50 O60 1.281 1_655 S
C50 O61 1.252 . S
C51 O62 1.272 . S
C51 O63 1.246 . S
C52 O40 1.259 . S
C52 O41 1.257 . S
C53 O42 1.253 . S
C53 O43 1.268 . S
C54 O44 1.281 . S
C54 O45 1.252 . S
C55 O46 1.272 . S
C55 O47 1.245 . S
O56 Co32 2.053 . S
O56 C48 1.259 . S
O57 Co34 2.047 . S
O57 C48 1.257 . S
O58 Co33 2.063 . S
O58 C49 1.268 . S
O59 Co32 2.094 1_655 S
O59 C49 1.253 . S
O60 Co39 2.115 . S
O60 C50 1.281 1_455 S
O61 Co39 2.315 1_655 S
O61 C50 1.252 . S
O62 Co32 2.122 1_655 S
O62 C51 1.272 . S
O63 Co34 2.109 1_655 S
O63 C51 1.246 . S
Co64 H67 2.400 . S
Co64 O68 2.009 . S
Co64 O76 2.115 . S
Co64 O77 2.315 . S
Co64 O88 2.053 . S
Co64 O91 2.094 . S
Co64 O94 2.122 . S
Co65 O68 2.126 . S
Co65 H69 2.388 . S
Co65 O70 2.053 . S
Co65 O73 2.047 . S
Co65 O79 2.113 . S
Co65 O90 2.063 . S
Co66 H67 2.388 . S
Co66 O68 2.053 . S
Co66 O70 2.126 . S
Co66 O75 2.063 . S
Co66 O89 2.047 . S
Co66 O95 2.113 . S
H67 Co64 2.400 . S
H67 Co66 2.388 . S
H67 O68 0.760 . S
O68 Co64 2.009 . S
O68 Co65 2.126 . S
O68 Co66 2.053 . S
O68 H67 0.760 . S
H69 Co65 2.388 . S
H69 O70 0.760 . S
H69 Co71 2.400 . S
O70 Co65 2.053 . S
O70 Co66 2.126 . S
O70 H69 0.760 . S
O70 Co71 2.009 . S
Co71 H69 2.400 . S
Co71 O70 2.009 . S
Co71 O72 2.053 . S
Co71 O74 2.094 . S
Co71 O78 2.122 . S
Co71 O92 2.115 . S
Co71 O93 2.315 . S
O72 Co71 2.053 . S
O72 C84 1.259 . S
O73 Co65 2.047 . S
O73 C84 1.257 . S
O74 Co71 2.094 . S
O74 C85 1.253 . S
O75 Co66 2.063 . S
O75 C85 1.268 . S
O76 Co64 2.115 . S
O76 C86 1.281 . S
O77 Co64 2.315 . S
O77 C86 1.252 . S
O78 Co71 2.122 . S
O78 C87 1.272 . S
O79 Co65 2.113 . S
O79 C87 1.245 . S
C80 O88 1.259 . S
C80 O89 1.257 . S
C81 O90 1.268 . S
C81 O91 1.253 . S
C82 O92 1.281 . S
C82 O93 1.252 . S
C83 O94 1.272 . S
C83 O95 1.245 . S
C84 O72 1.259 . S
C84 O73 1.257 . S
C85 O74 1.253 . S
C85 O75 1.268 . S
C86 O76 1.281 . S
C86 O77 1.252 . S
C87 O78 1.272 . S
C87 O79 1.245 . S
O88 Co64 2.053 . S
O88 C80 1.259 . S
O89 Co66 2.047 . S
O89 C80 1.257 . S
O90 Co65 2.063 . S
O90 C81 1.268 . S
O91 Co64 2.094 . S
O91 C81 1.253 . S
O92 Co71 2.115 . S
O92 C82 1.281 . S
O93 Co71 2.315 . S
O93 C82 1.252 . S
O94 Co64 2.122 . S
O94 C83 1.272 . S
O95 Co66 2.113 . S
O95 C83 1.245 . S
Co96 H99 2.400 1_545 S
Co96 O100 2.009 . S
Co96 O108 2.115 . S
Co96 O109 2.315 1_545 S
Co96 O120 2.053 1_545 S
Co96 O123 2.094 . S
Co96 O126 2.122 . S
Co97 O100 2.126 . S
Co97 H101 2.388 . S
Co97 O102 2.053 . S
Co97 O105 2.047 . S
Co97 O111 2.113 . S
Co97 O122 2.063 . S
Co98 H99 2.388 1_545 S
Co98 O100 2.053 . S
Co98 O102 2.126 . S
Co98 O107 2.063 . S
Co98 O121 2.047 1_545 S
Co98 O127 2.113 . S
H99 Co96 2.400 1_565 S
H99 Co98 2.388 1_565 S
H99 O100 0.760 1_565 S
O100 Co96 2.009 . S
O100 Co97 2.126 . S
O100 Co98 2.053 . S
O100 H99 0.760 1_545 S
H101 Co97 2.388 . S
H101 O102 0.760 . S
H101 Co103 2.400 . S
O102 Co97 2.053 . S
O102 Co98 2.126 . S
O102 H101 0.760 . S
O102 Co103 2.009 . S
Co103 H101 2.400 . S
Co103 O102 2.009 . S
Co103 O104 2.053 . S
Co103 O106 2.094 . S
Co103 O110 2.122 1_545 S
Co103 O124 2.115 . S
Co103 O125 2.315 . S
O104 Co103 2.053 . S
O104 C116 1.259 . S
O105 Co97 2.047 . S
O105 C116 1.257 . S
O106 Co103 2.094 . S
O106 C117 1.253 . S
O107 Co98 2.063 . S
O107 C117 1.268 . S
O108 Co96 2.115 . S
O108 C118 1.281 1_545 S
O109 Co96 2.315 1_565 S
O109 C118 1.252 . S
O110 Co103 2.122 1_565 S
O110 C119 1.272 . S
O111 Co97 2.113 . S
O111 C119 1.245 1_545 S
C112 O120 1.259 . S
C112 O121 1.257 . S
C113 O122 1.268 . S
C113 O123 1.253 . S
C114 O124 1.281 . S
C114 O125 1.252 . S
C115 O126 1.272 . S
C115 O127 1.245 . S
C116 O104 1.259 . S
C116 O105 1.257 . S
C117 O106 1.253 . S
C117 O107 1.268 . S
C118 O108 1.281 1_565 S
C118 O109 1.252 . S
C119 O110 1.272 . S
C119 O111 1.245 1_565 S
O120 Co96 2.053 1_565 S
O120 C112 1.259 . S
O121 Co98 2.047 1_565 S
O121 C112 1.257 . S
O122 Co97 2.063 . S
O122 C113 1.268 . S
O123 Co96 2.094 . S
O123 C113 1.253 . S
O124 Co103 2.115 . S
O124 C114 1.281 . S
O125 Co103 2.315 . S
O125 C114 1.252 . S
O126 Co96 2.122 . S
O126 C115 1.272 . S
O127 Co98 2.113 . S
O127 C115 1.245 . S
Co128 H131 2.400 . S
Co128 O132 2.009 . S
Co128 O140 2.115 . S
Co128 O141 2.315 . S
Co128 O152 2.053 . S
Co128 O155 2.094 1_455 S
Co128 O158 2.122 1_455 S
Co129 O132 2.126 1_655 S
Co129 H133 2.388 . S
Co129 O134 2.053 . S
Co129 O137 2.047 . S
Co129 O143 2.113 1_655 S
Co129 O154 2.063 . S
Co130 H131 2.388 . S
Co130 O132 2.053 . S
Co130 O134 2.126 1_455 S
Co130 O139 2.063 . S
Co130 O153 2.047 . S
Co130 O159 2.113 1_455 S
H131 Co128 2.400 . S
H131 Co130 2.388 . S
H131 O132 0.760 . S
O132 Co128 2.009 . S
O132 Co129 2.126 1_455 S
O132 Co130 2.053 . S
O132 H131 0.760 . S
H133 Co129 2.388 . S
H133 O134 0.760 . S
H133 Co135 2.400 . S
O134 Co129 2.053 . S
O134 Co130 2.126 1_655 S
O134 H133 0.760 . S
O134 Co135 2.009 . S
Co135 H133 2.400 . S
Co135 O134 2.009 . S
Co135 O136 2.053 . S
Co135 O138 2.094 1_655 S
Co135 O142 2.122 1_655 S
Co135 O156 2.115 . S
Co135 O157 2.315 . S
O136 Co135 2.053 . S
O136 C148 1.259 . S
O137 Co129 2.047 . S
O137 C148 1.257 . S
O138 Co135 2.094 1_455 S
O138 C149 1.253 . S
O139 Co130 2.063 . S
O139 C149 1.268 . S
O140 Co128 2.115 . S
O140 C150 1.281 . S
O141 Co128 2.315 . S
O141 C150 1.252 . S
O142 Co135 2.122 1_455 S
O142 C151 1.272 . S
O143 Co129 2.113 1_455 S
O143 C151 1.245 . S
C144 O152 1.259 . S
C144 O153 1.257 . S
C145 O154 1.268 . S
C145 O155 1.253 . S
C146 O156 1.281 . S
C146 O157 1.252 . S
C147 O158 1.272 . S
C147 O159 1.245 . S
C148 O136 1.259 . S
C148 O137 1.257 . S
C149 O138 1.253 . S
C149 O139 1.268 . S
C150 O140 1.281 . S
C150 O141 1.252 . S
C151 O142 1.272 . S
C151 O143 1.245 . S
O152 Co128 2.053 . S
O152 C144 1.259 . S
O153 Co130 2.047 . S
O153 C144 1.257 . S
O154 Co129 2.063 . S
O154 C145 1.268 . S
O155 Co128 2.094 1_655 S
O155 C145 1.253 . S
O156 Co135 2.115 . S
O156 C146 1.281 . S
O157 Co135 2.315 . S
O157 C146 1.252 . S
O158 Co128 2.122 1_655 S
O158 C147 1.272 . S
O159 Co130 2.113 1_655 S
O159 C147 1.245 . S
Co160 H163 2.400 . S
Co160 O164 2.009 . S
Co160 O172 2.115 . S
Co160 O173 2.315 . S
Co160 O184 2.053 . S
Co160 O187 2.094 . S
Co160 O190 2.122 . S
Co161 O164 2.126 . S
Co161 H165 2.388 . S
Co161 O166 2.053 . S
Co161 O169 2.047 . S
Co161 O175 2.113 . S
Co161 O186 2.063 . S
Co162 H163 2.388 . S
Co162 O164 2.053 . S
Co162 O166 2.126 . S
Co162 O171 2.063 . S
Co162 O185 2.047 . S
Co162 O191 2.113 . S
H163 Co160 2.400 . S
H163 Co162 2.388 . S
H163 O164 0.760 . S
O164 Co160 2.009 . S
O164 Co161 2.126 . S
O164 Co162 2.053 . S
O164 H163 0.760 . S
H165 Co161 2.388 . S
H165 O166 0.760 . S
H165 Co167 2.400 . S
O166 Co161 2.053 . S
O166 Co162 2.126 . S
O166 H165 0.760 . S
O166 Co167 2.009 . S
Co167 H165 2.400 . S
Co167 O166 2.009 . S
Co167 O168 2.053 . S
Co167 O170 2.094 . S
Co167 O174 2.122 . S
Co167 O188 2.115 . S
Co167 O189 2.315 . S
O168 Co167 2.053 . S
O168 C180 1.259 . S
O169 Co161 2.047 . S
O169 C180 1.257 . S
O170 Co167 2.094 . S
O170 C181 1.253 . S
O171 Co162 2.063 . S
O171 C181 1.268 . S
O172 Co160 2.115 . S
O172 C182 1.281 . S
O173 Co160 2.315 . S
O173 C182 1.252 . S
O174 Co167 2.122 . S
O174 C183 1.272 . S
O175 Co161 2.113 . S
O175 C183 1.245 . S
C176 O184 1.259 . S
C176 O185 1.257 . S
C177 O186 1.268 . S
C177 O187 1.253 . S
C178 O188 1.281 . S
C178 O189 1.252 . S
C179 O190 1.272 . S
C179 O191 1.245 . S
C180 O168 1.259 . S
C180 O169 1.257 . S
C181 O170 1.253 . S
C181 O171 1.268 . S
C182 O172 1.281 . S
C182 O173 1.252 . S
C183 O174 1.272 . S
C183 O175 1.245 . S
O184 Co160 2.053 . S
O184 C176 1.259 . S
O185 Co162 2.047 . S
O185 C176 1.257 . S
O186 Co161 2.063 . S
O186 C177 1.268 . S
O187 Co160 2.094 . S
O187 C177 1.253 . S
O188 Co167 2.115 . S
O188 C178 1.281 . S
O189 Co167 2.315 . S
O189 C178 1.252 . S
O190 Co160 2.122 . S
O190 C179 1.272 . S
O191 Co162 2.113 . S
O191 C179 1.245 . S
Co192 H195 2.400 . S
Co192 O196 2.009 . S
Co192 O204 2.115 1_554 S
Co192 O205 2.315 . S
Co192 O216 2.053 1_554 S
Co192 O219 2.094 . S
Co192 O222 2.118 1_554 S
Co193 O196 2.126 . S
Co193 H197 2.388 . S
Co193 O198 2.053 . S
Co193 O201 2.047 . S
Co193 O207 2.113 . S
Co193 O218 2.063 . S
Co194 H195 2.388 . S
Co194 O196 2.053 . S
Co194 O198 2.126 . S
Co194 O203 2.063 . S
Co194 O217 2.047 . S
Co194 O223 2.113 . S
H195 Co192 2.400 . S
H195 Co194 2.388 . S
H195 O196 0.760 . S
O196 Co192 2.009 . S
O196 Co193 2.126 . S
O196 Co194 2.053 . S
O196 H195 0.760 . S
H197 Co193 2.388 . S
H197 O198 0.760 . S
H197 Co199 2.400 . S
O198 Co193 2.053 . S
O198 Co194 2.126 . S
O198 H197 0.760 . S
O198 Co199 2.009 . S
Co199 H197 2.400 . S
Co199 O198 2.009 . S
Co199 O200 2.053 . S
Co199 O202 2.094 . S
Co199 O206 2.122 . S
Co199 O220 2.115 . S
Co199 O221 2.315 . S
O200 Co199 2.053 . S
O200 C212 1.259 . S
O201 Co193 2.047 . S
O201 C212 1.257 . S
O202 Co199 2.094 . S
O202 C213 1.253 . S
O203 Co194 2.063 . S
O203 C213 1.268 . S
O204 Co192 2.115 1_556 S
O204 C214 1.281 1_556 S
O205 Co192 2.315 . S
O205 C214 1.252 . S
O206 Co199 2.122 . S
O206 C215 1.272 . S
O207 Co193 2.113 . S
O207 C215 1.245 . S
C208 O216 1.259 . S
C208 O217 1.257 1_556 S
C209 O218 1.268 . S
C209 O219 1.253 . S
C210 O220 1.281 . S
C210 O221 1.252 . S
C211 O222 1.273 . S
C211 O223 1.245 1_556 S
C212 O200 1.259 . S
C212 O201 1.257 . S
C213 O202 1.253 . S
C213 O203 1.268 . S
C214 O204 1.281 1_554 S
C214 O205 1.252 . S
C215 O206 1.272 . S
C215 O207 1.245 . S
O216 Co192 2.053 1_556 S
O216 C208 1.259 . S
O217 Co194 2.047 . S
O217 C208 1.257 1_554 S
O218 Co193 2.063 . S
O218 C209 1.268 . S
O219 Co192 2.094 . S
O219 C209 1.253 . S
O220 Co199 2.115 . S
O220 C210 1.281 . S
O221 Co199 2.315 . S
O221 C210 1.252 . S
O222 Co192 2.118 1_556 S
O222 C211 1.273 . S
O223 Co194 2.113 . S
O223 C211 1.245 1_554 S
Co224 H227 2.400 . S
Co224 O228 2.009 . S
Co224 O236 2.115 1_554 S
Co224 O237 2.315 . S
Co224 O248 2.053 1_554 S
Co224 O251 2.094 . S
Co224 O254 2.118 1_554 S
Co225 O228 2.126 . S
Co225 H229 2.388 . S
Co225 O230 2.053 . S
Co225 O233 2.047 . S
Co225 O239 2.113 . S
Co225 O250 2.063 . S
Co226 H227 2.388 . S
Co226 O228 2.053 . S
Co226 O230 2.126 . S
Co226 O235 2.063 . S
Co226 O249 2.047 . S
Co226 O255 2.113 . S
H227 Co224 2.400 . S
H227 Co226 2.388 . S
H227 O228 0.760 . S
O228 Co224 2.009 . S
O228 Co225 2.126 . S
O228 Co226 2.053 . S
O228 H227 0.760 . S
H229 Co225 2.388 . S
H229 O230 0.760 . S
H229 Co231 2.400 . S
O230 Co225 2.053 . S
O230 Co226 2.126 . S
O230 H229 0.760 . S
O230 Co231 2.009 . S
Co231 H229 2.400 . S
Co231 O230 2.009 . S
Co231 O232 2.053 . S
Co231 O234 2.094 . S
Co231 O238 2.122 . S
Co231 O252 2.115 . S
Co231 O253 2.315 . S
O232 Co231 2.053 . S
O232 C244 1.259 . S
O233 Co225 2.047 . S
O233 C244 1.257 . S
O234 Co231 2.094 . S
O234 C245 1.253 . S
O235 Co226 2.063 . S
O235 C245 1.268 . S
O236 Co224 2.115 1_556 S
O236 C246 1.281 1_556 S
O237 Co224 2.315 . S
O237 C246 1.252 . S
O238 Co231 2.122 . S
O238 C247 1.272 . S
O239 Co225 2.113 . S
O239 C247 1.245 . S
C240 O248 1.259 . S
C240 O249 1.257 1_556 S
C241 O250 1.268 . S
C241 O251 1.253 . S
C242 O252 1.281 . S
C242 O253 1.252 . S
C243 O254 1.273 . S
C243 O255 1.245 1_556 S
C244 O232 1.259 . S
C244 O233 1.257 . S
C245 O234 1.253 . S
C245 O235 1.268 . S
C246 O236 1.281 1_554 S
C246 O237 1.252 . S
C247 O238 1.272 . S
C247 O239 1.245 . S
O248 Co224 2.053 1_556 S
O248 C240 1.259 . S
O249 Co226 2.047 . S
O249 C240 1.257 1_554 S
O250 Co225 2.063 . S
O250 C241 1.268 . S
O251 Co224 2.094 . S
O251 C241 1.253 . S
O252 Co231 2.115 . S
O252 C242 1.281 . S
O253 Co231 2.315 . S
O253 C242 1.252 . S
O254 Co224 2.118 1_556 S
O254 C243 1.273 . S
O255 Co226 2.113 . S
O255 C243 1.245 1_554 S
Co256 H259 2.400 . S
Co256 O260 2.009 . S
Co256 O268 2.115 1_554 S
Co256 O269 2.315 . S
Co256 O280 2.053 1_554 S
Co256 O283 2.094 . S
Co256 O286 2.118 1_554 S
Co257 O260 2.126 . S
Co257 H261 2.388 . S
Co257 O262 2.053 . S
Co257 O265 2.047 . S
Co257 O271 2.113 . S
Co257 O282 2.063 . S
Co258 H259 2.388 . S
Co258 O260 2.053 . S
Co258 O262 2.126 . S
Co258 O267 2.063 . S
Co258 O281 2.047 . S
Co258 O287 2.113 . S
H259 Co256 2.400 . S
H259 Co258 2.388 . S
H259 O260 0.760 . S
O260 Co256 2.009 . S
O260 Co257 2.126 . S
O260 Co258 2.053 . S
O260 H259 0.760 . S
H261 Co257 2.388 . S
H261 O262 0.760 . S
H261 Co263 2.400 . S
O262 Co257 2.053 . S
O262 Co258 2.126 . S
O262 H261 0.760 . S
O262 Co263 2.009 . S
Co263 H261 2.400 . S
Co263 O262 2.009 . S
Co263 O264 2.053 . S
Co263 O266 2.094 . S
Co263 O270 2.122 . S
Co263 O284 2.115 . S
Co263 O285 2.315 . S
O264 Co263 2.053 . S
O264 C276 1.259 . S
O265 Co257 2.047 . S
O265 C276 1.257 . S
O266 Co263 2.094 . S
O266 C277 1.253 . S
O267 Co258 2.063 . S
O267 C277 1.268 . S
O268 Co256 2.115 1_556 S
O268 C278 1.281 1_556 S
O269 Co256 2.315 . S
O269 C278 1.252 . S
O270 Co263 2.122 . S
O270 C279 1.272 . S
O271 Co257 2.113 . S
O271 C279 1.245 . S
C272 O280 1.259 . S
C272 O281 1.257 1_556 S
C273 O282 1.268 . S
C273 O283 1.253 . S
C274 O284 1.281 . S
C274 O285 1.252 . S
C275 O286 1.273 . S
C275 O287 1.245 1_556 S
C276 O264 1.259 . S
C276 O265 1.257 . S
C277 O266 1.253 . S
C277 O267 1.268 . S
C278 O268 1.281 1_554 S
C278 O269 1.252 . S
C279 O270 1.272 . S
C279 O271 1.245 . S
O280 Co256 2.053 1_556 S
O280 C272 1.259 . S
O281 Co258 2.047 . S
O281 C272 1.257 1_554 S
O282 Co257 2.063 . S
O282 C273 1.268 . S
O283 Co256 2.094 . S
O283 C273 1.253 . S
O284 Co263 2.115 . S
O284 C274 1.281 . S
O285 Co263 2.315 . S
O285 C274 1.252 . S
O286 Co256 2.118 1_556 S
O286 C275 1.273 . S
O287 Co258 2.113 . S
O287 C275 1.245 1_554 S
Co288 H291 2.400 . S
Co288 O292 2.009 . S
Co288 O300 2.115 . S
Co288 O301 2.315 . S
Co288 O312 2.053 . S
Co288 O315 2.094 . S
Co288 O318 2.122 . S
Co289 O292 2.126 . S
Co289 H293 2.388 . S
Co289 O294 2.053 . S
Co289 O297 2.047 . S
Co289 O303 2.113 . S
Co289 O314 2.063 . S
Co290 H291 2.388 . S
Co290 O292 2.053 . S
Co290 O294 2.126 . S
Co290 O299 2.063 . S
Co290 O313 2.047 . S
Co290 O319 2.113 . S
H291 Co288 2.400 . S
H291 Co290 2.388 . S
H291 O292 0.760 . S
O292 Co288 2.009 . S
O292 Co289 2.126 . S
O292 Co290 2.053 . S
O292 H291 0.760 . S
H293 Co289 2.388 . S
H293 O294 0.760 . S
H293 Co295 2.400 . S
O294 Co289 2.053 . S
O294 Co290 2.126 . S
O294 H293 0.760 . S
O294 Co295 2.009 . S
Co295 H293 2.400 . S
Co295 O294 2.009 . S
Co295 O296 2.053 . S
Co295 O298 2.094 . S
Co295 O302 2.122 . S
Co295 O316 2.115 . S
Co295 O317 2.315 . S
O296 Co295 2.053 . S
O296 C308 1.259 . S
O297 Co289 2.047 . S
O297 C308 1.257 . S
O298 Co295 2.094 . S
O298 C309 1.253 . S
O299 Co290 2.063 . S
O299 C309 1.268 . S
O300 Co288 2.115 . S
O300 C310 1.281 . S
O301 Co288 2.315 . S
O301 C310 1.252 . S
O302 Co295 2.122 . S
O302 C311 1.272 . S
O303 Co289 2.113 . S
O303 C311 1.245 . S
C304 O312 1.259 . S
C304 O313 1.257 . S
C305 O314 1.268 . S
C305 O315 1.253 . S
C306 O316 1.281 . S
C306 O317 1.252 . S
C307 O318 1.272 . S
C307 O319 1.245 . S
C308 O296 1.259 . S
C308 O297 1.257 . S
C309 O298 1.253 . S
C309 O299 1.268 . S
C310 O300 1.281 . S
C310 O301 1.252 . S
C311 O302 1.272 . S
C311 O303 1.245 . S
O312 Co288 2.053 . S
O312 C304 1.259 . S
O313 Co290 2.047 . S
O313 C304 1.257 . S
O314 Co289 2.063 . S
O314 C305 1.268 . S
O315 Co288 2.094 . S
O315 C305 1.253 . S
O316 Co295 2.115 . S
O316 C306 1.281 . S
O317 Co295 2.315 . S
O317 C306 1.252 . S
O318 Co288 2.122 . S
O318 C307 1.272 . S
O319 Co290 2.113 . S
O319 C307 1.245 . S
Co320 H323 2.400 . S
Co320 O324 2.009 . S
Co320 O332 2.115 . S
Co320 O333 2.315 . S
Co320 O344 2.053 . S
Co320 O347 2.094 . S
Co320 O350 2.122 . S
Co321 O324 2.126 . S
Co321 H325 2.388 . S
Co321 O326 2.053 . S
Co321 O329 2.047 . S
Co321 O335 2.113 . S
Co321 O346 2.063 . S
Co322 H323 2.388 . S
Co322 O324 2.053 . S
Co322 O326 2.126 . S
Co322 O331 2.063 . S
Co322 O345 2.047 . S
Co322 O351 2.113 . S
H323 Co320 2.400 . S
H323 Co322 2.388 . S
H323 O324 0.760 . S
O324 Co320 2.009 . S
O324 Co321 2.126 . S
O324 Co322 2.053 . S
O324 H323 0.760 . S
H325 Co321 2.388 . S
H325 O326 0.760 . S
H325 Co327 2.400 . S
O326 Co321 2.053 . S
O326 Co322 2.126 . S
O326 H325 0.760 . S
O326 Co327 2.009 . S
Co327 H325 2.400 . S
Co327 O326 2.009 . S
Co327 O328 2.053 . S
Co327 O330 2.094 . S
Co327 O334 2.122 . S
Co327 O348 2.115 . S
Co327 O349 2.315 . S
O328 Co327 2.053 . S
O328 C340 1.259 . S
O329 Co321 2.047 . S
O329 C340 1.257 . S
O330 Co327 2.094 . S
O330 C341 1.253 . S
O331 Co322 2.063 . S
O331 C341 1.268 . S
O332 Co320 2.115 . S
O332 C342 1.281 . S
O333 Co320 2.315 . S
O333 C342 1.252 . S
O334 Co327 2.122 . S
O334 C343 1.272 . S
O335 Co321 2.113 . S
O335 C343 1.245 . S
C336 O344 1.259 . S
C336 O345 1.257 . S
C337 O346 1.268 . S
C337 O347 1.253 . S
C338 O348 1.281 . S
C338 O349 1.252 . S
C339 O350 1.272 . S
C339 O351 1.245 . S
C340 O328 1.259 . S
C340 O329 1.257 . S
C341 O330 1.253 . S
C341 O331 1.268 . S
C342 O332 1.281 . S
C342 O333 1.252 . S
C343 O334 1.272 . S
C343 O335 1.245 . S
O344 Co320 2.053 . S
O344 C336 1.259 . S
O345 Co322 2.047 . S
O345 C336 1.257 . S
O346 Co321 2.063 . S
O346 C337 1.268 . S
O347 Co320 2.094 . S
O347 C337 1.253 . S
O348 Co327 2.115 . S
O348 C338 1.281 . S
O349 Co327 2.315 . S
O349 C338 1.252 . S
O350 Co320 2.122 . S
O350 C339 1.272 . S
O351 Co322 2.113 . S
O351 C339 1.245 . S
Co352 H355 2.400 . S
Co352 O356 2.009 . S
Co352 O364 2.115 . S
Co352 O365 2.315 . S
Co352 O376 2.053 . S
Co352 O379 2.094 . S
Co352 O382 2.122 . S
Co353 O356 2.126 . S
Co353 H357 2.388 . S
Co353 O358 2.053 . S
Co353 O361 2.047 . S
Co353 O367 2.113 . S
Co353 O378 2.063 . S
Co354 H355 2.388 . S
Co354 O356 2.053 . S
Co354 O358 2.126 . S
Co354 O363 2.063 . S
Co354 O377 2.047 . S
Co354 O383 2.113 . S
H355 Co352 2.400 . S
H355 Co354 2.388 . S
H355 O356 0.760 . S
O356 Co352 2.009 . S
O356 Co353 2.126 . S
O356 Co354 2.053 . S
O356 H355 0.760 . S
H357 Co353 2.388 . S
H357 O358 0.760 . S
H357 Co359 2.400 . S
O358 Co353 2.053 . S
O358 Co354 2.126 . S
O358 H357 0.760 . S
O358 Co359 2.009 . S
Co359 H357 2.400 . S
Co359 O358 2.009 . S
Co359 O360 2.053 . S
Co359 O362 2.094 . S
Co359 O366 2.122 . S
Co359 O380 2.115 . S
Co359 O381 2.315 . S
O360 Co359 2.053 . S
O360 C372 1.259 . S
O361 Co353 2.047 . S
O361 C372 1.257 . S
O362 Co359 2.094 . S
O362 C373 1.253 . S
O363 Co354 2.063 . S
O363 C373 1.268 . S
O364 Co352 2.115 . S
O364 C374 1.281 . S
O365 Co352 2.315 . S
O365 C374 1.252 . S
O366 Co359 2.122 . S
O366 C375 1.272 . S
O367 Co353 2.113 . S
O367 C375 1.245 . S
C368 O376 1.259 . S
C368 O377 1.257 . S
C369 O378 1.268 . S
C369 O379 1.253 . S
C370 O380 1.281 . S
C370 O381 1.252 . S
C371 O382 1.272 . S
C371 O383 1.245 . S
C372 O360 1.259 . S
C372 O361 1.257 . S
C373 O362 1.253 . S
C373 O363 1.268 . S
C374 O364 1.281 . S
C374 O365 1.252 . S
C375 O366 1.272 . S
C375 O367 1.245 . S
O376 Co352 2.053 . S
O376 C368 1.259 . S
O377 Co354 2.047 . S
O377 C368 1.257 . S
O378 Co353 2.063 . S
O378 C369 1.268 . S
O379 Co352 2.094 . S
O379 C369 1.253 . S
O380 Co359 2.115 . S
O380 C370 1.281 . S
O381 Co359 2.315 . S
O381 C370 1.252 . S
O382 Co352 2.122 . S
O382 C371 1.272 . S
O383 Co354 2.113 . S
O383 C371 1.245 . S
Co384 H387 2.400 . S
Co384 O388 2.009 . S
Co384 O396 2.115 . S
Co384 O397 2.315 . S
Co384 O408 2.053 . S
Co384 O411 2.094 . S
Co384 O414 2.122 . S
Co385 O388 2.126 . S
Co385 H389 2.388 . S
Co385 O390 2.053 . S
Co385 O393 2.047 . S
Co385 O399 2.113 . S
Co385 O410 2.063 . S
Co386 H387 2.388 . S
Co386 O388 2.053 . S
Co386 O390 2.126 . S
Co386 O395 2.063 . S
Co386 O409 2.047 . S
Co386 O415 2.113 . S
H387 Co384 2.400 . S
H387 Co386 2.388 . S
H387 O388 0.760 . S
O388 Co384 2.009 . S
O388 Co385 2.126 . S
O388 Co386 2.053 . S
O388 H387 0.760 . S
H389 Co385 2.388 . S
H389 O390 0.760 . S
H389 Co391 2.400 . S
O390 Co385 2.053 . S
O390 Co386 2.126 . S
O390 H389 0.760 . S
O390 Co391 2.009 . S
Co391 H389 2.400 . S
Co391 O390 2.009 . S
Co391 O392 2.053 . S
Co391 O394 2.094 . S
Co391 O398 2.122 . S
Co391 O412 2.115 . S
Co391 O413 2.315 . S
O392 Co391 2.053 . S
O392 C404 1.259 . S
O393 Co385 2.047 . S
O393 C404 1.257 . S
O394 Co391 2.094 . S
O394 C405 1.253 . S
O395 Co386 2.063 . S
O395 C405 1.268 . S
O396 Co384 2.115 . S
O396 C406 1.281 . S
O397 Co384 2.315 . S
O397 C406 1.252 . S
O398 Co391 2.122 . S
O398 C407 1.272 . S
O399 Co385 2.113 . S
O399 C407 1.245 . S
C400 O408 1.259 . S
C400 O409 1.257 . S
C401 O410 1.268 . S
C401 O411 1.253 . S
C402 O412 1.281 . S
C402 O413 1.252 . S
C403 O414 1.272 . S
C403 O415 1.245 . S
C404 O392 1.259 . S
C404 O393 1.257 . S
C405 O394 1.253 . S
C405 O395 1.268 . S
C406 O396 1.281 . S
C406 O397 1.252 . S
C407 O398 1.272 . S
C407 O399 1.245 . S
O408 Co384 2.053 . S
O408 C400 1.259 . S
O409 Co386 2.047 . S
O409 C400 1.257 . S
O410 Co385 2.063 . S
O410 C401 1.268 . S
O411 Co384 2.094 . S
O411 C401 1.253 . S
O412 Co391 2.115 . S
O412 C402 1.281 . S
O413 Co391 2.315 . S
O413 C402 1.252 . S
O414 Co384 2.122 . S
O414 C403 1.272 . S
O415 Co386 2.113 . S
O415 C403 1.245 . S
Co416 H419 2.400 . S
Co416 O420 2.009 . S
Co416 O428 2.115 . S
Co416 O429 2.315 . S
Co416 O440 2.053 . S
Co416 O443 2.094 . S
Co416 O446 2.122 . S
Co417 O420 2.126 . S
Co417 H421 2.388 . S
Co417 O422 2.053 . S
Co417 O425 2.047 . S
Co417 O431 2.113 . S
Co417 O442 2.063 . S
Co418 H419 2.388 . S
Co418 O420 2.053 . S
Co418 O422 2.126 . S
Co418 O427 2.063 . S
Co418 O441 2.047 . S
Co418 O447 2.113 . S
H419 Co416 2.400 . S
H419 Co418 2.388 . S
H419 O420 0.760 . S
O420 Co416 2.009 . S
O420 Co417 2.126 . S
O420 Co418 2.053 . S
O420 H419 0.760 . S
H421 Co417 2.388 . S
H421 O422 0.760 . S
H421 Co423 2.400 . S
O422 Co417 2.053 . S
O422 Co418 2.126 . S
O422 H421 0.760 . S
O422 Co423 2.009 . S
Co423 H421 2.400 . S
Co423 O422 2.009 . S
Co423 O424 2.053 . S
Co423 O426 2.094 . S
Co423 O430 2.122 . S
Co423 O444 2.115 . S
Co423 O445 2.315 . S
O424 Co423 2.053 . S
O424 C436 1.259 . S
O425 Co417 2.047 . S
O425 C436 1.257 . S
O426 Co423 2.094 . S
O426 C437 1.253 . S
O427 Co418 2.063 . S
O427 C437 1.268 . S
O428 Co416 2.115 . S
O428 C438 1.281 . S
O429 Co416 2.315 . S
O429 C438 1.252 . S
O430 Co423 2.122 . S
O430 C439 1.272 . S
O431 Co417 2.113 . S
O431 C439 1.245 . S
C432 O440 1.259 . S
C432 O441 1.257 . S
C433 O442 1.268 . S
C433 O443 1.253 . S
C434 O444 1.281 . S
C434 O445 1.252 . S
C435 O446 1.272 . S
C435 O447 1.245 . S
C436 O424 1.259 . S
C436 O425 1.257 . S
C437 O426 1.253 . S
C437 O427 1.268 . S
C438 O428 1.281 . S
C438 O429 1.252 . S
C439 O430 1.272 . S
C439 O431 1.245 . S
O440 Co416 2.053 . S
O440 C432 1.259 . S
O441 Co418 2.047 . S
O441 C432 1.257 . S
O442 Co417 2.063 . S
O442 C433 1.268 . S
O443 Co416 2.094 . S
O443 C433 1.253 . S
O444 Co423 2.115 . S
O444 C434 1.281 . S
O445 Co423 2.315 . S
O445 C434 1.252 . S
O446 Co416 2.122 . S
O446 C435 1.272 . S
O447 Co418 2.113 . S
O447 C435 1.245 . S
Co448 H451 2.400 . S
Co448 O452 2.009 . S
Co448 O460 2.115 . S
Co448 O461 2.315 . S
Co448 O472 2.053 . S
Co448 O475 2.094 . S
Co448 O478 2.122 . S
Co449 O452 2.126 . S
Co449 H453 2.388 . S
Co449 O454 2.053 . S
Co449 O457 2.047 . S
Co449 O463 2.113 . S
Co449 O474 2.063 . S
Co450 H451 2.388 . S
Co450 O452 2.053 . S
Co450 O454 2.126 . S
Co450 O459 2.063 . S
Co450 O473 2.047 . S
Co450 O479 2.113 . S
H451 Co448 2.400 . S
H451 Co450 2.388 . S
H451 O452 0.760 . S
O452 Co448 2.009 . S
O452 Co449 2.126 . S
O452 Co450 2.053 . S
O452 H451 0.760 . S
H453 Co449 2.388 . S
H453 O454 0.760 . S
H453 Co455 2.400 . S
O454 Co449 2.053 . S
O454 Co450 2.126 . S
O454 H453 0.760 . S
O454 Co455 2.009 . S
Co455 H453 2.400 . S
Co455 O454 2.009 . S
Co455 O456 2.053 . S
Co455 O458 2.094 . S
Co455 O462 2.122 . S
Co455 O476 2.115 . S
Co455 O477 2.315 . S
O456 Co455 2.053 . S
O456 C468 1.259 . S
O457 Co449 2.047 . S
O457 C468 1.257 . S
O458 Co455 2.094 . S
O458 C469 1.253 . S
O459 Co450 2.063 . S
O459 C469 1.268 . S
O460 Co448 2.115 . S
O460 C470 1.281 . S
O461 Co448 2.315 . S
O461 C470 1.252 . S
O462 Co455 2.122 . S
O462 C471 1.272 . S
O463 Co449 2.113 . S
O463 C471 1.245 . S
C464 O472 1.259 . S
C464 O473 1.257 . S
C465 O474 1.268 . S
C465 O475 1.253 . S
C466 O476 1.281 . S
C466 O477 1.252 . S
C467 O478 1.272 . S
C467 O479 1.245 . S
C468 O456 1.259 . S
C468 O457 1.257 . S
C469 O458 1.253 . S
C469 O459 1.268 . S
C470 O460 1.281 . S
C470 O461 1.252 . S
C471 O462 1.272 . S
C471 O463 1.245 . S
O472 Co448 2.053 . S
O472 C464 1.259 . S
O473 Co450 2.047 . S
O473 C464 1.257 . S
O474 Co449 2.063 . S
O474 C465 1.268 . S
O475 Co448 2.094 . S
O475 C465 1.253 . S
O476 Co455 2.115 . S
O476 C466 1.281 . S
O477 Co455 2.315 . S
O477 C466 1.252 . S
O478 Co448 2.122 . S
O478 C467 1.272 . S
O479 Co450 2.113 . S
O479 C467 1.245 . S
Co480 H483 2.400 . S
Co480 O484 2.009 . S
Co480 O492 2.115 . S
Co480 O493 2.315 . S
Co480 O504 2.053 . S
Co480 O507 2.094 . S
Co480 O510 2.122 . S
Co481 O484 2.126 . S
Co481 H485 2.388 . S
Co481 O486 2.053 . S
Co481 O489 2.047 . S
Co481 O495 2.113 . S
Co481 O506 2.063 . S
Co482 H483 2.388 . S
Co482 O484 2.053 . S
Co482 O486 2.126 . S
Co482 O491 2.063 . S
Co482 O505 2.047 . S
Co482 O511 2.113 . S
H483 Co480 2.400 . S
H483 Co482 2.388 . S
H483 O484 0.760 . S
O484 Co480 2.009 . S
O484 Co481 2.126 . S
O484 Co482 2.053 . S
O484 H483 0.760 . S
H485 Co481 2.388 . S
H485 O486 0.760 . S
H485 Co487 2.400 . S
O486 Co481 2.053 . S
O486 Co482 2.126 . S
O486 H485 0.760 . S
O486 Co487 2.009 . S
Co487 H485 2.400 . S
Co487 O486 2.009 . S
Co487 O488 2.053 1_556 S
Co487 O490 2.094 . S
Co487 O494 2.118 1_556 S
Co487 O508 2.115 1_556 S
Co487 O509 2.315 . S
O488 Co487 2.053 1_554 S
O488 C500 1.259 . S
O489 Co481 2.047 . S
O489 C500 1.257 1_556 S
O490 Co487 2.094 . S
O490 C501 1.253 . S
O491 Co482 2.063 . S
O491 C501 1.268 . S
O492 Co480 2.115 . S
O492 C502 1.281 . S
O493 Co480 2.315 . S
O493 C502 1.252 . S
O494 Co487 2.118 1_554 S
O494 C503 1.273 . S
O495 Co481 2.113 . S
O495 C503 1.245 1_556 S
C496 O504 1.259 . S
C496 O505 1.257 . S
C497 O506 1.268 . S
C497 O507 1.253 . S
C498 O508 1.281 1_556 S
C498 O509 1.252 . S
C499 O510 1.272 . S
C499 O511 1.245 . S
C500 O488 1.259 . S
C500 O489 1.257 1_554 S
C501 O490 1.253 . S
C501 O491 1.268 . S
C502 O492 1.281 . S
C502 O493 1.252 . S
C503 O494 1.273 . S
C503 O495 1.245 1_554 S
O504 Co480 2.053 . S
O504 C496 1.259 . S
O505 Co482 2.047 . S
O505 C496 1.257 . S
O506 Co481 2.063 . S
O506 C497 1.268 . S
O507 Co480 2.094 . S
O507 C497 1.253 . S
O508 Co487 2.115 1_554 S
O508 C498 1.281 1_554 S
O509 Co487 2.315 . S
O509 C498 1.252 . S
O510 Co480 2.122 . S
O510 C499 1.272 . S
O511 Co482 2.113 . S
O511 C499 1.245 . S
Co512 H515 2.400 . S
Co512 O516 2.009 . S
Co512 O524 2.115 . S
Co512 O525 2.315 . S
Co512 O536 2.053 . S
Co512 O539 2.094 . S
Co512 O542 2.122 . S
Co513 O516 2.126 . S
Co513 H517 2.388 . S
Co513 O518 2.053 . S
Co513 O521 2.047 . S
Co513 O527 2.113 . S
Co513 O538 2.063 . S
Co514 H515 2.388 . S
Co514 O516 2.053 . S
Co514 O518 2.126 . S
Co514 O523 2.063 . S
Co514 O537 2.047 . S
Co514 O543 2.113 . S
H515 Co512 2.400 . S
H515 Co514 2.388 . S
H515 O516 0.760 . S
O516 Co512 2.009 . S
O516 Co513 2.126 . S
O516 Co514 2.053 . S
O516 H515 0.760 . S
H517 Co513 2.388 . S
H517 O518 0.760 . S
H517 Co519 2.400 . S
O518 Co513 2.053 . S
O518 Co514 2.126 . S
O518 H517 0.760 . S
O518 Co519 2.009 . S
Co519 H517 2.400 . S
Co519 O518 2.009 . S
Co519 O520 2.053 1_556 S
Co519 O522 2.094 . S
Co519 O526 2.118 1_556 S
Co519 O540 2.115 1_556 S
Co519 O541 2.315 . S
O520 Co519 2.053 1_554 S
O520 C532 1.259 . S
O521 Co513 2.047 . S
O521 C532 1.257 1_556 S
O522 Co519 2.094 . S
O522 C533 1.253 . S
O523 Co514 2.063 . S
O523 C533 1.268 . S
O524 Co512 2.115 . S
O524 C534 1.281 . S
O525 Co512 2.315 . S
O525 C534 1.252 . S
O526 Co519 2.118 1_554 S
O526 C535 1.273 . S
O527 Co513 2.113 . S
O527 C535 1.245 1_556 S
C528 O536 1.259 . S
C528 O537 1.257 . S
C529 O538 1.268 . S
C529 O539 1.253 . S
C530 O540 1.281 1_556 S
C530 O541 1.252 . S
C531 O542 1.272 . S
C531 O543 1.245 . S
C532 O520 1.259 . S
C532 O521 1.257 1_554 S
C533 O522 1.253 . S
C533 O523 1.268 . S
C534 O524 1.281 . S
C534 O525 1.252 . S
C535 O526 1.273 . S
C535 O527 1.245 1_554 S
O536 Co512 2.053 . S
O536 C528 1.259 . S
O537 Co514 2.047 . S
O537 C528 1.257 . S
O538 Co513 2.063 . S
O538 C529 1.268 . S
O539 Co512 2.094 . S
O539 C529 1.253 . S
O540 Co519 2.115 1_554 S
O540 C530 1.281 1_554 S
O541 Co519 2.315 . S
O541 C530 1.252 . S
O542 Co512 2.122 . S
O542 C531 1.272 . S
O543 Co514 2.113 . S
O543 C531 1.245 . S
Co544 H547 2.400 . S
Co544 O548 2.009 . S
Co544 O556 2.115 . S
Co544 O557 2.315 . S
Co544 O568 2.053 . S
Co544 O571 2.094 . S
Co544 O574 2.122 . S
Co545 O548 2.126 . S
Co545 H549 2.388 . S
Co545 O550 2.053 . S
Co545 O553 2.047 . S
Co545 O559 2.113 . S
Co545 O570 2.063 . S
Co546 H547 2.388 . S
Co546 O548 2.053 . S
Co546 O550 2.126 . S
Co546 O555 2.063 . S
Co546 O569 2.047 . S
Co546 O575 2.113 . S
H547 Co544 2.400 . S
H547 Co546 2.388 . S
H547 O548 0.760 . S
O548 Co544 2.009 . S
O548 Co545 2.126 . S
O548 Co546 2.053 . S
O548 H547 0.760 . S
H549 Co545 2.388 . S
H549 O550 0.760 . S
H549 Co551 2.400 . S
O550 Co545 2.053 . S
O550 Co546 2.126 . S
O550 H549 0.760 . S
O550 Co551 2.009 . S
Co551 H549 2.400 . S
Co551 O550 2.009 . S
Co551 O552 2.053 1_556 S
Co551 O554 2.094 . S
Co551 O558 2.118 1_556 S
Co551 O572 2.115 1_556 S
Co551 O573 2.315 . S
O552 Co551 2.053 1_554 S
O552 C564 1.259 . S
O553 Co545 2.047 . S
O553 C564 1.257 1_556 S
O554 Co551 2.094 . S
O554 C565 1.253 . S
O555 Co546 2.063 . S
O555 C565 1.268 . S
O556 Co544 2.115 . S
O556 C566 1.281 . S
O557 Co544 2.315 . S
O557 C566 1.252 . S
O558 Co551 2.118 1_554 S
O558 C567 1.273 . S
O559 Co545 2.113 . S
O559 C567 1.245 1_556 S
C560 O568 1.259 . S
C560 O569 1.257 . S
C561 O570 1.268 . S
C561 O571 1.253 . S
C562 O572 1.281 1_556 S
C562 O573 1.252 . S
C563 O574 1.272 . S
C563 O575 1.245 . S
C564 O552 1.259 . S
C564 O553 1.257 1_554 S
C565 O554 1.253 . S
C565 O555 1.268 . S
C566 O556 1.281 . S
C566 O557 1.252 . S
C567 O558 1.273 . S
C567 O559 1.245 1_554 S
O568 Co544 2.053 . S
O568 C560 1.259 . S
O569 Co546 2.047 . S
O569 C560 1.257 . S
O570 Co545 2.063 . S
O570 C561 1.268 . S
O571 Co544 2.094 . S
O571 C561 1.253 . S
O572 Co551 2.115 1_554 S
O572 C562 1.281 1_554 S
O573 Co551 2.315 . S
O573 C562 1.252 . S
O574 Co544 2.122 . S
O574 C563 1.272 . S
O575 Co546 2.113 . S
O575 C563 1.245 . S
H576 C584 0.929 . S
H577 C586 0.930 . S
H578 C588 0.930 . S
H579 C591 0.929 . S
H580 C594 0.930 . S
H581 C596 0.960 . S
H582 C596 0.960 . S
H583 C596 0.960 . S
C584 H576 0.929 . S
C584 C585 1.377 . S
C584 C586 1.384 . S
C585 C584 1.377 . S
C585 C591 1.390 . S
C586 H577 0.930 . S
C586 C584 1.384 . S
C586 C587 1.372 . S
C587 C586 1.372 . S
C587 C588 1.400 . S
C587 C592 1.490 . S
C588 H578 0.930 . S
C588 C587 1.400 . S
C588 C591 1.386 . S
H589 C605 0.930 . S
H590 C606 0.931 . S
C591 H579 0.929 . S
C591 C585 1.390 . S
C591 C588 1.386 . S
C592 C587 1.490 . S
C592 C594 1.395 . S
C592 C595 1.403 . S
H593 C599 0.930 . S
C594 H580 0.930 . S
C594 C592 1.395 . S
C594 C597 1.403 . S
C595 C592 1.403 . S
C595 C596 1.524 . S
C595 C599 1.400 . S
C596 H581 0.960 . S
C596 H582 0.960 . S
C596 H583 0.960 . S
C596 C595 1.524 . S
C597 C594 1.403 . S
C597 C598 1.392 . S
C597 C601 1.495 . S
C598 C597 1.392 . S
C598 C599 1.385 . S
C598 C600 1.478 . S
C599 H593 0.930 . S
C599 C595 1.400 . S
C599 C598 1.385 . S
C600 C598 1.478 . S
C600 C602 1.381 . S
C600 C606 1.383 . S
C601 C597 1.495 . S
C601 H607 0.959 . S
C601 H608 0.961 . S
C601 H609 0.960 . S
C602 C600 1.381 . S
C602 C603 1.394 . S
C602 H610 0.930 . S
C603 C602 1.394 . S
C603 C604 1.383 . S
C603 H611 0.929 . S
C604 C603 1.383 . S
C604 C605 1.377 . S
C605 H589 0.930 . S
C605 C604 1.377 . S
C605 C606 1.379 . S
C606 H590 0.931 . S
C606 C600 1.383 . S
C606 C605 1.379 . S
H607 C601 0.959 . S
H608 C601 0.961 . S
H609 C601 0.960 . S
H610 C602 0.930 . S
H611 C603 0.929 . S
H612 C620 0.929 . S
H613 C622 0.930 . S
H614 C624 0.930 . S
H615 C627 0.929 . S
H616 C630 0.930 . S
H617 C632 0.960 . S
H618 C632 0.960 . S
H619 C632 0.960 . S
C620 H612 0.929 . S
C620 C621 1.377 . S
C620 C622 1.384 . S
C621 C620 1.377 . S
C621 C627 1.390 . S
C622 H613 0.930 . S
C622 C620 1.384 . S
C622 C623 1.372 . S
C623 C622 1.372 . S
C623 C624 1.400 . S
C623 C628 1.490 . S
C624 H614 0.930 . S
C624 C623 1.400 . S
C624 C627 1.386 . S
H625 C641 0.930 . S
H626 C642 0.931 . S
C627 H615 0.929 . S
C627 C621 1.390 . S
C627 C624 1.386 . S
C628 C623 1.490 . S
C628 C630 1.395 . S
C628 C631 1.403 . S
H629 C635 0.930 . S
C630 H616 0.930 . S
C630 C628 1.395 . S
C630 C633 1.403 . S
C631 C628 1.403 . S
C631 C632 1.524 . S
C631 C635 1.400 . S
C632 H617 0.960 . S
C632 H618 0.960 . S
C632 H619 0.960 . S
C632 C631 1.524 . S
C633 C630 1.403 . S
C633 C634 1.392 . S
C633 C637 1.495 . S
C634 C633 1.392 . S
C634 C635 1.385 . S
C634 C636 1.478 1_545 S
C635 H629 0.930 . S
C635 C631 1.400 . S
C635 C634 1.385 . S
C636 C634 1.478 1_565 S
C636 C638 1.381 . S
C636 C642 1.383 . S
C637 C633 1.495 . S
C637 H643 0.959 . S
C637 H644 0.961 . S
C637 H645 0.960 . S
C638 C636 1.381 . S
C638 C639 1.394 . S
C638 H646 0.930 . S
C639 C638 1.394 . S
C639 C640 1.383 . S
C639 H647 0.929 . S
C640 C639 1.383 . S
C640 C641 1.377 . S
C641 H625 0.930 . S
C641 C640 1.377 . S
C641 C642 1.379 . S
C642 H626 0.931 . S
C642 C636 1.383 . S
C642 C641 1.379 . S
H643 C637 0.959 . S
H644 C637 0.961 . S
H645 C637 0.960 . S
H646 C638 0.930 . S
H647 C639 0.929 . S
H648 C656 0.929 . S
H649 C658 0.930 . S
H650 C660 0.930 . S
H651 C663 0.929 . S
H652 C666 0.930 . S
H653 C668 0.960 . S
H654 C668 0.960 . S
H655 C668 0.960 . S
C656 H648 0.929 . S
C656 C657 1.377 . S
C656 C658 1.384 . S
C657 C656 1.377 . S
C657 C663 1.390 . S
C658 H649 0.930 . S
C658 C656 1.384 . S
C658 C659 1.372 . S
C659 C658 1.372 . S
C659 C660 1.400 . S
C659 C664 1.490 . S
C660 H650 0.930 . S
C660 C659 1.400 . S
C660 C663 1.386 . S
H661 C677 0.930 . S
H662 C678 0.931 . S
C663 H651 0.929 . S
C663 C657 1.390 . S
C663 C660 1.386 . S
C664 C659 1.490 . S
C664 C666 1.395 . S
C664 C667 1.403 . S
H665 C671 0.930 . S
C666 H652 0.930 . S
C666 C664 1.395 . S
C666 C669 1.403 1_655 S
C667 C664 1.403 . S
C667 C668 1.524 . S
C667 C671 1.400 1_655 S
C668 H653 0.960 . S
C668 H654 0.960 . S
C668 H655 0.960 . S
C668 C667 1.524 . S
C669 C666 1.403 1_455 S
C669 C670 1.392 . S
C669 C673 1.495 . S
C670 C669 1.392 . S
C670 C671 1.385 . S
C670 C672 1.478 . S
C671 H665 0.930 . S
C671 C667 1.400 1_455 S
C671 C670 1.385 . S
C672 C670 1.478 . S
C672 C674 1.381 . S
C672 C678 1.383 . S
C673 C669 1.495 . S
C673 H679 0.959 . S
C673 H680 0.961 . S
C673 H681 0.960 . S
C674 C672 1.381 . S
C674 C675 1.394 . S
C674 H682 0.930 . S
C675 C674 1.394 . S
C675 C676 1.383 . S
C675 H683 0.929 . S
C676 C675 1.383 . S
C676 C677 1.377 . S
C677 H661 0.930 . S
C677 C676 1.377 . S
C677 C678 1.379 . S
C678 H662 0.931 . S
C678 C672 1.383 . S
C678 C677 1.379 . S
H679 C673 0.959 . S
H680 C673 0.961 . S
H681 C673 0.960 . S
H682 C674 0.930 . S
H683 C675 0.929 . S
H684 C692 0.929 . S
H685 C694 0.930 . S
H686 C696 0.930 . S
H687 C699 0.929 . S
H688 C702 0.930 . S
H689 C704 0.960 . S
H690 C704 0.960 . S
H691 C704 0.960 . S
C692 H684 0.929 . S
C692 C693 1.377 . S
C692 C694 1.384 . S
C693 C692 1.377 . S
C693 C699 1.390 . S
C694 H685 0.930 . S
C694 C692 1.384 . S
C694 C695 1.372 . S
C695 C694 1.372 . S
C695 C696 1.400 . S
C695 C700 1.490 . S
C696 H686 0.930 . S
C696 C695 1.400 . S
C696 C699 1.386 . S
H697 C713 0.930 . S
H698 C714 0.931 . S
C699 H687 0.929 . S
C699 C693 1.390 . S
C699 C696 1.386 . S
C700 C695 1.490 . S
C700 C702 1.395 . S
C700 C703 1.403 . S
H701 C707 0.930 . S
C702 H688 0.930 . S
C702 C700 1.395 . S
C702 C705 1.403 . S
C703 C700 1.403 . S
C703 C704 1.524 . S
C703 C707 1.400 . S
C704 H689 0.960 . S
C704 H690 0.960 . S
C704 H691 0.960 . S
C704 C703 1.524 . S
C705 C702 1.403 . S
C705 C706 1.392 . S
C705 C709 1.495 . S
C706 C705 1.392 . S
C706 C707 1.385 . S
C706 C708 1.478 . S
C707 H701 0.930 . S
C707 C703 1.400 . S
C707 C706 1.385 . S
C708 C706 1.478 . S
C708 C710 1.381 . S
C708 C714 1.383 . S
C709 C705 1.495 . S
C709 H715 0.959 . S
C709 H716 0.961 . S
C709 H717 0.960 . S
C710 C708 1.381 . S
C710 C711 1.394 1_565 S
C710 H718 0.930 . S
C711 C710 1.394 1_545 S
C711 C712 1.383 1_545 S
C711 H719 0.929 . S
C712 C711 1.383 1_565 S
C712 C713 1.377 . S
C713 H697 0.930 . S
C713 C712 1.377 . S
C713 C714 1.379 . S
C714 H698 0.931 . S
C714 C708 1.383 . S
C714 C713 1.379 . S
H715 C709 0.959 . S
H716 C709 0.961 . S
H717 C709 0.960 . S
H718 C710 0.930 . S
H719 C711 0.929 . S
H720 C728 0.929 . S
H721 C730 0.930 . S
H722 C732 0.930 . S
H723 C735 0.929 . S
H724 C738 0.930 . S
H725 C740 0.960 . S
H726 C740 0.960 . S
H727 C740 0.960 . S
C728 H720 0.929 . S
C728 C729 1.377 . S
C728 C730 1.384 . S
C729 C728 1.377 . S
C729 C735 1.390 . S
C730 H721 0.930 . S
C730 C728 1.384 . S
C730 C731 1.372 . S
C731 C730 1.372 . S
C731 C732 1.400 . S
C731 C736 1.490 . S
C732 H722 0.930 . S
C732 C731 1.400 . S
C732 C735 1.386 . S
H733 C749 0.942 . S
H734 C750 0.931 . S
C735 H723 0.929 . S
C735 C729 1.390 . S
C735 C732 1.386 . S
C736 C731 1.490 . S
C736 C738 1.395 . S
C736 C739 1.403 . S
H737 C743 0.930 . S
C738 H724 0.930 . S
C738 C736 1.395 . S
C738 C741 1.403 1_545 S
C739 C736 1.403 . S
C739 C740 1.524 . S
C739 C743 1.400 1_545 S
C740 H725 0.960 . S
C740 H726 0.960 . S
C740 H727 0.960 . S
C740 C739 1.524 . S
C741 C738 1.403 1_565 S
C741 C742 1.392 . S
C741 C745 1.495 . S
C742 C741 1.392 . S
C742 C743 1.385 . S
C742 C744 1.478 . S
C743 H737 0.930 . S
C743 C739 1.400 1_565 S
C743 C742 1.385 . S
C744 C742 1.478 . S
C744 C746 1.381 . S
C744 C750 1.383 . S
C745 C741 1.495 . S
C745 H751 0.959 . S
C745 H752 0.961 . S
C745 H753 0.960 . S
C746 C744 1.381 . S
C746 C747 1.394 . S
C746 H754 0.930 . S
C747 C746 1.394 . S
C747 C748 1.383 . S
C747 H755 0.929 . S
C748 C747 1.383 . S
C748 C749 1.377 . S
C749 H733 0.942 . S
C749 C748 1.377 . S
C749 C750 1.379 . S
C750 H734 0.931 . S
C750 C744 1.383 . S
C750 C749 1.379 . S
H751 C745 0.959 . S
H752 C745 0.961 . S
H753 C745 0.960 . S
H754 C746 0.930 . S
H755 C747 0.929 . S
H756 C764 0.929 . S
H757 C766 0.930 . S
H758 C768 0.930 . S
H759 C771 0.929 . S
H760 C774 0.930 . S
H761 C776 0.960 . S
H762 C776 0.960 . S
H763 C776 0.960 . S
C764 H756 0.929 . S
C764 C765 1.377 . S
C764 C766 1.384 . S
C765 C764 1.377 . S
C765 C771 1.390 . S
C766 H757 0.930 . S
C766 C764 1.384 . S
C766 C767 1.372 . S
C767 C766 1.372 . S
C767 C768 1.400 . S
C767 C772 1.490 . S
C768 H758 0.930 . S
C768 C767 1.400 . S
C768 C771 1.386 . S
H769 C785 0.930 . S
H770 C786 0.931 . S
C771 H759 0.929 . S
C771 C765 1.390 . S
C771 C768 1.386 . S
C772 C767 1.490 . S
C772 C774 1.395 . S
C772 C775 1.403 . S
H773 C779 0.930 . S
C774 H760 0.930 . S
C774 C772 1.395 . S
C774 C777 1.403 . S
C775 C772 1.403 . S
C775 C776 1.524 . S
C775 C779 1.400 . S
C776 H761 0.960 . S
C776 H762 0.960 . S
C776 H763 0.960 . S
C776 C775 1.524 . S
C777 C774 1.403 . S
C777 C778 1.392 1_455 S
C777 C781 1.495 1_455 S
C778 C777 1.392 1_655 S
C778 C779 1.385 1_655 S
C778 C780 1.478 . S
C779 H773 0.930 . S
C779 C775 1.400 . S
C779 C778 1.385 1_455 S
C780 C778 1.478 . S
C780 C782 1.381 . S
C780 C786 1.383 . S
C781 C777 1.495 1_655 S
C781 H787 0.966 . S
C781 H788 0.961 . S
C781 H789 0.960 . S
C782 C780 1.381 . S
C782 C783 1.394 . S
C782 H790 0.930 . S
C783 C782 1.394 . S
C783 C784 1.383 . S
C783 H791 0.929 . S
C784 C783 1.383 . S
C784 C785 1.377 . S
C785 H769 0.930 . S
C785 C784 1.377 . S
C785 C786 1.379 . S
C786 H770 0.931 . S
C786 C780 1.383 . S
C786 C785 1.379 . S
H787 C781 0.966 . S
H788 C781 0.961 . S
H789 C781 0.960 . S
H790 C782 0.930 . S
H791 C783 0.929 . S
H792 C800 0.929 . S
H793 C802 0.930 . S
H794 C804 0.930 . S
H795 C807 0.929 . S
H796 C810 0.930 . S
H797 C812 0.960 . S
H798 C812 0.960 . S
H799 C812 0.960 . S
C800 H792 0.929 . S
C800 C801 1.377 . S
C800 C802 1.384 . S
C801 C800 1.377 . S
C801 C807 1.390 . S
C802 H793 0.930 . S
C802 C800 1.384 . S
C802 C803 1.372 . S
C803 C802 1.372 . S
C803 C804 1.400 . S
C803 C808 1.490 . S
C804 H794 0.930 . S
C804 C803 1.400 . S
C804 C807 1.386 . S
H805 C821 0.930 . S
H806 C822 0.931 . S
C807 H795 0.929 . S
C807 C801 1.390 . S
C807 C804 1.386 . S
C808 C803 1.490 . S
C808 C810 1.395 . S
C808 C811 1.403 . S
H809 C815 0.930 . S
C810 H796 0.930 . S
C810 C808 1.395 . S
C810 C813 1.403 . S
C811 C808 1.403 . S
C811 C812 1.524 . S
C811 C815 1.400 . S
C812 H797 0.960 . S
C812 H798 0.960 . S
C812 H799 0.960 . S
C812 C811 1.524 . S
C813 C810 1.403 . S
C813 C814 1.392 . S
C813 C817 1.495 . S
C814 C813 1.392 . S
C814 C815 1.385 . S
C814 C816 1.478 . S
C815 H809 0.930 . S
C815 C811 1.400 . S
C815 C814 1.385 . S
C816 C814 1.478 . S
C816 C818 1.381 . S
C816 C822 1.383 . S
C817 C813 1.495 . S
C817 H823 0.959 . S
C817 H824 0.961 . S
C817 H825 0.960 . S
C818 C816 1.381 . S
C818 C819 1.394 1_554 S
C818 H826 0.930 1_554 S
C819 C818 1.394 1_556 S
C819 C820 1.383 1_556 S
C819 H827 0.929 . S
C820 C819 1.383 1_554 S
C820 C821 1.377 . S
C821 H805 0.930 . S
C821 C820 1.377 . S
C821 C822 1.379 . S
C822 H806 0.931 . S
C822 C816 1.383 . S
C822 C821 1.379 . S
H823 C817 0.959 . S
H824 C817 0.961 . S
H825 C817 0.960 . S
H826 C818 0.930 1_556 S
H827 C819 0.929 . S
H828 C836 0.929 . S
H829 C838 0.930 . S
H830 C840 0.930 . S
H831 C843 0.929 . S
H832 C846 0.930 . S
H833 C848 0.960 . S
H834 C848 0.960 . S
H835 C848 0.960 . S
C836 H828 0.929 . S
C836 C837 1.377 . S
C836 C838 1.384 . S
C837 C836 1.377 . S
C837 C843 1.390 . S
C838 H829 0.930 . S
C838 C836 1.384 . S
C838 C839 1.372 . S
C839 C838 1.372 . S
C839 C840 1.400 . S
C839 C844 1.490 . S
C840 H830 0.930 . S
C840 C839 1.400 . S
C840 C843 1.386 . S
H841 C857 0.930 . S
H842 C858 0.931 . S
C843 H831 0.929 . S
C843 C837 1.390 . S
C843 C840 1.386 . S
C844 C839 1.490 . S
C844 C846 1.395 . S
C844 C847 1.403 . S
H845 C851 0.930 . S
C846 H832 0.930 . S
C846 C844 1.395 . S
C846 C849 1.403 . S
C847 C844 1.403 . S
C847 C848 1.524 . S
C847 C851 1.400 . S
C848 H833 0.960 . S
C848 H834 0.960 . S
C848 H835 0.960 . S
C848 C847 1.524 . S
C849 C846 1.403 . S
C849 C850 1.392 . S
C849 C853 1.495 1_554 S
C850 C849 1.392 . S
C850 C851 1.385 . S
C850 C852 1.478 . S
C851 H845 0.930 . S
C851 C847 1.400 . S
C851 C850 1.385 . S
C852 C850 1.478 . S
C852 C854 1.381 . S
C852 C858 1.383 . S
C853 C849 1.495 1_556 S
C853 H859 0.959 . S
C853 H860 0.961 . S
C853 H861 0.960 . S
C854 C852 1.381 . S
C854 C855 1.394 . S
C854 H862 0.930 . S
C855 C854 1.394 . S
C855 C856 1.383 . S
C855 H863 0.929 . S
C856 C855 1.383 . S
C856 C857 1.377 . S
C857 H841 0.930 . S
C857 C856 1.377 . S
C857 C858 1.379 . S
C858 H842 0.931 . S
C858 C852 1.383 . S
C858 C857 1.379 . S
H859 C853 0.959 . S
H860 C853 0.961 . S
H861 C853 0.960 . S
H862 C854 0.930 . S
H863 C855 0.929 . S
H864 C872 0.929 . S
H865 C874 0.930 . S
H866 C876 0.930 1_556 S
H867 C879 0.929 . S
H868 C882 0.930 . S
H869 C884 0.960 . S
H870 C884 0.960 . S
H871 C884 0.960 . S
C872 H864 0.929 . S
C872 C873 1.377 . S
C872 C874 1.384 . S
C873 C872 1.377 . S
C873 C879 1.390 1_554 S
C874 H865 0.930 . S
C874 C872 1.384 . S
C874 C875 1.372 . S
C875 C874 1.372 . S
C875 C876 1.400 . S
C875 C880 1.490 . S
C876 H866 0.930 1_554 S
C876 C875 1.400 . S
C876 C879 1.386 1_554 S
H877 C893 0.930 . S
H878 C894 0.931 . S
C879 H867 0.929 . S
C879 C873 1.390 1_556 S
C879 C876 1.386 1_556 S
C880 C875 1.490 . S
C880 C882 1.395 . S
C880 C883 1.403 . S
H881 C887 0.930 . S
C882 H868 0.930 . S
C882 C880 1.395 . S
C882 C885 1.403 . S
C883 C880 1.403 . S
C883 C884 1.524 . S
C883 C887 1.400 . S
C884 H869 0.960 . S
C884 H870 0.960 . S
C884 H871 0.960 . S
C884 C883 1.524 . S
C885 C882 1.403 . S
C885 C886 1.392 . S
C885 C889 1.495 . S
C886 C885 1.392 . S
C886 C887 1.385 . S
C886 C888 1.478 . S
C887 H881 0.930 . S
C887 C883 1.400 . S
C887 C886 1.385 . S
C888 C886 1.478 . S
C888 C890 1.381 . S
C888 C894 1.383 . S
C889 C885 1.495 . S
C889 H895 0.959 . S
C889 H896 0.961 . S
C889 H897 0.960 . S
C890 C888 1.381 . S
C890 C891 1.394 . S
C890 H898 0.930 . S
C891 C890 1.394 . S
C891 C892 1.383 . S
C891 H899 0.929 . S
C892 C891 1.383 . S
C892 C893 1.377 . S
C893 H877 0.930 . S
C893 C892 1.377 . S
C893 C894 1.379 . S
C894 H878 0.931 . S
C894 C888 1.383 . S
C894 C893 1.379 . S
H895 C889 0.959 . S
H896 C889 0.961 . S
H897 C889 0.960 . S
H898 C890 0.930 . S
H899 C891 0.929 . S
H900 C908 0.929 . S
H901 C910 0.930 . S
H902 C912 0.930 . S
H903 C915 0.929 . S
H904 C918 0.930 . S
H905 C920 0.960 . S
H906 C920 0.960 . S
H907 C920 0.960 . S
C908 H900 0.929 . S
C908 C909 1.377 . S
C908 C910 1.384 . S
C909 C908 1.377 . S
C909 C915 1.390 . S
C910 H901 0.930 . S
C910 C908 1.384 . S
C910 C911 1.372 . S
C911 C910 1.372 . S
C911 C912 1.400 . S
C911 C916 1.490 . S
C912 H902 0.930 . S
C912 C911 1.400 . S
C912 C915 1.386 . S
H913 C929 0.930 . S
H914 C930 0.931 . S
C915 H903 0.929 . S
C915 C909 1.390 . S
C915 C912 1.386 . S
C916 C911 1.490 . S
C916 C918 1.395 . S
C916 C919 1.403 . S
H917 C923 0.930 . S
C918 H904 0.930 . S
C918 C916 1.395 . S
C918 C921 1.403 . S
C919 C916 1.403 . S
C919 C920 1.524 . S
C919 C923 1.400 . S
C920 H905 0.960 . S
C920 H906 0.960 . S
C920 H907 0.960 . S
C920 C919 1.524 . S
C921 C918 1.403 . S
C921 C922 1.392 . S
C921 C925 1.495 . S
C922 C921 1.392 . S
C922 C923 1.385 . S
C922 C924 1.478 . S
C923 H917 0.930 . S
C923 C919 1.400 . S
C923 C922 1.385 . S
C924 C922 1.478 . S
C924 C926 1.381 . S
C924 C930 1.383 . S
C925 C921 1.495 . S
C925 H931 0.959 . S
C925 H932 0.961 . S
C925 H933 0.960 . S
C926 C924 1.381 . S
C926 C927 1.394 . S
C926 H934 0.930 . S
C927 C926 1.394 . S
C927 C928 1.383 . S
C927 H935 0.929 . S
C928 C927 1.383 . S
C928 C929 1.377 . S
C929 H913 0.930 . S
C929 C928 1.377 . S
C929 C930 1.379 . S
C930 H914 0.931 . S
C930 C924 1.383 . S
C930 C929 1.379 . S
H931 C925 0.959 . S
H932 C925 0.961 . S
H933 C925 0.960 . S
H934 C926 0.930 . S
H935 C927 0.929 . S
H936 C944 0.929 . S
H937 C946 0.930 . S
H938 C948 0.930 . S
H939 C951 0.929 . S
H940 C954 0.930 . S
H941 C956 0.960 . S
H942 C956 0.960 . S
H943 C956 0.960 . S
C944 H936 0.929 . S
C944 C945 1.377 . S
C944 C946 1.384 . S
C945 C944 1.377 . S
C945 C951 1.390 . S
C946 H937 0.930 . S
C946 C944 1.384 . S
C946 C947 1.372 . S
C947 C946 1.372 . S
C947 C948 1.400 . S
C947 C952 1.490 . S
C948 H938 0.930 . S
C948 C947 1.400 . S
C948 C951 1.386 . S
H949 C965 0.930 . S
H950 C966 0.931 . S
C951 H939 0.929 . S
C951 C945 1.390 . S
C951 C948 1.386 . S
C952 C947 1.490 . S
C952 C954 1.395 . S
C952 C955 1.403 . S
H953 C959 0.930 . S
C954 H940 0.930 . S
C954 C952 1.395 . S
C954 C957 1.403 . S
C955 C952 1.403 . S
C955 C956 1.524 . S
C955 C959 1.400 . S
C956 H941 0.960 . S
C956 H942 0.960 . S
C956 H943 0.960 . S
C956 C955 1.524 . S
C957 C954 1.403 . S
C957 C958 1.392 . S
C957 C961 1.495 . S
C958 C957 1.392 . S
C958 C959 1.385 . S
C958 C960 1.478 . S
C959 H953 0.930 . S
C959 C955 1.400 . S
C959 C958 1.385 . S
C960 C958 1.478 . S
C960 C962 1.381 . S
C960 C966 1.383 . S
C961 C957 1.495 . S
C961 H967 0.959 . S
C961 H968 0.961 . S
C961 H969 0.960 . S
C962 C960 1.381 . S
C962 C963 1.394 . S
C962 H970 0.930 . S
C963 C962 1.394 . S
C963 C964 1.383 . S
C963 H971 0.929 . S
C964 C963 1.383 . S
C964 C965 1.377 . S
C965 H949 0.930 . S
C965 C964 1.377 . S
C965 C966 1.379 . S
C966 H950 0.931 . S
C966 C960 1.383 . S
C966 C965 1.379 . S
H967 C961 0.959 . S
H968 C961 0.961 . S
H969 C961 0.960 . S
H970 C962 0.930 . S
H971 C963 0.929 . S
H972 C980 0.929 . S
H973 C982 0.930 . S
H974 C984 0.930 . S
H975 C987 0.929 . S
H976 C990 0.930 . S
H977 C992 0.960 . S
H978 C992 0.960 . S
H979 C992 0.960 . S
C980 H972 0.929 . S
C980 C981 1.377 . S
C980 C982 1.384 . S
C981 C980 1.377 . S
C981 C987 1.390 . S
C982 H973 0.930 . S
C982 C980 1.384 . S
C982 C983 1.372 . S
C983 C982 1.372 . S
C983 C984 1.400 . S
C983 C988 1.490 . S
C984 H974 0.930 . S
C984 C983 1.400 . S
C984 C987 1.386 . S
H985 C1001 0.930 . S
H986 C1002 0.931 . S
C987 H975 0.929 . S
C987 C981 1.390 . S
C987 C984 1.386 . S
C988 C983 1.490 . S
C988 C990 1.395 . S
C988 C991 1.403 . S
H989 C995 0.930 . S
C990 H976 0.930 . S
C990 C988 1.395 . S
C990 C993 1.403 . S
C991 C988 1.403 . S
C991 C992 1.524 . S
C991 C995 1.400 . S
C992 H977 0.960 . S
C992 H978 0.960 . S
C992 H979 0.960 . S
C992 C991 1.524 . S
C993 C990 1.403 . S
C993 C994 1.392 . S
C993 C997 1.495 . S
C994 C993 1.392 . S
C994 C995 1.385 . S
C994 C996 1.478 . S
C995 H989 0.930 . S
C995 C991 1.400 . S
C995 C994 1.385 . S
C996 C994 1.478 . S
C996 C998 1.381 . S
C996 C1002 1.383 . S
C997 C993 1.495 . S
C997 H1003 0.959 . S
C997 H1004 0.961 . S
C997 H1005 0.960 . S
C998 C996 1.381 . S
C998 C999 1.394 . S
C998 H1006 0.930 . S
C999 C998 1.394 . S
C999 C1000 1.383 . S
C999 H1007 0.929 . S
C1000 C999 1.383 . S
C1000 C1001 1.377 . S
C1001 H985 0.930 . S
C1001 C1000 1.377 . S
C1001 C1002 1.379 . S
C1002 H986 0.931 . S
C1002 C996 1.383 . S
C1002 C1001 1.379 . S
H1003 C997 0.959 . S
H1004 C997 0.961 . S
H1005 C997 0.960 . S
H1006 C998 0.930 . S
H1007 C999 0.929 . S
H1008 C1016 0.929 . S
H1009 C1018 0.930 . S
H1010 C1020 0.930 . S
H1011 C1023 0.929 . S
H1012 C1026 0.930 . S
H1013 C1028 0.960 . S
H1014 C1028 0.960 . S
H1015 C1028 0.960 . S
C1016 H1008 0.929 . S
C1016 C1017 1.377 . S
C1016 C1018 1.384 . S
C1017 C1016 1.377 . S
C1017 C1023 1.390 . S
C1018 H1009 0.930 . S
C1018 C1016 1.384 . S
C1018 C1019 1.372 . S
C1019 C1018 1.372 . S
C1019 C1020 1.400 . S
C1019 C1024 1.490 . S
C1020 H1010 0.930 . S
C1020 C1019 1.400 . S
C1020 C1023 1.386 . S
H1021 C1037 0.930 . S
H1022 C1038 0.931 . S
C1023 H1011 0.929 . S
C1023 C1017 1.390 . S
C1023 C1020 1.386 . S
C1024 C1019 1.490 . S
C1024 C1026 1.395 . S
C1024 C1027 1.403 . S
H1025 C1031 0.930 . S
C1026 H1012 0.930 . S
C1026 C1024 1.395 . S
C1026 C1029 1.403 . S
C1027 C1024 1.403 . S
C1027 C1028 1.524 . S
C1027 C1031 1.400 . S
C1028 H1013 0.960 . S
C1028 H1014 0.960 . S
C1028 H1015 0.960 . S
C1028 C1027 1.524 . S
C1029 C1026 1.403 . S
C1029 C1030 1.392 . S
C1029 C1033 1.495 . S
C1030 C1029 1.392 . S
C1030 C1031 1.385 . S
C1030 C1032 1.478 . S
C1031 H1025 0.930 . S
C1031 C1027 1.400 . S
C1031 C1030 1.385 . S
C1032 C1030 1.478 . S
C1032 C1034 1.381 . S
C1032 C1038 1.383 . S
C1033 C1029 1.495 . S
C1033 H1039 0.959 . S
C1033 H1040 0.961 . S
C1033 H1041 0.960 . S
C1034 C1032 1.381 . S
C1034 C1035 1.394 . S
C1034 H1042 0.930 . S
C1035 C1034 1.394 . S
C1035 C1036 1.383 . S
C1035 H1043 0.929 . S
C1036 C1035 1.383 . S
C1036 C1037 1.377 . S
C1037 H1021 0.930 . S
C1037 C1036 1.377 . S
C1037 C1038 1.379 . S
C1038 H1022 0.931 . S
C1038 C1032 1.383 . S
C1038 C1037 1.379 . S
H1039 C1033 0.959 . S
H1040 C1033 0.961 . S
H1041 C1033 0.960 . S
H1042 C1034 0.930 . S
H1043 C1035 0.929 . S
H1044 C1052 0.929 . S
H1045 C1054 0.930 . S
H1046 C1056 0.930 . S
H1047 C1059 0.929 . S
H1048 C1062 0.930 . S
H1049 C1064 0.960 . S
H1050 C1064 0.960 . S
H1051 C1064 0.960 . S
C1052 H1044 0.929 . S
C1052 C1053 1.377 . S
C1052 C1054 1.384 . S
C1053 C1052 1.377 . S
C1053 C1059 1.390 . S
C1054 H1045 0.930 . S
C1054 C1052 1.384 . S
C1054 C1055 1.372 . S
C1055 C1054 1.372 . S
C1055 C1056 1.400 . S
C1055 C1060 1.490 . S
C1056 H1046 0.930 . S
C1056 C1055 1.400 . S
C1056 C1059 1.386 . S
H1057 C1073 0.930 . S
H1058 C1074 0.931 . S
C1059 H1047 0.929 . S
C1059 C1053 1.390 . S
C1059 C1056 1.386 . S
C1060 C1055 1.490 . S
C1060 C1062 1.395 . S
C1060 C1063 1.403 . S
H1061 C1067 0.930 . S
C1062 H1048 0.930 . S
C1062 C1060 1.395 . S
C1062 C1065 1.403 . S
C1063 C1060 1.403 . S
C1063 C1064 1.524 . S
C1063 C1067 1.400 . S
C1064 H1049 0.960 . S
C1064 H1050 0.960 . S
C1064 H1051 0.960 . S
C1064 C1063 1.524 . S
C1065 C1062 1.403 . S
C1065 C1066 1.392 . S
C1065 C1069 1.495 . S
C1066 C1065 1.392 . S
C1066 C1067 1.385 . S
C1066 C1068 1.478 . S
C1067 H1061 0.930 . S
C1067 C1063 1.400 . S
C1067 C1066 1.385 . S
C1068 C1066 1.478 . S
C1068 C1070 1.381 . S
C1068 C1074 1.383 . S
C1069 C1065 1.495 . S
C1069 H1075 0.959 . S
C1069 H1076 0.961 . S
C1069 H1077 0.960 . S
C1070 C1068 1.381 . S
C1070 C1071 1.394 . S
C1070 H1078 0.930 . S
C1071 C1070 1.394 . S
C1071 C1072 1.383 . S
C1071 H1079 0.929 . S
C1072 C1071 1.383 . S
C1072 C1073 1.377 . S
C1073 H1057 0.930 . S
C1073 C1072 1.377 . S
C1073 C1074 1.379 . S
C1074 H1058 0.931 . S
C1074 C1068 1.383 . S
C1074 C1073 1.379 . S
H1075 C1069 0.959 . S
H1076 C1069 0.961 . S
H1077 C1069 0.960 . S
H1078 C1070 0.930 . S
H1079 C1071 0.929 . S
H1080 C1088 0.929 . S
H1081 C1090 0.930 . S
H1082 C1092 0.930 . S
H1083 C1095 0.929 . S
H1084 C1098 0.930 . S
H1085 C1100 0.960 . S
H1086 C1100 0.960 . S
H1087 C1100 0.960 . S
C1088 H1080 0.929 . S
C1088 C1089 1.377 . S
C1088 C1090 1.384 . S
C1089 C1088 1.377 . S
C1089 C1095 1.390 . S
C1090 H1081 0.930 . S
C1090 C1088 1.384 . S
C1090 C1091 1.372 . S
C1091 C1090 1.372 . S
C1091 C1092 1.400 . S
C1091 C1096 1.490 . S
C1092 H1082 0.930 . S
C1092 C1091 1.400 . S
C1092 C1095 1.386 . S
H1093 C1109 0.930 . S
H1094 C1110 0.931 . S
C1095 H1083 0.929 . S
C1095 C1089 1.390 . S
C1095 C1092 1.386 . S
C1096 C1091 1.490 . S
C1096 C1098 1.395 . S
C1096 C1099 1.403 . S
H1097 C1103 0.930 . S
C1098 H1084 0.930 . S
C1098 C1096 1.395 . S
C1098 C1101 1.403 . S
C1099 C1096 1.403 . S
C1099 C1100 1.524 . S
C1099 C1103 1.400 . S
C1100 H1085 0.960 . S
C1100 H1086 0.960 . S
C1100 H1087 0.960 . S
C1100 C1099 1.524 . S
C1101 C1098 1.403 . S
C1101 C1102 1.392 . S
C1101 C1105 1.495 . S
C1102 C1101 1.392 . S
C1102 C1103 1.385 . S
C1102 C1104 1.478 . S
C1103 H1097 0.930 . S
C1103 C1099 1.400 . S
C1103 C1102 1.385 . S
C1104 C1102 1.478 . S
C1104 C1106 1.381 . S
C1104 C1110 1.383 . S
C1105 C1101 1.495 . S
C1105 H1111 0.959 . S
C1105 H1112 0.961 . S
C1105 H1113 0.960 . S
C1106 C1104 1.381 . S
C1106 C1107 1.394 . S
C1106 H1114 0.930 . S
C1107 C1106 1.394 . S
C1107 C1108 1.383 . S
C1107 H1115 0.929 . S
C1108 C1107 1.383 . S
C1108 C1109 1.377 . S
C1109 H1093 0.930 . S
C1109 C1108 1.377 . S
C1109 C1110 1.379 . S
C1110 H1094 0.931 . S
C1110 C1104 1.383 . S
C1110 C1109 1.379 . S
H1111 C1105 0.959 . S
H1112 C1105 0.961 . S
H1113 C1105 0.960 . S
H1114 C1106 0.930 . S
H1115 C1107 0.929 . S
H1116 C1124 0.929 . S
H1117 C1126 0.930 . S
H1118 C1128 0.930 1_554 S
H1119 C1131 0.929 . S
H1120 C1134 0.930 . S
H1121 C1136 0.960 1_554 S
H1122 C1136 0.960 . S
H1123 C1136 0.960 1_554 S
C1124 H1116 0.929 . S
C1124 C1125 1.377 . S
C1124 C1126 1.384 . S
C1125 C1124 1.377 . S
C1125 C1131 1.390 1_556 S
C1126 H1117 0.930 . S
C1126 C1124 1.384 . S
C1126 C1127 1.372 . S
C1127 C1126 1.372 . S
C1127 C1128 1.400 . S
C1127 C1132 1.490 . S
C1128 H1118 0.930 1_556 S
C1128 C1127 1.400 . S
C1128 C1131 1.386 1_556 S
H1129 C1145 0.930 . S
H1130 C1146 0.931 . S
C1131 H1119 0.929 . S
C1131 C1125 1.390 1_554 S
C1131 C1128 1.386 1_554 S
C1132 C1127 1.490 . S
C1132 C1134 1.395 . S
C1132 C1135 1.403 . S
H1133 C1139 0.930 . S
C1134 H1120 0.930 . S
C1134 C1132 1.395 . S
C1134 C1137 1.403 . S
C1135 C1132 1.403 . S
C1135 C1136 1.524 . S
C1135 C1139 1.400 . S
C1136 H1121 0.960 1_556 S
C1136 H1122 0.960 . S
C1136 H1123 0.960 1_556 S
C1136 C1135 1.524 . S
C1137 C1134 1.403 . S
C1137 C1138 1.392 . S
C1137 C1141 1.495 . S
C1138 C1137 1.392 . S
C1138 C1139 1.385 . S
C1138 C1140 1.478 . S
C1139 H1133 0.930 . S
C1139 C1135 1.400 . S
C1139 C1138 1.385 . S
C1140 C1138 1.478 . S
C1140 C1142 1.381 . S
C1140 C1146 1.383 . S
C1141 C1137 1.495 . S
C1141 H1147 0.959 . S
C1141 H1148 0.961 . S
C1141 H1149 0.960 . S
C1142 C1140 1.381 . S
C1142 C1143 1.394 . S
C1142 H1150 0.930 . S
C1143 C1142 1.394 . S
C1143 C1144 1.383 . S
C1143 H1151 0.929 . S
C1144 C1143 1.383 . S
C1144 C1145 1.377 . S
C1145 H1129 0.930 . S
C1145 C1144 1.377 . S
C1145 C1146 1.379 . S
C1146 H1130 0.931 . S
C1146 C1140 1.383 . S
C1146 C1145 1.379 . S
H1147 C1141 0.959 . S
H1148 C1141 0.961 . S
H1149 C1141 0.960 . S
H1150 C1142 0.930 . S
H1151 C1143 0.929 . S
H1152 C1160 0.929 . S
H1153 C1162 0.930 . S
H1154 C1164 0.930 . S
H1155 C1167 0.929 . S
H1156 C1170 0.930 . S
H1157 C1172 0.960 . S
H1158 C1172 0.960 . S
H1159 C1172 0.960 . S
C1160 H1152 0.929 . S
C1160 C1161 1.377 . S
C1160 C1162 1.384 . S
C1161 C1160 1.377 . S
C1161 C1167 1.390 . S
C1162 H1153 0.930 . S
C1162 C1160 1.384 . S
C1162 C1163 1.372 . S
C1163 C1162 1.372 . S
C1163 C1164 1.400 . S
C1163 C1168 1.490 . S
C1164 H1154 0.930 . S
C1164 C1163 1.400 . S
C1164 C1167 1.386 . S
H1165 C1181 0.930 . S
H1166 C1182 0.931 . S
C1167 H1155 0.929 . S
C1167 C1161 1.390 . S
C1167 C1164 1.386 . S
C1168 C1163 1.490 . S
C1168 C1170 1.395 . S
C1168 C1171 1.403 . S
H1169 C1175 0.930 . S
C1170 H1156 0.930 . S
C1170 C1168 1.395 . S
C1170 C1173 1.403 . S
C1171 C1168 1.403 . S
C1171 C1172 1.524 . S
C1171 C1175 1.400 . S
C1172 H1157 0.960 . S
C1172 H1158 0.960 . S
C1172 H1159 0.960 . S
C1172 C1171 1.524 . S
C1173 C1170 1.403 . S
C1173 C1174 1.392 . S
C1173 C1177 1.495 . S
C1174 C1173 1.392 . S
C1174 C1175 1.385 . S
C1174 C1176 1.478 . S
C1175 H1169 0.930 . S
C1175 C1171 1.400 . S
C1175 C1174 1.385 . S
C1176 C1174 1.478 . S
C1176 C1178 1.381 . S
C1176 C1182 1.383 . S
C1177 C1173 1.495 . S
C1177 H1183 0.959 . S
C1177 H1184 0.961 . S
C1177 H1185 0.960 . S
C1178 C1176 1.381 . S
C1178 C1179 1.394 . S
C1178 H1186 0.930 . S
C1179 C1178 1.394 . S
C1179 C1180 1.383 . S
C1179 H1187 0.917 1_556 S
C1180 C1179 1.383 . S
C1180 C1181 1.377 . S
C1181 H1165 0.930 . S
C1181 C1180 1.377 . S
C1181 C1182 1.379 . S
C1182 H1166 0.931 . S
C1182 C1176 1.383 . S
C1182 C1181 1.379 . S
H1183 C1177 0.959 . S
H1184 C1177 0.961 . S
H1185 C1177 0.960 . S
H1186 C1178 0.930 . S
H1187 C1179 0.917 1_554 S
H1188 C1196 0.929 . S
H1189 C1198 0.930 . S
H1190 C1200 0.930 . S
H1191 C1203 0.929 . S
H1192 C1206 0.930 . S
H1193 C1208 0.960 . S
H1194 C1208 0.960 . S
H1195 C1208 0.960 . S
C1196 H1188 0.929 . S
C1196 C1197 1.377 . S
C1196 C1198 1.384 . S
C1197 C1196 1.377 . S
C1197 C1203 1.390 . S
C1198 H1189 0.930 . S
C1198 C1196 1.384 . S
C1198 C1199 1.372 . S
C1199 C1198 1.372 . S
C1199 C1200 1.400 . S
C1199 C1204 1.490 . S
C1200 H1190 0.930 . S
C1200 C1199 1.400 . S
C1200 C1203 1.386 . S
H1201 C1217 0.930 . S
H1202 C1218 0.931 . S
C1203 H1191 0.929 . S
C1203 C1197 1.390 . S
C1203 C1200 1.386 . S
C1204 C1199 1.490 . S
C1204 C1206 1.395 . S
C1204 C1207 1.403 . S
H1205 C1211 0.930 . S
C1206 H1192 0.930 . S
C1206 C1204 1.395 . S
C1206 C1209 1.403 . S
C1207 C1204 1.403 . S
C1207 C1208 1.524 . S
C1207 C1211 1.400 . S
C1208 H1193 0.960 . S
C1208 H1194 0.960 . S
C1208 H1195 0.960 . S
C1208 C1207 1.524 . S
C1209 C1206 1.403 . S
C1209 C1210 1.392 . S
C1209 C1213 1.495 . S
C1210 C1209 1.392 . S
C1210 C1211 1.385 . S
C1210 C1212 1.478 . S
C1211 H1205 0.930 . S
C1211 C1207 1.400 . S
C1211 C1210 1.385 . S
C1212 C1210 1.478 . S
C1212 C1214 1.393 . S
C1212 C1218 1.383 . S
C1213 C1209 1.495 . S
C1213 H1219 0.956 1_556 S
C1213 H1220 0.961 . S
C1213 H1221 0.960 1_556 S
C1214 C1212 1.393 . S
C1214 C1215 1.391 1_556 S
C1214 H1222 0.921 1_556 S
C1215 C1214 1.391 1_554 S
C1215 C1216 1.383 1_554 S
C1215 H1223 0.929 . S
C1216 C1215 1.383 1_556 S
C1216 C1217 1.377 . S
C1217 H1201 0.930 . S
C1217 C1216 1.377 . S
C1217 C1218 1.379 . S
C1218 H1202 0.931 . S
C1218 C1212 1.383 . S
C1218 C1217 1.379 . S
H1219 C1213 0.956 1_554 S
H1220 C1213 0.961 . S
H1221 C1213 0.960 1_554 S
H1222 C1214 0.921 1_554 S
H1223 C1215 0.929 . S
H1224 C1232 0.929 . S
H1225 C1234 0.930 . S
H1226 C1236 0.930 . S
H1227 C1239 0.929 . S
H1228 C1242 0.930 . S
H1229 C1244 0.960 . S
H1230 C1244 0.960 . S
H1231 C1244 0.960 . S
C1232 H1224 0.929 . S
C1232 C1233 1.377 . S
C1232 C1234 1.384 . S
C1233 C1232 1.377 . S
C1233 C1239 1.390 . S
C1234 H1225 0.930 . S
C1234 C1232 1.384 . S
C1234 C1235 1.372 . S
C1235 C1234 1.372 . S
C1235 C1236 1.400 . S
C1235 C1240 1.490 . S
C1236 H1226 0.930 . S
C1236 C1235 1.400 . S
C1236 C1239 1.386 . S
H1237 C1253 0.930 . S
H1238 C1254 0.931 . S
C1239 H1227 0.929 . S
C1239 C1233 1.390 . S
C1239 C1236 1.386 . S
C1240 C1235 1.490 . S
C1240 C1242 1.395 . S
C1240 C1243 1.403 . S
H1241 C1247 0.930 . S
C1242 H1228 0.930 . S
C1242 C1240 1.395 . S
C1242 C1245 1.403 . S
C1243 C1240 1.403 . S
C1243 C1244 1.524 . S
C1243 C1247 1.400 . S
C1244 H1229 0.960 . S
C1244 H1230 0.960 . S
C1244 H1231 0.960 . S
C1244 C1243 1.524 . S
C1245 C1242 1.403 . S
C1245 C1246 1.392 . S
C1245 C1249 1.495 . S
C1246 C1245 1.392 . S
C1246 C1247 1.385 . S
C1246 C1248 1.478 . S
C1247 H1241 0.930 . S
C1247 C1243 1.400 . S
C1247 C1246 1.385 . S
C1248 C1246 1.478 . S
C1248 C1250 1.381 . S
C1248 C1254 1.383 . S
C1249 C1245 1.495 . S
C1249 H1255 0.959 . S
C1249 H1256 0.961 . S
C1249 H1257 0.960 . S
C1250 C1248 1.381 . S
C1250 C1251 1.394 . S
C1250 H1258 0.930 . S
C1251 C1250 1.394 . S
C1251 C1252 1.383 . S
C1251 H1259 0.929 . S
C1252 C1251 1.383 . S
C1252 C1253 1.377 . S
C1253 H1237 0.930 . S
C1253 C1252 1.377 . S
C1253 C1254 1.379 . S
C1254 H1238 0.931 . S
C1254 C1248 1.383 . S
C1254 C1253 1.379 . S
H1255 C1249 0.959 . S
H1256 C1249 0.961 . S
H1257 C1249 0.960 . S
H1258 C1250 0.930 . S
H1259 C1251 0.929 . S
H1260 C1268 0.929 . S
H1261 C1270 0.930 . S
H1262 C1272 0.930 . S
H1263 C1275 0.929 . S
H1264 C1278 0.930 . S
H1265 C1280 0.960 . S
H1266 C1280 0.960 . S
H1267 C1280 0.960 . S
C1268 H1260 0.929 . S
C1268 C1269 1.377 . S
C1268 C1270 1.384 . S
C1269 C1268 1.377 . S
C1269 C1275 1.390 . S
C1270 H1261 0.930 . S
C1270 C1268 1.384 . S
C1270 C1271 1.372 . S
C1271 C1270 1.372 . S
C1271 C1272 1.400 . S
C1271 C1276 1.490 . S
C1272 H1262 0.930 . S
C1272 C1271 1.400 . S
C1272 C1275 1.386 . S
H1273 C1289 0.930 . S
H1274 C1290 0.931 . S
C1275 H1263 0.929 . S
C1275 C1269 1.390 . S
C1275 C1272 1.386 . S
C1276 C1271 1.490 . S
C1276 C1278 1.395 . S
C1276 C1279 1.403 . S
H1277 C1283 0.930 . S
C1278 H1264 0.930 . S
C1278 C1276 1.395 . S
C1278 C1281 1.403 . S
C1279 C1276 1.403 . S
C1279 C1280 1.524 . S
C1279 C1283 1.400 . S
C1280 H1265 0.960 . S
C1280 H1266 0.960 . S
C1280 H1267 0.960 . S
C1280 C1279 1.524 . S
C1281 C1278 1.403 . S
C1281 C1282 1.392 . S
C1281 C1285 1.495 . S
C1282 C1281 1.392 . S
C1282 C1283 1.385 . S
C1282 C1284 1.478 . S
C1283 H1277 0.930 . S
C1283 C1279 1.400 . S
C1283 C1282 1.385 . S
C1284 C1282 1.478 . S
C1284 C1286 1.381 . S
C1284 C1290 1.383 . S
C1285 C1281 1.495 . S
C1285 H1291 0.959 . S
C1285 H1292 0.961 . S
C1285 H1293 0.960 . S
C1286 C1284 1.381 . S
C1286 C1287 1.394 . S
C1286 H1294 0.930 . S
C1287 C1286 1.394 . S
C1287 C1288 1.383 . S
C1287 H1295 0.929 . S
C1288 C1287 1.383 . S
C1288 C1289 1.377 . S
C1289 H1273 0.930 . S
C1289 C1288 1.377 . S
C1289 C1290 1.379 . S
C1290 H1274 0.931 . S
C1290 C1284 1.383 . S
C1290 C1289 1.379 . S
H1291 C1285 0.959 . S
H1292 C1285 0.961 . S
H1293 C1285 0.960 . S
H1294 C1286 0.930 . S
H1295 C1287 0.929 . S
H1296 C1304 0.929 . S
H1297 C1306 0.930 . S
H1298 C1308 0.930 . S
H1299 C1311 0.929 . S
H1300 C1314 0.930 . S
H1301 C1316 0.960 . S
H1302 C1316 0.960 . S
H1303 C1316 0.960 . S
C1304 H1296 0.929 . S
C1304 C1305 1.377 . S
C1304 C1306 1.384 . S
C1305 C1304 1.377 . S
C1305 C1311 1.390 . S
C1306 H1297 0.930 . S
C1306 C1304 1.384 . S
C1306 C1307 1.372 . S
C1307 C1306 1.372 . S
C1307 C1308 1.400 . S
C1307 C1312 1.490 . S
C1308 H1298 0.930 . S
C1308 C1307 1.400 . S
C1308 C1311 1.386 . S
H1309 C1325 0.930 . S
H1310 C1326 0.931 . S
C1311 H1299 0.929 . S
C1311 C1305 1.390 . S
C1311 C1308 1.386 . S
C1312 C1307 1.490 . S
C1312 C1314 1.395 . S
C1312 C1315 1.403 . S
H1313 C1319 0.930 . S
C1314 H1300 0.930 . S
C1314 C1312 1.395 . S
C1314 C1317 1.403 . S
C1315 C1312 1.403 . S
C1315 C1316 1.524 . S
C1315 C1319 1.400 . S
C1316 H1301 0.960 . S
C1316 H1302 0.960 . S
C1316 H1303 0.960 . S
C1316 C1315 1.524 . S
C1317 C1314 1.403 . S
C1317 C1318 1.392 . S
C1317 C1321 1.495 . S
C1318 C1317 1.392 . S
C1318 C1319 1.385 . S
C1318 C1320 1.478 . S
C1319 H1313 0.930 . S
C1319 C1315 1.400 . S
C1319 C1318 1.385 . S
C1320 C1318 1.478 . S
C1320 C1322 1.381 . S
C1320 C1326 1.383 . S
C1321 C1317 1.495 . S
C1321 H1327 0.959 . S
C1321 H1328 0.961 . S
C1321 H1329 0.960 . S
C1322 C1320 1.381 . S
C1322 C1323 1.394 . S
C1322 H1330 0.930 . S
C1323 C1322 1.394 . S
C1323 C1324 1.383 . S
C1323 H1331 0.929 . S
C1324 C1323 1.383 . S
C1324 C1325 1.377 . S
C1325 H1309 0.930 . S
C1325 C1324 1.377 . S
C1325 C1326 1.379 . S
C1326 H1310 0.931 . S
C1326 C1320 1.383 . S
C1326 C1325 1.379 . S
H1327 C1321 0.959 . S
H1328 C1321 0.961 . S
H1329 C1321 0.960 . S
H1330 C1322 0.930 . S
H1331 C1323 0.929 . S
H1332 C1340 0.929 . S
H1333 C1342 0.930 . S
H1334 C1344 0.930 . S
H1335 C1347 0.929 . S
H1336 C1350 0.930 . S
H1337 C1352 0.960 . S
H1338 C1352 0.960 . S
H1339 C1352 0.960 . S
C1340 H1332 0.929 . S
C1340 C1341 1.377 . S
C1340 C1342 1.384 . S
C1341 C1340 1.377 . S
C1341 C1347 1.390 . S
C1342 H1333 0.930 . S
C1342 C1340 1.384 . S
C1342 C1343 1.372 . S
C1343 C1342 1.372 . S
C1343 C1344 1.400 . S
C1343 C1348 1.490 . S
C1344 H1334 0.930 . S
C1344 C1343 1.400 . S
C1344 C1347 1.386 . S
H1345 C1361 0.930 . S
H1346 C1362 0.931 . S
C1347 H1335 0.929 . S
C1347 C1341 1.390 . S
C1347 C1344 1.386 . S
C1348 C1343 1.490 . S
C1348 C1350 1.395 1_556 S
C1348 C1351 1.403 . S
H1349 C1355 0.930 . S
C1350 H1336 0.930 . S
C1350 C1348 1.395 1_554 S
C1350 C1353 1.403 . S
C1351 C1348 1.403 . S
C1351 C1352 1.524 . S
C1351 C1355 1.400 . S
C1352 H1337 0.960 . S
C1352 H1338 0.960 . S
C1352 H1339 0.960 . S
C1352 C1351 1.524 . S
C1353 C1350 1.403 . S
C1353 C1354 1.392 . S
C1353 C1357 1.495 . S
C1354 C1353 1.392 . S
C1354 C1355 1.385 1_554 S
C1354 C1356 1.478 . S
C1355 H1349 0.930 . S
C1355 C1351 1.400 . S
C1355 C1354 1.385 1_556 S
C1356 C1354 1.478 . S
C1356 C1358 1.381 . S
C1356 C1362 1.383 . S
C1357 C1353 1.495 . S
C1357 H1363 0.959 . S
C1357 H1364 0.961 . S
C1357 H1365 0.960 . S
C1358 C1356 1.381 . S
C1358 C1359 1.394 . S
C1358 H1366 0.930 . S
C1359 C1358 1.394 . S
C1359 C1360 1.383 . S
C1359 H1367 0.929 . S
C1360 C1359 1.383 . S
C1360 C1361 1.377 . S
C1361 H1345 0.930 . S
C1361 C1360 1.377 . S
C1361 C1362 1.379 . S
C1362 H1346 0.931 . S
C1362 C1356 1.383 . S
C1362 C1361 1.379 . S
H1363 C1357 0.959 . S
H1364 C1357 0.961 . S
H1365 C1357 0.960 . S
H1366 C1358 0.930 . S
H1367 C1359 0.929 . S
H1368 C1376 0.929 . S
H1369 C1378 0.930 . S
H1370 C1380 0.930 . S
H1371 C1383 0.929 . S
H1372 C1386 0.930 . S
H1373 C1388 0.958 . S
H1374 C1388 0.962 1_554 S
H1375 C1388 0.960 . S
C1376 H1368 0.929 . S
C1376 C1377 1.377 . S
C1376 C1378 1.384 . S
C1377 C1376 1.377 . S
C1377 C1383 1.390 . S
C1378 H1369 0.930 . S
C1378 C1376 1.384 . S
C1378 C1379 1.372 . S
C1379 C1378 1.372 . S
C1379 C1380 1.400 . S
C1379 C1384 1.490 . S
C1380 H1370 0.930 . S
C1380 C1379 1.400 . S
C1380 C1383 1.386 . S
H1381 C1397 0.930 . S
H1382 C1398 0.931 . S
C1383 H1371 0.929 . S
C1383 C1377 1.390 . S
C1383 C1380 1.386 . S
C1384 C1379 1.490 . S
C1384 C1386 1.395 . S
C1384 C1387 1.397 1_554 S
H1385 C1391 0.930 . S
C1386 H1372 0.930 . S
C1386 C1384 1.395 . S
C1386 C1389 1.403 1_554 S
C1387 C1384 1.397 1_556 S
C1387 C1388 1.524 . S
C1387 C1391 1.405 . S
C1388 H1373 0.958 . S
C1388 H1374 0.962 1_556 S
C1388 H1375 0.960 . S
C1388 C1387 1.524 . S
C1389 C1386 1.403 1_556 S
C1389 C1390 1.392 . S
C1389 C1393 1.495 . S
C1390 C1389 1.392 . S
C1390 C1391 1.385 . S
C1390 C1392 1.478 . S
C1391 H1385 0.930 . S
C1391 C1387 1.405 . S
C1391 C1390 1.385 . S
C1392 C1390 1.478 . S
C1392 C1394 1.381 . S
C1392 C1398 1.383 . S
C1393 C1389 1.495 . S
C1393 H1399 0.959 1_556 S
C1393 H1400 0.961 . S
C1393 H1401 0.961 . S
C1394 C1392 1.381 . S
C1394 C1395 1.394 . S
C1394 H1402 0.930 . S
C1395 C1394 1.394 . S
C1395 C1396 1.383 . S
C1395 H1403 0.929 . S
C1396 C1395 1.383 . S
C1396 C1397 1.377 . S
C1397 H1381 0.930 . S
C1397 C1396 1.377 . S
C1397 C1398 1.379 . S
C1398 H1382 0.931 . S
C1398 C1392 1.383 . S
C1398 C1397 1.379 . S
H1399 C1393 0.959 1_554 S
H1400 C1393 0.961 . S
H1401 C1393 0.961 . S
H1402 C1394 0.930 . S
H1403 C1395 0.929 . S
H1404 C1412 0.929 . S
H1405 C1414 0.930 . S
H1406 C1416 0.930 . S
H1407 C1419 0.929 . S
H1408 C1422 0.930 . S
H1409 C1424 0.960 . S
H1410 C1424 0.960 . S
H1411 C1424 0.960 . S
C1412 H1404 0.929 . S
C1412 C1413 1.377 . S
C1412 C1414 1.384 . S
C1413 C1412 1.377 . S
C1413 C1419 1.390 . S
C1414 H1405 0.930 . S
C1414 C1412 1.384 . S
C1414 C1415 1.372 . S
C1415 C1414 1.372 . S
C1415 C1416 1.400 . S
C1415 C1420 1.490 . S
C1416 H1406 0.930 . S
C1416 C1415 1.400 . S
C1416 C1419 1.386 . S
H1417 C1433 0.930 . S
H1418 C1434 0.931 . S
C1419 H1407 0.929 . S
C1419 C1413 1.390 . S
C1419 C1416 1.386 . S
C1420 C1415 1.490 . S
C1420 C1422 1.395 1_556 S
C1420 C1423 1.403 . S
H1421 C1427 0.930 . S
C1422 H1408 0.930 . S
C1422 C1420 1.395 1_554 S
C1422 C1425 1.403 . S
C1423 C1420 1.403 . S
C1423 C1424 1.524 . S
C1423 C1427 1.400 . S
C1424 H1409 0.960 . S
C1424 H1410 0.960 . S
C1424 H1411 0.960 . S
C1424 C1423 1.524 . S
C1425 C1422 1.403 . S
C1425 C1426 1.392 . S
C1425 C1429 1.495 . S
C1426 C1425 1.392 . S
C1426 C1427 1.385 1_554 S
C1426 C1428 1.478 . S
C1427 H1421 0.930 . S
C1427 C1423 1.400 . S
C1427 C1426 1.385 1_556 S
C1428 C1426 1.478 . S
C1428 C1430 1.381 . S
C1428 C1434 1.383 . S
C1429 C1425 1.495 . S
C1429 H1435 0.959 . S
C1429 H1436 0.961 . S
C1429 H1437 0.960 . S
C1430 C1428 1.381 . S
C1430 C1431 1.394 . S
C1430 H1438 0.930 . S
C1431 C1430 1.394 . S
C1431 C1432 1.383 . S
C1431 H1439 0.929 . S
C1432 C1431 1.383 . S
C1432 C1433 1.377 . S
C1433 H1417 0.930 . S
C1433 C1432 1.377 . S
C1433 C1434 1.379 . S
C1434 H1418 0.931 . S
C1434 C1428 1.383 . S
C1434 C1433 1.379 . S
H1435 C1429 0.959 . S
H1436 C1429 0.961 . S
H1437 C1429 0.960 . S
H1438 C1430 0.930 . S
H1439 C1431 0.929 . S
H1440 C1448 0.929 . S
H1441 C1450 0.930 . S
H1442 C1452 0.930 . S
H1443 C1455 0.929 . S
H1444 C1458 0.930 . S
H1445 C1460 0.960 . S
H1446 C1460 0.960 . S
H1447 C1460 0.960 . S
C1448 H1440 0.929 . S
C1448 C1449 1.377 . S
C1448 C1450 1.384 . S
C1449 C1448 1.377 . S
C1449 C1455 1.390 . S
C1450 H1441 0.930 . S
C1450 C1448 1.384 . S
C1450 C1451 1.372 . S
C1451 C1450 1.372 . S
C1451 C1452 1.400 . S
C1451 C1456 1.490 . S
C1452 H1442 0.930 . S
C1452 C1451 1.400 . S
C1452 C1455 1.386 . S
H1453 C1469 0.930 . S
H1454 C1470 0.931 . S
C1455 H1443 0.929 . S
C1455 C1449 1.390 . S
C1455 C1452 1.386 . S
C1456 C1451 1.490 . S
C1456 C1458 1.395 . S
C1456 C1459 1.403 . S
H1457 C1463 0.930 . S
C1458 H1444 0.930 . S
C1458 C1456 1.395 . S
C1458 C1461 1.403 . S
C1459 C1456 1.403 . S
C1459 C1460 1.524 . S
C1459 C1463 1.400 . S
C1460 H1445 0.960 . S
C1460 H1446 0.960 . S
C1460 H1447 0.960 . S
C1460 C1459 1.524 . S
C1461 C1458 1.403 . S
C1461 C1462 1.392 . S
C1461 C1465 1.495 . S
C1462 C1461 1.392 . S
C1462 C1463 1.385 . S
C1462 C1464 1.478 . S
C1463 H1457 0.930 . S
C1463 C1459 1.400 . S
C1463 C1462 1.385 . S
C1464 C1462 1.478 . S
C1464 C1466 1.381 . S
C1464 C1470 1.383 . S
C1465 C1461 1.495 . S
C1465 H1471 0.959 . S
C1465 H1472 0.961 . S
C1465 H1473 0.960 . S
C1466 C1464 1.381 . S
C1466 C1467 1.394 . S
C1466 H1474 0.930 . S
C1467 C1466 1.394 . S
C1467 C1468 1.383 . S
C1467 H1475 0.929 . S
C1468 C1467 1.383 . S
C1468 C1469 1.377 . S
C1469 H1453 0.930 . S
C1469 C1468 1.377 . S
C1469 C1470 1.379 . S
C1470 H1454 0.931 . S
C1470 C1464 1.383 . S
C1470 C1469 1.379 . S
H1471 C1465 0.959 . S
H1472 C1465 0.961 . S
H1473 C1465 0.960 . S
H1474 C1466 0.930 . S
H1475 C1467 0.929 . S
H1476 C1484 0.929 . S
H1477 C1486 0.930 . S
H1478 C1488 0.930 . S
H1479 C1491 0.929 . S
H1480 C1494 0.930 . S
H1481 C1496 0.960 . S
H1482 C1496 0.960 . S
H1483 C1496 0.960 . S
C1484 H1476 0.929 . S
C1484 C1485 1.377 . S
C1484 C1486 1.384 . S
C1485 C1484 1.377 . S
C1485 C1491 1.390 . S
C1486 H1477 0.930 . S
C1486 C1484 1.384 . S
C1486 C1487 1.372 . S
C1487 C1486 1.372 . S
C1487 C1488 1.400 . S
C1487 C1492 1.490 . S
C1488 H1478 0.930 . S
C1488 C1487 1.400 . S
C1488 C1491 1.386 . S
H1489 C1505 0.930 . S
H1490 C1506 0.931 . S
C1491 H1479 0.929 . S
C1491 C1485 1.390 . S
C1491 C1488 1.386 . S
C1492 C1487 1.490 . S
C1492 C1494 1.395 . S
C1492 C1495 1.403 . S
H1493 C1499 0.930 . S
C1494 H1480 0.930 . S
C1494 C1492 1.395 . S
C1494 C1497 1.403 . S
C1495 C1492 1.403 . S
C1495 C1496 1.524 . S
C1495 C1499 1.400 . S
C1496 H1481 0.960 . S
C1496 H1482 0.960 . S
C1496 H1483 0.960 . S
C1496 C1495 1.524 . S
C1497 C1494 1.403 . S
C1497 C1498 1.392 . S
C1497 C1501 1.495 . S
C1498 C1497 1.392 . S
C1498 C1499 1.385 . S
C1498 C1500 1.478 . S
C1499 H1493 0.930 . S
C1499 C1495 1.400 . S
C1499 C1498 1.385 . S
C1500 C1498 1.478 . S
C1500 C1502 1.381 . S
C1500 C1506 1.383 . S
C1501 C1497 1.495 . S
C1501 H1507 0.959 . S
C1501 H1508 0.961 . S
C1501 H1509 0.960 . S
C1502 C1500 1.381 . S
C1502 C1503 1.394 . S
C1502 H1510 0.930 . S
C1503 C1502 1.394 . S
C1503 C1504 1.383 . S
C1503 H1511 0.929 . S
C1504 C1503 1.383 . S
C1504 C1505 1.377 . S
C1505 H1489 0.930 . S
C1505 C1504 1.377 . S
C1505 C1506 1.379 . S
C1506 H1490 0.931 . S
C1506 C1500 1.383 . S
C1506 C1505 1.379 . S
H1507 C1501 0.959 . S
H1508 C1501 0.961 . S
H1509 C1501 0.960 . S
H1510 C1502 0.930 . S
H1511 C1503 0.929 . S
H1512 C1520 0.929 . S
H1513 C1522 0.930 . S
H1514 C1524 0.930 . S
H1515 C1527 0.929 . S
H1516 C1530 0.930 . S
H1517 C1532 0.960 . S
H1518 C1532 0.960 . S
H1519 C1532 0.960 . S
C1520 H1512 0.929 . S
C1520 C1521 1.377 . S
C1520 C1522 1.384 . S
C1521 C1520 1.377 . S
C1521 C1527 1.390 . S
C1522 H1513 0.930 . S
C1522 C1520 1.384 . S
C1522 C1523 1.372 . S
C1523 C1522 1.372 . S
C1523 C1524 1.400 . S
C1523 C1528 1.490 . S
C1524 H1514 0.930 . S
C1524 C1523 1.400 . S
C1524 C1527 1.386 . S
H1525 C1541 0.930 . S
H1526 C1542 0.931 . S
C1527 H1515 0.929 . S
C1527 C1521 1.390 . S
C1527 C1524 1.386 . S
C1528 C1523 1.490 . S
C1528 C1530 1.395 . S
C1528 C1531 1.403 . S
H1529 C1535 0.930 . S
C1530 H1516 0.930 . S
C1530 C1528 1.395 . S
C1530 C1533 1.403 . S
C1531 C1528 1.403 . S
C1531 C1532 1.524 . S
C1531 C1535 1.400 . S
C1532 H1517 0.960 . S
C1532 H1518 0.960 . S
C1532 H1519 0.960 . S
C1532 C1531 1.524 . S
C1533 C1530 1.403 . S
C1533 C1534 1.392 . S
C1533 C1537 1.495 . S
C1534 C1533 1.392 . S
C1534 C1535 1.385 . S
C1534 C1536 1.478 . S
C1535 H1529 0.930 . S
C1535 C1531 1.400 . S
C1535 C1534 1.385 . S
C1536 C1534 1.478 . S
C1536 C1538 1.381 . S
C1536 C1542 1.383 . S
C1537 C1533 1.495 . S
C1537 H1543 0.959 . S
C1537 H1544 0.961 . S
C1537 H1545 0.960 . S
C1538 C1536 1.381 . S
C1538 C1539 1.394 . S
C1538 H1546 0.930 . S
C1539 C1538 1.394 . S
C1539 C1540 1.383 . S
C1539 H1547 0.929 . S
C1540 C1539 1.383 . S
C1540 C1541 1.377 . S
C1541 H1525 0.930 . S
C1541 C1540 1.377 . S
C1541 C1542 1.379 . S
C1542 H1526 0.931 . S
C1542 C1536 1.383 . S
C1542 C1541 1.379 . S
H1543 C1537 0.959 . S
H1544 C1537 0.961 . S
H1545 C1537 0.960 . S
H1546 C1538 0.930 . S
H1547 C1539 0.929 . S
H1548 C1556 0.929 . S
H1549 C1558 0.930 . S
H1550 C1560 0.930 . S
H1551 C1563 0.929 . S
H1552 C1566 0.930 . S
H1553 C1568 0.960 . S
H1554 C1568 0.960 . S
H1555 C1568 0.960 . S
C1556 H1548 0.929 . S
C1556 C1557 1.377 . S
C1556 C1558 1.384 . S
C1557 C1556 1.377 . S
C1557 C1563 1.390 . S
C1558 H1549 0.930 . S
C1558 C1556 1.384 . S
C1558 C1559 1.372 . S
C1559 C1558 1.372 . S
C1559 C1560 1.400 . S
C1559 C1564 1.490 . S
C1560 H1550 0.930 . S
C1560 C1559 1.400 . S
C1560 C1563 1.386 . S
H1561 C1577 0.930 . S
H1562 C1578 0.931 . S
C1563 H1551 0.929 . S
C1563 C1557 1.390 . S
C1563 C1560 1.386 . S
C1564 C1559 1.490 . S
C1564 C1566 1.395 . S
C1564 C1567 1.403 . S
H1565 C1571 0.930 . S
C1566 H1552 0.930 . S
C1566 C1564 1.395 . S
C1566 C1569 1.403 1_554 S
C1567 C1564 1.403 . S
C1567 C1568 1.524 . S
C1567 C1571 1.400 1_554 S
C1568 H1553 0.960 . S
C1568 H1554 0.960 . S
C1568 H1555 0.960 . S
C1568 C1567 1.524 . S
C1569 C1566 1.403 1_556 S
C1569 C1570 1.392 . S
C1569 C1573 1.495 . S
C1570 C1569 1.392 . S
C1570 C1571 1.385 . S
C1570 C1572 1.478 . S
C1571 H1565 0.930 . S
C1571 C1567 1.400 1_556 S
C1571 C1570 1.385 . S
C1572 C1570 1.478 . S
C1572 C1574 1.381 . S
C1572 C1578 1.383 . S
C1573 C1569 1.495 . S
C1573 H1579 0.959 . S
C1573 H1580 0.961 . S
C1573 H1581 0.960 . S
C1574 C1572 1.381 . S
C1574 C1575 1.394 . S
C1574 H1582 0.930 . S
C1575 C1574 1.394 . S
C1575 C1576 1.383 . S
C1575 H1583 0.929 . S
C1576 C1575 1.383 . S
C1576 C1577 1.377 . S
C1577 H1561 0.930 . S
C1577 C1576 1.377 . S
C1577 C1578 1.379 . S
C1578 H1562 0.931 . S
C1578 C1572 1.383 . S
C1578 C1577 1.379 . S
H1579 C1573 0.959 . S
H1580 C1573 0.961 . S
H1581 C1573 0.960 . S
H1582 C1574 0.930 . S
H1583 C1575 0.929 . S
H1584 C1592 0.929 . S
H1585 C1594 0.930 . S
H1586 C1596 0.930 . S
H1587 C1599 0.929 . S
H1588 C1602 0.930 1_556 S
H1589 C1604 0.960 . S
H1590 C1604 0.960 . S
H1591 C1604 0.960 . S
C1592 H1584 0.929 . S
C1592 C1593 1.377 . S
C1592 C1594 1.384 . S
C1593 C1592 1.377 . S
C1593 C1599 1.390 . S
C1594 H1585 0.930 . S
C1594 C1592 1.384 . S
C1594 C1595 1.372 . S
C1595 C1594 1.372 . S
C1595 C1596 1.400 . S
C1595 C1600 1.490 . S
C1596 H1586 0.930 . S
C1596 C1595 1.400 . S
C1596 C1599 1.386 . S
H1597 C1613 0.930 . S
H1598 C1614 0.931 . S
C1599 H1587 0.929 . S
C1599 C1593 1.390 . S
C1599 C1596 1.386 . S
C1600 C1595 1.490 . S
C1600 C1602 1.393 . S
C1600 C1603 1.403 . S
H1601 C1607 0.930 . S
C1602 H1588 0.930 1_554 S
C1602 C1600 1.393 . S
C1602 C1605 1.404 1_554 S
C1603 C1600 1.403 . S
C1603 C1604 1.524 . S
C1603 C1607 1.400 . S
C1604 H1589 0.960 . S
C1604 H1590 0.960 . S
C1604 H1591 0.960 . S
C1604 C1603 1.524 . S
C1605 C1602 1.404 1_556 S
C1605 C1606 1.392 . S
C1605 C1609 1.495 . S
C1606 C1605 1.392 . S
C1606 C1607 1.385 1_556 S
C1606 C1608 1.478 . S
C1607 H1601 0.930 . S
C1607 C1603 1.400 . S
C1607 C1606 1.385 1_554 S
C1608 C1606 1.478 . S
C1608 C1610 1.381 . S
C1608 C1614 1.383 . S
C1609 C1605 1.495 . S
C1609 H1615 0.959 . S
C1609 H1616 0.961 . S
C1609 H1617 0.960 . S
C1610 C1608 1.381 . S
C1610 C1611 1.394 . S
C1610 H1618 0.930 . S
C1611 C1610 1.394 . S
C1611 C1612 1.383 . S
C1611 H1619 0.929 . S
C1612 C1611 1.383 . S
C1612 C1613 1.377 . S
C1613 H1597 0.930 . S
C1613 C1612 1.377 . S
C1613 C1614 1.379 . S
C1614 H1598 0.931 . S
C1614 C1608 1.383 . S
C1614 C1613 1.379 . S
H1615 C1609 0.959 . S
H1616 C1609 0.961 . S
H1617 C1609 0.960 . S
H1618 C1610 0.930 . S
H1619 C1611 0.929 . S
H1620 C1628 0.929 . S
H1621 C1630 0.930 . S
H1622 C1632 0.930 . S
H1623 C1635 0.929 . S
H1624 C1638 0.930 . S
H1625 C1640 0.960 . S
H1626 C1640 0.960 . S
H1627 C1640 0.960 . S
C1628 H1620 0.929 . S
C1628 C1629 1.377 . S
C1628 C1630 1.384 . S
C1629 C1628 1.377 . S
C1629 C1635 1.390 . S
C1630 H1621 0.930 . S
C1630 C1628 1.384 . S
C1630 C1631 1.372 . S
C1631 C1630 1.372 . S
C1631 C1632 1.400 . S
C1631 C1636 1.490 . S
C1632 H1622 0.930 . S
C1632 C1631 1.400 . S
C1632 C1635 1.386 . S
H1633 C1649 0.930 . S
H1634 C1650 0.931 . S
C1635 H1623 0.929 . S
C1635 C1629 1.390 . S
C1635 C1632 1.386 . S
C1636 C1631 1.490 . S
C1636 C1638 1.395 1_556 S
C1636 C1639 1.403 . S
H1637 C1643 0.930 . S
C1638 H1624 0.930 . S
C1638 C1636 1.395 1_554 S
C1638 C1641 1.403 . S
C1639 C1636 1.403 . S
C1639 C1640 1.524 . S
C1639 C1643 1.400 1_556 S
C1640 H1625 0.960 . S
C1640 H1626 0.960 . S
C1640 H1627 0.960 . S
C1640 C1639 1.524 . S
C1641 C1638 1.403 . S
C1641 C1642 1.392 . S
C1641 C1645 1.495 . S
C1642 C1641 1.392 . S
C1642 C1643 1.385 . S
C1642 C1644 1.478 . S
C1643 H1637 0.930 . S
C1643 C1639 1.400 1_554 S
C1643 C1642 1.385 . S
C1644 C1642 1.478 . S
C1644 C1646 1.381 . S
C1644 C1650 1.383 . S
C1645 C1641 1.495 . S
C1645 H1651 0.959 . S
C1645 H1652 0.961 . S
C1645 H1653 0.960 . S
C1646 C1644 1.381 . S
C1646 C1647 1.394 . S
C1646 H1654 0.930 . S
C1647 C1646 1.394 . S
C1647 C1648 1.383 . S
C1647 H1655 0.929 . S
C1648 C1647 1.383 . S
C1648 C1649 1.377 . S
C1649 H1633 0.930 . S
C1649 C1648 1.377 . S
C1649 C1650 1.379 . S
C1650 H1634 0.931 . S
C1650 C1644 1.383 . S
C1650 C1649 1.379 . S
H1651 C1645 0.959 . S
H1652 C1645 0.961 . S
H1653 C1645 0.960 . S
H1654 C1646 0.930 . S
H1655 C1647 0.929 . S
H1656 C1664 0.929 . S
H1657 C1666 0.930 . S
H1658 C1668 0.930 . S
H1659 C1671 0.929 . S
H1660 C1674 0.930 . S
H1661 C1676 0.960 . S
H1662 C1676 0.960 . S
H1663 C1676 0.960 . S
C1664 H1656 0.929 . S
C1664 C1665 1.377 . S
C1664 C1666 1.384 . S
C1665 C1664 1.377 . S
C1665 C1671 1.390 . S
C1666 H1657 0.930 . S
C1666 C1664 1.384 . S
C1666 C1667 1.372 . S
C1667 C1666 1.372 . S
C1667 C1668 1.400 . S
C1667 C1672 1.490 . S
C1668 H1658 0.930 . S
C1668 C1667 1.400 . S
C1668 C1671 1.386 . S
H1669 C1685 0.930 . S
H1670 C1686 0.931 . S
C1671 H1659 0.929 . S
C1671 C1665 1.390 . S
C1671 C1668 1.386 . S
C1672 C1667 1.490 . S
C1672 C1674 1.395 . S
C1672 C1675 1.403 . S
H1673 C1679 0.930 . S
C1674 H1660 0.930 . S
C1674 C1672 1.395 . S
C1674 C1677 1.403 . S
C1675 C1672 1.403 . S
C1675 C1676 1.524 . S
C1675 C1679 1.400 . S
C1676 H1661 0.960 . S
C1676 H1662 0.960 . S
C1676 H1663 0.960 . S
C1676 C1675 1.524 . S
C1677 C1674 1.403 . S
C1677 C1678 1.392 . S
C1677 C1681 1.495 . S
C1678 C1677 1.392 . S
C1678 C1679 1.385 . S
C1678 C1680 1.478 . S
C1679 H1673 0.930 . S
C1679 C1675 1.400 . S
C1679 C1678 1.385 . S
C1680 C1678 1.478 . S
C1680 C1682 1.381 . S
C1680 C1686 1.383 . S
C1681 C1677 1.495 . S
C1681 H1687 0.959 . S
C1681 H1688 0.961 . S
C1681 H1689 0.960 . S
C1682 C1680 1.381 . S
C1682 C1683 1.394 . S
C1682 H1690 0.930 . S
C1683 C1682 1.394 . S
C1683 C1684 1.383 . S
C1683 H1691 0.929 . S
C1684 C1683 1.383 . S
C1684 C1685 1.377 . S
C1685 H1669 0.930 . S
C1685 C1684 1.377 . S
C1685 C1686 1.379 . S
C1686 H1670 0.931 . S
C1686 C1680 1.383 . S
C1686 C1685 1.379 . S
H1687 C1681 0.959 . S
H1688 C1681 0.961 . S
H1689 C1681 0.960 . S
H1690 C1682 0.930 . S
H1691 C1683 0.929 . S
H1692 C1700 0.929 . S
H1693 C1702 0.930 . S
H1694 C1704 0.930 . S
H1695 C1707 0.929 . S
H1696 C1710 0.930 . S
H1697 C1712 0.960 . S
H1698 C1712 0.960 . S
H1699 C1712 0.960 . S
C1700 H1692 0.929 . S
C1700 C1701 1.377 . S
C1700 C1702 1.384 . S
C1701 C1700 1.377 . S
C1701 C1707 1.390 . S
C1702 H1693 0.930 . S
C1702 C1700 1.384 . S
C1702 C1703 1.372 . S
C1703 C1702 1.372 . S
C1703 C1704 1.400 . S
C1703 C1708 1.490 . S
C1704 H1694 0.930 . S
C1704 C1703 1.400 . S
C1704 C1707 1.386 . S
H1705 C1721 0.930 . S
H1706 C1722 0.931 . S
C1707 H1695 0.929 . S
C1707 C1701 1.390 . S
C1707 C1704 1.386 . S
C1708 C1703 1.490 . S
C1708 C1710 1.395 . S
C1708 C1711 1.403 . S
H1709 C1715 0.930 . S
C1710 H1696 0.930 . S
C1710 C1708 1.395 . S
C1710 C1713 1.403 . S
C1711 C1708 1.403 . S
C1711 C1712 1.524 . S
C1711 C1715 1.400 . S
C1712 H1697 0.960 . S
C1712 H1698 0.960 . S
C1712 H1699 0.960 . S
C1712 C1711 1.524 . S
C1713 C1710 1.403 . S
C1713 C1714 1.392 . S
C1713 C1717 1.495 . S
C1714 C1713 1.392 . S
C1714 C1715 1.385 . S
C1714 C1716 1.478 . S
C1715 H1709 0.930 . S
C1715 C1711 1.400 . S
C1715 C1714 1.385 . S
C1716 C1714 1.478 . S
C1716 C1718 1.381 . S
C1716 C1722 1.383 . S
C1717 C1713 1.495 . S
C1717 H1723 0.959 . S
C1717 H1724 0.961 . S
C1717 H1725 0.960 . S
C1718 C1716 1.381 . S
C1718 C1719 1.394 . S
C1718 H1726 0.930 . S
C1719 C1718 1.394 . S
C1719 C1720 1.383 . S
C1719 H1727 0.929 . S
C1720 C1719 1.383 . S
C1720 C1721 1.377 . S
C1721 H1705 0.930 . S
C1721 C1720 1.377 . S
C1721 C1722 1.379 . S
C1722 H1706 0.931 . S
C1722 C1716 1.383 . S
C1722 C1721 1.379 . S
H1723 C1717 0.959 . S
H1724 C1717 0.961 . S
H1725 C1717 0.960 . S
H1726 C1718 0.930 . S
H1727 C1719 0.929 . S
H1728 C1736 0.929 . S
H1729 C1738 0.930 . S
H1730 C1740 0.930 . S
H1731 C1743 0.929 . S
H1732 C1746 0.930 . S
H1733 C1748 0.960 . S
H1734 C1748 0.960 . S
H1735 C1748 0.960 . S
C1736 H1728 0.929 . S
C1736 C1737 1.377 . S
C1736 C1738 1.384 . S
C1737 C1736 1.377 . S
C1737 C1743 1.390 . S
C1738 H1729 0.930 . S
C1738 C1736 1.384 . S
C1738 C1739 1.372 . S
C1739 C1738 1.372 . S
C1739 C1740 1.400 . S
C1739 C1744 1.490 . S
C1740 H1730 0.930 . S
C1740 C1739 1.400 . S
C1740 C1743 1.386 . S
H1741 C1757 0.930 . S
H1742 C1758 0.931 . S
C1743 H1731 0.929 . S
C1743 C1737 1.390 . S
C1743 C1740 1.386 . S
C1744 C1739 1.490 . S
C1744 C1746 1.395 . S
C1744 C1747 1.403 . S
H1745 C1751 0.930 . S
C1746 H1732 0.930 . S
C1746 C1744 1.395 . S
C1746 C1749 1.403 . S
C1747 C1744 1.403 . S
C1747 C1748 1.524 . S
C1747 C1751 1.400 . S
C1748 H1733 0.960 . S
C1748 H1734 0.960 . S
C1748 H1735 0.960 . S
C1748 C1747 1.524 . S
C1749 C1746 1.403 . S
C1749 C1750 1.392 . S
C1749 C1753 1.495 . S
C1750 C1749 1.392 . S
C1750 C1751 1.385 . S
C1750 C1752 1.478 . S
C1751 H1745 0.930 . S
C1751 C1747 1.400 . S
C1751 C1750 1.385 . S
C1752 C1750 1.478 . S
C1752 C1754 1.381 . S
C1752 C1758 1.383 . S
C1753 C1749 1.495 . S
C1753 H1759 0.959 . S
C1753 H1760 0.961 . S
C1753 H1761 0.960 . S
C1754 C1752 1.381 . S
C1754 C1755 1.394 . S
C1754 H1762 0.930 . S
C1755 C1754 1.394 . S
C1755 C1756 1.383 . S
C1755 H1763 0.929 . S
C1756 C1755 1.383 . S
C1756 C1757 1.377 . S
C1757 H1741 0.930 . S
C1757 C1756 1.377 . S
C1757 C1758 1.379 . S
C1758 H1742 0.931 . S
C1758 C1752 1.383 . S
C1758 C1757 1.379 . S
H1759 C1753 0.959 . S
H1760 C1753 0.961 . S
H1761 C1753 0.960 . S
H1762 C1754 0.930 . S
H1763 C1755 0.929 . S
H1764 C1772 0.929 . S
H1765 C1774 0.930 . S
H1766 C1776 0.930 . S
H1767 C1779 0.929 . S
H1768 C1782 0.930 . S
H1769 C1784 0.960 . S
H1770 C1784 0.960 . S
H1771 C1784 0.960 . S
C1772 H1764 0.929 . S
C1772 C1773 1.377 . S
C1772 C1774 1.384 . S
C1773 C1772 1.377 . S
C1773 C1779 1.390 . S
C1774 H1765 0.930 . S
C1774 C1772 1.384 . S
C1774 C1775 1.372 . S
C1775 C1774 1.372 . S
C1775 C1776 1.400 . S
C1775 C1780 1.490 . S
C1776 H1766 0.930 . S
C1776 C1775 1.400 . S
C1776 C1779 1.386 . S
H1777 C1793 0.930 . S
H1778 C1794 0.931 . S
C1779 H1767 0.929 . S
C1779 C1773 1.390 . S
C1779 C1776 1.386 . S
C1780 C1775 1.490 . S
C1780 C1782 1.395 . S
C1780 C1783 1.403 . S
H1781 C1787 0.930 . S
C1782 H1768 0.930 . S
C1782 C1780 1.395 . S
C1782 C1785 1.403 . S
C1783 C1780 1.403 . S
C1783 C1784 1.524 . S
C1783 C1787 1.400 . S
C1784 H1769 0.960 . S
C1784 H1770 0.960 . S
C1784 H1771 0.960 . S
C1784 C1783 1.524 . S
C1785 C1782 1.403 . S
C1785 C1786 1.392 . S
C1785 C1789 1.495 . S
C1786 C1785 1.392 . S
C1786 C1787 1.385 . S
C1786 C1788 1.478 . S
C1787 H1781 0.930 . S
C1787 C1783 1.400 . S
C1787 C1786 1.385 . S
C1788 C1786 1.478 . S
C1788 C1790 1.381 . S
C1788 C1794 1.383 . S
C1789 C1785 1.495 . S
C1789 H1795 0.959 . S
C1789 H1796 0.961 . S
C1789 H1797 0.960 . S
C1790 C1788 1.381 . S
C1790 C1791 1.394 . S
C1790 H1798 0.930 . S
C1791 C1790 1.394 . S
C1791 C1792 1.383 . S
C1791 H1799 0.929 . S
C1792 C1791 1.383 . S
C1792 C1793 1.377 . S
C1793 H1777 0.930 . S
C1793 C1792 1.377 . S
C1793 C1794 1.379 . S
C1794 H1778 0.931 . S
C1794 C1788 1.383 . S
C1794 C1793 1.379 . S
H1795 C1789 0.959 . S
H1796 C1789 0.961 . S
H1797 C1789 0.960 . S
H1798 C1790 0.930 . S
H1799 C1791 0.929 . S
H1800 C1808 0.929 . S
H1801 C1810 0.930 . S
H1802 C1812 0.930 . S
H1803 C1815 0.929 . S
H1804 C1818 0.930 . S
H1805 C1820 0.960 . S
H1806 C1820 0.960 . S
H1807 C1820 0.960 . S
C1808 H1800 0.929 . S
C1808 C1809 1.377 . S
C1808 C1810 1.384 . S
C1809 C1808 1.377 . S
C1809 C1815 1.390 . S
C1810 H1801 0.930 . S
C1810 C1808 1.384 . S
C1810 C1811 1.372 . S
C1811 C1810 1.372 . S
C1811 C1812 1.400 . S
C1811 C1816 1.490 . S
C1812 H1802 0.930 . S
C1812 C1811 1.400 . S
C1812 C1815 1.386 . S
H1813 C1829 0.930 . S
H1814 C1830 0.931 . S
C1815 H1803 0.929 . S
C1815 C1809 1.390 . S
C1815 C1812 1.386 . S
C1816 C1811 1.490 . S
C1816 C1818 1.395 . S
C1816 C1819 1.403 . S
H1817 C1823 0.930 . S
C1818 H1804 0.930 . S
C1818 C1816 1.395 . S
C1818 C1821 1.403 . S
C1819 C1816 1.403 . S
C1819 C1820 1.524 . S
C1819 C1823 1.400 . S
C1820 H1805 0.960 . S
C1820 H1806 0.960 . S
C1820 H1807 0.960 . S
C1820 C1819 1.524 . S
C1821 C1818 1.403 . S
C1821 C1822 1.392 . S
C1821 C1825 1.495 . S
C1822 C1821 1.392 . S
C1822 C1823 1.385 . S
C1822 C1824 1.478 . S
C1823 H1817 0.930 . S
C1823 C1819 1.400 . S
C1823 C1822 1.385 . S
C1824 C1822 1.478 . S
C1824 C1826 1.381 . S
C1824 C1830 1.383 . S
C1825 C1821 1.495 . S
C1825 H1831 0.959 . S
C1825 H1832 0.961 . S
C1825 H1833 0.960 . S
C1826 C1824 1.381 . S
C1826 C1827 1.394 . S
C1826 H1834 0.930 . S
C1827 C1826 1.394 . S
C1827 C1828 1.383 . S
C1827 H1835 0.929 . S
C1828 C1827 1.383 . S
C1828 C1829 1.377 . S
C1829 H1813 0.930 . S
C1829 C1828 1.377 . S
C1829 C1830 1.379 . S
C1830 H1814 0.931 . S
C1830 C1824 1.383 . S
C1830 C1829 1.379 . S
H1831 C1825 0.959 . S
H1832 C1825 0.961 . S
H1833 C1825 0.960 . S
H1834 C1826 0.930 . S
H1835 C1827 0.929 . S
H1836 C1844 0.929 . S
H1837 C1846 0.930 . S
H1838 C1848 0.930 . S
H1839 C1851 0.929 . S
H1840 C1854 0.930 . S
H1841 C1856 0.960 . S
H1842 C1856 0.960 . S
H1843 C1856 0.960 . S
C1844 H1836 0.929 . S
C1844 C1845 1.377 . S
C1844 C1846 1.384 . S
C1845 C1844 1.377 . S
C1845 C1851 1.390 . S
C1846 H1837 0.930 . S
C1846 C1844 1.384 . S
C1846 C1847 1.372 . S
C1847 C1846 1.372 . S
C1847 C1848 1.400 . S
C1847 C1852 1.490 . S
C1848 H1838 0.930 . S
C1848 C1847 1.400 . S
C1848 C1851 1.386 . S
H1849 C1865 0.930 . S
H1850 C1866 0.931 . S
C1851 H1839 0.929 . S
C1851 C1845 1.390 . S
C1851 C1848 1.386 . S
C1852 C1847 1.490 . S
C1852 C1854 1.395 . S
C1852 C1855 1.403 . S
H1853 C1859 0.930 . S
C1854 H1840 0.930 . S
C1854 C1852 1.395 . S
C1854 C1857 1.403 . S
C1855 C1852 1.403 . S
C1855 C1856 1.524 . S
C1855 C1859 1.400 . S
C1856 H1841 0.960 . S
C1856 H1842 0.960 . S
C1856 H1843 0.960 . S
C1856 C1855 1.524 . S
C1857 C1854 1.403 . S
C1857 C1858 1.392 . S
C1857 C1861 1.495 . S
C1858 C1857 1.392 . S
C1858 C1859 1.385 . S
C1858 C1860 1.478 . S
C1859 H1853 0.930 . S
C1859 C1855 1.400 . S
C1859 C1858 1.385 . S
C1860 C1858 1.478 . S
C1860 C1862 1.381 . S
C1860 C1866 1.383 . S
C1861 C1857 1.495 . S
C1861 H1867 0.959 . S
C1861 H1868 0.961 . S
C1861 H1869 0.960 . S
C1862 C1860 1.381 . S
C1862 C1863 1.394 . S
C1862 H1870 0.930 . S
C1863 C1862 1.394 . S
C1863 C1864 1.383 . S
C1863 H1871 0.929 . S
C1864 C1863 1.383 . S
C1864 C1865 1.377 . S
C1865 H1849 0.930 . S
C1865 C1864 1.377 . S
C1865 C1866 1.379 . S
C1866 H1850 0.931 . S
C1866 C1860 1.383 . S
C1866 C1865 1.379 . S
H1867 C1861 0.959 . S
H1868 C1861 0.961 . S
H1869 C1861 0.960 . S
H1870 C1862 0.930 . S
H1871 C1863 0.929 . S
H1872 C1880 0.929 . S
H1873 C1882 0.930 . S
H1874 C1884 0.930 . S
H1875 C1887 0.929 . S
H1876 C1890 0.930 . S
H1877 C1892 0.960 . S
H1878 C1892 0.960 . S
H1879 C1892 0.960 . S
C1880 H1872 0.929 . S
C1880 C1881 1.377 . S
C1880 C1882 1.384 . S
C1881 C1880 1.377 . S
C1881 C1887 1.390 . S
C1882 H1873 0.930 . S
C1882 C1880 1.384 . S
C1882 C1883 1.372 . S
C1883 C1882 1.372 . S
C1883 C1884 1.400 . S
C1883 C1888 1.490 . S
C1884 H1874 0.930 . S
C1884 C1883 1.400 . S
C1884 C1887 1.386 . S
H1885 C1901 0.930 . S
H1886 C1902 0.931 . S
C1887 H1875 0.929 . S
C1887 C1881 1.390 . S
C1887 C1884 1.386 . S
C1888 C1883 1.490 . S
C1888 C1890 1.395 . S
C1888 C1891 1.403 . S
H1889 C1895 0.930 . S
C1890 H1876 0.930 . S
C1890 C1888 1.395 . S
C1890 C1893 1.403 . S
C1891 C1888 1.403 . S
C1891 C1892 1.524 . S
C1891 C1895 1.400 . S
C1892 H1877 0.960 . S
C1892 H1878 0.960 . S
C1892 H1879 0.960 . S
C1892 C1891 1.524 . S
C1893 C1890 1.403 . S
C1893 C1894 1.392 . S
C1893 C1897 1.495 . S
C1894 C1893 1.392 . S
C1894 C1895 1.385 . S
C1894 C1896 1.478 . S
C1895 H1889 0.930 . S
C1895 C1891 1.400 . S
C1895 C1894 1.385 . S
C1896 C1894 1.478 . S
C1896 C1898 1.381 . S
C1896 C1902 1.383 . S
C1897 C1893 1.495 . S
C1897 H1903 0.959 . S
C1897 H1904 0.961 . S
C1897 H1905 0.960 . S
C1898 C1896 1.381 . S
C1898 C1899 1.394 . S
C1898 H1906 0.930 . S
C1899 C1898 1.394 . S
C1899 C1900 1.383 . S
C1899 H1907 0.929 . S
C1900 C1899 1.383 . S
C1900 C1901 1.377 . S
C1901 H1885 0.930 . S
C1901 C1900 1.377 . S
C1901 C1902 1.379 . S
C1902 H1886 0.931 . S
C1902 C1896 1.383 . S
C1902 C1901 1.379 . S
H1903 C1897 0.959 . S
H1904 C1897 0.961 . S
H1905 C1897 0.960 . S
H1906 C1898 0.930 . S
H1907 C1899 0.929 . S
H1908 C1916 0.929 . S
H1909 C1918 0.930 . S
H1910 C1920 0.930 . S
H1911 C1923 0.929 . S
H1912 C1926 0.930 . S
H1913 C1928 0.960 . S
H1914 C1928 0.960 . S
H1915 C1928 0.960 . S
C1916 H1908 0.929 . S
C1916 C1917 1.377 . S
C1916 C1918 1.384 . S
C1917 C1916 1.377 . S
C1917 C1923 1.390 . S
C1918 H1909 0.930 . S
C1918 C1916 1.384 . S
C1918 C1919 1.372 . S
C1919 C1918 1.372 . S
C1919 C1920 1.400 . S
C1919 C1924 1.490 . S
C1920 H1910 0.930 . S
C1920 C1919 1.400 . S
C1920 C1923 1.386 . S
H1921 C1937 0.930 . S
H1922 C1938 0.931 . S
C1923 H1911 0.929 . S
C1923 C1917 1.390 . S
C1923 C1920 1.386 . S
C1924 C1919 1.490 . S
C1924 C1926 1.395 . S
C1924 C1927 1.403 . S
H1925 C1931 0.930 . S
C1926 H1912 0.930 . S
C1926 C1924 1.395 . S
C1926 C1929 1.403 . S
C1927 C1924 1.403 . S
C1927 C1928 1.524 . S
C1927 C1931 1.400 . S
C1928 H1913 0.960 . S
C1928 H1914 0.960 . S
C1928 H1915 0.960 . S
C1928 C1927 1.524 . S
C1929 C1926 1.403 . S
C1929 C1930 1.392 . S
C1929 C1933 1.495 . S
C1930 C1929 1.392 . S
C1930 C1931 1.385 . S
C1930 C1932 1.478 . S
C1931 H1925 0.930 . S
C1931 C1927 1.400 . S
C1931 C1930 1.385 . S
C1932 C1930 1.478 . S
C1932 C1934 1.381 . S
C1932 C1938 1.383 . S
C1933 C1929 1.495 . S
C1933 H1939 0.959 . S
C1933 H1940 0.961 . S
C1933 H1941 0.960 . S
C1934 C1932 1.381 . S
C1934 C1935 1.394 . S
C1934 H1942 0.930 . S
C1935 C1934 1.394 . S
C1935 C1936 1.383 . S
C1935 H1943 0.929 . S
C1936 C1935 1.383 . S
C1936 C1937 1.377 . S
C1937 H1921 0.930 . S
C1937 C1936 1.377 . S
C1937 C1938 1.379 . S
C1938 H1922 0.931 . S
C1938 C1932 1.383 . S
C1938 C1937 1.379 . S
H1939 C1933 0.959 . S
H1940 C1933 0.961 . S
H1941 C1933 0.960 . S
H1942 C1934 0.930 . S
H1943 C1935 0.929 . S
H1944 C1952 0.929 . S
H1945 C1954 0.930 . S
H1946 C1956 0.930 . S
H1947 C1959 0.929 . S
H1948 C1962 0.930 . S
H1949 C1964 0.960 . S
H1950 C1964 0.960 . S
H1951 C1964 0.960 . S
C1952 H1944 0.929 . S
C1952 C1953 1.377 . S
C1952 C1954 1.384 . S
C1953 C1952 1.377 . S
C1953 C1959 1.390 . S
C1954 H1945 0.930 . S
C1954 C1952 1.384 . S
C1954 C1955 1.372 . S
C1955 C1954 1.372 . S
C1955 C1956 1.400 . S
C1955 C1960 1.490 . S
C1956 H1946 0.930 . S
C1956 C1955 1.400 . S
C1956 C1959 1.386 . S
H1957 C1973 0.930 . S
H1958 C1974 0.931 . S
C1959 H1947 0.929 . S
C1959 C1953 1.390 . S
C1959 C1956 1.386 . S
C1960 C1955 1.490 . S
C1960 C1962 1.395 . S
C1960 C1963 1.403 . S
H1961 C1967 0.930 . S
C1962 H1948 0.930 . S
C1962 C1960 1.395 . S
C1962 C1965 1.403 . S
C1963 C1960 1.403 . S
C1963 C1964 1.524 . S
C1963 C1967 1.400 . S
C1964 H1949 0.960 . S
C1964 H1950 0.960 . S
C1964 H1951 0.960 . S
C1964 C1963 1.524 . S
C1965 C1962 1.403 . S
C1965 C1966 1.392 . S
C1965 C1969 1.495 . S
C1966 C1965 1.392 . S
C1966 C1967 1.385 . S
C1966 C1968 1.478 . S
C1967 H1961 0.930 . S
C1967 C1963 1.400 . S
C1967 C1966 1.385 . S
C1968 C1966 1.478 . S
C1968 C1970 1.381 . S
C1968 C1974 1.383 . S
C1969 C1965 1.495 . S
C1969 H1975 0.959 . S
C1969 H1976 0.961 . S
C1969 H1977 0.960 . S
C1970 C1968 1.381 . S
C1970 C1971 1.394 . S
C1970 H1978 0.930 . S
C1971 C1970 1.394 . S
C1971 C1972 1.383 . S
C1971 H1979 0.929 . S
C1972 C1971 1.383 . S
C1972 C1973 1.377 . S
C1973 H1957 0.930 . S
C1973 C1972 1.377 . S
C1973 C1974 1.379 . S
C1974 H1958 0.931 . S
C1974 C1968 1.383 . S
C1974 C1973 1.379 . S
H1975 C1969 0.959 . S
H1976 C1969 0.961 . S
H1977 C1969 0.960 . S
H1978 C1970 0.930 . S
H1979 C1971 0.929 . S
H1980 C1988 0.929 . S
H1981 C1990 0.930 . S
H1982 C1992 0.930 . S
H1983 C1995 0.929 . S
H1984 C1998 0.930 . S
H1985 C2000 0.960 . S
H1986 C2000 0.960 . S
H1987 C2000 0.960 . S
C1988 H1980 0.929 . S
C1988 C1989 1.377 . S
C1988 C1990 1.384 . S
C1989 C1988 1.377 . S
C1989 C1995 1.390 . S
C1990 H1981 0.930 . S
C1990 C1988 1.384 . S
C1990 C1991 1.372 . S
C1991 C1990 1.372 . S
C1991 C1992 1.400 . S
C1991 C1996 1.490 . S
C1992 H1982 0.930 . S
C1992 C1991 1.400 . S
C1992 C1995 1.386 . S
H1993 C2009 0.930 . S
H1994 C2010 0.931 . S
C1995 H1983 0.929 . S
C1995 C1989 1.390 . S
C1995 C1992 1.386 . S
C1996 C1991 1.490 . S
C1996 C1998 1.395 . S
C1996 C1999 1.403 . S
H1997 C2003 0.930 . S
C1998 H1984 0.930 . S
C1998 C1996 1.395 . S
C1998 C2001 1.403 . S
C1999 C1996 1.403 . S
C1999 C2000 1.524 . S
C1999 C2003 1.400 . S
C2000 H1985 0.960 . S
C2000 H1986 0.960 . S
C2000 H1987 0.960 . S
C2000 C1999 1.524 . S
C2001 C1998 1.403 . S
C2001 C2002 1.392 . S
C2001 C2005 1.495 . S
C2002 C2001 1.392 . S
C2002 C2003 1.385 . S
C2002 C2004 1.478 . S
C2003 H1997 0.930 . S
C2003 C1999 1.400 . S
C2003 C2002 1.385 . S
C2004 C2002 1.478 . S
C2004 C2006 1.381 . S
C2004 C2010 1.383 . S
C2005 C2001 1.495 . S
C2005 H2011 0.959 . S
C2005 H2012 0.961 . S
C2005 H2013 0.960 . S
C2006 C2004 1.381 . S
C2006 C2007 1.394 . S
C2006 H2014 0.930 . S
C2007 C2006 1.394 . S
C2007 C2008 1.383 . S
C2007 H2015 0.929 . S
C2008 C2007 1.383 . S
C2008 C2009 1.377 . S
C2009 H1993 0.930 . S
C2009 C2008 1.377 . S
C2009 C2010 1.379 . S
C2010 H1994 0.931 . S
C2010 C2004 1.383 . S
C2010 C2009 1.379 . S
H2011 C2005 0.959 . S
H2012 C2005 0.961 . S
H2013 C2005 0.960 . S
H2014 C2006 0.930 . S
H2015 C2007 0.929 . S
H2016 C2024 0.929 . S
H2017 C2026 0.930 . S
H2018 C2028 0.930 . S
H2019 C2031 0.929 . S
H2020 C2034 0.930 . S
H2021 C2036 0.960 . S
H2022 C2036 0.960 . S
H2023 C2036 0.960 . S
C2024 H2016 0.929 . S
C2024 C2025 1.377 . S
C2024 C2026 1.384 . S
C2025 C2024 1.377 . S
C2025 C2031 1.390 . S
C2026 H2017 0.930 . S
C2026 C2024 1.384 . S
C2026 C2027 1.372 . S
C2027 C2026 1.372 . S
C2027 C2028 1.400 . S
C2027 C2032 1.490 . S
C2028 H2018 0.930 . S
C2028 C2027 1.400 . S
C2028 C2031 1.386 . S
H2029 C2045 0.930 . S
H2030 C2046 0.931 . S
C2031 H2019 0.929 . S
C2031 C2025 1.390 . S
C2031 C2028 1.386 . S
C2032 C2027 1.490 . S
C2032 C2034 1.395 . S
C2032 C2035 1.403 . S
H2033 C2039 0.930 . S
C2034 H2020 0.930 . S
C2034 C2032 1.395 . S
C2034 C2037 1.403 . S
C2035 C2032 1.403 . S
C2035 C2036 1.524 . S
C2035 C2039 1.400 . S
C2036 H2021 0.960 . S
C2036 H2022 0.960 . S
C2036 H2023 0.960 . S
C2036 C2035 1.524 . S
C2037 C2034 1.403 . S
C2037 C2038 1.392 . S
C2037 C2041 1.495 . S
C2038 C2037 1.392 . S
C2038 C2039 1.385 . S
C2038 C2040 1.478 . S
C2039 H2033 0.930 . S
C2039 C2035 1.400 . S
C2039 C2038 1.385 . S
C2040 C2038 1.478 . S
C2040 C2042 1.381 . S
C2040 C2046 1.383 . S
C2041 C2037 1.495 . S
C2041 H2047 0.959 . S
C2041 H2048 0.961 . S
C2041 H2049 0.960 . S
C2042 C2040 1.381 . S
C2042 C2043 1.394 . S
C2042 H2050 0.930 . S
C2043 C2042 1.394 . S
C2043 C2044 1.383 . S
C2043 H2051 0.929 . S
C2044 C2043 1.383 . S
C2044 C2045 1.377 . S
C2045 H2029 0.930 . S
C2045 C2044 1.377 . S
C2045 C2046 1.379 . S
C2046 H2030 0.931 . S
C2046 C2040 1.383 . S
C2046 C2045 1.379 . S
H2047 C2041 0.959 . S
H2048 C2041 0.961 . S
H2049 C2041 0.960 . S
H2050 C2042 0.930 . S
H2051 C2043 0.929 . S
H2052 C2060 0.929 . S
H2053 C2062 0.930 . S
H2054 C2064 0.930 . S
H2055 C2067 0.929 . S
H2056 C2070 0.930 . S
H2057 C2072 0.960 . S
H2058 C2072 0.960 . S
H2059 C2072 0.960 . S
C2060 H2052 0.929 . S
C2060 C2061 1.377 . S
C2060 C2062 1.384 . S
C2061 C2060 1.377 . S
C2061 C2067 1.390 . S
C2062 H2053 0.930 . S
C2062 C2060 1.384 . S
C2062 C2063 1.372 . S
C2063 C2062 1.372 . S
C2063 C2064 1.400 . S
C2063 C2068 1.490 . S
C2064 H2054 0.930 . S
C2064 C2063 1.400 . S
C2064 C2067 1.386 . S
H2065 C2081 0.930 . S
H2066 C2082 0.931 . S
C2067 H2055 0.929 . S
C2067 C2061 1.390 . S
C2067 C2064 1.386 . S
C2068 C2063 1.490 . S
C2068 C2070 1.395 . S
C2068 C2071 1.403 . S
H2069 C2075 0.930 . S
C2070 H2056 0.930 . S
C2070 C2068 1.395 . S
C2070 C2073 1.403 . S
C2071 C2068 1.403 . S
C2071 C2072 1.524 . S
C2071 C2075 1.400 . S
C2072 H2057 0.960 . S
C2072 H2058 0.960 . S
C2072 H2059 0.960 . S
C2072 C2071 1.524 . S
C2073 C2070 1.403 . S
C2073 C2074 1.392 . S
C2073 C2077 1.495 . S
C2074 C2073 1.392 . S
C2074 C2075 1.385 . S
C2074 C2076 1.478 . S
C2075 H2069 0.930 . S
C2075 C2071 1.400 . S
C2075 C2074 1.385 . S
C2076 C2074 1.478 . S
C2076 C2078 1.381 . S
C2076 C2082 1.383 . S
C2077 C2073 1.495 . S
C2077 H2083 0.959 . S
C2077 H2084 0.961 . S
C2077 H2085 0.960 . S
C2078 C2076 1.381 . S
C2078 C2079 1.394 . S
C2078 H2086 0.930 . S
C2079 C2078 1.394 . S
C2079 C2080 1.383 . S
C2079 H2087 0.929 . S
C2080 C2079 1.383 . S
C2080 C2081 1.377 . S
C2081 H2065 0.930 . S
C2081 C2080 1.377 . S
C2081 C2082 1.379 . S
C2082 H2066 0.931 . S
C2082 C2076 1.383 . S
C2082 C2081 1.379 . S
H2083 C2077 0.959 . S
H2084 C2077 0.961 . S
H2085 C2077 0.960 . S
H2086 C2078 0.930 . S
H2087 C2079 0.929 . S
H2088 C2096 0.929 . S
H2089 C2098 0.930 . S
H2090 C2100 0.930 . S
H2091 C2103 0.929 . S
H2092 C2106 0.930 . S
H2093 C2108 0.960 . S
H2094 C2108 0.960 . S
H2095 C2108 0.960 . S
C2096 H2088 0.929 . S
C2096 C2097 1.377 . S
C2096 C2098 1.384 . S
C2097 C2096 1.377 . S
C2097 C2103 1.390 . S
C2098 H2089 0.930 . S
C2098 C2096 1.384 . S
C2098 C2099 1.372 . S
C2099 C2098 1.372 . S
C2099 C2100 1.400 . S
C2099 C2104 1.490 . S
C2100 H2090 0.930 . S
C2100 C2099 1.400 . S
C2100 C2103 1.386 . S
H2101 C2117 0.930 . S
H2102 C2118 0.931 . S
C2103 H2091 0.929 . S
C2103 C2097 1.390 . S
C2103 C2100 1.386 . S
C2104 C2099 1.490 . S
C2104 C2106 1.395 . S
C2104 C2107 1.403 . S
H2105 C2111 0.930 . S
C2106 H2092 0.930 . S
C2106 C2104 1.395 . S
C2106 C2109 1.403 . S
C2107 C2104 1.403 . S
C2107 C2108 1.524 . S
C2107 C2111 1.400 . S
C2108 H2093 0.960 . S
C2108 H2094 0.960 . S
C2108 H2095 0.960 . S
C2108 C2107 1.524 . S
C2109 C2106 1.403 . S
C2109 C2110 1.392 . S
C2109 C2113 1.495 . S
C2110 C2109 1.392 . S
C2110 C2111 1.385 . S
C2110 C2112 1.478 . S
C2111 H2105 0.930 . S
C2111 C2107 1.400 . S
C2111 C2110 1.385 . S
C2112 C2110 1.478 . S
C2112 C2114 1.381 . S
C2112 C2118 1.383 . S
C2113 C2109 1.495 . S
C2113 H2119 0.959 . S
C2113 H2120 0.961 . S
C2113 H2121 0.960 . S
C2114 C2112 1.381 . S
C2114 C2115 1.394 . S
C2114 H2122 0.930 . S
C2115 C2114 1.394 . S
C2115 C2116 1.383 . S
C2115 H2123 0.929 . S
C2116 C2115 1.383 . S
C2116 C2117 1.377 . S
C2117 H2101 0.930 . S
C2117 C2116 1.377 . S
C2117 C2118 1.379 . S
C2118 H2102 0.931 . S
C2118 C2112 1.383 . S
C2118 C2117 1.379 . S
H2119 C2113 0.959 . S
H2120 C2113 0.961 . S
H2121 C2113 0.960 . S
H2122 C2114 0.930 . S
H2123 C2115 0.929 . S
H2124 C2132 0.929 . S
H2125 C2134 0.930 . S
H2126 C2136 0.930 . S
H2127 C2139 0.929 . S
H2128 C2142 0.930 . S
H2129 C2144 0.960 . S
H2130 C2144 0.960 . S
H2131 C2144 0.960 . S
C2132 H2124 0.929 . S
C2132 C2133 1.377 . S
C2132 C2134 1.384 . S
C2133 C2132 1.377 . S
C2133 C2139 1.390 . S
C2134 H2125 0.930 . S
C2134 C2132 1.384 . S
C2134 C2135 1.372 . S
C2135 C2134 1.372 . S
C2135 C2136 1.400 . S
C2135 C2140 1.490 . S
C2136 H2126 0.930 . S
C2136 C2135 1.400 . S
C2136 C2139 1.386 . S
H2137 C2153 0.930 . S
H2138 C2154 0.931 . S
C2139 H2127 0.929 . S
C2139 C2133 1.390 . S
C2139 C2136 1.386 . S
C2140 C2135 1.490 . S
C2140 C2142 1.395 . S
C2140 C2143 1.403 . S
H2141 C2147 0.930 . S
C2142 H2128 0.930 . S
C2142 C2140 1.395 . S
C2142 C2145 1.403 . S
C2143 C2140 1.403 . S
C2143 C2144 1.524 . S
C2143 C2147 1.400 . S
C2144 H2129 0.960 . S
C2144 H2130 0.960 . S
C2144 H2131 0.960 . S
C2144 C2143 1.524 . S
C2145 C2142 1.403 . S
C2145 C2146 1.392 . S
C2145 C2149 1.495 . S
C2146 C2145 1.392 . S
C2146 C2147 1.385 . S
C2146 C2148 1.478 . S
C2147 H2141 0.930 . S
C2147 C2143 1.400 . S
C2147 C2146 1.385 . S
C2148 C2146 1.478 . S
C2148 C2150 1.381 . S
C2148 C2154 1.383 . S
C2149 C2145 1.495 . S
C2149 H2155 0.959 . S
C2149 H2156 0.961 . S
C2149 H2157 0.960 . S
C2150 C2148 1.381 . S
C2150 C2151 1.394 . S
C2150 H2158 0.930 . S
C2151 C2150 1.394 . S
C2151 C2152 1.383 . S
C2151 H2159 0.929 . S
C2152 C2151 1.383 . S
C2152 C2153 1.377 . S
C2153 H2137 0.930 . S
C2153 C2152 1.377 . S
C2153 C2154 1.379 . S
C2154 H2138 0.931 . S
C2154 C2148 1.383 . S
C2154 C2153 1.379 . S
H2155 C2149 0.959 . S
H2156 C2149 0.961 . S
H2157 C2149 0.960 . S
H2158 C2150 0.930 . S
H2159 C2151 0.929 . S
H2160 C2168 0.929 . S
H2161 C2170 0.930 . S
H2162 C2172 0.930 . S
H2163 C2175 0.929 . S
H2164 C2178 0.930 . S
H2165 C2180 0.960 . S
H2166 C2180 0.960 . S
H2167 C2180 0.960 . S
C2168 H2160 0.929 . S
C2168 C2169 1.377 . S
C2168 C2170 1.384 . S
C2169 C2168 1.377 . S
C2169 C2175 1.390 . S
C2170 H2161 0.930 . S
C2170 C2168 1.384 . S
C2170 C2171 1.372 . S
C2171 C2170 1.372 . S
C2171 C2172 1.400 . S
C2171 C2176 1.490 . S
C2172 H2162 0.930 . S
C2172 C2171 1.400 . S
C2172 C2175 1.386 . S
H2173 C2189 0.930 . S
H2174 C2190 0.931 . S
C2175 H2163 0.929 . S
C2175 C2169 1.390 . S
C2175 C2172 1.386 . S
C2176 C2171 1.490 . S
C2176 C2178 1.395 . S
C2176 C2179 1.403 . S
H2177 C2183 0.930 . S
C2178 H2164 0.930 . S
C2178 C2176 1.395 . S
C2178 C2181 1.403 . S
C2179 C2176 1.403 . S
C2179 C2180 1.524 . S
C2179 C2183 1.400 . S
C2180 H2165 0.960 . S
C2180 H2166 0.960 . S
C2180 H2167 0.960 . S
C2180 C2179 1.524 . S
C2181 C2178 1.403 . S
C2181 C2182 1.392 . S
C2181 C2185 1.495 . S
C2182 C2181 1.392 . S
C2182 C2183 1.385 . S
C2182 C2184 1.478 . S
C2183 H2177 0.930 . S
C2183 C2179 1.400 . S
C2183 C2182 1.385 . S
C2184 C2182 1.478 . S
C2184 C2186 1.381 . S
C2184 C2190 1.383 . S
C2185 C2181 1.495 . S
C2185 H2191 0.959 . S
C2185 H2192 0.961 . S
C2185 H2193 0.960 . S
C2186 C2184 1.381 . S
C2186 C2187 1.394 . S
C2186 H2194 0.930 . S
C2187 C2186 1.394 . S
C2187 C2188 1.383 . S
C2187 H2195 0.929 . S
C2188 C2187 1.383 . S
C2188 C2189 1.377 . S
C2189 H2173 0.930 . S
C2189 C2188 1.377 . S
C2189 C2190 1.379 . S
C2190 H2174 0.931 . S
C2190 C2184 1.383 . S
C2190 C2189 1.379 . S
H2191 C2185 0.959 . S
H2192 C2185 0.961 . S
H2193 C2185 0.960 . S
H2194 C2186 0.930 . S
H2195 C2187 0.929 . S
H2196 C2204 0.929 . S
H2197 C2206 0.930 . S
H2198 C2208 0.930 . S
H2199 C2211 0.929 . S
H2200 C2214 0.930 . S
H2201 C2216 0.960 . S
H2202 C2216 0.960 . S
H2203 C2216 0.960 . S
C2204 H2196 0.929 . S
C2204 C2205 1.377 . S
C2204 C2206 1.384 . S
C2205 C2204 1.377 . S
C2205 C2211 1.390 . S
C2206 H2197 0.930 . S
C2206 C2204 1.384 . S
C2206 C2207 1.372 . S
C2207 C2206 1.372 . S
C2207 C2208 1.400 . S
C2207 C2212 1.490 . S
C2208 H2198 0.930 . S
C2208 C2207 1.400 . S
C2208 C2211 1.386 . S
H2209 C2225 0.930 . S
H2210 C2226 0.931 . S
C2211 H2199 0.929 . S
C2211 C2205 1.390 . S
C2211 C2208 1.386 . S
C2212 C2207 1.490 . S
C2212 C2214 1.395 . S
C2212 C2215 1.403 . S
H2213 C2219 0.930 . S
C2214 H2200 0.930 . S
C2214 C2212 1.395 . S
C2214 C2217 1.403 . S
C2215 C2212 1.403 . S
C2215 C2216 1.524 . S
C2215 C2219 1.400 . S
C2216 H2201 0.960 . S
C2216 H2202 0.960 . S
C2216 H2203 0.960 . S
C2216 C2215 1.524 . S
C2217 C2214 1.403 . S
C2217 C2218 1.392 . S
C2217 C2221 1.495 . S
C2218 C2217 1.392 . S
C2218 C2219 1.385 . S
C2218 C2220 1.478 . S
C2219 H2213 0.930 . S
C2219 C2215 1.400 . S
C2219 C2218 1.385 . S
C2220 C2218 1.478 . S
C2220 C2222 1.381 . S
C2220 C2226 1.383 . S
C2221 C2217 1.495 . S
C2221 H2227 0.959 . S
C2221 H2228 0.961 . S
C2221 H2229 0.960 . S
C2222 C2220 1.381 . S
C2222 C2223 1.394 . S
C2222 H2230 0.930 . S
C2223 C2222 1.394 . S
C2223 C2224 1.383 . S
C2223 H2231 0.929 . S
C2224 C2223 1.383 . S
C2224 C2225 1.377 . S
C2225 H2209 0.930 . S
C2225 C2224 1.377 . S
C2225 C2226 1.379 . S
C2226 H2210 0.931 . S
C2226 C2220 1.383 . S
C2226 C2225 1.379 . S
H2227 C2221 0.959 . S
H2228 C2221 0.961 . S
H2229 C2221 0.960 . S
H2230 C2222 0.930 . S
H2231 C2223 0.929 . S
H2232 C2240 0.929 . S
H2233 C2242 0.930 . S
H2234 C2244 0.930 . S
H2235 C2247 0.929 . S
H2236 C2250 0.930 . S
H2237 C2252 0.960 . S
H2238 C2252 0.960 . S
H2239 C2252 0.960 . S
C2240 H2232 0.929 . S
C2240 C2241 1.377 . S
C2240 C2242 1.384 . S
C2241 C2240 1.377 . S
C2241 C2247 1.390 . S
C2242 H2233 0.930 . S
C2242 C2240 1.384 . S
C2242 C2243 1.372 . S
C2243 C2242 1.372 . S
C2243 C2244 1.400 . S
C2243 C2248 1.490 . S
C2244 H2234 0.930 . S
C2244 C2243 1.400 . S
C2244 C2247 1.386 . S
H2245 C2261 0.930 . S
H2246 C2262 0.931 . S
C2247 H2235 0.929 . S
C2247 C2241 1.390 . S
C2247 C2244 1.386 . S
C2248 C2243 1.490 . S
C2248 C2250 1.395 . S
C2248 C2251 1.403 . S
H2249 C2255 0.930 . S
C2250 H2236 0.930 . S
C2250 C2248 1.395 . S
C2250 C2253 1.403 . S
C2251 C2248 1.403 . S
C2251 C2252 1.524 . S
C2251 C2255 1.400 . S
C2252 H2237 0.960 . S
C2252 H2238 0.960 . S
C2252 H2239 0.960 . S
C2252 C2251 1.524 . S
C2253 C2250 1.403 . S
C2253 C2254 1.392 . S
C2253 C2257 1.495 . S
C2254 C2253 1.392 . S
C2254 C2255 1.385 . S
C2254 C2256 1.478 . S
C2255 H2249 0.930 . S
C2255 C2251 1.400 . S
C2255 C2254 1.385 . S
C2256 C2254 1.478 . S
C2256 C2258 1.381 . S
C2256 C2262 1.383 . S
C2257 C2253 1.495 . S
C2257 H2263 0.959 . S
C2257 H2264 0.961 . S
C2257 H2265 0.960 . S
C2258 C2256 1.381 . S
C2258 C2259 1.394 . S
C2258 H2266 0.930 . S
C2259 C2258 1.394 . S
C2259 C2260 1.383 . S
C2259 H2267 0.929 . S
C2260 C2259 1.383 . S
C2260 C2261 1.377 . S
C2261 H2245 0.930 . S
C2261 C2260 1.377 . S
C2261 C2262 1.379 . S
C2262 H2246 0.931 . S
C2262 C2256 1.383 . S
C2262 C2261 1.379 . S
H2263 C2257 0.959 . S
H2264 C2257 0.961 . S
H2265 C2257 0.960 . S
H2266 C2258 0.930 . S
H2267 C2259 0.929 . S
H2268 C2276 0.929 . S
H2269 C2278 0.930 . S
H2270 C2280 0.930 . S
H2271 C2283 0.929 . S
H2272 C2286 0.930 . S
H2273 C2288 0.960 . S
H2274 C2288 0.960 . S
H2275 C2288 0.960 . S
C2276 H2268 0.929 . S
C2276 C2277 1.377 . S
C2276 C2278 1.384 . S
C2277 C2276 1.377 . S
C2277 C2283 1.390 . S
C2278 H2269 0.930 . S
C2278 C2276 1.384 . S
C2278 C2279 1.372 . S
C2279 C2278 1.372 . S
C2279 C2280 1.400 . S
C2279 C2284 1.490 . S
C2280 H2270 0.930 . S
C2280 C2279 1.400 . S
C2280 C2283 1.386 . S
H2281 C2297 0.930 . S
H2282 C2298 0.931 . S
C2283 H2271 0.929 . S
C2283 C2277 1.390 . S
C2283 C2280 1.386 . S
C2284 C2279 1.490 . S
C2284 C2286 1.395 . S
C2284 C2287 1.403 . S
H2285 C2291 0.930 . S
C2286 H2272 0.930 . S
C2286 C2284 1.395 . S
C2286 C2289 1.403 . S
C2287 C2284 1.403 . S
C2287 C2288 1.524 . S
C2287 C2291 1.400 . S
C2288 H2273 0.960 . S
C2288 H2274 0.960 . S
C2288 H2275 0.960 . S
C2288 C2287 1.524 . S
C2289 C2286 1.403 . S
C2289 C2290 1.392 . S
C2289 C2293 1.495 . S
C2290 C2289 1.392 . S
C2290 C2291 1.385 . S
C2290 C2292 1.478 . S
C2291 H2285 0.930 . S
C2291 C2287 1.400 . S
C2291 C2290 1.385 . S
C2292 C2290 1.478 . S
C2292 C2294 1.381 . S
C2292 C2298 1.383 . S
C2293 C2289 1.495 . S
C2293 H2299 0.959 . S
C2293 H2300 0.961 . S
C2293 H2301 0.960 . S
C2294 C2292 1.381 . S
C2294 C2295 1.394 . S
C2294 H2302 0.930 . S
C2295 C2294 1.394 . S
C2295 C2296 1.383 . S
C2295 H2303 0.929 . S
C2296 C2295 1.383 . S
C2296 C2297 1.377 . S
C2297 H2281 0.930 . S
C2297 C2296 1.377 . S
C2297 C2298 1.379 . S
C2298 H2282 0.931 . S
C2298 C2292 1.383 . S
C2298 C2297 1.379 . S
H2299 C2293 0.959 . S
H2300 C2293 0.961 . S
H2301 C2293 0.960 . S
H2302 C2294 0.930 . S
H2303 C2295 0.929 . S
H2304 C2312 0.929 . S
H2305 C2314 0.930 . S
H2306 C2316 0.930 . S
H2307 C2319 0.929 . S
H2308 C2322 0.930 . S
H2309 C2324 0.960 . S
H2310 C2324 0.960 . S
H2311 C2324 0.960 . S
C2312 H2304 0.929 . S
C2312 C2313 1.377 . S
C2312 C2314 1.384 . S
C2313 C2312 1.377 . S
C2313 C2319 1.390 . S
C2314 H2305 0.930 . S
C2314 C2312 1.384 . S
C2314 C2315 1.372 . S
C2315 C2314 1.372 . S
C2315 C2316 1.400 . S
C2315 C2320 1.490 . S
C2316 H2306 0.930 . S
C2316 C2315 1.400 . S
C2316 C2319 1.386 . S
H2317 C2333 0.930 . S
H2318 C2334 0.931 . S
C2319 H2307 0.929 . S
C2319 C2313 1.390 . S
C2319 C2316 1.386 . S
C2320 C2315 1.490 . S
C2320 C2322 1.395 . S
C2320 C2323 1.403 . S
H2321 C2327 0.930 . S
C2322 H2308 0.930 . S
C2322 C2320 1.395 . S
C2322 C2325 1.403 . S
C2323 C2320 1.403 . S
C2323 C2324 1.524 . S
C2323 C2327 1.400 . S
C2324 H2309 0.960 . S
C2324 H2310 0.960 . S
C2324 H2311 0.960 . S
C2324 C2323 1.524 . S
C2325 C2322 1.403 . S
C2325 C2326 1.392 . S
C2325 C2329 1.495 . S
C2326 C2325 1.392 . S
C2326 C2327 1.385 . S
C2326 C2328 1.478 . S
C2327 H2321 0.930 . S
C2327 C2323 1.400 . S
C2327 C2326 1.385 . S
C2328 C2326 1.478 . S
C2328 C2330 1.381 . S
C2328 C2334 1.383 . S
C2329 C2325 1.495 . S
C2329 H2335 0.959 . S
C2329 H2336 0.961 . S
C2329 H2337 0.960 . S
C2330 C2328 1.381 . S
C2330 C2331 1.394 . S
C2330 H2338 0.930 . S
C2331 C2330 1.394 . S
C2331 C2332 1.383 . S
C2331 H2339 0.929 . S
C2332 C2331 1.383 . S
C2332 C2333 1.377 . S
C2333 H2317 0.930 . S
C2333 C2332 1.377 . S
C2333 C2334 1.379 . S
C2334 H2318 0.931 . S
C2334 C2328 1.383 . S
C2334 C2333 1.379 . S
H2335 C2329 0.959 . S
H2336 C2329 0.961 . S
H2337 C2329 0.960 . S
H2338 C2330 0.930 . S
H2339 C2331 0.929 . S
H2340 C2348 0.929 . S
H2341 C2350 0.930 . S
H2342 C2352 0.930 . S
H2343 C2355 0.929 . S
H2344 C2358 0.930 . S
H2345 C2360 0.960 . S
H2346 C2360 0.960 . S
H2347 C2360 0.960 . S
C2348 H2340 0.929 . S
C2348 C2349 1.377 . S
C2348 C2350 1.384 . S
C2349 C2348 1.377 . S
C2349 C2355 1.390 . S
C2350 H2341 0.930 . S
C2350 C2348 1.384 . S
C2350 C2351 1.372 . S
C2351 C2350 1.372 . S
C2351 C2352 1.400 . S
C2351 C2356 1.490 . S
C2352 H2342 0.930 . S
C2352 C2351 1.400 . S
C2352 C2355 1.386 . S
H2353 C2369 0.930 . S
H2354 C2370 0.931 . S
C2355 H2343 0.929 . S
C2355 C2349 1.390 . S
C2355 C2352 1.386 . S
C2356 C2351 1.490 . S
C2356 C2358 1.395 . S
C2356 C2359 1.403 . S
H2357 C2363 0.930 . S
C2358 H2344 0.930 . S
C2358 C2356 1.395 . S
C2358 C2361 1.403 . S
C2359 C2356 1.403 . S
C2359 C2360 1.524 . S
C2359 C2363 1.400 . S
C2360 H2345 0.960 . S
C2360 H2346 0.960 . S
C2360 H2347 0.960 . S
C2360 C2359 1.524 . S
C2361 C2358 1.403 . S
C2361 C2362 1.392 . S
C2361 C2365 1.495 . S
C2362 C2361 1.392 . S
C2362 C2363 1.385 . S
C2362 C2364 1.478 . S
C2363 H2357 0.930 . S
C2363 C2359 1.400 . S
C2363 C2362 1.385 . S
C2364 C2362 1.478 . S
C2364 C2366 1.381 . S
C2364 C2370 1.383 . S
C2365 C2361 1.495 . S
C2365 H2371 0.959 . S
C2365 H2372 0.961 . S
C2365 H2373 0.960 . S
C2366 C2364 1.381 . S
C2366 C2367 1.394 . S
C2366 H2374 0.930 . S
C2367 C2366 1.394 . S
C2367 C2368 1.383 . S
C2367 H2375 0.929 . S
C2368 C2367 1.383 . S
C2368 C2369 1.377 . S
C2369 H2353 0.930 . S
C2369 C2368 1.377 . S
C2369 C2370 1.379 . S
C2370 H2354 0.931 . S
C2370 C2364 1.383 . S
C2370 C2369 1.379 . S
H2371 C2365 0.959 . S
H2372 C2365 0.961 . S
H2373 C2365 0.960 . S
H2374 C2366 0.930 . S
H2375 C2367 0.929 . S
H2376 C2384 0.929 . S
H2377 C2386 0.930 . S
H2378 C2388 0.930 . S
H2379 C2391 0.929 . S
H2380 C2394 0.930 . S
H2381 C2396 0.960 . S
H2382 C2396 0.960 . S
H2383 C2396 0.960 . S
C2384 H2376 0.929 . S
C2384 C2385 1.377 . S
C2384 C2386 1.384 . S
C2385 C2384 1.377 . S
C2385 C2391 1.390 . S
C2386 H2377 0.930 . S
C2386 C2384 1.384 . S
C2386 C2387 1.372 . S
C2387 C2386 1.372 . S
C2387 C2388 1.400 . S
C2387 C2392 1.490 . S
C2388 H2378 0.930 . S
C2388 C2387 1.400 . S
C2388 C2391 1.386 . S
H2389 C2405 0.930 . S
H2390 C2406 0.931 . S
C2391 H2379 0.929 . S
C2391 C2385 1.390 . S
C2391 C2388 1.386 . S
C2392 C2387 1.490 . S
C2392 C2394 1.395 . S
C2392 C2395 1.403 . S
H2393 C2399 0.930 . S
C2394 H2380 0.930 . S
C2394 C2392 1.395 . S
C2394 C2397 1.403 . S
C2395 C2392 1.403 . S
C2395 C2396 1.524 . S
C2395 C2399 1.400 . S
C2396 H2381 0.960 . S
C2396 H2382 0.960 . S
C2396 H2383 0.960 . S
C2396 C2395 1.524 . S
C2397 C2394 1.403 . S
C2397 C2398 1.392 . S
C2397 C2401 1.495 . S
C2398 C2397 1.392 . S
C2398 C2399 1.385 . S
C2398 C2400 1.478 . S
C2399 H2393 0.930 . S
C2399 C2395 1.400 . S
C2399 C2398 1.385 . S
C2400 C2398 1.478 . S
C2400 C2402 1.381 . S
C2400 C2406 1.383 . S
C2401 C2397 1.495 . S
C2401 H2407 0.959 . S
C2401 H2408 0.961 . S
C2401 H2409 0.960 . S
C2402 C2400 1.381 . S
C2402 C2403 1.394 . S
C2402 H2410 0.930 . S
C2403 C2402 1.394 . S
C2403 C2404 1.383 . S
C2403 H2411 0.929 . S
C2404 C2403 1.383 . S
C2404 C2405 1.377 . S
C2405 H2389 0.930 . S
C2405 C2404 1.377 . S
C2405 C2406 1.379 . S
C2406 H2390 0.931 . S
C2406 C2400 1.383 . S
C2406 C2405 1.379 . S
H2407 C2401 0.959 . S
H2408 C2401 0.961 . S
H2409 C2401 0.960 . S
H2410 C2402 0.930 . S
H2411 C2403 0.929 . S
H2412 C2420 0.929 . S
H2413 C2422 0.930 . S
H2414 C2424 0.930 . S
H2415 C2427 0.929 . S
H2416 C2430 0.930 . S
H2417 C2432 0.960 . S
H2418 C2432 0.960 . S
H2419 C2432 0.960 . S
C2420 H2412 0.929 . S
C2420 C2421 1.377 . S
C2420 C2422 1.384 . S
C2421 C2420 1.377 . S
C2421 C2427 1.390 . S
C2422 H2413 0.930 . S
C2422 C2420 1.384 . S
C2422 C2423 1.372 . S
C2423 C2422 1.372 . S
C2423 C2424 1.400 . S
C2423 C2428 1.490 . S
C2424 H2414 0.930 . S
C2424 C2423 1.400 . S
C2424 C2427 1.386 . S
H2425 C2441 0.930 . S
H2426 C2442 0.931 . S
C2427 H2415 0.929 . S
C2427 C2421 1.390 . S
C2427 C2424 1.386 . S
C2428 C2423 1.490 . S
C2428 C2430 1.395 . S
C2428 C2431 1.403 . S
H2429 C2435 0.930 . S
C2430 H2416 0.930 . S
C2430 C2428 1.395 . S
C2430 C2433 1.403 . S
C2431 C2428 1.403 . S
C2431 C2432 1.524 . S
C2431 C2435 1.400 . S
C2432 H2417 0.960 . S
C2432 H2418 0.960 . S
C2432 H2419 0.960 . S
C2432 C2431 1.524 . S
C2433 C2430 1.403 . S
C2433 C2434 1.392 . S
C2433 C2437 1.495 . S
C2434 C2433 1.392 . S
C2434 C2435 1.385 . S
C2434 C2436 1.478 . S
C2435 H2429 0.930 . S
C2435 C2431 1.400 . S
C2435 C2434 1.385 . S
C2436 C2434 1.478 . S
C2436 C2438 1.381 . S
C2436 C2442 1.383 . S
C2437 C2433 1.495 . S
C2437 H2443 0.959 . S
C2437 H2444 0.961 . S
C2437 H2445 0.960 . S
C2438 C2436 1.381 . S
C2438 C2439 1.394 . S
C2438 H2446 0.930 . S
C2439 C2438 1.394 . S
C2439 C2440 1.383 . S
C2439 H2447 0.929 . S
C2440 C2439 1.383 . S
C2440 C2441 1.377 . S
C2441 H2425 0.930 . S
C2441 C2440 1.377 . S
C2441 C2442 1.379 . S
C2442 H2426 0.931 . S
C2442 C2436 1.383 . S
C2442 C2441 1.379 . S
H2443 C2437 0.959 . S
H2444 C2437 0.961 . S
H2445 C2437 0.960 . S
H2446 C2438 0.930 . S
H2447 C2439 0.929 . S
H2448 C2456 0.929 . S
H2449 C2458 0.930 . S
H2450 C2460 0.930 . S
H2451 C2463 0.929 . S
H2452 C2466 0.930 . S
H2453 C2468 0.960 . S
H2454 C2468 0.960 . S
H2455 C2468 0.960 . S
C2456 H2448 0.929 . S
C2456 C2457 1.377 . S
C2456 C2458 1.384 . S
C2457 C2456 1.377 . S
C2457 C2463 1.390 . S
C2458 H2449 0.930 . S
C2458 C2456 1.384 . S
C2458 C2459 1.372 . S
C2459 C2458 1.372 . S
C2459 C2460 1.400 . S
C2459 C2464 1.490 . S
C2460 H2450 0.930 . S
C2460 C2459 1.400 . S
C2460 C2463 1.386 . S
H2461 C2477 0.930 . S
H2462 C2478 0.931 . S
C2463 H2451 0.929 . S
C2463 C2457 1.390 . S
C2463 C2460 1.386 . S
C2464 C2459 1.490 . S
C2464 C2466 1.395 . S
C2464 C2467 1.403 . S
H2465 C2471 0.930 . S
C2466 H2452 0.930 . S
C2466 C2464 1.395 . S
C2466 C2469 1.403 . S
C2467 C2464 1.403 . S
C2467 C2468 1.524 . S
C2467 C2471 1.400 . S
C2468 H2453 0.960 . S
C2468 H2454 0.960 . S
C2468 H2455 0.960 . S
C2468 C2467 1.524 . S
C2469 C2466 1.403 . S
C2469 C2470 1.392 . S
C2469 C2473 1.495 . S
C2470 C2469 1.392 . S
C2470 C2471 1.385 . S
C2470 C2472 1.478 . S
C2471 H2465 0.930 . S
C2471 C2467 1.400 . S
C2471 C2470 1.385 . S
C2472 C2470 1.478 . S
C2472 C2474 1.381 . S
C2472 C2478 1.383 . S
C2473 C2469 1.495 . S
C2473 H2479 0.959 . S
C2473 H2480 0.961 . S
C2473 H2481 0.960 . S
C2474 C2472 1.381 . S
C2474 C2475 1.394 . S
C2474 H2482 0.930 . S
C2475 C2474 1.394 . S
C2475 C2476 1.383 . S
C2475 H2483 0.929 . S
C2476 C2475 1.383 . S
C2476 C2477 1.377 . S
C2477 H2461 0.930 . S
C2477 C2476 1.377 . S
C2477 C2478 1.379 . S
C2478 H2462 0.931 . S
C2478 C2472 1.383 . S
C2478 C2477 1.379 . S
H2479 C2473 0.959 . S
H2480 C2473 0.961 . S
H2481 C2473 0.960 . S
H2482 C2474 0.930 . S
H2483 C2475 0.929 . S
H2484 C2492 0.929 . S
H2485 C2494 0.930 . S
H2486 C2496 0.930 . S
H2487 C2499 0.929 . S
H2488 C2502 0.930 . S
H2489 C2504 0.960 . S
H2490 C2504 0.960 . S
H2491 C2504 0.960 . S
C2492 H2484 0.929 . S
C2492 C2493 1.377 . S
C2492 C2494 1.384 . S
C2493 C2492 1.377 . S
C2493 C2499 1.390 . S
C2494 H2485 0.930 . S
C2494 C2492 1.384 . S
C2494 C2495 1.372 . S
C2495 C2494 1.372 . S
C2495 C2496 1.400 . S
C2495 C2500 1.490 . S
C2496 H2486 0.930 . S
C2496 C2495 1.400 . S
C2496 C2499 1.386 . S
H2497 C2513 0.930 . S
H2498 C2514 0.931 . S
C2499 H2487 0.929 . S
C2499 C2493 1.390 . S
C2499 C2496 1.386 . S
C2500 C2495 1.490 . S
C2500 C2502 1.395 . S
C2500 C2503 1.403 . S
H2501 C2507 0.930 . S
C2502 H2488 0.930 . S
C2502 C2500 1.395 . S
C2502 C2505 1.403 . S
C2503 C2500 1.403 . S
C2503 C2504 1.524 . S
C2503 C2507 1.400 . S
C2504 H2489 0.960 . S
C2504 H2490 0.960 . S
C2504 H2491 0.960 . S
C2504 C2503 1.524 . S
C2505 C2502 1.403 . S
C2505 C2506 1.392 . S
C2505 C2509 1.495 . S
C2506 C2505 1.392 . S
C2506 C2507 1.385 . S
C2506 C2508 1.478 . S
C2507 H2501 0.930 . S
C2507 C2503 1.400 . S
C2507 C2506 1.385 . S
C2508 C2506 1.478 . S
C2508 C2510 1.381 . S
C2508 C2514 1.383 . S
C2509 C2505 1.495 . S
C2509 H2515 0.959 . S
C2509 H2516 0.961 . S
C2509 H2517 0.960 . S
C2510 C2508 1.381 . S
C2510 C2511 1.394 . S
C2510 H2518 0.930 . S
C2511 C2510 1.394 . S
C2511 C2512 1.383 . S
C2511 H2519 0.929 . S
C2512 C2511 1.383 . S
C2512 C2513 1.377 . S
C2513 H2497 0.930 . S
C2513 C2512 1.377 . S
C2513 C2514 1.379 . S
C2514 H2498 0.931 . S
C2514 C2508 1.383 . S
C2514 C2513 1.379 . S
H2515 C2509 0.959 . S
H2516 C2509 0.961 . S
H2517 C2509 0.960 . S
H2518 C2510 0.930 . S
H2519 C2511 0.929 . S
H2520 C2528 0.929 1_545 S
H2521 C2530 0.930 . S
H2522 C2532 0.930 . S
H2523 C2535 0.929 . S
H2524 C2538 0.930 . S
H2525 C2540 0.960 . S
H2526 C2540 0.960 . S
H2527 C2540 0.960 . S
C2528 H2520 0.929 1_565 S
C2528 C2529 1.377 . S
C2528 C2530 1.384 . S
C2529 C2528 1.377 . S
C2529 C2535 1.390 . S
C2530 H2521 0.930 . S
C2530 C2528 1.384 . S
C2530 C2531 1.372 . S
C2531 C2530 1.372 . S
C2531 C2532 1.400 . S
C2531 C2536 1.490 . S
C2532 H2522 0.930 . S
C2532 C2531 1.400 . S
C2532 C2535 1.386 . S
H2533 C2549 0.930 . S
H2534 C2550 0.931 . S
C2535 H2523 0.929 . S
C2535 C2529 1.390 . S
C2535 C2532 1.386 . S
C2536 C2531 1.490 . S
C2536 C2538 1.395 . S
C2536 C2539 1.403 . S
H2537 C2543 0.930 . S
C2538 H2524 0.930 . S
C2538 C2536 1.395 . S
C2538 C2541 1.403 . S
C2539 C2536 1.403 . S
C2539 C2540 1.524 . S
C2539 C2543 1.400 . S
C2540 H2525 0.960 . S
C2540 H2526 0.960 . S
C2540 H2527 0.960 . S
C2540 C2539 1.524 . S
C2541 C2538 1.403 . S
C2541 C2542 1.392 . S
C2541 C2545 1.495 . S
C2542 C2541 1.392 . S
C2542 C2543 1.385 . S
C2542 C2544 1.478 . S
C2543 H2537 0.930 . S
C2543 C2539 1.400 . S
C2543 C2542 1.385 . S
C2544 C2542 1.478 . S
C2544 C2546 1.381 . S
C2544 C2550 1.383 . S
C2545 C2541 1.495 . S
C2545 H2551 0.959 . S
C2545 H2552 0.961 . S
C2545 H2553 0.960 . S
C2546 C2544 1.381 . S
C2546 C2547 1.394 . S
C2546 H2554 0.930 . S
C2547 C2546 1.394 . S
C2547 C2548 1.383 . S
C2547 H2555 0.929 . S
C2548 C2547 1.383 . S
C2548 C2549 1.377 . S
C2549 H2533 0.930 . S
C2549 C2548 1.377 . S
C2549 C2550 1.379 . S
C2550 H2534 0.931 . S
C2550 C2544 1.383 . S
C2550 C2549 1.379 . S
H2551 C2545 0.959 . S
H2552 C2545 0.961 . S
H2553 C2545 0.960 . S
H2554 C2546 0.930 . S
H2555 C2547 0.929 . S
H2556 C2564 0.929 . S
H2557 C2566 0.930 . S
H2558 C2568 0.930 . S
H2559 C2571 0.929 . S
H2560 C2574 0.930 . S
H2561 C2576 0.960 . S
H2562 C2576 0.960 . S
H2563 C2576 0.960 . S
C2564 H2556 0.929 . S
C2564 C2565 1.377 . S
C2564 C2566 1.384 . S
C2565 C2564 1.377 . S
C2565 C2571 1.390 . S
C2566 H2557 0.930 . S
C2566 C2564 1.384 . S
C2566 C2567 1.372 . S
C2567 C2566 1.372 . S
C2567 C2568 1.400 . S
C2567 C2572 1.490 . S
C2568 H2558 0.930 . S
C2568 C2567 1.400 . S
C2568 C2571 1.386 . S
H2569 C2585 0.930 . S
H2570 C2586 0.931 . S
C2571 H2559 0.929 . S
C2571 C2565 1.390 . S
C2571 C2568 1.386 . S
C2572 C2567 1.490 . S
C2572 C2574 1.395 . S
C2572 C2575 1.403 . S
H2573 C2579 0.930 . S
C2574 H2560 0.930 . S
C2574 C2572 1.395 . S
C2574 C2577 1.403 . S
C2575 C2572 1.403 . S
C2575 C2576 1.524 . S
C2575 C2579 1.400 . S
C2576 H2561 0.960 . S
C2576 H2562 0.960 . S
C2576 H2563 0.960 . S
C2576 C2575 1.524 . S
C2577 C2574 1.403 . S
C2577 C2578 1.392 . S
C2577 C2581 1.495 . S
C2578 C2577 1.392 . S
C2578 C2579 1.385 . S
C2578 C2580 1.478 . S
C2579 H2573 0.930 . S
C2579 C2575 1.400 . S
C2579 C2578 1.385 . S
C2580 C2578 1.478 . S
C2580 C2582 1.381 . S
C2580 C2586 1.383 . S
C2581 C2577 1.495 . S
C2581 H2587 0.959 . S
C2581 H2588 0.961 . S
C2581 H2589 0.960 . S
C2582 C2580 1.381 . S
C2582 C2583 1.394 . S
C2582 H2590 0.930 . S
C2583 C2582 1.394 . S
C2583 C2584 1.383 . S
C2583 H2591 0.929 . S
C2584 C2583 1.383 . S
C2584 C2585 1.377 . S
C2585 H2569 0.930 . S
C2585 C2584 1.377 . S
C2585 C2586 1.379 . S
C2586 H2570 0.931 . S
C2586 C2580 1.383 . S
C2586 C2585 1.379 . S
H2587 C2581 0.959 . S
H2588 C2581 0.961 . S
H2589 C2581 0.960 . S
H2590 C2582 0.930 . S
H2591 C2583 0.929 . S
H2592 C2600 0.929 . S
H2593 C2602 0.930 . S
H2594 C2604 0.930 . S
H2595 C2607 0.929 . S
H2596 C2610 0.930 . S
H2597 C2612 0.960 . S
H2598 C2612 0.960 . S
H2599 C2612 0.960 . S
C2600 H2592 0.929 . S
C2600 C2601 1.377 . S
C2600 C2602 1.384 . S
C2601 C2600 1.377 . S
C2601 C2607 1.390 . S
C2602 H2593 0.930 . S
C2602 C2600 1.384 . S
C2602 C2603 1.372 . S
C2603 C2602 1.372 . S
C2603 C2604 1.400 . S
C2603 C2608 1.490 . S
C2604 H2594 0.930 . S
C2604 C2603 1.400 . S
C2604 C2607 1.386 . S
H2605 C2621 0.930 . S
H2606 C2622 0.931 . S
C2607 H2595 0.929 . S
C2607 C2601 1.390 . S
C2607 C2604 1.386 . S
C2608 C2603 1.490 . S
C2608 C2610 1.395 . S
C2608 C2611 1.403 . S
H2609 C2615 0.930 . S
C2610 H2596 0.930 . S
C2610 C2608 1.395 . S
C2610 C2613 1.403 . S
C2611 C2608 1.403 . S
C2611 C2612 1.524 . S
C2611 C2615 1.400 . S
C2612 H2597 0.960 . S
C2612 H2598 0.960 . S
C2612 H2599 0.960 . S
C2612 C2611 1.524 . S
C2613 C2610 1.403 . S
C2613 C2614 1.392 . S
C2613 C2617 1.495 . S
C2614 C2613 1.392 . S
C2614 C2615 1.385 . S
C2614 C2616 1.478 . S
C2615 H2609 0.930 . S
C2615 C2611 1.400 . S
C2615 C2614 1.385 . S
C2616 C2614 1.478 . S
C2616 C2618 1.381 . S
C2616 C2622 1.383 . S
C2617 C2613 1.495 . S
C2617 H2623 0.959 . S
C2617 H2624 0.961 . S
C2617 H2625 0.960 . S
C2618 C2616 1.381 . S
C2618 C2619 1.394 . S
C2618 H2626 0.930 . S
C2619 C2618 1.394 . S
C2619 C2620 1.383 . S
C2619 H2627 0.929 . S
C2620 C2619 1.383 . S
C2620 C2621 1.377 . S
C2621 H2605 0.930 . S
C2621 C2620 1.377 . S
C2621 C2622 1.379 . S
C2622 H2606 0.931 . S
C2622 C2616 1.383 . S
C2622 C2621 1.379 . S
H2623 C2617 0.959 . S
H2624 C2617 0.961 . S
H2625 C2617 0.960 . S
H2626 C2618 0.930 . S
H2627 C2619 0.929 . S
H2628 C2636 0.929 . S
H2629 C2638 0.930 . S
H2630 C2640 0.930 . S
H2631 C2643 0.929 . S
H2632 C2646 0.930 . S
H2633 C2648 0.960 . S
H2634 C2648 0.960 . S
H2635 C2648 0.960 . S
C2636 H2628 0.929 . S
C2636 C2637 1.377 . S
C2636 C2638 1.384 . S
C2637 C2636 1.377 . S
C2637 C2643 1.390 1_554 S
C2638 H2629 0.930 . S
C2638 C2636 1.384 . S
C2638 C2639 1.372 1_554 S
C2639 C2638 1.372 1_556 S
C2639 C2640 1.400 . S
C2639 C2644 1.490 . S
C2640 H2630 0.930 . S
C2640 C2639 1.400 . S
C2640 C2643 1.386 . S
H2641 C2657 0.930 . S
H2642 C2658 0.931 . S
C2643 H2631 0.929 . S
C2643 C2637 1.390 1_556 S
C2643 C2640 1.386 . S
C2644 C2639 1.490 . S
C2644 C2646 1.395 . S
C2644 C2647 1.403 . S
H2645 C2651 0.930 . S
C2646 H2632 0.930 . S
C2646 C2644 1.395 . S
C2646 C2649 1.403 . S
C2647 C2644 1.403 . S
C2647 C2648 1.524 . S
C2647 C2651 1.400 . S
C2648 H2633 0.960 . S
C2648 H2634 0.960 . S
C2648 H2635 0.960 . S
C2648 C2647 1.524 . S
C2649 C2646 1.403 . S
C2649 C2650 1.392 . S
C2649 C2653 1.495 . S
C2650 C2649 1.392 . S
C2650 C2651 1.385 . S
C2650 C2652 1.478 . S
C2651 H2645 0.930 . S
C2651 C2647 1.400 . S
C2651 C2650 1.385 . S
C2652 C2650 1.478 . S
C2652 C2654 1.381 . S
C2652 C2658 1.383 . S
C2653 C2649 1.495 . S
C2653 H2659 0.959 . S
C2653 H2660 0.961 . S
C2653 H2661 0.960 . S
C2654 C2652 1.381 . S
C2654 C2655 1.394 . S
C2654 H2662 0.930 . S
C2655 C2654 1.394 . S
C2655 C2656 1.383 . S
C2655 H2663 0.929 . S
C2656 C2655 1.383 . S
C2656 C2657 1.377 . S
C2657 H2641 0.930 . S
C2657 C2656 1.377 . S
C2657 C2658 1.379 . S
C2658 H2642 0.931 . S
C2658 C2652 1.383 . S
C2658 C2657 1.379 . S
H2659 C2653 0.959 . S
H2660 C2653 0.961 . S
H2661 C2653 0.960 . S
H2662 C2654 0.930 . S
H2663 C2655 0.929 . S
H2664 C2672 0.929 1_556 S
H2665 C2674 0.930 . S
H2666 C2676 0.930 . S
H2667 C2679 0.929 . S
H2668 C2682 0.930 . S
H2669 C2684 0.960 . S
H2670 C2684 0.960 . S
H2671 C2684 0.960 . S
C2672 H2664 0.929 1_554 S
C2672 C2673 1.377 . S
C2672 C2674 1.384 1_554 S
C2673 C2672 1.377 . S
C2673 C2679 1.390 . S
C2674 H2665 0.930 . S
C2674 C2672 1.384 1_556 S
C2674 C2675 1.372 . S
C2675 C2674 1.372 . S
C2675 C2676 1.400 1_556 S
C2675 C2680 1.490 . S
C2676 H2666 0.930 . S
C2676 C2675 1.400 1_554 S
C2676 C2679 1.386 . S
H2677 C2693 0.930 . S
H2678 C2694 0.931 . S
C2679 H2667 0.929 . S
C2679 C2673 1.390 . S
C2679 C2676 1.386 . S
C2680 C2675 1.490 . S
C2680 C2682 1.395 . S
C2680 C2683 1.403 . S
H2681 C2687 0.930 . S
C2682 H2668 0.930 . S
C2682 C2680 1.395 . S
C2682 C2685 1.403 . S
C2683 C2680 1.403 . S
C2683 C2684 1.524 1_556 S
C2683 C2687 1.400 . S
C2684 H2669 0.960 . S
C2684 H2670 0.960 . S
C2684 H2671 0.960 . S
C2684 C2683 1.524 1_554 S
C2685 C2682 1.403 . S
C2685 C2686 1.392 . S
C2685 C2689 1.495 . S
C2686 C2685 1.392 . S
C2686 C2687 1.385 . S
C2686 C2688 1.478 . S
C2687 H2681 0.930 . S
C2687 C2683 1.400 . S
C2687 C2686 1.385 . S
C2688 C2686 1.478 . S
C2688 C2690 1.381 . S
C2688 C2694 1.383 . S
C2689 C2685 1.495 . S
C2689 H2695 0.959 . S
C2689 H2696 0.961 . S
C2689 H2697 0.960 . S
C2690 C2688 1.381 . S
C2690 C2691 1.394 . S
C2690 H2698 0.930 . S
C2691 C2690 1.394 . S
C2691 C2692 1.383 . S
C2691 H2699 0.929 . S
C2692 C2691 1.383 . S
C2692 C2693 1.377 . S
C2693 H2677 0.930 . S
C2693 C2692 1.377 . S
C2693 C2694 1.379 . S
C2694 H2678 0.931 . S
C2694 C2688 1.383 . S
C2694 C2693 1.379 . S
H2695 C2689 0.959 . S
H2696 C2689 0.961 . S
H2697 C2689 0.960 . S
H2698 C2690 0.930 . S
H2699 C2691 0.929 . S
H2700 C2708 0.929 . S
H2701 C2710 0.930 . S
H2702 C2712 0.930 . S
H2703 C2715 0.929 . S
H2704 C2718 0.930 . S
H2705 C2720 0.960 . S
H2706 C2720 0.960 . S
H2707 C2720 0.960 . S
C2708 H2700 0.929 . S
C2708 C2709 1.377 . S
C2708 C2710 1.384 . S
C2709 C2708 1.377 . S
C2709 C2715 1.390 . S
C2710 H2701 0.930 . S
C2710 C2708 1.384 . S
C2710 C2711 1.372 . S
C2711 C2710 1.372 . S
C2711 C2712 1.400 . S
C2711 C2716 1.490 . S
C2712 H2702 0.930 . S
C2712 C2711 1.400 . S
C2712 C2715 1.386 . S
H2713 C2729 0.930 . S
H2714 C2730 0.931 . S
C2715 H2703 0.929 . S
C2715 C2709 1.390 . S
C2715 C2712 1.386 . S
C2716 C2711 1.490 . S
C2716 C2718 1.395 . S
C2716 C2719 1.403 . S
H2717 C2723 0.930 . S
C2718 H2704 0.930 . S
C2718 C2716 1.395 . S
C2718 C2721 1.403 . S
C2719 C2716 1.403 . S
C2719 C2720 1.524 . S
C2719 C2723 1.400 . S
C2720 H2705 0.960 . S
C2720 H2706 0.960 . S
C2720 H2707 0.960 . S
C2720 C2719 1.524 . S
C2721 C2718 1.403 . S
C2721 C2722 1.392 . S
C2721 C2725 1.495 . S
C2722 C2721 1.392 . S
C2722 C2723 1.385 . S
C2722 C2724 1.478 . S
C2723 H2717 0.930 . S
C2723 C2719 1.400 . S
C2723 C2722 1.385 . S
C2724 C2722 1.478 . S
C2724 C2726 1.381 1_556 S
C2724 C2730 1.383 . S
C2725 C2721 1.495 . S
C2725 H2731 0.959 . S
C2725 H2732 0.961 . S
C2725 H2733 0.960 . S
C2726 C2724 1.381 1_554 S
C2726 C2727 1.394 . S
C2726 H2734 0.930 . S
C2727 C2726 1.394 . S
C2727 C2728 1.383 . S
C2727 H2735 0.929 . S
C2728 C2727 1.383 . S
C2728 C2729 1.377 1_554 S
C2729 H2713 0.930 . S
C2729 C2728 1.377 1_556 S
C2729 C2730 1.379 . S
C2730 H2714 0.931 . S
C2730 C2724 1.383 . S
C2730 C2729 1.379 . S
H2731 C2725 0.959 . S
H2732 C2725 0.961 . S
H2733 C2725 0.960 . S
H2734 C2726 0.930 . S
H2735 C2727 0.929 . S
H2736 C2744 0.929 . S
H2737 C2746 0.930 . S
H2738 C2748 0.930 . S
H2739 C2751 0.929 . S
H2740 C2754 0.930 . S
H2741 C2756 0.960 . S
H2742 C2756 0.960 . S
H2743 C2756 0.960 . S
C2744 H2736 0.929 . S
C2744 C2745 1.377 . S
C2744 C2746 1.384 . S
C2745 C2744 1.377 . S
C2745 C2751 1.390 . S
C2746 H2737 0.930 . S
C2746 C2744 1.384 . S
C2746 C2747 1.372 . S
C2747 C2746 1.372 . S
C2747 C2748 1.400 . S
C2747 C2752 1.490 . S
C2748 H2738 0.930 . S
C2748 C2747 1.400 . S
C2748 C2751 1.386 . S
H2749 C2765 0.930 . S
H2750 C2766 0.931 . S
C2751 H2739 0.929 . S
C2751 C2745 1.390 . S
C2751 C2748 1.386 . S
C2752 C2747 1.490 . S
C2752 C2754 1.395 . S
C2752 C2755 1.403 . S
H2753 C2759 0.930 . S
C2754 H2740 0.930 . S
C2754 C2752 1.395 . S
C2754 C2757 1.403 . S
C2755 C2752 1.403 . S
C2755 C2756 1.524 . S
C2755 C2759 1.400 . S
C2756 H2741 0.960 . S
C2756 H2742 0.960 . S
C2756 H2743 0.960 . S
C2756 C2755 1.524 . S
C2757 C2754 1.403 . S
C2757 C2758 1.392 . S
C2757 C2761 1.495 . S
C2758 C2757 1.392 . S
C2758 C2759 1.385 . S
C2758 C2760 1.478 . S
C2759 H2753 0.930 . S
C2759 C2755 1.400 . S
C2759 C2758 1.385 . S
C2760 C2758 1.478 . S
C2760 C2762 1.381 . S
C2760 C2766 1.383 . S
C2761 C2757 1.495 . S
C2761 H2767 0.959 . S
C2761 H2768 0.961 . S
C2761 H2769 0.960 . S
C2762 C2760 1.381 . S
C2762 C2763 1.394 . S
C2762 H2770 0.930 . S
C2763 C2762 1.394 . S
C2763 C2764 1.383 . S
C2763 H2771 0.929 . S
C2764 C2763 1.383 . S
C2764 C2765 1.377 . S
C2765 H2749 0.930 . S
C2765 C2764 1.377 . S
C2765 C2766 1.379 . S
C2766 H2750 0.931 . S
C2766 C2760 1.383 . S
C2766 C2765 1.379 . S
H2767 C2761 0.959 . S
H2768 C2761 0.961 . S
H2769 C2761 0.960 . S
H2770 C2762 0.930 . S
H2771 C2763 0.929 . S
H2772 C2780 0.929 1_455 S
H2773 C2782 0.930 . S
H2774 C2784 0.930 . S
H2775 C2787 0.929 . S
H2776 C2790 0.930 . S
H2777 C2792 0.960 . S
H2778 C2792 0.960 . S
H2779 C2792 0.960 . S
C2780 H2772 0.929 1_655 S
C2780 C2781 1.377 . S
C2780 C2782 1.384 . S
C2781 C2780 1.377 . S
C2781 C2787 1.390 . S
C2782 H2773 0.930 . S
C2782 C2780 1.384 . S
C2782 C2783 1.372 . S
C2783 C2782 1.372 . S
C2783 C2784 1.400 . S
C2783 C2788 1.490 . S
C2784 H2774 0.930 . S
C2784 C2783 1.400 . S
C2784 C2787 1.386 . S
H2785 C2801 0.930 . S
H2786 C2802 0.931 . S
C2787 H2775 0.929 . S
C2787 C2781 1.390 . S
C2787 C2784 1.386 . S
C2788 C2783 1.490 . S
C2788 C2790 1.395 . S
C2788 C2791 1.403 . S
H2789 C2795 0.930 . S
C2790 H2776 0.930 . S
C2790 C2788 1.395 . S
C2790 C2793 1.403 . S
C2791 C2788 1.403 . S
C2791 C2792 1.524 . S
C2791 C2795 1.400 . S
C2792 H2777 0.960 . S
C2792 H2778 0.960 . S
C2792 H2779 0.960 . S
C2792 C2791 1.524 . S
C2793 C2790 1.403 . S
C2793 C2794 1.392 . S
C2793 C2797 1.495 . S
C2794 C2793 1.392 . S
C2794 C2795 1.385 . S
C2794 C2796 1.478 . S
C2795 H2789 0.930 . S
C2795 C2791 1.400 . S
C2795 C2794 1.385 . S
C2796 C2794 1.478 . S
C2796 C2798 1.381 . S
C2796 C2802 1.383 . S
C2797 C2793 1.495 . S
C2797 H2803 0.959 . S
C2797 H2804 0.961 . S
C2797 H2805 0.960 . S
C2798 C2796 1.381 . S
C2798 C2799 1.394 . S
C2798 H2806 0.930 . S
C2799 C2798 1.394 . S
C2799 C2800 1.383 . S
C2799 H2807 0.929 . S
C2800 C2799 1.383 . S
C2800 C2801 1.377 . S
C2801 H2785 0.930 . S
C2801 C2800 1.377 . S
C2801 C2802 1.379 . S
C2802 H2786 0.931 . S
C2802 C2796 1.383 . S
C2802 C2801 1.379 . S
H2803 C2797 0.959 . S
H2804 C2797 0.961 . S
H2805 C2797 0.960 . S
H2806 C2798 0.930 . S
H2807 C2799 0.929 . S
H2808 C2816 0.929 . S
H2809 C2818 0.930 . S
H2810 C2820 0.930 . S
H2811 C2823 0.929 . S
H2812 C2826 0.930 . S
H2813 C2828 0.960 . S
H2814 C2828 0.960 . S
H2815 C2828 0.960 . S
C2816 H2808 0.929 . S
C2816 C2817 1.377 . S
C2816 C2818 1.384 . S
C2817 C2816 1.377 . S
C2817 C2823 1.390 . S
C2818 H2809 0.930 . S
C2818 C2816 1.384 . S
C2818 C2819 1.372 . S
C2819 C2818 1.372 . S
C2819 C2820 1.400 . S
C2819 C2824 1.490 . S
C2820 H2810 0.930 . S
C2820 C2819 1.400 . S
C2820 C2823 1.386 . S
H2821 C2837 0.930 . S
H2822 C2838 0.931 . S
C2823 H2811 0.929 . S
C2823 C2817 1.390 . S
C2823 C2820 1.386 . S
C2824 C2819 1.490 . S
C2824 C2826 1.395 . S
C2824 C2827 1.403 . S
H2825 C2831 0.930 . S
C2826 H2812 0.930 . S
C2826 C2824 1.395 . S
C2826 C2829 1.403 . S
C2827 C2824 1.403 . S
C2827 C2828 1.524 . S
C2827 C2831 1.400 . S
C2828 H2813 0.960 . S
C2828 H2814 0.960 . S
C2828 H2815 0.960 . S
C2828 C2827 1.524 . S
C2829 C2826 1.403 . S
C2829 C2830 1.392 . S
C2829 C2833 1.495 . S
C2830 C2829 1.392 . S
C2830 C2831 1.385 . S
C2830 C2832 1.478 . S
C2831 H2825 0.930 . S
C2831 C2827 1.400 . S
C2831 C2830 1.385 . S
C2832 C2830 1.478 . S
C2832 C2834 1.381 . S
C2832 C2838 1.383 . S
C2833 C2829 1.495 . S
C2833 H2839 0.959 . S
C2833 H2840 0.961 . S
C2833 H2841 0.960 . S
C2834 C2832 1.381 . S
C2834 C2835 1.394 . S
C2834 H2842 0.930 . S
C2835 C2834 1.394 . S
C2835 C2836 1.383 . S
C2835 H2843 0.929 . S
C2836 C2835 1.383 . S
C2836 C2837 1.377 . S
C2837 H2821 0.930 . S
C2837 C2836 1.377 . S
C2837 C2838 1.379 . S
C2838 H2822 0.931 . S
C2838 C2832 1.383 . S
C2838 C2837 1.379 . S
H2839 C2833 0.959 . S
H2840 C2833 0.961 . S
H2841 C2833 0.960 . S
H2842 C2834 0.930 . S
H2843 C2835 0.929 . S
H2844 C2852 0.929 . S
H2845 C2854 0.930 . S
H2846 C2856 0.930 . S
H2847 C2859 0.929 . S
H2848 C2862 0.930 . S
H2849 C2864 0.960 1_556 S
H2850 C2864 0.960 . S
H2851 C2864 0.960 . S
C2852 H2844 0.929 . S
C2852 C2853 1.377 . S
C2852 C2854 1.384 . S
C2853 C2852 1.377 . S
C2853 C2859 1.390 . S
C2854 H2845 0.930 . S
C2854 C2852 1.384 . S
C2854 C2855 1.372 . S
C2855 C2854 1.372 . S
C2855 C2856 1.400 . S
C2855 C2860 1.490 . S
C2856 H2846 0.930 . S
C2856 C2855 1.400 . S
C2856 C2859 1.386 . S
H2857 C2873 0.930 . S
H2858 C2874 0.931 . S
C2859 H2847 0.929 . S
C2859 C2853 1.390 . S
C2859 C2856 1.386 . S
C2860 C2855 1.490 . S
C2860 C2862 1.395 . S
C2860 C2863 1.403 . S
H2861 C2867 0.930 . S
C2862 H2848 0.930 . S
C2862 C2860 1.395 . S
C2862 C2865 1.403 . S
C2863 C2860 1.403 . S
C2863 C2864 1.524 . S
C2863 C2867 1.400 . S
C2864 H2849 0.960 1_554 S
C2864 H2850 0.960 . S
C2864 H2851 0.960 . S
C2864 C2863 1.524 . S
C2865 C2862 1.403 . S
C2865 C2866 1.392 . S
C2865 C2869 1.495 . S
C2866 C2865 1.392 . S
C2866 C2867 1.385 . S
C2866 C2868 1.478 . S
C2867 H2861 0.930 . S
C2867 C2863 1.400 . S
C2867 C2866 1.385 . S
C2868 C2866 1.478 . S
C2868 C2870 1.381 . S
C2868 C2874 1.383 . S
C2869 C2865 1.495 . S
C2869 H2875 0.959 . S
C2869 H2876 0.961 . S
C2869 H2877 0.960 . S
C2870 C2868 1.381 . S
C2870 C2871 1.394 1_554 S
C2870 H2878 0.930 . S
C2871 C2870 1.394 1_556 S
C2871 C2872 1.383 . S
C2871 H2879 0.929 . S
C2872 C2871 1.383 . S
C2872 C2873 1.377 . S
C2873 H2857 0.930 . S
C2873 C2872 1.377 . S
C2873 C2874 1.379 1_556 S
C2874 H2858 0.931 . S
C2874 C2868 1.383 . S
C2874 C2873 1.379 1_554 S
H2875 C2869 0.959 . S
H2876 C2869 0.961 . S
H2877 C2869 0.960 . S
H2878 C2870 0.930 . S
H2879 C2871 0.929 . S
H2880 C2888 0.929 . S
H2881 C2890 0.930 . S
H2882 C2892 0.930 . S
H2883 C2895 0.929 . S
H2884 C2898 0.930 . S
H2885 C2900 0.960 . S
H2886 C2900 0.960 . S
H2887 C2900 0.960 . S
C2888 H2880 0.929 . S
C2888 C2889 1.377 . S
C2888 C2890 1.384 . S
C2889 C2888 1.377 . S
C2889 C2895 1.390 1_556 S
C2890 H2881 0.930 . S
C2890 C2888 1.384 . S
C2890 C2891 1.372 1_556 S
C2891 C2890 1.372 1_554 S
C2891 C2892 1.400 . S
C2891 C2896 1.490 . S
C2892 H2882 0.930 . S
C2892 C2891 1.400 . S
C2892 C2895 1.386 . S
H2893 C2909 0.930 . S
H2894 C2910 0.931 . S
C2895 H2883 0.929 . S
C2895 C2889 1.390 1_554 S
C2895 C2892 1.386 . S
C2896 C2891 1.490 . S
C2896 C2898 1.395 . S
C2896 C2899 1.403 . S
H2897 C2903 0.930 . S
C2898 H2884 0.930 . S
C2898 C2896 1.395 . S
C2898 C2901 1.403 . S
C2899 C2896 1.403 . S
C2899 C2900 1.524 . S
C2899 C2903 1.400 . S
C2900 H2885 0.960 . S
C2900 H2886 0.960 . S
C2900 H2887 0.960 . S
C2900 C2899 1.524 . S
C2901 C2898 1.403 . S
C2901 C2902 1.392 . S
C2901 C2905 1.495 . S
C2902 C2901 1.392 . S
C2902 C2903 1.385 . S
C2902 C2904 1.478 . S
C2903 H2897 0.930 . S
C2903 C2899 1.400 . S
C2903 C2902 1.385 . S
C2904 C2902 1.478 . S
C2904 C2906 1.381 . S
C2904 C2910 1.383 . S
C2905 C2901 1.495 . S
C2905 H2911 0.959 . S
C2905 H2912 0.961 . S
C2905 H2913 0.960 . S
C2906 C2904 1.381 . S
C2906 C2907 1.394 . S
C2906 H2914 0.930 . S
C2907 C2906 1.394 . S
C2907 C2908 1.383 . S
C2907 H2915 0.929 . S
C2908 C2907 1.383 . S
C2908 C2909 1.377 . S
C2909 H2893 0.930 . S
C2909 C2908 1.377 . S
C2909 C2910 1.379 . S
C2910 H2894 0.931 . S
C2910 C2904 1.383 . S
C2910 C2909 1.379 . S
H2911 C2905 0.959 . S
H2912 C2905 0.961 . S
H2913 C2905 0.960 . S
H2914 C2906 0.930 . S
H2915 C2907 0.929 . S
H2916 C2924 0.929 . S
H2917 C2926 0.930 . S
H2918 C2928 0.930 . S
H2919 C2931 0.929 . S
H2920 C2934 0.930 . S
H2921 C2936 0.960 . S
H2922 C2936 0.960 1_556 S
H2923 C2936 0.960 . S
C2924 H2916 0.929 . S
C2924 C2925 1.377 . S
C2924 C2926 1.384 . S
C2925 C2924 1.377 . S
C2925 C2931 1.390 . S
C2926 H2917 0.930 . S
C2926 C2924 1.384 . S
C2926 C2927 1.372 1_556 S
C2927 C2926 1.372 1_554 S
C2927 C2928 1.400 . S
C2927 C2932 1.490 . S
C2928 H2918 0.930 . S
C2928 C2927 1.400 . S
C2928 C2931 1.386 1_554 S
H2929 C2945 0.930 . S
H2930 C2946 0.931 . S
C2931 H2919 0.929 . S
C2931 C2925 1.390 . S
C2931 C2928 1.386 1_556 S
C2932 C2927 1.490 . S
C2932 C2934 1.395 . S
C2932 C2935 1.403 . S
H2933 C2939 0.930 . S
C2934 H2920 0.930 . S
C2934 C2932 1.395 . S
C2934 C2937 1.403 . S
C2935 C2932 1.403 . S
C2935 C2936 1.524 . S
C2935 C2939 1.400 . S
C2936 H2921 0.960 . S
C2936 H2922 0.960 1_554 S
C2936 H2923 0.960 . S
C2936 C2935 1.524 . S
C2937 C2934 1.403 . S
C2937 C2938 1.392 . S
C2937 C2941 1.495 . S
C2938 C2937 1.392 . S
C2938 C2939 1.385 . S
C2938 C2940 1.478 . S
C2939 H2933 0.930 . S
C2939 C2935 1.400 . S
C2939 C2938 1.385 . S
C2940 C2938 1.478 . S
C2940 C2942 1.381 . S
C2940 C2946 1.383 . S
C2941 C2937 1.495 . S
C2941 H2947 0.959 . S
C2941 H2948 0.961 . S
C2941 H2949 0.960 . S
C2942 C2940 1.381 . S
C2942 C2943 1.394 . S
C2942 H2950 0.930 . S
C2943 C2942 1.394 . S
C2943 C2944 1.383 . S
C2943 H2951 0.929 1_565 S
C2944 C2943 1.383 . S
C2944 C2945 1.377 . S
C2945 H2929 0.930 . S
C2945 C2944 1.377 . S
C2945 C2946 1.379 . S
C2946 H2930 0.931 . S
C2946 C2940 1.383 . S
C2946 C2945 1.379 . S
H2947 C2941 0.959 . S
H2948 C2941 0.961 . S
H2949 C2941 0.960 . S
H2950 C2942 0.930 . S
H2951 C2943 0.929 1_545 S
H2952 C2960 0.929 . S
H2953 C2962 0.930 . S
H2954 C2964 0.930 . S
H2955 C2967 0.929 . S
H2956 C2970 0.930 . S
H2957 C2972 0.960 . S
H2958 C2972 0.960 . S
H2959 C2972 0.960 . S
C2960 H2952 0.929 . S
C2960 C2961 1.377 . S
C2960 C2962 1.384 . S
C2961 C2960 1.377 . S
C2961 C2967 1.390 . S
C2962 H2953 0.930 . S
C2962 C2960 1.384 . S
C2962 C2963 1.372 . S
C2963 C2962 1.372 . S
C2963 C2964 1.400 . S
C2963 C2968 1.490 . S
C2964 H2954 0.930 . S
C2964 C2963 1.400 . S
C2964 C2967 1.386 . S
H2965 C2981 0.930 . S
H2966 C2982 0.931 . S
C2967 H2955 0.929 . S
C2967 C2961 1.390 . S
C2967 C2964 1.386 . S
C2968 C2963 1.490 . S
C2968 C2970 1.395 . S
C2968 C2971 1.403 . S
H2969 C2975 0.930 . S
C2970 H2956 0.930 . S
C2970 C2968 1.395 . S
C2970 C2973 1.403 . S
C2971 C2968 1.403 . S
C2971 C2972 1.524 . S
C2971 C2975 1.400 . S
C2972 H2957 0.960 . S
C2972 H2958 0.960 . S
C2972 H2959 0.960 . S
C2972 C2971 1.524 . S
C2973 C2970 1.403 . S
C2973 C2974 1.392 . S
C2973 C2977 1.495 . S
C2974 C2973 1.392 . S
C2974 C2975 1.385 . S
C2974 C2976 1.478 . S
C2975 H2969 0.930 . S
C2975 C2971 1.400 . S
C2975 C2974 1.385 . S
C2976 C2974 1.478 . S
C2976 C2978 1.381 . S
C2976 C2982 1.383 . S
C2977 C2973 1.495 . S
C2977 H2983 0.959 . S
C2977 H2984 0.961 . S
C2977 H2985 0.960 . S
C2978 C2976 1.381 . S
C2978 C2979 1.394 . S
C2978 H2986 0.930 . S
C2979 C2978 1.394 . S
C2979 C2980 1.383 . S
C2979 H2987 0.929 . S
C2980 C2979 1.383 . S
C2980 C2981 1.377 . S
C2981 H2965 0.930 . S
C2981 C2980 1.377 . S
C2981 C2982 1.379 . S
C2982 H2966 0.931 . S
C2982 C2976 1.383 . S
C2982 C2981 1.379 . S
H2983 C2977 0.959 . S
H2984 C2977 0.961 . S
H2985 C2977 0.960 . S
H2986 C2978 0.930 . S
H2987 C2979 0.929 . S
H2988 C2996 0.929 . S
H2989 C2998 0.930 . S
H2990 C3000 0.930 . S
H2991 C3003 0.929 . S
H2992 C3006 0.930 . S
H2993 C3008 0.960 1_565 S
H2994 C3008 0.960 . S
H2995 C3008 0.960 . S
C2996 H2988 0.929 . S
C2996 C2997 1.377 . S
C2996 C2998 1.384 . S
C2997 C2996 1.377 . S
C2997 C3003 1.390 . S
C2998 H2989 0.930 . S
C2998 C2996 1.384 . S
C2998 C2999 1.372 . S
C2999 C2998 1.372 . S
C2999 C3000 1.400 . S
C2999 C3004 1.490 . S
C3000 H2990 0.930 . S
C3000 C2999 1.400 . S
C3000 C3003 1.386 . S
H3001 C3017 0.930 . S
H3002 C3018 0.931 . S
C3003 H2991 0.929 . S
C3003 C2997 1.390 . S
C3003 C3000 1.386 . S
C3004 C2999 1.490 . S
C3004 C3006 1.395 . S
C3004 C3007 1.403 . S
H3005 C3011 0.930 . S
C3006 H2992 0.930 . S
C3006 C3004 1.395 . S
C3006 C3009 1.403 . S
C3007 C3004 1.403 . S
C3007 C3008 1.524 . S
C3007 C3011 1.400 1_545 S
C3008 H2993 0.960 1_545 S
C3008 H2994 0.960 . S
C3008 H2995 0.960 . S
C3008 C3007 1.524 . S
C3009 C3006 1.403 . S
C3009 C3010 1.392 1_545 S
C3009 C3013 1.495 . S
C3010 C3009 1.392 1_565 S
C3010 C3011 1.385 . S
C3010 C3012 1.478 . S
C3011 H3005 0.930 . S
C3011 C3007 1.400 1_565 S
C3011 C3010 1.385 . S
C3012 C3010 1.478 . S
C3012 C3014 1.381 . S
C3012 C3018 1.383 . S
C3013 C3009 1.495 . S
C3013 H3019 0.959 . S
C3013 H3020 0.961 . S
C3013 H3021 0.960 1_545 S
C3014 C3012 1.381 . S
C3014 C3015 1.394 . S
C3014 H3022 0.930 . S
C3015 C3014 1.394 . S
C3015 C3016 1.383 . S
C3015 H3023 0.929 . S
C3016 C3015 1.383 . S
C3016 C3017 1.377 . S
C3017 H3001 0.930 . S
C3017 C3016 1.377 . S
C3017 C3018 1.379 . S
C3018 H3002 0.931 . S
C3018 C3012 1.383 . S
C3018 C3017 1.379 . S
H3019 C3013 0.959 . S
H3020 C3013 0.961 . S
H3021 C3013 0.960 1_565 S
H3022 C3014 0.930 . S
H3023 C3015 0.929 . S
H3024 C3032 0.929 . S
H3025 C3034 0.930 . S
H3026 C3036 0.930 . S
H3027 C3039 0.929 . S
H3028 C3042 0.930 . S
H3029 C3044 0.960 1_655 S
H3030 C3044 0.960 . S
H3031 C3044 0.960 . S
C3032 H3024 0.929 . S
C3032 C3033 1.377 . S
C3032 C3034 1.384 . S
C3033 C3032 1.377 . S
C3033 C3039 1.390 . S
C3034 H3025 0.930 . S
C3034 C3032 1.384 . S
C3034 C3035 1.372 . S
C3035 C3034 1.372 . S
C3035 C3036 1.400 . S
C3035 C3040 1.490 . S
C3036 H3026 0.930 . S
C3036 C3035 1.400 . S
C3036 C3039 1.386 . S
H3037 C3053 0.930 . S
H3038 C3054 0.931 . S
C3039 H3027 0.929 . S
C3039 C3033 1.390 . S
C3039 C3036 1.386 . S
C3040 C3035 1.490 . S
C3040 C3042 1.395 . S
C3040 C3043 1.403 . S
H3041 C3047 0.930 . S
C3042 H3028 0.930 . S
C3042 C3040 1.395 . S
C3042 C3045 1.403 . S
C3043 C3040 1.403 . S
C3043 C3044 1.524 . S
C3043 C3047 1.400 1_455 S
C3044 H3029 0.960 1_455 S
C3044 H3030 0.960 . S
C3044 H3031 0.960 . S
C3044 C3043 1.524 . S
C3045 C3042 1.403 . S
C3045 C3046 1.375 1_455 S
C3045 C3049 1.495 . S
C3046 C3045 1.375 1_655 S
C3046 C3047 1.388 . S
C3046 C3048 1.492 . S
C3047 H3041 0.930 . S
C3047 C3043 1.400 1_655 S
C3047 C3046 1.388 . S
C3048 C3046 1.492 . S
C3048 C3050 1.381 . S
C3048 C3054 1.383 . S
C3049 C3045 1.495 . S
C3049 H3055 0.959 . S
C3049 H3056 0.961 . S
C3049 H3057 0.960 . S
C3050 C3048 1.381 . S
C3050 C3051 1.394 . S
C3050 H3058 0.930 . S
C3051 C3050 1.394 . S
C3051 C3052 1.383 . S
C3051 H3059 0.929 . S
C3052 C3051 1.383 . S
C3052 C3053 1.377 . S
C3053 H3037 0.930 . S
C3053 C3052 1.377 . S
C3053 C3054 1.379 . S
C3054 H3038 0.931 . S
C3054 C3048 1.383 . S
C3054 C3053 1.379 . S
H3055 C3049 0.959 . S
H3056 C3049 0.961 . S
H3057 C3049 0.960 . S
H3058 C3050 0.930 . S
H3059 C3051 0.929 . S
H3060 C3068 0.929 . S
H3061 C3070 0.930 . S
H3062 C3072 0.930 . S
H3063 C3075 0.929 . S
H3064 C3078 0.930 . S
H3065 C3080 0.960 . S
H3066 C3080 0.960 . S
H3067 C3080 0.960 . S
C3068 H3060 0.929 . S
C3068 C3069 1.377 . S
C3068 C3070 1.384 . S
C3069 C3068 1.377 . S
C3069 C3075 1.390 . S
C3070 H3061 0.930 . S
C3070 C3068 1.384 . S
C3070 C3071 1.372 . S
C3071 C3070 1.372 . S
C3071 C3072 1.400 . S
C3071 C3076 1.490 . S
C3072 H3062 0.930 . S
C3072 C3071 1.400 . S
C3072 C3075 1.386 . S
H3073 C3089 0.930 . S
H3074 C3090 0.931 . S
C3075 H3063 0.929 . S
C3075 C3069 1.390 . S
C3075 C3072 1.386 . S
C3076 C3071 1.490 . S
C3076 C3078 1.395 . S
C3076 C3079 1.403 . S
H3077 C3083 0.930 . S
C3078 H3064 0.930 . S
C3078 C3076 1.395 . S
C3078 C3081 1.403 . S
C3079 C3076 1.403 . S
C3079 C3080 1.524 . S
C3079 C3083 1.400 . S
C3080 H3065 0.960 . S
C3080 H3066 0.960 . S
C3080 H3067 0.960 . S
C3080 C3079 1.524 . S
C3081 C3078 1.403 . S
C3081 C3082 1.392 . S
C3081 C3085 1.495 . S
C3082 C3081 1.392 . S
C3082 C3083 1.385 . S
C3082 C3084 1.478 . S
C3083 H3077 0.930 . S
C3083 C3079 1.400 . S
C3083 C3082 1.385 . S
C3084 C3082 1.478 . S
C3084 C3086 1.381 . S
C3084 C3090 1.383 . S
C3085 C3081 1.495 . S
C3085 H3091 0.959 . S
C3085 H3092 0.961 . S
C3085 H3093 0.960 . S
C3086 C3084 1.381 . S
C3086 C3087 1.394 . S
C3086 H3094 0.930 . S
C3087 C3086 1.394 . S
C3087 C3088 1.383 . S
C3087 H3095 0.929 . S
C3088 C3087 1.383 . S
C3088 C3089 1.377 . S
C3089 H3073 0.930 . S
C3089 C3088 1.377 . S
C3089 C3090 1.379 . S
C3090 H3074 0.931 . S
C3090 C3084 1.383 . S
C3090 C3089 1.379 . S
H3091 C3085 0.959 . S
H3092 C3085 0.961 . S
H3093 C3085 0.960 . S
H3094 C3086 0.930 . S
H3095 C3087 0.929 . S
H3096 C3104 0.929 . S
H3097 C3106 0.930 . S
H3098 C3108 0.930 . S
H3099 C3111 0.929 . S
H3100 C3114 0.930 . S
H3101 C3116 0.960 . S
H3102 C3116 0.960 . S
H3103 C3116 0.960 . S
C3104 H3096 0.929 . S
C3104 C3105 1.377 . S
C3104 C3106 1.384 . S
C3105 C3104 1.377 . S
C3105 C3111 1.390 . S
C3106 H3097 0.930 . S
C3106 C3104 1.384 . S
C3106 C3107 1.372 . S
C3107 C3106 1.372 . S
C3107 C3108 1.400 . S
C3107 C3112 1.490 . S
C3108 H3098 0.930 . S
C3108 C3107 1.400 . S
C3108 C3111 1.386 . S
H3109 C3125 0.930 . S
H3110 C3126 0.931 . S
C3111 H3099 0.929 . S
C3111 C3105 1.390 . S
C3111 C3108 1.386 . S
C3112 C3107 1.490 . S
C3112 C3114 1.395 . S
C3112 C3115 1.403 . S
H3113 C3119 0.930 . S
C3114 H3100 0.930 . S
C3114 C3112 1.395 . S
C3114 C3117 1.403 . S
C3115 C3112 1.403 . S
C3115 C3116 1.524 . S
C3115 C3119 1.400 . S
C3116 H3101 0.960 . S
C3116 H3102 0.960 . S
C3116 H3103 0.960 . S
C3116 C3115 1.524 . S
C3117 C3114 1.403 . S
C3117 C3118 1.392 . S
C3117 C3121 1.495 1_545 S
C3118 C3117 1.392 . S
C3118 C3119 1.385 . S
C3118 C3120 1.478 1_545 S
C3119 H3113 0.930 . S
C3119 C3115 1.400 . S
C3119 C3118 1.385 . S
C3120 C3118 1.478 1_565 S
C3120 C3122 1.381 . S
C3120 C3126 1.383 . S
C3121 C3117 1.495 1_565 S
C3121 H3127 0.959 . S
C3121 H3128 0.961 . S
C3121 H3129 0.960 . S
C3122 C3120 1.381 . S
C3122 C3123 1.394 . S
C3122 H3130 0.930 . S
C3123 C3122 1.394 . S
C3123 C3124 1.383 . S
C3123 H3131 0.929 . S
C3124 C3123 1.383 . S
C3124 C3125 1.377 . S
C3125 H3109 0.930 . S
C3125 C3124 1.377 . S
C3125 C3126 1.379 . S
C3126 H3110 0.931 . S
C3126 C3120 1.383 . S
C3126 C3125 1.379 . S
H3127 C3121 0.959 . S
H3128 C3121 0.961 . S
H3129 C3121 0.960 . S
H3130 C3122 0.930 . S
H3131 C3123 0.929 . S
H3132 C3140 0.929 . S
H3133 C3142 0.930 . S
H3134 C3144 0.930 . S
H3135 C3147 0.929 . S
H3136 C3150 0.930 . S
H3137 C3152 0.960 . S
H3138 C3152 0.960 . S
H3139 C3152 0.960 . S
C3140 H3132 0.929 . S
C3140 C3141 1.377 . S
C3140 C3142 1.384 . S
C3141 C3140 1.377 . S
C3141 C3147 1.390 . S
C3142 H3133 0.930 . S
C3142 C3140 1.384 . S
C3142 C3143 1.372 . S
C3143 C3142 1.372 . S
C3143 C3144 1.400 . S
C3143 C3148 1.490 . S
C3144 H3134 0.930 . S
C3144 C3143 1.400 . S
C3144 C3147 1.386 . S
H3145 C3161 0.930 . S
H3146 C3162 0.931 . S
C3147 H3135 0.929 . S
C3147 C3141 1.390 . S
C3147 C3144 1.386 . S
C3148 C3143 1.490 . S
C3148 C3150 1.395 . S
C3148 C3151 1.403 . S
H3149 C3155 0.930 . S
C3150 H3136 0.930 . S
C3150 C3148 1.395 . S
C3150 C3153 1.403 1_655 S
C3151 C3148 1.403 . S
C3151 C3152 1.524 . S
C3151 C3155 1.400 1_655 S
C3152 H3137 0.960 . S
C3152 H3138 0.960 . S
C3152 H3139 0.960 . S
C3152 C3151 1.524 . S
C3153 C3150 1.403 1_455 S
C3153 C3154 1.392 . S
C3153 C3157 1.495 . S
C3154 C3153 1.392 . S
C3154 C3155 1.385 . S
C3154 C3156 1.478 . S
C3155 H3149 0.930 . S
C3155 C3151 1.400 1_455 S
C3155 C3154 1.385 . S
C3156 C3154 1.478 . S
C3156 C3158 1.381 . S
C3156 C3162 1.383 . S
C3157 C3153 1.495 . S
C3157 H3163 0.959 . S
C3157 H3164 0.961 . S
C3157 H3165 0.960 . S
C3158 C3156 1.381 . S
C3158 C3159 1.394 . S
C3158 H3166 0.930 . S
C3159 C3158 1.394 . S
C3159 C3160 1.383 . S
C3159 H3167 0.929 . S
C3160 C3159 1.383 . S
C3160 C3161 1.377 . S
C3161 H3145 0.930 . S
C3161 C3160 1.377 . S
C3161 C3162 1.379 . S
C3162 H3146 0.931 . S
C3162 C3156 1.383 . S
C3162 C3161 1.379 . S
H3163 C3157 0.959 . S
H3164 C3157 0.961 . S
H3165 C3157 0.960 . S
H3166 C3158 0.930 . S
H3167 C3159 0.929 . S
C585 C54 0.867 . S
C604 C17 0.798 . S
C621 C49 0.839 . S
C640 C86 0.897 . S
C657 C81 0.858 . S
C676 C22 0.818 . S
C693 C146 0.865 . S
C712 C117 0.883 1_565 S
C729 C178 0.851 . S
C748 C149 0.793 . S
C765 C181 0.837 . S
C784 C114 0.817 . S
C801 C209 0.837 . S
C820 C246 0.882 . S
C837 C241 0.854 . S
C856 C278 0.876 . S
C873 C214 0.851 . S
C892 C273 0.869 . S
C909 C309 0.845 . S
C928 C338 0.843 . S
C945 C370 0.851 . S
C964 C341 0.793 . S
C981 C373 0.850 . S
C1000 C306 0.865 . S
C1017 C401 0.859 . S
C1036 C438 0.821 . S
C1053 C433 0.859 . S
C1072 C470 0.851 . S
C1089 C465 0.842 . S
C1108 C406 0.899 . S
C1125 C530 0.863 . S
C1144 C501 0.872 . S
C1161 C533 0.837 . S
C1180 C562 0.817 . S
C1197 C565 0.848 . S
C1216 C498 0.852 . S
C1233 C19 1.205 . S
C1252 C180 1.207 . S
C1269 C51 1.207 . S
C1288 C116 1.225 . S
C1305 C83 1.197 . S
C1324 C148 1.237 . S
C1341 C55 1.483 . S
C1360 C176 1.455 . S
C1377 C112 1.464 . S
C1396 C87 1.479 . S
C1413 C23 1.482 . S
C1432 C144 1.452 . S
C1449 C80 1.233 . S
C1468 C119 1.220 . S
C1485 C151 1.204 . S
C1504 C16 1.253 . S
C1521 C183 1.196 . S
C1540 C48 1.232 . S
C1557 C147 1.482 . S
C1576 C84 1.476 . S
C1593 C179 1.483 . S
C1612 C20 1.451 . S
C1629 C52 1.465 . S
C1648 C115 1.481 . S
C1665 C211 1.196 . S
C1684 C372 1.252 . S
C1701 C308 1.234 . S
C1720 C243 1.169 . S
C1737 C340 1.223 . S
C1756 C275 1.221 . S
C1773 C247 1.483 . S
C1792 C368 1.462 . S
C1809 C304 1.464 . S
C1828 C279 1.477 . S
C1845 C336 1.468 . S
C1864 C215 1.477 . S
C1881 C311 1.208 . S
C1900 C272 1.208 . S
C1917 C208 1.223 . S
C1936 C343 1.203 . S
C1953 C240 1.223 . S
C1972 C375 1.195 . S
C1989 C276 1.470 . S
C2008 C339 1.476 . S
C2025 C371 1.482 . S
C2044 C212 1.467 . S
C2061 C307 1.482 . S
C2080 C244 1.469 . S
C2097 C403 1.207 . S
C2116 C564 1.225 . S
C2133 C435 1.196 . S
C2152 C500 1.252 . S
C2169 C532 1.226 . S
C2188 C467 1.198 . S
C2205 C439 1.483 . S
C2224 C560 1.479 . S
C2241 C471 1.482 . S
C2260 C496 1.478 . S
C2277 C528 1.467 . S
C2296 C407 1.482 . S
C2313 C503 1.196 . S
C2332 C464 1.213 . S
C2349 C535 1.199 . S
C2368 C400 1.202 . S
C2385 C567 1.195 . S
C2404 C432 1.230 . S
C2421 C531 1.482 . S
C2440 C468 1.466 . S
C2457 C563 1.482 . S
C2476 C404 1.457 . S
C2493 C499 1.482 . S
C2512 C436 1.468 . S
C2529 C21 2.480 . S
C2548 C434 2.403 . S
C2565 C53 2.480 . S
C2584 C466 2.396 . S
C2601 C402 2.411 . S
C2620 C85 2.478 . S
C2637 C213 2.482 . S
C2656 C50 2.388 . S
C2673 C245 2.480 . S
C2692 C82 2.420 . S
C2709 C18 2.407 . S
C2728 C277 2.480 . S
C2745 C113 2.481 . S
C2764 C342 2.405 . S
C2781 C145 2.482 . S
C2800 C374 2.419 . S
C2817 C310 2.409 . S
C2836 C177 2.477 . S
C2853 C150 2.406 . S
C2872 C497 2.469 . S
C2889 C529 2.481 . S
C2908 C182 2.419 . S
C2925 C561 2.482 . S
C2944 C118 2.423 . S
C2961 C242 2.413 . S
C2980 C405 2.467 . S
C2997 C274 2.412 . S
C3016 C437 2.475 . S
C3033 C469 2.480 . S
C3052 C210 2.421 . S
C3069 C305 2.480 . S
C3088 C534 2.393 . S
C3105 C337 2.478 . S
C3124 C566 2.391 . S
C3141 C369 2.481 . S
C3160 C502 2.413 . S
