# Generated by pormake.
# Topology unc, (4)-cn, num edge types: 1
# Building blocks:
#     Node 0, Type 0, BuildingBlock: QUQFOY_clean_sbu_3, # of connection points: 4
#     Node 1, Type 0, BuildingBlock: QUQFOY_clean_sbu_3, # of connection points: 4
#     Node 2, Type 0, BuildingBlock: QUQFOY_clean_sbu_3, # of connection points: 4
#     Node 3, Type 0, BuildingBlock: QUQFOY_clean_sbu_3, # of connection points: 4
#     Edge 4, Type (0, 0), BuildingBlock: ZUJKAS_clean_linker_0, # of connection points: 2
#     Edge 5, Type (0, 0), BuildingBlock: ZUJKAS_clean_linker_0, # of connection points: 2
#     Edge 6, Type (0, 0), BuildingBlock: ZUJKAS_clean_linker_0, # of connection points: 2
#     Edge 7, Type (0, 0), BuildingBlock: ZUJKAS_clean_linker_0, # of connection points: 2
#     Edge 8, Type (0, 0), BuildingBlock: ZUJKAS_clean_linker_0, # of connection points: 2
#     Edge 9, Type (0, 0), BuildingBlock: ZUJKAS_clean_linker_0, # of connection points: 2
#     Edge 10, Type (0, 0), BuildingBlock: ZUJKAS_clean_linker_0, # of connection points: 2
#     Edge 11, Type (0, 0), BuildingBlock: ZUJKAS_clean_linker_0, # of connection points: 2
# Relax obj value: 0.006
# Max RMSD: 0.046
# Mean RMSD: 0.046
data_MOF--net-unc--node1-QUQFOY_clean_sbu_3--edge1-ZUJKAS_clean_linker_0
_symmetry_space_group_name_H-M    P1
_symmetry_Int_Tables_number       1
_symmetry_cell_setting            triclinic
loop_
_symmetry_equiv_pos_as_xyz
'x, y, z'
_cell_length_a     39.948779
_cell_length_b     40.139895
_cell_length_c     29.826873
_cell_angle_alpha  89.906319
_cell_angle_beta   90.053189
_cell_angle_gamma 94.462814
loop_
_atom_site_label
_atom_site_type_symbol
_atom_site_fract_x
_atom_site_fract_y
_atom_site_fract_z
_atom_type_partial_charge
C0 C 0.03558 0.62292 0.89982 0.0
O1 O 0.06353 0.62968 0.91937 0.0
Cd2 Cd 0.06887 0.66199 0.98684 0.0
O3 O 0.00904 0.63497 0.91427 0.0
Cd4 Cd -0.00894 0.67303 0.97363 0.0
C5 C 0.01005 0.61667 0.05195 0.0
O6 O 0.04116 0.71194 0.97479 0.0
O7 O 0.00664 0.71574 0.02977 0.0
O8 O 0.95812 0.69849 0.91623 0.0
C9 C 0.03312 0.72719 0.00991 0.0
O10 O 0.04061 0.62622 0.04384 0.0
C11 C 0.93112 0.69776 0.93872 0.0
O12 O 0.98637 0.62837 0.02965 0.0
O13 O 0.93159 0.68462 0.97749 0.0
C14 C 0.37193 0.9594 0.33868 0.0
O15 O 0.3656 0.93184 0.31839 0.0
Cd16 Cd 0.33372 0.92708 0.2501 0.0
O17 O 0.35976 0.98591 0.32454 0.0
Cd18 Cd 0.32232 0.00433 0.26462 0.0
C19 C 0.37986 0.98643 0.18719 0.0
O20 O 0.28333 0.95448 0.26079 0.0
O21 O 0.28087 -0.01042 0.20627 0.0
O22 O 0.2945 0.0364 0.32059 0.0
C23 C 0.26892 0.96294 0.2251 0.0
O24 O 0.36982 0.9559 0.19379 0.0
C25 C 0.29672 0.06373 0.2989 0.0
O26 O 0.36829 0.00956 0.21039 0.0
O27 O 0.31179 0.06379 0.26139 0.0
C28 C 0.96321 0.37169 0.40176 0.0
O29 O 0.93516 0.36469 0.42088 0.0
Cd30 Cd 0.92972 0.33182 0.48803 0.0
O31 O -0.01033 0.35944 0.41627 0.0
Cd32 Cd 0.0075 0.32053 0.47486 0.0
C33 C 0.98879 0.37671 0.55328 0.0
O34 O 0.95726 0.28185 0.47555 0.0
O35 O -0.00827 0.27745 0.53056 0.0
O36 O 0.04038 0.29571 0.41702 0.0
C37 C 0.9652 0.26629 0.51054 0.0
O38 O 0.95817 0.36737 0.54513 0.0
C39 C 0.06736 0.29604 0.43959 0.0
O40 O 0.01237 0.36487 0.53106 0.0
O41 O 0.06688 0.30863 0.47864 0.0
C42 C 0.62596 0.03535 0.84001 0.0
O43 O 0.63177 0.06264 0.81881 0.0
Cd44 Cd 0.66334 0.06735 0.75052 0.0
O45 O 0.63826 0.00877 0.8265 0.0
Cd46 Cd 0.67507 -0.00992 0.76592 0.0
C47 C 0.61694 0.0076 0.68867 0.0
O48 O 0.71383 0.04007 0.76134 0.0
O49 O 0.71641 0.00465 0.7074 0.0
O50 O 0.70333 0.95812 0.82183 0.0
C51 C 0.72824 0.03148 0.72578 0.0
O52 O 0.62665 0.03817 0.69543 0.0
C53 C 0.70096 0.93077 0.80034 0.0
O54 O 0.62908 0.98449 0.71146 0.0
O55 O 0.68562 0.93064 0.76299 0.0
H56 H 0.05454 0.58425 0.10223 0.0
H57 H 0.04221 0.54236 0.16036 0.0
H58 H 0.93608 0.55012 0.14127 0.0
H59 H 0.94812 0.59186 0.08228 0.0
H60 H 0.00756 0.54915 0.23985 0.0
H61 H 0.9448 0.4493 0.13318 0.0
H62 H 0.96917 0.48496 0.10993 0.0
H63 H 0.92733 0.48916 0.13004 0.0
C64 C 0.02852 0.57705 0.11017 0.0
C65 C 0.0023 0.59137 0.08742 0.0
C66 C 0.02155 0.55308 0.14346 0.0
C67 C 0.98827 0.54284 0.1547 0.0
C68 C 0.96196 0.55722 0.13245 0.0
H69 H 0.91194 0.40106 0.35985 0.0
H70 H 0.9165 0.44287 0.29984 0.0
C71 C 0.9689 0.5812 0.09894 0.0
C72 C 0.98148 0.51769 0.19057 0.0
H73 H 0.94699 0.43859 0.21107 0.0
C74 C -0.00574 0.525 0.23358 0.0
C75 C 0.96403 0.48627 0.18226 0.0
C76 C 0.95074 0.4767 0.13631 0.0
C77 C -0.00972 0.50162 0.2685 0.0
C78 C 0.97345 0.47 0.25997 0.0
C79 C 0.95995 0.4629 0.2173 0.0
C80 C 0.97054 0.44368 0.29475 0.0
C81 C 0.00405 0.51095 0.31431 0.0
C82 C -0.00062 0.42985 0.3109 0.0
C83 C -0.00307 0.40594 0.34502 0.0
C84 C 0.96551 0.3954 0.3636 0.0
C85 C 0.93653 0.40872 0.34644 0.0
C86 C 0.93904 0.43257 0.31215 0.0
H87 H 0.00899 0.53843 0.31806 0.0
H88 H 0.98638 0.50158 0.34103 0.0
H89 H 0.02809 0.49935 0.31939 0.0
H90 H 0.02387 0.43779 0.29733 0.0
H91 H 0.01973 0.39613 0.35727 0.0
H92 H 0.39494 0.01496 0.38568 0.0
H93 H 0.43617 0.01851 0.44632 0.0
H94 H 0.44273 0.91192 0.44066 0.0
H95 H 0.40137 0.90794 0.37983 0.0
H96 H 0.43769 0.94186 0.53107 0.0
H97 H 0.5378 0.00408 0.42401 0.0
H98 H 0.49827 0.02263 0.42251 0.0
H99 H 0.50103 0.98115 0.40106 0.0
C100 C 0.40493 -0.00782 0.39742 0.0
C101 C 0.39502 0.96118 0.37763 0.0
C102 C 0.42857 -0.00569 0.43197 0.0
C103 C 0.44274 0.96554 0.44739 0.0
C104 C 0.43214 0.9344 0.42893 0.0
H105 H 0.59231 0.94539 0.66006 0.0
H106 H 0.55012 0.93236 0.60168 0.0
C107 C 0.40856 0.93223 0.39418 0.0
C108 C 0.46918 0.96829 0.48214 0.0
H109 H 0.54852 0.00268 0.50219 0.0
C110 C 0.46207 0.95485 0.52482 0.0
C111 C 0.5009 0.98514 0.47356 0.0
C112 C 0.51021 -0.00113 0.42772 0.0
C113 C 0.48551 0.95911 0.5599 0.0
C114 C 0.51697 0.97671 0.55157 0.0
C115 C 0.52433 -0.0107 0.50848 0.0
C116 C 0.54205 0.98402 0.58749 0.0
C117 C 0.47594 0.94594 0.60591 0.0
C118 C 0.55192 0.01734 0.59819 0.0
C119 C 0.57613 0.02487 0.63109 0.0
C120 C 0.59109 -0.00081 0.65401 0.0
C121 C 0.58117 0.96575 0.64322 0.0
C122 C 0.55693 0.95824 0.61007 0.0
H123 H 0.44846 0.93958 0.60893 0.0
H124 H 0.48885 0.92293 0.61247 0.0
H125 H 0.48385 0.96451 0.63215 0.0
H126 H 0.5408 0.03759 0.58105 0.0
H127 H 0.5831 0.0509 0.63849 0.0
H128 H 0.08706 0.59354 0.85875 0.0
H129 H 0.08319 0.55394 0.79637 0.0
H130 H 0.97595 0.56001 0.79137 0.0
H131 H 0.97955 0.59997 0.85308 0.0
H132 H 0.04792 0.49215 0.79392 0.0
H133 H 0.0028 0.57413 0.66085 0.0
H134 H 0.02049 0.59032 0.71288 0.0
H135 H 0.97743 0.5735 0.71051 0.0
C136 C 0.06267 0.58673 0.8441 0.0
C137 C 0.03361 0.60005 0.86083 0.0
C138 C 0.06054 0.56407 0.80849 0.0
C139 C 0.02937 0.55444 0.78884 0.0
C140 C 0.00036 0.56771 0.80537 0.0
H141 H 0.94459 0.40986 0.60292 0.0
H142 H 0.95735 0.45281 0.65949 0.0
C143 C 0.00245 0.59042 0.84086 0.0
C144 C 0.02686 0.52927 0.75252 0.0
H145 H -0.00252 0.51538 0.64616 0.0
C146 C 0.0373 0.4973 0.76139 0.0
C147 C 0.01307 0.53614 0.71011 0.0
C148 C 0.00311 0.57048 0.69778 0.0
C149 C 0.03306 0.47161 0.72954 0.0
C150 C 0.01832 0.47825 0.68772 0.0
C151 C 0.00865 0.5104 0.67842 0.0
C152 C 0.01122 0.45179 0.65386 0.0
C153 C 0.04319 0.43725 0.7414 0.0
C154 C 0.03738 0.43711 0.63189 0.0
C155 C 0.03022 0.41249 0.59937 0.0
C156 C -0.00327 0.40223 0.58832 0.0
C157 C 0.97066 0.41706 0.61061 0.0
C158 C 0.97786 0.44167 0.64291 0.0
H159 H 0.04868 0.43481 0.77773 0.0
H160 H 0.02307 0.41786 0.732 0.0
H161 H 0.06612 0.43225 0.72236 0.0
H162 H 0.06332 0.44494 0.63956 0.0
H163 H 0.05088 0.40167 0.58277 0.0
H164 H 0.40282 0.94493 0.12373 0.0
H165 H 0.44595 0.95817 0.06712 0.0
H166 H 0.4586 0.05964 0.11493 0.0
H167 H 0.41518 0.04678 0.17184 0.0
H168 H 0.44543 0.01553 -0.00053 0.0
H169 H 0.55528 0.01847 0.11523 0.0
H170 H 0.51573 -0.00431 0.12854 0.0
H171 H 0.51947 0.04041 0.13127 0.0
C172 C 0.41471 0.9701 0.12234 0.0
C173 C 0.40559 -0.00521 0.15242 0.0
C174 C 0.4393 0.97758 0.08991 0.0
C175 C 0.45548 0.00975 0.08721 0.0
C176 C 0.44645 0.03459 0.11686 0.0
H177 H 0.58809 0.08445 0.87089 0.0
H178 H 0.54745 0.08056 0.93238 0.0
C179 C 0.4216 0.02721 0.14918 0.0
C180 C 0.48167 0.01709 0.05297 0.0
H181 H 0.56659 0.02772 0.03846 0.0
C182 C 0.47191 0.01852 0.0079 0.0
C183 C 0.51609 0.02065 0.06436 0.0
C184 C 0.52756 0.01862 0.11241 0.0
C185 C 0.49586 0.0232 0.97366 0.0
C186 C 0.53031 0.02654 0.985 0.0
C187 C 0.54008 0.02532 0.03011 0.0
C188 C 0.55651 0.02979 0.95006 0.0
C189 C 0.48433 0.02367 0.9255 0.0
C190 C 0.57542 0.00271 0.94048 0.0
C191 C 0.59855 0.00473 0.90529 0.0
C192 C 0.60331 0.03402 0.87935 0.0
C193 C 0.58503 0.06151 0.89014 0.0
C194 C 0.56175 0.05936 0.92516 0.0
H195 H 0.45706 0.01626 0.92207 0.0
H196 H 0.48932 0.04925 0.91166 0.0
H197 H 0.49856 0.00655 0.90496 0.0
H198 H 0.57166 0.97971 0.95951 0.0
H199 H 0.6123 0.98316 0.89802 0.0
H200 H 0.24044 0.90319 0.256 0.0
H201 H 0.19865 0.86525 0.21816 0.0
H202 H 0.19596 0.9343 0.10753 0.0
H203 H 0.23737 0.97264 0.14539 0.0
H204 H 0.13237 0.90773 0.13453 0.0
H205 H 0.21965 0.80837 0.10914 0.0
H206 H 0.21609 0.82132 0.16643 0.0
H207 H 0.23392 0.85039 0.12542 0.0
C208 C 0.23086 0.91036 0.2237 0.0
C209 C 0.24239 0.94077 0.2035 0.0
C210 C 0.20713 0.88859 0.20204 0.0
C211 C 0.19472 0.89674 0.15972 0.0
C212 C 0.20542 0.9275 0.14007 0.0
H213 H 0.09228 0.75528 0.97603 0.0
H214 H 0.13047 0.79852 0.0105 0.0
C215 C 0.2291 0.94933 0.16173 0.0
C216 C 0.17085 0.87303 0.13568 0.0
H217 H 0.1623 0.79441 0.09171 0.0
C218 C 0.13888 0.88298 0.125 0.0
C219 C 0.17969 0.84101 0.12269 0.0
C220 C 0.2143 0.82966 0.13108 0.0
C221 C 0.1152 0.86141 0.10244 0.0
C222 C 0.12364 0.82892 0.09096 0.0
C223 C 0.15583 0.81926 0.10087 0.0
C224 C 0.09943 0.80435 0.06896 0.0
C225 C 0.08157 0.87373 0.0906 0.0
C226 C 0.06936 0.79332 0.09045 0.0
C227 C 0.04745 0.76871 0.0708 0.0
C228 C 0.05542 0.75447 0.02949 0.0
C229 C 0.08543 0.76578 0.00786 0.0
C230 C 0.10728 0.79045 0.0275 0.0
H231 H 0.08251 0.90147 0.09029 0.0
H232 H 0.07286 0.8643 0.05726 0.0
H233 H 0.06278 0.86454 0.11601 0.0
H234 H 0.06317 0.8032 0.12291 0.0
H235 H 0.02459 0.76042 0.08839 0.0
H236 H 0.26351 0.06994 0.3779 0.0
H237 H 0.2304 0.11565 0.40089 0.0
H238 H 0.25899 0.16963 0.28008 0.0
H239 H 0.29247 0.12399 0.25675 0.0
H240 H 0.2577 0.20977 0.36408 0.0
H241 H 0.14123 0.12861 0.33067 0.0
H242 H 0.1711 0.11073 0.36685 0.0
H243 H 0.18173 0.11936 0.30926 0.0
C244 C 0.26318 0.09171 0.35644 0.0
C245 C 0.28031 0.09319 0.31524 0.0
C246 C 0.24422 0.11777 0.36964 0.0
C247 C 0.24196 0.14572 0.34187 0.0
C248 C 0.26042 0.14817 0.30187 0.0
H249 H 0.07653 0.2723 0.35529 0.0
H250 H 0.12198 0.24002 0.32902 0.0
C251 C 0.27945 0.12206 0.28859 0.0
C252 C 0.21827 0.17098 0.35308 0.0
H253 H 0.13474 0.18041 0.36589 0.0
C254 C 0.2308 0.20352 0.36434 0.0
C255 C 0.18322 0.16276 0.35267 0.0
C256 C 0.16837 0.12857 0.33886 0.0
C257 C 0.20904 0.22794 0.37636 0.0
C258 C 0.17402 0.21932 0.37745 0.0
C259 C 0.1616 0.18695 0.36521 0.0
C260 C 0.14946 0.24308 0.39162 0.0
C261 C 0.22365 0.26275 0.38734 0.0
C262 C 0.15013 0.25605 0.43532 0.0
C263 C 0.12419 0.27469 0.45042 0.0
C264 C 0.09698 0.28029 0.42219 0.0
C265 C 0.09706 0.26832 0.37793 0.0
C266 C 0.12303 0.24988 0.36283 0.0
H267 H 0.24925 0.26774 0.37313 0.0
H268 H 0.20741 0.28184 0.37441 0.0
H269 H 0.22549 0.26553 0.42428 0.0
H270 H 0.16991 0.25054 0.45841 0.0
H271 H 0.12476 0.28346 0.48476 0.0
H272 H 0.75672 0.09137 0.75598 0.0
H273 H 0.79854 0.12911 0.7178 0.0
H274 H 0.80103 0.05964 0.60792 0.0
H275 H 0.75961 0.0215 0.64615 0.0
H276 H 0.86459 0.08597 0.63461 0.0
H277 H 0.77799 0.18587 0.60835 0.0
H278 H 0.7815 0.17311 0.66578 0.0
H279 H 0.76348 0.14398 0.62505 0.0
C280 C 0.76625 0.08407 0.72376 0.0
C281 C 0.75469 0.05359 0.7039 0.0
C282 C 0.78999 0.10574 0.7019 0.0
C283 C 0.80237 0.0974 0.6597 0.0
C284 C 0.7916 0.06659 0.64036 0.0
H285 H 0.90594 0.23874 0.47626 0.0
H286 H 0.86741 0.19559 0.51039 0.0
C287 C 0.76792 0.04487 0.66223 0.0
C288 C 0.82636 0.12094 0.63552 0.0
H289 H 0.83547 0.19957 0.59129 0.0
C290 C 0.85824 0.11078 0.62496 0.0
C291 C 0.81774 0.15304 0.62234 0.0
C292 C 0.78322 0.16462 0.63053 0.0
C293 C 0.88207 0.13221 0.60241 0.0
C294 C 0.87388 0.16478 0.59081 0.0
C295 C 0.84175 0.17466 0.60054 0.0
C296 C 0.8983 0.18926 0.56897 0.0
C297 C 0.91559 0.11964 0.59071 0.0
C298 C 0.92841 0.19998 0.59062 0.0
C299 C 0.95051 0.22453 0.57116 0.0
C300 C 0.94271 0.23903 0.52988 0.0
C301 C 0.91266 0.22804 0.50807 0.0
C302 C 0.89062 0.20342 0.52752 0.0
H303 H 0.91441 0.09189 0.59032 0.0
H304 H 0.92445 0.12914 0.55745 0.0
H305 H 0.93439 0.12857 0.61625 0.0
H306 H 0.93448 0.18991 0.62308 0.0
H307 H 0.97339 0.23258 0.58889 0.0
H308 H 0.73407 0.92437 0.87951 0.0
H309 H 0.76739 0.87875 0.90251 0.0
H310 H 0.73938 0.82525 0.78128 0.0
H311 H 0.70564 0.87077 0.758 0.0
H312 H 0.74073 0.78446 0.86362 0.0
H313 H 0.85697 0.86693 0.8344 0.0
H314 H 0.82684 0.88397 0.87082 0.0
H315 H 0.81655 0.87645 0.81288 0.0
C316 C 0.73459 0.90273 0.85796 0.0
C317 C 0.71752 0.90134 0.81667 0.0
C318 C 0.75368 0.87672 0.87115 0.0
C319 C 0.75618 0.84894 0.84326 0.0
C320 C 0.73779 0.84658 0.80316 0.0
H321 H 0.9222 0.72314 0.85514 0.0
H322 H 0.87674 0.7558 0.82958 0.0
C323 C 0.7186 0.87262 0.78991 0.0
C324 C 0.77999 0.82373 0.85447 0.0
H325 H 0.86351 0.81465 0.86853 0.0
C326 C 0.7676 0.79091 0.86458 0.0
C327 C 0.815 0.83221 0.85497 0.0
C328 C 0.82978 0.86671 0.84232 0.0
C329 C 0.78943 0.76644 0.87628 0.0
C330 C 0.82439 0.77527 0.87821 0.0
C331 C 0.83668 0.80795 0.8672 0.0
C332 C 0.849 0.75138 0.89185 0.0
C333 C 0.77498 0.73134 0.88594 0.0
C334 C 0.84818 0.73752 0.93513 0.0
C335 C 0.87413 0.71868 0.94982 0.0
C336 C 0.90149 0.71374 0.92161 0.0
C337 C 0.90155 0.7266 0.87775 0.0
C338 C 0.87558 0.74525 0.86306 0.0
H339 H 0.74945 0.72649 0.87141 0.0
H340 H 0.79141 0.71264 0.87247 0.0
H341 H 0.77302 0.72773 0.92277 0.0
H342 H 0.82827 0.74248 0.95822 0.0
H343 H 0.87345 0.70921 0.98386 0.0
loop_
_geom_bond_atom_site_label_1
_geom_bond_atom_site_label_2
_geom_bond_distance
_geom_bond_site_symmetry_2
_ccdc_geom_bond_type
C0 O1 1.306 . S
C0 O3 1.160 1_455 S
O1 C0 1.306 . S
O1 Cd2 2.228 1_556 S
Cd2 O1 2.228 1_554 S
Cd2 O6 2.273 . S
Cd2 O10 2.277 . S
O3 C0 1.160 1_655 S
O3 Cd4 2.203 1_556 S
Cd4 O3 2.203 1_554 S
Cd4 O6 2.411 1_655 S
Cd4 O7 2.333 1_655 S
Cd4 O8 2.352 1_554 S
Cd4 O12 2.277 . S
Cd4 O13 2.356 . S
C5 O10 1.209 . S
C5 O12 1.226 1_455 S
O6 Cd2 2.273 . S
O6 Cd4 2.411 1_455 S
O6 C9 1.320 . S
O7 Cd4 2.333 1_455 S
O7 C9 1.214 . S
O8 Cd4 2.352 1_556 S
O8 C11 1.258 . S
C9 O6 1.320 . S
C9 O7 1.214 . S
O10 Cd2 2.277 . S
O10 C5 1.209 . S
C11 O8 1.258 . S
C11 O13 1.282 1_556 S
O12 Cd4 2.277 . S
O12 C5 1.226 1_655 S
O13 Cd4 2.356 . S
O13 C11 1.282 1_554 S
C14 O15 1.306 1_545 S
C14 O17 1.160 . S
O15 C14 1.306 1_565 S
O15 Cd16 2.228 . S
Cd16 O15 2.228 . S
Cd16 O20 2.273 . S
Cd16 O24 2.277 . S
O17 C14 1.160 . S
O17 Cd18 2.203 . S
Cd18 O17 2.203 . S
Cd18 O20 2.411 1_545 S
Cd18 O21 2.333 1_545 S
Cd18 O22 2.352 . S
Cd18 O26 2.277 . S
Cd18 O27 2.356 . S
C19 O24 1.209 1_545 S
C19 O26 1.226 . S
O20 Cd16 2.273 . S
O20 Cd18 2.411 1_565 S
O20 C23 1.320 . S
O21 Cd18 2.333 1_565 S
O21 C23 1.214 . S
O22 Cd18 2.352 . S
O22 C25 1.258 . S
C23 O20 1.320 . S
C23 O21 1.214 . S
O24 Cd16 2.277 . S
O24 C19 1.209 1_565 S
C25 O22 1.258 . S
C25 O27 1.282 . S
O26 Cd18 2.277 . S
O26 C19 1.226 . S
O27 Cd18 2.356 . S
O27 C25 1.282 . S
C28 O29 1.306 1_455 S
C28 O31 1.160 . S
O29 C28 1.306 1_655 S
O29 Cd30 2.228 . S
Cd30 O29 2.228 . S
Cd30 O34 2.273 . S
Cd30 O38 2.277 . S
O31 C28 1.160 . S
O31 Cd32 2.203 . S
Cd32 O31 2.203 . S
Cd32 O34 2.411 1_455 S
Cd32 O35 2.333 1_455 S
Cd32 O36 2.352 . S
Cd32 O40 2.277 . S
Cd32 O41 2.356 . S
C33 O38 1.209 1_455 S
C33 O40 1.226 . S
O34 Cd30 2.273 . S
O34 Cd32 2.411 1_655 S
O34 C37 1.320 . S
O35 Cd32 2.333 1_655 S
O35 C37 1.214 . S
O36 Cd32 2.352 . S
O36 C39 1.258 . S
C37 O34 1.320 . S
C37 O35 1.214 . S
O38 Cd30 2.277 . S
O38 C33 1.209 1_655 S
C39 O36 1.258 . S
C39 O41 1.282 . S
O40 Cd32 2.277 . S
O40 C33 1.226 . S
O41 Cd32 2.356 . S
O41 C39 1.282 . S
C42 O43 1.306 . S
C42 O45 1.160 1_545 S
O43 C42 1.306 . S
O43 Cd44 2.228 . S
Cd44 O43 2.228 . S
Cd44 O48 2.273 . S
Cd44 O52 2.277 . S
O45 C42 1.160 1_565 S
O45 Cd46 2.203 . S
Cd46 O45 2.203 . S
Cd46 O48 2.411 1_565 S
Cd46 O49 2.333 1_565 S
Cd46 O50 2.352 . S
Cd46 O54 2.277 . S
Cd46 O55 2.356 . S
C47 O52 1.209 . S
C47 O54 1.226 1_545 S
O48 Cd44 2.273 . S
O48 Cd46 2.411 1_545 S
O48 C51 1.320 . S
O49 Cd46 2.333 1_545 S
O49 C51 1.214 . S
O50 Cd46 2.352 . S
O50 C53 1.258 . S
C51 O48 1.320 . S
C51 O49 1.214 . S
O52 Cd44 2.277 . S
O52 C47 1.209 . S
C53 O50 1.258 . S
C53 O55 1.282 . S
O54 Cd46 2.277 . S
O54 C47 1.226 1_565 S
O55 Cd46 2.356 . S
O55 C53 1.282 . S
H56 C64 0.929 . S
H57 C66 0.930 . S
H58 C68 0.930 . S
H59 C71 0.929 . S
H60 C74 0.930 . S
H61 C76 0.960 . S
H62 C76 0.960 1_455 S
H63 C76 0.960 . S
C64 H56 0.929 . S
C64 C65 1.377 . S
C64 C66 1.384 . S
C65 C64 1.377 . S
C65 C71 1.390 1_455 S
C66 H57 0.930 . S
C66 C64 1.384 . S
C66 C67 1.372 . S
C67 C66 1.372 . S
C67 C68 1.400 1_455 S
C67 C72 1.490 . S
C68 H58 0.930 . S
C68 C67 1.400 1_655 S
C68 C71 1.386 . S
H69 C85 0.930 . S
H70 C86 0.931 . S
C71 H59 0.929 . S
C71 C65 1.390 1_655 S
C71 C68 1.386 . S
C72 C67 1.490 . S
C72 C74 1.395 . S
C72 C75 1.403 1_455 S
H73 C79 0.931 . S
C74 H60 0.930 . S
C74 C72 1.395 . S
C74 C77 1.403 . S
C75 C72 1.403 1_655 S
C75 C76 1.524 . S
C75 C79 1.400 . S
C76 H61 0.960 . S
C76 H62 0.960 1_655 S
C76 H63 0.960 . S
C76 C75 1.524 . S
C77 C74 1.403 . S
C77 C78 1.392 . S
C77 C81 1.495 . S
C78 C77 1.392 . S
C78 C79 1.385 1_455 S
C78 C80 1.478 . S
C79 H73 0.931 . S
C79 C75 1.400 . S
C79 C78 1.385 1_655 S
C80 C78 1.478 . S
C80 C82 1.381 . S
C80 C86 1.383 1_455 S
C81 C77 1.495 . S
C81 H87 0.959 . S
C81 H88 0.961 . S
C81 H89 0.960 . S
C82 C80 1.381 . S
C82 C83 1.394 . S
C82 H90 0.930 . S
C83 C82 1.394 . S
C83 C84 1.383 . S
C83 H91 0.929 . S
C84 C83 1.383 . S
C84 C85 1.377 1_455 S
C85 H69 0.930 . S
C85 C84 1.377 1_655 S
C85 C86 1.379 . S
C86 H70 0.931 . S
C86 C80 1.383 1_655 S
C86 C85 1.379 . S
H87 C81 0.959 . S
H88 C81 0.961 . S
H89 C81 0.960 . S
H90 C82 0.930 . S
H91 C83 0.929 . S
H92 C100 0.929 . S
H93 C102 0.930 . S
H94 C104 0.930 . S
H95 C107 0.929 . S
H96 C110 0.930 . S
H97 C112 0.960 . S
H98 C112 0.960 . S
H99 C112 0.960 . S
C100 H92 0.929 . S
C100 C101 1.377 . S
C100 C102 1.384 . S
C101 C100 1.377 . S
C101 C107 1.390 1_545 S
C102 H93 0.930 . S
C102 C100 1.384 . S
C102 C103 1.372 . S
C103 C102 1.372 . S
C103 C104 1.400 1_545 S
C103 C108 1.490 . S
C104 H94 0.930 . S
C104 C103 1.400 1_565 S
C104 C107 1.386 . S
H105 C121 0.930 . S
H106 C122 0.931 . S
C107 H95 0.929 . S
C107 C101 1.390 1_565 S
C107 C104 1.386 . S
C108 C103 1.490 . S
C108 C110 1.395 1_545 S
C108 C111 1.403 . S
H109 C115 0.930 . S
C110 H96 0.930 . S
C110 C108 1.395 1_565 S
C110 C113 1.403 . S
C111 C108 1.403 . S
C111 C112 1.524 . S
C111 C115 1.400 . S
C112 H97 0.960 . S
C112 H98 0.960 . S
C112 H99 0.960 . S
C112 C111 1.524 . S
C113 C110 1.403 . S
C113 C114 1.392 1_565 S
C113 C117 1.495 . S
C114 C113 1.392 1_545 S
C114 C115 1.385 . S
C114 C116 1.478 . S
C115 H109 0.930 . S
C115 C111 1.400 . S
C115 C114 1.385 . S
C116 C114 1.478 . S
C116 C118 1.381 . S
C116 C122 1.383 1_545 S
C117 C113 1.495 . S
C117 H123 0.959 . S
C117 H124 0.961 . S
C117 H125 0.960 . S
C118 C116 1.381 . S
C118 C119 1.394 . S
C118 H126 0.930 . S
C119 C118 1.394 . S
C119 C120 1.383 . S
C119 H127 0.929 . S
C120 C119 1.383 . S
C120 C121 1.377 1_545 S
C121 H105 0.930 . S
C121 C120 1.377 1_565 S
C121 C122 1.379 . S
C122 H106 0.931 . S
C122 C116 1.383 1_565 S
C122 C121 1.379 . S
H123 C117 0.959 . S
H124 C117 0.961 . S
H125 C117 0.960 . S
H126 C118 0.930 . S
H127 C119 0.929 . S
H128 C136 0.929 . S
H129 C138 0.930 . S
H130 C140 0.930 . S
H131 C143 0.929 . S
H132 C146 0.930 . S
H133 C148 0.960 . S
H134 C148 0.960 . S
H135 C148 0.960 1_655 S
C136 H128 0.929 . S
C136 C137 1.377 . S
C136 C138 1.384 . S
C137 C136 1.377 . S
C137 C143 1.390 1_455 S
C138 H129 0.930 . S
C138 C136 1.384 . S
C138 C139 1.372 . S
C139 C138 1.372 . S
C139 C140 1.400 1_455 S
C139 C144 1.490 . S
C140 H130 0.930 . S
C140 C139 1.400 1_655 S
C140 C143 1.386 . S
H141 C157 0.930 . S
H142 C158 0.931 . S
C143 H131 0.929 . S
C143 C137 1.390 1_655 S
C143 C140 1.386 . S
C144 C139 1.490 . S
C144 C146 1.395 . S
C144 C147 1.403 . S
H145 C151 0.930 . S
C146 H132 0.930 . S
C146 C144 1.395 . S
C146 C149 1.403 . S
C147 C144 1.403 . S
C147 C148 1.524 . S
C147 C151 1.400 . S
C148 H133 0.960 . S
C148 H134 0.960 . S
C148 H135 0.960 1_455 S
C148 C147 1.524 . S
C149 C146 1.403 . S
C149 C150 1.392 . S
C149 C153 1.495 . S
C150 C149 1.392 . S
C150 C151 1.385 . S
C150 C152 1.478 . S
C151 H145 0.930 . S
C151 C147 1.400 . S
C151 C150 1.385 . S
C152 C150 1.478 . S
C152 C154 1.381 . S
C152 C158 1.383 1_455 S
C153 C149 1.495 . S
C153 H159 0.959 . S
C153 H160 0.972 . S
C153 H161 0.960 . S
C154 C152 1.381 . S
C154 C155 1.394 . S
C154 H162 0.930 . S
C155 C154 1.394 . S
C155 C156 1.383 . S
C155 H163 0.929 . S
C156 C155 1.383 . S
C156 C157 1.377 1_455 S
C157 H141 0.930 . S
C157 C156 1.377 1_655 S
C157 C158 1.379 . S
C158 H142 0.931 . S
C158 C152 1.383 1_655 S
C158 C157 1.379 . S
H159 C153 0.959 . S
H160 C153 0.972 . S
H161 C153 0.960 . S
H162 C154 0.930 . S
H163 C155 0.929 . S
H164 C172 0.929 . S
H165 C174 0.930 . S
H166 C176 0.930 . S
H167 C179 0.929 . S
H168 C182 0.930 . S
H169 C184 0.960 . S
H170 C184 0.960 . S
H171 C184 0.960 1_545 S
C172 H164 0.929 . S
C172 C173 1.377 1_565 S
C172 C174 1.384 . S
C173 C172 1.377 1_545 S
C173 C179 1.390 . S
C174 H165 0.930 . S
C174 C172 1.384 . S
C174 C175 1.372 1_565 S
C175 C174 1.372 1_545 S
C175 C176 1.400 . S
C175 C180 1.490 . S
C176 H166 0.930 . S
C176 C175 1.400 . S
C176 C179 1.386 . S
H177 C193 0.930 . S
H178 C194 0.931 . S
C179 H167 0.929 . S
C179 C173 1.390 . S
C179 C176 1.386 . S
C180 C175 1.490 . S
C180 C182 1.395 1_554 S
C180 C183 1.403 . S
H181 C187 0.932 . S
C182 H168 0.930 . S
C182 C180 1.395 1_556 S
C182 C185 1.403 . S
C183 C180 1.403 . S
C183 C184 1.524 1_545 S
C183 C187 1.400 . S
C184 H169 0.960 . S
C184 H170 0.960 . S
C184 H171 0.960 1_565 S
C184 C183 1.524 1_565 S
C185 C182 1.403 . S
C185 C186 1.392 . S
C185 C189 1.495 . S
C186 C185 1.392 . S
C186 C187 1.385 1_556 S
C186 C188 1.478 . S
C187 H181 0.932 . S
C187 C183 1.400 . S
C187 C186 1.385 1_554 S
C188 C186 1.478 . S
C188 C190 1.381 1_545 S
C188 C194 1.383 . S
C189 C185 1.495 . S
C189 H195 0.959 . S
C189 H196 0.961 . S
C189 H197 0.960 . S
C190 C188 1.381 1_565 S
C190 C191 1.394 . S
C190 H198 0.930 . S
C191 C190 1.394 . S
C191 C192 1.383 1_565 S
C191 H199 0.929 . S
C192 C191 1.383 1_545 S
C192 C193 1.377 . S
C193 H177 0.930 . S
C193 C192 1.377 . S
C193 C194 1.379 . S
C194 H178 0.931 . S
C194 C188 1.383 . S
C194 C193 1.379 . S
H195 C189 0.959 . S
H196 C189 0.961 . S
H197 C189 0.960 . S
H198 C190 0.930 . S
H199 C191 0.929 . S
H200 C208 0.929 . S
H201 C210 0.930 . S
H202 C212 0.930 . S
H203 C215 0.929 . S
H204 C218 0.930 . S
H205 C220 0.960 . S
H206 C220 0.960 . S
H207 C220 0.960 . S
C208 H200 0.929 . S
C208 C209 1.377 . S
C208 C210 1.384 . S
C209 C208 1.377 . S
C209 C215 1.390 . S
C210 H201 0.930 . S
C210 C208 1.384 . S
C210 C211 1.372 . S
C211 C210 1.372 . S
C211 C212 1.400 . S
C211 C216 1.490 . S
C212 H202 0.930 . S
C212 C211 1.400 . S
C212 C215 1.386 . S
H213 C229 0.930 . S
H214 C230 0.931 . S
C215 H203 0.929 . S
C215 C209 1.390 . S
C215 C212 1.386 . S
C216 C211 1.490 . S
C216 C218 1.395 . S
C216 C219 1.403 . S
H217 C223 0.930 . S
C218 H204 0.930 . S
C218 C216 1.395 . S
C218 C221 1.403 . S
C219 C216 1.403 . S
C219 C220 1.524 . S
C219 C223 1.400 . S
C220 H205 0.960 . S
C220 H206 0.960 . S
C220 H207 0.960 . S
C220 C219 1.524 . S
C221 C218 1.403 . S
C221 C222 1.392 . S
C221 C225 1.495 . S
C222 C221 1.392 . S
C222 C223 1.385 . S
C222 C224 1.478 . S
C223 H217 0.930 . S
C223 C219 1.400 . S
C223 C222 1.385 . S
C224 C222 1.478 . S
C224 C226 1.381 . S
C224 C230 1.383 . S
C225 C221 1.495 . S
C225 H231 0.959 . S
C225 H232 0.961 . S
C225 H233 0.960 . S
C226 C224 1.381 . S
C226 C227 1.394 . S
C226 H234 0.930 . S
C227 C226 1.394 . S
C227 C228 1.383 . S
C227 H235 0.929 . S
C228 C227 1.383 . S
C228 C229 1.377 . S
C229 H213 0.930 . S
C229 C228 1.377 . S
C229 C230 1.379 . S
C230 H214 0.931 . S
C230 C224 1.383 . S
C230 C229 1.379 . S
H231 C225 0.959 . S
H232 C225 0.961 . S
H233 C225 0.960 . S
H234 C226 0.930 . S
H235 C227 0.929 . S
H236 C244 0.929 . S
H237 C246 0.930 . S
H238 C248 0.930 . S
H239 C251 0.929 . S
H240 C254 0.930 . S
H241 C256 0.960 . S
H242 C256 0.960 . S
H243 C256 0.960 . S
C244 H236 0.929 . S
C244 C245 1.377 . S
C244 C246 1.384 . S
C245 C244 1.377 . S
C245 C251 1.390 . S
C246 H237 0.930 . S
C246 C244 1.384 . S
C246 C247 1.372 . S
C247 C246 1.372 . S
C247 C248 1.400 . S
C247 C252 1.490 . S
C248 H238 0.930 . S
C248 C247 1.400 . S
C248 C251 1.386 . S
H249 C265 0.930 . S
H250 C266 0.931 . S
C251 H239 0.929 . S
C251 C245 1.390 . S
C251 C248 1.386 . S
C252 C247 1.490 . S
C252 C254 1.395 . S
C252 C255 1.403 . S
H253 C259 0.930 . S
C254 H240 0.930 . S
C254 C252 1.395 . S
C254 C257 1.403 . S
C255 C252 1.403 . S
C255 C256 1.524 . S
C255 C259 1.400 . S
C256 H241 0.960 . S
C256 H242 0.960 . S
C256 H243 0.960 . S
C256 C255 1.524 . S
C257 C254 1.403 . S
C257 C258 1.392 . S
C257 C261 1.495 . S
C258 C257 1.392 . S
C258 C259 1.385 . S
C258 C260 1.478 . S
C259 H253 0.930 . S
C259 C255 1.400 . S
C259 C258 1.385 . S
C260 C258 1.478 . S
C260 C262 1.381 . S
C260 C266 1.383 . S
C261 C257 1.495 . S
C261 H267 0.959 . S
C261 H268 0.961 . S
C261 H269 0.960 . S
C262 C260 1.381 . S
C262 C263 1.394 . S
C262 H270 0.930 . S
C263 C262 1.394 . S
C263 C264 1.383 . S
C263 H271 0.929 . S
C264 C263 1.383 . S
C264 C265 1.377 . S
C265 H249 0.930 . S
C265 C264 1.377 . S
C265 C266 1.379 . S
C266 H250 0.931 . S
C266 C260 1.383 . S
C266 C265 1.379 . S
H267 C261 0.959 . S
H268 C261 0.961 . S
H269 C261 0.960 . S
H270 C262 0.930 . S
H271 C263 0.929 . S
H272 C280 0.929 . S
H273 C282 0.930 . S
H274 C284 0.930 . S
H275 C287 0.929 . S
H276 C290 0.930 . S
H277 C292 0.960 . S
H278 C292 0.960 . S
H279 C292 0.960 . S
C280 H272 0.929 . S
C280 C281 1.377 . S
C280 C282 1.384 . S
C281 C280 1.377 . S
C281 C287 1.390 . S
C282 H273 0.930 . S
C282 C280 1.384 . S
C282 C283 1.372 . S
C283 C282 1.372 . S
C283 C284 1.400 . S
C283 C288 1.490 . S
C284 H274 0.930 . S
C284 C283 1.400 . S
C284 C287 1.386 . S
H285 C301 0.930 . S
H286 C302 0.931 . S
C287 H275 0.929 . S
C287 C281 1.390 . S
C287 C284 1.386 . S
C288 C283 1.490 . S
C288 C290 1.395 . S
C288 C291 1.403 . S
H289 C295 0.930 . S
C290 H276 0.930 . S
C290 C288 1.395 . S
C290 C293 1.403 . S
C291 C288 1.403 . S
C291 C292 1.524 . S
C291 C295 1.400 . S
C292 H277 0.960 . S
C292 H278 0.960 . S
C292 H279 0.960 . S
C292 C291 1.524 . S
C293 C290 1.403 . S
C293 C294 1.392 . S
C293 C297 1.495 . S
C294 C293 1.392 . S
C294 C295 1.385 . S
C294 C296 1.478 . S
C295 H289 0.930 . S
C295 C291 1.400 . S
C295 C294 1.385 . S
C296 C294 1.478 . S
C296 C298 1.381 . S
C296 C302 1.383 . S
C297 C293 1.495 . S
C297 H303 0.959 . S
C297 H304 0.961 . S
C297 H305 0.960 . S
C298 C296 1.381 . S
C298 C299 1.394 . S
C298 H306 0.930 . S
C299 C298 1.394 . S
C299 C300 1.383 . S
C299 H307 0.929 . S
C300 C299 1.383 . S
C300 C301 1.377 . S
C301 H285 0.930 . S
C301 C300 1.377 . S
C301 C302 1.379 . S
C302 H286 0.931 . S
C302 C296 1.383 . S
C302 C301 1.379 . S
H303 C297 0.959 . S
H304 C297 0.961 . S
H305 C297 0.960 . S
H306 C298 0.930 . S
H307 C299 0.929 . S
H308 C316 0.929 . S
H309 C318 0.930 . S
H310 C320 0.930 . S
H311 C323 0.929 . S
H312 C326 0.930 . S
H313 C328 0.960 . S
H314 C328 0.960 . S
H315 C328 0.960 . S
C316 H308 0.929 . S
C316 C317 1.377 . S
C316 C318 1.384 . S
C317 C316 1.377 . S
C317 C323 1.390 . S
C318 H309 0.930 . S
C318 C316 1.384 . S
C318 C319 1.372 . S
C319 C318 1.372 . S
C319 C320 1.400 . S
C319 C324 1.490 . S
C320 H310 0.930 . S
C320 C319 1.400 . S
C320 C323 1.386 . S
H321 C337 0.930 . S
H322 C338 0.931 . S
C323 H311 0.929 . S
C323 C317 1.390 . S
C323 C320 1.386 . S
C324 C319 1.490 . S
C324 C326 1.395 . S
C324 C327 1.403 . S
H325 C331 0.930 . S
C326 H312 0.930 . S
C326 C324 1.395 . S
C326 C329 1.403 . S
C327 C324 1.403 . S
C327 C328 1.524 . S
C327 C331 1.400 . S
C328 H313 0.960 . S
C328 H314 0.960 . S
C328 H315 0.960 . S
C328 C327 1.524 . S
C329 C326 1.403 . S
C329 C330 1.392 . S
C329 C333 1.495 . S
C330 C329 1.392 . S
C330 C331 1.385 . S
C330 C332 1.478 . S
C331 H325 0.930 . S
C331 C327 1.400 . S
C331 C330 1.385 . S
C332 C330 1.478 . S
C332 C334 1.381 . S
C332 C338 1.383 . S
C333 C329 1.495 . S
C333 H339 0.959 . S
C333 H340 0.961 . S
C333 H341 0.960 . S
C334 C332 1.381 . S
C334 C335 1.394 . S
C334 H342 0.930 . S
C335 C334 1.394 . S
C335 C336 1.383 . S
C335 H343 0.929 1_556 S
C336 C335 1.383 . S
C336 C337 1.377 . S
C337 H321 0.930 . S
C337 C336 1.377 . S
C337 C338 1.379 . S
C338 H322 0.931 . S
C338 C332 1.383 . S
C338 C337 1.379 . S
H339 C333 0.959 . S
H340 C333 0.961 . S
H341 C333 0.960 . S
H342 C334 0.930 . S
H343 C335 0.929 1_554 S
C65 C5 1.381 . S
C84 C28 1.370 . S
C101 C14 1.380 . S
C120 C47 1.381 . S
C137 C0 1.378 . S
C156 C33 1.381 . S
C173 C19 1.381 . S
C192 C42 1.367 . S
C209 C23 1.473 . S
C228 C9 1.461 . S
C245 C25 1.475 . S
C264 C39 1.470 . S
C281 C51 1.473 . S
C300 C37 1.461 . S
C317 C53 1.476 . S
C336 C11 1.473 . S
