# Generated by pormake.
# Topology wmc, (6)-cn, num edge types: 1
# Building blocks:
#     Node 0, Type 0, BuildingBlock: VOLQOD_clean_sbu_1, # of connection points: 6
#     Node 1, Type 0, BuildingBlock: VOLQOD_clean_sbu_1, # of connection points: 6
#     Node 2, Type 0, BuildingBlock: VOLQOD_clean_sbu_1, # of connection points: 6
#     Node 3, Type 0, BuildingBlock: VOLQOD_clean_sbu_1, # of connection points: 6
#     Node 4, Type 0, BuildingBlock: VOLQOD_clean_sbu_1, # of connection points: 6
#     Node 5, Type 0, BuildingBlock: VOLQOD_clean_sbu_1, # of connection points: 6
#     Node 6, Type 0, BuildingBlock: VOLQOD_clean_sbu_1, # of connection points: 6
#     Node 7, Type 0, BuildingBlock: VOLQOD_clean_sbu_1, # of connection points: 6
#     Node 8, Type 0, BuildingBlock: VOLQOD_clean_sbu_1, # of connection points: 6
#     Node 9, Type 0, BuildingBlock: VOLQOD_clean_sbu_1, # of connection points: 6
#     Node 10, Type 0, BuildingBlock: VOLQOD_clean_sbu_1, # of connection points: 6
#     Node 11, Type 0, BuildingBlock: VOLQOD_clean_sbu_1, # of connection points: 6
#     Node 12, Type 0, BuildingBlock: VOLQOD_clean_sbu_1, # of connection points: 6
#     Node 13, Type 0, BuildingBlock: VOLQOD_clean_sbu_1, # of connection points: 6
#     Node 14, Type 0, BuildingBlock: VOLQOD_clean_sbu_1, # of connection points: 6
#     Node 15, Type 0, BuildingBlock: VOLQOD_clean_sbu_1, # of connection points: 6
#     Node 16, Type 0, BuildingBlock: VOLQOD_clean_sbu_1, # of connection points: 6
#     Node 17, Type 0, BuildingBlock: VOLQOD_clean_sbu_1, # of connection points: 6
#     Edge 18, Type (0, 0), BuildingBlock: KIFKEQ_clean_linker_1, # of connection points: 2
#     Edge 19, Type (0, 0), BuildingBlock: KIFKEQ_clean_linker_1, # of connection points: 2
#     Edge 20, Type (0, 0), BuildingBlock: KIFKEQ_clean_linker_1, # of connection points: 2
#     Edge 21, Type (0, 0), BuildingBlock: KIFKEQ_clean_linker_1, # of connection points: 2
#     Edge 22, Type (0, 0), BuildingBlock: KIFKEQ_clean_linker_1, # of connection points: 2
#     Edge 23, Type (0, 0), BuildingBlock: KIFKEQ_clean_linker_1, # of connection points: 2
#     Edge 24, Type (0, 0), BuildingBlock: KIFKEQ_clean_linker_1, # of connection points: 2
#     Edge 25, Type (0, 0), BuildingBlock: KIFKEQ_clean_linker_1, # of connection points: 2
#     Edge 26, Type (0, 0), BuildingBlock: KIFKEQ_clean_linker_1, # of connection points: 2
#     Edge 27, Type (0, 0), BuildingBlock: KIFKEQ_clean_linker_1, # of connection points: 2
#     Edge 28, Type (0, 0), BuildingBlock: KIFKEQ_clean_linker_1, # of connection points: 2
#     Edge 29, Type (0, 0), BuildingBlock: KIFKEQ_clean_linker_1, # of connection points: 2
#     Edge 30, Type (0, 0), BuildingBlock: KIFKEQ_clean_linker_1, # of connection points: 2
#     Edge 31, Type (0, 0), BuildingBlock: KIFKEQ_clean_linker_1, # of connection points: 2
#     Edge 32, Type (0, 0), BuildingBlock: KIFKEQ_clean_linker_1, # of connection points: 2
#     Edge 33, Type (0, 0), BuildingBlock: KIFKEQ_clean_linker_1, # of connection points: 2
#     Edge 34, Type (0, 0), BuildingBlock: KIFKEQ_clean_linker_1, # of connection points: 2
#     Edge 35, Type (0, 0), BuildingBlock: KIFKEQ_clean_linker_1, # of connection points: 2
#     Edge 36, Type (0, 0), BuildingBlock: KIFKEQ_clean_linker_1, # of connection points: 2
#     Edge 37, Type (0, 0), BuildingBlock: KIFKEQ_clean_linker_1, # of connection points: 2
#     Edge 38, Type (0, 0), BuildingBlock: KIFKEQ_clean_linker_1, # of connection points: 2
#     Edge 39, Type (0, 0), BuildingBlock: KIFKEQ_clean_linker_1, # of connection points: 2
#     Edge 40, Type (0, 0), BuildingBlock: KIFKEQ_clean_linker_1, # of connection points: 2
#     Edge 41, Type (0, 0), BuildingBlock: KIFKEQ_clean_linker_1, # of connection points: 2
#     Edge 42, Type (0, 0), BuildingBlock: KIFKEQ_clean_linker_1, # of connection points: 2
#     Edge 43, Type (0, 0), BuildingBlock: KIFKEQ_clean_linker_1, # of connection points: 2
#     Edge 44, Type (0, 0), BuildingBlock: KIFKEQ_clean_linker_1, # of connection points: 2
#     Edge 45, Type (0, 0), BuildingBlock: KIFKEQ_clean_linker_1, # of connection points: 2
#     Edge 46, Type (0, 0), BuildingBlock: KIFKEQ_clean_linker_1, # of connection points: 2
#     Edge 47, Type (0, 0), BuildingBlock: KIFKEQ_clean_linker_1, # of connection points: 2
#     Edge 48, Type (0, 0), BuildingBlock: KIFKEQ_clean_linker_1, # of connection points: 2
#     Edge 49, Type (0, 0), BuildingBlock: KIFKEQ_clean_linker_1, # of connection points: 2
#     Edge 50, Type (0, 0), BuildingBlock: KIFKEQ_clean_linker_1, # of connection points: 2
#     Edge 51, Type (0, 0), BuildingBlock: KIFKEQ_clean_linker_1, # of connection points: 2
#     Edge 52, Type (0, 0), BuildingBlock: KIFKEQ_clean_linker_1, # of connection points: 2
#     Edge 53, Type (0, 0), BuildingBlock: KIFKEQ_clean_linker_1, # of connection points: 2
#     Edge 54, Type (0, 0), BuildingBlock: KIFKEQ_clean_linker_1, # of connection points: 2
#     Edge 55, Type (0, 0), BuildingBlock: KIFKEQ_clean_linker_1, # of connection points: 2
#     Edge 56, Type (0, 0), BuildingBlock: KIFKEQ_clean_linker_1, # of connection points: 2
#     Edge 57, Type (0, 0), BuildingBlock: KIFKEQ_clean_linker_1, # of connection points: 2
#     Edge 58, Type (0, 0), BuildingBlock: KIFKEQ_clean_linker_1, # of connection points: 2
#     Edge 59, Type (0, 0), BuildingBlock: KIFKEQ_clean_linker_1, # of connection points: 2
#     Edge 60, Type (0, 0), BuildingBlock: KIFKEQ_clean_linker_1, # of connection points: 2
#     Edge 61, Type (0, 0), BuildingBlock: KIFKEQ_clean_linker_1, # of connection points: 2
#     Edge 62, Type (0, 0), BuildingBlock: KIFKEQ_clean_linker_1, # of connection points: 2
#     Edge 63, Type (0, 0), BuildingBlock: KIFKEQ_clean_linker_1, # of connection points: 2
#     Edge 64, Type (0, 0), BuildingBlock: KIFKEQ_clean_linker_1, # of connection points: 2
#     Edge 65, Type (0, 0), BuildingBlock: KIFKEQ_clean_linker_1, # of connection points: 2
#     Edge 66, Type (0, 0), BuildingBlock: KIFKEQ_clean_linker_1, # of connection points: 2
#     Edge 67, Type (0, 0), BuildingBlock: KIFKEQ_clean_linker_1, # of connection points: 2
#     Edge 68, Type (0, 0), BuildingBlock: KIFKEQ_clean_linker_1, # of connection points: 2
#     Edge 69, Type (0, 0), BuildingBlock: KIFKEQ_clean_linker_1, # of connection points: 2
#     Edge 70, Type (0, 0), BuildingBlock: KIFKEQ_clean_linker_1, # of connection points: 2
#     Edge 71, Type (0, 0), BuildingBlock: KIFKEQ_clean_linker_1, # of connection points: 2
# Relax obj value: 0.292
# Max RMSD: 0.168
# Mean RMSD: 0.168
data_MOF--net-wmc--node1-VOLQOD_clean_sbu_1--edge1-KIFKEQ_clean_linker_1
_symmetry_space_group_name_H-M    P1
_symmetry_Int_Tables_number       1
_symmetry_cell_setting            triclinic
loop_
_symmetry_equiv_pos_as_xyz
'x, y, z'
_cell_length_a     50.307302
_cell_length_b     50.276873
_cell_length_c     32.25652
_cell_angle_alpha  90.045677
_cell_angle_beta   89.959617
_cell_angle_gamma 120.13922
loop_
_atom_site_label
_atom_site_type_symbol
_atom_site_fract_x
_atom_site_fract_y
_atom_site_fract_z
_atom_type_partial_charge
O0 O 0.66877 0.17759 0.96159 0.0
Zn1 Zn 0.64075 0.13185 0.95935 0.0
O2 O 0.60586 0.12008 -0.00626 0.0
Zn3 Zn 0.57213 0.11491 0.96196 0.0
Zn4 Zn 0.61701 0.15226 0.03291 0.0
Zn5 Zn 0.59361 0.0812 0.01973 0.0
O6 O 0.53428 0.07685 0.97924 0.0
O7 O 0.55401 0.0465 -0.01013 0.0
O8 O 0.62779 0.11716 0.90106 0.0
O9 O 0.57948 0.10747 0.90402 0.0
O10 O 0.56519 0.15091 0.96598 0.0
O11 O 0.5938 0.17401 0.02131 0.0
O12 O 0.60353 0.13438 0.08914 0.0
O13 O 0.66512 0.11496 -0.01543 0.0
O14 O 0.57913 0.08405 0.07633 0.0
O15 O 0.63357 0.07903 0.02904 0.0
C16 C 0.67712 0.19419 -0.00581 0.0
C17 C 0.53092 0.05009 0.98192 0.0
C18 C 0.57488 0.17184 -0.00645 0.0
C19 C 0.60171 0.10814 0.88429 0.0
C20 C 0.58598 0.10663 0.1005 0.0
C21 C 0.66034 0.09543 0.01287 0.0
O22 O 0.6617 0.18476 0.02777 0.0
O23 O 0.85058 0.50675 0.95191 0.0
Zn24 Zn 0.89602 0.52229 0.95385 0.0
O25 O 0.90406 0.49683 -0.0108 0.0
Zn26 Zn 0.90877 0.46723 0.95922 0.0
Zn27 Zn 0.8698 0.47731 0.02534 0.0
Zn28 Zn 0.94182 0.52128 0.01838 0.0
O29 O 0.94552 0.46578 0.97902 0.0
O30 O 0.9767 0.5157 -0.00924 0.0
O31 O 0.9132 0.52383 0.89704 0.0
O32 O 0.9187 0.48254 0.90153 0.0
O33 O 0.87111 0.42485 0.96202 0.0
O34 O 0.84444 0.43304 0.01003 0.0
O35 O 0.88458 0.4778 0.08287 0.0
O36 O 0.91294 0.5631 0.98151 0.0
O37 O 0.93535 0.50185 0.0741 0.0
O38 O 0.94507 0.56363 0.02936 0.0
C39 C 0.83365 0.50073 -0.01603 0.0
C40 C 0.97254 0.48877 0.98273 0.0
C41 C 0.84734 0.41519 -0.01517 0.0
C42 C 0.92085 0.50532 0.8814 0.0
C43 C 0.9115 0.48626 0.09631 0.0
C44 C 0.93048 0.57571 0.01257 0.0
O45 O 0.8416 0.49458 0.01863 0.0
O46 O 0.52255 0.35322 0.96207 0.0
Zn47 Zn 0.50597 0.38215 0.95871 0.0
O48 O 0.53133 0.41913 -0.01084 0.0
Zn49 Zn 0.55749 0.45198 0.95302 0.0
Zn50 Zn 0.55599 0.40974 0.0239 0.0
Zn51 Zn 0.5066 0.43133 0.02121 0.0
O52 O 0.55698 0.4899 0.96923 0.0
O53 O 0.50939 0.47082 -0.00594 0.0
O54 O 0.50201 0.39168 0.89941 0.0
O55 O 0.53899 0.44099 0.89664 0.0
O56 O 0.60156 0.46039 0.95163 0.0
O57 O 0.59806 0.42849 0.00141 0.0
O58 O 0.5606 0.42914 0.07875 0.0
O59 O 0.4658 0.35905 -0.01229 0.0
O60 O 0.52786 0.44674 0.07611 0.0
O61 O 0.46499 0.3912 0.03453 0.0
C62 C 0.53257 0.34685 -0.00536 0.0
C63 C 0.53462 0.49347 0.98003 0.0
C64 C 0.61354 0.4481 0.97364 0.0
C65 C 0.51726 0.41696 0.87988 0.0
C66 C 0.54879 0.44403 0.09445 0.0
C67 C 0.45314 0.36422 0.01843 0.0
O68 O 0.54142 0.36475 0.02593 0.0
O69 O 0.84714 0.35142 0.4602 0.0
Zn70 Zn 0.89272 0.38067 0.45729 0.0
O71 O 0.90385 0.41444 0.49364 0.0
Zn72 Zn 0.90837 0.44915 0.46512 0.0
Zn73 Zn 0.87151 0.40074 0.53304 0.0
Zn74 Zn 0.94278 0.4269 0.51916 0.0
O75 O 0.94672 0.48672 0.48233 0.0
O76 O 0.97714 0.46676 0.48934 0.0
O77 O 0.90598 0.39565 0.39905 0.0
O78 O 0.91405 0.44331 0.40576 0.0
O79 O 0.87245 0.45557 0.47327 0.0
O80 O 0.84676 0.42095 0.52204 0.0
O81 O 0.88946 0.41514 0.5891 0.0
O82 O 0.9107 0.3564 0.48016 0.0
O83 O 0.93975 0.44088 0.57608 0.0
O84 O 0.94495 0.38694 0.52715 0.0
C85 C 0.83158 0.34115 0.4935 0.0
C86 C 0.97348 0.49001 0.48304 0.0
C87 C 0.84968 0.44223 0.49788 0.0
C88 C 0.91352 0.42194 0.38393 0.0
C89 C 0.91709 0.43338 0.60035 0.0
C90 C 0.92942 0.36063 0.50942 0.0
O91 O 0.84155 0.3554 0.52782 0.0
O92 O 0.67321 0.50057 0.46702 0.0
Zn93 Zn 0.64526 0.51775 0.46109 0.0
O94 O 0.6078 0.49258 0.49017 0.0
Zn95 Zn 0.57792 0.4651 0.45189 0.0
Zn96 Zn 0.61706 0.46965 0.52882 0.0
Zn97 Zn 0.5938 0.51769 0.51774 0.0
O98 O 0.53972 0.46631 0.45916 0.0
O99 O 0.55493 0.51293 0.48539 0.0
O100 O 0.63832 0.52205 0.40106 0.0
O101 O 0.59142 0.48114 0.39489 0.0
O102 O 0.56936 0.42134 0.45617 0.0
O103 O 0.59865 0.42628 0.51018 0.0
O104 O 0.59662 0.46733 0.58249 0.0
O105 O 0.66737 0.55787 0.48948 0.0
O106 O 0.57711 0.49812 0.57307 0.0
O107 O 0.63338 0.56015 0.53137 0.0
C108 C 0.68 0.49226 0.50079 0.0
C109 C 0.53457 0.48809 0.46729 0.0
C110 C 0.58016 0.40992 0.48176 0.0
C111 C 0.61492 0.50424 0.37946 0.0
C112 C 0.5805 0.47886 0.59468 0.0
C113 C 0.66101 0.57147 0.51767 0.0
O114 O 0.66247 0.48508 0.5324 0.0
O115 O 0.52069 0.17242 0.45656 0.0
Zn116 Zn 0.50366 0.12665 0.45751 0.0
O117 O 0.52826 0.11706 0.49207 0.0
Zn118 Zn 0.55711 0.1117 0.46126 0.0
Zn119 Zn 0.54879 0.15099 0.52849 0.0
Zn120 Zn 0.50297 0.07918 0.52079 0.0
O121 O 0.55791 0.07455 0.48074 0.0
O122 O 0.5079 0.04394 0.49258 0.0
O123 O 0.50116 0.10961 0.40044 0.0
O124 O 0.54121 0.10209 0.40379 0.0
O125 O 0.59988 0.14879 0.46348 0.0
O126 O 0.59298 0.17565 0.51255 0.0
O127 O 0.54843 0.13556 0.58535 0.0
O128 O 0.46307 0.11058 0.48524 0.0
O129 O 0.52253 0.08477 0.5763 0.0
O130 O 0.46096 0.07707 0.53208 0.0
C131 C 0.52689 0.18887 0.48916 0.0
C132 C 0.53467 0.0477 0.48454 0.0
C133 C 0.61026 0.17245 0.48668 0.0
C134 C 0.5187 0.10097 0.38419 0.0
C135 C 0.53915 0.10838 0.59846 0.0
C136 C 0.44975 0.09262 0.51569 0.0
O137 O 0.53241 0.18 0.5235 0.0
O138 O 0.33377 0.50665 0.29392 0.0
Zn139 Zn 0.30448 0.46096 0.29145 0.0
O140 O 0.2704 0.45013 0.32681 0.0
Zn141 Zn 0.23576 0.44448 0.29682 0.0
Zn142 Zn 0.28338 0.4839 0.36317 0.0
Zn143 Zn 0.25883 0.41247 0.35575 0.0
O144 O 0.19848 0.40679 0.31647 0.0
O145 O 0.21887 0.377 0.32746 0.0
O146 O 0.29009 0.4461 0.23343 0.0
O147 O 0.24173 0.43608 0.23857 0.0
O148 O 0.22968 0.48121 0.2998 0.0
O149 O 0.26596 0.50982 0.34523 0.0
O150 O 0.26516 0.46803 0.41848 0.0
O151 O 0.32879 0.44379 0.31616 0.0
O152 O 0.24464 0.41725 0.41182 0.0
O153 O 0.29923 0.41105 0.36513 0.0
C154 C 0.34411 0.52148 0.32777 0.0
C155 C 0.19548 0.3802 0.31982 0.0
C156 C 0.24449 0.50588 0.32075 0.0
C157 C 0.26359 0.4368 0.21774 0.0
C158 C 0.24914 0.44078 0.43238 0.0
C159 C 0.32526 0.42619 0.34659 0.0
O160 O 0.32915 0.51149 0.36157 0.0
O161 O 0.51044 0.83763 0.30404 0.0
Zn162 Zn 0.55499 0.85187 0.29472 0.0
O163 O 0.56589 0.82539 0.32378 0.0
Zn164 Zn 0.56514 0.79663 0.28477 0.0
Zn165 Zn 0.53489 0.80343 0.36502 0.0
Zn166 Zn 0.60604 0.84994 0.34945 0.0
O167 O 0.6068 0.80233 0.28085 0.0
O168 O 0.63927 0.84486 0.31546 0.0
O169 O 0.56233 0.85296 0.23335 0.0
O170 O 0.55555 0.80578 0.22878 0.0
O171 O 0.53463 0.75252 0.2979 0.0
O172 O 0.51141 0.75854 0.35235 0.0
O173 O 0.55428 0.80562 0.41952 0.0
O174 O 0.5759 0.893 0.32063 0.0
O175 O 0.60418 0.83034 0.40442 0.0
O176 O 0.61016 0.89277 0.36399 0.0
C177 C 0.4942 0.82648 0.33656 0.0
C178 C 0.63402 0.82214 0.29162 0.0
C179 C 0.51403 0.74131 0.32581 0.0
C180 C 0.55792 0.82977 0.2121 0.0
C181 C 0.58203 0.81444 0.42916 0.0
C182 C 0.59544 0.90554 0.3496 0.0
O183 O 0.50308 0.81622 0.36638 0.0
O184 O 0.18515 0.68321 0.29381 0.0
Zn185 Zn 0.16831 0.71176 0.29023 0.0
O186 O 0.19214 0.74702 0.32423 0.0
Zn187 Zn 0.22169 0.77942 0.29143 0.0
Zn188 Zn 0.21204 0.73547 0.36467 0.0
Zn189 Zn 0.16642 0.76057 0.34989 0.0
O190 O 0.22128 0.81767 0.30349 0.0
O191 O 0.17171 0.79944 0.31733 0.0
O192 O 0.16748 0.72363 0.23082 0.0
O193 O 0.20866 0.77062 0.23293 0.0
O194 O 0.26448 0.78682 0.29904 0.0
O195 O 0.25735 0.75837 0.355 0.0
O196 O 0.20709 0.74904 0.4206 0.0
O197 O 0.12699 0.68808 0.31598 0.0
O198 O 0.18427 0.77613 0.40629 0.0
O199 O 0.12423 0.72053 0.36049 0.0
C200 C 0.19313 0.67497 0.32668 0.0
C201 C 0.1981 0.82139 0.30526 0.0
C202 C 0.27493 0.77729 0.32774 0.0
C203 C 0.18655 0.74881 0.21329 0.0
C204 C 0.19858 0.76805 0.43119 0.0
C205 C 0.11315 0.69342 0.34503 0.0
O206 O 0.19932 0.6907 0.36 0.0
O207 O 0.51391 0.68432 0.78431 0.0
Zn208 Zn 0.55953 0.71534 0.78723 0.0
O209 O 0.56711 0.75052 0.81939 0.0
Zn210 Zn 0.57435 0.78429 0.78539 0.0
Zn211 Zn 0.53064 0.73762 0.8501 0.0
Zn212 Zn 0.60221 0.7639 0.85547 0.0
O213 O 0.6108 0.82256 0.80573 0.0
O214 O 0.63956 0.8039 0.83032 0.0
O215 O 0.57789 0.72856 0.73009 0.0
O216 O 0.58599 0.77645 0.72989 0.0
O217 O 0.53782 0.79083 0.78139 0.0
O218 O 0.50687 0.75557 0.82639 0.0
O219 O 0.54096 0.75438 0.90684 0.0
O220 O 0.57616 0.69299 0.81919 0.0
O221 O 0.59204 0.77821 0.90863 0.0
O222 O 0.60449 0.7245 0.87006 0.0
C223 C 0.49574 0.67578 0.81536 0.0
C224 C 0.6368 0.8265 0.81683 0.0
C225 C 0.51217 0.77657 0.8003 0.0
C226 C 0.58726 0.75443 0.71229 0.0
C227 C 0.56638 0.77186 0.92484 0.0
C228 C 0.59166 0.69798 0.85242 0.0
O229 O 0.50257 0.69231 0.84789 0.0
O230 O 0.33787 0.84024 0.78421 0.0
Zn231 Zn 0.30791 0.8556 0.78643 0.0
O232 O 0.27482 0.82995 0.82221 0.0
Zn233 Zn 0.2404 0.79999 0.79276 0.0
Zn234 Zn 0.29012 0.81095 0.85813 0.0
Zn235 Zn 0.2614 0.85392 0.85198 0.0
O236 O 0.20231 0.7983 0.81343 0.0
O237 O 0.22113 0.84835 0.82401 0.0
O238 O 0.29169 0.85656 0.72968 0.0
O239 O 0.24508 0.81489 0.73485 0.0
O240 O 0.23621 0.75791 0.7955 0.0
O241 O 0.27215 0.76698 0.84218 0.0
O242 O 0.27529 0.81034 0.91576 0.0
O243 O 0.33183 0.89649 0.81399 0.0
O244 O 0.24788 0.83357 0.90721 0.0
O245 O 0.30065 0.89625 0.86319 0.0
C246 C 0.3492 0.83458 0.81609 0.0
C247 C 0.19831 0.8213 0.81646 0.0
C248 C 0.25116 0.74882 0.81747 0.0
C249 C 0.26547 0.83769 0.71435 0.0
C250 C 0.25616 0.81793 0.92915 0.0
C251 C 0.32716 0.90872 0.84571 0.0
O252 O 0.33568 0.82904 0.85117 0.0
O253 O 0.19093 0.51121 0.79316 0.0
Zn254 Zn 0.1716 0.46541 0.79138 0.0
O255 O 0.19573 0.45238 0.82158 0.0
Zn256 Zn 0.22097 0.44573 0.7841 0.0
Zn257 Zn 0.22113 0.48517 0.85851 0.0
Zn258 Zn 0.16932 0.41433 0.85083 0.0
O259 O 0.22011 0.40708 0.79885 0.0
O260 O 0.17244 0.37788 0.82299 0.0
O261 O 0.16567 0.45114 0.73245 0.0
O262 O 0.20242 0.43883 0.72806 0.0
O263 O 0.26522 0.48026 0.78364 0.0
O264 O 0.26511 0.50335 0.84226 0.0
O265 O 0.21864 0.46894 0.91527 0.0
O266 O 0.13204 0.45003 0.82094 0.0
O267 O 0.18841 0.41848 0.90672 0.0
O268 O 0.12758 0.41301 0.86316 0.0
C269 C 0.20341 0.52888 0.82414 0.0
C270 C 0.19783 0.3809 0.80907 0.0
C271 C 0.27931 0.50033 0.81166 0.0
C272 C 0.18045 0.44101 0.71221 0.0
C273 C 0.20666 0.44152 0.92877 0.0
C274 C 0.11761 0.43035 0.84923 0.0
O275 O 0.2123 0.52006 0.85559 0.0
O276 O 1.00411 0.84021 0.62414 0.0
Zn277 Zn 0.97535 0.79434 0.6239 0.0
O278 O 0.94079 0.78391 0.65843 0.0
Zn279 Zn 0.90655 0.7783 0.62752 0.0
Zn280 Zn 0.95355 0.81749 0.69539 0.0
Zn281 Zn 0.92821 0.74573 0.6865 0.0
O282 O 0.86858 0.74098 0.64666 0.0
O283 O 0.88794 0.71046 0.65853 0.0
O284 O 0.96124 0.77806 0.56634 0.0
O285 O 0.91318 0.76925 0.56997 0.0
O286 O 0.9004 0.81491 0.63006 0.0
O287 O 0.9334 0.84159 0.68001 0.0
O288 O 0.93861 0.80141 0.75204 0.0
O289 O 0.99967 0.77791 0.651 0.0
O290 O 0.91455 0.75068 0.74262 0.0
O291 O 0.96794 0.7434 0.69677 0.0
C292 C 0.01376 0.85653 0.65694 0.0
C293 C 0.86491 0.71416 0.65063 0.0
C294 C 0.91307 0.83828 0.65382 0.0
C295 C 0.93493 0.76897 0.55014 0.0
C296 C 0.92129 0.77407 0.76508 0.0
C297 C 0.99481 0.75932 0.68067 0.0
O298 O 0.99889 0.8473 0.69093 0.0
O299 O 0.18145 0.16614 0.62377 0.0
Zn300 Zn 0.22725 0.18411 0.62402 0.0
O301 O 0.23771 0.16 0.65813 0.0
Zn302 Zn 0.2432 0.13153 0.62658 0.0
Zn303 Zn 0.20417 0.13888 0.6949 0.0
Zn304 Zn 0.27569 0.18585 0.68637 0.0
O305 O 0.28053 0.13112 0.64563 0.0
O306 O 0.31094 0.18118 0.65771 0.0
O307 O 0.24413 0.18729 0.56678 0.0
O308 O 0.25265 0.14785 0.56931 0.0
O309 O 0.20636 0.08852 0.62834 0.0
O310 O 0.17988 0.09473 0.6786 0.0
O311 O 0.22015 0.13946 0.75144 0.0
O312 O 0.24286 0.22457 0.65166 0.0
O313 O 0.27084 0.16667 0.74204 0.0
O314 O 0.27734 0.22774 0.69757 0.0
C315 C 0.16518 0.1596 0.65657 0.0
C316 C 0.30731 0.15446 0.6494 0.0
C317 C 0.18295 0.07776 0.65202 0.0
C318 C 0.25326 0.17028 0.55012 0.0
C319 C 0.2475 0.14956 0.76435 0.0
C320 C 0.26121 0.23841 0.68153 0.0
O321 O 0.17457 0.15452 0.69077 0.0
O322 O 0.85219 0.01439 0.62503 0.0
Zn323 Zn 0.83632 0.04393 0.62274 0.0
O324 O 0.86202 0.07934 0.65529 0.0
Zn325 Zn 0.89074 0.11139 0.62127 0.0
Zn326 Zn 0.88285 0.06711 0.69302 0.0
Zn327 Zn 0.83823 0.0941 0.68352 0.0
O328 O 0.89229 0.15029 0.63571 0.0
O329 O 0.8431 0.13279 0.65112 0.0
O330 O 0.83357 0.05567 0.56378 0.0
O331 O 0.8747 0.10275 0.56396 0.0
O332 O 0.93323 0.11706 0.62422 0.0
O333 O 0.92674 0.08552 0.67615 0.0
O334 O 0.88388 0.08462 0.74883 0.0
O335 O 0.79596 0.02166 0.65144 0.0
O336 O 0.85902 0.11026 0.73829 0.0
O337 O 0.7958 0.05504 0.69676 0.0
C338 C 0.85929 1.00554 0.65814 0.0
C339 C 0.86938 0.1544 0.63817 0.0
C340 C 0.94375 0.10477 0.64878 0.0
C341 C 0.85176 0.08089 0.54557 0.0
C342 C 0.87558 0.10351 0.76088 0.0
C343 C 0.78348 0.02775 0.68153 0.0
O344 O 0.86595 0.02144 0.69134 0.0
O345 O 0.18103 0.02164 0.1281 0.0
Zn346 Zn 0.2268 0.05014 0.1256 0.0
O347 O 0.23858 0.08485 0.16032 0.0
Zn348 Zn 0.24438 0.11928 0.12958 0.0
Zn349 Zn 0.20568 0.07278 0.19824 0.0
Zn350 Zn 0.27687 0.09657 0.18752 0.0
O351 O 0.28258 0.15674 0.14766 0.0
O352 O 0.31229 0.13631 0.15866 0.0
O353 O 0.24147 0.06366 0.06749 0.0
O354 O 0.25182 0.11223 0.0714 0.0
O355 O 0.20839 0.1263 0.1336 0.0
O356 O 0.18158 0.09297 0.18316 0.0
O357 O 0.22277 0.0886 0.25418 0.0
O358 O 0.24358 0.02556 0.15048 0.0
O359 O 0.27326 0.1112 0.24365 0.0
O360 O 0.27811 0.05607 0.19716 0.0
C361 C 0.1656 0.01224 0.16164 0.0
C362 C 0.30915 0.15973 0.15094 0.0
C363 C 0.18505 0.1136 0.15738 0.0
C364 C 0.2508 0.08998 0.05118 0.0
C365 C 0.25036 0.10556 0.26649 0.0
C366 C 0.26212 0.02963 0.17987 0.0
O367 O 0.17568 0.02741 0.19528 0.0
O368 O 1.00686 0.17099 0.12571 0.0
Zn369 Zn 0.97691 0.18635 0.12301 0.0
O370 O 0.94171 0.16069 0.15596 0.0
Zn371 Zn 0.90962 0.13159 0.12241 0.0
Zn372 Zn 0.95447 0.14043 0.19389 0.0
Zn373 Zn 0.92691 0.18437 0.18431 0.0
O374 O 0.87078 0.13026 0.13647 0.0
O375 O 0.8881 0.1794 0.15222 0.0
O376 O 0.96494 0.18834 0.06393 0.0
O377 O 0.9181 0.14689 0.06473 0.0
O378 O 0.90411 0.08919 0.12638 0.0
O379 O 0.93656 0.09651 0.17743 0.0
O380 O 0.93696 0.13925 0.24969 0.0
O381 O 0.99911 0.22701 0.15102 0.0
O382 O 0.9108 0.16355 0.23909 0.0
O383 O 0.9661 0.22666 0.19744 0.0
C384 C 0.01604 0.16459 0.1591 0.0
C385 C 0.86655 0.1531 0.13922 0.0
C386 C 0.91695 0.07911 0.15069 0.0
C387 C 0.93979 0.16973 0.04594 0.0
C388 C 0.91781 0.1472 0.2617 0.0
C389 C 0.99321 0.23922 0.18164 0.0
O390 O 1.00018 0.15804 0.19231 0.0
O391 O 0.85844 0.84234 0.12649 0.0
Zn392 Zn 0.84091 0.79665 0.12492 0.0
O393 O 0.86339 0.78556 0.16109 0.0
Zn394 Zn 0.89285 0.78016 0.13198 0.0
Zn395 Zn 0.88333 0.81847 0.19918 0.0
Zn396 Zn 0.83637 0.74717 0.18763 0.0
O397 O 0.89198 0.74232 0.15151 0.0
O398 O 0.84135 0.71238 0.1583 0.0
O399 O 0.84074 0.78148 0.06745 0.0
O400 O 0.87939 0.77205 0.07339 0.0
O401 O 0.93569 0.81665 0.13666 0.0
O402 O 0.92803 0.84304 0.18562 0.0
O403 O 0.88087 0.8013 0.25546 0.0
O404 O 0.79909 0.77994 0.14846 0.0
O405 O 0.85386 0.75075 0.2443 0.0
O406 O 0.79426 0.7455 0.19569 0.0
C407 C 0.86387 0.8581 0.15964 0.0
C408 C 0.86816 0.71568 0.15223 0.0
C409 C 0.94577 0.83995 0.16045 0.0
C410 C 0.85824 0.77244 0.05222 0.0
C411 C 0.87042 0.77369 0.2676 0.0
C412 C 0.78406 0.76136 0.17761 0.0
O413 O 0.86792 0.84822 0.19413 0.0
H414 H 0.55688 0.19316 0.9276 0.0
H415 H 0.56881 0.20088 0.06046 0.0
H416 H 0.54418 0.23411 0.9283 0.0
H417 H 0.55451 0.24036 0.06171 0.0
H418 H 0.56957 0.3361 0.04463 0.0
H419 H 0.57707 0.29212 0.04396 0.0
H420 H 0.50899 0.25029 0.94693 0.0
H421 H 0.50266 0.29536 0.9463 0.0
C422 C 0.55622 0.20327 0.95699 0.0
C423 C 0.56424 0.19427 -0.00613 0.0
C424 C 0.54878 0.22659 0.95749 0.0
C425 C 0.54871 0.24088 -0.00497 0.0
C426 C 0.55522 0.23058 0.03209 0.0
C427 C 0.56325 0.20781 0.03145 0.0
C428 C 0.55604 0.31743 0.02334 0.0
C429 C 0.53553 0.31914 -0.00447 0.0
C430 C 0.56018 0.29205 0.0231 0.0
C431 C 0.54348 0.26746 -0.00444 0.0
C432 C 0.52255 0.26897 0.96815 0.0
C433 C 0.51877 0.29469 0.96793 0.0
H434 H 0.71243 0.22436 0.92661 0.0
H435 H 0.70328 0.23493 0.05804 0.0
H436 H 0.7545 0.27748 0.92307 0.0
H437 H 0.74566 0.28767 0.05454 0.0
H438 H 0.79182 0.38896 0.02359 0.0
H439 H 0.75236 0.33512 0.02508 0.0
H440 H 0.80774 0.31299 0.94563 0.0
H441 H 0.8474 0.36739 0.94344 0.0
C442 C 0.7196 0.23787 0.95483 0.0
C443 C 0.70427 0.22549 -0.00745 0.0
C444 C 0.7438 0.26825 0.95279 0.0
C445 C 0.75315 0.28683 -0.01158 0.0
C446 C 0.73855 0.2741 0.02637 0.0
C447 C 0.71435 0.2438 0.02841 0.0
C448 C 0.79569 0.37272 0.00631 0.0
C449 C 0.82289 0.38249 0.98357 0.0
C450 C 0.7731 0.34178 0.00743 0.0
C451 C 0.77712 0.31976 -0.01404 0.0
C452 C 0.80398 0.32949 0.9624 0.0
C453 C 0.82669 0.36061 0.96121 0.0
H454 H 0.65959 0.49751 0.93116 0.0
H455 H 0.64156 0.41885 0.00608 0.0
H456 H 0.71472 0.51426 0.93159 0.0
H457 H 0.69577 0.43547 0.00637 0.0
H458 H 0.79315 0.49085 0.04633 0.0
H459 H 0.74086 0.48103 0.04016 0.0
H460 H 0.75257 0.49559 0.90797 0.0
H461 H 0.8054 0.50576 0.91396 0.0
C462 C 0.66727 0.48368 0.94724 0.0
C463 C 0.64626 0.45713 0.96909 0.0
C464 C 0.69872 0.49326 0.94751 0.0
C465 C 0.70945 0.47648 0.9698 0.0
C466 C 0.68822 0.44928 -0.01013 0.0
C467 C 0.65709 0.43971 -0.0105 0.0
C468 C 0.78483 0.49231 0.01594 0.0
C469 C 0.8033 0.49857 0.98055 0.0
C470 C 0.75484 0.48664 0.01243 0.0
C471 C 0.74259 0.48707 0.97349 0.0
C472 C 0.76151 0.49512 0.93832 0.0
C473 C 0.79166 0.50079 0.94181 0.0
H474 H 0.70384 0.47813 0.56786 0.0
H475 H 0.71859 0.49924 0.437 0.0
H476 H 0.74712 0.46909 0.56866 0.0
H477 H 0.76114 0.48935 0.43763 0.0
H478 H 0.85131 0.49154 0.45932 0.0
H479 H 0.81269 0.50725 0.46255 0.0
H480 H 0.75646 0.42967 0.54184 0.0
H481 H 0.79521 0.41446 0.53958 0.0
C482 C 0.71636 0.48095 0.53933 0.0
C483 C 0.70762 0.48915 0.50232 0.0
C484 C 0.74104 0.47562 0.53974 0.0
C485 C 0.75735 0.47824 0.50312 0.0
C486 C 0.74925 0.48745 0.46645 0.0
C487 C 0.7247 0.49293 0.46607 0.0
C488 C 0.83072 0.47788 0.47747 0.0
C489 C 0.82631 0.45174 0.49913 0.0
C490 C 0.80859 0.48685 0.47926 0.0
C491 C 0.78159 0.46976 0.50259 0.0
C492 C 0.77727 0.44367 0.52426 0.0
C493 C 0.7994 0.4348 0.52265 0.0
H494 H 0.53286 0.22667 0.55344 0.0
H495 H 0.52731 0.22049 0.41969 0.0
H496 H 0.54283 0.27917 0.54981 0.0
H497 H 0.53799 0.27351 0.41614 0.0
H498 H 0.53557 0.36444 0.43296 0.0
H499 H 0.51899 0.30951 0.43383 0.0
H500 H 0.58768 0.32668 0.52664 0.0
H501 H 0.60381 0.38083 0.52635 0.0
C502 C 0.53363 0.23645 0.52324 0.0
C503 C 0.52973 0.21954 0.48683 0.0
C504 C 0.53946 0.26658 0.52117 0.0
C505 C 0.54171 0.2806 0.48265 0.0
C506 C 0.53631 0.26327 0.44625 0.0
C507 C 0.53033 0.23296 0.44832 0.0
C508 C 0.54713 0.35641 0.45341 0.0
C509 C 0.57082 0.37698 0.47983 0.0
C510 C 0.53768 0.32503 0.45386 0.0
C511 C 0.55173 0.31377 0.48079 0.0
C512 C 0.57587 0.33451 0.50632 0.0
C513 C 0.58525 0.36566 0.50591 0.0
H514 H 0.65658 0.17257 0.44112 0.0
H515 H 0.63845 0.2266 0.52897 0.0
H516 H 0.71131 0.21137 0.44247 0.0
H517 H 0.69257 0.26512 0.52974 0.0
H518 H 0.79298 0.31176 0.55837 0.0
H519 H 0.74026 0.26934 0.55538 0.0
H520 H 0.74691 0.26577 0.42219 0.0
H521 H 0.80002 0.30796 0.42511 0.0
C522 C 0.66418 0.19274 0.46046 0.0
C523 C 0.64315 0.19637 0.48513 0.0
C524 C 0.69548 0.21494 0.46117 0.0
C525 C 0.70624 0.24105 0.48663 0.0
C526 C 0.68509 0.2449 0.51053 0.0
C527 C 0.65398 0.22286 0.50982 0.0
C528 C 0.78336 0.3018 0.52845 0.0
C529 C 0.80062 0.3135 0.49194 0.0
C530 C 0.75309 0.27758 0.52673 0.0
C531 C 0.73933 0.26454 0.48848 0.0
C532 C 0.75695 0.27529 0.45212 0.0
C533 C 0.78732 0.29956 0.45382 0.0
H534 H 0.18632 0.63824 0.26009 0.0
H535 H 0.20863 0.64996 0.39076 0.0
H536 H 0.19735 0.59624 0.25715 0.0
H537 H 0.21904 0.60771 0.38782 0.0
H538 H 0.19524 0.50392 0.28094 0.0
H539 H 0.18011 0.54321 0.28221 0.0
H540 H 0.26003 0.60178 0.3563 0.0
H541 H 0.27488 0.56279 0.35564 0.0
C542 C 0.19321 0.63165 0.28828 0.0
C543 C 0.19695 0.6477 0.32557 0.0
C544 C 0.19938 0.6075 0.28658 0.0
C545 C 0.2094 0.59898 0.32212 0.0
C546 C 0.21194 0.61421 0.35973 0.0
C547 C 0.20582 0.63832 0.36144 0.0
C548 C 0.20962 0.52527 0.29728 0.0
C549 C 0.23611 0.53011 0.31847 0.0
C550 C 0.20098 0.54773 0.29796 0.0
C551 C 0.21866 0.57534 0.31987 0.0
C552 C 0.24555 0.58044 0.33999 0.0
C553 C 0.25415 0.55812 0.33934 0.0
H554 H 0.46645 0.71052 0.37961 0.0
H555 H 0.51184 0.69639 0.27504 0.0
H556 H 0.42858 0.65619 0.38015 0.0
H557 H 0.47404 0.64146 0.27633 0.0
H558 H 0.37562 0.55626 0.26062 0.0
H559 H 0.41961 0.60836 0.26092 0.0
H560 H 0.42201 0.60635 0.39477 0.0
H561 H 0.37753 0.55468 0.39456 0.0
C562 C 0.46859 0.69577 0.35699 0.0
C563 C 0.49213 0.70786 0.32716 0.0
C564 C 0.44696 0.6645 0.35753 0.0
C565 C 0.44838 0.64447 0.32841 0.0
C566 C 0.47221 0.65639 0.29895 0.0
C567 C 0.4939 0.68781 0.29833 0.0
C568 C 0.38575 0.56682 0.29008 0.0
C569 C 0.37281 0.55156 0.32759 0.0
C570 C 0.41108 0.59662 0.29024 0.0
C571 C 0.42407 0.6116 0.3279 0.0
C572 C 0.4121 0.59566 0.36528 0.0
C573 C 0.38667 0.56602 0.36515 0.0
H574 H 0.47277 0.85773 0.29139 0.0
H575 H 0.44622 0.78776 0.38553 0.0
H576 H 0.42076 0.84969 0.29119 0.0
H577 H 0.39412 0.77863 0.38397 0.0
H578 H 0.30778 0.78175 0.3966 0.0
H579 H 0.36207 0.79811 0.40114 0.0
H580 H 0.37089 0.81305 0.26854 0.0
H581 H 0.31675 0.7982 0.26457 0.0
C582 C 0.4558 0.84066 0.31205 0.0
C583 C 0.46351 0.82336 0.33847 0.0
C584 C 0.42596 0.83589 0.31174 0.0
C585 C 0.40315 0.81342 0.33742 0.0
C586 C 0.41115 0.79656 0.36434 0.0
C587 C 0.44104 0.80166 0.36511 0.0
C588 C 0.32141 0.7887 0.36847 0.0
C589 C 0.30808 0.78844 0.33016 0.0
C590 C 0.3525 0.79795 0.37102 0.0
C591 C 0.37084 0.80654 0.33515 0.0
C592 C 0.35759 0.80696 0.29689 0.0
C593 C 0.32653 0.79825 0.2945 0.0
H594 H 0.51768 0.82795 0.76152 0.0
H595 H 0.45331 0.74577 0.82794 0.0
H596 H 0.48016 0.84561 0.76297 0.0
H597 H 0.41651 0.76343 0.82937 0.0
H598 H 0.37805 0.82082 0.87673 0.0
H599 H 0.41894 0.80888 0.86842 0.0
H600 H 0.42391 0.82903 0.73766 0.0
H601 H 0.38276 0.84119 0.74574 0.0
C602 C 0.49547 0.81349 0.7758 0.0
C603 C 0.48865 0.78569 0.79515 0.0
C604 C 0.47411 0.82362 0.77667 0.0
C605 C 0.44583 0.80615 0.7971 0.0
C606 C 0.43847 0.77767 0.81432 0.0
C607 C 0.45956 0.76753 0.81329 0.0
C608 C 0.388 0.8231 0.84624 0.0
C609 C 0.37679 0.8315 0.81178 0.0
C610 C 0.41136 0.81616 0.8415 0.0
C611 C 0.42411 0.81756 0.80228 0.0
C612 C 0.41434 0.82774 0.76819 0.0
C613 C 0.39076 0.83458 0.77287 0.0
H614 H 0.2246 0.57143 0.88649 0.0
H615 H 0.19342 0.55778 0.75924 0.0
H616 H 0.23468 0.62405 0.88377 0.0
H617 H 0.20431 0.61074 0.75628 0.0
H618 H 0.2013 0.69967 0.78121 0.0
H619 H 0.18807 0.64577 0.78297 0.0
H620 H 0.27162 0.6714 0.85075 0.0
H621 H 0.28443 0.72476 0.84989 0.0
C622 C 0.21994 0.57965 0.85792 0.0
C623 C 0.2084 0.56045 0.82302 0.0
C624 C 0.22587 0.60987 0.85629 0.0
C625 C 0.22057 0.62164 0.81966 0.0
C626 C 0.20839 0.60227 0.78504 0.0
C627 C 0.20232 0.57197 0.78671 0.0
C628 C 0.21687 0.69375 0.79629 0.0
C629 C 0.24377 0.71645 0.81567 0.0
C630 C 0.20933 0.66292 0.79723 0.0
C631 C 0.22863 0.6543 0.81743 0.0
C632 C 0.25589 0.67717 0.8358 0.0
C633 C 0.26333 0.70783 0.83504 0.0
H634 H 0.31873 0.51988 0.87604 0.0
H635 H 0.31521 0.52664 0.74301 0.0
H636 H 0.37296 0.55853 0.87557 0.0
H637 H 0.36956 0.56688 0.74252 0.0
H638 H 0.47428 0.62976 0.75668 0.0
H639 H 0.42344 0.58327 0.75426 0.0
H640 H 0.39811 0.61223 0.86647 0.0
H641 H 0.44851 0.65744 0.86965 0.0
C642 C 0.32971 0.52968 0.84663 0.0
C643 C 0.31282 0.52074 0.80964 0.0
C644 C 0.36074 0.55193 0.84634 0.0
C645 C 0.37544 0.56641 0.80914 0.0
C646 C 0.35895 0.55616 0.77169 0.0
C647 C 0.32786 0.53326 0.77193 0.0
C648 C 0.45784 0.62594 0.78093 0.0
C649 C 0.46552 0.6472 0.81349 0.0
C650 C 0.42871 0.59942 0.77945 0.0
C651 C 0.4068 0.59382 0.81041 0.0
C652 C 0.41462 0.61527 0.8427 0.0
C653 C 0.44359 0.64143 0.84437 0.0
H654 H 0.86906 0.97729 0.72374 0.0
H655 H 0.85624 0.97091 0.59079 0.0
H656 H 0.87931 0.93492 0.72178 0.0
H657 H 0.8672 0.92885 0.58884 0.0
H658 H 0.86612 0.83717 0.60889 0.0
H659 H 0.84946 0.87528 0.61008 0.0
H660 H 0.92243 0.93052 0.69619 0.0
H661 H 0.93867 0.89259 0.69567 0.0
C662 C 0.86826 0.96676 0.69411 0.0
C663 C 0.8622 0.97773 0.65736 0.0
C664 C 0.87429 0.94257 0.69297 0.0
C665 C 0.87454 0.9289 0.65507 0.0
C666 C 0.86706 0.93886 0.61853 0.0
C667 C 0.86091 0.96304 0.61966 0.0
C668 C 0.87861 0.85751 0.62796 0.0
C669 C 0.90361 0.86175 0.65236 0.0
C670 C 0.8691 0.87931 0.62859 0.0
C671 C 0.8844 0.90567 0.65364 0.0
C672 C 0.90971 0.9101 0.67733 0.0
C673 C 0.91916 0.88842 0.67675 0.0
H674 H 0.12875 0.04931 0.69399 0.0
H675 H 0.18278 0.03173 0.60553 0.0
H676 H 0.09011 0.99524 0.69387 0.0
H677 H 0.14383 0.97697 0.60599 0.0
H678 H 0.04688 0.88813 0.58843 0.0
H679 H 0.08929 0.94126 0.58566 0.0
H680 H 0.08598 0.94754 0.71894 0.0
H681 H 0.04343 0.89492 0.72176 0.0
C682 C 0.13247 0.0339 0.67454 0.0
C683 C 0.15902 0.04487 0.64996 0.0
C684 C 0.11035 1.00281 0.67471 0.0
C685 C 0.11415 0.98178 0.65041 0.0
C686 C 0.1403 0.9927 0.625 0.0
C687 C 0.16259 0.024 0.62481 0.0
C688 C 0.05542 0.90077 0.61716 0.0
C689 C 0.04149 0.88744 0.65527 0.0
C690 C 0.07978 0.93114 0.61556 0.0
C691 C 0.09064 0.94867 0.65201 0.0
C692 C 0.07765 0.93481 0.69022 0.0
C693 C 0.05333 0.90459 0.69183 0.0
H694 H 0.97192 0.07932 0.69183 0.0
H695 H 0.98974 0.1502 0.60197 0.0
H696 H 0.02607 0.09517 0.6925 0.0
H697 H 0.04445 0.16645 0.60328 0.0
H698 H 0.12641 0.15046 0.72101 0.0
H699 H 0.07352 0.13927 0.71748 0.0
H700 H 0.08029 0.14809 0.58413 0.0
H701 H 0.13361 0.15995 0.5876 0.0
C702 C 0.98739 0.09834 0.67222 0.0
C703 C 0.97652 0.11362 0.64702 0.0
C704 C 0.0185 0.10756 0.67286 0.0
C705 C 0.03954 0.13234 0.64842 0.0
C706 C 0.02869 0.14722 0.62238 0.0
C707 C 0.99741 0.13795 0.6217 0.0
C708 C 0.11677 0.15028 0.69093 0.0
C709 C 0.13411 0.15574 0.65454 0.0
C710 C 0.08641 0.14372 0.68891 0.0
C711 C 0.07265 0.14234 0.65047 0.0
C712 C 0.09033 0.14909 0.61419 0.0
C713 C 0.12082 0.15577 0.6162 0.0
H714 H 0.13148 0.0889 0.20079 0.0
H715 H 0.18562 0.1599 0.11142 0.0
H716 H 0.09334 0.10484 0.20082 0.0
H717 H 0.1473 0.17626 0.11211 0.0
H718 H 0.04531 0.15722 0.22544 0.0
H719 H 0.08842 0.14812 0.22445 0.0
H720 H 0.09342 0.15721 0.09108 0.0
H721 H 0.0506 0.16703 0.09203 0.0
C722 C 0.13535 0.10803 0.18123 0.0
C723 C 0.16169 0.12319 0.15617 0.0
C724 C 0.11355 0.11732 0.18153 0.0
C725 C 0.11752 0.14205 0.15688 0.0
C726 C 0.14362 0.15705 0.13135 0.0
C727 C 0.16555 0.14772 0.13102 0.0
C728 C 0.05576 0.1576 0.19591 0.0
C729 C 0.04426 0.16244 0.15876 0.0
C730 C 0.08039 0.15226 0.19534 0.0
C731 C 0.09396 0.15147 0.15762 0.0
C732 C 0.08349 0.1578 0.12063 0.0
C733 C 0.05887 0.16328 0.12119 0.0
H734 H 0.8635 0.88963 0.09071 0.0
H735 H 0.8727 0.8968 0.22417 0.0
H736 H 0.87489 0.9428 0.08723 0.0
H737 H 0.88345 0.9496 0.22061 0.0
H738 H 0.87159 0.03262 0.10443 0.0
H739 H 0.85578 0.97802 0.1063 0.0
H740 H 0.92728 0.9974 0.19554 0.0
H741 H 0.94273 0.05149 0.19431 0.0
C742 C 0.86754 0.90238 0.11933 0.0
C743 C 0.86757 0.88912 0.15769 0.0
C744 C 0.87393 0.93278 0.1173 0.0
C745 C 0.88043 0.95042 0.15359 0.0
C746 C 0.87915 0.93673 0.19205 0.0
C747 C 0.87284 0.90642 0.19408 0.0
C748 C 0.88398 0.0252 0.12429 0.0
C749 C 0.90829 0.04637 0.14941 0.0
C750 C 0.87496 0.99398 0.1253 0.0
C751 C 0.89006 0.98344 0.15146 0.0
C752 C 0.91475 1.00474 0.17578 0.0
C753 C 0.92374 0.0358 0.17481 0.0
H754 H 0.12873 0.98304 0.228 0.0
H755 H 0.13293 0.97807 0.09449 0.0
H756 H 0.07657 0.9395 0.22723 0.0
H757 H 0.08033 0.9348 0.09377 0.0
H758 H 0.97372 0.89325 0.20473 0.0
H759 H 0.02753 0.9327 0.20449 0.0
H760 H 0.04666 0.88068 0.11468 0.0
H761 H 0.99225 0.84107 0.11425 0.0
C762 C 0.11858 0.97262 0.19848 0.0
C763 C 0.13488 0.98426 0.16126 0.0
C764 C 0.08863 0.94774 0.19804 0.0
C765 C 0.07422 0.93399 0.16039 0.0
C766 C 0.09089 0.94481 0.12328 0.0
C767 C 0.12096 0.9697 0.12371 0.0
C768 C 0.98929 0.89008 0.1849 0.0
C769 C 0.97865 0.86392 0.15956 0.0
C770 C 0.02024 0.91265 0.18501 0.0
C771 C 0.04139 0.90965 0.1599 0.0
C772 C 0.03083 0.88366 0.13423 0.0
C773 C 0.99972 0.86096 0.13409 0.0
H774 H 0.53231 0.06018 0.35 0.0
H775 H 0.49682 0.12039 0.32078 0.0
H776 H 0.54026 0.05535 0.2767 0.0
H777 H 0.50462 0.11534 0.24695 0.0
H778 H 0.58665 0.14908 0.15342 0.0
H779 H 0.5587 0.13979 0.21798 0.0
H780 H 0.521 0.04193 0.20312 0.0
H781 H 0.5492 0.0511 0.138 0.0
C782 C 0.52531 0.07158 0.32768 0.0
C783 C 0.51479 0.09133 0.34075 0.0
C784 C 0.52959 0.06858 0.28575 0.0
C785 C 0.5236 0.08549 0.25649 0.0
C786 C 0.50976 0.10245 0.26924 0.0
C787 C 0.50521 0.10524 0.3113 0.0
C788 C 0.57247 0.12554 0.16379 0.0
C789 C 0.5704 0.10083 0.14084 0.0
C790 C 0.556 0.12022 0.20039 0.0
C791 C 0.53728 0.09011 0.21495 0.0
C792 C 0.53511 0.06532 0.19217 0.0
C793 C 0.55144 0.07062 0.15522 0.0
H794 H 0.88964 0.38123 0.31976 0.0
H795 H 0.9527 0.47663 0.34894 0.0
H796 H 0.89308 0.3945 0.2461 0.0
H797 H 0.95604 0.48982 0.27592 0.0
H798 H 0.96488 0.50222 0.13752 0.0
H799 H 0.97047 0.48258 0.2041 0.0
H800 H 0.87177 0.42591 0.21349 0.0
H801 H 0.86599 0.44519 0.147 0.0
C802 C 0.90487 0.40479 0.31025 0.0
C803 C 0.92049 0.42804 0.33974 0.0
C804 C 0.90669 0.4124 0.26834 0.0
C805 C 0.9245 0.4432 0.25566 0.0
C806 C 0.94224 0.4659 0.28489 0.0
C807 C 0.94013 0.45839 0.32665 0.0
C808 C 0.94437 0.48555 0.15377 0.0
C809 C 0.91497 0.47549 0.13725 0.0
C810 C 0.94762 0.47422 0.19167 0.0
C811 C 0.92157 0.45253 0.21349 0.0
C812 C 0.89224 0.44217 0.19678 0.0
C813 C 0.88895 0.4536 0.15906 0.0
H814 H 0.58148 0.52455 0.33973 0.0
H815 H 0.64592 0.49298 0.32077 0.0
H816 H 0.56992 0.51935 0.26566 0.0
H817 H 0.63316 0.48557 0.24747 0.0
H818 H 0.60864 0.47468 0.1159 0.0
H819 H 0.631 0.50115 0.18081 0.0
H820 H 0.5401 0.476 0.22531 0.0
H821 H 0.51832 0.45158 0.15897 0.0
C822 C 0.59375 0.51733 0.31922 0.0
C823 C 0.61463 0.5093 0.33518 0.0
C824 C 0.58687 0.51389 0.27705 0.0
C825 C 0.60005 0.50137 0.25066 0.0
C826 C 0.62276 0.4956 0.26656 0.0
C827 C 0.63012 0.49975 0.30856 0.0
C828 C 0.5936 0.47514 0.1396 0.0
C829 C 0.56178 0.46072 0.13313 0.0
C830 C 0.60636 0.49027 0.17674 0.0
C831 C 0.5874 0.49043 0.20861 0.0
C832 C 0.55556 0.47685 0.20132 0.0
C833 C 0.54293 0.46247 0.16361 0.0
H834 H 0.9011 0.5253 0.81622 0.0
H835 H 0.96215 0.49167 0.84942 0.0
H836 H 0.90628 0.51575 0.74303 0.0
H837 H 0.96723 0.48208 0.77675 0.0
H838 H 0.97228 0.4713 0.63796 0.0
H839 H 0.98073 0.50025 0.70232 0.0
H840 H 0.88265 0.46075 0.71651 0.0
H841 H 0.87406 0.432 0.65276 0.0
C842 C 0.91649 0.517 0.80768 0.0
C843 C 0.93066 0.50848 0.83811 0.0
C844 C 0.91935 0.51142 0.76601 0.0
C845 C 0.93665 0.49765 0.75462 0.0
C846 C 0.95375 0.49269 0.78476 0.0
C847 C 0.95064 0.49794 0.8263 0.0
C848 C 0.95255 0.46879 0.65491 0.0
C849 C 0.92249 0.44915 0.64053 0.0
C850 C 0.95744 0.48554 0.69141 0.0
C851 C 0.93237 0.48314 0.71371 0.0
C852 C 0.90241 0.46363 0.69924 0.0
C853 C 0.8975 0.44672 0.66313 0.0
H854 H 0.57756 0.51228 0.65874 0.0
H855 H 0.54401 0.41954 0.61592 0.0
H856 H 0.55224 0.49268 0.72514 0.0
H857 H 0.5162 0.3994 0.68071 0.0
H858 H 0.52014 0.38111 0.82009 0.0
H859 H 0.52813 0.39353 0.74687 0.0
H860 H 0.50993 0.46816 0.76699 0.0
H861 H 0.50473 0.45699 0.84105 0.0
C862 C 0.5641 0.48764 0.66348 0.0
C863 C 0.56314 0.46733 0.63313 0.0
C864 C 0.54917 0.47625 0.70125 0.0
C865 C 0.5322 0.44428 0.70867 0.0
C866 C 0.52971 0.42408 0.67675 0.0
C867 C 0.54551 0.43554 0.63962 0.0
C868 C 0.51697 0.39953 0.80841 0.0
C869 C 0.51216 0.41833 0.83567 0.0
C870 C 0.52145 0.40672 0.76634 0.0
C871 C 0.52043 0.43243 0.75089 0.0
C872 C 0.51204 0.44896 0.77793 0.0
C873 C 0.50859 0.44235 0.82018 0.0
H874 H 0.64377 0.13117 0.82163 0.0
H875 H 0.54851 0.06616 0.84858 0.0
H876 H 0.63182 0.12605 0.74744 0.0
H877 H 0.53659 0.06124 0.77507 0.0
H878 H 0.58045 0.15325 0.64954 0.0
H879 H 0.60031 0.14677 0.71494 0.0
H880 H 0.5444 0.04806 0.70319 0.0
H881 H 0.5241 0.05439 0.63758 0.0
C882 C 0.62057 0.11509 0.81156 0.0
C883 C 0.59687 0.0996 0.84046 0.0
C884 C 0.61372 0.11226 0.76933 0.0
C885 C 0.58323 0.09367 0.75584 0.0
C886 C 0.56028 0.07568 0.78464 0.0
C887 C 0.56705 0.07872 0.82669 0.0
C888 C 0.57235 0.13013 0.66078 0.0
C889 C 0.55037 0.10434 0.63869 0.0
C890 C 0.58417 0.12643 0.69787 0.0
C891 C 0.57416 0.0969 0.71367 0.0
C892 C 0.55253 0.07105 0.69142 0.0
C893 C 0.54077 0.07473 0.65414 0.0
H894 H 0.21478 0.46628 0.45073 0.0
H895 H 0.24329 0.40424 0.49781 0.0
H896 H 0.18485 0.45916 0.51325 0.0
H897 H 0.21571 0.39896 0.56215 0.0
H898 H 0.16451 0.38747 0.67349 0.0
H899 H 0.17115 0.38167 0.59977 0.0
H900 H 0.19507 0.47639 0.58009 0.0
H901 H 0.18576 0.48081 0.65281 0.0
C902 C 0.21486 0.45141 0.47499 0.0
C903 C 0.23168 0.43628 0.47037 0.0
C904 C 0.19775 0.44729 0.51074 0.0
C905 C 0.19803 0.42877 0.54314 0.0
C906 C 0.21434 0.41295 0.5377 0.0
C907 C 0.23062 0.4163 0.50124 0.0
C908 C 0.16976 0.40641 0.65268 0.0
C909 C 0.17477 0.43457 0.66817 0.0
C910 C 0.17407 0.40334 0.61069 0.0
C911 C 0.1847 0.42885 0.58411 0.0
C912 C 0.18674 0.45612 0.5993 0.0
C913 C 0.18146 0.4588 0.64105 0.0
H914 H 0.63782 0.83181 0.46508 0.0
H915 H 0.53994 0.77134 0.48116 0.0
H916 H 0.64712 0.81238 0.52977 0.0
H917 H 0.54929 0.7523 0.54521 0.0
H918 H 0.56736 0.7116 0.65047 0.0
H919 H 0.57269 0.72298 0.57617 0.0
H920 H 0.63471 0.81905 0.60291 0.0
H921 H 0.6296 0.80767 0.67663 0.0
C922 C 0.61836 0.81436 0.48227 0.0
C923 C 0.58813 0.80345 0.46837 0.0
C924 C 0.62372 0.80311 0.51901 0.0
C925 C 0.59896 0.78056 0.54208 0.0
C926 C 0.56887 0.76916 0.52756 0.0
C927 C 0.5635 0.78053 0.49121 0.0
C928 C 0.58307 0.73487 0.64025 0.0
C929 C 0.59747 0.75892 0.66898 0.0
C930 C 0.58601 0.74141 0.59788 0.0
C931 C 0.60358 0.77198 0.58404 0.0
C932 C 0.62101 0.79531 0.61269 0.0
C933 C 0.61787 0.78883 0.6549 0.0
H934 H 0.20981 0.82184 0.68239 0.0
H935 H 0.30518 0.85902 0.64894 0.0
H936 H 0.19531 0.81273 0.60961 0.0
H937 H 0.29059 0.8499 0.57568 0.0
H938 H 0.24093 0.76744 0.48274 0.0
H939 H 0.26032 0.79512 0.54739 0.0
H940 H 0.19997 0.83257 0.53552 0.0
H941 H 0.18032 0.80475 0.47006 0.0
C942 C 0.22775 0.82892 0.65925 0.0
C943 C 0.25849 0.84045 0.67102 0.0
C944 C 0.21947 0.82394 0.61764 0.0
C945 C 0.24181 0.83015 0.58733 0.0
C946 C 0.27297 0.84464 0.59877 0.0
C947 C 0.28132 0.84996 0.6405 0.0
C948 C 0.23167 0.7815 0.49378 0.0
C949 C 0.20883 0.78365 0.47152 0.0
C950 C 0.24321 0.7978 0.53045 0.0
C951 C 0.23201 0.81638 0.54589 0.0
C952 C 0.20912 0.81857 0.52388 0.0
C953 C 0.19777 0.80249 0.48673 0.0
H954 H 0.61307 0.80273 0.98086 0.0
H955 H 0.51824 0.77553 0.9561 0.0
H956 H 0.61008 0.82497 0.04698 0.0
H957 H 0.51563 0.79824 0.02126 0.0
H958 H 0.51347 0.78631 0.1653 0.0
H959 H 0.51573 0.77874 0.09131 0.0
H960 H 0.60146 0.86503 0.0835 0.0
H961 H 0.59889 0.8726 0.15845 0.0
C962 C 0.59178 0.80181 -0.01071 0.0
C963 C 0.56568 0.78669 0.96388 0.0
C964 C 0.59019 0.81489 0.02678 0.0
C965 C 0.56257 0.81316 0.03913 0.0
C966 C 0.53708 0.79955 0.01261 0.0
C967 C 0.53856 0.78633 0.97548 0.0
C968 C 0.53222 0.80411 0.14743 0.0
C969 C 0.55598 0.82997 0.16703 0.0
C970 C 0.53353 0.79987 0.10514 0.0
C971 C 0.55888 0.82126 0.08183 0.0
C972 C 0.58179 0.84819 0.101 0.0
C973 C 0.58019 0.85267 0.14353 0.0
H974 H 0.26348 0.77925 0.98108 0.0
H975 H 0.21353 0.82806 0.96729 0.0
H976 H 0.23666 0.75729 0.04586 0.0
H977 H 0.18645 0.80566 0.03201 0.0
H978 H 0.1947 0.80057 0.17748 0.0
H979 H 0.20493 0.81406 0.10462 0.0
H980 H 0.18449 0.7216 0.07642 0.0
H981 H 0.17431 0.70814 0.15012 0.0
C982 C 0.24677 0.78527 -0.0082 0.0
C983 C 0.24093 0.80572 0.96931 0.0
C984 C 0.23103 0.77226 0.02853 0.0
C985 C 0.20924 0.77951 0.04356 0.0
C986 C 0.20314 0.79969 0.02096 0.0
C987 C 0.21881 0.81265 -0.01587 0.0
C988 C 0.19152 0.78291 0.15547 0.0
C989 C 0.18421 0.75352 0.16906 0.0
C990 C 0.19718 0.79055 0.11378 0.0
C991 C 0.19591 0.76897 0.08511 0.0
C992 C 0.18594 0.7387 0.09819 0.0
C993 C 0.1799 0.73093 0.14008 0.0
H994 H 0.18545 0.38688 0.96985 0.0
H995 H 0.25039 0.48444 0.97947 0.0
H996 H 0.20285 0.37876 0.03686 0.0
H997 H 0.26734 0.47625 0.0461 0.0
H998 H 0.30558 0.45608 0.1548 0.0
H999 H 0.29391 0.45139 0.08064 0.0
H1000 H 0.19716 0.39442 0.10811 0.0
H1001 H 0.20875 0.39873 0.18169 0.0
C1002 C 0.20339 0.40655 -0.01383 0.0
C1003 C 0.21628 0.43635 0.96962 0.0
C1004 C 0.21345 0.40184 0.0243 0.0
C1005 C 0.23667 0.42682 0.04626 0.0
C1006 C 0.24989 0.45648 0.02935 0.0
C1007 C 0.23978 0.46121 -0.00852 0.0
C1008 C 0.28197 0.44181 0.14481 0.0
C1009 C 0.25797 0.42841 0.17376 0.0
C1010 C 0.2753 0.43923 0.10253 0.0
C1011 C 0.24462 0.42301 0.08891 0.0
C1012 C 0.221 0.40702 0.11776 0.0
C1013 C 0.22763 0.40977 0.15989 0.0
H1014 H 0.88574 0.7198 0.8059 0.0
H1015 H 0.92252 0.81805 0.81554 0.0
H1016 H 0.85977 0.71261 0.87243 0.0
H1017 H 0.89682 0.81073 0.88172 0.0
H1018 H 0.83677 0.7921 -0.01147 0.0
H1019 H 0.84412 0.78682 0.91462 0.0
H1020 H 0.88167 0.72841 0.94416 0.0
H1021 H 0.87414 0.73342 0.01753 0.0
C1022 C 0.88827 0.73981 0.82214 0.0
C1023 C 0.90646 0.76953 0.80577 0.0
C1024 C 0.87325 0.73563 0.85995 0.0
C1025 C 0.87601 0.76107 0.8817 0.0
C1026 C 0.89376 0.79067 0.86503 0.0
C1027 C 0.90891 0.79488 0.82749 0.0
C1028 C 0.84568 0.77739 0.97902 0.0
C1029 C 0.85565 0.76379 0.00845 0.0
C1030 C 0.84996 0.77446 0.93692 0.0
C1031 C 0.8639 0.75764 0.92403 0.0
C1032 C 0.87083 0.74146 0.95334 0.0
C1033 C 0.86682 0.7446 -0.0047 0.0
H1034 H 0.20356 0.10739 0.81561 0.0
H1035 H 0.30199 0.16683 0.80353 0.0
H1036 H 0.21106 0.08872 0.88138 0.0
H1037 H 0.30935 0.14772 0.86954 0.0
H1038 H 0.29112 0.14378 0.01487 0.0
H1039 H 0.29552 0.15522 0.94124 0.0
H1040 H 0.23361 0.0591 0.9145 0.0
H1041 H 0.22895 0.0476 -0.01124 0.0
C1042 C 0.2268 0.11641 0.8269 0.0
C1043 C 0.25216 0.13891 0.80467 0.0
C1044 C 0.2311 0.10529 0.86421 0.0
C1045 C 0.26081 0.11652 0.88011 0.0
C1046 C 0.28624 0.13866 0.85771 0.0
C1047 C 0.28196 0.14972 0.82019 0.0
C1048 C 0.27906 0.12497 -0.00682 0.0
C1049 C 0.25908 0.09497 0.00723 0.0
C1050 C 0.28183 0.13148 0.95105 0.0
C1051 C 0.26449 0.10808 0.92245 0.0
C1052 C 0.24687 0.07753 0.93623 0.0
C1053 C 0.2443 0.07096 0.97852 0.0
H1054 H 0.86156 0.14355 0.7992 0.0
H1055 H 0.91758 0.10101 0.81152 0.0
H1056 H 0.88242 0.17092 0.86439 0.0
H1057 H 0.938 0.12808 0.87644 0.0
H1058 H 0.98186 0.18798 0.98327 0.0
H1059 H 0.96978 0.18024 0.90905 0.0
H1060 H 0.87483 0.15077 0.9365 0.0
H1061 H 0.88691 0.15858 0.00995 0.0
C1062 C 0.87832 0.14007 0.8157 0.0
C1063 C 0.88758 0.11976 0.80052 0.0
C1064 C 0.89038 0.1559 0.85279 0.0
C1065 C 0.91203 0.15184 0.87511 0.0
C1066 C 0.92183 0.13215 0.8594 0.0
C1067 C 0.90969 0.11623 0.82255 0.0
C1068 C 0.95873 0.18093 0.97309 0.0
C1069 C 0.93515 0.17329 0.00196 0.0
C1070 C 0.95177 0.17633 0.93084 0.0
C1071 C 0.9213 0.16447 0.91727 0.0
C1072 C 0.89851 0.16002 0.94603 0.0
C1073 C 0.90537 0.16425 -0.01193 0.0
H1074 H 0.20746 0.10556 0.31782 0.0
H1075 H 0.3055 0.14278 0.30453 0.0
H1076 H 0.2161 0.13346 0.38231 0.0
H1077 H 0.31403 0.17101 0.36946 0.0
H1078 H 0.29459 0.15768 0.51549 0.0
H1079 H 0.30021 0.15115 0.44203 0.0
H1080 H 0.23983 0.18653 0.41331 0.0
H1081 H 0.23394 0.19283 0.48738 0.0
C1082 C 0.23088 0.11975 0.32859 0.0
C1083 C 0.25577 0.12163 0.30638 0.0
C1084 C 0.23584 0.1362 0.36514 0.0
C1085 C 0.26577 0.15475 0.38037 0.0
C1086 C 0.29077 0.15698 0.35807 0.0
C1087 C 0.28582 0.14062 0.32122 0.0
C1088 C 0.28324 0.1649 0.4934 0.0
C1089 C 0.26313 0.17488 0.50678 0.0
C1090 C 0.28672 0.16147 0.45137 0.0
C1091 C 0.26995 0.16779 0.42226 0.0
C1092 C 0.25262 0.18113 0.43544 0.0
C1093 C 0.24932 0.1848 0.47764 0.0
H1094 H 0.92109 0.10563 0.31233 0.0
H1095 H 0.87677 0.15999 0.29967 0.0
H1096 H 0.8937 0.08441 0.37677 0.0
H1097 H 0.84907 0.13832 0.36444 0.0
H1098 H 0.86096 0.13331 0.51021 0.0
H1099 H 0.86853 0.14578 0.43686 0.0
H1100 H 0.84158 0.05149 0.40855 0.0
H1101 H 0.83413 0.03905 0.48268 0.0
C1102 C 0.90542 0.11299 0.32319 0.0
C1103 C 0.90146 0.13486 0.30119 0.0
C1104 C 0.88931 0.10038 0.35977 0.0
C1105 C 0.869 0.10945 0.37525 0.0
C1106 C 0.86456 0.1309 0.353 0.0
C1107 C 0.88058 0.14344 0.31617 0.0
C1108 C 0.85575 0.11506 0.48816 0.0
C1109 C 0.84758 0.08541 0.50177 0.0
C1110 C 0.85984 0.12212 0.44617 0.0
C1111 C 0.85611 0.09969 0.41721 0.0
C1112 C 0.84495 0.06924 0.4305 0.0
C1113 C 0.84051 0.06207 0.4727 0.0
H1114 H 0.8535 0.71852 0.30484 0.0
H1115 H 0.91184 0.81688 0.32031 0.0
H1116 H 0.87372 0.71017 0.36931 0.0
H1117 H 0.93165 0.8084 0.38436 0.0
H1118 H 0.9761 0.79066 0.48641 0.0
H1119 H 0.96287 0.78593 0.41273 0.0
H1120 H 0.86782 0.72237 0.44291 0.0
H1121 H 0.88102 0.72688 0.516 0.0
C1122 C 0.87053 0.73831 0.32196 0.0
C1123 C 0.88084 0.76837 0.30773 0.0
C1124 C 0.88225 0.73348 0.35855 0.0
C1125 C 0.90459 0.75861 0.38123 0.0
C1126 C 0.91502 0.78859 0.36684 0.0
C1127 C 0.90322 0.79343 0.33054 0.0
C1128 C 0.95267 0.77483 0.477 0.0
C1129 C 0.92939 0.75973 0.50656 0.0
C1130 C 0.94508 0.77223 0.43503 0.0
C1131 C 0.91426 0.7543 0.42249 0.0
C1132 C 0.89173 0.73635 0.45177 0.0
C1133 C 0.89924 0.73915 0.49359 0.0
H1134 H 0.38474 0.94402 0.81329 0.0
H1135 H 0.33377 0.92789 0.92725 0.0
H1136 H 0.43268 0.97444 0.85073 0.0
H1137 H 0.38208 0.95852 0.96489 0.0
H1138 H 0.4762 0.04326 0.0053 0.0
H1139 H 0.42605 0.0101 0.97411 0.0
H1140 H 0.46499 0.96642 0.90022 0.0
H1141 H 0.51555 1.00011 0.93154 0.0
C1142 C 0.38364 0.94741 0.84628 0.0
C1143 C 0.35512 0.9334 0.86707 0.0
C1144 C 0.41131 0.96451 0.86792 0.0
C1145 C 0.41148 0.9684 0.9111 0.0
C1146 C 0.38293 0.95595 0.93167 0.0
C1147 C 0.35512 0.93862 0.90997 0.0
C1148 C 0.47387 0.02594 0.98326 0.0
C1149 C 0.49986 0.02418 0.97114 0.0
C1150 C 0.44505 1.00694 0.96524 0.0
C1151 C 0.44138 0.98582 0.93408 0.0
C1152 C 0.46704 0.9828 0.92361 0.0
C1153 C 0.49594 1.00169 0.94207 0.0
H1154 H 0.02545 0.52511 0.9382 0.0
H1155 H 0.97626 0.43824 0.00203 0.0
H1156 H 0.05992 0.50894 0.90801 0.0
H1157 H 1.01039 0.42205 0.97201 0.0
H1158 H 0.09516 0.41378 0.92923 0.0
H1159 H 0.06301 0.42977 0.96682 0.0
H1160 H 0.05254 0.47047 0.85478 0.0
H1161 H 0.08413 0.45447 0.8175 0.0
C1162 C 0.02259 0.50301 0.94682 0.0
C1163 C 0.99818 0.48307 0.97267 0.0
C1164 C 0.04201 0.49346 0.92903 0.0
C1165 C 0.03769 0.4639 0.93702 0.0
C1166 C 0.01454 0.4449 0.96513 0.0
C1167 C 0.99497 0.45426 0.98241 0.0
C1168 C 0.08528 0.42536 0.91239 0.0
C1169 C 0.09234 0.43274 0.87022 0.0
C1170 C 0.06711 0.43488 0.93405 0.0
C1171 C 0.0558 0.45221 0.91414 0.0
C1172 C 0.06156 0.45805 0.87154 0.0
C1173 C 0.07938 0.4484 0.84997 0.0
H1174 H 0.60389 0.69137 0.93447 0.0
H1175 H 0.57057 0.6407 0.8199 0.0
H1176 H 0.58765 0.64287 0.97144 0.0
H1177 H 0.55412 0.59283 0.8567 0.0
H1178 H 0.49768 0.50921 0.93626 0.0
H1179 H 0.51306 0.56033 0.9081 0.0
H1180 H 0.59827 0.59885 0.97623 0.0
H1181 H 0.58295 0.54791 0.0039 0.0
C1182 C 0.59379 0.67012 0.91697 0.0
C1183 C 0.58863 0.67022 0.87405 0.0
C1184 C 0.58414 0.64224 0.93826 0.0
C1185 C 0.56878 0.61379 0.91725 0.0
C1186 C 0.56502 0.61412 0.87416 0.0
C1187 C 0.57492 0.6418 0.85292 0.0
C1188 C 0.51913 0.5288 0.94637 0.0
C1189 C 0.53892 0.52458 0.97267 0.0
C1190 C 0.52823 0.55804 0.92975 0.0
C1191 C 0.55717 0.58373 0.93945 0.0
C1192 C 0.57587 0.57976 0.96814 0.0
C1193 C 0.567 0.55054 -0.01584 0.0
H1194 H 0.98048 0.54476 0.50688 0.0
H1195 H 0.02261 0.50549 0.4309 0.0
H1196 H 1.01279 0.59484 0.47504 0.0
H1197 H 0.05553 0.55602 0.39902 0.0
H1198 H 0.07726 0.63604 0.31264 0.0
H1199 H 0.04704 0.58813 0.35031 0.0
H1200 H 0.06363 0.63905 0.46439 0.0
H1201 H 0.09398 0.6873 0.42642 0.0
C1202 C 0.9974 0.54709 0.48417 0.0
C1203 C 0.99908 0.52111 0.47163 0.0
C1204 C 0.01592 0.57589 0.46579 0.0
C1205 C 0.03652 0.57958 0.43387 0.0
C1206 C 0.03951 0.55396 0.42297 0.0
C1207 C 0.02108 0.52507 0.44174 0.0
C1208 C 0.07396 0.63718 0.34565 0.0
C1209 C 0.08809 0.66576 0.36633 0.0
C1210 C 0.05701 0.60955 0.36743 0.0
C1211 C 0.05346 0.60947 0.41067 0.0
C1212 C 0.06592 0.6381 0.43112 0.0
C1213 C 0.08306 0.66589 0.40925 0.0
H1214 H 0.48969 0.49785 0.50353 0.0
H1215 H 0.51263 0.46684 0.39157 0.0
H1216 H 0.43784 0.48054 0.47547 0.0
H1217 H 0.46161 0.44846 0.36486 0.0
H1218 H 0.37918 0.44471 0.30659 0.0
H1219 H 0.42939 0.46333 0.33653 0.0
H1220 H 0.38859 0.43506 0.45807 0.0
H1221 H 0.33764 0.41766 0.4277 0.0
C1222 C 0.48392 0.48798 0.47272 0.0
C1223 C 0.50542 0.48406 0.44961 0.0
C1224 C 0.45403 0.47747 0.4569 0.0
C1225 C 0.44518 0.4629 0.41772 0.0
C1226 C 0.46727 0.45993 0.39464 0.0
C1227 C 0.49675 0.47048 0.41013 0.0
C1228 C 0.38063 0.4418 0.33963 0.0
C1229 C 0.35408 0.42932 0.36452 0.0
C1230 C 0.4097 0.4526 0.35701 0.0
C1231 C 0.41347 0.45091 0.4 0.0
C1232 C 0.3868 0.43724 0.42495 0.0
C1233 C 0.35744 0.42657 0.40741 0.0
H1234 H 0.60656 0.92214 0.43234 0.0
H1235 H 0.57965 0.94567 0.3173 0.0
H1236 H 0.58981 0.95359 0.47023 0.0
H1237 H 0.56269 0.97644 0.35489 0.0
H1238 H 0.50134 0.99832 0.4329 0.0
H1239 H 0.51899 0.9651 0.40237 0.0
H1240 H 0.59945 1.00738 0.48053 0.0
H1241 H 0.58187 0.04048 0.51065 0.0
C1242 C 0.59807 0.93477 0.41497 0.0
C1243 C 0.59461 0.93132 0.37164 0.0
C1244 C 0.58801 0.95246 0.43675 0.0
C1245 C 0.57399 0.96685 0.41576 0.0
C1246 C 0.57245 0.96497 0.37229 0.0
C1247 C 0.58272 0.94768 0.35063 0.0
C1248 C 0.52219 0.99971 0.44455 0.0
C1249 C 0.54 0.02181 0.47452 0.0
C1250 C 0.53265 0.98107 0.42659 0.0
C1251 C 0.56097 0.98386 0.4385 0.0
C1252 C 0.5776 1.00449 0.47057 0.0
C1253 C 0.5674 0.02338 0.48798 0.0
H1254 H 0.14062 0.37217 0.345 0.0
H1255 H 0.18048 0.33089 0.26851 0.0
H1256 H 0.09043 0.33904 0.3137 0.0
H1257 H 0.12997 0.29736 0.23702 0.0
H1258 H 0.05047 0.27696 0.15018 0.0
H1259 H 0.09801 0.30711 0.18853 0.0
H1260 H 0.04656 0.28688 0.30261 0.0
H1261 H 0.99859 0.25636 0.264 0.0
C1262 C 0.13839 0.35521 0.32239 0.0
C1263 C 0.16452 0.35398 0.30951 0.0
C1264 C 0.10957 0.33627 0.3043 0.0
C1265 C 0.10609 0.31582 0.27227 0.0
C1266 C 0.13188 0.31324 0.26112 0.0
C1267 C 0.16075 0.33202 0.27966 0.0
C1268 C 0.04908 0.27937 0.18337 0.0
C1269 C 0.02046 0.26413 0.20384 0.0
C1270 C 0.07652 0.29631 0.2055 0.0
C1271 C 0.07635 0.29882 0.24888 0.0
C1272 C 0.04765 0.28531 0.26923 0.0
C1273 C 0.02004 0.2681 0.24701 0.0
H1274 H 0.6897 0.83439 0.32699 0.0
H1275 H 0.63326 0.79656 0.21799 0.0
H1276 H 0.72453 0.81696 0.30072 0.0
H1277 H 0.66648 0.77836 0.19307 0.0
H1278 H 0.74745 0.77722 0.13562 0.0
H1279 H 0.71439 0.7948 0.16384 0.0
H1280 H 0.72841 0.77059 0.2871 0.0
H1281 H 0.76297 0.75388 0.25843 0.0
C1282 C 0.68501 0.82291 0.29724 0.0
C1283 C 0.65876 0.81711 0.27454 0.0
C1284 C 0.70461 0.81238 0.28248 0.0
C1285 C 0.69841 0.79604 0.24467 0.0
C1286 C 0.67254 0.79114 0.22188 0.0
C1287 C 0.65327 0.80159 0.23638 0.0
C1288 C 0.74302 0.77492 0.16868 0.0
C1289 C 0.7577 0.76373 0.19457 0.0
C1290 C 0.72398 0.78515 0.18503 0.0
C1291 C 0.71861 0.78436 0.22798 0.0
C1292 C 0.73229 0.77201 0.25396 0.0
C1293 C 0.75157 0.76174 0.23743 0.0
H1294 H 0.18503 0.86543 0.33606 0.0
H1295 H 0.22416 0.84358 0.23164 0.0
H1296 H 0.20323 0.91712 0.30673 0.0
H1297 H 0.24292 0.89443 0.20338 0.0
H1298 H 0.24628 0.97612 0.14021 0.0
H1299 H 0.22759 0.92583 0.1707 0.0
H1300 H 0.25052 0.96669 0.29273 0.0
H1301 H 0.26845 0.01757 0.26173 0.0
C1302 C 0.19682 0.87138 0.30649 0.0
C1303 C 0.20272 0.85024 0.28584 0.0
C1304 C 0.20781 0.90117 0.29002 0.0
C1305 C 0.22475 0.91024 0.25257 0.0
C1306 C 0.22968 0.8885 0.23178 0.0
C1307 C 0.21883 0.85914 0.24806 0.0
C1308 C 0.24809 0.97462 0.1735 0.0
C1309 C 0.25929 1.00111 0.19835 0.0
C1310 C 0.2372 0.94558 0.19116 0.0
C1311 C 0.23723 0.94186 0.23441 0.0
C1312 C 0.24964 0.9685 0.25937 0.0
C1313 C 0.26061 0.99781 0.24154 0.0
H1314 H 0.74766 0.96972 0.65126 0.0
H1315 H 0.76321 0.02352 0.76244 0.0
H1316 H 0.71624 0.92279 0.69018 0.0
H1317 H 0.73108 0.97603 0.80156 0.0
H1318 H 0.64208 0.88106 0.83783 0.0
H1319 H 0.67711 0.93139 0.80785 0.0
H1320 H 0.72524 0.89255 0.74414 0.0
H1321 H 0.69003 0.84205 0.77452 0.0
C1322 C 0.74393 0.97167 0.68394 0.0
C1323 C 0.75816 1.00067 0.70356 0.0
C1324 C 0.72621 0.94458 0.70642 0.0
C1325 C 0.72176 0.94545 0.74929 0.0
C1326 C 0.73424 0.97447 0.76862 0.0
C1327 C 0.75237 1.00176 0.74607 0.0
C1328 C 0.66087 0.88354 0.81861 0.0
C1329 C 0.66351 0.85763 0.80894 0.0
C1330 C 0.68087 0.9124 0.80124 0.0
C1331 C 0.70372 0.91602 0.77301 0.0
C1332 C 0.70758 0.89049 0.76531 0.0
C1333 C 0.68778 0.86164 0.78325 0.0
H1334 H 0.05262 0.78357 0.64864 0.0
H1335 H 1.00093 0.74389 0.76091 0.0
H1336 H 0.10036 0.80057 0.68619 0.0
H1337 H 0.04909 0.761 0.7987 0.0
H1338 H 0.14396 0.77126 0.83693 0.0
H1339 H 0.0938 0.75416 0.80581 0.0
H1340 H 0.13152 0.83965 0.73826 0.0
H1341 H 0.18206 0.85667 0.76947 0.0
C1342 C 0.05134 0.77791 0.68125 0.0
C1343 C 0.02268 0.76222 0.70159 0.0
C1344 C 0.07888 0.78816 0.70298 0.0
C1345 C 0.07878 0.78293 0.74579 0.0
C1346 C 0.05012 0.76561 0.76578 0.0
C1347 C 0.02241 0.75545 0.74398 0.0
C1348 C 0.14136 0.7868 0.81629 0.0
C1349 C 0.16702 0.81543 0.80586 0.0
C1350 C 0.11253 0.77692 0.79834 0.0
C1351 C 0.10855 0.79522 0.76894 0.0
C1352 C 0.13383 0.82467 0.76024 0.0
C1353 C 0.16272 0.83473 0.77865 0.0
H1354 H 0.27429 0.25902 0.76261 0.0
H1355 H 0.23823 0.27252 0.64813 0.0
H1356 H 0.25627 0.28981 0.79926 0.0
H1357 H 0.2203 0.30291 0.68449 0.0
H1358 H 0.16264 0.32874 0.76286 0.0
H1359 H 0.1798 0.29459 0.73417 0.0
H1360 H 0.26317 0.34166 0.80628 0.0
H1361 H 0.2459 0.37539 0.83476 0.0
C1362 C 0.26334 0.26921 0.74501 0.0
C1363 C 0.25786 0.26322 0.70228 0.0
C1364 C 0.25264 0.28659 0.76613 0.0
C1365 C 0.23602 0.29823 0.74511 0.0
C1366 C 0.2321 0.29359 0.70206 0.0
C1367 C 0.2429 0.2765 0.68103 0.0
C1368 C 0.18401 0.33091 0.77374 0.0
C1369 C 0.20269 0.35447 0.80151 0.0
C1370 C 0.1942 0.31176 0.75675 0.0
C1371 C 0.22321 0.31563 0.76734 0.0
C1372 C 0.24076 0.33782 0.7974 0.0
C1373 C 0.23075 0.35708 0.81394 0.0
H1374 H 0.71751 0.60952 0.48506 0.0
H1375 H 0.66677 0.58974 0.59972 0.0
H1376 H 0.76542 0.64034 0.52236 0.0
H1377 H 0.71519 0.62118 0.63734 0.0
H1378 H 0.81066 0.70786 0.67579 0.0
H1379 H 0.75984 0.67445 0.64614 0.0
H1380 H 0.79734 0.62996 0.57118 0.0
H1381 H 0.8484 0.6636 0.60113 0.0
C1382 C 0.71646 0.61233 0.51822 0.0
C1383 C 0.68807 0.59706 0.53925 0.0
C1384 C 0.74411 0.62965 0.53974 0.0
C1385 C 0.74439 0.6326 0.58307 0.0
C1386 C 0.71589 0.61922 0.60398 0.0
C1387 C 0.68804 0.60153 0.58234 0.0
C1388 C 0.80785 0.69026 0.65392 0.0
C1389 C 0.83357 0.68822 0.64109 0.0
C1390 C 0.77868 0.67116 0.6368 0.0
C1391 C 0.77445 0.6498 0.60572 0.0
C1392 C 0.79983 0.64652 0.59459 0.0
C1393 C 0.82903 0.6654 0.61223 0.0
H1394 H 0.35842 0.18968 0.60104 0.0
H1395 H 0.3132 0.10589 0.67224 0.0
H1396 H 0.39239 0.17298 0.57051 0.0
H1397 H 0.34667 0.08908 0.64183 0.0
H1398 H 0.42916 0.07888 0.59667 0.0
H1399 H 0.3982 0.09633 0.63398 0.0
H1400 H 0.38502 0.13333 0.52018 0.0
H1401 H 0.41568 0.11602 0.48315 0.0
C1402 C 0.35642 0.16822 0.61121 0.0
C1403 C 0.33327 0.14927 0.63932 0.0
C1404 C 0.37549 0.15831 0.59319 0.0
C1405 C 0.37202 0.12934 0.60313 0.0
C1406 C 0.3502 0.11147 0.63339 0.0
C1407 C 0.33102 0.1212 0.65096 0.0
C1408 C 0.41895 0.08996 0.57939 0.0
C1409 C 0.42499 0.09588 0.53674 0.0
C1410 C 0.40144 0.10032 0.6009 0.0
C1411 C 0.38966 0.11701 0.58038 0.0
C1412 C 0.39441 0.12144 0.53739 0.0
C1413 C 0.41166 0.111 0.51596 0.0
H1414 H 0.93763 0.3496 0.59084 0.0
H1415 H 0.91293 0.30663 0.47033 0.0
H1416 H 0.92075 0.29922 0.62265 0.0
H1417 H 0.89547 0.25676 0.50175 0.0
H1418 H 0.8952 0.1762 0.56424 0.0
H1419 H 0.91282 0.22657 0.53477 0.0
H1420 H 0.87317 0.24953 0.63786 0.0
H1421 H 0.85595 0.19834 0.66829 0.0
C1422 C 0.92945 0.32961 0.571 0.0
C1423 C 0.92709 0.33233 0.52787 0.0
C1424 C 0.9191 0.3006 0.58934 0.0
C1425 C 0.90636 0.27368 0.56496 0.0
C1426 C 0.90532 0.27679 0.52171 0.0
C1427 C 0.91552 0.30556 0.50353 0.0
C1428 C 0.88971 0.19175 0.58041 0.0
C1429 C 0.87388 0.18311 0.61843 0.0
C1430 C 0.89987 0.22078 0.56342 0.0
C1431 C 0.89459 0.24241 0.58379 0.0
C1432 C 0.87799 0.23361 0.6215 0.0
C1433 C 0.86761 0.20413 0.63863 0.0
H1434 H 0.31651 0.21448 0.17566 0.0
H1435 H 0.35954 0.17525 0.10142 0.0
H1436 H 0.35053 0.26502 0.14587 0.0
H1437 H 0.39399 0.22614 0.07146 0.0
H1438 H 0.41696 0.30707 -0.01438 0.0
H1439 H 0.38604 0.259 0.0225 0.0
H1440 H 0.4029 0.30897 0.13743 0.0
H1441 H 0.43424 0.35753 0.10026 0.0
C1442 C 0.33397 0.21689 0.15383 0.0
C1443 C 0.33545 0.19083 0.14114 0.0
C1444 C 0.35346 0.24593 0.13663 0.0
C1445 C 0.37476 0.24976 0.1057 0.0
C1446 C 0.37749 0.224 0.09471 0.0
C1447 C 0.35814 0.19488 0.11238 0.0
C1448 C 0.41372 0.30803 0.01868 0.0
C1449 C 0.42821 0.33644 0.03981 0.0
C1450 C 0.3963 0.28027 0.03998 0.0
C1451 C 0.39253 0.27985 0.08319 0.0
C1452 C 0.40542 0.30832 0.10416 0.0
C1453 C 0.42312 0.33627 0.08276 0.0
H1454 H 0.843 0.12533 0.06677 0.0
H1455 H 0.8238 0.16827 0.16926 0.0
H1456 H 0.79246 0.10808 0.03837 0.0
H1457 H 0.77239 0.15141 0.13982 0.0
H1458 H 0.67129 0.08783 0.09459 0.0
H1459 H 0.72162 0.10394 0.12617 0.0
H1460 H 0.76342 0.12668 0.00474 0.0
H1461 H 0.71363 0.11005 0.97365 0.0
C1462 C 0.82804 0.13163 0.08289 0.0
C1463 C 0.83757 0.1484 0.12016 0.0
C1464 C 0.79891 0.1217 0.06649 0.0
C1465 C 0.77807 0.1282 0.08665 0.0
C1466 C 0.78771 0.14566 0.12364 0.0
C1467 C 0.8173 0.15581 0.14019 0.0
C1468 C 0.69111 0.09526 0.07465 0.0
C1469 C 0.68827 0.09716 0.03147 0.0
C1470 C 0.72009 0.10517 0.09281 0.0
C1471 C 0.74681 0.11695 0.06816 0.0
C1472 C 0.74353 0.11754 0.02489 0.0
C1473 C 0.71481 0.10781 0.00691 0.0
H1474 H 0.90857 0.61135 0.98075 0.0
H1475 H 0.94295 0.59425 0.09425 0.0
H1476 H 0.89105 0.64148 0.0188 0.0
H1477 H 0.92515 0.62442 0.13255 0.0
H1478 H 0.91537 0.70786 0.1759 0.0
H1479 H 0.93245 0.67523 0.14363 0.0
H1480 H 0.85074 0.63352 0.06765 0.0
H1481 H 0.83386 0.66681 0.09992 0.0
C1482 C 0.91297 0.61448 0.01378 0.0
C1483 C 0.92737 0.60031 0.03426 0.0
C1484 C 0.90238 0.63139 0.03577 0.0
C1485 C 0.9059 0.63485 0.07902 0.0
C1486 C 0.9219 0.62222 0.09929 0.0
C1487 C 0.93246 0.60515 0.07721 0.0
C1488 C 0.90058 0.69109 0.15312 0.0
C1489 C 0.87312 0.68982 0.14069 0.0
C1490 C 0.91046 0.67238 0.13448 0.0
C1491 C 0.89333 0.65198 0.10245 0.0
C1492 C 0.86488 0.64938 0.09168 0.0
C1493 C 0.85483 0.66802 0.11069 0.0
loop_
_geom_bond_atom_site_label_1
_geom_bond_atom_site_label_2
_geom_bond_distance
_geom_bond_site_symmetry_2
_ccdc_geom_bond_type
O0 Zn1 1.953 . S
O0 C16 1.225 1_556 S
Zn1 O0 1.953 . S
Zn1 O2 1.949 1_556 S
Zn1 O8 1.919 . S
Zn1 O13 1.924 . S
O2 Zn1 1.949 1_554 S
O2 Zn3 1.923 1_554 S
O2 Zn4 1.950 . S
O2 Zn5 1.945 . S
Zn3 O2 1.923 1_556 S
Zn3 O6 1.933 . S
Zn3 O9 1.941 . S
Zn3 O10 1.965 . S
Zn4 O2 1.950 . S
Zn4 O11 1.938 . S
Zn4 O12 1.906 . S
Zn4 O22 1.953 . S
Zn5 O2 1.945 . S
Zn5 O7 1.932 . S
Zn5 O14 1.977 . S
Zn5 O15 1.910 . S
O6 Zn3 1.933 . S
O6 C17 1.226 . S
O7 Zn5 1.932 . S
O7 C17 1.307 1_554 S
O8 Zn1 1.919 . S
O8 C19 1.253 . S
O9 Zn3 1.941 . S
O9 C19 1.283 . S
O10 Zn3 1.965 . S
O10 C18 1.303 1_556 S
O11 Zn4 1.938 . S
O11 C18 1.247 . S
O12 Zn4 1.906 . S
O12 C20 1.304 . S
O13 Zn1 1.924 . S
O13 C21 1.311 1_556 S
O14 Zn5 1.977 . S
O14 C20 1.272 . S
O15 Zn5 1.910 . S
O15 C21 1.231 . S
C16 O0 1.225 1_554 S
C16 O22 1.298 . S
C17 O6 1.226 . S
C17 O7 1.307 1_556 S
C18 O10 1.303 1_554 S
C18 O11 1.247 . S
C19 O8 1.253 . S
C19 O9 1.283 . S
C20 O12 1.304 . S
C20 O14 1.272 . S
C21 O13 1.311 1_554 S
C21 O15 1.231 . S
O22 Zn4 1.953 . S
O22 C16 1.298 . S
O23 Zn24 1.953 . S
O23 C39 1.225 1_556 S
Zn24 O23 1.953 . S
Zn24 O25 1.949 1_556 S
Zn24 O31 1.919 . S
Zn24 O36 1.924 . S
O25 Zn24 1.949 1_554 S
O25 Zn26 1.923 1_554 S
O25 Zn27 1.950 . S
O25 Zn28 1.945 . S
Zn26 O25 1.923 1_556 S
Zn26 O29 1.933 . S
Zn26 O32 1.941 . S
Zn26 O33 1.965 . S
Zn27 O25 1.950 . S
Zn27 O34 1.938 . S
Zn27 O35 1.906 . S
Zn27 O45 1.953 . S
Zn28 O25 1.945 . S
Zn28 O30 1.932 . S
Zn28 O37 1.977 . S
Zn28 O38 1.910 . S
O29 Zn26 1.933 . S
O29 C40 1.226 . S
O30 Zn28 1.932 . S
O30 C40 1.307 1_554 S
O31 Zn24 1.919 . S
O31 C42 1.253 . S
O32 Zn26 1.941 . S
O32 C42 1.283 . S
O33 Zn26 1.965 . S
O33 C41 1.303 1_556 S
O34 Zn27 1.938 . S
O34 C41 1.247 . S
O35 Zn27 1.906 . S
O35 C43 1.304 . S
O36 Zn24 1.924 . S
O36 C44 1.311 1_556 S
O37 Zn28 1.977 . S
O37 C43 1.272 . S
O38 Zn28 1.910 . S
O38 C44 1.231 . S
C39 O23 1.225 1_554 S
C39 O45 1.298 . S
C40 O29 1.226 . S
C40 O30 1.307 1_556 S
C41 O33 1.303 1_554 S
C41 O34 1.247 . S
C42 O31 1.253 . S
C42 O32 1.283 . S
C43 O35 1.304 . S
C43 O37 1.272 . S
C44 O36 1.311 1_554 S
C44 O38 1.231 . S
O45 Zn27 1.953 . S
O45 C39 1.298 . S
O46 Zn47 1.953 . S
O46 C62 1.225 1_556 S
Zn47 O46 1.953 . S
Zn47 O48 1.949 1_556 S
Zn47 O54 1.919 . S
Zn47 O59 1.924 . S
O48 Zn47 1.949 1_554 S
O48 Zn49 1.923 1_554 S
O48 Zn50 1.950 . S
O48 Zn51 1.945 . S
Zn49 O48 1.923 1_556 S
Zn49 O52 1.933 . S
Zn49 O55 1.941 . S
Zn49 O56 1.965 . S
Zn50 O48 1.950 . S
Zn50 O57 1.938 . S
Zn50 O58 1.906 . S
Zn50 O68 1.953 . S
Zn51 O48 1.945 . S
Zn51 O53 1.932 . S
Zn51 O60 1.977 . S
Zn51 O61 1.910 . S
O52 Zn49 1.933 . S
O52 C63 1.226 . S
O53 Zn51 1.932 . S
O53 C63 1.307 1_554 S
O54 Zn47 1.919 . S
O54 C65 1.253 . S
O55 Zn49 1.941 . S
O55 C65 1.283 . S
O56 Zn49 1.965 . S
O56 C64 1.303 1_556 S
O57 Zn50 1.938 . S
O57 C64 1.247 . S
O58 Zn50 1.906 . S
O58 C66 1.304 . S
O59 Zn47 1.924 . S
O59 C67 1.311 1_556 S
O60 Zn51 1.977 . S
O60 C66 1.272 . S
O61 Zn51 1.910 . S
O61 C67 1.231 . S
C62 O46 1.225 1_554 S
C62 O68 1.298 . S
C63 O52 1.226 . S
C63 O53 1.307 1_556 S
C64 O56 1.303 1_554 S
C64 O57 1.247 . S
C65 O54 1.253 . S
C65 O55 1.283 . S
C66 O58 1.304 . S
C66 O60 1.272 . S
C67 O59 1.311 1_554 S
C67 O61 1.231 . S
O68 Zn50 1.953 . S
O68 C62 1.298 . S
O69 Zn70 1.953 . S
O69 C85 1.225 . S
Zn70 O69 1.953 . S
Zn70 O71 1.949 . S
Zn70 O77 1.919 . S
Zn70 O82 1.924 . S
O71 Zn70 1.949 . S
O71 Zn72 1.923 . S
O71 Zn73 1.950 . S
O71 Zn74 1.945 . S
Zn72 O71 1.923 . S
Zn72 O75 1.933 . S
Zn72 O78 1.941 . S
Zn72 O79 1.965 . S
Zn73 O71 1.950 . S
Zn73 O80 1.938 . S
Zn73 O81 1.906 . S
Zn73 O91 1.953 . S
Zn74 O71 1.945 . S
Zn74 O76 1.932 . S
Zn74 O83 1.977 . S
Zn74 O84 1.910 . S
O75 Zn72 1.933 . S
O75 C86 1.226 . S
O76 Zn74 1.932 . S
O76 C86 1.307 . S
O77 Zn70 1.919 . S
O77 C88 1.253 . S
O78 Zn72 1.941 . S
O78 C88 1.283 . S
O79 Zn72 1.965 . S
O79 C87 1.303 . S
O80 Zn73 1.938 . S
O80 C87 1.247 . S
O81 Zn73 1.906 . S
O81 C89 1.304 . S
O82 Zn70 1.924 . S
O82 C90 1.311 . S
O83 Zn74 1.977 . S
O83 C89 1.272 . S
O84 Zn74 1.910 . S
O84 C90 1.231 . S
C85 O69 1.225 . S
C85 O91 1.298 . S
C86 O75 1.226 . S
C86 O76 1.307 . S
C87 O79 1.303 . S
C87 O80 1.247 . S
C88 O77 1.253 . S
C88 O78 1.283 . S
C89 O81 1.304 . S
C89 O83 1.272 . S
C90 O82 1.311 . S
C90 O84 1.231 . S
O91 Zn73 1.953 . S
O91 C85 1.298 . S
O92 Zn93 1.953 . S
O92 C108 1.225 . S
Zn93 O92 1.953 . S
Zn93 O94 1.949 . S
Zn93 O100 1.919 . S
Zn93 O105 1.924 . S
O94 Zn93 1.949 . S
O94 Zn95 1.923 . S
O94 Zn96 1.950 . S
O94 Zn97 1.945 . S
Zn95 O94 1.923 . S
Zn95 O98 1.933 . S
Zn95 O101 1.941 . S
Zn95 O102 1.965 . S
Zn96 O94 1.950 . S
Zn96 O103 1.938 . S
Zn96 O104 1.906 . S
Zn96 O114 1.953 . S
Zn97 O94 1.945 . S
Zn97 O99 1.932 . S
Zn97 O106 1.977 . S
Zn97 O107 1.910 . S
O98 Zn95 1.933 . S
O98 C109 1.226 . S
O99 Zn97 1.932 . S
O99 C109 1.307 . S
O100 Zn93 1.919 . S
O100 C111 1.253 . S
O101 Zn95 1.941 . S
O101 C111 1.283 . S
O102 Zn95 1.965 . S
O102 C110 1.303 . S
O103 Zn96 1.938 . S
O103 C110 1.247 . S
O104 Zn96 1.906 . S
O104 C112 1.304 . S
O105 Zn93 1.924 . S
O105 C113 1.311 . S
O106 Zn97 1.977 . S
O106 C112 1.272 . S
O107 Zn97 1.910 . S
O107 C113 1.231 . S
C108 O92 1.225 . S
C108 O114 1.298 . S
C109 O98 1.226 . S
C109 O99 1.307 . S
C110 O102 1.303 . S
C110 O103 1.247 . S
C111 O100 1.253 . S
C111 O101 1.283 . S
C112 O104 1.304 . S
C112 O106 1.272 . S
C113 O105 1.311 . S
C113 O107 1.231 . S
O114 Zn96 1.953 . S
O114 C108 1.298 . S
O115 Zn116 1.953 . S
O115 C131 1.225 . S
Zn116 O115 1.953 . S
Zn116 O117 1.949 . S
Zn116 O123 1.919 . S
Zn116 O128 1.924 . S
O117 Zn116 1.949 . S
O117 Zn118 1.923 . S
O117 Zn119 1.950 . S
O117 Zn120 1.945 . S
Zn118 O117 1.923 . S
Zn118 O121 1.933 . S
Zn118 O124 1.941 . S
Zn118 O125 1.965 . S
Zn119 O117 1.950 . S
Zn119 O126 1.938 . S
Zn119 O127 1.906 . S
Zn119 O137 1.953 . S
Zn120 O117 1.945 . S
Zn120 O122 1.932 . S
Zn120 O129 1.977 . S
Zn120 O130 1.910 . S
O121 Zn118 1.933 . S
O121 C132 1.226 . S
O122 Zn120 1.932 . S
O122 C132 1.307 . S
O123 Zn116 1.919 . S
O123 C134 1.253 . S
O124 Zn118 1.941 . S
O124 C134 1.283 . S
O125 Zn118 1.965 . S
O125 C133 1.303 . S
O126 Zn119 1.938 . S
O126 C133 1.247 . S
O127 Zn119 1.906 . S
O127 C135 1.304 . S
O128 Zn116 1.924 . S
O128 C136 1.311 . S
O129 Zn120 1.977 . S
O129 C135 1.272 . S
O130 Zn120 1.910 . S
O130 C136 1.231 . S
C131 O115 1.225 . S
C131 O137 1.298 . S
C132 O121 1.226 . S
C132 O122 1.307 . S
C133 O125 1.303 . S
C133 O126 1.247 . S
C134 O123 1.253 . S
C134 O124 1.283 . S
C135 O127 1.304 . S
C135 O129 1.272 . S
C136 O128 1.311 . S
C136 O130 1.231 . S
O137 Zn119 1.953 . S
O137 C131 1.298 . S
O138 Zn139 1.953 . S
O138 C154 1.225 . S
Zn139 O138 1.953 . S
Zn139 O140 1.949 . S
Zn139 O146 1.919 . S
Zn139 O151 1.924 . S
O140 Zn139 1.949 . S
O140 Zn141 1.923 . S
O140 Zn142 1.950 . S
O140 Zn143 1.945 . S
Zn141 O140 1.923 . S
Zn141 O144 1.933 . S
Zn141 O147 1.941 . S
Zn141 O148 1.965 . S
Zn142 O140 1.950 . S
Zn142 O149 1.938 . S
Zn142 O150 1.906 . S
Zn142 O160 1.953 . S
Zn143 O140 1.945 . S
Zn143 O145 1.932 . S
Zn143 O152 1.977 . S
Zn143 O153 1.910 . S
O144 Zn141 1.933 . S
O144 C155 1.226 . S
O145 Zn143 1.932 . S
O145 C155 1.307 . S
O146 Zn139 1.919 . S
O146 C157 1.253 . S
O147 Zn141 1.941 . S
O147 C157 1.283 . S
O148 Zn141 1.965 . S
O148 C156 1.303 . S
O149 Zn142 1.938 . S
O149 C156 1.247 . S
O150 Zn142 1.906 . S
O150 C158 1.304 . S
O151 Zn139 1.924 . S
O151 C159 1.311 . S
O152 Zn143 1.977 . S
O152 C158 1.272 . S
O153 Zn143 1.910 . S
O153 C159 1.231 . S
C154 O138 1.225 . S
C154 O160 1.298 . S
C155 O144 1.226 . S
C155 O145 1.307 . S
C156 O148 1.303 . S
C156 O149 1.247 . S
C157 O146 1.253 . S
C157 O147 1.283 . S
C158 O150 1.304 . S
C158 O152 1.272 . S
C159 O151 1.311 . S
C159 O153 1.231 . S
O160 Zn142 1.953 . S
O160 C154 1.298 . S
O161 Zn162 1.953 . S
O161 C177 1.225 . S
Zn162 O161 1.953 . S
Zn162 O163 1.949 . S
Zn162 O169 1.919 . S
Zn162 O174 1.924 . S
O163 Zn162 1.949 . S
O163 Zn164 1.923 . S
O163 Zn165 1.950 . S
O163 Zn166 1.945 . S
Zn164 O163 1.923 . S
Zn164 O167 1.933 . S
Zn164 O170 1.941 . S
Zn164 O171 1.965 . S
Zn165 O163 1.950 . S
Zn165 O172 1.938 . S
Zn165 O173 1.906 . S
Zn165 O183 1.953 . S
Zn166 O163 1.945 . S
Zn166 O168 1.932 . S
Zn166 O175 1.977 . S
Zn166 O176 1.910 . S
O167 Zn164 1.933 . S
O167 C178 1.226 . S
O168 Zn166 1.932 . S
O168 C178 1.307 . S
O169 Zn162 1.919 . S
O169 C180 1.253 . S
O170 Zn164 1.941 . S
O170 C180 1.283 . S
O171 Zn164 1.965 . S
O171 C179 1.303 . S
O172 Zn165 1.938 . S
O172 C179 1.247 . S
O173 Zn165 1.906 . S
O173 C181 1.304 . S
O174 Zn162 1.924 . S
O174 C182 1.311 . S
O175 Zn166 1.977 . S
O175 C181 1.272 . S
O176 Zn166 1.910 . S
O176 C182 1.231 . S
C177 O161 1.225 . S
C177 O183 1.298 . S
C178 O167 1.226 . S
C178 O168 1.307 . S
C179 O171 1.303 . S
C179 O172 1.247 . S
C180 O169 1.253 . S
C180 O170 1.283 . S
C181 O173 1.304 . S
C181 O175 1.272 . S
C182 O174 1.311 . S
C182 O176 1.231 . S
O183 Zn165 1.953 . S
O183 C177 1.298 . S
O184 Zn185 1.953 . S
O184 C200 1.225 . S
Zn185 O184 1.953 . S
Zn185 O186 1.949 . S
Zn185 O192 1.919 . S
Zn185 O197 1.924 . S
O186 Zn185 1.949 . S
O186 Zn187 1.923 . S
O186 Zn188 1.950 . S
O186 Zn189 1.945 . S
Zn187 O186 1.923 . S
Zn187 O190 1.933 . S
Zn187 O193 1.941 . S
Zn187 O194 1.965 . S
Zn188 O186 1.950 . S
Zn188 O195 1.938 . S
Zn188 O196 1.906 . S
Zn188 O206 1.953 . S
Zn189 O186 1.945 . S
Zn189 O191 1.932 . S
Zn189 O198 1.977 . S
Zn189 O199 1.910 . S
O190 Zn187 1.933 . S
O190 C201 1.226 . S
O191 Zn189 1.932 . S
O191 C201 1.307 . S
O192 Zn185 1.919 . S
O192 C203 1.253 . S
O193 Zn187 1.941 . S
O193 C203 1.283 . S
O194 Zn187 1.965 . S
O194 C202 1.303 . S
O195 Zn188 1.938 . S
O195 C202 1.247 . S
O196 Zn188 1.906 . S
O196 C204 1.304 . S
O197 Zn185 1.924 . S
O197 C205 1.311 . S
O198 Zn189 1.977 . S
O198 C204 1.272 . S
O199 Zn189 1.910 . S
O199 C205 1.231 . S
C200 O184 1.225 . S
C200 O206 1.298 . S
C201 O190 1.226 . S
C201 O191 1.307 . S
C202 O194 1.303 . S
C202 O195 1.247 . S
C203 O192 1.253 . S
C203 O193 1.283 . S
C204 O196 1.304 . S
C204 O198 1.272 . S
C205 O197 1.311 . S
C205 O199 1.231 . S
O206 Zn188 1.953 . S
O206 C200 1.298 . S
O207 Zn208 1.953 . S
O207 C223 1.225 . S
Zn208 O207 1.953 . S
Zn208 O209 1.949 . S
Zn208 O215 1.919 . S
Zn208 O220 1.924 . S
O209 Zn208 1.949 . S
O209 Zn210 1.923 . S
O209 Zn211 1.950 . S
O209 Zn212 1.945 . S
Zn210 O209 1.923 . S
Zn210 O213 1.933 . S
Zn210 O216 1.941 . S
Zn210 O217 1.965 . S
Zn211 O209 1.950 . S
Zn211 O218 1.938 . S
Zn211 O219 1.906 . S
Zn211 O229 1.953 . S
Zn212 O209 1.945 . S
Zn212 O214 1.932 . S
Zn212 O221 1.977 . S
Zn212 O222 1.910 . S
O213 Zn210 1.933 . S
O213 C224 1.226 . S
O214 Zn212 1.932 . S
O214 C224 1.307 . S
O215 Zn208 1.919 . S
O215 C226 1.253 . S
O216 Zn210 1.941 . S
O216 C226 1.283 . S
O217 Zn210 1.965 . S
O217 C225 1.303 . S
O218 Zn211 1.938 . S
O218 C225 1.247 . S
O219 Zn211 1.906 . S
O219 C227 1.304 . S
O220 Zn208 1.924 . S
O220 C228 1.311 . S
O221 Zn212 1.977 . S
O221 C227 1.272 . S
O222 Zn212 1.910 . S
O222 C228 1.231 . S
C223 O207 1.225 . S
C223 O229 1.298 . S
C224 O213 1.226 . S
C224 O214 1.307 . S
C225 O217 1.303 . S
C225 O218 1.247 . S
C226 O215 1.253 . S
C226 O216 1.283 . S
C227 O219 1.304 . S
C227 O221 1.272 . S
C228 O220 1.311 . S
C228 O222 1.231 . S
O229 Zn211 1.953 . S
O229 C223 1.298 . S
O230 Zn231 1.953 . S
O230 C246 1.225 . S
Zn231 O230 1.953 . S
Zn231 O232 1.949 . S
Zn231 O238 1.919 . S
Zn231 O243 1.924 . S
O232 Zn231 1.949 . S
O232 Zn233 1.923 . S
O232 Zn234 1.950 . S
O232 Zn235 1.945 . S
Zn233 O232 1.923 . S
Zn233 O236 1.933 . S
Zn233 O239 1.941 . S
Zn233 O240 1.965 . S
Zn234 O232 1.950 . S
Zn234 O241 1.938 . S
Zn234 O242 1.906 . S
Zn234 O252 1.953 . S
Zn235 O232 1.945 . S
Zn235 O237 1.932 . S
Zn235 O244 1.977 . S
Zn235 O245 1.910 . S
O236 Zn233 1.933 . S
O236 C247 1.226 . S
O237 Zn235 1.932 . S
O237 C247 1.307 . S
O238 Zn231 1.919 . S
O238 C249 1.253 . S
O239 Zn233 1.941 . S
O239 C249 1.283 . S
O240 Zn233 1.965 . S
O240 C248 1.303 . S
O241 Zn234 1.938 . S
O241 C248 1.247 . S
O242 Zn234 1.906 . S
O242 C250 1.304 . S
O243 Zn231 1.924 . S
O243 C251 1.311 . S
O244 Zn235 1.977 . S
O244 C250 1.272 . S
O245 Zn235 1.910 . S
O245 C251 1.231 . S
C246 O230 1.225 . S
C246 O252 1.298 . S
C247 O236 1.226 . S
C247 O237 1.307 . S
C248 O240 1.303 . S
C248 O241 1.247 . S
C249 O238 1.253 . S
C249 O239 1.283 . S
C250 O242 1.304 . S
C250 O244 1.272 . S
C251 O243 1.311 . S
C251 O245 1.231 . S
O252 Zn234 1.953 . S
O252 C246 1.298 . S
O253 Zn254 1.953 . S
O253 C269 1.225 . S
Zn254 O253 1.953 . S
Zn254 O255 1.949 . S
Zn254 O261 1.919 . S
Zn254 O266 1.924 . S
O255 Zn254 1.949 . S
O255 Zn256 1.923 . S
O255 Zn257 1.950 . S
O255 Zn258 1.945 . S
Zn256 O255 1.923 . S
Zn256 O259 1.933 . S
Zn256 O262 1.941 . S
Zn256 O263 1.965 . S
Zn257 O255 1.950 . S
Zn257 O264 1.938 . S
Zn257 O265 1.906 . S
Zn257 O275 1.953 . S
Zn258 O255 1.945 . S
Zn258 O260 1.932 . S
Zn258 O267 1.977 . S
Zn258 O268 1.910 . S
O259 Zn256 1.933 . S
O259 C270 1.226 . S
O260 Zn258 1.932 . S
O260 C270 1.307 . S
O261 Zn254 1.919 . S
O261 C272 1.253 . S
O262 Zn256 1.941 . S
O262 C272 1.283 . S
O263 Zn256 1.965 . S
O263 C271 1.303 . S
O264 Zn257 1.938 . S
O264 C271 1.247 . S
O265 Zn257 1.906 . S
O265 C273 1.304 . S
O266 Zn254 1.924 . S
O266 C274 1.311 . S
O267 Zn258 1.977 . S
O267 C273 1.272 . S
O268 Zn258 1.910 . S
O268 C274 1.231 . S
C269 O253 1.225 . S
C269 O275 1.298 . S
C270 O259 1.226 . S
C270 O260 1.307 . S
C271 O263 1.303 . S
C271 O264 1.247 . S
C272 O261 1.253 . S
C272 O262 1.283 . S
C273 O265 1.304 . S
C273 O267 1.272 . S
C274 O266 1.311 . S
C274 O268 1.231 . S
O275 Zn257 1.953 . S
O275 C269 1.298 . S
O276 Zn277 1.953 . S
O276 C292 1.225 . S
Zn277 O276 1.953 . S
Zn277 O278 1.949 . S
Zn277 O284 1.919 . S
Zn277 O289 1.924 . S
O278 Zn277 1.949 . S
O278 Zn279 1.923 . S
O278 Zn280 1.950 . S
O278 Zn281 1.945 . S
Zn279 O278 1.923 . S
Zn279 O282 1.933 . S
Zn279 O285 1.941 . S
Zn279 O286 1.965 . S
Zn280 O278 1.950 . S
Zn280 O287 1.938 . S
Zn280 O288 1.906 . S
Zn280 O298 1.953 . S
Zn281 O278 1.945 . S
Zn281 O283 1.932 . S
Zn281 O290 1.977 . S
Zn281 O291 1.910 . S
O282 Zn279 1.933 . S
O282 C293 1.226 . S
O283 Zn281 1.932 . S
O283 C293 1.307 . S
O284 Zn277 1.919 . S
O284 C295 1.253 . S
O285 Zn279 1.941 . S
O285 C295 1.283 . S
O286 Zn279 1.965 . S
O286 C294 1.303 . S
O287 Zn280 1.938 . S
O287 C294 1.247 . S
O288 Zn280 1.906 . S
O288 C296 1.304 . S
O289 Zn277 1.924 . S
O289 C297 1.311 . S
O290 Zn281 1.977 . S
O290 C296 1.272 . S
O291 Zn281 1.910 . S
O291 C297 1.231 . S
C292 O276 1.225 . S
C292 O298 1.298 . S
C293 O282 1.226 . S
C293 O283 1.307 . S
C294 O286 1.303 . S
C294 O287 1.247 . S
C295 O284 1.253 . S
C295 O285 1.283 . S
C296 O288 1.304 . S
C296 O290 1.272 . S
C297 O289 1.311 . S
C297 O291 1.231 . S
O298 Zn280 1.953 . S
O298 C292 1.298 . S
O299 Zn300 1.953 . S
O299 C315 1.225 . S
Zn300 O299 1.953 . S
Zn300 O301 1.949 . S
Zn300 O307 1.919 . S
Zn300 O312 1.924 . S
O301 Zn300 1.949 . S
O301 Zn302 1.923 . S
O301 Zn303 1.950 . S
O301 Zn304 1.945 . S
Zn302 O301 1.923 . S
Zn302 O305 1.933 . S
Zn302 O308 1.941 . S
Zn302 O309 1.965 . S
Zn303 O301 1.950 . S
Zn303 O310 1.938 . S
Zn303 O311 1.906 . S
Zn303 O321 1.953 . S
Zn304 O301 1.945 . S
Zn304 O306 1.932 . S
Zn304 O313 1.977 . S
Zn304 O314 1.910 . S
O305 Zn302 1.933 . S
O305 C316 1.226 . S
O306 Zn304 1.932 . S
O306 C316 1.307 . S
O307 Zn300 1.919 . S
O307 C318 1.253 . S
O308 Zn302 1.941 . S
O308 C318 1.283 . S
O309 Zn302 1.965 . S
O309 C317 1.303 . S
O310 Zn303 1.938 . S
O310 C317 1.247 . S
O311 Zn303 1.906 . S
O311 C319 1.304 . S
O312 Zn300 1.924 . S
O312 C320 1.311 . S
O313 Zn304 1.977 . S
O313 C319 1.272 . S
O314 Zn304 1.910 . S
O314 C320 1.231 . S
C315 O299 1.225 . S
C315 O321 1.298 . S
C316 O305 1.226 . S
C316 O306 1.307 . S
C317 O309 1.303 . S
C317 O310 1.247 . S
C318 O307 1.253 . S
C318 O308 1.283 . S
C319 O311 1.304 . S
C319 O313 1.272 . S
C320 O312 1.311 . S
C320 O314 1.231 . S
O321 Zn303 1.953 . S
O321 C315 1.298 . S
O322 Zn323 1.953 . S
O322 C338 1.225 . S
Zn323 O322 1.953 . S
Zn323 O324 1.949 . S
Zn323 O330 1.919 . S
Zn323 O335 1.924 . S
O324 Zn323 1.949 . S
O324 Zn325 1.923 . S
O324 Zn326 1.950 . S
O324 Zn327 1.945 . S
Zn325 O324 1.923 . S
Zn325 O328 1.933 . S
Zn325 O331 1.941 . S
Zn325 O332 1.965 . S
Zn326 O324 1.950 . S
Zn326 O333 1.938 . S
Zn326 O334 1.906 . S
Zn326 O344 1.953 . S
Zn327 O324 1.945 . S
Zn327 O329 1.932 . S
Zn327 O336 1.977 . S
Zn327 O337 1.910 . S
O328 Zn325 1.933 . S
O328 C339 1.226 . S
O329 Zn327 1.932 . S
O329 C339 1.307 . S
O330 Zn323 1.919 . S
O330 C341 1.253 . S
O331 Zn325 1.941 . S
O331 C341 1.283 . S
O332 Zn325 1.965 . S
O332 C340 1.303 . S
O333 Zn326 1.938 . S
O333 C340 1.247 . S
O334 Zn326 1.906 . S
O334 C342 1.304 . S
O335 Zn323 1.924 . S
O335 C343 1.311 . S
O336 Zn327 1.977 . S
O336 C342 1.272 . S
O337 Zn327 1.910 . S
O337 C343 1.231 . S
C338 O322 1.225 . S
C338 O344 1.298 . S
C339 O328 1.226 . S
C339 O329 1.307 . S
C340 O332 1.303 . S
C340 O333 1.247 . S
C341 O330 1.253 . S
C341 O331 1.283 . S
C342 O334 1.304 . S
C342 O336 1.272 . S
C343 O335 1.311 . S
C343 O337 1.231 . S
O344 Zn326 1.953 . S
O344 C338 1.298 . S
O345 Zn346 1.953 . S
O345 C361 1.225 . S
Zn346 O345 1.953 . S
Zn346 O347 1.949 . S
Zn346 O353 1.919 . S
Zn346 O358 1.924 . S
O347 Zn346 1.949 . S
O347 Zn348 1.923 . S
O347 Zn349 1.950 . S
O347 Zn350 1.945 . S
Zn348 O347 1.923 . S
Zn348 O351 1.933 . S
Zn348 O354 1.941 . S
Zn348 O355 1.965 . S
Zn349 O347 1.950 . S
Zn349 O356 1.938 . S
Zn349 O357 1.906 . S
Zn349 O367 1.953 . S
Zn350 O347 1.945 . S
Zn350 O352 1.932 . S
Zn350 O359 1.977 . S
Zn350 O360 1.910 . S
O351 Zn348 1.933 . S
O351 C362 1.226 . S
O352 Zn350 1.932 . S
O352 C362 1.307 . S
O353 Zn346 1.919 . S
O353 C364 1.253 . S
O354 Zn348 1.941 . S
O354 C364 1.283 . S
O355 Zn348 1.965 . S
O355 C363 1.303 . S
O356 Zn349 1.938 . S
O356 C363 1.247 . S
O357 Zn349 1.906 . S
O357 C365 1.304 . S
O358 Zn346 1.924 . S
O358 C366 1.311 . S
O359 Zn350 1.977 . S
O359 C365 1.272 . S
O360 Zn350 1.910 . S
O360 C366 1.231 . S
C361 O345 1.225 . S
C361 O367 1.298 . S
C362 O351 1.226 . S
C362 O352 1.307 . S
C363 O355 1.303 . S
C363 O356 1.247 . S
C364 O353 1.253 . S
C364 O354 1.283 . S
C365 O357 1.304 . S
C365 O359 1.272 . S
C366 O358 1.311 . S
C366 O360 1.231 . S
O367 Zn349 1.953 . S
O367 C361 1.298 . S
O368 Zn369 1.953 . S
O368 C384 1.225 . S
Zn369 O368 1.953 . S
Zn369 O370 1.949 . S
Zn369 O376 1.919 . S
Zn369 O381 1.924 . S
O370 Zn369 1.949 . S
O370 Zn371 1.923 . S
O370 Zn372 1.950 . S
O370 Zn373 1.945 . S
Zn371 O370 1.923 . S
Zn371 O374 1.933 . S
Zn371 O377 1.941 . S
Zn371 O378 1.965 . S
Zn372 O370 1.950 . S
Zn372 O379 1.938 . S
Zn372 O380 1.906 . S
Zn372 O390 1.953 . S
Zn373 O370 1.945 . S
Zn373 O375 1.932 . S
Zn373 O382 1.977 . S
Zn373 O383 1.910 . S
O374 Zn371 1.933 . S
O374 C385 1.226 . S
O375 Zn373 1.932 . S
O375 C385 1.307 . S
O376 Zn369 1.919 . S
O376 C387 1.253 . S
O377 Zn371 1.941 . S
O377 C387 1.283 . S
O378 Zn371 1.965 . S
O378 C386 1.303 . S
O379 Zn372 1.938 . S
O379 C386 1.247 . S
O380 Zn372 1.906 . S
O380 C388 1.304 . S
O381 Zn369 1.924 . S
O381 C389 1.311 . S
O382 Zn373 1.977 . S
O382 C388 1.272 . S
O383 Zn373 1.910 . S
O383 C389 1.231 . S
C384 O368 1.225 . S
C384 O390 1.298 . S
C385 O374 1.226 . S
C385 O375 1.307 . S
C386 O378 1.303 . S
C386 O379 1.247 . S
C387 O376 1.253 . S
C387 O377 1.283 . S
C388 O380 1.304 . S
C388 O382 1.272 . S
C389 O381 1.311 . S
C389 O383 1.231 . S
O390 Zn372 1.953 . S
O390 C384 1.298 . S
O391 Zn392 1.953 . S
O391 C407 1.225 . S
Zn392 O391 1.953 . S
Zn392 O393 1.949 . S
Zn392 O399 1.919 . S
Zn392 O404 1.924 . S
O393 Zn392 1.949 . S
O393 Zn394 1.923 . S
O393 Zn395 1.950 . S
O393 Zn396 1.945 . S
Zn394 O393 1.923 . S
Zn394 O397 1.933 . S
Zn394 O400 1.941 . S
Zn394 O401 1.965 . S
Zn395 O393 1.950 . S
Zn395 O402 1.938 . S
Zn395 O403 1.906 . S
Zn395 O413 1.953 . S
Zn396 O393 1.945 . S
Zn396 O398 1.932 . S
Zn396 O405 1.977 . S
Zn396 O406 1.910 . S
O397 Zn394 1.933 . S
O397 C408 1.226 . S
O398 Zn396 1.932 . S
O398 C408 1.307 . S
O399 Zn392 1.919 . S
O399 C410 1.253 . S
O400 Zn394 1.941 . S
O400 C410 1.283 . S
O401 Zn394 1.965 . S
O401 C409 1.303 . S
O402 Zn395 1.938 . S
O402 C409 1.247 . S
O403 Zn395 1.906 . S
O403 C411 1.304 . S
O404 Zn392 1.924 . S
O404 C412 1.311 . S
O405 Zn396 1.977 . S
O405 C411 1.272 . S
O406 Zn396 1.910 . S
O406 C412 1.231 . S
C407 O391 1.225 . S
C407 O413 1.298 . S
C408 O397 1.226 . S
C408 O398 1.307 . S
C409 O401 1.303 . S
C409 O402 1.247 . S
C410 O399 1.253 . S
C410 O400 1.283 . S
C411 O403 1.304 . S
C411 O405 1.272 . S
C412 O404 1.311 . S
C412 O406 1.231 . S
O413 Zn395 1.953 . S
O413 C407 1.298 . S
H414 C422 0.950 . S
H415 C427 0.950 . S
H416 C424 0.950 . S
H417 C426 0.950 . S
H418 C428 0.950 . S
H419 C430 0.950 . S
H420 C432 0.950 . S
H421 C433 0.950 . S
C422 H414 0.950 . S
C422 C423 1.386 . S
C422 C424 1.391 . S
C423 C422 1.386 . S
C423 C427 1.393 1_556 S
C424 H416 0.950 . S
C424 C422 1.391 . S
C424 C425 1.400 1_556 S
C425 C424 1.400 1_554 S
C425 C426 1.398 . S
C425 C431 1.491 . S
C426 H417 0.950 . S
C426 C425 1.398 . S
C426 C427 1.391 . S
C427 H415 0.950 . S
C427 C423 1.393 1_554 S
C427 C426 1.391 . S
C428 H418 0.950 . S
C428 C429 1.386 . S
C428 C430 1.391 . S
C429 C428 1.386 . S
C429 C433 1.393 1_554 S
C430 H419 0.950 . S
C430 C428 1.391 . S
C430 C431 1.400 . S
C431 C425 1.491 . S
C431 C430 1.400 . S
C431 C432 1.398 1_554 S
C432 H420 0.950 . S
C432 C431 1.398 1_556 S
C432 C433 1.391 . S
C433 H421 0.950 . S
C433 C429 1.393 1_556 S
C433 C432 1.391 . S
H434 C442 0.950 . S
H435 C447 0.950 . S
H436 C444 0.950 . S
H437 C446 0.950 . S
H438 C448 0.950 . S
H439 C450 0.950 . S
H440 C452 0.950 . S
H441 C453 0.950 . S
C442 H434 0.950 . S
C442 C443 1.386 1_556 S
C442 C444 1.391 . S
C443 C442 1.386 1_554 S
C443 C447 1.393 . S
C444 H436 0.950 . S
C444 C442 1.391 . S
C444 C445 1.400 1_556 S
C445 C444 1.400 1_554 S
C445 C446 1.398 . S
C445 C451 1.491 . S
C446 H437 0.950 . S
C446 C445 1.398 . S
C446 C447 1.391 . S
C447 H435 0.950 . S
C447 C443 1.393 . S
C447 C446 1.391 . S
C448 H438 0.950 . S
C448 C449 1.386 1_554 S
C448 C450 1.391 . S
C449 C448 1.386 1_556 S
C449 C453 1.393 . S
C450 H439 0.950 . S
C450 C448 1.391 . S
C450 C451 1.400 . S
C451 C445 1.491 . S
C451 C450 1.400 . S
C451 C452 1.398 1_554 S
C452 H440 0.950 . S
C452 C451 1.398 1_556 S
C452 C453 1.391 . S
C453 H441 0.950 . S
C453 C449 1.393 . S
C453 C452 1.391 . S
H454 C462 0.950 . S
H455 C467 0.950 . S
H456 C464 0.950 . S
H457 C466 0.950 . S
H458 C468 0.950 . S
H459 C470 0.950 . S
H460 C472 0.950 . S
H461 C473 0.950 . S
C462 H454 0.950 . S
C462 C463 1.386 . S
C462 C464 1.391 1_556 S
C463 C462 1.386 . S
C463 C467 1.393 1_556 S
C464 H456 0.950 . S
C464 C462 1.391 1_554 S
C464 C465 1.400 . S
C465 C464 1.400 . S
C465 C466 1.398 . S
C465 C471 1.491 . S
C466 H457 0.950 . S
C466 C465 1.398 . S
C466 C467 1.391 . S
C467 H455 0.950 . S
C467 C463 1.393 1_554 S
C467 C466 1.391 . S
C468 H458 0.950 . S
C468 C469 1.386 . S
C468 C470 1.391 . S
C469 C468 1.386 . S
C469 C473 1.393 . S
C470 H459 0.950 . S
C470 C468 1.391 . S
C470 C471 1.400 . S
C471 C465 1.491 . S
C471 C470 1.400 . S
C471 C472 1.398 . S
C472 H460 0.950 . S
C472 C471 1.398 . S
C472 C473 1.391 . S
C473 H461 0.950 . S
C473 C469 1.393 . S
C473 C472 1.391 . S
H474 C482 0.950 . S
H475 C487 0.950 . S
H476 C484 0.950 . S
H477 C486 0.950 . S
H478 C488 0.950 . S
H479 C490 0.950 . S
H480 C492 0.950 . S
H481 C493 0.950 . S
C482 H474 0.950 . S
C482 C483 1.386 . S
C482 C484 1.391 . S
C483 C482 1.386 . S
C483 C487 1.393 . S
C484 H476 0.950 . S
C484 C482 1.391 . S
C484 C485 1.400 . S
C485 C484 1.400 . S
C485 C486 1.398 . S
C485 C491 1.491 . S
C486 H477 0.950 . S
C486 C485 1.398 . S
C486 C487 1.391 . S
C487 H475 0.950 . S
C487 C483 1.393 . S
C487 C486 1.391 . S
C488 H478 0.950 . S
C488 C489 1.386 . S
C488 C490 1.391 . S
C489 C488 1.386 . S
C489 C493 1.393 . S
C490 H479 0.950 . S
C490 C488 1.391 . S
C490 C491 1.400 . S
C491 C485 1.491 . S
C491 C490 1.400 . S
C491 C492 1.398 . S
C492 H480 0.950 . S
C492 C491 1.398 . S
C492 C493 1.391 . S
C493 H481 0.950 . S
C493 C489 1.393 . S
C493 C492 1.391 . S
H494 C502 0.950 . S
H495 C507 0.950 . S
H496 C504 0.950 . S
H497 C506 0.950 . S
H498 C508 0.950 . S
H499 C510 0.950 . S
H500 C512 0.950 . S
H501 C513 0.950 . S
C502 H494 0.950 . S
C502 C503 1.386 . S
C502 C504 1.391 . S
C503 C502 1.386 . S
C503 C507 1.393 . S
C504 H496 0.950 . S
C504 C502 1.391 . S
C504 C505 1.400 . S
C505 C504 1.400 . S
C505 C506 1.398 . S
C505 C511 1.491 . S
C506 H497 0.950 . S
C506 C505 1.398 . S
C506 C507 1.391 . S
C507 H495 0.950 . S
C507 C503 1.393 . S
C507 C506 1.391 . S
C508 H498 0.950 . S
C508 C509 1.386 . S
C508 C510 1.391 . S
C509 C508 1.386 . S
C509 C513 1.393 . S
C510 H499 0.950 . S
C510 C508 1.391 . S
C510 C511 1.400 . S
C511 C505 1.491 . S
C511 C510 1.400 . S
C511 C512 1.398 . S
C512 H500 0.950 . S
C512 C511 1.398 . S
C512 C513 1.391 . S
C513 H501 0.950 . S
C513 C509 1.393 . S
C513 C512 1.391 . S
H514 C522 0.950 . S
H515 C527 0.950 . S
H516 C524 0.950 . S
H517 C526 0.950 . S
H518 C528 0.950 . S
H519 C530 0.950 . S
H520 C532 0.950 . S
H521 C533 0.950 . S
C522 H514 0.950 . S
C522 C523 1.386 . S
C522 C524 1.391 . S
C523 C522 1.386 . S
C523 C527 1.393 . S
C524 H516 0.950 . S
C524 C522 1.391 . S
C524 C525 1.400 . S
C525 C524 1.400 . S
C525 C526 1.398 . S
C525 C531 1.491 . S
C526 H517 0.950 . S
C526 C525 1.398 . S
C526 C527 1.391 . S
C527 H515 0.950 . S
C527 C523 1.393 . S
C527 C526 1.391 . S
C528 H518 0.950 . S
C528 C529 1.386 . S
C528 C530 1.391 . S
C529 C528 1.386 . S
C529 C533 1.393 . S
C530 H519 0.950 . S
C530 C528 1.391 . S
C530 C531 1.400 . S
C531 C525 1.491 . S
C531 C530 1.400 . S
C531 C532 1.398 . S
C532 H520 0.950 . S
C532 C531 1.398 . S
C532 C533 1.391 . S
C533 H521 0.950 . S
C533 C529 1.393 . S
C533 C532 1.391 . S
H534 C542 0.950 . S
H535 C547 0.950 . S
H536 C544 0.950 . S
H537 C546 0.950 . S
H538 C548 0.950 . S
H539 C550 0.950 . S
H540 C552 0.950 . S
H541 C553 0.950 . S
C542 H534 0.950 . S
C542 C543 1.386 . S
C542 C544 1.391 . S
C543 C542 1.386 . S
C543 C547 1.393 . S
C544 H536 0.950 . S
C544 C542 1.391 . S
C544 C545 1.400 . S
C545 C544 1.400 . S
C545 C546 1.398 . S
C545 C551 1.491 . S
C546 H537 0.950 . S
C546 C545 1.398 . S
C546 C547 1.391 . S
C547 H535 0.950 . S
C547 C543 1.393 . S
C547 C546 1.391 . S
C548 H538 0.950 . S
C548 C549 1.386 . S
C548 C550 1.391 . S
C549 C548 1.386 . S
C549 C553 1.393 . S
C550 H539 0.950 . S
C550 C548 1.391 . S
C550 C551 1.400 . S
C551 C545 1.491 . S
C551 C550 1.400 . S
C551 C552 1.398 . S
C552 H540 0.950 . S
C552 C551 1.398 . S
C552 C553 1.391 . S
C553 H541 0.950 . S
C553 C549 1.393 . S
C553 C552 1.391 . S
H554 C562 0.950 . S
H555 C567 0.950 . S
H556 C564 0.950 . S
H557 C566 0.950 . S
H558 C568 0.950 . S
H559 C570 0.950 . S
H560 C572 0.950 . S
H561 C573 0.950 . S
C562 H554 0.950 . S
C562 C563 1.386 . S
C562 C564 1.391 . S
C563 C562 1.386 . S
C563 C567 1.393 . S
C564 H556 0.950 . S
C564 C562 1.391 . S
C564 C565 1.400 . S
C565 C564 1.400 . S
C565 C566 1.398 . S
C565 C571 1.491 . S
C566 H557 0.950 . S
C566 C565 1.398 . S
C566 C567 1.391 . S
C567 H555 0.950 . S
C567 C563 1.393 . S
C567 C566 1.391 . S
C568 H558 0.950 . S
C568 C569 1.386 . S
C568 C570 1.391 . S
C569 C568 1.386 . S
C569 C573 1.393 . S
C570 H559 0.950 . S
C570 C568 1.391 . S
C570 C571 1.400 . S
C571 C565 1.491 . S
C571 C570 1.400 . S
C571 C572 1.398 . S
C572 H560 0.950 . S
C572 C571 1.398 . S
C572 C573 1.391 . S
C573 H561 0.950 . S
C573 C569 1.393 . S
C573 C572 1.391 . S
H574 C582 0.950 . S
H575 C587 0.950 . S
H576 C584 0.950 . S
H577 C586 0.950 . S
H578 C588 0.950 . S
H579 C590 0.950 . S
H580 C592 0.950 . S
H581 C593 0.950 . S
C582 H574 0.950 . S
C582 C583 1.386 . S
C582 C584 1.391 . S
C583 C582 1.386 . S
C583 C587 1.393 . S
C584 H576 0.950 . S
C584 C582 1.391 . S
C584 C585 1.400 . S
C585 C584 1.400 . S
C585 C586 1.398 . S
C585 C591 1.491 . S
C586 H577 0.950 . S
C586 C585 1.398 . S
C586 C587 1.391 . S
C587 H575 0.950 . S
C587 C583 1.393 . S
C587 C586 1.391 . S
C588 H578 0.950 . S
C588 C589 1.386 . S
C588 C590 1.391 . S
C589 C588 1.386 . S
C589 C593 1.393 . S
C590 H579 0.950 . S
C590 C588 1.391 . S
C590 C591 1.400 . S
C591 C585 1.491 . S
C591 C590 1.400 . S
C591 C592 1.398 . S
C592 H580 0.950 . S
C592 C591 1.398 . S
C592 C593 1.391 . S
C593 H581 0.950 . S
C593 C589 1.393 . S
C593 C592 1.391 . S
H594 C602 0.950 . S
H595 C607 0.950 . S
H596 C604 0.950 . S
H597 C606 0.950 . S
H598 C608 0.950 . S
H599 C610 0.950 . S
H600 C612 0.950 . S
H601 C613 0.950 . S
C602 H594 0.950 . S
C602 C603 1.386 . S
C602 C604 1.391 . S
C603 C602 1.386 . S
C603 C607 1.393 . S
C604 H596 0.950 . S
C604 C602 1.391 . S
C604 C605 1.400 . S
C605 C604 1.400 . S
C605 C606 1.398 . S
C605 C611 1.491 . S
C606 H597 0.950 . S
C606 C605 1.398 . S
C606 C607 1.391 . S
C607 H595 0.950 . S
C607 C603 1.393 . S
C607 C606 1.391 . S
C608 H598 0.950 . S
C608 C609 1.386 . S
C608 C610 1.391 . S
C609 C608 1.386 . S
C609 C613 1.393 . S
C610 H599 0.950 . S
C610 C608 1.391 . S
C610 C611 1.400 . S
C611 C605 1.491 . S
C611 C610 1.400 . S
C611 C612 1.398 . S
C612 H600 0.950 . S
C612 C611 1.398 . S
C612 C613 1.391 . S
C613 H601 0.950 . S
C613 C609 1.393 . S
C613 C612 1.391 . S
H614 C622 0.950 . S
H615 C627 0.950 . S
H616 C624 0.950 . S
H617 C626 0.950 . S
H618 C628 0.950 . S
H619 C630 0.950 . S
H620 C632 0.950 . S
H621 C633 0.950 . S
C622 H614 0.950 . S
C622 C623 1.386 . S
C622 C624 1.391 . S
C623 C622 1.386 . S
C623 C627 1.393 . S
C624 H616 0.950 . S
C624 C622 1.391 . S
C624 C625 1.400 . S
C625 C624 1.400 . S
C625 C626 1.398 . S
C625 C631 1.491 . S
C626 H617 0.950 . S
C626 C625 1.398 . S
C626 C627 1.391 . S
C627 H615 0.950 . S
C627 C623 1.393 . S
C627 C626 1.391 . S
C628 H618 0.950 . S
C628 C629 1.386 . S
C628 C630 1.391 . S
C629 C628 1.386 . S
C629 C633 1.393 . S
C630 H619 0.950 . S
C630 C628 1.391 . S
C630 C631 1.400 . S
C631 C625 1.491 . S
C631 C630 1.400 . S
C631 C632 1.398 . S
C632 H620 0.950 . S
C632 C631 1.398 . S
C632 C633 1.391 . S
C633 H621 0.950 . S
C633 C629 1.393 . S
C633 C632 1.391 . S
H634 C642 0.950 . S
H635 C647 0.950 . S
H636 C644 0.950 . S
H637 C646 0.950 . S
H638 C648 0.950 . S
H639 C650 0.950 . S
H640 C652 0.950 . S
H641 C653 0.950 . S
C642 H634 0.950 . S
C642 C643 1.386 . S
C642 C644 1.391 . S
C643 C642 1.386 . S
C643 C647 1.393 . S
C644 H636 0.950 . S
C644 C642 1.391 . S
C644 C645 1.400 . S
C645 C644 1.400 . S
C645 C646 1.398 . S
C645 C651 1.491 . S
C646 H637 0.950 . S
C646 C645 1.398 . S
C646 C647 1.391 . S
C647 H635 0.950 . S
C647 C643 1.393 . S
C647 C646 1.391 . S
C648 H638 0.950 . S
C648 C649 1.386 . S
C648 C650 1.391 . S
C649 C648 1.386 . S
C649 C653 1.393 . S
C650 H639 0.950 . S
C650 C648 1.391 . S
C650 C651 1.400 . S
C651 C645 1.491 . S
C651 C650 1.400 . S
C651 C652 1.398 . S
C652 H640 0.950 . S
C652 C651 1.398 . S
C652 C653 1.391 . S
C653 H641 0.950 . S
C653 C649 1.393 . S
C653 C652 1.391 . S
H654 C662 0.950 1_545 S
H655 C667 0.950 . S
H656 C664 0.950 . S
H657 C666 0.950 . S
H658 C668 0.950 . S
H659 C670 0.950 . S
H660 C672 0.950 . S
H661 C673 0.950 . S
C662 H654 0.950 1_565 S
C662 C663 1.386 . S
C662 C664 1.391 . S
C663 C662 1.386 . S
C663 C667 1.393 . S
C664 H656 0.950 . S
C664 C662 1.391 . S
C664 C665 1.400 . S
C665 C664 1.400 . S
C665 C666 1.398 . S
C665 C671 1.491 . S
C666 H657 0.950 . S
C666 C665 1.398 . S
C666 C667 1.391 . S
C667 H655 0.950 . S
C667 C663 1.393 . S
C667 C666 1.391 . S
C668 H658 0.950 . S
C668 C669 1.386 . S
C668 C670 1.391 . S
C669 C668 1.386 . S
C669 C673 1.393 . S
C670 H659 0.950 . S
C670 C668 1.391 . S
C670 C671 1.400 . S
C671 C665 1.491 . S
C671 C670 1.400 . S
C671 C672 1.398 . S
C672 H660 0.950 . S
C672 C671 1.398 . S
C672 C673 1.391 . S
C673 H661 0.950 . S
C673 C669 1.393 . S
C673 C672 1.391 . S
H674 C682 0.950 . S
H675 C687 0.950 . S
H676 C684 0.934 . S
H677 C686 0.950 . S
H678 C688 0.950 . S
H679 C690 0.950 . S
H680 C692 0.950 . S
H681 C693 0.950 1_655 S
C682 H674 0.950 . S
C682 C683 1.386 . S
C682 C684 1.391 . S
C683 C682 1.386 . S
C683 C687 1.393 . S
C684 H676 0.934 . S
C684 C682 1.391 . S
C684 C685 1.400 1_545 S
C685 C684 1.400 1_565 S
C685 C686 1.398 . S
C685 C691 1.491 . S
C686 H677 0.950 . S
C686 C685 1.398 . S
C686 C687 1.391 1_565 S
C687 H675 0.950 . S
C687 C683 1.393 . S
C687 C686 1.391 1_545 S
C688 H678 0.950 . S
C688 C689 1.386 . S
C688 C690 1.391 . S
C689 C688 1.386 . S
C689 C693 1.393 . S
C690 H679 0.950 . S
C690 C688 1.391 . S
C690 C691 1.400 . S
C691 C685 1.491 . S
C691 C690 1.400 . S
C691 C692 1.398 . S
C692 H680 0.950 . S
C692 C691 1.398 . S
C692 C693 1.391 . S
C693 H681 0.950 1_455 S
C693 C689 1.393 . S
C693 C692 1.391 . S
H694 C702 0.950 . S
H695 C707 0.950 . S
H696 C704 0.968 . S
H697 C706 0.950 . S
H698 C708 0.950 . S
H699 C710 0.950 . S
H700 C712 0.950 . S
H701 C713 0.950 . S
C702 H694 0.950 . S
C702 C703 1.386 . S
C702 C704 1.361 1_655 S
C703 C702 1.386 . S
C703 C707 1.393 . S
C704 H696 0.968 . S
C704 C702 1.361 1_455 S
C704 C705 1.413 . S
C705 C704 1.413 . S
C705 C706 1.398 . S
C705 C711 1.491 . S
C706 H697 0.950 . S
C706 C705 1.398 . S
C706 C707 1.391 1_455 S
C707 H695 0.950 . S
C707 C703 1.393 . S
C707 C706 1.391 1_655 S
C708 H698 0.950 . S
C708 C709 1.386 . S
C708 C710 1.391 . S
C709 C708 1.386 . S
C709 C713 1.393 . S
C710 H699 0.950 . S
C710 C708 1.391 . S
C710 C711 1.400 . S
C711 C705 1.491 . S
C711 C710 1.400 . S
C711 C712 1.398 . S
C712 H700 0.950 . S
C712 C711 1.398 . S
C712 C713 1.391 . S
C713 H701 0.950 . S
C713 C709 1.393 . S
C713 C712 1.391 . S
H714 C722 0.950 . S
H715 C727 0.950 . S
H716 C724 0.950 . S
H717 C726 0.950 . S
H718 C728 0.950 . S
H719 C730 0.950 . S
H720 C732 0.950 . S
H721 C733 0.950 1_655 S
C722 H714 0.950 . S
C722 C723 1.386 . S
C722 C724 1.391 . S
C723 C722 1.386 . S
C723 C727 1.393 . S
C724 H716 0.950 . S
C724 C722 1.391 . S
C724 C725 1.400 . S
C725 C724 1.400 . S
C725 C726 1.398 . S
C725 C731 1.491 . S
C726 H717 0.950 . S
C726 C725 1.398 . S
C726 C727 1.391 . S
C727 H715 0.950 . S
C727 C723 1.393 . S
C727 C726 1.391 . S
C728 H718 0.950 . S
C728 C729 1.386 . S
C728 C730 1.391 . S
C729 C728 1.386 . S
C729 C733 1.393 . S
C730 H719 0.950 . S
C730 C728 1.391 . S
C730 C731 1.400 . S
C731 C725 1.491 . S
C731 C730 1.400 . S
C731 C732 1.398 . S
C732 H720 0.950 . S
C732 C731 1.398 . S
C732 C733 1.391 . S
C733 H721 0.950 1_455 S
C733 C729 1.393 . S
C733 C732 1.391 . S
H734 C742 0.950 . S
H735 C747 0.950 . S
H736 C744 0.950 . S
H737 C746 0.950 . S
H738 C748 0.950 . S
H739 C750 0.950 . S
H740 C752 0.950 . S
H741 C753 0.950 . S
C742 H734 0.950 . S
C742 C743 1.386 . S
C742 C744 1.391 . S
C743 C742 1.386 . S
C743 C747 1.393 . S
C744 H736 0.950 . S
C744 C742 1.391 . S
C744 C745 1.400 . S
C745 C744 1.400 . S
C745 C746 1.398 . S
C745 C751 1.491 . S
C746 H737 0.950 . S
C746 C745 1.398 . S
C746 C747 1.391 . S
C747 H735 0.950 . S
C747 C743 1.393 . S
C747 C746 1.391 . S
C748 H738 0.950 . S
C748 C749 1.386 . S
C748 C750 1.391 1_545 S
C749 C748 1.386 . S
C749 C753 1.393 . S
C750 H739 0.950 . S
C750 C748 1.391 1_565 S
C750 C751 1.400 . S
C751 C745 1.491 . S
C751 C750 1.400 . S
C751 C752 1.398 . S
C752 H740 0.950 . S
C752 C751 1.398 . S
C752 C753 1.391 1_565 S
C753 H741 0.950 . S
C753 C749 1.393 . S
C753 C752 1.391 1_545 S
H754 C762 0.950 . S
H755 C767 0.950 1_545 S
H756 C764 0.950 . S
H757 C766 0.950 . S
H758 C768 0.950 . S
H759 C770 0.950 . S
H760 C772 0.950 . S
H761 C773 0.950 . S
C762 H754 0.950 . S
C762 C763 1.386 . S
C762 C764 1.391 . S
C763 C762 1.386 . S
C763 C767 1.393 . S
C764 H756 0.950 . S
C764 C762 1.391 . S
C764 C765 1.400 . S
C765 C764 1.400 . S
C765 C766 1.398 . S
C765 C771 1.491 . S
C766 H757 0.950 . S
C766 C765 1.398 . S
C766 C767 1.391 . S
C767 H755 0.950 1_565 S
C767 C763 1.393 . S
C767 C766 1.391 . S
C768 H758 0.950 . S
C768 C769 1.386 . S
C768 C770 1.391 1_655 S
C769 C768 1.386 . S
C769 C773 1.393 . S
C770 H759 0.950 . S
C770 C768 1.391 1_455 S
C770 C771 1.400 . S
C771 C765 1.491 . S
C771 C770 1.400 . S
C771 C772 1.398 . S
C772 H760 0.950 . S
C772 C771 1.398 . S
C772 C773 1.391 1_455 S
C773 H761 0.950 . S
C773 C769 1.393 . S
C773 C772 1.391 1_655 S
H774 C782 0.950 . S
H775 C787 0.950 . S
H776 C784 0.950 . S
H777 C786 0.950 . S
H778 C788 0.950 . S
H779 C790 0.950 . S
H780 C792 0.950 . S
H781 C793 0.950 . S
C782 H774 0.950 . S
C782 C783 1.386 . S
C782 C784 1.391 . S
C783 C782 1.386 . S
C783 C787 1.393 . S
C784 H776 0.950 . S
C784 C782 1.391 . S
C784 C785 1.400 . S
C785 C784 1.400 . S
C785 C786 1.398 . S
C785 C791 1.491 . S
C786 H777 0.950 . S
C786 C785 1.398 . S
C786 C787 1.391 . S
C787 H775 0.950 . S
C787 C783 1.393 . S
C787 C786 1.391 . S
C788 H778 0.950 . S
C788 C789 1.386 . S
C788 C790 1.391 . S
C789 C788 1.386 . S
C789 C793 1.393 . S
C790 H779 0.950 . S
C790 C788 1.391 . S
C790 C791 1.400 . S
C791 C785 1.491 . S
C791 C790 1.400 . S
C791 C792 1.398 . S
C792 H780 0.950 . S
C792 C791 1.398 . S
C792 C793 1.391 . S
C793 H781 0.950 . S
C793 C789 1.393 . S
C793 C792 1.391 . S
H794 C802 0.950 . S
H795 C807 0.950 . S
H796 C804 0.950 . S
H797 C806 0.950 . S
H798 C808 0.950 . S
H799 C810 0.950 . S
H800 C812 0.950 . S
H801 C813 0.950 . S
C802 H794 0.950 . S
C802 C803 1.386 . S
C802 C804 1.391 . S
C803 C802 1.386 . S
C803 C807 1.393 . S
C804 H796 0.950 . S
C804 C802 1.391 . S
C804 C805 1.400 . S
C805 C804 1.400 . S
C805 C806 1.398 . S
C805 C811 1.491 . S
C806 H797 0.950 . S
C806 C805 1.398 . S
C806 C807 1.391 . S
C807 H795 0.950 . S
C807 C803 1.393 . S
C807 C806 1.391 . S
C808 H798 0.950 . S
C808 C809 1.386 . S
C808 C810 1.391 . S
C809 C808 1.386 . S
C809 C813 1.393 . S
C810 H799 0.950 . S
C810 C808 1.391 . S
C810 C811 1.400 . S
C811 C805 1.491 . S
C811 C810 1.400 . S
C811 C812 1.398 . S
C812 H800 0.950 . S
C812 C811 1.398 . S
C812 C813 1.391 . S
C813 H801 0.950 . S
C813 C809 1.393 . S
C813 C812 1.391 . S
H814 C822 0.950 . S
H815 C827 0.950 . S
H816 C824 0.950 . S
H817 C826 0.950 . S
H818 C828 0.950 . S
H819 C830 0.950 . S
H820 C832 0.950 . S
H821 C833 0.950 . S
C822 H814 0.950 . S
C822 C823 1.386 . S
C822 C824 1.391 . S
C823 C822 1.386 . S
C823 C827 1.393 . S
C824 H816 0.950 . S
C824 C822 1.391 . S
C824 C825 1.400 . S
C825 C824 1.400 . S
C825 C826 1.398 . S
C825 C831 1.491 . S
C826 H817 0.950 . S
C826 C825 1.398 . S
C826 C827 1.391 . S
C827 H815 0.950 . S
C827 C823 1.393 . S
C827 C826 1.391 . S
C828 H818 0.950 . S
C828 C829 1.386 . S
C828 C830 1.391 . S
C829 C828 1.386 . S
C829 C833 1.393 . S
C830 H819 0.950 . S
C830 C828 1.391 . S
C830 C831 1.400 . S
C831 C825 1.491 . S
C831 C830 1.400 . S
C831 C832 1.398 . S
C832 H820 0.950 . S
C832 C831 1.398 . S
C832 C833 1.391 . S
C833 H821 0.950 . S
C833 C829 1.393 . S
C833 C832 1.391 . S
H834 C842 0.950 . S
H835 C847 0.950 . S
H836 C844 0.950 . S
H837 C846 0.950 . S
H838 C848 0.950 . S
H839 C850 0.950 . S
H840 C852 0.950 . S
H841 C853 0.950 . S
C842 H834 0.950 . S
C842 C843 1.386 . S
C842 C844 1.391 . S
C843 C842 1.386 . S
C843 C847 1.393 . S
C844 H836 0.950 . S
C844 C842 1.391 . S
C844 C845 1.400 . S
C845 C844 1.400 . S
C845 C846 1.398 . S
C845 C851 1.491 . S
C846 H837 0.950 . S
C846 C845 1.398 . S
C846 C847 1.391 . S
C847 H835 0.950 . S
C847 C843 1.393 . S
C847 C846 1.391 . S
C848 H838 0.950 . S
C848 C849 1.386 . S
C848 C850 1.391 . S
C849 C848 1.386 . S
C849 C853 1.393 . S
C850 H839 0.950 . S
C850 C848 1.391 . S
C850 C851 1.400 . S
C851 C845 1.491 . S
C851 C850 1.400 . S
C851 C852 1.398 . S
C852 H840 0.950 . S
C852 C851 1.398 . S
C852 C853 1.391 . S
C853 H841 0.950 . S
C853 C849 1.393 . S
C853 C852 1.391 . S
H854 C862 0.950 . S
H855 C867 0.950 . S
H856 C864 0.950 . S
H857 C866 0.950 . S
H858 C868 0.950 . S
H859 C870 0.950 . S
H860 C872 0.950 . S
H861 C873 0.950 . S
C862 H854 0.950 . S
C862 C863 1.386 . S
C862 C864 1.391 . S
C863 C862 1.386 . S
C863 C867 1.393 . S
C864 H856 0.950 . S
C864 C862 1.391 . S
C864 C865 1.400 . S
C865 C864 1.400 . S
C865 C866 1.398 . S
C865 C871 1.491 . S
C866 H857 0.950 . S
C866 C865 1.398 . S
C866 C867 1.391 . S
C867 H855 0.950 . S
C867 C863 1.393 . S
C867 C866 1.391 . S
C868 H858 0.950 . S
C868 C869 1.386 . S
C868 C870 1.391 . S
C869 C868 1.386 . S
C869 C873 1.393 . S
C870 H859 0.950 . S
C870 C868 1.391 . S
C870 C871 1.400 . S
C871 C865 1.491 . S
C871 C870 1.400 . S
C871 C872 1.398 . S
C872 H860 0.950 . S
C872 C871 1.398 . S
C872 C873 1.391 . S
C873 H861 0.950 . S
C873 C869 1.393 . S
C873 C872 1.391 . S
H874 C882 0.950 . S
H875 C887 0.950 . S
H876 C884 0.950 . S
H877 C886 0.950 . S
H878 C888 0.950 . S
H879 C890 0.950 . S
H880 C892 0.950 . S
H881 C893 0.950 . S
C882 H874 0.950 . S
C882 C883 1.386 . S
C882 C884 1.391 . S
C883 C882 1.386 . S
C883 C887 1.393 . S
C884 H876 0.950 . S
C884 C882 1.391 . S
C884 C885 1.400 . S
C885 C884 1.400 . S
C885 C886 1.398 . S
C885 C891 1.491 . S
C886 H877 0.950 . S
C886 C885 1.398 . S
C886 C887 1.391 . S
C887 H875 0.950 . S
C887 C883 1.393 . S
C887 C886 1.391 . S
C888 H878 0.950 . S
C888 C889 1.386 . S
C888 C890 1.391 . S
C889 C888 1.386 . S
C889 C893 1.393 . S
C890 H879 0.950 . S
C890 C888 1.391 . S
C890 C891 1.400 . S
C891 C885 1.491 . S
C891 C890 1.400 . S
C891 C892 1.398 . S
C892 H880 0.950 . S
C892 C891 1.398 . S
C892 C893 1.391 . S
C893 H881 0.950 . S
C893 C889 1.393 . S
C893 C892 1.391 . S
H894 C902 0.950 . S
H895 C907 0.950 . S
H896 C904 0.950 . S
H897 C906 0.950 . S
H898 C908 0.950 . S
H899 C910 0.950 . S
H900 C912 0.950 . S
H901 C913 0.950 . S
C902 H894 0.950 . S
C902 C903 1.386 . S
C902 C904 1.391 . S
C903 C902 1.386 . S
C903 C907 1.393 . S
C904 H896 0.950 . S
C904 C902 1.391 . S
C904 C905 1.400 . S
C905 C904 1.400 . S
C905 C906 1.398 . S
C905 C911 1.491 . S
C906 H897 0.950 . S
C906 C905 1.398 . S
C906 C907 1.391 . S
C907 H895 0.950 . S
C907 C903 1.393 . S
C907 C906 1.391 . S
C908 H898 0.950 . S
C908 C909 1.386 . S
C908 C910 1.391 . S
C909 C908 1.386 . S
C909 C913 1.393 . S
C910 H899 0.950 . S
C910 C908 1.391 . S
C910 C911 1.400 . S
C911 C905 1.491 . S
C911 C910 1.400 . S
C911 C912 1.398 . S
C912 H900 0.950 . S
C912 C911 1.398 . S
C912 C913 1.391 . S
C913 H901 0.950 . S
C913 C909 1.393 . S
C913 C912 1.391 . S
H914 C922 0.950 . S
H915 C927 0.950 . S
H916 C924 0.950 . S
H917 C926 0.950 . S
H918 C928 0.950 . S
H919 C930 0.950 . S
H920 C932 0.950 . S
H921 C933 0.950 . S
C922 H914 0.950 . S
C922 C923 1.386 . S
C922 C924 1.391 . S
C923 C922 1.386 . S
C923 C927 1.393 . S
C924 H916 0.950 . S
C924 C922 1.391 . S
C924 C925 1.400 . S
C925 C924 1.400 . S
C925 C926 1.398 . S
C925 C931 1.491 . S
C926 H917 0.950 . S
C926 C925 1.398 . S
C926 C927 1.391 . S
C927 H915 0.950 . S
C927 C923 1.393 . S
C927 C926 1.391 . S
C928 H918 0.950 . S
C928 C929 1.386 . S
C928 C930 1.391 . S
C929 C928 1.386 . S
C929 C933 1.393 . S
C930 H919 0.950 . S
C930 C928 1.391 . S
C930 C931 1.400 . S
C931 C925 1.491 . S
C931 C930 1.400 . S
C931 C932 1.398 . S
C932 H920 0.950 . S
C932 C931 1.398 . S
C932 C933 1.391 . S
C933 H921 0.950 . S
C933 C929 1.393 . S
C933 C932 1.391 . S
H934 C942 0.950 . S
H935 C947 0.950 . S
H936 C944 0.950 . S
H937 C946 0.950 . S
H938 C948 0.950 . S
H939 C950 0.950 . S
H940 C952 0.950 . S
H941 C953 0.950 . S
C942 H934 0.950 . S
C942 C943 1.386 . S
C942 C944 1.391 . S
C943 C942 1.386 . S
C943 C947 1.393 . S
C944 H936 0.950 . S
C944 C942 1.391 . S
C944 C945 1.400 . S
C945 C944 1.400 . S
C945 C946 1.398 . S
C945 C951 1.491 . S
C946 H937 0.950 . S
C946 C945 1.398 . S
C946 C947 1.391 . S
C947 H935 0.950 . S
C947 C943 1.393 . S
C947 C946 1.391 . S
C948 H938 0.950 . S
C948 C949 1.386 . S
C948 C950 1.391 . S
C949 C948 1.386 . S
C949 C953 1.393 . S
C950 H939 0.950 . S
C950 C948 1.391 . S
C950 C951 1.400 . S
C951 C945 1.491 . S
C951 C950 1.400 . S
C951 C952 1.398 . S
C952 H940 0.950 . S
C952 C951 1.398 . S
C952 C953 1.391 . S
C953 H941 0.950 . S
C953 C949 1.393 . S
C953 C952 1.391 . S
H954 C962 0.950 . S
H955 C967 0.950 . S
H956 C964 0.950 . S
H957 C966 0.950 . S
H958 C968 0.950 . S
H959 C970 0.950 . S
H960 C972 0.950 . S
H961 C973 0.950 . S
C962 H954 0.950 . S
C962 C963 1.386 1_554 S
C962 C964 1.391 . S
C963 C962 1.386 1_556 S
C963 C967 1.393 . S
C964 H956 0.950 . S
C964 C962 1.391 . S
C964 C965 1.400 . S
C965 C964 1.400 . S
C965 C966 1.398 . S
C965 C971 1.491 . S
C966 H957 0.950 . S
C966 C965 1.398 . S
C966 C967 1.391 1_554 S
C967 H955 0.950 . S
C967 C963 1.393 . S
C967 C966 1.391 1_556 S
C968 H958 0.950 . S
C968 C969 1.386 . S
C968 C970 1.391 . S
C969 C968 1.386 . S
C969 C973 1.393 . S
C970 H959 0.950 . S
C970 C968 1.391 . S
C970 C971 1.400 . S
C971 C965 1.491 . S
C971 C970 1.400 . S
C971 C972 1.398 . S
C972 H960 0.950 . S
C972 C971 1.398 . S
C972 C973 1.391 . S
C973 H961 0.950 . S
C973 C969 1.393 . S
C973 C972 1.391 . S
H974 C982 0.950 1_556 S
H975 C987 0.950 1_556 S
H976 C984 0.950 . S
H977 C986 0.950 . S
H978 C988 0.950 . S
H979 C990 0.950 . S
H980 C992 0.950 . S
H981 C993 0.950 . S
C982 H974 0.950 1_554 S
C982 C983 1.386 1_554 S
C982 C984 1.391 . S
C983 C982 1.386 1_556 S
C983 C987 1.393 1_556 S
C984 H976 0.950 . S
C984 C982 1.391 . S
C984 C985 1.400 . S
C985 C984 1.400 . S
C985 C986 1.398 . S
C985 C991 1.491 . S
C986 H977 0.950 . S
C986 C985 1.398 . S
C986 C987 1.391 . S
C987 H975 0.950 1_554 S
C987 C983 1.393 1_554 S
C987 C986 1.391 . S
C988 H978 0.950 . S
C988 C989 1.386 . S
C988 C990 1.391 . S
C989 C988 1.386 . S
C989 C993 1.393 . S
C990 H979 0.950 . S
C990 C988 1.391 . S
C990 C991 1.400 . S
C991 C985 1.491 . S
C991 C990 1.400 . S
C991 C992 1.398 . S
C992 H980 0.950 . S
C992 C991 1.398 . S
C992 C993 1.391 . S
C993 H981 0.950 . S
C993 C989 1.393 . S
C993 C992 1.391 . S
H994 C1002 0.950 . S
H995 C1007 0.956 . S
H996 C1004 0.950 . S
H997 C1006 0.950 . S
H998 C1008 0.950 . S
H999 C1010 0.950 . S
H1000 C1012 0.950 . S
H1001 C1013 0.950 . S
C1002 H994 0.950 . S
C1002 C1003 1.386 . S
C1002 C1004 1.391 1_556 S
C1003 C1002 1.386 . S
C1003 C1007 1.393 1_556 S
C1004 H996 0.950 . S
C1004 C1002 1.391 1_554 S
C1004 C1005 1.400 . S
C1005 C1004 1.400 . S
C1005 C1006 1.398 . S
C1005 C1011 1.491 . S
C1006 H997 0.950 . S
C1006 C1005 1.398 . S
C1006 C1007 1.391 . S
C1007 H995 0.956 . S
C1007 C1003 1.393 1_554 S
C1007 C1006 1.391 . S
C1008 H998 0.950 . S
C1008 C1009 1.386 . S
C1008 C1010 1.391 . S
C1009 C1008 1.386 . S
C1009 C1013 1.393 . S
C1010 H999 0.950 . S
C1010 C1008 1.391 . S
C1010 C1011 1.400 . S
C1011 C1005 1.491 . S
C1011 C1010 1.400 . S
C1011 C1012 1.398 . S
C1012 H1000 0.950 . S
C1012 C1011 1.398 . S
C1012 C1013 1.391 . S
C1013 H1001 0.950 . S
C1013 C1009 1.393 . S
C1013 C1012 1.391 . S
H1014 C1022 0.950 . S
H1015 C1027 0.950 . S
H1016 C1024 0.950 . S
H1017 C1026 0.950 . S
H1018 C1028 0.950 . S
H1019 C1030 0.950 . S
H1020 C1032 0.950 . S
H1021 C1033 0.956 . S
C1022 H1014 0.950 . S
C1022 C1023 1.386 . S
C1022 C1024 1.391 . S
C1023 C1022 1.386 . S
C1023 C1027 1.393 . S
C1024 H1016 0.950 . S
C1024 C1022 1.391 . S
C1024 C1025 1.400 . S
C1025 C1024 1.400 . S
C1025 C1026 1.398 . S
C1025 C1031 1.491 . S
C1026 H1017 0.950 . S
C1026 C1025 1.398 . S
C1026 C1027 1.391 . S
C1027 H1015 0.950 . S
C1027 C1023 1.393 . S
C1027 C1026 1.391 . S
C1028 H1018 0.950 . S
C1028 C1029 1.386 . S
C1028 C1030 1.391 1_554 S
C1029 C1028 1.386 . S
C1029 C1033 1.412 . S
C1030 H1019 0.950 . S
C1030 C1028 1.391 1_556 S
C1030 C1031 1.400 . S
C1031 C1025 1.491 . S
C1031 C1030 1.400 . S
C1031 C1032 1.398 . S
C1032 H1020 0.950 . S
C1032 C1031 1.398 . S
C1032 C1033 1.365 1_556 S
C1033 H1021 0.956 . S
C1033 C1029 1.412 . S
C1033 C1032 1.365 1_554 S
H1034 C1042 0.950 . S
H1035 C1047 0.950 . S
H1036 C1044 0.950 . S
H1037 C1046 0.950 . S
H1038 C1048 0.950 . S
H1039 C1050 0.950 . S
H1040 C1052 0.950 . S
H1041 C1053 0.950 . S
C1042 H1034 0.950 . S
C1042 C1043 1.386 . S
C1042 C1044 1.391 . S
C1043 C1042 1.386 . S
C1043 C1047 1.393 . S
C1044 H1036 0.950 . S
C1044 C1042 1.391 . S
C1044 C1045 1.400 . S
C1045 C1044 1.400 . S
C1045 C1046 1.398 . S
C1045 C1051 1.491 . S
C1046 H1037 0.950 . S
C1046 C1045 1.398 . S
C1046 C1047 1.391 . S
C1047 H1035 0.950 . S
C1047 C1043 1.393 . S
C1047 C1046 1.391 . S
C1048 H1038 0.950 . S
C1048 C1049 1.386 . S
C1048 C1050 1.391 1_554 S
C1049 C1048 1.386 . S
C1049 C1053 1.393 . S
C1050 H1039 0.950 . S
C1050 C1048 1.391 1_556 S
C1050 C1051 1.400 . S
C1051 C1045 1.491 . S
C1051 C1050 1.400 . S
C1051 C1052 1.398 . S
C1052 H1040 0.950 . S
C1052 C1051 1.398 . S
C1052 C1053 1.391 1_556 S
C1053 H1041 0.950 . S
C1053 C1049 1.393 . S
C1053 C1052 1.391 1_554 S
H1054 C1062 0.950 . S
H1055 C1067 0.950 . S
H1056 C1064 0.950 . S
H1057 C1066 0.950 . S
H1058 C1068 0.950 . S
H1059 C1070 0.950 . S
H1060 C1072 0.950 . S
H1061 C1073 0.950 . S
C1062 H1054 0.950 . S
C1062 C1063 1.386 . S
C1062 C1064 1.391 . S
C1063 C1062 1.386 . S
C1063 C1067 1.393 . S
C1064 H1056 0.950 . S
C1064 C1062 1.391 . S
C1064 C1065 1.400 . S
C1065 C1064 1.400 . S
C1065 C1066 1.398 . S
C1065 C1071 1.491 . S
C1066 H1057 0.950 . S
C1066 C1065 1.398 . S
C1066 C1067 1.391 . S
C1067 H1055 0.950 . S
C1067 C1063 1.393 . S
C1067 C1066 1.391 . S
C1068 H1058 0.950 . S
C1068 C1069 1.386 . S
C1068 C1070 1.391 1_554 S
C1069 C1068 1.386 . S
C1069 C1073 1.393 . S
C1070 H1059 0.950 . S
C1070 C1068 1.391 1_556 S
C1070 C1071 1.400 . S
C1071 C1065 1.491 . S
C1071 C1070 1.400 . S
C1071 C1072 1.398 . S
C1072 H1060 0.950 . S
C1072 C1071 1.398 . S
C1072 C1073 1.391 1_556 S
C1073 H1061 0.950 . S
C1073 C1069 1.393 . S
C1073 C1072 1.391 1_554 S
H1074 C1082 0.950 . S
H1075 C1087 0.950 . S
H1076 C1084 0.950 . S
H1077 C1086 0.950 . S
H1078 C1088 0.950 . S
H1079 C1090 0.950 . S
H1080 C1092 0.950 . S
H1081 C1093 0.950 . S
C1082 H1074 0.950 . S
C1082 C1083 1.386 . S
C1082 C1084 1.391 . S
C1083 C1082 1.386 . S
C1083 C1087 1.393 . S
C1084 H1076 0.950 . S
C1084 C1082 1.391 . S
C1084 C1085 1.400 . S
C1085 C1084 1.400 . S
C1085 C1086 1.398 . S
C1085 C1091 1.491 . S
C1086 H1077 0.950 . S
C1086 C1085 1.398 . S
C1086 C1087 1.391 . S
C1087 H1075 0.950 . S
C1087 C1083 1.393 . S
C1087 C1086 1.391 . S
C1088 H1078 0.950 . S
C1088 C1089 1.386 . S
C1088 C1090 1.391 . S
C1089 C1088 1.386 . S
C1089 C1093 1.393 . S
C1090 H1079 0.950 . S
C1090 C1088 1.391 . S
C1090 C1091 1.400 . S
C1091 C1085 1.491 . S
C1091 C1090 1.400 . S
C1091 C1092 1.398 . S
C1092 H1080 0.950 . S
C1092 C1091 1.398 . S
C1092 C1093 1.391 . S
C1093 H1081 0.950 . S
C1093 C1089 1.393 . S
C1093 C1092 1.391 . S
H1094 C1102 0.950 . S
H1095 C1107 0.950 . S
H1096 C1104 0.950 . S
H1097 C1106 0.950 . S
H1098 C1108 0.950 . S
H1099 C1110 0.950 . S
H1100 C1112 0.950 . S
H1101 C1113 0.950 . S
C1102 H1094 0.950 . S
C1102 C1103 1.386 . S
C1102 C1104 1.391 . S
C1103 C1102 1.386 . S
C1103 C1107 1.393 . S
C1104 H1096 0.950 . S
C1104 C1102 1.391 . S
C1104 C1105 1.400 . S
C1105 C1104 1.400 . S
C1105 C1106 1.398 . S
C1105 C1111 1.491 . S
C1106 H1097 0.950 . S
C1106 C1105 1.398 . S
C1106 C1107 1.391 . S
C1107 H1095 0.950 . S
C1107 C1103 1.393 . S
C1107 C1106 1.391 . S
C1108 H1098 0.950 . S
C1108 C1109 1.386 . S
C1108 C1110 1.391 . S
C1109 C1108 1.386 . S
C1109 C1113 1.393 . S
C1110 H1099 0.950 . S
C1110 C1108 1.391 . S
C1110 C1111 1.400 . S
C1111 C1105 1.491 . S
C1111 C1110 1.400 . S
C1111 C1112 1.398 . S
C1112 H1100 0.950 . S
C1112 C1111 1.398 . S
C1112 C1113 1.391 . S
C1113 H1101 0.950 . S
C1113 C1109 1.393 . S
C1113 C1112 1.391 . S
H1114 C1122 0.950 . S
H1115 C1127 0.950 . S
H1116 C1124 0.950 . S
H1117 C1126 0.950 . S
H1118 C1128 0.950 . S
H1119 C1130 0.950 . S
H1120 C1132 0.950 . S
H1121 C1133 0.950 . S
C1122 H1114 0.950 . S
C1122 C1123 1.386 . S
C1122 C1124 1.391 . S
C1123 C1122 1.386 . S
C1123 C1127 1.393 . S
C1124 H1116 0.950 . S
C1124 C1122 1.391 . S
C1124 C1125 1.400 . S
C1125 C1124 1.400 . S
C1125 C1126 1.398 . S
C1125 C1131 1.491 . S
C1126 H1117 0.950 . S
C1126 C1125 1.398 . S
C1126 C1127 1.391 . S
C1127 H1115 0.950 . S
C1127 C1123 1.393 . S
C1127 C1126 1.391 . S
C1128 H1118 0.950 . S
C1128 C1129 1.386 . S
C1128 C1130 1.391 . S
C1129 C1128 1.386 . S
C1129 C1133 1.393 . S
C1130 H1119 0.950 . S
C1130 C1128 1.391 . S
C1130 C1131 1.400 . S
C1131 C1125 1.491 . S
C1131 C1130 1.400 . S
C1131 C1132 1.398 . S
C1132 H1120 0.950 . S
C1132 C1131 1.398 . S
C1132 C1133 1.391 . S
C1133 H1121 0.950 . S
C1133 C1129 1.393 . S
C1133 C1132 1.391 . S
H1134 C1142 0.950 . S
H1135 C1147 0.950 . S
H1136 C1144 0.950 . S
H1137 C1146 0.950 . S
H1138 C1148 0.950 1_554 S
H1139 C1150 0.950 . S
H1140 C1152 0.950 . S
H1141 C1153 0.950 . S
C1142 H1134 0.950 . S
C1142 C1143 1.386 . S
C1142 C1144 1.391 . S
C1143 C1142 1.386 . S
C1143 C1147 1.393 . S
C1144 H1136 0.950 . S
C1144 C1142 1.391 . S
C1144 C1145 1.400 . S
C1145 C1144 1.400 . S
C1145 C1146 1.398 . S
C1145 C1151 1.491 . S
C1146 H1137 0.950 . S
C1146 C1145 1.398 . S
C1146 C1147 1.391 . S
C1147 H1135 0.950 . S
C1147 C1143 1.393 . S
C1147 C1146 1.391 . S
C1148 H1138 0.950 1_556 S
C1148 C1149 1.386 . S
C1148 C1150 1.391 1_545 S
C1149 C1148 1.386 . S
C1149 C1153 1.393 . S
C1150 H1139 0.950 . S
C1150 C1148 1.391 1_565 S
C1150 C1151 1.400 . S
C1151 C1145 1.491 . S
C1151 C1150 1.400 . S
C1151 C1152 1.398 . S
C1152 H1140 0.950 . S
C1152 C1151 1.398 . S
C1152 C1153 1.391 1_565 S
C1153 H1141 0.950 . S
C1153 C1149 1.393 . S
C1153 C1152 1.391 1_545 S
H1154 C1162 0.948 . S
H1155 C1167 0.950 1_554 S
H1156 C1164 0.950 . S
H1157 C1166 0.975 . S
H1158 C1168 0.950 . S
H1159 C1170 0.950 . S
H1160 C1172 0.950 . S
H1161 C1173 0.950 . S
C1162 H1154 0.948 . S
C1162 C1163 1.392 . S
C1162 C1164 1.377 1_655 S
C1163 C1162 1.392 . S
C1163 C1167 1.393 . S
C1164 H1156 0.950 . S
C1164 C1162 1.377 1_455 S
C1164 C1165 1.400 . S
C1165 C1164 1.400 . S
C1165 C1166 1.416 . S
C1165 C1171 1.491 . S
C1166 H1157 0.975 . S
C1166 C1165 1.416 . S
C1166 C1167 1.350 1_455 S
C1167 H1155 0.950 1_556 S
C1167 C1163 1.393 . S
C1167 C1166 1.350 1_655 S
C1168 H1158 0.950 . S
C1168 C1169 1.386 . S
C1168 C1170 1.391 . S
C1169 C1168 1.386 . S
C1169 C1173 1.393 . S
C1170 H1159 0.950 . S
C1170 C1168 1.391 . S
C1170 C1171 1.400 . S
C1171 C1165 1.491 . S
C1171 C1170 1.400 . S
C1171 C1172 1.398 . S
C1172 H1160 0.950 . S
C1172 C1171 1.398 . S
C1172 C1173 1.391 . S
C1173 H1161 0.950 . S
C1173 C1169 1.393 . S
C1173 C1172 1.391 . S
H1174 C1182 0.950 . S
H1175 C1187 0.950 . S
H1176 C1184 0.950 . S
H1177 C1186 0.950 . S
H1178 C1188 0.950 . S
H1179 C1190 0.950 . S
H1180 C1192 0.950 . S
H1181 C1193 0.950 . S
C1182 H1174 0.950 . S
C1182 C1183 1.386 . S
C1182 C1184 1.391 . S
C1183 C1182 1.386 . S
C1183 C1187 1.393 . S
C1184 H1176 0.950 . S
C1184 C1182 1.391 . S
C1184 C1185 1.400 . S
C1185 C1184 1.400 . S
C1185 C1186 1.398 . S
C1185 C1191 1.491 . S
C1186 H1177 0.950 . S
C1186 C1185 1.398 . S
C1186 C1187 1.391 . S
C1187 H1175 0.950 . S
C1187 C1183 1.393 . S
C1187 C1186 1.391 . S
C1188 H1178 0.950 . S
C1188 C1189 1.386 . S
C1188 C1190 1.391 . S
C1189 C1188 1.386 . S
C1189 C1193 1.393 . S
C1190 H1179 0.950 . S
C1190 C1188 1.391 . S
C1190 C1191 1.400 . S
C1191 C1185 1.491 . S
C1191 C1190 1.400 . S
C1191 C1192 1.398 . S
C1192 H1180 0.950 . S
C1192 C1191 1.398 . S
C1192 C1193 1.391 . S
C1193 H1181 0.950 . S
C1193 C1189 1.393 . S
C1193 C1192 1.391 . S
H1194 C1202 0.950 . S
H1195 C1207 0.932 . S
H1196 C1204 0.950 . S
H1197 C1206 0.950 . S
H1198 C1208 0.950 . S
H1199 C1210 0.950 . S
H1200 C1212 0.950 . S
H1201 C1213 0.950 . S
C1202 H1194 0.950 . S
C1202 C1203 1.386 . S
C1202 C1204 1.391 1_655 S
C1203 C1202 1.386 . S
C1203 C1207 1.424 . S
C1204 H1196 0.950 . S
C1204 C1202 1.391 1_455 S
C1204 C1205 1.400 . S
C1205 C1204 1.400 . S
C1205 C1206 1.398 . S
C1205 C1211 1.491 . S
C1206 H1197 0.950 . S
C1206 C1205 1.398 . S
C1206 C1207 1.378 1_455 S
C1207 H1195 0.932 . S
C1207 C1203 1.424 . S
C1207 C1206 1.378 1_655 S
C1208 H1198 0.950 . S
C1208 C1209 1.386 . S
C1208 C1210 1.391 . S
C1209 C1208 1.386 . S
C1209 C1213 1.393 . S
C1210 H1199 0.950 . S
C1210 C1208 1.391 . S
C1210 C1211 1.400 . S
C1211 C1205 1.491 . S
C1211 C1210 1.400 . S
C1211 C1212 1.398 . S
C1212 H1200 0.950 . S
C1212 C1211 1.398 . S
C1212 C1213 1.391 . S
C1213 H1201 0.950 . S
C1213 C1209 1.393 . S
C1213 C1212 1.391 . S
H1214 C1222 0.950 . S
H1215 C1227 0.950 . S
H1216 C1224 0.950 . S
H1217 C1226 0.950 . S
H1218 C1228 0.950 . S
H1219 C1230 0.950 . S
H1220 C1232 0.950 . S
H1221 C1233 0.950 . S
C1222 H1214 0.950 . S
C1222 C1223 1.386 . S
C1222 C1224 1.391 . S
C1223 C1222 1.386 . S
C1223 C1227 1.393 . S
C1224 H1216 0.950 . S
C1224 C1222 1.391 . S
C1224 C1225 1.400 . S
C1225 C1224 1.400 . S
C1225 C1226 1.398 . S
C1225 C1231 1.491 . S
C1226 H1217 0.950 . S
C1226 C1225 1.398 . S
C1226 C1227 1.391 . S
C1227 H1215 0.950 . S
C1227 C1223 1.393 . S
C1227 C1226 1.391 . S
C1228 H1218 0.950 . S
C1228 C1229 1.386 . S
C1228 C1230 1.391 . S
C1229 C1228 1.386 . S
C1229 C1233 1.393 . S
C1230 H1219 0.950 . S
C1230 C1228 1.391 . S
C1230 C1231 1.400 . S
C1231 C1225 1.491 . S
C1231 C1230 1.400 . S
C1231 C1232 1.398 . S
C1232 H1220 0.950 . S
C1232 C1231 1.398 . S
C1232 C1233 1.391 . S
C1233 H1221 0.950 . S
C1233 C1229 1.393 . S
C1233 C1232 1.391 . S
H1234 C1242 0.950 . S
H1235 C1247 0.950 . S
H1236 C1244 0.950 . S
H1237 C1246 0.950 . S
H1238 C1248 0.950 . S
H1239 C1250 0.950 . S
H1240 C1252 0.950 . S
H1241 C1253 0.950 . S
C1242 H1234 0.950 . S
C1242 C1243 1.386 . S
C1242 C1244 1.391 . S
C1243 C1242 1.386 . S
C1243 C1247 1.393 . S
C1244 H1236 0.950 . S
C1244 C1242 1.391 . S
C1244 C1245 1.400 . S
C1245 C1244 1.400 . S
C1245 C1246 1.398 . S
C1245 C1251 1.491 . S
C1246 H1237 0.950 . S
C1246 C1245 1.398 . S
C1246 C1247 1.391 . S
C1247 H1235 0.950 . S
C1247 C1243 1.393 . S
C1247 C1246 1.391 . S
C1248 H1238 0.950 . S
C1248 C1249 1.386 1_565 S
C1248 C1250 1.391 . S
C1249 C1248 1.386 1_545 S
C1249 C1253 1.393 . S
C1250 H1239 0.950 . S
C1250 C1248 1.391 . S
C1250 C1251 1.400 . S
C1251 C1245 1.491 . S
C1251 C1250 1.400 . S
C1251 C1252 1.398 1_565 S
C1252 H1240 0.950 . S
C1252 C1251 1.398 1_545 S
C1252 C1253 1.391 . S
C1253 H1241 0.950 . S
C1253 C1249 1.393 . S
C1253 C1252 1.391 . S
H1254 C1262 0.950 . S
H1255 C1267 0.950 . S
H1256 C1264 0.950 . S
H1257 C1266 0.950 . S
H1258 C1268 0.950 . S
H1259 C1270 0.950 . S
H1260 C1272 0.950 . S
H1261 C1273 0.950 . S
C1262 H1254 0.950 . S
C1262 C1263 1.386 . S
C1262 C1264 1.391 . S
C1263 C1262 1.386 . S
C1263 C1267 1.393 . S
C1264 H1256 0.950 . S
C1264 C1262 1.391 . S
C1264 C1265 1.400 . S
C1265 C1264 1.400 . S
C1265 C1266 1.398 . S
C1265 C1271 1.491 . S
C1266 H1257 0.950 . S
C1266 C1265 1.398 . S
C1266 C1267 1.391 . S
C1267 H1255 0.950 . S
C1267 C1263 1.393 . S
C1267 C1266 1.391 . S
C1268 H1258 0.950 . S
C1268 C1269 1.386 . S
C1268 C1270 1.391 . S
C1269 C1268 1.386 . S
C1269 C1273 1.393 . S
C1270 H1259 0.950 . S
C1270 C1268 1.391 . S
C1270 C1271 1.400 . S
C1271 C1265 1.491 . S
C1271 C1270 1.400 . S
C1271 C1272 1.398 . S
C1272 H1260 0.950 . S
C1272 C1271 1.398 . S
C1272 C1273 1.391 . S
C1273 H1261 0.950 . S
C1273 C1269 1.393 . S
C1273 C1272 1.391 . S
H1274 C1282 0.950 . S
H1275 C1287 0.950 . S
H1276 C1284 0.950 . S
H1277 C1286 0.950 . S
H1278 C1288 0.950 . S
H1279 C1290 0.950 . S
H1280 C1292 0.950 . S
H1281 C1293 0.950 . S
C1282 H1274 0.950 . S
C1282 C1283 1.386 . S
C1282 C1284 1.391 . S
C1283 C1282 1.386 . S
C1283 C1287 1.393 . S
C1284 H1276 0.950 . S
C1284 C1282 1.391 . S
C1284 C1285 1.400 . S
C1285 C1284 1.400 . S
C1285 C1286 1.398 . S
C1285 C1291 1.491 . S
C1286 H1277 0.950 . S
C1286 C1285 1.398 . S
C1286 C1287 1.391 . S
C1287 H1275 0.950 . S
C1287 C1283 1.393 . S
C1287 C1286 1.391 . S
C1288 H1278 0.950 . S
C1288 C1289 1.386 . S
C1288 C1290 1.391 . S
C1289 C1288 1.386 . S
C1289 C1293 1.393 . S
C1290 H1279 0.950 . S
C1290 C1288 1.391 . S
C1290 C1291 1.400 . S
C1291 C1285 1.491 . S
C1291 C1290 1.400 . S
C1291 C1292 1.398 . S
C1292 H1280 0.950 . S
C1292 C1291 1.398 . S
C1292 C1293 1.391 . S
C1293 H1281 0.950 . S
C1293 C1289 1.393 . S
C1293 C1292 1.391 . S
H1294 C1302 0.950 . S
H1295 C1307 0.950 . S
H1296 C1304 0.950 . S
H1297 C1306 0.950 . S
H1298 C1308 0.950 . S
H1299 C1310 0.950 . S
H1300 C1312 0.950 . S
H1301 C1313 0.950 . S
C1302 H1294 0.950 . S
C1302 C1303 1.386 . S
C1302 C1304 1.391 . S
C1303 C1302 1.386 . S
C1303 C1307 1.393 . S
C1304 H1296 0.950 . S
C1304 C1302 1.391 . S
C1304 C1305 1.400 . S
C1305 C1304 1.400 . S
C1305 C1306 1.398 . S
C1305 C1311 1.491 . S
C1306 H1297 0.950 . S
C1306 C1305 1.398 . S
C1306 C1307 1.391 . S
C1307 H1295 0.950 . S
C1307 C1303 1.393 . S
C1307 C1306 1.391 . S
C1308 H1298 0.950 . S
C1308 C1309 1.386 . S
C1308 C1310 1.391 . S
C1309 C1308 1.386 . S
C1309 C1313 1.393 . S
C1310 H1299 0.950 . S
C1310 C1308 1.391 . S
C1310 C1311 1.400 . S
C1311 C1305 1.491 . S
C1311 C1310 1.400 . S
C1311 C1312 1.398 . S
C1312 H1300 0.950 . S
C1312 C1311 1.398 . S
C1312 C1313 1.391 . S
C1313 H1301 0.950 . S
C1313 C1309 1.393 . S
C1313 C1312 1.391 . S
H1314 C1322 0.950 . S
H1315 C1327 0.950 . S
H1316 C1324 0.950 . S
H1317 C1326 0.950 . S
H1318 C1328 0.950 . S
H1319 C1330 0.950 . S
H1320 C1332 0.950 . S
H1321 C1333 0.950 . S
C1322 H1314 0.950 . S
C1322 C1323 1.386 . S
C1322 C1324 1.391 . S
C1323 C1322 1.386 . S
C1323 C1327 1.393 . S
C1324 H1316 0.950 . S
C1324 C1322 1.391 . S
C1324 C1325 1.400 . S
C1325 C1324 1.400 . S
C1325 C1326 1.398 . S
C1325 C1331 1.491 . S
C1326 H1317 0.950 . S
C1326 C1325 1.398 . S
C1326 C1327 1.391 . S
C1327 H1315 0.950 . S
C1327 C1323 1.393 . S
C1327 C1326 1.391 . S
C1328 H1318 0.950 . S
C1328 C1329 1.386 . S
C1328 C1330 1.391 . S
C1329 C1328 1.386 . S
C1329 C1333 1.393 . S
C1330 H1319 0.950 . S
C1330 C1328 1.391 . S
C1330 C1331 1.400 . S
C1331 C1325 1.491 . S
C1331 C1330 1.400 . S
C1331 C1332 1.398 . S
C1332 H1320 0.950 . S
C1332 C1331 1.398 . S
C1332 C1333 1.391 . S
C1333 H1321 0.950 . S
C1333 C1329 1.393 . S
C1333 C1332 1.391 . S
H1334 C1342 0.950 . S
H1335 C1347 0.952 . S
H1336 C1344 0.950 . S
H1337 C1346 0.950 . S
H1338 C1348 0.950 . S
H1339 C1350 0.950 . S
H1340 C1352 0.950 . S
H1341 C1353 0.950 . S
C1342 H1334 0.950 . S
C1342 C1343 1.386 . S
C1342 C1344 1.391 . S
C1343 C1342 1.386 . S
C1343 C1347 1.393 . S
C1344 H1336 0.950 . S
C1344 C1342 1.391 . S
C1344 C1345 1.400 . S
C1345 C1344 1.400 . S
C1345 C1346 1.398 . S
C1345 C1351 1.491 . S
C1346 H1337 0.950 . S
C1346 C1345 1.398 . S
C1346 C1347 1.391 . S
C1347 H1335 0.952 . S
C1347 C1343 1.393 . S
C1347 C1346 1.391 . S
C1348 H1338 0.950 . S
C1348 C1349 1.386 . S
C1348 C1350 1.391 . S
C1349 C1348 1.386 . S
C1349 C1353 1.393 . S
C1350 H1339 0.950 . S
C1350 C1348 1.391 . S
C1350 C1351 1.400 . S
C1351 C1345 1.491 . S
C1351 C1350 1.400 . S
C1351 C1352 1.398 . S
C1352 H1340 0.950 . S
C1352 C1351 1.398 . S
C1352 C1353 1.391 . S
C1353 H1341 0.950 . S
C1353 C1349 1.393 . S
C1353 C1352 1.391 . S
H1354 C1362 0.950 . S
H1355 C1367 0.950 . S
H1356 C1364 0.950 . S
H1357 C1366 0.950 . S
H1358 C1368 0.950 . S
H1359 C1370 0.950 . S
H1360 C1372 0.950 . S
H1361 C1373 0.950 . S
C1362 H1354 0.950 . S
C1362 C1363 1.386 . S
C1362 C1364 1.391 . S
C1363 C1362 1.386 . S
C1363 C1367 1.393 . S
C1364 H1356 0.950 . S
C1364 C1362 1.391 . S
C1364 C1365 1.400 . S
C1365 C1364 1.400 . S
C1365 C1366 1.398 . S
C1365 C1371 1.491 . S
C1366 H1357 0.950 . S
C1366 C1365 1.398 . S
C1366 C1367 1.391 . S
C1367 H1355 0.950 . S
C1367 C1363 1.393 . S
C1367 C1366 1.391 . S
C1368 H1358 0.950 . S
C1368 C1369 1.386 . S
C1368 C1370 1.391 . S
C1369 C1368 1.386 . S
C1369 C1373 1.393 . S
C1370 H1359 0.950 . S
C1370 C1368 1.391 . S
C1370 C1371 1.400 . S
C1371 C1365 1.491 . S
C1371 C1370 1.400 . S
C1371 C1372 1.398 . S
C1372 H1360 0.950 . S
C1372 C1371 1.398 . S
C1372 C1373 1.391 . S
C1373 H1361 0.950 . S
C1373 C1369 1.393 . S
C1373 C1372 1.391 . S
H1374 C1382 0.950 . S
H1375 C1387 0.950 . S
H1376 C1384 0.950 . S
H1377 C1386 0.950 . S
H1378 C1388 0.950 . S
H1379 C1390 0.950 . S
H1380 C1392 0.950 . S
H1381 C1393 0.950 . S
C1382 H1374 0.950 . S
C1382 C1383 1.386 . S
C1382 C1384 1.391 . S
C1383 C1382 1.386 . S
C1383 C1387 1.393 . S
C1384 H1376 0.950 . S
C1384 C1382 1.391 . S
C1384 C1385 1.400 . S
C1385 C1384 1.400 . S
C1385 C1386 1.398 . S
C1385 C1391 1.491 . S
C1386 H1377 0.950 . S
C1386 C1385 1.398 . S
C1386 C1387 1.391 . S
C1387 H1375 0.950 . S
C1387 C1383 1.393 . S
C1387 C1386 1.391 . S
C1388 H1378 0.950 . S
C1388 C1389 1.386 . S
C1388 C1390 1.391 . S
C1389 C1388 1.386 . S
C1389 C1393 1.393 . S
C1390 H1379 0.950 . S
C1390 C1388 1.391 . S
C1390 C1391 1.400 . S
C1391 C1385 1.491 . S
C1391 C1390 1.400 . S
C1391 C1392 1.398 . S
C1392 H1380 0.950 . S
C1392 C1391 1.398 . S
C1392 C1393 1.391 . S
C1393 H1381 0.950 . S
C1393 C1389 1.393 . S
C1393 C1392 1.391 . S
H1394 C1402 0.950 . S
H1395 C1407 0.950 . S
H1396 C1404 0.950 . S
H1397 C1406 0.950 . S
H1398 C1408 0.950 . S
H1399 C1410 0.950 . S
H1400 C1412 0.950 . S
H1401 C1413 0.950 . S
C1402 H1394 0.950 . S
C1402 C1403 1.386 . S
C1402 C1404 1.391 . S
C1403 C1402 1.386 . S
C1403 C1407 1.393 . S
C1404 H1396 0.950 . S
C1404 C1402 1.391 . S
C1404 C1405 1.400 . S
C1405 C1404 1.400 . S
C1405 C1406 1.398 . S
C1405 C1411 1.491 . S
C1406 H1397 0.950 . S
C1406 C1405 1.398 . S
C1406 C1407 1.391 . S
C1407 H1395 0.950 . S
C1407 C1403 1.393 . S
C1407 C1406 1.391 . S
C1408 H1398 0.950 . S
C1408 C1409 1.386 . S
C1408 C1410 1.391 . S
C1409 C1408 1.386 . S
C1409 C1413 1.393 . S
C1410 H1399 0.950 . S
C1410 C1408 1.391 . S
C1410 C1411 1.400 . S
C1411 C1405 1.491 . S
C1411 C1410 1.400 . S
C1411 C1412 1.398 . S
C1412 H1400 0.950 . S
C1412 C1411 1.398 . S
C1412 C1413 1.391 . S
C1413 H1401 0.950 . S
C1413 C1409 1.393 . S
C1413 C1412 1.391 . S
H1414 C1422 0.950 . S
H1415 C1427 0.950 . S
H1416 C1424 0.950 . S
H1417 C1426 0.950 . S
H1418 C1428 0.950 . S
H1419 C1430 0.950 . S
H1420 C1432 0.950 . S
H1421 C1433 0.950 . S
C1422 H1414 0.950 . S
C1422 C1423 1.386 . S
C1422 C1424 1.391 . S
C1423 C1422 1.386 . S
C1423 C1427 1.393 . S
C1424 H1416 0.950 . S
C1424 C1422 1.391 . S
C1424 C1425 1.400 . S
C1425 C1424 1.400 . S
C1425 C1426 1.398 . S
C1425 C1431 1.491 . S
C1426 H1417 0.950 . S
C1426 C1425 1.398 . S
C1426 C1427 1.391 . S
C1427 H1415 0.950 . S
C1427 C1423 1.393 . S
C1427 C1426 1.391 . S
C1428 H1418 0.950 . S
C1428 C1429 1.386 . S
C1428 C1430 1.391 . S
C1429 C1428 1.386 . S
C1429 C1433 1.393 . S
C1430 H1419 0.950 . S
C1430 C1428 1.391 . S
C1430 C1431 1.400 . S
C1431 C1425 1.491 . S
C1431 C1430 1.400 . S
C1431 C1432 1.398 . S
C1432 H1420 0.950 . S
C1432 C1431 1.398 . S
C1432 C1433 1.391 . S
C1433 H1421 0.950 . S
C1433 C1429 1.393 . S
C1433 C1432 1.391 . S
H1434 C1442 0.950 . S
H1435 C1447 0.950 . S
H1436 C1444 0.950 . S
H1437 C1446 0.950 . S
H1438 C1448 0.950 . S
H1439 C1450 0.950 . S
H1440 C1452 0.950 . S
H1441 C1453 0.950 . S
C1442 H1434 0.950 . S
C1442 C1443 1.386 . S
C1442 C1444 1.391 . S
C1443 C1442 1.386 . S
C1443 C1447 1.393 . S
C1444 H1436 0.950 . S
C1444 C1442 1.391 . S
C1444 C1445 1.400 . S
C1445 C1444 1.400 . S
C1445 C1446 1.398 . S
C1445 C1451 1.491 . S
C1446 H1437 0.950 . S
C1446 C1445 1.398 . S
C1446 C1447 1.391 . S
C1447 H1435 0.950 . S
C1447 C1443 1.393 . S
C1447 C1446 1.391 . S
C1448 H1438 0.950 . S
C1448 C1449 1.386 . S
C1448 C1450 1.391 . S
C1449 C1448 1.386 . S
C1449 C1453 1.393 . S
C1450 H1439 0.950 . S
C1450 C1448 1.391 . S
C1450 C1451 1.400 . S
C1451 C1445 1.491 . S
C1451 C1450 1.400 . S
C1451 C1452 1.398 . S
C1452 H1440 0.950 . S
C1452 C1451 1.398 . S
C1452 C1453 1.391 . S
C1453 H1441 0.950 . S
C1453 C1449 1.393 . S
C1453 C1452 1.391 . S
H1454 C1462 0.950 . S
H1455 C1467 0.950 . S
H1456 C1464 0.950 . S
H1457 C1466 0.950 . S
H1458 C1468 0.950 . S
H1459 C1470 0.950 . S
H1460 C1472 0.950 . S
H1461 C1473 0.970 . S
C1462 H1454 0.950 . S
C1462 C1463 1.386 . S
C1462 C1464 1.391 . S
C1463 C1462 1.386 . S
C1463 C1467 1.393 . S
C1464 H1456 0.950 . S
C1464 C1462 1.391 . S
C1464 C1465 1.400 . S
C1465 C1464 1.400 . S
C1465 C1466 1.398 . S
C1465 C1471 1.491 . S
C1466 H1457 0.950 . S
C1466 C1465 1.398 . S
C1466 C1467 1.391 . S
C1467 H1455 0.950 . S
C1467 C1463 1.393 . S
C1467 C1466 1.391 . S
C1468 H1458 0.950 . S
C1468 C1469 1.386 . S
C1468 C1470 1.391 . S
C1469 C1468 1.386 . S
C1469 C1473 1.393 . S
C1470 H1459 0.950 . S
C1470 C1468 1.391 . S
C1470 C1471 1.400 . S
C1471 C1465 1.491 . S
C1471 C1470 1.400 . S
C1471 C1472 1.398 . S
C1472 H1460 0.950 . S
C1472 C1471 1.398 . S
C1472 C1473 1.391 . S
C1473 H1461 0.970 . S
C1473 C1469 1.393 . S
C1473 C1472 1.391 . S
H1474 C1482 0.950 . S
H1475 C1487 0.950 . S
H1476 C1484 0.950 . S
H1477 C1486 0.950 . S
H1478 C1488 0.950 . S
H1479 C1490 0.950 . S
H1480 C1492 0.950 . S
H1481 C1493 0.950 . S
C1482 H1474 0.950 . S
C1482 C1483 1.386 . S
C1482 C1484 1.391 . S
C1483 C1482 1.386 . S
C1483 C1487 1.393 . S
C1484 H1476 0.950 . S
C1484 C1482 1.391 . S
C1484 C1485 1.400 . S
C1485 C1484 1.400 . S
C1485 C1486 1.398 . S
C1485 C1491 1.491 . S
C1486 H1477 0.950 . S
C1486 C1485 1.398 . S
C1486 C1487 1.391 . S
C1487 H1475 0.950 . S
C1487 C1483 1.393 . S
C1487 C1486 1.391 . S
C1488 H1478 0.950 . S
C1488 C1489 1.386 . S
C1488 C1490 1.391 . S
C1489 C1488 1.386 . S
C1489 C1493 1.393 . S
C1490 H1479 0.950 . S
C1490 C1488 1.391 . S
C1490 C1491 1.400 . S
C1491 C1485 1.491 . S
C1491 C1490 1.400 . S
C1491 C1492 1.398 . S
C1492 H1480 0.950 . S
C1492 C1491 1.398 . S
C1492 C1493 1.391 . S
C1493 H1481 0.950 . S
C1493 C1489 1.393 . S
C1493 C1492 1.391 . S
C423 C18 0.818 1_556 S
C429 C62 0.826 . S
C443 C16 0.824 . S
C449 C41 0.812 1_556 S
C463 C64 0.806 1_556 S
C469 C39 0.822 . S
C483 C108 0.822 . S
C489 C87 0.806 . S
C503 C131 0.822 . S
C509 C110 0.806 . S
C523 C133 0.840 . S
C529 C85 0.838 . S
C543 C200 0.837 . S
C549 C156 0.841 . S
C563 C179 0.842 . S
C569 C154 0.839 . S
C583 C177 0.832 . S
C589 C202 0.830 . S
C603 C225 0.842 . S
C609 C246 0.839 . S
C623 C269 0.823 . S
C629 C248 0.811 . S
C643 C271 0.828 . S
C649 C223 0.831 . S
C663 C338 0.837 1_565 S
C669 C294 0.836 . S
C683 C317 0.844 . S
C689 C292 0.840 1_455 S
C703 C340 0.841 . S
C709 C315 0.838 . S
C723 C363 0.806 . S
C729 C384 0.822 1_455 S
C743 C407 0.825 . S
C749 C386 0.811 . S
C763 C361 0.835 1_565 S
C769 C409 0.836 . S
C783 C134 0.971 . S
C789 C20 1.001 . S
C803 C88 0.974 . S
C809 C43 0.994 . S
C823 C111 0.994 . S
C829 C66 0.984 . S
C843 C42 0.986 . S
C849 C89 0.990 . S
C863 C112 1.000 . S
C869 C65 0.966 . S
C883 C19 0.993 . S
C889 C135 0.980 . S
C903 C158 1.003 . S
C909 C272 0.964 . S
C923 C181 0.994 . S
C929 C226 0.981 . S
C943 C249 0.975 . S
C949 C204 0.998 . S
C963 C227 1.002 . S
C969 C180 0.965 . S
C983 C250 0.988 . S
C989 C203 0.988 . S
C1003 C273 0.984 . S
C1009 C157 0.987 . S
C1023 C296 1.001 . S
C1029 C410 0.971 . S
C1043 C319 0.988 . S
C1049 C364 0.982 . S
C1063 C342 0.990 . S
C1069 C387 0.986 . S
C1083 C365 0.994 . S
C1089 C318 0.981 . S
C1103 C388 1.000 . S
C1109 C341 0.973 . S
C1123 C411 0.988 . S
C1129 C295 0.981 . S
C1143 C251 2.135 . S
C1149 C17 2.110 . S
C1163 C40 2.110 . S
C1169 C274 2.134 . S
C1183 C228 2.127 . S
C1189 C63 2.099 . S
C1203 C86 2.110 . S
C1209 C205 2.135 . S
C1223 C109 2.104 . S
C1229 C159 2.131 . S
C1243 C182 2.134 . S
C1249 C132 2.108 . S
C1263 C155 2.097 . S
C1269 C389 2.126 1_455 S
C1283 C178 2.097 . S
C1289 C412 2.126 . S
C1303 C201 2.100 . S
C1309 C366 2.128 1_565 S
C1323 C343 2.126 1_565 S
C1329 C224 2.097 . S
C1343 C297 2.125 1_455 S
C1349 C247 2.095 . S
C1363 C320 2.130 . S
C1369 C270 2.103 . S
C1383 C113 2.134 . S
C1389 C293 2.109 . S
C1403 C316 2.110 . S
C1409 C136 2.135 . S
C1423 C90 2.129 . S
C1429 C339 2.101 . S
C1443 C362 2.110 . S
C1449 C67 2.135 . S
C1463 C385 2.104 . S
C1469 C21 2.130 . S
C1483 C44 2.128 . S
C1489 C408 2.099 . S
