# Generated by pormake.
# Topology pbg, (3)-cn, num edge types: 1
# Building blocks:
#     Node 0, Type 0, BuildingBlock: OLANEW_clean_sbu_2, # of connection points: 3
#     Node 1, Type 0, BuildingBlock: OLANEW_clean_sbu_2, # of connection points: 3
#     Node 2, Type 0, BuildingBlock: OLANEW_clean_sbu_2, # of connection points: 3
#     Node 3, Type 0, BuildingBlock: OLANEW_clean_sbu_2, # of connection points: 3
#     Node 4, Type 0, BuildingBlock: OLANEW_clean_sbu_2, # of connection points: 3
#     Node 5, Type 0, BuildingBlock: OLANEW_clean_sbu_2, # of connection points: 3
#     Node 6, Type 0, BuildingBlock: OLANEW_clean_sbu_2, # of connection points: 3
#     Node 7, Type 0, BuildingBlock: OLANEW_clean_sbu_2, # of connection points: 3
#     Node 8, Type 0, BuildingBlock: OLANEW_clean_sbu_2, # of connection points: 3
#     Node 9, Type 0, BuildingBlock: OLANEW_clean_sbu_2, # of connection points: 3
#     Node 10, Type 0, BuildingBlock: OLANEW_clean_sbu_2, # of connection points: 3
#     Node 11, Type 0, BuildingBlock: OLANEW_clean_sbu_2, # of connection points: 3
#     Node 12, Type 0, BuildingBlock: OLANEW_clean_sbu_2, # of connection points: 3
#     Node 13, Type 0, BuildingBlock: OLANEW_clean_sbu_2, # of connection points: 3
#     Node 14, Type 0, BuildingBlock: OLANEW_clean_sbu_2, # of connection points: 3
#     Node 15, Type 0, BuildingBlock: OLANEW_clean_sbu_2, # of connection points: 3
#     Node 16, Type 0, BuildingBlock: OLANEW_clean_sbu_2, # of connection points: 3
#     Node 17, Type 0, BuildingBlock: OLANEW_clean_sbu_2, # of connection points: 3
#     Node 18, Type 0, BuildingBlock: OLANEW_clean_sbu_2, # of connection points: 3
#     Node 19, Type 0, BuildingBlock: OLANEW_clean_sbu_2, # of connection points: 3
#     Node 20, Type 0, BuildingBlock: OLANEW_clean_sbu_2, # of connection points: 3
#     Node 21, Type 0, BuildingBlock: OLANEW_clean_sbu_2, # of connection points: 3
#     Node 22, Type 0, BuildingBlock: OLANEW_clean_sbu_2, # of connection points: 3
#     Node 23, Type 0, BuildingBlock: OLANEW_clean_sbu_2, # of connection points: 3
#     Node 24, Type 0, BuildingBlock: OLANEW_clean_sbu_2, # of connection points: 3
#     Node 25, Type 0, BuildingBlock: OLANEW_clean_sbu_2, # of connection points: 3
#     Node 26, Type 0, BuildingBlock: OLANEW_clean_sbu_2, # of connection points: 3
#     Node 27, Type 0, BuildingBlock: OLANEW_clean_sbu_2, # of connection points: 3
#     Node 28, Type 0, BuildingBlock: OLANEW_clean_sbu_2, # of connection points: 3
#     Node 29, Type 0, BuildingBlock: OLANEW_clean_sbu_2, # of connection points: 3
#     Node 30, Type 0, BuildingBlock: OLANEW_clean_sbu_2, # of connection points: 3
#     Node 31, Type 0, BuildingBlock: OLANEW_clean_sbu_2, # of connection points: 3
#     Node 32, Type 0, BuildingBlock: OLANEW_clean_sbu_2, # of connection points: 3
#     Node 33, Type 0, BuildingBlock: OLANEW_clean_sbu_2, # of connection points: 3
#     Node 34, Type 0, BuildingBlock: OLANEW_clean_sbu_2, # of connection points: 3
#     Node 35, Type 0, BuildingBlock: OLANEW_clean_sbu_2, # of connection points: 3
#     Node 36, Type 0, BuildingBlock: OLANEW_clean_sbu_2, # of connection points: 3
#     Node 37, Type 0, BuildingBlock: OLANEW_clean_sbu_2, # of connection points: 3
#     Node 38, Type 0, BuildingBlock: OLANEW_clean_sbu_2, # of connection points: 3
#     Node 39, Type 0, BuildingBlock: OLANEW_clean_sbu_2, # of connection points: 3
#     Node 40, Type 0, BuildingBlock: OLANEW_clean_sbu_2, # of connection points: 3
#     Node 41, Type 0, BuildingBlock: OLANEW_clean_sbu_2, # of connection points: 3
#     Node 42, Type 0, BuildingBlock: OLANEW_clean_sbu_2, # of connection points: 3
#     Node 43, Type 0, BuildingBlock: OLANEW_clean_sbu_2, # of connection points: 3
#     Node 44, Type 0, BuildingBlock: OLANEW_clean_sbu_2, # of connection points: 3
#     Node 45, Type 0, BuildingBlock: OLANEW_clean_sbu_2, # of connection points: 3
#     Node 46, Type 0, BuildingBlock: OLANEW_clean_sbu_2, # of connection points: 3
#     Node 47, Type 0, BuildingBlock: OLANEW_clean_sbu_2, # of connection points: 3
#     Node 48, Type 0, BuildingBlock: OLANEW_clean_sbu_2, # of connection points: 3
#     Node 49, Type 0, BuildingBlock: OLANEW_clean_sbu_2, # of connection points: 3
#     Node 50, Type 0, BuildingBlock: OLANEW_clean_sbu_2, # of connection points: 3
#     Node 51, Type 0, BuildingBlock: OLANEW_clean_sbu_2, # of connection points: 3
#     Node 52, Type 0, BuildingBlock: OLANEW_clean_sbu_2, # of connection points: 3
#     Node 53, Type 0, BuildingBlock: OLANEW_clean_sbu_2, # of connection points: 3
#     Node 54, Type 0, BuildingBlock: OLANEW_clean_sbu_2, # of connection points: 3
#     Node 55, Type 0, BuildingBlock: OLANEW_clean_sbu_2, # of connection points: 3
#     Node 56, Type 0, BuildingBlock: OLANEW_clean_sbu_2, # of connection points: 3
#     Node 57, Type 0, BuildingBlock: OLANEW_clean_sbu_2, # of connection points: 3
#     Node 58, Type 0, BuildingBlock: OLANEW_clean_sbu_2, # of connection points: 3
#     Node 59, Type 0, BuildingBlock: OLANEW_clean_sbu_2, # of connection points: 3
#     Node 60, Type 0, BuildingBlock: OLANEW_clean_sbu_2, # of connection points: 3
#     Node 61, Type 0, BuildingBlock: OLANEW_clean_sbu_2, # of connection points: 3
#     Node 62, Type 0, BuildingBlock: OLANEW_clean_sbu_2, # of connection points: 3
#     Node 63, Type 0, BuildingBlock: OLANEW_clean_sbu_2, # of connection points: 3
#     Node 64, Type 0, BuildingBlock: OLANEW_clean_sbu_2, # of connection points: 3
#     Node 65, Type 0, BuildingBlock: OLANEW_clean_sbu_2, # of connection points: 3
#     Node 66, Type 0, BuildingBlock: OLANEW_clean_sbu_2, # of connection points: 3
#     Node 67, Type 0, BuildingBlock: OLANEW_clean_sbu_2, # of connection points: 3
#     Node 68, Type 0, BuildingBlock: OLANEW_clean_sbu_2, # of connection points: 3
#     Node 69, Type 0, BuildingBlock: OLANEW_clean_sbu_2, # of connection points: 3
#     Node 70, Type 0, BuildingBlock: OLANEW_clean_sbu_2, # of connection points: 3
#     Node 71, Type 0, BuildingBlock: OLANEW_clean_sbu_2, # of connection points: 3
#     Node 72, Type 0, BuildingBlock: OLANEW_clean_sbu_2, # of connection points: 3
#     Node 73, Type 0, BuildingBlock: OLANEW_clean_sbu_2, # of connection points: 3
#     Node 74, Type 0, BuildingBlock: OLANEW_clean_sbu_2, # of connection points: 3
#     Node 75, Type 0, BuildingBlock: OLANEW_clean_sbu_2, # of connection points: 3
#     Node 76, Type 0, BuildingBlock: OLANEW_clean_sbu_2, # of connection points: 3
#     Node 77, Type 0, BuildingBlock: OLANEW_clean_sbu_2, # of connection points: 3
#     Node 78, Type 0, BuildingBlock: OLANEW_clean_sbu_2, # of connection points: 3
#     Node 79, Type 0, BuildingBlock: OLANEW_clean_sbu_2, # of connection points: 3
#     Node 80, Type 0, BuildingBlock: OLANEW_clean_sbu_2, # of connection points: 3
#     Node 81, Type 0, BuildingBlock: OLANEW_clean_sbu_2, # of connection points: 3
#     Node 82, Type 0, BuildingBlock: OLANEW_clean_sbu_2, # of connection points: 3
#     Node 83, Type 0, BuildingBlock: OLANEW_clean_sbu_2, # of connection points: 3
#     Node 84, Type 0, BuildingBlock: OLANEW_clean_sbu_2, # of connection points: 3
#     Node 85, Type 0, BuildingBlock: OLANEW_clean_sbu_2, # of connection points: 3
#     Node 86, Type 0, BuildingBlock: OLANEW_clean_sbu_2, # of connection points: 3
#     Node 87, Type 0, BuildingBlock: OLANEW_clean_sbu_2, # of connection points: 3
#     Node 88, Type 0, BuildingBlock: OLANEW_clean_sbu_2, # of connection points: 3
#     Node 89, Type 0, BuildingBlock: OLANEW_clean_sbu_2, # of connection points: 3
#     Node 90, Type 0, BuildingBlock: OLANEW_clean_sbu_2, # of connection points: 3
#     Node 91, Type 0, BuildingBlock: OLANEW_clean_sbu_2, # of connection points: 3
#     Node 92, Type 0, BuildingBlock: OLANEW_clean_sbu_2, # of connection points: 3
#     Node 93, Type 0, BuildingBlock: OLANEW_clean_sbu_2, # of connection points: 3
#     Node 94, Type 0, BuildingBlock: OLANEW_clean_sbu_2, # of connection points: 3
#     Node 95, Type 0, BuildingBlock: OLANEW_clean_sbu_2, # of connection points: 3
#     Edge 96, Type (0, 0), None
#     Edge 97, Type (0, 0), None
#     Edge 98, Type (0, 0), None
#     Edge 99, Type (0, 0), None
#     Edge 100, Type (0, 0), None
#     Edge 101, Type (0, 0), None
#     Edge 102, Type (0, 0), None
#     Edge 103, Type (0, 0), None
#     Edge 104, Type (0, 0), None
#     Edge 105, Type (0, 0), None
#     Edge 106, Type (0, 0), None
#     Edge 107, Type (0, 0), None
#     Edge 108, Type (0, 0), None
#     Edge 109, Type (0, 0), None
#     Edge 110, Type (0, 0), None
#     Edge 111, Type (0, 0), None
#     Edge 112, Type (0, 0), None
#     Edge 113, Type (0, 0), None
#     Edge 114, Type (0, 0), None
#     Edge 115, Type (0, 0), None
#     Edge 116, Type (0, 0), None
#     Edge 117, Type (0, 0), None
#     Edge 118, Type (0, 0), None
#     Edge 119, Type (0, 0), None
#     Edge 120, Type (0, 0), None
#     Edge 121, Type (0, 0), None
#     Edge 122, Type (0, 0), None
#     Edge 123, Type (0, 0), None
#     Edge 124, Type (0, 0), None
#     Edge 125, Type (0, 0), None
#     Edge 126, Type (0, 0), None
#     Edge 127, Type (0, 0), None
#     Edge 128, Type (0, 0), None
#     Edge 129, Type (0, 0), None
#     Edge 130, Type (0, 0), None
#     Edge 131, Type (0, 0), None
#     Edge 132, Type (0, 0), None
#     Edge 133, Type (0, 0), None
#     Edge 134, Type (0, 0), None
#     Edge 135, Type (0, 0), None
#     Edge 136, Type (0, 0), None
#     Edge 137, Type (0, 0), None
#     Edge 138, Type (0, 0), None
#     Edge 139, Type (0, 0), None
#     Edge 140, Type (0, 0), None
#     Edge 141, Type (0, 0), None
#     Edge 142, Type (0, 0), None
#     Edge 143, Type (0, 0), None
#     Edge 144, Type (0, 0), None
#     Edge 145, Type (0, 0), None
#     Edge 146, Type (0, 0), None
#     Edge 147, Type (0, 0), None
#     Edge 148, Type (0, 0), None
#     Edge 149, Type (0, 0), None
#     Edge 150, Type (0, 0), None
#     Edge 151, Type (0, 0), None
#     Edge 152, Type (0, 0), None
#     Edge 153, Type (0, 0), None
#     Edge 154, Type (0, 0), None
#     Edge 155, Type (0, 0), None
#     Edge 156, Type (0, 0), None
#     Edge 157, Type (0, 0), None
#     Edge 158, Type (0, 0), None
#     Edge 159, Type (0, 0), None
#     Edge 160, Type (0, 0), None
#     Edge 161, Type (0, 0), None
#     Edge 162, Type (0, 0), None
#     Edge 163, Type (0, 0), None
#     Edge 164, Type (0, 0), None
#     Edge 165, Type (0, 0), None
#     Edge 166, Type (0, 0), None
#     Edge 167, Type (0, 0), None
#     Edge 168, Type (0, 0), None
#     Edge 169, Type (0, 0), None
#     Edge 170, Type (0, 0), None
#     Edge 171, Type (0, 0), None
#     Edge 172, Type (0, 0), None
#     Edge 173, Type (0, 0), None
#     Edge 174, Type (0, 0), None
#     Edge 175, Type (0, 0), None
#     Edge 176, Type (0, 0), None
#     Edge 177, Type (0, 0), None
#     Edge 178, Type (0, 0), None
#     Edge 179, Type (0, 0), None
#     Edge 180, Type (0, 0), None
#     Edge 181, Type (0, 0), None
#     Edge 182, Type (0, 0), None
#     Edge 183, Type (0, 0), None
#     Edge 184, Type (0, 0), None
#     Edge 185, Type (0, 0), None
#     Edge 186, Type (0, 0), None
#     Edge 187, Type (0, 0), None
#     Edge 188, Type (0, 0), None
#     Edge 189, Type (0, 0), None
#     Edge 190, Type (0, 0), None
#     Edge 191, Type (0, 0), None
#     Edge 192, Type (0, 0), None
#     Edge 193, Type (0, 0), None
#     Edge 194, Type (0, 0), None
#     Edge 195, Type (0, 0), None
#     Edge 196, Type (0, 0), None
#     Edge 197, Type (0, 0), None
#     Edge 198, Type (0, 0), None
#     Edge 199, Type (0, 0), None
#     Edge 200, Type (0, 0), None
#     Edge 201, Type (0, 0), None
#     Edge 202, Type (0, 0), None
#     Edge 203, Type (0, 0), None
#     Edge 204, Type (0, 0), None
#     Edge 205, Type (0, 0), None
#     Edge 206, Type (0, 0), None
#     Edge 207, Type (0, 0), None
#     Edge 208, Type (0, 0), None
#     Edge 209, Type (0, 0), None
#     Edge 210, Type (0, 0), None
#     Edge 211, Type (0, 0), None
#     Edge 212, Type (0, 0), None
#     Edge 213, Type (0, 0), None
#     Edge 214, Type (0, 0), None
#     Edge 215, Type (0, 0), None
#     Edge 216, Type (0, 0), None
#     Edge 217, Type (0, 0), None
#     Edge 218, Type (0, 0), None
#     Edge 219, Type (0, 0), None
#     Edge 220, Type (0, 0), None
#     Edge 221, Type (0, 0), None
#     Edge 222, Type (0, 0), None
#     Edge 223, Type (0, 0), None
#     Edge 224, Type (0, 0), None
#     Edge 225, Type (0, 0), None
#     Edge 226, Type (0, 0), None
#     Edge 227, Type (0, 0), None
#     Edge 228, Type (0, 0), None
#     Edge 229, Type (0, 0), None
#     Edge 230, Type (0, 0), None
#     Edge 231, Type (0, 0), None
#     Edge 232, Type (0, 0), None
#     Edge 233, Type (0, 0), None
#     Edge 234, Type (0, 0), None
#     Edge 235, Type (0, 0), None
#     Edge 236, Type (0, 0), None
#     Edge 237, Type (0, 0), None
#     Edge 238, Type (0, 0), None
#     Edge 239, Type (0, 0), None
# Relax obj value: 0.029
# Max RMSD: 0.085
# Mean RMSD: 0.058
data_MOF--net-pbg--node1-OLANEW_clean_sbu_2--edge1-none
_symmetry_space_group_name_H-M    P1
_symmetry_Int_Tables_number       1
_symmetry_cell_setting            triclinic
loop_
_symmetry_equiv_pos_as_xyz
'x, y, z'
_cell_length_a     51.03812
_cell_length_b     49.261001
_cell_length_c     50.321564
_cell_angle_alpha  87.637888
_cell_angle_beta   89.962296
_cell_angle_gamma 89.972201
loop_
_atom_site_label
_atom_site_type_symbol
_atom_site_fract_x
_atom_site_fract_y
_atom_site_fract_z
_atom_type_partial_charge
O0 O 0.17266 0.14559 0.33142 0.0
Cd1 Cd 0.12576 0.15518 0.33539 0.0
O2 O 0.17842 0.1872 0.34381 0.0
Cd3 Cd 0.20062 0.22299 0.35472 0.0
O4 O 0.21045 0.26228 0.37063 0.0
C5 C 0.21283 0.28313 0.35512 0.0
O6 O 0.2104 0.28062 0.32937 0.0
C7 C 0.18807 0.16498 0.33635 0.0
C8 C 0.10426 0.14455 0.3857 0.0
O9 O 0.10261 0.12704 0.36764 0.0
O10 O 0.11647 0.16681 0.38027 0.0
O11 O 0.13682 0.91068 0.56841 0.0
Cd12 Cd 0.1479 0.86658 0.58903 0.0
O13 O 0.09595 0.90522 0.58104 0.0
Cd14 Cd 0.0543 0.91588 0.58411 0.0
O15 O 0.0117 0.91505 0.59013 0.0
C16 C 0.99594 0.91438 0.57061 0.0
O17 O 0.00523 0.91508 0.54626 0.0
C18 C 0.1136 0.91978 0.56969 0.0
C19 C 0.15563 0.87221 0.64314 0.0
O20 O 0.17453 0.87585 0.62663 0.0
O21 O 0.13313 0.86549 0.63424 0.0
O22 O 0.34357 0.77736 0.84553 0.0
Cd23 Cd 0.32477 0.82189 0.8338 0.0
O24 O 0.31507 0.75494 0.8219 0.0
Cd25 Cd 0.29062 0.79107 0.81561 0.0
O26 O 0.2658 0.82729 0.8129 0.0
C27 C 0.26464 0.84398 0.83147 0.0
O28 O 0.27859 0.83959 0.85314 0.0
C29 C 0.33549 0.75521 0.83633 0.0
C30 C 0.35799 0.86545 0.84275 0.0
O31 O 0.34208 0.85665 0.86083 0.0
O32 O 0.35852 0.85353 0.8206 0.0
O33 O 0.3646 0.05776 0.12148 0.0
Cd34 Cd 0.36153 0.10173 0.0972 0.0
O35 O 0.40159 0.05071 0.10076 0.0
Cd36 Cd 0.43994 0.03219 0.09422 0.0
O37 O 0.48043 0.02305 0.08348 0.0
C38 C 0.48788 0.02678 0.0595 0.0
O39 O 0.47099 0.03538 0.04137 0.0
C40 C 0.3845 0.04286 0.11779 0.0
C41 C 0.32387 0.13612 0.11783 0.0
O42 O 0.31923 0.12338 0.09666 0.0
O43 O 0.34604 0.13253 0.12934 0.0
O44 O 0.17202 0.87352 0.15868 0.0
Cd45 Cd 0.12414 0.87337 0.15481 0.0
O46 O 0.17057 0.82988 0.15211 0.0
Cd47 Cd 0.18743 0.78977 0.14632 0.0
O48 O 0.19645 0.74911 0.13325 0.0
C49 C 0.19726 0.72882 0.14964 0.0
O50 O 0.19334 0.73245 0.17504 0.0
C51 C 0.18383 0.85095 0.15694 0.0
C52 C 0.10327 0.88839 0.10512 0.0
O53 O 0.10669 0.90605 0.12279 0.0
O54 O 0.11035 0.86383 0.11054 0.0
O55 O 0.37619 0.92906 0.3738 0.0
Cd56 Cd 0.37301 0.88528 0.39832 0.0
O57 O 0.41104 0.93809 0.39717 0.0
Cd58 Cd 0.4478 0.95855 0.4061 0.0
O59 O 0.48712 0.9695 0.41893 0.0
C60 C 0.49319 0.96718 0.44341 0.0
O61 O 0.47549 0.95895 0.46089 0.0
C62 C 0.39502 0.94492 0.37875 0.0
C63 C 0.33189 0.85384 0.38025 0.0
O64 O 0.3295 0.86689 0.40162 0.0
O65 O 0.35356 0.85558 0.36746 0.0
O66 O 0.3184 0.22551 0.649 0.0
Cd67 Cd 0.30166 0.1792 0.65596 0.0
O68 O 0.29421 0.2422 0.68079 0.0
Cd69 Cd 0.27174 0.20444 0.68649 0.0
O70 O 0.24623 0.16866 0.69054 0.0
C71 C 0.24061 0.15432 0.67089 0.0
O72 O 0.25044 0.16079 0.64735 0.0
C73 C 0.3118 0.24532 0.66301 0.0
C74 C 0.33816 0.13843 0.64678 0.0
O75 O 0.32311 0.14755 0.62809 0.0
O76 O 0.33634 0.14877 0.66965 0.0
O77 O 0.10222 0.10863 0.94826 0.0
Cd78 Cd 0.11443 0.15109 0.92489 0.0
O79 O 0.06204 0.11201 0.93316 0.0
Cd80 Cd 0.02216 0.09859 0.92485 0.0
O81 O 0.98257 0.09304 0.90941 0.0
C82 C 0.96258 0.09272 0.92448 0.0
O83 O 0.9656 0.09538 0.95014 0.0
C84 C 0.07947 0.09855 0.94604 0.0
C85 C 0.13358 0.13854 0.87501 0.0
O86 O 0.14878 0.13865 0.89525 0.0
O87 O 0.10948 0.14495 0.87808 0.0
O88 O 0.29069 0.2361 0.15272 0.0
Cd89 Cd 0.26922 0.19212 0.14847 0.0
O90 O 0.30336 0.21761 0.19075 0.0
Cd91 Cd 0.32377 0.2135 0.22898 0.0
O92 O 0.33814 0.19517 0.26662 0.0
C93 C 0.32225 0.18888 0.28535 0.0
O94 O 0.29724 0.19443 0.28238 0.0
C95 C 0.30385 0.23766 0.17401 0.0
C96 C 0.30454 0.15486 0.12843 0.0
O97 O 0.28707 0.16603 0.11333 0.0
O98 O 0.30518 0.16095 0.15291 0.0
O99 O 0.08438 0.09796 0.49017 0.0
Cd100 Cd 0.06493 0.13243 0.45982 0.0
O101 O 0.04864 0.0731 0.48725 0.0
Cd102 Cd 0.02403 0.10189 0.46482 0.0
O103 O 0.98306 0.11411 0.46278 0.0
C104 C 0.97498 0.13485 0.4745 0.0
O105 O 0.99189 0.1506 0.48606 0.0
C106 C 0.0717 0.07632 0.49606 0.0
C107 C 0.09147 0.13977 0.41159 0.0
O108 O 0.09587 0.15542 0.43081 0.0
O109 O 0.07487 0.12046 0.41518 0.0
O110 O 0.18748 0.84296 0.74646 0.0
Cd111 Cd 0.16734 0.88319 0.72543 0.0
O112 O 0.1725 0.81842 0.71437 0.0
Cd113 Cd 0.16881 0.78002 0.69438 0.0
O114 O 0.1749 0.73783 0.68428 0.0
C115 C 0.19186 0.73215 0.66688 0.0
O116 O 0.20471 0.75187 0.65429 0.0
C117 C 0.18553 0.82014 0.7358 0.0
C118 C 0.15961 0.87594 0.67157 0.0
O119 O 0.14131 0.87049 0.68838 0.0
O120 O 0.18144 0.88498 0.6801 0.0
O121 O 0.44661 0.92717 0.87585 0.0
Cd122 Cd 0.40441 0.93575 0.85399 0.0
O123 O 0.43173 0.94854 0.91009 0.0
Cd124 Cd 0.43385 0.96354 0.95031 0.0
O125 O 0.42893 0.97486 0.9915 0.0
C126 C 0.44563 0.96797 0.00923 0.0
O127 O 0.46661 0.95431 0.00268 0.0
C128 C 0.4502 0.93593 0.89896 0.0
C129 C 0.3746 0.88919 0.84697 0.0
O130 O 0.3906 0.89789 0.82895 0.0
O131 O 0.37288 0.90216 0.86846 0.0
O132 O 0.28127 0.75905 0.34621 0.0
Cd133 Cd 0.26918 0.80657 0.35153 0.0
O134 O 0.29702 0.77433 0.30811 0.0
Cd135 Cd 0.31406 0.77426 0.26811 0.0
O136 O 0.32889 0.79162 0.23015 0.0
C137 C 0.3134 0.80157 0.2125 0.0
O138 O 0.288 0.8004 0.21651 0.0
C139 C 0.29269 0.75443 0.32444 0.0
C140 C 0.31029 0.83742 0.37049 0.0
O141 O 0.29196 0.82897 0.38614 0.0
O142 O 0.30931 0.83128 0.34603 0.0
O143 O 0.4313 0.07931 0.61627 0.0
Cd144 Cd 0.3878 0.07038 0.63544 0.0
O145 O 0.42028 0.05253 0.58444 0.0
Cd146 Cd 0.42637 0.03285 0.54681 0.0
O147 O 0.42571 0.01879 0.50628 0.0
C148 C 0.44356 0.0257 0.48975 0.0
O149 O 0.46311 0.04087 0.49731 0.0
C150 C 0.43719 0.06763 0.59501 0.0
C151 C 0.35619 0.11579 0.64243 0.0
O152 O 0.37136 0.10679 0.66108 0.0
O153 O 0.35634 0.10385 0.6203 0.0
O154 O 0.18605 0.14937 0.7762 0.0
Cd155 Cd 0.16173 0.11351 0.80033 0.0
O156 O 0.17122 0.17754 0.80526 0.0
Cd157 Cd 0.16791 0.21785 0.82161 0.0
O158 O 0.17221 0.2608 0.82961 0.0
C159 C 0.18746 0.268 0.84795 0.0
O160 O 0.19978 0.2494 0.86263 0.0
C161 C 0.18515 0.17317 0.7849 0.0
C162 C 0.14341 0.13043 0.84913 0.0
O163 O 0.12882 0.13217 0.82841 0.0
O164 O 0.16658 0.12079 0.84686 0.0
O165 O 0.08664 0.93068 0.99746 0.0
Cd166 Cd 0.06161 0.90855 0.03379 0.0
O167 O 0.05492 0.95953 0.98675 0.0
Cd168 Cd 0.02674 0.93852 0.01306 0.0
O169 O 0.99872 0.90937 0.03063 0.0
C170 C 0.00188 0.88444 0.02594 0.0
O171 O 0.02181 0.8772 0.0113 0.0
C172 C 0.07812 0.95087 0.98342 0.0
C173 C 0.09012 0.89577 0.07991 0.0
O174 O 0.08736 0.87835 0.06191 0.0
O175 O 0.07993 0.91938 0.07597 0.0
O176 O 0.19981 0.28411 0.09005 0.0
Cd177 Cd 0.15556 0.27638 0.0731 0.0
O178 O 0.18089 0.28554 0.12905 0.0
Cd179 Cd 0.18082 0.28839 0.17232 0.0
O180 O 0.18228 0.29181 0.21541 0.0
C181 C 0.19839 0.30811 0.2255 0.0
O182 O 0.21399 0.32276 0.20989 0.0
C183 C 0.20166 0.28629 0.11505 0.0
C184 C 0.13386 0.31823 0.04134 0.0
O185 O 0.13225 0.31843 0.06674 0.0
O186 O 0.14625 0.2987 0.03091 0.0
O187 O 0.67927 0.22024 0.91448 0.0
Cd188 Cd 0.63645 0.22688 0.93516 0.0
O189 O 0.65797 0.22222 0.87665 0.0
Cd190 Cd 0.65562 0.22183 0.83323 0.0
O191 O 0.65819 0.21971 0.79004 0.0
C192 C 0.67486 0.20383 0.78018 0.0
O193 O 0.69002 0.18897 0.79605 0.0
C194 C 0.6795 0.21985 0.88926 0.0
C195 C 0.61885 0.18391 0.9682 0.0
O196 O 0.61518 0.18389 0.94301 0.0
O197 O 0.63129 0.20386 0.97778 0.0
O198 O 0.12007 0.41347 0.97337 0.0
Cd199 Cd 0.09295 0.37699 0.99297 0.0
O200 O 0.09229 0.44404 0.98695 0.0
Cd201 Cd 0.0813 0.48612 0.99444 0.0
O202 O 0.07962 0.5291 0.00376 0.0
C203 C 0.06041 0.54064 0.01482 0.0
O204 O 0.03927 0.52663 0.02116 0.0
C205 C 0.11315 0.43816 0.97458 0.0
C206 C 0.12069 0.33912 0.02457 0.0
O207 O 0.11914 0.33682 0.99936 0.0
O208 O 0.1095 0.35946 0.0349 0.0
O209 O 0.838 0.74472 0.31267 0.0
Cd210 Cd 0.84792 0.74775 0.35997 0.0
O211 O 0.81745 0.78349 0.31535 0.0
Cd212 Cd 0.79654 0.8205 0.30235 0.0
O213 O 0.77911 0.86102 0.30458 0.0
C214 C 0.75677 0.86366 0.31535 0.0
O215 O 0.74413 0.84191 0.32414 0.0
C216 C 0.82512 0.76403 0.30143 0.0
C217 C 0.88597 0.78716 0.36791 0.0
O218 O 0.89243 0.76233 0.365 0.0
O219 O 0.86161 0.79343 0.36725 0.0
O220 O 0.91305 0.14033 0.06053 0.0
Cd221 Cd 0.9109 0.14654 0.10843 0.0
O222 O 0.91886 0.09674 0.06897 0.0
Cd223 Cd 0.92487 0.05437 0.05889 0.0
O224 O 0.93202 0.01086 0.05561 0.0
C225 C 0.9468 0.00218 0.03751 0.0
O226 O 0.95766 0.01952 0.0203 0.0
C227 C 0.91638 0.11659 0.05218 0.0
C228 C 0.88453 0.19385 0.12086 0.0
O229 O 0.90949 0.19378 0.11815 0.0
O230 O 0.872 0.17171 0.11765 0.0
O231 O 0.34003 0.75848 0.69323 0.0
Cd232 Cd 0.34076 0.75946 0.64464 0.0
O233 O 0.32137 0.71868 0.69108 0.0
Cd234 Cd 0.30467 0.67968 0.70476 0.0
O235 O 0.28711 0.63929 0.70261 0.0
C236 C 0.26412 0.63725 0.6932 0.0
O237 O 0.25127 0.6594 0.68591 0.0
C238 C 0.33055 0.73742 0.70501 0.0
C239 C 0.36887 0.71513 0.62714 0.0
O240 O 0.38025 0.73789 0.63055 0.0
O241 O 0.34421 0.71331 0.63164 0.0
O242 O 0.11375 0.59016 0.54234 0.0
Cd243 Cd 0.08449 0.62534 0.52365 0.0
O244 O 0.08869 0.55851 0.5262 0.0
Cd245 Cd 0.08199 0.51583 0.51739 0.0
O246 O 0.08573 0.47271 0.50924 0.0
C247 C 0.06857 0.45918 0.49715 0.0
O248 O 0.0468 0.47104 0.48903 0.0
C249 C 0.10854 0.5652 0.53973 0.0
C250 C 0.10832 0.66326 0.48882 0.0
O251 O 0.10882 0.66621 0.514 0.0
O252 O 0.09704 0.6422 0.48004 0.0
O253 O 0.43605 0.3417 0.93863 0.0
Cd254 Cd 0.43585 0.33246 0.8913 0.0
O255 O 0.43892 0.38532 0.92831 0.0
Cd256 Cd 0.4398 0.42815 0.93833 0.0
O257 O 0.43776 0.4699 0.95128 0.0
C258 C 0.44675 0.47574 0.97388 0.0
O259 O 0.45752 0.45664 0.98922 0.0
C260 C 0.43723 0.36607 0.94587 0.0
C261 C 0.39693 0.29539 0.87905 0.0
O262 O 0.4203 0.28735 0.88431 0.0
O263 O 0.39188 0.32083 0.87953 0.0
O264 O 0.85382 0.76166 0.69235 0.0
Cd265 Cd 0.88872 0.79465 0.69987 0.0
O266 O 0.83225 0.78629 0.66215 0.0
Cd267 Cd 0.79918 0.79223 0.63461 0.0
O268 O 0.76162 0.79143 0.6136 0.0
C269 C 0.74092 0.79065 0.62763 0.0
O270 O 0.74295 0.79094 0.65362 0.0
C271 C 0.83486 0.76433 0.67611 0.0
C272 C 0.89569 0.83552 0.66059 0.0
O273 O 0.90471 0.81157 0.65757 0.0
O274 O 0.88282 0.8401 0.68181 0.0
O275 O 0.93842 0.16042 0.48866 0.0
Cd276 Cd 0.89151 0.15886 0.49786 0.0
O277 O 0.93043 0.12092 0.47205 0.0
Cd278 Cd 0.94123 0.08131 0.4571 0.0
O279 O 0.94726 0.03902 0.44693 0.0
C280 C 0.96321 0.02398 0.46017 0.0
O281 O 0.97657 0.03411 0.47973 0.0
C282 C 0.94677 0.13923 0.47787 0.0
C283 C 0.86098 0.17062 0.45319 0.0
O284 O 0.86397 0.18821 0.471 0.0
O285 O 0.8725 0.14762 0.45631 0.0
O286 O 0.76649 0.09224 0.18482 0.0
Cd287 Cd 0.75088 0.04553 0.18139 0.0
O288 O 0.72817 0.11083 0.17567 0.0
Cd289 Cd 0.7033 0.147 0.17185 0.0
O290 O 0.69317 0.18971 0.17601 0.0
C291 C 0.70181 0.20069 0.19666 0.0
O292 O 0.7151 0.18594 0.21431 0.0
C293 C 0.75231 0.11329 0.18139 0.0
C294 C 0.72097 0.0354 0.13656 0.0
O295 O 0.74604 0.03565 0.13538 0.0
O296 O 0.70993 0.04054 0.15867 0.0
O297 O 0.59476 0.91887 0.98591 0.0
Cd298 Cd 0.60142 0.87221 0.97233 0.0
O299 O 0.55614 0.9178 0.96703 0.0
Cd300 Cd 0.51804 0.93353 0.95362 0.0
O301 O 0.47991 0.94124 0.93491 0.0
C302 C 0.47541 0.93129 0.91247 0.0
O303 O 0.49373 0.91703 0.90112 0.0
C304 C 0.57332 0.93066 0.97979 0.0
C305 C 0.65012 0.86405 0.94889 0.0
O306 O 0.63057 0.87253 0.93491 0.0
O307 O 0.64683 0.8596 0.97393 0.0
O308 O 0.81643 0.22352 0.79968 0.0
Cd309 Cd 0.82198 0.1758 0.78871 0.0
O310 O 0.79063 0.20798 0.83159 0.0
Cd311 Cd 0.76123 0.21222 0.86289 0.0
O312 O 0.72598 0.21562 0.88727 0.0
C313 C 0.70434 0.21704 0.87484 0.0
O314 O 0.70449 0.21648 0.84879 0.0
C315 C 0.80073 0.22804 0.81858 0.0
C316 C 0.85253 0.14228 0.82237 0.0
O317 O 0.86204 0.15271 0.8007 0.0
O318 O 0.829 0.14841 0.82869 0.0
O319 O 0.58655 0.08094 0.51499 0.0
Cd320 Cd 0.59128 0.12833 0.52652 0.0
O321 O 0.54729 0.08071 0.53258 0.0
Cd322 Cd 0.5093 0.06448 0.5459 0.0
O323 O 0.47014 0.0583 0.56305 0.0
C324 C 0.46321 0.0717 0.58294 0.0
O325 O 0.47977 0.0888 0.59314 0.0
C326 C 0.5656 0.06821 0.52103 0.0
C327 C 0.63724 0.13655 0.55483 0.0
O328 O 0.61609 0.12933 0.56687 0.0
O329 O 0.63677 0.13993 0.52945 0.0
O330 O 0.76004 0.9117 0.31403 0.0
Cd331 Cd 0.74557 0.95859 0.31935 0.0
O332 O 0.72268 0.89392 0.32772 0.0
Cd333 Cd 0.69726 0.85885 0.33605 0.0
O334 O 0.68242 0.81732 0.33628 0.0
C335 C 0.6929 0.79919 0.35148 0.0
O336 O 0.71167 0.80593 0.36777 0.0
C337 C 0.74591 0.89092 0.31912 0.0
C338 C 0.71954 0.96868 0.36667 0.0
O339 O 0.74461 0.96817 0.36571 0.0
O340 O 0.70667 0.96379 0.34554 0.0
O341 O 0.989 0.83876 0.03388 0.0
Cd342 Cd 0.96204 0.79977 0.04821 0.0
O343 O 0.96234 0.8703 0.04779 0.0
Cd344 Cd 0.95104 0.91289 0.05165 0.0
O345 O 0.94232 0.95628 0.05328 0.0
C346 C 0.95214 0.97301 0.03614 0.0
O347 O 0.96747 0.96408 0.01743 0.0
C348 C 0.9836 0.86368 0.03654 0.0
C349 C 0.91872 0.81093 0.07945 0.0
O350 O 0.94104 0.80573 0.09013 0.0
O351 O 0.91695 0.81156 0.05403 0.0
O352 O 0.72497 0.80476 0.89306 0.0
Cd353 Cd 0.7238 0.84942 0.9126 0.0
O354 O 0.72519 0.82526 0.85354 0.0
Cd355 Cd 0.72489 0.82591 0.81005 0.0
O356 O 0.72403 0.82439 0.76676 0.0
C357 C 0.71032 0.80641 0.75591 0.0
O358 O 0.69681 0.789 0.77087 0.0
C359 C 0.7251 0.80341 0.8679 0.0
C360 C 0.6756 0.85923 0.93644 0.0
O361 O 0.69461 0.84884 0.95002 0.0
O362 O 0.67929 0.86508 0.91168 0.0
O363 O 0.95889 0.90856 0.599 0.0
Cd364 Cd 0.91185 0.8989 0.60295 0.0
O365 O 0.95171 0.90948 0.55615 0.0
Cd366 Cd 0.96148 0.91152 0.51379 0.0
O367 O 0.95995 0.90738 0.47075 0.0
C368 C 0.9572 0.88366 0.46219 0.0
O369 O 0.95624 0.86278 0.47926 0.0
C370 C 0.96768 0.91105 0.57539 0.0
C371 C 0.90075 0.85737 0.64059 0.0
O372 O 0.89818 0.88233 0.64633 0.0
O373 O 0.90854 0.85196 0.6172 0.0
O374 O 0.81823 0.23037 0.36477 0.0
Cd375 Cd 0.81107 0.18608 0.387 0.0
O376 O 0.80969 0.21365 0.32594 0.0
Cd377 Cd 0.80496 0.21715 0.28266 0.0
O378 O 0.80957 0.21912 0.23935 0.0
C379 C 0.82006 0.24029 0.22876 0.0
O380 O 0.82701 0.26014 0.24391 0.0
C381 C 0.81485 0.23393 0.33989 0.0
C382 C 0.84416 0.17636 0.43014 0.0
O383 O 0.82469 0.1926 0.43173 0.0
O384 O 0.84821 0.16478 0.40818 0.0
O385 O 0.6506 0.04595 0.04752 0.0
Cd386 Cd 0.67635 0.01036 0.07056 0.0
O387 O 0.61638 0.02032 0.05669 0.0
Cd388 Cd 0.57394 0.01501 0.06065 0.0
O389 O 0.5322 0.01663 0.07024 0.0
C390 C 0.51551 0.02317 0.05239 0.0
O391 O 0.52336 0.02827 0.02784 0.0
C392 C 0.62607 0.04194 0.04611 0.0
C393 C 0.70534 0.02797 0.11352 0.0
O394 O 0.71594 0.02607 0.09059 0.0
O395 O 0.68102 0.02203 0.11614 0.0
O396 O 0.70512 0.19744 0.61461 0.0
Cd397 Cd 0.70662 0.15144 0.59846 0.0
O398 O 0.70235 0.18056 0.65553 0.0
Cd399 Cd 0.6979 0.18359 0.69853 0.0
O400 O 0.69405 0.18625 0.74154 0.0
C401 C 0.67729 0.20212 0.75127 0.0
O402 O 0.66224 0.21701 0.73531 0.0
C403 C 0.70281 0.20107 0.63935 0.0
C404 C 0.66133 0.14122 0.56979 0.0
O405 O 0.68197 0.15032 0.55799 0.0
O406 O 0.66211 0.13661 0.59502 0.0
O407 O 0.65747 0.9575 0.46169 0.0
Cd408 Cd 0.68068 0.99352 0.43647 0.0
O409 O 0.62132 0.97938 0.45104 0.0
Cd410 Cd 0.57882 0.98126 0.44598 0.0
O411 O 0.53773 0.9778 0.43461 0.0
C412 C 0.52023 0.97193 0.45184 0.0
O413 O 0.52678 0.96851 0.47699 0.0
C414 C 0.63267 0.95934 0.46287 0.0
C415 C 0.70592 0.97609 0.39103 0.0
O416 O 0.71845 0.97804 0.41292 0.0
O417 O 0.68147 0.98194 0.3906 0.0
O418 O 0.83033 0.77526 0.13613 0.0
Cd419 Cd 0.85088 0.81963 0.12729 0.0
O420 O 0.81978 0.78757 0.17609 0.0
Cd421 Cd 0.80603 0.78239 0.21724 0.0
O422 O 0.8076 0.78293 0.26076 0.0
C423 C 0.82051 0.76402 0.27262 0.0
O424 O 0.83098 0.74489 0.2586 0.0
C425 C 0.81967 0.76973 0.15853 0.0
C426 C 0.89547 0.81488 0.09597 0.0
O427 O 0.87298 0.81911 0.0853 0.0
O428 O 0.89702 0.81313 0.12139 0.0
O429 O 0.9337 0.08864 0.88801 0.0
Cd430 Cd 0.89195 0.07895 0.86635 0.0
O431 O 0.91655 0.08482 0.92803 0.0
Cd432 Cd 0.91857 0.08455 0.97155 0.0
O433 O 0.91919 0.08877 0.01464 0.0
C434 C 0.917 0.11244 0.02346 0.0
O435 O 0.91464 0.13336 0.00659 0.0
C436 C 0.93642 0.08872 0.91311 0.0
C437 C 0.86734 0.12196 0.83836 0.0
O438 O 0.88672 0.10946 0.82825 0.0
O439 O 0.86002 0.11483 0.86199 0.0
O440 O 0.87944 0.6718 0.80573 0.0
Cd441 Cd 0.89479 0.64336 0.84361 0.0
O442 O 0.84096 0.67047 0.82502 0.0
Cd443 Cd 0.79875 0.67769 0.82803 0.0
O444 O 0.75614 0.67946 0.83225 0.0
C445 C 0.74297 0.65838 0.82733 0.0
O446 O 0.75524 0.63653 0.81987 0.0
C447 C 0.85528 0.67803 0.80539 0.0
C448 C 0.89531 0.58908 0.83008 0.0
O449 O 0.8743 0.60012 0.83845 0.0
O450 O 0.91621 0.60345 0.82846 0.0
O451 O 0.34856 0.81981 0.18646 0.0
Cd452 Cd 0.3632 0.84809 0.14813 0.0
O453 O 0.30892 0.82658 0.17101 0.0
Cd454 Cd 0.26605 0.8244 0.17016 0.0
O455 O 0.22376 0.82644 0.1629 0.0
C456 C 0.21232 0.84935 0.16083 0.0
O457 O 0.226 0.87166 0.16347 0.0
C458 C 0.324 0.81626 0.18884 0.0
C459 C 0.37198 0.90132 0.16264 0.0
O460 O 0.34892 0.89325 0.15682 0.0
O461 O 0.391 0.88443 0.16141 0.0
O462 O 0.89125 0.47156 0.83404 0.0
Cd463 Cd 0.89433 0.50933 0.80107 0.0
O464 O 0.90646 0.49461 0.86714 0.0
Cd465 Cd 0.91398 0.50024 0.90927 0.0
O466 O 0.91887 0.50855 0.95121 0.0
C467 C 0.93842 0.52199 0.95906 0.0
O468 O 0.95614 0.53069 0.9418 0.0
C469 C 0.89769 0.47257 0.85836 0.0
C470 C 0.89511 0.56107 0.82131 0.0
O471 O 0.87342 0.5486 0.81796 0.0
O472 O 0.91652 0.54896 0.81571 0.0
O473 O 0.22329 0.11273 0.6564 0.0
Cd474 Cd 0.19912 0.06991 0.66261 0.0
O475 O 0.21201 0.12506 0.69631 0.0
Cd476 Cd 0.21145 0.15461 0.72768 0.0
O477 O 0.21237 0.19175 0.75007 0.0
C478 C 0.20043 0.19524 0.77185 0.0
O479 O 0.20226 0.21885 0.78287 0.0
C480 C 0.22451 0.12972 0.67471 0.0
C481 C 0.16878 0.05489 0.61944 0.0
O482 O 0.15851 0.06755 0.6386 0.0
O483 O 0.19339 0.04981 0.62029 0.0
O484 O 0.11539 0.9517 0.95495 0.0
Cd485 Cd 0.13684 0.97959 0.91989 0.0
O486 O 0.08875 0.98625 0.9514 0.0
Cd487 Cd 0.05685 0.01435 0.95958 0.0
O488 O 0.05377 0.05813 0.95102 0.0
C489 C 0.07482 0.07059 0.95618 0.0
O490 O 0.0942 0.05691 0.9675 0.0
C491 C 0.09472 0.96347 0.96255 0.0
C492 C 0.17456 0.95572 0.88854 0.0
O493 O 0.15018 0.95391 0.88281 0.0
O494 O 0.18109 0.96786 0.90958 0.0
O495 O 0.75982 0.41038 0.32574 0.0
Cd496 Cd 0.73593 0.45332 0.32259 0.0
O497 O 0.72943 0.39094 0.30223 0.0
Cd498 Cd 0.71238 0.35482 0.28532 0.0
O499 O 0.69696 0.3161 0.27247 0.0
C500 C 0.69054 0.31215 0.24854 0.0
O501 O 0.68149 0.28828 0.24243 0.0
C502 C 0.75124 0.38963 0.31439 0.0
C503 C 0.69828 0.4603 0.3618 0.0
O504 O 0.69207 0.4501 0.33965 0.0
O505 O 0.72229 0.46656 0.36573 0.0
O506 O 0.8762 0.51933 0.65673 0.0
Cd507 Cd 0.87949 0.48173 0.68992 0.0
O508 O 0.89661 0.49804 0.62526 0.0
Cd509 Cd 0.90911 0.49362 0.5841 0.0
O510 O 0.9193 0.48581 0.54297 0.0
C511 C 0.94042 0.47356 0.53752 0.0
O512 O 0.95647 0.46588 0.55678 0.0
C513 C 0.88519 0.51916 0.63319 0.0
C514 C 0.87449 0.42986 0.67053 0.0
O515 O 0.85421 0.4441 0.67554 0.0
O516 O 0.89717 0.44023 0.67408 0.0
O517 O 0.59749 0.56532 0.02237 0.0
Cd518 Cd 0.60102 0.53408 0.0613 0.0
O519 O 0.55578 0.55579 0.01585 0.0
Cd520 Cd 0.55382 0.52206 0.04538 0.0
O521 O 0.55349 0.48256 0.06689 0.0
C522 C 0.5739 0.46811 0.06458 0.0
O523 O 0.59353 0.47762 0.05012 0.0
C524 C 0.57621 0.5694 0.00965 0.0
C525 C 0.63444 0.55243 0.10066 0.0
O526 O 0.61027 0.55947 0.09996 0.0
O527 O 0.64298 0.53702 0.08268 0.0
O528 O 0.70127 0.63851 0.82077 0.0
Cd529 Cd 0.65366 0.64336 0.8211 0.0
O530 O 0.70189 0.67909 0.83688 0.0
Cd531 Cd 0.71924 0.71594 0.85213 0.0
O532 O 0.72441 0.75514 0.87031 0.0
C533 C 0.72426 0.77681 0.85574 0.0
O534 O 0.72192 0.7752 0.82988 0.0
C535 C 0.71424 0.65869 0.82856 0.0
C536 C 0.63048 0.63708 0.87111 0.0
O537 O 0.63054 0.6175 0.85513 0.0
O538 O 0.64175 0.65938 0.86377 0.0
O539 O 0.59854 0.42993 0.07978 0.0
Cd540 Cd 0.60231 0.38651 0.10451 0.0
O541 O 0.55689 0.43001 0.09011 0.0
Cd542 Cd 0.51591 0.44323 0.09038 0.0
O543 O 0.47361 0.43773 0.09606 0.0
C544 C 0.4599 0.42792 0.0777 0.0
O545 O 0.47107 0.4225 0.05501 0.0
C546 C 0.57639 0.44165 0.07879 0.0
C547 C 0.64085 0.38951 0.14319 0.0
O548 O 0.64625 0.38051 0.1203 0.0
O549 O 0.61727 0.39681 0.14794 0.0
O550 O 0.82644 0.28061 0.33913 0.0
Cd551 Cd 0.82472 0.3275 0.3211 0.0
O552 O 0.79797 0.26722 0.30945 0.0
Cd553 Cd 0.7855 0.30874 0.29898 0.0
O554 O 0.76289 0.34656 0.29831 0.0
C555 C 0.76649 0.36438 0.3155 0.0
O556 O 0.78471 0.36061 0.33367 0.0
C557 C 0.81401 0.26165 0.32821 0.0
C558 C 0.86344 0.36326 0.33706 0.0
O559 O 0.84252 0.35961 0.35083 0.0
O560 O 0.86657 0.34938 0.3163 0.0
O561 O 0.86143 0.55813 0.61819 0.0
Cd562 Cd 0.85941 0.60169 0.59309 0.0
O563 O 0.89915 0.55094 0.59895 0.0
Cd564 Cd 0.93779 0.53246 0.59425 0.0
O565 O 0.97885 0.52384 0.58547 0.0
C566 C 0.98715 0.52684 0.56171 0.0
O567 O 0.97079 0.53433 0.54266 0.0
C568 C 0.88151 0.54325 0.61544 0.0
C569 C 0.82591 0.63888 0.61599 0.0
O570 O 0.81873 0.62619 0.59551 0.0
O571 O 0.84868 0.63398 0.62571 0.0
O572 O 0.67494 0.37397 0.65409 0.0
Cd573 Cd 0.62719 0.37359 0.64883 0.0
O574 O 0.67349 0.33014 0.6486 0.0
Cd575 Cd 0.69026 0.28975 0.64422 0.0
O576 O 0.69907 0.24873 0.632 0.0
C577 C 0.69959 0.22871 0.64872 0.0
O578 O 0.69551 0.23279 0.674 0.0
C579 C 0.6867 0.35128 0.65326 0.0
C580 C 0.60757 0.38823 0.59852 0.0
O581 O 0.61014 0.40595 0.61627 0.0
O582 O 0.61493 0.36379 0.60416 0.0
O583 O 0.87533 0.43209 0.87123 0.0
Cd584 Cd 0.87281 0.38856 0.89629 0.0
O585 O 0.90991 0.44222 0.89454 0.0
Cd586 Cd 0.94624 0.46349 0.90338 0.0
O587 O 0.98545 0.47425 0.91666 0.0
C588 C 0.99123 0.47172 0.9412 0.0
O589 O 0.97329 0.46348 0.95841 0.0
C590 C 0.89383 0.44842 0.87599 0.0
C591 C 0.83189 0.35646 0.87888 0.0
O592 O 0.8295 0.36975 0.9001 0.0
O593 O 0.85347 0.35827 0.86594 0.0
O594 O 0.81369 0.7234 0.14908 0.0
Cd595 Cd 0.79663 0.67713 0.15521 0.0
O596 O 0.79011 0.73972 0.18151 0.0
Cd597 Cd 0.76691 0.70232 0.18639 0.0
O598 O 0.73892 0.66854 0.19029 0.0
C599 C 0.73342 0.65343 0.17117 0.0
O600 O 0.74506 0.6576 0.14809 0.0
C601 C 0.80755 0.74297 0.1636 0.0
C602 C 0.83332 0.63658 0.14577 0.0
O603 O 0.81845 0.64599 0.12705 0.0
O604 O 0.83119 0.64649 0.16881 0.0
O605 O 0.59985 0.61104 0.44928 0.0
Cd606 Cd 0.6109 0.65403 0.4263 0.0
O607 O 0.56018 0.61303 0.4327 0.0
Cd608 Cd 0.52115 0.59824 0.42279 0.0
O609 O 0.48193 0.59194 0.4067 0.0
C610 C 0.46175 0.5915 0.42151 0.0
O611 O 0.46442 0.59445 0.44717 0.0
C612 C 0.57762 0.60009 0.44608 0.0
C613 C 0.62899 0.64211 0.37587 0.0
O614 O 0.64468 0.64235 0.39571 0.0
O615 O 0.6049 0.64818 0.37958 0.0
O616 O 0.80171 0.7409 0.65287 0.0
Cd617 Cd 0.77739 0.69834 0.65028 0.0
O618 O 0.81679 0.72121 0.68941 0.0
Cd619 Cd 0.84053 0.71613 0.72553 0.0
O620 O 0.85837 0.69891 0.76205 0.0
C621 C 0.84399 0.69249 0.78197 0.0
O622 O 0.81869 0.69718 0.78067 0.0
C623 C 0.81678 0.74146 0.6729 0.0
C624 C 0.80872 0.65892 0.62785 0.0
O625 O 0.79087 0.67114 0.61406 0.0
O626 O 0.81161 0.665 0.65216 0.0
O627 O 0.59592 0.60046 0.97797 0.0
Cd628 Cd 0.58544 0.63387 0.94211 0.0
O629 O 0.55327 0.5969 0.97742 0.0
Cd630 Cd 0.51492 0.58299 0.99165 0.0
O631 O 0.47298 0.58719 0.99854 0.0
C632 C 0.46574 0.60677 0.01244 0.0
O633 O 0.48359 0.6221 0.02314 0.0
C634 C 0.57515 0.58968 0.98747 0.0
C635 C 0.61626 0.63479 0.89642 0.0
O636 O 0.6201 0.65193 0.91449 0.0
O637 O 0.59854 0.61665 0.90026 0.0
O638 O 0.69694 0.35833 0.23484 0.0
Cd639 Cd 0.69977 0.39591 0.20195 0.0
O640 O 0.6897 0.32945 0.20359 0.0
Cd641 Cd 0.68421 0.28817 0.18998 0.0
O642 O 0.6862 0.24467 0.18314 0.0
C643 C 0.69832 0.22982 0.20032 0.0
O644 O 0.70878 0.24098 0.22105 0.0
C645 C 0.69248 0.33422 0.22808 0.0
C646 C 0.66122 0.39165 0.16346 0.0
O647 O 0.65646 0.40334 0.18521 0.0
O648 O 0.68422 0.38207 0.15974 0.0
O649 O 0.9539 0.41759 0.38135 0.0
Cd650 Cd 0.91551 0.42778 0.35354 0.0
O651 O 0.93703 0.44278 0.41196 0.0
Cd652 Cd 0.93643 0.46065 0.45103 0.0
O653 O 0.93 0.47323 0.49162 0.0
C654 C 0.94618 0.46686 0.51001 0.0
O655 O 0.9674 0.45312 0.50446 0.0
C656 C 0.95569 0.42811 0.40392 0.0
C657 C 0.88241 0.38428 0.34378 0.0
O658 O 0.90209 0.38965 0.32864 0.0
O659 O 0.87872 0.3989 0.36393 0.0
O660 O 0.78188 0.26078 0.84628 0.0
Cd661 Cd 0.76943 0.30828 0.85107 0.0
O662 O 0.79785 0.27577 0.80817 0.0
Cd663 Cd 0.81523 0.27536 0.76833 0.0
O664 O 0.83048 0.29233 0.73039 0.0
C665 C 0.81523 0.30212 0.71244 0.0
O666 O 0.78978 0.301 0.71611 0.0
C667 C 0.79351 0.256 0.82465 0.0
C668 C 0.81038 0.33973 0.86944 0.0
O669 O 0.79219 0.33131 0.88528 0.0
O670 O 0.80932 0.33328 0.84507 0.0
O671 O 0.92721 0.57851 0.11533 0.0
Cd672 Cd 0.88347 0.56907 0.13375 0.0
O673 O 0.91646 0.55293 0.08246 0.0
Cd674 Cd 0.92291 0.53452 0.04424 0.0
O675 O 0.92255 0.52151 0.00334 0.0
C676 C 0.94039 0.52897 0.98702 0.0
O677 O 0.95979 0.54412 0.99499 0.0
C678 C 0.93331 0.56755 0.09374 0.0
C679 C 0.85151 0.61413 0.14122 0.0
O680 O 0.8665 0.60485 0.15989 0.0
O681 O 0.85201 0.60265 0.11884 0.0
O682 O 0.67862 0.65354 0.27562 0.0
Cd683 Cd 0.65547 0.61736 0.30049 0.0
O684 O 0.66574 0.68117 0.30606 0.0
Cd685 Cd 0.6638 0.72111 0.32334 0.0
O686 O 0.66965 0.76386 0.33131 0.0
C687 C 0.68604 0.77055 0.34883 0.0
O688 O 0.6986 0.75156 0.36279 0.0
C689 C 0.6784 0.67715 0.28479 0.0
C690 C 0.63826 0.63415 0.34972 0.0
O691 O 0.62311 0.63564 0.32942 0.0
O692 O 0.66147 0.62482 0.34684 0.0
O693 O 0.59167 0.4313 0.4906 0.0
Cd694 Cd 0.56717 0.40728 0.5262 0.0
O695 O 0.55895 0.45931 0.48102 0.0
Cd696 Cd 0.53152 0.43734 0.50749 0.0
O697 O 0.50411 0.40879 0.52705 0.0
C698 C 0.50682 0.38368 0.52296 0.0
O699 O 0.52592 0.37581 0.50755 0.0
C700 C 0.58237 0.45155 0.4772 0.0
C701 C 0.59495 0.39532 0.57296 0.0
O702 O 0.5934 0.37796 0.55475 0.0
O703 O 0.58396 0.41852 0.56891 0.0
O704 O 0.71302 0.78683 0.59004 0.0
Cd705 Cd 0.66882 0.7776 0.57367 0.0
O706 O 0.69454 0.78519 0.62934 0.0
Cd707 Cd 0.69467 0.78572 0.67278 0.0
O708 O 0.6957 0.78725 0.71605 0.0
C709 C 0.70954 0.80513 0.72688 0.0
O710 O 0.72311 0.82248 0.71191 0.0
C711 C 0.71508 0.78775 0.61514 0.0
C712 C 0.6448 0.81868 0.54272 0.0
O713 O 0.64379 0.81869 0.56817 0.0
O714 O 0.65772 0.79978 0.53185 0.0
O715 O 0.17912 0.71891 0.41494 0.0
Cd716 Cd 0.13651 0.7261 0.43589 0.0
O717 O 0.15756 0.72123 0.37726 0.0
Cd718 Cd 0.1549 0.72103 0.33385 0.0
O719 O 0.15728 0.71912 0.29063 0.0
C720 C 0.17359 0.70294 0.28062 0.0
O721 O 0.18847 0.68763 0.29638 0.0
C722 C 0.17916 0.71859 0.38971 0.0
C723 C 0.11919 0.68424 0.47045 0.0
O724 O 0.11522 0.68339 0.44536 0.0
O725 O 0.13184 0.70447 0.47922 0.0
O726 O 0.6252 0.91303 0.47498 0.0
Cd727 Cd 0.60014 0.87561 0.4958 0.0
O728 O 0.59645 0.94267 0.48857 0.0
Cd729 Cd 0.58426 0.98452 0.49544 0.0
O730 O 0.58245 0.02768 0.50402 0.0
C731 C 0.56335 0.03936 0.5151 0.0
O732 O 0.54233 0.02539 0.52194 0.0
C733 C 0.6173 0.93743 0.47588 0.0
C734 C 0.63035 0.83902 0.52642 0.0
O735 O 0.62806 0.8366 0.50128 0.0
O736 O 0.61874 0.85888 0.53713 0.0
O737 O 0.33164 0.23932 0.81095 0.0
Cd738 Cd 0.33758 0.23921 0.85912 0.0
O739 O 0.31332 0.27916 0.81445 0.0
Cd740 Cd 0.29542 0.31805 0.80211 0.0
O741 O 0.27884 0.35886 0.8051 0.0
C742 C 0.25645 0.3615 0.81575 0.0
O743 O 0.24352 0.33969 0.82389 0.0
C744 C 0.32087 0.26012 0.79993 0.0
C745 C 0.37644 0.27593 0.87243 0.0
O746 O 0.38196 0.25087 0.86944 0.0
O747 O 0.35263 0.28367 0.86935 0.0
O748 O 0.41201 0.63953 0.55671 0.0
Cd749 Cd 0.41249 0.64626 0.60457 0.0
O750 O 0.42023 0.59638 0.56528 0.0
Cd751 Cd 0.42766 0.55418 0.55544 0.0
O752 O 0.43605 0.51082 0.55274 0.0
C753 C 0.45137 0.50232 0.53501 0.0
O754 O 0.46208 0.51972 0.51778 0.0
C755 C 0.416 0.61586 0.54845 0.0
C756 C 0.38382 0.6915 0.61885 0.0
O757 O 0.40835 0.69347 0.61368 0.0
O758 O 0.37276 0.66831 0.61712 0.0
O759 O 0.83531 0.26407 0.18986 0.0
Cd760 Cd 0.84416 0.26529 0.14208 0.0
O761 O 0.82006 0.22308 0.18499 0.0
Cd762 Cd 0.80328 0.18345 0.19646 0.0
O763 O 0.78625 0.14275 0.19504 0.0
C764 C 0.76402 0.14031 0.18406 0.0
O765 O 0.75212 0.16208 0.1742 0.0
C766 C 0.82516 0.24251 0.20003 0.0
C767 C 0.87063 0.21862 0.12783 0.0
O768 O 0.88328 0.24008 0.13352 0.0
O769 O 0.84555 0.2192 0.12863 0.0
O770 O 0.6137 0.08781 0.0372 0.0
Cd771 Cd 0.58411 0.12297 0.01908 0.0
O772 O 0.58914 0.05614 0.0204 0.0
Cd773 Cd 0.58306 0.01356 0.01081 0.0
O774 O 0.5865 0.97111 0.99996 0.0
C775 C 0.56893 0.95886 0.98717 0.0
O776 O 0.54727 0.97167 0.98023 0.0
C777 C 0.60885 0.06285 0.0341 0.0
C778 C 0.60791 0.16227 0.98576 0.0
O779 O 0.608 0.16441 0.01105 0.0
O780 O 0.59703 0.14139 0.97616 0.0
O781 O 0.95178 0.85544 0.42561 0.0
Cd782 Cd 0.94411 0.84757 0.3786 0.0
O783 O 0.95288 0.89944 0.41691 0.0
Cd784 Cd 0.95471 0.94204 0.42763 0.0
O785 O 0.95222 0.98517 0.43606 0.0
C786 C 0.96598 0.99521 0.45424 0.0
O787 O 0.98212 0.97953 0.4682 0.0
C788 C 0.9541 0.87943 0.43366 0.0
C789 C 0.90601 0.80797 0.37173 0.0
O790 O 0.9303 0.80155 0.37331 0.0
O791 O 0.89963 0.833 0.37339 0.0
O792 O 0.33895 0.25953 0.19529 0.0
Cd793 Cd 0.37147 0.29508 0.20261 0.0
O794 O 0.3177 0.28321 0.16421 0.0
Cd795 Cd 0.28559 0.28797 0.13544 0.0
O796 O 0.24832 0.28758 0.11394 0.0
C797 C 0.22748 0.2886 0.12769 0.0
O798 O 0.22931 0.29034 0.15358 0.0
C799 C 0.32062 0.26135 0.17825 0.0
C800 C 0.37176 0.33865 0.16547 0.0
O801 O 0.38293 0.31615 0.16039 0.0
O802 O 0.35995 0.34049 0.1878 0.0
O803 O 0.43211 0.63775 0.02243 0.0
Cd804 Cd 0.38857 0.65672 0.01487 0.0
O805 O 0.42063 0.60149 0.00139 0.0
Cd806 Cd 0.42839 0.56256 0.98348 0.0
O807 O 0.43334 0.52182 0.96863 0.0
C808 C 0.44441 0.50348 0.98313 0.0
O809 O 0.4531 0.50931 0.00678 0.0
C810 C 0.43818 0.61522 0.0127 0.0
C811 C 0.38539 0.67027 0.96078 0.0
O812 O 0.39609 0.68639 0.97688 0.0
O813 O 0.37537 0.64807 0.97022 0.0
O814 O 0.26664 0.58921 0.69327 0.0
Cd815 Cd 0.25115 0.54279 0.68758 0.0
O816 O 0.22898 0.60791 0.68184 0.0
Cd817 Cd 0.20371 0.64351 0.67555 0.0
O818 O 0.1885 0.68485 0.67715 0.0
C819 C 0.19902 0.70378 0.66295 0.0
O820 O 0.21811 0.69804 0.6466 0.0
C821 C 0.25264 0.61031 0.68935 0.0
C822 C 0.22078 0.53486 0.64254 0.0
O823 O 0.24585 0.53512 0.64113 0.0
O824 O 0.20997 0.539 0.665 0.0
O825 O 0.09519 0.41972 0.49926 0.0
Cd826 Cd 0.10378 0.37269 0.48827 0.0
O827 O 0.05731 0.4165 0.47923 0.0
Cd828 Cd 0.01946 0.43026 0.46325 0.0
O829 O 0.98283 0.43639 0.44124 0.0
C830 C 0.97933 0.42355 0.42014 0.0
O831 O 0.99771 0.40711 0.41213 0.0
C832 C 0.07372 0.43058 0.49175 0.0
C833 C 0.14875 0.36777 0.45745 0.0
O834 O 0.12659 0.37335 0.4466 0.0
O835 O 0.14979 0.36457 0.48282 0.0
O836 O 0.31518 0.7221 0.2989 0.0
Cd837 Cd 0.32047 0.67454 0.28729 0.0
O838 O 0.28964 0.70637 0.33095 0.0
Cd839 Cd 0.2606 0.71046 0.36262 0.0
O840 O 0.22559 0.71399 0.38735 0.0
C841 C 0.20386 0.71557 0.37509 0.0
O842 O 0.20379 0.71506 0.34904 0.0
C843 C 0.2997 0.7265 0.31801 0.0
C844 C 0.35155 0.64066 0.32008 0.0
O845 O 0.36076 0.65148 0.29845 0.0
O846 O 0.32807 0.64656 0.32678 0.0
O847 O 0.08368 0.58214 0.01561 0.0
Cd848 Cd 0.08829 0.62932 0.02785 0.0
O849 O 0.04422 0.58171 0.03277 0.0
Cd850 Cd 0.00604 0.56542 0.04543 0.0
O851 O 0.96664 0.55903 0.06192 0.0
C852 C 0.9595 0.57184 0.08212 0.0
O853 O 0.976 0.5885 0.09307 0.0
C854 C 0.06265 0.56936 0.02123 0.0
C855 C 0.13465 0.63751 0.05546 0.0
O856 O 0.11378 0.62988 0.06778 0.0
O857 O 0.13372 0.6413 0.03014 0.0
O858 O 0.26008 0.40949 0.81545 0.0
Cd859 Cd 0.24617 0.45648 0.82134 0.0
O860 O 0.22243 0.39173 0.82834 0.0
Cd861 Cd 0.19682 0.3566 0.83568 0.0
O862 O 0.18307 0.31468 0.83521 0.0
C863 C 0.19336 0.29683 0.85088 0.0
O864 O 0.21116 0.30411 0.86802 0.0
C865 C 0.24574 0.38874 0.81997 0.0
C866 C 0.21928 0.4665 0.8682 0.0
O867 O 0.24435 0.46536 0.86784 0.0
O868 O 0.2068 0.46221 0.84668 0.0
O869 O 0.49431 0.3383 0.53336 0.0
Cd870 Cd 0.46839 0.29975 0.55081 0.0
O871 O 0.46847 0.37046 0.54744 0.0
Cd872 Cd 0.45733 0.41323 0.55032 0.0
O873 O 0.44775 0.45649 0.55126 0.0
C874 C 0.45744 0.47325 0.53408 0.0
O875 O 0.47323 0.46448 0.51569 0.0
C876 C 0.48907 0.36336 0.53529 0.0
C877 C 0.42395 0.31204 0.57998 0.0
O878 O 0.44615 0.30849 0.59151 0.0
O879 O 0.42283 0.31052 0.55465 0.0
O880 O 0.21587 0.31238 0.39125 0.0
Cd881 Cd 0.21656 0.35741 0.40982 0.0
O882 O 0.21751 0.33131 0.35105 0.0
Cd883 Cd 0.21692 0.33024 0.30763 0.0
O884 O 0.21552 0.32698 0.26451 0.0
C885 C 0.19954 0.31056 0.25441 0.0
O886 O 0.18404 0.29579 0.27002 0.0
C887 C 0.21594 0.31007 0.3662 0.0
C888 C 0.17228 0.36467 0.44113 0.0
O889 O 0.1938 0.35616 0.4516 0.0
O890 O 0.17168 0.37003 0.41602 0.0
O891 O 0.42231 0.42297 0.10549 0.0
Cd892 Cd 0.37715 0.40651 0.1106 0.0
O893 O 0.41841 0.41089 0.06434 0.0
Cd894 Cd 0.4315 0.40437 0.02372 0.0
O895 O 0.43654 0.39604 0.98175 0.0
C896 C 0.43575 0.37176 0.97425 0.0
O897 O 0.43254 0.35175 0.99201 0.0
C898 C 0.43233 0.42064 0.08258 0.0
C899 C 0.37315 0.36199 0.14646 0.0
O900 O 0.36781 0.38599 0.15371 0.0
O901 O 0.38036 0.35892 0.12239 0.0
O902 O 0.3628 0.72819 0.86458 0.0
Cd903 Cd 0.38795 0.68773 0.87751 0.0
O904 O 0.34811 0.70958 0.8286 0.0
Cd905 Cd 0.32901 0.7109 0.78958 0.0
O906 O 0.32277 0.71353 0.74648 0.0
C907 C 0.33136 0.73471 0.73417 0.0
O908 O 0.34241 0.75383 0.74774 0.0
C909 C 0.34921 0.72981 0.84345 0.0
C910 C 0.38567 0.67662 0.9321 0.0
O911 O 0.37087 0.66383 0.91631 0.0
O912 O 0.40142 0.69456 0.92219 0.0
O913 O 0.15016 0.54805 0.55332 0.0
Cd914 Cd 0.17562 0.51201 0.57608 0.0
O915 O 0.11577 0.52275 0.56267 0.0
Cd916 Cd 0.07333 0.51747 0.56658 0.0
O917 O 0.03125 0.51846 0.57456 0.0
C918 C 0.01511 0.52367 0.55584 0.0
O919 O 0.02378 0.52782 0.53143 0.0
C920 C 0.12559 0.54425 0.55197 0.0
C921 C 0.20493 0.52837 0.61934 0.0
O922 O 0.2154 0.52697 0.59629 0.0
O923 O 0.18056 0.52262 0.62192 0.0
O924 O 0.20287 0.69819 0.11499 0.0
Cd925 Cd 0.20461 0.65249 0.09812 0.0
O926 O 0.20038 0.68062 0.15567 0.0
Cd927 Cd 0.19606 0.68294 0.19876 0.0
O928 O 0.19232 0.68525 0.24182 0.0
C929 C 0.17592 0.70141 0.25169 0.0
O930 O 0.16117 0.71677 0.23586 0.0
C931 C 0.20064 0.70139 0.13981 0.0
C932 C 0.15896 0.6422 0.07007 0.0
O933 O 0.17931 0.65172 0.05805 0.0
O934 O 0.16021 0.63719 0.09523 0.0
O935 O 0.15434 0.45663 0.96146 0.0
Cd936 Cd 0.17945 0.49192 0.93723 0.0
O937 O 0.11931 0.48033 0.95062 0.0
Cd938 Cd 0.07701 0.4841 0.94482 0.0
O939 O 0.03599 0.48172 0.93295 0.0
C940 C 0.01823 0.47604 0.94996 0.0
O941 O 0.0245 0.47223 0.97514 0.0
C942 C 0.12963 0.45959 0.96228 0.0
C943 C 0.20528 0.47403 0.89229 0.0
O944 O 0.2173 0.47534 0.91454 0.0
O945 O 0.18103 0.48072 0.89127 0.0
O946 O 0.33446 0.27742 0.63522 0.0
Cd947 Cd 0.35453 0.32183 0.62522 0.0
O948 O 0.32321 0.29033 0.67481 0.0
Cd949 Cd 0.30873 0.28481 0.71567 0.0
O950 O 0.3077 0.28271 0.75925 0.0
C951 C 0.31836 0.26216 0.77084 0.0
O952 O 0.32834 0.24307 0.75644 0.0
C953 C 0.32361 0.27217 0.65756 0.0
C954 C 0.40016 0.31643 0.59555 0.0
O955 O 0.3779 0.31952 0.58406 0.0
O956 O 0.40098 0.31616 0.62101 0.0
O957 O 0.43334 0.58697 0.38472 0.0
Cd958 Cd 0.39188 0.57699 0.36266 0.0
O959 O 0.41576 0.58318 0.42457 0.0
Cd960 Cd 0.41742 0.58316 0.46808 0.0
O961 O 0.41887 0.58779 0.5111 0.0
C962 C 0.41557 0.61139 0.51979 0.0
O963 O 0.41149 0.63195 0.50285 0.0
C964 C 0.43577 0.58717 0.40985 0.0
C965 C 0.36664 0.6202 0.33561 0.0
O966 O 0.38617 0.60822 0.32518 0.0
O967 O 0.35946 0.61245 0.35912 0.0
O968 O 0.35536 0.16615 0.31086 0.0
Cd969 Cd 0.36802 0.13718 0.34942 0.0
O970 O 0.31589 0.16661 0.32794 0.0
Cd971 Cd 0.27397 0.17614 0.32934 0.0
O972 O 0.23183 0.18173 0.3353 0.0
C973 C 0.21648 0.16165 0.33315 0.0
O974 O 0.22612 0.13797 0.32708 0.0
C975 C 0.33156 0.17359 0.30921 0.0
C976 C 0.37992 0.08485 0.33416 0.0
O977 O 0.35619 0.0919 0.33848 0.0
O978 O 0.39813 0.10234 0.33725 0.0
O979 O 0.85074 0.32005 0.68672 0.0
Cd980 Cd 0.86589 0.34797 0.64836 0.0
O981 O 0.81132 0.32674 0.67067 0.0
Cd982 Cd 0.76847 0.32463 0.66916 0.0
O983 O 0.72636 0.32672 0.66086 0.0
C984 C 0.71508 0.34966 0.65793 0.0
O985 O 0.72878 0.37198 0.66035 0.0
C986 C 0.82615 0.31656 0.6888 0.0
C987 C 0.87174 0.4019 0.66199 0.0
O988 O 0.84936 0.39271 0.65521 0.0
O989 O 0.89147 0.38581 0.66209 0.0
O990 O 0.39292 0.96873 0.33709 0.0
Cd991 Cd 0.39757 0.00717 0.30506 0.0
O992 O 0.40868 0.99088 0.37051 0.0
Cd993 Cd 0.41643 0.99594 0.4127 0.0
O994 O 0.42166 0.00474 0.45448 0.0
C995 C 0.44137 0.01817 0.46197 0.0
O996 O 0.45902 0.02645 0.44446 0.0
C997 C 0.39936 0.96921 0.36144 0.0
C998 C 0.386 0.05769 0.325 0.0
O999 O 0.36774 0.04219 0.31698 0.0
O1000 O 0.40972 0.04923 0.32409 0.0
O1001 O 0.71265 0.61315 0.15747 0.0
Cd1002 Cd 0.68319 0.57422 0.16507 0.0
O1003 O 0.70112 0.6284 0.19617 0.0
Cd1004 Cd 0.70199 0.65902 0.22649 0.0
O1005 O 0.70388 0.69615 0.24881 0.0
C1006 C 0.69299 0.69941 0.27118 0.0
O1007 O 0.69527 0.72294 0.28226 0.0
C1008 C 0.71492 0.63073 0.17513 0.0
C1009 C 0.65163 0.5609 0.1222 0.0
O1010 O 0.64334 0.57707 0.13965 0.0
O1011 O 0.67496 0.55149 0.12455 0.0
O1012 O 0.6196 0.45503 0.44865 0.0
Cd1013 Cd 0.63978 0.48597 0.41512 0.0
O1014 O 0.59157 0.48844 0.44641 0.0
Cd1015 Cd 0.55853 0.51463 0.45579 0.0
O1016 O 0.55366 0.55846 0.44884 0.0
C1017 C 0.57375 0.57177 0.45549 0.0
O1018 O 0.5932 0.55872 0.46738 0.0
C1019 C 0.59844 0.46553 0.45668 0.0
C1020 C 0.67808 0.4669 0.38125 0.0
O1021 O 0.65372 0.46443 0.37566 0.0
O1022 O 0.68435 0.47721 0.40333 0.0
O1023 O 0.25449 0.88924 0.84206 0.0
Cd1024 Cd 0.23226 0.93252 0.83313 0.0
O1025 O 0.23212 0.87152 0.80981 0.0
Cd1026 Cd 0.22177 0.83682 0.78625 0.0
O1027 O 0.21337 0.79822 0.76811 0.0
C1028 C 0.19843 0.79606 0.74811 0.0
O1029 O 0.19477 0.772 0.73848 0.0
C1030 C 0.24959 0.86923 0.82775 0.0
C1031 C 0.19462 0.94606 0.87033 0.0
O1032 O 0.18817 0.93346 0.84954 0.0
O1033 O 0.21883 0.95168 0.8739 0.0
O1034 O 0.38038 0.01835 0.15892 0.0
Cd1035 Cd 0.38451 0.98018 0.19137 0.0
O1036 O 0.39972 0.99748 0.12652 0.0
Cd1037 Cd 0.41096 0.99348 0.08495 0.0
O1038 O 0.41993 0.98636 0.0434 0.0
C1039 C 0.44076 0.97406 0.03707 0.0
O1040 O 0.45731 0.96585 0.05568 0.0
C1041 C 0.38865 0.01852 0.1351 0.0
C1042 C 0.37633 0.92893 0.17153 0.0
O1043 O 0.35697 0.94383 0.17802 0.0
O1044 O 0.39958 0.93836 0.17385 0.0
O1045 O 0.10484 0.05812 0.52509 0.0
Cd1046 Cd 0.12158 0.02413 0.55773 0.0
O1047 O 0.06915 0.0338 0.51902 0.0
Cd1048 Cd 0.07946 0.99848 0.54424 0.0
O1049 O 0.08568 0.95799 0.56217 0.0
C1050 C 0.10765 0.94686 0.55813 0.0
O1051 O 0.12554 0.96026 0.54415 0.0
C1052 C 0.08272 0.05506 0.51399 0.0
C1053 C 0.15254 0.04531 0.59766 0.0
O1054 O 0.12749 0.04553 0.59935 0.0
O1055 O 0.16305 0.03552 0.577 0.0
loop_
_geom_bond_atom_site_label_1
_geom_bond_atom_site_label_2
_geom_bond_distance
_geom_bond_site_symmetry_2
_ccdc_geom_bond_type
O0 Cd1 2.300 . S
O0 C7 1.275 . S
Cd1 O0 2.300 . S
Cd1 O9 2.381 . S
Cd1 O10 2.378 . S
O2 Cd3 2.385 . S
O2 C7 1.255 . S
Cd3 O2 2.385 . S
Cd3 O4 2.317 . S
O4 Cd3 2.317 . S
O4 C5 1.232 . S
C5 O4 1.232 . S
C5 O6 1.218 . S
O6 C5 1.218 . S
C7 O0 1.275 . S
C7 O2 1.255 . S
C8 O9 1.258 . S
C8 O10 1.256 . S
O9 Cd1 2.381 . S
O9 C8 1.258 . S
O10 Cd1 2.378 . S
O10 C8 1.256 . S
O11 Cd12 2.300 . S
O11 C18 1.275 . S
Cd12 O11 2.300 . S
Cd12 O20 2.381 . S
Cd12 O21 2.378 . S
O13 Cd14 2.385 . S
O13 C18 1.255 . S
Cd14 O13 2.385 . S
Cd14 O15 2.318 . S
O15 Cd14 2.318 . S
O15 C16 1.228 1_455 S
C16 O15 1.228 1_655 S
C16 O17 1.218 . S
O17 C16 1.218 . S
C18 O11 1.275 . S
C18 O13 1.255 . S
C19 O20 1.258 . S
C19 O21 1.256 . S
O20 Cd12 2.381 . S
O20 C19 1.258 . S
O21 Cd12 2.378 . S
O21 C19 1.256 . S
O22 Cd23 2.300 . S
O22 C29 1.275 . S
Cd23 O22 2.300 . S
Cd23 O31 2.381 . S
Cd23 O32 2.378 . S
O24 Cd25 2.385 . S
O24 C29 1.255 . S
Cd25 O24 2.385 . S
Cd25 O26 2.317 . S
O26 Cd25 2.317 . S
O26 C27 1.232 . S
C27 O26 1.232 . S
C27 O28 1.218 . S
O28 C27 1.218 . S
C29 O22 1.275 . S
C29 O24 1.255 . S
C30 O31 1.258 . S
C30 O32 1.256 . S
O31 Cd23 2.381 . S
O31 C30 1.258 . S
O32 Cd23 2.378 . S
O32 C30 1.256 . S
O33 Cd34 2.300 . S
O33 C40 1.275 . S
Cd34 O33 2.300 . S
Cd34 O42 2.381 . S
Cd34 O43 2.378 . S
O35 Cd36 2.385 . S
O35 C40 1.255 . S
Cd36 O35 2.385 . S
Cd36 O37 2.317 . S
O37 Cd36 2.317 . S
O37 C38 1.232 . S
C38 O37 1.232 . S
C38 O39 1.218 . S
O39 C38 1.218 . S
C40 O33 1.275 . S
C40 O35 1.255 . S
C41 O42 1.258 . S
C41 O43 1.256 . S
O42 Cd34 2.381 . S
O42 C41 1.258 . S
O43 Cd34 2.378 . S
O43 C41 1.256 . S
O44 Cd45 2.300 . S
O44 C51 1.275 . S
Cd45 O44 2.300 . S
Cd45 O53 2.381 . S
Cd45 O54 2.378 . S
O46 Cd47 2.385 . S
O46 C51 1.255 . S
Cd47 O46 2.385 . S
Cd47 O48 2.317 . S
O48 Cd47 2.317 . S
O48 C49 1.232 . S
C49 O48 1.232 . S
C49 O50 1.218 . S
O50 C49 1.218 . S
C51 O44 1.275 . S
C51 O46 1.255 . S
C52 O53 1.258 . S
C52 O54 1.256 . S
O53 Cd45 2.381 . S
O53 C52 1.258 . S
O54 Cd45 2.378 . S
O54 C52 1.256 . S
O55 Cd56 2.300 . S
O55 C62 1.275 . S
Cd56 O55 2.300 . S
Cd56 O64 2.381 . S
Cd56 O65 2.378 . S
O57 Cd58 2.385 . S
O57 C62 1.255 . S
Cd58 O57 2.385 . S
Cd58 O59 2.317 . S
O59 Cd58 2.317 . S
O59 C60 1.232 . S
C60 O59 1.232 . S
C60 O61 1.218 . S
O61 C60 1.218 . S
C62 O55 1.275 . S
C62 O57 1.255 . S
C63 O64 1.258 . S
C63 O65 1.256 . S
O64 Cd56 2.381 . S
O64 C63 1.258 . S
O65 Cd56 2.378 . S
O65 C63 1.256 . S
O66 Cd67 2.300 . S
O66 C73 1.275 . S
Cd67 O66 2.300 . S
Cd67 O75 2.381 . S
Cd67 O76 2.378 . S
O68 Cd69 2.385 . S
O68 C73 1.255 . S
Cd69 O68 2.385 . S
Cd69 O70 2.317 . S
O70 Cd69 2.317 . S
O70 C71 1.232 . S
C71 O70 1.232 . S
C71 O72 1.218 . S
O72 C71 1.218 . S
C73 O66 1.275 . S
C73 O68 1.255 . S
C74 O75 1.258 . S
C74 O76 1.256 . S
O75 Cd67 2.381 . S
O75 C74 1.258 . S
O76 Cd67 2.378 . S
O76 C74 1.256 . S
O77 Cd78 2.300 . S
O77 C84 1.275 . S
Cd78 O77 2.300 . S
Cd78 O86 2.381 . S
Cd78 O87 2.378 . S
O79 Cd80 2.385 . S
O79 C84 1.255 . S
Cd80 O79 2.385 . S
Cd80 O81 2.317 . S
O81 Cd80 2.317 . S
O81 C82 1.228 1_455 S
C82 O81 1.228 1_655 S
C82 O83 1.218 . S
O83 C82 1.218 . S
C84 O77 1.275 . S
C84 O79 1.255 . S
C85 O86 1.258 . S
C85 O87 1.256 . S
O86 Cd78 2.381 . S
O86 C85 1.258 . S
O87 Cd78 2.378 . S
O87 C85 1.256 . S
O88 Cd89 2.300 . S
O88 C95 1.275 . S
Cd89 O88 2.300 . S
Cd89 O97 2.381 . S
Cd89 O98 2.378 . S
O90 Cd91 2.385 . S
O90 C95 1.255 . S
Cd91 O90 2.385 . S
Cd91 O92 2.317 . S
O92 Cd91 2.317 . S
O92 C93 1.232 . S
C93 O92 1.232 . S
C93 O94 1.218 . S
O94 C93 1.218 . S
C95 O88 1.275 . S
C95 O90 1.255 . S
C96 O97 1.258 . S
C96 O98 1.256 . S
O97 Cd89 2.381 . S
O97 C96 1.258 . S
O98 Cd89 2.378 . S
O98 C96 1.256 . S
O99 Cd100 2.300 . S
O99 C106 1.275 . S
Cd100 O99 2.300 . S
Cd100 O108 2.381 . S
Cd100 O109 2.378 . S
O101 Cd102 2.385 . S
O101 C106 1.255 . S
Cd102 O101 2.385 . S
Cd102 O103 2.317 . S
O103 Cd102 2.317 . S
O103 C104 1.232 1_455 S
C104 O103 1.232 1_655 S
C104 O105 1.218 . S
O105 C104 1.218 . S
C106 O99 1.275 . S
C106 O101 1.255 . S
C107 O108 1.258 . S
C107 O109 1.256 . S
O108 Cd100 2.381 . S
O108 C107 1.258 . S
O109 Cd100 2.378 . S
O109 C107 1.256 . S
O110 Cd111 2.300 . S
O110 C117 1.275 . S
Cd111 O110 2.300 . S
Cd111 O119 2.381 . S
Cd111 O120 2.378 . S
O112 Cd113 2.385 . S
O112 C117 1.255 . S
Cd113 O112 2.385 . S
Cd113 O114 2.317 . S
O114 Cd113 2.317 . S
O114 C115 1.232 . S
C115 O114 1.232 . S
C115 O116 1.218 . S
O116 C115 1.218 . S
C117 O110 1.275 . S
C117 O112 1.255 . S
C118 O119 1.258 . S
C118 O120 1.256 . S
O119 Cd111 2.381 . S
O119 C118 1.258 . S
O120 Cd111 2.378 . S
O120 C118 1.256 . S
O121 Cd122 2.300 . S
O121 C128 1.275 . S
Cd122 O121 2.300 . S
Cd122 O130 2.381 . S
Cd122 O131 2.378 . S
O123 Cd124 2.385 . S
O123 C128 1.255 . S
Cd124 O123 2.385 . S
Cd124 O125 2.317 . S
O125 Cd124 2.317 . S
O125 C126 1.218 1_556 S
C126 O125 1.218 1_554 S
C126 O127 1.227 . S
O127 C126 1.227 . S
C128 O121 1.275 . S
C128 O123 1.255 . S
C129 O130 1.258 . S
C129 O131 1.256 . S
O130 Cd122 2.381 . S
O130 C129 1.258 . S
O131 Cd122 2.378 . S
O131 C129 1.256 . S
O132 Cd133 2.300 . S
O132 C139 1.275 . S
Cd133 O132 2.300 . S
Cd133 O141 2.381 . S
Cd133 O142 2.378 . S
O134 Cd135 2.385 . S
O134 C139 1.255 . S
Cd135 O134 2.385 . S
Cd135 O136 2.317 . S
O136 Cd135 2.317 . S
O136 C137 1.232 . S
C137 O136 1.232 . S
C137 O138 1.218 . S
O138 C137 1.218 . S
C139 O132 1.275 . S
C139 O134 1.255 . S
C140 O141 1.258 . S
C140 O142 1.256 . S
O141 Cd133 2.381 . S
O141 C140 1.258 . S
O142 Cd133 2.378 . S
O142 C140 1.256 . S
O143 Cd144 2.300 . S
O143 C150 1.275 . S
Cd144 O143 2.300 . S
Cd144 O152 2.381 . S
Cd144 O153 2.378 . S
O145 Cd146 2.385 . S
O145 C150 1.255 . S
Cd146 O145 2.385 . S
Cd146 O147 2.317 . S
O147 Cd146 2.317 . S
O147 C148 1.232 . S
C148 O147 1.232 . S
C148 O149 1.218 . S
O149 C148 1.218 . S
C150 O143 1.275 . S
C150 O145 1.255 . S
C151 O152 1.258 . S
C151 O153 1.256 . S
O152 Cd144 2.381 . S
O152 C151 1.258 . S
O153 Cd144 2.378 . S
O153 C151 1.256 . S
O154 Cd155 2.300 . S
O154 C161 1.275 . S
Cd155 O154 2.300 . S
Cd155 O163 2.381 . S
Cd155 O164 2.378 . S
O156 Cd157 2.385 . S
O156 C161 1.255 . S
Cd157 O156 2.385 . S
Cd157 O158 2.317 . S
O158 Cd157 2.317 . S
O158 C159 1.232 . S
C159 O158 1.232 . S
C159 O160 1.218 . S
O160 C159 1.218 . S
C161 O154 1.275 . S
C161 O156 1.255 . S
C162 O163 1.258 . S
C162 O164 1.256 . S
O163 Cd155 2.381 . S
O163 C162 1.258 . S
O164 Cd155 2.378 . S
O164 C162 1.256 . S
O165 Cd166 2.300 . S
O165 C172 1.275 . S
Cd166 O165 2.300 . S
Cd166 O174 2.381 . S
Cd166 O175 2.378 . S
O167 Cd168 2.385 . S
O167 C172 1.255 . S
Cd168 O167 2.385 . S
Cd168 O169 2.317 . S
O169 Cd168 2.317 . S
O169 C170 1.232 1_455 S
C170 O169 1.232 1_655 S
C170 O171 1.218 . S
O171 C170 1.218 . S
C172 O165 1.275 . S
C172 O167 1.255 . S
C173 O174 1.258 . S
C173 O175 1.256 . S
O174 Cd166 2.381 . S
O174 C173 1.258 . S
O175 Cd166 2.378 . S
O175 C173 1.256 . S
O176 Cd177 2.300 . S
O176 C183 1.275 . S
Cd177 O176 2.300 . S
Cd177 O185 2.381 . S
Cd177 O186 2.378 . S
O178 Cd179 2.385 . S
O178 C183 1.255 . S
Cd179 O178 2.385 . S
Cd179 O180 2.317 . S
O180 Cd179 2.317 . S
O180 C181 1.232 . S
C181 O180 1.232 . S
C181 O182 1.218 . S
O182 C181 1.218 . S
C183 O176 1.275 . S
C183 O178 1.255 . S
C184 O185 1.258 . S
C184 O186 1.256 . S
O185 Cd177 2.381 . S
O185 C184 1.258 . S
O186 Cd177 2.378 . S
O186 C184 1.256 . S
O187 Cd188 2.300 . S
O187 C194 1.275 . S
Cd188 O187 2.300 . S
Cd188 O196 2.381 . S
Cd188 O197 2.378 . S
O189 Cd190 2.385 . S
O189 C194 1.255 . S
Cd190 O189 2.385 . S
Cd190 O191 2.317 . S
O191 Cd190 2.317 . S
O191 C192 1.232 . S
C192 O191 1.232 . S
C192 O193 1.218 . S
O193 C192 1.218 . S
C194 O187 1.275 . S
C194 O189 1.255 . S
C195 O196 1.258 . S
C195 O197 1.256 . S
O196 Cd188 2.381 . S
O196 C195 1.258 . S
O197 Cd188 2.378 . S
O197 C195 1.256 . S
O198 Cd199 2.300 . S
O198 C205 1.275 1_554 S
Cd199 O198 2.300 . S
Cd199 O207 2.381 . S
Cd199 O208 2.378 . S
O200 Cd201 2.385 . S
O200 C205 1.255 1_554 S
Cd201 O200 2.385 . S
Cd201 O202 2.317 . S
O202 Cd201 2.317 . S
O202 C203 1.232 . S
C203 O202 1.232 . S
C203 O204 1.218 . S
O204 C203 1.218 . S
C205 O198 1.275 1_556 S
C205 O200 1.255 1_556 S
C206 O207 1.258 . S
C206 O208 1.256 . S
O207 Cd199 2.381 . S
O207 C206 1.258 . S
O208 Cd199 2.378 . S
O208 C206 1.256 . S
O209 Cd210 2.300 . S
O209 C216 1.275 . S
Cd210 O209 2.300 . S
Cd210 O218 2.381 . S
Cd210 O219 2.378 . S
O211 Cd212 2.385 . S
O211 C216 1.255 . S
Cd212 O211 2.385 . S
Cd212 O213 2.317 . S
O213 Cd212 2.317 . S
O213 C214 1.232 . S
C214 O213 1.232 . S
C214 O215 1.218 . S
O215 C214 1.218 . S
C216 O209 1.275 . S
C216 O211 1.255 . S
C217 O218 1.258 . S
C217 O219 1.256 . S
O218 Cd210 2.381 . S
O218 C217 1.258 . S
O219 Cd210 2.378 . S
O219 C217 1.256 . S
O220 Cd221 2.300 . S
O220 C227 1.275 . S
Cd221 O220 2.300 . S
Cd221 O229 2.381 . S
Cd221 O230 2.378 . S
O222 Cd223 2.385 . S
O222 C227 1.255 . S
Cd223 O222 2.385 . S
Cd223 O224 2.317 . S
O224 Cd223 2.317 . S
O224 C225 1.232 . S
C225 O224 1.232 . S
C225 O226 1.218 1_545 S
O226 C225 1.218 1_565 S
C227 O220 1.275 . S
C227 O222 1.255 . S
C228 O229 1.258 . S
C228 O230 1.256 . S
O229 Cd221 2.381 . S
O229 C228 1.258 . S
O230 Cd221 2.378 . S
O230 C228 1.256 . S
O231 Cd232 2.300 . S
O231 C238 1.275 . S
Cd232 O231 2.300 . S
Cd232 O240 2.381 . S
Cd232 O241 2.378 . S
O233 Cd234 2.385 . S
O233 C238 1.255 . S
Cd234 O233 2.385 . S
Cd234 O235 2.317 . S
O235 Cd234 2.317 . S
O235 C236 1.232 . S
C236 O235 1.232 . S
C236 O237 1.218 . S
O237 C236 1.218 . S
C238 O231 1.275 . S
C238 O233 1.255 . S
C239 O240 1.258 . S
C239 O241 1.256 . S
O240 Cd232 2.381 . S
O240 C239 1.258 . S
O241 Cd232 2.378 . S
O241 C239 1.256 . S
O242 Cd243 2.300 . S
O242 C249 1.275 . S
Cd243 O242 2.300 . S
Cd243 O251 2.381 . S
Cd243 O252 2.378 . S
O244 Cd245 2.385 . S
O244 C249 1.255 . S
Cd245 O244 2.385 . S
Cd245 O246 2.317 . S
O246 Cd245 2.317 . S
O246 C247 1.232 . S
C247 O246 1.232 . S
C247 O248 1.218 . S
O248 C247 1.218 . S
C249 O242 1.275 . S
C249 O244 1.255 . S
C250 O251 1.258 . S
C250 O252 1.256 . S
O251 Cd243 2.381 . S
O251 C250 1.258 . S
O252 Cd243 2.378 . S
O252 C250 1.256 . S
O253 Cd254 2.300 . S
O253 C260 1.275 . S
Cd254 O253 2.300 . S
Cd254 O262 2.381 . S
Cd254 O263 2.378 . S
O255 Cd256 2.385 . S
O255 C260 1.255 . S
Cd256 O255 2.385 . S
Cd256 O257 2.317 . S
O257 Cd256 2.317 . S
O257 C258 1.232 . S
C258 O257 1.232 . S
C258 O259 1.218 . S
O259 C258 1.218 . S
C260 O253 1.275 . S
C260 O255 1.255 . S
C261 O262 1.258 . S
C261 O263 1.256 . S
O262 Cd254 2.381 . S
O262 C261 1.258 . S
O263 Cd254 2.378 . S
O263 C261 1.256 . S
O264 Cd265 2.300 . S
O264 C271 1.275 . S
Cd265 O264 2.300 . S
Cd265 O273 2.381 . S
Cd265 O274 2.378 . S
O266 Cd267 2.385 . S
O266 C271 1.255 . S
Cd267 O266 2.385 . S
Cd267 O268 2.317 . S
O268 Cd267 2.317 . S
O268 C269 1.232 . S
C269 O268 1.232 . S
C269 O270 1.218 . S
O270 C269 1.218 . S
C271 O264 1.275 . S
C271 O266 1.255 . S
C272 O273 1.258 . S
C272 O274 1.256 . S
O273 Cd265 2.381 . S
O273 C272 1.258 . S
O274 Cd265 2.378 . S
O274 C272 1.256 . S
O275 Cd276 2.300 . S
O275 C282 1.275 . S
Cd276 O275 2.300 . S
Cd276 O284 2.381 . S
Cd276 O285 2.378 . S
O277 Cd278 2.385 . S
O277 C282 1.255 . S
Cd278 O277 2.385 . S
Cd278 O279 2.317 . S
O279 Cd278 2.317 . S
O279 C280 1.232 . S
C280 O279 1.232 . S
C280 O281 1.218 . S
O281 C280 1.218 . S
C282 O275 1.275 . S
C282 O277 1.255 . S
C283 O284 1.258 . S
C283 O285 1.256 . S
O284 Cd276 2.381 . S
O284 C283 1.258 . S
O285 Cd276 2.378 . S
O285 C283 1.256 . S
O286 Cd287 2.300 . S
O286 C293 1.275 . S
Cd287 O286 2.300 . S
Cd287 O295 2.381 . S
Cd287 O296 2.378 . S
O288 Cd289 2.385 . S
O288 C293 1.255 . S
Cd289 O288 2.385 . S
Cd289 O290 2.317 . S
O290 Cd289 2.317 . S
O290 C291 1.232 . S
C291 O290 1.232 . S
C291 O292 1.218 . S
O292 C291 1.218 . S
C293 O286 1.275 . S
C293 O288 1.255 . S
C294 O295 1.258 . S
C294 O296 1.256 . S
O295 Cd287 2.381 . S
O295 C294 1.258 . S
O296 Cd287 2.378 . S
O296 C294 1.256 . S
O297 Cd298 2.300 . S
O297 C304 1.275 . S
Cd298 O297 2.300 . S
Cd298 O306 2.381 . S
Cd298 O307 2.378 . S
O299 Cd300 2.385 . S
O299 C304 1.255 . S
Cd300 O299 2.385 . S
Cd300 O301 2.317 . S
O301 Cd300 2.317 . S
O301 C302 1.232 . S
C302 O301 1.232 . S
C302 O303 1.218 . S
O303 C302 1.218 . S
C304 O297 1.275 . S
C304 O299 1.255 . S
C305 O306 1.258 . S
C305 O307 1.256 . S
O306 Cd298 2.381 . S
O306 C305 1.258 . S
O307 Cd298 2.378 . S
O307 C305 1.256 . S
O308 Cd309 2.300 . S
O308 C315 1.275 . S
Cd309 O308 2.300 . S
Cd309 O317 2.381 . S
Cd309 O318 2.378 . S
O310 Cd311 2.385 . S
O310 C315 1.255 . S
Cd311 O310 2.385 . S
Cd311 O312 2.317 . S
O312 Cd311 2.317 . S
O312 C313 1.232 . S
C313 O312 1.232 . S
C313 O314 1.218 . S
O314 C313 1.218 . S
C315 O308 1.275 . S
C315 O310 1.255 . S
C316 O317 1.258 . S
C316 O318 1.256 . S
O317 Cd309 2.381 . S
O317 C316 1.258 . S
O318 Cd309 2.378 . S
O318 C316 1.256 . S
O319 Cd320 2.300 . S
O319 C326 1.275 . S
Cd320 O319 2.300 . S
Cd320 O328 2.381 . S
Cd320 O329 2.378 . S
O321 Cd322 2.385 . S
O321 C326 1.255 . S
Cd322 O321 2.385 . S
Cd322 O323 2.317 . S
O323 Cd322 2.317 . S
O323 C324 1.232 . S
C324 O323 1.232 . S
C324 O325 1.218 . S
O325 C324 1.218 . S
C326 O319 1.275 . S
C326 O321 1.255 . S
C327 O328 1.258 . S
C327 O329 1.256 . S
O328 Cd320 2.381 . S
O328 C327 1.258 . S
O329 Cd320 2.378 . S
O329 C327 1.256 . S
O330 Cd331 2.300 . S
O330 C337 1.275 . S
Cd331 O330 2.300 . S
Cd331 O339 2.381 . S
Cd331 O340 2.378 . S
O332 Cd333 2.385 . S
O332 C337 1.255 . S
Cd333 O332 2.385 . S
Cd333 O334 2.317 . S
O334 Cd333 2.317 . S
O334 C335 1.232 . S
C335 O334 1.232 . S
C335 O336 1.218 . S
O336 C335 1.218 . S
C337 O330 1.275 . S
C337 O332 1.255 . S
C338 O339 1.258 . S
C338 O340 1.256 . S
O339 Cd331 2.381 . S
O339 C338 1.258 . S
O340 Cd331 2.378 . S
O340 C338 1.256 . S
O341 Cd342 2.300 . S
O341 C348 1.275 . S
Cd342 O341 2.300 . S
Cd342 O350 2.381 . S
Cd342 O351 2.378 . S
O343 Cd344 2.385 . S
O343 C348 1.255 . S
Cd344 O343 2.385 . S
Cd344 O345 2.317 . S
O345 Cd344 2.317 . S
O345 C346 1.232 . S
C346 O345 1.232 . S
C346 O347 1.218 . S
O347 C346 1.218 . S
C348 O341 1.275 . S
C348 O343 1.255 . S
C349 O350 1.258 . S
C349 O351 1.256 . S
O350 Cd342 2.381 . S
O350 C349 1.258 . S
O351 Cd342 2.378 . S
O351 C349 1.256 . S
O352 Cd353 2.300 . S
O352 C359 1.275 . S
Cd353 O352 2.300 . S
Cd353 O361 2.381 . S
Cd353 O362 2.378 . S
O354 Cd355 2.385 . S
O354 C359 1.255 . S
Cd355 O354 2.385 . S
Cd355 O356 2.317 . S
O356 Cd355 2.317 . S
O356 C357 1.232 . S
C357 O356 1.232 . S
C357 O358 1.218 . S
O358 C357 1.218 . S
C359 O352 1.275 . S
C359 O354 1.255 . S
C360 O361 1.258 . S
C360 O362 1.256 . S
O361 Cd353 2.381 . S
O361 C360 1.258 . S
O362 Cd353 2.378 . S
O362 C360 1.256 . S
O363 Cd364 2.300 . S
O363 C370 1.275 . S
Cd364 O363 2.300 . S
Cd364 O372 2.381 . S
Cd364 O373 2.378 . S
O365 Cd366 2.385 . S
O365 C370 1.255 . S
Cd366 O365 2.385 . S
Cd366 O367 2.317 . S
O367 Cd366 2.317 . S
O367 C368 1.232 . S
C368 O367 1.232 . S
C368 O369 1.218 . S
O369 C368 1.218 . S
C370 O363 1.275 . S
C370 O365 1.255 . S
C371 O372 1.258 . S
C371 O373 1.256 . S
O372 Cd364 2.381 . S
O372 C371 1.258 . S
O373 Cd364 2.378 . S
O373 C371 1.256 . S
O374 Cd375 2.300 . S
O374 C381 1.275 . S
Cd375 O374 2.300 . S
Cd375 O383 2.381 . S
Cd375 O384 2.378 . S
O376 Cd377 2.385 . S
O376 C381 1.255 . S
Cd377 O376 2.385 . S
Cd377 O378 2.317 . S
O378 Cd377 2.317 . S
O378 C379 1.232 . S
C379 O378 1.232 . S
C379 O380 1.218 . S
O380 C379 1.218 . S
C381 O374 1.275 . S
C381 O376 1.255 . S
C382 O383 1.258 . S
C382 O384 1.256 . S
O383 Cd375 2.381 . S
O383 C382 1.258 . S
O384 Cd375 2.378 . S
O384 C382 1.256 . S
O385 Cd386 2.300 . S
O385 C392 1.275 . S
Cd386 O385 2.300 . S
Cd386 O394 2.381 . S
Cd386 O395 2.378 . S
O387 Cd388 2.385 . S
O387 C392 1.255 . S
Cd388 O387 2.385 . S
Cd388 O389 2.317 . S
O389 Cd388 2.317 . S
O389 C390 1.232 . S
C390 O389 1.232 . S
C390 O391 1.218 . S
O391 C390 1.218 . S
C392 O385 1.275 . S
C392 O387 1.255 . S
C393 O394 1.258 . S
C393 O395 1.256 . S
O394 Cd386 2.381 . S
O394 C393 1.258 . S
O395 Cd386 2.378 . S
O395 C393 1.256 . S
O396 Cd397 2.300 . S
O396 C403 1.275 . S
Cd397 O396 2.300 . S
Cd397 O405 2.381 . S
Cd397 O406 2.378 . S
O398 Cd399 2.385 . S
O398 C403 1.255 . S
Cd399 O398 2.385 . S
Cd399 O400 2.317 . S
O400 Cd399 2.317 . S
O400 C401 1.232 . S
C401 O400 1.232 . S
C401 O402 1.218 . S
O402 C401 1.218 . S
C403 O396 1.275 . S
C403 O398 1.255 . S
C404 O405 1.258 . S
C404 O406 1.256 . S
O405 Cd397 2.381 . S
O405 C404 1.258 . S
O406 Cd397 2.378 . S
O406 C404 1.256 . S
O407 Cd408 2.300 . S
O407 C414 1.275 . S
Cd408 O407 2.300 . S
Cd408 O416 2.381 . S
Cd408 O417 2.378 . S
O409 Cd410 2.385 . S
O409 C414 1.255 . S
Cd410 O409 2.385 . S
Cd410 O411 2.317 . S
O411 Cd410 2.317 . S
O411 C412 1.232 . S
C412 O411 1.232 . S
C412 O413 1.218 . S
O413 C412 1.218 . S
C414 O407 1.275 . S
C414 O409 1.255 . S
C415 O416 1.258 . S
C415 O417 1.256 . S
O416 Cd408 2.381 . S
O416 C415 1.258 . S
O417 Cd408 2.378 . S
O417 C415 1.256 . S
O418 Cd419 2.300 . S
O418 C425 1.275 . S
Cd419 O418 2.300 . S
Cd419 O427 2.381 . S
Cd419 O428 2.378 . S
O420 Cd421 2.385 . S
O420 C425 1.255 . S
Cd421 O420 2.385 . S
Cd421 O422 2.317 . S
O422 Cd421 2.317 . S
O422 C423 1.232 . S
C423 O422 1.232 . S
C423 O424 1.218 . S
O424 C423 1.218 . S
C425 O418 1.275 . S
C425 O420 1.255 . S
C426 O427 1.258 . S
C426 O428 1.256 . S
O427 Cd419 2.381 . S
O427 C426 1.258 . S
O428 Cd419 2.378 . S
O428 C426 1.256 . S
O429 Cd430 2.300 . S
O429 C436 1.275 . S
Cd430 O429 2.300 . S
Cd430 O438 2.381 . S
Cd430 O439 2.378 . S
O431 Cd432 2.385 . S
O431 C436 1.255 . S
Cd432 O431 2.385 . S
Cd432 O433 2.317 . S
O433 Cd432 2.317 . S
O433 C434 1.232 1_556 S
C434 O433 1.232 1_554 S
C434 O435 1.218 . S
O435 C434 1.218 . S
C436 O429 1.275 . S
C436 O431 1.255 . S
C437 O438 1.258 . S
C437 O439 1.256 . S
O438 Cd430 2.381 . S
O438 C437 1.258 . S
O439 Cd430 2.378 . S
O439 C437 1.256 . S
O440 Cd441 2.300 . S
O440 C447 1.275 . S
Cd441 O440 2.300 . S
Cd441 O449 2.381 . S
Cd441 O450 2.378 . S
O442 Cd443 2.385 . S
O442 C447 1.255 . S
Cd443 O442 2.385 . S
Cd443 O444 2.317 . S
O444 Cd443 2.317 . S
O444 C445 1.232 . S
C445 O444 1.232 . S
C445 O446 1.218 . S
O446 C445 1.218 . S
C447 O440 1.275 . S
C447 O442 1.255 . S
C448 O449 1.258 . S
C448 O450 1.256 . S
O449 Cd441 2.381 . S
O449 C448 1.258 . S
O450 Cd441 2.378 . S
O450 C448 1.256 . S
O451 Cd452 2.300 . S
O451 C458 1.275 . S
Cd452 O451 2.300 . S
Cd452 O460 2.381 . S
Cd452 O461 2.378 . S
O453 Cd454 2.385 . S
O453 C458 1.255 . S
Cd454 O453 2.385 . S
Cd454 O455 2.317 . S
O455 Cd454 2.317 . S
O455 C456 1.232 . S
C456 O455 1.232 . S
C456 O457 1.218 . S
O457 C456 1.218 . S
C458 O451 1.275 . S
C458 O453 1.255 . S
C459 O460 1.258 . S
C459 O461 1.256 . S
O460 Cd452 2.381 . S
O460 C459 1.258 . S
O461 Cd452 2.378 . S
O461 C459 1.256 . S
O462 Cd463 2.300 . S
O462 C469 1.275 . S
Cd463 O462 2.300 . S
Cd463 O471 2.381 . S
Cd463 O472 2.378 . S
O464 Cd465 2.385 . S
O464 C469 1.255 . S
Cd465 O464 2.385 . S
Cd465 O466 2.317 . S
O466 Cd465 2.317 . S
O466 C467 1.232 . S
C467 O466 1.232 . S
C467 O468 1.218 . S
O468 C467 1.218 . S
C469 O462 1.275 . S
C469 O464 1.255 . S
C470 O471 1.258 . S
C470 O472 1.256 . S
O471 Cd463 2.381 . S
O471 C470 1.258 . S
O472 Cd463 2.378 . S
O472 C470 1.256 . S
O473 Cd474 2.300 . S
O473 C480 1.275 . S
Cd474 O473 2.300 . S
Cd474 O482 2.381 . S
Cd474 O483 2.378 . S
O475 Cd476 2.385 . S
O475 C480 1.255 . S
Cd476 O475 2.385 . S
Cd476 O477 2.317 . S
O477 Cd476 2.317 . S
O477 C478 1.232 . S
C478 O477 1.232 . S
C478 O479 1.218 . S
O479 C478 1.218 . S
C480 O473 1.275 . S
C480 O475 1.255 . S
C481 O482 1.258 . S
C481 O483 1.256 . S
O482 Cd474 2.381 . S
O482 C481 1.258 . S
O483 Cd474 2.378 . S
O483 C481 1.256 . S
O484 Cd485 2.300 . S
O484 C491 1.275 . S
Cd485 O484 2.300 . S
Cd485 O493 2.381 . S
Cd485 O494 2.378 . S
O486 Cd487 2.385 . S
O486 C491 1.255 . S
Cd487 O486 2.385 . S
Cd487 O488 2.317 . S
O488 Cd487 2.317 . S
O488 C489 1.232 . S
C489 O488 1.232 . S
C489 O490 1.218 . S
O490 C489 1.218 . S
C491 O484 1.275 . S
C491 O486 1.255 . S
C492 O493 1.258 . S
C492 O494 1.256 . S
O493 Cd485 2.381 . S
O493 C492 1.258 . S
O494 Cd485 2.378 . S
O494 C492 1.256 . S
O495 Cd496 2.300 . S
O495 C502 1.275 . S
Cd496 O495 2.300 . S
Cd496 O504 2.381 . S
Cd496 O505 2.378 . S
O497 Cd498 2.385 . S
O497 C502 1.255 . S
Cd498 O497 2.385 . S
Cd498 O499 2.317 . S
O499 Cd498 2.317 . S
O499 C500 1.232 . S
C500 O499 1.232 . S
C500 O501 1.218 . S
O501 C500 1.218 . S
C502 O495 1.275 . S
C502 O497 1.255 . S
C503 O504 1.258 . S
C503 O505 1.256 . S
O504 Cd496 2.381 . S
O504 C503 1.258 . S
O505 Cd496 2.378 . S
O505 C503 1.256 . S
O506 Cd507 2.300 . S
O506 C513 1.275 . S
Cd507 O506 2.300 . S
Cd507 O515 2.381 . S
Cd507 O516 2.378 . S
O508 Cd509 2.385 . S
O508 C513 1.255 . S
Cd509 O508 2.385 . S
Cd509 O510 2.317 . S
O510 Cd509 2.317 . S
O510 C511 1.232 . S
C511 O510 1.232 . S
C511 O512 1.218 . S
O512 C511 1.218 . S
C513 O506 1.275 . S
C513 O508 1.255 . S
C514 O515 1.258 . S
C514 O516 1.256 . S
O515 Cd507 2.381 . S
O515 C514 1.258 . S
O516 Cd507 2.378 . S
O516 C514 1.256 . S
O517 Cd518 2.300 . S
O517 C524 1.275 . S
Cd518 O517 2.300 . S
Cd518 O526 2.381 . S
Cd518 O527 2.378 . S
O519 Cd520 2.385 . S
O519 C524 1.255 . S
Cd520 O519 2.385 . S
Cd520 O521 2.317 . S
O521 Cd520 2.317 . S
O521 C522 1.232 . S
C522 O521 1.232 . S
C522 O523 1.218 . S
O523 C522 1.218 . S
C524 O517 1.275 . S
C524 O519 1.255 . S
C525 O526 1.258 . S
C525 O527 1.256 . S
O526 Cd518 2.381 . S
O526 C525 1.258 . S
O527 Cd518 2.378 . S
O527 C525 1.256 . S
O528 Cd529 2.300 . S
O528 C535 1.275 . S
Cd529 O528 2.300 . S
Cd529 O537 2.381 . S
Cd529 O538 2.378 . S
O530 Cd531 2.385 . S
O530 C535 1.255 . S
Cd531 O530 2.385 . S
Cd531 O532 2.317 . S
O532 Cd531 2.317 . S
O532 C533 1.232 . S
C533 O532 1.232 . S
C533 O534 1.218 . S
O534 C533 1.218 . S
C535 O528 1.275 . S
C535 O530 1.255 . S
C536 O537 1.258 . S
C536 O538 1.256 . S
O537 Cd529 2.381 . S
O537 C536 1.258 . S
O538 Cd529 2.378 . S
O538 C536 1.256 . S
O539 Cd540 2.300 . S
O539 C546 1.275 . S
Cd540 O539 2.300 . S
Cd540 O548 2.381 . S
Cd540 O549 2.378 . S
O541 Cd542 2.385 . S
O541 C546 1.255 . S
Cd542 O541 2.385 . S
Cd542 O543 2.317 . S
O543 Cd542 2.317 . S
O543 C544 1.232 . S
C544 O543 1.232 . S
C544 O545 1.218 . S
O545 C544 1.218 . S
C546 O539 1.275 . S
C546 O541 1.255 . S
C547 O548 1.258 . S
C547 O549 1.256 . S
O548 Cd540 2.381 . S
O548 C547 1.258 . S
O549 Cd540 2.378 . S
O549 C547 1.256 . S
O550 Cd551 2.300 . S
O550 C557 1.275 . S
Cd551 O550 2.300 . S
Cd551 O559 2.381 . S
Cd551 O560 2.378 . S
O552 Cd553 2.385 . S
O552 C557 1.255 . S
Cd553 O552 2.385 . S
Cd553 O554 2.317 . S
O554 Cd553 2.317 . S
O554 C555 1.232 . S
C555 O554 1.232 . S
C555 O556 1.218 . S
O556 C555 1.218 . S
C557 O550 1.275 . S
C557 O552 1.255 . S
C558 O559 1.258 . S
C558 O560 1.256 . S
O559 Cd551 2.381 . S
O559 C558 1.258 . S
O560 Cd551 2.378 . S
O560 C558 1.256 . S
O561 Cd562 2.300 . S
O561 C568 1.275 . S
Cd562 O561 2.300 . S
Cd562 O570 2.381 . S
Cd562 O571 2.378 . S
O563 Cd564 2.385 . S
O563 C568 1.255 . S
Cd564 O563 2.385 . S
Cd564 O565 2.317 . S
O565 Cd564 2.317 . S
O565 C566 1.232 . S
C566 O565 1.232 . S
C566 O567 1.218 1_655 S
O567 C566 1.218 1_455 S
C568 O561 1.275 . S
C568 O563 1.255 . S
C569 O570 1.258 . S
C569 O571 1.256 . S
O570 Cd562 2.381 . S
O570 C569 1.258 . S
O571 Cd562 2.378 . S
O571 C569 1.256 . S
O572 Cd573 2.300 . S
O572 C579 1.275 . S
Cd573 O572 2.300 . S
Cd573 O581 2.381 . S
Cd573 O582 2.378 . S
O574 Cd575 2.385 . S
O574 C579 1.255 . S
Cd575 O574 2.385 . S
Cd575 O576 2.317 . S
O576 Cd575 2.317 . S
O576 C577 1.232 . S
C577 O576 1.232 . S
C577 O578 1.218 . S
O578 C577 1.218 . S
C579 O572 1.275 . S
C579 O574 1.255 . S
C580 O581 1.258 . S
C580 O582 1.256 . S
O581 Cd573 2.381 . S
O581 C580 1.258 . S
O582 Cd573 2.378 . S
O582 C580 1.256 . S
O583 Cd584 2.300 . S
O583 C590 1.275 . S
Cd584 O583 2.300 . S
Cd584 O592 2.381 . S
Cd584 O593 2.378 . S
O585 Cd586 2.385 . S
O585 C590 1.255 . S
Cd586 O585 2.385 . S
Cd586 O587 2.317 . S
O587 Cd586 2.317 . S
O587 C588 1.232 . S
C588 O587 1.232 . S
C588 O589 1.218 1_655 S
O589 C588 1.218 1_455 S
C590 O583 1.275 . S
C590 O585 1.255 . S
C591 O592 1.258 . S
C591 O593 1.256 . S
O592 Cd584 2.381 . S
O592 C591 1.258 . S
O593 Cd584 2.378 . S
O593 C591 1.256 . S
O594 Cd595 2.300 . S
O594 C601 1.275 . S
Cd595 O594 2.300 . S
Cd595 O603 2.381 . S
Cd595 O604 2.378 . S
O596 Cd597 2.385 . S
O596 C601 1.255 . S
Cd597 O596 2.385 . S
Cd597 O598 2.317 . S
O598 Cd597 2.317 . S
O598 C599 1.232 . S
C599 O598 1.232 . S
C599 O600 1.218 . S
O600 C599 1.218 . S
C601 O594 1.275 . S
C601 O596 1.255 . S
C602 O603 1.258 . S
C602 O604 1.256 . S
O603 Cd595 2.381 . S
O603 C602 1.258 . S
O604 Cd595 2.378 . S
O604 C602 1.256 . S
O605 Cd606 2.300 . S
O605 C612 1.275 . S
Cd606 O605 2.300 . S
Cd606 O614 2.381 . S
Cd606 O615 2.378 . S
O607 Cd608 2.385 . S
O607 C612 1.255 . S
Cd608 O607 2.385 . S
Cd608 O609 2.317 . S
O609 Cd608 2.317 . S
O609 C610 1.232 . S
C610 O609 1.232 . S
C610 O611 1.218 . S
O611 C610 1.218 . S
C612 O605 1.275 . S
C612 O607 1.255 . S
C613 O614 1.258 . S
C613 O615 1.256 . S
O614 Cd606 2.381 . S
O614 C613 1.258 . S
O615 Cd606 2.378 . S
O615 C613 1.256 . S
O616 Cd617 2.300 . S
O616 C623 1.275 . S
Cd617 O616 2.300 . S
Cd617 O625 2.381 . S
Cd617 O626 2.378 . S
O618 Cd619 2.385 . S
O618 C623 1.255 . S
Cd619 O618 2.385 . S
Cd619 O620 2.317 . S
O620 Cd619 2.317 . S
O620 C621 1.232 . S
C621 O620 1.232 . S
C621 O622 1.218 . S
O622 C621 1.218 . S
C623 O616 1.275 . S
C623 O618 1.255 . S
C624 O625 1.258 . S
C624 O626 1.256 . S
O625 Cd617 2.381 . S
O625 C624 1.258 . S
O626 Cd617 2.378 . S
O626 C624 1.256 . S
O627 Cd628 2.300 . S
O627 C634 1.275 . S
Cd628 O627 2.300 . S
Cd628 O636 2.381 . S
Cd628 O637 2.378 . S
O629 Cd630 2.385 . S
O629 C634 1.255 . S
Cd630 O629 2.385 . S
Cd630 O631 2.317 . S
O631 Cd630 2.317 . S
O631 C632 1.232 . S
C632 O631 1.232 . S
C632 O633 1.218 . S
O633 C632 1.218 . S
C634 O627 1.275 . S
C634 O629 1.255 . S
C635 O636 1.258 . S
C635 O637 1.256 . S
O636 Cd628 2.381 . S
O636 C635 1.258 . S
O637 Cd628 2.378 . S
O637 C635 1.256 . S
O638 Cd639 2.300 . S
O638 C645 1.275 . S
Cd639 O638 2.300 . S
Cd639 O647 2.381 . S
Cd639 O648 2.378 . S
O640 Cd641 2.385 . S
O640 C645 1.255 . S
Cd641 O640 2.385 . S
Cd641 O642 2.317 . S
O642 Cd641 2.317 . S
O642 C643 1.232 . S
C643 O642 1.232 . S
C643 O644 1.218 . S
O644 C643 1.218 . S
C645 O638 1.275 . S
C645 O640 1.255 . S
C646 O647 1.258 . S
C646 O648 1.256 . S
O647 Cd639 2.381 . S
O647 C646 1.258 . S
O648 Cd639 2.378 . S
O648 C646 1.256 . S
O649 Cd650 2.300 . S
O649 C656 1.275 . S
Cd650 O649 2.300 . S
Cd650 O658 2.381 . S
Cd650 O659 2.378 . S
O651 Cd652 2.385 . S
O651 C656 1.255 . S
Cd652 O651 2.385 . S
Cd652 O653 2.317 . S
O653 Cd652 2.317 . S
O653 C654 1.232 . S
C654 O653 1.232 . S
C654 O655 1.218 . S
O655 C654 1.218 . S
C656 O649 1.275 . S
C656 O651 1.255 . S
C657 O658 1.258 . S
C657 O659 1.256 . S
O658 Cd650 2.381 . S
O658 C657 1.258 . S
O659 Cd650 2.378 . S
O659 C657 1.256 . S
O660 Cd661 2.300 . S
O660 C667 1.275 . S
Cd661 O660 2.300 . S
Cd661 O669 2.381 . S
Cd661 O670 2.378 . S
O662 Cd663 2.385 . S
O662 C667 1.255 . S
Cd663 O662 2.385 . S
Cd663 O664 2.317 . S
O664 Cd663 2.317 . S
O664 C665 1.232 . S
C665 O664 1.232 . S
C665 O666 1.218 . S
O666 C665 1.218 . S
C667 O660 1.275 . S
C667 O662 1.255 . S
C668 O669 1.258 . S
C668 O670 1.256 . S
O669 Cd661 2.381 . S
O669 C668 1.258 . S
O670 Cd661 2.378 . S
O670 C668 1.256 . S
O671 Cd672 2.300 . S
O671 C678 1.275 . S
Cd672 O671 2.300 . S
Cd672 O680 2.381 . S
Cd672 O681 2.378 . S
O673 Cd674 2.385 . S
O673 C678 1.255 . S
Cd674 O673 2.385 . S
Cd674 O675 2.317 . S
O675 Cd674 2.317 . S
O675 C676 1.218 1_554 S
C676 O675 1.218 1_556 S
C676 O677 1.227 . S
O677 C676 1.227 . S
C678 O671 1.275 . S
C678 O673 1.255 . S
C679 O680 1.258 . S
C679 O681 1.256 . S
O680 Cd672 2.381 . S
O680 C679 1.258 . S
O681 Cd672 2.378 . S
O681 C679 1.256 . S
O682 Cd683 2.300 . S
O682 C689 1.275 . S
Cd683 O682 2.300 . S
Cd683 O691 2.381 . S
Cd683 O692 2.378 . S
O684 Cd685 2.385 . S
O684 C689 1.255 . S
Cd685 O684 2.385 . S
Cd685 O686 2.317 . S
O686 Cd685 2.317 . S
O686 C687 1.232 . S
C687 O686 1.232 . S
C687 O688 1.218 . S
O688 C687 1.218 . S
C689 O682 1.275 . S
C689 O684 1.255 . S
C690 O691 1.258 . S
C690 O692 1.256 . S
O691 Cd683 2.381 . S
O691 C690 1.258 . S
O692 Cd683 2.378 . S
O692 C690 1.256 . S
O693 Cd694 2.300 . S
O693 C700 1.275 . S
Cd694 O693 2.300 . S
Cd694 O702 2.381 . S
Cd694 O703 2.378 . S
O695 Cd696 2.385 . S
O695 C700 1.255 . S
Cd696 O695 2.385 . S
Cd696 O697 2.317 . S
O697 Cd696 2.317 . S
O697 C698 1.232 . S
C698 O697 1.232 . S
C698 O699 1.218 . S
O699 C698 1.218 . S
C700 O693 1.275 . S
C700 O695 1.255 . S
C701 O702 1.258 . S
C701 O703 1.256 . S
O702 Cd694 2.381 . S
O702 C701 1.258 . S
O703 Cd694 2.378 . S
O703 C701 1.256 . S
O704 Cd705 2.300 . S
O704 C711 1.275 . S
Cd705 O704 2.300 . S
Cd705 O713 2.381 . S
Cd705 O714 2.378 . S
O706 Cd707 2.385 . S
O706 C711 1.255 . S
Cd707 O706 2.385 . S
Cd707 O708 2.317 . S
O708 Cd707 2.317 . S
O708 C709 1.232 . S
C709 O708 1.232 . S
C709 O710 1.218 . S
O710 C709 1.218 . S
C711 O704 1.275 . S
C711 O706 1.255 . S
C712 O713 1.258 . S
C712 O714 1.256 . S
O713 Cd705 2.381 . S
O713 C712 1.258 . S
O714 Cd705 2.378 . S
O714 C712 1.256 . S
O715 Cd716 2.300 . S
O715 C722 1.275 . S
Cd716 O715 2.300 . S
Cd716 O724 2.381 . S
Cd716 O725 2.378 . S
O717 Cd718 2.385 . S
O717 C722 1.255 . S
Cd718 O717 2.385 . S
Cd718 O719 2.317 . S
O719 Cd718 2.317 . S
O719 C720 1.232 . S
C720 O719 1.232 . S
C720 O721 1.218 . S
O721 C720 1.218 . S
C722 O715 1.275 . S
C722 O717 1.255 . S
C723 O724 1.258 . S
C723 O725 1.256 . S
O724 Cd716 2.381 . S
O724 C723 1.258 . S
O725 Cd716 2.378 . S
O725 C723 1.256 . S
O726 Cd727 2.300 . S
O726 C733 1.275 . S
Cd727 O726 2.300 . S
Cd727 O735 2.381 . S
Cd727 O736 2.378 . S
O728 Cd729 2.385 1_565 S
O728 C733 1.255 . S
Cd729 O728 2.385 1_545 S
Cd729 O730 2.317 . S
O730 Cd729 2.317 . S
O730 C731 1.232 . S
C731 O730 1.232 . S
C731 O732 1.218 . S
O732 C731 1.218 . S
C733 O726 1.275 . S
C733 O728 1.255 . S
C734 O735 1.258 . S
C734 O736 1.256 . S
O735 Cd727 2.381 . S
O735 C734 1.258 . S
O736 Cd727 2.378 . S
O736 C734 1.256 . S
O737 Cd738 2.300 . S
O737 C744 1.275 . S
Cd738 O737 2.300 . S
Cd738 O746 2.381 . S
Cd738 O747 2.378 . S
O739 Cd740 2.385 . S
O739 C744 1.255 . S
Cd740 O739 2.385 . S
Cd740 O741 2.317 . S
O741 Cd740 2.317 . S
O741 C742 1.232 . S
C742 O741 1.232 . S
C742 O743 1.218 . S
O743 C742 1.218 . S
C744 O737 1.275 . S
C744 O739 1.255 . S
C745 O746 1.258 . S
C745 O747 1.256 . S
O746 Cd738 2.381 . S
O746 C745 1.258 . S
O747 Cd738 2.378 . S
O747 C745 1.256 . S
O748 Cd749 2.300 . S
O748 C755 1.275 . S
Cd749 O748 2.300 . S
Cd749 O757 2.381 . S
Cd749 O758 2.378 . S
O750 Cd751 2.385 . S
O750 C755 1.255 . S
Cd751 O750 2.385 . S
Cd751 O752 2.317 . S
O752 Cd751 2.317 . S
O752 C753 1.232 . S
C753 O752 1.232 . S
C753 O754 1.218 . S
O754 C753 1.218 . S
C755 O748 1.275 . S
C755 O750 1.255 . S
C756 O757 1.258 . S
C756 O758 1.256 . S
O757 Cd749 2.381 . S
O757 C756 1.258 . S
O758 Cd749 2.378 . S
O758 C756 1.256 . S
O759 Cd760 2.300 . S
O759 C766 1.275 . S
Cd760 O759 2.300 . S
Cd760 O768 2.381 . S
Cd760 O769 2.378 . S
O761 Cd762 2.385 . S
O761 C766 1.255 . S
Cd762 O761 2.385 . S
Cd762 O763 2.317 . S
O763 Cd762 2.317 . S
O763 C764 1.232 . S
C764 O763 1.232 . S
C764 O765 1.218 . S
O765 C764 1.218 . S
C766 O759 1.275 . S
C766 O761 1.255 . S
C767 O768 1.258 . S
C767 O769 1.256 . S
O768 Cd760 2.381 . S
O768 C767 1.258 . S
O769 Cd760 2.378 . S
O769 C767 1.256 . S
O770 Cd771 2.300 . S
O770 C777 1.275 1_556 S
Cd771 O770 2.300 . S
Cd771 O779 2.381 . S
Cd771 O780 2.378 . S
O772 Cd773 2.385 1_545 S
O772 C777 1.255 1_556 S
Cd773 O772 2.385 1_565 S
Cd773 O774 2.317 . S
O774 Cd773 2.317 . S
O774 C775 1.232 . S
C775 O774 1.232 . S
C775 O776 1.218 . S
O776 C775 1.218 . S
C777 O770 1.275 1_554 S
C777 O772 1.255 1_554 S
C778 O779 1.258 . S
C778 O780 1.256 . S
O779 Cd771 2.381 . S
O779 C778 1.258 . S
O780 Cd771 2.378 . S
O780 C778 1.256 . S
O781 Cd782 2.300 . S
O781 C788 1.275 . S
Cd782 O781 2.300 . S
Cd782 O790 2.381 . S
Cd782 O791 2.378 . S
O783 Cd784 2.385 . S
O783 C788 1.255 . S
Cd784 O783 2.385 . S
Cd784 O785 2.317 . S
O785 Cd784 2.317 . S
O785 C786 1.232 . S
C786 O785 1.232 . S
C786 O787 1.218 1_565 S
O787 C786 1.218 1_545 S
C788 O781 1.275 . S
C788 O783 1.255 . S
C789 O790 1.258 . S
C789 O791 1.256 . S
O790 Cd782 2.381 . S
O790 C789 1.258 . S
O791 Cd782 2.378 . S
O791 C789 1.256 . S
O792 Cd793 2.300 . S
O792 C799 1.275 . S
Cd793 O792 2.300 . S
Cd793 O801 2.381 . S
Cd793 O802 2.378 . S
O794 Cd795 2.385 . S
O794 C799 1.255 . S
Cd795 O794 2.385 . S
Cd795 O796 2.317 . S
O796 Cd795 2.317 . S
O796 C797 1.232 . S
C797 O796 1.232 . S
C797 O798 1.218 . S
O798 C797 1.218 . S
C799 O792 1.275 . S
C799 O794 1.255 . S
C800 O801 1.258 . S
C800 O802 1.256 . S
O801 Cd793 2.381 . S
O801 C800 1.258 . S
O802 Cd793 2.378 . S
O802 C800 1.256 . S
O803 Cd804 2.300 . S
O803 C810 1.275 . S
Cd804 O803 2.300 . S
Cd804 O812 2.381 . S
Cd804 O813 2.378 . S
O805 Cd806 2.385 . S
O805 C810 1.255 . S
Cd806 O805 2.385 . S
Cd806 O807 2.317 . S
O807 Cd806 2.317 . S
O807 C808 1.232 . S
C808 O807 1.232 . S
C808 O809 1.218 . S
O809 C808 1.218 . S
C810 O803 1.275 . S
C810 O805 1.255 . S
C811 O812 1.258 . S
C811 O813 1.256 . S
O812 Cd804 2.381 . S
O812 C811 1.258 . S
O813 Cd804 2.378 . S
O813 C811 1.256 . S
O814 Cd815 2.300 . S
O814 C821 1.275 . S
Cd815 O814 2.300 . S
Cd815 O823 2.381 . S
Cd815 O824 2.378 . S
O816 Cd817 2.385 . S
O816 C821 1.255 . S
Cd817 O816 2.385 . S
Cd817 O818 2.317 . S
O818 Cd817 2.317 . S
O818 C819 1.232 . S
C819 O818 1.232 . S
C819 O820 1.218 . S
O820 C819 1.218 . S
C821 O814 1.275 . S
C821 O816 1.255 . S
C822 O823 1.258 . S
C822 O824 1.256 . S
O823 Cd815 2.381 . S
O823 C822 1.258 . S
O824 Cd815 2.378 . S
O824 C822 1.256 . S
O825 Cd826 2.300 . S
O825 C832 1.275 . S
Cd826 O825 2.300 . S
Cd826 O834 2.381 . S
Cd826 O835 2.378 . S
O827 Cd828 2.385 . S
O827 C832 1.255 . S
Cd828 O827 2.385 . S
Cd828 O829 2.317 . S
O829 Cd828 2.317 . S
O829 C830 1.232 . S
C830 O829 1.232 . S
C830 O831 1.220 . S
O831 C830 1.220 . S
C832 O825 1.275 . S
C832 O827 1.255 . S
C833 O834 1.258 . S
C833 O835 1.256 . S
O834 Cd826 2.381 . S
O834 C833 1.258 . S
O835 Cd826 2.378 . S
O835 C833 1.256 . S
O836 Cd837 2.300 . S
O836 C843 1.275 . S
Cd837 O836 2.300 . S
Cd837 O845 2.381 . S
Cd837 O846 2.378 . S
O838 Cd839 2.385 . S
O838 C843 1.255 . S
Cd839 O838 2.385 . S
Cd839 O840 2.317 . S
O840 Cd839 2.317 . S
O840 C841 1.232 . S
C841 O840 1.232 . S
C841 O842 1.218 . S
O842 C841 1.218 . S
C843 O836 1.275 . S
C843 O838 1.255 . S
C844 O845 1.258 . S
C844 O846 1.256 . S
O845 Cd837 2.381 . S
O845 C844 1.258 . S
O846 Cd837 2.378 . S
O846 C844 1.256 . S
O847 Cd848 2.300 . S
O847 C854 1.275 . S
Cd848 O847 2.300 . S
Cd848 O856 2.381 . S
Cd848 O857 2.378 . S
O849 Cd850 2.385 . S
O849 C854 1.255 . S
Cd850 O849 2.385 . S
Cd850 O851 2.317 . S
O851 Cd850 2.317 . S
O851 C852 1.232 . S
C852 O851 1.232 . S
C852 O853 1.220 . S
O853 C852 1.220 . S
C854 O847 1.275 . S
C854 O849 1.255 . S
C855 O856 1.258 . S
C855 O857 1.256 . S
O856 Cd848 2.381 . S
O856 C855 1.258 . S
O857 Cd848 2.378 . S
O857 C855 1.256 . S
O858 Cd859 2.300 . S
O858 C865 1.275 . S
Cd859 O858 2.300 . S
Cd859 O867 2.381 . S
Cd859 O868 2.378 . S
O860 Cd861 2.385 . S
O860 C865 1.255 . S
Cd861 O860 2.385 . S
Cd861 O862 2.317 . S
O862 Cd861 2.317 . S
O862 C863 1.232 . S
C863 O862 1.232 . S
C863 O864 1.218 . S
O864 C863 1.218 . S
C865 O858 1.275 . S
C865 O860 1.255 . S
C866 O867 1.258 . S
C866 O868 1.256 . S
O867 Cd859 2.381 . S
O867 C866 1.258 . S
O868 Cd859 2.378 . S
O868 C866 1.256 . S
O869 Cd870 2.300 . S
O869 C876 1.275 . S
Cd870 O869 2.300 . S
Cd870 O878 2.381 . S
Cd870 O879 2.378 . S
O871 Cd872 2.385 . S
O871 C876 1.255 . S
Cd872 O871 2.385 . S
Cd872 O873 2.317 . S
O873 Cd872 2.317 . S
O873 C874 1.232 . S
C874 O873 1.232 . S
C874 O875 1.218 . S
O875 C874 1.218 . S
C876 O869 1.275 . S
C876 O871 1.255 . S
C877 O878 1.258 . S
C877 O879 1.256 . S
O878 Cd870 2.381 . S
O878 C877 1.258 . S
O879 Cd870 2.378 . S
O879 C877 1.256 . S
O880 Cd881 2.300 . S
O880 C887 1.275 . S
Cd881 O880 2.300 . S
Cd881 O889 2.381 . S
Cd881 O890 2.378 . S
O882 Cd883 2.385 . S
O882 C887 1.255 . S
Cd883 O882 2.385 . S
Cd883 O884 2.317 . S
O884 Cd883 2.317 . S
O884 C885 1.232 . S
C885 O884 1.232 . S
C885 O886 1.218 . S
O886 C885 1.218 . S
C887 O880 1.275 . S
C887 O882 1.255 . S
C888 O889 1.258 . S
C888 O890 1.256 . S
O889 Cd881 2.381 . S
O889 C888 1.258 . S
O890 Cd881 2.378 . S
O890 C888 1.256 . S
O891 Cd892 2.300 . S
O891 C898 1.275 . S
Cd892 O891 2.300 . S
Cd892 O900 2.381 . S
Cd892 O901 2.378 . S
O893 Cd894 2.385 . S
O893 C898 1.255 . S
Cd894 O893 2.385 . S
Cd894 O895 2.317 . S
O895 Cd894 2.317 . S
O895 C896 1.232 1_554 S
C896 O895 1.232 1_556 S
C896 O897 1.218 . S
O897 C896 1.218 . S
C898 O891 1.275 . S
C898 O893 1.255 . S
C899 O900 1.258 . S
C899 O901 1.256 . S
O900 Cd892 2.381 . S
O900 C899 1.258 . S
O901 Cd892 2.378 . S
O901 C899 1.256 . S
O902 Cd903 2.300 . S
O902 C909 1.275 . S
Cd903 O902 2.300 . S
Cd903 O911 2.381 . S
Cd903 O912 2.378 . S
O904 Cd905 2.385 . S
O904 C909 1.255 . S
Cd905 O904 2.385 . S
Cd905 O906 2.317 . S
O906 Cd905 2.317 . S
O906 C907 1.232 . S
C907 O906 1.232 . S
C907 O908 1.218 . S
O908 C907 1.218 . S
C909 O902 1.275 . S
C909 O904 1.255 . S
C910 O911 1.258 . S
C910 O912 1.256 . S
O911 Cd903 2.381 . S
O911 C910 1.258 . S
O912 Cd903 2.378 . S
O912 C910 1.256 . S
O913 Cd914 2.300 . S
O913 C920 1.275 . S
Cd914 O913 2.300 . S
Cd914 O922 2.381 . S
Cd914 O923 2.378 . S
O915 Cd916 2.385 . S
O915 C920 1.255 . S
Cd916 O915 2.385 . S
Cd916 O917 2.317 . S
O917 Cd916 2.317 . S
O917 C918 1.232 . S
C918 O917 1.232 . S
C918 O919 1.218 . S
O919 C918 1.218 . S
C920 O913 1.275 . S
C920 O915 1.255 . S
C921 O922 1.258 . S
C921 O923 1.256 . S
O922 Cd914 2.381 . S
O922 C921 1.258 . S
O923 Cd914 2.378 . S
O923 C921 1.256 . S
O924 Cd925 2.300 . S
O924 C931 1.275 . S
Cd925 O924 2.300 . S
Cd925 O933 2.381 . S
Cd925 O934 2.378 . S
O926 Cd927 2.385 . S
O926 C931 1.255 . S
Cd927 O926 2.385 . S
Cd927 O928 2.317 . S
O928 Cd927 2.317 . S
O928 C929 1.232 . S
C929 O928 1.232 . S
C929 O930 1.218 . S
O930 C929 1.218 . S
C931 O924 1.275 . S
C931 O926 1.255 . S
C932 O933 1.258 . S
C932 O934 1.256 . S
O933 Cd925 2.381 . S
O933 C932 1.258 . S
O934 Cd925 2.378 . S
O934 C932 1.256 . S
O935 Cd936 2.300 . S
O935 C942 1.275 . S
Cd936 O935 2.300 . S
Cd936 O944 2.381 . S
Cd936 O945 2.378 . S
O937 Cd938 2.385 . S
O937 C942 1.255 . S
Cd938 O937 2.385 . S
Cd938 O939 2.317 . S
O939 Cd938 2.317 . S
O939 C940 1.232 . S
C940 O939 1.232 . S
C940 O941 1.218 . S
O941 C940 1.218 . S
C942 O935 1.275 . S
C942 O937 1.255 . S
C943 O944 1.258 . S
C943 O945 1.256 . S
O944 Cd936 2.381 . S
O944 C943 1.258 . S
O945 Cd936 2.378 . S
O945 C943 1.256 . S
O946 Cd947 2.300 . S
O946 C953 1.275 . S
Cd947 O946 2.300 . S
Cd947 O955 2.381 . S
Cd947 O956 2.378 . S
O948 Cd949 2.385 . S
O948 C953 1.255 . S
Cd949 O948 2.385 . S
Cd949 O950 2.317 . S
O950 Cd949 2.317 . S
O950 C951 1.232 . S
C951 O950 1.232 . S
C951 O952 1.218 . S
O952 C951 1.218 . S
C953 O946 1.275 . S
C953 O948 1.255 . S
C954 O955 1.258 . S
C954 O956 1.256 . S
O955 Cd947 2.381 . S
O955 C954 1.258 . S
O956 Cd947 2.378 . S
O956 C954 1.256 . S
O957 Cd958 2.300 . S
O957 C964 1.275 . S
Cd958 O957 2.300 . S
Cd958 O966 2.381 . S
Cd958 O967 2.378 . S
O959 Cd960 2.385 . S
O959 C964 1.255 . S
Cd960 O959 2.385 . S
Cd960 O961 2.317 . S
O961 Cd960 2.317 . S
O961 C962 1.232 . S
C962 O961 1.232 . S
C962 O963 1.218 . S
O963 C962 1.218 . S
C964 O957 1.275 . S
C964 O959 1.255 . S
C965 O966 1.258 . S
C965 O967 1.256 . S
O966 Cd958 2.381 . S
O966 C965 1.258 . S
O967 Cd958 2.378 . S
O967 C965 1.256 . S
O968 Cd969 2.300 . S
O968 C975 1.275 . S
Cd969 O968 2.300 . S
Cd969 O977 2.381 . S
Cd969 O978 2.378 . S
O970 Cd971 2.385 . S
O970 C975 1.255 . S
Cd971 O970 2.385 . S
Cd971 O972 2.317 . S
O972 Cd971 2.317 . S
O972 C973 1.232 . S
C973 O972 1.232 . S
C973 O974 1.218 . S
O974 C973 1.218 . S
C975 O968 1.275 . S
C975 O970 1.255 . S
C976 O977 1.258 . S
C976 O978 1.256 . S
O977 Cd969 2.381 . S
O977 C976 1.258 . S
O978 Cd969 2.378 . S
O978 C976 1.256 . S
O979 Cd980 2.300 . S
O979 C986 1.275 . S
Cd980 O979 2.300 . S
Cd980 O988 2.381 . S
Cd980 O989 2.378 . S
O981 Cd982 2.385 . S
O981 C986 1.255 . S
Cd982 O981 2.385 . S
Cd982 O983 2.317 . S
O983 Cd982 2.317 . S
O983 C984 1.232 . S
C984 O983 1.232 . S
C984 O985 1.218 . S
O985 C984 1.218 . S
C986 O979 1.275 . S
C986 O981 1.255 . S
C987 O988 1.258 . S
C987 O989 1.256 . S
O988 Cd980 2.381 . S
O988 C987 1.258 . S
O989 Cd980 2.378 . S
O989 C987 1.256 . S
O990 Cd991 2.300 . S
O990 C997 1.275 . S
Cd991 O990 2.300 . S
Cd991 O999 2.381 . S
Cd991 O1000 2.378 . S
O992 Cd993 2.385 . S
O992 C997 1.255 . S
Cd993 O992 2.385 . S
Cd993 O994 2.317 . S
O994 Cd993 2.317 . S
O994 C995 1.232 . S
C995 O994 1.232 . S
C995 O996 1.218 . S
O996 C995 1.218 . S
C997 O990 1.275 . S
C997 O992 1.255 . S
C998 O999 1.258 . S
C998 O1000 1.256 . S
O999 Cd991 2.381 . S
O999 C998 1.258 . S
O1000 Cd991 2.378 . S
O1000 C998 1.256 . S
O1001 Cd1002 2.300 . S
O1001 C1008 1.275 . S
Cd1002 O1001 2.300 . S
Cd1002 O1010 2.381 . S
Cd1002 O1011 2.378 . S
O1003 Cd1004 2.385 . S
O1003 C1008 1.255 . S
Cd1004 O1003 2.385 . S
Cd1004 O1005 2.317 . S
O1005 Cd1004 2.317 . S
O1005 C1006 1.232 . S
C1006 O1005 1.232 . S
C1006 O1007 1.218 . S
O1007 C1006 1.218 . S
C1008 O1001 1.275 . S
C1008 O1003 1.255 . S
C1009 O1010 1.258 . S
C1009 O1011 1.256 . S
O1010 Cd1002 2.381 . S
O1010 C1009 1.258 . S
O1011 Cd1002 2.378 . S
O1011 C1009 1.256 . S
O1012 Cd1013 2.300 . S
O1012 C1019 1.275 . S
Cd1013 O1012 2.300 . S
Cd1013 O1021 2.381 . S
Cd1013 O1022 2.378 . S
O1014 Cd1015 2.385 . S
O1014 C1019 1.255 . S
Cd1015 O1014 2.385 . S
Cd1015 O1016 2.317 . S
O1016 Cd1015 2.317 . S
O1016 C1017 1.232 . S
C1017 O1016 1.232 . S
C1017 O1018 1.218 . S
O1018 C1017 1.218 . S
C1019 O1012 1.275 . S
C1019 O1014 1.255 . S
C1020 O1021 1.258 . S
C1020 O1022 1.256 . S
O1021 Cd1013 2.381 . S
O1021 C1020 1.258 . S
O1022 Cd1013 2.378 . S
O1022 C1020 1.256 . S
O1023 Cd1024 2.300 . S
O1023 C1030 1.275 . S
Cd1024 O1023 2.300 . S
Cd1024 O1032 2.381 . S
Cd1024 O1033 2.378 . S
O1025 Cd1026 2.385 . S
O1025 C1030 1.255 . S
Cd1026 O1025 2.385 . S
Cd1026 O1027 2.317 . S
O1027 Cd1026 2.317 . S
O1027 C1028 1.232 . S
C1028 O1027 1.232 . S
C1028 O1029 1.218 . S
O1029 C1028 1.218 . S
C1030 O1023 1.275 . S
C1030 O1025 1.255 . S
C1031 O1032 1.258 . S
C1031 O1033 1.256 . S
O1032 Cd1024 2.381 . S
O1032 C1031 1.258 . S
O1033 Cd1024 2.378 . S
O1033 C1031 1.256 . S
O1034 Cd1035 2.300 . S
O1034 C1041 1.275 . S
Cd1035 O1034 2.300 . S
Cd1035 O1043 2.381 . S
Cd1035 O1044 2.378 . S
O1036 Cd1037 2.385 . S
O1036 C1041 1.255 . S
Cd1037 O1036 2.385 . S
Cd1037 O1038 2.317 . S
O1038 Cd1037 2.317 . S
O1038 C1039 1.232 . S
C1039 O1038 1.232 . S
C1039 O1040 1.218 . S
O1040 C1039 1.218 . S
C1041 O1034 1.275 . S
C1041 O1036 1.255 . S
C1042 O1043 1.258 . S
C1042 O1044 1.256 . S
O1043 Cd1035 2.381 . S
O1043 C1042 1.258 . S
O1044 Cd1035 2.378 . S
O1044 C1042 1.256 . S
O1045 Cd1046 2.300 . S
O1045 C1052 1.275 . S
Cd1046 O1045 2.300 . S
Cd1046 O1054 2.381 . S
Cd1046 O1055 2.378 . S
O1047 Cd1048 2.385 . S
O1047 C1052 1.255 . S
Cd1048 O1047 2.385 . S
Cd1048 O1049 2.317 . S
O1049 Cd1048 2.317 . S
O1049 C1050 1.232 . S
C1050 O1049 1.232 . S
C1050 O1051 1.218 . S
O1051 C1050 1.218 . S
C1052 O1045 1.275 . S
C1052 O1047 1.255 . S
C1053 O1054 1.258 . S
C1053 O1055 1.256 . S
O1054 Cd1046 2.381 . S
O1054 C1053 1.258 . S
O1055 Cd1046 2.378 . S
O1055 C1053 1.256 . S
C5 C887 1.455 . S
C16 C370 1.225 . S
C909 C29 2.090 . S
C390 C38 0.987 . S
C49 C931 1.455 . S
C60 C412 0.986 . S
C953 C73 2.090 . S
C436 C82 1.225 . S
C93 C975 1.450 . S
C106 C1052 2.095 . S
C117 C1028 1.796 . S
C126 C1039 0.779 . S
C458 C137 1.449 . S
C148 C995 0.759 . S
C478 C161 1.796 . S
C491 C172 2.095 1_556 S
C797 C183 1.640 . S
C313 C194 1.640 . S
C854 C203 1.453 . S
C214 C337 1.777 . S
C346 C225 1.080 1_565 S
C236 C821 1.777 . S
C832 C247 1.453 . S
C258 C808 1.080 . S
C623 C271 1.869 . S
C104 C282 2.280 . S
C291 C643 2.582 . S
C302 C128 2.505 . S
C315 C667 1.869 . S
C150 C324 2.505 . S
C687 C335 2.582 . S
C348 C170 2.280 . S
C709 C357 3.117 . S
C788 C368 2.039 . S
C766 C379 1.904 . S
C392 C777 1.635 . S
C192 C401 3.117 . S
C414 C733 1.635 . S
C216 C423 1.904 . S
C227 C434 2.039 . S
C535 C445 1.723 . S
C51 C456 1.723 . S
C590 C469 1.947 . S
C71 C480 2.405 . S
C84 C489 1.870 1_545 S
C555 C502 2.405 . S
C568 C513 1.948 . S
C522 C546 1.869 . S
C359 C533 1.455 . S
C544 C898 1.225 . S
C381 C557 2.090 . S
C918 C566 0.988 1_455 S
C577 C403 1.455 . S
C940 C588 0.987 1_455 S
C425 C601 2.091 . S
C610 C964 1.225 . S
C621 C447 1.449 . S
C634 C524 2.095 1_556 S
C645 C500 1.796 . S
C511 C654 0.759 . S
C986 C665 1.449 . S
C676 C467 0.779 . S
C689 C1006 1.796 . S
C1019 C700 2.095 . S
C711 C269 1.640 . S
C722 C841 1.640 . S
C326 C731 1.453 . S
C865 C742 1.777 . S
C874 C753 1.080 . S
C293 C764 1.777 . S
C304 C775 1.453 . S
C786 C280 1.080 1_565 S
C95 C799 1.869 . S
C632 C810 2.280 . S
C819 C115 2.582 . S
C830 C656 2.505 1_455 S
C139 C843 1.868 . S
C852 C678 2.505 1_455 S
C159 C863 2.582 . S
C698 C876 2.280 . S
C885 C181 3.117 . S
C896 C260 2.039 . S
C238 C907 1.904 . S
C249 C920 1.635 . S
C720 C929 3.117 . S
C205 C942 1.635 . S
C951 C744 1.904 . S
C755 C962 2.039 . S
C7 C973 1.722 . S
C984 C579 1.723 . S
C62 C997 1.947 1_565 S
C599 C1008 2.406 . S
C612 C1017 1.869 . S
C27 C1030 2.405 . S
C1041 C40 1.947 1_565 S
C1050 C18 1.870 1_545 S
C107 C8 1.724 . S
C118 C19 1.888 . S
C129 C30 1.820 . S
C96 C41 1.740 . S
C173 C52 1.724 . S
C140 C63 1.741 . S
C74 C151 1.820 . S
C162 C85 1.888 . S
C184 C206 1.961 . S
C778 C195 1.961 . S
C217 C789 1.747 . S
C767 C228 1.747 . S
C756 C239 1.747 . S
C250 C723 1.962 . S
C745 C261 1.747 . S
C272 C371 1.910 . S
C283 C382 1.852 . S
C393 C294 2.066 . S
C360 C305 2.053 . S
C437 C316 1.911 . S
C404 C327 2.053 . S
C338 C415 2.066 . S
C426 C349 1.852 . S
C470 C448 1.805 . S
C459 C1042 1.805 . S
C481 C1053 1.868 . S
C1031 C492 1.869 . S
C503 C1020 1.868 . S
C514 C987 1.805 . S
C1009 C525 1.868 . S
C635 C536 1.724 . S
C547 C646 1.888 . S
C558 C657 1.820 . S
C624 C569 1.740 . S
C701 C580 1.724 . S
C668 C591 1.740 . S
C602 C679 1.820 . S
C613 C690 1.888 . S
C712 C734 1.962 . S
C899 C800 1.911 . S
C811 C910 1.852 . S
C921 C822 2.065 . S
C888 C833 2.052 . S
C965 C844 1.910 . S
C932 C855 2.053 . S
C943 C866 2.066 . S
C954 C877 1.852 . S
C976 C998 1.805 . S
