# Generated by pormake.
# Topology bcg, (8)-cn, num edge types: 1
# Building blocks:
#     Node 0, Type 0, BuildingBlock: EBIMEJ_clean_sbu_0, # of connection points: 8
#     Node 1, Type 0, BuildingBlock: EBIMEJ_clean_sbu_0, # of connection points: 8
#     Node 2, Type 0, BuildingBlock: EBIMEJ_clean_sbu_0, # of connection points: 8
#     Node 3, Type 0, BuildingBlock: EBIMEJ_clean_sbu_0, # of connection points: 8
#     Edge 4, Type (0, 0), BuildingBlock: MIFKUJ_clean_linker_0, # of connection points: 2
#     Edge 5, Type (0, 0), BuildingBlock: MIFKUJ_clean_linker_0, # of connection points: 2
#     Edge 6, Type (0, 0), BuildingBlock: MIFKUJ_clean_linker_0, # of connection points: 2
#     Edge 7, Type (0, 0), BuildingBlock: MIFKUJ_clean_linker_0, # of connection points: 2
#     Edge 8, Type (0, 0), BuildingBlock: MIFKUJ_clean_linker_0, # of connection points: 2
#     Edge 9, Type (0, 0), BuildingBlock: MIFKUJ_clean_linker_0, # of connection points: 2
#     Edge 10, Type (0, 0), BuildingBlock: MIFKUJ_clean_linker_0, # of connection points: 2
#     Edge 11, Type (0, 0), BuildingBlock: MIFKUJ_clean_linker_0, # of connection points: 2
#     Edge 12, Type (0, 0), BuildingBlock: MIFKUJ_clean_linker_0, # of connection points: 2
#     Edge 13, Type (0, 0), BuildingBlock: MIFKUJ_clean_linker_0, # of connection points: 2
#     Edge 14, Type (0, 0), BuildingBlock: MIFKUJ_clean_linker_0, # of connection points: 2
#     Edge 15, Type (0, 0), BuildingBlock: MIFKUJ_clean_linker_0, # of connection points: 2
#     Edge 16, Type (0, 0), BuildingBlock: MIFKUJ_clean_linker_0, # of connection points: 2
#     Edge 17, Type (0, 0), BuildingBlock: MIFKUJ_clean_linker_0, # of connection points: 2
#     Edge 18, Type (0, 0), BuildingBlock: MIFKUJ_clean_linker_0, # of connection points: 2
#     Edge 19, Type (0, 0), BuildingBlock: MIFKUJ_clean_linker_0, # of connection points: 2
# Relax obj value: 0.042
# Max RMSD: 0.091
# Mean RMSD: 0.091
data_MOF--net-bcg--node1-EBIMEJ_clean_sbu_0--edge1-MIFKUJ_clean_linker_0
_symmetry_space_group_name_H-M    P1
_symmetry_Int_Tables_number       1
_symmetry_cell_setting            triclinic
loop_
_symmetry_equiv_pos_as_xyz
'x, y, z'
_cell_length_a     20.906667
_cell_length_b     36.016453
_cell_length_c     42.599054
_cell_angle_alpha  82.083708
_cell_angle_beta   89.948891
_cell_angle_gamma 89.909276
loop_
_atom_site_label
_atom_site_type_symbol
_atom_site_fract_x
_atom_site_fract_y
_atom_site_fract_z
_atom_type_partial_charge
Co0 Co 0.17484 0.25633 0.95299 0.0
Co1 Co 0.30896 0.24997 0.99526 0.0
Co2 Co 0.18366 0.25698 0.02821 0.0
H3 H 0.19563 0.26204 0.9908 0.0
O4 O 0.22767 0.27668 0.98576 0.0
H5 H 0.29688 0.24729 0.03247 0.0
O6 O 0.26602 0.232 0.0381 0.0
Co7 Co 0.3155 0.25724 0.06927 0.0
O8 O 0.40225 0.23854 0.05582 0.0
O9 O 0.38953 0.22342 1.00685 0.0
O10 O 0.24112 0.24902 0.1006 0.0
O11 O 0.15147 0.24409 0.07256 0.0
O12 O 0.09903 0.24028 0.9266 0.0
O13 O 0.17202 0.27302 0.90459 0.0
O14 O 0.3135 0.31111 0.04891 0.0
O15 O 0.35004 0.29912 1.00242 0.0
C16 C 0.07213 0.29043 0.99126 0.0
C17 C 0.3116 0.25955 0.92455 0.0
C18 C 0.36872 0.26075 0.12145 0.0
C19 C 0.14378 0.18816 0.99631 0.0
C20 C 0.42309 0.22476 0.03162 0.0
C21 C 0.18082 0.24389 0.09891 0.0
C22 C 0.12019 0.25662 0.90072 0.0
C23 C 0.34078 0.32175 0.02261 0.0
O24 O 0.09411 0.28266 0.96497 0.0
O25 O 0.10183 0.28254 0.0174 0.0
O26 O 0.34094 0.26105 0.95067 0.0
O27 O 0.25091 0.25618 0.92298 0.0
O28 O 0.31367 0.27308 0.1142 0.0
O29 O 0.39355 0.24645 0.09908 0.0
O30 O 0.16023 0.20225 0.96858 0.0
O31 O 0.14724 0.20674 0.01987 0.0
Co32 Co 0.67704 0.74818 0.95501 0.0
Co33 Co 0.80697 0.75278 0.99511 0.0
Co34 Co 0.68204 0.75677 0.02865 0.0
H35 H 0.69397 0.75946 0.99149 0.0
O36 O 0.72329 0.77572 0.98567 0.0
H37 H 0.79591 0.74728 0.03265 0.0
O38 O 0.76492 0.73188 0.03778 0.0
Co39 Co 0.81671 0.75304 0.07047 0.0
O40 O 0.89643 0.72583 0.05812 0.0
O41 O 0.89014 0.72889 1.00534 0.0
O42 O 0.74019 0.75645 0.09984 0.0
O43 O 0.65133 0.74511 0.07334 0.0
O44 O 0.60176 0.73318 0.92789 0.0
O45 O 0.67363 0.76779 0.90707 0.0
O46 O 0.83409 0.80684 0.05508 0.0
O47 O 0.84097 0.80365 1.00326 0.0
C48 C 0.56832 0.7814 0.99175 0.0
C49 C 0.8117 0.75358 0.92648 0.0
C50 C 0.87053 0.75181 0.12307 0.0
C51 C 0.65342 0.68403 1.00182 0.0
C52 C 0.91906 0.71951 0.03149 0.0
C53 C 0.68005 0.75039 0.09881 0.0
C54 C 0.62224 0.75128 0.90257 0.0
C55 C 0.84733 0.82159 0.02709 0.0
O56 O 0.59066 0.76841 0.96748 0.0
O57 O 0.60015 0.7817 0.01722 0.0
O58 O 0.83647 0.76614 0.95036 0.0
O59 O 0.75451 0.74092 0.92693 0.0
O60 O 0.89486 0.76542 0.09704 0.0
O61 O 0.81594 0.73864 0.11919 0.0
O62 O 0.68105 0.69454 0.9756 0.0
O63 O 0.64318 0.70691 0.02172 0.0
Co64 Co 0.17857 0.75374 0.57071 0.0
Co65 Co 0.31033 0.75583 0.52881 0.0
Co66 Co 0.18478 0.7478 0.49639 0.0
H67 H 0.19746 0.74477 0.53357 0.0
O68 O 0.22901 0.72986 0.53904 0.0
H69 H 0.29767 0.75872 0.49168 0.0
O70 O 0.26621 0.77365 0.48611 0.0
Co71 Co 0.31654 0.74931 0.45471 0.0
O72 O 0.40212 0.77026 0.46701 0.0
O73 O 0.39059 0.78223 0.51695 0.0
O74 O 0.24202 0.75669 0.42359 0.0
O75 O 0.15193 0.75898 0.45187 0.0
O76 O 0.15714 0.78112 0.60909 0.0
O77 O 0.12594 0.72667 0.60813 0.0
O78 O 0.31655 0.69527 0.47424 0.0
O79 O 0.35038 0.70603 0.52156 0.0
C80 C 0.07193 0.7206 0.53368 0.0
C81 C 0.31382 0.74402 0.59976 0.0
C82 C 0.3692 0.74561 0.4025 0.0
C83 C 0.15138 0.81942 0.52481 0.0
C84 C 0.42304 0.78309 0.49158 0.0
C85 C 0.18139 0.7602 0.4254 0.0
C86 C 0.12664 0.75396 0.62362 0.0
C87 C 0.34264 0.68395 0.50071 0.0
O88 O 0.09284 0.73336 0.55826 0.0
O89 O 0.10437 0.7215 0.50829 0.0
O90 O 0.34316 0.74487 0.5733 0.0
O91 O 0.25327 0.74752 0.60167 0.0
O92 O 0.39326 0.76127 0.42427 0.0
O93 O 0.31529 0.73204 0.41038 0.0
O94 O 0.17627 0.80796 0.55155 0.0
O95 O 0.14507 0.79761 0.50366 0.0
Co96 Co 0.67608 0.2528 0.56943 0.0
Co97 Co 0.80922 0.25504 0.52854 0.0
Co98 Co 0.68543 0.24728 0.49516 0.0
H99 H 0.69656 0.24386 0.53251 0.0
O100 O 0.72792 0.22887 0.53813 0.0
H101 H 0.79788 0.25848 0.49122 0.0
O102 O 0.76648 0.27345 0.48572 0.0
Co103 Co 0.81793 0.25011 0.45408 0.0
O104 O 0.89861 0.27704 0.46588 0.0
O105 O 0.88878 0.28201 0.51757 0.0
O106 O 0.74256 0.24473 0.42452 0.0
O107 O 0.65446 0.25877 0.45044 0.0
O108 O 0.68079 0.26417 0.61559 0.0
O109 O 0.59679 0.24369 0.59885 0.0
O110 O 0.82212 0.1958 0.47262 0.0
O111 O 0.85035 0.20569 0.52106 0.0
C112 C 0.56859 0.22562 0.52914 0.0
C113 C 0.81118 0.24091 0.5993 0.0
C114 C 0.87149 0.25284 0.40127 0.0
C115 C 0.65076 0.31866 0.5236 0.0
C116 C 0.91908 0.28772 0.49147 0.0
C117 C 0.68276 0.25198 0.42521 0.0
C118 C 0.62416 0.25452 0.6222 0.0
C119 C 0.84593 0.18421 0.49958 0.0
O120 O 0.58777 0.23985 0.55338 0.0
O121 O 0.60521 0.22088 0.5062 0.0
O122 O 0.84107 0.24338 0.57294 0.0
O123 O 0.75032 0.24369 0.60097 0.0
O124 O 0.89411 0.2363 0.42676 0.0
O125 O 0.81885 0.26807 0.40585 0.0
O126 O 0.6751 0.30706 0.55044 0.0
O127 O 0.64498 0.29698 0.50233 0.0
H128 H 0.50988 0.21439 0.08023 0.0
H129 H 0.62521 0.22398 0.07453 0.0
H130 H 0.60715 0.23098 0.97297 0.0
H131 H 0.49302 0.21985 0.97843 0.0
H132 H 0.72093 0.20357 0.99226 0.0
H133 H 0.58274 0.30767 0.01558 0.0
H134 H 0.50756 0.33453 0.05118 0.0
H135 H 0.64902 0.32417 0.12468 0.0
H136 H 0.72438 0.29599 0.0901 0.0
H137 H 0.98594 0.30391 0.94246 0.0
H138 H 0.87007 0.29989 0.94864 0.0
H139 H 0.89021 0.29801 0.04964 0.0
H140 H 0.00526 0.30373 0.04367 0.0
H141 H 0.77578 0.32298 0.03191 0.0
H142 H 0.90705 0.21712 0.01802 0.0
H143 H 0.98803 0.18371 0.99063 0.0
H144 H 0.86825 0.1915 0.90812 0.0
H145 H 0.78661 0.22554 0.93504 0.0
C146 C 0.53087 0.21657 0.05679 0.0
C147 C 0.4922 0.21753 0.02971 0.0
C148 C 0.59665 0.22225 0.05357 0.0
C149 C 0.62387 0.22983 0.02325 0.0
C150 C 0.58672 0.22585 0.99656 0.0
C151 C 0.52132 0.21945 0.99977 0.0
C152 C 0.68789 0.24681 0.01862 0.0
C153 C 0.73268 0.22985 1.00066 0.0
C154 C 0.70361 0.28069 0.0303 0.0
C155 C 0.65907 0.29946 0.05031 0.0
C156 C 0.59783 0.3111 0.03933 0.0
C157 C 0.55514 0.32649 0.05933 0.0
C158 C 0.57355 0.33118 0.09004 0.0
C159 C 0.63479 0.32052 0.10087 0.0
C160 C 0.67746 0.30474 0.08113 0.0
C161 C 0.96561 0.30434 0.96581 0.0
C162 C 0.00487 0.30246 0.99275 0.0
C163 C 0.89936 0.30193 0.9693 0.0
C164 C 0.87221 0.29692 0.99974 0.0
C165 C 0.91044 0.30112 0.02599 0.0
C166 C 0.97646 0.30416 0.02249 0.0
C167 C 0.80817 0.28007 1.00507 0.0
C168 C 0.76362 0.29693 0.02323 0.0
C169 C 0.79319 0.24554 0.99441 0.0
C170 C 0.84105 0.22412 0.97842 0.0
C171 C 0.89804 0.21177 0.99401 0.0
C172 C 0.94408 0.19273 0.97856 0.0
C173 C 0.93339 0.18545 0.94761 0.0
C174 C 0.87645 0.19714 0.9321 0.0
C175 C 0.83024 0.2163 0.94745 0.0
H176 H 0.96917 0.17076 0.93566 0.0
H177 H 0.54031 0.34303 0.10546 0.0
H178 H 0.0062 0.70648 0.07993 0.0
H179 H 0.12195 0.71027 0.07301 0.0
H180 H 0.09922 0.71081 0.97228 0.0
H181 H 0.98438 0.70507 0.97903 0.0
H182 H 0.21395 0.68609 0.98963 0.0
H183 H 0.08263 0.7924 1.00373 0.0
H184 H 0.00236 0.82526 0.03204 0.0
H185 H 0.12552 0.81793 0.1133 0.0
H186 H 0.20643 0.78444 0.08547 0.0
H187 H 0.4842 0.79069 0.94197 0.0
H188 H 0.36837 0.78265 0.94638 0.0
H189 H 0.38143 0.77931 0.04785 0.0
H190 H 0.49591 0.78917 0.0436 0.0
H191 H 0.26997 0.80624 0.02769 0.0
H192 H 0.40521 0.6996 1.00723 0.0
H193 H 0.47989 0.66947 0.97349 0.0
H194 H 0.34259 0.6813 0.89802 0.0
H195 H 0.26765 0.71242 0.93086 0.0
C196 C 0.02595 0.70565 0.05652 0.0
C197 C 0.98609 0.70723 0.02982 0.0
C198 C 0.09211 0.70796 0.05259 0.0
C199 C 0.11844 0.71263 0.02197 0.0
C200 C 0.0796 0.70802 0.99604 0.0
C201 C 0.01372 0.705 0.99999 0.0
C202 C 0.18223 0.72953 0.01606 0.0
C203 C 0.22632 0.71233 0.99792 0.0
C204 C 0.1975 0.76426 0.02627 0.0
C205 C 0.15028 0.7857 0.04263 0.0
C206 C 0.09257 0.79779 0.02764 0.0
C207 C 0.04692 0.8165 0.04362 0.0
C208 C 0.05872 0.8237 0.0745 0.0
C209 C 0.11644 0.81234 0.08939 0.0
C210 C 0.16225 0.7935 0.07351 0.0
C211 C 0.46201 0.78969 0.96507 0.0
C212 C 0.49932 0.78935 0.99256 0.0
C213 C 0.39595 0.78485 0.96756 0.0
C214 C 0.36711 0.77869 0.99758 0.0
C215 C 0.40306 0.78333 0.0245 0.0
C216 C 0.46872 0.78895 0.02199 0.0
C217 C 0.30254 0.76238 1.00188 0.0
C218 C 0.25793 0.77985 0.01957 0.0
C219 C 0.28643 0.72829 0.99065 0.0
C220 C 0.33101 0.70855 0.97143 0.0
C221 C 0.39099 0.69582 0.98343 0.0
C222 C 0.43337 0.6786 0.96448 0.0
C223 C 0.4159 0.67332 0.93376 0.0
C224 C 0.35602 0.68535 0.92185 0.0
C225 C 0.31362 0.70284 0.94058 0.0
H226 H 0.44881 0.65996 0.91918 0.0
H227 H 0.02321 0.83809 0.08689 0.0
H228 H 0.49152 0.79516 0.54362 0.0
H229 H 0.60603 0.78756 0.54964 0.0
H230 H 0.62546 0.78498 0.44906 0.0
H231 H 0.50982 0.79117 0.44289 0.0
H232 H 0.66691 0.72256 0.48109 0.0
H233 H 0.69897 0.85237 0.4885 0.0
H234 H 0.67937 0.91279 0.50769 0.0
H235 H 0.72888 0.86408 0.60228 0.0
H236 H 0.74721 0.80302 0.58381 0.0
H237 H 0.00341 0.70811 0.48178 0.0
H238 H 0.88882 0.71519 0.47591 0.0
H239 H 0.86974 0.71809 0.57649 0.0
H240 H 0.98554 0.71257 0.58247 0.0
H241 H 0.82818 0.78029 0.54439 0.0
H242 H 0.79337 0.65005 0.53711 0.0
H243 H 0.81165 0.58941 0.51782 0.0
H244 H 0.76878 0.63952 0.42279 0.0
H245 H 0.75086 0.70055 0.44144 0.0
C246 C 0.52011 0.79434 0.5225 0.0
C247 C 0.4914 0.79249 0.49291 0.0
C248 C 0.58592 0.79018 0.52601 0.0
C249 C 0.62406 0.78517 0.49985 0.0
C250 C 0.59648 0.78831 0.46959 0.0
C251 C 0.53043 0.79193 0.4661 0.0
C252 C 0.68925 0.76996 0.50506 0.0
C253 C 0.70276 0.73557 0.49439 0.0
C254 C 0.73465 0.78615 0.5236 0.0
C255 C 0.72395 0.82297 0.53477 0.0
C256 C 0.70516 0.85442 0.51345 0.0
C257 C 0.69437 0.88884 0.52421 0.0
C258 C 0.70287 0.89231 0.55621 0.0
C259 C 0.72228 0.86136 0.5775 0.0
C260 C 0.73285 0.82682 0.5669 0.0
C261 C 0.97489 0.70888 0.50293 0.0
C262 C 0.00367 0.71102 0.53245 0.0
C263 C 0.90901 0.71269 0.49952 0.0
C264 C 0.87091 0.71763 0.52571 0.0
C265 C 0.89866 0.71475 0.55593 0.0
C266 C 0.96478 0.71152 0.55931 0.0
C267 C 0.80572 0.73284 0.52052 0.0
C268 C 0.79225 0.76725 0.53115 0.0
C269 C 0.76038 0.71669 0.50194 0.0
C270 C 0.77117 0.67995 0.49068 0.0
C271 C 0.78828 0.64821 0.51207 0.0
C272 C 0.79846 0.61374 0.50125 0.0
C273 C 0.79148 0.61063 0.46909 0.0
C274 C 0.77415 0.64196 0.44769 0.0
C275 C 0.76384 0.67648 0.45839 0.0
H276 H 0.7994 0.58393 0.46077 0.0
H277 H 0.69438 0.91896 0.56452 0.0
H278 H 0.99017 0.29105 0.54413 0.0
H279 H 0.1048 0.29158 0.5465 0.0
H280 H 0.11457 0.31759 0.44449 0.0
H281 H -0.00202 0.31367 0.44175 0.0
H282 H 0.17341 0.25773 0.46097 0.0
H283 H 0.18434 0.37544 0.50165 0.0
H284 H 0.15295 0.42215 0.53609 0.0
H285 H 0.20382 0.34538 0.61853 0.0
H286 H 0.235 0.29812 0.58468 0.0
H287 H 0.50911 0.23438 0.47233 0.0
H288 H 0.39832 0.25121 0.46275 0.0
H289 H 0.35966 0.22907 0.56324 0.0
H290 H 0.47297 0.2149 0.57326 0.0
H291 H 0.32112 0.29469 0.54206 0.0
H292 H 0.29507 0.175 0.50327 0.0
H293 H 0.32105 0.12587 0.47019 0.0
H294 H 0.29473 0.20475 0.38594 0.0
H295 H 0.26894 0.25435 0.41851 0.0
C296 C 0.01623 0.29815 0.52212 0.0
C297 C 0.98517 0.30124 0.49263 0.0
C298 C 0.08241 0.299 0.52359 0.0
C299 C 0.11873 0.30467 0.49567 0.0
C300 C 0.08739 0.31282 0.46633 0.0
C301 C 0.02087 0.31065 0.46477 0.0
C302 C 0.18692 0.2938 0.49696 0.0
C303 C 0.20628 0.26668 0.47814 0.0
C304 C 0.22904 0.30429 0.52018 0.0
C305 C 0.21203 0.33321 0.54054 0.0
C306 C 0.18878 0.3685 0.52711 0.0
C307 C 0.17102 0.39508 0.54655 0.0
C308 C 0.1764 0.38674 0.57947 0.0
C309 C 0.19985 0.35186 0.59302 0.0
C310 C 0.2178 0.32522 0.57371 0.0
C311 C 0.47677 0.2318 0.49241 0.0
C312 C 0.4996 0.22357 0.52364 0.0
C313 C 0.41308 0.24137 0.48682 0.0
C314 C 0.37054 0.24131 0.51224 0.0
C315 C 0.39199 0.22957 0.5433 0.0
C316 C 0.4564 0.22117 0.54902 0.0
C317 C 0.30635 0.25797 0.50677 0.0
C318 C 0.28829 0.28626 0.52465 0.0
C319 C 0.26514 0.24839 0.48287 0.0
C320 C 0.28059 0.21845 0.46335 0.0
C321 C 0.2952 0.1819 0.4777 0.0
C322 C 0.30978 0.15396 0.45904 0.0
C323 C 0.3097 0.16221 0.426 0.0
C324 C 0.2948 0.19839 0.41154 0.0
C325 C 0.28006 0.22639 0.43008 0.0
H326 H 0.32107 0.14056 0.41161 0.0
H327 H 0.16238 0.40729 0.59447 0.0
H328 H 0.53973 0.66336 0.03055 0.0
H329 H 0.48501 0.60328 0.03281 0.0
H330 H 0.64801 0.55782 0.98864 0.0
H331 H 0.69994 0.61921 0.98361 0.0
H332 H 0.55337 0.53334 0.96417 0.0
H333 H 0.59734 0.53807 0.07564 0.0
H334 H 0.59299 0.56666 0.12504 0.0
H335 H 0.38772 0.56701 0.12152 0.0
H336 H 0.39088 0.53878 0.07197 0.0
H337 H 0.45359 0.3427 0.99304 0.0
H338 H 0.50841 0.40274 0.99074 0.0
H339 H 0.34665 0.44781 0.03621 0.0
H340 H 0.29496 0.38637 0.04145 0.0
H341 H 0.44081 0.47257 0.06003 0.0
H342 H 0.39634 0.46812 0.94862 0.0
H343 H 0.40021 0.43991 0.89902 0.0
H344 H 0.6055 0.4394 0.90215 0.0
H345 H 0.60283 0.46726 0.95189 0.0
C346 C 0.56426 0.64035 0.02175 0.0
C347 C 0.62442 0.64598 1.00711 0.0
C348 C 0.53299 0.60571 0.02322 0.0
C349 C 0.56251 0.5751 0.01163 0.0
C350 C 0.6236 0.58063 0.99777 0.0
C351 C 0.65369 0.61572 0.99512 0.0
C352 C 0.52923 0.53789 0.01269 0.0
C353 C 0.52958 0.51991 0.98537 0.0
C354 C 0.49612 0.52033 0.03986 0.0
C355 C 0.4944 0.53653 0.07002 0.0
C356 C 0.55132 0.54432 0.08539 0.0
C357 C 0.54905 0.56048 0.1134 0.0
C358 C 0.49013 0.5687 0.12638 0.0
C359 C 0.43333 0.56063 0.11145 0.0
C360 C 0.43533 0.5445 0.08344 0.0
C361 C 0.42939 0.3656 1.00216 0.0
C362 C 0.36976 0.35981 0.0173 0.0
C363 C 0.46068 0.40025 1.00064 0.0
C364 C 0.43154 0.43076 0.01256 0.0
C365 C 0.37085 0.42509 0.02684 0.0
C366 C 0.34086 0.38996 0.02962 0.0
C367 C 0.46485 0.46799 1.01148 0.0
C368 C 0.46454 0.48598 0.03881 0.0
C369 C 0.4979 0.48559 0.98429 0.0
C370 C 0.49933 0.46954 0.95406 0.0
C371 C 0.44226 0.4619 0.93875 0.0
C372 C 0.44426 0.44597 0.91062 0.0
C373 C 0.50305 0.43781 0.89747 0.0
C374 C 0.56 0.44572 0.91235 0.0
C375 C 0.55827 0.46163 0.94047 0.0
H376 H 0.50449 0.42541 0.87574 0.0
H377 H 0.48847 0.58128 0.14802 0.0
H378 H 0.55215 0.34515 0.484 0.0
H379 H 0.49854 0.40606 0.48041 0.0
H380 H 0.63189 0.4405 0.54804 0.0
H381 H 0.68334 0.37901 0.55285 0.0
H382 H 0.52209 0.46198 0.56295 0.0
H383 H 0.63181 0.47319 0.4622 0.0
H384 H 0.66053 0.45378 0.41067 0.0
H385 H 0.46329 0.46046 0.38239 0.0
H386 H 0.43332 0.47949 0.4339 0.0
H387 H 0.44082 0.65671 0.54041 0.0
H388 H 0.49334 0.5955 0.54393 0.0
H389 H 0.3596 0.56207 0.47604 0.0
H390 H 0.30913 0.62381 0.47134 0.0
H391 H 0.46884 0.53985 0.46116 0.0
H392 H 0.35879 0.5288 0.56142 0.0
H393 H 0.3291 0.54746 0.6131 0.0
H394 H 0.5257 0.53984 0.6424 0.0
H395 H 0.55666 0.52157 0.59076 0.0
C396 C 0.57062 0.3659 0.49777 0.0
C397 C 0.62246 0.35716 0.51855 0.0
C398 C 0.53993 0.40094 0.49565 0.0
C399 C 0.56137 0.4286 0.51358 0.0
C400 C 0.61392 0.41997 0.53393 0.0
C401 C 0.6437 0.38474 0.53653 0.0
C402 C 0.52824 0.46598 0.51211 0.0
C403 C 0.51137 0.47917 0.54062 0.0
C404 C 0.51214 0.48839 0.48312 0.0
C405 C 0.53029 0.47746 0.452 0.0
C406 C 0.59456 0.47035 0.44504 0.0
C407 C 0.61105 0.45943 0.41584 0.0
C408 C 0.56375 0.45581 0.3933 0.0
C409 C 0.49988 0.46324 0.39988 0.0
C410 C 0.48312 0.47414 0.42905 0.0
C411 C 0.42204 0.63615 0.52655 0.0
C412 C 0.37038 0.64527 0.50572 0.0
C413 C 0.4521 0.60093 0.52863 0.0
C414 C 0.43028 0.57345 0.51059 0.0
C415 C 0.37789 0.58245 0.49022 0.0
C416 C 0.34867 0.61784 0.48768 0.0
C417 C 0.46288 0.53592 0.51202 0.0
C418 C 0.4796 0.52268 0.4835 0.0
C419 C 0.47875 0.51343 0.541 0.0
C420 C 0.46009 0.52415 0.57212 0.0
C421 C 0.39572 0.53132 0.57882 0.0
C422 C 0.37866 0.5418 0.60811 0.0
C423 C 0.4255 0.54492 0.63099 0.0
C424 C 0.48947 0.53745 0.62465 0.0
C425 C 0.50679 0.527 0.59539 0.0
H426 H 0.4122 0.55306 0.65364 0.0
H427 H 0.5766 0.4473 0.37072 0.0
H428 H 0.12855 0.13788 0.05109 0.0
H429 H 0.07897 0.07535 0.05615 0.0
H430 H 0.04182 0.09031 0.95571 0.0
H431 H 0.09269 0.15171 0.95025 0.0
H432 H 0.93373 0.06338 0.99506 0.0
H433 H 0.15443 0.03687 0.97747 0.0
H434 H 0.27049 0.03779 0.98737 0.0
H435 H 0.24199 0.97817 0.08076 0.0
H436 H 0.12546 0.97747 0.0716 0.0
H437 H 0.85994 0.87236 0.97236 0.0
H438 H 0.90944 0.93492 0.96711 0.0
H439 H 0.95085 0.91929 0.06714 0.0
H440 H 0.90027 0.85786 0.07281 0.0
H441 H 0.05684 0.94659 0.02789 0.0
H442 H 0.8364 0.97306 0.04563 0.0
H443 H 0.72029 0.97198 0.03588 0.0
H444 H 0.74817 0.03162 0.94245 0.0
H445 H 0.86475 0.03247 0.95146 0.0
C446 C 0.11018 0.12773 0.03009 0.0
C447 C 0.11519 0.14984 1.00026 0.0
C448 C 0.08181 0.09201 0.033 0.0
C449 C 0.05664 0.07812 1.00628 0.0
C450 C 0.06084 0.10035 0.97665 0.0
C451 C 0.09047 0.13545 0.97359 0.0
C452 C 0.0262 0.04036 1.00892 0.0
C453 C 0.96082 0.03783 1.00191 0.0
C454 C 0.0612 0.007 0.0183 0.0
C455 C 0.13111 0.00763 0.02403 0.0
C456 C 0.17279 0.02438 1.00028 0.0
C457 C 0.23869 0.02477 1.00572 0.0
C458 C 0.26358 0.00819 0.03473 0.0
C459 C 0.22261 0.99111 0.05833 0.0
C460 C 0.15662 0.99071 0.05303 0.0
C461 C 0.87919 0.88238 0.99324 0.0
C462 C 0.87551 0.86004 0.02302 0.0
C463 C 0.90753 0.91811 0.99022 0.0
C464 C 0.9339 0.93183 0.01676 0.0
C465 C 0.93092 0.9094 0.04633 0.0
C466 C 0.90143 0.87427 0.04951 0.0
C467 C 0.96435 0.9696 0.01402 0.0
C468 C 0.02975 0.97214 0.02103 0.0
C469 C 0.92935 1.00297 1.00467 0.0
C470 C 0.8594 1.00234 0.99905 0.0
C471 C 0.81788 0.98553 0.02286 0.0
C472 C 0.75196 0.98505 0.0175 0.0
C473 C 0.72689 1.00159 0.98851 0.0
C474 C 0.7677 0.01872 0.96485 0.0
C475 C 0.83371 0.01921 0.97008 0.0
H476 H 0.67582 1.00123 0.98443 0.0
H477 H 0.31464 0.00846 0.03887 0.0
H478 H 0.8169 0.12443 0.46886 0.0
H479 H 0.86909 0.06301 0.47401 0.0
H480 H 0.99396 0.09553 0.54586 0.0
H481 H 0.94096 0.15701 0.5413 0.0
H482 H 0.05837 0.0618 0.49612 0.0
H483 H 0.88942 0.03316 0.57226 0.0
H484 H 0.77735 0.03446 0.59025 0.0
H485 H 0.71892 0.97548 0.51416 0.0
H486 H 0.8309 0.97327 0.49601 0.0
H487 H 0.18372 0.87967 0.55437 0.0
H488 H 0.13284 0.94151 0.54912 0.0
H489 H 0.00303 0.90846 0.47952 0.0
H490 H 0.05473 0.84664 0.48414 0.0
H491 H 0.94117 0.94283 0.528 0.0
H492 H 0.11325 0.96694 0.45466 0.0
H493 H 0.22457 0.96825 0.4355 0.0
H494 H 0.27767 0.03917 0.50435 0.0
H495 H 0.16679 0.03768 0.52438 0.0
C496 C 0.85503 0.11847 0.48602 0.0
C497 C 0.87442 0.14575 0.50476 0.0
C498 C 0.88489 0.08327 0.48893 0.0
C499 C 0.93562 0.07452 0.51029 0.0
C500 C 0.95503 0.10157 0.52917 0.0
C501 C 0.92431 0.13664 0.5267 0.0
C502 C 0.96852 0.0373 0.51245 0.0
C503 C 0.03311 0.0358 0.50361 0.0
C504 C 0.93528 1.00326 0.52134 0.0
C505 C 0.86834 1.00322 0.53271 0.0
C506 C 0.85262 0.0204 0.55942 0.0
C507 C 0.7892 0.02117 0.56971 0.0
C508 C 0.74107 0.00492 0.55341 0.0
C509 C 0.75635 0.98773 0.52689 0.0
C510 C 0.81981 0.98655 0.51669 0.0
C511 C 0.14481 0.88563 0.53766 0.0
C512 C 0.12366 0.85809 0.51956 0.0
C513 C 0.11571 0.92108 0.53468 0.0
C514 C 0.06397 0.92982 0.51392 0.0
C515 C 0.0428 0.90248 0.49572 0.0
C516 C 0.07276 0.86719 0.49822 0.0
C517 C 0.03146 0.96719 0.51181 0.0
C518 C 0.96676 0.96874 0.52062 0.0
C519 C 0.06481 1.0013 0.5029 0.0
C520 C 0.13182 1.00176 0.49133 0.0
C521 C 0.14881 0.9824 0.46602 0.0
C522 C 0.21181 0.98326 0.45494 0.0
C523 C 0.25823 0.00366 0.46879 0.0
C524 C 0.2417 0.02328 0.49373 0.0
C525 C 0.17877 0.02242 0.50496 0.0
H526 H 0.30695 0.00436 0.46012 0.0
H527 H 0.69192 0.00568 0.56131 0.0
H528 H 0.72366 0.22929 0.36989 0.0
H529 H 0.66652 0.23145 0.32002 0.0
H530 H 0.5018 0.27853 0.36122 0.0
H531 H 0.55853 0.27555 0.41196 0.0
H532 H 0.46518 0.22799 0.32456 0.0
H533 H 0.60831 0.33253 0.31191 0.0
H534 H 0.7127 0.36396 0.31346 0.0
H535 H 0.78663 0.29957 0.24387 0.0
H536 H 0.68301 0.26722 0.24235 0.0
H537 H 0.31655 0.28467 0.17414 0.0
H538 H 0.36615 0.28423 0.22635 0.0
H539 H 0.5381 0.23693 0.19231 0.0
H540 H 0.4893 0.23795 0.13995 0.0
H541 H 0.56748 0.29048 0.22619 0.0
H542 H 0.42372 0.18611 0.23861 0.0
H543 H 0.32039 0.1534 0.2382 0.0
H544 H 0.24796 0.21585 0.30945 0.0
H545 H 0.34979 0.2502 0.30929 0.0
C546 C 0.67527 0.24018 0.36856 0.0
C547 C 0.64611 0.25268 0.39507 0.0
C548 C 0.64261 0.24149 0.33981 0.0
C549 C 0.58018 0.25593 0.33647 0.0
C550 C 0.55009 0.26751 0.36307 0.0
C551 C 0.58268 0.2659 0.39208 0.0
C552 C 0.54707 0.25916 0.30509 0.0
C553 C 0.48698 0.24223 0.30311 0.0
C554 C 0.5761 0.27702 0.2769 0.0
C555 C 0.63807 0.29709 0.2773 0.0
C556 C 0.64695 0.32485 0.29711 0.0
C557 C 0.706 0.34284 0.29798 0.0
C558 C 0.75635 0.33365 0.27888 0.0
C559 C 0.74766 0.30656 0.25874 0.0
C560 C 0.6888 0.28837 0.25788 0.0
C561 C 0.36504 0.27432 0.17777 0.0
C562 C 0.399 0.26127 0.15292 0.0
C563 C 0.39315 0.27385 0.2077 0.0
C564 C 0.45559 0.26009 0.21355 0.0
C565 C 0.48983 0.24759 0.18855 0.0
C566 C 0.46182 0.24808 0.15861 0.0
C567 C 0.48567 0.25901 0.24552 0.0
C568 C 0.5453 0.27643 0.24762 0.0
C569 C 0.45604 0.24163 0.27378 0.0
C570 C 0.39426 0.22128 0.27351 0.0
C571 C 0.38544 0.19341 0.25378 0.0
C572 C 0.32703 0.17457 0.25363 0.0
C573 C 0.2774 0.18281 0.27355 0.0
C574 C 0.28619 0.20978 0.29377 0.0
C575 C 0.34418 0.22904 0.29372 0.0
H576 H 0.23228 0.16812 0.27347 0.0
H577 H 0.80206 0.34756 0.27962 0.0
H578 H 0.71998 0.77406 0.15374 0.0
H579 H 0.6625 0.7723 0.20348 0.0
H580 H 0.49899 0.72385 0.16277 0.0
H581 H 0.5562 0.72631 0.11211 0.0
H582 H 0.4617 0.77557 0.19939 0.0
H583 H 0.60344 0.66974 0.21264 0.0
H584 H 0.70748 0.63785 0.21046 0.0
H585 H 0.78549 0.70436 0.27741 0.0
H586 H 0.68224 0.73718 0.27954 0.0
H587 H 0.31693 0.72005 0.35075 0.0
H588 H 0.36546 0.71972 0.29842 0.0
H589 H 0.53663 0.76964 0.3305 0.0
H590 H 0.48847 0.76969 0.38296 0.0
H591 H 0.56591 0.71366 0.29753 0.0
H592 H 0.42854 0.82148 0.28264 0.0
H593 H 0.32628 0.8552 0.28485 0.0
H594 H 0.24125 0.78628 0.22166 0.0
H595 H 0.34292 0.75174 0.2194 0.0
C596 C 0.67186 0.76286 0.15518 0.0
C597 C 0.64319 0.74979 0.12886 0.0
C598 C 0.63897 0.76185 0.18381 0.0
C599 C 0.57679 0.74718 0.18724 0.0
C600 C 0.54709 0.73506 0.16082 0.0
C601 C 0.57994 0.73637 0.13189 0.0
C602 C 0.54385 0.74416 0.21862 0.0
C603 C 0.48397 0.76145 0.22076 0.0
C604 C 0.5734 0.72645 0.24673 0.0
C605 C 0.63516 0.70612 0.24607 0.0
C606 C 0.64287 0.67771 0.22677 0.0
C607 C 0.70173 0.65949 0.22552 0.0
C608 C 0.75313 0.66916 0.2437 0.0
C609 C 0.74567 0.69695 0.26329 0.0
C610 C 0.68697 0.71536 0.26454 0.0
C611 C 0.36499 0.73084 0.34666 0.0
C612 C 0.39894 0.74487 0.37097 0.0
C613 C 0.39256 0.73084 0.31667 0.0
C614 C 0.45457 0.74498 0.31033 0.0
C615 C 0.48875 0.7586 0.33475 0.0
C616 C 0.46114 0.75871 0.36471 0.0
C617 C 0.48413 0.74538 0.27838 0.0
C618 C 0.54339 0.72753 0.27613 0.0
C619 C 0.45408 0.76266 0.25026 0.0
C620 C 0.39317 0.78373 0.25114 0.0
C621 C 0.38793 0.81332 0.26939 0.0
C622 C 0.33009 0.83261 0.27063 0.0
C623 C 0.27724 0.82279 0.2535 0.0
C624 C 0.28222 0.79378 0.23497 0.0
C625 C 0.33996 0.77436 0.23367 0.0
H626 H 0.2325 0.83773 0.25455 0.0
H627 H 0.7987 0.65509 0.24264 0.0
H628 H 0.27131 0.71859 0.6594 0.0
H629 H 0.32669 0.71975 0.70954 0.0
H630 H 0.49407 0.76577 0.65917 0.0
H631 H 0.43946 0.76304 0.60858 0.0
H632 H 0.53288 0.7214 0.70732 0.0
H633 H 0.38044 0.81941 0.69495 0.0
H634 H 0.27633 0.8513 0.68616 0.0
H635 H 0.20274 0.78775 0.77112 0.0
H636 H 0.30544 0.75437 0.77979 0.0
H637 H 0.66591 0.78436 0.84499 0.0
H638 H 0.61568 0.78442 0.79308 0.0
H639 H 0.45809 0.71985 0.83721 0.0
H640 H 0.50773 0.72031 0.88931 0.0
H641 H 0.41818 0.77745 0.79145 0.0
H642 H 0.57598 0.67482 0.79683 0.0
H643 H 0.68684 0.6529 0.80757 0.0
H644 H 0.75608 0.73987 0.73656 0.0
H645 H 0.64577 0.76158 0.72498 0.0
C646 C 0.32021 0.72857 0.6589 0.0
C647 C 0.35077 0.74094 0.62989 0.0
C648 C 0.35176 0.72953 0.68771 0.0
C649 C 0.41415 0.7439 0.68843 0.0
C650 C 0.44583 0.75481 0.65944 0.0
C651 C 0.41458 0.75319 0.63046 0.0
C652 C 0.4454 0.74805 0.7194 0.0
C653 C 0.50769 0.73403 0.72546 0.0
C654 C 0.41329 0.76467 0.74343 0.0
C655 C 0.35061 0.78399 0.7378 0.0
C656 C 0.34176 0.81176 0.7115 0.0
C657 C 0.2829 0.8301 0.70652 0.0
C658 C 0.23275 0.82136 0.72794 0.0
C659 C 0.24131 0.79421 0.75435 0.0
C660 C 0.29984 0.77551 0.75928 0.0
C661 C 0.62044 0.7703 0.84365 0.0
C662 C 0.59093 0.75214 0.87123 0.0
C663 C 0.59191 0.77017 0.81392 0.0
C664 C 0.53348 0.75163 0.81108 0.0
C665 C 0.50326 0.73419 0.83872 0.0
C666 C 0.53178 0.73434 0.86847 0.0
C667 C 0.50423 0.75001 0.77933 0.0
C668 C 0.44265 0.76467 0.77317 0.0
C669 C 0.53733 0.73491 0.75499 0.0
C670 C 0.60285 0.71972 0.76002 0.0
C671 C 0.61494 0.68889 0.78328 0.0
C672 C 0.67765 0.67648 0.78948 0.0
C673 C 0.72856 0.69481 0.77265 0.0
C674 C 0.71675 0.72532 0.74933 0.0
C675 C 0.65411 0.73755 0.74278 0.0
H676 H 0.77711 0.68546 0.77781 0.0
H677 H 0.18742 0.83583 0.72419 0.0
H678 H 0.26516 0.25262 0.86571 0.0
H679 H 0.32348 0.25221 0.81658 0.0
H680 H 0.50098 0.26635 0.86499 0.0
H681 H 0.4421 0.26796 0.91476 0.0
H682 H 0.49688 0.30987 0.80707 0.0
H683 H 0.45895 0.18024 0.84576 0.0
H684 H 0.39311 0.1258 0.86714 0.0
H685 H 0.27642 0.14132 0.78345 0.0
H686 H 0.34118 0.1961 0.7617 0.0
H687 H 0.68316 0.26753 0.67672 0.0
H688 H 0.63563 0.26747 0.72915 0.0
H689 H 0.45079 0.24354 0.69165 0.0
H690 H 0.49892 0.24208 0.63933 0.0
H691 H 0.46511 0.20319 0.74643 0.0
H692 H 0.49691 0.33399 0.70875 0.0
H693 H 0.55892 0.38992 0.68709 0.0
H694 H 0.6831 0.37382 0.76808 0.0
H695 H 0.62223 0.31752 0.79005 0.0
C696 C 0.31647 0.25613 0.86613 0.0
C697 C 0.3486 0.26053 0.89445 0.0
C698 C 0.34998 0.25549 0.83787 0.0
C699 C 0.41684 0.25857 0.83705 0.0
C700 C 0.44937 0.26372 0.86503 0.0
C701 C 0.41563 0.26457 0.8935 0.0
C702 C 0.45196 0.25619 0.80687 0.0
C703 C 0.49089 0.28624 0.79408 0.0
C704 C 0.443 0.22579 0.78944 0.0
C705 C 0.40472 0.19241 0.80219 0.0
C706 C 0.41909 0.17213 0.83198 0.0
C707 C 0.38198 0.1412 0.84415 0.0
C708 C 0.33056 0.13014 0.82668 0.0
C709 C 0.31628 0.14991 0.79694 0.0
C710 C 0.35326 0.18086 0.78465 0.0
C711 C 0.63237 0.26223 0.67965 0.0
C712 C 0.59472 0.25492 0.65386 0.0
C713 C 0.60509 0.26244 0.70965 0.0
C714 C 0.53921 0.25617 0.71445 0.0
C715 C 0.50166 0.24856 0.68868 0.0
C716 C 0.52913 0.24785 0.65873 0.0
C717 C 0.50951 0.25715 0.74628 0.0
C718 C 0.47158 0.22677 0.75944 0.0
C719 C 0.51907 0.28736 0.76392 0.0
C720 C 0.5554 0.32136 0.75088 0.0
C721 C 0.53769 0.34225 0.72184 0.0
C722 C 0.57258 0.37404 0.70952 0.0
C723 C 0.62502 0.38536 0.72616 0.0
C724 C 0.64253 0.36499 0.7552 0.0
C725 C 0.6078 0.33317 0.76761 0.0
H726 H 0.652 0.40996 0.71658 0.0
H727 H 0.30182 0.10623 0.83618 0.0
H728 H 0.05215 0.74973 0.41675 0.0
H729 H 0.99526 0.74981 0.36635 0.0
H730 H 0.17059 0.7778 0.31518 0.0
H731 H 0.22745 0.77795 0.36508 0.0
H732 H 0.07135 0.81806 0.28755 0.0
H733 H 0.11506 0.68855 0.32634 0.0
H734 H 0.11188 0.63085 0.36489 0.0
H735 H 0.90655 0.63219 0.36233 0.0
H736 H 0.9085 0.69021 0.32404 0.0
H737 H 0.99218 0.77349 0.13555 0.0
H738 H 0.04119 0.77611 0.18736 0.0
H739 H 0.86561 0.73611 0.23339 0.0
H740 H 0.81727 0.73213 0.18165 0.0
H741 H 0.96007 0.70315 0.2649 0.0
H742 H 0.91476 0.83149 0.22564 0.0
H743 H 0.91656 0.8893 0.18718 0.0
H744 H 0.12177 0.89094 0.19107 0.0
H745 H 0.12119 0.83281 0.22923 0.0
C746 C 0.07843 0.75636 0.39477 0.0
C747 C 0.14453 0.76373 0.39513 0.0
C748 C 0.04592 0.75612 0.36594 0.0
C749 C 0.07871 0.76339 0.33687 0.0
C750 C 0.14413 0.77202 0.3372 0.0
C751 C 0.17666 0.772 0.36589 0.0
C752 C 0.0457 0.7614 0.30604 0.0
C753 C 0.04748 0.79281 0.28252 0.0
C754 C 0.01319 0.7288 0.29957 0.0
C755 C 0.01193 0.69399 0.32265 0.0
C756 C 0.06922 0.67674 0.33423 0.0
C757 C 0.06764 0.64394 0.35598 0.0
C758 C 0.00905 0.62794 0.36614 0.0
C759 C 0.9519 0.64466 0.3545 0.0
C760 C 0.95321 0.6775 0.33276 0.0
C761 C 0.96411 0.76517 0.15673 0.0
C762 C 0.90079 0.75275 0.15448 0.0
C763 C 0.99202 0.76692 0.18641 0.0
C764 C 0.95686 0.75699 0.21452 0.0
C765 C 0.89384 0.74404 0.21222 0.0
C766 C 0.86615 0.74187 0.18256 0.0
C767 C 0.98584 0.75983 0.24625 0.0
C768 C 0.98343 0.72855 0.26995 0.0
C769 C 0.01745 0.79265 0.25297 0.0
C770 C 0.01795 0.82766 0.23011 0.0
C771 C 0.96028 0.84405 0.21814 0.0
C772 C 0.96108 0.87689 0.1964 0.0
C773 C 0.01925 0.89374 0.18663 0.0
C774 C 0.07675 0.87784 0.19863 0.0
C775 C 0.07622 0.84498 0.22035 0.0
H776 H 0.01976 0.91917 0.16981 0.0
H777 H 0.00793 0.60252 0.38296 0.0
H778 H 0.82061 0.27946 0.34336 0.0
H779 H 0.86872 0.27793 0.29103 0.0
H780 H 0.03696 0.2247 0.33517 0.0
H781 H 0.98926 0.22619 0.38757 0.0
H782 H 0.06598 0.2823 0.28769 0.0
H783 H 0.92239 0.1757 0.30226 0.0
H784 H 0.81681 0.14596 0.3121 0.0
H785 H 0.74284 0.21126 0.22803 0.0
H786 H 0.84744 0.24226 0.21818 0.0
H787 H 0.22526 0.22274 0.15907 0.0
H788 H 0.16836 0.22355 0.20893 0.0
H789 H 0.99645 0.25961 0.15749 0.0
H790 H 0.05278 0.25742 0.10728 0.0
H791 H 0.9638 0.21453 0.20723 0.0
H792 H 0.09977 0.32024 0.18994 0.0
H793 H 0.19924 0.35639 0.17922 0.0
H794 H 0.28008 0.3019 0.26617 0.0
H795 H 0.18169 0.26466 0.277 0.0
C796 C 0.86796 0.26753 0.34192 0.0
C797 C 0.90119 0.25288 0.36961 0.0
C798 C 0.89522 0.26653 0.31197 0.0
C799 C 0.9562 0.25088 0.30908 0.0
C800 C 0.98982 0.23684 0.33676 0.0
C801 C 0.96247 0.23763 0.3667 0.0
C802 C 0.98532 0.24915 0.27732 0.0
C803 C 0.04416 0.26704 0.27024 0.0
C804 C 0.9553 0.23072 0.25396 0.0
C805 C 0.89263 0.21165 0.2597 0.0
C806 C 0.88345 0.18403 0.28605 0.0
C807 C 0.82373 0.16697 0.29165 0.0
C808 C 0.77301 0.17691 0.27083 0.0
C809 C 0.78202 0.20379 0.24426 0.0
C810 C 0.84151 0.22113 0.23868 0.0
C811 C 0.1751 0.23042 0.15828 0.0
C812 C 0.14375 0.24023 0.12906 0.0
C813 C 0.14263 0.23114 0.18691 0.0
C814 C 0.07834 0.24262 0.18718 0.0
C815 C 0.04608 0.25087 0.15806 0.0
C816 C 0.07836 0.24957 0.1293 0.0
C817 C 0.04568 0.24692 0.21777 0.0
C818 C 0.98594 0.22977 0.2246 0.0
C819 C 0.07412 0.26687 0.24067 0.0
C820 C 0.13365 0.28912 0.23404 0.0
C821 C 0.13904 0.31555 0.20658 0.0
C822 C 0.19523 0.3363 0.20049 0.0
C823 C 0.24607 0.33131 0.22192 0.0
C824 C 0.2408 0.30558 0.2495 0.0
C825 C 0.18491 0.28457 0.25558 0.0
H826 H 0.2895 0.34744 0.21719 0.0
H827 H 0.72681 0.16368 0.27519 0.0
H828 H 0.00325 0.22781 0.8884 0.0
H829 H 0.95498 0.22385 0.83666 0.0
H830 H 0.12177 0.27663 0.79041 0.0
H831 H 0.16852 0.28233 0.8421 0.0
H832 H 0.02475 0.30333 0.75932 0.0
H833 H 0.09033 0.17844 0.79606 0.0
H834 H 0.09979 0.11988 0.83327 0.0
H835 H 0.89612 0.10517 0.83123 0.0
H836 H 0.88536 0.16393 0.79427 0.0
H837 H 0.93929 0.25425 0.60752 0.0
H838 H 0.99651 0.25509 0.65763 0.0
H839 H 0.82411 0.2217 0.70951 0.0
H840 H 0.76683 0.22047 0.65974 0.0
H841 H 0.93028 0.18392 0.7359 0.0
H842 H 0.8706 0.3132 0.69854 0.0
H843 H 0.86899 0.37041 0.65934 0.0
H844 H 0.07431 0.37376 0.65982 0.0
H845 H 0.0771 0.31639 0.69887 0.0
C846 C 0.02949 0.23865 0.86719 0.0
C847 C 0.08998 0.25506 0.86938 0.0
C848 C 0.00208 0.23612 0.83753 0.0
C849 C 0.03514 0.24917 0.80934 0.0
C850 C 0.09516 0.26617 0.81161 0.0
C851 C 0.12209 0.26924 0.84125 0.0
C852 C 0.00703 0.2454 0.77758 0.0
C853 C 0.00503 0.277 0.75417 0.0
C854 C 0.98079 0.2112 0.77051 0.0
C855 C 0.98699 0.17577 0.79263 0.0
C856 C 0.04751 0.16285 0.80371 0.0
C857 C 0.05312 0.12961 0.82474 0.0
C858 C -0.00143 0.10887 0.83468 0.0
C859 C 0.93832 0.12129 0.82354 0.0
C860 C 0.93244 0.15454 0.80252 0.0
C861 C 0.91372 0.24657 0.62958 0.0
C862 C 0.84822 0.23748 0.62948 0.0
C863 C 0.94643 0.24734 0.65824 0.0
C864 C 0.91447 0.23892 0.68742 0.0
C865 C 0.84983 0.22843 0.68737 0.0
C866 C 0.81704 0.22787 0.6588 0.0
C867 C 0.94748 0.24186 0.71804 0.0
C868 C 0.95039 0.21011 0.74117 0.0
C869 C 0.97581 0.27566 0.72458 0.0
C870 C 0.97405 0.31034 0.70139 0.0
C871 C 0.91539 0.32603 0.69014 0.0
C872 C 0.91427 0.35851 0.66799 0.0
C873 C 0.97151 0.37566 0.65705 0.0
C874 C 0.03001 0.36044 0.66831 0.0
C875 C 0.03138 0.32798 0.69049 0.0
H876 H 0.97054 0.40078 0.63988 0.0
H877 H 0.003 0.08314 0.85096 0.0
H878 H 0.0617 0.69671 0.65836 0.0
H879 H 0.01383 0.69568 0.7109 0.0
H880 H 0.07738 0.80904 0.71355 0.0
H881 H 0.12702 0.80987 0.66122 0.0
H882 H 0.09653 0.76371 0.77069 0.0
H883 H 0.91295 0.79283 0.69826 0.0
H884 H 0.84695 0.77896 0.65322 0.0
H885 H 0.81633 0.6668 0.69965 0.0
H886 H 0.88224 0.68008 0.74487 0.0
H887 H 0.90617 0.80216 0.90165 0.0
H888 H 0.96271 0.8024 0.8512 0.0
H889 H 0.86204 0.70194 0.83551 0.0
H890 H 0.80259 0.70339 0.88451 0.0
H891 H 0.86394 0.74035 0.78412 0.0
H892 H 0.03213 0.70927 0.85891 0.0
H893 H 0.10512 0.7153 0.90338 0.0
H894 H 0.17674 0.81903 0.85428 0.0
H895 H 0.10342 0.81399 0.80975 0.0
C896 C 0.06554 0.72142 0.67013 0.0
C897 C 0.09765 0.75349 0.6555 0.0
C898 C 0.0379 0.72087 0.70015 0.0
C899 C 0.04107 0.7525 0.71608 0.0
C900 C 0.07418 0.78432 0.70175 0.0
C901 C 0.10218 0.78484 0.67175 0.0
C902 C 0.00903 0.75258 0.74742 0.0
C903 C 0.04556 0.75919 0.7737 0.0
C904 C 0.94303 0.74507 0.75162 0.0
C905 C 0.90209 0.73749 0.72491 0.0
C906 C 0.89193 0.76527 0.69883 0.0
C907 C 0.85465 0.75751 0.67329 0.0
C908 C 0.82745 0.72203 0.67358 0.0
C909 C 0.83741 0.69426 0.69944 0.0
C910 C 0.8745 0.70193 0.72508 0.0
C911 C 0.89649 0.78007 0.88744 0.0
C912 C 0.84988 0.75279 0.89709 0.0
C913 C 0.92923 0.78001 0.85861 0.0
C914 C 0.91785 0.75182 0.83936 0.0
C915 C 0.87195 0.72421 0.8495 0.0
C916 C 0.838 0.72494 0.87772 0.0
C917 C 0.95141 0.75159 0.80817 0.0
C918 C 0.91505 0.74499 0.78163 0.0
C919 C 0.01819 0.75803 0.80409 0.0
C920 C 0.06156 0.76148 0.83114 0.0
C921 C 0.06291 0.73358 0.85773 0.0
C922 C 0.10445 0.73679 0.88294 0.0
C923 C 0.14538 0.76759 0.88171 0.0
C924 C 0.14488 0.79524 0.85526 0.0
C925 C 0.10331 0.79223 0.83003 0.0
H926 H 0.1776 0.76996 0.90121 0.0
H927 H 0.79867 0.71606 0.65377 0.0
loop_
_geom_bond_atom_site_label_1
_geom_bond_atom_site_label_2
_geom_bond_distance
_geom_bond_site_symmetry_2
_ccdc_geom_bond_type
Co0 H3 2.400 . S
Co0 O4 2.009 . S
Co0 O12 2.115 . S
Co0 O13 2.315 . S
Co0 O24 2.053 . S
Co0 O27 2.094 . S
Co0 O30 2.122 . S
Co1 O4 2.126 . S
Co1 H5 2.388 1_556 S
Co1 O6 2.053 1_556 S
Co1 O9 2.047 . S
Co1 O15 2.113 . S
Co1 O26 2.063 . S
Co2 H3 2.388 1_554 S
Co2 O4 2.053 1_554 S
Co2 O6 2.126 . S
Co2 O11 2.063 . S
Co2 O25 2.047 . S
Co2 O31 2.113 . S
H3 Co0 2.400 . S
H3 Co2 2.388 1_556 S
H3 O4 0.760 . S
O4 Co0 2.009 . S
O4 Co1 2.126 . S
O4 Co2 2.053 1_556 S
O4 H3 0.760 . S
H5 Co1 2.388 1_554 S
H5 O6 0.760 . S
H5 Co7 2.400 . S
O6 Co1 2.053 1_554 S
O6 Co2 2.126 . S
O6 H5 0.760 . S
O6 Co7 2.009 . S
Co7 H5 2.400 . S
Co7 O6 2.009 . S
Co7 O8 2.053 . S
Co7 O10 2.094 . S
Co7 O14 2.122 . S
Co7 O28 2.115 . S
Co7 O29 2.315 . S
O8 Co7 2.053 . S
O8 C20 1.259 . S
O9 Co1 2.047 . S
O9 C20 1.257 1_556 S
O10 Co7 2.094 . S
O10 C21 1.253 . S
O11 Co2 2.063 . S
O11 C21 1.268 . S
O12 Co0 2.115 . S
O12 C22 1.281 . S
O13 Co0 2.315 . S
O13 C22 1.252 . S
O14 Co7 2.122 . S
O14 C23 1.272 . S
O15 Co1 2.113 . S
O15 C23 1.245 1_556 S
C16 O24 1.259 . S
C16 O25 1.257 1_556 S
C17 O26 1.268 . S
C17 O27 1.253 . S
C18 O28 1.281 . S
C18 O29 1.252 . S
C19 O30 1.272 . S
C19 O31 1.245 1_556 S
C20 O8 1.259 . S
C20 O9 1.257 1_554 S
C21 O10 1.253 . S
C21 O11 1.268 . S
C22 O12 1.281 . S
C22 O13 1.252 . S
C23 O14 1.272 . S
C23 O15 1.245 1_554 S
O24 Co0 2.053 . S
O24 C16 1.259 . S
O25 Co2 2.047 . S
O25 C16 1.257 1_554 S
O26 Co1 2.063 . S
O26 C17 1.268 . S
O27 Co0 2.094 . S
O27 C17 1.253 . S
O28 Co7 2.115 . S
O28 C18 1.281 . S
O29 Co7 2.315 . S
O29 C18 1.252 . S
O30 Co0 2.122 . S
O30 C19 1.272 . S
O31 Co2 2.113 . S
O31 C19 1.245 1_554 S
Co32 H35 2.400 . S
Co32 O36 2.009 . S
Co32 O44 2.115 . S
Co32 O45 2.315 . S
Co32 O56 2.053 . S
Co32 O59 2.094 . S
Co32 O62 2.122 . S
Co33 O36 2.126 . S
Co33 H37 2.388 1_556 S
Co33 O38 2.053 1_556 S
Co33 O41 2.047 . S
Co33 O47 2.113 . S
Co33 O58 2.063 . S
Co34 H35 2.388 1_554 S
Co34 O36 2.053 1_554 S
Co34 O38 2.126 . S
Co34 O43 2.063 . S
Co34 O57 2.047 . S
Co34 O63 2.113 . S
H35 Co32 2.400 . S
H35 Co34 2.388 1_556 S
H35 O36 0.760 . S
O36 Co32 2.009 . S
O36 Co33 2.126 . S
O36 Co34 2.053 1_556 S
O36 H35 0.760 . S
H37 Co33 2.388 1_554 S
H37 O38 0.760 . S
H37 Co39 2.400 . S
O38 Co33 2.053 1_554 S
O38 Co34 2.126 . S
O38 H37 0.760 . S
O38 Co39 2.009 . S
Co39 H37 2.400 . S
Co39 O38 2.009 . S
Co39 O40 2.053 . S
Co39 O42 2.094 . S
Co39 O46 2.122 . S
Co39 O60 2.115 . S
Co39 O61 2.315 . S
O40 Co39 2.053 . S
O40 C52 1.259 . S
O41 Co33 2.047 . S
O41 C52 1.257 1_556 S
O42 Co39 2.094 . S
O42 C53 1.253 . S
O43 Co34 2.063 . S
O43 C53 1.268 . S
O44 Co32 2.115 . S
O44 C54 1.281 . S
O45 Co32 2.315 . S
O45 C54 1.252 . S
O46 Co39 2.122 . S
O46 C55 1.272 . S
O47 Co33 2.113 . S
O47 C55 1.245 1_556 S
C48 O56 1.259 . S
C48 O57 1.257 1_556 S
C49 O58 1.268 . S
C49 O59 1.253 . S
C50 O60 1.281 . S
C50 O61 1.252 . S
C51 O62 1.272 . S
C51 O63 1.245 1_556 S
C52 O40 1.259 . S
C52 O41 1.257 1_554 S
C53 O42 1.253 . S
C53 O43 1.268 . S
C54 O44 1.281 . S
C54 O45 1.252 . S
C55 O46 1.272 . S
C55 O47 1.245 1_554 S
O56 Co32 2.053 . S
O56 C48 1.259 . S
O57 Co34 2.047 . S
O57 C48 1.257 1_554 S
O58 Co33 2.063 . S
O58 C49 1.268 . S
O59 Co32 2.094 . S
O59 C49 1.253 . S
O60 Co39 2.115 . S
O60 C50 1.281 . S
O61 Co39 2.315 . S
O61 C50 1.252 . S
O62 Co32 2.122 . S
O62 C51 1.272 . S
O63 Co34 2.113 . S
O63 C51 1.245 1_554 S
Co64 H67 2.400 . S
Co64 O68 2.009 . S
Co64 O76 2.115 . S
Co64 O77 2.315 . S
Co64 O88 2.053 . S
Co64 O91 2.094 . S
Co64 O94 2.122 . S
Co65 O68 2.126 . S
Co65 H69 2.388 . S
Co65 O70 2.053 . S
Co65 O73 2.047 . S
Co65 O79 2.113 . S
Co65 O90 2.063 . S
Co66 H67 2.388 . S
Co66 O68 2.053 . S
Co66 O70 2.126 . S
Co66 O75 2.063 . S
Co66 O89 2.047 . S
Co66 O95 2.113 . S
H67 Co64 2.400 . S
H67 Co66 2.388 . S
H67 O68 0.760 . S
O68 Co64 2.009 . S
O68 Co65 2.126 . S
O68 Co66 2.053 . S
O68 H67 0.760 . S
H69 Co65 2.388 . S
H69 O70 0.760 . S
H69 Co71 2.400 . S
O70 Co65 2.053 . S
O70 Co66 2.126 . S
O70 H69 0.760 . S
O70 Co71 2.009 . S
Co71 H69 2.400 . S
Co71 O70 2.009 . S
Co71 O72 2.053 . S
Co71 O74 2.094 . S
Co71 O78 2.122 . S
Co71 O92 2.115 . S
Co71 O93 2.315 . S
O72 Co71 2.053 . S
O72 C84 1.259 . S
O73 Co65 2.047 . S
O73 C84 1.257 . S
O74 Co71 2.094 . S
O74 C85 1.253 . S
O75 Co66 2.063 . S
O75 C85 1.268 . S
O76 Co64 2.115 . S
O76 C86 1.281 . S
O77 Co64 2.315 . S
O77 C86 1.252 . S
O78 Co71 2.122 . S
O78 C87 1.272 . S
O79 Co65 2.113 . S
O79 C87 1.245 . S
C80 O88 1.259 . S
C80 O89 1.257 . S
C81 O90 1.268 . S
C81 O91 1.253 . S
C82 O92 1.281 . S
C82 O93 1.252 . S
C83 O94 1.272 . S
C83 O95 1.245 . S
C84 O72 1.259 . S
C84 O73 1.257 . S
C85 O74 1.253 . S
C85 O75 1.268 . S
C86 O76 1.281 . S
C86 O77 1.252 . S
C87 O78 1.272 . S
C87 O79 1.245 . S
O88 Co64 2.053 . S
O88 C80 1.259 . S
O89 Co66 2.047 . S
O89 C80 1.257 . S
O90 Co65 2.063 . S
O90 C81 1.268 . S
O91 Co64 2.094 . S
O91 C81 1.253 . S
O92 Co71 2.115 . S
O92 C82 1.281 . S
O93 Co71 2.315 . S
O93 C82 1.252 . S
O94 Co64 2.122 . S
O94 C83 1.272 . S
O95 Co66 2.113 . S
O95 C83 1.245 . S
Co96 H99 2.400 . S
Co96 O100 2.009 . S
Co96 O108 2.115 . S
Co96 O109 2.315 . S
Co96 O120 2.053 . S
Co96 O123 2.094 . S
Co96 O126 2.122 . S
Co97 O100 2.126 . S
Co97 H101 2.388 . S
Co97 O102 2.053 . S
Co97 O105 2.047 . S
Co97 O111 2.113 . S
Co97 O122 2.063 . S
Co98 H99 2.388 . S
Co98 O100 2.053 . S
Co98 O102 2.126 . S
Co98 O107 2.063 . S
Co98 O121 2.047 . S
Co98 O127 2.113 . S
H99 Co96 2.400 . S
H99 Co98 2.388 . S
H99 O100 0.760 . S
O100 Co96 2.009 . S
O100 Co97 2.126 . S
O100 Co98 2.053 . S
O100 H99 0.760 . S
H101 Co97 2.388 . S
H101 O102 0.760 . S
H101 Co103 2.400 . S
O102 Co97 2.053 . S
O102 Co98 2.126 . S
O102 H101 0.760 . S
O102 Co103 2.009 . S
Co103 H101 2.400 . S
Co103 O102 2.009 . S
Co103 O104 2.053 . S
Co103 O106 2.094 . S
Co103 O110 2.122 . S
Co103 O124 2.115 . S
Co103 O125 2.315 . S
O104 Co103 2.053 . S
O104 C116 1.259 . S
O105 Co97 2.047 . S
O105 C116 1.257 . S
O106 Co103 2.094 . S
O106 C117 1.253 . S
O107 Co98 2.063 . S
O107 C117 1.268 . S
O108 Co96 2.115 . S
O108 C118 1.281 . S
O109 Co96 2.315 . S
O109 C118 1.252 . S
O110 Co103 2.122 . S
O110 C119 1.272 . S
O111 Co97 2.113 . S
O111 C119 1.245 . S
C112 O120 1.259 . S
C112 O121 1.257 . S
C113 O122 1.268 . S
C113 O123 1.253 . S
C114 O124 1.281 . S
C114 O125 1.252 . S
C115 O126 1.272 . S
C115 O127 1.245 . S
C116 O104 1.259 . S
C116 O105 1.257 . S
C117 O106 1.253 . S
C117 O107 1.268 . S
C118 O108 1.281 . S
C118 O109 1.252 . S
C119 O110 1.272 . S
C119 O111 1.245 . S
O120 Co96 2.053 . S
O120 C112 1.259 . S
O121 Co98 2.047 . S
O121 C112 1.257 . S
O122 Co97 2.063 . S
O122 C113 1.268 . S
O123 Co96 2.094 . S
O123 C113 1.253 . S
O124 Co103 2.115 . S
O124 C114 1.281 . S
O125 Co103 2.315 . S
O125 C114 1.252 . S
O126 Co96 2.122 . S
O126 C115 1.272 . S
O127 Co98 2.113 . S
O127 C115 1.245 . S
H128 C146 0.951 . S
H129 C148 0.951 . S
H130 C150 0.950 . S
H131 C151 0.950 . S
H132 C153 0.950 . S
H133 C156 0.950 . S
H134 C157 0.950 . S
H135 C159 0.950 . S
H136 C160 0.950 . S
H137 C161 0.951 1_455 S
H138 C163 0.951 . S
H139 C165 0.950 . S
H140 C166 0.950 1_455 S
H141 C168 0.950 . S
H142 C171 0.950 . S
H143 C172 0.950 . S
H144 C174 0.950 . S
H145 C175 0.950 . S
C146 H128 0.951 . S
C146 C147 1.366 . S
C146 C148 1.388 . S
C147 C146 1.366 . S
C147 C151 1.385 1_554 S
C148 H129 0.951 . S
C148 C146 1.388 . S
C148 C149 1.366 . S
C149 C148 1.366 . S
C149 C150 1.414 1_554 S
C149 C152 1.499 . S
C150 H130 0.950 . S
C150 C149 1.414 1_556 S
C150 C151 1.374 . S
C151 H131 0.950 . S
C151 C147 1.385 1_556 S
C151 C150 1.374 . S
C152 C149 1.499 . S
C152 C153 1.373 1_554 S
C152 C154 1.389 . S
C153 H132 0.950 . S
C153 C152 1.373 1_556 S
C153 C169 1.377 . S
C154 C152 1.389 . S
C154 C155 1.524 . S
C154 C168 1.377 . S
C155 C154 1.524 . S
C155 C156 1.397 . S
C155 C160 1.363 . S
C156 H133 0.950 . S
C156 C155 1.397 . S
C156 C157 1.334 . S
C157 H134 0.950 . S
C157 C156 1.334 . S
C157 C158 1.287 . S
C158 C157 1.287 . S
C158 C159 1.524 . S
C158 H177 0.913 . S
C159 H135 0.950 . S
C159 C158 1.524 . S
C159 C160 1.415 . S
C160 H136 0.950 . S
C160 C155 1.363 . S
C160 C159 1.415 . S
C161 H137 0.951 1_655 S
C161 C162 1.366 1_655 S
C161 C163 1.388 . S
C162 C161 1.366 1_455 S
C162 C166 1.385 1_456 S
C163 H138 0.951 . S
C163 C161 1.388 . S
C163 C164 1.366 . S
C164 C163 1.366 . S
C164 C165 1.414 1_556 S
C164 C167 1.499 . S
C165 H139 0.950 . S
C165 C164 1.414 1_554 S
C165 C166 1.374 . S
C166 H140 0.950 1_655 S
C166 C162 1.385 1_654 S
C166 C165 1.374 . S
C167 C164 1.499 . S
C167 C168 1.373 1_556 S
C167 C169 1.389 . S
C168 H141 0.950 . S
C168 C154 1.377 . S
C168 C167 1.373 1_554 S
C169 C153 1.377 . S
C169 C167 1.389 . S
C169 C170 1.524 . S
C170 C169 1.524 . S
C170 C171 1.397 . S
C170 C175 1.363 . S
C171 H142 0.950 . S
C171 C170 1.397 . S
C171 C172 1.334 . S
C172 H143 0.950 . S
C172 C171 1.334 . S
C172 C173 1.287 . S
C173 C172 1.287 . S
C173 C174 1.524 . S
C173 H176 0.999 . S
C174 H144 0.950 . S
C174 C173 1.524 . S
C174 C175 1.415 . S
C175 H145 0.950 . S
C175 C170 1.363 . S
C175 C174 1.415 . S
H176 C173 0.999 . S
H177 C158 0.913 . S
H178 C196 0.951 1_655 S
H179 C198 0.951 . S
H180 C200 0.950 . S
H181 C201 0.950 1_655 S
H182 C203 0.950 . S
H183 C206 0.950 . S
H184 C207 0.950 . S
H185 C209 0.950 . S
H186 C210 0.950 . S
H187 C211 0.951 . S
H188 C213 0.951 . S
H189 C215 0.950 . S
H190 C216 0.950 . S
H191 C218 0.950 . S
H192 C221 0.950 . S
H193 C222 0.950 . S
H194 C224 0.950 . S
H195 C225 0.950 . S
C196 H178 0.951 1_455 S
C196 C197 1.366 1_455 S
C196 C198 1.388 . S
C197 C196 1.366 1_655 S
C197 C201 1.385 1_654 S
C198 H179 0.951 . S
C198 C196 1.388 . S
C198 C199 1.366 . S
C199 C198 1.366 . S
C199 C200 1.414 1_554 S
C199 C202 1.499 . S
C200 H180 0.950 . S
C200 C199 1.414 1_556 S
C200 C201 1.374 . S
C201 H181 0.950 1_455 S
C201 C197 1.385 1_456 S
C201 C200 1.374 . S
C202 C199 1.499 . S
C202 C203 1.373 1_554 S
C202 C204 1.389 . S
C203 H182 0.950 . S
C203 C202 1.373 1_556 S
C203 C219 1.377 . S
C204 C202 1.389 . S
C204 C205 1.524 . S
C204 C218 1.377 . S
C205 C204 1.524 . S
C205 C206 1.397 . S
C205 C210 1.363 . S
C206 H183 0.950 . S
C206 C205 1.397 . S
C206 C207 1.334 . S
C207 H184 0.950 . S
C207 C206 1.334 . S
C207 C208 1.287 . S
C208 C207 1.287 . S
C208 C209 1.524 . S
C208 H227 0.913 . S
C209 H185 0.950 . S
C209 C208 1.524 . S
C209 C210 1.415 . S
C210 H186 0.950 . S
C210 C205 1.363 . S
C210 C209 1.415 . S
C211 H187 0.951 . S
C211 C212 1.366 . S
C211 C213 1.388 . S
C212 C211 1.366 . S
C212 C216 1.385 1_556 S
C213 H188 0.951 . S
C213 C211 1.388 . S
C213 C214 1.366 . S
C214 C213 1.366 . S
C214 C215 1.414 1_556 S
C214 C217 1.499 . S
C215 H189 0.950 . S
C215 C214 1.414 1_554 S
C215 C216 1.374 . S
C216 H190 0.950 . S
C216 C212 1.385 1_554 S
C216 C215 1.374 . S
C217 C214 1.499 . S
C217 C218 1.373 1_556 S
C217 C219 1.389 . S
C218 H191 0.950 . S
C218 C204 1.377 . S
C218 C217 1.373 1_554 S
C219 C203 1.377 . S
C219 C217 1.389 . S
C219 C220 1.524 . S
C220 C219 1.524 . S
C220 C221 1.397 . S
C220 C225 1.363 . S
C221 H192 0.950 . S
C221 C220 1.397 . S
C221 C222 1.334 . S
C222 H193 0.950 . S
C222 C221 1.334 . S
C222 C223 1.287 . S
C223 C222 1.287 . S
C223 C224 1.524 . S
C223 H226 0.999 . S
C224 H194 0.950 . S
C224 C223 1.524 . S
C224 C225 1.415 . S
C225 H195 0.950 . S
C225 C220 1.363 . S
C225 C224 1.415 . S
H226 C223 0.999 . S
H227 C208 0.913 . S
H228 C246 0.951 . S
H229 C248 0.951 . S
H230 C250 0.950 . S
H231 C251 0.950 . S
H232 C253 0.950 . S
H233 C256 0.950 . S
H234 C257 0.950 . S
H235 C259 0.950 . S
H236 C260 0.950 . S
H237 C261 0.951 1_455 S
H238 C263 0.951 . S
H239 C265 0.950 . S
H240 C266 0.950 1_455 S
H241 C268 0.950 . S
H242 C271 0.950 . S
H243 C272 0.950 . S
H244 C274 0.950 . S
H245 C275 0.950 . S
C246 H228 0.951 . S
C246 C247 1.366 . S
C246 C248 1.388 . S
C247 C246 1.366 . S
C247 C251 1.385 . S
C248 H229 0.951 . S
C248 C246 1.388 . S
C248 C249 1.366 . S
C249 C248 1.366 . S
C249 C250 1.414 . S
C249 C252 1.499 . S
C250 H230 0.950 . S
C250 C249 1.414 . S
C250 C251 1.374 . S
C251 H231 0.950 . S
C251 C247 1.385 . S
C251 C250 1.374 . S
C252 C249 1.499 . S
C252 C253 1.373 . S
C252 C254 1.389 . S
C253 H232 0.950 . S
C253 C252 1.373 . S
C253 C269 1.377 . S
C254 C252 1.389 . S
C254 C255 1.524 . S
C254 C268 1.377 . S
C255 C254 1.524 . S
C255 C256 1.397 . S
C255 C260 1.363 . S
C256 H233 0.950 . S
C256 C255 1.397 . S
C256 C257 1.334 . S
C257 H234 0.950 . S
C257 C256 1.334 . S
C257 C258 1.287 . S
C258 C257 1.287 . S
C258 C259 1.524 . S
C258 H277 0.913 . S
C259 H235 0.950 . S
C259 C258 1.524 . S
C259 C260 1.415 . S
C260 H236 0.950 . S
C260 C255 1.363 . S
C260 C259 1.415 . S
C261 H237 0.951 1_655 S
C261 C262 1.366 1_655 S
C261 C263 1.388 . S
C262 C261 1.366 1_455 S
C262 C266 1.385 1_455 S
C263 H238 0.951 . S
C263 C261 1.388 . S
C263 C264 1.366 . S
C264 C263 1.366 . S
C264 C265 1.414 . S
C264 C267 1.499 . S
C265 H239 0.950 . S
C265 C264 1.414 . S
C265 C266 1.374 . S
C266 H240 0.950 1_655 S
C266 C262 1.385 1_655 S
C266 C265 1.374 . S
C267 C264 1.499 . S
C267 C268 1.373 . S
C267 C269 1.389 . S
C268 H241 0.950 . S
C268 C254 1.377 . S
C268 C267 1.373 . S
C269 C253 1.377 . S
C269 C267 1.389 . S
C269 C270 1.524 . S
C270 C269 1.524 . S
C270 C271 1.397 . S
C270 C275 1.363 . S
C271 H242 0.950 . S
C271 C270 1.397 . S
C271 C272 1.334 . S
C272 H243 0.950 . S
C272 C271 1.334 . S
C272 C273 1.287 . S
C273 C272 1.287 . S
C273 C274 1.524 . S
C273 H276 0.999 . S
C274 H244 0.950 . S
C274 C273 1.524 . S
C274 C275 1.415 . S
C275 H245 0.950 . S
C275 C270 1.363 . S
C275 C274 1.415 . S
H276 C273 0.999 . S
H277 C258 0.913 . S
H278 C296 0.951 1_655 S
H279 C298 0.951 . S
H280 C300 0.950 . S
H281 C301 0.950 1_655 S
H282 C303 0.950 . S
H283 C306 0.950 . S
H284 C307 0.950 . S
H285 C309 0.950 . S
H286 C310 0.950 . S
H287 C311 0.951 . S
H288 C313 0.951 . S
H289 C315 0.950 . S
H290 C316 0.950 . S
H291 C318 0.950 . S
H292 C321 0.950 . S
H293 C322 0.950 . S
H294 C324 0.950 . S
H295 C325 0.950 . S
C296 H278 0.951 1_455 S
C296 C297 1.366 1_455 S
C296 C298 1.388 . S
C297 C296 1.366 1_655 S
C297 C301 1.385 1_655 S
C298 H279 0.951 . S
C298 C296 1.388 . S
C298 C299 1.366 . S
C299 C298 1.366 . S
C299 C300 1.414 . S
C299 C302 1.499 . S
C300 H280 0.950 . S
C300 C299 1.414 . S
C300 C301 1.374 . S
C301 H281 0.950 1_455 S
C301 C297 1.385 1_455 S
C301 C300 1.374 . S
C302 C299 1.499 . S
C302 C303 1.373 . S
C302 C304 1.389 . S
C303 H282 0.950 . S
C303 C302 1.373 . S
C303 C319 1.377 . S
C304 C302 1.389 . S
C304 C305 1.524 . S
C304 C318 1.377 . S
C305 C304 1.524 . S
C305 C306 1.397 . S
C305 C310 1.363 . S
C306 H283 0.950 . S
C306 C305 1.397 . S
C306 C307 1.334 . S
C307 H284 0.950 . S
C307 C306 1.334 . S
C307 C308 1.287 . S
C308 C307 1.287 . S
C308 C309 1.524 . S
C308 H327 0.913 . S
C309 H285 0.950 . S
C309 C308 1.524 . S
C309 C310 1.415 . S
C310 H286 0.950 . S
C310 C305 1.363 . S
C310 C309 1.415 . S
C311 H287 0.951 . S
C311 C312 1.366 . S
C311 C313 1.388 . S
C312 C311 1.366 . S
C312 C316 1.385 . S
C313 H288 0.951 . S
C313 C311 1.388 . S
C313 C314 1.366 . S
C314 C313 1.366 . S
C314 C315 1.414 . S
C314 C317 1.499 . S
C315 H289 0.950 . S
C315 C314 1.414 . S
C315 C316 1.374 . S
C316 H290 0.950 . S
C316 C312 1.385 . S
C316 C315 1.374 . S
C317 C314 1.499 . S
C317 C318 1.373 . S
C317 C319 1.389 . S
C318 H291 0.950 . S
C318 C304 1.377 . S
C318 C317 1.373 . S
C319 C303 1.377 . S
C319 C317 1.389 . S
C319 C320 1.524 . S
C320 C319 1.524 . S
C320 C321 1.397 . S
C320 C325 1.363 . S
C321 H292 0.950 . S
C321 C320 1.397 . S
C321 C322 1.334 . S
C322 H293 0.950 . S
C322 C321 1.334 . S
C322 C323 1.287 . S
C323 C322 1.287 . S
C323 C324 1.524 . S
C323 H326 0.999 . S
C324 H294 0.950 . S
C324 C323 1.524 . S
C324 C325 1.415 . S
C325 H295 0.950 . S
C325 C320 1.363 . S
C325 C324 1.415 . S
H326 C323 0.999 . S
H327 C308 0.913 . S
H328 C346 0.951 . S
H329 C348 0.951 . S
H330 C350 0.950 . S
H331 C351 0.950 . S
H332 C353 0.950 . S
H333 C356 0.950 . S
H334 C357 0.950 . S
H335 C359 0.950 . S
H336 C360 0.950 . S
H337 C361 0.951 . S
H338 C363 0.951 . S
H339 C365 0.950 . S
H340 C366 0.950 . S
H341 C368 0.950 . S
H342 C371 0.950 . S
H343 C372 0.950 . S
H344 C374 0.950 . S
H345 C375 0.950 . S
C346 H328 0.951 . S
C346 C347 1.366 1_556 S
C346 C348 1.388 . S
C347 C346 1.366 1_554 S
C347 C351 1.385 . S
C348 H329 0.951 . S
C348 C346 1.388 . S
C348 C349 1.366 1_556 S
C349 C348 1.366 1_554 S
C349 C350 1.414 . S
C349 C352 1.499 . S
C350 H330 0.950 . S
C350 C349 1.414 . S
C350 C351 1.374 . S
C351 H331 0.950 . S
C351 C347 1.385 . S
C351 C350 1.374 . S
C352 C349 1.499 . S
C352 C353 1.373 1_554 S
C352 C354 1.389 . S
C353 H332 0.950 . S
C353 C352 1.373 1_556 S
C353 C369 1.377 . S
C354 C352 1.389 . S
C354 C355 1.524 . S
C354 C368 1.377 . S
C355 C354 1.524 . S
C355 C356 1.397 . S
C355 C360 1.363 . S
C356 H333 0.950 . S
C356 C355 1.397 . S
C356 C357 1.334 . S
C357 H334 0.950 . S
C357 C356 1.334 . S
C357 C358 1.287 . S
C358 C357 1.287 . S
C358 C359 1.524 . S
C358 H377 0.913 . S
C359 H335 0.950 . S
C359 C358 1.524 . S
C359 C360 1.415 . S
C360 H336 0.950 . S
C360 C355 1.363 . S
C360 C359 1.415 . S
C361 H337 0.951 . S
C361 C362 1.366 1_554 S
C361 C363 1.388 . S
C362 C361 1.366 1_556 S
C362 C366 1.385 . S
C363 H338 0.951 . S
C363 C361 1.388 . S
C363 C364 1.366 1_554 S
C364 C363 1.366 1_556 S
C364 C365 1.414 . S
C364 C367 1.499 . S
C365 H339 0.950 . S
C365 C364 1.414 . S
C365 C366 1.374 . S
C366 H340 0.950 . S
C366 C362 1.385 . S
C366 C365 1.374 . S
C367 C364 1.499 . S
C367 C368 1.373 1_556 S
C367 C369 1.389 . S
C368 H341 0.950 . S
C368 C354 1.377 . S
C368 C367 1.373 1_554 S
C369 C353 1.377 . S
C369 C367 1.389 . S
C369 C370 1.524 . S
C370 C369 1.524 . S
C370 C371 1.397 . S
C370 C375 1.363 . S
C371 H342 0.950 . S
C371 C370 1.397 . S
C371 C372 1.334 . S
C372 H343 0.950 . S
C372 C371 1.334 . S
C372 C373 1.287 . S
C373 C372 1.287 . S
C373 C374 1.524 . S
C373 H376 0.999 . S
C374 H344 0.950 . S
C374 C373 1.524 . S
C374 C375 1.415 . S
C375 H345 0.950 . S
C375 C370 1.363 . S
C375 C374 1.415 . S
H376 C373 0.999 . S
H377 C358 0.913 . S
H378 C396 0.951 . S
H379 C398 0.951 . S
H380 C400 0.950 . S
H381 C401 0.950 . S
H382 C403 0.950 . S
H383 C406 0.950 . S
H384 C407 0.950 . S
H385 C409 0.950 . S
H386 C410 0.950 . S
H387 C411 0.951 . S
H388 C413 0.951 . S
H389 C415 0.950 . S
H390 C416 0.950 . S
H391 C418 0.950 . S
H392 C421 0.950 . S
H393 C422 0.950 . S
H394 C424 0.950 . S
H395 C425 0.950 . S
C396 H378 0.951 . S
C396 C397 1.366 . S
C396 C398 1.388 . S
C397 C396 1.366 . S
C397 C401 1.385 . S
C398 H379 0.951 . S
C398 C396 1.388 . S
C398 C399 1.366 . S
C399 C398 1.366 . S
C399 C400 1.414 . S
C399 C402 1.499 . S
C400 H380 0.950 . S
C400 C399 1.414 . S
C400 C401 1.374 . S
C401 H381 0.950 . S
C401 C397 1.385 . S
C401 C400 1.374 . S
C402 C399 1.499 . S
C402 C403 1.373 . S
C402 C404 1.389 . S
C403 H382 0.950 . S
C403 C402 1.373 . S
C403 C419 1.377 . S
C404 C402 1.389 . S
C404 C405 1.524 . S
C404 C418 1.377 . S
C405 C404 1.524 . S
C405 C406 1.397 . S
C405 C410 1.363 . S
C406 H383 0.950 . S
C406 C405 1.397 . S
C406 C407 1.334 . S
C407 H384 0.950 . S
C407 C406 1.334 . S
C407 C408 1.287 . S
C408 C407 1.287 . S
C408 C409 1.524 . S
C408 H427 0.913 . S
C409 H385 0.950 . S
C409 C408 1.524 . S
C409 C410 1.415 . S
C410 H386 0.950 . S
C410 C405 1.363 . S
C410 C409 1.415 . S
C411 H387 0.951 . S
C411 C412 1.366 . S
C411 C413 1.388 . S
C412 C411 1.366 . S
C412 C416 1.385 . S
C413 H388 0.951 . S
C413 C411 1.388 . S
C413 C414 1.366 . S
C414 C413 1.366 . S
C414 C415 1.414 . S
C414 C417 1.499 . S
C415 H389 0.950 . S
C415 C414 1.414 . S
C415 C416 1.374 . S
C416 H390 0.950 . S
C416 C412 1.385 . S
C416 C415 1.374 . S
C417 C414 1.499 . S
C417 C418 1.373 . S
C417 C419 1.389 . S
C418 H391 0.950 . S
C418 C404 1.377 . S
C418 C417 1.373 . S
C419 C403 1.377 . S
C419 C417 1.389 . S
C419 C420 1.524 . S
C420 C419 1.524 . S
C420 C421 1.397 . S
C420 C425 1.363 . S
C421 H392 0.950 . S
C421 C420 1.397 . S
C421 C422 1.334 . S
C422 H393 0.950 . S
C422 C421 1.334 . S
C422 C423 1.287 . S
C423 C422 1.287 . S
C423 C424 1.524 . S
C423 H426 0.999 . S
C424 H394 0.950 . S
C424 C423 1.524 . S
C424 C425 1.415 . S
C425 H395 0.950 . S
C425 C420 1.363 . S
C425 C424 1.415 . S
H426 C423 0.999 . S
H427 C408 0.913 . S
H428 C446 0.951 . S
H429 C448 0.951 . S
H430 C450 0.950 . S
H431 C451 0.950 . S
H432 C453 0.952 . S
H433 C456 0.950 . S
H434 C457 0.950 . S
H435 C459 0.950 . S
H436 C460 0.950 . S
H437 C461 0.951 . S
H438 C463 0.951 . S
H439 C465 0.950 . S
H440 C466 0.950 . S
H441 C468 0.952 . S
H442 C471 0.950 . S
H443 C472 0.950 . S
H444 C474 0.950 . S
H445 C475 0.950 . S
C446 H428 0.951 . S
C446 C447 1.366 . S
C446 C448 1.388 . S
C447 C446 1.366 . S
C447 C451 1.385 1_554 S
C448 H429 0.951 . S
C448 C446 1.388 . S
C448 C449 1.362 1_554 S
C449 C448 1.362 1_556 S
C449 C450 1.417 . S
C449 C452 1.500 . S
C450 H430 0.950 . S
C450 C449 1.417 . S
C450 C451 1.374 . S
C451 H431 0.950 . S
C451 C447 1.385 1_556 S
C451 C450 1.374 . S
C452 C449 1.500 . S
C452 C453 1.374 1_455 S
C452 C454 1.389 1_545 S
C453 H432 0.952 . S
C453 C452 1.374 1_655 S
C453 C469 1.377 1_556 S
C454 C452 1.389 1_565 S
C454 C455 1.524 . S
C454 C468 1.378 1_556 S
C455 C454 1.524 . S
C455 C456 1.397 1_565 S
C455 C460 1.363 1_556 S
C456 H433 0.950 . S
C456 C455 1.397 1_545 S
C456 C457 1.334 . S
C457 H434 0.950 . S
C457 C456 1.334 . S
C457 C458 1.287 1_545 S
C458 C457 1.287 1_565 S
C458 C459 1.524 1_556 S
C458 H477 0.913 . S
C459 H435 0.950 . S
C459 C458 1.524 1_554 S
C459 C460 1.415 . S
C460 H436 0.950 . S
C460 C455 1.363 1_554 S
C460 C459 1.415 . S
C461 H437 0.951 . S
C461 C462 1.366 . S
C461 C463 1.388 . S
C462 C461 1.366 . S
C462 C466 1.385 1_556 S
C463 H438 0.951 . S
C463 C461 1.388 . S
C463 C464 1.356 1_556 S
C464 C463 1.356 1_554 S
C464 C465 1.421 . S
C464 C467 1.501 . S
C465 H439 0.950 . S
C465 C464 1.421 . S
C465 C466 1.374 . S
C466 H440 0.950 . S
C466 C462 1.385 1_554 S
C466 C465 1.374 . S
C467 C464 1.501 . S
C467 C468 1.374 1_655 S
C467 C469 1.389 1_565 S
C468 H441 0.952 . S
C468 C454 1.378 1_554 S
C468 C467 1.374 1_455 S
C469 C453 1.377 1_554 S
C469 C467 1.389 1_545 S
C469 C470 1.524 . S
C470 C469 1.524 . S
C470 C471 1.397 1_545 S
C470 C475 1.363 1_554 S
C471 H442 0.950 . S
C471 C470 1.397 1_565 S
C471 C472 1.334 . S
C472 H443 0.950 . S
C472 C471 1.334 . S
C472 C473 1.287 1_565 S
C473 C472 1.287 1_545 S
C473 C474 1.524 1_554 S
C473 H476 0.999 . S
C474 H444 0.950 . S
C474 C473 1.524 1_556 S
C474 C475 1.415 . S
C475 H445 0.950 . S
C475 C470 1.363 1_556 S
C475 C474 1.415 . S
H476 C473 0.999 . S
H477 C458 0.913 . S
H478 C496 0.951 . S
H479 C498 0.951 . S
H480 C500 0.950 1_455 S
H481 C501 0.950 . S
H482 C503 0.950 . S
H483 C506 0.950 . S
H484 C507 0.950 . S
H485 C509 0.950 . S
H486 C510 0.950 . S
H487 C511 0.951 . S
H488 C513 0.951 . S
H489 C515 0.950 1_655 S
H490 C516 0.950 . S
H491 C518 0.950 . S
H492 C521 0.950 . S
H493 C522 0.950 . S
H494 C524 0.950 . S
H495 C525 0.950 . S
C496 H478 0.951 . S
C496 C497 1.366 . S
C496 C498 1.388 . S
C497 C496 1.366 . S
C497 C501 1.385 . S
C498 H479 0.951 . S
C498 C496 1.388 . S
C498 C499 1.366 . S
C499 C498 1.366 . S
C499 C500 1.414 . S
C499 C502 1.499 . S
C500 H480 0.950 1_655 S
C500 C499 1.414 . S
C500 C501 1.374 . S
C501 H481 0.950 . S
C501 C497 1.385 . S
C501 C500 1.374 . S
C502 C499 1.499 . S
C502 C503 1.373 1_655 S
C502 C504 1.389 1_545 S
C503 H482 0.950 . S
C503 C502 1.373 1_455 S
C503 C519 1.377 . S
C504 C502 1.389 1_565 S
C504 C505 1.524 . S
C504 C518 1.377 . S
C505 C504 1.524 . S
C505 C506 1.397 1_565 S
C505 C510 1.363 . S
C506 H483 0.950 . S
C506 C505 1.397 1_545 S
C506 C507 1.334 . S
C507 H484 0.950 . S
C507 C506 1.334 . S
C507 C508 1.287 1_545 S
C508 C507 1.287 1_565 S
C508 C509 1.524 . S
C508 H527 0.913 . S
C509 H485 0.950 . S
C509 C508 1.524 . S
C509 C510 1.415 . S
C510 H486 0.950 . S
C510 C505 1.363 . S
C510 C509 1.415 . S
C511 H487 0.951 . S
C511 C512 1.366 . S
C511 C513 1.388 . S
C512 C511 1.366 . S
C512 C516 1.385 . S
C513 H488 0.951 . S
C513 C511 1.388 . S
C513 C514 1.366 . S
C514 C513 1.366 . S
C514 C515 1.414 . S
C514 C517 1.499 . S
C515 H489 0.950 1_455 S
C515 C514 1.414 . S
C515 C516 1.374 . S
C516 H490 0.950 . S
C516 C512 1.385 . S
C516 C515 1.374 . S
C517 C514 1.499 . S
C517 C518 1.373 1_455 S
C517 C519 1.389 1_565 S
C518 H491 0.950 . S
C518 C504 1.377 . S
C518 C517 1.373 1_655 S
C519 C503 1.377 . S
C519 C517 1.389 1_545 S
C519 C520 1.524 . S
C520 C519 1.524 . S
C520 C521 1.397 1_545 S
C520 C525 1.363 . S
C521 H492 0.950 . S
C521 C520 1.397 1_565 S
C521 C522 1.334 . S
C522 H493 0.950 . S
C522 C521 1.334 . S
C522 C523 1.287 1_565 S
C523 C522 1.287 1_545 S
C523 C524 1.524 . S
C523 H526 0.999 . S
C524 H494 0.950 . S
C524 C523 1.524 . S
C524 C525 1.415 . S
C525 H495 0.950 . S
C525 C520 1.363 . S
C525 C524 1.415 . S
H526 C523 0.999 . S
H527 C508 0.913 . S
H528 C546 0.951 . S
H529 C548 0.951 . S
H530 C550 0.950 . S
H531 C551 0.950 . S
H532 C553 0.950 . S
H533 C556 0.950 . S
H534 C557 0.950 . S
H535 C559 0.950 . S
H536 C560 0.950 . S
H537 C561 0.951 . S
H538 C563 0.951 . S
H539 C565 0.950 . S
H540 C566 0.950 . S
H541 C568 0.950 . S
H542 C571 0.950 . S
H543 C572 0.950 . S
H544 C574 0.950 . S
H545 C575 0.950 . S
C546 H528 0.951 . S
C546 C547 1.366 . S
C546 C548 1.388 . S
C547 C546 1.366 . S
C547 C551 1.385 . S
C548 H529 0.951 . S
C548 C546 1.388 . S
C548 C549 1.366 . S
C549 C548 1.366 . S
C549 C550 1.414 . S
C549 C552 1.499 . S
C550 H530 0.950 . S
C550 C549 1.414 . S
C550 C551 1.374 . S
C551 H531 0.950 . S
C551 C547 1.385 . S
C551 C550 1.374 . S
C552 C549 1.499 . S
C552 C553 1.373 . S
C552 C554 1.389 . S
C553 H532 0.950 . S
C553 C552 1.373 . S
C553 C569 1.377 . S
C554 C552 1.389 . S
C554 C555 1.524 . S
C554 C568 1.377 . S
C555 C554 1.524 . S
C555 C556 1.397 . S
C555 C560 1.363 . S
C556 H533 0.950 . S
C556 C555 1.397 . S
C556 C557 1.334 . S
C557 H534 0.950 . S
C557 C556 1.334 . S
C557 C558 1.287 . S
C558 C557 1.287 . S
C558 C559 1.524 . S
C558 H577 0.913 . S
C559 H535 0.950 . S
C559 C558 1.524 . S
C559 C560 1.415 . S
C560 H536 0.950 . S
C560 C555 1.363 . S
C560 C559 1.415 . S
C561 H537 0.951 . S
C561 C562 1.366 . S
C561 C563 1.388 . S
C562 C561 1.366 . S
C562 C566 1.385 . S
C563 H538 0.951 . S
C563 C561 1.388 . S
C563 C564 1.366 . S
C564 C563 1.366 . S
C564 C565 1.414 . S
C564 C567 1.499 . S
C565 H539 0.950 . S
C565 C564 1.414 . S
C565 C566 1.374 . S
C566 H540 0.950 . S
C566 C562 1.385 . S
C566 C565 1.374 . S
C567 C564 1.499 . S
C567 C568 1.373 . S
C567 C569 1.389 . S
C568 H541 0.950 . S
C568 C554 1.377 . S
C568 C567 1.373 . S
C569 C553 1.377 . S
C569 C567 1.389 . S
C569 C570 1.524 . S
C570 C569 1.524 . S
C570 C571 1.397 . S
C570 C575 1.363 . S
C571 H542 0.950 . S
C571 C570 1.397 . S
C571 C572 1.334 . S
C572 H543 0.950 . S
C572 C571 1.334 . S
C572 C573 1.287 . S
C573 C572 1.287 . S
C573 C574 1.524 . S
C573 H576 0.999 . S
C574 H544 0.950 . S
C574 C573 1.524 . S
C574 C575 1.415 . S
C575 H545 0.950 . S
C575 C570 1.363 . S
C575 C574 1.415 . S
H576 C573 0.999 . S
H577 C558 0.913 . S
H578 C596 0.951 . S
H579 C598 0.951 . S
H580 C600 0.950 . S
H581 C601 0.950 . S
H582 C603 0.950 . S
H583 C606 0.950 . S
H584 C607 0.950 . S
H585 C609 0.950 . S
H586 C610 0.950 . S
H587 C611 0.951 . S
H588 C613 0.951 . S
H589 C615 0.950 . S
H590 C616 0.950 . S
H591 C618 0.950 . S
H592 C621 0.950 . S
H593 C622 0.950 . S
H594 C624 0.950 . S
H595 C625 0.950 . S
C596 H578 0.951 . S
C596 C597 1.366 . S
C596 C598 1.388 . S
C597 C596 1.366 . S
C597 C601 1.385 . S
C598 H579 0.951 . S
C598 C596 1.388 . S
C598 C599 1.366 . S
C599 C598 1.366 . S
C599 C600 1.414 . S
C599 C602 1.499 . S
C600 H580 0.950 . S
C600 C599 1.414 . S
C600 C601 1.374 . S
C601 H581 0.950 . S
C601 C597 1.385 . S
C601 C600 1.374 . S
C602 C599 1.499 . S
C602 C603 1.373 . S
C602 C604 1.389 . S
C603 H582 0.950 . S
C603 C602 1.373 . S
C603 C619 1.377 . S
C604 C602 1.389 . S
C604 C605 1.524 . S
C604 C618 1.377 . S
C605 C604 1.524 . S
C605 C606 1.397 . S
C605 C610 1.363 . S
C606 H583 0.950 . S
C606 C605 1.397 . S
C606 C607 1.334 . S
C607 H584 0.950 . S
C607 C606 1.334 . S
C607 C608 1.287 . S
C608 C607 1.287 . S
C608 C609 1.524 . S
C608 H627 0.913 . S
C609 H585 0.950 . S
C609 C608 1.524 . S
C609 C610 1.415 . S
C610 H586 0.950 . S
C610 C605 1.363 . S
C610 C609 1.415 . S
C611 H587 0.951 . S
C611 C612 1.366 . S
C611 C613 1.388 . S
C612 C611 1.366 . S
C612 C616 1.385 . S
C613 H588 0.951 . S
C613 C611 1.388 . S
C613 C614 1.366 . S
C614 C613 1.366 . S
C614 C615 1.414 . S
C614 C617 1.499 . S
C615 H589 0.950 . S
C615 C614 1.414 . S
C615 C616 1.374 . S
C616 H590 0.950 . S
C616 C612 1.385 . S
C616 C615 1.374 . S
C617 C614 1.499 . S
C617 C618 1.373 . S
C617 C619 1.389 . S
C618 H591 0.950 . S
C618 C604 1.377 . S
C618 C617 1.373 . S
C619 C603 1.377 . S
C619 C617 1.389 . S
C619 C620 1.524 . S
C620 C619 1.524 . S
C620 C621 1.397 . S
C620 C625 1.363 . S
C621 H592 0.950 . S
C621 C620 1.397 . S
C621 C622 1.334 . S
C622 H593 0.950 . S
C622 C621 1.334 . S
C622 C623 1.287 . S
C623 C622 1.287 . S
C623 C624 1.524 . S
C623 H626 0.999 . S
C624 H594 0.950 . S
C624 C623 1.524 . S
C624 C625 1.415 . S
C625 H595 0.950 . S
C625 C620 1.363 . S
C625 C624 1.415 . S
H626 C623 0.999 . S
H627 C608 0.913 . S
H628 C646 0.951 . S
H629 C648 0.951 . S
H630 C650 0.950 . S
H631 C651 0.950 . S
H632 C653 0.950 . S
H633 C656 0.950 . S
H634 C657 0.950 . S
H635 C659 0.950 . S
H636 C660 0.950 . S
H637 C661 0.951 . S
H638 C663 0.951 . S
H639 C665 0.950 . S
H640 C666 0.950 . S
H641 C668 0.950 . S
H642 C671 0.950 . S
H643 C672 0.950 . S
H644 C674 0.950 . S
H645 C675 0.950 . S
C646 H628 0.951 . S
C646 C647 1.366 . S
C646 C648 1.388 . S
C647 C646 1.366 . S
C647 C651 1.385 . S
C648 H629 0.951 . S
C648 C646 1.388 . S
C648 C649 1.366 . S
C649 C648 1.366 . S
C649 C650 1.414 . S
C649 C652 1.499 . S
C650 H630 0.950 . S
C650 C649 1.414 . S
C650 C651 1.374 . S
C651 H631 0.950 . S
C651 C647 1.385 . S
C651 C650 1.374 . S
C652 C649 1.499 . S
C652 C653 1.373 . S
C652 C654 1.389 . S
C653 H632 0.950 . S
C653 C652 1.373 . S
C653 C669 1.377 . S
C654 C652 1.389 . S
C654 C655 1.524 . S
C654 C668 1.377 . S
C655 C654 1.524 . S
C655 C656 1.397 . S
C655 C660 1.363 . S
C656 H633 0.950 . S
C656 C655 1.397 . S
C656 C657 1.334 . S
C657 H634 0.950 . S
C657 C656 1.334 . S
C657 C658 1.287 . S
C658 C657 1.287 . S
C658 C659 1.524 . S
C658 H677 0.913 . S
C659 H635 0.950 . S
C659 C658 1.524 . S
C659 C660 1.415 . S
C660 H636 0.950 . S
C660 C655 1.363 . S
C660 C659 1.415 . S
C661 H637 0.951 . S
C661 C662 1.366 . S
C661 C663 1.388 . S
C662 C661 1.366 . S
C662 C666 1.385 . S
C663 H638 0.951 . S
C663 C661 1.388 . S
C663 C664 1.366 . S
C664 C663 1.366 . S
C664 C665 1.414 . S
C664 C667 1.499 . S
C665 H639 0.950 . S
C665 C664 1.414 . S
C665 C666 1.374 . S
C666 H640 0.950 . S
C666 C662 1.385 . S
C666 C665 1.374 . S
C667 C664 1.499 . S
C667 C668 1.373 . S
C667 C669 1.389 . S
C668 H641 0.950 . S
C668 C654 1.377 . S
C668 C667 1.373 . S
C669 C653 1.377 . S
C669 C667 1.389 . S
C669 C670 1.524 . S
C670 C669 1.524 . S
C670 C671 1.397 . S
C670 C675 1.363 . S
C671 H642 0.950 . S
C671 C670 1.397 . S
C671 C672 1.334 . S
C672 H643 0.950 . S
C672 C671 1.334 . S
C672 C673 1.287 . S
C673 C672 1.287 . S
C673 C674 1.524 . S
C673 H676 0.999 . S
C674 H644 0.950 . S
C674 C673 1.524 . S
C674 C675 1.415 . S
C675 H645 0.950 . S
C675 C670 1.363 . S
C675 C674 1.415 . S
H676 C673 0.999 . S
H677 C658 0.913 . S
H678 C696 0.951 . S
H679 C698 0.951 . S
H680 C700 0.950 . S
H681 C701 0.950 . S
H682 C703 0.950 . S
H683 C706 0.950 . S
H684 C707 0.950 . S
H685 C709 0.950 . S
H686 C710 0.950 . S
H687 C711 0.951 . S
H688 C713 0.951 . S
H689 C715 0.950 . S
H690 C716 0.950 . S
H691 C718 0.950 . S
H692 C721 0.950 . S
H693 C722 0.950 . S
H694 C724 0.950 . S
H695 C725 0.950 . S
C696 H678 0.951 . S
C696 C697 1.366 . S
C696 C698 1.388 . S
C697 C696 1.366 . S
C697 C701 1.385 . S
C698 H679 0.951 . S
C698 C696 1.388 . S
C698 C699 1.366 . S
C699 C698 1.366 . S
C699 C700 1.414 . S
C699 C702 1.499 . S
C700 H680 0.950 . S
C700 C699 1.414 . S
C700 C701 1.374 . S
C701 H681 0.950 . S
C701 C697 1.385 . S
C701 C700 1.374 . S
C702 C699 1.499 . S
C702 C703 1.373 . S
C702 C704 1.389 . S
C703 H682 0.950 . S
C703 C702 1.373 . S
C703 C719 1.377 . S
C704 C702 1.389 . S
C704 C705 1.524 . S
C704 C718 1.377 . S
C705 C704 1.524 . S
C705 C706 1.397 . S
C705 C710 1.363 . S
C706 H683 0.950 . S
C706 C705 1.397 . S
C706 C707 1.334 . S
C707 H684 0.950 . S
C707 C706 1.334 . S
C707 C708 1.287 . S
C708 C707 1.287 . S
C708 C709 1.524 . S
C708 H727 0.913 . S
C709 H685 0.950 . S
C709 C708 1.524 . S
C709 C710 1.415 . S
C710 H686 0.950 . S
C710 C705 1.363 . S
C710 C709 1.415 . S
C711 H687 0.951 . S
C711 C712 1.366 . S
C711 C713 1.388 . S
C712 C711 1.366 . S
C712 C716 1.385 . S
C713 H688 0.951 . S
C713 C711 1.388 . S
C713 C714 1.366 . S
C714 C713 1.366 . S
C714 C715 1.414 . S
C714 C717 1.499 . S
C715 H689 0.950 . S
C715 C714 1.414 . S
C715 C716 1.374 . S
C716 H690 0.950 . S
C716 C712 1.385 . S
C716 C715 1.374 . S
C717 C714 1.499 . S
C717 C718 1.373 . S
C717 C719 1.389 . S
C718 H691 0.950 . S
C718 C704 1.377 . S
C718 C717 1.373 . S
C719 C703 1.377 . S
C719 C717 1.389 . S
C719 C720 1.524 . S
C720 C719 1.524 . S
C720 C721 1.397 . S
C720 C725 1.363 . S
C721 H692 0.950 . S
C721 C720 1.397 . S
C721 C722 1.334 . S
C722 H693 0.950 . S
C722 C721 1.334 . S
C722 C723 1.287 . S
C723 C722 1.287 . S
C723 C724 1.524 . S
C723 H726 0.999 . S
C724 H694 0.950 . S
C724 C723 1.524 . S
C724 C725 1.415 . S
C725 H695 0.950 . S
C725 C720 1.363 . S
C725 C724 1.415 . S
H726 C723 0.999 . S
H727 C708 0.913 . S
H728 C746 0.951 . S
H729 C748 0.951 . S
H730 C750 0.950 . S
H731 C751 0.950 . S
H732 C753 0.950 . S
H733 C756 0.950 . S
H734 C757 0.950 . S
H735 C759 0.950 . S
H736 C760 0.950 . S
H737 C761 0.951 . S
H738 C763 0.951 1_455 S
H739 C765 0.950 . S
H740 C766 0.950 . S
H741 C768 0.950 . S
H742 C771 0.950 . S
H743 C772 0.950 . S
H744 C774 0.950 . S
H745 C775 0.950 . S
C746 H728 0.951 . S
C746 C747 1.366 . S
C746 C748 1.388 . S
C747 C746 1.366 . S
C747 C751 1.385 . S
C748 H729 0.951 . S
C748 C746 1.388 . S
C748 C749 1.366 . S
C749 C748 1.366 . S
C749 C750 1.414 . S
C749 C752 1.499 . S
C750 H730 0.950 . S
C750 C749 1.414 . S
C750 C751 1.374 . S
C751 H731 0.950 . S
C751 C747 1.385 . S
C751 C750 1.374 . S
C752 C749 1.499 . S
C752 C753 1.373 . S
C752 C754 1.389 . S
C753 H732 0.950 . S
C753 C752 1.373 . S
C753 C769 1.377 . S
C754 C752 1.389 . S
C754 C755 1.524 . S
C754 C768 1.377 1_455 S
C755 C754 1.524 . S
C755 C756 1.397 . S
C755 C760 1.363 1_455 S
C756 H733 0.950 . S
C756 C755 1.397 . S
C756 C757 1.334 . S
C757 H734 0.950 . S
C757 C756 1.334 . S
C757 C758 1.287 . S
C758 C757 1.287 . S
C758 C759 1.524 1_455 S
C758 H777 0.913 . S
C759 H735 0.950 . S
C759 C758 1.524 1_655 S
C759 C760 1.415 . S
C760 H736 0.950 . S
C760 C755 1.363 1_655 S
C760 C759 1.415 . S
C761 H737 0.951 . S
C761 C762 1.366 . S
C761 C763 1.388 . S
C762 C761 1.366 . S
C762 C766 1.385 . S
C763 H738 0.951 1_655 S
C763 C761 1.388 . S
C763 C764 1.366 . S
C764 C763 1.366 . S
C764 C765 1.414 . S
C764 C767 1.499 . S
C765 H739 0.950 . S
C765 C764 1.414 . S
C765 C766 1.374 . S
C766 H740 0.950 . S
C766 C762 1.385 . S
C766 C765 1.374 . S
C767 C764 1.499 . S
C767 C768 1.373 . S
C767 C769 1.389 1_655 S
C768 H741 0.950 . S
C768 C754 1.377 1_655 S
C768 C767 1.373 . S
C769 C753 1.377 . S
C769 C767 1.389 1_455 S
C769 C770 1.524 . S
C770 C769 1.524 . S
C770 C771 1.397 1_455 S
C770 C775 1.363 . S
C771 H742 0.950 . S
C771 C770 1.397 1_655 S
C771 C772 1.334 . S
C772 H743 0.950 . S
C772 C771 1.334 . S
C772 C773 1.287 . S
C773 C772 1.287 . S
C773 C774 1.524 1_655 S
C773 H776 0.999 . S
C774 H744 0.950 . S
C774 C773 1.524 1_455 S
C774 C775 1.415 . S
C775 H745 0.950 . S
C775 C770 1.363 . S
C775 C774 1.415 . S
H776 C773 0.999 . S
H777 C758 0.913 . S
H778 C796 0.951 . S
H779 C798 0.951 . S
H780 C800 0.950 1_455 S
H781 C801 0.950 . S
H782 C803 0.950 . S
H783 C806 0.950 . S
H784 C807 0.950 . S
H785 C809 0.950 . S
H786 C810 0.950 . S
H787 C811 0.951 . S
H788 C813 0.951 . S
H789 C815 0.950 . S
H790 C816 0.950 . S
H791 C818 0.950 . S
H792 C821 0.950 . S
H793 C822 0.950 . S
H794 C824 0.950 . S
H795 C825 0.950 . S
C796 H778 0.951 . S
C796 C797 1.366 . S
C796 C798 1.388 . S
C797 C796 1.366 . S
C797 C801 1.385 . S
C798 H779 0.951 . S
C798 C796 1.388 . S
C798 C799 1.366 . S
C799 C798 1.366 . S
C799 C800 1.414 . S
C799 C802 1.499 . S
C800 H780 0.950 1_655 S
C800 C799 1.414 . S
C800 C801 1.374 . S
C801 H781 0.950 . S
C801 C797 1.385 . S
C801 C800 1.374 . S
C802 C799 1.499 . S
C802 C803 1.373 1_655 S
C802 C804 1.389 . S
C803 H782 0.950 . S
C803 C802 1.373 1_455 S
C803 C819 1.377 . S
C804 C802 1.389 . S
C804 C805 1.524 . S
C804 C818 1.377 . S
C805 C804 1.524 . S
C805 C806 1.397 . S
C805 C810 1.363 . S
C806 H783 0.950 . S
C806 C805 1.397 . S
C806 C807 1.334 . S
C807 H784 0.950 . S
C807 C806 1.334 . S
C807 C808 1.287 . S
C808 C807 1.287 . S
C808 C809 1.524 . S
C808 H827 0.913 . S
C809 H785 0.950 . S
C809 C808 1.524 . S
C809 C810 1.415 . S
C810 H786 0.950 . S
C810 C805 1.363 . S
C810 C809 1.415 . S
C811 H787 0.951 . S
C811 C812 1.366 . S
C811 C813 1.388 . S
C812 C811 1.366 . S
C812 C816 1.385 . S
C813 H788 0.951 . S
C813 C811 1.388 . S
C813 C814 1.366 . S
C814 C813 1.366 . S
C814 C815 1.414 . S
C814 C817 1.499 . S
C815 H789 0.950 . S
C815 C814 1.414 . S
C815 C816 1.374 . S
C816 H790 0.950 . S
C816 C812 1.385 . S
C816 C815 1.374 . S
C817 C814 1.499 . S
C817 C818 1.373 1_455 S
C817 C819 1.389 . S
C818 H791 0.950 . S
C818 C804 1.377 . S
C818 C817 1.373 1_655 S
C819 C803 1.377 . S
C819 C817 1.389 . S
C819 C820 1.524 . S
C820 C819 1.524 . S
C820 C821 1.397 . S
C820 C825 1.363 . S
C821 H792 0.950 . S
C821 C820 1.397 . S
C821 C822 1.334 . S
C822 H793 0.950 . S
C822 C821 1.334 . S
C822 C823 1.287 . S
C823 C822 1.287 . S
C823 C824 1.524 . S
C823 H826 0.999 . S
C824 H794 0.950 . S
C824 C823 1.524 . S
C824 C825 1.415 . S
C825 H795 0.950 . S
C825 C820 1.363 . S
C825 C824 1.415 . S
H826 C823 0.999 . S
H827 C808 0.913 . S
H828 C846 0.951 . S
H829 C848 0.951 1_655 S
H830 C850 0.950 . S
H831 C851 0.950 . S
H832 C853 0.950 . S
H833 C856 0.950 . S
H834 C857 0.950 . S
H835 C859 0.950 . S
H836 C860 0.950 . S
H837 C861 0.951 . S
H838 C863 0.951 . S
H839 C865 0.950 . S
H840 C866 0.950 . S
H841 C868 0.950 . S
H842 C871 0.950 . S
H843 C872 0.950 . S
H844 C874 0.950 . S
H845 C875 0.950 . S
C846 H828 0.951 . S
C846 C847 1.366 . S
C846 C848 1.388 . S
C847 C846 1.366 . S
C847 C851 1.385 . S
C848 H829 0.951 1_455 S
C848 C846 1.388 . S
C848 C849 1.366 . S
C849 C848 1.366 . S
C849 C850 1.414 . S
C849 C852 1.499 . S
C850 H830 0.950 . S
C850 C849 1.414 . S
C850 C851 1.374 . S
C851 H831 0.950 . S
C851 C847 1.385 . S
C851 C850 1.374 . S
C852 C849 1.499 . S
C852 C853 1.373 . S
C852 C854 1.389 1_455 S
C853 H832 0.950 . S
C853 C852 1.373 . S
C853 C869 1.377 1_455 S
C854 C852 1.389 1_655 S
C854 C855 1.524 . S
C854 C868 1.377 . S
C855 C854 1.524 . S
C855 C856 1.397 1_655 S
C855 C860 1.363 . S
C856 H833 0.950 . S
C856 C855 1.397 1_455 S
C856 C857 1.334 . S
C857 H834 0.950 . S
C857 C856 1.334 . S
C857 C858 1.287 . S
C858 C857 1.287 . S
C858 C859 1.524 1_455 S
C858 H877 0.913 . S
C859 H835 0.950 . S
C859 C858 1.524 1_655 S
C859 C860 1.415 . S
C860 H836 0.950 . S
C860 C855 1.363 . S
C860 C859 1.415 . S
C861 H837 0.951 . S
C861 C862 1.366 . S
C861 C863 1.388 . S
C862 C861 1.366 . S
C862 C866 1.385 . S
C863 H838 0.951 . S
C863 C861 1.388 . S
C863 C864 1.366 . S
C864 C863 1.366 . S
C864 C865 1.414 . S
C864 C867 1.499 . S
C865 H839 0.950 . S
C865 C864 1.414 . S
C865 C866 1.374 . S
C866 H840 0.950 . S
C866 C862 1.385 . S
C866 C865 1.374 . S
C867 C864 1.499 . S
C867 C868 1.373 . S
C867 C869 1.389 . S
C868 H841 0.950 . S
C868 C854 1.377 . S
C868 C867 1.373 . S
C869 C853 1.377 1_655 S
C869 C867 1.389 . S
C869 C870 1.524 . S
C870 C869 1.524 . S
C870 C871 1.397 . S
C870 C875 1.363 1_655 S
C871 H842 0.950 . S
C871 C870 1.397 . S
C871 C872 1.334 . S
C872 H843 0.950 . S
C872 C871 1.334 . S
C872 C873 1.287 . S
C873 C872 1.287 . S
C873 C874 1.524 1_655 S
C873 H876 0.999 . S
C874 H844 0.950 . S
C874 C873 1.524 1_455 S
C874 C875 1.415 . S
C875 H845 0.950 . S
C875 C870 1.363 1_455 S
C875 C874 1.415 . S
H876 C873 0.999 . S
H877 C858 0.913 . S
H878 C896 0.951 . S
H879 C898 0.951 . S
H880 C900 0.950 . S
H881 C901 0.950 . S
H882 C903 0.950 . S
H883 C906 0.950 . S
H884 C907 0.950 . S
H885 C909 0.950 . S
H886 C910 0.950 . S
H887 C911 0.951 . S
H888 C913 0.951 . S
H889 C915 0.950 . S
H890 C916 0.950 . S
H891 C918 0.950 . S
H892 C921 0.950 . S
H893 C922 0.950 . S
H894 C924 0.950 . S
H895 C925 0.950 . S
C896 H878 0.951 . S
C896 C897 1.366 . S
C896 C898 1.388 . S
C897 C896 1.366 . S
C897 C901 1.385 . S
C898 H879 0.951 . S
C898 C896 1.388 . S
C898 C899 1.366 . S
C899 C898 1.366 . S
C899 C900 1.414 . S
C899 C902 1.499 . S
C900 H880 0.950 . S
C900 C899 1.414 . S
C900 C901 1.374 . S
C901 H881 0.950 . S
C901 C897 1.385 . S
C901 C900 1.374 . S
C902 C899 1.499 . S
C902 C903 1.373 . S
C902 C904 1.389 1_455 S
C903 H882 0.950 . S
C903 C902 1.373 . S
C903 C919 1.377 . S
C904 C902 1.389 1_655 S
C904 C905 1.524 . S
C904 C918 1.377 . S
C905 C904 1.524 . S
C905 C906 1.397 . S
C905 C910 1.363 . S
C906 H883 0.950 . S
C906 C905 1.397 . S
C906 C907 1.334 . S
C907 H884 0.950 . S
C907 C906 1.334 . S
C907 C908 1.287 . S
C908 C907 1.287 . S
C908 C909 1.524 . S
C908 H927 0.913 . S
C909 H885 0.950 . S
C909 C908 1.524 . S
C909 C910 1.415 . S
C910 H886 0.950 . S
C910 C905 1.363 . S
C910 C909 1.415 . S
C911 H887 0.951 . S
C911 C912 1.366 . S
C911 C913 1.388 . S
C912 C911 1.366 . S
C912 C916 1.385 . S
C913 H888 0.951 . S
C913 C911 1.388 . S
C913 C914 1.366 . S
C914 C913 1.366 . S
C914 C915 1.414 . S
C914 C917 1.499 . S
C915 H889 0.950 . S
C915 C914 1.414 . S
C915 C916 1.374 . S
C916 H890 0.950 . S
C916 C912 1.385 . S
C916 C915 1.374 . S
C917 C914 1.499 . S
C917 C918 1.373 . S
C917 C919 1.389 1_655 S
C918 H891 0.950 . S
C918 C904 1.377 . S
C918 C917 1.373 . S
C919 C903 1.377 . S
C919 C917 1.389 1_455 S
C919 C920 1.524 . S
C920 C919 1.524 . S
C920 C921 1.397 . S
C920 C925 1.363 . S
C921 H892 0.950 . S
C921 C920 1.397 . S
C921 C922 1.334 . S
C922 H893 0.950 . S
C922 C921 1.334 . S
C922 C923 1.287 . S
C923 C922 1.287 . S
C923 C924 1.524 . S
C923 H926 0.999 . S
C924 H894 0.950 . S
C924 C923 1.524 . S
C924 C925 1.415 . S
C925 H895 0.950 . S
C925 C920 1.363 . S
C925 C924 1.415 . S
H926 C923 0.999 . S
H927 C908 0.913 . S
C147 C20 0.704 . S
C162 C16 0.704 . S
C197 C52 0.704 . S
C212 C48 0.704 . S
C247 C84 0.704 . S
C262 C80 0.704 . S
C297 C116 0.704 . S
C312 C112 0.704 . S
C347 C51 1.455 1_554 S
C362 C23 1.455 1_556 S
C397 C115 1.455 . S
C412 C87 1.455 . S
C447 C19 1.455 1_554 S
C462 C55 1.455 1_556 S
C497 C119 1.455 . S
C512 C83 1.455 . S
C547 C117 1.774 . S
C562 C18 1.745 . S
C597 C53 1.774 . S
C612 C82 1.745 . S
C647 C81 1.774 . S
C662 C54 1.753 . S
C697 C17 1.774 . S
C712 C118 1.753 . S
C747 C85 1.774 . S
C762 C50 1.745 . S
C797 C114 1.749 . S
C812 C21 1.770 . S
C847 C22 1.749 . S
C862 C113 1.778 . S
C897 C86 1.749 . S
C912 C49 1.778 . S
