# Generated by pormake.
# Topology lcs, (4)-cn, num edge types: 1
# Building blocks:
#     Node 0, Type 0, BuildingBlock: QUQFOY_clean_sbu_1, # of connection points: 4
#     Node 1, Type 0, BuildingBlock: QUQFOY_clean_sbu_1, # of connection points: 4
#     Node 2, Type 0, BuildingBlock: QUQFOY_clean_sbu_1, # of connection points: 4
#     Node 3, Type 0, BuildingBlock: QUQFOY_clean_sbu_1, # of connection points: 4
#     Node 4, Type 0, BuildingBlock: QUQFOY_clean_sbu_1, # of connection points: 4
#     Node 5, Type 0, BuildingBlock: QUQFOY_clean_sbu_1, # of connection points: 4
#     Node 6, Type 0, BuildingBlock: QUQFOY_clean_sbu_1, # of connection points: 4
#     Node 7, Type 0, BuildingBlock: QUQFOY_clean_sbu_1, # of connection points: 4
#     Node 8, Type 0, BuildingBlock: QUQFOY_clean_sbu_1, # of connection points: 4
#     Node 9, Type 0, BuildingBlock: QUQFOY_clean_sbu_1, # of connection points: 4
#     Node 10, Type 0, BuildingBlock: QUQFOY_clean_sbu_1, # of connection points: 4
#     Node 11, Type 0, BuildingBlock: QUQFOY_clean_sbu_1, # of connection points: 4
#     Node 12, Type 0, BuildingBlock: QUQFOY_clean_sbu_1, # of connection points: 4
#     Node 13, Type 0, BuildingBlock: QUQFOY_clean_sbu_1, # of connection points: 4
#     Node 14, Type 0, BuildingBlock: QUQFOY_clean_sbu_1, # of connection points: 4
#     Node 15, Type 0, BuildingBlock: QUQFOY_clean_sbu_1, # of connection points: 4
#     Node 16, Type 0, BuildingBlock: QUQFOY_clean_sbu_1, # of connection points: 4
#     Node 17, Type 0, BuildingBlock: QUQFOY_clean_sbu_1, # of connection points: 4
#     Node 18, Type 0, BuildingBlock: QUQFOY_clean_sbu_1, # of connection points: 4
#     Node 19, Type 0, BuildingBlock: QUQFOY_clean_sbu_1, # of connection points: 4
#     Node 20, Type 0, BuildingBlock: QUQFOY_clean_sbu_1, # of connection points: 4
#     Node 21, Type 0, BuildingBlock: QUQFOY_clean_sbu_1, # of connection points: 4
#     Node 22, Type 0, BuildingBlock: QUQFOY_clean_sbu_1, # of connection points: 4
#     Node 23, Type 0, BuildingBlock: QUQFOY_clean_sbu_1, # of connection points: 4
#     Edge 24, Type (0, 0), BuildingBlock: EZIPEK_clean_linker_0, # of connection points: 2
#     Edge 25, Type (0, 0), BuildingBlock: EZIPEK_clean_linker_0, # of connection points: 2
#     Edge 26, Type (0, 0), BuildingBlock: EZIPEK_clean_linker_0, # of connection points: 2
#     Edge 27, Type (0, 0), BuildingBlock: EZIPEK_clean_linker_0, # of connection points: 2
#     Edge 28, Type (0, 0), BuildingBlock: EZIPEK_clean_linker_0, # of connection points: 2
#     Edge 29, Type (0, 0), BuildingBlock: EZIPEK_clean_linker_0, # of connection points: 2
#     Edge 30, Type (0, 0), BuildingBlock: EZIPEK_clean_linker_0, # of connection points: 2
#     Edge 31, Type (0, 0), BuildingBlock: EZIPEK_clean_linker_0, # of connection points: 2
#     Edge 32, Type (0, 0), BuildingBlock: EZIPEK_clean_linker_0, # of connection points: 2
#     Edge 33, Type (0, 0), BuildingBlock: EZIPEK_clean_linker_0, # of connection points: 2
#     Edge 34, Type (0, 0), BuildingBlock: EZIPEK_clean_linker_0, # of connection points: 2
#     Edge 35, Type (0, 0), BuildingBlock: EZIPEK_clean_linker_0, # of connection points: 2
#     Edge 36, Type (0, 0), BuildingBlock: EZIPEK_clean_linker_0, # of connection points: 2
#     Edge 37, Type (0, 0), BuildingBlock: EZIPEK_clean_linker_0, # of connection points: 2
#     Edge 38, Type (0, 0), BuildingBlock: EZIPEK_clean_linker_0, # of connection points: 2
#     Edge 39, Type (0, 0), BuildingBlock: EZIPEK_clean_linker_0, # of connection points: 2
#     Edge 40, Type (0, 0), BuildingBlock: EZIPEK_clean_linker_0, # of connection points: 2
#     Edge 41, Type (0, 0), BuildingBlock: EZIPEK_clean_linker_0, # of connection points: 2
#     Edge 42, Type (0, 0), BuildingBlock: EZIPEK_clean_linker_0, # of connection points: 2
#     Edge 43, Type (0, 0), BuildingBlock: EZIPEK_clean_linker_0, # of connection points: 2
#     Edge 44, Type (0, 0), BuildingBlock: EZIPEK_clean_linker_0, # of connection points: 2
#     Edge 45, Type (0, 0), BuildingBlock: EZIPEK_clean_linker_0, # of connection points: 2
#     Edge 46, Type (0, 0), BuildingBlock: EZIPEK_clean_linker_0, # of connection points: 2
#     Edge 47, Type (0, 0), BuildingBlock: EZIPEK_clean_linker_0, # of connection points: 2
#     Edge 48, Type (0, 0), BuildingBlock: EZIPEK_clean_linker_0, # of connection points: 2
#     Edge 49, Type (0, 0), BuildingBlock: EZIPEK_clean_linker_0, # of connection points: 2
#     Edge 50, Type (0, 0), BuildingBlock: EZIPEK_clean_linker_0, # of connection points: 2
#     Edge 51, Type (0, 0), BuildingBlock: EZIPEK_clean_linker_0, # of connection points: 2
#     Edge 52, Type (0, 0), BuildingBlock: EZIPEK_clean_linker_0, # of connection points: 2
#     Edge 53, Type (0, 0), BuildingBlock: EZIPEK_clean_linker_0, # of connection points: 2
#     Edge 54, Type (0, 0), BuildingBlock: EZIPEK_clean_linker_0, # of connection points: 2
#     Edge 55, Type (0, 0), BuildingBlock: EZIPEK_clean_linker_0, # of connection points: 2
#     Edge 56, Type (0, 0), BuildingBlock: EZIPEK_clean_linker_0, # of connection points: 2
#     Edge 57, Type (0, 0), BuildingBlock: EZIPEK_clean_linker_0, # of connection points: 2
#     Edge 58, Type (0, 0), BuildingBlock: EZIPEK_clean_linker_0, # of connection points: 2
#     Edge 59, Type (0, 0), BuildingBlock: EZIPEK_clean_linker_0, # of connection points: 2
#     Edge 60, Type (0, 0), BuildingBlock: EZIPEK_clean_linker_0, # of connection points: 2
#     Edge 61, Type (0, 0), BuildingBlock: EZIPEK_clean_linker_0, # of connection points: 2
#     Edge 62, Type (0, 0), BuildingBlock: EZIPEK_clean_linker_0, # of connection points: 2
#     Edge 63, Type (0, 0), BuildingBlock: EZIPEK_clean_linker_0, # of connection points: 2
#     Edge 64, Type (0, 0), BuildingBlock: EZIPEK_clean_linker_0, # of connection points: 2
#     Edge 65, Type (0, 0), BuildingBlock: EZIPEK_clean_linker_0, # of connection points: 2
#     Edge 66, Type (0, 0), BuildingBlock: EZIPEK_clean_linker_0, # of connection points: 2
#     Edge 67, Type (0, 0), BuildingBlock: EZIPEK_clean_linker_0, # of connection points: 2
#     Edge 68, Type (0, 0), BuildingBlock: EZIPEK_clean_linker_0, # of connection points: 2
#     Edge 69, Type (0, 0), BuildingBlock: EZIPEK_clean_linker_0, # of connection points: 2
#     Edge 70, Type (0, 0), BuildingBlock: EZIPEK_clean_linker_0, # of connection points: 2
#     Edge 71, Type (0, 0), BuildingBlock: EZIPEK_clean_linker_0, # of connection points: 2
# Relax obj value: 0.068
# Max RMSD: 0.118
# Mean RMSD: 0.112
data_MOF--net-lcs--node1-QUQFOY_clean_sbu_1--edge1-EZIPEK_clean_linker_0
_symmetry_space_group_name_H-M    P1
_symmetry_Int_Tables_number       1
_symmetry_cell_setting            triclinic
loop_
_symmetry_equiv_pos_as_xyz
'x, y, z'
_cell_length_a     37.992294
_cell_length_b     37.985447
_cell_length_c     38.014518
_cell_angle_alpha  94.928112
_cell_angle_beta   95.003625
_cell_angle_gamma 94.900187
loop_
_atom_site_label
_atom_site_type_symbol
_atom_site_fract_x
_atom_site_fract_y
_atom_site_fract_z
_atom_type_partial_charge
O0 O 0.07881 0.26115 0.39571 0.0
Cd1 Cd 0.04183 0.27268 0.35603 0.0
Cd2 Cd 0.99696 0.25844 0.4077 0.0
O3 O 0.04402 0.25667 0.43924 0.0
O4 O 0.06976 0.29816 0.32199 0.0
O5 O 0.02878 0.32267 0.3513 0.0
C6 C 0.0527 0.32538 0.32926 0.0
C7 C 0.94909 0.28718 0.42796 0.0
C8 C 0.07443 0.25567 0.42765 0.0
C9 C 0.9926 0.2069 0.34163 0.0
O10 O 0.98355 0.21383 0.37268 0.0
O11 O 0.01398 0.22832 0.32812 0.0
O12 O 0.95759 0.25789 0.43963 0.0
O13 O 0.96847 0.3011 0.40552 0.0
O14 O 0.07669 0.72116 0.63878 0.0
Cd15 Cd 0.03833 0.73825 0.67009 0.0
Cd16 Cd 0.01755 0.76748 0.60851 0.0
O17 O 0.0542 0.73597 0.58693 0.0
O18 O 0.03666 0.70712 0.71007 0.0
O19 O 0.99186 0.70828 0.66884 0.0
C20 C 1.00506 0.69516 0.69681 0.0
C21 C 0.96023 0.77495 0.58433 0.0
C22 C 0.07773 0.72168 0.60545 0.0
C23 C 0.04743 0.81681 0.67274 0.0
O24 O 0.03911 0.81237 0.63947 0.0
O25 O 0.04633 0.79062 0.69145 0.0
O26 O 0.98774 0.78709 0.56997 0.0
O27 O 0.96506 0.75552 0.61035 0.0
O28 O 0.57967 0.76018 0.8924 0.0
Cd29 Cd 0.53922 0.77389 0.85693 0.0
Cd30 Cd 0.50225 0.76136 0.91361 0.0
O31 O 0.55167 0.76227 0.94113 0.0
O32 O 0.56271 0.79889 0.81946 0.0
O33 O 0.52885 0.82506 0.85636 0.0
C34 C 0.54891 0.82711 0.83069 0.0
C35 C 0.45469 0.79005 0.93505 0.0
C36 C 0.57964 0.75816 0.92567 0.0
C37 C 0.49 0.7084 0.84887 0.0
O38 O 0.48844 0.7146 0.88205 0.0
O39 O 0.50524 0.73165 0.83169 0.0
O40 O 0.46564 0.76257 0.94874 0.0
O41 O 0.4717 0.80243 0.91009 0.0
O42 O 0.57697 0.22613 0.14637 0.0
Cd43 Cd 0.53472 0.23965 0.17435 0.0
Cd44 Cd 0.51826 0.2671 0.11331 0.0
O45 O 0.5528 0.233 0.09275 0.0
O46 O 0.53341 0.20891 0.21456 0.0
O47 O 0.4907 0.20574 0.17044 0.0
C48 C 0.50336 0.19426 0.19953 0.0
C49 C 0.46056 0.27438 0.09066 0.0
C50 C 0.57777 0.22269 0.11284 0.0
C51 C 0.54293 0.31726 0.17705 0.0
O52 O 0.54163 0.31193 0.14352 0.0
O53 O 0.53573 0.29168 0.19546 0.0
O54 O 0.48758 0.28672 0.07564 0.0
O55 O 0.46614 0.2548 0.11643 0.0
O56 O 0.05513 0.69808 0.12884 0.0
Cd57 Cd 0.03985 0.73758 0.0982 0.0
Cd58 Cd 0.0141 0.75981 0.15972 0.0
O59 O 0.0483 0.72538 0.18115 0.0
O60 O 0.071 0.73885 0.05833 0.0
O61 O 0.0716 0.78294 0.10072 0.0
C62 C 0.08424 0.76977 0.07247 0.0
C63 C 1.00612 0.81717 0.18295 0.0
C64 C 0.05869 0.69938 0.16254 0.0
C65 C 0.96229 0.72996 0.09761 0.0
O66 O 0.96835 0.73652 0.13103 0.0
O67 O 0.98739 0.73251 0.07769 0.0
O68 O 0.99568 0.78992 0.19866 0.0
O69 O 0.02411 0.81218 0.15589 0.0
O70 O 0.51807 0.7014 0.37869 0.0
Cd71 Cd 0.5042 0.74183 0.4141 0.0
Cd72 Cd 0.51699 0.77849 0.35824 0.0
O73 O 0.51698 0.72967 0.33016 0.0
O74 O 0.4771 0.71774 0.44986 0.0
O75 O 0.45356 0.75412 0.41393 0.0
C76 C 0.44976 0.73288 0.43843 0.0
C77 C 0.48607 0.82486 0.33818 0.0
C78 C 0.52076 0.7016 0.34555 0.0
C79 C 0.56954 0.79144 0.42293 0.0
O80 O 0.56347 0.79313 0.38977 0.0
O81 O 0.54644 0.77558 0.43988 0.0
O82 O 0.51389 0.81563 0.32396 0.0
O83 O 0.4747 0.80684 0.3629 0.0
O84 O 0.55281 0.20021 0.62692 0.0
Cd85 Cd 0.53831 0.24162 0.59832 0.0
Cd86 Cd 0.5081 0.25855 0.66003 0.0
O87 O 0.54207 0.22305 0.6799 0.0
O88 O 0.57008 0.24455 0.55911 0.0
O89 O 0.56991 0.28734 0.60262 0.0
C90 C 0.58276 0.27532 0.57405 0.0
C91 C 0.49751 0.31312 0.689 0.0
C92 C 0.55434 0.19888 0.66036 0.0
C93 C 0.46038 0.23245 0.59333 0.0
O94 O 0.46416 0.23674 0.62701 0.0
O95 O 0.48682 0.23723 0.57546 0.0
O96 O 0.48653 0.28351 0.70043 0.0
O97 O 0.51731 0.31198 0.66301 0.0
O98 O 0.0145 0.19587 0.87884 0.0
Cd99 Cd 1.00298 0.23322 0.91811 0.0
Cd100 Cd 0.01767 0.2781 0.86579 0.0
O101 O 0.01959 0.23052 0.83518 0.0
O102 O 0.97828 0.20608 0.95327 0.0
O103 O 0.95265 0.2453 0.92233 0.0
C104 C 0.95056 0.2222 0.9453 0.0
C105 C 0.98975 0.32581 0.8439 0.0
C106 C 0.02019 0.20013 0.84692 0.0
C107 C 0.06866 0.28298 0.93218 0.0
O108 O 0.06195 0.29187 0.90103 0.0
O109 O 0.04721 0.26164 0.94568 0.0
O110 O 0.01911 0.31672 0.83292 0.0
O111 O 0.97524 0.30705 0.86648 0.0
O112 O 0.39486 0.07939 0.25975 0.0
Cd113 Cd 0.35614 0.04183 0.27207 0.0
Cd114 Cd 0.40904 0.99797 0.25834 0.0
O115 O 0.43948 0.04562 0.25683 0.0
O116 O 0.32034 0.06855 0.29632 0.0
O117 O 0.35276 0.03107 0.32291 0.0
C118 C 0.32916 0.05359 0.32456 0.0
C119 C 0.43037 0.95027 0.28655 0.0
C120 C 0.42712 0.07562 0.255 0.0
C121 C 0.34312 0.99182 0.20668 0.0
O122 O 0.37467 0.98399 0.21346 0.0
O123 O 0.32884 0.0124 0.22824 0.0
O124 O 0.44204 0.9595 0.25755 0.0
O125 O 0.4074 0.96892 0.30057 0.0
O126 O 0.2272 0.14753 0.57604 0.0
Cd127 Cd 0.24015 0.17514 0.53328 0.0
Cd128 Cd 0.26668 0.11411 0.51708 0.0
O129 O 0.23179 0.09377 0.55094 0.0
O130 O 0.20994 0.21591 0.53244 0.0
O131 O 0.20503 0.17131 0.49014 0.0
C132 C 0.19423 0.20071 0.5029 0.0
C133 C 0.27366 0.09284 0.45889 0.0
C134 C 0.22262 0.11396 0.57641 0.0
C135 C 0.31774 0.17662 0.541 0.0
O136 O 0.31172 0.14329 0.54149 0.0
O137 O 0.29249 0.19506 0.53245 0.0
O138 O 0.28493 0.07634 0.48535 0.0
O139 O 0.25536 0.1195 0.46522 0.0
O140 O 0.13034 0.05294 0.69758 0.0
Cd141 Cd 0.10011 0.03709 0.73707 0.0
Cd142 Cd 0.16203 0.01184 0.75892 0.0
O143 O 0.18294 0.0463 0.72452 0.0
O144 O 0.05998 0.06795 0.73876 0.0
O145 O 0.10267 0.06851 0.78259 0.0
C146 C 0.07426 0.0811 0.76965 0.0
C147 C 0.18544 1.00404 0.81627 0.0
C148 C 0.16402 0.05673 0.69872 0.0
C149 C 0.10032 0.95961 0.72893 0.0
O150 O 0.13373 0.96594 0.73552 0.0
O151 O 0.08011 0.9845 0.73165 0.0
O152 O 0.20127 0.99378 0.78907 0.0
O153 O 0.15813 0.02175 0.81125 0.0
O154 O 0.19891 0.87891 0.01294 0.0
Cd155 Cd 0.23599 0.91843 1.00143 0.0
Cd156 Cd 0.28124 0.86634 0.0161 0.0
O157 O 0.23382 0.8354 0.01799 0.0
O158 O 0.20852 0.95351 0.97681 0.0
O159 O 0.24785 0.92288 0.95109 0.0
C160 C 0.22457 0.9457 0.94906 0.0
C161 C 0.32888 0.84499 0.98767 0.0
C162 C 0.20335 0.84699 0.01862 0.0
C163 C 0.28574 0.93262 0.06719 0.0
O164 O 0.29485 0.90154 0.06047 0.0
O165 O 0.2643 0.94605 0.04571 0.0
O166 O 0.32019 0.83374 0.01703 0.0
O167 O 0.30982 0.86759 0.97349 0.0
O168 O 0.26172 0.39557 0.0772 0.0
Cd169 Cd 0.27346 0.35628 0.04004 0.0
Cd170 Cd 0.25904 0.4081 0.99542 0.0
O171 O 0.25659 0.43916 0.04253 0.0
O172 O 0.29889 0.32206 0.06782 0.0
O173 O 0.32349 0.35176 0.02717 0.0
C174 C 0.32615 0.32952 0.05094 0.0
C175 C 0.28848 0.42951 0.94862 0.0
C176 C 0.25581 0.42744 0.07288 0.0
C177 C 0.2079 0.34181 0.99045 0.0
O178 O 0.21475 0.37287 0.98133 0.0
O179 O 0.22924 0.32839 0.01203 0.0
O180 O 0.2589 0.44077 0.95667 0.0
O181 O 0.30223 0.40675 0.96779 0.0
O182 O 0.69865 0.12969 0.05221 0.0
Cd183 Cd 0.73802 0.09918 0.03657 0.0
Cd184 Cd 0.76026 0.16096 0.01141 0.0
O185 O 0.72597 0.18212 0.04581 0.0
O186 O 0.73971 0.05917 0.06757 0.0
O187 O 0.78363 0.10169 0.06795 0.0
C188 C 0.77067 0.07337 0.08065 0.0
C189 C 0.8177 0.18406 1.00368 0.0
C190 C 0.69999 0.16339 0.05606 0.0
C191 C 0.72999 0.09938 0.95914 0.0
O192 O 0.73684 0.13276 0.96546 0.0
O193 O 0.7325 0.07918 0.98403 0.0
O194 O 0.79055 0.20005 0.99341 0.0
O195 O 0.81258 0.15678 0.02139 0.0
O196 O 0.14819 0.57569 0.2263 0.0
Cd197 Cd 0.17537 0.53235 0.23867 0.0
Cd198 Cd 0.11456 0.51744 0.2665 0.0
O199 O 0.09424 0.55192 0.23222 0.0
O200 O 0.2158 0.53166 0.2082 0.0
O201 O 0.1711 0.48946 0.20324 0.0
C202 C 0.20047 0.50221 0.19242 0.0
C203 C 0.09201 0.45979 0.27399 0.0
C204 C 0.11468 0.57685 0.22242 0.0
C205 C 0.17863 0.53941 0.31627 0.0
O206 O 0.14535 0.54079 0.31099 0.0
O207 O 0.19626 0.53063 0.29053 0.0
O208 O 0.07699 0.48687 0.2863 0.0
O209 O 0.11771 0.46528 0.25434 0.0
O210 O 0.76075 0.89558 0.57524 0.0
Cd211 Cd 0.77451 0.86041 0.53454 0.0
Cd212 Cd 0.7622 0.91728 0.49849 0.0
O213 O 0.76339 0.94469 0.54782 0.0
O214 O 0.79797 0.82203 0.55821 0.0
O215 O 0.82604 0.85869 0.5255 0.0
C216 C 0.82688 0.83277 0.54537 0.0
C217 C 0.79254 0.93736 0.45174 0.0
C218 C 0.75904 0.92894 0.57557 0.0
C219 C 0.7091 0.8534 0.48483 0.0
O220 O 0.7151 0.88671 0.48415 0.0
O221 O 0.73243 0.83596 0.4997 0.0
O222 O 0.76528 0.95208 0.46178 0.0
O223 O 0.80378 0.91214 0.46921 0.0
O224 O 0.88029 0.01364 0.19528 0.0
Cd225 Cd 0.91975 1.00215 0.23254 0.0
Cd226 Cd 0.86739 0.01681 0.27743 0.0
O227 O 0.8366 0.01866 0.2299 0.0
O228 O 0.95498 0.97761 0.2053 0.0
O229 O 0.92422 0.95177 0.24443 0.0
C230 C 0.94716 0.94982 0.22132 0.0
C231 C 0.84638 0.9888 0.32541 0.0
C232 C 0.84832 0.01926 0.19952 0.0
C233 C 0.93373 0.06786 0.28235 0.0
O234 O 0.90255 0.0612 0.29114 0.0
O235 O 0.94728 0.04637 0.26107 0.0
O236 O 0.83493 0.018 0.31637 0.0
O237 O 0.86889 0.97445 0.30642 0.0
O238 O 0.20302 0.63155 0.55108 0.0
Cd239 Cd 0.24315 0.60094 0.53681 0.0
Cd240 Cd 0.2601 0.66162 0.50207 0.0
O241 O 0.2226 0.68276 0.53251 0.0
O242 O 0.24429 0.56234 0.56957 0.0
O243 O 0.28888 0.6037 0.56838 0.0
C244 C 0.27561 0.57602 0.5819 0.0
C245 C 0.3147 0.69058 0.49145 0.0
C246 C 0.20019 0.66436 0.54819 0.0
C247 C 0.23436 0.59246 0.4581 0.0
O248 O 0.23987 0.62604 0.45982 0.0
O249 O 0.23771 0.57616 0.48585 0.0
O250 O 0.28508 0.70059 0.47847 0.0
O251 O 0.31345 0.66617 0.51312 0.0
O252 O 0.38304 0.51554 0.69995 0.0
Cd253 Cd 0.41924 0.50219 0.73995 0.0
Cd254 Cd 0.36374 0.51546 0.7776 0.0
O255 O 0.33507 0.51528 0.72903 0.0
O256 O 0.45436 0.47474 0.71532 0.0
O257 O 0.41981 0.45195 0.75321 0.0
C258 C 0.44366 0.44776 0.73131 0.0
C259 C 0.34282 0.48623 0.82484 0.0
C260 C 0.34999 0.51854 0.70064 0.0
C261 C 0.42908 0.56797 0.78858 0.0
O262 O 0.39607 0.56174 0.79124 0.0
O263 O 0.44575 0.54482 0.77244 0.0
O264 O 0.3295 0.51428 0.81492 0.0
O265 O 0.36727 0.47375 0.80714 0.0
O266 O 0.64704 0.07738 0.72183 0.0
Cd267 Cd 0.67719 0.0378 0.73795 0.0
Cd268 Cd 0.615 0.01627 0.76348 0.0
O269 O 0.59442 0.05079 0.72869 0.0
O270 O 0.7172 0.03512 0.70709 0.0
O271 O 0.67437 0.99163 0.70736 0.0
C272 C 0.70285 1.00404 0.69459 0.0
C273 C 0.58931 0.96012 0.77317 0.0
C274 C 0.61335 0.07648 0.71812 0.0
C275 C 0.67731 0.04659 0.81534 0.0
O276 O 0.64392 0.03966 0.80912 0.0
O277 O 0.6974 0.04399 0.7904 0.0
O278 O 0.57485 0.98851 0.78264 0.0
O279 O 0.61651 0.9632 0.7551 0.0
O280 O 0.72337 0.64218 0.07216 0.0
Cd281 Cd 0.7409 0.67319 0.03378 0.0
Cd282 Cd 0.76966 0.61125 0.01351 0.0
O283 O 0.73802 0.59007 0.05022 0.0
O284 O 0.71 0.71337 0.03176 0.0
O285 O 0.71116 0.67198 0.98717 0.0
C286 C 0.69807 0.70004 1.00019 0.0
C287 C 0.77697 0.58692 0.95627 0.0
C288 C 0.72375 0.60885 0.07353 0.0
C289 C 0.81941 0.67517 0.04342 0.0
O290 O 0.81471 0.6419 0.03513 0.0
O291 O 0.7934 0.69415 0.0421 0.0
O292 O 0.78896 0.57244 0.9838 0.0
O293 O 0.75778 0.61315 0.96102 0.0
O294 O 0.89755 0.57691 0.75699 0.0
Cd295 Cd 0.86194 0.53662 0.77063 0.0
Cd296 Cd 0.91863 0.4994 0.75838 0.0
O297 O 0.94623 0.54873 0.75908 0.0
O298 O 0.82397 0.56079 0.7942 0.0
O299 O 0.86003 0.52727 0.82206 0.0
C300 C 0.83446 0.54758 0.82302 0.0
C301 C 0.93934 0.45204 0.78781 0.0
C302 C 0.93081 0.57675 0.75491 0.0
C303 C 0.85424 0.48696 0.70519 0.0
O304 O 0.88739 0.48513 0.71154 0.0
O305 O 0.83705 0.50257 0.72823 0.0
O306 O 0.95356 0.46263 0.76051 0.0
O307 O 0.91433 0.46939 0.79966 0.0
O308 O 0.70158 0.38422 0.51567 0.0
Cd309 Cd 0.74216 0.41876 0.5007 0.0
Cd310 Cd 0.77784 0.36187 0.51277 0.0
O311 O 0.72848 0.33478 0.51217 0.0
O312 O 0.71859 0.45744 0.47777 0.0
O313 O 0.74947 0.41969 0.44872 0.0
C314 C 0.73009 0.44604 0.44836 0.0
C315 C 0.82403 0.34109 0.4821 0.0
C316 C 0.70104 0.35081 0.51725 0.0
C317 C 0.79257 0.42599 0.56534 0.0
O318 O 0.79271 0.39258 0.55965 0.0
O319 O 0.77795 0.44339 0.54186 0.0
O320 O 0.81417 0.32671 0.5096 0.0
O321 O 0.80669 0.3664 0.47086 0.0
O322 O 0.63378 0.55277 0.19872 0.0
Cd323 Cd 0.60427 0.53804 0.23961 0.0
Cd324 Cd 0.66486 0.50705 0.2563 0.0
O325 O 0.68624 0.53812 0.21966 0.0
O326 O 0.56458 0.56956 0.2411 0.0
O327 O 0.60728 0.57029 0.28484 0.0
C328 C 0.57881 0.58279 0.27196 0.0
C329 C 0.68831 0.50084 0.31415 0.0
C330 C 0.66696 0.55197 0.19644 0.0
C331 C 0.59906 0.4594 0.23092 0.0
O332 O 0.63274 0.46293 0.23461 0.0
O333 O 0.58156 0.48616 0.23591 0.0
O334 O 0.70239 0.48714 0.2871 0.0
O335 O 0.66309 0.52106 0.30843 0.0
C336 C 0.10763 0.40807 0.30757 0.0
C337 C 0.08237 0.42398 0.28562 0.0
C338 C 0.03795 0.37381 0.29041 0.0
C339 C 0.06238 0.35955 0.31449 0.0
N340 N 0.11811 0.36597 0.35096 0.0
N341 N 0.02272 0.42378 0.25811 0.0
C342 C 0.09667 0.37732 0.3242 0.0
C343 C 0.04724 0.40738 0.27772 0.0
N344 N 0.14217 0.42241 0.31289 0.0
N345 N 1.00645 0.35455 0.27858 0.0
H346 H 0.02916 0.44684 0.24609 0.0
H347 H 0.99569 0.41558 0.25508 0.0
H348 H 0.9988 0.33004 0.28741 0.0
H349 H 0.98899 0.3614 0.25819 0.0
H350 H 0.16262 0.40945 0.32452 0.0
H351 H 0.15126 0.44626 0.30373 0.0
H352 H 0.14158 0.38014 0.36238 0.0
H353 H 0.11097 0.34392 0.36424 0.0
C354 C 0.91002 0.81052 0.59977 0.0
C355 C 0.92494 0.78766 0.57467 0.0
C356 C 0.87681 0.79632 0.52938 0.0
C357 C 0.86064 0.81712 0.55521 0.0
N358 N 0.85941 0.84093 0.61602 0.0
N359 N 0.92078 0.75502 0.51714 0.0
C360 C 0.87641 0.82303 0.59076 0.0
C361 C 0.90789 0.77962 0.53982 0.0
N362 N 0.92904 0.82226 0.63149 0.0
N363 N 0.86252 0.79266 0.49484 0.0
H364 H 0.94328 0.74226 0.52411 0.0
H365 H 0.90787 0.74512 0.49258 0.0
H366 H 0.83885 0.80285 0.4866 0.0
H367 H 0.87502 0.78137 0.47394 0.0
H368 H 0.92169 0.84228 0.64905 0.0
H369 H 0.95395 0.81438 0.63918 0.0
H370 H 0.86696 0.84185 0.64311 0.0
H371 H 0.83637 0.85323 0.61028 0.0
C372 C 0.43523 0.6196 0.8352 0.0
C373 C 0.4472 0.60304 0.80412 0.0
C374 C 0.49101 0.65444 0.80406 0.0
C375 C 0.47434 0.67323 0.83107 0.0
N376 N 0.42212 0.67557 0.86308 0.0
N377 N 0.48098 0.61069 0.75345 0.0
C378 C 0.44385 0.6564 0.84387 0.0
C379 C 0.47356 0.62206 0.78683 0.0
N380 N 0.41677 0.60022 0.85733 0.0
N381 N 0.52402 0.66605 0.79578 0.0
H382 H 0.46721 0.58883 0.73838 0.0
H383 H 0.49795 0.62569 0.73915 0.0
H384 H 0.53927 0.68792 0.80933 0.0
H385 H 0.53793 0.65123 0.77827 0.0
H386 H 0.40955 0.61131 0.88142 0.0
H387 H 0.41315 0.57258 0.85397 0.0
H388 H 0.39838 0.66433 0.87096 0.0
H389 H 0.42533 0.7032 0.86666 0.0
C390 C 0.62628 0.22438 0.07104 0.0
C391 C 0.60882 0.20757 0.09762 0.0
C392 C 0.65577 0.16714 0.10161 0.0
C393 C 0.67 0.18033 0.07145 0.0
N394 N 0.66224 0.21624 0.02215 0.0
N395 N 0.60302 0.15694 0.13187 0.0
C396 C 0.65349 0.20753 0.05462 0.0
C397 C 0.62245 0.17721 0.11115 0.0
N398 N 0.61827 0.25715 0.06243 0.0
N399 N 0.67455 0.14594 0.122 0.0
H400 H 0.57753 0.16198 0.13776 0.0
H401 H 0.61052 0.13279 0.13967 0.0
H402 H 0.69993 0.13949 0.11712 0.0
H403 H 0.66667 0.13828 0.14602 0.0
H404 H 0.63274 0.2717 0.04561 0.0
H405 H 0.60009 0.27158 0.07507 0.0
H406 H 0.64835 0.23348 0.00753 0.0
H407 H 0.68048 0.20341 0.00798 0.0
C408 C 0.11378 0.62178 0.17714 0.0
C409 C 0.09986 0.60814 0.20726 0.0
C410 C 0.05677 0.65284 0.2066 0.0
C411 C 0.07391 0.66932 0.17963 0.0
N412 N 0.12492 0.67384 0.14594 0.0
N413 N 0.06399 0.61756 0.25624 0.0
C414 C 0.10429 0.65509 0.16689 0.0
C415 C 0.07303 0.62561 0.22366 0.0
N416 N 0.13481 0.60235 0.1572 0.0
N417 N 0.02415 0.66162 0.21488 0.0
H418 H 0.07648 0.59936 0.27079 0.0
H419 H 0.04695 0.63202 0.27054 0.0
H420 H 0.01011 0.67986 0.20187 0.0
H421 H 0.00931 0.64776 0.23193 0.0
H422 H 0.14288 0.60984 0.13319 0.0
H423 H 0.14071 0.57688 0.16234 0.0
H424 H 0.14909 0.66597 0.13863 0.0
H425 H 0.12005 0.69918 0.13934 0.0
C426 C 0.62352 0.79063 0.46755 0.0
C427 C 0.60441 0.80758 0.44096 0.0
C428 C 0.6572 0.84854 0.4383 0.0
C429 C 0.67402 0.8357 0.46887 0.0
N430 N 0.66695 0.80024 0.51843 0.0
N431 N 0.6009 0.86034 0.40972 0.0
C432 C 0.65549 0.80836 0.4853 0.0
C433 C 0.62056 0.83891 0.42895 0.0
N434 N 0.61262 0.75708 0.47489 0.0
N435 N 0.67622 0.86877 0.41723 0.0
H436 H 0.57334 0.8561 0.40488 0.0
H437 H 0.61149 0.88473 0.40272 0.0
H438 H 0.70376 0.87387 0.42114 0.0
H439 H 0.66512 0.87642 0.39332 0.0
H440 H 0.62775 0.74302 0.49204 0.0
H441 H 0.59109 0.74166 0.4609 0.0
H442 H 0.65227 0.78247 0.53218 0.0
H443 H 0.68845 0.81419 0.53394 0.0
C444 C 0.44691 0.35092 0.6959 0.0
C445 C 0.48378 0.34696 0.7022 0.0
C446 C 0.49434 0.40884 0.72868 0.0
C447 C 0.45731 0.41252 0.72319 0.0
N448 N 0.39764 0.38617 0.70496 0.0
N449 N 0.54187 0.36967 0.72886 0.0
C450 C 0.4334 0.38317 0.70814 0.0
C451 C 0.50734 0.37533 0.71965 0.0
N452 N 0.42504 0.32458 0.67617 0.0
N453 N 0.51708 0.43748 0.7426 0.0
H454 H 0.55204 0.34546 0.72275 0.0
H455 H 0.55991 0.38778 0.74469 0.0
H456 H 0.50844 0.46136 0.75256 0.0
H457 H 0.54456 0.43826 0.74319 0.0
H458 H 0.39906 0.32738 0.66651 0.0
H459 H 0.43344 0.30037 0.66698 0.0
H460 H 0.37858 0.36459 0.6994 0.0
H461 H 0.38651 0.41006 0.70956 0.0
C462 C 0.90274 0.23749 0.98464 0.0
C463 C 0.91668 0.21267 0.96068 0.0
C464 C 0.86537 0.1696 0.96461 0.0
C465 C 0.85269 0.19343 0.99045 0.0
N466 N 0.86069 0.24814 0.0283 0.0
N467 N 0.91351 0.15381 0.93031 0.0
C468 C 0.8717 0.22696 1.00125 0.0
C469 C 0.89875 0.17826 0.95162 0.0
N470 N 0.91915 0.27116 0.99142 0.0
N471 N 0.84445 0.1396 0.95077 0.0
H472 H 0.93617 0.15977 0.91753 0.0
H473 H 0.90445 0.12697 0.92676 0.0
H474 H 0.8197 0.1322 0.95913 0.0
H475 H 0.85008 0.12341 0.92886 0.0
H476 H 0.90836 0.29178 0.00533 0.0
H477 H 0.94291 0.27921 0.98137 0.0
H478 H 0.87505 0.27133 0.04009 0.0
H479 H 0.83819 0.24107 0.04096 0.0
C480 C 0.30723 0.10884 0.40732 0.0
C481 C 0.28503 0.08364 0.42291 0.0
C482 C 0.29293 0.0381 0.37477 0.0
C483 C 0.3139 0.0637 0.35845 0.0
N484 N 0.33848 0.12429 0.35704 0.0
N485 N 0.25205 0.02629 0.41911 0.0
C486 C 0.32001 0.09936 0.37398 0.0
C487 C 0.27671 0.04874 0.40601 0.0
N488 N 0.31807 0.14121 0.42543 0.0
N489 N 0.28852 1.00358 0.36037 0.0
H490 H 0.23927 0.03353 0.44147 0.0
H491 H 0.24192 1.00171 0.4064 0.0
H492 H 0.29772 0.99524 0.33628 0.0
H493 H 0.27736 0.98274 0.37306 0.0
H494 H 0.33809 0.15878 0.41812 0.0
H495 H 0.30902 0.14991 0.44945 0.0
H496 H 0.33923 0.15149 0.36391 0.0
H497 H 0.35187 0.11814 0.33485 0.0
C498 C 0.16793 0.10287 0.65501 0.0
C499 C 0.18076 0.07223 0.66868 0.0
C500 C 0.22415 0.07155 0.6244 0.0
C501 C 0.20769 0.09875 0.60755 0.0
N502 N 0.15797 0.13436 0.60298 0.0
N503 N 0.21573 0.02233 0.65999 0.0
C504 C 0.17787 0.11278 0.62178 0.0
C505 C 0.20743 0.05511 0.65166 0.0
N506 N 0.14719 0.12333 0.67425 0.0
N507 N 0.25652 0.06235 0.61576 0.0
H508 H 0.20301 0.00822 0.67832 0.0
H509 H 0.23251 0.00748 0.64573 0.0
H510 H 0.27085 0.07491 0.59747 0.0
H511 H 0.27094 0.04505 0.62978 0.0
H512 H 0.13987 0.14767 0.66686 0.0
H513 H 0.14076 0.11808 0.69952 0.0
H514 H 0.13411 0.14255 0.61082 0.0
H515 H 0.163 0.14072 0.57764 0.0
C516 C 0.22865 1.00173 0.87013 0.0
C517 C 0.19506 0.99083 0.85125 0.0
C518 C 0.18031 0.95193 0.89741 0.0
C519 C 0.21477 0.96109 0.91521 0.0
N520 N 0.27314 0.99204 0.91744 0.0
N521 N 0.14133 0.95102 0.84327 0.0
C522 C 0.23942 0.98514 0.90115 0.0
C523 C 0.1714 0.96492 0.86405 0.0
N524 N 0.24965 0.02884 0.85901 0.0
N525 N 0.15604 0.93051 0.91226 0.0
H526 H 0.13374 0.95939 0.81855 0.0
H527 H 0.12524 0.92906 0.84898 0.0
H528 H 0.16218 0.91772 0.93489 0.0
H529 H 0.12917 0.92689 0.90331 0.0
H530 H 0.27288 0.0407 0.87326 0.0
H531 H 0.24241 0.04148 0.83652 0.0
H532 H 0.29364 1.00602 0.90657 0.0
H533 H 0.28135 0.98204 0.94119 0.0
C534 C 0.32486 0.97921 0.10663 0.0
C535 C 0.29713 0.9514 0.10255 0.0
C536 C 0.29725 0.95184 0.16717 0.0
C537 C 0.32471 0.97993 0.17125 0.0
N538 N 0.35911 0.02598 0.14591 0.0
N539 N 0.25125 0.91664 0.12774 0.0
C540 C 0.3368 0.99538 0.14123 0.0
C541 C 0.28154 0.93939 0.13253 0.0
N542 N 0.34064 0.98921 0.07761 0.0
N543 N 0.28722 0.93617 0.19625 0.0
H544 H 0.23882 0.90745 0.10268 0.0
H545 H 0.23666 0.9094 0.14834 0.0
H546 H 0.29761 0.94524 0.22207 0.0
H547 H 0.27035 0.9129 0.19475 0.0
H548 H 0.3637 1.00639 0.07917 0.0
H549 H 0.33187 0.97853 0.05181 0.0
H550 H 0.36636 0.04044 0.12521 0.0
H551 H 0.36786 0.03878 0.17092 0.0
C552 C 0.37798 0.32443 0.09505 0.0
C553 C 0.36032 0.31478 0.06071 0.0
C554 C 0.40821 0.27805 0.04576 0.0
C555 C 0.42472 0.28591 0.08093 0.0
N556 N 0.42296 0.31305 0.14069 0.0
N557 N 0.35549 0.27901 1.00476 0.0
C558 C 0.40872 0.30779 0.10612 0.0
C559 C 0.37466 0.29075 0.03634 0.0
N560 N 0.36653 0.35113 0.11644 0.0
N561 N 0.42468 0.25847 0.02133 0.0
H562 H 0.33101 0.28788 0.99701 0.0
H563 H 0.36241 0.25867 0.98732 0.0
H564 H 0.44771 0.24641 0.02787 0.0
H565 H 0.41656 0.25548 0.99429 0.0
H566 H 0.38062 0.36253 0.13996 0.0
H567 H 0.34447 0.36441 0.10923 0.0
H568 H 0.40992 0.32461 0.16106 0.0
H569 H 0.4468 0.3039 0.14986 0.0
C570 C 1.00344 0.87103 0.22597 0.0
C571 C 0.99279 0.85214 0.19236 0.0
C572 C 0.95382 0.8982 0.17724 0.0
C573 C 0.96272 0.91601 0.21171 0.0
N574 N 0.99336 0.91832 0.27024 0.0
N575 N 0.95335 0.84409 0.13835 0.0
C576 C 0.98669 0.90201 0.23654 0.0
C577 C 0.96698 0.86489 0.16849 0.0
N578 N 0.03046 0.85996 0.24719 0.0
N579 N 0.9325 0.91301 0.15279 0.0
H580 H 0.96187 0.81941 0.13086 0.0
H581 H 0.93146 0.84974 0.12209 0.0
H582 H 0.91958 0.9356 0.1588 0.0
H583 H 0.92906 0.90407 0.12594 0.0
H584 H 0.04215 0.87423 0.27047 0.0
H585 H 0.04321 0.8375 0.2401 0.0
H586 H 1.00726 0.90747 0.29085 0.0
H587 H 0.98324 0.94206 0.27833 0.0
C588 C 0.13414 0.66735 0.54654 0.0
C589 C 0.16892 0.68054 0.56144 0.0
C590 C 0.14352 0.72426 0.60079 0.0
C591 C 0.1088 0.70825 0.58894 0.0
N592 N 0.0711 0.66164 0.55368 0.0
N593 N 0.20679 0.71836 0.606 0.0
C594 C 0.10408 0.67909 0.56251 0.0
C595 C 0.17366 0.70826 0.58935 0.0
N596 N 0.12982 0.64448 0.51636 0.0
N597 N 0.14773 0.75552 0.62205 0.0
H598 H 0.2295 0.70732 0.59843 0.0
H599 H 0.21144 0.7355 0.62915 0.0
H600 H 0.12641 0.76834 0.63064 0.0
H601 H 0.17207 0.77048 0.62841 0.0
H602 H 0.10529 0.63686 0.50211 0.0
H603 H 0.15109 0.63565 0.50358 0.0
H604 H 0.06656 0.63777 0.53762 0.0
H605 H 0.04849 0.66946 0.56475 0.0
C606 C 0.97937 0.6317 0.69175 0.0
C607 C 0.98559 0.66523 0.71188 0.0
C608 C 0.95874 0.63998 0.76191 0.0
C609 C 0.95023 0.60725 0.74073 0.0
N610 N 0.94621 0.5738 0.68331 0.0
N611 N 0.97744 0.70304 0.76418 0.0
C612 C 0.95885 0.60362 0.70504 0.0
C613 C 0.97433 0.66985 0.74652 0.0
N614 N 0.99432 0.62618 0.66051 0.0
N615 N 0.95269 0.64218 0.79691 0.0
H616 H 0.98865 0.7254 0.75366 0.0
H617 H 0.96653 0.70902 0.7879 0.0
H618 H 0.9409 0.62092 0.80871 0.0
H619 H 0.96156 0.66403 0.81487 0.0
H620 H 0.99425 0.60124 0.64677 0.0
H621 H 0.00962 0.64595 0.64977 0.0
H622 H 0.948 0.57143 0.65604 0.0
H623 H 0.93108 0.55249 0.6918 0.0
C624 C 0.12961 0.19583 0.48117 0.0
C625 C 0.16328 0.21571 0.48507 0.0
C626 C 0.13683 0.26463 0.4573 0.0
C627 C 0.10419 0.24307 0.4498 0.0
N628 N 0.0713 0.18554 0.44914 0.0
N629 N 0.20036 0.26728 0.47324 0.0
C630 C 0.10096 0.20802 0.46043 0.0
C631 C 0.16727 0.24978 0.47235 0.0
N632 N 0.1246 0.16581 0.49826 0.0
N633 N 0.13846 0.29954 0.4508 0.0
H634 H 0.22324 0.25716 0.4838 0.0
H635 H 0.20556 0.29036 0.46093 0.0
H636 H 0.1166 0.31121 0.44003 0.0
H637 H 0.1604 0.31765 0.45891 0.0
H638 H 0.09971 0.15249 0.4997 0.0
H639 H 0.14479 0.15602 0.51391 0.0
H640 H 0.06946 0.15851 0.45237 0.0
H641 H 0.0496 0.19293 0.43373 0.0
C642 C 0.59164 0.39433 0.23798 0.0
C643 C 0.58067 0.42353 0.22026 0.0
C644 C 0.53821 0.38284 0.18082 0.0
C645 C 0.55387 0.35351 0.1943 0.0
N646 N 0.60055 0.33206 0.23201 0.0
N647 N 0.54733 0.44459 0.17029 0.0
C648 C 0.58176 0.35932 0.22214 0.0
C649 C 0.5547 0.41767 0.19063 0.0
N650 N 0.61107 0.39996 0.27025 0.0
N651 N 0.50725 0.37756 0.1591 0.0
H652 H 0.55983 0.47025 0.17523 0.0
H653 H 0.53138 0.44053 0.1463 0.0
H654 H 0.49387 0.35249 0.15205 0.0
H655 H 0.493 0.39829 0.1513 0.0
H656 H 0.61685 0.37951 0.2858 0.0
H657 H 0.61799 0.42524 0.28315 0.0
H658 H 0.62348 0.33593 0.24958 0.0
H659 H 0.5957 0.30617 0.22009 0.0
C660 C 0.39152 0.85523 0.97078 0.0
C661 C 0.36011 0.83205 0.97108 0.0
C662 C 0.38945 0.78315 0.94308 0.0
C663 C 0.42196 0.80524 0.94626 0.0
N664 N 0.45522 0.86119 0.96675 0.0
N665 N 0.32952 0.77334 0.95995 0.0
C666 C 0.42326 0.84114 0.96071 0.0
C667 C 0.35924 0.79582 0.95797 0.0
N668 N 0.39112 0.89069 0.98046 0.0
N669 N 0.38696 0.75055 0.92429 0.0
H670 H 0.30591 0.78197 0.96804 0.0
H671 H 0.32876 0.74585 0.95544 0.0
H672 H 0.40822 0.74055 0.9125 0.0
H673 H 0.3632 0.7347 0.91752 0.0
H674 H 0.41167 0.90962 0.97692 0.0
H675 H 0.36917 0.90174 0.98989 0.0
H676 H 0.45882 0.88615 0.98086 0.0
H677 H 0.479 0.85175 0.96014 0.0
C678 C 0.94655 0.38662 0.78136 0.0
C679 C 0.94993 0.41923 0.8033 0.0
C680 C 0.97342 0.38871 0.85367 0.0
C681 C 0.97357 0.35715 0.83067 0.0
N682 N 0.96264 0.32631 0.77209 0.0
N683 N 0.97012 0.45256 0.85926 0.0
C684 C 0.96085 0.35624 0.79435 0.0
C685 C 0.96393 0.42054 0.83932 0.0
N686 N 0.92814 0.38423 0.74855 0.0
N687 N 0.98271 0.38839 0.8892 0.0
H688 H 0.9639 0.47638 0.84963 0.0
H689 H 0.98394 0.45611 0.88436 0.0
H690 H 0.99174 0.36635 0.90045 0.0
H691 H 0.97925 0.40911 0.90796 0.0
H692 H 0.92121 0.36046 0.73277 0.0
H693 H 0.91685 0.40564 0.73827 0.0
H694 H 0.95843 0.32543 0.74459 0.0
H695 H 0.97025 0.30259 0.78095 0.0
C696 C 0.36071 0.22461 0.57516 0.0
C697 C 0.35438 0.19362 0.55087 0.0
C698 C 0.41847 0.18862 0.55302 0.0
C699 C 0.42465 0.2209 0.57525 0.0
N700 N 0.40224 0.27489 0.59795 0.0
N701 N 0.37813 0.15242 0.50903 0.0
C702 C 0.39591 0.24061 0.58323 0.0
C703 C 0.38355 0.17758 0.53736 0.0
N704 N 0.3338 0.23754 0.5925 0.0
N705 N 0.44532 0.16743 0.54828 0.0
H706 H 0.35313 0.14426 0.49604 0.0
H707 H 0.3988 0.14252 0.49608 0.0
H708 H 0.47123 0.17396 0.55976 0.0
H709 H 0.44112 0.1418 0.53556 0.0
H710 H 0.3381 0.258 0.61293 0.0
H711 H 0.30789 0.22554 0.58949 0.0
H712 H 0.38211 0.29151 0.60142 0.0
H713 H 0.42782 0.28777 0.60282 0.0
C714 C 0.57072 0.67455 0.31778 0.0
C715 C 0.53497 0.67104 0.32629 0.0
C716 C 0.52911 0.60841 0.30244 0.0
C717 C 0.56378 0.61291 0.29116 0.0
N718 N 0.61516 0.65187 0.28223 0.0
N719 N 0.47859 0.63635 0.32345 0.0
C720 C 0.58396 0.64641 0.29728 0.0
C721 C 0.5137 0.63839 0.31774 0.0
N722 N 0.59253 0.7043 0.33046 0.0
N723 N 0.51146 0.57523 0.29971 0.0
H724 H 0.46674 0.65771 0.33499 0.0
H725 H 0.46063 0.61455 0.31442 0.0
H726 H 0.52201 0.55272 0.28888 0.0
H727 H 0.48773 0.56946 0.31071 0.0
H728 H 0.61982 0.70656 0.32868 0.0
H729 H 0.58407 0.72562 0.34562 0.0
H730 H 0.62894 0.67678 0.28231 0.0
H731 H 0.62577 0.63209 0.2668 0.0
C732 C 0.11111 0.80036 0.0235 0.0
C733 C 0.11488 0.78858 0.05797 0.0
C734 C 0.17652 0.8152 0.06658 0.0
C735 C 0.17361 0.82486 0.03118 0.0
N736 N 0.14022 0.82204 0.97404 0.0
N737 N 0.15304 0.77812 0.10941 0.0
C738 C 0.14144 0.81611 0.00906 0.0
C739 C 0.14813 0.79409 0.07867 0.0
N740 N 0.07827 0.79777 0.00513 0.0
N741 N 0.20564 0.82767 0.08937 0.0
H742 H 0.133 0.76236 0.11925 0.0
H743 H 0.17778 0.77776 0.12346 0.0
H744 H 0.22718 0.84325 0.08195 0.0
H745 H 0.20716 0.82519 0.11652 0.0
H746 H 0.07299 0.80926 0.98157 0.0
H747 H 0.05553 0.78648 0.01489 0.0
H748 H 0.11879 0.81305 0.95558 0.0
H749 H 0.16199 0.83339 0.9627 0.0
C750 C 0.76669 0.95633 0.63895 0.0
C751 C 0.74525 0.9483 0.60632 0.0
C752 C 0.69704 0.97852 0.63108 0.0
C753 C 0.71739 0.98427 0.66452 0.0
N754 N 0.76952 0.97478 0.70205 0.0
N755 N 0.68772 0.94547 0.57316 0.0
C756 C 0.75175 0.97219 0.66894 0.0
C757 C 0.70978 0.95766 0.60289 0.0
N758 N 0.80155 0.94959 0.64094 0.0
N759 N 0.66619 0.99427 0.62572 0.0
H760 H 0.69582 0.9301 0.5518 0.0
H761 H 0.66053 0.94787 0.57093 0.0
H762 H 0.65591 0.00991 0.64554 0.0
H763 H 0.6524 0.99451 0.60085 0.0
H764 H 0.81972 0.95814 0.66271 0.0
H765 H 0.81302 0.93756 0.6196 0.0
H766 H 0.793 0.96329 0.70784 0.0
H767 H 0.75932 0.98611 0.72452 0.0
C768 C 0.84371 0.99418 0.39142 0.0
C769 C 0.83546 0.97371 0.35818 0.0
C770 C 0.8048 0.9265 0.3878 0.0
C771 C 0.80961 0.94876 0.42023 0.0
N772 N 0.83141 1.00471 0.45284 0.0
N773 N 0.80549 0.92191 0.32368 0.0
C774 C 0.82844 0.98288 0.42198 0.0
C775 C 0.81565 0.94004 0.35613 0.0
N776 N 0.86737 0.02374 0.39402 0.0
N777 N 0.78952 0.8925 0.38719 0.0
H778 H 0.81291 0.93093 0.30001 0.0
H779 H 0.78762 0.89927 0.31977 0.0
H780 H 0.77949 0.88221 0.40924 0.0
H781 H 0.78887 0.87361 0.36557 0.0
H782 H 0.87742 0.03783 0.418 0.0
H783 H 0.87966 0.03246 0.37243 0.0
H784 H 0.84069 0.03146 0.45469 0.0
H785 H 0.8227 0.99661 0.4764 0.0
C786 C 0.80104 0.02414 0.10752 0.0
C787 C 0.78976 0.05887 0.11118 0.0
C788 C 0.81737 0.06763 0.17246 0.0
C789 C 0.82636 0.03198 0.16975 0.0
N790 N 0.82243 0.97455 0.13678 0.0
N791 N 0.78057 0.11086 0.14916 0.0
C792 C 0.81694 0.00971 0.13781 0.0
C793 C 0.79605 0.07982 0.14423 0.0
N794 N 0.79784 1.00553 0.0748 0.0
N795 N 0.83063 0.09051 0.20124 0.0
H796 H 0.76456 0.12073 0.1293 0.0
H797 H 0.78084 0.12517 0.17384 0.0
H798 H 0.84648 0.08302 0.2226 0.0
H799 H 0.82859 0.11775 0.20256 0.0
H800 H 0.80891 0.98172 0.06957 0.0
H801 H 0.7865 0.01533 0.05207 0.0
H802 H 0.81294 0.95602 0.11557 0.0
H803 H 0.83398 0.96324 0.1585 0.0
C804 C 0.71919 0.0433 0.86999 0.0
C805 C 0.69215 0.06024 0.85174 0.0
C806 C 0.6868 0.09868 0.90564 0.0
C807 C 0.71652 0.08467 0.92267 0.0
N808 N 0.7653 0.04816 0.91888 0.0
N809 N 0.65647 0.1099 0.8498 0.0
C810 C 0.73396 0.05816 0.90429 0.0
C811 C 0.67772 0.08963 0.86888 0.0
N812 N 0.7298 0.0123 0.8553 0.0
N813 N 0.66629 0.11954 0.92479 0.0
H814 H 0.65035 0.10522 0.82242 0.0
H815 H 0.64818 0.13365 0.86049 0.0
H816 H 0.67108 0.12571 0.95216 0.0
H817 H 0.64232 0.12746 0.91419 0.0
H818 H 0.74671 0.99693 0.86906 0.0
H819 H 0.7192 1.00021 0.83055 0.0
H820 H 0.78101 0.03172 0.90503 0.0
H821 H 0.77728 0.05885 0.94366 0.0
C822 C 0.60683 0.70799 0.95297 0.0
C823 C 0.61018 0.74394 0.94506 0.0
C824 C 0.67253 0.75009 0.97 0.0
C825 C 0.66816 0.71511 0.98059 0.0
N826 N 0.62942 0.66306 0.98801 0.0
N827 N 0.64446 0.80063 0.94902 0.0
C828 C 0.63485 0.69465 0.9736 0.0
C829 C 0.6426 0.76542 0.95437 0.0
N830 N 0.57732 0.68613 0.93966 0.0
N831 N 0.70556 0.76812 0.97376 0.0
H832 H 0.62317 0.81239 0.93718 0.0
H833 H 0.66603 0.81872 0.95851 0.0
H834 H 0.72797 0.75763 0.98494 0.0
H835 H 0.71138 0.79219 0.96338 0.0
H836 H 0.57522 0.65876 0.94093 0.0
H837 H 0.55601 0.6947 0.92453 0.0
H838 H 0.60457 0.649 0.98734 0.0
H839 H 0.64908 0.65232 1.00349 0.0
C840 C 0.08051 0.14486 0.79442 0.0
C841 C 0.05976 0.11166 0.78864 0.0
C842 C 0.01074 0.13821 0.81604 0.0
C843 C 0.03288 0.17032 0.825 0.0
N844 N 0.09116 0.20218 0.82838 0.0
N845 N 1.00683 0.07507 0.79747 0.0
C846 C 0.06836 0.17317 0.8156 0.0
C847 C 0.02522 0.10789 0.80026 0.0
N848 N 0.11132 0.14982 0.77861 0.0
N849 N 0.97567 0.13702 0.82182 0.0
H850 H 0.01665 0.05234 0.78619 0.0
H851 H 0.98321 0.06979 0.80881 0.0
H852 H 0.96431 0.15877 0.83323 0.0
H853 H 0.95721 0.11565 0.81267 0.0
H854 H 0.1254 0.17456 0.77848 0.0
H855 H 0.12119 0.12986 0.76276 0.0
H856 H 0.11836 0.20364 0.82606 0.0
H857 H 0.08372 0.22364 0.84407 0.0
C858 C 0.91925 0.33681 0.45833 0.0
C859 C 0.91663 0.30298 0.43874 0.0
C860 C 0.85281 0.2949 0.44607 0.0
C861 C 0.85516 0.32914 0.46474 0.0
N862 N 0.889 0.38512 0.48424 0.0
N863 N 0.87998 0.25326 0.40722 0.0
C864 C 0.88787 0.35096 0.46922 0.0
C865 C 0.8831 0.28298 0.43072 0.0
N866 N 0.95196 0.3545 0.46828 0.0
N867 N 0.82166 0.27353 0.44336 0.0
H868 H 0.90138 0.24412 0.39488 0.0
H869 H 0.8558 0.23947 0.39735 0.0
H870 H 0.79829 0.2821 0.45216 0.0
H871 H 0.81936 0.24673 0.4342 0.0
H872 H 0.95623 0.37723 0.48601 0.0
H873 H 0.97545 0.34503 0.46086 0.0
H874 H 0.91087 0.40367 0.48464 0.0
H875 H 0.86716 0.39586 0.49426 0.0
C876 C 0.56067 0.89703 0.76485 0.0
C877 C 0.57834 0.926 0.78751 0.0
C878 C 0.57803 0.88955 0.83804 0.0
C879 C 0.55799 0.86149 0.81599 0.0
N880 N 0.52603 0.83965 0.75976 0.0
N881 N 0.6012 0.95145 0.84638 0.0
C882 C 0.54828 0.86548 0.77968 0.0
C883 C 0.58601 0.92276 0.82435 0.0
N884 N 0.55596 0.89963 0.72914 0.0
N885 N 0.59131 0.8838 0.87149 0.0
H886 H 0.61043 0.97537 0.83737 0.0
H887 H 0.60293 0.95232 0.87393 0.0
H888 H 0.58648 0.85984 0.88249 0.0
H889 H 0.60963 0.90159 0.88741 0.0
H890 H 0.54692 0.8783 0.7106 0.0
H891 H 0.56327 0.92282 0.71768 0.0
H892 H 0.51491 0.84228 0.73423 0.0
H893 H 0.51627 0.81644 0.76984 0.0
C894 C 0.95486 0.1677 0.29367 0.0
C895 C 0.98103 0.17147 0.32298 0.0
C896 C 0.97859 0.10678 0.32391 0.0
C897 C 0.95272 0.10299 0.29437 0.0
N898 N 0.92163 0.12845 0.24617 0.0
N899 N 0.02396 0.14544 0.36079 0.0
C900 C 0.94258 0.13309 0.27765 0.0
C901 C 0.9948 0.14119 0.33651 0.0
N902 N 0.9407 0.19705 0.28216 0.0
N903 N 0.9867 0.07764 0.34065 0.0
H904 H 0.03687 0.17028 0.37002 0.0
H905 H 0.03735 0.12446 0.36931 0.0
H906 H 0.97609 0.05193 0.33141 0.0
H907 H 1.00215 0.07907 0.36482 0.0
H908 H 0.91866 0.1959 0.26365 0.0
H909 H 0.94964 0.22281 0.29284 0.0
H910 H 0.91594 0.14906 0.23086 0.0
H911 H 0.91235 0.10343 0.23369 0.0
C912 C 0.61048 0.12139 0.67296 0.0
C913 C 0.59666 0.10669 0.70262 0.0
C914 C 0.55212 0.14997 0.70199 0.0
C915 C 0.56952 0.16797 0.67609 0.0
N916 N 0.62148 0.17481 0.64387 0.0
N917 N 0.55965 0.11406 0.75105 0.0
C918 C 0.60052 0.15484 0.66354 0.0
C919 C 0.56894 0.12291 0.7188 0.0
N920 N 0.63212 0.10297 0.65284 0.0
N921 N 0.51884 0.15723 0.70954 0.0
H922 H 0.57254 0.09614 0.76564 0.0
H923 H 0.54188 0.1277 0.76515 0.0
H924 H 0.50433 0.17505 0.69641 0.0
H925 H 0.50405 0.14237 0.72589 0.0
H926 H 0.64032 0.11132 0.6292 0.0
H927 H 0.63835 0.07744 0.65741 0.0
H928 H 0.64594 0.16756 0.63679 0.0
H929 H 0.61662 0.20047 0.63833 0.0
C930 C 0.16859 0.29476 0.95178 0.0
C931 C 0.17253 0.32312 0.97894 0.0
C932 C 0.10786 0.32325 0.97794 0.0
C933 C 0.10392 0.29469 0.951 0.0
N934 N 0.12929 0.24785 0.91775 0.0
N935 N 0.14701 0.35901 0.02375 0.0
C936 C 0.13398 0.27872 0.93964 0.0
C937 C 0.14243 0.33571 0.99387 0.0
N938 N 0.19778 0.28415 0.93667 0.0
N939 N 0.07872 0.33926 0.98732 0.0
H940 H 0.172 0.36822 0.03636 0.0
H941 H 0.12626 0.36675 0.0379 0.0
H942 H 0.05294 0.3301 0.97686 0.0
H943 H 0.08016 0.36283 1.00373 0.0
H944 H 0.19641 0.26649 0.91398 0.0
H945 H 0.22356 0.29479 0.94558 0.0
H946 H 0.14996 0.23304 0.91104 0.0
H947 H 0.10426 0.23523 0.90875 0.0
C948 C 0.41008 0.73151 0.48851 0.0
C949 C 0.41451 0.72434 0.45185 0.0
C950 C 0.35374 0.6949 0.4416 0.0
C951 C 0.34881 0.70329 0.47794 0.0
N952 N 0.36987 0.73355 0.53501 0.0
N953 N 0.38955 0.70249 0.39256 0.0
C954 C 0.37641 0.72256 0.50119 0.0
C955 C 0.38591 0.70732 0.42811 0.0
N956 N 0.43814 0.7469 0.51122 0.0
N957 N 0.32848 0.67308 0.42035 0.0
H958 H 0.41351 0.70747 0.38169 0.0
H959 H 0.36835 0.69524 0.37334 0.0
H960 H 0.30449 0.66342 0.42883 0.0
H961 H 0.33218 0.6621 0.39506 0.0
H962 H 0.43838 0.74886 0.53871 0.0
H963 H 0.46214 0.75656 0.50264 0.0
H964 H 0.38732 0.75073 0.55249 0.0
H965 H 0.34555 0.7275 0.54496 0.0
C966 C 0.82525 0.59301 0.87265 0.0
C967 C 0.81896 0.5575 0.85678 0.0
C968 C 0.78127 0.54237 0.90391 0.0
C969 C 0.78966 0.57716 0.92103 0.0
N970 N 0.82484 0.63368 0.92532 0.0
N971 N 0.79382 0.4973 0.85847 0.0
C972 C 0.8128 0.60209 0.90622 0.0
C973 C 0.79786 0.53182 0.87285 0.0
N974 N 0.84346 0.61816 0.85578 0.0
N975 N 0.75646 0.51989 0.91672 0.0
H976 H 0.8039 0.489 0.8348 0.0
H977 H 0.78229 0.47645 0.87088 0.0
H978 H 0.74379 0.52695 0.93921 0.0
H979 H 0.74631 0.49542 0.90376 0.0
H980 H 0.84468 0.64526 0.86339 0.0
H981 H 0.85577 0.61232 0.8328 0.0
H982 H 0.84504 0.65108 0.91806 0.0
H983 H 0.817 0.64142 0.9502 0.0
C984 C 0.67019 0.54975 0.13038 0.0
C985 C 0.68267 0.56548 0.16504 0.0
C986 C 0.72567 0.60542 0.13946 0.0
C987 C 0.71026 0.59269 0.10474 0.0
N988 N 0.66456 0.55599 0.06718 0.0
N989 N 0.71873 0.61178 0.20243 0.0
C990 C 0.68169 0.5656 0.10017 0.0
C991 C 0.70955 0.5942 0.16957 0.0
N992 N 0.64831 0.51888 0.12629 0.0
N993 N 0.75655 0.62728 0.14375 0.0
H994 H 0.70744 0.60453 0.2251 0.0
H995 H 0.73519 0.63541 0.20674 0.0
H996 H 0.76958 0.63565 0.12249 0.0
H997 H 0.77109 0.63431 0.16823 0.0
H998 H 0.64135 0.50416 0.10191 0.0
H999 H 0.63978 0.50607 0.14765 0.0
H1000 H 0.64106 0.53933 0.06271 0.0
H1001 H 0.67213 0.56703 0.04448 0.0
C1002 C 0.68292 0.45879 0.40173 0.0
C1003 C 0.71939 0.46154 0.41472 0.0
C1004 C 0.73441 0.49553 0.36483 0.0
C1005 C 0.69843 0.49018 0.3503 0.0
N1006 N 0.6389 0.46293 0.35257 0.0
N1007 N 0.78045 0.48037 0.40794 0.0
C1008 C 0.67271 0.47122 0.36836 0.0
C1009 C 0.74533 0.47922 0.39598 0.0
N1010 N 0.65785 0.44383 0.4211 0.0
N1011 N 0.75782 0.51751 0.34957 0.0
H1012 H 0.78932 0.47098 0.43181 0.0
H1013 H 0.80103 0.48887 0.39342 0.0
H1014 H 0.75046 0.53038 0.32728 0.0
H1015 H 0.78362 0.52553 0.36052 0.0
H1016 H 0.63076 0.44582 0.416 0.0
H1017 H 0.664 0.43079 0.44355 0.0
H1018 H 0.62038 0.44499 0.36175 0.0
H1019 H 0.62969 0.47184 0.32864 0.0
C1020 C 0.81045 0.48888 0.65081 0.0
C1021 C 0.83644 0.47132 0.67006 0.0
C1022 C 0.83892 0.43042 0.61724 0.0
C1023 C 0.80875 0.44379 0.60026 0.0
N1024 N 0.75988 0.48037 0.60697 0.0
N1025 N 0.86638 0.41787 0.67369 0.0
C1026 C 0.7927 0.47154 0.61867 0.0
C1027 C 0.84802 0.43981 0.65391 0.0
N1028 N 0.80364 0.52258 0.66184 0.0
N1029 N 0.85976 0.40973 0.59838 0.0
H1030 H 0.8703 0.42191 0.70126 0.0
H1031 H 0.87321 0.39338 0.66315 0.0
H1032 H 0.85598 0.40469 0.57084 0.0
H1033 H 0.88338 0.40159 0.60966 0.0
H1034 H 0.78698 0.53709 0.64666 0.0
H1035 H 0.81763 0.5376 0.68362 0.0
H1036 H 0.74637 0.49845 0.62157 0.0
H1037 H 0.7443 0.46677 0.58534 0.0
C1038 C 0.45656 0.13809 0.26339 0.0
C1039 C 0.44885 0.10536 0.24204 0.0
C1040 C 0.48032 0.13004 0.19461 0.0
C1041 C 0.48478 0.16375 0.21443 0.0
N1042 N 0.47347 0.20142 0.26577 0.0
N1043 N 0.44779 0.07196 0.18477 0.0
C1044 C 0.47205 0.1682 0.24842 0.0
C1045 C 0.45934 0.10173 0.20699 0.0
N1046 N 0.44986 0.14009 0.29823 0.0
N1047 N 0.49717 0.12464 0.16451 0.0
H1048 H 0.43227 0.05048 0.1924 0.0
H1049 H 0.45093 0.0698 0.15774 0.0
H1050 H 0.51294 0.1446 0.15456 0.0
H1051 H 0.49824 0.09966 0.15123 0.0
H1052 H 0.45814 0.16206 0.31624 0.0
H1053 H 0.43864 0.1185 0.30995 0.0
H1054 H 0.46124 0.20702 0.2888 0.0
H1055 H 0.48444 0.22406 0.25557 0.0
C1056 C 0.08997 0.87083 0.67405 0.0
C1057 C 0.06134 0.85276 0.68881 0.0
C1058 C 0.05991 0.90403 0.73239 0.0
C1059 C 0.08563 0.92333 0.71479 0.0
N1060 N 0.11895 0.92758 0.66375 0.0
N1061 N 0.01492 0.85419 0.72829 0.0
C1062 C 0.09892 0.90744 0.68415 0.0
C1063 C 0.04515 0.86985 0.71706 0.0
N1064 N 0.10958 0.85276 0.65134 0.0
N1065 N 0.05054 0.91771 0.7643 0.0
H1066 H 1.00305 0.82943 0.71742 0.0
H1067 H 0.99993 0.86709 0.74618 0.0
H1068 H 0.06104 0.94247 0.77651 0.0
H1069 H 0.03477 0.90323 0.7801 0.0
H1070 H 0.13294 0.86396 0.64273 0.0
H1071 H 0.10478 0.82556 0.64416 0.0
H1072 H 0.12621 0.91791 0.63919 0.0
H1073 H 0.1251 0.95489 0.66937 0.0
C1074 C 0.47249 0.8884 0.3491 0.0
C1075 C 0.46844 0.85605 0.32673 0.0
C1076 C 0.43404 0.88441 0.28115 0.0
C1077 C 0.4416 0.91767 0.30173 0.0
N1078 N 0.47061 0.95243 0.35384 0.0
N1079 N 0.44756 0.82331 0.27061 0.0
C1080 C 0.46115 0.91992 0.33556 0.0
C1081 C 0.44981 0.8541 0.2925 0.0
N1082 N 0.48749 0.88907 0.38322 0.0
N1083 N 0.41056 0.88154 0.25141 0.0
H1084 H 0.45672 0.7999 0.27872 0.0
H1085 H 0.43843 0.82141 0.24382 0.0
H1086 H 0.39791 0.90296 0.24266 0.0
H1087 H 0.40101 0.85748 0.2372 0.0
H1088 H 0.48762 0.9106 0.40213 0.0
H1089 H 0.49779 0.86713 0.39354 0.0
H1090 H 0.48828 0.95652 0.37663 0.0
H1091 H 0.46281 0.976 0.34482 0.0
C1092 C 0.87304 0.67592 0.08642 0.0
C1093 C 0.85539 0.69091 0.05765 0.0
C1094 C 0.90713 0.73402 0.0567 0.0
C1095 C 0.92601 0.71617 0.08257 0.0
N1096 N 0.9294 0.66499 0.11592 0.0
N1097 N 0.85764 0.73048 0.01132 0.0
C1098 C 0.90967 0.68564 0.0957 0.0
C1099 C 0.87292 0.71904 0.04165 0.0
N1100 N 0.85455 0.65336 0.10585 0.0
N1101 N 0.92122 0.76585 0.04746 0.0
H1102 H 0.83286 0.71987 0.99924 0.0
H1103 H 0.87086 0.74828 0.99646 0.0
H1104 H 0.94602 0.77781 0.05818 0.0
H1105 H 0.90705 0.78184 0.03159 0.0
H1106 H 0.86545 0.6446 0.12929 0.0
H1107 H 0.82732 0.64645 0.10081 0.0
H1108 H 0.91941 0.64049 0.12309 0.0
H1109 H 0.95671 0.67034 0.12231 0.0
C1110 C 0.60763 0.30838 0.52569 0.0
C1111 C 0.61262 0.29544 0.55959 0.0
C1112 C 0.67444 0.32149 0.56651 0.0
C1113 C 0.67042 0.33162 0.53136 0.0
N1114 N 0.63478 0.3318 0.47586 0.0
N1115 N 0.65209 0.28423 0.60979 0.0
C1116 C 0.63739 0.32432 0.51048 0.0
C1117 C 0.64637 0.30058 0.57938 0.0
N1118 N 0.57423 0.30649 0.50862 0.0
N1119 N 0.70463 0.33301 0.58816 0.0
H1120 H 0.6323 0.26863 0.62017 0.0
H1121 H 0.67713 0.28353 0.62309 0.0
H1122 H 0.72589 0.34844 0.57995 0.0
H1123 H 0.7074 0.32999 0.61521 0.0
H1124 H 0.56811 0.31863 0.48562 0.0
H1125 H 0.5519 0.2951 0.51903 0.0
H1126 H 0.61263 0.32377 0.45799 0.0
H1127 H 0.65595 0.34391 0.46419 0.0
C1128 C 0.26457 0.45698 0.13524 0.0
C1129 C 0.24301 0.44932 0.10262 0.0
C1130 C 0.19551 0.48027 0.12791 0.0
C1131 C 0.21545 0.48436 0.16156 0.0
N1132 N 0.26715 0.47277 0.19871 0.0
N1133 N 0.18535 0.44807 0.06974 0.0
C1134 C 0.24963 0.47185 0.16562 0.0
C1135 C 0.20782 0.4596 0.09935 0.0
N1136 N 0.29958 0.45082 0.1369 0.0
N1137 N 0.16533 0.49715 0.12283 0.0
H1138 H 0.19283 0.43267 0.04812 0.0
H1139 H 0.15827 0.45109 0.06788 0.0
H1140 H 0.15548 0.51277 0.14296 0.0
H1141 H 0.15193 0.49843 0.09794 0.0
H1142 H 0.31765 0.4591 0.15883 0.0
H1143 H 0.31133 0.44017 0.11508 0.0
H1144 H 0.29034 0.46061 0.20392 0.0
H1145 H 0.25694 0.48314 0.22158 0.0
C1146 C 0.33549 0.49162 0.89012 0.0
C1147 C 0.33163 0.47033 0.85714 0.0
C1148 C 0.30574 0.42008 0.88619 0.0
C1149 C 0.30586 0.44268 0.91802 0.0
N1150 N 0.31851 0.50059 0.95006 0.0
N1151 N 0.30974 0.41545 0.82253 0.0
C1152 C 0.32005 0.47865 0.91988 0.0
C1153 C 0.31625 0.43468 0.8549 0.0
N1154 N 0.35534 0.5237 0.89344 0.0
N1155 N 0.29526 0.38469 0.88576 0.0
H1156 H 0.31669 0.42527 0.79906 0.0
H1157 H 0.29498 0.39084 0.81836 0.0
H1158 H 0.28571 0.37333 0.90749 0.0
H1159 H 0.29833 0.36607 0.86477 0.0
H1160 H 0.36243 0.53887 0.91754 0.0
H1161 H 0.36768 0.53378 0.87252 0.0
H1162 H 0.32399 0.52804 0.95157 0.0
H1163 H 0.30981 0.49162 0.97329 0.0
C1164 C 0.30546 0.5261 0.60789 0.0
C1165 C 0.29503 0.56117 0.61201 0.0
C1166 C 0.32264 0.56862 0.67329 0.0
C1167 C 0.33038 0.53259 0.67019 0.0
N1168 N 0.32586 0.4756 0.63638 0.0
N1169 N 0.28788 0.6136 0.65031 0.0
C1170 C 0.32089 0.5109 0.63795 0.0
C1171 C 0.30209 0.58186 0.64516 0.0
N1172 N 0.3018 0.50786 0.57498 0.0
N1173 N 0.33611 0.59066 0.70262 0.0
H1174 H 0.27251 0.62426 0.6305 0.0
H1175 H 0.28861 0.62789 0.67504 0.0
H1176 H 0.35128 0.58219 0.72395 0.0
H1177 H 0.33493 0.61804 0.70453 0.0
H1178 H 0.31216 0.48372 0.5694 0.0
H1179 H 0.29084 0.51824 0.55242 0.0
H1180 H 0.31616 0.45743 0.61495 0.0
H1181 H 0.33748 0.46388 0.6578 0.0
C1182 C 0.22787 0.57188 0.35909 0.0
C1183 C 0.19639 0.54829 0.35272 0.0
C1184 C 0.19107 0.55077 0.41669 0.0
C1185 C 0.22349 0.57281 0.42295 0.0
N1186 N 0.27821 0.59386 0.40091 0.0
N1187 N 0.15501 0.50661 0.37633 0.0
C1188 C 0.24371 0.57987 0.39435 0.0
C1189 C 0.18022 0.53491 0.38182 0.0
N1190 N 0.24142 0.58878 0.33221 0.0
N1191 N 0.1695 0.54655 0.44326 0.0
H1192 H 0.14729 0.49338 0.35132 0.0
H1193 H 0.1448 0.49388 0.39697 0.0
H1194 H 0.17576 0.55828 0.46908 0.0
H1195 H 0.14383 0.53394 0.43882 0.0
H1196 H 0.26227 0.60881 0.33659 0.0
H1197 H 0.22969 0.58582 0.30621 0.0
H1198 H 0.29509 0.5967 0.38094 0.0
H1199 H 0.29089 0.59871 0.42658 0.0
loop_
_geom_bond_atom_site_label_1
_geom_bond_atom_site_label_2
_geom_bond_distance
_geom_bond_site_symmetry_2
_ccdc_geom_bond_type
O0 Cd1 2.223 . S
O0 C8 1.315 . S
Cd1 O0 2.223 . S
Cd1 O4 2.297 . S
Cd1 O5 2.439 . S
Cd1 O11 2.240 1_455 S
Cd2 O3 2.240 1_655 S
Cd2 O10 2.223 . S
Cd2 O12 2.297 . S
Cd2 O13 2.439 . S
O3 Cd2 2.240 1_455 S
O3 C8 1.279 . S
O4 Cd1 2.297 . S
O4 C6 1.247 . S
O5 Cd1 2.439 . S
O5 C6 1.208 . S
C6 O4 1.247 . S
C6 O5 1.208 . S
C7 O12 1.247 . S
C7 O13 1.208 . S
C8 O0 1.315 . S
C8 O3 1.279 . S
C9 O10 1.315 . S
C9 O11 1.279 . S
O10 Cd2 2.223 . S
O10 C9 1.315 . S
O11 Cd1 2.240 1_655 S
O11 C9 1.279 . S
O12 Cd2 2.297 . S
O12 C7 1.247 . S
O13 Cd2 2.439 . S
O13 C7 1.208 . S
O14 Cd15 2.223 . S
O14 C22 1.315 . S
Cd15 O14 2.223 . S
Cd15 O18 2.297 . S
Cd15 O19 2.439 1_455 S
Cd15 O25 2.240 . S
Cd16 O17 2.240 . S
Cd16 O24 2.223 . S
Cd16 O26 2.297 1_455 S
Cd16 O27 2.439 1_455 S
O17 Cd16 2.240 . S
O17 C22 1.279 . S
O18 Cd15 2.297 . S
O18 C20 1.247 1_455 S
O19 Cd15 2.439 1_655 S
O19 C20 1.208 . S
C20 O18 1.247 1_655 S
C20 O19 1.208 . S
C21 O26 1.247 . S
C21 O27 1.208 . S
C22 O14 1.315 . S
C22 O17 1.279 . S
C23 O24 1.315 . S
C23 O25 1.279 . S
O24 Cd16 2.223 . S
O24 C23 1.315 . S
O25 Cd15 2.240 . S
O25 C23 1.279 . S
O26 Cd16 2.297 1_655 S
O26 C21 1.247 . S
O27 Cd16 2.439 1_655 S
O27 C21 1.208 . S
O28 Cd29 2.223 . S
O28 C36 1.315 . S
Cd29 O28 2.223 . S
Cd29 O32 2.297 . S
Cd29 O33 2.439 . S
Cd29 O39 2.240 . S
Cd30 O31 2.240 . S
Cd30 O38 2.223 . S
Cd30 O40 2.297 . S
Cd30 O41 2.439 . S
O31 Cd30 2.240 . S
O31 C36 1.279 . S
O32 Cd29 2.297 . S
O32 C34 1.247 . S
O33 Cd29 2.439 . S
O33 C34 1.208 . S
C34 O32 1.247 . S
C34 O33 1.208 . S
C35 O40 1.247 . S
C35 O41 1.208 . S
C36 O28 1.315 . S
C36 O31 1.279 . S
C37 O38 1.315 . S
C37 O39 1.279 . S
O38 Cd30 2.223 . S
O38 C37 1.315 . S
O39 Cd29 2.240 . S
O39 C37 1.279 . S
O40 Cd30 2.297 . S
O40 C35 1.247 . S
O41 Cd30 2.439 . S
O41 C35 1.208 . S
O42 Cd43 2.223 . S
O42 C50 1.315 . S
Cd43 O42 2.223 . S
Cd43 O46 2.297 . S
Cd43 O47 2.439 . S
Cd43 O53 2.240 . S
Cd44 O45 2.240 . S
Cd44 O52 2.223 . S
Cd44 O54 2.297 . S
Cd44 O55 2.439 . S
O45 Cd44 2.240 . S
O45 C50 1.279 . S
O46 Cd43 2.297 . S
O46 C48 1.247 . S
O47 Cd43 2.439 . S
O47 C48 1.208 . S
C48 O46 1.247 . S
C48 O47 1.208 . S
C49 O54 1.247 . S
C49 O55 1.208 . S
C50 O42 1.315 . S
C50 O45 1.279 . S
C51 O52 1.315 . S
C51 O53 1.279 . S
O52 Cd44 2.223 . S
O52 C51 1.315 . S
O53 Cd43 2.240 . S
O53 C51 1.279 . S
O54 Cd44 2.297 . S
O54 C49 1.247 . S
O55 Cd44 2.439 . S
O55 C49 1.208 . S
O56 Cd57 2.223 . S
O56 C64 1.315 . S
Cd57 O56 2.223 . S
Cd57 O60 2.297 . S
Cd57 O61 2.439 . S
Cd57 O67 2.240 1_455 S
Cd58 O59 2.240 1_655 S
Cd58 O66 2.223 . S
Cd58 O68 2.297 . S
Cd58 O69 2.439 . S
O59 Cd58 2.240 1_455 S
O59 C64 1.279 . S
O60 Cd57 2.297 . S
O60 C62 1.247 . S
O61 Cd57 2.439 . S
O61 C62 1.208 . S
C62 O60 1.247 . S
C62 O61 1.208 . S
C63 O68 1.247 . S
C63 O69 1.208 . S
C64 O56 1.315 . S
C64 O59 1.279 . S
C65 O66 1.315 . S
C65 O67 1.279 . S
O66 Cd58 2.223 . S
O66 C65 1.315 . S
O67 Cd57 2.240 1_655 S
O67 C65 1.279 . S
O68 Cd58 2.297 . S
O68 C63 1.247 . S
O69 Cd58 2.439 . S
O69 C63 1.208 . S
O70 Cd71 2.223 . S
O70 C78 1.315 . S
Cd71 O70 2.223 . S
Cd71 O74 2.297 . S
Cd71 O75 2.439 . S
Cd71 O81 2.240 . S
Cd72 O73 2.240 . S
Cd72 O80 2.223 . S
Cd72 O82 2.297 . S
Cd72 O83 2.439 . S
O73 Cd72 2.240 . S
O73 C78 1.279 . S
O74 Cd71 2.297 . S
O74 C76 1.247 . S
O75 Cd71 2.439 . S
O75 C76 1.208 . S
C76 O74 1.247 . S
C76 O75 1.208 . S
C77 O82 1.247 . S
C77 O83 1.208 . S
C78 O70 1.315 . S
C78 O73 1.279 . S
C79 O80 1.315 . S
C79 O81 1.279 . S
O80 Cd72 2.223 . S
O80 C79 1.315 . S
O81 Cd71 2.240 . S
O81 C79 1.279 . S
O82 Cd72 2.297 . S
O82 C77 1.247 . S
O83 Cd72 2.439 . S
O83 C77 1.208 . S
O84 Cd85 2.223 . S
O84 C92 1.315 . S
Cd85 O84 2.223 . S
Cd85 O88 2.297 . S
Cd85 O89 2.439 . S
Cd85 O95 2.240 . S
Cd86 O87 2.240 . S
Cd86 O94 2.223 . S
Cd86 O96 2.297 . S
Cd86 O97 2.439 . S
O87 Cd86 2.240 . S
O87 C92 1.279 . S
O88 Cd85 2.297 . S
O88 C90 1.247 . S
O89 Cd85 2.439 . S
O89 C90 1.208 . S
C90 O88 1.247 . S
C90 O89 1.208 . S
C91 O96 1.247 . S
C91 O97 1.208 . S
C92 O84 1.315 . S
C92 O87 1.279 . S
C93 O94 1.315 . S
C93 O95 1.279 . S
O94 Cd86 2.223 . S
O94 C93 1.315 . S
O95 Cd85 2.240 . S
O95 C93 1.279 . S
O96 Cd86 2.297 . S
O96 C91 1.247 . S
O97 Cd86 2.439 . S
O97 C91 1.208 . S
O98 Cd99 2.223 . S
O98 C106 1.315 . S
Cd99 O98 2.223 . S
Cd99 O102 2.297 1_455 S
Cd99 O103 2.439 1_455 S
Cd99 O109 2.240 . S
Cd100 O101 2.240 . S
Cd100 O108 2.223 . S
Cd100 O110 2.297 . S
Cd100 O111 2.439 1_455 S
O101 Cd100 2.240 . S
O101 C106 1.279 . S
O102 Cd99 2.297 1_655 S
O102 C104 1.247 . S
O103 Cd99 2.439 1_655 S
O103 C104 1.208 . S
C104 O102 1.247 . S
C104 O103 1.208 . S
C105 O110 1.247 1_655 S
C105 O111 1.208 . S
C106 O98 1.315 . S
C106 O101 1.279 . S
C107 O108 1.315 . S
C107 O109 1.279 . S
O108 Cd100 2.223 . S
O108 C107 1.315 . S
O109 Cd99 2.240 . S
O109 C107 1.279 . S
O110 Cd100 2.297 . S
O110 C105 1.247 1_455 S
O111 Cd100 2.439 1_655 S
O111 C105 1.208 . S
O112 Cd113 2.223 . S
O112 C120 1.315 . S
Cd113 O112 2.223 . S
Cd113 O116 2.297 . S
Cd113 O117 2.439 . S
Cd113 O123 2.240 1_545 S
Cd114 O115 2.240 1_565 S
Cd114 O122 2.223 . S
Cd114 O124 2.297 . S
Cd114 O125 2.439 . S
O115 Cd114 2.240 1_545 S
O115 C120 1.279 . S
O116 Cd113 2.297 . S
O116 C118 1.247 . S
O117 Cd113 2.439 . S
O117 C118 1.208 . S
C118 O116 1.247 . S
C118 O117 1.208 . S
C119 O124 1.247 . S
C119 O125 1.208 . S
C120 O112 1.315 . S
C120 O115 1.279 . S
C121 O122 1.315 . S
C121 O123 1.279 . S
O122 Cd114 2.223 . S
O122 C121 1.315 . S
O123 Cd113 2.240 1_565 S
O123 C121 1.279 . S
O124 Cd114 2.297 . S
O124 C119 1.247 . S
O125 Cd114 2.439 . S
O125 C119 1.208 . S
O126 Cd127 2.223 . S
O126 C134 1.315 . S
Cd127 O126 2.223 . S
Cd127 O130 2.297 . S
Cd127 O131 2.439 . S
Cd127 O137 2.240 . S
Cd128 O129 2.240 . S
Cd128 O136 2.223 . S
Cd128 O138 2.297 . S
Cd128 O139 2.439 . S
O129 Cd128 2.240 . S
O129 C134 1.279 . S
O130 Cd127 2.297 . S
O130 C132 1.247 . S
O131 Cd127 2.439 . S
O131 C132 1.208 . S
C132 O130 1.247 . S
C132 O131 1.208 . S
C133 O138 1.247 . S
C133 O139 1.208 . S
C134 O126 1.315 . S
C134 O129 1.279 . S
C135 O136 1.315 . S
C135 O137 1.279 . S
O136 Cd128 2.223 . S
O136 C135 1.315 . S
O137 Cd127 2.240 . S
O137 C135 1.279 . S
O138 Cd128 2.297 . S
O138 C133 1.247 . S
O139 Cd128 2.439 . S
O139 C133 1.208 . S
O140 Cd141 2.223 . S
O140 C148 1.315 . S
Cd141 O140 2.223 . S
Cd141 O144 2.297 . S
Cd141 O145 2.439 . S
Cd141 O151 2.240 1_545 S
Cd142 O143 2.240 1_565 S
Cd142 O150 2.223 . S
Cd142 O152 2.297 . S
Cd142 O153 2.439 . S
O143 Cd142 2.240 1_545 S
O143 C148 1.279 . S
O144 Cd141 2.297 . S
O144 C146 1.247 . S
O145 Cd141 2.439 . S
O145 C146 1.208 . S
C146 O144 1.247 . S
C146 O145 1.208 . S
C147 O152 1.247 . S
C147 O153 1.208 . S
C148 O140 1.315 . S
C148 O143 1.279 . S
C149 O150 1.315 . S
C149 O151 1.279 . S
O150 Cd142 2.223 . S
O150 C149 1.315 . S
O151 Cd141 2.240 1_565 S
O151 C149 1.279 . S
O152 Cd142 2.297 . S
O152 C147 1.247 . S
O153 Cd142 2.439 . S
O153 C147 1.208 . S
O154 Cd155 2.223 . S
O154 C162 1.315 . S
Cd155 O154 2.223 . S
Cd155 O158 2.297 1_554 S
Cd155 O159 2.439 1_554 S
Cd155 O165 2.240 . S
Cd156 O157 2.240 . S
Cd156 O164 2.223 . S
Cd156 O166 2.297 . S
Cd156 O167 2.439 1_554 S
O157 Cd156 2.240 . S
O157 C162 1.279 . S
O158 Cd155 2.297 1_556 S
O158 C160 1.247 . S
O159 Cd155 2.439 1_556 S
O159 C160 1.208 . S
C160 O158 1.247 . S
C160 O159 1.208 . S
C161 O166 1.247 1_556 S
C161 O167 1.208 . S
C162 O154 1.315 . S
C162 O157 1.279 . S
C163 O164 1.315 . S
C163 O165 1.279 . S
O164 Cd156 2.223 . S
O164 C163 1.315 . S
O165 Cd155 2.240 . S
O165 C163 1.279 . S
O166 Cd156 2.297 . S
O166 C161 1.247 1_554 S
O167 Cd156 2.439 1_556 S
O167 C161 1.208 . S
O168 Cd169 2.223 . S
O168 C176 1.315 . S
Cd169 O168 2.223 . S
Cd169 O172 2.297 . S
Cd169 O173 2.439 . S
Cd169 O179 2.240 1_554 S
Cd170 O171 2.240 1_556 S
Cd170 O178 2.223 . S
Cd170 O180 2.297 . S
Cd170 O181 2.439 . S
O171 Cd170 2.240 1_554 S
O171 C176 1.279 . S
O172 Cd169 2.297 . S
O172 C174 1.247 . S
O173 Cd169 2.439 . S
O173 C174 1.208 . S
C174 O172 1.247 . S
C174 O173 1.208 . S
C175 O180 1.247 . S
C175 O181 1.208 . S
C176 O168 1.315 . S
C176 O171 1.279 . S
C177 O178 1.315 . S
C177 O179 1.279 . S
O178 Cd170 2.223 . S
O178 C177 1.315 . S
O179 Cd169 2.240 1_556 S
O179 C177 1.279 . S
O180 Cd170 2.297 . S
O180 C175 1.247 . S
O181 Cd170 2.439 . S
O181 C175 1.208 . S
O182 Cd183 2.223 . S
O182 C190 1.315 . S
Cd183 O182 2.223 . S
Cd183 O186 2.297 . S
Cd183 O187 2.439 . S
Cd183 O193 2.240 1_554 S
Cd184 O185 2.240 1_556 S
Cd184 O192 2.223 . S
Cd184 O194 2.297 . S
Cd184 O195 2.439 . S
O185 Cd184 2.240 1_554 S
O185 C190 1.279 . S
O186 Cd183 2.297 . S
O186 C188 1.247 . S
O187 Cd183 2.439 . S
O187 C188 1.208 . S
C188 O186 1.247 . S
C188 O187 1.208 . S
C189 O194 1.247 . S
C189 O195 1.208 . S
C190 O182 1.315 . S
C190 O185 1.279 . S
C191 O192 1.315 . S
C191 O193 1.279 . S
O192 Cd184 2.223 . S
O192 C191 1.315 . S
O193 Cd183 2.240 1_556 S
O193 C191 1.279 . S
O194 Cd184 2.297 . S
O194 C189 1.247 . S
O195 Cd184 2.439 . S
O195 C189 1.208 . S
O196 Cd197 2.223 . S
O196 C204 1.315 . S
Cd197 O196 2.223 . S
Cd197 O200 2.297 . S
Cd197 O201 2.439 . S
Cd197 O207 2.240 . S
Cd198 O199 2.240 . S
Cd198 O206 2.223 . S
Cd198 O208 2.297 . S
Cd198 O209 2.439 . S
O199 Cd198 2.240 . S
O199 C204 1.279 . S
O200 Cd197 2.297 . S
O200 C202 1.247 . S
O201 Cd197 2.439 . S
O201 C202 1.208 . S
C202 O200 1.247 . S
C202 O201 1.208 . S
C203 O208 1.247 . S
C203 O209 1.208 . S
C204 O196 1.315 . S
C204 O199 1.279 . S
C205 O206 1.315 . S
C205 O207 1.279 . S
O206 Cd198 2.223 . S
O206 C205 1.315 . S
O207 Cd197 2.240 . S
O207 C205 1.279 . S
O208 Cd198 2.297 . S
O208 C203 1.247 . S
O209 Cd198 2.439 . S
O209 C203 1.208 . S
O210 Cd211 2.223 . S
O210 C218 1.315 . S
Cd211 O210 2.223 . S
Cd211 O214 2.297 . S
Cd211 O215 2.439 . S
Cd211 O221 2.240 . S
Cd212 O213 2.240 . S
Cd212 O220 2.223 . S
Cd212 O222 2.297 . S
Cd212 O223 2.439 . S
O213 Cd212 2.240 . S
O213 C218 1.279 . S
O214 Cd211 2.297 . S
O214 C216 1.247 . S
O215 Cd211 2.439 . S
O215 C216 1.208 . S
C216 O214 1.247 . S
C216 O215 1.208 . S
C217 O222 1.247 . S
C217 O223 1.208 . S
C218 O210 1.315 . S
C218 O213 1.279 . S
C219 O220 1.315 . S
C219 O221 1.279 . S
O220 Cd212 2.223 . S
O220 C219 1.315 . S
O221 Cd211 2.240 . S
O221 C219 1.279 . S
O222 Cd212 2.297 . S
O222 C217 1.247 . S
O223 Cd212 2.439 . S
O223 C217 1.208 . S
O224 Cd225 2.223 . S
O224 C232 1.315 . S
Cd225 O224 2.223 . S
Cd225 O228 2.297 1_545 S
Cd225 O229 2.439 1_545 S
Cd225 O235 2.240 . S
Cd226 O227 2.240 . S
Cd226 O234 2.223 . S
Cd226 O236 2.297 . S
Cd226 O237 2.439 1_545 S
O227 Cd226 2.240 . S
O227 C232 1.279 . S
O228 Cd225 2.297 1_565 S
O228 C230 1.247 . S
O229 Cd225 2.439 1_565 S
O229 C230 1.208 . S
C230 O228 1.247 . S
C230 O229 1.208 . S
C231 O236 1.247 1_565 S
C231 O237 1.208 . S
C232 O224 1.315 . S
C232 O227 1.279 . S
C233 O234 1.315 . S
C233 O235 1.279 . S
O234 Cd226 2.223 . S
O234 C233 1.315 . S
O235 Cd225 2.240 . S
O235 C233 1.279 . S
O236 Cd226 2.297 . S
O236 C231 1.247 1_545 S
O237 Cd226 2.439 1_565 S
O237 C231 1.208 . S
O238 Cd239 2.223 . S
O238 C246 1.315 . S
Cd239 O238 2.223 . S
Cd239 O242 2.297 . S
Cd239 O243 2.439 . S
Cd239 O249 2.240 . S
Cd240 O241 2.240 . S
Cd240 O248 2.223 . S
Cd240 O250 2.297 . S
Cd240 O251 2.439 . S
O241 Cd240 2.240 . S
O241 C246 1.279 . S
O242 Cd239 2.297 . S
O242 C244 1.247 . S
O243 Cd239 2.439 . S
O243 C244 1.208 . S
C244 O242 1.247 . S
C244 O243 1.208 . S
C245 O250 1.247 . S
C245 O251 1.208 . S
C246 O238 1.315 . S
C246 O241 1.279 . S
C247 O248 1.315 . S
C247 O249 1.279 . S
O248 Cd240 2.223 . S
O248 C247 1.315 . S
O249 Cd239 2.240 . S
O249 C247 1.279 . S
O250 Cd240 2.297 . S
O250 C245 1.247 . S
O251 Cd240 2.439 . S
O251 C245 1.208 . S
O252 Cd253 2.223 . S
O252 C260 1.315 . S
Cd253 O252 2.223 . S
Cd253 O256 2.297 . S
Cd253 O257 2.439 . S
Cd253 O263 2.240 . S
Cd254 O255 2.240 . S
Cd254 O262 2.223 . S
Cd254 O264 2.297 . S
Cd254 O265 2.439 . S
O255 Cd254 2.240 . S
O255 C260 1.279 . S
O256 Cd253 2.297 . S
O256 C258 1.247 . S
O257 Cd253 2.439 . S
O257 C258 1.208 . S
C258 O256 1.247 . S
C258 O257 1.208 . S
C259 O264 1.247 . S
C259 O265 1.208 . S
C260 O252 1.315 . S
C260 O255 1.279 . S
C261 O262 1.315 . S
C261 O263 1.279 . S
O262 Cd254 2.223 . S
O262 C261 1.315 . S
O263 Cd253 2.240 . S
O263 C261 1.279 . S
O264 Cd254 2.297 . S
O264 C259 1.247 . S
O265 Cd254 2.439 . S
O265 C259 1.208 . S
O266 Cd267 2.223 . S
O266 C274 1.315 . S
Cd267 O266 2.223 . S
Cd267 O270 2.297 . S
Cd267 O271 2.439 1_545 S
Cd267 O277 2.240 . S
Cd268 O269 2.240 . S
Cd268 O276 2.223 . S
Cd268 O278 2.297 1_545 S
Cd268 O279 2.439 1_545 S
O269 Cd268 2.240 . S
O269 C274 1.279 . S
O270 Cd267 2.297 . S
O270 C272 1.247 1_545 S
O271 Cd267 2.439 1_565 S
O271 C272 1.208 . S
C272 O270 1.247 1_565 S
C272 O271 1.208 . S
C273 O278 1.247 . S
C273 O279 1.208 . S
C274 O266 1.315 . S
C274 O269 1.279 . S
C275 O276 1.315 . S
C275 O277 1.279 . S
O276 Cd268 2.223 . S
O276 C275 1.315 . S
O277 Cd267 2.240 . S
O277 C275 1.279 . S
O278 Cd268 2.297 1_565 S
O278 C273 1.247 . S
O279 Cd268 2.439 1_565 S
O279 C273 1.208 . S
O280 Cd281 2.223 . S
O280 C288 1.315 . S
Cd281 O280 2.223 . S
Cd281 O284 2.297 . S
Cd281 O285 2.439 1_554 S
Cd281 O291 2.240 . S
Cd282 O283 2.240 . S
Cd282 O290 2.223 . S
Cd282 O292 2.297 1_554 S
Cd282 O293 2.439 1_554 S
O283 Cd282 2.240 . S
O283 C288 1.279 . S
O284 Cd281 2.297 . S
O284 C286 1.247 1_554 S
O285 Cd281 2.439 1_556 S
O285 C286 1.208 . S
C286 O284 1.247 1_556 S
C286 O285 1.208 . S
C287 O292 1.247 . S
C287 O293 1.208 . S
C288 O280 1.315 . S
C288 O283 1.279 . S
C289 O290 1.315 . S
C289 O291 1.279 . S
O290 Cd282 2.223 . S
O290 C289 1.315 . S
O291 Cd281 2.240 . S
O291 C289 1.279 . S
O292 Cd282 2.297 1_556 S
O292 C287 1.247 . S
O293 Cd282 2.439 1_556 S
O293 C287 1.208 . S
O294 Cd295 2.223 . S
O294 C302 1.315 . S
Cd295 O294 2.223 . S
Cd295 O298 2.297 . S
Cd295 O299 2.439 . S
Cd295 O305 2.240 . S
Cd296 O297 2.240 . S
Cd296 O304 2.223 . S
Cd296 O306 2.297 . S
Cd296 O307 2.439 . S
O297 Cd296 2.240 . S
O297 C302 1.279 . S
O298 Cd295 2.297 . S
O298 C300 1.247 . S
O299 Cd295 2.439 . S
O299 C300 1.208 . S
C300 O298 1.247 . S
C300 O299 1.208 . S
C301 O306 1.247 . S
C301 O307 1.208 . S
C302 O294 1.315 . S
C302 O297 1.279 . S
C303 O304 1.315 . S
C303 O305 1.279 . S
O304 Cd296 2.223 . S
O304 C303 1.315 . S
O305 Cd295 2.240 . S
O305 C303 1.279 . S
O306 Cd296 2.297 . S
O306 C301 1.247 . S
O307 Cd296 2.439 . S
O307 C301 1.208 . S
O308 Cd309 2.223 . S
O308 C316 1.315 . S
Cd309 O308 2.223 . S
Cd309 O312 2.297 . S
Cd309 O313 2.439 . S
Cd309 O319 2.240 . S
Cd310 O311 2.240 . S
Cd310 O318 2.223 . S
Cd310 O320 2.297 . S
Cd310 O321 2.439 . S
O311 Cd310 2.240 . S
O311 C316 1.279 . S
O312 Cd309 2.297 . S
O312 C314 1.247 . S
O313 Cd309 2.439 . S
O313 C314 1.208 . S
C314 O312 1.247 . S
C314 O313 1.208 . S
C315 O320 1.247 . S
C315 O321 1.208 . S
C316 O308 1.315 . S
C316 O311 1.279 . S
C317 O318 1.315 . S
C317 O319 1.279 . S
O318 Cd310 2.223 . S
O318 C317 1.315 . S
O319 Cd309 2.240 . S
O319 C317 1.279 . S
O320 Cd310 2.297 . S
O320 C315 1.247 . S
O321 Cd310 2.439 . S
O321 C315 1.208 . S
O322 Cd323 2.223 . S
O322 C330 1.315 . S
Cd323 O322 2.223 . S
Cd323 O326 2.297 . S
Cd323 O327 2.439 . S
Cd323 O333 2.240 . S
Cd324 O325 2.240 . S
Cd324 O332 2.223 . S
Cd324 O334 2.297 . S
Cd324 O335 2.439 . S
O325 Cd324 2.240 . S
O325 C330 1.279 . S
O326 Cd323 2.297 . S
O326 C328 1.247 . S
O327 Cd323 2.439 . S
O327 C328 1.208 . S
C328 O326 1.247 . S
C328 O327 1.208 . S
C329 O334 1.247 . S
C329 O335 1.208 . S
C330 O322 1.315 . S
C330 O325 1.279 . S
C331 O332 1.315 . S
C331 O333 1.279 . S
O332 Cd324 2.223 . S
O332 C331 1.315 . S
O333 Cd323 2.240 . S
O333 C331 1.279 . S
O334 Cd324 2.297 . S
O334 C329 1.247 . S
O335 Cd324 2.439 . S
O335 C329 1.208 . S
C336 C337 1.363 . S
C336 C342 1.379 . S
C336 N344 1.356 . S
C337 C336 1.363 . S
C337 C343 1.363 . S
C338 C339 1.363 . S
C338 C343 1.379 . S
C338 N345 1.356 . S
C339 C338 1.363 . S
C339 C342 1.363 . S
N340 C342 1.356 . S
N340 H352 0.984 . S
N340 H353 0.985 . S
N341 C343 1.356 . S
N341 H346 0.984 . S
N341 H347 0.985 . S
C342 C336 1.379 . S
C342 C339 1.363 . S
C342 N340 1.356 . S
C343 C337 1.363 . S
C343 C338 1.379 . S
C343 N341 1.356 . S
N344 C336 1.356 . S
N344 H350 0.984 . S
N344 H351 0.984 . S
N345 C338 1.356 . S
N345 H348 0.984 . S
N345 H349 0.985 . S
H346 N341 0.984 . S
H347 N341 0.985 . S
H348 N345 0.984 . S
H349 N345 0.985 . S
H350 N344 0.984 . S
H351 N344 0.984 . S
H352 N340 0.984 . S
H353 N340 0.985 . S
C354 C355 1.363 . S
C354 C360 1.379 . S
C354 N362 1.356 . S
C355 C354 1.363 . S
C355 C361 1.363 . S
C356 C357 1.363 . S
C356 C361 1.379 . S
C356 N363 1.356 . S
C357 C356 1.363 . S
C357 C360 1.363 . S
N358 C360 1.356 . S
N358 H370 0.984 . S
N358 H371 0.985 . S
N359 C361 1.356 . S
N359 H364 0.984 . S
N359 H365 0.985 . S
C360 C354 1.379 . S
C360 C357 1.363 . S
C360 N358 1.356 . S
C361 C355 1.363 . S
C361 C356 1.379 . S
C361 N359 1.356 . S
N362 C354 1.356 . S
N362 H368 0.984 . S
N362 H369 0.984 . S
N363 C356 1.356 . S
N363 H366 0.984 . S
N363 H367 0.985 . S
H364 N359 0.984 . S
H365 N359 0.985 . S
H366 N363 0.984 . S
H367 N363 0.985 . S
H368 N362 0.984 . S
H369 N362 0.984 . S
H370 N358 0.984 . S
H371 N358 0.985 . S
C372 C373 1.363 . S
C372 C378 1.379 . S
C372 N380 1.356 . S
C373 C372 1.363 . S
C373 C379 1.363 . S
C374 C375 1.363 . S
C374 C379 1.379 . S
C374 N381 1.356 . S
C375 C374 1.363 . S
C375 C378 1.363 . S
N376 C378 1.356 . S
N376 H388 0.984 . S
N376 H389 0.985 . S
N377 C379 1.356 . S
N377 H382 0.984 . S
N377 H383 0.985 . S
C378 C372 1.379 . S
C378 C375 1.363 . S
C378 N376 1.356 . S
C379 C373 1.363 . S
C379 C374 1.379 . S
C379 N377 1.356 . S
N380 C372 1.356 . S
N380 H386 0.984 . S
N380 H387 0.984 . S
N381 C374 1.356 . S
N381 H384 0.984 . S
N381 H385 0.985 . S
H382 N377 0.984 . S
H383 N377 0.985 . S
H384 N381 0.984 . S
H385 N381 0.985 . S
H386 N380 0.984 . S
H387 N380 0.984 . S
H388 N376 0.984 . S
H389 N376 0.985 . S
C390 C391 1.363 . S
C390 C396 1.379 . S
C390 N398 1.356 . S
C391 C390 1.363 . S
C391 C397 1.363 . S
C392 C393 1.363 . S
C392 C397 1.379 . S
C392 N399 1.356 . S
C393 C392 1.363 . S
C393 C396 1.363 . S
N394 C396 1.356 . S
N394 H406 0.984 . S
N394 H407 0.985 . S
N395 C397 1.356 . S
N395 H400 0.984 . S
N395 H401 0.985 . S
C396 C390 1.379 . S
C396 C393 1.363 . S
C396 N394 1.356 . S
C397 C391 1.363 . S
C397 C392 1.379 . S
C397 N395 1.356 . S
N398 C390 1.356 . S
N398 H404 0.984 . S
N398 H405 0.984 . S
N399 C392 1.356 . S
N399 H402 0.984 . S
N399 H403 0.985 . S
H400 N395 0.984 . S
H401 N395 0.985 . S
H402 N399 0.984 . S
H403 N399 0.985 . S
H404 N398 0.984 . S
H405 N398 0.984 . S
H406 N394 0.984 . S
H407 N394 0.985 . S
C408 C409 1.363 . S
C408 C414 1.379 . S
C408 N416 1.356 . S
C409 C408 1.363 . S
C409 C415 1.363 . S
C410 C411 1.363 . S
C410 C415 1.379 . S
C410 N417 1.356 . S
C411 C410 1.363 . S
C411 C414 1.363 . S
N412 C414 1.356 . S
N412 H424 0.984 . S
N412 H425 0.985 . S
N413 C415 1.356 . S
N413 H418 0.984 . S
N413 H419 0.985 . S
C414 C408 1.379 . S
C414 C411 1.363 . S
C414 N412 1.356 . S
C415 C409 1.363 . S
C415 C410 1.379 . S
C415 N413 1.356 . S
N416 C408 1.356 . S
N416 H422 0.984 . S
N416 H423 0.984 . S
N417 C410 1.356 . S
N417 H420 0.984 . S
N417 H421 0.985 . S
H418 N413 0.984 . S
H419 N413 0.985 . S
H420 N417 0.984 . S
H421 N417 0.985 . S
H422 N416 0.984 . S
H423 N416 0.984 . S
H424 N412 0.984 . S
H425 N412 0.985 . S
C426 C427 1.363 . S
C426 C432 1.379 . S
C426 N434 1.356 . S
C427 C426 1.363 . S
C427 C433 1.363 . S
C428 C429 1.363 . S
C428 C433 1.379 . S
C428 N435 1.356 . S
C429 C428 1.363 . S
C429 C432 1.363 . S
N430 C432 1.356 . S
N430 H442 0.984 . S
N430 H443 0.985 . S
N431 C433 1.356 . S
N431 H436 0.984 . S
N431 H437 0.985 . S
C432 C426 1.379 . S
C432 C429 1.363 . S
C432 N430 1.356 . S
C433 C427 1.363 . S
C433 C428 1.379 . S
C433 N431 1.356 . S
N434 C426 1.356 . S
N434 H440 0.984 . S
N434 H441 0.984 . S
N435 C428 1.356 . S
N435 H438 0.984 . S
N435 H439 0.985 . S
H436 N431 0.984 . S
H437 N431 0.985 . S
H438 N435 0.984 . S
H439 N435 0.985 . S
H440 N434 0.984 . S
H441 N434 0.984 . S
H442 N430 0.984 . S
H443 N430 0.985 . S
C444 C445 1.363 . S
C444 C450 1.379 . S
C444 N452 1.356 . S
C445 C444 1.363 . S
C445 C451 1.363 . S
C446 C447 1.363 . S
C446 C451 1.379 . S
C446 N453 1.356 . S
C447 C446 1.363 . S
C447 C450 1.363 . S
N448 C450 1.356 . S
N448 H460 0.984 . S
N448 H461 0.985 . S
N449 C451 1.356 . S
N449 H454 0.984 . S
N449 H455 0.985 . S
C450 C444 1.379 . S
C450 C447 1.363 . S
C450 N448 1.356 . S
C451 C445 1.363 . S
C451 C446 1.379 . S
C451 N449 1.356 . S
N452 C444 1.356 . S
N452 H458 0.984 . S
N452 H459 0.984 . S
N453 C446 1.356 . S
N453 H456 0.984 . S
N453 H457 0.985 . S
H454 N449 0.984 . S
H455 N449 0.985 . S
H456 N453 0.984 . S
H457 N453 0.985 . S
H458 N452 0.984 . S
H459 N452 0.984 . S
H460 N448 0.984 . S
H461 N448 0.985 . S
C462 C463 1.363 . S
C462 C468 1.379 . S
C462 N470 1.356 . S
C463 C462 1.363 . S
C463 C469 1.363 . S
C464 C465 1.363 . S
C464 C469 1.379 . S
C464 N471 1.356 . S
C465 C464 1.363 . S
C465 C468 1.363 . S
N466 C468 1.356 . S
N466 H478 0.984 1_556 S
N466 H479 0.985 1_556 S
N467 C469 1.356 . S
N467 H472 0.984 . S
N467 H473 0.985 . S
C468 C462 1.379 . S
C468 C465 1.363 . S
C468 N466 1.356 . S
C469 C463 1.363 . S
C469 C464 1.379 . S
C469 N467 1.356 . S
N470 C462 1.356 . S
N470 H476 0.984 . S
N470 H477 0.984 . S
N471 C464 1.356 . S
N471 H474 0.984 . S
N471 H475 0.985 . S
H472 N467 0.984 . S
H473 N467 0.985 . S
H474 N471 0.984 . S
H475 N471 0.985 . S
H476 N470 0.984 . S
H477 N470 0.984 . S
H478 N466 0.984 1_554 S
H479 N466 0.985 1_554 S
C480 C481 1.363 . S
C480 C486 1.379 . S
C480 N488 1.356 . S
C481 C480 1.363 . S
C481 C487 1.363 . S
C482 C483 1.363 . S
C482 C487 1.379 . S
C482 N489 1.356 . S
C483 C482 1.363 . S
C483 C486 1.363 . S
N484 C486 1.356 . S
N484 H496 0.984 . S
N484 H497 0.985 . S
N485 C487 1.356 . S
N485 H490 0.984 . S
N485 H491 0.985 . S
C486 C480 1.379 . S
C486 C483 1.363 . S
C486 N484 1.356 . S
C487 C481 1.363 . S
C487 C482 1.379 . S
C487 N485 1.356 . S
N488 C480 1.356 . S
N488 H494 0.984 . S
N488 H495 0.984 . S
N489 C482 1.356 . S
N489 H492 0.984 . S
N489 H493 0.985 1_545 S
H490 N485 0.984 . S
H491 N485 0.985 . S
H492 N489 0.984 . S
H493 N489 0.985 1_565 S
H494 N488 0.984 . S
H495 N488 0.984 . S
H496 N484 0.984 . S
H497 N484 0.985 . S
C498 C499 1.363 . S
C498 C504 1.379 . S
C498 N506 1.356 . S
C499 C498 1.363 . S
C499 C505 1.363 . S
C500 C501 1.363 . S
C500 C505 1.379 . S
C500 N507 1.356 . S
C501 C500 1.363 . S
C501 C504 1.363 . S
N502 C504 1.356 . S
N502 H514 0.984 . S
N502 H515 0.985 . S
N503 C505 1.356 . S
N503 H508 0.984 . S
N503 H509 0.985 1_545 S
C504 C498 1.379 . S
C504 C501 1.363 . S
C504 N502 1.356 . S
C505 C499 1.363 . S
C505 C500 1.379 . S
C505 N503 1.356 . S
N506 C498 1.356 . S
N506 H512 0.984 . S
N506 H513 0.984 . S
N507 C500 1.356 . S
N507 H510 0.984 . S
N507 H511 0.985 . S
H508 N503 0.984 . S
H509 N503 0.985 1_565 S
H510 N507 0.984 . S
H511 N507 0.985 . S
H512 N506 0.984 . S
H513 N506 0.984 . S
H514 N502 0.984 . S
H515 N502 0.985 . S
C516 C517 1.363 . S
C516 C522 1.379 . S
C516 N524 1.356 . S
C517 C516 1.363 . S
C517 C523 1.363 . S
C518 C519 1.363 . S
C518 C523 1.379 . S
C518 N525 1.356 . S
C519 C518 1.363 . S
C519 C522 1.363 . S
N520 C522 1.356 . S
N520 H532 0.984 . S
N520 H533 0.985 . S
N521 C523 1.356 . S
N521 H526 0.984 . S
N521 H527 0.985 . S
C522 C516 1.379 . S
C522 C519 1.363 . S
C522 N520 1.356 . S
C523 C517 1.363 . S
C523 C518 1.379 . S
C523 N521 1.356 . S
N524 C516 1.356 . S
N524 H530 0.976 1_565 S
N524 H531 0.984 . S
N525 C518 1.356 . S
N525 H528 0.984 . S
N525 H529 0.985 . S
H526 N521 0.984 . S
H527 N521 0.985 . S
H528 N525 0.984 . S
H529 N525 0.985 . S
H530 N524 0.976 1_545 S
H531 N524 0.984 . S
H532 N520 0.984 . S
H533 N520 0.985 . S
C534 C535 1.363 . S
C534 C540 1.379 . S
C534 N542 1.356 . S
C535 C534 1.363 . S
C535 C541 1.363 . S
C536 C537 1.363 . S
C536 C541 1.379 . S
C536 N543 1.356 . S
C537 C536 1.363 . S
C537 C540 1.363 . S
N538 C540 1.356 . S
N538 H550 0.984 . S
N538 H551 0.985 . S
N539 C541 1.356 . S
N539 H544 0.984 . S
N539 H545 0.985 . S
C540 C534 1.379 . S
C540 C537 1.363 . S
C540 N538 1.356 . S
C541 C535 1.363 . S
C541 C536 1.379 . S
C541 N539 1.356 . S
N542 C534 1.356 . S
N542 H548 0.984 . S
N542 H549 0.984 . S
N543 C536 1.356 . S
N543 H546 0.984 . S
N543 H547 0.985 . S
H544 N539 0.984 . S
H545 N539 0.985 . S
H546 N543 0.984 . S
H547 N543 0.985 . S
H548 N542 0.984 . S
H549 N542 0.984 . S
H550 N538 0.984 . S
H551 N538 0.985 . S
C552 C553 1.363 . S
C552 C558 1.379 . S
C552 N560 1.356 . S
C553 C552 1.363 . S
C553 C559 1.363 . S
C554 C555 1.363 . S
C554 C559 1.379 . S
C554 N561 1.356 . S
C555 C554 1.363 . S
C555 C558 1.363 . S
N556 C558 1.356 . S
N556 H568 0.984 . S
N556 H569 0.985 . S
N557 C559 1.356 . S
N557 H562 0.984 . S
N557 H563 0.985 1_554 S
C558 C552 1.379 . S
C558 C555 1.363 . S
C558 N556 1.356 . S
C559 C553 1.363 . S
C559 C554 1.379 . S
C559 N557 1.356 . S
N560 C552 1.356 . S
N560 H566 0.984 . S
N560 H567 0.984 . S
N561 C554 1.356 . S
N561 H564 0.984 . S
N561 H565 0.985 . S
H562 N557 0.984 . S
H563 N557 0.985 1_556 S
H564 N561 0.984 . S
H565 N561 0.985 . S
H566 N560 0.984 . S
H567 N560 0.984 . S
H568 N556 0.984 . S
H569 N556 0.985 . S
C570 C571 1.363 . S
C570 C576 1.379 . S
C570 N578 1.356 . S
C571 C570 1.363 . S
C571 C577 1.363 . S
C572 C573 1.363 . S
C572 C577 1.379 . S
C572 N579 1.356 . S
C573 C572 1.363 . S
C573 C576 1.363 . S
N574 C576 1.356 . S
N574 H586 0.984 . S
N574 H587 0.985 . S
N575 C577 1.356 . S
N575 H580 0.984 . S
N575 H581 0.985 . S
C576 C570 1.379 . S
C576 C573 1.363 . S
C576 N574 1.356 . S
C577 C571 1.363 . S
C577 C572 1.379 . S
C577 N575 1.356 . S
N578 C570 1.356 . S
N578 H584 0.984 . S
N578 H585 0.984 . S
N579 C572 1.356 . S
N579 H582 0.984 . S
N579 H583 0.985 . S
H580 N575 0.984 . S
H581 N575 0.985 . S
H582 N579 0.984 . S
H583 N579 0.985 . S
H584 N578 0.984 . S
H585 N578 0.984 . S
H586 N574 0.984 . S
H587 N574 0.985 . S
C588 C589 1.363 . S
C588 C594 1.379 . S
C588 N596 1.356 . S
C589 C588 1.363 . S
C589 C595 1.363 . S
C590 C591 1.363 . S
C590 C595 1.379 . S
C590 N597 1.356 . S
C591 C590 1.363 . S
C591 C594 1.363 . S
N592 C594 1.356 . S
N592 H604 0.984 . S
N592 H605 0.985 . S
N593 C595 1.356 . S
N593 H598 0.984 . S
N593 H599 0.985 . S
C594 C588 1.379 . S
C594 C591 1.363 . S
C594 N592 1.356 . S
C595 C589 1.363 . S
C595 C590 1.379 . S
C595 N593 1.356 . S
N596 C588 1.356 . S
N596 H602 0.984 . S
N596 H603 0.984 . S
N597 C590 1.356 . S
N597 H600 0.984 . S
N597 H601 0.985 . S
H598 N593 0.984 . S
H599 N593 0.985 . S
H600 N597 0.984 . S
H601 N597 0.985 . S
H602 N596 0.984 . S
H603 N596 0.984 . S
H604 N592 0.984 . S
H605 N592 0.985 . S
C606 C607 1.363 . S
C606 C612 1.379 . S
C606 N614 1.356 1_655 S
C607 C606 1.363 . S
C607 C613 1.363 . S
C608 C609 1.363 . S
C608 C613 1.379 . S
C608 N615 1.356 . S
C609 C608 1.363 . S
C609 C612 1.363 . S
N610 C612 1.356 . S
N610 H622 0.984 1_655 S
N610 H623 0.985 . S
N611 C613 1.356 . S
N611 H616 0.984 . S
N611 H617 0.985 . S
C612 C606 1.379 . S
C612 C609 1.363 . S
C612 N610 1.356 . S
C613 C607 1.363 . S
C613 C608 1.379 . S
C613 N611 1.356 . S
N614 C606 1.356 1_455 S
N614 H620 0.984 . S
N614 H621 0.984 . S
N615 C608 1.356 . S
N615 H618 0.984 . S
N615 H619 0.985 . S
H616 N611 0.984 . S
H617 N611 0.985 . S
H618 N615 0.984 . S
H619 N615 0.985 . S
H620 N614 0.984 . S
H621 N614 0.984 . S
H622 N610 0.984 1_455 S
H623 N610 0.985 . S
C624 C625 1.363 . S
C624 C630 1.379 . S
C624 N632 1.356 . S
C625 C624 1.363 . S
C625 C631 1.363 . S
C626 C627 1.363 . S
C626 C631 1.379 . S
C626 N633 1.356 . S
C627 C626 1.363 . S
C627 C630 1.363 . S
N628 C630 1.356 . S
N628 H640 0.984 . S
N628 H641 0.985 . S
N629 C631 1.356 . S
N629 H634 0.984 . S
N629 H635 0.985 . S
C630 C624 1.379 . S
C630 C627 1.363 . S
C630 N628 1.356 . S
C631 C625 1.363 . S
C631 C626 1.379 . S
C631 N629 1.356 . S
N632 C624 1.356 . S
N632 H638 0.984 . S
N632 H639 0.984 . S
N633 C626 1.356 . S
N633 H636 0.984 . S
N633 H637 0.985 . S
H634 N629 0.984 . S
H635 N629 0.985 . S
H636 N633 0.984 . S
H637 N633 0.985 . S
H638 N632 0.984 . S
H639 N632 0.984 . S
H640 N628 0.984 . S
H641 N628 0.985 . S
C642 C643 1.363 . S
C642 C648 1.379 . S
C642 N650 1.356 . S
C643 C642 1.363 . S
C643 C649 1.363 . S
C644 C645 1.363 . S
C644 C649 1.379 . S
C644 N651 1.356 . S
C645 C644 1.363 . S
C645 C648 1.363 . S
N646 C648 1.356 . S
N646 H658 0.984 . S
N646 H659 0.985 . S
N647 C649 1.356 . S
N647 H652 0.984 . S
N647 H653 0.985 . S
C648 C642 1.379 . S
C648 C645 1.363 . S
C648 N646 1.356 . S
C649 C643 1.363 . S
C649 C644 1.379 . S
C649 N647 1.356 . S
N650 C642 1.356 . S
N650 H656 0.984 . S
N650 H657 0.984 . S
N651 C644 1.356 . S
N651 H654 0.984 . S
N651 H655 0.985 . S
H652 N647 0.984 . S
H653 N647 0.985 . S
H654 N651 0.984 . S
H655 N651 0.985 . S
H656 N650 0.984 . S
H657 N650 0.984 . S
H658 N646 0.984 . S
H659 N646 0.985 . S
C660 C661 1.363 . S
C660 C666 1.379 . S
C660 N668 1.356 . S
C661 C660 1.363 . S
C661 C667 1.363 . S
C662 C663 1.363 . S
C662 C667 1.379 . S
C662 N669 1.356 . S
C663 C662 1.363 . S
C663 C666 1.363 . S
N664 C666 1.356 . S
N664 H676 0.984 . S
N664 H677 0.985 . S
N665 C667 1.356 . S
N665 H670 0.984 1_556 S
N665 H671 0.984 1_556 S
C666 C660 1.379 . S
C666 C663 1.363 . S
C666 N664 1.356 . S
C667 C661 1.363 . S
C667 C662 1.379 . S
C667 N665 1.356 . S
N668 C660 1.356 . S
N668 H674 0.984 . S
N668 H675 0.984 . S
N669 C662 1.356 . S
N669 H672 0.984 . S
N669 H673 0.985 . S
H670 N665 0.984 1_554 S
H671 N665 0.984 1_554 S
H672 N669 0.984 . S
H673 N669 0.985 . S
H674 N668 0.984 . S
H675 N668 0.984 . S
H676 N664 0.984 . S
H677 N664 0.985 . S
C678 C679 1.363 . S
C678 C684 1.379 . S
C678 N686 1.356 . S
C679 C678 1.363 . S
C679 C685 1.363 . S
C680 C681 1.363 . S
C680 C685 1.379 . S
C680 N687 1.356 . S
C681 C680 1.363 . S
C681 C684 1.363 . S
N682 C684 1.356 . S
N682 H694 0.984 . S
N682 H695 0.985 . S
N683 C685 1.356 . S
N683 H688 0.984 . S
N683 H689 0.985 . S
C684 C678 1.379 . S
C684 C681 1.363 . S
C684 N682 1.356 . S
C685 C679 1.363 . S
C685 C680 1.379 . S
C685 N683 1.356 . S
N686 C678 1.356 . S
N686 H692 0.984 . S
N686 H693 0.984 . S
N687 C680 1.356 . S
N687 H690 0.989 . S
N687 H691 0.985 . S
H688 N683 0.984 . S
H689 N683 0.985 . S
H690 N687 0.989 . S
H691 N687 0.985 . S
H692 N686 0.984 . S
H693 N686 0.984 . S
H694 N682 0.984 . S
H695 N682 0.985 . S
C696 C697 1.363 . S
C696 C702 1.379 . S
C696 N704 1.356 . S
C697 C696 1.363 . S
C697 C703 1.363 . S
C698 C699 1.363 . S
C698 C703 1.379 . S
C698 N705 1.356 . S
C699 C698 1.363 . S
C699 C702 1.363 . S
N700 C702 1.356 . S
N700 H712 0.984 . S
N700 H713 0.985 . S
N701 C703 1.356 . S
N701 H706 0.984 . S
N701 H707 0.985 . S
C702 C696 1.379 . S
C702 C699 1.363 . S
C702 N700 1.356 . S
C703 C697 1.363 . S
C703 C698 1.379 . S
C703 N701 1.356 . S
N704 C696 1.356 . S
N704 H710 0.984 . S
N704 H711 0.984 . S
N705 C698 1.356 . S
N705 H708 0.984 . S
N705 H709 0.985 . S
H706 N701 0.984 . S
H707 N701 0.985 . S
H708 N705 0.984 . S
H709 N705 0.985 . S
H710 N704 0.984 . S
H711 N704 0.984 . S
H712 N700 0.984 . S
H713 N700 0.985 . S
C714 C715 1.363 . S
C714 C720 1.379 . S
C714 N722 1.356 . S
C715 C714 1.363 . S
C715 C721 1.363 . S
C716 C717 1.363 . S
C716 C721 1.379 . S
C716 N723 1.356 . S
C717 C716 1.363 . S
C717 C720 1.363 . S
N718 C720 1.356 . S
N718 H730 0.984 . S
N718 H731 0.985 . S
N719 C721 1.356 . S
N719 H724 0.984 . S
N719 H725 0.985 . S
C720 C714 1.379 . S
C720 C717 1.363 . S
C720 N718 1.356 . S
C721 C715 1.363 . S
C721 C716 1.379 . S
C721 N719 1.356 . S
N722 C714 1.356 . S
N722 H728 0.984 . S
N722 H729 0.984 . S
N723 C716 1.356 . S
N723 H726 0.984 . S
N723 H727 0.985 . S
H724 N719 0.984 . S
H725 N719 0.985 . S
H726 N723 0.984 . S
H727 N723 0.985 . S
H728 N722 0.984 . S
H729 N722 0.984 . S
H730 N718 0.984 . S
H731 N718 0.985 . S
C732 C733 1.363 . S
C732 C738 1.379 . S
C732 N740 1.356 . S
C733 C732 1.363 . S
C733 C739 1.363 . S
C734 C735 1.363 . S
C734 C739 1.379 . S
C734 N741 1.356 . S
C735 C734 1.363 . S
C735 C738 1.363 . S
N736 C738 1.356 . S
N736 H748 0.984 1_554 S
N736 H749 0.985 . S
N737 C739 1.356 . S
N737 H742 0.984 . S
N737 H743 0.985 . S
C738 C732 1.379 . S
C738 C735 1.363 . S
C738 N736 1.356 . S
C739 C733 1.363 . S
C739 C734 1.379 . S
C739 N737 1.356 . S
N740 C732 1.356 . S
N740 H746 0.984 . S
N740 H747 0.984 . S
N741 C734 1.356 . S
N741 H744 0.984 . S
N741 H745 0.985 . S
H742 N737 0.984 . S
H743 N737 0.985 . S
H744 N741 0.984 . S
H745 N741 0.985 . S
H746 N740 0.984 . S
H747 N740 0.984 . S
H748 N736 0.984 1_556 S
H749 N736 0.985 . S
C750 C751 1.363 . S
C750 C756 1.379 . S
C750 N758 1.356 . S
C751 C750 1.363 . S
C751 C757 1.363 . S
C752 C753 1.363 . S
C752 C757 1.379 . S
C752 N759 1.356 . S
C753 C752 1.363 . S
C753 C756 1.363 . S
N754 C756 1.356 1_545 S
N754 H766 0.984 . S
N754 H767 0.985 . S
N755 C757 1.356 . S
N755 H760 0.984 . S
N755 H761 0.985 . S
C756 C750 1.379 . S
C756 C753 1.363 . S
C756 N754 1.356 1_565 S
C757 C751 1.363 . S
C757 C752 1.379 . S
C757 N755 1.356 . S
N758 C750 1.356 . S
N758 H764 0.984 . S
N758 H765 0.984 . S
N759 C752 1.356 . S
N759 H762 0.984 . S
N759 H763 0.985 . S
H760 N755 0.984 . S
H761 N755 0.985 . S
H762 N759 0.984 . S
H763 N759 0.985 . S
H764 N758 0.984 . S
H765 N758 0.984 . S
H766 N754 0.984 . S
H767 N754 0.985 . S
C768 C769 1.363 . S
C768 C774 1.379 . S
C768 N776 1.356 1_565 S
C769 C768 1.363 . S
C769 C775 1.363 . S
C770 C771 1.363 . S
C770 C775 1.379 . S
C770 N777 1.356 . S
C771 C770 1.363 . S
C771 C774 1.363 . S
N772 C774 1.356 . S
N772 H784 0.984 1_565 S
N772 H785 0.985 . S
N773 C775 1.356 . S
N773 H778 0.984 . S
N773 H779 0.985 . S
C774 C768 1.379 . S
C774 C771 1.363 . S
C774 N772 1.356 . S
C775 C769 1.363 . S
C775 C770 1.379 . S
C775 N773 1.356 . S
N776 C768 1.356 1_545 S
N776 H782 0.984 . S
N776 H783 0.984 . S
N777 C770 1.356 . S
N777 H780 0.984 . S
N777 H781 0.985 . S
H778 N773 0.984 . S
H779 N773 0.985 . S
H780 N777 0.984 . S
H781 N777 0.985 . S
H782 N776 0.984 . S
H783 N776 0.984 . S
H784 N772 0.984 1_545 S
H785 N772 0.985 . S
C786 C787 1.363 . S
C786 C792 1.379 . S
C786 N794 1.356 . S
C787 C786 1.363 . S
C787 C793 1.363 . S
C788 C789 1.363 . S
C788 C793 1.379 . S
C788 N795 1.356 . S
C789 C788 1.363 . S
C789 C792 1.363 . S
N790 C792 1.356 . S
N790 H802 0.984 1_545 S
N790 H803 0.985 1_545 S
N791 C793 1.356 . S
N791 H796 0.984 . S
N791 H797 0.985 . S
C792 C786 1.379 . S
C792 C789 1.363 . S
C792 N790 1.356 . S
C793 C787 1.363 . S
C793 C788 1.379 . S
C793 N791 1.356 . S
N794 C786 1.356 . S
N794 H800 0.984 . S
N794 H801 0.984 . S
N795 C788 1.356 . S
N795 H798 0.984 . S
N795 H799 0.985 . S
H796 N791 0.984 . S
H797 N791 0.985 . S
H798 N795 0.984 . S
H799 N795 0.985 . S
H800 N794 0.984 . S
H801 N794 0.984 . S
H802 N790 0.984 1_565 S
H803 N790 0.985 1_565 S
C804 C805 1.363 . S
C804 C810 1.379 . S
C804 N812 1.356 . S
C805 C804 1.363 . S
C805 C811 1.363 . S
C806 C807 1.363 . S
C806 C811 1.379 . S
C806 N813 1.356 . S
C807 C806 1.363 . S
C807 C810 1.363 . S
N808 C810 1.356 . S
N808 H820 0.984 . S
N808 H821 0.985 . S
N809 C811 1.356 . S
N809 H814 0.984 . S
N809 H815 0.985 . S
C810 C804 1.379 . S
C810 C807 1.363 . S
C810 N808 1.356 . S
C811 C805 1.363 . S
C811 C806 1.379 . S
C811 N809 1.356 . S
N812 C804 1.356 . S
N812 H818 0.984 . S
N812 H819 0.984 . S
N813 C806 1.356 . S
N813 H816 0.984 . S
N813 H817 0.985 . S
H814 N809 0.984 . S
H815 N809 0.985 . S
H816 N813 0.984 . S
H817 N813 0.985 . S
H818 N812 0.984 . S
H819 N812 0.984 . S
H820 N808 0.984 . S
H821 N808 0.985 . S
C822 C823 1.363 . S
C822 C828 1.379 . S
C822 N830 1.356 . S
C823 C822 1.363 . S
C823 C829 1.363 . S
C824 C825 1.363 . S
C824 C829 1.379 . S
C824 N831 1.356 . S
C825 C824 1.363 . S
C825 C828 1.363 . S
N826 C828 1.356 . S
N826 H838 0.984 . S
N826 H839 0.985 . S
N827 C829 1.356 . S
N827 H832 0.984 . S
N827 H833 0.985 . S
C828 C822 1.379 . S
C828 C825 1.363 . S
C828 N826 1.356 . S
C829 C823 1.363 . S
C829 C824 1.379 . S
C829 N827 1.356 . S
N830 C822 1.356 . S
N830 H836 0.984 . S
N830 H837 0.984 . S
N831 C824 1.356 . S
N831 H834 0.984 . S
N831 H835 0.985 . S
H832 N827 0.984 . S
H833 N827 0.985 . S
H834 N831 0.984 . S
H835 N831 0.985 . S
H836 N830 0.984 . S
H837 N830 0.984 . S
H838 N826 0.984 . S
H839 N826 0.985 . S
C840 C841 1.363 . S
C840 C846 1.379 . S
C840 N848 1.356 . S
C841 C840 1.363 . S
C841 C847 1.363 . S
C842 C843 1.363 . S
C842 C847 1.379 . S
C842 N849 1.356 . S
C843 C842 1.363 . S
C843 C846 1.363 . S
N844 C846 1.356 . S
N844 H856 0.984 . S
N844 H857 0.985 . S
N845 C847 1.356 . S
N845 H850 0.984 . S
N845 H851 0.985 . S
C846 C840 1.379 . S
C846 C843 1.363 . S
C846 N844 1.356 . S
C847 C841 1.363 . S
C847 C842 1.379 . S
C847 N845 1.356 . S
N848 C840 1.356 . S
N848 H854 0.984 . S
N848 H855 0.984 . S
N849 C842 1.356 . S
N849 H852 0.984 . S
N849 H853 0.985 . S
H850 N845 0.984 . S
H851 N845 0.985 . S
H852 N849 0.984 . S
H853 N849 0.985 . S
H854 N848 0.984 . S
H855 N848 0.984 . S
H856 N844 0.984 . S
H857 N844 0.985 . S
C858 C859 1.363 . S
C858 C864 1.379 . S
C858 N866 1.356 . S
C859 C858 1.363 . S
C859 C865 1.363 . S
C860 C861 1.363 . S
C860 C865 1.379 . S
C860 N867 1.356 . S
C861 C860 1.363 . S
C861 C864 1.363 . S
N862 C864 1.356 . S
N862 H874 0.984 . S
N862 H875 0.985 . S
N863 C865 1.356 . S
N863 H868 0.984 . S
N863 H869 0.985 . S
C864 C858 1.379 . S
C864 C861 1.363 . S
C864 N862 1.356 . S
C865 C859 1.363 . S
C865 C860 1.379 . S
C865 N863 1.356 . S
N866 C858 1.356 . S
N866 H872 0.984 . S
N866 H873 0.984 . S
N867 C860 1.356 . S
N867 H870 0.984 . S
N867 H871 0.985 . S
H868 N863 0.984 . S
H869 N863 0.985 . S
H870 N867 0.984 . S
H871 N867 0.985 . S
H872 N866 0.984 . S
H873 N866 0.984 . S
H874 N862 0.984 . S
H875 N862 0.985 . S
C876 C877 1.363 . S
C876 C882 1.379 . S
C876 N884 1.356 . S
C877 C876 1.363 . S
C877 C883 1.363 . S
C878 C879 1.363 . S
C878 C883 1.379 . S
C878 N885 1.356 . S
C879 C878 1.363 . S
C879 C882 1.363 . S
N880 C882 1.356 . S
N880 H892 0.984 . S
N880 H893 0.985 . S
N881 C883 1.356 . S
N881 H886 0.984 . S
N881 H887 0.985 . S
C882 C876 1.379 . S
C882 C879 1.363 . S
C882 N880 1.356 . S
C883 C877 1.363 . S
C883 C878 1.379 . S
C883 N881 1.356 . S
N884 C876 1.356 . S
N884 H890 0.984 . S
N884 H891 0.984 . S
N885 C878 1.356 . S
N885 H888 0.984 . S
N885 H889 0.985 . S
H886 N881 0.984 . S
H887 N881 0.985 . S
H888 N885 0.984 . S
H889 N885 0.985 . S
H890 N884 0.984 . S
H891 N884 0.984 . S
H892 N880 0.984 . S
H893 N880 0.985 . S
C894 C895 1.363 . S
C894 C900 1.379 . S
C894 N902 1.356 . S
C895 C894 1.363 . S
C895 C901 1.363 . S
C896 C897 1.363 . S
C896 C901 1.379 . S
C896 N903 1.356 . S
C897 C896 1.363 . S
C897 C900 1.363 . S
N898 C900 1.356 . S
N898 H910 0.984 . S
N898 H911 0.985 . S
N899 C901 1.356 . S
N899 H904 0.984 . S
N899 H905 0.985 . S
C900 C894 1.379 . S
C900 C897 1.363 . S
C900 N898 1.356 . S
C901 C895 1.363 . S
C901 C896 1.379 . S
C901 N899 1.356 . S
N902 C894 1.356 . S
N902 H908 0.984 . S
N902 H909 0.984 . S
N903 C896 1.356 . S
N903 H906 0.984 . S
N903 H907 0.985 . S
H904 N899 0.984 . S
H905 N899 0.985 . S
H906 N903 0.984 . S
H907 N903 0.985 . S
H908 N902 0.984 . S
H909 N902 0.984 . S
H910 N898 0.984 . S
H911 N898 0.985 . S
C912 C913 1.363 . S
C912 C918 1.379 . S
C912 N920 1.356 . S
C913 C912 1.363 . S
C913 C919 1.363 . S
C914 C915 1.363 . S
C914 C919 1.379 . S
C914 N921 1.356 . S
C915 C914 1.363 . S
C915 C918 1.363 . S
N916 C918 1.356 . S
N916 H928 0.984 . S
N916 H929 0.985 . S
N917 C919 1.356 . S
N917 H922 0.984 . S
N917 H923 0.985 . S
C918 C912 1.379 . S
C918 C915 1.363 . S
C918 N916 1.356 . S
C919 C913 1.363 . S
C919 C914 1.379 . S
C919 N917 1.356 . S
N920 C912 1.356 . S
N920 H926 0.984 . S
N920 H927 0.984 . S
N921 C914 1.356 . S
N921 H924 0.984 . S
N921 H925 0.985 . S
H922 N917 0.984 . S
H923 N917 0.985 . S
H924 N921 0.984 . S
H925 N921 0.985 . S
H926 N920 0.984 . S
H927 N920 0.984 . S
H928 N916 0.984 . S
H929 N916 0.985 . S
C930 C931 1.363 . S
C930 C936 1.379 . S
C930 N938 1.356 . S
C931 C930 1.363 . S
C931 C937 1.363 . S
C932 C933 1.363 . S
C932 C937 1.379 . S
C932 N939 1.356 . S
C933 C932 1.363 . S
C933 C936 1.363 . S
N934 C936 1.356 . S
N934 H946 0.984 . S
N934 H947 0.985 . S
N935 C937 1.356 . S
N935 H940 0.984 . S
N935 H941 0.985 . S
C936 C930 1.379 . S
C936 C933 1.363 . S
C936 N934 1.356 . S
C937 C931 1.363 . S
C937 C932 1.379 . S
C937 N935 1.356 . S
N938 C930 1.356 . S
N938 H944 0.984 . S
N938 H945 0.984 . S
N939 C932 1.356 . S
N939 H942 0.984 . S
N939 H943 0.985 . S
H940 N935 0.984 . S
H941 N935 0.985 . S
H942 N939 0.984 . S
H943 N939 0.985 . S
H944 N938 0.984 . S
H945 N938 0.984 . S
H946 N934 0.984 . S
H947 N934 0.985 . S
C948 C949 1.363 . S
C948 C954 1.379 . S
C948 N956 1.356 . S
C949 C948 1.363 . S
C949 C955 1.363 . S
C950 C951 1.363 . S
C950 C955 1.379 . S
C950 N957 1.356 . S
C951 C950 1.363 . S
C951 C954 1.363 . S
N952 C954 1.356 . S
N952 H964 0.984 . S
N952 H965 0.985 . S
N953 C955 1.356 . S
N953 H958 0.984 . S
N953 H959 0.985 . S
C954 C948 1.379 . S
C954 C951 1.363 . S
C954 N952 1.356 . S
C955 C949 1.363 . S
C955 C950 1.379 . S
C955 N953 1.356 . S
N956 C948 1.356 . S
N956 H962 0.984 . S
N956 H963 0.984 . S
N957 C950 1.356 . S
N957 H960 0.984 . S
N957 H961 0.985 . S
H958 N953 0.984 . S
H959 N953 0.985 . S
H960 N957 0.984 . S
H961 N957 0.985 . S
H962 N956 0.984 . S
H963 N956 0.984 . S
H964 N952 0.984 . S
H965 N952 0.985 . S
C966 C967 1.363 . S
C966 C972 1.379 . S
C966 N974 1.356 . S
C967 C966 1.363 . S
C967 C973 1.363 . S
C968 C969 1.363 . S
C968 C973 1.379 . S
C968 N975 1.356 . S
C969 C968 1.363 . S
C969 C972 1.363 . S
N970 C972 1.356 . S
N970 H982 0.984 . S
N970 H983 0.985 . S
N971 C973 1.356 . S
N971 H976 0.984 . S
N971 H977 0.985 . S
C972 C966 1.379 . S
C972 C969 1.363 . S
C972 N970 1.356 . S
C973 C967 1.363 . S
C973 C968 1.379 . S
C973 N971 1.356 . S
N974 C966 1.356 . S
N974 H980 0.984 . S
N974 H981 0.984 . S
N975 C968 1.356 . S
N975 H978 0.984 . S
N975 H979 0.985 . S
H976 N971 0.984 . S
H977 N971 0.985 . S
H978 N975 0.984 . S
H979 N975 0.985 . S
H980 N974 0.984 . S
H981 N974 0.984 . S
H982 N970 0.984 . S
H983 N970 0.985 . S
C984 C985 1.363 . S
C984 C990 1.379 . S
C984 N992 1.356 . S
C985 C984 1.363 . S
C985 C991 1.363 . S
C986 C987 1.363 . S
C986 C991 1.379 . S
C986 N993 1.356 . S
C987 C986 1.363 . S
C987 C990 1.363 . S
N988 C990 1.356 . S
N988 H1000 0.984 . S
N988 H1001 0.985 . S
N989 C991 1.356 . S
N989 H994 0.984 . S
N989 H995 0.985 . S
C990 C984 1.379 . S
C990 C987 1.363 . S
C990 N988 1.356 . S
C991 C985 1.363 . S
C991 C986 1.379 . S
C991 N989 1.356 . S
N992 C984 1.356 . S
N992 H998 0.984 . S
N992 H999 0.984 . S
N993 C986 1.356 . S
N993 H996 0.984 . S
N993 H997 0.985 . S
H994 N989 0.984 . S
H995 N989 0.985 . S
H996 N993 0.984 . S
H997 N993 0.985 . S
H998 N992 0.984 . S
H999 N992 0.984 . S
H1000 N988 0.984 . S
H1001 N988 0.985 . S
C1002 C1003 1.363 . S
C1002 C1008 1.379 . S
C1002 N1010 1.356 . S
C1003 C1002 1.363 . S
C1003 C1009 1.363 . S
C1004 C1005 1.363 . S
C1004 C1009 1.379 . S
C1004 N1011 1.356 . S
C1005 C1004 1.363 . S
C1005 C1008 1.363 . S
N1006 C1008 1.356 . S
N1006 H1018 0.984 . S
N1006 H1019 0.985 . S
N1007 C1009 1.356 . S
N1007 H1012 0.984 . S
N1007 H1013 0.985 . S
C1008 C1002 1.379 . S
C1008 C1005 1.363 . S
C1008 N1006 1.356 . S
C1009 C1003 1.363 . S
C1009 C1004 1.379 . S
C1009 N1007 1.356 . S
N1010 C1002 1.356 . S
N1010 H1016 0.984 . S
N1010 H1017 0.984 . S
N1011 C1004 1.356 . S
N1011 H1014 0.984 . S
N1011 H1015 0.985 . S
H1012 N1007 0.984 . S
H1013 N1007 0.985 . S
H1014 N1011 0.984 . S
H1015 N1011 0.985 . S
H1016 N1010 0.984 . S
H1017 N1010 0.984 . S
H1018 N1006 0.984 . S
H1019 N1006 0.985 . S
C1020 C1021 1.363 . S
C1020 C1026 1.379 . S
C1020 N1028 1.356 . S
C1021 C1020 1.363 . S
C1021 C1027 1.363 . S
C1022 C1023 1.363 . S
C1022 C1027 1.379 . S
C1022 N1029 1.356 . S
C1023 C1022 1.363 . S
C1023 C1026 1.363 . S
N1024 C1026 1.356 . S
N1024 H1036 0.984 . S
N1024 H1037 0.985 . S
N1025 C1027 1.356 . S
N1025 H1030 0.984 . S
N1025 H1031 0.985 . S
C1026 C1020 1.379 . S
C1026 C1023 1.363 . S
C1026 N1024 1.356 . S
C1027 C1021 1.363 . S
C1027 C1022 1.379 . S
C1027 N1025 1.356 . S
N1028 C1020 1.356 . S
N1028 H1034 0.984 . S
N1028 H1035 0.984 . S
N1029 C1022 1.356 . S
N1029 H1032 0.984 . S
N1029 H1033 0.985 . S
H1030 N1025 0.984 . S
H1031 N1025 0.985 . S
H1032 N1029 0.984 . S
H1033 N1029 0.985 . S
H1034 N1028 0.984 . S
H1035 N1028 0.984 . S
H1036 N1024 0.984 . S
H1037 N1024 0.985 . S
C1038 C1039 1.363 . S
C1038 C1044 1.379 . S
C1038 N1046 1.356 . S
C1039 C1038 1.363 . S
C1039 C1045 1.363 . S
C1040 C1041 1.363 . S
C1040 C1045 1.379 . S
C1040 N1047 1.356 . S
C1041 C1040 1.363 . S
C1041 C1044 1.363 . S
N1042 C1044 1.356 . S
N1042 H1054 0.984 . S
N1042 H1055 0.985 . S
N1043 C1045 1.356 . S
N1043 H1048 0.984 . S
N1043 H1049 0.985 . S
C1044 C1038 1.379 . S
C1044 C1041 1.363 . S
C1044 N1042 1.356 . S
C1045 C1039 1.363 . S
C1045 C1040 1.379 . S
C1045 N1043 1.356 . S
N1046 C1038 1.356 . S
N1046 H1052 0.984 . S
N1046 H1053 0.984 . S
N1047 C1040 1.356 . S
N1047 H1050 0.984 . S
N1047 H1051 0.985 . S
H1048 N1043 0.984 . S
H1049 N1043 0.985 . S
H1050 N1047 0.984 . S
H1051 N1047 0.985 . S
H1052 N1046 0.984 . S
H1053 N1046 0.984 . S
H1054 N1042 0.984 . S
H1055 N1042 0.985 . S
C1056 C1057 1.363 . S
C1056 C1062 1.379 . S
C1056 N1064 1.356 . S
C1057 C1056 1.363 . S
C1057 C1063 1.363 . S
C1058 C1059 1.363 . S
C1058 C1063 1.379 . S
C1058 N1065 1.356 . S
C1059 C1058 1.363 . S
C1059 C1062 1.363 . S
N1060 C1062 1.356 . S
N1060 H1072 0.984 . S
N1060 H1073 0.985 . S
N1061 C1063 1.356 . S
N1061 H1066 0.984 . S
N1061 H1067 0.985 . S
C1062 C1056 1.379 . S
C1062 C1059 1.363 . S
C1062 N1060 1.356 . S
C1063 C1057 1.363 . S
C1063 C1058 1.379 . S
C1063 N1061 1.356 . S
N1064 C1056 1.356 . S
N1064 H1070 0.984 . S
N1064 H1071 0.984 . S
N1065 C1058 1.356 . S
N1065 H1068 0.984 . S
N1065 H1069 0.985 . S
H1066 N1061 0.984 . S
H1067 N1061 0.985 . S
H1068 N1065 0.984 . S
H1069 N1065 0.985 . S
H1070 N1064 0.984 . S
H1071 N1064 0.984 . S
H1072 N1060 0.984 . S
H1073 N1060 0.985 . S
C1074 C1075 1.363 . S
C1074 C1080 1.379 . S
C1074 N1082 1.356 . S
C1075 C1074 1.363 . S
C1075 C1081 1.363 . S
C1076 C1077 1.363 . S
C1076 C1081 1.379 . S
C1076 N1083 1.356 . S
C1077 C1076 1.363 . S
C1077 C1080 1.363 . S
N1078 C1080 1.356 . S
N1078 H1090 0.984 . S
N1078 H1091 0.985 . S
N1079 C1081 1.356 . S
N1079 H1084 0.984 . S
N1079 H1085 0.985 . S
C1080 C1074 1.379 . S
C1080 C1077 1.363 . S
C1080 N1078 1.356 . S
C1081 C1075 1.363 . S
C1081 C1076 1.379 . S
C1081 N1079 1.356 . S
N1082 C1074 1.356 . S
N1082 H1088 0.984 . S
N1082 H1089 0.984 . S
N1083 C1076 1.356 . S
N1083 H1086 0.984 . S
N1083 H1087 0.985 . S
H1084 N1079 0.984 . S
H1085 N1079 0.985 . S
H1086 N1083 0.984 . S
H1087 N1083 0.985 . S
H1088 N1082 0.984 . S
H1089 N1082 0.984 . S
H1090 N1078 0.984 . S
H1091 N1078 0.985 . S
C1092 C1093 1.363 . S
C1092 C1098 1.379 . S
C1092 N1100 1.356 . S
C1093 C1092 1.363 . S
C1093 C1099 1.363 . S
C1094 C1095 1.363 . S
C1094 C1099 1.379 . S
C1094 N1101 1.356 . S
C1095 C1094 1.363 . S
C1095 C1098 1.363 . S
N1096 C1098 1.356 . S
N1096 H1108 0.984 . S
N1096 H1109 0.985 . S
N1097 C1099 1.356 . S
N1097 H1102 0.984 . S
N1097 H1103 0.985 . S
C1098 C1092 1.379 . S
C1098 C1095 1.363 . S
C1098 N1096 1.356 . S
C1099 C1093 1.363 . S
C1099 C1094 1.379 . S
C1099 N1097 1.356 . S
N1100 C1092 1.356 . S
N1100 H1106 0.984 . S
N1100 H1107 0.984 . S
N1101 C1094 1.356 . S
N1101 H1104 0.984 . S
N1101 H1105 0.985 . S
H1102 N1097 0.984 . S
H1103 N1097 0.985 . S
H1104 N1101 0.984 . S
H1105 N1101 0.985 . S
H1106 N1100 0.984 . S
H1107 N1100 0.984 . S
H1108 N1096 0.984 . S
H1109 N1096 0.985 . S
C1110 C1111 1.363 . S
C1110 C1116 1.379 . S
C1110 N1118 1.356 . S
C1111 C1110 1.363 . S
C1111 C1117 1.363 . S
C1112 C1113 1.363 . S
C1112 C1117 1.379 . S
C1112 N1119 1.356 . S
C1113 C1112 1.363 . S
C1113 C1116 1.363 . S
N1114 C1116 1.356 . S
N1114 H1126 0.984 . S
N1114 H1127 0.985 . S
N1115 C1117 1.356 . S
N1115 H1120 0.984 . S
N1115 H1121 0.985 . S
C1116 C1110 1.379 . S
C1116 C1113 1.363 . S
C1116 N1114 1.356 . S
C1117 C1111 1.363 . S
C1117 C1112 1.379 . S
C1117 N1115 1.356 . S
N1118 C1110 1.356 . S
N1118 H1124 0.984 . S
N1118 H1125 0.984 . S
N1119 C1112 1.356 . S
N1119 H1122 0.984 . S
N1119 H1123 0.985 . S
H1120 N1115 0.984 . S
H1121 N1115 0.985 . S
H1122 N1119 0.984 . S
H1123 N1119 0.985 . S
H1124 N1118 0.984 . S
H1125 N1118 0.984 . S
H1126 N1114 0.984 . S
H1127 N1114 0.985 . S
C1128 C1129 1.363 . S
C1128 C1134 1.379 . S
C1128 N1136 1.356 . S
C1129 C1128 1.363 . S
C1129 C1135 1.363 . S
C1130 C1131 1.363 . S
C1130 C1135 1.379 . S
C1130 N1137 1.356 . S
C1131 C1130 1.363 . S
C1131 C1134 1.363 . S
N1132 C1134 1.356 . S
N1132 H1144 0.984 . S
N1132 H1145 0.985 . S
N1133 C1135 1.356 . S
N1133 H1138 0.984 . S
N1133 H1139 0.985 . S
C1134 C1128 1.379 . S
C1134 C1131 1.363 . S
C1134 N1132 1.356 . S
C1135 C1129 1.363 . S
C1135 C1130 1.379 . S
C1135 N1133 1.356 . S
N1136 C1128 1.356 . S
N1136 H1142 0.984 . S
N1136 H1143 0.984 . S
N1137 C1130 1.356 . S
N1137 H1140 0.984 . S
N1137 H1141 0.985 . S
H1138 N1133 0.984 . S
H1139 N1133 0.985 . S
H1140 N1137 0.984 . S
H1141 N1137 0.985 . S
H1142 N1136 0.984 . S
H1143 N1136 0.984 . S
H1144 N1132 0.984 . S
H1145 N1132 0.985 . S
C1146 C1147 1.363 . S
C1146 C1152 1.379 . S
C1146 N1154 1.356 . S
C1147 C1146 1.363 . S
C1147 C1153 1.363 . S
C1148 C1149 1.363 . S
C1148 C1153 1.379 . S
C1148 N1155 1.356 . S
C1149 C1148 1.363 . S
C1149 C1152 1.363 . S
N1150 C1152 1.356 . S
N1150 H1162 0.984 . S
N1150 H1163 0.985 . S
N1151 C1153 1.356 . S
N1151 H1156 0.984 . S
N1151 H1157 0.985 . S
C1152 C1146 1.379 . S
C1152 C1149 1.363 . S
C1152 N1150 1.356 . S
C1153 C1147 1.363 . S
C1153 C1148 1.379 . S
C1153 N1151 1.356 . S
N1154 C1146 1.356 . S
N1154 H1160 0.984 . S
N1154 H1161 0.984 . S
N1155 C1148 1.356 . S
N1155 H1158 0.984 . S
N1155 H1159 0.985 . S
H1156 N1151 0.984 . S
H1157 N1151 0.985 . S
H1158 N1155 0.984 . S
H1159 N1155 0.985 . S
H1160 N1154 0.984 . S
H1161 N1154 0.984 . S
H1162 N1150 0.984 . S
H1163 N1150 0.985 . S
C1164 C1165 1.363 . S
C1164 C1170 1.379 . S
C1164 N1172 1.356 . S
C1165 C1164 1.363 . S
C1165 C1171 1.363 . S
C1166 C1167 1.363 . S
C1166 C1171 1.379 . S
C1166 N1173 1.356 . S
C1167 C1166 1.363 . S
C1167 C1170 1.363 . S
N1168 C1170 1.356 . S
N1168 H1180 0.984 . S
N1168 H1181 0.985 . S
N1169 C1171 1.356 . S
N1169 H1174 0.984 . S
N1169 H1175 0.985 . S
C1170 C1164 1.379 . S
C1170 C1167 1.363 . S
C1170 N1168 1.356 . S
C1171 C1165 1.363 . S
C1171 C1166 1.379 . S
C1171 N1169 1.356 . S
N1172 C1164 1.356 . S
N1172 H1178 0.984 . S
N1172 H1179 0.984 . S
N1173 C1166 1.356 . S
N1173 H1176 0.984 . S
N1173 H1177 0.985 . S
H1174 N1169 0.984 . S
H1175 N1169 0.985 . S
H1176 N1173 0.984 . S
H1177 N1173 0.985 . S
H1178 N1172 0.984 . S
H1179 N1172 0.984 . S
H1180 N1168 0.984 . S
H1181 N1168 0.985 . S
C1182 C1183 1.363 . S
C1182 C1188 1.379 . S
C1182 N1190 1.356 . S
C1183 C1182 1.363 . S
C1183 C1189 1.363 . S
C1184 C1185 1.363 . S
C1184 C1189 1.379 . S
C1184 N1191 1.356 . S
C1185 C1184 1.363 . S
C1185 C1188 1.363 . S
N1186 C1188 1.356 . S
N1186 H1198 0.984 . S
N1186 H1199 0.985 . S
N1187 C1189 1.356 . S
N1187 H1192 0.984 . S
N1187 H1193 0.985 . S
C1188 C1182 1.379 . S
C1188 C1185 1.363 . S
C1188 N1186 1.356 . S
C1189 C1183 1.363 . S
C1189 C1184 1.379 . S
C1189 N1187 1.356 . S
N1190 C1182 1.356 . S
N1190 H1196 0.984 . S
N1190 H1197 0.984 . S
N1191 C1184 1.356 . S
N1191 H1194 0.984 . S
N1191 H1195 0.985 . S
H1192 N1187 0.984 . S
H1193 N1187 0.985 . S
H1194 N1191 0.984 . S
H1195 N1191 0.985 . S
H1196 N1190 0.984 . S
H1197 N1190 0.984 . S
H1198 N1186 0.984 . S
H1199 N1186 0.985 . S
C337 C203 1.490 . S
C339 C6 1.459 . S
C355 C21 1.490 . S
C357 C216 1.459 . S
C373 C261 1.683 . S
C375 C37 1.683 . S
C391 C50 2.019 . S
C393 C190 2.019 . S
C409 C204 2.019 . S
C411 C64 2.019 . S
C427 C79 1.683 . S
C429 C219 1.683 . S
C445 C91 1.490 . S
C447 C258 1.459 . S
C463 C104 1.459 . S
C465 C189 1.490 . S
C481 C133 1.490 . S
C483 C118 1.459 . S
C499 C148 2.019 . S
C501 C134 2.019 . S
C517 C147 1.490 . S
C519 C160 1.459 . S
C535 C163 1.683 . S
C537 C121 1.683 . S
C553 C174 1.459 . S
C555 C49 1.490 . S
C571 C63 1.490 . S
C573 C230 1.459 . S
C589 C246 2.019 . S
C591 C22 2.019 . S
C607 C20 1.572 . S
C609 C302 1.599 . S
C625 C132 1.572 . S
C627 C8 1.599 . S
C643 C331 1.688 . S
C645 C51 1.688 . S
C661 C161 1.042 . S
C663 C35 1.042 . S
C679 C301 1.042 . S
C681 C105 1.042 . S
C697 C135 1.688 . S
C699 C93 1.688 . S
C715 C78 1.599 . S
C717 C328 1.572 . S
C733 C62 1.572 . S
C735 C162 1.599 . S
C751 C218 1.599 . S
C753 C272 1.572 . S
C769 C231 1.042 . S
C771 C217 1.042 . S
C787 C188 1.572 . S
C789 C232 1.599 . S
C805 C275 1.688 . S
C807 C191 1.688 . S
C823 C36 1.599 . S
C825 C286 1.572 . S
C841 C146 1.572 . S
C843 C106 1.599 . S
C859 C7 1.042 . S
C861 C315 1.042 . S
C877 C273 1.490 . S
C879 C34 1.459 . S
C895 C9 1.683 . S
C897 C233 1.683 . S
C913 C274 2.019 . S
C915 C92 2.019 . S
C931 C177 1.683 . S
C933 C107 1.683 . S
C949 C76 1.459 . S
C951 C245 1.490 . S
C967 C300 1.459 . S
C969 C287 1.490 . S
C985 C330 2.019 . S
C987 C288 2.019 . S
C1003 C314 1.459 . S
C1005 C329 1.490 . S
C1021 C303 1.683 . S
C1023 C317 1.683 . S
C1039 C120 1.599 . S
C1041 C48 1.572 . S
C1057 C23 1.688 . S
C1059 C149 1.688 . S
C1075 C77 1.042 . S
C1077 C119 1.042 . S
C1093 C289 1.688 . S
C1095 C65 1.688 . S
C1111 C90 1.572 . S
C1113 C316 1.599 . S
C1129 C176 1.599 . S
C1131 C202 1.572 . S
C1147 C259 1.042 . S
C1149 C175 1.042 . S
C1165 C244 1.572 . S
C1167 C260 1.599 . S
C1183 C205 1.688 . S
C1185 C247 1.688 . S
