# Generated by pormake.
# Topology wjt, (5)-cn, num edge types: 1
# Building blocks:
#     Node 0, Type 0, BuildingBlock: XOMCOT_clean_sbu_0, # of connection points: 5
#     Node 1, Type 0, BuildingBlock: XOMCOT_clean_sbu_0, # of connection points: 5
#     Node 2, Type 0, BuildingBlock: XOMCOT_clean_sbu_0, # of connection points: 5
#     Node 3, Type 0, BuildingBlock: XOMCOT_clean_sbu_0, # of connection points: 5
#     Node 4, Type 0, BuildingBlock: XOMCOT_clean_sbu_0, # of connection points: 5
#     Node 5, Type 0, BuildingBlock: XOMCOT_clean_sbu_0, # of connection points: 5
#     Node 6, Type 0, BuildingBlock: XOMCOT_clean_sbu_0, # of connection points: 5
#     Node 7, Type 0, BuildingBlock: XOMCOT_clean_sbu_0, # of connection points: 5
#     Node 8, Type 0, BuildingBlock: XOMCOT_clean_sbu_0, # of connection points: 5
#     Node 9, Type 0, BuildingBlock: XOMCOT_clean_sbu_0, # of connection points: 5
#     Node 10, Type 0, BuildingBlock: XOMCOT_clean_sbu_0, # of connection points: 5
#     Node 11, Type 0, BuildingBlock: XOMCOT_clean_sbu_0, # of connection points: 5
#     Edge 12, Type (0, 0), BuildingBlock: XIVTED_clean_linker_0, # of connection points: 2
#     Edge 13, Type (0, 0), BuildingBlock: XIVTED_clean_linker_0, # of connection points: 2
#     Edge 14, Type (0, 0), BuildingBlock: XIVTED_clean_linker_0, # of connection points: 2
#     Edge 15, Type (0, 0), BuildingBlock: XIVTED_clean_linker_0, # of connection points: 2
#     Edge 16, Type (0, 0), BuildingBlock: XIVTED_clean_linker_0, # of connection points: 2
#     Edge 17, Type (0, 0), BuildingBlock: XIVTED_clean_linker_0, # of connection points: 2
#     Edge 18, Type (0, 0), BuildingBlock: XIVTED_clean_linker_0, # of connection points: 2
#     Edge 19, Type (0, 0), BuildingBlock: XIVTED_clean_linker_0, # of connection points: 2
#     Edge 20, Type (0, 0), BuildingBlock: XIVTED_clean_linker_0, # of connection points: 2
#     Edge 21, Type (0, 0), BuildingBlock: XIVTED_clean_linker_0, # of connection points: 2
#     Edge 22, Type (0, 0), BuildingBlock: XIVTED_clean_linker_0, # of connection points: 2
#     Edge 23, Type (0, 0), BuildingBlock: XIVTED_clean_linker_0, # of connection points: 2
#     Edge 24, Type (0, 0), BuildingBlock: XIVTED_clean_linker_0, # of connection points: 2
#     Edge 25, Type (0, 0), BuildingBlock: XIVTED_clean_linker_0, # of connection points: 2
#     Edge 26, Type (0, 0), BuildingBlock: XIVTED_clean_linker_0, # of connection points: 2
#     Edge 27, Type (0, 0), BuildingBlock: XIVTED_clean_linker_0, # of connection points: 2
#     Edge 28, Type (0, 0), BuildingBlock: XIVTED_clean_linker_0, # of connection points: 2
#     Edge 29, Type (0, 0), BuildingBlock: XIVTED_clean_linker_0, # of connection points: 2
#     Edge 30, Type (0, 0), BuildingBlock: XIVTED_clean_linker_0, # of connection points: 2
#     Edge 31, Type (0, 0), BuildingBlock: XIVTED_clean_linker_0, # of connection points: 2
#     Edge 32, Type (0, 0), BuildingBlock: XIVTED_clean_linker_0, # of connection points: 2
#     Edge 33, Type (0, 0), BuildingBlock: XIVTED_clean_linker_0, # of connection points: 2
#     Edge 34, Type (0, 0), BuildingBlock: XIVTED_clean_linker_0, # of connection points: 2
#     Edge 35, Type (0, 0), BuildingBlock: XIVTED_clean_linker_0, # of connection points: 2
#     Edge 36, Type (0, 0), BuildingBlock: XIVTED_clean_linker_0, # of connection points: 2
#     Edge 37, Type (0, 0), BuildingBlock: XIVTED_clean_linker_0, # of connection points: 2
#     Edge 38, Type (0, 0), BuildingBlock: XIVTED_clean_linker_0, # of connection points: 2
#     Edge 39, Type (0, 0), BuildingBlock: XIVTED_clean_linker_0, # of connection points: 2
#     Edge 40, Type (0, 0), BuildingBlock: XIVTED_clean_linker_0, # of connection points: 2
#     Edge 41, Type (0, 0), BuildingBlock: XIVTED_clean_linker_0, # of connection points: 2
# Relax obj value: 0.231
# Max RMSD: 0.184
# Mean RMSD: 0.184
data_MOF--net-wjt--node1-XOMCOT_clean_sbu_0--edge1-XIVTED_clean_linker_0
_symmetry_space_group_name_H-M    P1
_symmetry_Int_Tables_number       1
_symmetry_cell_setting            triclinic
loop_
_symmetry_equiv_pos_as_xyz
'x, y, z'
_cell_length_a     67.806695
_cell_length_b     67.794192
_cell_length_c     17.403579
_cell_angle_alpha  90.001588
_cell_angle_beta   89.998272
_cell_angle_gamma 119.96777
loop_
_atom_site_label
_atom_site_type_symbol
_atom_site_fract_x
_atom_site_fract_y
_atom_site_fract_z
_atom_type_partial_charge
Co0 Co 0.30553 0.42475 0.24346 0.0
C1 C 0.29792 0.41868 0.4111 0.0
C2 C 0.26785 0.41371 0.35416 0.0
C3 C 0.26328 0.4098 0.43161 0.0
N4 N 0.2899 0.42007 0.34151 0.0
N5 N 0.28229 0.41294 0.46709 0.0
H6 H 0.31488 0.42158 0.42094 0.0
H7 H 0.25546 0.41103 0.31051 0.0
C8 C 0.27253 0.43984 0.19359 0.0
O9 O 0.28015 0.45527 0.24827 0.0
N10 N 0.32019 0.42811 0.14585 0.0
C11 C 0.34255 0.43868 0.12864 0.0
C12 C 0.34472 0.43774 0.04992 0.0
C13 C 0.30917 0.42057 0.07875 0.0
N14 N 0.32364 0.42651 0.01909 0.0
C15 C 0.33407 0.4666 0.32442 0.0
C16 C 0.34135 0.49569 0.203 0.0
C17 C 0.35303 0.50466 0.27212 0.0
C18 C 0.34884 0.48987 0.33369 0.0
C19 C 0.32608 0.47225 0.19684 0.0
N20 N 0.32261 0.45788 0.25717 0.0
H21 H 0.33318 0.45568 0.37025 0.0
H22 H 0.31773 0.46555 0.14239 0.0
H23 H 0.35619 0.44706 0.16993 0.0
H24 H 0.29083 0.41105 0.07355 0.0
O25 O 0.32712 0.41793 0.29062 0.0
O26 O 0.29437 0.39223 0.23814 0.0
O27 O 0.27989 0.42585 0.1875 0.0
C28 C 0.31314 0.39677 0.27346 0.0
H29 H 0.24707 0.40441 0.45917 0.0
H30 H 0.36049 0.44546 0.01774 0.0
H31 H 0.34452 0.50658 0.15354 0.0
H32 H 0.35822 0.49601 0.38702 0.0
Co33 Co 0.88555 0.31174 0.56441 0.0
C34 C 0.8822 0.30534 0.73196 0.0
C35 C 0.86963 0.27355 0.67343 0.0
C36 C 0.87004 0.26982 0.75121 0.0
N37 N 0.87681 0.29582 0.66166 0.0
N38 N 0.87822 0.28997 0.78738 0.0
H39 H 0.89019 0.32331 0.74274 0.0
H40 H 0.8656 0.26113 0.62838 0.0
C41 C 0.83819 0.27242 0.53129 0.0
O42 O 0.83118 0.2745 0.59961 0.0
N43 N 0.89456 0.32693 0.46721 0.0
C44 C 0.90154 0.34872 0.4486 0.0
C45 C 0.90427 0.35089 0.36975 0.0
C46 C 0.89344 0.31632 0.40098 0.0
N47 N 0.89896 0.33038 0.34023 0.0
C48 C 0.87752 0.34455 0.63994 0.0
C49 C 0.83877 0.33626 0.56145 0.0
C50 C 0.84684 0.35244 0.62081 0.0
C51 C 0.86669 0.35669 0.65924 0.0
C52 C 0.85008 0.32417 0.54453 0.0
N53 N 0.86861 0.32755 0.58643 0.0
H54 H 0.89363 0.34962 0.66675 0.0
H55 H 0.84426 0.31273 0.49611 0.0
H56 H 0.90382 0.36183 0.48891 0.0
H57 H 0.88837 0.29847 0.39766 0.0
O58 O 0.91441 0.3336 0.60846 0.0
O59 O 0.90766 0.30164 0.55109 0.0
O60 O 0.85878 0.28568 0.51062 0.0
C61 C 0.92186 0.32016 0.58744 0.0
H62 H 0.86597 0.25387 0.77844 0.0
H63 H 0.90889 0.36611 0.33668 0.0
H64 H 0.824 0.3331 0.52802 0.0
H65 H 0.8744 0.37001 0.70211 0.0
Co66 Co 0.57412 0.87988 0.90762 0.0
C67 C 0.57979 0.87878 0.07541 0.0
C68 C 0.59004 0.85739 0.01887 0.0
C69 C 0.59445 0.85766 0.09635 0.0
N70 N 0.58001 0.87002 0.00595 0.0
N71 N 0.58805 0.87126 0.13139 0.0
H72 H 0.5744 0.8911 0.08505 0.0
H73 H 0.59512 0.84952 0.9752 0.0
C74 C 0.56528 0.83344 0.86067 0.0
O75 O 0.55112 0.82462 0.91875 0.0
N76 N 0.56964 0.89037 0.81004 0.0
C77 C 0.55644 0.89936 0.79191 0.0
C78 C 0.55732 0.90248 0.71317 0.0
C79 C 0.57867 0.88864 0.74354 0.0
N80 N 0.57114 0.89545 0.68334 0.0
C81 C 0.5312 0.86242 0.98499 0.0
C82 C 0.5039 0.8389 0.86176 0.0
C83 C 0.49376 0.8411 0.92902 0.0
C84 C 0.50769 0.85239 0.99177 0.0
C85 C 0.52763 0.84858 0.85826 0.0
N86 N 0.54111 0.86061 0.91911 0.0
H87 H 0.54125 0.87307 0.03122 0.0
H88 H 0.53525 0.84758 0.8049 0.0
H89 H 0.54625 0.90253 0.83247 0.0
H90 H 0.5903 0.88214 0.73908 0.0
O91 O 0.57714 0.90674 0.95515 0.0
O92 O 0.60589 0.90411 0.90587 0.0
O93 O 0.57654 0.85503 0.8513 0.0
C94 C 0.59883 0.91637 0.94166 0.0
H95 H 0.60263 0.84934 0.12409 0.0
H96 H 0.54773 0.90838 0.68021 0.0
H97 H 0.49368 0.83065 0.81141 0.0
H98 H 0.50065 0.85522 0.04375 0.0
Co99 Co 0.69703 0.57779 0.24315 0.0
C100 C 0.70382 0.57586 0.41027 0.0
C101 C 0.73518 0.59795 0.353 0.0
C102 C 0.73911 0.59964 0.43122 0.0
N103 N 0.71305 0.58274 0.3399 0.0
N104 N 0.71928 0.58564 0.46686 0.0
H105 H 0.6859 0.56548 0.42116 0.0
H106 H 0.74738 0.6079 0.30893 0.0
C107 C 0.73476 0.56767 0.20434 0.0
O108 O 0.73345 0.55892 0.27277 0.0
N109 N 0.68158 0.57354 0.14674 0.0
C110 C 0.65927 0.56039 0.13077 0.0
C111 C 0.65647 0.56024 0.05213 0.0
C112 C 0.69193 0.58151 0.0787 0.0
N113 N 0.67709 0.5735 0.0197 0.0
C114 C 0.66136 0.53754 0.31272 0.0
C115 C 0.66743 0.50575 0.23332 0.0
C116 C 0.6504 0.49826 0.28977 0.0
C117 C 0.64737 0.51455 0.32883 0.0
C118 C 0.68142 0.52919 0.21967 0.0
N119 N 0.67898 0.54491 0.26177 0.0
H120 H 0.65747 0.54934 0.34074 0.0
H121 H 0.69354 0.5344 0.17335 0.0
H122 H 0.64614 0.55091 0.17279 0.0
H123 H 0.71018 0.59201 0.07232 0.0
O124 O 0.67718 0.58681 0.29131 0.0
O125 O 0.70962 0.61053 0.23341 0.0
O126 O 0.72157 0.57527 0.18584 0.0
C127 C 0.69181 0.60751 0.27157 0.0
H128 H 0.75508 0.61081 0.45957 0.0
H129 H 0.64059 0.55069 0.02125 0.0
H130 H 0.66978 0.49365 0.19964 0.0
H131 H 0.63365 0.50956 0.36982 0.0
Co132 Co 0.12335 0.69284 0.56479 0.0
C133 C 0.1222 0.69939 0.73254 0.0
C134 C 0.14151 0.73133 0.67528 0.0
C135 C 0.14076 0.73541 0.75247 0.0
N136 N 0.13062 0.70862 0.66309 0.0
N137 N 0.12855 0.71522 0.78817 0.0
H138 H 0.11088 0.68149 0.74234 0.0
H139 H 0.14871 0.74423 0.63119 0.0
C140 C 0.1698 0.73245 0.52641 0.0
O141 O 0.17814 0.72848 0.58891 0.0
N142 N 0.11556 0.6778 0.4668 0.0
C143 C 0.10821 0.65584 0.44956 0.0
C144 C 0.1053 0.65321 0.37086 0.0
C145 C 0.11668 0.68808 0.39976 0.0
N146 N 0.11085 0.67362 0.34008 0.0
C147 C 0.1385 0.6666 0.64813 0.0
C148 C 0.16995 0.66876 0.54288 0.0
C149 C 0.1654 0.65509 0.60856 0.0
C150 C 0.14961 0.65441 0.66169 0.0
C151 C 0.15855 0.68108 0.53198 0.0
N152 N 0.14318 0.68015 0.58503 0.0
H153 H 0.12489 0.6636 0.68614 0.0
H154 H 0.16131 0.69048 0.47914 0.0
H155 H 0.10556 0.64283 0.49095 0.0
H156 H 0.12158 0.70585 0.39489 0.0
O157 O 0.09594 0.66826 0.60675 0.0
O158 O 0.09838 0.69916 0.55383 0.0
O159 O 0.14852 0.72059 0.51168 0.0
C160 C 0.08583 0.67942 0.58667 0.0
H161 H 0.14799 0.75194 0.77968 0.0
H162 H 0.10018 0.63772 0.33872 0.0
H163 H 0.18166 0.66941 0.49932 0.0
H164 H 0.14458 0.64324 0.71119 0.0
Co165 Co 0.42728 0.12311 0.91705 0.0
C166 C 0.42505 0.12724 0.08507 0.0
C167 C 0.41532 0.14899 0.02822 0.0
C168 C 0.41331 0.1508 0.10659 0.0
N169 N 0.42344 0.13471 0.01487 0.0
N170 N 0.41973 0.13721 0.14176 0.0
H171 H 0.42851 0.11357 0.09526 0.0
H172 H 0.41035 0.15697 0.98453 0.0
C173 C 0.44117 0.17115 0.86908 0.0
O174 O 0.45611 0.17923 0.92521 0.0
N175 N 0.43029 0.11126 0.82024 0.0
C176 C 0.44093 0.09941 0.80561 0.0
C177 C 0.44039 0.09589 0.72741 0.0
C178 C 0.42315 0.1145 0.75185 0.0
N179 N 0.42924 0.10548 0.69386 0.0
C180 C 0.46897 0.13321 0.99155 0.0
C181 C 0.49862 0.16159 0.8805 0.0
C182 C 0.50753 0.15714 0.94685 0.0
C183 C 0.49228 0.1426 0.0023 0.0
C184 C 0.47496 0.15197 0.87249 0.0
N185 N 0.46041 0.13865 0.92931 0.0
H186 H 0.45794 0.12055 0.03179 0.0
H187 H 0.46835 0.15487 0.81983 0.0
H188 H 0.44907 0.09431 0.84844 0.0
H189 H 0.4145 0.12414 0.74442 0.0
O190 O 0.42004 0.09478 0.96578 0.0
O191 O 0.39461 0.10225 0.91362 0.0
O192 O 0.42833 0.14969 0.8604 0.0
C193 C 0.39888 0.088 0.9501 0.0
H194 H 0.40744 0.16108 0.13525 0.0
H195 H 0.44797 0.0873 0.69763 0.0
H196 H 0.50977 0.17218 0.83496 0.0
H197 H 0.49823 0.13753 0.05223 0.0
Co198 Co 0.58251 0.6932 0.42135 0.0
C199 C 0.58008 0.70015 0.25399 0.0
C200 C 0.60166 0.73148 0.31212 0.0
C201 C 0.60318 0.73565 0.23406 0.0
N202 N 0.58691 0.70919 0.32466 0.0
N203 N 0.5895 0.71583 0.19788 0.0
H204 H 0.56993 0.68227 0.24227 0.0
H205 H 0.61139 0.74367 0.3565 0.0
C206 C 0.56941 0.72895 0.45937 0.0
O207 O 0.56169 0.72825 0.38963 0.0
N208 N 0.5789 0.67797 0.51795 0.0
C209 C 0.56679 0.65559 0.53435 0.0
C210 C 0.5667 0.65303 0.61313 0.0
C211 C 0.58629 0.68862 0.58589 0.0
N212 N 0.57895 0.67387 0.64519 0.0
C213 C 0.54436 0.65585 0.34984 0.0
C214 C 0.51007 0.6573 0.43019 0.0
C215 C 0.50423 0.6399 0.37572 0.0
C216 C 0.52189 0.63981 0.33443 0.0
C217 C 0.53309 0.67368 0.4423 0.0
N218 N 0.54999 0.67316 0.40082 0.0
H219 H 0.55724 0.65378 0.321 0.0
H220 H 0.53714 0.68597 0.48759 0.0
H221 H 0.55797 0.6422 0.49252 0.0
H222 H 0.59585 0.70695 0.59195 0.0
O223 O 0.59369 0.675 0.37434 0.0
O224 O 0.61546 0.70784 0.43332 0.0
O225 O 0.57749 0.71621 0.4783 0.0
C226 C 0.61385 0.6905 0.39563 0.0
H227 H 0.61403 0.7518 0.20617 0.0
H228 H 0.55786 0.63713 0.64436 0.0
H229 H 0.49712 0.65779 0.46516 0.0
H230 H 0.51859 0.62711 0.29092 0.0
Co231 Co 0.88379 0.57018 0.75335 0.0
C232 C 0.87763 0.571 0.58514 0.0
C233 C 0.86617 0.5911 0.64387 0.0
C234 C 0.86448 0.59351 0.56572 0.0
N235 N 0.87387 0.57643 0.65607 0.0
N236 N 0.8716 0.58066 0.52925 0.0
H237 H 0.88656 0.56196 0.57347 0.0
H238 H 0.86291 0.6002 0.68849 0.0
C239 C 0.83821 0.56466 0.79576 0.0
O240 O 0.82958 0.55332 0.73171 0.0
N241 N 0.89405 0.56482 0.84995 0.0
C242 C 0.90153 0.55021 0.86527 0.0
C243 C 0.90431 0.54984 0.94369 0.0
C244 C 0.89277 0.57341 0.9182 0.0
N245 N 0.89865 0.56438 0.97677 0.0
C246 C 0.87014 0.52721 0.68295 0.0
C247 C 0.83621 0.49986 0.78472 0.0
C248 C 0.84111 0.48975 0.72277 0.0
C249 C 0.85836 0.50382 0.67189 0.0
C250 C 0.84818 0.5237 0.79259 0.0
N251 N 0.86443 0.53722 0.74013 0.0
H252 H 0.88488 0.53694 0.64791 0.0
H253 H 0.84504 0.53109 0.84278 0.0
H254 H 0.9039 0.53992 0.82286 0.0
H255 H 0.88656 0.58522 0.92504 0.0
O256 O 0.91056 0.57344 0.70442 0.0
O257 O 0.90825 0.60198 0.75647 0.0
O258 O 0.8593 0.57281 0.81095 0.0
C259 C 0.92038 0.59502 0.7194 0.0
H260 H 0.85901 0.60427 0.53807 0.0
H261 H 0.90951 0.53925 0.97396 0.0
H262 H 0.82363 0.48947 0.8273 0.0
H263 H 0.86374 0.49669 0.62619 0.0
Co264 Co 0.31308 0.89103 0.0949 0.0
C265 C 0.30589 0.88295 0.92712 0.0
C266 C 0.27453 0.87232 0.98629 0.0
C267 C 0.27025 0.86998 0.90823 0.0
N268 N 0.2969 0.88013 -0.00186 0.0
N269 N 0.29009 0.87664 0.8714 0.0
H270 H 0.32378 0.89112 0.91504 0.0
H271 H 0.26232 0.86936 0.03118 0.0
C272 C 0.27661 0.84248 0.13221 0.0
O273 O 0.27786 0.83545 0.06303 0.0
N274 N 0.32856 0.90199 0.19147 0.0
C275 C 0.35095 0.91179 0.20703 0.0
C276 C 0.35378 0.9142 0.28573 0.0
C277 C 0.31817 0.89893 0.25985 0.0
N278 N 0.33309 0.90601 0.31865 0.0
C279 C 0.34913 0.88824 0.02102 0.0
C280 C 0.34593 0.85142 0.09936 0.0
C281 C 0.36281 0.86189 0.0425 0.0
C282 C 0.36387 0.88033 0.00266 0.0
C283 C 0.33081 0.85952 0.11429 0.0
N284 N 0.33203 0.87733 0.07327 0.0
H285 H 0.35201 0.90363 0.9933 0.0
H286 H 0.31891 0.852 0.16102 0.0
H287 H 0.36415 0.91613 0.16462 0.0
H288 H 0.29989 0.89062 0.26651 0.0
O289 O 0.33218 0.92034 0.04848 0.0
O290 O 0.29961 0.91038 0.10778 0.0
O291 O 0.28932 0.86328 0.15133 0.0
C292 C 0.31723 0.92574 0.07021 0.0
H293 H 0.25398 0.86441 0.88085 0.0
H294 H 0.36977 0.921 0.31628 0.0
H295 H 0.34482 0.8376 0.13379 0.0
H296 H 0.37623 0.88907 0.95767 0.0
Co297 Co 0.4268 0.31185 0.42623 0.0
C298 C 0.42723 0.30585 0.25831 0.0
C299 C 0.41096 0.2737 0.31589 0.0
C300 C 0.40945 0.26983 0.23763 0.0
N301 N 0.42265 0.29637 0.32876 0.0
N302 N 0.41991 0.29018 0.202 0.0
H303 H 0.43403 0.32369 0.24725 0.0
H304 H 0.4033 0.26083 0.36006 0.0
C305 C 0.43954 0.27641 0.4669 0.0
O306 O 0.4528 0.28226 0.40616 0.0
N307 N 0.43022 0.32669 0.52317 0.0
C308 C 0.44191 0.34913 0.53888 0.0
C309 C 0.44161 0.35187 0.61734 0.0
C310 C 0.4227 0.31615 0.59109 0.0
N311 N 0.42953 0.33107 0.64981 0.0
C312 C 0.46822 0.34573 0.35607 0.0
C313 C 0.49838 0.34247 0.4544 0.0
C314 C 0.50699 0.35771 0.39239 0.0
C315 C 0.49149 0.3594 0.34374 0.0
C316 C 0.47474 0.32881 0.46414 0.0
N317 N 0.4599 0.3296 0.41251 0.0
H318 H 0.45705 0.34916 0.32221 0.0
H319 H 0.46849 0.31811 0.51443 0.0
H320 H 0.45065 0.36243 0.49667 0.0
H321 H 0.41332 0.29783 0.59766 0.0
O322 O 0.41902 0.33268 0.37814 0.0
O323 O 0.39411 0.29987 0.43173 0.0
O324 O 0.42819 0.28635 0.48181 0.0
C325 C 0.39801 0.31828 0.39542 0.0
H326 H 0.40098 0.25343 0.20928 0.0
H327 H 0.45002 0.36788 0.64809 0.0
H328 H 0.50974 0.34126 0.49541 0.0
H329 H 0.49728 0.372 0.29832 0.0
Co330 Co 0.12089 0.42955 0.74169 0.0
C331 C 0.12636 0.42872 0.57366 0.0
C332 C 0.14296 0.41322 0.63149 0.0
C333 C 0.14491 0.41125 0.55322 0.0
N334 N 0.13182 0.42477 0.6442 0.0
N335 N 0.13455 0.42123 0.51738 0.0
H336 H 0.11501 0.43518 0.56275 0.0
H337 H 0.14853 0.4059 0.67572 0.0
C338 C 0.16844 0.44047 0.78478 0.0
O339 O 0.17664 0.45407 0.72509 0.0
N340 N 0.10979 0.43359 0.8385 0.0
C341 C 0.09934 0.44563 0.85327 0.0
C342 C 0.09623 0.44559 0.93161 0.0
C343 C 0.11261 0.42616 0.90695 0.0
N344 N 0.10467 0.43338 0.96508 0.0
C345 C 0.13064 0.47146 0.66999 0.0
C346 C 0.16395 0.50089 0.77001 0.0
C347 C 0.15826 0.50993 0.70675 0.0
C348 C 0.14108 0.49479 0.65734 0.0
C349 C 0.15306 0.47718 0.78024 0.0
N350 N 0.13747 0.46267 0.72792 0.0
H351 H 0.1162 0.46068 0.63501 0.0
H352 H 0.15684 0.47061 0.83122 0.0
H353 H 0.09496 0.45436 0.81045 0.0
H354 H 0.12126 0.41652 0.9143 0.0
O355 O 0.09273 0.42307 0.6932 0.0
O356 O 0.0991 0.39708 0.74674 0.0
O357 O 0.14704 0.4296 0.79787 0.0
C358 C 0.08526 0.40185 0.70994 0.0
H359 H 0.1529 0.4028 0.52507 0.0
H360 H 0.08873 0.45424 0.96155 0.0
H361 H 0.17652 0.51197 0.81151 0.0
H362 H 0.13495 0.50092 0.61083 0.0
Co363 Co 0.68946 0.11612 0.10688 0.0
C364 C 0.69664 0.12326 0.93901 0.0
C365 C 0.72718 0.13009 0.99739 0.0
C366 C 0.7314 0.13223 0.91937 0.0
N367 N 0.70542 0.12479 0.00959 0.0
N368 N 0.71211 0.12801 0.88317 0.0
H369 H 0.67899 0.11728 0.92733 0.0
H370 H 0.73896 0.13163 0.04207 0.0
C371 C 0.72927 0.16335 0.13852 0.0
O372 O 0.72786 0.17012 0.06904 0.0
N373 N 0.67416 0.1073 0.2041 0.0
C374 C 0.65208 0.09963 0.22031 0.0
C375 C 0.64932 0.09729 0.29898 0.0
C376 C 0.68439 0.10913 0.27186 0.0
N377 N 0.66971 0.10331 0.33097 0.0
C378 C 0.65562 0.1228 0.03331 0.0
C379 C 0.66427 0.16245 0.10627 0.0
C380 C 0.64724 0.15319 0.04973 0.0
C381 C 0.64288 0.13296 0.01403 0.0
C382 C 0.67703 0.15181 0.12307 0.0
N383 N 0.67334 0.13272 0.08399 0.0
H384 H 0.65072 0.10655 0.00767 0.0
H385 H 0.68919 0.15858 0.16933 0.0
H386 H 0.63909 0.09652 0.17831 0.0
H387 H 0.70247 0.1155 0.27784 0.0
O388 O 0.66755 0.08705 0.0649 0.0
O389 O 0.69974 0.09411 0.12109 0.0
O390 O 0.71545 0.14301 0.16013 0.0
C391 C 0.68085 0.0796 0.08728 0.0
H392 H 0.7472 0.1361 0.89154 0.0
H393 H 0.63364 0.09191 0.33017 0.0
H394 H 0.66756 0.1776 0.13755 0.0
H395 H 0.62908 0.12449 0.97319 0.0
H396 H 0.2674 0.47547 0.14665 0.0
H397 H 0.16018 0.40516 0.8804 0.0
H398 H 0.24172 0.40393 0.10638 0.0
H399 H 0.21185 0.47351 0.82076 0.0
H400 H 0.18552 0.40453 0.98012 0.0
H401 H 0.24244 0.47538 0.04433 0.0
C402 C 0.25633 0.45969 0.11689 0.0
C403 C 0.25655 0.43964 0.1352 0.0
C404 C 0.19129 0.41958 0.94479 0.0
C405 C 0.22792 0.43944 0.01888 0.0
C406 C 0.17689 0.41998 0.8881 0.0
C407 C 0.18402 0.43937 0.84196 0.0
C408 C 0.21268 0.43894 0.95692 0.0
C409 C 0.2058 0.45814 0.85453 0.0
C410 C 0.24227 0.45972 0.05821 0.0
C411 C 0.24206 0.41974 0.09407 0.0
N412 N 0.21927 0.45758 0.9115 0.0
N413 N 0.22815 0.42008 0.03827 0.0
H414 H 0.76652 0.20557 0.11198 0.0
H415 H 0.79586 0.23534 0.55783 0.0
H416 H 0.72915 0.15857 0.29478 0.0
H417 H 0.8431 0.27238 0.37553 0.0
H418 H 0.76927 0.20883 0.4621 0.0
H419 H 0.79299 0.23219 0.20768 0.0
C420 C 0.76386 0.20084 0.17212 0.0
C421 C 0.74563 0.17974 0.19518 0.0
C422 C 0.7855 0.22273 0.44313 0.0
C423 C 0.77573 0.21019 0.30509 0.0
C424 C 0.80065 0.2379 0.49773 0.0
C425 C 0.82183 0.25602 0.47473 0.0
C426 C 0.79142 0.22591 0.36481 0.0
C427 C 0.8271 0.25851 0.39596 0.0
C428 C 0.77901 0.21602 0.22671 0.0
C429 C 0.74305 0.17454 0.27409 0.0
N430 N 0.812 0.24371 0.3439 0.0
N431 N 0.75784 0.18967 0.32609 0.0
H432 H 0.56607 0.72251 0.61456 0.0
H433 H 0.58709 0.84516 0.72146 0.0
H434 H 0.57 0.76946 0.43969 0.0
H435 H 0.5477 0.78714 0.86791 0.0
H436 H 0.58721 0.81962 0.6223 0.0
H437 H 0.56529 0.74788 0.71313 0.0
C438 C 0.56678 0.73818 0.59689 0.0
C439 C 0.56808 0.7439 0.51874 0.0
C440 C 0.57854 0.81253 0.67616 0.0
C441 C 0.56757 0.77312 0.63145 0.0
C442 C 0.57846 0.82708 0.73286 0.0
C443 C 0.56708 0.8183 0.80283 0.0
C444 C 0.5677 0.78904 0.69023 0.0
C445 C 0.55657 0.79469 0.81475 0.0
C446 C 0.56625 0.75258 0.65318 0.0
C447 C 0.56885 0.76435 0.49921 0.0
N448 N 0.55724 0.78089 0.75922 0.0
N449 N 0.56882 0.77838 0.55528 0.0
H450 H 0.7952 0.5582 0.77665 0.0
H451 H 0.77235 0.5629 0.22526 0.0
H452 H 0.8465 0.57359 0.94958 0.0
H453 H 0.73256 0.5714 0.04848 0.0
H454 H 0.79783 0.56263 0.1256 0.0
H455 H 0.77005 0.55901 0.87628 0.0
C456 C 0.80121 0.56181 0.83545 0.0
C457 C 0.82306 0.56597 0.8546 0.0
C458 C 0.78354 0.56461 0.10881 0.0
C459 C 0.79425 0.56659 0.96905 0.0
C460 C 0.76895 0.56467 0.16561 0.0
C461 C 0.75035 0.56729 0.14533 0.0
C462 C 0.77928 0.56679 0.03108 0.0
C463 C 0.74679 0.56955 0.06698 0.0
C464 C 0.78686 0.56231 0.89225 0.0
C465 C 0.82991 0.57052 0.93189 0.0
N466 N 0.76103 0.56913 0.01282 0.0
N467 N 0.81553 0.57056 0.98628 0.0
H468 H 0.15988 0.73889 0.37937 0.0
H469 H 0.28079 0.84646 0.28837 0.0
H470 H 0.21502 0.7648 0.54285 0.0
H471 H 0.23745 0.80148 0.11002 0.0
H472 H 0.25491 0.82002 0.38514 0.0
H473 H 0.18597 0.76513 0.28283 0.0
C474 C 0.17745 0.75012 0.39512 0.0
C475 C 0.18526 0.74945 0.46931 0.0
C476 C 0.2511 0.81592 0.32485 0.0
C477 C 0.21519 0.77986 0.35912 0.0
C478 C 0.26579 0.83104 0.2695 0.0
C479 C 0.26124 0.82618 0.19086 0.0
C480 C 0.23144 0.79598 0.3016 0.0
C481 C 0.24164 0.80584 0.16994 0.0
C482 C 0.19235 0.76506 0.33983 0.0
C483 C 0.20824 0.76462 0.4864 0.0
N484 N 0.22735 0.79157 0.22499 0.0
N485 N 0.22237 0.77928 0.43186 0.0
H486 H 0.47391 0.26758 0.49856 0.0
H487 H 0.40457 0.16483 0.78397 0.0
H488 H 0.40529 0.24839 0.56444 0.0
H489 H 0.47571 0.21266 0.82237 0.0
H490 H 0.40382 0.19026 0.68482 0.0
H491 H 0.47427 0.2421 0.59832 0.0
C492 C 0.45884 0.2578 0.53338 0.0
C493 C 0.43952 0.26003 0.52321 0.0
C494 C 0.41953 0.19517 0.7153 0.0
C495 C 0.43978 0.23082 0.63637 0.0
C496 C 0.42 0.18071 0.77165 0.0
C497 C 0.4402 0.18677 0.8118 0.0
C498 C 0.43956 0.21547 0.69738 0.0
C499 C 0.45973 0.20749 0.79337 0.0
C500 C 0.45914 0.24345 0.59053 0.0
C501 C 0.42054 0.24717 0.57052 0.0
N502 N 0.45901 0.22099 0.73683 0.0
N503 N 0.42106 0.23294 0.62464 0.0
H504 H 0.48953 0.59517 0.3418 0.0
H505 H 0.36012 0.53696 0.38061 0.0
H506 H 0.4639 0.6412 0.38326 0.0
H507 H 0.38997 0.52546 0.17907 0.0
H508 H 0.39613 0.57268 0.40413 0.0
H509 H 0.45145 0.56564 0.30703 0.0
C510 C 0.47603 0.59929 0.34289 0.0
C511 C 0.48031 0.62118 0.36309 0.0
C512 C 0.39447 0.56257 0.35378 0.0
C513 C 0.4362 0.58666 0.32652 0.0
C514 C 0.37405 0.54229 0.34033 0.0
C515 C 0.37215 0.52837 0.27766 0.0
C516 C 0.41315 0.56838 0.30561 0.0
C517 C 0.39069 0.53582 0.22754 0.0
C518 C 0.45424 0.58227 0.32338 0.0
C519 C 0.46155 0.62472 0.36761 0.0
N520 N 0.41062 0.55505 0.24362 0.0
N521 N 0.44019 0.60755 0.34968 0.0
H522 H 0.82317 0.46429 0.59326 0.0
H523 H 0.83844 0.36383 0.76294 0.0
H524 H 0.83673 0.45865 0.8318 0.0
H525 H 0.83162 0.37346 0.52147 0.0
H526 H 0.82852 0.39301 0.79295 0.0
H527 H 0.81646 0.42582 0.57092 0.0
C528 C 0.82415 0.45467 0.64138 0.0
C529 C 0.8308 0.46474 0.71428 0.0
C530 C 0.82881 0.3885 0.73344 0.0
C531 C 0.82357 0.42087 0.68891 0.0
C532 C 0.8345 0.37186 0.71623 0.0
C533 C 0.83627 0.36649 0.63948 0.0
C534 C 0.82495 0.40001 0.67348 0.0
C535 C 0.83054 0.37709 0.58139 0.0
C536 C 0.82042 0.43275 0.62854 0.0
C537 C 0.83166 0.45152 0.77474 0.0
N538 N 0.82551 0.39362 0.59954 0.0
N539 N 0.82853 0.43041 0.7604 0.0
H540 H 0.47292 0.85549 0.82897 0.0
H541 H 0.35819 0.81877 0.05159 0.0
H542 H 0.46085 0.81625 0.0363 0.0
H543 H 0.40731 0.88873 0.99693 0.0
H544 H 0.38682 0.80807 0.01614 0.0
H545 H 0.43783 0.85653 0.8528 0.0
C546 C 0.46241 0.84631 0.87779 0.0
C547 C 0.46977 0.83582 0.9309 0.0
C548 C 0.39097 0.82567 0.01145 0.0
C549 C 0.42985 0.83705 0.95838 0.0
C550 C 0.37479 0.83188 0.03223 0.0
C551 C 0.37995 0.85468 0.02574 0.0
C552 C 0.4121 0.84227 0.98228 0.0
C553 C 0.40189 0.8708 -5e-05 0.0
C554 C 0.44257 0.84711 0.89169 0.0
C555 C 0.4557 0.82455 0.99421 0.0
N556 N 0.41693 0.86424 0.97831 0.0
N557 N 0.43644 0.82564 0.00679 0.0
H558 H 0.62803 0.46368 0.18534 0.0
H559 H 0.5395 0.38233 0.50118 0.0
H560 H 0.63596 0.47716 0.4289 0.0
H561 H 0.53087 0.36928 0.25738 0.0
H562 H 0.57841 0.41313 0.47767 0.0
H563 H 0.59633 0.4254 0.21206 0.0
C564 C 0.62345 0.4584 0.24448 0.0
C565 C 0.63441 0.47374 0.30492 0.0
C566 C 0.56813 0.40331 0.42936 0.0
C567 C 0.59791 0.43014 0.33599 0.0
C568 C 0.54595 0.3856 0.44288 0.0
C569 C 0.53178 0.37344 0.38106 0.0
C570 C 0.57618 0.40896 0.35347 0.0
C571 C 0.54105 0.37856 0.30661 0.0
C572 C 0.60523 0.4366 0.25977 0.0
C573 C 0.62766 0.46601 0.3805 0.0
N574 N 0.56252 0.3961 0.29481 0.0
N575 N 0.60968 0.44491 0.39383 0.0
H576 H 0.16803 0.54338 0.81426 0.0
H577 H 0.17032 0.62859 0.49941 0.0
H578 H 0.17116 0.53332 0.57073 0.0
H579 H 0.18024 0.64476 0.74116 0.0
H580 H 0.17618 0.59638 0.52302 0.0
H581 H 0.17779 0.58273 0.789 0.0
C582 C 0.17127 0.54957 0.75564 0.0
C583 C 0.16835 0.53487 0.69444 0.0
C584 C 0.1775 0.60721 0.57078 0.0
C585 C 0.17909 0.57979 0.66486 0.0
C586 C 0.17435 0.62577 0.55714 0.0
C587 C 0.17437 0.63919 0.61857 0.0
C588 C 0.18048 0.60188 0.64649 0.0
C589 C 0.17951 0.63452 0.69231 0.0
C590 C 0.17672 0.57203 0.74113 0.0
C591 C 0.17266 0.54387 0.61957 0.0
N592 N 0.18192 0.61603 0.70443 0.0
N593 N 0.17743 0.56558 0.60681 0.0
H594 H 0.63463 0.16004 0.90769 0.0
H595 H 0.53323 0.17431 0.07696 0.0
H596 H 0.62579 0.16795 0.14892 0.0
H597 H 0.53805 0.15856 0.83996 0.0
H598 H 0.5715 0.18053 0.09957 0.0
H599 H 0.60415 0.16811 0.87797 0.0
C600 C 0.6265 0.16387 0.95436 0.0
C601 C 0.63251 0.16298 0.03101 0.0
C602 C 0.56436 0.17607 0.04232 0.0
C603 C 0.59743 0.17206 0.99742 0.0
C604 C 0.5425 0.17249 0.02934 0.0
C605 C 0.53226 0.16552 0.95672 0.0
C606 C 0.57611 0.17259 0.98232 0.0
C607 C 0.54522 0.16387 0.89684 0.0
C608 C 0.60909 0.16845 0.93735 0.0
C609 C 0.62168 0.16842 0.0891 0.0
N610 N 0.56634 0.16703 0.91126 0.0
N611 N 0.60441 0.17237 0.07119 0.0
H612 H 0.31303 0.36467 0.17843 0.0
H613 H 0.36369 0.31479 0.48716 0.0
H614 H 0.32752 0.38984 0.41087 0.0
H615 H 0.39189 0.33394 0.25941 0.0
H616 H 0.33774 0.32945 0.45791 0.0
H617 H 0.32953 0.34024 0.20689 0.0
C618 C 0.31909 0.36453 0.23592 0.0
C619 C 0.31901 0.37918 0.29254 0.0
C620 C 0.34931 0.32994 0.41404 0.0
C621 C 0.33734 0.3513 0.32548 0.0
C622 C 0.36395 0.32152 0.43047 0.0
C623 C 0.37987 0.32329 0.37554 0.0
C624 C 0.35025 0.33951 0.34159 0.0
C625 C 0.37986 0.33241 0.30323 0.0
C626 C 0.32857 0.35077 0.25191 0.0
C627 C 0.32736 0.37875 0.36584 0.0
N628 N 0.36524 0.34017 0.28818 0.0
N629 N 0.33619 0.365 0.38037 0.0
H630 H 0.06481 0.39786 0.57279 0.0
H631 H 0.94206 0.33198 0.72677 0.0
H632 H 0.05305 0.36699 0.79696 0.0
H633 H 0.95466 0.32204 0.49125 0.0
H634 H 0.98248 0.34681 0.75587 0.0
H635 H 0.0246 0.37239 0.54089 0.0
C636 C 0.05375 0.38544 0.61479 0.0
C637 C 0.06208 0.3844 0.68748 0.0
C638 C 0.97632 0.34097 0.6982 0.0
C639 C 0.01618 0.35582 0.65233 0.0
C640 C 0.95337 0.33263 0.68156 0.0
C641 C 0.94522 0.32581 0.60666 0.0
C642 C 0.99131 0.34328 0.63882 0.0
C643 C 0.9604 0.32701 0.5498 0.0
C644 C 0.03092 0.3709 0.59649 0.0
C645 C 0.04719 0.36813 0.74014 0.0
N646 N 0.98292 0.33611 0.56663 0.0
N647 N 0.02475 0.35477 0.72218 0.0
H648 H 0.64379 0.04563 0.15321 0.0
H649 H 0.64326 0.94692 0.89873 0.0
H650 H 0.69962 0.05853 0.00386 0.0
H651 H 0.58939 0.93885 0.0504 0.0
H652 H 0.66664 0.98653 0.94424 0.0
H653 H 0.62639 0.00507 0.12665 0.0
C654 C 0.65254 0.03972 0.1157 0.0
C655 C 0.67312 0.05521 0.08099 0.0
C656 C 0.64976 0.97595 0.96776 0.0
C657 C 0.65297 0.00882 0.04759 0.0
C658 C 0.63645 0.9534 0.94185 0.0
C659 C 0.61424 0.93972 0.96997 0.0
C660 C 0.64074 0.9846 0.02248 0.0
C661 C 0.60625 0.94887 0.026 0.0
C662 C 0.64258 0.01658 0.10005 0.0
C663 C 0.68379 0.0469 0.03226 0.0
N664 N 0.61941 0.97064 0.04999 0.0
N665 N 0.67342 0.02418 0.01602 0.0
H666 H 0.64348 0.68862 0.49703 0.0
H667 H 0.69803 0.64361 0.18319 0.0
H668 H 0.62729 0.6842 0.25605 0.0
H669 H 0.67637 0.6136 0.4077 0.0
H670 H 0.68531 0.67097 0.215 0.0
H671 H 0.66931 0.6738 0.46911 0.0
C672 C 0.64606 0.68533 0.43803 0.0
C673 C 0.63343 0.68759 0.37856 0.0
C674 C 0.68386 0.65868 0.25767 0.0
C675 C 0.66265 0.67084 0.34643 0.0
C676 C 0.69114 0.6432 0.23972 0.0
C677 C 0.68798 0.62633 0.2928 0.0
C678 C 0.67399 0.65752 0.32976 0.0
C679 C 0.67883 0.62628 0.36508 0.0
C680 C 0.66058 0.67674 0.42224 0.0
C681 C 0.63687 0.68266 0.3032 0.0
N682 N 0.6721 0.64161 0.38149 0.0
N683 N 0.6511 0.67439 0.28917 0.0
H684 H 0.05535 0.63473 0.58535 0.0
H685 H 0.9496 0.64086 0.75149 0.0
H686 H 0.06011 0.70011 0.61556 0.0
H687 H 0.94524 0.58361 0.62781 0.0
H688 H 0.98999 0.66368 0.71237 0.0
H689 H 0.01495 0.61612 0.61257 0.0
C690 C 0.04779 0.6452 0.59755 0.0
C691 C 0.06106 0.66897 0.59823 0.0
C692 C 0.97998 0.64617 0.69348 0.0
C693 C 0.01449 0.64766 0.63041 0.0
C694 C 0.95703 0.63317 0.71587 0.0
C695 C 0.94413 0.61019 0.69391 0.0
C696 C 0.98987 0.63594 0.64954 0.0
C697 C 0.95452 0.60109 0.64735 0.0
C698 C 0.02465 0.63456 0.61285 0.0
C699 C 0.05034 0.6817 0.61403 0.0
N700 N 0.97668 0.61389 0.62744 0.0
N701 N 0.02759 0.67085 0.63047 0.0
H702 H 0.39562 0.06706 0.08567 0.0
H703 H 0.32341 0.9452 0.9302 0.0
H704 H 0.36205 0.05695 0.86703 0.0
H705 H 0.32081 0.95812 0.17123 0.0
H706 H 0.33771 0.98564 0.90321 0.0
H707 H 0.36915 0.02722 0.11849 0.0
C708 C 0.38241 0.05646 0.0451 0.0
C709 C 0.38094 0.06513 0.97358 0.0
C710 C 0.33345 0.97954 0.96175 0.0
C711 C 0.35108 0.01956 0.0098 0.0
C712 C 0.32532 0.95654 0.9771 0.0
C713 C 0.32083 0.9485 0.05285 0.0
C714 C 0.33793 0.99466 0.023 0.0
C715 C 0.32386 0.96376 0.112 0.0
C716 C 0.36727 0.03381 0.06397 0.0
C717 C 0.36359 0.05081 0.92288 0.0
N718 N 0.33276 0.9863 0.09606 0.0
N719 N 0.34961 0.02849 0.94122 0.0
H720 H 0.25995 0.41921 0.58548 0.0
H721 H 0.34657 0.42105 0.90079 0.0
H722 H 0.31312 0.40384 0.534 0.0
H723 H 0.28647 0.42484 0.95525 0.0
H724 H 0.33516 0.41542 0.7652 0.0
H725 H 0.26922 0.42097 0.72175 0.0
C726 C 0.27338 0.41594 0.6028 0.0
C727 C 0.28595 0.41168 0.54799 0.0
C728 C 0.32442 0.41735 0.80703 0.0
C729 C 0.29696 0.41407 0.70371 0.0
C730 C 0.33102 0.42071 0.88414 0.0
C731 C 0.31739 0.42326 0.93924 0.0
C732 C 0.30418 0.41679 0.78508 0.0
C733 C 0.29729 0.42254 0.9149 0.0
C734 C 0.27879 0.4171 0.6806 0.0
C735 C 0.30334 0.40776 0.57388 0.0
N736 N 0.29135 0.41946 0.83965 0.0
N737 N 0.30845 0.40923 0.64979 0.0
H738 H 0.8722 0.28833 0.27936 0.0
H739 H 0.9124 0.32872 0.84926 0.0
H740 H 0.92165 0.35749 0.21866 0.0
H741 H 0.8563 0.26251 0.90831 0.0
H742 H 0.91878 0.33835 0.98517 0.0
H743 H 0.86898 0.27759 0.14518 0.0
C744 C 0.88256 0.30129 0.23804 0.0
C745 C 0.89726 0.32392 0.26067 0.0
C746 C 0.9051 0.3217 0.96853 0.0
C747 C 0.89343 0.31163 0.1059 0.0
C748 C 0.90134 0.31621 0.89089 0.0
C749 C 0.88346 0.29491 0.8675 0.0
C750 C 0.89092 0.30576 0.02333 0.0
C751 C 0.87022 0.27911 0.92403 0.0
C752 C 0.88059 0.29511 0.16108 0.0
C753 C 0.90995 0.33993 0.20379 0.0
N754 N 0.87411 0.28492 -0.00051 0.0
N755 N 0.90773 0.33348 0.12889 0.0
H756 H 0.59307 0.91016 0.19446 0.0
H757 H 0.57634 0.86182 0.62184 0.0
H758 H 0.58576 0.84491 0.25189 0.0
H759 H 0.57414 0.92247 0.56349 0.0
H760 H 0.58355 0.85738 0.48797 0.0
H761 H 0.59019 0.91705 0.33039 0.0
C762 C 0.59085 0.89726 0.23567 0.0
C763 C 0.58924 0.87671 0.21171 0.0
C764 C 0.58161 0.87175 0.50419 0.0
C765 C 0.58619 0.88464 0.36747 0.0
C766 C 0.57768 0.87439 0.58082 0.0
C767 C 0.57496 0.89272 0.60386 0.0
C768 C 0.5828 0.88754 0.44976 0.0
C769 C 0.5761 0.90809 0.54786 0.0
C770 C 0.58929 0.90126 0.31331 0.0
C771 C 0.5871 0.86095 0.26787 0.0
N772 N 0.57999 0.90519 0.47315 0.0
N773 N 0.58546 0.86518 0.34317 0.0
H774 H 0.71326 0.60929 0.95158 0.0
H775 H 0.6859 0.54885 0.53988 0.0
H776 H 0.65441 0.54383 0.90394 0.0
H777 H 0.74123 0.61711 0.57933 0.0
H778 H 0.67526 0.54621 0.67478 0.0
H779 H 0.7246 0.61219 0.81692 0.0
C780 C 0.7027 0.59554 0.91278 0.0
C781 C 0.68287 0.57625 0.93923 0.0
C782 C 0.68976 0.56178 0.65411 0.0
C783 C 0.69577 0.57946 0.78492 0.0
C784 C 0.69583 0.56331 0.57698 0.0
C785 C 0.71436 0.58332 0.54799 0.0
C786 C 0.70232 0.58037 0.7031 0.0
C787 C 0.72691 0.60132 0.59921 0.0
C788 C 0.70916 0.59723 0.83586 0.0
C789 C 0.66967 0.5591 0.88608 0.0
N790 N 0.72059 0.59946 0.67426 0.0
N791 N 0.67642 0.56107 0.81161 0.0
H792 H 0.08455 0.64683 0.22325 0.0
H793 H 0.15393 0.74201 0.90609 0.0
H794 H 0.14011 0.71399 0.27475 0.0
H795 H 0.09285 0.67855 0.85556 0.0
H796 H 0.14837 0.73238 0.04238 0.0
H797 H 0.08712 0.65786 0.08773 0.0
C798 C 0.09727 0.66385 0.20599 0.0
C799 C 0.11203 0.67957 0.26027 0.0
C800 C 0.1361 0.72061 0.00147 0.0
C801 C 0.11505 0.69235 0.10626 0.0
C802 C 0.1392 0.7262 0.92364 0.0
C803 C 0.12404 0.71095 0.86908 0.0
C804 C 0.11776 0.69957 0.02491 0.0
C805 C 0.10532 0.69057 0.89527 0.0
C806 C 0.09864 0.67021 0.12895 0.0
C807 C 0.12812 0.70149 0.23517 0.0
N808 N 0.10281 0.68538 0.97125 0.0
N809 N 0.12925 0.7072 0.16006 0.0
H810 H 0.45566 0.10506 0.57736 0.0
H811 H 0.39299 0.13861 0.25592 0.0
H812 H 0.39723 0.11249 0.62527 0.0
H813 H 0.44915 0.12728 0.21168 0.0
H814 H 0.39438 0.12991 0.39221 0.0
H815 H 0.45298 0.1128 0.44242 0.0
C816 C 0.44209 0.10805 0.5595 0.0
C817 C 0.42673 0.10822 0.61303 0.0
C818 C 0.40636 0.12932 0.35248 0.0
C819 C 0.42379 0.11757 0.45836 0.0
C820 C 0.40566 0.13443 0.27501 0.0
C821 C 0.42082 0.13343 0.22252 0.0
C822 C 0.42244 0.12333 0.37721 0.0
C823 C 0.43685 0.12781 0.24996 0.0
C824 C 0.44068 0.11268 0.48238 0.0
C825 C 0.40969 0.11257 0.58634 0.0
N826 N 0.43721 0.12295 0.32523 0.0
N827 N 0.40873 0.11716 0.51091 0.0
H828 H 0.55305 0.68218 0.12428 0.0
H829 H 0.61363 0.71113 0.71274 0.0
H830 H 0.62076 0.73856 0.08554 0.0
H831 H 0.54969 0.65046 0.7611 0.0
H832 H 0.61599 0.72257 0.84713 0.0
H833 H 0.55071 0.67175 0.98923 0.0
C834 C 0.56745 0.69239 0.0873 0.0
C835 C 0.58724 0.71113 0.11657 0.0
C836 C 0.60148 0.70671 0.82842 0.0
C837 C 0.58463 0.69934 0.96128 0.0
C838 C 0.6001 0.70019 0.75166 0.0
C839 C 0.5814 0.67981 0.72551 0.0
C840 C 0.58398 0.69282 0.87952 0.0
C841 C 0.56451 0.66616 0.77878 0.0
C842 C 0.56609 0.68643 0.01009 0.0
C843 C 0.60515 0.72405 0.06546 0.0
N844 N 0.56616 0.67297 0.8531 0.0
N845 N 0.60347 0.71784 0.99033 0.0
H846 H 0.89106 0.5344 0.09208 0.0
H847 H 0.88008 0.61206 0.41734 0.0
H848 H 0.90003 0.60097 0.04633 0.0
H849 H 0.86911 0.54444 0.45572 0.0
H850 H 0.88724 0.60866 0.28107 0.0
H851 H 0.88401 0.53855 0.22661 0.0
C852 C 0.89182 0.55001 0.11035 0.0
C853 C 0.89612 0.56734 0.05752 0.0
C854 C 0.88323 0.59457 0.31943 0.0
C855 C 0.88761 0.57206 0.21185 0.0
C856 C 0.87899 0.59646 0.397 0.0
C857 C 0.87422 0.57859 0.44804 0.0
C858 C 0.88262 0.57467 0.29299 0.0
C859 C 0.87317 0.5588 0.41874 0.0
C860 C 0.88756 0.5523 0.18724 0.0
C861 C 0.89648 0.58705 0.08472 0.0
N862 N 0.87741 0.55741 0.34341 0.0
N863 N 0.89224 0.58886 0.15996 0.0
H864 H 0.35698 0.90052 0.43379 0.0
H865 H 0.26648 0.8842 0.75957 0.0
H866 H 0.29608 0.90368 0.38789 0.0
H867 H 0.32418 0.87481 0.79691 0.0
H868 H 0.27682 0.89154 0.6234 0.0
H869 H 0.34576 0.8925 0.56845 0.0
C870 C 0.34138 0.89977 0.45211 0.0
C871 C 0.32746 0.90276 0.39928 0.0
C872 C 0.28717 0.88781 0.66147 0.0
C873 C 0.31427 0.89321 0.55349 0.0
C874 C 0.28117 0.88345 0.73908 0.0
C875 C 0.29461 0.8791 0.78996 0.0
C876 C 0.30674 0.88782 0.63467 0.0
C877 C 0.31359 0.87855 0.76021 0.0
C878 C 0.33484 0.89497 0.52897 0.0
C879 C 0.3072 0.90122 0.42634 0.0
N880 N 0.31913 0.88296 0.6848 0.0
N881 N 0.30121 0.89654 0.5015 0.0
H882 H 0.39535 0.29336 0.71718 0.0
H883 H 0.45403 0.32659 0.13115 0.0
H884 H 0.45785 0.35558 0.76615 0.0
H885 H 0.39038 0.26503 0.08848 0.0
H886 H 0.45588 0.33685 0.99631 0.0
H887 H 0.39307 0.28233 0.85195 0.0
C888 C 0.40858 0.30472 0.75629 0.0
C889 C 0.42689 0.3254 0.73023 0.0
C890 C 0.44149 0.32107 0.01613 0.0
C891 C 0.42435 0.3129 0.88449 0.0
C892 C 0.44041 0.31523 0.09318 0.0
C893 C 0.42189 0.29506 0.1211 0.0
C894 C 0.42391 0.30664 0.96622 0.0
C895 C 0.40498 0.28069 0.06913 0.0
C896 C 0.40723 0.29843 0.83323 0.0
C897 C 0.44333 0.33963 0.7837 0.0
N898 N 0.40632 0.28683 0.99405 0.0
N899 N 0.44172 0.33305 0.85818 0.0
H900 H 0.13117 0.39186 0.40452 0.0
H901 H 0.1075 0.46154 0.08078 0.0
H902 H 0.13066 0.45436 0.44547 0.0
H903 H 0.1084 0.39945 0.03424 0.0
H904 H 0.11505 0.4584 0.21569 0.0
H905 H 0.12314 0.39413 0.26832 0.0
C906 C 0.12955 0.40612 0.38474 0.0
C907 C 0.13136 0.42283 0.43639 0.0
C908 C 0.11355 0.44541 0.17604 0.0
C909 C 0.12196 0.42544 0.28156 0.0
C910 C 0.10902 0.4471 0.09898 0.0
C911 C 0.10739 0.43079 0.04588 0.0
C912 C 0.11647 0.42727 0.20042 0.0
C913 C 0.10987 0.41261 0.07289 0.0
C914 C 0.1248 0.40734 0.30725 0.0
C915 C 0.12895 0.44088 0.40792 0.0
N916 N 0.11435 0.41137 0.14825 0.0
N917 N 0.12432 0.44166 0.33262 0.0
H918 H 0.70398 0.09982 0.39754 0.0
H919 H 0.68176 0.13629 0.81081 0.0
H920 H 0.64907 0.11267 0.44741 0.0
H921 H 0.73201 0.11618 0.7703 0.0
H922 H 0.67119 0.12983 0.67562 0.0
H923 H 0.71572 0.10722 0.53207 0.0
C924 C 0.69438 0.10417 0.43685 0.0
C925 C 0.67555 0.10571 0.41119 0.0
C926 C 0.68456 0.12685 0.69609 0.0
C927 C 0.68888 0.11418 0.56512 0.0
C928 C 0.69058 0.13051 0.77332 0.0
C929 C 0.7076 0.12649 0.802 0.0
C930 C 0.69566 0.11915 0.6468 0.0
C931 C 0.71886 0.11955 0.7505 0.0
C932 C 0.70105 0.10834 0.51364 0.0
C933 C 0.66352 0.11106 0.46481 0.0
N934 N 0.71259 0.11596 0.6753 0.0
N935 N 0.67046 0.11522 0.53916 0.0
loop_
_geom_bond_atom_site_label_1
_geom_bond_atom_site_label_2
_geom_bond_distance
_geom_bond_site_symmetry_2
_ccdc_geom_bond_type
Co0 N4 2.148 . S
Co0 N10 2.128 . S
Co0 N20 2.194 . S
Co0 O25 2.351 . S
Co0 O26 2.155 . S
Co0 O27 2.096 . S
C1 N4 1.301 . S
C1 N5 1.328 . S
C1 H6 0.930 . S
C2 C3 1.333 . S
C2 N4 1.317 . S
C2 H7 0.930 . S
C3 C2 1.333 . S
C3 N5 1.350 . S
C3 H29 0.931 . S
N4 Co0 2.148 . S
N4 C1 1.301 . S
N4 C2 1.317 . S
N5 C1 1.328 . S
N5 C3 1.350 . S
H6 C1 0.930 . S
H7 C2 0.930 . S
C8 O9 1.224 . S
C8 O27 1.247 . S
O9 C8 1.224 . S
N10 Co0 2.128 . S
N10 C11 1.355 . S
N10 C13 1.311 . S
C11 N10 1.355 . S
C11 C12 1.363 . S
C11 H23 0.929 . S
C12 C11 1.363 . S
C12 N14 1.375 . S
C12 H30 0.931 . S
C13 N10 1.311 . S
C13 N14 1.347 . S
C13 H24 0.929 . S
N14 C12 1.375 . S
N14 C13 1.347 . S
C15 C18 1.365 . S
C15 N20 1.328 . S
C15 H21 0.929 . S
C16 C17 1.362 . S
C16 C19 1.378 . S
C16 H31 0.929 . S
C17 C16 1.362 . S
C17 C18 1.366 . S
C18 C15 1.365 . S
C18 C17 1.366 . S
C18 H32 0.930 . S
C19 C16 1.378 . S
C19 N20 1.315 . S
C19 H22 0.930 . S
N20 Co0 2.194 . S
N20 C15 1.328 . S
N20 C19 1.315 . S
H21 C15 0.929 . S
H22 C19 0.930 . S
H23 C11 0.929 . S
H24 C13 0.929 . S
O25 Co0 2.351 . S
O25 C28 1.244 . S
O26 Co0 2.155 . S
O26 C28 1.240 . S
O27 Co0 2.096 . S
O27 C8 1.247 . S
C28 O25 1.244 . S
C28 O26 1.240 . S
H29 C3 0.931 . S
H30 C12 0.931 . S
H31 C16 0.929 . S
H32 C18 0.930 . S
Co33 N37 2.148 . S
Co33 N43 2.128 . S
Co33 N53 2.194 . S
Co33 O58 2.351 . S
Co33 O59 2.155 . S
Co33 O60 2.096 . S
C34 N37 1.301 . S
C34 N38 1.328 . S
C34 H39 0.930 . S
C35 C36 1.333 . S
C35 N37 1.317 . S
C35 H40 0.930 . S
C36 C35 1.333 . S
C36 N38 1.350 . S
C36 H62 0.931 . S
N37 Co33 2.148 . S
N37 C34 1.301 . S
N37 C35 1.317 . S
N38 C34 1.328 . S
N38 C36 1.350 . S
H39 C34 0.930 . S
H40 C35 0.930 . S
C41 O42 1.224 . S
C41 O60 1.247 . S
O42 C41 1.224 . S
N43 Co33 2.128 . S
N43 C44 1.355 . S
N43 C46 1.311 . S
C44 N43 1.355 . S
C44 C45 1.363 . S
C44 H56 0.929 . S
C45 C44 1.363 . S
C45 N47 1.375 . S
C45 H63 0.931 . S
C46 N43 1.311 . S
C46 N47 1.347 . S
C46 H57 0.929 . S
N47 C45 1.375 . S
N47 C46 1.347 . S
C48 C51 1.365 . S
C48 N53 1.328 . S
C48 H54 0.929 . S
C49 C50 1.362 . S
C49 C52 1.378 . S
C49 H64 0.929 . S
C50 C49 1.362 . S
C50 C51 1.366 . S
C51 C48 1.365 . S
C51 C50 1.366 . S
C51 H65 0.930 . S
C52 C49 1.378 . S
C52 N53 1.315 . S
C52 H55 0.930 . S
N53 Co33 2.194 . S
N53 C48 1.328 . S
N53 C52 1.315 . S
H54 C48 0.929 . S
H55 C52 0.930 . S
H56 C44 0.929 . S
H57 C46 0.929 . S
O58 Co33 2.351 . S
O58 C61 1.244 . S
O59 Co33 2.155 . S
O59 C61 1.240 . S
O60 Co33 2.096 . S
O60 C41 1.247 . S
C61 O58 1.244 . S
C61 O59 1.240 . S
H62 C36 0.931 . S
H63 C45 0.931 . S
H64 C49 0.929 . S
H65 C51 0.930 . S
Co66 N70 2.148 1_556 S
Co66 N76 2.128 . S
Co66 N86 2.194 . S
Co66 O91 2.351 . S
Co66 O92 2.155 . S
Co66 O93 2.096 . S
C67 N70 1.301 . S
C67 N71 1.328 . S
C67 H72 0.930 . S
C68 C69 1.333 . S
C68 N70 1.317 . S
C68 H73 0.930 . S
C69 C68 1.333 . S
C69 N71 1.350 . S
C69 H95 0.931 . S
N70 Co66 2.148 1_554 S
N70 C67 1.301 . S
N70 C68 1.317 . S
N71 C67 1.328 . S
N71 C69 1.350 . S
H72 C67 0.930 . S
H73 C68 0.930 . S
C74 O75 1.224 . S
C74 O93 1.247 . S
O75 C74 1.224 . S
N76 Co66 2.128 . S
N76 C77 1.355 . S
N76 C79 1.311 . S
C77 N76 1.355 . S
C77 C78 1.363 . S
C77 H89 0.929 . S
C78 C77 1.363 . S
C78 N80 1.375 . S
C78 H96 0.931 . S
C79 N76 1.311 . S
C79 N80 1.347 . S
C79 H90 0.929 . S
N80 C78 1.375 . S
N80 C79 1.347 . S
C81 C84 1.365 . S
C81 N86 1.328 . S
C81 H87 0.929 . S
C82 C83 1.362 . S
C82 C85 1.378 . S
C82 H97 0.929 . S
C83 C82 1.362 . S
C83 C84 1.366 . S
C84 C81 1.365 . S
C84 C83 1.366 . S
C84 H98 0.930 . S
C85 C82 1.378 . S
C85 N86 1.315 . S
C85 H88 0.930 . S
N86 Co66 2.194 . S
N86 C81 1.328 . S
N86 C85 1.315 . S
H87 C81 0.929 . S
H88 C85 0.930 . S
H89 C77 0.929 . S
H90 C79 0.929 . S
O91 Co66 2.351 . S
O91 C94 1.244 . S
O92 Co66 2.155 . S
O92 C94 1.240 . S
O93 Co66 2.096 . S
O93 C74 1.247 . S
C94 O91 1.244 . S
C94 O92 1.240 . S
H95 C69 0.931 . S
H96 C78 0.931 . S
H97 C82 0.929 . S
H98 C84 0.930 . S
Co99 N103 2.148 . S
Co99 N109 2.128 . S
Co99 N119 2.194 . S
Co99 O124 2.351 . S
Co99 O125 2.155 . S
Co99 O126 2.096 . S
C100 N103 1.301 . S
C100 N104 1.328 . S
C100 H105 0.930 . S
C101 C102 1.333 . S
C101 N103 1.317 . S
C101 H106 0.930 . S
C102 C101 1.333 . S
C102 N104 1.350 . S
C102 H128 0.931 . S
N103 Co99 2.148 . S
N103 C100 1.301 . S
N103 C101 1.317 . S
N104 C100 1.328 . S
N104 C102 1.350 . S
H105 C100 0.930 . S
H106 C101 0.930 . S
C107 O108 1.224 . S
C107 O126 1.247 . S
O108 C107 1.224 . S
N109 Co99 2.128 . S
N109 C110 1.355 . S
N109 C112 1.311 . S
C110 N109 1.355 . S
C110 C111 1.363 . S
C110 H122 0.929 . S
C111 C110 1.363 . S
C111 N113 1.375 . S
C111 H129 0.931 . S
C112 N109 1.311 . S
C112 N113 1.347 . S
C112 H123 0.929 . S
N113 C111 1.375 . S
N113 C112 1.347 . S
C114 C117 1.365 . S
C114 N119 1.328 . S
C114 H120 0.929 . S
C115 C116 1.362 . S
C115 C118 1.378 . S
C115 H130 0.929 . S
C116 C115 1.362 . S
C116 C117 1.366 . S
C117 C114 1.365 . S
C117 C116 1.366 . S
C117 H131 0.930 . S
C118 C115 1.378 . S
C118 N119 1.315 . S
C118 H121 0.930 . S
N119 Co99 2.194 . S
N119 C114 1.328 . S
N119 C118 1.315 . S
H120 C114 0.929 . S
H121 C118 0.930 . S
H122 C110 0.929 . S
H123 C112 0.929 . S
O124 Co99 2.351 . S
O124 C127 1.244 . S
O125 Co99 2.155 . S
O125 C127 1.240 . S
O126 Co99 2.096 . S
O126 C107 1.247 . S
C127 O124 1.244 . S
C127 O125 1.240 . S
H128 C102 0.931 . S
H129 C111 0.931 . S
H130 C115 0.929 . S
H131 C117 0.930 . S
Co132 N136 2.148 . S
Co132 N142 2.128 . S
Co132 N152 2.194 . S
Co132 O157 2.351 . S
Co132 O158 2.155 . S
Co132 O159 2.096 . S
C133 N136 1.301 . S
C133 N137 1.328 . S
C133 H138 0.930 . S
C134 C135 1.333 . S
C134 N136 1.317 . S
C134 H139 0.930 . S
C135 C134 1.333 . S
C135 N137 1.350 . S
C135 H161 0.931 . S
N136 Co132 2.148 . S
N136 C133 1.301 . S
N136 C134 1.317 . S
N137 C133 1.328 . S
N137 C135 1.350 . S
H138 C133 0.930 . S
H139 C134 0.930 . S
C140 O141 1.224 . S
C140 O159 1.247 . S
O141 C140 1.224 . S
N142 Co132 2.128 . S
N142 C143 1.355 . S
N142 C145 1.311 . S
C143 N142 1.355 . S
C143 C144 1.363 . S
C143 H155 0.929 . S
C144 C143 1.363 . S
C144 N146 1.375 . S
C144 H162 0.931 . S
C145 N142 1.311 . S
C145 N146 1.347 . S
C145 H156 0.929 . S
N146 C144 1.375 . S
N146 C145 1.347 . S
C147 C150 1.365 . S
C147 N152 1.328 . S
C147 H153 0.929 . S
C148 C149 1.362 . S
C148 C151 1.378 . S
C148 H163 0.929 . S
C149 C148 1.362 . S
C149 C150 1.366 . S
C150 C147 1.365 . S
C150 C149 1.366 . S
C150 H164 0.930 . S
C151 C148 1.378 . S
C151 N152 1.315 . S
C151 H154 0.930 . S
N152 Co132 2.194 . S
N152 C147 1.328 . S
N152 C151 1.315 . S
H153 C147 0.929 . S
H154 C151 0.930 . S
H155 C143 0.929 . S
H156 C145 0.929 . S
O157 Co132 2.351 . S
O157 C160 1.244 . S
O158 Co132 2.155 . S
O158 C160 1.240 . S
O159 Co132 2.096 . S
O159 C140 1.247 . S
C160 O157 1.244 . S
C160 O158 1.240 . S
H161 C135 0.931 . S
H162 C144 0.931 . S
H163 C148 0.929 . S
H164 C150 0.930 . S
Co165 N169 2.148 1_556 S
Co165 N175 2.128 . S
Co165 N185 2.194 . S
Co165 O190 2.351 . S
Co165 O191 2.155 . S
Co165 O192 2.096 . S
C166 N169 1.301 . S
C166 N170 1.328 . S
C166 H171 0.930 . S
C167 C168 1.333 . S
C167 N169 1.317 . S
C167 H172 0.930 . S
C168 C167 1.333 . S
C168 N170 1.350 . S
C168 H194 0.931 . S
N169 Co165 2.148 1_554 S
N169 C166 1.301 . S
N169 C167 1.317 . S
N170 C166 1.328 . S
N170 C168 1.350 . S
H171 C166 0.930 . S
H172 C167 0.930 . S
C173 O174 1.224 . S
C173 O192 1.247 . S
O174 C173 1.224 . S
N175 Co165 2.128 . S
N175 C176 1.355 . S
N175 C178 1.311 . S
C176 N175 1.355 . S
C176 C177 1.363 . S
C176 H188 0.929 . S
C177 C176 1.363 . S
C177 N179 1.375 . S
C177 H195 0.931 . S
C178 N175 1.311 . S
C178 N179 1.347 . S
C178 H189 0.929 . S
N179 C177 1.375 . S
N179 C178 1.347 . S
C180 C183 1.365 . S
C180 N185 1.328 . S
C180 H186 0.929 . S
C181 C182 1.362 . S
C181 C184 1.378 . S
C181 H196 0.929 . S
C182 C181 1.362 . S
C182 C183 1.366 . S
C183 C180 1.365 . S
C183 C182 1.366 . S
C183 H197 0.930 . S
C184 C181 1.378 . S
C184 N185 1.315 . S
C184 H187 0.930 . S
N185 Co165 2.194 . S
N185 C180 1.328 . S
N185 C184 1.315 . S
H186 C180 0.929 . S
H187 C184 0.930 . S
H188 C176 0.929 . S
H189 C178 0.929 . S
O190 Co165 2.351 . S
O190 C193 1.244 . S
O191 Co165 2.155 . S
O191 C193 1.240 . S
O192 Co165 2.096 . S
O192 C173 1.247 . S
C193 O190 1.244 . S
C193 O191 1.240 . S
H194 C168 0.931 . S
H195 C177 0.931 . S
H196 C181 0.929 . S
H197 C183 0.930 . S
Co198 N202 2.148 . S
Co198 N208 2.128 . S
Co198 N218 2.194 . S
Co198 O223 2.351 . S
Co198 O224 2.155 . S
Co198 O225 2.096 . S
C199 N202 1.301 . S
C199 N203 1.328 . S
C199 H204 0.930 . S
C200 C201 1.333 . S
C200 N202 1.317 . S
C200 H205 0.930 . S
C201 C200 1.333 . S
C201 N203 1.350 . S
C201 H227 0.931 . S
N202 Co198 2.148 . S
N202 C199 1.301 . S
N202 C200 1.317 . S
N203 C199 1.328 . S
N203 C201 1.350 . S
H204 C199 0.930 . S
H205 C200 0.930 . S
C206 O207 1.224 . S
C206 O225 1.247 . S
O207 C206 1.224 . S
N208 Co198 2.128 . S
N208 C209 1.355 . S
N208 C211 1.311 . S
C209 N208 1.355 . S
C209 C210 1.363 . S
C209 H221 0.929 . S
C210 C209 1.363 . S
C210 N212 1.375 . S
C210 H228 0.931 . S
C211 N208 1.311 . S
C211 N212 1.347 . S
C211 H222 0.929 . S
N212 C210 1.375 . S
N212 C211 1.347 . S
C213 C216 1.365 . S
C213 N218 1.328 . S
C213 H219 0.929 . S
C214 C215 1.362 . S
C214 C217 1.378 . S
C214 H229 0.929 . S
C215 C214 1.362 . S
C215 C216 1.366 . S
C216 C213 1.365 . S
C216 C215 1.366 . S
C216 H230 0.930 . S
C217 C214 1.378 . S
C217 N218 1.315 . S
C217 H220 0.930 . S
N218 Co198 2.194 . S
N218 C213 1.328 . S
N218 C217 1.315 . S
H219 C213 0.929 . S
H220 C217 0.930 . S
H221 C209 0.929 . S
H222 C211 0.929 . S
O223 Co198 2.351 . S
O223 C226 1.244 . S
O224 Co198 2.155 . S
O224 C226 1.240 . S
O225 Co198 2.096 . S
O225 C206 1.247 . S
C226 O223 1.244 . S
C226 O224 1.240 . S
H227 C201 0.931 . S
H228 C210 0.931 . S
H229 C214 0.929 . S
H230 C216 0.930 . S
Co231 N235 2.148 . S
Co231 N241 2.128 . S
Co231 N251 2.194 . S
Co231 O256 2.351 . S
Co231 O257 2.155 . S
Co231 O258 2.096 . S
C232 N235 1.301 . S
C232 N236 1.328 . S
C232 H237 0.930 . S
C233 C234 1.333 . S
C233 N235 1.317 . S
C233 H238 0.930 . S
C234 C233 1.333 . S
C234 N236 1.350 . S
C234 H260 0.931 . S
N235 Co231 2.148 . S
N235 C232 1.301 . S
N235 C233 1.317 . S
N236 C232 1.328 . S
N236 C234 1.350 . S
H237 C232 0.930 . S
H238 C233 0.930 . S
C239 O240 1.224 . S
C239 O258 1.247 . S
O240 C239 1.224 . S
N241 Co231 2.128 . S
N241 C242 1.355 . S
N241 C244 1.311 . S
C242 N241 1.355 . S
C242 C243 1.363 . S
C242 H254 0.929 . S
C243 C242 1.363 . S
C243 N245 1.375 . S
C243 H261 0.931 . S
C244 N241 1.311 . S
C244 N245 1.347 . S
C244 H255 0.929 . S
N245 C243 1.375 . S
N245 C244 1.347 . S
C246 C249 1.365 . S
C246 N251 1.328 . S
C246 H252 0.929 . S
C247 C248 1.362 . S
C247 C250 1.378 . S
C247 H262 0.929 . S
C248 C247 1.362 . S
C248 C249 1.366 . S
C249 C246 1.365 . S
C249 C248 1.366 . S
C249 H263 0.930 . S
C250 C247 1.378 . S
C250 N251 1.315 . S
C250 H253 0.930 . S
N251 Co231 2.194 . S
N251 C246 1.328 . S
N251 C250 1.315 . S
H252 C246 0.929 . S
H253 C250 0.930 . S
H254 C242 0.929 . S
H255 C244 0.929 . S
O256 Co231 2.351 . S
O256 C259 1.244 . S
O257 Co231 2.155 . S
O257 C259 1.240 . S
O258 Co231 2.096 . S
O258 C239 1.247 . S
C259 O256 1.244 . S
C259 O257 1.240 . S
H260 C234 0.931 . S
H261 C243 0.931 . S
H262 C247 0.929 . S
H263 C249 0.930 . S
Co264 N268 2.148 1_554 S
Co264 N274 2.128 . S
Co264 N284 2.194 . S
Co264 O289 2.351 . S
Co264 O290 2.155 . S
Co264 O291 2.096 . S
C265 N268 1.301 . S
C265 N269 1.328 . S
C265 H270 0.930 . S
C266 C267 1.333 . S
C266 N268 1.317 . S
C266 H271 0.930 . S
C267 C266 1.333 . S
C267 N269 1.350 . S
C267 H293 0.931 . S
N268 Co264 2.148 1_556 S
N268 C265 1.301 . S
N268 C266 1.317 . S
N269 C265 1.328 . S
N269 C267 1.350 . S
H270 C265 0.930 . S
H271 C266 0.930 . S
C272 O273 1.224 . S
C272 O291 1.247 . S
O273 C272 1.224 . S
N274 Co264 2.128 . S
N274 C275 1.355 . S
N274 C277 1.311 . S
C275 N274 1.355 . S
C275 C276 1.363 . S
C275 H287 0.929 . S
C276 C275 1.363 . S
C276 N278 1.375 . S
C276 H294 0.931 . S
C277 N274 1.311 . S
C277 N278 1.347 . S
C277 H288 0.929 . S
N278 C276 1.375 . S
N278 C277 1.347 . S
C279 C282 1.365 . S
C279 N284 1.328 . S
C279 H285 0.929 . S
C280 C281 1.362 . S
C280 C283 1.378 . S
C280 H295 0.929 . S
C281 C280 1.362 . S
C281 C282 1.366 . S
C282 C279 1.365 . S
C282 C281 1.366 . S
C282 H296 0.930 . S
C283 C280 1.378 . S
C283 N284 1.315 . S
C283 H286 0.930 . S
N284 Co264 2.194 . S
N284 C279 1.328 . S
N284 C283 1.315 . S
H285 C279 0.929 . S
H286 C283 0.930 . S
H287 C275 0.929 . S
H288 C277 0.929 . S
O289 Co264 2.351 . S
O289 C292 1.244 . S
O290 Co264 2.155 . S
O290 C292 1.240 . S
O291 Co264 2.096 . S
O291 C272 1.247 . S
C292 O289 1.244 . S
C292 O290 1.240 . S
H293 C267 0.931 . S
H294 C276 0.931 . S
H295 C280 0.929 . S
H296 C282 0.930 . S
Co297 N301 2.148 . S
Co297 N307 2.128 . S
Co297 N317 2.194 . S
Co297 O322 2.351 . S
Co297 O323 2.155 . S
Co297 O324 2.096 . S
C298 N301 1.301 . S
C298 N302 1.328 . S
C298 H303 0.930 . S
C299 C300 1.333 . S
C299 N301 1.317 . S
C299 H304 0.930 . S
C300 C299 1.333 . S
C300 N302 1.350 . S
C300 H326 0.931 . S
N301 Co297 2.148 . S
N301 C298 1.301 . S
N301 C299 1.317 . S
N302 C298 1.328 . S
N302 C300 1.350 . S
H303 C298 0.930 . S
H304 C299 0.930 . S
C305 O306 1.224 . S
C305 O324 1.247 . S
O306 C305 1.224 . S
N307 Co297 2.128 . S
N307 C308 1.355 . S
N307 C310 1.311 . S
C308 N307 1.355 . S
C308 C309 1.363 . S
C308 H320 0.929 . S
C309 C308 1.363 . S
C309 N311 1.375 . S
C309 H327 0.931 . S
C310 N307 1.311 . S
C310 N311 1.347 . S
C310 H321 0.929 . S
N311 C309 1.375 . S
N311 C310 1.347 . S
C312 C315 1.365 . S
C312 N317 1.328 . S
C312 H318 0.929 . S
C313 C314 1.362 . S
C313 C316 1.378 . S
C313 H328 0.929 . S
C314 C313 1.362 . S
C314 C315 1.366 . S
C315 C312 1.365 . S
C315 C314 1.366 . S
C315 H329 0.930 . S
C316 C313 1.378 . S
C316 N317 1.315 . S
C316 H319 0.930 . S
N317 Co297 2.194 . S
N317 C312 1.328 . S
N317 C316 1.315 . S
H318 C312 0.929 . S
H319 C316 0.930 . S
H320 C308 0.929 . S
H321 C310 0.929 . S
O322 Co297 2.351 . S
O322 C325 1.244 . S
O323 Co297 2.155 . S
O323 C325 1.240 . S
O324 Co297 2.096 . S
O324 C305 1.247 . S
C325 O322 1.244 . S
C325 O323 1.240 . S
H326 C300 0.931 . S
H327 C309 0.931 . S
H328 C313 0.929 . S
H329 C315 0.930 . S
Co330 N334 2.148 . S
Co330 N340 2.128 . S
Co330 N350 2.194 . S
Co330 O355 2.351 . S
Co330 O356 2.155 . S
Co330 O357 2.096 . S
C331 N334 1.301 . S
C331 N335 1.328 . S
C331 H336 0.930 . S
C332 C333 1.333 . S
C332 N334 1.317 . S
C332 H337 0.930 . S
C333 C332 1.333 . S
C333 N335 1.350 . S
C333 H359 0.931 . S
N334 Co330 2.148 . S
N334 C331 1.301 . S
N334 C332 1.317 . S
N335 C331 1.328 . S
N335 C333 1.350 . S
H336 C331 0.930 . S
H337 C332 0.930 . S
C338 O339 1.224 . S
C338 O357 1.247 . S
O339 C338 1.224 . S
N340 Co330 2.128 . S
N340 C341 1.355 . S
N340 C343 1.311 . S
C341 N340 1.355 . S
C341 C342 1.363 . S
C341 H353 0.929 . S
C342 C341 1.363 . S
C342 N344 1.375 . S
C342 H360 0.931 . S
C343 N340 1.311 . S
C343 N344 1.347 . S
C343 H354 0.929 . S
N344 C342 1.375 . S
N344 C343 1.347 . S
C345 C348 1.365 . S
C345 N350 1.328 . S
C345 H351 0.929 . S
C346 C347 1.362 . S
C346 C349 1.378 . S
C346 H361 0.929 . S
C347 C346 1.362 . S
C347 C348 1.366 . S
C348 C345 1.365 . S
C348 C347 1.366 . S
C348 H362 0.930 . S
C349 C346 1.378 . S
C349 N350 1.315 . S
C349 H352 0.930 . S
N350 Co330 2.194 . S
N350 C345 1.328 . S
N350 C349 1.315 . S
H351 C345 0.929 . S
H352 C349 0.930 . S
H353 C341 0.929 . S
H354 C343 0.929 . S
O355 Co330 2.351 . S
O355 C358 1.244 . S
O356 Co330 2.155 . S
O356 C358 1.240 . S
O357 Co330 2.096 . S
O357 C338 1.247 . S
C358 O355 1.244 . S
C358 O356 1.240 . S
H359 C333 0.931 . S
H360 C342 0.931 . S
H361 C346 0.929 . S
H362 C348 0.930 . S
Co363 N367 2.148 1_554 S
Co363 N373 2.128 . S
Co363 N383 2.194 . S
Co363 O388 2.351 . S
Co363 O389 2.155 . S
Co363 O390 2.096 . S
C364 N367 1.301 . S
C364 N368 1.328 . S
C364 H369 0.930 . S
C365 C366 1.333 . S
C365 N367 1.317 . S
C365 H370 0.930 . S
C366 C365 1.333 . S
C366 N368 1.350 . S
C366 H392 0.931 . S
N367 Co363 2.148 1_556 S
N367 C364 1.301 . S
N367 C365 1.317 . S
N368 C364 1.328 . S
N368 C366 1.350 . S
H369 C364 0.930 . S
H370 C365 0.930 . S
C371 O372 1.224 . S
C371 O390 1.247 . S
O372 C371 1.224 . S
N373 Co363 2.128 . S
N373 C374 1.355 . S
N373 C376 1.311 . S
C374 N373 1.355 . S
C374 C375 1.363 . S
C374 H386 0.929 . S
C375 C374 1.363 . S
C375 N377 1.375 . S
C375 H393 0.931 . S
C376 N373 1.311 . S
C376 N377 1.347 . S
C376 H387 0.929 . S
N377 C375 1.375 . S
N377 C376 1.347 . S
C378 C381 1.365 . S
C378 N383 1.328 . S
C378 H384 0.929 . S
C379 C380 1.362 . S
C379 C382 1.378 . S
C379 H394 0.929 . S
C380 C379 1.362 . S
C380 C381 1.366 . S
C381 C378 1.365 . S
C381 C380 1.366 . S
C381 H395 0.930 . S
C382 C379 1.378 . S
C382 N383 1.315 . S
C382 H385 0.930 . S
N383 Co363 2.194 . S
N383 C378 1.328 . S
N383 C382 1.315 . S
H384 C378 0.929 . S
H385 C382 0.930 . S
H386 C374 0.929 . S
H387 C376 0.929 . S
O388 Co363 2.351 . S
O388 C391 1.244 . S
O389 Co363 2.155 . S
O389 C391 1.240 . S
O390 Co363 2.096 . S
O390 C371 1.247 . S
C391 O388 1.244 . S
C391 O389 1.240 . S
H392 C366 0.931 . S
H393 C375 0.931 . S
H394 C379 0.929 . S
H395 C381 0.930 . S
H396 C402 0.930 . S
H397 C406 0.930 . S
H398 C411 0.929 . S
H399 C409 0.929 . S
H400 C404 0.929 . S
H401 C410 0.929 . S
C402 H396 0.930 . S
C402 C403 1.367 . S
C402 C410 1.378 . S
C403 C402 1.367 . S
C403 C411 1.433 . S
C404 H400 0.929 . S
C404 C406 1.378 . S
C404 C408 1.350 . S
C405 C408 1.463 1_554 S
C405 C410 1.350 . S
C405 N413 1.427 . S
C406 H397 0.930 . S
C406 C404 1.378 . S
C406 C407 1.367 . S
C407 C406 1.367 . S
C407 C409 1.433 . S
C408 C404 1.350 . S
C408 C405 1.463 1_556 S
C408 N412 1.427 . S
C409 H399 0.929 . S
C409 C407 1.433 . S
C409 N412 1.384 . S
C410 H401 0.929 . S
C410 C402 1.378 . S
C410 C405 1.350 . S
C411 H398 0.929 . S
C411 C403 1.433 . S
C411 N413 1.384 . S
N412 C408 1.427 . S
N412 C409 1.384 . S
N413 C405 1.427 . S
N413 C411 1.384 . S
H414 C420 0.930 . S
H415 C424 0.930 . S
H416 C429 0.929 . S
H417 C427 0.929 . S
H418 C422 0.929 . S
H419 C428 0.929 . S
C420 H414 0.930 . S
C420 C421 1.367 . S
C420 C428 1.378 . S
C421 C420 1.367 . S
C421 C429 1.433 . S
C422 H418 0.929 . S
C422 C424 1.378 . S
C422 C426 1.350 . S
C423 C426 1.463 . S
C423 C428 1.350 . S
C423 N431 1.427 . S
C424 H415 0.930 . S
C424 C422 1.378 . S
C424 C425 1.367 . S
C425 C424 1.367 . S
C425 C427 1.433 . S
C426 C422 1.350 . S
C426 C423 1.463 . S
C426 N430 1.427 . S
C427 H417 0.929 . S
C427 C425 1.433 . S
C427 N430 1.384 . S
C428 H419 0.929 . S
C428 C420 1.378 . S
C428 C423 1.350 . S
C429 H416 0.929 . S
C429 C421 1.433 . S
C429 N431 1.384 . S
N430 C426 1.427 . S
N430 C427 1.384 . S
N431 C423 1.427 . S
N431 C429 1.384 . S
H432 C438 0.930 . S
H433 C442 0.930 . S
H434 C447 0.929 . S
H435 C445 0.929 . S
H436 C440 0.929 . S
H437 C446 0.929 . S
C438 H432 0.930 . S
C438 C439 1.367 . S
C438 C446 1.378 . S
C439 C438 1.367 . S
C439 C447 1.433 . S
C440 H436 0.929 . S
C440 C442 1.378 . S
C440 C444 1.350 . S
C441 C444 1.463 . S
C441 C446 1.350 . S
C441 N449 1.427 . S
C442 H433 0.930 . S
C442 C440 1.378 . S
C442 C443 1.367 . S
C443 C442 1.367 . S
C443 C445 1.433 . S
C444 C440 1.350 . S
C444 C441 1.463 . S
C444 N448 1.427 . S
C445 H435 0.929 . S
C445 C443 1.433 . S
C445 N448 1.384 . S
C446 H437 0.929 . S
C446 C438 1.378 . S
C446 C441 1.350 . S
C447 H434 0.929 . S
C447 C439 1.433 . S
C447 N449 1.384 . S
N448 C444 1.427 . S
N448 C445 1.384 . S
N449 C441 1.427 . S
N449 C447 1.384 . S
H450 C456 0.930 . S
H451 C460 0.930 . S
H452 C465 0.929 . S
H453 C463 0.929 . S
H454 C458 0.929 . S
H455 C464 0.929 . S
C456 H450 0.930 . S
C456 C457 1.367 . S
C456 C464 1.378 . S
C457 C456 1.367 . S
C457 C465 1.433 . S
C458 H454 0.929 . S
C458 C460 1.378 . S
C458 C462 1.350 . S
C459 C462 1.463 1_556 S
C459 C464 1.350 . S
C459 N467 1.427 . S
C460 H451 0.930 . S
C460 C458 1.378 . S
C460 C461 1.367 . S
C461 C460 1.367 . S
C461 C463 1.433 . S
C462 C458 1.350 . S
C462 C459 1.463 1_554 S
C462 N466 1.427 . S
C463 H453 0.929 . S
C463 C461 1.433 . S
C463 N466 1.384 . S
C464 H455 0.929 . S
C464 C456 1.378 . S
C464 C459 1.350 . S
C465 H452 0.929 . S
C465 C457 1.433 . S
C465 N467 1.384 . S
N466 C462 1.427 . S
N466 C463 1.384 . S
N467 C459 1.427 . S
N467 C465 1.384 . S
H468 C474 0.930 . S
H469 C478 0.930 . S
H470 C483 0.929 . S
H471 C481 0.929 . S
H472 C476 0.929 . S
H473 C482 0.929 . S
C474 H468 0.930 . S
C474 C475 1.367 . S
C474 C482 1.378 . S
C475 C474 1.367 . S
C475 C483 1.433 . S
C476 H472 0.929 . S
C476 C478 1.378 . S
C476 C480 1.350 . S
C477 C480 1.463 . S
C477 C482 1.350 . S
C477 N485 1.427 . S
C478 H469 0.930 . S
C478 C476 1.378 . S
C478 C479 1.367 . S
C479 C478 1.367 . S
C479 C481 1.433 . S
C480 C476 1.350 . S
C480 C477 1.463 . S
C480 N484 1.427 . S
C481 H471 0.929 . S
C481 C479 1.433 . S
C481 N484 1.384 . S
C482 H473 0.929 . S
C482 C474 1.378 . S
C482 C477 1.350 . S
C483 H470 0.929 . S
C483 C475 1.433 . S
C483 N485 1.384 . S
N484 C480 1.427 . S
N484 C481 1.384 . S
N485 C477 1.427 . S
N485 C483 1.384 . S
H486 C492 0.930 . S
H487 C496 0.930 . S
H488 C501 0.929 . S
H489 C499 0.929 . S
H490 C494 0.929 . S
H491 C500 0.929 . S
C492 H486 0.930 . S
C492 C493 1.367 . S
C492 C500 1.378 . S
C493 C492 1.367 . S
C493 C501 1.433 . S
C494 H490 0.929 . S
C494 C496 1.378 . S
C494 C498 1.350 . S
C495 C498 1.463 . S
C495 C500 1.350 . S
C495 N503 1.427 . S
C496 H487 0.930 . S
C496 C494 1.378 . S
C496 C497 1.367 . S
C497 C496 1.367 . S
C497 C499 1.433 . S
C498 C494 1.350 . S
C498 C495 1.463 . S
C498 N502 1.427 . S
C499 H489 0.929 . S
C499 C497 1.433 . S
C499 N502 1.384 . S
C500 H491 0.929 . S
C500 C492 1.378 . S
C500 C495 1.350 . S
C501 H488 0.929 . S
C501 C493 1.433 . S
C501 N503 1.384 . S
N502 C498 1.427 . S
N502 C499 1.384 . S
N503 C495 1.427 . S
N503 C501 1.384 . S
H504 C510 0.930 . S
H505 C514 0.930 . S
H506 C519 0.929 . S
H507 C517 0.929 . S
H508 C512 0.929 . S
H509 C518 0.929 . S
C510 H504 0.930 . S
C510 C511 1.367 . S
C510 C518 1.378 . S
C511 C510 1.367 . S
C511 C519 1.433 . S
C512 H508 0.929 . S
C512 C514 1.378 . S
C512 C516 1.350 . S
C513 C516 1.463 . S
C513 C518 1.350 . S
C513 N521 1.427 . S
C514 H505 0.930 . S
C514 C512 1.378 . S
C514 C515 1.367 . S
C515 C514 1.367 . S
C515 C517 1.433 . S
C516 C512 1.350 . S
C516 C513 1.463 . S
C516 N520 1.427 . S
C517 H507 0.929 . S
C517 C515 1.433 . S
C517 N520 1.384 . S
C518 H509 0.929 . S
C518 C510 1.378 . S
C518 C513 1.350 . S
C519 H506 0.929 . S
C519 C511 1.433 . S
C519 N521 1.384 . S
N520 C516 1.427 . S
N520 C517 1.384 . S
N521 C513 1.427 . S
N521 C519 1.384 . S
H522 C528 0.930 . S
H523 C532 0.930 . S
H524 C537 0.929 . S
H525 C535 0.929 . S
H526 C530 0.929 . S
H527 C536 0.929 . S
C528 H522 0.930 . S
C528 C529 1.367 . S
C528 C536 1.378 . S
C529 C528 1.367 . S
C529 C537 1.433 . S
C530 H526 0.929 . S
C530 C532 1.378 . S
C530 C534 1.350 . S
C531 C534 1.463 . S
C531 C536 1.350 . S
C531 N539 1.427 . S
C532 H523 0.930 . S
C532 C530 1.378 . S
C532 C533 1.367 . S
C533 C532 1.367 . S
C533 C535 1.433 . S
C534 C530 1.350 . S
C534 C531 1.463 . S
C534 N538 1.427 . S
C535 H525 0.929 . S
C535 C533 1.433 . S
C535 N538 1.384 . S
C536 H527 0.929 . S
C536 C528 1.378 . S
C536 C531 1.350 . S
C537 H524 0.929 . S
C537 C529 1.433 . S
C537 N539 1.384 . S
N538 C534 1.427 . S
N538 C535 1.384 . S
N539 C531 1.427 . S
N539 C537 1.384 . S
H540 C546 0.930 . S
H541 C550 0.930 . S
H542 C555 0.929 . S
H543 C553 0.929 . S
H544 C548 0.929 . S
H545 C554 0.929 . S
C546 H540 0.930 . S
C546 C547 1.367 . S
C546 C554 1.378 . S
C547 C546 1.367 . S
C547 C555 1.433 . S
C548 H544 0.929 . S
C548 C550 1.378 . S
C548 C552 1.350 . S
C549 C552 1.463 1_556 S
C549 C554 1.350 . S
C549 N557 1.427 . S
C550 H541 0.930 . S
C550 C548 1.378 . S
C550 C551 1.367 . S
C551 C550 1.367 . S
C551 C553 1.433 . S
C552 C548 1.350 . S
C552 C549 1.463 1_554 S
C552 N556 1.427 . S
C553 H543 0.929 . S
C553 C551 1.433 . S
C553 N556 1.384 . S
C554 H545 0.929 . S
C554 C546 1.378 . S
C554 C549 1.350 . S
C555 H542 0.929 . S
C555 C547 1.433 . S
C555 N557 1.384 . S
N556 C552 1.427 . S
N556 C553 1.384 . S
N557 C549 1.427 . S
N557 C555 1.384 . S
H558 C564 0.930 . S
H559 C568 0.930 . S
H560 C573 0.929 . S
H561 C571 0.929 . S
H562 C566 0.929 . S
H563 C572 0.929 . S
C564 H558 0.930 . S
C564 C565 1.367 . S
C564 C572 1.378 . S
C565 C564 1.367 . S
C565 C573 1.433 . S
C566 H562 0.929 . S
C566 C568 1.378 . S
C566 C570 1.350 . S
C567 C570 1.463 . S
C567 C572 1.350 . S
C567 N575 1.427 . S
C568 H559 0.930 . S
C568 C566 1.378 . S
C568 C569 1.367 . S
C569 C568 1.367 . S
C569 C571 1.433 . S
C570 C566 1.350 . S
C570 C567 1.463 . S
C570 N574 1.427 . S
C571 H561 0.929 . S
C571 C569 1.433 . S
C571 N574 1.384 . S
C572 H563 0.929 . S
C572 C564 1.378 . S
C572 C567 1.350 . S
C573 H560 0.929 . S
C573 C565 1.433 . S
C573 N575 1.384 . S
N574 C570 1.427 . S
N574 C571 1.384 . S
N575 C567 1.427 . S
N575 C573 1.384 . S
H576 C582 0.930 . S
H577 C586 0.930 . S
H578 C591 0.929 . S
H579 C589 0.929 . S
H580 C584 0.929 . S
H581 C590 0.929 . S
C582 H576 0.930 . S
C582 C583 1.367 . S
C582 C590 1.378 . S
C583 C582 1.367 . S
C583 C591 1.433 . S
C584 H580 0.929 . S
C584 C586 1.378 . S
C584 C588 1.350 . S
C585 C588 1.463 . S
C585 C590 1.350 . S
C585 N593 1.427 . S
C586 H577 0.930 . S
C586 C584 1.378 . S
C586 C587 1.367 . S
C587 C586 1.367 . S
C587 C589 1.433 . S
C588 C584 1.350 . S
C588 C585 1.463 . S
C588 N592 1.427 . S
C589 H579 0.929 . S
C589 C587 1.433 . S
C589 N592 1.384 . S
C590 H581 0.929 . S
C590 C582 1.378 . S
C590 C585 1.350 . S
C591 H578 0.929 . S
C591 C583 1.433 . S
C591 N593 1.384 . S
N592 C588 1.427 . S
N592 C589 1.384 . S
N593 C585 1.427 . S
N593 C591 1.384 . S
H594 C600 0.930 . S
H595 C604 0.930 . S
H596 C609 0.929 . S
H597 C607 0.929 . S
H598 C602 0.929 . S
H599 C608 0.929 . S
C600 H594 0.930 . S
C600 C601 1.367 1_556 S
C600 C608 1.378 . S
C601 C600 1.367 1_554 S
C601 C609 1.433 . S
C602 H598 0.929 . S
C602 C604 1.378 . S
C602 C606 1.350 1_554 S
C603 C606 1.463 1_554 S
C603 C608 1.350 1_554 S
C603 N611 1.427 . S
C604 H595 0.930 . S
C604 C602 1.378 . S
C604 C605 1.367 1_554 S
C605 C604 1.367 1_556 S
C605 C607 1.433 . S
C606 C602 1.350 1_556 S
C606 C603 1.463 1_556 S
C606 N610 1.427 . S
C607 H597 0.929 . S
C607 C605 1.433 . S
C607 N610 1.384 . S
C608 H599 0.929 . S
C608 C600 1.378 . S
C608 C603 1.350 1_556 S
C609 H596 0.929 . S
C609 C601 1.433 . S
C609 N611 1.384 . S
N610 C606 1.427 . S
N610 C607 1.384 . S
N611 C603 1.427 . S
N611 C609 1.384 . S
H612 C618 0.930 . S
H613 C622 0.930 . S
H614 C627 0.929 . S
H615 C625 0.929 . S
H616 C620 0.929 . S
H617 C626 0.929 . S
C618 H612 0.930 . S
C618 C619 1.367 . S
C618 C626 1.378 . S
C619 C618 1.367 . S
C619 C627 1.433 . S
C620 H616 0.929 . S
C620 C622 1.378 . S
C620 C624 1.350 . S
C621 C624 1.463 . S
C621 C626 1.350 . S
C621 N629 1.427 . S
C622 H613 0.930 . S
C622 C620 1.378 . S
C622 C623 1.367 . S
C623 C622 1.367 . S
C623 C625 1.433 . S
C624 C620 1.350 . S
C624 C621 1.463 . S
C624 N628 1.427 . S
C625 H615 0.929 . S
C625 C623 1.433 . S
C625 N628 1.384 . S
C626 H617 0.929 . S
C626 C618 1.378 . S
C626 C621 1.350 . S
C627 H614 0.929 . S
C627 C619 1.433 . S
C627 N629 1.384 . S
N628 C624 1.427 . S
N628 C625 1.384 . S
N629 C621 1.427 . S
N629 C627 1.384 . S
H630 C636 0.930 . S
H631 C640 0.930 . S
H632 C645 0.929 . S
H633 C643 0.929 . S
H634 C638 0.929 . S
H635 C644 0.929 . S
C636 H630 0.930 . S
C636 C637 1.367 . S
C636 C644 1.378 . S
C637 C636 1.367 . S
C637 C645 1.433 . S
C638 H634 0.929 . S
C638 C640 1.378 . S
C638 C642 1.350 . S
C639 C642 1.463 1_455 S
C639 C644 1.350 . S
C639 N647 1.427 . S
C640 H631 0.930 . S
C640 C638 1.378 . S
C640 C641 1.367 . S
C641 C640 1.367 . S
C641 C643 1.433 . S
C642 C638 1.350 . S
C642 C639 1.463 1_655 S
C642 N646 1.427 . S
C643 H633 0.929 . S
C643 C641 1.433 . S
C643 N646 1.384 . S
C644 H635 0.929 . S
C644 C636 1.378 . S
C644 C639 1.350 . S
C645 H632 0.929 . S
C645 C637 1.433 . S
C645 N647 1.384 . S
N646 C642 1.427 . S
N646 C643 1.384 . S
N647 C639 1.427 . S
N647 C645 1.384 . S
H648 C654 0.930 . S
H649 C658 0.930 . S
H650 C663 0.929 . S
H651 C661 0.929 . S
H652 C656 0.929 . S
H653 C662 0.929 . S
C654 H648 0.930 . S
C654 C655 1.367 . S
C654 C662 1.378 . S
C655 C654 1.367 . S
C655 C663 1.433 . S
C656 H652 0.929 . S
C656 C658 1.378 . S
C656 C660 1.350 . S
C657 C660 1.463 1_544 S
C657 C662 1.350 . S
C657 N665 1.427 . S
C658 H649 0.930 . S
C658 C656 1.378 . S
C658 C659 1.367 . S
C659 C658 1.367 . S
C659 C661 1.433 . S
C660 C656 1.350 . S
C660 C657 1.463 1_566 S
C660 N664 1.427 . S
C661 H651 0.929 . S
C661 C659 1.433 . S
C661 N664 1.384 . S
C662 H653 0.929 . S
C662 C654 1.378 . S
C662 C657 1.350 . S
C663 H650 0.929 . S
C663 C655 1.433 . S
C663 N665 1.384 . S
N664 C660 1.427 . S
N664 C661 1.384 . S
N665 C657 1.427 . S
N665 C663 1.384 . S
H666 C672 0.930 . S
H667 C676 0.930 . S
H668 C681 0.929 . S
H669 C679 0.929 . S
H670 C674 0.929 . S
H671 C680 0.929 . S
C672 H666 0.930 . S
C672 C673 1.367 . S
C672 C680 1.378 . S
C673 C672 1.367 . S
C673 C681 1.433 . S
C674 H670 0.929 . S
C674 C676 1.378 . S
C674 C678 1.350 . S
C675 C678 1.463 . S
C675 C680 1.350 . S
C675 N683 1.427 . S
C676 H667 0.930 . S
C676 C674 1.378 . S
C676 C677 1.367 . S
C677 C676 1.367 . S
C677 C679 1.433 . S
C678 C674 1.350 . S
C678 C675 1.463 . S
C678 N682 1.427 . S
C679 H669 0.929 . S
C679 C677 1.433 . S
C679 N682 1.384 . S
C680 H671 0.929 . S
C680 C672 1.378 . S
C680 C675 1.350 . S
C681 H668 0.929 . S
C681 C673 1.433 . S
C681 N683 1.384 . S
N682 C678 1.427 . S
N682 C679 1.384 . S
N683 C675 1.427 . S
N683 C681 1.384 . S
H684 C690 0.930 . S
H685 C694 0.930 . S
H686 C699 0.929 . S
H687 C697 0.929 . S
H688 C692 0.929 . S
H689 C698 0.929 . S
C690 H684 0.930 . S
C690 C691 1.367 . S
C690 C698 1.378 . S
C691 C690 1.367 . S
C691 C699 1.433 . S
C692 H688 0.929 . S
C692 C694 1.378 . S
C692 C696 1.350 . S
C693 C696 1.463 1_455 S
C693 C698 1.350 . S
C693 N701 1.427 . S
C694 H685 0.930 . S
C694 C692 1.378 . S
C694 C695 1.367 . S
C695 C694 1.367 . S
C695 C697 1.433 . S
C696 C692 1.350 . S
C696 C693 1.463 1_655 S
C696 N700 1.427 . S
C697 H687 0.929 . S
C697 C695 1.433 . S
C697 N700 1.384 . S
C698 H689 0.929 . S
C698 C690 1.378 . S
C698 C693 1.350 . S
C699 H686 0.929 . S
C699 C691 1.433 . S
C699 N701 1.384 . S
N700 C696 1.427 . S
N700 C697 1.384 . S
N701 C693 1.427 . S
N701 C699 1.384 . S
H702 C708 0.930 . S
H703 C712 0.930 . S
H704 C717 0.929 . S
H705 C715 0.929 . S
H706 C710 0.929 . S
H707 C716 0.929 . S
C708 H702 0.930 . S
C708 C709 1.367 1_554 S
C708 C716 1.378 . S
C709 C708 1.367 1_556 S
C709 C717 1.433 . S
C710 H706 0.929 . S
C710 C712 1.378 . S
C710 C714 1.350 1_556 S
C711 C714 1.463 1_546 S
C711 C716 1.350 1_556 S
C711 N719 1.427 . S
C712 H703 0.930 . S
C712 C710 1.378 . S
C712 C713 1.367 1_556 S
C713 C712 1.367 1_554 S
C713 C715 1.433 . S
C714 C710 1.350 1_554 S
C714 C711 1.463 1_564 S
C714 N718 1.427 . S
C715 H705 0.929 . S
C715 C713 1.433 . S
C715 N718 1.384 . S
C716 H707 0.929 . S
C716 C708 1.378 . S
C716 C711 1.350 1_554 S
C717 H704 0.929 . S
C717 C709 1.433 . S
C717 N719 1.384 . S
N718 C714 1.427 . S
N718 C715 1.384 . S
N719 C711 1.427 . S
N719 C717 1.384 . S
H720 C726 0.930 . S
H721 C730 0.930 . S
H722 C735 0.929 . S
H723 C733 0.929 . S
H724 C728 0.929 . S
H725 C734 0.929 . S
C726 H720 0.930 . S
C726 C727 1.367 . S
C726 C734 1.378 . S
C727 C726 1.367 . S
C727 C735 1.433 . S
C728 H724 0.929 . S
C728 C730 1.378 . S
C728 C732 1.350 . S
C729 C732 1.463 . S
C729 C734 1.350 . S
C729 N737 1.427 . S
C730 H721 0.930 . S
C730 C728 1.378 . S
C730 C731 1.367 . S
C731 C730 1.367 . S
C731 C733 1.433 . S
C732 C728 1.350 . S
C732 C729 1.463 . S
C732 N736 1.427 . S
C733 H723 0.929 . S
C733 C731 1.433 . S
C733 N736 1.384 . S
C734 H725 0.929 . S
C734 C726 1.378 . S
C734 C729 1.350 . S
C735 H722 0.929 . S
C735 C727 1.433 . S
C735 N737 1.384 . S
N736 C732 1.427 . S
N736 C733 1.384 . S
N737 C729 1.427 . S
N737 C735 1.384 . S
H738 C744 0.930 . S
H739 C748 0.930 . S
H740 C753 0.929 . S
H741 C751 0.929 . S
H742 C746 0.929 1_554 S
H743 C752 0.929 . S
C744 H738 0.930 . S
C744 C745 1.367 . S
C744 C752 1.378 . S
C745 C744 1.367 . S
C745 C753 1.433 . S
C746 H742 0.929 1_556 S
C746 C748 1.378 . S
C746 C750 1.350 1_556 S
C747 C750 1.463 . S
C747 C752 1.350 . S
C747 N755 1.427 . S
C748 H739 0.930 . S
C748 C746 1.378 . S
C748 C749 1.367 . S
C749 C748 1.367 . S
C749 C751 1.433 . S
C750 C746 1.350 1_554 S
C750 C747 1.463 . S
C750 N754 1.427 . S
C751 H741 0.929 . S
C751 C749 1.433 . S
C751 N754 1.384 1_556 S
C752 H743 0.929 . S
C752 C744 1.378 . S
C752 C747 1.350 . S
C753 H740 0.929 . S
C753 C745 1.433 . S
C753 N755 1.384 . S
N754 C750 1.427 . S
N754 C751 1.384 1_554 S
N755 C747 1.427 . S
N755 C753 1.384 . S
H756 C762 0.930 . S
H757 C766 0.930 . S
H758 C771 0.929 . S
H759 C769 0.929 . S
H760 C764 0.929 . S
H761 C770 0.929 . S
C762 H756 0.930 . S
C762 C763 1.367 . S
C762 C770 1.378 . S
C763 C762 1.367 . S
C763 C771 1.433 . S
C764 H760 0.929 . S
C764 C766 1.378 . S
C764 C768 1.350 . S
C765 C768 1.463 . S
C765 C770 1.350 . S
C765 N773 1.427 . S
C766 H757 0.930 . S
C766 C764 1.378 . S
C766 C767 1.367 . S
C767 C766 1.367 . S
C767 C769 1.433 . S
C768 C764 1.350 . S
C768 C765 1.463 . S
C768 N772 1.427 . S
C769 H759 0.929 . S
C769 C767 1.433 . S
C769 N772 1.384 . S
C770 H761 0.929 . S
C770 C762 1.378 . S
C770 C765 1.350 . S
C771 H758 0.929 . S
C771 C763 1.433 . S
C771 N773 1.384 . S
N772 C768 1.427 . S
N772 C769 1.384 . S
N773 C765 1.427 . S
N773 C771 1.384 . S
H774 C780 0.930 . S
H775 C784 0.930 . S
H776 C789 0.929 . S
H777 C787 0.929 . S
H778 C782 0.929 . S
H779 C788 0.929 . S
C780 H774 0.930 . S
C780 C781 1.367 . S
C780 C788 1.378 . S
C781 C780 1.367 . S
C781 C789 1.433 . S
C782 H778 0.929 . S
C782 C784 1.378 . S
C782 C786 1.350 . S
C783 C786 1.463 . S
C783 C788 1.350 . S
C783 N791 1.427 . S
C784 H775 0.930 . S
C784 C782 1.378 . S
C784 C785 1.367 . S
C785 C784 1.367 . S
C785 C787 1.433 . S
C786 C782 1.350 . S
C786 C783 1.463 . S
C786 N790 1.427 . S
C787 H777 0.929 . S
C787 C785 1.433 . S
C787 N790 1.384 . S
C788 H779 0.929 . S
C788 C780 1.378 . S
C788 C783 1.350 . S
C789 H776 0.929 . S
C789 C781 1.433 . S
C789 N791 1.384 . S
N790 C786 1.427 . S
N790 C787 1.384 . S
N791 C783 1.427 . S
N791 C789 1.384 . S
H792 C798 0.930 . S
H793 C802 0.930 . S
H794 C807 0.929 . S
H795 C805 0.929 . S
H796 C800 0.929 . S
H797 C806 0.929 . S
C798 H792 0.930 . S
C798 C799 1.367 . S
C798 C806 1.378 . S
C799 C798 1.367 . S
C799 C807 1.433 . S
C800 H796 0.929 . S
C800 C802 1.378 1_554 S
C800 C804 1.350 . S
C801 C804 1.463 . S
C801 C806 1.350 . S
C801 N809 1.427 . S
C802 H793 0.930 . S
C802 C800 1.378 1_556 S
C802 C803 1.367 . S
C803 C802 1.367 . S
C803 C805 1.433 . S
C804 C800 1.350 . S
C804 C801 1.463 . S
C804 N808 1.427 1_554 S
C805 H795 0.929 . S
C805 C803 1.433 . S
C805 N808 1.384 . S
C806 H797 0.929 . S
C806 C798 1.378 . S
C806 C801 1.350 . S
C807 H794 0.929 . S
C807 C799 1.433 . S
C807 N809 1.384 . S
N808 C804 1.427 1_556 S
N808 C805 1.384 . S
N809 C801 1.427 . S
N809 C807 1.384 . S
H810 C816 0.930 . S
H811 C820 0.930 . S
H812 C825 0.929 . S
H813 C823 0.929 . S
H814 C818 0.929 . S
H815 C824 0.929 . S
C816 H810 0.930 . S
C816 C817 1.367 . S
C816 C824 1.378 . S
C817 C816 1.367 . S
C817 C825 1.433 . S
C818 H814 0.929 . S
C818 C820 1.378 . S
C818 C822 1.350 . S
C819 C822 1.463 . S
C819 C824 1.350 . S
C819 N827 1.427 . S
C820 H811 0.930 . S
C820 C818 1.378 . S
C820 C821 1.367 . S
C821 C820 1.367 . S
C821 C823 1.433 . S
C822 C818 1.350 . S
C822 C819 1.463 . S
C822 N826 1.427 . S
C823 H813 0.929 . S
C823 C821 1.433 . S
C823 N826 1.384 . S
C824 H815 0.929 . S
C824 C816 1.378 . S
C824 C819 1.350 . S
C825 H812 0.929 . S
C825 C817 1.433 . S
C825 N827 1.384 . S
N826 C822 1.427 . S
N826 C823 1.384 . S
N827 C819 1.427 . S
N827 C825 1.384 . S
H828 C834 0.930 . S
H829 C838 0.930 . S
H830 C843 0.929 . S
H831 C841 0.929 . S
H832 C836 0.929 . S
H833 C842 0.928 . S
C834 H828 0.930 . S
C834 C835 1.367 . S
C834 C842 1.379 1_554 S
C835 C834 1.367 . S
C835 C843 1.433 . S
C836 H832 0.929 . S
C836 C838 1.378 . S
C836 C840 1.350 . S
C837 C840 1.463 . S
C837 C842 1.349 . S
C837 N845 1.427 . S
C838 H829 0.930 . S
C838 C836 1.378 . S
C838 C839 1.367 . S
C839 C838 1.367 . S
C839 C841 1.433 . S
C840 C836 1.350 . S
C840 C837 1.463 . S
C840 N844 1.427 . S
C841 H831 0.929 . S
C841 C839 1.433 . S
C841 N844 1.384 . S
C842 H833 0.928 . S
C842 C834 1.379 1_556 S
C842 C837 1.349 . S
C843 H830 0.929 . S
C843 C835 1.433 . S
C843 N845 1.384 1_554 S
N844 C840 1.427 . S
N844 C841 1.384 . S
N845 C837 1.427 . S
N845 C843 1.384 1_556 S
H846 C852 0.930 . S
H847 C856 0.930 . S
H848 C861 0.929 . S
H849 C859 0.929 . S
H850 C854 0.929 . S
H851 C860 0.929 . S
C852 H846 0.930 . S
C852 C853 1.367 . S
C852 C860 1.378 . S
C853 C852 1.367 . S
C853 C861 1.433 . S
C854 H850 0.929 . S
C854 C856 1.378 . S
C854 C858 1.350 . S
C855 C858 1.463 . S
C855 C860 1.350 . S
C855 N863 1.427 . S
C856 H847 0.930 . S
C856 C854 1.378 . S
C856 C857 1.367 . S
C857 C856 1.367 . S
C857 C859 1.433 . S
C858 C854 1.350 . S
C858 C855 1.463 . S
C858 N862 1.427 . S
C859 H849 0.929 . S
C859 C857 1.433 . S
C859 N862 1.384 . S
C860 H851 0.929 . S
C860 C852 1.378 . S
C860 C855 1.350 . S
C861 H848 0.929 . S
C861 C853 1.433 . S
C861 N863 1.384 . S
N862 C858 1.427 . S
N862 C859 1.384 . S
N863 C855 1.427 . S
N863 C861 1.384 . S
H864 C870 0.930 . S
H865 C874 0.930 . S
H866 C879 0.929 . S
H867 C877 0.929 . S
H868 C872 0.929 . S
H869 C878 0.929 . S
C870 H864 0.930 . S
C870 C871 1.367 . S
C870 C878 1.378 . S
C871 C870 1.367 . S
C871 C879 1.433 . S
C872 H868 0.929 . S
C872 C874 1.378 . S
C872 C876 1.350 . S
C873 C876 1.463 . S
C873 C878 1.350 . S
C873 N881 1.427 . S
C874 H865 0.930 . S
C874 C872 1.378 . S
C874 C875 1.367 . S
C875 C874 1.367 . S
C875 C877 1.433 . S
C876 C872 1.350 . S
C876 C873 1.463 . S
C876 N880 1.427 . S
C877 H867 0.929 . S
C877 C875 1.433 . S
C877 N880 1.384 . S
C878 H869 0.929 . S
C878 C870 1.378 . S
C878 C873 1.350 . S
C879 H866 0.929 . S
C879 C871 1.433 . S
C879 N881 1.384 . S
N880 C876 1.427 . S
N880 C877 1.384 . S
N881 C873 1.427 . S
N881 C879 1.384 . S
H882 C888 0.930 . S
H883 C892 0.930 . S
H884 C897 0.929 . S
H885 C895 0.929 . S
H886 C890 0.929 . S
H887 C896 0.929 . S
C888 H882 0.930 . S
C888 C889 1.367 . S
C888 C896 1.378 . S
C889 C888 1.367 . S
C889 C897 1.433 . S
C890 H886 0.929 . S
C890 C892 1.378 1_556 S
C890 C894 1.350 . S
C891 C894 1.463 . S
C891 C896 1.350 . S
C891 N899 1.427 . S
C892 H883 0.930 . S
C892 C890 1.378 1_554 S
C892 C893 1.367 . S
C893 C892 1.367 . S
C893 C895 1.433 . S
C894 C890 1.350 . S
C894 C891 1.463 . S
C894 N898 1.427 . S
C895 H885 0.929 . S
C895 C893 1.433 . S
C895 N898 1.384 1_554 S
C896 H887 0.929 . S
C896 C888 1.378 . S
C896 C891 1.350 . S
C897 H884 0.929 . S
C897 C889 1.433 . S
C897 N899 1.384 . S
N898 C894 1.427 . S
N898 C895 1.384 1_556 S
N899 C891 1.427 . S
N899 C897 1.384 . S
H900 C906 0.930 . S
H901 C910 0.930 . S
H902 C915 0.929 . S
H903 C913 0.929 . S
H904 C908 0.929 . S
H905 C914 0.929 . S
C906 H900 0.930 . S
C906 C907 1.367 . S
C906 C914 1.378 . S
C907 C906 1.367 . S
C907 C915 1.433 . S
C908 H904 0.929 . S
C908 C910 1.378 . S
C908 C912 1.350 . S
C909 C912 1.463 . S
C909 C914 1.350 . S
C909 N917 1.427 . S
C910 H901 0.930 . S
C910 C908 1.378 . S
C910 C911 1.367 . S
C911 C910 1.367 . S
C911 C913 1.433 . S
C912 C908 1.350 . S
C912 C909 1.463 . S
C912 N916 1.427 . S
C913 H903 0.929 . S
C913 C911 1.433 . S
C913 N916 1.384 . S
C914 H905 0.929 . S
C914 C906 1.378 . S
C914 C909 1.350 . S
C915 H902 0.929 . S
C915 C907 1.433 . S
C915 N917 1.384 . S
N916 C912 1.427 . S
N916 C913 1.384 . S
N917 C909 1.427 . S
N917 C915 1.384 . S
H918 C924 0.930 . S
H919 C928 0.930 . S
H920 C933 0.929 . S
H921 C931 0.929 . S
H922 C926 0.929 . S
H923 C932 0.929 . S
C924 H918 0.930 . S
C924 C925 1.367 . S
C924 C932 1.378 . S
C925 C924 1.367 . S
C925 C933 1.433 . S
C926 H922 0.929 . S
C926 C928 1.378 . S
C926 C930 1.350 . S
C927 C930 1.463 . S
C927 C932 1.350 . S
C927 N935 1.427 . S
C928 H919 0.930 . S
C928 C926 1.378 . S
C928 C929 1.367 . S
C929 C928 1.367 . S
C929 C931 1.433 . S
C930 C926 1.350 . S
C930 C927 1.463 . S
C930 N934 1.427 . S
C931 H921 0.929 . S
C931 C929 1.433 . S
C931 N934 1.384 . S
C932 H923 0.929 . S
C932 C924 1.378 . S
C932 C927 1.350 . S
C933 H920 0.929 . S
C933 C925 1.433 . S
C933 N935 1.384 . S
N934 C930 1.427 . S
N934 C931 1.384 . S
N935 C927 1.427 . S
N935 C933 1.384 . S
C403 C8 1.304 . S
C407 C338 1.310 . S
C421 C371 1.315 . S
C425 C41 1.319 . S
C439 C206 1.300 . S
C443 C74 1.303 . S
C457 C239 1.315 . S
C461 C107 1.319 . S
C475 C140 1.305 . S
C479 C272 1.301 . S
C493 C305 1.306 . S
C497 C173 1.313 . S
C511 C215 1.622 . S
C515 C17 1.626 . S
C529 C248 1.622 . S
C533 C50 1.624 . S
C547 C83 1.623 . S
C551 C281 1.628 . S
C565 C116 1.629 . S
C569 C314 1.626 . S
C583 C347 1.628 . S
C587 C149 1.627 . S
C601 C380 1.623 . S
C605 C182 1.622 . S
C619 C28 1.406 . S
C623 C325 1.413 . S
C637 C358 1.407 . S
C641 C61 1.415 . S
C655 C391 1.406 . S
C659 C94 1.415 . S
C673 C226 1.406 . S
C677 C127 1.414 . S
C691 C160 1.406 . S
C695 C259 1.414 . S
C709 C193 1.415 . S
C713 C292 1.409 . S
C727 N5 1.077 . S
C731 N14 1.077 1_556 S
C745 N47 1.083 . S
C749 N38 1.082 . S
C763 N71 1.082 . S
C767 N80 1.081 . S
C781 N113 1.080 1_556 S
C785 N104 1.080 . S
C799 N146 1.076 . S
C803 N137 1.077 . S
C817 N179 1.081 . S
C821 N170 1.082 . S
C835 N203 1.078 . S
C839 N212 1.079 . S
C853 N245 1.079 1_554 S
C857 N236 1.080 . S
C871 N278 1.081 . S
C875 N269 1.082 . S
C889 N311 1.078 . S
C893 N302 1.078 . S
C907 N335 1.082 . S
C911 N344 1.081 1_554 S
C925 N377 1.080 . S
C929 N368 1.079 . S
