# Generated by pormake.
# Topology uoe, (4)-cn, num edge types: 1
# Building blocks:
#     Node 0, Type 0, BuildingBlock: GALJAG_clean_sbu_0, # of connection points: 4
#     Node 1, Type 0, BuildingBlock: GALJAG_clean_sbu_0, # of connection points: 4
#     Node 2, Type 0, BuildingBlock: GALJAG_clean_sbu_0, # of connection points: 4
#     Node 3, Type 0, BuildingBlock: GALJAG_clean_sbu_0, # of connection points: 4
#     Node 4, Type 0, BuildingBlock: GALJAG_clean_sbu_0, # of connection points: 4
#     Node 5, Type 0, BuildingBlock: GALJAG_clean_sbu_0, # of connection points: 4
#     Node 6, Type 0, BuildingBlock: GALJAG_clean_sbu_0, # of connection points: 4
#     Node 7, Type 0, BuildingBlock: GALJAG_clean_sbu_0, # of connection points: 4
#     Node 8, Type 0, BuildingBlock: GALJAG_clean_sbu_0, # of connection points: 4
#     Node 9, Type 0, BuildingBlock: GALJAG_clean_sbu_0, # of connection points: 4
#     Node 10, Type 0, BuildingBlock: GALJAG_clean_sbu_0, # of connection points: 4
#     Node 11, Type 0, BuildingBlock: GALJAG_clean_sbu_0, # of connection points: 4
#     Node 12, Type 0, BuildingBlock: GALJAG_clean_sbu_0, # of connection points: 4
#     Node 13, Type 0, BuildingBlock: GALJAG_clean_sbu_0, # of connection points: 4
#     Node 14, Type 0, BuildingBlock: GALJAG_clean_sbu_0, # of connection points: 4
#     Node 15, Type 0, BuildingBlock: GALJAG_clean_sbu_0, # of connection points: 4
#     Node 16, Type 0, BuildingBlock: GALJAG_clean_sbu_0, # of connection points: 4
#     Node 17, Type 0, BuildingBlock: GALJAG_clean_sbu_0, # of connection points: 4
#     Node 18, Type 0, BuildingBlock: GALJAG_clean_sbu_0, # of connection points: 4
#     Node 19, Type 0, BuildingBlock: GALJAG_clean_sbu_0, # of connection points: 4
#     Node 20, Type 0, BuildingBlock: GALJAG_clean_sbu_0, # of connection points: 4
#     Node 21, Type 0, BuildingBlock: GALJAG_clean_sbu_0, # of connection points: 4
#     Node 22, Type 0, BuildingBlock: GALJAG_clean_sbu_0, # of connection points: 4
#     Node 23, Type 0, BuildingBlock: GALJAG_clean_sbu_0, # of connection points: 4
#     Node 24, Type 0, BuildingBlock: GALJAG_clean_sbu_0, # of connection points: 4
#     Node 25, Type 0, BuildingBlock: GALJAG_clean_sbu_0, # of connection points: 4
#     Node 26, Type 0, BuildingBlock: GALJAG_clean_sbu_0, # of connection points: 4
#     Node 27, Type 0, BuildingBlock: GALJAG_clean_sbu_0, # of connection points: 4
#     Node 28, Type 0, BuildingBlock: GALJAG_clean_sbu_0, # of connection points: 4
#     Node 29, Type 0, BuildingBlock: GALJAG_clean_sbu_0, # of connection points: 4
#     Node 30, Type 0, BuildingBlock: GALJAG_clean_sbu_0, # of connection points: 4
#     Node 31, Type 0, BuildingBlock: GALJAG_clean_sbu_0, # of connection points: 4
#     Edge 32, Type (0, 0), BuildingBlock: EZIPEK_clean_linker_0, # of connection points: 2
#     Edge 33, Type (0, 0), BuildingBlock: EZIPEK_clean_linker_0, # of connection points: 2
#     Edge 34, Type (0, 0), BuildingBlock: EZIPEK_clean_linker_0, # of connection points: 2
#     Edge 35, Type (0, 0), BuildingBlock: EZIPEK_clean_linker_0, # of connection points: 2
#     Edge 36, Type (0, 0), BuildingBlock: EZIPEK_clean_linker_0, # of connection points: 2
#     Edge 37, Type (0, 0), BuildingBlock: EZIPEK_clean_linker_0, # of connection points: 2
#     Edge 38, Type (0, 0), BuildingBlock: EZIPEK_clean_linker_0, # of connection points: 2
#     Edge 39, Type (0, 0), BuildingBlock: EZIPEK_clean_linker_0, # of connection points: 2
#     Edge 40, Type (0, 0), BuildingBlock: EZIPEK_clean_linker_0, # of connection points: 2
#     Edge 41, Type (0, 0), BuildingBlock: EZIPEK_clean_linker_0, # of connection points: 2
#     Edge 42, Type (0, 0), BuildingBlock: EZIPEK_clean_linker_0, # of connection points: 2
#     Edge 43, Type (0, 0), BuildingBlock: EZIPEK_clean_linker_0, # of connection points: 2
#     Edge 44, Type (0, 0), BuildingBlock: EZIPEK_clean_linker_0, # of connection points: 2
#     Edge 45, Type (0, 0), BuildingBlock: EZIPEK_clean_linker_0, # of connection points: 2
#     Edge 46, Type (0, 0), BuildingBlock: EZIPEK_clean_linker_0, # of connection points: 2
#     Edge 47, Type (0, 0), BuildingBlock: EZIPEK_clean_linker_0, # of connection points: 2
#     Edge 48, Type (0, 0), BuildingBlock: EZIPEK_clean_linker_0, # of connection points: 2
#     Edge 49, Type (0, 0), BuildingBlock: EZIPEK_clean_linker_0, # of connection points: 2
#     Edge 50, Type (0, 0), BuildingBlock: EZIPEK_clean_linker_0, # of connection points: 2
#     Edge 51, Type (0, 0), BuildingBlock: EZIPEK_clean_linker_0, # of connection points: 2
#     Edge 52, Type (0, 0), BuildingBlock: EZIPEK_clean_linker_0, # of connection points: 2
#     Edge 53, Type (0, 0), BuildingBlock: EZIPEK_clean_linker_0, # of connection points: 2
#     Edge 54, Type (0, 0), BuildingBlock: EZIPEK_clean_linker_0, # of connection points: 2
#     Edge 55, Type (0, 0), BuildingBlock: EZIPEK_clean_linker_0, # of connection points: 2
#     Edge 56, Type (0, 0), BuildingBlock: EZIPEK_clean_linker_0, # of connection points: 2
#     Edge 57, Type (0, 0), BuildingBlock: EZIPEK_clean_linker_0, # of connection points: 2
#     Edge 58, Type (0, 0), BuildingBlock: EZIPEK_clean_linker_0, # of connection points: 2
#     Edge 59, Type (0, 0), BuildingBlock: EZIPEK_clean_linker_0, # of connection points: 2
#     Edge 60, Type (0, 0), BuildingBlock: EZIPEK_clean_linker_0, # of connection points: 2
#     Edge 61, Type (0, 0), BuildingBlock: EZIPEK_clean_linker_0, # of connection points: 2
#     Edge 62, Type (0, 0), BuildingBlock: EZIPEK_clean_linker_0, # of connection points: 2
#     Edge 63, Type (0, 0), BuildingBlock: EZIPEK_clean_linker_0, # of connection points: 2
#     Edge 64, Type (0, 0), BuildingBlock: EZIPEK_clean_linker_0, # of connection points: 2
#     Edge 65, Type (0, 0), BuildingBlock: EZIPEK_clean_linker_0, # of connection points: 2
#     Edge 66, Type (0, 0), BuildingBlock: EZIPEK_clean_linker_0, # of connection points: 2
#     Edge 67, Type (0, 0), BuildingBlock: EZIPEK_clean_linker_0, # of connection points: 2
#     Edge 68, Type (0, 0), BuildingBlock: EZIPEK_clean_linker_0, # of connection points: 2
#     Edge 69, Type (0, 0), BuildingBlock: EZIPEK_clean_linker_0, # of connection points: 2
#     Edge 70, Type (0, 0), BuildingBlock: EZIPEK_clean_linker_0, # of connection points: 2
#     Edge 71, Type (0, 0), BuildingBlock: EZIPEK_clean_linker_0, # of connection points: 2
#     Edge 72, Type (0, 0), BuildingBlock: EZIPEK_clean_linker_0, # of connection points: 2
#     Edge 73, Type (0, 0), BuildingBlock: EZIPEK_clean_linker_0, # of connection points: 2
#     Edge 74, Type (0, 0), BuildingBlock: EZIPEK_clean_linker_0, # of connection points: 2
#     Edge 75, Type (0, 0), BuildingBlock: EZIPEK_clean_linker_0, # of connection points: 2
#     Edge 76, Type (0, 0), BuildingBlock: EZIPEK_clean_linker_0, # of connection points: 2
#     Edge 77, Type (0, 0), BuildingBlock: EZIPEK_clean_linker_0, # of connection points: 2
#     Edge 78, Type (0, 0), BuildingBlock: EZIPEK_clean_linker_0, # of connection points: 2
#     Edge 79, Type (0, 0), BuildingBlock: EZIPEK_clean_linker_0, # of connection points: 2
#     Edge 80, Type (0, 0), BuildingBlock: EZIPEK_clean_linker_0, # of connection points: 2
#     Edge 81, Type (0, 0), BuildingBlock: EZIPEK_clean_linker_0, # of connection points: 2
#     Edge 82, Type (0, 0), BuildingBlock: EZIPEK_clean_linker_0, # of connection points: 2
#     Edge 83, Type (0, 0), BuildingBlock: EZIPEK_clean_linker_0, # of connection points: 2
#     Edge 84, Type (0, 0), BuildingBlock: EZIPEK_clean_linker_0, # of connection points: 2
#     Edge 85, Type (0, 0), BuildingBlock: EZIPEK_clean_linker_0, # of connection points: 2
#     Edge 86, Type (0, 0), BuildingBlock: EZIPEK_clean_linker_0, # of connection points: 2
#     Edge 87, Type (0, 0), BuildingBlock: EZIPEK_clean_linker_0, # of connection points: 2
#     Edge 88, Type (0, 0), BuildingBlock: EZIPEK_clean_linker_0, # of connection points: 2
#     Edge 89, Type (0, 0), BuildingBlock: EZIPEK_clean_linker_0, # of connection points: 2
#     Edge 90, Type (0, 0), BuildingBlock: EZIPEK_clean_linker_0, # of connection points: 2
#     Edge 91, Type (0, 0), BuildingBlock: EZIPEK_clean_linker_0, # of connection points: 2
#     Edge 92, Type (0, 0), BuildingBlock: EZIPEK_clean_linker_0, # of connection points: 2
#     Edge 93, Type (0, 0), BuildingBlock: EZIPEK_clean_linker_0, # of connection points: 2
#     Edge 94, Type (0, 0), BuildingBlock: EZIPEK_clean_linker_0, # of connection points: 2
#     Edge 95, Type (0, 0), BuildingBlock: EZIPEK_clean_linker_0, # of connection points: 2
# Relax obj value: 0.106
# Max RMSD: 0.167
# Mean RMSD: 0.167
data_MOF--net-uoe--node1-GALJAG_clean_sbu_0--edge1-EZIPEK_clean_linker_0
_symmetry_space_group_name_H-M    P1
_symmetry_Int_Tables_number       1
_symmetry_cell_setting            triclinic
loop_
_symmetry_equiv_pos_as_xyz
'x, y, z'
_cell_length_a     54.013275
_cell_length_b     54.079652
_cell_length_c     20.364931
_cell_angle_alpha  90.032152
_cell_angle_beta   89.962703
_cell_angle_gamma 90.000012
loop_
_atom_site_label
_atom_site_type_symbol
_atom_site_fract_x
_atom_site_fract_y
_atom_site_fract_z
_atom_type_partial_charge
In0 In 0.08591 0.46978 0.06753 0.0
O1 O 0.09399 0.42852 0.08377 0.0
O2 O 0.12368 0.45433 0.09256 0.0
C3 C 0.03684 0.47421 0.05275 0.0
C4 C 0.08617 0.48552 0.19155 0.0
C5 C 0.09917 0.49065 0.95231 0.0
O6 O 0.04766 0.45369 0.04352 0.0
O7 O 0.05069 0.49207 0.06796 0.0
O8 O 0.10332 0.50092 0.00703 0.0
O9 O 0.09001 0.46918 0.95591 0.0
C10 C 0.11625 0.43241 0.10031 0.0
O11 O 0.09745 0.49732 0.14684 0.0
O12 O 0.07452 0.46659 0.17294 0.0
In13 In 0.78984 0.84331 0.29244 0.0
O14 O 0.76308 0.86077 0.36629 0.0
O15 O 0.7896 0.83416 0.39884 0.0
C16 C 0.77189 0.85901 0.17647 0.0
C17 C 0.8327 0.86582 0.3249 0.0
C18 C 0.77645 0.79549 0.28395 0.0
O19 O 0.7629 0.866 0.23064 0.0
O20 O 0.79083 0.84539 0.18076 0.0
O21 O 0.79868 0.80216 0.27475 0.0
O22 O 0.76142 0.81272 0.29577 0.0
C23 C 0.77231 0.84873 0.41364 0.0
O24 O 0.83193 0.84308 0.31037 0.0
O25 O 0.81273 0.8774 0.31586 0.0
In26 In 0.41719 0.53276 0.55631 0.0
O27 O 0.43001 0.52383 0.65852 0.0
O28 O 0.39709 0.50614 0.62584 0.0
C29 C 0.40673 0.51406 0.43615 0.0
C30 C 0.38807 0.57032 0.59973 0.0
C31 C 0.46665 0.53183 0.54193 0.0
O32 O 0.40384 0.5017 0.48824 0.0
O33 O 0.4137 0.53615 0.44476 0.0
O34 O 0.45449 0.55173 0.53476 0.0
O35 O 0.4539 0.51303 0.55626 0.0
C36 C 0.4119 0.51025 0.67272 0.0
O37 O 0.41142 0.5714 0.60123 0.0
O38 O 0.37963 0.55204 0.56845 0.0
In39 In 0.72369 0.1509 0.80773 0.0
O40 O 0.75287 0.13209 0.87254 0.0
O41 O 0.72877 0.15957 0.91294 0.0
C42 C 0.73588 0.1375 0.68445 0.0
C43 C 0.68316 0.12732 0.85123 0.0
C44 C 0.7342 0.19949 0.80077 0.0
O45 O 0.75085 0.13608 0.73188 0.0
O46 O 0.71408 0.14353 0.70037 0.0
O47 O 0.71204 0.19183 0.80221 0.0
O48 O 0.75046 0.18285 0.79978 0.0
C49 C 0.74622 0.14457 0.92223 0.0
O50 O 0.68241 0.14965 0.83262 0.0
O51 O 0.70358 0.11642 0.84211 0.0
In52 In 0.08032 0.5453 0.56827 0.0
O53 O 0.08305 0.58511 0.52833 0.0
O54 O 0.1155 0.56284 0.52686 0.0
C55 C 0.0309 0.54142 0.58559 0.0
C56 C 0.08443 0.51809 0.45933 0.0
C57 C 0.09543 0.53297 0.69118 0.0
O58 O 0.04166 0.5622 0.58825 0.0
O59 O 0.04494 0.52327 0.57517 0.0
O60 O 0.09416 0.51759 0.64476 0.0
O61 O 0.09084 0.55503 0.67468 0.0
C62 C 0.10542 0.583 0.51082 0.0
O63 O 0.09805 0.51391 0.50868 0.0
O64 O 0.06867 0.53503 0.46665 0.0
In65 In 0.71755 0.84128 0.79569 0.0
O66 O 0.67646 0.83871 0.7674 0.0
O67 O 0.69505 0.87325 0.75518 0.0
C68 C 0.73203 0.79398 0.80668 0.0
C69 C 0.74017 0.84805 0.68165 0.0
C70 C 0.72846 0.85682 0.91795 0.0
O71 O 0.70931 0.79984 0.8086 0.0
O72 O 0.7469 0.81181 0.80227 0.0
O73 O 0.74323 0.85922 0.87034 0.0
O74 O 0.70729 0.84873 0.90261 0.0
C75 C 0.67562 0.86071 0.74626 0.0
O76 O 0.74437 0.86253 0.72937 0.0
O77 O 0.72541 0.83055 0.69317 0.0
In78 In 0.42244 0.45635 0.05252 0.0
O79 O 0.4256 0.41537 0.02449 0.0
O80 O 0.38978 0.43166 0.02636 0.0
C81 C 0.47062 0.46896 0.05495 0.0
C82 C 0.41079 0.47786 0.93872 0.0
C83 C 0.40953 0.46974 0.17635 0.0
O84 O 0.4636 0.44679 0.06127 0.0
O85 O 0.45348 0.48458 0.04817 0.0
O86 O 0.40221 0.48133 0.12626 0.0
O87 O 0.42215 0.45061 0.16407 0.0
C88 C 0.40291 0.41328 0.01078 0.0
O89 O 0.39944 0.48343 0.99107 0.0
O90 O 0.428 0.46236 0.94464 0.0
In91 In 0.7955 0.15744 0.30956 0.0
O92 O 0.77103 0.13663 0.23641 0.0
O93 O 0.7946 0.16574 0.20277 0.0
C94 C 0.77933 0.14012 0.42578 0.0
C95 C 0.8406 0.13962 0.27745 0.0
C96 C 0.77687 0.20364 0.31596 0.0
O97 O 0.77115 0.13214 0.37172 0.0
O98 O 0.79671 0.15568 0.42131 0.0
O99 O 0.79969 0.19947 0.32519 0.0
O100 O 0.76381 0.18478 0.30513 0.0
C101 C 0.77908 0.14924 0.18855 0.0
O102 O 0.8374 0.1621 0.29252 0.0
O103 O 0.82191 0.12601 0.28582 0.0
In104 In 0.88953 0.52433 0.06059 0.0
O105 O 0.85135 0.51552 0.01617 0.0
O106 O 0.88358 0.50322 0.96608 0.0
C107 C 0.87976 0.51952 0.19068 0.0
C108 C 0.88552 0.5686 0.00163 0.0
C109 C 0.93505 0.50452 0.05669 0.0
O110 O 0.87502 0.50273 0.14955 0.0
O111 O 0.88836 0.53913 0.16598 0.0
O112 O 0.93148 0.52753 0.06197 0.0
O113 O 0.91572 0.49139 0.05376 0.0
C114 C 0.86042 0.50583 0.96519 0.0
O115 O 0.90551 0.55655 0.00131 0.0
O116 O 0.86887 0.5599 0.03845 0.0
In117 In 0.2141 0.15496 0.79137 0.0
O118 O 0.2396 0.13509 0.7183 0.0
O119 O 0.21552 0.1637 0.68463 0.0
C120 C 0.23106 0.13858 0.90797 0.0
C121 C 0.16894 0.13705 0.76069 0.0
C122 C 0.23091 0.20163 0.79915 0.0
O123 O 0.23906 0.13026 0.85405 0.0
O124 O 0.21341 0.15379 0.90316 0.0
O125 O 0.20834 0.19658 0.80932 0.0
O126 O 0.24462 0.18341 0.78665 0.0
C127 C 0.23172 0.14784 0.67053 0.0
O128 O 0.17224 0.15954 0.77518 0.0
O129 O 0.18766 0.1234 0.7683 0.0
In130 In 0.6137 0.48163 0.51542 0.0
O131 O 0.62051 0.50098 0.41814 0.0
O132 O 0.65139 0.48338 0.46277 0.0
C133 C 0.62727 0.49316 0.64056 0.0
C134 C 0.61194 0.43413 0.47213 0.0
C135 C 0.56822 0.5021 0.51923 0.0
O136 O 0.63341 0.50626 0.59185 0.0
O137 O 0.61564 0.47371 0.62597 0.0
O138 O 0.57223 0.47987 0.53481 0.0
O139 O 0.58708 0.51413 0.5012 0.0
C140 C 0.64281 0.49439 0.41309 0.0
O141 O 0.59709 0.45062 0.45345 0.0
O142 O 0.62693 0.44143 0.5157 0.0
In143 In 0.30215 0.84327 0.33332 0.0
O144 O 0.2761 0.86649 0.26883 0.0
O145 O 0.29471 0.83508 0.22834 0.0
C146 C 0.28901 0.85688 0.45606 0.0
C147 C 0.34394 0.86514 0.29067 0.0
C148 C 0.28992 0.79493 0.3405 0.0
O149 O 0.2747 0.85903 0.40744 0.0
O150 O 0.31057 0.84941 0.44208 0.0
O151 O 0.31224 0.80198 0.34534 0.0
O152 O 0.27435 0.81204 0.33334 0.0
C153 C 0.28037 0.85306 0.21915 0.0
O154 O 0.34293 0.84208 0.30103 0.0
O155 O 0.32497 0.8771 0.30788 0.0
In156 In 0.88588 0.48493 0.5949 0.0
O157 O 0.89798 0.44853 0.64213 0.0
O158 O 0.86568 0.44823 0.58392 0.0
C159 C 0.93081 0.50622 0.59846 0.0
C160 C 0.85993 0.49874 0.70181 0.0
C161 C 0.87645 0.49655 0.4682 0.0
O162 O 0.92796 0.48305 0.5951 0.0
O163 O 0.91103 0.51866 0.60129 0.0
O164 O 0.86605 0.50778 0.51523 0.0
O165 O 0.89071 0.4792 0.48499 0.0
C166 C 0.8799 0.43611 0.62114 0.0
O167 O 0.84922 0.49394 0.64819 0.0
O168 O 0.8832 0.49828 0.69959 0.0
In169 In 0.28743 0.1561 0.28824 0.0
O170 O 0.32881 0.15682 0.31341 0.0
O171 O 0.30959 0.1223 0.31717 0.0
C172 C 0.27467 0.20415 0.28217 0.0
C173 C 0.26629 0.14808 0.4043 0.0
C174 C 0.27494 0.14184 0.1658 0.0
O175 O 0.29715 0.19745 0.28126 0.0
O176 O 0.25914 0.18682 0.283 0.0
O177 O 0.2604 0.13992 0.21407 0.0
O178 O 0.29647 0.14924 0.18028 0.0
C179 C 0.32937 0.13406 0.32805 0.0
O180 O 0.25988 0.13552 0.35459 0.0
O181 O 0.28275 0.16408 0.39426 0.0
In182 In 0.61755 0.52289 0.04965 0.0
O183 O 0.60038 0.55509 0.10711 0.0
O184 O 0.63746 0.55882 0.07342 0.0
C185 C 0.57141 0.50465 0.04981 0.0
C186 C 0.64526 0.50402 0.14798 0.0
C187 C 0.62813 0.51648 0.91956 0.0
O188 O 0.57596 0.52691 0.03504 0.0
O189 O 0.59006 0.49159 0.06389 0.0
O190 O 0.62891 0.49905 0.96071 0.0
O191 O 0.62373 0.53735 0.94471 0.0
C192 C 0.62015 0.56751 0.10807 0.0
O193 O 0.65517 0.51357 0.09784 0.0
O194 O 0.62211 0.50183 0.14479 0.0
In195 In 0.22811 0.84612 0.83293 0.0
O196 O 0.18688 0.84701 0.85909 0.0
O197 O 0.20577 0.8814 0.85191 0.0
C198 C 0.2381 0.79745 0.82426 0.0
C199 C 0.24756 0.85153 0.95261 0.0
C200 C 0.24532 0.86081 0.71503 0.0
O201 O 0.21655 0.80579 0.81372 0.0
O202 O 0.25422 0.81346 0.83772 0.0
O203 O 0.25469 0.86826 0.76832 0.0
O204 O 0.22641 0.84726 0.7212 0.0
C205 C 0.18627 0.8701 0.86853 0.0
O206 O 0.25825 0.86054 0.90269 0.0
O207 O 0.22774 0.84009 0.94103 0.0
In208 In 0.58218 0.95564 0.55114 0.0
O209 O 0.58653 0.91403 0.5674 0.0
O210 O 0.61789 0.93767 0.58236 0.0
C211 C 0.5343 0.96769 0.53504 0.0
C212 C 0.58453 0.97342 0.67317 0.0
C213 C 0.59802 0.96879 0.43132 0.0
O214 O 0.54093 0.94552 0.54529 0.0
O215 O 0.55177 0.98299 0.52986 0.0
O216 O 0.60174 0.98216 0.48143 0.0
O217 O 0.58829 0.94793 0.44287 0.0
C218 C 0.60866 0.91628 0.58747 0.0
O219 O 0.59526 0.98435 0.6259 0.0
O220 O 0.57271 0.95421 0.65786 0.0
In221 In 0.29739 0.34255 0.79923 0.0
O222 O 0.33861 0.3358 0.82103 0.0
O223 O 0.32492 0.37263 0.82614 0.0
C224 C 0.27895 0.29651 0.79016 0.0
C225 C 0.28019 0.35112 0.91919 0.0
C226 C 0.28157 0.36066 0.68329 0.0
O227 O 0.30152 0.30098 0.77813 0.0
O228 O 0.26601 0.31501 0.80534 0.0
O229 O 0.2727 0.36772 0.73747 0.0
O230 O 0.29938 0.3456 0.6876 0.0
C231 C 0.34262 0.35802 0.83714 0.0
O232 O 0.274 0.36495 0.87179 0.0
O233 O 0.29398 0.33318 0.90476 0.0
In234 In 0.89552 0.02814 0.07312 0.0
O235 O 0.91047 0.06 0.13498 0.0
O236 O 0.87918 0.06728 0.0762 0.0
C237 C 0.94248 0.01154 0.06695 0.0
C238 C 0.86849 0.01262 0.17667 0.0
C239 C 0.8819 0.01466 0.9492 0.0
O240 O 0.93652 0.03319 0.04985 0.0
O241 O 0.92489 0.99832 0.08783 0.0
O242 O 0.87741 0.00144 0.99889 0.0
O243 O 0.89181 0.03521 0.96219 0.0
C244 C 0.89416 0.07546 0.11875 0.0
O245 O 0.85866 0.02365 0.12865 0.0
O246 O 0.8911 0.00751 0.16942 0.0
In247 In 0.21929 0.65532 0.33682 0.0
O248 O 0.24255 0.63701 0.41723 0.0
O249 O 0.2102 0.65732 0.44319 0.0
C250 C 0.23574 0.63928 0.21957 0.0
C251 C 0.17277 0.63908 0.35472 0.0
C252 C 0.24182 0.69976 0.34021 0.0
O253 O 0.242 0.62878 0.27256 0.0
O254 O 0.22033 0.65669 0.22579 0.0
O255 O 0.21924 0.69758 0.3241 0.0
O256 O 0.25258 0.67984 0.3547 0.0
C257 C 0.2284 0.64485 0.46251 0.0
O258 O 0.17736 0.6617 0.34342 0.0
O259 O 0.19105 0.62469 0.34776 0.0
In260 In 0.58857 0.03163 0.05491 0.0
O261 O 0.60394 0.00231 0.98535 0.0
O262 O 0.57412 0.02526 0.95303 0.0
C263 C 0.60241 0.01235 0.17172 0.0
C264 C 0.61674 0.06942 0.0101 0.0
C265 C 0.53935 0.03025 0.07451 0.0
O266 O 0.60481 0.00081 0.11829 0.0
O267 O 0.59459 0.03425 0.16607 0.0
O268 O 0.55143 0.0502 0.08053 0.0
O269 O 0.552 0.0115 0.05964 0.0
C270 C 0.58935 0.00836 0.93958 0.0
O271 O 0.59425 0.07234 0.02519 0.0
O272 O 0.62537 0.04833 0.02274 0.0
In273 In 0.22641 0.35224 0.30123 0.0
O274 O 0.18602 0.35362 0.26759 0.0
O275 O 0.20639 0.38744 0.27006 0.0
C276 C 0.23804 0.30401 0.31 0.0
C277 C 0.24935 0.35674 0.18698 0.0
C278 C 0.2379 0.36522 0.42484 0.0
O279 O 0.21574 0.31124 0.31388 0.0
O280 O 0.25388 0.32095 0.30489 0.0
O281 O 0.25247 0.36872 0.37719 0.0
O282 O 0.21659 0.35756 0.409 0.0
C283 C 0.18663 0.37646 0.25383 0.0
O284 O 0.25677 0.36896 0.23641 0.0
O285 O 0.23078 0.3431 0.19638 0.0
In286 In 0.89126 0.97702 0.5444 0.0
O287 O 0.90519 0.94242 0.49092 0.0
O288 O 0.86755 0.9432 0.5217 0.0
C289 C 0.9386 0.99198 0.54641 0.0
C290 C 0.86695 0.99765 0.44244 0.0
C291 C 0.88068 0.98567 0.67356 0.0
O292 O 0.93262 0.96953 0.55343 0.0
O293 O 0.92082 0.00683 0.53828 0.0
O294 O 0.87854 0.002 0.6297 0.0
O295 O 0.88641 0.96456 0.65177 0.0
C296 C 0.88417 0.93226 0.48912 0.0
O297 O 0.89017 0.99766 0.44775 0.0
O298 O 0.85547 0.98928 0.49169 0.0
In299 In 0.28553 0.64839 0.83188 0.0
O300 O 0.32585 0.6491 0.79451 0.0
O301 O 0.3063 0.61495 0.7946 0.0
C302 C 0.27255 0.69649 0.83646 0.0
C303 C 0.25946 0.63765 0.72572 0.0
C304 C 0.27661 0.63625 0.95825 0.0
O305 O 0.29505 0.68986 0.83904 0.0
O306 O 0.25716 0.67907 0.83316 0.0
O307 O 0.26109 0.63268 0.91301 0.0
O308 O 0.29746 0.64403 0.93907 0.0
C309 C 0.32549 0.62658 0.77741 0.0
O310 O 0.2571 0.62477 0.77729 0.0
O311 O 0.27427 0.65562 0.72899 0.0
In312 In 0.3866 0.02049 0.53567 0.0
O313 O 0.40149 0.05541 0.48602 0.0
O314 O 0.36428 0.05572 0.51998 0.0
C315 C 0.43279 0.00236 0.53013 0.0
C316 C 0.35991 0.00292 0.43399 0.0
C317 C 0.37741 0.01145 0.66494 0.0
O318 O 0.42827 0.02523 0.53496 0.0
O319 O 0.41396 0.98852 0.52728 0.0
O320 O 0.3703 0.99712 0.61985 0.0
O321 O 0.38808 0.03078 0.64504 0.0
C322 C 0.38095 0.06648 0.48721 0.0
O323 O 0.34963 0.01191 0.4843 0.0
O324 O 0.38307 0.00068 0.43805 0.0
In325 In 0.71773 0.65072 0.29341 0.0
O326 O 0.6756 0.65445 0.2818 0.0
O327 O 0.69167 0.61854 0.27615 0.0
C328 C 0.73419 0.69775 0.29739 0.0
C329 C 0.73293 0.64238 0.17073 0.0
C330 C 0.73546 0.63382 0.40836 0.0
O331 O 0.71186 0.69243 0.31003 0.0
O332 O 0.74793 0.67959 0.28446 0.0
O333 O 0.74297 0.6256 0.35384 0.0
O334 O 0.71817 0.64948 0.40499 0.0
C335 C 0.67259 0.63175 0.26911 0.0
O336 O 0.74349 0.63207 0.21897 0.0
O337 O 0.71518 0.65647 0.18511 0.0
In338 In 0.0928 0.96872 0.0427 0.0
O339 O 0.12007 0.98952 0.97608 0.0
O340 O 0.08697 0.97483 0.93471 0.0
C341 C 0.1031 0.9865 0.16349 0.0
C342 C 0.11524 0.92497 0.01816 0.0
C343 C 0.04413 0.9786 0.04783 0.0
O344 O 0.10761 0.99867 0.11186 0.0
O345 O 0.09445 0.96509 0.15421 0.0
O346 O 0.05247 0.95704 0.05799 0.0
O347 O 0.06017 0.99475 0.034 0.0
C348 C 0.10726 0.98573 0.92507 0.0
O349 O 0.09217 0.92786 0.01198 0.0
O350 O 0.1262 0.94351 0.04208 0.0
In351 In 0.77998 0.3484 0.81286 0.0
O352 O 0.75163 0.3685 0.74845 0.0
O353 O 0.7717 0.33752 0.71036 0.0
C354 C 0.7689 0.36325 0.93567 0.0
C355 C 0.82088 0.37038 0.76455 0.0
C356 C 0.76878 0.30015 0.82397 0.0
O357 O 0.7535 0.36408 0.8892 0.0
O358 O 0.79053 0.35697 0.91889 0.0
O359 O 0.79106 0.30754 0.82429 0.0
O360 O 0.75273 0.31697 0.82126 0.0
C361 C 0.75593 0.35424 0.70034 0.0
O362 O 0.82112 0.3482 0.78442 0.0
O363 O 0.8007 0.38173 0.77318 0.0
In364 In 0.39286 0.97964 0.07237 0.0
O365 O 0.41054 0.94676 0.12584 0.0
O366 O 0.37381 0.94274 0.09022 0.0
C367 C 0.43766 0.00114 0.07805 0.0
C368 C 0.36295 0.99497 0.17049 0.0
C369 C 0.38278 0.987 0.94279 0.0
O370 O 0.43493 0.97822 0.06835 0.0
O371 O 0.41788 0.01334 0.08498 0.0
O372 O 0.37778 0.00279 0.98645 0.0
O373 O 0.3917 0.96706 0.96468 0.0
C374 C 0.39106 0.93388 0.12472 0.0
O375 O 0.35436 0.98568 0.11841 0.0
O376 O 0.38598 0.9986 0.17003 0.0
In377 In 0.78908 0.64901 0.79 0.0
O378 O 0.76237 0.62683 0.85537 0.0
O379 O 0.78296 0.65698 0.8956 0.0
C380 C 0.77821 0.63458 0.66677 0.0
C381 C 0.83208 0.62977 0.8307 0.0
C382 C 0.7742 0.69636 0.78295 0.0
O383 O 0.7632 0.6323 0.71391 0.0
O384 O 0.79946 0.64222 0.68297 0.0
O385 O 0.79696 0.69076 0.78512 0.0
O386 O 0.75951 0.67833 0.7812 0.0
C387 C 0.76742 0.64004 0.90501 0.0
O388 O 0.83025 0.6523 0.81457 0.0
O389 O 0.81303 0.61675 0.82059 0.0
In390 In 0.0893 0.03473 0.55646 0.0
O391 O 0.08236 0.07265 0.60362 0.0
O392 O 0.11931 0.06313 0.5776 0.0
C393 C 0.04099 0.02299 0.55113 0.0
C394 C 0.1077 0.01122 0.66106 0.0
C395 C 0.1007 0.0236 0.43037 0.0
O396 O 0.04864 0.04466 0.53944 0.0
O397 O 0.05756 0.00748 0.56552 0.0
O398 O 0.10291 0.00825 0.47659 0.0
O399 O 0.09423 0.04504 0.44807 0.0
C400 C 0.10507 0.07808 0.6065 0.0
O401 O 0.08614 0.02002 0.65912 0.0
O402 O 0.12008 0.01295 0.60856 0.0
In403 In 0.70954 0.34465 0.30925 0.0
O404 O 0.66723 0.34178 0.31939 0.0
O405 O 0.68417 0.37728 0.32697 0.0
C406 C 0.72745 0.29817 0.30319 0.0
C407 C 0.72333 0.35166 0.43321 0.0
C408 C 0.72732 0.36223 0.1953 0.0
O409 O 0.70489 0.30279 0.29118 0.0
O410 O 0.7406 0.31673 0.31649 0.0
O411 O 0.73504 0.3699 0.2502 0.0
O412 O 0.70982 0.34676 0.1979 0.0
C413 C 0.6647 0.36456 0.3322 0.0
O414 O 0.73398 0.36299 0.38665 0.0
O415 O 0.70623 0.33714 0.41654 0.0
C416 C 0.96991 0.47995 0.1052 0.0
C417 C 0.96019 0.49384 0.05203 0.0
C418 C 1.00005 0.49159 0.99465 0.0
C419 C 0.00977 0.47766 0.04772 0.0
N420 N 0.00351 0.45474 0.14774 0.0
N421 N 0.96379 0.50877 0.94097 0.0
C422 C 0.99445 0.47046 0.10098 0.0
C423 C 0.97463 0.49844 0.99511 0.0
N424 N 0.95614 0.47703 0.1611 0.0
N425 N 0.01536 0.49869 0.94455 0.0
H426 H 0.94518 0.51393 0.93964 0.0
H427 H 0.97255 0.51049 0.89567 0.0
H428 H 0.03358 0.49246 0.94032 0.0
H429 H 0.01047 0.5115 0.90871 0.0
H430 H 0.96306 0.46966 0.20456 0.0
H431 H 0.93804 0.48351 0.16572 0.0
H432 H 0.99271 0.44683 0.18448 0.0
H433 H 0.02161 0.44802 0.14702 0.0
C434 C 0.77202 0.75479 0.34151 0.0
C435 C 0.76815 0.76941 0.28457 0.0
C436 C 0.73942 0.73843 0.24044 0.0
C437 C 0.74398 0.72333 0.29608 0.0
N438 N 0.76467 0.71604 0.39887 0.0
N439 N 0.75224 0.77376 0.175 0.0
C440 C 0.7604 0.73119 0.34635 0.0
C441 C 0.75294 0.76084 0.23268 0.0
N442 N 0.78613 0.76392 0.39176 0.0
N443 N 0.72193 0.73149 0.19555 0.0
H444 H 0.76262 0.78979 0.16747 0.0
H445 H 0.74335 0.76759 0.13275 0.0
H446 H 0.71197 0.71502 0.19914 0.0
H447 H 0.7159 0.74274 0.15735 0.0
H448 H 0.78764 0.75569 0.43772 0.0
H449 H 0.79576 0.78058 0.38855 0.0
H450 H 0.77845 0.71895 0.43366 0.0
H451 H 0.75453 0.69992 0.40703 0.0
C452 C 0.50727 0.52256 0.59489 0.0
C453 C 0.49403 0.5301 0.53812 0.0
C454 C 0.53042 0.52181 0.46929 0.0
C455 C 0.54338 0.51351 0.52583 0.0
N456 N 0.54646 0.51052 0.64364 0.0
N457 N 0.49416 0.54243 0.42454 0.0
C458 C 0.53247 0.51527 0.58907 0.0
C459 C 0.50608 0.53169 0.47638 0.0
N460 N 0.49547 0.52199 0.6543 0.0
N461 N 0.54078 0.51882 0.40849 0.0
H462 H 0.47621 0.5494 0.42793 0.0
H463 H 0.5026 0.54628 0.37976 0.0
H464 H 0.55853 0.5117 0.40136 0.0
H465 H 0.53131 0.52174 0.3647 0.0
H466 H 0.50259 0.51348 0.69602 0.0
H467 H 0.47797 0.52967 0.66152 0.0
H468 H 0.54063 0.51397 0.69148 0.0
H469 H 0.56482 0.50467 0.64124 0.0
C470 C 0.75463 0.23676 0.75273 0.0
C471 C 0.74133 0.22587 0.80535 0.0
C472 C 0.74671 0.26355 0.87124 0.0
C473 C 0.76137 0.27383 0.82019 0.0
N474 N 0.78102 0.27003 0.7141 0.0
N475 N 0.72702 0.22721 0.91758 0.0
C476 C 0.76594 0.26031 0.76154 0.0
C477 C 0.73781 0.23887 0.86527 0.0
N478 N 0.75556 0.22489 0.69341 0.0
N479 N 0.74117 0.27751 0.92536 0.0
H480 H 0.71964 0.20944 0.9149 0.0
H481 H 0.72677 0.23438 0.965 0.0
H482 H 0.74891 0.29488 0.93402 0.0
H483 H 0.72802 0.27249 0.96028 0.0
H484 H 0.76257 0.23272 0.65063 0.0
H485 H 0.74741 0.20767 0.68542 0.0
H486 H 0.78742 0.26011 0.67374 0.0
H487 H 0.78855 0.28774 0.71663 0.0
C488 C 0.98991 0.54072 0.6451 0.0
C489 C 0.00365 0.53806 0.58619 0.0
C490 C 0.9693 0.51576 0.53483 0.0
C491 C 0.95549 0.51803 0.59391 0.0
N492 N 0.95058 0.53589 0.7018 0.0
N493 N 0.00388 0.53053 0.46993 0.0
C494 C 0.96508 0.53175 0.64783 0.0
C495 C 0.99251 0.52784 0.52949 0.0
N496 N 0.00099 0.55087 0.69901 0.0
N497 N 0.96051 0.5017 0.48408 0.0
H498 H 0.0204 0.5403 0.46443 0.0
H499 H 0.99576 0.52559 0.42546 0.0
H500 H 0.94307 0.49347 0.48412 0.0
H501 H 0.97112 0.49688 0.44332 0.0
H502 H 0.99344 0.5505 0.74601 0.0
H503 H 0.01836 0.55918 0.69679 0.0
H504 H 0.95539 0.54782 0.73981 0.0
H505 H 0.93292 0.52836 0.70729 0.0
C506 C 0.76698 0.73499 0.8483 0.0
C507 C 0.76475 0.72196 0.78803 0.0
C508 C 0.73759 0.75442 0.74447 0.0
C509 C 0.74116 0.76822 0.8031 0.0
N510 N 0.76121 0.77338 0.908 0.0
N511 N 0.75102 0.7202 0.67573 0.0
C512 C 0.75648 0.75901 0.85414 0.0
C513 C 0.75079 0.73189 0.73535 0.0
N514 N 0.77812 0.72396 0.901 0.0
N515 N 0.72167 0.7629 0.69735 0.0
H516 H 0.76065 0.70377 0.6674 0.0
H517 H 0.7435 0.72762 0.63306 0.0
H518 H 0.71255 0.77984 0.70048 0.0
H519 H 0.71612 0.75253 0.65692 0.0
H520 H 0.77748 0.73106 0.94849 0.0
H521 H 0.78662 0.70669 0.89855 0.0
H522 H 0.77465 0.76918 0.94287 0.0
H523 H 0.75259 0.79036 0.91623 0.0
C524 C 0.53209 0.49382 0.99162 0.0
C525 C 0.54598 0.49451 0.05061 0.0
C526 C 0.51184 0.47453 0.10988 0.0
C527 C 0.497 0.47631 0.05256 0.0
N528 N 0.49202 0.48917 0.93973 0.0
N529 N 0.54835 0.4888 0.16791 0.0
C530 C 0.50683 0.48649 0.99372 0.0
C531 C 0.53575 0.48556 0.11027 0.0
N532 N 0.5434 0.499 0.9331 0.0
N533 N 0.50307 0.46238 0.16399 0.0
H534 H 0.56577 0.49707 0.17042 0.0
H535 H 0.54076 0.48528 0.21396 0.0
H536 H 0.48533 0.45489 0.16669 0.0
H537 H 0.51398 0.45808 0.20455 0.0
H538 H 0.53508 0.49634 0.88755 0.0
H539 H 0.56204 0.50386 0.92952 0.0
H540 H 0.49706 0.49942 0.89857 0.0
H541 H 0.47405 0.48222 0.9371 0.0
C542 C 0.73451 0.2573 0.35798 0.0
C543 C 0.73829 0.27297 0.30303 0.0
C544 C 0.76857 0.24362 0.25747 0.0
C545 C 0.7658 0.22872 0.31439 0.0
N546 N 0.74966 0.22291 0.42336 0.0
N547 N 0.75868 0.28192 0.20072 0.0
C548 C 0.74965 0.23595 0.36584 0.0
C549 C 0.75532 0.26635 0.25285 0.0
N550 N 0.71626 0.26275 0.40227 0.0
N551 N 0.78328 0.23559 0.20708 0.0
H552 H 0.74745 0.29732 0.1927 0.0
H553 H 0.77276 0.28009 0.16621 0.0
H554 H 0.79407 0.21964 0.21002 0.0
H555 H 0.78412 0.24393 0.16114 0.0
H556 H 0.71086 0.25092 0.43993 0.0
H557 H 0.70508 0.2784 0.39849 0.0
H558 H 0.7401 0.22832 0.46536 0.0
H559 H 0.76119 0.20772 0.43114 0.0
C560 C 0.26834 0.25776 0.8509 0.0
C561 C 0.26828 0.27136 0.79127 0.0
C562 C 0.23998 0.24131 0.74145 0.0
C563 C 0.24109 0.22699 0.79967 0.0
N564 N 0.25598 0.22057 0.90962 0.0
N565 N 0.25774 0.27468 0.67692 0.0
C566 C 0.25518 0.23497 0.85446 0.0
C567 C 0.25507 0.26276 0.7357 0.0
N568 N 0.28073 0.26692 0.9042 0.0
N569 N 0.22416 0.23456 0.6922 0.0
H570 H 0.26919 0.29007 0.67113 0.0
H571 H 0.25047 0.26824 0.6328 0.0
H572 H 0.21294 0.21889 0.6949 0.0
H573 H 0.22066 0.24535 0.65094 0.0
H574 H 0.27955 0.25959 0.95128 0.0
H575 H 0.29182 0.28268 0.90189 0.0
H576 H 0.26783 0.2236 0.94902 0.0
H577 H 0.2449 0.20493 0.91549 0.0
C578 C 0.28151 0.75433 0.39576 0.0
C579 C 0.28203 0.76864 0.33765 0.0
C580 C 0.25873 0.73637 0.27894 0.0
C581 C 0.25546 0.72361 0.33928 0.0
N582 N 0.26284 0.72042 0.45587 0.0
N583 N 0.27394 0.77285 0.22212 0.0
C584 C 0.26688 0.73243 0.39777 0.0
C585 C 0.27148 0.75944 0.27861 0.0
N586 N 0.29531 0.76154 0.44862 0.0
N587 N 0.25048 0.72591 0.22175 0.0
H588 H 0.28541 0.7883 0.21896 0.0
H589 H 0.26464 0.76905 0.1786 0.0
H590 H 0.24095 0.70916 0.22004 0.0
H591 H 0.2542 0.7328 0.17515 0.0
H592 H 0.29764 0.75095 0.4908 0.0
H593 H 0.30649 0.77724 0.4479 0.0
H594 H 0.26802 0.72734 0.50151 0.0
H595 H 0.25272 0.70409 0.45923 0.0
C596 C 0.27093 0.24335 0.34734 0.0
C597 C 0.26654 0.23021 0.2881 0.0
C598 C 0.23993 0.26387 0.2484 0.0
C599 C 0.24569 0.27773 0.30572 0.0
N600 N 0.26883 0.28223 0.40635 0.0
N601 N 0.24995 0.2288 0.17855 0.0
C602 C 0.26187 0.26792 0.35412 0.0
C603 C 0.25175 0.24066 0.23772 0.0
N604 N 0.28276 0.23195 0.39842 0.0
N605 N 0.22332 0.27296 0.20384 0.0
H606 H 0.25855 0.2119 0.16904 0.0
H607 H 0.24177 0.23647 0.13705 0.0
H608 H 0.21532 0.29043 0.20757 0.0
H609 H 0.21618 0.26267 0.16503 0.0
H610 H 0.28366 0.23927 0.44564 0.0
H611 H 0.2902 0.21422 0.39525 0.0
H612 H 0.28299 0.27747 0.4386 0.0
H613 H 0.26139 0.29968 0.41559 0.0
C614 C 0.24806 0.7316 0.88404 0.0
C615 C 0.26422 0.72262 0.83424 0.0
C616 C 0.25878 0.76117 0.77199 0.0
C617 C 0.24436 0.77081 0.82418 0.0
N618 N 0.22565 0.76638 0.93083 0.0
N619 N 0.28596 0.72874 0.73185 0.0
C620 C 0.2389 0.75626 0.88024 0.0
C621 C 0.26997 0.73743 0.7786 0.0
N622 N 0.2414 0.71645 0.9349 0.0
N623 N 0.26082 0.77441 0.71502 0.0
H624 H 0.29324 0.7109 0.73233 0.0
H625 H 0.29315 0.73952 0.6941 0.0
H626 H 0.25207 0.79143 0.70832 0.0
H627 H 0.26922 0.76787 0.67245 0.0
H628 H 0.22743 0.72053 0.96837 0.0
H629 H 0.24918 0.69904 0.94246 0.0
H630 H 0.2236 0.75818 0.97669 0.0
H631 H 0.21749 0.78384 0.92815 0.0
C632 C 0.46705 0.97638 0.48188 0.0
C633 C 0.45841 0.99256 0.53186 0.0
C634 C 0.49987 0.99392 0.58012 0.0
C635 C 0.50806 0.97585 0.53409 0.0
N636 N 0.49885 0.94792 0.44477 0.0
N637 N 0.46509 0.01201 0.63716 0.0
C638 C 0.49138 0.96628 0.48648 0.0
C639 C 0.4744 4e-05 0.5833 0.0
N640 N 0.45263 0.97184 0.42802 0.0
N641 N 0.51631 0.00566 0.6206 0.0
H642 H 0.44647 0.01661 0.64254 0.0
H643 H 0.47534 0.01511 0.67971 0.0
H644 H 0.53503 0.00136 0.62342 0.0
H645 H 0.51167 0.02117 0.64838 0.0
H646 H 0.45888 0.96245 0.38657 0.0
H647 H 0.43503 0.97941 0.42186 0.0
H648 H 0.48674 0.93818 0.41456 0.0
H649 H 0.51696 0.94132 0.44293 0.0
C650 C 0.98113 0.99501 0.11947 0.0
C651 C 0.96822 0.00221 0.06183 0.0
C652 C 0.00492 0.99314 0.99475 0.0
C653 C 0.01748 0.98494 0.05199 0.0
N654 N 0.0172 0.97532 0.16768 0.0
N655 N 0.9661 0.00498 0.94376 0.0
C656 C 0.00539 0.98486 0.11395 0.0
C657 C 0.97967 0.00049 0.99921 0.0
N658 N 0.97073 0.99925 0.17975 0.0
N659 N 0.01725 0.9941 0.93608 0.0
H660 H 0.94775 0.01093 0.94486 0.0
H661 H 0.97229 0.00118 0.89642 0.0
H662 H 0.03502 0.98698 0.92947 0.0
H663 H 0.01042 0.00294 0.8945 0.0
H664 H 0.9801 0.99707 0.22399 0.0
H665 H 0.95317 0.00694 0.18585 0.0
H666 H 0.00852 0.97204 0.21246 0.0
H667 H 0.03549 0.96917 0.16675 0.0
C668 C 0.50208 0.01739 0.13867 0.0
C669 C 0.51215 0.02844 0.08145 0.0
C670 C 0.47221 0.02478 0.02504 0.0
C671 C 0.46243 0.01275 0.08129 0.0
N672 N 0.46567 0.00174 0.19548 0.0
N673 N 0.50649 0.04725 0.97551 0.0
C674 C 0.47667 0.01038 0.13947 0.0
C675 C 0.497 0.03374 0.02641 0.0
N676 N 0.51711 0.01314 0.19147 0.0
N677 N 0.45809 0.02658 0.9695 0.0
H678 H 0.52467 0.05376 0.97501 0.0
H679 H 0.49606 0.05364 0.9361 0.0
H680 H 0.43959 0.02107 0.96772 0.0
H681 H 0.46479 0.03246 0.92424 0.0
H682 H 0.51209 0.00258 0.23201 0.0
H683 H 0.53522 0.01982 0.19389 0.0
H684 H 0.47422 0.00132 0.2412 0.0
H685 H 0.4471 0.99642 0.19733 0.0
C686 C 0.99787 0.02503 0.59657 0.0
C687 C 0.01452 0.01599 0.54823 0.0
C688 C 0.9808 0.99292 0.49555 0.0
C689 C 0.96467 0.00033 0.5469 0.0
N690 N 0.95811 0.02053 0.651 0.0
N691 N 0.02294 0.98945 0.45545 0.0
C692 C 0.97321 0.01576 0.59851 0.0
C693 C 0.00631 0.99932 0.49888 0.0
N694 N 0.00566 0.04239 0.64088 0.0
N695 N 0.97148 0.98067 0.44219 0.0
H696 H 0.0415 0.99467 0.45369 0.0
H697 H 0.01876 0.97498 0.4236 0.0
H698 H 0.95288 0.97573 0.4379 0.0
H699 H 0.9816 0.97718 0.39968 0.0
H700 H 0.99376 0.05187 0.67225 0.0
H701 H 0.02392 0.04854 0.64377 0.0
H702 H 0.96402 0.02924 0.69378 0.0
H703 H 0.93997 0.01402 0.65425 0.0
C704 C 0.08349 0.52301 0.87462 0.0
C705 C 0.10092 0.50409 0.88873 0.0
C706 C 0.11828 0.50855 0.77766 0.0
C707 C 0.09869 0.52491 0.76082 0.0
N708 N 0.05978 0.54398 0.79113 0.0
N709 N 0.13409 0.47753 0.85313 0.0
C710 C 0.08072 0.53146 0.80894 0.0
C711 C 0.11812 0.49649 0.84002 0.0
N712 N 0.06909 0.53268 0.92358 0.0
N713 N 0.13745 0.50517 0.73474 0.0
H714 H 0.1354 0.46927 0.8993 0.0
H715 H 0.14505 0.46909 0.81749 0.0
H716 H 0.13845 0.51423 0.68961 0.0
H717 H 0.15343 0.49532 0.74622 0.0
H718 H 0.05837 0.54854 0.9176 0.0
H719 H 0.06917 0.52618 0.97168 0.0
H720 H 0.04463 0.54639 0.82216 0.0
H721 H 0.05622 0.54985 0.74348 0.0
C722 C 0.73181 0.84055 0.03357 0.0
C723 C 0.73685 0.85958 0.98718 0.0
C724 C 0.76453 0.87956 0.06711 0.0
C725 C 0.75805 0.86139 0.11409 0.0
N726 N 0.72989 0.82918 0.14805 0.0
N727 N 0.7535 0.90017 0.9654 0.0
C728 C 0.73971 0.84353 0.09937 0.0
C729 C 0.75189 0.88003 0.00564 0.0
N730 N 0.72147 0.81861 0.01437 0.0
N731 N 0.78293 0.89608 0.08085 0.0
H732 H 0.74373 0.9015 0.92137 0.0
H733 H 0.76245 0.91648 0.97866 0.0
H734 H 0.79174 0.89677 0.12642 0.0
H735 H 0.79041 0.90804 0.04599 0.0
H736 H 0.72009 0.80336 0.04543 0.0
H737 H 0.71698 0.81431 0.96603 0.0
H738 H 0.71471 0.8176 0.14071 0.0
H739 H 0.73524 0.83064 0.19703 0.0
C740 C 0.38538 0.4824 0.27745 0.0
C741 C 0.40825 0.4807 0.24329 0.0
C742 C 0.4299 0.49845 0.33811 0.0
C743 C 0.40687 0.50223 0.37017 0.0
N744 N 0.36237 0.5001 0.369 0.0
N745 N 0.45142 0.49197 0.23545 0.0
C746 C 0.38447 0.49476 0.33953 0.0
C747 C 0.43028 0.49004 0.27211 0.0
N748 N 0.36473 0.47165 0.25123 0.0
N749 N 0.45155 0.50197 0.37159 0.0
H750 H 0.45245 0.48656 0.18643 0.0
H751 H 0.46724 0.50116 0.25152 0.0
H752 H 0.45214 0.50772 0.42038 0.0
H753 H 0.46881 0.49687 0.35323 0.0
H754 H 0.348 0.46998 0.27619 0.0
H755 H 0.36483 0.46278 0.20571 0.0
H756 H 0.34526 0.4975 0.34659 0.0
H757 H 0.3612 0.50877 0.4147 0.0
C758 C 0.76171 0.11706 0.59661 0.0
C759 C 0.74438 0.13565 0.61501 0.0
C760 C 0.74546 0.1518 0.50264 0.0
C761 C 0.76585 0.13627 0.48822 0.0
N762 N 0.79462 0.10479 0.5219 0.0
N763 N 0.72409 0.17439 0.58712 0.0
C764 C 0.77435 0.11902 0.53533 0.0
C765 C 0.73712 0.15387 0.56835 0.0
N766 N 0.76549 0.09715 0.63664 0.0
N767 N 0.73408 0.16483 0.45375 0.0
H768 H 0.71882 0.17813 0.63521 0.0
H769 H 0.72099 0.18935 0.55593 0.0
H770 H 0.7397 0.16406 0.40486 0.0
H771 H 0.71757 0.17446 0.46079 0.0
H772 H 0.7763 0.082 0.62336 0.0
H773 H 0.75571 0.09456 0.6803 0.0
H774 H 0.80338 0.09384 0.55693 0.0
H775 H 0.80356 0.10514 0.47645 0.0
C776 C 0.89856 0.52018 0.30377 0.0
C777 C 0.87774 0.51556 0.2629 0.0
C778 C 0.85503 0.49908 0.35822 0.0
C779 C 0.87533 0.50523 0.39913 0.0
N780 N 0.91331 0.52785 0.41408 0.0
N781 N 0.8344 0.50528 0.25358 0.0
C782 C 0.89609 0.51779 0.37285 0.0
C783 C 0.85541 0.50633 0.29081 0.0
N784 N 0.92119 0.52524 0.2768 0.0
N785 N 0.83573 0.48576 0.38329 0.0
H786 H 0.83386 0.511 0.2047 0.0
H787 H 0.81705 0.50095 0.27267 0.0
H788 H 0.8346 0.48088 0.43278 0.0
H789 H 0.82171 0.47823 0.35444 0.0
H790 H 0.93742 0.52609 0.30437 0.0
H791 H 0.92441 0.52593 0.22638 0.0
H792 H 0.92763 0.53925 0.39791 0.0
H793 H 0.91174 0.52695 0.46507 0.0
C794 C 0.23723 0.11917 0.01935 0.0
C795 C 0.24504 0.13587 0.97007 0.0
C796 C 0.27275 0.1562 0.048 0.0
C797 C 0.26628 0.13854 0.09689 0.0
N798 N 0.24709 0.0994 0.12296 0.0
N799 N 0.27586 0.16483 0.932 0.0
C800 C 0.2499 0.11883 0.08075 0.0
C801 C 0.26479 0.15244 0.98252 0.0
N802 N 0.21756 0.10391 0.00784 0.0
N803 N 0.28457 0.17771 0.06428 0.0
H804 H 0.27054 0.16267 0.88318 0.0
H805 H 0.2919 0.17531 0.93805 0.0
H806 H 0.28897 0.18279 0.11214 0.0
H807 H 0.28732 0.19207 0.03093 0.0
H808 H 0.20924 0.09326 0.04432 0.0
H809 H 0.20866 0.10306 0.96241 0.0
H810 H 0.23702 0.08357 0.11138 0.0
H811 H 0.25702 0.09793 0.1667 0.0
C812 C 0.64814 0.49632 0.82028 0.0
C813 C 0.62973 0.51229 0.84687 0.0
C814 C 0.61438 0.52014 0.73499 0.0
C815 C 0.63021 0.50142 0.71003 0.0
N816 N 0.66095 0.47004 0.72955 0.0
N817 N 0.59164 0.53504 0.82905 0.0
C818 C 0.64672 0.48898 0.75296 0.0
C819 C 0.612 0.52327 0.80409 0.0
N820 N 0.66758 0.48899 0.85851 0.0
N821 N 0.60128 0.53483 0.69292 0.0
H822 H 0.58795 0.53662 0.87903 0.0
H823 H 0.57684 0.54078 0.80005 0.0
H824 H 0.60179 0.5328 0.64205 0.0
H825 H 0.59158 0.55046 0.70831 0.0
H826 H 0.68275 0.47925 0.84036 0.0
H827 H 0.66985 0.49482 0.90695 0.0
H828 H 0.67117 0.45834 0.75977 0.0
H829 H 0.66135 0.4651 0.68002 0.0
C830 C 0.25263 0.88047 0.60434 0.0
C831 C 0.25884 0.8624 0.65186 0.0
C832 C 0.28466 0.84079 0.57158 0.0
C833 C 0.28001 0.85975 0.52482 0.0
N834 N 0.26382 0.90043 0.50176 0.0
N835 N 0.28601 0.82942 0.68617 0.0
C836 C 0.2652 0.88046 0.54267 0.0
C837 C 0.27668 0.844 0.63731 0.0
N838 N 0.23452 0.89736 0.61776 0.0
N839 N 0.29482 0.81875 0.55265 0.0
H840 H 0.28052 0.83094 0.73505 0.0
H841 H 0.3009 0.81744 0.67912 0.0
H842 H 0.29943 0.81457 0.50433 0.0
H843 H 0.29597 0.80346 0.58362 0.0
H844 H 0.2272 0.90929 0.58263 0.0
H845 H 0.22575 0.89837 0.66337 0.0
H846 H 0.25512 0.91693 0.51456 0.0
H847 H 0.2735 0.90141 0.45749 0.0
C848 C 0.58246 0.98461 0.25407 0.0
C849 C 0.60297 0.9995 0.23601 0.0
C850 C 0.62236 0.99086 0.34266 0.0
C851 C 0.60036 0.97872 0.36345 0.0
N852 N 0.55692 0.97043 0.34337 0.0
N853 N 0.64161 0.0189 0.26446 0.0
C854 C 0.57975 0.97714 0.32029 0.0
C855 C 0.6227 0.00331 0.28081 0.0
N856 N 0.56532 0.97764 0.2083 0.0
N857 N 0.64311 0.98978 0.38086 0.0
H858 H 0.64285 0.02741 0.21859 0.0
H859 H 0.65517 0.02456 0.29755 0.0
H860 H 0.64364 0.98034 0.42548 0.0
H861 H 0.66034 0.99627 0.36572 0.0
H862 H 0.55162 0.96455 0.21777 0.0
H863 H 0.56596 0.98318 0.1594 0.0
H864 H 0.54085 0.97161 0.31522 0.0
H865 H 0.55326 0.96665 0.39255 0.0
C866 C 0.26198 0.38582 0.51596 0.0
C867 C 0.24665 0.36605 0.49413 0.0
C868 C 0.24964 0.34711 0.60304 0.0
C869 C 0.26815 0.36439 0.62072 0.0
N870 N 0.29329 0.39964 0.59353 0.0
N871 N 0.23089 0.32462 0.51423 0.0
C872 C 0.27471 0.38367 0.57706 0.0
C873 C 0.24156 0.3459 0.53704 0.0
N874 N 0.26373 0.40693 0.4794 0.0
N875 N 0.23969 0.33172 0.64924 0.0
H876 H 0.22612 0.32161 0.46542 0.0
H877 H 0.22948 0.30862 0.54249 0.0
H878 H 0.24509 0.33195 0.69832 0.0
H879 H 0.22436 0.32053 0.6401 0.0
H880 H 0.27287 0.42277 0.49541 0.0
H881 H 0.25389 0.40948 0.43586 0.0
H882 H 0.30079 0.41242 0.56088 0.0
H883 H 0.30224 0.399 0.63892 0.0
C884 C 0.86112 0.01468 0.83776 0.0
C885 C 0.87964 0.00532 0.88047 0.0
C886 C 0.89931 0.9841 0.78739 0.0
C887 C 0.87964 0.99161 0.74541 0.0
N888 N 0.83928 0.01022 0.73415 0.0
N889 N 0.91323 0.97666 0.89856 0.0
C890 C 0.85981 0.00588 0.7716 0.0
C891 C 0.89758 0.98846 0.85616 0.0
N892 N 0.84489 0.03212 0.86024 0.0
N893 N 0.92064 0.97455 0.76143 0.0
H894 H 0.91323 0.97977 0.94906 0.0
H895 H 0.9248 0.96221 0.88421 0.0
H896 H 0.92367 0.97243 0.71123 0.0
H897 H 0.93653 0.97141 0.78918 0.0
H898 H 0.8328 0.04178 0.82978 0.0
H899 H 0.84459 0.03804 0.90901 0.0
H900 H 0.82325 0.01844 0.75231 0.0
H901 H 0.83734 0.00344 0.68648 0.0
C902 C 0.25642 0.61402 0.05303 0.0
C903 C 0.26937 0.63503 0.02869 0.0
C904 C 0.26583 0.65464 0.13676 0.0
C905 C 0.24941 0.63574 0.15715 0.0
N906 N 0.22799 0.59767 0.13492 0.0
N907 N 0.28215 0.67762 0.04523 0.0
C908 C 0.24453 0.61533 0.11556 0.0
C909 C 0.27323 0.65587 0.0701 0.0
N910 N 0.25602 0.59269 0.01705 0.0
N911 N 0.2746 0.67135 0.1814 0.0
H912 H 0.28677 0.68025 0.99612 0.0
H913 H 0.28246 0.69402 0.0721 0.0
H914 H 0.26991 0.67072 0.23105 0.0
H915 H 0.28849 0.68409 0.17056 0.0
H916 H 0.24878 0.5761 0.03448 0.0
H917 H 0.26508 0.59098 0.97201 0.0
H918 H 0.22148 0.58379 0.10399 0.0
H919 H 0.21963 0.59784 0.18115 0.0
C920 C 0.35825 0.0018 0.84429 0.0
C921 C 0.38069 0.9924 0.87104 0.0
C922 C 0.39898 0.99194 0.76053 0.0
C923 C 0.37771 0.00399 0.73526 0.0
N924 N 0.33799 0.02289 0.75354 0.0
N925 N 0.42429 0.98378 0.85587 0.0
C926 C 0.35757 0.00967 0.77733 0.0
C927 C 0.40156 0.98877 0.82948 0.0
N928 N 0.33731 0.00225 0.882 0.0
N929 N 0.41665 0.9831 0.71854 0.0
H930 H 0.42749 0.98228 0.90615 0.0
H931 H 0.44056 0.98375 0.82837 0.0
H932 H 0.4154 0.98491 0.66769 0.0
H933 H 0.43128 0.97191 0.73364 0.0
H934 H 0.31987 0.0066 0.86362 0.0
H935 H 0.33692 0.99605 0.93047 0.0
H936 H 0.32399 0.03003 0.7832 0.0
H937 H 0.33663 0.02819 0.7044 0.0
C938 C 0.76941 0.64626 0.48348 0.0
C939 C 0.74947 0.63012 0.46989 0.0
C940 C 0.75381 0.61213 0.57957 0.0
C941 C 0.77023 0.63163 0.59722 0.0
N942 N 0.78899 0.67089 0.56678 0.0
N943 N 0.72161 0.59806 0.50508 0.0
C944 C 0.77712 0.64954 0.5493 0.0
C945 C 0.74136 0.61306 0.51794 0.0
N946 N 0.78083 0.65878 0.43374 0.0
N947 N 0.75072 0.59241 0.62065 0.0
H948 H 0.71288 0.59765 0.45937 0.0
H949 H 0.7131 0.58716 0.54072 0.0
H950 H 0.76052 0.59053 0.6645 0.0
H951 H 0.74057 0.57675 0.60799 0.0
H952 H 0.79701 0.66898 0.44066 0.0
H953 H 0.77559 0.65703 0.3847 0.0
H954 H 0.79194 0.6854 0.53399 0.0
H955 H 0.79317 0.67575 0.61492 0.0
C956 C 0.12413 0.00425 0.33635 0.0
C957 C 0.10239 0.01602 0.36023 0.0
C958 C 0.08317 0.01189 0.25146 0.0
C959 C 0.1038 0.99783 0.22982 0.0
N960 N 0.14298 0.97842 0.25227 0.0
N961 N 0.0594 0.02696 0.34382 0.0
C962 C 0.12405 0.99339 0.27247 0.0
C963 C 0.08148 0.01897 0.31854 0.0
N964 N 0.14508 0.00419 0.37396 0.0
N965 N 0.06509 0.01848 0.20786 0.0
H966 H 0.0569 0.03192 0.3928 0.0
H967 H 0.04281 0.02647 0.3178 0.0
H968 H 0.06512 0.01298 0.15882 0.0
H969 H 0.05109 0.03107 0.21885 0.0
H970 H 0.16222 0.99807 0.35714 0.0
H971 H 0.14587 0.01231 0.42039 0.0
H972 H 0.15692 0.97212 0.28332 0.0
H973 H 0.1439 0.97098 0.20503 0.0
C974 C 0.73189 0.38329 0.08576 0.0
C975 C 0.74101 0.36663 0.13354 0.0
C976 C 0.76901 0.34835 0.05302 0.0
C977 C 0.7611 0.36592 0.0054 0.0
N978 N 0.73958 0.40407 0.98219 0.0
N979 N 0.77365 0.33917 0.16835 0.0
C980 C 0.7439 0.38466 0.02353 0.0
C981 C 0.76153 0.35131 0.11915 0.0
N982 N 0.71162 0.39747 0.09949 0.0
N983 N 0.78163 0.3275 0.03493 0.0
H984 H 0.76854 0.34057 0.21757 0.0
H985 H 0.7902 0.32966 0.16077 0.0
H986 H 0.78562 0.32281 0.98651 0.0
H987 H 0.78542 0.31313 0.06752 0.0
H988 H 0.70241 0.40796 0.06423 0.0
H989 H 0.70321 0.39763 0.14566 0.0
H990 H 0.72879 0.41929 0.99504 0.0
H991 H 0.74888 0.40619 0.93764 0.0
C992 C 0.06442 0.49727 0.36526 0.0
C993 C 0.08659 0.50525 0.39562 0.0
C994 C 0.10938 0.49623 0.29446 0.0
C995 C 0.08652 0.49274 0.26137 0.0
N996 N 0.04175 0.4938 0.26361 0.0
N997 N 0.13024 0.51496 0.38688 0.0
C998 C 0.06385 0.49415 0.29635 0.0
C999 C 0.10921 0.50523 0.35999 0.0
N1000 N 0.04398 0.49237 0.40265 0.0
N1001 N 0.13117 0.49012 0.26442 0.0
H1002 H 0.13118 0.52181 0.43459 0.0
H1003 H 0.14631 0.51811 0.35982 0.0
H1004 H 0.13209 0.48282 0.21708 0.0
H1005 H 0.1481 0.48992 0.2889 0.0
H1006 H 0.02789 0.48449 0.38372 0.0
H1007 H 0.04416 0.49365 0.4538 0.0
H1008 H 0.02482 0.49716 0.28651 0.0
H1009 H 0.04043 0.49281 0.21259 0.0
C1010 C 0.75883 0.828 0.58509 0.0
C1011 C 0.75147 0.85022 0.61617 0.0
C1012 C 0.75979 0.87282 0.51451 0.0
C1013 C 0.76312 0.84991 0.48161 0.0
N1014 N 0.75824 0.80548 0.48336 0.0
N1015 N 0.74035 0.89347 0.60637 0.0
C1016 C 0.76046 0.8274 0.51625 0.0
C1017 C 0.75074 0.87269 0.58005 0.0
N1018 N 0.76453 0.8075 0.62133 0.0
N1019 N 0.76603 0.89455 0.48465 0.0
H1020 H 0.73295 0.89418 0.65355 0.0
H1021 H 0.7371 0.90942 0.57896 0.0
H1022 H 0.77333 0.89545 0.43733 0.0
H1023 H 0.76616 0.91144 0.50935 0.0
H1024 H 0.7717 0.79141 0.60048 0.0
H1025 H 0.76485 0.80764 0.67256 0.0
H1026 H 0.75432 0.78882 0.50693 0.0
H1027 H 0.75712 0.8045 0.43231 0.0
C1028 C 0.41062 0.52069 0.79247 0.0
C1029 C 0.40707 0.50288 0.74161 0.0
C1030 C 0.39623 0.47207 0.8245 0.0
C1031 C 0.40485 0.48827 0.874 0.0
N1032 N 0.42161 0.52773 0.90613 0.0
N1033 N 0.39838 0.46063 0.70993 0.0
C1034 C 0.41212 0.51264 0.85851 0.0
C1035 C 0.39994 0.47836 0.75759 0.0
N1036 N 0.41186 0.54535 0.77811 0.0
N1037 N 0.38437 0.45075 0.84177 0.0
H1038 H 0.40191 0.46407 0.6605 0.0
H1039 H 0.39578 0.44195 0.72025 0.0
H1040 H 0.38111 0.44604 0.89073 0.0
H1041 H 0.37555 0.43927 0.80799 0.0
H1042 H 0.41184 0.5591 0.81397 0.0
H1043 H 0.41005 0.55235 0.73076 0.0
H1044 H 0.43022 0.54454 0.89593 0.0
H1045 H 0.42232 0.52273 0.95556 0.0
C1046 C 0.76504 0.16835 0.08501 0.0
C1047 C 0.77031 0.14652 0.12058 0.0
C1048 C 0.76118 0.12179 0.02289 0.0
C1049 C 0.75861 0.14399 0.98643 0.0
N1050 N 0.76658 0.18782 0.97892 0.0
N1051 N 0.77896 0.10262 0.11944 0.0
C1052 C 0.76339 0.16709 0.0163 0.0
C1053 C 0.77002 0.12318 0.08856 0.0
N1054 N 0.7603 0.19009 0.11686 0.0
N1055 N 0.75423 0.09965 0.99641 0.0
H1056 H 0.78616 0.10297 0.1669 0.0
H1057 H 0.78133 0.08573 0.09559 0.0
H1058 H 0.74767 0.09784 0.94856 0.0
H1059 H 0.75326 0.0834 0.02376 0.0
H1060 H 0.75447 0.20602 0.09252 0.0
H1061 H 0.7591 0.19132 0.16787 0.0
H1062 H 0.77192 0.20479 0.99874 0.0
H1063 H 0.76674 0.18727 0.9277 0.0
C1064 C 0.84697 0.47703 0.80325 0.0
C1065 C 0.84722 0.49912 0.76596 0.0
C1066 C 0.84012 0.52312 0.86528 0.0
C1067 C 0.84657 0.50204 0.90331 0.0
N1068 N 0.85214 0.45813 0.91072 0.0
N1069 N 0.83845 0.54257 0.75888 0.0
C1070 C 0.84806 0.47856 0.87289 0.0
C1071 C 0.84161 0.52186 0.79611 0.0
N1072 N 0.84606 0.45481 0.7716 0.0
N1073 N 0.834 0.54506 0.89357 0.0
H1074 H 0.83922 0.54207 0.70765 0.0
H1075 H 0.83455 0.55981 0.77951 0.0
H1076 H 0.83205 0.54757 0.94408 0.0
H1077 H 0.83205 0.54757 0.94408 0.0
H1078 H 0.84396 0.43798 0.79561 0.0
H1079 H 0.84488 0.45363 0.72056 0.0
H1080 H 0.85631 0.44073 0.89185 0.0
H1081 H 0.85188 0.45901 0.96197 0.0
C1082 C 0.2437 0.12354 0.56923 0.0
C1083 C 0.24171 0.14639 0.60328 0.0
C1084 C 0.24884 0.16875 0.50157 0.0
C1085 C 0.25466 0.14629 0.46949 0.0
N1086 N 0.26173 0.1022 0.47613 0.0
N1087 N 0.25011 0.19031 0.60464 0.0
C1088 C 0.25317 0.12353 0.50399 0.0
C1089 C 0.24654 0.1689 0.57027 0.0
N1090 N 0.23577 0.1021 0.5977 0.0
N1091 N 0.24503 0.18991 0.46632 0.0
H1092 H 0.25071 0.19082 0.65578 0.0
H1093 H 0.25561 0.20679 0.58241 0.0
H1094 H 0.24511 0.19021 0.4151 0.0
H1095 H 0.23893 0.20634 0.48775 0.0
H1096 H 0.23461 0.08542 0.5722 0.0
H1097 H 0.22825 0.10137 0.64479 0.0
H1098 H 0.26343 0.0857 0.50214 0.0
H1099 H 0.26904 0.10143 0.42882 0.0
C1100 C 0.65704 0.47607 0.23967 0.0
C1101 C 0.65813 0.49992 0.21135 0.0
C1102 C 0.66098 0.51861 0.32053 0.0
C1103 C 0.65559 0.49539 0.34866 0.0
N1104 N 0.65739 0.45101 0.33888 0.0
N1105 N 0.6691 0.5431 0.22561 0.0
C1106 C 0.65687 0.47368 0.30944 0.0
C1107 C 0.66328 0.5207 0.25165 0.0
N1108 N 0.65479 0.45603 0.19929 0.0
N1109 N 0.66337 0.53898 0.35956 0.0
H1110 H 0.67153 0.5462 0.17547 0.0
H1111 H 0.67153 0.5462 0.17547 0.0
H1112 H 0.66707 0.55652 0.34055 0.0
H1113 H 0.66222 0.53795 0.41068 0.0
H1114 H 0.65168 0.43809 0.21553 0.0
H1115 H 0.65592 0.45769 0.14827 0.0
H1116 H 0.66019 0.43453 0.31368 0.0
H1117 H 0.65728 0.44882 0.38968 0.0
C1118 C 0.26597 0.87595 0.04729 0.0
C1119 C 0.25697 0.85334 0.02055 0.0
C1120 C 0.25556 0.83553 0.13013 0.0
C1121 C 0.26844 0.85614 0.15501 0.0
N1122 N 0.28908 0.89504 0.13598 0.0
N1123 N 0.25056 0.80941 0.03575 0.0
C1124 C 0.27452 0.87624 0.1134 0.0
C1125 C 0.25378 0.83248 0.06179 0.0
N1126 N 0.26544 0.89724 0.0113 0.0
N1127 N 0.24502 0.81884 0.1719 0.0
H1128 H 0.25192 0.80594 0.9855 0.0
H1129 H 0.24992 0.79347 0.06447 0.0
H1130 H 0.24555 0.82103 0.22282 0.0
H1131 H 0.23362 0.80453 0.1556 0.0
H1132 H 0.26965 0.91449 0.03121 0.0
H1133 H 0.25857 0.89814 0.96361 0.0
H1134 H 0.29637 0.90867 0.1054 0.0
H1135 H 0.29522 0.89603 0.18447 0.0
C1136 C 0.56477 0.9814 0.78281 0.0
C1137 C 0.58629 0.98153 0.74239 0.0
C1138 C 0.61063 0.99837 0.83341 0.0
C1139 C 0.58949 0.9967 0.8744 0.0
N1140 N 0.5485 0.98071 0.89348 0.0
N1141 N 0.63102 0.98314 0.73585 0.0
C1142 C 0.56719 0.98637 0.85069 0.0
C1143 C 0.60965 0.98803 0.76945 0.0
N1144 N 0.54181 0.97758 0.75644 0.0
N1145 N 0.63131 0.01064 0.85426 0.0
H1146 H 0.63136 0.97423 0.69047 0.0
H1147 H 0.64855 0.98537 0.75635 0.0
H1148 H 0.63294 0.01838 0.90094 0.0
H1149 H 0.64604 0.01492 0.82322 0.0
H1150 H 0.52546 0.98045 0.78253 0.0
H1151 H 0.5387 0.9737 0.70717 0.0
H1152 H 0.53278 0.97077 0.87995 0.0
H1153 H 0.54989 0.98357 0.94401 0.0
C1154 C 0.26623 0.37887 0.08708 0.0
C1155 C 0.26134 0.3567 0.12214 0.0
C1156 C 0.26393 0.33293 0.02132 0.0
C1157 C 0.27157 0.35434 0.98708 0.0
N1158 N 0.28558 0.39682 0.99099 0.0
N1159 N 0.26421 0.31214 0.12562 0.0
C1160 C 0.27436 0.37717 0.0208 0.0
C1161 C 0.26309 0.33355 0.09015 0.0
N1162 N 0.26217 0.4014 0.11536 0.0
N1163 N 0.25645 0.31227 0.98814 0.0
H1164 H 0.26508 0.31204 0.17679 0.0
H1165 H 0.26725 0.2949 0.10407 0.0
H1166 H 0.2549 0.31176 0.93711 0.0
H1167 H 0.24892 0.29687 0.01161 0.0
H1168 H 0.26284 0.4179 0.08898 0.0
H1169 H 0.25626 0.40358 0.16368 0.0
H1170 H 0.29024 0.41297 0.01605 0.0
H1171 H 0.29228 0.3962 0.94303 0.0
C1172 C 0.85724 0.02753 0.35294 0.0
C1173 C 0.85521 0.00334 0.37848 0.0
C1174 C 0.85141 0.9864 0.26743 0.0
C1175 C 0.85655 0.01018 0.24191 0.0
N1176 N 0.85463 0.05429 0.25755 0.0
N1177 N 0.84059 0.96173 0.36302 0.0
C1178 C 0.85598 0.03113 0.28385 0.0
C1179 C 0.84875 0.98342 0.33655 0.0
N1180 N 0.86159 0.04677 0.39481 0.0
N1181 N 0.85014 0.96669 0.22565 0.0
H1182 H 0.83837 0.95936 0.41347 0.0
H1183 H 0.83395 0.947 0.3352 0.0
H1184 H 0.85102 0.96882 0.17473 0.0
H1185 H 0.84884 0.9484 0.24113 0.0
H1186 H 0.86601 0.06455 0.37936 0.0
H1187 H 0.86136 0.04453 0.44575 0.0
H1188 H 0.85182 0.07013 0.28558 0.0
H1189 H 0.85361 0.05737 0.20713 0.0
C1190 C 0.25148 0.61553 0.6204 0.0
C1191 C 0.24485 0.63402 0.66611 0.0
C1192 C 0.22644 0.65901 0.58033 0.0
C1193 C 0.23266 0.6404 0.53333 0.0
N1194 N 0.24293 0.59737 0.5143 0.0
N1195 N 0.21849 0.668 0.69485 0.0
C1196 C 0.24266 0.61746 0.55498 0.0
C1197 C 0.22944 0.65375 0.64764 0.0
N1198 N 0.26698 0.59681 0.63859 0.0
N1199 N 0.21975 0.68239 0.56174 0.0
H1200 H 0.22061 0.66424 0.74483 0.0
H1201 H 0.20532 0.68151 0.68428 0.0
H1202 H 0.21904 0.68852 0.51351 0.0
H1203 H 0.21767 0.69686 0.59509 0.0
H1204 H 0.27481 0.5845 0.6051 0.0
H1205 H 0.27298 0.5945 0.6869 0.0
H1206 H 0.24835 0.57983 0.52981 0.0
H1207 H 0.23499 0.59751 0.46766 0.0
C1208 C 0.34532 0.01989 0.26253 0.0
C1209 C 0.34891 0.99656 0.23281 0.0
C1210 C 0.3473 0.97624 0.33986 0.0
C1211 C 0.34735 -0.00021 0.36992 0.0
N1212 N 0.33566 0.04265 0.36224 0.0
N1213 N 0.34229 0.95264 0.23923 0.0
C1214 C 0.34245 0.0212 0.33189 0.0
C1215 C 0.34594 0.97469 0.27028 0.0
N1216 N 0.3458 0.04066 0.22451 0.0
N1217 N 0.34975 0.95562 0.3779 0.0
H1218 H 0.34074 0.95136 0.18834 0.0
H1219 H 0.33825 0.93625 0.26379 0.0
H1220 H 0.34975 0.95656 0.42913 0.0
H1221 H 0.35231 0.93791 0.35902 0.0
H1222 H 0.34556 0.05855 0.2433 0.0
H1223 H 0.34695 0.03971 0.17337 0.0
H1224 H 0.3302 0.05848 0.33706 0.0
H1225 H 0.33317 0.0438 0.41288 0.0
C1226 C 0.74621 0.61708 0.07249 0.0
C1227 C 0.74167 0.64041 0.10236 0.0
C1228 C 0.74608 0.66065 0.99642 0.0
C1229 C 0.75479 0.63829 0.96886 0.0
N1230 N 0.76619 0.59542 0.98266 0.0
N1231 N 0.7442 0.68502 0.09496 0.0
C1232 C 0.75558 0.61641 0.00717 0.0
C1233 C 0.74346 0.66241 0.06494 0.0
N1234 N 0.74082 0.59571 0.1052 0.0
N1235 N 0.74018 0.68022 0.95699 0.0
H1236 H 0.7447 0.68711 0.14582 0.0
H1237 H 0.74754 0.7014 0.06949 0.0
H1238 H 0.74089 0.67916 0.90587 0.0
H1239 H 0.73195 0.69633 0.97478 0.0
H1240 H 0.7416 0.57835 0.08307 0.0
H1241 H 0.73338 0.59545 0.15243 0.0
H1242 H 0.76968 0.57984 0.01129 0.0
H1243 H 0.77314 0.5942 0.93502 0.0
C1244 C 0.11343 0.9713 0.81036 0.0
C1245 C 0.11602 0.99056 0.85737 0.0
C1246 C 0.12694 0.01909 0.76906 0.0
C1247 C 0.11775 0.00175 0.7232 0.0
N1248 N 0.10396 0.96067 0.69742 0.0
N1249 N 0.12641 0.03305 0.88203 0.0
C1250 C 0.11196 0.97744 0.74287 0.0
C1251 C 0.12381 0.01444 0.83722 0.0
N1252 N 0.11263 0.94724 0.83056 0.0
N1253 N 0.13821 0.04008 0.74698 0.0
H1254 H 0.12414 0.03049 0.93234 0.0
H1255 H 0.12939 0.05142 0.86896 0.0
H1256 H 0.14057 0.04359 0.69697 0.0
H1257 H 0.14716 0.05261 0.77773 0.0
H1258 H 0.11262 0.93225 0.7984 0.0
H1259 H 0.11471 0.9423 0.87973 0.0
H1260 H 0.09658 0.94349 0.70971 0.0
H1261 H 0.10388 0.96454 0.64719 0.0
C1262 C 0.73562 0.3331 0.60804 0.0
C1263 C 0.74345 0.35568 0.63629 0.0
C1264 C 0.73446 0.37688 0.533 0.0
C1265 C 0.73106 0.35354 0.50236 0.0
N1266 N 0.73492 0.30901 0.50884 0.0
N1267 N 0.75388 0.3989 0.62264 0.0
C1268 C 0.73334 0.33148 0.53935 0.0
C1269 C 0.7437 0.37768 0.59828 0.0
N1270 N 0.73036 0.31318 0.64691 0.0
N1271 N 0.72818 0.39817 0.50099 0.0
H1272 H 0.76111 0.40032 0.66989 0.0
H1273 H 0.75696 0.41453 0.59386 0.0
H1274 H 0.72065 0.39833 0.45387 0.0
H1275 H 0.72815 0.41542 0.52381 0.0
H1276 H 0.72278 0.29685 0.6286 0.0
H1277 H 0.73091 0.31407 0.69809 0.0
H1278 H 0.73867 0.29265 0.534 0.0
H1279 H 0.73571 0.30709 0.45795 0.0
C1280 C 0.12553 0.40554 0.19867 0.0
C1281 C 0.13199 0.41392 0.1346 0.0
C1282 C 0.17382 0.39715 0.14814 0.0
C1283 C 0.16741 0.38856 0.21217 0.0
N1284 N 0.13602 0.38039 0.29345 0.0
N1285 N 0.15979 0.41283 0.0427 0.0
C1286 C 0.14282 0.39125 0.23558 0.0
C1287 C 0.15543 0.40823 0.10775 0.0
N1288 N 0.10352 0.41254 0.22615 0.0
N1289 N 0.19758 0.39498 0.12591 0.0
H1290 H 0.14646 0.42057 0.01183 0.0
H1291 H 0.17552 0.4069 0.01771 0.0
H1292 H 0.2112 0.38534 0.15109 0.0
H1293 H 0.20425 0.40379 0.08406 0.0
H1294 H 0.09923 0.41012 0.27558 0.0
H1295 H 0.08989 0.42214 0.20066 0.0
H1296 H 0.11773 0.37905 0.30926 0.0
H1297 H 0.14847 0.37119 0.32396 0.0
C1298 C 0.86793 0.88946 0.47276 0.0
C1299 C 0.87815 0.91116 0.44507 0.0
C1300 C 0.86724 0.89641 0.33437 0.0
C1301 C 0.85312 0.87728 0.36327 0.0
N1302 N 0.84211 0.85317 0.45841 0.0
N1303 N 0.8901 0.9347 0.34915 0.0
C1304 C 0.85455 0.87277 0.43195 0.0
C1305 C 0.87916 0.91416 0.37553 0.0
N1306 N 0.87147 0.88476 0.53806 0.0
N1307 N 0.86892 0.89748 0.26746 0.0
H1308 H 0.89897 0.94815 0.37707 0.0
H1309 H 0.88968 0.93923 0.29959 0.0
H1310 H 0.86032 0.88446 0.23721 0.0
H1311 H 0.88018 0.90974 0.24189 0.0
H1312 H 0.86633 0.8684 0.56119 0.0
H1313 H 0.88157 0.89661 0.56841 0.0
H1314 H 0.83907 0.85076 0.50845 0.0
H1315 H 0.83451 0.83918 0.42972 0.0
C1316 C 0.36962 0.61143 0.6344 0.0
C1317 C 0.3723 0.5856 0.64438 0.0
C1318 C 0.35103 0.58965 0.75037 0.0
C1319 C 0.34472 0.61441 0.73573 0.0
N1320 N 0.34478 0.64779 0.65627 0.0
N1321 N 0.36021 0.54936 0.707 0.0
C1322 C 0.35335 0.62522 0.67602 0.0
C1323 C 0.36138 0.57447 0.70075 0.0
N1324 N 0.38216 0.62274 0.58452 0.0
N1325 N 0.34772 0.58071 0.81253 0.0
H1326 H 0.36712 0.53718 0.67223 0.0
H1327 H 0.35021 0.54061 0.74411 0.0
H1328 H 0.34117 0.59169 0.85097 0.0
H1329 H 0.35426 0.56348 0.8275 0.0
H1330 H 0.38304 0.64189 0.57933 0.0
H1331 H 0.39309 0.61303 0.55102 0.0
H1332 H 0.34834 0.65512 0.60992 0.0
H1333 H 0.33229 0.65834 0.68327 0.0
C1334 C 0.66015 0.1214 0.95723 0.0
C1335 C 0.66299 0.1155 0.88949 0.0
C1336 C 0.63086 0.08376 0.89948 0.0
C1337 C 0.63063 0.08723 0.96866 0.0
N1338 N 0.64553 0.1083 0.06475 0.0
N1339 N 0.65236 0.09028 0.79624 0.0
C1340 C 0.64524 0.10594 0.99792 0.0
C1341 C 0.64862 0.09651 0.86057 0.0
N1342 N 0.67174 0.14173 0.98267 0.0
N1343 N 0.6137 0.06865 0.87087 0.0
H1344 H 0.66426 0.10011 0.76542 0.0
H1345 H 0.64482 0.07459 0.7744 0.0
H1346 H 0.60013 0.05948 0.8978 0.0
H1347 H 0.61137 0.06697 0.82033 0.0
H1348 H 0.66862 0.1484 0.02989 0.0
H1349 H 0.68304 0.15328 0.95483 0.0
H1350 H 0.65796 0.11949 0.09009 0.0
H1351 H 0.63413 0.09786 0.09548 0.0
C1352 C 0.13783 0.60906 0.35913 0.0
C1353 C 0.14959 0.63001 0.3866 0.0
C1354 C 0.12611 0.62402 0.48944 0.0
C1355 C 0.11789 0.60083 0.46577 0.0
N1356 N 0.11289 0.57227 0.3759 0.0
N1357 N 0.15395 0.65883 0.47688 0.0
C1358 C 0.12269 0.59378 0.39962 0.0
C1359 C 0.14299 0.63826 0.45089 0.0
N1360 N 0.14101 0.60417 0.29376 0.0
N1361 N 0.11779 0.63239 0.54886 0.0
H1362 H 0.1643 0.67126 0.44932 0.0
H1363 H 0.15329 0.66346 0.52645 0.0
H1364 H 0.1061 0.62204 0.57896 0.0
H1365 H 0.12082 0.65022 0.56633 0.0
H1366 H 0.13185 0.59023 0.2683 0.0
H1367 H 0.15153 0.6156 0.26329 0.0
H1368 H 0.11775 0.56427 0.33127 0.0
H1369 H 0.0999 0.56203 0.40196 0.0
C1370 C 0.64371 0.88623 0.59549 0.0
C1371 C 0.62211 0.89662 0.62347 0.0
C1372 C 0.63358 0.88008 0.73177 0.0
C1373 C 0.65535 0.87003 0.70377 0.0
N1374 N 0.67747 0.85708 0.60691 0.0
N1375 N 0.59324 0.89864 0.71387 0.0
C1376 C 0.65925 0.87109 0.63484 0.0
C1377 C 0.61591 0.89181 0.6902 0.0
N1378 N 0.64967 0.89136 0.53168 0.0
N1379 N 0.63038 0.87935 0.79833 0.0
H1380 H 0.57984 0.90714 0.6849 0.0
H1381 H 0.58676 0.89389 0.76032 0.0
H1382 H 0.64261 0.87014 0.82956 0.0
H1383 H 0.61649 0.88892 0.82303 0.0
H1384 H 0.66671 0.88704 0.51068 0.0
H1385 H 0.63787 0.9011 0.50042 0.0
H1386 H 0.68015 0.85546 0.55647 0.0
H1387 H 0.6882 0.84487 0.63418 0.0
C1388 C 0.38241 0.38104 0.85524 0.0
C1389 C 0.36346 0.36567 0.88015 0.0
C1390 C 0.37442 0.37727 0.993 0.0
C1391 C 0.39286 0.39333 0.9682 0.0
N1392 N 0.4192 0.40536 0.87755 0.0
N1393 N 0.34702 0.34271 0.97177 0.0
C1394 C 0.3986 0.39333 0.89988 0.0
C1395 C 0.36136 0.36162 0.94885 0.0
N1396 N 0.38431 0.38454 0.78897 0.0
N1397 N 0.36893 0.3775 0.05851 0.0
H1398 H 0.33845 0.3301 0.94056 0.0
H1399 H 0.34598 0.33773 0.02107 0.0
H1400 H 0.37919 0.38765 0.09257 0.0
H1401 H 0.35356 0.36865 0.07854 0.0
H1402 H 0.39577 0.39769 0.76738 0.0
H1403 H 0.37345 0.37478 0.7554 0.0
H1404 H 0.42543 0.40436 0.82926 0.0
H1405 H 0.43139 0.4147 0.90831 0.0
C1406 C 0.87983 0.11497 0.26552 0.0
C1407 C 0.86184 0.1307 0.23751 0.0
C1408 C 0.87427 0.11754 0.12695 0.0
C1409 C 0.88951 0.09911 0.15554 0.0
N1410 N 0.91655 0.0901 0.24699 0.0
N1411 N 0.8485 0.15393 0.14313 0.0
C1412 C 0.89556 0.10095 0.22339 0.0
C1413 C 0.8613 0.13436 0.16847 0.0
N1414 N 0.88141 0.11301 0.33221 0.0
N1415 N 0.87219 0.11871 0.06018 0.0
H1416 H 0.84023 0.16723 0.1729 0.0
H1417 H 0.84804 0.15848 0.09355 0.0
H1418 H 0.88391 0.10873 0.02916 0.0
H1419 H 0.85913 0.12936 0.03555 0.0
H1420 H 0.89246 0.10003 0.35599 0.0
H1421 H 0.87079 0.12395 0.36372 0.0
H1422 H 0.92246 0.09182 0.29542 0.0
H1423 H 0.92996 0.08256 0.21617 0.0
C1424 C 0.88002 0.58415 0.88565 0.0
C1425 C 0.8799 0.5888 0.95462 0.0
C1426 C 0.85435 0.62565 0.93801 0.0
C1427 C 0.8529 0.6199 0.87004 0.0
N1428 N 0.86992 0.59922 0.77626 0.0
N1429 N 0.87399 0.6175 0.04314 0.0
C1430 C 0.86779 0.60102 0.84295 0.0
C1431 C 0.86943 0.61086 0.97954 0.0
N1432 N 0.88993 0.56275 0.86127 0.0
N1433 N 0.84013 0.64421 0.96358 0.0
H1434 H 0.88526 0.60695 0.07396 0.0
H1435 H 0.86873 0.6344 0.0633 0.0
H1436 H 0.82994 0.65634 0.93454 0.0
H1437 H 0.83765 0.64705 0.01371 0.0
H1438 H 0.88778 0.55697 0.81286 0.0
H1439 H 0.89923 0.5498 0.88976 0.0
H1440 H 0.88217 0.58729 0.75268 0.0
H1441 H 0.86094 0.61145 0.74457 0.0
C1442 C 0.11418 0.09643 0.71761 0.0
C1443 C 0.11508 0.09838 0.64786 0.0
C1444 C 0.14513 0.13216 0.65596 0.0
C1445 C 0.14679 0.12793 0.72477 0.0
N1446 N 0.13079 0.10986 0.82344 0.0
N1447 N 0.12576 0.12156 0.55163 0.0
C1448 C 0.13033 0.11142 0.75641 0.0
C1449 C 0.12881 0.11745 0.6174 0.0
N1450 N 0.09853 0.0797 0.74621 0.0
N1451 N 0.16006 0.14949 0.62734 0.0
H1452 H 0.11348 0.11124 0.52308 0.0
H1453 H 0.13379 0.1361 0.52591 0.0
H1454 H 0.17029 0.16216 0.65456 0.0
H1455 H 0.16253 0.15145 0.57698 0.0
H1456 H 0.09684 0.07685 0.79642 0.0
H1457 H 0.08659 0.06843 0.71952 0.0
H1458 H 0.11988 0.09806 0.85139 0.0
H1459 H 0.14202 0.12127 0.85213 0.0
C1460 C 0.64015 0.37195 0.43423 0.0
C1461 C 0.6426 0.37505 0.36533 0.0
C1462 C 0.6116 0.40801 0.3688 0.0
C1463 C 0.61515 0.40979 0.43784 0.0
N1464 N 0.62655 0.38954 0.53827 0.0
N1465 N 0.62848 0.39348 0.26496 0.0
C1466 C 0.62724 0.39022 0.47124 0.0
C1467 C 0.62733 0.39209 0.33183 0.0
N1468 N 0.65036 0.35171 0.46378 0.0
N1469 N 0.59301 0.42091 0.33907 0.0
H1470 H 0.63908 0.38119 0.23708 0.0
H1471 H 0.61973 0.40718 0.23759 0.0
H1472 H 0.57943 0.43021 0.36567 0.0
H1473 H 0.58887 0.41947 0.2893 0.0
H1474 H 0.64859 0.34759 0.51342 0.0
H1475 H 0.65885 0.33763 0.43709 0.0
H1476 H 0.63722 0.37774 0.56697 0.0
H1477 H 0.61495 0.40115 0.56535 0.0
C1478 C 0.38889 0.91412 0.23744 0.0
C1479 C 0.3868 0.91205 0.16776 0.0
C1480 C 0.36247 0.87408 0.1802 0.0
C1481 C 0.36324 0.87704 0.2495 0.0
N1482 N 0.38293 0.89459 0.344 0.0
N1483 N 0.37867 0.88643 0.07386 0.0
C1484 C 0.37858 0.89527 0.27795 0.0
C1485 C 0.37594 0.89072 0.13961 0.0
N1486 N 0.3987 0.93494 0.26535 0.0
N1487 N 0.34768 0.85633 0.15295 0.0
H1488 H 0.38883 0.89822 0.04351 0.0
H1489 H 0.37308 0.87017 0.05081 0.0
H1490 H 0.33883 0.84279 0.18066 0.0
H1491 H 0.34339 0.8556 0.10315 0.0
H1492 H 0.39786 0.93874 0.3154 0.0
H1493 H 0.40637 0.94944 0.23876 0.0
H1494 H 0.39573 0.90591 0.36763 0.0
H1495 H 0.37535 0.88093 0.37413 0.0
C1496 C 0.83677 0.38364 0.65456 0.0
C1497 C 0.84084 0.38105 0.72322 0.0
C1498 C 0.8795 0.40447 0.71309 0.0
C1499 C 0.87229 0.41161 0.64879 0.0
N1500 N 0.8518 0.39928 0.54981 0.0
N1501 N 0.86662 0.38739 0.81807 0.0
C1502 C 0.85326 0.39836 0.61675 0.0
C1503 C 0.86269 0.39052 0.75234 0.0
N1504 N 0.81663 0.37272 0.62622 0.0
N1505 N 0.90268 0.41002 0.73527 0.0
H1506 H 0.855 0.37669 0.84752 0.0
H1507 H 0.88051 0.39648 0.84405 0.0
H1508 H 0.91623 0.41745 0.70464 0.0
H1509 H 0.90959 0.40413 0.78032 0.0
H1510 H 0.81051 0.37643 0.5788 0.0
H1511 H 0.80559 0.36008 0.65117 0.0
H1512 H 0.83941 0.38899 0.52187 0.0
H1513 H 0.86497 0.40866 0.52171 0.0
C1514 C 0.3638 0.10904 0.47541 0.0
C1515 C 0.37518 0.08831 0.44561 0.0
C1516 C 0.36518 0.10509 0.3365 0.0
C1517 C 0.34958 0.12264 0.36684 0.0
N1518 N 0.3355 0.14359 0.46439 0.0
N1519 N 0.38815 0.06681 0.34685 0.0
C1520 C 0.34975 0.12563 0.43612 0.0
C1521 C 0.37697 0.08673 0.37578 0.0
N1522 N 0.36675 0.11285 0.54131 0.0
N1523 N 0.36839 0.10598 0.26998 0.0
H1524 H 0.39688 0.05275 0.37279 0.0
H1525 H 0.38773 0.06328 0.29666 0.0
H1526 H 0.35972 0.11932 0.24092 0.0
H1527 H 0.38114 0.09522 0.24445 0.0
H1528 H 0.36071 0.12862 0.56584 0.0
H1529 H 0.37736 0.10108 0.57058 0.0
H1530 H 0.33186 0.14465 0.5145 0.0
H1531 H 0.32675 0.15731 0.43705 0.0
C1532 C 0.63303 0.61111 0.12682 0.0
C1533 C 0.62456 0.58853 0.15349 0.0
C1534 C 0.63743 0.60207 0.26351 0.0
C1535 C 0.65061 0.62176 0.23431 0.0
N1536 N 0.65871 0.64752 0.13994 0.0
N1537 N 0.61577 0.56315 0.24851 0.0
C1538 C 0.64718 0.62743 0.16674 0.0
C1539 C 0.6252 0.5845 0.22261 0.0
N1540 N 0.62738 0.61678 0.06317 0.0
N1541 N 0.63703 0.60024 0.33041 0.0
H1542 H 0.60639 0.54998 0.22084 0.0
H1543 H 0.61795 0.55783 0.29721 0.0
H1544 H 0.64593 0.61315 0.36038 0.0
H1545 H 0.6264 0.5875 0.35629 0.0
H1546 H 0.63116 0.63376 0.04137 0.0
H1547 H 0.61676 0.60505 0.03374 0.0
H1548 H 0.66015 0.65069 0.0897 0.0
H1549 H 0.66732 0.66105 0.1682 0.0
C1550 C 0.17273 0.89074 0.97364 0.0
C1551 C 0.16665 0.88184 0.90969 0.0
C1552 C 0.12289 0.89244 0.9295 0.0
C1553 C 0.12981 0.90397 0.98956 0.0
N1554 N 0.15781 0.90379 0.0806 0.0
N1555 N 0.13629 0.87492 0.82517 0.0
C1556 C 0.15373 0.89988 0.01516 0.0
C1557 C 0.14171 0.8825 0.8876 0.0
N1558 N 0.19679 0.89145 0.99423 0.0
N1559 N 0.09842 0.88981 0.91418 0.0
H1560 H 0.14959 0.86763 0.79344 0.0
H1561 H 0.11919 0.87753 0.80277 0.0
H1562 H 0.0843 0.89408 0.94701 0.0
H1563 H 0.09199 0.88032 0.87316 0.0
H1564 H 0.20257 0.90056 0.0366 0.0
H1565 H 0.21149 0.88479 0.96672 0.0
H1566 H 0.17409 0.89892 0.10467 0.0
H1567 H 0.14362 0.90919 0.11239 0.0
loop_
_geom_bond_atom_site_label_1
_geom_bond_atom_site_label_2
_geom_bond_distance
_geom_bond_site_symmetry_2
_ccdc_geom_bond_type
In0 O1 2.294 . S
In0 O2 2.326 . S
In0 O6 2.266 . S
In0 O7 2.326 . S
In0 O8 2.266 1_554 S
In0 O9 2.326 1_554 S
In0 O11 2.294 . S
In0 O12 2.326 . S
O1 In0 2.294 . S
O1 C10 1.240 . S
O2 In0 2.326 . S
O2 C10 1.252 . S
C3 O6 1.252 . S
C3 O7 1.260 . S
C4 O11 1.240 . S
C4 O12 1.252 . S
C5 O8 1.252 . S
C5 O9 1.260 . S
O6 In0 2.266 . S
O6 C3 1.252 . S
O7 In0 2.326 . S
O7 C3 1.260 . S
O8 In0 2.266 1_556 S
O8 C5 1.252 . S
O9 In0 2.326 1_556 S
O9 C5 1.260 . S
C10 O1 1.240 . S
C10 O2 1.252 . S
O11 In0 2.294 . S
O11 C4 1.240 . S
O12 In0 2.326 . S
O12 C4 1.252 . S
In13 O14 2.294 . S
In13 O15 2.326 . S
In13 O19 2.266 . S
In13 O20 2.326 . S
In13 O21 2.266 . S
In13 O22 2.326 . S
In13 O24 2.294 . S
In13 O25 2.326 . S
O14 In13 2.294 . S
O14 C23 1.240 . S
O15 In13 2.326 . S
O15 C23 1.252 . S
C16 O19 1.252 . S
C16 O20 1.260 . S
C17 O24 1.240 . S
C17 O25 1.252 . S
C18 O21 1.252 . S
C18 O22 1.260 . S
O19 In13 2.266 . S
O19 C16 1.252 . S
O20 In13 2.326 . S
O20 C16 1.260 . S
O21 In13 2.266 . S
O21 C18 1.252 . S
O22 In13 2.326 . S
O22 C18 1.260 . S
C23 O14 1.240 . S
C23 O15 1.252 . S
O24 In13 2.294 . S
O24 C17 1.240 . S
O25 In13 2.326 . S
O25 C17 1.252 . S
In26 O27 2.294 . S
In26 O28 2.326 . S
In26 O32 2.266 . S
In26 O33 2.326 . S
In26 O34 2.266 . S
In26 O35 2.326 . S
In26 O37 2.294 . S
In26 O38 2.326 . S
O27 In26 2.294 . S
O27 C36 1.240 . S
O28 In26 2.326 . S
O28 C36 1.252 . S
C29 O32 1.252 . S
C29 O33 1.260 . S
C30 O37 1.240 . S
C30 O38 1.252 . S
C31 O34 1.252 . S
C31 O35 1.260 . S
O32 In26 2.266 . S
O32 C29 1.252 . S
O33 In26 2.326 . S
O33 C29 1.260 . S
O34 In26 2.266 . S
O34 C31 1.252 . S
O35 In26 2.326 . S
O35 C31 1.260 . S
C36 O27 1.240 . S
C36 O28 1.252 . S
O37 In26 2.294 . S
O37 C30 1.240 . S
O38 In26 2.326 . S
O38 C30 1.252 . S
In39 O40 2.294 . S
In39 O41 2.326 . S
In39 O45 2.266 . S
In39 O46 2.326 . S
In39 O47 2.266 . S
In39 O48 2.326 . S
In39 O50 2.294 . S
In39 O51 2.326 . S
O40 In39 2.294 . S
O40 C49 1.240 . S
O41 In39 2.326 . S
O41 C49 1.252 . S
C42 O45 1.252 . S
C42 O46 1.260 . S
C43 O50 1.240 . S
C43 O51 1.252 . S
C44 O47 1.252 . S
C44 O48 1.260 . S
O45 In39 2.266 . S
O45 C42 1.252 . S
O46 In39 2.326 . S
O46 C42 1.260 . S
O47 In39 2.266 . S
O47 C44 1.252 . S
O48 In39 2.326 . S
O48 C44 1.260 . S
C49 O40 1.240 . S
C49 O41 1.252 . S
O50 In39 2.294 . S
O50 C43 1.240 . S
O51 In39 2.326 . S
O51 C43 1.252 . S
In52 O53 2.294 . S
In52 O54 2.326 . S
In52 O58 2.266 . S
In52 O59 2.326 . S
In52 O60 2.266 . S
In52 O61 2.326 . S
In52 O63 2.294 . S
In52 O64 2.326 . S
O53 In52 2.294 . S
O53 C62 1.240 . S
O54 In52 2.326 . S
O54 C62 1.252 . S
C55 O58 1.252 . S
C55 O59 1.260 . S
C56 O63 1.240 . S
C56 O64 1.252 . S
C57 O60 1.252 . S
C57 O61 1.260 . S
O58 In52 2.266 . S
O58 C55 1.252 . S
O59 In52 2.326 . S
O59 C55 1.260 . S
O60 In52 2.266 . S
O60 C57 1.252 . S
O61 In52 2.326 . S
O61 C57 1.260 . S
C62 O53 1.240 . S
C62 O54 1.252 . S
O63 In52 2.294 . S
O63 C56 1.240 . S
O64 In52 2.326 . S
O64 C56 1.252 . S
In65 O66 2.294 . S
In65 O67 2.326 . S
In65 O71 2.266 . S
In65 O72 2.326 . S
In65 O73 2.266 . S
In65 O74 2.326 . S
In65 O76 2.294 . S
In65 O77 2.326 . S
O66 In65 2.294 . S
O66 C75 1.240 . S
O67 In65 2.326 . S
O67 C75 1.252 . S
C68 O71 1.252 . S
C68 O72 1.260 . S
C69 O76 1.240 . S
C69 O77 1.252 . S
C70 O73 1.252 . S
C70 O74 1.260 . S
O71 In65 2.266 . S
O71 C68 1.252 . S
O72 In65 2.326 . S
O72 C68 1.260 . S
O73 In65 2.266 . S
O73 C70 1.252 . S
O74 In65 2.326 . S
O74 C70 1.260 . S
C75 O66 1.240 . S
C75 O67 1.252 . S
O76 In65 2.294 . S
O76 C69 1.240 . S
O77 In65 2.326 . S
O77 C69 1.252 . S
In78 O79 2.294 . S
In78 O80 2.326 . S
In78 O84 2.266 . S
In78 O85 2.326 . S
In78 O86 2.266 . S
In78 O87 2.326 . S
In78 O89 2.294 1_554 S
In78 O90 2.326 1_554 S
O79 In78 2.294 . S
O79 C88 1.240 . S
O80 In78 2.326 . S
O80 C88 1.252 . S
C81 O84 1.252 . S
C81 O85 1.260 . S
C82 O89 1.240 . S
C82 O90 1.252 . S
C83 O86 1.252 . S
C83 O87 1.260 . S
O84 In78 2.266 . S
O84 C81 1.252 . S
O85 In78 2.326 . S
O85 C81 1.260 . S
O86 In78 2.266 . S
O86 C83 1.252 . S
O87 In78 2.326 . S
O87 C83 1.260 . S
C88 O79 1.240 . S
C88 O80 1.252 . S
O89 In78 2.294 1_556 S
O89 C82 1.240 . S
O90 In78 2.326 1_556 S
O90 C82 1.252 . S
In91 O92 2.294 . S
In91 O93 2.326 . S
In91 O97 2.266 . S
In91 O98 2.326 . S
In91 O99 2.266 . S
In91 O100 2.326 . S
In91 O102 2.294 . S
In91 O103 2.326 . S
O92 In91 2.294 . S
O92 C101 1.240 . S
O93 In91 2.326 . S
O93 C101 1.252 . S
C94 O97 1.252 . S
C94 O98 1.260 . S
C95 O102 1.240 . S
C95 O103 1.252 . S
C96 O99 1.252 . S
C96 O100 1.260 . S
O97 In91 2.266 . S
O97 C94 1.252 . S
O98 In91 2.326 . S
O98 C94 1.260 . S
O99 In91 2.266 . S
O99 C96 1.252 . S
O100 In91 2.326 . S
O100 C96 1.260 . S
C101 O92 1.240 . S
C101 O93 1.252 . S
O102 In91 2.294 . S
O102 C95 1.240 . S
O103 In91 2.326 . S
O103 C95 1.252 . S
In104 O105 2.294 1_554 S
In104 O106 2.326 1_554 S
In104 O110 2.266 . S
In104 O111 2.326 . S
In104 O112 2.266 . S
In104 O113 2.326 . S
In104 O115 2.294 . S
In104 O116 2.326 . S
O105 In104 2.294 1_556 S
O105 C114 1.240 . S
O106 In104 2.326 1_556 S
O106 C114 1.252 . S
C107 O110 1.252 . S
C107 O111 1.260 . S
C108 O115 1.240 . S
C108 O116 1.252 . S
C109 O112 1.252 . S
C109 O113 1.260 . S
O110 In104 2.266 . S
O110 C107 1.252 . S
O111 In104 2.326 . S
O111 C107 1.260 . S
O112 In104 2.266 . S
O112 C109 1.252 . S
O113 In104 2.326 . S
O113 C109 1.260 . S
C114 O105 1.240 . S
C114 O106 1.252 . S
O115 In104 2.294 . S
O115 C108 1.240 . S
O116 In104 2.326 . S
O116 C108 1.252 . S
In117 O118 2.294 . S
In117 O119 2.326 . S
In117 O123 2.266 . S
In117 O124 2.326 . S
In117 O125 2.266 . S
In117 O126 2.326 . S
In117 O128 2.294 . S
In117 O129 2.326 . S
O118 In117 2.294 . S
O118 C127 1.240 . S
O119 In117 2.326 . S
O119 C127 1.252 . S
C120 O123 1.252 . S
C120 O124 1.260 . S
C121 O128 1.240 . S
C121 O129 1.252 . S
C122 O125 1.252 . S
C122 O126 1.260 . S
O123 In117 2.266 . S
O123 C120 1.252 . S
O124 In117 2.326 . S
O124 C120 1.260 . S
O125 In117 2.266 . S
O125 C122 1.252 . S
O126 In117 2.326 . S
O126 C122 1.260 . S
C127 O118 1.240 . S
C127 O119 1.252 . S
O128 In117 2.294 . S
O128 C121 1.240 . S
O129 In117 2.326 . S
O129 C121 1.252 . S
In130 O131 2.294 . S
In130 O132 2.326 . S
In130 O136 2.266 . S
In130 O137 2.326 . S
In130 O138 2.266 . S
In130 O139 2.326 . S
In130 O141 2.294 . S
In130 O142 2.326 . S
O131 In130 2.294 . S
O131 C140 1.240 . S
O132 In130 2.326 . S
O132 C140 1.252 . S
C133 O136 1.252 . S
C133 O137 1.260 . S
C134 O141 1.240 . S
C134 O142 1.252 . S
C135 O138 1.252 . S
C135 O139 1.260 . S
O136 In130 2.266 . S
O136 C133 1.252 . S
O137 In130 2.326 . S
O137 C133 1.260 . S
O138 In130 2.266 . S
O138 C135 1.252 . S
O139 In130 2.326 . S
O139 C135 1.260 . S
C140 O131 1.240 . S
C140 O132 1.252 . S
O141 In130 2.294 . S
O141 C134 1.240 . S
O142 In130 2.326 . S
O142 C134 1.252 . S
In143 O144 2.294 . S
In143 O145 2.326 . S
In143 O149 2.266 . S
In143 O150 2.326 . S
In143 O151 2.266 . S
In143 O152 2.326 . S
In143 O154 2.294 . S
In143 O155 2.326 . S
O144 In143 2.294 . S
O144 C153 1.240 . S
O145 In143 2.326 . S
O145 C153 1.252 . S
C146 O149 1.252 . S
C146 O150 1.260 . S
C147 O154 1.240 . S
C147 O155 1.252 . S
C148 O151 1.252 . S
C148 O152 1.260 . S
O149 In143 2.266 . S
O149 C146 1.252 . S
O150 In143 2.326 . S
O150 C146 1.260 . S
O151 In143 2.266 . S
O151 C148 1.252 . S
O152 In143 2.326 . S
O152 C148 1.260 . S
C153 O144 1.240 . S
C153 O145 1.252 . S
O154 In143 2.294 . S
O154 C147 1.240 . S
O155 In143 2.326 . S
O155 C147 1.252 . S
In156 O157 2.294 . S
In156 O158 2.326 . S
In156 O162 2.266 . S
In156 O163 2.326 . S
In156 O164 2.266 . S
In156 O165 2.326 . S
In156 O167 2.294 . S
In156 O168 2.326 . S
O157 In156 2.294 . S
O157 C166 1.240 . S
O158 In156 2.326 . S
O158 C166 1.252 . S
C159 O162 1.252 . S
C159 O163 1.260 . S
C160 O167 1.240 . S
C160 O168 1.252 . S
C161 O164 1.252 . S
C161 O165 1.260 . S
O162 In156 2.266 . S
O162 C159 1.252 . S
O163 In156 2.326 . S
O163 C159 1.260 . S
O164 In156 2.266 . S
O164 C161 1.252 . S
O165 In156 2.326 . S
O165 C161 1.260 . S
C166 O157 1.240 . S
C166 O158 1.252 . S
O167 In156 2.294 . S
O167 C160 1.240 . S
O168 In156 2.326 . S
O168 C160 1.252 . S
In169 O170 2.294 . S
In169 O171 2.326 . S
In169 O175 2.266 . S
In169 O176 2.326 . S
In169 O177 2.266 . S
In169 O178 2.326 . S
In169 O180 2.294 . S
In169 O181 2.326 . S
O170 In169 2.294 . S
O170 C179 1.240 . S
O171 In169 2.326 . S
O171 C179 1.252 . S
C172 O175 1.252 . S
C172 O176 1.260 . S
C173 O180 1.240 . S
C173 O181 1.252 . S
C174 O177 1.252 . S
C174 O178 1.260 . S
O175 In169 2.266 . S
O175 C172 1.252 . S
O176 In169 2.326 . S
O176 C172 1.260 . S
O177 In169 2.266 . S
O177 C174 1.252 . S
O178 In169 2.326 . S
O178 C174 1.260 . S
C179 O170 1.240 . S
C179 O171 1.252 . S
O180 In169 2.294 . S
O180 C173 1.240 . S
O181 In169 2.326 . S
O181 C173 1.252 . S
In182 O183 2.294 . S
In182 O184 2.326 . S
In182 O188 2.266 . S
In182 O189 2.326 . S
In182 O190 2.266 1_554 S
In182 O191 2.326 1_554 S
In182 O193 2.294 . S
In182 O194 2.326 . S
O183 In182 2.294 . S
O183 C192 1.240 . S
O184 In182 2.326 . S
O184 C192 1.252 . S
C185 O188 1.252 . S
C185 O189 1.260 . S
C186 O193 1.240 . S
C186 O194 1.252 . S
C187 O190 1.252 . S
C187 O191 1.260 . S
O188 In182 2.266 . S
O188 C185 1.252 . S
O189 In182 2.326 . S
O189 C185 1.260 . S
O190 In182 2.266 1_556 S
O190 C187 1.252 . S
O191 In182 2.326 1_556 S
O191 C187 1.260 . S
C192 O183 1.240 . S
C192 O184 1.252 . S
O193 In182 2.294 . S
O193 C186 1.240 . S
O194 In182 2.326 . S
O194 C186 1.252 . S
In195 O196 2.294 . S
In195 O197 2.326 . S
In195 O201 2.266 . S
In195 O202 2.326 . S
In195 O203 2.266 . S
In195 O204 2.326 . S
In195 O206 2.294 . S
In195 O207 2.326 . S
O196 In195 2.294 . S
O196 C205 1.240 . S
O197 In195 2.326 . S
O197 C205 1.252 . S
C198 O201 1.252 . S
C198 O202 1.260 . S
C199 O206 1.240 . S
C199 O207 1.252 . S
C200 O203 1.252 . S
C200 O204 1.260 . S
O201 In195 2.266 . S
O201 C198 1.252 . S
O202 In195 2.326 . S
O202 C198 1.260 . S
O203 In195 2.266 . S
O203 C200 1.252 . S
O204 In195 2.326 . S
O204 C200 1.260 . S
C205 O196 1.240 . S
C205 O197 1.252 . S
O206 In195 2.294 . S
O206 C199 1.240 . S
O207 In195 2.326 . S
O207 C199 1.252 . S
In208 O209 2.294 . S
In208 O210 2.326 . S
In208 O214 2.266 . S
In208 O215 2.326 1_565 S
In208 O216 2.266 1_565 S
In208 O217 2.326 . S
In208 O219 2.294 1_565 S
In208 O220 2.326 . S
O209 In208 2.294 . S
O209 C218 1.240 . S
O210 In208 2.326 . S
O210 C218 1.252 . S
C211 O214 1.252 . S
C211 O215 1.260 1_565 S
C212 O219 1.240 . S
C212 O220 1.252 1_545 S
C213 O216 1.252 1_565 S
C213 O217 1.260 . S
O214 In208 2.266 . S
O214 C211 1.252 . S
O215 In208 2.326 1_545 S
O215 C211 1.260 1_545 S
O216 In208 2.266 1_545 S
O216 C213 1.252 1_545 S
O217 In208 2.326 . S
O217 C213 1.260 . S
C218 O209 1.240 . S
C218 O210 1.252 . S
O219 In208 2.294 1_545 S
O219 C212 1.240 . S
O220 In208 2.326 . S
O220 C212 1.252 1_565 S
In221 O222 2.294 . S
In221 O223 2.326 . S
In221 O227 2.266 . S
In221 O228 2.326 . S
In221 O229 2.266 . S
In221 O230 2.326 . S
In221 O232 2.294 . S
In221 O233 2.326 . S
O222 In221 2.294 . S
O222 C231 1.240 . S
O223 In221 2.326 . S
O223 C231 1.252 . S
C224 O227 1.252 . S
C224 O228 1.260 . S
C225 O232 1.240 . S
C225 O233 1.252 . S
C226 O229 1.252 . S
C226 O230 1.260 . S
O227 In221 2.266 . S
O227 C224 1.252 . S
O228 In221 2.326 . S
O228 C224 1.260 . S
O229 In221 2.266 . S
O229 C226 1.252 . S
O230 In221 2.326 . S
O230 C226 1.260 . S
C231 O222 1.240 . S
C231 O223 1.252 . S
O232 In221 2.294 . S
O232 C225 1.240 . S
O233 In221 2.326 . S
O233 C225 1.252 . S
In234 O235 2.294 . S
In234 O236 2.326 . S
In234 O240 2.266 . S
In234 O241 2.326 1_545 S
In234 O242 2.266 1_544 S
In234 O243 2.326 1_554 S
In234 O245 2.294 1_545 S
In234 O246 2.326 . S
O235 In234 2.294 . S
O235 C244 1.240 . S
O236 In234 2.326 . S
O236 C244 1.252 . S
C237 O240 1.252 . S
C237 O241 1.260 1_545 S
C238 O245 1.240 . S
C238 O246 1.252 1_565 S
C239 O242 1.252 1_545 S
C239 O243 1.260 . S
O240 In234 2.266 . S
O240 C237 1.252 . S
O241 In234 2.326 1_565 S
O241 C237 1.260 1_565 S
O242 In234 2.266 1_566 S
O242 C239 1.252 1_565 S
O243 In234 2.326 1_556 S
O243 C239 1.260 . S
C244 O235 1.240 . S
C244 O236 1.252 . S
O245 In234 2.294 1_565 S
O245 C238 1.240 . S
O246 In234 2.326 . S
O246 C238 1.252 1_545 S
In247 O248 2.294 . S
In247 O249 2.326 . S
In247 O253 2.266 . S
In247 O254 2.326 . S
In247 O255 2.266 . S
In247 O256 2.326 . S
In247 O258 2.294 . S
In247 O259 2.326 . S
O248 In247 2.294 . S
O248 C257 1.240 . S
O249 In247 2.326 . S
O249 C257 1.252 . S
C250 O253 1.252 . S
C250 O254 1.260 . S
C251 O258 1.240 . S
C251 O259 1.252 . S
C252 O255 1.252 . S
C252 O256 1.260 . S
O253 In247 2.266 . S
O253 C250 1.252 . S
O254 In247 2.326 . S
O254 C250 1.260 . S
O255 In247 2.266 . S
O255 C252 1.252 . S
O256 In247 2.326 . S
O256 C252 1.260 . S
C257 O248 1.240 . S
C257 O249 1.252 . S
O258 In247 2.294 . S
O258 C251 1.240 . S
O259 In247 2.326 . S
O259 C251 1.252 . S
In260 O261 2.294 1_544 S
In260 O262 2.326 1_554 S
In260 O266 2.266 1_545 S
In260 O267 2.326 . S
In260 O268 2.266 . S
In260 O269 2.326 1_545 S
In260 O271 2.294 . S
In260 O272 2.326 . S
O261 In260 2.294 1_566 S
O261 C270 1.240 . S
O262 In260 2.326 1_556 S
O262 C270 1.252 1_545 S
C263 O266 1.252 1_545 S
C263 O267 1.260 . S
C264 O271 1.240 . S
C264 O272 1.252 . S
C265 O268 1.252 . S
C265 O269 1.260 1_545 S
O266 In260 2.266 1_565 S
O266 C263 1.252 1_565 S
O267 In260 2.326 . S
O267 C263 1.260 . S
O268 In260 2.266 . S
O268 C265 1.252 . S
O269 In260 2.326 1_565 S
O269 C265 1.260 1_565 S
C270 O261 1.240 . S
C270 O262 1.252 1_565 S
O271 In260 2.294 . S
O271 C264 1.240 . S
O272 In260 2.326 . S
O272 C264 1.252 . S
In273 O274 2.294 . S
In273 O275 2.326 . S
In273 O279 2.266 . S
In273 O280 2.326 . S
In273 O281 2.266 . S
In273 O282 2.326 . S
In273 O284 2.294 . S
In273 O285 2.326 . S
O274 In273 2.294 . S
O274 C283 1.240 . S
O275 In273 2.326 . S
O275 C283 1.252 . S
C276 O279 1.252 . S
C276 O280 1.260 . S
C277 O284 1.240 . S
C277 O285 1.252 . S
C278 O281 1.252 . S
C278 O282 1.260 . S
O279 In273 2.266 . S
O279 C276 1.252 . S
O280 In273 2.326 . S
O280 C276 1.260 . S
O281 In273 2.266 . S
O281 C278 1.252 . S
O282 In273 2.326 . S
O282 C278 1.260 . S
C283 O274 1.240 . S
C283 O275 1.252 . S
O284 In273 2.294 . S
O284 C277 1.240 . S
O285 In273 2.326 . S
O285 C277 1.252 . S
In286 O287 2.294 . S
In286 O288 2.326 . S
In286 O292 2.266 . S
In286 O293 2.326 1_565 S
In286 O294 2.266 1_565 S
In286 O295 2.326 . S
In286 O297 2.294 1_565 S
In286 O298 2.326 . S
O287 In286 2.294 . S
O287 C296 1.240 . S
O288 In286 2.326 . S
O288 C296 1.252 . S
C289 O292 1.252 . S
C289 O293 1.260 1_565 S
C290 O297 1.240 . S
C290 O298 1.252 1_545 S
C291 O294 1.252 1_565 S
C291 O295 1.260 . S
O292 In286 2.266 . S
O292 C289 1.252 . S
O293 In286 2.326 1_545 S
O293 C289 1.260 1_545 S
O294 In286 2.266 1_545 S
O294 C291 1.252 1_545 S
O295 In286 2.326 . S
O295 C291 1.260 . S
C296 O287 1.240 . S
C296 O288 1.252 . S
O297 In286 2.294 1_545 S
O297 C290 1.240 . S
O298 In286 2.326 . S
O298 C290 1.252 1_565 S
In299 O300 2.294 . S
In299 O301 2.326 . S
In299 O305 2.266 . S
In299 O306 2.326 . S
In299 O307 2.266 . S
In299 O308 2.326 . S
In299 O310 2.294 . S
In299 O311 2.326 . S
O300 In299 2.294 . S
O300 C309 1.240 . S
O301 In299 2.326 . S
O301 C309 1.252 . S
C302 O305 1.252 . S
C302 O306 1.260 . S
C303 O310 1.240 . S
C303 O311 1.252 . S
C304 O307 1.252 . S
C304 O308 1.260 . S
O305 In299 2.266 . S
O305 C302 1.252 . S
O306 In299 2.326 . S
O306 C302 1.260 . S
O307 In299 2.266 . S
O307 C304 1.252 . S
O308 In299 2.326 . S
O308 C304 1.260 . S
C309 O300 1.240 . S
C309 O301 1.252 . S
O310 In299 2.294 . S
O310 C303 1.240 . S
O311 In299 2.326 . S
O311 C303 1.252 . S
In312 O313 2.294 . S
In312 O314 2.326 . S
In312 O318 2.266 . S
In312 O319 2.326 1_545 S
In312 O320 2.266 1_545 S
In312 O321 2.326 . S
In312 O323 2.294 1_545 S
In312 O324 2.326 . S
O313 In312 2.294 . S
O313 C322 1.240 . S
O314 In312 2.326 . S
O314 C322 1.252 . S
C315 O318 1.252 . S
C315 O319 1.260 1_545 S
C316 O323 1.240 . S
C316 O324 1.252 1_565 S
C317 O320 1.252 1_545 S
C317 O321 1.260 . S
O318 In312 2.266 . S
O318 C315 1.252 . S
O319 In312 2.326 1_565 S
O319 C315 1.260 1_565 S
O320 In312 2.266 1_565 S
O320 C317 1.252 1_565 S
O321 In312 2.326 . S
O321 C317 1.260 . S
C322 O313 1.240 . S
C322 O314 1.252 . S
O323 In312 2.294 1_565 S
O323 C316 1.240 . S
O324 In312 2.326 . S
O324 C316 1.252 1_545 S
In325 O326 2.294 . S
In325 O327 2.326 . S
In325 O331 2.266 . S
In325 O332 2.326 . S
In325 O333 2.266 . S
In325 O334 2.326 . S
In325 O336 2.294 . S
In325 O337 2.326 . S
O326 In325 2.294 . S
O326 C335 1.240 . S
O327 In325 2.326 . S
O327 C335 1.252 . S
C328 O331 1.252 . S
C328 O332 1.260 . S
C329 O336 1.240 . S
C329 O337 1.252 . S
C330 O333 1.252 . S
C330 O334 1.260 . S
O331 In325 2.266 . S
O331 C328 1.252 . S
O332 In325 2.326 . S
O332 C328 1.260 . S
O333 In325 2.266 . S
O333 C330 1.252 . S
O334 In325 2.326 . S
O334 C330 1.260 . S
C335 O326 1.240 . S
C335 O327 1.252 . S
O336 In325 2.294 . S
O336 C329 1.240 . S
O337 In325 2.326 . S
O337 C329 1.252 . S
In338 O339 2.294 1_564 S
In338 O340 2.326 1_554 S
In338 O344 2.266 1_565 S
In338 O345 2.326 . S
In338 O346 2.266 . S
In338 O347 2.326 1_565 S
In338 O349 2.294 . S
In338 O350 2.326 . S
O339 In338 2.294 1_546 S
O339 C348 1.240 . S
O340 In338 2.326 1_556 S
O340 C348 1.252 1_565 S
C341 O344 1.252 1_565 S
C341 O345 1.260 . S
C342 O349 1.240 . S
C342 O350 1.252 . S
C343 O346 1.252 . S
C343 O347 1.260 1_565 S
O344 In338 2.266 1_545 S
O344 C341 1.252 1_545 S
O345 In338 2.326 . S
O345 C341 1.260 . S
O346 In338 2.266 . S
O346 C343 1.252 . S
O347 In338 2.326 1_545 S
O347 C343 1.260 1_545 S
C348 O339 1.240 . S
C348 O340 1.252 1_545 S
O349 In338 2.294 . S
O349 C342 1.240 . S
O350 In338 2.326 . S
O350 C342 1.252 . S
In351 O352 2.294 . S
In351 O353 2.326 . S
In351 O357 2.266 . S
In351 O358 2.326 . S
In351 O359 2.266 . S
In351 O360 2.326 . S
In351 O362 2.294 . S
In351 O363 2.326 . S
O352 In351 2.294 . S
O352 C361 1.240 . S
O353 In351 2.326 . S
O353 C361 1.252 . S
C354 O357 1.252 . S
C354 O358 1.260 . S
C355 O362 1.240 . S
C355 O363 1.252 . S
C356 O359 1.252 . S
C356 O360 1.260 . S
O357 In351 2.266 . S
O357 C354 1.252 . S
O358 In351 2.326 . S
O358 C354 1.260 . S
O359 In351 2.266 . S
O359 C356 1.252 . S
O360 In351 2.326 . S
O360 C356 1.260 . S
C361 O352 1.240 . S
C361 O353 1.252 . S
O362 In351 2.294 . S
O362 C355 1.240 . S
O363 In351 2.326 . S
O363 C355 1.252 . S
In364 O365 2.294 . S
In364 O366 2.326 . S
In364 O370 2.266 . S
In364 O371 2.326 1_565 S
In364 O372 2.266 1_564 S
In364 O373 2.326 1_554 S
In364 O375 2.294 1_565 S
In364 O376 2.326 . S
O365 In364 2.294 . S
O365 C374 1.240 . S
O366 In364 2.326 . S
O366 C374 1.252 . S
C367 O370 1.252 . S
C367 O371 1.260 1_565 S
C368 O375 1.240 . S
C368 O376 1.252 1_545 S
C369 O372 1.252 1_565 S
C369 O373 1.260 . S
O370 In364 2.266 . S
O370 C367 1.252 . S
O371 In364 2.326 1_545 S
O371 C367 1.260 1_545 S
O372 In364 2.266 1_546 S
O372 C369 1.252 1_545 S
O373 In364 2.326 1_556 S
O373 C369 1.260 . S
C374 O365 1.240 . S
C374 O366 1.252 . S
O375 In364 2.294 1_545 S
O375 C368 1.240 . S
O376 In364 2.326 . S
O376 C368 1.252 1_565 S
In377 O378 2.294 . S
In377 O379 2.326 . S
In377 O383 2.266 . S
In377 O384 2.326 . S
In377 O385 2.266 . S
In377 O386 2.326 . S
In377 O388 2.294 . S
In377 O389 2.326 . S
O378 In377 2.294 . S
O378 C387 1.240 . S
O379 In377 2.326 . S
O379 C387 1.252 . S
C380 O383 1.252 . S
C380 O384 1.260 . S
C381 O388 1.240 . S
C381 O389 1.252 . S
C382 O385 1.252 . S
C382 O386 1.260 . S
O383 In377 2.266 . S
O383 C380 1.252 . S
O384 In377 2.326 . S
O384 C380 1.260 . S
O385 In377 2.266 . S
O385 C382 1.252 . S
O386 In377 2.326 . S
O386 C382 1.260 . S
C387 O378 1.240 . S
C387 O379 1.252 . S
O388 In377 2.294 . S
O388 C381 1.240 . S
O389 In377 2.326 . S
O389 C381 1.252 . S
In390 O391 2.294 . S
In390 O392 2.326 . S
In390 O396 2.266 . S
In390 O397 2.326 1_545 S
In390 O398 2.266 1_545 S
In390 O399 2.326 . S
In390 O401 2.294 1_545 S
In390 O402 2.326 . S
O391 In390 2.294 . S
O391 C400 1.240 . S
O392 In390 2.326 . S
O392 C400 1.252 . S
C393 O396 1.252 . S
C393 O397 1.260 1_545 S
C394 O401 1.240 . S
C394 O402 1.252 1_565 S
C395 O398 1.252 1_545 S
C395 O399 1.260 . S
O396 In390 2.266 . S
O396 C393 1.252 . S
O397 In390 2.326 1_565 S
O397 C393 1.260 1_565 S
O398 In390 2.266 1_565 S
O398 C395 1.252 1_565 S
O399 In390 2.326 . S
O399 C395 1.260 . S
C400 O391 1.240 . S
C400 O392 1.252 . S
O401 In390 2.294 1_565 S
O401 C394 1.240 . S
O402 In390 2.326 . S
O402 C394 1.252 1_545 S
In403 O404 2.294 . S
In403 O405 2.326 . S
In403 O409 2.266 . S
In403 O410 2.326 . S
In403 O411 2.266 . S
In403 O412 2.326 . S
In403 O414 2.294 . S
In403 O415 2.326 . S
O404 In403 2.294 . S
O404 C413 1.240 . S
O405 In403 2.326 . S
O405 C413 1.252 . S
C406 O409 1.252 . S
C406 O410 1.260 . S
C407 O414 1.240 . S
C407 O415 1.252 . S
C408 O411 1.252 . S
C408 O412 1.260 . S
O409 In403 2.266 . S
O409 C406 1.252 . S
O410 In403 2.326 . S
O410 C406 1.260 . S
O411 In403 2.266 . S
O411 C408 1.252 . S
O412 In403 2.326 . S
O412 C408 1.260 . S
C413 O404 1.240 . S
C413 O405 1.252 . S
O414 In403 2.294 . S
O414 C407 1.240 . S
O415 In403 2.326 . S
O415 C407 1.252 . S
C416 C417 1.363 . S
C416 C422 1.379 1_655 S
C416 N424 1.356 . S
C417 C416 1.363 . S
C417 C423 1.363 . S
C418 C419 1.363 . S
C418 C423 1.379 1_455 S
C418 N425 1.356 1_554 S
C419 C418 1.363 . S
C419 C422 1.363 . S
N420 C422 1.356 . S
N420 H432 0.984 . S
N420 H433 0.985 . S
N421 C423 1.356 1_556 S
N421 H426 0.984 . S
N421 H427 0.985 . S
C422 C416 1.379 1_455 S
C422 C419 1.363 . S
C422 N420 1.356 . S
C423 C417 1.363 . S
C423 C418 1.379 1_655 S
C423 N421 1.356 1_554 S
N424 C416 1.356 . S
N424 H430 0.984 . S
N424 H431 0.984 . S
N425 C418 1.356 1_556 S
N425 H428 0.984 . S
N425 H429 0.985 . S
H426 N421 0.984 . S
H427 N421 0.985 . S
H428 N425 0.984 . S
H429 N425 0.985 . S
H430 N424 0.984 . S
H431 N424 0.984 . S
H432 N420 0.984 . S
H433 N420 0.985 . S
C434 C435 1.363 . S
C434 C440 1.379 . S
C434 N442 1.356 . S
C435 C434 1.363 . S
C435 C441 1.363 . S
C436 C437 1.363 . S
C436 C441 1.379 . S
C436 N443 1.356 . S
C437 C436 1.363 . S
C437 C440 1.363 . S
N438 C440 1.356 . S
N438 H450 0.984 . S
N438 H451 0.985 . S
N439 C441 1.356 . S
N439 H444 0.984 . S
N439 H445 0.985 . S
C440 C434 1.379 . S
C440 C437 1.363 . S
C440 N438 1.356 . S
C441 C435 1.363 . S
C441 C436 1.379 . S
C441 N439 1.356 . S
N442 C434 1.356 . S
N442 H448 0.984 . S
N442 H449 0.984 . S
N443 C436 1.356 . S
N443 H446 0.984 . S
N443 H447 0.985 . S
H444 N439 0.984 . S
H445 N439 0.985 . S
H446 N443 0.984 . S
H447 N443 0.985 . S
H448 N442 0.984 . S
H449 N442 0.984 . S
H450 N438 0.984 . S
H451 N438 0.985 . S
C452 C453 1.363 . S
C452 C458 1.379 . S
C452 N460 1.356 . S
C453 C452 1.363 . S
C453 C459 1.363 . S
C454 C455 1.363 . S
C454 C459 1.379 . S
C454 N461 1.356 . S
C455 C454 1.363 . S
C455 C458 1.363 . S
N456 C458 1.356 . S
N456 H468 0.984 . S
N456 H469 0.985 . S
N457 C459 1.356 . S
N457 H462 0.984 . S
N457 H463 0.985 . S
C458 C452 1.379 . S
C458 C455 1.363 . S
C458 N456 1.356 . S
C459 C453 1.363 . S
C459 C454 1.379 . S
C459 N457 1.356 . S
N460 C452 1.356 . S
N460 H466 0.984 . S
N460 H467 0.984 . S
N461 C454 1.356 . S
N461 H464 0.984 . S
N461 H465 0.985 . S
H462 N457 0.984 . S
H463 N457 0.985 . S
H464 N461 0.984 . S
H465 N461 0.985 . S
H466 N460 0.984 . S
H467 N460 0.984 . S
H468 N456 0.984 . S
H469 N456 0.985 . S
C470 C471 1.363 . S
C470 C476 1.379 . S
C470 N478 1.356 . S
C471 C470 1.363 . S
C471 C477 1.363 . S
C472 C473 1.363 . S
C472 C477 1.379 . S
C472 N479 1.356 . S
C473 C472 1.363 . S
C473 C476 1.363 . S
N474 C476 1.356 . S
N474 H486 0.984 . S
N474 H487 0.985 . S
N475 C477 1.356 . S
N475 H480 0.984 . S
N475 H481 0.985 . S
C476 C470 1.379 . S
C476 C473 1.363 . S
C476 N474 1.356 . S
C477 C471 1.363 . S
C477 C472 1.379 . S
C477 N475 1.356 . S
N478 C470 1.356 . S
N478 H484 0.984 . S
N478 H485 0.984 . S
N479 C472 1.356 . S
N479 H482 0.984 . S
N479 H483 0.985 . S
H480 N475 0.984 . S
H481 N475 0.985 . S
H482 N479 0.984 . S
H483 N479 0.985 . S
H484 N478 0.984 . S
H485 N478 0.984 . S
H486 N474 0.984 . S
H487 N474 0.985 . S
C488 C489 1.363 . S
C488 C494 1.379 1_455 S
C488 N496 1.356 . S
C489 C488 1.363 . S
C489 C495 1.363 . S
C490 C491 1.363 . S
C490 C495 1.379 1_655 S
C490 N497 1.356 . S
C491 C490 1.363 . S
C491 C494 1.363 . S
N492 C494 1.356 . S
N492 H504 0.984 . S
N492 H505 0.985 . S
N493 C495 1.356 . S
N493 H498 0.984 . S
N493 H499 0.985 . S
C494 C488 1.379 1_655 S
C494 C491 1.363 . S
C494 N492 1.356 . S
C495 C489 1.363 . S
C495 C490 1.379 1_455 S
C495 N493 1.356 . S
N496 C488 1.356 . S
N496 H502 0.984 . S
N496 H503 0.984 . S
N497 C490 1.356 . S
N497 H500 0.984 . S
N497 H501 0.985 . S
H498 N493 0.984 . S
H499 N493 0.985 . S
H500 N497 0.984 . S
H501 N497 0.985 . S
H502 N496 0.984 . S
H503 N496 0.984 . S
H504 N492 0.984 . S
H505 N492 0.985 . S
C506 C507 1.363 . S
C506 C512 1.379 . S
C506 N514 1.356 . S
C507 C506 1.363 . S
C507 C513 1.363 . S
C508 C509 1.363 . S
C508 C513 1.379 . S
C508 N515 1.356 . S
C509 C508 1.363 . S
C509 C512 1.363 . S
N510 C512 1.356 . S
N510 H522 0.984 . S
N510 H523 0.985 . S
N511 C513 1.356 . S
N511 H516 0.984 . S
N511 H517 0.985 . S
C512 C506 1.379 . S
C512 C509 1.363 . S
C512 N510 1.356 . S
C513 C507 1.363 . S
C513 C508 1.379 . S
C513 N511 1.356 . S
N514 C506 1.356 . S
N514 H520 0.984 . S
N514 H521 0.984 . S
N515 C508 1.356 . S
N515 H518 0.984 . S
N515 H519 0.985 . S
H516 N511 0.984 . S
H517 N511 0.985 . S
H518 N515 0.984 . S
H519 N515 0.985 . S
H520 N514 0.984 . S
H521 N514 0.984 . S
H522 N510 0.984 . S
H523 N510 0.985 . S
C524 C525 1.363 1_556 S
C524 C530 1.379 1_556 S
C524 N532 1.356 . S
C525 C524 1.363 1_554 S
C525 C531 1.363 . S
C526 C527 1.363 . S
C526 C531 1.379 . S
C526 N533 1.356 . S
C527 C526 1.363 . S
C527 C530 1.363 . S
N528 C530 1.356 1_556 S
N528 H540 0.984 . S
N528 H541 0.985 . S
N529 C531 1.356 . S
N529 H534 0.984 . S
N529 H535 0.985 . S
C530 C524 1.379 1_554 S
C530 C527 1.363 . S
C530 N528 1.356 1_554 S
C531 C525 1.363 . S
C531 C526 1.379 . S
C531 N529 1.356 . S
N532 C524 1.356 . S
N532 H538 0.984 . S
N532 H539 0.984 . S
N533 C526 1.356 . S
N533 H536 0.984 . S
N533 H537 0.985 . S
H534 N529 0.984 . S
H535 N529 0.985 . S
H536 N533 0.984 . S
H537 N533 0.985 . S
H538 N532 0.984 . S
H539 N532 0.984 . S
H540 N528 0.984 . S
H541 N528 0.985 . S
C542 C543 1.363 . S
C542 C548 1.379 . S
C542 N550 1.356 . S
C543 C542 1.363 . S
C543 C549 1.363 . S
C544 C545 1.363 . S
C544 C549 1.379 . S
C544 N551 1.356 . S
C545 C544 1.363 . S
C545 C548 1.363 . S
N546 C548 1.356 . S
N546 H558 0.984 . S
N546 H559 0.985 . S
N547 C549 1.356 . S
N547 H552 0.984 . S
N547 H553 0.985 . S
C548 C542 1.379 . S
C548 C545 1.363 . S
C548 N546 1.356 . S
C549 C543 1.363 . S
C549 C544 1.379 . S
C549 N547 1.356 . S
N550 C542 1.356 . S
N550 H556 0.984 . S
N550 H557 0.984 . S
N551 C544 1.356 . S
N551 H554 0.984 . S
N551 H555 0.985 . S
H552 N547 0.984 . S
H553 N547 0.985 . S
H554 N551 0.984 . S
H555 N551 0.985 . S
H556 N550 0.984 . S
H557 N550 0.984 . S
H558 N546 0.984 . S
H559 N546 0.985 . S
C560 C561 1.363 . S
C560 C566 1.379 . S
C560 N568 1.356 . S
C561 C560 1.363 . S
C561 C567 1.363 . S
C562 C563 1.363 . S
C562 C567 1.379 . S
C562 N569 1.356 . S
C563 C562 1.363 . S
C563 C566 1.363 . S
N564 C566 1.356 . S
N564 H576 0.984 . S
N564 H577 0.985 . S
N565 C567 1.356 . S
N565 H570 0.984 . S
N565 H571 0.985 . S
C566 C560 1.379 . S
C566 C563 1.363 . S
C566 N564 1.356 . S
C567 C561 1.363 . S
C567 C562 1.379 . S
C567 N565 1.356 . S
N568 C560 1.356 . S
N568 H574 0.984 . S
N568 H575 0.984 . S
N569 C562 1.356 . S
N569 H572 0.984 . S
N569 H573 0.985 . S
H570 N565 0.984 . S
H571 N565 0.985 . S
H572 N569 0.984 . S
H573 N569 0.985 . S
H574 N568 0.984 . S
H575 N568 0.984 . S
H576 N564 0.984 . S
H577 N564 0.985 . S
C578 C579 1.363 . S
C578 C584 1.379 . S
C578 N586 1.356 . S
C579 C578 1.363 . S
C579 C585 1.363 . S
C580 C581 1.363 . S
C580 C585 1.379 . S
C580 N587 1.356 . S
C581 C580 1.363 . S
C581 C584 1.363 . S
N582 C584 1.356 . S
N582 H594 0.984 . S
N582 H595 0.985 . S
N583 C585 1.356 . S
N583 H588 0.984 . S
N583 H589 0.985 . S
C584 C578 1.379 . S
C584 C581 1.363 . S
C584 N582 1.356 . S
C585 C579 1.363 . S
C585 C580 1.379 . S
C585 N583 1.356 . S
N586 C578 1.356 . S
N586 H592 0.984 . S
N586 H593 0.984 . S
N587 C580 1.356 . S
N587 H590 0.984 . S
N587 H591 0.985 . S
H588 N583 0.984 . S
H589 N583 0.985 . S
H590 N587 0.984 . S
H591 N587 0.985 . S
H592 N586 0.984 . S
H593 N586 0.984 . S
H594 N582 0.984 . S
H595 N582 0.985 . S
C596 C597 1.363 . S
C596 C602 1.379 . S
C596 N604 1.356 . S
C597 C596 1.363 . S
C597 C603 1.363 . S
C598 C599 1.363 . S
C598 C603 1.379 . S
C598 N605 1.356 . S
C599 C598 1.363 . S
C599 C602 1.363 . S
N600 C602 1.356 . S
N600 H612 0.984 . S
N600 H613 0.985 . S
N601 C603 1.356 . S
N601 H606 0.984 . S
N601 H607 0.985 . S
C602 C596 1.379 . S
C602 C599 1.363 . S
C602 N600 1.356 . S
C603 C597 1.363 . S
C603 C598 1.379 . S
C603 N601 1.356 . S
N604 C596 1.356 . S
N604 H610 0.984 . S
N604 H611 0.984 . S
N605 C598 1.356 . S
N605 H608 0.984 . S
N605 H609 0.985 . S
H606 N601 0.984 . S
H607 N601 0.985 . S
H608 N605 0.984 . S
H609 N605 0.985 . S
H610 N604 0.984 . S
H611 N604 0.984 . S
H612 N600 0.984 . S
H613 N600 0.985 . S
C614 C615 1.363 . S
C614 C620 1.379 . S
C614 N622 1.356 . S
C615 C614 1.363 . S
C615 C621 1.363 . S
C616 C617 1.363 . S
C616 C621 1.379 . S
C616 N623 1.356 . S
C617 C616 1.363 . S
C617 C620 1.363 . S
N618 C620 1.356 . S
N618 H630 0.984 . S
N618 H631 0.985 . S
N619 C621 1.356 . S
N619 H624 0.984 . S
N619 H625 0.985 . S
C620 C614 1.379 . S
C620 C617 1.363 . S
C620 N618 1.356 . S
C621 C615 1.363 . S
C621 C616 1.379 . S
C621 N619 1.356 . S
N622 C614 1.356 . S
N622 H628 0.984 . S
N622 H629 0.984 . S
N623 C616 1.356 . S
N623 H626 0.984 . S
N623 H627 0.985 . S
H624 N619 0.984 . S
H625 N619 0.985 . S
H626 N623 0.984 . S
H627 N623 0.985 . S
H628 N622 0.984 . S
H629 N622 0.984 . S
H630 N618 0.984 . S
H631 N618 0.985 . S
C632 C633 1.363 1_565 S
C632 C638 1.379 . S
C632 N640 1.356 . S
C633 C632 1.363 1_545 S
C633 C639 1.363 . S
C634 C635 1.363 1_545 S
C634 C639 1.379 . S
C634 N641 1.356 . S
C635 C634 1.363 1_565 S
C635 C638 1.363 . S
N636 C638 1.356 . S
N636 H648 0.984 . S
N636 H649 0.985 . S
N637 C639 1.356 . S
N637 H642 0.984 . S
N637 H643 0.985 . S
C638 C632 1.379 . S
C638 C635 1.363 . S
C638 N636 1.356 . S
C639 C633 1.363 . S
C639 C634 1.379 . S
C639 N637 1.356 . S
N640 C632 1.356 . S
N640 H646 0.984 . S
N640 H647 0.984 . S
N641 C634 1.356 . S
N641 H644 0.984 . S
N641 H645 0.985 . S
H642 N637 0.984 . S
H643 N637 0.985 . S
H644 N641 0.984 . S
H645 N641 0.985 . S
H646 N640 0.984 . S
H647 N640 0.984 . S
H648 N636 0.984 . S
H649 N636 0.985 . S
C650 C651 1.363 . S
C650 C656 1.379 1_655 S
C650 N658 1.356 . S
C651 C650 1.363 . S
C651 C657 1.363 1_545 S
C652 C653 1.363 . S
C652 C657 1.379 1_455 S
C652 N659 1.356 1_554 S
C653 C652 1.363 . S
C653 C656 1.363 1_565 S
N654 C656 1.356 . S
N654 H666 0.984 . S
N654 H667 0.985 . S
N655 C657 1.356 1_556 S
N655 H660 0.984 . S
N655 H661 0.985 . S
C656 C650 1.379 1_455 S
C656 C653 1.363 1_545 S
C656 N654 1.356 . S
C657 C651 1.363 1_565 S
C657 C652 1.379 1_655 S
C657 N655 1.356 1_554 S
N658 C650 1.356 . S
N658 H664 0.984 . S
N658 H665 0.984 . S
N659 C652 1.356 1_556 S
N659 H662 0.984 . S
N659 H663 0.985 . S
H660 N655 0.984 . S
H661 N655 0.985 . S
H662 N659 0.984 . S
H663 N659 0.985 . S
H664 N658 0.984 . S
H665 N658 0.984 . S
H666 N654 0.984 . S
H667 N654 0.985 . S
C668 C669 1.363 1_565 S
C668 C674 1.379 . S
C668 N676 1.356 . S
C669 C668 1.363 1_545 S
C669 C675 1.363 . S
C670 C671 1.363 1_545 S
C670 C675 1.379 . S
C670 N677 1.356 1_554 S
C671 C670 1.363 1_565 S
C671 C674 1.363 . S
N672 C674 1.356 . S
N672 H684 0.984 . S
N672 H685 0.985 . S
N673 C675 1.356 1_556 S
N673 H678 0.984 1_556 S
N673 H679 0.985 . S
C674 C668 1.379 . S
C674 C671 1.363 . S
C674 N672 1.356 . S
C675 C669 1.363 . S
C675 C670 1.379 . S
C675 N673 1.356 1_554 S
N676 C668 1.356 . S
N676 H682 0.984 . S
N676 H683 0.984 . S
N677 C670 1.356 1_556 S
N677 H680 0.984 . S
N677 H681 0.985 . S
H678 N673 0.984 1_554 S
H679 N673 0.985 . S
H680 N677 0.984 . S
H681 N677 0.985 . S
H682 N676 0.984 . S
H683 N676 0.984 . S
H684 N672 0.984 . S
H685 N672 0.985 . S
C686 C687 1.363 1_565 S
C686 C692 1.379 1_455 S
C686 N694 1.356 . S
C687 C686 1.363 1_545 S
C687 C693 1.363 . S
C688 C689 1.363 1_545 S
C688 C693 1.379 1_655 S
C688 N695 1.356 . S
C689 C688 1.363 1_565 S
C689 C692 1.363 . S
N690 C692 1.356 . S
N690 H702 0.984 . S
N690 H703 0.985 . S
N691 C693 1.356 . S
N691 H696 0.984 . S
N691 H697 0.985 . S
C692 C686 1.379 1_655 S
C692 C689 1.363 . S
C692 N690 1.356 . S
C693 C687 1.363 . S
C693 C688 1.379 1_455 S
C693 N691 1.356 . S
N694 C686 1.356 . S
N694 H700 0.984 . S
N694 H701 0.984 1_565 S
N695 C688 1.356 . S
N695 H698 0.984 1_545 S
N695 H699 0.985 . S
H696 N691 0.984 . S
H697 N691 0.985 . S
H698 N695 0.984 1_565 S
H699 N695 0.985 . S
H700 N694 0.984 . S
H701 N694 0.984 1_545 S
H702 N690 0.984 . S
H703 N690 0.985 . S
C704 C705 1.363 . S
C704 C710 1.379 . S
C704 N712 1.356 . S
C705 C704 1.363 . S
C705 C711 1.363 . S
C706 C707 1.363 . S
C706 C711 1.379 . S
C706 N713 1.356 . S
C707 C706 1.363 . S
C707 C710 1.363 . S
N708 C710 1.356 . S
N708 H720 0.984 . S
N708 H721 0.985 . S
N709 C711 1.356 . S
N709 H714 0.984 . S
N709 H715 0.985 . S
C710 C704 1.379 . S
C710 C707 1.363 . S
C710 N708 1.356 . S
C711 C705 1.363 . S
C711 C706 1.379 . S
C711 N709 1.356 . S
N712 C704 1.356 . S
N712 H718 0.984 . S
N712 H719 0.984 . S
N713 C706 1.356 . S
N713 H716 0.984 . S
N713 H717 0.985 . S
H714 N709 0.984 . S
H715 N709 0.985 . S
H716 N713 0.984 . S
H717 N713 0.985 . S
H718 N712 0.984 . S
H719 N712 0.984 . S
H720 N708 0.984 . S
H721 N708 0.985 . S
C722 C723 1.363 1_554 S
C722 C728 1.379 . S
C722 N730 1.356 1_554 S
C723 C722 1.363 1_556 S
C723 C729 1.363 1_556 S
C724 C725 1.363 . S
C724 C729 1.379 . S
C724 N731 1.356 . S
C725 C724 1.363 . S
C725 C728 1.363 . S
N726 C728 1.356 . S
N726 H738 0.984 . S
N726 H739 0.985 . S
N727 C729 1.356 1_556 S
N727 H732 0.984 . S
N727 H733 0.985 . S
C728 C722 1.379 . S
C728 C725 1.363 . S
C728 N726 1.356 . S
C729 C723 1.363 1_554 S
C729 C724 1.379 . S
C729 N727 1.356 1_554 S
N730 C722 1.356 1_556 S
N730 H736 0.984 . S
N730 H737 0.984 . S
N731 C724 1.356 . S
N731 H734 0.984 . S
N731 H735 0.985 . S
H732 N727 0.984 . S
H733 N727 0.985 . S
H734 N731 0.984 . S
H735 N731 0.985 . S
H736 N730 0.984 . S
H737 N730 0.984 . S
H738 N726 0.984 . S
H739 N726 0.985 . S
C740 C741 1.363 . S
C740 C746 1.379 . S
C740 N748 1.356 . S
C741 C740 1.363 . S
C741 C747 1.363 . S
C742 C743 1.363 . S
C742 C747 1.379 . S
C742 N749 1.356 . S
C743 C742 1.363 . S
C743 C746 1.363 . S
N744 C746 1.356 . S
N744 H756 0.984 . S
N744 H757 0.985 . S
N745 C747 1.356 . S
N745 H750 0.984 . S
N745 H751 0.985 . S
C746 C740 1.379 . S
C746 C743 1.363 . S
C746 N744 1.356 . S
C747 C741 1.363 . S
C747 C742 1.379 . S
C747 N745 1.356 . S
N748 C740 1.356 . S
N748 H754 0.984 . S
N748 H755 0.984 . S
N749 C742 1.356 . S
N749 H752 0.984 . S
N749 H753 0.985 . S
H750 N745 0.984 . S
H751 N745 0.985 . S
H752 N749 0.984 . S
H753 N749 0.985 . S
H754 N748 0.984 . S
H755 N748 0.984 . S
H756 N744 0.984 . S
H757 N744 0.985 . S
C758 C759 1.363 . S
C758 C764 1.379 . S
C758 N766 1.356 . S
C759 C758 1.363 . S
C759 C765 1.363 . S
C760 C761 1.363 . S
C760 C765 1.379 . S
C760 N767 1.356 . S
C761 C760 1.363 . S
C761 C764 1.363 . S
N762 C764 1.356 . S
N762 H774 0.984 . S
N762 H775 0.985 . S
N763 C765 1.356 . S
N763 H768 0.984 . S
N763 H769 0.985 . S
C764 C758 1.379 . S
C764 C761 1.363 . S
C764 N762 1.356 . S
C765 C759 1.363 . S
C765 C760 1.379 . S
C765 N763 1.356 . S
N766 C758 1.356 . S
N766 H772 0.984 . S
N766 H773 0.984 . S
N767 C760 1.356 . S
N767 H770 0.984 . S
N767 H771 0.985 . S
H768 N763 0.984 . S
H769 N763 0.985 . S
H770 N767 0.984 . S
H771 N767 0.985 . S
H772 N766 0.984 . S
H773 N766 0.984 . S
H774 N762 0.984 . S
H775 N762 0.985 . S
C776 C777 1.363 . S
C776 C782 1.379 . S
C776 N784 1.356 . S
C777 C776 1.363 . S
C777 C783 1.363 . S
C778 C779 1.363 . S
C778 C783 1.379 . S
C778 N785 1.356 . S
C779 C778 1.363 . S
C779 C782 1.363 . S
N780 C782 1.356 . S
N780 H792 0.984 . S
N780 H793 0.985 . S
N781 C783 1.356 . S
N781 H786 0.984 . S
N781 H787 0.985 . S
C782 C776 1.379 . S
C782 C779 1.363 . S
C782 N780 1.356 . S
C783 C777 1.363 . S
C783 C778 1.379 . S
C783 N781 1.356 . S
N784 C776 1.356 . S
N784 H790 0.984 . S
N784 H791 0.984 . S
N785 C778 1.356 . S
N785 H788 0.984 . S
N785 H789 0.985 . S
H786 N781 0.984 . S
H787 N781 0.985 . S
H788 N785 0.984 . S
H789 N785 0.985 . S
H790 N784 0.984 . S
H791 N784 0.984 . S
H792 N780 0.984 . S
H793 N780 0.985 . S
C794 C795 1.363 1_554 S
C794 C800 1.379 . S
C794 N802 1.356 1_554 S
C795 C794 1.363 1_556 S
C795 C801 1.363 1_556 S
C796 C797 1.363 . S
C796 C801 1.379 . S
C796 N803 1.356 . S
C797 C796 1.363 . S
C797 C800 1.363 . S
N798 C800 1.356 . S
N798 H810 0.984 . S
N798 H811 0.985 . S
N799 C801 1.356 1_556 S
N799 H804 0.984 . S
N799 H805 0.985 . S
C800 C794 1.379 . S
C800 C797 1.363 . S
C800 N798 1.356 . S
C801 C795 1.363 1_554 S
C801 C796 1.379 . S
C801 N799 1.356 1_554 S
N802 C794 1.356 1_556 S
N802 H808 0.984 . S
N802 H809 0.984 . S
N803 C796 1.356 . S
N803 H806 0.984 . S
N803 H807 0.985 . S
H804 N799 0.984 . S
H805 N799 0.985 . S
H806 N803 0.984 . S
H807 N803 0.985 . S
H808 N802 0.984 . S
H809 N802 0.984 . S
H810 N798 0.984 . S
H811 N798 0.985 . S
C812 C813 1.363 . S
C812 C818 1.379 . S
C812 N820 1.356 . S
C813 C812 1.363 . S
C813 C819 1.363 . S
C814 C815 1.363 . S
C814 C819 1.379 . S
C814 N821 1.356 . S
C815 C814 1.363 . S
C815 C818 1.363 . S
N816 C818 1.356 . S
N816 H828 0.984 . S
N816 H829 0.985 . S
N817 C819 1.356 . S
N817 H822 0.984 . S
N817 H823 0.985 . S
C818 C812 1.379 . S
C818 C815 1.363 . S
C818 N816 1.356 . S
C819 C813 1.363 . S
C819 C814 1.379 . S
C819 N817 1.356 . S
N820 C812 1.356 . S
N820 H826 0.984 . S
N820 H827 0.984 . S
N821 C814 1.356 . S
N821 H824 0.984 . S
N821 H825 0.985 . S
H822 N817 0.984 . S
H823 N817 0.985 . S
H824 N821 0.984 . S
H825 N821 0.985 . S
H826 N820 0.984 . S
H827 N820 0.984 . S
H828 N816 0.984 . S
H829 N816 0.985 . S
C830 C831 1.363 . S
C830 C836 1.379 . S
C830 N838 1.356 . S
C831 C830 1.363 . S
C831 C837 1.363 . S
C832 C833 1.363 . S
C832 C837 1.379 . S
C832 N839 1.356 . S
C833 C832 1.363 . S
C833 C836 1.363 . S
N834 C836 1.356 . S
N834 H846 0.984 . S
N834 H847 0.985 . S
N835 C837 1.356 . S
N835 H840 0.984 . S
N835 H841 0.985 . S
C836 C830 1.379 . S
C836 C833 1.363 . S
C836 N834 1.356 . S
C837 C831 1.363 . S
C837 C832 1.379 . S
C837 N835 1.356 . S
N838 C830 1.356 . S
N838 H844 0.984 . S
N838 H845 0.984 . S
N839 C832 1.356 . S
N839 H842 0.984 . S
N839 H843 0.985 . S
H840 N835 0.984 . S
H841 N835 0.985 . S
H842 N839 0.984 . S
H843 N839 0.985 . S
H844 N838 0.984 . S
H845 N838 0.984 . S
H846 N834 0.984 . S
H847 N834 0.985 . S
C848 C849 1.386 . S
C848 C854 1.379 . S
C848 N856 1.356 . S
C849 C848 1.386 . S
C849 C855 1.340 1_565 S
C850 C851 1.384 . S
C850 C855 1.379 . S
C850 N857 1.356 . S
C851 C850 1.384 . S
C851 C854 1.341 1_545 S
N852 C854 1.356 . S
N852 H864 0.984 . S
N852 H865 0.985 . S
N853 C855 1.356 . S
N853 H858 0.984 . S
N853 H859 0.985 . S
C854 C848 1.379 . S
C854 C851 1.341 1_565 S
C854 N852 1.356 . S
C855 C849 1.340 1_545 S
C855 C850 1.379 . S
C855 N853 1.356 . S
N856 C848 1.356 . S
N856 H862 0.984 . S
N856 H863 0.984 . S
N857 C850 1.356 . S
N857 H860 0.984 . S
N857 H861 0.985 . S
H858 N853 0.984 . S
H859 N853 0.985 . S
H860 N857 0.984 . S
H861 N857 0.985 . S
H862 N856 0.984 . S
H863 N856 0.984 . S
H864 N852 0.984 . S
H865 N852 0.985 . S
C866 C867 1.363 . S
C866 C872 1.379 . S
C866 N874 1.356 . S
C867 C866 1.363 . S
C867 C873 1.363 . S
C868 C869 1.363 . S
C868 C873 1.379 . S
C868 N875 1.356 . S
C869 C868 1.363 . S
C869 C872 1.363 . S
N870 C872 1.356 . S
N870 H882 0.984 . S
N870 H883 0.985 . S
N871 C873 1.356 . S
N871 H876 0.984 . S
N871 H877 0.985 . S
C872 C866 1.379 . S
C872 C869 1.363 . S
C872 N870 1.356 . S
C873 C867 1.363 . S
C873 C868 1.379 . S
C873 N871 1.356 . S
N874 C866 1.356 . S
N874 H880 0.984 . S
N874 H881 0.984 . S
N875 C868 1.356 . S
N875 H878 0.984 . S
N875 H879 0.985 . S
H876 N871 0.984 . S
H877 N871 0.985 . S
H878 N875 0.984 . S
H879 N875 0.985 . S
H880 N874 0.984 . S
H881 N874 0.984 . S
H882 N870 0.984 . S
H883 N870 0.985 . S
C884 C885 1.340 1_545 S
C884 C890 1.379 . S
C884 N892 1.356 . S
C885 C884 1.340 1_565 S
C885 C891 1.386 . S
C886 C887 1.341 1_565 S
C886 C891 1.379 . S
C886 N893 1.356 . S
C887 C886 1.341 1_545 S
C887 C890 1.385 . S
N888 C890 1.356 . S
N888 H900 0.984 . S
N888 H901 0.985 . S
N889 C891 1.356 . S
N889 H894 0.984 . S
N889 H895 0.985 . S
C890 C884 1.379 . S
C890 C887 1.385 . S
C890 N888 1.356 . S
C891 C885 1.386 . S
C891 C886 1.379 . S
C891 N889 1.356 . S
N892 C884 1.356 . S
N892 H898 0.984 . S
N892 H899 0.984 . S
N893 C886 1.356 . S
N893 H896 0.984 . S
N893 H897 0.985 . S
H894 N889 0.984 . S
H895 N889 0.985 . S
H896 N893 0.984 . S
H897 N893 0.985 . S
H898 N892 0.984 . S
H899 N892 0.984 . S
H900 N888 0.984 . S
H901 N888 0.985 . S
C902 C903 1.363 1_554 S
C902 C908 1.379 . S
C902 N910 1.356 1_554 S
C903 C902 1.363 1_556 S
C903 C909 1.363 1_556 S
C904 C905 1.363 . S
C904 C909 1.379 . S
C904 N911 1.356 . S
C905 C904 1.363 . S
C905 C908 1.363 . S
N906 C908 1.356 . S
N906 H918 0.984 . S
N906 H919 0.985 . S
N907 C909 1.356 1_556 S
N907 H912 0.984 . S
N907 H913 0.985 . S
C908 C902 1.379 . S
C908 C905 1.363 . S
C908 N906 1.356 . S
C909 C903 1.363 1_554 S
C909 C904 1.379 . S
C909 N907 1.356 1_554 S
N910 C902 1.356 1_556 S
N910 H916 0.984 . S
N910 H917 0.984 . S
N911 C904 1.356 . S
N911 H914 0.984 . S
N911 H915 0.985 . S
H912 N907 0.984 . S
H913 N907 0.985 . S
H914 N911 0.984 . S
H915 N911 0.985 . S
H916 N910 0.984 . S
H917 N910 0.984 . S
H918 N906 0.984 . S
H919 N906 0.985 . S
C920 C921 1.385 . S
C920 C926 1.379 . S
C920 N928 1.356 . S
C921 C920 1.385 . S
C921 C927 1.340 1_545 S
C922 C923 1.385 . S
C922 C927 1.379 . S
C922 N929 1.356 . S
C923 C922 1.385 . S
C923 C926 1.341 1_565 S
N924 C926 1.356 . S
N924 H936 0.984 . S
N924 H937 0.985 . S
N925 C927 1.356 . S
N925 H930 0.984 . S
N925 H931 0.985 . S
C926 C920 1.379 . S
C926 C923 1.341 1_545 S
C926 N924 1.356 . S
C927 C921 1.340 1_565 S
C927 C922 1.379 . S
C927 N925 1.356 . S
N928 C920 1.356 . S
N928 H934 0.984 . S
N928 H935 0.984 . S
N929 C922 1.356 . S
N929 H932 0.984 . S
N929 H933 0.985 . S
H930 N925 0.984 . S
H931 N925 0.985 . S
H932 N929 0.984 . S
H933 N929 0.985 . S
H934 N928 0.984 . S
H935 N928 0.984 . S
H936 N924 0.984 . S
H937 N924 0.985 . S
C938 C939 1.363 . S
C938 C944 1.379 . S
C938 N946 1.356 . S
C939 C938 1.363 . S
C939 C945 1.363 . S
C940 C941 1.363 . S
C940 C945 1.379 . S
C940 N947 1.356 . S
C941 C940 1.363 . S
C941 C944 1.363 . S
N942 C944 1.356 . S
N942 H954 0.984 . S
N942 H955 0.985 . S
N943 C945 1.356 . S
N943 H948 0.984 . S
N943 H949 0.985 . S
C944 C938 1.379 . S
C944 C941 1.363 . S
C944 N942 1.356 . S
C945 C939 1.363 . S
C945 C940 1.379 . S
C945 N943 1.356 . S
N946 C938 1.356 . S
N946 H952 0.984 . S
N946 H953 0.984 . S
N947 C940 1.356 . S
N947 H950 0.984 . S
N947 H951 0.985 . S
H948 N943 0.984 . S
H949 N943 0.985 . S
H950 N947 0.984 . S
H951 N947 0.985 . S
H952 N946 0.984 . S
H953 N946 0.984 . S
H954 N942 0.984 . S
H955 N942 0.985 . S
C956 C957 1.384 . S
C956 C962 1.379 . S
C956 N964 1.356 . S
C957 C956 1.384 . S
C957 C963 1.342 1_565 S
C958 C959 1.385 . S
C958 C963 1.379 . S
C958 N965 1.356 . S
C959 C958 1.385 . S
C959 C962 1.340 1_545 S
N960 C962 1.356 . S
N960 H972 0.984 . S
N960 H973 0.985 . S
N961 C963 1.356 . S
N961 H966 0.984 . S
N961 H967 0.985 . S
C962 C956 1.379 . S
C962 C959 1.340 1_565 S
C962 N960 1.356 . S
C963 C957 1.342 1_545 S
C963 C958 1.379 . S
C963 N961 1.356 . S
N964 C956 1.356 . S
N964 H970 0.984 . S
N964 H971 0.984 . S
N965 C958 1.356 . S
N965 H968 0.984 . S
N965 H969 0.985 . S
H966 N961 0.984 . S
H967 N961 0.985 . S
H968 N965 0.984 . S
H969 N965 0.985 . S
H970 N964 0.984 . S
H971 N964 0.984 . S
H972 N960 0.984 . S
H973 N960 0.985 . S
C974 C975 1.363 . S
C974 C980 1.379 . S
C974 N982 1.356 . S
C975 C974 1.363 . S
C975 C981 1.363 . S
C976 C977 1.363 1_554 S
C976 C981 1.379 . S
C976 N983 1.356 1_554 S
C977 C976 1.363 1_556 S
C977 C980 1.363 1_556 S
N978 C980 1.356 1_556 S
N978 H990 0.984 . S
N978 H991 0.985 . S
N979 C981 1.356 . S
N979 H984 0.984 . S
N979 H985 0.985 . S
C980 C974 1.379 . S
C980 C977 1.363 1_554 S
C980 N978 1.356 1_554 S
C981 C975 1.363 . S
C981 C976 1.379 . S
C981 N979 1.356 . S
N982 C974 1.356 . S
N982 H988 0.984 . S
N982 H989 0.984 . S
N983 C976 1.356 1_556 S
N983 H986 0.984 . S
N983 H987 0.985 . S
H984 N979 0.984 . S
H985 N979 0.985 . S
H986 N983 0.984 . S
H987 N983 0.985 . S
H988 N982 0.984 . S
H989 N982 0.984 . S
H990 N978 0.984 . S
H991 N978 0.985 . S
C992 C993 1.363 . S
C992 C998 1.379 . S
C992 N1000 1.356 . S
C993 C992 1.363 . S
C993 C999 1.363 . S
C994 C995 1.363 . S
C994 C999 1.379 . S
C994 N1001 1.356 . S
C995 C994 1.363 . S
C995 C998 1.363 . S
N996 C998 1.356 . S
N996 H1008 0.984 . S
N996 H1009 0.985 . S
N997 C999 1.356 . S
N997 H1002 0.984 . S
N997 H1003 0.985 . S
C998 C992 1.379 . S
C998 C995 1.363 . S
C998 N996 1.356 . S
C999 C993 1.363 . S
C999 C994 1.379 . S
C999 N997 1.356 . S
N1000 C992 1.356 . S
N1000 H1006 0.984 . S
N1000 H1007 0.984 . S
N1001 C994 1.356 . S
N1001 H1004 0.984 . S
N1001 H1005 0.985 . S
H1002 N997 0.984 . S
H1003 N997 0.985 . S
H1004 N1001 0.984 . S
H1005 N1001 0.985 . S
H1006 N1000 0.984 . S
H1007 N1000 0.984 . S
H1008 N996 0.984 . S
H1009 N996 0.985 . S
C1010 C1011 1.363 . S
C1010 C1016 1.379 . S
C1010 N1018 1.356 . S
C1011 C1010 1.363 . S
C1011 C1017 1.363 . S
C1012 C1013 1.363 . S
C1012 C1017 1.379 . S
C1012 N1019 1.356 . S
C1013 C1012 1.363 . S
C1013 C1016 1.363 . S
N1014 C1016 1.356 . S
N1014 H1026 0.984 . S
N1014 H1027 0.985 . S
N1015 C1017 1.356 . S
N1015 H1020 0.984 . S
N1015 H1021 0.985 . S
C1016 C1010 1.379 . S
C1016 C1013 1.363 . S
C1016 N1014 1.356 . S
C1017 C1011 1.363 . S
C1017 C1012 1.379 . S
C1017 N1015 1.356 . S
N1018 C1010 1.356 . S
N1018 H1024 0.984 . S
N1018 H1025 0.984 . S
N1019 C1012 1.356 . S
N1019 H1022 0.984 . S
N1019 H1023 0.985 . S
H1020 N1015 0.984 . S
H1021 N1015 0.985 . S
H1022 N1019 0.984 . S
H1023 N1019 0.985 . S
H1024 N1018 0.984 . S
H1025 N1018 0.984 . S
H1026 N1014 0.984 . S
H1027 N1014 0.985 . S
C1028 C1029 1.363 . S
C1028 C1034 1.379 . S
C1028 N1036 1.356 . S
C1029 C1028 1.363 . S
C1029 C1035 1.363 . S
C1030 C1031 1.363 . S
C1030 C1035 1.379 . S
C1030 N1037 1.356 . S
C1031 C1030 1.363 . S
C1031 C1034 1.363 . S
N1032 C1034 1.356 . S
N1032 H1044 0.984 . S
N1032 H1045 0.985 . S
N1033 C1035 1.356 . S
N1033 H1038 0.984 . S
N1033 H1039 0.985 . S
C1034 C1028 1.379 . S
C1034 C1031 1.363 . S
C1034 N1032 1.356 . S
C1035 C1029 1.363 . S
C1035 C1030 1.379 . S
C1035 N1033 1.356 . S
N1036 C1028 1.356 . S
N1036 H1042 0.984 . S
N1036 H1043 0.984 . S
N1037 C1030 1.356 . S
N1037 H1040 0.984 . S
N1037 H1041 0.985 . S
H1038 N1033 0.984 . S
H1039 N1033 0.985 . S
H1040 N1037 0.984 . S
H1041 N1037 0.985 . S
H1042 N1036 0.984 . S
H1043 N1036 0.984 . S
H1044 N1032 0.984 . S
H1045 N1032 0.985 . S
C1046 C1047 1.363 . S
C1046 C1052 1.379 . S
C1046 N1054 1.356 . S
C1047 C1046 1.363 . S
C1047 C1053 1.363 . S
C1048 C1049 1.363 1_554 S
C1048 C1053 1.379 . S
C1048 N1055 1.356 1_554 S
C1049 C1048 1.363 1_556 S
C1049 C1052 1.363 1_556 S
N1050 C1052 1.356 1_556 S
N1050 H1062 0.984 . S
N1050 H1063 0.985 . S
N1051 C1053 1.356 . S
N1051 H1056 0.984 . S
N1051 H1057 0.985 . S
C1052 C1046 1.379 . S
C1052 C1049 1.363 1_554 S
C1052 N1050 1.356 1_554 S
C1053 C1047 1.363 . S
C1053 C1048 1.379 . S
C1053 N1051 1.356 . S
N1054 C1046 1.356 . S
N1054 H1060 0.984 . S
N1054 H1061 0.984 . S
N1055 C1048 1.356 1_556 S
N1055 H1058 0.984 . S
N1055 H1059 0.985 1_556 S
H1056 N1051 0.984 . S
H1057 N1051 0.985 . S
H1058 N1055 0.984 . S
H1059 N1055 0.985 1_554 S
H1060 N1054 0.984 . S
H1061 N1054 0.984 . S
H1062 N1050 0.984 . S
H1063 N1050 0.985 . S
C1064 C1065 1.363 . S
C1064 C1070 1.379 . S
C1064 N1072 1.356 . S
C1065 C1064 1.363 . S
C1065 C1071 1.363 . S
C1066 C1067 1.363 . S
C1066 C1071 1.379 . S
C1066 N1073 1.356 . S
C1067 C1066 1.363 . S
C1067 C1070 1.363 . S
N1068 C1070 1.356 . S
N1068 H1080 0.984 . S
N1068 H1081 0.985 . S
N1069 C1071 1.356 . S
N1069 H1074 0.984 . S
N1069 H1075 0.985 . S
C1070 C1064 1.379 . S
C1070 C1067 1.363 . S
C1070 N1068 1.356 . S
C1071 C1065 1.363 . S
C1071 C1066 1.379 . S
C1071 N1069 1.356 . S
N1072 C1064 1.356 . S
N1072 H1078 0.984 . S
N1072 H1079 0.984 . S
N1073 C1066 1.356 . S
N1073 H1076 0.984 . S
N1073 H1077 0.985 . S
H1074 N1069 0.984 . S
H1075 N1069 0.985 . S
H1076 N1073 0.984 . S
H1077 N1073 0.985 . S
H1078 N1072 0.984 . S
H1079 N1072 0.984 . S
H1080 N1068 0.984 . S
H1081 N1068 0.985 . S
C1082 C1083 1.363 . S
C1082 C1088 1.379 . S
C1082 N1090 1.356 . S
C1083 C1082 1.363 . S
C1083 C1089 1.363 . S
C1084 C1085 1.363 . S
C1084 C1089 1.379 . S
C1084 N1091 1.356 . S
C1085 C1084 1.363 . S
C1085 C1088 1.363 . S
N1086 C1088 1.356 . S
N1086 H1098 0.984 . S
N1086 H1099 0.985 . S
N1087 C1089 1.356 . S
N1087 H1092 0.984 . S
N1087 H1093 0.985 . S
C1088 C1082 1.379 . S
C1088 C1085 1.363 . S
C1088 N1086 1.356 . S
C1089 C1083 1.363 . S
C1089 C1084 1.379 . S
C1089 N1087 1.356 . S
N1090 C1082 1.356 . S
N1090 H1096 0.984 . S
N1090 H1097 0.984 . S
N1091 C1084 1.356 . S
N1091 H1094 0.984 . S
N1091 H1095 0.985 . S
H1092 N1087 0.984 . S
H1093 N1087 0.985 . S
H1094 N1091 0.984 . S
H1095 N1091 0.985 . S
H1096 N1090 0.984 . S
H1097 N1090 0.984 . S
H1098 N1086 0.984 . S
H1099 N1086 0.985 . S
C1100 C1101 1.363 . S
C1100 C1106 1.379 . S
C1100 N1108 1.356 . S
C1101 C1100 1.363 . S
C1101 C1107 1.363 . S
C1102 C1103 1.363 . S
C1102 C1107 1.379 . S
C1102 N1109 1.356 . S
C1103 C1102 1.363 . S
C1103 C1106 1.363 . S
N1104 C1106 1.356 . S
N1104 H1116 0.984 . S
N1104 H1117 0.985 . S
N1105 C1107 1.356 . S
N1105 H1110 0.984 . S
N1105 H1111 0.985 . S
C1106 C1100 1.379 . S
C1106 C1103 1.363 . S
C1106 N1104 1.356 . S
C1107 C1101 1.363 . S
C1107 C1102 1.379 . S
C1107 N1105 1.356 . S
N1108 C1100 1.356 . S
N1108 H1114 0.984 . S
N1108 H1115 0.984 . S
N1109 C1102 1.356 . S
N1109 H1112 0.984 . S
N1109 H1113 0.985 . S
H1110 N1105 0.984 . S
H1111 N1105 0.985 . S
H1112 N1109 0.984 . S
H1113 N1109 0.985 . S
H1114 N1108 0.984 . S
H1115 N1108 0.984 . S
H1116 N1104 0.984 . S
H1117 N1104 0.985 . S
C1118 C1119 1.363 1_554 S
C1118 C1124 1.379 . S
C1118 N1126 1.356 1_554 S
C1119 C1118 1.363 1_556 S
C1119 C1125 1.363 1_556 S
C1120 C1121 1.363 . S
C1120 C1125 1.379 . S
C1120 N1127 1.356 . S
C1121 C1120 1.363 . S
C1121 C1124 1.363 . S
N1122 C1124 1.356 . S
N1122 H1134 0.984 . S
N1122 H1135 0.985 . S
N1123 C1125 1.356 1_556 S
N1123 H1128 0.984 . S
N1123 H1129 0.985 . S
C1124 C1118 1.379 . S
C1124 C1121 1.363 . S
C1124 N1122 1.356 . S
C1125 C1119 1.363 1_554 S
C1125 C1120 1.379 . S
C1125 N1123 1.356 1_554 S
N1126 C1118 1.356 1_556 S
N1126 H1132 0.984 1_556 S
N1126 H1133 0.984 . S
N1127 C1120 1.356 . S
N1127 H1130 0.984 . S
N1127 H1131 0.985 . S
H1128 N1123 0.984 . S
H1129 N1123 0.985 . S
H1130 N1127 0.984 . S
H1131 N1127 0.985 . S
H1132 N1126 0.984 1_554 S
H1133 N1126 0.984 . S
H1134 N1122 0.984 . S
H1135 N1122 0.985 . S
C1136 C1137 1.363 1_565 S
C1136 C1142 1.379 . S
C1136 N1144 1.356 . S
C1137 C1136 1.363 1_545 S
C1137 C1143 1.363 . S
C1138 C1139 1.363 1_545 S
C1138 C1143 1.379 . S
C1138 N1145 1.356 . S
C1139 C1138 1.363 1_565 S
C1139 C1142 1.363 . S
N1140 C1142 1.356 . S
N1140 H1152 0.984 . S
N1140 H1153 0.985 . S
N1141 C1143 1.356 . S
N1141 H1146 0.984 . S
N1141 H1147 0.985 . S
C1142 C1136 1.379 . S
C1142 C1139 1.363 . S
C1142 N1140 1.356 . S
C1143 C1137 1.363 . S
C1143 C1138 1.379 . S
C1143 N1141 1.356 . S
N1144 C1136 1.356 . S
N1144 H1150 0.984 . S
N1144 H1151 0.984 . S
N1145 C1138 1.356 . S
N1145 H1148 1.005 . S
N1145 H1149 0.985 . S
H1146 N1141 0.984 . S
H1147 N1141 0.985 . S
H1148 N1145 1.005 . S
H1149 N1145 0.985 . S
H1150 N1144 0.984 . S
H1151 N1144 0.984 . S
H1152 N1140 0.984 . S
H1153 N1140 0.985 . S
C1154 C1155 1.363 . S
C1154 C1160 1.379 . S
C1154 N1162 1.356 . S
C1155 C1154 1.363 . S
C1155 C1161 1.363 . S
C1156 C1157 1.363 1_554 S
C1156 C1161 1.379 . S
C1156 N1163 1.356 1_554 S
C1157 C1156 1.363 1_556 S
C1157 C1160 1.363 1_556 S
N1158 C1160 1.356 1_556 S
N1158 H1170 0.984 1_556 S
N1158 H1171 0.985 . S
N1159 C1161 1.356 . S
N1159 H1164 0.984 . S
N1159 H1165 0.985 . S
C1160 C1154 1.379 . S
C1160 C1157 1.363 1_554 S
C1160 N1158 1.356 1_554 S
C1161 C1155 1.363 . S
C1161 C1156 1.379 . S
C1161 N1159 1.356 . S
N1162 C1154 1.356 . S
N1162 H1168 0.984 . S
N1162 H1169 0.984 . S
N1163 C1156 1.356 1_556 S
N1163 H1166 0.984 . S
N1163 H1167 0.985 . S
H1164 N1159 0.984 . S
H1165 N1159 0.985 . S
H1166 N1163 0.984 . S
H1167 N1163 0.985 . S
H1168 N1162 0.984 . S
H1169 N1162 0.984 . S
H1170 N1158 0.984 1_554 S
H1171 N1158 0.985 . S
C1172 C1173 1.363 . S
C1172 C1178 1.379 . S
C1172 N1180 1.356 . S
C1173 C1172 1.363 . S
C1173 C1179 1.363 1_545 S
C1174 C1175 1.363 . S
C1174 C1179 1.379 . S
C1174 N1181 1.356 . S
C1175 C1174 1.363 . S
C1175 C1178 1.363 1_565 S
N1176 C1178 1.356 . S
N1176 H1188 0.984 . S
N1176 H1189 0.985 . S
N1177 C1179 1.356 . S
N1177 H1182 0.984 . S
N1177 H1183 0.985 . S
C1178 C1172 1.379 . S
C1178 C1175 1.363 1_545 S
C1178 N1176 1.356 . S
C1179 C1173 1.363 1_565 S
C1179 C1174 1.379 . S
C1179 N1177 1.356 . S
N1180 C1172 1.356 . S
N1180 H1186 0.984 . S
N1180 H1187 0.984 . S
N1181 C1174 1.356 . S
N1181 H1184 0.984 . S
N1181 H1185 0.985 . S
H1182 N1177 0.984 . S
H1183 N1177 0.985 . S
H1184 N1181 0.984 . S
H1185 N1181 0.985 . S
H1186 N1180 0.984 . S
H1187 N1180 0.984 . S
H1188 N1176 0.984 . S
H1189 N1176 0.985 . S
C1190 C1191 1.363 . S
C1190 C1196 1.379 . S
C1190 N1198 1.356 . S
C1191 C1190 1.363 . S
C1191 C1197 1.363 . S
C1192 C1193 1.363 . S
C1192 C1197 1.379 . S
C1192 N1199 1.356 . S
C1193 C1192 1.363 . S
C1193 C1196 1.363 . S
N1194 C1196 1.356 . S
N1194 H1206 0.984 . S
N1194 H1207 0.985 . S
N1195 C1197 1.356 . S
N1195 H1200 0.984 . S
N1195 H1201 0.985 . S
C1196 C1190 1.379 . S
C1196 C1193 1.363 . S
C1196 N1194 1.356 . S
C1197 C1191 1.363 . S
C1197 C1192 1.379 . S
C1197 N1195 1.356 . S
N1198 C1190 1.356 . S
N1198 H1204 0.984 . S
N1198 H1205 0.984 . S
N1199 C1192 1.356 . S
N1199 H1202 0.984 . S
N1199 H1203 0.985 . S
H1200 N1195 0.984 . S
H1201 N1195 0.985 . S
H1202 N1199 0.984 . S
H1203 N1199 0.985 . S
H1204 N1198 0.984 . S
H1205 N1198 0.984 . S
H1206 N1194 0.984 . S
H1207 N1194 0.985 . S
C1208 C1209 1.363 . S
C1208 C1214 1.379 . S
C1208 N1216 1.356 . S
C1209 C1208 1.363 . S
C1209 C1215 1.363 1_545 S
C1210 C1211 1.363 . S
C1210 C1215 1.379 . S
C1210 N1217 1.356 . S
C1211 C1210 1.363 . S
C1211 C1214 1.363 1_565 S
N1212 C1214 1.356 . S
N1212 H1224 0.984 . S
N1212 H1225 0.985 . S
N1213 C1215 1.356 . S
N1213 H1218 0.984 . S
N1213 H1219 0.985 . S
C1214 C1208 1.379 . S
C1214 C1211 1.363 1_545 S
C1214 N1212 1.356 . S
C1215 C1209 1.363 1_565 S
C1215 C1210 1.379 . S
C1215 N1213 1.356 . S
N1216 C1208 1.356 . S
N1216 H1222 0.984 . S
N1216 H1223 0.984 . S
N1217 C1210 1.356 . S
N1217 H1220 0.984 . S
N1217 H1221 0.985 . S
H1218 N1213 0.984 . S
H1219 N1213 0.985 . S
H1220 N1217 0.984 . S
H1221 N1217 0.985 . S
H1222 N1216 0.984 . S
H1223 N1216 0.984 . S
H1224 N1212 0.984 . S
H1225 N1212 0.985 . S
C1226 C1227 1.363 . S
C1226 C1232 1.379 . S
C1226 N1234 1.356 . S
C1227 C1226 1.363 . S
C1227 C1233 1.363 . S
C1228 C1229 1.363 1_554 S
C1228 C1233 1.379 . S
C1228 N1235 1.356 1_554 S
C1229 C1228 1.363 1_556 S
C1229 C1232 1.363 1_556 S
N1230 C1232 1.356 1_556 S
N1230 H1242 0.984 . S
N1230 H1243 0.985 . S
N1231 C1233 1.356 . S
N1231 H1236 0.984 . S
N1231 H1237 0.985 . S
C1232 C1226 1.379 . S
C1232 C1229 1.363 1_554 S
C1232 N1230 1.356 1_554 S
C1233 C1227 1.363 . S
C1233 C1228 1.379 . S
C1233 N1231 1.356 . S
N1234 C1226 1.356 . S
N1234 H1240 0.984 . S
N1234 H1241 0.984 . S
N1235 C1228 1.356 1_556 S
N1235 H1238 0.984 . S
N1235 H1239 0.985 1_556 S
H1236 N1231 0.984 . S
H1237 N1231 0.985 . S
H1238 N1235 0.984 . S
H1239 N1235 0.985 1_554 S
H1240 N1234 0.984 . S
H1241 N1234 0.984 . S
H1242 N1230 0.984 . S
H1243 N1230 0.985 . S
C1244 C1245 1.363 1_565 S
C1244 C1250 1.379 . S
C1244 N1252 1.356 . S
C1245 C1244 1.363 1_545 S
C1245 C1251 1.363 . S
C1246 C1247 1.363 1_545 S
C1246 C1251 1.379 . S
C1246 N1253 1.356 . S
C1247 C1246 1.363 1_565 S
C1247 C1250 1.363 . S
N1248 C1250 1.356 . S
N1248 H1260 0.984 . S
N1248 H1261 0.985 . S
N1249 C1251 1.356 . S
N1249 H1254 0.984 . S
N1249 H1255 0.985 . S
C1250 C1244 1.379 . S
C1250 C1247 1.363 . S
C1250 N1248 1.356 . S
C1251 C1245 1.363 . S
C1251 C1246 1.379 . S
C1251 N1249 1.356 . S
N1252 C1244 1.356 . S
N1252 H1258 0.984 . S
N1252 H1259 0.984 . S
N1253 C1246 1.356 . S
N1253 H1256 0.984 . S
N1253 H1257 0.985 . S
H1254 N1249 0.984 . S
H1255 N1249 0.985 . S
H1256 N1253 0.984 . S
H1257 N1253 0.985 . S
H1258 N1252 0.984 . S
H1259 N1252 0.984 . S
H1260 N1248 0.984 . S
H1261 N1248 0.985 . S
C1262 C1263 1.363 . S
C1262 C1268 1.379 . S
C1262 N1270 1.356 . S
C1263 C1262 1.363 . S
C1263 C1269 1.363 . S
C1264 C1265 1.363 . S
C1264 C1269 1.379 . S
C1264 N1271 1.356 . S
C1265 C1264 1.363 . S
C1265 C1268 1.363 . S
N1266 C1268 1.356 . S
N1266 H1278 0.984 . S
N1266 H1279 0.985 . S
N1267 C1269 1.356 . S
N1267 H1272 0.984 . S
N1267 H1273 0.985 . S
C1268 C1262 1.379 . S
C1268 C1265 1.363 . S
C1268 N1266 1.356 . S
C1269 C1263 1.363 . S
C1269 C1264 1.379 . S
C1269 N1267 1.356 . S
N1270 C1262 1.356 . S
N1270 H1276 0.984 . S
N1270 H1277 0.984 . S
N1271 C1264 1.356 . S
N1271 H1274 0.984 . S
N1271 H1275 0.985 . S
H1272 N1267 0.984 . S
H1273 N1267 0.985 . S
H1274 N1271 0.984 . S
H1275 N1271 0.985 . S
H1276 N1270 0.984 . S
H1277 N1270 0.984 . S
H1278 N1266 0.984 . S
H1279 N1266 0.985 . S
C1280 C1281 1.363 . S
C1280 C1286 1.379 . S
C1280 N1288 1.356 . S
C1281 C1280 1.363 . S
C1281 C1287 1.363 . S
C1282 C1283 1.363 . S
C1282 C1287 1.379 . S
C1282 N1289 1.356 . S
C1283 C1282 1.363 . S
C1283 C1286 1.363 . S
N1284 C1286 1.356 . S
N1284 H1296 0.984 . S
N1284 H1297 0.985 . S
N1285 C1287 1.356 . S
N1285 H1290 0.984 . S
N1285 H1291 0.985 . S
C1286 C1280 1.379 . S
C1286 C1283 1.363 . S
C1286 N1284 1.356 . S
C1287 C1281 1.363 . S
C1287 C1282 1.379 . S
C1287 N1285 1.356 . S
N1288 C1280 1.356 . S
N1288 H1294 0.984 . S
N1288 H1295 0.984 . S
N1289 C1282 1.356 . S
N1289 H1292 0.984 . S
N1289 H1293 0.985 . S
H1290 N1285 0.984 . S
H1291 N1285 0.985 . S
H1292 N1289 0.984 . S
H1293 N1289 0.985 . S
H1294 N1288 0.984 . S
H1295 N1288 0.984 . S
H1296 N1284 0.984 . S
H1297 N1284 0.985 . S
C1298 C1299 1.363 . S
C1298 C1304 1.379 . S
C1298 N1306 1.356 . S
C1299 C1298 1.363 . S
C1299 C1305 1.363 . S
C1300 C1301 1.363 . S
C1300 C1305 1.379 . S
C1300 N1307 1.356 . S
C1301 C1300 1.363 . S
C1301 C1304 1.363 . S
N1302 C1304 1.356 . S
N1302 H1314 0.984 . S
N1302 H1315 0.985 . S
N1303 C1305 1.356 . S
N1303 H1308 0.984 . S
N1303 H1309 0.985 . S
C1304 C1298 1.379 . S
C1304 C1301 1.363 . S
C1304 N1302 1.356 . S
C1305 C1299 1.363 . S
C1305 C1300 1.379 . S
C1305 N1303 1.356 . S
N1306 C1298 1.356 . S
N1306 H1312 0.984 . S
N1306 H1313 0.984 . S
N1307 C1300 1.356 . S
N1307 H1310 0.984 . S
N1307 H1311 0.985 . S
H1308 N1303 0.984 . S
H1309 N1303 0.985 . S
H1310 N1307 0.984 . S
H1311 N1307 0.985 . S
H1312 N1306 0.984 . S
H1313 N1306 0.984 . S
H1314 N1302 0.984 . S
H1315 N1302 0.985 . S
C1316 C1317 1.363 . S
C1316 C1322 1.379 . S
C1316 N1324 1.356 . S
C1317 C1316 1.363 . S
C1317 C1323 1.363 . S
C1318 C1319 1.363 . S
C1318 C1323 1.379 . S
C1318 N1325 1.356 . S
C1319 C1318 1.363 . S
C1319 C1322 1.363 . S
N1320 C1322 1.356 . S
N1320 H1332 0.984 . S
N1320 H1333 0.985 . S
N1321 C1323 1.356 . S
N1321 H1326 0.984 . S
N1321 H1327 0.985 . S
C1322 C1316 1.379 . S
C1322 C1319 1.363 . S
C1322 N1320 1.356 . S
C1323 C1317 1.363 . S
C1323 C1318 1.379 . S
C1323 N1321 1.356 . S
N1324 C1316 1.356 . S
N1324 H1330 0.984 . S
N1324 H1331 0.984 . S
N1325 C1318 1.356 . S
N1325 H1328 0.984 . S
N1325 H1329 0.985 . S
H1326 N1321 0.984 . S
H1327 N1321 0.985 . S
H1328 N1325 0.984 . S
H1329 N1325 0.985 . S
H1330 N1324 0.984 . S
H1331 N1324 0.984 . S
H1332 N1320 0.984 . S
H1333 N1320 0.985 . S
C1334 C1335 1.363 . S
C1334 C1340 1.379 . S
C1334 N1342 1.356 . S
C1335 C1334 1.363 . S
C1335 C1341 1.363 . S
C1336 C1337 1.363 . S
C1336 C1341 1.379 . S
C1336 N1343 1.356 . S
C1337 C1336 1.363 . S
C1337 C1340 1.363 . S
N1338 C1340 1.356 1_554 S
N1338 H1350 0.984 . S
N1338 H1351 0.985 . S
N1339 C1341 1.356 . S
N1339 H1344 0.984 . S
N1339 H1345 0.985 . S
C1340 C1334 1.379 . S
C1340 C1337 1.363 . S
C1340 N1338 1.356 1_556 S
C1341 C1335 1.363 . S
C1341 C1336 1.379 . S
C1341 N1339 1.356 . S
N1342 C1334 1.356 . S
N1342 H1348 0.984 . S
N1342 H1349 0.984 . S
N1343 C1336 1.356 . S
N1343 H1346 0.984 . S
N1343 H1347 0.985 . S
H1344 N1339 0.984 . S
H1345 N1339 0.985 . S
H1346 N1343 0.984 . S
H1347 N1343 0.985 . S
H1348 N1342 0.984 . S
H1349 N1342 0.984 . S
H1350 N1338 0.984 . S
H1351 N1338 0.985 . S
C1352 C1353 1.363 . S
C1352 C1358 1.379 . S
C1352 N1360 1.356 . S
C1353 C1352 1.363 . S
C1353 C1359 1.363 . S
C1354 C1355 1.363 . S
C1354 C1359 1.379 . S
C1354 N1361 1.356 . S
C1355 C1354 1.363 . S
C1355 C1358 1.363 . S
N1356 C1358 1.356 . S
N1356 H1368 0.984 . S
N1356 H1369 0.985 . S
N1357 C1359 1.356 . S
N1357 H1362 0.984 . S
N1357 H1363 0.985 . S
C1358 C1352 1.379 . S
C1358 C1355 1.363 . S
C1358 N1356 1.356 . S
C1359 C1353 1.363 . S
C1359 C1354 1.379 . S
C1359 N1357 1.356 . S
N1360 C1352 1.356 . S
N1360 H1366 0.984 . S
N1360 H1367 0.984 . S
N1361 C1354 1.356 . S
N1361 H1364 0.984 . S
N1361 H1365 0.985 . S
H1362 N1357 0.984 . S
H1363 N1357 0.985 . S
H1364 N1361 0.984 . S
H1365 N1361 0.985 . S
H1366 N1360 0.984 . S
H1367 N1360 0.984 . S
H1368 N1356 0.984 . S
H1369 N1356 0.985 . S
C1370 C1371 1.363 . S
C1370 C1376 1.379 . S
C1370 N1378 1.356 . S
C1371 C1370 1.363 . S
C1371 C1377 1.363 . S
C1372 C1373 1.363 . S
C1372 C1377 1.379 . S
C1372 N1379 1.356 . S
C1373 C1372 1.363 . S
C1373 C1376 1.363 . S
N1374 C1376 1.356 . S
N1374 H1386 0.984 . S
N1374 H1387 0.985 . S
N1375 C1377 1.356 . S
N1375 H1380 0.984 . S
N1375 H1381 0.985 . S
C1376 C1370 1.379 . S
C1376 C1373 1.363 . S
C1376 N1374 1.356 . S
C1377 C1371 1.363 . S
C1377 C1372 1.379 . S
C1377 N1375 1.356 . S
N1378 C1370 1.356 . S
N1378 H1384 0.984 . S
N1378 H1385 0.984 . S
N1379 C1372 1.356 . S
N1379 H1382 0.984 . S
N1379 H1383 0.985 . S
H1380 N1375 0.984 . S
H1381 N1375 0.985 . S
H1382 N1379 0.984 . S
H1383 N1379 0.985 . S
H1384 N1378 0.984 . S
H1385 N1378 0.984 . S
H1386 N1374 0.984 . S
H1387 N1374 0.985 . S
C1388 C1389 1.363 . S
C1388 C1394 1.379 . S
C1388 N1396 1.356 . S
C1389 C1388 1.363 . S
C1389 C1395 1.363 . S
C1390 C1391 1.363 . S
C1390 C1395 1.379 . S
C1390 N1397 1.356 1_556 S
C1391 C1390 1.363 . S
C1391 C1394 1.363 . S
N1392 C1394 1.356 . S
N1392 H1404 0.984 . S
N1392 H1405 0.985 . S
N1393 C1395 1.356 . S
N1393 H1398 0.984 . S
N1393 H1399 0.985 . S
C1394 C1388 1.379 . S
C1394 C1391 1.363 . S
C1394 N1392 1.356 . S
C1395 C1389 1.363 . S
C1395 C1390 1.379 . S
C1395 N1393 1.356 . S
N1396 C1388 1.356 . S
N1396 H1402 0.984 . S
N1396 H1403 0.984 . S
N1397 C1390 1.356 1_554 S
N1397 H1400 0.984 . S
N1397 H1401 0.985 . S
H1398 N1393 0.984 . S
H1399 N1393 0.985 . S
H1400 N1397 0.984 . S
H1401 N1397 0.985 . S
H1402 N1396 0.984 . S
H1403 N1396 0.984 . S
H1404 N1392 0.984 . S
H1405 N1392 0.985 . S
C1406 C1407 1.363 . S
C1406 C1412 1.379 . S
C1406 N1414 1.356 . S
C1407 C1406 1.363 . S
C1407 C1413 1.363 . S
C1408 C1409 1.363 . S
C1408 C1413 1.379 . S
C1408 N1415 1.356 . S
C1409 C1408 1.363 . S
C1409 C1412 1.363 . S
N1410 C1412 1.356 . S
N1410 H1422 0.984 . S
N1410 H1423 0.985 . S
N1411 C1413 1.356 . S
N1411 H1416 0.984 . S
N1411 H1417 0.985 . S
C1412 C1406 1.379 . S
C1412 C1409 1.363 . S
C1412 N1410 1.356 . S
C1413 C1407 1.363 . S
C1413 C1408 1.379 . S
C1413 N1411 1.356 . S
N1414 C1406 1.356 . S
N1414 H1420 0.984 . S
N1414 H1421 0.984 . S
N1415 C1408 1.356 . S
N1415 H1418 0.984 . S
N1415 H1419 0.985 . S
H1416 N1411 0.984 . S
H1417 N1411 0.985 . S
H1418 N1415 0.984 . S
H1419 N1415 0.985 . S
H1420 N1414 0.984 . S
H1421 N1414 0.984 . S
H1422 N1410 0.984 . S
H1423 N1410 0.985 . S
C1424 C1425 1.363 . S
C1424 C1430 1.379 . S
C1424 N1432 1.356 . S
C1425 C1424 1.363 . S
C1425 C1431 1.363 . S
C1426 C1427 1.363 . S
C1426 C1431 1.379 . S
C1426 N1433 1.356 . S
C1427 C1426 1.363 . S
C1427 C1430 1.363 . S
N1428 C1430 1.356 . S
N1428 H1440 0.984 . S
N1428 H1441 0.985 . S
N1429 C1431 1.356 1_554 S
N1429 H1434 0.984 . S
N1429 H1435 0.985 . S
C1430 C1424 1.379 . S
C1430 C1427 1.363 . S
C1430 N1428 1.356 . S
C1431 C1425 1.363 . S
C1431 C1426 1.379 . S
C1431 N1429 1.356 1_556 S
N1432 C1424 1.356 . S
N1432 H1438 0.984 . S
N1432 H1439 0.984 . S
N1433 C1426 1.356 . S
N1433 H1436 0.984 . S
N1433 H1437 0.985 1_556 S
H1434 N1429 0.984 . S
H1435 N1429 0.985 . S
H1436 N1433 0.984 . S
H1437 N1433 0.985 1_554 S
H1438 N1432 0.984 . S
H1439 N1432 0.984 . S
H1440 N1428 0.984 . S
H1441 N1428 0.985 . S
C1442 C1443 1.363 . S
C1442 C1448 1.379 . S
C1442 N1450 1.356 . S
C1443 C1442 1.363 . S
C1443 C1449 1.363 . S
C1444 C1445 1.363 . S
C1444 C1449 1.379 . S
C1444 N1451 1.356 . S
C1445 C1444 1.363 . S
C1445 C1448 1.363 . S
N1446 C1448 1.356 . S
N1446 H1458 0.984 . S
N1446 H1459 0.985 . S
N1447 C1449 1.356 . S
N1447 H1452 0.984 . S
N1447 H1453 0.985 . S
C1448 C1442 1.379 . S
C1448 C1445 1.363 . S
C1448 N1446 1.356 . S
C1449 C1443 1.363 . S
C1449 C1444 1.379 . S
C1449 N1447 1.356 . S
N1450 C1442 1.356 . S
N1450 H1456 0.984 . S
N1450 H1457 0.984 . S
N1451 C1444 1.356 . S
N1451 H1454 0.984 . S
N1451 H1455 0.985 . S
H1452 N1447 0.984 . S
H1453 N1447 0.985 . S
H1454 N1451 0.984 . S
H1455 N1451 0.985 . S
H1456 N1450 0.984 . S
H1457 N1450 0.984 . S
H1458 N1446 0.984 . S
H1459 N1446 0.985 . S
C1460 C1461 1.363 . S
C1460 C1466 1.379 . S
C1460 N1468 1.356 . S
C1461 C1460 1.363 . S
C1461 C1467 1.363 . S
C1462 C1463 1.363 . S
C1462 C1467 1.379 . S
C1462 N1469 1.356 . S
C1463 C1462 1.363 . S
C1463 C1466 1.363 . S
N1464 C1466 1.356 . S
N1464 H1476 0.984 . S
N1464 H1477 0.985 . S
N1465 C1467 1.356 . S
N1465 H1470 0.984 . S
N1465 H1471 0.985 . S
C1466 C1460 1.379 . S
C1466 C1463 1.363 . S
C1466 N1464 1.356 . S
C1467 C1461 1.363 . S
C1467 C1462 1.379 . S
C1467 N1465 1.356 . S
N1468 C1460 1.356 . S
N1468 H1474 0.984 . S
N1468 H1475 0.984 . S
N1469 C1462 1.356 . S
N1469 H1472 0.984 . S
N1469 H1473 0.985 . S
H1470 N1465 0.984 . S
H1471 N1465 0.985 . S
H1472 N1469 0.984 . S
H1473 N1469 0.985 . S
H1474 N1468 0.984 . S
H1475 N1468 0.984 . S
H1476 N1464 0.984 . S
H1477 N1464 0.985 . S
C1478 C1479 1.363 . S
C1478 C1484 1.379 . S
C1478 N1486 1.356 . S
C1479 C1478 1.363 . S
C1479 C1485 1.363 . S
C1480 C1481 1.363 . S
C1480 C1485 1.379 . S
C1480 N1487 1.356 . S
C1481 C1480 1.363 . S
C1481 C1484 1.363 . S
N1482 C1484 1.356 . S
N1482 H1494 0.984 . S
N1482 H1495 0.985 . S
N1483 C1485 1.356 . S
N1483 H1488 0.984 . S
N1483 H1489 0.985 . S
C1484 C1478 1.379 . S
C1484 C1481 1.363 . S
C1484 N1482 1.356 . S
C1485 C1479 1.363 . S
C1485 C1480 1.379 . S
C1485 N1483 1.356 . S
N1486 C1478 1.356 . S
N1486 H1492 0.984 . S
N1486 H1493 0.984 . S
N1487 C1480 1.356 . S
N1487 H1490 0.984 . S
N1487 H1491 0.985 . S
H1488 N1483 0.984 . S
H1489 N1483 0.985 . S
H1490 N1487 0.984 . S
H1491 N1487 0.985 . S
H1492 N1486 0.984 . S
H1493 N1486 0.984 . S
H1494 N1482 0.984 . S
H1495 N1482 0.985 . S
C1496 C1497 1.363 . S
C1496 C1502 1.379 . S
C1496 N1504 1.356 . S
C1497 C1496 1.363 . S
C1497 C1503 1.363 . S
C1498 C1499 1.363 . S
C1498 C1503 1.379 . S
C1498 N1505 1.356 . S
C1499 C1498 1.363 . S
C1499 C1502 1.363 . S
N1500 C1502 1.356 . S
N1500 H1512 0.984 . S
N1500 H1513 0.985 . S
N1501 C1503 1.356 . S
N1501 H1506 0.984 . S
N1501 H1507 0.985 . S
C1502 C1496 1.379 . S
C1502 C1499 1.363 . S
C1502 N1500 1.356 . S
C1503 C1497 1.363 . S
C1503 C1498 1.379 . S
C1503 N1501 1.356 . S
N1504 C1496 1.356 . S
N1504 H1510 0.984 . S
N1504 H1511 0.984 . S
N1505 C1498 1.356 . S
N1505 H1508 0.984 . S
N1505 H1509 0.985 . S
H1506 N1501 0.984 . S
H1507 N1501 0.985 . S
H1508 N1505 0.984 . S
H1509 N1505 0.985 . S
H1510 N1504 0.984 . S
H1511 N1504 0.984 . S
H1512 N1500 0.984 . S
H1513 N1500 0.985 . S
C1514 C1515 1.363 . S
C1514 C1520 1.379 . S
C1514 N1522 1.356 . S
C1515 C1514 1.363 . S
C1515 C1521 1.363 . S
C1516 C1517 1.363 . S
C1516 C1521 1.379 . S
C1516 N1523 1.356 . S
C1517 C1516 1.363 . S
C1517 C1520 1.363 . S
N1518 C1520 1.356 . S
N1518 H1530 0.984 . S
N1518 H1531 0.985 . S
N1519 C1521 1.356 . S
N1519 H1524 0.984 . S
N1519 H1525 0.985 . S
C1520 C1514 1.379 . S
C1520 C1517 1.363 . S
C1520 N1518 1.356 . S
C1521 C1515 1.363 . S
C1521 C1516 1.379 . S
C1521 N1519 1.356 . S
N1522 C1514 1.356 . S
N1522 H1528 0.984 . S
N1522 H1529 0.984 . S
N1523 C1516 1.356 . S
N1523 H1526 0.984 . S
N1523 H1527 0.985 . S
H1524 N1519 0.984 . S
H1525 N1519 0.985 . S
H1526 N1523 0.984 . S
H1527 N1523 0.985 . S
H1528 N1522 0.984 . S
H1529 N1522 0.984 . S
H1530 N1518 0.984 . S
H1531 N1518 0.985 . S
C1532 C1533 1.363 . S
C1532 C1538 1.379 . S
C1532 N1540 1.356 . S
C1533 C1532 1.363 . S
C1533 C1539 1.363 . S
C1534 C1535 1.363 . S
C1534 C1539 1.379 . S
C1534 N1541 1.356 . S
C1535 C1534 1.363 . S
C1535 C1538 1.363 . S
N1536 C1538 1.356 . S
N1536 H1548 0.984 . S
N1536 H1549 0.985 . S
N1537 C1539 1.356 . S
N1537 H1542 0.984 . S
N1537 H1543 0.985 . S
C1538 C1532 1.379 . S
C1538 C1535 1.363 . S
C1538 N1536 1.356 . S
C1539 C1533 1.363 . S
C1539 C1534 1.379 . S
C1539 N1537 1.356 . S
N1540 C1532 1.356 . S
N1540 H1546 0.984 . S
N1540 H1547 0.984 . S
N1541 C1534 1.356 . S
N1541 H1544 0.984 . S
N1541 H1545 0.985 . S
H1542 N1537 0.984 . S
H1543 N1537 0.985 . S
H1544 N1541 0.984 . S
H1545 N1541 0.985 . S
H1546 N1540 0.984 . S
H1547 N1540 0.984 . S
H1548 N1536 0.984 . S
H1549 N1536 0.985 . S
C1550 C1551 1.363 . S
C1550 C1556 1.379 . S
C1550 N1558 1.356 . S
C1551 C1550 1.363 . S
C1551 C1557 1.363 . S
C1552 C1553 1.363 . S
C1552 C1557 1.379 . S
C1552 N1559 1.356 1_556 S
C1553 C1552 1.363 . S
C1553 C1556 1.363 . S
N1554 C1556 1.356 . S
N1554 H1566 0.984 . S
N1554 H1567 0.985 . S
N1555 C1557 1.356 . S
N1555 H1560 0.984 . S
N1555 H1561 0.985 . S
C1556 C1550 1.379 . S
C1556 C1553 1.363 . S
C1556 N1554 1.356 . S
C1557 C1551 1.363 . S
C1557 C1552 1.379 . S
C1557 N1555 1.356 . S
N1558 C1550 1.356 . S
N1558 H1564 0.984 . S
N1558 H1565 0.984 . S
N1559 C1552 1.356 1_554 S
N1559 H1562 0.984 . S
N1559 H1563 0.985 . S
H1560 N1555 0.984 . S
H1561 N1555 0.985 . S
H1562 N1559 0.984 . S
H1563 N1559 0.985 . S
H1564 N1558 0.984 . S
H1565 N1558 0.984 . S
H1566 N1554 0.984 . S
H1567 N1554 0.985 . S
C417 C109 1.525 . S
C419 C3 1.525 . S
C435 C18 1.525 . S
C437 C328 1.525 . S
C453 C31 1.525 . S
C455 C135 1.525 . S
C471 C44 1.525 . S
C473 C356 1.525 . S
C489 C55 1.525 . S
C491 C159 1.525 . S
C507 C382 1.525 . S
C509 C68 1.525 . S
C525 C185 1.525 . S
C527 C81 1.525 . S
C543 C406 1.525 . S
C545 C96 1.525 . S
C561 C224 1.525 . S
C563 C122 1.525 . S
C579 C148 1.525 . S
C581 C252 1.525 . S
C597 C172 1.525 . S
C599 C276 1.525 . S
C615 C302 1.525 . S
C617 C198 1.525 . S
C633 C315 1.525 . S
C635 C211 1.525 . S
C651 C237 1.525 . S
C653 C343 1.525 . S
C669 C265 1.525 . S
C671 C367 1.525 . S
C687 C393 1.525 . S
C689 C289 1.525 . S
C705 C5 1.601 . S
C707 C57 1.601 . S
C723 C70 1.601 . S
C725 C16 1.601 . S
C741 C83 1.601 . S
C743 C29 1.601 . S
C759 C42 1.601 . S
C761 C94 1.601 . S
C777 C107 1.601 . S
C779 C161 1.601 . S
C795 C120 1.601 . S
C797 C174 1.601 . S
C813 C187 1.601 . S
C815 C133 1.601 . S
C831 C200 1.601 . S
C833 C146 1.601 . S
C849 C263 1.597 1_565 S
C851 C213 1.597 1_545 S
C867 C278 1.601 . S
C869 C226 1.601 . S
C885 C239 1.597 1_565 S
C887 C291 1.597 1_545 S
C903 C304 1.601 . S
C905 C250 1.601 . S
C921 C369 1.597 1_545 S
C923 C317 1.597 1_565 S
C939 C330 1.601 . S
C941 C380 1.601 . S
C957 C395 1.597 1_565 S
C959 C341 1.597 1_545 S
C975 C408 1.601 . S
C977 C354 1.601 . S
C993 C56 0.961 . S
C995 C4 0.961 . S
C1011 C69 0.961 . S
C1013 C23 0.961 . S
C1029 C36 0.961 . S
C1031 C82 0.961 . S
C1047 C101 0.961 . S
C1049 C49 0.961 . S
C1065 C160 0.961 . S
C1067 C114 0.961 . S
C1083 C127 0.961 . S
C1085 C173 0.961 . S
C1101 C186 0.961 . S
C1103 C140 0.961 . S
C1119 C199 0.961 . S
C1121 C153 0.961 . S
C1137 C212 0.961 . S
C1139 C270 0.961 . S
C1155 C277 0.961 . S
C1157 C225 0.961 . S
C1173 C290 0.961 . S
C1175 C238 0.961 . S
C1191 C303 0.961 . S
C1193 C257 0.961 . S
C1209 C368 0.961 . S
C1211 C316 0.961 . S
C1227 C329 0.961 . S
C1229 C387 0.961 . S
C1245 C348 0.961 . S
C1247 C394 0.961 . S
C1263 C361 0.961 . S
C1265 C407 0.961 . S
C1281 C10 1.533 . S
C1283 C283 1.533 . S
C1299 C296 1.533 . S
C1301 C17 1.533 . S
C1317 C30 1.532 . S
C1319 C309 1.532 . S
C1335 C43 1.532 . S
C1337 C264 1.532 1_556 S
C1353 C251 1.532 . S
C1355 C62 1.532 . S
C1371 C218 1.532 . S
C1373 C75 1.532 . S
C1389 C231 1.533 . S
C1391 C88 1.533 1_556 S
C1407 C95 1.532 . S
C1409 C244 1.532 . S
C1425 C108 1.533 1_556 S
C1427 C381 1.532 . S
C1443 C400 1.533 . S
C1445 C121 1.533 . S
C1461 C413 1.532 . S
C1463 C134 1.532 . S
C1479 C374 1.532 . S
C1481 C147 1.532 . S
C1497 C355 1.532 . S
C1499 C166 1.532 . S
C1515 C322 1.533 . S
C1517 C179 1.533 . S
C1533 C192 1.533 . S
C1535 C335 1.533 . S
C1551 C205 1.532 . S
C1553 C342 1.532 1_556 S
