# Generated by pormake.
# Topology ukf, (4)-cn, num edge types: 1
# Building blocks:
#     Node 0, Type 0, BuildingBlock: NAHDIM_clean_sbu_0, # of connection points: 4
#     Node 1, Type 0, BuildingBlock: NAHDIM_clean_sbu_0, # of connection points: 4
#     Node 2, Type 0, BuildingBlock: NAHDIM_clean_sbu_0, # of connection points: 4
#     Node 3, Type 0, BuildingBlock: NAHDIM_clean_sbu_0, # of connection points: 4
#     Node 4, Type 0, BuildingBlock: NAHDIM_clean_sbu_0, # of connection points: 4
#     Node 5, Type 0, BuildingBlock: NAHDIM_clean_sbu_0, # of connection points: 4
#     Node 6, Type 0, BuildingBlock: NAHDIM_clean_sbu_0, # of connection points: 4
#     Node 7, Type 0, BuildingBlock: NAHDIM_clean_sbu_0, # of connection points: 4
#     Node 8, Type 0, BuildingBlock: NAHDIM_clean_sbu_0, # of connection points: 4
#     Node 9, Type 0, BuildingBlock: NAHDIM_clean_sbu_0, # of connection points: 4
#     Node 10, Type 0, BuildingBlock: NAHDIM_clean_sbu_0, # of connection points: 4
#     Node 11, Type 0, BuildingBlock: NAHDIM_clean_sbu_0, # of connection points: 4
#     Edge 12, Type (0, 0), BuildingBlock: AJUNOK_clean_linker_0, # of connection points: 2
#     Edge 13, Type (0, 0), BuildingBlock: AJUNOK_clean_linker_0, # of connection points: 2
#     Edge 14, Type (0, 0), BuildingBlock: AJUNOK_clean_linker_0, # of connection points: 2
#     Edge 15, Type (0, 0), BuildingBlock: AJUNOK_clean_linker_0, # of connection points: 2
#     Edge 16, Type (0, 0), BuildingBlock: AJUNOK_clean_linker_0, # of connection points: 2
#     Edge 17, Type (0, 0), BuildingBlock: AJUNOK_clean_linker_0, # of connection points: 2
#     Edge 18, Type (0, 0), BuildingBlock: AJUNOK_clean_linker_0, # of connection points: 2
#     Edge 19, Type (0, 0), BuildingBlock: AJUNOK_clean_linker_0, # of connection points: 2
#     Edge 20, Type (0, 0), BuildingBlock: AJUNOK_clean_linker_0, # of connection points: 2
#     Edge 21, Type (0, 0), BuildingBlock: AJUNOK_clean_linker_0, # of connection points: 2
#     Edge 22, Type (0, 0), BuildingBlock: AJUNOK_clean_linker_0, # of connection points: 2
#     Edge 23, Type (0, 0), BuildingBlock: AJUNOK_clean_linker_0, # of connection points: 2
#     Edge 24, Type (0, 0), BuildingBlock: AJUNOK_clean_linker_0, # of connection points: 2
#     Edge 25, Type (0, 0), BuildingBlock: AJUNOK_clean_linker_0, # of connection points: 2
#     Edge 26, Type (0, 0), BuildingBlock: AJUNOK_clean_linker_0, # of connection points: 2
#     Edge 27, Type (0, 0), BuildingBlock: AJUNOK_clean_linker_0, # of connection points: 2
#     Edge 28, Type (0, 0), BuildingBlock: AJUNOK_clean_linker_0, # of connection points: 2
#     Edge 29, Type (0, 0), BuildingBlock: AJUNOK_clean_linker_0, # of connection points: 2
#     Edge 30, Type (0, 0), BuildingBlock: AJUNOK_clean_linker_0, # of connection points: 2
#     Edge 31, Type (0, 0), BuildingBlock: AJUNOK_clean_linker_0, # of connection points: 2
#     Edge 32, Type (0, 0), BuildingBlock: AJUNOK_clean_linker_0, # of connection points: 2
#     Edge 33, Type (0, 0), BuildingBlock: AJUNOK_clean_linker_0, # of connection points: 2
#     Edge 34, Type (0, 0), BuildingBlock: AJUNOK_clean_linker_0, # of connection points: 2
#     Edge 35, Type (0, 0), BuildingBlock: AJUNOK_clean_linker_0, # of connection points: 2
# Relax obj value: 0.168
# Max RMSD: 0.178
# Mean RMSD: 0.169
data_MOF--net-ukf--node1-NAHDIM_clean_sbu_0--edge1-AJUNOK_clean_linker_0
_symmetry_space_group_name_H-M    P1
_symmetry_Int_Tables_number       1
_symmetry_cell_setting            triclinic
loop_
_symmetry_equiv_pos_as_xyz
'x, y, z'
_cell_length_a     24.497701
_cell_length_b     24.143139
_cell_length_c     45.210287
_cell_angle_alpha  90.114384
_cell_angle_beta   90.023314
_cell_angle_gamma 120.51803
loop_
_atom_site_label
_atom_site_type_symbol
_atom_site_fract_x
_atom_site_fract_y
_atom_site_fract_z
_atom_type_partial_charge
C0 C 0.47212 0.34379 0.04089 0.0
O1 O 0.51681 0.33193 0.04876 0.0
O2 O 0.47803 0.20995 0.02276 0.0
Zn3 Zn 0.40757 0.21028 0.04504 0.0
O4 O 0.42004 0.20342 0.08865 0.0
C5 C 0.2956 0.0837 0.04574 0.0
O6 O 0.3136 0.08531 0.07325 0.0
O7 O 0.41593 0.29659 0.03758 0.0
C8 C 0.39043 0.21741 0.1075 0.0
O9 O 0.35135 0.2357 0.09799 0.0
C10 C 0.50216 0.17643 0.03043 0.0
O11 O 0.47989 0.1395 0.05386 0.0
O12 O 0.32612 0.13381 0.02993 0.0
C13 C 0.09484 0.49113 0.3691 0.0
O14 O 0.14521 0.52684 0.38543 0.0
O15 O 0.23593 0.4935 0.35851 0.0
Zn16 Zn 0.15422 0.41998 0.37374 0.0
O17 O 0.15587 0.4216 0.41836 0.0
C18 C 0.1936 0.33048 0.36834 0.0
O19 O 0.23138 0.37008 0.38883 0.0
O20 O 0.08515 0.43676 0.36018 0.0
C21 C 0.13412 0.37257 0.43499 0.0
O22 O 0.10784 0.31495 0.4231 0.0
C23 C 0.28223 0.53162 0.37479 0.0
O24 O 0.27756 0.52401 0.40362 0.0
O25 O 0.15074 0.33974 0.35769 0.0
C26 C 0.8794 0.1537 0.6963 0.0
O27 O 0.8845 0.1628 0.72504 0.0
O28 O 0.78424 0.16316 0.75021 0.0
Zn29 Zn 0.76674 0.16012 0.7063 0.0
O30 O 0.78283 0.24613 0.69195 0.0
C31 C 0.63496 0.08751 0.71899 0.0
O32 O 0.65803 0.11464 0.74475 0.0
O33 O 0.82918 0.14475 0.68352 0.0
C34 C 0.74495 0.26622 0.69739 0.0
O35 O 0.6953 0.23128 0.71407 0.0
C36 C 0.80475 0.21343 0.76606 0.0
O37 O 0.81693 0.26763 0.75365 0.0
O38 O 0.67346 0.09596 0.69817 0.0
C39 C 0.52494 0.60758 0.03558 0.0
O40 O 0.47752 0.61729 0.04032 0.0
O41 O 0.51811 0.74112 0.01176 0.0
Zn42 Zn 0.58448 0.74112 0.03771 0.0
O43 O 0.56455 0.74884 0.08014 0.0
C44 C 0.68538 0.84455 0.00319 0.0
O45 O 0.64958 0.81329 0.98037 0.0
O46 O 0.5804 0.65624 0.0329 0.0
C47 C 0.61009 0.7742 0.09854 0.0
O48 O 0.66765 0.79263 0.08931 0.0
C49 C 0.50582 0.78615 0.01363 0.0
O50 O 0.53829 0.8334 0.03237 0.0
O51 O 0.66884 0.81972 0.0287 0.0
C52 C 0.91986 0.58426 0.35007 0.0
O53 O 0.87709 0.56314 0.32893 0.0
O54 O 0.76158 0.54209 0.36339 0.0
Zn55 Zn 0.83773 0.62425 0.3777 0.0
O56 O 0.8305 0.63711 0.42149 0.0
C57 C 0.81372 0.72702 0.36615 0.0
O58 O 0.79505 0.7152 0.39381 0.0
O59 O 0.91527 0.61611 0.37143 0.0
C60 C 0.79105 0.59318 0.43854 0.0
O61 O 0.75299 0.53558 0.42771 0.0
C62 C 0.75653 0.4873 0.36629 0.0
O63 O 0.80051 0.48277 0.38086 0.0
O64 O 0.83805 0.69639 0.35456 0.0
C65 C 0.12295 0.83135 0.69224 0.0
O66 O 0.12344 0.83145 0.72128 0.0
O67 O 0.23485 0.83686 0.74381 0.0
Zn68 Zn 0.24339 0.83592 0.69945 0.0
O69 O 0.23812 0.75316 0.68675 0.0
C70 C 0.3603 0.95513 0.70673 0.0
O71 O 0.32836 0.96143 0.72851 0.0
O72 O 0.17132 0.83805 0.6785 0.0
C73 C 0.28694 0.75097 0.67912 0.0
O74 O 0.34289 0.80337 0.68089 0.0
C75 C 0.20521 0.78723 0.75988 0.0
O76 O 0.17567 0.73029 0.74723 0.0
O77 O 0.33111 0.90837 0.68889 0.0
C78 C 0.62396 0.52991 0.6246 0.0
O79 O 0.64219 0.49334 0.61155 0.0
O80 O 0.75193 0.52411 0.64609 0.0
Zn81 Zn 0.75373 0.59849 0.62582 0.0
O82 O 0.76235 0.5906 0.58194 0.0
C83 C 0.88279 0.69664 0.63078 0.0
O84 O 0.88431 0.66589 0.60709 0.0
O85 O 0.66655 0.58543 0.63355 0.0
C86 C 0.77486 0.63622 0.56417 0.0
O87 O 0.78304 0.6907 0.57467 0.0
C88 C 0.78495 0.49906 0.63943 0.0
O89 O 0.82626 0.52381 0.6178 0.0
O90 O 0.82933 0.67914 0.64269 0.0
C91 C 0.10674 0.62188 0.97088 0.0
O92 O 0.16583 0.63862 0.97621 0.0
O93 O 0.24919 0.76917 0.96255 0.0
Zn94 Zn 0.16483 0.75175 0.94749 0.0
O95 O 0.16569 0.75355 0.90306 0.0
C96 C 0.16131 0.83203 0.9918 0.0
O97 O 0.16041 0.78636 0.00794 0.0
O98 O 0.09493 0.6635 0.96023 0.0
C99 C 0.20316 0.80382 0.88865 0.0
O100 O 0.24195 0.85644 0.9033 0.0
C101 C 0.28548 0.75349 0.94976 0.0
O102 O 0.26739 0.72117 0.92477 0.0
O103 O 0.15658 0.82467 0.9639 0.0
C104 C 0.29303 0.18911 0.30829 0.0
O105 O 0.28561 0.18247 0.27947 0.0
O106 O 0.39552 0.19514 0.25274 0.0
Zn107 Zn 0.40881 0.18675 0.29614 0.0
O108 O 0.48941 0.26526 0.30943 0.0
C109 C 0.40072 0.06364 0.28544 0.0
O110 O 0.36424 0.05983 0.26328 0.0
O111 O 0.33904 0.18688 0.32012 0.0
C112 C 0.54148 0.26584 0.31127 0.0
O113 O 0.5437 0.21517 0.30248 0.0
C114 C 0.43411 0.19887 0.23299 0.0
O115 O 0.48452 0.19664 0.241 0.0
O116 O 0.42021 0.11049 0.30338 0.0
C117 C 0.35547 0.44064 0.64096 0.0
O118 O 0.33823 0.46975 0.66015 0.0
O119 O 0.2277 0.46677 0.6336 0.0
Zn120 Zn 0.22696 0.38859 0.61761 0.0
O121 O 0.20683 0.37986 0.57395 0.0
C122 C 0.10801 0.26938 0.62664 0.0
O123 O 0.10415 0.27168 0.59775 0.0
O124 O 0.31494 0.40148 0.62245 0.0
C125 C 0.17933 0.40648 0.56167 0.0
O126 O 0.1627 0.4408 0.57779 0.0
C127 C 0.26866 0.52302 0.62525 0.0
O128 O 0.31094 0.53009 0.60542 0.0
O129 O 0.15809 0.31184 0.63965 0.0
C130 C 0.90659 0.35328 0.96492 0.0
O131 O 0.85162 0.34101 0.95428 0.0
O132 O 0.76367 0.20663 0.97579 0.0
Zn133 Zn 0.84249 0.22156 0.95495 0.0
O134 O 0.83277 0.22817 0.91111 0.0
C135 C 0.83641 0.11946 0.98932 0.0
O136 O 0.83079 0.15293 0.01081 0.0
O137 O 0.91609 0.30654 0.9685 0.0
C138 C 0.83779 0.19199 0.89223 0.0
O139 O 0.84927 0.14731 0.90143 0.0
C140 C 0.71852 0.20866 0.96306 0.0
O141 O 0.72327 0.2234 0.93486 0.0
O142 O 0.84895 0.14328 0.96348 0.0
C143 C 0.69643 0.83485 0.29363 0.0
O144 O 0.68395 0.81401 0.26622 0.0
O145 O 0.59943 0.84015 0.23916 0.0
Zn146 Zn 0.58645 0.84425 0.28297 0.0
O147 O 0.51404 0.76037 0.29693 0.0
C148 C 0.50725 0.89581 0.2805 0.0
O149 O 0.47531 0.8413 0.26598 0.0
O150 O 0.66327 0.85585 0.30552 0.0
C151 C 0.50337 0.75396 0.32455 0.0
O152 O 0.54069 0.80167 0.34222 0.0
C153 C 0.55889 0.79596 0.22246 0.0
O154 O 0.50469 0.75172 0.23372 0.0
O155 O 0.56147 0.91109 0.29091 0.0
C156 C 0.19154 0.90354 0.03615 0.0
C157 C 0.18244 0.89601 0.00534 0.0
C158 C 0.22426 0.9646 0.04921 0.0
C159 C 0.24954 0.02089 0.03204 0.0
H160 H 0.17622 0.86203 0.05026 0.0
H161 H 0.23265 0.96739 0.07284 0.0
S162 S 0.22878 0.02772 0.95099 0.0
N163 N 0.19378 0.95018 0.95842 0.0
N164 N 0.25544 0.06498 0.98298 0.0
C165 C 0.23591 0.01411 0.00152 0.0
C166 C 0.20232 0.95171 0.98818 0.0
C167 C 0.19278 0.26416 0.32544 0.0
C168 C 0.20784 0.28291 0.35517 0.0
C169 C 0.21712 0.22985 0.31092 0.0
C170 C 0.25723 0.21277 0.32563 0.0
H171 H 0.16524 0.27942 0.31273 0.0
H172 H 0.20705 0.2198 0.28756 0.0
S173 S 0.30028 0.23952 0.40531 0.0
N174 N 0.25764 0.27399 0.40001 0.0
N175 N 0.30298 0.20929 0.37293 0.0
C176 C 0.26791 0.22638 0.35609 0.0
C177 C 0.24339 0.26156 0.37079 0.0
C178 C 0.9345 0.17305 0.64749 0.0
C179 C 0.9365 0.16927 0.6785 0.0
C180 C 0.99015 0.20135 0.63061 0.0
C181 C 0.05012 0.22737 0.64407 0.0
H182 H 0.88997 0.15745 0.6362 0.0
H183 H 0.9861 0.20635 0.60704 0.0
S184 S 0.08073 0.2176 0.72372 0.0
N185 N 0.00308 0.18471 0.72141 0.0
N186 N 0.10753 0.23858 0.68966 0.0
C187 C 0.05248 0.21866 0.67468 0.0
C188 C 0.99573 0.18938 0.69189 0.0
C189 C 0.75183 0.94145 0.97194 0.0
C190 C 0.7359 0.91316 0.00017 0.0
C191 C 0.78911 0.00828 0.96855 0.0
C192 C 0.81144 0.0496 0.99328 0.0
H193 H 0.73272 0.91215 0.95225 0.0
H194 H 0.79678 0.02768 0.94636 0.0
S195 S 0.79305 -0.00051 0.07191 0.0
N196 N 0.75327 0.93149 0.05327 0.0
N197 N 0.82244 0.05696 0.04679 0.0
C198 C 0.8005 0.02173 0.02153 0.0
C199 C 0.76302 0.95358 0.02501 0.0
C200 C 0.73216 0.81808 0.34298 0.0
C201 C 0.73803 0.82047 0.31199 0.0
C202 C 0.76036 0.79149 0.36045 0.0
C203 C 0.79567 0.76623 0.3477 0.0
H204 H 0.70249 0.83332 0.35378 0.0
H205 H 0.75152 0.78785 0.38404 0.0
S206 S 0.83555 0.77246 0.26808 0.0
N207 N 0.78946 0.80388 0.26965 0.0
N208 N 0.84232 0.75384 0.30247 0.0
C209 C 0.8065 0.77346 0.317 0.0
C210 C 0.7777 0.80054 0.29917 0.0
C211 C 0.00094 0.76207 0.63077 0.0
C212 C 0.94346 0.74276 0.64557 0.0
C213 C 0.05921 0.7949 0.64555 0.0
C214 C 0.06263 0.80969 0.67587 0.0
H215 H 0.00097 0.74916 0.60781 0.0
H216 H 0.10151 0.80555 0.63337 0.0
S217 S 0.92696 0.77988 0.72364 0.0
N218 N 0.89432 0.74832 0.69136 0.0
N219 N 0.00386 0.81011 0.71922 0.0
C220 C 0.00602 0.79553 0.69036 0.0
C221 C 0.94647 0.7621 0.67521 0.0
C222 C 0.6247 0.22178 0.96987 0.0
C223 C 0.66229 0.1972 0.98016 0.0
C224 C 0.57283 0.21419 0.98618 0.0
C225 C 0.55592 0.18102 0.01331 0.0
H226 H 0.63612 0.24833 0.94931 0.0
H227 H 0.54601 0.23493 0.97743 0.0
S228 S 0.63667 0.10344 0.04899 0.0
N229 N 0.67764 0.13579 0.01852 0.0
N230 N 0.57969 0.12093 0.04911 0.0
C231 C 0.59215 0.15463 0.0235 0.0
C232 C 0.64547 0.16293 0.00697 0.0
C233 C 0.38376 0.63647 0.37949 0.0
C234 C 0.33966 0.58597 0.36144 0.0
C235 C 0.43687 0.69001 0.36736 0.0
C236 C 0.44825 0.69515 0.33669 0.0
H237 H 0.37675 0.63538 0.40319 0.0
H238 H 0.4688 0.72798 0.38223 0.0
S239 S 0.34939 0.5738 0.27989 0.0
N240 N 0.31245 0.54295 0.31139 0.0
N241 N 0.41226 0.64347 0.2886 0.0
C242 C 0.40536 0.64419 0.31842 0.0
C243 C 0.35111 0.58969 0.33078 0.0
C244 C 0.80678 0.3616 0.6646 0.0
C245 C 0.7555 0.3269 0.684 0.0
C246 C 0.81624 0.41741 0.6505 0.0
C247 C 0.77498 0.44098 0.65531 0.0
H248 H 0.83967 0.34523 0.65993 0.0
H249 H 0.85613 0.44202 0.63562 0.0
S250 S 0.63385 0.36869 0.70445 0.0
N251 N 0.66333 0.32089 0.70761 0.0
N252 N 0.68099 0.42553 0.68119 0.0
C253 C 0.72393 0.40727 0.67498 0.0
C254 C 0.71423 0.35035 0.68929 0.0
C255 C 0.37128 0.72818 0.95813 0.0
C256 C 0.34483 0.76662 0.96449 0.0
C257 C 0.42409 0.73584 0.97374 0.0
C258 C 0.45303 0.78276 0.99609 0.0
H259 H 0.34987 0.69044 0.94163 0.0
H260 H 0.44172 0.70393 0.96848 0.0
S261 S 0.4054 0.89998 0.01918 0.0
N262 N 0.35379 0.85618 0.99327 0.0
N263 N 0.45339 0.87106 0.02241 0.0
C264 C 0.42859 0.82337 0.0018 0.0
C265 C 0.37439 0.81513 0.98608 0.0
C266 C 0.59699 0.37873 0.3303 0.0
C267 C 0.59777 0.32178 0.32468 0.0
C268 C 0.64848 0.4318 0.34377 0.0
C269 C 0.70266 0.42995 0.35246 0.0
H270 H 0.55624 0.38256 0.32425 0.0
H271 H 0.64545 0.47447 0.34759 0.0
S272 S 0.72942 0.29289 0.34234 0.0
N273 N 0.65807 0.26711 0.32855 0.0
N274 N 0.7547 0.36687 0.35398 0.0
C275 C 0.70434 0.37346 0.34693 0.0
C276 C 0.65202 0.31946 0.33297 0.0
C277 C 0.32717 0.64032 0.63703 0.0
C278 C 0.27137 0.58001 0.63908 0.0
C279 C 0.33192 0.69488 0.65048 0.0
C280 C 0.28081 0.69157 0.66624 0.0
H281 H 0.36793 0.6455 0.62519 0.0
H282 H 0.37595 0.7402 0.64814 0.0
S283 S 0.12377 0.54499 0.67803 0.0
N284 N 0.16367 0.52002 0.65813 0.0
N285 N 0.17243 0.62274 0.68321 0.0
C286 C 0.22456 0.63154 0.66843 0.0
C287 C 0.2199 0.57576 0.65493 0.0
C288 C 0.44896 0.20274 0.14927 0.0
C289 C 0.40016 0.21304 0.13964 0.0
C290 C 0.45967 0.19861 0.17942 0.0
C291 C 0.42179 0.20416 0.20125 0.0
H292 H 0.47955 0.19807 0.13342 0.0
H293 H 0.49786 0.19062 0.18557 0.0
S294 S 0.28738 0.23115 0.18785 0.0
N295 N 0.31335 0.22859 0.15449 0.0
N296 N 0.33331 0.22065 0.21108 0.0
C297 C 0.37267 0.21437 0.19197 0.0
C298 C 0.36195 0.21888 0.16122 0.0
C299 C 0.14738 0.33489 0.48443 0.0
C300 C 0.14268 0.38095 0.46739 0.0
C301 C 0.15936 0.34365 0.51491 0.0
C302 C 0.16578 0.39814 0.52957 0.0
H303 H 0.1433 0.29245 0.47407 0.0
H304 H 0.16336 0.30726 0.52709 0.0
S305 S 0.15512 0.53175 0.49513 0.0
N306 N 0.14414 0.48245 0.46743 0.0
N307 N 0.16538 0.49827 0.5248 0.0
C308 C 0.15981 0.44389 0.51289 0.0
C309 C 0.14867 0.4355 0.48177 0.0
C310 C 0.82598 0.15299 0.84006 0.0
C311 C 0.83014 0.1995 0.8602 0.0
C312 C 0.81786 0.15806 0.80973 0.0
C313 C 0.8142 0.21017 0.79822 0.0
H314 H 0.82849 0.11187 0.84773 0.0
H315 H 0.81476 0.12083 0.79519 0.0
S316 S 0.8226 0.34526 0.84142 0.0
N317 N 0.83002 0.2997 0.86638 0.0
N318 N 0.81514 0.3093 0.80934 0.0
C319 C 0.81872 0.25736 0.81803 0.0
C320 C 0.82651 0.25197 0.849 0.0
C321 C 0.53655 0.74671 0.14154 0.0
C322 C 0.59829 0.78197 0.13 0.0
C323 C 0.52432 0.75182 0.17139 0.0
C324 C 0.5732 0.79299 0.19082 0.0
H325 H 0.49733 0.71407 0.12753 0.0
H326 H 0.47605 0.72316 0.17923 0.0
S327 S 0.74304 0.89777 0.17136 0.0
N328 N 0.70878 0.86077 0.14018 0.0
N329 N 0.68583 0.8707 0.19617 0.0
C330 C 0.63508 0.82939 0.17945 0.0
C331 C 0.64761 0.82375 0.1491 0.0
C332 C 0.75306 0.56482 0.52035 0.0
C333 C 0.7799 0.62735 0.53205 0.0
C334 C 0.75669 0.55446 0.49013 0.0
C335 C 0.78805 0.6062 0.47037 0.0
H336 H 0.72844 0.52327 0.53461 0.0
H337 H 0.73508 0.50533 0.48228 0.0
S338 S 0.86707 0.7796 0.48978 0.0
N339 N 0.83919 0.74198 0.52152 0.0
N340 N 0.84661 0.72258 0.4647 0.0
C341 C 0.81547 0.66911 0.48176 0.0
C342 C 0.81117 0.67966 0.51257 0.0
C343 C 0.16641 0.74302 0.84088 0.0
C344 C 0.20393 0.80182 0.8558 0.0
C345 C 0.16696 0.73894 0.80998 0.0
C346 C 0.20482 0.79351 0.79258 0.0
H347 H 0.13654 0.69936 0.85315 0.0
H348 H 0.1374 0.69242 0.79971 0.0
S349 S 0.31137 0.95946 0.8206 0.0
N350 N 0.2797 0.91621 0.85066 0.0
N351 N 0.2807 0.90866 0.79266 0.0
C352 C 0.24224 0.85285 0.80716 0.0
C353 C 0.24183 0.85696 0.8387 0.0
C354 C 0.45063 0.48859 0.0364 0.0
C355 C 0.51328 0.54092 0.03493 0.0
C356 C 0.43767 0.42504 0.03757 0.0
C357 C 0.48683 0.41112 0.03752 0.0
H358 H 0.41096 0.49659 0.03704 0.0
H359 H 0.38872 0.38669 0.03922 0.0
S360 S 0.65907 0.53015 0.03188 0.0
N361 N 0.62496 0.57409 0.03198 0.0
N362 N 0.60073 0.4548 0.03425 0.0
C363 C 0.54969 0.4628 0.03525 0.0
C364 C 0.56287 0.52758 0.03391 0.0
C365 C 0.02012 0.59576 0.37006 0.0
C366 C 0.96626 0.56212 0.35203 0.0
C367 C 0.06157 0.57275 0.37488 0.0
C368 C 0.05068 0.51461 0.36217 0.0
H369 H 0.03005 0.64 0.3809 0.0
H370 H 0.10197 0.60053 0.38922 0.0
S371 S 0.91626 0.40804 0.31293 0.0
N372 N 0.90438 0.46783 0.32101 0.0
N373 N 0.98214 0.42433 0.33027 0.0
C374 C 0.99743 0.48083 0.34369 0.0
C375 C 0.95536 0.50466 0.33854 0.0
C376 C 0.52753 0.06271 0.73496 0.0
C377 C 0.56547 0.05473 0.71398 0.0
C378 C 0.46185 0.03285 0.73154 0.0
C379 C 0.43074 0.99302 0.7071 0.0
H380 H 0.54855 0.09221 0.75445 0.0
H381 H 0.43522 0.03981 0.7488 0.0
S382 S 0.50835 0.95874 0.64485 0.0
N383 N 0.56739 0.00629 0.66708 0.0
N384 N 0.44347 0.94943 0.66068 0.0
C385 C 0.46815 0.98587 0.68542 0.0
C386 C 0.5355 0.01682 0.68886 0.0
C387 C 0.53527 0.54115 0.64592 0.0
C388 C 0.55526 0.50549 0.62918 0.0
C389 C 0.47064 0.5188 0.65041 0.0
C390 C 0.42332 0.46012 0.63814 0.0
H391 H 0.56973 0.58688 0.65557 0.0
H392 H 0.45778 0.54866 0.66303 0.0
S393 S 0.4501 0.34678 0.59362 0.0
N394 N 0.52189 0.407 0.60109 0.0
N395 N 0.40102 0.36563 0.60947 0.0
C396 C 0.44259 0.42346 0.62179 0.0
C397 C 0.50831 0.44595 0.61733 0.0
C398 C 0.99326 0.5356 0.96493 0.0
C399 C 0.05543 0.55346 0.97323 0.0
C400 C 0.94535 0.47094 0.96334 0.0
C401 C 0.95734 0.42109 0.96994 0.0
H402 H 0.98164 0.57172 0.95872 0.0
H403 H 0.89883 0.46015 0.95605 0.0
S404 S 0.11049 0.44184 0.99583 0.0
N405 N 0.12526 0.51581 0.99045 0.0
N406 N 0.03505 0.39423 0.98733 0.0
C407 C 0.01851 0.43816 0.97965 0.0
C408 C 0.06751 0.50427 0.98134 0.0
C409 C 0.42702 0.92579 0.26643 0.0
C410 C 0.48005 0.93827 0.28364 0.0
C411 C 0.40074 0.96542 0.2679 0.0
C412 C 0.42583 0.01906 0.28687 0.0
H413 H 0.40608 0.88563 0.25113 0.0
H414 H 0.36087 0.95426 0.25364 0.0
S415 S 0.56223 0.07081 0.33809 0.0
N416 N 0.55531 0.00684 0.32121 0.0
N417 N 0.50545 0.08096 0.32438 0.0
C418 C 0.47772 0.03108 0.30497 0.0
C419 C 0.50498 0.99093 0.30321 0.0
loop_
_geom_bond_atom_site_label_1
_geom_bond_atom_site_label_2
_geom_bond_distance
_geom_bond_site_symmetry_2
_ccdc_geom_bond_type
C0 O1 1.160 . S
C0 O7 1.185 . S
O1 C0 1.160 . S
O2 Zn3 1.899 . S
O2 C10 1.284 . S
Zn3 O2 1.899 . S
Zn3 O4 2.032 . S
Zn3 O7 2.086 . S
Zn3 O12 1.977 . S
O4 Zn3 2.032 . S
O4 C8 1.278 . S
C5 O6 1.203 . S
C5 O12 1.267 . S
O6 C5 1.203 . S
O7 C0 1.185 . S
O7 Zn3 2.086 . S
C8 O4 1.278 . S
C8 O9 1.211 . S
O9 C8 1.211 . S
C10 O2 1.284 . S
C10 O11 1.273 . S
O11 C10 1.273 . S
O12 Zn3 1.977 . S
O12 C5 1.267 . S
C13 O14 1.160 . S
C13 O20 1.185 . S
O14 C13 1.160 . S
O15 Zn16 1.899 . S
O15 C23 1.284 . S
Zn16 O15 1.899 . S
Zn16 O17 2.032 . S
Zn16 O20 2.086 . S
Zn16 O25 1.977 . S
O17 Zn16 2.032 . S
O17 C21 1.278 . S
C18 O19 1.203 . S
C18 O25 1.267 . S
O19 C18 1.203 . S
O20 C13 1.185 . S
O20 Zn16 2.086 . S
C21 O17 1.278 . S
C21 O22 1.211 . S
O22 C21 1.211 . S
C23 O15 1.284 . S
C23 O24 1.273 . S
O24 C23 1.273 . S
O25 Zn16 1.977 . S
O25 C18 1.267 . S
C26 O27 1.160 . S
C26 O33 1.185 . S
O27 C26 1.160 . S
O28 Zn29 1.899 . S
O28 C36 1.284 . S
Zn29 O28 1.899 . S
Zn29 O30 2.032 . S
Zn29 O33 2.086 . S
Zn29 O38 1.977 . S
O30 Zn29 2.032 . S
O30 C34 1.278 . S
C31 O32 1.203 . S
C31 O38 1.267 . S
O32 C31 1.203 . S
O33 C26 1.185 . S
O33 Zn29 2.086 . S
C34 O30 1.278 . S
C34 O35 1.211 . S
O35 C34 1.211 . S
C36 O28 1.284 . S
C36 O37 1.273 . S
O37 C36 1.273 . S
O38 Zn29 1.977 . S
O38 C31 1.267 . S
C39 O40 1.160 . S
C39 O46 1.185 . S
O40 C39 1.160 . S
O41 Zn42 1.899 . S
O41 C49 1.284 . S
Zn42 O41 1.899 . S
Zn42 O43 2.032 . S
Zn42 O46 2.086 . S
Zn42 O51 1.977 . S
O43 Zn42 2.032 . S
O43 C47 1.278 . S
C44 O45 1.203 . S
C44 O51 1.267 . S
O45 C44 1.203 . S
O46 C39 1.185 . S
O46 Zn42 2.086 . S
C47 O43 1.278 . S
C47 O48 1.211 . S
O48 C47 1.211 . S
C49 O41 1.284 . S
C49 O50 1.273 . S
O50 C49 1.273 . S
O51 Zn42 1.977 . S
O51 C44 1.267 . S
C52 O53 1.160 . S
C52 O59 1.185 . S
O53 C52 1.160 . S
O54 Zn55 1.899 . S
O54 C62 1.284 . S
Zn55 O54 1.899 . S
Zn55 O56 2.032 . S
Zn55 O59 2.086 . S
Zn55 O64 1.977 . S
O56 Zn55 2.032 . S
O56 C60 1.278 . S
C57 O58 1.203 . S
C57 O64 1.267 . S
O58 C57 1.203 . S
O59 C52 1.185 . S
O59 Zn55 2.086 . S
C60 O56 1.278 . S
C60 O61 1.211 . S
O61 C60 1.211 . S
C62 O54 1.284 . S
C62 O63 1.273 . S
O63 C62 1.273 . S
O64 Zn55 1.977 . S
O64 C57 1.267 . S
C65 O66 1.160 . S
C65 O72 1.185 . S
O66 C65 1.160 . S
O67 Zn68 1.899 . S
O67 C75 1.284 . S
Zn68 O67 1.899 . S
Zn68 O69 2.032 . S
Zn68 O72 2.086 . S
Zn68 O77 1.977 . S
O69 Zn68 2.032 . S
O69 C73 1.278 . S
C70 O71 1.203 . S
C70 O77 1.267 . S
O71 C70 1.203 . S
O72 C65 1.185 . S
O72 Zn68 2.086 . S
C73 O69 1.278 . S
C73 O74 1.211 . S
O74 C73 1.211 . S
C75 O67 1.284 . S
C75 O76 1.273 . S
O76 C75 1.273 . S
O77 Zn68 1.977 . S
O77 C70 1.267 . S
C78 O79 1.160 . S
C78 O85 1.185 . S
O79 C78 1.160 . S
O80 Zn81 1.899 . S
O80 C88 1.284 . S
Zn81 O80 1.899 . S
Zn81 O82 2.032 . S
Zn81 O85 2.086 . S
Zn81 O90 1.977 . S
O82 Zn81 2.032 . S
O82 C86 1.278 . S
C83 O84 1.203 . S
C83 O90 1.267 . S
O84 C83 1.203 . S
O85 C78 1.185 . S
O85 Zn81 2.086 . S
C86 O82 1.278 . S
C86 O87 1.211 . S
O87 C86 1.211 . S
C88 O80 1.284 . S
C88 O89 1.273 . S
O89 C88 1.273 . S
O90 Zn81 1.977 . S
O90 C83 1.267 . S
C91 O92 1.160 . S
C91 O98 1.185 . S
O92 C91 1.160 . S
O93 Zn94 1.899 . S
O93 C101 1.284 . S
Zn94 O93 1.899 . S
Zn94 O95 2.032 . S
Zn94 O98 2.086 . S
Zn94 O103 1.977 . S
O95 Zn94 2.032 . S
O95 C99 1.278 . S
C96 O97 1.203 . S
C96 O103 1.267 . S
O97 C96 1.203 . S
O98 C91 1.185 . S
O98 Zn94 2.086 . S
C99 O95 1.278 . S
C99 O100 1.211 . S
O100 C99 1.211 . S
C101 O93 1.284 . S
C101 O102 1.273 . S
O102 C101 1.273 . S
O103 Zn94 1.977 . S
O103 C96 1.267 . S
C104 O105 1.160 . S
C104 O111 1.185 . S
O105 C104 1.160 . S
O106 Zn107 1.899 . S
O106 C114 1.284 . S
Zn107 O106 1.899 . S
Zn107 O108 2.032 . S
Zn107 O111 2.086 . S
Zn107 O116 1.977 . S
O108 Zn107 2.032 . S
O108 C112 1.278 . S
C109 O110 1.203 . S
C109 O116 1.267 . S
O110 C109 1.203 . S
O111 C104 1.185 . S
O111 Zn107 2.086 . S
C112 O108 1.278 . S
C112 O113 1.211 . S
O113 C112 1.211 . S
C114 O106 1.284 . S
C114 O115 1.273 . S
O115 C114 1.273 . S
O116 Zn107 1.977 . S
O116 C109 1.267 . S
C117 O118 1.160 . S
C117 O124 1.185 . S
O118 C117 1.160 . S
O119 Zn120 1.899 . S
O119 C127 1.284 . S
Zn120 O119 1.899 . S
Zn120 O121 2.032 . S
Zn120 O124 2.086 . S
Zn120 O129 1.977 . S
O121 Zn120 2.032 . S
O121 C125 1.278 . S
C122 O123 1.203 . S
C122 O129 1.267 . S
O123 C122 1.203 . S
O124 C117 1.185 . S
O124 Zn120 2.086 . S
C125 O121 1.278 . S
C125 O126 1.211 . S
O126 C125 1.211 . S
C127 O119 1.284 . S
C127 O128 1.273 . S
O128 C127 1.273 . S
O129 Zn120 1.977 . S
O129 C122 1.267 . S
C130 O131 1.160 . S
C130 O137 1.185 . S
O131 C130 1.160 . S
O132 Zn133 1.899 . S
O132 C140 1.284 . S
Zn133 O132 1.899 . S
Zn133 O134 2.032 . S
Zn133 O137 2.086 . S
Zn133 O142 1.977 . S
O134 Zn133 2.032 . S
O134 C138 1.278 . S
C135 O136 1.203 . S
C135 O142 1.267 . S
O136 C135 1.203 . S
O137 C130 1.185 . S
O137 Zn133 2.086 . S
C138 O134 1.278 . S
C138 O139 1.211 . S
O139 C138 1.211 . S
C140 O132 1.284 . S
C140 O141 1.273 . S
O141 C140 1.273 . S
O142 Zn133 1.977 . S
O142 C135 1.267 . S
C143 O144 1.160 . S
C143 O150 1.185 . S
O144 C143 1.160 . S
O145 Zn146 1.899 . S
O145 C153 1.284 . S
Zn146 O145 1.899 . S
Zn146 O147 2.032 . S
Zn146 O150 2.086 . S
Zn146 O155 1.977 . S
O147 Zn146 2.032 . S
O147 C151 1.278 . S
C148 O149 1.203 . S
C148 O155 1.267 . S
O149 C148 1.203 . S
O150 C143 1.185 . S
O150 Zn146 2.086 . S
C151 O147 1.278 . S
C151 O152 1.211 . S
O152 C151 1.211 . S
C153 O145 1.284 . S
C153 O154 1.273 . S
O154 C153 1.273 . S
O155 Zn146 1.977 . S
O155 C148 1.267 . S
C156 C157 1.369 1_554 S
C156 C158 1.419 1_565 S
C156 H160 0.930 . S
C157 C156 1.369 1_556 S
C157 C166 1.429 . S
C158 C156 1.419 1_545 S
C158 C159 1.363 . S
C158 H161 0.929 . S
C159 C158 1.363 . S
C159 C165 1.428 1_554 S
H160 C156 0.930 . S
H161 C158 0.929 . S
S162 N163 1.613 1_545 S
S162 N164 1.610 . S
N163 S162 1.613 1_565 S
N163 C166 1.350 . S
N164 S162 1.610 . S
N164 C165 1.351 . S
C165 C159 1.428 1_556 S
C165 N164 1.351 . S
C165 C166 1.434 1_545 S
C166 C157 1.429 . S
C166 N163 1.350 . S
C166 C165 1.434 1_565 S
C167 C168 1.369 . S
C167 C169 1.419 . S
C167 H171 0.930 . S
C168 C167 1.369 . S
C168 C177 1.429 . S
C169 C167 1.419 . S
C169 C170 1.363 . S
C169 H172 0.929 . S
C170 C169 1.363 . S
C170 C176 1.428 . S
H171 C167 0.930 . S
H172 C169 0.929 . S
S173 N174 1.613 . S
S173 N175 1.610 . S
N174 S173 1.613 . S
N174 C177 1.350 . S
N175 S173 1.610 . S
N175 C176 1.351 . S
C176 C170 1.428 . S
C176 N175 1.351 . S
C176 C177 1.434 . S
C177 C168 1.429 . S
C177 N174 1.350 . S
C177 C176 1.434 . S
C178 C179 1.369 . S
C178 C180 1.419 1_655 S
C178 H182 0.930 . S
C179 C178 1.369 . S
C179 C188 1.429 . S
C180 C178 1.419 1_455 S
C180 C181 1.363 . S
C180 H183 0.929 . S
C181 C180 1.363 . S
C181 C187 1.428 . S
H182 C178 0.930 . S
H183 C180 0.929 . S
S184 N185 1.613 1_455 S
S184 N186 1.610 . S
N185 S184 1.613 1_655 S
N185 C188 1.350 . S
N186 S184 1.610 . S
N186 C187 1.351 . S
C187 C181 1.428 . S
C187 N186 1.351 . S
C187 C188 1.434 1_455 S
C188 C179 1.429 . S
C188 N185 1.350 . S
C188 C187 1.434 1_655 S
C189 C190 1.369 1_556 S
C189 C191 1.419 1_565 S
C189 H193 0.930 . S
C190 C189 1.369 1_554 S
C190 C199 1.429 . S
C191 C189 1.419 1_545 S
C191 C192 1.363 . S
C191 H194 0.929 . S
C192 C191 1.363 . S
C192 C198 1.428 1_556 S
H193 C189 0.930 . S
H194 C191 0.929 . S
S195 N196 1.613 1_545 S
S195 N197 1.610 . S
N196 S195 1.613 1_565 S
N196 C199 1.350 . S
N197 S195 1.610 . S
N197 C198 1.351 . S
C198 C192 1.428 1_554 S
C198 N197 1.351 . S
C198 C199 1.434 1_545 S
C199 C190 1.429 . S
C199 N196 1.350 . S
C199 C198 1.434 1_565 S
C200 C201 1.369 . S
C200 C202 1.419 . S
C200 H204 0.930 . S
C201 C200 1.369 . S
C201 C210 1.429 . S
C202 C200 1.419 . S
C202 C203 1.363 . S
C202 H205 0.929 . S
C203 C202 1.363 . S
C203 C209 1.428 . S
H204 C200 0.930 . S
H205 C202 0.929 . S
S206 N207 1.613 . S
S206 N208 1.610 . S
N207 S206 1.613 . S
N207 C210 1.350 . S
N208 S206 1.610 . S
N208 C209 1.351 . S
C209 C203 1.428 . S
C209 N208 1.351 . S
C209 C210 1.434 . S
C210 C201 1.429 . S
C210 N207 1.350 . S
C210 C209 1.434 . S
C211 C212 1.369 . S
C211 C213 1.419 1_655 S
C211 H215 0.930 . S
C212 C211 1.369 . S
C212 C221 1.429 . S
C213 C211 1.419 1_455 S
C213 C214 1.363 . S
C213 H216 0.929 . S
C214 C213 1.363 . S
C214 C220 1.428 . S
H215 C211 0.930 . S
H216 C213 0.929 . S
S217 N218 1.613 . S
S217 N219 1.610 1_655 S
N218 S217 1.613 . S
N218 C221 1.350 . S
N219 S217 1.610 1_455 S
N219 C220 1.351 . S
C220 C214 1.428 . S
C220 N219 1.351 . S
C220 C221 1.434 1_455 S
C221 C212 1.429 . S
C221 N218 1.350 . S
C221 C220 1.434 1_655 S
C222 C223 1.369 . S
C222 C224 1.419 . S
C222 H226 0.930 . S
C223 C222 1.369 . S
C223 C232 1.429 1_556 S
C224 C222 1.419 . S
C224 C225 1.363 1_556 S
C224 H227 0.929 . S
C225 C224 1.363 1_554 S
C225 C231 1.428 . S
H226 C222 0.930 . S
H227 C224 0.929 . S
S228 N229 1.613 . S
S228 N230 1.610 . S
N229 S228 1.613 . S
N229 C232 1.350 . S
N230 S228 1.610 . S
N230 C231 1.351 . S
C231 C225 1.428 . S
C231 N230 1.351 . S
C231 C232 1.434 . S
C232 C223 1.429 1_554 S
C232 N229 1.350 . S
C232 C231 1.434 . S
C233 C234 1.369 . S
C233 C235 1.419 . S
C233 H237 0.930 . S
C234 C233 1.369 . S
C234 C243 1.429 . S
C235 C233 1.419 . S
C235 C236 1.363 . S
C235 H238 0.929 . S
C236 C235 1.363 . S
C236 C242 1.428 . S
H237 C233 0.930 . S
H238 C235 0.929 . S
S239 N240 1.613 . S
S239 N241 1.610 . S
N240 S239 1.613 . S
N240 C243 1.350 . S
N241 S239 1.610 . S
N241 C242 1.351 . S
C242 C236 1.428 . S
C242 N241 1.351 . S
C242 C243 1.434 . S
C243 C234 1.429 . S
C243 N240 1.350 . S
C243 C242 1.434 . S
C244 C245 1.369 . S
C244 C246 1.419 . S
C244 H248 0.930 . S
C245 C244 1.369 . S
C245 C254 1.429 . S
C246 C244 1.419 . S
C246 C247 1.363 . S
C246 H249 0.929 . S
C247 C246 1.363 . S
C247 C253 1.428 . S
H248 C244 0.930 . S
H249 C246 0.929 . S
S250 N251 1.613 . S
S250 N252 1.610 . S
N251 S250 1.613 . S
N251 C254 1.350 . S
N252 S250 1.610 . S
N252 C253 1.351 . S
C253 C247 1.428 . S
C253 N252 1.351 . S
C253 C254 1.434 . S
C254 C245 1.429 . S
C254 N251 1.350 . S
C254 C253 1.434 . S
C255 C256 1.369 . S
C255 C257 1.419 . S
C255 H259 0.930 . S
C256 C255 1.369 . S
C256 C265 1.429 1_556 S
C257 C255 1.419 . S
C257 C258 1.363 1_556 S
C257 H260 0.929 . S
C258 C257 1.363 1_554 S
C258 C264 1.428 . S
H259 C255 0.930 . S
H260 C257 0.929 . S
S261 N262 1.613 . S
S261 N263 1.610 . S
N262 S261 1.613 . S
N262 C265 1.350 . S
N263 S261 1.610 . S
N263 C264 1.351 . S
C264 C258 1.428 . S
C264 N263 1.351 . S
C264 C265 1.434 . S
C265 C256 1.429 1_554 S
C265 N262 1.350 . S
C265 C264 1.434 . S
C266 C267 1.369 . S
C266 C268 1.419 . S
C266 H270 0.930 . S
C267 C266 1.369 . S
C267 C276 1.429 . S
C268 C266 1.419 . S
C268 C269 1.363 . S
C268 H271 0.929 . S
C269 C268 1.363 . S
C269 C275 1.428 . S
H270 C266 0.930 . S
H271 C268 0.929 . S
S272 N273 1.613 . S
S272 N274 1.610 . S
N273 S272 1.613 . S
N273 C276 1.350 . S
N274 S272 1.610 . S
N274 C275 1.351 . S
C275 C269 1.428 . S
C275 N274 1.351 . S
C275 C276 1.434 . S
C276 C267 1.429 . S
C276 N273 1.350 . S
C276 C275 1.434 . S
C277 C278 1.369 . S
C277 C279 1.419 . S
C277 H281 0.930 . S
C278 C277 1.369 . S
C278 C287 1.429 . S
C279 C277 1.419 . S
C279 C280 1.363 . S
C279 H282 0.929 . S
C280 C279 1.363 . S
C280 C286 1.428 . S
H281 C277 0.930 . S
H282 C279 0.929 . S
S283 N284 1.613 . S
S283 N285 1.610 . S
N284 S283 1.613 . S
N284 C287 1.350 . S
N285 S283 1.610 . S
N285 C286 1.351 . S
C286 C280 1.428 . S
C286 N285 1.351 . S
C286 C287 1.434 . S
C287 C278 1.429 . S
C287 N284 1.350 . S
C287 C286 1.434 . S
C288 C289 1.369 . S
C288 C290 1.419 . S
C288 H292 0.930 . S
C289 C288 1.369 . S
C289 C298 1.429 . S
C290 C288 1.419 . S
C290 C291 1.363 . S
C290 H293 0.929 . S
C291 C290 1.363 . S
C291 C297 1.428 . S
H292 C288 0.930 . S
H293 C290 0.929 . S
S294 N295 1.613 . S
S294 N296 1.610 . S
N295 S294 1.613 . S
N295 C298 1.350 . S
N296 S294 1.610 . S
N296 C297 1.351 . S
C297 C291 1.428 . S
C297 N296 1.351 . S
C297 C298 1.434 . S
C298 C289 1.429 . S
C298 N295 1.350 . S
C298 C297 1.434 . S
C299 C300 1.369 . S
C299 C301 1.419 . S
C299 H303 0.930 . S
C300 C299 1.369 . S
C300 C309 1.429 . S
C301 C299 1.419 . S
C301 C302 1.363 . S
C301 H304 0.929 . S
C302 C301 1.363 . S
C302 C308 1.428 . S
H303 C299 0.930 . S
H304 C301 0.929 . S
S305 N306 1.613 . S
S305 N307 1.610 . S
N306 S305 1.613 . S
N306 C309 1.350 . S
N307 S305 1.610 . S
N307 C308 1.351 . S
C308 C302 1.428 . S
C308 N307 1.351 . S
C308 C309 1.434 . S
C309 C300 1.429 . S
C309 N306 1.350 . S
C309 C308 1.434 . S
C310 C311 1.369 . S
C310 C312 1.419 . S
C310 H314 0.930 . S
C311 C310 1.369 . S
C311 C320 1.429 . S
C312 C310 1.419 . S
C312 C313 1.363 . S
C312 H315 0.929 . S
C313 C312 1.363 . S
C313 C319 1.428 . S
H314 C310 0.930 . S
H315 C312 0.929 . S
S316 N317 1.613 . S
S316 N318 1.610 . S
N317 S316 1.613 . S
N317 C320 1.350 . S
N318 S316 1.610 . S
N318 C319 1.351 . S
C319 C313 1.428 . S
C319 N318 1.351 . S
C319 C320 1.434 . S
C320 C311 1.429 . S
C320 N317 1.350 . S
C320 C319 1.434 . S
C321 C322 1.369 . S
C321 C323 1.419 . S
C321 H325 0.930 . S
C322 C321 1.369 . S
C322 C331 1.429 . S
C323 C321 1.419 . S
C323 C324 1.363 . S
C323 H326 0.929 . S
C324 C323 1.363 . S
C324 C330 1.428 . S
H325 C321 0.930 . S
H326 C323 0.929 . S
S327 N328 1.613 . S
S327 N329 1.610 . S
N328 S327 1.613 . S
N328 C331 1.350 . S
N329 S327 1.610 . S
N329 C330 1.351 . S
C330 C324 1.428 . S
C330 N329 1.351 . S
C330 C331 1.434 . S
C331 C322 1.429 . S
C331 N328 1.350 . S
C331 C330 1.434 . S
C332 C333 1.369 . S
C332 C334 1.419 . S
C332 H336 0.930 . S
C333 C332 1.369 . S
C333 C342 1.429 . S
C334 C332 1.419 . S
C334 C335 1.363 . S
C334 H337 0.929 . S
C335 C334 1.363 . S
C335 C341 1.428 . S
H336 C332 0.930 . S
H337 C334 0.929 . S
S338 N339 1.613 . S
S338 N340 1.610 . S
N339 S338 1.613 . S
N339 C342 1.350 . S
N340 S338 1.610 . S
N340 C341 1.351 . S
C341 C335 1.428 . S
C341 N340 1.351 . S
C341 C342 1.434 . S
C342 C333 1.429 . S
C342 N339 1.350 . S
C342 C341 1.434 . S
C343 C344 1.369 . S
C343 C345 1.419 . S
C343 H347 0.930 . S
C344 C343 1.369 . S
C344 C353 1.429 . S
C345 C343 1.419 . S
C345 C346 1.363 . S
C345 H348 0.929 . S
C346 C345 1.363 . S
C346 C352 1.428 . S
H347 C343 0.930 . S
H348 C345 0.929 . S
S349 N350 1.613 . S
S349 N351 1.610 . S
N350 S349 1.613 . S
N350 C353 1.350 . S
N351 S349 1.610 . S
N351 C352 1.351 . S
C352 C346 1.428 . S
C352 N351 1.351 . S
C352 C353 1.434 . S
C353 C344 1.429 . S
C353 N350 1.350 . S
C353 C352 1.434 . S
C354 C355 1.369 . S
C354 C356 1.419 . S
C354 H358 0.930 . S
C355 C354 1.369 . S
C355 C364 1.429 . S
C356 C354 1.419 . S
C356 C357 1.363 . S
C356 H359 0.929 . S
C357 C356 1.363 . S
C357 C363 1.428 . S
H358 C354 0.930 . S
H359 C356 0.929 . S
S360 N361 1.613 . S
S360 N362 1.610 . S
N361 S360 1.613 . S
N361 C364 1.350 1_556 S
N362 S360 1.610 . S
N362 C363 1.351 1_556 S
C363 C357 1.428 . S
C363 N362 1.351 1_554 S
C363 C364 1.434 . S
C364 C355 1.429 . S
C364 N361 1.350 1_554 S
C364 C363 1.434 . S
C365 C366 1.369 1_455 S
C365 C367 1.419 . S
C365 H369 0.930 . S
C366 C365 1.369 1_655 S
C366 C375 1.429 . S
C367 C365 1.419 . S
C367 C368 1.363 . S
C367 H370 0.929 . S
C368 C367 1.363 . S
C368 C374 1.428 1_455 S
H369 C365 0.930 . S
H370 C367 0.929 . S
S371 N372 1.613 . S
S371 N373 1.610 . S
N372 S371 1.613 . S
N372 C375 1.350 . S
N373 S371 1.610 . S
N373 C374 1.351 . S
C374 C368 1.428 1_655 S
C374 N373 1.351 . S
C374 C375 1.434 . S
C375 C366 1.429 . S
C375 N372 1.350 . S
C375 C374 1.434 . S
C376 C377 1.369 . S
C376 C378 1.419 . S
C376 H380 0.930 . S
C377 C376 1.369 . S
C377 C386 1.429 1_545 S
C378 C376 1.419 . S
C378 C379 1.363 1_545 S
C378 H381 0.929 . S
C379 C378 1.363 1_565 S
C379 C385 1.428 . S
H380 C376 0.930 . S
H381 C378 0.929 . S
S382 N383 1.613 . S
S382 N384 1.610 . S
N383 S382 1.613 . S
N383 C386 1.350 . S
N384 S382 1.610 . S
N384 C385 1.351 . S
C385 C379 1.428 . S
C385 N384 1.351 . S
C385 C386 1.434 . S
C386 C377 1.429 1_565 S
C386 N383 1.350 . S
C386 C385 1.434 . S
C387 C388 1.369 . S
C387 C389 1.419 . S
C387 H391 0.930 . S
C388 C387 1.369 . S
C388 C397 1.429 . S
C389 C387 1.419 . S
C389 C390 1.363 . S
C389 H392 0.929 . S
C390 C389 1.363 . S
C390 C396 1.428 . S
H391 C387 0.930 . S
H392 C389 0.929 . S
S393 N394 1.613 . S
S393 N395 1.610 . S
N394 S393 1.613 . S
N394 C397 1.350 . S
N395 S393 1.610 . S
N395 C396 1.351 . S
C396 C390 1.428 . S
C396 N395 1.351 . S
C396 C397 1.434 . S
C397 C388 1.429 . S
C397 N394 1.350 . S
C397 C396 1.434 . S
C398 C399 1.369 1_655 S
C398 C400 1.419 . S
C398 H402 0.930 . S
C399 C398 1.369 1_455 S
C399 C408 1.429 . S
C400 C398 1.419 . S
C400 C401 1.363 . S
C400 H403 0.929 . S
C401 C400 1.363 . S
C401 C407 1.428 1_655 S
H402 C398 0.930 . S
H403 C400 0.929 . S
S404 N405 1.613 . S
S404 N406 1.610 . S
N405 S404 1.613 . S
N405 C408 1.350 1_554 S
N406 S404 1.610 . S
N406 C407 1.351 1_554 S
C407 C401 1.428 1_455 S
C407 N406 1.351 1_556 S
C407 C408 1.434 . S
C408 C399 1.429 . S
C408 N405 1.350 1_556 S
C408 C407 1.434 . S
C409 C410 1.369 . S
C409 C411 1.419 . S
C409 H413 0.930 . S
C410 C409 1.369 . S
C410 C419 1.429 1_565 S
C411 C409 1.419 . S
C411 C412 1.363 1_565 S
C411 H414 0.929 . S
C412 C411 1.363 1_545 S
C412 C418 1.428 . S
H413 C409 0.930 . S
H414 C411 0.929 . S
S415 N416 1.613 . S
S415 N417 1.610 . S
N416 S415 1.613 . S
N416 C419 1.350 . S
N417 S415 1.610 . S
N417 C418 1.351 . S
C418 C412 1.428 . S
C418 N417 1.351 . S
C418 C419 1.434 . S
C419 C410 1.429 1_545 S
C419 N416 1.350 . S
C419 C418 1.434 . S
C157 C96 1.244 . S
C159 C5 1.246 . S
C168 C18 1.388 . S
C170 C104 1.378 . S
C179 C26 1.385 . S
C181 C122 1.395 . S
C190 C44 1.252 . S
C192 C135 1.255 . S
C201 C143 1.380 . S
C203 C57 1.395 . S
C212 C83 1.397 . S
C214 C65 1.384 . S
C223 C140 1.222 . S
C225 C10 1.221 . S
C234 C23 1.273 . S
C236 C151 1.268 . S
C245 C34 1.263 . S
C247 C88 1.274 . S
C256 C101 1.221 . S
C258 C49 1.221 . S
C267 C112 1.263 . S
C269 C62 1.274 . S
C278 C127 1.272 . S
C280 C73 1.268 . S
C289 C8 1.547 . S
C291 C114 1.554 . S
C300 C21 1.539 . S
C302 C125 1.535 . S
C311 C138 1.547 . S
C313 C36 1.552 . S
C322 C47 1.548 . S
C324 C153 1.553 . S
C333 C86 1.535 . S
C335 C60 1.535 . S
C344 C99 1.544 . S
C346 C75 1.555 . S
C355 C39 1.366 . S
C357 C0 1.367 . S
C366 C52 1.343 . S
C368 C13 1.358 . S
C377 C31 1.485 . S
C379 C70 1.473 . S
C388 C78 1.353 . S
C390 C117 1.353 . S
C399 C91 1.361 . S
C401 C130 1.372 . S
C410 C148 1.481 . S
C412 C109 1.480 . S
