# Generated by pormake.
# Topology uog, (4)-cn, num edge types: 1
# Building blocks:
#     Node 0, Type 0, BuildingBlock: QUQFOY_clean_sbu_1, # of connection points: 4
#     Node 1, Type 0, BuildingBlock: QUQFOY_clean_sbu_1, # of connection points: 4
#     Node 2, Type 0, BuildingBlock: QUQFOY_clean_sbu_1, # of connection points: 4
#     Node 3, Type 0, BuildingBlock: QUQFOY_clean_sbu_1, # of connection points: 4
#     Node 4, Type 0, BuildingBlock: QUQFOY_clean_sbu_1, # of connection points: 4
#     Node 5, Type 0, BuildingBlock: QUQFOY_clean_sbu_1, # of connection points: 4
#     Edge 6, Type (0, 0), BuildingBlock: XUDNAN_clean_linker_2, # of connection points: 2
#     Edge 7, Type (0, 0), BuildingBlock: XUDNAN_clean_linker_2, # of connection points: 2
#     Edge 8, Type (0, 0), BuildingBlock: XUDNAN_clean_linker_2, # of connection points: 2
#     Edge 9, Type (0, 0), BuildingBlock: XUDNAN_clean_linker_2, # of connection points: 2
#     Edge 10, Type (0, 0), BuildingBlock: XUDNAN_clean_linker_2, # of connection points: 2
#     Edge 11, Type (0, 0), BuildingBlock: XUDNAN_clean_linker_2, # of connection points: 2
#     Edge 12, Type (0, 0), BuildingBlock: XUDNAN_clean_linker_2, # of connection points: 2
#     Edge 13, Type (0, 0), BuildingBlock: XUDNAN_clean_linker_2, # of connection points: 2
#     Edge 14, Type (0, 0), BuildingBlock: XUDNAN_clean_linker_2, # of connection points: 2
#     Edge 15, Type (0, 0), BuildingBlock: XUDNAN_clean_linker_2, # of connection points: 2
#     Edge 16, Type (0, 0), BuildingBlock: XUDNAN_clean_linker_2, # of connection points: 2
#     Edge 17, Type (0, 0), BuildingBlock: XUDNAN_clean_linker_2, # of connection points: 2
# Relax obj value: 0.093
# Max RMSD: 0.154
# Mean RMSD: 0.154
data_MOF--net-uog--node1-QUQFOY_clean_sbu_1--edge1-XUDNAN_clean_linker_2
_symmetry_space_group_name_H-M    P1
_symmetry_Int_Tables_number       1
_symmetry_cell_setting            triclinic
loop_
_symmetry_equiv_pos_as_xyz
'x, y, z'
_cell_length_a     29.0853
_cell_length_b     29.077495
_cell_length_c     43.413266
_cell_angle_alpha  90.207618
_cell_angle_beta   90.099407
_cell_angle_gamma 120.08993
loop_
_atom_site_label
_atom_site_type_symbol
_atom_site_fract_x
_atom_site_fract_y
_atom_site_fract_z
_atom_type_partial_charge
O0 O 0.62304 0.39612 0.19097 0.0
Cd1 Cd 0.66398 0.35619 0.18931 0.0
Cd2 Cd 0.57153 0.27649 0.1722 0.0
O3 O 0.54487 0.32325 0.19441 0.0
O4 O 0.71786 0.3853 0.22338 0.0
O5 O 0.64691 0.30453 0.22321 0.0
C6 C 0.68753 0.34138 0.23772 0.0
C7 C 0.53985 0.1852 0.18075 0.0
C8 C 0.57354 0.37383 0.19606 0.0
C9 C 0.65581 0.33165 0.12386 0.0
O10 O 0.60634 0.30444 0.12975 0.0
O11 O 0.68954 0.35068 0.14579 0.0
O12 O 0.51091 0.20102 0.16694 0.0
O13 O 0.58576 0.22105 0.1908 0.0
O14 O 0.21608 0.61126 0.50847 0.0
Cd15 Cd 0.29644 0.64786 0.50364 0.0
Cd16 Cd 0.27968 0.55246 0.50105 0.0
O17 O 0.21297 0.53932 0.52688 0.0
O18 O 0.3284 0.71371 0.53016 0.0
O19 O 0.32971 0.64057 0.54233 0.0
C20 C 0.3382 0.68695 0.55031 0.0
C21 C 0.34388 0.52912 0.51479 0.0
C22 C 0.19083 0.56718 0.52237 0.0
C23 C 0.29767 0.61019 0.44143 0.0
O24 O 0.2747 0.56526 0.45479 0.0
O25 O 0.32015 0.65278 0.45757 0.0
O26 O 0.29621 0.49327 0.50702 0.0
O27 O 0.35463 0.5778 0.51575 0.0
O28 O 0.62503 0.21863 0.86805 0.0
Cd29 Cd 0.67056 0.29738 0.85752 0.0
Cd30 Cd 0.74073 0.26581 0.84449 0.0
O31 O 0.68864 0.19827 0.86991 0.0
O32 O 0.64598 0.33487 0.8864 0.0
O33 O 0.72462 0.34045 0.88917 0.0
C34 C 0.69007 0.35041 0.90116 0.0
C35 C 0.83254 0.325 0.85204 0.0
C36 C 0.64025 0.18565 0.8741 0.0
C37 C 0.68835 0.28972 0.79173 0.0
O38 O 0.71211 0.26573 0.80124 0.0
O39 O 0.67423 0.31402 0.81064 0.0
O40 O 0.81555 0.27748 0.84153 0.0
O41 O 0.79754 0.33769 0.85954 0.0
O42 O 0.41668 0.62176 0.18193 0.0
Cd43 Cd 0.37973 0.66396 0.17328 0.0
Cd44 Cd 0.48099 0.74093 0.16636 0.0
O45 O 0.49633 0.68937 0.19279 0.0
O46 O 0.31029 0.62281 0.19609 0.0
O47 O 0.37582 0.70052 0.21176 0.0
C48 C 0.33087 0.65876 0.21744 0.0
C49 C 0.48639 0.82243 0.17908 0.0
C50 C 0.46314 0.63945 0.19269 0.0
C51 C 0.41614 0.69419 0.10896 0.0
O52 O 0.46219 0.71735 0.12126 0.0
O53 O 0.37468 0.67656 0.12583 0.0
O54 O 0.52875 0.82136 0.1712 0.0
O55 O 0.44289 0.77758 0.18113 0.0
O56 O 0.78471 0.41951 0.53605 0.0
Cd57 Cd 0.70442 0.38019 0.52856 0.0
Cd58 Cd 0.7315 0.47837 0.50771 0.0
O59 O 0.80449 0.50275 0.52954 0.0
O60 O 0.67932 0.31333 0.55287 0.0
O61 O 0.66144 0.37615 0.56585 0.0
C62 C 0.65997 0.33235 0.57256 0.0
C63 C 0.65983 0.48866 0.52291 0.0
C64 C 0.81812 0.46894 0.53726 0.0
C65 C 0.69782 0.39202 0.46063 0.0
O66 O 0.7228 0.44189 0.46573 0.0
O67 O 0.68047 0.35935 0.483 0.0
O68 O 0.69914 0.52618 0.50795 0.0
O69 O 0.66358 0.44793 0.53067 0.0
O70 O 0.39271 0.7887 0.8439 0.0
Cd71 Cd 0.35662 0.70858 0.8386 0.0
Cd72 Cd 0.27264 0.71774 0.83303 0.0
O73 O 0.3198 0.78614 0.86016 0.0
O74 O 0.39989 0.68554 0.86376 0.0
O75 O 0.3214 0.67254 0.87807 0.0
C76 C 0.36382 0.67114 0.88481 0.0
C77 C 0.19278 0.63899 0.84499 0.0
C78 C 0.37031 0.81138 0.85694 0.0
C79 C 0.32139 0.706 0.77518 0.0
O80 O 0.29577 0.72606 0.78763 0.0
O81 O 0.34215 0.68517 0.79203 0.0
O82 O 0.19212 0.68174 0.83762 0.0
O83 O 0.23843 0.64204 0.84677 0.0
H84 H 0.6015 0.13826 0.18399 0.0
H85 H 0.43771 0.10251 0.18345 0.0
H86 H 0.4073 1.00653 0.1866 0.0
H87 H 0.57935 0.03064 0.13475 0.0
H88 H 0.62662 0.01748 0.15383 0.0
H89 H 0.63582 0.08349 0.15452 0.0
H90 H 0.63914 0.08386 0.21415 0.0
H91 H 0.62992 0.01777 0.21364 0.0
H92 H 0.58502 0.03127 0.23516 0.0
H93 H 0.39459 0.91493 0.18917 0.0
H94 H 0.39917 0.83289 0.18624 0.0
H95 H 0.57132 0.9263 0.18133 0.0
C96 C 0.55925 0.11019 0.18504 0.0
C97 C 0.52186 0.12783 0.18392 0.0
C98 C 0.46695 0.08989 0.18447 0.0
C99 C 0.44937 0.03533 0.18636 0.0
C100 C 0.48718 0.01921 0.1872 0.0
C101 C 0.54098 0.05541 0.18623 0.0
C102 C 0.57306 0.02719 0.18513 0.0
C103 C 0.60562 0.0405 0.15528 0.0
C104 C 0.6089 0.04084 0.21372 0.0
C105 C 0.52886 0.96945 0.18546 0.0
C106 C 0.47974 0.96598 0.18716 0.0
C107 C 0.43281 0.91718 0.18779 0.0
C108 C 0.43594 0.87069 0.18618 0.0
C109 C 0.48562 0.87287 0.1835 0.0
C110 C 0.53275 0.92316 0.18339 0.0
H111 H 0.45147 0.5916 0.50679 0.0
H112 H 0.33024 0.435 0.53665 0.0
H113 H 0.39952 0.41102 0.54618 0.0
H114 H 0.52667 0.54658 0.46516 0.0
H115 H 0.59038 0.60335 0.47453 0.0
H116 H 0.53216 0.61006 0.47307 0.0
H117 H 0.55064 0.64684 0.52891 0.0
H118 H 0.60889 0.64007 0.53058 0.0
H119 H 0.55767 0.60852 0.5592 0.0
H120 H 0.48143 0.40353 0.55154 0.0
H121 H 0.56836 0.40891 0.54744 0.0
H122 H 0.63677 0.56854 0.51064 0.0
C123 C 0.43967 0.55255 0.5158 0.0
C124 C 0.38552 0.5153 0.52141 0.0
C125 C 0.37146 0.46415 0.53237 0.0
C126 C 0.41057 0.45031 0.53797 0.0
C127 C 0.46355 0.48783 0.53206 0.0
C128 C 0.47813 0.5377 0.52087 0.0
C129 C 0.53728 0.56899 0.51406 0.0
C130 C 0.54718 0.58305 0.47966 0.0
C131 C 0.56526 0.61907 0.53441 0.0
C132 C 0.55366 0.52878 0.52294 0.0
C133 C 0.51059 0.48262 0.53377 0.0
C134 C 0.5154 0.43948 0.54311 0.0
C135 C 0.56516 0.44304 0.54074 0.0
C136 C 0.60965 0.48916 0.52869 0.0
C137 C 0.60374 0.53285 0.52007 0.0
H138 H 0.87884 0.43359 0.85365 0.0
H139 H 0.91642 0.30684 0.85377 0.0
H140 H 1.01236 0.37378 0.85498 0.0
H141 H 0.98266 0.51806 0.80261 0.0
H142 H 0.99591 0.57897 0.82131 0.0
H143 H 0.93043 0.52135 0.823 0.0
H144 H 0.93336 0.52659 0.8826 0.0
H145 H 0.99891 0.58429 0.8811 0.0
H146 H 0.98763 0.52701 0.90298 0.0
H147 H 0.10399 0.45441 0.85556 0.0
H148 H 0.1849 0.54213 0.85166 0.0
H149 H 0.08845 0.61746 0.84807 0.0
C150 C 0.90725 0.41989 0.85437 0.0
C151 C 0.89012 0.36487 0.854 0.0
C152 C 0.92859 0.34866 0.85422 0.0
C153 C 0.98315 0.38643 0.85498 0.0
C154 C 0.99866 0.44032 0.85513 0.0
C155 C 0.96186 0.45707 0.85458 0.0
C156 C 0.98907 0.51731 0.85293 0.0
C157 C 0.9736 0.53494 0.82319 0.0
C158 C 0.97649 0.54013 0.88162 0.0
C159 C 0.04702 0.53191 0.85252 0.0
C160 C 0.05154 0.48684 0.85422 0.0
C161 C 0.10086 0.4899 0.8542 0.0
C162 C 0.1467 0.54011 0.85203 0.0
C163 C 0.14328 0.58696 0.84952 0.0
C164 C 0.09255 0.58257 0.84997 0.0
H165 H 0.12819 0.60895 0.50655 0.0
H166 H 0.12795 0.48328 0.56037 0.0
H167 H 0.03485 0.45193 0.57544 0.0
H168 H 0.04263 0.63482 0.55749 0.0
H169 H 1.00923 0.64553 0.52569 0.0
H170 H 0.07734 0.66144 0.5218 0.0
H171 H 0.05209 0.60039 0.47368 0.0
H172 H 0.98413 0.58462 0.47729 0.0
H173 H 0.99982 0.53201 0.47646 0.0
H174 H 0.94049 0.43052 0.58139 0.0
H175 H 0.85002 0.41617 0.57509 0.0
H176 H 0.91102 0.55548 0.51694 0.0
C177 C 0.10896 0.57531 0.52193 0.0
C178 C 0.13558 0.54875 0.53248 0.0
C179 C 0.10849 0.50432 0.55207 0.0
C180 C 0.05572 0.48647 0.56088 0.0
C181 C 0.03067 0.51349 0.54991 0.0
C182 C 0.05634 0.55684 0.53075 0.0
C183 C 0.01929 0.57626 0.52012 0.0
C184 C 0.03827 0.63288 0.53199 0.0
C185 C 0.01349 0.5731 0.4848 0.0
C186 C 0.96819 0.53621 0.53568 0.0
C187 C 0.97595 0.50088 0.55313 0.0
C188 C 0.93413 0.45828 0.56811 0.0
C189 C 0.88286 0.4505 0.56438 0.0
C190 C 0.87355 0.48498 0.54572 0.0
C191 C 0.91709 0.52927 0.53191 0.0
H192 H 0.47743 0.87416 0.84932 0.0
H193 H 0.34054 0.8758 0.88775 0.0
H194 H 0.3986 0.97027 0.90269 0.0
H195 H 0.57617 0.96353 0.90594 0.0
H196 H 0.62723 0.99485 0.87721 0.0
H197 H 0.57603 0.92631 0.87261 0.0
H198 H 0.55166 0.94755 0.81913 0.0
H199 H 0.6029 0.01589 0.82347 0.0
H200 H 0.5354 0.99957 0.81591 0.0
H201 H 0.47046 0.06639 0.90919 0.0
H202 H 0.54788 0.15666 0.90431 0.0
H203 H 0.63776 0.09156 0.86165 0.0
C204 C 0.45948 0.8939 0.86131 0.0
C205 C 0.40423 0.86729 0.86749 0.0
C206 C 0.38265 0.89516 0.88286 0.0
C207 C 0.41542 0.94875 0.89154 0.0
C208 C 0.46965 0.97372 0.88482 0.0
C209 C 0.49143 0.94709 0.87002 0.0
C210 C 0.54991 0.98365 0.86326 0.0
C211 C 0.58436 0.96602 0.88081 0.0
C212 C 0.56056 0.98685 0.82838 0.0
C213 C 0.55764 0.03568 0.87585 0.0
C214 C 0.51102 0.02894 0.88856 0.0
C215 C 0.50725 0.07189 0.89968 0.0
C216 C 0.55152 0.12304 0.89682 0.0
C217 C 0.59908 0.13109 0.8829 0.0
C218 C 0.60252 0.08656 0.87312 0.0
H219 H 0.55791 0.63969 0.18708 0.0
H220 H 0.39727 0.54789 0.22197 0.0
H221 H 0.41056 0.47182 0.23111 0.0
H222 H 0.55662 0.53813 0.14563 0.0
H223 H 0.62425 0.55514 0.15341 0.0
H224 H 0.60617 0.6059 0.15444 0.0
H225 H 0.64222 0.63107 0.21023 0.0
H226 H 0.66118 0.5808 0.20924 0.0
H227 H 0.61844 0.58034 0.2394 0.0
H228 H 0.4357 0.40129 0.22893 0.0
H229 H 0.47453 0.34378 0.2195 0.0
H230 H 0.61927 0.48092 0.18698 0.0
C231 C 0.52646 0.60432 0.1978 0.0
C232 C 0.47676 0.59982 0.20408 0.0
C233 C 0.43577 0.55222 0.21712 0.0
C234 C 0.4429 0.50873 0.2224 0.0
C235 C 0.49142 0.51336 0.21469 0.0
C236 C 0.53288 0.56016 0.20313 0.0
C237 C 0.57935 0.55295 0.19443 0.0
C238 C 0.59232 0.56366 0.15994 0.0
C239 C 0.62819 0.58839 0.21453 0.0
C240 C 0.55677 0.4946 0.20194 0.0
C241 C 0.50613 0.47253 0.21377 0.0
C242 C 0.47581 0.41834 0.22028 0.0
C243 C 0.49801 0.38588 0.2147 0.0
C244 C 0.55005 0.40778 0.2028 0.0
C245 C 0.57968 0.46298 0.1966 0.0
H246 H 0.61243 0.33038 0.94285 0.0
H247 H 0.78346 0.40809 0.93264 0.0
H248 H 0.79417 0.41809 0.98918 0.0
H249 H 0.61037 0.40476 1.01349 0.0
H250 H 0.55502 0.34559 0.02914 0.0
H251 H 0.56189 0.35478 0.98803 0.0
H252 H 0.5578 0.26405 0.9825 0.0
H253 H 0.55232 0.25513 0.02356 0.0
H254 H 0.60507 0.25281 1.00318 0.0
H255 H 0.78542 0.4083 0.04701 0.0
H256 H 0.75792 0.38414 0.10123 0.0
H257 H 0.5925 0.30899 0.07288 0.0
C258 C 0.65221 0.35175 0.95243 0.0
C259 C 0.69716 0.36935 0.93338 0.0
C260 C 0.74853 0.39507 0.94685 0.0
C261 C 0.75498 0.40072 0.97894 0.0
C262 C 0.70965 0.3803 0.99722 0.0
C263 C 0.65925 0.35692 0.98441 0.0
C264 C 0.61685 0.33305 1.00898 0.0
C265 C 0.58411 0.36125 1.00997 0.0
C266 C 0.58093 0.2727 1.00426 0.0
C267 C 0.65118 0.34534 0.03748 0.0
C268 C 0.70458 0.37315 0.03034 0.0
C269 C 0.74368 0.38711 0.05291 0.0
C270 C 0.7277 0.37292 0.08361 0.0
C271 C 0.67308 0.34452 0.09137 0.0
C272 C 0.6346 0.33058 0.06782 0.0
H273 H 0.37432 0.72126 0.26897 0.0
H274 H 0.24035 0.57151 0.23829 0.0
H275 H 0.21513 0.54589 0.29244 0.0
H276 H 0.41111 0.67071 0.33012 0.0
H277 H 0.42953 0.72568 0.35619 0.0
H278 H 0.4333 0.73634 0.31524 0.0
H279 H 0.37184 0.77661 0.31954 0.0
H280 H 0.36859 0.76701 0.36064 0.0
H281 H 0.30828 0.73931 0.33817 0.0
H282 H 0.2118 0.5311 0.34909 0.0
H283 H 0.22409 0.53128 0.40509 0.0
H284 H 0.35917 0.69165 0.40044 0.0
C285 C 0.33863 0.68381 0.27357 0.0
C286 C 0.30904 0.64853 0.24922 0.0
C287 C 0.26333 0.59943 0.25639 0.0
C288 C 0.24884 0.58443 0.28714 0.0
C289 C 0.28016 0.61912 0.31053 0.0
C290 C 0.32357 0.66823 0.30418 0.0
C291 C 0.35228 0.69663 0.33367 0.0
C292 C 0.40996 0.70799 0.33379 0.0
C293 C 0.3501 0.74793 0.33828 0.0
C294 C 0.31901 0.65522 0.35755 0.0
C295 C 0.27768 0.61088 0.34357 0.0
C296 C 0.24345 0.56593 0.36032 0.0
C297 C 0.25113 0.56635 0.3922 0.0
C298 C 0.29258 0.61154 0.40735 0.0
C299 C 0.32684 0.65672 0.38966 0.0
H300 H 0.67513 0.35945 0.75442 0.0
H301 H 0.66699 0.20626 0.75482 0.0
H302 H 0.64407 0.19469 0.69976 0.0
H303 H 0.56835 0.32543 0.69592 0.0
H304 H 0.60405 0.38964 0.67785 0.0
H305 H 0.61228 0.38327 0.7185 0.0
H306 H 0.71414 0.42728 0.71124 0.0
H307 H 0.70617 0.43418 0.67074 0.0
H308 H 0.73977 0.39969 0.68344 0.0
H309 H 0.63157 0.20267 0.64433 0.0
H310 H 0.63683 0.23333 0.59087 0.0
H311 H 0.65319 0.38138 0.62484 0.0
C312 C 0.66746 0.32313 0.74295 0.0
C313 C 0.67273 0.28373 0.75889 0.0
C314 C 0.66349 0.23715 0.74303 0.0
C315 C 0.6499 0.22989 0.71179 0.0
C316 C 0.64574 0.2696 0.69655 0.0
C317 C 0.65449 0.31549 0.71144 0.0
C318 C 0.6531 0.35429 0.68871 0.0
C319 C 0.60666 0.36369 0.69567 0.0
C320 C 0.70646 0.40695 0.68852 0.0
C321 C 0.64392 0.32362 0.65878 0.0
C322 C 0.63879 0.27444 0.66399 0.0
C323 C 0.63459 0.24069 0.6399 0.0
C324 C 0.63756 0.25838 0.60961 0.0
C325 C 0.64478 0.30939 0.6037 0.0
C326 C 0.64628 0.34162 0.62863 0.0
H327 H 0.30386 0.65983 0.93617 0.0
H328 H 0.44808 0.66329 0.90661 0.0
H329 H 0.47294 0.66312 0.96098 0.0
H330 H 0.36051 0.74853 0.99712 0.0
H331 H 0.30494 0.71582 0.02297 0.0
H332 H 0.29411 0.70868 0.98198 0.0
H333 H 0.24652 0.60627 0.98685 0.0
H334 H 0.25653 0.61299 0.02798 0.0
H335 H 0.27977 0.57603 1.00594 0.0
H336 H 0.48784 0.674 0.01753 0.0
H337 H 0.48965 0.68883 0.07332 0.0
H338 H 0.33505 0.67717 0.06786 0.0
C339 C 0.33989 0.65887 0.94109 0.0
C340 C 0.37384 0.66106 0.91699 0.0
C341 C 0.42121 0.66111 0.92454 0.0
C342 C 0.43572 0.66115 0.9554 0.0
C343 C 0.40233 0.66089 0.97853 0.0
C344 C 0.35504 0.65905 0.97183 0.0
C345 C 0.32819 0.66254 1.00111 0.0
C346 C 0.32157 0.71182 1.00076 0.0
C347 C 0.27457 0.6114 1.00574 0.0
C348 C 0.36847 0.66795 0.02527 0.0
C349 C 0.41078 0.66674 1.01158 0.0
C350 C 0.45459 0.67422 0.02854 0.0
C351 C 0.45533 0.68303 0.06029 0.0
C352 C 0.41246 0.68416 0.07514 0.0
C353 C 0.36813 0.67596 0.05731 0.0
H354 H 0.74153 0.45118 0.40875 0.0
H355 H 0.64218 0.28863 0.43967 0.0
H356 H 0.63623 0.25679 0.38608 0.0
H357 H 0.67369 0.43816 0.33858 0.0
H358 H 0.73321 0.48132 0.31744 0.0
H359 H 0.73081 0.49025 0.35831 0.0
H360 H 0.81469 0.48161 0.36547 0.0
H361 H 0.81685 0.47187 0.3246 0.0
H362 H 0.81455 0.42326 0.35116 0.0
H363 H 0.63743 0.24349 0.32853 0.0
H364 H 0.64217 0.25016 0.27176 0.0
H365 H 0.74354 0.42121 0.27928 0.0
C366 C 0.71846 0.40882 0.40437 0.0
C367 C 0.69218 0.37241 0.42848 0.0
C368 C 0.6626 0.31733 0.42161 0.0
C369 C 0.65923 0.29885 0.39127 0.0
C370 C 0.68607 0.33591 0.36814 0.0
C371 C 0.71504 0.38974 0.37437 0.0
C372 C 0.7388 0.42161 0.34536 0.0
C373 C 0.71785 0.46008 0.33959 0.0
C374 C 0.79985 0.45133 0.34675 0.0
C375 C 0.71779 0.37739 0.32163 0.0
C376 C 0.68776 0.32818 0.33521 0.0
C377 C 0.66141 0.28173 0.3177 0.0
C378 C 0.66449 0.28589 0.28547 0.0
C379 C 0.69381 0.33612 0.27111 0.0
C380 C 0.72192 0.38215 0.28955 0.0
H381 H 0.33188 0.64027 0.73224 0.0
H382 H 0.33469 0.79022 0.74212 0.0
H383 H 0.35049 0.80625 0.68656 0.0
H384 H 0.43167 0.68168 0.67002 0.0
H385 H 0.39606 0.61917 0.64975 0.0
H386 H 0.39077 0.62131 0.69104 0.0
H387 H 0.28828 0.57519 0.68636 0.0
H388 H 0.29333 0.57256 0.64516 0.0
H389 H 0.25916 0.60385 0.6619 0.0
H390 H 0.36088 0.80484 0.62987 0.0
H391 H 0.35698 0.78176 0.57483 0.0
H392 H 0.34473 0.6316 0.5999 0.0
C393 C 0.33665 0.67674 0.72268 0.0
C394 C 0.33224 0.71408 0.7416 0.0
C395 C 0.33765 0.76089 0.72813 0.0
C396 C 0.34708 0.77064 0.69657 0.0
C397 C 0.35068 0.73306 0.67844 0.0
C398 C 0.34517 0.68677 0.69083 0.0
C399 C 0.34604 0.65099 0.66549 0.0
C400 C 0.394 0.64282 0.66931 0.0
C401 C 0.29358 0.5975 0.66468 0.0
C402 C 0.35194 0.68407 0.63712 0.0
C403 C 0.35546 0.73166 0.64525 0.0
C404 C 0.35863 0.76788 0.62318 0.0
C405 C 0.35655 0.75449 0.59191 0.0
C406 C 0.35094 0.7051 0.58288 0.0
C407 C 0.3499 0.67008 0.60593 0.0
loop_
_geom_bond_atom_site_label_1
_geom_bond_atom_site_label_2
_geom_bond_distance
_geom_bond_site_symmetry_2
_ccdc_geom_bond_type
O0 Cd1 2.223 . S
O0 C8 1.315 . S
Cd1 O0 2.223 . S
Cd1 O4 2.297 . S
Cd1 O5 2.439 . S
Cd1 O11 2.240 . S
Cd2 O3 2.240 . S
Cd2 O10 2.223 . S
Cd2 O12 2.297 . S
Cd2 O13 2.439 . S
O3 Cd2 2.240 . S
O3 C8 1.279 . S
O4 Cd1 2.297 . S
O4 C6 1.247 . S
O5 Cd1 2.439 . S
O5 C6 1.208 . S
C6 O4 1.247 . S
C6 O5 1.208 . S
C7 O12 1.247 . S
C7 O13 1.208 . S
C8 O0 1.315 . S
C8 O3 1.279 . S
C9 O10 1.315 . S
C9 O11 1.279 . S
O10 Cd2 2.223 . S
O10 C9 1.315 . S
O11 Cd1 2.240 . S
O11 C9 1.279 . S
O12 Cd2 2.297 . S
O12 C7 1.247 . S
O13 Cd2 2.439 . S
O13 C7 1.208 . S
O14 Cd15 2.223 . S
O14 C22 1.315 . S
Cd15 O14 2.223 . S
Cd15 O18 2.297 . S
Cd15 O19 2.439 . S
Cd15 O25 2.240 . S
Cd16 O17 2.240 . S
Cd16 O24 2.223 . S
Cd16 O26 2.297 . S
Cd16 O27 2.439 . S
O17 Cd16 2.240 . S
O17 C22 1.279 . S
O18 Cd15 2.297 . S
O18 C20 1.247 . S
O19 Cd15 2.439 . S
O19 C20 1.208 . S
C20 O18 1.247 . S
C20 O19 1.208 . S
C21 O26 1.247 . S
C21 O27 1.208 . S
C22 O14 1.315 . S
C22 O17 1.279 . S
C23 O24 1.315 . S
C23 O25 1.279 . S
O24 Cd16 2.223 . S
O24 C23 1.315 . S
O25 Cd15 2.240 . S
O25 C23 1.279 . S
O26 Cd16 2.297 . S
O26 C21 1.247 . S
O27 Cd16 2.439 . S
O27 C21 1.208 . S
O28 Cd29 2.223 . S
O28 C36 1.315 . S
Cd29 O28 2.223 . S
Cd29 O32 2.297 . S
Cd29 O33 2.439 . S
Cd29 O39 2.240 . S
Cd30 O31 2.240 . S
Cd30 O38 2.223 . S
Cd30 O40 2.297 . S
Cd30 O41 2.439 . S
O31 Cd30 2.240 . S
O31 C36 1.279 . S
O32 Cd29 2.297 . S
O32 C34 1.247 . S
O33 Cd29 2.439 . S
O33 C34 1.208 . S
C34 O32 1.247 . S
C34 O33 1.208 . S
C35 O40 1.247 . S
C35 O41 1.208 . S
C36 O28 1.315 . S
C36 O31 1.279 . S
C37 O38 1.315 . S
C37 O39 1.279 . S
O38 Cd30 2.223 . S
O38 C37 1.315 . S
O39 Cd29 2.240 . S
O39 C37 1.279 . S
O40 Cd30 2.297 . S
O40 C35 1.247 . S
O41 Cd30 2.439 . S
O41 C35 1.208 . S
O42 Cd43 2.223 . S
O42 C50 1.315 . S
Cd43 O42 2.223 . S
Cd43 O46 2.297 . S
Cd43 O47 2.439 . S
Cd43 O53 2.240 . S
Cd44 O45 2.240 . S
Cd44 O52 2.223 . S
Cd44 O54 2.297 . S
Cd44 O55 2.439 . S
O45 Cd44 2.240 . S
O45 C50 1.279 . S
O46 Cd43 2.297 . S
O46 C48 1.247 . S
O47 Cd43 2.439 . S
O47 C48 1.208 . S
C48 O46 1.247 . S
C48 O47 1.208 . S
C49 O54 1.247 . S
C49 O55 1.208 . S
C50 O42 1.315 . S
C50 O45 1.279 . S
C51 O52 1.315 . S
C51 O53 1.279 . S
O52 Cd44 2.223 . S
O52 C51 1.315 . S
O53 Cd43 2.240 . S
O53 C51 1.279 . S
O54 Cd44 2.297 . S
O54 C49 1.247 . S
O55 Cd44 2.439 . S
O55 C49 1.208 . S
O56 Cd57 2.223 . S
O56 C64 1.315 . S
Cd57 O56 2.223 . S
Cd57 O60 2.297 . S
Cd57 O61 2.439 . S
Cd57 O67 2.240 . S
Cd58 O59 2.240 . S
Cd58 O66 2.223 . S
Cd58 O68 2.297 . S
Cd58 O69 2.439 . S
O59 Cd58 2.240 . S
O59 C64 1.279 . S
O60 Cd57 2.297 . S
O60 C62 1.247 . S
O61 Cd57 2.439 . S
O61 C62 1.208 . S
C62 O60 1.247 . S
C62 O61 1.208 . S
C63 O68 1.247 . S
C63 O69 1.208 . S
C64 O56 1.315 . S
C64 O59 1.279 . S
C65 O66 1.315 . S
C65 O67 1.279 . S
O66 Cd58 2.223 . S
O66 C65 1.315 . S
O67 Cd57 2.240 . S
O67 C65 1.279 . S
O68 Cd58 2.297 . S
O68 C63 1.247 . S
O69 Cd58 2.439 . S
O69 C63 1.208 . S
O70 Cd71 2.223 . S
O70 C78 1.315 . S
Cd71 O70 2.223 . S
Cd71 O74 2.297 . S
Cd71 O75 2.439 . S
Cd71 O81 2.240 . S
Cd72 O73 2.240 . S
Cd72 O80 2.223 . S
Cd72 O82 2.297 . S
Cd72 O83 2.439 . S
O73 Cd72 2.240 . S
O73 C78 1.279 . S
O74 Cd71 2.297 . S
O74 C76 1.247 . S
O75 Cd71 2.439 . S
O75 C76 1.208 . S
C76 O74 1.247 . S
C76 O75 1.208 . S
C77 O82 1.247 . S
C77 O83 1.208 . S
C78 O70 1.315 . S
C78 O73 1.279 . S
C79 O80 1.315 . S
C79 O81 1.279 . S
O80 Cd72 2.223 . S
O80 C79 1.315 . S
O81 Cd71 2.240 . S
O81 C79 1.279 . S
O82 Cd72 2.297 . S
O82 C77 1.247 . S
O83 Cd72 2.439 . S
O83 C77 1.208 . S
H84 C96 0.930 . S
H85 C98 0.930 . S
H86 C99 0.930 . S
H87 C103 0.959 . S
H88 C103 0.959 1_565 S
H89 C103 0.961 . S
H90 C104 0.960 1_545 S
H91 C104 0.961 . S
H92 C104 0.959 . S
H93 C107 0.929 . S
H94 C108 0.931 . S
H95 C110 0.930 . S
C96 H84 0.930 . S
C96 C97 1.399 . S
C96 C101 1.399 . S
C97 C96 1.399 . S
C97 C98 1.376 . S
C98 H85 0.930 . S
C98 C97 1.376 . S
C98 C99 1.388 . S
C99 H86 0.930 . S
C99 C98 1.388 . S
C99 C100 1.390 . S
C100 C99 1.390 . S
C100 C101 1.394 . S
C100 C106 1.465 1_545 S
C101 C96 1.399 . S
C101 C100 1.394 . S
C101 C102 1.516 . S
C102 C101 1.516 . S
C102 C103 1.502 . S
C102 C104 1.561 1_545 S
C102 C105 1.526 1_545 S
C103 H87 0.959 . S
C103 H88 0.959 1_545 S
C103 H89 0.961 . S
C103 C102 1.502 . S
C104 H90 0.960 1_565 S
C104 H91 0.961 . S
C104 H92 0.959 . S
C104 C102 1.561 1_565 S
C105 C102 1.526 1_565 S
C105 C106 1.396 . S
C105 C110 1.390 . S
C106 C100 1.465 1_565 S
C106 C105 1.396 . S
C106 C107 1.399 . S
C107 H93 0.929 . S
C107 C106 1.399 . S
C107 C108 1.385 . S
C108 H94 0.931 . S
C108 C107 1.385 . S
C108 C109 1.389 . S
C109 C108 1.389 . S
C109 C110 1.387 . S
C110 H95 0.930 . S
C110 C105 1.390 . S
C110 C109 1.387 . S
H111 C123 0.930 . S
H112 C125 0.930 . S
H113 C126 0.930 . S
H114 C130 0.959 . S
H115 C130 0.959 . S
H116 C130 0.961 . S
H117 C131 0.960 . S
H118 C131 0.961 . S
H119 C131 0.959 . S
H120 C134 0.929 . S
H121 C135 0.931 . S
H122 C137 0.930 . S
C123 H111 0.930 . S
C123 C124 1.399 . S
C123 C128 1.399 . S
C124 C123 1.399 . S
C124 C125 1.376 . S
C125 H112 0.930 . S
C125 C124 1.376 . S
C125 C126 1.388 . S
C126 H113 0.930 . S
C126 C125 1.388 . S
C126 C127 1.390 . S
C127 C126 1.390 . S
C127 C128 1.394 . S
C127 C133 1.465 . S
C128 C123 1.399 . S
C128 C127 1.394 . S
C128 C129 1.516 . S
C129 C128 1.516 . S
C129 C130 1.502 . S
C129 C131 1.561 . S
C129 C132 1.526 . S
C130 H114 0.959 . S
C130 H115 0.959 . S
C130 H116 0.961 . S
C130 C129 1.502 . S
C131 H117 0.960 . S
C131 H118 0.961 . S
C131 H119 0.959 . S
C131 C129 1.561 . S
C132 C129 1.526 . S
C132 C133 1.396 . S
C132 C137 1.390 . S
C133 C127 1.465 . S
C133 C132 1.396 . S
C133 C134 1.399 . S
C134 H120 0.929 . S
C134 C133 1.399 . S
C134 C135 1.385 . S
C135 H121 0.931 . S
C135 C134 1.385 . S
C135 C136 1.389 . S
C136 C135 1.389 . S
C136 C137 1.387 . S
C137 H122 0.930 . S
C137 C132 1.390 . S
C137 C136 1.387 . S
H138 C150 0.930 . S
H139 C152 0.930 . S
H140 C153 0.930 . S
H141 C157 0.959 . S
H142 C157 0.959 1_455 S
H143 C157 0.961 . S
H144 C158 0.960 1_655 S
H145 C158 0.961 . S
H146 C158 0.959 . S
H147 C161 0.929 . S
H148 C162 0.931 . S
H149 C164 0.930 . S
C150 H138 0.930 . S
C150 C151 1.399 . S
C150 C155 1.399 . S
C151 C150 1.399 . S
C151 C152 1.376 . S
C152 H139 0.930 . S
C152 C151 1.376 . S
C152 C153 1.388 . S
C153 H140 0.930 . S
C153 C152 1.388 . S
C153 C154 1.390 . S
C154 C153 1.390 . S
C154 C155 1.394 . S
C154 C160 1.465 1_655 S
C155 C150 1.399 . S
C155 C154 1.394 . S
C155 C156 1.516 . S
C156 C155 1.516 . S
C156 C157 1.502 . S
C156 C158 1.561 1_655 S
C156 C159 1.526 1_655 S
C157 H141 0.959 . S
C157 H142 0.959 1_655 S
C157 H143 0.961 . S
C157 C156 1.502 . S
C158 H144 0.960 1_455 S
C158 H145 0.961 . S
C158 H146 0.959 . S
C158 C156 1.561 1_455 S
C159 C156 1.526 1_455 S
C159 C160 1.396 . S
C159 C164 1.390 . S
C160 C154 1.465 1_455 S
C160 C159 1.396 . S
C160 C161 1.399 . S
C161 H147 0.929 . S
C161 C160 1.399 . S
C161 C162 1.385 . S
C162 H148 0.931 . S
C162 C161 1.385 . S
C162 C163 1.389 . S
C163 C162 1.389 . S
C163 C164 1.387 . S
C164 H149 0.930 . S
C164 C159 1.390 . S
C164 C163 1.387 . S
H165 C177 0.930 . S
H166 C179 0.930 . S
H167 C180 0.930 . S
H168 C184 0.959 . S
H169 C184 0.959 1_655 S
H170 C184 0.961 . S
H171 C185 0.960 1_455 S
H172 C185 0.961 . S
H173 C185 0.959 . S
H174 C188 0.929 . S
H175 C189 0.931 . S
H176 C191 0.930 . S
C177 H165 0.930 . S
C177 C178 1.399 . S
C177 C182 1.399 . S
C178 C177 1.399 . S
C178 C179 1.376 . S
C179 H166 0.930 . S
C179 C178 1.376 . S
C179 C180 1.388 . S
C180 H167 0.930 . S
C180 C179 1.388 . S
C180 C181 1.390 . S
C181 C180 1.390 . S
C181 C182 1.394 . S
C181 C187 1.465 1_455 S
C182 C177 1.399 . S
C182 C181 1.394 . S
C182 C183 1.529 . S
C183 C182 1.529 . S
C183 C184 1.497 . S
C183 C185 1.566 1_455 S
C183 C186 1.514 1_455 S
C184 H168 0.959 . S
C184 H169 0.959 1_455 S
C184 H170 0.961 . S
C184 C183 1.497 . S
C185 H171 0.960 1_655 S
C185 H172 0.961 . S
C185 H173 0.959 . S
C185 C183 1.566 1_655 S
C186 C183 1.514 1_655 S
C186 C187 1.396 . S
C186 C191 1.390 . S
C187 C181 1.465 1_655 S
C187 C186 1.396 . S
C187 C188 1.399 . S
C188 H174 0.929 . S
C188 C187 1.399 . S
C188 C189 1.385 . S
C189 H175 0.931 . S
C189 C188 1.385 . S
C189 C190 1.389 . S
C190 C189 1.389 . S
C190 C191 1.387 . S
C191 H176 0.930 . S
C191 C186 1.390 . S
C191 C190 1.387 . S
H192 C204 0.930 . S
H193 C206 0.930 . S
H194 C207 0.930 . S
H195 C211 0.959 . S
H196 C211 0.959 1_545 S
H197 C211 0.961 . S
H198 C212 0.960 1_565 S
H199 C212 0.961 . S
H200 C212 0.959 . S
H201 C215 0.929 . S
H202 C216 0.931 . S
H203 C218 0.930 . S
C204 H192 0.930 . S
C204 C205 1.399 . S
C204 C209 1.399 . S
C205 C204 1.399 . S
C205 C206 1.376 . S
C206 H193 0.930 . S
C206 C205 1.376 . S
C206 C207 1.388 . S
C207 H194 0.930 . S
C207 C206 1.388 . S
C207 C208 1.390 . S
C208 C207 1.390 . S
C208 C209 1.394 . S
C208 C214 1.465 1_565 S
C209 C204 1.399 . S
C209 C208 1.394 . S
C209 C210 1.516 . S
C210 C209 1.516 . S
C210 C211 1.502 . S
C210 C212 1.561 1_565 S
C210 C213 1.526 1_565 S
C211 H195 0.959 . S
C211 H196 0.959 1_565 S
C211 H197 0.961 . S
C211 C210 1.502 . S
C212 H198 0.960 1_545 S
C212 H199 0.961 . S
C212 H200 0.959 . S
C212 C210 1.561 1_545 S
C213 C210 1.526 1_545 S
C213 C214 1.396 . S
C213 C218 1.390 . S
C214 C208 1.465 1_545 S
C214 C213 1.396 . S
C214 C215 1.399 . S
C215 H201 0.929 . S
C215 C214 1.399 . S
C215 C216 1.385 . S
C216 H202 0.931 . S
C216 C215 1.385 . S
C216 C217 1.389 . S
C217 C216 1.389 . S
C217 C218 1.387 . S
C218 H203 0.930 . S
C218 C213 1.390 . S
C218 C217 1.387 . S
H219 C231 0.930 . S
H220 C233 0.930 . S
H221 C234 0.930 . S
H222 C238 0.959 . S
H223 C238 0.959 . S
H224 C238 0.961 . S
H225 C239 0.960 . S
H226 C239 0.961 . S
H227 C239 0.959 . S
H228 C242 0.929 . S
H229 C243 0.931 . S
H230 C245 0.930 . S
C231 H219 0.930 . S
C231 C232 1.399 . S
C231 C236 1.399 . S
C232 C231 1.399 . S
C232 C233 1.376 . S
C233 H220 0.930 . S
C233 C232 1.376 . S
C233 C234 1.388 . S
C234 H221 0.930 . S
C234 C233 1.388 . S
C234 C235 1.390 . S
C235 C234 1.390 . S
C235 C236 1.394 . S
C235 C241 1.465 . S
C236 C231 1.399 . S
C236 C235 1.394 . S
C236 C237 1.516 . S
C237 C236 1.516 . S
C237 C238 1.502 . S
C237 C239 1.561 . S
C237 C240 1.526 . S
C238 H222 0.959 . S
C238 H223 0.959 . S
C238 H224 0.961 . S
C238 C237 1.502 . S
C239 H225 0.960 . S
C239 H226 0.961 . S
C239 H227 0.959 . S
C239 C237 1.561 . S
C240 C237 1.526 . S
C240 C241 1.396 . S
C240 C245 1.390 . S
C241 C235 1.465 . S
C241 C240 1.396 . S
C241 C242 1.399 . S
C242 H228 0.929 . S
C242 C241 1.399 . S
C242 C243 1.385 . S
C243 H229 0.931 . S
C243 C242 1.385 . S
C243 C244 1.389 . S
C244 C243 1.389 . S
C244 C245 1.387 . S
C245 H230 0.930 . S
C245 C240 1.390 . S
C245 C244 1.387 . S
H246 C258 0.930 . S
H247 C260 0.930 . S
H248 C261 0.930 . S
H249 C265 0.959 . S
H250 C265 0.959 . S
H251 C265 0.961 1_556 S
H252 C266 0.960 1_556 S
H253 C266 0.961 . S
H254 C266 0.959 . S
H255 C269 0.929 . S
H256 C270 0.931 . S
H257 C272 0.930 . S
C258 H246 0.930 . S
C258 C259 1.399 . S
C258 C263 1.399 . S
C259 C258 1.399 . S
C259 C260 1.376 . S
C260 H247 0.930 . S
C260 C259 1.376 . S
C260 C261 1.388 . S
C261 H248 0.930 . S
C261 C260 1.388 . S
C261 C262 1.390 . S
C262 C261 1.390 . S
C262 C263 1.394 . S
C262 C268 1.465 1_556 S
C263 C258 1.399 . S
C263 C262 1.394 . S
C263 C264 1.516 1_556 S
C264 C263 1.516 1_554 S
C264 C265 1.502 . S
C264 C266 1.561 . S
C264 C267 1.526 . S
C265 H249 0.959 . S
C265 H250 0.959 . S
C265 H251 0.961 1_554 S
C265 C264 1.502 . S
C266 H252 0.960 1_554 S
C266 H253 0.961 . S
C266 H254 0.959 . S
C266 C264 1.561 . S
C267 C264 1.526 . S
C267 C268 1.396 . S
C267 C272 1.390 . S
C268 C262 1.465 1_554 S
C268 C267 1.396 . S
C268 C269 1.399 . S
C269 H255 0.929 . S
C269 C268 1.399 . S
C269 C270 1.385 . S
C270 H256 0.931 . S
C270 C269 1.385 . S
C270 C271 1.389 . S
C271 C270 1.389 . S
C271 C272 1.387 . S
C272 H257 0.930 . S
C272 C267 1.390 . S
C272 C271 1.387 . S
H273 C285 0.930 . S
H274 C287 0.930 . S
H275 C288 0.930 . S
H276 C292 0.959 . S
H277 C292 0.959 . S
H278 C292 0.961 . S
H279 C293 0.960 . S
H280 C293 0.961 . S
H281 C293 0.959 . S
H282 C296 0.929 . S
H283 C297 0.931 . S
H284 C299 0.930 . S
C285 H273 0.930 . S
C285 C286 1.399 . S
C285 C290 1.399 . S
C286 C285 1.399 . S
C286 C287 1.376 . S
C287 H274 0.930 . S
C287 C286 1.376 . S
C287 C288 1.388 . S
C288 H275 0.930 . S
C288 C287 1.388 . S
C288 C289 1.390 . S
C289 C288 1.390 . S
C289 C290 1.394 . S
C289 C295 1.465 . S
C290 C285 1.399 . S
C290 C289 1.394 . S
C290 C291 1.516 . S
C291 C290 1.516 . S
C291 C292 1.502 . S
C291 C293 1.561 . S
C291 C294 1.526 . S
C292 H276 0.959 . S
C292 H277 0.959 . S
C292 H278 0.961 . S
C292 C291 1.502 . S
C293 H279 0.960 . S
C293 H280 0.961 . S
C293 H281 0.959 . S
C293 C291 1.561 . S
C294 C291 1.526 . S
C294 C295 1.396 . S
C294 C299 1.390 . S
C295 C289 1.465 . S
C295 C294 1.396 . S
C295 C296 1.399 . S
C296 H282 0.929 . S
C296 C295 1.399 . S
C296 C297 1.385 . S
C297 H283 0.931 . S
C297 C296 1.385 . S
C297 C298 1.389 . S
C298 C297 1.389 . S
C298 C299 1.387 . S
C299 H284 0.930 . S
C299 C294 1.390 . S
C299 C298 1.387 . S
H300 C312 0.930 . S
H301 C314 0.930 . S
H302 C315 0.930 . S
H303 C319 0.959 . S
H304 C319 0.959 . S
H305 C319 0.961 . S
H306 C320 0.960 . S
H307 C320 0.961 . S
H308 C320 0.959 . S
H309 C323 0.929 . S
H310 C324 0.931 . S
H311 C326 0.930 . S
C312 H300 0.930 . S
C312 C313 1.399 . S
C312 C317 1.399 . S
C313 C312 1.399 . S
C313 C314 1.376 . S
C314 H301 0.930 . S
C314 C313 1.376 . S
C314 C315 1.388 . S
C315 H302 0.930 . S
C315 C314 1.388 . S
C315 C316 1.390 . S
C316 C315 1.390 . S
C316 C317 1.394 . S
C316 C322 1.465 . S
C317 C312 1.399 . S
C317 C316 1.394 . S
C317 C318 1.516 . S
C318 C317 1.516 . S
C318 C319 1.502 . S
C318 C320 1.561 . S
C318 C321 1.526 . S
C319 H303 0.959 . S
C319 H304 0.959 . S
C319 H305 0.961 . S
C319 C318 1.502 . S
C320 H306 0.960 . S
C320 H307 0.961 . S
C320 H308 0.959 . S
C320 C318 1.561 . S
C321 C318 1.526 . S
C321 C322 1.396 . S
C321 C326 1.390 . S
C322 C316 1.465 . S
C322 C321 1.396 . S
C322 C323 1.399 . S
C323 H309 0.929 . S
C323 C322 1.399 . S
C323 C324 1.385 . S
C324 H310 0.931 . S
C324 C323 1.385 . S
C324 C325 1.389 . S
C325 C324 1.389 . S
C325 C326 1.387 . S
C326 H311 0.930 . S
C326 C321 1.390 . S
C326 C325 1.387 . S
H327 C339 0.930 . S
H328 C341 0.930 . S
H329 C342 0.930 . S
H330 C346 0.959 . S
H331 C346 0.959 . S
H332 C346 0.961 1_556 S
H333 C347 0.960 1_556 S
H334 C347 0.961 . S
H335 C347 0.959 . S
H336 C350 0.929 . S
H337 C351 0.931 . S
H338 C353 0.930 . S
C339 H327 0.930 . S
C339 C340 1.399 . S
C339 C344 1.399 . S
C340 C339 1.399 . S
C340 C341 1.376 . S
C341 H328 0.930 . S
C341 C340 1.376 . S
C341 C342 1.388 . S
C342 H329 0.930 . S
C342 C341 1.388 . S
C342 C343 1.390 . S
C343 C342 1.390 . S
C343 C344 1.394 . S
C343 C349 1.465 1_556 S
C344 C339 1.399 . S
C344 C343 1.394 . S
C344 C345 1.516 1_556 S
C345 C344 1.516 1_554 S
C345 C346 1.502 . S
C345 C347 1.561 . S
C345 C348 1.526 . S
C346 H330 0.959 . S
C346 H331 0.959 . S
C346 H332 0.961 1_554 S
C346 C345 1.502 . S
C347 H333 0.960 1_554 S
C347 H334 0.961 . S
C347 H335 0.959 . S
C347 C345 1.561 . S
C348 C345 1.526 . S
C348 C349 1.396 . S
C348 C353 1.390 . S
C349 C343 1.465 1_554 S
C349 C348 1.396 . S
C349 C350 1.399 . S
C350 H336 0.929 . S
C350 C349 1.399 . S
C350 C351 1.385 . S
C351 H337 0.931 . S
C351 C350 1.385 . S
C351 C352 1.389 . S
C352 C351 1.389 . S
C352 C353 1.387 . S
C353 H338 0.930 . S
C353 C348 1.390 . S
C353 C352 1.387 . S
H354 C366 0.930 . S
H355 C368 0.930 . S
H356 C369 0.930 . S
H357 C373 0.959 . S
H358 C373 0.959 . S
H359 C373 0.961 . S
H360 C374 0.960 . S
H361 C374 0.961 . S
H362 C374 0.959 . S
H363 C377 0.929 . S
H364 C378 0.931 . S
H365 C380 0.930 . S
C366 H354 0.930 . S
C366 C367 1.399 . S
C366 C371 1.399 . S
C367 C366 1.399 . S
C367 C368 1.376 . S
C368 H355 0.930 . S
C368 C367 1.376 . S
C368 C369 1.388 . S
C369 H356 0.930 . S
C369 C368 1.388 . S
C369 C370 1.390 . S
C370 C369 1.390 . S
C370 C371 1.394 . S
C370 C376 1.465 . S
C371 C366 1.399 . S
C371 C370 1.394 . S
C371 C372 1.516 . S
C372 C371 1.516 . S
C372 C373 1.502 . S
C372 C374 1.561 . S
C372 C375 1.526 . S
C373 H357 0.959 . S
C373 H358 0.959 . S
C373 H359 0.961 . S
C373 C372 1.502 . S
C374 H360 0.960 . S
C374 H361 0.961 . S
C374 H362 0.959 . S
C374 C372 1.561 . S
C375 C372 1.526 . S
C375 C376 1.396 . S
C375 C380 1.390 . S
C376 C370 1.465 . S
C376 C375 1.396 . S
C376 C377 1.399 . S
C377 H363 0.929 . S
C377 C376 1.399 . S
C377 C378 1.385 . S
C378 H364 0.931 . S
C378 C377 1.385 . S
C378 C379 1.389 . S
C379 C378 1.389 . S
C379 C380 1.387 . S
C380 H365 0.930 . S
C380 C375 1.390 . S
C380 C379 1.387 . S
H381 C393 0.930 . S
H382 C395 0.930 . S
H383 C396 0.930 . S
H384 C400 0.959 . S
H385 C400 0.959 . S
H386 C400 0.961 . S
H387 C401 0.960 . S
H388 C401 0.961 . S
H389 C401 0.959 . S
H390 C404 0.929 . S
H391 C405 0.931 . S
H392 C407 0.930 . S
C393 H381 0.930 . S
C393 C394 1.399 . S
C393 C398 1.399 . S
C394 C393 1.399 . S
C394 C395 1.376 . S
C395 H382 0.930 . S
C395 C394 1.376 . S
C395 C396 1.388 . S
C396 H383 0.930 . S
C396 C395 1.388 . S
C396 C397 1.390 . S
C397 C396 1.390 . S
C397 C398 1.394 . S
C397 C403 1.465 . S
C398 C393 1.399 . S
C398 C397 1.394 . S
C398 C399 1.516 . S
C399 C398 1.516 . S
C399 C400 1.502 . S
C399 C401 1.561 . S
C399 C402 1.526 . S
C400 H384 0.959 . S
C400 H385 0.959 . S
C400 H386 0.961 . S
C400 C399 1.502 . S
C401 H387 0.960 . S
C401 H388 0.961 . S
C401 H389 0.959 . S
C401 C399 1.561 . S
C402 C399 1.526 . S
C402 C403 1.396 . S
C402 C407 1.390 . S
C403 C397 1.465 . S
C403 C402 1.396 . S
C403 C404 1.399 . S
C404 H390 0.929 . S
C404 C403 1.399 . S
C404 C405 1.385 . S
C405 H391 0.931 . S
C405 C404 1.385 . S
C405 C406 1.389 . S
C406 C405 1.389 . S
C406 C407 1.387 . S
C407 H392 0.930 . S
C407 C402 1.390 . S
C407 C406 1.387 . S
C97 C7 1.164 . S
C109 C49 1.188 . S
C124 C21 1.165 . S
C136 C63 1.195 . S
C151 C35 1.164 . S
C163 C77 1.189 . S
C178 C22 1.756 . S
C190 C64 1.737 . S
C205 C78 1.761 . S
C217 C36 1.734 . S
C232 C50 1.754 . S
C244 C8 1.779 . S
C259 C34 1.363 . S
C271 C9 1.331 . S
C286 C48 1.367 . S
C298 C23 1.234 . S
C313 C37 1.244 . S
C325 C62 1.367 . S
C340 C76 1.368 . S
C352 C51 1.218 . S
C367 C65 1.328 . S
C379 C6 1.364 . S
C394 C79 1.223 . S
C406 C20 1.368 . S
