# Generated by pormake.
# Topology zfd, (5)-cn, num edge types: 1
# Building blocks:
#     Node 0, Type 0, BuildingBlock: XOMCOT_clean_sbu_1, # of connection points: 5
#     Node 1, Type 0, BuildingBlock: XOMCOT_clean_sbu_1, # of connection points: 5
#     Node 2, Type 0, BuildingBlock: XOMCOT_clean_sbu_1, # of connection points: 5
#     Node 3, Type 0, BuildingBlock: XOMCOT_clean_sbu_1, # of connection points: 5
#     Node 4, Type 0, BuildingBlock: XOMCOT_clean_sbu_1, # of connection points: 5
#     Node 5, Type 0, BuildingBlock: XOMCOT_clean_sbu_1, # of connection points: 5
#     Node 6, Type 0, BuildingBlock: XOMCOT_clean_sbu_1, # of connection points: 5
#     Node 7, Type 0, BuildingBlock: XOMCOT_clean_sbu_1, # of connection points: 5
#     Node 8, Type 0, BuildingBlock: XOMCOT_clean_sbu_1, # of connection points: 5
#     Node 9, Type 0, BuildingBlock: XOMCOT_clean_sbu_1, # of connection points: 5
#     Node 10, Type 0, BuildingBlock: XOMCOT_clean_sbu_1, # of connection points: 5
#     Node 11, Type 0, BuildingBlock: XOMCOT_clean_sbu_1, # of connection points: 5
#     Node 12, Type 0, BuildingBlock: XOMCOT_clean_sbu_1, # of connection points: 5
#     Node 13, Type 0, BuildingBlock: XOMCOT_clean_sbu_1, # of connection points: 5
#     Node 14, Type 0, BuildingBlock: XOMCOT_clean_sbu_1, # of connection points: 5
#     Node 15, Type 0, BuildingBlock: XOMCOT_clean_sbu_1, # of connection points: 5
#     Edge 16, Type (0, 0), BuildingBlock: TEMPAE_clean_linker_10, # of connection points: 2
#     Edge 17, Type (0, 0), BuildingBlock: TEMPAE_clean_linker_10, # of connection points: 2
#     Edge 18, Type (0, 0), BuildingBlock: TEMPAE_clean_linker_10, # of connection points: 2
#     Edge 19, Type (0, 0), BuildingBlock: TEMPAE_clean_linker_10, # of connection points: 2
#     Edge 20, Type (0, 0), BuildingBlock: TEMPAE_clean_linker_10, # of connection points: 2
#     Edge 21, Type (0, 0), BuildingBlock: TEMPAE_clean_linker_10, # of connection points: 2
#     Edge 22, Type (0, 0), BuildingBlock: TEMPAE_clean_linker_10, # of connection points: 2
#     Edge 23, Type (0, 0), BuildingBlock: TEMPAE_clean_linker_10, # of connection points: 2
#     Edge 24, Type (0, 0), BuildingBlock: TEMPAE_clean_linker_10, # of connection points: 2
#     Edge 25, Type (0, 0), BuildingBlock: TEMPAE_clean_linker_10, # of connection points: 2
#     Edge 26, Type (0, 0), BuildingBlock: TEMPAE_clean_linker_10, # of connection points: 2
#     Edge 27, Type (0, 0), BuildingBlock: TEMPAE_clean_linker_10, # of connection points: 2
#     Edge 28, Type (0, 0), BuildingBlock: TEMPAE_clean_linker_10, # of connection points: 2
#     Edge 29, Type (0, 0), BuildingBlock: TEMPAE_clean_linker_10, # of connection points: 2
#     Edge 30, Type (0, 0), BuildingBlock: TEMPAE_clean_linker_10, # of connection points: 2
#     Edge 31, Type (0, 0), BuildingBlock: TEMPAE_clean_linker_10, # of connection points: 2
#     Edge 32, Type (0, 0), BuildingBlock: TEMPAE_clean_linker_10, # of connection points: 2
#     Edge 33, Type (0, 0), BuildingBlock: TEMPAE_clean_linker_10, # of connection points: 2
#     Edge 34, Type (0, 0), BuildingBlock: TEMPAE_clean_linker_10, # of connection points: 2
#     Edge 35, Type (0, 0), BuildingBlock: TEMPAE_clean_linker_10, # of connection points: 2
#     Edge 36, Type (0, 0), BuildingBlock: TEMPAE_clean_linker_10, # of connection points: 2
#     Edge 37, Type (0, 0), BuildingBlock: TEMPAE_clean_linker_10, # of connection points: 2
#     Edge 38, Type (0, 0), BuildingBlock: TEMPAE_clean_linker_10, # of connection points: 2
#     Edge 39, Type (0, 0), BuildingBlock: TEMPAE_clean_linker_10, # of connection points: 2
#     Edge 40, Type (0, 0), BuildingBlock: TEMPAE_clean_linker_10, # of connection points: 2
#     Edge 41, Type (0, 0), BuildingBlock: TEMPAE_clean_linker_10, # of connection points: 2
#     Edge 42, Type (0, 0), BuildingBlock: TEMPAE_clean_linker_10, # of connection points: 2
#     Edge 43, Type (0, 0), BuildingBlock: TEMPAE_clean_linker_10, # of connection points: 2
#     Edge 44, Type (0, 0), BuildingBlock: TEMPAE_clean_linker_10, # of connection points: 2
#     Edge 45, Type (0, 0), BuildingBlock: TEMPAE_clean_linker_10, # of connection points: 2
#     Edge 46, Type (0, 0), BuildingBlock: TEMPAE_clean_linker_10, # of connection points: 2
#     Edge 47, Type (0, 0), BuildingBlock: TEMPAE_clean_linker_10, # of connection points: 2
#     Edge 48, Type (0, 0), BuildingBlock: TEMPAE_clean_linker_10, # of connection points: 2
#     Edge 49, Type (0, 0), BuildingBlock: TEMPAE_clean_linker_10, # of connection points: 2
#     Edge 50, Type (0, 0), BuildingBlock: TEMPAE_clean_linker_10, # of connection points: 2
#     Edge 51, Type (0, 0), BuildingBlock: TEMPAE_clean_linker_10, # of connection points: 2
#     Edge 52, Type (0, 0), BuildingBlock: TEMPAE_clean_linker_10, # of connection points: 2
#     Edge 53, Type (0, 0), BuildingBlock: TEMPAE_clean_linker_10, # of connection points: 2
#     Edge 54, Type (0, 0), BuildingBlock: TEMPAE_clean_linker_10, # of connection points: 2
#     Edge 55, Type (0, 0), BuildingBlock: TEMPAE_clean_linker_10, # of connection points: 2
# Relax obj value: 0.222
# Max RMSD: 0.192
# Mean RMSD: 0.192
data_MOF--net-zfd--node1-XOMCOT_clean_sbu_1--edge1-TEMPAE_clean_linker_10
_symmetry_space_group_name_H-M    P1
_symmetry_Int_Tables_number       1
_symmetry_cell_setting            triclinic
loop_
_symmetry_equiv_pos_as_xyz
'x, y, z'
_cell_length_a     68.754519
_cell_length_b     68.634332
_cell_length_c     20.198996
_cell_angle_alpha  89.751484
_cell_angle_beta   89.819147
_cell_angle_gamma 90.041645
loop_
_atom_site_label
_atom_site_type_symbol
_atom_site_fract_x
_atom_site_fract_y
_atom_site_fract_z
_atom_type_partial_charge
C0 C 0.10746 0.23417 0.16145 0.0
C1 C 0.12352 0.23478 0.20138 0.0
N2 N 0.13683 0.22241 0.17652 0.0
N3 N 0.11062 0.22138 0.11222 0.0
C4 C 0.12854 0.21428 0.12286 0.0
H5 H 0.09463 0.24316 0.1661 0.0
Co6 Co 0.09471 0.22052 0.04072 0.0
C7 C 0.11147 0.19322 0.93772 0.0
O8 O 0.10641 0.20676 0.895 0.0
N9 N 0.07764 0.2204 0.97031 0.0
C10 C 0.05484 0.20979 0.90209 0.0
C11 C 0.06753 0.20455 0.95106 0.0
C12 C 0.07057 0.23519 0.93348 0.0
N13 N 0.05668 0.2291 0.89147 0.0
O14 O 0.0752 0.20544 0.09521 0.0
H15 H 0.06911 0.19014 0.97219 0.0
H16 H 0.07465 0.25025 0.9395 0.0
O17 O 0.10825 0.19607 1.00054 0.0
C18 C 0.06163 0.21666 0.1175 0.0
O19 O 0.06165 0.23484 0.09676 0.0
N20 N 0.11281 0.23763 0.99687 0.0
C21 C 0.14197 0.26639 0.98583 0.0
C22 C 0.14609 0.24674 0.97361 0.0
C23 C 0.13149 0.23264 0.98016 0.0
C24 C 0.10838 0.25685 1.00595 0.0
C25 C 0.12261 0.27145 0.99981 0.0
H26 H 0.13612 0.21771 0.97884 0.0
H27 H 0.09418 0.26078 1.02468 0.0
H28 H 0.13574 0.20418 0.08995 0.0
H29 H 0.12525 0.24364 0.24516 0.0
H30 H 0.04478 0.20019 0.87717 0.0
H31 H 0.16083 0.24208 0.96305 0.0
H32 H 0.11878 0.28637 1.01117 0.0
C33 C 0.77771 0.12196 0.1609 0.0
C34 C 0.78167 0.12479 0.22682 0.0
N35 N 0.80044 0.1203 0.23641 0.0
N36 N 0.79415 0.11639 0.12923 0.0
C37 C 0.80777 0.11566 0.17672 0.0
H38 H 0.76343 0.1226 0.1389 0.0
Co39 Co 0.79558 0.10406 0.04851 0.0
C40 C 0.82264 0.12626 0.95809 0.0
O41 O 0.80837 0.12463 0.91546 0.0
N42 N 0.79697 0.09048 0.96884 0.0
C43 C 0.81059 0.07184 0.89222 0.0
C44 C 0.81355 0.08153 0.95022 0.0
C45 C 0.78402 0.08583 0.92123 0.0
N46 N 0.79197 0.07451 0.87372 0.0
O47 O 0.81005 0.08221 0.09377 0.0
H48 H 0.82698 0.08176 0.97795 0.0
H49 H 0.76901 0.09021 0.92158 0.0
O50 O 0.82038 0.1192 1.01768 0.0
C51 C 0.79798 0.0698 0.11887 0.0
O52 O 0.77948 0.07227 0.10495 0.0
N53 N 0.77905 0.124 1.01279 0.0
C54 C 0.7496 0.15249 1.00522 0.0
C55 C 0.7692 0.15779 1.01251 0.0
C56 C 0.78363 0.14339 1.01694 0.0
C57 C 0.76004 0.11866 1.00503 0.0
C58 C 0.74521 0.13261 0.99958 0.0
H59 H 0.79815 0.14792 0.02997 0.0
H60 H 0.75596 0.10353 1.01027 0.0
H61 H 0.82255 0.11079 0.16841 0.0
H62 H 0.77144 0.12886 0.26519 0.0
H63 H 0.82115 0.06262 0.86787 0.0
H64 H 0.77329 0.17293 1.01815 0.0
H65 H 0.73025 0.12775 0.99649 0.0
C66 C 0.90104 0.79242 0.16461 0.0
C67 C 0.89835 0.80385 0.21943 0.0
N68 N 0.90266 0.82233 0.20237 0.0
N69 N 0.9065 0.80384 0.11333 0.0
C70 C 0.90739 0.82198 0.13775 0.0
H71 H 0.9002 0.77669 0.16309 0.0
Co72 Co 0.91763 0.79508 0.03726 0.0
C73 C 0.89352 0.81537 0.93006 0.0
O74 O 0.89068 0.79761 0.9081 0.0
N75 N 0.9303 0.78545 0.96237 0.0
C76 C 0.94482 0.78013 0.8658 0.0
C77 C 0.93225 0.79202 0.89957 0.0
C78 C 0.94277 0.77029 0.96614 0.0
N79 N 0.95141 0.76643 0.9079 0.0
O80 O 0.94164 0.81022 0.06119 0.0
H81 H 0.92645 0.80546 0.88019 0.0
H82 H 0.94619 0.76275 1.01175 0.0
O83 O 0.90467 0.81754 0.9815 0.0
C84 C 0.95207 0.80057 0.10324 0.0
O85 O 0.94632 0.78293 0.1194 0.0
N86 N 0.8955 0.77823 1.02383 0.0
C87 C 0.86501 0.75074 0.03236 0.0
C88 C 0.86123 0.77086 0.03574 0.0
C89 C 0.87666 0.78432 0.03212 0.0
C90 C 0.89927 0.75872 1.02062 0.0
C91 C 0.88436 0.74491 1.02314 0.0
H92 H 0.87354 0.79961 0.03909 0.0
H93 H 0.91394 0.75342 1.0202 0.0
H94 H 0.91225 0.83452 0.10947 0.0
H95 H 0.89432 0.7989 0.26856 0.0
H96 H 0.95025 0.78261 0.81609 0.0
H97 H 0.84662 0.77617 0.04429 0.0
H98 H 0.88819 0.72964 1.01987 0.0
C99 C 0.22225 0.90748 0.14755 0.0
C100 C 0.22051 0.88942 0.17633 0.0
N101 N 0.21082 0.87779 0.13412 0.0
N102 N 0.21351 0.9072 0.08803 0.0
C103 C 0.20637 0.88907 0.08165 0.0
H104 H 0.23048 0.91962 0.16671 0.0
Co105 Co 0.21836 0.92536 1.02428 0.0
C106 C 0.19613 0.91312 0.90078 0.0
O107 O 0.2113 0.91952 0.86748 0.0
N108 N 0.22392 0.9444 0.96232 0.0
C109 C 0.21962 0.97187 0.90643 0.0
C110 C 0.21045 0.95639 0.93592 0.0
C111 C 0.24118 0.95294 0.94873 0.0
N112 N 0.2389 0.96975 0.91539 0.0
O113 O 0.20158 0.94466 0.07253 0.0
H114 H 0.19489 0.95457 0.94129 0.0
H115 H 0.25503 0.94797 0.96707 0.0
O116 O 0.19623 0.91454 0.96485 0.0
C117 C 0.21235 0.95675 0.10486 0.0
O118 O 0.23129 0.95467 0.10009 0.0
N119 N 0.2369 0.90763 0.98743 0.0
C120 C 0.26609 0.87876 0.98194 0.0
C121 C 0.24764 0.87565 0.95393 0.0
C122 C 0.23331 0.89019 0.95709 0.0
C123 C 0.25488 0.91104 1.01331 0.0
C124 C 0.26973 0.89719 1.0094 0.0
H125 H 0.21894 0.88632 0.94091 0.0
H126 H 0.25733 0.92402 0.04217 0.0
H127 H 0.19934 0.88384 0.03741 0.0
H128 H 0.22623 0.88513 0.22407 0.0
H129 H 0.21264 0.98406 0.88202 0.0
H130 H 0.24368 0.86163 0.9337 0.0
H131 H 0.28368 0.90073 0.0308 0.0
C132 C 0.10184 0.78104 0.39693 0.0
C133 C 0.11583 0.78163 0.34838 0.0
N134 N 0.12836 0.79602 0.36335 0.0
N135 N 0.1056 0.79501 0.44174 0.0
C136 C 0.12175 0.80397 0.42006 0.0
H137 H 0.08995 0.77077 0.40046 0.0
Co138 Co 0.09194 0.7971 0.51843 0.0
C139 C 0.11394 0.82299 0.61312 0.0
O140 O 0.11079 0.80889 0.65601 0.0
N141 N 0.07718 0.79885 0.59511 0.0
C142 C 0.05944 0.81266 0.67367 0.0
C143 C 0.06989 0.81589 0.61707 0.0
C144 C 0.07036 0.78533 0.63796 0.0
N145 N 0.05955 0.79337 0.6866 0.0
O146 O 0.07191 0.81294 0.46936 0.0
H147 H 0.07208 0.82986 0.59323 0.0
H148 H 0.07245 0.76986 0.63222 0.0
O149 O 0.10782 0.82099 0.55249 0.0
C150 C 0.05769 0.80211 0.44978 0.0
O151 O 0.05741 0.784 0.47117 0.0
N152 N 0.11027 0.77919 0.55664 0.0
C153 C 0.13741 0.7483 0.56163 0.0
C154 C 0.14348 0.7678 0.5646 0.0
C155 C 0.12983 0.78293 0.56075 0.0
C156 C 0.10409 0.76027 0.5555 0.0
C157 C 0.1173 0.7447 0.55875 0.0
H158 H 0.13543 0.79748 0.55431 0.0
H159 H 0.08899 0.75713 0.54546 0.0
H160 H 0.12895 0.81554 0.4467 0.0
H161 H 0.11664 0.77231 0.30537 0.0
H162 H 0.05206 0.82373 0.70219 0.0
H163 H 0.1588 0.77146 0.56441 0.0
H164 H 0.1118 0.72994 0.55571 0.0
C165 C 0.22587 0.11269 0.39881 0.0
C166 C 0.22538 0.1305 0.36796 0.0
N167 N 0.21543 0.14283 0.40708 0.0
N168 N 0.21616 0.11383 0.45664 0.0
C169 C 0.20956 0.13225 0.45975 0.0
H170 H 0.23413 0.10017 0.38276 0.0
Co171 Co 0.22055 0.09626 0.52242 0.0
C172 C 0.19666 0.108 0.64309 0.0
O173 O 0.2115 0.10192 0.67832 0.0
N174 N 0.22588 0.07769 0.58599 0.0
C175 C 0.22194 0.05017 0.64203 0.0
C176 C 0.21255 0.06516 0.61073 0.0
C177 C 0.24328 0.06998 0.60248 0.0
N178 N 0.24122 0.05316 0.63594 0.0
O179 O 0.20445 0.07639 0.4738 0.0
H180 H 0.19703 0.06628 0.603 0.0
H181 H 0.25716 0.07553 0.58609 0.0
O182 O 0.1976 0.1068 0.57899 0.0
C183 C 0.21533 0.06392 0.44355 0.0
O184 O 0.23425 0.06571 0.45041 0.0
N185 N 0.23827 0.11475 0.56031 0.0
C186 C 0.26609 0.14503 0.56857 0.0
C187 C 0.24715 0.14728 0.59411 0.0
C188 C 0.23357 0.13207 0.58976 0.0
C189 C 0.2567 0.11214 0.53676 0.0
C190 C 0.27087 0.12672 0.54203 0.0
H191 H 0.21888 0.13535 0.60411 0.0
H192 H 0.26012 0.09917 0.5089 0.0
H193 H 0.20203 0.13821 0.50213 0.0
H194 H 0.23222 0.1342 0.32123 0.0
H195 H 0.21516 0.0377 0.66562 0.0
H196 H 0.24225 0.16112 0.61337 0.0
H197 H 0.28523 0.12376 0.52258 0.0
C198 C 0.90391 0.21608 0.40706 0.0
C199 C 0.89619 0.20009 0.37605 0.0
N200 N 0.89835 0.18452 0.41641 0.0
N201 N 0.91064 0.2105 0.46663 0.0
C202 C 0.90736 0.19123 0.47057 0.0
H203 H 0.90413 0.23089 0.3885 0.0
Co204 Co 0.92213 0.22559 0.52891 0.0
C205 C 0.91794 0.19915 0.65352 0.0
O206 O 0.93655 0.20077 0.66702 0.0
N207 N 0.93394 0.24113 0.59128 0.0
C208 C 0.94008 0.25956 0.67839 0.0
C209 C 0.9272 0.24658 0.65109 0.0
C210 C 0.95052 0.25125 0.58254 0.0
N211 N 0.9548 0.26252 0.63508 0.0
O212 O 0.94686 0.21091 0.51318 0.0
H213 H 0.91381 0.24146 0.67336 0.0
H214 H 0.95931 0.25029 0.53832 0.0
O215 O 0.91134 0.20776 0.60152 0.0
C216 C 0.95504 0.21753 0.45985 0.0
O217 O 0.94669 0.23222 0.42934 0.0
N218 N 0.89954 0.24128 0.53404 0.0
C219 C 0.86837 0.26765 0.5222 0.0
C220 C 0.86517 0.24796 0.53979 0.0
C221 C 0.88097 0.23501 0.54572 0.0
C222 C 0.90288 0.26018 0.51649 0.0
C223 C 0.88773 0.2736 0.51212 0.0
H224 H 0.87823 0.21985 0.55709 0.0
H225 H 0.91751 0.26492 0.50497 0.0
H226 H 0.91121 0.18234 0.51286 0.0
H227 H 0.88857 0.20016 0.32924 0.0
H228 H 0.93911 0.26551 0.72781 0.0
H229 H 0.8506 0.24237 0.54702 0.0
H230 H 0.89137 0.28856 0.50039 0.0
C231 C 0.80283 0.90854 0.39702 0.0
C232 C 0.81884 0.90718 0.35659 0.0
N233 N 0.83453 0.91328 0.39077 0.0
N234 N 0.80856 0.91512 0.4565 0.0
C235 C 0.82789 0.91776 0.45148 0.0
H236 H 0.7879 0.90591 0.38297 0.0
Co237 Co 0.79303 0.92544 0.52014 0.0
C238 C 0.81007 0.90888 0.65086 0.0
O239 O 0.79229 0.9082 0.67413 0.0
N240 N 0.77632 0.93691 0.58401 0.0
C241 C 0.75229 0.94314 0.65584 0.0
C242 C 0.76192 0.92887 0.62145 0.0
C243 C 0.77459 0.9562 0.59561 0.0
N244 N 0.76013 0.96025 0.63819 0.0
O245 O 0.80636 0.95104 0.50269 0.0
H246 H 0.75853 0.91352 0.62459 0.0
H247 H 0.78384 0.96732 0.57442 0.0
O248 O 0.81276 0.91598 0.59195 0.0
C249 C 0.79901 0.95922 0.45064 0.0
O250 O 0.78415 0.95064 0.42231 0.0
N251 N 0.7787 0.9018 0.52426 0.0
C252 C 0.75301 0.87008 0.51221 0.0
C253 C 0.77172 0.86765 0.53958 0.0
C254 C 0.78448 0.88368 0.54437 0.0
C255 C 0.76099 0.90419 0.49512 0.0
C256 C 0.74787 0.88877 0.48991 0.0
H257 H 0.79903 0.88136 0.56274 0.0
H258 H 0.75688 0.91842 0.47669 0.0
H259 H 0.83671 0.92397 0.49035 0.0
H260 H 0.8189 0.90206 0.30599 0.0
H261 H 0.74055 0.94117 0.6911 0.0
H262 H 0.77666 0.85344 0.55572 0.0
H263 H 0.73367 0.89166 0.46902 0.0
C264 C 0.60738 0.73958 0.66108 0.0
C265 C 0.62139 0.74149 0.70867 0.0
N266 N 0.63425 0.72691 0.70082 0.0
N267 N 0.61137 0.72386 0.62375 0.0
C268 C 0.62762 0.7162 0.64957 0.0
H269 H 0.59566 0.74969 0.65143 0.0
Co270 Co 0.59873 0.72048 0.54581 0.0
C271 C 0.62008 0.69221 0.45803 0.0
O272 O 0.61804 0.7059 0.41308 0.0
N273 N 0.58492 0.71786 0.46769 0.0
C274 C 0.56725 0.70386 0.38966 0.0
C275 C 0.57496 0.70163 0.4516 0.0
C276 C 0.58285 0.72985 0.41508 0.0
N277 N 0.57236 0.72159 0.36642 0.0
O278 O 0.57755 0.70625 0.59595 0.0
H279 H 0.57359 0.68884 0.48273 0.0
H280 H 0.58905 0.74421 0.41173 0.0
O281 O 0.61381 0.69532 0.51817 0.0
C282 C 0.56303 0.71727 0.61149 0.0
O283 O 0.56278 0.73492 0.586 0.0
N284 N 0.61845 0.73673 0.50611 0.0
C285 C 0.6476 0.76554 0.49129 0.0
C286 C 0.65237 0.74572 0.49687 0.0
C287 C 0.63776 0.73171 0.50519 0.0
C288 C 0.61353 0.75595 0.50071 0.0
C289 C 0.62773 0.77047 0.49187 0.0
H290 H 0.64235 0.71711 0.51696 0.0
H291 H 0.59853 0.76027 0.5076 0.0
H292 H 0.63478 0.70351 0.62939 0.0
H293 H 0.62243 0.75318 0.74426 0.0
H294 H 0.55799 0.69345 0.36492 0.0
H295 H 0.66739 0.74107 0.49969 0.0
H296 H 0.62313 0.78551 0.48813 0.0
C297 C 0.27564 0.60612 0.65453 0.0
C298 C 0.275 0.62042 0.70167 0.0
N299 N 0.28774 0.63439 0.68383 0.0
N300 N 0.28882 0.61104 0.60789 0.0
C301 C 0.29612 0.62822 0.62716 0.0
H302 H 0.26642 0.59337 0.6525 0.0
Co303 Co 0.29007 0.59782 0.53047 0.0
C304 C 0.31605 0.61918 0.43211 0.0
O305 O 0.30187 0.61593 0.39019 0.0
N306 N 0.29052 0.58342 0.45324 0.0
C307 C 0.30177 0.56449 0.37337 0.0
C308 C 0.3065 0.57437 0.42979 0.0
C309 C 0.27617 0.57856 0.41097 0.0
N310 N 0.28267 0.56716 0.36149 0.0
O311 O 0.30614 0.57724 0.57679 0.0
H312 H 0.32066 0.57473 0.45294 0.0
H313 H 0.26119 0.58285 0.41669 0.0
O314 O 0.314 0.61349 0.49348 0.0
C315 C 0.29611 0.56223 0.59532 0.0
O316 O 0.27808 0.56107 0.57436 0.0
N317 N 0.27211 0.61658 0.49543 0.0
C318 C 0.2415 0.64404 0.49467 0.0
C319 C 0.26092 0.64986 0.4854 0.0
C320 C 0.27597 0.63605 0.48707 0.0
C321 C 0.25325 0.61067 0.50292 0.0
C322 C 0.23781 0.62401 0.50172 0.0
H323 H 0.29065 0.64149 0.48821 0.0
H324 H 0.25021 0.59564 0.51551 0.0
H325 H 0.30702 0.63622 0.59942 0.0
H326 H 0.26557 0.62074 0.74465 0.0
H327 H 0.31143 0.55515 0.34549 0.0
H328 H 0.26468 0.66516 0.48202 0.0
H329 H 0.22314 0.61868 0.50932 0.0
C330 C 0.40137 0.306 0.65023 0.0
C331 C 0.39633 0.32228 0.68567 0.0
N332 N 0.40109 0.33819 0.64946 0.0
N333 N 0.40896 0.31177 0.59192 0.0
C334 C 0.4088 0.33132 0.59302 0.0
H335 H 0.39959 0.29099 0.66559 0.0
Co336 Co 0.41974 0.29707 0.52711 0.0
C337 C 0.41473 0.32404 0.40406 0.0
O338 O 0.43299 0.3215 0.38681 0.0
N339 N 0.4309 0.28193 0.46214 0.0
C340 C 0.43622 0.2638 0.37355 0.0
C341 C 0.42367 0.27676 0.40284 0.0
C342 C 0.44744 0.27166 0.46863 0.0
N343 N 0.45122 0.26056 0.41517 0.0
O344 O 0.44485 0.31135 0.54188 0.0
H345 H 0.41013 0.28202 0.38237 0.0
H346 H 0.45652 0.27231 0.51206 0.0
O347 O 0.40855 0.31576 0.45749 0.0
C348 C 0.45311 0.3044 0.59444 0.0
O349 O 0.44463 0.28969 0.62472 0.0
N350 N 0.397 0.28155 0.52298 0.0
C351 C 0.36619 0.25468 0.53446 0.0
C352 C 0.36275 0.27434 0.517 0.0
C353 C 0.37839 0.28756 0.5113 0.0
C354 C 0.40055 0.2627 0.54053 0.0
C355 C 0.3856 0.24905 0.54478 0.0
H356 H 0.37548 0.30267 0.49976 0.0
H357 H 0.41524 0.25818 0.55184 0.0
H358 H 0.4144 0.34032 0.55319 0.0
H359 H 0.38903 0.32235 0.73321 0.0
H360 H 0.43481 0.25799 0.32409 0.0
H361 H 0.34811 0.27966 0.5095 0.0
H362 H 0.38943 0.23414 0.55639 0.0
C363 C 0.72483 0.40556 0.65264 0.0
C364 C 0.72469 0.38764 0.68281 0.0
N365 N 0.7151 0.37519 0.6432 0.0
N366 N 0.71525 0.40438 0.59476 0.0
C367 C 0.70908 0.38582 0.59095 0.0
H368 H 0.73277 0.41823 0.66919 0.0
Co369 Co 0.71936 0.42221 0.52939 0.0
C370 C 0.69577 0.41012 0.40864 0.0
O371 O 0.71061 0.41644 0.37349 0.0
N372 N 0.72438 0.44101 0.46619 0.0
C373 C 0.7201 0.46835 0.40953 0.0
C374 C 0.7109 0.45321 0.44099 0.0
C375 C 0.74167 0.44912 0.4501 0.0
N376 N 0.73943 0.46583 0.41619 0.0
O377 O 0.70303 0.44168 0.579 0.0
H378 H 0.69538 0.45174 0.44832 0.0
H379 H 0.75558 0.4439 0.46707 0.0
O380 O 0.69659 0.41132 0.47277 0.0
C381 C 0.71383 0.45419 0.60931 0.0
O382 O 0.73275 0.45274 0.6015 0.0
N383 N 0.73743 0.40421 0.49084 0.0
C384 C 0.76594 0.37464 0.48293 0.0
C385 C 0.74717 0.37195 0.45681 0.0
C386 C 0.73323 0.38682 0.46098 0.0
C387 C 0.7557 0.40724 0.51481 0.0
C388 C 0.77021 0.39304 0.50963 0.0
H389 H 0.71866 0.38322 0.44627 0.0
H390 H 0.75871 0.42022 0.54312 0.0
H391 H 0.70176 0.37984 0.54835 0.0
H392 H 0.7315 0.38397 0.72945 0.0
H393 H 0.71312 0.48058 0.38534 0.0
H394 H 0.74267 0.35801 0.43731 0.0
H395 H 0.78443 0.39634 0.52943 0.0
C396 C 0.6066 0.2844 0.88781 0.0
C397 C 0.62273 0.28373 0.84787 0.0
N398 N 0.63591 0.29632 0.87203 0.0
N399 N 0.60961 0.29743 0.93638 0.0
C400 C 0.62748 0.30465 0.92523 0.0
H401 H 0.59387 0.27524 0.88381 0.0
Co402 Co 0.59371 0.29832 1.00832 0.0
C403 C 0.61115 0.32496 0.11191 0.0
O404 O 0.60611 0.31121 0.154 0.0
N405 N 0.57668 0.29855 0.07918 0.0
C406 C 0.55403 0.30962 0.14757 0.0
C407 C 0.5671 0.31464 0.09926 0.0
C408 C 0.56889 0.28382 0.11488 0.0
N409 N 0.55506 0.2902 0.1569 0.0
O410 O 0.57433 0.31376 0.95462 0.0
H411 H 0.56924 0.32909 0.07889 0.0
H412 H 0.57236 0.26864 0.10782 0.0
O413 O 0.60765 0.32251 0.0491 0.0
C414 C 0.56077 0.3026 0.93192 0.0
O415 O 0.56084 0.28433 0.95168 0.0
N416 N 0.61161 0.28085 0.05118 0.0
C417 C 0.64039 0.25166 0.05826 0.0
C418 C 0.64495 0.27122 0.07012 0.0
C419 C 0.63051 0.28554 0.06585 0.0
C420 C 0.6068 0.26169 0.04256 0.0
C421 C 0.62085 0.24687 0.04689 0.0
H422 H 0.63536 0.30041 0.06692 0.0
H423 H 0.59242 0.25797 1.02521 0.0
H424 H 0.63458 0.31491 0.95766 0.0
H425 H 0.62462 0.27464 0.8047 0.0
H426 H 0.5442 0.31944 0.17273 0.0
H427 H 0.65986 0.27564 0.07857 0.0
H428 H 0.6167 0.23201 0.03596 0.0
C429 C 0.72551 0.61141 0.91654 0.0
C430 C 0.72198 0.62932 0.88874 0.0
N431 N 0.70859 0.63826 0.92641 0.0
N432 N 0.71443 0.60939 0.97134 0.0
C433 C 0.70393 0.62584 0.97543 0.0
H434 H 0.73661 0.60122 0.90124 0.0
Co435 Co 0.72062 0.59161 0.03422 0.0
C436 C 0.69928 0.60272 0.16091 0.0
O437 O 0.71518 0.59715 0.1915 0.0
N438 N 0.72768 0.57283 0.09516 0.0
C439 C 0.72506 0.545 0.1503 0.0
C440 C 0.71498 0.56012 0.12252 0.0
C441 C 0.74542 0.56509 0.10668 0.0
N442 N 0.74414 0.5481 0.13947 0.0
O443 O 0.70434 0.57154 0.98774 0.0
H444 H 0.69932 0.5612 0.11882 0.0
H445 H 0.75892 0.57075 0.08733 0.0
O446 O 0.69857 0.60119 0.09689 0.0
C447 C 0.71521 0.56014 0.95289 0.0
O448 O 0.73408 0.56315 0.9546 0.0
N449 N 0.73839 0.61044 0.06919 0.0
C450 C 0.76572 0.6411 0.0744 0.0
C451 C 0.74692 0.64327 0.10078 0.0
C452 C 0.73345 0.62794 0.09706 0.0
C453 C 0.75669 0.60806 0.04414 0.0
C454 C 0.77061 0.6229 0.04757 0.0
H455 H 0.71867 0.63112 0.11089 0.0
H456 H 0.76008 0.59519 1.01583 0.0
H457 H 0.69441 0.62945 1.0163 0.0
H458 H 0.72908 0.63557 0.84568 0.0
H459 H 0.71886 0.53236 0.17478 0.0
H460 H 0.74211 0.65717 0.11996 0.0
H461 H 0.78486 0.62032 1.02641 0.0
C462 C 0.40833 0.73073 0.89484 0.0
C463 C 0.39406 0.7242 0.85338 0.0
N464 N 0.38503 0.70932 0.88391 0.0
N465 N 0.40797 0.72008 0.95111 0.0
C466 C 0.39371 0.70693 0.94279 0.0
H467 H 0.41713 0.7436 0.88723 0.0
Co468 Co 0.42057 0.72837 1.02452 0.0
C469 C 0.40138 0.70572 0.14073 0.0
O470 O 0.39977 0.72223 0.17236 0.0
N471 N 0.43418 0.73833 0.09838 0.0
C472 C 0.44348 0.75751 0.18188 0.0
C473 C 0.42792 0.75047 0.14699 0.0
C474 C 0.45368 0.73843 0.10532 0.0
N475 N 0.45957 0.75016 0.15425 0.0
O476 O 0.44403 0.7131 0.99334 0.0
H477 H 0.41307 0.75503 0.15507 0.0
H478 H 0.46374 0.73044 0.07478 0.0
O479 O 0.40923 0.7056 0.08209 0.0
C480 C 0.45494 0.72319 0.95356 0.0
O481 O 0.45077 0.74174 0.94603 0.0
N482 N 0.39895 0.74482 0.04225 0.0
C483 C 0.36883 0.7725 0.0325 0.0
C484 C 0.36479 0.75268 0.04521 0.0
C485 C 0.38002 0.7391 0.04992 0.0
C486 C 0.40312 0.76389 0.02941 0.0
C487 C 0.38848 0.77795 1.02655 0.0
H488 H 0.37641 0.72388 0.05558 0.0
H489 H 0.41801 0.76818 1.01987 0.0
H490 H 0.38839 0.69727 0.98127 0.0
H491 H 0.38962 0.73074 0.80696 0.0
H492 H 0.44311 0.76785 0.22218 0.0
H493 H 0.34998 0.74743 0.04842 0.0
H494 H 0.3927 0.79295 1.01825 0.0
C495 C 0.28145 0.40575 0.88583 0.0
C496 C 0.28865 0.40442 0.8225 0.0
N497 N 0.30765 0.40899 0.82446 0.0
N498 N 0.29607 0.41049 0.92726 0.0
C499 C 0.31186 0.41233 0.88844 0.0
H500 H 0.26632 0.40454 0.9001 0.0
Co501 Co 0.29271 0.42061 1.01002 0.0
C502 C 0.31788 0.3957 0.10131 0.0
O503 O 0.30186 0.39325 0.13594 0.0
N504 N 0.28865 0.43229 0.0919 0.0
C505 C 0.29312 0.44781 0.18675 0.0
C506 C 0.30155 0.43598 0.14048 0.0
C507 C 0.27293 0.44307 0.10801 0.0
N508 N 0.27504 0.4523 0.16625 0.0
O509 O 0.30703 0.44461 0.97847 0.0
H510 H 0.31673 0.432 0.13992 0.0
H511 H 0.26088 0.4455 0.07489 0.0
O512 O 0.31733 0.40649 0.04803 0.0
C513 C 0.29538 0.45659 0.94906 0.0
O514 O 0.27671 0.45251 0.95136 0.0
N515 N 0.2766 0.39844 0.03242 0.0
C516 C 0.24945 0.36755 0.03384 0.0
C517 C 0.2692 0.36416 1.02023 0.0
C518 C 0.28246 0.37975 1.01923 0.0
C519 C 0.25737 0.40186 0.04524 0.0
C520 C 0.24375 0.38671 0.04756 0.0
H521 H 0.29727 0.37692 1.00393 0.0
H522 H 0.25196 0.41646 0.04845 0.0
H523 H 0.32597 0.41691 0.90631 0.0
H524 H 0.28048 0.40111 0.77822 0.0
H525 H 0.30051 0.45423 0.22859 0.0
H526 H 0.2743 0.34965 1.00847 0.0
H527 H 0.22858 0.39024 0.05578 0.0
C528 C 0.15632 0.29975 0.96377 0.0
C529 C 0.15809 0.281 0.99108 0.0
C530 C 0.17135 0.31362 0.97 0.0
C531 C 0.18853 0.30878 1.00522 0.0
C532 C 0.19033 0.2899 0.03319 0.0
C533 C 0.17518 0.27628 1.02561 0.0
C534 C 0.16886 0.33349 0.93891 0.0
C535 C 0.20818 0.28413 0.07194 0.0
C536 C 0.23481 0.33862 0.97543 0.0
C537 C 0.2345 0.35172 0.02867 0.0
C538 C 0.22 0.32463 0.9672 0.0
C539 C 0.20451 0.32349 1.01358 0.0
C540 C 0.20432 0.33643 0.06812 0.0
C541 C 0.21922 0.35039 0.0748 0.0
C542 C 0.22075 0.31125 0.90812 0.0
C543 C 0.1883 0.3356 0.11933 0.0
H544 H 0.14322 0.30352 0.93691 0.0
H545 H 0.17656 0.26199 0.04816 0.0
H546 H 0.16945 0.34488 0.97767 0.0
H547 H 0.18095 0.33642 0.90376 0.0
H548 H 0.15486 0.33488 0.912 0.0
H549 H 0.20738 0.26889 0.0905 0.0
H550 H 0.22134 0.28567 0.04045 0.0
H551 H 0.21002 0.294 0.11483 0.0
H552 H 0.24635 0.33969 0.93892 0.0
H553 H 0.21891 0.36031 0.11639 0.0
H554 H 0.20757 0.31335 0.87734 0.0
H555 H 0.22082 0.29583 0.92481 0.0
H556 H 0.23381 0.31386 0.87675 0.0
H557 H 0.17406 0.33846 0.09551 0.0
H558 H 0.19044 0.34637 0.15955 0.0
H559 H 0.18755 0.32081 0.1416 0.0
C560 C 0.655 0.21847 0.08086 0.0
C561 C 0.65623 0.23686 0.0505 0.0
C562 C 0.66998 0.20458 0.07341 0.0
C563 C 0.68646 0.20898 0.03352 0.0
C564 C 0.68757 0.22742 1.00182 0.0
C565 C 0.67258 0.24111 1.01104 0.0
C566 C 0.66827 0.18526 0.10886 0.0
C567 C 0.7046 0.23269 0.9579 0.0
C568 C 0.73416 0.18146 0.06076 0.0
C569 C 0.73368 0.16733 1.01066 0.0
C570 C 0.71888 0.19491 0.06904 0.0
C571 C 0.7027 0.1945 1.02573 0.0
C572 C 0.70221 0.18039 0.9746 0.0
C573 C 0.71758 0.16691 0.96806 0.0
C574 C 0.71996 0.20946 0.12475 0.0
C575 C 0.68546 0.17959 0.92658 0.0
H576 H 0.64245 0.21507 0.11141 0.0
H577 H 0.67349 0.25513 0.98628 0.0
H578 H 0.66873 0.17318 0.07256 0.0
H579 H 0.6808 0.18327 0.14271 0.0
H580 H 0.65461 0.18405 0.13811 0.0
H581 H 0.70298 0.24733 0.9349 0.0
H582 H 0.71824 0.23248 0.98711 0.0
H583 H 0.70621 0.22175 0.91796 0.0
H584 H 0.74632 0.1817 0.09476 0.0
H585 H 0.71709 0.15611 0.92912 0.0
H586 H 0.70711 0.2078 0.15769 0.0
H587 H 0.71964 0.2245 0.10448 0.0
H588 H 0.73334 0.20771 0.15487 0.0
H589 H 0.67166 0.17696 0.95378 0.0
H590 H 0.68734 0.16795 0.88904 0.0
H591 H 0.684 0.19379 0.9006 0.0
C592 C 0.78033 0.67223 0.11973 0.0
C593 C 0.77955 0.65803 0.06982 0.0
C594 C 0.79314 0.68826 0.11513 0.0
C595 C 0.80571 0.69012 0.05969 0.0
C596 C 0.80489 0.67596 1.00897 0.0
C597 C 0.79178 0.66028 1.01434 0.0
C598 C 0.79336 0.70309 0.17005 0.0
C599 C 0.81809 0.67723 0.94917 0.0
C600 C 0.83053 0.73849 1.01598 0.0
C601 C 0.84929 0.73576 0.04186 0.0
C602 C 0.81604 0.72403 1.02283 0.0
C603 C 0.82038 0.70628 0.05589 0.0
C604 C 0.83913 0.70362 0.08323 0.0
C605 C 0.8532 0.71837 0.07646 0.0
C606 C 0.79618 0.72759 0.99361 0.0
C607 C 0.8445 0.68496 0.11863 0.0
H608 H 0.77112 0.67072 0.16304 0.0
H609 H 0.79103 0.64984 0.97436 0.0
H610 H 0.80772 0.70294 0.19492 0.0
H611 H 0.79124 0.71794 0.14937 0.0
H612 H 0.7819 0.70027 0.20777 0.0
H613 H 0.81554 0.66519 0.91364 0.0
H614 H 0.81585 0.6913 0.92308 0.0
H615 H 0.83351 0.67675 0.9651 0.0
H616 H 0.82726 0.75176 0.98899 0.0
H617 H 0.86738 0.7162 0.09851 0.0
H618 H 0.78477 0.72522 0.03178 0.0
H619 H 0.79345 0.71705 0.95322 0.0
H620 H 0.79467 0.74258 0.97334 0.0
H621 H 0.83435 0.68228 0.16049 0.0
H622 H 0.85958 0.68526 0.13811 0.0
H623 H 0.84312 0.67247 0.08425 0.0
C624 C 0.35575 0.80352 0.98088 0.0
C625 C 0.35288 0.78728 1.02272 0.0
C626 C 0.34145 0.81799 0.97328 0.0
C627 C 0.32333 0.81598 1.00603 0.0
C628 C 0.31993 0.79933 0.04617 0.0
C629 C 0.33478 0.78539 0.05485 0.0
C630 C 0.34593 0.83567 0.93112 0.0
C631 C 0.30063 0.79632 0.08057 0.0
C632 C 0.29383 0.86186 0.0411 0.0
C633 C 0.28083 0.86259 0.98738 0.0
C634 C 0.30772 0.84694 0.04735 0.0
C635 C 0.30833 0.83174 1.00026 0.0
C636 C 0.29499 0.83198 0.94689 0.0
C637 C 0.28168 0.84749 0.9405 0.0
C638 C 0.3219 0.84756 0.10428 0.0
C639 C 0.29478 0.81582 0.89644 0.0
H640 H 0.36923 0.80504 0.95355 0.0
H641 H 0.33221 0.77316 0.08778 0.0
H642 H 0.33535 0.83682 0.88999 0.0
H643 H 0.34449 0.84908 0.96129 0.0
H644 H 0.36084 0.83524 0.9098 0.0
H645 H 0.29961 0.78182 0.10503 0.0
H646 H 0.29847 0.80772 0.11861 0.0
H647 H 0.28856 0.79771 0.04448 0.0
H648 H 0.29313 0.87287 0.07924 0.0
H649 H 0.27202 0.84777 0.89829 0.0
H650 H 0.33704 0.84739 0.08506 0.0
H651 H 0.32006 0.83446 0.13601 0.0
H652 H 0.31997 0.86071 0.13549 0.0
H653 H 0.30869 0.81572 0.86847 0.0
H654 H 0.28264 0.81736 0.86066 0.0
H655 H 0.29345 0.80149 0.92174 0.0
C656 C 0.16964 0.73252 0.58996 0.0
C657 C 0.15203 0.73213 0.55481 0.0
C658 C 0.18401 0.71811 0.58064 0.0
C659 C 0.18084 0.70282 0.53486 0.0
C660 C 0.16302 0.7022 0.49981 0.0
C661 C 0.1489 0.71679 0.51014 0.0
C662 C 0.20269 0.71934 0.61946 0.0
C663 C 0.15897 0.68627 0.45045 0.0
C664 C 0.22519 0.67599 0.46476 0.0
C665 C 0.22555 0.65883 0.50298 0.0
C666 C 0.21073 0.69031 0.47429 0.0
C667 C 0.19618 0.68756 0.52343 0.0
C668 C 0.19639 0.67024 0.56188 0.0
C669 C 0.21099 0.65617 0.5513 0.0
C670 C 0.21109 0.70847 0.43189 0.0
C671 C 0.18128 0.66666 0.61495 0.0
H672 H 0.17223 0.74414 0.625 0.0
H673 H 0.13559 0.71644 0.48162 0.0
H674 H 0.20482 0.70578 0.64862 0.0
H675 H 0.21522 0.72069 0.58501 0.0
H676 H 0.20286 0.73194 0.65381 0.0
H677 H 0.14428 0.68756 0.42815 0.0
H678 H 0.16997 0.68675 0.41017 0.0
H679 H 0.16018 0.6718 0.4748 0.0
H680 H 0.2362 0.67822 0.42697 0.0
H681 H 0.21124 0.64324 0.58222 0.0
H682 H 0.2126 0.72152 0.46368 0.0
H683 H 0.19716 0.70993 0.40474 0.0
H684 H 0.22322 0.70839 0.39542 0.0
H685 H 0.18207 0.67829 0.65282 0.0
H686 H 0.1832 0.65233 0.63989 0.0
H687 H 0.1665 0.66721 0.59316 0.0
C688 C 0.35206 0.22426 0.58741 0.0
C689 C 0.35 0.24 0.54294 0.0
C690 C 0.33805 0.20938 0.59211 0.0
C691 C 0.3209 0.21049 0.55379 0.0
C692 C 0.3181 0.22679 0.51149 0.0
C693 C 0.33275 0.24115 0.50578 0.0
C694 C 0.34194 0.19213 0.63687 0.0
C695 C 0.29973 0.22894 0.4714 0.0
C696 C 0.29433 0.16303 0.51473 0.0
C697 C 0.28016 0.16193 0.56518 0.0
C698 C 0.3076 0.17863 0.51066 0.0
C699 C 0.30635 0.19416 0.55638 0.0
C700 C 0.2918 0.19357 0.60618 0.0
C701 C 0.27921 0.17738 0.6108 0.0
C702 C 0.32317 0.17832 0.45775 0.0
C703 C 0.28955 0.21005 0.65486 0.0
H704 H 0.36478 0.22337 0.61872 0.0
H705 H 0.33079 0.25303 0.47101 0.0
H706 H 0.33032 0.19083 0.67479 0.0
H707 H 0.34179 0.1785 0.6075 0.0
H708 H 0.35617 0.19324 0.66249 0.0
H709 H 0.29881 0.24336 0.44648 0.0
H710 H 0.29916 0.21744 0.43306 0.0
H711 H 0.28677 0.22702 0.50369 0.0
H712 H 0.29508 0.15177 0.47748 0.0
H713 H 0.2687 0.17688 0.65077 0.0
H714 H 0.33775 0.17927 0.48094 0.0
H715 H 0.3216 0.19115 0.42465 0.0
H716 H 0.32258 0.16492 0.42716 0.0
H717 H 0.30246 0.21074 0.68751 0.0
H718 H 0.27637 0.20835 0.68636 0.0
H719 H 0.28864 0.22418 0.62809 0.0
C720 C 0.79424 0.35736 0.53809 0.0
C721 C 0.78036 0.35809 0.48696 0.0
C722 C 0.80787 0.34214 0.54273 0.0
C723 C 0.80728 0.32659 0.49696 0.0
C724 C 0.79301 0.32679 0.44652 0.0
C725 C 0.78004 0.34263 0.44134 0.0
C726 C 0.82313 0.34287 0.59633 0.0
C727 C 0.79144 0.31024 0.39781 0.0
C728 C 0.8539 0.29772 0.4685 0.0
C729 C 0.85195 0.28197 0.51305 0.0
C730 C 0.83956 0.31221 0.4629 0.0
C731 C 0.82219 0.31066 0.50033 0.0
C732 C 0.81955 0.29435 0.54274 0.0
C733 C 0.83452 0.28042 0.54942 0.0
C734 C 0.84328 0.32952 0.41815 0.0
C735 C 0.80099 0.29174 0.5819 0.0
H736 H 0.79449 0.36862 0.57542 0.0
H737 H 0.76973 0.34286 0.40094 0.0
H738 H 0.82166 0.33003 0.62948 0.0
H739 H 0.83786 0.34226 0.57381 0.0
H740 H 0.82206 0.35627 0.62676 0.0
H741 H 0.77843 0.3116 0.36566 0.0
H742 H 0.80457 0.30988 0.36581 0.0
H743 H 0.79071 0.29611 0.42459 0.0
H744 H 0.86678 0.29892 0.4378 0.0
H745 H 0.83264 0.26853 0.58428 0.0
H746 H 0.84261 0.34317 0.44737 0.0
H747 H 0.83186 0.33048 0.37966 0.0
H748 H 0.85768 0.32877 0.39323 0.0
H749 H 0.79989 0.30323 0.62017 0.0
H750 H 0.80026 0.2773 0.60684 0.0
H751 H 0.78819 0.29332 0.54896 0.0
C752 C 0.726 0.85254 0.4521 0.0
C753 C 0.7388 0.85349 0.50625 0.0
C754 C 0.71147 0.83813 0.44808 0.0
C755 C 0.70978 0.82389 0.49871 0.0
C756 C 0.72307 0.82427 0.55231 0.0
C757 C 0.7373 0.83906 0.55563 0.0
C758 C 0.69765 0.83842 0.39014 0.0
C759 C 0.722 0.80922 0.60691 0.0
C760 C 0.66066 0.79865 0.5238 0.0
C761 C 0.66328 0.78085 0.49067 0.0
C762 C 0.67557 0.81273 0.52651 0.0
C763 C 0.69381 0.80896 0.49622 0.0
C764 C 0.69659 0.79109 0.46264 0.0
C765 C 0.68133 0.77739 0.45984 0.0
C766 C 0.67183 0.83165 0.5622 0.0
C767 C 0.71578 0.78637 0.42993 0.0
H768 H 0.72722 0.86318 0.41256 0.0
H769 H 0.74692 0.83961 0.59797 0.0
H770 H 0.69822 0.82432 0.36359 0.0
H771 H 0.68251 0.84032 0.40823 0.0
H772 H 0.701 0.85032 0.35442 0.0
H773 H 0.73404 0.81078 0.64309 0.0
H774 H 0.70797 0.81058 0.63372 0.0
H775 H 0.72255 0.79435 0.58567 0.0
H776 H 0.64705 0.80149 0.5491 0.0
H777 H 0.68359 0.7639 0.43324 0.0
H778 H 0.67429 0.84412 0.52806 0.0
H779 H 0.68218 0.83323 0.60385 0.0
H780 H 0.65677 0.83256 0.58208 0.0
H781 H 0.71909 0.79732 0.39095 0.0
H782 H 0.71582 0.77167 0.40714 0.0
H783 H 0.72767 0.78708 0.46687 0.0
C784 C 0.99058 0.22085 0.4331 0.0
C785 C 0.97338 0.20982 0.4288 0.0
C786 C 1.00599 0.21875 0.38675 0.0
C787 C 1.0043 0.20549 0.3331 0.0
C788 C 0.98743 0.19348 0.33092 0.0
C789 C 0.97224 0.19588 0.37812 0.0
C790 C 0.02346 0.23194 0.39236 0.0
C791 C 0.98465 0.17912 0.27548 0.0
C792 C 0.02886 0.22176 0.1703 0.0
C793 C 0.04628 0.21096 0.1681 0.0
C794 C 0.01513 0.21966 0.22208 0.0
C795 C 0.01855 0.20639 0.27482 0.0
C796 C 0.03578 0.19485 0.27204 0.0
C797 C 0.04937 0.19722 0.21896 0.0
C798 C 0.99713 0.23226 0.22121 0.0
C799 C 0.04021 0.18047 0.32647 0.0
H800 H 0.99144 0.23217 0.47026 0.0
H801 H 0.95881 0.18779 0.37234 0.0
H802 H 0.03709 0.22354 0.38535 0.0
H803 H 0.02288 0.24319 0.35282 0.0
H804 H 0.02402 0.23939 0.44103 0.0
H805 H 0.97261 0.16875 0.28609 0.0
H806 H 0.98119 0.18713 0.22915 0.0
H807 H 0.9982 0.17075 0.26659 0.0
H808 H 0.02609 0.23241 0.13168 0.0
H809 H 0.06278 0.18893 0.21892 0.0
H810 H 0.99718 0.24212 0.26462 0.0
H811 H 0.9839 0.22305 0.22501 0.0
H812 H 0.9961 0.24128 0.17556 0.0
H813 H 0.04301 0.18842 0.3732 0.0
H814 H 0.05311 0.17136 0.31481 0.0
H815 H 0.02752 0.1708 0.33532 0.0
C816 C 0.81728 0.97513 0.35717 0.0
C817 C 0.80685 0.97717 0.41677 0.0
C818 C 0.81923 0.99071 0.31114 0.0
C819 C 0.81032 1.00902 0.32374 0.0
C820 C 0.80074 0.01148 0.3858 0.0
C821 C 0.79898 0.9956 0.4309 0.0
C822 C 0.82958 0.987 0.24647 0.0
C823 C 0.79103 0.03052 0.40266 0.0
C824 C 0.81963 0.05379 0.20807 0.0
C825 C 0.80319 0.05349 0.16668 0.0
C826 C 0.82235 0.03949 0.25882 0.0
C827 C 0.80843 0.02431 0.26874 0.0
C828 C 0.79221 0.02371 0.22553 0.0
C829 C 0.78983 0.03812 0.17599 0.0
C830 C 0.83988 0.04094 0.30308 0.0
C831 C 0.77698 1.00795 0.23234 0.0
H832 H 0.82285 0.96085 0.34434 0.0
H833 H 0.79028 0.99727 0.47539 0.0
H834 H 0.81871 0.98588 0.20615 0.0
H835 H 0.83945 0.99927 0.23399 0.0
H836 H 0.83816 0.97329 0.24782 0.0
H837 H 0.78672 0.0312 0.45567 0.0
H838 H 0.80085 0.04294 0.39131 0.0
H839 H 0.77779 0.03231 0.37197 0.0
H840 H 0.83003 0.06555 0.20236 0.0
H841 H 0.77707 0.03746 0.1447 0.0
H842 H 0.84766 0.0268 0.30487 0.0
H843 H 0.8351 0.0443 0.35429 0.0
H844 H 0.85016 0.05245 0.28626 0.0
H845 H 0.78387 0.99338 0.22839 0.0
H846 H 0.76547 1.00912 0.19405 0.0
H847 H 0.77001 1.00879 0.28186 0.0
C848 C 0.02453 0.79742 0.39951 0.0
C849 C 0.0421 0.80803 0.40043 0.0
C850 C 0.01062 0.79958 0.34855 0.0
C851 C 0.01397 0.81274 0.29534 0.0
C852 C 0.03131 0.82418 0.29707 0.0
C853 C 0.04509 0.82173 0.34927 0.0
C854 C 0.99258 0.78703 0.35047 0.0
C855 C 0.03568 0.83848 0.24222 0.0
C856 C 0.98703 0.7972 0.13682 0.0
C857 C 0.96976 0.80819 0.13881 0.0
C858 C 1.00205 0.79964 0.18403 0.0
C859 C 0.9999 0.81317 0.23664 0.0
C860 C 0.98291 0.82508 0.23687 0.0
C861 C 0.96814 0.82243 0.18838 0.0
C862 C 0.01965 0.78658 0.18014 0.0
C863 C 0.97961 0.8397 0.29121 0.0
H864 H 0.02181 0.7868 0.43833 0.0
H865 H 0.05858 0.8299 0.34826 0.0
H866 H 0.97938 0.79621 0.34563 0.0
H867 H 0.99273 0.77681 0.30803 0.0
H868 H 0.99141 0.77839 0.39694 0.0
H869 H 0.04844 0.8478 0.25371 0.0
H870 H 0.03872 0.83043 0.1958 0.0
H871 H 0.0229 0.84794 0.23293 0.0
H872 H 0.98833 0.78579 0.1001 0.0
H873 H 0.95468 0.83054 0.1923 0.0
H874 H 0.019 0.77562 0.22066 0.0
H875 H 0.03318 0.79516 0.18678 0.0
H876 H 0.02052 0.77876 0.13218 0.0
H877 H 0.97601 0.8319 0.3379 0.0
H878 H 0.96749 0.84983 0.27944 0.0
H879 H 0.993 0.84831 0.30011 0.0
C880 C 0.21928 0.03005 0.39933 0.0
C881 C 0.20821 0.0473 0.40098 0.0
C882 C 0.21615 0.01537 0.35173 0.0
C883 C 0.20156 0.01767 0.30281 0.0
C884 C 0.18957 0.0346 0.30612 0.0
C885 C 0.19298 0.04915 0.355 0.0
C886 C 0.22935 0.99779 0.35172 0.0
C887 C 0.17376 0.03785 0.2558 0.0
C888 C 0.21497 0.99146 0.14123 0.0
C889 C 0.20515 0.97351 0.14634 0.0
C890 C 0.21283 1.00631 0.18899 0.0
C891 C 0.20064 1.0034 0.24502 0.0
C892 C 0.18973 0.98573 0.24863 0.0
C893 C 0.1921 0.97105 0.19949 0.0
C894 C 0.22476 0.02466 0.18154 0.0
C895 C 0.17647 0.98178 0.30668 0.0
H896 H 0.23107 0.0283 0.43439 0.0
H897 H 0.18445 0.06242 0.35475 0.0
H898 H 0.22064 0.98419 0.34975 0.0
H899 H 0.23877 0.99815 0.30701 0.0
H900 H 0.23882 0.99721 0.39616 0.0
H901 H 0.16388 0.04992 0.27022 0.0
H902 H 0.18043 0.04149 0.20721 0.0
H903 H 0.16506 0.02438 0.24917 0.0
H904 H 0.22523 0.99355 0.10092 0.0
H905 H 0.18471 0.95719 0.20518 0.0
H906 H 0.23625 0.02491 0.22 0.0
H907 H 0.21551 0.03771 0.18892 0.0
H908 H 0.23185 0.02573 0.13215 0.0
H909 H 0.18536 0.9785 0.35111 0.0
H910 H 0.16667 0.96922 0.29748 0.0
H911 H 0.16753 0.99481 0.31803 0.0
C912 C 0.03125 0.79232 0.76059 0.0
C913 C 0.04792 0.78333 0.73534 0.0
C914 C 0.01846 0.78235 0.80214 0.0
C915 C 0.02224 0.76258 0.81859 0.0
C916 C 0.03959 0.75363 0.79645 0.0
C917 C 0.05234 0.76419 0.7552 0.0
C918 C 1.00028 0.79286 0.82484 0.0
C919 C 0.04473 0.73302 0.81588 0.0
C920 C 0.98409 0.75654 0.94233 0.0
C921 C 0.96864 0.75512 0.89739 0.0
C922 C 1.00329 0.7545 0.91996 0.0
C923 C 1.00659 0.75135 0.85176 0.0
C924 C 0.99106 0.74492 0.81153 0.0
C925 C 0.97203 0.74713 0.83486 0.0
C926 C 0.01972 0.75973 0.96574 0.0
C927 C 0.99416 0.73987 0.7397 0.0
H928 H 0.02755 0.80697 0.74539 0.0
H929 H 0.06555 0.75735 0.73764 0.0
H930 H 0.98727 0.78588 0.80299 0.0
H931 H 0.99892 0.79217 0.87948 0.0
H932 H 1.00021 0.80847 0.81002 0.0
H933 H 0.05554 0.72658 0.78131 0.0
H934 H 0.05121 0.73313 0.86611 0.0
H935 H 0.03172 0.72347 0.81774 0.0
H936 H 0.98147 0.76206 0.99172 0.0
H937 H 0.95992 0.74523 0.80123 0.0
H938 H 0.02259 0.77562 0.96221 0.0
H939 H 0.03324 0.75191 0.95182 0.0
H940 H 0.01595 0.75624 1.01799 0.0
H941 H 0.99483 0.7535 0.70998 0.0
H942 H 0.98201 0.73083 0.72054 0.0
H943 H 1.00804 0.73191 0.73259 0.0
C944 C 0.2713 0.97694 0.8684 0.0
C945 C 0.25363 0.98333 0.89551 0.0
C946 C 0.2824 0.98962 0.8286 0.0
C947 C 0.27492 1.00834 0.81408 0.0
C948 C 0.25976 0.01592 0.85446 0.0
C949 C 0.24922 1.00315 0.89458 0.0
C950 C 0.30063 0.98212 0.79601 0.0
C951 C 0.25232 0.03653 0.84753 0.0
C952 C 0.27263 0.04734 0.69105 0.0
C953 C 0.25617 0.04024 0.65822 0.0
C954 C 0.28306 0.03501 0.73382 0.0
C955 C 0.27602 0.01592 0.74521 0.0
C956 C 0.26266 1.00777 0.69948 0.0
C957 C 0.25275 0.02022 0.65666 0.0
C958 C 0.2998 0.0432 0.77279 0.0
C959 C 0.25611 0.98679 0.70314 0.0
H960 H 0.27542 0.96175 0.87255 0.0
H961 H 0.2363 1.00825 0.92002 0.0
H962 H 0.29728 0.96906 0.76589 0.0
H963 H 0.30781 0.99331 0.76444 0.0
H964 H 0.31101 0.97739 0.8349 0.0
H965 H 0.24208 0.04044 0.88801 0.0
H966 H 0.26454 0.04703 0.84845 0.0
H967 H 0.24449 0.03818 0.79989 0.0
H968 H 0.27606 0.06274 0.68903 0.0
H969 H 0.24085 0.01466 0.62715 0.0
H970 H 0.30651 0.03217 0.80595 0.0
H971 H 0.29488 0.05587 0.80243 0.0
H972 H 0.31106 0.0487 0.73789 0.0
H973 H 0.26882 0.97695 0.70623 0.0
H974 H 0.24744 0.98254 0.65916 0.0
H975 H 0.2469 0.98453 0.74775 0.0
C976 C 0.99027 0.26445 0.61839 0.0
C977 C 0.97334 0.27125 0.64987 0.0
C978 C 1.00821 0.26545 0.65056 0.0
C979 C 1.00889 0.27329 0.71501 0.0
C980 C 0.99316 0.2846 0.73821 0.0
C981 C 0.97531 0.28337 0.70526 0.0
C982 C 0.02532 0.2547 0.62148 0.0
C983 C 0.99409 0.29484 0.80393 0.0
C984 C 0.02561 0.23526 0.83688 0.0
C985 C 0.04473 0.24097 0.8495 0.0
C986 C 0.01378 0.24601 0.79451 0.0
C987 C 0.0212 0.26321 0.76433 0.0
C988 C 0.04028 0.26958 0.77892 0.0
C989 C 0.05191 0.25826 0.82119 0.0
C990 C 0.99341 0.23857 0.78138 0.0
C991 C 0.04879 0.28788 0.74899 0.0
H992 H 0.98932 0.25603 0.5734 0.0
H993 H 0.96255 0.28999 0.72727 0.0
H994 H 0.03914 0.26224 0.63328 0.0
H995 H 0.02595 0.23981 0.64313 0.0
H996 H 0.02403 0.25333 0.56687 0.0
H997 H 0.98363 0.30716 0.80581 0.0
H998 H 0.9902 0.28439 0.84396 0.0
H999 H 1.00898 0.30038 0.81363 0.0
H1000 H 0.01982 0.22228 0.86037 0.0
H1001 H 0.06674 0.26272 0.83094 0.0
H1002 H 0.9915 0.2357 0.72781 0.0
H1003 H 0.98253 0.24962 0.79642 0.0
H1004 H 0.99015 0.22487 0.80874 0.0
H1005 H 0.0578 0.28392 0.70542 0.0
H1006 H 0.05849 0.29525 0.78497 0.0
H1007 H 0.03746 0.29834 0.7327 0.0
C1008 C 0.76198 0.06106 0.82375 0.0
C1009 C 0.78216 0.06428 0.82134 0.0
C1010 C 0.75326 0.04718 0.78263 0.0
C1011 C 0.76514 0.03587 0.74058 0.0
C1012 C 0.78497 0.0408 0.73189 0.0
C1013 C 0.79311 0.0553 0.77137 0.0
C1014 C 0.73169 0.0435 0.78834 0.0
C1015 C 0.79811 0.02942 0.68604 0.0
C1016 C 0.75909 0.98158 0.73383 0.0
C1017 C 0.75635 0.9789 0.66616 0.0
C1018 C 0.76049 1.00034 0.75996 0.0
C1019 C 0.75834 0.01667 0.71721 0.0
C1020 C 0.7533 0.01388 0.65007 0.0
C1021 C 0.75286 0.99492 0.62484 0.0
C1022 C 0.76632 1.00258 0.83164 0.0
C1023 C 0.74974 0.03073 0.60345 0.0
H1024 H 0.7531 0.0683 0.86043 0.0
H1025 H 0.80844 0.05858 0.76623 0.0
H1026 H 0.72546 0.0394 0.73968 0.0
H1027 H 0.72901 0.03129 0.82337 0.0
H1028 H 0.72392 0.05653 0.80729 0.0
H1029 H 0.81314 0.03536 0.68446 0.0
H1030 H 0.79883 0.01398 0.7025 0.0
H1031 H 0.79219 0.0296 0.63509 0.0
H1032 H 0.7619 0.969 0.765 0.0
H1033 H 0.75059 0.99259 0.57237 0.0
H1034 H 0.75591 0.01217 0.85789 0.0
H1035 H 0.78089 1.00951 0.8345 0.0
H1036 H 0.7669 0.98838 0.85821 0.0
H1037 H 0.7458 0.04428 0.63007 0.0
H1038 H 0.73791 0.02709 0.56826 0.0
H1039 H 0.76305 0.03349 0.57362 0.0
C1040 C 0.54988 0.69971 0.71563 0.0
C1041 C 0.54704 0.71205 0.66061 0.0
C1042 C 0.53565 0.69806 0.76706 0.0
C1043 C 0.51796 0.70889 0.76399 0.0
C1044 C 0.51477 0.7206 0.70695 0.0
C1045 C 0.52917 0.72205 0.65691 0.0
C1046 C 0.53993 0.68534 0.82621 0.0
C1047 C 0.49637 0.73241 0.69984 0.0
C1048 C 0.47176 0.70027 0.87185 0.0
C1049 C 0.47269 0.71575 0.91716 0.0
C1050 C 0.48684 0.69705 0.82443 0.0
C1051 C 0.50343 0.70953 0.82167 0.0
C1052 C 0.50487 0.72437 0.87024 0.0
C1053 C 0.48961 0.72734 0.91637 0.0
C1054 C 0.48438 0.681 0.77446 0.0
C1055 C 0.52205 0.73806 0.87097 0.0
H1056 H 0.5636 0.69206 0.72018 0.0
H1057 H 0.52657 0.73163 0.61507 0.0
H1058 H 0.54247 0.69463 0.87015 0.0
H1059 H 0.52729 0.67582 0.83764 0.0
H1060 H 0.55297 0.67608 0.81827 0.0
H1061 H 0.49534 0.73968 0.65075 0.0
H1062 H 0.48343 0.72294 0.70676 0.0
H1063 H 0.49586 0.74375 0.73879 0.0
H1064 H 0.45867 0.69147 0.8704 0.0
H1065 H 0.49051 0.7395 0.95034 0.0
H1066 H 0.4981 0.67265 0.76884 0.0
H1067 H 0.48089 0.68747 0.72548 0.0
H1068 H 0.4725 0.67079 0.78855 0.0
H1069 H 0.53586 0.72974 0.86894 0.0
H1070 H 0.52217 0.74741 0.91574 0.0
H1071 H 0.52159 0.74762 0.82656 0.0
C1072 C 0.31789 0.47394 0.86537 0.0
C1073 C 0.30144 0.47397 0.90703 0.0
C1074 C 0.32065 0.48853 0.81553 0.0
C1075 C 0.30679 0.50381 0.80692 0.0
C1076 C 0.29085 0.50444 0.85175 0.0
C1077 C 0.28837 0.48966 0.90018 0.0
C1078 C 0.33788 0.48683 0.76968 0.0
C1079 C 0.27567 0.52024 0.84642 0.0
C1080 C 0.31401 0.55074 0.70026 0.0
C1081 C 0.30287 0.54663 0.64361 0.0
C1082 C 0.31635 0.53672 0.75216 0.0
C1083 C 0.30748 0.51796 0.74793 0.0
C1084 C 0.29724 0.51349 0.68898 0.0
C1085 C 0.29499 0.52772 0.63857 0.0
C1086 C 0.32752 0.54237 0.8132 0.0
C1087 C 0.28768 0.49387 0.68038 0.0
H1088 H 0.32805 0.46196 0.86924 0.0
H1089 H 0.27557 0.49004 0.93168 0.0
H1090 H 0.33311 0.48018 0.72246 0.0
H1091 H 0.3441 0.50137 0.758 0.0
H1092 H 0.34945 0.47748 0.79124 0.0
H1093 H 0.2652 0.51989 0.88842 0.0
H1094 H 0.28269 0.53479 0.84479 0.0
H1095 H 0.26743 0.51846 0.79967 0.0
H1096 H 0.31997 0.56525 0.7059 0.0
H1097 H 0.28631 0.52419 0.59552 0.0
H1098 H 0.33803 0.53076 0.82663 0.0
H1099 H 0.31729 0.544 0.85542 0.0
H1100 H 0.33552 0.55631 0.80634 0.0
H1101 H 0.29822 0.48203 0.69085 0.0
H1102 H 0.28184 0.49186 0.62964 0.0
H1103 H 0.27551 0.49233 0.71625 0.0
C1104 C 0.54796 0.32302 0.83348 0.0
C1105 C 0.5453 0.30849 0.88212 0.0
C1106 C 0.53421 0.32579 0.78132 0.0
C1107 C 0.51726 0.31384 0.77716 0.0
C1108 C 0.51431 0.29969 0.82762 0.0
C1109 C 0.52817 0.29723 0.87855 0.0
C1110 C 0.53814 0.34112 0.72937 0.0
C1111 C 0.49664 0.2866 0.82699 0.0
C1112 C 0.4703 0.32495 0.67904 0.0
C1113 C 0.47149 0.31194 0.62552 0.0
C1114 C 0.48563 0.3269 0.72564 0.0
C1115 C 0.50275 0.31537 0.71999 0.0
C1116 C 0.50446 0.30308 0.66367 0.0
C1117 C 0.48889 0.30141 0.61795 0.0
C1118 C 0.48276 0.34022 0.78402 0.0
C1119 C 0.52217 0.29043 0.6543 0.0
H1120 H 0.56111 0.33171 0.83455 0.0
H1121 H 0.52569 0.28598 0.91543 0.0
H1122 H 0.54081 0.33401 0.68096 0.0
H1123 H 0.52525 0.35068 0.72341 0.0
H1124 H 0.55095 0.35026 0.74174 0.0
H1125 H 0.49602 0.27676 0.87077 0.0
H1126 H 0.48318 0.29549 0.82592 0.0
H1127 H 0.49677 0.27754 0.78163 0.0
H1128 H 0.45672 0.33261 0.68732 0.0
H1129 H 0.48982 0.29075 0.57859 0.0
H1130 H 0.49615 0.34879 0.79355 0.0
H1131 H 0.47973 0.33135 0.82896 0.0
H1132 H 0.47043 0.35042 0.77637 0.0
H1133 H 0.53565 0.29899 0.66229 0.0
H1134 H 0.52272 0.28389 0.6041 0.0
H1135 H 0.52197 0.27847 0.69143 0.0
C1136 C 0.69298 0.54496 0.86518 0.0
C1137 C 0.70819 0.54331 0.91127 0.0
C1138 C 0.68989 0.53045 0.8159 0.0
C1139 C 0.7022 0.51376 0.8123 0.0
C1140 C 0.71676 0.51161 0.86145 0.0
C1141 C 0.71959 0.52628 0.90938 0.0
C1142 C 0.67413 0.53357 0.7653 0.0
C1143 C 0.73027 0.49428 0.8612 0.0
C1144 C 0.69357 0.46758 0.70568 0.0
C1145 C 0.70664 0.47053 0.65288 0.0
C1146 C 0.691 0.4819 0.75595 0.0
C1147 C 0.70169 0.49971 0.7538 0.0
C1148 C 0.71393 0.50311 0.69821 0.0
C1149 C 0.7163 0.4886 0.64937 0.0
C1150 C 0.67773 0.47742 0.81353 0.0
C1151 C 0.72562 0.52166 0.69221 0.0
H1152 H 0.68425 0.5581 0.86497 0.0
H1153 H 0.73144 0.52476 0.94435 0.0
H1154 H 0.68084 0.53755 0.71707 0.0
H1155 H 0.66573 0.51995 0.75781 0.0
H1156 H 0.66397 0.54537 0.78 0.0
H1157 H 0.73953 0.49367 0.90613 0.0
H1158 H 0.72183 0.48054 0.85799 0.0
H1159 H 0.73989 0.49503 0.81704 0.0
H1160 H 0.68628 0.45362 0.7101 0.0
H1161 H 0.72654 0.49111 0.60927 0.0
H1162 H 0.66849 0.49021 0.82526 0.0
H1163 H 0.6866 0.47417 0.85801 0.0
H1164 H 0.6682 0.46469 0.80355 0.0
H1165 H 0.71614 0.53454 0.69987 0.0
H1166 H 0.73287 0.52307 0.64318 0.0
H1167 H 0.73696 0.52192 0.73117 0.0
C1168 C 0.54872 0.26105 0.22587 0.0
C1169 C 0.54235 0.2786 0.19743 0.0
C1170 C 0.53643 0.25018 0.26771 0.0
C1171 C 0.51755 0.25729 0.28167 0.0
C1172 C 0.51091 0.27467 0.25082 0.0
C1173 C 0.52336 0.28495 0.2089 0.0
C1174 C 0.54408 0.2316 0.29806 0.0
C1175 C 0.49078 0.28287 0.26316 0.0
C1176 C 0.47084 0.23927 0.34314 0.0
C1177 C 0.46948 0.25149 0.39851 0.0
C1178 C 0.48856 0.23728 0.30945 0.0
C1179 C 0.5048 0.24798 0.33172 0.0
C1180 C 0.50454 0.2561 0.39583 0.0
C1181 C 0.48672 0.25784 0.42879 0.0
C1182 C 0.48897 0.22678 0.24412 0.0
C1183 C 0.52211 0.26629 0.42379 0.0
H1184 H 0.56343 0.25606 0.21679 0.0
H1185 H 0.5182 0.29813 0.18511 0.0
H1186 H 0.55319 0.23525 0.34151 0.0
H1187 H 0.53226 0.22166 0.31454 0.0
H1188 H 0.5535 0.22376 0.26221 0.0
H1189 H 0.48815 0.29661 0.23534 0.0
H1190 H 0.47955 0.27218 0.24812 0.0
H1191 H 0.48875 0.28593 0.3166 0.0
H1192 H 0.45779 0.23306 0.32197 0.0
H1193 H 0.48619 0.26639 0.47358 0.0
H1194 H 0.50361 0.22062 0.23413 0.0
H1195 H 0.48546 0.23723 0.2038 0.0
H1196 H 0.47801 0.21488 0.24313 0.0
H1197 H 0.53557 0.25805 0.41243 0.0
H1198 H 0.52088 0.26811 0.47829 0.0
H1199 H 0.52343 0.28097 0.40088 0.0
C1200 C 0.75626 0.51515 0.15412 0.0
C1201 C 0.75953 0.53516 0.15766 0.0
C1202 C 0.76607 0.50248 0.19651 0.0
C1203 C 0.779 0.51046 0.24391 0.0
C1204 C 0.78626 0.52952 0.23342 0.0
C1205 C 0.77596 0.54209 0.19106 0.0
C1206 C 0.75961 0.48146 0.19852 0.0
C1207 C 0.80284 0.53744 0.27371 0.0
C1208 C 0.75023 0.49884 0.39088 0.0
C1209 C 0.75431 0.47898 0.39413 0.0
C1210 C 0.76132 0.51116 0.35082 0.0
C1211 C 0.77676 0.50308 0.31276 0.0
C1212 C 0.78369 0.48427 0.32917 0.0
C1213 C 0.77203 0.47208 0.36888 0.0
C1214 C 0.7543 0.53186 0.34208 0.0
C1215 C 0.8021 0.47623 0.29934 0.0
H1216 H 0.74437 0.50977 0.12418 0.0
H1217 H 0.7793 0.55752 0.19048 0.0
H1218 H 0.77235 0.47169 0.20268 0.0
H1219 H 0.74998 0.47898 0.24196 0.0
H1220 H 0.75141 0.47736 0.15335 0.0
H1221 H 0.81436 0.54288 0.23968 0.0
H1222 H 0.79791 0.5501 0.30336 0.0
H1223 H 0.80923 0.52624 0.30699 0.0
H1224 H 0.73729 0.5044 0.41505 0.0
H1225 H 0.77591 0.45688 0.37487 0.0
H1226 H 0.74672 0.53336 0.29396 0.0
H1227 H 0.76667 0.54217 0.34318 0.0
H1228 H 0.74392 0.53618 0.38163 0.0
H1229 H 0.79888 0.46278 0.27108 0.0
H1230 H 0.81215 0.47198 0.33983 0.0
H1231 H 0.8096 0.48692 0.2667 0.0
C1232 C 0.56341 0.75114 0.30323 0.0
C1233 C 0.56514 0.73076 0.30728 0.0
C1234 C 0.55056 0.75963 0.25794 0.0
C1235 C 0.53885 0.74736 0.21893 0.0
C1236 C 0.54349 0.72736 0.21344 0.0
C1237 C 0.55691 0.71931 0.25743 0.0
C1238 C 0.54751 0.78138 0.25867 0.0
C1239 C 0.53222 0.71394 0.16863 0.0
C1240 C 0.48482 0.75186 0.2379 0.0
C1241 C 0.47925 0.75388 0.17209 0.0
C1242 C 0.50448 0.75122 0.25462 0.0
C1243 C 0.51875 0.75335 0.20395 0.0
C1244 C 0.51303 0.75766 0.13837 0.0
C1245 C 0.49321 0.75747 0.12291 0.0
C1246 C 0.50981 0.74645 0.32549 0.0
C1247 C 0.52751 0.76129 0.08343 0.0
H1248 H 0.57045 0.7604 0.33912 0.0
H1249 H 0.5594 0.70374 0.25706 0.0
H1250 H 0.54281 0.78675 0.2093 0.0
H1251 H 0.53599 0.78506 0.29511 0.0
H1252 H 0.56102 0.78909 0.27339 0.0
H1253 H 0.53866 0.69911 0.16667 0.0
H1254 H 0.51699 0.71265 0.18663 0.0
H1255 H 0.5318 0.71997 0.1177 0.0
H1256 H 0.47379 0.74918 0.27532 0.0
H1257 H 0.48863 0.75948 0.07203 0.0
H1258 H 0.51921 0.75804 0.34607 0.0
H1259 H 0.51805 0.73256 0.32754 0.0
H1260 H 0.49682 0.74498 0.35802 0.0
H1261 H 0.5424 0.76415 0.10205 0.0
H1262 H 0.52278 0.77393 0.05298 0.0
H1263 H 0.5279 0.74848 0.05012 0.0
C1264 C 0.25212 0.55098 0.32826 0.0
C1265 C 0.27132 0.55663 0.31392 0.0
C1266 C 0.2434 0.53569 0.29335 0.0
C1267 C 0.25452 0.52559 0.24566 0.0
C1268 C 0.27242 0.53356 0.22336 0.0
C1269 C 0.28045 0.54926 0.2574 0.0
C1270 C 0.22326 0.52911 0.31287 0.0
C1271 C 0.28447 0.52394 0.17 0.0
C1272 C 0.26537 0.47292 0.25907 0.0
C1273 C 0.26318 0.46767 0.19272 0.0
C1274 C 0.25982 0.49138 0.28073 0.0
C1275 C 0.25125 0.50453 0.23499 0.0
C1276 C 0.24532 0.49774 0.17233 0.0
C1277 C 0.25171 0.47941 0.1511 0.0
C1278 C 0.26569 0.49758 0.34959 0.0
C1279 C 0.23412 0.51047 0.12487 0.0
H1280 H 0.2445 0.55714 0.37022 0.0
H1281 H 0.29479 0.5545 0.24383 0.0
H1282 H 0.21667 0.51943 0.27516 0.0
H1283 H 0.22385 0.52122 0.36087 0.0
H1284 H 0.21368 0.54196 0.32007 0.0
H1285 H 0.29769 0.5325 0.15718 0.0
H1286 H 0.28913 0.50924 0.18674 0.0
H1287 H 0.27573 0.52214 0.12446 0.0
H1288 H 0.27317 0.46332 0.29235 0.0
H1289 H 0.24912 0.47523 0.10031 0.0
H1290 H 0.25301 0.50367 0.37634 0.0
H1291 H 0.27699 0.50911 0.34652 0.0
H1292 H 0.27159 0.48529 0.37933 0.0
H1293 H 0.22733 0.52313 0.14993 0.0
H1294 H 0.22256 0.50179 0.10047 0.0
H1295 H 0.24398 0.51584 0.08522 0.0
C1296 C 0.22405 0.17386 0.35308 0.0
C1297 C 0.21161 0.163 0.39424 0.0
C1298 C 0.21759 0.19121 0.32397 0.0
C1299 C 0.19824 0.19712 0.3353 0.0
C1300 C 0.18733 0.18846 0.38721 0.0
C1301 C 0.19416 0.17128 0.41604 0.0
C1302 C 0.23033 0.20143 0.27388 0.0
C1303 C 0.16705 0.19526 0.4042 0.0
C1304 C 0.16502 0.23129 0.24525 0.0
C1305 C 0.15545 0.21791 0.20424 0.0
C1306 C 0.18101 0.22551 0.28329 0.0
C1307 C 0.1872 0.20593 0.28039 0.0
C1308 C 0.17914 0.19316 0.23267 0.0
C1309 C 0.16334 0.19937 0.1952 0.0
C1310 C 0.19007 0.24003 0.3298 0.0
C1311 C 0.18566 0.17219 0.226 0.0
H1312 H 0.23817 0.16808 0.33953 0.0
H1313 H 0.18482 0.16329 0.44982 0.0
H1314 H 0.22812 0.19482 0.22443 0.0
H1315 H 0.2267 0.21716 0.27039 0.0
H1316 H 0.24594 0.19981 0.28684 0.0
H1317 H 0.16177 0.18884 0.45157 0.0
H1318 H 0.16664 0.21135 0.40823 0.0
H1319 H 0.15689 0.19091 0.36428 0.0
H1320 H 0.1595 0.24599 0.24997 0.0
H1321 H 0.1562 0.18908 0.1629 0.0
H1322 H 0.20452 0.23524 0.34802 0.0
H1323 H 0.18029 0.24223 0.37291 0.0
H1324 H 0.1917 0.25437 0.30466 0.0
H1325 H 0.20161 0.17145 0.2186 0.0
H1326 H 0.17859 0.16472 0.18372 0.0
H1327 H 0.18204 0.16398 0.27187 0.0
C1328 C 0.82452 0.10626 0.31163 0.0
C1329 C 0.81108 0.12096 0.29681 0.0
C1330 C 0.83962 0.10978 0.3562 0.0
C1331 C 0.84152 0.12864 0.383 0.0
C1332 C 0.8259 0.14204 0.37777 0.0
C1333 C 0.81066 0.13792 0.33446 0.0
C1334 C 0.85482 0.09429 0.36684 0.0
C1335 C 0.8268 0.16202 0.40869 0.0
C1336 C 0.88142 0.1562 0.46501 0.0
C1337 C 0.88901 0.16598 0.40937 0.0
C1338 C 0.86763 0.14137 0.45748 0.0
C1339 C 0.86114 0.13678 0.3932 0.0
C1340 C 0.871 0.14453 0.33708 0.0
C1341 C 0.88496 0.15901 0.34614 0.0
C1342 C 0.85882 0.13217 0.51854 0.0
C1343 C 0.86525 0.13937 0.26709 0.0
H1344 H 0.82416 0.09272 0.28432 0.0
H1345 H 0.79984 0.14896 0.32379 0.0
H1346 H 0.86382 0.09279 0.32144 0.0
H1347 H 0.86446 0.09766 0.40929 0.0
H1348 H 0.84766 0.08002 0.37594 0.0
H1349 H 0.81268 0.16982 0.4052 0.0
H1350 H 0.83086 0.16086 0.46159 0.0
H1351 H 0.83806 0.17092 0.38319 0.0
H1352 H 0.88487 0.16115 0.51443 0.0
H1353 H 0.89156 0.16602 0.30347 0.0
H1354 H 0.85103 0.11841 0.5073 0.0
H1355 H 0.84848 0.14252 0.54175 0.0
H1356 H 0.87034 0.1291 0.55558 0.0
H1357 H 0.86564 0.12336 0.26028 0.0
H1358 H 0.87501 0.14613 0.22955 0.0
H1359 H 0.85018 0.14438 0.25725 0.0
C1360 C 0.85848 0.91246 0.30102 0.0
C1361 C 0.85439 0.91268 0.3689 0.0
C1362 C 0.87522 0.9032 0.27778 0.0
C1363 C 0.88777 0.89428 0.32423 0.0
C1364 C 0.88645 0.89951 0.39153 0.0
C1365 C 0.86932 0.90838 0.41392 0.0
C1366 C 0.87734 0.89976 0.20439 0.0
C1367 C 0.90121 0.89247 0.44109 0.0
C1368 C 0.88614 0.84088 0.28791 0.0
C1369 C 0.90158 0.83914 0.2436 0.0
C1370 C 0.88246 0.85849 0.31956 0.0
C1371 C 0.89503 0.87463 0.30768 0.0
C1372 C 0.91203 0.87216 0.26909 0.0
C1373 C 0.9149 0.85447 0.23617 0.0
C1374 C 0.86405 0.86006 0.36049 0.0
C1375 C 0.92672 0.88824 0.25916 0.0
H1376 H 0.84754 0.91728 0.26612 0.0
H1377 H 0.86678 0.90953 0.46669 0.0
H1378 H 0.8926 0.90223 0.18869 0.0
H1379 H 0.87349 0.88443 0.19288 0.0
H1380 H 0.86775 0.90951 0.17497 0.0
H1381 H 0.90219 0.90267 0.48351 0.0
H1382 H 0.89673 0.87803 0.46073 0.0
H1383 H 0.91578 0.89094 0.41775 0.0
H1384 H 0.87601 0.82888 0.29362 0.0
H1385 H 0.92723 0.85284 0.20315 0.0
H1386 H 0.85402 0.8708 0.33771 0.0
H1387 H 0.86747 0.86497 0.41129 0.0
H1388 H 0.85618 0.84596 0.36463 0.0
H1389 H 0.92611 0.8935 0.20717 0.0
H1390 H 0.94161 0.88243 0.26712 0.0
H1391 H 0.92439 0.90072 0.293 0.0
C1392 C 0.18897 0.85013 0.11415 0.0
C1393 C 0.20567 0.85774 0.14417 0.0
C1394 C 0.18042 0.8331 0.13861 0.0
C1395 C 0.18867 0.824 0.19477 0.0
C1396 C 0.20755 0.82921 0.2154 0.0
C1397 C 0.21587 0.84629 0.19005 0.0
C1398 C 0.16085 0.82701 0.11219 0.0
C1399 C 0.21745 0.81874 0.2717 0.0
C1400 C 0.15078 0.82167 0.32832 0.0
C1401 C 0.1449 0.80222 0.32553 0.0
C1402 C 0.16582 0.82857 0.28843 0.0
C1403 C 0.1752 0.81561 0.24409 0.0
C1404 C 0.17009 0.79567 0.24339 0.0
C1405 C 0.15484 0.7892 0.28411 0.0
C1406 C 0.17091 0.85001 0.29178 0.0
C1407 C 0.17997 0.78126 0.19827 0.0
H1408 H 0.18135 0.85846 0.07676 0.0
H1409 H 0.22949 0.85145 0.21022 0.0
H1410 H 0.1595 0.81091 0.11189 0.0
H1411 H 0.14923 0.8329 0.14471 0.0
H1412 H 0.15845 0.83263 0.0612 0.0
H1413 H 0.23349 0.82051 0.26889 0.0
H1414 H 0.21239 0.82497 0.31936 0.0
H1415 H 0.21381 0.80298 0.27166 0.0
H1416 H 0.14303 0.8318 0.35975 0.0
H1417 H 0.15059 0.77401 0.28295 0.0
H1418 H 0.1679 0.85714 0.24351 0.0
H1419 H 0.1866 0.85187 0.30266 0.0
H1420 H 0.1625 0.8578 0.33056 0.0
H1421 H 0.17104 0.77936 0.15311 0.0
H1422 H 0.18112 0.76678 0.22277 0.0
H1423 H 0.19473 0.78608 0.18303 0.0
C1424 C 0.87023 0.82675 0.84138 0.0
C1425 C 0.88371 0.83178 0.89124 0.0
C1426 C 0.86055 0.84078 0.80205 0.0
C1427 C 0.86414 0.86092 0.81111 0.0
C1428 C 0.87787 0.8663 0.8608 0.0
C1429 C 0.88738 0.85179 0.90024 0.0
C1430 C 0.84599 0.83389 0.75138 0.0
C1431 C 0.88244 0.88747 0.87256 0.0
C1432 C 0.84417 0.89361 0.66826 0.0
C1433 C 0.82576 0.89909 0.69263 0.0
C1434 C 0.85733 0.88225 0.70728 0.0
C1435 C 0.85209 0.87591 0.77242 0.0
C1436 C 0.83386 0.88209 0.79771 0.0
C1437 C 0.82122 0.89351 0.75832 0.0
C1438 C 0.8766 0.87644 0.67772 0.0
C1439 C 0.8271 0.87574 0.86568 0.0
H1440 H 0.86692 0.81153 0.83298 0.0
H1441 H 0.89771 0.85614 0.93778 0.0
H1442 H 0.83131 0.83944 0.76416 0.0
H1443 H 0.84979 0.83974 0.70173 0.0
H1444 H 0.84527 0.81775 0.74828 0.0
H1445 H 0.89448 0.88942 0.90846 0.0
H1446 H 0.88645 0.89469 0.82518 0.0
H1447 H 0.86934 0.89499 0.8919 0.0
H1448 H 0.84809 0.89763 0.61802 0.0
H1449 H 0.80724 0.89757 0.77897 0.0
H1450 H 0.87645 0.86064 0.66643 0.0
H1451 H 0.8885 0.879 0.71366 0.0
H1452 H 0.87985 0.88459 0.63131 0.0
H1453 H 0.82479 0.85973 0.86622 0.0
H1454 H 0.8133 0.88292 0.88064 0.0
H1455 H 0.83836 0.87904 0.9032 0.0
C1456 C 0.11586 0.85521 0.67218 0.0
C1457 C 0.12541 0.84003 0.63867 0.0
C1458 C 0.12596 0.86801 0.71534 0.0
C1459 C 0.14622 0.86555 0.72698 0.0
C1460 C 0.15598 0.8505 0.69189 0.0
C1461 C 0.14552 0.83796 0.64903 0.0
C1462 C 0.11472 0.88371 0.7507 0.0
C1463 C 0.17745 0.84708 0.70172 0.0
C1464 C 0.17806 0.90729 0.79431 0.0
C1465 C 0.1808 0.90232 0.86146 0.0
C1466 C 0.16648 0.89594 0.75133 0.0
C1467 C 0.15728 0.87874 0.77478 0.0
C1468 C 0.15945 0.87389 0.84316 0.0
C1469 C 0.17105 0.88571 0.88554 0.0
C1470 C 0.16464 0.90211 0.6798 0.0
C1471 C 0.1501 0.85576 0.87114 0.0
H1472 H 0.10021 0.85646 0.66734 0.0
H1473 H 0.15296 0.82581 0.62607 0.0
H1474 H 0.11477 0.88077 0.80475 0.0
H1475 H 0.12177 0.89808 0.74277 0.0
H1476 H 0.09939 0.8846 0.73372 0.0
H1477 H 0.18313 0.83525 0.66964 0.0
H1478 H 0.1857 0.86062 0.69089 0.0
H1479 H 0.18027 0.84316 0.75417 0.0
H1480 H 0.18545 0.92002 0.77455 0.0
H1481 H 0.17319 0.88141 0.93669 0.0
H1482 H 0.14909 0.90297 0.66562 0.0
H1483 H 0.17158 0.89106 0.64749 0.0
H1484 H 0.17158 0.91645 0.66989 0.0
H1485 H 0.13428 0.85577 0.86044 0.0
H1486 H 0.1522 0.85442 0.92548 0.0
H1487 H 0.15641 0.84272 0.84693 0.0
C1488 C 0.17492 0.11069 0.74293 0.0
C1489 C 0.18063 0.11817 0.68077 0.0
C1490 C 0.16296 0.12131 0.78705 0.0
C1491 C 0.15666 0.14039 0.77032 0.0
C1492 C 0.16198 0.1479 0.70681 0.0
C1493 C 0.17371 0.13672 0.66283 0.0
C1494 C 0.15751 0.11224 0.85274 0.0
C1495 C 0.15594 0.16816 0.68634 0.0
C1496 C 0.11352 0.16428 0.86269 0.0
C1497 C 0.12267 0.17638 0.90927 0.0
C1498 C 0.12424 0.15219 0.81906 0.0
C1499 C 0.1449 0.15245 0.81969 0.0
C1500 C 0.15424 0.16431 0.8678 0.0
C1501 C 0.1431 0.17601 0.91176 0.0
C1502 C 0.11337 0.13966 0.77037 0.0
C1503 C 0.17613 0.1654 0.87073 0.0
H1504 H 0.1803 0.0965 0.75798 0.0
H1505 H 0.17835 0.14296 0.61598 0.0
H1506 H 0.16422 0.12063 0.89356 0.0
H1507 H 0.14151 0.1128 0.85998 0.0
H1508 H 0.16233 0.09684 0.85673 0.0
H1509 H 0.16059 0.17177 0.63501 0.0
H1510 H 0.13991 0.16967 0.68986 0.0
H1511 H 0.16241 0.17895 0.72061 0.0
H1512 H 0.09781 0.1649 0.8584 0.0
H1513 H 0.15046 0.18581 0.94536 0.0
H1514 H 0.11859 0.12438 0.7733 0.0
H1515 H 0.11622 0.14493 0.71925 0.0
H1516 H 0.09742 0.13983 0.7793 0.0
H1517 H 0.18235 0.15061 0.8772 0.0
H1518 H 0.1813 0.17478 0.91177 0.0
H1519 H 0.18185 0.17131 0.82328 0.0
C1520 C 0.84351 0.15608 0.93725 0.0
C1521 C 0.84083 0.13583 0.93165 0.0
C1522 C 0.85649 0.16649 0.89489 0.0
C1523 C 0.86704 0.15664 0.84427 0.0
C1524 C 0.86481 0.13609 0.84001 0.0
C1525 C 0.85175 0.1261 0.88291 0.0
C1526 C 0.85816 0.18828 0.90221 0.0
C1527 C 0.87553 0.12467 0.78771 0.0
C1528 C 0.88481 0.18506 0.68839 0.0
C1529 C 0.90469 0.18818 0.7014 0.0
C1530 C 0.87251 0.17499 0.73396 0.0
C1531 C 0.87999 0.16775 0.79504 0.0
C1532 C 0.90003 0.17087 0.80828 0.0
C1533 C 0.91198 0.18088 0.76185 0.0
C1534 C 0.85141 0.17204 0.71649 0.0
C1535 C 0.90894 0.16356 0.87187 0.0
H1536 H 0.83458 0.164 0.97229 0.0
H1537 H 0.84926 0.11064 0.87584 0.0
H1538 H 0.87366 0.19262 0.90602 0.0
H1539 H 0.85214 0.19554 0.85757 0.0
H1540 H 0.85024 0.1937 0.94645 0.0
H1541 H 0.87337 0.10871 0.79336 0.0
H1542 H 0.87037 0.12913 0.73791 0.0
H1543 H 0.89134 0.12786 0.78983 0.0
H1544 H 0.87882 0.19045 0.64228 0.0
H1545 H 0.9272 0.18308 0.77341 0.0
H1546 H 0.842 0.17855 0.75522 0.0
H1547 H 0.84805 0.15624 0.71483 0.0
H1548 H 0.84764 0.17865 0.66789 0.0
H1549 H 0.9012 0.16994 0.91489 0.0
H1550 H 0.92463 0.16724 0.87561 0.0
H1551 H 0.90729 0.14751 0.87539 0.0
C1552 C 0.68108 0.65993 0.91283 0.0
C1553 C 0.70111 0.65736 0.91683 0.0
C1554 C 0.67346 0.67737 0.88876 0.0
C1555 C 0.68638 0.69268 0.87079 0.0
C1556 C 0.70647 0.691 0.88412 0.0
C1557 C 0.71373 0.67302 0.90554 0.0
C1558 C 0.65184 0.67843 0.87552 0.0
C1559 C 0.72055 0.70745 0.87124 0.0
C1560 C 0.66607 0.7113 0.71385 0.0
C1561 C 0.65138 0.72324 0.7393 0.0
C1562 C 0.67991 0.70308 0.75572 0.0
C1563 C 0.67926 0.70754 0.82404 0.0
C1564 C 0.66705 0.72258 0.84709 0.0
C1565 C 0.65281 0.73002 0.80462 0.0
C1566 C 0.69344 0.68775 0.72824 0.0
C1567 C 0.66755 0.72919 0.91815 0.0
H1568 H 0.67156 0.64766 0.92278 0.0
H1569 H 0.72928 0.67096 0.91111 0.0
H1570 H 0.64546 0.69133 0.90015 0.0
H1571 H 0.64922 0.67994 0.82153 0.0
H1572 H 0.64397 0.66528 0.8935 0.0
H1573 H 0.73121 0.70838 0.91233 0.0
H1574 H 0.72894 0.70445 0.8254 0.0
H1575 H 0.71314 0.72173 0.86598 0.0
H1576 H 0.66589 0.70718 0.6622 0.0
H1577 H 0.64203 0.73993 0.82431 0.0
H1578 H 0.68974 0.67329 0.74973 0.0
H1579 H 0.70867 0.69112 0.74183 0.0
H1580 H 0.69259 0.68669 0.67346 0.0
H1581 H 0.65713 0.72044 0.94795 0.0
H1582 H 0.66316 0.74472 0.92208 0.0
H1583 H 0.68227 0.72735 0.93974 0.0
C1584 C 0.30104 0.66746 0.68676 0.0
C1585 C 0.29273 0.65155 0.72 0.0
C1586 C 0.31163 0.68138 0.72158 0.0
C1587 C 0.31356 0.67923 0.79084 0.0
C1588 C 0.30209 0.66547 0.82545 0.0
C1589 C 0.29188 0.6515 0.78934 0.0
C1590 C 0.32306 0.69647 0.68327 0.0
C1591 C 0.30287 0.66373 0.89986 0.0
C1592 C 0.36586 0.6824 0.84289 0.0
C1593 C 0.36678 0.70143 0.86575 0.0
C1594 C 0.3483 0.67483 0.82022 0.0
C1595 C 0.33135 0.68664 0.82219 0.0
C1596 C 0.33211 0.7056 0.84901 0.0
C1597 C 0.35005 0.71292 0.86976 0.0
C1598 C 0.34813 0.65447 0.79184 0.0
C1599 C 0.31436 0.71845 0.85379 0.0
H1600 H 0.30072 0.66808 0.63318 0.0
H1601 H 0.28496 0.63954 0.81544 0.0
H1602 H 0.32252 0.71075 0.70857 0.0
H1603 H 0.33853 0.6919 0.68046 0.0
H1604 H 0.31752 0.69828 0.632 0.0
H1605 H 0.2898 0.65615 0.91974 0.0
H1606 H 0.31589 0.65517 0.91419 0.0
H1607 H 0.30404 0.6783 0.92311 0.0
H1608 H 0.37905 0.67379 0.84081 0.0
H1609 H 0.35113 0.72764 0.88866 0.0
H1610 H 0.34341 0.65493 0.73937 0.0
H1611 H 0.33765 0.6452 0.8195 0.0
H1612 H 0.36266 0.64741 0.79402 0.0
H1613 H 0.31326 0.72746 0.80823 0.0
H1614 H 0.31553 0.72855 0.89644 0.0
H1615 H 0.30077 0.70985 0.85901 0.0
C1616 C 0.33665 0.42212 0.769 0.0
C1617 C 0.32126 0.40874 0.77094 0.0
C1618 C 0.35311 0.41846 0.73017 0.0
C1619 C 0.35426 0.40064 0.69575 0.0
C1620 C 0.33739 0.38889 0.68888 0.0
C1621 C 0.32093 0.39325 0.72655 0.0
C1622 C 0.36993 0.43252 0.73255 0.0
C1623 C 0.33758 0.37011 0.65005 0.0
C1624 C 0.39156 0.37099 0.61105 0.0
C1625 C 0.39571 0.35797 0.66307 0.0
C1626 C 0.38062 0.38781 0.62276 0.0
C1627 C 0.37329 0.39105 0.68706 0.0
C1628 C 0.38049 0.37995 0.74106 0.0
C1629 C 0.39182 0.36355 0.72818 0.0
C1630 C 0.37506 0.40062 0.56504 0.0
C1631 C 0.37399 0.38358 0.8115 0.0
H1632 H 0.33641 0.43466 0.8013 0.0
H1633 H 0.30873 0.38324 0.72716 0.0
H1634 H 0.37714 0.43152 0.7815 0.0
H1635 H 0.38083 0.42966 0.69313 0.0
H1636 H 0.36451 0.44769 0.72711 0.0
H1637 H 0.32288 0.36347 0.64645 0.0
H1638 H 0.34309 0.37274 0.59921 0.0
H1639 H 0.34739 0.35942 0.6743 0.0
H1640 H 0.39518 0.36728 0.56046 0.0
H1641 H 0.3961 0.3541 0.76868 0.0
H1642 H 0.38779 0.40282 0.53183 0.0
H1643 H 0.3696 0.41505 0.58134 0.0
H1644 H 0.3636 0.39335 0.5355 0.0
H1645 H 0.37636 0.39905 0.82472 0.0
H1646 H 0.38194 0.37434 0.8477 0.0
H1647 H 0.35821 0.38045 0.81653 0.0
C1648 C 0.72394 0.34428 0.6974 0.0
C1649 C 0.71161 0.35492 0.65546 0.0
C1650 C 0.71751 0.32688 0.72644 0.0
C1651 C 0.6983 0.3207 0.71423 0.0
C1652 C 0.6877 0.32903 0.66124 0.0
C1653 C 0.69448 0.34629 0.63254 0.0
C1654 C 0.73 0.31694 0.77757 0.0
C1655 C 0.66767 0.32186 0.64304 0.0
C1656 C 0.66446 0.28708 0.80502 0.0
C1657 C 0.65464 0.30071 0.84452 0.0
C1658 C 0.68071 0.29262 0.76743 0.0
C1659 C 0.68689 0.31223 0.76918 0.0
C1660 C 0.67852 0.32531 0.81547 0.0
C1661 C 0.66247 0.31932 0.85252 0.0
C1662 C 0.69009 0.2778 0.72269 0.0
C1663 C 0.68499 0.34632 0.82103 0.0
H1664 H 0.73786 0.3503 0.71175 0.0
H1665 H 0.68526 0.35405 0.59805 0.0
H1666 H 0.7274 0.32368 0.82665 0.0
H1667 H 0.72647 0.30119 0.78142 0.0
H1668 H 0.74568 0.31868 0.76539 0.0
H1669 H 0.66272 0.328 0.59497 0.0
H1670 H 0.66751 0.30575 0.63977 0.0
H1671 H 0.65711 0.32622 0.68194 0.0
H1672 H 0.65897 0.27233 0.80119 0.0
H1673 H 0.65512 0.3298 0.88368 0.0
H1674 H 0.70455 0.28257 0.70426 0.0
H1675 H 0.68048 0.27506 0.67968 0.0
H1676 H 0.69176 0.26372 0.74944 0.0
H1677 H 0.70089 0.34712 0.82945 0.0
H1678 H 0.67762 0.35405 0.86228 0.0
H1679 H 0.68172 0.35424 0.77438 0.0
C1680 C 0.3488 0.39687 0.16966 0.0
C1681 C 0.3359 0.38625 0.12961 0.0
C1682 C 0.36209 0.38745 0.21334 0.0
C1683 C 0.36269 0.36673 0.21808 0.0
C1684 C 0.35011 0.356 0.17596 0.0
C1685 C 0.33686 0.36578 0.13347 0.0
C1686 C 0.37488 0.39976 0.25693 0.0
C1687 C 0.35007 0.33402 0.17761 0.0
C1688 C 0.40758 0.34086 0.294 0.0
C1689 C 0.40129 0.33541 0.35805 0.0
C1690 C 0.39539 0.35098 0.24885 0.0
C1691 C 0.37615 0.35628 0.26722 0.0
C1692 C 0.36975 0.35108 0.33217 0.0
C1693 C 0.38221 0.34069 0.37621 0.0
C1694 C 0.40309 0.35579 0.18068 0.0
C1695 C 0.34959 0.35645 0.35526 0.0
H1696 H 0.34775 0.41262 0.16975 0.0
H1697 H 0.32653 0.35733 0.10502 0.0
H1698 H 0.37081 0.39741 0.30957 0.0
H1699 H 0.39032 0.39535 0.25137 0.0
H1700 H 0.37361 0.41554 0.24531 0.0
H1701 H 0.34051 0.3277 0.13902 0.0
H1702 H 0.36505 0.32839 0.17035 0.0
H1703 H 0.34499 0.32885 0.22681 0.0
H1704 H 0.42215 0.33695 0.27836 0.0
H1705 H 0.37698 0.33676 0.42515 0.0
H1706 H 0.40235 0.37173 0.17183 0.0
H1707 H 0.3939 0.34871 0.14264 0.0
H1708 H 0.41837 0.35094 0.17368 0.0
H1709 H 0.34736 0.3724 0.35014 0.0
H1710 H 0.34693 0.35219 0.40765 0.0
H1711 H 0.3386 0.34919 0.3237 0.0
C1712 C 0.67279 0.38135 0.38874 0.0
C1713 C 0.67987 0.39986 0.37068 0.0
C1714 C 0.66114 0.37015 0.34469 0.0
C1715 C 0.65609 0.37758 0.28092 0.0
C1716 C 0.66255 0.39661 0.26403 0.0
C1717 C 0.67441 0.40726 0.30826 0.0
C1718 C 0.65491 0.34996 0.36541 0.0
C1719 C 0.65741 0.4056 0.19806 0.0
C1720 C 0.64281 0.34188 0.1394 0.0
C1721 C 0.62236 0.34172 0.14098 0.0
C1722 C 0.65387 0.35352 0.18369 0.0
C1723 C 0.64442 0.36549 0.23141 0.0
C1724 C 0.62375 0.3659 0.23132 0.0
C1725 C 0.61311 0.3539 0.18727 0.0
C1726 C 0.67575 0.35226 0.18145 0.0
C1727 C 0.61278 0.37852 0.27963 0.0
H1728 H 0.67723 0.37516 0.43579 0.0
H1729 H 0.67988 0.42141 0.29308 0.0
H1730 H 0.63888 0.3485 0.36149 0.0
H1731 H 0.66146 0.33908 0.33154 0.0
H1732 H 0.65932 0.34642 0.41694 0.0
H1733 H 0.66238 0.42096 0.19384 0.0
H1734 H 0.66418 0.39708 0.15754 0.0
H1735 H 0.64144 0.40514 0.19054 0.0
H1736 H 0.65024 0.33199 0.10614 0.0
H1737 H 0.59738 0.35341 0.191 0.0
H1738 H 0.68122 0.34639 0.22916 0.0
H1739 H 0.68212 0.367 0.17488 0.0
H1740 H 0.68102 0.34278 0.14073 0.0
H1741 H 0.61542 0.37331 0.33087 0.0
H1742 H 0.59686 0.37839 0.27041 0.0
H1743 H 0.61807 0.39377 0.27657 0.0
C1744 C 0.67388 0.62948 0.1812 0.0
C1745 C 0.68409 0.6129 0.20286 0.0
C1746 C 0.66267 0.64096 0.22596 0.0
C1747 C 0.66135 0.6358 0.29436 0.0
C1748 C 0.67093 0.61857 0.3154 0.0
C1749 C 0.68214 0.60757 0.27007 0.0
C1750 C 0.65289 0.65914 0.20049 0.0
C1751 C 0.66995 0.61205 0.3868 0.0
C1752 C 0.65117 0.67638 0.42244 0.0
C1753 C 0.63111 0.67458 0.43505 0.0
C1754 C 0.66113 0.66374 0.37841 0.0
C1755 C 0.65091 0.64879 0.34455 0.0
C1756 C 0.63077 0.64642 0.35902 0.0
C1757 C 0.62117 0.65936 0.40315 0.0
C1758 C 0.6825 0.66711 0.36552 0.0
C1759 C 0.61908 0.63077 0.32527 0.0
H1760 H 0.67543 0.63407 0.13006 0.0
H1761 H 0.68993 0.59488 0.28799 0.0
H1762 H 0.63725 0.65904 0.21413 0.0
H1763 H 0.65953 0.67212 0.22397 0.0
H1764 H 0.65421 0.66067 0.14587 0.0
H1765 H 0.6769 0.59762 0.39466 0.0
H1766 H 0.67739 0.62289 0.41853 0.0
H1767 H 0.65459 0.61121 0.40356 0.0
H1768 H 0.65892 0.68856 0.44397 0.0
H1769 H 0.60553 0.65832 0.40952 0.0
H1770 H 0.68473 0.6713 0.31292 0.0
H1771 H 0.69078 0.65347 0.37422 0.0
H1772 H 0.68861 0.67873 0.3974 0.0
H1773 H 0.61816 0.63402 0.27152 0.0
H1774 H 0.60408 0.62964 0.34557 0.0
H1775 H 0.62636 0.61643 0.33068 0.0
C1776 C 0.33627 0.64973 0.4124 0.0
C1777 C 0.33358 0.62958 0.4036 0.0
C1778 C 0.34856 0.66088 0.36963 0.0
C1779 C 0.35852 0.65189 0.31575 0.0
C1780 C 0.35641 0.63141 0.30854 0.0
C1781 C 0.34394 0.6207 0.35155 0.0
C1782 C 0.35004 0.68256 0.38009 0.0
C1783 C 0.36661 0.62084 0.25312 0.0
C1784 C 0.37248 0.68374 0.16306 0.0
C1785 C 0.39215 0.68828 0.17433 0.0
C1786 C 0.3616 0.67173 0.2074 0.0
C1787 C 0.37037 0.66391 0.26556 0.0
C1788 C 0.39043 0.66795 0.27585 0.0
C1789 C 0.40087 0.68018 0.23112 0.0
C1790 C 0.34036 0.66819 0.19348 0.0
C1791 C 0.40077 0.65996 0.33586 0.0
H1792 H 0.32781 0.65703 0.45026 0.0
H1793 H 0.34153 0.60534 0.34233 0.0
H1794 H 0.36552 0.68708 0.38214 0.0
H1795 H 0.34332 0.69031 0.33761 0.0
H1796 H 0.34266 0.68726 0.42634 0.0
H1797 H 0.365 0.60477 0.25734 0.0
H1798 H 0.36053 0.62559 0.20488 0.0
H1799 H 0.38233 0.6245 0.25272 0.0
H1800 H 0.36523 0.6905 0.12129 0.0
H1801 H 0.41577 0.68412 0.24223 0.0
H1802 H 0.33139 0.67477 0.2333 0.0
H1803 H 0.33726 0.65233 0.19339 0.0
H1804 H 0.33578 0.67448 0.14521 0.0
H1805 H 0.39454 0.66654 0.3813 0.0
H1806 H 0.41663 0.66302 0.33452 0.0
H1807 H 0.39856 0.64398 0.33957 0.0
loop_
_geom_bond_atom_site_label_1
_geom_bond_atom_site_label_2
_geom_bond_distance
_geom_bond_site_symmetry_2
_ccdc_geom_bond_type
C0 C1 1.351 . S
C0 N3 1.368 . S
C0 H5 0.931 . S
C1 C0 1.351 . S
C1 N2 1.373 . S
C1 H29 0.930 . S
N2 C1 1.373 . S
N2 C4 1.340 . S
N3 C0 1.368 . S
N3 C4 1.321 . S
N3 Co6 2.135 . S
C4 N2 1.340 . S
C4 N3 1.321 . S
C4 H28 0.930 . S
H5 C0 0.931 . S
Co6 N3 2.135 . S
Co6 N9 2.121 1_554 S
Co6 O14 2.055 . S
Co6 O17 2.039 1_554 S
Co6 N20 2.140 . S
C7 O8 1.227 . S
C7 O17 1.265 . S
O8 C7 1.227 . S
N9 Co6 2.121 1_556 S
N9 C11 1.375 . S
N9 C12 1.313 . S
C10 C11 1.338 . S
C10 N13 1.377 . S
C10 H30 0.930 . S
C11 N9 1.375 . S
C11 C10 1.338 . S
C11 H15 0.931 . S
C12 N9 1.313 . S
C12 N13 1.344 . S
C12 H16 0.930 . S
N13 C10 1.377 . S
N13 C12 1.344 . S
O14 Co6 2.055 . S
O14 C18 1.253 . S
H15 C11 0.931 . S
H16 C12 0.930 . S
O17 Co6 2.039 1_556 S
O17 C7 1.265 . S
C18 O14 1.253 . S
C18 O19 1.227 . S
O19 C18 1.227 . S
N20 Co6 2.140 . S
N20 C23 1.346 . S
N20 C24 1.345 1_554 S
C21 C22 1.386 1_556 S
C21 C25 1.392 . S
C22 C21 1.386 1_554 S
C22 C23 1.369 . S
C22 H31 0.929 . S
C23 N20 1.346 . S
C23 C22 1.369 . S
C23 H26 0.928 . S
C24 N20 1.345 1_556 S
C24 C25 1.371 . S
C24 H27 0.931 . S
C25 C21 1.392 . S
C25 C24 1.371 . S
C25 H32 0.930 . S
H26 C23 0.928 . S
H27 C24 0.931 . S
H28 C4 0.930 . S
H29 C1 0.930 . S
H30 C10 0.930 . S
H31 C22 0.929 . S
H32 C25 0.930 . S
C33 C34 1.351 . S
C33 N36 1.368 . S
C33 H38 0.931 . S
C34 C33 1.351 . S
C34 N35 1.373 . S
C34 H62 0.930 . S
N35 C34 1.373 . S
N35 C37 1.340 . S
N36 C33 1.368 . S
N36 C37 1.321 . S
N36 Co39 2.135 . S
C37 N35 1.340 . S
C37 N36 1.321 . S
C37 H61 0.930 . S
H38 C33 0.931 . S
Co39 N36 2.135 . S
Co39 N42 2.121 1_554 S
Co39 O47 2.055 . S
Co39 O50 2.039 1_554 S
Co39 N53 2.140 . S
C40 O41 1.227 . S
C40 O50 1.265 . S
O41 C40 1.227 . S
N42 Co39 2.121 1_556 S
N42 C44 1.375 . S
N42 C45 1.313 . S
C43 C44 1.338 . S
C43 N46 1.377 . S
C43 H63 0.930 . S
C44 N42 1.375 . S
C44 C43 1.338 . S
C44 H48 0.931 . S
C45 N42 1.313 . S
C45 N46 1.344 . S
C45 H49 0.930 . S
N46 C43 1.377 . S
N46 C45 1.344 . S
O47 Co39 2.055 . S
O47 C51 1.253 . S
H48 C44 0.931 . S
H49 C45 0.930 . S
O50 Co39 2.039 1_556 S
O50 C40 1.265 . S
C51 O47 1.253 . S
C51 O52 1.227 . S
O52 C51 1.227 . S
N53 Co39 2.140 . S
N53 C56 1.346 . S
N53 C57 1.345 1_554 S
C54 C55 1.386 1_556 S
C54 C58 1.392 . S
C55 C54 1.386 1_554 S
C55 C56 1.369 . S
C55 H64 0.929 . S
C56 N53 1.346 . S
C56 C55 1.369 . S
C56 H59 0.928 . S
C57 N53 1.345 1_556 S
C57 C58 1.371 . S
C57 H60 0.931 . S
C58 C54 1.392 . S
C58 C57 1.371 . S
C58 H65 0.930 . S
H59 C56 0.928 . S
H60 C57 0.931 . S
H61 C37 0.930 . S
H62 C34 0.930 . S
H63 C43 0.930 . S
H64 C55 0.929 . S
H65 C58 0.930 . S
C66 C67 1.351 . S
C66 N69 1.368 . S
C66 H71 0.931 . S
C67 C66 1.351 . S
C67 N68 1.373 . S
C67 H95 0.930 . S
N68 C67 1.373 . S
N68 C70 1.340 . S
N69 C66 1.368 . S
N69 C70 1.321 . S
N69 Co72 2.135 . S
C70 N68 1.340 . S
C70 N69 1.321 . S
C70 H94 0.930 . S
H71 C66 0.931 . S
Co72 N69 2.135 . S
Co72 N75 2.121 1_554 S
Co72 O80 2.055 . S
Co72 O83 2.039 1_554 S
Co72 N86 2.140 . S
C73 O74 1.227 . S
C73 O83 1.265 . S
O74 C73 1.227 . S
N75 Co72 2.121 1_556 S
N75 C77 1.375 . S
N75 C78 1.313 . S
C76 C77 1.338 . S
C76 N79 1.377 . S
C76 H96 0.930 . S
C77 N75 1.375 . S
C77 C76 1.338 . S
C77 H81 0.931 . S
C78 N75 1.313 . S
C78 N79 1.344 . S
C78 H82 0.930 . S
N79 C76 1.377 . S
N79 C78 1.344 . S
O80 Co72 2.055 . S
O80 C84 1.253 . S
H81 C77 0.931 . S
H82 C78 0.930 . S
O83 Co72 2.039 1_556 S
O83 C73 1.265 . S
C84 O80 1.253 . S
C84 O85 1.227 . S
O85 C84 1.227 . S
N86 Co72 2.140 . S
N86 C89 1.346 . S
N86 C90 1.345 1_554 S
C87 C88 1.386 1_556 S
C87 C91 1.392 . S
C88 C87 1.386 1_554 S
C88 C89 1.369 . S
C88 H97 0.929 . S
C89 N86 1.346 . S
C89 C88 1.369 . S
C89 H92 0.928 . S
C90 N86 1.345 1_556 S
C90 C91 1.371 . S
C90 H93 0.931 . S
C91 C87 1.392 . S
C91 C90 1.371 . S
C91 H98 0.930 . S
H92 C89 0.928 . S
H93 C90 0.931 . S
H94 C70 0.930 . S
H95 C67 0.930 . S
H96 C76 0.930 . S
H97 C88 0.929 . S
H98 C91 0.930 . S
C99 C100 1.351 . S
C99 N102 1.368 . S
C99 H104 0.931 . S
C100 C99 1.351 . S
C100 N101 1.373 . S
C100 H128 0.930 . S
N101 C100 1.373 . S
N101 C103 1.340 . S
N102 C99 1.368 . S
N102 C103 1.321 . S
N102 Co105 2.135 . S
C103 N101 1.340 . S
C103 N102 1.321 . S
C103 H127 0.930 . S
H104 C99 0.931 . S
Co105 N102 2.135 . S
Co105 N108 2.121 1_554 S
Co105 O113 2.055 . S
Co105 O116 2.039 1_554 S
Co105 N119 2.140 . S
C106 O107 1.227 . S
C106 O116 1.265 . S
O107 C106 1.227 . S
N108 Co105 2.121 1_556 S
N108 C110 1.375 . S
N108 C111 1.313 . S
C109 C110 1.338 . S
C109 N112 1.377 . S
C109 H129 0.930 . S
C110 N108 1.375 . S
C110 C109 1.338 . S
C110 H114 0.931 . S
C111 N108 1.313 . S
C111 N112 1.344 . S
C111 H115 0.930 . S
N112 C109 1.377 . S
N112 C111 1.344 . S
O113 Co105 2.055 . S
O113 C117 1.253 . S
H114 C110 0.931 . S
H115 C111 0.930 . S
O116 Co105 2.039 1_556 S
O116 C106 1.265 . S
C117 O113 1.253 . S
C117 O118 1.227 . S
O118 C117 1.227 . S
N119 Co105 2.140 . S
N119 C122 1.346 . S
N119 C123 1.345 1_554 S
C120 C121 1.386 1_556 S
C120 C124 1.392 . S
C121 C120 1.386 1_554 S
C121 C122 1.369 . S
C121 H130 0.929 . S
C122 N119 1.346 . S
C122 C121 1.369 . S
C122 H125 0.928 . S
C123 N119 1.345 1_556 S
C123 C124 1.371 . S
C123 H126 0.931 . S
C124 C120 1.392 . S
C124 C123 1.371 . S
C124 H131 0.930 . S
H125 C122 0.928 . S
H126 C123 0.931 . S
H127 C103 0.930 . S
H128 C100 0.930 . S
H129 C109 0.930 . S
H130 C121 0.929 . S
H131 C124 0.930 . S
C132 C133 1.351 . S
C132 N135 1.368 . S
C132 H137 0.931 . S
C133 C132 1.351 . S
C133 N134 1.373 . S
C133 H161 0.930 . S
N134 C133 1.373 . S
N134 C136 1.340 . S
N135 C132 1.368 . S
N135 C136 1.321 . S
N135 Co138 2.135 . S
C136 N134 1.340 . S
C136 N135 1.321 . S
C136 H160 0.930 . S
H137 C132 0.931 . S
Co138 N135 2.135 . S
Co138 N141 2.121 . S
Co138 O146 2.055 . S
Co138 O149 2.039 . S
Co138 N152 2.140 . S
C139 O140 1.227 . S
C139 O149 1.265 . S
O140 C139 1.227 . S
N141 Co138 2.121 . S
N141 C143 1.375 . S
N141 C144 1.313 . S
C142 C143 1.338 . S
C142 N145 1.377 . S
C142 H162 0.930 . S
C143 N141 1.375 . S
C143 C142 1.338 . S
C143 H147 0.931 . S
C144 N141 1.313 . S
C144 N145 1.344 . S
C144 H148 0.930 . S
N145 C142 1.377 . S
N145 C144 1.344 . S
O146 Co138 2.055 . S
O146 C150 1.253 . S
H147 C143 0.931 . S
H148 C144 0.930 . S
O149 Co138 2.039 . S
O149 C139 1.265 . S
C150 O146 1.253 . S
C150 O151 1.227 . S
O151 C150 1.227 . S
N152 Co138 2.140 . S
N152 C155 1.346 . S
N152 C156 1.345 . S
C153 C154 1.387 . S
C153 C157 1.391 . S
C154 C153 1.387 . S
C154 C155 1.369 . S
C154 H163 0.929 . S
C155 N152 1.346 . S
C155 C154 1.369 . S
C155 H158 0.928 . S
C156 N152 1.345 . S
C156 C157 1.371 . S
C156 H159 0.931 . S
C157 C153 1.391 . S
C157 C156 1.371 . S
C157 H164 0.930 . S
H158 C155 0.928 . S
H159 C156 0.931 . S
H160 C136 0.930 . S
H161 C133 0.930 . S
H162 C142 0.930 . S
H163 C154 0.929 . S
H164 C157 0.930 . S
C165 C166 1.351 . S
C165 N168 1.368 . S
C165 H170 0.931 . S
C166 C165 1.351 . S
C166 N167 1.373 . S
C166 H194 0.930 . S
N167 C166 1.373 . S
N167 C169 1.340 . S
N168 C165 1.368 . S
N168 C169 1.321 . S
N168 Co171 2.135 . S
C169 N167 1.340 . S
C169 N168 1.321 . S
C169 H193 0.930 . S
H170 C165 0.931 . S
Co171 N168 2.135 . S
Co171 N174 2.121 . S
Co171 O179 2.055 . S
Co171 O182 2.039 . S
Co171 N185 2.140 . S
C172 O173 1.227 . S
C172 O182 1.265 . S
O173 C172 1.227 . S
N174 Co171 2.121 . S
N174 C176 1.375 . S
N174 C177 1.313 . S
C175 C176 1.338 . S
C175 N178 1.377 . S
C175 H195 0.930 . S
C176 N174 1.375 . S
C176 C175 1.338 . S
C176 H180 0.931 . S
C177 N174 1.313 . S
C177 N178 1.344 . S
C177 H181 0.930 . S
N178 C175 1.377 . S
N178 C177 1.344 . S
O179 Co171 2.055 . S
O179 C183 1.253 . S
H180 C176 0.931 . S
H181 C177 0.930 . S
O182 Co171 2.039 . S
O182 C172 1.265 . S
C183 O179 1.253 . S
C183 O184 1.227 . S
O184 C183 1.227 . S
N185 Co171 2.140 . S
N185 C188 1.346 . S
N185 C189 1.345 . S
C186 C187 1.387 . S
C186 C190 1.391 . S
C187 C186 1.387 . S
C187 C188 1.369 . S
C187 H196 0.929 . S
C188 N185 1.346 . S
C188 C187 1.369 . S
C188 H191 0.928 . S
C189 N185 1.345 . S
C189 C190 1.371 . S
C189 H192 0.931 . S
C190 C186 1.391 . S
C190 C189 1.371 . S
C190 H197 0.930 . S
H191 C188 0.928 . S
H192 C189 0.931 . S
H193 C169 0.930 . S
H194 C166 0.930 . S
H195 C175 0.930 . S
H196 C187 0.929 . S
H197 C190 0.930 . S
C198 C199 1.351 . S
C198 N201 1.368 . S
C198 H203 0.931 . S
C199 C198 1.351 . S
C199 N200 1.373 . S
C199 H227 0.930 . S
N200 C199 1.373 . S
N200 C202 1.340 . S
N201 C198 1.368 . S
N201 C202 1.321 . S
N201 Co204 2.135 . S
C202 N200 1.340 . S
C202 N201 1.321 . S
C202 H226 0.930 . S
H203 C198 0.931 . S
Co204 N201 2.135 . S
Co204 N207 2.121 . S
Co204 O212 2.055 . S
Co204 O215 2.039 . S
Co204 N218 2.140 . S
C205 O206 1.227 . S
C205 O215 1.265 . S
O206 C205 1.227 . S
N207 Co204 2.121 . S
N207 C209 1.375 . S
N207 C210 1.313 . S
C208 C209 1.338 . S
C208 N211 1.377 . S
C208 H228 0.930 . S
C209 N207 1.375 . S
C209 C208 1.338 . S
C209 H213 0.931 . S
C210 N207 1.313 . S
C210 N211 1.344 . S
C210 H214 0.930 . S
N211 C208 1.377 . S
N211 C210 1.344 . S
O212 Co204 2.055 . S
O212 C216 1.253 . S
H213 C209 0.931 . S
H214 C210 0.930 . S
O215 Co204 2.039 . S
O215 C205 1.265 . S
C216 O212 1.253 . S
C216 O217 1.227 . S
O217 C216 1.227 . S
N218 Co204 2.140 . S
N218 C221 1.346 . S
N218 C222 1.345 . S
C219 C220 1.387 . S
C219 C223 1.391 . S
C220 C219 1.387 . S
C220 C221 1.369 . S
C220 H229 0.929 . S
C221 N218 1.346 . S
C221 C220 1.369 . S
C221 H224 0.928 . S
C222 N218 1.345 . S
C222 C223 1.371 . S
C222 H225 0.931 . S
C223 C219 1.391 . S
C223 C222 1.371 . S
C223 H230 0.930 . S
H224 C221 0.928 . S
H225 C222 0.931 . S
H226 C202 0.930 . S
H227 C199 0.930 . S
H228 C208 0.930 . S
H229 C220 0.929 . S
H230 C223 0.930 . S
C231 C232 1.351 . S
C231 N234 1.368 . S
C231 H236 0.931 . S
C232 C231 1.351 . S
C232 N233 1.373 . S
C232 H260 0.930 . S
N233 C232 1.373 . S
N233 C235 1.340 . S
N234 C231 1.368 . S
N234 C235 1.321 . S
N234 Co237 2.135 . S
C235 N233 1.340 . S
C235 N234 1.321 . S
C235 H259 0.930 . S
H236 C231 0.931 . S
Co237 N234 2.135 . S
Co237 N240 2.121 . S
Co237 O245 2.055 . S
Co237 O248 2.039 . S
Co237 N251 2.140 . S
C238 O239 1.227 . S
C238 O248 1.265 . S
O239 C238 1.227 . S
N240 Co237 2.121 . S
N240 C242 1.375 . S
N240 C243 1.313 . S
C241 C242 1.338 . S
C241 N244 1.377 . S
C241 H261 0.930 . S
C242 N240 1.375 . S
C242 C241 1.338 . S
C242 H246 0.931 . S
C243 N240 1.313 . S
C243 N244 1.344 . S
C243 H247 0.930 . S
N244 C241 1.377 . S
N244 C243 1.344 . S
O245 Co237 2.055 . S
O245 C249 1.253 . S
H246 C242 0.931 . S
H247 C243 0.930 . S
O248 Co237 2.039 . S
O248 C238 1.265 . S
C249 O245 1.253 . S
C249 O250 1.227 . S
O250 C249 1.227 . S
N251 Co237 2.140 . S
N251 C254 1.346 . S
N251 C255 1.345 . S
C252 C253 1.387 . S
C252 C256 1.391 . S
C253 C252 1.387 . S
C253 C254 1.369 . S
C253 H262 0.929 . S
C254 N251 1.346 . S
C254 C253 1.369 . S
C254 H257 0.928 . S
C255 N251 1.345 . S
C255 C256 1.371 . S
C255 H258 0.931 . S
C256 C252 1.391 . S
C256 C255 1.371 . S
C256 H263 0.930 . S
H257 C254 0.928 . S
H258 C255 0.931 . S
H259 C235 0.930 . S
H260 C232 0.930 . S
H261 C241 0.930 . S
H262 C253 0.929 . S
H263 C256 0.930 . S
C264 C265 1.351 . S
C264 N267 1.368 . S
C264 H269 0.931 . S
C265 C264 1.351 . S
C265 N266 1.373 . S
C265 H293 0.930 . S
N266 C265 1.373 . S
N266 C268 1.340 . S
N267 C264 1.368 . S
N267 C268 1.321 . S
N267 Co270 2.135 . S
C268 N266 1.340 . S
C268 N267 1.321 . S
C268 H292 0.930 . S
H269 C264 0.931 . S
Co270 N267 2.135 . S
Co270 N273 2.121 . S
Co270 O278 2.055 . S
Co270 O281 2.039 . S
Co270 N284 2.140 . S
C271 O272 1.227 . S
C271 O281 1.265 . S
O272 C271 1.227 . S
N273 Co270 2.121 . S
N273 C275 1.375 . S
N273 C276 1.313 . S
C274 C275 1.338 . S
C274 N277 1.377 . S
C274 H294 0.930 . S
C275 N273 1.375 . S
C275 C274 1.338 . S
C275 H279 0.931 . S
C276 N273 1.313 . S
C276 N277 1.344 . S
C276 H280 0.930 . S
N277 C274 1.377 . S
N277 C276 1.344 . S
O278 Co270 2.055 . S
O278 C282 1.253 . S
H279 C275 0.931 . S
H280 C276 0.930 . S
O281 Co270 2.039 . S
O281 C271 1.265 . S
C282 O278 1.253 . S
C282 O283 1.227 . S
O283 C282 1.227 . S
N284 Co270 2.140 . S
N284 C287 1.346 . S
N284 C288 1.345 . S
C285 C286 1.387 . S
C285 C289 1.391 . S
C286 C285 1.387 . S
C286 C287 1.369 . S
C286 H295 0.929 . S
C287 N284 1.346 . S
C287 C286 1.369 . S
C287 H290 0.928 . S
C288 N284 1.345 . S
C288 C289 1.371 . S
C288 H291 0.931 . S
C289 C285 1.391 . S
C289 C288 1.371 . S
C289 H296 0.930 . S
H290 C287 0.928 . S
H291 C288 0.931 . S
H292 C268 0.930 . S
H293 C265 0.930 . S
H294 C274 0.930 . S
H295 C286 0.929 . S
H296 C289 0.930 . S
C297 C298 1.351 . S
C297 N300 1.368 . S
C297 H302 0.931 . S
C298 C297 1.351 . S
C298 N299 1.373 . S
C298 H326 0.930 . S
N299 C298 1.373 . S
N299 C301 1.340 . S
N300 C297 1.368 . S
N300 C301 1.321 . S
N300 Co303 2.135 . S
C301 N299 1.340 . S
C301 N300 1.321 . S
C301 H325 0.930 . S
H302 C297 0.931 . S
Co303 N300 2.135 . S
Co303 N306 2.121 . S
Co303 O311 2.055 . S
Co303 O314 2.039 . S
Co303 N317 2.140 . S
C304 O305 1.227 . S
C304 O314 1.265 . S
O305 C304 1.227 . S
N306 Co303 2.121 . S
N306 C308 1.375 . S
N306 C309 1.313 . S
C307 C308 1.338 . S
C307 N310 1.377 . S
C307 H327 0.930 . S
C308 N306 1.375 . S
C308 C307 1.338 . S
C308 H312 0.931 . S
C309 N306 1.313 . S
C309 N310 1.344 . S
C309 H313 0.930 . S
N310 C307 1.377 . S
N310 C309 1.344 . S
O311 Co303 2.055 . S
O311 C315 1.253 . S
H312 C308 0.931 . S
H313 C309 0.930 . S
O314 Co303 2.039 . S
O314 C304 1.265 . S
C315 O311 1.253 . S
C315 O316 1.227 . S
O316 C315 1.227 . S
N317 Co303 2.140 . S
N317 C320 1.346 . S
N317 C321 1.345 . S
C318 C319 1.387 . S
C318 C322 1.391 . S
C319 C318 1.387 . S
C319 C320 1.369 . S
C319 H328 0.929 . S
C320 N317 1.346 . S
C320 C319 1.369 . S
C320 H323 0.928 . S
C321 N317 1.345 . S
C321 C322 1.371 . S
C321 H324 0.931 . S
C322 C318 1.391 . S
C322 C321 1.371 . S
C322 H329 0.930 . S
H323 C320 0.928 . S
H324 C321 0.931 . S
H325 C301 0.930 . S
H326 C298 0.930 . S
H327 C307 0.930 . S
H328 C319 0.929 . S
H329 C322 0.930 . S
C330 C331 1.351 . S
C330 N333 1.368 . S
C330 H335 0.931 . S
C331 C330 1.351 . S
C331 N332 1.373 . S
C331 H359 0.930 . S
N332 C331 1.373 . S
N332 C334 1.340 . S
N333 C330 1.368 . S
N333 C334 1.321 . S
N333 Co336 2.135 . S
C334 N332 1.340 . S
C334 N333 1.321 . S
C334 H358 0.930 . S
H335 C330 0.931 . S
Co336 N333 2.135 . S
Co336 N339 2.121 . S
Co336 O344 2.055 . S
Co336 O347 2.039 . S
Co336 N350 2.140 . S
C337 O338 1.227 . S
C337 O347 1.265 . S
O338 C337 1.227 . S
N339 Co336 2.121 . S
N339 C341 1.375 . S
N339 C342 1.313 . S
C340 C341 1.338 . S
C340 N343 1.377 . S
C340 H360 0.930 . S
C341 N339 1.375 . S
C341 C340 1.338 . S
C341 H345 0.931 . S
C342 N339 1.313 . S
C342 N343 1.344 . S
C342 H346 0.930 . S
N343 C340 1.377 . S
N343 C342 1.344 . S
O344 Co336 2.055 . S
O344 C348 1.253 . S
H345 C341 0.931 . S
H346 C342 0.930 . S
O347 Co336 2.039 . S
O347 C337 1.265 . S
C348 O344 1.253 . S
C348 O349 1.227 . S
O349 C348 1.227 . S
N350 Co336 2.140 . S
N350 C353 1.346 . S
N350 C354 1.345 . S
C351 C352 1.387 . S
C351 C355 1.391 . S
C352 C351 1.387 . S
C352 C353 1.369 . S
C352 H361 0.929 . S
C353 N350 1.346 . S
C353 C352 1.369 . S
C353 H356 0.928 . S
C354 N350 1.345 . S
C354 C355 1.371 . S
C354 H357 0.931 . S
C355 C351 1.391 . S
C355 C354 1.371 . S
C355 H362 0.930 . S
H356 C353 0.928 . S
H357 C354 0.931 . S
H358 C334 0.930 . S
H359 C331 0.930 . S
H360 C340 0.930 . S
H361 C352 0.929 . S
H362 C355 0.930 . S
C363 C364 1.351 . S
C363 N366 1.368 . S
C363 H368 0.931 . S
C364 C363 1.351 . S
C364 N365 1.373 . S
C364 H392 0.930 . S
N365 C364 1.373 . S
N365 C367 1.340 . S
N366 C363 1.368 . S
N366 C367 1.321 . S
N366 Co369 2.135 . S
C367 N365 1.340 . S
C367 N366 1.321 . S
C367 H391 0.930 . S
H368 C363 0.931 . S
Co369 N366 2.135 . S
Co369 N372 2.121 . S
Co369 O377 2.055 . S
Co369 O380 2.039 . S
Co369 N383 2.140 . S
C370 O371 1.227 . S
C370 O380 1.265 . S
O371 C370 1.227 . S
N372 Co369 2.121 . S
N372 C374 1.375 . S
N372 C375 1.313 . S
C373 C374 1.338 . S
C373 N376 1.377 . S
C373 H393 0.930 . S
C374 N372 1.375 . S
C374 C373 1.338 . S
C374 H378 0.931 . S
C375 N372 1.313 . S
C375 N376 1.344 . S
C375 H379 0.930 . S
N376 C373 1.377 . S
N376 C375 1.344 . S
O377 Co369 2.055 . S
O377 C381 1.253 . S
H378 C374 0.931 . S
H379 C375 0.930 . S
O380 Co369 2.039 . S
O380 C370 1.265 . S
C381 O377 1.253 . S
C381 O382 1.227 . S
O382 C381 1.227 . S
N383 Co369 2.140 . S
N383 C386 1.346 . S
N383 C387 1.345 . S
C384 C385 1.387 . S
C384 C388 1.391 . S
C385 C384 1.387 . S
C385 C386 1.369 . S
C385 H394 0.929 . S
C386 N383 1.346 . S
C386 C385 1.369 . S
C386 H389 0.928 . S
C387 N383 1.345 . S
C387 C388 1.371 . S
C387 H390 0.931 . S
C388 C384 1.391 . S
C388 C387 1.371 . S
C388 H395 0.930 . S
H389 C386 0.928 . S
H390 C387 0.931 . S
H391 C367 0.930 . S
H392 C364 0.930 . S
H393 C373 0.930 . S
H394 C385 0.929 . S
H395 C388 0.930 . S
C396 C397 1.351 . S
C396 N399 1.368 . S
C396 H401 0.931 . S
C397 C396 1.351 . S
C397 N398 1.373 . S
C397 H425 0.930 . S
N398 C397 1.373 . S
N398 C400 1.340 . S
N399 C396 1.368 . S
N399 C400 1.321 . S
N399 Co402 2.135 . S
C400 N398 1.340 . S
C400 N399 1.321 . S
C400 H424 0.930 . S
H401 C396 0.931 . S
Co402 N399 2.135 . S
Co402 N405 2.121 1_556 S
Co402 O410 2.055 . S
Co402 O413 2.039 1_556 S
Co402 N416 2.140 . S
C403 O404 1.227 . S
C403 O413 1.265 . S
O404 C403 1.227 . S
N405 Co402 2.121 1_554 S
N405 C407 1.375 . S
N405 C408 1.313 . S
C406 C407 1.338 . S
C406 N409 1.377 . S
C406 H426 0.930 . S
C407 N405 1.375 . S
C407 C406 1.338 . S
C407 H411 0.931 . S
C408 N405 1.313 . S
C408 N409 1.344 . S
C408 H412 0.930 . S
N409 C406 1.377 . S
N409 C408 1.344 . S
O410 Co402 2.055 . S
O410 C414 1.253 . S
H411 C407 0.931 . S
H412 C408 0.930 . S
O413 Co402 2.039 1_554 S
O413 C403 1.265 . S
C414 O410 1.253 . S
C414 O415 1.227 . S
O415 C414 1.227 . S
N416 Co402 2.140 . S
N416 C419 1.346 . S
N416 C420 1.345 1_556 S
C417 C418 1.385 1_554 S
C417 C421 1.392 . S
C418 C417 1.385 1_556 S
C418 C419 1.369 . S
C418 H427 0.929 . S
C419 N416 1.346 . S
C419 C418 1.369 . S
C419 H422 0.928 . S
C420 N416 1.345 1_554 S
C420 C421 1.371 . S
C420 H423 0.931 . S
C421 C417 1.392 . S
C421 C420 1.371 . S
C421 H428 0.930 . S
H422 C419 0.928 . S
H423 C420 0.931 . S
H424 C400 0.930 . S
H425 C397 0.930 . S
H426 C406 0.930 . S
H427 C418 0.929 . S
H428 C421 0.930 . S
C429 C430 1.351 . S
C429 N432 1.368 . S
C429 H434 0.931 . S
C430 C429 1.351 . S
C430 N431 1.373 . S
C430 H458 0.930 . S
N431 C430 1.373 . S
N431 C433 1.340 . S
N432 C429 1.368 . S
N432 C433 1.321 . S
N432 Co435 2.135 . S
C433 N431 1.340 . S
C433 N432 1.321 . S
C433 H457 0.930 . S
H434 C429 0.931 . S
Co435 N432 2.135 . S
Co435 N438 2.121 1_556 S
Co435 O443 2.055 . S
Co435 O446 2.039 1_556 S
Co435 N449 2.140 . S
C436 O437 1.227 . S
C436 O446 1.265 . S
O437 C436 1.227 . S
N438 Co435 2.121 1_554 S
N438 C440 1.375 . S
N438 C441 1.313 . S
C439 C440 1.338 . S
C439 N442 1.377 . S
C439 H459 0.930 . S
C440 N438 1.375 . S
C440 C439 1.338 . S
C440 H444 0.931 . S
C441 N438 1.313 . S
C441 N442 1.344 . S
C441 H445 0.930 . S
N442 C439 1.377 . S
N442 C441 1.344 . S
O443 Co435 2.055 . S
O443 C447 1.253 . S
H444 C440 0.931 . S
H445 C441 0.930 . S
O446 Co435 2.039 1_554 S
O446 C436 1.265 . S
C447 O443 1.253 . S
C447 O448 1.227 . S
O448 C447 1.227 . S
N449 Co435 2.140 . S
N449 C452 1.346 . S
N449 C453 1.345 1_556 S
C450 C451 1.385 1_554 S
C450 C454 1.392 . S
C451 C450 1.385 1_556 S
C451 C452 1.369 . S
C451 H460 0.929 . S
C452 N449 1.346 . S
C452 C451 1.369 . S
C452 H455 0.928 . S
C453 N449 1.345 1_554 S
C453 C454 1.371 . S
C453 H456 0.931 . S
C454 C450 1.392 . S
C454 C453 1.371 . S
C454 H461 0.930 . S
H455 C452 0.928 . S
H456 C453 0.931 . S
H457 C433 0.930 . S
H458 C430 0.930 . S
H459 C439 0.930 . S
H460 C451 0.929 . S
H461 C454 0.930 . S
C462 C463 1.351 . S
C462 N465 1.368 . S
C462 H467 0.931 . S
C463 C462 1.351 . S
C463 N464 1.373 . S
C463 H491 0.930 . S
N464 C463 1.373 . S
N464 C466 1.340 . S
N465 C462 1.368 . S
N465 C466 1.321 . S
N465 Co468 2.135 . S
C466 N464 1.340 . S
C466 N465 1.321 . S
C466 H490 0.930 . S
H467 C462 0.931 . S
Co468 N465 2.135 . S
Co468 N471 2.121 1_556 S
Co468 O476 2.055 . S
Co468 O479 2.039 1_556 S
Co468 N482 2.140 . S
C469 O470 1.227 . S
C469 O479 1.265 . S
O470 C469 1.227 . S
N471 Co468 2.121 1_554 S
N471 C473 1.375 . S
N471 C474 1.313 . S
C472 C473 1.338 . S
C472 N475 1.377 . S
C472 H492 0.930 . S
C473 N471 1.375 . S
C473 C472 1.338 . S
C473 H477 0.931 . S
C474 N471 1.313 . S
C474 N475 1.344 . S
C474 H478 0.930 . S
N475 C472 1.377 . S
N475 C474 1.344 . S
O476 Co468 2.055 . S
O476 C480 1.253 . S
H477 C473 0.931 . S
H478 C474 0.930 . S
O479 Co468 2.039 1_554 S
O479 C469 1.265 . S
C480 O476 1.253 . S
C480 O481 1.227 . S
O481 C480 1.227 . S
N482 Co468 2.140 . S
N482 C485 1.346 . S
N482 C486 1.345 1_556 S
C483 C484 1.385 1_554 S
C483 C487 1.392 . S
C484 C483 1.385 1_556 S
C484 C485 1.369 . S
C484 H493 0.929 . S
C485 N482 1.346 . S
C485 C484 1.369 . S
C485 H488 0.928 . S
C486 N482 1.345 1_554 S
C486 C487 1.371 . S
C486 H489 0.931 . S
C487 C483 1.392 . S
C487 C486 1.371 . S
C487 H494 0.930 . S
H488 C485 0.928 . S
H489 C486 0.931 . S
H490 C466 0.930 . S
H491 C463 0.930 . S
H492 C472 0.930 . S
H493 C484 0.929 . S
H494 C487 0.930 . S
C495 C496 1.351 . S
C495 N498 1.368 . S
C495 H500 0.931 . S
C496 C495 1.351 . S
C496 N497 1.373 . S
C496 H524 0.930 . S
N497 C496 1.373 . S
N497 C499 1.340 . S
N498 C495 1.368 . S
N498 C499 1.321 . S
N498 Co501 2.135 . S
C499 N497 1.340 . S
C499 N498 1.321 . S
C499 H523 0.930 . S
H500 C495 0.931 . S
Co501 N498 2.135 . S
Co501 N504 2.121 1_556 S
Co501 O509 2.055 . S
Co501 O512 2.039 1_556 S
Co501 N515 2.140 . S
C502 O503 1.227 . S
C502 O512 1.265 . S
O503 C502 1.227 . S
N504 Co501 2.121 1_554 S
N504 C506 1.375 . S
N504 C507 1.313 . S
C505 C506 1.338 . S
C505 N508 1.377 . S
C505 H525 0.930 . S
C506 N504 1.375 . S
C506 C505 1.338 . S
C506 H510 0.931 . S
C507 N504 1.313 . S
C507 N508 1.344 . S
C507 H511 0.930 . S
N508 C505 1.377 . S
N508 C507 1.344 . S
O509 Co501 2.055 . S
O509 C513 1.253 . S
H510 C506 0.931 . S
H511 C507 0.930 . S
O512 Co501 2.039 1_554 S
O512 C502 1.265 . S
C513 O509 1.253 . S
C513 O514 1.227 . S
O514 C513 1.227 . S
N515 Co501 2.140 . S
N515 C518 1.346 . S
N515 C519 1.345 1_556 S
C516 C517 1.385 1_554 S
C516 C520 1.392 . S
C517 C516 1.385 1_556 S
C517 C518 1.369 . S
C517 H526 0.929 . S
C518 N515 1.346 . S
C518 C517 1.369 . S
C518 H521 0.928 . S
C519 N515 1.345 1_554 S
C519 C520 1.371 . S
C519 H522 0.931 . S
C520 C516 1.392 . S
C520 C519 1.371 . S
C520 H527 0.930 . S
H521 C518 0.928 . S
H522 C519 0.931 . S
H523 C499 0.930 . S
H524 C496 0.930 . S
H525 C505 0.930 . S
H526 C517 0.929 . S
H527 C520 0.930 . S
C528 C529 1.391 . S
C528 C530 1.394 . S
C528 H544 0.931 1_554 S
C529 C528 1.391 . S
C529 C533 1.376 . S
C530 C528 1.394 . S
C530 C531 1.369 . S
C530 C534 1.531 . S
C531 C530 1.369 . S
C531 C532 1.410 . S
C531 C539 1.503 . S
C532 C531 1.410 . S
C532 C533 1.392 . S
C532 C535 1.511 . S
C533 C529 1.376 . S
C533 C532 1.392 . S
C533 H545 0.929 . S
C534 C530 1.531 . S
C534 H546 0.965 . S
C534 H547 0.952 1_554 S
C534 H548 0.964 . S
C535 C532 1.511 . S
C535 H549 0.961 . S
C535 H550 0.961 . S
C535 H551 0.961 . S
C536 C537 1.370 1_556 S
C536 C538 1.363 . S
C536 H552 0.931 . S
C537 C536 1.370 1_554 S
C537 C541 1.408 . S
C538 C536 1.363 . S
C538 C539 1.370 1_556 S
C538 C542 1.524 . S
C539 C531 1.503 . S
C539 C538 1.370 1_554 S
C539 C540 1.403 . S
C540 C539 1.403 . S
C540 C541 1.404 . S
C540 C543 1.539 . S
C541 C537 1.408 . S
C541 C540 1.404 . S
C541 H553 0.930 . S
C542 C538 1.524 . S
C542 H554 0.956 . S
C542 H555 0.961 . S
C542 H556 0.961 . S
C543 C540 1.539 . S
C543 H557 0.958 . S
C543 H558 0.961 . S
C543 H559 0.960 . S
H544 C528 0.931 1_556 S
H545 C533 0.929 . S
H546 C534 0.965 . S
H547 C534 0.952 1_556 S
H548 C534 0.964 . S
H549 C535 0.961 . S
H550 C535 0.961 . S
H551 C535 0.961 . S
H552 C536 0.931 . S
H553 C541 0.930 . S
H554 C542 0.956 . S
H555 C542 0.961 . S
H556 C542 0.961 . S
H557 C543 0.958 . S
H558 C543 0.961 . S
H559 C543 0.960 . S
C560 C561 1.391 . S
C560 C562 1.394 . S
C560 H576 0.931 . S
C561 C560 1.391 . S
C561 C565 1.376 . S
C562 C560 1.394 . S
C562 C563 1.369 . S
C562 C566 1.531 . S
C563 C562 1.369 . S
C563 C564 1.410 . S
C563 C571 1.503 . S
C564 C563 1.410 . S
C564 C565 1.392 . S
C564 C567 1.511 . S
C565 C561 1.376 . S
C565 C564 1.392 . S
C565 H577 0.929 . S
C566 C562 1.531 . S
C566 H578 0.960 . S
C566 H579 0.962 1_556 S
C566 H580 0.960 . S
C567 C564 1.511 . S
C567 H581 0.961 . S
C567 H582 0.961 . S
C567 H583 0.961 . S
C568 C569 1.370 1_554 S
C568 C570 1.363 . S
C568 H584 0.931 . S
C569 C568 1.370 1_556 S
C569 C573 1.408 . S
C570 C568 1.363 . S
C570 C571 1.370 1_554 S
C570 C574 1.524 . S
C571 C563 1.503 . S
C571 C570 1.370 1_556 S
C571 C572 1.403 . S
C572 C571 1.403 . S
C572 C573 1.404 . S
C572 C575 1.539 . S
C573 C569 1.408 . S
C573 C572 1.404 . S
C573 H585 0.930 . S
C574 C570 1.524 . S
C574 H586 0.956 . S
C574 H587 0.961 . S
C574 H588 0.961 . S
C575 C572 1.539 . S
C575 H589 0.958 . S
C575 H590 0.961 . S
C575 H591 0.960 . S
H576 C560 0.931 . S
H577 C565 0.929 . S
H578 C566 0.960 . S
H579 C566 0.962 1_554 S
H580 C566 0.960 . S
H581 C567 0.961 . S
H582 C567 0.961 . S
H583 C567 0.961 . S
H584 C568 0.931 . S
H585 C573 0.930 . S
H586 C574 0.956 . S
H587 C574 0.961 . S
H588 C574 0.961 . S
H589 C575 0.958 . S
H590 C575 0.961 . S
H591 C575 0.960 . S
C592 C593 1.391 . S
C592 C594 1.394 . S
C592 H608 0.931 . S
C593 C592 1.391 . S
C593 C597 1.376 . S
C594 C592 1.394 . S
C594 C595 1.369 . S
C594 C598 1.531 . S
C595 C594 1.369 . S
C595 C596 1.410 . S
C595 C603 1.503 . S
C596 C595 1.410 . S
C596 C597 1.392 . S
C596 C599 1.511 . S
C597 C593 1.376 . S
C597 C596 1.392 . S
C597 H609 0.929 . S
C598 C594 1.531 . S
C598 H610 0.960 . S
C598 H611 0.962 1_554 S
C598 H612 0.960 . S
C599 C596 1.511 . S
C599 H613 0.961 1_554 S
C599 H614 0.961 1_554 S
C599 H615 0.961 . S
C600 C601 1.370 1_556 S
C600 C602 1.363 . S
C600 H616 0.931 . S
C601 C600 1.370 1_554 S
C601 C605 1.408 . S
C602 C600 1.363 . S
C602 C603 1.370 1_556 S
C602 C606 1.524 . S
C603 C595 1.503 . S
C603 C602 1.370 1_554 S
C603 C604 1.403 . S
C604 C603 1.403 . S
C604 C605 1.404 . S
C604 C607 1.539 . S
C605 C601 1.408 . S
C605 C604 1.404 . S
C605 H617 0.930 . S
C606 C602 1.524 . S
C606 H618 0.956 . S
C606 H619 0.961 . S
C606 H620 0.961 . S
C607 C604 1.539 . S
C607 H621 0.958 . S
C607 H622 0.961 . S
C607 H623 0.960 . S
H608 C592 0.931 . S
H609 C597 0.929 . S
H610 C598 0.960 . S
H611 C598 0.962 1_556 S
H612 C598 0.960 . S
H613 C599 0.961 1_556 S
H614 C599 0.961 1_556 S
H615 C599 0.961 . S
H616 C600 0.931 . S
H617 C605 0.930 . S
H618 C606 0.956 . S
H619 C606 0.961 . S
H620 C606 0.961 . S
H621 C607 0.958 . S
H622 C607 0.961 . S
H623 C607 0.960 . S
C624 C625 1.391 . S
C624 C626 1.394 . S
C624 H640 0.931 . S
C625 C624 1.391 . S
C625 C629 1.376 1_556 S
C626 C624 1.394 . S
C626 C627 1.369 . S
C626 C630 1.531 . S
C627 C626 1.369 . S
C627 C628 1.410 1_556 S
C627 C635 1.503 . S
C628 C627 1.410 1_554 S
C628 C629 1.392 . S
C628 C631 1.511 . S
C629 C625 1.376 1_554 S
C629 C628 1.392 . S
C629 H641 0.929 . S
C630 C626 1.531 . S
C630 H642 0.960 . S
C630 H643 0.962 . S
C630 H644 0.960 . S
C631 C628 1.511 . S
C631 H645 0.961 . S
C631 H646 0.961 . S
C631 H647 0.961 . S
C632 C633 1.370 1_554 S
C632 C634 1.363 . S
C632 H648 0.931 . S
C633 C632 1.370 1_556 S
C633 C637 1.408 . S
C634 C632 1.363 . S
C634 C635 1.370 1_554 S
C634 C638 1.524 . S
C635 C627 1.503 . S
C635 C634 1.370 1_556 S
C635 C636 1.403 . S
C636 C635 1.403 . S
C636 C637 1.404 . S
C636 C639 1.539 . S
C637 C633 1.408 . S
C637 C636 1.404 . S
C637 H649 0.930 . S
C638 C634 1.524 . S
C638 H650 0.956 . S
C638 H651 0.961 . S
C638 H652 0.961 . S
C639 C636 1.539 . S
C639 H653 0.958 . S
C639 H654 0.961 . S
C639 H655 0.960 . S
H640 C624 0.931 . S
H641 C629 0.929 . S
H642 C630 0.960 . S
H643 C630 0.962 . S
H644 C630 0.960 . S
H645 C631 0.961 . S
H646 C631 0.961 . S
H647 C631 0.961 . S
H648 C632 0.931 . S
H649 C637 0.930 . S
H650 C638 0.956 . S
H651 C638 0.961 . S
H652 C638 0.961 . S
H653 C639 0.958 . S
H654 C639 0.961 . S
H655 C639 0.960 . S
C656 C657 1.391 . S
C656 C658 1.394 . S
C656 H672 0.931 . S
C657 C656 1.391 . S
C657 C661 1.376 . S
C658 C656 1.394 . S
C658 C659 1.369 . S
C658 C662 1.531 . S
C659 C658 1.369 . S
C659 C660 1.410 . S
C659 C667 1.503 . S
C660 C659 1.410 . S
C660 C661 1.392 . S
C660 C663 1.511 . S
C661 C657 1.376 . S
C661 C660 1.392 . S
C661 H673 0.929 . S
C662 C658 1.531 . S
C662 H674 0.960 . S
C662 H675 0.962 . S
C662 H676 0.960 . S
C663 C660 1.511 . S
C663 H677 0.961 . S
C663 H678 0.961 . S
C663 H679 0.961 . S
C664 C665 1.370 . S
C664 C666 1.363 . S
C664 H680 0.931 . S
C665 C664 1.370 . S
C665 C669 1.408 . S
C666 C664 1.363 . S
C666 C667 1.370 . S
C666 C670 1.524 . S
C667 C659 1.503 . S
C667 C666 1.370 . S
C667 C668 1.403 . S
C668 C667 1.403 . S
C668 C669 1.404 . S
C668 C671 1.539 . S
C669 C665 1.408 . S
C669 C668 1.404 . S
C669 H681 0.930 . S
C670 C666 1.524 . S
C670 H682 0.956 . S
C670 H683 0.961 . S
C670 H684 0.961 . S
C671 C668 1.539 . S
C671 H685 0.958 . S
C671 H686 0.961 . S
C671 H687 0.960 . S
H672 C656 0.931 . S
H673 C661 0.929 . S
H674 C662 0.960 . S
H675 C662 0.962 . S
H676 C662 0.960 . S
H677 C663 0.961 . S
H678 C663 0.961 . S
H679 C663 0.961 . S
H680 C664 0.931 . S
H681 C669 0.930 . S
H682 C670 0.956 . S
H683 C670 0.961 . S
H684 C670 0.961 . S
H685 C671 0.958 . S
H686 C671 0.961 . S
H687 C671 0.960 . S
C688 C689 1.391 . S
C688 C690 1.394 . S
C688 H704 0.931 . S
C689 C688 1.391 . S
C689 C693 1.376 . S
C690 C688 1.394 . S
C690 C691 1.369 . S
C690 C694 1.531 . S
C691 C690 1.369 . S
C691 C692 1.410 . S
C691 C699 1.503 . S
C692 C691 1.410 . S
C692 C693 1.392 . S
C692 C695 1.511 . S
C693 C689 1.376 . S
C693 C692 1.392 . S
C693 H705 0.929 . S
C694 C690 1.531 . S
C694 H706 0.960 . S
C694 H707 0.962 . S
C694 H708 0.960 . S
C695 C692 1.511 . S
C695 H709 0.961 . S
C695 H710 0.961 . S
C695 H711 0.961 . S
C696 C697 1.370 . S
C696 C698 1.363 . S
C696 H712 0.931 . S
C697 C696 1.370 . S
C697 C701 1.408 . S
C698 C696 1.363 . S
C698 C699 1.370 . S
C698 C702 1.524 . S
C699 C691 1.503 . S
C699 C698 1.370 . S
C699 C700 1.403 . S
C700 C699 1.403 . S
C700 C701 1.404 . S
C700 C703 1.539 . S
C701 C697 1.408 . S
C701 C700 1.404 . S
C701 H713 0.930 . S
C702 C698 1.524 . S
C702 H714 0.956 . S
C702 H715 0.961 . S
C702 H716 0.961 . S
C703 C700 1.539 . S
C703 H717 0.958 . S
C703 H718 0.961 . S
C703 H719 0.960 . S
H704 C688 0.931 . S
H705 C693 0.929 . S
H706 C694 0.960 . S
H707 C694 0.962 . S
H708 C694 0.960 . S
H709 C695 0.961 . S
H710 C695 0.961 . S
H711 C695 0.961 . S
H712 C696 0.931 . S
H713 C701 0.930 . S
H714 C702 0.956 . S
H715 C702 0.961 . S
H716 C702 0.961 . S
H717 C703 0.958 . S
H718 C703 0.961 . S
H719 C703 0.960 . S
C720 C721 1.391 . S
C720 C722 1.394 . S
C720 H736 0.931 . S
C721 C720 1.391 . S
C721 C725 1.376 . S
C722 C720 1.394 . S
C722 C723 1.369 . S
C722 C726 1.531 . S
C723 C722 1.369 . S
C723 C724 1.410 . S
C723 C731 1.503 . S
C724 C723 1.410 . S
C724 C725 1.392 . S
C724 C727 1.511 . S
C725 C721 1.376 . S
C725 C724 1.392 . S
C725 H737 0.929 . S
C726 C722 1.531 . S
C726 H738 0.960 . S
C726 H739 0.962 . S
C726 H740 0.960 . S
C727 C724 1.511 . S
C727 H741 0.961 . S
C727 H742 0.961 . S
C727 H743 0.961 . S
C728 C729 1.370 . S
C728 C730 1.363 . S
C728 H744 0.931 . S
C729 C728 1.370 . S
C729 C733 1.408 . S
C730 C728 1.363 . S
C730 C731 1.370 . S
C730 C734 1.524 . S
C731 C723 1.503 . S
C731 C730 1.370 . S
C731 C732 1.403 . S
C732 C731 1.403 . S
C732 C733 1.404 . S
C732 C735 1.539 . S
C733 C729 1.408 . S
C733 C732 1.404 . S
C733 H745 0.930 . S
C734 C730 1.524 . S
C734 H746 0.956 . S
C734 H747 0.961 . S
C734 H748 0.961 . S
C735 C732 1.539 . S
C735 H749 0.958 . S
C735 H750 0.961 . S
C735 H751 0.960 . S
H736 C720 0.931 . S
H737 C725 0.929 . S
H738 C726 0.960 . S
H739 C726 0.962 . S
H740 C726 0.960 . S
H741 C727 0.961 . S
H742 C727 0.961 . S
H743 C727 0.961 . S
H744 C728 0.931 . S
H745 C733 0.930 . S
H746 C734 0.956 . S
H747 C734 0.961 . S
H748 C734 0.961 . S
H749 C735 0.958 . S
H750 C735 0.961 . S
H751 C735 0.960 . S
C752 C753 1.391 . S
C752 C754 1.394 . S
C752 H768 0.931 . S
C753 C752 1.391 . S
C753 C757 1.376 . S
C754 C752 1.394 . S
C754 C755 1.369 . S
C754 C758 1.531 . S
C755 C754 1.369 . S
C755 C756 1.410 . S
C755 C763 1.503 . S
C756 C755 1.410 . S
C756 C757 1.392 . S
C756 C759 1.511 . S
C757 C753 1.376 . S
C757 C756 1.392 . S
C757 H769 0.929 . S
C758 C754 1.531 . S
C758 H770 0.960 . S
C758 H771 0.962 . S
C758 H772 0.960 . S
C759 C756 1.511 . S
C759 H773 0.961 . S
C759 H774 0.961 . S
C759 H775 0.961 . S
C760 C761 1.370 . S
C760 C762 1.363 . S
C760 H776 0.931 . S
C761 C760 1.370 . S
C761 C765 1.408 . S
C762 C760 1.363 . S
C762 C763 1.370 . S
C762 C766 1.524 . S
C763 C755 1.503 . S
C763 C762 1.370 . S
C763 C764 1.403 . S
C764 C763 1.403 . S
C764 C765 1.404 . S
C764 C767 1.539 . S
C765 C761 1.408 . S
C765 C764 1.404 . S
C765 H777 0.930 . S
C766 C762 1.524 . S
C766 H778 0.956 . S
C766 H779 0.961 . S
C766 H780 0.961 . S
C767 C764 1.539 . S
C767 H781 0.958 . S
C767 H782 0.961 . S
C767 H783 0.960 . S
H768 C752 0.931 . S
H769 C757 0.929 . S
H770 C758 0.960 . S
H771 C758 0.962 . S
H772 C758 0.960 . S
H773 C759 0.961 . S
H774 C759 0.961 . S
H775 C759 0.961 . S
H776 C760 0.931 . S
H777 C765 0.930 . S
H778 C766 0.956 . S
H779 C766 0.961 . S
H780 C766 0.961 . S
H781 C767 0.958 . S
H782 C767 0.961 . S
H783 C767 0.960 . S
C784 C785 1.391 . S
C784 C786 1.394 . S
C784 H800 0.931 . S
C785 C784 1.391 . S
C785 C789 1.376 . S
C786 C784 1.394 . S
C786 C787 1.369 . S
C786 C790 1.531 1_655 S
C787 C786 1.369 . S
C787 C788 1.410 . S
C787 C795 1.503 1_655 S
C788 C787 1.410 . S
C788 C789 1.392 . S
C788 C791 1.511 . S
C789 C785 1.376 . S
C789 C788 1.392 . S
C789 H801 0.929 . S
C790 C786 1.531 1_455 S
C790 H802 0.960 . S
C790 H803 0.962 . S
C790 H804 0.960 . S
C791 C788 1.511 . S
C791 H805 0.961 . S
C791 H806 0.961 . S
C791 H807 0.961 . S
C792 C793 1.370 . S
C792 C794 1.363 . S
C792 H808 0.931 . S
C793 C792 1.370 . S
C793 C797 1.408 . S
C794 C792 1.363 . S
C794 C795 1.370 . S
C794 C798 1.524 1_455 S
C795 C787 1.503 1_455 S
C795 C794 1.370 . S
C795 C796 1.403 . S
C796 C795 1.403 . S
C796 C797 1.404 . S
C796 C799 1.539 . S
C797 C793 1.408 . S
C797 C796 1.404 . S
C797 H809 0.930 . S
C798 C794 1.524 1_655 S
C798 H810 0.956 . S
C798 H811 0.961 . S
C798 H812 0.961 . S
C799 C796 1.539 . S
C799 H813 0.958 . S
C799 H814 0.961 . S
C799 H815 0.960 . S
H800 C784 0.931 . S
H801 C789 0.929 . S
H802 C790 0.960 . S
H803 C790 0.962 . S
H804 C790 0.960 . S
H805 C791 0.961 . S
H806 C791 0.961 . S
H807 C791 0.961 . S
H808 C792 0.931 . S
H809 C797 0.930 . S
H810 C798 0.956 . S
H811 C798 0.961 . S
H812 C798 0.961 . S
H813 C799 0.958 . S
H814 C799 0.961 . S
H815 C799 0.960 . S
C816 C817 1.391 . S
C816 C818 1.394 . S
C816 H832 0.931 . S
C817 C816 1.391 . S
C817 C821 1.376 . S
C818 C816 1.394 . S
C818 C819 1.369 . S
C818 C822 1.531 . S
C819 C818 1.369 . S
C819 C820 1.410 . S
C819 C827 1.503 1_565 S
C820 C819 1.410 . S
C820 C821 1.392 . S
C820 C823 1.511 1_565 S
C821 C817 1.376 . S
C821 C820 1.392 . S
C821 H833 0.929 . S
C822 C818 1.531 . S
C822 H834 0.960 . S
C822 H835 0.962 . S
C822 H836 0.960 . S
C823 C820 1.511 1_545 S
C823 H837 0.961 . S
C823 H838 0.961 . S
C823 H839 0.961 . S
C824 C825 1.370 . S
C824 C826 1.363 . S
C824 H840 0.931 . S
C825 C824 1.370 . S
C825 C829 1.408 . S
C826 C824 1.363 . S
C826 C827 1.370 . S
C826 C830 1.524 . S
C827 C819 1.503 1_545 S
C827 C826 1.370 . S
C827 C828 1.403 . S
C828 C827 1.403 . S
C828 C829 1.404 . S
C828 C831 1.539 1_545 S
C829 C825 1.408 . S
C829 C828 1.404 . S
C829 H841 0.930 . S
C830 C826 1.524 . S
C830 H842 0.956 . S
C830 H843 0.961 . S
C830 H844 0.961 . S
C831 C828 1.539 1_565 S
C831 H845 0.958 . S
C831 H846 0.961 1_565 S
C831 H847 0.960 . S
H832 C816 0.931 . S
H833 C821 0.929 . S
H834 C822 0.960 . S
H835 C822 0.962 . S
H836 C822 0.960 . S
H837 C823 0.961 . S
H838 C823 0.961 . S
H839 C823 0.961 . S
H840 C824 0.931 . S
H841 C829 0.930 . S
H842 C830 0.956 . S
H843 C830 0.961 . S
H844 C830 0.961 . S
H845 C831 0.958 . S
H846 C831 0.961 1_545 S
H847 C831 0.960 . S
C848 C849 1.391 . S
C848 C850 1.394 . S
C848 H864 0.931 . S
C849 C848 1.391 . S
C849 C853 1.376 . S
C850 C848 1.394 . S
C850 C851 1.369 . S
C850 C854 1.531 . S
C851 C850 1.369 . S
C851 C852 1.410 . S
C851 C859 1.503 1_455 S
C852 C851 1.410 . S
C852 C853 1.392 . S
C852 C855 1.511 1_455 S
C853 C849 1.376 . S
C853 C852 1.392 . S
C853 H865 0.929 . S
C854 C850 1.531 . S
C854 H866 0.960 . S
C854 H867 0.962 . S
C854 H868 0.960 . S
C855 C852 1.511 1_655 S
C855 H869 0.968 . S
C855 H870 0.961 . S
C855 H871 0.961 . S
C856 C857 1.370 . S
C856 C858 1.363 . S
C856 H872 0.931 . S
C857 C856 1.370 . S
C857 C861 1.408 . S
C858 C856 1.363 . S
C858 C859 1.370 . S
C858 C862 1.524 1_655 S
C859 C851 1.503 1_655 S
C859 C858 1.370 . S
C859 C860 1.403 . S
C860 C859 1.403 . S
C860 C861 1.404 . S
C860 C863 1.539 . S
C861 C857 1.408 . S
C861 C860 1.404 . S
C861 H873 0.930 . S
C862 C858 1.524 1_455 S
C862 H874 0.956 . S
C862 H875 0.961 . S
C862 H876 0.961 . S
C863 C860 1.539 . S
C863 H877 0.958 . S
C863 H878 0.961 . S
C863 H879 0.960 . S
H864 C848 0.931 . S
H865 C853 0.929 . S
H866 C854 0.960 . S
H867 C854 0.962 . S
H868 C854 0.960 . S
H869 C855 0.968 . S
H870 C855 0.961 . S
H871 C855 0.961 . S
H872 C856 0.931 . S
H873 C861 0.930 . S
H874 C862 0.956 . S
H875 C862 0.961 . S
H876 C862 0.961 . S
H877 C863 0.958 . S
H878 C863 0.961 . S
H879 C863 0.960 . S
C880 C881 1.391 . S
C880 C882 1.394 . S
C880 H896 0.931 . S
C881 C880 1.391 . S
C881 C885 1.376 . S
C882 C880 1.394 . S
C882 C883 1.369 . S
C882 C886 1.531 . S
C883 C882 1.369 . S
C883 C884 1.410 . S
C883 C891 1.503 1_545 S
C884 C883 1.410 . S
C884 C885 1.392 . S
C884 C887 1.511 1_545 S
C885 C881 1.376 . S
C885 C884 1.392 . S
C885 H897 0.929 . S
C886 C882 1.531 . S
C886 H898 0.996 . S
C886 H899 0.962 . S
C886 H900 0.960 . S
C887 C884 1.511 1_565 S
C887 H901 0.938 1_565 S
C887 H902 0.961 . S
C887 H903 0.961 . S
C888 C889 1.370 . S
C888 C890 1.363 . S
C888 H904 0.931 . S
C889 C888 1.370 . S
C889 C893 1.408 . S
C890 C888 1.363 . S
C890 C891 1.370 . S
C890 C894 1.524 1_565 S
C891 C883 1.503 1_565 S
C891 C890 1.370 . S
C891 C892 1.403 . S
C892 C891 1.403 . S
C892 C893 1.404 . S
C892 C895 1.539 . S
C893 C889 1.408 . S
C893 C892 1.404 . S
C893 H905 0.930 . S
C894 C890 1.524 1_545 S
C894 H906 0.956 . S
C894 H907 0.961 . S
C894 H908 0.961 . S
C895 C892 1.539 . S
C895 H909 0.958 . S
C895 H910 0.961 . S
C895 H911 0.960 . S
H896 C880 0.931 . S
H897 C885 0.929 . S
H898 C886 0.996 . S
H899 C886 0.962 . S
H900 C886 0.960 . S
H901 C887 0.938 1_545 S
H902 C887 0.961 . S
H903 C887 0.961 . S
H904 C888 0.931 . S
H905 C893 0.930 . S
H906 C894 0.956 . S
H907 C894 0.961 . S
H908 C894 0.961 . S
H909 C895 0.958 . S
H910 C895 0.961 . S
H911 C895 0.960 . S
C912 C913 1.391 . S
C912 C914 1.394 . S
C912 H928 0.931 . S
C913 C912 1.391 . S
C913 C917 1.376 . S
C914 C912 1.394 . S
C914 C915 1.369 . S
C914 C918 1.531 1_455 S
C915 C914 1.369 . S
C915 C916 1.410 . S
C915 C923 1.503 1_455 S
C916 C915 1.410 . S
C916 C917 1.392 . S
C916 C919 1.511 . S
C917 C913 1.376 . S
C917 C916 1.392 . S
C917 H929 0.929 . S
C918 C914 1.531 1_655 S
C918 H930 0.960 . S
C918 H931 0.962 . S
C918 H932 0.960 . S
C919 C916 1.511 . S
C919 H933 0.961 . S
C919 H934 0.961 . S
C919 H935 0.961 . S
C920 C921 1.370 . S
C920 C922 1.363 . S
C920 H936 0.931 . S
C921 C920 1.370 . S
C921 C925 1.408 . S
C922 C920 1.363 . S
C922 C923 1.370 . S
C922 C926 1.524 1_655 S
C923 C915 1.503 1_655 S
C923 C922 1.370 . S
C923 C924 1.403 . S
C924 C923 1.403 . S
C924 C925 1.404 . S
C924 C927 1.539 . S
C925 C921 1.408 . S
C925 C924 1.404 . S
C925 H937 0.930 . S
C926 C922 1.524 1_455 S
C926 H938 0.956 . S
C926 H939 0.961 . S
C926 H940 0.961 . S
C927 C924 1.539 . S
C927 H941 0.958 . S
C927 H942 0.961 . S
C927 H943 0.960 . S
H928 C912 0.931 . S
H929 C917 0.929 . S
H930 C918 0.960 . S
H931 C918 0.962 . S
H932 C918 0.960 . S
H933 C919 0.961 . S
H934 C919 0.961 . S
H935 C919 0.961 . S
H936 C920 0.931 . S
H937 C925 0.930 . S
H938 C926 0.956 . S
H939 C926 0.961 . S
H940 C926 0.961 . S
H941 C927 0.958 . S
H942 C927 0.961 . S
H943 C927 0.960 . S
C944 C945 1.391 . S
C944 C946 1.394 . S
C944 H960 0.931 . S
C945 C944 1.391 . S
C945 C949 1.376 . S
C946 C944 1.394 . S
C946 C947 1.369 . S
C946 C950 1.531 . S
C947 C946 1.369 . S
C947 C948 1.410 . S
C947 C955 1.503 1_565 S
C948 C947 1.410 . S
C948 C949 1.392 . S
C948 C951 1.511 1_565 S
C949 C945 1.376 . S
C949 C948 1.392 . S
C949 H961 0.929 . S
C950 C946 1.531 . S
C950 H962 0.960 . S
C950 H963 0.962 . S
C950 H964 0.960 . S
C951 C948 1.511 1_545 S
C951 H965 0.961 . S
C951 H966 0.961 . S
C951 H967 0.961 . S
C952 C953 1.370 . S
C952 C954 1.363 . S
C952 H968 0.931 . S
C953 C952 1.370 . S
C953 C957 1.408 . S
C954 C952 1.363 . S
C954 C955 1.370 . S
C954 C958 1.524 . S
C955 C947 1.503 1_545 S
C955 C954 1.370 . S
C955 C956 1.403 . S
C956 C955 1.403 . S
C956 C957 1.404 . S
C956 C959 1.539 1_545 S
C957 C953 1.408 . S
C957 C956 1.404 . S
C957 H969 0.930 . S
C958 C954 1.524 . S
C958 H970 0.956 . S
C958 H971 0.961 . S
C958 H972 0.961 . S
C959 C956 1.539 1_565 S
C959 H973 0.958 . S
C959 H974 0.959 . S
C959 H975 0.960 . S
H960 C944 0.931 . S
H961 C949 0.929 . S
H962 C950 0.960 . S
H963 C950 0.962 . S
H964 C950 0.960 . S
H965 C951 0.961 . S
H966 C951 0.961 . S
H967 C951 0.961 . S
H968 C952 0.931 . S
H969 C957 0.930 . S
H970 C958 0.956 . S
H971 C958 0.961 . S
H972 C958 0.961 . S
H973 C959 0.958 . S
H974 C959 0.959 . S
H975 C959 0.960 . S
C976 C977 1.391 . S
C976 C978 1.394 . S
C976 H992 0.931 . S
C977 C976 1.391 . S
C977 C981 1.376 . S
C978 C976 1.394 . S
C978 C979 1.369 . S
C978 C982 1.531 . S
C979 C978 1.369 . S
C979 C980 1.410 . S
C979 C987 1.503 1_655 S
C980 C979 1.410 . S
C980 C981 1.392 . S
C980 C983 1.511 . S
C981 C977 1.376 . S
C981 C980 1.392 . S
C981 H993 0.929 . S
C982 C978 1.531 . S
C982 H994 0.960 1_655 S
C982 H995 0.962 . S
C982 H996 0.960 . S
C983 C980 1.511 . S
C983 H997 0.961 . S
C983 H998 0.961 1_655 S
C983 H999 0.961 1_655 S
C984 C985 1.370 . S
C984 C986 1.363 . S
C984 H1000 0.931 . S
C985 C984 1.370 . S
C985 C989 1.408 . S
C986 C984 1.363 . S
C986 C987 1.370 . S
C986 C990 1.524 1_455 S
C987 C979 1.503 1_455 S
C987 C986 1.370 . S
C987 C988 1.403 . S
C988 C987 1.403 . S
C988 C989 1.404 . S
C988 C991 1.539 . S
C989 C985 1.408 . S
C989 C988 1.404 . S
C989 H1001 0.930 . S
C990 C986 1.524 1_655 S
C990 H1002 0.956 . S
C990 H1003 0.961 . S
C990 H1004 0.961 . S
C991 C988 1.539 . S
C991 H1005 0.958 . S
C991 H1006 0.961 . S
C991 H1007 0.960 . S
H992 C976 0.931 . S
H993 C981 0.929 . S
H994 C982 0.960 1_455 S
H995 C982 0.962 . S
H996 C982 0.960 . S
H997 C983 0.961 . S
H998 C983 0.961 1_455 S
H999 C983 0.961 1_455 S
H1000 C984 0.931 . S
H1001 C989 0.930 . S
H1002 C990 0.956 . S
H1003 C990 0.961 . S
H1004 C990 0.961 . S
H1005 C991 0.958 . S
H1006 C991 0.961 . S
H1007 C991 0.960 . S
C1008 C1009 1.391 . S
C1008 C1010 1.394 . S
C1008 H1024 0.931 . S
C1009 C1008 1.391 . S
C1009 C1013 1.376 . S
C1010 C1008 1.394 . S
C1010 C1011 1.369 . S
C1010 C1014 1.531 1_545 S
C1011 C1010 1.369 . S
C1011 C1012 1.410 . S
C1011 C1019 1.503 1_545 S
C1012 C1011 1.410 . S
C1012 C1013 1.392 . S
C1012 C1015 1.511 . S
C1013 C1009 1.376 . S
C1013 C1012 1.392 . S
C1013 H1025 0.929 . S
C1014 C1010 1.531 1_565 S
C1014 H1026 0.960 . S
C1014 H1027 0.962 . S
C1014 H1028 0.960 1_565 S
C1015 C1012 1.511 . S
C1015 H1029 0.961 . S
C1015 H1030 0.961 . S
C1015 H1031 0.961 . S
C1016 C1017 1.370 . S
C1016 C1018 1.363 . S
C1016 H1032 0.931 . S
C1017 C1016 1.370 . S
C1017 C1021 1.408 . S
C1018 C1016 1.363 . S
C1018 C1019 1.370 . S
C1018 C1022 1.524 . S
C1019 C1011 1.503 1_565 S
C1019 C1018 1.370 . S
C1019 C1020 1.403 . S
C1020 C1019 1.403 . S
C1020 C1021 1.404 . S
C1020 C1023 1.539 1_565 S
C1021 C1017 1.408 . S
C1021 C1020 1.404 . S
C1021 H1033 0.930 . S
C1022 C1018 1.524 . S
C1022 H1034 0.956 . S
C1022 H1035 0.961 . S
C1022 H1036 0.961 . S
C1023 C1020 1.539 1_545 S
C1023 H1037 0.958 . S
C1023 H1038 0.961 . S
C1023 H1039 0.960 . S
H1024 C1008 0.931 . S
H1025 C1013 0.929 . S
H1026 C1014 0.960 . S
H1027 C1014 0.962 . S
H1028 C1014 0.960 1_545 S
H1029 C1015 0.961 . S
H1030 C1015 0.961 . S
H1031 C1015 0.961 . S
H1032 C1016 0.931 . S
H1033 C1021 0.930 . S
H1034 C1022 0.956 . S
H1035 C1022 0.961 . S
H1036 C1022 0.961 . S
H1037 C1023 0.958 . S
H1038 C1023 0.961 . S
H1039 C1023 0.960 . S
C1040 C1041 1.391 . S
C1040 C1042 1.394 . S
C1040 H1056 0.931 . S
C1041 C1040 1.391 . S
C1041 C1045 1.376 . S
C1042 C1040 1.394 . S
C1042 C1043 1.369 . S
C1042 C1046 1.531 . S
C1043 C1042 1.369 . S
C1043 C1044 1.410 . S
C1043 C1051 1.503 . S
C1044 C1043 1.410 . S
C1044 C1045 1.392 . S
C1044 C1047 1.511 . S
C1045 C1041 1.376 . S
C1045 C1044 1.392 . S
C1045 H1057 0.929 . S
C1046 C1042 1.531 . S
C1046 H1058 0.960 . S
C1046 H1059 0.962 . S
C1046 H1060 0.960 . S
C1047 C1044 1.511 . S
C1047 H1061 0.961 . S
C1047 H1062 0.961 . S
C1047 H1063 0.961 . S
C1048 C1049 1.370 . S
C1048 C1050 1.363 . S
C1048 H1064 0.931 . S
C1049 C1048 1.370 . S
C1049 C1053 1.408 . S
C1050 C1048 1.363 . S
C1050 C1051 1.370 . S
C1050 C1054 1.524 . S
C1051 C1043 1.503 . S
C1051 C1050 1.370 . S
C1051 C1052 1.403 . S
C1052 C1051 1.403 . S
C1052 C1053 1.404 . S
C1052 C1055 1.539 . S
C1053 C1049 1.408 . S
C1053 C1052 1.404 . S
C1053 H1065 0.930 . S
C1054 C1050 1.524 . S
C1054 H1066 0.956 . S
C1054 H1067 0.961 . S
C1054 H1068 0.961 . S
C1055 C1052 1.539 . S
C1055 H1069 0.958 . S
C1055 H1070 0.961 . S
C1055 H1071 0.960 . S
H1056 C1040 0.931 . S
H1057 C1045 0.929 . S
H1058 C1046 0.960 . S
H1059 C1046 0.962 . S
H1060 C1046 0.960 . S
H1061 C1047 0.961 . S
H1062 C1047 0.961 . S
H1063 C1047 0.961 . S
H1064 C1048 0.931 . S
H1065 C1053 0.930 . S
H1066 C1054 0.956 . S
H1067 C1054 0.961 . S
H1068 C1054 0.961 . S
H1069 C1055 0.958 . S
H1070 C1055 0.961 . S
H1071 C1055 0.960 . S
C1072 C1073 1.391 . S
C1072 C1074 1.394 . S
C1072 H1088 0.931 . S
C1073 C1072 1.391 . S
C1073 C1077 1.376 . S
C1074 C1072 1.394 . S
C1074 C1075 1.369 . S
C1074 C1078 1.531 . S
C1075 C1074 1.369 . S
C1075 C1076 1.410 . S
C1075 C1083 1.503 . S
C1076 C1075 1.410 . S
C1076 C1077 1.392 . S
C1076 C1079 1.511 . S
C1077 C1073 1.376 . S
C1077 C1076 1.392 . S
C1077 H1089 0.929 . S
C1078 C1074 1.531 . S
C1078 H1090 0.960 . S
C1078 H1091 0.962 . S
C1078 H1092 0.960 . S
C1079 C1076 1.511 . S
C1079 H1093 0.961 . S
C1079 H1094 0.961 . S
C1079 H1095 0.961 . S
C1080 C1081 1.370 . S
C1080 C1082 1.363 . S
C1080 H1096 0.931 . S
C1081 C1080 1.370 . S
C1081 C1085 1.408 . S
C1082 C1080 1.363 . S
C1082 C1083 1.370 . S
C1082 C1086 1.524 . S
C1083 C1075 1.503 . S
C1083 C1082 1.370 . S
C1083 C1084 1.403 . S
C1084 C1083 1.403 . S
C1084 C1085 1.404 . S
C1084 C1087 1.539 . S
C1085 C1081 1.408 . S
C1085 C1084 1.404 . S
C1085 H1097 0.930 . S
C1086 C1082 1.524 . S
C1086 H1098 0.956 . S
C1086 H1099 0.961 . S
C1086 H1100 0.961 . S
C1087 C1084 1.539 . S
C1087 H1101 0.958 . S
C1087 H1102 0.961 . S
C1087 H1103 0.960 . S
H1088 C1072 0.931 . S
H1089 C1077 0.929 . S
H1090 C1078 0.960 . S
H1091 C1078 0.962 . S
H1092 C1078 0.960 . S
H1093 C1079 0.961 . S
H1094 C1079 0.961 . S
H1095 C1079 0.961 . S
H1096 C1080 0.931 . S
H1097 C1085 0.930 . S
H1098 C1086 0.956 . S
H1099 C1086 0.961 . S
H1100 C1086 0.961 . S
H1101 C1087 0.958 . S
H1102 C1087 0.961 . S
H1103 C1087 0.960 . S
C1104 C1105 1.391 . S
C1104 C1106 1.394 . S
C1104 H1120 0.931 . S
C1105 C1104 1.391 . S
C1105 C1109 1.376 . S
C1106 C1104 1.394 . S
C1106 C1107 1.369 . S
C1106 C1110 1.531 . S
C1107 C1106 1.369 . S
C1107 C1108 1.410 . S
C1107 C1115 1.503 . S
C1108 C1107 1.410 . S
C1108 C1109 1.392 . S
C1108 C1111 1.511 . S
C1109 C1105 1.376 . S
C1109 C1108 1.392 . S
C1109 H1121 0.929 . S
C1110 C1106 1.531 . S
C1110 H1122 0.960 . S
C1110 H1123 0.962 . S
C1110 H1124 0.960 . S
C1111 C1108 1.511 . S
C1111 H1125 0.961 . S
C1111 H1126 0.961 . S
C1111 H1127 0.961 . S
C1112 C1113 1.370 . S
C1112 C1114 1.363 . S
C1112 H1128 0.931 . S
C1113 C1112 1.370 . S
C1113 C1117 1.408 . S
C1114 C1112 1.363 . S
C1114 C1115 1.370 . S
C1114 C1118 1.524 . S
C1115 C1107 1.503 . S
C1115 C1114 1.370 . S
C1115 C1116 1.403 . S
C1116 C1115 1.403 . S
C1116 C1117 1.404 . S
C1116 C1119 1.539 . S
C1117 C1113 1.408 . S
C1117 C1116 1.404 . S
C1117 H1129 0.930 . S
C1118 C1114 1.524 . S
C1118 H1130 0.956 . S
C1118 H1131 0.961 . S
C1118 H1132 0.961 . S
C1119 C1116 1.539 . S
C1119 H1133 0.958 . S
C1119 H1134 0.961 . S
C1119 H1135 0.960 . S
H1120 C1104 0.931 . S
H1121 C1109 0.929 . S
H1122 C1110 0.960 . S
H1123 C1110 0.962 . S
H1124 C1110 0.960 . S
H1125 C1111 0.961 . S
H1126 C1111 0.961 . S
H1127 C1111 0.961 . S
H1128 C1112 0.931 . S
H1129 C1117 0.930 . S
H1130 C1118 0.956 . S
H1131 C1118 0.961 . S
H1132 C1118 0.961 . S
H1133 C1119 0.958 . S
H1134 C1119 0.961 . S
H1135 C1119 0.960 . S
C1136 C1137 1.391 . S
C1136 C1138 1.394 . S
C1136 H1152 0.931 . S
C1137 C1136 1.391 . S
C1137 C1141 1.376 . S
C1138 C1136 1.394 . S
C1138 C1139 1.369 . S
C1138 C1142 1.531 . S
C1139 C1138 1.369 . S
C1139 C1140 1.410 . S
C1139 C1147 1.503 . S
C1140 C1139 1.410 . S
C1140 C1141 1.392 . S
C1140 C1143 1.511 . S
C1141 C1137 1.376 . S
C1141 C1140 1.392 . S
C1141 H1153 0.929 . S
C1142 C1138 1.531 . S
C1142 H1154 0.960 . S
C1142 H1155 0.962 . S
C1142 H1156 0.960 . S
C1143 C1140 1.511 . S
C1143 H1157 0.961 . S
C1143 H1158 0.961 . S
C1143 H1159 0.961 . S
C1144 C1145 1.370 . S
C1144 C1146 1.363 . S
C1144 H1160 0.931 . S
C1145 C1144 1.370 . S
C1145 C1149 1.408 . S
C1146 C1144 1.363 . S
C1146 C1147 1.370 . S
C1146 C1150 1.524 . S
C1147 C1139 1.503 . S
C1147 C1146 1.370 . S
C1147 C1148 1.403 . S
C1148 C1147 1.403 . S
C1148 C1149 1.404 . S
C1148 C1151 1.539 . S
C1149 C1145 1.408 . S
C1149 C1148 1.404 . S
C1149 H1161 0.930 . S
C1150 C1146 1.524 . S
C1150 H1162 0.956 . S
C1150 H1163 0.961 . S
C1150 H1164 0.961 . S
C1151 C1148 1.539 . S
C1151 H1165 0.958 . S
C1151 H1166 0.961 . S
C1151 H1167 0.960 . S
H1152 C1136 0.931 . S
H1153 C1141 0.929 . S
H1154 C1142 0.960 . S
H1155 C1142 0.962 . S
H1156 C1142 0.960 . S
H1157 C1143 0.961 . S
H1158 C1143 0.961 . S
H1159 C1143 0.961 . S
H1160 C1144 0.931 . S
H1161 C1149 0.930 . S
H1162 C1150 0.956 . S
H1163 C1150 0.961 . S
H1164 C1150 0.961 . S
H1165 C1151 0.958 . S
H1166 C1151 0.961 . S
H1167 C1151 0.960 . S
C1168 C1169 1.391 . S
C1168 C1170 1.394 . S
C1168 H1184 0.931 . S
C1169 C1168 1.391 . S
C1169 C1173 1.376 . S
C1170 C1168 1.394 . S
C1170 C1171 1.369 . S
C1170 C1174 1.531 . S
C1171 C1170 1.369 . S
C1171 C1172 1.410 . S
C1171 C1179 1.503 . S
C1172 C1171 1.410 . S
C1172 C1173 1.392 . S
C1172 C1175 1.511 . S
C1173 C1169 1.376 . S
C1173 C1172 1.392 . S
C1173 H1185 0.929 . S
C1174 C1170 1.531 . S
C1174 H1186 0.960 . S
C1174 H1187 0.962 . S
C1174 H1188 0.960 . S
C1175 C1172 1.511 . S
C1175 H1189 0.961 . S
C1175 H1190 0.961 . S
C1175 H1191 0.961 . S
C1176 C1177 1.370 . S
C1176 C1178 1.363 . S
C1176 H1192 0.931 . S
C1177 C1176 1.370 . S
C1177 C1181 1.408 . S
C1178 C1176 1.363 . S
C1178 C1179 1.370 . S
C1178 C1182 1.524 . S
C1179 C1171 1.503 . S
C1179 C1178 1.370 . S
C1179 C1180 1.403 . S
C1180 C1179 1.403 . S
C1180 C1181 1.404 . S
C1180 C1183 1.539 . S
C1181 C1177 1.408 . S
C1181 C1180 1.404 . S
C1181 H1193 0.930 . S
C1182 C1178 1.524 . S
C1182 H1194 0.956 . S
C1182 H1195 0.961 . S
C1182 H1196 0.961 . S
C1183 C1180 1.539 . S
C1183 H1197 0.958 . S
C1183 H1198 0.961 . S
C1183 H1199 0.960 . S
H1184 C1168 0.931 . S
H1185 C1173 0.929 . S
H1186 C1174 0.960 . S
H1187 C1174 0.962 . S
H1188 C1174 0.960 . S
H1189 C1175 0.961 . S
H1190 C1175 0.961 . S
H1191 C1175 0.961 . S
H1192 C1176 0.931 . S
H1193 C1181 0.930 . S
H1194 C1182 0.956 . S
H1195 C1182 0.961 . S
H1196 C1182 0.961 . S
H1197 C1183 0.958 . S
H1198 C1183 0.961 . S
H1199 C1183 0.960 . S
C1200 C1201 1.391 . S
C1200 C1202 1.394 . S
C1200 H1216 0.931 . S
C1201 C1200 1.391 . S
C1201 C1205 1.376 . S
C1202 C1200 1.394 . S
C1202 C1203 1.369 . S
C1202 C1206 1.531 . S
C1203 C1202 1.369 . S
C1203 C1204 1.410 . S
C1203 C1211 1.503 . S
C1204 C1203 1.410 . S
C1204 C1205 1.392 . S
C1204 C1207 1.511 . S
C1205 C1201 1.376 . S
C1205 C1204 1.392 . S
C1205 H1217 0.929 . S
C1206 C1202 1.531 . S
C1206 H1218 0.960 . S
C1206 H1219 0.962 . S
C1206 H1220 0.960 . S
C1207 C1204 1.511 . S
C1207 H1221 0.961 . S
C1207 H1222 0.961 . S
C1207 H1223 0.961 . S
C1208 C1209 1.370 . S
C1208 C1210 1.363 . S
C1208 H1224 0.931 . S
C1209 C1208 1.370 . S
C1209 C1213 1.408 . S
C1210 C1208 1.363 . S
C1210 C1211 1.370 . S
C1210 C1214 1.524 . S
C1211 C1203 1.503 . S
C1211 C1210 1.370 . S
C1211 C1212 1.403 . S
C1212 C1211 1.403 . S
C1212 C1213 1.404 . S
C1212 C1215 1.539 . S
C1213 C1209 1.408 . S
C1213 C1212 1.404 . S
C1213 H1225 0.930 . S
C1214 C1210 1.524 . S
C1214 H1226 0.956 . S
C1214 H1227 0.961 . S
C1214 H1228 0.961 . S
C1215 C1212 1.539 . S
C1215 H1229 0.958 . S
C1215 H1230 0.961 . S
C1215 H1231 0.960 . S
H1216 C1200 0.931 . S
H1217 C1205 0.929 . S
H1218 C1206 0.960 . S
H1219 C1206 0.962 . S
H1220 C1206 0.960 . S
H1221 C1207 0.961 . S
H1222 C1207 0.961 . S
H1223 C1207 0.961 . S
H1224 C1208 0.931 . S
H1225 C1213 0.930 . S
H1226 C1214 0.956 . S
H1227 C1214 0.961 . S
H1228 C1214 0.961 . S
H1229 C1215 0.958 . S
H1230 C1215 0.961 . S
H1231 C1215 0.960 . S
C1232 C1233 1.391 . S
C1232 C1234 1.394 . S
C1232 H1248 0.931 . S
C1233 C1232 1.391 . S
C1233 C1237 1.376 . S
C1234 C1232 1.394 . S
C1234 C1235 1.369 . S
C1234 C1238 1.531 . S
C1235 C1234 1.369 . S
C1235 C1236 1.410 . S
C1235 C1243 1.503 . S
C1236 C1235 1.410 . S
C1236 C1237 1.392 . S
C1236 C1239 1.511 . S
C1237 C1233 1.376 . S
C1237 C1236 1.392 . S
C1237 H1249 0.929 . S
C1238 C1234 1.531 . S
C1238 H1250 0.960 . S
C1238 H1251 0.962 . S
C1238 H1252 0.960 . S
C1239 C1236 1.511 . S
C1239 H1253 0.961 . S
C1239 H1254 0.961 . S
C1239 H1255 0.961 . S
C1240 C1241 1.370 . S
C1240 C1242 1.363 . S
C1240 H1256 0.931 . S
C1241 C1240 1.370 . S
C1241 C1245 1.408 . S
C1242 C1240 1.363 . S
C1242 C1243 1.370 . S
C1242 C1246 1.524 . S
C1243 C1235 1.503 . S
C1243 C1242 1.370 . S
C1243 C1244 1.403 . S
C1244 C1243 1.403 . S
C1244 C1245 1.404 . S
C1244 C1247 1.539 . S
C1245 C1241 1.408 . S
C1245 C1244 1.404 . S
C1245 H1257 0.930 . S
C1246 C1242 1.524 . S
C1246 H1258 0.956 . S
C1246 H1259 0.961 . S
C1246 H1260 0.961 . S
C1247 C1244 1.539 . S
C1247 H1261 0.958 . S
C1247 H1262 0.961 . S
C1247 H1263 0.960 . S
H1248 C1232 0.931 . S
H1249 C1237 0.929 . S
H1250 C1238 0.960 . S
H1251 C1238 0.962 . S
H1252 C1238 0.960 . S
H1253 C1239 0.961 . S
H1254 C1239 0.961 . S
H1255 C1239 0.961 . S
H1256 C1240 0.931 . S
H1257 C1245 0.930 . S
H1258 C1246 0.956 . S
H1259 C1246 0.961 . S
H1260 C1246 0.961 . S
H1261 C1247 0.958 . S
H1262 C1247 0.961 . S
H1263 C1247 0.960 . S
C1264 C1265 1.391 . S
C1264 C1266 1.394 . S
C1264 H1280 0.931 . S
C1265 C1264 1.391 . S
C1265 C1269 1.376 . S
C1266 C1264 1.394 . S
C1266 C1267 1.369 . S
C1266 C1270 1.531 . S
C1267 C1266 1.369 . S
C1267 C1268 1.410 . S
C1267 C1275 1.503 . S
C1268 C1267 1.410 . S
C1268 C1269 1.392 . S
C1268 C1271 1.511 . S
C1269 C1265 1.376 . S
C1269 C1268 1.392 . S
C1269 H1281 0.929 . S
C1270 C1266 1.531 . S
C1270 H1282 0.960 . S
C1270 H1283 0.962 . S
C1270 H1284 0.960 . S
C1271 C1268 1.511 . S
C1271 H1285 0.961 . S
C1271 H1286 0.961 . S
C1271 H1287 0.961 . S
C1272 C1273 1.370 . S
C1272 C1274 1.363 . S
C1272 H1288 0.931 . S
C1273 C1272 1.370 . S
C1273 C1277 1.408 . S
C1274 C1272 1.363 . S
C1274 C1275 1.370 . S
C1274 C1278 1.524 . S
C1275 C1267 1.503 . S
C1275 C1274 1.370 . S
C1275 C1276 1.403 . S
C1276 C1275 1.403 . S
C1276 C1277 1.404 . S
C1276 C1279 1.539 . S
C1277 C1273 1.408 . S
C1277 C1276 1.404 . S
C1277 H1289 0.930 . S
C1278 C1274 1.524 . S
C1278 H1290 0.956 . S
C1278 H1291 0.961 . S
C1278 H1292 0.961 . S
C1279 C1276 1.539 . S
C1279 H1293 0.958 . S
C1279 H1294 0.961 . S
C1279 H1295 0.960 . S
H1280 C1264 0.931 . S
H1281 C1269 0.929 . S
H1282 C1270 0.960 . S
H1283 C1270 0.962 . S
H1284 C1270 0.960 . S
H1285 C1271 0.961 . S
H1286 C1271 0.961 . S
H1287 C1271 0.961 . S
H1288 C1272 0.931 . S
H1289 C1277 0.930 . S
H1290 C1278 0.956 . S
H1291 C1278 0.961 . S
H1292 C1278 0.961 . S
H1293 C1279 0.958 . S
H1294 C1279 0.961 . S
H1295 C1279 0.960 . S
C1296 C1297 1.391 . S
C1296 C1298 1.394 . S
C1296 H1312 0.931 . S
C1297 C1296 1.391 . S
C1297 C1301 1.376 . S
C1298 C1296 1.394 . S
C1298 C1299 1.369 . S
C1298 C1302 1.531 . S
C1299 C1298 1.369 . S
C1299 C1300 1.410 . S
C1299 C1307 1.503 . S
C1300 C1299 1.410 . S
C1300 C1301 1.392 . S
C1300 C1303 1.511 . S
C1301 C1297 1.376 . S
C1301 C1300 1.392 . S
C1301 H1313 0.929 . S
C1302 C1298 1.531 . S
C1302 H1314 0.960 . S
C1302 H1315 0.962 . S
C1302 H1316 0.960 . S
C1303 C1300 1.511 . S
C1303 H1317 0.961 . S
C1303 H1318 0.961 . S
C1303 H1319 0.961 . S
C1304 C1305 1.370 . S
C1304 C1306 1.363 . S
C1304 H1320 0.931 . S
C1305 C1304 1.370 . S
C1305 C1309 1.408 . S
C1306 C1304 1.363 . S
C1306 C1307 1.370 . S
C1306 C1310 1.524 . S
C1307 C1299 1.503 . S
C1307 C1306 1.370 . S
C1307 C1308 1.403 . S
C1308 C1307 1.403 . S
C1308 C1309 1.404 . S
C1308 C1311 1.539 . S
C1309 C1305 1.408 . S
C1309 C1308 1.404 . S
C1309 H1321 0.930 . S
C1310 C1306 1.524 . S
C1310 H1322 0.956 . S
C1310 H1323 0.961 . S
C1310 H1324 0.961 . S
C1311 C1308 1.539 . S
C1311 H1325 0.958 . S
C1311 H1326 0.961 . S
C1311 H1327 0.960 . S
H1312 C1296 0.931 . S
H1313 C1301 0.929 . S
H1314 C1302 0.960 . S
H1315 C1302 0.962 . S
H1316 C1302 0.960 . S
H1317 C1303 0.961 . S
H1318 C1303 0.961 . S
H1319 C1303 0.961 . S
H1320 C1304 0.931 . S
H1321 C1309 0.930 . S
H1322 C1310 0.956 . S
H1323 C1310 0.961 . S
H1324 C1310 0.961 . S
H1325 C1311 0.958 . S
H1326 C1311 0.961 . S
H1327 C1311 0.960 . S
C1328 C1329 1.391 . S
C1328 C1330 1.394 . S
C1328 H1344 0.931 . S
C1329 C1328 1.391 . S
C1329 C1333 1.376 . S
C1330 C1328 1.394 . S
C1330 C1331 1.369 . S
C1330 C1334 1.531 . S
C1331 C1330 1.369 . S
C1331 C1332 1.410 . S
C1331 C1339 1.503 . S
C1332 C1331 1.410 . S
C1332 C1333 1.392 . S
C1332 C1335 1.511 . S
C1333 C1329 1.376 . S
C1333 C1332 1.392 . S
C1333 H1345 0.929 . S
C1334 C1330 1.531 . S
C1334 H1346 0.960 . S
C1334 H1347 0.962 . S
C1334 H1348 0.960 . S
C1335 C1332 1.511 . S
C1335 H1349 0.961 . S
C1335 H1350 0.961 . S
C1335 H1351 0.961 . S
C1336 C1337 1.370 . S
C1336 C1338 1.363 . S
C1336 H1352 0.931 . S
C1337 C1336 1.370 . S
C1337 C1341 1.408 . S
C1338 C1336 1.363 . S
C1338 C1339 1.370 . S
C1338 C1342 1.524 . S
C1339 C1331 1.503 . S
C1339 C1338 1.370 . S
C1339 C1340 1.403 . S
C1340 C1339 1.403 . S
C1340 C1341 1.404 . S
C1340 C1343 1.539 . S
C1341 C1337 1.408 . S
C1341 C1340 1.404 . S
C1341 H1353 0.930 . S
C1342 C1338 1.524 . S
C1342 H1354 0.956 . S
C1342 H1355 0.961 . S
C1342 H1356 0.961 . S
C1343 C1340 1.539 . S
C1343 H1357 0.958 . S
C1343 H1358 0.961 . S
C1343 H1359 0.960 . S
H1344 C1328 0.931 . S
H1345 C1333 0.929 . S
H1346 C1334 0.960 . S
H1347 C1334 0.962 . S
H1348 C1334 0.960 . S
H1349 C1335 0.961 . S
H1350 C1335 0.961 . S
H1351 C1335 0.961 . S
H1352 C1336 0.931 . S
H1353 C1341 0.930 . S
H1354 C1342 0.956 . S
H1355 C1342 0.961 . S
H1356 C1342 0.961 . S
H1357 C1343 0.958 . S
H1358 C1343 0.961 . S
H1359 C1343 0.960 . S
C1360 C1361 1.391 . S
C1360 C1362 1.394 . S
C1360 H1376 0.931 . S
C1361 C1360 1.391 . S
C1361 C1365 1.376 . S
C1362 C1360 1.394 . S
C1362 C1363 1.369 . S
C1362 C1366 1.531 . S
C1363 C1362 1.369 . S
C1363 C1364 1.410 . S
C1363 C1371 1.503 . S
C1364 C1363 1.410 . S
C1364 C1365 1.392 . S
C1364 C1367 1.511 . S
C1365 C1361 1.376 . S
C1365 C1364 1.392 . S
C1365 H1377 0.929 . S
C1366 C1362 1.531 . S
C1366 H1378 0.960 . S
C1366 H1379 0.962 . S
C1366 H1380 0.960 . S
C1367 C1364 1.511 . S
C1367 H1381 0.961 . S
C1367 H1382 0.961 . S
C1367 H1383 0.961 . S
C1368 C1369 1.370 . S
C1368 C1370 1.363 . S
C1368 H1384 0.931 . S
C1369 C1368 1.370 . S
C1369 C1373 1.408 . S
C1370 C1368 1.363 . S
C1370 C1371 1.370 . S
C1370 C1374 1.524 . S
C1371 C1363 1.503 . S
C1371 C1370 1.370 . S
C1371 C1372 1.403 . S
C1372 C1371 1.403 . S
C1372 C1373 1.404 . S
C1372 C1375 1.539 . S
C1373 C1369 1.408 . S
C1373 C1372 1.404 . S
C1373 H1385 0.930 . S
C1374 C1370 1.524 . S
C1374 H1386 0.956 . S
C1374 H1387 0.961 . S
C1374 H1388 0.961 . S
C1375 C1372 1.539 . S
C1375 H1389 0.958 . S
C1375 H1390 0.961 . S
C1375 H1391 0.960 . S
H1376 C1360 0.931 . S
H1377 C1365 0.929 . S
H1378 C1366 0.960 . S
H1379 C1366 0.962 . S
H1380 C1366 0.960 . S
H1381 C1367 0.961 . S
H1382 C1367 0.961 . S
H1383 C1367 0.961 . S
H1384 C1368 0.931 . S
H1385 C1373 0.930 . S
H1386 C1374 0.956 . S
H1387 C1374 0.961 . S
H1388 C1374 0.961 . S
H1389 C1375 0.958 . S
H1390 C1375 0.961 . S
H1391 C1375 0.960 . S
C1392 C1393 1.391 . S
C1392 C1394 1.394 . S
C1392 H1408 0.931 . S
C1393 C1392 1.391 . S
C1393 C1397 1.376 . S
C1394 C1392 1.394 . S
C1394 C1395 1.369 . S
C1394 C1398 1.531 . S
C1395 C1394 1.369 . S
C1395 C1396 1.410 . S
C1395 C1403 1.503 . S
C1396 C1395 1.410 . S
C1396 C1397 1.392 . S
C1396 C1399 1.511 . S
C1397 C1393 1.376 . S
C1397 C1396 1.392 . S
C1397 H1409 0.929 . S
C1398 C1394 1.531 . S
C1398 H1410 0.960 . S
C1398 H1411 0.962 . S
C1398 H1412 0.960 . S
C1399 C1396 1.511 . S
C1399 H1413 0.961 . S
C1399 H1414 0.961 . S
C1399 H1415 0.961 . S
C1400 C1401 1.370 . S
C1400 C1402 1.363 . S
C1400 H1416 0.931 . S
C1401 C1400 1.370 . S
C1401 C1405 1.408 . S
C1402 C1400 1.363 . S
C1402 C1403 1.370 . S
C1402 C1406 1.524 . S
C1403 C1395 1.503 . S
C1403 C1402 1.370 . S
C1403 C1404 1.403 . S
C1404 C1403 1.403 . S
C1404 C1405 1.404 . S
C1404 C1407 1.539 . S
C1405 C1401 1.408 . S
C1405 C1404 1.404 . S
C1405 H1417 0.930 . S
C1406 C1402 1.524 . S
C1406 H1418 0.956 . S
C1406 H1419 0.961 . S
C1406 H1420 0.961 . S
C1407 C1404 1.539 . S
C1407 H1421 0.958 . S
C1407 H1422 0.961 . S
C1407 H1423 0.960 . S
H1408 C1392 0.931 . S
H1409 C1397 0.929 . S
H1410 C1398 0.960 . S
H1411 C1398 0.962 . S
H1412 C1398 0.960 . S
H1413 C1399 0.961 . S
H1414 C1399 0.961 . S
H1415 C1399 0.961 . S
H1416 C1400 0.931 . S
H1417 C1405 0.930 . S
H1418 C1406 0.956 . S
H1419 C1406 0.961 . S
H1420 C1406 0.961 . S
H1421 C1407 0.958 . S
H1422 C1407 0.961 . S
H1423 C1407 0.960 . S
C1424 C1425 1.391 . S
C1424 C1426 1.394 . S
C1424 H1440 0.931 . S
C1425 C1424 1.391 . S
C1425 C1429 1.376 . S
C1426 C1424 1.394 . S
C1426 C1427 1.369 . S
C1426 C1430 1.531 . S
C1427 C1426 1.369 . S
C1427 C1428 1.410 . S
C1427 C1435 1.503 . S
C1428 C1427 1.410 . S
C1428 C1429 1.392 . S
C1428 C1431 1.511 . S
C1429 C1425 1.376 . S
C1429 C1428 1.392 . S
C1429 H1441 0.929 . S
C1430 C1426 1.531 . S
C1430 H1442 0.960 . S
C1430 H1443 0.962 . S
C1430 H1444 0.960 . S
C1431 C1428 1.511 . S
C1431 H1445 0.961 . S
C1431 H1446 0.961 . S
C1431 H1447 0.961 . S
C1432 C1433 1.370 . S
C1432 C1434 1.363 . S
C1432 H1448 0.931 . S
C1433 C1432 1.370 . S
C1433 C1437 1.408 . S
C1434 C1432 1.363 . S
C1434 C1435 1.370 . S
C1434 C1438 1.524 . S
C1435 C1427 1.503 . S
C1435 C1434 1.370 . S
C1435 C1436 1.403 . S
C1436 C1435 1.403 . S
C1436 C1437 1.404 . S
C1436 C1439 1.539 . S
C1437 C1433 1.408 . S
C1437 C1436 1.404 . S
C1437 H1449 0.930 . S
C1438 C1434 1.524 . S
C1438 H1450 0.956 . S
C1438 H1451 0.961 . S
C1438 H1452 0.961 . S
C1439 C1436 1.539 . S
C1439 H1453 0.958 . S
C1439 H1454 0.961 . S
C1439 H1455 0.960 . S
H1440 C1424 0.931 . S
H1441 C1429 0.929 . S
H1442 C1430 0.960 . S
H1443 C1430 0.962 . S
H1444 C1430 0.960 . S
H1445 C1431 0.961 . S
H1446 C1431 0.961 . S
H1447 C1431 0.961 . S
H1448 C1432 0.931 . S
H1449 C1437 0.930 . S
H1450 C1438 0.956 . S
H1451 C1438 0.961 . S
H1452 C1438 0.961 . S
H1453 C1439 0.958 . S
H1454 C1439 0.961 . S
H1455 C1439 0.960 . S
C1456 C1457 1.391 . S
C1456 C1458 1.394 . S
C1456 H1472 0.931 . S
C1457 C1456 1.391 . S
C1457 C1461 1.376 . S
C1458 C1456 1.394 . S
C1458 C1459 1.369 . S
C1458 C1462 1.531 . S
C1459 C1458 1.369 . S
C1459 C1460 1.410 . S
C1459 C1467 1.503 . S
C1460 C1459 1.410 . S
C1460 C1461 1.392 . S
C1460 C1463 1.511 . S
C1461 C1457 1.376 . S
C1461 C1460 1.392 . S
C1461 H1473 0.929 . S
C1462 C1458 1.531 . S
C1462 H1474 0.960 . S
C1462 H1475 0.962 . S
C1462 H1476 0.960 . S
C1463 C1460 1.511 . S
C1463 H1477 0.961 . S
C1463 H1478 0.961 . S
C1463 H1479 0.961 . S
C1464 C1465 1.370 . S
C1464 C1466 1.363 . S
C1464 H1480 0.931 . S
C1465 C1464 1.370 . S
C1465 C1469 1.408 . S
C1466 C1464 1.363 . S
C1466 C1467 1.370 . S
C1466 C1470 1.524 . S
C1467 C1459 1.503 . S
C1467 C1466 1.370 . S
C1467 C1468 1.403 . S
C1468 C1467 1.403 . S
C1468 C1469 1.404 . S
C1468 C1471 1.539 . S
C1469 C1465 1.408 . S
C1469 C1468 1.404 . S
C1469 H1481 0.930 . S
C1470 C1466 1.524 . S
C1470 H1482 0.956 . S
C1470 H1483 0.961 . S
C1470 H1484 0.961 . S
C1471 C1468 1.539 . S
C1471 H1485 0.958 . S
C1471 H1486 0.961 . S
C1471 H1487 0.960 . S
H1472 C1456 0.931 . S
H1473 C1461 0.929 . S
H1474 C1462 0.960 . S
H1475 C1462 0.962 . S
H1476 C1462 0.960 . S
H1477 C1463 0.961 . S
H1478 C1463 0.961 . S
H1479 C1463 0.961 . S
H1480 C1464 0.931 . S
H1481 C1469 0.930 . S
H1482 C1470 0.956 . S
H1483 C1470 0.961 . S
H1484 C1470 0.961 . S
H1485 C1471 0.958 . S
H1486 C1471 0.961 . S
H1487 C1471 0.960 . S
C1488 C1489 1.391 . S
C1488 C1490 1.394 . S
C1488 H1504 0.931 . S
C1489 C1488 1.391 . S
C1489 C1493 1.376 . S
C1490 C1488 1.394 . S
C1490 C1491 1.369 . S
C1490 C1494 1.531 . S
C1491 C1490 1.369 . S
C1491 C1492 1.410 . S
C1491 C1499 1.503 . S
C1492 C1491 1.410 . S
C1492 C1493 1.392 . S
C1492 C1495 1.511 . S
C1493 C1489 1.376 . S
C1493 C1492 1.392 . S
C1493 H1505 0.929 . S
C1494 C1490 1.531 . S
C1494 H1506 0.960 . S
C1494 H1507 0.962 . S
C1494 H1508 0.960 . S
C1495 C1492 1.511 . S
C1495 H1509 0.961 . S
C1495 H1510 0.961 . S
C1495 H1511 0.961 . S
C1496 C1497 1.370 . S
C1496 C1498 1.363 . S
C1496 H1512 0.931 . S
C1497 C1496 1.370 . S
C1497 C1501 1.408 . S
C1498 C1496 1.363 . S
C1498 C1499 1.370 . S
C1498 C1502 1.524 . S
C1499 C1491 1.503 . S
C1499 C1498 1.370 . S
C1499 C1500 1.403 . S
C1500 C1499 1.403 . S
C1500 C1501 1.404 . S
C1500 C1503 1.539 . S
C1501 C1497 1.408 . S
C1501 C1500 1.404 . S
C1501 H1513 0.930 . S
C1502 C1498 1.524 . S
C1502 H1514 0.956 . S
C1502 H1515 0.961 . S
C1502 H1516 0.961 . S
C1503 C1500 1.539 . S
C1503 H1517 0.958 . S
C1503 H1518 0.961 . S
C1503 H1519 0.960 . S
H1504 C1488 0.931 . S
H1505 C1493 0.929 . S
H1506 C1494 0.960 . S
H1507 C1494 0.962 . S
H1508 C1494 0.960 . S
H1509 C1495 0.961 . S
H1510 C1495 0.961 . S
H1511 C1495 0.961 . S
H1512 C1496 0.931 . S
H1513 C1501 0.930 . S
H1514 C1502 0.956 . S
H1515 C1502 0.961 . S
H1516 C1502 0.961 . S
H1517 C1503 0.958 . S
H1518 C1503 0.961 . S
H1519 C1503 0.960 . S
C1520 C1521 1.391 . S
C1520 C1522 1.394 . S
C1520 H1536 0.931 . S
C1521 C1520 1.391 . S
C1521 C1525 1.376 . S
C1522 C1520 1.394 . S
C1522 C1523 1.369 . S
C1522 C1526 1.531 . S
C1523 C1522 1.369 . S
C1523 C1524 1.410 . S
C1523 C1531 1.503 . S
C1524 C1523 1.410 . S
C1524 C1525 1.392 . S
C1524 C1527 1.511 . S
C1525 C1521 1.376 . S
C1525 C1524 1.392 . S
C1525 H1537 0.929 . S
C1526 C1522 1.531 . S
C1526 H1538 0.960 . S
C1526 H1539 0.962 . S
C1526 H1540 0.960 . S
C1527 C1524 1.511 . S
C1527 H1541 0.961 . S
C1527 H1542 0.961 . S
C1527 H1543 0.961 . S
C1528 C1529 1.370 . S
C1528 C1530 1.363 . S
C1528 H1544 0.931 . S
C1529 C1528 1.370 . S
C1529 C1533 1.408 . S
C1530 C1528 1.363 . S
C1530 C1531 1.370 . S
C1530 C1534 1.524 . S
C1531 C1523 1.503 . S
C1531 C1530 1.370 . S
C1531 C1532 1.403 . S
C1532 C1531 1.403 . S
C1532 C1533 1.404 . S
C1532 C1535 1.539 . S
C1533 C1529 1.408 . S
C1533 C1532 1.404 . S
C1533 H1545 0.930 . S
C1534 C1530 1.524 . S
C1534 H1546 0.956 . S
C1534 H1547 0.961 . S
C1534 H1548 0.961 . S
C1535 C1532 1.539 . S
C1535 H1549 0.958 . S
C1535 H1550 0.961 . S
C1535 H1551 0.960 . S
H1536 C1520 0.931 . S
H1537 C1525 0.929 . S
H1538 C1526 0.960 . S
H1539 C1526 0.962 . S
H1540 C1526 0.960 . S
H1541 C1527 0.961 . S
H1542 C1527 0.961 . S
H1543 C1527 0.961 . S
H1544 C1528 0.931 . S
H1545 C1533 0.930 . S
H1546 C1534 0.956 . S
H1547 C1534 0.961 . S
H1548 C1534 0.961 . S
H1549 C1535 0.958 . S
H1550 C1535 0.961 . S
H1551 C1535 0.960 . S
C1552 C1553 1.391 . S
C1552 C1554 1.394 . S
C1552 H1568 0.931 . S
C1553 C1552 1.391 . S
C1553 C1557 1.376 . S
C1554 C1552 1.394 . S
C1554 C1555 1.369 . S
C1554 C1558 1.531 . S
C1555 C1554 1.369 . S
C1555 C1556 1.410 . S
C1555 C1563 1.503 . S
C1556 C1555 1.410 . S
C1556 C1557 1.392 . S
C1556 C1559 1.511 . S
C1557 C1553 1.376 . S
C1557 C1556 1.392 . S
C1557 H1569 0.929 . S
C1558 C1554 1.531 . S
C1558 H1570 0.960 . S
C1558 H1571 0.962 . S
C1558 H1572 0.960 . S
C1559 C1556 1.511 . S
C1559 H1573 0.961 . S
C1559 H1574 0.961 . S
C1559 H1575 0.961 . S
C1560 C1561 1.370 . S
C1560 C1562 1.363 . S
C1560 H1576 0.931 . S
C1561 C1560 1.370 . S
C1561 C1565 1.408 . S
C1562 C1560 1.363 . S
C1562 C1563 1.370 . S
C1562 C1566 1.524 . S
C1563 C1555 1.503 . S
C1563 C1562 1.370 . S
C1563 C1564 1.403 . S
C1564 C1563 1.403 . S
C1564 C1565 1.404 . S
C1564 C1567 1.539 . S
C1565 C1561 1.408 . S
C1565 C1564 1.404 . S
C1565 H1577 0.930 . S
C1566 C1562 1.524 . S
C1566 H1578 0.956 . S
C1566 H1579 0.961 . S
C1566 H1580 0.961 . S
C1567 C1564 1.539 . S
C1567 H1581 0.958 . S
C1567 H1582 0.961 . S
C1567 H1583 0.960 . S
H1568 C1552 0.931 . S
H1569 C1557 0.929 . S
H1570 C1558 0.960 . S
H1571 C1558 0.962 . S
H1572 C1558 0.960 . S
H1573 C1559 0.961 . S
H1574 C1559 0.961 . S
H1575 C1559 0.961 . S
H1576 C1560 0.931 . S
H1577 C1565 0.930 . S
H1578 C1566 0.956 . S
H1579 C1566 0.961 . S
H1580 C1566 0.961 . S
H1581 C1567 0.958 . S
H1582 C1567 0.961 . S
H1583 C1567 0.960 . S
C1584 C1585 1.391 . S
C1584 C1586 1.394 . S
C1584 H1600 0.931 . S
C1585 C1584 1.391 . S
C1585 C1589 1.376 . S
C1586 C1584 1.394 . S
C1586 C1587 1.369 . S
C1586 C1590 1.531 . S
C1587 C1586 1.369 . S
C1587 C1588 1.410 . S
C1587 C1595 1.503 . S
C1588 C1587 1.410 . S
C1588 C1589 1.392 . S
C1588 C1591 1.511 . S
C1589 C1585 1.376 . S
C1589 C1588 1.392 . S
C1589 H1601 0.929 . S
C1590 C1586 1.531 . S
C1590 H1602 0.960 . S
C1590 H1603 0.962 . S
C1590 H1604 0.960 . S
C1591 C1588 1.511 . S
C1591 H1605 0.961 . S
C1591 H1606 0.961 . S
C1591 H1607 0.961 . S
C1592 C1593 1.370 . S
C1592 C1594 1.363 . S
C1592 H1608 0.931 . S
C1593 C1592 1.370 . S
C1593 C1597 1.408 . S
C1594 C1592 1.363 . S
C1594 C1595 1.370 . S
C1594 C1598 1.524 . S
C1595 C1587 1.503 . S
C1595 C1594 1.370 . S
C1595 C1596 1.403 . S
C1596 C1595 1.403 . S
C1596 C1597 1.404 . S
C1596 C1599 1.539 . S
C1597 C1593 1.408 . S
C1597 C1596 1.404 . S
C1597 H1609 0.930 . S
C1598 C1594 1.524 . S
C1598 H1610 0.956 . S
C1598 H1611 0.961 . S
C1598 H1612 0.961 . S
C1599 C1596 1.539 . S
C1599 H1613 0.958 . S
C1599 H1614 0.961 . S
C1599 H1615 0.960 . S
H1600 C1584 0.931 . S
H1601 C1589 0.929 . S
H1602 C1590 0.960 . S
H1603 C1590 0.962 . S
H1604 C1590 0.960 . S
H1605 C1591 0.961 . S
H1606 C1591 0.961 . S
H1607 C1591 0.961 . S
H1608 C1592 0.931 . S
H1609 C1597 0.930 . S
H1610 C1598 0.956 . S
H1611 C1598 0.961 . S
H1612 C1598 0.961 . S
H1613 C1599 0.958 . S
H1614 C1599 0.961 . S
H1615 C1599 0.960 . S
C1616 C1617 1.391 . S
C1616 C1618 1.394 . S
C1616 H1632 0.931 . S
C1617 C1616 1.391 . S
C1617 C1621 1.376 . S
C1618 C1616 1.394 . S
C1618 C1619 1.369 . S
C1618 C1622 1.531 . S
C1619 C1618 1.369 . S
C1619 C1620 1.410 . S
C1619 C1627 1.503 . S
C1620 C1619 1.410 . S
C1620 C1621 1.392 . S
C1620 C1623 1.511 . S
C1621 C1617 1.376 . S
C1621 C1620 1.392 . S
C1621 H1633 0.929 . S
C1622 C1618 1.531 . S
C1622 H1634 0.960 . S
C1622 H1635 0.962 . S
C1622 H1636 0.960 . S
C1623 C1620 1.511 . S
C1623 H1637 0.961 . S
C1623 H1638 0.961 . S
C1623 H1639 0.961 . S
C1624 C1625 1.370 . S
C1624 C1626 1.363 . S
C1624 H1640 0.931 . S
C1625 C1624 1.370 . S
C1625 C1629 1.408 . S
C1626 C1624 1.363 . S
C1626 C1627 1.370 . S
C1626 C1630 1.524 . S
C1627 C1619 1.503 . S
C1627 C1626 1.370 . S
C1627 C1628 1.403 . S
C1628 C1627 1.403 . S
C1628 C1629 1.404 . S
C1628 C1631 1.539 . S
C1629 C1625 1.408 . S
C1629 C1628 1.404 . S
C1629 H1641 0.930 . S
C1630 C1626 1.524 . S
C1630 H1642 0.956 . S
C1630 H1643 0.961 . S
C1630 H1644 0.961 . S
C1631 C1628 1.539 . S
C1631 H1645 0.958 . S
C1631 H1646 0.961 . S
C1631 H1647 0.960 . S
H1632 C1616 0.931 . S
H1633 C1621 0.929 . S
H1634 C1622 0.960 . S
H1635 C1622 0.962 . S
H1636 C1622 0.960 . S
H1637 C1623 0.961 . S
H1638 C1623 0.961 . S
H1639 C1623 0.961 . S
H1640 C1624 0.931 . S
H1641 C1629 0.930 . S
H1642 C1630 0.956 . S
H1643 C1630 0.961 . S
H1644 C1630 0.961 . S
H1645 C1631 0.958 . S
H1646 C1631 0.961 . S
H1647 C1631 0.960 . S
C1648 C1649 1.391 . S
C1648 C1650 1.394 . S
C1648 H1664 0.931 . S
C1649 C1648 1.391 . S
C1649 C1653 1.376 . S
C1650 C1648 1.394 . S
C1650 C1651 1.369 . S
C1650 C1654 1.531 . S
C1651 C1650 1.369 . S
C1651 C1652 1.410 . S
C1651 C1659 1.503 . S
C1652 C1651 1.410 . S
C1652 C1653 1.392 . S
C1652 C1655 1.511 . S
C1653 C1649 1.376 . S
C1653 C1652 1.392 . S
C1653 H1665 0.929 . S
C1654 C1650 1.531 . S
C1654 H1666 0.960 . S
C1654 H1667 0.962 . S
C1654 H1668 0.960 . S
C1655 C1652 1.511 . S
C1655 H1669 0.961 . S
C1655 H1670 0.961 . S
C1655 H1671 0.961 . S
C1656 C1657 1.370 . S
C1656 C1658 1.363 . S
C1656 H1672 0.931 . S
C1657 C1656 1.370 . S
C1657 C1661 1.408 . S
C1658 C1656 1.363 . S
C1658 C1659 1.370 . S
C1658 C1662 1.524 . S
C1659 C1651 1.503 . S
C1659 C1658 1.370 . S
C1659 C1660 1.403 . S
C1660 C1659 1.403 . S
C1660 C1661 1.404 . S
C1660 C1663 1.539 . S
C1661 C1657 1.408 . S
C1661 C1660 1.404 . S
C1661 H1673 0.930 . S
C1662 C1658 1.524 . S
C1662 H1674 0.956 . S
C1662 H1675 0.961 . S
C1662 H1676 0.961 . S
C1663 C1660 1.539 . S
C1663 H1677 0.958 . S
C1663 H1678 0.961 . S
C1663 H1679 0.960 . S
H1664 C1648 0.931 . S
H1665 C1653 0.929 . S
H1666 C1654 0.960 . S
H1667 C1654 0.962 . S
H1668 C1654 0.960 . S
H1669 C1655 0.961 . S
H1670 C1655 0.961 . S
H1671 C1655 0.961 . S
H1672 C1656 0.931 . S
H1673 C1661 0.930 . S
H1674 C1662 0.956 . S
H1675 C1662 0.961 . S
H1676 C1662 0.961 . S
H1677 C1663 0.958 . S
H1678 C1663 0.961 . S
H1679 C1663 0.960 . S
C1680 C1681 1.391 . S
C1680 C1682 1.394 . S
C1680 H1696 0.931 . S
C1681 C1680 1.391 . S
C1681 C1685 1.376 . S
C1682 C1680 1.394 . S
C1682 C1683 1.369 . S
C1682 C1686 1.531 . S
C1683 C1682 1.369 . S
C1683 C1684 1.410 . S
C1683 C1691 1.503 . S
C1684 C1683 1.410 . S
C1684 C1685 1.392 . S
C1684 C1687 1.511 . S
C1685 C1681 1.376 . S
C1685 C1684 1.392 . S
C1685 H1697 0.929 . S
C1686 C1682 1.531 . S
C1686 H1698 0.960 . S
C1686 H1699 0.962 . S
C1686 H1700 0.960 . S
C1687 C1684 1.511 . S
C1687 H1701 0.961 . S
C1687 H1702 0.961 . S
C1687 H1703 0.961 . S
C1688 C1689 1.370 . S
C1688 C1690 1.363 . S
C1688 H1704 0.931 . S
C1689 C1688 1.370 . S
C1689 C1693 1.408 . S
C1690 C1688 1.363 . S
C1690 C1691 1.370 . S
C1690 C1694 1.524 . S
C1691 C1683 1.503 . S
C1691 C1690 1.370 . S
C1691 C1692 1.403 . S
C1692 C1691 1.403 . S
C1692 C1693 1.404 . S
C1692 C1695 1.539 . S
C1693 C1689 1.408 . S
C1693 C1692 1.404 . S
C1693 H1705 0.930 . S
C1694 C1690 1.524 . S
C1694 H1706 0.956 . S
C1694 H1707 0.961 . S
C1694 H1708 0.961 . S
C1695 C1692 1.539 . S
C1695 H1709 0.958 . S
C1695 H1710 0.961 . S
C1695 H1711 0.960 . S
H1696 C1680 0.931 . S
H1697 C1685 0.929 . S
H1698 C1686 0.960 . S
H1699 C1686 0.962 . S
H1700 C1686 0.960 . S
H1701 C1687 0.961 . S
H1702 C1687 0.961 . S
H1703 C1687 0.961 . S
H1704 C1688 0.931 . S
H1705 C1693 0.930 . S
H1706 C1694 0.956 . S
H1707 C1694 0.961 . S
H1708 C1694 0.961 . S
H1709 C1695 0.958 . S
H1710 C1695 0.961 . S
H1711 C1695 0.960 . S
C1712 C1713 1.391 . S
C1712 C1714 1.394 . S
C1712 H1728 0.931 . S
C1713 C1712 1.391 . S
C1713 C1717 1.376 . S
C1714 C1712 1.394 . S
C1714 C1715 1.369 . S
C1714 C1718 1.531 . S
C1715 C1714 1.369 . S
C1715 C1716 1.410 . S
C1715 C1723 1.503 . S
C1716 C1715 1.410 . S
C1716 C1717 1.392 . S
C1716 C1719 1.511 . S
C1717 C1713 1.376 . S
C1717 C1716 1.392 . S
C1717 H1729 0.929 . S
C1718 C1714 1.531 . S
C1718 H1730 0.960 . S
C1718 H1731 0.962 . S
C1718 H1732 0.960 . S
C1719 C1716 1.511 . S
C1719 H1733 0.961 . S
C1719 H1734 0.961 . S
C1719 H1735 0.961 . S
C1720 C1721 1.370 . S
C1720 C1722 1.363 . S
C1720 H1736 0.931 . S
C1721 C1720 1.370 . S
C1721 C1725 1.408 . S
C1722 C1720 1.363 . S
C1722 C1723 1.370 . S
C1722 C1726 1.524 . S
C1723 C1715 1.503 . S
C1723 C1722 1.370 . S
C1723 C1724 1.403 . S
C1724 C1723 1.403 . S
C1724 C1725 1.404 . S
C1724 C1727 1.539 . S
C1725 C1721 1.408 . S
C1725 C1724 1.404 . S
C1725 H1737 0.930 . S
C1726 C1722 1.524 . S
C1726 H1738 0.956 . S
C1726 H1739 0.961 . S
C1726 H1740 0.961 . S
C1727 C1724 1.539 . S
C1727 H1741 0.958 . S
C1727 H1742 0.961 . S
C1727 H1743 0.960 . S
H1728 C1712 0.931 . S
H1729 C1717 0.929 . S
H1730 C1718 0.960 . S
H1731 C1718 0.962 . S
H1732 C1718 0.960 . S
H1733 C1719 0.961 . S
H1734 C1719 0.961 . S
H1735 C1719 0.961 . S
H1736 C1720 0.931 . S
H1737 C1725 0.930 . S
H1738 C1726 0.956 . S
H1739 C1726 0.961 . S
H1740 C1726 0.961 . S
H1741 C1727 0.958 . S
H1742 C1727 0.961 . S
H1743 C1727 0.960 . S
C1744 C1745 1.391 . S
C1744 C1746 1.394 . S
C1744 H1760 0.931 . S
C1745 C1744 1.391 . S
C1745 C1749 1.376 . S
C1746 C1744 1.394 . S
C1746 C1747 1.369 . S
C1746 C1750 1.531 . S
C1747 C1746 1.369 . S
C1747 C1748 1.410 . S
C1747 C1755 1.503 . S
C1748 C1747 1.410 . S
C1748 C1749 1.392 . S
C1748 C1751 1.511 . S
C1749 C1745 1.376 . S
C1749 C1748 1.392 . S
C1749 H1761 0.929 . S
C1750 C1746 1.531 . S
C1750 H1762 0.960 . S
C1750 H1763 0.962 . S
C1750 H1764 0.960 . S
C1751 C1748 1.511 . S
C1751 H1765 0.961 . S
C1751 H1766 0.961 . S
C1751 H1767 0.961 . S
C1752 C1753 1.370 . S
C1752 C1754 1.363 . S
C1752 H1768 0.931 . S
C1753 C1752 1.370 . S
C1753 C1757 1.408 . S
C1754 C1752 1.363 . S
C1754 C1755 1.370 . S
C1754 C1758 1.524 . S
C1755 C1747 1.503 . S
C1755 C1754 1.370 . S
C1755 C1756 1.403 . S
C1756 C1755 1.403 . S
C1756 C1757 1.404 . S
C1756 C1759 1.539 . S
C1757 C1753 1.408 . S
C1757 C1756 1.404 . S
C1757 H1769 0.930 . S
C1758 C1754 1.524 . S
C1758 H1770 0.956 . S
C1758 H1771 0.961 . S
C1758 H1772 0.961 . S
C1759 C1756 1.539 . S
C1759 H1773 0.958 . S
C1759 H1774 0.961 . S
C1759 H1775 0.960 . S
H1760 C1744 0.931 . S
H1761 C1749 0.929 . S
H1762 C1750 0.960 . S
H1763 C1750 0.962 . S
H1764 C1750 0.960 . S
H1765 C1751 0.961 . S
H1766 C1751 0.961 . S
H1767 C1751 0.961 . S
H1768 C1752 0.931 . S
H1769 C1757 0.930 . S
H1770 C1758 0.956 . S
H1771 C1758 0.961 . S
H1772 C1758 0.961 . S
H1773 C1759 0.958 . S
H1774 C1759 0.961 . S
H1775 C1759 0.960 . S
C1776 C1777 1.391 . S
C1776 C1778 1.394 . S
C1776 H1792 0.931 . S
C1777 C1776 1.391 . S
C1777 C1781 1.376 . S
C1778 C1776 1.394 . S
C1778 C1779 1.369 . S
C1778 C1782 1.531 . S
C1779 C1778 1.369 . S
C1779 C1780 1.410 . S
C1779 C1787 1.503 . S
C1780 C1779 1.410 . S
C1780 C1781 1.392 . S
C1780 C1783 1.511 . S
C1781 C1777 1.376 . S
C1781 C1780 1.392 . S
C1781 H1793 0.929 . S
C1782 C1778 1.531 . S
C1782 H1794 0.960 . S
C1782 H1795 0.962 . S
C1782 H1796 0.960 . S
C1783 C1780 1.511 . S
C1783 H1797 0.961 . S
C1783 H1798 0.961 . S
C1783 H1799 0.961 . S
C1784 C1785 1.370 . S
C1784 C1786 1.363 . S
C1784 H1800 0.931 . S
C1785 C1784 1.370 . S
C1785 C1789 1.408 . S
C1786 C1784 1.363 . S
C1786 C1787 1.370 . S
C1786 C1790 1.524 . S
C1787 C1779 1.503 . S
C1787 C1786 1.370 . S
C1787 C1788 1.403 . S
C1788 C1787 1.403 . S
C1788 C1789 1.404 . S
C1788 C1791 1.539 . S
C1789 C1785 1.408 . S
C1789 C1788 1.404 . S
C1789 H1801 0.930 . S
C1790 C1786 1.524 . S
C1790 H1802 0.956 . S
C1790 H1803 0.961 . S
C1790 H1804 0.961 . S
C1791 C1788 1.539 . S
C1791 H1805 0.958 . S
C1791 H1806 0.961 . S
C1791 H1807 0.960 . S
H1792 C1776 0.931 . S
H1793 C1781 0.929 . S
H1794 C1782 0.960 . S
H1795 C1782 0.962 . S
H1796 C1782 0.960 . S
H1797 C1783 0.961 . S
H1798 C1783 0.961 . S
H1799 C1783 0.961 . S
H1800 C1784 0.931 . S
H1801 C1789 0.930 . S
H1802 C1790 0.956 . S
H1803 C1790 0.961 . S
H1804 C1790 0.961 . S
H1805 C1791 0.958 . S
H1806 C1791 0.961 . S
H1807 C1791 0.960 . S
C529 C21 1.212 1_554 S
C537 C516 1.215 . S
C561 C417 1.210 1_556 S
C569 C54 1.214 . S
C593 C450 1.215 . S
C601 C87 1.215 1_554 S
C625 C483 1.198 1_556 S
C633 C120 1.209 . S
C657 C153 1.219 . S
C665 C318 1.218 . S
C689 C351 1.200 . S
C697 C186 1.209 . S
C721 C384 1.204 . S
C729 C219 1.210 . S
C753 C252 1.208 . S
C761 C285 1.212 . S
C785 C216 1.954 . S
C793 C18 1.950 . S
C817 C249 1.937 . S
C825 C51 1.948 . S
C849 C150 1.949 . S
C857 C84 1.946 . S
C881 C183 1.949 . S
C889 C117 1.946 . S
C913 N145 0.890 . S
C921 N79 0.844 . S
C945 N112 0.784 . S
C953 N178 0.832 . S
C977 N211 0.866 . S
C985 N13 0.827 . S
C1009 N46 0.841 . S
C1017 N244 0.860 . S
C1041 C282 1.942 . S
C1049 C480 1.949 . S
C1073 C513 1.940 . S
C1081 C315 1.954 . S
C1105 C414 1.944 . S
C1113 C348 1.955 . S
C1137 C447 1.937 . S
C1145 C381 1.952 . S
C1169 N409 0.793 . S
C1177 N343 0.819 . S
C1201 N442 0.886 . S
C1209 N376 0.838 . S
C1233 N277 0.837 . S
C1241 N475 0.858 . S
C1265 N310 0.888 . S
C1273 N508 0.854 . S
C1297 N167 0.806 . S
C1305 N2 0.853 . S
C1329 N35 0.891 . S
C1337 N200 0.846 . S
C1361 N233 0.822 . S
C1369 N68 0.830 . S
C1393 N101 0.888 . S
C1401 N134 0.864 . S
C1425 C73 2.193 . S
C1433 C238 2.202 . S
C1457 C139 2.192 . S
C1465 C106 2.202 . S
C1489 C172 2.199 . S
C1497 C7 2.203 . S
C1521 C40 2.201 . S
C1529 C205 2.212 . S
C1553 N431 0.871 . S
C1561 N266 0.836 . S
C1585 N299 0.843 . S
C1593 N464 0.868 . S
C1617 N497 0.862 . S
C1625 N332 0.834 . S
C1649 N365 0.802 . S
C1657 N398 0.848 . S
C1681 C502 2.212 . S
C1689 C337 2.206 . S
C1713 C370 2.205 . S
C1721 C403 2.210 . S
C1745 C436 2.207 . S
C1753 C271 2.211 . S
C1777 C304 2.190 . S
C1785 C469 2.204 . S
