# Generated by pormake.
# Topology uom, (4)-cn, num edge types: 1
# Building blocks:
#     Node 0, Type 0, BuildingBlock: KOZSID_clean_sbu_0, # of connection points: 4
#     Node 1, Type 0, BuildingBlock: KOZSID_clean_sbu_0, # of connection points: 4
#     Node 2, Type 0, BuildingBlock: KOZSID_clean_sbu_0, # of connection points: 4
#     Node 3, Type 0, BuildingBlock: KOZSID_clean_sbu_0, # of connection points: 4
#     Node 4, Type 0, BuildingBlock: KOZSID_clean_sbu_0, # of connection points: 4
#     Node 5, Type 0, BuildingBlock: KOZSID_clean_sbu_0, # of connection points: 4
#     Edge 6, Type (0, 0), BuildingBlock: EZIPEK_clean_linker_0, # of connection points: 2
#     Edge 7, Type (0, 0), BuildingBlock: EZIPEK_clean_linker_0, # of connection points: 2
#     Edge 8, Type (0, 0), BuildingBlock: EZIPEK_clean_linker_0, # of connection points: 2
#     Edge 9, Type (0, 0), BuildingBlock: EZIPEK_clean_linker_0, # of connection points: 2
#     Edge 10, Type (0, 0), BuildingBlock: EZIPEK_clean_linker_0, # of connection points: 2
#     Edge 11, Type (0, 0), BuildingBlock: EZIPEK_clean_linker_0, # of connection points: 2
#     Edge 12, Type (0, 0), BuildingBlock: EZIPEK_clean_linker_0, # of connection points: 2
#     Edge 13, Type (0, 0), BuildingBlock: EZIPEK_clean_linker_0, # of connection points: 2
#     Edge 14, Type (0, 0), BuildingBlock: EZIPEK_clean_linker_0, # of connection points: 2
#     Edge 15, Type (0, 0), BuildingBlock: EZIPEK_clean_linker_0, # of connection points: 2
#     Edge 16, Type (0, 0), BuildingBlock: EZIPEK_clean_linker_0, # of connection points: 2
#     Edge 17, Type (0, 0), BuildingBlock: EZIPEK_clean_linker_0, # of connection points: 2
# Relax obj value: 0.158
# Max RMSD: 0.175
# Mean RMSD: 0.174
data_MOF--net-uom--node1-KOZSID_clean_sbu_0--edge1-EZIPEK_clean_linker_0
_symmetry_space_group_name_H-M    P1
_symmetry_Int_Tables_number       1
_symmetry_cell_setting            triclinic
loop_
_symmetry_equiv_pos_as_xyz
'x, y, z'
_cell_length_a     30.426049
_cell_length_b     30.412154
_cell_length_c     31.153091
_cell_angle_alpha  89.99581
_cell_angle_beta   89.992966
_cell_angle_gamma 119.93741
loop_
_atom_site_label
_atom_site_type_symbol
_atom_site_fract_x
_atom_site_fract_y
_atom_site_fract_z
_atom_type_partial_charge
C0 C 0.35277 0.1271 0.13403 0.0
C1 C 0.34544 0.10258 0.17314 0.0
C2 C 0.3344 0.05392 0.16414 0.0
C3 C 0.33577 0.05141 0.12016 0.0
N4 N 0.34668 0.09536 0.10099 0.0
Co5 Co 0.35419 0.1081 0.03812 0.0
N6 N 0.31661 0.0344 0.02436 0.0
C7 C 0.30756 0.99675 0.05198 0.0
C8 C 0.27835 0.94946 0.03434 0.0
C9 C 0.26884 0.95792 0.99299 0.0
C10 C 0.2934 0.01015 0.98737 0.0
N11 N 0.36184 0.12083 0.97523 0.0
C12 C 0.33684 0.08937 0.94186 0.0
C13 C 0.35579 0.11376 0.90295 0.0
C14 C 0.39385 0.16201 0.91242 0.0
C15 C 0.39622 0.16443 0.95646 0.0
N16 N 0.3916 0.18178 0.05192 0.0
C17 C 0.42172 0.2191 0.02465 0.0
C18 C 0.44008 0.26656 0.0421 0.0
C19 C 0.4206 0.25853 0.08293 0.0
C20 C 0.3918 0.20635 0.08849 0.0
N21 N 0.4177 0.10685 0.03915 0.0
C22 C 0.50752 0.10326 0.04124 0.0
C23 C 0.49661 0.12822 0.07362 0.0
C24 C 0.45178 0.13015 0.07168 0.0
C25 C 0.47288 0.08032 0.00774 0.0
C26 C 0.42797 0.08206 0.00753 0.0
N27 N 0.29114 0.10924 0.03708 0.0
C28 C 0.24327 0.14828 0.01457 0.0
C29 C 0.20045 0.10996 0.03508 0.0
C30 C 0.20362 0.07152 0.0568 0.0
C31 C 0.24949 0.07199 0.05761 0.0
C32 C 0.28834 0.14702 0.01573 0.0
H33 H 0.25124 0.04218 0.07475 0.0
H34 H 0.32087 0.17654 0.99934 0.0
H35 H 0.44461 0.15029 0.09665 0.0
H36 H 0.40149 0.06316 0.9818 0.0
C37 C 0.31894 0.00713 0.09574 0.0
C38 C 0.36851 0.18125 0.12963 0.0
C39 C 0.29759 0.03546 0.94582 0.0
C40 C 0.42376 0.20852 0.98109 0.0
H41 H 0.34803 0.11829 0.20483 0.0
H42 H 0.32476 0.02356 0.18691 0.0
H43 H 0.26374 0.91313 0.05017 0.0
H44 H 0.24662 0.92883 0.9697 0.0
H45 H 0.34357 0.0982 0.8711 0.0
H46 H 0.4159 0.19219 0.88987 0.0
H47 H 0.4629 0.30277 0.02638 0.0
H48 H 0.42713 0.28784 0.1059 0.0
H49 H 0.52275 0.1464 0.09997 0.0
H50 H 0.48028 0.0607 0.9822 0.0
H51 H 0.24168 0.17856 0.99763 0.0
H52 H 0.17089 0.04152 0.07308 0.0
C53 C 0.33054 0.35369 0.46832 0.0
C54 C 0.34777 0.34645 0.50745 0.0
C55 C 0.38547 0.33551 0.49848 0.0
C56 C 0.38932 0.33679 0.4545 0.0
N57 N 0.35623 0.34758 0.43531 0.0
Co58 Co 0.35062 0.35461 0.37243 0.0
N59 N 0.38703 0.31721 0.35886 0.0
C60 C 0.41648 0.30923 0.38633 0.0
C61 C 0.43594 0.28124 0.36849 0.0
C62 C 0.41791 0.27138 0.32716 0.0
C63 C 0.38861 0.29428 0.3219 0.0
N64 N 0.34467 0.36122 0.30953 0.0
C65 C 0.35015 0.33516 0.27645 0.0
C66 C 0.34323 0.35271 0.23737 0.0
C67 C 0.33325 0.39108 0.24645 0.0
C68 C 0.33471 0.39496 0.29044 0.0
N69 N 0.31462 0.39237 0.38613 0.0
C70 C 0.30734 0.42235 0.3587 0.0
C71 C 0.27861 0.44115 0.37619 0.0
C72 C 0.26749 0.42211 0.41719 0.0
C73 C 0.29064 0.39307 0.42278 0.0
N74 N 0.41528 0.41824 0.37281 0.0
C75 C 0.50863 0.50811 0.37397 0.0
C76 C 0.47338 0.49724 0.40687 0.0
C77 C 0.42663 0.45241 0.40539 0.0
C78 C 0.49626 0.47343 0.34037 0.0
C79 C 0.44968 0.4285 0.34064 0.0
N80 N 0.28648 0.29151 0.37191 0.0
C81 C 0.19882 0.24448 0.35169 0.0
C82 C 0.19515 0.2007 0.36959 0.0
C83 C 0.2376 0.20312 0.38919 0.0
C84 C 0.28279 0.24918 0.3906 0.0
C85 C 0.2452 0.28937 0.35246 0.0
H86 H 0.31479 0.25051 0.40662 0.0
H87 H 0.24763 0.32226 0.33722 0.0
H88 H 0.39979 0.44532 0.43076 0.0
H89 H 0.44165 0.40197 0.31484 0.0
C90 C 0.4173 0.32051 0.4301 0.0
C91 C 0.29227 0.36963 0.4639 0.0
C92 C 0.36597 0.29678 0.28077 0.0
C93 C 0.3189 0.42327 0.31496 0.0
H94 H 0.33469 0.34916 0.53913 0.0
H95 H 0.40636 0.3261 0.52128 0.0
H96 H 0.45873 0.26775 0.38413 0.0
H97 H 0.42571 0.25002 0.30362 0.0
H98 H 0.34564 0.33948 0.20569 0.0
H99 H 0.32429 0.41237 0.2237 0.0
H100 H 0.26508 0.46382 0.36036 0.0
H101 H 0.24495 0.42895 0.44018 0.0
H102 H 0.48183 0.52342 0.4333 0.0
H103 H 0.52275 0.48077 0.31441 0.0
H104 H 0.16634 0.24364 0.33657 0.0
H105 H 0.23555 0.16977 0.4037 0.0
C106 C 0.07765 0.32766 0.80144 0.0
C107 C 0.10149 0.34492 0.8408 0.0
C108 C 0.15013 0.38275 0.83226 0.0
C109 C 0.15332 0.38665 0.7883 0.0
N110 N 0.10982 0.35349 0.7687 0.0
Co111 Co 0.09805 0.34825 0.7057 0.0
N112 N 0.17197 0.38489 0.69284 0.0
C113 C 0.20895 0.41414 0.7207 0.0
C114 C 0.25659 0.43395 0.70331 0.0
C115 C 0.24907 0.4164 0.66185 0.0
C116 C 0.19703 0.38704 0.65606 0.0
N117 N 0.08636 0.34281 0.64265 0.0
C118 C 0.1184 0.34892 0.60982 0.0
C119 C 0.09445 0.34233 0.57054 0.0
C120 C 0.04592 0.33193 0.57921 0.0
C121 C 0.04289 0.33284 0.62318 0.0
N122 N 0.02419 0.31188 0.71871 0.0
C123 C 0.98725 0.30449 0.6909 0.0
C124 C 0.93958 0.27512 0.70783 0.0
C125 C 0.94706 0.26369 0.74885 0.0
C126 C -0.00087 0.28737 0.75507 0.0
N127 N 0.09878 0.41275 0.70613 0.0
C128 C 0.1019 0.50593 0.70749 0.0
C129 C 0.07705 0.47035 0.74006 0.0
C130 C 0.07531 0.42367 0.73847 0.0
C131 C 0.12479 0.49398 0.67409 0.0
C132 C 0.12332 0.44747 0.67427 0.0
N133 N 0.09723 0.28421 0.70515 0.0
C134 C 0.05709 0.19676 0.68435 0.0
C135 C 0.09629 0.19265 0.70358 0.0
C136 C 0.13564 0.23474 0.72409 0.0
C137 C 0.13509 0.28015 0.72494 0.0
C138 C 0.05873 0.24323 0.68488 0.0
H139 H 0.1653 0.312 0.74147 0.0
H140 H 0.02888 0.24596 0.66884 0.0
H141 H 0.05521 0.39654 0.76355 0.0
H142 H 0.1423 0.43976 0.64867 0.0
C143 C 0.19784 0.41476 0.76434 0.0
C144 C 0.02368 0.28907 0.79652 0.0
C145 C 0.17259 0.36507 0.61456 0.0
C146 C -0.00156 0.31652 0.64729 0.0
H147 H 0.0853 0.33175 0.87234 0.0
H148 H 0.18002 0.40367 0.85533 0.0
H149 H 0.29259 0.45676 0.7193 0.0
H150 H 0.27856 0.42465 0.63854 0.0
H151 H 0.11056 0.34525 0.53897 0.0
H152 H 0.01598 0.32309 0.55621 0.0
H153 H 0.90361 0.26134 0.6916 0.0
H154 H 0.91744 0.24058 0.77144 0.0
H155 H 0.05887 0.47851 0.76632 0.0
H156 H 0.14429 0.52077 0.64839 0.0
H157 H 0.02605 0.16453 0.66846 0.0
H158 H 0.16624 0.23229 0.73956 0.0
C159 C 0.85119 0.07475 0.13246 0.0
C160 C 0.85792 0.09865 0.1718 0.0
C161 C 0.86645 0.14663 0.16331 0.0
C162 C 0.86438 0.1494 0.11939 0.0
N163 N 0.85538 0.10628 0.09981 0.0
Co164 Co 0.849 0.09429 0.03688 0.0
N165 N 0.88334 0.16809 0.02382 0.0
C166 C 0.88911 0.20459 0.05149 0.0
C167 C 0.91553 0.25234 0.03397 0.0
C168 C 0.92674 0.24531 0.99271 0.0
C169 C 0.90617 0.19343 0.98715 0.0
N170 N 0.8435 0.08237 0.97394 0.0
C171 C 0.86937 0.11462 0.94124 0.0
C172 C 0.85327 0.09039 0.90193 0.0
C173 C 0.81604 0.04141 0.91048 0.0
C174 C 0.81136 0.03842 0.95442 0.0
N175 N 0.81377 0.02047 0.04994 0.0
C176 C 0.78467 0.98311 0.0223 0.0
C177 C 0.76655 0.93565 0.03971 0.0
C178 C 0.78514 0.94373 0.08086 0.0
C179 C 0.8134 0.9959 0.08651 0.0
N180 N 0.78382 0.09216 0.03723 0.0
C181 C 0.69275 0.09331 0.03962 0.0
C182 C 0.72649 0.11563 1.00541 0.0
C183 C 0.77208 0.11519 1.00508 0.0
C184 C 0.70493 0.06967 0.07228 0.0
C185 C 0.75031 0.06884 0.07014 0.0
N186 N 0.91376 0.0966 0.03657 0.0
C187 C 0.96395 0.05853 0.01891 0.0
C188 C 0.00698 0.10092 0.03527 0.0
C189 C 0.0026 0.14096 0.05248 0.0
C190 C 0.95532 0.13737 0.05394 0.0
C191 C 0.91789 0.05777 0.01877 0.0
H192 H 0.95249 0.16771 0.069 0.0
H193 H 0.88571 0.02581 1.00424 0.0
H194 H 0.79807 0.13404 0.97902 0.0
H195 H 0.75853 0.04984 0.09543 0.0
C196 C 0.87834 0.19345 0.09528 0.0
C197 C 0.83667 0.02097 0.12753 0.0
C198 C 0.9061 0.16915 0.94615 0.0
C199 C 0.78388 0.99386 0.97857 0.0
H200 H 0.85628 0.08284 0.20328 0.0
H201 H 0.87477 0.17639 0.18638 0.0
H202 H 0.92743 0.28819 0.04986 0.0
H203 H 0.94763 0.27502 0.96949 0.0
H204 H 0.86671 0.10657 0.87043 0.0
H205 H 0.79606 0.01119 0.88745 0.0
H206 H 0.74455 0.89944 0.02378 0.0
H207 H 0.77859 0.91451 0.10395 0.0
H208 H 0.71809 0.13419 0.97962 0.0
H209 H 0.6795 0.05195 0.09915 0.0
H210 H 0.9663 0.02693 1.00543 0.0
H211 H 0.03532 0.17418 0.06557 0.0
C212 C 0.87958 0.85009 0.46525 0.0
C213 C 0.86161 0.85633 0.50438 0.0
C214 C 0.82266 0.86542 0.49539 0.0
C215 C 0.81887 0.86413 0.45141 0.0
N216 N 0.85318 0.8551 0.43222 0.0
Co217 Co 0.85957 0.84901 0.36931 0.0
N218 N 0.82071 0.88393 0.35575 0.0
C219 C 0.79033 0.89048 0.38328 0.0
C220 C 0.7703 0.91811 0.36579 0.0
C221 C 0.7889 0.92924 0.32467 0.0
C222 C 0.81896 0.90722 0.31902 0.0
N223 N 0.86631 0.84329 0.30639 0.0
C224 C 0.85944 0.86848 0.27336 0.0
C225 C 0.86708 0.85155 0.23423 0.0
C226 C 0.87909 0.81458 0.24322 0.0
C227 C 0.87797 0.81081 0.2872 0.0
N228 N 0.89808 0.81373 0.38284 0.0
C229 C 0.90694 0.78492 0.3553 0.0
C230 C 0.93648 0.76712 0.37286 0.0
C231 C 0.94647 0.78555 0.41406 0.0
C232 C 0.92195 0.8133 0.41962 0.0
N233 N 0.79643 0.78389 0.36935 0.0
C234 C 0.70403 0.69303 0.3715 0.0
C235 C 0.71548 0.72718 0.33758 0.0
C236 C 0.76162 0.77262 0.33735 0.0
C237 C 0.73994 0.7047 0.40396 0.0
C238 C 0.78619 0.75 0.40197 0.0
N239 N 0.92206 0.91373 0.36936 0.0
C240 C 0.00982 0.96456 0.35043 0.0
C241 C 0.0109 0.00696 0.3689 0.0
C242 C 0.96702 0.002 0.38772 0.0
C243 C 0.92322 0.95478 0.38836 0.0
C244 C 0.96462 0.91837 0.35032 0.0
H245 H 0.89027 0.95157 0.4041 0.0
H246 H 0.96409 0.88647 0.33481 0.0
H247 H 0.76881 0.79889 0.31149 0.0
H248 H 0.81339 0.75785 0.42717 0.0
C249 C 0.78978 0.87906 0.427 0.0
C250 C 0.91895 0.83563 0.46085 0.0
C251 C 0.84215 0.90575 0.27774 0.0
C252 C 0.89533 0.78375 0.31158 0.0
H253 H 0.87497 0.85408 0.53605 0.0
H254 H 0.80089 0.87366 0.5182 0.0
H255 H 0.74696 0.93082 0.38164 0.0
H256 H 0.78101 0.95097 0.30159 0.0
H257 H 0.86395 0.86434 0.20255 0.0
H258 H 0.88909 0.79416 0.22042 0.0
H259 H 0.95106 0.74534 0.35704 0.0
H260 H 0.96908 0.77909 0.43726 0.0
H261 H 0.68847 0.71918 0.31193 0.0
H262 H 0.73223 0.67895 0.4306 0.0
H263 H 0.04338 0.96747 0.33561 0.0
H264 H 0.96694 0.03427 0.40238 0.0
C265 C 0.13035 0.87762 0.79907 0.0
C266 C 0.10614 0.8603 0.83826 0.0
C267 C 0.05825 0.821 0.82947 0.0
C268 C 0.05584 0.81641 0.78552 0.0
N269 N 0.09912 0.85052 0.76621 0.0
Co270 Co 0.11159 0.85664 0.70333 0.0
N271 N 0.0379 0.81761 0.68983 0.0
C272 C 0.00113 0.78699 0.71733 0.0
C273 C 0.95353 0.76626 0.69966 0.0
C274 C 0.96092 0.78467 0.65846 0.0
C275 C 0.01288 0.81543 0.65302 0.0
N276 N 0.12408 0.86349 0.64045 0.0
C277 C 0.09209 0.85694 0.60748 0.0
C278 C 0.11668 0.86497 0.56834 0.0
C279 C 0.16559 0.87677 0.57726 0.0
C280 C 0.16819 0.87523 0.62122 0.0
N281 N 0.18527 0.89493 0.71682 0.0
C282 C 0.22284 0.90316 0.68944 0.0
C283 C 0.27013 0.93185 0.70726 0.0
C284 C 0.2617 0.942 0.74845 0.0
C285 C 0.20952 0.9186 0.75362 0.0
N286 N 0.11359 0.79353 0.70342 0.0
C287 C 0.11219 0.7012 0.70553 0.0
C288 C 0.08997 0.71285 0.67138 0.0
C289 C 0.09056 0.75895 0.67118 0.0
C290 C 0.13589 0.73684 0.73825 0.0
C291 C 0.1368 0.7831 0.73628 0.0
N292 N 0.10935 0.91913 0.70339 0.0
C293 C 0.14737 0.00746 0.68625 0.0
C294 C 0.10536 0.0082 0.70351 0.0
C295 C 0.06553 0.96385 0.72083 0.0
C296 C 0.06888 0.91999 0.72143 0.0
C297 C 0.14804 0.96208 0.68556 0.0
H298 H 0.03862 0.88679 0.73642 0.0
H299 H 0.17979 0.96176 0.67062 0.0
H300 H 0.07181 0.7663 0.64515 0.0
H301 H 0.15575 0.81015 0.76166 0.0
C302 C 0.01195 0.78686 0.76114 0.0
C303 C 0.18412 0.91678 0.79443 0.0
C304 C 0.03748 0.83912 0.61192 0.0
C305 C 0.21249 0.89195 0.64563 0.0
H306 H 0.12168 0.8743 0.86983 0.0
H307 H 0.02827 0.79956 0.85235 0.0
H308 H 0.91756 0.74254 0.71542 0.0
H309 H 0.93138 0.77625 0.63518 0.0
H310 H 0.10076 0.86205 0.5367 0.0
H311 H 0.19597 0.88683 0.55443 0.0
H312 H 0.30647 0.9458 0.69163 0.0
H313 H 0.29067 0.96402 0.7719 0.0
H314 H 0.07138 0.68601 0.64553 0.0
H315 H 0.15355 0.72892 0.76507 0.0
H316 H 0.1787 0.04138 0.67252 0.0
H317 H 0.0326 0.96347 0.7345 0.0
C318 C 0.41429 0.24814 0.18797 0.0
C319 C 0.36817 0.21113 0.16862 0.0
C320 C 0.32116 0.2257 0.2263 0.0
C321 C 0.36691 0.26725 0.24189 0.0
N322 N 0.45643 0.32418 0.2316 0.0
N323 N 0.27688 0.16823 0.16733 0.0
C324 C 0.41331 0.28034 0.22087 0.0
C325 C 0.32135 0.20093 0.1873 0.0
N326 N 0.45899 0.25113 0.17638 0.0
N327 N 0.27764 0.20871 0.24955 0.0
H328 H 0.27539 0.1493 0.13898 0.0
H329 H 0.2418 0.16291 0.17702 0.0
H330 H 0.27599 0.22612 0.27789 0.0
H331 H 0.24458 0.1748 0.24287 0.0
H332 H 0.49306 0.27401 0.19232 0.0
H333 H 0.46104 0.22698 0.15369 0.0
H334 H 0.49019 0.33811 0.21445 0.0
H335 H 0.45713 0.3489 0.25515 0.0
C336 C 0.22479 0.32184 0.52084 0.0
C337 C 0.26167 0.36889 0.50274 0.0
C338 C 0.23712 0.41338 0.55536 0.0
C339 C 0.20361 0.36665 0.57587 0.0
N340 N 0.17276 0.27721 0.58253 0.0
N341 N 0.31227 0.45964 0.51132 0.0
C342 C 0.19953 0.32111 0.55979 0.0
C343 C 0.27056 0.41478 0.52252 0.0
N344 N 0.21292 0.27764 0.50028 0.0
N345 N 0.2363 0.45638 0.56651 0.0
H346 H 0.33855 0.46195 0.48862 0.0
H347 H 0.3233 0.49353 0.52756 0.0
H348 H 0.21206 0.45676 0.59001 0.0
H349 H 0.25628 0.49042 0.54973 0.0
H350 H 0.18291 0.24256 0.50955 0.0
H351 H 0.23046 0.27653 0.47186 0.0
H352 H 0.17365 0.24421 0.57549 0.0
H353 H 0.15349 0.27516 0.61083 0.0
C354 C 0.97907 0.19747 0.89336 0.0
C355 C 0.93637 0.20037 0.90788 0.0
C356 C 0.95531 0.26664 0.85381 0.0
C357 C 0.99341 0.25853 0.83526 0.0
N358 N 0.03803 0.21167 0.8354 0.0
N359 N 0.87795 0.23092 0.89578 0.0
C360 C 0.00429 0.22264 0.85458 0.0
C361 C 0.9227 0.23291 0.8862 0.0
N362 N 0.99665 0.17194 0.91739 0.0
N363 N 0.95162 0.30791 0.84198 0.0
H364 H 0.85285 0.20639 0.91888 0.0
H365 H 0.86379 0.25021 0.87808 0.0
H366 H 0.97611 0.33457 0.81976 0.0
H367 H 0.92775 0.31829 0.85737 0.0
H368 H 0.03123 0.17383 0.91151 0.0
H369 H 0.97899 0.15279 0.94562 0.0
H370 H 0.04397 0.18246 0.84563 0.0
H371 H 0.05719 0.22915 0.80715 0.0
C372 C 0.88477 0.99777 0.18123 0.0
C373 C 0.83779 0.99082 0.16587 0.0
C374 C 0.79346 0.92331 0.21963 0.0
C375 C 0.84049 0.93483 0.23868 0.0
N376 N 0.93135 0.98778 0.24007 0.0
N377 N 0.74776 0.95408 0.17696 0.0
C378 C 0.88629 0.97339 0.22005 0.0
C379 C 0.79221 0.95567 0.18704 0.0
N380 N 0.92794 0.02658 0.15804 0.0
N381 N 0.75006 0.88035 0.23148 0.0
H382 H 0.74544 0.9777 0.15388 0.0
H383 H 0.71437 0.93275 0.19428 0.0
H384 H 0.74969 0.85494 0.25418 0.0
H385 H 0.71555 0.86751 0.21576 0.0
H386 H 0.9623 0.02831 0.1647 0.0
H387 H 0.92833 0.0452 0.12979 0.0
H388 H 0.96535 0.01919 0.23062 0.0
H389 H 0.93401 0.97076 0.26827 0.0
C390 C 0.97298 0.7912 0.55256 0.0
C391 C 0.0067 0.83782 0.57312 0.0
C392 C 0.98694 0.88304 0.51738 0.0
C393 C 0.94923 0.83614 0.49978 0.0
N394 N 0.89811 0.74541 0.50814 0.0
N395 N 0.0395 0.92778 0.57873 0.0
C396 C 0.9398 0.79012 0.51963 0.0
C397 C 0.01188 0.88365 0.55648 0.0
N398 N 0.97366 0.74805 0.56348 0.0
N399 N 6e-05 0.92714 0.49609 0.0
H400 H 0.0584 0.92974 0.60723 0.0
H401 H 0.0398 0.96122 0.57097 0.0
H402 H 0.98258 0.92824 0.46762 0.0
H403 H 0.03109 0.96187 0.50468 0.0
H404 H 0.95346 0.71407 0.54668 0.0
H405 H -0.00191 0.74753 0.5867 0.0
H406 H 0.88669 0.71146 0.52442 0.0
H407 H 0.8723 0.74326 0.48503 0.0
C408 C 0.23328 0.01539 0.88577 0.0
C409 C 0.26929 0.00554 0.90621 0.0
C410 C 0.24718 0.93542 0.85533 0.0
C411 C 0.21408 0.94773 0.83289 0.0
N412 N 0.18325 0.0059 0.82203 0.0
N413 N 0.32054 0.9656 0.90182 0.0
C414 C 0.20936 0.98963 0.8468 0.0
C415 C 0.27922 0.96831 0.8884 0.0
N416 N 0.22097 0.04858 0.90411 0.0
N417 N 0.24724 0.8916 0.84585 0.0
H418 H 0.34578 0.99009 0.92484 0.0
H419 H 0.33245 0.94257 0.88709 0.0
H420 H 0.22414 0.86644 0.82214 0.0
H421 H 0.26678 0.87815 0.86406 0.0
H422 H 0.1914 0.05357 0.89322 0.0
H423 H 0.23787 0.0684 0.93226 0.0
H424 H 0.18371 0.0399 0.8275 0.0
H425 H 0.16494 0.98775 0.79367 0.0
C426 C 0.13296 0.11843 0.07293 0.0
C427 C 0.15206 0.10999 0.0343 0.0
C428 C 0.07882 0.10158 0.99518 0.0
C429 C 0.0567 0.10341 0.0348 0.0
N430 N 0.05839 0.10265 0.11245 0.0
N431 N 0.13955 0.08478 0.95985 0.0
C432 C 0.08253 0.10876 0.07407 0.0
C433 C 0.12403 0.09916 0.99566 0.0
N434 N 0.16353 0.13718 0.10813 0.0
N435 N 0.05774 0.10382 0.9571 0.0
H436 H 0.1724 0.08226 0.95921 0.0
H437 H 0.11759 0.07105 0.93218 0.0
H438 H 0.02461 0.10575 0.95518 0.0
H439 H 0.07555 0.10835 0.92755 0.0
H440 H 0.15296 0.14858 0.13595 0.0
H441 H 0.20141 0.14643 0.10766 0.0
H442 H 0.07404 0.10105 0.14176 0.0
H443 H 0.0208 0.09408 0.11478 0.0
C444 C 0.07869 0.08184 0.3292 0.0
C445 C 0.05799 0.05676 0.36869 0.0
C446 C 0.12219 0.13006 0.4081 0.0
C447 C 0.14659 0.1523 0.3688 0.0
N448 N 0.15201 0.14658 0.29181 0.0
N449 N 0.06533 0.05293 0.44563 0.0
C450 C 0.12592 0.12749 0.32923 0.0
C451 C 0.08122 0.07973 0.40818 0.0
N452 N 0.05237 0.06309 0.29184 0.0
N453 N 0.13702 0.15773 0.44513 0.0
H454 H 0.03575 0.01556 0.4469 0.0
H455 H 0.0845 0.06607 0.47467 0.0
H456 H 0.16604 0.19538 0.44582 0.0
H457 H 0.11725 0.1452 0.47398 0.0
H458 H 0.0628 0.08279 0.26286 0.0
H459 H 0.01756 0.02972 0.29058 0.0
H460 H 0.14177 0.12677 0.26287 0.0
H461 H 0.18614 0.18066 0.29022 0.0
C462 C 0.09069 0.11819 0.74201 0.0
C463 C 0.09599 0.14406 0.7029 0.0
C464 C 0.10134 0.0775 0.66353 0.0
C465 C 0.10265 0.05528 0.70322 0.0
N466 N 0.10747 0.05948 0.78072 0.0
N467 N 0.11281 0.15231 0.62668 0.0
C468 C 0.09981 0.07701 0.74267 0.0
C469 C 0.10302 0.1248 0.66364 0.0
N470 N 0.07507 0.13183 0.7782 0.0
N471 N 0.09658 0.05262 0.62579 0.0
H472 H 0.11293 0.18652 0.62515 0.0
H473 H 0.12451 0.14314 0.5983 0.0
H474 H 0.09538 0.01788 0.62424 0.0
H475 H 0.0894 0.06417 0.59642 0.0
H476 H 0.06566 0.11108 0.80665 0.0
H477 H 0.06634 0.16084 0.77827 0.0
H478 H 0.11139 0.07769 0.80997 0.0
H479 H 0.1145 0.02939 0.78267 0.0
C480 C 0.59741 0.05037 0.04022 0.0
C481 C 0.64518 0.09568 0.04152 0.0
C482 C 0.60274 0.14604 0.03903 0.0
C483 C 0.55507 0.10085 0.04235 0.0
N484 N 0.50782 0.01072 0.05624 0.0
N485 N 0.69286 0.18637 0.05263 0.0
C486 C 0.5526 0.05314 0.04598 0.0
C487 C 0.64776 0.14352 0.04404 0.0
N488 N 0.59457 0.00493 0.03174 0.0
N489 N 0.60521 0.19106 0.02936 0.0
H490 H 0.72651 0.18596 0.05787 0.0
H491 H 0.69578 0.22139 0.05892 0.0
H492 H 0.57314 0.1944 0.02421 0.0
H493 H 0.6391 0.22404 0.02227 0.0
H494 H 0.56041 0.97161 0.02617 0.0
H495 H 0.62642 0.00136 0.02606 0.0
H496 H 0.50511 0.97598 0.06343 0.0
H497 H 0.47437 0.0114 0.06188 0.0
C498 C 0.65136 0.59767 0.37127 0.0
C499 C 0.65403 0.64556 0.37332 0.0
C500 C 0.56129 0.60342 0.37199 0.0
C501 C 0.55867 0.55559 0.37466 0.0
N502 N 0.60156 0.50793 0.38686 0.0
N503 N 0.61149 0.6935 0.38586 0.0
C504 C 0.60385 0.55289 0.37726 0.0
C505 C 0.60895 0.64833 0.37671 0.0
N506 N 0.6937 0.59471 0.36192 0.0
N507 N 0.5187 0.60617 0.36323 0.0
H508 H 0.64566 0.72707 0.39084 0.0
H509 H 0.57962 0.69655 0.39284 0.0
H510 H 0.4832 0.57421 0.3583 0.0
H511 H 0.5196 0.6402 0.35664 0.0
H512 H 0.69266 0.56053 0.35576 0.0
H513 H 0.72904 0.62656 0.35611 0.0
H514 H 0.63361 0.50501 0.3933 0.0
H515 H 0.56753 0.47451 0.39271 0.0
C516 C 0.15493 0.6486 0.70568 0.0
C517 C 0.1097 0.65124 0.7073 0.0
C518 C 0.05922 0.55854 0.70525 0.0
C519 C 0.10438 0.55592 0.70836 0.0
N520 N 0.19462 0.59861 0.72162 0.0
N521 N 0.01914 0.60864 0.71893 0.0
C522 C 0.15215 0.60103 0.71157 0.0
C523 C 0.06186 0.60615 0.71015 0.0
N524 N 0.20029 0.69103 0.69681 0.0
N525 N 0.01411 0.51605 0.69591 0.0
H526 H 0.01965 0.64279 0.72404 0.0
H527 H 0.98417 0.5767 0.72549 0.0
H528 H 0.01069 0.48058 0.69082 0.0
H529 H 0.98111 0.51704 0.68901 0.0
H530 H 0.2335 0.69001 0.69098 0.0
H531 H 0.20384 0.72644 0.69108 0.0
H532 H 0.22944 0.63061 0.72847 0.0
H533 H 0.19394 0.5645 0.72744 0.0
loop_
_geom_bond_atom_site_label_1
_geom_bond_atom_site_label_2
_geom_bond_distance
_geom_bond_site_symmetry_2
_ccdc_geom_bond_type
C0 C1 1.443 . S
C0 N4 1.376 . S
C0 C38 1.389 . S
C1 C0 1.443 . S
C1 C2 1.340 . S
C1 H41 0.951 . S
C2 C1 1.340 . S
C2 C3 1.439 . S
C2 H42 0.950 . S
C3 C2 1.439 . S
C3 N4 1.374 . S
C3 C37 1.395 . S
N4 C0 1.376 . S
N4 C3 1.374 . S
N4 Co5 2.008 . S
Co5 N4 2.008 . S
Co5 N6 1.995 . S
Co5 N11 2.008 1_554 S
Co5 N16 1.995 . S
Co5 N21 2.282 . S
Co5 N27 2.282 . S
N6 Co5 1.995 . S
N6 C7 1.376 . S
N6 C10 1.383 1_554 S
C7 N6 1.376 . S
C7 C8 1.446 . S
C7 C37 1.391 . S
C8 C7 1.446 . S
C8 C9 1.339 1_554 S
C8 H43 0.949 1_545 S
C9 C8 1.339 1_556 S
C9 C10 1.439 . S
C9 H44 0.950 . S
C10 N6 1.383 1_556 S
C10 C9 1.439 . S
C10 C39 1.392 . S
N11 Co5 2.008 1_556 S
N11 C12 1.376 . S
N11 C15 1.374 . S
C12 N11 1.376 . S
C12 C13 1.443 . S
C12 C39 1.389 . S
C13 C12 1.443 . S
C13 C14 1.340 . S
C13 H45 0.951 . S
C14 C13 1.340 . S
C14 C15 1.439 . S
C14 H46 0.950 . S
C15 N11 1.374 . S
C15 C14 1.439 . S
C15 C40 1.395 . S
N16 Co5 1.995 . S
N16 C17 1.376 . S
N16 C20 1.383 . S
C17 N16 1.376 . S
C17 C18 1.446 . S
C17 C40 1.391 1_554 S
C18 C17 1.446 . S
C18 C19 1.339 . S
C18 H47 0.949 . S
C19 C18 1.339 . S
C19 C20 1.439 . S
C19 H48 0.950 . S
C20 N16 1.383 . S
C20 C19 1.439 . S
C20 C38 1.392 . S
N21 Co5 2.282 . S
N21 C24 1.332 . S
N21 C26 1.332 . S
C22 C23 1.386 . S
C22 C25 1.388 . S
C23 C22 1.386 . S
C23 C24 1.382 . S
C23 H49 0.950 . S
C24 N21 1.332 . S
C24 C23 1.382 . S
C24 H35 0.952 . S
C25 C22 1.388 . S
C25 C26 1.382 . S
C25 H50 0.950 . S
C26 N21 1.332 . S
C26 C25 1.382 . S
C26 H36 0.948 . S
N27 Co5 2.282 . S
N27 C31 1.332 . S
N27 C32 1.332 . S
C28 C29 1.388 . S
C28 C32 1.382 . S
C28 H51 0.950 . S
C29 C28 1.388 . S
C29 C30 1.386 . S
C30 C29 1.386 . S
C30 C31 1.382 . S
C30 H52 0.950 . S
C31 N27 1.332 . S
C31 C30 1.382 . S
C31 H33 0.952 . S
C32 N27 1.332 . S
C32 C28 1.382 . S
C32 H34 0.948 . S
H33 C31 0.952 . S
H34 C32 0.948 . S
H35 C24 0.952 . S
H36 C26 0.948 . S
C37 C3 1.395 . S
C37 C7 1.391 . S
C38 C0 1.389 . S
C38 C20 1.392 . S
C39 C10 1.392 . S
C39 C12 1.389 . S
C40 C15 1.395 . S
C40 C17 1.391 1_556 S
H41 C1 0.951 . S
H42 C2 0.950 . S
H43 C8 0.949 1_565 S
H44 C9 0.950 . S
H45 C13 0.951 . S
H46 C14 0.950 . S
H47 C18 0.949 . S
H48 C19 0.950 . S
H49 C23 0.950 . S
H50 C25 0.950 . S
H51 C28 0.950 . S
H52 C30 0.950 . S
C53 C54 1.443 . S
C53 N57 1.376 . S
C53 C91 1.389 . S
C54 C53 1.443 . S
C54 C55 1.340 . S
C54 H94 0.951 . S
C55 C54 1.340 . S
C55 C56 1.439 . S
C55 H95 0.950 . S
C56 C55 1.439 . S
C56 N57 1.374 . S
C56 C90 1.395 . S
N57 C53 1.376 . S
N57 C56 1.374 . S
N57 Co58 2.008 . S
Co58 N57 2.008 . S
Co58 N59 1.995 . S
Co58 N64 2.008 . S
Co58 N69 1.995 . S
Co58 N74 2.282 . S
Co58 N80 2.282 . S
N59 Co58 1.995 . S
N59 C60 1.376 . S
N59 C63 1.383 . S
C60 N59 1.376 . S
C60 C61 1.446 . S
C60 C90 1.391 . S
C61 C60 1.446 . S
C61 C62 1.339 . S
C61 H96 0.949 . S
C62 C61 1.339 . S
C62 C63 1.439 . S
C62 H97 0.950 . S
C63 N59 1.383 . S
C63 C62 1.439 . S
C63 C92 1.392 . S
N64 Co58 2.008 . S
N64 C65 1.376 . S
N64 C68 1.374 . S
C65 N64 1.376 . S
C65 C66 1.443 . S
C65 C92 1.389 . S
C66 C65 1.443 . S
C66 C67 1.340 . S
C66 H98 0.951 . S
C67 C66 1.340 . S
C67 C68 1.439 . S
C67 H99 0.950 . S
C68 N64 1.374 . S
C68 C67 1.439 . S
C68 C93 1.395 . S
N69 Co58 1.995 . S
N69 C70 1.376 . S
N69 C73 1.383 . S
C70 N69 1.376 . S
C70 C71 1.446 . S
C70 C93 1.391 . S
C71 C70 1.446 . S
C71 C72 1.339 . S
C71 H100 0.949 . S
C72 C71 1.339 . S
C72 C73 1.439 . S
C72 H101 0.950 . S
C73 N69 1.383 . S
C73 C72 1.439 . S
C73 C91 1.392 . S
N74 Co58 2.282 . S
N74 C77 1.332 . S
N74 C79 1.332 . S
C75 C76 1.386 . S
C75 C78 1.388 . S
C76 C75 1.386 . S
C76 C77 1.382 . S
C76 H102 0.950 . S
C77 N74 1.332 . S
C77 C76 1.382 . S
C77 H88 0.952 . S
C78 C75 1.388 . S
C78 C79 1.382 . S
C78 H103 0.950 . S
C79 N74 1.332 . S
C79 C78 1.382 . S
C79 H89 0.948 . S
N80 Co58 2.282 . S
N80 C84 1.332 . S
N80 C85 1.332 . S
C81 C82 1.388 . S
C81 C85 1.382 . S
C81 H104 0.950 . S
C82 C81 1.388 . S
C82 C83 1.386 . S
C83 C82 1.386 . S
C83 C84 1.382 . S
C83 H105 0.950 . S
C84 N80 1.332 . S
C84 C83 1.382 . S
C84 H86 0.952 . S
C85 N80 1.332 . S
C85 C81 1.382 . S
C85 H87 0.948 . S
H86 C84 0.952 . S
H87 C85 0.948 . S
H88 C77 0.952 . S
H89 C79 0.948 . S
C90 C56 1.395 . S
C90 C60 1.391 . S
C91 C53 1.389 . S
C91 C73 1.392 . S
C92 C63 1.392 . S
C92 C65 1.389 . S
C93 C68 1.395 . S
C93 C70 1.391 . S
H94 C54 0.951 . S
H95 C55 0.950 . S
H96 C61 0.949 . S
H97 C62 0.950 . S
H98 C66 0.951 . S
H99 C67 0.950 . S
H100 C71 0.949 . S
H101 C72 0.950 . S
H102 C76 0.950 . S
H103 C78 0.950 . S
H104 C81 0.950 . S
H105 C83 0.950 . S
C106 C107 1.443 . S
C106 N110 1.376 . S
C106 C144 1.389 1_455 S
C107 C106 1.443 . S
C107 C108 1.340 . S
C107 H147 0.951 . S
C108 C107 1.340 . S
C108 C109 1.439 . S
C108 H148 0.950 . S
C109 C108 1.439 . S
C109 N110 1.374 . S
C109 C143 1.395 . S
N110 C106 1.376 . S
N110 C109 1.374 . S
N110 Co111 2.008 . S
Co111 N110 2.008 . S
Co111 N112 1.995 . S
Co111 N117 2.008 . S
Co111 N122 1.995 1_455 S
Co111 N127 2.282 . S
Co111 N133 2.282 . S
N112 Co111 1.995 . S
N112 C113 1.376 . S
N112 C116 1.383 . S
C113 N112 1.376 . S
C113 C114 1.446 . S
C113 C143 1.391 . S
C114 C113 1.446 . S
C114 C115 1.339 . S
C114 H149 0.949 . S
C115 C114 1.339 . S
C115 C116 1.439 . S
C115 H150 0.950 . S
C116 N112 1.383 . S
C116 C115 1.439 . S
C116 C145 1.392 . S
N117 Co111 2.008 . S
N117 C118 1.376 . S
N117 C121 1.374 1_455 S
C118 N117 1.376 . S
C118 C119 1.443 . S
C118 C145 1.389 . S
C119 C118 1.443 . S
C119 C120 1.340 1_455 S
C119 H151 0.951 . S
C120 C119 1.340 1_655 S
C120 C121 1.439 . S
C120 H152 0.950 . S
C121 N117 1.374 1_655 S
C121 C120 1.439 . S
C121 C146 1.395 . S
N122 Co111 1.995 1_655 S
N122 C123 1.376 . S
N122 C126 1.383 . S
C123 N122 1.376 . S
C123 C124 1.446 . S
C123 C146 1.391 . S
C124 C123 1.446 . S
C124 C125 1.339 . S
C124 H153 0.949 . S
C125 C124 1.339 . S
C125 C126 1.439 . S
C125 H154 0.950 . S
C126 N122 1.383 . S
C126 C125 1.439 . S
C126 C144 1.392 . S
N127 Co111 2.282 . S
N127 C130 1.332 1_455 S
N127 C132 1.332 . S
C128 C129 1.386 1_455 S
C128 C131 1.388 . S
C129 C128 1.386 1_655 S
C129 C130 1.382 . S
C129 H155 0.950 . S
C130 N127 1.332 1_655 S
C130 C129 1.382 . S
C130 H141 0.952 . S
C131 C128 1.388 . S
C131 C132 1.382 . S
C131 H156 0.950 . S
C132 N127 1.332 . S
C132 C131 1.382 . S
C132 H142 0.948 . S
N133 Co111 2.282 . S
N133 C137 1.332 . S
N133 C138 1.332 1_455 S
C134 C135 1.388 1_655 S
C134 C138 1.382 . S
C134 H157 0.950 . S
C135 C134 1.388 1_455 S
C135 C136 1.386 . S
C136 C135 1.386 . S
C136 C137 1.382 . S
C136 H158 0.950 . S
C137 N133 1.332 . S
C137 C136 1.382 . S
C137 H139 0.952 . S
C138 N133 1.332 1_655 S
C138 C134 1.382 . S
C138 H140 0.948 . S
H139 C137 0.952 . S
H140 C138 0.948 . S
H141 C130 0.952 . S
H142 C132 0.948 . S
C143 C109 1.395 . S
C143 C113 1.391 . S
C144 C106 1.389 1_655 S
C144 C126 1.392 . S
C145 C116 1.392 . S
C145 C118 1.389 . S
C146 C121 1.395 . S
C146 C123 1.391 . S
H147 C107 0.951 . S
H148 C108 0.950 . S
H149 C114 0.949 . S
H150 C115 0.950 . S
H151 C119 0.951 . S
H152 C120 0.950 . S
H153 C124 0.949 . S
H154 C125 0.950 . S
H155 C129 0.950 . S
H156 C131 0.950 . S
H157 C134 0.950 . S
H158 C136 0.950 . S
C159 C160 1.443 . S
C159 N163 1.376 . S
C159 C197 1.389 1_545 S
C160 C159 1.443 . S
C160 C161 1.340 . S
C160 H200 0.951 . S
C161 C160 1.340 . S
C161 C162 1.439 . S
C161 H201 0.950 . S
C162 C161 1.439 . S
C162 N163 1.374 . S
C162 C196 1.395 . S
N163 C159 1.376 . S
N163 C162 1.374 . S
N163 Co164 2.008 . S
Co164 N163 2.008 . S
Co164 N165 1.995 . S
Co164 N170 2.008 1_554 S
Co164 N175 1.995 1_545 S
Co164 N180 2.282 . S
Co164 N186 2.282 . S
N165 Co164 1.995 . S
N165 C166 1.376 . S
N165 C169 1.383 1_554 S
C166 N165 1.376 . S
C166 C167 1.446 . S
C166 C196 1.391 . S
C167 C166 1.446 . S
C167 C168 1.339 1_554 S
C167 H202 0.949 . S
C168 C167 1.339 1_556 S
C168 C169 1.439 . S
C168 H203 0.950 . S
C169 N165 1.383 1_556 S
C169 C168 1.439 . S
C169 C198 1.392 . S
N170 Co164 2.008 1_556 S
N170 C171 1.376 . S
N170 C174 1.374 1_545 S
C171 N170 1.376 . S
C171 C172 1.443 . S
C171 C198 1.389 . S
C172 C171 1.443 . S
C172 C173 1.340 1_545 S
C172 H204 0.951 . S
C173 C172 1.340 1_565 S
C173 C174 1.439 . S
C173 H205 0.950 . S
C174 N170 1.374 1_565 S
C174 C173 1.439 . S
C174 C199 1.395 . S
N175 Co164 1.995 1_565 S
N175 C176 1.376 . S
N175 C179 1.383 . S
C176 N175 1.376 . S
C176 C177 1.446 . S
C176 C199 1.391 1_554 S
C177 C176 1.446 . S
C177 C178 1.339 . S
C177 H206 0.949 . S
C178 C177 1.339 . S
C178 C179 1.439 . S
C178 H207 0.950 . S
C179 N175 1.383 . S
C179 C178 1.439 . S
C179 C197 1.392 . S
N180 Co164 2.282 . S
N180 C183 1.332 1_545 S
N180 C185 1.332 . S
C181 C182 1.386 1_545 S
C181 C184 1.388 . S
C182 C181 1.386 1_565 S
C182 C183 1.382 . S
C182 H208 0.950 . S
C183 N180 1.332 1_565 S
C183 C182 1.382 . S
C183 H194 0.952 . S
C184 C181 1.388 . S
C184 C185 1.382 . S
C184 H209 0.950 . S
C185 N180 1.332 . S
C185 C184 1.382 . S
C185 H195 0.948 . S
N186 Co164 2.282 . S
N186 C190 1.332 . S
N186 C191 1.332 1_545 S
C187 C188 1.388 1_565 S
C187 C191 1.382 . S
C187 H210 0.950 . S
C188 C187 1.388 1_545 S
C188 C189 1.386 . S
C189 C188 1.386 . S
C189 C190 1.382 . S
C189 H211 0.950 1_655 S
C190 N186 1.332 . S
C190 C189 1.382 . S
C190 H192 0.952 . S
C191 N186 1.332 1_565 S
C191 C187 1.382 . S
C191 H193 0.948 . S
H192 C190 0.952 . S
H193 C191 0.948 . S
H194 C183 0.952 . S
H195 C185 0.948 . S
C196 C162 1.395 . S
C196 C166 1.391 . S
C197 C159 1.389 1_565 S
C197 C179 1.392 . S
C198 C169 1.392 . S
C198 C171 1.389 . S
C199 C174 1.395 . S
C199 C176 1.391 1_556 S
H200 C160 0.951 . S
H201 C161 0.950 . S
H202 C167 0.949 . S
H203 C168 0.950 . S
H204 C172 0.951 . S
H205 C173 0.950 . S
H206 C177 0.949 . S
H207 C178 0.950 . S
H208 C182 0.950 . S
H209 C184 0.950 . S
H210 C187 0.950 . S
H211 C189 0.950 1_455 S
C212 C213 1.443 . S
C212 N216 1.376 . S
C212 C250 1.389 . S
C213 C212 1.443 . S
C213 C214 1.340 . S
C213 H253 0.951 . S
C214 C213 1.340 . S
C214 C215 1.439 . S
C214 H254 0.950 . S
C215 C214 1.439 . S
C215 N216 1.374 . S
C215 C249 1.395 . S
N216 C212 1.376 . S
N216 C215 1.374 . S
N216 Co217 2.008 . S
Co217 N216 2.008 . S
Co217 N218 1.995 . S
Co217 N223 2.008 . S
Co217 N228 1.995 . S
Co217 N233 2.282 . S
Co217 N239 2.282 . S
N218 Co217 1.995 . S
N218 C219 1.376 . S
N218 C222 1.383 . S
C219 N218 1.376 . S
C219 C220 1.446 . S
C219 C249 1.391 . S
C220 C219 1.446 . S
C220 C221 1.339 . S
C220 H255 0.949 . S
C221 C220 1.339 . S
C221 C222 1.439 . S
C221 H256 0.950 . S
C222 N218 1.383 . S
C222 C221 1.439 . S
C222 C251 1.392 . S
N223 Co217 2.008 . S
N223 C224 1.376 . S
N223 C227 1.374 . S
C224 N223 1.376 . S
C224 C225 1.443 . S
C224 C251 1.389 . S
C225 C224 1.443 . S
C225 C226 1.340 . S
C225 H257 0.951 . S
C226 C225 1.340 . S
C226 C227 1.439 . S
C226 H258 0.950 . S
C227 N223 1.374 . S
C227 C226 1.439 . S
C227 C252 1.395 . S
N228 Co217 1.995 . S
N228 C229 1.376 . S
N228 C232 1.383 . S
C229 N228 1.376 . S
C229 C230 1.446 . S
C229 C252 1.391 . S
C230 C229 1.446 . S
C230 C231 1.339 . S
C230 H259 0.949 1_655 S
C231 C230 1.339 . S
C231 C232 1.439 . S
C231 H260 0.950 1_655 S
C232 N228 1.383 . S
C232 C231 1.439 . S
C232 C250 1.392 . S
N233 Co217 2.282 . S
N233 C236 1.332 . S
N233 C238 1.332 . S
C234 C235 1.386 . S
C234 C237 1.388 . S
C235 C234 1.386 . S
C235 C236 1.382 . S
C235 H261 0.950 . S
C236 N233 1.332 . S
C236 C235 1.382 . S
C236 H247 0.952 . S
C237 C234 1.388 . S
C237 C238 1.382 . S
C237 H262 0.950 . S
C238 N233 1.332 . S
C238 C237 1.382 . S
C238 H248 0.948 . S
N239 Co217 2.282 . S
N239 C243 1.332 . S
N239 C244 1.332 1_655 S
C240 C241 1.388 . S
C240 C244 1.382 . S
C240 H263 0.950 . S
C241 C240 1.388 . S
C241 C242 1.386 . S
C242 C241 1.386 . S
C242 C243 1.382 1_455 S
C242 H264 0.950 1_565 S
C243 N239 1.332 . S
C243 C242 1.382 1_655 S
C243 H245 0.952 . S
C244 N239 1.332 1_455 S
C244 C240 1.382 . S
C244 H246 0.948 . S
H245 C243 0.952 . S
H246 C244 0.948 . S
H247 C236 0.952 . S
H248 C238 0.948 . S
C249 C215 1.395 . S
C249 C219 1.391 . S
C250 C212 1.389 . S
C250 C232 1.392 . S
C251 C222 1.392 . S
C251 C224 1.389 . S
C252 C227 1.395 . S
C252 C229 1.391 . S
H253 C213 0.951 . S
H254 C214 0.950 . S
H255 C220 0.949 . S
H256 C221 0.950 . S
H257 C225 0.951 . S
H258 C226 0.950 . S
H259 C230 0.949 1_455 S
H260 C231 0.950 1_455 S
H261 C235 0.950 . S
H262 C237 0.950 . S
H263 C240 0.950 . S
H264 C242 0.950 1_545 S
C265 C266 1.443 . S
C265 N269 1.376 . S
C265 C303 1.389 . S
C266 C265 1.443 . S
C266 C267 1.340 . S
C266 H306 0.951 . S
C267 C266 1.340 . S
C267 C268 1.439 . S
C267 H307 0.950 . S
C268 C267 1.439 . S
C268 N269 1.374 . S
C268 C302 1.395 . S
N269 C265 1.376 . S
N269 C268 1.374 . S
N269 Co270 2.008 . S
Co270 N269 2.008 . S
Co270 N271 1.995 . S
Co270 N276 2.008 . S
Co270 N281 1.995 . S
Co270 N286 2.282 . S
Co270 N292 2.282 . S
N271 Co270 1.995 . S
N271 C272 1.376 . S
N271 C275 1.383 . S
C272 N271 1.376 . S
C272 C273 1.446 . S
C272 C302 1.391 . S
C273 C272 1.446 . S
C273 C274 1.339 . S
C273 H308 0.949 1_455 S
C274 C273 1.339 . S
C274 C275 1.439 . S
C274 H309 0.950 . S
C275 N271 1.383 . S
C275 C274 1.439 . S
C275 C304 1.392 . S
N276 Co270 2.008 . S
N276 C277 1.376 . S
N276 C280 1.374 . S
C277 N276 1.376 . S
C277 C278 1.443 . S
C277 C304 1.389 . S
C278 C277 1.443 . S
C278 C279 1.340 . S
C278 H310 0.951 . S
C279 C278 1.340 . S
C279 C280 1.439 . S
C279 H311 0.950 . S
C280 N276 1.374 . S
C280 C279 1.439 . S
C280 C305 1.395 . S
N281 Co270 1.995 . S
N281 C282 1.376 . S
N281 C285 1.383 . S
C282 N281 1.376 . S
C282 C283 1.446 . S
C282 C305 1.391 . S
C283 C282 1.446 . S
C283 C284 1.339 . S
C283 H312 0.949 1_565 S
C284 C283 1.339 . S
C284 C285 1.439 . S
C284 H313 0.950 1_565 S
C285 N281 1.383 . S
C285 C284 1.439 . S
C285 C303 1.392 . S
N286 Co270 2.282 . S
N286 C289 1.332 . S
N286 C291 1.332 . S
C287 C288 1.386 . S
C287 C290 1.388 . S
C288 C287 1.386 . S
C288 C289 1.382 . S
C288 H314 0.950 . S
C289 N286 1.332 . S
C289 C288 1.382 . S
C289 H300 0.952 . S
C290 C287 1.388 . S
C290 C291 1.382 . S
C290 H315 0.950 . S
C291 N286 1.332 . S
C291 C290 1.382 . S
C291 H301 0.948 . S
N292 Co270 2.282 . S
N292 C296 1.332 . S
N292 C297 1.332 1_565 S
C293 C294 1.388 . S
C293 C297 1.382 . S
C293 H316 0.950 . S
C294 C293 1.388 . S
C294 C295 1.386 . S
C295 C294 1.386 . S
C295 C296 1.382 1_545 S
C295 H317 0.950 . S
C296 N292 1.332 . S
C296 C295 1.382 1_565 S
C296 H298 0.952 . S
C297 N292 1.332 1_545 S
C297 C293 1.382 . S
C297 H299 0.948 . S
H298 C296 0.952 . S
H299 C297 0.948 . S
H300 C289 0.952 . S
H301 C291 0.948 . S
C302 C268 1.395 . S
C302 C272 1.391 . S
C303 C265 1.389 . S
C303 C285 1.392 . S
C304 C275 1.392 . S
C304 C277 1.389 . S
C305 C280 1.395 . S
C305 C282 1.391 . S
H306 C266 0.951 . S
H307 C267 0.950 . S
H308 C273 0.949 1_655 S
H309 C274 0.950 . S
H310 C278 0.951 . S
H311 C279 0.950 . S
H312 C283 0.949 1_545 S
H313 C284 0.950 1_545 S
H314 C288 0.950 . S
H315 C290 0.950 . S
H316 C293 0.950 . S
H317 C295 0.950 . S
C318 C319 1.363 . S
C318 C324 1.379 . S
C318 N326 1.356 . S
C319 C318 1.363 . S
C319 C325 1.363 . S
C320 C321 1.363 . S
C320 C325 1.379 . S
C320 N327 1.356 . S
C321 C320 1.363 . S
C321 C324 1.363 . S
N322 C324 1.356 . S
N322 H334 0.984 . S
N322 H335 0.985 . S
N323 C325 1.356 . S
N323 H328 0.984 . S
N323 H329 0.985 . S
C324 C318 1.379 . S
C324 C321 1.363 . S
C324 N322 1.356 . S
C325 C319 1.363 . S
C325 C320 1.379 . S
C325 N323 1.356 . S
N326 C318 1.356 . S
N326 H332 0.984 . S
N326 H333 0.984 . S
N327 C320 1.356 . S
N327 H330 0.984 . S
N327 H331 0.985 . S
H328 N323 0.984 . S
H329 N323 0.985 . S
H330 N327 0.984 . S
H331 N327 0.985 . S
H332 N326 0.984 . S
H333 N326 0.984 . S
H334 N322 0.984 . S
H335 N322 0.985 . S
C336 C337 1.363 . S
C336 C342 1.379 . S
C336 N344 1.356 . S
C337 C336 1.363 . S
C337 C343 1.363 . S
C338 C339 1.363 . S
C338 C343 1.379 . S
C338 N345 1.356 . S
C339 C338 1.363 . S
C339 C342 1.363 . S
N340 C342 1.356 . S
N340 H352 0.984 . S
N340 H353 0.985 . S
N341 C343 1.356 . S
N341 H346 0.984 . S
N341 H347 0.985 . S
C342 C336 1.379 . S
C342 C339 1.363 . S
C342 N340 1.356 . S
C343 C337 1.363 . S
C343 C338 1.379 . S
C343 N341 1.356 . S
N344 C336 1.356 . S
N344 H350 0.984 . S
N344 H351 0.984 . S
N345 C338 1.356 . S
N345 H348 0.984 . S
N345 H349 0.985 . S
H346 N341 0.984 . S
H347 N341 0.985 . S
H348 N345 0.984 . S
H349 N345 0.985 . S
H350 N344 0.984 . S
H351 N344 0.984 . S
H352 N340 0.984 . S
H353 N340 0.985 . S
C354 C355 1.363 . S
C354 C360 1.379 . S
C354 N362 1.356 . S
C355 C354 1.363 . S
C355 C361 1.363 . S
C356 C357 1.363 . S
C356 C361 1.379 . S
C356 N363 1.356 . S
C357 C356 1.363 . S
C357 C360 1.363 . S
N358 C360 1.356 . S
N358 H370 0.984 . S
N358 H371 0.985 . S
N359 C361 1.356 . S
N359 H364 0.984 . S
N359 H365 0.985 . S
C360 C354 1.379 . S
C360 C357 1.363 . S
C360 N358 1.356 . S
C361 C355 1.363 . S
C361 C356 1.379 . S
C361 N359 1.356 . S
N362 C354 1.356 . S
N362 H368 0.984 . S
N362 H369 0.984 . S
N363 C356 1.356 . S
N363 H366 0.984 . S
N363 H367 0.985 . S
H364 N359 0.984 . S
H365 N359 0.985 . S
H366 N363 0.984 . S
H367 N363 0.985 . S
H368 N362 0.984 . S
H369 N362 0.984 . S
H370 N358 0.984 . S
H371 N358 0.985 . S
C372 C373 1.363 . S
C372 C378 1.379 . S
C372 N380 1.356 . S
C373 C372 1.363 . S
C373 C379 1.363 . S
C374 C375 1.363 . S
C374 C379 1.379 . S
C374 N381 1.356 . S
C375 C374 1.363 . S
C375 C378 1.363 . S
N376 C378 1.356 . S
N376 H388 0.984 . S
N376 H389 0.985 . S
N377 C379 1.356 . S
N377 H382 0.984 . S
N377 H383 0.985 . S
C378 C372 1.379 . S
C378 C375 1.363 . S
C378 N376 1.356 . S
C379 C373 1.363 . S
C379 C374 1.379 . S
C379 N377 1.356 . S
N380 C372 1.356 . S
N380 H386 0.984 . S
N380 H387 0.984 . S
N381 C374 1.356 . S
N381 H384 0.984 . S
N381 H385 0.985 . S
H382 N377 0.984 . S
H383 N377 0.985 . S
H384 N381 0.984 . S
H385 N381 0.985 . S
H386 N380 0.984 . S
H387 N380 0.984 . S
H388 N376 0.984 . S
H389 N376 0.985 . S
C390 C391 1.363 . S
C390 C396 1.379 . S
C390 N398 1.356 . S
C391 C390 1.363 . S
C391 C397 1.363 . S
C392 C393 1.363 . S
C392 C397 1.379 . S
C392 N399 1.356 1_455 S
C393 C392 1.363 . S
C393 C396 1.373 . S
N394 C396 1.356 1_655 S
N394 H406 0.984 . S
N394 H407 0.985 . S
N395 C397 1.356 . S
N395 H400 0.984 . S
N395 H401 0.985 . S
C396 C390 1.379 . S
C396 C393 1.373 . S
C396 N394 1.356 1_455 S
C397 C391 1.363 . S
C397 C392 1.379 . S
C397 N395 1.356 . S
N398 C390 1.356 . S
N398 H404 0.984 . S
N398 H405 0.984 . S
N399 C392 1.356 1_655 S
N399 H402 0.984 . S
N399 H403 0.985 1_655 S
H400 N395 0.984 . S
H401 N395 0.985 . S
H402 N399 0.984 . S
H403 N399 0.985 1_455 S
H404 N398 0.984 . S
H405 N398 0.984 . S
H406 N394 0.984 . S
H407 N394 0.985 . S
C408 C409 1.363 . S
C408 C414 1.379 . S
C408 N416 1.356 . S
C409 C408 1.363 . S
C409 C415 1.363 . S
C410 C411 1.363 . S
C410 C415 1.379 1_565 S
C410 N417 1.356 . S
C411 C410 1.363 . S
C411 C414 1.363 1_565 S
N412 C414 1.356 . S
N412 H424 0.984 . S
N412 H425 0.985 . S
N413 C415 1.356 . S
N413 H418 0.984 . S
N413 H419 0.985 1_545 S
C414 C408 1.379 . S
C414 C411 1.363 1_545 S
C414 N412 1.356 . S
C415 C409 1.363 . S
C415 C410 1.379 1_545 S
C415 N413 1.356 . S
N416 C408 1.356 . S
N416 H422 0.984 . S
N416 H423 0.984 . S
N417 C410 1.356 . S
N417 H420 0.984 . S
N417 H421 0.985 . S
H418 N413 0.984 . S
H419 N413 0.985 1_565 S
H420 N417 0.984 . S
H421 N417 0.985 . S
H422 N416 0.984 . S
H423 N416 0.984 . S
H424 N412 0.984 . S
H425 N412 0.985 . S
C426 C427 1.363 . S
C426 C432 1.379 . S
C426 N434 1.356 . S
C427 C426 1.363 . S
C427 C433 1.363 . S
C428 C429 1.363 . S
C428 C433 1.379 . S
C428 N435 1.356 1_554 S
C429 C428 1.363 . S
C429 C432 1.363 . S
N430 C432 1.356 . S
N430 H442 0.984 . S
N430 H443 0.983 1_545 S
N431 C433 1.356 1_556 S
N431 H436 0.990 . S
N431 H437 0.985 . S
C432 C426 1.379 . S
C432 C429 1.363 . S
C432 N430 1.356 . S
C433 C427 1.363 . S
C433 C428 1.379 . S
C433 N431 1.356 1_554 S
N434 C426 1.356 . S
N434 H440 0.984 . S
N434 H441 0.984 . S
N435 C428 1.356 1_556 S
N435 H438 0.989 1_455 S
N435 H439 0.985 . S
H436 N431 0.990 . S
H437 N431 0.985 . S
H438 N435 0.989 1_655 S
H439 N435 0.985 . S
H440 N434 0.984 . S
H441 N434 0.984 . S
H442 N430 0.984 . S
H443 N430 0.983 1_565 S
C444 C445 1.363 . S
C444 C450 1.379 . S
C444 N452 1.356 . S
C445 C444 1.363 . S
C445 C451 1.363 . S
C446 C447 1.363 . S
C446 C451 1.379 . S
C446 N453 1.356 . S
C447 C446 1.363 . S
C447 C450 1.363 . S
N448 C450 1.356 . S
N448 H460 0.984 . S
N448 H461 0.985 . S
N449 C451 1.356 . S
N449 H454 0.984 1_545 S
N449 H455 0.985 . S
C450 C444 1.379 . S
C450 C447 1.363 . S
C450 N448 1.356 . S
C451 C445 1.363 . S
C451 C446 1.379 . S
C451 N449 1.356 . S
N452 C444 1.356 . S
N452 H458 0.984 . S
N452 H459 0.984 . S
N453 C446 1.356 . S
N453 H456 0.984 . S
N453 H457 0.985 . S
H454 N449 0.984 1_565 S
H455 N449 0.985 . S
H456 N453 0.984 . S
H457 N453 0.985 . S
H458 N452 0.984 . S
H459 N452 0.984 . S
H460 N448 0.984 . S
H461 N448 0.985 . S
C462 C463 1.363 . S
C462 C468 1.379 . S
C462 N470 1.356 . S
C463 C462 1.363 . S
C463 C469 1.363 . S
C464 C465 1.363 . S
C464 C469 1.379 . S
C464 N471 1.356 . S
C465 C464 1.363 . S
C465 C468 1.363 . S
N466 C468 1.356 . S
N466 H478 0.984 . S
N466 H479 0.985 . S
N467 C469 1.356 . S
N467 H472 0.984 . S
N467 H473 0.985 . S
C468 C462 1.379 . S
C468 C465 1.363 . S
C468 N466 1.356 . S
C469 C463 1.363 . S
C469 C464 1.379 . S
C469 N467 1.356 . S
N470 C462 1.356 . S
N470 H476 0.984 . S
N470 H477 0.984 . S
N471 C464 1.356 . S
N471 H474 0.984 . S
N471 H475 0.985 . S
H472 N467 0.984 . S
H473 N467 0.985 . S
H474 N471 0.984 . S
H475 N471 0.985 . S
H476 N470 0.984 . S
H477 N470 0.984 . S
H478 N466 0.984 . S
H479 N466 0.985 . S
C480 C481 1.363 . S
C480 C486 1.379 . S
C480 N488 1.356 . S
C481 C480 1.363 . S
C481 C487 1.363 1_554 S
C482 C483 1.363 1_556 S
C482 C487 1.379 . S
C482 N489 1.356 . S
C483 C482 1.363 1_554 S
C483 C486 1.363 . S
N484 C486 1.356 . S
N484 H496 0.984 . S
N484 H497 0.985 . S
N485 C487 1.356 . S
N485 H490 0.984 . S
N485 H491 0.985 . S
C486 C480 1.379 . S
C486 C483 1.363 . S
C486 N484 1.356 . S
C487 C481 1.363 1_556 S
C487 C482 1.379 . S
C487 N485 1.356 . S
N488 C480 1.356 . S
N488 H494 0.984 . S
N488 H495 0.984 . S
N489 C482 1.356 . S
N489 H492 0.984 . S
N489 H493 0.985 . S
H490 N485 0.984 . S
H491 N485 0.985 . S
H492 N489 0.984 . S
H493 N489 0.985 . S
H494 N488 0.984 . S
H495 N488 0.984 . S
H496 N484 0.984 . S
H497 N484 0.985 . S
C498 C499 1.363 . S
C498 C504 1.379 . S
C498 N506 1.356 . S
C499 C498 1.363 . S
C499 C505 1.363 . S
C500 C501 1.363 . S
C500 C505 1.379 . S
C500 N507 1.356 . S
C501 C500 1.363 . S
C501 C504 1.363 . S
N502 C504 1.356 . S
N502 H514 0.984 . S
N502 H515 0.985 . S
N503 C505 1.356 . S
N503 H508 0.984 . S
N503 H509 0.985 . S
C504 C498 1.379 . S
C504 C501 1.363 . S
C504 N502 1.356 . S
C505 C499 1.363 . S
C505 C500 1.379 . S
C505 N503 1.356 . S
N506 C498 1.356 . S
N506 H512 0.984 . S
N506 H513 0.984 . S
N507 C500 1.356 . S
N507 H510 0.984 . S
N507 H511 0.985 . S
H508 N503 0.984 . S
H509 N503 0.985 . S
H510 N507 0.984 . S
H511 N507 0.985 . S
H512 N506 0.984 . S
H513 N506 0.984 . S
H514 N502 0.984 . S
H515 N502 0.985 . S
C516 C517 1.363 . S
C516 C522 1.379 . S
C516 N524 1.356 . S
C517 C516 1.363 . S
C517 C523 1.363 . S
C518 C519 1.363 . S
C518 C523 1.379 . S
C518 N525 1.356 . S
C519 C518 1.363 . S
C519 C522 1.363 . S
N520 C522 1.356 . S
N520 H532 0.984 . S
N520 H533 0.985 . S
N521 C523 1.356 . S
N521 H526 0.984 . S
N521 H527 0.985 . S
C522 C516 1.379 . S
C522 C519 1.363 . S
C522 N520 1.356 . S
C523 C517 1.363 . S
C523 C518 1.379 . S
C523 N521 1.356 . S
N524 C516 1.356 . S
N524 H530 0.984 . S
N524 H531 0.984 . S
N525 C518 1.356 . S
N525 H528 0.984 . S
N525 H529 0.985 . S
H526 N521 0.984 . S
H527 N521 0.985 . S
H528 N525 0.984 . S
H529 N525 0.985 . S
H530 N524 0.984 . S
H531 N524 0.984 . S
H532 N520 0.984 . S
H533 N520 0.985 . S
C319 C38 1.930 . S
C321 C92 1.857 . S
C337 C91 1.930 . S
C339 C145 1.857 . S
C355 C198 1.857 . S
C357 C144 1.930 . S
C373 C197 1.930 . S
C375 C251 1.857 . S
C391 C304 1.857 . S
C393 C250 1.921 1_455 S
C409 C39 1.857 . S
C411 C303 1.930 . S
C427 C29 1.763 . S
C429 C188 1.763 1_455 S
C445 C241 1.763 1_545 S
C447 C82 1.763 . S
C463 C135 1.763 . S
C465 C294 1.763 . S
C481 C181 1.932 . S
C483 C22 1.932 . S
C499 C234 1.932 . S
C501 C75 1.932 . S
C517 C287 1.933 . S
C519 C128 1.933 . S
