# Generated by pormake.
# Topology ume, (4)-cn, num edge types: 1
# Building blocks:
#     Node 0, Type 0, BuildingBlock: GALJAG_clean_sbu_0, # of connection points: 4
#     Node 1, Type 0, BuildingBlock: GALJAG_clean_sbu_0, # of connection points: 4
#     Node 2, Type 0, BuildingBlock: GALJAG_clean_sbu_0, # of connection points: 4
#     Node 3, Type 0, BuildingBlock: GALJAG_clean_sbu_0, # of connection points: 4
#     Node 4, Type 0, BuildingBlock: GALJAG_clean_sbu_0, # of connection points: 4
#     Node 5, Type 0, BuildingBlock: GALJAG_clean_sbu_0, # of connection points: 4
#     Node 6, Type 0, BuildingBlock: GALJAG_clean_sbu_0, # of connection points: 4
#     Node 7, Type 0, BuildingBlock: GALJAG_clean_sbu_0, # of connection points: 4
#     Node 8, Type 0, BuildingBlock: GALJAG_clean_sbu_0, # of connection points: 4
#     Node 9, Type 0, BuildingBlock: GALJAG_clean_sbu_0, # of connection points: 4
#     Node 10, Type 0, BuildingBlock: GALJAG_clean_sbu_0, # of connection points: 4
#     Node 11, Type 0, BuildingBlock: GALJAG_clean_sbu_0, # of connection points: 4
#     Node 12, Type 0, BuildingBlock: GALJAG_clean_sbu_0, # of connection points: 4
#     Node 13, Type 0, BuildingBlock: GALJAG_clean_sbu_0, # of connection points: 4
#     Node 14, Type 0, BuildingBlock: GALJAG_clean_sbu_0, # of connection points: 4
#     Node 15, Type 0, BuildingBlock: GALJAG_clean_sbu_0, # of connection points: 4
#     Edge 16, Type (0, 0), BuildingBlock: AJUNOK_clean_linker_0, # of connection points: 2
#     Edge 17, Type (0, 0), BuildingBlock: AJUNOK_clean_linker_0, # of connection points: 2
#     Edge 18, Type (0, 0), BuildingBlock: AJUNOK_clean_linker_0, # of connection points: 2
#     Edge 19, Type (0, 0), BuildingBlock: AJUNOK_clean_linker_0, # of connection points: 2
#     Edge 20, Type (0, 0), BuildingBlock: AJUNOK_clean_linker_0, # of connection points: 2
#     Edge 21, Type (0, 0), BuildingBlock: AJUNOK_clean_linker_0, # of connection points: 2
#     Edge 22, Type (0, 0), BuildingBlock: AJUNOK_clean_linker_0, # of connection points: 2
#     Edge 23, Type (0, 0), BuildingBlock: AJUNOK_clean_linker_0, # of connection points: 2
#     Edge 24, Type (0, 0), BuildingBlock: AJUNOK_clean_linker_0, # of connection points: 2
#     Edge 25, Type (0, 0), BuildingBlock: AJUNOK_clean_linker_0, # of connection points: 2
#     Edge 26, Type (0, 0), BuildingBlock: AJUNOK_clean_linker_0, # of connection points: 2
#     Edge 27, Type (0, 0), BuildingBlock: AJUNOK_clean_linker_0, # of connection points: 2
#     Edge 28, Type (0, 0), BuildingBlock: AJUNOK_clean_linker_0, # of connection points: 2
#     Edge 29, Type (0, 0), BuildingBlock: AJUNOK_clean_linker_0, # of connection points: 2
#     Edge 30, Type (0, 0), BuildingBlock: AJUNOK_clean_linker_0, # of connection points: 2
#     Edge 31, Type (0, 0), BuildingBlock: AJUNOK_clean_linker_0, # of connection points: 2
#     Edge 32, Type (0, 0), BuildingBlock: AJUNOK_clean_linker_0, # of connection points: 2
#     Edge 33, Type (0, 0), BuildingBlock: AJUNOK_clean_linker_0, # of connection points: 2
#     Edge 34, Type (0, 0), BuildingBlock: AJUNOK_clean_linker_0, # of connection points: 2
#     Edge 35, Type (0, 0), BuildingBlock: AJUNOK_clean_linker_0, # of connection points: 2
#     Edge 36, Type (0, 0), BuildingBlock: AJUNOK_clean_linker_0, # of connection points: 2
#     Edge 37, Type (0, 0), BuildingBlock: AJUNOK_clean_linker_0, # of connection points: 2
#     Edge 38, Type (0, 0), BuildingBlock: AJUNOK_clean_linker_0, # of connection points: 2
#     Edge 39, Type (0, 0), BuildingBlock: AJUNOK_clean_linker_0, # of connection points: 2
#     Edge 40, Type (0, 0), BuildingBlock: AJUNOK_clean_linker_0, # of connection points: 2
#     Edge 41, Type (0, 0), BuildingBlock: AJUNOK_clean_linker_0, # of connection points: 2
#     Edge 42, Type (0, 0), BuildingBlock: AJUNOK_clean_linker_0, # of connection points: 2
#     Edge 43, Type (0, 0), BuildingBlock: AJUNOK_clean_linker_0, # of connection points: 2
#     Edge 44, Type (0, 0), BuildingBlock: AJUNOK_clean_linker_0, # of connection points: 2
#     Edge 45, Type (0, 0), BuildingBlock: AJUNOK_clean_linker_0, # of connection points: 2
#     Edge 46, Type (0, 0), BuildingBlock: AJUNOK_clean_linker_0, # of connection points: 2
#     Edge 47, Type (0, 0), BuildingBlock: AJUNOK_clean_linker_0, # of connection points: 2
# Relax obj value: 0.060
# Max RMSD: 0.125
# Mean RMSD: 0.125
data_MOF--net-ume--node1-GALJAG_clean_sbu_0--edge1-AJUNOK_clean_linker_0
_symmetry_space_group_name_H-M    P1
_symmetry_Int_Tables_number       1
_symmetry_cell_setting            triclinic
loop_
_symmetry_equiv_pos_as_xyz
'x, y, z'
_cell_length_a     20.711594
_cell_length_b     20.711556
_cell_length_c     83.183077
_cell_angle_alpha  89.992065
_cell_angle_beta   90.000158
_cell_angle_gamma 90.011397
loop_
_atom_site_label
_atom_site_type_symbol
_atom_site_fract_x
_atom_site_fract_y
_atom_site_fract_z
_atom_type_partial_charge
In0 In 0.25294 0.10801 0.30928 0.0
O1 O 0.24737 0.17439 0.33161 0.0
O2 O 0.26941 0.07452 0.33446 0.0
C3 C 0.24729 0.17714 0.28204 0.0
C4 C 0.13447 0.05478 0.30902 0.0
C5 C 0.37354 0.062 0.30483 0.0
O6 O 0.26068 0.20339 0.2954 0.0
O7 O 0.23584 0.11739 0.2827 0.0
O8 O 0.32417 0.02595 0.30405 0.0
O9 O 0.36141 0.12065 0.30764 0.0
C10 C 0.26073 0.12845 0.34114 0.0
O11 O 0.18514 0.02191 0.30662 0.0
O12 O 0.14399 0.11427 0.31147 0.0
In13 In 0.89992 0.7464 0.55981 0.0
O14 O 0.83151 0.74493 0.58179 0.0
O15 O 0.93145 0.76586 0.58506 0.0
C16 C 0.83235 0.74157 0.53233 0.0
C17 C 0.94777 0.62579 0.55965 0.0
C18 C 0.94973 0.86496 0.55491 0.0
O19 O 0.80568 0.75571 0.5456 0.0
O20 O 0.89186 0.72906 0.53318 0.0
O21 O 0.98509 0.81506 0.55556 0.0
O22 O 0.89008 0.85431 0.55653 0.0
C23 C 0.8766 0.7597 0.59143 0.0
O24 O 0.98297 0.67474 0.55706 0.0
O25 O 0.8892 0.6383 0.56252 0.0
In26 In 0.25247 0.4013 0.80997 0.0
O27 O 0.32056 0.48771 0.80833 0.0
O28 O 0.36133 0.39471 0.81253 0.0
C29 C 0.13233 0.44775 0.80506 0.0
C30 C 0.23943 0.37683 0.84154 0.0
C31 C 0.25945 0.3339 0.78246 0.0
O32 O 0.18171 0.48394 0.80484 0.0
O33 O 0.14428 0.3888 0.80749 0.0
O34 O 0.24625 0.30684 0.79574 0.0
O35 O 0.27018 0.39376 0.78332 0.0
C36 C 0.37105 0.45445 0.81061 0.0
O37 O 0.25632 0.33259 0.83187 0.0
O38 O 0.23106 0.43147 0.83521 0.0
In39 In 0.60901 0.75181 0.06092 0.0
O40 O 0.68138 0.7552 0.08213 0.0
O41 O 0.58048 0.76499 0.08664 0.0
C42 C 0.67369 0.75105 0.03294 0.0
C43 C 0.55689 0.86985 0.05804 0.0
C44 C 0.55632 0.63238 0.06005 0.0
O45 O 0.70218 0.74099 0.04619 0.0
O46 O 0.6139 0.76144 0.03401 0.0
O47 O 0.52308 0.68314 0.05844 0.0
O48 O 0.61588 0.64212 0.06206 0.0
C49 C 0.63682 0.76414 0.09233 0.0
O50 O 0.52341 0.81873 0.05733 0.0
O51 O 0.61684 0.861 0.05998 0.0
In52 In 0.25094 0.39991 0.94241 0.0
O53 O 0.24907 0.33031 0.92069 0.0
O54 O 0.23832 0.43165 0.91691 0.0
C55 C 0.25676 0.33251 0.96994 0.0
C56 C 0.1303 0.44542 0.94567 0.0
C57 C 0.3695 0.45419 0.94337 0.0
O58 O 0.26497 0.3056 0.9564 0.0
O59 O 0.24468 0.39214 0.96937 0.0
O60 O 0.31848 0.4868 0.9454 0.0
O61 O 0.36024 0.39483 0.94089 0.0
C62 C 0.24002 0.376 0.9108 0.0
O63 O 0.17948 0.48166 0.94668 0.0
O64 O 0.14256 0.3864 0.94325 0.0
In65 In 0.60763 0.75258 0.19275 0.0
O66 O 0.67863 0.74997 0.17131 0.0
O67 O 0.57974 0.77351 0.16727 0.0
C68 C 0.67444 0.74935 0.22039 0.0
C69 C 0.56001 0.63142 0.19235 0.0
C70 C 0.55463 0.87024 0.19748 0.0
O71 O 0.70114 0.76409 0.20718 0.0
O72 O 0.61527 0.73552 0.21942 0.0
O73 O 0.52117 0.81898 0.19763 0.0
O74 O 0.61424 0.86146 0.19518 0.0
C75 C 0.63523 0.76609 0.16135 0.0
O76 O 0.52414 0.6804 0.19419 0.0
O77 O 0.61921 0.64407 0.19053 0.0
In78 In 0.2547 0.09958 0.44253 0.0
O79 O 0.25428 0.1695 0.42083 0.0
O80 O 0.26297 0.06818 0.41691 0.0
C81 C 0.25471 0.16597 0.4702 0.0
C82 C 0.37505 0.05297 0.44528 0.0
C83 C 0.13608 0.04586 0.44442 0.0
O84 O 0.24452 0.1937 0.45685 0.0
O85 O 0.26447 0.10598 0.46938 0.0
O86 O 0.18723 0.01283 0.44559 0.0
O87 O 0.14515 0.10556 0.44243 0.0
C88 C 0.26048 0.12381 0.4108 0.0
O89 O 0.32566 0.01704 0.44629 0.0
O90 O 0.36322 0.1121 0.44289 0.0
In91 In 0.89842 0.75187 0.69247 0.0
O92 O 0.82952 0.75406 0.67061 0.0
O93 O 0.93123 0.76162 0.66696 0.0
C94 C 0.83118 0.7509 0.72002 0.0
C95 C 0.94651 0.87158 0.69544 0.0
C96 C 0.94699 0.63112 0.69451 0.0
O97 O 0.80361 0.74339 0.70654 0.0
O98 O 0.89141 0.75965 0.71937 0.0
O99 O 0.98207 0.68072 0.69624 0.0
O100 O 0.88842 0.64302 0.69162 0.0
C101 C 0.8757 0.76109 0.66076 0.0
O102 O 0.9822 0.82188 0.69602 0.0
O103 O 0.88703 0.86028 0.69346 0.0
In104 In 0.75384 0.60536 0.81024 0.0
O105 O 0.75282 0.67514 0.83194 0.0
O106 O 0.7756 0.5758 0.83554 0.0
C107 C 0.7493 0.67297 0.78272 0.0
C108 C 0.63266 0.55819 0.81099 0.0
C109 C 0.87091 0.55172 0.80526 0.0
O110 O 0.76542 0.69909 0.7959 0.0
O111 O 0.73461 0.61401 0.78367 0.0
O112 O 0.81959 0.51839 0.80555 0.0
O113 O 0.86246 0.61158 0.80719 0.0
C114 C 0.76883 0.63097 0.8417 0.0
O115 O 0.68118 0.52272 0.80815 0.0
O116 O 0.64583 0.61684 0.81354 0.0
In117 In 0.4034 0.24998 0.06055 0.0
O118 O 0.33235 0.24727 0.08194 0.0
O119 O 0.43362 0.23743 0.08616 0.0
C120 C 0.33999 0.25173 0.03245 0.0
C121 C 0.45074 0.13004 0.05775 0.0
C122 C 0.45209 0.37083 0.05986 0.0
O123 O 0.31061 0.25917 0.0457 0.0
O124 O 0.40015 0.24344 0.03358 0.0
O125 O 0.48751 0.3215 0.05806 0.0
O126 O 0.3931 0.35857 0.06203 0.0
C127 C 0.3775 0.23858 0.09201 0.0
O128 O 0.4867 0.17955 0.05697 0.0
O129 O 0.39136 0.14176 0.05976 0.0
In130 In 0.75183 0.90357 0.30993 0.0
O131 O 0.75265 0.83528 0.33192 0.0
O132 O 0.73402 0.93554 0.33524 0.0
C133 C 0.75348 0.83311 0.28285 0.0
C134 C 0.87316 0.95042 0.30963 0.0
C135 C 0.63473 0.95754 0.30516 0.0
O136 O 0.74005 0.80814 0.29635 0.0
O137 O 0.76741 0.89238 0.28328 0.0
O138 O 0.68625 0.99054 0.3051 0.0
O139 O 0.64293 0.89778 0.30735 0.0
C140 C 0.73931 0.8806 0.3416 0.0
O141 O 0.82438 0.98593 0.30715 0.0
O142 O 0.86025 0.89183 0.31235 0.0
In143 In 0.10322 0.24564 0.55952 0.0
O144 O 0.0183 0.3141 0.55645 0.0
O145 O 0.11139 0.35481 0.56071 0.0
C146 C 0.05318 0.12631 0.55553 0.0
C147 C 0.12144 0.24465 0.59152 0.0
C148 C 0.17426 0.24805 0.53256 0.0
O149 O 0.01988 0.17702 0.55371 0.0
O150 O 0.11138 0.13623 0.55929 0.0
O151 O 0.19939 0.23576 0.54612 0.0
O152 O 0.11471 0.26062 0.5329 0.0
C153 C 0.05183 0.36463 0.55842 0.0
O154 O 0.16904 0.24904 0.58198 0.0
O155 O 0.06716 0.24008 0.58476 0.0
In156 In 0.75304 0.89498 0.44276 0.0
O157 O 0.68643 0.9804 0.44724 0.0
O158 O 0.64404 0.8878 0.44321 0.0
C159 C 0.87459 0.94175 0.44436 0.0
C160 C 0.7419 0.87544 0.41098 0.0
C161 C 0.75327 0.82545 0.46997 0.0
O162 O 0.82557 0.9772 0.44651 0.0
O163 O 0.86182 0.88342 0.4414 0.0
O164 O 0.76102 0.79897 0.45637 0.0
O165 O 0.74457 0.88569 0.4696 0.0
C166 C 0.63525 0.94729 0.44588 0.0
O167 O 0.74694 0.82807 0.42056 0.0
O168 O 0.74437 0.93035 0.41747 0.0
In169 In 0.10359 0.2509 0.69351 0.0
O170 O 0.16915 0.24497 0.67099 0.0
O171 O 0.06753 0.25589 0.66826 0.0
C172 C 0.17576 0.25178 0.72033 0.0
C173 C 0.05233 0.13197 0.69577 0.0
C174 C 0.0515 0.3699 0.69626 0.0
O175 O 0.20022 0.26321 0.70665 0.0
O176 O 0.11627 0.23883 0.7202 0.0
O177 O 0.0183 0.31892 0.69769 0.0
O178 O 0.11088 0.36048 0.69377 0.0
C179 C 0.12162 0.25033 0.66147 0.0
O180 O 0.01961 0.18267 0.6982 0.0
O181 O 0.11102 0.14161 0.69234 0.0
In182 In 0.75282 0.60507 0.94229 0.0
O183 O 0.75852 0.67628 0.92092 0.0
O184 O 0.76502 0.57491 0.91664 0.0
C185 C 0.75168 0.67088 0.97008 0.0
C186 C 0.8701 0.55152 0.94548 0.0
C187 C 0.63116 0.55796 0.94324 0.0
O188 O 0.74505 0.69917 0.95667 0.0
O189 O 0.75978 0.61063 0.96926 0.0
O190 O 0.68018 0.52217 0.94496 0.0
O191 O 0.64394 0.61676 0.94095 0.0
C192 C 0.76598 0.63106 0.91082 0.0
O193 O 0.81866 0.51843 0.94603 0.0
O194 O 0.86183 0.61155 0.94357 0.0
In195 In 0.402 0.25112 0.19275 0.0
O196 O 0.33356 0.25584 0.17081 0.0
O197 O 0.43168 0.22795 0.16751 0.0
C198 C 0.33116 0.25676 0.21977 0.0
C199 C 0.4557 0.36981 0.1925 0.0
C200 C 0.45012 0.13156 0.19782 0.0
O201 O 0.30602 0.24379 0.20627 0.0
O202 O 0.39089 0.26861 0.21937 0.0
O203 O 0.48588 0.18123 0.19748 0.0
O204 O 0.39079 0.14289 0.19585 0.0
C205 C 0.37726 0.2375 0.16118 0.0
O206 O 0.48807 0.31934 0.19546 0.0
O207 O 0.3966 0.35998 0.18964 0.0
C208 C 0.95147 0.04242 0.30899 0.0
C209 C 0.94026 0.97547 0.30935 0.0
C210 C 0.01439 0.06743 0.30891 0.0
C211 C 0.06867 0.0265 0.309 0.0
H212 H 0.91134 0.07595 0.30892 0.0
H213 H 0.02042 0.11938 0.30871 0.0
S214 S 0.06577 0.84736 0.30968 0.0
N215 N 0.98893 0.86849 0.30969 0.0
N216 N 0.10702 0.91555 0.30936 0.0
C217 C 0.05822 0.95942 0.30921 0.0
C218 C 0.99411 0.93391 0.30944 0.0
C219 C 0.0398 0.54762 0.55838 0.0
C220 C 0.97291 0.55879 0.5592 0.0
C221 C 0.06476 0.4847 0.55807 0.0
C222 C 0.02379 0.43046 0.55841 0.0
H223 H 0.07331 0.58778 0.55809 0.0
H224 H 0.11667 0.47862 0.55755 0.0
S225 S 0.84478 0.4333 0.56032 0.0
N226 N 0.86597 0.51012 0.56022 0.0
N227 N 0.9129 0.39209 0.55951 0.0
C228 C 0.95677 0.44089 0.55908 0.0
C229 C 0.93134 0.50496 0.55952 0.0
C230 C 0.55401 0.46654 0.80958 0.0
C231 C 0.56548 0.5332 0.81108 0.0
C232 C 0.49102 0.44167 0.80953 0.0
C233 C 0.43692 0.48249 0.81083 0.0
H234 H 0.59398 0.43312 0.80845 0.0
H235 H 0.48477 0.38996 0.80833 0.0
S236 S 0.44039 0.66069 0.81528 0.0
N237 N 0.51713 0.63967 0.81413 0.0
N238 N 0.39895 0.59284 0.81387 0.0
C239 C 0.44759 0.54923 0.81235 0.0
C240 C 0.51177 0.57458 0.81253 0.0
C241 C 0.54338 0.05261 0.05667 0.0
C242 C 0.47633 0.06326 0.05701 0.0
C243 C 0.56886 0.98991 0.05679 0.0
C244 C 0.52832 0.93536 0.05718 0.0
H245 H 0.57661 0.093 0.05655 0.0
H246 H 0.62086 0.98428 0.05672 0.0
S247 S 0.34911 0.93679 0.05769 0.0
N248 N 0.3697 0.01376 0.05739 0.0
N249 N 0.41763 0.89613 0.05756 0.0
C250 C 0.46115 0.94526 0.05722 0.0
C251 C 0.43517 0.00912 0.05716 0.0
C252 C 0.05267 0.53763 0.94726 0.0
C253 C 0.0634 0.47065 0.94654 0.0
C254 C 0.99 0.5631 0.94716 0.0
C255 C 0.93547 0.52263 0.94643 0.0
H256 H 0.09301 0.5709 0.94764 0.0
H257 H 0.9844 0.61508 0.94751 0.0
S258 S 0.937 0.34354 0.9449 0.0
N259 N 0.01398 0.36407 0.94546 0.0
N260 N 0.89627 0.41201 0.94535 0.0
C261 C 0.94537 0.45547 0.94603 0.0
C262 C 0.00928 0.42949 0.94606 0.0
C263 C 0.44324 0.48991 0.19106 0.0
C264 C 0.48395 0.43573 0.1925 0.0
C265 C 0.46816 0.55291 0.19111 0.0
C266 C 0.53487 0.5643 0.19243 0.0
H267 H 0.39149 0.48377 0.18995 0.0
H268 H 0.43481 0.59295 0.18998 0.0
S269 S 0.66233 0.43928 0.19667 0.0
N270 N 0.59443 0.39783 0.19546 0.0
N271 N 0.64133 0.51599 0.19539 0.0
C272 C 0.57621 0.51059 0.19386 0.0
C273 C 0.55075 0.44642 0.19395 0.0
C274 C 0.45252 0.96052 0.44557 0.0
C275 C 0.44172 0.02745 0.44633 0.0
C276 C 0.51523 0.93517 0.44569 0.0
C277 C 0.56966 0.97571 0.44669 0.0
H278 H 0.41228 0.92733 0.44457 0.0
H279 H 0.52097 0.88331 0.44482 0.0
S280 S 0.56751 0.15446 0.44988 0.0
N281 N 0.49065 0.13385 0.44875 0.0
N282 N 0.60846 0.08617 0.44907 0.0
C283 C 0.55954 0.04269 0.44786 0.0
C284 C 0.49561 0.06856 0.44765 0.0
C285 C 0.06447 0.01187 0.6947 0.0
C286 C 0.02421 0.06618 0.69648 0.0
C287 C 0.03912 0.94908 0.69472 0.0
C288 C 0.97246 0.93815 0.6964 0.0
H289 H 0.11605 0.01778 0.69314 0.0
H290 H 0.07199 0.90892 0.69311 0.0
S291 S 0.84641 0.06358 0.70211 0.0
N292 N 0.91442 0.10465 0.70051 0.0
N293 N 0.86677 0.98683 0.70044 0.0
C294 C 0.93172 0.99193 0.69845 0.0
C295 C 0.95758 0.05586 0.69853 0.0
C296 C 0.51487 0.94527 0.3029 0.0
C297 C 0.5692 0.98609 0.30374 0.0
C298 C 0.45192 0.97025 0.30279 0.0
C299 C 0.44063 0.03712 0.30358 0.0
H300 H 0.52084 0.89332 0.3026 0.0
H301 H 0.41181 0.9367 0.30245 0.0
S302 S 0.56624 0.16515 0.30509 0.0
N303 N 0.60749 0.09698 0.30471 0.0
N304 N 0.48941 0.14404 0.30453 0.0
C305 C 0.49456 0.07865 0.30397 0.0
C306 C 0.55872 0.05315 0.30403 0.0
C307 C 0.04179 0.94313 0.5564 0.0
C308 C 0.97593 0.9314 0.55355 0.0
C309 C 0.06642 0.00623 0.5567 0.0
C310 C 0.02624 0.06012 0.55407 0.0
H311 H 0.07434 0.90342 0.55888 0.0
H312 H 0.11725 0.01276 0.5593 0.0
S313 S 0.85115 0.05516 0.54465 0.0
N314 N 0.8716 0.97873 0.54705 0.0
N315 N 0.91793 0.09709 0.54755 0.0
C316 C 0.96072 0.04891 0.55062 0.0
C317 C 0.93558 0.98466 0.55038 0.0
C318 C 0.0539 0.53961 0.8034 0.0
C319 C 0.06528 0.4727 0.80368 0.0
C320 C 0.99089 0.56445 0.80349 0.0
C321 C 0.93659 0.52345 0.8038 0.0
H322 H 0.09395 0.57325 0.80351 0.0
H323 H 0.98485 0.6164 0.80361 0.0
S324 S 0.93988 0.34431 0.80356 0.0
N325 N 0.01668 0.36563 0.80349 0.0
N326 N 0.8985 0.41242 0.80364 0.0
C327 C 0.9472 0.45641 0.80355 0.0
C328 C 0.01142 0.43104 0.8035 0.0
C329 C 0.56928 0.51219 0.05945 0.0
C330 C 0.52828 0.56645 0.05972 0.0
C331 C 0.54433 0.44919 0.05933 0.0
C332 C 0.47739 0.4379 0.05961 0.0
H333 H 0.62122 0.51831 0.05932 0.0
H334 H 0.57788 0.40907 0.05917 0.0
S335 S 0.34913 0.56336 0.06026 0.0
N336 N 0.4173 0.60464 0.06013 0.0
N337 N 0.37037 0.48656 0.06002 0.0
C338 C 0.4358 0.49176 0.05982 0.0
C339 C 0.46123 0.5559 0.05985 0.0
C340 C 0.48956 0.44136 0.94336 0.0
C341 C 0.43535 0.48242 0.94373 0.0
C342 C 0.55256 0.46615 0.94339 0.0
C343 C 0.56399 0.53304 0.94366 0.0
H344 H 0.48341 0.38944 0.94302 0.0
H345 H 0.59258 0.43251 0.94302 0.0
S346 S 0.43887 0.66148 0.945 0.0
N347 N 0.39738 0.59342 0.94466 0.0
N348 N 0.51565 0.64013 0.9446 0.0
C349 C 0.51025 0.57474 0.94414 0.0
C350 C 0.44603 0.54943 0.94422 0.0
C351 C 0.56741 0.99047 0.19766 0.0
C352 C 0.52674 0.93613 0.19894 0.0
C353 C 0.5425 0.05346 0.19782 0.0
C354 C 0.47582 0.0648 0.19922 0.0
H355 H 0.61903 0.98444 0.19618 0.0
H356 H 0.57572 0.09347 0.19641 0.0
S357 S 0.34885 0.93961 0.2042 0.0
N358 N 0.41663 0.89817 0.20259 0.0
N359 N 0.36973 0.01635 0.20289 0.0
C360 C 0.43472 0.01102 0.20104 0.0
C361 C 0.46016 0.94681 0.20091 0.0
C362 C 0.95311 0.0335 0.44584 0.0
C363 C 0.94176 0.96667 0.44492 0.0
C364 C 0.01608 0.05842 0.4458 0.0
C365 C 0.0703 0.01751 0.44498 0.0
H366 H 0.91305 0.06704 0.44639 0.0
H367 H 0.02219 0.11031 0.44637 0.0
S368 S 0.06706 0.83858 0.44283 0.0
N369 N 0.99027 0.85976 0.44345 0.0
N370 N 0.10843 0.90666 0.44349 0.0
C371 C 0.05973 0.95051 0.44431 0.0
C372 C 0.99556 0.9251 0.44424 0.0
C373 C 0.06416 0.49011 0.69688 0.0
C374 C 0.02327 0.43574 0.69667 0.0
C375 C 0.03915 0.55305 0.69642 0.0
C376 C 0.97225 0.56417 0.6956 0.0
H377 H 0.11609 0.4841 0.69727 0.0
H378 H 0.07263 0.59323 0.69648 0.0
S379 S 0.84421 0.43845 0.69516 0.0
N380 N 0.91238 0.39732 0.69596 0.0
N381 N 0.86534 0.51529 0.695 0.0
C382 C 0.93073 0.51023 0.6956 0.0
C383 C 0.95622 0.44616 0.69618 0.0
C384 C 0.29288 0.08291 0.36745 0.0
C385 C 0.26535 0.13445 0.35885 0.0
C386 C 0.29277 0.08176 0.38419 0.0
C387 C 0.26535 0.13219 0.39318 0.0
H388 H 0.31368 0.04197 0.36121 0.0
H389 H 0.31347 0.04005 0.39014 0.0
S390 S 0.19049 0.28061 0.37664 0.0
N391 N 0.21256 0.23914 0.36057 0.0
N392 N 0.21268 0.23704 0.39234 0.0
C393 C 0.24012 0.18566 0.38486 0.0
C394 C 0.24003 0.18677 0.36762 0.0
C395 C 0.82151 0.73311 0.61763 0.0
C396 C 0.86822 0.76821 0.60896 0.0
C397 C 0.82117 0.73353 0.63458 0.0
C398 C 0.86761 0.76896 0.64323 0.0
H399 H 0.78736 0.70263 0.61133 0.0
H400 H 0.78683 0.70335 0.64091 0.0
S401 S 0.99178 0.87822 0.62613 0.0
N402 N 0.95587 0.8462 0.61032 0.0
N403 N 0.95539 0.8466 0.64193 0.0
C404 C 0.91121 0.80776 0.63465 0.0
C405 C 0.91146 0.8075 0.61756 0.0
C406 C 0.26812 0.32237 0.86766 0.0
C407 C 0.2313 0.36792 0.85906 0.0
C408 C 0.26816 0.32202 0.88461 0.0
C409 C 0.23148 0.36728 0.89332 0.0
H410 H 0.29961 0.28932 0.86132 0.0
H411 H 0.29971 0.28878 0.89089 0.0
S412 S 0.11766 0.4877 0.87642 0.0
N413 N 0.15041 0.45287 0.86055 0.0
N414 N 0.15091 0.45238 0.89215 0.0
C415 C 0.19096 0.4095 0.88481 0.0
C416 C 0.19074 0.40976 0.86772 0.0
C417 C 0.69032 0.73474 0.11846 0.0
C418 C 0.64734 0.77381 0.10969 0.0
C419 C 0.68968 0.73508 0.13541 0.0
C420 C 0.64605 0.7745 0.14392 0.0
H421 H 0.72148 0.70096 0.11225 0.0
H422 H 0.7205 0.70161 0.14183 0.0
S423 S 0.53348 0.89466 0.12635 0.0
N424 N 0.56715 0.85928 0.11067 0.0
N425 N 0.56607 0.86017 0.14229 0.0
C426 C 0.60699 0.81745 0.13519 0.0
C427 C 0.6076 0.81702 0.11811 0.0
C428 C 0.73983 0.68577 0.86774 0.0
C429 C 0.77717 0.64047 0.85919 0.0
C430 C 0.73922 0.68596 0.88469 0.0
C431 C 0.77584 0.64078 0.89343 0.0
H432 H 0.70819 0.71854 0.86134 0.0
H433 H 0.7071 0.71878 0.89091 0.0
S434 S 0.89099 0.5213 0.87671 0.0
N435 N 0.85857 0.5561 0.86079 0.0
N436 N 0.857 0.55626 0.8924 0.0
C437 C 0.81702 0.59901 0.88499 0.0
C438 C 0.81781 0.59892 0.86791 0.0
C439 C 0.3239 0.26787 0.13505 0.0
C440 C 0.368 0.22938 0.14367 0.0
C441 C 0.32371 0.26798 0.11811 0.0
C442 C 0.36767 0.22968 0.10943 0.0
H443 H 0.29206 0.30064 0.14138 0.0
H444 H 0.29186 0.30089 0.11182 0.0
S445 S 0.48349 0.11131 0.12637 0.0
N446 N 0.44978 0.1453 0.14223 0.0
N447 N 0.44961 0.14593 0.11061 0.0
C448 C 0.40819 0.1875 0.11795 0.0
C449 C 0.40829 0.18723 0.13504 0.0
C450 C 0.76395 0.82265 0.36753 0.0
C451 C 0.73179 0.87229 0.35917 0.0
C452 C 0.76444 0.82118 0.38448 0.0
C453 C 0.73289 0.8694 0.39343 0.0
H454 H 0.79143 0.78673 0.36099 0.0
H455 H 0.79233 0.78428 0.39055 0.0
S456 S 0.63203 0.00233 0.37723 0.0
N457 N 0.66049 0.96528 0.36117 0.0
N458 N 0.66179 0.96266 0.39276 0.0
C459 C 0.69694 0.91631 0.38517 0.0
C460 C 0.69628 0.91772 0.36808 0.0
C461 C 0.06857 0.25495 0.63482 0.0
C462 C 0.12615 0.24955 0.64368 0.0
C463 C 0.06851 0.25344 0.61809 0.0
C464 C 0.12604 0.2467 0.60929 0.0
H465 H 0.02246 0.26017 0.64083 0.0
H466 H 0.02241 0.25776 0.61203 0.0
S467 S 0.29051 0.23117 0.62653 0.0
N468 N 0.24288 0.23743 0.6424 0.0
N469 N 0.24277 0.23497 0.61063 0.0
C470 C 0.18442 0.2418 0.61788 0.0
C471 C 0.18447 0.24307 0.63512 0.0
C472 C 0.30279 0.25757 0.26459 0.0
C473 C 0.25511 0.20991 0.2664 0.0
C474 C 0.32383 0.27638 0.24927 0.0
C475 C 0.2971 0.249 0.23527 0.0
H476 H 0.3277 0.27662 0.27502 0.0
H477 H 0.36391 0.30983 0.24841 0.0
S478 S 0.16283 0.13074 0.23366 0.0
N479 N 0.17597 0.14183 0.25304 0.0
N480 N 0.21462 0.17815 0.22424 0.0
C481 C 0.24496 0.20614 0.23694 0.0
C482 C 0.22423 0.18627 0.25254 0.0
C483 C 0.73411 0.81843 0.49944 0.0
C484 C 0.76152 0.79162 0.48546 0.0
C485 C 0.75273 0.79741 0.51476 0.0
C486 C 0.80037 0.74975 0.5166 0.0
H487 H 0.70058 0.85843 0.49855 0.0
H488 H 0.73345 0.82224 0.52517 0.0
S489 S 0.88017 0.65787 0.48388 0.0
N490 N 0.83271 0.70955 0.47444 0.0
N491 N 0.86887 0.67088 0.50327 0.0
C492 C 0.82432 0.719 0.50275 0.0
C493 C 0.80452 0.73969 0.48714 0.0
C494 C 0.18547 0.23243 0.74976 0.0
C495 C 0.21025 0.26115 0.7357 0.0
C496 C 0.2064 0.2519 0.76502 0.0
C497 C 0.25196 0.30164 0.76674 0.0
H498 H 0.14694 0.19716 0.74899 0.0
H499 H 0.18295 0.23146 0.7755 0.0
S500 S 0.3389 0.38533 0.73377 0.0
N501 N 0.28878 0.3358 0.72447 0.0
N502 N 0.32727 0.37344 0.75319 0.0
C503 C 0.28101 0.32691 0.7528 0.0
C504 C 0.26041 0.30633 0.73725 0.0
C505 C 0.77048 0.67502 0.99962 0.0
C506 C 0.74302 0.70295 0.98578 0.0
C507 C 0.75215 0.69509 0.01505 0.0
C508 C 0.70469 0.74275 0.01711 0.0
H509 H 0.80403 0.63513 0.99852 0.0
H510 H 0.77165 0.66975 0.02536 0.0
S511 S 0.62403 0.83649 0.98486 0.0
N512 N 0.67144 0.78555 0.97516 0.0
N513 N 0.63568 0.82221 0.00417 0.0
C514 C 0.68029 0.77419 0.00341 0.0
C515 C 0.69987 0.7546 0.98771 0.0
C516 C 0.25878 0.30511 0.01481 0.0
C517 C 0.30899 0.26018 0.01662 0.0
C518 C 0.23906 0.32525 0.99948 0.0
C519 C 0.26789 0.30006 0.98549 0.0
H520 H 0.23783 0.32832 0.02525 0.0
H521 H 0.20311 0.36309 0.9986 0.0
S522 S 0.3947 0.17403 0.98386 0.0
N523 N 0.3825 0.18607 0.00325 0.0
N524 N 0.34421 0.22281 0.97444 0.0
C525 C 0.31417 0.25103 0.98715 0.0
C526 C 0.33512 0.23142 0.00275 0.0
C527 C 0.77277 0.8259 0.25336 0.0
C528 C 0.74489 0.79946 0.26733 0.0
C529 C 0.75405 0.80504 0.23802 0.0
C530 C 0.706 0.75778 0.23616 0.0
H531 H 0.80676 0.86552 0.25424 0.0
H532 H 0.77375 0.82959 0.22762 0.0
S533 S 0.62543 0.66626 0.26884 0.0
N534 N 0.67305 0.71772 0.2783 0.0
N535 N 0.63694 0.67927 0.24946 0.0
C536 C 0.6817 0.72723 0.25001 0.0
C537 C 0.70145 0.74784 0.26562 0.0
C538 C 0.20178 0.24776 0.48775 0.0
C539 C 0.2474 0.19821 0.48591 0.0
C540 C 0.18193 0.26745 0.50309 0.0
C541 C 0.20789 0.23909 0.51706 0.0
H542 H 0.1776 0.26786 0.47734 0.0
H543 H 0.14327 0.30251 0.504 0.0
S544 S 0.33723 0.11558 0.51855 0.0
N545 N 0.32407 0.12706 0.49918 0.0
N546 N 0.28759 0.16503 0.52802 0.0
C547 C 0.25812 0.19412 0.51535 0.0
C548 C 0.2776 0.17334 0.49974 0.0
C549 C 0.82684 0.76931 0.74956 0.0
C550 C 0.79846 0.74275 0.73567 0.0
C551 C 0.80633 0.75103 0.76495 0.0
C552 C 0.75756 0.70462 0.76695 0.0
H553 H 0.86755 0.80193 0.74854 0.0
H554 H 0.83224 0.76964 0.77527 0.0
S555 S 0.66152 0.62765 0.73454 0.0
N556 N 0.71385 0.67383 0.72493 0.0
N557 N 0.67608 0.63833 0.75388 0.0
C558 C 0.72537 0.68158 0.7532 0.0
C559 C 0.74558 0.70102 0.73752 0.0
loop_
_geom_bond_atom_site_label_1
_geom_bond_atom_site_label_2
_geom_bond_distance
_geom_bond_site_symmetry_2
_ccdc_geom_bond_type
In0 O1 2.294 . S
In0 O2 2.326 . S
In0 O6 2.266 . S
In0 O7 2.326 . S
In0 O8 2.266 . S
In0 O9 2.326 . S
In0 O11 2.294 . S
In0 O12 2.326 . S
O1 In0 2.294 . S
O1 C10 1.240 . S
O2 In0 2.326 . S
O2 C10 1.252 . S
C3 O6 1.252 . S
C3 O7 1.260 . S
C4 O11 1.240 . S
C4 O12 1.252 . S
C5 O8 1.252 . S
C5 O9 1.260 . S
O6 In0 2.266 . S
O6 C3 1.252 . S
O7 In0 2.326 . S
O7 C3 1.260 . S
O8 In0 2.266 . S
O8 C5 1.252 . S
O9 In0 2.326 . S
O9 C5 1.260 . S
C10 O1 1.240 . S
C10 O2 1.252 . S
O11 In0 2.294 . S
O11 C4 1.240 . S
O12 In0 2.326 . S
O12 C4 1.252 . S
In13 O14 2.294 . S
In13 O15 2.326 . S
In13 O19 2.266 . S
In13 O20 2.326 . S
In13 O21 2.266 . S
In13 O22 2.326 . S
In13 O24 2.294 . S
In13 O25 2.326 . S
O14 In13 2.294 . S
O14 C23 1.240 . S
O15 In13 2.326 . S
O15 C23 1.252 . S
C16 O19 1.252 . S
C16 O20 1.260 . S
C17 O24 1.240 . S
C17 O25 1.252 . S
C18 O21 1.252 . S
C18 O22 1.260 . S
O19 In13 2.266 . S
O19 C16 1.252 . S
O20 In13 2.326 . S
O20 C16 1.260 . S
O21 In13 2.266 . S
O21 C18 1.252 . S
O22 In13 2.326 . S
O22 C18 1.260 . S
C23 O14 1.240 . S
C23 O15 1.252 . S
O24 In13 2.294 . S
O24 C17 1.240 . S
O25 In13 2.326 . S
O25 C17 1.252 . S
In26 O27 2.294 . S
In26 O28 2.326 . S
In26 O32 2.266 . S
In26 O33 2.326 . S
In26 O34 2.266 . S
In26 O35 2.326 . S
In26 O37 2.294 . S
In26 O38 2.326 . S
O27 In26 2.294 . S
O27 C36 1.240 . S
O28 In26 2.326 . S
O28 C36 1.252 . S
C29 O32 1.252 . S
C29 O33 1.260 . S
C30 O37 1.240 . S
C30 O38 1.252 . S
C31 O34 1.252 . S
C31 O35 1.260 . S
O32 In26 2.266 . S
O32 C29 1.252 . S
O33 In26 2.326 . S
O33 C29 1.260 . S
O34 In26 2.266 . S
O34 C31 1.252 . S
O35 In26 2.326 . S
O35 C31 1.260 . S
C36 O27 1.240 . S
C36 O28 1.252 . S
O37 In26 2.294 . S
O37 C30 1.240 . S
O38 In26 2.326 . S
O38 C30 1.252 . S
In39 O40 2.294 . S
In39 O41 2.326 . S
In39 O45 2.266 . S
In39 O46 2.326 . S
In39 O47 2.266 . S
In39 O48 2.326 . S
In39 O50 2.294 . S
In39 O51 2.326 . S
O40 In39 2.294 . S
O40 C49 1.240 . S
O41 In39 2.326 . S
O41 C49 1.252 . S
C42 O45 1.252 . S
C42 O46 1.260 . S
C43 O50 1.240 . S
C43 O51 1.252 . S
C44 O47 1.252 . S
C44 O48 1.260 . S
O45 In39 2.266 . S
O45 C42 1.252 . S
O46 In39 2.326 . S
O46 C42 1.260 . S
O47 In39 2.266 . S
O47 C44 1.252 . S
O48 In39 2.326 . S
O48 C44 1.260 . S
C49 O40 1.240 . S
C49 O41 1.252 . S
O50 In39 2.294 . S
O50 C43 1.240 . S
O51 In39 2.326 . S
O51 C43 1.252 . S
In52 O53 2.294 . S
In52 O54 2.326 . S
In52 O58 2.266 . S
In52 O59 2.326 . S
In52 O60 2.266 . S
In52 O61 2.326 . S
In52 O63 2.294 . S
In52 O64 2.326 . S
O53 In52 2.294 . S
O53 C62 1.240 . S
O54 In52 2.326 . S
O54 C62 1.252 . S
C55 O58 1.252 . S
C55 O59 1.260 . S
C56 O63 1.240 . S
C56 O64 1.252 . S
C57 O60 1.252 . S
C57 O61 1.260 . S
O58 In52 2.266 . S
O58 C55 1.252 . S
O59 In52 2.326 . S
O59 C55 1.260 . S
O60 In52 2.266 . S
O60 C57 1.252 . S
O61 In52 2.326 . S
O61 C57 1.260 . S
C62 O53 1.240 . S
C62 O54 1.252 . S
O63 In52 2.294 . S
O63 C56 1.240 . S
O64 In52 2.326 . S
O64 C56 1.252 . S
In65 O66 2.294 . S
In65 O67 2.326 . S
In65 O71 2.266 . S
In65 O72 2.326 . S
In65 O73 2.266 . S
In65 O74 2.326 . S
In65 O76 2.294 . S
In65 O77 2.326 . S
O66 In65 2.294 . S
O66 C75 1.240 . S
O67 In65 2.326 . S
O67 C75 1.252 . S
C68 O71 1.252 . S
C68 O72 1.260 . S
C69 O76 1.240 . S
C69 O77 1.252 . S
C70 O73 1.252 . S
C70 O74 1.260 . S
O71 In65 2.266 . S
O71 C68 1.252 . S
O72 In65 2.326 . S
O72 C68 1.260 . S
O73 In65 2.266 . S
O73 C70 1.252 . S
O74 In65 2.326 . S
O74 C70 1.260 . S
C75 O66 1.240 . S
C75 O67 1.252 . S
O76 In65 2.294 . S
O76 C69 1.240 . S
O77 In65 2.326 . S
O77 C69 1.252 . S
In78 O79 2.294 . S
In78 O80 2.326 . S
In78 O84 2.266 . S
In78 O85 2.326 . S
In78 O86 2.266 . S
In78 O87 2.326 . S
In78 O89 2.294 . S
In78 O90 2.326 . S
O79 In78 2.294 . S
O79 C88 1.240 . S
O80 In78 2.326 . S
O80 C88 1.252 . S
C81 O84 1.252 . S
C81 O85 1.260 . S
C82 O89 1.240 . S
C82 O90 1.252 . S
C83 O86 1.252 . S
C83 O87 1.260 . S
O84 In78 2.266 . S
O84 C81 1.252 . S
O85 In78 2.326 . S
O85 C81 1.260 . S
O86 In78 2.266 . S
O86 C83 1.252 . S
O87 In78 2.326 . S
O87 C83 1.260 . S
C88 O79 1.240 . S
C88 O80 1.252 . S
O89 In78 2.294 . S
O89 C82 1.240 . S
O90 In78 2.326 . S
O90 C82 1.252 . S
In91 O92 2.294 . S
In91 O93 2.326 . S
In91 O97 2.266 . S
In91 O98 2.326 . S
In91 O99 2.266 . S
In91 O100 2.326 . S
In91 O102 2.294 . S
In91 O103 2.326 . S
O92 In91 2.294 . S
O92 C101 1.240 . S
O93 In91 2.326 . S
O93 C101 1.252 . S
C94 O97 1.252 . S
C94 O98 1.260 . S
C95 O102 1.240 . S
C95 O103 1.252 . S
C96 O99 1.252 . S
C96 O100 1.260 . S
O97 In91 2.266 . S
O97 C94 1.252 . S
O98 In91 2.326 . S
O98 C94 1.260 . S
O99 In91 2.266 . S
O99 C96 1.252 . S
O100 In91 2.326 . S
O100 C96 1.260 . S
C101 O92 1.240 . S
C101 O93 1.252 . S
O102 In91 2.294 . S
O102 C95 1.240 . S
O103 In91 2.326 . S
O103 C95 1.252 . S
In104 O105 2.294 . S
In104 O106 2.326 . S
In104 O110 2.266 . S
In104 O111 2.326 . S
In104 O112 2.266 . S
In104 O113 2.326 . S
In104 O115 2.294 . S
In104 O116 2.326 . S
O105 In104 2.294 . S
O105 C114 1.240 . S
O106 In104 2.326 . S
O106 C114 1.252 . S
C107 O110 1.252 . S
C107 O111 1.260 . S
C108 O115 1.240 . S
C108 O116 1.252 . S
C109 O112 1.252 . S
C109 O113 1.260 . S
O110 In104 2.266 . S
O110 C107 1.252 . S
O111 In104 2.326 . S
O111 C107 1.260 . S
O112 In104 2.266 . S
O112 C109 1.252 . S
O113 In104 2.326 . S
O113 C109 1.260 . S
C114 O105 1.240 . S
C114 O106 1.252 . S
O115 In104 2.294 . S
O115 C108 1.240 . S
O116 In104 2.326 . S
O116 C108 1.252 . S
In117 O118 2.294 . S
In117 O119 2.326 . S
In117 O123 2.266 . S
In117 O124 2.326 . S
In117 O125 2.266 . S
In117 O126 2.326 . S
In117 O128 2.294 . S
In117 O129 2.326 . S
O118 In117 2.294 . S
O118 C127 1.240 . S
O119 In117 2.326 . S
O119 C127 1.252 . S
C120 O123 1.252 . S
C120 O124 1.260 . S
C121 O128 1.240 . S
C121 O129 1.252 . S
C122 O125 1.252 . S
C122 O126 1.260 . S
O123 In117 2.266 . S
O123 C120 1.252 . S
O124 In117 2.326 . S
O124 C120 1.260 . S
O125 In117 2.266 . S
O125 C122 1.252 . S
O126 In117 2.326 . S
O126 C122 1.260 . S
C127 O118 1.240 . S
C127 O119 1.252 . S
O128 In117 2.294 . S
O128 C121 1.240 . S
O129 In117 2.326 . S
O129 C121 1.252 . S
In130 O131 2.294 . S
In130 O132 2.326 . S
In130 O136 2.266 . S
In130 O137 2.326 . S
In130 O138 2.266 . S
In130 O139 2.326 . S
In130 O141 2.294 . S
In130 O142 2.326 . S
O131 In130 2.294 . S
O131 C140 1.240 . S
O132 In130 2.326 . S
O132 C140 1.252 . S
C133 O136 1.252 . S
C133 O137 1.260 . S
C134 O141 1.240 . S
C134 O142 1.252 . S
C135 O138 1.252 . S
C135 O139 1.260 . S
O136 In130 2.266 . S
O136 C133 1.252 . S
O137 In130 2.326 . S
O137 C133 1.260 . S
O138 In130 2.266 . S
O138 C135 1.252 . S
O139 In130 2.326 . S
O139 C135 1.260 . S
C140 O131 1.240 . S
C140 O132 1.252 . S
O141 In130 2.294 . S
O141 C134 1.240 . S
O142 In130 2.326 . S
O142 C134 1.252 . S
In143 O144 2.294 . S
In143 O145 2.326 . S
In143 O149 2.266 . S
In143 O150 2.326 . S
In143 O151 2.266 . S
In143 O152 2.326 . S
In143 O154 2.294 . S
In143 O155 2.326 . S
O144 In143 2.294 . S
O144 C153 1.240 . S
O145 In143 2.326 . S
O145 C153 1.252 . S
C146 O149 1.252 . S
C146 O150 1.260 . S
C147 O154 1.240 . S
C147 O155 1.252 . S
C148 O151 1.252 . S
C148 O152 1.260 . S
O149 In143 2.266 . S
O149 C146 1.252 . S
O150 In143 2.326 . S
O150 C146 1.260 . S
O151 In143 2.266 . S
O151 C148 1.252 . S
O152 In143 2.326 . S
O152 C148 1.260 . S
C153 O144 1.240 . S
C153 O145 1.252 . S
O154 In143 2.294 . S
O154 C147 1.240 . S
O155 In143 2.326 . S
O155 C147 1.252 . S
In156 O157 2.294 . S
In156 O158 2.326 . S
In156 O162 2.266 . S
In156 O163 2.326 . S
In156 O164 2.266 . S
In156 O165 2.326 . S
In156 O167 2.294 . S
In156 O168 2.326 . S
O157 In156 2.294 . S
O157 C166 1.240 . S
O158 In156 2.326 . S
O158 C166 1.252 . S
C159 O162 1.252 . S
C159 O163 1.260 . S
C160 O167 1.240 . S
C160 O168 1.252 . S
C161 O164 1.252 . S
C161 O165 1.260 . S
O162 In156 2.266 . S
O162 C159 1.252 . S
O163 In156 2.326 . S
O163 C159 1.260 . S
O164 In156 2.266 . S
O164 C161 1.252 . S
O165 In156 2.326 . S
O165 C161 1.260 . S
C166 O157 1.240 . S
C166 O158 1.252 . S
O167 In156 2.294 . S
O167 C160 1.240 . S
O168 In156 2.326 . S
O168 C160 1.252 . S
In169 O170 2.294 . S
In169 O171 2.326 . S
In169 O175 2.266 . S
In169 O176 2.326 . S
In169 O177 2.266 . S
In169 O178 2.326 . S
In169 O180 2.294 . S
In169 O181 2.326 . S
O170 In169 2.294 . S
O170 C179 1.240 . S
O171 In169 2.326 . S
O171 C179 1.252 . S
C172 O175 1.252 . S
C172 O176 1.260 . S
C173 O180 1.240 . S
C173 O181 1.252 . S
C174 O177 1.252 . S
C174 O178 1.260 . S
O175 In169 2.266 . S
O175 C172 1.252 . S
O176 In169 2.326 . S
O176 C172 1.260 . S
O177 In169 2.266 . S
O177 C174 1.252 . S
O178 In169 2.326 . S
O178 C174 1.260 . S
C179 O170 1.240 . S
C179 O171 1.252 . S
O180 In169 2.294 . S
O180 C173 1.240 . S
O181 In169 2.326 . S
O181 C173 1.252 . S
In182 O183 2.294 . S
In182 O184 2.326 . S
In182 O188 2.266 . S
In182 O189 2.326 . S
In182 O190 2.266 . S
In182 O191 2.326 . S
In182 O193 2.294 . S
In182 O194 2.326 . S
O183 In182 2.294 . S
O183 C192 1.240 . S
O184 In182 2.326 . S
O184 C192 1.252 . S
C185 O188 1.252 . S
C185 O189 1.260 . S
C186 O193 1.240 . S
C186 O194 1.252 . S
C187 O190 1.252 . S
C187 O191 1.260 . S
O188 In182 2.266 . S
O188 C185 1.252 . S
O189 In182 2.326 . S
O189 C185 1.260 . S
O190 In182 2.266 . S
O190 C187 1.252 . S
O191 In182 2.326 . S
O191 C187 1.260 . S
C192 O183 1.240 . S
C192 O184 1.252 . S
O193 In182 2.294 . S
O193 C186 1.240 . S
O194 In182 2.326 . S
O194 C186 1.252 . S
In195 O196 2.294 . S
In195 O197 2.326 . S
In195 O201 2.266 . S
In195 O202 2.326 . S
In195 O203 2.266 . S
In195 O204 2.326 . S
In195 O206 2.294 . S
In195 O207 2.326 . S
O196 In195 2.294 . S
O196 C205 1.240 . S
O197 In195 2.326 . S
O197 C205 1.252 . S
C198 O201 1.252 . S
C198 O202 1.260 . S
C199 O206 1.240 . S
C199 O207 1.252 . S
C200 O203 1.252 . S
C200 O204 1.260 . S
O201 In195 2.266 . S
O201 C198 1.252 . S
O202 In195 2.326 . S
O202 C198 1.260 . S
O203 In195 2.266 . S
O203 C200 1.252 . S
O204 In195 2.326 . S
O204 C200 1.260 . S
C205 O196 1.240 . S
C205 O197 1.252 . S
O206 In195 2.294 . S
O206 C199 1.240 . S
O207 In195 2.326 . S
O207 C199 1.252 . S
C208 C209 1.369 1_545 S
C208 C210 1.419 1_655 S
C208 H212 0.930 . S
C209 C208 1.369 1_565 S
C209 C218 1.429 . S
C210 C208 1.419 1_455 S
C210 C211 1.363 . S
C210 H213 0.929 . S
C211 C210 1.363 . S
C211 C217 1.428 1_545 S
H212 C208 0.930 . S
H213 C210 0.929 . S
S214 N215 1.613 1_455 S
S214 N216 1.610 . S
N215 S214 1.613 1_655 S
N215 C218 1.350 . S
N216 S214 1.610 . S
N216 C217 1.351 . S
C217 C211 1.428 1_565 S
C217 N216 1.351 . S
C217 C218 1.434 1_455 S
C218 C209 1.429 . S
C218 N215 1.350 . S
C218 C217 1.434 1_655 S
C219 C220 1.369 1_455 S
C219 C221 1.419 . S
C219 H223 0.930 . S
C220 C219 1.369 1_655 S
C220 C229 1.429 . S
C221 C219 1.419 . S
C221 C222 1.363 . S
C221 H224 0.929 . S
C222 C221 1.363 . S
C222 C228 1.428 1_455 S
H223 C219 0.930 . S
H224 C221 0.929 . S
S225 N226 1.613 . S
S225 N227 1.610 . S
N226 S225 1.613 . S
N226 C229 1.350 . S
N227 S225 1.610 . S
N227 C228 1.351 . S
C228 C222 1.428 1_655 S
C228 N227 1.351 . S
C228 C229 1.434 . S
C229 C220 1.429 . S
C229 N226 1.350 . S
C229 C228 1.434 . S
C230 C231 1.369 . S
C230 C232 1.419 . S
C230 H234 0.930 . S
C231 C230 1.369 . S
C231 C240 1.429 . S
C232 C230 1.419 . S
C232 C233 1.363 . S
C232 H235 0.929 . S
C233 C232 1.363 . S
C233 C239 1.428 . S
H234 C230 0.930 . S
H235 C232 0.929 . S
S236 N237 1.613 . S
S236 N238 1.610 . S
N237 S236 1.613 . S
N237 C240 1.350 . S
N238 S236 1.610 . S
N238 C239 1.351 . S
C239 C233 1.428 . S
C239 N238 1.351 . S
C239 C240 1.434 . S
C240 C231 1.429 . S
C240 N237 1.350 . S
C240 C239 1.434 . S
C241 C242 1.369 . S
C241 C243 1.419 1_545 S
C241 H245 0.930 . S
C242 C241 1.369 . S
C242 C251 1.429 . S
C243 C241 1.419 1_565 S
C243 C244 1.363 . S
C243 H246 0.929 . S
C244 C243 1.363 . S
C244 C250 1.428 . S
H245 C241 0.930 . S
H246 C243 0.929 . S
S247 N248 1.613 1_565 S
S247 N249 1.610 . S
N248 S247 1.613 1_545 S
N248 C251 1.350 . S
N249 S247 1.610 . S
N249 C250 1.351 . S
C250 C244 1.428 . S
C250 N249 1.351 . S
C250 C251 1.434 1_565 S
C251 C242 1.429 . S
C251 N248 1.350 . S
C251 C250 1.434 1_545 S
C252 C253 1.369 . S
C252 C254 1.419 1_455 S
C252 H256 0.930 . S
C253 C252 1.369 . S
C253 C262 1.429 . S
C254 C252 1.419 1_655 S
C254 C255 1.363 . S
C254 H257 0.929 . S
C255 C254 1.363 . S
C255 C261 1.428 . S
H256 C252 0.930 . S
H257 C254 0.929 . S
S258 N259 1.613 1_655 S
S258 N260 1.610 . S
N259 S258 1.613 1_455 S
N259 C262 1.350 . S
N260 S258 1.610 . S
N260 C261 1.351 . S
C261 C255 1.428 . S
C261 N260 1.351 . S
C261 C262 1.434 1_655 S
C262 C253 1.429 . S
C262 N259 1.350 . S
C262 C261 1.434 1_455 S
C263 C264 1.369 . S
C263 C265 1.419 . S
C263 H267 0.930 . S
C264 C263 1.369 . S
C264 C273 1.429 . S
C265 C263 1.419 . S
C265 C266 1.363 . S
C265 H268 0.929 . S
C266 C265 1.363 . S
C266 C272 1.428 . S
H267 C263 0.930 . S
H268 C265 0.929 . S
S269 N270 1.613 . S
S269 N271 1.610 . S
N270 S269 1.613 . S
N270 C273 1.350 . S
N271 S269 1.610 . S
N271 C272 1.351 . S
C272 C266 1.428 . S
C272 N271 1.351 . S
C272 C273 1.434 . S
C273 C264 1.429 . S
C273 N270 1.350 . S
C273 C272 1.434 . S
C274 C275 1.369 . S
C274 C276 1.419 1_545 S
C274 H278 0.930 . S
C275 C274 1.369 . S
C275 C284 1.429 . S
C276 C274 1.419 1_565 S
C276 C277 1.363 . S
C276 H279 0.929 . S
C277 C276 1.363 . S
C277 C283 1.430 . S
H278 C274 0.930 . S
H279 C276 0.929 . S
S280 N281 1.613 . S
S280 N282 1.610 . S
N281 S280 1.613 . S
N281 C284 1.350 . S
N282 S280 1.610 . S
N282 C283 1.351 1_545 S
C283 C277 1.430 . S
C283 N282 1.351 1_565 S
C283 C284 1.432 1_565 S
C284 C275 1.429 . S
C284 N281 1.350 . S
C284 C283 1.432 1_545 S
C285 C286 1.369 . S
C285 C287 1.419 1_545 S
C285 H289 0.930 . S
C286 C285 1.369 . S
C286 C295 1.429 1_455 S
C287 C285 1.419 1_565 S
C287 C288 1.363 1_455 S
C287 H290 0.929 . S
C288 C287 1.363 1_655 S
C288 C294 1.428 . S
H289 C285 0.930 . S
H290 C287 0.929 . S
S291 N292 1.613 . S
S291 N293 1.610 1_545 S
N292 S291 1.613 . S
N292 C295 1.350 . S
N293 S291 1.610 1_565 S
N293 C294 1.351 . S
C294 C288 1.428 . S
C294 N293 1.351 . S
C294 C295 1.434 1_565 S
C295 C286 1.429 1_655 S
C295 N292 1.350 . S
C295 C294 1.434 1_545 S
C296 C297 1.369 . S
C296 C298 1.421 . S
C296 H300 0.930 . S
C297 C296 1.369 . S
C297 C306 1.429 . S
C298 C296 1.421 . S
C298 C299 1.360 1_565 S
C298 H301 0.929 . S
C299 C298 1.360 1_545 S
C299 C305 1.428 . S
H300 C296 0.930 . S
H301 C298 0.929 . S
S302 N303 1.621 . S
S302 N304 1.610 . S
N303 S302 1.621 . S
N303 C306 1.350 1_545 S
N304 S302 1.610 . S
N304 C305 1.351 . S
C305 C299 1.428 . S
C305 N304 1.351 . S
C305 C306 1.434 1_545 S
C306 C297 1.429 . S
C306 N303 1.350 1_565 S
C306 C305 1.434 1_565 S
C307 C308 1.369 . S
C307 C309 1.419 1_665 S
C307 H311 0.930 . S
C308 C307 1.369 . S
C308 C317 1.429 . S
C309 C307 1.419 1_445 S
C309 C310 1.363 . S
C309 H312 0.929 . S
C310 C309 1.363 . S
C310 C316 1.428 . S
H311 C307 0.930 . S
H312 C309 0.929 . S
S313 N314 1.613 1_545 S
S313 N315 1.610 1_655 S
N314 S313 1.613 1_565 S
N314 C317 1.350 . S
N315 S313 1.610 1_455 S
N315 C316 1.351 . S
C316 C310 1.428 . S
C316 N315 1.351 . S
C316 C317 1.434 1_445 S
C317 C308 1.429 . S
C317 N314 1.350 . S
C317 C316 1.434 1_665 S
C318 C319 1.369 . S
C318 C320 1.419 1_455 S
C318 H322 0.930 . S
C319 C318 1.369 . S
C319 C328 1.429 . S
C320 C318 1.419 1_655 S
C320 C321 1.363 . S
C320 H323 0.929 . S
C321 C320 1.363 . S
C321 C327 1.428 . S
H322 C318 0.930 . S
H323 C320 0.929 . S
S324 N325 1.613 1_655 S
S324 N326 1.610 . S
N325 S324 1.613 1_455 S
N325 C328 1.350 . S
N326 S324 1.610 . S
N326 C327 1.351 . S
C327 C321 1.428 . S
C327 N326 1.351 . S
C327 C328 1.434 1_655 S
C328 C319 1.429 . S
C328 N325 1.350 . S
C328 C327 1.434 1_455 S
C329 C330 1.369 . S
C329 C331 1.419 . S
C329 H333 0.930 . S
C330 C329 1.369 . S
C330 C339 1.429 . S
C331 C329 1.419 . S
C331 C332 1.363 . S
C331 H334 0.929 . S
C332 C331 1.363 . S
C332 C338 1.428 . S
H333 C329 0.930 . S
H334 C331 0.929 . S
S335 N336 1.613 . S
S335 N337 1.610 . S
N336 S335 1.613 . S
N336 C339 1.350 . S
N337 S335 1.610 . S
N337 C338 1.351 . S
C338 C332 1.428 . S
C338 N337 1.351 . S
C338 C339 1.434 . S
C339 C330 1.429 . S
C339 N336 1.350 . S
C339 C338 1.434 . S
C340 C341 1.369 . S
C340 C342 1.419 . S
C340 H344 0.930 . S
C341 C340 1.369 . S
C341 C350 1.429 . S
C342 C340 1.419 . S
C342 C343 1.363 . S
C342 H345 0.929 . S
C343 C342 1.363 . S
C343 C349 1.428 . S
H344 C340 0.930 . S
H345 C342 0.929 . S
S346 N347 1.613 . S
S346 N348 1.610 . S
N347 S346 1.613 . S
N347 C350 1.350 . S
N348 S346 1.610 . S
N348 C349 1.351 . S
C349 C343 1.428 . S
C349 N348 1.351 . S
C349 C350 1.434 . S
C350 C341 1.429 . S
C350 N347 1.350 . S
C350 C349 1.434 . S
C351 C352 1.369 . S
C351 C353 1.419 1_565 S
C351 H355 0.930 . S
C352 C351 1.369 . S
C352 C361 1.429 . S
C353 C351 1.419 1_545 S
C353 C354 1.363 . S
C353 H356 0.929 . S
C354 C353 1.363 . S
C354 C360 1.428 . S
H355 C351 0.930 . S
H356 C353 0.929 . S
S357 N358 1.613 . S
S357 N359 1.610 1_565 S
N358 S357 1.613 . S
N358 C361 1.350 . S
N359 S357 1.610 1_545 S
N359 C360 1.351 . S
C360 C354 1.428 . S
C360 N359 1.351 . S
C360 C361 1.434 1_545 S
C361 C352 1.429 . S
C361 N358 1.350 . S
C361 C360 1.434 1_565 S
C362 C363 1.368 1_545 S
C362 C364 1.419 1_655 S
C362 H366 0.930 . S
C363 C362 1.368 1_565 S
C363 C372 1.429 . S
C364 C362 1.419 1_455 S
C364 C365 1.363 . S
C364 H367 0.929 . S
C365 C364 1.363 . S
C365 C371 1.428 1_545 S
H366 C362 0.930 . S
H367 C364 0.929 . S
S368 N369 1.613 1_455 S
S368 N370 1.610 . S
N369 S368 1.613 1_655 S
N369 C372 1.350 . S
N370 S368 1.610 . S
N370 C371 1.351 . S
C371 C365 1.428 1_565 S
C371 N370 1.351 . S
C371 C372 1.434 1_455 S
C372 C363 1.429 . S
C372 N369 1.350 . S
C372 C371 1.434 1_655 S
C373 C374 1.369 . S
C373 C375 1.419 . S
C373 H377 0.930 . S
C374 C373 1.369 . S
C374 C383 1.429 1_455 S
C375 C373 1.419 . S
C375 C376 1.363 1_455 S
C375 H378 0.929 . S
C376 C375 1.363 1_655 S
C376 C382 1.428 . S
H377 C373 0.930 . S
H378 C375 0.929 . S
S379 N380 1.613 . S
S379 N381 1.610 . S
N380 S379 1.613 . S
N380 C383 1.350 . S
N381 S379 1.610 . S
N381 C382 1.351 . S
C382 C376 1.428 . S
C382 N381 1.351 . S
C382 C383 1.434 . S
C383 C374 1.429 1_655 S
C383 N380 1.350 . S
C383 C382 1.434 . S
C384 C385 1.369 . S
C384 C386 1.419 . S
C384 H388 0.930 . S
C385 C384 1.369 . S
C385 C394 1.429 . S
C386 C384 1.419 . S
C386 C387 1.363 . S
C386 H389 0.929 . S
C387 C386 1.363 . S
C387 C393 1.428 . S
H388 C384 0.930 . S
H389 C386 0.929 . S
S390 N391 1.613 . S
S390 N392 1.610 . S
N391 S390 1.613 . S
N391 C394 1.350 . S
N392 S390 1.610 . S
N392 C393 1.351 . S
C393 C387 1.428 . S
C393 N392 1.351 . S
C393 C394 1.434 . S
C394 C385 1.429 . S
C394 N391 1.350 . S
C394 C393 1.434 . S
C395 C396 1.369 . S
C395 C397 1.419 . S
C395 H399 0.930 . S
C396 C395 1.369 . S
C396 C405 1.429 . S
C397 C395 1.419 . S
C397 C398 1.363 . S
C397 H400 0.929 . S
C398 C397 1.363 . S
C398 C404 1.428 . S
H399 C395 0.930 . S
H400 C397 0.929 . S
S401 N402 1.613 . S
S401 N403 1.610 . S
N402 S401 1.613 . S
N402 C405 1.350 . S
N403 S401 1.610 . S
N403 C404 1.351 . S
C404 C398 1.428 . S
C404 N403 1.351 . S
C404 C405 1.434 . S
C405 C396 1.429 . S
C405 N402 1.350 . S
C405 C404 1.434 . S
C406 C407 1.369 . S
C406 C408 1.419 . S
C406 H410 0.930 . S
C407 C406 1.369 . S
C407 C416 1.429 . S
C408 C406 1.419 . S
C408 C409 1.363 . S
C408 H411 0.929 . S
C409 C408 1.363 . S
C409 C415 1.428 . S
H410 C406 0.930 . S
H411 C408 0.929 . S
S412 N413 1.613 . S
S412 N414 1.610 . S
N413 S412 1.613 . S
N413 C416 1.350 . S
N414 S412 1.610 . S
N414 C415 1.351 . S
C415 C409 1.428 . S
C415 N414 1.351 . S
C415 C416 1.434 . S
C416 C407 1.429 . S
C416 N413 1.350 . S
C416 C415 1.434 . S
C417 C418 1.369 . S
C417 C419 1.419 . S
C417 H421 0.930 . S
C418 C417 1.369 . S
C418 C427 1.429 . S
C419 C417 1.419 . S
C419 C420 1.363 . S
C419 H422 0.929 . S
C420 C419 1.363 . S
C420 C426 1.428 . S
H421 C417 0.930 . S
H422 C419 0.929 . S
S423 N424 1.613 . S
S423 N425 1.610 . S
N424 S423 1.613 . S
N424 C427 1.350 . S
N425 S423 1.610 . S
N425 C426 1.351 . S
C426 C420 1.428 . S
C426 N425 1.351 . S
C426 C427 1.434 . S
C427 C418 1.429 . S
C427 N424 1.350 . S
C427 C426 1.434 . S
C428 C429 1.369 . S
C428 C430 1.419 . S
C428 H432 0.930 . S
C429 C428 1.369 . S
C429 C438 1.429 . S
C430 C428 1.419 . S
C430 C431 1.363 . S
C430 H433 0.929 . S
C431 C430 1.363 . S
C431 C437 1.428 . S
H432 C428 0.930 . S
H433 C430 0.929 . S
S434 N435 1.613 . S
S434 N436 1.610 . S
N435 S434 1.613 . S
N435 C438 1.350 . S
N436 S434 1.610 . S
N436 C437 1.351 . S
C437 C431 1.428 . S
C437 N436 1.351 . S
C437 C438 1.434 . S
C438 C429 1.429 . S
C438 N435 1.350 . S
C438 C437 1.434 . S
C439 C440 1.369 . S
C439 C441 1.419 . S
C439 H443 0.930 . S
C440 C439 1.369 . S
C440 C449 1.429 . S
C441 C439 1.419 . S
C441 C442 1.363 . S
C441 H444 0.929 . S
C442 C441 1.363 . S
C442 C448 1.428 . S
H443 C439 0.930 . S
H444 C441 0.929 . S
S445 N446 1.613 . S
S445 N447 1.610 . S
N446 S445 1.613 . S
N446 C449 1.350 . S
N447 S445 1.610 . S
N447 C448 1.351 . S
C448 C442 1.428 . S
C448 N447 1.351 . S
C448 C449 1.434 . S
C449 C440 1.429 . S
C449 N446 1.350 . S
C449 C448 1.434 . S
C450 C451 1.369 . S
C450 C452 1.419 . S
C450 H454 0.930 . S
C451 C450 1.369 . S
C451 C460 1.429 . S
C452 C450 1.419 . S
C452 C453 1.363 . S
C452 H455 0.929 . S
C453 C452 1.363 . S
C453 C459 1.428 . S
H454 C450 0.930 . S
H455 C452 0.929 . S
S456 N457 1.613 1_545 S
S456 N458 1.610 1_545 S
N457 S456 1.613 1_565 S
N457 C460 1.350 . S
N458 S456 1.610 1_565 S
N458 C459 1.351 . S
C459 C453 1.428 . S
C459 N458 1.351 . S
C459 C460 1.434 . S
C460 C451 1.429 . S
C460 N457 1.350 . S
C460 C459 1.434 . S
C461 C462 1.369 . S
C461 C463 1.419 . S
C461 H465 0.930 . S
C462 C461 1.369 . S
C462 C471 1.429 . S
C463 C461 1.419 . S
C463 C464 1.363 . S
C463 H466 0.929 . S
C464 C463 1.363 . S
C464 C470 1.428 . S
H465 C461 0.930 . S
H466 C463 0.929 . S
S467 N468 1.613 . S
S467 N469 1.610 . S
N468 S467 1.613 . S
N468 C471 1.350 . S
N469 S467 1.610 . S
N469 C470 1.351 . S
C470 C464 1.428 . S
C470 N469 1.351 . S
C470 C471 1.434 . S
C471 C462 1.429 . S
C471 N468 1.350 . S
C471 C470 1.434 . S
C472 C473 1.369 . S
C472 C474 1.419 . S
C472 H476 0.930 . S
C473 C472 1.369 . S
C473 C482 1.429 . S
C474 C472 1.419 . S
C474 C475 1.363 . S
C474 H477 0.929 . S
C475 C474 1.363 . S
C475 C481 1.428 . S
H476 C472 0.930 . S
H477 C474 0.929 . S
S478 N479 1.613 . S
S478 N480 1.610 . S
N479 S478 1.613 . S
N479 C482 1.350 . S
N480 S478 1.610 . S
N480 C481 1.351 . S
C481 C475 1.428 . S
C481 N480 1.351 . S
C481 C482 1.434 . S
C482 C473 1.429 . S
C482 N479 1.350 . S
C482 C481 1.434 . S
C483 C484 1.369 . S
C483 C485 1.419 . S
C483 H487 0.930 . S
C484 C483 1.369 . S
C484 C493 1.429 . S
C485 C483 1.419 . S
C485 C486 1.363 . S
C485 H488 0.929 . S
C486 C485 1.363 . S
C486 C492 1.428 . S
H487 C483 0.930 . S
H488 C485 0.929 . S
S489 N490 1.613 . S
S489 N491 1.610 . S
N490 S489 1.613 . S
N490 C493 1.350 . S
N491 S489 1.610 . S
N491 C492 1.351 . S
C492 C486 1.428 . S
C492 N491 1.351 . S
C492 C493 1.434 . S
C493 C484 1.429 . S
C493 N490 1.350 . S
C493 C492 1.434 . S
C494 C495 1.369 . S
C494 C496 1.419 . S
C494 H498 0.930 . S
C495 C494 1.369 . S
C495 C504 1.429 . S
C496 C494 1.419 . S
C496 C497 1.363 . S
C496 H499 0.929 . S
C497 C496 1.363 . S
C497 C503 1.428 . S
H498 C494 0.930 . S
H499 C496 0.929 . S
S500 N501 1.613 . S
S500 N502 1.610 . S
N501 S500 1.613 . S
N501 C504 1.350 . S
N502 S500 1.610 . S
N502 C503 1.351 . S
C503 C497 1.428 . S
C503 N502 1.351 . S
C503 C504 1.434 . S
C504 C495 1.429 . S
C504 N501 1.350 . S
C504 C503 1.434 . S
C505 C506 1.369 . S
C505 C507 1.419 1_556 S
C505 H509 0.930 . S
C506 C505 1.369 . S
C506 C515 1.429 . S
C507 C505 1.419 1_554 S
C507 C508 1.363 . S
C507 H510 0.929 . S
C508 C507 1.363 . S
C508 C514 1.428 . S
H509 C505 0.930 . S
H510 C507 0.929 . S
S511 N512 1.613 . S
S511 N513 1.610 1_556 S
N512 S511 1.613 . S
N512 C515 1.350 . S
N513 S511 1.610 1_554 S
N513 C514 1.351 . S
C514 C508 1.428 . S
C514 N513 1.351 . S
C514 C515 1.434 1_554 S
C515 C506 1.429 . S
C515 N512 1.350 . S
C515 C514 1.434 1_556 S
C516 C517 1.369 . S
C516 C518 1.419 1_554 S
C516 H520 0.930 . S
C517 C516 1.369 . S
C517 C526 1.429 . S
C518 C516 1.419 1_556 S
C518 C519 1.363 . S
C518 H521 0.929 . S
C519 C518 1.363 . S
C519 C525 1.428 . S
H520 C516 0.930 . S
H521 C518 0.929 . S
S522 N523 1.613 1_556 S
S522 N524 1.610 . S
N523 S522 1.613 1_554 S
N523 C526 1.350 . S
N524 S522 1.610 . S
N524 C525 1.351 . S
C525 C519 1.428 . S
C525 N524 1.351 . S
C525 C526 1.434 1_556 S
C526 C517 1.429 . S
C526 N523 1.350 . S
C526 C525 1.434 1_554 S
C527 C528 1.369 . S
C527 C529 1.419 . S
C527 H531 0.930 . S
C528 C527 1.369 . S
C528 C537 1.429 . S
C529 C527 1.419 . S
C529 C530 1.363 . S
C529 H532 0.929 . S
C530 C529 1.363 . S
C530 C536 1.428 . S
H531 C527 0.930 . S
H532 C529 0.929 . S
S533 N534 1.613 . S
S533 N535 1.610 . S
N534 S533 1.613 . S
N534 C537 1.350 . S
N535 S533 1.610 . S
N535 C536 1.351 . S
C536 C530 1.428 . S
C536 N535 1.351 . S
C536 C537 1.434 . S
C537 C528 1.429 . S
C537 N534 1.350 . S
C537 C536 1.434 . S
C538 C539 1.369 . S
C538 C540 1.419 . S
C538 H542 0.930 . S
C539 C538 1.369 . S
C539 C548 1.429 . S
C540 C538 1.419 . S
C540 C541 1.363 . S
C540 H543 0.929 . S
C541 C540 1.363 . S
C541 C547 1.428 . S
H542 C538 0.930 . S
H543 C540 0.929 . S
S544 N545 1.613 . S
S544 N546 1.610 . S
N545 S544 1.613 . S
N545 C548 1.350 . S
N546 S544 1.610 . S
N546 C547 1.351 . S
C547 C541 1.428 . S
C547 N546 1.351 . S
C547 C548 1.434 . S
C548 C539 1.429 . S
C548 N545 1.350 . S
C548 C547 1.434 . S
C549 C550 1.369 . S
C549 C551 1.419 . S
C549 H553 0.930 . S
C550 C549 1.369 . S
C550 C559 1.429 . S
C551 C549 1.419 . S
C551 C552 1.363 . S
C551 H554 0.929 . S
C552 C551 1.363 . S
C552 C558 1.428 . S
H553 C549 0.930 . S
H554 C551 0.929 . S
S555 N556 1.613 . S
S555 N557 1.610 . S
N556 S555 1.613 . S
N556 C559 1.350 . S
N557 S555 1.610 . S
N557 C558 1.351 . S
C558 C552 1.428 . S
C558 N557 1.351 . S
C558 C559 1.434 . S
C559 C550 1.429 . S
C559 N556 1.350 . S
C559 C558 1.434 . S
C209 C134 1.675 . S
C211 C4 1.674 . S
C220 C17 1.674 . S
C222 C153 1.674 . S
C231 C108 1.674 . S
C233 C36 1.674 . S
C242 C121 1.674 . S
C244 C43 1.674 . S
C253 C56 1.674 . S
C255 C186 1.674 . S
C264 C199 1.675 . S
C266 C69 1.675 . S
C275 C82 1.675 . S
C277 C166 1.674 . S
C286 C173 1.675 . S
C288 C95 1.675 . S
C297 C135 1.342 . S
C299 C5 1.343 . S
C308 C18 1.344 . S
C310 C146 1.343 . S
C319 C29 1.342 . S
C321 C109 1.343 . S
C330 C44 1.343 . S
C332 C122 1.342 . S
C341 C57 1.343 . S
C343 C187 1.342 . S
C352 C70 1.344 . S
C354 C200 1.343 . S
C363 C159 1.342 . S
C365 C83 1.343 . S
C374 C174 1.342 . S
C376 C96 1.342 . S
C385 C10 1.458 . S
C387 C88 1.455 . S
C396 C23 1.452 . S
C398 C101 1.454 . S
C407 C30 1.453 . S
C409 C62 1.453 . S
C418 C49 1.458 . S
C420 C75 1.454 . S
C429 C114 1.452 . S
C431 C192 1.456 . S
C440 C205 1.452 . S
C442 C127 1.454 . S
C451 C140 1.453 . S
C453 C160 1.453 . S
C462 C179 1.457 . S
C464 C147 1.457 . S
C473 C3 1.378 . S
C475 C198 1.384 . S
C484 C161 1.383 . S
C486 C16 1.378 . S
C495 C172 1.385 . S
C497 C31 1.380 . S
C506 C185 1.385 . S
C508 C42 1.381 . S
C517 C120 1.378 . S
C519 C55 1.379 . S
C528 C133 1.384 . S
C530 C68 1.381 . S
C539 C81 1.377 . S
C541 C148 1.382 . S
C550 C94 1.383 . S
C552 C107 1.382 . S
