# Generated by pormake.
# Topology fns, (5)-cn, num edge types: 1
# Building blocks:
#     Node 0, Type 0, BuildingBlock: XOMCOT_clean_sbu_0, # of connection points: 5
#     Node 1, Type 0, BuildingBlock: XOMCOT_clean_sbu_0, # of connection points: 5
#     Node 2, Type 0, BuildingBlock: XOMCOT_clean_sbu_0, # of connection points: 5
#     Node 3, Type 0, BuildingBlock: XOMCOT_clean_sbu_0, # of connection points: 5
#     Node 4, Type 0, BuildingBlock: XOMCOT_clean_sbu_0, # of connection points: 5
#     Node 5, Type 0, BuildingBlock: XOMCOT_clean_sbu_0, # of connection points: 5
#     Edge 6, Type (0, 0), BuildingBlock: KIFKEQ_clean_linker_1, # of connection points: 2
#     Edge 7, Type (0, 0), BuildingBlock: KIFKEQ_clean_linker_1, # of connection points: 2
#     Edge 8, Type (0, 0), BuildingBlock: KIFKEQ_clean_linker_1, # of connection points: 2
#     Edge 9, Type (0, 0), BuildingBlock: KIFKEQ_clean_linker_1, # of connection points: 2
#     Edge 10, Type (0, 0), BuildingBlock: KIFKEQ_clean_linker_1, # of connection points: 2
#     Edge 11, Type (0, 0), BuildingBlock: KIFKEQ_clean_linker_1, # of connection points: 2
#     Edge 12, Type (0, 0), BuildingBlock: KIFKEQ_clean_linker_1, # of connection points: 2
#     Edge 13, Type (0, 0), BuildingBlock: KIFKEQ_clean_linker_1, # of connection points: 2
#     Edge 14, Type (0, 0), BuildingBlock: KIFKEQ_clean_linker_1, # of connection points: 2
#     Edge 15, Type (0, 0), BuildingBlock: KIFKEQ_clean_linker_1, # of connection points: 2
#     Edge 16, Type (0, 0), BuildingBlock: KIFKEQ_clean_linker_1, # of connection points: 2
#     Edge 17, Type (0, 0), BuildingBlock: KIFKEQ_clean_linker_1, # of connection points: 2
#     Edge 18, Type (0, 0), BuildingBlock: KIFKEQ_clean_linker_1, # of connection points: 2
#     Edge 19, Type (0, 0), BuildingBlock: KIFKEQ_clean_linker_1, # of connection points: 2
#     Edge 20, Type (0, 0), BuildingBlock: KIFKEQ_clean_linker_1, # of connection points: 2
# Relax obj value: 0.192
# Max RMSD: 0.296
# Mean RMSD: 0.296
data_MOF--net-fns--node1-XOMCOT_clean_sbu_0--edge1-KIFKEQ_clean_linker_1
_symmetry_space_group_name_H-M    P1
_symmetry_Int_Tables_number       1
_symmetry_cell_setting            triclinic
loop_
_symmetry_equiv_pos_as_xyz
'x, y, z'
_cell_length_a     56.697859
_cell_length_b     56.806911
_cell_length_c     17.803751
_cell_angle_alpha  90.022084
_cell_angle_beta   89.959387
_cell_angle_gamma 120.08679
loop_
_atom_site_label
_atom_site_type_symbol
_atom_site_fract_x
_atom_site_fract_y
_atom_site_fract_z
_atom_type_partial_charge
Co0 Co 0.19095 0.62387 0.17558 0.0
C1 C 0.1901 0.61879 0.34068 0.0
C2 C 0.21799 0.60844 0.28945 0.0
C3 C 0.22001 0.60732 0.36621 0.0
N4 N 0.1992 0.61553 0.27371 0.0
N5 N 0.2025 0.61389 0.39863 0.0
H6 H 0.17509 0.62511 0.34633 0.0
H7 H 0.23015 0.60535 0.24807 0.0
C8 C 0.18053 0.57356 0.08903 0.0
O9 O 0.15767 0.57049 0.06135 0.0
N10 N 0.18379 0.63315 0.07575 0.0
C11 C 0.1749 0.65058 0.05866 0.0
C12 C 0.17528 0.65372 0.98196 0.0
C13 C 0.19089 0.62727 1.00876 0.0
N14 N 0.18515 0.63884 0.95073 0.0
C15 C 0.13468 0.60963 0.18945 0.0
C16 C 0.11495 0.55601 0.23029 0.0
C17 C 0.09647 0.56513 0.21756 0.0
C18 C 0.10667 0.59246 0.1985 0.0
C19 C 0.14282 0.57381 0.21935 0.0
N20 N 0.15224 0.5999 0.19531 0.0
H21 H 0.14216 0.63079 0.1784 0.0
H22 H 0.15682 0.56648 0.22929 0.0
H23 H 0.16969 0.66151 0.09873 0.0
H24 H 0.2014 0.61596 1.00213 0.0
O25 O 0.19574 0.65779 0.21535 0.0
O26 O 0.2283 0.65198 0.16488 0.0
O27 O 0.19507 0.59323 0.13344 0.0
C28 C 0.22134 0.66813 0.19721 0.0
H29 H 0.23419 0.60311 0.39549 0.0
H30 H 0.169 0.66617 0.95165 0.0
H31 H 0.10788 0.53514 0.24647 0.0
H32 H 0.09308 0.60051 0.19109 0.0
Co33 Co 0.56877 0.18948 0.52368 0.0
C34 C 0.57248 0.18863 0.68886 0.0
C35 C 0.61189 0.21291 0.63839 0.0
C36 C 0.6149 0.21445 0.71532 0.0
N37 N 0.58533 0.19662 0.62205 0.0
N38 N 0.59009 0.19927 0.74699 0.0
H39 H 0.55066 0.17562 0.69458 0.0
H40 H 0.62785 0.22368 0.59744 0.0
C41 C 0.60787 0.17931 0.4324 0.0
O42 O 0.58763 0.15682 0.40447 0.0
N43 N 0.55222 0.18327 0.42392 0.0
C44 C 0.52564 0.1734 0.40745 0.0
C45 C 0.52259 0.17352 0.33088 0.0
C46 C 0.56504 0.19097 0.35664 0.0
N47 N 0.54739 0.18436 0.29879 0.0
C48 C 0.52607 0.13354 0.53793 0.0
C49 C 0.5598 0.11298 0.57249 0.0
C50 C 0.53191 0.09493 0.56213 0.0
C51 C 0.51488 0.10551 0.54621 0.0
C52 C 0.5702 0.14086 0.5623 0.0
N53 N 0.55357 0.15068 0.54112 0.0
H54 H 0.5125 0.14136 0.53006 0.0
H55 H 0.59173 0.15454 0.57081 0.0
H56 H 0.50946 0.16765 0.4478 0.0
H57 H 0.58688 0.20163 0.34983 0.0
O58 O 0.53984 0.19439 0.56488 0.0
O59 O 0.5786 0.22692 0.51597 0.0
O60 O 0.60333 0.19348 0.4797 0.0
C61 C 0.55553 0.22007 0.5487 0.0
H62 H 0.63376 0.22671 0.74552 0.0
H63 H 0.50359 0.16688 0.3014 0.0
H64 H 0.57353 0.10558 0.5864 0.0
H65 H 0.49305 0.09223 0.54088 0.0
Co66 Co 0.37142 0.56765 0.85461 0.0
C67 C 0.37618 0.57216 0.01968 0.0
C68 C 0.38642 0.61026 0.968 0.0
C69 C 0.38739 0.61346 0.04476 0.0
N70 N 0.37946 0.58441 0.95255 0.0
N71 N 0.38088 0.58947 0.07755 0.0
H72 H 0.36996 0.55088 0.0254 0.0
H73 H 0.38957 0.62544 0.92641 0.0
C74 C 0.42125 0.60672 0.76559 0.0
O75 O 0.4235 0.5864 0.73855 0.0
N76 N 0.36253 0.55103 0.75499 0.0
C77 C 0.34694 0.5244 0.73751 0.0
C78 C 0.34372 0.52168 0.66075 0.0
C79 C 0.36719 0.56408 0.68837 0.0
N80 N 0.35671 0.54669 0.62999 0.0
C81 C 0.38532 0.52581 0.87628 0.0
C82 C 0.43996 0.56047 0.90581 0.0
C83 C 0.43044 0.53255 0.89821 0.0
C84 C 0.4025 0.51506 0.88586 0.0
C85 C 0.42199 0.5703 0.89605 0.0
N86 N 0.39545 0.55322 0.8761 0.0
H87 H 0.36383 0.512 0.86978 0.0
H88 H 0.42962 0.59181 0.90316 0.0
H89 H 0.33727 0.50791 0.77721 0.0
H90 H 0.37708 0.58592 0.68243 0.0
O91 O 0.33735 0.53839 0.89379 0.0
O92 O 0.34313 0.57654 0.84248 0.0
O93 O 0.40221 0.60234 0.81178 0.0
C94 C 0.3269 0.5534 0.87468 0.0
H95 H 0.39153 0.63188 0.07369 0.0
H96 H 0.33259 0.50277 0.63006 0.0
H97 H 0.46124 0.57476 0.91701 0.0
H98 H 0.39394 0.49322 0.88363 0.0
Co99 Co 0.79964 0.37395 0.18254 0.0
C100 C 0.79994 0.37808 0.34775 0.0
C101 C 0.77478 0.39204 0.29718 0.0
C102 C 0.77316 0.39348 0.3741 0.0
N103 N 0.79168 0.38254 0.28093 0.0
N104 N 0.7889 0.38459 0.40581 0.0
H105 H 0.81352 0.36997 0.35351 0.0
H106 H 0.76376 0.39683 0.25616 0.0
C107 C 0.8102 0.42373 0.09409 0.0
O108 O 0.83307 0.42634 0.06788 0.0
N109 N 0.80665 0.36444 0.08263 0.0
C110 C 0.81664 0.34791 0.06582 0.0
C111 C 0.81677 0.34504 0.98919 0.0
C112 C 0.79916 0.36979 0.01544 0.0
N113 N 0.80595 0.35899 0.95741 0.0
C114 C 0.85597 0.38837 0.19705 0.0
C115 C 0.87567 0.44224 0.23485 0.0
C116 C 0.89417 0.43312 0.22261 0.0
C117 C 0.884 0.40566 0.20531 0.0
C118 C 0.84778 0.4243 0.22475 0.0
N119 N 0.83838 0.39811 0.20169 0.0
H120 H 0.84853 0.36712 0.18774 0.0
H121 H 0.83375 0.43164 0.23429 0.0
H122 H 0.82223 0.33734 0.10596 0.0
H123 H 0.78847 0.3809 1.00878 0.0
O124 O 0.79523 0.34024 0.22252 0.0
O125 O 0.76227 0.34555 0.17304 0.0
O126 O 0.79539 0.40444 0.13936 0.0
C127 C 0.76956 0.32961 0.20506 0.0
H128 H 0.76054 0.39962 0.40428 0.0
H129 H 0.82346 0.33281 0.95941 0.0
H130 H 0.88271 0.46321 0.24991 0.0
H131 H 0.89761 0.39759 0.19864 0.0
Co132 Co 0.42839 0.79989 0.51305 0.0
C133 C 0.42412 0.79856 0.67855 0.0
C134 C 0.38508 0.77411 0.62649 0.0
C135 C 0.38174 0.77183 0.70322 0.0
N136 N 0.41161 0.79096 0.61123 0.0
N137 N 0.40632 0.7871 0.73615 0.0
H138 H 0.44591 0.81156 0.68477 0.0
H139 H 0.36931 0.76375 0.58486 0.0
C140 C 0.38882 0.80933 0.42286 0.0
O141 O 0.40903 0.83194 0.39528 0.0
N142 N 0.44501 0.80789 0.4133 0.0
C143 C 0.47174 0.82085 0.39533 0.0
C144 C 0.47443 0.82056 0.31862 0.0
C145 C 0.43198 0.79844 0.34696 0.0
N146 N 0.44936 0.8066 0.28799 0.0
C147 C 0.46956 0.85588 0.53612 0.0
C148 C 0.43414 0.87477 0.5665 0.0
C149 C 0.46202 0.89348 0.55944 0.0
C150 C 0.47991 0.88372 0.54606 0.0
C151 C 0.42464 0.84712 0.55473 0.0
N152 N 0.44214 0.83822 0.53472 0.0
H153 H 0.48368 0.8486 0.53071 0.0
H154 H 0.40311 0.83291 0.56103 0.0
H155 H 0.48846 0.82893 0.43448 0.0
H156 H 0.41022 0.78511 0.34204 0.0
O157 O 0.45818 0.79606 0.55201 0.0
O158 O 0.42022 0.76295 0.50119 0.0
O159 O 0.3934 0.79513 0.46995 0.0
C160 C 0.44354 0.77051 0.53338 0.0
H161 H 0.36257 0.75968 0.73213 0.0
H162 H 0.4935 0.8299 0.28814 0.0
H163 H 0.41975 0.88151 0.57893 0.0
H164 H 0.50173 0.89749 0.54382 0.0
Co165 Co 0.62624 0.43266 0.83142 0.0
C166 C 0.62167 0.42729 0.9986 0.0
C167 C 0.61511 0.39077 0.94515 0.0
C168 C 0.61457 0.3872 0.02175 0.0
N169 N 0.61885 0.41569 0.93035 0.0
N170 N 0.61876 0.41025 0.05551 0.0
H171 H 0.62764 0.4483 1.007 0.0
H172 H 0.61372 0.3764 0.90302 0.0
C173 C 0.5742 0.37918 0.80932 0.0
O174 O 0.5649 0.38139 0.87497 0.0
N175 N 0.6341 0.44918 0.73309 0.0
C176 C 0.64118 0.47495 0.71602 0.0
C177 C 0.64281 0.47776 0.63898 0.0
C178 C 0.6317 0.4367 0.66674 0.0
N179 N 0.63676 0.45365 0.60786 0.0
C180 C 0.60709 0.46647 0.89724 0.0
C181 C 0.55978 0.44589 0.81383 0.0
C182 C 0.56478 0.46542 0.86905 0.0
C183 C 0.58913 0.47619 0.91 0.0
C184 C 0.57827 0.43682 0.80296 0.0
N185 N 0.6008 0.44584 0.84753 0.0
H186 H 0.62637 0.47608 0.92617 0.0
H187 H 0.57466 0.42308 0.75696 0.0
H188 H 0.64421 0.49039 0.75663 0.0
H189 H 0.62618 0.41557 0.66196 0.0
O190 O 0.65952 0.46304 0.87098 0.0
O191 O 0.6558 0.4256 0.82055 0.0
O192 O 0.5973 0.39775 0.78508 0.0
C193 C 0.67105 0.44891 0.85307 0.0
H194 H 0.61183 0.36914 0.05001 0.0
H195 H 0.64724 0.496 0.60851 0.0
H196 H 0.54203 0.43812 0.77787 0.0
H197 H 0.5943 0.49194 0.95161 0.0
H198 H 0.21588 0.56181 0.15857 0.0
H199 H 0.17415 0.5519 0.94808 0.0
H200 H 0.24539 0.54759 0.09917 0.0
H201 H 0.204 0.53782 0.88802 0.0
H202 H 0.29392 0.51724 0.98147 0.0
H203 H 0.25113 0.51209 0.03001 0.0
H204 H 0.25424 0.56852 0.86239 0.0
H205 H 0.29681 0.5737 0.81435 0.0
C206 C 0.21253 0.55581 0.10001 0.0
C207 C 0.193 0.5583 0.05765 0.0
C208 C 0.22933 0.5475 0.06605 0.0
C209 C 0.22718 0.54184 0.98874 0.0
C210 C 0.20621 0.54226 0.94761 0.0
C211 C 0.18905 0.55018 0.98202 0.0
C212 C 0.28503 0.52794 0.95384 0.0
C213 C 0.29879 0.5461 0.89473 0.0
C214 C 0.26062 0.52506 0.98173 0.0
C215 C 0.2494 0.53997 0.95017 0.0
C216 C 0.26218 0.55652 0.88741 0.0
C217 C 0.2867 0.55967 0.86028 0.0
H218 H 0.62007 0.17588 0.28576 0.0
H219 H 0.65646 0.21345 0.49766 0.0
H220 H 0.66262 0.2071 0.22123 0.0
H221 H 0.69878 0.24456 0.43362 0.0
H222 H 0.7176 0.29989 0.15345 0.0
H223 H 0.6814 0.25689 0.2027 0.0
H224 H 0.73858 0.25285 0.35482 0.0
H225 H 0.77499 0.29616 0.30537 0.0
C226 C 0.63747 0.19009 0.31883 0.0
C227 C 0.63499 0.19241 0.3966 0.0
C228 C 0.66173 0.20812 0.28185 0.0
C229 C 0.68395 0.22846 0.32225 0.0
C230 C 0.68216 0.22902 0.40089 0.0
C231 C 0.65787 0.21128 0.4376 0.0
C232 C 0.72259 0.28956 0.19631 0.0
C233 C 0.74903 0.30151 0.22617 0.0
C234 C 0.70188 0.26477 0.22408 0.0
C235 C 0.70711 0.2515 0.28284 0.0
C236 C 0.73394 0.2627 0.30979 0.0
C237 C 0.75477 0.28742 0.28135 0.0
H238 H 0.47974 0.77517 0.64165 0.0
H239 H 0.42399 0.7198 0.47574 0.0
H240 H 0.48474 0.73819 0.69505 0.0
H241 H 0.42904 0.68304 0.52863 0.0
H242 H 0.43263 0.65466 0.82951 0.0
H243 H 0.44801 0.6978 0.7656 0.0
H244 H 0.45958 0.6638 0.56129 0.0
H245 H 0.44441 0.62049 0.62586 0.0
C246 C 0.46922 0.75533 0.61523 0.0
C247 C 0.45121 0.75021 0.5552 0.0
C248 C 0.47202 0.73418 0.6459 0.0
C249 C 0.45717 0.70773 0.61626 0.0
C250 C 0.44096 0.70325 0.55227 0.0
C251 C 0.43788 0.72425 0.52234 0.0
C252 C 0.43923 0.65663 0.77156 0.0
C253 C 0.43689 0.63412 0.73225 0.0
C254 C 0.44823 0.68142 0.73506 0.0
C255 C 0.45474 0.68408 0.65824 0.0
C256 C 0.45449 0.66221 0.62043 0.0
C257 C 0.44589 0.63747 0.65742 0.0
H258 H 0.70367 0.43138 0.79423 0.0
H259 H 0.70074 0.48299 0.96767 0.0
H260 H 0.74447 0.43513 0.85069 0.0
H261 H 0.74186 0.48682 0.02461 0.0
H262 H 0.82024 0.44725 0.9549 0.0
H263 H 0.79297 0.46337 0.88997 0.0
H264 H 0.74539 0.4501 0.09143 0.0
H265 H 0.7726 0.43419 0.15603 0.0
C266 C 0.71225 0.44419 0.84329 0.0
C267 C 0.69893 0.45668 0.87703 0.0
C268 C 0.73576 0.4465 0.8754 0.0
C269 C 0.74628 0.46111 0.94247 0.0
C270 C 0.73408 0.47527 0.97318 0.0
C271 C 0.71067 0.47322 0.94039 0.0
C272 C 0.80453 0.44863 0.98591 0.0
C273 C 0.79831 0.43918 0.06023 0.0
C274 C 0.78883 0.45771 0.94863 0.0
C275 C 0.76689 0.4578 0.98538 0.0
C276 C 0.76227 0.45052 0.06165 0.0
C277 C 0.77772 0.44118 0.09854 0.0
H278 H 0.34093 0.77343 0.48912 0.0
H279 H 0.37464 0.81727 0.28224 0.0
H280 H 0.29721 0.74556 0.42755 0.0
H281 H 0.33067 0.78922 0.2202 0.0
H282 H 0.27179 0.69842 0.13699 0.0
H283 H 0.30972 0.73976 0.18855 0.0
H284 H 0.2567 0.74169 0.35976 0.0
H285 H 0.21852 0.70007 0.30773 0.0
C286 C 0.33875 0.77757 0.43092 0.0
C287 C 0.36125 0.79724 0.39018 0.0
C288 C 0.31363 0.76174 0.39575 0.0
C289 C 0.31057 0.76505 0.31885 0.0
C290 C 0.33252 0.78612 0.27944 0.0
C291 C 0.35763 0.80224 0.31502 0.0
C292 C 0.26806 0.70806 0.18446 0.0
C293 C 0.24233 0.69592 0.21891 0.0
C294 C 0.28975 0.73188 0.21366 0.0
C295 C 0.28623 0.74389 0.2785 0.0
C296 C 0.26001 0.73277 0.30996 0.0
C297 C 0.23816 0.70904 0.28004 0.0
H298 H 0.58278 0.27339 0.51082 0.0
H299 H 0.51464 0.21459 0.64272 0.0
H300 H 0.57874 0.30986 0.56719 0.0
H301 H 0.50981 0.25142 0.69812 0.0
H302 H 0.54758 0.32714 0.86177 0.0
H303 H 0.53508 0.28623 0.78844 0.0
H304 H 0.55538 0.33363 0.58402 0.0
H305 H 0.56936 0.3746 0.6581 0.0
C306 C 0.56643 0.2682 0.55062 0.0
C307 C 0.54925 0.24116 0.573 0.0
C308 C 0.56389 0.28918 0.58261 0.0
C309 C 0.54395 0.2837 0.63763 0.0
C310 C 0.52561 0.25641 0.65666 0.0
C311 C 0.52823 0.2353 0.62456 0.0
C312 C 0.54858 0.32855 0.80104 0.0
C313 C 0.55979 0.35393 0.76543 0.0
C314 C 0.54134 0.3051 0.75882 0.0
C315 C 0.54482 0.30669 0.68024 0.0
C316 C 0.55324 0.33177 0.64452 0.0
C317 C 0.56105 0.35521 0.68677 0.0
H318 H 0.18075 0.59432 0.88274 0.0
H319 H 0.19663 0.67572 0.83991 0.0
H320 H 0.18416 0.58767 0.74892 0.0
H321 H 0.20086 0.66955 0.70604 0.0
H322 H 0.17977 0.64113 0.46503 0.0
H323 H 0.17514 0.64651 0.59843 0.0
H324 H 0.2149 0.60032 0.64769 0.0
H325 H 0.21794 0.5934 0.5146 0.0
C326 C 0.18538 0.61094 0.8447 0.0
C327 C 0.18842 0.63552 0.87184 0.0
C328 C 0.18737 0.60718 0.76787 0.0
C329 C 0.19275 0.62805 0.71625 0.0
C330 C 0.19614 0.6528 0.74374 0.0
C331 C 0.19385 0.65643 0.82055 0.0
C332 C 0.18719 0.63173 0.50395 0.0
C333 C 0.1993 0.61683 0.47816 0.0
C334 C 0.18488 0.63518 0.58088 0.0
C335 C 0.19479 0.62401 0.63423 0.0
C336 C 0.20674 0.60898 0.60851 0.0
C337 C 0.20882 0.60532 0.53169 0.0
H338 H 0.5429 0.19017 0.81174 0.0
H339 H 0.62291 0.20285 0.86226 0.0
H340 H 0.53269 0.18719 0.94547 0.0
H341 H 0.61268 0.19966 0.99613 0.0
H342 H 0.59524 0.22017 0.23081 0.0
H343 H 0.60556 0.2238 0.09704 0.0
H344 H 0.52394 0.15812 0.05226 0.0
H345 H 0.5136 0.15458 0.18558 0.0
C346 C 0.5582 0.19198 0.85131 0.0
C347 C 0.58372 0.19671 0.82615 0.0
C348 C 0.55236 0.1903 0.92813 0.0
C349 C 0.57187 0.19321 0.98179 0.0
C350 C 0.59734 0.19779 0.95655 0.0
C351 C 0.6032 0.19956 0.87973 0.0
C352 C 0.5795 0.20644 0.1926 0.0
C353 C 0.5535 0.18717 0.21934 0.0
C354 C 0.58545 0.20849 0.11572 0.0
C355 C 0.56557 0.19128 0.06365 0.0
C356 C 0.5396 0.17206 0.09044 0.0
C357 C 0.53365 0.17005 0.16714 0.0
H358 H 0.32074 0.51925 0.51858 0.0
H359 H 0.39959 0.58925 0.56276 0.0
H360 H 0.32654 0.52986 0.38481 0.0
H361 H 0.40599 0.59953 0.42908 0.0
H362 H 0.39894 0.62558 0.19391 0.0
H363 H 0.39201 0.61554 0.32678 0.0
H364 H 0.35074 0.52948 0.27766 0.0
H365 H 0.35602 0.53941 0.14444 0.0
C366 C 0.33941 0.53681 0.49953 0.0
C367 C 0.35969 0.55344 0.55119 0.0
C368 C 0.34284 0.54286 0.42275 0.0
C369 C 0.36682 0.56551 0.3956 0.0
C370 C 0.38704 0.58219 0.44764 0.0
C371 C 0.38343 0.57631 0.52444 0.0
C372 C 0.38808 0.60447 0.21083 0.0
C373 C 0.37791 0.58339 0.15723 0.0
C374 C 0.38441 0.59869 0.28768 0.0
C375 C 0.37076 0.57166 0.31349 0.0
C376 C 0.36094 0.55056 0.26013 0.0
C377 C 0.36435 0.55633 0.18318 0.0
H378 H 0.83626 0.35604 0.84411 0.0
H379 H 0.76927 0.36975 0.88999 0.0
H380 H 0.83229 0.36243 0.71073 0.0
H381 H 0.76518 0.37601 0.7562 0.0
H382 H 0.78469 0.4136 0.52062 0.0
H383 H 0.78855 0.40727 0.65455 0.0
H384 H 0.80304 0.34112 0.60477 0.0
H385 H 0.79941 0.34766 0.47099 0.0
C386 C 0.82042 0.36005 0.82575 0.0
C387 C 0.80302 0.36223 0.87807 0.0
C388 C 0.81816 0.36375 0.74907 0.0
C389 C 0.79837 0.36968 0.72248 0.0
C390 C 0.78092 0.37185 0.77474 0.0
C391 C 0.78323 0.36821 0.85159 0.0
C392 C 0.78857 0.39763 0.53831 0.0
C393 C 0.79179 0.38119 0.48499 0.0
C394 C 0.79072 0.39394 0.61515 0.0
C395 C 0.79607 0.37365 0.64063 0.0
C396 C 0.79934 0.35724 0.58722 0.0
C397 C 0.79729 0.361 0.51038 0.0
H398 H 0.40093 0.79355 0.22244 0.0
H399 H 0.48243 0.80989 0.17253 0.0
H400 H 0.39036 0.78841 0.08888 0.0
H401 H 0.47188 0.80522 0.03908 0.0
H402 H 0.4518 0.82642 0.8064 0.0
H403 H 0.46198 0.83016 0.94013 0.0
H404 H 0.38469 0.75765 0.98193 0.0
H405 H 0.37461 0.75344 0.84841 0.0
C406 C 0.41654 0.79577 0.18342 0.0
C407 C 0.44262 0.80223 0.20893 0.0
C408 C 0.41046 0.79289 0.10664 0.0
C409 C 0.43034 0.79657 0.05336 0.0
C410 C 0.45627 0.80271 0.07868 0.0
C411 C 0.4623 0.8054 0.15542 0.0
C412 C 0.43703 0.81107 0.84364 0.0
C413 C 0.41233 0.78961 0.81576 0.0
C414 C 0.44289 0.81326 0.92052 0.0
C415 C 0.42414 0.7942 0.97163 0.0
C416 C 0.39942 0.77286 0.9441 0.0
C417 C 0.39363 0.77052 0.86723 0.0
H418 H 0.62982 0.38425 0.16699 0.0
H419 H 0.61337 0.44972 0.12666 0.0
H420 H 0.63419 0.39445 0.30076 0.0
H421 H 0.6183 0.46013 0.26027 0.0
H422 H 0.65913 0.48899 0.49102 0.0
H423 H 0.65454 0.47821 0.35771 0.0
H424 H 0.60568 0.39272 0.40957 0.0
H425 H 0.60972 0.40337 0.54299 0.0
C426 C 0.62694 0.40069 0.18628 0.0
C427 C 0.62129 0.41616 0.13523 0.0
C428 C 0.6295 0.40655 0.26324 0.0
C429 C 0.62669 0.42816 0.2912 0.0
C430 C 0.62101 0.44361 0.24042 0.0
C431 C 0.61824 0.43763 0.16358 0.0
C432 C 0.64718 0.46789 0.47442 0.0
C433 C 0.63476 0.44714 0.52858 0.0
C434 C 0.64459 0.46172 0.39771 0.0
C435 C 0.62969 0.43462 0.37295 0.0
C436 C 0.61756 0.4138 0.42682 0.0
C437 C 0.61996 0.41996 0.50359 0.0
H438 H 0.93173 0.43972 0.11755 0.0
H439 H 0.9236 0.46959 0.33341 0.0
H440 H 0.98077 0.47198 0.11897 0.0
H441 H 0.97293 0.50171 0.33527 0.0
H442 H 0.06752 0.52975 0.33093 0.0
H443 H 0.01819 0.49775 0.33526 0.0
H444 H 0.00938 0.52556 0.11712 0.0
H445 H 0.05844 0.5577 0.11323 0.0
C446 C 0.94052 0.45305 0.16556 0.0
C447 C 0.92395 0.45221 0.2254 0.0
C448 C 0.96849 0.47157 0.16615 0.0
C449 C 0.98053 0.48929 0.22717 0.0
C450 C 0.96409 0.48815 0.28775 0.0
C451 C 0.93595 0.46994 0.28651 0.0
C452 C 0.05496 0.529 0.28415 0.0
C453 C 0.06669 0.54616 0.22179 0.0
C454 C 0.02682 0.51087 0.28681 0.0
C455 C 0.01011 0.50922 0.22644 0.0
C456 C 0.02188 0.52637 0.16418 0.0
C457 C 0.04986 0.54482 0.16216 0.0
H458 H 0.53846 0.06565 0.6738 0.0
H459 H 0.50039 0.0574 0.45801 0.0
H460 H 0.52085 0.01635 0.67654 0.0
H461 H 0.48329 0.00836 0.46015 0.0
H462 H 0.49388 0.93172 0.45748 0.0
H463 H 0.51016 0.98058 0.46091 0.0
H464 H 0.47013 0.97084 0.67432 0.0
H465 H 0.4533 0.92167 0.67018 0.0
C466 C 0.52632 0.05326 0.62716 0.0
C467 C 0.52071 0.06519 0.56573 0.0
C468 C 0.51618 0.02516 0.6289 0.0
C469 C 0.50082 0.00874 0.56847 0.0
C470 C 0.49518 0.02068 0.50723 0.0
C471 C 0.50482 0.04862 0.50619 0.0
C472 C 0.48868 0.94007 0.50522 0.0
C473 C 0.4724 0.92306 0.5636 0.0
C474 C 0.49784 0.9679 0.50697 0.0
C475 C 0.49133 0.97931 0.56782 0.0
C476 C 0.47545 0.96243 0.62698 0.0
C477 C 0.46578 0.93442 0.62447 0.0
H478 H 0.42977 0.49292 0.81004 0.0
H479 H 0.47464 0.54809 0.99094 0.0
H480 H 0.46189 0.47641 0.80928 0.0
H481 H 0.50701 0.5316 0.98971 0.0
H482 H 0.57551 0.5176 0.89348 0.0
H483 H 0.54269 0.53322 0.90665 0.0
H484 H 0.47652 0.45038 0.88578 0.0
H485 H 0.50926 0.43477 0.87283 0.0
C486 C 0.44625 0.50125 0.85048 0.0
C487 C 0.44955 0.52179 0.90069 0.0
C488 C 0.46471 0.49179 0.84996 0.0
C489 C 0.48699 0.50266 0.89952 0.0
C490 C 0.49023 0.52306 0.95021 0.0
C491 C 0.47169 0.5325 0.95087 0.0
C492 C 0.55396 0.50269 0.89283 0.0
C493 C 0.545 0.47496 0.88154 0.0
C494 C 0.53515 0.51164 0.90038 0.0
C495 C 0.507 0.49305 0.89675 0.0
C496 C 0.49807 0.46526 0.88745 0.0
C497 C 0.51683 0.45633 0.87997 0.0
loop_
_geom_bond_atom_site_label_1
_geom_bond_atom_site_label_2
_geom_bond_distance
_geom_bond_site_symmetry_2
_ccdc_geom_bond_type
Co0 N4 2.148 . S
Co0 N10 2.128 . S
Co0 N20 2.194 . S
Co0 O25 2.351 . S
Co0 O26 2.155 . S
Co0 O27 2.096 . S
C1 N4 1.301 . S
C1 N5 1.328 . S
C1 H6 0.930 . S
C2 C3 1.333 . S
C2 N4 1.317 . S
C2 H7 0.930 . S
C3 C2 1.333 . S
C3 N5 1.350 . S
C3 H29 0.931 . S
N4 Co0 2.148 . S
N4 C1 1.301 . S
N4 C2 1.317 . S
N5 C1 1.328 . S
N5 C3 1.350 . S
H6 C1 0.930 . S
H7 C2 0.930 . S
C8 O9 1.224 . S
C8 O27 1.247 . S
O9 C8 1.224 . S
N10 Co0 2.128 . S
N10 C11 1.355 . S
N10 C13 1.303 1_554 S
C11 N10 1.355 . S
C11 C12 1.363 1_554 S
C11 H23 0.929 . S
C12 C11 1.363 1_556 S
C12 N14 1.375 . S
C12 H30 0.931 . S
C13 N10 1.303 1_556 S
C13 N14 1.354 . S
C13 H24 0.930 . S
N14 C12 1.375 . S
N14 C13 1.354 . S
C15 C18 1.365 . S
C15 N20 1.328 . S
C15 H21 0.929 . S
C16 C17 1.362 . S
C16 C19 1.378 . S
C16 H31 0.929 . S
C17 C16 1.362 . S
C17 C18 1.366 . S
C18 C15 1.365 . S
C18 C17 1.366 . S
C18 H32 0.930 . S
C19 C16 1.378 . S
C19 N20 1.315 . S
C19 H22 0.930 . S
N20 Co0 2.194 . S
N20 C15 1.328 . S
N20 C19 1.315 . S
H21 C15 0.929 . S
H22 C19 0.930 . S
H23 C11 0.929 . S
H24 C13 0.930 . S
O25 Co0 2.351 . S
O25 C28 1.244 . S
O26 Co0 2.155 . S
O26 C28 1.240 . S
O27 Co0 2.096 . S
O27 C8 1.247 . S
C28 O25 1.244 . S
C28 O26 1.240 . S
H29 C3 0.931 . S
H30 C12 0.931 . S
H31 C16 0.929 . S
H32 C18 0.930 . S
Co33 N37 2.148 . S
Co33 N43 2.128 . S
Co33 N53 2.194 . S
Co33 O58 2.351 . S
Co33 O59 2.155 . S
Co33 O60 2.096 . S
C34 N37 1.301 . S
C34 N38 1.328 . S
C34 H39 0.930 . S
C35 C36 1.333 . S
C35 N37 1.317 . S
C35 H40 0.930 . S
C36 C35 1.333 . S
C36 N38 1.350 . S
C36 H62 0.931 . S
N37 Co33 2.148 . S
N37 C34 1.301 . S
N37 C35 1.317 . S
N38 C34 1.328 . S
N38 C36 1.350 . S
H39 C34 0.930 . S
H40 C35 0.930 . S
C41 O42 1.224 . S
C41 O60 1.247 . S
O42 C41 1.224 . S
N43 Co33 2.128 . S
N43 C44 1.355 . S
N43 C46 1.311 . S
C44 N43 1.355 . S
C44 C45 1.363 . S
C44 H56 0.929 . S
C45 C44 1.363 . S
C45 N47 1.375 . S
C45 H63 0.931 . S
C46 N43 1.311 . S
C46 N47 1.347 . S
C46 H57 0.929 . S
N47 C45 1.375 . S
N47 C46 1.347 . S
C48 C51 1.365 . S
C48 N53 1.328 . S
C48 H54 0.929 . S
C49 C50 1.362 . S
C49 C52 1.378 . S
C49 H64 0.929 . S
C50 C49 1.362 . S
C50 C51 1.366 . S
C51 C48 1.365 . S
C51 C50 1.366 . S
C51 H65 0.930 . S
C52 C49 1.378 . S
C52 N53 1.315 . S
C52 H55 0.930 . S
N53 Co33 2.194 . S
N53 C48 1.328 . S
N53 C52 1.315 . S
H54 C48 0.929 . S
H55 C52 0.930 . S
H56 C44 0.929 . S
H57 C46 0.929 . S
O58 Co33 2.351 . S
O58 C61 1.244 . S
O59 Co33 2.155 . S
O59 C61 1.240 . S
O60 Co33 2.096 . S
O60 C41 1.247 . S
C61 O58 1.244 . S
C61 O59 1.240 . S
H62 C36 0.931 . S
H63 C45 0.931 . S
H64 C49 0.929 . S
H65 C51 0.930 . S
Co66 N70 2.148 . S
Co66 N76 2.128 . S
Co66 N86 2.194 . S
Co66 O91 2.351 . S
Co66 O92 2.155 . S
Co66 O93 2.096 . S
C67 N70 1.301 1_554 S
C67 N71 1.328 . S
C67 H72 0.930 . S
C68 C69 1.333 1_556 S
C68 N70 1.317 . S
C68 H73 0.930 . S
C69 C68 1.333 1_554 S
C69 N71 1.350 . S
C69 H95 0.931 . S
N70 Co66 2.148 . S
N70 C67 1.301 1_556 S
N70 C68 1.317 . S
N71 C67 1.328 . S
N71 C69 1.350 . S
H72 C67 0.930 . S
H73 C68 0.930 . S
C74 O75 1.224 . S
C74 O93 1.247 . S
O75 C74 1.224 . S
N76 Co66 2.128 . S
N76 C77 1.355 . S
N76 C79 1.311 . S
C77 N76 1.355 . S
C77 C78 1.363 . S
C77 H89 0.929 . S
C78 C77 1.363 . S
C78 N80 1.375 . S
C78 H96 0.931 . S
C79 N76 1.311 . S
C79 N80 1.347 . S
C79 H90 0.929 . S
N80 C78 1.375 . S
N80 C79 1.347 . S
C81 C84 1.365 . S
C81 N86 1.328 . S
C81 H87 0.929 . S
C82 C83 1.362 . S
C82 C85 1.378 . S
C82 H97 0.929 . S
C83 C82 1.362 . S
C83 C84 1.366 . S
C84 C81 1.365 . S
C84 C83 1.366 . S
C84 H98 0.930 . S
C85 C82 1.378 . S
C85 N86 1.315 . S
C85 H88 0.930 . S
N86 Co66 2.194 . S
N86 C81 1.328 . S
N86 C85 1.315 . S
H87 C81 0.929 . S
H88 C85 0.930 . S
H89 C77 0.929 . S
H90 C79 0.929 . S
O91 Co66 2.351 . S
O91 C94 1.244 . S
O92 Co66 2.155 . S
O92 C94 1.240 . S
O93 Co66 2.096 . S
O93 C74 1.247 . S
C94 O91 1.244 . S
C94 O92 1.240 . S
H95 C69 0.931 . S
H96 C78 0.931 . S
H97 C82 0.929 . S
H98 C84 0.930 . S
Co99 N103 2.148 . S
Co99 N109 2.128 . S
Co99 N119 2.194 . S
Co99 O124 2.351 . S
Co99 O125 2.155 . S
Co99 O126 2.096 . S
C100 N103 1.301 . S
C100 N104 1.328 . S
C100 H105 0.930 . S
C101 C102 1.333 . S
C101 N103 1.317 . S
C101 H106 0.930 . S
C102 C101 1.333 . S
C102 N104 1.350 . S
C102 H128 0.931 . S
N103 Co99 2.148 . S
N103 C100 1.301 . S
N103 C101 1.317 . S
N104 C100 1.328 . S
N104 C102 1.350 . S
H105 C100 0.930 . S
H106 C101 0.930 . S
C107 O108 1.224 . S
C107 O126 1.247 . S
O108 C107 1.224 . S
N109 Co99 2.128 . S
N109 C110 1.355 . S
N109 C112 1.303 1_554 S
C110 N109 1.355 . S
C110 C111 1.363 1_554 S
C110 H122 0.929 . S
C111 C110 1.363 1_556 S
C111 N113 1.375 . S
C111 H129 0.931 . S
C112 N109 1.303 1_556 S
C112 N113 1.354 . S
C112 H123 0.930 . S
N113 C111 1.375 . S
N113 C112 1.354 . S
C114 C117 1.365 . S
C114 N119 1.328 . S
C114 H120 0.929 . S
C115 C116 1.362 . S
C115 C118 1.378 . S
C115 H130 0.929 . S
C116 C115 1.362 . S
C116 C117 1.366 . S
C117 C114 1.365 . S
C117 C116 1.366 . S
C117 H131 0.930 . S
C118 C115 1.378 . S
C118 N119 1.315 . S
C118 H121 0.930 . S
N119 Co99 2.194 . S
N119 C114 1.328 . S
N119 C118 1.315 . S
H120 C114 0.929 . S
H121 C118 0.930 . S
H122 C110 0.929 . S
H123 C112 0.930 . S
O124 Co99 2.351 . S
O124 C127 1.244 . S
O125 Co99 2.155 . S
O125 C127 1.240 . S
O126 Co99 2.096 . S
O126 C107 1.247 . S
C127 O124 1.244 . S
C127 O125 1.240 . S
H128 C102 0.931 . S
H129 C111 0.931 . S
H130 C115 0.929 . S
H131 C117 0.930 . S
Co132 N136 2.148 . S
Co132 N142 2.128 . S
Co132 N152 2.194 . S
Co132 O157 2.351 . S
Co132 O158 2.155 . S
Co132 O159 2.096 . S
C133 N136 1.301 . S
C133 N137 1.328 . S
C133 H138 0.930 . S
C134 C135 1.333 . S
C134 N136 1.317 . S
C134 H139 0.930 . S
C135 C134 1.333 . S
C135 N137 1.350 . S
C135 H161 0.931 . S
N136 Co132 2.148 . S
N136 C133 1.301 . S
N136 C134 1.317 . S
N137 C133 1.328 . S
N137 C135 1.350 . S
H138 C133 0.930 . S
H139 C134 0.930 . S
C140 O141 1.224 . S
C140 O159 1.247 . S
O141 C140 1.224 . S
N142 Co132 2.128 . S
N142 C143 1.355 . S
N142 C145 1.311 . S
C143 N142 1.355 . S
C143 C144 1.363 . S
C143 H155 0.929 . S
C144 C143 1.363 . S
C144 N146 1.375 . S
C144 H162 0.931 . S
C145 N142 1.311 . S
C145 N146 1.347 . S
C145 H156 0.929 . S
N146 C144 1.375 . S
N146 C145 1.347 . S
C147 C150 1.365 . S
C147 N152 1.328 . S
C147 H153 0.929 . S
C148 C149 1.362 . S
C148 C151 1.378 . S
C148 H163 0.929 . S
C149 C148 1.362 . S
C149 C150 1.366 . S
C150 C147 1.365 . S
C150 C149 1.366 . S
C150 H164 0.930 . S
C151 C148 1.378 . S
C151 N152 1.315 . S
C151 H154 0.930 . S
N152 Co132 2.194 . S
N152 C147 1.328 . S
N152 C151 1.315 . S
H153 C147 0.929 . S
H154 C151 0.930 . S
H155 C143 0.929 . S
H156 C145 0.929 . S
O157 Co132 2.351 . S
O157 C160 1.244 . S
O158 Co132 2.155 . S
O158 C160 1.240 . S
O159 Co132 2.096 . S
O159 C140 1.247 . S
C160 O157 1.244 . S
C160 O158 1.240 . S
H161 C135 0.931 . S
H162 C144 0.931 . S
H163 C148 0.929 . S
H164 C150 0.930 . S
Co165 N169 2.148 . S
Co165 N175 2.128 . S
Co165 N185 2.194 . S
Co165 O190 2.351 . S
Co165 O191 2.155 . S
Co165 O192 2.096 . S
C166 N169 1.301 1_554 S
C166 N170 1.328 . S
C166 H171 0.930 . S
C167 C168 1.333 1_556 S
C167 N169 1.317 . S
C167 H172 0.930 . S
C168 C167 1.333 1_554 S
C168 N170 1.350 . S
C168 H194 0.931 . S
N169 Co165 2.148 . S
N169 C166 1.301 1_556 S
N169 C167 1.317 . S
N170 C166 1.328 . S
N170 C168 1.350 . S
H171 C166 0.930 . S
H172 C167 0.930 . S
C173 O174 1.224 . S
C173 O192 1.247 . S
O174 C173 1.224 . S
N175 Co165 2.128 . S
N175 C176 1.355 . S
N175 C178 1.311 . S
C176 N175 1.355 . S
C176 C177 1.363 . S
C176 H188 0.929 . S
C177 C176 1.363 . S
C177 N179 1.375 . S
C177 H195 0.931 . S
C178 N175 1.311 . S
C178 N179 1.347 . S
C178 H189 0.929 . S
N179 C177 1.375 . S
N179 C178 1.347 . S
C180 C183 1.365 . S
C180 N185 1.328 . S
C180 H186 0.929 . S
C181 C182 1.362 . S
C181 C184 1.378 . S
C181 H196 0.929 . S
C182 C181 1.362 . S
C182 C183 1.366 . S
C183 C180 1.365 . S
C183 C182 1.366 . S
C183 H197 0.930 . S
C184 C181 1.378 . S
C184 N185 1.315 . S
C184 H187 0.930 . S
N185 Co165 2.194 . S
N185 C180 1.328 . S
N185 C184 1.315 . S
H186 C180 0.929 . S
H187 C184 0.930 . S
H188 C176 0.929 . S
H189 C178 0.929 . S
O190 Co165 2.351 . S
O190 C193 1.244 . S
O191 Co165 2.155 . S
O191 C193 1.240 . S
O192 Co165 2.096 . S
O192 C173 1.247 . S
C193 O190 1.244 . S
C193 O191 1.240 . S
H194 C168 0.931 . S
H195 C177 0.931 . S
H196 C181 0.929 . S
H197 C183 0.930 . S
H198 C206 0.950 . S
H199 C211 0.950 1_556 S
H200 C208 0.950 . S
H201 C210 0.950 . S
H202 C212 0.950 . S
H203 C214 0.950 . S
H204 C216 0.950 . S
H205 C217 0.950 . S
C206 H198 0.950 . S
C206 C207 1.386 . S
C206 C208 1.391 . S
C207 C206 1.386 . S
C207 C211 1.393 . S
C208 H200 0.950 . S
C208 C206 1.391 . S
C208 C209 1.400 . S
C209 C208 1.400 . S
C209 C210 1.398 1_554 S
C209 C215 1.491 1_554 S
C210 H201 0.950 . S
C210 C209 1.398 1_556 S
C210 C211 1.391 1_556 S
C211 H199 0.950 1_554 S
C211 C207 1.393 . S
C211 C210 1.391 1_554 S
C212 H202 0.950 . S
C212 C213 1.386 . S
C212 C214 1.391 . S
C213 C212 1.386 . S
C213 C217 1.393 . S
C214 H203 0.950 . S
C214 C212 1.391 . S
C214 C215 1.400 . S
C215 C209 1.491 1_556 S
C215 C214 1.400 . S
C215 C216 1.398 1_556 S
C216 H204 0.950 . S
C216 C215 1.398 1_554 S
C216 C217 1.391 1_554 S
C217 H205 0.950 . S
C217 C213 1.393 . S
C217 C216 1.391 1_556 S
H218 C226 0.950 . S
H219 C231 0.950 . S
H220 C228 0.950 . S
H221 C230 0.950 . S
H222 C232 0.950 . S
H223 C234 0.950 . S
H224 C236 0.950 . S
H225 C237 0.950 . S
C226 H218 0.950 . S
C226 C227 1.386 . S
C226 C228 1.391 . S
C227 C226 1.386 . S
C227 C231 1.393 . S
C228 H220 0.950 . S
C228 C226 1.391 . S
C228 C229 1.400 . S
C229 C228 1.400 . S
C229 C230 1.398 . S
C229 C235 1.491 . S
C230 H221 0.950 . S
C230 C229 1.398 . S
C230 C231 1.391 . S
C231 H219 0.950 . S
C231 C227 1.393 . S
C231 C230 1.391 . S
C232 H222 0.950 . S
C232 C233 1.386 . S
C232 C234 1.391 . S
C233 C232 1.386 . S
C233 C237 1.393 . S
C234 H223 0.950 . S
C234 C232 1.391 . S
C234 C235 1.400 . S
C235 C229 1.491 . S
C235 C234 1.400 . S
C235 C236 1.398 . S
C236 H224 0.950 . S
C236 C235 1.398 . S
C236 C237 1.391 . S
C237 H225 0.950 . S
C237 C233 1.393 . S
C237 C236 1.391 . S
H238 C246 0.950 . S
H239 C251 0.950 . S
H240 C248 0.950 . S
H241 C250 0.950 . S
H242 C252 0.950 . S
H243 C254 0.950 . S
H244 C256 0.950 . S
H245 C257 0.950 . S
C246 H238 0.950 . S
C246 C247 1.386 . S
C246 C248 1.391 . S
C247 C246 1.386 . S
C247 C251 1.393 . S
C248 H240 0.950 . S
C248 C246 1.391 . S
C248 C249 1.400 . S
C249 C248 1.400 . S
C249 C250 1.398 . S
C249 C255 1.491 . S
C250 H241 0.950 . S
C250 C249 1.398 . S
C250 C251 1.391 . S
C251 H239 0.950 . S
C251 C247 1.393 . S
C251 C250 1.391 . S
C252 H242 0.950 . S
C252 C253 1.386 . S
C252 C254 1.391 . S
C253 C252 1.386 . S
C253 C257 1.393 . S
C254 H243 0.950 . S
C254 C252 1.391 . S
C254 C255 1.400 . S
C255 C249 1.491 . S
C255 C254 1.400 . S
C255 C256 1.398 . S
C256 H244 0.950 . S
C256 C255 1.398 . S
C256 C257 1.391 . S
C257 H245 0.950 . S
C257 C253 1.393 . S
C257 C256 1.391 . S
H258 C266 0.950 . S
H259 C271 0.950 . S
H260 C268 0.950 . S
H261 C270 0.950 1_554 S
H262 C272 0.950 . S
H263 C274 0.950 . S
H264 C276 0.950 1_556 S
H265 C277 0.950 . S
C266 H258 0.950 . S
C266 C267 1.386 . S
C266 C268 1.391 . S
C267 C266 1.386 . S
C267 C271 1.393 . S
C268 H260 0.950 . S
C268 C266 1.391 . S
C268 C269 1.400 . S
C269 C268 1.400 . S
C269 C270 1.398 . S
C269 C275 1.491 1_556 S
C270 H261 0.950 1_556 S
C270 C269 1.398 . S
C270 C271 1.391 . S
C271 H259 0.950 . S
C271 C267 1.393 . S
C271 C270 1.391 . S
C272 H262 0.950 . S
C272 C273 1.386 . S
C272 C274 1.391 . S
C273 C272 1.386 . S
C273 C277 1.393 . S
C274 H263 0.950 . S
C274 C272 1.391 . S
C274 C275 1.400 . S
C275 C269 1.491 1_554 S
C275 C274 1.400 . S
C275 C276 1.398 . S
C276 H264 0.950 1_554 S
C276 C275 1.398 . S
C276 C277 1.391 . S
C277 H265 0.950 . S
C277 C273 1.393 . S
C277 C276 1.391 . S
H278 C286 0.950 . S
H279 C291 0.950 . S
H280 C288 0.950 . S
H281 C290 0.950 . S
H282 C292 0.950 . S
H283 C294 0.950 . S
H284 C296 0.950 . S
H285 C297 0.950 . S
C286 H278 0.950 . S
C286 C287 1.386 . S
C286 C288 1.391 . S
C287 C286 1.386 . S
C287 C291 1.393 . S
C288 H280 0.950 . S
C288 C286 1.391 . S
C288 C289 1.400 . S
C289 C288 1.400 . S
C289 C290 1.398 . S
C289 C295 1.491 . S
C290 H281 0.950 . S
C290 C289 1.398 . S
C290 C291 1.391 . S
C291 H279 0.950 . S
C291 C287 1.393 . S
C291 C290 1.391 . S
C292 H282 0.950 . S
C292 C293 1.386 . S
C292 C294 1.391 . S
C293 C292 1.386 . S
C293 C297 1.393 . S
C294 H283 0.950 . S
C294 C292 1.391 . S
C294 C295 1.400 . S
C295 C289 1.491 . S
C295 C294 1.400 . S
C295 C296 1.398 . S
C296 H284 0.950 . S
C296 C295 1.398 . S
C296 C297 1.391 . S
C297 H285 0.950 . S
C297 C293 1.393 . S
C297 C296 1.391 . S
H298 C306 0.950 . S
H299 C311 0.950 . S
H300 C308 0.950 . S
H301 C310 0.950 . S
H302 C312 0.950 . S
H303 C314 0.950 . S
H304 C316 0.950 . S
H305 C317 0.950 . S
C306 H298 0.950 . S
C306 C307 1.386 . S
C306 C308 1.391 . S
C307 C306 1.386 . S
C307 C311 1.393 . S
C308 H300 0.950 . S
C308 C306 1.391 . S
C308 C309 1.400 . S
C309 C308 1.400 . S
C309 C310 1.398 . S
C309 C315 1.491 . S
C310 H301 0.950 . S
C310 C309 1.398 . S
C310 C311 1.391 . S
C311 H299 0.950 . S
C311 C307 1.393 . S
C311 C310 1.391 . S
C312 H302 0.950 . S
C312 C313 1.386 . S
C312 C314 1.391 . S
C313 C312 1.386 . S
C313 C317 1.393 . S
C314 H303 0.950 . S
C314 C312 1.391 . S
C314 C315 1.400 . S
C315 C309 1.491 . S
C315 C314 1.400 . S
C315 C316 1.398 . S
C316 H304 0.950 . S
C316 C315 1.398 . S
C316 C317 1.391 . S
C317 H305 0.950 . S
C317 C313 1.393 . S
C317 C316 1.391 . S
H318 C326 0.950 . S
H319 C331 0.950 . S
H320 C328 0.950 . S
H321 C330 0.950 . S
H322 C332 0.950 . S
H323 C334 0.950 . S
H324 C336 0.950 . S
H325 C337 0.950 . S
C326 H318 0.950 . S
C326 C327 1.386 . S
C326 C328 1.391 . S
C327 C326 1.386 . S
C327 C331 1.393 . S
C328 H320 0.950 . S
C328 C326 1.391 . S
C328 C329 1.400 . S
C329 C328 1.400 . S
C329 C330 1.398 . S
C329 C335 1.491 . S
C330 H321 0.950 . S
C330 C329 1.398 . S
C330 C331 1.391 . S
C331 H319 0.950 . S
C331 C327 1.393 . S
C331 C330 1.391 . S
C332 H322 0.950 . S
C332 C333 1.386 . S
C332 C334 1.391 . S
C333 C332 1.386 . S
C333 C337 1.393 . S
C334 H323 0.950 . S
C334 C332 1.391 . S
C334 C335 1.400 . S
C335 C329 1.491 . S
C335 C334 1.400 . S
C335 C336 1.398 . S
C336 H324 0.950 . S
C336 C335 1.398 . S
C336 C337 1.391 . S
C337 H325 0.950 . S
C337 C333 1.393 . S
C337 C336 1.391 . S
H338 C346 0.950 . S
H339 C351 0.950 . S
H340 C348 0.950 . S
H341 C350 0.950 . S
H342 C352 0.950 . S
H343 C354 0.950 . S
H344 C356 0.950 . S
H345 C357 0.950 . S
C346 H338 0.950 . S
C346 C347 1.386 . S
C346 C348 1.391 . S
C347 C346 1.386 . S
C347 C351 1.393 . S
C348 H340 0.950 . S
C348 C346 1.391 . S
C348 C349 1.400 . S
C349 C348 1.400 . S
C349 C350 1.398 . S
C349 C355 1.491 1_556 S
C350 H341 0.950 . S
C350 C349 1.398 . S
C350 C351 1.391 . S
C351 H339 0.950 . S
C351 C347 1.393 . S
C351 C350 1.391 . S
C352 H342 0.950 . S
C352 C353 1.386 . S
C352 C354 1.391 . S
C353 C352 1.386 . S
C353 C357 1.393 . S
C354 H343 0.950 . S
C354 C352 1.391 . S
C354 C355 1.400 . S
C355 C349 1.491 1_554 S
C355 C354 1.400 . S
C355 C356 1.398 . S
C356 H344 0.950 . S
C356 C355 1.398 . S
C356 C357 1.391 . S
C357 H345 0.950 . S
C357 C353 1.393 . S
C357 C356 1.391 . S
H358 C366 0.950 . S
H359 C371 0.950 . S
H360 C368 0.950 . S
H361 C370 0.950 . S
H362 C372 0.950 . S
H363 C374 0.950 . S
H364 C376 0.950 . S
H365 C377 0.950 . S
C366 H358 0.950 . S
C366 C367 1.386 . S
C366 C368 1.391 . S
C367 C366 1.386 . S
C367 C371 1.393 . S
C368 H360 0.950 . S
C368 C366 1.391 . S
C368 C369 1.400 . S
C369 C368 1.400 . S
C369 C370 1.398 . S
C369 C375 1.491 . S
C370 H361 0.950 . S
C370 C369 1.398 . S
C370 C371 1.391 . S
C371 H359 0.950 . S
C371 C367 1.393 . S
C371 C370 1.391 . S
C372 H362 0.950 . S
C372 C373 1.386 . S
C372 C374 1.391 . S
C373 C372 1.386 . S
C373 C377 1.393 . S
C374 H363 0.950 . S
C374 C372 1.391 . S
C374 C375 1.400 . S
C375 C369 1.491 . S
C375 C374 1.400 . S
C375 C376 1.398 . S
C376 H364 0.950 . S
C376 C375 1.398 . S
C376 C377 1.391 . S
C377 H365 0.950 . S
C377 C373 1.393 . S
C377 C376 1.391 . S
H378 C386 0.950 . S
H379 C391 0.950 . S
H380 C388 0.950 . S
H381 C390 0.950 . S
H382 C392 0.950 . S
H383 C394 0.950 . S
H384 C396 0.950 . S
H385 C397 0.950 . S
C386 H378 0.950 . S
C386 C387 1.386 . S
C386 C388 1.391 . S
C387 C386 1.386 . S
C387 C391 1.393 . S
C388 H380 0.950 . S
C388 C386 1.391 . S
C388 C389 1.400 . S
C389 C388 1.400 . S
C389 C390 1.398 . S
C389 C395 1.491 . S
C390 H381 0.950 . S
C390 C389 1.398 . S
C390 C391 1.391 . S
C391 H379 0.950 . S
C391 C387 1.393 . S
C391 C390 1.391 . S
C392 H382 0.950 . S
C392 C393 1.386 . S
C392 C394 1.391 . S
C393 C392 1.386 . S
C393 C397 1.393 . S
C394 H383 0.950 . S
C394 C392 1.391 . S
C394 C395 1.400 . S
C395 C389 1.491 . S
C395 C394 1.400 . S
C395 C396 1.398 . S
C396 H384 0.950 . S
C396 C395 1.398 . S
C396 C397 1.391 . S
C397 H385 0.950 . S
C397 C393 1.393 . S
C397 C396 1.391 . S
H398 C406 0.950 . S
H399 C411 0.950 . S
H400 C408 0.950 . S
H401 C410 0.950 . S
H402 C412 0.950 . S
H403 C414 0.950 . S
H404 C416 0.950 . S
H405 C417 0.950 . S
C406 H398 0.950 . S
C406 C407 1.386 . S
C406 C408 1.391 . S
C407 C406 1.386 . S
C407 C411 1.393 . S
C408 H400 0.950 . S
C408 C406 1.391 . S
C408 C409 1.400 . S
C409 C408 1.400 . S
C409 C410 1.398 . S
C409 C415 1.491 1_554 S
C410 H401 0.950 . S
C410 C409 1.398 . S
C410 C411 1.391 . S
C411 H399 0.950 . S
C411 C407 1.393 . S
C411 C410 1.391 . S
C412 H402 0.950 . S
C412 C413 1.386 . S
C412 C414 1.391 . S
C413 C412 1.386 . S
C413 C417 1.393 . S
C414 H403 0.950 . S
C414 C412 1.391 . S
C414 C415 1.400 . S
C415 C409 1.491 1_556 S
C415 C414 1.400 . S
C415 C416 1.398 . S
C416 H404 0.950 . S
C416 C415 1.398 . S
C416 C417 1.391 . S
C417 H405 0.950 . S
C417 C413 1.393 . S
C417 C416 1.391 . S
H418 C426 0.950 . S
H419 C431 0.950 . S
H420 C428 0.950 . S
H421 C430 0.950 . S
H422 C432 0.950 . S
H423 C434 0.950 . S
H424 C436 0.950 . S
H425 C437 0.950 . S
C426 H418 0.950 . S
C426 C427 1.386 . S
C426 C428 1.391 . S
C427 C426 1.386 . S
C427 C431 1.393 . S
C428 H420 0.950 . S
C428 C426 1.391 . S
C428 C429 1.400 . S
C429 C428 1.400 . S
C429 C430 1.398 . S
C429 C435 1.491 . S
C430 H421 0.950 . S
C430 C429 1.398 . S
C430 C431 1.391 . S
C431 H419 0.950 . S
C431 C427 1.393 . S
C431 C430 1.391 . S
C432 H422 0.950 . S
C432 C433 1.386 . S
C432 C434 1.391 . S
C433 C432 1.386 . S
C433 C437 1.393 . S
C434 H423 0.950 . S
C434 C432 1.391 . S
C434 C435 1.400 . S
C435 C429 1.491 . S
C435 C434 1.400 . S
C435 C436 1.398 . S
C436 H424 0.950 . S
C436 C435 1.398 . S
C436 C437 1.391 . S
C437 H425 0.950 . S
C437 C433 1.393 . S
C437 C436 1.391 . S
H438 C446 0.950 . S
H439 C451 0.950 . S
H440 C448 0.950 . S
H441 C450 0.950 . S
H442 C452 0.950 . S
H443 C454 0.950 . S
H444 C456 0.950 . S
H445 C457 0.950 . S
C446 H438 0.950 . S
C446 C447 1.386 . S
C446 C448 1.391 . S
C447 C446 1.386 . S
C447 C451 1.393 . S
C448 H440 0.950 . S
C448 C446 1.391 . S
C448 C449 1.400 . S
C449 C448 1.400 . S
C449 C450 1.398 . S
C449 C455 1.491 1_655 S
C450 H441 0.950 . S
C450 C449 1.398 . S
C450 C451 1.391 . S
C451 H439 0.950 . S
C451 C447 1.393 . S
C451 C450 1.391 . S
C452 H442 0.950 . S
C452 C453 1.386 . S
C452 C454 1.391 . S
C453 C452 1.386 . S
C453 C457 1.393 . S
C454 H443 0.950 . S
C454 C452 1.391 . S
C454 C455 1.400 . S
C455 C449 1.491 1_455 S
C455 C454 1.400 . S
C455 C456 1.398 . S
C456 H444 0.950 . S
C456 C455 1.398 . S
C456 C457 1.391 . S
C457 H445 0.950 . S
C457 C453 1.393 . S
C457 C456 1.391 . S
H458 C466 0.950 . S
H459 C471 0.950 . S
H460 C468 0.950 . S
H461 C470 0.950 . S
H462 C472 0.950 . S
H463 C474 0.950 . S
H464 C476 0.950 . S
H465 C477 0.950 . S
C466 H458 0.950 . S
C466 C467 1.386 . S
C466 C468 1.391 . S
C467 C466 1.386 . S
C467 C471 1.393 . S
C468 H460 0.950 . S
C468 C466 1.391 . S
C468 C469 1.400 . S
C469 C468 1.400 . S
C469 C470 1.398 . S
C469 C475 1.491 1_545 S
C470 H461 0.950 . S
C470 C469 1.398 . S
C470 C471 1.391 . S
C471 H459 0.950 . S
C471 C467 1.393 . S
C471 C470 1.391 . S
C472 H462 0.950 . S
C472 C473 1.386 . S
C472 C474 1.391 . S
C473 C472 1.386 . S
C473 C477 1.393 . S
C474 H463 0.950 . S
C474 C472 1.391 . S
C474 C475 1.400 . S
C475 C469 1.491 1_565 S
C475 C474 1.400 . S
C475 C476 1.398 . S
C476 H464 0.950 . S
C476 C475 1.398 . S
C476 C477 1.391 . S
C477 H465 0.950 . S
C477 C473 1.393 . S
C477 C476 1.391 . S
H478 C486 0.950 . S
H479 C491 0.950 . S
H480 C488 0.950 . S
H481 C490 0.950 . S
H482 C492 0.950 . S
H483 C494 0.950 . S
H484 C496 0.950 . S
H485 C497 0.950 . S
C486 H478 0.950 . S
C486 C487 1.386 . S
C486 C488 1.391 . S
C487 C486 1.386 . S
C487 C491 1.393 . S
C488 H480 0.950 . S
C488 C486 1.391 . S
C488 C489 1.400 . S
C489 C488 1.400 . S
C489 C490 1.398 . S
C489 C495 1.491 . S
C490 H481 0.950 . S
C490 C489 1.398 . S
C490 C491 1.391 . S
C491 H479 0.950 . S
C491 C487 1.393 . S
C491 C490 1.391 . S
C492 H482 0.950 . S
C492 C493 1.386 . S
C492 C494 1.391 . S
C493 C492 1.386 . S
C493 C497 1.393 . S
C494 H483 0.950 . S
C494 C492 1.391 . S
C494 C495 1.400 . S
C495 C489 1.491 . S
C495 C494 1.400 . S
C495 C496 1.398 . S
C496 H484 0.950 . S
C496 C495 1.398 . S
C496 C497 1.391 . S
C497 H485 0.950 . S
C497 C493 1.393 . S
C497 C496 1.391 . S
C207 C8 0.798 . S
C213 C94 0.762 . S
C227 C41 0.785 . S
C233 C127 0.776 . S
C247 C160 0.771 . S
C253 C74 0.789 . S
C267 C193 0.799 . S
C273 C107 0.783 . S
C287 C140 0.797 . S
C293 C28 0.777 . S
C307 C61 0.808 . S
C313 C173 0.769 . S
C327 N14 1.495 . S
C333 N5 1.500 . S
C347 N38 1.504 . S
C353 N47 1.500 . S
C367 N80 1.500 . S
C373 N71 1.503 . S
C387 N113 1.499 . S
C393 N104 1.504 . S
C407 N146 1.492 . S
C413 N137 1.497 . S
C427 N170 1.503 . S
C433 N179 1.499 . S
C447 C116 1.186 . S
C453 C17 1.187 . S
C467 C50 1.190 . S
C473 C149 1.191 . S
C487 C83 1.190 . S
C493 C182 1.185 . S
