# Generated by pormake.
# Topology wju, (5)-cn, num edge types: 1
# Building blocks:
#     Node 0, Type 0, BuildingBlock: XOMCOT_clean_sbu_1, # of connection points: 5
#     Node 1, Type 0, BuildingBlock: XOMCOT_clean_sbu_1, # of connection points: 5
#     Node 2, Type 0, BuildingBlock: XOMCOT_clean_sbu_1, # of connection points: 5
#     Node 3, Type 0, BuildingBlock: XOMCOT_clean_sbu_1, # of connection points: 5
#     Node 4, Type 0, BuildingBlock: XOMCOT_clean_sbu_1, # of connection points: 5
#     Node 5, Type 0, BuildingBlock: XOMCOT_clean_sbu_1, # of connection points: 5
#     Node 6, Type 0, BuildingBlock: XOMCOT_clean_sbu_1, # of connection points: 5
#     Node 7, Type 0, BuildingBlock: XOMCOT_clean_sbu_1, # of connection points: 5
#     Node 8, Type 0, BuildingBlock: XOMCOT_clean_sbu_1, # of connection points: 5
#     Node 9, Type 0, BuildingBlock: XOMCOT_clean_sbu_1, # of connection points: 5
#     Node 10, Type 0, BuildingBlock: XOMCOT_clean_sbu_1, # of connection points: 5
#     Node 11, Type 0, BuildingBlock: XOMCOT_clean_sbu_1, # of connection points: 5
#     Edge 12, Type (0, 0), BuildingBlock: EZIPEK_clean_linker_0, # of connection points: 2
#     Edge 13, Type (0, 0), BuildingBlock: EZIPEK_clean_linker_0, # of connection points: 2
#     Edge 14, Type (0, 0), BuildingBlock: EZIPEK_clean_linker_0, # of connection points: 2
#     Edge 15, Type (0, 0), BuildingBlock: EZIPEK_clean_linker_0, # of connection points: 2
#     Edge 16, Type (0, 0), BuildingBlock: EZIPEK_clean_linker_0, # of connection points: 2
#     Edge 17, Type (0, 0), BuildingBlock: EZIPEK_clean_linker_0, # of connection points: 2
#     Edge 18, Type (0, 0), BuildingBlock: EZIPEK_clean_linker_0, # of connection points: 2
#     Edge 19, Type (0, 0), BuildingBlock: EZIPEK_clean_linker_0, # of connection points: 2
#     Edge 20, Type (0, 0), BuildingBlock: EZIPEK_clean_linker_0, # of connection points: 2
#     Edge 21, Type (0, 0), BuildingBlock: EZIPEK_clean_linker_0, # of connection points: 2
#     Edge 22, Type (0, 0), BuildingBlock: EZIPEK_clean_linker_0, # of connection points: 2
#     Edge 23, Type (0, 0), BuildingBlock: EZIPEK_clean_linker_0, # of connection points: 2
#     Edge 24, Type (0, 0), BuildingBlock: EZIPEK_clean_linker_0, # of connection points: 2
#     Edge 25, Type (0, 0), BuildingBlock: EZIPEK_clean_linker_0, # of connection points: 2
#     Edge 26, Type (0, 0), BuildingBlock: EZIPEK_clean_linker_0, # of connection points: 2
#     Edge 27, Type (0, 0), BuildingBlock: EZIPEK_clean_linker_0, # of connection points: 2
#     Edge 28, Type (0, 0), BuildingBlock: EZIPEK_clean_linker_0, # of connection points: 2
#     Edge 29, Type (0, 0), BuildingBlock: EZIPEK_clean_linker_0, # of connection points: 2
#     Edge 30, Type (0, 0), BuildingBlock: EZIPEK_clean_linker_0, # of connection points: 2
#     Edge 31, Type (0, 0), BuildingBlock: EZIPEK_clean_linker_0, # of connection points: 2
#     Edge 32, Type (0, 0), BuildingBlock: EZIPEK_clean_linker_0, # of connection points: 2
#     Edge 33, Type (0, 0), BuildingBlock: EZIPEK_clean_linker_0, # of connection points: 2
#     Edge 34, Type (0, 0), BuildingBlock: EZIPEK_clean_linker_0, # of connection points: 2
#     Edge 35, Type (0, 0), BuildingBlock: EZIPEK_clean_linker_0, # of connection points: 2
#     Edge 36, Type (0, 0), BuildingBlock: EZIPEK_clean_linker_0, # of connection points: 2
#     Edge 37, Type (0, 0), BuildingBlock: EZIPEK_clean_linker_0, # of connection points: 2
#     Edge 38, Type (0, 0), BuildingBlock: EZIPEK_clean_linker_0, # of connection points: 2
#     Edge 39, Type (0, 0), BuildingBlock: EZIPEK_clean_linker_0, # of connection points: 2
#     Edge 40, Type (0, 0), BuildingBlock: EZIPEK_clean_linker_0, # of connection points: 2
#     Edge 41, Type (0, 0), BuildingBlock: EZIPEK_clean_linker_0, # of connection points: 2
# Relax obj value: 0.079
# Max RMSD: 0.116
# Mean RMSD: 0.116
data_MOF--net-wju--node1-XOMCOT_clean_sbu_1--edge1-EZIPEK_clean_linker_0
_symmetry_space_group_name_H-M    P1
_symmetry_Int_Tables_number       1
_symmetry_cell_setting            triclinic
loop_
_symmetry_equiv_pos_as_xyz
'x, y, z'
_cell_length_a     20.924125
_cell_length_b     20.918081
_cell_length_c     79.82493
_cell_angle_alpha  89.916753
_cell_angle_beta   90.02059
_cell_angle_gamma 120.11478
loop_
_atom_site_label
_atom_site_type_symbol
_atom_site_fract_x
_atom_site_fract_y
_atom_site_fract_z
_atom_type_partial_charge
C0 C 0.19225 0.03879 0.136 0.0
C1 C 0.19835 0.05083 0.15294 0.0
N2 N 0.26969 0.09713 0.15648 0.0
N3 N 0.25952 0.077 0.1287 0.0
C4 C 0.30581 0.11188 0.14174 0.0
H5 H 0.14062 1.00805 0.12955 0.0
Co6 Co 0.27825 0.09107 0.10527 0.0
C7 C 0.39755 0.0539 0.09843 0.0
O8 O 0.42175 0.10584 0.08696 0.0
N9 N 0.2953 0.10509 0.08172 0.0
C10 C 0.33617 0.15244 0.05635 0.0
C11 C 0.33798 0.16817 0.07311 0.0
C12 C 0.26569 0.05234 0.06969 0.0
N13 N 0.29031 0.07947 0.05417 0.0
O14 O 0.18307 1.00313 0.10072 0.0
H15 H 0.36965 0.22227 0.07857 0.0
H16 H 0.22723 0.99462 0.0722 0.0
O17 O 0.33789 0.03859 0.10647 0.0
C18 C 0.14248 0.03093 0.09658 0.0
O19 O 0.17444 0.10316 0.09566 0.0
N20 N 0.36006 0.1834 0.1097 0.0
C21 C 0.44746 0.33456 0.11196 0.0
C22 C 0.4804 0.29056 0.11191 0.0
C23 C 0.43491 0.21368 0.11134 0.0
C24 C 0.3285 0.22615 0.11161 0.0
C25 C 0.37104 0.30174 0.11285 0.0
H26 H 0.46045 0.18024 0.11211 0.0
H27 H 0.26934 0.20142 0.11171 0.0
H28 H 0.3642 0.15074 0.14053 0.0
H29 H 0.15335 0.03105 0.16185 0.0
H30 H 0.36595 0.19172 0.04645 0.0
H31 H 0.53994 0.31527 0.11183 0.0
H32 H 0.34435 0.33471 0.11339 0.0
C33 C 0.08015 0.31378 0.45808 0.0
C34 C 0.05964 0.30755 0.47459 0.0
N35 N 0.11467 0.31085 0.48392 0.0
N36 N 0.14852 0.32265 0.45699 0.0
C37 C 0.16798 0.31978 0.47301 0.0
H38 H 0.04696 0.31106 0.44743 0.0
Co39 Co 0.19559 0.3299 0.4365 0.0
C40 C 0.35059 0.45425 0.44805 0.0
O41 O 0.33758 0.50469 0.44191 0.0
N42 N 0.24306 0.33613 0.41568 0.0
C43 C 0.31628 0.38359 0.39338 0.0
C44 C 0.30141 0.39748 0.40921 0.0
C45 C 0.22265 0.2858 0.40317 0.0
N46 N 0.26646 0.31353 0.38951 0.0
O47 O 0.17834 0.22943 0.44045 0.0
H48 H 0.32933 0.45091 0.415 0.0
H49 H 0.17521 0.23109 0.40371 0.0
O50 O 0.29962 0.38494 0.44745 0.0
C51 C 0.10964 0.18844 0.43626 0.0
O52 O 0.07682 0.22193 0.42958 0.0
N53 N 0.19171 0.41637 0.43144 0.0
C54 C 0.10063 0.47688 0.42715 0.0
C55 C 0.14844 0.49743 0.44095 0.0
C56 C 0.19226 0.46468 0.44313 0.0
C57 C 0.15175 0.40377 0.41704 0.0
C58 C 0.10589 0.43304 0.41471 0.0
H59 H 0.21823 0.47039 0.45519 0.0
H60 H 0.14549 0.36177 0.40831 0.0
H61 H 0.219 0.3221 0.47658 0.0
H62 H 1.00734 0.29852 0.47938 0.0
H63 H 0.35791 0.42312 0.38493 0.0
H64 H 0.14532 0.53114 0.45084 0.0
H65 H 0.06955 0.4158 0.40392 0.0
C66 C 0.97543 0.15723 0.79803 0.0
C67 C 0.96659 0.15035 0.81504 0.0
N68 N 0.95195 0.2023 0.8205 0.0
N69 N 0.96855 0.21462 0.79263 0.0
C70 C 0.95316 0.24066 0.80672 0.0
H71 H 0.97672 0.11663 0.78998 0.0
Co72 Co 0.95116 0.2249 0.76994 0.0
C73 C 0.97934 0.38036 0.76555 0.0
O74 O 0.92124 0.3514 0.7557 0.0
N75 N 0.93154 0.23249 0.74674 0.0
C76 C 0.87377 0.21538 0.72217 0.0
C77 C 0.86469 0.20359 0.73918 0.0
C78 C 0.98035 0.26126 0.73386 0.0
N79 N 0.94646 0.25144 0.71888 0.0
O80 O 0.04218 0.22475 0.76399 0.0
H81 H 0.812 0.17377 0.74544 0.0
H82 H 0.03957 0.28666 0.73533 0.0
O83 O 0.99966 0.3373 0.7724 0.0
C84 C 0.02087 0.15969 0.75808 0.0
O85 O 0.95074 0.11766 0.75432 0.0
N86 N 0.85797 0.20562 0.77609 0.0
C87 C 0.71043 0.12168 0.78457 0.0
C88 C 0.74509 0.19927 0.78451 0.0
C89 C 0.82086 0.24108 0.7807 0.0
C90 C 0.82471 0.13062 0.77702 0.0
C91 C 0.75193 0.08789 0.78158 0.0
H92 H 0.84844 0.30049 0.78145 0.0
H93 H 0.85536 0.10331 0.77412 0.0
H94 H 0.93503 0.28079 0.80668 0.0
H95 H 0.96337 0.10581 0.82261 0.0
H96 H 0.83046 0.19626 0.71284 0.0
H97 H 0.71385 0.22663 0.78706 0.0
H98 H 0.72687 0.02822 0.78171 0.0
C99 C 0.71787 0.79934 0.12779 0.0
C100 C 0.7232 0.79217 0.14476 0.0
N101 N 0.71654 0.84561 0.15243 0.0
N102 N 0.70787 0.85717 0.1246 0.0
C103 C 0.70747 0.88471 0.13999 0.0
H104 H 0.72091 0.76422 0.11828 0.0
Co105 Co 0.69618 0.88125 0.10224 0.0
C106 C 0.57846 0.9234 0.1108 0.0
O107 O 0.5253 0.85614 0.10764 0.0
N108 N 0.68549 0.906 0.07952 0.0
C109 C 0.63535 0.92343 0.05652 0.0
C110 C 0.62328 0.89996 0.07284 0.0
C111 C 0.73385 0.93033 0.06646 0.0
N112 N 0.7048 0.9422 0.0524 0.0
O113 O 0.79644 0.96447 0.1031 0.0
H114 H 0.57113 0.87834 0.07914 0.0
H115 H 0.78901 0.93851 0.06707 0.0
O116 O 0.64691 0.93988 0.10983 0.0
C117 C 0.8332 0.93231 0.09914 0.0
O118 O 0.79615 0.86252 0.09466 0.0
N119 N 0.60801 0.79074 0.10077 0.0
C120 C 0.5409 0.63853 0.10331 0.0
C121 C 0.52637 0.67817 0.11532 0.0
C122 C 0.56302 0.755 0.11417 0.0
C123 C 0.61517 0.75097 0.08811 0.0
C124 C 0.58293 0.6751 0.08924 0.0
H125 H 0.56247 0.7856 0.12502 0.0
H126 H 0.65507 0.77792 0.07824 0.0
H127 H 0.70065 0.93206 0.14205 0.0
H128 H 0.73168 0.7511 0.15103 0.0
H129 H 0.59556 0.92533 0.04815 0.0
H130 H 0.49436 0.65097 0.12642 0.0
H131 H 0.59573 0.64592 0.07982 0.0
C132 C 0.91856 0.71517 0.46421 0.0
C133 C 0.93446 0.71403 0.48087 0.0
N134 N 0.88694 0.72532 0.48992 0.0
N135 N 0.85983 0.72521 0.46261 0.0
C136 C 0.8428 0.73296 0.47861 0.0
H137 H 0.94828 0.70906 0.45384 0.0
Co138 Co 0.82201 0.73171 0.44138 0.0
C139 C 0.66962 0.62431 0.45993 0.0
O140 O 0.6966 0.60793 0.473 0.0
N141 N 0.78538 0.73883 0.41996 0.0
C142 C 0.71211 0.70686 0.39753 0.0
C143 C 0.71694 0.69155 0.41401 0.0
C144 C 0.82122 0.78273 0.4066 0.0
N145 N 0.77754 0.76382 0.39284 0.0
O146 O 0.83794 0.82929 0.44736 0.0
H147 H 0.67347 0.64573 0.42076 0.0
H148 H 0.87906 0.82486 0.40667 0.0
O149 O 0.71384 0.67138 0.44901 0.0
C150 C 0.90753 0.87254 0.44448 0.0
O151 O 0.94621 0.84277 0.43924 0.0
N152 N 0.82231 0.64668 0.43436 0.0
C153 C 0.87342 0.54993 0.42524 0.0
C154 C 0.82402 0.53414 0.43882 0.0
C155 C 0.79911 0.58285 0.4431 0.0
C156 C 0.87088 0.66396 0.42151 0.0
C157 C 0.89662 0.61726 0.41679 0.0
H158 H 0.76709 0.57238 0.45435 0.0
H159 H 0.89633 0.71814 0.41589 0.0
H160 H 0.79922 0.74416 0.48193 0.0
H161 H 0.97791 0.70611 0.486 0.0
H162 H 0.6651 0.67641 0.38934 0.0
H163 H 0.8085 0.48853 0.44725 0.0
H164 H 0.94 0.63895 0.40753 0.0
C165 C 0.20759 0.95635 0.79681 0.0
C166 C 0.20991 0.96029 0.81393 0.0
N167 N 0.17262 0.89116 0.81999 0.0
N168 N 0.16838 0.88506 0.79192 0.0
C169 C 0.14765 0.84607 0.80644 0.0
H170 H 0.23485 1.00286 0.78836 0.0
Co171 Co 0.16817 0.86375 0.76913 0.0
C172 C 0.12214 0.70353 0.76629 0.0
O173 O 0.17975 0.72721 0.75639 0.0
N174 N 0.17086 0.84632 0.74551 0.0
C175 C 0.20825 0.84358 0.71939 0.0
C176 C 0.23016 0.86279 0.73568 0.0
C177 C 0.11329 0.81675 0.73461 0.0
N178 N 0.13484 0.81424 0.71875 0.0
O179 O 0.08329 0.87783 0.76584 0.0
H180 H 0.28653 0.88612 0.73977 0.0
H181 H 0.05653 0.79693 0.73821 0.0
O182 O 0.10761 0.7513 0.77297 0.0
C183 C 0.11232 0.94559 0.761 0.0
O184 O 0.18261 0.98147 0.75708 0.0
N185 N 0.25719 0.86793 0.77289 0.0
C186 C 0.40224 0.92598 0.78282 0.0
C187 C 0.34937 0.85398 0.78763 0.0
C188 C 0.27553 0.82639 0.78289 0.0
C189 C 0.3085 0.93862 0.76882 0.0
C190 C 0.38106 0.96846 0.77352 0.0
H191 H 0.23361 0.77405 0.78786 0.0
H192 H 0.29253 0.97297 0.76206 0.0
H193 H 0.1177 0.78641 0.80713 0.0
H194 H 0.23824 1.00995 0.82143 0.0
H195 H 0.24328 0.84974 0.70881 0.0
H196 H 0.36471 0.82071 0.79516 0.0
H197 H 0.42076 0.02459 0.76981 0.0
C198 C 0.84026 0.75838 0.5854 0.0
C199 C 0.83689 0.7642 0.56833 0.0
N200 N 0.87458 0.73492 0.56126 0.0
N201 N 0.8801 0.7257 0.58918 0.0
C202 C 0.90054 0.71193 0.5741 0.0
H203 H 0.81422 0.77597 0.59455 0.0
Co204 Co 0.89171 0.70608 0.61163 0.0
C205 C 0.90943 0.57229 0.60994 0.0
O206 O 0.84588 0.5382 0.61781 0.0
N207 N 0.90373 0.68753 0.63487 0.0
C208 C 0.88549 0.6433 0.66109 0.0
C209 C 0.855 0.63435 0.64541 0.0
C210 C 0.96439 0.72689 0.64462 0.0
N211 N 0.95402 0.7017 0.66054 0.0
O212 O 0.98436 0.79968 0.61202 0.0
H213 H 0.80022 0.59074 0.64215 0.0
H214 H 1.01552 0.77336 0.64026 0.0
O215 O 0.9358 0.64066 0.60544 0.0
C216 C 0.96093 0.84248 0.61741 0.0
O217 O 0.89335 0.81207 0.62322 0.0
N218 N 0.79474 0.62936 0.61108 0.0
C219 C 0.64637 0.57418 0.60432 0.0
C220 C 0.68638 0.54833 0.59527 0.0
C221 C 0.76194 0.57888 0.59848 0.0
C222 C 0.75495 0.65222 0.62023 0.0
C223 C 0.68133 0.62612 0.61696 0.0
H224 H 0.79489 0.56651 0.5901 0.0
H225 H 0.78172 0.69559 0.62938 0.0
H226 H 0.93292 0.68525 0.57251 0.0
H227 H 0.80814 0.78715 0.56158 0.0
H228 H 0.85928 0.61001 0.67208 0.0
H229 H 0.66063 0.50885 0.58521 0.0
H230 H 0.65221 0.64794 0.624 0.0
C231 C 0.12363 0.7969 0.91526 0.0
C232 C 0.10941 0.78973 0.89836 0.0
N233 N 0.16454 0.8487 0.89067 0.0
N234 N 0.18825 0.85936 0.91831 0.0
C235 C 0.21109 0.89098 0.90299 0.0
H236 H 0.08776 0.76 0.9249 0.0
Co237 Co 0.22328 0.88992 0.94045 0.0
C238 C 0.37722 0.93701 0.92293 0.0
O239 O 0.35259 0.90192 0.90869 0.0
N240 N 0.25829 0.92152 0.96268 0.0
C241 C 0.33099 0.9525 0.98517 0.0
C242 C 0.32141 0.92819 0.96896 0.0
C243 C 0.22967 0.94106 0.97565 0.0
N244 N 0.27331 0.96042 0.98942 0.0
O245 O 0.21034 0.97484 0.93726 0.0
H246 H 0.35841 0.91539 0.96236 0.0
H247 H 0.17773 0.94046 0.97517 0.0
O248 O 0.33171 0.93703 0.93382 0.0
C249 C 0.14102 0.94369 0.94114 0.0
O250 O 0.10765 0.87492 0.94643 0.0
N251 N 0.21708 0.79913 0.94451 0.0
C252 C 0.13158 0.64665 0.94387 0.0
C253 C 0.19191 0.68296 0.93299 0.0
C254 C 0.2327 0.76008 0.93313 0.0
C255 C 0.16524 0.76309 0.95664 0.0
C256 C 0.12109 0.68691 0.95639 0.0
H257 H 0.26967 0.78748 0.92286 0.0
H258 H 0.14984 0.7933 0.96509 0.0
H259 H 0.25969 0.94444 0.90091 0.0
H260 H 0.06161 0.74546 0.89219 0.0
H261 H 0.3763 0.96249 0.99338 0.0
H262 H 0.20134 0.65278 0.92321 0.0
H263 H 0.07509 0.6603 0.96504 0.0
C264 C 0.25136 0.10073 0.24797 0.0
C265 C 0.25002 0.09121 0.23104 0.0
N266 N 0.29083 0.15791 0.22396 0.0
N267 N 0.2918 0.17336 0.2517 0.0
C268 C 0.31606 0.20718 0.23668 0.0
H269 H 0.22712 0.05656 0.25705 0.0
Co270 Co 0.31236 0.20083 0.2741 0.0
C271 C 0.42529 0.36203 0.27457 0.0
O272 O 0.46351 0.34221 0.28406 0.0
N273 N 0.33121 0.2241 0.29764 0.0
C274 C 0.37907 0.24395 0.32342 0.0
C275 C 0.38846 0.23118 0.30703 0.0
C276 C 0.28685 0.2312 0.30903 0.0
N277 N 0.31491 0.24345 0.32472 0.0
O278 O 0.21295 0.18471 0.27639 0.0
H279 H 0.43529 0.22793 0.30245 0.0
H280 H 0.23428 0.22657 0.30607 0.0
O281 O 0.36149 0.31191 0.26891 0.0
C282 C 0.17607 0.11709 0.28136 0.0
O283 O 0.21336 0.08614 0.28681 0.0
N284 N 0.39893 0.19955 0.27126 0.0
C285 C 0.49921 0.15293 0.26596 0.0
C286 C 0.51193 0.21967 0.25893 0.0
C287 C 0.45837 0.24026 0.26104 0.0
C288 C 0.38514 0.13324 0.2774 0.0
C289 C 0.43392 0.10852 0.27475 0.0
H290 H 0.46431 0.28777 0.25434 0.0
H291 H 0.33526 0.09883 0.28434 0.0
H292 H 0.35391 0.26547 0.23509 0.0
H293 H 0.22409 0.03902 0.22442 0.0
H294 H 0.41576 0.25134 0.33374 0.0
H295 H 0.5614 0.25414 0.25173 0.0
H296 H 0.42173 0.05571 0.27999 0.0
C297 C 0.1156 0.20947 0.57696 0.0
C298 C 0.11751 0.20878 0.55983 0.0
N299 N 0.09932 0.25793 0.55414 0.0
N300 N 0.09545 0.25823 0.58217 0.0
C301 C 0.08595 0.28737 0.56786 0.0
H302 H 0.13173 0.17881 0.58513 0.0
Co303 Co 0.10418 0.28432 0.60475 0.0
C304 C 0.05352 0.39488 0.6091 0.0
O305 O 0.10723 0.42752 0.62003 0.0
N306 N 0.11552 0.3088 0.62803 0.0
C307 C 0.16375 0.35307 0.65325 0.0
C308 C 0.17914 0.35086 0.63658 0.0
C309 C 0.06232 0.28503 0.63999 0.0
N310 N 0.09038 0.31171 0.65532 0.0
O311 O 0.0201 0.18679 0.6097 0.0
H312 H 0.23386 0.3782 0.63122 0.0
H313 H 1.00419 0.24816 0.63757 0.0
O314 O 0.04313 0.33539 0.60168 0.0
C315 C 0.04901 0.14852 0.61483 0.0
O316 O 0.11975 0.18339 0.61841 0.0
N317 N 0.19246 0.36881 0.59949 0.0
C318 C 0.34096 0.46395 0.59395 0.0
C319 C 0.29111 0.48992 0.5925 0.0
C320 C 0.21551 0.44001 0.59476 0.0
C321 C 0.24051 0.34292 0.59954 0.0
C322 C 0.31455 0.38902 0.59651 0.0
H323 H 0.17723 0.45949 0.59303 0.0
H324 H 0.22138 0.28594 0.60258 0.0
H325 H 0.0736 0.33169 0.56748 0.0
H326 H 0.13349 0.17661 0.5521 0.0
H327 H 0.20331 0.38152 0.66316 0.0
H328 H 0.31056 0.54789 0.59025 0.0
H329 H 0.3519 0.36742 0.59757 0.0
C330 C 0.92297 0.08797 0.90748 0.0
C331 C 0.9311 0.10401 0.89073 0.0
N332 N 0.8843 0.12748 0.8865 0.0
N333 N 0.87006 0.09973 0.91399 0.0
C334 C 0.84793 0.12472 0.90073 0.0
H335 H 0.95903 0.07536 0.91452 0.0
Co336 Co 0.8518 0.10168 0.93731 0.0
C337 C 0.68611 0.04263 0.9408 0.0
O338 O 0.69661 0.07226 0.95575 0.0
N339 N 0.8365 0.1049 0.96093 0.0
C340 C 0.83686 0.14623 0.9867 0.0
C341 C 0.85409 0.16564 0.97021 0.0
C342 C 0.81151 0.04948 0.97245 0.0
N343 N 0.81064 0.07322 0.98821 0.0
O344 O 0.86039 0.01433 0.94063 0.0
H345 H 0.87956 0.22147 0.96554 0.0
H346 H 0.79435 0.99272 0.96939 0.0
O347 O 0.74129 0.0468 0.93261 0.0
C348 C 0.92791 0.04205 0.94546 0.0
O349 O 0.96523 0.11352 0.94837 0.0
N350 N 0.85971 0.19298 0.93429 0.0
C351 C 0.91861 0.34372 0.93501 0.0
C352 C 0.84211 0.29717 0.93655 0.0
C353 C 0.81311 0.22062 0.93604 0.0
C354 C 0.9334 0.23871 0.93177 0.0
C355 C 0.96389 0.31418 0.93189 0.0
H356 H 0.75504 0.18526 0.93816 0.0
H357 H 0.96965 0.21624 0.93045 0.0
H358 H 0.81084 0.14633 0.9017 0.0
H359 H 0.97214 0.1038 0.88251 0.0
H360 H 0.84475 0.18337 0.99694 0.0
H361 H 0.80627 0.31959 0.93896 0.0
H362 H 0.0232 0.34933 0.93056 0.0
C363 C 0.76607 0.93582 0.24753 0.0
C364 C 0.76492 0.94272 0.23047 0.0
N365 N 0.74152 0.87603 0.22363 0.0
N366 N 0.74357 0.86494 0.25167 0.0
C367 C 0.72891 0.82939 0.23669 0.0
H368 H 0.78108 0.97992 0.25646 0.0
Co369 Co 0.73237 0.83695 0.27463 0.0
C370 C 0.59595 0.68249 0.27163 0.0
O371 O 0.55475 0.70729 0.2779 0.0
N372 N 0.72109 0.81072 0.29818 0.0
C373 C 0.67089 0.77933 0.32376 0.0
C374 C 0.65809 0.78601 0.30722 0.0
C375 C 0.77204 0.82021 0.30998 0.0
N376 N 0.74247 0.80069 0.32551 0.0
O377 O 0.82392 0.83453 0.27341 0.0
H378 H 0.6062 0.77744 0.30251 0.0
H379 H 0.83003 0.84406 0.30755 0.0
O380 O 0.66576 0.72717 0.26917 0.0
C381 C 0.87067 0.90306 0.27636 0.0
O382 O 0.84526 0.94672 0.2806 0.0
N383 N 0.65706 0.85837 0.2759 0.0
C384 C 0.60851 0.95855 0.27209 0.0
C385 C 0.57586 0.89279 0.26274 0.0
C386 C 0.60387 0.84478 0.26423 0.0
C387 C 0.68497 0.91968 0.28576 0.0
C388 C 0.6635 0.97139 0.28366 0.0
H389 H 0.58791 0.80118 0.25511 0.0
H390 H 0.73088 0.93359 0.29404 0.0
H391 H 0.70838 0.77079 0.23538 0.0
H392 H 0.77965 0.99283 0.22356 0.0
H393 H 0.63135 0.76294 0.3339 0.0
H394 H 0.53399 0.88211 0.25343 0.0
H395 H 0.69151 0.0224 0.29073 0.0
C396 C 0.25409 0.07084 0.02438 0.0
C397 C 0.2719 0.0405 0.03832 0.0
C398 C 0.26273 0.94226 1.01999 0.0
C399 C 0.26193 0.98233 1.00578 0.0
N400 N 0.2689 0.09253 0.99454 0.0
N401 N 0.30265 0.95015 0.04862 0.0
C402 C 0.25989 0.04839 1.00795 0.0
C403 C 0.27775 0.97616 0.03602 0.0
N404 N 0.23069 0.12032 0.02688 0.0
N405 N 0.2494 0.87181 1.01807 0.0
H406 H 0.31797 0.97478 0.06032 0.0
H407 H 0.31508 0.90821 0.04688 0.0
H408 H 0.2365 0.84545 1.00645 0.0
H409 H 0.24322 0.83745 0.02816 0.0
H410 H 0.21193 0.14008 1.01717 0.0
H411 H 0.22182 0.13438 0.03885 0.0
H412 H 0.27432 0.14465 0.99571 0.0
H413 H 0.27883 0.08032 0.98251 0.0
C414 C 0.24742 0.31801 0.35924 0.0
C415 C 0.25756 0.28159 0.37307 0.0
C416 C 0.27504 0.20131 0.35369 0.0
C417 C 0.28248 0.24902 0.34025 0.0
N418 N 0.27778 0.35569 0.33033 0.0
N419 N 0.28301 0.18897 0.3837 0.0
C420 C 0.26767 0.30738 0.34294 0.0
C421 C 0.27047 0.2222 0.37039 0.0
N422 N 0.21876 0.36312 0.36187 0.0
N423 N 0.27222 0.136 0.35034 0.0
H424 H 0.28057 0.20345 0.39607 0.0
H425 H 0.30072 0.15074 0.38242 0.0
H426 H 0.27297 0.11885 0.3381 0.0
H427 H 0.26126 0.09601 0.35943 0.0
H428 H 0.20427 0.38684 0.35219 0.0
H429 H 0.20233 0.37016 0.37375 0.0
H430 H 0.27615 0.40414 0.33217 0.0
H431 H 0.29295 0.35032 0.31825 0.0
C432 C 0.99533 0.21353 0.69513 0.0
C433 C 0.97987 0.26576 0.70247 0.0
C434 C 0.02971 0.3449 0.67755 0.0
C435 C 0.05141 0.2956 0.67105 0.0
N436 N 0.06812 0.19109 0.67495 0.0
N437 N 0.9783 0.37939 0.70095 0.0
C438 C 0.03759 0.23194 0.68018 0.0
C439 C 0.99585 0.33112 0.69371 0.0
N440 N 0.96676 0.14502 0.70211 0.0
N441 N 0.04164 0.40447 0.66813 0.0
H442 H 0.94993 0.36782 0.7123 0.0
H443 H 0.99278 0.43107 0.69608 0.0
H444 H 0.0679 0.41595 0.65651 0.0
H445 H 0.02342 0.44083 0.67135 0.0
H446 H 0.96885 0.10157 0.69627 0.0
H447 H 0.93565 0.13003 0.71311 0.0
H448 H 0.06649 0.14835 0.68201 0.0
H449 H 0.10065 0.20432 0.6642 0.0
C450 C 0.83565 0.06103 1.01806 0.0
C451 C 0.78905 0.03207 1.00384 0.0
C452 C 0.69917 0.93055 1.02145 0.0
C453 C 0.73826 0.96868 0.03607 0.0
N454 N 0.83805 0.08049 0.0479 0.0
N455 N 0.66828 0.94464 0.99306 0.0
C456 C 0.80561 0.03645 0.03433 0.0
C457 C 0.71872 0.96761 1.00573 0.0
N458 N 0.90871 0.11163 1.01602 0.0
N459 N 0.64362 0.85883 0.02259 0.0
H460 H 0.67794 0.97383 0.98191 0.0
H461 H 0.61399 0.90157 0.99444 0.0
H462 H 0.63066 0.8294 0.03384 0.0
H463 H 0.61686 0.8268 1.01211 0.0
H464 H 0.94607 0.13054 0.02596 0.0
H465 H 0.93295 0.12751 1.0042 0.0
H466 H 0.88417 0.13327 0.04693 0.0
H467 H 0.81388 0.06808 0.05974 0.0
C468 C 0.7923 0.75091 0.34667 0.0
C469 C 0.77813 0.80725 0.3414 0.0
C470 C 0.78692 0.8493 0.3704 0.0
C471 C 0.79584 0.78983 0.37581 0.0
N472 N 0.82569 0.69594 0.36952 0.0
N473 N 0.78208 0.92154 0.34701 0.0
C474 C 0.8057 0.74516 0.36397 0.0
C475 C 0.78311 0.86085 0.35294 0.0
N476 N 0.78767 0.70014 0.33528 0.0
N477 N 0.7767 0.89098 0.38206 0.0
H478 H 0.77903 0.92997 0.33421 0.0
H479 H 0.79043 0.96581 0.35449 0.0
H480 H 0.77907 0.88277 0.39488 0.0
H481 H 0.76245 0.93072 0.37913 0.0
H482 H 0.78959 0.65286 0.33844 0.0
H483 H 0.77888 0.70419 0.32256 0.0
H484 H 0.83876 0.66456 0.36164 0.0
H485 H 0.83485 0.69112 0.3822 0.0
C486 C 0.08064 0.72129 0.69612 0.0
C487 C 0.08991 0.78629 0.70391 0.0
C488 C 1.01001 0.7958 0.68283 0.0
C489 C 1.00343 0.73293 0.67459 0.0
N490 N 0.0423 0.64364 0.67132 0.0
N491 N 0.08144 0.89631 0.70206 0.0
C492 C 0.0417 0.69786 0.68067 0.0
C493 C 0.05953 0.82667 0.69653 0.0
N494 N 0.10833 0.68169 0.70366 0.0
N495 N 0.96707 0.82446 0.67788 0.0
H496 H 0.11989 0.9211 0.71167 0.0
H497 H 0.06723 0.93169 0.69604 0.0
H498 H 0.93023 0.80283 0.66788 0.0
H499 H 0.96408 0.86587 0.68447 0.0
H500 H 0.09749 0.62994 0.69957 0.0
H501 H 0.13805 0.69828 0.71482 0.0
H502 H 0.07379 0.61924 0.67419 0.0
H503 H 1.01601 0.62787 0.65975 0.0
C504 C 0.55768 0.0147 0.09559 0.0
C505 C 0.55433 0.9797 0.11091 0.0
C506 C 0.45685 1.00601 0.11997 0.0
C507 C 0.44813 0.02402 0.10313 0.0
N508 N 0.48399 0.02624 0.07404 0.0
N509 N 0.4971 0.93871 0.13788 0.0
C510 C 0.49721 0.02348 0.0907 0.0
C511 C 0.50279 0.97456 0.12318 0.0
N512 N 0.6178 0.0381 0.08547 0.0
N513 N 0.42543 0.0222 0.13304 0.0
H514 H 0.53309 0.9195 0.14093 0.0
H515 H 0.45483 0.92534 0.14651 0.0
H516 H 0.39693 0.05067 0.13169 0.0
H517 H 0.43562 0.01547 0.14551 0.0
H518 H 0.62491 0.0682 0.07451 0.0
H519 H 0.66401 0.03508 0.08918 0.0
H520 H 0.51532 0.02013 0.06469 0.0
H521 H 0.43645 0.02433 0.06954 0.0
C522 C 0.47885 0.47238 0.44323 0.0
C523 C 0.42943 0.48232 0.45364 0.0
C524 C 0.53712 0.58752 0.4675 0.0
C525 C 0.58677 0.57842 0.45693 0.0
N526 N 0.60447 0.50405 0.43646 0.0
N527 N 0.41127 0.53883 0.47788 0.0
C528 C 0.55731 0.5185 0.44529 0.0
C529 C 0.4589 0.53682 0.46646 0.0
N530 N 0.45066 0.42033 0.43087 0.0
N531 N 0.56478 0.64659 0.47815 0.0
H532 H 0.35449 0.50153 0.47752 0.0
H533 H 0.42787 0.57221 0.48848 0.0
H534 H 0.62117 0.68449 0.47917 0.0
H535 H 0.53222 0.66154 0.48507 0.0
H536 H 0.48179 0.41735 0.42106 0.0
H537 H 0.39488 0.38044 0.43026 0.0
H538 H 0.58798 0.4561 0.42957 0.0
H539 H 0.66127 0.53899 0.43662 0.0
C540 C 0.04914 0.57969 0.75276 0.0
C541 C 0.07404 0.62041 0.76785 0.0
C542 C 0.03623 0.502 0.78264 0.0
C543 C 0.02144 0.46402 0.76701 0.0
N544 N 0.03571 0.47528 0.73702 0.0
N545 N 0.09757 0.62008 0.79736 0.0
C546 C 0.03424 0.50556 0.75205 0.0
C547 C 0.06918 0.58141 0.7829 0.0
N548 N 0.03786 0.61151 0.73901 0.0
N549 N 1.01663 0.46247 0.7972 0.0
H550 H 0.11844 0.67688 0.79807 0.0
H551 H 0.10371 0.59649 0.8083 0.0
H552 H 0.99341 0.4053 0.79744 0.0
H553 H 0.01864 0.48573 0.80885 0.0
H554 H 1.01264 0.5819 0.72814 0.0
H555 H 0.04546 0.66471 0.7393 0.0
H556 H 0.05106 0.50539 0.72587 0.0
H557 H 0.03078 0.42325 0.73611 0.0
C558 C 1.01066 0.4725 0.59284 0.0
C559 C 1.00471 0.42817 0.60698 0.0
C560 C 0.95087 0.4896 0.62308 0.0
C561 C 0.95073 0.53013 0.6087 0.0
N562 N 0.96849 0.54837 0.57888 0.0
N563 N 0.9492 0.38042 0.63377 0.0
C564 C 0.97746 0.51843 0.59325 0.0
C565 C 0.9682 0.43231 0.62147 0.0
N566 N 0.04938 0.47207 0.57915 0.0
N567 N 0.93763 0.508 0.63858 0.0
H568 H 0.95951 0.3367 0.63271 0.0
H569 H 0.91627 0.37611 0.64399 0.0
H570 H 0.9288 0.55215 0.64054 0.0
H571 H 0.94412 0.4853 0.64964 0.0
H572 H 0.06358 0.50931 0.56925 0.0
H573 H 0.07007 0.43616 0.57812 0.0
H574 H 0.97984 0.53594 0.56701 0.0
H575 H 0.94407 0.58118 0.57875 0.0
C576 C 0.59042 0.04654 0.92173 0.0
C577 C 0.60891 1.00811 0.93377 0.0
C578 C 0.47594 0.92079 0.93805 0.0
C579 C 0.45711 0.96399 0.92746 0.0
N580 N 0.49725 0.07128 0.91004 0.0
N581 N 0.5693 0.90921 0.95369 0.0
C582 C 0.51479 0.02754 0.91944 0.0
C583 C 0.55145 0.94529 0.94193 0.0
N584 N 0.64527 0.10074 0.91231 0.0
N585 N 0.4217 0.8543 0.94393 0.0
H586 H 0.62327 0.92011 0.95545 0.0
H587 H 0.53145 0.87062 0.96207 0.0
H588 H 0.36623 0.83644 0.94233 0.0
H589 H 0.43143 0.81516 0.94961 0.0
H590 H 0.63608 0.12676 0.90225 0.0
H591 H 0.70024 0.11491 0.91359 0.0
H592 H 0.53614 0.12254 0.90524 0.0
H593 H 0.44289 0.05887 0.9081 0.0
C594 C 0.485 0.4803 0.25671 0.0
C595 C 0.45829 0.44418 0.27243 0.0
C596 C 0.54009 0.5618 0.28663 0.0
C597 C 0.56082 0.59986 0.27112 0.0
N598 N 0.54527 0.59662 0.24123 0.0
N599 N 0.44809 0.45624 0.30217 0.0
C600 C 0.53092 0.55942 0.25607 0.0
C601 C 0.48187 0.48712 0.28729 0.0
N602 N 0.46919 0.43916 0.24249 0.0
N603 N 0.57836 0.59651 0.30078 0.0
H604 H 0.40453 0.4019 0.30304 0.0
H605 H 0.45802 0.48655 0.31317 0.0
H606 H 0.62529 0.6488 0.30034 0.0
H607 H 0.5698 0.5701 0.31232 0.0
H608 H 0.49355 0.46102 0.23093 0.0
H609 H 0.43473 0.38211 0.24256 0.0
H610 H 0.51904 0.57164 0.23004 0.0
H611 H 0.58071 0.65364 0.24038 0.0
C612 C 0.27317 0.19409 0.19574 0.0
C613 C 0.3095 0.16873 0.20647 0.0
C614 C 0.3385 0.11359 0.18277 0.0
C615 C 0.29698 0.13373 0.17229 0.0
N616 N 0.24603 0.21211 0.16709 0.0
N617 N 0.39518 0.12562 0.21007 0.0
C618 C 0.27193 0.18105 0.17825 0.0
C619 C 0.34929 0.13638 0.19979 0.0
N620 N 0.23542 0.22545 0.20244 0.0
N621 N 0.36281 0.06857 0.1767 0.0
H622 H 0.40291 0.14231 0.22259 0.0
H623 H 0.42979 0.10652 0.20594 0.0
H624 H 0.35532 0.05138 0.16425 0.0
H625 H 0.38704 0.0455 0.1841 0.0
H626 H 0.20065 0.23761 0.19552 0.0
H627 H 0.23651 0.2363 0.21521 0.0
H628 H 0.23163 0.25141 0.17036 0.0
H629 H 0.24559 0.20322 0.15421 0.0
C630 C 0.15889 0.35699 0.51259 0.0
C631 C 0.11186 0.29859 0.50173 0.0
C632 C 0.04774 0.22038 0.52591 0.0
C633 C 0.09923 0.27584 0.53672 0.0
N634 N 0.21092 0.39261 0.54051 0.0
N635 N 0.0205 0.17067 0.49776 0.0
C636 C 0.1567 0.34333 0.53013 0.0
C637 C 0.05851 0.2291 0.50833 0.0
N638 N 0.20408 0.42579 0.50613 0.0
N639 N 0.98797 0.15973 0.5326 0.0
H640 H 0.02897 0.17492 0.48484 0.0
H641 H 0.986 0.11671 0.50187 0.0
H642 H 0.9786 0.15286 0.54549 0.0
H643 H 0.94461 0.12008 0.52543 0.0
H644 H 0.23463 0.47249 0.51351 0.0
H645 H 0.20647 0.43712 0.49334 0.0
H646 H 0.25845 0.4393 0.53623 0.0
H647 H 0.21108 0.38385 0.55336 0.0
C648 C 0.85152 0.14114 0.84104 0.0
C649 C 0.92227 0.2009 0.83687 0.0
C650 C 0.94924 0.22989 0.86661 0.0
C651 C 0.88613 0.16127 0.87064 0.0
N652 N 0.77296 0.05419 0.86246 0.0
N653 N 0.03619 0.30701 0.84504 0.0
C654 C 0.83482 0.11861 0.85808 0.0
C655 C 0.96969 0.24805 0.84951 0.0
N656 N 0.80198 0.10516 0.82851 0.0
N657 N 0.99015 0.27587 0.87931 0.0
H658 H 0.05079 0.3214 0.83252 0.0
H659 H 0.07731 0.34009 0.85353 0.0
H660 H 0.97513 0.2624 0.89185 0.0
H661 H 0.03474 0.32887 0.87749 0.0
H662 H 0.74768 0.06344 0.83049 0.0
H663 H 0.81427 0.12176 0.81603 0.0
H664 H 0.73623 0.01599 0.85388 0.0
H665 H 0.75967 0.03809 0.87494 0.0
C666 C 0.65685 0.8232 0.18034 0.0
C667 C 0.72159 0.85749 0.17034 0.0
C668 C 0.79797 0.89081 0.19572 0.0
C669 C 0.73358 0.86167 0.20579 0.0
N670 N 0.60211 0.80853 0.20799 0.0
N671 N 0.85323 0.93268 0.16822 0.0
C672 C 0.66292 0.82982 0.19817 0.0
C673 C 0.79208 0.89389 0.178 0.0
N674 N 0.58982 0.78297 0.1727 0.0
N675 N 0.86463 0.91397 0.20324 0.0
H676 H 0.8496 0.93673 0.15528 0.0
H677 H 0.90628 0.96589 0.17294 0.0
H678 H 0.86953 0.91038 0.21616 0.0
H679 H 0.91351 0.93027 0.19673 0.0
H680 H 0.54078 0.75009 0.17917 0.0
H681 H 0.58416 0.77931 0.15969 0.0
H682 H 0.54969 0.79177 0.20325 0.0
H683 H 0.60519 0.81208 0.22103 0.0
C684 C 0.82815 0.66554 0.51683 0.0
C685 C 0.88437 0.72691 0.50801 0.0
C686 C 0.94187 0.78615 0.53476 0.0
C687 C 0.88173 0.72827 0.54347 0.0
N688 N 0.76477 0.6156 0.54328 0.0
N689 N 0.99345 0.84702 0.50817 0.0
C690 C 0.82405 0.66857 0.53461 0.0
C691 C 0.94121 0.78752 0.51691 0.0
N692 N 0.78095 0.60317 0.50818 0.0
N693 N 0.99975 0.83929 0.54372 0.0
H694 H 0.99525 0.84822 0.49514 0.0
H695 H 0.03243 0.8965 0.51366 0.0
H696 H 1.00083 0.83895 0.55677 0.0
H697 H 0.04863 0.88034 0.53839 0.0
H698 H 0.74259 0.55383 0.51387 0.0
H699 H 0.78467 0.59894 0.49525 0.0
H700 H 0.71676 0.57483 0.5376 0.0
H701 H 0.76224 0.61498 0.55635 0.0
C702 C 0.21003 0.83919 0.86269 0.0
C703 C 0.16971 0.86217 0.87284 0.0
C704 C 0.12081 0.89012 0.84768 0.0
C705 C 0.16561 0.87285 0.83756 0.0
N706 N 0.26053 0.84073 0.83517 0.0
N707 N 0.09555 0.91937 0.87544 0.0
C708 C 0.21217 0.84964 0.84499 0.0
C709 C 0.12739 0.89032 0.86542 0.0
N710 N 0.24488 0.806 0.87003 0.0
N711 N 0.07141 0.9055 0.84016 0.0
H712 H 0.10229 0.92233 0.88838 0.0
H713 H 0.06867 0.94641 0.87095 0.0
H714 H 0.06563 0.9051 0.82716 0.0
H715 H 0.0323 0.91253 0.84667 0.0
H716 H 0.26912 0.78106 0.86331 0.0
H717 H 0.24542 0.79941 0.88298 0.0
H718 H 0.30153 0.83145 0.83991 0.0
H719 H 0.26273 0.84753 0.8222 0.0
C720 C 0.48059 0.50895 0.09311 0.0
C721 C 0.51988 0.56058 0.10594 0.0
C722 C 0.52354 0.46373 0.12243 0.0
C723 C 0.48914 0.41446 0.10899 0.0
N724 N 0.45764 0.39609 0.07971 0.0
N725 N 0.59727 0.59123 0.13071 0.0
C726 C 0.47583 0.43949 0.09365 0.0
C727 C 0.54699 0.53942 0.12004 0.0
N728 N 0.44531 0.52503 0.08082 0.0
N729 N 0.53167 0.43806 0.13756 0.0
H730 H 0.61837 0.64761 0.12913 0.0
H731 H 0.62355 0.57863 0.14016 0.0
H732 H 0.51736 0.38312 0.13949 0.0
H733 H 0.54847 0.4704 0.14835 0.0
H734 H 0.4107 0.48631 0.07202 0.0
H735 H 0.44424 0.57436 0.08052 0.0
H736 H 0.45221 0.41391 0.06787 0.0
H737 H 0.45687 0.34586 0.07978 0.0
C738 C 0.97555 0.45258 0.43693 0.0
C739 C 0.03801 0.49144 0.42617 0.0
C740 C 0.96554 0.52858 0.40891 0.0
C741 C 0.91271 0.50678 0.4219 0.0
N742 N 0.84305 0.39852 0.43866 0.0
N743 N 0.09204 0.56849 0.40171 0.0
C744 C 0.90999 0.45441 0.43344 0.0
C745 C 0.03259 0.52944 0.41197 0.0
N746 N 0.97785 0.41361 0.45041 0.0
N747 N 0.94792 0.54069 0.39324 0.0
H748 H 0.14321 0.5727 0.40386 0.0
H749 H 0.09211 0.60209 0.39204 0.0
H750 H 0.89559 0.53302 0.3906 0.0
H751 H 0.98155 0.55002 0.38282 0.0
H752 H 0.93613 0.39122 0.45941 0.0
H753 H 0.02322 0.40821 0.45335 0.0
H754 H 0.83659 0.354 0.44584 0.0
H755 H 0.794 0.3918 0.43359 0.0
C756 C 0.51353 1.00264 0.8004 0.0
C757 C 0.48177 0.95889 0.78591 0.0
C758 C 0.59557 0.03129 0.77038 0.0
C759 C 0.62964 0.07277 0.78504 0.0
N760 N 0.626 0.09014 0.81482 0.0
N761 N 0.4972 0.91699 0.75902 0.0
C762 C 0.59018 0.0561 0.80037 0.0
C763 C 0.52507 0.96796 0.77162 0.0
N764 N 0.46976 0.99502 0.81381 0.0
N765 N 0.62978 0.05412 0.75517 0.0
H766 H 0.44489 0.86985 0.75978 0.0
H767 H 0.52849 0.91767 0.7488 0.0
H768 H 0.68044 0.10263 0.75367 0.0
H769 H 0.60449 0.02941 0.74388 0.0
H770 H 0.48771 0.03101 0.82398 0.0
H771 H 0.41415 0.95404 0.81435 0.0
H772 H 0.60181 0.07461 0.82663 0.0
H773 H 0.68162 0.1311 0.81506 0.0
C774 C 0.54541 0.56339 0.58514 0.0
C775 C 0.56797 0.54927 0.60088 0.0
C776 C 0.44743 0.51382 0.6126 0.0
C777 C 0.42072 0.51307 0.59632 0.0
N778 N 0.44186 0.53291 0.56666 0.0
N779 N 0.53456 0.49576 0.62862 0.0
C780 C 0.46912 0.53724 0.58242 0.0
C781 C 0.51732 0.52038 0.6144 0.0
N782 N 0.59646 0.60359 0.57312 0.0
N783 N 0.40435 0.50509 0.62624 0.0
H784 H 0.5839 0.49528 0.63002 0.0
H785 H 0.49665 0.46839 0.63821 0.0
H786 H 0.35247 0.50046 0.62512 0.0
H787 H 0.42336 0.51037 0.63851 0.0
H788 H 0.58305 0.62061 0.56205 0.0
H789 H 0.6531 0.62584 0.57483 0.0
H790 H 0.4732 0.54182 0.55586 0.0
H791 H 0.38657 0.51668 0.56448 0.0
C792 C 0.05637 0.51807 0.95476 0.0
C793 C 0.07387 0.56855 0.94132 0.0
C794 C 0.97452 0.47191 0.92444 0.0
C795 C 0.95569 0.42334 0.93819 0.0
N796 N 0.96406 0.40377 0.9676 0.0
N797 N 0.03896 0.5976 0.91457 0.0
C798 C 0.99156 0.44811 0.95381 0.0
C799 C 0.0298 0.54682 0.92649 0.0
N800 N 0.10361 0.53565 0.96803 0.0
N801 N 0.94176 0.44553 0.90924 0.0
H802 H 0.08023 0.65253 0.91509 0.0
H803 H 1.00227 0.58627 0.90469 0.0
H804 H 0.89806 0.39165 0.90761 0.0
H805 H 0.96031 0.47569 0.89815 0.0
H806 H 0.097 0.49817 0.97741 0.0
H807 H 0.15358 0.58542 0.96879 0.0
H808 H 0.98431 0.42107 0.97966 0.0
H809 H 0.91586 0.35228 0.96714 0.0
C810 C 0.57658 0.0495 0.28381 0.0
C811 C 0.58941 0.01697 0.26956 0.0
C812 C 0.56296 0.09462 0.25132 0.0
C813 C 0.55375 0.12839 0.26575 0.0
N814 N 0.5818 0.15938 0.29483 0.0
N815 N 0.6214 0.02947 0.24005 0.0
C816 C 0.57347 0.11444 0.28164 0.0
C817 C 0.59111 0.04598 0.25332 0.0
N818 N 0.56155 0.01567 0.29912 0.0
N819 N 0.54169 0.10581 0.23595 0.0
H820 H 0.64717 0.99805 0.24123 0.0
H821 H 0.62831 0.05405 0.22831 0.0
H822 H 0.52257 0.14261 0.23401 0.0
H823 H 0.53959 0.0755 0.2254 0.0
H824 H 0.54651 0.03553 0.30948 0.0
H825 H 0.55534 0.96347 0.30096 0.0
H826 H 0.59968 0.1531 0.30659 0.0
H827 H 0.57773 0.20685 0.29332 0.0
C828 C 1.01417 0.93932 0.10701 0.0
C829 C 0.06009 0.98981 0.09463 0.0
C830 C 0.95902 1.01244 0.08655 0.0
C831 C 0.91536 0.96653 0.09983 0.0
N832 N 0.90717 0.8991 0.12485 0.0
N833 N 0.06842 0.05464 0.06913 0.0
C834 C 0.94466 0.93329 0.11059 0.0
C835 C 0.02978 0.02037 0.08333 0.0
N836 N 0.03494 0.89434 0.11472 0.0
N837 N 0.93389 0.05076 0.0775 0.0
H838 H 0.11837 0.05733 0.0662 0.0
H839 H 0.04828 0.07353 0.05957 0.0
H840 H 0.88446 0.04887 0.08045 0.0
H841 H 0.96463 0.08967 0.06836 0.0
H842 H 1.00092 0.85192 0.12289 0.0
H843 H 0.08263 0.89354 0.11136 0.0
H844 H 0.92769 0.87912 0.13411 0.0
H845 H 0.85956 0.89972 0.12827 0.0
C846 C 0.05862 0.07091 0.45458 0.0
C847 C 0.06175 0.1057 0.43898 0.0
C848 C 0.94486 0.99365 0.43081 0.0
C849 C 0.9476 0.95552 0.44511 0.0
N850 N 1.01102 0.95585 0.47021 0.0
N851 N 1.01464 0.0896 0.41063 0.0
C852 C 1.00583 0.9938 0.45687 0.0
C853 C 1.00653 0.06396 0.42669 0.0
N854 N 0.10321 0.11145 0.46752 0.0
N855 N 0.8831 0.96247 0.42102 0.0
H856 H 0.06076 0.13813 0.40663 0.0
H857 H 0.98013 0.0584 0.40084 0.0
H858 H 0.83676 0.91179 0.42398 0.0
H859 H 0.87482 0.9907 0.41127 0.0
H860 H 0.09753 0.09094 0.47966 0.0
H861 H 0.14205 0.1674 0.46656 0.0
H862 H 0.05668 0.97697 0.47814 0.0
H863 H 0.97028 0.9015 0.47278 0.0
C864 C 0.08842 0.10523 0.77319 0.0
C865 C 0.06512 0.12122 0.75789 0.0
C866 C 0.05655 1.0091 0.74551 0.0
C867 C 0.07502 0.99059 0.7611 0.0
N868 N 0.09047 1.01123 0.7907 0.0
N869 N 0.04983 0.10175 0.72835 0.0
C870 C 0.08614 0.03622 0.7752 0.0
C871 C 0.05591 0.07668 0.7437 0.0
N872 N 0.11593 0.15738 0.78549 0.0
N873 N 0.03607 0.95973 0.73267 0.0
H874 H 0.05416 0.15344 0.72699 0.0
H875 H 0.04885 0.07613 0.71711 0.0
H876 H 0.03304 0.9087 0.73419 0.0
H877 H 1.01506 0.96569 0.72132 0.0
H878 H 0.13942 0.15169 0.79648 0.0
H879 H 0.12213 0.20964 0.78379 0.0
H880 H 0.09325 0.03882 0.80177 0.0
H881 H 0.08146 0.95789 0.79242 0.0
C882 C 0.99688 0.9566 0.60056 0.0
C883 C 1.00036 0.92476 0.616 0.0
C884 C 1.01349 0.03377 0.63091 0.0
C885 C 1.01083 0.066 0.6155 0.0
N886 N 0.98188 0.05111 0.58619 0.0
N887 N 0.02484 0.93783 0.64549 0.0
C888 C 0.99741 0.02534 0.60043 0.0
C889 C 1.01242 0.96507 0.63107 0.0
N890 N 0.99479 0.92147 0.58601 0.0
N891 N 1.01352 0.06812 0.64544 0.0
H892 H 0.02715 0.8892 0.6456 0.0
H893 H 0.03962 0.96601 0.65684 0.0
H894 H 1.00954 0.11592 0.64535 0.0
H895 H 1.00972 0.04609 0.65733 0.0
H896 H 0.99705 0.94296 0.57412 0.0
H897 H 0.99817 0.87343 0.58594 0.0
H898 H 0.96688 0.02276 0.57487 0.0
H899 H 0.97651 0.09802 0.58623 0.0
C900 C 0.03254 0.03012 0.95677 0.0
C901 C 0.97246 1.00354 0.94527 0.0
C902 C 0.02866 0.94268 0.9296 0.0
C903 C 0.09314 0.97795 0.93987 0.0
N904 N 0.16087 0.06609 0.96137 0.0
N905 N 0.91401 0.93294 0.92023 0.0
C906 C 0.09641 0.0253 0.95283 0.0
C907 C 0.97029 0.95882 0.93161 0.0
N908 N 0.02713 0.05784 0.97186 0.0
N909 N 0.02231 0.89157 0.91812 0.0
H910 H 0.86567 0.93447 0.92202 0.0
H911 H 0.91609 0.91148 0.90861 0.0
H912 H 0.06624 0.88365 0.91528 0.0
H913 H 0.9734 0.85539 0.91198 0.0
H914 H 0.06602 0.07232 0.98139 0.0
H915 H 0.97932 0.05809 0.97551 0.0
H916 H 0.16883 0.10656 0.97006 0.0
H917 H 0.20872 0.06496 0.95831 0.0
C918 C 0.05837 0.01449 0.29266 0.0
C919 C 0.09439 0.06679 0.27956 0.0
C920 C 0.98592 0.99254 0.2616 0.0
C921 C 0.95238 0.93961 0.27462 0.0
N922 N 0.96882 0.88748 0.29971 0.0
N923 N 0.09473 0.09988 0.25045 0.0
C924 C 0.9927 0.94671 0.28926 0.0
C925 C 0.05876 0.05444 0.26368 0.0
N926 N 0.0863 0.03052 0.30855 0.0
N927 N 0.94661 0.98371 0.24731 0.0
H928 H 0.14486 0.14886 0.25156 0.0
H929 H 0.07609 0.08784 0.23814 0.0
H930 H 0.8973 0.93482 0.24498 0.0
H931 H 0.96168 0.0242 0.23813 0.0
H932 H 0.05922 0.99709 0.31885 0.0
H933 H 0.13241 0.08118 0.31167 0.0
H934 H 0.99836 0.88703 0.31018 0.0
H935 H 0.92413 0.83603 0.29646 0.0
loop_
_geom_bond_atom_site_label_1
_geom_bond_atom_site_label_2
_geom_bond_distance
_geom_bond_site_symmetry_2
_ccdc_geom_bond_type
C0 C1 1.351 . S
C0 N3 1.368 . S
C0 H5 0.931 . S
C1 C0 1.351 . S
C1 N2 1.373 . S
C1 H29 0.930 . S
N2 C1 1.373 . S
N2 C4 1.340 . S
N3 C0 1.368 . S
N3 C4 1.321 . S
N3 Co6 2.135 . S
C4 N2 1.340 . S
C4 N3 1.321 . S
C4 H28 0.930 . S
H5 C0 0.931 . S
Co6 N3 2.135 . S
Co6 N9 2.121 . S
Co6 O14 2.055 . S
Co6 O17 2.039 . S
Co6 N20 2.140 . S
C7 O8 1.227 . S
C7 O17 1.265 . S
O8 C7 1.227 . S
N9 Co6 2.121 . S
N9 C11 1.375 . S
N9 C12 1.313 . S
C10 C11 1.338 . S
C10 N13 1.377 . S
C10 H30 0.930 . S
C11 N9 1.375 . S
C11 C10 1.338 . S
C11 H15 0.931 . S
C12 N9 1.313 . S
C12 N13 1.344 . S
C12 H16 0.930 . S
N13 C10 1.377 . S
N13 C12 1.344 . S
O14 Co6 2.055 . S
O14 C18 1.253 . S
H15 C11 0.931 . S
H16 C12 0.930 . S
O17 Co6 2.039 . S
O17 C7 1.265 . S
C18 O14 1.253 . S
C18 O19 1.227 . S
O19 C18 1.227 . S
N20 Co6 2.140 . S
N20 C23 1.346 . S
N20 C24 1.345 . S
C21 C22 1.387 . S
C21 C25 1.391 . S
C22 C21 1.387 . S
C22 C23 1.369 . S
C22 H31 0.929 . S
C23 N20 1.346 . S
C23 C22 1.369 . S
C23 H26 0.928 . S
C24 N20 1.345 . S
C24 C25 1.371 . S
C24 H27 0.931 . S
C25 C21 1.391 . S
C25 C24 1.371 . S
C25 H32 0.930 . S
H26 C23 0.928 . S
H27 C24 0.931 . S
H28 C4 0.930 . S
H29 C1 0.930 . S
H30 C10 0.930 . S
H31 C22 0.929 . S
H32 C25 0.930 . S
C33 C34 1.351 . S
C33 N36 1.368 . S
C33 H38 0.931 . S
C34 C33 1.351 . S
C34 N35 1.373 . S
C34 H62 0.930 . S
N35 C34 1.373 . S
N35 C37 1.340 . S
N36 C33 1.368 . S
N36 C37 1.321 . S
N36 Co39 2.135 . S
C37 N35 1.340 . S
C37 N36 1.321 . S
C37 H61 0.930 . S
H38 C33 0.931 . S
Co39 N36 2.135 . S
Co39 N42 2.121 . S
Co39 O47 2.055 . S
Co39 O50 2.039 . S
Co39 N53 2.140 . S
C40 O41 1.227 . S
C40 O50 1.265 . S
O41 C40 1.227 . S
N42 Co39 2.121 . S
N42 C44 1.375 . S
N42 C45 1.313 . S
C43 C44 1.338 . S
C43 N46 1.377 . S
C43 H63 0.930 . S
C44 N42 1.375 . S
C44 C43 1.338 . S
C44 H48 0.931 . S
C45 N42 1.313 . S
C45 N46 1.344 . S
C45 H49 0.930 . S
N46 C43 1.377 . S
N46 C45 1.344 . S
O47 Co39 2.055 . S
O47 C51 1.253 . S
H48 C44 0.931 . S
H49 C45 0.930 . S
O50 Co39 2.039 . S
O50 C40 1.265 . S
C51 O47 1.253 . S
C51 O52 1.227 . S
O52 C51 1.227 . S
N53 Co39 2.140 . S
N53 C56 1.346 . S
N53 C57 1.345 . S
C54 C55 1.387 . S
C54 C58 1.391 . S
C55 C54 1.387 . S
C55 C56 1.369 . S
C55 H64 0.929 . S
C56 N53 1.346 . S
C56 C55 1.369 . S
C56 H59 0.928 . S
C57 N53 1.345 . S
C57 C58 1.371 . S
C57 H60 0.931 . S
C58 C54 1.391 . S
C58 C57 1.371 . S
C58 H65 0.930 . S
H59 C56 0.928 . S
H60 C57 0.931 . S
H61 C37 0.930 . S
H62 C34 0.930 . S
H63 C43 0.930 . S
H64 C55 0.929 . S
H65 C58 0.930 . S
C66 C67 1.351 . S
C66 N69 1.368 . S
C66 H71 0.931 . S
C67 C66 1.351 . S
C67 N68 1.373 . S
C67 H95 0.930 . S
N68 C67 1.373 . S
N68 C70 1.340 . S
N69 C66 1.368 . S
N69 C70 1.321 . S
N69 Co72 2.135 . S
C70 N68 1.340 . S
C70 N69 1.321 . S
C70 H94 0.930 . S
H71 C66 0.931 . S
Co72 N69 2.135 . S
Co72 N75 2.121 . S
Co72 O80 2.055 . S
Co72 O83 2.039 . S
Co72 N86 2.140 . S
C73 O74 1.227 . S
C73 O83 1.265 . S
O74 C73 1.227 . S
N75 Co72 2.121 . S
N75 C77 1.375 . S
N75 C78 1.313 . S
C76 C77 1.338 . S
C76 N79 1.377 . S
C76 H96 0.930 . S
C77 N75 1.375 . S
C77 C76 1.338 . S
C77 H81 0.931 . S
C78 N75 1.313 . S
C78 N79 1.344 . S
C78 H82 0.930 . S
N79 C76 1.377 . S
N79 C78 1.344 . S
O80 Co72 2.055 . S
O80 C84 1.253 . S
H81 C77 0.931 . S
H82 C78 0.930 . S
O83 Co72 2.039 . S
O83 C73 1.265 . S
C84 O80 1.253 . S
C84 O85 1.227 . S
O85 C84 1.227 . S
N86 Co72 2.140 . S
N86 C89 1.346 . S
N86 C90 1.345 . S
C87 C88 1.387 . S
C87 C91 1.391 . S
C88 C87 1.387 . S
C88 C89 1.369 . S
C88 H97 0.929 . S
C89 N86 1.346 . S
C89 C88 1.369 . S
C89 H92 0.928 . S
C90 N86 1.345 . S
C90 C91 1.371 . S
C90 H93 0.931 . S
C91 C87 1.391 . S
C91 C90 1.371 . S
C91 H98 0.930 . S
H92 C89 0.928 . S
H93 C90 0.931 . S
H94 C70 0.930 . S
H95 C67 0.930 . S
H96 C76 0.930 . S
H97 C88 0.929 . S
H98 C91 0.930 . S
C99 C100 1.351 . S
C99 N102 1.368 . S
C99 H104 0.931 . S
C100 C99 1.351 . S
C100 N101 1.373 . S
C100 H128 0.930 . S
N101 C100 1.373 . S
N101 C103 1.340 . S
N102 C99 1.368 . S
N102 C103 1.321 . S
N102 Co105 2.135 . S
C103 N101 1.340 . S
C103 N102 1.321 . S
C103 H127 0.930 . S
H104 C99 0.931 . S
Co105 N102 2.135 . S
Co105 N108 2.121 . S
Co105 O113 2.055 . S
Co105 O116 2.039 . S
Co105 N119 2.140 . S
C106 O107 1.227 . S
C106 O116 1.265 . S
O107 C106 1.227 . S
N108 Co105 2.121 . S
N108 C110 1.375 . S
N108 C111 1.313 . S
C109 C110 1.338 . S
C109 N112 1.377 . S
C109 H129 0.930 . S
C110 N108 1.375 . S
C110 C109 1.338 . S
C110 H114 0.931 . S
C111 N108 1.313 . S
C111 N112 1.344 . S
C111 H115 0.930 . S
N112 C109 1.377 . S
N112 C111 1.344 . S
O113 Co105 2.055 . S
O113 C117 1.253 . S
H114 C110 0.931 . S
H115 C111 0.930 . S
O116 Co105 2.039 . S
O116 C106 1.265 . S
C117 O113 1.253 . S
C117 O118 1.227 . S
O118 C117 1.227 . S
N119 Co105 2.140 . S
N119 C122 1.346 . S
N119 C123 1.345 . S
C120 C121 1.387 . S
C120 C124 1.391 . S
C121 C120 1.387 . S
C121 C122 1.369 . S
C121 H130 0.929 . S
C122 N119 1.346 . S
C122 C121 1.369 . S
C122 H125 0.928 . S
C123 N119 1.345 . S
C123 C124 1.371 . S
C123 H126 0.931 . S
C124 C120 1.391 . S
C124 C123 1.371 . S
C124 H131 0.930 . S
H125 C122 0.928 . S
H126 C123 0.931 . S
H127 C103 0.930 . S
H128 C100 0.930 . S
H129 C109 0.930 . S
H130 C121 0.929 . S
H131 C124 0.930 . S
C132 C133 1.351 . S
C132 N135 1.368 . S
C132 H137 0.931 . S
C133 C132 1.351 . S
C133 N134 1.373 . S
C133 H161 0.930 . S
N134 C133 1.373 . S
N134 C136 1.340 . S
N135 C132 1.368 . S
N135 C136 1.321 . S
N135 Co138 2.135 . S
C136 N134 1.340 . S
C136 N135 1.321 . S
C136 H160 0.930 . S
H137 C132 0.931 . S
Co138 N135 2.135 . S
Co138 N141 2.121 . S
Co138 O146 2.055 . S
Co138 O149 2.039 . S
Co138 N152 2.140 . S
C139 O140 1.227 . S
C139 O149 1.265 . S
O140 C139 1.227 . S
N141 Co138 2.121 . S
N141 C143 1.375 . S
N141 C144 1.313 . S
C142 C143 1.338 . S
C142 N145 1.377 . S
C142 H162 0.930 . S
C143 N141 1.375 . S
C143 C142 1.338 . S
C143 H147 0.931 . S
C144 N141 1.313 . S
C144 N145 1.344 . S
C144 H148 0.930 . S
N145 C142 1.377 . S
N145 C144 1.344 . S
O146 Co138 2.055 . S
O146 C150 1.253 . S
H147 C143 0.931 . S
H148 C144 0.930 . S
O149 Co138 2.039 . S
O149 C139 1.265 . S
C150 O146 1.253 . S
C150 O151 1.227 . S
O151 C150 1.227 . S
N152 Co138 2.140 . S
N152 C155 1.346 . S
N152 C156 1.345 . S
C153 C154 1.387 . S
C153 C157 1.391 . S
C154 C153 1.387 . S
C154 C155 1.369 . S
C154 H163 0.929 . S
C155 N152 1.346 . S
C155 C154 1.369 . S
C155 H158 0.928 . S
C156 N152 1.345 . S
C156 C157 1.371 . S
C156 H159 0.931 . S
C157 C153 1.391 . S
C157 C156 1.371 . S
C157 H164 0.930 . S
H158 C155 0.928 . S
H159 C156 0.931 . S
H160 C136 0.930 . S
H161 C133 0.930 . S
H162 C142 0.930 . S
H163 C154 0.929 . S
H164 C157 0.930 . S
C165 C166 1.351 . S
C165 N168 1.368 . S
C165 H170 0.931 . S
C166 C165 1.351 . S
C166 N167 1.373 . S
C166 H194 0.930 . S
N167 C166 1.373 . S
N167 C169 1.340 . S
N168 C165 1.368 . S
N168 C169 1.321 . S
N168 Co171 2.135 . S
C169 N167 1.340 . S
C169 N168 1.321 . S
C169 H193 0.930 . S
H170 C165 0.931 . S
Co171 N168 2.135 . S
Co171 N174 2.121 . S
Co171 O179 2.055 . S
Co171 O182 2.039 . S
Co171 N185 2.140 . S
C172 O173 1.227 . S
C172 O182 1.265 . S
O173 C172 1.227 . S
N174 Co171 2.121 . S
N174 C176 1.375 . S
N174 C177 1.313 . S
C175 C176 1.338 . S
C175 N178 1.377 . S
C175 H195 0.930 . S
C176 N174 1.375 . S
C176 C175 1.338 . S
C176 H180 0.931 . S
C177 N174 1.313 . S
C177 N178 1.344 . S
C177 H181 0.930 . S
N178 C175 1.377 . S
N178 C177 1.344 . S
O179 Co171 2.055 . S
O179 C183 1.253 . S
H180 C176 0.931 . S
H181 C177 0.930 . S
O182 Co171 2.039 . S
O182 C172 1.265 . S
C183 O179 1.253 . S
C183 O184 1.227 . S
O184 C183 1.227 . S
N185 Co171 2.140 . S
N185 C188 1.346 . S
N185 C189 1.345 . S
C186 C187 1.387 . S
C186 C190 1.391 . S
C187 C186 1.387 . S
C187 C188 1.369 . S
C187 H196 0.929 . S
C188 N185 1.346 . S
C188 C187 1.369 . S
C188 H191 0.928 . S
C189 N185 1.345 . S
C189 C190 1.371 . S
C189 H192 0.931 . S
C190 C186 1.391 . S
C190 C189 1.371 . S
C190 H197 0.930 . S
H191 C188 0.928 . S
H192 C189 0.931 . S
H193 C169 0.930 . S
H194 C166 0.930 . S
H195 C175 0.930 . S
H196 C187 0.929 . S
H197 C190 0.930 . S
C198 C199 1.351 . S
C198 N201 1.368 . S
C198 H203 0.931 . S
C199 C198 1.351 . S
C199 N200 1.373 . S
C199 H227 0.930 . S
N200 C199 1.373 . S
N200 C202 1.340 . S
N201 C198 1.368 . S
N201 C202 1.321 . S
N201 Co204 2.135 . S
C202 N200 1.340 . S
C202 N201 1.321 . S
C202 H226 0.930 . S
H203 C198 0.931 . S
Co204 N201 2.135 . S
Co204 N207 2.121 . S
Co204 O212 2.055 . S
Co204 O215 2.039 . S
Co204 N218 2.140 . S
C205 O206 1.227 . S
C205 O215 1.265 . S
O206 C205 1.227 . S
N207 Co204 2.121 . S
N207 C209 1.375 . S
N207 C210 1.313 . S
C208 C209 1.338 . S
C208 N211 1.377 . S
C208 H228 0.930 . S
C209 N207 1.375 . S
C209 C208 1.338 . S
C209 H213 0.931 . S
C210 N207 1.313 . S
C210 N211 1.344 . S
C210 H214 0.930 . S
N211 C208 1.377 . S
N211 C210 1.344 . S
O212 Co204 2.055 . S
O212 C216 1.253 . S
H213 C209 0.931 . S
H214 C210 0.930 . S
O215 Co204 2.039 . S
O215 C205 1.265 . S
C216 O212 1.253 . S
C216 O217 1.227 . S
O217 C216 1.227 . S
N218 Co204 2.140 . S
N218 C221 1.346 . S
N218 C222 1.345 . S
C219 C220 1.387 . S
C219 C223 1.391 . S
C220 C219 1.387 . S
C220 C221 1.369 . S
C220 H229 0.929 . S
C221 N218 1.346 . S
C221 C220 1.369 . S
C221 H224 0.928 . S
C222 N218 1.345 . S
C222 C223 1.371 . S
C222 H225 0.931 . S
C223 C219 1.391 . S
C223 C222 1.371 . S
C223 H230 0.930 . S
H224 C221 0.928 . S
H225 C222 0.931 . S
H226 C202 0.930 . S
H227 C199 0.930 . S
H228 C208 0.930 . S
H229 C220 0.929 . S
H230 C223 0.930 . S
C231 C232 1.351 . S
C231 N234 1.368 . S
C231 H236 0.931 . S
C232 C231 1.351 . S
C232 N233 1.373 . S
C232 H260 0.930 . S
N233 C232 1.373 . S
N233 C235 1.340 . S
N234 C231 1.368 . S
N234 C235 1.321 . S
N234 Co237 2.135 . S
C235 N233 1.340 . S
C235 N234 1.321 . S
C235 H259 0.930 . S
H236 C231 0.931 . S
Co237 N234 2.135 . S
Co237 N240 2.121 . S
Co237 O245 2.055 . S
Co237 O248 2.039 . S
Co237 N251 2.140 . S
C238 O239 1.227 . S
C238 O248 1.265 . S
O239 C238 1.227 . S
N240 Co237 2.121 . S
N240 C242 1.375 . S
N240 C243 1.313 . S
C241 C242 1.338 . S
C241 N244 1.377 . S
C241 H261 0.930 . S
C242 N240 1.375 . S
C242 C241 1.338 . S
C242 H246 0.931 . S
C243 N240 1.313 . S
C243 N244 1.344 . S
C243 H247 0.930 . S
N244 C241 1.377 . S
N244 C243 1.344 . S
O245 Co237 2.055 . S
O245 C249 1.253 . S
H246 C242 0.931 . S
H247 C243 0.930 . S
O248 Co237 2.039 . S
O248 C238 1.265 . S
C249 O245 1.253 . S
C249 O250 1.227 . S
O250 C249 1.227 . S
N251 Co237 2.140 . S
N251 C254 1.346 . S
N251 C255 1.345 . S
C252 C253 1.387 . S
C252 C256 1.391 . S
C253 C252 1.387 . S
C253 C254 1.369 . S
C253 H262 0.929 . S
C254 N251 1.346 . S
C254 C253 1.369 . S
C254 H257 0.928 . S
C255 N251 1.345 . S
C255 C256 1.371 . S
C255 H258 0.931 . S
C256 C252 1.391 . S
C256 C255 1.371 . S
C256 H263 0.930 . S
H257 C254 0.928 . S
H258 C255 0.931 . S
H259 C235 0.930 . S
H260 C232 0.930 . S
H261 C241 0.930 . S
H262 C253 0.929 . S
H263 C256 0.930 . S
C264 C265 1.351 . S
C264 N267 1.368 . S
C264 H269 0.931 . S
C265 C264 1.351 . S
C265 N266 1.373 . S
C265 H293 0.930 . S
N266 C265 1.373 . S
N266 C268 1.340 . S
N267 C264 1.368 . S
N267 C268 1.321 . S
N267 Co270 2.135 . S
C268 N266 1.340 . S
C268 N267 1.321 . S
C268 H292 0.930 . S
H269 C264 0.931 . S
Co270 N267 2.135 . S
Co270 N273 2.121 . S
Co270 O278 2.055 . S
Co270 O281 2.039 . S
Co270 N284 2.140 . S
C271 O272 1.227 . S
C271 O281 1.265 . S
O272 C271 1.227 . S
N273 Co270 2.121 . S
N273 C275 1.375 . S
N273 C276 1.313 . S
C274 C275 1.338 . S
C274 N277 1.377 . S
C274 H294 0.930 . S
C275 N273 1.375 . S
C275 C274 1.338 . S
C275 H279 0.931 . S
C276 N273 1.313 . S
C276 N277 1.344 . S
C276 H280 0.930 . S
N277 C274 1.377 . S
N277 C276 1.344 . S
O278 Co270 2.055 . S
O278 C282 1.253 . S
H279 C275 0.931 . S
H280 C276 0.930 . S
O281 Co270 2.039 . S
O281 C271 1.265 . S
C282 O278 1.253 . S
C282 O283 1.227 . S
O283 C282 1.227 . S
N284 Co270 2.140 . S
N284 C287 1.346 . S
N284 C288 1.345 . S
C285 C286 1.387 . S
C285 C289 1.391 . S
C286 C285 1.387 . S
C286 C287 1.369 . S
C286 H295 0.929 . S
C287 N284 1.346 . S
C287 C286 1.369 . S
C287 H290 0.928 . S
C288 N284 1.345 . S
C288 C289 1.371 . S
C288 H291 0.931 . S
C289 C285 1.391 . S
C289 C288 1.371 . S
C289 H296 0.930 . S
H290 C287 0.928 . S
H291 C288 0.931 . S
H292 C268 0.930 . S
H293 C265 0.930 . S
H294 C274 0.930 . S
H295 C286 0.929 . S
H296 C289 0.930 . S
C297 C298 1.351 . S
C297 N300 1.368 . S
C297 H302 0.931 . S
C298 C297 1.351 . S
C298 N299 1.373 . S
C298 H326 0.930 . S
N299 C298 1.373 . S
N299 C301 1.340 . S
N300 C297 1.368 . S
N300 C301 1.321 . S
N300 Co303 2.135 . S
C301 N299 1.340 . S
C301 N300 1.321 . S
C301 H325 0.930 . S
H302 C297 0.931 . S
Co303 N300 2.135 . S
Co303 N306 2.121 . S
Co303 O311 2.055 . S
Co303 O314 2.039 . S
Co303 N317 2.140 . S
C304 O305 1.227 . S
C304 O314 1.265 . S
O305 C304 1.227 . S
N306 Co303 2.121 . S
N306 C308 1.375 . S
N306 C309 1.313 . S
C307 C308 1.338 . S
C307 N310 1.377 . S
C307 H327 0.930 . S
C308 N306 1.375 . S
C308 C307 1.338 . S
C308 H312 0.931 . S
C309 N306 1.313 . S
C309 N310 1.344 . S
C309 H313 0.930 . S
N310 C307 1.377 . S
N310 C309 1.344 . S
O311 Co303 2.055 . S
O311 C315 1.253 . S
H312 C308 0.931 . S
H313 C309 0.930 . S
O314 Co303 2.039 . S
O314 C304 1.265 . S
C315 O311 1.253 . S
C315 O316 1.227 . S
O316 C315 1.227 . S
N317 Co303 2.140 . S
N317 C320 1.346 . S
N317 C321 1.345 . S
C318 C319 1.387 . S
C318 C322 1.391 . S
C319 C318 1.387 . S
C319 C320 1.369 . S
C319 H328 0.929 . S
C320 N317 1.346 . S
C320 C319 1.369 . S
C320 H323 0.928 . S
C321 N317 1.345 . S
C321 C322 1.371 . S
C321 H324 0.931 . S
C322 C318 1.391 . S
C322 C321 1.371 . S
C322 H329 0.930 . S
H323 C320 0.928 . S
H324 C321 0.931 . S
H325 C301 0.930 . S
H326 C298 0.930 . S
H327 C307 0.930 . S
H328 C319 0.929 . S
H329 C322 0.930 . S
C330 C331 1.351 . S
C330 N333 1.368 . S
C330 H335 0.931 . S
C331 C330 1.351 . S
C331 N332 1.373 . S
C331 H359 0.930 . S
N332 C331 1.373 . S
N332 C334 1.340 . S
N333 C330 1.368 . S
N333 C334 1.321 . S
N333 Co336 2.135 . S
C334 N332 1.340 . S
C334 N333 1.321 . S
C334 H358 0.930 . S
H335 C330 0.931 . S
Co336 N333 2.135 . S
Co336 N339 2.121 . S
Co336 O344 2.055 . S
Co336 O347 2.039 . S
Co336 N350 2.140 . S
C337 O338 1.227 . S
C337 O347 1.265 . S
O338 C337 1.227 . S
N339 Co336 2.121 . S
N339 C341 1.375 . S
N339 C342 1.313 . S
C340 C341 1.338 . S
C340 N343 1.377 . S
C340 H360 0.930 . S
C341 N339 1.375 . S
C341 C340 1.338 . S
C341 H345 0.931 . S
C342 N339 1.313 . S
C342 N343 1.344 . S
C342 H346 0.930 . S
N343 C340 1.377 . S
N343 C342 1.344 . S
O344 Co336 2.055 . S
O344 C348 1.253 . S
H345 C341 0.931 . S
H346 C342 0.930 . S
O347 Co336 2.039 . S
O347 C337 1.265 . S
C348 O344 1.253 . S
C348 O349 1.227 . S
O349 C348 1.227 . S
N350 Co336 2.140 . S
N350 C353 1.346 . S
N350 C354 1.345 . S
C351 C352 1.387 . S
C351 C355 1.391 . S
C352 C351 1.387 . S
C352 C353 1.369 . S
C352 H361 0.929 . S
C353 N350 1.346 . S
C353 C352 1.369 . S
C353 H356 0.928 . S
C354 N350 1.345 . S
C354 C355 1.371 . S
C354 H357 0.931 . S
C355 C351 1.391 . S
C355 C354 1.371 . S
C355 H362 0.930 . S
H356 C353 0.928 . S
H357 C354 0.931 . S
H358 C334 0.930 . S
H359 C331 0.930 . S
H360 C340 0.930 . S
H361 C352 0.929 . S
H362 C355 0.930 . S
C363 C364 1.351 . S
C363 N366 1.368 . S
C363 H368 0.931 . S
C364 C363 1.351 . S
C364 N365 1.373 . S
C364 H392 0.930 . S
N365 C364 1.373 . S
N365 C367 1.340 . S
N366 C363 1.368 . S
N366 C367 1.321 . S
N366 Co369 2.135 . S
C367 N365 1.340 . S
C367 N366 1.321 . S
C367 H391 0.930 . S
H368 C363 0.931 . S
Co369 N366 2.135 . S
Co369 N372 2.121 . S
Co369 O377 2.055 . S
Co369 O380 2.039 . S
Co369 N383 2.140 . S
C370 O371 1.227 . S
C370 O380 1.265 . S
O371 C370 1.227 . S
N372 Co369 2.121 . S
N372 C374 1.375 . S
N372 C375 1.313 . S
C373 C374 1.338 . S
C373 N376 1.377 . S
C373 H393 0.930 . S
C374 N372 1.375 . S
C374 C373 1.338 . S
C374 H378 0.931 . S
C375 N372 1.313 . S
C375 N376 1.344 . S
C375 H379 0.930 . S
N376 C373 1.377 . S
N376 C375 1.344 . S
O377 Co369 2.055 . S
O377 C381 1.253 . S
H378 C374 0.931 . S
H379 C375 0.930 . S
O380 Co369 2.039 . S
O380 C370 1.265 . S
C381 O377 1.253 . S
C381 O382 1.227 . S
O382 C381 1.227 . S
N383 Co369 2.140 . S
N383 C386 1.346 . S
N383 C387 1.345 . S
C384 C385 1.387 . S
C384 C388 1.391 . S
C385 C384 1.387 . S
C385 C386 1.369 . S
C385 H394 0.929 . S
C386 N383 1.346 . S
C386 C385 1.369 . S
C386 H389 0.928 . S
C387 N383 1.345 . S
C387 C388 1.371 . S
C387 H390 0.931 . S
C388 C384 1.391 . S
C388 C387 1.371 . S
C388 H395 0.930 . S
H389 C386 0.928 . S
H390 C387 0.931 . S
H391 C367 0.930 . S
H392 C364 0.930 . S
H393 C373 0.930 . S
H394 C385 0.929 . S
H395 C388 0.930 . S
C396 C397 1.345 1_556 S
C396 C402 1.396 . S
C396 N404 1.351 1_556 S
C397 C396 1.345 1_554 S
C397 C403 1.363 1_545 S
C398 C399 1.345 1_554 S
C398 C403 1.396 . S
C398 N405 1.351 1_554 S
C399 C398 1.345 1_556 S
C399 C402 1.363 1_565 S
N400 C402 1.356 . S
N400 H412 0.984 . S
N400 H413 0.985 . S
N401 C403 1.356 . S
N401 H406 0.984 . S
N401 H407 0.985 . S
C402 C396 1.396 . S
C402 C399 1.363 1_545 S
C402 N400 1.356 . S
C403 C397 1.363 1_565 S
C403 C398 1.396 . S
C403 N401 1.356 . S
N404 C396 1.351 1_554 S
N404 H410 0.984 1_554 S
N404 H411 0.984 . S
N405 C398 1.351 1_556 S
N405 H408 0.984 . S
N405 H409 0.985 1_556 S
H406 N401 0.984 . S
H407 N401 0.985 . S
H408 N405 0.984 . S
H409 N405 0.985 1_554 S
H410 N404 0.984 1_556 S
H411 N404 0.984 . S
H412 N400 0.984 . S
H413 N400 0.985 . S
C414 C415 1.363 . S
C414 C420 1.379 . S
C414 N422 1.356 . S
C415 C414 1.363 . S
C415 C421 1.363 . S
C416 C417 1.363 . S
C416 C421 1.379 . S
C416 N423 1.356 . S
C417 C416 1.363 . S
C417 C420 1.363 . S
N418 C420 1.356 . S
N418 H430 0.984 . S
N418 H431 0.985 . S
N419 C421 1.356 . S
N419 H424 0.984 . S
N419 H425 0.985 . S
C420 C414 1.379 . S
C420 C417 1.363 . S
C420 N418 1.356 . S
C421 C415 1.363 . S
C421 C416 1.379 . S
C421 N419 1.356 . S
N422 C414 1.356 . S
N422 H428 0.984 . S
N422 H429 0.984 . S
N423 C416 1.356 . S
N423 H426 0.984 . S
N423 H427 0.985 . S
H424 N419 0.984 . S
H425 N419 0.985 . S
H426 N423 0.984 . S
H427 N423 0.985 . S
H428 N422 0.984 . S
H429 N422 0.984 . S
H430 N418 0.984 . S
H431 N418 0.985 . S
C432 C433 1.363 . S
C432 C438 1.379 1_655 S
C432 N440 1.356 . S
C433 C432 1.363 . S
C433 C439 1.363 . S
C434 C435 1.363 . S
C434 C439 1.379 1_455 S
C434 N441 1.356 . S
C435 C434 1.363 . S
C435 C438 1.363 . S
N436 C438 1.356 . S
N436 H448 0.984 . S
N436 H449 0.985 . S
N437 C439 1.356 . S
N437 H442 0.984 . S
N437 H443 0.985 . S
C438 C432 1.379 1_455 S
C438 C435 1.363 . S
C438 N436 1.356 . S
C439 C433 1.363 . S
C439 C434 1.379 1_655 S
C439 N437 1.356 . S
N440 C432 1.356 . S
N440 H446 0.984 . S
N440 H447 0.984 . S
N441 C434 1.356 . S
N441 H444 0.984 . S
N441 H445 0.985 . S
H442 N437 0.984 . S
H443 N437 0.985 . S
H444 N441 0.984 . S
H445 N441 0.985 . S
H446 N440 0.984 . S
H447 N440 0.984 . S
H448 N436 0.984 . S
H449 N436 0.985 . S
C450 C451 1.363 . S
C450 C456 1.379 1_556 S
C450 N458 1.356 . S
C451 C450 1.363 . S
C451 C457 1.363 1_545 S
C452 C453 1.363 . S
C452 C457 1.379 1_554 S
C452 N459 1.356 . S
C453 C452 1.363 . S
C453 C456 1.363 1_565 S
N454 C456 1.356 1_565 S
N454 H466 0.984 1_565 S
N454 H467 0.985 . S
N455 C457 1.356 1_545 S
N455 H460 0.984 . S
N455 H461 0.985 1_545 S
C456 C450 1.379 1_554 S
C456 C453 1.363 1_545 S
C456 N454 1.356 1_545 S
C457 C451 1.363 1_565 S
C457 C452 1.379 1_556 S
C457 N455 1.356 1_565 S
N458 C450 1.356 . S
N458 H464 0.984 . S
N458 H465 0.984 . S
N459 C452 1.356 . S
N459 H462 0.984 . S
N459 H463 0.985 . S
H460 N455 0.984 . S
H461 N455 0.985 1_565 S
H462 N459 0.984 . S
H463 N459 0.985 . S
H464 N458 0.984 . S
H465 N458 0.984 . S
H466 N454 0.984 1_545 S
H467 N454 0.985 . S
C468 C469 1.363 . S
C468 C474 1.379 . S
C468 N476 1.356 . S
C469 C468 1.363 . S
C469 C475 1.363 . S
C470 C471 1.363 . S
C470 C475 1.379 . S
C470 N477 1.356 . S
C471 C470 1.363 . S
C471 C474 1.363 . S
N472 C474 1.356 . S
N472 H484 0.984 . S
N472 H485 0.985 . S
N473 C475 1.356 . S
N473 H478 0.984 . S
N473 H479 0.985 . S
C474 C468 1.379 . S
C474 C471 1.363 . S
C474 N472 1.356 . S
C475 C469 1.363 . S
C475 C470 1.379 . S
C475 N473 1.356 . S
N476 C468 1.356 . S
N476 H482 0.984 . S
N476 H483 0.984 . S
N477 C470 1.356 . S
N477 H480 0.984 . S
N477 H481 0.985 . S
H478 N473 0.984 . S
H479 N473 0.985 . S
H480 N477 0.984 . S
H481 N477 0.985 . S
H482 N476 0.984 . S
H483 N476 0.984 . S
H484 N472 0.984 . S
H485 N472 0.985 . S
C486 C487 1.363 . S
C486 C492 1.379 1_455 S
C486 N494 1.356 . S
C487 C486 1.363 . S
C487 C493 1.363 . S
C488 C489 1.363 . S
C488 C493 1.379 1_655 S
C488 N495 1.356 . S
C489 C488 1.363 . S
C489 C492 1.363 . S
N490 C492 1.356 . S
N490 H502 0.984 . S
N490 H503 0.985 . S
N491 C493 1.356 . S
N491 H496 0.984 . S
N491 H497 0.985 . S
C492 C486 1.379 1_655 S
C492 C489 1.363 . S
C492 N490 1.356 . S
C493 C487 1.363 . S
C493 C488 1.379 1_455 S
C493 N491 1.356 . S
N494 C486 1.356 . S
N494 H500 0.984 . S
N494 H501 0.984 . S
N495 C488 1.356 . S
N495 H498 0.984 . S
N495 H499 0.985 . S
H496 N491 0.984 . S
H497 N491 0.985 . S
H498 N495 0.984 . S
H499 N495 0.985 . S
H500 N494 0.984 . S
H501 N494 0.984 . S
H502 N490 0.984 . S
H503 N490 0.985 . S
C504 C505 1.363 1_545 S
C504 C510 1.379 . S
C504 N512 1.356 . S
C505 C504 1.363 1_565 S
C505 C511 1.363 . S
C506 C507 1.363 1_565 S
C506 C511 1.379 . S
C506 N513 1.356 . S
C507 C506 1.363 1_545 S
C507 C510 1.363 . S
N508 C510 1.356 . S
N508 H520 0.984 . S
N508 H521 0.985 . S
N509 C511 1.356 . S
N509 H514 0.984 . S
N509 H515 0.985 . S
C510 C504 1.379 . S
C510 C507 1.363 . S
C510 N508 1.356 . S
C511 C505 1.363 . S
C511 C506 1.379 . S
C511 N509 1.356 . S
N512 C504 1.356 . S
N512 H518 0.984 . S
N512 H519 0.984 . S
N513 C506 1.356 . S
N513 H516 0.984 . S
N513 H517 0.985 . S
H514 N509 0.984 . S
H515 N509 0.985 . S
H516 N513 0.984 . S
H517 N513 0.985 . S
H518 N512 0.984 . S
H519 N512 0.984 . S
H520 N508 0.984 . S
H521 N508 0.985 . S
C522 C523 1.363 . S
C522 C528 1.379 . S
C522 N530 1.356 . S
C523 C522 1.363 . S
C523 C529 1.363 . S
C524 C525 1.363 . S
C524 C529 1.379 . S
C524 N531 1.356 . S
C525 C524 1.363 . S
C525 C528 1.363 . S
N526 C528 1.356 . S
N526 H538 0.984 . S
N526 H539 0.985 . S
N527 C529 1.356 . S
N527 H532 0.984 . S
N527 H533 0.985 . S
C528 C522 1.379 . S
C528 C525 1.363 . S
C528 N526 1.356 . S
C529 C523 1.363 . S
C529 C524 1.379 . S
C529 N527 1.356 . S
N530 C522 1.356 . S
N530 H536 0.984 . S
N530 H537 0.984 . S
N531 C524 1.356 . S
N531 H534 0.984 . S
N531 H535 0.985 . S
H532 N527 0.984 . S
H533 N527 0.985 . S
H534 N531 0.984 . S
H535 N531 0.985 . S
H536 N530 0.984 . S
H537 N530 0.984 . S
H538 N526 0.984 . S
H539 N526 0.985 . S
C540 C541 1.363 1_655 S
C540 C546 1.379 . S
C540 N548 1.356 . S
C541 C540 1.363 1_455 S
C541 C547 1.363 . S
C542 C543 1.363 1_455 S
C542 C547 1.379 . S
C542 N549 1.356 . S
C543 C542 1.363 1_655 S
C543 C546 1.363 . S
N544 C546 1.356 . S
N544 H556 0.984 . S
N544 H557 0.985 . S
N545 C547 1.356 . S
N545 H550 0.984 . S
N545 H551 0.985 . S
C546 C540 1.379 . S
C546 C543 1.363 . S
C546 N544 1.356 . S
C547 C541 1.363 . S
C547 C542 1.379 . S
C547 N545 1.356 . S
N548 C540 1.356 . S
N548 H554 0.984 . S
N548 H555 0.984 . S
N549 C542 1.356 . S
N549 H552 0.984 . S
N549 H553 0.985 . S
H550 N545 0.984 . S
H551 N545 0.985 . S
H552 N549 0.984 . S
H553 N549 0.985 . S
H554 N548 0.984 . S
H555 N548 0.984 . S
H556 N544 0.984 . S
H557 N544 0.985 . S
C558 C559 1.363 . S
C558 C564 1.379 . S
C558 N566 1.356 . S
C559 C558 1.363 . S
C559 C565 1.363 1_455 S
C560 C561 1.363 . S
C560 C565 1.379 . S
C560 N567 1.356 . S
C561 C560 1.363 . S
C561 C564 1.363 1_655 S
N562 C564 1.356 . S
N562 H574 0.984 . S
N562 H575 0.985 . S
N563 C565 1.356 . S
N563 H568 0.984 . S
N563 H569 0.985 . S
C564 C558 1.379 . S
C564 C561 1.363 1_455 S
C564 N562 1.356 . S
C565 C559 1.363 1_655 S
C565 C560 1.379 . S
C565 N563 1.356 . S
N566 C558 1.356 . S
N566 H572 0.984 . S
N566 H573 0.984 . S
N567 C560 1.356 . S
N567 H570 0.984 . S
N567 H571 0.985 . S
H568 N563 0.984 . S
H569 N563 0.985 . S
H570 N567 0.984 . S
H571 N567 0.985 . S
H572 N566 0.984 . S
H573 N566 0.984 . S
H574 N562 0.984 . S
H575 N562 0.985 . S
C576 C577 1.363 . S
C576 C582 1.379 . S
C576 N584 1.356 . S
C577 C576 1.363 . S
C577 C583 1.363 1_545 S
C578 C579 1.363 . S
C578 C583 1.379 . S
C578 N585 1.356 . S
C579 C578 1.363 . S
C579 C582 1.363 1_565 S
N580 C582 1.356 . S
N580 H592 0.984 . S
N580 H593 0.985 . S
N581 C583 1.356 . S
N581 H586 0.984 . S
N581 H587 0.985 . S
C582 C576 1.379 . S
C582 C579 1.363 1_545 S
C582 N580 1.356 . S
C583 C577 1.363 1_565 S
C583 C578 1.379 . S
C583 N581 1.356 . S
N584 C576 1.356 . S
N584 H590 0.984 . S
N584 H591 0.984 . S
N585 C578 1.356 . S
N585 H588 0.984 . S
N585 H589 0.985 . S
H586 N581 0.984 . S
H587 N581 0.985 . S
H588 N585 0.984 . S
H589 N585 0.985 . S
H590 N584 0.984 . S
H591 N584 0.984 . S
H592 N580 0.984 . S
H593 N580 0.985 . S
C594 C595 1.363 . S
C594 C600 1.379 . S
C594 N602 1.356 . S
C595 C594 1.363 . S
C595 C601 1.363 . S
C596 C597 1.363 . S
C596 C601 1.379 . S
C596 N603 1.356 . S
C597 C596 1.363 . S
C597 C600 1.363 . S
N598 C600 1.356 . S
N598 H610 0.984 . S
N598 H611 0.985 . S
N599 C601 1.356 . S
N599 H604 0.984 . S
N599 H605 0.985 . S
C600 C594 1.379 . S
C600 C597 1.363 . S
C600 N598 1.356 . S
C601 C595 1.363 . S
C601 C596 1.379 . S
C601 N599 1.356 . S
N602 C594 1.356 . S
N602 H608 0.984 . S
N602 H609 0.984 . S
N603 C596 1.356 . S
N603 H606 0.984 . S
N603 H607 0.985 . S
H604 N599 0.984 . S
H605 N599 0.985 . S
H606 N603 0.984 . S
H607 N603 0.985 . S
H608 N602 0.984 . S
H609 N602 0.984 . S
H610 N598 0.984 . S
H611 N598 0.985 . S
C612 C613 1.363 . S
C612 C618 1.379 . S
C612 N620 1.356 . S
C613 C612 1.363 . S
C613 C619 1.363 . S
C614 C615 1.363 . S
C614 C619 1.379 . S
C614 N621 1.356 . S
C615 C614 1.363 . S
C615 C618 1.363 . S
N616 C618 1.356 . S
N616 H628 0.984 . S
N616 H629 0.985 . S
N617 C619 1.356 . S
N617 H622 0.984 . S
N617 H623 0.985 . S
C618 C612 1.379 . S
C618 C615 1.363 . S
C618 N616 1.356 . S
C619 C613 1.363 . S
C619 C614 1.379 . S
C619 N617 1.356 . S
N620 C612 1.356 . S
N620 H626 0.984 . S
N620 H627 0.984 . S
N621 C614 1.356 . S
N621 H624 0.984 . S
N621 H625 0.985 . S
H622 N617 0.984 . S
H623 N617 0.985 . S
H624 N621 0.984 . S
H625 N621 0.985 . S
H626 N620 0.984 . S
H627 N620 0.984 . S
H628 N616 0.984 . S
H629 N616 0.985 . S
C630 C631 1.363 . S
C630 C636 1.379 . S
C630 N638 1.356 . S
C631 C630 1.363 . S
C631 C637 1.363 . S
C632 C633 1.363 . S
C632 C637 1.379 . S
C632 N639 1.356 . S
C633 C632 1.363 . S
C633 C636 1.363 . S
N634 C636 1.356 . S
N634 H646 0.984 . S
N634 H647 0.985 . S
N635 C637 1.356 . S
N635 H640 0.984 . S
N635 H641 0.985 . S
C636 C630 1.379 . S
C636 C633 1.363 . S
C636 N634 1.356 . S
C637 C631 1.363 . S
C637 C632 1.379 . S
C637 N635 1.356 . S
N638 C630 1.356 . S
N638 H644 0.984 . S
N638 H645 0.984 . S
N639 C632 1.356 . S
N639 H642 0.984 . S
N639 H643 0.985 1_455 S
H640 N635 0.984 . S
H641 N635 0.985 . S
H642 N639 0.984 . S
H643 N639 0.985 1_655 S
H644 N638 0.984 . S
H645 N638 0.984 . S
H646 N634 0.984 . S
H647 N634 0.985 . S
C648 C649 1.363 . S
C648 C654 1.379 . S
C648 N656 1.356 . S
C649 C648 1.363 . S
C649 C655 1.363 . S
C650 C651 1.363 . S
C650 C655 1.379 . S
C650 N657 1.356 . S
C651 C650 1.363 . S
C651 C654 1.363 . S
N652 C654 1.356 . S
N652 H664 0.984 . S
N652 H665 0.985 . S
N653 C655 1.356 . S
N653 H658 0.984 . S
N653 H659 0.985 1_655 S
C654 C648 1.379 . S
C654 C651 1.363 . S
C654 N652 1.356 . S
C655 C649 1.363 . S
C655 C650 1.379 . S
C655 N653 1.356 . S
N656 C648 1.356 . S
N656 H662 0.984 . S
N656 H663 0.984 . S
N657 C650 1.356 . S
N657 H660 0.984 . S
N657 H661 0.985 . S
H658 N653 0.984 . S
H659 N653 0.985 1_455 S
H660 N657 0.984 . S
H661 N657 0.985 . S
H662 N656 0.984 . S
H663 N656 0.984 . S
H664 N652 0.984 . S
H665 N652 0.985 . S
C666 C667 1.363 . S
C666 C672 1.379 . S
C666 N674 1.356 . S
C667 C666 1.363 . S
C667 C673 1.363 . S
C668 C669 1.363 . S
C668 C673 1.379 . S
C668 N675 1.356 . S
C669 C668 1.363 . S
C669 C672 1.363 . S
N670 C672 1.356 . S
N670 H682 0.984 . S
N670 H683 0.985 . S
N671 C673 1.356 . S
N671 H676 0.984 . S
N671 H677 0.985 . S
C672 C666 1.379 . S
C672 C669 1.363 . S
C672 N670 1.356 . S
C673 C667 1.363 . S
C673 C668 1.379 . S
C673 N671 1.356 . S
N674 C666 1.356 . S
N674 H680 0.984 . S
N674 H681 0.984 . S
N675 C668 1.356 . S
N675 H678 0.984 . S
N675 H679 0.985 . S
H676 N671 0.984 . S
H677 N671 0.985 . S
H678 N675 0.984 . S
H679 N675 0.985 . S
H680 N674 0.984 . S
H681 N674 0.984 . S
H682 N670 0.984 . S
H683 N670 0.985 . S
C684 C685 1.363 . S
C684 C690 1.379 . S
C684 N692 1.356 . S
C685 C684 1.363 . S
C685 C691 1.363 . S
C686 C687 1.363 . S
C686 C691 1.379 . S
C686 N693 1.356 . S
C687 C686 1.363 . S
C687 C690 1.363 . S
N688 C690 1.356 . S
N688 H700 0.984 . S
N688 H701 0.985 . S
N689 C691 1.356 . S
N689 H694 0.984 . S
N689 H695 0.985 . S
C690 C684 1.379 . S
C690 C687 1.363 . S
C690 N688 1.356 . S
C691 C685 1.363 . S
C691 C686 1.379 . S
C691 N689 1.356 . S
N692 C684 1.356 . S
N692 H698 0.984 . S
N692 H699 0.984 . S
N693 C686 1.356 . S
N693 H696 0.984 . S
N693 H697 0.985 1_655 S
H694 N689 0.984 . S
H695 N689 0.985 . S
H696 N693 0.984 . S
H697 N693 0.985 1_455 S
H698 N692 0.984 . S
H699 N692 0.984 . S
H700 N688 0.984 . S
H701 N688 0.985 . S
C702 C703 1.363 . S
C702 C708 1.379 . S
C702 N710 1.356 . S
C703 C702 1.363 . S
C703 C709 1.363 . S
C704 C705 1.363 . S
C704 C709 1.379 . S
C704 N711 1.356 . S
C705 C704 1.363 . S
C705 C708 1.363 . S
N706 C708 1.356 . S
N706 H718 0.984 . S
N706 H719 0.985 . S
N707 C709 1.356 . S
N707 H712 0.984 . S
N707 H713 0.985 . S
C708 C702 1.379 . S
C708 C705 1.363 . S
C708 N706 1.356 . S
C709 C703 1.363 . S
C709 C704 1.379 . S
C709 N707 1.356 . S
N710 C702 1.356 . S
N710 H716 0.984 . S
N710 H717 0.984 . S
N711 C704 1.356 . S
N711 H714 0.984 . S
N711 H715 0.985 . S
H712 N707 0.984 . S
H713 N707 0.985 . S
H714 N711 0.984 . S
H715 N711 0.985 . S
H716 N710 0.984 . S
H717 N710 0.984 . S
H718 N706 0.984 . S
H719 N706 0.985 . S
C720 C721 1.363 . S
C720 C726 1.379 . S
C720 N728 1.356 . S
C721 C720 1.363 . S
C721 C727 1.363 . S
C722 C723 1.363 . S
C722 C727 1.379 . S
C722 N729 1.356 . S
C723 C722 1.363 . S
C723 C726 1.363 . S
N724 C726 1.356 . S
N724 H736 0.984 . S
N724 H737 0.985 . S
N725 C727 1.356 . S
N725 H730 0.984 . S
N725 H731 0.985 . S
C726 C720 1.379 . S
C726 C723 1.363 . S
C726 N724 1.356 . S
C727 C721 1.363 . S
C727 C722 1.379 . S
C727 N725 1.356 . S
N728 C720 1.356 . S
N728 H734 0.984 . S
N728 H735 0.984 . S
N729 C722 1.356 . S
N729 H732 0.984 . S
N729 H733 0.985 . S
H730 N725 0.984 . S
H731 N725 0.985 . S
H732 N729 0.984 . S
H733 N729 0.985 . S
H734 N728 0.984 . S
H735 N728 0.984 . S
H736 N724 0.984 . S
H737 N724 0.985 . S
C738 C739 1.363 1_655 S
C738 C744 1.379 . S
C738 N746 1.356 . S
C739 C738 1.363 1_455 S
C739 C745 1.363 . S
C740 C741 1.363 1_455 S
C740 C745 1.379 . S
C740 N747 1.356 . S
C741 C740 1.363 1_655 S
C741 C744 1.363 . S
N742 C744 1.356 . S
N742 H754 0.984 . S
N742 H755 0.985 . S
N743 C745 1.356 . S
N743 H748 0.984 . S
N743 H749 0.985 . S
C744 C738 1.379 . S
C744 C741 1.363 . S
C744 N742 1.356 . S
C745 C739 1.363 . S
C745 C740 1.379 . S
C745 N743 1.356 . S
N746 C738 1.356 . S
N746 H752 0.984 . S
N746 H753 0.984 1_655 S
N747 C740 1.356 . S
N747 H750 0.984 1_455 S
N747 H751 0.985 . S
H748 N743 0.984 . S
H749 N743 0.985 . S
H750 N747 0.984 1_655 S
H751 N747 0.985 . S
H752 N746 0.984 . S
H753 N746 0.984 1_455 S
H754 N742 0.984 . S
H755 N742 0.985 . S
C756 C757 1.363 1_545 S
C756 C762 1.379 . S
C756 N764 1.356 . S
C757 C756 1.363 1_565 S
C757 C763 1.363 . S
C758 C759 1.363 1_565 S
C758 C763 1.379 . S
C758 N765 1.356 . S
C759 C758 1.363 1_545 S
C759 C762 1.363 . S
N760 C762 1.356 . S
N760 H772 0.984 . S
N760 H773 0.985 . S
N761 C763 1.356 . S
N761 H766 0.984 . S
N761 H767 0.985 . S
C762 C756 1.379 . S
C762 C759 1.363 . S
C762 N760 1.356 . S
C763 C757 1.363 . S
C763 C758 1.379 . S
C763 N761 1.356 . S
N764 C756 1.356 . S
N764 H770 0.984 . S
N764 H771 0.984 1_545 S
N765 C758 1.356 . S
N765 H768 0.984 1_565 S
N765 H769 0.985 . S
H766 N761 0.984 . S
H767 N761 0.985 . S
H768 N765 0.984 1_545 S
H769 N765 0.985 . S
H770 N764 0.984 . S
H771 N764 0.984 1_565 S
H772 N760 0.984 . S
H773 N760 0.985 . S
C774 C775 1.363 . S
C774 C780 1.379 . S
C774 N782 1.356 . S
C775 C774 1.363 . S
C775 C781 1.363 . S
C776 C777 1.363 . S
C776 C781 1.379 . S
C776 N783 1.356 . S
C777 C776 1.363 . S
C777 C780 1.363 . S
N778 C780 1.356 . S
N778 H790 0.984 . S
N778 H791 0.985 . S
N779 C781 1.356 . S
N779 H784 0.984 . S
N779 H785 0.985 . S
C780 C774 1.379 . S
C780 C777 1.363 . S
C780 N778 1.356 . S
C781 C775 1.363 . S
C781 C776 1.379 . S
C781 N779 1.356 . S
N782 C774 1.356 . S
N782 H788 0.984 . S
N782 H789 0.984 . S
N783 C776 1.356 . S
N783 H786 0.984 . S
N783 H787 0.985 . S
H784 N779 0.984 . S
H785 N779 0.985 . S
H786 N783 0.984 . S
H787 N783 0.985 . S
H788 N782 0.984 . S
H789 N782 0.984 . S
H790 N778 0.984 . S
H791 N778 0.985 . S
C792 C793 1.363 . S
C792 C798 1.379 . S
C792 N800 1.356 . S
C793 C792 1.363 . S
C793 C799 1.363 1_455 S
C794 C795 1.363 . S
C794 C799 1.379 . S
C794 N801 1.356 . S
C795 C794 1.363 . S
C795 C798 1.363 1_655 S
N796 C798 1.356 . S
N796 H808 0.984 . S
N796 H809 0.985 1_455 S
N797 C799 1.356 . S
N797 H802 0.984 1_655 S
N797 H803 0.985 . S
C798 C792 1.379 . S
C798 C795 1.363 1_455 S
C798 N796 1.356 . S
C799 C793 1.363 1_655 S
C799 C794 1.379 . S
C799 N797 1.356 . S
N800 C792 1.356 . S
N800 H806 0.984 . S
N800 H807 0.984 . S
N801 C794 1.356 . S
N801 H804 0.984 . S
N801 H805 0.985 . S
H802 N797 0.984 1_455 S
H803 N797 0.985 . S
H804 N801 0.984 . S
H805 N801 0.985 . S
H806 N800 0.984 . S
H807 N800 0.984 . S
H808 N796 0.984 . S
H809 N796 0.985 1_655 S
C810 C811 1.363 . S
C810 C816 1.379 . S
C810 N818 1.356 . S
C811 C810 1.363 . S
C811 C817 1.363 1_565 S
C812 C813 1.363 . S
C812 C817 1.379 . S
C812 N819 1.356 . S
C813 C812 1.363 . S
C813 C816 1.363 1_545 S
N814 C816 1.356 . S
N814 H826 0.984 . S
N814 H827 0.985 1_565 S
N815 C817 1.356 . S
N815 H820 0.984 1_545 S
N815 H821 0.985 . S
C816 C810 1.379 . S
C816 C813 1.363 1_565 S
C816 N814 1.356 . S
C817 C811 1.363 1_545 S
C817 C812 1.379 . S
C817 N815 1.356 . S
N818 C810 1.356 . S
N818 H824 0.984 . S
N818 H825 0.984 . S
N819 C812 1.356 . S
N819 H822 0.984 . S
N819 H823 0.985 . S
H820 N815 0.984 1_565 S
H821 N815 0.985 . S
H822 N819 0.984 . S
H823 N819 0.985 . S
H824 N818 0.984 . S
H825 N818 0.984 . S
H826 N814 0.984 . S
H827 N814 0.985 1_545 S
C828 C829 1.363 1_565 S
C828 C834 1.379 1_455 S
C828 N836 1.356 . S
C829 C828 1.363 1_545 S
C829 C835 1.363 . S
C830 C831 1.363 1_545 S
C830 C835 1.379 1_655 S
C830 N837 1.356 . S
C831 C830 1.363 1_565 S
C831 C834 1.363 . S
N832 C834 1.356 . S
N832 H844 0.984 . S
N832 H845 0.985 . S
N833 C835 1.356 . S
N833 H838 0.984 . S
N833 H839 0.985 . S
C834 C828 1.379 1_655 S
C834 C831 1.363 . S
C834 N832 1.356 . S
C835 C829 1.363 . S
C835 C830 1.379 1_455 S
C835 N833 1.356 . S
N836 C828 1.356 . S
N836 H842 0.984 . S
N836 H843 0.984 . S
N837 C830 1.356 . S
N837 H840 0.984 . S
N837 H841 0.985 . S
H838 N833 0.984 . S
H839 N833 0.985 . S
H840 N837 0.984 . S
H841 N837 0.985 . S
H842 N836 0.984 . S
H843 N836 0.984 . S
H844 N832 0.984 . S
H845 N832 0.985 . S
C846 C847 1.363 . S
C846 C852 1.379 1_545 S
C846 N854 1.356 . S
C847 C846 1.363 . S
C847 C853 1.363 1_455 S
C848 C849 1.363 . S
C848 C853 1.379 1_565 S
C848 N855 1.356 . S
C849 C848 1.363 . S
C849 C852 1.363 1_655 S
N850 C852 1.356 1_655 S
N850 H862 0.984 1_655 S
N850 H863 0.985 . S
N851 C853 1.356 1_455 S
N851 H856 0.984 . S
N851 H857 0.985 1_455 S
C852 C846 1.379 1_565 S
C852 C849 1.363 1_455 S
C852 N850 1.356 1_455 S
C853 C847 1.363 1_655 S
C853 C848 1.379 1_545 S
C853 N851 1.356 1_655 S
N854 C846 1.356 . S
N854 H860 0.984 . S
N854 H861 0.984 . S
N855 C848 1.356 . S
N855 H858 0.984 . S
N855 H859 0.985 . S
H856 N851 0.984 . S
H857 N851 0.985 1_655 S
H858 N855 0.984 . S
H859 N855 0.985 . S
H860 N854 0.984 . S
H861 N854 0.984 . S
H862 N850 0.984 1_455 S
H863 N850 0.985 . S
C864 C865 1.363 1_455 S
C864 C870 1.379 . S
C864 N872 1.356 . S
C865 C864 1.363 1_655 S
C865 C871 1.363 1_545 S
C866 C867 1.363 1_655 S
C866 C871 1.379 . S
C866 N873 1.356 . S
C867 C866 1.363 1_455 S
C867 C870 1.363 1_565 S
N868 C870 1.356 1_565 S
N868 H880 0.984 1_565 S
N868 H881 0.985 . S
N869 C871 1.356 1_545 S
N869 H874 0.984 . S
N869 H875 0.985 1_545 S
C870 C864 1.379 . S
C870 C867 1.363 1_545 S
C870 N868 1.356 1_545 S
C871 C865 1.363 1_565 S
C871 C866 1.379 . S
C871 N869 1.356 1_565 S
N872 C864 1.356 . S
N872 H878 0.984 . S
N872 H879 0.984 . S
N873 C866 1.356 . S
N873 H876 0.984 . S
N873 H877 0.985 . S
H874 N869 0.984 . S
H875 N869 0.985 1_565 S
H876 N873 0.984 . S
H877 N873 0.985 . S
H878 N872 0.984 . S
H879 N872 0.984 . S
H880 N868 0.984 1_545 S
H881 N868 0.985 . S
C882 C883 1.363 1_455 S
C882 C888 1.379 1_565 S
C882 N890 1.356 . S
C883 C882 1.363 1_655 S
C883 C889 1.363 . S
C884 C885 1.363 1_655 S
C884 C889 1.379 1_545 S
C884 N891 1.356 . S
C885 C884 1.363 1_455 S
C885 C888 1.363 . S
N886 C888 1.356 . S
N886 H898 0.984 . S
N886 H899 0.985 . S
N887 C889 1.356 . S
N887 H892 0.984 . S
N887 H893 0.985 . S
C888 C882 1.379 1_545 S
C888 C885 1.363 . S
C888 N886 1.356 . S
C889 C883 1.363 . S
C889 C884 1.379 1_565 S
C889 N887 1.356 . S
N890 C882 1.356 . S
N890 H896 0.984 . S
N890 H897 0.984 . S
N891 C884 1.356 . S
N891 H894 0.984 . S
N891 H895 0.985 . S
H892 N887 0.984 . S
H893 N887 0.985 . S
H894 N891 0.984 . S
H895 N891 0.985 . S
H896 N890 0.984 . S
H897 N890 0.984 . S
H898 N886 0.984 . S
H899 N886 0.985 . S
C900 C901 1.363 1_455 S
C900 C906 1.379 . S
C900 N908 1.356 1_455 S
C901 C900 1.363 1_655 S
C901 C907 1.363 1_545 S
C902 C903 1.363 1_655 S
C902 C907 1.379 . S
C902 N909 1.356 1_655 S
C903 C902 1.363 1_455 S
C903 C906 1.363 1_565 S
N904 C906 1.356 . S
N904 H916 0.984 . S
N904 H917 0.985 . S
N905 C907 1.356 . S
N905 H910 0.984 . S
N905 H911 0.985 . S
C906 C900 1.379 . S
C906 C903 1.363 1_545 S
C906 N904 1.356 . S
C907 C901 1.363 1_565 S
C907 C902 1.379 . S
C907 N905 1.356 . S
N908 C900 1.356 1_655 S
N908 H914 0.984 1_655 S
N908 H915 0.984 . S
N909 C902 1.356 1_455 S
N909 H912 0.984 . S
N909 H913 0.985 1_455 S
H910 N905 0.984 . S
H911 N905 0.985 . S
H912 N909 0.984 . S
H913 N909 0.985 1_655 S
H914 N908 0.984 1_455 S
H915 N908 0.984 . S
H916 N904 0.984 . S
H917 N904 0.985 . S
C918 C919 1.363 1_565 S
C918 C924 1.379 1_455 S
C918 N926 1.356 1_565 S
C919 C918 1.363 1_545 S
C919 C925 1.363 . S
C920 C921 1.363 1_545 S
C920 C925 1.379 1_655 S
C920 N927 1.356 1_545 S
C921 C920 1.363 1_565 S
C921 C924 1.363 . S
N922 C924 1.356 . S
N922 H934 0.984 . S
N922 H935 0.985 . S
N923 C925 1.356 . S
N923 H928 0.984 . S
N923 H929 0.985 . S
C924 C918 1.379 1_655 S
C924 C921 1.363 . S
C924 N922 1.356 . S
C925 C919 1.363 . S
C925 C920 1.379 1_455 S
C925 N923 1.356 . S
N926 C918 1.356 1_545 S
N926 H932 0.984 1_545 S
N926 H933 0.984 . S
N927 C920 1.356 1_565 S
N927 H930 0.984 . S
N927 H931 0.985 1_565 S
H928 N923 0.984 . S
H929 N923 0.985 . S
H930 N927 0.984 . S
H931 N927 0.985 1_545 S
H932 N926 0.984 1_565 S
H933 N926 0.984 . S
H934 N922 0.984 . S
H935 N922 0.985 . S
C397 N13 1.530 . S
C399 N244 1.530 . S
C415 N46 1.530 . S
C417 N277 1.530 . S
C433 N79 1.530 . S
C435 N310 1.530 . S
C451 N343 1.530 . S
C453 N112 1.530 . S
C469 N376 1.530 . S
C471 N145 1.530 . S
C487 N178 1.530 . S
C489 N211 1.530 . S
C505 C106 1.765 . S
C507 C7 1.765 . S
C523 C40 1.765 . S
C525 C139 1.765 . S
C541 C172 1.765 . S
C543 C73 1.765 . S
C559 C304 1.765 . S
C561 C205 1.765 . S
C577 C337 1.765 . S
C579 C238 1.765 . S
C595 C271 1.765 . S
C597 C370 1.765 . S
C613 N266 1.501 . S
C615 N2 1.501 . S
C631 N35 1.501 . S
C633 N299 1.501 . S
C649 N68 1.501 . S
C651 N332 1.501 . S
C667 N101 1.501 . S
C669 N365 1.501 . S
C685 N134 1.501 . S
C687 N200 1.501 . S
C703 N233 1.501 . S
C705 N167 1.501 . S
C721 C120 1.207 . S
C723 C21 1.207 . S
C739 C54 1.207 . S
C741 C153 1.207 . S
C757 C186 1.207 . S
C759 C87 1.207 . S
C775 C219 1.207 . S
C777 C318 1.207 . S
C793 C252 1.207 . S
C795 C351 1.207 . S
C811 C384 1.207 . S
C813 C285 1.207 . S
C829 C18 1.304 . S
C831 C117 1.304 . S
C847 C51 1.304 . S
C849 C150 1.304 . S
C865 C84 1.304 . S
C867 C183 1.304 . S
C883 C216 1.304 . S
C885 C315 1.304 . S
C901 C348 1.304 . S
C903 C249 1.304 . S
C919 C282 1.304 . S
C921 C381 1.304 . S
