# Generated by pormake.
# Topology vma, (5)-cn, num edge types: 1
# Building blocks:
#     Node 0, Type 0, BuildingBlock: XOMCOT_clean_sbu_0, # of connection points: 5
#     Node 1, Type 0, BuildingBlock: XOMCOT_clean_sbu_0, # of connection points: 5
#     Node 2, Type 0, BuildingBlock: XOMCOT_clean_sbu_0, # of connection points: 5
#     Node 3, Type 0, BuildingBlock: XOMCOT_clean_sbu_0, # of connection points: 5
#     Node 4, Type 0, BuildingBlock: XOMCOT_clean_sbu_0, # of connection points: 5
#     Node 5, Type 0, BuildingBlock: XOMCOT_clean_sbu_0, # of connection points: 5
#     Node 6, Type 0, BuildingBlock: XOMCOT_clean_sbu_0, # of connection points: 5
#     Node 7, Type 0, BuildingBlock: XOMCOT_clean_sbu_0, # of connection points: 5
#     Edge 8, Type (0, 0), BuildingBlock: UVAHIK_clean_linker_0, # of connection points: 2
#     Edge 9, Type (0, 0), BuildingBlock: UVAHIK_clean_linker_0, # of connection points: 2
#     Edge 10, Type (0, 0), BuildingBlock: UVAHIK_clean_linker_0, # of connection points: 2
#     Edge 11, Type (0, 0), BuildingBlock: UVAHIK_clean_linker_0, # of connection points: 2
#     Edge 12, Type (0, 0), BuildingBlock: UVAHIK_clean_linker_0, # of connection points: 2
#     Edge 13, Type (0, 0), BuildingBlock: UVAHIK_clean_linker_0, # of connection points: 2
#     Edge 14, Type (0, 0), BuildingBlock: UVAHIK_clean_linker_0, # of connection points: 2
#     Edge 15, Type (0, 0), BuildingBlock: UVAHIK_clean_linker_0, # of connection points: 2
#     Edge 16, Type (0, 0), BuildingBlock: UVAHIK_clean_linker_0, # of connection points: 2
#     Edge 17, Type (0, 0), BuildingBlock: UVAHIK_clean_linker_0, # of connection points: 2
#     Edge 18, Type (0, 0), BuildingBlock: UVAHIK_clean_linker_0, # of connection points: 2
#     Edge 19, Type (0, 0), BuildingBlock: UVAHIK_clean_linker_0, # of connection points: 2
#     Edge 20, Type (0, 0), BuildingBlock: UVAHIK_clean_linker_0, # of connection points: 2
#     Edge 21, Type (0, 0), BuildingBlock: UVAHIK_clean_linker_0, # of connection points: 2
#     Edge 22, Type (0, 0), BuildingBlock: UVAHIK_clean_linker_0, # of connection points: 2
#     Edge 23, Type (0, 0), BuildingBlock: UVAHIK_clean_linker_0, # of connection points: 2
#     Edge 24, Type (0, 0), BuildingBlock: UVAHIK_clean_linker_0, # of connection points: 2
#     Edge 25, Type (0, 0), BuildingBlock: UVAHIK_clean_linker_0, # of connection points: 2
#     Edge 26, Type (0, 0), BuildingBlock: UVAHIK_clean_linker_0, # of connection points: 2
#     Edge 27, Type (0, 0), BuildingBlock: UVAHIK_clean_linker_0, # of connection points: 2
# Relax obj value: 0.101
# Max RMSD: 0.195
# Mean RMSD: 0.195
data_MOF--net-vma--node1-XOMCOT_clean_sbu_0--edge1-UVAHIK_clean_linker_0
_symmetry_space_group_name_H-M    P1
_symmetry_Int_Tables_number       1
_symmetry_cell_setting            triclinic
loop_
_symmetry_equiv_pos_as_xyz
'x, y, z'
_cell_length_a     55.788558
_cell_length_b     32.557859
_cell_length_c     48.415985
_cell_angle_alpha  90.017265
_cell_angle_beta   108.48865
_cell_angle_gamma 89.966755
loop_
_atom_site_label
_atom_site_type_symbol
_atom_site_fract_x
_atom_site_fract_y
_atom_site_fract_z
_atom_type_partial_charge
Co0 Co 0.36653 0.13063 0.36348 0.0
C1 C 0.40263 0.11891 0.32955 0.0
C2 C 0.37744 0.16958 0.31372 0.0
C3 C 0.39248 0.1654 0.29629 0.0
N4 N 0.38355 0.1403 0.33455 0.0
N5 N 0.40831 0.13367 0.30627 0.0
H6 H 0.41192 0.09266 0.34214 0.0
H7 H 0.36281 0.19236 0.31081 0.0
C8 C 0.32679 0.19638 0.35165 0.0
O9 O 0.31068 0.16837 0.35425 0.0
N10 N 0.34984 0.12188 0.39288 0.0
C11 C 0.3406 0.08694 0.4005 0.0
C12 C 0.32934 0.0959 0.4213 0.0
C13 C 0.34516 0.15109 0.4104 0.0
N14 N 0.33176 0.13651 0.4272 0.0
C15 C 0.33911 0.06052 0.33491 0.0
C16 C 0.30719 0.09918 0.28638 0.0
C17 C 0.30666 0.05633 0.28825 0.0
C18 C 0.32276 0.03712 0.31293 0.0
C19 C 0.32423 0.12163 0.30889 0.0
N20 N 0.33955 0.10241 0.33333 0.0
H21 H 0.35212 0.04417 0.35271 0.0
H22 H 0.32551 0.15418 0.30581 0.0
H23 H 0.34176 0.0568 0.39189 0.0
H24 H 0.35047 0.18289 0.40971 0.0
O25 O 0.38749 0.08362 0.37788 0.0
O26 O 0.39703 0.14661 0.39478 0.0
O27 O 0.34959 0.18638 0.35419 0.0
C28 C 0.40309 0.10776 0.39623 0.0
H29 H 0.39204 0.18451 0.27784 0.0
H30 H 0.31984 0.07395 0.43098 0.0
H31 H 0.29537 0.11497 0.26719 0.0
H32 H 0.3231 1.00397 0.31501 0.0
Co33 Co 0.65274 0.12965 0.13385 0.0
C34 C 0.61805 0.11396 0.16905 0.0
C35 C 0.64229 0.16564 0.18498 0.0
C36 C 0.62713 0.1606 0.20219 0.0
N37 N 0.63687 0.13623 0.16422 0.0
N38 N 0.61186 0.12826 0.19213 0.0
H39 H 0.60893 0.08794 0.15606 0.0
H40 H 0.65612 0.1897 0.18758 0.0
C41 C 0.69159 0.19635 0.14673 0.0
O42 O 0.70765 0.16896 0.14311 0.0
N43 N 0.66804 0.12422 0.10277 0.0
C44 C 0.67526 0.08987 0.0919 0.0
C45 C 0.68551 0.10062 0.07055 0.0
C46 C 0.67263 0.15509 0.08635 0.0
N47 N 0.68417 0.14175 0.06731 0.0
C48 C 0.68403 0.06071 0.15835 0.0
C49 C 0.71494 0.098 0.20809 0.0
C50 C 0.71899 0.05666 0.20297 0.0
C51 C 0.7031 0.03801 0.17787 0.0
C52 C 0.69581 0.11998 0.18753 0.0
N53 N 0.68118 0.10175 0.16227 0.0
H54 H 0.67102 0.04441 0.14057 0.0
H55 H 0.69277 0.15144 0.19238 0.0
H56 H 0.67294 0.05883 0.09819 0.0
H57 H 0.66838 0.18698 0.08896 0.0
O58 O 0.63258 0.08187 0.11938 0.0
O59 O 0.6211 0.14513 0.10425 0.0
O60 O 0.6688 0.1859 0.14385 0.0
C61 C 0.6159 0.10592 0.10226 0.0
H62 H 0.62676 0.18013 0.22015 0.0
H63 H 0.69329 0.07961 0.05829 0.0
H64 H 0.72645 0.11318 0.22773 0.0
H65 H 0.70486 1.00558 0.17381 0.0
Co66 Co 0.64892 0.88333 0.63882 0.0
C67 C 0.61601 0.90148 0.67584 0.0
C68 C 0.63839 0.84729 0.68998 0.0
C69 C 0.62404 0.85348 0.70799 0.0
N70 N 0.63374 0.87764 0.66991 0.0
N71 N 0.60994 0.88735 0.69903 0.0
H72 H 0.60759 0.9285 0.66359 0.0
H73 H 0.6512 0.8219 0.69165 0.0
C74 C 0.68737 0.81577 0.65272 0.0
O75 O 0.70397 0.84271 0.64987 0.0
N76 N 0.66338 0.88787 0.60684 0.0
C77 C 0.66633 0.92192 0.59234 0.0
C78 C 0.67594 0.91107 0.57047 0.0
C79 C 0.66971 0.85661 0.59197 0.0
N80 N 0.67843 0.86986 0.57042 0.0
C81 C 0.68286 0.95009 0.66064 0.0
C82 C 0.71134 0.91505 0.71262 0.0
C83 C 0.71705 0.95497 0.70595 0.0
C84 C 0.70243 0.97246 0.67966 0.0
C85 C 0.69173 0.89331 0.69257 0.0
N86 N 0.67816 0.91041 0.6664 0.0
H87 H 0.6709 0.96568 0.6418 0.0
H88 H 0.68757 0.86283 0.69836 0.0
H89 H 0.66083 0.95263 0.59609 0.0
H90 H 0.66772 0.82464 0.59661 0.0
O91 O 0.62923 0.93181 0.62508 0.0
O92 O 0.61674 0.86879 0.60998 0.0
O93 O 0.66445 0.82669 0.64858 0.0
C94 C 0.61202 0.90818 0.60828 0.0
H95 H 0.62339 0.83384 0.72579 0.0
H96 H 0.68011 0.93213 0.55535 0.0
H97 H 0.72194 0.90077 0.73305 0.0
H98 H 0.70551 1.0039 0.67426 0.0
Co99 Co 0.36348 0.8835 0.86749 0.0
C100 C 0.39812 0.90263 0.8327 0.0
C101 C 0.37972 0.84443 0.82105 0.0
C102 C 0.39514 0.85075 0.80431 0.0
N103 N 0.38118 0.87714 0.83872 0.0
N104 N 0.40676 0.88716 0.8117 0.0
H105 H 0.40419 0.93171 0.84344 0.0
H106 H 0.36834 0.8174 0.82013 0.0
C107 C 0.32553 0.81546 0.85037 0.0
O108 O 0.30802 0.84245 0.85047 0.0
N109 N 0.34657 0.88866 0.8973 0.0
C110 C 0.34354 0.92278 0.91177 0.0
C111 C 0.33173 0.91253 0.93183 0.0
C112 C 0.33813 0.85782 0.91062 0.0
N113 N 0.32807 0.87159 0.9309 0.0
C114 C 0.32838 0.948 0.84268 0.0
C115 C 0.30722 0.9138 0.78815 0.0
C116 C 0.29976 0.95321 0.79361 0.0
C117 C 0.31034 0.97005 0.82134 0.0
C118 C 0.32494 0.8922 0.81049 0.0
N119 N 0.33522 0.90917 0.83759 0.0
H120 H 0.33782 0.96344 0.86272 0.0
H121 H 0.33066 0.86217 0.80563 0.0
H122 H 0.35035 0.95308 0.90916 0.0
H123 H 0.33956 0.82571 0.90593 0.0
O124 O 0.38218 0.93271 0.88171 0.0
O125 O 0.39464 0.87031 0.89844 0.0
O126 O 0.34872 0.82646 0.85742 0.0
C127 C 0.39902 0.90981 0.89978 0.0
H128 H 0.39827 0.82951 0.78858 0.0
H129 H 0.32684 0.93361 0.94647 0.0
H130 H 0.29972 0.90011 0.76674 0.0
H131 H 0.30578 1.0011 0.82604 0.0
Co132 Co 0.86492 0.62852 0.37082 0.0
C133 C 0.90495 0.61444 0.34087 0.0
C134 C 0.90737 0.6721 0.36295 0.0
C135 C 0.92726 0.66948 0.35222 0.0
N136 N 0.89308 0.63791 0.35578 0.0
N137 N 0.92582 0.63325 0.3384 0.0
H138 H 0.89948 0.58387 0.33296 0.0
H139 H 0.90376 0.69715 0.37577 0.0
C140 C 0.85074 0.70237 0.33357 0.0
O141 O 0.85746 0.68136 0.31403 0.0
N142 N 0.83779 0.62155 0.38717 0.0
C143 C 0.82401 0.5877 0.38731 0.0
C144 C 0.80669 0.59687 0.40142 0.0
C145 C 0.82892 0.6506 0.40127 0.0
N146 N 0.80978 0.63652 0.41019 0.0
C147 C 0.85077 0.56676 0.32694 0.0
C148 C 0.80339 0.59693 0.29683 0.0
C149 C 0.81117 0.55943 0.28819 0.0
C150 C 0.83524 0.54461 0.30355 0.0
C151 C 0.81988 0.6187 0.32022 0.0
N152 N 0.84358 0.60401 0.33455 0.0
H153 H 0.86803 0.55244 0.33998 0.0
H154 H 0.81308 0.64631 0.32763 0.0
H155 H 0.82627 0.55856 0.37768 0.0
H156 H 0.83668 0.68129 0.40521 0.0
O157 O 0.8804 0.57882 0.38932 0.0
O158 O 0.8881 0.64043 0.40957 0.0
O159 O 0.85208 0.68573 0.35793 0.0
C160 C 0.89281 0.60107 0.4114 0.0
H161 H 0.94181 0.69242 0.35457 0.0
H162 H 0.79269 0.57599 0.40454 0.0
H163 H 0.78462 0.60883 0.28604 0.0
H164 H 0.84154 0.51483 0.2986 0.0
Co165 Co 0.14814 0.63075 0.13862 0.0
C166 C 0.11771 0.61284 0.17822 0.0
C167 C 0.12757 0.67661 0.17842 0.0
C168 C 0.11352 0.6714 0.19681 0.0
N169 N 0.13058 0.63989 0.16699 0.0
N170 N 0.10724 0.63147 0.19661 0.0
H171 H 0.11589 0.58043 0.17301 0.0
H172 H 0.1346 0.70563 0.17345 0.0
C173 C 0.18783 0.69586 0.15619 0.0
O174 O 0.20468 0.66718 0.1572 0.0
N175 N 0.16486 0.62326 0.10882 0.0
C176 C 0.16624 0.58894 0.09366 0.0
C177 C 0.17811 0.59799 0.07341 0.0
C178 C 0.17429 0.65316 0.09574 0.0
N179 N 0.18333 0.63847 0.07488 0.0
C180 C 0.18323 0.56605 0.16341 0.0
C181 C 0.20261 0.59878 0.2187 0.0
C182 C 0.211 0.56017 0.21288 0.0
C183 C 0.20122 0.54402 0.18481 0.0
C184 C 0.18495 0.62045 0.19629 0.0
N185 N 0.17572 0.60427 0.16881 0.0
H186 H 0.17449 0.55112 0.14298 0.0
H187 H 0.17839 0.64993 0.2012 0.0
H188 H 0.15827 0.55943 0.09601 0.0
H189 H 0.17413 0.68536 0.10082 0.0
O190 O 0.12831 0.58252 0.12516 0.0
O191 O 0.11729 0.64514 0.1077 0.0
O192 O 0.16432 0.68679 0.14831 0.0
C193 C 0.11188 0.60604 0.1071 0.0
H194 H 0.10756 0.69541 0.20869 0.0
H195 H 0.18186 0.57658 0.05817 0.0
H196 H 0.20941 0.61185 0.24037 0.0
H197 H 0.20648 0.51354 0.1798 0.0
Co198 Co 0.1521 0.38363 0.63241 0.0
C199 C 0.12255 0.40188 0.67293 0.0
C200 C 0.12815 0.33724 0.66829 0.0
C201 C 0.11437 0.34223 0.687 0.0
N202 N 0.1337 0.37451 0.6598 0.0
N203 N 0.1108 0.38267 0.68981 0.0
H204 H 0.12288 0.43483 0.67012 0.0
H205 H 0.13312 0.30817 0.66085 0.0
C206 C 0.19158 0.31802 0.65006 0.0
O207 O 0.20854 0.34601 0.65002 0.0
N208 N 0.16969 0.39103 0.60349 0.0
C209 C 0.17287 0.42574 0.58972 0.0
C210 C 0.18527 0.41641 0.57002 0.0
C211 C 0.17851 0.36085 0.59001 0.0
N212 N 0.18899 0.37551 0.5704 0.0
C213 C 0.18628 0.44863 0.65899 0.0
C214 C 0.20601 0.41305 0.71334 0.0
C215 C 0.21403 0.45232 0.7085 0.0
C216 C 0.20406 0.47004 0.68101 0.0
C217 C 0.18847 0.39218 0.69037 0.0
N218 N 0.17922 0.40967 0.66332 0.0
H219 H 0.17733 0.46451 0.639 0.0
H220 H 0.18187 0.36235 0.69456 0.0
H221 H 0.16575 0.45574 0.59253 0.0
H222 H 0.17713 0.32854 0.59419 0.0
O223 O 0.13246 0.43199 0.61844 0.0
O224 O 0.12168 0.36937 0.60084 0.0
O225 O 0.16814 0.32752 0.64275 0.0
C226 C 0.11624 0.40848 0.60012 0.0
H227 H 0.10678 0.31797 0.69708 0.0
H228 H 0.19051 0.438 0.55593 0.0
H229 H 0.21289 0.399 0.73468 0.0
H230 H 0.20914 0.50106 0.67694 0.0
Co231 Co 0.8669 0.38458 0.86528 0.0
C232 C 0.90712 0.39787 0.83557 0.0
C233 C 0.90877 0.33993 0.85714 0.0
C234 C 0.92903 0.34236 0.84706 0.0
N235 N 0.89473 0.37439 0.84987 0.0
N236 N 0.92807 0.37873 0.83358 0.0
H237 H 0.90208 0.42876 0.82804 0.0
H238 H 0.90491 0.31501 0.86988 0.0
C239 C 0.85231 0.30959 0.82918 0.0
O240 O 0.85876 0.32969 0.80907 0.0
N241 N 0.84013 0.39237 0.8821 0.0
C242 C 0.82738 0.42694 0.8836 0.0
C243 C 0.81058 0.41832 0.89851 0.0
C244 C 0.83113 0.36344 0.89612 0.0
N245 N 0.81296 0.37829 0.90642 0.0
C246 C 0.85186 0.44523 0.82058 0.0
C247 C 0.80411 0.41464 0.7927 0.0
C248 C 0.81103 0.45257 0.78373 0.0
C249 C 0.8354 0.46745 0.79785 0.0
C250 C 0.82135 0.39311 0.81555 0.0
N251 N 0.84513 0.40812 0.82892 0.0
H252 H 0.86937 0.45959 0.83279 0.0
H253 H 0.81498 0.36556 0.82349 0.0
H254 H 0.83027 0.45633 0.87474 0.0
H255 H 0.83788 0.3321 0.89861 0.0
O256 O 0.88261 0.43464 0.88296 0.0
O257 O 0.89034 0.37349 0.90395 0.0
O258 O 0.85399 0.32713 0.85335 0.0
C259 C 0.89509 0.41282 0.90528 0.0
H260 H 0.94365 0.31939 0.84985 0.0
H261 H 0.79799 0.44023 0.90357 0.0
H262 H 0.78531 0.40232 0.78281 0.0
H263 H 0.84124 0.49743 0.7927 0.0
C264 C 0.19801 0.31031 0.54901 0.0
C265 C 0.20267 0.35244 0.55468 0.0
C266 C 0.21241 0.28744 0.53551 0.0
C267 C 0.2559 0.29754 0.49138 0.0
H268 H 0.27549 0.18686 0.51896 0.0
C269 C 0.3263 0.20137 0.45187 0.0
C270 C 0.31956 0.16016 0.44438 0.0
C271 C 0.31301 0.22511 0.46631 0.0
C272 C 0.27003 0.21761 0.51085 0.0
H273 H 0.22624 0.40339 0.55037 0.0
H274 H 0.25135 0.36361 0.52696 0.0
H275 H 0.24995 0.22772 0.54127 0.0
H276 H 0.29336 0.11199 0.44699 0.0
H277 H 0.27072 0.15301 0.47232 0.0
H278 H 0.27611 0.28735 0.46102 0.0
C279 C 0.23629 0.34831 0.53256 0.0
C280 C 0.2553 0.24104 0.52358 0.0
C281 C 0.22184 0.3712 0.54599 0.0
C282 C 0.29955 0.14323 0.45255 0.0
C283 C 0.28642 0.16688 0.46713 0.0
C284 C 0.27073 0.27414 0.47872 0.0
C285 C 0.23194 0.30601 0.52737 0.0
C286 C 0.24788 0.28125 0.51392 0.0
C287 C 0.29276 0.20825 0.4739 0.0
C288 C 0.27786 0.23379 0.48818 0.0
H289 H 0.18317 0.29489 0.55491 0.0
H290 H 0.20813 0.25515 0.53133 0.0
H291 H 0.2503 0.32816 0.48309 0.0
H292 H 0.34175 0.21559 0.4465 0.0
H293 H 0.31865 0.25673 0.4716 0.0
C294 C 0.71667 0.15185 0.04306 0.0
C295 C 0.69545 0.16639 0.04985 0.0
C296 C 0.72862 0.17629 0.02762 0.0
C297 C 0.71952 0.26468 0.97783 0.0
H298 H 0.79277 0.26805 0.00508 0.0
C299 C 0.77671 0.37166 0.92569 0.0
C300 C 0.79936 0.3561 0.92277 0.0
C301 C 0.76363 0.35008 0.94148 0.0
C302 C 0.77232 0.26712 0.99688 0.0
H303 H 0.66989 0.21801 0.04502 0.0
H304 H 0.6908 0.26081 0.01792 0.0
H305 H 0.77052 0.2275 0.03144 0.0
H306 H 0.82587 0.3052 0.93481 0.0
H307 H 0.80279 0.26735 0.96118 0.0
H308 H 0.72132 0.30373 0.94293 0.0
C309 C 0.69813 0.23033 0.02463 0.0
C310 C 0.75955 0.2439 0.01209 0.0
C311 C 0.68626 0.20592 0.04034 0.0
C312 C 0.80845 0.31827 0.93611 0.0
C313 C 0.79531 0.29665 0.95172 0.0
C314 C 0.73232 0.28773 0.96244 0.0
C315 C 0.71964 0.21593 0.01838 0.0
C316 C 0.73301 0.24208 0.00264 0.0
C317 C 0.77276 0.31225 0.95474 0.0
C318 C 0.75893 0.28899 0.97162 0.0
H319 H 0.72452 0.12186 0.0503 0.0
H320 H 0.74495 0.16405 0.02288 0.0
H321 H 0.69906 0.26366 0.96985 0.0
H322 H 0.76887 0.40038 0.91561 0.0
H323 H 0.74647 0.36335 0.94354 0.0
C324 C 0.68692 0.80242 0.55087 0.0
C325 C 0.68944 0.84553 0.55235 0.0
C326 C 0.69881 0.77894 0.53471 0.0
C327 C 0.72716 0.78599 0.47524 0.0
H328 H 0.76271 0.68673 0.50942 0.0
C329 C 0.79494 0.70239 0.42501 0.0
C330 C 0.7956 0.65916 0.42561 0.0
C331 C 0.78132 0.7243 0.43997 0.0
C332 C 0.75259 0.71403 0.49931 0.0
H333 H 0.70685 0.89715 0.53753 0.0
H334 H 0.72704 0.85644 0.50928 0.0
H335 H 0.73968 0.72594 0.5358 0.0
H336 H 0.78228 0.60537 0.44284 0.0
H337 H 0.75806 0.64345 0.46819 0.0
H338 H 0.73991 0.77413 0.43871 0.0
C339 C 0.71565 0.84086 0.52046 0.0
C340 C 0.73939 0.73655 0.5145 0.0
C341 C 0.70393 0.86431 0.53674 0.0
C342 C 0.78212 0.63854 0.44157 0.0
C343 C 0.76842 0.66048 0.45647 0.0
C344 C 0.74025 0.76338 0.46 0.0
C345 C 0.71341 0.79786 0.51939 0.0
C346 C 0.72665 0.77298 0.50274 0.0
C347 C 0.76782 0.70369 0.4559 0.0
C348 C 0.75331 0.72722 0.47189 0.0
H349 H 0.67577 0.78651 0.56214 0.0
H350 H 0.69642 0.74591 0.53405 0.0
H351 H 0.71725 0.81356 0.46534 0.0
H352 H 0.80476 0.71951 0.41276 0.0
H353 H 0.78163 0.75754 0.43928 0.0
C354 C 0.31829 0.8052 0.95038 0.0
C355 C 0.31473 0.84792 0.94674 0.0
C356 C 0.30419 0.78211 0.96418 0.0
C357 C 0.24473 0.78545 0.98303 0.0
H358 H 0.27544 0.69642 0.03548 0.0
C359 C 0.19355 0.70385 0.05467 0.0
C360 C 0.19668 0.66111 0.05857 0.0
C361 C 0.2076 0.72604 0.04038 0.0
C362 C 0.26647 0.72084 0.02061 0.0
H363 H 0.29343 0.89958 0.95517 0.0
H364 H 0.26946 0.85966 0.97972 0.0
H365 H 0.30101 0.73624 0.0126 0.0
H366 H 0.2171 0.60839 0.05011 0.0
H367 H 0.24117 0.6469 0.02473 0.0
H368 H 0.21022 0.77014 0.99109 0.0
C369 C 0.28291 0.84386 0.97153 0.0
C370 C 0.28116 0.74373 0.00749 0.0
C371 C 0.29698 0.86692 0.95775 0.0
C372 C 0.21396 0.64113 0.04732 0.0
C373 C 0.22804 0.66334 0.03307 0.0
C374 C 0.23005 0.76259 0.99616 0.0
C375 C 0.28614 0.80109 0.9747 0.0
C376 C 0.27051 0.77643 0.98859 0.0
C377 C 0.22519 0.70614 0.02959 0.0
C378 C 0.24073 0.73004 0.01518 0.0
H379 H 0.33191 0.78939 0.94254 0.0
H380 H 0.30709 0.74921 0.96604 0.0
H381 H 0.23574 0.80989 0.96818 0.0
H382 H 0.18026 0.72035 0.06267 0.0
H383 H 0.20502 0.759 0.03832 0.0
C384 C 0.59488 0.11667 0.23269 0.0
C385 C 0.59176 0.11497 0.20275 0.0
C386 C 0.57454 0.10902 0.24294 0.0
C387 C 0.50649 0.12074 0.22021 0.0
H388 H 0.51046 0.05814 0.28964 0.0
C389 C 0.42224 0.11813 0.26403 0.0
C390 C 0.42746 0.11987 0.29432 0.0
C391 C 0.44141 0.10971 0.25202 0.0
C392 C 0.50907 0.07612 0.27039 0.0
H393 H 0.56515 0.10258 0.16012 0.0
H394 H 0.52928 0.08979 0.17798 0.0
H395 H 0.54586 0.05706 0.27015 0.0
H396 H 0.45656 0.11301 0.33591 0.0
H397 H 0.49051 0.09991 0.31516 0.0
H398 H 0.47054 0.1418 0.22104 0.0
C399 C 0.54758 0.09684 0.19351 0.0
C400 C 0.52932 0.07523 0.25913 0.0
C401 C 0.56809 0.10384 0.18331 0.0
C402 C 0.45208 0.1115 0.31248 0.0
C403 C 0.47147 0.10389 0.30048 0.0
C404 C 0.48645 0.12215 0.23166 0.0
C405 C 0.55051 0.10009 0.2234 0.0
C406 C 0.52829 0.09778 0.23403 0.0
C407 C 0.46651 0.10377 0.27003 0.0
C408 C 0.48746 0.1001 0.25706 0.0
H409 H 0.61298 0.12493 0.24812 0.0
H410 H 0.57735 0.11203 0.26603 0.0
H411 H 0.50533 0.13904 0.20114 0.0
H412 H 0.40328 0.12393 0.24961 0.0
H413 H 0.43655 0.10863 0.22854 0.0
C414 C 0.59616 0.90457 0.7411 0.0
C415 C 0.59095 0.9023 0.71084 0.0
C416 C 0.57697 0.9134 0.75302 0.0
C417 C 0.50877 0.9455 0.73386 0.0
H418 H 0.51318 0.88516 0.80435 0.0
C419 C 0.42361 0.89944 0.77121 0.0
C420 C 0.42617 0.90304 0.80092 0.0
C421 C 0.44382 0.90866 0.76108 0.0
C422 C 0.51183 0.90275 0.78492 0.0
H423 H 0.56188 0.90844 0.66918 0.0
H424 H 0.5279 0.92204 0.68973 0.0
H425 H 0.54823 0.88294 0.78487 0.0
H426 H 0.45151 0.92031 0.84324 0.0
H427 H 0.48731 0.93566 0.82564 0.0
H428 H 0.47146 0.96291 0.73325 0.0
C429 C 0.54693 0.91839 0.7045 0.0
C430 C 0.53203 0.90168 0.7737 0.0
C431 C 0.56635 0.9105 0.6926 0.0
C432 C 0.44903 0.91768 0.8202 0.0
C433 C 0.46949 0.92613 0.81017 0.0
C434 C 0.48835 0.94591 0.74485 0.0
C435 C 0.55185 0.91904 0.73496 0.0
C436 C 0.53079 0.92275 0.74783 0.0
C437 C 0.46721 0.92092 0.78057 0.0
C438 C 0.48962 0.92426 0.77037 0.0
H439 H 0.6151 0.89868 0.75554 0.0
H440 H 0.58184 0.9149 0.77649 0.0
H441 H 0.50715 0.96278 0.71425 0.0
H442 H 0.40613 0.88822 0.75597 0.0
H443 H 0.44155 0.90406 0.73823 0.0
C444 C 0.07065 0.5889 0.19716 0.0
C445 C 0.09109 0.61439 0.21165 0.0
C446 C 0.05256 0.57826 0.21052 0.0
C447 C 0.0409 0.57578 0.28192 0.0
H448 H 0.9716 0.60272 0.23783 0.0
C449 C 0.96943 0.62864 0.33677 0.0
C450 C 0.94379 0.61805 0.32502 0.0
C451 C 0.98674 0.61744 0.32272 0.0
C452 C 0.99073 0.59415 0.25031 0.0
H453 H 0.10948 0.64682 0.25174 0.0
H454 H 0.07842 0.62778 0.27528 0.0
H455 H 1.0038 0.60116 0.21341 0.0
H456 H 0.9163 0.5863 0.28969 0.0
H457 H 0.94675 0.56654 0.26482 0.0
H458 H 0.02812 0.57012 0.319 0.0
C459 C 0.07614 0.61603 0.25367 0.0
C460 C 0.0092 0.59326 0.2363 0.0
C461 C 0.09388 0.62713 0.24019 0.0
C462 C 0.93597 0.59472 0.29927 0.0
C463 C 0.95336 0.58373 0.28497 0.0
C464 C 0.02248 0.57653 0.29587 0.0
C465 C 0.05493 0.5923 0.23879 0.0
C466 C 0.03465 0.58548 0.25219 0.0
C467 C 0.97893 0.59536 0.29642 0.0
C468 C 0.99734 0.58719 0.28049 0.0
H469 H 0.068 0.57909 0.17502 0.0
H470 H 0.03645 0.55983 0.19856 0.0
H471 H 0.06027 0.56899 0.29466 0.0
H472 H 0.97609 0.64617 0.35676 0.0
H473 H 1.00616 0.62744 0.33202 0.0
C474 C 0.0732 0.42036 0.69235 0.0
C475 C 0.09589 0.39967 0.70632 0.0
C476 C 0.05552 0.42728 0.70704 0.0
C477 C 0.03767 0.37913 0.76648 0.0
H478 H 0.99216 0.47153 0.75904 0.0
C479 C 0.97246 0.38502 0.83561 0.0
C480 C 0.94685 0.3936 0.82138 0.0
C481 C 0.99062 0.39302 0.82212 0.0
C482 C 1.00467 0.44545 0.76114 0.0
H483 H 0.11894 0.3728 0.74675 0.0
H484 H 0.08889 0.38634 0.7729 0.0
H485 H 0.02477 0.47351 0.7348 0.0
H486 H 0.92028 0.41966 0.7826 0.0
H487 H 0.95225 0.43338 0.75847 0.0
H488 H 0.01775 0.35074 0.79238 0.0
C489 C 0.08416 0.3962 0.75044 0.0
C490 C 0.02334 0.44658 0.7473 0.0
C491 C 0.10153 0.38886 0.73569 0.0
C492 C 0.93994 0.41286 0.794 0.0
C493 C 0.95822 0.42066 0.78026 0.0
C494 C 0.01921 0.37805 0.78024 0.0
C495 C 0.06043 0.4137 0.73595 0.0
C496 C 0.04029 0.41356 0.75016 0.0
C497 C 0.98365 0.40946 0.79383 0.0
C498 C 1.00267 0.41132 0.77812 0.0
H499 H 0.0684 0.42836 0.66953 0.0
H500 H 0.03743 0.44076 0.6952 0.0
H501 H 0.04974 0.35251 0.76839 0.0
H502 H 0.97834 0.37092 0.85697 0.0
H503 H 0.01011 0.38506 0.83353 0.0
C504 C 0.17874 0.76996 0.16356 0.0
C505 C 0.19608 0.73902 0.16263 0.0
C506 C 0.18687 0.81044 0.1705 0.0
C507 C 0.23998 0.88129 0.17516 0.0
H508 H 0.21986 0.93514 0.23578 0.0
C509 C 0.3017 0.99873 0.25318 0.0
C510 C 0.2906 0.03072 0.2643 0.0
C511 C 0.2867 0.96999 0.23408 0.0
C512 C 0.22523 0.92108 0.21834 0.0
H513 H 0.23546 0.7266 0.16763 0.0
H514 H 0.24956 0.79688 0.17979 0.0
H515 H 0.19983 0.87069 0.21512 0.0
H516 H 0.25526 0.05927 0.26314 0.0
H517 H 0.22871 0.00858 0.2295 0.0
H518 H 0.26602 0.93088 0.17912 0.0
C519 C 0.22966 0.79002 0.17493 0.0
C520 C 0.21379 0.88405 0.20654 0.0
C521 C 0.22159 0.7496 0.1682 0.0
C522 C 0.26419 0.03486 0.25474 0.0
C523 C 0.24908 1.00574 0.23573 0.0
C524 C 0.25136 0.91831 0.18689 0.0
C525 C 0.21245 0.82085 0.17637 0.0
C526 C 0.22165 0.86308 0.18553 0.0
C527 C 0.26021 0.97243 0.22576 0.0
C528 C 0.24473 0.9379 0.20932 0.0
H529 H 0.15892 0.7629 0.15923 0.0
H530 H 0.17315 0.83359 0.17129 0.0
H531 H 0.24606 0.86627 0.15855 0.0
H532 H 0.32206 0.99505 0.2602 0.0
H533 H 0.29593 0.94454 0.22715 0.0
C534 C 0.73963 0.02804 0.25304 0.0
C535 C 0.73881 0.03179 0.22385 0.0
C536 C 0.75569 0.99917 0.2713 0.0
C537 C 0.81063 0.93098 0.27792 0.0
H538 H 0.77701 0.85528 0.31535 0.0
C539 C 0.84235 0.76405 0.30128 0.0
C540 C 0.84118 0.74486 0.3268 0.0
C541 C 0.83292 0.80368 0.29416 0.0
C542 C 0.78689 0.87652 0.30557 0.0
H543 H 0.75496 0.01038 0.19127 0.0
H544 H 0.7831 0.9605 0.22303 0.0
H545 H 0.75571 0.91853 0.29372 0.0
H546 H 0.82939 0.75251 0.3651 0.0
H547 H 0.81278 0.82209 0.35254 0.0
H548 H 0.84145 0.88843 0.28888 0.0
C549 C 0.77146 0.97962 0.23196 0.0
C550 C 0.77469 0.91282 0.2932 0.0
C551 C 0.75526 0.00799 0.2137 0.0
C552 C 0.83057 0.76646 0.34526 0.0
C553 C 0.82098 0.80622 0.33803 0.0
C554 C 0.82283 0.89481 0.29032 0.0
C555 C 0.77142 0.9741 0.26074 0.0
C556 C 0.78611 0.93976 0.27841 0.0
C557 C 0.82202 0.82523 0.31234 0.0
C558 C 0.81076 0.86649 0.30343 0.0
H559 H 0.72698 0.0459 0.26127 0.0
H560 H 0.75537 0.99573 0.29343 0.0
H561 H 0.82008 0.95149 0.26711 0.0
H562 H 0.8504 0.74837 0.28655 0.0
H563 H 0.83362 0.81704 0.27394 0.0
C564 C 0.75443 1.00127 0.71606 0.0
C565 C 0.73723 0.97975 0.72642 0.0
C566 C 0.77098 0.02977 0.73373 0.0
C567 C 0.77449 0.10077 0.79304 0.0
H568 H 0.84158 0.12137 0.78845 0.0
C569 C 0.83191 0.24683 0.84224 0.0
C570 C 0.84257 0.26711 0.82328 0.0
C571 C 0.82201 0.20713 0.83582 0.0
C572 C 0.82287 0.11603 0.78996 0.0
H573 H 0.72455 0.96967 0.76377 0.0
H574 H 0.75363 0.01985 0.79489 0.0
H575 H 0.81959 0.05808 0.76817 0.0
H576 H 0.85162 0.26126 0.78305 0.0
H577 H 0.83433 0.19257 0.77185 0.0
H578 H 0.7774 0.15946 0.81385 0.0
C579 C 0.7542 0.01467 0.77301 0.0
C580 C 0.81031 0.07976 0.7784 0.0
C581 C 0.73774 0.98574 0.75534 0.0
C582 C 0.84353 0.24661 0.79812 0.0
C583 C 0.8338 0.207 0.79182 0.0
C584 C 0.78708 0.13711 0.80462 0.0
C585 C 0.77062 0.03763 0.76214 0.0
C586 C 0.78566 0.0723 0.77898 0.0
C587 C 0.82279 0.18684 0.81046 0.0
C588 C 0.81108 0.14572 0.80236 0.0
H589 H 0.75445 0.99708 0.69387 0.0
H590 H 0.78315 0.04719 0.72453 0.0
H591 H 0.75543 0.09615 0.7936 0.0
H592 H 0.8309 0.26179 0.86183 0.0
H593 H 0.81374 0.19233 0.85067 0.0
C594 C 0.18609 0.24996 0.67119 0.0
C595 C 0.19968 0.27529 0.65803 0.0
C596 C 0.19471 0.21039 0.68045 0.0
C597 C 0.25338 0.1473 0.69913 0.0
H598 H 0.20768 0.06022 0.70456 0.0
C599 C 0.29019 0.98866 0.74562 0.0
C600 C 0.2831 0.97899 0.7702 0.0
C601 C 0.27757 0.01972 0.72656 0.0
C602 C 0.2206 0.08424 0.70296 0.0
H603 H 0.23219 0.27859 0.64284 0.0
H604 H 0.24665 0.20899 0.65764 0.0
H605 H 0.19053 0.12481 0.68069 0.0
H606 H 0.25642 0.99189 0.79322 0.0
H607 H 0.23385 0.04543 0.75941 0.0
H608 H 0.28339 0.1064 0.72121 0.0
C609 C 0.22989 0.21999 0.66199 0.0
C610 C 0.21084 0.12141 0.68954 0.0
C611 C 0.22154 0.25986 0.65332 0.0
C612 C 0.26213 0.9988 0.77432 0.0
C613 C 0.24922 0.02928 0.75498 0.0
C614 C 0.26309 0.10992 0.71201 0.0
C615 C 0.21689 0.19492 0.67623 0.0
C616 C 0.2271 0.15383 0.68798 0.0
C617 C 0.2574 0.04101 0.73152 0.0
C618 C 0.24682 0.07833 0.71453 0.0
H619 H 0.16929 0.26123 0.67532 0.0
H620 H 0.18438 0.19255 0.69177 0.0
H621 H 0.2666 0.17156 0.699 0.0
H622 H 0.30647 0.97407 0.74219 0.0
H623 H 0.28416 0.02817 0.70856 0.0
C624 C 0.76968 0.52335 0.2661 0.0
C625 C 0.79398 0.5332 0.2653 0.0
C626 C 0.75576 0.49172 0.24857 0.0
C627 C 0.76845 0.39584 0.21674 0.0
H628 H 0.69625 0.3917 0.17707 0.0
C629 C 0.72361 0.25214 0.15311 0.0
C630 C 0.70044 0.23871 0.15551 0.0
C631 C 0.73305 0.29095 0.16314 0.0
C632 C 0.7164 0.39225 0.18828 0.0
H633 H 0.82176 0.52051 0.24371 0.0
H634 H 0.79749 0.46573 0.21304 0.0
H635 H 0.71571 0.45585 0.19994 0.0
H636 H 0.66853 0.25617 0.1694 0.0
H637 H 0.68542 0.32352 0.18785 0.0
H638 H 0.76934 0.33239 0.20621 0.0
C639 C 0.78939 0.48168 0.22761 0.0
C640 C 0.72753 0.42904 0.20127 0.0
C641 C 0.80323 0.51314 0.24506 0.0
C642 C 0.6865 0.26554 0.16734 0.0
C643 C 0.69612 0.30431 0.17775 0.0
C644 C 0.75737 0.35918 0.20405 0.0
C645 C 0.76597 0.46949 0.23 0.0
C646 C 0.75372 0.43122 0.21548 0.0
C647 C 0.71976 0.31721 0.17624 0.0
C648 C 0.73123 0.35684 0.18949 0.0
H649 H 0.76216 0.53812 0.28165 0.0
H650 H 0.73778 0.48297 0.25092 0.0
H651 H 0.78858 0.39618 0.22817 0.0
H652 H 0.73463 0.23251 0.14366 0.0
H653 H 0.75097 0.30019 0.16086 0.0
C654 C 0.22092 0.52262 0.26018 0.0
C655 C 0.22808 0.53447 0.23604 0.0
C656 C 0.23417 0.49154 0.27879 0.0
C657 C 0.29287 0.43055 0.30159 0.0
H658 H 0.24899 0.33983 0.30514 0.0
C659 C 0.33096 0.26588 0.33132 0.0
C660 C 0.31804 0.23912 0.34441 0.0
C661 C 0.32153 0.30526 0.32257 0.0
C662 C 0.26163 0.36502 0.3051 0.0
H663 H 0.25545 0.52541 0.21338 0.0
H664 H 0.27905 0.47187 0.24636 0.0
H665 H 0.23065 0.40459 0.28371 0.0
H666 H 0.28598 0.23348 0.36028 0.0
H667 H 0.27014 0.30257 0.34631 0.0
H668 H 0.32391 0.39123 0.3231 0.0
C669 C 0.26318 0.48631 0.25083 0.0
C670 C 0.25103 0.4022 0.29268 0.0
C671 C 0.24968 0.51682 0.23195 0.0
C672 C 0.29613 0.25317 0.34976 0.0
C673 C 0.28697 0.29279 0.34157 0.0
C674 C 0.30352 0.39353 0.31451 0.0
C675 C 0.25503 0.47238 0.27382 0.0
C676 C 0.26652 0.43508 0.29032 0.0
C677 C 0.29921 0.31914 0.32725 0.0
C678 C 0.28805 0.35992 0.31593 0.0
H679 H 0.20417 0.53552 0.26359 0.0
H680 H 0.22759 0.48144 0.29645 0.0
H681 H 0.30523 0.45554 0.30014 0.0
H682 H 0.34794 0.25601 0.32695 0.0
H683 H 0.33137 0.32421 0.31128 0.0
C684 C 0.22111 0.49809 0.75141 0.0
C685 C 0.23097 0.47705 0.73219 0.0
C686 C 0.23531 0.52868 0.76964 0.0
C687 C 0.28753 0.60052 0.77249 0.0
H688 H 0.27786 0.63359 0.84517 0.0
C689 C 0.33528 0.74475 0.8361 0.0
C690 C 0.31828 0.77223 0.84244 0.0
C691 C 0.32772 0.70477 0.8267 0.0
C692 C 0.28077 0.62459 0.82493 0.0
H693 H 0.26354 0.46942 0.71766 0.0
H694 H 0.28903 0.52133 0.75054 0.0
H695 H 0.26011 0.56863 0.82253 0.0
H696 H 0.28038 0.77859 0.8452 0.0
H697 H 0.26737 0.70868 0.82922 0.0
H698 H 0.30818 0.65657 0.775 0.0
C699 C 0.27011 0.51533 0.7511 0.0
C700 C 0.27052 0.58748 0.81185 0.0
C701 C 0.25572 0.48521 0.73256 0.0
C702 C 0.29389 0.75833 0.84028 0.0
C703 C 0.28648 0.71819 0.83134 0.0
C704 C 0.29806 0.63726 0.78579 0.0
C705 C 0.25975 0.53858 0.76912 0.0
C706 C 0.27327 0.57535 0.78508 0.0
C707 C 0.30316 0.69123 0.82399 0.0
C708 C 0.29434 0.6501 0.8118 0.0
H709 H 0.20184 0.49264 0.75102 0.0
H710 H 0.22646 0.54612 0.7828 0.0
H711 H 0.28969 0.59289 0.75165 0.0
H712 H 0.35427 0.75433 0.83777 0.0
H713 H 0.341 0.68449 0.82135 0.0
C714 C 0.67984 0.74542 0.66967 0.0
C715 C 0.69533 0.77277 0.66056 0.0
C716 C 0.68812 0.70549 0.67848 0.0
C717 C 0.73402 0.62611 0.67379 0.0
H718 H 0.73121 0.59105 0.7492 0.0
C719 C 0.80037 0.50301 0.74243 0.0
C720 C 0.79254 0.479 0.76212 0.0
C721 C 0.78453 0.53318 0.72565 0.0
C722 C 0.73167 0.59975 0.72779 0.0
H723 H 0.73129 0.77913 0.65257 0.0
H724 H 0.74557 0.70953 0.66767 0.0
H725 H 0.71073 0.65485 0.72801 0.0
H726 H 0.76119 0.46623 0.77822 0.0
H727 H 0.73319 0.51798 0.7482 0.0
H728 H 0.75519 0.57135 0.67363 0.0
C729 C 0.72705 0.71893 0.66805 0.0
C730 C 0.71998 0.63648 0.71571 0.0
C731 C 0.71893 0.75894 0.65961 0.0
C732 C 0.76781 0.48403 0.76319 0.0
C733 C 0.75187 0.51414 0.74626 0.0
C734 C 0.74551 0.58919 0.68573 0.0
C735 C 0.71189 0.69192 0.6779 0.0
C736 C 0.72157 0.65056 0.68892 0.0
C737 C 0.76032 0.53997 0.72795 0.0
C738 C 0.74507 0.57604 0.71326 0.0
H739 H 0.66151 0.75506 0.67054 0.0
H740 H 0.67598 0.68524 0.68581 0.0
H741 H 0.73521 0.6359 0.65288 0.0
H742 H 0.81918 0.49954 0.74079 0.0
H743 H 0.79185 0.55255 0.71201 0.0
C744 C 0.4406 0.11268 0.44202 0.0
C745 C 0.42597 0.09032 0.4177 0.0
C746 C 0.46081 0.09368 0.46323 0.0
C747 C 0.48369 0.99017 0.49153 0.0
H748 H 0.54796 0.04448 0.52644 0.0
C749 C 0.57294 0.90474 0.56431 0.0
C750 C 0.5888 0.92658 0.58812 0.0
C751 C 0.55245 0.92449 0.54406 0.0
C752 C 0.53001 0.02901 0.51717 0.0
H753 H 0.42176 0.03119 0.39591 0.0
H754 H 0.45681 0.99867 0.43235 0.0
H755 H 0.51392 0.08084 0.49041 0.0
H756 H 0.59491 0.98555 0.61019 0.0
H757 H 0.55919 0.01938 0.57551 0.0
H758 H 0.49974 0.93834 0.51825 0.0
C759 C 0.45247 0.0304 0.43558 0.0
C760 C 0.51051 0.04992 0.49652 0.0
C761 C 0.43243 0.04923 0.41455 0.0
C762 C 0.58325 0.96793 0.59186 0.0
C763 C 0.56283 0.9875 0.57183 0.0
C764 C 0.50317 0.96929 0.51221 0.0
C765 C 0.46665 0.05205 0.46044 0.0
C766 C 0.48716 0.03067 0.48331 0.0
C767 C 0.54743 0.96635 0.54737 0.0
C768 C 0.52661 0.98839 0.52526 0.0
H769 H 0.43603 0.14435 0.44504 0.0
H770 H 0.47138 0.11119 0.4822 0.0
H771 H 0.46578 0.97465 0.48211 0.0
H772 H 0.57683 0.87289 0.56084 0.0
H773 H 0.54102 0.90731 0.52536 0.0
C774 C 0.58801 0.04588 0.08313 0.0
C775 C 0.59246 0.08826 0.08193 0.0
C776 C 0.56665 0.02772 0.06378 0.0
C777 C 0.51886 0.04157 0.99195 0.0
H778 H 0.4839 0.95516 0.019 0.0
C779 C 0.42537 0.9715 0.91911 0.0
C780 C 0.42173 0.9289 0.9205 0.0
C781 C 0.44621 0.99075 0.93867 0.0
C782 C 0.49365 0.97884 0.01102 0.0
H783 H 0.57773 0.14495 0.05957 0.0
H784 H 0.53995 0.11305 0.02553 0.0
H785 H 0.51906 0.99103 0.05369 0.0
H786 H 0.43729 0.87299 0.94346 0.0
H787 H 0.47407 0.90675 0.97783 0.0
H788 H 0.49345 0.02932 0.94927 0.0
C789 C 0.55329 0.09391 0.04145 0.0
C790 C 0.51376 0.99954 0.03092 0.0
C791 C 0.57481 0.11224 0.06101 0.0
C792 C 0.43958 0.90585 0.94187 0.0
C793 C 0.46053 0.92524 0.96162 0.0
C794 C 0.49873 0.02087 0.97205 0.0
C795 C 0.54902 0.05135 0.04262 0.0
C796 C 0.5267 0.03103 0.02162 0.0
C797 C 0.46404 0.96798 0.96023 0.0
C798 C 0.4859 0.9892 0.98133 0.0
H799 H 0.60121 0.02638 0.09894 0.0
H800 H 0.56425 0.99483 0.06505 0.0
H801 H 0.52866 0.06516 0.98397 0.0
H802 H 0.41198 0.99028 0.90295 0.0
H803 H 0.44807 0.02372 0.93721 0.0
C804 C 0.0894 0.46911 0.57943 0.0
C805 C 0.09254 0.42623 0.58051 0.0
C806 C 0.06679 0.48685 0.56249 0.0
C807 C 0.00944 0.46741 0.50048 0.0
H808 H 0.98357 0.56141 0.5315 0.0
C809 C 0.91363 0.53899 0.43834 0.0
C810 C 0.91277 0.58199 0.43573 0.0
C811 C 0.93428 0.51955 0.45807 0.0
C812 C 0.99065 0.53541 0.52246 0.0
H813 H 0.07448 0.36827 0.56432 0.0
H814 H 0.03459 0.39939 0.53461 0.0
H815 H 0.022 0.52715 0.56127 0.0
H816 H 0.93235 0.63854 0.4527 0.0
H817 H 0.96876 0.60445 0.48736 0.0
H818 H 0.97821 0.47581 0.46161 0.0
C819 C 0.04984 0.41926 0.54681 0.0
C820 C 0.01267 0.51574 0.53949 0.0
C821 C 0.07263 0.4014 0.56382 0.0
C822 C 0.93245 0.60536 0.45437 0.0
C823 C 0.95328 0.5858 0.47417 0.0
C824 C 0.98741 0.48702 0.48348 0.0
C825 C 0.0466 0.46222 0.54621 0.0
C826 C 0.02245 0.48171 0.52861 0.0
C827 C 0.9547 0.5426 0.47564 0.0
C828 C 0.97781 0.52137 0.49421 0.0
H829 H 0.10443 0.48921 0.59185 0.0
H830 H 0.0652 0.52002 0.56204 0.0
H831 H 0.01663 0.44172 0.49126 0.0
H832 H 0.89861 0.52012 0.42446 0.0
H833 H 0.93448 0.48631 0.45914 0.0
C834 C 0.084 0.54573 0.08895 0.0
C835 C 0.08834 0.58806 0.08732 0.0
C836 C 0.06221 0.52753 0.07051 0.0
C837 C 0.9973 0.54889 0.02373 0.0
H838 H 1.0044 0.44373 0.9894 0.0
C839 C 0.91759 0.47516 0.93027 0.0
C840 C 0.91483 0.43222 0.92969 0.0
C841 C 0.93764 0.49407 0.95128 0.0
C842 C 1.002 0.47273 0.99917 0.0
H843 H 0.07297 0.64468 0.06525 0.0
H844 H 0.03461 0.61259 0.03255 0.0
H845 H 0.04165 0.47808 0.02132 0.0
H846 H 0.93044 0.37547 0.95135 0.0
H847 H 0.96554 0.40864 0.9885 0.0
H848 H 0.9576 0.54355 0.0014 0.0
C849 C 0.04818 0.59365 0.04838 0.0
C850 C 0.02338 0.49254 0.01738 0.0
C851 C 0.07016 0.61199 0.06696 0.0
C852 C 0.9321 0.40861 0.95125 0.0
C853 C 0.95228 0.4276 0.97235 0.0
C854 C 0.97586 0.52902 0.00551 0.0
C855 C 0.04411 0.5511 0.04985 0.0
C856 C 0.0213 0.53083 0.0299 0.0
C857 C 0.95548 0.47053 0.9723 0.0
C858 C 0.97798 0.49072 0.99297 0.0
H859 H 0.0975 0.52637 0.10455 0.0
H860 H 0.05947 0.49489 0.07262 0.0
H861 H 0.99502 0.57808 0.03336 0.0
H862 H 0.90459 0.49429 0.91396 0.0
H863 H 0.93965 0.52708 0.95035 0.0
loop_
_geom_bond_atom_site_label_1
_geom_bond_atom_site_label_2
_geom_bond_distance
_geom_bond_site_symmetry_2
_ccdc_geom_bond_type
Co0 N4 2.148 . S
Co0 N10 2.128 . S
Co0 N20 2.194 . S
Co0 O25 2.351 . S
Co0 O26 2.155 . S
Co0 O27 2.096 . S
C1 N4 1.301 . S
C1 N5 1.328 . S
C1 H6 0.930 . S
C2 C3 1.333 . S
C2 N4 1.317 . S
C2 H7 0.930 . S
C3 C2 1.333 . S
C3 N5 1.350 . S
C3 H29 0.931 . S
N4 Co0 2.148 . S
N4 C1 1.301 . S
N4 C2 1.317 . S
N5 C1 1.328 . S
N5 C3 1.350 . S
H6 C1 0.930 . S
H7 C2 0.930 . S
C8 O9 1.224 . S
C8 O27 1.247 . S
O9 C8 1.224 . S
N10 Co0 2.128 . S
N10 C11 1.355 . S
N10 C13 1.311 . S
C11 N10 1.355 . S
C11 C12 1.363 . S
C11 H23 0.929 . S
C12 C11 1.363 . S
C12 N14 1.375 . S
C12 H30 0.931 . S
C13 N10 1.311 . S
C13 N14 1.347 . S
C13 H24 0.929 . S
N14 C12 1.375 . S
N14 C13 1.347 . S
C15 C18 1.365 1_545 S
C15 N20 1.328 . S
C15 H21 0.929 . S
C16 C17 1.362 1_545 S
C16 C19 1.378 . S
C16 H31 0.929 . S
C17 C16 1.362 1_565 S
C17 C18 1.366 . S
C18 C15 1.365 1_565 S
C18 C17 1.366 . S
C18 H32 0.930 . S
C19 C16 1.378 . S
C19 N20 1.315 . S
C19 H22 0.930 . S
N20 Co0 2.194 . S
N20 C15 1.328 . S
N20 C19 1.315 . S
H21 C15 0.929 . S
H22 C19 0.930 . S
H23 C11 0.929 . S
H24 C13 0.929 . S
O25 Co0 2.351 . S
O25 C28 1.244 . S
O26 Co0 2.155 . S
O26 C28 1.240 . S
O27 Co0 2.096 . S
O27 C8 1.247 . S
C28 O25 1.244 . S
C28 O26 1.240 . S
H29 C3 0.931 . S
H30 C12 0.931 . S
H31 C16 0.929 . S
H32 C18 0.930 . S
Co33 N37 2.148 . S
Co33 N43 2.128 . S
Co33 N53 2.194 . S
Co33 O58 2.351 . S
Co33 O59 2.155 . S
Co33 O60 2.096 . S
C34 N37 1.301 . S
C34 N38 1.328 . S
C34 H39 0.930 . S
C35 C36 1.333 . S
C35 N37 1.317 . S
C35 H40 0.930 . S
C36 C35 1.333 . S
C36 N38 1.350 . S
C36 H62 0.931 . S
N37 Co33 2.148 . S
N37 C34 1.301 . S
N37 C35 1.317 . S
N38 C34 1.328 . S
N38 C36 1.350 . S
H39 C34 0.930 . S
H40 C35 0.930 . S
C41 O42 1.224 . S
C41 O60 1.247 . S
O42 C41 1.224 . S
N43 Co33 2.128 . S
N43 C44 1.355 . S
N43 C46 1.311 . S
C44 N43 1.355 . S
C44 C45 1.363 . S
C44 H56 0.929 . S
C45 C44 1.363 . S
C45 N47 1.375 . S
C45 H63 0.931 . S
C46 N43 1.311 . S
C46 N47 1.347 . S
C46 H57 0.929 . S
N47 C45 1.375 . S
N47 C46 1.347 . S
C48 C51 1.365 1_545 S
C48 N53 1.328 . S
C48 H54 0.929 . S
C49 C50 1.362 1_545 S
C49 C52 1.378 . S
C49 H64 0.929 . S
C50 C49 1.362 1_565 S
C50 C51 1.366 . S
C51 C48 1.365 1_565 S
C51 C50 1.366 . S
C51 H65 0.930 . S
C52 C49 1.378 . S
C52 N53 1.315 . S
C52 H55 0.930 . S
N53 Co33 2.194 . S
N53 C48 1.328 . S
N53 C52 1.315 . S
H54 C48 0.929 . S
H55 C52 0.930 . S
H56 C44 0.929 . S
H57 C46 0.929 . S
O58 Co33 2.351 . S
O58 C61 1.244 . S
O59 Co33 2.155 . S
O59 C61 1.240 . S
O60 Co33 2.096 . S
O60 C41 1.247 . S
C61 O58 1.244 . S
C61 O59 1.240 . S
H62 C36 0.931 . S
H63 C45 0.931 . S
H64 C49 0.929 . S
H65 C51 0.930 . S
Co66 N70 2.148 . S
Co66 N76 2.128 . S
Co66 N86 2.194 . S
Co66 O91 2.351 . S
Co66 O92 2.155 . S
Co66 O93 2.096 . S
C67 N70 1.301 . S
C67 N71 1.328 . S
C67 H72 0.930 . S
C68 C69 1.333 . S
C68 N70 1.317 . S
C68 H73 0.930 . S
C69 C68 1.333 . S
C69 N71 1.350 . S
C69 H95 0.931 . S
N70 Co66 2.148 . S
N70 C67 1.301 . S
N70 C68 1.317 . S
N71 C67 1.328 . S
N71 C69 1.350 . S
H72 C67 0.930 . S
H73 C68 0.930 . S
C74 O75 1.224 . S
C74 O93 1.247 . S
O75 C74 1.224 . S
N76 Co66 2.128 . S
N76 C77 1.355 . S
N76 C79 1.311 . S
C77 N76 1.355 . S
C77 C78 1.363 . S
C77 H89 0.929 . S
C78 C77 1.363 . S
C78 N80 1.375 . S
C78 H96 0.931 . S
C79 N76 1.311 . S
C79 N80 1.347 . S
C79 H90 0.929 . S
N80 C78 1.375 . S
N80 C79 1.347 . S
C81 C84 1.365 1_565 S
C81 N86 1.328 . S
C81 H87 0.929 . S
C82 C83 1.362 1_565 S
C82 C85 1.378 . S
C82 H97 0.929 . S
C83 C82 1.362 1_545 S
C83 C84 1.366 . S
C84 C81 1.365 1_545 S
C84 C83 1.366 . S
C84 H98 0.930 . S
C85 C82 1.378 . S
C85 N86 1.315 . S
C85 H88 0.930 . S
N86 Co66 2.194 . S
N86 C81 1.328 . S
N86 C85 1.315 . S
H87 C81 0.929 . S
H88 C85 0.930 . S
H89 C77 0.929 . S
H90 C79 0.929 . S
O91 Co66 2.351 . S
O91 C94 1.244 . S
O92 Co66 2.155 . S
O92 C94 1.240 . S
O93 Co66 2.096 . S
O93 C74 1.247 . S
C94 O91 1.244 . S
C94 O92 1.240 . S
H95 C69 0.931 . S
H96 C78 0.931 . S
H97 C82 0.929 . S
H98 C84 0.930 . S
Co99 N103 2.148 . S
Co99 N109 2.128 . S
Co99 N119 2.194 . S
Co99 O124 2.351 . S
Co99 O125 2.155 . S
Co99 O126 2.096 . S
C100 N103 1.301 . S
C100 N104 1.328 . S
C100 H105 0.930 . S
C101 C102 1.333 . S
C101 N103 1.317 . S
C101 H106 0.930 . S
C102 C101 1.333 . S
C102 N104 1.350 . S
C102 H128 0.931 . S
N103 Co99 2.148 . S
N103 C100 1.301 . S
N103 C101 1.317 . S
N104 C100 1.328 . S
N104 C102 1.350 . S
H105 C100 0.930 . S
H106 C101 0.930 . S
C107 O108 1.224 . S
C107 O126 1.247 . S
O108 C107 1.224 . S
N109 Co99 2.128 . S
N109 C110 1.355 . S
N109 C112 1.311 . S
C110 N109 1.355 . S
C110 C111 1.363 . S
C110 H122 0.929 . S
C111 C110 1.363 . S
C111 N113 1.375 . S
C111 H129 0.931 . S
C112 N109 1.311 . S
C112 N113 1.347 . S
C112 H123 0.929 . S
N113 C111 1.375 . S
N113 C112 1.347 . S
C114 C117 1.365 1_565 S
C114 N119 1.328 . S
C114 H120 0.929 . S
C115 C116 1.362 1_565 S
C115 C118 1.378 . S
C115 H130 0.929 . S
C116 C115 1.362 1_545 S
C116 C117 1.366 . S
C117 C114 1.365 1_545 S
C117 C116 1.366 . S
C117 H131 0.930 . S
C118 C115 1.378 . S
C118 N119 1.315 . S
C118 H121 0.930 . S
N119 Co99 2.194 . S
N119 C114 1.328 . S
N119 C118 1.315 . S
H120 C114 0.929 . S
H121 C118 0.930 . S
H122 C110 0.929 . S
H123 C112 0.929 . S
O124 Co99 2.351 . S
O124 C127 1.244 . S
O125 Co99 2.155 . S
O125 C127 1.240 . S
O126 Co99 2.096 . S
O126 C107 1.247 . S
C127 O124 1.244 . S
C127 O125 1.240 . S
H128 C102 0.931 . S
H129 C111 0.931 . S
H130 C115 0.929 . S
H131 C117 0.930 . S
Co132 N136 2.148 . S
Co132 N142 2.128 . S
Co132 N152 2.194 . S
Co132 O157 2.351 . S
Co132 O158 2.155 . S
Co132 O159 2.096 . S
C133 N136 1.301 . S
C133 N137 1.328 . S
C133 H138 0.930 . S
C134 C135 1.333 . S
C134 N136 1.317 . S
C134 H139 0.930 . S
C135 C134 1.333 . S
C135 N137 1.350 . S
C135 H161 0.931 . S
N136 Co132 2.148 . S
N136 C133 1.301 . S
N136 C134 1.317 . S
N137 C133 1.328 . S
N137 C135 1.350 . S
H138 C133 0.930 . S
H139 C134 0.930 . S
C140 O141 1.224 . S
C140 O159 1.247 . S
O141 C140 1.224 . S
N142 Co132 2.128 . S
N142 C143 1.355 . S
N142 C145 1.311 . S
C143 N142 1.355 . S
C143 C144 1.363 . S
C143 H155 0.929 . S
C144 C143 1.363 . S
C144 N146 1.375 . S
C144 H162 0.931 . S
C145 N142 1.311 . S
C145 N146 1.347 . S
C145 H156 0.929 . S
N146 C144 1.375 . S
N146 C145 1.347 . S
C147 C150 1.365 . S
C147 N152 1.328 . S
C147 H153 0.929 . S
C148 C149 1.362 . S
C148 C151 1.378 . S
C148 H163 0.929 . S
C149 C148 1.362 . S
C149 C150 1.366 . S
C150 C147 1.365 . S
C150 C149 1.366 . S
C150 H164 0.930 . S
C151 C148 1.378 . S
C151 N152 1.315 . S
C151 H154 0.930 . S
N152 Co132 2.194 . S
N152 C147 1.328 . S
N152 C151 1.315 . S
H153 C147 0.929 . S
H154 C151 0.930 . S
H155 C143 0.929 . S
H156 C145 0.929 . S
O157 Co132 2.351 . S
O157 C160 1.244 . S
O158 Co132 2.155 . S
O158 C160 1.240 . S
O159 Co132 2.096 . S
O159 C140 1.247 . S
C160 O157 1.244 . S
C160 O158 1.240 . S
H161 C135 0.931 . S
H162 C144 0.931 . S
H163 C148 0.929 . S
H164 C150 0.930 . S
Co165 N169 2.148 . S
Co165 N175 2.128 . S
Co165 N185 2.194 . S
Co165 O190 2.351 . S
Co165 O191 2.155 . S
Co165 O192 2.096 . S
C166 N169 1.301 . S
C166 N170 1.328 . S
C166 H171 0.930 . S
C167 C168 1.333 . S
C167 N169 1.317 . S
C167 H172 0.930 . S
C168 C167 1.333 . S
C168 N170 1.350 . S
C168 H194 0.931 . S
N169 Co165 2.148 . S
N169 C166 1.301 . S
N169 C167 1.317 . S
N170 C166 1.328 . S
N170 C168 1.350 . S
H171 C166 0.930 . S
H172 C167 0.930 . S
C173 O174 1.224 . S
C173 O192 1.247 . S
O174 C173 1.224 . S
N175 Co165 2.128 . S
N175 C176 1.355 . S
N175 C178 1.311 . S
C176 N175 1.355 . S
C176 C177 1.363 . S
C176 H188 0.929 . S
C177 C176 1.363 . S
C177 N179 1.375 . S
C177 H195 0.931 . S
C178 N175 1.311 . S
C178 N179 1.347 . S
C178 H189 0.929 . S
N179 C177 1.375 . S
N179 C178 1.347 . S
C180 C183 1.365 . S
C180 N185 1.328 . S
C180 H186 0.929 . S
C181 C182 1.362 . S
C181 C184 1.378 . S
C181 H196 0.929 . S
C182 C181 1.362 . S
C182 C183 1.366 . S
C183 C180 1.365 . S
C183 C182 1.366 . S
C183 H197 0.930 . S
C184 C181 1.378 . S
C184 N185 1.315 . S
C184 H187 0.930 . S
N185 Co165 2.194 . S
N185 C180 1.328 . S
N185 C184 1.315 . S
H186 C180 0.929 . S
H187 C184 0.930 . S
H188 C176 0.929 . S
H189 C178 0.929 . S
O190 Co165 2.351 . S
O190 C193 1.244 . S
O191 Co165 2.155 . S
O191 C193 1.240 . S
O192 Co165 2.096 . S
O192 C173 1.247 . S
C193 O190 1.244 . S
C193 O191 1.240 . S
H194 C168 0.931 . S
H195 C177 0.931 . S
H196 C181 0.929 . S
H197 C183 0.930 . S
Co198 N202 2.148 . S
Co198 N208 2.128 . S
Co198 N218 2.194 . S
Co198 O223 2.351 . S
Co198 O224 2.155 . S
Co198 O225 2.096 . S
C199 N202 1.301 . S
C199 N203 1.328 . S
C199 H204 0.930 . S
C200 C201 1.333 . S
C200 N202 1.317 . S
C200 H205 0.930 . S
C201 C200 1.333 . S
C201 N203 1.350 . S
C201 H227 0.931 . S
N202 Co198 2.148 . S
N202 C199 1.301 . S
N202 C200 1.317 . S
N203 C199 1.328 . S
N203 C201 1.350 . S
H204 C199 0.930 . S
H205 C200 0.930 . S
C206 O207 1.224 . S
C206 O225 1.247 . S
O207 C206 1.224 . S
N208 Co198 2.128 . S
N208 C209 1.355 . S
N208 C211 1.311 . S
C209 N208 1.355 . S
C209 C210 1.363 . S
C209 H221 0.929 . S
C210 C209 1.363 . S
C210 N212 1.375 . S
C210 H228 0.931 . S
C211 N208 1.311 . S
C211 N212 1.347 . S
C211 H222 0.929 . S
N212 C210 1.375 . S
N212 C211 1.347 . S
C213 C216 1.365 . S
C213 N218 1.328 . S
C213 H219 0.929 . S
C214 C215 1.362 . S
C214 C217 1.378 . S
C214 H229 0.929 . S
C215 C214 1.362 . S
C215 C216 1.366 . S
C216 C213 1.365 . S
C216 C215 1.366 . S
C216 H230 0.930 . S
C217 C214 1.378 . S
C217 N218 1.315 . S
C217 H220 0.930 . S
N218 Co198 2.194 . S
N218 C213 1.328 . S
N218 C217 1.315 . S
H219 C213 0.929 . S
H220 C217 0.930 . S
H221 C209 0.929 . S
H222 C211 0.929 . S
O223 Co198 2.351 . S
O223 C226 1.244 . S
O224 Co198 2.155 . S
O224 C226 1.240 . S
O225 Co198 2.096 . S
O225 C206 1.247 . S
C226 O223 1.244 . S
C226 O224 1.240 . S
H227 C201 0.931 . S
H228 C210 0.931 . S
H229 C214 0.929 . S
H230 C216 0.930 . S
Co231 N235 2.148 . S
Co231 N241 2.128 . S
Co231 N251 2.194 . S
Co231 O256 2.351 . S
Co231 O257 2.155 . S
Co231 O258 2.096 . S
C232 N235 1.301 . S
C232 N236 1.328 . S
C232 H237 0.930 . S
C233 C234 1.333 . S
C233 N235 1.317 . S
C233 H238 0.930 . S
C234 C233 1.333 . S
C234 N236 1.350 . S
C234 H260 0.931 . S
N235 Co231 2.148 . S
N235 C232 1.301 . S
N235 C233 1.317 . S
N236 C232 1.328 . S
N236 C234 1.350 . S
H237 C232 0.930 . S
H238 C233 0.930 . S
C239 O240 1.224 . S
C239 O258 1.247 . S
O240 C239 1.224 . S
N241 Co231 2.128 . S
N241 C242 1.355 . S
N241 C244 1.311 . S
C242 N241 1.355 . S
C242 C243 1.363 . S
C242 H254 0.929 . S
C243 C242 1.363 . S
C243 N245 1.375 . S
C243 H261 0.931 . S
C244 N241 1.311 . S
C244 N245 1.347 . S
C244 H255 0.929 . S
N245 C243 1.375 . S
N245 C244 1.347 . S
C246 C249 1.365 . S
C246 N251 1.328 . S
C246 H252 0.929 . S
C247 C248 1.362 . S
C247 C250 1.378 . S
C247 H262 0.929 . S
C248 C247 1.362 . S
C248 C249 1.366 . S
C249 C246 1.365 . S
C249 C248 1.366 . S
C249 H263 0.930 . S
C250 C247 1.378 . S
C250 N251 1.315 . S
C250 H253 0.930 . S
N251 Co231 2.194 . S
N251 C246 1.328 . S
N251 C250 1.315 . S
H252 C246 0.929 . S
H253 C250 0.930 . S
H254 C242 0.929 . S
H255 C244 0.929 . S
O256 Co231 2.351 . S
O256 C259 1.244 . S
O257 Co231 2.155 . S
O257 C259 1.240 . S
O258 Co231 2.096 . S
O258 C239 1.247 . S
C259 O256 1.244 . S
C259 O257 1.240 . S
H260 C234 0.931 . S
H261 C243 0.931 . S
H262 C247 0.929 . S
H263 C249 0.930 . S
C264 C265 1.349 . S
C264 C266 1.327 . S
C264 H289 0.950 . S
C265 C264 1.349 . S
C265 C281 1.349 . S
C266 C264 1.327 . S
C266 C285 1.429 . S
C266 H290 0.950 . S
C267 C284 1.574 . S
C267 C286 1.368 . S
C267 H291 0.949 . S
H268 C272 0.949 . S
C269 C270 1.349 . S
C269 C271 1.327 . S
C269 H292 0.950 . S
C270 C269 1.349 . S
C270 C282 1.349 . S
C271 C269 1.327 . S
C271 C287 1.429 . S
C271 H293 0.950 . S
C272 H268 0.949 . S
C272 C280 1.574 . S
C272 C288 1.368 . S
H273 C281 0.950 . S
H274 C279 0.950 . S
H275 C280 0.949 . S
H276 C282 0.950 . S
H277 C283 0.950 . S
H278 C284 0.949 . S
C279 H274 0.950 . S
C279 C281 1.327 . S
C279 C285 1.429 . S
C280 C272 1.574 . S
C280 H275 0.949 . S
C280 C286 1.368 . S
C281 C265 1.349 . S
C281 H273 0.950 . S
C281 C279 1.327 . S
C282 C270 1.349 . S
C282 H276 0.950 . S
C282 C283 1.327 . S
C283 H277 0.950 . S
C283 C282 1.327 . S
C283 C287 1.429 . S
C284 C267 1.574 . S
C284 H278 0.949 . S
C284 C288 1.368 . S
C285 C266 1.429 . S
C285 C279 1.429 . S
C285 C286 1.523 . S
C286 C267 1.368 . S
C286 C280 1.368 . S
C286 C285 1.523 . S
C287 C271 1.429 . S
C287 C283 1.429 . S
C287 C288 1.523 . S
C288 C272 1.368 . S
C288 C284 1.368 . S
C288 C287 1.523 . S
H289 C264 0.950 . S
H290 C266 0.950 . S
H291 C267 0.949 . S
H292 C269 0.950 . S
H293 C271 0.950 . S
C294 C295 1.349 . S
C294 C296 1.327 . S
C294 H319 0.950 . S
C295 C294 1.349 . S
C295 C311 1.349 . S
C296 C294 1.327 . S
C296 C315 1.429 . S
C296 H320 0.950 . S
C297 C314 1.574 . S
C297 C316 1.368 1_556 S
C297 H321 0.949 . S
H298 C302 0.949 . S
C299 C300 1.349 . S
C299 C301 1.327 . S
C299 H322 0.950 . S
C300 C299 1.349 . S
C300 C312 1.349 . S
C301 C299 1.327 . S
C301 C317 1.429 . S
C301 H323 0.950 . S
C302 H298 0.949 . S
C302 C310 1.574 . S
C302 C318 1.368 1_554 S
H303 C311 0.950 . S
H304 C309 0.950 . S
H305 C310 0.949 . S
H306 C312 0.950 . S
H307 C313 0.950 . S
H308 C314 0.949 . S
C309 H304 0.950 . S
C309 C311 1.327 . S
C309 C315 1.429 . S
C310 C302 1.574 . S
C310 H305 0.949 . S
C310 C316 1.368 . S
C311 C295 1.349 . S
C311 H303 0.950 . S
C311 C309 1.327 . S
C312 C300 1.349 . S
C312 H306 0.950 . S
C312 C313 1.327 . S
C313 H307 0.950 . S
C313 C312 1.327 . S
C313 C317 1.429 . S
C314 C297 1.574 . S
C314 H308 0.949 . S
C314 C318 1.368 . S
C315 C296 1.429 . S
C315 C309 1.429 . S
C315 C316 1.523 . S
C316 C297 1.368 1_554 S
C316 C310 1.368 . S
C316 C315 1.523 . S
C317 C301 1.429 . S
C317 C313 1.429 . S
C317 C318 1.523 . S
C318 C302 1.368 1_556 S
C318 C314 1.368 . S
C318 C317 1.523 . S
H319 C294 0.950 . S
H320 C296 0.950 . S
H321 C297 0.949 . S
H322 C299 0.950 . S
H323 C301 0.950 . S
C324 C325 1.349 . S
C324 C326 1.327 . S
C324 H349 0.950 . S
C325 C324 1.349 . S
C325 C341 1.349 . S
C326 C324 1.327 . S
C326 C345 1.429 . S
C326 H350 0.950 . S
C327 C344 1.574 . S
C327 C346 1.368 . S
C327 H351 0.949 . S
H328 C332 0.949 . S
C329 C330 1.349 . S
C329 C331 1.327 . S
C329 H352 0.950 . S
C330 C329 1.349 . S
C330 C342 1.349 . S
C331 C329 1.327 . S
C331 C347 1.429 . S
C331 H353 0.950 . S
C332 H328 0.949 . S
C332 C340 1.574 . S
C332 C348 1.368 . S
H333 C341 0.950 . S
H334 C339 0.950 . S
H335 C340 0.949 . S
H336 C342 0.950 . S
H337 C343 0.950 . S
H338 C344 0.949 . S
C339 H334 0.950 . S
C339 C341 1.327 . S
C339 C345 1.429 . S
C340 C332 1.574 . S
C340 H335 0.949 . S
C340 C346 1.368 . S
C341 C325 1.349 . S
C341 H333 0.950 . S
C341 C339 1.327 . S
C342 C330 1.349 . S
C342 H336 0.950 . S
C342 C343 1.327 . S
C343 H337 0.950 . S
C343 C342 1.327 . S
C343 C347 1.429 . S
C344 C327 1.574 . S
C344 H338 0.949 . S
C344 C348 1.368 . S
C345 C326 1.429 . S
C345 C339 1.429 . S
C345 C346 1.523 . S
C346 C327 1.368 . S
C346 C340 1.368 . S
C346 C345 1.523 . S
C347 C331 1.429 . S
C347 C343 1.429 . S
C347 C348 1.523 . S
C348 C332 1.368 . S
C348 C344 1.368 . S
C348 C347 1.523 . S
H349 C324 0.950 . S
H350 C326 0.950 . S
H351 C327 0.949 . S
H352 C329 0.950 . S
H353 C331 0.950 . S
C354 C355 1.349 . S
C354 C356 1.327 . S
C354 H379 0.950 . S
C355 C354 1.349 . S
C355 C371 1.349 . S
C356 C354 1.327 . S
C356 C375 1.429 . S
C356 H380 0.950 . S
C357 C374 1.574 . S
C357 C376 1.368 . S
C357 H381 0.949 . S
H358 C362 0.949 . S
C359 C360 1.349 . S
C359 C361 1.327 . S
C359 H382 0.950 . S
C360 C359 1.349 . S
C360 C372 1.349 . S
C361 C359 1.327 . S
C361 C377 1.429 . S
C361 H383 0.950 . S
C362 H358 0.949 . S
C362 C370 1.574 . S
C362 C378 1.368 . S
H363 C371 0.950 . S
H364 C369 0.950 . S
H365 C370 0.949 . S
H366 C372 0.950 . S
H367 C373 0.950 . S
H368 C374 0.949 . S
C369 H364 0.950 . S
C369 C371 1.327 . S
C369 C375 1.429 . S
C370 C362 1.574 . S
C370 H365 0.949 . S
C370 C376 1.368 1_554 S
C371 C355 1.349 . S
C371 H363 0.950 . S
C371 C369 1.327 . S
C372 C360 1.349 . S
C372 H366 0.950 . S
C372 C373 1.327 . S
C373 H367 0.950 . S
C373 C372 1.327 . S
C373 C377 1.429 . S
C374 C357 1.574 . S
C374 H368 0.949 . S
C374 C378 1.368 1_556 S
C375 C356 1.429 . S
C375 C369 1.429 . S
C375 C376 1.523 . S
C376 C357 1.368 . S
C376 C370 1.368 1_556 S
C376 C375 1.523 . S
C377 C361 1.429 . S
C377 C373 1.429 . S
C377 C378 1.523 . S
C378 C362 1.368 . S
C378 C374 1.368 1_554 S
C378 C377 1.523 . S
H379 C354 0.950 . S
H380 C356 0.950 . S
H381 C357 0.949 . S
H382 C359 0.950 . S
H383 C361 0.950 . S
C384 C385 1.349 . S
C384 C386 1.327 . S
C384 H409 0.950 . S
C385 C384 1.349 . S
C385 C401 1.349 . S
C386 C384 1.327 . S
C386 C405 1.429 . S
C386 H410 0.950 . S
C387 C404 1.574 . S
C387 C406 1.368 . S
C387 H411 0.949 . S
H388 C392 0.949 . S
C389 C390 1.349 . S
C389 C391 1.327 . S
C389 H412 0.950 . S
C390 C389 1.349 . S
C390 C402 1.349 . S
C391 C389 1.327 . S
C391 C407 1.429 . S
C391 H413 0.950 . S
C392 H388 0.949 . S
C392 C400 1.574 . S
C392 C408 1.368 . S
H393 C401 0.950 . S
H394 C399 0.950 . S
H395 C400 0.949 . S
H396 C402 0.950 . S
H397 C403 0.950 . S
H398 C404 0.949 . S
C399 H394 0.950 . S
C399 C401 1.327 . S
C399 C405 1.429 . S
C400 C392 1.574 . S
C400 H395 0.949 . S
C400 C406 1.368 . S
C401 C385 1.349 . S
C401 H393 0.950 . S
C401 C399 1.327 . S
C402 C390 1.349 . S
C402 H396 0.950 . S
C402 C403 1.327 . S
C403 H397 0.950 . S
C403 C402 1.327 . S
C403 C407 1.429 . S
C404 C387 1.574 . S
C404 H398 0.949 . S
C404 C408 1.368 . S
C405 C386 1.429 . S
C405 C399 1.429 . S
C405 C406 1.523 . S
C406 C387 1.368 . S
C406 C400 1.368 . S
C406 C405 1.523 . S
C407 C391 1.429 . S
C407 C403 1.429 . S
C407 C408 1.523 . S
C408 C392 1.368 . S
C408 C404 1.368 . S
C408 C407 1.523 . S
H409 C384 0.950 . S
H410 C386 0.950 . S
H411 C387 0.949 . S
H412 C389 0.950 . S
H413 C391 0.950 . S
C414 C415 1.349 . S
C414 C416 1.327 . S
C414 H439 0.950 . S
C415 C414 1.349 . S
C415 C431 1.349 . S
C416 C414 1.327 . S
C416 C435 1.429 . S
C416 H440 0.950 . S
C417 C434 1.574 . S
C417 C436 1.368 . S
C417 H441 0.949 . S
H418 C422 0.949 . S
C419 C420 1.349 . S
C419 C421 1.327 . S
C419 H442 0.950 . S
C420 C419 1.349 . S
C420 C432 1.349 . S
C421 C419 1.327 . S
C421 C437 1.429 . S
C421 H443 0.950 . S
C422 H418 0.949 . S
C422 C430 1.574 . S
C422 C438 1.368 . S
H423 C431 0.950 . S
H424 C429 0.950 . S
H425 C430 0.949 . S
H426 C432 0.950 . S
H427 C433 0.950 . S
H428 C434 0.949 . S
C429 H424 0.950 . S
C429 C431 1.327 . S
C429 C435 1.429 . S
C430 C422 1.574 . S
C430 H425 0.949 . S
C430 C436 1.368 . S
C431 C415 1.349 . S
C431 H423 0.950 . S
C431 C429 1.327 . S
C432 C420 1.349 . S
C432 H426 0.950 . S
C432 C433 1.327 . S
C433 H427 0.950 . S
C433 C432 1.327 . S
C433 C437 1.429 . S
C434 C417 1.574 . S
C434 H428 0.949 . S
C434 C438 1.368 . S
C435 C416 1.429 . S
C435 C429 1.429 . S
C435 C436 1.523 . S
C436 C417 1.368 . S
C436 C430 1.368 . S
C436 C435 1.523 . S
C437 C421 1.429 . S
C437 C433 1.429 . S
C437 C438 1.523 . S
C438 C422 1.368 . S
C438 C434 1.368 . S
C438 C437 1.523 . S
H439 C414 0.950 . S
H440 C416 0.950 . S
H441 C417 0.949 . S
H442 C419 0.950 . S
H443 C421 0.950 . S
C444 C445 1.349 . S
C444 C446 1.327 . S
C444 H469 0.950 . S
C445 C444 1.349 . S
C445 C461 1.349 . S
C446 C444 1.327 . S
C446 C465 1.429 . S
C446 H470 0.950 . S
C447 C464 1.574 1_455 S
C447 C466 1.368 . S
C447 H471 0.949 . S
H448 C452 0.949 . S
C449 C450 1.349 . S
C449 C451 1.327 . S
C449 H472 0.950 . S
C450 C449 1.349 . S
C450 C462 1.349 . S
C451 C449 1.327 . S
C451 C467 1.429 . S
C451 H473 0.950 . S
C452 H448 0.949 . S
C452 C460 1.574 1_655 S
C452 C468 1.368 . S
H453 C461 0.950 . S
H454 C459 0.950 . S
H455 C460 0.949 . S
H456 C462 0.950 . S
H457 C463 0.950 . S
H458 C464 0.949 . S
C459 H454 0.950 . S
C459 C461 1.327 . S
C459 C465 1.429 . S
C460 C452 1.574 1_455 S
C460 H455 0.949 . S
C460 C466 1.368 . S
C461 C445 1.349 . S
C461 H453 0.950 . S
C461 C459 1.327 . S
C462 C450 1.349 . S
C462 H456 0.950 . S
C462 C463 1.327 . S
C463 H457 0.950 . S
C463 C462 1.327 . S
C463 C467 1.429 . S
C464 C447 1.574 1_655 S
C464 H458 0.949 . S
C464 C468 1.368 . S
C465 C446 1.429 . S
C465 C459 1.429 . S
C465 C466 1.523 . S
C466 C447 1.368 . S
C466 C460 1.368 . S
C466 C465 1.523 . S
C467 C451 1.429 . S
C467 C463 1.429 . S
C467 C468 1.523 . S
C468 C452 1.368 . S
C468 C464 1.368 . S
C468 C467 1.523 . S
H469 C444 0.950 . S
H470 C446 0.950 . S
H471 C447 0.949 . S
H472 C449 0.950 . S
H473 C451 0.950 . S
C474 C475 1.349 . S
C474 C476 1.327 . S
C474 H499 0.950 . S
C475 C474 1.349 . S
C475 C491 1.349 . S
C476 C474 1.327 . S
C476 C495 1.429 . S
C476 H500 0.950 . S
C477 C494 1.574 1_455 S
C477 C496 1.368 . S
C477 H501 0.949 . S
H478 C482 0.949 . S
C479 C480 1.349 . S
C479 C481 1.327 . S
C479 H502 0.950 . S
C480 C479 1.349 . S
C480 C492 1.349 . S
C481 C479 1.327 . S
C481 C497 1.429 . S
C481 H503 0.950 . S
C482 H478 0.949 . S
C482 C490 1.574 1_655 S
C482 C498 1.368 . S
H483 C491 0.950 . S
H484 C489 0.950 . S
H485 C490 0.949 . S
H486 C492 0.950 . S
H487 C493 0.950 . S
H488 C494 0.949 . S
C489 H484 0.950 . S
C489 C491 1.327 . S
C489 C495 1.429 . S
C490 C482 1.574 1_455 S
C490 H485 0.949 . S
C490 C496 1.368 . S
C491 C475 1.349 . S
C491 H483 0.950 . S
C491 C489 1.327 . S
C492 C480 1.349 . S
C492 H486 0.950 . S
C492 C493 1.327 . S
C493 H487 0.950 . S
C493 C492 1.327 . S
C493 C497 1.429 . S
C494 C477 1.574 1_655 S
C494 H488 0.949 . S
C494 C498 1.368 . S
C495 C476 1.429 . S
C495 C489 1.429 . S
C495 C496 1.523 . S
C496 C477 1.368 . S
C496 C490 1.368 . S
C496 C495 1.523 . S
C497 C481 1.429 . S
C497 C493 1.429 . S
C497 C498 1.523 . S
C498 C482 1.368 . S
C498 C494 1.368 . S
C498 C497 1.523 . S
H499 C474 0.950 . S
H500 C476 0.950 . S
H501 C477 0.949 . S
H502 C479 0.950 . S
H503 C481 0.950 . S
C504 C505 1.349 . S
C504 C506 1.327 . S
C504 H529 0.950 . S
C505 C504 1.349 . S
C505 C521 1.349 . S
C506 C504 1.327 . S
C506 C525 1.429 . S
C506 H530 0.950 . S
C507 C524 1.574 . S
C507 C526 1.368 . S
C507 H531 0.949 . S
H508 C512 0.949 . S
C509 C510 1.349 . S
C509 C511 1.327 . S
C509 H532 0.950 . S
C510 C509 1.349 . S
C510 C522 1.349 . S
C511 C509 1.327 . S
C511 C527 1.429 . S
C511 H533 0.950 . S
C512 H508 0.949 . S
C512 C520 1.574 . S
C512 C528 1.368 . S
H513 C521 0.950 . S
H514 C519 0.950 . S
H515 C520 0.949 . S
H516 C522 0.950 . S
H517 C523 0.950 . S
H518 C524 0.949 . S
C519 H514 0.950 . S
C519 C521 1.327 . S
C519 C525 1.429 . S
C520 C512 1.574 . S
C520 H515 0.949 . S
C520 C526 1.368 . S
C521 C505 1.349 . S
C521 H513 0.950 . S
C521 C519 1.327 . S
C522 C510 1.349 . S
C522 H516 0.950 . S
C522 C523 1.327 . S
C523 H517 0.950 . S
C523 C522 1.327 . S
C523 C527 1.429 . S
C524 C507 1.574 . S
C524 H518 0.949 . S
C524 C528 1.368 . S
C525 C506 1.429 . S
C525 C519 1.429 . S
C525 C526 1.523 . S
C526 C507 1.368 . S
C526 C520 1.368 . S
C526 C525 1.523 . S
C527 C511 1.429 . S
C527 C523 1.429 . S
C527 C528 1.523 . S
C528 C512 1.368 . S
C528 C524 1.368 . S
C528 C527 1.523 . S
H529 C504 0.950 . S
H530 C506 0.950 . S
H531 C507 0.949 . S
H532 C509 0.950 . S
H533 C511 0.950 . S
C534 C535 1.349 . S
C534 C536 1.327 . S
C534 H559 0.950 . S
C535 C534 1.349 . S
C535 C551 1.349 . S
C536 C534 1.327 . S
C536 C555 1.429 . S
C536 H560 0.950 . S
C537 C554 1.574 . S
C537 C556 1.368 . S
C537 H561 0.949 . S
H538 C542 0.949 . S
C539 C540 1.349 . S
C539 C541 1.327 . S
C539 H562 0.950 . S
C540 C539 1.349 . S
C540 C552 1.349 . S
C541 C539 1.327 . S
C541 C557 1.429 . S
C541 H563 0.950 . S
C542 H538 0.949 . S
C542 C550 1.574 . S
C542 C558 1.368 . S
H543 C551 0.950 . S
H544 C549 0.950 . S
H545 C550 0.949 . S
H546 C552 0.950 . S
H547 C553 0.950 . S
H548 C554 0.949 . S
C549 H544 0.950 . S
C549 C551 1.327 . S
C549 C555 1.429 . S
C550 C542 1.574 . S
C550 H545 0.949 . S
C550 C556 1.368 . S
C551 C535 1.349 . S
C551 H543 0.950 . S
C551 C549 1.327 . S
C552 C540 1.349 . S
C552 H546 0.950 . S
C552 C553 1.327 . S
C553 H547 0.950 . S
C553 C552 1.327 . S
C553 C557 1.429 . S
C554 C537 1.574 . S
C554 H548 0.949 . S
C554 C558 1.368 . S
C555 C536 1.429 . S
C555 C549 1.429 . S
C555 C556 1.523 . S
C556 C537 1.368 . S
C556 C550 1.368 . S
C556 C555 1.523 . S
C557 C541 1.429 . S
C557 C553 1.429 . S
C557 C558 1.523 . S
C558 C542 1.368 . S
C558 C554 1.368 . S
C558 C557 1.523 . S
H559 C534 0.950 . S
H560 C536 0.950 . S
H561 C537 0.949 . S
H562 C539 0.950 . S
H563 C541 0.950 . S
C564 C565 1.349 . S
C564 C566 1.327 . S
C564 H589 0.950 . S
C565 C564 1.349 . S
C565 C581 1.349 . S
C566 C564 1.327 . S
C566 C585 1.429 . S
C566 H590 0.950 . S
C567 C584 1.574 . S
C567 C586 1.368 . S
C567 H591 0.949 . S
H568 C572 0.949 . S
C569 C570 1.349 . S
C569 C571 1.327 . S
C569 H592 0.950 . S
C570 C569 1.349 . S
C570 C582 1.349 . S
C571 C569 1.327 . S
C571 C587 1.429 . S
C571 H593 0.950 . S
C572 H568 0.949 . S
C572 C580 1.574 . S
C572 C588 1.368 . S
H573 C581 0.950 . S
H574 C579 0.950 . S
H575 C580 0.949 . S
H576 C582 0.950 . S
H577 C583 0.950 . S
H578 C584 0.949 . S
C579 H574 0.950 . S
C579 C581 1.327 . S
C579 C585 1.429 . S
C580 C572 1.574 . S
C580 H575 0.949 . S
C580 C586 1.368 . S
C581 C565 1.349 . S
C581 H573 0.950 . S
C581 C579 1.327 . S
C582 C570 1.349 . S
C582 H576 0.950 . S
C582 C583 1.327 . S
C583 H577 0.950 . S
C583 C582 1.327 . S
C583 C587 1.429 . S
C584 C567 1.574 . S
C584 H578 0.949 . S
C584 C588 1.368 . S
C585 C566 1.429 . S
C585 C579 1.429 . S
C585 C586 1.523 . S
C586 C567 1.368 . S
C586 C580 1.368 . S
C586 C585 1.523 . S
C587 C571 1.429 . S
C587 C583 1.429 . S
C587 C588 1.523 . S
C588 C572 1.368 . S
C588 C584 1.368 . S
C588 C587 1.523 . S
H589 C564 0.950 . S
H590 C566 0.950 . S
H591 C567 0.949 . S
H592 C569 0.950 . S
H593 C571 0.950 . S
C594 C595 1.349 . S
C594 C596 1.327 . S
C594 H619 0.950 . S
C595 C594 1.349 . S
C595 C611 1.349 . S
C596 C594 1.327 . S
C596 C615 1.429 . S
C596 H620 0.950 . S
C597 C614 1.574 . S
C597 C616 1.368 . S
C597 H621 0.949 . S
H598 C602 0.949 . S
C599 C600 1.349 . S
C599 C601 1.327 . S
C599 H622 0.950 . S
C600 C599 1.349 . S
C600 C612 1.349 . S
C601 C599 1.327 . S
C601 C617 1.429 . S
C601 H623 0.950 . S
C602 H598 0.949 . S
C602 C610 1.574 . S
C602 C618 1.368 . S
H603 C611 0.950 . S
H604 C609 0.950 . S
H605 C610 0.949 . S
H606 C612 0.950 . S
H607 C613 0.950 . S
H608 C614 0.949 . S
C609 H604 0.950 . S
C609 C611 1.327 . S
C609 C615 1.429 . S
C610 C602 1.574 . S
C610 H605 0.949 . S
C610 C616 1.368 . S
C611 C595 1.349 . S
C611 H603 0.950 . S
C611 C609 1.327 . S
C612 C600 1.349 . S
C612 H606 0.950 . S
C612 C613 1.327 . S
C613 H607 0.950 . S
C613 C612 1.327 . S
C613 C617 1.429 . S
C614 C597 1.574 . S
C614 H608 0.949 . S
C614 C618 1.368 . S
C615 C596 1.429 . S
C615 C609 1.429 . S
C615 C616 1.523 . S
C616 C597 1.368 . S
C616 C610 1.368 . S
C616 C615 1.523 . S
C617 C601 1.429 . S
C617 C613 1.429 . S
C617 C618 1.523 . S
C618 C602 1.368 . S
C618 C614 1.368 . S
C618 C617 1.523 . S
H619 C594 0.950 . S
H620 C596 0.950 . S
H621 C597 0.949 . S
H622 C599 0.950 . S
H623 C601 0.950 . S
C624 C625 1.349 . S
C624 C626 1.327 . S
C624 H649 0.950 . S
C625 C624 1.349 . S
C625 C641 1.349 . S
C626 C624 1.327 . S
C626 C645 1.429 . S
C626 H650 0.950 . S
C627 C644 1.574 . S
C627 C646 1.368 . S
C627 H651 0.949 . S
H628 C632 0.949 . S
C629 C630 1.349 . S
C629 C631 1.327 . S
C629 H652 0.950 . S
C630 C629 1.349 . S
C630 C642 1.349 . S
C631 C629 1.327 . S
C631 C647 1.429 . S
C631 H653 0.950 . S
C632 H628 0.949 . S
C632 C640 1.574 . S
C632 C648 1.368 . S
H633 C641 0.950 . S
H634 C639 0.950 . S
H635 C640 0.949 . S
H636 C642 0.950 . S
H637 C643 0.950 . S
H638 C644 0.949 . S
C639 H634 0.950 . S
C639 C641 1.327 . S
C639 C645 1.429 . S
C640 C632 1.574 . S
C640 H635 0.949 . S
C640 C646 1.368 . S
C641 C625 1.349 . S
C641 H633 0.950 . S
C641 C639 1.327 . S
C642 C630 1.349 . S
C642 H636 0.950 . S
C642 C643 1.327 . S
C643 H637 0.950 . S
C643 C642 1.327 . S
C643 C647 1.429 . S
C644 C627 1.574 . S
C644 H638 0.949 . S
C644 C648 1.368 . S
C645 C626 1.429 . S
C645 C639 1.429 . S
C645 C646 1.523 . S
C646 C627 1.368 . S
C646 C640 1.368 . S
C646 C645 1.523 . S
C647 C631 1.429 . S
C647 C643 1.429 . S
C647 C648 1.523 . S
C648 C632 1.368 . S
C648 C644 1.368 . S
C648 C647 1.523 . S
H649 C624 0.950 . S
H650 C626 0.950 . S
H651 C627 0.949 . S
H652 C629 0.950 . S
H653 C631 0.950 . S
C654 C655 1.349 . S
C654 C656 1.327 . S
C654 H679 0.950 . S
C655 C654 1.349 . S
C655 C671 1.349 . S
C656 C654 1.327 . S
C656 C675 1.429 . S
C656 H680 0.950 . S
C657 C674 1.574 . S
C657 C676 1.368 . S
C657 H681 0.949 . S
H658 C662 0.949 . S
C659 C660 1.349 . S
C659 C661 1.327 . S
C659 H682 0.950 . S
C660 C659 1.349 . S
C660 C672 1.349 . S
C661 C659 1.327 . S
C661 C677 1.429 . S
C661 H683 0.950 . S
C662 H658 0.949 . S
C662 C670 1.574 . S
C662 C678 1.368 . S
H663 C671 0.950 . S
H664 C669 0.950 . S
H665 C670 0.949 . S
H666 C672 0.950 . S
H667 C673 0.950 . S
H668 C674 0.949 . S
C669 H664 0.950 . S
C669 C671 1.327 . S
C669 C675 1.429 . S
C670 C662 1.574 . S
C670 H665 0.949 . S
C670 C676 1.368 . S
C671 C655 1.349 . S
C671 H663 0.950 . S
C671 C669 1.327 . S
C672 C660 1.349 . S
C672 H666 0.950 . S
C672 C673 1.327 . S
C673 H667 0.950 . S
C673 C672 1.327 . S
C673 C677 1.429 . S
C674 C657 1.574 . S
C674 H668 0.949 . S
C674 C678 1.368 . S
C675 C656 1.429 . S
C675 C669 1.429 . S
C675 C676 1.523 . S
C676 C657 1.368 . S
C676 C670 1.368 . S
C676 C675 1.523 . S
C677 C661 1.429 . S
C677 C673 1.429 . S
C677 C678 1.523 . S
C678 C662 1.368 . S
C678 C674 1.368 . S
C678 C677 1.523 . S
H679 C654 0.950 . S
H680 C656 0.950 . S
H681 C657 0.949 . S
H682 C659 0.950 . S
H683 C661 0.950 . S
C684 C685 1.349 . S
C684 C686 1.327 . S
C684 H709 0.950 . S
C685 C684 1.349 . S
C685 C701 1.349 . S
C686 C684 1.327 . S
C686 C705 1.429 . S
C686 H710 0.950 . S
C687 C704 1.574 . S
C687 C706 1.368 . S
C687 H711 0.949 . S
H688 C692 0.949 . S
C689 C690 1.349 . S
C689 C691 1.327 . S
C689 H712 0.950 . S
C690 C689 1.349 . S
C690 C702 1.349 . S
C691 C689 1.327 . S
C691 C707 1.429 . S
C691 H713 0.950 . S
C692 H688 0.949 . S
C692 C700 1.574 . S
C692 C708 1.368 . S
H693 C701 0.950 . S
H694 C699 0.950 . S
H695 C700 0.949 . S
H696 C702 0.950 . S
H697 C703 0.950 . S
H698 C704 0.949 . S
C699 H694 0.950 . S
C699 C701 1.327 . S
C699 C705 1.429 . S
C700 C692 1.574 . S
C700 H695 0.949 . S
C700 C706 1.368 . S
C701 C685 1.349 . S
C701 H693 0.950 . S
C701 C699 1.327 . S
C702 C690 1.349 . S
C702 H696 0.950 . S
C702 C703 1.327 . S
C703 H697 0.950 . S
C703 C702 1.327 . S
C703 C707 1.429 . S
C704 C687 1.574 . S
C704 H698 0.949 . S
C704 C708 1.368 . S
C705 C686 1.429 . S
C705 C699 1.429 . S
C705 C706 1.523 . S
C706 C687 1.368 . S
C706 C700 1.368 . S
C706 C705 1.523 . S
C707 C691 1.429 . S
C707 C703 1.429 . S
C707 C708 1.523 . S
C708 C692 1.368 . S
C708 C704 1.368 . S
C708 C707 1.523 . S
H709 C684 0.950 . S
H710 C686 0.950 . S
H711 C687 0.949 . S
H712 C689 0.950 . S
H713 C691 0.950 . S
C714 C715 1.349 . S
C714 C716 1.327 . S
C714 H739 0.950 . S
C715 C714 1.349 . S
C715 C731 1.349 . S
C716 C714 1.327 . S
C716 C735 1.429 . S
C716 H740 0.950 . S
C717 C734 1.574 . S
C717 C736 1.368 . S
C717 H741 0.949 . S
H718 C722 0.949 . S
C719 C720 1.349 . S
C719 C721 1.327 . S
C719 H742 0.950 . S
C720 C719 1.349 . S
C720 C732 1.349 . S
C721 C719 1.327 . S
C721 C737 1.429 . S
C721 H743 0.950 . S
C722 H718 0.949 . S
C722 C730 1.574 . S
C722 C738 1.368 . S
H723 C731 0.950 . S
H724 C729 0.950 . S
H725 C730 0.949 . S
H726 C732 0.950 . S
H727 C733 0.950 . S
H728 C734 0.949 . S
C729 H724 0.950 . S
C729 C731 1.327 . S
C729 C735 1.429 . S
C730 C722 1.574 . S
C730 H725 0.949 . S
C730 C736 1.368 . S
C731 C715 1.349 . S
C731 H723 0.950 . S
C731 C729 1.327 . S
C732 C720 1.349 . S
C732 H726 0.950 . S
C732 C733 1.327 . S
C733 H727 0.950 . S
C733 C732 1.327 . S
C733 C737 1.429 . S
C734 C717 1.574 . S
C734 H728 0.949 . S
C734 C738 1.368 . S
C735 C716 1.429 . S
C735 C729 1.429 . S
C735 C736 1.523 . S
C736 C717 1.368 . S
C736 C730 1.368 . S
C736 C735 1.523 . S
C737 C721 1.429 . S
C737 C733 1.429 . S
C737 C738 1.523 . S
C738 C722 1.368 . S
C738 C734 1.368 . S
C738 C737 1.523 . S
H739 C714 0.950 . S
H740 C716 0.950 . S
H741 C717 0.949 . S
H742 C719 0.950 . S
H743 C721 0.950 . S
C744 C745 1.349 . S
C744 C746 1.327 . S
C744 H769 0.950 . S
C745 C744 1.349 . S
C745 C761 1.349 . S
C746 C744 1.327 . S
C746 C765 1.429 . S
C746 H770 0.950 . S
C747 C764 1.574 1_545 S
C747 C766 1.368 . S
C747 H771 0.949 . S
H748 C752 0.949 . S
C749 C750 1.349 . S
C749 C751 1.327 . S
C749 H772 0.950 . S
C750 C749 1.349 . S
C750 C762 1.349 . S
C751 C749 1.327 . S
C751 C767 1.429 . S
C751 H773 0.950 . S
C752 H748 0.949 . S
C752 C760 1.574 1_565 S
C752 C768 1.368 . S
H753 C761 0.950 . S
H754 C759 0.950 . S
H755 C760 0.949 . S
H756 C762 0.950 . S
H757 C763 0.950 . S
H758 C764 0.949 . S
C759 H754 0.950 . S
C759 C761 1.327 . S
C759 C765 1.429 . S
C760 C752 1.574 1_545 S
C760 H755 0.949 . S
C760 C766 1.368 . S
C761 C745 1.349 . S
C761 H753 0.950 . S
C761 C759 1.327 . S
C762 C750 1.349 . S
C762 H756 0.950 . S
C762 C763 1.327 . S
C763 H757 0.950 . S
C763 C762 1.327 . S
C763 C767 1.429 . S
C764 C747 1.574 1_565 S
C764 H758 0.949 . S
C764 C768 1.368 . S
C765 C746 1.429 . S
C765 C759 1.429 . S
C765 C766 1.523 . S
C766 C747 1.368 . S
C766 C760 1.368 . S
C766 C765 1.523 . S
C767 C751 1.429 . S
C767 C763 1.429 . S
C767 C768 1.523 . S
C768 C752 1.368 . S
C768 C764 1.368 . S
C768 C767 1.523 . S
H769 C744 0.950 . S
H770 C746 0.950 . S
H771 C747 0.949 . S
H772 C749 0.950 . S
H773 C751 0.950 . S
C774 C775 1.349 . S
C774 C776 1.327 . S
C774 H799 0.950 . S
C775 C774 1.349 . S
C775 C791 1.349 . S
C776 C774 1.327 . S
C776 C795 1.429 . S
C776 H800 0.950 . S
C777 C794 1.574 . S
C777 C796 1.368 . S
C777 H801 0.949 . S
H778 C782 0.949 . S
C779 C780 1.349 . S
C779 C781 1.327 . S
C779 H802 0.950 . S
C780 C779 1.349 . S
C780 C792 1.349 . S
C781 C779 1.327 . S
C781 C797 1.429 . S
C781 H803 0.950 . S
C782 H778 0.949 . S
C782 C790 1.574 . S
C782 C798 1.368 . S
H783 C791 0.950 . S
H784 C789 0.950 . S
H785 C790 0.949 . S
H786 C792 0.950 . S
H787 C793 0.950 . S
H788 C794 0.949 . S
C789 H784 0.950 . S
C789 C791 1.327 . S
C789 C795 1.429 . S
C790 C782 1.574 . S
C790 H785 0.949 . S
C790 C796 1.368 1_566 S
C791 C775 1.349 . S
C791 H783 0.950 . S
C791 C789 1.327 . S
C792 C780 1.349 . S
C792 H786 0.950 . S
C792 C793 1.327 . S
C793 H787 0.950 . S
C793 C792 1.327 . S
C793 C797 1.429 . S
C794 C777 1.574 . S
C794 H788 0.949 . S
C794 C798 1.368 1_544 S
C795 C776 1.429 . S
C795 C789 1.429 . S
C795 C796 1.523 . S
C796 C777 1.368 . S
C796 C790 1.368 1_544 S
C796 C795 1.523 . S
C797 C781 1.429 . S
C797 C793 1.429 . S
C797 C798 1.523 . S
C798 C782 1.368 . S
C798 C794 1.368 1_566 S
C798 C797 1.523 . S
H799 C774 0.950 . S
H800 C776 0.950 . S
H801 C777 0.949 . S
H802 C779 0.950 . S
H803 C781 0.950 . S
C804 C805 1.349 . S
C804 C806 1.327 . S
C804 H829 0.950 . S
C805 C804 1.349 . S
C805 C821 1.349 . S
C806 C804 1.327 . S
C806 C825 1.429 . S
C806 H830 0.950 . S
C807 C824 1.574 . S
C807 C826 1.368 1_655 S
C807 H831 0.949 . S
H808 C812 0.949 . S
C809 C810 1.349 . S
C809 C811 1.327 . S
C809 H832 0.950 . S
C810 C809 1.349 . S
C810 C822 1.349 . S
C811 C809 1.327 . S
C811 C827 1.429 . S
C811 H833 0.950 . S
C812 H808 0.949 . S
C812 C820 1.574 . S
C812 C828 1.368 1_455 S
H813 C821 0.950 . S
H814 C819 0.950 . S
H815 C820 0.949 . S
H816 C822 0.950 . S
H817 C823 0.950 . S
H818 C824 0.949 . S
C819 H814 0.950 . S
C819 C821 1.327 . S
C819 C825 1.429 . S
C820 C812 1.574 . S
C820 H815 0.949 . S
C820 C826 1.368 . S
C821 C805 1.349 . S
C821 H813 0.950 . S
C821 C819 1.327 . S
C822 C810 1.349 . S
C822 H816 0.950 . S
C822 C823 1.327 . S
C823 H817 0.950 . S
C823 C822 1.327 . S
C823 C827 1.429 . S
C824 C807 1.574 . S
C824 H818 0.949 . S
C824 C828 1.368 . S
C825 C806 1.429 . S
C825 C819 1.429 . S
C825 C826 1.523 . S
C826 C807 1.368 1_455 S
C826 C820 1.368 . S
C826 C825 1.523 . S
C827 C811 1.429 . S
C827 C823 1.429 . S
C827 C828 1.523 . S
C828 C812 1.368 1_655 S
C828 C824 1.368 . S
C828 C827 1.523 . S
H829 C804 0.950 . S
H830 C806 0.950 . S
H831 C807 0.949 . S
H832 C809 0.950 . S
H833 C811 0.950 . S
C834 C835 1.349 . S
C834 C836 1.327 . S
C834 H859 0.950 . S
C835 C834 1.349 . S
C835 C851 1.349 . S
C836 C834 1.327 . S
C836 C855 1.429 . S
C836 H860 0.950 . S
C837 C854 1.574 1_455 S
C837 C856 1.368 1_556 S
C837 H861 0.949 . S
H838 C842 0.949 . S
C839 C840 1.349 . S
C839 C841 1.327 . S
C839 H862 0.950 . S
C840 C839 1.349 . S
C840 C852 1.349 . S
C841 C839 1.327 . S
C841 C857 1.429 . S
C841 H863 0.950 . S
C842 H838 0.949 . S
C842 C850 1.574 1_655 S
C842 C858 1.368 1_554 S
H843 C851 0.950 . S
H844 C849 0.950 . S
H845 C850 0.949 . S
H846 C852 0.950 . S
H847 C853 0.950 . S
H848 C854 0.949 . S
C849 H844 0.950 . S
C849 C851 1.327 . S
C849 C855 1.429 . S
C850 C842 1.574 1_455 S
C850 H845 0.949 . S
C850 C856 1.368 . S
C851 C835 1.349 . S
C851 H843 0.950 . S
C851 C849 1.327 . S
C852 C840 1.349 . S
C852 H846 0.950 . S
C852 C853 1.327 . S
C853 H847 0.950 . S
C853 C852 1.327 . S
C853 C857 1.429 . S
C854 C837 1.574 1_655 S
C854 H848 0.949 . S
C854 C858 1.368 . S
C855 C836 1.429 . S
C855 C849 1.429 . S
C855 C856 1.523 . S
C856 C837 1.368 1_554 S
C856 C850 1.368 . S
C856 C855 1.523 . S
C857 C841 1.429 . S
C857 C853 1.429 . S
C857 C858 1.523 . S
C858 C842 1.368 1_556 S
C858 C854 1.368 . S
C858 C857 1.523 . S
H859 C834 0.950 . S
H860 C836 0.950 . S
H861 C837 0.949 . S
H862 C839 0.950 . S
H863 C841 0.950 . S
C265 N212 2.129 . S
C270 N14 2.129 . S
C295 N47 2.130 . S
C300 N245 2.130 . S
C325 N80 2.129 . S
C330 N146 2.129 . S
C355 N113 2.130 . S
C360 N179 2.130 . S
C385 N38 1.482 . S
C390 N5 1.482 . S
C415 N71 1.482 . S
C420 N104 1.482 . S
C445 N170 1.482 . S
C450 N137 1.482 . S
C475 N203 1.482 . S
C480 N236 1.482 . S
C505 C173 1.005 . S
C510 C17 1.011 . S
C535 C50 1.011 . S
C540 C140 1.005 . S
C565 C83 1.011 . S
C570 C239 1.005 . S
C595 C206 1.005 . S
C600 C116 1.011 . S
C625 C149 1.012 . S
C630 C41 1.005 . S
C655 C182 1.012 . S
C660 C8 1.005 . S
C685 C215 1.012 . S
C690 C107 1.005 . S
C715 C74 1.005 . S
C720 C248 1.011 . S
C745 C28 1.247 . S
C750 C94 1.247 . S
C775 C61 1.247 . S
C780 C127 1.247 . S
C805 C226 1.248 . S
C810 C160 1.248 . S
C835 C193 1.248 . S
C840 C259 1.248 . S
