# Generated by pormake.
# Topology qtz-e, (6)-cn, num edge types: 1
# Building blocks:
#     Node 0, Type 0, BuildingBlock: LEVNOQ01_clean_sbu_1, # of connection points: 6
#     Node 1, Type 0, BuildingBlock: LEVNOQ01_clean_sbu_1, # of connection points: 6
#     Node 2, Type 0, BuildingBlock: LEVNOQ01_clean_sbu_1, # of connection points: 6
#     Node 3, Type 0, BuildingBlock: LEVNOQ01_clean_sbu_1, # of connection points: 6
#     Node 4, Type 0, BuildingBlock: LEVNOQ01_clean_sbu_1, # of connection points: 6
#     Node 5, Type 0, BuildingBlock: LEVNOQ01_clean_sbu_1, # of connection points: 6
#     Edge 6, Type (0, 0), BuildingBlock: EZIPEK_clean_linker_0, # of connection points: 2
#     Edge 7, Type (0, 0), BuildingBlock: EZIPEK_clean_linker_0, # of connection points: 2
#     Edge 8, Type (0, 0), BuildingBlock: EZIPEK_clean_linker_0, # of connection points: 2
#     Edge 9, Type (0, 0), BuildingBlock: EZIPEK_clean_linker_0, # of connection points: 2
#     Edge 10, Type (0, 0), BuildingBlock: EZIPEK_clean_linker_0, # of connection points: 2
#     Edge 11, Type (0, 0), BuildingBlock: EZIPEK_clean_linker_0, # of connection points: 2
#     Edge 12, Type (0, 0), BuildingBlock: EZIPEK_clean_linker_0, # of connection points: 2
#     Edge 13, Type (0, 0), BuildingBlock: EZIPEK_clean_linker_0, # of connection points: 2
#     Edge 14, Type (0, 0), BuildingBlock: EZIPEK_clean_linker_0, # of connection points: 2
#     Edge 15, Type (0, 0), BuildingBlock: EZIPEK_clean_linker_0, # of connection points: 2
#     Edge 16, Type (0, 0), BuildingBlock: EZIPEK_clean_linker_0, # of connection points: 2
#     Edge 17, Type (0, 0), BuildingBlock: EZIPEK_clean_linker_0, # of connection points: 2
#     Edge 18, Type (0, 0), BuildingBlock: EZIPEK_clean_linker_0, # of connection points: 2
#     Edge 19, Type (0, 0), BuildingBlock: EZIPEK_clean_linker_0, # of connection points: 2
#     Edge 20, Type (0, 0), BuildingBlock: EZIPEK_clean_linker_0, # of connection points: 2
#     Edge 21, Type (0, 0), BuildingBlock: EZIPEK_clean_linker_0, # of connection points: 2
#     Edge 22, Type (0, 0), BuildingBlock: EZIPEK_clean_linker_0, # of connection points: 2
#     Edge 23, Type (0, 0), BuildingBlock: EZIPEK_clean_linker_0, # of connection points: 2
# Relax obj value: 0.332
# Max RMSD: 0.227
# Mean RMSD: 0.227
data_MOF--net-qtz-e--node1-LEVNOQ01_clean_sbu_1--edge1-EZIPEK_clean_linker_0
_symmetry_space_group_name_H-M    P1
_symmetry_Int_Tables_number       1
_symmetry_cell_setting            triclinic
loop_
_symmetry_equiv_pos_as_xyz
'x, y, z'
_cell_length_a     21.524914
_cell_length_b     21.446497
_cell_length_c     24.923092
_cell_angle_alpha  90.208271
_cell_angle_beta   90.821933
_cell_angle_gamma 121.12888
loop_
_atom_site_label
_atom_site_type_symbol
_atom_site_fract_x
_atom_site_fract_y
_atom_site_fract_z
_atom_type_partial_charge
O0 O 0.36359 0.48997 0.03396 0.0
Mg1 Mg 0.33209 0.55857 0.00368 0.0
O2 O 0.28563 0.38577 -0.00877 0.0
Mg3 Mg 0.18733 0.39969 -0.03848 0.0
O4 O 0.22575 0.49827 0.01357 0.0
O5 O 0.29183 0.60511 0.05452 0.0
O6 O 0.10004 0.42734 0.93733 0.0
O7 O 0.11968 0.3288 0.03353 0.0
Mg8 Mg 0.04229 0.27601 0.92061 0.0
O9 O 0.14537 0.2984 0.90285 0.0
O10 O 0.00654 0.34484 0.88961 0.0
O11 O 0.01454 0.24156 -0.00128 0.0
O12 O 0.04389 0.20017 0.87366 0.0
C13 C 0.30984 0.53343 0.88338 0.0
C14 C 0.34252 0.42461 0.02098 0.0
C15 C 0.22988 0.54622 0.04678 0.0
C16 C 0.04195 0.40783 0.91063 0.0
C17 C 0.05649 0.27256 0.03861 0.0
C18 C 0.11355 0.23963 0.87271 0.0
O19 O 0.34614 0.57715 0.92151 0.0
O20 O 0.25419 0.47051 0.89093 0.0
O21 O 0.76869 0.0356 0.34166 0.0
Mg22 Mg 0.76157 0.05745 0.26228 0.0
O23 O 0.79661 0.14463 0.37003 0.0
Mg24 Mg 0.77416 0.19365 0.29252 0.0
O25 O 0.83896 0.16004 0.23576 0.0
O26 O 0.84067 0.05816 0.21971 0.0
O27 O 0.75533 0.24532 0.22101 0.0
O28 O 0.88861 0.30551 0.30396 0.0
Mg29 Mg 0.79181 0.31241 0.34182 0.0
O30 O 0.69746 0.21769 0.34601 0.0
O31 O 0.80179 0.35255 0.26168 0.0
O32 O 0.8777 0.31762 0.38795 0.0
O33 O 0.72106 0.32179 0.38714 0.0
C34 C 0.62352 0.03388 0.24678 0.0
C35 C 0.78814 0.0822 0.37907 0.0
C36 C 0.86624 0.12623 0.21073 0.0
C37 C 0.77798 0.31288 0.2195 0.0
C38 C 0.91559 0.34308 0.34681 0.0
C39 C 0.67688 0.25389 0.3755 0.0
O40 O 0.65586 0.00339 0.22871 0.0
O41 O 0.65963 0.09449 0.27197 0.0
O42 O 0.44653 0.83879 0.63928 0.0
Mg43 Mg 0.41246 0.73559 0.61007 0.0
O44 O 0.56575 0.88539 0.63856 0.0
Mg45 Mg 0.5636 0.78031 0.60986 0.0
O46 O 0.46097 0.70215 0.6599 0.0
O47 O 0.33996 0.65777 0.65614 0.0
O48 O 0.54672 0.67014 0.58281 0.0
O49 O 0.62482 0.78782 0.69073 0.0
Mg50 Mg 0.69162 0.77348 0.58597 0.0
O51 O 0.67061 0.85369 0.56227 0.0
O52 O 0.63889 0.67008 0.54666 0.0
O53 O 0.71703 0.77689 0.66662 0.0
O54 O 0.7752 0.85641 0.5488 0.0
C55 C 0.44824 0.74636 0.50262 0.0
C56 C 0.51078 0.8909 0.649 0.0
C57 C 0.39608 0.66137 0.67876 0.0
C58 C 0.57273 0.63663 0.55889 0.0
C59 C 0.68147 0.7856 0.70263 0.0
C60 C 0.73496 0.88411 0.54138 0.0
O61 O 0.39285 0.70639 0.52954 0.0
O62 O 0.51025 0.78216 0.52602 0.0
O63 O 0.91341 0.74761 0.01648 0.0
Mg64 Mg 0.90806 0.72427 0.93386 0.0
O65 O 0.80923 0.64671 0.03267 0.0
Mg66 Mg 0.76555 0.5798 -0.04477 0.0
O67 O 0.80337 0.68205 0.90155 0.0
O68 O 0.89519 0.79158 0.88291 0.0
O69 O 0.72155 0.51067 0.88118 0.0
O70 O 0.65233 0.57709 -0.03394 0.0
Mg71 Mg 0.64996 0.47158 -0.00451 0.0
O72 O 0.745 0.48098 0.01012 0.0
O73 O 0.612 0.44647 0.91381 0.0
O74 O 0.65358 0.55183 0.04814 0.0
O75 O 0.63729 0.38421 0.0334 0.0
C76 C 0.93003 0.60193 0.92325 0.0
C77 C 0.86485 0.70565 0.04865 0.0
C78 C 0.82874 0.74092 0.87337 0.0
C79 C 0.65464 0.46485 0.87464 0.0
C80 C 0.62142 0.56378 0.01125 0.0
C81 C 0.70732 0.41966 0.0349 0.0
O82 O 0.96279 0.66838 0.91004 0.0
O83 O 0.86598 0.57178 0.94085 0.0
O84 O 0.09161 0.67958 0.38685 0.0
Mg85 Mg 0.14749 0.65538 0.32892 0.0
O86 O 0.05268 0.68173 0.30803 0.0
Mg87 Mg 0.1675 0.77995 0.27932 0.0
O88 O 0.24447 0.74826 0.32156 0.0
O89 O 0.23172 0.64596 0.35574 0.0
O90 O 0.27908 0.86959 0.25188 0.0
O91 O 0.17019 0.84946 0.35199 0.0
Mg92 Mg 0.18656 0.93171 0.23536 0.0
O93 O 0.10717 0.8232 0.23033 0.0
O94 O 0.2892 0.95997 0.20334 0.0
O95 O 0.18854 0.95391 0.31812 0.0
O96 O 0.09508 0.90746 0.18965 0.0
C97 C 0.1305 0.64086 0.20838 0.0
C98 C 0.03898 0.6522 0.35404 0.0
C99 C 0.27267 0.71368 0.3436 0.0
C100 C 0.31709 0.92626 0.22445 0.0
C101 C 0.17914 0.91293 0.35781 0.0
C102 C 0.06685 0.83999 0.20258 0.0
O103 O 0.1028 0.60626 0.25125 0.0
O104 O 0.16469 0.71022 0.20848 0.0
O105 O 0.21198 0.19059 0.67149 0.0
Mg106 Mg 0.2274 0.19574 0.58934 0.0
O107 O 0.31274 0.19182 0.69372 0.0
Mg108 Mg 0.3671 0.18622 0.61513 0.0
O109 O 0.25918 0.12347 0.56613 0.0
O110 O 0.15113 0.10716 0.54527 0.0
O111 O 0.40977 0.16595 0.53472 0.0
O112 O 0.36538 0.08476 0.6504 0.0
Mg113 Mg 0.50499 0.23162 0.606 0.0
O114 O 0.47151 0.26583 0.66607 0.0
O115 O 0.50887 0.27041 0.52824 0.0
O116 O 0.48014 0.12796 0.62832 0.0
O117 O 0.58921 0.30387 0.65036 0.0
C118 C 0.36213 0.3304 0.56435 0.0
C119 C 0.2554 0.19131 0.70658 0.0
C120 C 0.19858 0.08838 0.53872 0.0
C121 C 0.46145 0.21175 0.50628 0.0
C122 C 0.42241 0.08018 0.65061 0.0
C123 C 0.53994 0.30386 0.67928 0.0
O124 O 0.29439 0.30384 0.55817 0.0
O125 O 0.38589 0.29193 0.58329 0.0
C126 C 0.16365 0.5526 0.17398 0.0
C127 C 0.13799 0.60085 0.16287 0.0
C128 C 0.13987 0.57903 0.06634 0.0
C129 C 0.16901 0.53523 0.07874 0.0
N130 N 0.18384 0.45861 0.14025 0.0
N131 N 0.09675 0.65646 0.09815 0.0
C132 C 0.16989 0.51302 0.13136 0.0
C133 C 0.12312 0.61197 0.10886 0.0
N134 N 0.19153 0.55177 0.22354 0.0
N135 N 0.13479 0.59357 0.01365 0.0
H136 H 0.09372 0.68959 0.12707 0.0
H137 H 0.07793 0.66113 0.06062 0.0
H138 H 0.14576 0.56765 -0.01715 0.0
H139 H 0.12062 0.63048 0.00019 0.0
H140 H 0.21659 0.5223 0.23193 0.0
H141 H 0.19929 0.58769 0.25466 0.0
H142 H 0.179 0.43513 0.17767 0.0
H143 H 0.19227 0.43193 0.10862 0.0
C144 C 0.49793 0.23402 0.41292 0.0
C145 C 0.48272 0.18913 0.45753 0.0
C146 C 0.5746 0.16099 0.43066 0.0
C147 C 0.60163 0.21988 0.39454 0.0
N148 N 0.58698 0.3108 0.34854 0.0
N149 N 0.4977 0.10127 0.50599 0.0
C150 C 0.56155 0.25469 0.3838 0.0
C151 C 0.51623 0.1476 0.46401 0.0
N152 N 0.45299 0.25941 0.40072 0.0
N153 N 0.6059 0.11963 0.43475 0.0
H154 H 0.44934 0.0819 0.52638 0.0
H155 H 0.53275 0.08614 0.52189 0.0
H156 H 0.65037 0.12896 0.41255 0.0
H157 H 0.58392 0.07188 0.45682 0.0
H158 H 0.45743 0.28877 0.36633 0.0
H159 H 0.40683 0.24456 0.4232 0.0
H160 H 0.56556 0.34432 0.34406 0.0
H161 H 0.6324 0.32633 0.3256 0.0
C162 C 0.33065 0.62701 0.81782 0.0
C163 C 0.32911 0.56165 0.82903 0.0
C164 C 0.38227 0.56572 0.742 0.0
C165 C 0.38647 0.63264 0.73276 0.0
N166 N 0.38511 0.73735 0.76649 0.0
N167 N 0.35114 0.46628 0.80355 0.0
C168 C 0.36711 0.66656 0.77226 0.0
C169 C 0.35437 0.53 0.79157 0.0
N170 N 0.29386 0.64918 0.84933 0.0
N171 N 0.40577 0.53763 0.70351 0.0
H172 H 0.33211 0.44003 0.83992 0.0
H173 H 0.36679 0.43874 0.778 0.0
H174 H 0.42837 0.56461 0.6678 0.0
H175 H 0.40416 0.48871 0.70676 0.0
H176 H 0.28724 0.69265 0.8397 0.0
H177 H 0.26309 0.61932 0.88193 0.0
H178 H 0.37849 0.7671 0.79663 0.0
H179 H 0.41402 0.76869 0.73382 0.0
C180 C 0.73259 0.38493 0.17538 0.0
C181 C 0.76694 0.34409 0.17059 0.0
C182 C 0.77023 0.35836 0.07307 0.0
C183 C 0.74127 0.40381 0.0796 0.0
N184 N 0.71683 0.47867 0.13783 0.0
N185 N 0.83013 0.3015 0.11627 0.0
C186 C 0.73065 0.42377 0.13115 0.0
C187 C 0.78952 0.33355 0.11972 0.0
N188 N 0.69578 0.38135 0.22054 0.0
N189 N 0.77766 0.33807 0.02272 0.0
H190 H 0.84727 0.28525 0.14993 0.0
H191 H 0.85165 0.29616 0.08061 0.0
H192 H 0.76681 0.3586 -0.01176 0.0
H193 H 0.79132 0.29887 0.01527 0.0
H194 H 0.66426 0.40516 0.22381 0.0
H195 H 0.68842 0.34611 0.25153 0.0
H196 H 0.71507 0.49908 0.17546 0.0
H197 H 0.71609 0.50938 0.10595 0.0
C198 C 0.43196 0.72028 0.40425 0.0
C199 C 0.43579 0.7643 0.44797 0.0
C200 C 0.37671 0.8131 0.39266 0.0
C201 C 0.3504 0.75161 0.35917 0.0
N202 N 0.36947 0.66091 0.32017 0.0
N203 N 0.40936 0.85228 0.48418 0.0
C204 C 0.38523 0.71092 0.36002 0.0
C205 C 0.41009 0.81295 0.44165 0.0
N206 N 0.47 0.6856 0.40673 0.0
N207 N 0.36475 0.86775 0.37971 0.0
H208 H 0.42463 0.84587 0.52259 0.0
H209 H 0.38709 0.88519 0.48178 0.0
H210 H 0.34155 0.86837 0.34292 0.0
H211 H 0.38577 0.9158 0.40215 0.0
H212 H 0.47148 0.6539 0.37566 0.0
H213 H 0.50468 0.69379 0.43921 0.0
H214 H 0.38788 0.6246 0.3198 0.0
H215 H 0.33694 0.65654 0.28712 0.0
C216 C 0.58596 0.34811 0.82475 0.0
C217 C 0.6273 0.42525 0.82352 0.0
C218 C 0.60984 0.42267 0.7263 0.0
C219 C 0.56272 0.34628 0.72894 0.0
N220 N 0.49599 0.23652 0.78073 0.0
N221 N 0.67741 0.53756 0.77389 0.0
C222 C 0.54701 0.30914 0.77827 0.0
C223 C 0.63933 0.46317 0.77448 0.0
N224 N 0.58853 0.31188 0.86908 0.0
N225 N 0.6273 0.45613 0.67754 0.0
H226 H 0.70627 0.56966 0.8069 0.0
H227 H 0.6785 0.56797 0.74106 0.0
H228 H 0.60148 0.42938 0.64168 0.0
H229 H 0.66915 0.50967 0.67211 0.0
H230 H 0.56542 0.2556 0.87008 0.0
H231 H 0.6211 0.33827 0.90281 0.0
H232 H 0.47677 0.20915 0.81677 0.0
H233 H 0.46822 0.2046 0.74718 0.0
C234 C 0.43359 0.40641 -0.01528 0.0
C235 C 0.39736 0.40397 0.03122 0.0
C236 C 0.51077 0.50461 0.06807 0.0
C237 C 0.54032 0.51993 0.01528 0.0
N238 N 0.51316 0.4912 0.92027 0.0
N239 N 0.41318 0.41871 0.12591 0.0
C240 C 0.4974 0.4722 -0.02761 0.0
C241 C 0.44166 0.44063 0.07635 0.0
N242 N 0.40839 0.34582 -0.04639 0.0
N243 N 0.54665 0.55347 0.10893 0.0
H244 H 0.36048 0.37418 0.13008 0.0
H245 H 0.44276 0.44056 0.1615 0.0
H246 H 0.59401 0.60351 0.10261 0.0
H247 H 0.5262 0.54767 0.14737 0.0
H248 H 0.43666 0.34437 0.92037 0.0
H249 H 0.36203 0.29697 -0.03573 0.0
H250 H 0.48054 0.45755 0.88864 0.0
H251 H 0.55185 0.54398 0.90997 0.0
C252 C 0.95816 0.53052 0.30828 0.0
C253 C -0.00957 0.57057 0.3561 0.0
C254 C -0.01208 0.46365 0.39398 0.0
C255 C 0.96007 0.42513 0.34458 0.0
N256 N 0.94963 0.4379 0.24877 0.0
N257 N 0.00593 0.56376 0.45106 0.0
C258 C 0.95383 0.4629 0.29985 0.0
C259 C -0.00361 0.53353 0.40107 0.0
N260 N 0.92818 0.55531 0.27203 0.0
N261 N 0.00939 0.43428 0.43331 0.0
H262 H 0.00576 0.61186 0.45729 0.0
H263 H 0.00493 0.53723 0.48624 0.0
H264 H 0.00731 0.38495 0.42769 0.0
H265 H 0.03649 0.46221 0.46842 0.0
H266 H 0.8983 0.52486 0.2384 0.0
H267 H 0.92532 0.60162 0.2799 0.0
H268 H 0.95078 0.46717 0.21506 0.0
H269 H 0.954 0.39296 0.24006 0.0
C270 C 0.4206 0.97566 0.62203 0.0
C271 C 0.42237 0.01478 0.66698 0.0
C272 C 0.5092 -0.01465 0.70667 0.0
C273 C 0.5164 0.96155 0.65513 0.0
N274 N 0.4994 0.9673 0.56017 0.0
N275 N 0.47109 0.05836 0.7558 0.0
C276 C 0.48237 0.97304 0.61128 0.0
C277 C 0.46774 0.02015 0.71104 0.0
N278 N 0.35919 0.93838 0.5919 0.0
N279 N 0.54003 0.97327 0.75035 0.0
H280 H 0.43748 0.07984 0.75958 0.0
H281 H 0.50754 0.06935 0.78753 0.0
H282 H 0.57191 0.94982 0.74638 0.0
H283 H 0.53197 0.98451 0.7895 0.0
H284 H 0.3554 0.90515 0.56004 0.0
H285 H 0.31106 0.93388 0.60472 0.0
H286 H 0.54405 0.9626 0.55093 0.0
H287 H 0.54405 0.9626 0.55093 0.0
C288 C 0.48617 0.521 0.50943 0.0
C289 C 0.52793 0.55639 0.55636 0.0
C290 C 0.45773 0.44534 0.6083 0.0
C291 C 0.41475 0.4097 0.56143 0.0
N292 N 0.39141 0.40878 0.46657 0.0
N293 N 0.55934 0.55451 0.6491 0.0
C294 C 0.42962 0.44632 0.51169 0.0
C295 C 0.51613 0.51857 0.6052 0.0
N296 N 0.50046 0.55966 0.46313 0.0
N297 N 0.44175 0.40878 0.6559 0.0
H298 H 0.60516 0.60672 0.6471 0.0
H299 H 0.55125 0.53392 0.68768 0.0
H300 H 0.3932 0.35998 0.66227 0.0
H301 H 0.47458 0.42675 0.69023 0.0
H302 H 0.46852 0.54078 0.42835 0.0
H303 H 0.54519 0.61233 0.4598 0.0
H304 H 0.40214 0.42991 0.42809 0.0
H305 H 0.34971 0.3543 0.46714 0.0
C306 C 0.01963 0.50079 0.86754 0.0
C307 C 0.01128 0.45578 0.91169 0.0
C308 C 0.963 0.51674 -0.03468 0.0
C309 C 0.96443 0.55698 0.9196 0.0
N310 N -0.01731 0.57797 0.82439 0.0
N311 N 0.96452 0.41192 -0.00029 0.0
C312 C -0.00992 0.54688 0.86992 0.0
C313 C -0.0204 0.461 -0.04032 0.0
N314 N 0.05703 0.50054 0.82378 0.0
N315 N 0.94874 0.53403 0.01471 0.0
H316 H -0.02454 0.36997 -0.00308 0.0
H317 H 0.93568 0.40884 0.03374 0.0
H318 H 0.93993 0.57694 0.02093 0.0
H319 H 0.95353 0.51157 0.05036 0.0
H320 H 0.07235 0.53812 0.79298 0.0
H321 H 0.07739 0.4659 0.82014 0.0
H322 H -0.00702 0.56606 0.78617 0.0
H323 H 0.96041 0.61106 0.82404 0.0
C324 C 0.43461 -0.00559 0.27376 0.0
C325 C 0.39636 0.95834 0.22601 0.0
C326 C 0.50767 0.97213 0.18923 0.0
C327 C 0.54378 0.00107 0.23962 0.0
N328 N 0.53208 0.01606 0.33436 0.0
N329 N 0.39189 0.90001 0.14212 0.0
C330 C 0.50454 0.00559 0.28321 0.0
C331 C 0.43143 0.94306 0.18485 0.0
N332 N 0.4042 0.01801 0.31027 0.0
N333 N 0.54594 0.97564 0.14492 0.0
H334 H 0.3365 0.8801 0.13691 0.0
H335 H 0.41296 0.87988 0.11418 0.0
H336 H 0.60209 -0.00049 0.14511 0.0
H337 H 0.5227 0.96121 0.10653 0.0
H338 H 0.43303 0.05087 0.34328 0.0
H339 H 0.35258 0.01048 0.30482 0.0
H340 H 0.50232 0.01307 0.36787 0.0
H341 H 0.58057 0.01829 0.34379 0.0
C342 C 0.27194 0.2466 0.79821 0.0
C343 C 0.23356 0.18684 0.76275 0.0
C344 C 0.11912 0.15585 0.80124 0.0
C345 C 0.1554 0.21637 0.83817 0.0
N346 N 0.26931 0.29933 0.88334 0.0
N347 N 0.13097 0.06654 0.75002 0.0
C348 C 0.23309 0.25559 0.84047 0.0
C349 C 0.1611 0.13419 0.77286 0.0
N350 N 0.34476 0.29302 0.792 0.0
N351 N 0.04738 0.12441 0.78701 0.0
H352 H 0.16188 0.05169 0.72732 0.0
H353 H 0.07863 0.02431 0.75865 0.0
H354 H 0.01637 0.14787 0.79368 0.0
H355 H 0.02203 0.08191 0.75895 0.0
H356 H 0.37622 0.34037 0.81458 0.0
H357 H 0.37412 0.28401 0.76331 0.0
H358 H 0.32422 0.33788 0.88357 0.0
H359 H 0.24529 0.29008 0.92067 0.0
C360 C -0.02943 0.24255 0.17404 0.0
C361 C 0.9266 0.16527 0.17204 0.0
C362 C 0.00145 0.16716 0.0984 0.0
C363 C 0.028 0.24192 0.09132 0.0
N364 N 0.02484 0.34856 0.11837 0.0
N365 N 0.89365 0.055 0.11971 0.0
C366 C 0.00961 0.27959 0.12816 0.0
C367 C 0.94074 0.12704 0.1314 0.0
N368 N -0.02086 0.2807 0.22007 0.0
N369 N 0.03144 0.13399 0.07132 0.0
H370 H 0.84128 0.02506 0.13426 0.0
H371 H 0.90217 0.02794 0.08847 0.0
H372 H 0.07603 0.1631 0.04657 0.0
H373 H 0.01698 0.08024 0.07838 0.0
H374 H 0.01645 0.33658 0.22297 0.0
H375 H 0.95931 0.25513 0.25661 0.0
H376 H 0.00602 0.37468 0.14287 0.0
H377 H 0.05098 0.3768 0.08389 0.0
C378 C 0.75277 0.00745 0.51883 0.0
C379 C 0.7617 0.94782 0.50585 0.0
C380 C 0.83178 0.0143 0.4285 0.0
C381 C 0.80332 0.06039 0.43174 0.0
N382 N 0.74664 0.11042 0.48505 0.0
N383 N 0.79853 0.89003 0.4397 0.0
C384 C 0.76763 0.06082 0.47893 0.0
C385 C 0.79956 0.9504 0.45888 0.0
N386 N 0.73248 0.01419 0.56915 0.0
N387 N 0.88457 0.02841 0.39255 0.0
H388 H 0.76694 0.83834 0.45588 0.0
H389 H 0.82112 0.88934 0.40313 0.0
H390 H 0.90752 0.07517 0.36907 0.0
H391 H 0.90971 -0.00207 0.39049 0.0
H392 H 0.7307 0.05949 0.58201 0.0
H393 H 0.72459 0.97791 0.59976 0.0
H394 H 0.71252 0.10771 0.51535 0.0
H395 H 0.76313 0.15403 0.45916 0.0
C396 C 0.78528 0.83808 0.76468 0.0
C397 C 0.70976 0.79375 0.75814 0.0
C398 C 0.70662 0.71493 0.82968 0.0
C399 C 0.78471 0.75422 0.83195 0.0
N400 N 0.89357 0.83596 0.78242 0.0
N401 N 0.59664 0.71002 0.79771 0.0
C402 C 0.82318 0.81235 0.79498 0.0
C403 C 0.66983 0.73866 0.79503 0.0
N404 N 0.82082 0.90311 0.73884 0.0
N405 N 0.66644 0.65024 0.8548 0.0
H406 H 0.56952 0.72825 0.77343 0.0
H407 H 0.5647 0.67533 0.828 0.0
H408 H 0.68752 0.62595 0.8783 0.0
H409 H 0.61241 0.61421 0.84414 0.0
H410 H 0.8758 0.94115 0.74534 0.0
H411 H 0.79267 0.92137 0.7156 0.0
H412 H 0.92195 0.87518 0.75349 0.0
H413 H 0.9194 0.80796 0.79335 0.0
C414 C 0.96709 0.71339 0.16951 0.0
C415 C -0.00939 0.78642 0.18482 0.0
C416 C 0.89406 0.78293 0.13007 0.0
C417 C 0.8826 0.71814 0.10613 0.0
N418 N 0.88397 0.60711 0.11521 0.0
N419 N 0.95016 0.86985 0.20368 0.0
C420 C 0.90984 0.67765 0.13097 0.0
C421 C 0.9447 0.81411 0.17326 0.0
N422 N 0.0008 0.67947 0.18962 0.0
N423 N 0.85952 0.81606 0.10936 0.0
H424 H -0.01509 0.89043 0.23723 0.0
H425 H 0.91543 0.88985 0.19926 0.0
H426 H 0.81992 0.79145 0.07898 0.0
H427 H 0.87129 0.86775 0.12117 0.0
H428 H -0.01046 0.62802 0.17812 0.0
H429 H 0.04129 0.70278 0.21844 0.0
H430 H 0.898 0.5722 0.13293 0.0
H431 H 0.84342 0.58053 0.08607 0.0
C432 C 0.2221 -0.00655 0.49883 0.0
C433 C 0.18591 0.03324 0.49626 0.0
C434 C 0.12573 0.96851 0.41272 0.0
C435 C 0.17123 0.9393 0.41063 0.0
N436 N 0.2525 0.91077 0.45645 0.0
N437 N 0.12302 0.07468 0.43758 0.0
C438 C 0.21695 0.9482 0.4549 0.0
C439 C 0.14177 0.02442 0.45019 0.0
N440 N 0.26568 0.00258 0.54168 0.0
N441 N 0.06808 0.94397 0.37776 0.0
H442 H 0.14549 0.12535 0.45643 0.0
H443 H 0.09496 0.07174 0.40229 0.0
H444 H 0.05442 0.90185 0.35015 0.0
H445 H 0.0297 0.95962 0.38066 0.0
H446 H 0.31371 0.00303 0.53668 0.0
H447 H 0.25645 0.01519 0.58003 0.0
H448 H 0.28065 0.90907 0.49012 0.0
H449 H 0.25038 0.87737 0.42524 0.0
loop_
_geom_bond_atom_site_label_1
_geom_bond_atom_site_label_2
_geom_bond_distance
_geom_bond_site_symmetry_2
_ccdc_geom_bond_type
O0 Mg1 1.990 . S
O0 C14 1.253 . S
Mg1 O0 1.990 . S
Mg1 O4 2.180 . S
Mg1 O5 2.117 . S
Mg1 O19 2.030 1_554 S
O2 Mg3 2.072 1_554 S
O2 C14 1.260 . S
Mg3 O2 2.072 1_556 S
Mg3 O4 2.099 1_556 S
Mg3 O6 2.079 . S
Mg3 O7 2.072 1_556 S
Mg3 O9 2.099 . S
Mg3 O20 2.079 . S
O4 Mg1 2.180 . S
O4 Mg3 2.099 1_554 S
O4 C15 1.279 . S
O5 Mg1 2.117 . S
O5 C15 1.250 . S
O6 Mg3 2.079 . S
O6 C16 1.264 . S
O7 Mg3 2.072 1_554 S
O7 C17 1.260 . S
Mg8 O9 2.180 . S
Mg8 O10 2.030 . S
Mg8 O11 1.990 1_556 S
Mg8 O12 2.117 . S
O9 Mg3 2.099 . S
O9 Mg8 2.180 . S
O9 C18 1.279 . S
O10 Mg8 2.030 . S
O10 C16 1.248 . S
O11 Mg8 1.990 1_554 S
O11 C17 1.253 . S
O12 Mg8 2.117 . S
O12 C18 1.250 . S
C13 O19 1.248 . S
C13 O20 1.264 . S
C14 O0 1.253 . S
C14 O2 1.260 . S
C15 O4 1.279 . S
C15 O5 1.250 . S
C16 O6 1.264 . S
C16 O10 1.248 . S
C17 O7 1.260 . S
C17 O11 1.253 . S
C18 O9 1.279 . S
C18 O12 1.250 . S
O19 Mg1 2.030 1_556 S
O19 C13 1.248 . S
O20 Mg3 2.079 . S
O20 C13 1.264 . S
O21 Mg22 1.990 . S
O21 C35 1.253 . S
Mg22 O21 1.990 . S
Mg22 O25 2.180 . S
Mg22 O26 2.117 . S
Mg22 O40 2.030 . S
O23 Mg24 2.072 . S
O23 C35 1.260 . S
Mg24 O23 2.072 . S
Mg24 O25 2.099 . S
Mg24 O27 2.079 . S
Mg24 O28 2.072 . S
Mg24 O30 2.099 . S
Mg24 O41 2.079 . S
O25 Mg22 2.180 . S
O25 Mg24 2.099 . S
O25 C36 1.279 . S
O26 Mg22 2.117 . S
O26 C36 1.250 . S
O27 Mg24 2.079 . S
O27 C37 1.264 . S
O28 Mg24 2.072 . S
O28 C38 1.260 . S
Mg29 O30 2.180 . S
Mg29 O31 2.030 . S
Mg29 O32 1.990 . S
Mg29 O33 2.117 . S
O30 Mg24 2.099 . S
O30 Mg29 2.180 . S
O30 C39 1.279 . S
O31 Mg29 2.030 . S
O31 C37 1.248 . S
O32 Mg29 1.990 . S
O32 C38 1.253 . S
O33 Mg29 2.117 . S
O33 C39 1.250 . S
C34 O40 1.248 . S
C34 O41 1.264 . S
C35 O21 1.253 . S
C35 O23 1.260 . S
C36 O25 1.279 . S
C36 O26 1.250 . S
C37 O27 1.264 . S
C37 O31 1.248 . S
C38 O28 1.260 . S
C38 O32 1.253 . S
C39 O30 1.279 . S
C39 O33 1.250 . S
O40 Mg22 2.030 . S
O40 C34 1.248 . S
O41 Mg24 2.079 . S
O41 C34 1.264 . S
O42 Mg43 1.990 . S
O42 C56 1.253 . S
Mg43 O42 1.990 . S
Mg43 O46 2.180 . S
Mg43 O47 2.117 . S
Mg43 O61 2.030 . S
O44 Mg45 2.072 . S
O44 C56 1.260 . S
Mg45 O44 2.072 . S
Mg45 O46 2.099 . S
Mg45 O48 2.079 . S
Mg45 O49 2.072 . S
Mg45 O51 2.099 . S
Mg45 O62 2.079 . S
O46 Mg43 2.180 . S
O46 Mg45 2.099 . S
O46 C57 1.279 . S
O47 Mg43 2.117 . S
O47 C57 1.250 . S
O48 Mg45 2.079 . S
O48 C58 1.264 . S
O49 Mg45 2.072 . S
O49 C59 1.260 . S
Mg50 O51 2.180 . S
Mg50 O52 2.030 . S
Mg50 O53 1.990 . S
Mg50 O54 2.117 . S
O51 Mg45 2.099 . S
O51 Mg50 2.180 . S
O51 C60 1.279 . S
O52 Mg50 2.030 . S
O52 C58 1.248 . S
O53 Mg50 1.990 . S
O53 C59 1.253 . S
O54 Mg50 2.117 . S
O54 C60 1.250 . S
C55 O61 1.248 . S
C55 O62 1.264 . S
C56 O42 1.253 . S
C56 O44 1.260 . S
C57 O46 1.279 . S
C57 O47 1.250 . S
C58 O48 1.264 . S
C58 O52 1.248 . S
C59 O49 1.260 . S
C59 O53 1.253 . S
C60 O51 1.279 . S
C60 O54 1.250 . S
O61 Mg43 2.030 . S
O61 C55 1.248 . S
O62 Mg45 2.079 . S
O62 C55 1.264 . S
O63 Mg64 1.990 1_554 S
O63 C77 1.253 . S
Mg64 O63 1.990 1_556 S
Mg64 O67 2.180 . S
Mg64 O68 2.117 . S
Mg64 O82 2.030 . S
O65 Mg66 2.072 1_554 S
O65 C77 1.260 . S
Mg66 O65 2.072 1_556 S
Mg66 O67 2.099 . S
Mg66 O69 2.079 . S
Mg66 O70 2.072 1_556 S
Mg66 O72 2.099 1_556 S
Mg66 O83 2.079 . S
O67 Mg64 2.180 . S
O67 Mg66 2.099 . S
O67 C78 1.279 . S
O68 Mg64 2.117 . S
O68 C78 1.250 . S
O69 Mg66 2.079 . S
O69 C79 1.264 . S
O70 Mg66 2.072 1_554 S
O70 C80 1.260 . S
Mg71 O72 2.180 . S
Mg71 O73 2.030 1_554 S
Mg71 O74 1.990 . S
Mg71 O75 2.117 . S
O72 Mg66 2.099 1_554 S
O72 Mg71 2.180 . S
O72 C81 1.279 . S
O73 Mg71 2.030 1_556 S
O73 C79 1.248 . S
O74 Mg71 1.990 . S
O74 C80 1.253 . S
O75 Mg71 2.117 . S
O75 C81 1.250 . S
C76 O82 1.248 . S
C76 O83 1.264 . S
C77 O63 1.253 . S
C77 O65 1.260 . S
C78 O67 1.279 . S
C78 O68 1.250 . S
C79 O69 1.264 . S
C79 O73 1.248 . S
C80 O70 1.260 . S
C80 O74 1.253 . S
C81 O72 1.279 . S
C81 O75 1.250 . S
O82 Mg64 2.030 . S
O82 C76 1.248 . S
O83 Mg66 2.079 . S
O83 C76 1.264 . S
O84 Mg85 1.990 . S
O84 C98 1.253 . S
Mg85 O84 1.990 . S
Mg85 O88 2.180 . S
Mg85 O89 2.117 . S
Mg85 O103 2.030 . S
O86 Mg87 2.072 . S
O86 C98 1.260 . S
Mg87 O86 2.072 . S
Mg87 O88 2.099 . S
Mg87 O90 2.079 . S
Mg87 O91 2.072 . S
Mg87 O93 2.099 . S
Mg87 O104 2.079 . S
O88 Mg85 2.180 . S
O88 Mg87 2.099 . S
O88 C99 1.279 . S
O89 Mg85 2.117 . S
O89 C99 1.250 . S
O90 Mg87 2.079 . S
O90 C100 1.264 . S
O91 Mg87 2.072 . S
O91 C101 1.260 . S
Mg92 O93 2.180 . S
Mg92 O94 2.030 . S
Mg92 O95 1.990 . S
Mg92 O96 2.117 . S
O93 Mg87 2.099 . S
O93 Mg92 2.180 . S
O93 C102 1.279 . S
O94 Mg92 2.030 . S
O94 C100 1.248 . S
O95 Mg92 1.990 . S
O95 C101 1.253 . S
O96 Mg92 2.117 . S
O96 C102 1.250 . S
C97 O103 1.248 . S
C97 O104 1.264 . S
C98 O84 1.253 . S
C98 O86 1.260 . S
C99 O88 1.279 . S
C99 O89 1.250 . S
C100 O90 1.264 . S
C100 O94 1.248 . S
C101 O91 1.260 . S
C101 O95 1.253 . S
C102 O93 1.279 . S
C102 O96 1.250 . S
O103 Mg85 2.030 . S
O103 C97 1.248 . S
O104 Mg87 2.079 . S
O104 C97 1.264 . S
O105 Mg106 1.990 . S
O105 C119 1.253 . S
Mg106 O105 1.990 . S
Mg106 O109 2.180 . S
Mg106 O110 2.117 . S
Mg106 O124 2.030 . S
O107 Mg108 2.072 . S
O107 C119 1.260 . S
Mg108 O107 2.072 . S
Mg108 O109 2.099 . S
Mg108 O111 2.079 . S
Mg108 O112 2.072 . S
Mg108 O114 2.099 . S
Mg108 O125 2.079 . S
O109 Mg106 2.180 . S
O109 Mg108 2.099 . S
O109 C120 1.279 . S
O110 Mg106 2.117 . S
O110 C120 1.250 . S
O111 Mg108 2.079 . S
O111 C121 1.264 . S
O112 Mg108 2.072 . S
O112 C122 1.260 . S
Mg113 O114 2.180 . S
Mg113 O115 2.030 . S
Mg113 O116 1.990 . S
Mg113 O117 2.117 . S
O114 Mg108 2.099 . S
O114 Mg113 2.180 . S
O114 C123 1.279 . S
O115 Mg113 2.030 . S
O115 C121 1.248 . S
O116 Mg113 1.990 . S
O116 C122 1.253 . S
O117 Mg113 2.117 . S
O117 C123 1.250 . S
C118 O124 1.248 . S
C118 O125 1.264 . S
C119 O105 1.253 . S
C119 O107 1.260 . S
C120 O109 1.279 . S
C120 O110 1.250 . S
C121 O111 1.264 . S
C121 O115 1.248 . S
C122 O112 1.260 . S
C122 O116 1.253 . S
C123 O114 1.279 . S
C123 O117 1.250 . S
O124 Mg106 2.030 . S
O124 C118 1.248 . S
O125 Mg108 2.079 . S
O125 C118 1.264 . S
C126 C127 1.363 . S
C126 C132 1.379 . S
C126 N134 1.356 . S
C127 C126 1.363 . S
C127 C133 1.363 . S
C128 C129 1.363 . S
C128 C133 1.379 . S
C128 N135 1.356 . S
C129 C128 1.363 . S
C129 C132 1.363 . S
N130 C132 1.356 . S
N130 H142 0.984 . S
N130 H143 0.985 . S
N131 C133 1.356 . S
N131 H136 0.984 . S
N131 H137 0.985 . S
C132 C126 1.379 . S
C132 C129 1.363 . S
C132 N130 1.356 . S
C133 C127 1.363 . S
C133 C128 1.379 . S
C133 N131 1.356 . S
N134 C126 1.356 . S
N134 H140 0.984 . S
N134 H141 0.984 . S
N135 C128 1.356 . S
N135 H138 0.984 . S
N135 H139 0.985 . S
H136 N131 0.984 . S
H137 N131 0.985 . S
H138 N135 0.984 . S
H139 N135 0.985 . S
H140 N134 0.984 . S
H141 N134 0.984 . S
H142 N130 0.984 . S
H143 N130 0.985 . S
C144 C145 1.363 . S
C144 C150 1.379 . S
C144 N152 1.356 . S
C145 C144 1.363 . S
C145 C151 1.363 . S
C146 C147 1.363 . S
C146 C151 1.379 . S
C146 N153 1.356 . S
C147 C146 1.363 . S
C147 C150 1.363 . S
N148 C150 1.356 . S
N148 H160 0.984 . S
N148 H161 0.985 . S
N149 C151 1.356 . S
N149 H154 0.984 . S
N149 H155 0.985 . S
C150 C144 1.379 . S
C150 C147 1.363 . S
C150 N148 1.356 . S
C151 C145 1.363 . S
C151 C146 1.379 . S
C151 N149 1.356 . S
N152 C144 1.356 . S
N152 H158 0.984 . S
N152 H159 0.984 . S
N153 C146 1.356 . S
N153 H156 0.984 . S
N153 H157 0.985 . S
H154 N149 0.984 . S
H155 N149 0.985 . S
H156 N153 0.984 . S
H157 N153 0.985 . S
H158 N152 0.984 . S
H159 N152 0.984 . S
H160 N148 0.984 . S
H161 N148 0.985 . S
C162 C163 1.363 . S
C162 C168 1.379 . S
C162 N170 1.356 . S
C163 C162 1.363 . S
C163 C169 1.363 . S
C164 C165 1.363 . S
C164 C169 1.379 . S
C164 N171 1.356 . S
C165 C164 1.363 . S
C165 C168 1.363 . S
N166 C168 1.356 . S
N166 H178 0.984 . S
N166 H179 0.985 . S
N167 C169 1.356 . S
N167 H172 0.984 . S
N167 H173 0.985 . S
C168 C162 1.379 . S
C168 C165 1.363 . S
C168 N166 1.356 . S
C169 C163 1.363 . S
C169 C164 1.379 . S
C169 N167 1.356 . S
N170 C162 1.356 . S
N170 H176 0.984 . S
N170 H177 0.984 . S
N171 C164 1.356 . S
N171 H174 0.984 . S
N171 H175 0.985 . S
H172 N167 0.984 . S
H173 N167 0.985 . S
H174 N171 0.984 . S
H175 N171 0.985 . S
H176 N170 0.984 . S
H177 N170 0.984 . S
H178 N166 0.984 . S
H179 N166 0.985 . S
C180 C181 1.363 . S
C180 C186 1.379 . S
C180 N188 1.356 . S
C181 C180 1.363 . S
C181 C187 1.363 . S
C182 C183 1.363 . S
C182 C187 1.379 . S
C182 N189 1.356 . S
C183 C182 1.363 . S
C183 C186 1.363 . S
N184 C186 1.356 . S
N184 H196 0.984 . S
N184 H197 0.985 . S
N185 C187 1.356 . S
N185 H190 0.984 . S
N185 H191 0.985 . S
C186 C180 1.379 . S
C186 C183 1.363 . S
C186 N184 1.356 . S
C187 C181 1.363 . S
C187 C182 1.379 . S
C187 N185 1.356 . S
N188 C180 1.356 . S
N188 H194 0.984 . S
N188 H195 0.984 . S
N189 C182 1.356 . S
N189 H192 0.984 . S
N189 H193 0.985 . S
H190 N185 0.984 . S
H191 N185 0.985 . S
H192 N189 0.984 . S
H193 N189 0.985 . S
H194 N188 0.984 . S
H195 N188 0.984 . S
H196 N184 0.984 . S
H197 N184 0.985 . S
C198 C199 1.363 . S
C198 C204 1.379 . S
C198 N206 1.356 . S
C199 C198 1.363 . S
C199 C205 1.363 . S
C200 C201 1.363 . S
C200 C205 1.379 . S
C200 N207 1.356 . S
C201 C200 1.363 . S
C201 C204 1.363 . S
N202 C204 1.356 . S
N202 H214 0.984 . S
N202 H215 0.985 . S
N203 C205 1.356 . S
N203 H208 0.984 . S
N203 H209 0.985 . S
C204 C198 1.379 . S
C204 C201 1.363 . S
C204 N202 1.356 . S
C205 C199 1.363 . S
C205 C200 1.379 . S
C205 N203 1.356 . S
N206 C198 1.356 . S
N206 H212 0.984 . S
N206 H213 0.984 . S
N207 C200 1.356 . S
N207 H210 0.984 . S
N207 H211 0.985 . S
H208 N203 0.984 . S
H209 N203 0.985 . S
H210 N207 0.984 . S
H211 N207 0.985 . S
H212 N206 0.984 . S
H213 N206 0.984 . S
H214 N202 0.984 . S
H215 N202 0.985 . S
C216 C217 1.363 . S
C216 C222 1.379 . S
C216 N224 1.356 . S
C217 C216 1.363 . S
C217 C223 1.363 . S
C218 C219 1.363 . S
C218 C223 1.379 . S
C218 N225 1.356 . S
C219 C218 1.363 . S
C219 C222 1.363 . S
N220 C222 1.356 . S
N220 H232 0.984 . S
N220 H233 0.985 . S
N221 C223 1.356 . S
N221 H226 0.984 . S
N221 H227 0.985 . S
C222 C216 1.379 . S
C222 C219 1.363 . S
C222 N220 1.356 . S
C223 C217 1.363 . S
C223 C218 1.379 . S
C223 N221 1.356 . S
N224 C216 1.356 . S
N224 H230 0.984 . S
N224 H231 0.984 . S
N225 C218 1.356 . S
N225 H228 0.984 . S
N225 H229 0.985 . S
H226 N221 0.984 . S
H227 N221 0.985 . S
H228 N225 0.984 . S
H229 N225 0.985 . S
H230 N224 0.984 . S
H231 N224 0.984 . S
H232 N220 0.984 . S
H233 N220 0.985 . S
C234 C235 1.363 1_556 S
C234 C240 1.379 . S
C234 N242 1.356 . S
C235 C234 1.363 1_554 S
C235 C241 1.363 . S
C236 C237 1.363 . S
C236 C241 1.379 . S
C236 N243 1.356 . S
C237 C236 1.363 . S
C237 C240 1.363 1_554 S
N238 C240 1.356 . S
N238 H250 0.984 . S
N238 H251 0.985 . S
N239 C241 1.356 . S
N239 H244 0.984 . S
N239 H245 0.985 . S
C240 C234 1.379 . S
C240 C237 1.363 1_556 S
C240 N238 1.356 . S
C241 C235 1.363 . S
C241 C236 1.379 . S
C241 N239 1.356 . S
N242 C234 1.356 . S
N242 H248 0.984 . S
N242 H249 0.984 . S
N243 C236 1.356 . S
N243 H246 0.984 . S
N243 H247 0.985 . S
H244 N239 0.984 . S
H245 N239 0.985 . S
H246 N243 0.984 . S
H247 N243 0.985 . S
H248 N242 0.984 . S
H249 N242 0.984 . S
H250 N238 0.984 . S
H251 N238 0.985 . S
C252 C253 1.363 1_655 S
C252 C258 1.379 . S
C252 N260 1.356 . S
C253 C252 1.363 1_455 S
C253 C259 1.363 . S
C254 C255 1.363 1_455 S
C254 C259 1.379 . S
C254 N261 1.356 . S
C255 C254 1.363 1_655 S
C255 C258 1.363 . S
N256 C258 1.356 . S
N256 H268 0.984 . S
N256 H269 0.985 . S
N257 C259 1.356 . S
N257 H262 0.984 . S
N257 H263 0.985 . S
C258 C252 1.379 . S
C258 C255 1.363 . S
C258 N256 1.356 . S
C259 C253 1.363 . S
C259 C254 1.379 . S
C259 N257 1.356 . S
N260 C252 1.356 . S
N260 H266 0.984 . S
N260 H267 0.984 . S
N261 C254 1.356 . S
N261 H264 0.984 . S
N261 H265 0.985 . S
H262 N257 0.984 . S
H263 N257 0.985 . S
H264 N261 0.984 . S
H265 N261 0.985 . S
H266 N260 0.984 . S
H267 N260 0.984 . S
H268 N256 0.984 . S
H269 N256 0.985 . S
C270 C271 1.363 1_565 S
C270 C276 1.379 . S
C270 N278 1.356 . S
C271 C270 1.363 1_545 S
C271 C277 1.363 . S
C272 C273 1.363 1_545 S
C272 C277 1.379 . S
C272 N279 1.356 . S
C273 C272 1.363 1_565 S
C273 C276 1.363 . S
N274 C276 1.356 . S
N274 H286 0.984 . S
N274 H287 0.985 . S
N275 C277 1.356 . S
N275 H280 0.984 . S
N275 H281 0.985 . S
C276 C270 1.379 . S
C276 C273 1.363 . S
C276 N274 1.356 . S
C277 C271 1.363 . S
C277 C272 1.379 . S
C277 N275 1.356 . S
N278 C270 1.356 . S
N278 H284 0.984 . S
N278 H285 0.984 . S
N279 C272 1.356 . S
N279 H282 0.984 . S
N279 H283 0.985 . S
H280 N275 0.984 . S
H281 N275 0.985 . S
H282 N279 0.984 . S
H283 N279 0.985 . S
H284 N278 0.984 . S
H285 N278 0.984 . S
H286 N274 0.984 . S
H287 N274 0.985 . S
C288 C289 1.363 . S
C288 C294 1.379 . S
C288 N296 1.356 . S
C289 C288 1.363 . S
C289 C295 1.363 . S
C290 C291 1.363 . S
C290 C295 1.379 . S
C290 N297 1.356 . S
C291 C290 1.363 . S
C291 C294 1.363 . S
N292 C294 1.356 . S
N292 H304 0.984 . S
N292 H305 0.985 . S
N293 C295 1.356 . S
N293 H298 0.984 . S
N293 H299 0.985 . S
C294 C288 1.379 . S
C294 C291 1.363 . S
C294 N292 1.356 . S
C295 C289 1.363 . S
C295 C290 1.379 . S
C295 N293 1.356 . S
N296 C288 1.356 . S
N296 H302 0.984 . S
N296 H303 0.984 . S
N297 C290 1.356 . S
N297 H300 0.984 . S
N297 H301 0.985 . S
H298 N293 0.984 . S
H299 N293 0.985 . S
H300 N297 0.984 . S
H301 N297 0.985 . S
H302 N296 0.984 . S
H303 N296 0.984 . S
H304 N292 0.984 . S
H305 N292 0.985 . S
C306 C307 1.363 . S
C306 C312 1.379 . S
C306 N314 1.356 . S
C307 C306 1.363 . S
C307 C313 1.363 1_456 S
C308 C309 1.363 1_554 S
C308 C313 1.379 . S
C308 N315 1.356 . S
C309 C308 1.363 1_556 S
C309 C312 1.363 1_655 S
N310 C312 1.356 . S
N310 H322 0.984 . S
N310 H323 0.985 . S
N311 C313 1.356 . S
N311 H316 0.984 . S
N311 H317 0.985 . S
C312 C306 1.379 . S
C312 C309 1.363 1_455 S
C312 N310 1.356 . S
C313 C307 1.363 1_654 S
C313 C308 1.379 . S
C313 N311 1.356 . S
N314 C306 1.356 . S
N314 H320 0.984 . S
N314 H321 0.984 . S
N315 C308 1.356 . S
N315 H318 0.984 . S
N315 H319 0.985 . S
H316 N311 0.984 . S
H317 N311 0.985 . S
H318 N315 0.984 . S
H319 N315 0.985 . S
H320 N314 0.984 . S
H321 N314 0.984 . S
H322 N310 0.984 . S
H323 N310 0.985 . S
C324 C325 1.363 1_545 S
C324 C330 1.379 . S
C324 N332 1.356 . S
C325 C324 1.363 1_565 S
C325 C331 1.363 . S
C326 C327 1.363 1_565 S
C326 C331 1.379 . S
C326 N333 1.356 . S
C327 C326 1.363 1_545 S
C327 C330 1.363 . S
N328 C330 1.356 . S
N328 H340 0.984 . S
N328 H341 0.985 . S
N329 C331 1.356 . S
N329 H334 0.984 . S
N329 H335 0.985 . S
C330 C324 1.379 . S
C330 C327 1.363 . S
C330 N328 1.356 . S
C331 C325 1.363 . S
C331 C326 1.379 . S
C331 N329 1.356 . S
N332 C324 1.356 . S
N332 H338 0.984 . S
N332 H339 0.984 . S
N333 C326 1.356 . S
N333 H336 0.984 . S
N333 H337 0.985 . S
H334 N329 0.984 . S
H335 N329 0.985 . S
H336 N333 0.984 . S
H337 N333 0.985 . S
H338 N332 0.984 . S
H339 N332 0.984 . S
H340 N328 0.984 . S
H341 N328 0.985 . S
C342 C343 1.363 . S
C342 C348 1.379 . S
C342 N350 1.356 . S
C343 C342 1.363 . S
C343 C349 1.363 . S
C344 C345 1.363 . S
C344 C349 1.379 . S
C344 N351 1.356 . S
C345 C344 1.363 . S
C345 C348 1.363 . S
N346 C348 1.356 . S
N346 H358 0.984 . S
N346 H359 0.985 . S
N347 C349 1.356 . S
N347 H352 0.984 . S
N347 H353 0.985 . S
C348 C342 1.379 . S
C348 C345 1.363 . S
C348 N346 1.356 . S
C349 C343 1.363 . S
C349 C344 1.379 . S
C349 N347 1.356 . S
N350 C342 1.356 . S
N350 H356 0.984 . S
N350 H357 0.984 . S
N351 C344 1.356 . S
N351 H354 0.984 . S
N351 H355 0.985 . S
H352 N347 0.984 . S
H353 N347 0.985 . S
H354 N351 0.984 . S
H355 N351 0.985 . S
H356 N350 0.984 . S
H357 N350 0.984 . S
H358 N346 0.984 . S
H359 N346 0.985 . S
C360 C361 1.363 . S
C360 C366 1.379 1_655 S
C360 N368 1.356 . S
C361 C360 1.363 . S
C361 C367 1.363 . S
C362 C363 1.363 . S
C362 C367 1.379 1_455 S
C362 N369 1.356 . S
C363 C362 1.363 . S
C363 C366 1.363 . S
N364 C366 1.356 . S
N364 H376 0.984 . S
N364 H377 0.985 . S
N365 C367 1.356 . S
N365 H370 0.984 . S
N365 H371 0.985 . S
C366 C360 1.379 1_455 S
C366 C363 1.363 . S
C366 N364 1.356 . S
C367 C361 1.363 . S
C367 C362 1.379 1_655 S
C367 N365 1.356 . S
N368 C360 1.356 . S
N368 H374 0.984 . S
N368 H375 0.984 . S
N369 C362 1.356 . S
N369 H372 0.984 . S
N369 H373 0.985 . S
H370 N365 0.984 . S
H371 N365 0.985 . S
H372 N369 0.984 . S
H373 N369 0.985 . S
H374 N368 0.984 . S
H375 N368 0.984 . S
H376 N364 0.984 . S
H377 N364 0.985 . S
C378 C379 1.363 1_545 S
C378 C384 1.379 . S
C378 N386 1.356 1_545 S
C379 C378 1.363 1_565 S
C379 C385 1.363 . S
C380 C381 1.363 1_565 S
C380 C385 1.379 . S
C380 N387 1.356 1_565 S
C381 C380 1.363 1_545 S
C381 C384 1.363 . S
N382 C384 1.356 . S
N382 H394 0.984 . S
N382 H395 0.985 . S
N383 C385 1.356 . S
N383 H388 0.984 . S
N383 H389 0.985 . S
C384 C378 1.379 . S
C384 C381 1.363 . S
C384 N382 1.356 . S
C385 C379 1.363 . S
C385 C380 1.379 . S
C385 N383 1.356 . S
N386 C378 1.356 1_565 S
N386 H392 0.984 1_565 S
N386 H393 0.984 . S
N387 C380 1.356 1_545 S
N387 H390 0.984 . S
N387 H391 0.985 1_545 S
H388 N383 0.984 . S
H389 N383 0.985 . S
H390 N387 0.984 . S
H391 N387 0.985 1_565 S
H392 N386 0.984 1_545 S
H393 N386 0.984 . S
H394 N382 0.984 . S
H395 N382 0.985 . S
C396 C397 1.363 . S
C396 C402 1.379 . S
C396 N404 1.356 . S
C397 C396 1.363 . S
C397 C403 1.363 . S
C398 C399 1.363 . S
C398 C403 1.379 . S
C398 N405 1.356 . S
C399 C398 1.363 . S
C399 C402 1.363 . S
N400 C402 1.356 . S
N400 H412 0.984 . S
N400 H413 0.985 . S
N401 C403 1.356 . S
N401 H406 0.984 . S
N401 H407 0.985 . S
C402 C396 1.379 . S
C402 C399 1.363 . S
C402 N400 1.356 . S
C403 C397 1.363 . S
C403 C398 1.379 . S
C403 N401 1.356 . S
N404 C396 1.356 . S
N404 H410 0.984 . S
N404 H411 0.984 . S
N405 C398 1.356 . S
N405 H408 0.984 . S
N405 H409 0.985 . S
H406 N401 0.984 . S
H407 N401 0.985 . S
H408 N405 0.984 . S
H409 N405 0.985 . S
H410 N404 0.984 . S
H411 N404 0.984 . S
H412 N400 0.984 . S
H413 N400 0.985 . S
C414 C415 1.363 . S
C414 C420 1.379 1_455 S
C414 N422 1.356 . S
C415 C414 1.363 . S
C415 C421 1.363 . S
C416 C417 1.363 . S
C416 C421 1.379 1_655 S
C416 N423 1.356 . S
C417 C416 1.363 . S
C417 C420 1.363 . S
N418 C420 1.356 . S
N418 H430 0.984 . S
N418 H431 0.985 . S
N419 C421 1.356 . S
N419 H424 0.984 . S
N419 H425 0.985 . S
C420 C414 1.379 1_655 S
C420 C417 1.363 . S
C420 N418 1.356 . S
C421 C415 1.363 . S
C421 C416 1.379 1_455 S
C421 N419 1.356 . S
N422 C414 1.356 . S
N422 H428 0.984 . S
N422 H429 0.984 . S
N423 C416 1.356 . S
N423 H426 0.984 . S
N423 H427 0.985 . S
H424 N419 0.984 . S
H425 N419 0.985 . S
H426 N423 0.984 . S
H427 N423 0.985 . S
H428 N422 0.984 . S
H429 N422 0.984 . S
H430 N418 0.984 . S
H431 N418 0.985 . S
C432 C433 1.363 . S
C432 C438 1.379 1_545 S
C432 N440 1.356 . S
C433 C432 1.363 . S
C433 C439 1.363 . S
C434 C435 1.363 . S
C434 C439 1.379 1_565 S
C434 N441 1.356 . S
C435 C434 1.363 . S
C435 C438 1.363 . S
N436 C438 1.356 . S
N436 H448 0.984 . S
N436 H449 0.985 . S
N437 C439 1.356 . S
N437 H442 0.984 . S
N437 H443 0.985 . S
C438 C432 1.379 1_565 S
C438 C435 1.363 . S
C438 N436 1.356 . S
C439 C433 1.363 . S
C439 C434 1.379 1_545 S
C439 N437 1.356 . S
N440 C432 1.356 . S
N440 H446 0.984 1_545 S
N440 H447 0.984 . S
N441 C434 1.356 . S
N441 H444 0.984 . S
N441 H445 0.985 . S
H442 N437 0.984 . S
H443 N437 0.985 . S
H444 N441 0.984 . S
H445 N441 0.985 . S
H446 N440 0.984 1_565 S
H447 N440 0.984 . S
H448 N436 0.984 . S
H449 N436 0.985 . S
C127 C97 1.044 . S
C129 C15 0.979 . S
C145 C121 1.044 . S
C147 C39 0.979 . S
C163 C13 1.044 . S
C165 C57 0.979 . S
C181 C37 1.044 . S
C183 C81 0.979 . S
C199 C55 1.044 . S
C201 C99 0.979 . S
C217 C79 1.044 . S
C219 C123 0.979 . S
C235 C14 1.218 . S
C237 C80 1.218 . S
C253 C98 1.217 . S
C255 C38 1.217 . S
C271 C122 1.217 . S
C273 C56 1.217 . S
C289 C58 1.478 . S
C291 C118 1.478 . S
C307 C16 1.478 . S
C309 C76 1.478 . S
C325 C100 1.478 . S
C327 C34 1.478 . S
C343 C119 1.293 . S
C345 C18 1.271 . S
C361 C36 1.271 . S
C363 C17 1.293 . S
C379 C60 1.271 . S
C381 C35 1.293 . S
C397 C59 1.293 . S
C399 C78 1.271 . S
C415 C102 1.271 . S
C417 C77 1.293 . S
C433 C120 1.271 . S
C435 C101 1.293 . S
