# Generated by pormake.
# Topology nov, (5)-cn, num edge types: 1
# Building blocks:
#     Node 0, Type 0, BuildingBlock: BEQFEK_clean_sbu_0, # of connection points: 5
#     Node 1, Type 0, BuildingBlock: BEQFEK_clean_sbu_0, # of connection points: 5
#     Node 2, Type 0, BuildingBlock: BEQFEK_clean_sbu_0, # of connection points: 5
#     Node 3, Type 0, BuildingBlock: BEQFEK_clean_sbu_0, # of connection points: 5
#     Node 4, Type 0, BuildingBlock: BEQFEK_clean_sbu_0, # of connection points: 5
#     Node 5, Type 0, BuildingBlock: BEQFEK_clean_sbu_0, # of connection points: 5
#     Node 6, Type 0, BuildingBlock: BEQFEK_clean_sbu_0, # of connection points: 5
#     Node 7, Type 0, BuildingBlock: BEQFEK_clean_sbu_0, # of connection points: 5
#     Edge 8, Type (0, 0), BuildingBlock: EYOCIG_clean_linker_4, # of connection points: 2
#     Edge 9, Type (0, 0), BuildingBlock: EYOCIG_clean_linker_4, # of connection points: 2
#     Edge 10, Type (0, 0), BuildingBlock: EYOCIG_clean_linker_4, # of connection points: 2
#     Edge 11, Type (0, 0), BuildingBlock: EYOCIG_clean_linker_4, # of connection points: 2
#     Edge 12, Type (0, 0), BuildingBlock: EYOCIG_clean_linker_4, # of connection points: 2
#     Edge 13, Type (0, 0), BuildingBlock: EYOCIG_clean_linker_4, # of connection points: 2
#     Edge 14, Type (0, 0), BuildingBlock: EYOCIG_clean_linker_4, # of connection points: 2
#     Edge 15, Type (0, 0), BuildingBlock: EYOCIG_clean_linker_4, # of connection points: 2
#     Edge 16, Type (0, 0), BuildingBlock: EYOCIG_clean_linker_4, # of connection points: 2
#     Edge 17, Type (0, 0), BuildingBlock: EYOCIG_clean_linker_4, # of connection points: 2
#     Edge 18, Type (0, 0), BuildingBlock: EYOCIG_clean_linker_4, # of connection points: 2
#     Edge 19, Type (0, 0), BuildingBlock: EYOCIG_clean_linker_4, # of connection points: 2
#     Edge 20, Type (0, 0), BuildingBlock: EYOCIG_clean_linker_4, # of connection points: 2
#     Edge 21, Type (0, 0), BuildingBlock: EYOCIG_clean_linker_4, # of connection points: 2
#     Edge 22, Type (0, 0), BuildingBlock: EYOCIG_clean_linker_4, # of connection points: 2
#     Edge 23, Type (0, 0), BuildingBlock: EYOCIG_clean_linker_4, # of connection points: 2
#     Edge 24, Type (0, 0), BuildingBlock: EYOCIG_clean_linker_4, # of connection points: 2
#     Edge 25, Type (0, 0), BuildingBlock: EYOCIG_clean_linker_4, # of connection points: 2
#     Edge 26, Type (0, 0), BuildingBlock: EYOCIG_clean_linker_4, # of connection points: 2
#     Edge 27, Type (0, 0), BuildingBlock: EYOCIG_clean_linker_4, # of connection points: 2
# Relax obj value: 0.077
# Max RMSD: 0.098
# Mean RMSD: 0.098
data_MOF--net-nov--node1-BEQFEK_clean_sbu_0--edge1-EYOCIG_clean_linker_4
_symmetry_space_group_name_H-M    P1
_symmetry_Int_Tables_number       1
_symmetry_cell_setting            triclinic
loop_
_symmetry_equiv_pos_as_xyz
'x, y, z'
_cell_length_a     32.032489
_cell_length_b     33.257243
_cell_length_c     20.689071
_cell_angle_alpha  90.021719
_cell_angle_beta   90.047039
_cell_angle_gamma 89.983319
loop_
_atom_site_label
_atom_site_type_symbol
_atom_site_fract_x
_atom_site_fract_y
_atom_site_fract_z
_atom_type_partial_charge
Co0 Co 0.96841 0.13293 0.16928 0.0
Co1 Co 0.06696 0.12532 0.16254 0.0
C2 C 0.0122 0.06295 0.10424 0.0
O3 O 0.97926 0.08171 0.12112 0.0
O4 O 0.04855 0.07551 0.11868 0.0
C5 C 0.88792 0.1071 0.21561 0.0
O6 O 0.90814 0.07407 0.23051 0.0
C7 C 0.15333 0.09852 0.19256 0.0
C8 C 0.18868 0.15373 0.1694 0.0
C9 C 0.19292 0.1152 0.19324 0.0
N10 N 0.12651 0.12632 0.16984 0.0
N11 N 0.14804 0.15902 0.1553 0.0
C12 C 0.14089 0.05788 0.21656 0.0
H13 H 0.10641 0.05556 0.22052 0.0
H14 H 0.15561 0.05199 0.26423 0.0
H15 H 0.15242 0.03472 0.18231 0.0
C16 C 0.98952 0.15101 0.30578 0.0
N17 N 1.00033 0.13709 0.24684 0.0
N18 N 0.04125 0.13304 0.24443 0.0
C19 C 0.05757 0.14382 0.30205 0.0
C20 C 0.02544 0.15573 0.3423 0.0
C21 C 0.94669 0.16547 0.32303 0.0
H22 H 0.93388 0.18393 0.283 0.0
H23 H 0.92596 0.13913 0.32987 0.0
H24 H 0.94686 0.18341 0.36828 0.0
O25 O 0.9833 0.17823 0.11087 0.0
O26 O 0.05237 0.17089 0.10548 0.0
H27 H 0.11701 0.16979 0.28005 0.0
H28 H 0.10914 0.15998 0.36496 0.0
C29 C 0.10324 0.14857 0.31538 0.0
H30 H 0.11883 0.11905 0.31021 0.0
H31 H 0.13477 0.18547 0.13758 0.0
O32 O 0.90723 0.13615 0.18919 0.0
C33 C 0.01891 0.18892 0.08958 0.0
Co34 Co 0.6032 0.83634 0.66949 0.0
Co35 Co 0.50465 0.84414 0.66272 0.0
C36 C 0.5595 0.90637 0.60442 0.0
O37 O 0.59241 0.88754 0.62131 0.0
O38 O 0.52314 0.89389 0.61886 0.0
C39 C 0.68383 0.862 0.71574 0.0
O40 O 0.66372 0.8951 0.73062 0.0
C41 C 0.41838 0.87112 0.69295 0.0
C42 C 0.38286 0.81604 0.66945 0.0
C43 C 0.37875 0.85453 0.69357 0.0
N44 N 0.44509 0.8433 0.67 0.0
N45 N 0.42346 0.81069 0.65526 0.0
C46 C 0.43097 0.91167 0.71724 0.0
H47 H 0.46546 0.91393 0.72102 0.0
H48 H 0.41642 0.91744 0.76505 0.0
H49 H 0.41934 0.93495 0.68327 0.0
C50 C 0.58217 0.81831 0.80596 0.0
N51 N 0.57133 0.83226 0.74704 0.0
N52 N 0.53042 0.83639 0.74462 0.0
C53 C 0.51413 0.8256 0.80219 0.0
C54 C 0.54627 0.81362 0.84245 0.0
C55 C 0.62498 0.80375 0.82317 0.0
H56 H 0.63767 0.78522 0.78314 0.0
H57 H 0.6458 0.83004 0.82996 0.0
H58 H 0.62483 0.78584 0.86843 0.0
O59 O 0.58813 0.79104 0.61108 0.0
O60 O 0.51907 0.79851 0.60566 0.0
H61 H 0.45463 0.79977 0.77996 0.0
H62 H 0.46259 0.80933 0.86496 0.0
C63 C 0.46846 0.82087 0.81547 0.0
H64 H 0.45291 0.85043 0.81055 0.0
H65 H 0.43663 0.78425 0.63733 0.0
O66 O 0.66439 0.83298 0.68937 0.0
C67 C 0.55248 0.78041 0.58979 0.0
Co68 Co 0.96832 0.83606 0.83647 0.0
Co69 Co 0.06688 0.84375 0.8431 0.0
C70 C 0.01208 0.90603 0.9016 0.0
O71 O 0.97914 0.88725 0.88471 0.0
O72 O 0.04842 0.8935 0.88709 0.0
C73 C 0.88763 0.86186 0.79064 0.0
O74 O 0.9077 0.89502 0.77609 0.0
C75 C 0.15309 0.87079 0.81291 0.0
C76 C 0.18869 0.81568 0.83599 0.0
C77 C 0.19274 0.85423 0.81214 0.0
N78 N 0.12642 0.84291 0.8357 0.0
N79 N 0.1481 0.81027 0.85019 0.0
C80 C 0.14044 0.91139 0.78893 0.0
H81 H 0.10595 0.91358 0.78495 0.0
H82 H 0.15509 0.91735 0.74127 0.0
H83 H 0.15189 0.93458 0.8232 0.0
C84 C 0.98925 0.81811 0.69991 0.0
N85 N 1.00013 0.83199 0.75886 0.0
N86 N 0.04105 0.83607 0.76123 0.0
C87 C 0.0573 0.82532 0.7036 0.0
C88 C 0.02512 0.81341 0.66335 0.0
C89 C 0.94641 0.80364 0.68269 0.0
H90 H 0.93376 0.78501 0.72259 0.0
H91 H 0.92559 0.82997 0.67621 0.0
H92 H 0.94649 0.78587 0.63727 0.0
O93 O 0.98342 0.79074 0.89477 0.0
O94 O 0.05249 0.79811 0.90009 0.0
H95 H 0.1168 0.79939 0.72559 0.0
H96 H 0.1088 0.80914 0.64066 0.0
C97 C 0.10295 0.82058 0.69023 0.0
H98 H 0.11852 0.85011 0.69533 0.0
H99 H 0.13497 0.78379 0.86795 0.0
O100 O 0.90711 0.83274 0.81665 0.0
C101 C 0.01908 0.78005 0.91598 0.0
Co102 Co 0.60364 0.13301 0.33667 0.0
Co103 Co 0.50507 0.12542 0.34289 0.0
C104 C 0.55975 0.0631 0.40157 0.0
O105 O 0.59271 0.08185 0.38484 0.0
O106 O 0.52343 0.07565 0.38691 0.0
C107 C 0.68425 0.10712 0.29087 0.0
O108 O 0.66409 0.07404 0.27607 0.0
C109 C 0.4188 0.09858 0.31234 0.0
C110 C 0.38334 0.15376 0.33545 0.0
C111 C 0.37919 0.11523 0.3115 0.0
N112 N 0.44554 0.12639 0.33527 0.0
N113 N 0.42394 0.15907 0.34976 0.0
C114 C 0.43134 0.05795 0.28831 0.0
H115 H 0.46584 0.05562 0.28468 0.0
H116 H 0.41682 0.05212 0.24048 0.0
H117 H 0.41967 0.03477 0.32235 0.0
C118 C 0.58282 0.15102 0.20006 0.0
N119 N 0.57188 0.13712 0.25894 0.0
N120 N 0.53096 0.13307 0.26113 0.0
C121 C 0.51476 0.14385 0.20345 0.0
C122 C 0.54697 0.15574 0.16336 0.0
C123 C 0.62567 0.16548 0.18305 0.0
H124 H 0.63834 0.18401 0.22312 0.0
H125 H 0.64646 0.13914 0.17643 0.0
H126 H 0.62561 0.18335 0.13776 0.0
O127 O 0.58858 0.17836 0.39496 0.0
O128 O 0.5195 0.17104 0.39999 0.0
H129 H 0.45528 0.16985 0.22522 0.0
H130 H 0.46332 0.16008 0.14032 0.0
C131 C 0.46912 0.14864 0.1899 0.0
H132 H 0.45351 0.11912 0.1949 0.0
H133 H 0.43713 0.18552 0.36762 0.0
O134 O 0.66485 0.13623 0.31705 0.0
C135 C 0.55292 0.18907 0.41604 0.0
Co136 Co 0.46817 0.63307 0.1692 0.0
Co137 Co 0.56673 0.62555 0.1627 0.0
C138 C 0.51208 0.56313 0.10425 0.0
O139 O 0.47911 0.58187 0.12105 0.0
O140 O 0.5484 0.57573 0.11878 0.0
C141 C 0.38764 0.60712 0.21515 0.0
O142 O 0.40786 0.57405 0.22986 0.0
C143 C 0.65306 0.59875 0.19293 0.0
C144 C 0.68844 0.65397 0.16989 0.0
C145 C 0.69265 0.61543 0.19371 0.0
N146 N 0.62627 0.62657 0.17017 0.0
N147 N 0.64781 0.65927 0.15571 0.0
C148 C 0.64059 0.55811 0.21686 0.0
H149 H 0.60611 0.5558 0.22076 0.0
H150 H 0.65528 0.55219 0.26455 0.0
H151 H 0.65214 0.53496 0.18261 0.0
C152 C 0.48911 0.65113 0.30576 0.0
N153 N 0.5 0.63724 0.24684 0.0
N154 N 0.54092 0.63323 0.24453 0.0
C155 C 0.55717 0.64402 0.30218 0.0
C156 C 0.52499 0.65589 0.34237 0.0
C157 C 0.44625 0.66554 0.32291 0.0
H158 H 0.4335 0.68406 0.28291 0.0
H159 H 0.42552 0.63917 0.32954 0.0
H160 H 0.44633 0.6834 0.36824 0.0
O161 O 0.48309 0.67839 0.11083 0.0
O162 O 0.55217 0.67112 0.10563 0.0
H163 H 0.6166 0.67007 0.28033 0.0
H164 H 0.60867 0.66023 0.36522 0.0
C165 C 0.60283 0.64882 0.31562 0.0
H166 H 0.61846 0.61932 0.31047 0.0
H167 H 0.63456 0.68572 0.13797 0.0
O168 O 0.40697 0.63624 0.18896 0.0
C169 C 0.51871 0.68911 0.08965 0.0
Co170 Co 0.10344 0.33625 0.66951 0.0
Co171 Co 1.00488 0.34394 0.66262 0.0
C172 C 0.05971 0.40622 0.60437 0.0
O173 O 0.09264 0.38745 0.62132 0.0
O174 O 0.02336 0.39369 0.61876 0.0
C175 C 0.18406 0.36195 0.71582 0.0
O176 O 0.16393 0.39505 0.73067 0.0
C177 C 0.91863 0.37095 0.69278 0.0
C178 C 0.88306 0.31591 0.66922 0.0
C179 C 0.87898 0.3544 0.69335 0.0
N180 N 0.94533 0.34311 0.66984 0.0
N181 N 0.92367 0.31052 0.65506 0.0
C182 C 0.93125 0.41149 0.7171 0.0
H183 H 0.96575 0.41369 0.72099 0.0
H184 H 0.91665 0.41728 0.76486 0.0
H185 H 0.91972 0.43478 0.68309 0.0
C186 C 0.08236 0.3182 0.80596 0.0
N187 N 0.07154 0.33214 0.74703 0.0
N188 N 0.03062 0.33621 0.74455 0.0
C189 C 0.01431 0.32539 0.80209 0.0
C190 C 0.04645 0.31346 0.84239 0.0
C191 C 0.12518 0.30369 0.82323 0.0
H192 H 0.13791 0.28516 0.78323 0.0
H193 H 0.14597 0.33001 0.83001 0.0
H194 H 0.12504 0.28581 0.86851 0.0
O195 O 0.08844 0.29094 0.61108 0.0
O196 O 0.01936 0.29831 0.60559 0.0
H197 H 0.95486 0.2995 0.77973 0.0
H198 H 0.96275 0.30902 0.86475 0.0
C199 C 0.96864 0.3206 0.8153 0.0
H200 H 0.95305 0.35014 0.8104 0.0
H201 H 0.93682 0.28407 0.63714 0.0
O202 O 0.16463 0.33292 0.68946 0.0
C203 C 0.05281 0.28026 0.58975 0.0
Co204 Co 0.46857 0.33619 0.83657 0.0
Co205 Co 0.56712 0.34398 0.84309 0.0
C206 C 0.5123 0.40621 0.9016 0.0
O207 O 0.47938 0.38739 0.88478 0.0
O208 O 0.54865 0.39372 0.88706 0.0
C209 C 0.38785 0.36192 0.79077 0.0
O210 O 0.4079 0.39508 0.77615 0.0
C211 C 0.65335 0.37099 0.81278 0.0
C212 C 0.68892 0.31587 0.83589 0.0
C213 C 0.69299 0.3544 0.81199 0.0
N214 N 0.62667 0.34313 0.83563 0.0
N215 N 0.64834 0.31049 0.85014 0.0
C216 C 0.64071 0.41158 0.78876 0.0
H217 H 0.60622 0.41381 0.78489 0.0
H218 H 0.65531 0.41749 0.74105 0.0
H219 H 0.65224 0.43479 0.82296 0.0
C220 C 0.48945 0.31823 0.7 0.0
N221 N 0.50034 0.33213 0.75893 0.0
N222 N 0.54126 0.33625 0.76125 0.0
C223 C 0.55749 0.32551 0.7036 0.0
C224 C 0.5253 0.31356 0.6634 0.0
C225 C 0.44662 0.30372 0.68285 0.0
H226 H 0.434 0.2851 0.7228 0.0
H227 H 0.42577 0.33002 0.67633 0.0
H228 H 0.4467 0.28591 0.63746 0.0
O229 O 0.48372 0.29089 0.89488 0.0
O230 O 0.55279 0.29834 0.90012 0.0
H231 H 0.61703 0.29964 0.72551 0.0
H232 H 0.60897 0.30937 0.6406 0.0
C233 C 0.60314 0.32081 0.69017 0.0
H234 H 0.61868 0.35036 0.69524 0.0
H235 H 0.63519 0.28402 0.86794 0.0
O236 O 0.40735 0.33283 0.81682 0.0
C237 C 0.5194 0.28025 0.91606 0.0
Co238 Co 0.10343 0.63289 0.33651 0.0
Co239 Co 1.00488 0.62526 0.34296 0.0
C240 C 0.05961 0.56295 0.40151 0.0
O241 O 0.09255 0.58172 0.38471 0.0
O242 O 0.02326 0.57549 0.38693 0.0
C243 C 0.18396 0.60703 0.29034 0.0
O244 O 0.16375 0.57401 0.27535 0.0
C245 C 0.91853 0.59849 0.31267 0.0
C246 C 0.88318 0.65374 0.33576 0.0
C247 C 0.87895 0.61521 0.31188 0.0
N248 N 0.94533 0.62628 0.33549 0.0
N249 N 0.9238 0.659 0.34998 0.0
C250 C 0.93099 0.55784 0.28868 0.0
H251 H 0.96547 0.55543 0.28505 0.0
H252 H 0.91645 0.55202 0.24084 0.0
H253 H 0.91925 0.53468 0.32272 0.0
C254 C 0.08247 0.65088 0.19994 0.0
N255 N 0.0716 0.63699 0.25885 0.0
N256 N 0.03068 0.63291 0.26113 0.0
C257 C 0.01443 0.64366 0.20346 0.0
C258 C 0.04659 0.65557 0.1633 0.0
C259 C 0.12529 0.66538 0.18284 0.0
H260 H 0.13803 0.68383 0.22294 0.0
H261 H 0.14607 0.63905 0.17599 0.0
H262 H 0.12516 0.68333 0.13763 0.0
O263 O 0.08844 0.67824 0.39482 0.0
O264 O 0.01937 0.67087 0.40002 0.0
H265 H 0.95493 0.66963 0.22528 0.0
H266 H 0.96292 0.65977 0.14039 0.0
C267 C 0.96877 0.64839 0.18999 0.0
H268 H 0.9532 0.61887 0.19511 0.0
H269 H 0.93705 0.68544 0.36776 0.0
O270 O 0.16462 0.63609 0.31676 0.0
C271 C 0.05279 0.68893 0.41599 0.0
C272 C 1.00697 0.9683 0.98074 0.0
C273 C 1.00845 0.93982 0.94459 0.0
C274 C 1.00701 0.00063 0.0252 0.0
C275 C 1.00855 0.02912 0.0613 0.0
C276 C 0.56478 0.00088 0.48077 0.0
C277 C 0.56332 0.02933 0.4446 0.0
C278 C 0.56473 0.96859 0.52528 0.0
C279 C 0.56318 0.94014 0.56142 0.0
C280 C 0.50706 0.50082 0.02518 0.0
C281 C 0.50852 0.52931 0.06129 0.0
C282 C 0.5071 0.46849 0.98072 0.0
C283 C 0.50865 0.44001 0.94459 0.0
C284 C 0.06483 0.46845 0.52521 0.0
C285 C 0.06335 0.44 0.56136 0.0
C286 C 0.06478 0.50074 0.4807 0.0
C287 C 0.06324 0.52919 0.44454 0.0
C288 C 0.30675 0.09205 0.26426 0.0
C289 C 0.3413 0.09924 0.28441 0.0
C290 C 0.26545 0.09205 0.24022 0.0
C291 C 0.23088 0.09923 0.22017 0.0
C292 C 0.30635 0.87765 0.74089 0.0
C293 C 0.34089 0.8705 0.72072 0.0
C294 C 0.26509 0.87757 0.76499 0.0
C295 C 0.23058 0.8703 0.78511 0.0
C296 C 0.80721 0.85683 0.76151 0.0
C297 C 0.84387 0.85828 0.77534 0.0
C298 C 0.76425 0.85687 0.74488 0.0
C299 C 0.72759 0.85838 0.73104 0.0
C300 C 0.76463 0.1121 0.26167 0.0
C301 C 0.72799 0.11066 0.27553 0.0
C302 C 0.80756 0.11209 0.24496 0.0
C303 C 0.84419 0.11064 0.23103 0.0
C304 C 0.80645 0.59214 0.26475 0.0
C305 C 0.84102 0.59927 0.28486 0.0
C306 C 0.76515 0.5922 0.24072 0.0
C307 C 0.73059 0.59942 0.22065 0.0
C308 C 0.8066 0.37763 0.74063 0.0
C309 C 0.84113 0.37041 0.72048 0.0
C310 C 0.76535 0.37764 0.76474 0.0
C311 C 0.73083 0.37043 0.7849 0.0
C312 C 0.30743 0.35684 0.76166 0.0
C313 C 0.34409 0.35831 0.77549 0.0
C314 C 0.26447 0.35686 0.74502 0.0
C315 C 0.22781 0.35835 0.73116 0.0
C316 C 0.26433 0.61202 0.2611 0.0
C317 C 0.22769 0.61056 0.27498 0.0
C318 C 0.30726 0.61204 0.24441 0.0
C319 C 0.3439 0.61062 0.23052 0.0
C320 C 0.03582 0.2723 0.95045 0.0
C321 C 0.04191 0.29091 0.90141 0.0
C322 C 0.02761 0.24614 1.00255 0.0
C323 C 0.02173 0.22034 0.04239 0.0
C324 C 0.54367 0.72316 0.50273 0.0
C325 C 0.54957 0.74898 0.54258 0.0
C326 C 0.53549 0.697 0.45057 0.0
C327 C 0.52945 0.67841 0.40146 0.0
C328 C 0.02788 0.7228 0.00297 0.0
C329 C 0.02199 0.74862 0.96315 0.0
C330 C 0.03606 0.69664 0.05511 0.0
C331 C 0.0421 0.67806 0.10422 0.0
C332 C 0.53584 0.27248 0.5552 0.0
C333 C 0.52978 0.29106 0.60431 0.0
C334 C 0.54407 0.24632 0.50306 0.0
C335 C 0.55 0.22051 0.46324 0.0
C336 C 0.53565 0.77249 0.95052 0.0
C337 C 0.54174 0.79109 0.90147 0.0
C338 C 0.52743 0.74633 1.00263 0.0
C339 C 0.52154 0.72053 0.04246 0.0
C340 C 0.04414 0.223 0.50268 0.0
C341 C 0.04997 0.24882 0.54254 0.0
C342 C 0.036 0.19683 0.4505 0.0
C343 C 0.02997 0.17824 0.40139 0.0
C344 C 0.52831 0.22301 0.00306 0.0
C345 C 0.52238 0.24882 0.96324 0.0
C346 C 0.53652 0.19685 0.05519 0.0
C347 C 0.54254 0.17826 0.10428 0.0
C348 C 0.04395 0.74618 0.50302 0.0
C349 C 0.04989 0.72037 0.46319 0.0
C350 C 0.0357 0.77233 0.55516 0.0
C351 C 0.02962 0.79091 0.60426 0.0
loop_
_geom_bond_atom_site_label_1
_geom_bond_atom_site_label_2
_geom_bond_distance
_geom_bond_site_symmetry_2
_ccdc_geom_bond_type
Co0 O3 1.970 . S
Co0 N17 1.989 . S
Co0 O25 1.967 . S
Co0 O32 1.920 . S
Co1 O4 1.966 . S
Co1 N10 2.022 . S
Co1 N18 1.993 . S
Co1 O26 1.941 . S
C2 O3 1.258 1_455 S
C2 O4 1.263 . S
O3 Co0 1.970 . S
O3 C2 1.258 1_655 S
O4 Co1 1.966 . S
O4 C2 1.263 . S
C5 O6 1.235 . S
C5 O32 1.289 . S
O6 C5 1.235 . S
C7 C9 1.400 . S
C7 N10 1.351 . S
C7 C12 1.501 . S
C8 C9 1.387 . S
C8 N11 1.341 . S
C9 C7 1.400 . S
C9 C8 1.387 . S
N10 Co1 2.022 . S
N10 C7 1.351 . S
N10 N11 1.365 . S
N11 C8 1.341 . S
N11 N10 1.365 . S
N11 H31 0.862 . S
C12 C7 1.501 . S
C12 H13 0.961 . S
C12 H14 0.961 . S
C12 H15 0.960 . S
H13 C12 0.961 . S
H14 C12 0.961 . S
H15 C12 0.960 . S
C16 N17 1.342 . S
C16 C20 1.401 1_655 S
C16 C21 1.499 . S
N17 Co0 1.989 . S
N17 C16 1.342 . S
N17 N18 1.388 1_655 S
N18 Co1 1.993 . S
N18 N17 1.388 1_455 S
N18 C19 1.346 . S
C19 N18 1.346 . S
C19 C20 1.396 . S
C19 C29 1.510 . S
C20 C16 1.401 1_455 S
C20 C19 1.396 . S
C21 C16 1.499 . S
C21 H22 0.959 . S
C21 H23 0.960 . S
C21 H24 0.961 . S
H22 C21 0.959 . S
H23 C21 0.960 . S
H24 C21 0.961 . S
O25 Co0 1.967 . S
O25 C33 1.258 1_655 S
O26 Co1 1.941 . S
O26 C33 1.266 . S
H27 C29 0.959 . S
H28 C29 0.961 . S
C29 C19 1.510 . S
C29 H27 0.959 . S
C29 H28 0.961 . S
C29 H30 0.960 . S
H30 C29 0.960 . S
H31 N11 0.862 . S
O32 Co0 1.920 . S
O32 C5 1.289 . S
C33 O25 1.258 1_455 S
C33 O26 1.266 . S
Co34 O37 1.970 . S
Co34 N51 1.989 . S
Co34 O59 1.967 . S
Co34 O66 1.920 . S
Co35 O38 1.966 . S
Co35 N44 2.022 . S
Co35 N52 1.993 . S
Co35 O60 1.941 . S
C36 O37 1.258 . S
C36 O38 1.263 . S
O37 Co34 1.970 . S
O37 C36 1.258 . S
O38 Co35 1.966 . S
O38 C36 1.263 . S
C39 O40 1.235 . S
C39 O66 1.289 . S
O40 C39 1.235 . S
C41 C43 1.400 . S
C41 N44 1.351 . S
C41 C46 1.501 . S
C42 C43 1.387 . S
C42 N45 1.341 . S
C43 C41 1.400 . S
C43 C42 1.387 . S
N44 Co35 2.022 . S
N44 C41 1.351 . S
N44 N45 1.365 . S
N45 C42 1.341 . S
N45 N44 1.365 . S
N45 H65 0.862 . S
C46 C41 1.501 . S
C46 H47 0.961 . S
C46 H48 0.961 . S
C46 H49 0.960 . S
H47 C46 0.961 . S
H48 C46 0.961 . S
H49 C46 0.960 . S
C50 N51 1.342 . S
C50 C54 1.401 . S
C50 C55 1.499 . S
N51 Co34 1.989 . S
N51 C50 1.342 . S
N51 N52 1.388 . S
N52 Co35 1.993 . S
N52 N51 1.388 . S
N52 C53 1.346 . S
C53 N52 1.346 . S
C53 C54 1.396 . S
C53 C63 1.510 . S
C54 C50 1.401 . S
C54 C53 1.396 . S
C55 C50 1.499 . S
C55 H56 0.959 . S
C55 H57 0.960 . S
C55 H58 0.961 . S
H56 C55 0.959 . S
H57 C55 0.960 . S
H58 C55 0.961 . S
O59 Co34 1.967 . S
O59 C67 1.258 . S
O60 Co35 1.941 . S
O60 C67 1.266 . S
H61 C63 0.959 . S
H62 C63 0.961 . S
C63 C53 1.510 . S
C63 H61 0.959 . S
C63 H62 0.961 . S
C63 H64 0.960 . S
H64 C63 0.960 . S
H65 N45 0.862 . S
O66 Co34 1.920 . S
O66 C39 1.289 . S
C67 O59 1.258 . S
C67 O60 1.266 . S
Co68 O71 1.970 . S
Co68 N85 1.989 . S
Co68 O93 1.967 . S
Co68 O100 1.920 . S
Co69 O72 1.966 . S
Co69 N78 2.022 . S
Co69 N86 1.993 . S
Co69 O94 1.941 . S
C70 O71 1.258 1_455 S
C70 O72 1.263 . S
O71 Co68 1.970 . S
O71 C70 1.258 1_655 S
O72 Co69 1.966 . S
O72 C70 1.263 . S
C73 O74 1.235 . S
C73 O100 1.289 . S
O74 C73 1.235 . S
C75 C77 1.400 . S
C75 N78 1.351 . S
C75 C80 1.501 . S
C76 C77 1.387 . S
C76 N79 1.341 . S
C77 C75 1.400 . S
C77 C76 1.387 . S
N78 Co69 2.022 . S
N78 C75 1.351 . S
N78 N79 1.365 . S
N79 C76 1.341 . S
N79 N78 1.365 . S
N79 H99 0.862 . S
C80 C75 1.501 . S
C80 H81 0.961 . S
C80 H82 0.961 . S
C80 H83 0.960 . S
H81 C80 0.961 . S
H82 C80 0.961 . S
H83 C80 0.960 . S
C84 N85 1.342 . S
C84 C88 1.401 1_655 S
C84 C89 1.499 . S
N85 Co68 1.989 . S
N85 C84 1.342 . S
N85 N86 1.388 1_655 S
N86 Co69 1.993 . S
N86 N85 1.388 1_455 S
N86 C87 1.346 . S
C87 N86 1.346 . S
C87 C88 1.396 . S
C87 C97 1.510 . S
C88 C84 1.401 1_455 S
C88 C87 1.396 . S
C89 C84 1.499 . S
C89 H90 0.959 . S
C89 H91 0.960 . S
C89 H92 0.961 . S
H90 C89 0.959 . S
H91 C89 0.960 . S
H92 C89 0.961 . S
O93 Co68 1.967 . S
O93 C101 1.258 1_655 S
O94 Co69 1.941 . S
O94 C101 1.266 . S
H95 C97 0.959 . S
H96 C97 0.961 . S
C97 C87 1.510 . S
C97 H95 0.959 . S
C97 H96 0.961 . S
C97 H98 0.960 . S
H98 C97 0.960 . S
H99 N79 0.862 . S
O100 Co68 1.920 . S
O100 C73 1.289 . S
C101 O93 1.258 1_455 S
C101 O94 1.266 . S
Co102 O105 1.970 . S
Co102 N119 1.989 . S
Co102 O127 1.967 . S
Co102 O134 1.920 . S
Co103 O106 1.966 . S
Co103 N112 2.022 . S
Co103 N120 1.993 . S
Co103 O128 1.941 . S
C104 O105 1.258 . S
C104 O106 1.263 . S
O105 Co102 1.970 . S
O105 C104 1.258 . S
O106 Co103 1.966 . S
O106 C104 1.263 . S
C107 O108 1.235 . S
C107 O134 1.289 . S
O108 C107 1.235 . S
C109 C111 1.400 . S
C109 N112 1.351 . S
C109 C114 1.501 . S
C110 C111 1.387 . S
C110 N113 1.341 . S
C111 C109 1.400 . S
C111 C110 1.387 . S
N112 Co103 2.022 . S
N112 C109 1.351 . S
N112 N113 1.365 . S
N113 C110 1.341 . S
N113 N112 1.365 . S
N113 H133 0.862 . S
C114 C109 1.501 . S
C114 H115 0.961 . S
C114 H116 0.961 . S
C114 H117 0.960 . S
H115 C114 0.961 . S
H116 C114 0.961 . S
H117 C114 0.960 . S
C118 N119 1.342 . S
C118 C122 1.401 . S
C118 C123 1.499 . S
N119 Co102 1.989 . S
N119 C118 1.342 . S
N119 N120 1.388 . S
N120 Co103 1.993 . S
N120 N119 1.388 . S
N120 C121 1.346 . S
C121 N120 1.346 . S
C121 C122 1.396 . S
C121 C131 1.510 . S
C122 C118 1.401 . S
C122 C121 1.396 . S
C123 C118 1.499 . S
C123 H124 0.959 . S
C123 H125 0.960 . S
C123 H126 0.961 . S
H124 C123 0.959 . S
H125 C123 0.960 . S
H126 C123 0.961 . S
O127 Co102 1.967 . S
O127 C135 1.258 . S
O128 Co103 1.941 . S
O128 C135 1.266 . S
H129 C131 0.959 . S
H130 C131 0.961 . S
C131 C121 1.510 . S
C131 H129 0.959 . S
C131 H130 0.961 . S
C131 H132 0.960 . S
H132 C131 0.960 . S
H133 N113 0.862 . S
O134 Co102 1.920 . S
O134 C107 1.289 . S
C135 O127 1.258 . S
C135 O128 1.266 . S
Co136 O139 1.970 . S
Co136 N153 1.989 . S
Co136 O161 1.967 . S
Co136 O168 1.920 . S
Co137 O140 1.966 . S
Co137 N146 2.022 . S
Co137 N154 1.993 . S
Co137 O162 1.941 . S
C138 O139 1.258 . S
C138 O140 1.263 . S
O139 Co136 1.970 . S
O139 C138 1.258 . S
O140 Co137 1.966 . S
O140 C138 1.263 . S
C141 O142 1.235 . S
C141 O168 1.289 . S
O142 C141 1.235 . S
C143 C145 1.400 . S
C143 N146 1.351 . S
C143 C148 1.501 . S
C144 C145 1.387 . S
C144 N147 1.341 . S
C145 C143 1.400 . S
C145 C144 1.387 . S
N146 Co137 2.022 . S
N146 C143 1.351 . S
N146 N147 1.365 . S
N147 C144 1.341 . S
N147 N146 1.365 . S
N147 H167 0.862 . S
C148 C143 1.501 . S
C148 H149 0.961 . S
C148 H150 0.961 . S
C148 H151 0.960 . S
H149 C148 0.961 . S
H150 C148 0.961 . S
H151 C148 0.960 . S
C152 N153 1.342 . S
C152 C156 1.401 . S
C152 C157 1.499 . S
N153 Co136 1.989 . S
N153 C152 1.342 . S
N153 N154 1.388 . S
N154 Co137 1.993 . S
N154 N153 1.388 . S
N154 C155 1.346 . S
C155 N154 1.346 . S
C155 C156 1.396 . S
C155 C165 1.510 . S
C156 C152 1.401 . S
C156 C155 1.396 . S
C157 C152 1.499 . S
C157 H158 0.959 . S
C157 H159 0.960 . S
C157 H160 0.961 . S
H158 C157 0.959 . S
H159 C157 0.960 . S
H160 C157 0.961 . S
O161 Co136 1.967 . S
O161 C169 1.258 . S
O162 Co137 1.941 . S
O162 C169 1.266 . S
H163 C165 0.959 . S
H164 C165 0.961 . S
C165 C155 1.510 . S
C165 H163 0.959 . S
C165 H164 0.961 . S
C165 H166 0.960 . S
H166 C165 0.960 . S
H167 N147 0.862 . S
O168 Co136 1.920 . S
O168 C141 1.289 . S
C169 O161 1.258 . S
C169 O162 1.266 . S
Co170 O173 1.970 . S
Co170 N187 1.989 . S
Co170 O195 1.967 . S
Co170 O202 1.920 . S
Co171 O174 1.966 1_655 S
Co171 N180 2.022 . S
Co171 N188 1.993 1_655 S
Co171 O196 1.941 . S
C172 O173 1.258 . S
C172 O174 1.263 . S
O173 Co170 1.970 . S
O173 C172 1.258 . S
O174 Co171 1.966 1_455 S
O174 C172 1.263 . S
C175 O176 1.235 . S
C175 O202 1.289 . S
O176 C175 1.235 . S
C177 C179 1.400 . S
C177 N180 1.351 . S
C177 C182 1.501 . S
C178 C179 1.387 . S
C178 N181 1.341 . S
C179 C177 1.400 . S
C179 C178 1.387 . S
N180 Co171 2.022 . S
N180 C177 1.351 . S
N180 N181 1.365 . S
N181 C178 1.341 . S
N181 N180 1.365 . S
N181 H201 0.862 . S
C182 C177 1.501 . S
C182 H183 0.961 . S
C182 H184 0.961 . S
C182 H185 0.960 . S
H183 C182 0.961 . S
H184 C182 0.961 . S
H185 C182 0.960 . S
C186 N187 1.342 . S
C186 C190 1.401 . S
C186 C191 1.499 . S
N187 Co170 1.989 . S
N187 C186 1.342 . S
N187 N188 1.388 . S
N188 Co171 1.993 1_455 S
N188 N187 1.388 . S
N188 C189 1.346 1_455 S
C189 N188 1.346 1_655 S
C189 C190 1.397 1_655 S
C189 C199 1.509 . S
C190 C186 1.401 . S
C190 C189 1.397 1_455 S
C191 C186 1.499 . S
C191 H192 0.959 . S
C191 H193 0.960 . S
C191 H194 0.961 . S
H192 C191 0.959 . S
H193 C191 0.960 . S
H194 C191 0.961 . S
O195 Co170 1.967 . S
O195 C203 1.258 . S
O196 Co171 1.941 . S
O196 C203 1.267 1_655 S
H197 C199 0.959 . S
H198 C199 0.961 . S
C199 C189 1.509 . S
C199 H197 0.959 . S
C199 H198 0.961 . S
C199 H200 0.960 . S
H200 C199 0.960 . S
H201 N181 0.862 . S
O202 Co170 1.920 . S
O202 C175 1.289 . S
C203 O195 1.258 . S
C203 O196 1.267 1_455 S
Co204 O207 1.970 . S
Co204 N221 1.989 . S
Co204 O229 1.967 . S
Co204 O236 1.920 . S
Co205 O208 1.966 . S
Co205 N214 2.022 . S
Co205 N222 1.993 . S
Co205 O230 1.941 . S
C206 O207 1.258 . S
C206 O208 1.263 . S
O207 Co204 1.970 . S
O207 C206 1.258 . S
O208 Co205 1.966 . S
O208 C206 1.263 . S
C209 O210 1.235 . S
C209 O236 1.289 . S
O210 C209 1.235 . S
C211 C213 1.400 . S
C211 N214 1.351 . S
C211 C216 1.501 . S
C212 C213 1.387 . S
C212 N215 1.341 . S
C213 C211 1.400 . S
C213 C212 1.387 . S
N214 Co205 2.022 . S
N214 C211 1.351 . S
N214 N215 1.365 . S
N215 C212 1.341 . S
N215 N214 1.365 . S
N215 H235 0.862 . S
C216 C211 1.501 . S
C216 H217 0.961 . S
C216 H218 0.961 . S
C216 H219 0.960 . S
H217 C216 0.961 . S
H218 C216 0.961 . S
H219 C216 0.960 . S
C220 N221 1.342 . S
C220 C224 1.401 . S
C220 C225 1.499 . S
N221 Co204 1.989 . S
N221 C220 1.342 . S
N221 N222 1.388 . S
N222 Co205 1.993 . S
N222 N221 1.388 . S
N222 C223 1.346 . S
C223 N222 1.346 . S
C223 C224 1.396 . S
C223 C233 1.510 . S
C224 C220 1.401 . S
C224 C223 1.396 . S
C225 C220 1.499 . S
C225 H226 0.959 . S
C225 H227 0.960 . S
C225 H228 0.961 . S
H226 C225 0.959 . S
H227 C225 0.960 . S
H228 C225 0.961 . S
O229 Co204 1.967 . S
O229 C237 1.258 . S
O230 Co205 1.941 . S
O230 C237 1.266 . S
H231 C233 0.959 . S
H232 C233 0.961 . S
C233 C223 1.510 . S
C233 H231 0.959 . S
C233 H232 0.961 . S
C233 H234 0.960 . S
H234 C233 0.960 . S
H235 N215 0.862 . S
O236 Co204 1.920 . S
O236 C209 1.289 . S
C237 O229 1.258 . S
C237 O230 1.266 . S
Co238 O241 1.970 . S
Co238 N255 1.989 . S
Co238 O263 1.967 . S
Co238 O270 1.920 . S
Co239 O242 1.966 1_655 S
Co239 N248 2.022 . S
Co239 N256 1.993 1_655 S
Co239 O264 1.941 . S
C240 O241 1.258 . S
C240 O242 1.263 . S
O241 Co238 1.970 . S
O241 C240 1.258 . S
O242 Co239 1.966 1_455 S
O242 C240 1.263 . S
C243 O244 1.235 . S
C243 O270 1.289 . S
O244 C243 1.235 . S
C245 C247 1.400 . S
C245 N248 1.351 . S
C245 C250 1.501 . S
C246 C247 1.387 . S
C246 N249 1.341 . S
C247 C245 1.400 . S
C247 C246 1.387 . S
N248 Co239 2.022 . S
N248 C245 1.351 . S
N248 N249 1.365 . S
N249 C246 1.341 . S
N249 N248 1.365 . S
N249 H269 0.862 . S
C250 C245 1.501 . S
C250 H251 0.961 . S
C250 H252 0.961 . S
C250 H253 0.960 . S
H251 C250 0.961 . S
H252 C250 0.961 . S
H253 C250 0.960 . S
C254 N255 1.342 . S
C254 C258 1.401 . S
C254 C259 1.499 . S
N255 Co238 1.989 . S
N255 C254 1.342 . S
N255 N256 1.388 . S
N256 Co239 1.993 1_455 S
N256 N255 1.388 . S
N256 C257 1.346 1_455 S
C257 N256 1.346 1_655 S
C257 C258 1.397 1_655 S
C257 C267 1.509 . S
C258 C254 1.401 . S
C258 C257 1.397 1_455 S
C259 C254 1.499 . S
C259 H260 0.959 . S
C259 H261 0.960 . S
C259 H262 0.961 . S
H260 C259 0.959 . S
H261 C259 0.960 . S
H262 C259 0.961 . S
O263 Co238 1.967 . S
O263 C271 1.258 . S
O264 Co239 1.941 . S
O264 C271 1.267 1_655 S
H265 C267 0.959 . S
H266 C267 0.961 . S
C267 C257 1.509 . S
C267 H265 0.959 . S
C267 H266 0.961 . S
C267 H268 0.960 . S
H268 C267 0.960 . S
H269 N249 0.862 . S
O270 Co238 1.920 . S
O270 C243 1.289 . S
C271 O263 1.258 . S
C271 O264 1.267 1_455 S
C272 C273 1.170 . S
C272 C274 1.380 1_566 S
C273 C272 1.170 . S
C274 C272 1.380 1_544 S
C274 C275 1.170 . S
C275 C274 1.170 . S
C276 C277 1.170 . S
C276 C278 1.380 1_545 S
C277 C276 1.170 . S
C278 C276 1.380 1_565 S
C278 C279 1.170 . S
C279 C278 1.170 . S
C280 C281 1.170 . S
C280 C282 1.380 1_554 S
C281 C280 1.170 . S
C282 C280 1.380 1_556 S
C282 C283 1.170 . S
C283 C282 1.170 . S
C284 C285 1.170 . S
C284 C286 1.380 . S
C285 C284 1.170 . S
C286 C284 1.380 . S
C286 C287 1.170 . S
C287 C286 1.170 . S
C288 C289 1.170 . S
C288 C290 1.380 . S
C289 C288 1.170 . S
C290 C288 1.380 . S
C290 C291 1.170 . S
C291 C290 1.170 . S
C292 C293 1.170 . S
C292 C294 1.380 . S
C293 C292 1.170 . S
C294 C292 1.380 . S
C294 C295 1.170 . S
C295 C294 1.170 . S
C296 C297 1.170 . S
C296 C298 1.380 . S
C297 C296 1.170 . S
C298 C296 1.380 . S
C298 C299 1.170 . S
C299 C298 1.170 . S
C300 C301 1.170 . S
C300 C302 1.380 . S
C301 C300 1.170 . S
C302 C300 1.380 . S
C302 C303 1.170 . S
C303 C302 1.170 . S
C304 C305 1.170 . S
C304 C306 1.380 . S
C305 C304 1.170 . S
C306 C304 1.380 . S
C306 C307 1.170 . S
C307 C306 1.170 . S
C308 C309 1.170 . S
C308 C310 1.380 . S
C309 C308 1.170 . S
C310 C308 1.380 . S
C310 C311 1.170 . S
C311 C310 1.170 . S
C312 C313 1.170 . S
C312 C314 1.380 . S
C313 C312 1.170 . S
C314 C312 1.380 . S
C314 C315 1.170 . S
C315 C314 1.170 . S
C316 C317 1.170 . S
C316 C318 1.380 . S
C317 C316 1.170 . S
C318 C316 1.380 . S
C318 C319 1.170 . S
C319 C318 1.170 . S
C320 C321 1.170 . S
C320 C322 1.380 . S
C321 C320 1.170 . S
C322 C320 1.380 . S
C322 C323 1.170 1_556 S
C323 C322 1.170 1_554 S
C324 C325 1.170 . S
C324 C326 1.380 . S
C325 C324 1.170 . S
C326 C324 1.380 . S
C326 C327 1.170 . S
C327 C326 1.170 . S
C328 C329 1.170 1_554 S
C328 C330 1.380 . S
C329 C328 1.170 1_556 S
C330 C328 1.380 . S
C330 C331 1.170 . S
C331 C330 1.170 . S
C332 C333 1.170 . S
C332 C334 1.380 . S
C333 C332 1.170 . S
C334 C332 1.380 . S
C334 C335 1.170 . S
C335 C334 1.170 . S
C336 C337 1.170 . S
C336 C338 1.380 . S
C337 C336 1.170 . S
C338 C336 1.380 . S
C338 C339 1.170 1_556 S
C339 C338 1.170 1_554 S
C340 C341 1.170 . S
C340 C342 1.380 . S
C341 C340 1.170 . S
C342 C340 1.380 . S
C342 C343 1.170 . S
C343 C342 1.170 . S
C344 C345 1.170 1_554 S
C344 C346 1.380 . S
C345 C344 1.170 1_556 S
C346 C344 1.380 . S
C346 C347 1.170 . S
C347 C346 1.170 . S
C348 C349 1.170 . S
C348 C350 1.380 . S
C349 C348 1.170 . S
C350 C348 1.380 . S
C350 C351 1.170 . S
C351 C350 1.170 . S
C273 C70 1.661 . S
C275 C2 1.690 . S
C277 C104 1.662 . S
C279 C36 1.678 . S
C281 C138 1.689 . S
C283 C206 1.674 . S
C285 C172 1.660 . S
C287 C240 1.684 . S
C289 C111 1.203 . S
C291 C9 1.168 . S
C293 C43 1.211 . S
C295 C77 1.200 . S
C297 C73 1.848 . S
C299 C39 1.831 . S
C301 C107 1.855 . S
C303 C5 1.836 . S
C305 C247 1.170 . S
C307 C145 1.156 . S
C309 C179 1.209 . S
C311 C213 1.204 . S
C313 C209 1.845 . S
C315 C175 1.831 . S
C317 C243 1.833 . S
C319 C141 1.852 . S
C321 C190 1.340 . S
C323 C33 1.359 . S
C325 C67 1.337 . S
C327 C156 1.360 . S
C329 C101 1.344 . S
C331 C258 1.355 . S
C333 C224 1.343 . S
C335 C135 1.357 . S
C337 C54 1.339 . S
C339 C169 1.359 . S
C341 C203 1.339 . S
C343 C20 1.359 . S
C345 C237 1.337 . S
C347 C122 1.357 . S
C349 C271 1.337 . S
C351 C88 1.357 . S
