# Generated by pormake.
# Topology ukg, (4)-cn, num edge types: 1
# Building blocks:
#     Node 0, Type 0, BuildingBlock: QUQFOY_clean_sbu_3, # of connection points: 4
#     Node 1, Type 0, BuildingBlock: QUQFOY_clean_sbu_3, # of connection points: 4
#     Node 2, Type 0, BuildingBlock: QUQFOY_clean_sbu_3, # of connection points: 4
#     Node 3, Type 0, BuildingBlock: QUQFOY_clean_sbu_3, # of connection points: 4
#     Node 4, Type 0, BuildingBlock: QUQFOY_clean_sbu_3, # of connection points: 4
#     Node 5, Type 0, BuildingBlock: QUQFOY_clean_sbu_3, # of connection points: 4
#     Node 6, Type 0, BuildingBlock: QUQFOY_clean_sbu_3, # of connection points: 4
#     Node 7, Type 0, BuildingBlock: QUQFOY_clean_sbu_3, # of connection points: 4
#     Edge 8, Type (0, 0), BuildingBlock: CIFDUS_clean_linker_0, # of connection points: 2
#     Edge 9, Type (0, 0), BuildingBlock: CIFDUS_clean_linker_0, # of connection points: 2
#     Edge 10, Type (0, 0), BuildingBlock: CIFDUS_clean_linker_0, # of connection points: 2
#     Edge 11, Type (0, 0), BuildingBlock: CIFDUS_clean_linker_0, # of connection points: 2
#     Edge 12, Type (0, 0), BuildingBlock: CIFDUS_clean_linker_0, # of connection points: 2
#     Edge 13, Type (0, 0), BuildingBlock: CIFDUS_clean_linker_0, # of connection points: 2
#     Edge 14, Type (0, 0), BuildingBlock: CIFDUS_clean_linker_0, # of connection points: 2
#     Edge 15, Type (0, 0), BuildingBlock: CIFDUS_clean_linker_0, # of connection points: 2
#     Edge 16, Type (0, 0), BuildingBlock: CIFDUS_clean_linker_0, # of connection points: 2
#     Edge 17, Type (0, 0), BuildingBlock: CIFDUS_clean_linker_0, # of connection points: 2
#     Edge 18, Type (0, 0), BuildingBlock: CIFDUS_clean_linker_0, # of connection points: 2
#     Edge 19, Type (0, 0), BuildingBlock: CIFDUS_clean_linker_0, # of connection points: 2
#     Edge 20, Type (0, 0), BuildingBlock: CIFDUS_clean_linker_0, # of connection points: 2
#     Edge 21, Type (0, 0), BuildingBlock: CIFDUS_clean_linker_0, # of connection points: 2
#     Edge 22, Type (0, 0), BuildingBlock: CIFDUS_clean_linker_0, # of connection points: 2
#     Edge 23, Type (0, 0), BuildingBlock: CIFDUS_clean_linker_0, # of connection points: 2
# Relax obj value: 0.113
# Max RMSD: 0.202
# Mean RMSD: 0.199
data_MOF--net-ukg--node1-QUQFOY_clean_sbu_3--edge1-CIFDUS_clean_linker_0
_symmetry_space_group_name_H-M    P1
_symmetry_Int_Tables_number       1
_symmetry_cell_setting            triclinic
loop_
_symmetry_equiv_pos_as_xyz
'x, y, z'
_cell_length_a     27.896443
_cell_length_b     28.265658
_cell_length_c     35.712897
_cell_angle_alpha  89.734877
_cell_angle_beta   90.128016
_cell_angle_gamma 90.109599
loop_
_atom_site_label
_atom_site_type_symbol
_atom_site_fract_x
_atom_site_fract_y
_atom_site_fract_z
_atom_type_partial_charge
C0 C 0.11478 0.65095 0.17516 0.0
O1 O 0.10275 0.63804 0.20789 0.0
Cd2 Cd 0.02091 0.62768 0.22448 0.0
O3 O 0.08425 0.65053 0.14855 0.0
Cd4 Cd -0.00157 0.62695 0.13951 0.0
C5 C -0.01842 0.73082 0.18074 0.0
O6 O -0.02108 0.56959 0.18911 0.0
O7 O 0.92092 0.61398 0.1694 0.0
O8 O 0.01858 0.56557 0.09438 0.0
C9 C 0.93434 0.57871 0.18882 0.0
O10 O -0.00787 0.70674 0.20985 0.0
C11 C -0.00863 0.58039 0.06833 0.0
O12 O -0.01869 0.71169 0.14843 0.0
O13 O 0.96864 0.61857 0.07459 0.0
C14 C 0.27448 0.59047 0.66828 0.0
O15 O 0.28436 0.57234 0.69996 0.0
Cd16 Cd 0.29038 0.48894 0.70992 0.0
O17 O 0.27528 0.56537 0.63872 0.0
Cd18 Cd 0.294 0.48252 0.62008 0.0
C19 C 0.18645 0.46447 0.65944 0.0
O20 O 0.34555 0.45013 0.67012 0.0
O21 O 0.30563 0.40054 0.63575 0.0
O22 O 0.36049 0.5061 0.57961 0.0
C23 C 0.3363 0.40747 0.6614 0.0
O24 O 0.21037 0.46915 0.68961 0.0
C25 C 0.34455 0.4865 0.55016 0.0
O26 O 0.20666 0.46766 0.62745 0.0
O27 O 0.30323 0.46744 0.55244 0.0
C28 C 0.36378 0.7898 0.18309 0.0
O29 O 0.38528 0.80109 0.21314 0.0
Cd30 Cd 0.47047 0.80172 0.21739 0.0
O31 O 0.38651 0.78863 0.15215 0.0
Cd32 Cd 0.4684 0.80857 0.12791 0.0
C33 C 0.48886 0.70086 0.16318 0.0
O34 O 0.50458 0.85874 0.17675 0.0
O35 O 0.55292 0.82201 0.13952 0.0
O36 O 0.43921 0.87318 0.08797 0.0
C37 C 0.54726 0.85115 0.16602 0.0
O38 O 0.48634 0.72272 0.19422 0.0
C39 C 0.45712 0.85752 0.0578 0.0
O40 O 0.48403 0.72268 0.13204 0.0
O41 O 0.47807 0.81762 0.05978 0.0
C42 C 0.13823 0.83639 0.69195 0.0
O43 O 0.11981 0.85239 0.72178 0.0
Cd44 Cd 0.12257 0.93575 0.73307 0.0
O45 O 0.14686 0.86413 0.66457 0.0
Cd46 Cd 0.13304 0.94799 0.64614 0.0
C47 C 0.23541 0.95474 0.69383 0.0
O48 O 0.07709 -0.01649 0.69139 0.0
O49 O 0.12688 0.03019 0.66238 0.0
O50 O 0.06931 0.92679 0.60262 0.0
C51 C 0.09176 0.02534 0.68456 0.0
O52 O 0.20671 0.94967 0.72125 0.0
C53 C 0.08778 0.94632 0.57398 0.0
O54 O 0.21985 0.95573 0.66016 0.0
O55 O 0.12936 0.96438 0.57815 0.0
C56 C 0.9472 0.3907 0.75372 0.0
O57 O 0.9119 0.37176 0.73703 0.0
Cd58 Cd 0.8674 0.30927 0.7677 0.0
O59 O 0.95713 0.37975 0.78746 0.0
Cd60 Cd 0.93287 0.33223 0.8422 0.0
C61 C 0.96733 0.24023 0.78876 0.0
O62 O 0.84703 0.32367 0.83182 0.0
O63 O 0.88128 0.27218 0.8682 0.0
O64 O 0.93004 0.40376 0.87997 0.0
C65 C 0.84331 0.28703 0.85251 0.0
O66 O 0.92964 0.24955 0.7699 0.0
C67 C 0.96057 0.39059 0.90427 0.0
O68 O -0.02017 0.26539 0.81682 0.0
O69 O -0.02132 0.34963 0.89994 0.0
C70 C 0.55589 0.45405 0.24453 0.0
O71 O 0.57684 0.42188 0.22612 0.0
Cd72 Cd 0.63446 0.3708 0.2575 0.0
O73 O 0.56382 0.45885 0.27937 0.0
Cd74 Cd 0.6084 0.42768 0.33305 0.0
C75 C 0.70825 0.46166 0.28619 0.0
O76 O 0.61018 0.34348 0.31837 0.0
O77 O 0.66384 0.36908 0.35734 0.0
O78 O 0.53293 0.42894 0.36734 0.0
C79 C 0.64502 0.3344 0.34028 0.0
O80 O 0.70172 0.42437 0.26688 0.0
C81 C 0.54751 0.45423 0.39437 0.0
O82 O 0.6776 0.47493 0.31053 0.0
O83 O 0.59123 0.46732 0.39335 0.0
C84 C 0.48564 0.05889 0.74741 0.0
O85 O 0.52254 0.07599 0.7316 0.0
Cd86 Cd 0.56613 0.13846 0.7629 0.0
O87 O 0.47494 0.07058 0.78073 0.0
Cd88 Cd 0.49851 0.11595 0.83639 0.0
C89 C 0.46406 0.20614 0.78098 0.0
O90 O 0.58456 0.12476 0.82765 0.0
O91 O 0.54896 0.17632 0.86273 0.0
O92 O 0.50017 0.04222 0.87159 0.0
C93 C 0.58744 0.16151 0.84806 0.0
O94 O 0.50237 0.19673 0.76314 0.0
C95 C 0.47143 0.05477 0.89719 0.0
O96 O 0.45101 0.1817 0.80942 0.0
O97 O 0.45446 0.09651 0.89473 0.0
C98 C 0.9073 -0.02145 0.2615 0.0
O99 O 0.89516 0.01354 0.24124 0.0
Cd100 Cd 0.83366 0.06586 0.26477 0.0
O101 O 0.89101 -0.02599 0.29453 0.0
Cd102 Cd 0.84164 0.00842 0.34399 0.0
C103 C 0.75269 -0.02455 0.28556 0.0
O104 O 0.84416 0.09253 0.32825 0.0
O105 O 0.78512 0.06805 0.36281 0.0
O106 O 0.91346 0.00702 0.38258 0.0
C107 C 0.80628 0.10217 0.34654 0.0
O108 O 0.76785 0.00962 0.2654 0.0
C109 C 0.89641 -0.01797 0.40901 0.0
O110 O 0.77311 0.9645 0.31649 0.0
O111 O 0.85274 -0.03073 0.40577 0.0
H112 H 0.92857 0.47968 0.91828 0.0
H113 H 0.02214 0.37124 0.96214 0.0
H114 H 0.04176 0.42143 0.01564 0.0
H115 H 0.03019 0.49491 0.05108 0.0
H116 H 0.93576 0.60287 0.0076 0.0
H117 H 0.919 0.55418 0.9527 0.0
C118 C 0.95338 0.467 0.93947 0.0
C119 C -0.02632 0.42157 0.93621 0.0
C120 C 0.96441 0.49602 0.97022 0.0
C121 C 0.00589 0.40592 0.96392 0.0
C122 C 0.01714 0.43464 -0.00545 0.0
C123 C 0.00624 0.50803 0.02946 0.0
C124 C -0.01576 0.55257 0.03355 0.0
C125 C -0.00366 0.4796 -0.00187 0.0
C126 C 0.95322 0.56882 0.00524 0.0
C127 C 0.9435 0.54091 0.97385 0.0
H128 H 0.43702 0.51555 0.5409 0.0
H129 H 0.32029 0.44692 0.48297 0.0
H130 H 0.37245 0.43221 0.4294 0.0
H131 H 0.45218 0.43508 0.40033 0.0
H132 H 0.56932 0.50268 0.45847 0.0
H133 H 0.51602 0.52146 0.51061 0.0
C134 C 0.42277 0.49785 0.5164 0.0
C135 C 0.37469 0.48233 0.51606 0.0
C136 C 0.45319 0.48891 0.48584 0.0
C137 C 0.35704 0.45929 0.48405 0.0
C138 C 0.38693 0.45069 0.45343 0.0
C139 C 0.4661 0.45406 0.42434 0.0
C140 C 0.51487 0.46716 0.42552 0.0
C141 C 0.43525 0.46468 0.45425 0.0
C142 C 0.53207 0.492 0.45682 0.0
C143 C 0.50157 0.50277 0.48666 0.0
H144 H 0.42049 0.9461 0.04723 0.0
H145 H 0.49524 0.83417 -0.00999 0.0
H146 H 0.50419 0.88468 0.93483 0.0
H147 H 0.49549 0.96209 0.90428 0.0
H148 H 0.42137 0.07457 0.9612 0.0
H149 H 0.40737 0.02233 0.01495 0.0
C150 C 0.43825 0.93252 0.02254 0.0
C151 C 0.45735 0.88637 0.02291 0.0
C152 C 0.44374 0.96201 -0.00907 0.0
C153 C 0.48023 0.86947 -0.0094 0.0
C154 C 0.48554 0.89843 0.95904 0.0
C155 C 0.47602 -0.02481 0.92834 0.0
C156 C 0.45986 0.02238 0.92879 0.0
C157 C 0.46822 0.94501 0.95914 0.0
C158 C 0.43434 0.03851 0.96012 0.0
C159 C 0.42639 0.00864 -0.0091 0.0
H160 H -0.00875 0.00029 0.41943 0.0
H161 H 0.86939 0.93386 0.47236 0.0
H162 H 0.91877 0.91425 0.52696 0.0
H163 H -0.00432 0.91885 0.56067 0.0
H164 H 0.11712 -0.01368 0.50793 0.0
H165 H 0.06885 0.00212 0.45206 0.0
C166 C -0.02458 -0.01858 0.44285 0.0
C167 C 0.92649 -0.03115 0.44183 0.0
C168 C 0.00403 -0.02969 0.47415 0.0
C169 C 0.90682 0.94413 0.4724 0.0
C170 C 0.93508 0.93288 0.50364 0.0
C171 C 0.01181 0.93657 0.53682 0.0
C172 C 0.06008 0.9514 0.53859 0.0
C173 C -0.01638 0.94613 0.50495 0.0
C174 C 0.08019 -0.02554 0.5074 0.0
C175 C 0.05251 -0.01632 0.47546 0.0
H176 H 0.16635 0.69766 0.22692 0.0
H177 H 0.16785 0.65741 0.11062 0.0
H178 H 0.24397 0.69975 0.10185 0.0
H179 H 0.31075 0.74705 0.12806 0.0
H180 H 0.30536 0.78951 0.24407 0.0
H181 H 0.22947 0.74825 0.25181 0.0
C182 C 0.18357 0.69763 0.19971 0.0
C183 C 0.16209 0.67361 0.16964 0.0
C184 C 0.22623 0.72309 0.19469 0.0
C185 C 0.18409 0.67515 0.1343 0.0
C186 C 0.22741 0.69956 0.12927 0.0
C187 C 0.29264 0.74789 0.15488 0.0
C188 C 0.31408 0.77125 0.18547 0.0
C189 C 0.24881 0.72373 0.15931 0.0
C190 C 0.28997 0.77182 0.22003 0.0
C191 C 0.24661 0.74795 0.22461 0.0
H192 H 0.2245 0.63416 0.72252 0.0
H193 H 0.27628 0.65357 0.6098 0.0
H194 H 0.23612 0.73059 0.60621 0.0
H195 H 0.18661 0.79233 0.63555 0.0
H196 H 0.13219 0.7699 0.74744 0.0
H197 H 0.17223 0.6935 0.75049 0.0
C198 C 0.22759 0.65552 0.69732 0.0
C199 C 0.25412 0.6387 0.66673 0.0
C200 C 0.20321 0.69878 0.69507 0.0
C201 C 0.25656 0.66611 0.63388 0.0
C202 C 0.23336 0.70994 0.63176 0.0
C203 C 0.18297 0.77051 0.66044 0.0
C204 C 0.15644 0.7871 0.69126 0.0
C205 C 0.20639 0.72653 0.66216 0.0
C206 C 0.15223 0.75819 0.72326 0.0
C207 C 0.17544 0.71457 0.72517 0.0
H208 H 0.68002 0.13232 0.84926 0.0
H209 H 0.59158 0.25722 0.84869 0.0
H210 H 0.66287 0.30755 0.84866 0.0
H211 H 0.75079 0.31612 0.84885 0.0
H212 H 0.83902 0.19129 0.85555 0.0
H213 H 0.76781 0.14095 0.85323 0.0
C214 C 0.67658 0.17055 0.84913 0.0
C215 C 0.6309 0.19113 0.84884 0.0
C216 C 0.71771 0.19928 0.85028 0.0
C217 C 0.62657 0.24066 0.8491 0.0
C218 C 0.66726 0.26946 0.84897 0.0
C219 C 0.75421 0.2779 0.84983 0.0
C220 C 0.79983 0.25737 0.85227 0.0
C221 C 0.71305 0.24918 0.84959 0.0
C222 C 0.80407 0.20785 0.85391 0.0
C223 C 0.76344 0.17904 0.85244 0.0
H224 H 0.73984 0.31547 0.34392 0.0
H225 H 0.6011 0.24849 0.33771 0.0
H226 H 0.63902 0.17036 0.34026 0.0
H227 H 0.71167 0.12147 0.34457 0.0
H228 H 0.85078 0.18815 0.34434 0.0
H229 H 0.81284 0.26639 0.34384 0.0
C230 C 0.71801 0.28367 0.34327 0.0
C231 C 0.6678 0.28742 0.34118 0.0
C232 C 0.74015 0.2391 0.34351 0.0
C233 C 0.63981 0.24622 0.33948 0.0
C234 C 0.66146 0.20169 0.34097 0.0
C235 C 0.73361 0.1532 0.3445 0.0
C236 C 0.78386 0.14933 0.34498 0.0
C237 C 0.71157 0.19775 0.34308 0.0
C238 C 0.81202 0.19048 0.34407 0.0
C239 C 0.79034 0.23508 0.34387 0.0
H240 H 0.79642 0.4319 0.26626 0.0
H241 H 0.71314 0.55806 0.28421 0.0
H242 H 0.77721 0.60627 0.25664 0.0
H243 H 0.85341 0.61112 0.22176 0.0
H244 H 0.93835 0.48532 0.20698 0.0
H245 H 0.87714 0.43815 0.2391 0.0
C246 C 0.79274 0.47007 0.26471 0.0
C247 C 0.7501 0.49148 0.27689 0.0
C248 C 0.82969 0.49739 0.249 0.0
C249 C 0.74579 0.54091 0.27516 0.0
C250 C 0.7822 0.56837 0.2591 0.0
C251 C 0.85858 0.57343 0.22589 0.0
C252 C 0.89981 0.55143 0.21156 0.0
C253 C 0.82369 0.5468 0.24498 0.0
C254 C 0.90673 0.50285 0.21766 0.0
C255 C 0.87174 0.47592 0.23593 0.0
H256 H 0.35334 0.39273 0.73579 0.0
H257 H 0.37215 0.33145 0.62645 0.0
H258 H 0.41179 0.26283 0.65427 0.0
H259 H 0.4425 0.22116 0.70915 0.0
H260 H 0.41941 0.27744 0.8195 0.0
H261 H 0.37902 0.34686 0.79213 0.0
C262 C 0.36642 0.36432 0.71827 0.0
C263 C 0.36069 0.36714 0.67918 0.0
C264 C 0.38776 0.32409 0.73464 0.0
C265 C 0.37658 0.32991 0.65659 0.0
C266 C 0.3991 0.29072 0.67245 0.0
C267 C 0.42822 0.2485 0.7272 0.0
C268 C 0.43399 0.24466 0.76613 0.0
C269 C 0.40494 0.28753 0.71135 0.0
C270 C 0.41498 0.27977 0.78941 0.0
C271 C 0.39235 0.3195 0.77373 0.0
H272 H 0.55988 0.87255 0.23985 0.0
H273 H 0.6284 0.8797 0.1318 0.0
H274 H 0.69847 0.91757 0.15976 0.0
H275 H 0.73947 0.95008 0.21427 0.0
H276 H 0.67551 0.93862 0.32364 0.0
H277 H 0.60459 0.90018 0.2961 0.0
C278 C 0.59019 0.88264 0.22258 0.0
C279 C 0.58894 0.87405 0.18379 0.0
C280 C 0.63111 0.90314 0.2391 0.0
C281 C 0.62863 0.88622 0.16168 0.0
C282 C 0.66865 0.9078 0.17763 0.0
C283 C 0.71006 0.9389 0.23211 0.0
C284 C 0.71227 0.94741 0.27078 0.0
C285 C 0.67018 0.91654 0.2162 0.0
C286 C 0.67448 0.9322 0.29377 0.0
C287 C 0.63391 0.91059 0.27798 0.0
H288 H -0.01545 0.21532 0.71788 0.0
H289 H 0.0148 0.17463 0.83192 0.0
H290 H 0.05455 0.10238 0.80983 0.0
H291 H 0.07807 0.04957 0.75735 0.0
H292 H 0.0523 0.09512 0.64375 0.0
H293 H 0.0127 0.16662 0.66624 0.0
C294 C 0.00014 0.19074 0.73789 0.0
C295 C -0.00341 0.19986 0.77639 0.0
C296 C 0.02309 0.15 0.72499 0.0
C297 C 0.01743 0.16827 0.8021 0.0
C298 C 0.03973 0.12689 0.78948 0.0
C299 C 0.06343 0.07521 0.73776 0.0
C300 C 0.06707 0.06717 0.69906 0.0
C301 C 0.0422 0.11708 0.75095 0.0
C302 C 0.04926 0.10075 0.67365 0.0
C303 C 0.02684 0.14155 0.68648 0.0
H304 H -0.01746 0.37693 0.68375 0.0
H305 H -0.00968 0.46993 0.77898 0.0
H306 H 0.06206 0.50736 0.75337 0.0
H307 H 0.12947 0.50366 0.7105 0.0
H308 H 0.12733 0.40687 0.61767 0.0
H309 H 0.04604 0.38128 0.63513 0.0
C310 C -0.00087 0.40649 0.6981 0.0
C311 C -0.01855 0.42078 0.73319 0.0
C312 C 0.04176 0.42641 0.68397 0.0
C313 C 0.00349 0.45849 0.75197 0.0
C314 C 0.04461 0.47963 0.73746 0.0
C315 C 0.11081 0.47756 0.69365 0.0
C316 C 0.13441 0.45645 0.66332 0.0
C317 C 0.06521 0.4623 0.70451 0.0
C318 C 0.10977 0.42342 0.64123 0.0
C319 C 0.06352 0.4086 0.65142 0.0
H320 H 0.57227 0.49584 0.1768 0.0
H321 H 0.47613 0.49561 0.27124 0.0
H322 H 0.44121 0.57006 0.25004 0.0
H323 H 0.44804 0.64109 0.21165 0.0
H324 H 0.54631 0.6455 0.11884 0.0
H325 H 0.57011 0.56332 0.1319 0.0
C326 C 0.54255 0.51138 0.19189 0.0
C327 C 0.52688 0.4906 0.22564 0.0
C328 C 0.52382 0.55532 0.18025 0.0
C329 C 0.48881 0.51121 0.2453 0.0
C330 C 0.46907 0.55389 0.23333 0.0
C331 C 0.47403 0.62369 0.19384 0.0
C332 C 0.49611 0.64924 0.16482 0.0
C333 C 0.48791 0.57725 0.20197 0.0
C334 C 0.52904 0.62636 0.14145 0.0
C335 C 0.5428 0.57956 0.1491 0.0
H336 H 0.43139 -0.0122 0.77381 0.0
H337 H 0.45964 0.06893 0.67388 0.0
H338 H 0.38589 0.03851 0.64513 0.0
H339 H 0.30656 -0.00073 0.65338 0.0
H340 H 0.28017 0.91991 0.75491 0.0
H341 H 0.3599 0.93865 0.77773 0.0
C342 C 0.42203 -0.00225 0.74532 0.0
C343 C 0.45039 0.0308 0.72612 0.0
C344 C 0.37935 -0.01898 0.72947 0.0
C345 C 0.4383 0.04327 0.68914 0.0
C346 C 0.39585 0.02632 0.67289 0.0
C347 C 0.31879 -0.01471 0.68005 0.0
C348 C 0.28701 0.95931 0.70281 0.0
C349 C 0.36497 -0.00323 0.69348 0.0
C350 C 0.30347 0.94103 0.73722 0.0
C351 C 0.34916 0.95159 0.75035 0.0
H352 H 0.0095 0.78568 0.23806 0.0
H353 H 0.93039 0.79036 0.13421 0.0
H354 H 0.90631 0.87215 0.14735 0.0
H355 H 0.90006 0.93846 0.19255 0.0
H356 H -0.02357 0.92964 0.29749 0.0
H357 H 0.01018 0.85358 0.27942 0.0
C358 C -0.01282 0.80459 0.2181 0.0
C359 C 0.9709 0.7817 0.18558 0.0
C360 C -0.02677 0.85096 0.22604 0.0
C361 C 0.94302 0.80711 0.15961 0.0
C362 C 0.92921 0.8538 0.16717 0.0
C363 C 0.92526 0.92042 0.21083 0.0
C364 C 0.93595 0.93946 0.24625 0.0
C365 C 0.9431 0.87566 0.20081 0.0
C366 C 0.96787 0.91554 0.2701 0.0
C367 C -0.01314 0.87197 0.2599 0.0
loop_
_geom_bond_atom_site_label_1
_geom_bond_atom_site_label_2
_geom_bond_distance
_geom_bond_site_symmetry_2
_ccdc_geom_bond_type
C0 O1 1.306 . S
C0 O3 1.160 . S
O1 C0 1.306 . S
O1 Cd2 2.228 . S
Cd2 O1 2.228 . S
Cd2 O6 2.273 . S
Cd2 O10 2.277 . S
O3 C0 1.160 . S
O3 Cd4 2.203 . S
Cd4 O3 2.203 . S
Cd4 O6 2.411 . S
Cd4 O7 2.333 1_455 S
Cd4 O8 2.352 . S
Cd4 O12 2.277 1_455 S
Cd4 O13 2.356 1_455 S
C5 O10 1.209 1_655 S
C5 O12 1.226 . S
O6 Cd2 2.273 . S
O6 Cd4 2.411 . S
O6 C9 1.320 1_455 S
O7 Cd4 2.333 1_655 S
O7 C9 1.214 . S
O8 Cd4 2.352 . S
O8 C11 1.258 . S
C9 O6 1.320 1_655 S
C9 O7 1.214 . S
O10 Cd2 2.277 . S
O10 C5 1.209 1_455 S
C11 O8 1.258 . S
C11 O13 1.282 1_455 S
O12 Cd4 2.277 1_655 S
O12 C5 1.226 . S
O13 Cd4 2.356 1_655 S
O13 C11 1.282 1_655 S
C14 O15 1.306 . S
C14 O17 1.160 . S
O15 C14 1.306 . S
O15 Cd16 2.228 . S
Cd16 O15 2.228 . S
Cd16 O20 2.273 . S
Cd16 O24 2.277 . S
O17 C14 1.160 . S
O17 Cd18 2.203 . S
Cd18 O17 2.203 . S
Cd18 O20 2.411 . S
Cd18 O21 2.333 . S
Cd18 O22 2.352 . S
Cd18 O26 2.277 . S
Cd18 O27 2.356 . S
C19 O24 1.209 . S
C19 O26 1.226 . S
O20 Cd16 2.273 . S
O20 Cd18 2.411 . S
O20 C23 1.320 . S
O21 Cd18 2.333 . S
O21 C23 1.214 . S
O22 Cd18 2.352 . S
O22 C25 1.258 . S
C23 O20 1.320 . S
C23 O21 1.214 . S
O24 Cd16 2.277 . S
O24 C19 1.209 . S
C25 O22 1.258 . S
C25 O27 1.282 . S
O26 Cd18 2.277 . S
O26 C19 1.226 . S
O27 Cd18 2.356 . S
O27 C25 1.282 . S
C28 O29 1.306 . S
C28 O31 1.160 . S
O29 C28 1.306 . S
O29 Cd30 2.228 . S
Cd30 O29 2.228 . S
Cd30 O34 2.273 . S
Cd30 O38 2.277 . S
O31 C28 1.160 . S
O31 Cd32 2.203 . S
Cd32 O31 2.203 . S
Cd32 O34 2.411 . S
Cd32 O35 2.333 . S
Cd32 O36 2.352 . S
Cd32 O40 2.277 . S
Cd32 O41 2.356 . S
C33 O38 1.209 . S
C33 O40 1.226 . S
O34 Cd30 2.273 . S
O34 Cd32 2.411 . S
O34 C37 1.320 . S
O35 Cd32 2.333 . S
O35 C37 1.214 . S
O36 Cd32 2.352 . S
O36 C39 1.258 . S
C37 O34 1.320 . S
C37 O35 1.214 . S
O38 Cd30 2.277 . S
O38 C33 1.209 . S
C39 O36 1.258 . S
C39 O41 1.282 . S
O40 Cd32 2.277 . S
O40 C33 1.226 . S
O41 Cd32 2.356 . S
O41 C39 1.282 . S
C42 O43 1.306 . S
C42 O45 1.160 . S
O43 C42 1.306 . S
O43 Cd44 2.228 . S
Cd44 O43 2.228 . S
Cd44 O48 2.273 . S
Cd44 O52 2.277 . S
O45 C42 1.160 . S
O45 Cd46 2.203 . S
Cd46 O45 2.203 . S
Cd46 O48 2.411 . S
Cd46 O49 2.333 1_565 S
Cd46 O50 2.352 . S
Cd46 O54 2.277 1_565 S
Cd46 O55 2.356 1_565 S
C47 O52 1.209 1_545 S
C47 O54 1.226 . S
O48 Cd44 2.273 . S
O48 Cd46 2.411 . S
O48 C51 1.320 1_565 S
O49 Cd46 2.333 1_545 S
O49 C51 1.214 . S
O50 Cd46 2.352 . S
O50 C53 1.258 . S
C51 O48 1.320 1_545 S
C51 O49 1.214 . S
O52 Cd44 2.277 . S
O52 C47 1.209 1_565 S
C53 O50 1.258 . S
C53 O55 1.282 1_565 S
O54 Cd46 2.277 1_545 S
O54 C47 1.226 . S
O55 Cd46 2.356 1_545 S
O55 C53 1.282 1_545 S
C56 O57 1.306 1_455 S
C56 O59 1.160 . S
O57 C56 1.306 1_655 S
O57 Cd58 2.228 . S
Cd58 O57 2.228 . S
Cd58 O62 2.273 . S
Cd58 O66 2.277 . S
O59 C56 1.160 . S
O59 Cd60 2.203 1_455 S
Cd60 O59 2.203 1_655 S
Cd60 O62 2.411 . S
Cd60 O63 2.333 . S
Cd60 O64 2.352 . S
Cd60 O68 2.277 1_655 S
Cd60 O69 2.356 . S
C61 O66 1.209 1_455 S
C61 O68 1.226 . S
O62 Cd58 2.273 . S
O62 Cd60 2.411 . S
O62 C65 1.320 . S
O63 Cd60 2.333 . S
O63 C65 1.214 . S
O64 Cd60 2.352 . S
O64 C67 1.258 . S
C65 O62 1.320 . S
C65 O63 1.214 . S
O66 Cd58 2.277 . S
O66 C61 1.209 1_655 S
C67 O64 1.258 . S
C67 O69 1.282 . S
O68 Cd60 2.277 1_455 S
O68 C61 1.226 . S
O69 Cd60 2.356 . S
O69 C67 1.282 . S
C70 O71 1.306 . S
C70 O73 1.160 . S
O71 C70 1.306 . S
O71 Cd72 2.228 . S
Cd72 O71 2.228 . S
Cd72 O76 2.273 . S
Cd72 O80 2.277 . S
O73 C70 1.160 . S
O73 Cd74 2.203 . S
Cd74 O73 2.203 . S
Cd74 O76 2.411 . S
Cd74 O77 2.333 . S
Cd74 O78 2.352 . S
Cd74 O82 2.277 . S
Cd74 O83 2.356 . S
C75 O80 1.209 . S
C75 O82 1.226 . S
O76 Cd72 2.273 . S
O76 Cd74 2.411 . S
O76 C79 1.320 . S
O77 Cd74 2.333 . S
O77 C79 1.214 . S
O78 Cd74 2.352 . S
O78 C81 1.258 . S
C79 O76 1.320 . S
C79 O77 1.214 . S
O80 Cd72 2.277 . S
O80 C75 1.209 . S
C81 O78 1.258 . S
C81 O83 1.282 . S
O82 Cd74 2.277 . S
O82 C75 1.226 . S
O83 Cd74 2.356 . S
O83 C81 1.282 . S
C84 O85 1.306 . S
C84 O87 1.160 . S
O85 C84 1.306 . S
O85 Cd86 2.228 . S
Cd86 O85 2.228 . S
Cd86 O90 2.273 . S
Cd86 O94 2.277 . S
O87 C84 1.160 . S
O87 Cd88 2.203 . S
Cd88 O87 2.203 . S
Cd88 O90 2.411 . S
Cd88 O91 2.333 . S
Cd88 O92 2.352 . S
Cd88 O96 2.277 . S
Cd88 O97 2.356 . S
C89 O94 1.209 . S
C89 O96 1.226 . S
O90 Cd86 2.273 . S
O90 Cd88 2.411 . S
O90 C93 1.320 . S
O91 Cd88 2.333 . S
O91 C93 1.214 . S
O92 Cd88 2.352 . S
O92 C95 1.258 . S
C93 O90 1.320 . S
C93 O91 1.214 . S
O94 Cd86 2.277 . S
O94 C89 1.209 . S
C95 O92 1.258 . S
C95 O97 1.282 . S
O96 Cd88 2.277 . S
O96 C89 1.226 . S
O97 Cd88 2.356 . S
O97 C95 1.282 . S
C98 O99 1.306 1_565 S
C98 O101 1.160 . S
O99 C98 1.306 1_545 S
O99 Cd100 2.228 . S
Cd100 O99 2.228 . S
Cd100 O104 2.273 . S
Cd100 O108 2.277 . S
O101 C98 1.160 . S
O101 Cd102 2.203 1_565 S
Cd102 O101 2.203 1_545 S
Cd102 O104 2.411 . S
Cd102 O105 2.333 . S
Cd102 O106 2.352 . S
Cd102 O110 2.277 1_545 S
Cd102 O111 2.356 . S
C103 O108 1.209 1_565 S
C103 O110 1.226 . S
O104 Cd100 2.273 . S
O104 Cd102 2.411 . S
O104 C107 1.320 . S
O105 Cd102 2.333 . S
O105 C107 1.214 . S
O106 Cd102 2.352 . S
O106 C109 1.258 . S
C107 O104 1.320 . S
C107 O105 1.214 . S
O108 Cd100 2.277 . S
O108 C103 1.209 1_545 S
C109 O106 1.258 . S
C109 O111 1.282 . S
O110 Cd102 2.277 1_565 S
O110 C103 1.226 . S
O111 Cd102 2.356 . S
O111 C109 1.282 . S
H112 C118 0.930 . S
H113 C121 0.930 . S
H114 C122 0.930 . S
H115 C123 0.930 . S
H116 C126 0.930 . S
H117 C127 0.930 . S
C118 H112 0.930 . S
C118 C119 1.355 . S
C118 C120 1.415 1_556 S
C119 C118 1.355 . S
C119 C121 1.419 1_655 S
C120 C118 1.415 1_554 S
C120 C125 1.425 1_654 S
C120 C127 1.409 . S
C121 H113 0.930 . S
C121 C119 1.419 1_455 S
C121 C122 1.362 . S
C122 H114 0.930 . S
C122 C121 1.362 . S
C122 C125 1.409 . S
C123 H115 0.930 . S
C123 C124 1.355 . S
C123 C125 1.415 1_554 S
C124 C123 1.355 . S
C124 C126 1.419 1_455 S
C125 C120 1.425 1_456 S
C125 C122 1.409 . S
C125 C123 1.415 1_556 S
C126 H116 0.930 . S
C126 C124 1.419 1_655 S
C126 C127 1.362 . S
C127 H117 0.930 . S
C127 C120 1.409 . S
C127 C126 1.362 . S
H128 C134 0.930 . S
H129 C137 0.930 . S
H130 C138 0.930 . S
H131 C139 0.930 . S
H132 C142 0.930 . S
H133 C143 0.930 . S
C134 H128 0.930 . S
C134 C135 1.355 . S
C134 C136 1.415 . S
C135 C134 1.355 . S
C135 C137 1.419 . S
C136 C134 1.415 . S
C136 C141 1.425 . S
C136 C143 1.409 . S
C137 H129 0.930 . S
C137 C135 1.419 . S
C137 C138 1.362 . S
C138 H130 0.930 . S
C138 C137 1.362 . S
C138 C141 1.409 . S
C139 H131 0.930 . S
C139 C140 1.355 . S
C139 C141 1.415 . S
C140 C139 1.355 . S
C140 C142 1.419 . S
C141 C136 1.425 . S
C141 C138 1.409 . S
C141 C139 1.415 . S
C142 H132 0.930 . S
C142 C140 1.419 . S
C142 C143 1.362 . S
C143 H133 0.930 . S
C143 C136 1.409 . S
C143 C142 1.362 . S
H144 C150 0.930 . S
H145 C153 0.930 . S
H146 C154 0.930 . S
H147 C155 0.930 . S
H148 C158 0.930 . S
H149 C159 0.930 . S
C150 H144 0.930 . S
C150 C151 1.355 . S
C150 C152 1.415 1_565 S
C151 C150 1.355 . S
C151 C153 1.419 . S
C152 C150 1.415 1_545 S
C152 C157 1.425 1_544 S
C152 C159 1.409 . S
C153 H145 0.930 . S
C153 C151 1.419 . S
C153 C154 1.362 1_554 S
C154 H146 0.930 . S
C154 C153 1.362 1_556 S
C154 C157 1.409 . S
C155 H147 0.930 . S
C155 C156 1.355 . S
C155 C157 1.415 1_545 S
C156 C155 1.355 . S
C156 C158 1.419 . S
C157 C152 1.425 1_566 S
C157 C154 1.409 . S
C157 C155 1.415 1_565 S
C158 H148 0.930 . S
C158 C156 1.419 . S
C158 C159 1.362 1_556 S
C159 H149 0.930 . S
C159 C152 1.409 . S
C159 C158 1.362 1_554 S
H160 C166 0.928 1_565 S
H161 C169 0.930 . S
H162 C170 0.930 . S
H163 C171 0.930 . S
H164 C174 0.930 . S
H165 C175 0.930 . S
C166 H160 0.928 1_545 S
C166 C167 1.355 . S
C166 C168 1.415 1_655 S
C167 C166 1.355 . S
C167 C169 1.419 . S
C168 C166 1.415 1_455 S
C168 C173 1.425 1_455 S
C168 C175 1.409 1_545 S
C169 H161 0.930 . S
C169 C167 1.419 . S
C169 C170 1.362 . S
C170 H162 0.930 . S
C170 C169 1.362 . S
C170 C173 1.409 . S
C171 H163 0.930 . S
C171 C172 1.355 1_545 S
C171 C173 1.415 1_455 S
C172 C171 1.355 1_565 S
C172 C174 1.419 . S
C173 C168 1.425 1_655 S
C173 C170 1.409 . S
C173 C171 1.415 1_655 S
C174 H164 0.930 . S
C174 C172 1.419 . S
C174 C175 1.362 . S
C175 H165 0.930 . S
C175 C168 1.409 1_565 S
C175 C174 1.362 . S
H176 C182 0.930 . S
H177 C185 0.930 . S
H178 C186 0.930 . S
H179 C187 0.930 . S
H180 C190 0.930 . S
H181 C191 0.930 . S
C182 H176 0.930 . S
C182 C183 1.355 . S
C182 C184 1.415 . S
C183 C182 1.355 . S
C183 C185 1.419 . S
C184 C182 1.415 . S
C184 C189 1.425 . S
C184 C191 1.409 . S
C185 H177 0.930 . S
C185 C183 1.419 . S
C185 C186 1.362 . S
C186 H178 0.930 . S
C186 C185 1.362 . S
C186 C189 1.409 . S
C187 H179 0.930 . S
C187 C188 1.355 . S
C187 C189 1.415 . S
C188 C187 1.355 . S
C188 C190 1.419 . S
C189 C184 1.425 . S
C189 C186 1.409 . S
C189 C187 1.415 . S
C190 H180 0.930 . S
C190 C188 1.419 . S
C190 C191 1.362 . S
C191 H181 0.930 . S
C191 C184 1.409 . S
C191 C190 1.362 . S
H192 C198 0.930 . S
H193 C201 0.930 . S
H194 C202 0.930 . S
H195 C203 0.930 . S
H196 C206 0.930 . S
H197 C207 0.930 . S
C198 H192 0.930 . S
C198 C199 1.355 . S
C198 C200 1.415 . S
C199 C198 1.355 . S
C199 C201 1.419 . S
C200 C198 1.415 . S
C200 C205 1.425 . S
C200 C207 1.409 . S
C201 H193 0.930 . S
C201 C199 1.419 . S
C201 C202 1.362 . S
C202 H194 0.930 . S
C202 C201 1.362 . S
C202 C205 1.409 . S
C203 H195 0.930 . S
C203 C204 1.355 . S
C203 C205 1.415 . S
C204 C203 1.355 . S
C204 C206 1.419 . S
C205 C200 1.425 . S
C205 C202 1.409 . S
C205 C203 1.415 . S
C206 H196 0.930 . S
C206 C204 1.419 . S
C206 C207 1.362 . S
C207 H197 0.930 . S
C207 C200 1.409 . S
C207 C206 1.362 . S
H208 C214 0.930 . S
H209 C217 0.930 . S
H210 C218 0.930 . S
H211 C219 0.930 . S
H212 C222 0.930 . S
H213 C223 0.930 . S
C214 H208 0.930 . S
C214 C215 1.355 . S
C214 C216 1.415 . S
C215 C214 1.355 . S
C215 C217 1.419 . S
C216 C214 1.415 . S
C216 C221 1.425 . S
C216 C223 1.409 . S
C217 H209 0.930 . S
C217 C215 1.419 . S
C217 C218 1.362 . S
C218 H210 0.930 . S
C218 C217 1.362 . S
C218 C221 1.409 . S
C219 H211 0.930 . S
C219 C220 1.355 . S
C219 C221 1.415 . S
C220 C219 1.355 . S
C220 C222 1.419 . S
C221 C216 1.425 . S
C221 C218 1.409 . S
C221 C219 1.415 . S
C222 H212 0.930 . S
C222 C220 1.419 . S
C222 C223 1.362 . S
C223 H213 0.930 . S
C223 C216 1.409 . S
C223 C222 1.362 . S
H224 C230 0.930 . S
H225 C233 0.930 . S
H226 C234 0.930 . S
H227 C235 0.930 . S
H228 C238 0.930 . S
H229 C239 0.930 . S
C230 H224 0.930 . S
C230 C231 1.355 . S
C230 C232 1.415 . S
C231 C230 1.355 . S
C231 C233 1.419 . S
C232 C230 1.415 . S
C232 C237 1.425 . S
C232 C239 1.409 . S
C233 H225 0.930 . S
C233 C231 1.419 . S
C233 C234 1.362 . S
C234 H226 0.930 . S
C234 C233 1.362 . S
C234 C237 1.409 . S
C235 H227 0.930 . S
C235 C236 1.355 . S
C235 C237 1.415 . S
C236 C235 1.355 . S
C236 C238 1.419 . S
C237 C232 1.425 . S
C237 C234 1.409 . S
C237 C235 1.415 . S
C238 H228 0.930 . S
C238 C236 1.419 . S
C238 C239 1.362 . S
C239 H229 0.930 . S
C239 C232 1.409 . S
C239 C238 1.362 . S
H240 C246 0.930 . S
H241 C249 0.930 . S
H242 C250 0.930 . S
H243 C251 0.930 . S
H244 C254 0.930 . S
H245 C255 0.930 . S
C246 H240 0.930 . S
C246 C247 1.355 . S
C246 C248 1.415 . S
C247 C246 1.355 . S
C247 C249 1.419 . S
C248 C246 1.415 . S
C248 C253 1.425 . S
C248 C255 1.409 . S
C249 H241 0.930 . S
C249 C247 1.419 . S
C249 C250 1.362 . S
C250 H242 0.930 . S
C250 C249 1.362 . S
C250 C253 1.409 . S
C251 H243 0.930 . S
C251 C252 1.355 . S
C251 C253 1.415 . S
C252 C251 1.355 . S
C252 C254 1.419 . S
C253 C248 1.425 . S
C253 C250 1.409 . S
C253 C251 1.415 . S
C254 H244 0.930 . S
C254 C252 1.419 . S
C254 C255 1.362 . S
C255 H245 0.930 . S
C255 C248 1.409 . S
C255 C254 1.362 . S
H256 C262 0.930 . S
H257 C265 0.930 . S
H258 C266 0.930 . S
H259 C267 0.930 . S
H260 C270 0.930 . S
H261 C271 0.930 . S
C262 H256 0.930 . S
C262 C263 1.355 . S
C262 C264 1.415 . S
C263 C262 1.355 . S
C263 C265 1.419 . S
C264 C262 1.415 . S
C264 C269 1.425 . S
C264 C271 1.409 . S
C265 H257 0.930 . S
C265 C263 1.419 . S
C265 C266 1.362 . S
C266 H258 0.930 . S
C266 C265 1.362 . S
C266 C269 1.409 . S
C267 H259 0.930 . S
C267 C268 1.355 . S
C267 C269 1.415 . S
C268 C267 1.355 . S
C268 C270 1.419 . S
C269 C264 1.425 . S
C269 C266 1.409 . S
C269 C267 1.415 . S
C270 H260 0.930 . S
C270 C268 1.419 . S
C270 C271 1.362 . S
C271 H261 0.930 . S
C271 C264 1.409 . S
C271 C270 1.362 . S
H272 C278 0.930 . S
H273 C281 0.930 . S
H274 C282 0.930 . S
H275 C283 0.930 . S
H276 C286 0.930 . S
H277 C287 0.930 . S
C278 H272 0.930 . S
C278 C279 1.355 . S
C278 C280 1.415 . S
C279 C278 1.355 . S
C279 C281 1.419 . S
C280 C278 1.415 . S
C280 C285 1.425 . S
C280 C287 1.409 1_565 S
C281 H273 0.930 . S
C281 C279 1.419 . S
C281 C282 1.362 . S
C282 H274 0.930 . S
C282 C281 1.362 . S
C282 C285 1.409 . S
C283 H275 0.930 . S
C283 C284 1.355 . S
C283 C285 1.415 . S
C284 C283 1.355 . S
C284 C286 1.419 1_565 S
C285 C280 1.425 . S
C285 C282 1.409 . S
C285 C283 1.415 . S
C286 H276 0.930 . S
C286 C284 1.419 1_545 S
C286 C287 1.362 . S
C287 H277 0.930 . S
C287 C280 1.409 1_545 S
C287 C286 1.362 . S
H288 C294 0.930 . S
H289 C297 0.930 1_655 S
H290 C298 0.930 . S
H291 C299 0.930 . S
H292 C302 0.930 . S
H293 C303 0.930 . S
C294 H288 0.930 . S
C294 C295 1.355 . S
C294 C296 1.415 . S
C295 C294 1.355 . S
C295 C297 1.419 . S
C296 C294 1.415 . S
C296 C301 1.425 . S
C296 C303 1.409 . S
C297 H289 0.930 1_455 S
C297 C295 1.419 . S
C297 C298 1.362 . S
C298 H290 0.930 . S
C298 C297 1.362 . S
C298 C301 1.409 . S
C299 H291 0.930 . S
C299 C300 1.355 . S
C299 C301 1.415 . S
C300 C299 1.355 . S
C300 C302 1.419 . S
C301 C296 1.425 . S
C301 C298 1.409 . S
C301 C299 1.415 . S
C302 H292 0.930 . S
C302 C300 1.419 . S
C302 C303 1.362 . S
C303 H293 0.930 . S
C303 C296 1.409 . S
C303 C302 1.362 . S
H304 C310 0.930 . S
H305 C313 0.930 . S
H306 C314 0.930 . S
H307 C315 0.930 . S
H308 C318 0.930 . S
H309 C319 0.930 . S
C310 H304 0.930 . S
C310 C311 1.355 . S
C310 C312 1.415 . S
C311 C310 1.355 . S
C311 C313 1.419 . S
C312 C310 1.415 . S
C312 C317 1.425 . S
C312 C319 1.409 . S
C313 H305 0.930 . S
C313 C311 1.419 . S
C313 C314 1.362 . S
C314 H306 0.930 . S
C314 C313 1.362 . S
C314 C317 1.409 . S
C315 H307 0.930 . S
C315 C316 1.355 . S
C315 C317 1.415 . S
C316 C315 1.355 . S
C316 C318 1.419 . S
C317 C312 1.425 . S
C317 C314 1.409 . S
C317 C315 1.415 . S
C318 H308 0.930 . S
C318 C316 1.419 . S
C318 C319 1.362 . S
C319 H309 0.930 . S
C319 C312 1.409 . S
C319 C318 1.362 . S
H320 C326 0.930 . S
H321 C329 0.930 . S
H322 C330 0.930 . S
H323 C331 0.930 . S
H324 C334 0.930 . S
H325 C335 0.930 . S
C326 H320 0.930 . S
C326 C327 1.355 . S
C326 C328 1.415 . S
C327 C326 1.355 . S
C327 C329 1.419 . S
C328 C326 1.415 . S
C328 C333 1.425 . S
C328 C335 1.409 . S
C329 H321 0.930 . S
C329 C327 1.419 . S
C329 C330 1.362 . S
C330 H322 0.930 . S
C330 C329 1.362 . S
C330 C333 1.409 . S
C331 H323 0.930 . S
C331 C332 1.355 . S
C331 C333 1.415 . S
C332 C331 1.355 . S
C332 C334 1.419 . S
C333 C328 1.425 . S
C333 C330 1.409 . S
C333 C331 1.415 . S
C334 H324 0.930 . S
C334 C332 1.419 . S
C334 C335 1.362 . S
C335 H325 0.930 . S
C335 C328 1.409 . S
C335 C334 1.362 . S
H336 C342 0.930 . S
H337 C345 0.930 . S
H338 C346 0.930 . S
H339 C347 0.930 . S
H340 C350 0.933 . S
H341 C351 0.930 1_565 S
C342 H336 0.930 . S
C342 C343 1.355 . S
C342 C344 1.415 . S
C343 C342 1.355 . S
C343 C345 1.419 . S
C344 C342 1.415 . S
C344 C349 1.425 . S
C344 C351 1.409 . S
C345 H337 0.930 . S
C345 C343 1.419 . S
C345 C346 1.362 . S
C346 H338 0.930 . S
C346 C345 1.362 . S
C346 C349 1.409 . S
C347 H339 0.930 . S
C347 C348 1.355 . S
C347 C349 1.415 . S
C348 C347 1.355 . S
C348 C350 1.417 1_545 S
C349 C344 1.425 . S
C349 C346 1.409 . S
C349 C347 1.415 . S
C350 H340 0.933 . S
C350 C348 1.417 1_565 S
C350 C351 1.361 1_565 S
C351 H341 0.930 1_545 S
C351 C344 1.409 . S
C351 C350 1.361 1_545 S
H352 C358 0.930 . S
H353 C361 0.930 1_455 S
H354 C362 0.930 1_455 S
H355 C363 0.930 . S
H356 C366 0.930 . S
H357 C367 0.930 . S
C358 H352 0.930 . S
C358 C359 1.355 . S
C358 C360 1.415 . S
C359 C358 1.355 . S
C359 C361 1.419 . S
C360 C358 1.415 . S
C360 C365 1.425 . S
C360 C367 1.409 . S
C361 H353 0.930 1_655 S
C361 C359 1.419 . S
C361 C362 1.362 . S
C362 H354 0.930 1_655 S
C362 C361 1.362 . S
C362 C365 1.409 . S
C363 H355 0.930 . S
C363 C364 1.355 . S
C363 C365 1.415 . S
C364 C363 1.355 . S
C364 C366 1.419 . S
C365 C360 1.425 . S
C365 C362 1.409 . S
C365 C363 1.415 . S
C366 H356 0.930 . S
C366 C364 1.419 . S
C366 C367 1.362 . S
C367 H357 0.930 . S
C367 C360 1.409 . S
C367 C366 1.362 . S
C119 C67 1.585 . S
C124 C11 1.572 . S
C135 C25 1.607 . S
C140 C81 1.609 . S
C151 C39 1.606 . S
C156 C95 1.609 . S
C167 C109 1.607 . S
C172 C53 1.601 . S
C183 C0 1.469 . S
C188 C28 1.458 . S
C199 C14 1.489 . S
C204 C42 1.485 . S
C215 C93 1.380 . S
C220 C65 1.391 . S
C231 C79 1.412 . S
C236 C107 1.443 . S
C247 C75 1.111 . S
C252 C9 1.141 . S
C263 C23 1.070 . S
C268 C89 1.141 . S
C279 C37 1.061 . S
C284 C103 1.118 . S
C295 C61 1.132 . S
C300 C51 1.057 . S
C311 C56 1.149 . S
C316 C19 1.155 . S
C327 C70 1.139 . S
C332 C33 1.158 . S
C343 C84 1.111 . S
C348 C47 1.113 . S
C359 C5 1.154 . S
C364 C98 1.103 . S
