# Generated by pormake.
# Topology lcy-a, (4)-cn, num edge types: 1
# Building blocks:
#     Node 0, Type 0, BuildingBlock: KUFVIS_clean_sbu_0, # of connection points: 4
#     Node 1, Type 0, BuildingBlock: KUFVIS_clean_sbu_0, # of connection points: 4
#     Node 2, Type 0, BuildingBlock: KUFVIS_clean_sbu_0, # of connection points: 4
#     Node 3, Type 0, BuildingBlock: KUFVIS_clean_sbu_0, # of connection points: 4
#     Node 4, Type 0, BuildingBlock: KUFVIS_clean_sbu_0, # of connection points: 4
#     Node 5, Type 0, BuildingBlock: KUFVIS_clean_sbu_0, # of connection points: 4
#     Node 6, Type 0, BuildingBlock: KUFVIS_clean_sbu_0, # of connection points: 4
#     Node 7, Type 0, BuildingBlock: KUFVIS_clean_sbu_0, # of connection points: 4
#     Node 8, Type 0, BuildingBlock: KUFVIS_clean_sbu_0, # of connection points: 4
#     Node 9, Type 0, BuildingBlock: KUFVIS_clean_sbu_0, # of connection points: 4
#     Node 10, Type 0, BuildingBlock: KUFVIS_clean_sbu_0, # of connection points: 4
#     Node 11, Type 0, BuildingBlock: KUFVIS_clean_sbu_0, # of connection points: 4
#     Node 12, Type 0, BuildingBlock: KUFVIS_clean_sbu_0, # of connection points: 4
#     Node 13, Type 0, BuildingBlock: KUFVIS_clean_sbu_0, # of connection points: 4
#     Node 14, Type 0, BuildingBlock: KUFVIS_clean_sbu_0, # of connection points: 4
#     Node 15, Type 0, BuildingBlock: KUFVIS_clean_sbu_0, # of connection points: 4
#     Node 16, Type 0, BuildingBlock: KUFVIS_clean_sbu_0, # of connection points: 4
#     Node 17, Type 0, BuildingBlock: KUFVIS_clean_sbu_0, # of connection points: 4
#     Node 18, Type 0, BuildingBlock: KUFVIS_clean_sbu_0, # of connection points: 4
#     Node 19, Type 0, BuildingBlock: KUFVIS_clean_sbu_0, # of connection points: 4
#     Node 20, Type 0, BuildingBlock: KUFVIS_clean_sbu_0, # of connection points: 4
#     Node 21, Type 0, BuildingBlock: KUFVIS_clean_sbu_0, # of connection points: 4
#     Node 22, Type 0, BuildingBlock: KUFVIS_clean_sbu_0, # of connection points: 4
#     Node 23, Type 0, BuildingBlock: KUFVIS_clean_sbu_0, # of connection points: 4
#     Edge 24, Type (0, 0), BuildingBlock: UVAHIK_clean_linker_0, # of connection points: 2
#     Edge 25, Type (0, 0), BuildingBlock: UVAHIK_clean_linker_0, # of connection points: 2
#     Edge 26, Type (0, 0), BuildingBlock: UVAHIK_clean_linker_0, # of connection points: 2
#     Edge 27, Type (0, 0), BuildingBlock: UVAHIK_clean_linker_0, # of connection points: 2
#     Edge 28, Type (0, 0), BuildingBlock: UVAHIK_clean_linker_0, # of connection points: 2
#     Edge 29, Type (0, 0), BuildingBlock: UVAHIK_clean_linker_0, # of connection points: 2
#     Edge 30, Type (0, 0), BuildingBlock: UVAHIK_clean_linker_0, # of connection points: 2
#     Edge 31, Type (0, 0), BuildingBlock: UVAHIK_clean_linker_0, # of connection points: 2
#     Edge 32, Type (0, 0), BuildingBlock: UVAHIK_clean_linker_0, # of connection points: 2
#     Edge 33, Type (0, 0), BuildingBlock: UVAHIK_clean_linker_0, # of connection points: 2
#     Edge 34, Type (0, 0), BuildingBlock: UVAHIK_clean_linker_0, # of connection points: 2
#     Edge 35, Type (0, 0), BuildingBlock: UVAHIK_clean_linker_0, # of connection points: 2
#     Edge 36, Type (0, 0), BuildingBlock: UVAHIK_clean_linker_0, # of connection points: 2
#     Edge 37, Type (0, 0), BuildingBlock: UVAHIK_clean_linker_0, # of connection points: 2
#     Edge 38, Type (0, 0), BuildingBlock: UVAHIK_clean_linker_0, # of connection points: 2
#     Edge 39, Type (0, 0), BuildingBlock: UVAHIK_clean_linker_0, # of connection points: 2
#     Edge 40, Type (0, 0), BuildingBlock: UVAHIK_clean_linker_0, # of connection points: 2
#     Edge 41, Type (0, 0), BuildingBlock: UVAHIK_clean_linker_0, # of connection points: 2
#     Edge 42, Type (0, 0), BuildingBlock: UVAHIK_clean_linker_0, # of connection points: 2
#     Edge 43, Type (0, 0), BuildingBlock: UVAHIK_clean_linker_0, # of connection points: 2
#     Edge 44, Type (0, 0), BuildingBlock: UVAHIK_clean_linker_0, # of connection points: 2
#     Edge 45, Type (0, 0), BuildingBlock: UVAHIK_clean_linker_0, # of connection points: 2
#     Edge 46, Type (0, 0), BuildingBlock: UVAHIK_clean_linker_0, # of connection points: 2
#     Edge 47, Type (0, 0), BuildingBlock: UVAHIK_clean_linker_0, # of connection points: 2
#     Edge 48, Type (0, 0), BuildingBlock: UVAHIK_clean_linker_0, # of connection points: 2
#     Edge 49, Type (0, 0), BuildingBlock: UVAHIK_clean_linker_0, # of connection points: 2
#     Edge 50, Type (0, 0), BuildingBlock: UVAHIK_clean_linker_0, # of connection points: 2
#     Edge 51, Type (0, 0), BuildingBlock: UVAHIK_clean_linker_0, # of connection points: 2
#     Edge 52, Type (0, 0), BuildingBlock: UVAHIK_clean_linker_0, # of connection points: 2
#     Edge 53, Type (0, 0), BuildingBlock: UVAHIK_clean_linker_0, # of connection points: 2
#     Edge 54, Type (0, 0), BuildingBlock: UVAHIK_clean_linker_0, # of connection points: 2
#     Edge 55, Type (0, 0), BuildingBlock: UVAHIK_clean_linker_0, # of connection points: 2
#     Edge 56, Type (0, 0), BuildingBlock: UVAHIK_clean_linker_0, # of connection points: 2
#     Edge 57, Type (0, 0), BuildingBlock: UVAHIK_clean_linker_0, # of connection points: 2
#     Edge 58, Type (0, 0), BuildingBlock: UVAHIK_clean_linker_0, # of connection points: 2
#     Edge 59, Type (0, 0), BuildingBlock: UVAHIK_clean_linker_0, # of connection points: 2
#     Edge 60, Type (0, 0), BuildingBlock: UVAHIK_clean_linker_0, # of connection points: 2
#     Edge 61, Type (0, 0), BuildingBlock: UVAHIK_clean_linker_0, # of connection points: 2
#     Edge 62, Type (0, 0), BuildingBlock: UVAHIK_clean_linker_0, # of connection points: 2
#     Edge 63, Type (0, 0), BuildingBlock: UVAHIK_clean_linker_0, # of connection points: 2
#     Edge 64, Type (0, 0), BuildingBlock: UVAHIK_clean_linker_0, # of connection points: 2
#     Edge 65, Type (0, 0), BuildingBlock: UVAHIK_clean_linker_0, # of connection points: 2
#     Edge 66, Type (0, 0), BuildingBlock: UVAHIK_clean_linker_0, # of connection points: 2
#     Edge 67, Type (0, 0), BuildingBlock: UVAHIK_clean_linker_0, # of connection points: 2
#     Edge 68, Type (0, 0), BuildingBlock: UVAHIK_clean_linker_0, # of connection points: 2
#     Edge 69, Type (0, 0), BuildingBlock: UVAHIK_clean_linker_0, # of connection points: 2
#     Edge 70, Type (0, 0), BuildingBlock: UVAHIK_clean_linker_0, # of connection points: 2
#     Edge 71, Type (0, 0), BuildingBlock: UVAHIK_clean_linker_0, # of connection points: 2
# Relax obj value: 0.407
# Max RMSD: 0.181
# Mean RMSD: 0.181
data_MOF--net-lcy-a--node1-KUFVIS_clean_sbu_0--edge1-UVAHIK_clean_linker_0
_symmetry_space_group_name_H-M    P1
_symmetry_Int_Tables_number       1
_symmetry_cell_setting            triclinic
loop_
_symmetry_equiv_pos_as_xyz
'x, y, z'
_cell_length_a     71.710761
_cell_length_b     71.682954
_cell_length_c     71.718309
_cell_angle_alpha  90.027401
_cell_angle_beta   89.98059
_cell_angle_gamma 89.990924
loop_
_atom_site_label
_atom_site_type_symbol
_atom_site_fract_x
_atom_site_fract_y
_atom_site_fract_z
_atom_type_partial_charge
Mn0 Mn 0.21203 0.2617 0.415 0.0
Mn1 Mn 0.24781 0.24656 0.44164 0.0
C2 C 0.22659 0.2339 0.40813 0.0
C3 C 0.19982 0.27959 0.39099 0.0
C4 C 0.20771 0.24392 0.45351 0.0
O5 O 0.21979 0.28504 0.42887 0.0
O6 O 0.24344 0.27367 0.44612 0.0
C7 C 0.27783 0.268 0.42309 0.0
N8 N 0.27061 0.25134 0.42868 0.0
C9 C 0.29724 0.23473 0.41681 0.0
C10 C 0.30502 0.25172 0.41102 0.0
C11 C 0.29524 0.26841 0.41412 0.0
C12 C 0.27984 0.23519 0.42566 0.0
H13 H 0.27037 0.28087 0.42544 0.0
C14 C 0.23275 0.28703 0.44086 0.0
O15 O 0.18972 0.27465 0.40515 0.0
O16 O 0.21703 0.27388 0.39063 0.0
N17 N 0.25382 0.22072 0.43859 0.0
C18 C 0.24388 0.20546 0.44399 0.0
C19 C 0.25146 0.18759 0.44133 0.0
C20 C 0.26924 0.18561 0.43334 0.0
C21 C 0.27928 0.20153 0.42803 0.0
C22 C 0.27101 0.21897 0.43102 0.0
H23 H 0.23023 0.20692 0.45017 0.0
O24 O 0.2097 0.237 0.40236 0.0
O25 O 0.23442 0.2472 0.41769 0.0
O26 O 0.20113 0.2514 0.43886 0.0
O27 O 0.22501 0.24072 0.45613 0.0
C28 C 0.29706 0.20079 0.41969 0.0
C29 C 0.30597 0.21736 0.41395 0.0
H30 H 0.31843 0.25209 0.40407 0.0
H31 H 0.30111 0.28157 0.40962 0.0
H32 H 0.24361 0.17536 0.44543 0.0
H33 H 0.275 0.1718 0.43123 0.0
H34 H 0.30395 0.18753 0.41745 0.0
H35 H 0.31948 0.21657 0.40725 0.0
Mn36 Mn 0.98416 0.97045 0.65682 0.0
Mn37 Mn -0.00042 0.98817 0.69751 0.0
C38 C 0.99349 0.00114 0.65842 0.0
C39 C 0.96002 0.96275 0.63682 0.0
C40 C 0.02203 0.96156 0.67341 0.0
O41 O 0.97498 0.95183 0.67611 0.0
O42 O 0.98248 0.96696 0.7027 0.0
C43 C 0.96425 0.003 0.71289 0.0
N44 N 0.98213 0.00588 0.70715 0.0
C45 C 0.98004 0.03867 0.71408 0.0
C46 C 0.96166 0.03603 0.72019 0.0
C47 C 0.95372 0.01812 0.71957 0.0
C48 C 0.98991 0.02305 0.70772 0.0
H49 H 0.95804 0.98929 0.71233 0.0
C50 C 0.97432 0.95373 0.69381 0.0
O51 O 0.97598 0.95428 0.63594 0.0
O52 O 0.95796 0.97563 0.64939 0.0
N53 N 0.01584 0.00908 0.69405 0.0
C54 C 0.03337 0.00945 0.68672 0.0
C55 C 0.04309 0.02644 0.68585 0.0
C56 C 0.03471 0.04284 0.69254 0.0
C57 C 0.01671 0.0421 0.70014 0.0
C58 C 0.00779 0.02473 0.70085 0.0
H59 H 0.03986 0.99692 0.68147 0.0
O60 O 0.99293 0.99264 0.64244 0.0
O61 O 0.98842 0.99144 0.67282 0.0
O62 O 0.01074 0.9613 0.65976 0.0
O63 O 0.01878 0.97036 0.68857 0.0
C64 C 0.00714 0.05796 0.70671 0.0
C65 C 0.98882 0.05625 0.71367 0.0
H66 H 0.95344 0.04768 0.72521 0.0
H67 H 0.93951 0.01598 0.72417 0.0
H68 H 0.05697 0.02691 0.67993 0.0
H69 H 0.04217 0.05596 0.69164 0.0
H70 H 0.01365 0.07159 0.70624 0.0
H71 H 0.98152 0.06859 0.71845 0.0
Mn72 Mn 0.27589 0.71116 0.91672 0.0
Mn73 Mn 0.26434 0.74041 0.95171 0.0
C74 C 0.25378 0.73389 0.91194 0.0
C75 C 0.27218 0.68292 0.90125 0.0
C76 C 0.29997 0.74383 0.92918 0.0
O77 O 0.28608 0.69826 0.93961 0.0
O78 O 0.27573 0.71735 0.96237 0.0
C79 C 0.23466 0.71797 0.96961 0.0
N80 N 0.24023 0.73403 0.96113 0.0
C81 C 0.20943 0.74714 0.96368 0.0
C82 C 0.20341 0.7308 0.97257 0.0
C83 C 0.21608 0.71615 0.97553 0.0
C84 C 0.22816 0.74824 0.95825 0.0
H85 H 0.24431 0.70661 0.9718 0.0
C86 C 0.28388 0.70242 0.95676 0.0
O87 O 0.28757 0.69238 0.89998 0.0
O88 O 0.25908 0.68975 0.91171 0.0
N89 N 0.25287 0.76299 0.94324 0.0
C90 C 0.26063 0.77739 0.93355 0.0
C91 C 0.24964 0.79293 0.92894 0.0
C92 C 0.23083 0.79354 0.93437 0.0
C93 C 0.2232 0.77864 0.94447 0.0
C94 C 0.23488 0.7636 0.94884 0.0
H95 H 0.27504 0.77695 0.92923 0.0
O96 O 0.26239 0.7264 0.89788 0.0
O97 O 0.25819 0.72762 0.92836 0.0
O98 O 0.29662 0.73045 0.91801 0.0
O99 O 0.28913 0.7484 0.94257 0.0
C100 C 0.20437 0.77795 0.95003 0.0
C101 C 0.19749 0.76222 0.95963 0.0
H102 H 0.18906 0.72927 0.97701 0.0
H103 H 0.21152 0.70344 0.98228 0.0
H104 H 0.25563 0.80436 0.92112 0.0
H105 H 0.22235 0.80546 0.9306 0.0
H106 H 0.19499 0.78935 0.94679 0.0
H107 H 0.18293 0.76175 0.96363 0.0
Mn108 Mn 0.53591 0.05166 0.1292 0.0
Mn109 Mn 0.51386 0.02823 0.16347 0.0
C110 C 0.51639 0.02716 0.12185 0.0
C111 C 0.56269 0.05603 0.1116 0.0
C112 C 0.50238 0.0668 0.15018 0.0
O113 O 0.55013 0.05902 0.1525 0.0
O114 O 0.53672 0.04019 0.17382 0.0
C115 C 0.54199 -0.00102 0.17116 0.0
N116 N 0.52431 0.00384 0.16619 0.0
C117 C 0.51524 0.97163 0.16347 0.0
C118 C 0.53331 0.96629 0.16869 0.0
C119 C 0.54674 0.98003 0.17252 0.0
C120 C 0.51128 0.99074 0.16247 0.0
H121 H 0.5524 0.00948 0.17401 0.0
C122 C 0.54928 0.05188 0.16876 0.0
O123 O 0.55079 0.0695 0.11393 0.0
O124 O 0.55879 0.04005 0.11913 0.0
N125 N 0.49182 0.01567 0.1551 0.0
C126 C 0.47541 0.02312 0.1491 0.0
C127 C 0.46066 0.01122 0.14414 0.0
C128 C 0.46292 0.9918 0.14544 0.0
C129 C 0.47991 0.98445 0.15174 0.0
C130 C 0.49405 0.997 0.15666 0.0
H131 H 0.4736 0.03802 0.14796 0.0
O132 O 0.5206 0.03951 0.10929 0.0
O133 O 0.52392 0.02947 0.13814 0.0
O134 O 0.51402 0.06808 0.13683 0.0
O135 O 0.50175 0.05293 0.16137 0.0
C136 C 0.48348 0.96517 0.15297 0.0
C137 C 0.50114 0.95876 0.15882 0.0
H138 H 0.53707 0.95168 0.16962 0.0
H139 H 0.56075 0.97601 0.17645 0.0
H140 H 0.44762 0.017 0.13923 0.0
H141 H 0.45159 0.98267 0.14142 0.0
H142 H 0.47284 0.95513 0.14918 0.0
H143 H 0.50381 0.9439 0.15942 0.0
Mn144 Mn 0.70951 0.21324 0.60287 0.0
Mn145 Mn 0.73226 0.23739 0.56948 0.0
C146 C 0.72926 0.23728 0.61096 0.0
C147 C 0.70825 0.18721 0.62206 0.0
C148 C 0.69122 0.24258 0.57831 0.0
O149 O 0.70702 0.19677 0.58 0.0
O150 O 0.72471 0.21267 0.5594 0.0
C151 C 0.76589 0.21362 0.56652 0.0
N152 N 0.75804 0.23062 0.56974 0.0
C153 C 0.78812 0.24461 0.57482 0.0
C154 C 0.79654 0.22728 0.57143 0.0
C155 C 0.78537 0.21171 0.56731 0.0
C156 C 0.76865 0.24566 0.57384 0.0
H157 H 0.75735 0.20161 0.56342 0.0
C158 C 0.71477 0.19857 0.5641 0.0
O159 O 0.69318 0.19625 0.61765 0.0
O160 O 0.72392 0.19343 0.61554 0.0
N161 N 0.74054 0.26152 0.57737 0.0
C162 C 0.73021 0.27711 0.58081 0.0
C163 C 0.73927 0.29389 0.58531 0.0
C164 C 0.75884 0.2945 0.5861 0.0
C165 C 0.76918 0.27834 0.58229 0.0
C166 C 0.75939 0.26207 0.5777 0.0
H167 H 0.71518 0.27673 0.58019 0.0
O168 O 0.7167 0.23157 0.62267 0.0
O169 O 0.72999 0.22854 0.59514 0.0
O170 O 0.69043 0.23137 0.59209 0.0
O171 O 0.70598 0.24544 0.56872 0.0
C172 C 0.7888 0.27767 0.58309 0.0
C173 C 0.79826 0.26081 0.57942 0.0
H174 H 0.81155 0.22573 0.57208 0.0
H175 H 0.79176 0.19827 0.56477 0.0
H176 H 0.73119 0.3063 0.58821 0.0
H177 H 0.76577 0.30742 0.58975 0.0
H178 H 0.79674 0.29 0.58674 0.0
H179 H 0.81333 0.26042 0.58031 0.0
Mn180 Mn 0.02853 0.46253 0.84734 0.0
Mn181 Mn 0.00321 0.47808 0.81088 0.0
C182 C 0.01324 0.49073 0.84922 0.0
C183 C 0.05641 0.45906 0.86346 0.0
C184 C 0.99063 0.44692 0.8365 0.0
O185 O 0.03802 0.44703 0.8256 0.0
O186 O 0.02246 0.46032 0.80168 0.0
C187 C 0.03226 0.49932 0.79065 0.0
N188 N 0.01542 0.49883 0.79943 0.0
C189 C 0.01046 0.53154 0.79376 0.0
C190 C 0.0277 0.53237 0.78456 0.0
C191 C 0.03865 0.51619 0.78302 0.0
C192 C 0.00476 0.51431 0.80096 0.0
H193 H 0.04078 0.48695 0.78952 0.0
C194 C 0.03466 0.44897 0.80822 0.0
O195 O 0.04277 0.44735 0.8654 0.0
O196 O 0.05401 0.47272 0.85178 0.0
N197 N 0.98444 0.49568 0.81809 0.0
C198 C 0.96864 0.49275 0.82824 0.0
C199 C 0.95637 0.50768 0.8315 0.0
C200 C 0.96044 0.52542 0.82426 0.0
C201 C 0.97671 0.52807 0.81375 0.0
C202 C 0.98832 0.51263 0.81079 0.0
H203 H 0.96546 0.47917 0.8339 0.0
O204 O 0.01784 0.48188 0.86434 0.0
O205 O 0.01772 0.48277 0.8336 0.0
O206 O 0.00429 0.44811 0.84769 0.0
O207 O 0.98913 0.45697 0.82188 0.0
C208 C 0.98205 0.54549 0.8064 0.0
C209 C -0.00109 0.54723 0.79641 0.0
H210 H 0.03274 0.54538 0.77877 0.0
H211 H 0.05201 0.51673 0.77602 0.0
H212 H 0.94386 0.50554 0.83966 0.0
H213 H 0.95105 0.53695 0.82699 0.0
H214 H 0.9734 0.5577 0.80855 0.0
H215 H 0.00298 0.56075 0.79104 0.0
Mn216 Mn 0.78128 0.74342 0.10343 0.0
Mn217 Mn 0.75995 0.72734 0.0648 0.0
C218 C 0.75863 0.72065 0.10587 0.0
C219 C 0.78325 0.76585 0.12671 0.0
C220 C 0.79991 0.71801 0.07528 0.0
O221 O 0.78694 0.76303 0.08384 0.0
O222 O 0.76914 0.7531 0.05987 0.0
C223 C 0.72749 0.75273 0.0625 0.0
N224 N 0.73449 0.73513 0.06394 0.0
C225 C 0.70368 0.72184 0.06358 0.0
C226 C 0.69614 0.73982 0.06201 0.0
C227 C 0.7081 0.75533 0.06151 0.0
C228 C 0.72311 0.7201 0.06438 0.0
H229 H 0.73663 0.7647 0.06214 0.0
C230 C 0.77987 0.76514 0.06764 0.0
O231 O 0.79782 0.75639 0.12157 0.0
O232 O 0.76755 0.76205 0.11856 0.0
N233 N 0.75024 0.70271 0.06824 0.0
C234 C 0.75967 0.68649 0.07131 0.0
C235 C 0.74968 0.66974 0.07314 0.0
C236 C 0.73014 0.66983 0.07173 0.0
C237 C 0.72075 0.68669 0.06853 0.0
C238 C 0.73145 0.70293 0.06675 0.0
H239 H 0.77468 0.68636 0.07247 0.0
O240 O 0.77072 0.72284 0.11919 0.0
O241 O 0.76042 0.73173 0.0917 0.0
O242 O 0.79988 0.72581 0.09123 0.0
O243 O 0.78595 0.71825 0.06423 0.0
C244 C 0.70119 0.68806 0.06739 0.0
C245 C 0.69266 0.70562 0.06485 0.0
H246 H 0.68119 0.74189 0.06139 0.0
H247 H 0.70239 0.76926 0.06039 0.0
H248 H 0.75702 0.6568 0.07567 0.0
H249 H 0.72248 0.6569 0.07327 0.0
H250 H 0.69255 0.67574 0.06872 0.0
H251 H 0.6776 0.70653 0.06425 0.0
Mn252 Mn 0.47478 0.52323 0.33656 0.0
Mn253 Mn 0.47682 0.49866 0.29657 0.0
C254 C 0.49489 0.49822 0.33421 0.0
C255 C 0.46085 0.5301 0.3649 0.0
C256 C 0.49235 0.53762 0.30114 0.0
O257 O 0.4508 0.53021 0.32282 0.0
O258 O 0.45164 0.50984 0.2988 0.0
C259 C 0.44969 0.46845 0.30394 0.0
N260 N 0.46737 0.47395 0.29969 0.0
C261 C 0.47765 0.44211 0.29701 0.0
C262 C 0.45954 0.4361 0.30129 0.0
C263 C 0.44552 0.44933 0.30482 0.0
C264 C 0.48096 0.46135 0.29625 0.0
H265 H 0.43887 0.47859 0.30664 0.0
C266 C 0.44339 0.5223 0.30865 0.0
O267 O 0.47 0.54261 0.3556 0.0
O268 O 0.45999 0.51339 0.35788 0.0
N269 N 0.50062 0.48701 0.29332 0.0
C270 C 0.51764 0.4951 0.29098 0.0
C271 C 0.53339 0.48378 0.28829 0.0
C272 C 0.53147 0.46428 0.28796 0.0
C273 C 0.51379 0.45627 0.29038 0.0
C274 C 0.4986 0.46826 0.29297 0.0
H275 H 0.5192 0.51008 0.29124 0.0
O276 O 0.49779 0.51104 0.3467 0.0
O277 O 0.48036 0.50051 0.32368 0.0
O278 O 0.49022 0.53855 0.31866 0.0
O279 O 0.48695 0.52382 0.2913 0.0
C280 C 0.51071 0.43686 0.29065 0.0
C281 C 0.49263 0.42979 0.2939 0.0
H282 H 0.45629 0.42136 0.3021 0.0
H283 H 0.43153 0.4448 0.30822 0.0
H284 H 0.547 0.49006 0.28651 0.0
H285 H 0.54367 0.45559 0.28599 0.0
H286 H 0.52219 0.42724 0.28867 0.0
H287 H 0.49049 0.41484 0.29435 0.0
Mn288 Mn 0.37709 0.20181 0.27668 0.0
Mn289 Mn 0.40748 0.23548 0.26403 0.0
C290 C 0.36635 0.23033 0.26633 0.0
C291 C 0.35946 0.18673 0.29927 0.0
C292 C 0.399 0.2017 0.24015 0.0
O293 O 0.40133 0.19326 0.28861 0.0
O294 O 0.42017 0.21725 0.28065 0.0
C295 C 0.413 0.2531 0.30096 0.0
N296 N 0.40784 0.25448 0.28274 0.0
C297 C 0.40082 0.28713 0.28625 0.0
C298 C 0.40619 0.28608 0.30502 0.0
C299 C 0.41227 0.26898 0.31241 0.0
C300 C 0.40193 0.27085 0.27549 0.0
H301 H 0.41758 0.23996 0.30673 0.0
C302 C 0.41698 0.20173 0.28894 0.0
O303 O 0.36409 0.17833 0.28391 0.0
O304 O 0.36532 0.20369 0.3016 0.0
N305 N 0.3968 0.25411 0.24816 0.0
C306 C 0.3913 0.25255 0.23004 0.0
C307 C 0.38448 0.26834 0.22067 0.0
C308 C 0.38346 0.28556 0.22999 0.0
C309 C 0.38934 0.28685 0.24859 0.0
C310 C 0.39619 0.27068 0.25715 0.0
H311 H 0.39203 0.23935 0.22283 0.0
O312 O 0.35565 0.21575 0.26549 0.0
O313 O 0.38293 0.22768 0.27306 0.0
O314 O 0.3868 0.19462 0.25096 0.0
O315 O 0.40774 0.2168 0.24379 0.0
C316 C 0.38839 0.30346 0.25906 0.0
C317 C 0.39409 0.30359 0.27788 0.0
H318 H 0.40554 0.29827 0.31392 0.0
H319 H 0.41633 0.26803 0.32691 0.0
H320 H 0.37994 0.26723 0.20633 0.0
H321 H 0.37801 0.29766 0.22277 0.0
H322 H 0.38307 0.31615 0.25284 0.0
H323 H 0.39304 0.31638 0.28586 0.0
Mn324 Mn 0.00598 0.19244 0.55823 0.0
Mn325 Mn 0.99236 0.22369 0.52587 0.0
C326 C 0.98993 0.18243 0.53243 0.0
C327 C 0.00214 0.17647 0.5861 0.0
C328 C 0.03208 0.20998 0.52982 0.0
O329 O 0.00838 0.21723 0.57143 0.0
O330 O 0.99681 0.23705 0.54993 0.0
C331 C 0.95584 0.23449 0.54177 0.0
N332 N 0.96601 0.22732 0.52742 0.0
C333 C 0.93837 0.22248 0.50901 0.0
C334 C 0.92761 0.22994 0.52355 0.0
C335 C 0.93639 0.23596 0.54 0.0
C336 C 0.95772 0.22155 0.5115 0.0
H337 H 0.96252 0.239 0.55449 0.0
C338 C 0.00347 0.2335 0.56616 0.0
O339 O 0.01849 0.17942 0.57896 0.0
O340 O 0.98785 0.18327 0.57724 0.0
N341 N 0.98745 0.21252 0.50212 0.0
C342 C -0.0003 0.20469 0.48988 0.0
C343 C 0.99309 0.19743 0.47294 0.0
C344 C 0.97398 0.19833 0.46875 0.0
C345 C 0.96166 0.20659 0.4815 0.0
C346 C 0.96908 0.21377 0.49807 0.0
H347 H 0.01439 0.20384 0.49309 0.0
O348 O 7e-05 0.17085 0.54197 0.0
O349 O 0.98918 0.19953 0.53856 0.0
O350 O 0.02868 0.19825 0.54261 0.0
O351 O 0.0197 0.22072 0.52283 0.0
C352 C 0.94225 0.20761 0.47859 0.0
C353 C 0.93062 0.21556 0.49233 0.0
H354 H 0.91259 0.23095 0.5223 0.0
H355 H 0.92817 0.24164 0.55132 0.0
H356 H 0.00268 0.19104 0.46319 0.0
H357 H 0.9689 0.19253 0.45576 0.0
H358 H 0.9361 0.20212 0.46594 0.0
H359 H 0.9157 0.21605 0.49004 0.0
Mn360 Mn 0.09487 0.78089 0.76895 0.0
Mn361 Mn 0.05971 0.76546 0.74182 0.0
C362 C 0.09879 0.75446 0.75111 0.0
C363 C 0.10957 0.78222 0.79774 0.0
C364 C 0.08369 0.79901 0.73233 0.0
O365 O 0.07227 0.79436 0.77919 0.0
O366 O 0.04924 0.78112 0.76235 0.0
C367 C 0.04067 0.74085 0.76896 0.0
N368 N 0.04944 0.74318 0.75227 0.0
C369 C 0.04603 0.71061 0.74488 0.0
C370 C 0.03685 0.7079 0.76193 0.0
C371 C 0.03418 0.72308 0.77402 0.0
C372 C 0.05207 0.72867 0.74052 0.0
H373 H 0.03872 0.75245 0.77838 0.0
C374 C 0.05506 0.7918 0.77549 0.0
O375 O 0.1118 0.79532 0.78544 0.0
O376 O 0.09873 0.7684 0.79334 0.0
N377 N 0.06802 0.74984 0.7218 0.0
C378 C 0.07799 0.75459 0.70633 0.0
C379 C 0.08217 0.74089 0.69296 0.0
C380 C 0.07609 0.72246 0.69563 0.0
C381 C 0.06578 0.71792 0.71161 0.0
C382 C 0.06181 0.73221 0.72433 0.0
H383 H 0.08285 0.76868 0.70427 0.0
O384 O 0.11323 0.76366 0.75701 0.0
O385 O 0.08261 0.76097 0.75599 0.0
O386 O 0.09476 0.79759 0.74611 0.0
O387 O 0.06981 0.78815 0.72967 0.0
C388 C 0.05961 0.69969 0.71559 0.0
C389 C 0.04977 0.69603 0.73223 0.0
H390 H 0.03194 0.69418 0.76595 0.0
H391 H 0.0272 0.72108 0.78725 0.0
H392 H 0.09019 0.7445 0.6807 0.0
H393 H 0.07955 0.71189 0.68541 0.0
H394 H 0.06259 0.68833 0.70608 0.0
H395 H 0.04532 0.68191 0.73525 0.0
Mn396 Mn 0.48831 0.83893 0.00401 0.0
Mn397 Mn 0.51181 0.8048 0.98169 0.0
C398 C 0.51284 0.84626 0.98467 0.0
C399 C 0.48365 0.85841 0.02953 0.0
C400 C 0.47339 0.81792 0.97016 0.0
O401 O 0.48135 0.81575 0.01859 0.0
O402 O 0.49867 0.79399 0.00373 0.0
C403 C 0.53986 0.79567 0.01056 0.0
N404 N 0.53574 0.80144 0.99295 0.0
C405 C 0.56828 0.80456 0.98535 0.0
C406 C 0.57287 0.79855 0.00338 0.0
C407 C 0.55859 0.79409 0.01603 0.0
C408 C 0.54937 0.80562 0.9806 0.0
H409 H 0.52893 0.79238 0.02039 0.0
C410 C 0.48736 0.79909 0.01666 0.0
O411 O 0.47021 0.85455 0.01804 0.0
O412 O 0.49962 0.85041 0.02654 0.0
N413 N 0.52527 0.81377 0.96046 0.0
C414 C 0.51848 0.82077 0.94416 0.0
C415 C 0.53095 0.82667 0.93027 0.0
C416 C 0.55026 0.82533 0.93328 0.0
C417 C 0.55692 0.81805 0.95015 0.0
C418 C 0.54382 0.81219 0.9634 0.0
H419 H 0.50365 0.822 0.94184 0.0
O420 O 0.50004 0.85857 0.98825 0.0
O421 O 0.51067 0.82998 0.99234 0.0
O422 O 0.47193 0.83063 0.98245 0.0
O423 O 0.48761 0.80729 0.96874 0.0
C424 C 0.57604 0.81681 0.95452 0.0
C425 C 0.58171 0.81005 0.9721 0.0
H426 H 0.5873 0.79751 0.00772 0.0
H427 H 0.56202 0.78954 0.03 0.0
H428 H 0.5257 0.83236 0.91732 0.0
H429 H 0.55984 0.8301 0.92262 0.0
H430 H 0.58648 0.82129 0.94458 0.0
H431 H 0.59644 0.80944 0.9754 0.0
Mn432 Mn 0.90739 0.28282 0.73037 0.0
Mn433 Mn 0.94743 0.26228 0.74404 0.0
C434 C 0.90716 0.25241 0.74066 0.0
C435 C 0.88617 0.29118 0.70758 0.0
C436 C 0.92669 0.29088 0.76724 0.0
O437 O 0.92732 0.29951 0.71922 0.0
O438 O 0.95324 0.28333 0.72684 0.0
C439 C 0.95983 0.24682 0.70781 0.0
N440 N 0.95489 0.24415 0.72595 0.0
C441 C 0.95938 0.21099 0.72324 0.0
C442 C 0.96464 0.21341 0.70456 0.0
C443 C 0.96485 0.2314 0.69682 0.0
C444 C 0.95467 0.2269 0.73356 0.0
H445 H 0.95988 0.26061 0.70174 0.0
C446 C 0.94489 0.29676 0.71845 0.0
O447 O 0.88729 0.30032 0.72314 0.0
O448 O 0.89761 0.27735 0.70504 0.0
N449 N 0.94348 0.24148 0.76033 0.0
C450 C 0.93719 0.24142 0.77826 0.0
C451 C 0.93573 0.22444 0.7879 0.0
C452 C 0.94077 0.2077 0.77903 0.0
C453 C 0.94734 0.20812 0.76062 0.0
C454 C 0.94872 0.22549 0.75179 0.0
H455 H 0.93319 0.25422 0.78512 0.0
O456 O 0.89196 0.26223 0.74096 0.0
O457 O 0.92195 0.26069 0.73429 0.0
O458 O 0.91293 0.29264 0.75623 0.0
O459 O 0.94067 0.28036 0.76385 0.0
C460 C 0.95225 0.19195 0.75058 0.0
C461 C 0.95826 0.19338 0.7319 0.0
H462 H 0.96839 0.20153 0.696 0.0
H463 H 0.9688 0.23337 0.68238 0.0
H464 H 0.93061 0.22423 0.80209 0.0
H465 H 0.9394 0.19461 0.78643 0.0
H466 H 0.95122 0.17832 0.75701 0.0
H467 H 0.96177 0.18083 0.72425 0.0
Mn468 Mn 0.98751 0.69202 0.93691 0.0
Mn469 Mn 0.00484 0.72689 0.9634 0.0
C470 C 0.00943 0.68558 0.95937 0.0
C471 C 0.9872 0.6731 0.91063 0.0
C472 C 0.96694 0.70966 0.96981 0.0
O473 O 0.98062 0.71505 0.92225 0.0
O474 O 0.99311 0.73748 0.94042 0.0
C475 C 0.03469 0.73984 0.93796 0.0
N476 N 0.02933 0.73313 0.9549 0.0
C477 C 0.06096 0.73354 0.96609 0.0
C478 C 0.0668 0.74059 0.94881 0.0
C479 C 0.0536 0.74373 0.93469 0.0
C480 C 0.04191 0.73011 0.96862 0.0
H481 H 0.02462 0.74218 0.92702 0.0
C482 C 0.98437 0.73208 0.92576 0.0
O483 O 0.97229 0.67591 0.92048 0.0
O484 O 0.00221 0.68196 0.91559 0.0
N485 N 0.01686 0.71861 0.98575 0.0
C486 C 0.00914 0.71054 0.00113 0.0
C487 C 0.02059 0.7058 0.01629 0.0
C488 C 0.03981 0.70949 0.01552 0.0
C489 C 0.04741 0.71794 -0.00039 0.0
C490 C 0.03529 0.72248 0.98498 0.0
H491 H 0.99441 0.70754 0.00176 0.0
O492 O -0.00172 0.67263 0.9534 0.0
O493 O 0.00752 0.70205 0.95191 0.0
O494 O 0.96798 0.69813 0.95641 0.0
O495 O 0.97986 0.72127 0.97372 0.0
C496 C 0.0666 0.72159 0.99749 0.0
C497 C 0.07337 0.72938 0.98075 0.0
H498 H 0.08139 0.74346 0.94617 0.0
H499 H 0.05801 0.74907 0.92128 0.0
H500 H 0.01464 0.69923 0.02849 0.0
H501 H 0.04863 0.70563 0.02716 0.0
H502 H 0.07631 0.71818 0.00854 0.0
H503 H 0.08819 0.73187 0.97919 0.0
Mn504 Mn 0.5634 0.72339 0.20211 0.0
Mn505 Mn 0.52921 0.7539 0.21281 0.0
C506 C 0.57023 0.74986 0.21895 0.0
C507 C 0.58592 0.71182 0.18193 0.0
C508 C 0.53389 0.71653 0.23164 0.0
O509 O 0.54255 0.71669 0.18407 0.0
O510 O 0.52177 0.73963 0.19023 0.0
C511 C 0.53147 0.77903 0.18017 0.0
N512 N 0.53238 0.77645 0.19896 0.0
C513 C 0.53904 0.80895 0.20406 0.0
C514 C 0.53806 0.81198 0.18477 0.0
C515 C 0.53427 0.79695 0.17278 0.0
C516 C 0.53592 0.79083 0.21063 0.0
H517 H 0.52872 0.76748 0.17089 0.0
C518 C 0.52739 0.72548 0.18082 0.0
O519 O 0.57826 0.70132 0.19451 0.0
O520 O 0.58028 0.72902 0.1809 0.0
N521 N 0.53527 0.7686 0.23427 0.0
C522 C 0.53712 0.76307 0.25235 0.0
C523 C 0.54162 0.77631 0.26606 0.0
C524 C 0.54419 0.79508 0.26106 0.0
C525 C 0.54217 0.80045 0.24237 0.0
C526 C 0.53745 0.78668 0.22934 0.0
H527 H 0.53532 0.74864 0.25626 0.0
O528 O 0.58127 0.73551 0.21969 0.0
O529 O 0.55561 0.74815 0.2084 0.0
O530 O 0.54914 0.71224 0.22373 0.0
O531 O 0.52465 0.7313 0.22805 0.0
C532 C 0.54509 0.81885 0.2361 0.0
C533 C 0.54351 0.8231 0.21696 0.0
H534 H 0.5404 0.82574 0.17899 0.0
H535 H 0.5336 0.79915 0.15786 0.0
H536 H 0.54324 0.77204 0.28044 0.0
H537 H 0.54788 0.80521 0.27164 0.0
H538 H 0.54883 0.82977 0.24584 0.0
H539 H 0.54606 0.83723 0.21227 0.0
Mn540 Mn 0.51734 0.31103 0.43741 0.0
Mn541 Mn 0.48984 0.2837 0.4642 0.0
C542 C 0.49767 0.32433 0.45893 0.0
C543 C 0.52334 0.32797 0.41047 0.0
C544 C 0.53084 0.28959 0.47169 0.0
O545 O 0.51772 0.28639 0.42365 0.0
O546 O 0.49878 0.26933 0.44209 0.0
C547 C 0.45845 0.27925 0.43775 0.0
N548 N 0.46492 0.2846 0.45479 0.0
C549 C 0.43419 0.2939 0.46459 0.0
C550 C 0.42718 0.28835 0.4472 0.0
C551 C 0.43937 0.28102 0.43372 0.0
C552 C 0.45331 0.29167 0.46787 0.0
H553 H 0.46778 0.27372 0.4273 0.0
C554 C 0.50915 0.27133 0.42765 0.0
O555 O 0.5368 0.32168 0.4208 0.0
O556 O 0.50643 0.32378 0.41543 0.0
N557 N 0.47999 0.29582 0.48586 0.0
C558 C 0.48913 0.30148 0.50153 0.0
C559 C 0.47901 0.30967 0.51617 0.0
C560 C 0.45961 0.31183 0.5146 0.0
C561 C 0.45048 0.30569 0.49845 0.0
C562 C 0.46127 0.29749 0.48437 0.0
H563 H 0.50405 0.29993 0.50278 0.0
O564 O 0.51214 0.33338 0.45292 0.0
O565 O 0.49498 0.30775 0.45201 0.0
O566 O 0.53371 0.30038 0.4579 0.0
O567 O 0.51501 0.28229 0.47529 0.0
C568 C 0.43115 0.30775 0.49558 0.0
C569 C 0.42302 0.30189 0.47865 0.0
H570 H 0.41249 0.28981 0.44398 0.0
H571 H 0.43408 0.27682 0.42023 0.0
H572 H 0.48616 0.3144 0.52858 0.0
H573 H 0.45188 0.31834 0.52584 0.0
H574 H 0.42245 0.31407 0.5062 0.0
H575 H 0.40819 0.3038 0.47651 0.0
Mn576 Mn 0.24923 0.42867 0.26391 0.0
Mn577 Mn 0.22126 0.46057 0.28427 0.0
C578 C 0.22098 0.41977 0.27611 0.0
C579 C 0.27322 0.40688 0.26471 0.0
C580 C 0.22539 0.45663 0.24247 0.0
O581 O 0.2666 0.45043 0.26843 0.0
O582 O 0.2473 0.47047 0.28323 0.0
C583 C 0.23723 0.45964 0.32232 0.0
N584 N 0.22233 0.45754 0.31073 0.0
C585 C 0.20239 0.44913 0.33638 0.0
C586 C 0.21748 0.45138 0.3486 0.0
C587 C 0.23497 0.45664 0.34153 0.0
C588 C 0.20542 0.45255 0.31739 0.0
H589 H 0.25076 0.46348 0.31693 0.0
C590 C 0.26333 0.46587 0.27667 0.0
O591 O 0.26839 0.41504 0.24931 0.0
O592 O 0.26462 0.41196 0.27983 0.0
N593 N 0.1959 0.45248 0.28637 0.0
C594 C 0.18313 0.44966 0.27258 0.0
C595 C 0.16509 0.44366 0.27725 0.0
C596 C 0.16036 0.44064 0.29601 0.0
C597 C 0.17371 0.44371 0.30996 0.0
C598 C 0.19141 0.44989 0.30449 0.0
H599 H 0.18674 0.45181 0.25812 0.0
O600 O 0.22908 0.40971 0.26343 0.0
O601 O 0.22983 0.43472 0.28142 0.0
O602 O 0.23666 0.44297 0.24312 0.0
O603 O 0.21878 0.46456 0.257 0.0
C604 C 0.17026 0.44048 0.32903 0.0
C605 C 0.18459 0.4432 0.34223 0.0
H606 H 0.21584 0.4489 0.36341 0.0
H607 H 0.24672 0.45827 0.35086 0.0
H608 H 0.15488 0.44125 0.2664 0.0
H609 H 0.14649 0.43581 0.29953 0.0
H610 H 0.15672 0.43566 0.33367 0.0
H611 H 0.18185 0.44042 0.35682 0.0
Mn612 Mn 0.8069 0.05455 0.75999 0.0
Mn613 Mn 0.77676 0.02097 0.74663 0.0
C614 C 0.77892 0.06264 0.74671 0.0
C615 C 0.83243 0.07385 0.75513 0.0
C616 C 0.78243 0.03246 0.78679 0.0
O617 O 0.82282 0.03123 0.75951 0.0
O618 O 0.80222 0.00997 0.74883 0.0
C619 C 0.79133 0.0142 0.70861 0.0
N620 N 0.77699 0.01914 0.72004 0.0
C621 C 0.75652 0.02385 0.69388 0.0
C622 C 0.77104 0.01869 0.68183 0.0
C623 C 0.78852 0.01386 0.68924 0.0
C624 C 0.7601 0.02378 0.71307 0.0
H625 H 0.80483 0.01063 0.71424 0.0
C626 C 0.81859 0.01475 0.75428 0.0
O627 O 0.82713 0.06908 0.77174 0.0
O628 O 0.82317 0.06694 0.74115 0.0
N629 N 0.75172 0.0298 0.74384 0.0
C630 C 0.73945 0.03523 0.7573 0.0
C631 C 0.72142 0.0409 0.75219 0.0
C632 C 0.71618 0.04087 0.73331 0.0
C633 C 0.72898 0.03504 0.71973 0.0
C634 C 0.74668 0.02932 0.72568 0.0
H635 H 0.74344 0.03539 0.77182 0.0
O636 O 0.78794 0.07456 0.75694 0.0
O637 O 0.78674 0.04643 0.74433 0.0
O638 O 0.79396 0.04544 0.78331 0.0
O639 O 0.77526 0.02207 0.77422 0.0
C640 C 0.725 0.035 0.7005 0.0
C641 C 0.73876 0.02942 0.68758 0.0
H642 H 0.76897 0.01854 0.66687 0.0
H643 H 0.79982 0.00996 0.68002 0.0
H644 H 0.71162 0.0454 0.76275 0.0
H645 H 0.70233 0.04547 0.72941 0.0
H646 H 0.71146 0.03944 0.69547 0.0
H647 H 0.7356 0.02967 0.67281 0.0
Mn648 Mn 0.17101 0.5415 0.02753 0.0
Mn649 Mn 0.20589 0.51218 0.01587 0.0
C650 C 0.16477 0.51509 0.01041 0.0
C651 C 0.15338 0.56798 0.02136 0.0
C652 C 0.1891 0.51422 0.05461 0.0
O653 O 0.19422 0.55695 0.03178 0.0
O654 O 0.21663 0.53714 0.02196 0.0
C655 C 0.21783 0.53019 0.98071 0.0
N656 N 0.21129 0.51491 0.98992 0.0
C657 C 0.20982 0.49721 0.96144 0.0
C658 C 0.21667 0.5127 0.95168 0.0
C659 C 0.22068 0.52927 0.96136 0.0
C660 C 0.20743 0.49889 0.98074 0.0
H661 H 0.22076 0.543 0.98807 0.0
C662 C 0.21121 0.55299 0.02829 0.0
O663 O 0.15503 0.56155 0.03821 0.0
O664 O 0.16214 0.55915 0.00821 0.0
N665 N 0.19731 0.48771 0.00947 0.0
C666 C 0.18996 0.47434 0.02081 0.0
C667 C 0.18481 0.45704 0.01321 0.0
C668 C 0.18727 0.45365 0.99407 0.0
C669 C 0.195 0.46757 0.98272 0.0
C670 C 0.20011 0.48445 0.99112 0.0
H671 H 0.18793 0.47691 0.0355 0.0
O672 O 0.15154 0.52323 0.01974 0.0
O673 O 0.18114 0.52277 0.01138 0.0
O674 O 0.1767 0.52636 0.05083 0.0
O675 O 0.20089 0.50815 0.04268 0.0
C676 C 0.19751 0.46548 0.96334 0.0
C677 C 0.2049 0.48029 0.95271 0.0
H678 H 0.21875 0.5121 0.93673 0.0
H679 H 0.22587 0.54132 0.95391 0.0
H680 H 0.17882 0.44638 0.02205 0.0
H681 H 0.18307 0.44037 0.98822 0.0
H682 H 0.19359 0.45262 0.95644 0.0
H683 H 0.20655 0.4786 0.93779 0.0
Mn684 Mn 0.71117 0.92609 0.25248 0.0
Mn685 Mn 0.74276 0.9549 0.23293 0.0
C686 C 0.73791 0.91397 0.2397 0.0
C687 C 0.68418 0.90834 0.2503 0.0
C688 C 0.73886 0.94964 0.27464 0.0
O689 O 0.69678 0.95001 0.24905 0.0
O690 O 0.71823 0.96813 0.23489 0.0
C691 C 0.72622 0.95761 0.19521 0.0
N692 N 0.74089 0.95312 0.2064 0.0
C693 C 0.75919 0.94329 0.18003 0.0
C694 C 0.74433 0.94796 0.16821 0.0
C695 C 0.72777 0.95514 0.17585 0.0
C696 C 0.75692 0.94626 0.19919 0.0
H697 H 0.71341 0.96299 0.20102 0.0
C698 C 0.70179 0.96523 0.24136 0.0
O699 O 0.69007 0.91447 0.2663 0.0
O700 O 0.69378 0.91281 0.23564 0.0
N701 N 0.76687 0.94381 0.22998 0.0
C702 C 0.77949 0.93904 0.24336 0.0
C703 C 0.7966 0.93109 0.23807 0.0
C704 C 0.80057 0.92818 0.21912 0.0
C705 C 0.78744 0.93335 0.20559 0.0
C706 C 0.7707 0.94139 0.21168 0.0
H707 H 0.77646 0.9411 0.25796 0.0
O708 O 0.72847 0.90455 0.25193 0.0
O709 O 0.73115 0.93019 0.23502 0.0
O710 O 0.72579 0.93763 0.2739 0.0
O711 O 0.74605 0.95722 0.2602 0.0
C712 C 0.79013 0.93048 0.18634 0.0
C713 C 0.77602 0.93545 0.17357 0.0
H714 H 0.74541 0.94591 0.15329 0.0
H715 H 0.7162 0.95866 0.16683 0.0
H716 H 0.80665 0.9271 0.2486 0.0
H717 H 0.8137 0.92186 0.21511 0.0
H718 H 0.8029 0.92423 0.18123 0.0
H719 H 0.77817 0.93296 0.15883 0.0
Mn720 Mn 0.33686 0.47675 0.51788 0.0
Mn721 Mn 0.30318 0.50442 0.50038 0.0
C722 C 0.34439 0.50576 0.5064 0.0
C723 C 0.35866 0.45317 0.514 0.0
C724 C 0.30901 0.49799 0.54176 0.0
O725 O 0.3155 0.45896 0.51336 0.0
O726 O 0.29439 0.47794 0.4998 0.0
C727 C 0.30274 0.49141 0.46119 0.0
N728 N 0.30495 0.50545 0.4738 0.0
C729 C 0.311 0.52767 0.44939 0.0
C730 C 0.30866 0.51347 0.43615 0.0
C731 C 0.30452 0.49526 0.44208 0.0
C732 C 0.30879 0.52306 0.46824 0.0
H733 H 0.29971 0.47735 0.46568 0.0
C734 C 0.29986 0.46182 0.5054 0.0
O735 O 0.35162 0.45682 0.53028 0.0
O736 O 0.35284 0.46303 0.5 0.0
N737 N 0.31033 0.53014 0.49988 0.0
C738 C 0.31372 0.54185 0.51446 0.0
C739 C 0.31892 0.5604 0.51092 0.0
C740 C 0.3206 0.56671 0.49246 0.0
C741 C 0.31704 0.5544 0.47768 0.0
C742 C 0.31171 0.53612 0.48205 0.0
H743 H 0.31263 0.53704 0.52868 0.0
O744 O 0.35525 0.49753 0.51834 0.0
O745 O 0.32937 0.49671 0.50174 0.0
O746 O 0.32331 0.48762 0.54021 0.0
O747 O 0.30024 0.50473 0.5278 0.0
C748 C 0.31902 0.55943 0.4588 0.0
C749 C 0.31598 0.54609 0.44466 0.0
H750 H 0.31024 0.51634 0.4214 0.0
H751 H 0.30281 0.4842 0.43195 0.0
H752 H 0.32174 0.56978 0.52241 0.0
H753 H 0.3248 0.58097 0.4898 0.0
H754 H 0.32314 0.57346 0.455 0.0
H755 H 0.31782 0.55005 0.43021 0.0
Mn756 Mn 0.19193 0.55326 0.73626 0.0
Mn757 Mn 0.21622 0.52002 0.75912 0.0
C758 C 0.21325 0.56149 0.75875 0.0
C759 C 0.16655 0.57295 0.73192 0.0
C760 C 0.22517 0.53209 0.71986 0.0
O761 O 0.17679 0.52992 0.73128 0.0
O762 O 0.19377 0.50871 0.74722 0.0
C763 C 0.18857 0.51164 0.78861 0.0
N764 N 0.20601 0.51725 0.78358 0.0
C765 C 0.21496 0.52126 0.81567 0.0
C766 C 0.19714 0.5154 0.82119 0.0
C767 C 0.18389 0.51058 0.80759 0.0
C768 C 0.21888 0.52188 0.79655 0.0
H769 H 0.17829 0.50804 0.77821 0.0
C770 C 0.17982 0.51333 0.737 0.0
O771 O 0.17714 0.56789 0.71817 0.0
O772 O 0.17019 0.56586 0.74821 0.0
N773 N 0.23806 0.52921 0.77142 0.0
C774 C 0.25428 0.53548 0.76376 0.0
C775 C 0.26883 0.54135 0.77548 0.0
C776 C 0.26658 0.54065 0.79492 0.0
C777 C 0.24983 0.53397 0.80248 0.0
C778 C 0.23589 0.52813 0.79011 0.0
H779 H 0.25604 0.53616 0.74882 0.0
O780 O 0.20859 0.57329 0.74583 0.0
O781 O 0.20531 0.54519 0.75808 0.0
O782 O 0.21222 0.54413 0.71891 0.0
O783 O 0.22811 0.52206 0.73426 0.0
C784 C 0.24628 0.53322 0.82179 0.0
C785 C 0.22886 0.52688 0.82838 0.0
H786 H 0.19343 0.5147 0.83581 0.0
H787 H 0.17007 0.50614 0.81174 0.0
H788 H 0.2817 0.54651 0.76954 0.0
H789 H 0.27775 0.5454 0.80391 0.0
H790 H 0.25676 0.53772 0.83168 0.0
H791 H 0.22622 0.52659 0.84325 0.0
Mn792 Mn 0.70628 0.96609 0.98991 0.0
Mn793 Mn 0.73855 0.98839 0.01596 0.0
C794 C 0.69993 0.99507 0.00209 0.0
C795 C 0.68166 0.94549 0.98603 0.0
C796 C 0.74062 0.98572 0.97409 0.0
O797 O 0.72394 0.94537 0.99708 0.0
O798 O 0.74476 0.96122 0.01457 0.0
C799 C 0.7299 0.97103 0.05241 0.0
N800 N 0.73164 0.98659 0.04165 0.0
C801 C 0.72291 0.00644 0.06728 0.0
C802 C 0.72115 0.99064 0.07866 0.0
C803 C 0.72465 0.97287 0.07119 0.0
C804 C 0.7284 0.00377 0.04872 0.0
H805 H 0.73243 0.95733 0.0467 0.0
C806 C 0.73861 0.94613 0.00711 0.0
O807 O 0.69291 0.94942 0.97243 0.0
O808 O 0.6849 0.95328 0.00207 0.0
N809 N 0.73394 0.01456 0.01863 0.0
C810 C 0.73489 0.02821 0.00545 0.0
C811 C 0.73108 0.04676 0.01049 0.0
C812 C 0.72634 0.05107 0.029 0.0
C813 C 0.72551 0.0368 0.04233 0.0
C814 C 0.72966 0.0186 0.03654 0.0
H815 H 0.7383 0.02495 0.99116 0.0
O816 O 0.69098 0.98915 0.9875 0.0
O817 O 0.71241 0.98386 0.00899 0.0
O818 O 0.7257 0.97636 0.97229 0.0
O819 O 0.74682 0.99146 0.98976 0.0
C820 C 0.72027 0.03984 0.06102 0.0
C821 C 0.71897 0.02468 0.07349 0.0
H822 H 0.71693 0.99198 0.09311 0.0
H823 H 0.72322 0.9606 0.07986 0.0
H824 H 0.73165 0.05769 0.0001 0.0
H825 H 0.72318 0.06536 0.03278 0.0
H826 H 0.71691 0.05375 0.06588 0.0
H827 H 0.71465 0.02716 0.08774 0.0
Mn828 Mn 0.83293 0.03133 0.47577 0.0
Mn829 Mn 0.79987 0.00478 0.49611 0.0
C830 C 0.84115 0.00514 0.49252 0.0
C831 C 0.85328 0.05657 0.47692 0.0
C832 C 0.80775 0.00426 0.45462 0.0
O833 O 0.81034 0.04832 0.47611 0.0
O834 O 0.78952 0.03008 0.49112 0.0
C835 C 0.79704 0.0251 0.53195 0.0
N836 N 0.80051 0.00902 0.52243 0.0
C837 C 0.80743 0.99259 0.55085 0.0
C838 C 0.80379 0.00893 0.56097 0.0
C839 C 0.79859 0.02526 0.55147 0.0
C840 C 0.80551 0.99323 0.53143 0.0
H841 H 0.79321 0.03773 0.52469 0.0
C842 C 0.79431 0.04543 0.48328 0.0
O843 O 0.84756 0.04989 0.46108 0.0
O844 O 0.84692 0.04879 0.49195 0.0
N845 N 0.80831 0.98011 0.50187 0.0
C846 C 0.81216 0.96577 0.49 0.0
C847 C 0.81787 0.9485 0.49726 0.0
C848 C 0.81957 0.94616 0.51664 0.0
C849 C 0.81542 0.96108 0.52858 0.0
C850 C 0.80953 0.97788 0.52055 0.0
H851 H 0.81098 0.96753 0.47509 0.0
O852 O 0.85248 0.01187 0.4801 0.0
O853 O 0.82547 0.01392 0.49451 0.0
O854 O 0.82121 0.01586 0.455 0.0
O855 O 0.79866 -0.00072 0.46913 0.0
C856 C 0.81722 0.96005 0.54812 0.0
C857 C 0.81326 0.9758 0.55924 0.0
H858 H 0.80512 0.00915 0.57601 0.0
H859 H 0.79587 0.03796 0.55917 0.0
H860 H 0.82108 0.93706 0.48795 0.0
H861 H 0.8242 0.93289 0.52217 0.0
H862 H 0.82187 0.94728 0.55472 0.0
H863 H 0.81494 0.97491 0.57422 0.0
C864 C 0.0582 0.2282 0.51556 0.0
C865 C 0.05163 0.21165 0.52369 0.0
C866 C 0.07718 0.23038 0.51179 0.0
C867 C 0.12015 0.20487 0.50263 0.0
H868 H 0.14365 0.25158 0.51652 0.0
C869 C 0.19434 0.22289 0.47805 0.0
C870 C 0.19426 0.2399 0.46838 0.0
C871 C 0.17941 0.21835 0.48983 0.0
C872 C 0.13732 0.2384 0.5127 0.0
H873 H 0.05962 0.1841 0.53346 0.0
H874 H 0.09268 0.18788 0.52656 0.0
H875 H 0.11143 0.24558 0.5257 0.0
H876 H 0.17972 0.2661 0.46444 0.0
H877 H 0.15398 0.25835 0.48485 0.0
H878 H 0.14568 0.19811 0.48874 0.0
C879 C 0.08319 0.19919 0.52333 0.0
C880 C 0.11888 0.23504 0.51784 0.0
C881 C 0.06428 0.19708 0.52729 0.0
C882 C 0.17995 0.25281 0.47164 0.0
C883 C 0.1653 0.24843 0.4835 0.0
C884 C 0.13857 0.2083 0.49734 0.0
C885 C 0.08985 0.21598 0.51588 0.0
C886 C 0.10996 0.21852 0.51231 0.0
C887 C 0.16454 0.23095 0.49226 0.0
C888 C 0.14708 0.2254 0.50174 0.0
H889 H 0.0488 0.23967 0.51267 0.0
H890 H 0.08198 0.24336 0.50573 0.0
H891 H 0.11356 0.192 0.49824 0.0
H892 H 0.2053 0.21276 0.47571 0.0
H893 H 0.17917 0.2048 0.4965 0.0
C894 C 0.04975 0.94608 0.68807 0.0
C895 C 0.0386 0.9493 0.67228 0.0
C896 C 0.06244 0.93129 0.68827 0.0
C897 C 0.06185 0.88507 0.67052 0.0
H898 H 0.1084 0.87939 0.69732 0.0
C899 C 0.07977 0.81427 0.70117 0.0
C900 C 0.0863 0.81494 0.7196 0.0
C901 C 0.08041 0.83019 0.68995 0.0
C902 C 0.09536 0.8807 0.68983 0.0
H903 H 0.03389 0.94112 0.64346 0.0
H904 H 0.0558 0.91522 0.64401 0.0
H905 H 0.09828 0.91042 0.68748 0.0
H906 H 0.09946 0.83244 0.74046 0.0
H907 H 0.09947 0.86033 0.72152 0.0
H908 H 0.0577 0.856 0.67432 0.0
C909 C 0.05454 0.92399 0.65626 0.0
C910 C 0.0897 0.89846 0.68406 0.0
C911 C 0.04194 0.93879 0.65602 0.0
C912 C 0.09433 0.8315 0.72628 0.0
C913 C 0.09451 0.84751 0.71527 0.0
C914 C 0.06726 0.86745 0.6766 0.0
C915 C 0.06415 0.91951 0.67269 0.0
C916 C 0.07258 0.90084 0.67493 0.0
C917 C 0.08703 0.84725 0.69713 0.0
C918 C 0.08371 0.8651 0.68703 0.0
H919 H 0.04773 0.95406 0.70074 0.0
H920 H 0.06966 0.9281 0.70115 0.0
H921 H 0.04844 0.88652 0.66371 0.0
H922 H 0.07378 0.80159 0.69557 0.0
H923 H 0.07503 0.82925 0.67588 0.0
C924 C 0.32103 0.77062 0.93701 0.0
C925 C 0.3176 0.75427 0.92675 0.0
C926 C 0.33818 0.77972 0.9356 0.0
C927 C 0.38674 0.76908 0.92692 0.0
H928 H 0.39284 0.82281 0.92811 0.0
C929 C 0.45785 0.80071 0.94392 0.0
C930 C 0.45714 0.8144 0.95794 0.0
C931 C 0.44168 0.79555 0.93435 0.0
C932 C 0.39138 0.80778 0.92776 0.0
H933 H 0.32926 0.73512 0.90633 0.0
H934 H 0.35923 0.75095 0.90408 0.0
H935 H 0.36202 0.80946 0.92237 0.0
H936 H 0.43911 0.83437 0.97191 0.0
H937 H 0.41104 0.82507 0.95573 0.0
H938 H 0.41569 0.76723 0.93344 0.0
C939 C 0.34864 0.75664 0.91324 0.0
C940 C 0.37376 0.80017 0.92445 0.0
C941 C 0.33145 0.74762 0.91453 0.0
C942 C 0.44019 0.82368 0.96128 0.0
C943 C 0.42405 0.81844 0.95184 0.0
C944 C 0.4043 0.77667 0.9304 0.0
C945 C 0.35227 0.77259 0.92399 0.0
C946 C 0.3712 0.78075 0.92453 0.0
C947 C 0.42446 0.80391 0.93869 0.0
C948 C 0.40672 0.79611 0.93144 0.0
H949 H 0.31062 0.77621 0.94643 0.0
H950 H 0.34069 0.79188 0.94421 0.0
H951 H 0.38514 0.75405 0.92725 0.0
H952 H 0.47074 0.79348 0.94079 0.0
H953 H 0.44253 0.78455 0.92403 0.0
C954 C 0.47319 0.07958 0.16437 0.0
C955 C 0.48893 0.08218 0.15299 0.0
C956 C 0.46089 0.09428 0.16771 0.0
C957 C 0.46078 0.14433 0.17215 0.0
H958 H 0.40716 0.13808 0.17543 0.0
C959 C 0.41674 0.19875 0.21015 0.0
C960 C 0.40452 0.19102 0.22338 0.0
C961 C 0.42428 0.18766 0.19601 0.0
C962 C 0.4221 0.14007 0.17457 0.0
H963 H 0.50384 0.10215 0.13579 0.0
H964 H 0.48247 0.12798 0.14201 0.0
H965 H 0.42613 0.11376 0.16096 0.0
H966 H 0.38956 0.16589 0.23127 0.0
H967 H 0.40304 0.14654 0.20712 0.0
H968 H 0.45709 0.16993 0.18684 0.0
C969 C 0.47966 0.11449 0.1482 0.0
C970 C 0.43292 0.12618 0.16623 0.0
C971 C 0.49186 0.0997 0.14465 0.0
C972 C 0.39899 0.17231 0.22138 0.0
C973 C 0.40665 0.16121 0.20737 0.0
C974 C 0.45 0.15812 0.18066 0.0
C975 C 0.46418 0.11194 0.15991 0.0
C976 C 0.45241 0.12793 0.1655 0.0
C977 C 0.41987 0.16858 0.1949 0.0
C978 C 0.4306 0.15586 0.18255 0.0
H979 H 0.47045 0.06625 0.17092 0.0
H980 H 0.4492 0.09201 0.177 0.0
H981 H 0.47579 0.14595 0.17191 0.0
H982 H 0.42105 0.21321 0.21111 0.0
H983 H 0.43412 0.19387 0.18638 0.0
C984 C 0.65638 0.24465 0.57748 0.0
C985 C 0.67386 0.25164 0.57199 0.0
C986 C 0.6401 0.25106 0.56893 0.0
C987 C 0.62626 0.26972 0.52388 0.0
H988 H 0.57786 0.27716 0.54685 0.0
C989 C 0.56383 0.29482 0.48143 0.0
C990 C 0.54662 0.28593 0.48442 0.0
C991 C 0.57874 0.29174 0.49344 0.0
C992 C 0.59128 0.27496 0.54028 0.0
H993 H 0.68783 0.27211 0.5546 0.0
H994 H 0.65944 0.28343 0.53993 0.0
H995 H 0.60514 0.27104 0.56649 0.0
H996 H 0.53154 0.26698 0.5026 0.0
H997 H 0.55787 0.26132 0.52345 0.0
H998 H 0.61256 0.27324 0.49773 0.0
C999 C 0.65837 0.27264 0.55045 0.0
C1000 C 0.60686 0.27153 0.55149 0.0
C1001 C 0.67462 0.26619 0.5589 0.0
C1002 C 0.54464 0.27398 0.49985 0.0
C1003 C 0.55965 0.27086 0.51188 0.0
C1004 C 0.61077 0.27308 0.51272 0.0
C1005 C 0.64106 0.26462 0.55484 0.0
C1006 C 0.6245 0.26897 0.54336 0.0
C1007 C 0.57688 0.27962 0.50868 0.0
C1008 C 0.59313 0.27581 0.52078 0.0
H1009 H 0.65532 0.23347 0.58759 0.0
H1010 H 0.62693 0.24461 0.57256 0.0
H1011 H 0.63958 0.26729 0.51718 0.0
H1012 H 0.56585 0.30428 0.46983 0.0
H1013 H 0.59176 0.29895 0.49081 0.0
C1014 C 0.91586 0.31899 0.7845 0.0
C1015 C 0.92702 0.30291 0.78396 0.0
C1016 C 0.91805 0.33207 0.79866 0.0
C1017 C 0.9554 0.34805 0.82971 0.0
H1018 H 0.91943 0.38749 0.83859 0.0
C1019 C 0.98007 0.4188 0.8542 0.0
C1020 C 0.97696 0.43181 0.83982 0.0
C1021 C 0.96965 0.40242 0.85512 0.0
C1022 C 0.92952 0.37643 0.83653 0.0
H1023 H 0.94783 0.2869 0.79893 0.0
H1024 H 0.95115 0.30942 0.82423 0.0
H1025 H 0.90878 0.35722 0.82711 0.0
H1026 H 0.959 0.43882 0.81651 0.0
H1027 H 0.94077 0.41013 0.81817 0.0
H1028 H 0.97613 0.36738 0.83881 0.0
C1029 C 0.94123 0.31233 0.81324 0.0
C1030 C 0.92351 0.35915 0.8298 0.0
C1031 C 0.9393 0.29937 0.79878 0.0
C1032 C 0.96193 0.42898 0.82758 0.0
C1033 C 0.95136 0.41264 0.82864 0.0
C1034 C 0.96131 0.36512 0.83685 0.0
C1035 C 0.93124 0.32927 0.81289 0.0
C1036 C 0.93653 0.34514 0.82521 0.0
C1037 C 0.95576 0.39886 0.84186 0.0
C1038 C 0.94856 0.37975 0.83938 0.0
H1039 H 0.90619 0.32214 0.77332 0.0
H1040 H 0.91025 0.34495 0.79759 0.0
H1041 H 0.96596 0.33782 0.82627 0.0
H1042 H 0.99135 0.42062 0.86407 0.0
H1043 H 0.9732 0.39201 0.86548 0.0
C1044 C 0.8347 0.71618 0.076 0.0
C1045 C 0.81768 0.7104 0.06816 0.0
C1046 C 0.85149 0.71257 0.06684 0.0
C1047 C 0.86758 0.70566 0.01892 0.0
H1048 H 0.91603 0.69938 0.04209 0.0
C1049 C 0.93462 0.69832 0.97596 0.0
C1050 C 0.95008 0.70895 0.98166 0.0
C1051 C 0.9189 0.69689 0.98726 0.0
C1052 C 0.90258 0.70126 0.03549 0.0
H1053 H 0.80509 0.69453 0.04569 0.0
H1054 H 0.83445 0.68779 0.02998 0.0
H1055 H 0.88781 0.69746 0.06118 0.0
H1056 H 0.96114 0.72637 0.00381 0.0
H1057 H 0.93344 0.72392 0.02358 0.0
H1058 H 0.88227 0.7096 0.9933 0.0
C1059 C 0.83475 0.69569 0.04286 0.0
C1060 C 0.88644 0.7001 0.04638 0.0
C1061 C 0.81795 0.69945 0.05191 0.0
C1062 C 0.94943 0.71815 -0.00103 0.0
C1063 C 0.93367 0.71661 0.01036 0.0
C1064 C 0.88365 0.70671 0.00806 0.0
C1065 C 0.8516 0.70296 0.04976 0.0
C1066 C 0.86876 0.70242 0.03821 0.0
C1067 C 0.91825 0.70598 0.00456 0.0
C1068 C 0.90131 0.70463 0.01624 0.0
H1069 H 0.83499 0.72463 0.08853 0.0
H1070 H 0.86419 0.71843 0.07253 0.0
H1071 H 0.85425 0.70801 0.01223 0.0
H1072 H 0.93462 0.69102 0.96273 0.0
H1073 H 0.90728 0.68846 0.98251 0.0
C1074 C 0.53751 0.69309 0.25668 0.0
C1075 C 0.52588 0.70244 0.24405 0.0
C1076 C 0.53165 0.67649 0.26491 0.0
C1077 C 0.5068 0.63616 0.25144 0.0
H1078 H 0.51031 0.62087 0.30313 0.0
C1079 C 0.48988 0.56123 0.27595 0.0
C1080 C 0.49909 0.55455 0.29184 0.0
C1081 C 0.49284 0.57949 0.26988 0.0
C1082 C 0.50959 0.62482 0.28858 0.0
H1083 H 0.49875 0.70264 0.23081 0.0
H1084 H 0.48863 0.67314 0.24489 0.0
H1085 H 0.51402 0.65369 0.29503 0.0
H1086 H 0.51975 0.56087 0.31292 0.0
H1087 H 0.52591 0.59231 0.30165 0.0
H1088 H 0.50344 0.60733 0.2447 0.0
C1089 C 0.50211 0.67885 0.24861 0.0
C1090 C 0.51143 0.64364 0.28404 0.0
C1091 C 0.50781 0.69572 0.24072 0.0
C1092 C 0.51242 0.56581 0.30067 0.0
C1093 C 0.5157 0.5839 0.29437 0.0
C1094 C 0.50531 0.61728 0.25591 0.0
C1095 C 0.51426 0.66884 0.26025 0.0
C1096 C 0.51013 0.64942 0.26544 0.0
C1097 C 0.50535 0.59125 0.27942 0.0
C1098 C 0.50685 0.61134 0.27453 0.0
H1099 H 0.55154 0.69804 0.25931 0.0
H1100 H 0.54126 0.66893 0.27378 0.0
H1101 H 0.50612 0.64032 0.23693 0.0
H1102 H 0.47933 0.55285 0.26908 0.0
H1103 H 0.48453 0.58466 0.25839 0.0
C1104 C 0.22904 0.45626 0.20793 0.0
C1105 C 0.22006 0.46352 0.22378 0.0
C1106 C 0.2245 0.46262 0.19021 0.0
C1107 C 0.18808 0.48488 0.16263 0.0
H1108 H 0.22909 0.49447 0.12866 0.0
C1109 C 0.17908 0.51518 0.0881 0.0
C1110 C 0.19046 0.50749 0.07406 0.0
C1111 C 0.18149 0.51004 0.10672 0.0
C1112 C 0.21749 0.49167 0.13791 0.0
H1113 H 0.19896 0.48302 0.23334 0.0
H1114 H 0.19099 0.49424 0.20204 0.0
H1115 H 0.23562 0.48607 0.16085 0.0
H1116 H 0.21268 0.48765 0.06854 0.0
H1117 H 0.21674 0.4786 0.10097 0.0
H1118 H 0.16996 0.49035 0.1395 0.0
C1119 C 0.20157 0.48356 0.20354 0.0
C1120 C 0.22122 0.48693 0.15636 0.0
C1121 C 0.2062 0.47721 0.22143 0.0
C1122 C 0.20381 0.49402 0.07899 0.0
C1123 C 0.20621 0.48889 0.09759 0.0
C1124 C 0.18433 0.48964 0.14409 0.0
C1125 C 0.21085 0.47642 0.18781 0.0
C1126 C 0.20659 0.48317 0.16881 0.0
C1127 C 0.19534 0.49712 0.11167 0.0
C1128 C 0.19903 0.49276 0.1315 0.0
H1129 H 0.23974 0.44566 0.20912 0.0
H1130 H 0.23164 0.45662 0.17831 0.0
H1131 H 0.17656 0.48193 0.17194 0.0
H1132 H 0.16861 0.52557 0.08482 0.0
H1133 H 0.17297 0.51666 0.11729 0.0
C1134 C 0.74904 0.97798 0.94153 0.0
C1135 C 0.75081 0.99007 0.95683 0.0
C1136 C 0.75624 0.98288 0.92423 0.0
C1137 C 0.76507 0.02409 0.89661 0.0
H1138 H 0.78505 0.98808 0.86147 0.0
C1139 C 0.78337 0.04197 0.82024 0.0
C1140 C 0.77823 0.02881 0.80661 0.0
C1141 C 0.78149 0.03789 0.83912 0.0
C1142 C 0.77936 -0.00177 0.87111 0.0
H1143 H 0.76249 0.01625 0.96641 0.0
H1144 H 0.77506 0.02502 0.9358 0.0
H1145 H 0.78195 0.97964 0.89427 0.0
H1146 H 0.7664 0.00132 0.80213 0.0
H1147 H 0.76296 0.99424 0.83528 0.0
H1148 H 0.76213 0.04255 0.87336 0.0
C1149 C 0.76797 0.01177 0.93731 0.0
C1150 C 0.77772 0.99346 0.88988 0.0
C1151 C 0.76089 0.00673 0.95479 0.0
C1152 C 0.7705 0.01173 0.81228 0.0
C1153 C 0.76871 0.00761 0.83123 0.0
C1154 C 0.76677 0.02888 0.87783 0.0
C1155 C 0.76531 4e-05 0.9218 0.0
C1156 C 0.77014 0.00618 0.90272 0.0
C1157 C 0.77448 0.02054 0.84481 0.0
C1158 C 0.77354 0.01585 0.86485 0.0
H1159 H 0.74152 0.96492 0.94276 0.0
H1160 H 0.75379 0.97363 0.91254 0.0
H1161 H 0.75893 0.03407 0.90614 0.0
H1162 H 0.78927 0.05532 0.81635 0.0
H1163 H 0.78609 0.04809 0.84928 0.0
C1164 C 0.76164 0.96683 0.29489 0.0
C1165 C 0.74629 0.95474 0.2932 0.0
C1166 C 0.76877 0.97135 0.31243 0.0
C1167 C 0.75589 0.97287 0.36205 0.0
H1168 H 0.80935 0.97437 0.37011 0.0
C1169 C 0.78727 0.98374 0.43506 0.0
C1170 C 0.80197 0.99666 0.43633 0.0
C1171 C 0.78108 0.9775 0.41769 0.0
C1172 C 0.79439 0.97414 0.36803 0.0
H1173 H 0.72644 0.9379 0.30873 0.0
H1174 H 0.73897 0.94572 0.33923 0.0
H1175 H 0.79719 0.96606 0.33942 0.0
H1176 H 0.82201 0.01274 0.42026 0.0
H1177 H 0.81107 0.00198 0.39004 0.0
H1178 H 0.75306 0.98108 0.39057 0.0
C1179 C 0.74535 0.95185 0.32698 0.0
C1180 C 0.78744 0.96941 0.35047 0.0
C1181 C 0.73824 0.94731 0.30947 0.0
C1182 C 0.81065 0.0028 0.41984 0.0
C1183 C 0.80445 0.99655 0.40249 0.0
C1184 C 0.76284 0.9776 0.37959 0.0
C1185 C 0.76069 0.96391 0.32866 0.0
C1186 C 0.76812 0.96878 0.3473 0.0
C1187 C 0.78946 0.98402 0.40122 0.0
C1188 C 0.78216 0.97833 0.38275 0.0
H1189 H 0.76821 0.97279 0.28266 0.0
H1190 H 0.78048 0.98085 0.31331 0.0
H1191 H 0.74093 0.97276 0.35996 0.0
H1192 H 0.78035 0.9786 0.44746 0.0
H1193 H 0.76967 0.96762 0.41715 0.0
C1194 C 0.23405 0.54109 0.6875 0.0
C1195 C 0.23673 0.52936 0.70299 0.0
C1196 C 0.24341 0.53777 0.67086 0.0
C1197 C 0.2833 0.51495 0.64918 0.0
H1198 H 0.25145 0.51483 0.60545 0.0
C1199 C 0.30881 0.49208 0.57614 0.0
C1200 C 0.30209 0.50215 0.56071 0.0
C1201 C 0.30179 0.49546 0.59397 0.0
C1202 C 0.26059 0.51507 0.61746 0.0
H1203 H 0.25217 0.50548 0.71338 0.0
H1204 H 0.26867 0.49969 0.68399 0.0
H1205 H 0.23793 0.52053 0.63602 0.0
H1206 H 0.28316 0.5241 0.55202 0.0
H1207 H 0.27116 0.53024 0.58317 0.0
H1208 H 0.30603 0.50973 0.63052 0.0
C1209 C 0.25919 0.51142 0.68492 0.0
C1210 C 0.25283 0.51825 0.63497 0.0
C1211 C 0.24972 0.51471 0.70168 0.0
C1212 C 0.28849 0.51596 0.56356 0.0
C1213 C 0.28156 0.51941 0.58141 0.0
C1214 C 0.29112 0.51187 0.63158 0.0
C1215 C 0.25573 0.52268 0.66926 0.0
C1216 C 0.26412 0.5184 0.65095 0.0
C1217 C 0.28797 0.50905 0.59677 0.0
C1218 C 0.27984 0.51206 0.61553 0.0
H1219 H 0.22438 0.55269 0.68802 0.0
H1220 H 0.24078 0.54688 0.65909 0.0
H1221 H 0.29229 0.5151 0.66132 0.0
H1222 H 0.31926 0.48129 0.57444 0.0
H1223 H 0.30687 0.4871 0.60547 0.0
C1224 C 0.27283 0.44647 0.48916 0.0
C1225 C 0.28802 0.44534 0.5015 0.0
C1226 C 0.26302 0.43038 0.48404 0.0
C1227 C 0.25556 0.38072 0.49695 0.0
H1228 H 0.2479 0.37369 0.44388 0.0
C1229 C 0.24888 0.30833 0.46339 0.0
C1230 C 0.23585 0.30579 0.44897 0.0
C1231 C 0.25216 0.32605 0.47076 0.0
C1232 C 0.24964 0.37554 0.45877 0.0
H1233 H 0.30423 0.42649 0.51881 0.0
H1234 H 0.28734 0.39863 0.5098 0.0
H1235 H 0.25862 0.40382 0.45548 0.0
H1236 H 0.2159 0.31999 0.43112 0.0
H1237 H 0.22175 0.35095 0.44402 0.0
H1238 H 0.2472 0.35224 0.50015 0.0
C1239 C 0.28286 0.41191 0.50416 0.0
C1240 C 0.25574 0.39282 0.46543 0.0
C1241 C 0.29266 0.42791 0.50921 0.0
C1242 C 0.22605 0.32141 0.44222 0.0
C1243 C 0.22943 0.33917 0.44954 0.0
C1244 C 0.24952 0.36345 0.49029 0.0
C1245 C 0.26814 0.41288 0.49127 0.0
C1246 C 0.25919 0.39546 0.48454 0.0
C1247 C 0.24257 0.34167 0.46385 0.0
C1248 C 0.24692 0.36055 0.47109 0.0
H1249 H 0.26886 0.45967 0.48297 0.0
H1250 H 0.25162 0.4316 0.47422 0.0
H1251 H 0.25776 0.38242 0.51179 0.0
H1252 H 0.25669 0.29666 0.46894 0.0
H1253 H 0.26258 0.32757 0.48159 0.0
C1254 C 0.94305 0.93909 0.69535 0.0
C1255 C 0.96007 0.94307 0.70414 0.0
C1256 C 0.92696 0.93639 0.70594 0.0
C1257 C 0.91131 0.95411 0.75155 0.0
H1258 H 0.86357 0.94344 0.72869 0.0
C1259 C 0.85227 0.006 0.75569 0.0
C1260 C 0.83355 0.00051 0.75411 0.0
C1261 C 0.86654 0.99286 0.75464 0.0
C1262 C 0.87667 0.94623 0.73564 0.0
H1263 H 0.97441 0.94378 0.73068 0.0
H1264 H 0.94664 0.93755 0.74921 0.0
H1265 H 0.8911 0.92671 0.71836 0.0
H1266 H 0.81511 0.97671 0.75093 0.0
H1267 H 0.84013 0.95363 0.74949 0.0
H1268 H 0.89682 0.97332 0.76907 0.0
C1269 C 0.94532 0.93785 0.73418 0.0
C1270 C 0.89261 0.9368 0.72949 0.0
C1271 C 0.96134 0.94115 0.72357 0.0
C1272 C 0.82942 0.98143 0.75202 0.0
C1273 C 0.84376 0.9682 0.75117 0.0
C1274 C 0.89534 0.96312 0.75802 0.0
C1275 C 0.92766 0.93719 0.72558 0.0
C1276 C 0.91036 0.94167 0.73636 0.0
C1277 C 0.86254 0.97379 0.75224 0.0
C1278 C 0.87808 0.96034 0.74921 0.0
H1279 H 0.94162 0.94036 0.68036 0.0
H1280 H 0.91383 0.93581 0.69855 0.0
H1281 H 0.92451 0.95833 0.75749 0.0
H1282 H 0.85601 0.02057 0.75719 0.0
H1283 H 0.88078 0.99787 0.755 0.0
C1284 C 0.28798 0.69201 0.98996 0.0
C1285 C 0.28866 0.68804 0.97078 0.0
C1286 C 0.28837 0.67754 0.00305 0.0
C1287 C 0.28985 0.62489 0.00652 0.0
H1288 H 0.25015 0.63371 0.04204 0.0
C1289 C 0.24437 0.56401 0.03083 0.0
C1290 C 0.22519 0.568 0.03044 0.0
C1291 C 0.25748 0.57848 0.03084 0.0
C1292 C 0.26122 0.63094 0.03215 0.0
H1293 H 0.29213 0.66589 0.95041 0.0
H1294 H 0.29181 0.64094 0.97276 0.0
H1295 H 0.2653 0.65992 0.02739 0.0
H1296 H 0.20471 0.59029 0.03057 0.0
H1297 H 0.22721 0.61523 0.0296 0.0
H1298 H 0.2841 0.59589 0.00955 0.0
C1299 C 0.29145 0.65507 0.97806 0.0
C1300 C 0.27027 0.64609 0.02395 0.0
C1301 C 0.29144 0.6695 0.96507 0.0
C1302 C 0.21938 0.58669 0.03092 0.0
C1303 C 0.23242 0.60109 0.03058 0.0
C1304 C 0.28038 0.60973 0.01428 0.0
C1305 C 0.28901 0.65879 0.9972 0.0
C1306 C 0.28389 0.64326 0.01009 0.0
C1307 C 0.25167 0.59723 0.03009 0.0
C1308 C 0.26514 0.61262 0.02629 0.0
H1309 H 0.2862 0.7062 0.99485 0.0
H1310 H 0.28711 0.68105 0.01768 0.0
H1311 H 0.30087 0.62211 0.99659 0.0
H1312 H 0.24928 0.54972 0.03074 0.0
H1313 H 0.27215 0.57491 0.03085 0.0
C1314 C 0.56379 0.05226 0.20052 0.0
C1315 C 0.56553 0.05437 0.18116 0.0
C1316 C 0.57966 0.05001 0.21165 0.0
C1317 C 0.63233 0.04551 0.2087 0.0
H1318 H 0.62321 0.00763 0.24605 0.0
C1319 C 0.69211 -0.00138 0.23627 0.0
C1320 C 0.68737 0.97979 0.23896 0.0
C1321 C 0.67816 0.01204 0.23348 0.0
C1322 C 0.62608 0.01807 0.23553 0.0
H1323 H 0.58522 0.05708 0.15838 0.0
H1324 H 0.61253 0.05199 0.17724 0.0
H1325 H 0.59729 0.02447 0.23307 0.0
H1326 H 0.66432 0.96025 0.24061 0.0
H1327 H 0.64036 0.98313 0.23488 0.0
H1328 H 0.66099 0.03749 0.20979 0.0
C1329 C 0.59922 0.05274 0.18429 0.0
C1330 C 0.61111 0.02817 0.2283 0.0
C1331 C 0.58342 0.0556 0.17332 0.0
C1332 C 0.66847 0.97468 0.23885 0.0
C1333 C 0.65464 0.98794 0.23573 0.0
C1334 C 0.64726 0.03497 0.21552 0.0
C1335 C 0.59756 0.04905 0.20352 0.0
C1336 C 0.61387 0.04152 0.21417 0.0
C1337 C 0.65922 0.00684 0.233 0.0
C1338 C 0.6442 0.02053 0.22844 0.0
H1339 H 0.55014 0.05148 0.20695 0.0
H1340 H 0.57773 0.04802 0.22647 0.0
H1341 H 0.63525 0.05616 0.19842 0.0
H1342 H 0.70657 0.00298 0.23638 0.0
H1343 H 0.68227 0.02645 0.23165 0.0
C1344 C 0.71543 0.1857 0.53173 0.0
C1345 C 0.71394 0.18275 0.55102 0.0
C1346 C 0.7177 0.17061 0.5196 0.0
C1347 C 0.7386 0.13993 0.50016 0.0
H1348 H 0.72642 0.08927 0.5144 0.0
C1349 C 0.7876 0.07953 0.48427 0.0
C1350 C 0.781 0.06111 0.48395 0.0
C1351 C 0.7754 0.09431 0.48759 0.0
C1352 C 0.72969 0.10327 0.5098 0.0
H1353 H 0.71274 0.16177 0.57272 0.0
H1354 H 0.71775 0.13565 0.55192 0.0
H1355 H 0.71004 0.11499 0.52885 0.0
H1356 H 0.75628 0.04378 0.4854 0.0
H1357 H 0.73477 0.06967 0.49028 0.0
H1358 H 0.75778 0.1282 0.48066 0.0
C1359 C 0.71649 0.1494 0.54584 0.0
C1360 C 0.72048 0.11812 0.5184 0.0
C1361 C 0.71374 0.16443 0.55787 0.0
C1362 C 0.76178 0.05785 0.48582 0.0
C1363 C 0.74948 0.0727 0.48874 0.0
C1364 C 0.74744 0.12508 0.4912 0.0
C1365 C 0.7191 0.1523 0.52657 0.0
C1366 C 0.72551 0.13666 0.51443 0.0
C1367 C 0.75621 0.09109 0.49029 0.0
C1368 C 0.74384 0.10657 0.49661 0.0
H1369 H 0.71537 0.19971 0.52608 0.0
H1370 H 0.71907 0.17342 0.50483 0.0
H1371 H 0.74298 0.15392 0.4966 0.0
H1372 H 0.80237 0.08248 0.483 0.0
H1373 H 0.78129 0.10813 0.48902 0.0
C1374 C 0.17007 0.4799 0.73386 0.0
C1375 C 0.16554 0.49896 0.73325 0.0
C1376 C 0.15603 0.46638 0.73341 0.0
C1377 C 0.10363 0.4612 0.73092 0.0
H1378 H 0.11287 0.42384 0.76875 0.0
C1379 C 0.04328 0.43939 0.77574 0.0
C1380 C 0.04776 0.44039 0.79479 0.0
C1381 C 0.05732 0.43681 0.76244 0.0
C1382 C 0.10995 0.43423 0.75821 0.0
H1383 H 0.1429 0.51878 0.73051 0.0
H1384 H 0.11852 0.49562 0.73081 0.0
H1385 H 0.13884 0.44016 0.75494 0.0
H1386 H 0.07004 0.43713 0.81495 0.0
H1387 H 0.09436 0.43372 0.79217 0.0
H1388 H 0.07473 0.45712 0.73592 0.0
C1389 C 0.1328 0.49075 0.73097 0.0
C1390 C 0.12499 0.44344 0.74993 0.0
C1391 C 0.14685 0.5042 0.73097 0.0
C1392 C 0.06611 0.43658 0.80037 0.0
C1393 C 0.08018 0.43448 0.78711 0.0
C1394 C 0.08858 0.45248 0.73967 0.0
C1395 C 0.13711 0.47165 0.73285 0.0
C1396 C 0.12196 0.45798 0.73709 0.0
C1397 C 0.07616 0.43576 0.76791 0.0
C1398 C 0.09153 0.43982 0.7544 0.0
H1399 H 0.18444 0.47546 0.73531 0.0
H1400 H 0.16001 0.45184 0.73432 0.0
H1401 H 0.10071 0.47159 0.72036 0.0
H1402 H 0.02915 0.44188 0.77103 0.0
H1403 H 0.05348 0.43703 0.74785 0.0
C1404 C 0.76313 0.92764 0.02396 0.0
C1405 C 0.74868 0.92847 0.01073 0.0
C1406 C 0.77165 0.91063 0.02823 0.0
C1407 C 0.77703 0.86172 0.01192 0.0
H1408 H 0.77998 0.85044 0.06469 0.0
C1409 C 0.77323 0.78744 0.04156 0.0
C1410 C 0.78288 0.78322 0.05809 0.0
C1411 C 0.77385 0.8054 0.03408 0.0
C1412 C 0.77967 0.85344 0.0499 0.0
H1413 H 0.7324 0.91212 0.99109 0.0
H1414 H 0.74705 0.88258 -0.00129 0.0
H1415 H 0.77231 0.88192 0.05474 0.0
H1416 H 0.80187 0.79429 0.07894 0.0
H1417 H 0.80304 0.82556 0.06574 0.0
H1418 H 0.78373 0.83299 0.00713 0.0
C1419 C 0.75195 0.89507 0.00565 0.0
C1420 C 0.77526 0.87152 0.04419 0.0
C1421 C 0.74341 0.91202 0.00142 0.0
C1422 C 0.79409 0.79708 0.0663 0.0
C1423 C 0.79472 0.81503 0.05879 0.0
C1424 C 0.78146 0.84362 0.01763 0.0
C1425 C 0.76595 0.89412 0.0193 0.0
C1426 C 0.77339 0.87573 0.02516 0.0
C1427 C 0.78417 0.81953 0.04292 0.0
C1428 C 0.78234 0.83918 0.0367 0.0
H1429 H 0.76758 0.94004 0.03136 0.0
H1430 H 0.78252 0.91034 0.03871 0.0
H1431 H 0.776 0.86464 0.99714 0.0
H1432 H 0.76448 0.77713 0.03483 0.0
H1433 H 0.76541 0.80844 0.02193 0.0
C1434 C 0.29472 0.47768 0.26734 0.0
C1435 C 0.27908 0.47896 0.27907 0.0
C1436 C 0.31015 0.48916 0.27016 0.0
C1437 C 0.33544 0.51203 0.30704 0.0
H1438 H 0.36387 0.53288 0.26602 0.0
C1439 C 0.41167 0.53441 0.31742 0.0
C1440 C 0.42366 0.52634 0.30414 0.0
C1441 C 0.39242 0.53511 0.3142 0.0
C1442 C 0.35607 0.52722 0.27766 0.0
H1443 H 0.26718 0.49364 0.30272 0.0
H1444 H 0.29452 0.51347 0.30794 0.0
H1445 H 0.33226 0.52147 0.26056 0.0
H1446 H 0.42499 0.51407 0.2765 0.0
H1447 H 0.39172 0.51508 0.27103 0.0
H1448 H 0.35961 0.51655 0.32388 0.0
C1449 C 0.29465 0.50364 0.29646 0.0
C1450 C 0.33798 0.52074 0.27452 0.0
C1451 C 0.27903 0.49233 0.29344 0.0
C1452 C 0.41616 0.52023 0.2871 0.0
C1453 C 0.39702 0.52099 0.28388 0.0
C1454 C 0.35361 0.51837 0.31015 0.0
C1455 C 0.31041 0.50204 0.28493 0.0
C1456 C 0.32778 0.51243 0.28902 0.0
C1457 C 0.38484 0.52788 0.2976 0.0
C1458 C 0.3644 0.52532 0.29531 0.0
H1459 H 0.29516 0.46762 0.25607 0.0
H1460 H 0.3222 0.48744 0.26121 0.0
H1461 H 0.32792 0.5056 0.31844 0.0
H1462 H 0.417 0.53929 0.33068 0.0
H1463 H 0.38341 0.54071 0.32496 0.0
C1464 C 0.51075 0.26046 0.39475 0.0
C1465 C 0.50929 0.25613 0.41376 0.0
C1466 C 0.50726 0.24691 0.38127 0.0
C1467 C 0.48124 0.20231 0.37661 0.0
H1468 H 0.49291 0.21249 0.32496 0.0
C1469 C 0.45014 0.19476 0.29659 0.0
C1470 C 0.43135 0.19516 0.30194 0.0
C1471 C 0.46416 0.19333 0.31006 0.0
C1472 C 0.48965 0.20882 0.33921 0.0
H1473 H 0.50487 0.23383 0.43363 0.0
H1474 H 0.49998 0.20976 0.41011 0.0
H1475 H 0.51173 0.22611 0.34904 0.0
H1476 H 0.41226 0.19322 0.32517 0.0
H1477 H 0.43627 0.19223 0.34867 0.0
H1478 H 0.45994 0.18405 0.36681 0.0
C1479 C 0.50286 0.22384 0.4055 0.0
C1480 C 0.50033 0.21713 0.35319 0.0
C1481 C 0.50583 0.23759 0.41904 0.0
C1482 C 0.4267 0.19276 0.32073 0.0
C1483 C 0.44066 0.19209 0.33426 0.0
C1484 C 0.47105 0.19337 0.36262 0.0
C1485 C 0.50268 0.22847 0.3864 0.0
C1486 C 0.49535 0.2152 0.37206 0.0
C1487 C 0.45967 0.19328 0.32922 0.0
C1488 C 0.4741 0.19765 0.3437 0.0
H1489 H 0.51326 0.27467 0.39024 0.0
H1490 H 0.50697 0.25138 0.36687 0.0
H1491 H 0.47699 0.20006 0.3909 0.0
H1492 H 0.45399 0.19645 0.28208 0.0
H1493 H 0.4785 0.19341 0.30538 0.0
C1494 C 0.00188 0.26754 0.57487 0.0
C1495 C 0.00479 0.24882 0.57998 0.0
C1496 C 0.00188 0.28165 0.58842 0.0
C1497 C 0.01118 0.28957 0.63947 0.0
H1498 H 0.96961 0.32372 0.63536 0.0
C1499 C 0.975 0.30878 0.70559 0.0
C1500 C 0.95558 0.3069 0.7041 0.0
C1501 C 0.98576 0.3125 0.68975 0.0
C1502 C 0.98121 0.31419 0.63689 0.0
H1503 H 0.01051 0.23037 0.60329 0.0
H1504 H 0.00971 0.25441 0.62666 0.0
H1505 H 0.98016 0.30699 0.60801 0.0
H1506 H 0.932 0.30974 0.68544 0.0
H1507 H 0.9504 0.3148 0.65797 0.0
H1508 H 0.01087 0.29467 0.66855 0.0
C1509 C 0.00806 0.25857 0.61225 0.0
C1510 C 0.98754 0.30482 0.62099 0.0
C1511 C 0.00828 0.24461 0.59877 0.0
C1512 C 0.94697 0.311 0.68703 0.0
C1513 C 0.95772 0.31403 0.67111 0.0
C1514 C 0.00444 0.29838 0.65544 0.0
C1515 C 0.0046 0.27728 0.60736 0.0
C1516 C 0.00177 0.29139 0.62239 0.0
C1517 C 0.97737 0.31349 0.67198 0.0
C1518 C 0.98844 0.30979 0.65463 0.0
H1519 H -0.00068 0.27129 0.56047 0.0
H1520 H -0.00062 0.29589 0.58407 0.0
H1521 H 0.02283 0.28007 0.6409 0.0
H1522 H 0.98196 0.30607 0.71872 0.0
H1523 H 0.00075 0.31304 0.69133 0.0
C1524 C 0.9816 0.76523 0.91458 0.0
C1525 C 0.9804 0.74599 0.91102 0.0
C1526 C 0.98112 0.77808 0.89988 0.0
C1527 C 0.97759 0.78047 0.84723 0.0
H1528 H 0.01612 0.81767 0.85372 0.0
C1529 C 0.02206 0.79903 0.78483 0.0
C1530 C 0.04121 0.79911 0.78896 0.0
C1531 C 0.00888 0.80158 0.79901 0.0
C1532 C 0.00543 0.80724 0.85155 0.0
H1533 H 0.97643 0.72526 0.88932 0.0
H1534 H 0.97667 0.74711 0.86397 0.0
H1535 H 0.00248 0.80313 0.88078 0.0
H1536 H 0.06153 0.8038 0.81087 0.0
H1537 H 0.03907 0.80705 0.83541 0.0
H1538 H 0.98227 0.78266 0.81807 0.0
C1539 C 0.97736 0.7527 0.87796 0.0
C1540 C 0.99723 0.7991 0.86723 0.0
C1541 C 0.97742 0.73997 0.89263 0.0
C1542 C 0.04689 0.80353 0.80716 0.0
C1543 C 0.0338 0.80559 0.82136 0.0
C1544 C 0.98632 0.78804 0.83156 0.0
C1545 C 0.97989 0.77192 0.88125 0.0
C1546 C 0.98409 0.78464 0.86527 0.0
C1547 C 0.01457 0.8037 0.81772 0.0
C1548 C 0.0013 0.80059 0.83353 0.0
H1549 H 0.98361 0.77034 0.92866 0.0
H1550 H 0.98254 0.79275 0.90312 0.0
H1551 H 0.96675 0.77018 0.84507 0.0
H1552 H 0.01723 0.79602 0.77084 0.0
H1553 H 0.99425 0.80079 0.7954 0.0
C1554 C 0.52706 0.71803 0.14705 0.0
C1555 C 0.51713 0.72109 0.1636 0.0
C1556 C 0.51799 0.71898 0.12987 0.0
C1557 C 0.47574 0.74176 0.11045 0.0
H1558 H 0.50084 0.72819 0.06462 0.0
C1559 C 0.48427 0.76609 0.02795 0.0
C1560 C 0.48253 0.78534 0.03124 0.0
C1561 C 0.48227 0.75333 0.04258 0.0
C1562 C 0.49321 0.73186 0.07711 0.0
H1563 H 0.48972 0.72522 0.17551 0.0
H1564 H 0.47353 0.72532 0.14564 0.0
H1565 H 0.50815 0.71165 0.09303 0.0
H1566 H 0.47655 0.80625 0.05226 0.0
H1567 H 0.47407 0.78444 0.07771 0.0
H1568 H 0.46017 0.76134 0.09439 0.0
C1569 C 0.48849 0.72337 0.14567 0.0
C1570 C 0.49773 0.72255 0.09363 0.0
C1571 C 0.49769 0.72306 0.16285 0.0
C1572 C 0.47786 0.7915 0.04921 0.0
C1573 C 0.47627 0.77885 0.06387 0.0
C1574 C 0.47076 0.7506 0.09385 0.0
C1575 C 0.49866 0.72252 0.12886 0.0
C1576 C 0.49001 0.72825 0.11076 0.0
C1577 C 0.47891 0.75959 0.0609 0.0
C1578 C 0.48034 0.74669 0.07719 0.0
H1579 H 0.5421 0.71661 0.14726 0.0
H1580 H 0.52656 0.71841 0.11747 0.0
H1581 H 0.46924 0.74666 0.12315 0.0
H1582 H 0.48766 0.76091 0.01417 0.0
H1583 H 0.48394 0.73863 0.03958 0.0
C1584 C 0.20277 0.29595 0.36044 0.0
C1585 C 0.19241 0.29227 0.37661 0.0
C1586 C 0.19679 0.3095 0.34784 0.0
C1587 C 0.17262 0.35356 0.34793 0.0
H1588 H 0.18261 0.35052 0.2949 0.0
C1589 C 0.20933 0.40923 0.30675 0.0
C1590 C 0.20645 0.41103 0.28752 0.0
C1591 C 0.19845 0.397 0.31719 0.0
C1592 C 0.17918 0.35163 0.30957 0.0
H1593 H 0.16721 0.29921 0.39189 0.0
H1594 H 0.15693 0.32318 0.36993 0.0
H1595 H 0.18079 0.32204 0.31325 0.0
H1596 H 0.18972 0.40208 0.26408 0.0
H1597 H 0.17069 0.38032 0.28234 0.0
H1598 H 0.17219 0.38324 0.34444 0.0
C1599 C 0.16962 0.31552 0.36702 0.0
C1600 C 0.17836 0.3353 0.32011 0.0
C1601 C 0.17551 0.30179 0.37954 0.0
C1602 C 0.19194 0.40108 0.27899 0.0
C1603 C 0.18111 0.38866 0.28941 0.0
C1604 C 0.17349 0.36992 0.3374 0.0
C1605 C 0.18041 0.31975 0.35124 0.0
C1606 C 0.17609 0.33619 0.33952 0.0
C1607 C 0.18484 0.3859 0.30846 0.0
C1608 C 0.17781 0.36915 0.3183 0.0
H1609 H 0.21581 0.28879 0.3578 0.0
H1610 H 0.20555 0.31264 0.33594 0.0
H1611 H 0.17083 0.35468 0.36289 0.0
H1612 H 0.22093 0.41619 0.31347 0.0
H1613 H 0.20195 0.39498 0.33174 0.0
C1614 C 0.84912 0.00152 0.52565 0.0
C1615 C 0.84871 0.99382 0.50773 0.0
C1616 C 0.85767 0.99203 0.54022 0.0
C1617 C 0.893 0.95524 0.54886 0.0
H1618 H 0.88121 0.96951 0.59957 0.0
C1619 C 0.94983 0.95724 0.60429 0.0
C1620 C 0.94528 0.95882 0.62319 0.0
C1621 C 0.93579 0.95573 0.59092 0.0
C1622 C 0.88467 0.96481 0.58567 0.0
H1623 H 0.85687 0.97036 0.49066 0.0
H1624 H 0.87102 0.95297 0.51644 0.0
H1625 H 0.85929 0.97608 0.5751 0.0
H1626 H 0.92287 0.95854 0.64335 0.0
H1627 H 0.89831 0.95422 0.62028 0.0
H1628 H 0.9177 0.9427 0.55956 0.0
C1629 C 0.86511 0.96656 0.51927 0.0
C1630 C 0.87214 0.96904 0.57142 0.0
C1631 C 0.85691 0.97639 0.50451 0.0
C1632 C 0.9266 0.95763 0.62873 0.0
C1633 C 0.91254 0.95534 0.61541 0.0
C1634 C 0.90519 0.95029 0.56323 0.0
C1635 C 0.86588 0.97442 0.53731 0.0
C1636 C 0.87671 0.96548 0.55267 0.0
C1637 C 0.91684 0.95506 0.5962 0.0
C1638 C 0.90183 0.95609 0.58171 0.0
H1639 H 0.84329 0.01523 0.52828 0.0
H1640 H 0.85842 -0.00099 0.55358 0.0
H1641 H 0.89705 0.95197 0.5347 0.0
H1642 H 0.96421 0.95824 0.59975 0.0
H1643 H 0.93997 0.95603 0.57644 0.0
C1644 C 0.23865 0.57924 0.77443 0.0
C1645 C 0.22241 0.56845 0.77566 0.0
C1646 C 0.24602 0.5877 0.79038 0.0
C1647 C 0.22998 0.60721 0.83425 0.0
H1648 H 0.28257 0.61144 0.84603 0.0
C1649 C 0.28082 0.66142 0.87518 0.0
C1650 C 0.26917 0.66574 0.89032 0.0
C1651 C 0.27658 0.64646 0.86342 0.0
C1652 C 0.26784 0.61046 0.84287 0.0
H1653 H 0.20066 0.55847 0.79406 0.0
H1654 H 0.21356 0.57312 0.82199 0.0
H1655 H 0.2725 0.59068 0.82088 0.0
H1656 H 0.24474 0.65704 0.90586 0.0
H1657 H 0.23766 0.6306 0.88574 0.0
H1658 H 0.2252 0.62749 0.85546 0.0
C1659 C 0.22081 0.57481 0.80885 0.0
C1660 C 0.2621 0.59854 0.82852 0.0
C1661 C 0.21354 0.56629 0.79295 0.0
C1662 C 0.25383 0.65419 0.89413 0.0
C1663 C 0.24973 0.6391 0.88253 0.0
C1664 C 0.2357 0.6192 0.84844 0.0
C1665 C 0.23694 0.58587 0.80767 0.0
C1666 C 0.24313 0.597 0.82393 0.0
C1667 C 0.2607 0.63539 0.86669 0.0
C1668 C 0.25471 0.62118 0.8528 0.0
H1669 H 0.24544 0.58136 0.76111 0.0
H1670 H 0.2583 0.59639 0.78901 0.0
H1671 H 0.21528 0.60656 0.83082 0.0
H1672 H 0.29274 0.6701 0.8719 0.0
H1673 H 0.28525 0.64417 0.85127 0.0
C1674 C 0.58217 0.07288 0.08791 0.0
C1675 C 0.58023 0.05866 0.10126 0.0
C1676 C 0.59856 0.07428 0.07736 0.0
C1677 C 0.64764 0.05834 0.07532 0.0
H1678 H 0.63887 0.05131 0.02244 0.0
C1679 C 0.68601 0.02694 0.00497 0.0
C1680 C 0.6918 0.01017 0.01325 0.0
C1681 C 0.67616 0.04017 0.01545 0.0
C1682 C 0.64173 0.05385 0.03705 0.0
H1683 H 0.59412 0.03548 0.11481 0.0
H1684 H 0.6226 0.03801 0.09665 0.0
H1685 H 0.61355 0.06212 0.04239 0.0
H1686 H 0.69111 0.99354 0.03841 0.0
H1687 H 0.67441 0.01657 0.05676 0.0
H1688 H 0.67545 0.04876 0.0702 0.0
C1689 C 0.61158 0.04807 0.09425 0.0
C1690 C 0.62721 0.06003 0.04849 0.0
C1691 C 0.59517 0.04646 0.10449 0.0
C1692 C 0.68755 0.00675 0.03199 0.0
C1693 C 0.67797 0.01996 0.04247 0.0
C1694 C 0.66216 0.05223 0.0639 0.0
C1695 C 0.61334 0.06177 0.08036 0.0
C1696 C 0.62976 0.06122 0.06787 0.0
C1697 C 0.6719 0.03669 0.03427 0.0
C1698 C 0.65899 0.04882 0.04487 0.0
H1699 H 0.57083 0.08249 0.08521 0.0
H1700 H 0.59957 0.0849 0.06667 0.0
H1701 H 0.65002 0.05946 0.09019 0.0
H1702 H 0.6888 0.0296 0.99037 0.0
H1703 H 0.67145 0.05286 0.00875 0.0
C1704 C 0.69412 0.16811 0.64769 0.0
C1705 C 0.70784 0.17045 0.63391 0.0
C1706 C 0.6951 0.15299 0.66003 0.0
C1707 C 0.71581 0.10668 0.66732 0.0
H1708 H 0.72469 0.12256 0.7182 0.0
C1709 C 0.7658 0.06828 0.71534 0.0
C1710 C 0.76381 0.0694 0.73472 0.0
C1711 C 0.75307 0.07714 0.70364 0.0
C1712 C 0.72171 0.11763 0.70425 0.0
H1713 H 0.73259 0.15842 0.62139 0.0
H1714 H 0.734 0.13186 0.64256 0.0
H1715 H 0.71211 0.14461 0.69575 0.0
H1716 H 0.74719 0.0805 0.7573 0.0
H1717 H 0.72439 0.09562 0.73686 0.0
H1718 H 0.7258 0.07982 0.6756 0.0
C1719 C 0.72263 0.14171 0.64398 0.0
C1720 C 0.71454 0.13035 0.69137 0.0
C1721 C 0.72192 0.15699 0.63199 0.0
C1722 C 0.74876 0.07928 0.74232 0.0
C1723 C 0.73582 0.08799 0.73061 0.0
C1724 C 0.72268 0.09385 0.68026 0.0
C1725 C 0.70948 0.13979 0.65835 0.0
C1726 C 0.71235 0.12521 0.67263 0.0
C1727 C 0.73811 0.08746 0.71111 0.0
C1728 C 0.72662 0.09944 0.69866 0.0
H1729 H 0.68314 0.17834 0.64942 0.0
H1730 H 0.68487 0.15181 0.67109 0.0
H1731 H 0.71404 0.10238 0.65294 0.0
H1732 H 0.77769 0.06121 0.70924 0.0
H1733 H 0.75562 0.07674 0.68877 0.0
C1734 C 0.14911 0.48634 -0.00121 0.0
C1735 C 0.1598 0.50229 0.99529 0.0
C1736 C 0.14239 0.47561 0.98396 0.0
C1737 C 0.14371 0.47103 0.93172 0.0
H1738 H 0.09189 0.4574 0.93874 0.0
C1739 C 0.08716 0.47137 0.87456 0.0
C1740 C 0.07315 0.45771 0.87536 0.0
C1741 C 0.10137 0.47167 0.88791 0.0
C1742 C 0.10646 0.46075 0.9366 0.0
H1743 H 0.17159 0.51998 0.9739 0.0
H1744 H 0.15938 0.50185 0.94802 0.0
H1745 H 0.11023 0.4671 0.96535 0.0
H1746 H 0.06386 0.43276 0.8898 0.0
H1747 H 0.08853 0.43345 0.91314 0.0
H1748 H 0.13923 0.46593 0.90256 0.0
C1749 C 0.15683 0.4969 0.96205 0.0
C1750 C 0.11707 0.46626 0.95192 0.0
C1751 C 0.16377 0.50739 0.97686 0.0
C1752 C 0.07434 0.44361 0.88892 0.0
C1753 C 0.08845 0.44397 0.9023 0.0
C1754 C 0.13296 0.46579 0.91631 0.0
C1755 C 0.14568 0.4811 0.96537 0.0
C1756 C 0.13568 0.472 0.94963 0.0
C1757 C 0.10172 0.45836 0.9023 0.0
C1758 C 0.11411 0.46104 0.91858 0.0
H1759 H 0.14575 0.48234 0.01297 0.0
H1760 H 0.13412 0.46337 0.98707 0.0
H1761 H 0.15812 0.47496 0.92949 0.0
H1762 H 0.08666 0.48235 0.86421 0.0
H1763 H 0.11137 0.48299 0.88766 0.0
C1764 C 0.74972 0.90263 0.20923 0.0
C1765 C 0.75194 0.90402 0.2286 0.0
C1766 C 0.76007 0.88964 0.19906 0.0
C1767 C 0.77633 0.843 0.20615 0.0
H1768 H 0.79488 0.84713 0.15551 0.0
C1769 C 0.80122 0.79078 0.14325 0.0
C1770 C 0.78448 0.78093 0.1406 0.0
C1771 C 0.80179 0.80616 0.15529 0.0
C1772 C 0.79003 0.84583 0.16976 0.0
H1773 H 0.76677 0.89336 0.25259 0.0
H1774 H 0.78478 0.87037 0.23483 0.0
H1775 H 0.78918 0.8755 0.17388 0.0
H1776 H 0.75546 0.77889 0.1488 0.0
H1777 H 0.75665 0.80531 0.17029 0.0
H1778 H 0.77596 0.81346 0.20163 0.0
C1779 C 0.77535 0.87959 0.22746 0.0
C1780 C 0.78672 0.862 0.1802 0.0
C1781 C 0.76512 0.89272 0.23759 0.0
C1782 C 0.76853 0.78627 0.1506 0.0
C1783 C 0.76922 0.8013 0.16292 0.0
C1784 C 0.77934 0.82692 0.19563 0.0
C1785 C 0.7724 0.87746 0.20821 0.0
C1786 C 0.77939 0.86072 0.19834 0.0
C1787 C 0.78576 0.81152 0.16517 0.0
C1788 C 0.78574 0.82823 0.17721 0.0
H1789 H 0.73908 0.91067 0.20214 0.0
H1790 H 0.75727 0.88811 0.18429 0.0
H1791 H 0.77045 0.84159 0.22 0.0
H1792 H 0.81367 0.787 0.13558 0.0
H1793 H 0.81467 0.8139 0.15682 0.0
C1794 C 0.36437 0.53381 0.50149 0.0
C1795 C 0.35252 0.52003 0.4942 0.0
C1796 C 0.37583 0.5442 0.48958 0.0
C1797 C 0.40889 0.54232 0.46207 0.0
H1798 H 0.39619 0.56014 0.41262 0.0
C1799 C 0.4462 0.52114 0.39515 0.0
C1800 C 0.45111 0.53502 0.38229 0.0
C1801 C 0.43614 0.52577 0.41116 0.0
C1802 C 0.40002 0.55561 0.42651 0.0
H1803 H 0.34356 0.50612 0.46895 0.0
H1804 H 0.36232 0.52503 0.44818 0.0
H1805 H 0.3722 0.55912 0.43692 0.0
H1806 H 0.44961 0.56461 0.37607 0.0
H1807 H 0.43128 0.57253 0.40381 0.0
H1808 H 0.43619 0.53699 0.45113 0.0
C1809 C 0.36258 0.52814 0.46296 0.0
C1810 C 0.38634 0.55508 0.44037 0.0
C1811 C 0.35166 0.51741 0.47485 0.0
C1812 C 0.44604 0.55365 0.38583 0.0
C1813 C 0.4356 0.5582 0.40164 0.0
C1814 C 0.42246 0.54254 0.44813 0.0
C1815 C 0.37535 0.54103 0.47025 0.0
C1816 C 0.39049 0.54764 0.458 0.0
C1817 C 0.43051 0.54427 0.41436 0.0
C1818 C 0.41788 0.54841 0.43005 0.0
H1819 H 0.36561 0.5357 0.51643 0.0
H1820 H 0.3858 0.55388 0.49549 0.0
H1821 H 0.41237 0.53631 0.47549 0.0
H1822 H 0.44998 0.50671 0.39276 0.0
H1823 H 0.43212 0.51476 0.42069 0.0
C1824 C 0.25441 0.22393 0.39055 0.0
C1825 C 0.23768 0.21909 0.39937 0.0
C1826 C 0.2649 0.21045 0.3814 0.0
C1827 C 0.28584 0.17079 0.37858 0.0
H1828 H 0.28249 0.17372 0.32473 0.0
C1829 C 0.34637 0.18481 0.33129 0.0
C1830 C 0.34672 0.17816 0.31291 0.0
C1831 C 0.3321 0.17951 0.34337 0.0
C1832 C 0.2834 0.17208 0.33972 0.0
H1833 H 0.21802 0.19678 0.40467 0.0
H1834 H 0.23668 0.1728 0.38828 0.0
H1835 H 0.25639 0.1842 0.34384 0.0
H1836 H 0.33333 0.15969 0.29307 0.0
H1837 H 0.30787 0.15088 0.31413 0.0
H1838 H 0.3137 0.16075 0.37457 0.0
C1839 C 0.24173 0.18701 0.389 0.0
C1840 C 0.26842 0.17806 0.35062 0.0
C1841 C 0.23116 0.20063 0.39828 0.0
C1842 C 0.33334 0.16502 0.30721 0.0
C1843 C 0.3188 0.15998 0.31922 0.0
C1844 C 0.30093 0.16498 0.3677 0.0
C1845 C 0.25868 0.19194 0.38058 0.0
C1846 C 0.27004 0.17851 0.37008 0.0
C1847 C 0.31772 0.1677 0.3372 0.0
C1848 C 0.30026 0.16676 0.34819 0.0
H1849 H 0.25932 0.23823 0.39062 0.0
H1850 H 0.27787 0.2145 0.37476 0.0
H1851 H 0.28724 0.17096 0.3936 0.0
H1852 H 0.35661 0.19485 0.33606 0.0
H1853 H 0.33154 0.18591 0.35706 0.0
C1854 C 0.97903 0.03162 0.66568 0.0
C1855 C 0.99438 0.02152 0.65893 0.0
C1856 C 0.97876 0.05103 0.66449 0.0
C1857 C 0.00725 0.09277 0.658 0.0
H1858 H 0.96708 0.11041 0.62643 0.0
C1859 C 0.98238 0.16019 0.60993 0.0
C1860 C 3e-05 0.16415 0.60244 0.0
C1861 C 0.9803 0.14605 0.62322 0.0
C1862 C 0.97811 0.10604 0.63575 0.0
H1863 H 0.02127 0.02337 0.64544 0.0
H1864 H 0.02105 0.05757 0.64368 0.0
H1865 H 0.96635 0.07873 0.6383 0.0
H1866 H 0.0295 0.15749 0.60403 0.0
H1867 H 0.02586 0.13257 0.62633 0.0
H1868 H 0.01919 0.11995 0.65534 0.0
C1869 C 0.00939 0.05047 0.65015 0.0
C1870 C 0.97771 0.08778 0.64245 0.0
C1871 C 0.00949 0.03101 0.65103 0.0
C1872 C 0.01567 0.15469 0.60943 0.0
C1873 C 0.01358 0.14045 0.62246 0.0
C1874 C 0.00748 0.11118 0.65161 0.0
C1875 C 0.99388 0.0606 0.65659 0.0
C1876 C 0.99264 0.0808 0.65295 0.0
C1877 C 0.99579 0.13546 0.62904 0.0
C1878 C 0.99336 0.11777 0.63965 0.0
H1879 H 0.96704 0.02444 0.67142 0.0
H1880 H 0.96661 0.05856 0.66939 0.0
H1881 H 0.01879 0.08767 0.66632 0.0
H1882 H 0.97009 0.16743 0.60496 0.0
H1883 H 0.96643 0.14291 0.62831 0.0
C1884 C 0.21971 0.7382 0.91557 0.0
C1885 C 0.23676 0.74464 0.90848 0.0
C1886 C 0.20299 0.7462 0.90967 0.0
C1887 C 0.18207 0.78476 0.88215 0.0
H1888 H 0.15025 0.74545 0.86302 0.0
C1889 C 0.11457 0.77043 0.83011 0.0
C1890 C 0.11978 0.78245 0.81557 0.0
C1891 C 0.12553 0.76904 0.84613 0.0
C1892 C 0.15857 0.75673 0.86865 0.0
H1893 H 0.24998 0.76434 0.88989 0.0
H1894 H 0.2207 0.77832 0.87934 0.0
H1895 H 0.17573 0.73764 0.88366 0.0
H1896 H 0.13992 0.8032 0.80676 0.0
H1897 H 0.15948 0.80023 0.83428 0.0
H1898 H 0.16515 0.80382 0.86659 0.0
C1899 C 0.22021 0.7675 0.88987 0.0
C1900 C 0.17326 0.75221 0.88051 0.0
C1901 C 0.23694 0.75945 0.89576 0.0
C1902 C 0.13559 0.79378 0.81775 0.0
C1903 C 0.14672 0.79218 0.83364 0.0
C1904 C 0.1672 0.78934 0.87037 0.0
C1905 C 0.20305 0.76052 0.8963 0.0
C1906 C 0.18553 0.76607 0.88688 0.0
C1907 C 0.14212 0.77939 0.8478 0.0
C1908 C 0.15567 0.77528 0.86296 0.0
H1909 H 0.21928 0.7264 0.92499 0.0
H1910 H 0.18997 0.74058 0.91489 0.0
H1911 H 0.19122 0.79575 0.88704 0.0
H1912 H 0.10226 0.76175 0.82891 0.0
H1913 H 0.12131 0.75939 0.85695 0.0
C1914 C 0.49133 0.00851 0.10647 0.0
C1915 C 0.50828 0.00927 0.11613 0.0
C1916 C 0.48436 0.99136 0.10027 0.0
C1917 C 0.48038 0.9559 0.07742 0.0
H1918 H 0.49082 0.91005 0.10417 0.0
C1919 C 0.46574 0.88443 0.04435 0.0
C1920 C 0.48151 0.87278 0.04413 0.0
C1921 C 0.4651 0.89997 0.05612 0.0
C1922 C 0.48772 0.92275 0.0966 0.0
H1923 H 0.53192 0.99329 0.12591 0.0
H1924 H 0.5201 0.96345 0.11482 0.0
H1925 H 0.49673 0.94006 0.11917 0.0
H1926 H 0.50837 0.86749 0.05695 0.0
H1927 H 0.50721 0.89452 0.07754 0.0
H1928 H 0.47182 0.93859 0.05469 0.0
C1929 C 0.51165 0.97579 0.11272 0.0
C1930 C 0.49116 0.93993 0.10514 0.0
C1931 C 0.51848 0.99286 0.11901 0.0
C1932 C 0.49606 0.87625 0.05676 0.0
C1933 C 0.49535 0.89168 0.06863 0.0
C1934 C 0.47682 0.93873 0.06894 0.0
C1935 C 0.4945 0.9748 0.10325 0.0
C1936 C 0.48809 0.95671 0.09542 0.0
C1937 C 0.48012 0.90402 0.06802 0.0
C1938 C 0.48097 0.92198 0.07823 0.0
H1939 H 0.48344 0.02113 0.10386 0.0
H1940 H 0.47109 0.99109 0.09308 0.0
H1941 H 0.47805 0.9685 0.06943 0.0
H1942 H 0.45427 0.88208 0.03481 0.0
H1943 H 0.45311 0.90914 0.0555 0.0
C1944 C 0.76267 0.24021 0.61801 0.0
C1945 C 0.74499 0.2484 0.61761 0.0
C1946 C 0.77793 0.25019 0.62459 0.0
C1947 C 0.79064 0.29203 0.6526 0.0
H1948 H 0.83958 0.27578 0.63662 0.0
C1949 C 0.85306 0.29812 0.70096 0.0
C1950 C 0.87111 0.29493 0.69428 0.0
C1951 C 0.83799 0.29837 0.6887 0.0
C1952 C 0.82619 0.28107 0.64108 0.0
H1953 H 0.72888 0.27297 0.62434 0.0
H1954 H 0.75582 0.29114 0.63482 0.0
H1955 H 0.81258 0.2655 0.61981 0.0
H1956 H 0.88812 0.29143 0.66965 0.0
H1957 H 0.86212 0.29363 0.64791 0.0
H1958 H 0.80432 0.30873 0.673 0.0
C1959 C 0.758 0.27686 0.63045 0.0
C1960 C 0.81048 0.27469 0.6316 0.0
C1961 C 0.74257 0.26658 0.62433 0.0
C1962 C 0.87418 0.29361 0.67506 0.0
C1963 C 0.85918 0.29466 0.66266 0.0
C1964 C 0.80641 0.29905 0.66162 0.0
C1965 C 0.77594 0.26879 0.63063 0.0
C1966 C 0.79246 0.27906 0.63799 0.0
C1967 C 0.84071 0.29608 0.66935 0.0
C1968 C 0.82439 0.29272 0.6568 0.0
H1969 H 0.76466 0.22595 0.61337 0.0
H1970 H 0.79122 0.24306 0.62519 0.0
H1971 H 0.77708 0.29602 0.65787 0.0
H1972 H 0.85041 0.29907 0.71581 0.0
H1973 H 0.82419 0.29918 0.69472 0.0
C1974 C 0.99381 0.51713 0.8609 0.0
C1975 C 0.00877 0.51064 0.85014 0.0
C1976 C 0.99035 0.53628 0.86225 0.0
C1977 C 0.01474 0.58014 0.86262 0.0
H1978 H 0.96589 0.60259 0.85693 0.0
C1979 C 0.9728 0.64573 0.89483 0.0
C1980 C 0.98761 0.65846 0.89616 0.0
C1981 C 0.97457 0.62959 0.88411 0.0
C1982 C 0.97961 0.59654 0.85865 0.0
H1983 H 0.03244 0.51866 0.8332 0.0
H1984 H 0.02663 0.55219 0.83585 0.0
H1985 H 0.97046 0.56974 0.84887 0.0
H1986 H 0.01516 0.66532 0.88581 0.0
H1987 H 0.01802 0.6375 0.8664 0.0
H1988 H 0.0238 0.60625 0.87351 0.0
C1989 C 0.01729 0.54255 0.84278 0.0
C1990 C 0.98219 0.57777 0.85399 0.0
C1991 C 0.02055 0.52344 0.84121 0.0
C1992 C 0.00361 0.65561 0.88524 0.0
C1993 C 0.00528 0.63958 0.87424 0.0
C1994 C 0.01212 0.59877 0.86756 0.0
C1995 C 0.00219 0.54913 0.85334 0.0
C1996 C -0.0003 0.56936 0.8563 0.0
C1997 C 0.99113 0.62595 0.87423 0.0
C1998 C 0.99442 0.60713 0.86605 0.0
H1999 H 0.98481 0.5074 0.86815 0.0
H2000 H 0.9788 0.54107 0.87072 0.0
H2001 H 0.02835 0.5739 0.86466 0.0
H2002 H 0.96025 0.64756 0.90305 0.0
H2003 H 0.96342 0.61944 0.88464 0.0
C2004 C 0.60791 0.71573 0.15527 0.0
C2005 C 0.60115 0.7048 0.17001 0.0
C2006 C 0.62352 0.71003 0.14516 0.0
C2007 C 0.65351 0.69238 0.12162 0.0
H2008 H 0.69629 0.68303 0.15337 0.0
C2009 C 0.73936 0.69376 0.1174 0.0
C2010 C 0.74063 0.71179 0.10989 0.0
C2011 C 0.72187 0.68632 0.12208 0.0
C2012 C 0.68444 0.68504 0.14422 0.0
H2013 H 0.6049 0.67892 0.18524 0.0
H2014 H 0.63244 0.66907 0.16765 0.0
H2015 H 0.66492 0.68182 0.16656 0.0
H2016 H 0.72515 0.73666 0.10261 0.0
H2017 H 0.69485 0.72368 0.11021 0.0
H2018 H 0.67312 0.69701 0.09965 0.0
C2019 C 0.62561 0.68203 0.16394 0.0
C2020 C 0.66647 0.68439 0.15176 0.0
C2021 C 0.60985 0.68767 0.17397 0.0
C2022 C 0.72441 0.72241 0.10759 0.0
C2023 C 0.70708 0.71498 0.11196 0.0
C2024 C 0.67144 0.69306 0.11412 0.0
C2025 C 0.63278 0.69333 0.14965 0.0
C2026 C 0.65093 0.68905 0.14073 0.0
C2027 C 0.70559 0.6969 0.11927 0.0
C2028 C 0.68708 0.6904 0.12558 0.0
H2029 H 0.60147 0.72897 0.15186 0.0
H2030 H 0.62887 0.7192 0.13442 0.0
H2031 H 0.64175 0.69564 0.11272 0.0
H2032 H 0.75182 0.68553 0.11968 0.0
H2033 H 0.72106 0.67245 0.128 0.0
C2034 C 0.5231 0.47783 0.33782 0.0
C2035 C 0.5037 0.47984 0.33619 0.0
C2036 C 0.53091 0.4601 0.3406 0.0
C2037 C 0.5382 0.423 0.36193 0.0
H2038 H 0.51712 0.38022 0.33633 0.0
C2039 C 0.54451 0.34957 0.39303 0.0
C2040 C 0.5269 0.34118 0.3951 0.0
C2041 C 0.5469 0.36463 0.38086 0.0
C2042 C 0.5233 0.39199 0.34351 0.0
H2043 H 0.47719 0.46549 0.33755 0.0
H2044 H 0.49068 0.43469 0.34195 0.0
H2045 H 0.51165 0.4115 0.32424 0.0
H2046 H 0.49842 0.34095 0.38501 0.0
H2047 H 0.5025 0.3671 0.36393 0.0
H2048 H 0.54859 0.40363 0.38207 0.0
C2049 C 0.49996 0.44653 0.34048 0.0
C2050 C 0.52024 0.40989 0.33653 0.0
C2051 C 0.49223 0.46413 0.33796 0.0
C2052 C 0.51213 0.34718 0.38379 0.0
C2053 C 0.51453 0.36211 0.37157 0.0
C2054 C 0.54117 0.40507 0.369 0.0
C2055 C 0.51935 0.44429 0.34182 0.0
C2056 C 0.52689 0.42559 0.34617 0.0
C2057 C 0.53176 0.37143 0.37044 0.0
C2058 C 0.53294 0.38947 0.36036 0.0
H2059 H 0.53214 0.4899 0.33692 0.0
H2060 H 0.5459 0.45873 0.34187 0.0
H2061 H 0.5434 0.43488 0.36967 0.0
H2062 H 0.55619 0.3452 0.40155 0.0
H2063 H 0.56037 0.37141 0.38015 0.0
C2064 C 0.34834 0.2551 0.24969 0.0
C2065 C 0.35807 0.24902 0.2655 0.0
C2066 C 0.34048 0.27297 0.24935 0.0
C2067 C 0.32152 0.30895 0.27962 0.0
H2068 H 0.3325 0.34335 0.23939 0.0
C2069 C 0.29327 0.38384 0.28154 0.0
C2070 C 0.28648 0.39113 0.26471 0.0
C2071 C 0.3039 0.36749 0.28163 0.0
C2072 C 0.3291 0.33386 0.25063 0.0
H2073 H 0.36613 0.25587 0.29378 0.0
H2074 H 0.35212 0.28695 0.29334 0.0
H2075 H 0.34623 0.31215 0.23916 0.0
H2076 H 0.28598 0.38742 0.2347 0.0
H2077 H 0.30391 0.35866 0.23487 0.0
H2078 H 0.30389 0.33013 0.29085 0.0
C2079 C 0.35095 0.27821 0.28107 0.0
C2080 C 0.337 0.31603 0.25048 0.0
C2081 C 0.35905 0.26054 0.28127 0.0
C2082 C 0.29111 0.38218 0.24791 0.0
C2083 C 0.30149 0.36569 0.24801 0.0
C2084 C 0.3134 0.32664 0.27965 0.0
C2085 C 0.34174 0.28465 0.26506 0.0
C2086 C 0.33327 0.30344 0.26498 0.0
C2087 C 0.3077 0.35791 0.26491 0.0
C2088 C 0.31707 0.33936 0.26517 0.0
H2089 H 0.34716 0.24619 0.23754 0.0
H2090 H 0.33324 0.27759 0.23693 0.0
H2091 H 0.3183 0.29941 0.29088 0.0
H2092 H 0.29004 0.39053 0.2947 0.0
H2093 H 0.30884 0.3622 0.29488 0.0
C2094 C 0.85378 0.09803 0.76797 0.0
C2095 C 0.84719 0.08796 0.75252 0.0
C2096 C 0.8656 0.11326 0.76553 0.0
C2097 C 0.87707 0.1482 0.72967 0.0
H2098 H 0.90957 0.16676 0.76874 0.0
C2099 C 0.91104 0.22099 0.72688 0.0
C2100 C 0.90597 0.23208 0.74219 0.0
C2101 C 0.90823 0.20174 0.72734 0.0
C2102 C 0.90063 0.16164 0.75769 0.0
H2103 H 0.84895 0.085 0.72251 0.0
H2104 H 0.87023 0.11125 0.71823 0.0
H2105 H 0.8979 0.13476 0.77029 0.0
H2106 H 0.89368 0.23219 0.76972 0.0
H2107 H 0.88912 0.19826 0.77077 0.0
H2108 H 0.87983 0.17517 0.71717 0.0
C2109 C 0.86575 0.10778 0.73222 0.0
C2110 C 0.89386 0.14338 0.75858 0.0
C2111 C 0.85366 0.09265 0.73466 0.0
C2112 C 0.89801 0.22375 0.75795 0.0
C2113 C 0.89552 0.20443 0.75856 0.0
C2114 C 0.88412 0.1663 0.72863 0.0
C2115 C 0.87137 0.11866 0.74759 0.0
C2116 C 0.88143 0.13665 0.74492 0.0
C2117 C 0.90035 0.19333 0.74314 0.0
C2118 C 0.89545 0.17335 0.74292 0.0
H2119 H 0.84906 0.09476 0.78194 0.0
H2120 H 0.86932 0.12137 0.77771 0.0
H2121 H 0.86735 0.14372 0.71903 0.0
H2122 H 0.91676 0.22728 0.71439 0.0
H2123 H 0.91194 0.19345 0.71526 0.0
C2124 C 0.02411 0.66711 0.98469 0.0
C2125 C 0.02591 0.68007 0.97019 0.0
C2126 C 0.03992 0.6593 0.99293 0.0
C2127 C 0.08944 0.64986 0.98135 0.0
H2128 H 0.08857 0.62745 0.03049 0.0
C2129 C 0.13556 0.58732 -0.00128 0.0
C2130 C 0.14148 0.58421 0.01709 0.0
C2131 C 0.12349 0.60199 0.9946 0.0
C2132 C 0.08932 0.63388 0.01685 0.0
H2133 H 0.04547 0.69468 0.9525 0.0
H2134 H 0.07313 0.68239 0.96782 0.0
H2135 H 0.06424 0.64926 0.02167 0.0
H2136 H 0.13996 0.59434 0.04551 0.0
H2137 H 0.11943 0.62054 0.03824 0.0
H2138 H 0.11485 0.63511 0.97677 0.0
C2139 C 0.0596 0.67788 0.97274 0.0
C2140 C 0.07512 0.6462 0.01166 0.0
C2141 C 0.04375 0.68531 0.96421 0.0
C2142 C 0.13549 0.59636 0.03123 0.0
C2143 C 0.12364 0.61131 0.02706 0.0
C2144 C 0.10383 0.63792 0.98669 0.0
C2145 C 0.05792 0.66428 0.98681 0.0
C2146 C 0.07459 0.65382 0.99358 0.0
C2147 C 0.1173 0.61419 0.0087 0.0
C2148 C 0.10359 0.62917 0.00423 0.0
H2149 H 0.01043 0.66252 0.98918 0.0
H2150 H 0.0379 0.6486 0.00338 0.0
H2151 H 0.08961 0.65522 0.96725 0.0
H2152 H 0.13981 0.57807 0.98755 0.0
H2153 H 0.1186 0.60336 0.98039 0.0
C2154 C 0.66182 0.88547 0.26427 0.0
C2155 C 0.66801 0.89574 0.24879 0.0
C2156 C 0.64831 0.87156 0.2621 0.0
C2157 C 0.63061 0.84051 0.22526 0.0
H2158 H 0.5937 0.82623 0.26214 0.0
C2159 C 0.57888 0.78208 0.21054 0.0
C2160 C 0.57743 0.76824 0.22425 0.0
C2161 C 0.5875 0.79901 0.21454 0.0
C2162 C 0.60401 0.83008 0.25179 0.0
H2163 H 0.66394 0.90065 0.21926 0.0
H2164 H 0.63998 0.87693 0.21556 0.0
H2165 H 0.61278 0.85419 0.2672 0.0
H2166 H 0.58412 0.76077 0.25268 0.0
H2167 H 0.59938 0.79067 0.25984 0.0
H2168 H 0.62201 0.8165 0.2099 0.0
C2169 C 0.64598 0.87906 0.22926 0.0
C2170 C 0.61493 0.84603 0.25467 0.0
C2171 C 0.65963 0.89274 0.23138 0.0
C2172 C 0.58481 0.77148 0.24206 0.0
C2173 C 0.5934 0.78855 0.24614 0.0
C2174 C 0.61968 0.82474 0.22235 0.0
C2175 C 0.64064 0.86784 0.24443 0.0
C2176 C 0.62836 0.85141 0.24139 0.0
C2177 C 0.59513 0.8023 0.23226 0.0
C2178 C 0.60628 0.81935 0.23556 0.0
H2179 H 0.66808 0.88751 0.27786 0.0
H2180 H 0.6446 0.86312 0.27406 0.0
H2181 H 0.64116 0.84388 0.21499 0.0
H2182 H 0.57373 0.77963 0.19655 0.0
H2183 H 0.58855 0.8094 0.20363 0.0
C2184 C 0.38449 0.43912 0.49556 0.0
C2185 C 0.37306 0.43875 0.51145 0.0
C2186 C 0.39845 0.42581 0.49317 0.0
C2187 C 0.41114 0.37847 0.50328 0.0
H2188 H 0.46138 0.39464 0.49127 0.0
C2189 C 0.46493 0.33484 0.46254 0.0
C2190 C 0.48327 0.33449 0.46928 0.0
C2191 C 0.45153 0.34602 0.47114 0.0
C2192 C 0.44748 0.38991 0.49486 0.0
H2193 H 0.36704 0.42409 0.5372 0.0
H2194 H 0.39127 0.4003 0.53266 0.0
H2195 H 0.43777 0.41774 0.49974 0.0
H2196 H 0.50242 0.34604 0.48952 0.0
H2197 H 0.47896 0.36599 0.5045 0.0
H2198 H 0.42067 0.35069 0.4975 0.0
C2199 C 0.38948 0.4111 0.52225 0.0
C2200 C 0.43399 0.40311 0.49957 0.0
C2201 C 0.37571 0.42469 0.52484 0.0
C2202 C 0.4882 0.34582 0.48443 0.0
C2203 C 0.47485 0.35718 0.49294 0.0
C2204 C 0.42458 0.36526 0.49825 0.0
C2205 C 0.40103 0.41168 0.50646 0.0
C2206 C 0.41566 0.39752 0.50351 0.0
C2207 C 0.45644 0.35746 0.48626 0.0
C2208 C 0.44278 0.37093 0.49374 0.0
H2209 H 0.3828 0.44984 0.48505 0.0
H2210 H 0.4071 0.4264 0.48079 0.0
H2211 H 0.39704 0.37389 0.50619 0.0
H2212 H 0.46108 0.32682 0.45032 0.0
H2213 H 0.43753 0.34631 0.46548 0.0
C2214 C 0.15211 0.59795 0.71257 0.0
C2215 C 0.15278 0.58808 0.7295 0.0
C2216 C 0.14212 0.61459 0.71124 0.0
C2217 C 0.10696 0.64493 0.73244 0.0
H2218 H 0.14157 0.68488 0.72099 0.0
C2219 C 0.0935 0.72061 0.75486 0.0
C2220 C 0.10115 0.73528 0.74449 0.0
C2221 C 0.097 0.70214 0.74986 0.0
C2222 C 0.13147 0.67399 0.72373 0.0
H2223 H 0.14216 0.58702 0.75779 0.0
H2224 H 0.12438 0.61607 0.75532 0.0
H2225 H 0.15139 0.6527 0.71746 0.0
H2226 H 0.11859 0.74253 0.72102 0.0
H2227 H 0.12407 0.71021 0.71153 0.0
H2228 H 0.08693 0.66618 0.73858 0.0
C2229 C 0.13174 0.61092 0.74317 0.0
C2230 C 0.13719 0.65551 0.7218 0.0
C2231 C 0.14196 0.59436 0.74459 0.0
C2232 C 0.11239 0.73132 0.72904 0.0
C2233 C 0.11561 0.71282 0.72376 0.0
C2234 C 0.10106 0.66347 0.734 0.0
C2235 C 0.13237 0.62153 0.72671 0.0
C2236 C 0.12515 0.64083 0.72654 0.0
C2237 C 0.10823 0.69796 0.73431 0.0
C2238 C 0.11344 0.67827 0.73017 0.0
H2239 H 0.1602 0.59344 0.70063 0.0
H2240 H 0.14269 0.62249 0.69837 0.0
H2241 H 0.09741 0.63379 0.73606 0.0
H2242 H 0.08519 0.72344 0.76717 0.0
H2243 H 0.09143 0.69121 0.75865 0.0
C2244 C 0.53275 0.86536 0.9635 0.0
C2245 C 0.53118 0.85273 0.97833 0.0
C2246 C 0.54993 0.87376 0.95958 0.0
C2247 C 0.58231 0.90001 0.96982 0.0
H2248 H 0.63013 0.87465 0.97007 0.0
C2249 C 0.66452 0.92157 0.96738 0.0
C2250 C 0.66534 0.93338 0.98301 0.0
C2251 C 0.64861 0.91086 0.96393 0.0
C2252 C 0.61686 0.88187 0.96979 0.0
H2253 H 0.54583 0.83952 0.00118 0.0
H2254 H 0.57592 0.85345 0.99387 0.0
H2255 H 0.60127 0.85642 0.96747 0.0
H2256 H 0.6503 0.94324 0.00732 0.0
H2257 H 0.62232 0.92478 0.00105 0.0
H2258 H 0.59779 0.92535 0.97319 0.0
C2259 C 0.56411 0.85656 0.98498 0.0
C2260 C 0.60043 0.87149 0.9683 0.0
C2261 C 0.54694 0.84849 0.98908 0.0
C2262 C 0.65006 0.9342 0.99521 0.0
C2263 C 0.63404 0.92377 0.99156 0.0
C2264 C 0.5987 0.91034 0.97163 0.0
C2265 C 0.56567 0.86958 0.97048 0.0
C2266 C 0.58303 0.88048 0.96866 0.0
C2267 C 0.63316 0.91211 0.97585 0.0
C2268 C 0.61606 0.90131 0.97203 0.0
H2269 H 0.52062 0.86915 0.95535 0.0
H2270 H 0.5508 0.88393 0.94845 0.0
H2271 H 0.56904 0.90723 0.97036 0.0
H2272 H 0.67615 0.92066 0.95777 0.0
H2273 H 0.64821 0.90192 0.95175 0.0
C2274 C 0.87116 0.08306 0.4625 0.0
C2275 C 0.86711 0.07178 0.47802 0.0
C2276 C 0.88479 0.09703 0.46373 0.0
C2277 C 0.90625 0.13258 0.47904 0.0
H2278 H 0.95447 0.11634 0.49743 0.0
C2279 C 0.95754 0.17774 0.52117 0.0
C2280 C 0.97672 0.17485 0.51875 0.0
C2281 C 0.94467 0.16757 0.51067 0.0
C2282 C 0.94124 0.12112 0.49193 0.0
H2283 H 0.87403 0.0663 0.50696 0.0
H2284 H 0.89803 0.09027 0.5089 0.0
H2285 H 0.93065 0.09327 0.49005 0.0
H2286 H 0.99767 0.15937 0.50354 0.0
H2287 H 0.97517 0.14143 0.48515 0.0
H2288 H 0.91659 0.16057 0.48193 0.0
C2289 C 0.89059 0.08841 0.49587 0.0
C2290 C 0.92758 0.10791 0.48786 0.0
C2291 C 0.87681 0.07477 0.49477 0.0
C2292 C 0.98291 0.16201 0.50537 0.0
C2293 C 0.97006 0.15176 0.49492 0.0
C2294 C 0.91989 0.14589 0.48338 0.0
C2295 C 0.89478 0.09958 0.48037 0.0
C2296 C 0.90985 0.11353 0.48183 0.0
C2297 C 0.95081 0.15399 0.49793 0.0
C2298 C 0.93738 0.14026 0.49026 0.0
H2299 H 0.86384 0.08107 0.44944 0.0
H2300 H 0.88783 0.10552 0.45162 0.0
H2301 H 0.89262 0.1372 0.47445 0.0
H2302 H 0.95248 0.18709 0.53192 0.0
H2303 H 0.92994 0.16938 0.51353 0.0
loop_
_geom_bond_atom_site_label_1
_geom_bond_atom_site_label_2
_geom_bond_distance
_geom_bond_site_symmetry_2
_ccdc_geom_bond_type
Mn0 O5 2.095 . S
Mn0 O15 2.162 . S
Mn0 O16 2.297 . S
Mn0 O24 2.385 . S
Mn0 O25 2.209 . S
Mn0 O26 2.094 . S
Mn1 O6 2.121 . S
Mn1 N8 2.257 . S
Mn1 N17 2.282 . S
Mn1 O25 2.215 . S
Mn1 O27 2.117 . S
C2 O24 1.234 . S
C2 O25 1.283 . S
C3 O15 1.281 . S
C3 O16 1.236 . S
C4 O26 1.240 . S
C4 O27 1.264 . S
O5 Mn0 2.095 . S
O5 C14 1.250 . S
O6 Mn1 2.121 . S
O6 C14 1.258 . S
C7 N8 1.326 . S
C7 C11 1.460 . S
C7 H13 0.929 . S
N8 Mn1 2.257 . S
N8 C7 1.326 . S
N8 C12 1.362 . S
C9 C10 1.258 . S
C9 C12 1.431 . S
C9 C29 1.449 . S
C10 C9 1.258 . S
C10 C11 1.477 . S
C10 H30 0.931 . S
C11 C7 1.460 . S
C11 C10 1.477 . S
C11 H31 0.930 . S
C12 N8 1.362 . S
C12 C9 1.431 . S
C12 C22 1.476 . S
H13 C7 0.929 . S
C14 O5 1.250 . S
C14 O6 1.258 . S
O15 Mn0 2.162 . S
O15 C3 1.281 . S
O16 Mn0 2.297 . S
O16 C3 1.236 . S
N17 Mn1 2.282 . S
N17 C18 1.328 . S
N17 C22 1.318 . S
C18 N17 1.328 . S
C18 C19 1.457 . S
C18 H23 0.929 . S
C19 C18 1.457 . S
C19 C20 1.291 . S
C19 H32 0.931 . S
C20 C19 1.291 . S
C20 C21 1.373 . S
C20 H33 0.929 . S
C21 C20 1.373 . S
C21 C22 1.396 . S
C21 C28 1.403 . S
C22 C12 1.476 . S
C22 N17 1.318 . S
C22 C21 1.396 . S
H23 C18 0.929 . S
O24 Mn0 2.385 . S
O24 C2 1.234 . S
O25 Mn0 2.209 . S
O25 Mn1 2.215 . S
O25 C2 1.283 . S
O26 Mn0 2.094 . S
O26 C4 1.240 . S
O27 Mn1 2.117 . S
O27 C4 1.264 . S
C28 C21 1.403 . S
C28 C29 1.399 . S
C28 H34 0.929 . S
C29 C9 1.449 . S
C29 C28 1.399 . S
C29 H35 0.930 . S
H30 C10 0.931 . S
H31 C11 0.930 . S
H32 C19 0.931 . S
H33 C20 0.929 . S
H34 C28 0.929 . S
H35 C29 0.930 . S
Mn36 O41 2.095 . S
Mn36 O51 2.162 . S
Mn36 O52 2.297 . S
Mn36 O60 2.385 . S
Mn36 O61 2.209 . S
Mn36 O62 2.094 . S
Mn37 O42 2.121 . S
Mn37 N44 2.257 . S
Mn37 N53 2.263 1_655 S
Mn37 O61 2.215 . S
Mn37 O63 2.117 . S
C38 O60 1.234 . S
C38 O61 1.283 . S
C39 O51 1.281 . S
C39 O52 1.236 . S
C40 O62 1.240 . S
C40 O63 1.264 . S
O41 Mn36 2.095 . S
O41 C50 1.250 . S
O42 Mn37 2.121 . S
O42 C50 1.258 . S
C43 N44 1.326 1_545 S
C43 C47 1.460 . S
C43 H49 0.934 . S
N44 Mn37 2.257 . S
N44 C43 1.326 1_565 S
N44 C48 1.362 . S
C45 C46 1.271 . S
C45 C48 1.437 1_545 S
C45 C65 1.429 1_655 S
C46 C45 1.271 . S
C46 C47 1.477 . S
C46 H66 0.931 . S
C47 C43 1.460 . S
C47 C46 1.477 . S
C47 H67 0.930 . S
C48 N44 1.362 . S
C48 C45 1.437 1_565 S
C48 C58 1.476 1_655 S
H49 C43 0.934 . S
C50 O41 1.250 . S
C50 O42 1.258 . S
O51 Mn36 2.162 . S
O51 C39 1.281 . S
O52 Mn36 2.297 . S
O52 C39 1.236 . S
N53 Mn37 2.263 1_455 S
N53 C54 1.340 . S
N53 C58 1.325 . S
C54 N53 1.340 . S
C54 C55 1.457 . S
C54 H59 0.929 . S
C55 C54 1.457 . S
C55 C56 1.291 . S
C55 H68 0.931 . S
C56 C55 1.291 . S
C56 C57 1.373 . S
C56 H69 0.929 . S
C57 C56 1.373 . S
C57 C58 1.396 . S
C57 C64 1.403 1_565 S
C58 C48 1.476 1_455 S
C58 N53 1.325 . S
C58 C57 1.396 . S
H59 C54 0.929 . S
O60 Mn36 2.385 . S
O60 C38 1.234 . S
O61 Mn36 2.209 . S
O61 Mn37 2.215 . S
O61 C38 1.283 . S
O62 Mn36 2.094 . S
O62 C40 1.240 . S
O63 Mn37 2.117 . S
O63 C40 1.264 . S
C64 C57 1.403 1_545 S
C64 C65 1.399 . S
C64 H70 0.929 . S
C65 C45 1.429 1_455 S
C65 C64 1.399 . S
C65 H71 0.930 . S
H66 C46 0.931 . S
H67 C47 0.930 . S
H68 C55 0.931 . S
H69 C56 0.929 . S
H70 C64 0.929 . S
H71 C65 0.930 . S
Mn72 O77 2.095 . S
Mn72 O87 2.162 . S
Mn72 O88 2.297 . S
Mn72 O96 2.385 . S
Mn72 O97 2.209 . S
Mn72 O98 2.094 . S
Mn73 O78 2.121 . S
Mn73 N80 2.257 . S
Mn73 N89 2.282 . S
Mn73 O97 2.215 . S
Mn73 O99 2.117 . S
C74 O96 1.234 . S
C74 O97 1.283 . S
C75 O87 1.281 . S
C75 O88 1.236 . S
C76 O98 1.240 . S
C76 O99 1.264 . S
O77 Mn72 2.095 . S
O77 C86 1.250 . S
O78 Mn73 2.121 . S
O78 C86 1.258 . S
C79 N80 1.326 . S
C79 C83 1.460 . S
C79 H85 0.929 . S
N80 Mn73 2.257 . S
N80 C79 1.326 . S
N80 C84 1.362 . S
C81 C82 1.258 . S
C81 C84 1.431 . S
C81 C101 1.449 . S
C82 C81 1.258 . S
C82 C83 1.477 . S
C82 H102 0.931 . S
C83 C79 1.460 . S
C83 C82 1.477 . S
C83 H103 0.930 . S
C84 N80 1.362 . S
C84 C81 1.431 . S
C84 C94 1.476 . S
H85 C79 0.929 . S
C86 O77 1.250 . S
C86 O78 1.258 . S
O87 Mn72 2.162 . S
O87 C75 1.281 . S
O88 Mn72 2.297 . S
O88 C75 1.236 . S
N89 Mn73 2.282 . S
N89 C90 1.328 . S
N89 C94 1.318 . S
C90 N89 1.328 . S
C90 C91 1.457 . S
C90 H95 0.929 . S
C91 C90 1.457 . S
C91 C92 1.291 . S
C91 H104 0.931 . S
C92 C91 1.291 . S
C92 C93 1.373 . S
C92 H105 0.929 . S
C93 C92 1.373 . S
C93 C94 1.396 . S
C93 C100 1.403 . S
C94 C84 1.476 . S
C94 N89 1.318 . S
C94 C93 1.396 . S
H95 C90 0.929 . S
O96 Mn72 2.385 . S
O96 C74 1.234 . S
O97 Mn72 2.209 . S
O97 Mn73 2.215 . S
O97 C74 1.283 . S
O98 Mn72 2.094 . S
O98 C76 1.240 . S
O99 Mn73 2.117 . S
O99 C76 1.264 . S
C100 C93 1.403 . S
C100 C101 1.399 . S
C100 H106 0.929 . S
C101 C81 1.449 . S
C101 C100 1.399 . S
C101 H107 0.930 . S
H102 C82 0.931 . S
H103 C83 0.930 . S
H104 C91 0.931 . S
H105 C92 0.929 . S
H106 C100 0.929 . S
H107 C101 0.930 . S
Mn108 O113 2.095 . S
Mn108 O123 2.162 . S
Mn108 O124 2.297 . S
Mn108 O132 2.385 . S
Mn108 O133 2.209 . S
Mn108 O134 2.094 . S
Mn109 O114 2.121 . S
Mn109 N116 2.257 . S
Mn109 N125 2.282 . S
Mn109 O133 2.215 . S
Mn109 O135 2.117 . S
C110 O132 1.234 . S
C110 O133 1.283 . S
C111 O123 1.281 . S
C111 O124 1.236 . S
C112 O134 1.240 . S
C112 O135 1.264 . S
O113 Mn108 2.095 . S
O113 C122 1.250 . S
O114 Mn109 2.121 . S
O114 C122 1.258 . S
C115 N116 1.326 1_565 S
C115 C119 1.460 . S
C115 H121 0.934 . S
N116 Mn109 2.257 . S
N116 C115 1.326 1_545 S
N116 C120 1.362 . S
C117 C118 1.258 . S
C117 C120 1.431 1_565 S
C117 C137 1.449 . S
C118 C117 1.258 . S
C118 C119 1.477 . S
C118 H138 0.931 . S
C119 C115 1.460 . S
C119 C118 1.477 . S
C119 H139 0.930 . S
C120 N116 1.362 . S
C120 C117 1.431 1_545 S
C120 C130 1.476 . S
H121 C115 0.934 . S
C122 O113 1.250 . S
C122 O114 1.258 . S
O123 Mn108 2.162 . S
O123 C111 1.281 . S
O124 Mn108 2.297 . S
O124 C111 1.236 . S
N125 Mn109 2.282 . S
N125 C126 1.328 . S
N125 C130 1.318 . S
C126 N125 1.328 . S
C126 C127 1.457 . S
C126 H131 0.929 . S
C127 C126 1.457 . S
C127 C128 1.291 . S
C127 H140 0.931 . S
C128 C127 1.291 . S
C128 C129 1.373 . S
C128 H141 0.929 . S
C129 C128 1.373 . S
C129 C130 1.396 . S
C129 C136 1.403 1_545 S
C130 C120 1.476 . S
C130 N125 1.318 . S
C130 C129 1.396 . S
H131 C126 0.929 . S
O132 Mn108 2.385 . S
O132 C110 1.234 . S
O133 Mn108 2.209 . S
O133 Mn109 2.215 . S
O133 C110 1.283 . S
O134 Mn108 2.094 . S
O134 C112 1.240 . S
O135 Mn109 2.117 . S
O135 C112 1.264 . S
C136 C129 1.403 1_565 S
C136 C137 1.399 . S
C136 H142 0.929 . S
C137 C117 1.449 . S
C137 C136 1.399 . S
C137 H143 0.930 . S
H138 C118 0.931 . S
H139 C119 0.930 . S
H140 C127 0.931 . S
H141 C128 0.929 . S
H142 C136 0.929 . S
H143 C137 0.930 . S
Mn144 O149 2.095 . S
Mn144 O159 2.162 . S
Mn144 O160 2.297 . S
Mn144 O168 2.385 . S
Mn144 O169 2.209 . S
Mn144 O170 2.094 . S
Mn145 O150 2.121 . S
Mn145 N152 2.257 . S
Mn145 N161 2.282 . S
Mn145 O169 2.215 . S
Mn145 O171 2.117 . S
C146 O168 1.234 . S
C146 O169 1.283 . S
C147 O159 1.281 . S
C147 O160 1.236 . S
C148 O170 1.240 . S
C148 O171 1.264 . S
O149 Mn144 2.095 . S
O149 C158 1.250 . S
O150 Mn145 2.121 . S
O150 C158 1.258 . S
C151 N152 1.326 . S
C151 C155 1.460 . S
C151 H157 0.929 . S
N152 Mn145 2.257 . S
N152 C151 1.326 . S
N152 C156 1.362 . S
C153 C154 1.258 . S
C153 C156 1.431 . S
C153 C173 1.449 . S
C154 C153 1.258 . S
C154 C155 1.477 . S
C154 H174 0.931 . S
C155 C151 1.460 . S
C155 C154 1.477 . S
C155 H175 0.930 . S
C156 N152 1.362 . S
C156 C153 1.431 . S
C156 C166 1.476 . S
H157 C151 0.929 . S
C158 O149 1.250 . S
C158 O150 1.258 . S
O159 Mn144 2.162 . S
O159 C147 1.281 . S
O160 Mn144 2.297 . S
O160 C147 1.236 . S
N161 Mn145 2.282 . S
N161 C162 1.328 . S
N161 C166 1.318 . S
C162 N161 1.328 . S
C162 C163 1.457 . S
C162 H167 0.929 . S
C163 C162 1.457 . S
C163 C164 1.291 . S
C163 H176 0.931 . S
C164 C163 1.291 . S
C164 C165 1.373 . S
C164 H177 0.929 . S
C165 C164 1.373 . S
C165 C166 1.396 . S
C165 C172 1.403 . S
C166 C156 1.476 . S
C166 N161 1.318 . S
C166 C165 1.396 . S
H167 C162 0.929 . S
O168 Mn144 2.385 . S
O168 C146 1.234 . S
O169 Mn144 2.209 . S
O169 Mn145 2.215 . S
O169 C146 1.283 . S
O170 Mn144 2.094 . S
O170 C148 1.240 . S
O171 Mn145 2.117 . S
O171 C148 1.264 . S
C172 C165 1.403 . S
C172 C173 1.399 . S
C172 H178 0.929 . S
C173 C153 1.449 . S
C173 C172 1.399 . S
C173 H179 0.930 . S
H174 C154 0.931 . S
H175 C155 0.930 . S
H176 C163 0.931 . S
H177 C164 0.929 . S
H178 C172 0.929 . S
H179 C173 0.930 . S
Mn180 O185 2.095 . S
Mn180 O195 2.162 . S
Mn180 O196 2.297 . S
Mn180 O204 2.385 . S
Mn180 O205 2.209 . S
Mn180 O206 2.094 . S
Mn181 O186 2.121 . S
Mn181 N188 2.257 . S
Mn181 N197 2.263 1_455 S
Mn181 O205 2.215 . S
Mn181 O207 2.117 . S
C182 O204 1.234 . S
C182 O205 1.283 . S
C183 O195 1.281 . S
C183 O196 1.236 . S
C184 O206 1.240 . S
C184 O207 1.264 . S
O185 Mn180 2.095 . S
O185 C194 1.250 . S
O186 Mn181 2.121 . S
O186 C194 1.258 . S
C187 N188 1.326 . S
C187 C191 1.460 . S
C187 H193 0.929 . S
N188 Mn181 2.257 . S
N188 C187 1.326 . S
N188 C192 1.362 . S
C189 C190 1.271 . S
C189 C192 1.437 . S
C189 C209 1.429 1_455 S
C190 C189 1.271 . S
C190 C191 1.477 . S
C190 H210 0.931 . S
C191 C187 1.460 . S
C191 C190 1.477 . S
C191 H211 0.930 . S
C192 N188 1.362 . S
C192 C189 1.437 . S
C192 C202 1.476 1_455 S
H193 C187 0.929 . S
C194 O185 1.250 . S
C194 O186 1.258 . S
O195 Mn180 2.162 . S
O195 C183 1.281 . S
O196 Mn180 2.297 . S
O196 C183 1.236 . S
N197 Mn181 2.263 1_655 S
N197 C198 1.340 . S
N197 C202 1.325 . S
C198 N197 1.340 . S
C198 C199 1.457 . S
C198 H203 0.929 . S
C199 C198 1.457 . S
C199 C200 1.291 . S
C199 H212 0.931 . S
C200 C199 1.291 . S
C200 C201 1.373 . S
C200 H213 0.929 . S
C201 C200 1.373 . S
C201 C202 1.396 . S
C201 C208 1.403 . S
C202 C192 1.476 1_655 S
C202 N197 1.325 . S
C202 C201 1.396 . S
H203 C198 0.929 . S
O204 Mn180 2.385 . S
O204 C182 1.234 . S
O205 Mn180 2.209 . S
O205 Mn181 2.215 . S
O205 C182 1.283 . S
O206 Mn180 2.094 . S
O206 C184 1.240 . S
O207 Mn181 2.117 . S
O207 C184 1.264 . S
C208 C201 1.403 . S
C208 C209 1.399 . S
C208 H214 0.929 . S
C209 C189 1.429 1_655 S
C209 C208 1.399 . S
C209 H215 0.930 . S
H210 C190 0.931 . S
H211 C191 0.930 . S
H212 C199 0.931 . S
H213 C200 0.929 . S
H214 C208 0.929 . S
H215 C209 0.930 . S
Mn216 O221 2.095 . S
Mn216 O231 2.162 . S
Mn216 O232 2.297 . S
Mn216 O240 2.385 . S
Mn216 O241 2.209 . S
Mn216 O242 2.094 . S
Mn217 O222 2.121 . S
Mn217 N224 2.257 . S
Mn217 N233 2.282 . S
Mn217 O241 2.215 . S
Mn217 O243 2.117 . S
C218 O240 1.234 . S
C218 O241 1.283 . S
C219 O231 1.281 . S
C219 O232 1.236 . S
C220 O242 1.240 . S
C220 O243 1.264 . S
O221 Mn216 2.095 . S
O221 C230 1.250 . S
O222 Mn217 2.121 . S
O222 C230 1.258 . S
C223 N224 1.326 . S
C223 C227 1.460 . S
C223 H229 0.929 . S
N224 Mn217 2.257 . S
N224 C223 1.326 . S
N224 C228 1.362 . S
C225 C226 1.258 . S
C225 C228 1.431 . S
C225 C245 1.449 . S
C226 C225 1.258 . S
C226 C227 1.477 . S
C226 H246 0.931 . S
C227 C223 1.460 . S
C227 C226 1.477 . S
C227 H247 0.930 . S
C228 N224 1.362 . S
C228 C225 1.431 . S
C228 C238 1.476 . S
H229 C223 0.929 . S
C230 O221 1.250 . S
C230 O222 1.258 . S
O231 Mn216 2.162 . S
O231 C219 1.281 . S
O232 Mn216 2.297 . S
O232 C219 1.236 . S
N233 Mn217 2.282 . S
N233 C234 1.328 . S
N233 C238 1.318 . S
C234 N233 1.328 . S
C234 C235 1.457 . S
C234 H239 0.929 . S
C235 C234 1.457 . S
C235 C236 1.291 . S
C235 H248 0.931 . S
C236 C235 1.291 . S
C236 C237 1.373 . S
C236 H249 0.929 . S
C237 C236 1.373 . S
C237 C238 1.396 . S
C237 C244 1.403 . S
C238 C228 1.476 . S
C238 N233 1.318 . S
C238 C237 1.396 . S
H239 C234 0.929 . S
O240 Mn216 2.385 . S
O240 C218 1.234 . S
O241 Mn216 2.209 . S
O241 Mn217 2.215 . S
O241 C218 1.283 . S
O242 Mn216 2.094 . S
O242 C220 1.240 . S
O243 Mn217 2.117 . S
O243 C220 1.264 . S
C244 C237 1.403 . S
C244 C245 1.399 . S
C244 H250 0.929 . S
C245 C225 1.449 . S
C245 C244 1.399 . S
C245 H251 0.930 . S
H246 C226 0.931 . S
H247 C227 0.930 . S
H248 C235 0.931 . S
H249 C236 0.929 . S
H250 C244 0.929 . S
H251 C245 0.930 . S
Mn252 O257 2.095 . S
Mn252 O267 2.162 . S
Mn252 O268 2.297 . S
Mn252 O276 2.385 . S
Mn252 O277 2.209 . S
Mn252 O278 2.094 . S
Mn253 O258 2.121 . S
Mn253 N260 2.257 . S
Mn253 N269 2.282 . S
Mn253 O277 2.215 . S
Mn253 O279 2.117 . S
C254 O276 1.234 . S
C254 O277 1.283 . S
C255 O267 1.281 . S
C255 O268 1.236 . S
C256 O278 1.240 . S
C256 O279 1.264 . S
O257 Mn252 2.095 . S
O257 C266 1.250 . S
O258 Mn253 2.121 . S
O258 C266 1.258 . S
C259 N260 1.326 . S
C259 C263 1.460 . S
C259 H265 0.929 . S
N260 Mn253 2.257 . S
N260 C259 1.326 . S
N260 C264 1.362 . S
C261 C262 1.258 . S
C261 C264 1.431 . S
C261 C281 1.449 . S
C262 C261 1.258 . S
C262 C263 1.477 . S
C262 H282 0.931 . S
C263 C259 1.460 . S
C263 C262 1.477 . S
C263 H283 0.930 . S
C264 N260 1.362 . S
C264 C261 1.431 . S
C264 C274 1.476 . S
H265 C259 0.929 . S
C266 O257 1.250 . S
C266 O258 1.258 . S
O267 Mn252 2.162 . S
O267 C255 1.281 . S
O268 Mn252 2.297 . S
O268 C255 1.236 . S
N269 Mn253 2.282 . S
N269 C270 1.328 . S
N269 C274 1.318 . S
C270 N269 1.328 . S
C270 C271 1.457 . S
C270 H275 0.929 . S
C271 C270 1.457 . S
C271 C272 1.291 . S
C271 H284 0.931 . S
C272 C271 1.291 . S
C272 C273 1.373 . S
C272 H285 0.929 . S
C273 C272 1.373 . S
C273 C274 1.396 . S
C273 C280 1.403 . S
C274 C264 1.476 . S
C274 N269 1.318 . S
C274 C273 1.396 . S
H275 C270 0.929 . S
O276 Mn252 2.385 . S
O276 C254 1.234 . S
O277 Mn252 2.209 . S
O277 Mn253 2.215 . S
O277 C254 1.283 . S
O278 Mn252 2.094 . S
O278 C256 1.240 . S
O279 Mn253 2.117 . S
O279 C256 1.264 . S
C280 C273 1.403 . S
C280 C281 1.399 . S
C280 H286 0.929 . S
C281 C261 1.449 . S
C281 C280 1.399 . S
C281 H287 0.930 . S
H282 C262 0.931 . S
H283 C263 0.930 . S
H284 C271 0.931 . S
H285 C272 0.929 . S
H286 C280 0.929 . S
H287 C281 0.930 . S
Mn288 O293 2.095 . S
Mn288 O303 2.162 . S
Mn288 O304 2.297 . S
Mn288 O312 2.385 . S
Mn288 O313 2.209 . S
Mn288 O314 2.094 . S
Mn289 O294 2.121 . S
Mn289 N296 2.257 . S
Mn289 N305 2.282 . S
Mn289 O313 2.215 . S
Mn289 O315 2.117 . S
C290 O312 1.234 . S
C290 O313 1.283 . S
C291 O303 1.281 . S
C291 O304 1.236 . S
C292 O314 1.240 . S
C292 O315 1.264 . S
O293 Mn288 2.095 . S
O293 C302 1.250 . S
O294 Mn289 2.121 . S
O294 C302 1.258 . S
C295 N296 1.326 . S
C295 C299 1.460 . S
C295 H301 0.929 . S
N296 Mn289 2.257 . S
N296 C295 1.326 . S
N296 C300 1.362 . S
C297 C298 1.258 . S
C297 C300 1.431 . S
C297 C317 1.449 . S
C298 C297 1.258 . S
C298 C299 1.477 . S
C298 H318 0.931 . S
C299 C295 1.460 . S
C299 C298 1.477 . S
C299 H319 0.930 . S
C300 N296 1.362 . S
C300 C297 1.431 . S
C300 C310 1.476 . S
H301 C295 0.929 . S
C302 O293 1.250 . S
C302 O294 1.258 . S
O303 Mn288 2.162 . S
O303 C291 1.281 . S
O304 Mn288 2.297 . S
O304 C291 1.236 . S
N305 Mn289 2.282 . S
N305 C306 1.328 . S
N305 C310 1.318 . S
C306 N305 1.328 . S
C306 C307 1.457 . S
C306 H311 0.929 . S
C307 C306 1.457 . S
C307 C308 1.291 . S
C307 H320 0.931 . S
C308 C307 1.291 . S
C308 C309 1.373 . S
C308 H321 0.929 . S
C309 C308 1.373 . S
C309 C310 1.396 . S
C309 C316 1.403 . S
C310 C300 1.476 . S
C310 N305 1.318 . S
C310 C309 1.396 . S
H311 C306 0.929 . S
O312 Mn288 2.385 . S
O312 C290 1.234 . S
O313 Mn288 2.209 . S
O313 Mn289 2.215 . S
O313 C290 1.283 . S
O314 Mn288 2.094 . S
O314 C292 1.240 . S
O315 Mn289 2.117 . S
O315 C292 1.264 . S
C316 C309 1.403 . S
C316 C317 1.399 . S
C316 H322 0.929 . S
C317 C297 1.449 . S
C317 C316 1.399 . S
C317 H323 0.930 . S
H318 C298 0.931 . S
H319 C299 0.930 . S
H320 C307 0.931 . S
H321 C308 0.929 . S
H322 C316 0.929 . S
H323 C317 0.930 . S
Mn324 O329 2.095 . S
Mn324 O339 2.162 . S
Mn324 O340 2.297 . S
Mn324 O348 2.385 . S
Mn324 O349 2.209 . S
Mn324 O350 2.094 . S
Mn325 O330 2.121 . S
Mn325 N332 2.257 . S
Mn325 N341 2.282 . S
Mn325 O349 2.215 . S
Mn325 O351 2.117 . S
C326 O348 1.234 . S
C326 O349 1.283 . S
C327 O339 1.281 . S
C327 O340 1.236 . S
C328 O350 1.240 . S
C328 O351 1.264 . S
O329 Mn324 2.095 . S
O329 C338 1.250 . S
O330 Mn325 2.121 . S
O330 C338 1.258 . S
C331 N332 1.326 1_655 S
C331 C335 1.460 . S
C331 H337 0.934 . S
N332 Mn325 2.257 . S
N332 C331 1.326 1_455 S
N332 C336 1.362 . S
C333 C334 1.258 . S
C333 C336 1.431 1_655 S
C333 C353 1.449 . S
C334 C333 1.258 . S
C334 C335 1.477 . S
C334 H354 0.931 . S
C335 C331 1.460 . S
C335 C334 1.477 . S
C335 H355 0.930 . S
C336 N332 1.362 . S
C336 C333 1.431 1_455 S
C336 C346 1.476 . S
H337 C331 0.934 . S
C338 O329 1.250 . S
C338 O330 1.258 . S
O339 Mn324 2.162 . S
O339 C327 1.281 . S
O340 Mn324 2.297 . S
O340 C327 1.236 . S
N341 Mn325 2.282 . S
N341 C342 1.328 . S
N341 C346 1.318 . S
C342 N341 1.328 . S
C342 C343 1.457 . S
C342 H347 0.929 . S
C343 C342 1.457 . S
C343 C344 1.291 . S
C343 H356 0.931 . S
C344 C343 1.291 . S
C344 C345 1.373 . S
C344 H357 0.929 . S
C345 C344 1.373 . S
C345 C346 1.396 . S
C345 C352 1.403 1_455 S
C346 C336 1.476 . S
C346 N341 1.318 . S
C346 C345 1.396 . S
H347 C342 0.929 . S
O348 Mn324 2.385 . S
O348 C326 1.234 . S
O349 Mn324 2.209 . S
O349 Mn325 2.215 . S
O349 C326 1.283 . S
O350 Mn324 2.094 . S
O350 C328 1.240 . S
O351 Mn325 2.117 . S
O351 C328 1.264 . S
C352 C345 1.403 1_655 S
C352 C353 1.399 . S
C352 H358 0.929 . S
C353 C333 1.449 . S
C353 C352 1.399 . S
C353 H359 0.930 . S
H354 C334 0.931 . S
H355 C335 0.930 . S
H356 C343 0.931 . S
H357 C344 0.929 . S
H358 C352 0.929 . S
H359 C353 0.930 . S
Mn360 O365 2.095 . S
Mn360 O375 2.162 . S
Mn360 O376 2.297 . S
Mn360 O384 2.385 . S
Mn360 O385 2.209 . S
Mn360 O386 2.094 . S
Mn361 O366 2.121 . S
Mn361 N368 2.257 . S
Mn361 N377 2.282 . S
Mn361 O385 2.215 . S
Mn361 O387 2.117 . S
C362 O384 1.234 . S
C362 O385 1.283 . S
C363 O375 1.281 . S
C363 O376 1.236 . S
C364 O386 1.240 . S
C364 O387 1.264 . S
O365 Mn360 2.095 . S
O365 C374 1.250 . S
O366 Mn361 2.121 . S
O366 C374 1.258 . S
C367 N368 1.326 . S
C367 C371 1.460 . S
C367 H373 0.929 . S
N368 Mn361 2.257 . S
N368 C367 1.326 . S
N368 C372 1.362 . S
C369 C370 1.258 . S
C369 C372 1.431 . S
C369 C389 1.449 . S
C370 C369 1.258 . S
C370 C371 1.477 . S
C370 H390 0.931 . S
C371 C367 1.460 . S
C371 C370 1.477 . S
C371 H391 0.930 . S
C372 N368 1.362 . S
C372 C369 1.431 . S
C372 C382 1.476 . S
H373 C367 0.929 . S
C374 O365 1.250 . S
C374 O366 1.258 . S
O375 Mn360 2.162 . S
O375 C363 1.281 . S
O376 Mn360 2.297 . S
O376 C363 1.236 . S
N377 Mn361 2.282 . S
N377 C378 1.328 . S
N377 C382 1.318 . S
C378 N377 1.328 . S
C378 C379 1.457 . S
C378 H383 0.929 . S
C379 C378 1.457 . S
C379 C380 1.291 . S
C379 H392 0.931 . S
C380 C379 1.291 . S
C380 C381 1.373 . S
C380 H393 0.929 . S
C381 C380 1.373 . S
C381 C382 1.396 . S
C381 C388 1.403 . S
C382 C372 1.476 . S
C382 N377 1.318 . S
C382 C381 1.396 . S
H383 C378 0.929 . S
O384 Mn360 2.385 . S
O384 C362 1.234 . S
O385 Mn360 2.209 . S
O385 Mn361 2.215 . S
O385 C362 1.283 . S
O386 Mn360 2.094 . S
O386 C364 1.240 . S
O387 Mn361 2.117 . S
O387 C364 1.264 . S
C388 C381 1.403 . S
C388 C389 1.399 . S
C388 H394 0.929 . S
C389 C369 1.449 . S
C389 C388 1.399 . S
C389 H395 0.930 . S
H390 C370 0.931 . S
H391 C371 0.930 . S
H392 C379 0.931 . S
H393 C380 0.929 . S
H394 C388 0.929 . S
H395 C389 0.930 . S
Mn396 O401 2.095 . S
Mn396 O411 2.162 . S
Mn396 O412 2.297 . S
Mn396 O420 2.385 . S
Mn396 O421 2.209 . S
Mn396 O422 2.094 . S
Mn397 O402 2.121 . S
Mn397 N404 2.257 . S
Mn397 N413 2.263 1_554 S
Mn397 O421 2.215 . S
Mn397 O423 2.117 . S
C398 O420 1.234 . S
C398 O421 1.283 . S
C399 O411 1.281 . S
C399 O412 1.236 . S
C400 O422 1.240 . S
C400 O423 1.264 . S
O401 Mn396 2.095 . S
O401 C410 1.250 . S
O402 Mn397 2.121 . S
O402 C410 1.258 . S
C403 N404 1.326 . S
C403 C407 1.460 . S
C403 H409 0.929 . S
N404 Mn397 2.257 . S
N404 C403 1.326 . S
N404 C408 1.362 . S
C405 C406 1.271 . S
C405 C408 1.437 . S
C405 C425 1.429 1_554 S
C406 C405 1.271 . S
C406 C407 1.477 . S
C406 H426 0.931 . S
C407 C403 1.460 . S
C407 C406 1.477 . S
C407 H427 0.930 . S
C408 N404 1.362 . S
C408 C405 1.437 . S
C408 C418 1.476 1_554 S
H409 C403 0.929 . S
C410 O401 1.250 . S
C410 O402 1.258 . S
O411 Mn396 2.162 . S
O411 C399 1.281 . S
O412 Mn396 2.297 . S
O412 C399 1.236 . S
N413 Mn397 2.263 1_556 S
N413 C414 1.340 . S
N413 C418 1.325 . S
C414 N413 1.340 . S
C414 C415 1.457 . S
C414 H419 0.929 . S
C415 C414 1.457 . S
C415 C416 1.291 . S
C415 H428 0.931 . S
C416 C415 1.291 . S
C416 C417 1.373 . S
C416 H429 0.929 . S
C417 C416 1.373 . S
C417 C418 1.396 . S
C417 C424 1.403 . S
C418 C408 1.476 1_556 S
C418 N413 1.325 . S
C418 C417 1.396 . S
H419 C414 0.929 . S
O420 Mn396 2.385 . S
O420 C398 1.234 . S
O421 Mn396 2.209 . S
O421 Mn397 2.215 . S
O421 C398 1.283 . S
O422 Mn396 2.094 . S
O422 C400 1.240 . S
O423 Mn397 2.117 . S
O423 C400 1.264 . S
C424 C417 1.403 . S
C424 C425 1.399 . S
C424 H430 0.929 . S
C425 C405 1.429 1_556 S
C425 C424 1.399 . S
C425 H431 0.930 . S
H426 C406 0.931 . S
H427 C407 0.930 . S
H428 C415 0.931 . S
H429 C416 0.929 . S
H430 C424 0.929 . S
H431 C425 0.930 . S
Mn432 O437 2.095 . S
Mn432 O447 2.162 . S
Mn432 O448 2.297 . S
Mn432 O456 2.385 . S
Mn432 O457 2.209 . S
Mn432 O458 2.094 . S
Mn433 O438 2.121 . S
Mn433 N440 2.257 . S
Mn433 N449 2.282 . S
Mn433 O457 2.215 . S
Mn433 O459 2.117 . S
C434 O456 1.234 . S
C434 O457 1.283 . S
C435 O447 1.281 . S
C435 O448 1.236 . S
C436 O458 1.240 . S
C436 O459 1.264 . S
O437 Mn432 2.095 . S
O437 C446 1.250 . S
O438 Mn433 2.121 . S
O438 C446 1.258 . S
C439 N440 1.326 . S
C439 C443 1.460 . S
C439 H445 0.929 . S
N440 Mn433 2.257 . S
N440 C439 1.326 . S
N440 C444 1.362 . S
C441 C442 1.258 . S
C441 C444 1.431 . S
C441 C461 1.449 . S
C442 C441 1.258 . S
C442 C443 1.477 . S
C442 H462 0.931 . S
C443 C439 1.460 . S
C443 C442 1.477 . S
C443 H463 0.930 . S
C444 N440 1.362 . S
C444 C441 1.431 . S
C444 C454 1.476 . S
H445 C439 0.929 . S
C446 O437 1.250 . S
C446 O438 1.258 . S
O447 Mn432 2.162 . S
O447 C435 1.281 . S
O448 Mn432 2.297 . S
O448 C435 1.236 . S
N449 Mn433 2.282 . S
N449 C450 1.328 . S
N449 C454 1.318 . S
C450 N449 1.328 . S
C450 C451 1.457 . S
C450 H455 0.929 . S
C451 C450 1.457 . S
C451 C452 1.291 . S
C451 H464 0.931 . S
C452 C451 1.291 . S
C452 C453 1.373 . S
C452 H465 0.929 . S
C453 C452 1.373 . S
C453 C454 1.396 . S
C453 C460 1.403 . S
C454 C444 1.476 . S
C454 N449 1.318 . S
C454 C453 1.396 . S
H455 C450 0.929 . S
O456 Mn432 2.385 . S
O456 C434 1.234 . S
O457 Mn432 2.209 . S
O457 Mn433 2.215 . S
O457 C434 1.283 . S
O458 Mn432 2.094 . S
O458 C436 1.240 . S
O459 Mn433 2.117 . S
O459 C436 1.264 . S
C460 C453 1.403 . S
C460 C461 1.399 . S
C460 H466 0.929 . S
C461 C441 1.449 . S
C461 C460 1.399 . S
C461 H467 0.930 . S
H462 C442 0.931 . S
H463 C443 0.930 . S
H464 C451 0.931 . S
H465 C452 0.929 . S
H466 C460 0.929 . S
H467 C461 0.930 . S
Mn468 O473 2.095 . S
Mn468 O483 2.162 . S
Mn468 O484 2.297 . S
Mn468 O492 2.385 . S
Mn468 O493 2.209 . S
Mn468 O494 2.094 . S
Mn469 O474 2.121 . S
Mn469 N476 2.257 . S
Mn469 N485 2.263 1_556 S
Mn469 O493 2.215 . S
Mn469 O495 2.117 . S
C470 O492 1.234 . S
C470 O493 1.283 . S
C471 O483 1.281 . S
C471 O484 1.236 . S
C472 O494 1.240 . S
C472 O495 1.264 . S
O473 Mn468 2.095 . S
O473 C482 1.250 . S
O474 Mn469 2.121 . S
O474 C482 1.258 . S
C475 N476 1.326 1_455 S
C475 C479 1.460 . S
C475 H481 0.934 . S
N476 Mn469 2.257 . S
N476 C475 1.326 1_655 S
N476 C480 1.362 . S
C477 C478 1.271 . S
C477 C480 1.437 1_455 S
C477 C497 1.429 1_556 S
C478 C477 1.271 . S
C478 C479 1.477 . S
C478 H498 0.931 . S
C479 C475 1.460 . S
C479 C478 1.477 . S
C479 H499 0.930 . S
C480 N476 1.362 . S
C480 C477 1.437 1_655 S
C480 C490 1.476 1_556 S
H481 C475 0.934 . S
C482 O473 1.250 . S
C482 O474 1.258 . S
O483 Mn468 2.162 . S
O483 C471 1.281 . S
O484 Mn468 2.297 . S
O484 C471 1.236 . S
N485 Mn469 2.263 1_554 S
N485 C486 1.340 . S
N485 C490 1.325 . S
C486 N485 1.340 . S
C486 C487 1.457 . S
C486 H491 0.929 . S
C487 C486 1.457 . S
C487 C488 1.291 . S
C487 H500 0.931 . S
C488 C487 1.291 . S
C488 C489 1.373 . S
C488 H501 0.929 . S
C489 C488 1.373 . S
C489 C490 1.396 . S
C489 C496 1.403 1_655 S
C490 C480 1.476 1_554 S
C490 N485 1.325 . S
C490 C489 1.396 . S
H491 C486 0.929 . S
O492 Mn468 2.385 . S
O492 C470 1.234 . S
O493 Mn468 2.209 . S
O493 Mn469 2.215 . S
O493 C470 1.283 . S
O494 Mn468 2.094 . S
O494 C472 1.240 . S
O495 Mn469 2.117 . S
O495 C472 1.264 . S
C496 C489 1.403 1_455 S
C496 C497 1.399 . S
C496 H502 0.929 . S
C497 C477 1.429 1_554 S
C497 C496 1.399 . S
C497 H503 0.930 . S
H498 C478 0.931 . S
H499 C479 0.930 . S
H500 C487 0.931 . S
H501 C488 0.929 . S
H502 C496 0.929 . S
H503 C497 0.930 . S
Mn504 O509 2.095 . S
Mn504 O519 2.162 . S
Mn504 O520 2.297 . S
Mn504 O528 2.385 . S
Mn504 O529 2.209 . S
Mn504 O530 2.094 . S
Mn505 O510 2.121 . S
Mn505 N512 2.257 . S
Mn505 N521 2.282 . S
Mn505 O529 2.215 . S
Mn505 O531 2.117 . S
C506 O528 1.234 . S
C506 O529 1.283 . S
C507 O519 1.281 . S
C507 O520 1.236 . S
C508 O530 1.240 . S
C508 O531 1.264 . S
O509 Mn504 2.095 . S
O509 C518 1.250 . S
O510 Mn505 2.121 . S
O510 C518 1.258 . S
C511 N512 1.326 . S
C511 C515 1.460 . S
C511 H517 0.929 . S
N512 Mn505 2.257 . S
N512 C511 1.326 . S
N512 C516 1.362 . S
C513 C514 1.258 . S
C513 C516 1.431 . S
C513 C533 1.449 . S
C514 C513 1.258 . S
C514 C515 1.477 . S
C514 H534 0.931 . S
C515 C511 1.460 . S
C515 C514 1.477 . S
C515 H535 0.930 . S
C516 N512 1.362 . S
C516 C513 1.431 . S
C516 C526 1.476 . S
H517 C511 0.929 . S
C518 O509 1.250 . S
C518 O510 1.258 . S
O519 Mn504 2.162 . S
O519 C507 1.281 . S
O520 Mn504 2.297 . S
O520 C507 1.236 . S
N521 Mn505 2.282 . S
N521 C522 1.328 . S
N521 C526 1.318 . S
C522 N521 1.328 . S
C522 C523 1.457 . S
C522 H527 0.929 . S
C523 C522 1.457 . S
C523 C524 1.291 . S
C523 H536 0.931 . S
C524 C523 1.291 . S
C524 C525 1.373 . S
C524 H537 0.929 . S
C525 C524 1.373 . S
C525 C526 1.396 . S
C525 C532 1.403 . S
C526 C516 1.476 . S
C526 N521 1.318 . S
C526 C525 1.396 . S
H527 C522 0.929 . S
O528 Mn504 2.385 . S
O528 C506 1.234 . S
O529 Mn504 2.209 . S
O529 Mn505 2.215 . S
O529 C506 1.283 . S
O530 Mn504 2.094 . S
O530 C508 1.240 . S
O531 Mn505 2.117 . S
O531 C508 1.264 . S
C532 C525 1.403 . S
C532 C533 1.399 . S
C532 H538 0.929 . S
C533 C513 1.449 . S
C533 C532 1.399 . S
C533 H539 0.930 . S
H534 C514 0.931 . S
H535 C515 0.930 . S
H536 C523 0.931 . S
H537 C524 0.929 . S
H538 C532 0.929 . S
H539 C533 0.930 . S
Mn540 O545 2.095 . S
Mn540 O555 2.162 . S
Mn540 O556 2.297 . S
Mn540 O564 2.385 . S
Mn540 O565 2.209 . S
Mn540 O566 2.094 . S
Mn541 O546 2.121 . S
Mn541 N548 2.257 . S
Mn541 N557 2.282 . S
Mn541 O565 2.215 . S
Mn541 O567 2.117 . S
C542 O564 1.234 . S
C542 O565 1.283 . S
C543 O555 1.281 . S
C543 O556 1.236 . S
C544 O566 1.240 . S
C544 O567 1.264 . S
O545 Mn540 2.095 . S
O545 C554 1.250 . S
O546 Mn541 2.121 . S
O546 C554 1.258 . S
C547 N548 1.326 . S
C547 C551 1.460 . S
C547 H553 0.929 . S
N548 Mn541 2.257 . S
N548 C547 1.326 . S
N548 C552 1.362 . S
C549 C550 1.258 . S
C549 C552 1.431 . S
C549 C569 1.449 . S
C550 C549 1.258 . S
C550 C551 1.477 . S
C550 H570 0.931 . S
C551 C547 1.460 . S
C551 C550 1.477 . S
C551 H571 0.930 . S
C552 N548 1.362 . S
C552 C549 1.431 . S
C552 C562 1.476 . S
H553 C547 0.929 . S
C554 O545 1.250 . S
C554 O546 1.258 . S
O555 Mn540 2.162 . S
O555 C543 1.281 . S
O556 Mn540 2.297 . S
O556 C543 1.236 . S
N557 Mn541 2.282 . S
N557 C558 1.328 . S
N557 C562 1.318 . S
C558 N557 1.328 . S
C558 C559 1.457 . S
C558 H563 0.929 . S
C559 C558 1.457 . S
C559 C560 1.291 . S
C559 H572 0.931 . S
C560 C559 1.291 . S
C560 C561 1.373 . S
C560 H573 0.929 . S
C561 C560 1.373 . S
C561 C562 1.396 . S
C561 C568 1.403 . S
C562 C552 1.476 . S
C562 N557 1.318 . S
C562 C561 1.396 . S
H563 C558 0.929 . S
O564 Mn540 2.385 . S
O564 C542 1.234 . S
O565 Mn540 2.209 . S
O565 Mn541 2.215 . S
O565 C542 1.283 . S
O566 Mn540 2.094 . S
O566 C544 1.240 . S
O567 Mn541 2.117 . S
O567 C544 1.264 . S
C568 C561 1.403 . S
C568 C569 1.399 . S
C568 H574 0.929 . S
C569 C549 1.449 . S
C569 C568 1.399 . S
C569 H575 0.930 . S
H570 C550 0.931 . S
H571 C551 0.930 . S
H572 C559 0.931 . S
H573 C560 0.929 . S
H574 C568 0.929 . S
H575 C569 0.930 . S
Mn576 O581 2.095 . S
Mn576 O591 2.162 . S
Mn576 O592 2.297 . S
Mn576 O600 2.385 . S
Mn576 O601 2.209 . S
Mn576 O602 2.094 . S
Mn577 O582 2.121 . S
Mn577 N584 2.257 . S
Mn577 N593 2.282 . S
Mn577 O601 2.215 . S
Mn577 O603 2.117 . S
C578 O600 1.234 . S
C578 O601 1.283 . S
C579 O591 1.281 . S
C579 O592 1.236 . S
C580 O602 1.240 . S
C580 O603 1.264 . S
O581 Mn576 2.095 . S
O581 C590 1.250 . S
O582 Mn577 2.121 . S
O582 C590 1.258 . S
C583 N584 1.326 . S
C583 C587 1.460 . S
C583 H589 0.929 . S
N584 Mn577 2.257 . S
N584 C583 1.326 . S
N584 C588 1.362 . S
C585 C586 1.258 . S
C585 C588 1.431 . S
C585 C605 1.449 . S
C586 C585 1.258 . S
C586 C587 1.477 . S
C586 H606 0.931 . S
C587 C583 1.460 . S
C587 C586 1.477 . S
C587 H607 0.930 . S
C588 N584 1.362 . S
C588 C585 1.431 . S
C588 C598 1.476 . S
H589 C583 0.929 . S
C590 O581 1.250 . S
C590 O582 1.258 . S
O591 Mn576 2.162 . S
O591 C579 1.281 . S
O592 Mn576 2.297 . S
O592 C579 1.236 . S
N593 Mn577 2.282 . S
N593 C594 1.328 . S
N593 C598 1.318 . S
C594 N593 1.328 . S
C594 C595 1.457 . S
C594 H599 0.929 . S
C595 C594 1.457 . S
C595 C596 1.291 . S
C595 H608 0.931 . S
C596 C595 1.291 . S
C596 C597 1.373 . S
C596 H609 0.929 . S
C597 C596 1.373 . S
C597 C598 1.396 . S
C597 C604 1.403 . S
C598 C588 1.476 . S
C598 N593 1.318 . S
C598 C597 1.396 . S
H599 C594 0.929 . S
O600 Mn576 2.385 . S
O600 C578 1.234 . S
O601 Mn576 2.209 . S
O601 Mn577 2.215 . S
O601 C578 1.283 . S
O602 Mn576 2.094 . S
O602 C580 1.240 . S
O603 Mn577 2.117 . S
O603 C580 1.264 . S
C604 C597 1.403 . S
C604 C605 1.399 . S
C604 H610 0.929 . S
C605 C585 1.449 . S
C605 C604 1.399 . S
C605 H611 0.930 . S
H606 C586 0.931 . S
H607 C587 0.930 . S
H608 C595 0.931 . S
H609 C596 0.929 . S
H610 C604 0.929 . S
H611 C605 0.930 . S
Mn612 O617 2.095 . S
Mn612 O627 2.162 . S
Mn612 O628 2.297 . S
Mn612 O636 2.385 . S
Mn612 O637 2.209 . S
Mn612 O638 2.094 . S
Mn613 O618 2.121 . S
Mn613 N620 2.257 . S
Mn613 N629 2.282 . S
Mn613 O637 2.215 . S
Mn613 O639 2.117 . S
C614 O636 1.234 . S
C614 O637 1.283 . S
C615 O627 1.281 . S
C615 O628 1.236 . S
C616 O638 1.240 . S
C616 O639 1.264 . S
O617 Mn612 2.095 . S
O617 C626 1.250 . S
O618 Mn613 2.121 . S
O618 C626 1.258 . S
C619 N620 1.326 . S
C619 C623 1.460 . S
C619 H625 0.929 . S
N620 Mn613 2.257 . S
N620 C619 1.326 . S
N620 C624 1.362 . S
C621 C622 1.258 . S
C621 C624 1.431 . S
C621 C641 1.449 . S
C622 C621 1.258 . S
C622 C623 1.477 . S
C622 H642 0.931 . S
C623 C619 1.460 . S
C623 C622 1.477 . S
C623 H643 0.930 . S
C624 N620 1.362 . S
C624 C621 1.431 . S
C624 C634 1.476 . S
H625 C619 0.929 . S
C626 O617 1.250 . S
C626 O618 1.258 . S
O627 Mn612 2.162 . S
O627 C615 1.281 . S
O628 Mn612 2.297 . S
O628 C615 1.236 . S
N629 Mn613 2.282 . S
N629 C630 1.328 . S
N629 C634 1.318 . S
C630 N629 1.328 . S
C630 C631 1.457 . S
C630 H635 0.929 . S
C631 C630 1.457 . S
C631 C632 1.291 . S
C631 H644 0.931 . S
C632 C631 1.291 . S
C632 C633 1.373 . S
C632 H645 0.929 . S
C633 C632 1.373 . S
C633 C634 1.396 . S
C633 C640 1.403 . S
C634 C624 1.476 . S
C634 N629 1.318 . S
C634 C633 1.396 . S
H635 C630 0.929 . S
O636 Mn612 2.385 . S
O636 C614 1.234 . S
O637 Mn612 2.209 . S
O637 Mn613 2.215 . S
O637 C614 1.283 . S
O638 Mn612 2.094 . S
O638 C616 1.240 . S
O639 Mn613 2.117 . S
O639 C616 1.264 . S
C640 C633 1.403 . S
C640 C641 1.399 . S
C640 H646 0.929 . S
C641 C621 1.449 . S
C641 C640 1.399 . S
C641 H647 0.930 . S
H642 C622 0.931 . S
H643 C623 0.930 . S
H644 C631 0.931 . S
H645 C632 0.929 . S
H646 C640 0.929 . S
H647 C641 0.930 . S
Mn648 O653 2.095 . S
Mn648 O663 2.162 . S
Mn648 O664 2.297 . S
Mn648 O672 2.385 . S
Mn648 O673 2.209 . S
Mn648 O674 2.094 . S
Mn649 O654 2.121 . S
Mn649 N656 2.257 . S
Mn649 N665 2.282 . S
Mn649 O673 2.215 . S
Mn649 O675 2.117 . S
C650 O672 1.234 . S
C650 O673 1.283 . S
C651 O663 1.281 . S
C651 O664 1.236 . S
C652 O674 1.240 . S
C652 O675 1.264 . S
O653 Mn648 2.095 . S
O653 C662 1.250 . S
O654 Mn649 2.121 . S
O654 C662 1.258 . S
C655 N656 1.326 1_556 S
C655 C659 1.460 . S
C655 H661 0.934 . S
N656 Mn649 2.257 . S
N656 C655 1.326 1_554 S
N656 C660 1.362 . S
C657 C658 1.258 . S
C657 C660 1.431 1_556 S
C657 C677 1.449 . S
C658 C657 1.258 . S
C658 C659 1.477 . S
C658 H678 0.931 . S
C659 C655 1.460 . S
C659 C658 1.477 . S
C659 H679 0.930 . S
C660 N656 1.362 . S
C660 C657 1.431 1_554 S
C660 C670 1.476 . S
H661 C655 0.934 . S
C662 O653 1.250 . S
C662 O654 1.258 . S
O663 Mn648 2.162 . S
O663 C651 1.281 . S
O664 Mn648 2.297 . S
O664 C651 1.236 . S
N665 Mn649 2.282 . S
N665 C666 1.328 . S
N665 C670 1.318 . S
C666 N665 1.328 . S
C666 C667 1.457 . S
C666 H671 0.929 . S
C667 C666 1.457 . S
C667 C668 1.291 . S
C667 H680 0.931 . S
C668 C667 1.291 . S
C668 C669 1.373 . S
C668 H681 0.929 . S
C669 C668 1.373 . S
C669 C670 1.396 . S
C669 C676 1.403 1_554 S
C670 C660 1.476 . S
C670 N665 1.318 . S
C670 C669 1.396 . S
H671 C666 0.929 . S
O672 Mn648 2.385 . S
O672 C650 1.234 . S
O673 Mn648 2.209 . S
O673 Mn649 2.215 . S
O673 C650 1.283 . S
O674 Mn648 2.094 . S
O674 C652 1.240 . S
O675 Mn649 2.117 . S
O675 C652 1.264 . S
C676 C669 1.403 1_556 S
C676 C677 1.399 . S
C676 H682 0.929 . S
C677 C657 1.449 . S
C677 C676 1.399 . S
C677 H683 0.930 . S
H678 C658 0.931 . S
H679 C659 0.930 . S
H680 C667 0.931 . S
H681 C668 0.929 . S
H682 C676 0.929 . S
H683 C677 0.930 . S
Mn684 O689 2.095 . S
Mn684 O699 2.162 . S
Mn684 O700 2.297 . S
Mn684 O708 2.385 . S
Mn684 O709 2.209 . S
Mn684 O710 2.094 . S
Mn685 O690 2.121 . S
Mn685 N692 2.257 . S
Mn685 N701 2.282 . S
Mn685 O709 2.215 . S
Mn685 O711 2.117 . S
C686 O708 1.234 . S
C686 O709 1.283 . S
C687 O699 1.281 . S
C687 O700 1.236 . S
C688 O710 1.240 . S
C688 O711 1.264 . S
O689 Mn684 2.095 . S
O689 C698 1.250 . S
O690 Mn685 2.121 . S
O690 C698 1.258 . S
C691 N692 1.326 . S
C691 C695 1.460 . S
C691 H697 0.929 . S
N692 Mn685 2.257 . S
N692 C691 1.326 . S
N692 C696 1.362 . S
C693 C694 1.258 . S
C693 C696 1.431 . S
C693 C713 1.449 . S
C694 C693 1.258 . S
C694 C695 1.477 . S
C694 H714 0.931 . S
C695 C691 1.460 . S
C695 C694 1.477 . S
C695 H715 0.930 . S
C696 N692 1.362 . S
C696 C693 1.431 . S
C696 C706 1.476 . S
H697 C691 0.929 . S
C698 O689 1.250 . S
C698 O690 1.258 . S
O699 Mn684 2.162 . S
O699 C687 1.281 . S
O700 Mn684 2.297 . S
O700 C687 1.236 . S
N701 Mn685 2.282 . S
N701 C702 1.328 . S
N701 C706 1.318 . S
C702 N701 1.328 . S
C702 C703 1.457 . S
C702 H707 0.929 . S
C703 C702 1.457 . S
C703 C704 1.291 . S
C703 H716 0.931 . S
C704 C703 1.291 . S
C704 C705 1.373 . S
C704 H717 0.929 . S
C705 C704 1.373 . S
C705 C706 1.396 . S
C705 C712 1.403 . S
C706 C696 1.476 . S
C706 N701 1.318 . S
C706 C705 1.396 . S
H707 C702 0.929 . S
O708 Mn684 2.385 . S
O708 C686 1.234 . S
O709 Mn684 2.209 . S
O709 Mn685 2.215 . S
O709 C686 1.283 . S
O710 Mn684 2.094 . S
O710 C688 1.240 . S
O711 Mn685 2.117 . S
O711 C688 1.264 . S
C712 C705 1.403 . S
C712 C713 1.399 . S
C712 H718 0.929 . S
C713 C693 1.449 . S
C713 C712 1.399 . S
C713 H719 0.930 . S
H714 C694 0.931 . S
H715 C695 0.930 . S
H716 C703 0.931 . S
H717 C704 0.929 . S
H718 C712 0.929 . S
H719 C713 0.930 . S
Mn720 O725 2.095 . S
Mn720 O735 2.162 . S
Mn720 O736 2.297 . S
Mn720 O744 2.385 . S
Mn720 O745 2.209 . S
Mn720 O746 2.094 . S
Mn721 O726 2.121 . S
Mn721 N728 2.257 . S
Mn721 N737 2.282 . S
Mn721 O745 2.215 . S
Mn721 O747 2.117 . S
C722 O744 1.234 . S
C722 O745 1.283 . S
C723 O735 1.281 . S
C723 O736 1.236 . S
C724 O746 1.240 . S
C724 O747 1.264 . S
O725 Mn720 2.095 . S
O725 C734 1.250 . S
O726 Mn721 2.121 . S
O726 C734 1.258 . S
C727 N728 1.326 . S
C727 C731 1.460 . S
C727 H733 0.929 . S
N728 Mn721 2.257 . S
N728 C727 1.326 . S
N728 C732 1.362 . S
C729 C730 1.258 . S
C729 C732 1.431 . S
C729 C749 1.449 . S
C730 C729 1.258 . S
C730 C731 1.477 . S
C730 H750 0.931 . S
C731 C727 1.460 . S
C731 C730 1.477 . S
C731 H751 0.930 . S
C732 N728 1.362 . S
C732 C729 1.431 . S
C732 C742 1.476 . S
H733 C727 0.929 . S
C734 O725 1.250 . S
C734 O726 1.258 . S
O735 Mn720 2.162 . S
O735 C723 1.281 . S
O736 Mn720 2.297 . S
O736 C723 1.236 . S
N737 Mn721 2.282 . S
N737 C738 1.328 . S
N737 C742 1.318 . S
C738 N737 1.328 . S
C738 C739 1.457 . S
C738 H743 0.929 . S
C739 C738 1.457 . S
C739 C740 1.291 . S
C739 H752 0.931 . S
C740 C739 1.291 . S
C740 C741 1.373 . S
C740 H753 0.929 . S
C741 C740 1.373 . S
C741 C742 1.396 . S
C741 C748 1.403 . S
C742 C732 1.476 . S
C742 N737 1.318 . S
C742 C741 1.396 . S
H743 C738 0.929 . S
O744 Mn720 2.385 . S
O744 C722 1.234 . S
O745 Mn720 2.209 . S
O745 Mn721 2.215 . S
O745 C722 1.283 . S
O746 Mn720 2.094 . S
O746 C724 1.240 . S
O747 Mn721 2.117 . S
O747 C724 1.264 . S
C748 C741 1.403 . S
C748 C749 1.399 . S
C748 H754 0.929 . S
C749 C729 1.449 . S
C749 C748 1.399 . S
C749 H755 0.930 . S
H750 C730 0.931 . S
H751 C731 0.930 . S
H752 C739 0.931 . S
H753 C740 0.929 . S
H754 C748 0.929 . S
H755 C749 0.930 . S
Mn756 O761 2.095 . S
Mn756 O771 2.162 . S
Mn756 O772 2.297 . S
Mn756 O780 2.385 . S
Mn756 O781 2.209 . S
Mn756 O782 2.094 . S
Mn757 O762 2.121 . S
Mn757 N764 2.257 . S
Mn757 N773 2.282 . S
Mn757 O781 2.215 . S
Mn757 O783 2.117 . S
C758 O780 1.234 . S
C758 O781 1.283 . S
C759 O771 1.281 . S
C759 O772 1.236 . S
C760 O782 1.240 . S
C760 O783 1.264 . S
O761 Mn756 2.095 . S
O761 C770 1.250 . S
O762 Mn757 2.121 . S
O762 C770 1.258 . S
C763 N764 1.326 . S
C763 C767 1.460 . S
C763 H769 0.929 . S
N764 Mn757 2.257 . S
N764 C763 1.326 . S
N764 C768 1.362 . S
C765 C766 1.258 . S
C765 C768 1.431 . S
C765 C785 1.449 . S
C766 C765 1.258 . S
C766 C767 1.477 . S
C766 H786 0.931 . S
C767 C763 1.460 . S
C767 C766 1.477 . S
C767 H787 0.930 . S
C768 N764 1.362 . S
C768 C765 1.431 . S
C768 C778 1.476 . S
H769 C763 0.929 . S
C770 O761 1.250 . S
C770 O762 1.258 . S
O771 Mn756 2.162 . S
O771 C759 1.281 . S
O772 Mn756 2.297 . S
O772 C759 1.236 . S
N773 Mn757 2.282 . S
N773 C774 1.328 . S
N773 C778 1.318 . S
C774 N773 1.328 . S
C774 C775 1.457 . S
C774 H779 0.929 . S
C775 C774 1.457 . S
C775 C776 1.291 . S
C775 H788 0.931 . S
C776 C775 1.291 . S
C776 C777 1.373 . S
C776 H789 0.929 . S
C777 C776 1.373 . S
C777 C778 1.396 . S
C777 C784 1.403 . S
C778 C768 1.476 . S
C778 N773 1.318 . S
C778 C777 1.396 . S
H779 C774 0.929 . S
O780 Mn756 2.385 . S
O780 C758 1.234 . S
O781 Mn756 2.209 . S
O781 Mn757 2.215 . S
O781 C758 1.283 . S
O782 Mn756 2.094 . S
O782 C760 1.240 . S
O783 Mn757 2.117 . S
O783 C760 1.264 . S
C784 C777 1.403 . S
C784 C785 1.399 . S
C784 H790 0.929 . S
C785 C765 1.449 . S
C785 C784 1.399 . S
C785 H791 0.930 . S
H786 C766 0.931 . S
H787 C767 0.930 . S
H788 C775 0.931 . S
H789 C776 0.929 . S
H790 C784 0.929 . S
H791 C785 0.930 . S
Mn792 O797 2.095 . S
Mn792 O807 2.162 . S
Mn792 O808 2.297 . S
Mn792 O816 2.385 . S
Mn792 O817 2.209 . S
Mn792 O818 2.094 . S
Mn793 O798 2.121 . S
Mn793 N800 2.257 . S
Mn793 N809 2.263 1_565 S
Mn793 O817 2.215 . S
Mn793 O819 2.117 . S
C794 O816 1.234 . S
C794 O817 1.283 . S
C795 O807 1.281 . S
C795 O808 1.236 . S
C796 O818 1.240 . S
C796 O819 1.264 . S
O797 Mn792 2.095 . S
O797 C806 1.250 . S
O798 Mn793 2.121 . S
O798 C806 1.258 . S
C799 N800 1.326 1_554 S
C799 C803 1.460 . S
C799 H805 0.934 . S
N800 Mn793 2.257 . S
N800 C799 1.326 1_556 S
N800 C804 1.362 . S
C801 C802 1.271 . S
C801 C804 1.437 1_554 S
C801 C821 1.429 1_565 S
C802 C801 1.271 . S
C802 C803 1.477 . S
C802 H822 0.931 . S
C803 C799 1.460 . S
C803 C802 1.477 . S
C803 H823 0.930 . S
C804 N800 1.362 . S
C804 C801 1.437 1_556 S
C804 C814 1.476 1_565 S
H805 C799 0.934 . S
C806 O797 1.250 . S
C806 O798 1.258 . S
O807 Mn792 2.162 . S
O807 C795 1.281 . S
O808 Mn792 2.297 . S
O808 C795 1.236 . S
N809 Mn793 2.263 1_545 S
N809 C810 1.340 . S
N809 C814 1.325 . S
C810 N809 1.340 . S
C810 C811 1.457 . S
C810 H815 0.929 . S
C811 C810 1.457 . S
C811 C812 1.291 . S
C811 H824 0.931 . S
C812 C811 1.291 . S
C812 C813 1.373 . S
C812 H825 0.929 . S
C813 C812 1.373 . S
C813 C814 1.396 . S
C813 C820 1.403 1_556 S
C814 C804 1.476 1_545 S
C814 N809 1.325 . S
C814 C813 1.396 . S
H815 C810 0.929 . S
O816 Mn792 2.385 . S
O816 C794 1.234 . S
O817 Mn792 2.209 . S
O817 Mn793 2.215 . S
O817 C794 1.283 . S
O818 Mn792 2.094 . S
O818 C796 1.240 . S
O819 Mn793 2.117 . S
O819 C796 1.264 . S
C820 C813 1.403 1_554 S
C820 C821 1.399 . S
C820 H826 0.929 . S
C821 C801 1.429 1_545 S
C821 C820 1.399 . S
C821 H827 0.930 . S
H822 C802 0.931 . S
H823 C803 0.930 . S
H824 C811 0.931 . S
H825 C812 0.929 . S
H826 C820 0.929 . S
H827 C821 0.930 . S
Mn828 O833 2.095 . S
Mn828 O843 2.162 . S
Mn828 O844 2.297 . S
Mn828 O852 2.385 . S
Mn828 O853 2.209 . S
Mn828 O854 2.094 . S
Mn829 O834 2.121 . S
Mn829 N836 2.257 . S
Mn829 N845 2.263 1_545 S
Mn829 O853 2.215 . S
Mn829 O855 2.117 . S
C830 O852 1.234 . S
C830 O853 1.283 . S
C831 O843 1.281 . S
C831 O844 1.236 . S
C832 O854 1.240 . S
C832 O855 1.264 . S
O833 Mn828 2.095 . S
O833 C842 1.250 . S
O834 Mn829 2.121 . S
O834 C842 1.258 . S
C835 N836 1.326 . S
C835 C839 1.460 . S
C835 H841 0.929 . S
N836 Mn829 2.257 . S
N836 C835 1.326 . S
N836 C840 1.362 . S
C837 C838 1.271 . S
C837 C840 1.437 . S
C837 C857 1.429 1_545 S
C838 C837 1.271 . S
C838 C839 1.477 . S
C838 H858 0.931 . S
C839 C835 1.460 . S
C839 C838 1.477 . S
C839 H859 0.930 . S
C840 N836 1.362 . S
C840 C837 1.437 . S
C840 C850 1.476 1_545 S
H841 C835 0.929 . S
C842 O833 1.250 . S
C842 O834 1.258 . S
O843 Mn828 2.162 . S
O843 C831 1.281 . S
O844 Mn828 2.297 . S
O844 C831 1.236 . S
N845 Mn829 2.263 1_565 S
N845 C846 1.340 . S
N845 C850 1.325 . S
C846 N845 1.340 . S
C846 C847 1.457 . S
C846 H851 0.929 . S
C847 C846 1.457 . S
C847 C848 1.291 . S
C847 H860 0.931 . S
C848 C847 1.291 . S
C848 C849 1.373 . S
C848 H861 0.929 . S
C849 C848 1.373 . S
C849 C850 1.396 . S
C849 C856 1.403 . S
C850 C840 1.476 1_565 S
C850 N845 1.325 . S
C850 C849 1.396 . S
H851 C846 0.929 . S
O852 Mn828 2.385 . S
O852 C830 1.234 . S
O853 Mn828 2.209 . S
O853 Mn829 2.215 . S
O853 C830 1.283 . S
O854 Mn828 2.094 . S
O854 C832 1.240 . S
O855 Mn829 2.117 . S
O855 C832 1.264 . S
C856 C849 1.403 . S
C856 C857 1.399 . S
C856 H862 0.929 . S
C857 C837 1.429 1_565 S
C857 C856 1.399 . S
C857 H863 0.930 . S
H858 C838 0.931 . S
H859 C839 0.930 . S
H860 C847 0.931 . S
H861 C848 0.929 . S
H862 C856 0.929 . S
H863 C857 0.930 . S
C864 C865 1.349 . S
C864 C866 1.327 . S
C864 H889 0.950 . S
C865 C864 1.349 . S
C865 C881 1.349 . S
C866 C864 1.327 . S
C866 C885 1.429 . S
C866 H890 0.950 . S
C867 C884 1.574 . S
C867 C886 1.368 . S
C867 H891 0.949 . S
H868 C872 0.949 . S
C869 C870 1.349 . S
C869 C871 1.327 . S
C869 H892 0.950 . S
C870 C869 1.349 . S
C870 C882 1.349 . S
C871 C869 1.327 . S
C871 C887 1.429 . S
C871 H893 0.950 . S
C872 H868 0.949 . S
C872 C880 1.574 . S
C872 C888 1.368 . S
H873 C881 0.950 . S
H874 C879 0.950 . S
H875 C880 0.949 . S
H876 C882 0.950 . S
H877 C883 0.950 . S
H878 C884 0.949 . S
C879 H874 0.950 . S
C879 C881 1.327 . S
C879 C885 1.429 . S
C880 C872 1.574 . S
C880 H875 0.949 . S
C880 C886 1.368 . S
C881 C865 1.349 . S
C881 H873 0.950 . S
C881 C879 1.327 . S
C882 C870 1.349 . S
C882 H876 0.950 . S
C882 C883 1.327 . S
C883 H877 0.950 . S
C883 C882 1.327 . S
C883 C887 1.429 . S
C884 C867 1.574 . S
C884 H878 0.949 . S
C884 C888 1.368 . S
C885 C866 1.429 . S
C885 C879 1.429 . S
C885 C886 1.523 . S
C886 C867 1.368 . S
C886 C880 1.368 . S
C886 C885 1.523 . S
C887 C871 1.429 . S
C887 C883 1.429 . S
C887 C888 1.523 . S
C888 C872 1.368 . S
C888 C884 1.368 . S
C888 C887 1.523 . S
H889 C864 0.950 . S
H890 C866 0.950 . S
H891 C867 0.949 . S
H892 C869 0.950 . S
H893 C871 0.950 . S
C894 C895 1.349 . S
C894 C896 1.327 . S
C894 H919 0.950 . S
C895 C894 1.349 . S
C895 C911 1.349 . S
C896 C894 1.327 . S
C896 C915 1.429 1_655 S
C896 H920 0.950 . S
C897 C914 1.574 . S
C897 C916 1.368 . S
C897 H921 0.949 . S
H898 C902 0.949 . S
C899 C900 1.349 . S
C899 C901 1.327 . S
C899 H922 0.950 . S
C900 C899 1.349 . S
C900 C912 1.349 . S
C901 C899 1.327 . S
C901 C917 1.429 . S
C901 H923 0.950 . S
C902 H898 0.949 . S
C902 C910 1.574 . S
C902 C918 1.368 . S
H903 C911 0.950 . S
H904 C909 0.946 . S
H905 C910 0.949 . S
H906 C912 0.950 . S
H907 C913 0.950 . S
H908 C914 0.949 . S
C909 H904 0.946 . S
C909 C911 1.332 1_455 S
C909 C915 1.428 . S
C910 C902 1.574 . S
C910 H905 0.949 . S
C910 C916 1.368 . S
C911 C895 1.349 . S
C911 H903 0.950 . S
C911 C909 1.332 1_655 S
C912 C900 1.349 . S
C912 H906 0.950 . S
C912 C913 1.327 . S
C913 H907 0.950 . S
C913 C912 1.327 . S
C913 C917 1.429 . S
C914 C897 1.574 . S
C914 H908 0.949 . S
C914 C918 1.368 . S
C915 C896 1.429 1_455 S
C915 C909 1.428 . S
C915 C916 1.523 . S
C916 C897 1.368 . S
C916 C910 1.368 . S
C916 C915 1.523 . S
C917 C901 1.429 . S
C917 C913 1.429 . S
C917 C918 1.523 . S
C918 C902 1.368 . S
C918 C914 1.368 . S
C918 C917 1.523 . S
H919 C894 0.950 . S
H920 C896 0.950 . S
H921 C897 0.949 . S
H922 C899 0.950 . S
H923 C901 0.950 . S
C924 C925 1.349 . S
C924 C926 1.327 . S
C924 H949 0.950 . S
C925 C924 1.349 . S
C925 C941 1.349 . S
C926 C924 1.327 . S
C926 C945 1.429 . S
C926 H950 0.950 . S
C927 C944 1.574 . S
C927 C946 1.368 . S
C927 H951 0.949 . S
H928 C932 0.949 . S
C929 C930 1.349 . S
C929 C931 1.327 . S
C929 H952 0.950 . S
C930 C929 1.349 . S
C930 C942 1.349 . S
C931 C929 1.327 . S
C931 C947 1.429 1_554 S
C931 H953 0.950 . S
C932 H928 0.949 . S
C932 C940 1.574 . S
C932 C948 1.368 . S
H933 C941 0.950 . S
H934 C939 0.950 . S
H935 C940 0.949 . S
H936 C942 0.950 . S
H937 C943 0.950 . S
H938 C944 0.949 1_554 S
C939 H934 0.950 . S
C939 C941 1.327 . S
C939 C945 1.429 . S
C940 C932 1.574 . S
C940 H935 0.949 . S
C940 C946 1.368 . S
C941 C925 1.349 . S
C941 H933 0.950 . S
C941 C939 1.327 . S
C942 C930 1.349 . S
C942 H936 0.950 . S
C942 C943 1.327 1_554 S
C943 H937 0.950 . S
C943 C942 1.327 1_556 S
C943 C947 1.429 . S
C944 C927 1.574 . S
C944 H938 0.949 1_556 S
C944 C948 1.368 . S
C945 C926 1.429 . S
C945 C939 1.429 . S
C945 C946 1.523 . S
C946 C927 1.368 . S
C946 C940 1.368 . S
C946 C945 1.523 . S
C947 C931 1.429 1_556 S
C947 C943 1.429 . S
C947 C948 1.523 . S
C948 C932 1.368 . S
C948 C944 1.368 . S
C948 C947 1.523 . S
H949 C924 0.950 . S
H950 C926 0.950 . S
H951 C927 0.949 . S
H952 C929 0.950 . S
H953 C931 0.950 . S
C954 C955 1.349 . S
C954 C956 1.327 . S
C954 H979 0.950 . S
C955 C954 1.349 . S
C955 C971 1.349 . S
C956 C954 1.327 . S
C956 C975 1.429 . S
C956 H980 0.950 . S
C957 C974 1.574 . S
C957 C976 1.368 . S
C957 H981 0.949 . S
H958 C962 0.949 . S
C959 C960 1.349 . S
C959 C961 1.327 . S
C959 H982 0.950 . S
C960 C959 1.349 . S
C960 C972 1.349 . S
C961 C959 1.327 . S
C961 C977 1.429 . S
C961 H983 0.950 . S
C962 H958 0.949 . S
C962 C970 1.574 . S
C962 C978 1.368 . S
H963 C971 0.950 . S
H964 C969 0.950 . S
H965 C970 0.949 . S
H966 C972 0.950 . S
H967 C973 0.950 . S
H968 C974 0.949 . S
C969 H964 0.950 . S
C969 C971 1.327 . S
C969 C975 1.429 . S
C970 C962 1.574 . S
C970 H965 0.949 . S
C970 C976 1.368 . S
C971 C955 1.349 . S
C971 H963 0.950 . S
C971 C969 1.327 . S
C972 C960 1.349 . S
C972 H966 0.950 . S
C972 C973 1.327 . S
C973 H967 0.950 . S
C973 C972 1.327 . S
C973 C977 1.429 . S
C974 C957 1.574 . S
C974 H968 0.949 . S
C974 C978 1.368 . S
C975 C956 1.429 . S
C975 C969 1.429 . S
C975 C976 1.523 . S
C976 C957 1.368 . S
C976 C970 1.368 . S
C976 C975 1.523 . S
C977 C961 1.429 . S
C977 C973 1.429 . S
C977 C978 1.523 . S
C978 C962 1.368 . S
C978 C974 1.368 . S
C978 C977 1.523 . S
H979 C954 0.950 . S
H980 C956 0.950 . S
H981 C957 0.949 . S
H982 C959 0.950 . S
H983 C961 0.950 . S
C984 C985 1.349 . S
C984 C986 1.327 . S
C984 H1009 0.950 . S
C985 C984 1.349 . S
C985 C1001 1.349 . S
C986 C984 1.327 . S
C986 C1005 1.429 . S
C986 H1010 0.950 . S
C987 C1004 1.574 . S
C987 C1006 1.368 . S
C987 H1011 0.949 . S
H988 C992 0.949 . S
C989 C990 1.349 . S
C989 C991 1.327 . S
C989 H1012 0.950 . S
C990 C989 1.349 . S
C990 C1002 1.349 . S
C991 C989 1.327 . S
C991 C1007 1.429 . S
C991 H1013 0.950 . S
C992 H988 0.949 . S
C992 C1000 1.574 . S
C992 C1008 1.368 . S
H993 C1001 0.950 . S
H994 C999 0.950 . S
H995 C1000 0.949 . S
H996 C1002 0.950 . S
H997 C1003 0.950 . S
H998 C1004 0.949 . S
C999 H994 0.950 . S
C999 C1001 1.327 . S
C999 C1005 1.429 . S
C1000 C992 1.574 . S
C1000 H995 0.949 . S
C1000 C1006 1.368 . S
C1001 C985 1.349 . S
C1001 H993 0.950 . S
C1001 C999 1.327 . S
C1002 C990 1.349 . S
C1002 H996 0.950 . S
C1002 C1003 1.327 . S
C1003 H997 0.950 . S
C1003 C1002 1.327 . S
C1003 C1007 1.429 . S
C1004 C987 1.574 . S
C1004 H998 0.949 . S
C1004 C1008 1.368 . S
C1005 C986 1.429 . S
C1005 C999 1.429 . S
C1005 C1006 1.523 . S
C1006 C987 1.368 . S
C1006 C1000 1.368 . S
C1006 C1005 1.523 . S
C1007 C991 1.429 . S
C1007 C1003 1.429 . S
C1007 C1008 1.523 . S
C1008 C992 1.368 . S
C1008 C1004 1.368 . S
C1008 C1007 1.523 . S
H1009 C984 0.950 . S
H1010 C986 0.950 . S
H1011 C987 0.949 . S
H1012 C989 0.950 . S
H1013 C991 0.950 . S
C1014 C1015 1.349 . S
C1014 C1016 1.327 . S
C1014 H1039 0.950 . S
C1015 C1014 1.349 . S
C1015 C1031 1.349 . S
C1016 C1014 1.327 . S
C1016 C1035 1.429 . S
C1016 H1040 0.950 . S
C1017 C1034 1.574 . S
C1017 C1036 1.368 . S
C1017 H1041 0.949 . S
H1018 C1022 0.949 . S
C1019 C1020 1.349 . S
C1019 C1021 1.327 . S
C1019 H1042 0.950 . S
C1020 C1019 1.349 . S
C1020 C1032 1.349 . S
C1021 C1019 1.327 . S
C1021 C1037 1.429 1_455 S
C1021 H1043 0.950 . S
C1022 H1018 0.949 . S
C1022 C1030 1.574 . S
C1022 C1038 1.368 . S
H1023 C1031 0.950 . S
H1024 C1029 0.950 . S
H1025 C1030 0.949 . S
H1026 C1032 0.950 . S
H1027 C1033 0.947 1_655 S
H1028 C1034 0.949 . S
C1029 H1024 0.950 . S
C1029 C1031 1.327 . S
C1029 C1035 1.429 . S
C1030 C1022 1.574 . S
C1030 H1025 0.949 . S
C1030 C1036 1.368 . S
C1031 C1015 1.349 . S
C1031 H1023 0.950 . S
C1031 C1029 1.327 . S
C1032 C1020 1.349 . S
C1032 H1026 0.950 . S
C1032 C1033 1.327 . S
C1033 H1027 0.947 1_455 S
C1033 C1032 1.327 . S
C1033 C1037 1.429 1_455 S
C1034 C1017 1.574 . S
C1034 H1028 0.949 . S
C1034 C1038 1.368 . S
C1035 C1016 1.429 . S
C1035 C1029 1.429 . S
C1035 C1036 1.523 . S
C1036 C1017 1.368 . S
C1036 C1030 1.368 . S
C1036 C1035 1.523 . S
C1037 C1021 1.429 1_655 S
C1037 C1033 1.429 1_655 S
C1037 C1038 1.523 . S
C1038 C1022 1.368 . S
C1038 C1034 1.368 . S
C1038 C1037 1.523 . S
H1039 C1014 0.950 . S
H1040 C1016 0.950 . S
H1041 C1017 0.949 . S
H1042 C1019 0.950 . S
H1043 C1021 0.950 . S
C1044 C1045 1.349 . S
C1044 C1046 1.327 . S
C1044 H1069 0.950 . S
C1045 C1044 1.349 . S
C1045 C1061 1.349 . S
C1046 C1044 1.327 . S
C1046 C1065 1.429 . S
C1046 H1070 0.950 . S
C1047 C1064 1.574 . S
C1047 C1066 1.368 . S
C1047 H1071 0.949 . S
H1048 C1052 0.949 . S
C1049 C1050 1.349 . S
C1049 C1051 1.327 . S
C1049 H1072 0.950 . S
C1050 C1049 1.349 . S
C1050 C1062 1.349 . S
C1051 C1049 1.327 . S
C1051 C1067 1.429 1_556 S
C1051 H1073 0.950 . S
C1052 H1048 0.949 . S
C1052 C1060 1.574 . S
C1052 C1068 1.368 . S
H1053 C1061 0.950 . S
H1054 C1059 0.950 . S
H1055 C1060 0.949 . S
H1056 C1062 0.950 . S
H1057 C1063 0.950 . S
H1058 C1064 0.949 . S
C1059 H1054 0.950 . S
C1059 C1061 1.327 . S
C1059 C1065 1.429 . S
C1060 C1052 1.574 . S
C1060 H1055 0.949 . S
C1060 C1066 1.368 . S
C1061 C1045 1.349 . S
C1061 H1053 0.950 . S
C1061 C1059 1.327 . S
C1062 C1050 1.349 . S
C1062 H1056 0.950 . S
C1062 C1063 1.327 1_556 S
C1063 H1057 0.950 . S
C1063 C1062 1.327 1_554 S
C1063 C1067 1.429 . S
C1064 C1047 1.574 . S
C1064 H1058 0.949 . S
C1064 C1068 1.368 . S
C1065 C1046 1.429 . S
C1065 C1059 1.429 . S
C1065 C1066 1.523 . S
C1066 C1047 1.368 . S
C1066 C1060 1.368 . S
C1066 C1065 1.523 . S
C1067 C1051 1.429 1_554 S
C1067 C1063 1.429 . S
C1067 C1068 1.523 . S
C1068 C1052 1.368 . S
C1068 C1064 1.368 . S
C1068 C1067 1.523 . S
H1069 C1044 0.950 . S
H1070 C1046 0.950 . S
H1071 C1047 0.949 . S
H1072 C1049 0.950 . S
H1073 C1051 0.950 . S
C1074 C1075 1.349 . S
C1074 C1076 1.327 . S
C1074 H1099 0.950 . S
C1075 C1074 1.349 . S
C1075 C1091 1.349 . S
C1076 C1074 1.327 . S
C1076 C1095 1.429 . S
C1076 H1100 0.950 . S
C1077 C1094 1.574 . S
C1077 C1096 1.368 . S
C1077 H1101 0.949 . S
H1078 C1082 0.949 . S
C1079 C1080 1.349 . S
C1079 C1081 1.327 . S
C1079 H1102 0.950 . S
C1080 C1079 1.349 . S
C1080 C1092 1.349 . S
C1081 C1079 1.327 . S
C1081 C1097 1.429 . S
C1081 H1103 0.950 . S
C1082 H1078 0.949 . S
C1082 C1090 1.574 . S
C1082 C1098 1.368 . S
H1083 C1091 0.950 . S
H1084 C1089 0.950 . S
H1085 C1090 0.949 . S
H1086 C1092 0.950 . S
H1087 C1093 0.950 . S
H1088 C1094 0.949 . S
C1089 H1084 0.950 . S
C1089 C1091 1.327 . S
C1089 C1095 1.429 . S
C1090 C1082 1.574 . S
C1090 H1085 0.949 . S
C1090 C1096 1.368 . S
C1091 C1075 1.349 . S
C1091 H1083 0.950 . S
C1091 C1089 1.327 . S
C1092 C1080 1.349 . S
C1092 H1086 0.950 . S
C1092 C1093 1.327 . S
C1093 H1087 0.950 . S
C1093 C1092 1.327 . S
C1093 C1097 1.429 . S
C1094 C1077 1.574 . S
C1094 H1088 0.949 . S
C1094 C1098 1.368 . S
C1095 C1076 1.429 . S
C1095 C1089 1.429 . S
C1095 C1096 1.523 . S
C1096 C1077 1.368 . S
C1096 C1090 1.368 . S
C1096 C1095 1.523 . S
C1097 C1081 1.429 . S
C1097 C1093 1.429 . S
C1097 C1098 1.523 . S
C1098 C1082 1.368 . S
C1098 C1094 1.368 . S
C1098 C1097 1.523 . S
H1099 C1074 0.950 . S
H1100 C1076 0.950 . S
H1101 C1077 0.949 . S
H1102 C1079 0.950 . S
H1103 C1081 0.950 . S
C1104 C1105 1.349 . S
C1104 C1106 1.327 . S
C1104 H1129 0.950 . S
C1105 C1104 1.349 . S
C1105 C1121 1.349 . S
C1106 C1104 1.327 . S
C1106 C1125 1.429 . S
C1106 H1130 0.950 . S
C1107 C1124 1.574 . S
C1107 C1126 1.368 . S
C1107 H1131 0.949 . S
H1108 C1112 0.949 . S
C1109 C1110 1.349 . S
C1109 C1111 1.327 . S
C1109 H1132 0.950 . S
C1110 C1109 1.349 . S
C1110 C1122 1.349 . S
C1111 C1109 1.327 . S
C1111 C1127 1.429 . S
C1111 H1133 0.950 . S
C1112 H1108 0.949 . S
C1112 C1120 1.574 . S
C1112 C1128 1.368 . S
H1113 C1121 0.950 . S
H1114 C1119 0.950 . S
H1115 C1120 0.949 . S
H1116 C1122 0.950 . S
H1117 C1123 0.950 . S
H1118 C1124 0.949 . S
C1119 H1114 0.950 . S
C1119 C1121 1.327 . S
C1119 C1125 1.429 . S
C1120 C1112 1.574 . S
C1120 H1115 0.949 . S
C1120 C1126 1.368 . S
C1121 C1105 1.349 . S
C1121 H1113 0.950 . S
C1121 C1119 1.327 . S
C1122 C1110 1.349 . S
C1122 H1116 0.950 . S
C1122 C1123 1.327 . S
C1123 H1117 0.950 . S
C1123 C1122 1.327 . S
C1123 C1127 1.429 . S
C1124 C1107 1.574 . S
C1124 H1118 0.949 . S
C1124 C1128 1.368 . S
C1125 C1106 1.429 . S
C1125 C1119 1.429 . S
C1125 C1126 1.523 . S
C1126 C1107 1.368 . S
C1126 C1120 1.368 . S
C1126 C1125 1.523 . S
C1127 C1111 1.429 . S
C1127 C1123 1.429 . S
C1127 C1128 1.523 . S
C1128 C1112 1.368 . S
C1128 C1124 1.368 . S
C1128 C1127 1.523 . S
H1129 C1104 0.950 . S
H1130 C1106 0.950 . S
H1131 C1107 0.949 . S
H1132 C1109 0.950 . S
H1133 C1111 0.950 . S
C1134 C1135 1.349 . S
C1134 C1136 1.327 . S
C1134 H1159 0.950 . S
C1135 C1134 1.349 . S
C1135 C1151 1.349 . S
C1136 C1134 1.327 . S
C1136 C1155 1.429 1_565 S
C1136 H1160 0.950 . S
C1137 C1154 1.574 . S
C1137 C1156 1.368 . S
C1137 H1161 0.949 . S
H1138 C1142 0.949 . S
C1139 C1140 1.349 . S
C1139 C1141 1.327 . S
C1139 H1162 0.950 . S
C1140 C1139 1.349 . S
C1140 C1152 1.349 . S
C1141 C1139 1.327 . S
C1141 C1157 1.429 . S
C1141 H1163 0.950 . S
C1142 H1138 0.949 . S
C1142 C1150 1.574 . S
C1142 C1158 1.368 . S
H1143 C1151 0.950 . S
H1144 C1149 0.942 1_545 S
H1145 C1150 0.949 . S
H1146 C1152 0.950 . S
H1147 C1153 0.950 . S
H1148 C1154 0.949 . S
C1149 H1144 0.942 1_565 S
C1149 C1151 1.327 . S
C1149 C1155 1.429 1_565 S
C1150 C1142 1.574 . S
C1150 H1145 0.949 . S
C1150 C1156 1.368 . S
C1151 C1135 1.349 . S
C1151 H1143 0.950 . S
C1151 C1149 1.327 . S
C1152 C1140 1.349 . S
C1152 H1146 0.950 . S
C1152 C1153 1.327 . S
C1153 H1147 0.950 . S
C1153 C1152 1.327 . S
C1153 C1157 1.429 . S
C1154 C1137 1.574 . S
C1154 H1148 0.949 . S
C1154 C1158 1.368 . S
C1155 C1136 1.429 1_545 S
C1155 C1149 1.429 1_545 S
C1155 C1156 1.523 . S
C1156 C1137 1.368 . S
C1156 C1150 1.368 . S
C1156 C1155 1.523 . S
C1157 C1141 1.429 . S
C1157 C1153 1.429 . S
C1157 C1158 1.523 . S
C1158 C1142 1.368 . S
C1158 C1154 1.368 . S
C1158 C1157 1.523 . S
H1159 C1134 0.950 . S
H1160 C1136 0.950 . S
H1161 C1137 0.949 . S
H1162 C1139 0.950 . S
H1163 C1141 0.950 . S
C1164 C1165 1.349 . S
C1164 C1166 1.327 . S
C1164 H1189 0.950 . S
C1165 C1164 1.349 . S
C1165 C1181 1.349 . S
C1166 C1164 1.327 . S
C1166 C1185 1.429 . S
C1166 H1190 0.950 . S
C1167 C1184 1.574 . S
C1167 C1186 1.368 . S
C1167 H1191 0.949 . S
H1168 C1172 0.949 . S
C1169 C1170 1.349 . S
C1169 C1171 1.327 . S
C1169 H1192 0.950 . S
C1170 C1169 1.349 . S
C1170 C1182 1.349 . S
C1171 C1169 1.327 . S
C1171 C1187 1.429 1_545 S
C1171 H1193 0.950 . S
C1172 H1168 0.949 . S
C1172 C1180 1.574 . S
C1172 C1188 1.368 . S
H1173 C1181 0.950 . S
H1174 C1179 0.950 . S
H1175 C1180 0.949 . S
H1176 C1182 0.950 . S
H1177 C1183 0.950 . S
H1178 C1184 0.949 1_545 S
C1179 H1174 0.950 . S
C1179 C1181 1.327 . S
C1179 C1185 1.429 . S
C1180 C1172 1.574 . S
C1180 H1175 0.949 . S
C1180 C1186 1.368 . S
C1181 C1165 1.349 . S
C1181 H1173 0.950 . S
C1181 C1179 1.327 . S
C1182 C1170 1.349 . S
C1182 H1176 0.950 . S
C1182 C1183 1.327 1_545 S
C1183 H1177 0.950 . S
C1183 C1182 1.327 1_565 S
C1183 C1187 1.429 . S
C1184 C1167 1.574 . S
C1184 H1178 0.949 1_565 S
C1184 C1188 1.368 . S
C1185 C1166 1.429 . S
C1185 C1179 1.429 . S
C1185 C1186 1.523 . S
C1186 C1167 1.368 . S
C1186 C1180 1.368 . S
C1186 C1185 1.523 . S
C1187 C1171 1.429 1_565 S
C1187 C1183 1.429 . S
C1187 C1188 1.523 . S
C1188 C1172 1.368 . S
C1188 C1184 1.368 . S
C1188 C1187 1.523 . S
H1189 C1164 0.950 . S
H1190 C1166 0.950 . S
H1191 C1167 0.949 . S
H1192 C1169 0.950 . S
H1193 C1171 0.950 . S
C1194 C1195 1.349 . S
C1194 C1196 1.327 . S
C1194 H1219 0.950 . S
C1195 C1194 1.349 . S
C1195 C1211 1.349 . S
C1196 C1194 1.327 . S
C1196 C1215 1.429 . S
C1196 H1220 0.950 . S
C1197 C1214 1.574 . S
C1197 C1216 1.368 . S
C1197 H1221 0.949 . S
H1198 C1202 0.949 . S
C1199 C1200 1.349 . S
C1199 C1201 1.327 . S
C1199 H1222 0.950 . S
C1200 C1199 1.349 . S
C1200 C1212 1.349 . S
C1201 C1199 1.327 . S
C1201 C1217 1.429 . S
C1201 H1223 0.950 . S
C1202 H1198 0.949 . S
C1202 C1210 1.574 . S
C1202 C1218 1.368 . S
H1203 C1211 0.950 . S
H1204 C1209 0.950 . S
H1205 C1210 0.949 . S
H1206 C1212 0.950 . S
H1207 C1213 0.950 . S
H1208 C1214 0.949 . S
C1209 H1204 0.950 . S
C1209 C1211 1.327 . S
C1209 C1215 1.429 . S
C1210 C1202 1.574 . S
C1210 H1205 0.949 . S
C1210 C1216 1.368 . S
C1211 C1195 1.349 . S
C1211 H1203 0.950 . S
C1211 C1209 1.327 . S
C1212 C1200 1.349 . S
C1212 H1206 0.950 . S
C1212 C1213 1.327 . S
C1213 H1207 0.950 . S
C1213 C1212 1.327 . S
C1213 C1217 1.429 . S
C1214 C1197 1.574 . S
C1214 H1208 0.949 . S
C1214 C1218 1.368 . S
C1215 C1196 1.429 . S
C1215 C1209 1.429 . S
C1215 C1216 1.523 . S
C1216 C1197 1.368 . S
C1216 C1210 1.368 . S
C1216 C1215 1.523 . S
C1217 C1201 1.429 . S
C1217 C1213 1.429 . S
C1217 C1218 1.523 . S
C1218 C1202 1.368 . S
C1218 C1214 1.368 . S
C1218 C1217 1.523 . S
H1219 C1194 0.950 . S
H1220 C1196 0.950 . S
H1221 C1197 0.949 . S
H1222 C1199 0.950 . S
H1223 C1201 0.950 . S
C1224 C1225 1.349 . S
C1224 C1226 1.327 . S
C1224 H1249 0.950 . S
C1225 C1224 1.349 . S
C1225 C1241 1.349 . S
C1226 C1224 1.327 . S
C1226 C1245 1.429 . S
C1226 H1250 0.950 . S
C1227 C1244 1.574 . S
C1227 C1246 1.368 . S
C1227 H1251 0.949 . S
H1228 C1232 0.949 . S
C1229 C1230 1.349 . S
C1229 C1231 1.327 . S
C1229 H1252 0.950 . S
C1230 C1229 1.349 . S
C1230 C1242 1.349 . S
C1231 C1229 1.327 . S
C1231 C1247 1.429 . S
C1231 H1253 0.950 . S
C1232 H1228 0.949 . S
C1232 C1240 1.574 . S
C1232 C1248 1.368 . S
H1233 C1241 0.950 . S
H1234 C1239 0.950 . S
H1235 C1240 0.949 . S
H1236 C1242 0.950 . S
H1237 C1243 0.950 . S
H1238 C1244 0.949 . S
C1239 H1234 0.950 . S
C1239 C1241 1.327 . S
C1239 C1245 1.429 . S
C1240 C1232 1.574 . S
C1240 H1235 0.949 . S
C1240 C1246 1.368 . S
C1241 C1225 1.349 . S
C1241 H1233 0.950 . S
C1241 C1239 1.327 . S
C1242 C1230 1.349 . S
C1242 H1236 0.950 . S
C1242 C1243 1.327 . S
C1243 H1237 0.950 . S
C1243 C1242 1.327 . S
C1243 C1247 1.429 . S
C1244 C1227 1.574 . S
C1244 H1238 0.949 . S
C1244 C1248 1.368 . S
C1245 C1226 1.429 . S
C1245 C1239 1.429 . S
C1245 C1246 1.523 . S
C1246 C1227 1.368 . S
C1246 C1240 1.368 . S
C1246 C1245 1.523 . S
C1247 C1231 1.429 . S
C1247 C1243 1.429 . S
C1247 C1248 1.523 . S
C1248 C1232 1.368 . S
C1248 C1244 1.368 . S
C1248 C1247 1.523 . S
H1249 C1224 0.950 . S
H1250 C1226 0.950 . S
H1251 C1227 0.949 . S
H1252 C1229 0.950 . S
H1253 C1231 0.950 . S
C1254 C1255 1.349 . S
C1254 C1256 1.327 . S
C1254 H1279 0.950 . S
C1255 C1254 1.349 . S
C1255 C1271 1.349 . S
C1256 C1254 1.327 . S
C1256 C1275 1.429 . S
C1256 H1280 0.950 . S
C1257 C1274 1.574 . S
C1257 C1276 1.368 . S
C1257 H1281 0.949 . S
H1258 C1262 0.949 . S
C1259 C1260 1.349 . S
C1259 C1261 1.327 . S
C1259 H1282 0.950 . S
C1260 C1259 1.349 . S
C1260 C1272 1.349 . S
C1261 C1259 1.327 . S
C1261 C1277 1.429 . S
C1261 H1283 0.950 . S
C1262 H1258 0.949 . S
C1262 C1270 1.564 1_545 S
C1262 C1278 1.368 . S
H1263 C1271 0.950 . S
H1264 C1269 0.950 1_545 S
H1265 C1270 0.961 . S
H1266 C1272 0.950 . S
H1267 C1273 0.950 . S
H1268 C1274 0.949 . S
C1269 H1264 0.950 1_565 S
C1269 C1271 1.327 . S
C1269 C1275 1.429 . S
C1270 C1262 1.564 1_565 S
C1270 H1265 0.961 . S
C1270 C1276 1.365 1_565 S
C1271 C1255 1.349 . S
C1271 H1263 0.950 . S
C1271 C1269 1.327 . S
C1272 C1260 1.349 . S
C1272 H1266 0.950 . S
C1272 C1273 1.327 . S
C1273 H1267 0.950 . S
C1273 C1272 1.327 . S
C1273 C1277 1.429 . S
C1274 C1257 1.574 . S
C1274 H1268 0.949 . S
C1274 C1278 1.368 . S
C1275 C1256 1.429 . S
C1275 C1269 1.429 . S
C1275 C1276 1.523 1_565 S
C1276 C1257 1.368 . S
C1276 C1270 1.365 1_545 S
C1276 C1275 1.523 1_545 S
C1277 C1261 1.429 . S
C1277 C1273 1.429 . S
C1277 C1278 1.523 . S
C1278 C1262 1.368 . S
C1278 C1274 1.368 . S
C1278 C1277 1.523 . S
H1279 C1254 0.950 . S
H1280 C1256 0.950 . S
H1281 C1257 0.949 . S
H1282 C1259 0.950 . S
H1283 C1261 0.950 . S
C1284 C1285 1.349 . S
C1284 C1286 1.327 . S
C1284 H1309 0.950 . S
C1285 C1284 1.349 . S
C1285 C1301 1.349 . S
C1286 C1284 1.327 . S
C1286 C1305 1.429 . S
C1286 H1310 0.950 . S
C1287 C1304 1.574 . S
C1287 C1306 1.368 . S
C1287 H1311 0.949 . S
H1288 C1292 0.932 1_554 S
C1289 C1290 1.349 . S
C1289 C1291 1.327 . S
C1289 H1312 0.950 . S
C1290 C1289 1.349 . S
C1290 C1302 1.349 . S
C1291 C1289 1.327 . S
C1291 C1307 1.429 . S
C1291 H1313 0.950 . S
C1292 H1288 0.932 1_556 S
C1292 C1300 1.574 . S
C1292 C1308 1.368 . S
H1293 C1301 0.950 . S
H1294 C1299 0.950 . S
H1295 C1300 0.949 . S
H1296 C1302 0.950 . S
H1297 C1303 0.950 . S
H1298 C1304 0.949 . S
C1299 H1294 0.950 . S
C1299 C1301 1.327 . S
C1299 C1305 1.429 . S
C1300 C1292 1.574 . S
C1300 H1295 0.949 . S
C1300 C1306 1.368 . S
C1301 C1285 1.349 . S
C1301 H1293 0.950 . S
C1301 C1299 1.327 . S
C1302 C1290 1.349 . S
C1302 H1296 0.950 . S
C1302 C1303 1.327 . S
C1303 H1297 0.950 . S
C1303 C1302 1.327 . S
C1303 C1307 1.429 . S
C1304 C1287 1.574 . S
C1304 H1298 0.949 . S
C1304 C1308 1.368 . S
C1305 C1286 1.429 . S
C1305 C1299 1.429 . S
C1305 C1306 1.523 . S
C1306 C1287 1.368 . S
C1306 C1300 1.368 . S
C1306 C1305 1.523 . S
C1307 C1291 1.429 . S
C1307 C1303 1.429 . S
C1307 C1308 1.523 1_554 S
C1308 C1292 1.368 . S
C1308 C1304 1.368 . S
C1308 C1307 1.523 1_556 S
H1309 C1284 0.950 . S
H1310 C1286 0.950 . S
H1311 C1287 0.949 . S
H1312 C1289 0.950 . S
H1313 C1291 0.950 . S
C1314 C1315 1.349 . S
C1314 C1316 1.327 . S
C1314 H1339 0.950 . S
C1315 C1314 1.349 . S
C1315 C1331 1.349 . S
C1316 C1314 1.327 . S
C1316 C1335 1.429 . S
C1316 H1340 0.950 . S
C1317 C1334 1.574 . S
C1317 C1336 1.368 . S
C1317 H1341 0.949 1_565 S
H1318 C1322 0.949 . S
C1319 C1320 1.349 . S
C1319 C1321 1.327 . S
C1319 H1342 0.950 . S
C1320 C1319 1.349 . S
C1320 C1332 1.349 . S
C1321 C1319 1.327 . S
C1321 C1337 1.429 . S
C1321 H1343 0.950 . S
C1322 H1318 0.949 . S
C1322 C1330 1.574 . S
C1322 C1338 1.368 . S
H1323 C1331 0.950 . S
H1324 C1329 0.950 . S
H1325 C1330 0.949 . S
H1326 C1332 0.950 . S
H1327 C1333 0.950 . S
H1328 C1334 0.949 . S
C1329 H1324 0.950 . S
C1329 C1331 1.327 . S
C1329 C1335 1.429 . S
C1330 C1322 1.574 . S
C1330 H1325 0.949 . S
C1330 C1336 1.368 . S
C1331 C1315 1.349 . S
C1331 H1323 0.950 . S
C1331 C1329 1.327 . S
C1332 C1320 1.349 . S
C1332 H1326 0.950 . S
C1332 C1333 1.327 . S
C1333 H1327 0.950 . S
C1333 C1332 1.327 . S
C1333 C1337 1.429 . S
C1334 C1317 1.574 . S
C1334 H1328 0.949 . S
C1334 C1338 1.368 . S
C1335 C1316 1.429 . S
C1335 C1329 1.429 . S
C1335 C1336 1.523 1_545 S
C1336 C1317 1.368 . S
C1336 C1330 1.368 . S
C1336 C1335 1.523 1_565 S
C1337 C1321 1.429 . S
C1337 C1333 1.429 . S
C1337 C1338 1.523 . S
C1338 C1322 1.368 . S
C1338 C1334 1.368 . S
C1338 C1337 1.523 . S
H1339 C1314 0.950 . S
H1340 C1316 0.950 . S
H1341 C1317 0.949 1_545 S
H1342 C1319 0.950 . S
H1343 C1321 0.950 . S
C1344 C1345 1.349 . S
C1344 C1346 1.327 . S
C1344 H1369 0.950 . S
C1345 C1344 1.349 . S
C1345 C1361 1.349 . S
C1346 C1344 1.327 . S
C1346 C1365 1.429 . S
C1346 H1370 0.950 . S
C1347 C1364 1.574 . S
C1347 C1366 1.368 . S
C1347 H1371 0.949 . S
H1348 C1352 0.949 . S
C1349 C1350 1.349 . S
C1349 C1351 1.327 . S
C1349 H1372 0.950 . S
C1350 C1349 1.349 . S
C1350 C1362 1.349 . S
C1351 C1349 1.327 . S
C1351 C1367 1.429 . S
C1351 H1373 0.950 . S
C1352 H1348 0.949 . S
C1352 C1360 1.574 . S
C1352 C1368 1.368 . S
H1353 C1361 0.950 . S
H1354 C1359 0.950 . S
H1355 C1360 0.949 . S
H1356 C1362 0.950 . S
H1357 C1363 0.950 . S
H1358 C1364 0.949 . S
C1359 H1354 0.950 . S
C1359 C1361 1.327 . S
C1359 C1365 1.429 . S
C1360 C1352 1.574 . S
C1360 H1355 0.949 . S
C1360 C1366 1.368 . S
C1361 C1345 1.349 . S
C1361 H1353 0.950 . S
C1361 C1359 1.327 . S
C1362 C1350 1.349 . S
C1362 H1356 0.950 . S
C1362 C1363 1.327 . S
C1363 H1357 0.950 . S
C1363 C1362 1.327 . S
C1363 C1367 1.429 . S
C1364 C1347 1.574 . S
C1364 H1358 0.949 . S
C1364 C1368 1.368 . S
C1365 C1346 1.429 . S
C1365 C1359 1.429 . S
C1365 C1366 1.523 . S
C1366 C1347 1.368 . S
C1366 C1360 1.368 . S
C1366 C1365 1.523 . S
C1367 C1351 1.429 . S
C1367 C1363 1.429 . S
C1367 C1368 1.523 . S
C1368 C1352 1.368 . S
C1368 C1364 1.368 . S
C1368 C1367 1.523 . S
H1369 C1344 0.950 . S
H1370 C1346 0.950 . S
H1371 C1347 0.949 . S
H1372 C1349 0.950 . S
H1373 C1351 0.950 . S
C1374 C1375 1.349 . S
C1374 C1376 1.327 . S
C1374 H1399 0.950 . S
C1375 C1374 1.349 . S
C1375 C1391 1.349 . S
C1376 C1374 1.327 . S
C1376 C1395 1.429 . S
C1376 H1400 0.950 . S
C1377 C1394 1.574 . S
C1377 C1396 1.368 . S
C1377 H1401 0.949 . S
H1378 C1382 0.949 . S
C1379 C1380 1.349 . S
C1379 C1381 1.327 . S
C1379 H1402 0.950 . S
C1380 C1379 1.349 . S
C1380 C1392 1.349 . S
C1381 C1379 1.327 . S
C1381 C1397 1.429 . S
C1381 H1403 0.950 . S
C1382 H1378 0.949 . S
C1382 C1390 1.574 . S
C1382 C1398 1.368 . S
H1383 C1391 0.950 . S
H1384 C1389 0.950 . S
H1385 C1390 0.949 . S
H1386 C1392 0.950 . S
H1387 C1393 0.950 . S
H1388 C1394 0.949 . S
C1389 H1384 0.950 . S
C1389 C1391 1.327 . S
C1389 C1395 1.429 . S
C1390 C1382 1.574 . S
C1390 H1385 0.949 . S
C1390 C1396 1.368 . S
C1391 C1375 1.349 . S
C1391 H1383 0.950 . S
C1391 C1389 1.327 . S
C1392 C1380 1.349 . S
C1392 H1386 0.950 . S
C1392 C1393 1.327 . S
C1393 H1387 0.950 . S
C1393 C1392 1.327 . S
C1393 C1397 1.429 . S
C1394 C1377 1.574 . S
C1394 H1388 0.949 . S
C1394 C1398 1.368 . S
C1395 C1376 1.429 . S
C1395 C1389 1.429 . S
C1395 C1396 1.523 . S
C1396 C1377 1.368 . S
C1396 C1390 1.368 . S
C1396 C1395 1.523 . S
C1397 C1381 1.429 . S
C1397 C1393 1.429 . S
C1397 C1398 1.523 . S
C1398 C1382 1.368 . S
C1398 C1394 1.368 . S
C1398 C1397 1.523 . S
H1399 C1374 0.950 . S
H1400 C1376 0.950 . S
H1401 C1377 0.949 . S
H1402 C1379 0.950 . S
H1403 C1381 0.950 . S
C1404 C1405 1.349 . S
C1404 C1406 1.327 . S
C1404 H1429 0.950 . S
C1405 C1404 1.349 . S
C1405 C1421 1.349 . S
C1406 C1404 1.327 . S
C1406 C1425 1.429 . S
C1406 H1430 0.950 1_556 S
C1407 C1424 1.574 1_556 S
C1407 C1426 1.368 1_556 S
C1407 H1431 0.949 . S
H1408 C1412 0.949 . S
C1409 C1410 1.349 . S
C1409 C1411 1.327 . S
C1409 H1432 0.950 . S
C1410 C1409 1.349 . S
C1410 C1422 1.349 . S
C1411 C1409 1.327 . S
C1411 C1427 1.429 . S
C1411 H1433 0.950 . S
C1412 H1408 0.949 . S
C1412 C1420 1.574 . S
C1412 C1428 1.368 . S
H1413 C1421 0.950 . S
H1414 C1419 0.950 . S
H1415 C1420 0.949 . S
H1416 C1422 0.950 . S
H1417 C1423 0.950 . S
H1418 C1424 0.949 . S
C1419 H1414 0.950 . S
C1419 C1421 1.327 . S
C1419 C1425 1.429 . S
C1420 C1412 1.574 . S
C1420 H1415 0.949 . S
C1420 C1426 1.368 . S
C1421 C1405 1.349 . S
C1421 H1413 0.950 . S
C1421 C1419 1.327 . S
C1422 C1410 1.349 . S
C1422 H1416 0.950 . S
C1422 C1423 1.327 . S
C1423 H1417 0.950 . S
C1423 C1422 1.327 . S
C1423 C1427 1.429 . S
C1424 C1407 1.574 1_554 S
C1424 H1418 0.949 . S
C1424 C1428 1.368 . S
C1425 C1406 1.429 . S
C1425 C1419 1.429 . S
C1425 C1426 1.523 1_556 S
C1426 C1407 1.368 1_554 S
C1426 C1420 1.368 . S
C1426 C1425 1.523 1_554 S
C1427 C1411 1.429 . S
C1427 C1423 1.429 . S
C1427 C1428 1.523 . S
C1428 C1412 1.368 . S
C1428 C1424 1.368 . S
C1428 C1427 1.523 . S
H1429 C1404 0.950 . S
H1430 C1406 0.950 1_554 S
H1431 C1407 0.949 . S
H1432 C1409 0.950 . S
H1433 C1411 0.950 . S
C1434 C1435 1.349 . S
C1434 C1436 1.327 . S
C1434 H1459 0.950 . S
C1435 C1434 1.349 . S
C1435 C1451 1.349 . S
C1436 C1434 1.327 . S
C1436 C1455 1.429 . S
C1436 H1460 0.950 . S
C1437 C1454 1.574 . S
C1437 C1456 1.368 . S
C1437 H1461 0.949 . S
H1438 C1442 0.949 . S
C1439 C1440 1.349 . S
C1439 C1441 1.327 . S
C1439 H1462 0.950 . S
C1440 C1439 1.349 . S
C1440 C1452 1.349 . S
C1441 C1439 1.327 . S
C1441 C1457 1.429 . S
C1441 H1463 0.950 . S
C1442 H1438 0.949 . S
C1442 C1450 1.574 . S
C1442 C1458 1.368 . S
H1443 C1451 0.950 . S
H1444 C1449 0.950 . S
H1445 C1450 0.949 . S
H1446 C1452 0.950 . S
H1447 C1453 0.950 . S
H1448 C1454 0.949 . S
C1449 H1444 0.950 . S
C1449 C1451 1.327 . S
C1449 C1455 1.429 . S
C1450 C1442 1.574 . S
C1450 H1445 0.949 . S
C1450 C1456 1.368 . S
C1451 C1435 1.349 . S
C1451 H1443 0.950 . S
C1451 C1449 1.327 . S
C1452 C1440 1.349 . S
C1452 H1446 0.950 . S
C1452 C1453 1.327 . S
C1453 H1447 0.950 . S
C1453 C1452 1.327 . S
C1453 C1457 1.429 . S
C1454 C1437 1.574 . S
C1454 H1448 0.949 . S
C1454 C1458 1.368 . S
C1455 C1436 1.429 . S
C1455 C1449 1.429 . S
C1455 C1456 1.523 . S
C1456 C1437 1.368 . S
C1456 C1450 1.368 . S
C1456 C1455 1.523 . S
C1457 C1441 1.429 . S
C1457 C1453 1.429 . S
C1457 C1458 1.523 . S
C1458 C1442 1.368 . S
C1458 C1454 1.368 . S
C1458 C1457 1.523 . S
H1459 C1434 0.950 . S
H1460 C1436 0.950 . S
H1461 C1437 0.949 . S
H1462 C1439 0.950 . S
H1463 C1441 0.950 . S
C1464 C1465 1.349 . S
C1464 C1466 1.327 . S
C1464 H1489 0.950 . S
C1465 C1464 1.349 . S
C1465 C1481 1.349 . S
C1466 C1464 1.327 . S
C1466 C1485 1.429 . S
C1466 H1490 0.950 . S
C1467 C1484 1.574 . S
C1467 C1486 1.368 . S
C1467 H1491 0.949 . S
H1468 C1472 0.949 . S
C1469 C1470 1.349 . S
C1469 C1471 1.327 . S
C1469 H1492 0.950 . S
C1470 C1469 1.349 . S
C1470 C1482 1.349 . S
C1471 C1469 1.327 . S
C1471 C1487 1.429 . S
C1471 H1493 0.950 . S
C1472 H1468 0.949 . S
C1472 C1480 1.574 . S
C1472 C1488 1.368 . S
H1473 C1481 0.950 . S
H1474 C1479 0.950 . S
H1475 C1480 0.949 . S
H1476 C1482 0.950 . S
H1477 C1483 0.950 . S
H1478 C1484 0.949 . S
C1479 H1474 0.950 . S
C1479 C1481 1.327 . S
C1479 C1485 1.429 . S
C1480 C1472 1.574 . S
C1480 H1475 0.949 . S
C1480 C1486 1.368 . S
C1481 C1465 1.349 . S
C1481 H1473 0.950 . S
C1481 C1479 1.327 . S
C1482 C1470 1.349 . S
C1482 H1476 0.950 . S
C1482 C1483 1.327 . S
C1483 H1477 0.950 . S
C1483 C1482 1.327 . S
C1483 C1487 1.429 . S
C1484 C1467 1.574 . S
C1484 H1478 0.949 . S
C1484 C1488 1.368 . S
C1485 C1466 1.429 . S
C1485 C1479 1.429 . S
C1485 C1486 1.523 . S
C1486 C1467 1.368 . S
C1486 C1480 1.368 . S
C1486 C1485 1.523 . S
C1487 C1471 1.429 . S
C1487 C1483 1.429 . S
C1487 C1488 1.523 . S
C1488 C1472 1.368 . S
C1488 C1484 1.368 . S
C1488 C1487 1.523 . S
H1489 C1464 0.950 . S
H1490 C1466 0.950 . S
H1491 C1467 0.949 . S
H1492 C1469 0.950 . S
H1493 C1471 0.950 . S
C1494 C1495 1.349 . S
C1494 C1496 1.327 . S
C1494 H1519 0.950 . S
C1495 C1494 1.349 . S
C1495 C1511 1.349 . S
C1496 C1494 1.327 . S
C1496 C1515 1.429 . S
C1496 H1520 0.950 . S
C1497 C1514 1.574 . S
C1497 C1516 1.368 . S
C1497 H1521 0.949 1_655 S
H1498 C1502 0.949 . S
C1499 C1500 1.349 . S
C1499 C1501 1.327 . S
C1499 H1522 0.950 . S
C1500 C1499 1.349 . S
C1500 C1512 1.349 . S
C1501 C1499 1.327 . S
C1501 C1517 1.429 . S
C1501 H1523 0.950 . S
C1502 H1498 0.949 . S
C1502 C1510 1.574 . S
C1502 C1518 1.368 . S
H1503 C1511 0.950 . S
H1504 C1509 0.950 . S
H1505 C1510 0.949 . S
H1506 C1512 0.950 . S
H1507 C1513 0.950 . S
H1508 C1514 0.949 . S
C1509 H1504 0.950 . S
C1509 C1511 1.327 . S
C1509 C1515 1.429 . S
C1510 C1502 1.574 . S
C1510 H1505 0.949 . S
C1510 C1516 1.368 . S
C1511 C1495 1.349 . S
C1511 H1503 0.950 . S
C1511 C1509 1.327 . S
C1512 C1500 1.349 . S
C1512 H1506 0.950 . S
C1512 C1513 1.327 . S
C1513 H1507 0.950 . S
C1513 C1512 1.327 . S
C1513 C1517 1.429 . S
C1514 C1497 1.574 . S
C1514 H1508 0.949 . S
C1514 C1518 1.368 . S
C1515 C1496 1.429 . S
C1515 C1509 1.429 . S
C1515 C1516 1.523 1_455 S
C1516 C1497 1.368 . S
C1516 C1510 1.368 . S
C1516 C1515 1.523 1_655 S
C1517 C1501 1.429 . S
C1517 C1513 1.429 . S
C1517 C1518 1.523 . S
C1518 C1502 1.368 . S
C1518 C1514 1.368 . S
C1518 C1517 1.523 . S
H1519 C1494 0.950 . S
H1520 C1496 0.950 . S
H1521 C1497 0.949 1_455 S
H1522 C1499 0.950 . S
H1523 C1501 0.950 . S
C1524 C1525 1.349 . S
C1524 C1526 1.327 . S
C1524 H1549 0.950 . S
C1525 C1524 1.349 . S
C1525 C1541 1.349 . S
C1526 C1524 1.327 . S
C1526 C1545 1.429 . S
C1526 H1550 0.950 . S
C1527 C1544 1.574 . S
C1527 C1546 1.368 . S
C1527 H1551 0.949 1_455 S
H1528 C1532 0.949 . S
C1529 C1530 1.349 . S
C1529 C1531 1.327 . S
C1529 H1552 0.950 . S
C1530 C1529 1.349 . S
C1530 C1542 1.349 . S
C1531 C1529 1.327 . S
C1531 C1547 1.429 . S
C1531 H1553 0.950 . S
C1532 H1528 0.949 . S
C1532 C1540 1.574 . S
C1532 C1548 1.368 . S
H1533 C1541 0.950 . S
H1534 C1539 0.950 . S
H1535 C1540 0.949 . S
H1536 C1542 0.950 . S
H1537 C1543 0.950 . S
H1538 C1544 0.949 . S
C1539 H1534 0.950 . S
C1539 C1541 1.327 . S
C1539 C1545 1.429 . S
C1540 C1532 1.574 . S
C1540 H1535 0.949 . S
C1540 C1546 1.368 . S
C1541 C1525 1.349 . S
C1541 H1533 0.950 . S
C1541 C1539 1.327 . S
C1542 C1530 1.349 . S
C1542 H1536 0.950 . S
C1542 C1543 1.327 . S
C1543 H1537 0.950 . S
C1543 C1542 1.327 . S
C1543 C1547 1.429 . S
C1544 C1527 1.574 . S
C1544 H1538 0.949 . S
C1544 C1548 1.368 . S
C1545 C1526 1.429 . S
C1545 C1539 1.429 . S
C1545 C1546 1.523 1_655 S
C1546 C1527 1.368 . S
C1546 C1540 1.368 . S
C1546 C1545 1.523 1_455 S
C1547 C1531 1.429 . S
C1547 C1543 1.429 . S
C1547 C1548 1.523 . S
C1548 C1532 1.368 . S
C1548 C1544 1.368 . S
C1548 C1547 1.523 . S
H1549 C1524 0.950 . S
H1550 C1526 0.950 . S
H1551 C1527 0.949 1_655 S
H1552 C1529 0.950 . S
H1553 C1531 0.950 . S
C1554 C1555 1.349 . S
C1554 C1556 1.327 . S
C1554 H1579 0.950 . S
C1555 C1554 1.349 . S
C1555 C1571 1.349 . S
C1556 C1554 1.327 . S
C1556 C1575 1.429 . S
C1556 H1580 0.950 . S
C1557 C1574 1.574 . S
C1557 C1576 1.368 . S
C1557 H1581 0.949 . S
H1558 C1562 0.949 . S
C1559 C1560 1.349 . S
C1559 C1561 1.327 . S
C1559 H1582 0.950 . S
C1560 C1559 1.349 . S
C1560 C1572 1.349 . S
C1561 C1559 1.327 . S
C1561 C1577 1.429 . S
C1561 H1583 0.950 . S
C1562 H1558 0.949 . S
C1562 C1570 1.574 . S
C1562 C1578 1.368 . S
H1563 C1571 0.950 . S
H1564 C1569 0.950 . S
H1565 C1570 0.949 . S
H1566 C1572 0.950 . S
H1567 C1573 0.950 . S
H1568 C1574 0.949 . S
C1569 H1564 0.950 . S
C1569 C1571 1.327 . S
C1569 C1575 1.429 . S
C1570 C1562 1.574 . S
C1570 H1565 0.949 . S
C1570 C1576 1.368 . S
C1571 C1555 1.349 . S
C1571 H1563 0.950 . S
C1571 C1569 1.327 . S
C1572 C1560 1.349 . S
C1572 H1566 0.950 . S
C1572 C1573 1.327 . S
C1573 H1567 0.950 . S
C1573 C1572 1.327 . S
C1573 C1577 1.429 . S
C1574 C1557 1.574 . S
C1574 H1568 0.949 . S
C1574 C1578 1.368 . S
C1575 C1556 1.429 . S
C1575 C1569 1.429 . S
C1575 C1576 1.523 . S
C1576 C1557 1.368 . S
C1576 C1570 1.368 . S
C1576 C1575 1.523 . S
C1577 C1561 1.429 . S
C1577 C1573 1.429 . S
C1577 C1578 1.523 . S
C1578 C1562 1.368 . S
C1578 C1574 1.368 . S
C1578 C1577 1.523 . S
H1579 C1554 0.950 . S
H1580 C1556 0.950 . S
H1581 C1557 0.949 . S
H1582 C1559 0.950 . S
H1583 C1561 0.950 . S
C1584 C1585 1.349 . S
C1584 C1586 1.327 . S
C1584 H1609 0.950 . S
C1585 C1584 1.349 . S
C1585 C1601 1.349 . S
C1586 C1584 1.327 . S
C1586 C1605 1.429 . S
C1586 H1610 0.950 . S
C1587 C1604 1.574 . S
C1587 C1606 1.368 . S
C1587 H1611 0.949 . S
H1588 C1592 0.949 . S
C1589 C1590 1.349 . S
C1589 C1591 1.327 . S
C1589 H1612 0.950 . S
C1590 C1589 1.349 . S
C1590 C1602 1.349 . S
C1591 C1589 1.327 . S
C1591 C1607 1.429 . S
C1591 H1613 0.950 . S
C1592 H1588 0.949 . S
C1592 C1600 1.574 . S
C1592 C1608 1.368 . S
H1593 C1601 0.950 . S
H1594 C1599 0.950 . S
H1595 C1600 0.949 . S
H1596 C1602 0.950 . S
H1597 C1603 0.950 . S
H1598 C1604 0.949 . S
C1599 H1594 0.950 . S
C1599 C1601 1.327 . S
C1599 C1605 1.429 . S
C1600 C1592 1.574 . S
C1600 H1595 0.949 . S
C1600 C1606 1.368 . S
C1601 C1585 1.349 . S
C1601 H1593 0.950 . S
C1601 C1599 1.327 . S
C1602 C1590 1.349 . S
C1602 H1596 0.950 . S
C1602 C1603 1.327 . S
C1603 H1597 0.950 . S
C1603 C1602 1.327 . S
C1603 C1607 1.429 . S
C1604 C1587 1.574 . S
C1604 H1598 0.949 . S
C1604 C1608 1.368 . S
C1605 C1586 1.429 . S
C1605 C1599 1.429 . S
C1605 C1606 1.523 . S
C1606 C1587 1.368 . S
C1606 C1600 1.368 . S
C1606 C1605 1.523 . S
C1607 C1591 1.429 . S
C1607 C1603 1.429 . S
C1607 C1608 1.523 . S
C1608 C1592 1.368 . S
C1608 C1604 1.368 . S
C1608 C1607 1.523 . S
H1609 C1584 0.950 . S
H1610 C1586 0.950 . S
H1611 C1587 0.949 . S
H1612 C1589 0.950 . S
H1613 C1591 0.950 . S
C1614 C1615 1.349 . S
C1614 C1616 1.327 . S
C1614 H1639 0.950 . S
C1615 C1614 1.349 . S
C1615 C1631 1.349 . S
C1616 C1614 1.327 . S
C1616 C1635 1.430 1_545 S
C1616 H1640 0.950 . S
C1617 C1634 1.574 . S
C1617 C1636 1.368 . S
C1617 H1641 0.949 . S
H1618 C1622 0.949 . S
C1619 C1620 1.349 . S
C1619 C1621 1.327 . S
C1619 H1642 0.950 . S
C1620 C1619 1.349 . S
C1620 C1632 1.349 . S
C1621 C1619 1.327 . S
C1621 C1637 1.429 . S
C1621 H1643 0.950 . S
C1622 H1618 0.949 . S
C1622 C1630 1.574 . S
C1622 C1638 1.368 . S
H1623 C1631 0.950 . S
H1624 C1629 0.950 . S
H1625 C1630 0.949 1_545 S
H1626 C1632 0.950 . S
H1627 C1633 0.950 . S
H1628 C1634 0.949 . S
C1629 H1624 0.950 . S
C1629 C1631 1.327 1_565 S
C1629 C1635 1.428 . S
C1630 C1622 1.574 . S
C1630 H1625 0.949 1_565 S
C1630 C1636 1.368 . S
C1631 C1615 1.349 . S
C1631 H1623 0.950 . S
C1631 C1629 1.327 1_545 S
C1632 C1620 1.349 . S
C1632 H1626 0.950 . S
C1632 C1633 1.327 . S
C1633 H1627 0.950 . S
C1633 C1632 1.327 . S
C1633 C1637 1.429 . S
C1634 C1617 1.574 . S
C1634 H1628 0.949 . S
C1634 C1638 1.368 . S
C1635 C1616 1.430 1_565 S
C1635 C1629 1.428 . S
C1635 C1636 1.522 . S
C1636 C1617 1.368 . S
C1636 C1630 1.368 . S
C1636 C1635 1.522 . S
C1637 C1621 1.429 . S
C1637 C1633 1.429 . S
C1637 C1638 1.523 . S
C1638 C1622 1.368 . S
C1638 C1634 1.368 . S
C1638 C1637 1.523 . S
H1639 C1614 0.950 . S
H1640 C1616 0.950 . S
H1641 C1617 0.949 . S
H1642 C1619 0.950 . S
H1643 C1621 0.950 . S
C1644 C1645 1.349 . S
C1644 C1646 1.327 . S
C1644 H1669 0.950 . S
C1645 C1644 1.349 . S
C1645 C1661 1.349 . S
C1646 C1644 1.327 . S
C1646 C1665 1.429 . S
C1646 H1670 0.950 . S
C1647 C1664 1.574 . S
C1647 C1666 1.368 . S
C1647 H1671 0.949 . S
H1648 C1652 0.949 . S
C1649 C1650 1.349 . S
C1649 C1651 1.327 . S
C1649 H1672 0.950 . S
C1650 C1649 1.349 . S
C1650 C1662 1.349 . S
C1651 C1649 1.327 . S
C1651 C1667 1.429 . S
C1651 H1673 0.950 . S
C1652 H1648 0.949 . S
C1652 C1660 1.574 . S
C1652 C1668 1.368 . S
H1653 C1661 0.950 . S
H1654 C1659 0.950 . S
H1655 C1660 0.949 . S
H1656 C1662 0.950 . S
H1657 C1663 0.950 . S
H1658 C1664 0.949 . S
C1659 H1654 0.950 . S
C1659 C1661 1.327 . S
C1659 C1665 1.429 . S
C1660 C1652 1.574 . S
C1660 H1655 0.949 . S
C1660 C1666 1.368 . S
C1661 C1645 1.349 . S
C1661 H1653 0.950 . S
C1661 C1659 1.327 . S
C1662 C1650 1.349 . S
C1662 H1656 0.950 . S
C1662 C1663 1.327 . S
C1663 H1657 0.950 . S
C1663 C1662 1.327 . S
C1663 C1667 1.429 . S
C1664 C1647 1.574 . S
C1664 H1658 0.949 . S
C1664 C1668 1.368 . S
C1665 C1646 1.429 . S
C1665 C1659 1.429 . S
C1665 C1666 1.523 . S
C1666 C1647 1.368 . S
C1666 C1660 1.368 . S
C1666 C1665 1.523 . S
C1667 C1651 1.429 . S
C1667 C1663 1.429 . S
C1667 C1668 1.523 . S
C1668 C1652 1.368 . S
C1668 C1664 1.368 . S
C1668 C1667 1.523 . S
H1669 C1644 0.950 . S
H1670 C1646 0.950 . S
H1671 C1647 0.949 . S
H1672 C1649 0.950 . S
H1673 C1651 0.950 . S
C1674 C1675 1.349 . S
C1674 C1676 1.327 . S
C1674 H1699 0.950 . S
C1675 C1674 1.349 . S
C1675 C1691 1.349 . S
C1676 C1674 1.327 . S
C1676 C1695 1.429 . S
C1676 H1700 0.950 . S
C1677 C1694 1.574 . S
C1677 C1696 1.368 . S
C1677 H1701 0.949 . S
H1678 C1682 0.948 1_565 S
C1679 C1680 1.349 . S
C1679 C1681 1.327 1_565 S
C1679 H1702 0.950 1_565 S
C1680 C1679 1.349 . S
C1680 C1692 1.349 . S
C1681 C1679 1.327 1_545 S
C1681 C1697 1.428 1_556 S
C1681 H1703 0.950 . S
C1682 H1678 0.948 1_545 S
C1682 C1690 1.574 . S
C1682 C1698 1.369 . S
H1683 C1691 0.950 . S
H1684 C1689 0.950 . S
H1685 C1690 0.949 . S
H1686 C1692 0.950 . S
H1687 C1693 0.917 1_554 S
H1688 C1694 0.949 . S
C1689 H1684 0.950 . S
C1689 C1691 1.327 . S
C1689 C1695 1.429 . S
C1690 C1682 1.574 . S
C1690 H1685 0.949 . S
C1690 C1696 1.368 . S
C1691 C1675 1.349 . S
C1691 H1683 0.950 . S
C1691 C1689 1.327 . S
C1692 C1680 1.349 . S
C1692 H1686 0.950 . S
C1692 C1693 1.369 . S
C1693 H1687 0.917 1_556 S
C1693 C1692 1.369 . S
C1693 C1697 1.422 1_566 S
C1694 C1677 1.574 . S
C1694 H1688 0.949 . S
C1694 C1698 1.368 . S
C1695 C1676 1.429 . S
C1695 C1689 1.429 . S
C1695 C1696 1.523 . S
C1696 C1677 1.368 . S
C1696 C1690 1.368 . S
C1696 C1695 1.523 . S
C1697 C1681 1.428 1_554 S
C1697 C1693 1.422 1_544 S
C1697 C1698 1.522 . S
C1698 C1682 1.369 . S
C1698 C1694 1.368 . S
C1698 C1697 1.522 . S
H1699 C1674 0.950 . S
H1700 C1676 0.950 . S
H1701 C1677 0.949 . S
H1702 C1679 0.950 1_545 S
H1703 C1681 0.950 . S
C1704 C1705 1.349 . S
C1704 C1706 1.327 . S
C1704 H1729 0.950 . S
C1705 C1704 1.349 . S
C1705 C1721 1.349 . S
C1706 C1704 1.327 . S
C1706 C1725 1.429 . S
C1706 H1730 0.950 . S
C1707 C1724 1.574 . S
C1707 C1726 1.368 . S
C1707 H1731 0.949 . S
H1708 C1712 0.949 . S
C1709 C1710 1.349 . S
C1709 C1711 1.327 . S
C1709 H1732 0.950 . S
C1710 C1709 1.349 . S
C1710 C1722 1.349 . S
C1711 C1709 1.327 . S
C1711 C1727 1.429 . S
C1711 H1733 0.950 . S
C1712 H1708 0.949 . S
C1712 C1720 1.574 . S
C1712 C1728 1.368 . S
H1713 C1721 0.950 . S
H1714 C1719 0.950 . S
H1715 C1720 0.949 . S
H1716 C1722 0.950 . S
H1717 C1723 0.950 . S
H1718 C1724 0.949 . S
C1719 H1714 0.950 . S
C1719 C1721 1.327 . S
C1719 C1725 1.429 . S
C1720 C1712 1.574 . S
C1720 H1715 0.949 . S
C1720 C1726 1.368 . S
C1721 C1705 1.349 . S
C1721 H1713 0.950 . S
C1721 C1719 1.327 . S
C1722 C1710 1.349 . S
C1722 H1716 0.950 . S
C1722 C1723 1.327 . S
C1723 H1717 0.950 . S
C1723 C1722 1.327 . S
C1723 C1727 1.429 . S
C1724 C1707 1.574 . S
C1724 H1718 0.949 . S
C1724 C1728 1.368 . S
C1725 C1706 1.429 . S
C1725 C1719 1.429 . S
C1725 C1726 1.523 . S
C1726 C1707 1.368 . S
C1726 C1720 1.368 . S
C1726 C1725 1.523 . S
C1727 C1711 1.429 . S
C1727 C1723 1.429 . S
C1727 C1728 1.523 . S
C1728 C1712 1.368 . S
C1728 C1724 1.368 . S
C1728 C1727 1.523 . S
H1729 C1704 0.950 . S
H1730 C1706 0.950 . S
H1731 C1707 0.949 . S
H1732 C1709 0.950 . S
H1733 C1711 0.950 . S
C1734 C1735 1.349 . S
C1734 C1736 1.327 . S
C1734 H1759 0.950 . S
C1735 C1734 1.349 . S
C1735 C1751 1.349 . S
C1736 C1734 1.327 . S
C1736 C1755 1.429 1_554 S
C1736 H1760 0.950 . S
C1737 C1754 1.574 . S
C1737 C1756 1.368 . S
C1737 H1761 0.949 . S
H1738 C1742 0.949 . S
C1739 C1740 1.349 . S
C1739 C1741 1.327 . S
C1739 H1762 0.950 . S
C1740 C1739 1.349 . S
C1740 C1752 1.349 . S
C1741 C1739 1.327 . S
C1741 C1757 1.429 . S
C1741 H1763 0.950 . S
C1742 H1738 0.949 . S
C1742 C1750 1.574 . S
C1742 C1758 1.368 . S
H1743 C1751 0.950 . S
H1744 C1749 0.950 . S
H1745 C1750 0.949 . S
H1746 C1752 0.950 . S
H1747 C1753 0.950 . S
H1748 C1754 0.949 . S
C1749 H1744 0.950 . S
C1749 C1751 1.327 1_556 S
C1749 C1755 1.429 . S
C1750 C1742 1.574 . S
C1750 H1745 0.949 . S
C1750 C1756 1.368 . S
C1751 C1735 1.349 . S
C1751 H1743 0.950 . S
C1751 C1749 1.327 1_554 S
C1752 C1740 1.349 . S
C1752 H1746 0.950 . S
C1752 C1753 1.327 . S
C1753 H1747 0.950 . S
C1753 C1752 1.327 . S
C1753 C1757 1.429 . S
C1754 C1737 1.574 . S
C1754 H1748 0.949 . S
C1754 C1758 1.368 . S
C1755 C1736 1.429 1_556 S
C1755 C1749 1.429 . S
C1755 C1756 1.523 . S
C1756 C1737 1.368 . S
C1756 C1750 1.368 . S
C1756 C1755 1.523 . S
C1757 C1741 1.429 . S
C1757 C1753 1.429 . S
C1757 C1758 1.523 . S
C1758 C1742 1.368 . S
C1758 C1754 1.368 . S
C1758 C1757 1.523 . S
H1759 C1734 0.950 . S
H1760 C1736 0.950 . S
H1761 C1737 0.949 . S
H1762 C1739 0.950 . S
H1763 C1741 0.950 . S
C1764 C1765 1.349 . S
C1764 C1766 1.327 . S
C1764 H1789 0.950 . S
C1765 C1764 1.349 . S
C1765 C1781 1.349 . S
C1766 C1764 1.327 . S
C1766 C1785 1.429 . S
C1766 H1790 0.950 . S
C1767 C1784 1.574 . S
C1767 C1786 1.368 . S
C1767 H1791 0.949 . S
H1768 C1772 0.949 . S
C1769 C1770 1.349 . S
C1769 C1771 1.327 . S
C1769 H1792 0.950 . S
C1770 C1769 1.349 . S
C1770 C1782 1.349 . S
C1771 C1769 1.327 . S
C1771 C1787 1.429 . S
C1771 H1793 0.950 . S
C1772 H1768 0.949 . S
C1772 C1780 1.574 . S
C1772 C1788 1.368 . S
H1773 C1781 0.950 . S
H1774 C1779 0.950 . S
H1775 C1780 0.949 . S
H1776 C1782 0.950 . S
H1777 C1783 0.950 . S
H1778 C1784 0.949 . S
C1779 H1774 0.950 . S
C1779 C1781 1.327 . S
C1779 C1785 1.429 . S
C1780 C1772 1.574 . S
C1780 H1775 0.949 . S
C1780 C1786 1.368 . S
C1781 C1765 1.349 . S
C1781 H1773 0.950 . S
C1781 C1779 1.327 . S
C1782 C1770 1.349 . S
C1782 H1776 0.950 . S
C1782 C1783 1.327 . S
C1783 H1777 0.950 . S
C1783 C1782 1.327 . S
C1783 C1787 1.429 . S
C1784 C1767 1.574 . S
C1784 H1778 0.949 . S
C1784 C1788 1.368 . S
C1785 C1766 1.429 . S
C1785 C1779 1.429 . S
C1785 C1786 1.523 . S
C1786 C1767 1.368 . S
C1786 C1780 1.368 . S
C1786 C1785 1.523 . S
C1787 C1771 1.429 . S
C1787 C1783 1.429 . S
C1787 C1788 1.523 . S
C1788 C1772 1.368 . S
C1788 C1784 1.368 . S
C1788 C1787 1.523 . S
H1789 C1764 0.950 . S
H1790 C1766 0.950 . S
H1791 C1767 0.949 . S
H1792 C1769 0.950 . S
H1793 C1771 0.950 . S
C1794 C1795 1.349 . S
C1794 C1796 1.327 . S
C1794 H1819 0.950 . S
C1795 C1794 1.349 . S
C1795 C1811 1.349 . S
C1796 C1794 1.327 . S
C1796 C1815 1.429 . S
C1796 H1820 0.950 . S
C1797 C1814 1.574 . S
C1797 C1816 1.368 . S
C1797 H1821 0.949 . S
H1798 C1802 0.949 . S
C1799 C1800 1.349 . S
C1799 C1801 1.327 . S
C1799 H1822 0.950 . S
C1800 C1799 1.349 . S
C1800 C1812 1.349 . S
C1801 C1799 1.327 . S
C1801 C1817 1.429 . S
C1801 H1823 0.950 . S
C1802 H1798 0.949 . S
C1802 C1810 1.574 . S
C1802 C1818 1.368 . S
H1803 C1811 0.950 . S
H1804 C1809 0.950 . S
H1805 C1810 0.949 . S
H1806 C1812 0.950 . S
H1807 C1813 0.950 . S
H1808 C1814 0.949 . S
C1809 H1804 0.950 . S
C1809 C1811 1.327 . S
C1809 C1815 1.429 . S
C1810 C1802 1.574 . S
C1810 H1805 0.949 . S
C1810 C1816 1.368 . S
C1811 C1795 1.349 . S
C1811 H1803 0.950 . S
C1811 C1809 1.327 . S
C1812 C1800 1.349 . S
C1812 H1806 0.950 . S
C1812 C1813 1.327 . S
C1813 H1807 0.950 . S
C1813 C1812 1.327 . S
C1813 C1817 1.429 . S
C1814 C1797 1.574 . S
C1814 H1808 0.949 . S
C1814 C1818 1.368 . S
C1815 C1796 1.429 . S
C1815 C1809 1.429 . S
C1815 C1816 1.523 . S
C1816 C1797 1.368 . S
C1816 C1810 1.368 . S
C1816 C1815 1.523 . S
C1817 C1801 1.429 . S
C1817 C1813 1.429 . S
C1817 C1818 1.523 . S
C1818 C1802 1.368 . S
C1818 C1814 1.368 . S
C1818 C1817 1.523 . S
H1819 C1794 0.950 . S
H1820 C1796 0.950 . S
H1821 C1797 0.949 . S
H1822 C1799 0.950 . S
H1823 C1801 0.950 . S
C1824 C1825 1.349 . S
C1824 C1826 1.327 . S
C1824 H1849 0.950 . S
C1825 C1824 1.349 . S
C1825 C1841 1.349 . S
C1826 C1824 1.327 . S
C1826 C1845 1.429 . S
C1826 H1850 0.950 . S
C1827 C1844 1.574 . S
C1827 C1846 1.368 . S
C1827 H1851 0.949 . S
H1828 C1832 0.949 . S
C1829 C1830 1.349 . S
C1829 C1831 1.327 . S
C1829 H1852 0.950 . S
C1830 C1829 1.349 . S
C1830 C1842 1.349 . S
C1831 C1829 1.327 . S
C1831 C1847 1.429 . S
C1831 H1853 0.950 . S
C1832 H1828 0.949 . S
C1832 C1840 1.574 . S
C1832 C1848 1.368 . S
H1833 C1841 0.950 . S
H1834 C1839 0.950 . S
H1835 C1840 0.949 . S
H1836 C1842 0.950 . S
H1837 C1843 0.950 . S
H1838 C1844 0.949 . S
C1839 H1834 0.950 . S
C1839 C1841 1.327 . S
C1839 C1845 1.429 . S
C1840 C1832 1.574 . S
C1840 H1835 0.949 . S
C1840 C1846 1.368 . S
C1841 C1825 1.349 . S
C1841 H1833 0.950 . S
C1841 C1839 1.327 . S
C1842 C1830 1.349 . S
C1842 H1836 0.950 . S
C1842 C1843 1.327 . S
C1843 H1837 0.950 . S
C1843 C1842 1.327 . S
C1843 C1847 1.429 . S
C1844 C1827 1.574 . S
C1844 H1838 0.949 . S
C1844 C1848 1.368 . S
C1845 C1826 1.429 . S
C1845 C1839 1.429 . S
C1845 C1846 1.523 . S
C1846 C1827 1.368 . S
C1846 C1840 1.368 . S
C1846 C1845 1.523 . S
C1847 C1831 1.429 . S
C1847 C1843 1.429 . S
C1847 C1848 1.523 . S
C1848 C1832 1.368 . S
C1848 C1844 1.368 . S
C1848 C1847 1.523 . S
H1849 C1824 0.950 . S
H1850 C1826 0.950 . S
H1851 C1827 0.949 . S
H1852 C1829 0.950 . S
H1853 C1831 0.950 . S
C1854 C1855 1.349 . S
C1854 C1856 1.327 . S
C1854 H1879 0.950 . S
C1855 C1854 1.349 . S
C1855 C1871 1.349 . S
C1856 C1854 1.327 . S
C1856 C1875 1.430 1_665 S
C1856 H1880 0.950 1_565 S
C1857 C1874 1.574 . S
C1857 C1876 1.368 . S
C1857 H1881 0.949 . S
H1858 C1862 0.949 . S
C1859 C1860 1.349 . S
C1859 C1861 1.327 . S
C1859 H1882 0.950 . S
C1860 C1859 1.349 . S
C1860 C1872 1.349 . S
C1861 C1859 1.327 . S
C1861 C1877 1.429 . S
C1861 H1883 0.950 . S
C1862 H1858 0.949 . S
C1862 C1870 1.574 . S
C1862 C1878 1.368 . S
H1863 C1871 0.950 . S
H1864 C1869 0.950 . S
H1865 C1870 0.949 1_655 S
H1866 C1872 0.950 . S
H1867 C1873 0.950 . S
H1868 C1874 0.949 . S
C1869 H1864 0.950 . S
C1869 C1871 1.327 1_455 S
C1869 C1875 1.428 1_565 S
C1870 C1862 1.574 . S
C1870 H1865 0.949 1_455 S
C1870 C1876 1.368 . S
C1871 C1855 1.349 . S
C1871 H1863 0.950 . S
C1871 C1869 1.327 1_655 S
C1872 C1860 1.349 . S
C1872 H1866 0.950 . S
C1872 C1873 1.327 . S
C1873 H1867 0.950 . S
C1873 C1872 1.327 . S
C1873 C1877 1.429 . S
C1874 C1857 1.574 . S
C1874 H1868 0.949 . S
C1874 C1878 1.368 . S
C1875 C1856 1.430 1_445 S
C1875 C1869 1.428 1_545 S
C1875 C1876 1.522 . S
C1876 C1857 1.368 . S
C1876 C1870 1.368 . S
C1876 C1875 1.522 . S
C1877 C1861 1.429 . S
C1877 C1873 1.429 . S
C1877 C1878 1.523 . S
C1878 C1862 1.368 . S
C1878 C1874 1.368 . S
C1878 C1877 1.523 . S
H1879 C1854 0.950 . S
H1880 C1856 0.950 1_545 S
H1881 C1857 0.949 . S
H1882 C1859 0.950 . S
H1883 C1861 0.950 . S
C1884 C1885 1.349 . S
C1884 C1886 1.327 . S
C1884 H1909 0.950 . S
C1885 C1884 1.349 . S
C1885 C1901 1.349 . S
C1886 C1884 1.327 . S
C1886 C1905 1.429 . S
C1886 H1910 0.950 . S
C1887 C1904 1.574 . S
C1887 C1906 1.368 . S
C1887 H1911 0.949 . S
H1888 C1892 0.949 . S
C1889 C1890 1.349 . S
C1889 C1891 1.327 . S
C1889 H1912 0.950 . S
C1890 C1889 1.349 . S
C1890 C1902 1.349 . S
C1891 C1889 1.327 . S
C1891 C1907 1.429 . S
C1891 H1913 0.950 . S
C1892 H1888 0.949 . S
C1892 C1900 1.574 . S
C1892 C1908 1.368 . S
H1893 C1901 0.950 . S
H1894 C1899 0.950 . S
H1895 C1900 0.949 . S
H1896 C1902 0.950 . S
H1897 C1903 0.950 . S
H1898 C1904 0.949 . S
C1899 H1894 0.950 . S
C1899 C1901 1.327 . S
C1899 C1905 1.429 . S
C1900 C1892 1.574 . S
C1900 H1895 0.949 . S
C1900 C1906 1.368 . S
C1901 C1885 1.349 . S
C1901 H1893 0.950 . S
C1901 C1899 1.327 . S
C1902 C1890 1.349 . S
C1902 H1896 0.950 . S
C1902 C1903 1.327 . S
C1903 H1897 0.950 . S
C1903 C1902 1.327 . S
C1903 C1907 1.429 . S
C1904 C1887 1.574 . S
C1904 H1898 0.949 . S
C1904 C1908 1.368 . S
C1905 C1886 1.429 . S
C1905 C1899 1.429 . S
C1905 C1906 1.523 . S
C1906 C1887 1.368 . S
C1906 C1900 1.368 . S
C1906 C1905 1.523 . S
C1907 C1891 1.429 . S
C1907 C1903 1.429 . S
C1907 C1908 1.523 . S
C1908 C1892 1.368 . S
C1908 C1904 1.368 . S
C1908 C1907 1.523 . S
H1909 C1884 0.950 . S
H1910 C1886 0.950 . S
H1911 C1887 0.949 . S
H1912 C1889 0.950 . S
H1913 C1891 0.950 . S
C1914 C1915 1.349 . S
C1914 C1916 1.327 . S
C1914 H1939 0.950 . S
C1915 C1914 1.349 . S
C1915 C1931 1.349 . S
C1916 C1914 1.327 . S
C1916 C1935 1.429 1_545 S
C1916 H1940 0.950 . S
C1917 C1934 1.574 . S
C1917 C1936 1.368 . S
C1917 H1941 0.949 . S
H1918 C1922 0.949 . S
C1919 C1920 1.349 . S
C1919 C1921 1.327 . S
C1919 H1942 0.950 . S
C1920 C1919 1.349 . S
C1920 C1932 1.349 . S
C1921 C1919 1.327 . S
C1921 C1937 1.429 . S
C1921 H1943 0.950 . S
C1922 H1918 0.949 . S
C1922 C1930 1.574 . S
C1922 C1938 1.368 . S
H1923 C1931 0.950 . S
H1924 C1929 0.967 . S
H1925 C1930 0.949 . S
H1926 C1932 0.950 . S
H1927 C1933 0.950 . S
H1928 C1934 0.949 . S
C1929 H1924 0.967 . S
C1929 C1931 1.327 . S
C1929 C1935 1.429 1_545 S
C1930 C1922 1.574 . S
C1930 H1925 0.949 . S
C1930 C1936 1.368 . S
C1931 C1915 1.349 . S
C1931 H1923 0.950 . S
C1931 C1929 1.327 . S
C1932 C1920 1.349 . S
C1932 H1926 0.950 . S
C1932 C1933 1.327 . S
C1933 H1927 0.950 . S
C1933 C1932 1.327 . S
C1933 C1937 1.429 . S
C1934 C1917 1.574 . S
C1934 H1928 0.949 . S
C1934 C1938 1.368 . S
C1935 C1916 1.429 1_565 S
C1935 C1929 1.429 1_565 S
C1935 C1936 1.523 . S
C1936 C1917 1.368 . S
C1936 C1930 1.368 . S
C1936 C1935 1.523 . S
C1937 C1921 1.429 . S
C1937 C1933 1.429 . S
C1937 C1938 1.523 . S
C1938 C1922 1.368 . S
C1938 C1934 1.368 . S
C1938 C1937 1.523 . S
H1939 C1914 0.950 . S
H1940 C1916 0.950 . S
H1941 C1917 0.949 . S
H1942 C1919 0.950 . S
H1943 C1921 0.950 . S
C1944 C1945 1.349 . S
C1944 C1946 1.327 . S
C1944 H1969 0.950 . S
C1945 C1944 1.349 . S
C1945 C1961 1.349 . S
C1946 C1944 1.327 . S
C1946 C1965 1.429 . S
C1946 H1970 0.950 . S
C1947 C1964 1.574 . S
C1947 C1966 1.368 . S
C1947 H1971 0.949 . S
H1948 C1952 0.949 . S
C1949 C1950 1.349 . S
C1949 C1951 1.327 . S
C1949 H1972 0.950 . S
C1950 C1949 1.349 . S
C1950 C1962 1.349 . S
C1951 C1949 1.327 . S
C1951 C1967 1.429 . S
C1951 H1973 0.950 . S
C1952 H1948 0.949 . S
C1952 C1960 1.574 . S
C1952 C1968 1.368 . S
H1953 C1961 0.950 . S
H1954 C1959 0.950 . S
H1955 C1960 0.949 . S
H1956 C1962 0.950 . S
H1957 C1963 0.950 . S
H1958 C1964 0.949 . S
C1959 H1954 0.950 . S
C1959 C1961 1.327 . S
C1959 C1965 1.429 . S
C1960 C1952 1.574 . S
C1960 H1955 0.949 . S
C1960 C1966 1.368 . S
C1961 C1945 1.349 . S
C1961 H1953 0.950 . S
C1961 C1959 1.327 . S
C1962 C1950 1.349 . S
C1962 H1956 0.950 . S
C1962 C1963 1.327 . S
C1963 H1957 0.950 . S
C1963 C1962 1.327 . S
C1963 C1967 1.429 . S
C1964 C1947 1.574 . S
C1964 H1958 0.949 . S
C1964 C1968 1.368 . S
C1965 C1946 1.429 . S
C1965 C1959 1.429 . S
C1965 C1966 1.523 . S
C1966 C1947 1.368 . S
C1966 C1960 1.368 . S
C1966 C1965 1.523 . S
C1967 C1951 1.429 . S
C1967 C1963 1.429 . S
C1967 C1968 1.523 . S
C1968 C1952 1.368 . S
C1968 C1964 1.368 . S
C1968 C1967 1.523 . S
H1969 C1944 0.950 . S
H1970 C1946 0.950 . S
H1971 C1947 0.949 . S
H1972 C1949 0.950 . S
H1973 C1951 0.950 . S
C1974 C1975 1.349 . S
C1974 C1976 1.327 1_455 S
C1974 H1999 0.950 . S
C1975 C1974 1.349 . S
C1975 C1991 1.349 . S
C1976 C1974 1.327 1_655 S
C1976 C1995 1.428 . S
C1976 H2000 0.950 . S
C1977 C1994 1.574 . S
C1977 C1996 1.368 . S
C1977 H2001 0.949 1_655 S
H1978 C1982 0.949 . S
C1979 C1980 1.349 . S
C1979 C1981 1.327 . S
C1979 H2002 0.950 . S
C1980 C1979 1.349 . S
C1980 C1992 1.349 . S
C1981 C1979 1.327 . S
C1981 C1997 1.429 . S
C1981 H2003 0.950 . S
C1982 H1978 0.949 . S
C1982 C1990 1.574 . S
C1982 C1998 1.368 . S
H1983 C1991 0.950 . S
H1984 C1989 0.950 . S
H1985 C1990 0.949 . S
H1986 C1992 0.950 . S
H1987 C1993 0.950 . S
H1988 C1994 0.949 . S
C1989 H1984 0.950 . S
C1989 C1991 1.327 . S
C1989 C1995 1.430 1_455 S
C1990 C1982 1.574 . S
C1990 H1985 0.949 . S
C1990 C1996 1.368 . S
C1991 C1975 1.349 . S
C1991 H1983 0.950 . S
C1991 C1989 1.327 . S
C1992 C1980 1.349 . S
C1992 H1986 0.950 . S
C1992 C1993 1.327 . S
C1993 H1987 0.950 . S
C1993 C1992 1.327 . S
C1993 C1997 1.429 . S
C1994 C1977 1.574 . S
C1994 H1988 0.949 . S
C1994 C1998 1.368 . S
C1995 C1976 1.428 . S
C1995 C1989 1.430 1_655 S
C1995 C1996 1.522 . S
C1996 C1977 1.368 . S
C1996 C1990 1.368 . S
C1996 C1995 1.522 . S
C1997 C1981 1.429 . S
C1997 C1993 1.429 . S
C1997 C1998 1.523 . S
C1998 C1982 1.368 . S
C1998 C1994 1.368 . S
C1998 C1997 1.523 . S
H1999 C1974 0.950 . S
H2000 C1976 0.950 . S
H2001 C1977 0.949 1_455 S
H2002 C1979 0.950 . S
H2003 C1981 0.950 . S
C2004 C2005 1.349 . S
C2004 C2006 1.327 . S
C2004 H2029 0.950 . S
C2005 C2004 1.349 . S
C2005 C2021 1.349 . S
C2006 C2004 1.327 . S
C2006 C2025 1.429 . S
C2006 H2030 0.950 . S
C2007 C2024 1.574 . S
C2007 C2026 1.368 . S
C2007 H2031 0.949 . S
H2008 C2012 0.949 . S
C2009 C2010 1.349 . S
C2009 C2011 1.327 . S
C2009 H2032 0.950 . S
C2010 C2009 1.349 . S
C2010 C2022 1.349 . S
C2011 C2009 1.327 . S
C2011 C2027 1.429 . S
C2011 H2033 0.950 . S
C2012 H2008 0.949 . S
C2012 C2020 1.574 . S
C2012 C2028 1.368 . S
H2013 C2021 0.950 . S
H2014 C2019 0.950 . S
H2015 C2020 0.949 . S
H2016 C2022 0.950 . S
H2017 C2023 0.950 . S
H2018 C2024 0.949 . S
C2019 H2014 0.950 . S
C2019 C2021 1.327 . S
C2019 C2025 1.429 . S
C2020 C2012 1.574 . S
C2020 H2015 0.949 . S
C2020 C2026 1.368 . S
C2021 C2005 1.349 . S
C2021 H2013 0.950 . S
C2021 C2019 1.327 . S
C2022 C2010 1.349 . S
C2022 H2016 0.950 . S
C2022 C2023 1.327 . S
C2023 H2017 0.950 . S
C2023 C2022 1.327 . S
C2023 C2027 1.429 . S
C2024 C2007 1.574 . S
C2024 H2018 0.949 . S
C2024 C2028 1.368 . S
C2025 C2006 1.429 . S
C2025 C2019 1.429 . S
C2025 C2026 1.523 . S
C2026 C2007 1.368 . S
C2026 C2020 1.368 . S
C2026 C2025 1.523 . S
C2027 C2011 1.429 . S
C2027 C2023 1.429 . S
C2027 C2028 1.523 . S
C2028 C2012 1.368 . S
C2028 C2024 1.368 . S
C2028 C2027 1.523 . S
H2029 C2004 0.950 . S
H2030 C2006 0.950 . S
H2031 C2007 0.949 . S
H2032 C2009 0.950 . S
H2033 C2011 0.950 . S
C2034 C2035 1.349 . S
C2034 C2036 1.327 . S
C2034 H2059 0.950 . S
C2035 C2034 1.349 . S
C2035 C2051 1.349 . S
C2036 C2034 1.327 . S
C2036 C2055 1.429 . S
C2036 H2060 0.950 . S
C2037 C2054 1.574 . S
C2037 C2056 1.368 . S
C2037 H2061 0.949 . S
H2038 C2042 0.949 . S
C2039 C2040 1.349 . S
C2039 C2041 1.327 . S
C2039 H2062 0.950 . S
C2040 C2039 1.349 . S
C2040 C2052 1.349 . S
C2041 C2039 1.327 . S
C2041 C2057 1.429 . S
C2041 H2063 0.950 . S
C2042 H2038 0.949 . S
C2042 C2050 1.574 . S
C2042 C2058 1.368 . S
H2043 C2051 0.950 . S
H2044 C2049 0.950 . S
H2045 C2050 0.949 . S
H2046 C2052 0.950 . S
H2047 C2053 0.950 . S
H2048 C2054 0.949 . S
C2049 H2044 0.950 . S
C2049 C2051 1.327 . S
C2049 C2055 1.429 . S
C2050 C2042 1.574 . S
C2050 H2045 0.949 . S
C2050 C2056 1.368 . S
C2051 C2035 1.349 . S
C2051 H2043 0.950 . S
C2051 C2049 1.327 . S
C2052 C2040 1.349 . S
C2052 H2046 0.950 . S
C2052 C2053 1.327 . S
C2053 H2047 0.950 . S
C2053 C2052 1.327 . S
C2053 C2057 1.429 . S
C2054 C2037 1.574 . S
C2054 H2048 0.949 . S
C2054 C2058 1.368 . S
C2055 C2036 1.429 . S
C2055 C2049 1.429 . S
C2055 C2056 1.523 . S
C2056 C2037 1.368 . S
C2056 C2050 1.368 . S
C2056 C2055 1.523 . S
C2057 C2041 1.429 . S
C2057 C2053 1.429 . S
C2057 C2058 1.523 . S
C2058 C2042 1.368 . S
C2058 C2054 1.368 . S
C2058 C2057 1.523 . S
H2059 C2034 0.950 . S
H2060 C2036 0.950 . S
H2061 C2037 0.949 . S
H2062 C2039 0.950 . S
H2063 C2041 0.950 . S
C2064 C2065 1.349 . S
C2064 C2066 1.327 . S
C2064 H2089 0.950 . S
C2065 C2064 1.349 . S
C2065 C2081 1.349 . S
C2066 C2064 1.327 . S
C2066 C2085 1.429 . S
C2066 H2090 0.950 . S
C2067 C2084 1.574 . S
C2067 C2086 1.368 . S
C2067 H2091 0.949 . S
H2068 C2072 0.949 . S
C2069 C2070 1.349 . S
C2069 C2071 1.327 . S
C2069 H2092 0.950 . S
C2070 C2069 1.349 . S
C2070 C2082 1.349 . S
C2071 C2069 1.327 . S
C2071 C2087 1.429 . S
C2071 H2093 0.950 . S
C2072 H2068 0.949 . S
C2072 C2080 1.574 . S
C2072 C2088 1.368 . S
H2073 C2081 0.950 . S
H2074 C2079 0.950 . S
H2075 C2080 0.949 . S
H2076 C2082 0.950 . S
H2077 C2083 0.950 . S
H2078 C2084 0.949 . S
C2079 H2074 0.950 . S
C2079 C2081 1.327 . S
C2079 C2085 1.429 . S
C2080 C2072 1.574 . S
C2080 H2075 0.949 . S
C2080 C2086 1.368 . S
C2081 C2065 1.349 . S
C2081 H2073 0.950 . S
C2081 C2079 1.327 . S
C2082 C2070 1.349 . S
C2082 H2076 0.950 . S
C2082 C2083 1.327 . S
C2083 H2077 0.950 . S
C2083 C2082 1.327 . S
C2083 C2087 1.429 . S
C2084 C2067 1.574 . S
C2084 H2078 0.949 . S
C2084 C2088 1.368 . S
C2085 C2066 1.429 . S
C2085 C2079 1.429 . S
C2085 C2086 1.523 . S
C2086 C2067 1.368 . S
C2086 C2080 1.368 . S
C2086 C2085 1.523 . S
C2087 C2071 1.429 . S
C2087 C2083 1.429 . S
C2087 C2088 1.523 . S
C2088 C2072 1.368 . S
C2088 C2084 1.368 . S
C2088 C2087 1.523 . S
H2089 C2064 0.950 . S
H2090 C2066 0.950 . S
H2091 C2067 0.949 . S
H2092 C2069 0.950 . S
H2093 C2071 0.950 . S
C2094 C2095 1.349 . S
C2094 C2096 1.327 . S
C2094 H2119 0.950 . S
C2095 C2094 1.349 . S
C2095 C2111 1.349 . S
C2096 C2094 1.327 . S
C2096 C2115 1.429 . S
C2096 H2120 0.950 . S
C2097 C2114 1.574 . S
C2097 C2116 1.368 . S
C2097 H2121 0.949 . S
H2098 C2102 0.949 . S
C2099 C2100 1.349 . S
C2099 C2101 1.327 . S
C2099 H2122 0.950 . S
C2100 C2099 1.349 . S
C2100 C2112 1.349 . S
C2101 C2099 1.327 . S
C2101 C2117 1.429 . S
C2101 H2123 0.950 . S
C2102 H2098 0.949 . S
C2102 C2110 1.574 . S
C2102 C2118 1.368 . S
H2103 C2111 0.950 . S
H2104 C2109 0.950 . S
H2105 C2110 0.949 . S
H2106 C2112 0.950 . S
H2107 C2113 0.950 . S
H2108 C2114 0.949 . S
C2109 H2104 0.950 . S
C2109 C2111 1.327 . S
C2109 C2115 1.429 . S
C2110 C2102 1.574 . S
C2110 H2105 0.949 . S
C2110 C2116 1.368 . S
C2111 C2095 1.349 . S
C2111 H2103 0.950 . S
C2111 C2109 1.327 . S
C2112 C2100 1.349 . S
C2112 H2106 0.950 . S
C2112 C2113 1.327 . S
C2113 H2107 0.950 . S
C2113 C2112 1.327 . S
C2113 C2117 1.429 . S
C2114 C2097 1.574 . S
C2114 H2108 0.949 . S
C2114 C2118 1.368 . S
C2115 C2096 1.429 . S
C2115 C2109 1.429 . S
C2115 C2116 1.523 . S
C2116 C2097 1.368 . S
C2116 C2110 1.368 . S
C2116 C2115 1.523 . S
C2117 C2101 1.429 . S
C2117 C2113 1.429 . S
C2117 C2118 1.523 . S
C2118 C2102 1.368 . S
C2118 C2114 1.368 . S
C2118 C2117 1.523 . S
H2119 C2094 0.950 . S
H2120 C2096 0.950 . S
H2121 C2097 0.949 . S
H2122 C2099 0.950 . S
H2123 C2101 0.950 . S
C2124 C2125 1.349 . S
C2124 C2126 1.327 1_556 S
C2124 H2149 0.950 1_556 S
C2125 C2124 1.349 . S
C2125 C2141 1.349 . S
C2126 C2124 1.327 1_554 S
C2126 C2145 1.428 1_655 S
C2126 H2150 0.950 . S
C2127 C2144 1.575 1_556 S
C2127 C2146 1.370 1_556 S
C2127 H2151 0.947 . S
H2128 C2132 0.949 . S
C2129 C2130 1.349 . S
C2129 C2131 1.327 . S
C2129 H2152 0.950 . S
C2130 C2129 1.349 . S
C2130 C2142 1.349 . S
C2131 C2129 1.327 . S
C2131 C2147 1.429 . S
C2131 H2153 0.950 . S
C2132 H2128 0.949 . S
C2132 C2140 1.574 . S
C2132 C2148 1.368 . S
H2133 C2141 0.950 . S
H2134 C2139 0.929 1_455 S
H2135 C2140 0.949 . S
H2136 C2142 0.950 . S
H2137 C2143 0.950 . S
H2138 C2144 0.949 . S
C2139 H2134 0.929 1_655 S
C2139 C2141 1.353 . S
C2139 C2145 1.425 1_656 S
C2140 C2132 1.574 . S
C2140 H2135 0.949 . S
C2140 C2146 1.368 . S
C2141 C2125 1.349 . S
C2141 H2133 0.950 . S
C2141 C2139 1.353 . S
C2142 C2130 1.349 . S
C2142 H2136 0.950 . S
C2142 C2143 1.327 . S
C2143 H2137 0.950 . S
C2143 C2142 1.327 . S
C2143 C2147 1.429 . S
C2144 C2127 1.575 1_554 S
C2144 H2138 0.949 . S
C2144 C2148 1.368 . S
C2145 C2126 1.428 1_455 S
C2145 C2139 1.425 1_454 S
C2145 C2146 1.522 . S
C2146 C2127 1.370 1_554 S
C2146 C2140 1.368 . S
C2146 C2145 1.522 . S
C2147 C2131 1.429 . S
C2147 C2143 1.429 . S
C2147 C2148 1.523 . S
C2148 C2132 1.368 . S
C2148 C2144 1.368 . S
C2148 C2147 1.523 . S
H2149 C2124 0.950 1_554 S
H2150 C2126 0.950 . S
H2151 C2127 0.947 . S
H2152 C2129 0.950 . S
H2153 C2131 0.950 . S
C2154 C2155 1.349 . S
C2154 C2156 1.327 . S
C2154 H2179 0.950 . S
C2155 C2154 1.349 . S
C2155 C2171 1.349 . S
C2156 C2154 1.327 . S
C2156 C2175 1.429 . S
C2156 H2180 0.950 . S
C2157 C2174 1.574 . S
C2157 C2176 1.368 . S
C2157 H2181 0.949 . S
H2158 C2162 0.949 . S
C2159 C2160 1.349 . S
C2159 C2161 1.327 . S
C2159 H2182 0.950 . S
C2160 C2159 1.349 . S
C2160 C2172 1.349 . S
C2161 C2159 1.327 . S
C2161 C2177 1.429 . S
C2161 H2183 0.950 . S
C2162 H2158 0.949 . S
C2162 C2170 1.574 . S
C2162 C2178 1.368 . S
H2163 C2171 0.950 . S
H2164 C2169 0.950 . S
H2165 C2170 0.949 . S
H2166 C2172 0.950 . S
H2167 C2173 0.950 . S
H2168 C2174 0.949 . S
C2169 H2164 0.950 . S
C2169 C2171 1.327 . S
C2169 C2175 1.429 . S
C2170 C2162 1.574 . S
C2170 H2165 0.949 . S
C2170 C2176 1.368 . S
C2171 C2155 1.349 . S
C2171 H2163 0.950 . S
C2171 C2169 1.327 . S
C2172 C2160 1.349 . S
C2172 H2166 0.950 . S
C2172 C2173 1.327 . S
C2173 H2167 0.950 . S
C2173 C2172 1.327 . S
C2173 C2177 1.429 . S
C2174 C2157 1.574 . S
C2174 H2168 0.949 . S
C2174 C2178 1.368 . S
C2175 C2156 1.429 . S
C2175 C2169 1.429 . S
C2175 C2176 1.523 . S
C2176 C2157 1.368 . S
C2176 C2170 1.368 . S
C2176 C2175 1.523 . S
C2177 C2161 1.429 . S
C2177 C2173 1.429 . S
C2177 C2178 1.523 . S
C2178 C2162 1.368 . S
C2178 C2174 1.368 . S
C2178 C2177 1.523 . S
H2179 C2154 0.950 . S
H2180 C2156 0.950 . S
H2181 C2157 0.949 . S
H2182 C2159 0.950 . S
H2183 C2161 0.950 . S
C2184 C2185 1.349 . S
C2184 C2186 1.327 . S
C2184 H2209 0.950 . S
C2185 C2184 1.349 . S
C2185 C2201 1.349 . S
C2186 C2184 1.327 . S
C2186 C2205 1.429 . S
C2186 H2210 0.950 . S
C2187 C2204 1.574 . S
C2187 C2206 1.368 . S
C2187 H2211 0.949 . S
H2188 C2192 0.949 . S
C2189 C2190 1.349 . S
C2189 C2191 1.327 . S
C2189 H2212 0.950 . S
C2190 C2189 1.349 . S
C2190 C2202 1.349 . S
C2191 C2189 1.327 . S
C2191 C2207 1.429 . S
C2191 H2213 0.950 . S
C2192 H2188 0.949 . S
C2192 C2200 1.574 . S
C2192 C2208 1.368 . S
H2193 C2201 0.950 . S
H2194 C2199 0.950 . S
H2195 C2200 0.949 . S
H2196 C2202 0.950 . S
H2197 C2203 0.950 . S
H2198 C2204 0.949 . S
C2199 H2194 0.950 . S
C2199 C2201 1.327 . S
C2199 C2205 1.429 . S
C2200 C2192 1.574 . S
C2200 H2195 0.949 . S
C2200 C2206 1.368 . S
C2201 C2185 1.349 . S
C2201 H2193 0.950 . S
C2201 C2199 1.327 . S
C2202 C2190 1.349 . S
C2202 H2196 0.950 . S
C2202 C2203 1.327 . S
C2203 H2197 0.950 . S
C2203 C2202 1.327 . S
C2203 C2207 1.429 . S
C2204 C2187 1.574 . S
C2204 H2198 0.949 . S
C2204 C2208 1.368 . S
C2205 C2186 1.429 . S
C2205 C2199 1.429 . S
C2205 C2206 1.523 . S
C2206 C2187 1.368 . S
C2206 C2200 1.368 . S
C2206 C2205 1.523 . S
C2207 C2191 1.429 . S
C2207 C2203 1.429 . S
C2207 C2208 1.523 . S
C2208 C2192 1.368 . S
C2208 C2204 1.368 . S
C2208 C2207 1.523 . S
H2209 C2184 0.950 . S
H2210 C2186 0.950 . S
H2211 C2187 0.949 . S
H2212 C2189 0.950 . S
H2213 C2191 0.950 . S
C2214 C2215 1.349 . S
C2214 C2216 1.327 . S
C2214 H2239 0.950 . S
C2215 C2214 1.349 . S
C2215 C2231 1.349 . S
C2216 C2214 1.327 . S
C2216 C2235 1.429 . S
C2216 H2240 0.950 . S
C2217 C2234 1.574 . S
C2217 C2236 1.368 . S
C2217 H2241 0.949 . S
H2218 C2222 0.949 . S
C2219 C2220 1.349 . S
C2219 C2221 1.327 . S
C2219 H2242 0.950 . S
C2220 C2219 1.349 . S
C2220 C2232 1.349 . S
C2221 C2219 1.327 . S
C2221 C2237 1.429 . S
C2221 H2243 0.950 . S
C2222 H2218 0.949 . S
C2222 C2230 1.574 . S
C2222 C2238 1.368 . S
H2223 C2231 0.950 . S
H2224 C2229 0.950 . S
H2225 C2230 0.949 . S
H2226 C2232 0.950 . S
H2227 C2233 0.950 . S
H2228 C2234 0.949 . S
C2229 H2224 0.950 . S
C2229 C2231 1.327 . S
C2229 C2235 1.429 . S
C2230 C2222 1.574 . S
C2230 H2225 0.949 . S
C2230 C2236 1.368 . S
C2231 C2215 1.349 . S
C2231 H2223 0.950 . S
C2231 C2229 1.327 . S
C2232 C2220 1.349 . S
C2232 H2226 0.950 . S
C2232 C2233 1.327 . S
C2233 H2227 0.950 . S
C2233 C2232 1.327 . S
C2233 C2237 1.429 . S
C2234 C2217 1.574 . S
C2234 H2228 0.949 . S
C2234 C2238 1.368 . S
C2235 C2216 1.429 . S
C2235 C2229 1.429 . S
C2235 C2236 1.523 . S
C2236 C2217 1.368 . S
C2236 C2230 1.368 . S
C2236 C2235 1.523 . S
C2237 C2221 1.429 . S
C2237 C2233 1.429 . S
C2237 C2238 1.523 . S
C2238 C2222 1.368 . S
C2238 C2234 1.368 . S
C2238 C2237 1.523 . S
H2239 C2214 0.950 . S
H2240 C2216 0.950 . S
H2241 C2217 0.949 . S
H2242 C2219 0.950 . S
H2243 C2221 0.950 . S
C2244 C2245 1.349 . S
C2244 C2246 1.327 1_554 S
C2244 H2269 0.950 1_554 S
C2245 C2244 1.349 . S
C2245 C2261 1.349 . S
C2246 C2244 1.327 1_556 S
C2246 C2265 1.428 . S
C2246 H2270 0.950 . S
C2247 C2264 1.574 . S
C2247 C2266 1.368 . S
C2247 H2271 0.949 1_556 S
H2248 C2252 0.949 . S
C2249 C2250 1.349 . S
C2249 C2251 1.327 . S
C2249 H2272 0.950 . S
C2250 C2249 1.349 . S
C2250 C2262 1.349 . S
C2251 C2249 1.327 . S
C2251 C2267 1.429 . S
C2251 H2273 0.950 . S
C2252 H2248 0.949 . S
C2252 C2260 1.574 . S
C2252 C2268 1.368 . S
H2253 C2261 0.950 . S
H2254 C2259 0.950 . S
H2255 C2260 0.949 . S
H2256 C2262 0.950 . S
H2257 C2263 0.950 . S
H2258 C2264 0.949 . S
C2259 H2254 0.950 . S
C2259 C2261 1.327 . S
C2259 C2265 1.430 1_554 S
C2260 C2252 1.574 . S
C2260 H2255 0.949 . S
C2260 C2266 1.368 . S
C2261 C2245 1.349 . S
C2261 H2253 0.950 . S
C2261 C2259 1.327 . S
C2262 C2250 1.349 . S
C2262 H2256 0.950 . S
C2262 C2263 1.327 . S
C2263 H2257 0.950 . S
C2263 C2262 1.327 . S
C2263 C2267 1.429 . S
C2264 C2247 1.574 . S
C2264 H2258 0.949 . S
C2264 C2268 1.368 . S
C2265 C2246 1.428 . S
C2265 C2259 1.430 1_556 S
C2265 C2266 1.522 . S
C2266 C2247 1.368 . S
C2266 C2260 1.368 . S
C2266 C2265 1.522 . S
C2267 C2251 1.429 . S
C2267 C2263 1.429 . S
C2267 C2268 1.523 . S
C2268 C2252 1.368 . S
C2268 C2264 1.368 . S
C2268 C2267 1.523 . S
H2269 C2244 0.950 1_556 S
H2270 C2246 0.950 . S
H2271 C2247 0.949 1_554 S
H2272 C2249 0.950 . S
H2273 C2251 0.950 . S
C2274 C2275 1.349 . S
C2274 C2276 1.327 . S
C2274 H2299 0.950 . S
C2275 C2274 1.349 . S
C2275 C2291 1.349 . S
C2276 C2274 1.327 . S
C2276 C2295 1.429 . S
C2276 H2300 0.950 . S
C2277 C2294 1.574 . S
C2277 C2296 1.368 . S
C2277 H2301 0.949 . S
H2278 C2282 0.949 . S
C2279 C2280 1.349 . S
C2279 C2281 1.327 . S
C2279 H2302 0.950 . S
C2280 C2279 1.349 . S
C2280 C2292 1.349 . S
C2281 C2279 1.327 . S
C2281 C2297 1.429 1_455 S
C2281 H2303 0.950 1_455 S
C2282 H2278 0.949 . S
C2282 C2290 1.574 . S
C2282 C2298 1.368 . S
H2283 C2291 0.950 . S
H2284 C2289 0.950 . S
H2285 C2290 0.949 . S
H2286 C2292 0.950 . S
H2287 C2293 0.950 . S
H2288 C2294 0.949 . S
C2289 H2284 0.950 . S
C2289 C2291 1.327 . S
C2289 C2295 1.429 . S
C2290 C2282 1.574 . S
C2290 H2285 0.949 . S
C2290 C2296 1.368 . S
C2291 C2275 1.349 . S
C2291 H2283 0.950 . S
C2291 C2289 1.327 . S
C2292 C2280 1.349 . S
C2292 H2286 0.950 . S
C2292 C2293 1.327 . S
C2293 H2287 0.950 . S
C2293 C2292 1.327 . S
C2293 C2297 1.429 1_455 S
C2294 C2277 1.574 . S
C2294 H2288 0.949 . S
C2294 C2298 1.368 . S
C2295 C2276 1.429 . S
C2295 C2289 1.429 . S
C2295 C2296 1.523 . S
C2296 C2277 1.368 . S
C2296 C2290 1.368 . S
C2296 C2295 1.523 . S
C2297 C2281 1.429 1_655 S
C2297 C2293 1.429 1_655 S
C2297 C2298 1.523 . S
C2298 C2282 1.368 . S
C2298 C2294 1.368 . S
C2298 C2297 1.523 . S
H2299 C2274 0.950 . S
H2300 C2276 0.950 . S
H2301 C2277 0.949 . S
H2302 C2279 0.950 . S
H2303 C2281 0.950 1_655 S
C865 C328 1.042 . S
C870 C4 1.042 . S
C895 C40 1.042 . S
C900 C364 1.042 . S
C925 C76 1.042 . S
C930 C400 1.042 . S
C955 C112 1.042 . S
C960 C292 1.042 . S
C985 C148 1.042 . S
C990 C544 1.042 . S
C1015 C436 1.042 . S
C1020 C184 1.042 . S
C1045 C220 1.042 . S
C1050 C472 1.042 . S
C1075 C508 1.042 . S
C1080 C256 1.042 . S
C1105 C580 1.042 . S
C1110 C652 1.042 . S
C1135 C796 1.042 . S
C1140 C616 1.042 . S
C1165 C688 1.042 . S
C1170 C832 1.042 . S
C1195 C760 1.042 . S
C1200 C724 1.042 . S
C1225 C734 1.657 . S
C1230 C14 1.657 . S
C1255 C50 1.657 . S
C1260 C626 1.657 . S
C1285 C86 1.657 . S
C1290 C662 1.657 . S
C1315 C122 1.657 . S
C1320 C698 1.657 . S
C1345 C158 1.657 . S
C1350 C842 1.657 . S
C1375 C770 1.657 . S
C1380 C194 1.657 . S
C1405 C806 1.657 . S
C1410 C230 1.657 . S
C1435 C590 1.657 . S
C1440 C266 1.657 . S
C1465 C554 1.657 . S
C1470 C302 1.657 . S
C1495 C338 1.657 . S
C1500 C446 1.657 . S
C1525 C482 1.657 . S
C1530 C374 1.657 . S
C1555 C518 1.657 . S
C1560 C410 1.657 . S
C1585 C3 0.866 . S
C1590 C578 0.883 . S
C1615 C830 0.883 . S
C1620 C39 0.866 . S
C1645 C758 0.883 . S
C1650 C75 0.866 . S
C1675 C111 0.866 . S
C1680 C794 0.883 . S
C1705 C147 0.866 . S
C1710 C614 0.883 . S
C1735 C650 0.883 . S
C1740 C183 0.866 . S
C1765 C686 0.883 . S
C1770 C219 0.866 . S
C1795 C722 0.883 . S
C1800 C255 0.866 . S
C1825 C2 0.883 . S
C1830 C291 0.866 . S
C1855 C38 0.883 . S
C1860 C327 0.866 . S
C1885 C74 0.883 . S
C1890 C363 0.866 . S
C1915 C110 0.883 . S
C1920 C399 0.866 . S
C1945 C146 0.883 . S
C1950 C435 0.866 . S
C1975 C182 0.883 . S
C1980 C471 0.866 . S
C2005 C507 0.866 . S
C2010 C218 0.883 . S
C2035 C254 0.883 . S
C2040 C543 0.866 . S
C2065 C290 0.883 . S
C2070 C579 0.866 . S
C2095 C615 0.866 . S
C2100 C434 0.883 . S
C2125 C470 0.883 . S
C2130 C651 0.866 . S
C2155 C687 0.866 . S
C2160 C506 0.883 . S
C2185 C723 0.866 . S
C2190 C542 0.883 . S
C2215 C759 0.866 . S
C2220 C362 0.883 . S
C2245 C398 0.883 . S
C2250 C795 0.866 . S
C2275 C831 0.866 . S
C2280 C326 0.883 . S
